# Generated by pormake.
# Topology wfx, (7)-cn, num edge types: 1
# Building blocks:
#     Node 0, Type 0, BuildingBlock: HICVOG_clean_sbu_0, # of connection points: 7
#     Node 1, Type 0, BuildingBlock: HICVOG_clean_sbu_0, # of connection points: 7
#     Node 2, Type 0, BuildingBlock: HICVOG_clean_sbu_0, # of connection points: 7
#     Node 3, Type 0, BuildingBlock: HICVOG_clean_sbu_0, # of connection points: 7
#     Node 4, Type 0, BuildingBlock: HICVOG_clean_sbu_0, # of connection points: 7
#     Node 5, Type 0, BuildingBlock: HICVOG_clean_sbu_0, # of connection points: 7
#     Node 6, Type 0, BuildingBlock: HICVOG_clean_sbu_0, # of connection points: 7
#     Node 7, Type 0, BuildingBlock: HICVOG_clean_sbu_0, # of connection points: 7
#     Node 8, Type 0, BuildingBlock: HICVOG_clean_sbu_0, # of connection points: 7
#     Node 9, Type 0, BuildingBlock: HICVOG_clean_sbu_0, # of connection points: 7
#     Node 10, Type 0, BuildingBlock: HICVOG_clean_sbu_0, # of connection points: 7
#     Node 11, Type 0, BuildingBlock: HICVOG_clean_sbu_0, # of connection points: 7
#     Node 12, Type 0, BuildingBlock: HICVOG_clean_sbu_0, # of connection points: 7
#     Node 13, Type 0, BuildingBlock: HICVOG_clean_sbu_0, # of connection points: 7
#     Node 14, Type 0, BuildingBlock: HICVOG_clean_sbu_0, # of connection points: 7
#     Node 15, Type 0, BuildingBlock: HICVOG_clean_sbu_0, # of connection points: 7
#     Edge 16, Type (0, 0), BuildingBlock: KIFKEQ_clean_linker_1, # of connection points: 2
#     Edge 17, Type (0, 0), BuildingBlock: KIFKEQ_clean_linker_1, # of connection points: 2
#     Edge 18, Type (0, 0), BuildingBlock: KIFKEQ_clean_linker_1, # of connection points: 2
#     Edge 19, Type (0, 0), BuildingBlock: KIFKEQ_clean_linker_1, # of connection points: 2
#     Edge 20, Type (0, 0), BuildingBlock: KIFKEQ_clean_linker_1, # of connection points: 2
#     Edge 21, Type (0, 0), BuildingBlock: KIFKEQ_clean_linker_1, # of connection points: 2
#     Edge 22, Type (0, 0), BuildingBlock: KIFKEQ_clean_linker_1, # of connection points: 2
#     Edge 23, Type (0, 0), BuildingBlock: KIFKEQ_clean_linker_1, # of connection points: 2
#     Edge 24, Type (0, 0), BuildingBlock: KIFKEQ_clean_linker_1, # of connection points: 2
#     Edge 25, Type (0, 0), BuildingBlock: KIFKEQ_clean_linker_1, # of connection points: 2
#     Edge 26, Type (0, 0), BuildingBlock: KIFKEQ_clean_linker_1, # of connection points: 2
#     Edge 27, Type (0, 0), BuildingBlock: KIFKEQ_clean_linker_1, # of connection points: 2
#     Edge 28, Type (0, 0), BuildingBlock: KIFKEQ_clean_linker_1, # of connection points: 2
#     Edge 29, Type (0, 0), BuildingBlock: KIFKEQ_clean_linker_1, # of connection points: 2
#     Edge 30, Type (0, 0), BuildingBlock: KIFKEQ_clean_linker_1, # of connection points: 2
#     Edge 31, Type (0, 0), BuildingBlock: KIFKEQ_clean_linker_1, # of connection points: 2
#     Edge 32, Type (0, 0), BuildingBlock: KIFKEQ_clean_linker_1, # of connection points: 2
#     Edge 33, Type (0, 0), BuildingBlock: KIFKEQ_clean_linker_1, # of connection points: 2
#     Edge 34, Type (0, 0), BuildingBlock: KIFKEQ_clean_linker_1, # of connection points: 2
#     Edge 35, Type (0, 0), BuildingBlock: KIFKEQ_clean_linker_1, # of connection points: 2
#     Edge 36, Type (0, 0), BuildingBlock: KIFKEQ_clean_linker_1, # of connection points: 2
#     Edge 37, Type (0, 0), BuildingBlock: KIFKEQ_clean_linker_1, # of connection points: 2
#     Edge 38, Type (0, 0), BuildingBlock: KIFKEQ_clean_linker_1, # of connection points: 2
#     Edge 39, Type (0, 0), BuildingBlock: KIFKEQ_clean_linker_1, # of connection points: 2
#     Edge 40, Type (0, 0), BuildingBlock: KIFKEQ_clean_linker_1, # of connection points: 2
#     Edge 41, Type (0, 0), BuildingBlock: KIFKEQ_clean_linker_1, # of connection points: 2
#     Edge 42, Type (0, 0), BuildingBlock: KIFKEQ_clean_linker_1, # of connection points: 2
#     Edge 43, Type (0, 0), BuildingBlock: KIFKEQ_clean_linker_1, # of connection points: 2
#     Edge 44, Type (0, 0), BuildingBlock: KIFKEQ_clean_linker_1, # of connection points: 2
#     Edge 45, Type (0, 0), BuildingBlock: KIFKEQ_clean_linker_1, # of connection points: 2
#     Edge 46, Type (0, 0), BuildingBlock: KIFKEQ_clean_linker_1, # of connection points: 2
#     Edge 47, Type (0, 0), BuildingBlock: KIFKEQ_clean_linker_1, # of connection points: 2
#     Edge 48, Type (0, 0), BuildingBlock: KIFKEQ_clean_linker_1, # of connection points: 2
#     Edge 49, Type (0, 0), BuildingBlock: KIFKEQ_clean_linker_1, # of connection points: 2
#     Edge 50, Type (0, 0), BuildingBlock: KIFKEQ_clean_linker_1, # of connection points: 2
#     Edge 51, Type (0, 0), BuildingBlock: KIFKEQ_clean_linker_1, # of connection points: 2
#     Edge 52, Type (0, 0), BuildingBlock: KIFKEQ_clean_linker_1, # of connection points: 2
#     Edge 53, Type (0, 0), BuildingBlock: KIFKEQ_clean_linker_1, # of connection points: 2
#     Edge 54, Type (0, 0), BuildingBlock: KIFKEQ_clean_linker_1, # of connection points: 2
#     Edge 55, Type (0, 0), BuildingBlock: KIFKEQ_clean_linker_1, # of connection points: 2
#     Edge 56, Type (0, 0), BuildingBlock: KIFKEQ_clean_linker_1, # of connection points: 2
#     Edge 57, Type (0, 0), BuildingBlock: KIFKEQ_clean_linker_1, # of connection points: 2
#     Edge 58, Type (0, 0), BuildingBlock: KIFKEQ_clean_linker_1, # of connection points: 2
#     Edge 59, Type (0, 0), BuildingBlock: KIFKEQ_clean_linker_1, # of connection points: 2
#     Edge 60, Type (0, 0), BuildingBlock: KIFKEQ_clean_linker_1, # of connection points: 2
#     Edge 61, Type (0, 0), BuildingBlock: KIFKEQ_clean_linker_1, # of connection points: 2
#     Edge 62, Type (0, 0), BuildingBlock: KIFKEQ_clean_linker_1, # of connection points: 2
#     Edge 63, Type (0, 0), BuildingBlock: KIFKEQ_clean_linker_1, # of connection points: 2
#     Edge 64, Type (0, 0), BuildingBlock: KIFKEQ_clean_linker_1, # of connection points: 2
#     Edge 65, Type (0, 0), BuildingBlock: KIFKEQ_clean_linker_1, # of connection points: 2
#     Edge 66, Type (0, 0), BuildingBlock: KIFKEQ_clean_linker_1, # of connection points: 2
#     Edge 67, Type (0, 0), BuildingBlock: KIFKEQ_clean_linker_1, # of connection points: 2
#     Edge 68, Type (0, 0), BuildingBlock: KIFKEQ_clean_linker_1, # of connection points: 2
#     Edge 69, Type (0, 0), BuildingBlock: KIFKEQ_clean_linker_1, # of connection points: 2
#     Edge 70, Type (0, 0), BuildingBlock: KIFKEQ_clean_linker_1, # of connection points: 2
#     Edge 71, Type (0, 0), BuildingBlock: KIFKEQ_clean_linker_1, # of connection points: 2
# Relax obj value: 0.368
# Max RMSD: 0.263
# Mean RMSD: 0.263
data_MOF--net-wfx--node1-HICVOG_clean_sbu_0--edge1-KIFKEQ_clean_linker_1
_symmetry_space_group_name_H-M    P1
_symmetry_Int_Tables_number       1
_symmetry_cell_setting            triclinic
loop_
_symmetry_equiv_pos_as_xyz
'x, y, z'
_cell_length_a     33.855202
_cell_length_b     33.929919
_cell_length_c     65.760486
_cell_angle_alpha  90.004708
_cell_angle_beta   89.95641
_cell_angle_gamma 89.911382
loop_
_atom_site_label
_atom_site_type_symbol
_atom_site_fract_x
_atom_site_fract_y
_atom_site_fract_z
_atom_type_partial_charge
Zn0 Zn 0.6701 0.06502 0.0692 0.0
C1 C 0.59988 1.00276 0.10465 0.0
N2 N 0.57583 0.99937 0.08842 0.0
C3 C 0.59182 0.02358 0.07457 0.0
N4 N 0.6248 0.04144 0.0822 0.0
N5 N 0.62928 0.02936 0.1013 0.0
C6 C 0.72752 0.9973 0.13922 0.0
O7 O 0.70127 0.9779 0.14998 0.0
O8 O 0.65829 0.07204 0.03964 0.0
Zn9 Zn 0.66495 0.05696 0.12183 0.0
N10 N 0.71304 0.02863 0.07399 0.0
C11 C 0.73656 0.96531 0.08382 0.0
C12 C 0.70555 0.99016 0.07828 0.0
C13 C 0.75026 0.04318 0.07486 0.0
N14 N 0.77392 0.97974 0.08447 0.0
C15 C 0.78185 1.01822 0.08022 0.0
O16 O 0.68779 0.11275 0.11315 0.0
C17 C 0.69492 0.13322 0.09717 0.0
O18 O 0.68733 0.11907 0.07965 0.0
H19 H 0.67571 0.97894 0.07764 0.0
H20 H 0.75485 0.07372 0.07088 0.0
C21 C 0.63977 0.07326 0.16571 0.0
C22 C 0.61091 0.08857 0.17931 0.0
C23 C 0.56588 0.09456 0.15183 0.0
C24 C 0.59438 0.08053 0.13848 0.0
N25 N 0.63071 0.06987 0.14542 0.0
N26 N 0.57488 0.09855 0.17175 0.0
H27 H 0.66912 0.06588 0.171 0.0
C28 C 0.62985 0.09609 0.03744 0.0
O29 O 0.61468 0.11287 0.05369 0.0
O30 O 0.71646 0.02637 0.1283 0.0
H31 H 0.58781 0.07932 0.12243 0.0
H32 H 0.73105 0.93469 0.08741 0.0
H33 H 0.53701 0.10312 0.14634 0.0
Zn34 Zn 0.47342 0.66511 0.08266 0.0
C35 C 0.53579 0.59436 0.11822 0.0
N36 N 0.53914 0.57117 0.10165 0.0
C37 C 0.51486 0.58783 0.08808 0.0
N38 N 0.4972 0.62052 0.09616 0.0
N39 N 0.50882 0.62383 0.11537 0.0
C40 C 0.54301 0.72766 0.14759 0.0
O41 O 0.566 0.70401 0.15809 0.0
O42 O 0.45863 0.64443 0.05554 0.0
Zn43 Zn 0.48181 0.66089 0.13574 0.0
N44 N 0.51307 0.70623 0.0817 0.0
C45 C 0.57104 0.73674 0.09505 0.0
C46 C 0.54392 0.70585 0.09495 0.0
C47 C 0.5089 0.73599 0.06819 0.0
N48 N 0.56659 0.76681 0.08169 0.0
C49 C 0.53637 0.76691 0.06812 0.0
O50 O 0.42426 0.68182 0.12799 0.0
C51 C 0.40552 0.69188 0.11184 0.0
O52 O 0.42169 0.68714 0.09451 0.0
H53 H 0.54729 0.68226 0.10559 0.0
H54 H 0.48408 0.73577 0.05781 0.0
C55 C 0.46671 0.64089 0.1804 0.0
C56 C 0.45359 0.61304 0.19506 0.0
C57 C 0.45351 0.56343 0.16966 0.0
C58 C 0.46514 0.59086 0.15522 0.0
N59 N 0.47205 0.62898 0.16062 0.0
N60 N 0.44766 0.57517 0.18907 0.0
H61 H 0.47069 0.67154 0.18445 0.0
C62 C 0.43368 0.61729 0.05897 0.0
O63 O 0.42101 0.61184 0.07766 0.0
O64 O 0.51191 0.71389 0.13923 0.0
H65 H 0.46712 0.58186 0.13953 0.0
H66 H 0.59535 0.73687 0.10573 0.0
H67 H 0.44802 0.53315 0.16537 0.0
Zn68 Zn 0.87875 0.47233 0.12215 0.0
C69 C 0.95384 0.50518 0.07551 0.0
N70 N 0.96884 0.53015 0.0893 0.0
C71 C 0.94486 0.52593 0.10555 0.0
N72 N 0.9162 0.49868 0.10214 0.0
N73 N 0.92121 0.48662 0.08309 0.0
C74 C 0.91659 0.43587 0.03752 0.0
O75 O 0.92985 0.41672 0.05351 0.0
O76 O 0.82719 0.50322 0.12785 0.0
Zn77 Zn 0.87575 0.465 0.06954 0.0
N78 N 0.91049 0.46034 0.14673 0.0
C79 C 0.97355 0.43394 0.15546 0.0
C80 C 0.94692 0.44752 0.14101 0.0
C81 C 0.89959 0.46004 0.16686 0.0
N82 N 0.96267 0.43289 0.17526 0.0
C83 C 0.92654 0.44543 0.18161 0.0
O84 O 0.85718 0.41079 0.07955 0.0
C85 C 0.84937 0.39644 0.09703 0.0
O86 O 0.85644 0.41663 0.11312 0.0
H87 H 0.95497 0.44689 0.12511 0.0
H88 H 0.87023 0.46946 0.17122 0.0
C89 C 0.79613 0.48904 0.07569 0.0
C90 C 0.76539 0.51529 0.08077 0.0
C91 C 0.81242 0.56691 0.08343 0.0
C92 C 0.8425 0.54084 0.07801 0.0
N93 N 0.83376 0.5024 0.07441 0.0
N94 N 0.77464 0.55369 0.08448 0.0
H95 H 0.79058 0.45848 0.0721 0.0
C96 C 0.81726 0.5352 0.13671 0.0
O97 O 0.84474 0.55778 0.14461 0.0
O98 O 0.88882 0.46056 0.03994 0.0
H99 H 0.87262 0.55107 0.07682 0.0
H100 H 1.00248 0.42357 0.15094 0.0
H101 H 0.81894 0.59753 0.08652 0.0
Zn102 Zn 0.05852 0.869 0.13317 0.0
C103 C 0.02922 0.9447 0.0867 0.0
N104 N 1.00627 0.96218 0.10063 0.0
C105 C 1.00856 0.9381 0.11689 0.0
N106 N 0.03356 0.90728 0.11341 0.0
N107 N 0.04518 0.91069 0.09422 0.0
C108 C 0.1077 0.91154 0.05642 0.0
O109 O 0.12116 0.91584 0.07503 0.0
O110 O 0.02242 0.82074 0.13888 0.0
Zn111 Zn 0.06703 0.8652 0.08033 0.0
N112 N 0.0723 0.90153 0.15672 0.0
C113 C 0.10336 0.96292 0.164 0.0
C114 C 0.0876 0.93637 0.15018 0.0
C115 C 0.07252 0.89196 0.17694 0.0
N116 N 0.10422 0.95335 0.18396 0.0
C117 C 0.08944 0.91867 0.19099 0.0
O118 O 0.11877 0.84127 0.0916 0.0
C119 C 0.13367 0.83496 0.10909 0.0
O120 O 0.11425 0.84472 0.12504 0.0
H121 H 0.08869 0.94306 0.13413 0.0
H122 H 0.06143 0.86363 0.18187 0.0
C123 C 0.03089 0.79268 0.06833 0.0
C124 C 1.00284 0.76235 0.06922 0.0
C125 C 0.96638 0.79819 0.09357 0.0
C126 C 0.99389 0.82867 0.09237 0.0
N127 N 0.02605 0.82513 0.08005 0.0
N128 N 0.97142 0.76557 0.08195 0.0
H129 H 0.05649 0.79045 0.0585 0.0
C130 C 0.03935 0.78891 0.14456 0.0
O131 O 0.07713 0.7902 0.14904 0.0
O132 O 0.08146 0.88561 0.05301 0.0
H133 H 0.98951 0.85463 0.10135 0.0
H134 H 0.11566 0.9906 0.15888 0.0
H135 H 0.94109 0.80059 0.10356 0.0
Zn136 Zn 0.15625 0.97924 0.39634 0.0
C137 C 0.09209 0.02092 0.4455 0.0
N138 N 0.07925 0.0481 0.4323 0.0
C139 C 0.10131 0.04162 0.41559 0.0
N140 N 0.12664 1.01066 0.41801 0.0
N141 N 0.1213 0.99847 0.43703 0.0
C142 C 0.10303 0.92969 0.47301 0.0
O143 O 0.08861 0.92955 0.45446 0.0
O144 O 0.20496 1.00883 0.38477 0.0
Zn145 Zn 0.1585 0.96357 0.44979 0.0
N146 N 0.11657 0.9682 0.37541 0.0
C147 C 0.04868 0.95244 0.37051 0.0
C148 C 0.07948 0.96405 0.38309 0.0
C149 C 0.12418 0.96039 0.35539 0.0
N150 N 0.0562 0.94426 0.35074 0.0
C151 C 0.09304 0.94764 0.34264 0.0
O152 O 0.17166 0.91122 0.43634 0.0
C153 C 0.18124 0.89879 0.41878 0.0
O154 O 0.17802 0.9217 0.40337 0.0
H155 H 0.07389 0.96868 0.39908 0.0
H156 H 0.15414 0.96243 0.34974 0.0
C157 C 0.21751 1.01627 0.46678 0.0
C158 C 0.2541 0.03607 0.4663 0.0
C159 C 0.26779 1.00697 0.4342 0.0
C160 C 0.23223 0.98677 0.43505 0.0
N161 N 0.20778 0.99175 0.45125 0.0
N162 N 0.27792 0.0308 0.44982 0.0
H163 H 0.1972 1.01956 0.47933 0.0
C164 C 0.22016 0.03951 0.39276 0.0
O165 O 0.20231 0.05568 0.40839 0.0
O166 O 0.1361 0.94637 0.47616 0.0
H167 H 0.22388 0.96785 0.42265 0.0
H168 H 1.01911 0.94911 0.37651 0.0
H169 H 0.28752 1.00333 0.42139 0.0
Zn170 Zn 0.55096 0.16198 0.38807 0.0
C171 C 0.52068 0.09521 0.43855 0.0
N172 N 0.49316 0.07972 0.42639 0.0
C173 C 0.49597 0.10116 0.40919 0.0
N174 N 0.5252 0.12891 0.4104 0.0
N175 N 0.54009 0.12524 0.42904 0.0
C176 C 0.61385 0.10619 0.46235 0.0
O177 O 0.61952 0.09658 0.4432 0.0
O178 O 0.51695 0.21075 0.38039 0.0
Zn179 Zn 0.57678 0.1622 0.44084 0.0
N180 N 0.56122 0.12522 0.36506 0.0
C181 C 0.57764 0.05801 0.35842 0.0
C182 C 0.56621 0.08759 0.37178 0.0
C183 C 0.56821 0.13444 0.34504 0.0
N184 N 0.58509 0.06713 0.33878 0.0
C185 C 0.58106 0.10441 0.33147 0.0
O186 O 0.62702 0.17633 0.42555 0.0
C187 C 0.63408 0.18892 0.40771 0.0
O188 O 0.6076 0.18658 0.39383 0.0
H189 H 0.56274 0.08055 0.38766 0.0
H190 H 0.56566 0.16468 0.33998 0.0
C191 C 0.52773 0.21604 0.46286 0.0
C192 C 0.50847 0.25225 0.46617 0.0
C193 C 0.53104 0.27452 0.43393 0.0
C194 C 0.55131 0.23928 0.43117 0.0
N195 N 0.54895 0.21067 0.44556 0.0
N196 N 0.51053 0.28028 0.45137 0.0
H197 H 0.52695 0.19262 0.47397 0.0
C198 C 0.49066 0.22555 0.39207 0.0
O199 O 0.48219 0.20771 0.40924 0.0
O200 O 0.59513 0.13766 0.46645 0.0
H201 H 0.5681 0.23453 0.41745 0.0
H202 H 0.58162 0.02811 0.36375 0.0
H203 H 0.53231 0.29751 0.42257 0.0
Zn204 Zn 0.38505 0.58791 0.4555 0.0
C205 C 0.42137 0.49618 0.42192 0.0
N206 N 0.44631 0.49108 0.4377 0.0
C207 C 0.4392 0.52243 0.44952 0.0
N208 N 0.41046 0.54564 0.4413 0.0
N209 N 0.39937 0.52969 0.42373 0.0
C210 C 0.30475 0.49559 0.40516 0.0
O211 O 0.32098 0.49194 0.42317 0.0
O212 O 0.42906 0.61639 0.46869 0.0
Zn213 Zn 0.36636 0.55617 0.40175 0.0
N214 N 0.34837 0.56196 0.47316 0.0
C215 C 0.29167 0.52085 0.47202 0.0
C216 C 0.3177 0.54656 0.46253 0.0
C217 C 0.35339 0.55411 0.49329 0.0
N218 N 0.29707 0.51208 0.49191 0.0
C219 C 0.32712 0.52801 0.50293 0.0
O220 O 0.33914 0.61112 0.40835 0.0
C221 C 0.33671 0.63629 0.42284 0.0
O222 O 0.35349 0.62935 0.4398 0.0
H223 H 0.31439 0.55342 0.44657 0.0
H224 H 0.37815 0.56673 0.5014 0.0
C225 C 0.39604 0.57614 0.35944 0.0
C226 C 0.42665 0.58993 0.34647 0.0
C227 C 0.47147 0.58687 0.37418 0.0
C228 C 0.44135 0.57421 0.38692 0.0
N229 N 0.40418 0.56883 0.37955 0.0
N230 N 0.4634 0.59466 0.35445 0.0
H231 H 0.36618 0.57287 0.35384 0.0
C232 C 0.45205 0.63033 0.45516 0.0
O233 O 0.44323 0.62549 0.43586 0.0
O234 O 0.32021 0.51973 0.39256 0.0
H235 H 0.44762 0.56977 0.40282 0.0
H236 H 0.26752 0.50777 0.46364 0.0
H237 H 0.50099 0.59126 0.38002 0.0
Zn238 Zn 0.91966 0.42851 0.43345 0.0
C239 C 0.03456 0.41155 0.41865 0.0
N240 N 0.04093 0.42981 0.43651 0.0
C241 C 1.00451 0.43691 0.44357 0.0
N242 N 0.97653 0.42364 0.43031 0.0
N243 N 0.99537 0.4067 0.41478 0.0
C244 C 0.99752 0.29971 0.3925 0.0
O245 O 0.97028 0.30092 0.40671 0.0
O246 O 0.89929 0.48248 0.42661 0.0
Zn247 Zn 0.97038 0.37942 0.39078 0.0
N248 N 0.91056 0.4222 0.46178 0.0
C249 C 0.89539 0.44315 0.49534 0.0
C250 C 0.90041 0.45171 0.47474 0.0
C251 C 0.91552 0.38478 0.46832 0.0
N252 N 0.90011 0.40542 0.50193 0.0
C253 C 0.90967 0.37577 0.48883 0.0
O254 O 0.9145 0.35407 0.39574 0.0
C255 C 0.88426 0.35918 0.40711 0.0
O256 O 0.88423 0.386 0.42067 0.0
H257 H 0.89675 0.48149 0.46918 0.0
H258 H 0.92456 0.36256 0.45747 0.0
C259 C 0.95602 0.40979 0.34847 0.0
C260 C 0.9476 0.44103 0.33476 0.0
C261 C 0.9569 0.48683 0.36167 0.0
C262 C 0.96464 0.45615 0.3751 0.0
N263 N 0.96404 0.41819 0.36847 0.0
N264 N 0.94836 0.47859 0.34201 0.0
H265 H 0.95478 0.37942 0.3435 0.0
C266 C 0.86727 0.48615 0.41669 0.0
O267 O 0.8563 0.45717 0.40472 0.0
O268 O 1.00546 0.33143 0.38284 0.0
H269 H 0.97024 0.46266 0.39091 0.0
H270 H 0.88773 0.46622 0.506 0.0
H271 H 0.9571 0.51706 0.3669 0.0
Zn272 Zn 0.37215 0.97246 0.9416 0.0
C273 C 0.44376 0.03468 0.90628 0.0
N274 N 0.46721 0.0371 0.92279 0.0
C275 C 0.45029 1.01273 0.93621 0.0
N276 N 0.41716 0.99596 0.92819 0.0
N277 N 0.41379 1.00832 0.90914 0.0
C278 C 0.31193 0.04339 0.87591 0.0
O279 O 0.33623 0.06746 0.86654 0.0
O280 O 0.39238 0.95739 0.96885 0.0
Zn281 Zn 0.37755 0.98124 0.88876 0.0
N282 N 0.33091 1.01225 0.94235 0.0
C283 C 0.30003 0.06967 0.92855 0.0
C284 C 0.33106 0.0426 0.92882 0.0
C285 C 0.30112 1.00847 0.95592 0.0
N286 N 0.26991 0.06556 0.94196 0.0
C287 C 0.26996 0.03581 0.95577 0.0
O288 O 0.35542 0.9241 0.89631 0.0
C289 C 0.34498 0.90518 0.91233 0.0
O290 O 0.34978 0.92091 0.92975 0.0
H291 H 0.35452 0.04559 0.91805 0.0
H292 H 0.30142 0.98397 0.96647 0.0
C293 C 0.4067 0.97373 0.8448 0.0
C294 C 0.43822 0.96349 0.83157 0.0
C295 C 0.47775 0.94682 0.86009 0.0
C296 C 0.44685 0.95649 0.87301 0.0
N297 N 0.41224 0.97057 0.86538 0.0
N298 N 0.47277 0.95067 0.8398 0.0
H299 H 0.37882 0.98431 0.83888 0.0
C300 C 0.41913 0.93189 0.96548 0.0
O301 O 0.42485 0.91957 0.94675 0.0
O302 O 0.32534 1.01185 0.88394 0.0
H303 H 0.45045 0.95265 0.88921 0.0
H304 H 0.29978 0.0936 0.91768 0.0
H305 H 0.50548 0.93609 0.86611 0.0
Zn306 Zn 0.56721 0.3791 0.89991 0.0
C307 C 0.53074 0.44979 0.94813 0.0
N308 N 0.50553 0.46485 0.93445 0.0
C309 C 0.51047 0.44181 0.91794 0.0
N310 N 0.53876 0.41383 0.92093 0.0
N311 N 0.55049 0.41815 0.94011 0.0
C312 C 0.60462 0.41371 0.98481 0.0
O313 O 0.62138 0.42919 0.96864 0.0
O314 O 0.53761 0.32685 0.89355 0.0
Zn315 Zn 0.57445 0.37298 0.95295 0.0
N316 N 0.57857 0.41371 0.87585 0.0
C317 C 0.59423 0.48101 0.86931 0.0
C318 C 0.58416 0.45112 0.88268 0.0
C319 C 0.58446 0.40483 0.85561 0.0
N320 N 0.60003 0.47241 0.84948 0.0
C321 C 0.59611 0.43533 0.84186 0.0
O322 O 0.62854 0.35609 0.94222 0.0
C323 C 0.64346 0.34953 0.92475 0.0
O324 O 0.62352 0.35719 0.90863 0.0
H325 H 0.5817 0.45782 0.89866 0.0
H326 H 0.58149 0.37468 0.8505 0.0
C327 C 0.55248 0.29283 0.94737 0.0
C328 C 0.52716 0.26143 0.94228 0.0
C329 C 0.47429 0.30707 0.93891 0.0
C330 C 0.49945 0.33782 0.94428 0.0
N331 N 0.53808 0.33009 0.94827 0.0
N332 N 0.48856 0.26969 0.93823 0.0
H333 H 0.58315 0.28811 0.95119 0.0
C334 C 0.50412 0.31662 0.88639 0.0
O335 O 0.47886 0.34396 0.8808 0.0
O336 O 0.58131 0.3848 0.98249 0.0
H337 H 0.48834 0.36765 0.94508 0.0
H338 H 0.59828 0.51084 0.87473 0.0
H339 H 0.44354 0.31278 0.93553 0.0
Zn340 Zn 0.17279 0.56718 0.94231 0.0
C341 C 0.10148 0.50541 0.90655 0.0
N342 N 0.07821 0.50142 0.92302 0.0
C343 C 0.09478 0.52491 0.93697 0.0
N344 N 0.12756 0.54309 0.92911 0.0
N345 N 0.13084 0.53218 0.90976 0.0
C346 C 0.24918 0.54128 0.8781 0.0
O347 O 0.24836 0.57944 0.87481 0.0
O348 O 0.15392 0.58152 0.96991 0.0
Zn349 Zn 0.16746 0.55886 0.8892 0.0
N350 N 0.21418 0.52735 0.94241 0.0
C351 C 0.24461 0.47065 0.92754 0.0
C352 C 0.21415 0.4983 0.92813 0.0
C353 C 0.24331 0.52915 0.95645 0.0
N354 N 0.27406 0.47279 0.94141 0.0
C355 C 0.2739 0.50114 0.95598 0.0
O356 O 0.19058 0.61528 0.89712 0.0
C357 C 0.20022 0.63457 0.91312 0.0
O358 O 0.19452 0.61925 0.93058 0.0
H359 H 0.19108 0.49653 0.9171 0.0
H360 H 0.24291 0.55253 0.96766 0.0
C361 C 0.14417 0.57498 0.84544 0.0
C362 C 0.11529 0.58759 0.83115 0.0
C363 C 0.0675 0.58926 0.85765 0.0
C364 C 0.09601 0.57817 0.87163 0.0
N365 N 0.13361 0.57044 0.86545 0.0
N366 N 0.0778 0.59383 0.83794 0.0
H367 H 0.17457 0.57037 0.84095 0.0
C368 C 0.12504 0.60498 0.96749 0.0
O369 O 0.11671 0.61764 0.9491 0.0
O370 O 0.2169 0.52407 0.88285 0.0
H371 H 0.08822 0.57682 0.88752 0.0
H372 H 0.24481 0.44766 0.91615 0.0
H373 H 0.03751 0.59513 0.86248 0.0
Zn374 Zn 0.98326 0.16399 0.9024 0.0
C375 C 1.01579 0.09015 0.94934 0.0
N376 N 0.03978 0.07419 0.93532 0.0
C377 C 0.03652 0.09865 0.91926 0.0
N378 N 1.01037 0.12829 0.9229 0.0
N379 N 0.99817 0.12353 0.94196 0.0
C380 C 0.94359 0.12899 0.9864 0.0
O381 O 0.92651 0.11476 0.97002 0.0
O382 O 1.01421 0.21489 0.89547 0.0
Zn383 Zn 0.97494 0.16911 0.95491 0.0
N384 N 0.97016 0.12881 0.87947 0.0
C385 C 0.94306 0.0646 0.87512 0.0
C386 C 0.95475 0.09534 0.88761 0.0
C387 C 0.97302 0.13328 0.85878 0.0
N388 N 0.94651 0.06851 0.85475 0.0
C389 C 0.96086 0.10185 0.84595 0.0
O390 O 0.92086 0.18704 0.94437 0.0
C391 C 0.90699 0.19468 0.92679 0.0
O392 O 0.92765 0.18731 0.9109 0.0
H393 H 0.95148 0.09257 0.9039 0.0
H394 H 0.98488 0.16023 0.85246 0.0
C395 C 0.99809 0.24868 0.94834 0.0
C396 C 0.02381 0.27937 0.94264 0.0
C397 C 0.07609 0.23291 0.94006 0.0
C398 C 0.05056 0.20284 0.946 0.0
N399 N 1.01202 0.21132 0.94992 0.0
N400 N 0.0623 0.27041 0.93873 0.0
H401 H 0.96746 0.25411 0.95203 0.0
C402 C 0.04345 0.22566 0.88455 0.0
O403 O 0.06309 0.19922 0.87401 0.0
O404 O 0.96793 0.15716 0.98445 0.0
H405 H 0.06127 0.17291 0.94719 0.0
H406 H 0.93117 0.03777 0.88155 0.0
H407 H 0.10675 0.22658 0.93673 0.0
Zn408 Zn 0.88908 0.06045 0.63512 0.0
C409 C 0.95934 0.03301 0.58556 0.0
N410 N 0.97839 1.00942 0.59863 0.0
C411 C 0.95627 1.01124 0.61567 0.0
N412 N 0.92514 0.03644 0.6135 0.0
N413 N 0.92643 0.04868 0.59433 0.0
C414 C 0.92161 0.11578 0.55556 0.0
O415 O 0.93881 0.12122 0.57325 0.0
O416 O 0.84068 0.02396 0.64125 0.0
Zn417 Zn 0.88008 0.07047 0.58181 0.0
N418 N 0.92458 0.07145 0.65833 0.0
C419 C 0.99021 0.09443 0.66387 0.0
C420 C 0.95965 0.08455 0.65082 0.0
C421 C 0.91827 0.06975 0.67894 0.0
N422 N 0.98446 0.09194 0.68417 0.0
C423 C 0.94944 0.08028 0.69234 0.0
O424 O 0.85721 0.11984 0.59506 0.0
C425 C 0.85282 0.13537 0.61253 0.0
O426 O 0.86455 0.11682 0.6284 0.0
H427 H 0.96386 0.08768 0.63462 0.0
H428 H 0.88997 0.06019 0.68477 0.0
C429 C 0.81156 0.03066 0.56702 0.0
C430 C 0.78221 1.00149 0.56691 0.0
C431 C 0.81266 0.97036 0.59492 0.0
C432 C 0.84184 0.9993 0.59496 0.0
N433 N 0.84059 0.02915 0.58115 0.0
N434 N 0.78324 0.9722 0.58098 0.0
H435 H 0.81108 0.05469 0.55619 0.0
C436 C 0.80778 0.03985 0.64626 0.0
O437 O 0.80723 0.07788 0.64996 0.0
O438 O 0.89418 0.09038 0.55424 0.0
H439 H 0.86498 0.99791 0.60605 0.0
H440 H 1.01829 0.10436 0.65793 0.0
H441 H 0.81343 0.94656 0.60584 0.0
Zn442 Zn 0.49019 0.88015 0.62401 0.0
C443 C 0.52218 0.95657 0.57767 0.0
N444 N 0.55197 0.9659 0.59018 0.0
C445 C 0.54782 0.9405 0.60579 0.0
N446 N 0.51615 0.9162 0.6033 0.0
N447 N 0.50038 0.92632 0.58554 0.0
C448 C 0.42251 0.95821 0.56041 0.0
O449 O 0.42184 0.95747 0.58039 0.0
O450 O 0.52867 0.83509 0.63247 0.0
Zn451 Zn 0.46278 0.89405 0.57142 0.0
N452 N 0.47441 0.91675 0.64575 0.0
C453 C 0.44542 0.98053 0.64871 0.0
C454 C 0.4589 0.94951 0.63687 0.0
C455 C 0.47554 0.91321 0.66651 0.0
N456 N 0.44714 0.97752 0.66918 0.0
C457 C 0.46149 0.94485 0.67866 0.0
O458 O 0.41521 0.86948 0.586 0.0
C459 C 0.40942 0.85132 0.60266 0.0
O460 O 0.43591 0.85182 0.61657 0.0
H461 H 0.45677 0.95149 0.62052 0.0
H462 H 0.48739 0.88674 0.67337 0.0
C463 C 0.50719 0.84376 0.54313 0.0
C464 C 0.53565 0.81411 0.53958 0.0
C465 C 0.53854 0.80161 0.57513 0.0
C466 C 0.51009 0.83034 0.57844 0.0
N467 N 0.49528 0.85106 0.56249 0.0
N468 N 0.55044 0.79411 0.55587 0.0
H469 H 0.49492 0.86123 0.53096 0.0
C470 C 0.51404 0.80303 0.63932 0.0
O471 O 0.47596 0.80191 0.64312 0.0
O472 O 0.43892 0.92987 0.55087 0.0
H473 H 0.50052 0.83696 0.5937 0.0
H474 H 0.43342 1.00679 0.64171 0.0
H475 H 0.55095 0.78524 0.58773 0.0
Zn476 Zn 0.67359 0.48268 0.63055 0.0
C477 C 0.60312 0.51592 0.58109 0.0
N478 N 0.59664 0.54842 0.5921 0.0
C479 C 0.61952 0.54329 0.60865 0.0
N480 N 0.63997 0.50851 0.60811 0.0
N481 N 0.62977 0.49188 0.59051 0.0
C482 C 0.59529 0.4041 0.5686 0.0
O483 O 0.59775 0.40214 0.58852 0.0
O484 O 0.72242 0.51825 0.63737 0.0
Zn485 Zn 0.65888 0.45145 0.57671 0.0
N486 N 0.63692 0.47385 0.65419 0.0
C487 C 0.56832 0.46466 0.66091 0.0
C488 C 0.59892 0.47241 0.64751 0.0
C489 C 0.64545 0.46606 0.67429 0.0
N490 N 0.57661 0.45707 0.68061 0.0
C491 C 0.61409 0.45692 0.68808 0.0
O492 O 0.68576 0.4082 0.59304 0.0
C493 C 0.70065 0.40039 0.61033 0.0
O494 O 0.69847 0.42576 0.62478 0.0
H495 H 0.59209 0.47659 0.63166 0.0
H496 H 0.67589 0.46572 0.67925 0.0
C497 C 0.69714 0.49055 0.54256 0.0
C498 C 0.72704 0.51458 0.53438 0.0
C499 C 0.75984 0.51419 0.56629 0.0
C500 C 0.73061 0.48987 0.5742 0.0
N501 N 0.69971 0.47898 0.56232 0.0
N502 N 0.75742 0.52588 0.54663 0.0
H503 H 0.67196 0.48168 0.53353 0.0
C504 C 0.73511 0.54389 0.6247 0.0
O505 O 0.71453 0.55021 0.60812 0.0
O506 O 0.62053 0.42435 0.55881 0.0
H507 H 0.73183 0.48049 0.58991 0.0
H508 H 0.53808 0.4639 0.65562 0.0
H509 H 0.7843 0.52366 0.57567 0.0
Zn510 Zn 0.07195 0.66161 0.62383 0.0
C511 C 0.02936 0.60308 0.57299 0.0
N512 N 0.9943 0.60995 0.58176 0.0
C513 C 1.00346 0.62854 0.59915 0.0
N514 N 0.04311 0.6342 0.60105 0.0
N515 N 0.05946 0.61687 0.58488 0.0
C516 C 0.16255 0.55798 0.60133 0.0
O517 O 0.16281 0.58637 0.61492 0.0
O518 O 0.03911 0.71034 0.63326 0.0
Zn519 Zn 0.11605 0.61348 0.57924 0.0
N520 N 0.07992 0.62215 0.64549 0.0
C521 C 0.08166 0.55321 0.65215 0.0
C522 C 0.07541 0.58442 0.63892 0.0
C523 C 0.09115 0.62982 0.66511 0.0
N524 N 0.09262 0.56069 0.67154 0.0
C525 C 0.09783 0.59797 0.67873 0.0
O526 O 0.15355 0.65613 0.59068 0.0
C527 C 0.15594 0.68225 0.60456 0.0
O528 O 0.12755 0.68678 0.6172 0.0
H529 H 0.06753 0.57833 0.62335 0.0
H530 H 0.09551 0.66005 0.66976 0.0
C531 C 0.10205 0.65674 0.54666 0.0
C532 C 0.10297 0.67177 0.52698 0.0
C533 C 0.13607 0.61361 0.51609 0.0
C534 C 0.13663 0.59975 0.53612 0.0
N535 N 0.11944 0.62195 0.55084 0.0
N536 N 0.1197 0.64947 0.51201 0.0
H537 H 0.08802 0.67245 0.559 0.0
C538 C 0.04441 0.74099 0.62228 0.0
O539 O 0.06675 0.73766 0.60602 0.0
O540 O 0.1397 0.56106 0.58606 0.0
H541 H 0.15033 0.57185 0.53986 0.0
H542 H 0.07812 0.52312 0.64702 0.0
H543 H 0.14923 0.59646 0.50398 0.0
H544 H 0.51522 0.97217 0.94849 0.0
H545 H 0.42551 0.05041 0.97106 0.0
H546 H 0.54937 0.97483 0.98092 0.0
H547 H 0.46083 0.05643 1.00312 0.0
H548 H 0.51785 0.04732 0.0653 0.0
H549 H 0.48217 0.04155 0.03358 0.0
H550 H 0.5886 0.9987 1.00442 0.0
H551 H 0.62266 1.00124 0.03707 0.0
C552 C 0.50244 0.9896 0.96064 0.0
C553 C 0.4665 1.00947 0.95741 0.0
C554 C 0.52267 0.99202 0.97935 0.0
C555 C 0.50881 1.01603 0.99547 0.0
C556 C 0.4728 0.03648 0.9919 0.0
C557 C 0.45205 0.03309 0.97331 0.0
C558 C 0.53381 0.03734 0.05197 0.0
C559 C 0.57384 0.02665 0.05368 0.0
C560 C 0.51317 0.03401 0.03344 0.0
C561 C 0.53166 1.01994 0.01555 0.0
C562 C 0.57212 1.00921 0.0174 0.0
C563 C 0.59245 1.01164 0.03619 0.0
H564 H 0.54913 0.6158 0.05273 0.0
H565 H 0.47948 0.52006 0.07579 0.0
H566 H 0.55621 0.58181 0.02036 0.0
H567 H 0.48326 0.48685 0.04322 0.0
H568 H 0.50847 0.41776 0.98543 0.0
H569 H 0.50461 0.45071 0.01827 0.0
H570 H 0.54592 0.55846 0.99014 0.0
H571 H 0.5527 0.52391 0.95818 0.0
C572 C 0.53394 0.58804 0.05057 0.0
C573 C 0.51238 0.5716 0.06675 0.0
C574 C 0.53797 0.56797 0.03177 0.0
C575 C 0.5203 0.53056 0.02819 0.0
C576 C 0.49836 0.5147 0.04462 0.0
C577 C 0.4953 0.53434 0.06351 0.0
C578 C 0.51818 0.44808 0.98656 0.0
C579 C 0.53305 0.46733 0.96923 0.0
C580 C 0.51503 0.46782 1.00553 0.0
C581 C 0.52491 0.50835 1.00782 0.0
C582 C 0.53887 0.52746 0.99006 0.0
C583 C 0.54285 0.50743 0.97135 0.0
H584 H 1.01895 0.54115 0.94631 0.0
H585 H 0.12814 0.50789 0.97497 0.0
H586 H 0.98414 0.53391 0.97834 0.0
H587 H 0.09403 0.50337 1.00783 0.0
H588 H 1.01829 0.4644 0.06208 0.0
H589 H 0.05329 0.4706 0.02975 0.0
H590 H 0.96603 0.55509 1.00961 0.0
H591 H 0.93055 0.54707 0.04172 0.0
C592 C 0.03593 0.5336 0.95972 0.0
C593 C 0.07694 0.52705 0.95802 0.0
C594 C 1.01578 0.52948 0.97836 0.0
C595 C 0.03564 0.51846 0.99636 0.0
C596 C 0.07693 0.51167 0.99463 0.0
C597 C 0.09704 0.51522 0.97575 0.0
C598 C 1.00601 0.48342 0.05046 0.0
C599 C 0.97049 0.50381 0.05427 0.0
C600 C 0.02667 0.48776 0.0319 0.0
C601 C 1.01312 0.5134 0.01643 0.0
C602 C 0.97751 0.53409 0.02048 0.0
C603 C 0.95675 0.52946 0.03902 0.0
H604 H 0.06628 1.0119 0.07535 0.0
H605 H 0.99399 0.91919 0.0512 0.0
H606 H 0.06296 0.04696 0.04331 0.0
H607 H 0.98721 0.9552 0.01941 0.0
H608 H 0.99273 1.01597 0.95812 0.0
H609 H 0.99906 0.97948 0.98949 0.0
H610 H 0.04082 0.08523 0.01941 0.0
H611 H 0.0378 0.12005 0.98707 0.0
C612 C 0.04999 0.9987 0.06292 0.0
C613 C 0.03207 0.96171 0.06564 0.0
C614 C 0.04717 1.01943 0.04438 0.0
C615 C 0.02458 1.005 0.02788 0.0
C616 C 1.00602 0.96787 0.03092 0.0
C617 C 1.00987 0.94665 0.04936 0.0
C618 C 1.00258 0.03158 0.97156 0.0
C619 C 1.0128 0.07168 0.97013 0.0
C620 C 1.00627 1.01044 0.98992 0.0
C621 C 1.02022 0.02842 1.00795 0.0
C622 C 0.03043 0.06898 1.00637 0.0
C623 C 0.02768 0.08982 0.98774 0.0
H624 H 0.12681 0.02517 0.48386 0.0
H625 H 1.01436 1.01399 0.45408 0.0
H626 H 0.09342 0.0286 0.5169 0.0
H627 H 0.98055 1.01968 0.4866 0.0
H628 H 0.92816 1.00072 0.55056 0.0
H629 H 0.96063 0.99464 0.5174 0.0
H630 H 0.05708 0.06645 0.53918 0.0
H631 H 0.02515 0.07058 0.57238 0.0
C632 C 0.095 0.02262 0.48439 0.0
C633 C 0.07353 1.01781 0.46627 0.0
C634 C 0.07547 0.02546 0.50339 0.0
C635 C 0.03366 0.02464 0.5049 0.0
C636 C 1.0125 1.01973 0.48659 0.0
C637 C 0.03203 1.01653 0.46775 0.0
C638 C 0.95579 1.01601 0.54802 0.0
C639 C 0.97347 0.03702 0.56403 0.0
C640 C 0.97479 1.01241 0.52893 0.0
C641 C 1.01223 0.02968 0.52518 0.0
C642 C 0.02902 0.05176 0.54119 0.0
C643 C 1.01024 0.0549 0.56026 0.0
H644 H 0.55205 0.02428 0.44889 0.0
H645 H 0.49857 0.12701 0.47555 0.0
H646 H 0.55216 0.99152 0.48189 0.0
H647 H 0.49679 0.09403 0.50864 0.0
H648 H 0.52277 0.03538 0.57017 0.0
H649 H 0.52571 0.07004 0.53774 0.0
H650 H 0.51717 0.95861 0.50625 0.0
H651 H 0.51683 0.92445 0.53896 0.0
C652 C 0.54085 0.04019 0.46198 0.0
C653 C 0.5268 0.079 0.45961 0.0
C654 C 0.54016 0.02103 0.48101 0.0
C655 C 0.52413 0.03943 0.49846 0.0
C656 C 0.51018 0.07857 0.496 0.0
C657 C 0.5114 0.09791 0.47693 0.0
C658 C 0.52091 1.0183 0.55629 0.0
C659 C 0.51796 0.9769 0.55735 0.0
C660 C 0.5225 0.03833 0.53749 0.0
C661 C 0.52152 1.01778 0.51881 0.0
C662 C 0.51853 0.97615 0.51996 0.0
C663 C 0.51729 0.95619 0.53885 0.0
H664 H 0.61899 0.55717 0.5464 0.0
H665 H 0.54051 0.46906 0.57011 0.0
H666 H 0.57882 0.56259 0.51583 0.0
H667 H 0.50136 0.47184 0.53901 0.0
H668 H 0.41578 0.50223 0.48823 0.0
H669 H 0.45544 0.50034 0.51919 0.0
H670 H 0.55542 0.54483 0.4853 0.0
H671 H 0.51423 0.54942 0.45506 0.0
C672 C 0.59398 0.53758 0.54467 0.0
C673 C 0.58437 0.51122 0.56045 0.0
C674 C 0.57047 0.54071 0.52697 0.0
C675 C 0.53597 0.5177 0.52426 0.0
C676 C 0.52686 0.49084 0.5401 0.0
C677 C 0.55019 0.48819 0.55791 0.0
C678 C 0.44563 0.51352 0.48772 0.0
C679 C 0.46093 0.52806 0.4693 0.0
C680 C 0.4692 0.51127 0.50547 0.0
C681 C 0.50964 0.52214 0.50537 0.0
C682 C 0.52467 0.53678 0.48673 0.0
C683 C 0.50085 0.53957 0.46914 0.0
H684 H 0.07911 0.54258 0.55907 0.0
H685 H 0.98004 0.61439 0.54134 0.0
H686 H 0.07081 0.50291 0.5281 0.0
H687 H 0.97008 0.5742 0.51137 0.0
H688 H 0.97568 0.51206 0.44941 0.0
H689 H 0.98532 0.5538 0.4793 0.0
H690 H 0.03449 0.45448 0.51179 0.0
H691 H 0.02622 0.41379 0.48148 0.0
C692 C 0.05611 0.55049 0.54839 0.0
C693 C 0.03087 0.58242 0.55267 0.0
C694 C 0.05061 0.52713 0.5307 0.0
C695 C 1.01928 0.53452 0.51683 0.0
C696 C 0.9949 0.56721 0.52108 0.0
C697 C 1.00061 0.5905 0.53852 0.0
C698 C 0.98736 0.49892 0.46316 0.0
C699 C 0.99907 0.45915 0.46312 0.0
C700 C 0.99333 0.52301 0.48046 0.0
C701 C 1.01131 0.50823 0.4984 0.0
C702 C 0.02151 0.46785 0.49843 0.0
C703 C 1.01591 0.44402 0.48109 0.0
H704 H 0.53707 0.98181 0.12749 0.0
H705 H 0.65787 0.95023 0.11494 0.0
H706 H 0.52474 0.91588 0.14081 0.0
H707 H 0.64565 0.88374 0.12806 0.0
H708 H 0.60984 0.76707 0.16049 0.0
H709 H 0.62695 0.83655 0.15531 0.0
H710 H 0.51771 0.85395 0.12271 0.0
H711 H 0.50057 0.78511 0.12798 0.0
C712 C 0.56157 0.9613 0.12851 0.0
C713 C 0.59863 0.97162 0.1205 0.0
C714 C 0.55429 0.92311 0.13573 0.0
C715 C 0.58384 0.89388 0.13504 0.0
C716 C 0.62209 0.9053 0.12886 0.0
C717 C 0.62936 0.94373 0.12162 0.0
C718 C 0.58933 0.7858 0.15233 0.0
C719 C 0.55358 0.77026 0.14483 0.0
C720 C 0.59926 0.82569 0.14929 0.0
C721 C 0.57356 0.85132 0.13882 0.0
C722 C 0.53792 0.83561 0.13129 0.0
C723 C 0.52813 0.79584 0.13421 0.0
H724 H 0.75293 0.49169 0.12522 0.0
H725 H 0.78423 0.60334 0.15218 0.0
H726 H 0.68349 0.50928 0.12711 0.0
H727 H 0.71417 0.6206 0.15475 0.0
H728 H 0.58928 0.65246 0.12693 0.0
H729 H 0.65823 0.63904 0.13449 0.0
H730 H 0.6285 0.51859 0.14901 0.0
H731 H 0.55967 0.53205 0.14067 0.0
C732 C 0.74504 0.51995 0.13173 0.0
C733 C 0.7745 0.5461 0.13843 0.0
C734 C 0.70491 0.52992 0.13308 0.0
C735 C 0.69269 0.56629 0.14136 0.0
C736 C 0.72218 0.59241 0.1482 0.0
C737 C 0.76248 0.58243 0.14679 0.0
C738 C 0.5969 0.62373 0.13277 0.0
C739 C 0.56862 0.5934 0.13317 0.0
C740 C 0.63691 0.61575 0.13688 0.0
C741 C 0.64955 0.57725 0.14169 0.0
C742 C 0.62034 0.54829 0.14468 0.0
C743 C 0.58051 0.55626 0.14043 0.0
H744 H 0.07376 0.71658 0.14585 0.0
H745 H 0.95939 0.77206 0.14117 0.0
H746 H 0.04401 0.65268 0.14181 0.0
H747 H 0.92853 0.70708 0.1383 0.0
H748 H 0.89812 0.59028 0.10466 0.0
H749 H 0.9169 0.65459 0.1174 0.0
H750 H 1.00952 0.60021 0.15302 0.0
H751 H 0.99231 0.53629 0.1386 0.0
C752 C 0.04192 0.71512 0.14442 0.0
C753 C 1.01909 0.74978 0.14383 0.0
C754 C 0.02455 0.67797 0.1423 0.0
C755 C 0.9834 0.67375 0.1399 0.0
C756 C 0.9603 0.70856 0.13985 0.0
C757 C 0.97795 0.74605 0.14163 0.0
C758 C 0.92136 0.59188 0.11591 0.0
C759 C 0.94344 0.55805 0.12076 0.0
C760 C 0.93253 0.62913 0.12319 0.0
C761 C 0.96583 0.63355 0.13584 0.0
C762 C 0.9848 0.59877 0.14263 0.0
C763 C 0.97425 0.56167 0.13486 0.0
H764 H 0.76211 0.93155 0.15647 0.0
H765 H 0.79052 0.03864 0.12426 0.0
H766 H 0.83245 0.91454 0.15783 0.0
H767 H 0.86011 0.0213 0.12505 0.0
H768 H 0.98458 1.0024 0.13766 0.0
H769 H 0.91618 1.0158 0.14677 0.0
H770 H 0.88751 0.8934 0.13676 0.0
H771 H 0.95653 0.87991 0.12855 0.0
C772 C 0.78328 0.95149 0.14967 0.0
C773 C 0.77039 0.98646 0.14018 0.0
C774 C 0.82371 0.94164 0.15039 0.0
C775 C 0.85242 0.96664 0.14177 0.0
C776 C 0.83931 1.00161 0.13233 0.0
C777 C 0.7991 1.01139 0.13162 0.0
C778 C 0.96415 0.97789 0.1385 0.0
C779 C 0.97618 0.94016 0.13213 0.0
C780 C 0.92455 0.98576 0.14322 0.0
C781 C 0.89566 0.9561 0.14165 0.0
C782 C 0.90862 0.91723 0.1379 0.0
C783 C 0.94853 0.90932 0.13334 0.0
H784 H 0.96551 0.22736 0.3971 0.0
H785 H 0.07312 0.28449 0.37809 0.0
H786 H 0.99708 0.16345 0.39414 0.0
H787 H 0.10541 0.21956 0.37516 0.0
H788 H 0.14813 0.1055 0.41319 0.0
H789 H 0.12632 0.16902 0.4006 0.0
H790 H 0.02618 0.11326 0.37212 0.0
H791 H 0.0487 0.04928 0.38468 0.0
C792 C 0.99591 0.22621 0.39197 0.0
C793 C 1.01681 0.26115 0.38795 0.0
C794 C 1.01399 0.18934 0.39004 0.0
C795 C 0.05387 0.18601 0.38427 0.0
C796 C 0.07464 0.22094 0.37962 0.0
C797 C 0.05616 0.25814 0.38122 0.0
C798 C 0.12344 0.1061 0.40276 0.0
C799 C 0.10111 0.07176 0.39934 0.0
C800 C 0.11028 0.14299 0.39588 0.0
C801 C 0.07399 0.14661 0.38566 0.0
C802 C 0.05399 0.11173 0.38021 0.0
C803 C 0.06735 0.07479 0.38703 0.0
H804 H 0.25826 0.10585 0.40562 0.0
H805 H 0.27459 1.00345 0.36757 0.0
H806 H 0.32729 0.12314 0.40119 0.0
H807 H 0.34407 0.02118 0.3628 0.0
H808 H 0.47007 0.03226 0.39379 0.0
H809 H 0.4022 1.0197 0.38378 0.0
H810 H 0.3811 0.14499 0.38009 0.0
H811 H 0.44895 0.15704 0.39034 0.0
C812 C 0.27636 0.08744 0.39589 0.0
C813 C 0.26068 0.05309 0.38706 0.0
C814 C 0.31614 0.09757 0.3932 0.0
C815 C 0.34169 0.07364 0.38162 0.0
C816 C 0.32554 0.04021 0.37197 0.0
C817 C 0.28555 0.03015 0.3746 0.0
C818 C 0.45156 0.05719 0.38983 0.0
C819 C 0.46515 0.09585 0.39327 0.0
C820 C 0.41228 0.04996 0.38422 0.0
C821 C 0.38543 0.0813 0.38178 0.0
C822 C 0.40049 0.12 0.38246 0.0
C823 C 0.43993 0.12711 0.38804 0.0
H824 H 0.45838 0.48077 0.38577 0.0
H825 H 0.37447 0.43431 0.4286 0.0
H826 H 0.46893 0.41465 0.372 0.0
H827 H 0.38626 0.3686 0.41627 0.0
H828 H 0.41443 0.24839 0.3976 0.0
H829 H 0.38777 0.31494 0.39699 0.0
H830 H 0.50292 0.35927 0.37975 0.0
H831 H 0.52789 0.29203 0.37849 0.0
C832 C 0.44075 0.45663 0.39156 0.0
C833 C 0.41462 0.46298 0.40782 0.0
C834 C 0.44758 0.41831 0.3841 0.0
C835 C 0.42936 0.3852 0.39319 0.0
C836 C 0.40076 0.39249 0.40838 0.0
C837 C 0.39346 0.4307 0.41546 0.0
C838 C 0.4336 0.27242 0.39311 0.0
C839 C 0.47322 0.26501 0.38812 0.0
C840 C 0.41853 0.31093 0.39306 0.0
C841 C 0.44313 0.34357 0.38892 0.0
C842 C 0.48243 0.3356 0.38285 0.0
C843 C 0.49705 0.29681 0.38217 0.0
H844 H 0.0913 0.35505 0.41774 0.0
H845 H 0.05548 0.46393 0.38971 0.0
H846 H 0.15995 0.36876 0.40897 0.0
H847 H 0.12406 0.47903 0.38177 0.0
H848 H 0.25413 0.50357 0.37224 0.0
H849 H 0.18865 0.47384 0.36796 0.0
H850 H 0.20361 0.41192 0.42487 0.0
H851 H 0.26857 0.44037 0.4287 0.0
C852 C 0.09787 0.38092 0.40869 0.0
C853 C 0.06783 0.4081 0.40419 0.0
C854 C 0.13748 0.38946 0.40413 0.0
C855 C 0.14817 0.42586 0.39532 0.0
C856 C 0.11747 0.45076 0.38858 0.0
C857 C 0.07779 0.44184 0.39289 0.0
C858 C 0.24364 0.48301 0.38361 0.0
C859 C 0.26677 0.47462 0.40087 0.0
C860 C 0.20589 0.46607 0.38123 0.0
C861 C 0.19031 0.4402 0.39603 0.0
C862 C 0.21435 0.43088 0.41285 0.0
C863 C 0.25181 0.44768 0.41519 0.0
H864 H 0.43478 0.28333 0.87269 0.0
H865 H 0.54935 0.25232 0.89661 0.0
H866 H 0.41736 0.21354 0.87085 0.0
H867 H 0.53159 0.18297 0.89552 0.0
H868 H 0.50597 0.05848 0.8836 0.0
H869 H 0.51997 0.127 0.87515 0.0
H870 H 0.40027 0.15841 0.89115 0.0
H871 H 0.38635 0.08984 0.89883 0.0
C872 C 0.45634 0.26169 0.87754 0.0
C873 C 0.49355 0.27378 0.8848 0.0
C874 C 0.44624 0.22148 0.87658 0.0
C875 C 0.47301 0.19202 0.88286 0.0
C876 C 0.51033 0.20429 0.89 0.0
C877 C 0.52047 0.24438 0.89085 0.0
C878 C 0.48201 0.07966 0.88417 0.0
C879 C 0.44485 0.0682 0.89171 0.0
C880 C 0.49032 0.11934 0.87987 0.0
C881 C 0.46176 0.14897 0.88312 0.0
C882 C 0.42328 0.13684 0.88847 0.0
C883 C 0.41496 0.097 0.89263 0.0
H884 H 0.44563 0.39586 0.91763 0.0
H885 H 0.50174 0.49089 0.88543 0.0
H886 H 0.38173 0.41605 0.90446 0.0
H887 H 0.43835 0.50972 0.87076 0.0
H888 H 0.32198 0.57493 0.87871 0.0
H889 H 0.38566 0.54415 0.88276 0.0
H890 H 0.33036 0.42933 0.88237 0.0
H891 H 0.26555 0.46103 0.87921 0.0
C892 C 0.44463 0.41959 0.90663 0.0
C893 C 0.47896 0.44134 0.90234 0.0
C894 C 0.40765 0.43157 0.89915 0.0
C895 C 0.404 0.46552 0.88691 0.0
C896 C 0.43925 0.48438 0.88074 0.0
C897 C 0.47606 0.47291 0.88865 0.0
C898 C 0.32318 0.54304 0.87926 0.0
C899 C 0.28828 0.5206 0.87871 0.0
C900 C 0.3602 0.52512 0.8814 0.0
C901 C 0.36405 0.48383 0.88276 0.0
C902 C 0.32907 0.46116 0.88164 0.0
C903 C 0.29172 0.47931 0.87973 0.0
H904 H 1.00109 0.28895 0.89845 0.0
H905 H 0.11006 0.25964 0.86785 0.0
H906 H 1.01837 0.35838 0.89734 0.0
H907 H 0.12709 0.32976 0.86624 0.0
H908 H 0.16018 0.4532 0.89624 0.0
H909 H 0.14701 0.38456 0.8878 0.0
H910 H 0.02539 0.4141 0.87526 0.0
H911 H 0.03855 0.48242 0.88438 0.0
C912 C 0.02873 0.29729 0.89137 0.0
C913 C 0.05421 0.2684 0.88336 0.0
C914 C 0.03848 0.33739 0.89047 0.0
C915 C 0.07402 0.35015 0.88144 0.0
C916 C 0.09954 0.32126 0.87335 0.0
C917 C 0.08968 0.28096 0.87422 0.0
C918 C 0.13117 0.4456 0.89066 0.0
C919 C 0.10042 0.47355 0.89108 0.0
C920 C 0.12339 0.40584 0.88604 0.0
C921 C 0.0847 0.39322 0.88154 0.0
C922 C 0.05526 0.42228 0.87932 0.0
C923 C 0.06304 0.46182 0.88403 0.0
H924 H 0.27251 0.1107 0.86361 0.0
H925 H 0.25393 0.99957 0.89409 0.0
H926 H 0.2027 0.12744 0.86867 0.0
H927 H 0.1849 1.01638 0.89933 0.0
H928 H 0.05717 0.03663 0.89578 0.0
H929 H 0.12292 0.02473 0.88186 0.0
H930 H 0.15545 0.1447 0.89582 0.0
H931 H 0.08911 0.15652 0.9094 0.0
C932 C 0.25359 0.08969 0.87126 0.0
C933 C 0.26906 0.05357 0.87827 0.0
C934 C 0.21351 0.09941 0.87425 0.0
C935 C 0.18771 0.07314 0.88419 0.0
C936 C 0.20334 0.03706 0.89115 0.0
C937 C 0.24324 0.02746 0.88825 0.0
C938 C 0.07773 0.06103 0.89491 0.0
C939 C 0.06762 0.0977 0.90337 0.0
C940 C 0.11581 0.054 0.88733 0.0
C941 C 0.14512 0.08337 0.88819 0.0
C942 C 0.13384 0.12129 0.89486 0.0
C943 C 0.0955 0.12833 0.9024 0.0
H944 H 0.97888 0.76134 0.64577 0.0
H945 H 0.07481 0.8114 0.61115 0.0
H946 H 0.95325 0.82836 0.65236 0.0
H947 H 0.04995 0.8771 0.61778 0.0
H948 H 1.02052 0.9931 0.6381 0.0
H949 H 0.04064 0.92556 0.64544 0.0
H950 H 0.92323 0.88503 0.63113 0.0
H951 H 0.90305 0.95287 0.62422 0.0
C952 C 0.99474 0.78651 0.6398 0.0
C953 C 0.02887 0.78086 0.62786 0.0
C954 C 0.98003 0.82488 0.64352 0.0
C955 C 0.99976 0.85837 0.63584 0.0
C956 C 0.03429 0.85234 0.62434 0.0
C957 C 0.04839 0.81439 0.62033 0.0
C958 C 0.9983 0.97014 0.63778 0.0
C959 C 0.96015 0.97862 0.63058 0.0
C960 C 1.01005 0.93118 0.64157 0.0
C961 C 0.98394 0.89955 0.63822 0.0
C962 C 0.94424 0.90851 0.63378 0.0
C963 C 0.93245 0.9477 0.63005 0.0
H964 H 0.79425 0.95948 0.64189 0.0
H965 H 0.7336 0.07057 0.64888 0.0
H966 H 0.73046 0.92614 0.63798 0.0
H967 H 0.6708 0.03816 0.64447 0.0
H968 H 0.55669 0.98016 0.64153 0.0
H969 H 0.62054 0.99829 0.65604 0.0
H970 H 0.6784 0.91704 0.61503 0.0
H971 H 0.61434 0.8977 0.60162 0.0
C972 C 0.7674 0.9768 0.64266 0.0
C973 C 0.76939 1.01784 0.64558 0.0
C974 C 0.73065 0.9577 0.64037 0.0
C975 C 0.69478 0.97913 0.64093 0.0
C976 C 0.69713 1.02004 0.64439 0.0
C977 C 0.7336 0.03892 0.64676 0.0
C978 C 0.5829 0.96449 0.63656 0.0
C979 C 0.58029 0.93684 0.62075 0.0
C980 C 0.61984 0.97565 0.64445 0.0
C981 C 0.65535 0.96024 0.63633 0.0
C982 C 0.65223 0.92972 0.62187 0.0
C983 C 0.61522 0.91816 0.61427 0.0
H984 H 0.59442 0.79156 0.63351 0.0
H985 H 0.48696 0.72931 0.64795 0.0
H986 H 0.63042 0.72898 0.6331 0.0
H987 H 0.52173 0.6673 0.64644 0.0
H988 H 0.58234 0.55505 0.64513 0.0
H989 H 0.56369 0.61986 0.65795 0.0
H990 H 0.64092 0.67396 0.61366 0.0
H991 H 0.66103 0.60931 0.60209 0.0
C992 C 0.57849 0.76461 0.63672 0.0
C993 C 0.53767 0.76575 0.64072 0.0
C994 C 0.59909 0.72845 0.63634 0.0
C995 C 0.57937 0.69227 0.63967 0.0
C996 C 0.53871 0.69394 0.64424 0.0
C997 C 0.5184 0.72991 0.64489 0.0
C998 C 0.59733 0.5807 0.63915 0.0
C999 C 0.62402 0.57674 0.62294 0.0
C1000 C 0.58567 0.61825 0.64602 0.0
C1001 C 0.59949 0.65292 0.63643 0.0
C1002 C 0.62937 0.64862 0.62166 0.0
C1003 C 0.64149 0.61115 0.61512 0.0
H1004 H 0.76737 0.5997 0.59999 0.0
H1005 H 0.79254 0.53317 0.65439 0.0
H1006 H 0.833 0.62747 0.6007 0.0
H1007 H 0.85881 0.56227 0.65556 0.0
H1008 H 0.98759 0.57484 0.6283 0.0
H1009 H 0.9207 0.55872 0.63893 0.0
H1010 H 0.87966 0.66973 0.61463 0.0
H1011 H 0.94656 0.68452 0.60317 0.0
C1012 C 0.78668 0.59148 0.61241 0.0
C1013 C 0.77434 0.5639 0.62708 0.0
C1014 C 0.82461 0.60789 0.61295 0.0
C1015 C 0.85184 0.59761 0.62827 0.0
C1016 C 0.8391 0.57086 0.64339 0.0
C1017 C 0.80089 0.55427 0.64281 0.0
C1018 C 0.96472 0.59688 0.62635 0.0
C1019 C 0.97269 0.63126 0.61511 0.0
C1020 C 0.9259 0.58734 0.63219 0.0
C1021 C 0.89397 0.61217 0.62709 0.0
C1022 C 0.90297 0.64903 0.61825 0.0
C1023 C 0.9417 0.65822 0.61217 0.0
H1024 H 0.60265 0.2302 0.93854 0.0
H1025 H 0.4812 0.19655 0.94894 0.0
H1026 H 0.62472 0.17082 0.95536 0.0
H1027 H 0.50346 0.13537 0.9644 0.0
H1028 H 0.55579 0.12219 0.03036 0.0
H1029 H 0.52759 0.14257 0.99841 0.0
H1030 H 0.63307 0.10402 0.96694 0.0
H1031 H 0.6616 0.08348 0.99953 0.0
C1032 C 0.58055 0.20975 0.94399 0.0
C1033 C 0.54022 0.21978 0.94412 0.0
C1034 C 0.59328 0.17497 0.9532 0.0
C1035 C 0.56576 0.14945 0.96228 0.0
C1036 C 0.52537 0.15549 0.95837 0.0
C1037 C 0.51262 0.19064 0.94949 0.0
C1038 C 0.57284 0.11757 0.01661 0.0
C1039 C 0.61144 0.10273 0.01746 0.0
C1040 C 0.55631 0.1285 0.99813 0.0
C1041 C 0.57826 0.12545 0.98002 0.0
C1042 C 0.61562 0.10722 0.98065 0.0
C1043 C 0.63204 0.09571 0.99927 0.0
H1044 H 0.26528 0.50451 0.99658 0.0
H1045 H 0.35302 0.50099 0.94895 0.0
H1046 H 0.31593 0.5198 0.02128 0.0
H1047 H 0.40475 0.5163 0.97394 0.0
H1048 H 0.40165 0.54532 0.06478 0.0
H1049 H 0.37584 0.50094 0.03917 0.0
H1050 H 0.41394 0.58098 0.99197 0.0
H1051 H 0.44199 0.62466 0.01773 0.0
C1052 C 0.29576 0.50615 0.99158 0.0
C1053 C 0.30551 0.50258 0.97101 0.0
C1054 C 0.3249 0.51437 1.00571 0.0
C1055 C 0.3643 0.51939 0.99946 0.0
C1056 C 0.37453 0.51276 0.97904 0.0
C1057 C 0.34516 0.50402 0.96485 0.0
C1058 C 0.40506 0.55323 0.04892 0.0
C1059 C 0.4223 0.58914 0.04316 0.0
C1060 C 0.39076 0.52755 0.03429 0.0
C1061 C 0.39203 0.53805 0.0137 0.0
C1062 C 0.4126 0.57217 1.00778 0.0
C1063 C 0.42795 0.59752 0.02249 0.0
H1064 H 0.07006 0.34377 0.94967 0.0
H1065 H 0.94914 0.31126 0.93709 0.0
H1066 H 0.04724 0.40476 0.96517 0.0
H1067 H 0.92645 0.37094 0.95368 0.0
H1068 H 0.89011 0.45765 0.99957 0.0
H1069 H 0.92057 0.44042 0.9668 0.0
H1070 H 1.01853 0.38722 0.99884 0.0
H1071 H 0.98806 0.40307 0.03089 0.0
C1072 C 0.03869 0.35009 0.94959 0.0
C1073 C 1.01118 0.32121 0.94379 0.0
C1074 C 0.02565 0.38522 0.95838 0.0
C1075 C 0.98509 0.39133 0.96172 0.0
C1076 C 0.95795 0.3665 0.95191 0.0
C1077 C 0.97099 0.33165 0.94286 0.0
C1078 C 0.91847 0.44284 0.99944 0.0
C1079 C 0.93624 0.4307 0.01771 0.0
C1080 C 0.93603 0.43341 0.98075 0.0
C1081 C 0.97197 0.41257 0.9802 0.0
C1082 C 0.99115 0.40377 0.99859 0.0
C1083 C 0.97325 0.41219 0.01707 0.0
H1084 H 0.19107 0.03339 0.94797 0.0
H1085 H 0.27725 0.0299 0.99628 0.0
H1086 H 0.13905 1.01473 0.97227 0.0
H1087 H 0.22646 1.01117 0.02024 0.0
H1088 H 0.14012 0.98294 0.06292 0.0
H1089 H 0.16636 0.02816 0.03789 0.0
H1090 H 0.12946 0.9497 0.98975 0.0
H1091 H 0.10042 0.90532 0.01501 0.0
C1092 C 0.19849 0.0296 0.96388 0.0
C1093 C 0.23783 0.03222 0.97042 0.0
C1094 C 0.16898 1.01888 0.97767 0.0
C1095 C 0.17875 1.01141 0.99807 0.0
C1096 C 0.21778 1.01725 1.0047 0.0
C1097 C 0.24703 0.02751 0.99099 0.0
C1098 C 0.13701 0.97554 0.04698 0.0
C1099 C 0.1196 0.93998 0.04083 0.0
C1100 C 0.15165 1.00168 0.03267 0.0
C1101 C 0.15089 0.99188 0.01198 0.0
C1102 C 0.13041 0.95798 1.00565 0.0
C1103 C 0.11448 0.93225 0.02006 0.0
H1104 H 0.07575 0.70146 0.49106 0.0
H1105 H 0.09897 0.73465 0.55355 0.0
H1106 H 0.05991 0.76995 0.48341 0.0
H1107 H 0.08035 0.80148 0.54617 0.0
H1108 H 0.03324 0.89031 0.4706 0.0
H1109 H 1.01832 0.82923 0.48845 0.0
H1110 H 0.11981 0.84754 0.52716 0.0
H1111 H 0.13438 0.90848 0.50957 0.0
C1112 C 0.07637 0.72292 0.50325 0.0
C1113 C 0.08846 0.71215 0.52286 0.0
C1114 C 0.06661 0.76203 0.49898 0.0
C1115 C 0.06878 0.79099 0.51428 0.0
C1116 C 0.07844 0.77978 0.53412 0.0
C1117 C 0.08873 0.74101 0.53833 0.0
C1118 C 0.05149 0.88196 0.48343 0.0
C1119 C 0.08597 0.90303 0.48819 0.0
C1120 C 0.04295 0.84699 0.49358 0.0
C1121 C 0.06866 0.83304 0.50866 0.0
C1122 C 0.09955 0.85738 0.51548 0.0
C1123 C 0.10807 0.89232 0.50533 0.0
H1124 H 0.79089 1.00669 0.52629 0.0
H1125 H 0.70306 0.99889 0.57374 0.0
H1126 H 0.73945 1.01945 0.50141 0.0
H1127 H 0.65084 1.01216 0.54865 0.0
H1128 H 0.60894 0.11747 0.50344 0.0
H1129 H 0.64054 0.07766 0.52971 0.0
H1130 H 0.67841 0.99411 0.4841 0.0
H1131 H 0.64751 0.03404 0.45781 0.0
C1132 C 0.76034 1.00698 0.53123 0.0
C1133 C 0.75064 1.00259 0.55178 0.0
C1134 C 0.73086 1.01378 0.51701 0.0
C1135 C 0.69123 1.01677 0.52318 0.0
C1136 C 0.68125 1.00996 0.54361 0.0
C1137 C 0.71091 1.00244 0.55786 0.0
C1138 C 0.62353 0.09031 0.49909 0.0
C1139 C 0.62734 0.07966 0.47856 0.0
C1140 C 0.641 0.06721 0.51414 0.0
C1141 C 0.66239 0.03326 0.50878 0.0
C1142 C 0.66254 0.02053 0.4885 0.0
C1143 C 0.64524 0.04363 0.47348 0.0
H1144 H 0.48569 0.68861 0.43271 0.0
H1145 H 0.49385 0.62794 0.49031 0.0
H1146 H 0.52996 0.73988 0.44539 0.0
H1147 H 0.53859 0.6784 0.50276 0.0
H1148 H 0.49754 0.82745 0.50269 0.0
H1149 H 0.5005 0.78374 0.47405 0.0
H1150 H 0.60067 0.7238 0.50031 0.0
H1151 H 0.59901 0.76869 0.5291 0.0
C1152 C 0.49814 0.6855 0.4478 0.0
C1153 C 0.48554 0.65525 0.46087 0.0
C1154 C 0.5237 0.7146 0.45493 0.0
C1155 C 0.53741 0.71321 0.47503 0.0
C1156 C 0.52871 0.68011 0.48712 0.0
C1157 C 0.50257 0.65154 0.48016 0.0
C1158 C 0.52165 0.8066 0.50217 0.0
C1159 C 0.54668 0.80029 0.51893 0.0
C1160 C 0.52353 0.78151 0.48543 0.0
C1161 C 0.54991 0.74955 0.48542 0.0
C1162 C 0.57956 0.74784 0.50024 0.0
C1163 C 0.57813 0.77331 0.51685 0.0
H1164 H 0.75111 0.58411 0.5181 0.0
H1165 H 0.70823 0.46872 0.50163 0.0
H1166 H 0.77236 0.5951 0.48312 0.0
H1167 H 0.73068 0.47878 0.46705 0.0
H1168 H 0.78728 0.48495 0.40996 0.0
H1169 H 0.73783 0.50732 0.43428 0.0
H1170 H 0.82904 0.56705 0.46837 0.0
H1171 H 0.87774 0.54605 0.44383 0.0
C1172 C 0.74524 0.56155 0.50684 0.0
C1173 C 0.72866 0.52532 0.51263 0.0
C1174 C 0.75752 0.56777 0.48682 0.0
C1175 C 0.7543 0.53747 0.47232 0.0
C1176 C 0.73358 0.50298 0.47766 0.0
C1177 C 0.72074 0.49704 0.49762 0.0
C1178 C 0.79646 0.50437 0.42214 0.0
C1179 C 0.8367 0.51237 0.42547 0.0
C1180 C 0.76809 0.51693 0.4362 0.0
C1181 C 0.77958 0.53759 0.45377 0.0
C1182 C 0.81886 0.5509 0.45519 0.0
C1183 C 0.84708 0.53861 0.44109 0.0
H1184 H 0.4902 0.89732 0.96004 0.0
H1185 H 0.4105 0.9389 1.00678 0.0
H1186 H 0.53293 0.86918 0.98576 0.0
H1187 H 0.45252 0.90839 0.03267 0.0
H1188 H 0.52953 0.75886 0.02768 0.0
H1189 H 0.51218 0.80957 1.00338 0.0
H1190 H 0.51758 0.89769 0.05087 0.0
H1191 H 0.53496 0.84585 0.0755 0.0
C1192 C 0.48184 0.90051 0.97586 0.0
C1193 C 0.44633 0.91896 0.98147 0.0
C1194 C 0.50657 0.88478 0.99056 0.0
C1195 C 0.49548 0.8858 1.01108 0.0
C1196 C 0.46174 0.90726 0.0169 0.0
C1197 C 0.43737 0.92406 1.00212 0.0
C1198 C 0.52775 0.78918 0.03281 0.0
C1199 C 0.53276 0.79872 0.05332 0.0
C1200 C 0.51831 0.81834 0.01891 0.0
C1201 C 0.51355 0.85759 0.0253 0.0
C1202 C 0.52098 0.86758 0.04567 0.0
C1203 C 0.53095 0.83817 0.05964 0.0
H1204 H 0.58928 0.38285 0.02262 0.0
H1205 H 0.63072 0.48756 0.99205 0.0
H1206 H 0.60738 0.41191 0.05545 0.0
H1207 H 0.64885 0.5162 0.02421 0.0
H1208 H 0.73236 0.44108 0.08551 0.0
H1209 H 0.67302 0.41969 0.06841 0.0
H1210 H 0.64014 0.54107 0.05785 0.0
H1211 H 0.70142 0.56251 0.07356 0.0
C1212 C 0.60168 0.41226 0.02296 0.0
C1213 C 0.61017 0.43237 1.00482 0.0
C1214 C 0.61175 0.42899 0.04172 0.0
C1215 C 0.63013 0.46615 0.04253 0.0
C1216 C 0.63464 0.48764 0.02438 0.0
C1217 C 0.62503 0.47083 1.00577 0.0
C1218 C 0.71244 0.46334 0.07969 0.0
C1219 C 0.72335 0.50331 0.07913 0.0
C1220 C 0.67767 0.45104 0.0703 0.0
C1221 C 0.65307 0.4787 0.06064 0.0
C1222 C 0.65964 0.51901 0.06429 0.0
C1223 C 0.69485 0.53129 0.07332 0.0
H1224 H 0.04777 0.62356 0.96415 0.0
H1225 H 0.14012 0.60419 1.00834 0.0
H1226 H 1.00392 0.64667 0.99087 0.0
H1227 H 0.09669 0.62942 0.0351 0.0
H1228 H 0.99901 0.76423 0.02865 0.0
H1229 H 1.01727 0.712 1.00532 0.0
H1230 H 0.03383 0.63224 0.05596 0.0
H1231 H 1.01505 0.68556 0.07951 0.0
C1232 C 0.05858 0.62407 0.97965 0.0
C1233 C 0.09775 0.61378 0.98419 0.0
C1234 C 0.03332 0.63679 0.99494 0.0
C1235 C 0.04728 0.64076 0.0149 0.0
C1236 C 0.08517 0.62663 0.0198 0.0
C1237 C 0.11025 0.6129 1.00449 0.0
C1238 C 1.00547 0.7352 0.03468 0.0
C1239 C 1.00631 0.7286 0.05564 0.0
C1240 C 1.01553 0.70512 0.02139 0.0
C1241 C 0.02702 0.66803 0.02888 0.0
C1242 C 0.02517 0.66064 0.04989 0.0
C1243 C 1.01449 0.69088 0.06326 0.0
H1244 H 0.8119 0.0934 0.08534 0.0
H1245 H 0.84737 0.9735 0.07262 0.0
H1246 H 0.87108 0.11737 0.0689 0.0
H1247 H 0.90831 0.99754 0.05746 0.0
H1248 H 0.91797 0.05465 0.99236 0.0
H1249 H 0.89915 0.02403 0.02394 0.0
H1250 H 0.93786 0.12722 0.05701 0.0
H1251 H 0.95697 0.1582 0.02475 0.0
C1252 C 0.83281 0.07204 0.07949 0.0
C1253 C 0.82338 0.03173 0.0786 0.0
C1254 C 0.86742 0.08582 0.07049 0.0
C1255 C 0.89329 0.05934 0.06082 0.0
C1256 C 0.88791 1.0187 0.06399 0.0
C1257 C 0.85292 1.00493 0.07268 0.0
C1258 C 0.92295 0.07071 1.00637 0.0
C1259 C 0.93745 0.10936 1.0061 0.0
C1260 C 0.91294 0.05277 0.02463 0.0
C1261 C 0.91654 0.07333 0.04311 0.0
C1262 C 0.93434 0.11081 0.043 0.0
C1263 C 0.94497 0.12864 0.02458 0.0
H1264 H 0.98476 0.16381 0.5507 0.0
H1265 H 0.87086 0.13551 0.52499 0.0
H1266 H 0.98585 0.22517 0.53144 0.0
H1267 H 0.87158 0.19718 0.50604 0.0
H1268 H 0.89151 0.30727 0.46874 0.0
H1269 H 0.90154 0.24009 0.48051 0.0
H1270 H 0.9457 0.28448 0.53773 0.0
H1271 H 0.93721 0.35191 0.52563 0.0
C1272 C 0.96044 0.17028 0.54052 0.0
C1273 C 0.92738 0.14544 0.5396 0.0
C1274 C 0.96092 0.20549 0.52965 0.0
C1275 C 0.92832 0.21639 0.51773 0.0
C1276 C 0.8971 0.18957 0.51516 0.0
C1277 C 0.89671 0.15419 0.52598 0.0
C1278 C 0.90413 0.30278 0.48368 0.0
C1279 C 0.91427 0.33492 0.49618 0.0
C1280 C 0.9095 0.26425 0.49046 0.0
C1281 C 0.92489 0.25706 0.5099 0.0
C1282 C 0.93465 0.28916 0.52246 0.0
C1283 C 0.92928 0.32773 0.51568 0.0
H1284 H 0.31453 0.08909 0.46681 0.0
H1285 H 0.23325 0.02871 0.50697 0.0
H1286 H 0.36193 0.09367 0.49446 0.0
H1287 H 0.27985 0.03448 0.53427 0.0
H1288 H 0.42925 0.97713 0.52026 0.0
H1289 H 0.38938 0.02443 0.50161 0.0
H1290 H 0.33326 0.06119 0.55754 0.0
H1291 H 0.37365 1.01405 0.57632 0.0
C1292 C 0.30582 0.07855 0.4817 0.0
C1293 C 0.27106 0.05632 0.48426 0.0
C1294 C 0.33296 0.08152 0.49756 0.0
C1295 C 0.32517 0.06286 0.51614 0.0
C1296 C 0.28695 0.04855 0.51994 0.0
C1297 C 0.26003 0.04506 0.50404 0.0
C1298 C 0.40915 0.99599 0.52863 0.0
C1299 C 0.40355 0.99105 0.54958 0.0
C1300 C 0.38677 0.02363 0.51802 0.0
C1301 C 0.358 0.04632 0.52817 0.0
C1302 C 0.35519 0.04403 0.5494 0.0
C1303 C 0.378 1.01673 0.56006 0.0
H1304 H 0.54787 0.34543 0.58317 0.0
H1305 H 0.57092 0.41607 0.52978 0.0
H1306 H 0.5015 0.30517 0.56359 0.0
H1307 H 0.52428 0.37689 0.51057 0.0
H1308 H 0.45484 0.31014 0.47428 0.0
H1309 H 0.45461 0.34887 0.50542 0.0
H1310 H 0.52559 0.25999 0.5349 0.0
H1311 H 0.52667 0.22177 0.50415 0.0
C1312 C 0.54226 0.35298 0.56743 0.0
C1313 C 0.56354 0.38327 0.55782 0.0
C1314 C 0.51548 0.33022 0.55634 0.0
C1315 C 0.50911 0.33804 0.53565 0.0
C1316 C 0.528 0.3705 0.5266 0.0
C1317 C 0.55527 0.3926 0.53751 0.0
C1318 C 0.46892 0.29794 0.48768 0.0
C1319 C 0.49253 0.26387 0.48631 0.0
C1320 C 0.46847 0.32006 0.50554 0.0
C1321 C 0.49143 0.3081 0.52219 0.0
C1322 C 0.50805 0.27019 0.52216 0.0
C1323 C 0.50879 0.24818 0.50427 0.0
H1324 H 0.16883 0.49076 0.57908 0.0
H1325 H 0.23607 0.56858 0.61772 0.0
H1326 H 0.22895 0.46911 0.56277 0.0
H1327 H 0.29689 0.54646 0.60152 0.0
H1328 H 0.31858 0.45692 0.52125 0.0
H1329 H 0.29417 0.44699 0.55576 0.0
H1330 H 0.31122 0.571 0.56803 0.0
H1331 H 0.33687 0.58025 0.53397 0.0
C1332 C 0.19673 0.50172 0.58481 0.0
C1333 C 0.19763 0.5325 0.59903 0.0
C1334 C 0.23154 0.48915 0.57551 0.0
C1335 C 0.26778 0.50733 0.58025 0.0
C1336 C 0.2693 0.53281 0.5971 0.0
C1337 C 0.23437 0.54531 0.60648 0.0
C1338 C 0.31889 0.48155 0.53174 0.0
C1339 C 0.32852 0.51954 0.52488 0.0
C1340 C 0.30484 0.47591 0.55148 0.0
C1341 C 0.29917 0.50842 0.56441 0.0
C1342 C 0.31485 0.54519 0.55853 0.0
C1343 C 0.32952 0.55067 0.53887 0.0
H1344 H 0.6449 0.07528 0.31172 0.0
H1345 H 0.54113 0.14651 0.3019 0.0
H1346 H 0.65864 0.07527 0.27542 0.0
H1347 H 0.55369 0.14528 0.26525 0.0
H1348 H 0.59292 0.15471 0.20033 0.0
H1349 H 0.59062 0.16392 0.237 0.0
H1350 H 0.63746 0.04639 0.24527 0.0
H1351 H 0.64125 0.0382 0.20835 0.0
C1352 C 0.62516 0.09135 0.30174 0.0
C1353 C 0.59198 0.11104 0.30975 0.0
C1354 C 0.63279 0.09094 0.28081 0.0
C1355 C 0.6071 0.1097 0.26706 0.0
C1356 C 0.57462 0.1308 0.2752 0.0
C1357 C 0.56729 0.13164 0.29628 0.0
C1358 C 0.60362 0.13118 0.21002 0.0
C1359 C 0.61755 0.09581 0.2014 0.0
C1360 C 0.60177 0.13625 0.23114 0.0
C1361 C 0.61316 0.10579 0.24442 0.0
C1362 C 0.62876 0.07089 0.23573 0.0
C1363 C 0.63111 0.06606 0.21449 0.0
H1364 H 0.45707 0.65326 0.32694 0.0
H1365 H 0.38598 0.54995 0.31643 0.0
H1366 H 0.45923 0.66635 0.2906 0.0
H1367 H 0.38927 0.56196 0.27978 0.0
H1368 H 0.38481 0.59891 0.21453 0.0
H1369 H 0.37251 0.59877 0.25103 0.0
H1370 H 0.49036 0.64355 0.26119 0.0
H1371 H 0.50165 0.64511 0.22444 0.0
C1372 C 0.44147 0.63349 0.3168 0.0
C1373 C 0.42124 0.60058 0.32463 0.0
C1374 C 0.4431 0.64078 0.29586 0.0
C1375 C 0.42501 0.61504 0.28194 0.0
C1376 C 0.40328 0.58291 0.28987 0.0
C1377 C 0.40125 0.5759 0.31095 0.0
C1378 C 0.40763 0.60987 0.22459 0.0
C1379 C 0.44402 0.62251 0.2166 0.0
C1380 C 0.40083 0.60919 0.24561 0.0
C1381 C 0.43053 0.62047 0.25937 0.0
C1382 C 0.46641 0.63499 0.25124 0.0
C1383 C 0.473 0.63612 0.23011 0.0
H1384 H 0.89216 0.48072 0.31304 0.0
H1385 H 0.98053 0.38996 0.30663 0.0
H1386 H 0.87988 0.47915 0.27663 0.0
H1387 H 0.96986 0.3895 0.2699 0.0
H1388 H 0.93299 0.37982 0.20474 0.0
H1389 H 0.93245 0.37479 0.24167 0.0
H1390 H 0.90487 0.49906 0.2457 0.0
H1391 H 0.9034 0.50308 0.20859 0.0
C1392 C 0.9089 0.46018 0.3038 0.0
C1393 C 0.93725 0.43535 0.31284 0.0
C1394 C 0.90214 0.45958 0.28277 0.0
C1395 C 0.92407 0.4346 0.2699 0.0
C1396 C 0.95174 0.40884 0.27909 0.0
C1397 C 0.95801 0.40902 0.30027 0.0
C1398 C 0.9257 0.4058 0.21358 0.0
C1399 C 0.91771 0.44173 0.20373 0.0
C1400 C 0.92605 0.40311 0.23486 0.0
C1401 C 0.91931 0.43657 0.24707 0.0
C1402 C 0.90974 0.47232 0.23709 0.0
C1403 C 0.90874 0.47478 0.21571 0.0
H1404 H 0.05663 0.88846 0.3223 0.0
H1405 H 0.14065 0.98254 0.31377 0.0
H1406 H 0.05868 0.87382 0.28611 0.0
H1407 H 0.14173 0.96902 0.27733 0.0
H1408 H 0.15523 0.92597 0.21378 0.0
H1409 H 0.16015 0.92709 0.2507 0.0
H1410 H 0.03584 0.8991 0.25507 0.0
H1411 H 0.03174 0.89629 0.21796 0.0
C1412 C 0.07573 0.90595 0.31265 0.0
C1413 C 0.09853 0.93665 0.32094 0.0
C1414 C 0.07668 0.89773 0.29182 0.0
C1415 C 0.10005 0.92035 0.27858 0.0
C1416 C 0.12378 0.95042 0.28699 0.0
C1417 C 0.12321 0.95831 0.30794 0.0
C1418 C 0.12922 0.91905 0.2227 0.0
C1419 C 0.09315 0.91084 0.21305 0.0
C1420 C 0.13188 0.92022 0.24389 0.0
C1421 C 0.09829 0.91396 0.25605 0.0
C1422 C 0.06253 0.90375 0.24632 0.0
C1423 C 0.06006 0.902 0.22503 0.0
H1424 H 0.47832 1.0066 0.7029 0.0
H1425 H 0.44211 0.88479 0.70551 0.0
H1426 H 0.46872 1.01285 0.73931 0.0
H1427 H 0.43297 0.89091 0.74255 0.0
H1428 H 0.38213 0.93315 0.80542 0.0
H1429 H 0.38852 0.92637 0.76823 0.0
H1430 H 0.49907 0.98955 0.77043 0.0
H1431 H 0.49244 0.99646 0.80705 0.0
C1432 C 0.46885 0.98087 0.71135 0.0
C1433 C 0.46136 0.94509 0.70128 0.0
C1434 C 0.46332 0.98449 0.73228 0.0
C1435 C 0.4499 0.95247 0.74391 0.0
C1436 C 0.44292 0.91629 0.73398 0.0
C1437 C 0.44882 0.91255 0.71285 0.0
C1438 C 0.40712 0.94648 0.79777 0.0
C1439 C 0.43648 0.9659 0.80906 0.0
C1440 C 0.41119 0.94198 0.77658 0.0
C1441 C 0.44445 0.95721 0.76634 0.0
C1442 C 0.47293 0.97772 0.7777 0.0
C1443 C 0.46906 0.98183 0.79872 0.0
H1444 H 0.57162 0.37687 0.81432 0.0
H1445 H 0.6419 0.48274 0.81824 0.0
H1446 H 0.58249 0.37561 0.77752 0.0
H1447 H 0.65075 0.48274 0.78192 0.0
H1448 H 0.67636 0.47237 0.71524 0.0
H1449 H 0.67765 0.45973 0.75185 0.0
H1450 H 0.56193 0.40675 0.74807 0.0
H1451 H 0.56163 0.41717 0.71187 0.0
C1452 C 0.58968 0.39963 0.80751 0.0
C1453 C 0.60541 0.43008 0.81957 0.0
C1454 C 0.59559 0.39928 0.78622 0.0
C1455 C 0.61727 0.42941 0.77631 0.0
C1456 C 0.6343 0.45868 0.7886 0.0
C1457 C 0.62865 0.45889 0.8097 0.0
C1458 C 0.65159 0.45727 0.72211 0.0
C1459 C 0.61878 0.4463 0.71025 0.0
C1460 C 0.65202 0.45037 0.74331 0.0
C1461 C 0.61961 0.43245 0.75336 0.0
C1462 C 0.58775 0.42013 0.74126 0.0
C1463 C 0.58743 0.42673 0.72024 0.0
H1464 H 0.07551 0.63833 0.80677 0.0
H1465 H 0.17194 0.55484 0.80524 0.0
H1466 H 0.0784 0.64495 0.77032 0.0
H1467 H 0.17636 0.56319 0.76835 0.0
H1468 H 0.12939 0.54153 0.70337 0.0
H1469 H 0.14097 0.5436 0.73952 0.0
H1470 H 0.10794 0.66663 0.7405 0.0
H1471 H 0.09386 0.66403 0.70426 0.0
C1472 C 0.09797 0.62178 0.79869 0.0
C1473 C 0.12312 0.59554 0.80913 0.0
C1474 C 0.09995 0.62607 0.77761 0.0
C1475 C 0.12743 0.6045 0.76607 0.0
C1476 C 0.15425 0.57984 0.77659 0.0
C1477 C 0.1521 0.57537 0.79786 0.0
C1478 C 0.12459 0.56927 0.71113 0.0
C1479 C 0.11 0.60245 0.70056 0.0
C1480 C 0.13188 0.57053 0.73204 0.0
C1481 C 0.1252 0.60515 0.74325 0.0
C1482 C 0.11273 0.63908 0.73256 0.0
C1483 C 0.10505 0.63774 0.71155 0.0
H1484 H 0.9394 0.16096 0.81888 0.0
H1485 H 0.98478 0.04223 0.82187 0.0
H1486 H 0.93351 0.15475 0.78163 0.0
H1487 H 0.97852 0.03583 0.78527 0.0
H1488 H 1.00472 0.05271 0.71809 0.0
H1489 H 1.00877 0.0611 0.75468 0.0
H1490 H 0.89394 0.11663 0.75487 0.0
H1491 H 0.89016 0.10851 0.71765 0.0
C1492 C 0.94887 0.13394 0.81157 0.0
C1493 C 0.96303 0.10226 0.82332 0.0
C1494 C 0.94485 0.13009 0.79031 0.0
C1495 C 0.95536 0.09468 0.7804 0.0
C1496 C 0.97043 0.06363 0.79223 0.0
C1497 C 0.97408 0.06733 0.81329 0.0
C1498 C 0.97994 0.06613 0.72593 0.0
C1499 C 0.9469 0.07945 0.71495 0.0
C1500 C 0.98231 0.07104 0.74697 0.0
C1501 C 0.95178 0.08969 0.75783 0.0
C1502 C 0.91818 0.10249 0.74696 0.0
C1503 C 0.91565 0.09721 0.72572 0.0
H1504 H 0.83813 0.3417 0.06662 0.0
H1505 H 0.8128 0.36048 0.13013 0.0
H1506 H 0.80189 0.28 0.0675 0.0
H1507 H 0.77497 0.29906 0.13094 0.0
H1508 H 0.73237 0.16874 0.13015 0.0
H1509 H 0.77023 0.23019 0.13085 0.0
H1510 H 0.74129 0.25015 0.06774 0.0
H1511 H 0.70503 0.18849 0.06696 0.0
C1512 C 0.8248 0.33278 0.08086 0.0
C1513 C 0.82884 0.35669 0.0983 0.0
C1514 C 0.80333 0.29716 0.08134 0.0
C1515 C 0.78438 0.28379 0.09923 0.0
C1516 C 0.78904 0.30744 0.11681 0.0
C1517 C 0.81087 0.34308 0.11636 0.0
C1518 C 0.73385 0.18637 0.11644 0.0
C1519 C 0.71532 0.17302 0.09849 0.0
C1520 C 0.7557 0.222 0.11683 0.0
C1521 C 0.75982 0.2459 0.09929 0.0
C1522 C 0.74029 0.2328 0.08153 0.0
C1523 C 0.71881 0.19719 0.08112 0.0
H1524 H 0.35182 0.70146 0.08085 0.0
H1525 H 0.36568 0.72628 0.14468 0.0
H1526 H 0.28808 0.73407 0.08094 0.0
H1527 H 0.30211 0.76094 0.14473 0.0
H1528 H 0.17065 0.80044 0.14262 0.0
H1529 H 0.23387 0.76536 0.14406 0.0
H1530 H 0.25249 0.79022 0.08035 0.0
H1531 H 0.18898 0.8233 0.07888 0.0
C1532 C 0.34144 0.7141 0.09501 0.0
C1533 C 0.36469 0.71087 0.11275 0.0
C1534 C 0.30449 0.73352 0.09504 0.0
C1535 C 0.28891 0.75143 0.11276 0.0
C1536 C 0.312 0.74766 0.13067 0.0
C1537 C 0.34896 0.72767 0.13067 0.0
C1538 C 0.18826 0.79844 0.1289 0.0
C1539 C 0.17392 0.81491 0.1106 0.0
C1540 C 0.22504 0.77825 0.12972 0.0
C1541 C 0.24937 0.7739 0.11229 0.0
C1542 C 0.2351 0.79129 0.09414 0.0
C1543 C 0.19828 0.81095 0.09329 0.0
H1544 H 0.32434 0.69401 0.45146 0.0
H1545 H 0.29559 0.66622 0.38922 0.0
H1546 H 0.28675 0.7547 0.44906 0.0
H1547 H 0.25698 0.72757 0.38685 0.0
H1548 H 0.18657 0.84195 0.44836 0.0
H1549 H 0.22199 0.77977 0.44806 0.0
H1550 H 0.25669 0.80005 0.3858 0.0
H1551 H 0.22028 0.86288 0.38604 0.0
C1552 C 0.30991 0.70061 0.43717 0.0
C1553 C 0.31331 0.67438 0.42058 0.0
C1554 C 0.28782 0.73575 0.43583 0.0
C1555 C 0.26791 0.74663 0.41782 0.0
C1556 C 0.27176 0.72079 0.40102 0.0
C1557 C 0.2939 0.68526 0.4024 0.0
C1558 C 0.20142 0.83336 0.43445 0.0
C1559 C 0.20028 0.85824 0.41724 0.0
C1560 C 0.22229 0.7974 0.43434 0.0
C1561 C 0.24326 0.78438 0.41703 0.0
C1562 C 0.24107 0.80852 0.39949 0.0
C1563 C 0.22006 0.84482 0.39961 0.0
H1564 H 0.80664 0.37839 0.41449 0.0
H1565 H 0.87945 0.28107 0.39504 0.0
H1566 H 0.74783 0.33651 0.41217 0.0
H1567 H 0.82057 0.23865 0.39353 0.0
H1568 H 0.70712 0.17348 0.42415 0.0
H1569 H 0.76756 0.21314 0.42207 0.0
H1570 H 0.70798 0.29575 0.38289 0.0
H1571 H 0.64785 0.25514 0.38428 0.0
C1572 C 0.8102 0.34805 0.40969 0.0
C1573 C 0.84813 0.33338 0.40489 0.0
C1574 C 0.77631 0.32401 0.40829 0.0
C1575 C 0.77915 0.28403 0.40264 0.0
C1576 C 0.81708 0.26922 0.39794 0.0
C1577 C 0.85091 0.29364 0.39873 0.0
C1578 C 0.70707 0.19963 0.41471 0.0
C1579 C 0.67242 0.21063 0.40419 0.0
C1580 C 0.74184 0.22246 0.41354 0.0
C1581 C 0.74291 0.25787 0.40236 0.0
C1582 C 0.7084 0.26876 0.39167 0.0
C1583 C 0.67393 0.24524 0.39233 0.0
H1584 H 0.33371 0.85124 0.94307 0.0
H1585 H 0.31111 0.86622 0.8791 0.0
H1586 H 0.30053 0.788 0.94249 0.0
H1587 H 0.27588 0.80317 0.87853 0.0
H1588 H 0.21108 0.68941 0.94353 0.0
H1589 H 0.24439 0.75262 0.94253 0.0
H1590 H 0.27044 0.73518 0.87886 0.0
H1591 H 0.23512 0.67224 0.87982 0.0
C1592 C 0.32144 0.84123 0.92878 0.0
C1593 C 0.32549 0.86466 0.91115 0.0
C1594 C 0.30168 0.80455 0.92845 0.0
C1595 C 0.2842 0.78941 0.91052 0.0
C1596 C 0.28877 0.81269 0.89275 0.0
C1597 C 0.30909 0.84938 0.89304 0.0
C1598 C 0.22369 0.69893 0.92922 0.0
C1599 C 0.21998 0.67493 0.91178 0.0
C1600 C 0.24353 0.73557 0.92865 0.0
C1601 C 0.2614 0.75009 0.91066 0.0
C1602 C 0.25722 0.72618 0.89309 0.0
C1603 C 0.23685 0.68955 0.89363 0.0
H1604 H 0.87223 0.23139 0.89341 0.0
H1605 H 0.85116 0.2061 0.95672 0.0
H1606 H 0.81081 0.26951 0.8921 0.0
H1607 H 0.78947 0.24261 0.95534 0.0
H1608 H 0.6801 0.31244 0.89192 0.0
H1609 H 0.74174 0.27451 0.89163 0.0
H1610 H 0.75999 0.30338 0.95489 0.0
H1611 H 0.69815 0.33967 0.95525 0.0
C1612 C 0.85432 0.23339 0.90702 0.0
C1613 C 0.86728 0.21536 0.92519 0.0
C1614 C 0.8187 0.25538 0.90628 0.0
C1615 C 0.79443 0.26013 0.92366 0.0
C1616 C 0.80713 0.2411 0.94164 0.0
C1617 C 0.84275 0.21949 0.94241 0.0
C1618 C 0.69742 0.31096 0.90574 0.0
C1619 C 0.68353 0.32942 0.92361 0.0
C1620 C 0.73314 0.28905 0.9056 0.0
C1621 C 0.75656 0.28485 0.92331 0.0
C1622 C 0.74298 0.30442 0.94097 0.0
C1623 C 0.70729 0.32592 0.94114 0.0
H1624 H 0.70132 0.33774 0.58401 0.0
H1625 H 0.74907 0.37288 0.642 0.0
H1626 H 0.73714 0.27607 0.58586 0.0
H1627 H 0.78633 0.31059 0.64369 0.0
H1628 H 0.83398 0.18575 0.58135 0.0
H1629 H 0.79908 0.24812 0.58219 0.0
H1630 H 0.78867 0.23955 0.64745 0.0
H1631 H 0.82501 0.17671 0.64659 0.0
C1632 C 0.71963 0.33253 0.59724 0.0
C1633 C 0.72205 0.36116 0.61278 0.0
C1634 C 0.74075 0.29679 0.59823 0.0
C1635 C 0.76577 0.28771 0.61476 0.0
C1636 C 0.76755 0.31587 0.63066 0.0
C1637 C 0.74612 0.35192 0.62968 0.0
C1638 C 0.82445 0.19689 0.59599 0.0
C1639 C 0.83252 0.17535 0.61388 0.0
C1640 C 0.80385 0.23301 0.59647 0.0
C1641 C 0.78989 0.24949 0.61486 0.0
C1642 C 0.79874 0.22846 0.63291 0.0
C1643 C 0.81964 0.19209 0.63243 0.0
H1644 H 0.23248 0.66213 0.59464 0.0
H1645 H 0.16395 0.75989 0.61728 0.0
H1646 H 0.29246 0.70263 0.59598 0.0
H1647 H 0.22388 0.80096 0.61779 0.0
H1648 H 0.33564 0.86732 0.587 0.0
H1649 H 0.27509 0.8278 0.58893 0.0
H1650 H 0.33647 0.74074 0.62464 0.0
H1651 H 0.39679 0.78119 0.62346 0.0
C1652 C 0.23006 0.69231 0.59988 0.0
C1653 C 0.19292 0.70742 0.60589 0.0
C1654 C 0.26468 0.71558 0.60073 0.0
C1655 C 0.26345 0.75533 0.607 0.0
C1656 C 0.22626 0.77061 0.61285 0.0
C1657 C 0.19178 0.74692 0.61263 0.0
C1658 C 0.33625 0.84003 0.59553 0.0
C1659 C 0.3715 0.8279 0.60519 0.0
C1660 C 0.30131 0.81728 0.59665 0.0
C1661 C 0.30047 0.78078 0.6069 0.0
C1662 C 0.33572 0.76854 0.61655 0.0
C1663 C 0.3704 0.79195 0.61598 0.0
loop_
_geom_bond_atom_site_label_1
_geom_bond_atom_site_label_2
_geom_bond_distance
_geom_bond_site_symmetry_2
_ccdc_geom_bond_type
Zn0 N4 2.020 . S
Zn0 O8 2.019 . S
Zn0 N10 2.119 . S
Zn0 O18 1.975 . S
C1 N2 1.334 . S
C1 N5 1.336 1_565 S
N2 C1 1.334 . S
N2 C3 1.334 1_565 S
C3 N2 1.334 1_545 S
C3 N4 1.336 . S
N4 Zn0 2.020 . S
N4 C3 1.336 . S
N4 N5 1.354 . S
N5 C1 1.336 1_545 S
N5 N4 1.354 . S
N5 Zn9 2.020 . S
C6 O7 1.244 . S
C6 O30 1.257 1_565 S
O7 C6 1.244 . S
O8 Zn0 2.019 . S
O8 C28 1.257 . S
Zn9 N5 2.020 . S
Zn9 O16 1.975 . S
Zn9 N25 2.119 . S
Zn9 O30 2.019 . S
N10 Zn0 2.119 . S
N10 C12 1.334 . S
N10 C13 1.328 . S
C11 C12 1.391 . S
C11 N14 1.329 . S
C11 H32 0.930 . S
C12 N10 1.334 . S
C12 C11 1.391 . S
C12 H19 0.930 . S
C13 N10 1.328 . S
C13 C15 1.392 . S
C13 H20 0.930 . S
N14 C11 1.329 . S
N14 C15 1.331 . S
C15 C13 1.392 . S
C15 N14 1.331 . S
O16 Zn9 1.975 . S
O16 C17 1.252 . S
C17 O16 1.252 . S
C17 O18 1.252 . S
O18 Zn0 1.975 . S
O18 C17 1.252 . S
H19 C12 0.930 . S
H20 C13 0.930 . S
C21 C22 1.392 . S
C21 N25 1.328 . S
C21 H27 0.930 . S
C22 C21 1.392 . S
C22 N26 1.331 . S
C23 C24 1.391 . S
C23 N26 1.329 . S
C23 H33 0.930 . S
C24 C23 1.391 . S
C24 N25 1.334 . S
C24 H31 0.930 . S
N25 Zn9 2.119 . S
N25 C21 1.328 . S
N25 C24 1.334 . S
N26 C22 1.331 . S
N26 C23 1.329 . S
H27 C21 0.930 . S
C28 O8 1.257 . S
C28 O29 1.244 . S
O29 C28 1.244 . S
O30 C6 1.257 1_545 S
O30 Zn9 2.019 . S
H31 C24 0.930 . S
H32 C11 0.930 . S
H33 C23 0.930 . S
Zn34 N38 2.020 . S
Zn34 O42 2.019 . S
Zn34 N44 2.119 . S
Zn34 O52 1.975 . S
C35 N36 1.334 . S
C35 N39 1.336 . S
N36 C35 1.334 . S
N36 C37 1.334 . S
C37 N36 1.334 . S
C37 N38 1.336 . S
N38 Zn34 2.020 . S
N38 C37 1.336 . S
N38 N39 1.354 . S
N39 C35 1.336 . S
N39 N38 1.354 . S
N39 Zn43 2.020 . S
C40 O41 1.244 . S
C40 O64 1.257 . S
O41 C40 1.244 . S
O42 Zn34 2.019 . S
O42 C62 1.257 . S
Zn43 N39 2.020 . S
Zn43 O50 1.975 . S
Zn43 N59 2.119 . S
Zn43 O64 2.019 . S
N44 Zn34 2.119 . S
N44 C46 1.334 . S
N44 C47 1.328 . S
C45 C46 1.391 . S
C45 N48 1.329 . S
C45 H66 0.930 . S
C46 N44 1.334 . S
C46 C45 1.391 . S
C46 H53 0.930 . S
C47 N44 1.328 . S
C47 C49 1.392 . S
C47 H54 0.930 . S
N48 C45 1.329 . S
N48 C49 1.331 . S
C49 C47 1.392 . S
C49 N48 1.331 . S
O50 Zn43 1.975 . S
O50 C51 1.252 . S
C51 O50 1.252 . S
C51 O52 1.252 . S
O52 Zn34 1.975 . S
O52 C51 1.252 . S
H53 C46 0.930 . S
H54 C47 0.930 . S
C55 C56 1.392 . S
C55 N59 1.328 . S
C55 H61 0.930 . S
C56 C55 1.392 . S
C56 N60 1.331 . S
C57 C58 1.391 . S
C57 N60 1.329 . S
C57 H67 0.930 . S
C58 C57 1.391 . S
C58 N59 1.334 . S
C58 H65 0.930 . S
N59 Zn43 2.119 . S
N59 C55 1.328 . S
N59 C58 1.334 . S
N60 C56 1.331 . S
N60 C57 1.329 . S
H61 C55 0.930 . S
C62 O42 1.257 . S
C62 O63 1.244 . S
O63 C62 1.244 . S
O64 C40 1.257 . S
O64 Zn43 2.019 . S
H65 C58 0.930 . S
H66 C45 0.930 . S
H67 C57 0.930 . S
Zn68 N72 2.020 . S
Zn68 O76 2.019 . S
Zn68 N78 2.119 . S
Zn68 O86 1.975 . S
C69 N70 1.334 . S
C69 N73 1.336 . S
N70 C69 1.334 . S
N70 C71 1.334 . S
C71 N70 1.334 . S
C71 N72 1.336 . S
N72 Zn68 2.020 . S
N72 C71 1.336 . S
N72 N73 1.354 . S
N73 C69 1.336 . S
N73 N72 1.354 . S
N73 Zn77 2.020 . S
C74 O75 1.244 . S
C74 O98 1.257 . S
O75 C74 1.244 . S
O76 Zn68 2.019 . S
O76 C96 1.257 . S
Zn77 N73 2.020 . S
Zn77 O84 1.975 . S
Zn77 N93 2.119 . S
Zn77 O98 2.019 . S
N78 Zn68 2.119 . S
N78 C80 1.334 . S
N78 C81 1.328 . S
C79 C80 1.391 . S
C79 N82 1.329 . S
C79 H100 0.930 . S
C80 N78 1.334 . S
C80 C79 1.391 . S
C80 H87 0.930 . S
C81 N78 1.328 . S
C81 C83 1.392 . S
C81 H88 0.930 . S
N82 C79 1.329 . S
N82 C83 1.331 . S
C83 C81 1.392 . S
C83 N82 1.331 . S
O84 Zn77 1.975 . S
O84 C85 1.252 . S
C85 O84 1.252 . S
C85 O86 1.252 . S
O86 Zn68 1.975 . S
O86 C85 1.252 . S
H87 C80 0.930 . S
H88 C81 0.930 . S
C89 C90 1.392 . S
C89 N93 1.328 . S
C89 H95 0.930 . S
C90 C89 1.392 . S
C90 N94 1.331 . S
C91 C92 1.391 . S
C91 N94 1.329 . S
C91 H101 0.930 . S
C92 C91 1.391 . S
C92 N93 1.334 . S
C92 H99 0.930 . S
N93 Zn77 2.119 . S
N93 C89 1.328 . S
N93 C92 1.334 . S
N94 C90 1.331 . S
N94 C91 1.329 . S
H95 C89 0.930 . S
C96 O76 1.257 . S
C96 O97 1.244 . S
O97 C96 1.244 . S
O98 C74 1.257 . S
O98 Zn77 2.019 . S
H99 C92 0.930 . S
H100 C79 0.930 . S
H101 C91 0.930 . S
Zn102 N106 2.020 . S
Zn102 O110 2.019 . S
Zn102 N112 2.119 . S
Zn102 O120 1.975 . S
C103 N104 1.334 1_455 S
C103 N107 1.336 . S
N104 C103 1.334 1_655 S
N104 C105 1.334 . S
C105 N104 1.334 . S
C105 N106 1.336 1_655 S
N106 Zn102 2.020 . S
N106 C105 1.336 1_455 S
N106 N107 1.354 . S
N107 C103 1.336 . S
N107 N106 1.354 . S
N107 Zn111 2.020 . S
C108 O109 1.244 . S
C108 O132 1.257 . S
O109 C108 1.244 . S
O110 Zn102 2.019 . S
O110 C130 1.257 1_455 S
Zn111 N107 2.020 . S
Zn111 O118 1.975 . S
Zn111 N127 2.119 . S
Zn111 O132 2.019 . S
N112 Zn102 2.119 . S
N112 C114 1.334 . S
N112 C115 1.328 . S
C113 C114 1.391 . S
C113 N116 1.329 . S
C113 H134 0.930 . S
C114 N112 1.334 . S
C114 C113 1.391 . S
C114 H121 0.930 . S
C115 N112 1.328 . S
C115 C117 1.392 . S
C115 H122 0.930 . S
N116 C113 1.329 . S
N116 C117 1.331 . S
C117 C115 1.392 . S
C117 N116 1.331 . S
O118 Zn111 1.975 . S
O118 C119 1.252 . S
C119 O118 1.252 . S
C119 O120 1.252 . S
O120 Zn102 1.975 . S
O120 C119 1.252 . S
H121 C114 0.930 . S
H122 C115 0.930 . S
C123 C124 1.392 . S
C123 N127 1.328 . S
C123 H129 0.930 . S
C124 C123 1.392 . S
C124 N128 1.331 . S
C125 C126 1.391 . S
C125 N128 1.329 . S
C125 H135 0.930 . S
C126 C125 1.391 . S
C126 N127 1.334 . S
C126 H133 0.930 . S
N127 Zn111 2.119 . S
N127 C123 1.328 . S
N127 C126 1.334 . S
N128 C124 1.331 . S
N128 C125 1.329 . S
H129 C123 0.930 . S
C130 O110 1.257 1_655 S
C130 O131 1.244 . S
O131 C130 1.244 . S
O132 C108 1.257 . S
O132 Zn111 2.019 . S
H133 C126 0.930 . S
H134 C113 0.930 . S
H135 C125 0.930 . S
Zn136 N140 2.020 . S
Zn136 O144 2.019 . S
Zn136 N146 2.119 . S
Zn136 O154 1.975 . S
C137 N138 1.334 1_565 S
C137 N141 1.336 . S
N138 C137 1.334 1_545 S
N138 C139 1.334 . S
C139 N138 1.334 . S
C139 N140 1.336 1_545 S
N140 Zn136 2.020 . S
N140 C139 1.336 1_565 S
N140 N141 1.354 . S
N141 C137 1.336 . S
N141 N140 1.354 . S
N141 Zn145 2.020 . S
C142 O143 1.244 . S
C142 O166 1.257 . S
O143 C142 1.244 . S
O144 Zn136 2.019 . S
O144 C164 1.257 1_565 S
Zn145 N141 2.020 . S
Zn145 O152 1.975 . S
Zn145 N161 2.119 . S
Zn145 O166 2.019 . S
N146 Zn136 2.119 . S
N146 C148 1.334 . S
N146 C149 1.328 . S
C147 C148 1.391 . S
C147 N150 1.329 . S
C147 H168 0.930 . S
C148 N146 1.334 . S
C148 C147 1.391 . S
C148 H155 0.930 . S
C149 N146 1.328 . S
C149 C151 1.392 . S
C149 H156 0.930 . S
N150 C147 1.329 . S
N150 C151 1.331 . S
C151 C149 1.392 . S
C151 N150 1.331 . S
O152 Zn145 1.975 . S
O152 C153 1.252 . S
C153 O152 1.252 . S
C153 O154 1.252 . S
O154 Zn136 1.975 . S
O154 C153 1.252 . S
H155 C148 0.930 . S
H156 C149 0.930 . S
C157 C158 1.392 . S
C157 N161 1.328 . S
C157 H163 0.930 . S
C158 C157 1.392 . S
C158 N162 1.331 . S
C159 C160 1.391 . S
C159 N162 1.329 . S
C159 H169 0.930 . S
C160 C159 1.391 . S
C160 N161 1.334 . S
C160 H167 0.930 . S
N161 Zn145 2.119 . S
N161 C157 1.328 . S
N161 C160 1.334 . S
N162 C158 1.331 . S
N162 C159 1.329 . S
H163 C157 0.930 . S
C164 O144 1.257 1_545 S
C164 O165 1.244 . S
O165 C164 1.244 . S
O166 C142 1.257 . S
O166 Zn145 2.019 . S
H167 C160 0.930 . S
H168 C147 0.930 . S
H169 C159 0.930 . S
Zn170 N174 2.020 . S
Zn170 O178 2.019 . S
Zn170 N180 2.119 . S
Zn170 O188 1.975 . S
C171 N172 1.334 . S
C171 N175 1.336 . S
N172 C171 1.334 . S
N172 C173 1.334 . S
C173 N172 1.334 . S
C173 N174 1.336 . S
N174 Zn170 2.020 . S
N174 C173 1.336 . S
N174 N175 1.354 . S
N175 C171 1.336 . S
N175 N174 1.354 . S
N175 Zn179 2.020 . S
C176 O177 1.244 . S
C176 O200 1.257 . S
O177 C176 1.244 . S
O178 Zn170 2.019 . S
O178 C198 1.257 . S
Zn179 N175 2.020 . S
Zn179 O186 1.975 . S
Zn179 N195 2.119 . S
Zn179 O200 2.019 . S
N180 Zn170 2.119 . S
N180 C182 1.334 . S
N180 C183 1.328 . S
C181 C182 1.391 . S
C181 N184 1.329 . S
C181 H202 0.930 . S
C182 N180 1.334 . S
C182 C181 1.391 . S
C182 H189 0.930 . S
C183 N180 1.328 . S
C183 C185 1.392 . S
C183 H190 0.930 . S
N184 C181 1.329 . S
N184 C185 1.331 . S
C185 C183 1.392 . S
C185 N184 1.331 . S
O186 Zn179 1.975 . S
O186 C187 1.252 . S
C187 O186 1.252 . S
C187 O188 1.252 . S
O188 Zn170 1.975 . S
O188 C187 1.252 . S
H189 C182 0.930 . S
H190 C183 0.930 . S
C191 C192 1.392 . S
C191 N195 1.328 . S
C191 H197 0.930 . S
C192 C191 1.392 . S
C192 N196 1.331 . S
C193 C194 1.391 . S
C193 N196 1.329 . S
C193 H203 0.930 . S
C194 C193 1.391 . S
C194 N195 1.334 . S
C194 H201 0.930 . S
N195 Zn179 2.119 . S
N195 C191 1.328 . S
N195 C194 1.334 . S
N196 C192 1.331 . S
N196 C193 1.329 . S
H197 C191 0.930 . S
C198 O178 1.257 . S
C198 O199 1.244 . S
O199 C198 1.244 . S
O200 C176 1.257 . S
O200 Zn179 2.019 . S
H201 C194 0.930 . S
H202 C181 0.930 . S
H203 C193 0.930 . S
Zn204 N208 2.020 . S
Zn204 O212 2.019 . S
Zn204 N214 2.119 . S
Zn204 O222 1.975 . S
C205 N206 1.334 . S
C205 N209 1.336 . S
N206 C205 1.334 . S
N206 C207 1.334 . S
C207 N206 1.334 . S
C207 N208 1.336 . S
N208 Zn204 2.020 . S
N208 C207 1.336 . S
N208 N209 1.354 . S
N209 C205 1.336 . S
N209 N208 1.354 . S
N209 Zn213 2.020 . S
C210 O211 1.244 . S
C210 O234 1.257 . S
O211 C210 1.244 . S
O212 Zn204 2.019 . S
O212 C232 1.257 . S
Zn213 N209 2.020 . S
Zn213 O220 1.975 . S
Zn213 N229 2.119 . S
Zn213 O234 2.019 . S
N214 Zn204 2.119 . S
N214 C216 1.334 . S
N214 C217 1.328 . S
C215 C216 1.391 . S
C215 N218 1.329 . S
C215 H236 0.930 . S
C216 N214 1.334 . S
C216 C215 1.391 . S
C216 H223 0.930 . S
C217 N214 1.328 . S
C217 C219 1.392 . S
C217 H224 0.930 . S
N218 C215 1.329 . S
N218 C219 1.331 . S
C219 C217 1.392 . S
C219 N218 1.331 . S
O220 Zn213 1.975 . S
O220 C221 1.252 . S
C221 O220 1.252 . S
C221 O222 1.252 . S
O222 Zn204 1.975 . S
O222 C221 1.252 . S
H223 C216 0.930 . S
H224 C217 0.930 . S
C225 C226 1.392 . S
C225 N229 1.328 . S
C225 H231 0.930 . S
C226 C225 1.392 . S
C226 N230 1.331 . S
C227 C228 1.391 . S
C227 N230 1.329 . S
C227 H237 0.930 . S
C228 C227 1.391 . S
C228 N229 1.334 . S
C228 H235 0.930 . S
N229 Zn213 2.119 . S
N229 C225 1.328 . S
N229 C228 1.334 . S
N230 C226 1.331 . S
N230 C227 1.329 . S
H231 C225 0.930 . S
C232 O212 1.257 . S
C232 O233 1.244 . S
O233 C232 1.244 . S
O234 C210 1.257 . S
O234 Zn213 2.019 . S
H235 C228 0.930 . S
H236 C215 0.930 . S
H237 C227 0.930 . S
Zn238 N242 2.020 . S
Zn238 O246 2.019 . S
Zn238 N248 2.119 . S
Zn238 O256 1.975 . S
C239 N240 1.334 . S
C239 N243 1.336 1_455 S
N240 C239 1.334 . S
N240 C241 1.334 1_455 S
C241 N240 1.334 1_655 S
C241 N242 1.336 . S
N242 Zn238 2.020 . S
N242 C241 1.336 . S
N242 N243 1.354 . S
N243 C239 1.336 1_655 S
N243 N242 1.354 . S
N243 Zn247 2.020 . S
C244 O245 1.244 . S
C244 O268 1.257 1_455 S
O245 C244 1.244 . S
O246 Zn238 2.019 . S
O246 C266 1.257 . S
Zn247 N243 2.020 . S
Zn247 O254 1.975 . S
Zn247 N263 2.119 . S
Zn247 O268 2.019 . S
N248 Zn238 2.119 . S
N248 C250 1.334 . S
N248 C251 1.328 . S
C249 C250 1.391 . S
C249 N252 1.329 . S
C249 H270 0.930 . S
C250 N248 1.334 . S
C250 C249 1.391 . S
C250 H257 0.930 . S
C251 N248 1.328 . S
C251 C253 1.392 . S
C251 H258 0.930 . S
N252 C249 1.329 . S
N252 C253 1.331 . S
C253 C251 1.392 . S
C253 N252 1.331 . S
O254 Zn247 1.975 . S
O254 C255 1.252 . S
C255 O254 1.252 . S
C255 O256 1.252 . S
O256 Zn238 1.975 . S
O256 C255 1.252 . S
H257 C250 0.930 . S
H258 C251 0.930 . S
C259 C260 1.392 . S
C259 N263 1.328 . S
C259 H265 0.930 . S
C260 C259 1.392 . S
C260 N264 1.331 . S
C261 C262 1.391 . S
C261 N264 1.329 . S
C261 H271 0.930 . S
C262 C261 1.391 . S
C262 N263 1.334 . S
C262 H269 0.930 . S
N263 Zn247 2.119 . S
N263 C259 1.328 . S
N263 C262 1.334 . S
N264 C260 1.331 . S
N264 C261 1.329 . S
H265 C259 0.930 . S
C266 O246 1.257 . S
C266 O267 1.244 . S
O267 C266 1.244 . S
O268 C244 1.257 1_655 S
O268 Zn247 2.019 . S
H269 C262 0.930 . S
H270 C249 0.930 . S
H271 C261 0.930 . S
Zn272 N276 2.020 . S
Zn272 O280 2.019 . S
Zn272 N282 2.119 . S
Zn272 O290 1.975 . S
C273 N274 1.334 . S
C273 N277 1.336 1_545 S
N274 C273 1.334 . S
N274 C275 1.334 1_545 S
C275 N274 1.334 1_565 S
C275 N276 1.336 . S
N276 Zn272 2.020 . S
N276 C275 1.336 . S
N276 N277 1.354 . S
N277 C273 1.336 1_565 S
N277 N276 1.354 . S
N277 Zn281 2.020 . S
C278 O279 1.244 . S
C278 O302 1.257 1_545 S
O279 C278 1.244 . S
O280 Zn272 2.019 . S
O280 C300 1.257 . S
Zn281 N277 2.020 . S
Zn281 O288 1.975 . S
Zn281 N297 2.119 . S
Zn281 O302 2.019 . S
N282 Zn272 2.119 . S
N282 C284 1.334 . S
N282 C285 1.328 . S
C283 C284 1.391 . S
C283 N286 1.329 . S
C283 H304 0.930 . S
C284 N282 1.334 . S
C284 C283 1.391 . S
C284 H291 0.930 . S
C285 N282 1.328 . S
C285 C287 1.392 . S
C285 H292 0.930 . S
N286 C283 1.329 . S
N286 C287 1.331 . S
C287 C285 1.392 . S
C287 N286 1.331 . S
O288 Zn281 1.975 . S
O288 C289 1.252 . S
C289 O288 1.252 . S
C289 O290 1.252 . S
O290 Zn272 1.975 . S
O290 C289 1.252 . S
H291 C284 0.930 . S
H292 C285 0.930 . S
C293 C294 1.392 . S
C293 N297 1.328 . S
C293 H299 0.930 . S
C294 C293 1.392 . S
C294 N298 1.331 . S
C295 C296 1.391 . S
C295 N298 1.329 . S
C295 H305 0.930 . S
C296 C295 1.391 . S
C296 N297 1.334 . S
C296 H303 0.930 . S
N297 Zn281 2.119 . S
N297 C293 1.328 . S
N297 C296 1.334 . S
N298 C294 1.331 . S
N298 C295 1.329 . S
H299 C293 0.930 . S
C300 O280 1.257 . S
C300 O301 1.244 . S
O301 C300 1.244 . S
O302 C278 1.257 1_565 S
O302 Zn281 2.019 . S
H303 C296 0.930 . S
H304 C283 0.930 . S
H305 C295 0.930 . S
Zn306 N310 2.020 . S
Zn306 O314 2.019 . S
Zn306 N316 2.119 . S
Zn306 O324 1.975 . S
C307 N308 1.334 . S
C307 N311 1.336 . S
N308 C307 1.334 . S
N308 C309 1.334 . S
C309 N308 1.334 . S
C309 N310 1.336 . S
N310 Zn306 2.020 . S
N310 C309 1.336 . S
N310 N311 1.354 . S
N311 C307 1.336 . S
N311 N310 1.354 . S
N311 Zn315 2.020 . S
C312 O313 1.244 . S
C312 O336 1.257 . S
O313 C312 1.244 . S
O314 Zn306 2.019 . S
O314 C334 1.257 . S
Zn315 N311 2.020 . S
Zn315 O322 1.975 . S
Zn315 N331 2.119 . S
Zn315 O336 2.019 . S
N316 Zn306 2.119 . S
N316 C318 1.334 . S
N316 C319 1.328 . S
C317 C318 1.391 . S
C317 N320 1.329 . S
C317 H338 0.930 . S
C318 N316 1.334 . S
C318 C317 1.391 . S
C318 H325 0.930 . S
C319 N316 1.328 . S
C319 C321 1.392 . S
C319 H326 0.930 . S
N320 C317 1.329 . S
N320 C321 1.331 . S
C321 C319 1.392 . S
C321 N320 1.331 . S
O322 Zn315 1.975 . S
O322 C323 1.252 . S
C323 O322 1.252 . S
C323 O324 1.252 . S
O324 Zn306 1.975 . S
O324 C323 1.252 . S
H325 C318 0.930 . S
H326 C319 0.930 . S
C327 C328 1.392 . S
C327 N331 1.328 . S
C327 H333 0.930 . S
C328 C327 1.392 . S
C328 N332 1.331 . S
C329 C330 1.391 . S
C329 N332 1.329 . S
C329 H339 0.930 . S
C330 C329 1.391 . S
C330 N331 1.334 . S
C330 H337 0.930 . S
N331 Zn315 2.119 . S
N331 C327 1.328 . S
N331 C330 1.334 . S
N332 C328 1.331 . S
N332 C329 1.329 . S
H333 C327 0.930 . S
C334 O314 1.257 . S
C334 O335 1.244 . S
O335 C334 1.244 . S
O336 C312 1.257 . S
O336 Zn315 2.019 . S
H337 C330 0.930 . S
H338 C317 0.930 . S
H339 C329 0.930 . S
Zn340 N344 2.020 . S
Zn340 O348 2.019 . S
Zn340 N350 2.119 . S
Zn340 O358 1.975 . S
C341 N342 1.334 . S
C341 N345 1.336 . S
N342 C341 1.334 . S
N342 C343 1.334 . S
C343 N342 1.334 . S
C343 N344 1.336 . S
N344 Zn340 2.020 . S
N344 C343 1.336 . S
N344 N345 1.354 . S
N345 C341 1.336 . S
N345 N344 1.354 . S
N345 Zn349 2.020 . S
C346 O347 1.244 . S
C346 O370 1.257 . S
O347 C346 1.244 . S
O348 Zn340 2.019 . S
O348 C368 1.257 . S
Zn349 N345 2.020 . S
Zn349 O356 1.975 . S
Zn349 N365 2.119 . S
Zn349 O370 2.019 . S
N350 Zn340 2.119 . S
N350 C352 1.334 . S
N350 C353 1.328 . S
C351 C352 1.391 . S
C351 N354 1.329 . S
C351 H372 0.930 . S
C352 N350 1.334 . S
C352 C351 1.391 . S
C352 H359 0.930 . S
C353 N350 1.328 . S
C353 C355 1.392 . S
C353 H360 0.930 . S
N354 C351 1.329 . S
N354 C355 1.331 . S
C355 C353 1.392 . S
C355 N354 1.331 . S
O356 Zn349 1.975 . S
O356 C357 1.252 . S
C357 O356 1.252 . S
C357 O358 1.252 . S
O358 Zn340 1.975 . S
O358 C357 1.252 . S
H359 C352 0.930 . S
H360 C353 0.930 . S
C361 C362 1.392 . S
C361 N365 1.328 . S
C361 H367 0.930 . S
C362 C361 1.392 . S
C362 N366 1.331 . S
C363 C364 1.391 . S
C363 N366 1.329 . S
C363 H373 0.930 . S
C364 C363 1.391 . S
C364 N365 1.334 . S
C364 H371 0.930 . S
N365 Zn349 2.119 . S
N365 C361 1.328 . S
N365 C364 1.334 . S
N366 C362 1.331 . S
N366 C363 1.329 . S
H367 C361 0.930 . S
C368 O348 1.257 . S
C368 O369 1.244 . S
O369 C368 1.244 . S
O370 C346 1.257 . S
O370 Zn349 2.019 . S
H371 C364 0.930 . S
H372 C351 0.930 . S
H373 C363 0.930 . S
Zn374 N378 2.020 . S
Zn374 O382 2.019 . S
Zn374 N384 2.119 . S
Zn374 O392 1.975 . S
C375 N376 1.334 1_655 S
C375 N379 1.336 . S
N376 C375 1.334 1_455 S
N376 C377 1.334 . S
C377 N376 1.334 . S
C377 N378 1.336 1_455 S
N378 Zn374 2.020 . S
N378 C377 1.336 1_655 S
N378 N379 1.354 . S
N379 C375 1.336 . S
N379 N378 1.354 . S
N379 Zn383 2.020 . S
C380 O381 1.244 . S
C380 O404 1.257 . S
O381 C380 1.244 . S
O382 Zn374 2.019 . S
O382 C402 1.257 1_655 S
Zn383 N379 2.020 . S
Zn383 O390 1.975 . S
Zn383 N399 2.119 . S
Zn383 O404 2.019 . S
N384 Zn374 2.119 . S
N384 C386 1.334 . S
N384 C387 1.328 . S
C385 C386 1.391 . S
C385 N388 1.329 . S
C385 H406 0.930 . S
C386 N384 1.334 . S
C386 C385 1.391 . S
C386 H393 0.930 . S
C387 N384 1.328 . S
C387 C389 1.392 . S
C387 H394 0.930 . S
N388 C385 1.329 . S
N388 C389 1.331 . S
C389 C387 1.392 . S
C389 N388 1.331 . S
O390 Zn383 1.975 . S
O390 C391 1.252 . S
C391 O390 1.252 . S
C391 O392 1.252 . S
O392 Zn374 1.975 . S
O392 C391 1.252 . S
H393 C386 0.930 . S
H394 C387 0.930 . S
C395 C396 1.392 . S
C395 N399 1.328 . S
C395 H401 0.930 . S
C396 C395 1.392 . S
C396 N400 1.331 . S
C397 C398 1.391 . S
C397 N400 1.329 . S
C397 H407 0.930 . S
C398 C397 1.391 . S
C398 N399 1.334 . S
C398 H405 0.930 . S
N399 Zn383 2.119 . S
N399 C395 1.328 . S
N399 C398 1.334 . S
N400 C396 1.331 . S
N400 C397 1.329 . S
H401 C395 0.930 . S
C402 O382 1.257 1_455 S
C402 O403 1.244 . S
O403 C402 1.244 . S
O404 C380 1.257 . S
O404 Zn383 2.019 . S
H405 C398 0.930 . S
H406 C385 0.930 . S
H407 C397 0.930 . S
Zn408 N412 2.020 . S
Zn408 O416 2.019 . S
Zn408 N418 2.119 . S
Zn408 O426 1.975 . S
C409 N410 1.334 1_545 S
C409 N413 1.336 . S
N410 C409 1.334 1_565 S
N410 C411 1.334 . S
C411 N410 1.334 . S
C411 N412 1.336 1_565 S
N412 Zn408 2.020 . S
N412 C411 1.336 1_545 S
N412 N413 1.354 . S
N413 C409 1.336 . S
N413 N412 1.354 . S
N413 Zn417 2.020 . S
C414 O415 1.244 . S
C414 O438 1.257 . S
O415 C414 1.244 . S
O416 Zn408 2.019 . S
O416 C436 1.257 1_545 S
Zn417 N413 2.020 . S
Zn417 O424 1.975 . S
Zn417 N433 2.119 . S
Zn417 O438 2.019 . S
N418 Zn408 2.119 . S
N418 C420 1.334 . S
N418 C421 1.328 . S
C419 C420 1.391 . S
C419 N422 1.329 . S
C419 H440 0.930 . S
C420 N418 1.334 . S
C420 C419 1.391 . S
C420 H427 0.930 . S
C421 N418 1.328 . S
C421 C423 1.392 . S
C421 H428 0.930 . S
N422 C419 1.329 . S
N422 C423 1.331 . S
C423 C421 1.392 . S
C423 N422 1.331 . S
O424 Zn417 1.975 . S
O424 C425 1.252 . S
C425 O424 1.252 . S
C425 O426 1.252 . S
O426 Zn408 1.975 . S
O426 C425 1.252 . S
H427 C420 0.930 . S
H428 C421 0.930 . S
C429 C430 1.392 . S
C429 N433 1.328 . S
C429 H435 0.930 . S
C430 C429 1.392 . S
C430 N434 1.331 . S
C431 C432 1.391 . S
C431 N434 1.329 . S
C431 H441 0.930 . S
C432 C431 1.391 . S
C432 N433 1.334 . S
C432 H439 0.930 . S
N433 Zn417 2.119 . S
N433 C429 1.328 . S
N433 C432 1.334 . S
N434 C430 1.331 . S
N434 C431 1.329 . S
H435 C429 0.930 . S
C436 O416 1.257 1_565 S
C436 O437 1.244 . S
O437 C436 1.244 . S
O438 C414 1.257 . S
O438 Zn417 2.019 . S
H439 C432 0.930 . S
H440 C419 0.930 . S
H441 C431 0.930 . S
Zn442 N446 2.020 . S
Zn442 O450 2.019 . S
Zn442 N452 2.119 . S
Zn442 O460 1.975 . S
C443 N444 1.334 . S
C443 N447 1.336 . S
N444 C443 1.334 . S
N444 C445 1.334 . S
C445 N444 1.334 . S
C445 N446 1.336 . S
N446 Zn442 2.020 . S
N446 C445 1.336 . S
N446 N447 1.354 . S
N447 C443 1.336 . S
N447 N446 1.354 . S
N447 Zn451 2.020 . S
C448 O449 1.244 . S
C448 O472 1.257 . S
O449 C448 1.244 . S
O450 Zn442 2.019 . S
O450 C470 1.257 . S
Zn451 N447 2.020 . S
Zn451 O458 1.975 . S
Zn451 N467 2.119 . S
Zn451 O472 2.019 . S
N452 Zn442 2.119 . S
N452 C454 1.334 . S
N452 C455 1.328 . S
C453 C454 1.391 . S
C453 N456 1.329 . S
C453 H474 0.930 . S
C454 N452 1.334 . S
C454 C453 1.391 . S
C454 H461 0.930 . S
C455 N452 1.328 . S
C455 C457 1.392 . S
C455 H462 0.930 . S
N456 C453 1.329 . S
N456 C457 1.331 . S
C457 C455 1.392 . S
C457 N456 1.331 . S
O458 Zn451 1.975 . S
O458 C459 1.252 . S
C459 O458 1.252 . S
C459 O460 1.252 . S
O460 Zn442 1.975 . S
O460 C459 1.252 . S
H461 C454 0.930 . S
H462 C455 0.930 . S
C463 C464 1.392 . S
C463 N467 1.328 . S
C463 H469 0.930 . S
C464 C463 1.392 . S
C464 N468 1.331 . S
C465 C466 1.391 . S
C465 N468 1.329 . S
C465 H475 0.930 . S
C466 C465 1.391 . S
C466 N467 1.334 . S
C466 H473 0.930 . S
N467 Zn451 2.119 . S
N467 C463 1.328 . S
N467 C466 1.334 . S
N468 C464 1.331 . S
N468 C465 1.329 . S
H469 C463 0.930 . S
C470 O450 1.257 . S
C470 O471 1.244 . S
O471 C470 1.244 . S
O472 C448 1.257 . S
O472 Zn451 2.019 . S
H473 C466 0.930 . S
H474 C453 0.930 . S
H475 C465 0.930 . S
Zn476 N480 2.020 . S
Zn476 O484 2.019 . S
Zn476 N486 2.119 . S
Zn476 O494 1.975 . S
C477 N478 1.334 . S
C477 N481 1.336 . S
N478 C477 1.334 . S
N478 C479 1.334 . S
C479 N478 1.334 . S
C479 N480 1.336 . S
N480 Zn476 2.020 . S
N480 C479 1.336 . S
N480 N481 1.354 . S
N481 C477 1.336 . S
N481 N480 1.354 . S
N481 Zn485 2.020 . S
C482 O483 1.244 . S
C482 O506 1.257 . S
O483 C482 1.244 . S
O484 Zn476 2.019 . S
O484 C504 1.257 . S
Zn485 N481 2.020 . S
Zn485 O492 1.975 . S
Zn485 N501 2.119 . S
Zn485 O506 2.019 . S
N486 Zn476 2.119 . S
N486 C488 1.334 . S
N486 C489 1.328 . S
C487 C488 1.391 . S
C487 N490 1.329 . S
C487 H508 0.930 . S
C488 N486 1.334 . S
C488 C487 1.391 . S
C488 H495 0.930 . S
C489 N486 1.328 . S
C489 C491 1.392 . S
C489 H496 0.930 . S
N490 C487 1.329 . S
N490 C491 1.331 . S
C491 C489 1.392 . S
C491 N490 1.331 . S
O492 Zn485 1.975 . S
O492 C493 1.252 . S
C493 O492 1.252 . S
C493 O494 1.252 . S
O494 Zn476 1.975 . S
O494 C493 1.252 . S
H495 C488 0.930 . S
H496 C489 0.930 . S
C497 C498 1.392 . S
C497 N501 1.328 . S
C497 H503 0.930 . S
C498 C497 1.392 . S
C498 N502 1.331 . S
C499 C500 1.391 . S
C499 N502 1.329 . S
C499 H509 0.930 . S
C500 C499 1.391 . S
C500 N501 1.334 . S
C500 H507 0.930 . S
N501 Zn485 2.119 . S
N501 C497 1.328 . S
N501 C500 1.334 . S
N502 C498 1.331 . S
N502 C499 1.329 . S
H503 C497 0.930 . S
C504 O484 1.257 . S
C504 O505 1.244 . S
O505 C504 1.244 . S
O506 C482 1.257 . S
O506 Zn485 2.019 . S
H507 C500 0.930 . S
H508 C487 0.930 . S
H509 C499 0.930 . S
Zn510 N514 2.020 . S
Zn510 O518 2.019 . S
Zn510 N520 2.119 . S
Zn510 O528 1.975 . S
C511 N512 1.334 1_455 S
C511 N515 1.336 . S
N512 C511 1.334 1_655 S
N512 C513 1.334 . S
C513 N512 1.334 . S
C513 N514 1.336 1_655 S
N514 Zn510 2.020 . S
N514 C513 1.336 1_455 S
N514 N515 1.354 . S
N515 C511 1.336 . S
N515 N514 1.354 . S
N515 Zn519 2.020 . S
C516 O517 1.244 . S
C516 O540 1.257 . S
O517 C516 1.244 . S
O518 Zn510 2.019 . S
O518 C538 1.257 1_455 S
Zn519 N515 2.020 . S
Zn519 O526 1.975 . S
Zn519 N535 2.119 . S
Zn519 O540 2.019 . S
N520 Zn510 2.119 . S
N520 C522 1.334 . S
N520 C523 1.328 . S
C521 C522 1.391 . S
C521 N524 1.329 . S
C521 H542 0.930 . S
C522 N520 1.334 . S
C522 C521 1.391 . S
C522 H529 0.930 . S
C523 N520 1.328 . S
C523 C525 1.392 . S
C523 H530 0.930 . S
N524 C521 1.329 . S
N524 C525 1.331 . S
C525 C523 1.392 . S
C525 N524 1.331 . S
O526 Zn519 1.975 . S
O526 C527 1.252 . S
C527 O526 1.252 . S
C527 O528 1.252 . S
O528 Zn510 1.975 . S
O528 C527 1.252 . S
H529 C522 0.930 . S
H530 C523 0.930 . S
C531 C532 1.392 . S
C531 N535 1.328 . S
C531 H537 0.930 . S
C532 C531 1.392 . S
C532 N536 1.331 . S
C533 C534 1.391 . S
C533 N536 1.329 . S
C533 H543 0.930 . S
C534 C533 1.391 . S
C534 N535 1.334 . S
C534 H541 0.930 . S
N535 Zn519 2.119 . S
N535 C531 1.328 . S
N535 C534 1.334 . S
N536 C532 1.331 . S
N536 C533 1.329 . S
H537 C531 0.930 . S
C538 O518 1.257 1_655 S
C538 O539 1.244 . S
O539 C538 1.244 . S
O540 C516 1.257 . S
O540 Zn519 2.019 . S
H541 C534 0.930 . S
H542 C521 0.930 . S
H543 C533 0.930 . S
H544 C552 0.950 . S
H545 C557 0.950 . S
H546 C554 0.950 1_545 S
H547 C556 0.950 1_554 S
H548 C558 0.950 . S
H549 C560 0.950 1_565 S
H550 C562 0.950 1_556 S
H551 C563 0.950 . S
C552 H544 0.950 . S
C552 C553 1.386 . S
C552 C554 1.391 . S
C553 C552 1.386 . S
C553 C557 1.393 . S
C554 H546 0.950 1_565 S
C554 C552 1.391 . S
C554 C555 1.400 . S
C555 C554 1.400 . S
C555 C556 1.398 . S
C555 C561 1.491 1_566 S
C556 H547 0.950 1_556 S
C556 C555 1.398 . S
C556 C557 1.391 . S
C557 H545 0.950 . S
C557 C553 1.393 . S
C557 C556 1.391 . S
C558 H548 0.950 . S
C558 C559 1.386 . S
C558 C560 1.391 . S
C559 C558 1.386 . S
C559 C563 1.393 . S
C560 H549 0.950 1_545 S
C560 C558 1.391 . S
C560 C561 1.400 . S
C561 C555 1.491 1_544 S
C561 C560 1.400 . S
C561 C562 1.398 . S
C562 H550 0.950 1_554 S
C562 C561 1.398 . S
C562 C563 1.391 . S
C563 H551 0.950 . S
C563 C559 1.393 . S
C563 C562 1.391 . S
H564 C572 0.950 . S
H565 C577 0.950 . S
H566 C574 0.950 . S
H567 C576 0.950 . S
H568 C578 0.950 . S
H569 C580 0.950 . S
H570 C582 0.950 . S
H571 C583 0.950 . S
C572 H564 0.950 . S
C572 C573 1.386 . S
C572 C574 1.391 . S
C573 C572 1.386 . S
C573 C577 1.393 . S
C574 H566 0.950 . S
C574 C572 1.391 . S
C574 C575 1.400 . S
C575 C574 1.400 . S
C575 C576 1.398 . S
C575 C581 1.491 1_554 S
C576 H567 0.950 . S
C576 C575 1.398 . S
C576 C577 1.391 . S
C577 H565 0.950 . S
C577 C573 1.393 . S
C577 C576 1.391 . S
C578 H568 0.950 . S
C578 C579 1.386 . S
C578 C580 1.391 . S
C579 C578 1.386 . S
C579 C583 1.393 . S
C580 H569 0.950 . S
C580 C578 1.391 . S
C580 C581 1.400 . S
C581 C575 1.491 1_556 S
C581 C580 1.400 . S
C581 C582 1.398 . S
C582 H570 0.950 . S
C582 C581 1.398 . S
C582 C583 1.391 . S
C583 H571 0.950 . S
C583 C579 1.393 . S
C583 C582 1.391 . S
H584 C592 0.950 . S
H585 C597 0.950 . S
H586 C594 0.950 . S
H587 C596 0.950 . S
H588 C598 0.950 . S
H589 C600 0.950 . S
H590 C602 0.950 . S
H591 C603 0.950 . S
C592 H584 0.950 . S
C592 C593 1.386 . S
C592 C594 1.391 . S
C593 C592 1.386 . S
C593 C597 1.393 . S
C594 H586 0.950 . S
C594 C592 1.391 . S
C594 C595 1.400 . S
C595 C594 1.400 . S
C595 C596 1.398 . S
C595 C601 1.491 1_456 S
C596 H587 0.950 . S
C596 C595 1.398 . S
C596 C597 1.391 . S
C597 H585 0.950 . S
C597 C593 1.393 . S
C597 C596 1.391 . S
C598 H588 0.950 . S
C598 C599 1.386 . S
C598 C600 1.391 . S
C599 C598 1.386 . S
C599 C603 1.393 . S
C600 H589 0.950 . S
C600 C598 1.391 . S
C600 C601 1.400 . S
C601 C595 1.491 1_654 S
C601 C600 1.400 . S
C601 C602 1.398 . S
C602 H590 0.950 . S
C602 C601 1.398 . S
C602 C603 1.391 . S
C603 H591 0.950 . S
C603 C599 1.393 . S
C603 C602 1.391 . S
H604 C612 0.950 . S
H605 C617 0.950 . S
H606 C614 0.931 1_545 S
H607 C616 0.978 . S
H608 C618 0.950 . S
H609 C620 0.931 1_565 S
H610 C622 0.978 . S
H611 C623 0.950 . S
C612 H604 0.950 . S
C612 C613 1.386 . S
C612 C614 1.404 . S
C613 C612 1.386 . S
C613 C617 1.393 1_455 S
C614 H606 0.931 1_565 S
C614 C612 1.404 . S
C614 C615 1.407 . S
C615 C614 1.407 . S
C615 C616 1.398 1_455 S
C615 C621 1.491 1_464 S
C616 H607 0.978 . S
C616 C615 1.398 1_655 S
C616 C617 1.391 . S
C617 H605 0.950 . S
C617 C613 1.393 1_655 S
C617 C616 1.391 . S
C618 H608 0.950 . S
C618 C619 1.386 . S
C618 C620 1.404 . S
C619 C618 1.386 . S
C619 C623 1.393 1_655 S
C620 H609 0.931 1_545 S
C620 C618 1.404 . S
C620 C621 1.407 . S
C621 C615 1.491 1_646 S
C621 C620 1.407 . S
C621 C622 1.398 1_655 S
C622 H610 0.978 . S
C622 C621 1.398 1_455 S
C622 C623 1.391 . S
C623 H611 0.950 . S
C623 C619 1.393 1_455 S
C623 C622 1.391 . S
H624 C632 0.950 . S
H625 C637 0.950 . S
H626 C634 0.950 . S
H627 C636 0.950 1_655 S
H628 C638 0.950 . S
H629 C640 0.950 . S
H630 C642 0.950 1_455 S
H631 C643 0.950 . S
C632 H624 0.950 . S
C632 C633 1.386 1_545 S
C632 C634 1.391 . S
C633 C632 1.386 1_565 S
C633 C637 1.393 . S
C634 H626 0.950 . S
C634 C632 1.391 . S
C634 C635 1.400 1_545 S
C635 C634 1.400 1_565 S
C635 C636 1.398 . S
C635 C641 1.491 1_465 S
C636 H627 0.950 1_455 S
C636 C635 1.398 . S
C636 C637 1.391 . S
C637 H625 0.950 . S
C637 C633 1.393 . S
C637 C636 1.391 . S
C638 H628 0.950 . S
C638 C639 1.386 1_565 S
C638 C640 1.391 . S
C639 C638 1.386 1_545 S
C639 C643 1.393 . S
C640 H629 0.950 . S
C640 C638 1.391 . S
C640 C641 1.400 1_565 S
C641 C635 1.491 1_645 S
C641 C640 1.400 1_545 S
C641 C642 1.398 . S
C642 H630 0.950 1_655 S
C642 C641 1.398 . S
C642 C643 1.391 . S
C643 H631 0.950 . S
C643 C639 1.393 . S
C643 C642 1.391 . S
H644 C652 0.950 . S
H645 C657 0.950 . S
H646 C654 0.950 1_565 S
H647 C656 0.950 . S
H648 C658 0.950 . S
H649 C660 0.950 1_545 S
H650 C662 0.950 . S
H651 C663 0.950 . S
C652 H644 0.950 . S
C652 C653 1.386 . S
C652 C654 1.391 . S
C653 C652 1.386 . S
C653 C657 1.393 . S
C654 H646 0.950 1_545 S
C654 C652 1.391 . S
C654 C655 1.400 . S
C655 C654 1.400 . S
C655 C656 1.398 . S
C655 C661 1.491 1_545 S
C656 H647 0.950 . S
C656 C655 1.398 . S
C656 C657 1.391 . S
C657 H645 0.950 . S
C657 C653 1.393 . S
C657 C656 1.391 . S
C658 H648 0.950 . S
C658 C659 1.386 . S
C658 C660 1.391 . S
C659 C658 1.386 . S
C659 C663 1.393 . S
C660 H649 0.950 1_565 S
C660 C658 1.391 . S
C660 C661 1.400 . S
C661 C655 1.491 1_565 S
C661 C660 1.400 . S
C661 C662 1.398 . S
C662 H650 0.950 . S
C662 C661 1.398 . S
C662 C663 1.391 . S
C663 H651 0.950 . S
C663 C659 1.393 . S
C663 C662 1.391 . S
H664 C672 0.950 . S
H665 C677 0.950 . S
H666 C674 0.950 . S
H667 C676 0.950 . S
H668 C678 0.950 . S
H669 C680 0.950 . S
H670 C682 0.950 . S
H671 C683 0.950 . S
C672 H664 0.950 . S
C672 C673 1.386 . S
C672 C674 1.391 . S
C673 C672 1.386 . S
C673 C677 1.393 . S
C674 H666 0.950 . S
C674 C672 1.391 . S
C674 C675 1.400 . S
C675 C674 1.400 . S
C675 C676 1.398 . S
C675 C681 1.491 . S
C676 H667 0.950 . S
C676 C675 1.398 . S
C676 C677 1.391 . S
C677 H665 0.950 . S
C677 C673 1.393 . S
C677 C676 1.391 . S
C678 H668 0.950 . S
C678 C679 1.386 . S
C678 C680 1.391 . S
C679 C678 1.386 . S
C679 C683 1.393 . S
C680 H669 0.950 . S
C680 C678 1.391 . S
C680 C681 1.400 . S
C681 C675 1.491 . S
C681 C680 1.400 . S
C681 C682 1.398 . S
C682 H670 0.950 . S
C682 C681 1.398 . S
C682 C683 1.391 . S
C683 H671 0.950 . S
C683 C679 1.393 . S
C683 C682 1.391 . S
H684 C692 0.950 . S
H685 C697 0.950 . S
H686 C694 0.950 . S
H687 C696 0.950 . S
H688 C698 0.950 . S
H689 C700 0.950 . S
H690 C702 0.950 . S
H691 C703 0.950 . S
C692 H684 0.950 . S
C692 C693 1.386 . S
C692 C694 1.391 . S
C693 C692 1.386 . S
C693 C697 1.393 1_455 S
C694 H686 0.950 . S
C694 C692 1.391 . S
C694 C695 1.400 . S
C695 C694 1.400 . S
C695 C696 1.398 1_455 S
C695 C701 1.491 1_455 S
C696 H687 0.950 . S
C696 C695 1.398 1_655 S
C696 C697 1.391 . S
C697 H685 0.950 . S
C697 C693 1.393 1_655 S
C697 C696 1.391 . S
C698 H688 0.950 . S
C698 C699 1.386 . S
C698 C700 1.391 . S
C699 C698 1.386 . S
C699 C703 1.393 1_655 S
C700 H689 0.950 . S
C700 C698 1.391 . S
C700 C701 1.400 . S
C701 C695 1.491 1_655 S
C701 C700 1.400 . S
C701 C702 1.398 1_655 S
C702 H690 0.950 . S
C702 C701 1.398 1_455 S
C702 C703 1.391 . S
C703 H691 0.950 . S
C703 C699 1.393 1_455 S
C703 C702 1.391 . S
H704 C712 0.950 . S
H705 C717 0.950 . S
H706 C714 0.950 . S
H707 C716 0.950 . S
H708 C718 0.950 . S
H709 C720 0.950 . S
H710 C722 0.950 . S
H711 C723 0.950 . S
C712 H704 0.950 . S
C712 C713 1.386 . S
C712 C714 1.391 . S
C713 C712 1.386 . S
C713 C717 1.393 . S
C714 H706 0.950 . S
C714 C712 1.391 . S
C714 C715 1.400 . S
C715 C714 1.400 . S
C715 C716 1.398 . S
C715 C721 1.491 . S
C716 H707 0.950 . S
C716 C715 1.398 . S
C716 C717 1.391 . S
C717 H705 0.950 . S
C717 C713 1.393 . S
C717 C716 1.391 . S
C718 H708 0.950 . S
C718 C719 1.386 . S
C718 C720 1.391 . S
C719 C718 1.386 . S
C719 C723 1.393 . S
C720 H709 0.950 . S
C720 C718 1.391 . S
C720 C721 1.400 . S
C721 C715 1.491 . S
C721 C720 1.400 . S
C721 C722 1.398 . S
C722 H710 0.950 . S
C722 C721 1.398 . S
C722 C723 1.391 . S
C723 H711 0.950 . S
C723 C719 1.393 . S
C723 C722 1.391 . S
H724 C732 0.950 . S
H725 C737 0.950 . S
H726 C734 0.950 . S
H727 C736 0.950 . S
H728 C738 0.950 . S
H729 C740 0.950 . S
H730 C742 0.950 . S
H731 C743 0.950 . S
C732 H724 0.950 . S
C732 C733 1.386 . S
C732 C734 1.391 . S
C733 C732 1.386 . S
C733 C737 1.393 . S
C734 H726 0.950 . S
C734 C732 1.391 . S
C734 C735 1.400 . S
C735 C734 1.400 . S
C735 C736 1.398 . S
C735 C741 1.491 . S
C736 H727 0.950 . S
C736 C735 1.398 . S
C736 C737 1.391 . S
C737 H725 0.950 . S
C737 C733 1.393 . S
C737 C736 1.391 . S
C738 H728 0.950 . S
C738 C739 1.386 . S
C738 C740 1.391 . S
C739 C738 1.386 . S
C739 C743 1.393 . S
C740 H729 0.950 . S
C740 C738 1.391 . S
C740 C741 1.400 . S
C741 C735 1.491 . S
C741 C740 1.400 . S
C741 C742 1.398 . S
C742 H730 0.950 . S
C742 C741 1.398 . S
C742 C743 1.391 . S
C743 H731 0.950 . S
C743 C739 1.393 . S
C743 C742 1.391 . S
H744 C752 0.950 . S
H745 C757 0.950 . S
H746 C754 0.950 . S
H747 C756 0.950 . S
H748 C758 0.950 . S
H749 C760 0.950 . S
H750 C762 0.950 . S
H751 C763 0.950 . S
C752 H744 0.950 . S
C752 C753 1.386 . S
C752 C754 1.391 . S
C753 C752 1.386 . S
C753 C757 1.393 . S
C754 H746 0.950 . S
C754 C752 1.391 . S
C754 C755 1.400 . S
C755 C754 1.400 . S
C755 C756 1.398 . S
C755 C761 1.491 . S
C756 H747 0.950 . S
C756 C755 1.398 . S
C756 C757 1.391 . S
C757 H745 0.950 . S
C757 C753 1.393 . S
C757 C756 1.391 . S
C758 H748 0.950 . S
C758 C759 1.386 . S
C758 C760 1.391 . S
C759 C758 1.386 . S
C759 C763 1.393 . S
C760 H749 0.950 . S
C760 C758 1.391 . S
C760 C761 1.400 . S
C761 C755 1.491 . S
C761 C760 1.400 . S
C761 C762 1.398 . S
C762 H750 0.950 . S
C762 C761 1.398 . S
C762 C763 1.391 . S
C763 H751 0.950 . S
C763 C759 1.393 . S
C763 C762 1.391 . S
H764 C772 0.950 . S
H765 C777 0.950 1_545 S
H766 C774 0.950 . S
H767 C776 0.950 . S
H768 C778 0.950 . S
H769 C780 0.950 . S
H770 C782 0.950 . S
H771 C783 0.950 . S
C772 H764 0.950 . S
C772 C773 1.386 . S
C772 C774 1.391 . S
C773 C772 1.386 . S
C773 C777 1.393 . S
C774 H766 0.950 . S
C774 C772 1.391 . S
C774 C775 1.400 . S
C775 C774 1.400 . S
C775 C776 1.398 . S
C775 C781 1.491 . S
C776 H767 0.950 . S
C776 C775 1.398 . S
C776 C777 1.391 . S
C777 H765 0.950 1_565 S
C777 C773 1.393 . S
C777 C776 1.391 . S
C778 H768 0.950 . S
C778 C779 1.386 . S
C778 C780 1.391 . S
C779 C778 1.386 . S
C779 C783 1.393 . S
C780 H769 0.950 . S
C780 C778 1.391 . S
C780 C781 1.400 . S
C781 C775 1.491 . S
C781 C780 1.400 . S
C781 C782 1.398 . S
C782 H770 0.950 . S
C782 C781 1.398 . S
C782 C783 1.391 . S
C783 H771 0.950 . S
C783 C779 1.393 . S
C783 C782 1.391 . S
H784 C792 0.950 1_655 S
H785 C797 0.950 . S
H786 C794 0.950 . S
H787 C796 0.950 . S
H788 C798 0.950 . S
H789 C800 0.950 . S
H790 C802 0.950 . S
H791 C803 0.950 . S
C792 H784 0.950 1_455 S
C792 C793 1.386 . S
C792 C794 1.391 . S
C793 C792 1.386 . S
C793 C797 1.393 . S
C794 H786 0.950 . S
C794 C792 1.391 . S
C794 C795 1.400 . S
C795 C794 1.400 . S
C795 C796 1.398 . S
C795 C801 1.491 . S
C796 H787 0.950 . S
C796 C795 1.398 . S
C796 C797 1.391 . S
C797 H785 0.950 . S
C797 C793 1.393 . S
C797 C796 1.391 . S
C798 H788 0.950 . S
C798 C799 1.386 . S
C798 C800 1.391 . S
C799 C798 1.386 . S
C799 C803 1.393 . S
C800 H789 0.950 . S
C800 C798 1.391 . S
C800 C801 1.400 . S
C801 C795 1.491 . S
C801 C800 1.400 . S
C801 C802 1.398 . S
C802 H790 0.950 . S
C802 C801 1.398 . S
C802 C803 1.391 . S
C803 H791 0.950 . S
C803 C799 1.393 . S
C803 C802 1.391 . S
H804 C812 0.950 . S
H805 C817 0.950 . S
H806 C814 0.950 . S
H807 C816 0.950 . S
H808 C818 0.950 . S
H809 C820 0.950 . S
H810 C822 0.950 . S
H811 C823 0.950 . S
C812 H804 0.950 . S
C812 C813 1.386 . S
C812 C814 1.391 . S
C813 C812 1.386 . S
C813 C817 1.393 . S
C814 H806 0.950 . S
C814 C812 1.391 . S
C814 C815 1.400 . S
C815 C814 1.400 . S
C815 C816 1.398 . S
C815 C821 1.491 . S
C816 H807 0.950 . S
C816 C815 1.398 . S
C816 C817 1.391 . S
C817 H805 0.950 . S
C817 C813 1.393 . S
C817 C816 1.391 . S
C818 H808 0.950 . S
C818 C819 1.386 . S
C818 C820 1.391 . S
C819 C818 1.386 . S
C819 C823 1.393 . S
C820 H809 0.950 . S
C820 C818 1.391 . S
C820 C821 1.400 . S
C821 C815 1.491 . S
C821 C820 1.400 . S
C821 C822 1.398 . S
C822 H810 0.950 . S
C822 C821 1.398 . S
C822 C823 1.391 . S
C823 H811 0.950 . S
C823 C819 1.393 . S
C823 C822 1.391 . S
H824 C832 0.950 . S
H825 C837 0.950 . S
H826 C834 0.950 . S
H827 C836 0.950 . S
H828 C838 0.950 . S
H829 C840 0.950 . S
H830 C842 0.950 . S
H831 C843 0.950 . S
C832 H824 0.950 . S
C832 C833 1.386 . S
C832 C834 1.391 . S
C833 C832 1.386 . S
C833 C837 1.393 . S
C834 H826 0.950 . S
C834 C832 1.391 . S
C834 C835 1.400 . S
C835 C834 1.400 . S
C835 C836 1.398 . S
C835 C841 1.491 . S
C836 H827 0.950 . S
C836 C835 1.398 . S
C836 C837 1.391 . S
C837 H825 0.950 . S
C837 C833 1.393 . S
C837 C836 1.391 . S
C838 H828 0.950 . S
C838 C839 1.386 . S
C838 C840 1.391 . S
C839 C838 1.386 . S
C839 C843 1.393 . S
C840 H829 0.950 . S
C840 C838 1.391 . S
C840 C841 1.400 . S
C841 C835 1.491 . S
C841 C840 1.400 . S
C841 C842 1.398 . S
C842 H830 0.950 . S
C842 C841 1.398 . S
C842 C843 1.391 . S
C843 H831 0.950 . S
C843 C839 1.393 . S
C843 C842 1.391 . S
H844 C852 0.950 . S
H845 C857 0.950 . S
H846 C854 0.950 . S
H847 C856 0.950 . S
H848 C858 0.950 . S
H849 C860 0.950 . S
H850 C862 0.950 . S
H851 C863 0.950 . S
C852 H844 0.950 . S
C852 C853 1.386 . S
C852 C854 1.391 . S
C853 C852 1.386 . S
C853 C857 1.393 . S
C854 H846 0.950 . S
C854 C852 1.391 . S
C854 C855 1.400 . S
C855 C854 1.400 . S
C855 C856 1.398 . S
C855 C861 1.491 . S
C856 H847 0.950 . S
C856 C855 1.398 . S
C856 C857 1.391 . S
C857 H845 0.950 . S
C857 C853 1.393 . S
C857 C856 1.391 . S
C858 H848 0.950 . S
C858 C859 1.386 . S
C858 C860 1.391 . S
C859 C858 1.386 . S
C859 C863 1.393 . S
C860 H849 0.950 . S
C860 C858 1.391 . S
C860 C861 1.400 . S
C861 C855 1.491 . S
C861 C860 1.400 . S
C861 C862 1.398 . S
C862 H850 0.950 . S
C862 C861 1.398 . S
C862 C863 1.391 . S
C863 H851 0.950 . S
C863 C859 1.393 . S
C863 C862 1.391 . S
H864 C872 0.950 . S
H865 C877 0.950 . S
H866 C874 0.950 . S
H867 C876 0.950 . S
H868 C878 0.950 . S
H869 C880 0.950 . S
H870 C882 0.950 . S
H871 C883 0.950 . S
C872 H864 0.950 . S
C872 C873 1.386 . S
C872 C874 1.391 . S
C873 C872 1.386 . S
C873 C877 1.393 . S
C874 H866 0.950 . S
C874 C872 1.391 . S
C874 C875 1.400 . S
C875 C874 1.400 . S
C875 C876 1.398 . S
C875 C881 1.491 . S
C876 H867 0.950 . S
C876 C875 1.398 . S
C876 C877 1.391 . S
C877 H865 0.950 . S
C877 C873 1.393 . S
C877 C876 1.391 . S
C878 H868 0.950 . S
C878 C879 1.386 . S
C878 C880 1.391 . S
C879 C878 1.386 . S
C879 C883 1.393 . S
C880 H869 0.950 . S
C880 C878 1.391 . S
C880 C881 1.400 . S
C881 C875 1.491 . S
C881 C880 1.400 . S
C881 C882 1.398 . S
C882 H870 0.950 . S
C882 C881 1.398 . S
C882 C883 1.391 . S
C883 H871 0.950 . S
C883 C879 1.393 . S
C883 C882 1.391 . S
H884 C892 0.950 . S
H885 C897 0.950 . S
H886 C894 0.950 . S
H887 C896 0.950 . S
H888 C898 0.950 . S
H889 C900 0.950 . S
H890 C902 0.950 . S
H891 C903 0.950 . S
C892 H884 0.950 . S
C892 C893 1.386 . S
C892 C894 1.391 . S
C893 C892 1.386 . S
C893 C897 1.393 . S
C894 H886 0.950 . S
C894 C892 1.391 . S
C894 C895 1.400 . S
C895 C894 1.400 . S
C895 C896 1.398 . S
C895 C901 1.491 . S
C896 H887 0.950 . S
C896 C895 1.398 . S
C896 C897 1.391 . S
C897 H885 0.950 . S
C897 C893 1.393 . S
C897 C896 1.391 . S
C898 H888 0.950 . S
C898 C899 1.386 . S
C898 C900 1.391 . S
C899 C898 1.386 . S
C899 C903 1.393 . S
C900 H889 0.950 . S
C900 C898 1.391 . S
C900 C901 1.400 . S
C901 C895 1.491 . S
C901 C900 1.400 . S
C901 C902 1.398 . S
C902 H890 0.950 . S
C902 C901 1.398 . S
C902 C903 1.391 . S
C903 H891 0.950 . S
C903 C899 1.393 . S
C903 C902 1.391 . S
H904 C912 0.950 1_655 S
H905 C917 0.950 . S
H906 C914 0.950 . S
H907 C916 0.950 . S
H908 C918 0.950 . S
H909 C920 0.950 . S
H910 C922 0.950 . S
H911 C923 0.950 . S
C912 H904 0.950 1_455 S
C912 C913 1.386 . S
C912 C914 1.391 . S
C913 C912 1.386 . S
C913 C917 1.393 . S
C914 H906 0.950 . S
C914 C912 1.391 . S
C914 C915 1.400 . S
C915 C914 1.400 . S
C915 C916 1.398 . S
C915 C921 1.491 . S
C916 H907 0.950 . S
C916 C915 1.398 . S
C916 C917 1.391 . S
C917 H905 0.950 . S
C917 C913 1.393 . S
C917 C916 1.391 . S
C918 H908 0.950 . S
C918 C919 1.386 . S
C918 C920 1.391 . S
C919 C918 1.386 . S
C919 C923 1.393 . S
C920 H909 0.950 . S
C920 C918 1.391 . S
C920 C921 1.400 . S
C921 C915 1.491 . S
C921 C920 1.400 . S
C921 C922 1.398 . S
C922 H910 0.950 . S
C922 C921 1.398 . S
C922 C923 1.391 . S
C923 H911 0.950 . S
C923 C919 1.393 . S
C923 C922 1.391 . S
H924 C932 0.950 . S
H925 C937 0.950 1_565 S
H926 C934 0.950 . S
H927 C936 0.950 . S
H928 C938 0.950 . S
H929 C940 0.950 . S
H930 C942 0.950 . S
H931 C943 0.950 . S
C932 H924 0.950 . S
C932 C933 1.386 . S
C932 C934 1.391 . S
C933 C932 1.386 . S
C933 C937 1.393 . S
C934 H926 0.950 . S
C934 C932 1.391 . S
C934 C935 1.400 . S
C935 C934 1.400 . S
C935 C936 1.398 . S
C935 C941 1.491 . S
C936 H927 0.950 . S
C936 C935 1.398 . S
C936 C937 1.391 . S
C937 H925 0.950 1_545 S
C937 C933 1.393 . S
C937 C936 1.391 . S
C938 H928 0.950 . S
C938 C939 1.386 . S
C938 C940 1.391 . S
C939 C938 1.386 . S
C939 C943 1.393 . S
C940 H929 0.950 . S
C940 C938 1.391 . S
C940 C941 1.400 . S
C941 C935 1.491 . S
C941 C940 1.400 . S
C941 C942 1.398 . S
C942 H930 0.950 . S
C942 C941 1.398 . S
C942 C943 1.391 . S
C943 H931 0.950 . S
C943 C939 1.393 . S
C943 C942 1.391 . S
H944 C952 0.950 . S
H945 C957 0.950 1_455 S
H946 C954 0.950 . S
H947 C956 0.950 . S
H948 C958 0.950 . S
H949 C960 0.950 . S
H950 C962 0.950 . S
H951 C963 0.950 . S
C952 H944 0.950 . S
C952 C953 1.386 . S
C952 C954 1.391 . S
C953 C952 1.386 . S
C953 C957 1.393 . S
C954 H946 0.950 . S
C954 C952 1.391 . S
C954 C955 1.400 . S
C955 C954 1.400 . S
C955 C956 1.398 . S
C955 C961 1.491 . S
C956 H947 0.950 . S
C956 C955 1.398 . S
C956 C957 1.391 . S
C957 H945 0.950 1_655 S
C957 C953 1.393 . S
C957 C956 1.391 . S
C958 H948 0.950 . S
C958 C959 1.386 . S
C958 C960 1.391 . S
C959 C958 1.386 . S
C959 C963 1.393 . S
C960 H949 0.950 . S
C960 C958 1.391 . S
C960 C961 1.400 . S
C961 C955 1.491 . S
C961 C960 1.400 . S
C961 C962 1.398 . S
C962 H950 0.950 . S
C962 C961 1.398 . S
C962 C963 1.391 . S
C963 H951 0.950 . S
C963 C959 1.393 . S
C963 C962 1.391 . S
H964 C972 0.950 . S
H965 C977 0.950 . S
H966 C974 0.950 . S
H967 C976 0.950 . S
H968 C978 0.950 . S
H969 C980 0.950 . S
H970 C982 0.950 . S
H971 C983 0.950 . S
C972 H964 0.950 . S
C972 C973 1.386 . S
C972 C974 1.391 . S
C973 C972 1.386 . S
C973 C977 1.393 . S
C974 H966 0.950 . S
C974 C972 1.391 . S
C974 C975 1.400 . S
C975 C974 1.400 . S
C975 C976 1.398 . S
C975 C981 1.491 . S
C976 H967 0.950 . S
C976 C975 1.398 . S
C976 C977 1.391 . S
C977 H965 0.950 . S
C977 C973 1.393 . S
C977 C976 1.391 . S
C978 H968 0.950 . S
C978 C979 1.386 . S
C978 C980 1.391 . S
C979 C978 1.386 . S
C979 C983 1.393 . S
C980 H969 0.950 . S
C980 C978 1.391 . S
C980 C981 1.400 . S
C981 C975 1.491 . S
C981 C980 1.400 . S
C981 C982 1.398 . S
C982 H970 0.950 . S
C982 C981 1.398 . S
C982 C983 1.391 . S
C983 H971 0.950 . S
C983 C979 1.393 . S
C983 C982 1.391 . S
H984 C992 0.950 . S
H985 C997 0.950 . S
H986 C994 0.950 . S
H987 C996 0.950 . S
H988 C998 0.950 . S
H989 C1000 0.950 . S
H990 C1002 0.950 . S
H991 C1003 0.950 . S
C992 H984 0.950 . S
C992 C993 1.386 . S
C992 C994 1.391 . S
C993 C992 1.386 . S
C993 C997 1.393 . S
C994 H986 0.950 . S
C994 C992 1.391 . S
C994 C995 1.400 . S
C995 C994 1.400 . S
C995 C996 1.398 . S
C995 C1001 1.491 . S
C996 H987 0.950 . S
C996 C995 1.398 . S
C996 C997 1.391 . S
C997 H985 0.950 . S
C997 C993 1.393 . S
C997 C996 1.391 . S
C998 H988 0.950 . S
C998 C999 1.386 . S
C998 C1000 1.391 . S
C999 C998 1.386 . S
C999 C1003 1.393 . S
C1000 H989 0.950 . S
C1000 C998 1.391 . S
C1000 C1001 1.400 . S
C1001 C995 1.491 . S
C1001 C1000 1.400 . S
C1001 C1002 1.398 . S
C1002 H990 0.950 . S
C1002 C1001 1.398 . S
C1002 C1003 1.391 . S
C1003 H991 0.950 . S
C1003 C999 1.393 . S
C1003 C1002 1.391 . S
H1004 C1012 0.950 . S
H1005 C1017 0.950 . S
H1006 C1014 0.950 . S
H1007 C1016 0.950 . S
H1008 C1018 0.950 . S
H1009 C1020 0.950 . S
H1010 C1022 0.950 . S
H1011 C1023 0.950 . S
C1012 H1004 0.950 . S
C1012 C1013 1.386 . S
C1012 C1014 1.391 . S
C1013 C1012 1.386 . S
C1013 C1017 1.393 . S
C1014 H1006 0.950 . S
C1014 C1012 1.391 . S
C1014 C1015 1.400 . S
C1015 C1014 1.400 . S
C1015 C1016 1.398 . S
C1015 C1021 1.491 . S
C1016 H1007 0.950 . S
C1016 C1015 1.398 . S
C1016 C1017 1.391 . S
C1017 H1005 0.950 . S
C1017 C1013 1.393 . S
C1017 C1016 1.391 . S
C1018 H1008 0.950 . S
C1018 C1019 1.386 . S
C1018 C1020 1.391 . S
C1019 C1018 1.386 . S
C1019 C1023 1.393 . S
C1020 H1009 0.950 . S
C1020 C1018 1.391 . S
C1020 C1021 1.400 . S
C1021 C1015 1.491 . S
C1021 C1020 1.400 . S
C1021 C1022 1.398 . S
C1022 H1010 0.950 . S
C1022 C1021 1.398 . S
C1022 C1023 1.391 . S
C1023 H1011 0.950 . S
C1023 C1019 1.393 . S
C1023 C1022 1.391 . S
H1024 C1032 0.950 . S
H1025 C1037 0.950 . S
H1026 C1034 0.950 . S
H1027 C1036 0.950 . S
H1028 C1038 0.950 . S
H1029 C1040 0.950 . S
H1030 C1042 0.950 . S
H1031 C1043 0.950 . S
C1032 H1024 0.950 . S
C1032 C1033 1.386 . S
C1032 C1034 1.391 1_556 S
C1033 C1032 1.386 . S
C1033 C1037 1.393 . S
C1034 H1026 0.950 . S
C1034 C1032 1.391 1_554 S
C1034 C1035 1.400 . S
C1035 C1034 1.400 . S
C1035 C1036 1.398 . S
C1035 C1041 1.491 . S
C1036 H1027 0.950 . S
C1036 C1035 1.398 . S
C1036 C1037 1.391 1_554 S
C1037 H1025 0.950 . S
C1037 C1033 1.393 . S
C1037 C1036 1.391 1_556 S
C1038 H1028 0.950 . S
C1038 C1039 1.386 . S
C1038 C1040 1.391 . S
C1039 C1038 1.386 . S
C1039 C1043 1.393 . S
C1040 H1029 0.950 . S
C1040 C1038 1.391 . S
C1040 C1041 1.400 . S
C1041 C1035 1.491 . S
C1041 C1040 1.400 . S
C1041 C1042 1.398 . S
C1042 H1030 0.950 . S
C1042 C1041 1.398 . S
C1042 C1043 1.391 . S
C1043 H1031 0.950 . S
C1043 C1039 1.393 . S
C1043 C1042 1.391 . S
H1044 C1052 0.950 . S
H1045 C1057 0.950 . S
H1046 C1054 0.950 . S
H1047 C1056 0.950 . S
H1048 C1058 0.950 . S
H1049 C1060 0.950 . S
H1050 C1062 0.950 . S
H1051 C1063 0.950 . S
C1052 H1044 0.950 . S
C1052 C1053 1.386 . S
C1052 C1054 1.391 . S
C1053 C1052 1.386 . S
C1053 C1057 1.393 . S
C1054 H1046 0.950 . S
C1054 C1052 1.391 . S
C1054 C1055 1.400 1_556 S
C1055 C1054 1.400 1_554 S
C1055 C1056 1.398 . S
C1055 C1061 1.491 . S
C1056 H1047 0.950 . S
C1056 C1055 1.398 . S
C1056 C1057 1.391 1_554 S
C1057 H1045 0.950 . S
C1057 C1053 1.393 . S
C1057 C1056 1.391 1_556 S
C1058 H1048 0.950 . S
C1058 C1059 1.386 . S
C1058 C1060 1.391 . S
C1059 C1058 1.386 . S
C1059 C1063 1.393 . S
C1060 H1049 0.950 . S
C1060 C1058 1.391 . S
C1060 C1061 1.400 . S
C1061 C1055 1.491 . S
C1061 C1060 1.400 . S
C1061 C1062 1.398 . S
C1062 H1050 0.950 . S
C1062 C1061 1.398 . S
C1062 C1063 1.391 . S
C1063 H1051 0.950 . S
C1063 C1059 1.393 . S
C1063 C1062 1.391 . S
H1064 C1072 0.950 . S
H1065 C1077 0.950 . S
H1066 C1074 0.950 . S
H1067 C1076 0.950 . S
H1068 C1078 0.950 . S
H1069 C1080 0.950 . S
H1070 C1082 0.950 . S
H1071 C1083 0.950 . S
C1072 H1064 0.950 . S
C1072 C1073 1.386 . S
C1072 C1074 1.391 1_556 S
C1073 C1072 1.386 . S
C1073 C1077 1.393 . S
C1074 H1066 0.950 . S
C1074 C1072 1.391 1_554 S
C1074 C1075 1.400 . S
C1075 C1074 1.400 . S
C1075 C1076 1.398 . S
C1075 C1081 1.491 . S
C1076 H1067 0.950 . S
C1076 C1075 1.398 . S
C1076 C1077 1.391 1_554 S
C1077 H1065 0.950 . S
C1077 C1073 1.393 . S
C1077 C1076 1.391 1_556 S
C1078 H1068 0.950 . S
C1078 C1079 1.386 . S
C1078 C1080 1.391 . S
C1079 C1078 1.386 . S
C1079 C1083 1.393 . S
C1080 H1069 0.950 . S
C1080 C1078 1.391 . S
C1080 C1081 1.400 . S
C1081 C1075 1.491 . S
C1081 C1080 1.400 . S
C1081 C1082 1.398 . S
C1082 H1070 0.950 . S
C1082 C1081 1.398 . S
C1082 C1083 1.391 . S
C1083 H1071 0.950 . S
C1083 C1079 1.393 . S
C1083 C1082 1.391 . S
H1084 C1092 0.950 . S
H1085 C1097 0.950 . S
H1086 C1094 0.945 1_554 S
H1087 C1096 0.950 . S
H1088 C1098 0.950 . S
H1089 C1100 0.950 . S
H1090 C1102 0.950 . S
H1091 C1103 0.950 . S
C1092 H1084 0.950 . S
C1092 C1093 1.386 . S
C1092 C1094 1.414 . S
C1093 C1092 1.386 . S
C1093 C1097 1.393 . S
C1094 H1086 0.945 1_556 S
C1094 C1092 1.414 . S
C1094 C1095 1.382 1_556 S
C1095 C1094 1.382 1_554 S
C1095 C1096 1.398 . S
C1095 C1101 1.491 . S
C1096 H1087 0.950 . S
C1096 C1095 1.398 . S
C1096 C1097 1.391 1_554 S
C1097 H1085 0.950 . S
C1097 C1093 1.393 . S
C1097 C1096 1.391 1_556 S
C1098 H1088 0.950 . S
C1098 C1099 1.386 . S
C1098 C1100 1.391 . S
C1099 C1098 1.386 . S
C1099 C1103 1.393 . S
C1100 H1089 0.950 . S
C1100 C1098 1.391 . S
C1100 C1101 1.400 . S
C1101 C1095 1.491 . S
C1101 C1100 1.400 . S
C1101 C1102 1.398 . S
C1102 H1090 0.950 . S
C1102 C1101 1.398 . S
C1102 C1103 1.391 . S
C1103 H1091 0.950 . S
C1103 C1099 1.393 . S
C1103 C1102 1.391 . S
H1104 C1112 0.950 . S
H1105 C1117 0.950 . S
H1106 C1114 0.950 . S
H1107 C1116 0.950 . S
H1108 C1118 0.950 . S
H1109 C1120 0.950 . S
H1110 C1122 0.950 . S
H1111 C1123 0.950 . S
C1112 H1104 0.950 . S
C1112 C1113 1.386 . S
C1112 C1114 1.391 . S
C1113 C1112 1.386 . S
C1113 C1117 1.393 . S
C1114 H1106 0.950 . S
C1114 C1112 1.391 . S
C1114 C1115 1.400 . S
C1115 C1114 1.400 . S
C1115 C1116 1.398 . S
C1115 C1121 1.491 . S
C1116 H1107 0.950 . S
C1116 C1115 1.398 . S
C1116 C1117 1.391 . S
C1117 H1105 0.950 . S
C1117 C1113 1.393 . S
C1117 C1116 1.391 . S
C1118 H1108 0.950 . S
C1118 C1119 1.386 . S
C1118 C1120 1.391 . S
C1119 C1118 1.386 . S
C1119 C1123 1.393 . S
C1120 H1109 0.950 . S
C1120 C1118 1.391 . S
C1120 C1121 1.400 . S
C1121 C1115 1.491 . S
C1121 C1120 1.400 . S
C1121 C1122 1.398 . S
C1122 H1110 0.950 . S
C1122 C1121 1.398 . S
C1122 C1123 1.391 . S
C1123 H1111 0.950 . S
C1123 C1119 1.393 . S
C1123 C1122 1.391 . S
H1124 C1132 0.950 . S
H1125 C1137 0.950 . S
H1126 C1134 0.950 . S
H1127 C1136 0.950 . S
H1128 C1138 0.950 . S
H1129 C1140 0.950 . S
H1130 C1142 0.950 . S
H1131 C1143 0.950 . S
C1132 H1124 0.950 . S
C1132 C1133 1.386 . S
C1132 C1134 1.391 . S
C1133 C1132 1.386 . S
C1133 C1137 1.393 . S
C1134 H1126 0.950 . S
C1134 C1132 1.391 . S
C1134 C1135 1.400 . S
C1135 C1134 1.400 . S
C1135 C1136 1.398 . S
C1135 C1141 1.491 . S
C1136 H1127 0.950 . S
C1136 C1135 1.398 . S
C1136 C1137 1.391 . S
C1137 H1125 0.950 . S
C1137 C1133 1.393 . S
C1137 C1136 1.391 . S
C1138 H1128 0.950 . S
C1138 C1139 1.386 . S
C1138 C1140 1.391 . S
C1139 C1138 1.386 . S
C1139 C1143 1.393 . S
C1140 H1129 0.950 . S
C1140 C1138 1.391 . S
C1140 C1141 1.400 . S
C1141 C1135 1.491 . S
C1141 C1140 1.400 . S
C1141 C1142 1.398 . S
C1142 H1130 0.950 . S
C1142 C1141 1.398 . S
C1142 C1143 1.391 . S
C1143 H1131 0.950 . S
C1143 C1139 1.393 . S
C1143 C1142 1.391 . S
H1144 C1152 0.950 . S
H1145 C1157 0.950 . S
H1146 C1154 0.950 . S
H1147 C1156 0.950 . S
H1148 C1158 0.950 . S
H1149 C1160 0.950 . S
H1150 C1162 0.950 . S
H1151 C1163 0.950 . S
C1152 H1144 0.950 . S
C1152 C1153 1.386 . S
C1152 C1154 1.391 . S
C1153 C1152 1.386 . S
C1153 C1157 1.393 . S
C1154 H1146 0.950 . S
C1154 C1152 1.391 . S
C1154 C1155 1.400 . S
C1155 C1154 1.400 . S
C1155 C1156 1.398 . S
C1155 C1161 1.491 . S
C1156 H1147 0.950 . S
C1156 C1155 1.398 . S
C1156 C1157 1.391 . S
C1157 H1145 0.950 . S
C1157 C1153 1.393 . S
C1157 C1156 1.391 . S
C1158 H1148 0.950 . S
C1158 C1159 1.386 . S
C1158 C1160 1.391 . S
C1159 C1158 1.386 . S
C1159 C1163 1.393 . S
C1160 H1149 0.950 . S
C1160 C1158 1.391 . S
C1160 C1161 1.400 . S
C1161 C1155 1.491 . S
C1161 C1160 1.400 . S
C1161 C1162 1.398 . S
C1162 H1150 0.950 . S
C1162 C1161 1.398 . S
C1162 C1163 1.391 . S
C1163 H1151 0.950 . S
C1163 C1159 1.393 . S
C1163 C1162 1.391 . S
H1164 C1172 0.950 . S
H1165 C1177 0.950 . S
H1166 C1174 0.950 . S
H1167 C1176 0.950 . S
H1168 C1178 0.950 . S
H1169 C1180 0.950 . S
H1170 C1182 0.950 . S
H1171 C1183 0.950 . S
C1172 H1164 0.950 . S
C1172 C1173 1.386 . S
C1172 C1174 1.391 . S
C1173 C1172 1.386 . S
C1173 C1177 1.393 . S
C1174 H1166 0.950 . S
C1174 C1172 1.391 . S
C1174 C1175 1.400 . S
C1175 C1174 1.400 . S
C1175 C1176 1.398 . S
C1175 C1181 1.491 . S
C1176 H1167 0.950 . S
C1176 C1175 1.398 . S
C1176 C1177 1.391 . S
C1177 H1165 0.950 . S
C1177 C1173 1.393 . S
C1177 C1176 1.391 . S
C1178 H1168 0.950 . S
C1178 C1179 1.386 . S
C1178 C1180 1.391 . S
C1179 C1178 1.386 . S
C1179 C1183 1.393 . S
C1180 H1169 0.950 . S
C1180 C1178 1.391 . S
C1180 C1181 1.400 . S
C1181 C1175 1.491 . S
C1181 C1180 1.400 . S
C1181 C1182 1.398 . S
C1182 H1170 0.950 . S
C1182 C1181 1.398 . S
C1182 C1183 1.391 . S
C1183 H1171 0.950 . S
C1183 C1179 1.393 . S
C1183 C1182 1.391 . S
H1184 C1192 0.950 . S
H1185 C1197 0.950 . S
H1186 C1194 0.950 . S
H1187 C1196 0.950 . S
H1188 C1198 0.950 . S
H1189 C1200 0.950 . S
H1190 C1202 0.950 . S
H1191 C1203 0.952 . S
C1192 H1184 0.950 . S
C1192 C1193 1.386 . S
C1192 C1194 1.391 . S
C1193 C1192 1.386 . S
C1193 C1197 1.393 . S
C1194 H1186 0.950 . S
C1194 C1192 1.391 . S
C1194 C1195 1.400 . S
C1195 C1194 1.400 . S
C1195 C1196 1.398 . S
C1195 C1201 1.491 . S
C1196 H1187 0.950 . S
C1196 C1195 1.398 . S
C1196 C1197 1.391 . S
C1197 H1185 0.950 . S
C1197 C1193 1.393 . S
C1197 C1196 1.391 . S
C1198 H1188 0.950 . S
C1198 C1199 1.386 . S
C1198 C1200 1.391 . S
C1199 C1198 1.386 . S
C1199 C1203 1.393 . S
C1200 H1189 0.950 . S
C1200 C1198 1.391 . S
C1200 C1201 1.400 1_554 S
C1201 C1195 1.491 . S
C1201 C1200 1.400 1_556 S
C1201 C1202 1.398 . S
C1202 H1190 0.950 . S
C1202 C1201 1.398 . S
C1202 C1203 1.391 1_556 S
C1203 H1191 0.952 . S
C1203 C1199 1.393 . S
C1203 C1202 1.391 1_554 S
H1204 C1212 0.950 . S
H1205 C1217 0.950 . S
H1206 C1214 0.950 . S
H1207 C1216 0.950 . S
H1208 C1218 0.950 . S
H1209 C1220 0.950 . S
H1210 C1222 0.950 . S
H1211 C1223 0.950 . S
C1212 H1204 0.950 . S
C1212 C1213 1.386 . S
C1212 C1214 1.391 . S
C1213 C1212 1.386 . S
C1213 C1217 1.393 . S
C1214 H1206 0.950 . S
C1214 C1212 1.391 . S
C1214 C1215 1.400 . S
C1215 C1214 1.400 . S
C1215 C1216 1.398 . S
C1215 C1221 1.491 . S
C1216 H1207 0.950 . S
C1216 C1215 1.398 . S
C1216 C1217 1.391 . S
C1217 H1205 0.950 . S
C1217 C1213 1.393 . S
C1217 C1216 1.391 . S
C1218 H1208 0.950 . S
C1218 C1219 1.386 . S
C1218 C1220 1.391 1_554 S
C1219 C1218 1.386 . S
C1219 C1223 1.393 . S
C1220 H1209 0.950 . S
C1220 C1218 1.391 1_556 S
C1220 C1221 1.400 . S
C1221 C1215 1.491 . S
C1221 C1220 1.400 . S
C1221 C1222 1.398 1_556 S
C1222 H1210 0.950 . S
C1222 C1221 1.398 1_554 S
C1222 C1223 1.391 . S
C1223 H1211 0.950 . S
C1223 C1219 1.393 . S
C1223 C1222 1.391 . S
H1224 C1232 0.950 . S
H1225 C1237 0.950 . S
H1226 C1234 0.950 . S
H1227 C1236 0.950 . S
H1228 C1238 0.950 . S
H1229 C1240 0.950 . S
H1230 C1242 0.950 . S
H1231 C1243 0.946 1_556 S
C1232 H1224 0.950 . S
C1232 C1233 1.386 . S
C1232 C1234 1.391 . S
C1233 C1232 1.386 . S
C1233 C1237 1.393 . S
C1234 H1226 0.950 . S
C1234 C1232 1.391 . S
C1234 C1235 1.400 . S
C1235 C1234 1.400 . S
C1235 C1236 1.398 . S
C1235 C1241 1.491 . S
C1236 H1227 0.950 . S
C1236 C1235 1.398 . S
C1236 C1237 1.391 . S
C1237 H1225 0.950 . S
C1237 C1233 1.393 . S
C1237 C1236 1.391 . S
C1238 H1228 0.950 . S
C1238 C1239 1.386 . S
C1238 C1240 1.391 . S
C1239 C1238 1.386 . S
C1239 C1243 1.393 . S
C1240 H1229 0.950 . S
C1240 C1238 1.391 . S
C1240 C1241 1.400 1_554 S
C1241 C1235 1.491 . S
C1241 C1240 1.400 1_556 S
C1241 C1242 1.398 . S
C1242 H1230 0.950 . S
C1242 C1241 1.398 . S
C1242 C1243 1.391 1_556 S
C1243 H1231 0.946 1_554 S
C1243 C1239 1.393 . S
C1243 C1242 1.391 1_554 S
H1244 C1252 0.950 . S
H1245 C1257 0.950 . S
H1246 C1254 0.950 . S
H1247 C1256 0.950 . S
H1248 C1258 0.950 . S
H1249 C1260 0.950 . S
H1250 C1262 0.950 . S
H1251 C1263 0.950 . S
C1252 H1244 0.950 . S
C1252 C1253 1.386 . S
C1252 C1254 1.391 1_554 S
C1253 C1252 1.386 . S
C1253 C1257 1.393 . S
C1254 H1246 0.950 . S
C1254 C1252 1.391 1_556 S
C1254 C1255 1.400 . S
C1255 C1254 1.400 . S
C1255 C1256 1.398 . S
C1255 C1261 1.491 . S
C1256 H1247 0.950 . S
C1256 C1255 1.398 . S
C1256 C1257 1.391 1_556 S
C1257 H1245 0.950 . S
C1257 C1253 1.393 . S
C1257 C1256 1.391 1_554 S
C1258 H1248 0.950 . S
C1258 C1259 1.386 . S
C1258 C1260 1.391 . S
C1259 C1258 1.386 . S
C1259 C1263 1.393 . S
C1260 H1249 0.950 . S
C1260 C1258 1.391 . S
C1260 C1261 1.400 . S
C1261 C1255 1.491 . S
C1261 C1260 1.400 . S
C1261 C1262 1.398 . S
C1262 H1250 0.950 . S
C1262 C1261 1.398 . S
C1262 C1263 1.391 . S
C1263 H1251 0.950 . S
C1263 C1259 1.393 . S
C1263 C1262 1.391 . S
H1264 C1272 0.950 . S
H1265 C1277 0.950 . S
H1266 C1274 0.950 . S
H1267 C1276 0.950 . S
H1268 C1278 0.950 . S
H1269 C1280 0.950 . S
H1270 C1282 0.950 . S
H1271 C1283 0.950 . S
C1272 H1264 0.950 . S
C1272 C1273 1.386 . S
C1272 C1274 1.391 . S
C1273 C1272 1.386 . S
C1273 C1277 1.393 . S
C1274 H1266 0.950 . S
C1274 C1272 1.391 . S
C1274 C1275 1.400 . S
C1275 C1274 1.400 . S
C1275 C1276 1.398 . S
C1275 C1281 1.491 . S
C1276 H1267 0.950 . S
C1276 C1275 1.398 . S
C1276 C1277 1.391 . S
C1277 H1265 0.950 . S
C1277 C1273 1.393 . S
C1277 C1276 1.391 . S
C1278 H1268 0.950 . S
C1278 C1279 1.386 . S
C1278 C1280 1.391 . S
C1279 C1278 1.386 . S
C1279 C1283 1.393 . S
C1280 H1269 0.950 . S
C1280 C1278 1.391 . S
C1280 C1281 1.400 . S
C1281 C1275 1.491 . S
C1281 C1280 1.400 . S
C1281 C1282 1.398 . S
C1282 H1270 0.950 . S
C1282 C1281 1.398 . S
C1282 C1283 1.391 . S
C1283 H1271 0.950 . S
C1283 C1279 1.393 . S
C1283 C1282 1.391 . S
H1284 C1292 0.950 . S
H1285 C1297 0.950 . S
H1286 C1294 0.950 . S
H1287 C1296 0.950 . S
H1288 C1298 0.950 . S
H1289 C1300 0.950 . S
H1290 C1302 0.950 . S
H1291 C1303 0.950 . S
C1292 H1284 0.950 . S
C1292 C1293 1.386 . S
C1292 C1294 1.391 . S
C1293 C1292 1.386 . S
C1293 C1297 1.393 . S
C1294 H1286 0.950 . S
C1294 C1292 1.391 . S
C1294 C1295 1.400 . S
C1295 C1294 1.400 . S
C1295 C1296 1.398 . S
C1295 C1301 1.491 . S
C1296 H1287 0.950 . S
C1296 C1295 1.398 . S
C1296 C1297 1.391 . S
C1297 H1285 0.950 . S
C1297 C1293 1.393 . S
C1297 C1296 1.391 . S
C1298 H1288 0.950 . S
C1298 C1299 1.386 . S
C1298 C1300 1.391 . S
C1299 C1298 1.386 . S
C1299 C1303 1.393 . S
C1300 H1289 0.950 . S
C1300 C1298 1.391 . S
C1300 C1301 1.400 . S
C1301 C1295 1.491 . S
C1301 C1300 1.400 . S
C1301 C1302 1.398 . S
C1302 H1290 0.950 . S
C1302 C1301 1.398 . S
C1302 C1303 1.391 . S
C1303 H1291 0.950 . S
C1303 C1299 1.393 . S
C1303 C1302 1.391 . S
H1304 C1312 0.950 . S
H1305 C1317 0.950 . S
H1306 C1314 0.950 . S
H1307 C1316 0.950 . S
H1308 C1318 0.950 . S
H1309 C1320 0.950 . S
H1310 C1322 0.950 . S
H1311 C1323 0.950 . S
C1312 H1304 0.950 . S
C1312 C1313 1.386 . S
C1312 C1314 1.391 . S
C1313 C1312 1.386 . S
C1313 C1317 1.393 . S
C1314 H1306 0.950 . S
C1314 C1312 1.391 . S
C1314 C1315 1.400 . S
C1315 C1314 1.400 . S
C1315 C1316 1.398 . S
C1315 C1321 1.491 . S
C1316 H1307 0.950 . S
C1316 C1315 1.398 . S
C1316 C1317 1.391 . S
C1317 H1305 0.950 . S
C1317 C1313 1.393 . S
C1317 C1316 1.391 . S
C1318 H1308 0.950 . S
C1318 C1319 1.386 . S
C1318 C1320 1.391 . S
C1319 C1318 1.386 . S
C1319 C1323 1.393 . S
C1320 H1309 0.950 . S
C1320 C1318 1.391 . S
C1320 C1321 1.400 . S
C1321 C1315 1.491 . S
C1321 C1320 1.400 . S
C1321 C1322 1.398 . S
C1322 H1310 0.950 . S
C1322 C1321 1.398 . S
C1322 C1323 1.391 . S
C1323 H1311 0.950 . S
C1323 C1319 1.393 . S
C1323 C1322 1.391 . S
H1324 C1332 0.950 . S
H1325 C1337 0.950 . S
H1326 C1334 0.950 . S
H1327 C1336 0.950 . S
H1328 C1338 0.950 . S
H1329 C1340 0.950 . S
H1330 C1342 0.950 . S
H1331 C1343 0.950 . S
C1332 H1324 0.950 . S
C1332 C1333 1.386 . S
C1332 C1334 1.391 . S
C1333 C1332 1.386 . S
C1333 C1337 1.393 . S
C1334 H1326 0.950 . S
C1334 C1332 1.391 . S
C1334 C1335 1.400 . S
C1335 C1334 1.400 . S
C1335 C1336 1.398 . S
C1335 C1341 1.491 . S
C1336 H1327 0.950 . S
C1336 C1335 1.398 . S
C1336 C1337 1.391 . S
C1337 H1325 0.950 . S
C1337 C1333 1.393 . S
C1337 C1336 1.391 . S
C1338 H1328 0.950 . S
C1338 C1339 1.386 . S
C1338 C1340 1.391 . S
C1339 C1338 1.386 . S
C1339 C1343 1.393 . S
C1340 H1329 0.950 . S
C1340 C1338 1.391 . S
C1340 C1341 1.400 . S
C1341 C1335 1.491 . S
C1341 C1340 1.400 . S
C1341 C1342 1.398 . S
C1342 H1330 0.950 . S
C1342 C1341 1.398 . S
C1342 C1343 1.391 . S
C1343 H1331 0.950 . S
C1343 C1339 1.393 . S
C1343 C1342 1.391 . S
H1344 C1352 0.950 . S
H1345 C1357 0.950 . S
H1346 C1354 0.950 . S
H1347 C1356 0.950 . S
H1348 C1358 0.950 . S
H1349 C1360 0.950 . S
H1350 C1362 0.950 . S
H1351 C1363 0.950 . S
C1352 H1344 0.950 . S
C1352 C1353 1.386 . S
C1352 C1354 1.391 . S
C1353 C1352 1.386 . S
C1353 C1357 1.393 . S
C1354 H1346 0.950 . S
C1354 C1352 1.391 . S
C1354 C1355 1.400 . S
C1355 C1354 1.400 . S
C1355 C1356 1.398 . S
C1355 C1361 1.491 . S
C1356 H1347 0.950 . S
C1356 C1355 1.398 . S
C1356 C1357 1.391 . S
C1357 H1345 0.950 . S
C1357 C1353 1.393 . S
C1357 C1356 1.391 . S
C1358 H1348 0.950 . S
C1358 C1359 1.386 . S
C1358 C1360 1.391 . S
C1359 C1358 1.386 . S
C1359 C1363 1.393 . S
C1360 H1349 0.950 . S
C1360 C1358 1.391 . S
C1360 C1361 1.400 . S
C1361 C1355 1.491 . S
C1361 C1360 1.400 . S
C1361 C1362 1.398 . S
C1362 H1350 0.950 . S
C1362 C1361 1.398 . S
C1362 C1363 1.391 . S
C1363 H1351 0.950 . S
C1363 C1359 1.393 . S
C1363 C1362 1.391 . S
H1364 C1372 0.950 . S
H1365 C1377 0.950 . S
H1366 C1374 0.950 . S
H1367 C1376 0.950 . S
H1368 C1378 0.950 . S
H1369 C1380 0.950 . S
H1370 C1382 0.950 . S
H1371 C1383 0.950 . S
C1372 H1364 0.950 . S
C1372 C1373 1.386 . S
C1372 C1374 1.391 . S
C1373 C1372 1.386 . S
C1373 C1377 1.393 . S
C1374 H1366 0.950 . S
C1374 C1372 1.391 . S
C1374 C1375 1.400 . S
C1375 C1374 1.400 . S
C1375 C1376 1.398 . S
C1375 C1381 1.491 . S
C1376 H1367 0.950 . S
C1376 C1375 1.398 . S
C1376 C1377 1.391 . S
C1377 H1365 0.950 . S
C1377 C1373 1.393 . S
C1377 C1376 1.391 . S
C1378 H1368 0.950 . S
C1378 C1379 1.386 . S
C1378 C1380 1.391 . S
C1379 C1378 1.386 . S
C1379 C1383 1.393 . S
C1380 H1369 0.950 . S
C1380 C1378 1.391 . S
C1380 C1381 1.400 . S
C1381 C1375 1.491 . S
C1381 C1380 1.400 . S
C1381 C1382 1.398 . S
C1382 H1370 0.950 . S
C1382 C1381 1.398 . S
C1382 C1383 1.391 . S
C1383 H1371 0.950 . S
C1383 C1379 1.393 . S
C1383 C1382 1.391 . S
H1384 C1392 0.950 . S
H1385 C1397 0.950 . S
H1386 C1394 0.950 . S
H1387 C1396 0.950 . S
H1388 C1398 0.950 . S
H1389 C1400 0.950 . S
H1390 C1402 0.950 . S
H1391 C1403 0.950 . S
C1392 H1384 0.950 . S
C1392 C1393 1.386 . S
C1392 C1394 1.391 . S
C1393 C1392 1.386 . S
C1393 C1397 1.393 . S
C1394 H1386 0.950 . S
C1394 C1392 1.391 . S
C1394 C1395 1.400 . S
C1395 C1394 1.400 . S
C1395 C1396 1.398 . S
C1395 C1401 1.491 . S
C1396 H1387 0.950 . S
C1396 C1395 1.398 . S
C1396 C1397 1.391 . S
C1397 H1385 0.950 . S
C1397 C1393 1.393 . S
C1397 C1396 1.391 . S
C1398 H1388 0.950 . S
C1398 C1399 1.386 . S
C1398 C1400 1.391 . S
C1399 C1398 1.386 . S
C1399 C1403 1.393 . S
C1400 H1389 0.950 . S
C1400 C1398 1.391 . S
C1400 C1401 1.400 . S
C1401 C1395 1.491 . S
C1401 C1400 1.400 . S
C1401 C1402 1.398 . S
C1402 H1390 0.950 . S
C1402 C1401 1.398 . S
C1402 C1403 1.391 . S
C1403 H1391 0.950 . S
C1403 C1399 1.393 . S
C1403 C1402 1.391 . S
H1404 C1412 0.950 . S
H1405 C1417 0.950 . S
H1406 C1414 0.950 . S
H1407 C1416 0.950 . S
H1408 C1418 0.950 . S
H1409 C1420 0.950 . S
H1410 C1422 0.950 . S
H1411 C1423 0.950 . S
C1412 H1404 0.950 . S
C1412 C1413 1.386 . S
C1412 C1414 1.391 . S
C1413 C1412 1.386 . S
C1413 C1417 1.393 . S
C1414 H1406 0.950 . S
C1414 C1412 1.391 . S
C1414 C1415 1.400 . S
C1415 C1414 1.400 . S
C1415 C1416 1.398 . S
C1415 C1421 1.491 . S
C1416 H1407 0.950 . S
C1416 C1415 1.398 . S
C1416 C1417 1.391 . S
C1417 H1405 0.950 . S
C1417 C1413 1.393 . S
C1417 C1416 1.391 . S
C1418 H1408 0.950 . S
C1418 C1419 1.386 . S
C1418 C1420 1.391 . S
C1419 C1418 1.386 . S
C1419 C1423 1.393 . S
C1420 H1409 0.950 . S
C1420 C1418 1.391 . S
C1420 C1421 1.400 . S
C1421 C1415 1.491 . S
C1421 C1420 1.400 . S
C1421 C1422 1.398 . S
C1422 H1410 0.950 . S
C1422 C1421 1.398 . S
C1422 C1423 1.391 . S
C1423 H1411 0.950 . S
C1423 C1419 1.393 . S
C1423 C1422 1.391 . S
H1424 C1432 0.950 . S
H1425 C1437 0.950 . S
H1426 C1434 0.950 . S
H1427 C1436 0.950 . S
H1428 C1438 0.950 . S
H1429 C1440 0.950 . S
H1430 C1442 0.950 . S
H1431 C1443 0.950 . S
C1432 H1424 0.950 . S
C1432 C1433 1.386 . S
C1432 C1434 1.391 . S
C1433 C1432 1.386 . S
C1433 C1437 1.393 . S
C1434 H1426 0.950 . S
C1434 C1432 1.391 . S
C1434 C1435 1.400 . S
C1435 C1434 1.400 . S
C1435 C1436 1.398 . S
C1435 C1441 1.491 . S
C1436 H1427 0.950 . S
C1436 C1435 1.398 . S
C1436 C1437 1.391 . S
C1437 H1425 0.950 . S
C1437 C1433 1.393 . S
C1437 C1436 1.391 . S
C1438 H1428 0.950 . S
C1438 C1439 1.386 . S
C1438 C1440 1.391 . S
C1439 C1438 1.386 . S
C1439 C1443 1.393 . S
C1440 H1429 0.950 . S
C1440 C1438 1.391 . S
C1440 C1441 1.400 . S
C1441 C1435 1.491 . S
C1441 C1440 1.400 . S
C1441 C1442 1.398 . S
C1442 H1430 0.950 . S
C1442 C1441 1.398 . S
C1442 C1443 1.391 . S
C1443 H1431 0.950 . S
C1443 C1439 1.393 . S
C1443 C1442 1.391 . S
H1444 C1452 0.950 . S
H1445 C1457 0.950 . S
H1446 C1454 0.950 . S
H1447 C1456 0.950 . S
H1448 C1458 0.950 . S
H1449 C1460 0.950 . S
H1450 C1462 0.950 . S
H1451 C1463 0.950 . S
C1452 H1444 0.950 . S
C1452 C1453 1.386 . S
C1452 C1454 1.391 . S
C1453 C1452 1.386 . S
C1453 C1457 1.393 . S
C1454 H1446 0.950 . S
C1454 C1452 1.391 . S
C1454 C1455 1.400 . S
C1455 C1454 1.400 . S
C1455 C1456 1.398 . S
C1455 C1461 1.491 . S
C1456 H1447 0.950 . S
C1456 C1455 1.398 . S
C1456 C1457 1.391 . S
C1457 H1445 0.950 . S
C1457 C1453 1.393 . S
C1457 C1456 1.391 . S
C1458 H1448 0.950 . S
C1458 C1459 1.386 . S
C1458 C1460 1.391 . S
C1459 C1458 1.386 . S
C1459 C1463 1.393 . S
C1460 H1449 0.950 . S
C1460 C1458 1.391 . S
C1460 C1461 1.400 . S
C1461 C1455 1.491 . S
C1461 C1460 1.400 . S
C1461 C1462 1.398 . S
C1462 H1450 0.950 . S
C1462 C1461 1.398 . S
C1462 C1463 1.391 . S
C1463 H1451 0.950 . S
C1463 C1459 1.393 . S
C1463 C1462 1.391 . S
H1464 C1472 0.950 . S
H1465 C1477 0.950 . S
H1466 C1474 0.950 . S
H1467 C1476 0.950 . S
H1468 C1478 0.950 . S
H1469 C1480 0.950 . S
H1470 C1482 0.950 . S
H1471 C1483 0.950 . S
C1472 H1464 0.950 . S
C1472 C1473 1.386 . S
C1472 C1474 1.391 . S
C1473 C1472 1.386 . S
C1473 C1477 1.393 . S
C1474 H1466 0.950 . S
C1474 C1472 1.391 . S
C1474 C1475 1.400 . S
C1475 C1474 1.400 . S
C1475 C1476 1.398 . S
C1475 C1481 1.491 . S
C1476 H1467 0.950 . S
C1476 C1475 1.398 . S
C1476 C1477 1.391 . S
C1477 H1465 0.950 . S
C1477 C1473 1.393 . S
C1477 C1476 1.391 . S
C1478 H1468 0.950 . S
C1478 C1479 1.386 . S
C1478 C1480 1.391 . S
C1479 C1478 1.386 . S
C1479 C1483 1.393 . S
C1480 H1469 0.950 . S
C1480 C1478 1.391 . S
C1480 C1481 1.400 . S
C1481 C1475 1.491 . S
C1481 C1480 1.400 . S
C1481 C1482 1.398 . S
C1482 H1470 0.950 . S
C1482 C1481 1.398 . S
C1482 C1483 1.391 . S
C1483 H1471 0.950 . S
C1483 C1479 1.393 . S
C1483 C1482 1.391 . S
H1484 C1492 0.950 . S
H1485 C1497 0.950 . S
H1486 C1494 0.950 . S
H1487 C1496 0.950 . S
H1488 C1498 0.950 . S
H1489 C1500 0.950 . S
H1490 C1502 0.950 . S
H1491 C1503 0.950 . S
C1492 H1484 0.950 . S
C1492 C1493 1.386 . S
C1492 C1494 1.391 . S
C1493 C1492 1.386 . S
C1493 C1497 1.393 . S
C1494 H1486 0.950 . S
C1494 C1492 1.391 . S
C1494 C1495 1.400 . S
C1495 C1494 1.400 . S
C1495 C1496 1.398 . S
C1495 C1501 1.491 . S
C1496 H1487 0.950 . S
C1496 C1495 1.398 . S
C1496 C1497 1.391 . S
C1497 H1485 0.950 . S
C1497 C1493 1.393 . S
C1497 C1496 1.391 . S
C1498 H1488 0.950 . S
C1498 C1499 1.386 . S
C1498 C1500 1.391 . S
C1499 C1498 1.386 . S
C1499 C1503 1.393 . S
C1500 H1489 0.950 . S
C1500 C1498 1.391 . S
C1500 C1501 1.400 . S
C1501 C1495 1.491 . S
C1501 C1500 1.400 . S
C1501 C1502 1.398 . S
C1502 H1490 0.950 . S
C1502 C1501 1.398 . S
C1502 C1503 1.391 . S
C1503 H1491 0.950 . S
C1503 C1499 1.393 . S
C1503 C1502 1.391 . S
H1504 C1512 0.950 . S
H1505 C1517 0.950 . S
H1506 C1514 0.950 . S
H1507 C1516 0.950 . S
H1508 C1518 0.950 . S
H1509 C1520 0.950 . S
H1510 C1522 0.950 . S
H1511 C1523 0.950 . S
C1512 H1504 0.950 . S
C1512 C1513 1.386 . S
C1512 C1514 1.391 . S
C1513 C1512 1.386 . S
C1513 C1517 1.393 . S
C1514 H1506 0.950 . S
C1514 C1512 1.391 . S
C1514 C1515 1.400 . S
C1515 C1514 1.400 . S
C1515 C1516 1.398 . S
C1515 C1521 1.491 . S
C1516 H1507 0.950 . S
C1516 C1515 1.398 . S
C1516 C1517 1.391 . S
C1517 H1505 0.950 . S
C1517 C1513 1.393 . S
C1517 C1516 1.391 . S
C1518 H1508 0.950 . S
C1518 C1519 1.386 . S
C1518 C1520 1.391 . S
C1519 C1518 1.386 . S
C1519 C1523 1.393 . S
C1520 H1509 0.950 . S
C1520 C1518 1.391 . S
C1520 C1521 1.400 . S
C1521 C1515 1.491 . S
C1521 C1520 1.400 . S
C1521 C1522 1.398 . S
C1522 H1510 0.950 . S
C1522 C1521 1.398 . S
C1522 C1523 1.391 . S
C1523 H1511 0.950 . S
C1523 C1519 1.393 . S
C1523 C1522 1.391 . S
H1524 C1532 0.950 . S
H1525 C1537 0.950 . S
H1526 C1534 0.950 . S
H1527 C1536 0.950 . S
H1528 C1538 0.950 . S
H1529 C1540 0.950 . S
H1530 C1542 0.950 . S
H1531 C1543 0.950 . S
C1532 H1524 0.950 . S
C1532 C1533 1.386 . S
C1532 C1534 1.391 . S
C1533 C1532 1.386 . S
C1533 C1537 1.393 . S
C1534 H1526 0.950 . S
C1534 C1532 1.391 . S
C1534 C1535 1.400 . S
C1535 C1534 1.400 . S
C1535 C1536 1.398 . S
C1535 C1541 1.491 . S
C1536 H1527 0.950 . S
C1536 C1535 1.398 . S
C1536 C1537 1.391 . S
C1537 H1525 0.950 . S
C1537 C1533 1.393 . S
C1537 C1536 1.391 . S
C1538 H1528 0.950 . S
C1538 C1539 1.386 . S
C1538 C1540 1.391 . S
C1539 C1538 1.386 . S
C1539 C1543 1.393 . S
C1540 H1529 0.950 . S
C1540 C1538 1.391 . S
C1540 C1541 1.400 . S
C1541 C1535 1.491 . S
C1541 C1540 1.400 . S
C1541 C1542 1.398 . S
C1542 H1530 0.950 . S
C1542 C1541 1.398 . S
C1542 C1543 1.391 . S
C1543 H1531 0.950 . S
C1543 C1539 1.393 . S
C1543 C1542 1.391 . S
H1544 C1552 0.950 . S
H1545 C1557 0.950 . S
H1546 C1554 0.950 . S
H1547 C1556 0.950 . S
H1548 C1558 0.950 . S
H1549 C1560 0.950 . S
H1550 C1562 0.950 . S
H1551 C1563 0.950 . S
C1552 H1544 0.950 . S
C1552 C1553 1.386 . S
C1552 C1554 1.391 . S
C1553 C1552 1.386 . S
C1553 C1557 1.393 . S
C1554 H1546 0.950 . S
C1554 C1552 1.391 . S
C1554 C1555 1.400 . S
C1555 C1554 1.400 . S
C1555 C1556 1.398 . S
C1555 C1561 1.491 . S
C1556 H1547 0.950 . S
C1556 C1555 1.398 . S
C1556 C1557 1.391 . S
C1557 H1545 0.950 . S
C1557 C1553 1.393 . S
C1557 C1556 1.391 . S
C1558 H1548 0.950 . S
C1558 C1559 1.386 . S
C1558 C1560 1.391 . S
C1559 C1558 1.386 . S
C1559 C1563 1.393 . S
C1560 H1549 0.950 . S
C1560 C1558 1.391 . S
C1560 C1561 1.400 . S
C1561 C1555 1.491 . S
C1561 C1560 1.400 . S
C1561 C1562 1.398 . S
C1562 H1550 0.950 . S
C1562 C1561 1.398 . S
C1562 C1563 1.391 . S
C1563 H1551 0.950 . S
C1563 C1559 1.393 . S
C1563 C1562 1.391 . S
H1564 C1572 0.950 . S
H1565 C1577 0.950 . S
H1566 C1574 0.950 . S
H1567 C1576 0.950 . S
H1568 C1578 0.950 . S
H1569 C1580 0.950 . S
H1570 C1582 0.950 . S
H1571 C1583 0.950 . S
C1572 H1564 0.950 . S
C1572 C1573 1.386 . S
C1572 C1574 1.391 . S
C1573 C1572 1.386 . S
C1573 C1577 1.393 . S
C1574 H1566 0.950 . S
C1574 C1572 1.391 . S
C1574 C1575 1.400 . S
C1575 C1574 1.400 . S
C1575 C1576 1.398 . S
C1575 C1581 1.491 . S
C1576 H1567 0.950 . S
C1576 C1575 1.398 . S
C1576 C1577 1.391 . S
C1577 H1565 0.950 . S
C1577 C1573 1.393 . S
C1577 C1576 1.391 . S
C1578 H1568 0.950 . S
C1578 C1579 1.386 . S
C1578 C1580 1.391 . S
C1579 C1578 1.386 . S
C1579 C1583 1.393 . S
C1580 H1569 0.950 . S
C1580 C1578 1.391 . S
C1580 C1581 1.400 . S
C1581 C1575 1.491 . S
C1581 C1580 1.400 . S
C1581 C1582 1.398 . S
C1582 H1570 0.950 . S
C1582 C1581 1.398 . S
C1582 C1583 1.391 . S
C1583 H1571 0.950 . S
C1583 C1579 1.393 . S
C1583 C1582 1.391 . S
H1584 C1592 0.950 . S
H1585 C1597 0.950 . S
H1586 C1594 0.950 . S
H1587 C1596 0.950 . S
H1588 C1598 0.950 . S
H1589 C1600 0.950 . S
H1590 C1602 0.950 . S
H1591 C1603 0.950 . S
C1592 H1584 0.950 . S
C1592 C1593 1.386 . S
C1592 C1594 1.391 . S
C1593 C1592 1.386 . S
C1593 C1597 1.393 . S
C1594 H1586 0.950 . S
C1594 C1592 1.391 . S
C1594 C1595 1.400 . S
C1595 C1594 1.400 . S
C1595 C1596 1.398 . S
C1595 C1601 1.491 . S
C1596 H1587 0.950 . S
C1596 C1595 1.398 . S
C1596 C1597 1.391 . S
C1597 H1585 0.950 . S
C1597 C1593 1.393 . S
C1597 C1596 1.391 . S
C1598 H1588 0.950 . S
C1598 C1599 1.386 . S
C1598 C1600 1.391 . S
C1599 C1598 1.386 . S
C1599 C1603 1.393 . S
C1600 H1589 0.950 . S
C1600 C1598 1.391 . S
C1600 C1601 1.400 . S
C1601 C1595 1.491 . S
C1601 C1600 1.400 . S
C1601 C1602 1.398 . S
C1602 H1590 0.950 . S
C1602 C1601 1.398 . S
C1602 C1603 1.391 . S
C1603 H1591 0.950 . S
C1603 C1599 1.393 . S
C1603 C1602 1.391 . S
H1604 C1612 0.950 . S
H1605 C1617 0.950 . S
H1606 C1614 0.950 . S
H1607 C1616 0.950 . S
H1608 C1618 0.950 . S
H1609 C1620 0.950 . S
H1610 C1622 0.950 . S
H1611 C1623 0.950 . S
C1612 H1604 0.950 . S
C1612 C1613 1.386 . S
C1612 C1614 1.391 . S
C1613 C1612 1.386 . S
C1613 C1617 1.393 . S
C1614 H1606 0.950 . S
C1614 C1612 1.391 . S
C1614 C1615 1.400 . S
C1615 C1614 1.400 . S
C1615 C1616 1.398 . S
C1615 C1621 1.491 . S
C1616 H1607 0.950 . S
C1616 C1615 1.398 . S
C1616 C1617 1.391 . S
C1617 H1605 0.950 . S
C1617 C1613 1.393 . S
C1617 C1616 1.391 . S
C1618 H1608 0.950 . S
C1618 C1619 1.386 . S
C1618 C1620 1.391 . S
C1619 C1618 1.386 . S
C1619 C1623 1.393 . S
C1620 H1609 0.950 . S
C1620 C1618 1.391 . S
C1620 C1621 1.400 . S
C1621 C1615 1.491 . S
C1621 C1620 1.400 . S
C1621 C1622 1.398 . S
C1622 H1610 0.950 . S
C1622 C1621 1.398 . S
C1622 C1623 1.391 . S
C1623 H1611 0.950 . S
C1623 C1619 1.393 . S
C1623 C1622 1.391 . S
H1624 C1632 0.950 . S
H1625 C1637 0.950 . S
H1626 C1634 0.950 . S
H1627 C1636 0.950 . S
H1628 C1638 0.950 . S
H1629 C1640 0.950 . S
H1630 C1642 0.950 . S
H1631 C1643 0.950 . S
C1632 H1624 0.950 . S
C1632 C1633 1.386 . S
C1632 C1634 1.391 . S
C1633 C1632 1.386 . S
C1633 C1637 1.393 . S
C1634 H1626 0.950 . S
C1634 C1632 1.391 . S
C1634 C1635 1.400 . S
C1635 C1634 1.400 . S
C1635 C1636 1.398 . S
C1635 C1641 1.491 . S
C1636 H1627 0.950 . S
C1636 C1635 1.398 . S
C1636 C1637 1.391 . S
C1637 H1625 0.950 . S
C1637 C1633 1.393 . S
C1637 C1636 1.391 . S
C1638 H1628 0.950 . S
C1638 C1639 1.386 . S
C1638 C1640 1.391 . S
C1639 C1638 1.386 . S
C1639 C1643 1.393 . S
C1640 H1629 0.950 . S
C1640 C1638 1.391 . S
C1640 C1641 1.400 . S
C1641 C1635 1.491 . S
C1641 C1640 1.400 . S
C1641 C1642 1.398 . S
C1642 H1630 0.950 . S
C1642 C1641 1.398 . S
C1642 C1643 1.391 . S
C1643 H1631 0.950 . S
C1643 C1639 1.393 . S
C1643 C1642 1.391 . S
H1644 C1652 0.950 . S
H1645 C1657 0.950 . S
H1646 C1654 0.950 . S
H1647 C1656 0.950 . S
H1648 C1658 0.950 . S
H1649 C1660 0.950 . S
H1650 C1662 0.950 . S
H1651 C1663 0.950 . S
C1652 H1644 0.950 . S
C1652 C1653 1.386 . S
C1652 C1654 1.391 . S
C1653 C1652 1.386 . S
C1653 C1657 1.393 . S
C1654 H1646 0.950 . S
C1654 C1652 1.391 . S
C1654 C1655 1.400 . S
C1655 C1654 1.400 . S
C1655 C1656 1.398 . S
C1655 C1661 1.491 . S
C1656 H1647 0.950 . S
C1656 C1655 1.398 . S
C1656 C1657 1.391 . S
C1657 H1645 0.950 . S
C1657 C1653 1.393 . S
C1657 C1656 1.391 . S
C1658 H1648 0.950 . S
C1658 C1659 1.386 . S
C1658 C1660 1.391 . S
C1659 C1658 1.386 . S
C1659 C1663 1.393 . S
C1660 H1649 0.950 . S
C1660 C1658 1.391 . S
C1660 C1661 1.400 . S
C1661 C1655 1.491 . S
C1661 C1660 1.400 . S
C1661 C1662 1.398 . S
C1662 H1650 0.950 . S
C1662 C1661 1.398 . S
C1662 C1663 1.391 . S
C1663 H1651 0.950 . S
C1663 C1659 1.393 . S
C1663 C1662 1.391 . S
C553 C275 2.811 . S
C559 C3 2.811 . S
C573 C37 2.813 . S
C579 C307 2.813 . S
C593 C343 2.814 . S
C599 C69 2.814 . S
C613 C103 2.821 . S
C619 C375 2.821 . S
C633 C137 2.813 . S
C639 C409 2.813 . S
C653 C171 2.820 . S
C659 C443 2.820 . S
C673 C477 2.821 . S
C679 C207 2.821 . S
C693 C511 2.816 . S
C699 C241 2.816 . S
C713 C1 1.803 . S
C719 C40 1.778 . S
C733 C96 1.780 . S
C739 C35 1.799 . S
C753 C130 1.775 . S
C759 C71 1.802 . S
C773 C6 1.754 . S
C779 C105 1.819 . S
C793 C244 1.776 . S
C799 C139 1.805 . S
C813 C164 1.760 . S
C819 C173 1.819 . S
C833 C205 1.805 . S
C839 C198 1.775 . S
C853 C239 1.822 . S
C859 C210 1.756 . S
C873 C334 1.770 . S
C879 C273 1.811 . S
C893 C309 1.799 . S
C899 C346 1.779 . S
C913 C402 1.756 . S
C919 C341 1.817 . S
C933 C278 1.774 . S
C939 C377 1.806 . S
C953 C538 1.776 . S
C959 C411 1.805 . S
C973 C436 1.778 . S
C979 C445 1.800 . S
C993 C470 1.780 . S
C999 C479 1.799 . S
C1013 C504 1.772 . S
C1019 C513 1.804 . S
C1033 C328 0.611 . S
C1039 C28 0.650 . S
C1053 C355 0.643 . S
C1059 C62 0.659 . S
C1073 C396 0.658 . S
C1079 C74 0.598 . S
C1093 C287 0.616 . S
C1099 C108 0.653 . S
C1113 C532 0.669 . S
C1119 C142 0.642 . S
C1133 C430 0.632 . S
C1139 C176 0.587 . S
C1153 C232 0.590 . S
C1159 C464 0.613 . S
C1173 C498 0.632 . S
C1179 C266 0.658 . S
C1193 C300 0.658 . S
C1199 C49 0.648 . S
C1213 C312 0.614 . S
C1219 C90 0.594 . S
C1233 C368 0.649 . S
C1239 C124 0.664 . S
C1253 C15 0.662 . S
C1259 C380 0.602 . S
C1273 C414 0.619 . S
C1279 C253 0.671 . S
C1293 C158 0.631 . S
C1299 C448 0.658 . S
C1313 C482 0.656 . S
C1319 C192 0.624 . S
C1333 C516 0.590 . S
C1339 C219 0.613 . S
C1353 C185 1.303 . S
C1359 C22 1.294 . S
C1373 C226 1.302 . S
C1379 C56 1.294 . S
C1393 C260 1.321 . S
C1399 C83 1.315 . S
C1413 C151 1.305 . S
C1419 C117 1.295 . S
C1433 C457 1.292 . S
C1439 C294 1.297 . S
C1453 C321 1.303 . S
C1459 C491 1.294 . S
C1473 C362 1.298 . S
C1479 C525 1.309 . S
C1493 C389 1.320 . S
C1499 C423 1.320 . S
C1513 C85 1.691 . S
C1519 C17 1.692 . S
C1533 C51 1.691 . S
C1539 C119 1.692 . S
C1553 C221 1.706 . S
C1559 C153 1.700 . S
C1573 C255 1.706 . S
C1579 C187 1.697 . S
C1593 C289 1.697 . S
C1599 C357 1.706 . S
C1613 C391 1.705 . S
C1619 C323 1.695 . S
C1633 C493 1.691 . S
C1639 C425 1.702 . S
C1653 C527 1.699 . S
C1659 C459 1.706 . S
