# Generated by pormake.
# Topology unb, (4)-cn, num edge types: 1
# Building blocks:
#     Node 0, Type 0, BuildingBlock: CEKHIL_clean_sbu_0, # of connection points: 4
#     Node 1, Type 0, BuildingBlock: CEKHIL_clean_sbu_0, # of connection points: 4
#     Node 2, Type 0, BuildingBlock: CEKHIL_clean_sbu_0, # of connection points: 4
#     Node 3, Type 0, BuildingBlock: CEKHIL_clean_sbu_0, # of connection points: 4
#     Node 4, Type 0, BuildingBlock: CEKHIL_clean_sbu_0, # of connection points: 4
#     Node 5, Type 0, BuildingBlock: CEKHIL_clean_sbu_0, # of connection points: 4
#     Node 6, Type 0, BuildingBlock: CEKHIL_clean_sbu_0, # of connection points: 4
#     Node 7, Type 0, BuildingBlock: CEKHIL_clean_sbu_0, # of connection points: 4
#     Node 8, Type 0, BuildingBlock: CEKHIL_clean_sbu_0, # of connection points: 4
#     Node 9, Type 0, BuildingBlock: CEKHIL_clean_sbu_0, # of connection points: 4
#     Node 10, Type 0, BuildingBlock: CEKHIL_clean_sbu_0, # of connection points: 4
#     Node 11, Type 0, BuildingBlock: CEKHIL_clean_sbu_0, # of connection points: 4
#     Node 12, Type 0, BuildingBlock: CEKHIL_clean_sbu_0, # of connection points: 4
#     Node 13, Type 0, BuildingBlock: CEKHIL_clean_sbu_0, # of connection points: 4
#     Node 14, Type 0, BuildingBlock: CEKHIL_clean_sbu_0, # of connection points: 4
#     Node 15, Type 0, BuildingBlock: CEKHIL_clean_sbu_0, # of connection points: 4
#     Node 16, Type 0, BuildingBlock: CEKHIL_clean_sbu_0, # of connection points: 4
#     Node 17, Type 0, BuildingBlock: CEKHIL_clean_sbu_0, # of connection points: 4
#     Edge 18, Type (0, 0), None
#     Edge 19, Type (0, 0), None
#     Edge 20, Type (0, 0), None
#     Edge 21, Type (0, 0), None
#     Edge 22, Type (0, 0), None
#     Edge 23, Type (0, 0), None
#     Edge 24, Type (0, 0), None
#     Edge 25, Type (0, 0), None
#     Edge 26, Type (0, 0), None
#     Edge 27, Type (0, 0), None
#     Edge 28, Type (0, 0), None
#     Edge 29, Type (0, 0), None
#     Edge 30, Type (0, 0), None
#     Edge 31, Type (0, 0), None
#     Edge 32, Type (0, 0), None
#     Edge 33, Type (0, 0), None
#     Edge 34, Type (0, 0), None
#     Edge 35, Type (0, 0), None
#     Edge 36, Type (0, 0), None
#     Edge 37, Type (0, 0), None
#     Edge 38, Type (0, 0), None
#     Edge 39, Type (0, 0), None
#     Edge 40, Type (0, 0), None
#     Edge 41, Type (0, 0), None
#     Edge 42, Type (0, 0), None
#     Edge 43, Type (0, 0), None
#     Edge 44, Type (0, 0), None
#     Edge 45, Type (0, 0), None
#     Edge 46, Type (0, 0), None
#     Edge 47, Type (0, 0), None
#     Edge 48, Type (0, 0), None
#     Edge 49, Type (0, 0), None
#     Edge 50, Type (0, 0), None
#     Edge 51, Type (0, 0), None
#     Edge 52, Type (0, 0), None
#     Edge 53, Type (0, 0), None
# Relax obj value: 0.105
# Max RMSD: 0.091
# Mean RMSD: 0.091
data_MOF--net-unb--node1-CEKHIL_clean_sbu_0--edge1-none
_symmetry_space_group_name_H-M    P1
_symmetry_Int_Tables_number       1
_symmetry_cell_setting            triclinic
loop_
_symmetry_equiv_pos_as_xyz
'x, y, z'
_cell_length_a     25.216295
_cell_length_b     25.217167
_cell_length_c     11.482408
_cell_angle_alpha  89.99695
_cell_angle_beta   90.005596
_cell_angle_gamma 120.00148
loop_
_atom_site_label
_atom_site_type_symbol
_atom_site_fract_x
_atom_site_fract_y
_atom_site_fract_z
_atom_type_partial_charge
Co0 Co 0.23872 0.33557 0.09006 0.0
O1 O 0.16001 0.33071 0.07353 0.0
O2 O 0.17709 0.25462 0.03472 0.0
C3 C 0.26959 0.39055 0.26473 0.0
O4 O 0.31362 0.32436 0.07697 0.0
Co5 Co 0.35813 0.46359 0.08472 0.0
O6 O 0.39094 0.41394 0.01237 0.0
C7 C 0.27944 0.40985 0.88073 0.0
C8 C 0.14117 0.27758 0.02476 0.0
C9 C 0.36279 0.35558 0.01526 0.0
O10 O 0.2529 0.35789 0.92778 0.0
O11 O 0.31574 0.45961 0.93415 0.0
O12 O 0.23475 0.33103 0.26391 0.0
O13 O 0.28078 0.41444 0.16278 0.0
Co14 Co 0.85482 0.94219 0.09006 0.0
O15 O 0.85969 0.86835 0.07354 0.0
O16 O 0.93577 0.96152 0.03472 0.0
C17 C 0.79984 0.9181 0.26471 0.0
O18 O 0.86603 1.02831 0.07695 0.0
Co19 Co 0.72679 0.93357 0.08468 0.0
O20 O 0.77644 1.01604 0.01234 0.0
C21 C 0.78053 0.90863 0.88072 0.0
C22 C 0.91281 0.90265 0.02476 0.0
C23 C 0.8348 1.04625 0.01524 0.0
O24 O 0.8325 0.93406 0.92778 0.0
O25 O 0.73077 0.89516 0.93413 0.0
O26 O 0.85936 0.94276 0.26391 0.0
O27 O 0.77595 0.90539 0.16277 0.0
Co28 Co 0.2482 0.95168 0.09004 0.0
O29 O 0.32204 1.03039 0.0735 0.0
O30 O 0.22887 1.0133 0.03468 0.0
C31 C 0.2723 0.92081 0.26471 0.0
O32 O 0.16208 0.87677 0.07695 0.0
Co33 Co 0.25681 0.83228 0.08472 0.0
O34 O 0.17434 0.79946 0.01238 0.0
C35 C 0.28174 0.91095 0.88072 0.0
C36 C 0.28774 1.04922 0.02472 0.0
C37 C 0.14414 0.82761 0.01526 0.0
O38 O 0.25632 0.93749 0.92776 0.0
O39 O 0.29522 0.87466 0.93415 0.0
O40 O 0.24764 0.95566 0.26389 0.0
O41 O 0.285 0.90962 0.16277 0.0
Co42 Co 0.37299 0.20126 0.88124 0.0
O43 O 0.36812 0.12255 0.89775 0.0
O44 O 0.29204 0.13964 0.93657 0.0
C45 C 0.42797 0.23214 0.70658 0.0
O46 O 0.3618 0.27618 0.89436 0.0
Co47 Co 0.50103 0.32066 0.88661 0.0
O48 O 0.45139 0.35348 0.95898 0.0
C49 C 0.44728 0.24196 0.09057 0.0
C50 C 0.315 0.10373 0.94655 0.0
C51 C 0.39303 0.32533 0.95609 0.0
O52 O 0.39531 0.21543 0.04352 0.0
O53 O 0.49705 0.27825 0.03716 0.0
O54 O 0.36845 0.1973 0.70738 0.0
O55 O 0.45186 0.24332 0.80852 0.0
Co56 Co 0.98913 0.21079 0.88126 0.0
O57 O 1.06784 0.28463 0.89779 0.0
O58 O 1.05074 0.19145 0.93661 0.0
C59 C 0.95825 0.23489 0.70658 0.0
O60 O 0.91421 0.12468 0.89435 0.0
Co61 Co 0.86972 0.21941 0.88658 0.0
O62 O 0.8369 0.13695 0.95894 0.0
C63 C 0.94841 0.24436 0.09057 0.0
C64 C 1.08666 0.25033 0.94659 0.0
C65 C 0.86506 0.10675 0.95608 0.0
O66 O 0.97495 0.21893 0.04353 0.0
O67 O 0.91212 0.25783 0.03714 0.0
O68 O 0.9931 0.21022 0.70741 0.0
O69 O 0.94707 0.2476 0.80852 0.0
Co70 Co 0.97959 0.8174 0.88126 0.0
O71 O 0.90575 0.82227 0.89778 0.0
O72 O 0.99894 0.89835 0.93661 0.0
C73 C 0.95549 0.76242 0.70659 0.0
O74 O 1.06571 0.82859 0.89437 0.0
Co75 Co 0.97095 0.68936 0.88662 0.0
O76 O 1.05342 0.739 0.95897 0.0
C77 C 0.94602 0.7431 0.09058 0.0
C78 C 0.94006 0.87539 0.94659 0.0
C79 C 1.08363 0.79736 0.95609 0.0
O80 O 0.97145 0.79507 0.04354 0.0
O81 O 0.93253 0.69334 0.03717 0.0
O82 O 0.98017 0.82194 0.70741 0.0
O83 O 0.94279 0.73853 0.80853 0.0
Co84 Co 0.90533 0.6689 0.42341 0.0
O85 O 0.82661 0.66401 0.40689 0.0
O86 O 0.84372 0.58794 0.36806 0.0
C87 C 0.93619 0.72387 0.59807 0.0
O88 O 0.98025 0.65771 0.41029 0.0
Co89 Co 1.02474 0.79693 0.41808 0.0
O90 O 1.05755 0.7473 0.34569 0.0
C91 C 0.94601 0.7432 0.21413 0.0
C92 C 0.80779 0.61089 0.35811 0.0
C93 C 1.02941 0.68894 0.34857 0.0
O94 O 0.91951 0.69122 0.26114 0.0
O95 O 0.98233 0.79296 0.26753 0.0
O96 O 0.90137 0.66435 0.59726 0.0
O97 O 0.94739 0.74776 0.49613 0.0
Co98 Co 0.5215 0.27549 0.4234 0.0
O99 O 0.52638 0.20165 0.4069 0.0
O100 O 0.60245 0.29483 0.36806 0.0
C101 C 0.46652 0.25138 0.59806 0.0
O102 O 0.53268 0.36159 0.41027 0.0
Co103 Co 0.39345 0.26683 0.41804 0.0
O104 O 0.44309 0.34929 0.34566 0.0
C105 C 0.44718 0.24185 0.21411 0.0
C106 C 0.5795 0.23595 0.35811 0.0
C107 C 0.50144 0.37951 0.34855 0.0
O108 O 0.49916 0.26734 0.26113 0.0
O109 O 0.39743 0.2284 0.26751 0.0
O110 O 0.52604 0.27607 0.59726 0.0
O111 O 0.44263 0.23868 0.49612 0.0
Co112 Co 0.91491 0.28507 0.42338 0.0
O113 O 0.98874 0.36379 0.40687 0.0
O114 O 0.89556 0.34667 0.36802 0.0
C115 C 0.93902 0.25421 0.59806 0.0
O116 O 0.8288 0.21015 0.41027 0.0
Co117 Co 0.92355 0.16567 0.41808 0.0
O118 O 0.84109 0.13285 0.3457 0.0
C119 C 0.94852 0.24438 0.21411 0.0
C120 C 0.95444 0.38261 0.35807 0.0
C121 C 0.81087 0.16098 0.34857 0.0
O122 O 0.92305 0.27088 0.26111 0.0
O123 O 0.96197 0.20807 0.26753 0.0
O124 O 0.91433 0.28904 0.59724 0.0
O125 O 0.95172 0.24302 0.49612 0.0
Co126 Co 1.03966 0.53464 0.21457 0.0
O127 O 1.03481 0.45594 0.23111 0.0
O128 O 0.95871 0.47302 0.26991 0.0
C129 C 1.09464 0.56552 0.03991 0.0
O130 O 1.02844 0.60955 0.22766 0.0
Co131 Co 0.16768 0.65407 0.2199 0.0
O132 O 0.11802 0.68687 0.29226 0.0
C133 C 0.11395 0.5754 0.42391 0.0
C134 C 0.98168 0.43711 0.27991 0.0
C135 C 1.05967 0.6587 0.28939 0.0
O136 O 1.06198 0.54883 0.37685 0.0
O137 O 0.16371 0.61169 0.37049 0.0
O138 O 1.03512 0.53067 0.04072 0.0
O139 O 0.11853 0.57672 0.14185 0.0
Co140 Co 0.65575 0.54408 0.21459 0.0
O141 O 0.73445 0.61793 0.23115 0.0
O142 O 0.71737 0.52475 0.26996 0.0
C143 C 0.62488 0.56818 0.03992 0.0
O144 O 0.58084 0.45795 0.22766 0.0
Co145 Co 0.53632 0.55266 0.21987 0.0
O146 O 0.50351 0.4702 0.29223 0.0
C147 C 0.61498 0.5776 0.42391 0.0
C148 C 0.75328 0.58363 0.27995 0.0
C149 C 0.53168 0.44001 0.28937 0.0
O150 O 0.64155 0.5522 0.37686 0.0
O151 O 0.57868 0.59105 0.37048 0.0
O152 O 0.65973 0.54352 0.04074 0.0
O153 O 0.61367 0.58087 0.14185 0.0
Co154 Co 0.64631 0.15073 0.21459 0.0
O155 O 0.57246 0.15558 0.23114 0.0
O156 O 0.66563 0.23168 0.26995 0.0
C157 C 0.62221 0.09576 0.03992 0.0
O158 O 0.73243 0.16195 0.22768 0.0
Co159 Co 0.63771 1.02271 0.21991 0.0
O160 O 0.72018 1.07237 0.29225 0.0
C161 C 0.61278 0.07644 0.42392 0.0
C162 C 0.60676 0.2087 0.27995 0.0
C163 C 0.75037 0.13072 0.28939 0.0
O164 O 0.63819 0.12841 0.37687 0.0
O165 O 0.59932 1.02668 0.3705 0.0
O166 O 0.64687 0.15527 0.04074 0.0
O167 O 0.60951 1.07187 0.14186 0.0
Co168 Co 0.57205 1.00223 0.75674 0.0
O169 O 0.49334 0.99737 0.7402 0.0
O170 O 0.51043 0.92129 0.70139 0.0
C171 C 0.60291 1.05721 0.9314 0.0
O172 O 0.64696 0.99102 0.74366 0.0
Co173 Co 0.69148 0.13025 0.75145 0.0
O174 O 0.72428 0.0806 0.67907 0.0
C175 C 0.61278 0.07654 0.54746 0.0
C176 C 0.47451 0.94424 0.69142 0.0
C177 C 0.69612 1.02225 0.68194 0.0
O178 O 0.58625 1.02456 0.59447 0.0
O179 O 0.64911 0.12629 0.60086 0.0
O180 O 0.56808 0.99769 0.93059 0.0
O181 O 0.61412 0.0811 0.82946 0.0
Co182 Co 0.18816 0.60887 0.75673 0.0
O183 O 0.19302 0.53502 0.7402 0.0
O184 O 0.26911 0.62819 0.70138 0.0
C185 C 0.13319 0.58475 0.93139 0.0
O186 O 0.19937 0.69499 0.74363 0.0
Co187 Co 1.06013 0.60026 0.75142 0.0
O188 O 1.10979 0.68272 0.67905 0.0
C189 C 0.11385 0.57529 0.54744 0.0
C190 C 0.24615 0.56932 0.69142 0.0
C191 C 0.16814 0.71292 0.68192 0.0
O192 O 0.16583 0.60074 0.59446 0.0
O193 O 1.0641 0.56185 0.60084 0.0
O194 O 0.19271 0.60944 0.93059 0.0
O195 O 1.1093 0.57207 0.82945 0.0
Co196 Co 0.58152 0.61835 0.75671 0.0
O197 O 0.65537 0.69706 0.74017 0.0
O198 O 0.56219 0.67997 0.70134 0.0
C199 C 0.60564 0.5875 0.93139 0.0
O200 O 0.4954 0.54344 0.74363 0.0
Co201 Co 0.59013 0.49893 0.75145 0.0
O202 O 0.50766 0.46612 0.67908 0.0
C203 C 0.61509 0.57761 0.54745 0.0
C204 C 0.62107 0.71589 0.69138 0.0
C205 C 0.47746 0.49427 0.68194 0.0
O206 O 0.58965 0.60414 0.59445 0.0
O207 O 0.62852 0.54129 0.60086 0.0
O208 O 0.58096 0.62233 0.93057 0.0
O209 O 0.61832 0.57629 0.82945 0.0
Co210 Co 0.70632 0.86792 0.54789 0.0
O211 O 0.70144 0.78921 0.56441 0.0
O212 O 0.62537 0.80631 0.60324 0.0
C213 C 0.76129 0.89879 0.37323 0.0
O214 O 0.69512 0.94284 0.56101 0.0
Co215 Co 0.83436 0.98733 0.55322 0.0
O216 O 0.78472 1.02014 0.62561 0.0
C217 C 0.78063 0.90862 0.75718 0.0
C218 C 0.64832 0.77039 0.61322 0.0
C219 C 0.72636 0.99199 0.62275 0.0
O220 O 0.72865 0.88211 0.71016 0.0
O221 O 0.83039 0.94494 0.70378 0.0
O222 O 0.70177 0.86396 0.37404 0.0
O223 O 0.78518 0.90999 0.47518 0.0
Co224 Co 0.32247 0.87745 0.54791 0.0
O225 O 0.40118 0.95129 0.56445 0.0
O226 O 0.38408 0.85812 0.60328 0.0
C227 C 0.29161 0.90157 0.37324 0.0
O228 O 0.24755 0.79134 0.56101 0.0
Co229 Co 0.20305 0.88607 0.55319 0.0
O230 O 0.17024 0.80362 0.62558 0.0
C231 C 0.28175 0.91105 0.75718 0.0
C232 C 0.42 0.91699 0.61326 0.0
C233 C 0.19839 0.77342 0.62274 0.0
O234 O 0.30827 0.88559 0.71018 0.0
O235 O 0.24543 0.92448 0.70376 0.0
O236 O 0.32644 0.87688 0.37406 0.0
O237 O 0.2804 0.91425 0.47517 0.0
Co238 Co 0.31293 0.48407 0.54792 0.0
O239 O 0.23909 0.48894 0.56444 0.0
O240 O 0.33227 0.56502 0.60328 0.0
C241 C 0.28882 0.4291 0.37325 0.0
O242 O 0.39904 0.49527 0.56102 0.0
Co243 Co 0.3043 0.35603 0.55322 0.0
O244 O 0.38676 0.40567 0.62561 0.0
C245 C 0.27933 0.40976 0.75719 0.0
C246 C 0.2734 0.54206 0.61326 0.0
C247 C 0.41696 0.46403 0.62275 0.0
O248 O 0.30479 0.46173 0.71018 0.0
O249 O 0.26589 0.36 0.70379 0.0
O250 O 0.3135 0.48862 0.37406 0.0
O251 O 0.27613 0.40521 0.47519 0.0
loop_
_geom_bond_atom_site_label_1
_geom_bond_atom_site_label_2
_geom_bond_distance
_geom_bond_site_symmetry_2
_ccdc_geom_bond_type
Co0 O1 2.216 . S
Co0 O2 2.091 . S
Co0 O4 2.004 . S
Co0 O10 2.021 1_554 S
Co0 O12 2.137 . S
Co0 O13 2.244 . S
O1 Co0 2.216 . S
O1 C8 1.247 . S
O2 Co0 2.091 . S
O2 C8 1.261 . S
C3 O12 1.247 . S
C3 O13 1.272 . S
O4 Co0 2.004 . S
O4 C9 1.259 . S
Co5 O6 2.061 . S
Co5 O11 2.052 1_554 S
Co5 O13 2.135 . S
O6 Co5 2.061 . S
O6 C9 1.235 . S
C7 O10 1.238 . S
C7 O11 1.241 . S
C8 O1 1.247 . S
C8 O2 1.261 . S
C9 O4 1.259 . S
C9 O6 1.235 . S
O10 Co0 2.021 1_556 S
O10 C7 1.238 . S
O11 Co5 2.052 1_556 S
O11 C7 1.241 . S
O12 Co0 2.137 . S
O12 C3 1.247 . S
O13 Co0 2.244 . S
O13 C3 1.272 . S
O13 Co5 2.135 . S
Co14 O15 2.216 . S
Co14 O16 2.091 . S
Co14 O18 2.004 . S
Co14 O24 2.021 1_554 S
Co14 O26 2.137 . S
Co14 O27 2.244 . S
O15 Co14 2.216 . S
O15 C22 1.247 . S
O16 Co14 2.091 . S
O16 C22 1.261 . S
C17 O26 1.247 . S
C17 O27 1.272 . S
O18 Co14 2.004 . S
O18 C23 1.259 . S
Co19 O20 2.061 . S
Co19 O25 2.052 1_554 S
Co19 O27 2.135 . S
O20 Co19 2.061 . S
O20 C23 1.235 . S
C21 O24 1.238 . S
C21 O25 1.241 . S
C22 O15 1.247 . S
C22 O16 1.261 . S
C23 O18 1.259 . S
C23 O20 1.235 . S
O24 Co14 2.021 1_556 S
O24 C21 1.238 . S
O25 Co19 2.052 1_556 S
O25 C21 1.241 . S
O26 Co14 2.137 . S
O26 C17 1.247 . S
O27 Co14 2.244 . S
O27 C17 1.272 . S
O27 Co19 2.135 . S
Co28 O29 2.216 . S
Co28 O30 2.091 . S
Co28 O32 2.004 . S
Co28 O38 2.021 1_554 S
Co28 O40 2.137 . S
Co28 O41 2.244 . S
O29 Co28 2.216 . S
O29 C36 1.247 . S
O30 Co28 2.091 . S
O30 C36 1.261 . S
C31 O40 1.247 . S
C31 O41 1.272 . S
O32 Co28 2.004 . S
O32 C37 1.259 . S
Co33 O34 2.061 . S
Co33 O39 2.052 1_554 S
Co33 O41 2.135 . S
O34 Co33 2.061 . S
O34 C37 1.235 . S
C35 O38 1.238 . S
C35 O39 1.241 . S
C36 O29 1.247 . S
C36 O30 1.261 . S
C37 O32 1.259 . S
C37 O34 1.235 . S
O38 Co28 2.021 1_556 S
O38 C35 1.238 . S
O39 Co33 2.052 1_556 S
O39 C35 1.241 . S
O40 Co28 2.137 . S
O40 C31 1.247 . S
O41 Co28 2.244 . S
O41 C31 1.272 . S
O41 Co33 2.135 . S
Co42 O43 2.216 . S
Co42 O44 2.091 . S
Co42 O46 2.004 . S
Co42 O52 2.021 1_556 S
Co42 O54 2.137 . S
Co42 O55 2.244 . S
O43 Co42 2.216 . S
O43 C50 1.247 . S
O44 Co42 2.091 . S
O44 C50 1.261 . S
C45 O54 1.247 . S
C45 O55 1.272 . S
O46 Co42 2.004 . S
O46 C51 1.259 . S
Co47 O48 2.061 . S
Co47 O53 2.052 1_556 S
Co47 O55 2.135 . S
O48 Co47 2.061 . S
O48 C51 1.235 . S
C49 O52 1.238 . S
C49 O53 1.241 . S
C50 O43 1.247 . S
C50 O44 1.261 . S
C51 O46 1.259 . S
C51 O48 1.235 . S
O52 Co42 2.021 1_554 S
O52 C49 1.238 . S
O53 Co47 2.052 1_554 S
O53 C49 1.241 . S
O54 Co42 2.137 . S
O54 C45 1.247 . S
O55 Co42 2.244 . S
O55 C45 1.272 . S
O55 Co47 2.135 . S
Co56 O57 2.216 . S
Co56 O58 2.091 . S
Co56 O60 2.004 . S
Co56 O66 2.021 1_556 S
Co56 O68 2.137 . S
Co56 O69 2.244 . S
O57 Co56 2.216 . S
O57 C64 1.247 . S
O58 Co56 2.091 . S
O58 C64 1.261 . S
C59 O68 1.247 . S
C59 O69 1.272 . S
O60 Co56 2.004 . S
O60 C65 1.259 . S
Co61 O62 2.061 . S
Co61 O67 2.052 1_556 S
Co61 O69 2.135 . S
O62 Co61 2.061 . S
O62 C65 1.235 . S
C63 O66 1.238 . S
C63 O67 1.241 . S
C64 O57 1.247 . S
C64 O58 1.261 . S
C65 O60 1.259 . S
C65 O62 1.235 . S
O66 Co56 2.021 1_554 S
O66 C63 1.238 . S
O67 Co61 2.052 1_554 S
O67 C63 1.241 . S
O68 Co56 2.137 . S
O68 C59 1.247 . S
O69 Co56 2.244 . S
O69 C59 1.272 . S
O69 Co61 2.135 . S
Co70 O71 2.216 . S
Co70 O72 2.091 . S
Co70 O74 2.004 . S
Co70 O80 2.021 1_556 S
Co70 O82 2.137 . S
Co70 O83 2.244 . S
O71 Co70 2.216 . S
O71 C78 1.247 . S
O72 Co70 2.091 . S
O72 C78 1.261 . S
C73 O82 1.247 . S
C73 O83 1.272 . S
O74 Co70 2.004 . S
O74 C79 1.259 . S
Co75 O76 2.061 . S
Co75 O81 2.052 1_556 S
Co75 O83 2.135 . S
O76 Co75 2.061 . S
O76 C79 1.235 . S
C77 O80 1.238 . S
C77 O81 1.241 . S
C78 O71 1.247 . S
C78 O72 1.261 . S
C79 O74 1.259 . S
C79 O76 1.235 . S
O80 Co70 2.021 1_554 S
O80 C77 1.238 . S
O81 Co75 2.052 1_554 S
O81 C77 1.241 . S
O82 Co70 2.137 . S
O82 C73 1.247 . S
O83 Co70 2.244 . S
O83 C73 1.272 . S
O83 Co75 2.135 . S
Co84 O85 2.216 . S
Co84 O86 2.091 . S
Co84 O88 2.004 . S
Co84 O94 2.021 . S
Co84 O96 2.137 . S
Co84 O97 2.244 . S
O85 Co84 2.216 . S
O85 C92 1.247 . S
O86 Co84 2.091 . S
O86 C92 1.261 . S
C87 O96 1.247 . S
C87 O97 1.272 . S
O88 Co84 2.004 . S
O88 C93 1.259 . S
Co89 O90 2.061 . S
Co89 O95 2.052 . S
Co89 O97 2.135 . S
O90 Co89 2.061 . S
O90 C93 1.235 . S
C91 O94 1.238 . S
C91 O95 1.241 . S
C92 O85 1.247 . S
C92 O86 1.261 . S
C93 O88 1.259 . S
C93 O90 1.235 . S
O94 Co84 2.021 . S
O94 C91 1.238 . S
O95 Co89 2.052 . S
O95 C91 1.241 . S
O96 Co84 2.137 . S
O96 C87 1.247 . S
O97 Co84 2.244 . S
O97 C87 1.272 . S
O97 Co89 2.135 . S
Co98 O99 2.216 . S
Co98 O100 2.091 . S
Co98 O102 2.004 . S
Co98 O108 2.021 . S
Co98 O110 2.137 . S
Co98 O111 2.244 . S
O99 Co98 2.216 . S
O99 C106 1.247 . S
O100 Co98 2.091 . S
O100 C106 1.261 . S
C101 O110 1.247 . S
C101 O111 1.272 . S
O102 Co98 2.004 . S
O102 C107 1.259 . S
Co103 O104 2.061 . S
Co103 O109 2.052 . S
Co103 O111 2.135 . S
O104 Co103 2.061 . S
O104 C107 1.235 . S
C105 O108 1.238 . S
C105 O109 1.241 . S
C106 O99 1.247 . S
C106 O100 1.261 . S
C107 O102 1.259 . S
C107 O104 1.235 . S
O108 Co98 2.021 . S
O108 C105 1.238 . S
O109 Co103 2.052 . S
O109 C105 1.241 . S
O110 Co98 2.137 . S
O110 C101 1.247 . S
O111 Co98 2.244 . S
O111 C101 1.272 . S
O111 Co103 2.135 . S
Co112 O113 2.216 . S
Co112 O114 2.091 . S
Co112 O116 2.004 . S
Co112 O122 2.021 . S
Co112 O124 2.137 . S
Co112 O125 2.244 . S
O113 Co112 2.216 . S
O113 C120 1.247 . S
O114 Co112 2.091 . S
O114 C120 1.261 . S
C115 O124 1.247 . S
C115 O125 1.272 . S
O116 Co112 2.004 . S
O116 C121 1.259 . S
Co117 O118 2.061 . S
Co117 O123 2.052 . S
Co117 O125 2.135 . S
O118 Co117 2.061 . S
O118 C121 1.235 . S
C119 O122 1.238 . S
C119 O123 1.241 . S
C120 O113 1.247 . S
C120 O114 1.261 . S
C121 O116 1.259 . S
C121 O118 1.235 . S
O122 Co112 2.021 . S
O122 C119 1.238 . S
O123 Co117 2.052 . S
O123 C119 1.241 . S
O124 Co112 2.137 . S
O124 C115 1.247 . S
O125 Co112 2.244 . S
O125 C115 1.272 . S
O125 Co117 2.135 . S
Co126 O127 2.216 . S
Co126 O128 2.091 . S
Co126 O130 2.004 . S
Co126 O136 2.021 . S
Co126 O138 2.137 . S
Co126 O139 2.244 1_655 S
O127 Co126 2.216 . S
O127 C134 1.247 . S
O128 Co126 2.091 . S
O128 C134 1.261 . S
C129 O138 1.247 . S
C129 O139 1.272 1_655 S
O130 Co126 2.004 . S
O130 C135 1.259 . S
Co131 O132 2.061 1_455 S
Co131 O137 2.052 . S
Co131 O139 2.135 . S
O132 Co131 2.061 1_655 S
O132 C135 1.235 . S
C133 O136 1.238 1_455 S
C133 O137 1.241 . S
C134 O127 1.247 . S
C134 O128 1.261 . S
C135 O130 1.259 . S
C135 O132 1.235 . S
O136 Co126 2.021 . S
O136 C133 1.238 1_655 S
O137 Co131 2.052 . S
O137 C133 1.241 . S
O138 Co126 2.137 . S
O138 C129 1.247 . S
O139 Co126 2.244 1_455 S
O139 C129 1.272 1_455 S
O139 Co131 2.135 . S
Co140 O141 2.216 . S
Co140 O142 2.091 . S
Co140 O144 2.004 . S
Co140 O150 2.021 . S
Co140 O152 2.137 . S
Co140 O153 2.244 . S
O141 Co140 2.216 . S
O141 C148 1.247 . S
O142 Co140 2.091 . S
O142 C148 1.261 . S
C143 O152 1.247 . S
C143 O153 1.272 . S
O144 Co140 2.004 . S
O144 C149 1.259 . S
Co145 O146 2.061 . S
Co145 O151 2.052 . S
Co145 O153 2.135 . S
O146 Co145 2.061 . S
O146 C149 1.235 . S
C147 O150 1.238 . S
C147 O151 1.241 . S
C148 O141 1.247 . S
C148 O142 1.261 . S
C149 O144 1.259 . S
C149 O146 1.235 . S
O150 Co140 2.021 . S
O150 C147 1.238 . S
O151 Co145 2.052 . S
O151 C147 1.241 . S
O152 Co140 2.137 . S
O152 C143 1.247 . S
O153 Co140 2.244 . S
O153 C143 1.272 . S
O153 Co145 2.135 . S
Co154 O155 2.216 . S
Co154 O156 2.091 . S
Co154 O158 2.004 . S
Co154 O164 2.021 . S
Co154 O166 2.137 . S
Co154 O167 2.244 1_545 S
O155 Co154 2.216 . S
O155 C162 1.247 . S
O156 Co154 2.091 . S
O156 C162 1.261 . S
C157 O166 1.247 . S
C157 O167 1.272 1_545 S
O158 Co154 2.004 . S
O158 C163 1.259 . S
Co159 O160 2.061 1_565 S
Co159 O165 2.052 . S
Co159 O167 2.135 . S
O160 Co159 2.061 1_545 S
O160 C163 1.235 . S
C161 O164 1.238 1_565 S
C161 O165 1.241 . S
C162 O155 1.247 . S
C162 O156 1.261 . S
C163 O158 1.259 . S
C163 O160 1.235 . S
O164 Co154 2.021 . S
O164 C161 1.238 1_545 S
O165 Co159 2.052 . S
O165 C161 1.241 . S
O166 Co154 2.137 . S
O166 C157 1.247 . S
O167 Co154 2.244 1_565 S
O167 C157 1.272 1_565 S
O167 Co159 2.135 . S
Co168 O169 2.216 . S
Co168 O170 2.091 . S
Co168 O172 2.004 . S
Co168 O178 2.021 . S
Co168 O180 2.137 . S
Co168 O181 2.244 1_565 S
O169 Co168 2.216 . S
O169 C176 1.247 . S
O170 Co168 2.091 . S
O170 C176 1.261 . S
C171 O180 1.247 . S
C171 O181 1.272 1_565 S
O172 Co168 2.004 . S
O172 C177 1.259 . S
Co173 O174 2.061 1_545 S
Co173 O179 2.052 . S
Co173 O181 2.135 . S
O174 Co173 2.061 1_565 S
O174 C177 1.235 . S
C175 O178 1.238 1_545 S
C175 O179 1.241 . S
C176 O169 1.247 . S
C176 O170 1.261 . S
C177 O172 1.259 . S
C177 O174 1.235 . S
O178 Co168 2.021 . S
O178 C175 1.238 1_565 S
O179 Co173 2.052 . S
O179 C175 1.241 . S
O180 Co168 2.137 . S
O180 C171 1.247 . S
O181 Co168 2.244 1_545 S
O181 C171 1.272 1_545 S
O181 Co173 2.135 . S
Co182 O183 2.216 . S
Co182 O184 2.091 . S
Co182 O186 2.004 . S
Co182 O192 2.021 . S
Co182 O194 2.137 . S
Co182 O195 2.244 1_455 S
O183 Co182 2.216 . S
O183 C190 1.247 . S
O184 Co182 2.091 . S
O184 C190 1.261 . S
C185 O194 1.247 . S
C185 O195 1.272 1_455 S
O186 Co182 2.004 . S
O186 C191 1.259 . S
Co187 O188 2.061 1_655 S
Co187 O193 2.052 . S
Co187 O195 2.135 . S
O188 Co187 2.061 1_455 S
O188 C191 1.235 . S
C189 O192 1.238 1_655 S
C189 O193 1.241 . S
C190 O183 1.247 . S
C190 O184 1.261 . S
C191 O186 1.259 . S
C191 O188 1.235 . S
O192 Co182 2.021 . S
O192 C189 1.238 1_455 S
O193 Co187 2.052 . S
O193 C189 1.241 . S
O194 Co182 2.137 . S
O194 C185 1.247 . S
O195 Co182 2.244 1_655 S
O195 C185 1.272 1_655 S
O195 Co187 2.135 . S
Co196 O197 2.216 . S
Co196 O198 2.091 . S
Co196 O200 2.004 . S
Co196 O206 2.021 . S
Co196 O208 2.137 . S
Co196 O209 2.244 . S
O197 Co196 2.216 . S
O197 C204 1.247 . S
O198 Co196 2.091 . S
O198 C204 1.261 . S
C199 O208 1.247 . S
C199 O209 1.272 . S
O200 Co196 2.004 . S
O200 C205 1.259 . S
Co201 O202 2.061 . S
Co201 O207 2.052 . S
Co201 O209 2.135 . S
O202 Co201 2.061 . S
O202 C205 1.235 . S
C203 O206 1.238 . S
C203 O207 1.241 . S
C204 O197 1.247 . S
C204 O198 1.261 . S
C205 O200 1.259 . S
C205 O202 1.235 . S
O206 Co196 2.021 . S
O206 C203 1.238 . S
O207 Co201 2.052 . S
O207 C203 1.241 . S
O208 Co196 2.137 . S
O208 C199 1.247 . S
O209 Co196 2.244 . S
O209 C199 1.272 . S
O209 Co201 2.135 . S
Co210 O211 2.216 . S
Co210 O212 2.091 . S
Co210 O214 2.004 . S
Co210 O220 2.021 . S
Co210 O222 2.137 . S
Co210 O223 2.244 . S
O211 Co210 2.216 . S
O211 C218 1.247 . S
O212 Co210 2.091 . S
O212 C218 1.261 . S
C213 O222 1.247 . S
C213 O223 1.272 . S
O214 Co210 2.004 . S
O214 C219 1.259 . S
Co215 O216 2.061 . S
Co215 O221 2.052 . S
Co215 O223 2.135 . S
O216 Co215 2.061 . S
O216 C219 1.235 . S
C217 O220 1.238 . S
C217 O221 1.241 . S
C218 O211 1.247 . S
C218 O212 1.261 . S
C219 O214 1.259 . S
C219 O216 1.235 . S
O220 Co210 2.021 . S
O220 C217 1.238 . S
O221 Co215 2.052 . S
O221 C217 1.241 . S
O222 Co210 2.137 . S
O222 C213 1.247 . S
O223 Co210 2.244 . S
O223 C213 1.272 . S
O223 Co215 2.135 . S
Co224 O225 2.216 . S
Co224 O226 2.091 . S
Co224 O228 2.004 . S
Co224 O234 2.021 . S
Co224 O236 2.137 . S
Co224 O237 2.244 . S
O225 Co224 2.216 . S
O225 C232 1.247 . S
O226 Co224 2.091 . S
O226 C232 1.261 . S
C227 O236 1.247 . S
C227 O237 1.272 . S
O228 Co224 2.004 . S
O228 C233 1.259 . S
Co229 O230 2.061 . S
Co229 O235 2.052 . S
Co229 O237 2.135 . S
O230 Co229 2.061 . S
O230 C233 1.235 . S
C231 O234 1.238 . S
C231 O235 1.241 . S
C232 O225 1.247 . S
C232 O226 1.261 . S
C233 O228 1.259 . S
C233 O230 1.235 . S
O234 Co224 2.021 . S
O234 C231 1.238 . S
O235 Co229 2.052 . S
O235 C231 1.241 . S
O236 Co224 2.137 . S
O236 C227 1.247 . S
O237 Co224 2.244 . S
O237 C227 1.272 . S
O237 Co229 2.135 . S
Co238 O239 2.216 . S
Co238 O240 2.091 . S
Co238 O242 2.004 . S
Co238 O248 2.021 . S
Co238 O250 2.137 . S
Co238 O251 2.244 . S
O239 Co238 2.216 . S
O239 C246 1.247 . S
O240 Co238 2.091 . S
O240 C246 1.261 . S
C241 O250 1.247 . S
C241 O251 1.272 . S
O242 Co238 2.004 . S
O242 C247 1.259 . S
Co243 O244 2.061 . S
Co243 O249 2.052 . S
Co243 O251 2.135 . S
O244 Co243 2.061 . S
O244 C247 1.235 . S
C245 O248 1.238 . S
C245 O249 1.241 . S
C246 O239 1.247 . S
C246 O240 1.261 . S
C247 O242 1.259 . S
C247 O244 1.235 . S
O248 Co238 2.021 . S
O248 C245 1.238 . S
O249 Co243 2.052 . S
O249 C245 1.241 . S
O250 Co238 2.137 . S
O250 C241 1.247 . S
O251 Co238 2.244 . S
O251 C241 1.272 . S
O251 Co243 2.135 . S
C241 C3 1.839 . S
C213 C17 1.839 . S
C227 C31 1.839 . S
C101 C45 1.839 . S
C115 C59 1.839 . S
C73 C87 1.839 . S
C129 C185 1.839 1_654 S
C143 C199 1.839 1_554 S
C157 C171 1.839 1_544 S
C7 C245 0.824 . S
C217 C21 0.824 . S
C35 C231 0.824 . S
C105 C49 0.824 . S
C63 C119 0.824 . S
C77 C91 0.824 . S
C133 C189 0.824 1_455 S
C203 C147 0.824 . S
C175 C161 0.824 1_545 S
C9 C51 1.919 1_554 S
C65 C23 1.919 1_546 S
C79 C37 1.919 1_656 S
C78 C22 1.823 1_556 S
C36 C50 1.823 1_564 S
C64 C8 1.823 1_656 S
C93 C135 1.918 . S
C149 C107 1.919 . S
C163 C121 1.918 . S
C162 C106 1.823 . S
C120 C134 1.823 . S
C148 C92 1.823 . S
C219 C177 1.918 . S
C233 C191 1.918 . S
C205 C247 1.919 . S
C246 C190 1.823 . S
C204 C218 1.823 . S
C232 C176 1.823 . S
