# Generated by pormake.
# Topology ulh, (4)-cn, num edge types: 1
# Building blocks:
#     Node 0, Type 0, BuildingBlock: MUDLON_clean_sbu_0, # of connection points: 4
#     Node 1, Type 0, BuildingBlock: MUDLON_clean_sbu_0, # of connection points: 4
#     Node 2, Type 0, BuildingBlock: MUDLON_clean_sbu_0, # of connection points: 4
#     Node 3, Type 0, BuildingBlock: MUDLON_clean_sbu_0, # of connection points: 4
#     Node 4, Type 0, BuildingBlock: MUDLON_clean_sbu_0, # of connection points: 4
#     Node 5, Type 0, BuildingBlock: MUDLON_clean_sbu_0, # of connection points: 4
#     Node 6, Type 0, BuildingBlock: MUDLON_clean_sbu_0, # of connection points: 4
#     Node 7, Type 0, BuildingBlock: MUDLON_clean_sbu_0, # of connection points: 4
#     Node 8, Type 0, BuildingBlock: MUDLON_clean_sbu_0, # of connection points: 4
#     Node 9, Type 0, BuildingBlock: MUDLON_clean_sbu_0, # of connection points: 4
#     Node 10, Type 0, BuildingBlock: MUDLON_clean_sbu_0, # of connection points: 4
#     Node 11, Type 0, BuildingBlock: MUDLON_clean_sbu_0, # of connection points: 4
#     Node 12, Type 0, BuildingBlock: MUDLON_clean_sbu_0, # of connection points: 4
#     Node 13, Type 0, BuildingBlock: MUDLON_clean_sbu_0, # of connection points: 4
#     Node 14, Type 0, BuildingBlock: MUDLON_clean_sbu_0, # of connection points: 4
#     Node 15, Type 0, BuildingBlock: MUDLON_clean_sbu_0, # of connection points: 4
#     Node 16, Type 0, BuildingBlock: MUDLON_clean_sbu_0, # of connection points: 4
#     Node 17, Type 0, BuildingBlock: MUDLON_clean_sbu_0, # of connection points: 4
#     Node 18, Type 0, BuildingBlock: MUDLON_clean_sbu_0, # of connection points: 4
#     Node 19, Type 0, BuildingBlock: MUDLON_clean_sbu_0, # of connection points: 4
#     Node 20, Type 0, BuildingBlock: MUDLON_clean_sbu_0, # of connection points: 4
#     Node 21, Type 0, BuildingBlock: MUDLON_clean_sbu_0, # of connection points: 4
#     Node 22, Type 0, BuildingBlock: MUDLON_clean_sbu_0, # of connection points: 4
#     Node 23, Type 0, BuildingBlock: MUDLON_clean_sbu_0, # of connection points: 4
#     Node 24, Type 0, BuildingBlock: MUDLON_clean_sbu_0, # of connection points: 4
#     Node 25, Type 0, BuildingBlock: MUDLON_clean_sbu_0, # of connection points: 4
#     Node 26, Type 0, BuildingBlock: MUDLON_clean_sbu_0, # of connection points: 4
#     Node 27, Type 0, BuildingBlock: MUDLON_clean_sbu_0, # of connection points: 4
#     Node 28, Type 0, BuildingBlock: MUDLON_clean_sbu_0, # of connection points: 4
#     Node 29, Type 0, BuildingBlock: MUDLON_clean_sbu_0, # of connection points: 4
#     Node 30, Type 0, BuildingBlock: MUDLON_clean_sbu_0, # of connection points: 4
#     Node 31, Type 0, BuildingBlock: MUDLON_clean_sbu_0, # of connection points: 4
#     Node 32, Type 0, BuildingBlock: MUDLON_clean_sbu_0, # of connection points: 4
#     Node 33, Type 0, BuildingBlock: MUDLON_clean_sbu_0, # of connection points: 4
#     Node 34, Type 0, BuildingBlock: MUDLON_clean_sbu_0, # of connection points: 4
#     Node 35, Type 0, BuildingBlock: MUDLON_clean_sbu_0, # of connection points: 4
#     Node 36, Type 0, BuildingBlock: MUDLON_clean_sbu_0, # of connection points: 4
#     Node 37, Type 0, BuildingBlock: MUDLON_clean_sbu_0, # of connection points: 4
#     Node 38, Type 0, BuildingBlock: MUDLON_clean_sbu_0, # of connection points: 4
#     Node 39, Type 0, BuildingBlock: MUDLON_clean_sbu_0, # of connection points: 4
#     Node 40, Type 0, BuildingBlock: MUDLON_clean_sbu_0, # of connection points: 4
#     Node 41, Type 0, BuildingBlock: MUDLON_clean_sbu_0, # of connection points: 4
#     Node 42, Type 0, BuildingBlock: MUDLON_clean_sbu_0, # of connection points: 4
#     Node 43, Type 0, BuildingBlock: MUDLON_clean_sbu_0, # of connection points: 4
#     Node 44, Type 0, BuildingBlock: MUDLON_clean_sbu_0, # of connection points: 4
#     Node 45, Type 0, BuildingBlock: MUDLON_clean_sbu_0, # of connection points: 4
#     Node 46, Type 0, BuildingBlock: MUDLON_clean_sbu_0, # of connection points: 4
#     Node 47, Type 0, BuildingBlock: MUDLON_clean_sbu_0, # of connection points: 4
#     Node 48, Type 0, BuildingBlock: MUDLON_clean_sbu_0, # of connection points: 4
#     Node 49, Type 0, BuildingBlock: MUDLON_clean_sbu_0, # of connection points: 4
#     Node 50, Type 0, BuildingBlock: MUDLON_clean_sbu_0, # of connection points: 4
#     Node 51, Type 0, BuildingBlock: MUDLON_clean_sbu_0, # of connection points: 4
#     Node 52, Type 0, BuildingBlock: MUDLON_clean_sbu_0, # of connection points: 4
#     Node 53, Type 0, BuildingBlock: MUDLON_clean_sbu_0, # of connection points: 4
#     Node 54, Type 0, BuildingBlock: MUDLON_clean_sbu_0, # of connection points: 4
#     Node 55, Type 0, BuildingBlock: MUDLON_clean_sbu_0, # of connection points: 4
#     Node 56, Type 0, BuildingBlock: MUDLON_clean_sbu_0, # of connection points: 4
#     Node 57, Type 0, BuildingBlock: MUDLON_clean_sbu_0, # of connection points: 4
#     Node 58, Type 0, BuildingBlock: MUDLON_clean_sbu_0, # of connection points: 4
#     Node 59, Type 0, BuildingBlock: MUDLON_clean_sbu_0, # of connection points: 4
#     Node 60, Type 0, BuildingBlock: MUDLON_clean_sbu_0, # of connection points: 4
#     Node 61, Type 0, BuildingBlock: MUDLON_clean_sbu_0, # of connection points: 4
#     Node 62, Type 0, BuildingBlock: MUDLON_clean_sbu_0, # of connection points: 4
#     Node 63, Type 0, BuildingBlock: MUDLON_clean_sbu_0, # of connection points: 4
#     Node 64, Type 0, BuildingBlock: MUDLON_clean_sbu_0, # of connection points: 4
#     Node 65, Type 0, BuildingBlock: MUDLON_clean_sbu_0, # of connection points: 4
#     Node 66, Type 0, BuildingBlock: MUDLON_clean_sbu_0, # of connection points: 4
#     Node 67, Type 0, BuildingBlock: MUDLON_clean_sbu_0, # of connection points: 4
#     Node 68, Type 0, BuildingBlock: MUDLON_clean_sbu_0, # of connection points: 4
#     Node 69, Type 0, BuildingBlock: MUDLON_clean_sbu_0, # of connection points: 4
#     Node 70, Type 0, BuildingBlock: MUDLON_clean_sbu_0, # of connection points: 4
#     Node 71, Type 0, BuildingBlock: MUDLON_clean_sbu_0, # of connection points: 4
#     Node 72, Type 0, BuildingBlock: MUDLON_clean_sbu_0, # of connection points: 4
#     Node 73, Type 0, BuildingBlock: MUDLON_clean_sbu_0, # of connection points: 4
#     Node 74, Type 0, BuildingBlock: MUDLON_clean_sbu_0, # of connection points: 4
#     Node 75, Type 0, BuildingBlock: MUDLON_clean_sbu_0, # of connection points: 4
#     Node 76, Type 0, BuildingBlock: MUDLON_clean_sbu_0, # of connection points: 4
#     Node 77, Type 0, BuildingBlock: MUDLON_clean_sbu_0, # of connection points: 4
#     Node 78, Type 0, BuildingBlock: MUDLON_clean_sbu_0, # of connection points: 4
#     Node 79, Type 0, BuildingBlock: MUDLON_clean_sbu_0, # of connection points: 4
#     Node 80, Type 0, BuildingBlock: MUDLON_clean_sbu_0, # of connection points: 4
#     Node 81, Type 0, BuildingBlock: MUDLON_clean_sbu_0, # of connection points: 4
#     Node 82, Type 0, BuildingBlock: MUDLON_clean_sbu_0, # of connection points: 4
#     Node 83, Type 0, BuildingBlock: MUDLON_clean_sbu_0, # of connection points: 4
#     Node 84, Type 0, BuildingBlock: MUDLON_clean_sbu_0, # of connection points: 4
#     Node 85, Type 0, BuildingBlock: MUDLON_clean_sbu_0, # of connection points: 4
#     Node 86, Type 0, BuildingBlock: MUDLON_clean_sbu_0, # of connection points: 4
#     Node 87, Type 0, BuildingBlock: MUDLON_clean_sbu_0, # of connection points: 4
#     Node 88, Type 0, BuildingBlock: MUDLON_clean_sbu_0, # of connection points: 4
#     Node 89, Type 0, BuildingBlock: MUDLON_clean_sbu_0, # of connection points: 4
#     Node 90, Type 0, BuildingBlock: MUDLON_clean_sbu_0, # of connection points: 4
#     Node 91, Type 0, BuildingBlock: MUDLON_clean_sbu_0, # of connection points: 4
#     Node 92, Type 0, BuildingBlock: MUDLON_clean_sbu_0, # of connection points: 4
#     Node 93, Type 0, BuildingBlock: MUDLON_clean_sbu_0, # of connection points: 4
#     Node 94, Type 0, BuildingBlock: MUDLON_clean_sbu_0, # of connection points: 4
#     Node 95, Type 0, BuildingBlock: MUDLON_clean_sbu_0, # of connection points: 4
#     Edge 96, Type (0, 0), None
#     Edge 97, Type (0, 0), None
#     Edge 98, Type (0, 0), None
#     Edge 99, Type (0, 0), None
#     Edge 100, Type (0, 0), None
#     Edge 101, Type (0, 0), None
#     Edge 102, Type (0, 0), None
#     Edge 103, Type (0, 0), None
#     Edge 104, Type (0, 0), None
#     Edge 105, Type (0, 0), None
#     Edge 106, Type (0, 0), None
#     Edge 107, Type (0, 0), None
#     Edge 108, Type (0, 0), None
#     Edge 109, Type (0, 0), None
#     Edge 110, Type (0, 0), None
#     Edge 111, Type (0, 0), None
#     Edge 112, Type (0, 0), None
#     Edge 113, Type (0, 0), None
#     Edge 114, Type (0, 0), None
#     Edge 115, Type (0, 0), None
#     Edge 116, Type (0, 0), None
#     Edge 117, Type (0, 0), None
#     Edge 118, Type (0, 0), None
#     Edge 119, Type (0, 0), None
#     Edge 120, Type (0, 0), None
#     Edge 121, Type (0, 0), None
#     Edge 122, Type (0, 0), None
#     Edge 123, Type (0, 0), None
#     Edge 124, Type (0, 0), None
#     Edge 125, Type (0, 0), None
#     Edge 126, Type (0, 0), None
#     Edge 127, Type (0, 0), None
#     Edge 128, Type (0, 0), None
#     Edge 129, Type (0, 0), None
#     Edge 130, Type (0, 0), None
#     Edge 131, Type (0, 0), None
#     Edge 132, Type (0, 0), None
#     Edge 133, Type (0, 0), None
#     Edge 134, Type (0, 0), None
#     Edge 135, Type (0, 0), None
#     Edge 136, Type (0, 0), None
#     Edge 137, Type (0, 0), None
#     Edge 138, Type (0, 0), None
#     Edge 139, Type (0, 0), None
#     Edge 140, Type (0, 0), None
#     Edge 141, Type (0, 0), None
#     Edge 142, Type (0, 0), None
#     Edge 143, Type (0, 0), None
#     Edge 144, Type (0, 0), None
#     Edge 145, Type (0, 0), None
#     Edge 146, Type (0, 0), None
#     Edge 147, Type (0, 0), None
#     Edge 148, Type (0, 0), None
#     Edge 149, Type (0, 0), None
#     Edge 150, Type (0, 0), None
#     Edge 151, Type (0, 0), None
#     Edge 152, Type (0, 0), None
#     Edge 153, Type (0, 0), None
#     Edge 154, Type (0, 0), None
#     Edge 155, Type (0, 0), None
#     Edge 156, Type (0, 0), None
#     Edge 157, Type (0, 0), None
#     Edge 158, Type (0, 0), None
#     Edge 159, Type (0, 0), None
#     Edge 160, Type (0, 0), None
#     Edge 161, Type (0, 0), None
#     Edge 162, Type (0, 0), None
#     Edge 163, Type (0, 0), None
#     Edge 164, Type (0, 0), None
#     Edge 165, Type (0, 0), None
#     Edge 166, Type (0, 0), None
#     Edge 167, Type (0, 0), None
#     Edge 168, Type (0, 0), None
#     Edge 169, Type (0, 0), None
#     Edge 170, Type (0, 0), None
#     Edge 171, Type (0, 0), None
#     Edge 172, Type (0, 0), None
#     Edge 173, Type (0, 0), None
#     Edge 174, Type (0, 0), None
#     Edge 175, Type (0, 0), None
#     Edge 176, Type (0, 0), None
#     Edge 177, Type (0, 0), None
#     Edge 178, Type (0, 0), None
#     Edge 179, Type (0, 0), None
#     Edge 180, Type (0, 0), None
#     Edge 181, Type (0, 0), None
#     Edge 182, Type (0, 0), None
#     Edge 183, Type (0, 0), None
#     Edge 184, Type (0, 0), None
#     Edge 185, Type (0, 0), None
#     Edge 186, Type (0, 0), None
#     Edge 187, Type (0, 0), None
#     Edge 188, Type (0, 0), None
#     Edge 189, Type (0, 0), None
#     Edge 190, Type (0, 0), None
#     Edge 191, Type (0, 0), None
#     Edge 192, Type (0, 0), None
#     Edge 193, Type (0, 0), None
#     Edge 194, Type (0, 0), None
#     Edge 195, Type (0, 0), None
#     Edge 196, Type (0, 0), None
#     Edge 197, Type (0, 0), None
#     Edge 198, Type (0, 0), None
#     Edge 199, Type (0, 0), None
#     Edge 200, Type (0, 0), None
#     Edge 201, Type (0, 0), None
#     Edge 202, Type (0, 0), None
#     Edge 203, Type (0, 0), None
#     Edge 204, Type (0, 0), None
#     Edge 205, Type (0, 0), None
#     Edge 206, Type (0, 0), None
#     Edge 207, Type (0, 0), None
#     Edge 208, Type (0, 0), None
#     Edge 209, Type (0, 0), None
#     Edge 210, Type (0, 0), None
#     Edge 211, Type (0, 0), None
#     Edge 212, Type (0, 0), None
#     Edge 213, Type (0, 0), None
#     Edge 214, Type (0, 0), None
#     Edge 215, Type (0, 0), None
#     Edge 216, Type (0, 0), None
#     Edge 217, Type (0, 0), None
#     Edge 218, Type (0, 0), None
#     Edge 219, Type (0, 0), None
#     Edge 220, Type (0, 0), None
#     Edge 221, Type (0, 0), None
#     Edge 222, Type (0, 0), None
#     Edge 223, Type (0, 0), None
#     Edge 224, Type (0, 0), None
#     Edge 225, Type (0, 0), None
#     Edge 226, Type (0, 0), None
#     Edge 227, Type (0, 0), None
#     Edge 228, Type (0, 0), None
#     Edge 229, Type (0, 0), None
#     Edge 230, Type (0, 0), None
#     Edge 231, Type (0, 0), None
#     Edge 232, Type (0, 0), None
#     Edge 233, Type (0, 0), None
#     Edge 234, Type (0, 0), None
#     Edge 235, Type (0, 0), None
#     Edge 236, Type (0, 0), None
#     Edge 237, Type (0, 0), None
#     Edge 238, Type (0, 0), None
#     Edge 239, Type (0, 0), None
#     Edge 240, Type (0, 0), None
#     Edge 241, Type (0, 0), None
#     Edge 242, Type (0, 0), None
#     Edge 243, Type (0, 0), None
#     Edge 244, Type (0, 0), None
#     Edge 245, Type (0, 0), None
#     Edge 246, Type (0, 0), None
#     Edge 247, Type (0, 0), None
#     Edge 248, Type (0, 0), None
#     Edge 249, Type (0, 0), None
#     Edge 250, Type (0, 0), None
#     Edge 251, Type (0, 0), None
#     Edge 252, Type (0, 0), None
#     Edge 253, Type (0, 0), None
#     Edge 254, Type (0, 0), None
#     Edge 255, Type (0, 0), None
#     Edge 256, Type (0, 0), None
#     Edge 257, Type (0, 0), None
#     Edge 258, Type (0, 0), None
#     Edge 259, Type (0, 0), None
#     Edge 260, Type (0, 0), None
#     Edge 261, Type (0, 0), None
#     Edge 262, Type (0, 0), None
#     Edge 263, Type (0, 0), None
#     Edge 264, Type (0, 0), None
#     Edge 265, Type (0, 0), None
#     Edge 266, Type (0, 0), None
#     Edge 267, Type (0, 0), None
#     Edge 268, Type (0, 0), None
#     Edge 269, Type (0, 0), None
#     Edge 270, Type (0, 0), None
#     Edge 271, Type (0, 0), None
#     Edge 272, Type (0, 0), None
#     Edge 273, Type (0, 0), None
#     Edge 274, Type (0, 0), None
#     Edge 275, Type (0, 0), None
#     Edge 276, Type (0, 0), None
#     Edge 277, Type (0, 0), None
#     Edge 278, Type (0, 0), None
#     Edge 279, Type (0, 0), None
#     Edge 280, Type (0, 0), None
#     Edge 281, Type (0, 0), None
#     Edge 282, Type (0, 0), None
#     Edge 283, Type (0, 0), None
#     Edge 284, Type (0, 0), None
#     Edge 285, Type (0, 0), None
#     Edge 286, Type (0, 0), None
#     Edge 287, Type (0, 0), None
# Relax obj value: 0.239
# Max RMSD: 0.303
# Mean RMSD: 0.303
data_MOF--net-ulh--node1-MUDLON_clean_sbu_0--edge1-none
_symmetry_space_group_name_H-M    P1
_symmetry_Int_Tables_number       1
_symmetry_cell_setting            triclinic
loop_
_symmetry_equiv_pos_as_xyz
'x, y, z'
_cell_length_a     39.672644
_cell_length_b     39.672621
_cell_length_c     39.672171
_cell_angle_alpha  89.999999
_cell_angle_beta   90.000027
_cell_angle_gamma 90.000093
loop_
_atom_site_label
_atom_site_type_symbol
_atom_site_fract_x
_atom_site_fract_y
_atom_site_fract_z
_atom_type_partial_charge
Mg0 Mg 0.04862 0.33125 0.09308 0.0
C1 C 0.01919 0.30688 0.02828 0.0
O2 O 0.0287 0.27828 0.04196 0.0
C3 C 0.05854 0.3807 0.14986 0.0
O4 O 0.07784 0.3562 0.16095 0.0
C5 C 0.03612 0.25963 0.12727 0.0
O6 O 0.06585 0.24941 0.11692 0.0
O7 O 0.0262 0.28949 0.12111 0.0
O8 O 0.02336 0.3342 0.04448 0.0
O9 O 0.10216 0.33477 0.08219 0.0
C10 C 0.10834 0.35863 0.06154 0.0
O11 O 0.08301 0.37452 0.04736 0.0
O12 O 0.04163 0.3766 0.12285 0.0
Mg13 Mg 0.94169 0.29862 0.34307 0.0
C14 C 0.96606 0.26918 0.27828 0.0
O15 O 0.99466 0.2787 0.29196 0.0
C16 C 0.89225 0.30854 0.39986 0.0
O17 O 0.91674 0.32784 0.41095 0.0
C18 C 0.01332 0.28613 0.37728 0.0
O19 O 0.02352 0.31586 0.36695 0.0
O20 O 0.98346 0.2762 0.3711 0.0
O21 O 0.93874 0.27336 0.29447 0.0
O22 O 0.93817 0.35216 0.33219 0.0
C23 C 0.91432 0.35834 0.31154 0.0
O24 O 0.89843 0.33301 0.29736 0.0
O25 O 0.89635 0.29163 0.37285 0.0
Mg26 Mg 0.97432 0.1917 0.59308 0.0
C27 C 1.00376 0.21606 0.52828 0.0
O28 O 0.99425 0.24466 0.54196 0.0
C29 C 0.96441 0.14225 0.64986 0.0
O30 O 0.94511 0.16675 0.66095 0.0
C31 C 0.98682 0.26332 0.62727 0.0
O32 O 0.9571 0.27353 0.61693 0.0
O33 O 0.99675 0.23346 0.62111 0.0
O34 O 0.99958 0.18874 0.54448 0.0
O35 O 0.92079 0.18818 0.58219 0.0
C36 C 0.9146 0.16432 0.56154 0.0
O37 O 0.93994 0.14843 0.54736 0.0
O38 O 0.98132 0.14635 0.62285 0.0
Mg39 Mg 0.08125 0.22433 0.84308 0.0
C40 C 0.05688 0.25376 0.77828 0.0
O41 O 0.02828 0.24425 0.79196 0.0
C42 C 0.1307 0.21441 0.89986 0.0
O43 O 0.1062 0.19511 0.91095 0.0
C44 C 1.00963 0.23682 0.87727 0.0
O45 O 0.99942 0.2071 0.86693 0.0
O46 O 0.03949 0.24675 0.87111 0.0
O47 O 0.0842 0.24958 0.79448 0.0
O48 O 0.08477 0.17079 0.83219 0.0
C49 C 0.10863 0.1646 0.81155 0.0
O50 O 0.12452 0.18994 0.79736 0.0
O51 O 0.1266 0.23132 0.87285 0.0
Mg52 Mg 0.04862 0.69169 0.92989 0.0
C53 C 0.01918 0.71606 0.99468 0.0
O54 O 0.02869 0.74466 0.981 0.0
C55 C 0.05854 0.64225 0.8731 0.0
O56 O 0.07784 0.66675 0.86201 0.0
C57 C 0.03613 0.76331 0.89566 0.0
O58 O 0.06588 0.77351 0.90597 0.0
O59 O 0.02619 0.73346 0.90186 0.0
O60 O 0.02336 0.68874 0.97849 0.0
O61 O 0.10215 0.68818 0.94076 0.0
C62 C 0.10834 0.66432 0.96141 0.0
O63 O 0.08301 0.64843 0.97559 0.0
O64 O 0.04163 0.64635 0.90011 0.0
Mg65 Mg 0.58125 0.29862 0.17988 0.0
C66 C 0.55688 0.26919 0.24468 0.0
O67 O 0.52828 0.2787 0.231 0.0
C68 C 0.6307 0.30854 0.1231 0.0
O69 O 0.6062 0.32784 0.11201 0.0
C70 C 0.50963 0.28612 0.14569 0.0
O71 O 0.49941 0.31585 0.15603 0.0
O72 O 0.53949 0.2762 0.15185 0.0
O73 O 0.5842 0.27336 0.22848 0.0
O74 O 0.58477 0.35216 0.19076 0.0
C75 C 0.60863 0.35834 0.21141 0.0
O76 O 0.62452 0.33301 0.2256 0.0
O77 O 0.62659 0.29163 0.15011 0.0
Mg78 Mg 0.97433 0.83125 0.42989 0.0
C79 C 1.00377 0.80688 0.49468 0.0
O80 O 0.99426 0.77828 0.481 0.0
C81 C 0.96441 0.8807 0.3731 0.0
O82 O 0.94511 0.8562 0.36201 0.0
C83 C 0.98681 0.75964 0.39566 0.0
O84 O 0.95707 0.74944 0.40596 0.0
O85 O 0.99675 0.78948 0.40186 0.0
O86 O 0.99958 0.8342 0.47849 0.0
O87 O 0.92079 0.83477 0.44076 0.0
C88 C 0.91461 0.85863 0.46141 0.0
O89 O 0.93994 0.87452 0.47559 0.0
O90 O 0.98132 0.87659 0.40011 0.0
Mg91 Mg 0.44169 0.22433 0.67988 0.0
C92 C 0.46606 0.25376 0.74468 0.0
O93 O 0.49466 0.24425 0.731 0.0
C94 C 0.39225 0.21441 0.6231 0.0
O95 O 0.41675 0.19511 0.61201 0.0
C96 C 0.51332 0.23682 0.64568 0.0
O97 O 0.52353 0.20709 0.65602 0.0
O98 O 0.48346 0.24675 0.65185 0.0
O99 O 0.43874 0.24958 0.72848 0.0
O100 O 0.43818 0.17079 0.69076 0.0
C101 C 0.41432 0.1646 0.71141 0.0
O102 O 0.39843 0.18994 0.72559 0.0
O103 O 0.39635 0.23132 0.65011 0.0
Mg104 Mg 0.09306 0.04862 0.33126 0.0
C105 C 0.02827 0.01918 0.30689 0.0
O106 O 0.04195 0.02869 0.27829 0.0
C107 C 0.14985 0.05854 0.3807 0.0
O108 O 0.16094 0.07784 0.35621 0.0
C109 C 0.12729 0.03613 0.25964 0.0
O110 O 0.117 0.06588 0.24945 0.0
O111 O 0.12109 0.0262 0.28949 0.0
O112 O 0.04446 0.02336 0.33421 0.0
O113 O 0.08218 0.10216 0.33478 0.0
C114 C 0.06154 0.10834 0.35863 0.0
O115 O 0.04736 0.08301 0.37453 0.0
O116 O 0.12284 0.04163 0.3766 0.0
Mg117 Mg 0.22432 0.34307 0.58126 0.0
C118 C 0.25376 0.27828 0.55689 0.0
O119 O 0.24425 0.29195 0.52829 0.0
C120 C 0.21441 0.39985 0.6307 0.0
O121 O 0.19511 0.41094 0.60621 0.0
C122 C 0.23683 0.37726 0.50963 0.0
O123 O 0.2071 0.36692 0.49942 0.0
O124 O 0.24675 0.3711 0.53949 0.0
O125 O 0.24958 0.29447 0.58421 0.0
O126 O 0.17079 0.33219 0.58478 0.0
C127 C 0.1646 0.31154 0.60863 0.0
O128 O 0.18994 0.29736 0.62452 0.0
O129 O 0.23132 0.37284 0.6266 0.0
Mg130 Mg 0.92988 0.47432 0.83126 0.0
C131 C 0.99467 0.50376 0.80689 0.0
O132 O 0.981 0.49425 0.77829 0.0
C133 C 0.8731 0.46441 0.8807 0.0
O134 O 0.86201 0.44511 0.85621 0.0
C135 C 0.89567 0.48682 0.75963 0.0
O136 O 0.90601 0.45709 0.74942 0.0
O137 O 0.90185 0.49675 0.78949 0.0
O138 O 0.97848 0.49958 0.83421 0.0
O139 O 0.94076 0.42079 0.83478 0.0
C140 C 0.96141 0.4146 0.85863 0.0
O141 O 0.97559 0.43994 0.87453 0.0
O142 O 0.90011 0.48131 0.8766 0.0
Mg143 Mg 0.79862 0.17988 0.08125 0.0
C144 C 0.76918 0.24467 0.05688 0.0
O145 O 0.7787 0.231 0.02828 0.0
C146 C 0.80854 0.1231 0.1307 0.0
O147 O 0.82784 0.11201 0.1062 0.0
C148 C 0.78612 0.1457 1.00962 0.0
O149 O 0.81583 0.15606 0.9994 0.0
O150 O 0.7762 0.15184 0.03949 0.0
O151 O 0.77336 0.22848 0.0842 0.0
O152 O 0.85216 0.19076 0.08477 0.0
C153 C 0.85834 0.21141 0.10863 0.0
O154 O 0.83301 0.22559 0.12452 0.0
O155 O 0.79163 0.15011 0.1266 0.0
Mg156 Mg 0.09307 0.97433 0.69171 0.0
C157 C 0.02828 1.00376 0.71608 0.0
O158 O 0.04195 0.99425 0.74468 0.0
C159 C 0.14985 0.96441 0.64225 0.0
O160 O 0.16094 0.94511 0.66675 0.0
C161 C 0.12725 0.98683 0.76334 0.0
O162 O 0.11688 0.95712 0.77356 0.0
O163 O 0.1211 0.99675 0.73347 0.0
O164 O 0.04447 0.99958 0.68876 0.0
O165 O 0.08219 0.92079 0.68819 0.0
C166 C 0.06154 0.9146 0.66433 0.0
O167 O 0.04736 0.93994 0.64843 0.0
O168 O 0.12284 0.98132 0.64636 0.0
Mg169 Mg 0.29862 0.34307 0.9417 0.0
C170 C 0.26919 0.27828 0.96608 0.0
O171 O 0.2787 0.29195 0.99468 0.0
C172 C 0.30854 0.39985 0.89225 0.0
O173 O 0.32784 0.41094 0.91675 0.0
C174 C 0.2861 0.37723 0.01334 0.0
O175 O 0.3158 0.36682 0.02358 0.0
O176 O 0.27621 0.37111 0.98347 0.0
O177 O 0.27336 0.29447 0.93876 0.0
O178 O 0.35216 0.33219 0.93818 0.0
C179 C 0.35834 0.31154 0.91433 0.0
O180 O 0.33301 0.29736 0.89844 0.0
O181 O 0.29163 0.37284 0.89636 0.0
Mg182 Mg 0.92988 0.54862 0.19171 0.0
C183 C 0.99467 0.51918 0.21608 0.0
O184 O 0.98099 0.52869 0.24468 0.0
C185 C 0.8731 0.55854 0.14225 0.0
O186 O 0.86201 0.57784 0.16675 0.0
C187 C 0.8957 0.53611 0.26334 0.0
O188 O 0.90608 0.56582 0.27356 0.0
O189 O 0.90184 0.5262 0.23347 0.0
O190 O 0.97848 0.52336 0.18876 0.0
O191 O 0.94076 0.60216 0.18819 0.0
C192 C 0.9614 0.60834 0.16433 0.0
O193 O 0.97558 0.58301 0.14843 0.0
O194 O 0.90011 0.54163 0.14636 0.0
Mg195 Mg 0.72432 0.17988 0.4417 0.0
C196 C 0.75376 0.24467 0.46608 0.0
O197 O 0.74424 0.231 0.49468 0.0
C198 C 0.71441 0.1231 0.39225 0.0
O199 O 0.69511 0.112 0.41675 0.0
C200 C 0.73684 0.14572 0.51334 0.0
O201 O 0.70715 0.15614 0.52358 0.0
O202 O 0.74674 0.15184 0.48347 0.0
O203 O 0.74958 0.22848 0.43876 0.0
O204 O 0.67079 0.19076 0.43818 0.0
C205 C 0.6646 0.21141 0.41433 0.0
O206 O 0.68994 0.22559 0.39844 0.0
O207 O 0.73131 0.15011 0.39636 0.0
Mg208 Mg 0.33125 0.09307 0.04863 0.0
C209 C 0.30688 0.02828 0.01919 0.0
O210 O 0.27828 0.04195 0.0287 0.0
C211 C 0.3807 0.14985 0.05855 0.0
O212 O 0.3562 0.16094 0.07785 0.0
C213 C 0.25963 0.12728 0.03614 0.0
O214 O 0.24943 0.11696 0.06587 0.0
O215 O 0.28949 0.1211 0.02621 0.0
O216 O 0.3342 0.04447 0.02337 0.0
O217 O 0.33477 0.08219 0.10216 0.0
C218 C 0.35863 0.06154 0.10835 0.0
O219 O 0.37452 0.04736 0.08301 0.0
O220 O 0.37659 0.12284 0.04164 0.0
Mg221 Mg 0.83125 0.92988 0.47433 0.0
C222 C 0.80689 0.99467 0.50377 0.0
O223 O 0.77829 0.981 0.49425 0.0
C224 C 0.88069 0.87309 0.46441 0.0
O225 O 0.8562 0.86199 0.44511 0.0
C226 C 0.75964 0.89565 0.48682 0.0
O227 O 0.74944 0.90596 0.45707 0.0
O228 O 0.78949 0.90185 0.49676 0.0
O229 O 0.83421 0.97848 0.49959 0.0
O230 O 0.83477 0.94076 0.4208 0.0
C231 C 0.85863 0.9614 0.41461 0.0
O232 O 0.87452 0.97559 0.43994 0.0
O233 O 0.87659 0.9001 0.48132 0.0
Mg234 Mg 0.34307 0.08125 0.72433 0.0
C235 C 0.27828 0.05689 0.75377 0.0
O236 O 0.29195 0.02829 0.74426 0.0
C237 C 0.39986 0.13069 0.71441 0.0
O238 O 0.41095 0.1062 0.69511 0.0
C239 C 0.3773 1.00964 0.73681 0.0
O240 O 0.36702 0.99945 0.70706 0.0
O241 O 0.37109 0.03948 0.74676 0.0
O242 O 0.29447 0.08421 0.74959 0.0
O243 O 0.33219 0.08477 0.6708 0.0
C244 C 0.31154 0.10863 0.66461 0.0
O245 O 0.29736 0.12452 0.68994 0.0
O246 O 0.37285 0.12659 0.73132 0.0
Mg247 Mg 0.19169 0.59307 0.97433 0.0
C248 C 0.21606 0.52828 1.00377 0.0
O249 O 0.24466 0.54195 0.99425 0.0
C250 C 0.14225 0.64986 0.96441 0.0
O251 O 0.16675 0.66095 0.94511 0.0
C252 C 0.26331 0.62728 0.98682 0.0
O253 O 0.27352 0.61695 0.95709 0.0
O254 O 0.23346 0.6211 0.99675 0.0
O255 O 0.18874 0.54447 0.99959 0.0
O256 O 0.18817 0.58219 0.92079 0.0
C257 C 0.16432 0.56154 0.91461 0.0
O258 O 0.14843 0.54736 0.93994 0.0
O259 O 0.14635 0.62285 0.98132 0.0
Mg260 Mg 0.17988 0.9417 0.22433 0.0
C261 C 0.24467 0.96607 0.25377 0.0
O262 O 0.23099 0.99467 0.24426 0.0
C263 C 0.1231 0.89225 0.21441 0.0
O264 O 0.11201 0.91675 0.19511 0.0
C265 C 0.14567 0.01332 0.23683 0.0
O266 O 0.15601 0.02352 0.2071 0.0
O267 O 0.15185 0.98346 0.24675 0.0
O268 O 0.22848 0.93875 0.24959 0.0
O269 O 0.19076 0.93818 0.1708 0.0
C270 C 0.21141 0.91432 0.16461 0.0
O271 O 0.22559 0.89843 0.18995 0.0
O272 O 0.15011 0.89635 0.23132 0.0
Mg273 Mg 0.69169 0.92988 0.04863 0.0
C274 C 0.71606 0.99467 0.01919 0.0
O275 O 0.74466 0.981 0.0287 0.0
C276 C 0.64225 0.87309 0.05855 0.0
O277 O 0.66674 0.862 0.07785 0.0
C278 C 0.76331 0.89567 0.03613 0.0
O279 O 0.77352 0.90599 0.06587 0.0
O280 O 0.73346 0.90185 0.0262 0.0
O281 O 0.68874 0.97848 0.02337 0.0
O282 O 0.68817 0.94076 0.10216 0.0
C283 C 0.66432 0.96141 0.10835 0.0
O284 O 0.64843 0.97559 0.08301 0.0
O285 O 0.64635 0.9001 0.04164 0.0
Mg286 Mg 0.34307 0.4417 0.79863 0.0
C287 C 0.27828 0.46607 0.76919 0.0
O288 O 0.29195 0.49467 0.7787 0.0
C289 C 0.39985 0.39225 0.80854 0.0
O290 O 0.41094 0.41674 0.82784 0.0
C291 C 0.37724 0.51333 0.78612 0.0
O292 O 0.36685 0.52356 0.81582 0.0
O293 O 0.37111 0.48346 0.77621 0.0
O294 O 0.29447 0.43875 0.77337 0.0
O295 O 0.33219 0.43817 0.85216 0.0
C296 C 0.31154 0.41431 0.85834 0.0
O297 O 0.29736 0.39842 0.83301 0.0
O298 O 0.37284 0.39635 0.79163 0.0
Mg299 Mg 0.67988 0.08125 0.29862 0.0
C300 C 0.74467 0.05688 0.26919 0.0
O301 O 0.731 0.02829 0.2787 0.0
C302 C 0.62309 0.1307 0.30854 0.0
O303 O 0.612 0.1062 0.32784 0.0
C304 C 0.64569 1.00962 0.28612 0.0
O305 O 0.65605 0.99941 0.31584 0.0
O306 O 0.65184 0.03949 0.27621 0.0
O307 O 0.72848 0.0842 0.27337 0.0
O308 O 0.69076 0.08478 0.35216 0.0
C309 C 0.7114 0.10864 0.35834 0.0
O310 O 0.72559 0.12453 0.33301 0.0
O311 O 0.6501 0.1266 0.29163 0.0
Mg312 Mg 0.04862 0.83125 0.59308 0.0
C313 C 0.01918 0.80688 0.52828 0.0
O314 O 0.0287 0.77828 0.54196 0.0
C315 C 0.05854 0.88069 0.64986 0.0
O316 O 0.07784 0.8562 0.66096 0.0
C317 C 0.03612 0.75963 0.62727 0.0
O318 O 0.06585 0.74942 0.61693 0.0
O319 O 0.0262 0.78949 0.62111 0.0
O320 O 0.02336 0.8342 0.54448 0.0
O321 O 0.10216 0.83477 0.58219 0.0
C322 C 0.10834 0.85863 0.56154 0.0
O323 O 0.08301 0.87452 0.54736 0.0
O324 O 0.04163 0.87659 0.62285 0.0
Mg325 Mg 0.94169 0.79862 0.84307 0.0
C326 C 0.96606 0.76918 0.77828 0.0
O327 O 0.99466 0.7787 0.79196 0.0
C328 C 0.89225 0.80854 0.89986 0.0
O329 O 0.91674 0.82784 0.91095 0.0
C330 C 0.01331 0.78613 0.87728 0.0
O331 O 0.02352 0.81586 0.86696 0.0
O332 O 0.98346 0.7762 0.8711 0.0
O333 O 0.93874 0.77336 0.79448 0.0
O334 O 0.93817 0.85216 0.83219 0.0
C335 C 0.91432 0.85834 0.81155 0.0
O336 O 0.89843 0.83301 0.79736 0.0
O337 O 0.89635 0.79163 0.87285 0.0
Mg338 Mg 0.97432 0.6917 0.09308 0.0
C339 C 1.00376 0.71606 0.02828 0.0
O340 O 0.99425 0.74466 0.04196 0.0
C341 C 0.96441 0.64225 0.14986 0.0
O342 O 0.94511 0.66675 0.16096 0.0
C343 C 0.98682 0.76332 0.12727 0.0
O344 O 0.9571 0.77354 0.11692 0.0
O345 O 0.99674 0.73346 0.12111 0.0
O346 O 0.99958 0.68874 0.04448 0.0
O347 O 0.92079 0.68818 0.08219 0.0
C348 C 0.9146 0.66432 0.06154 0.0
O349 O 0.93994 0.64843 0.04736 0.0
O350 O 0.98131 0.64635 0.12285 0.0
Mg351 Mg 0.08125 0.72433 0.34308 0.0
C352 C 0.05689 0.75376 0.27828 0.0
O353 O 0.02829 0.74425 0.29196 0.0
C354 C 0.1307 0.71441 0.39986 0.0
O355 O 0.1062 0.69511 0.41095 0.0
C356 C 1.00963 0.73682 0.37728 0.0
O357 O 0.99942 0.70709 0.36695 0.0
O358 O 0.03949 0.74675 0.37111 0.0
O359 O 0.08421 0.74958 0.29448 0.0
O360 O 0.08477 0.67079 0.33219 0.0
C361 C 0.10863 0.6646 0.31155 0.0
O362 O 0.12452 0.68994 0.29736 0.0
O363 O 0.1266 0.73132 0.37285 0.0
Mg364 Mg 0.04862 0.1917 0.42988 0.0
C365 C 0.01918 0.21606 0.49467 0.0
O366 O 0.02869 0.24466 0.481 0.0
C367 C 0.05854 0.14225 0.3731 0.0
O368 O 0.07784 0.16675 0.362 0.0
C369 C 0.03613 0.26331 0.39566 0.0
O370 O 0.06588 0.2735 0.40595 0.0
O371 O 0.0262 0.23346 0.40186 0.0
O372 O 0.02336 0.18874 0.47848 0.0
O373 O 0.10215 0.18818 0.44077 0.0
C374 C 0.10834 0.16432 0.46141 0.0
O375 O 0.08301 0.14843 0.47559 0.0
O376 O 0.04163 0.14635 0.40011 0.0
Mg377 Mg 0.58125 0.79862 0.67988 0.0
C378 C 0.55688 0.76919 0.74468 0.0
O379 O 0.52828 0.7787 0.731 0.0
C380 C 0.6307 0.80854 0.6231 0.0
O381 O 0.6062 0.82784 0.61201 0.0
C382 C 0.50963 0.78613 0.64568 0.0
O383 O 0.49942 0.81585 0.65602 0.0
O384 O 0.53949 0.7762 0.65185 0.0
O385 O 0.5842 0.77336 0.72848 0.0
O386 O 0.58477 0.85216 0.69076 0.0
C387 C 0.60863 0.85834 0.71141 0.0
O388 O 0.62452 0.83301 0.72559 0.0
O389 O 0.62659 0.79163 0.65011 0.0
Mg390 Mg 0.97433 0.33125 0.92989 0.0
C391 C 1.00377 0.30688 0.99467 0.0
O392 O 0.99426 0.27828 0.981 0.0
C393 C 0.96441 0.38069 0.8731 0.0
O394 O 0.94511 0.3562 0.862 0.0
C395 C 0.98681 0.25964 0.89565 0.0
O396 O 0.95706 0.24945 0.90594 0.0
O397 O 0.99675 0.28948 0.90186 0.0
O398 O 0.99958 0.3342 0.97849 0.0
O399 O 0.92079 0.33477 0.94077 0.0
C400 C 0.9146 0.35862 0.96141 0.0
O401 O 0.93994 0.37452 0.9756 0.0
O402 O 0.98132 0.37659 0.90011 0.0
Mg403 Mg 0.44169 0.72433 0.17988 0.0
C404 C 0.46606 0.75376 0.24468 0.0
O405 O 0.49466 0.74425 0.231 0.0
C406 C 0.39225 0.71441 0.1231 0.0
O407 O 0.41674 0.69511 0.11201 0.0
C408 C 0.51332 0.73682 0.14569 0.0
O409 O 0.52353 0.7071 0.15603 0.0
O410 O 0.48346 0.74675 0.15185 0.0
O411 O 0.43874 0.74958 0.22848 0.0
O412 O 0.43818 0.67079 0.19077 0.0
C413 C 0.41432 0.6646 0.21141 0.0
O414 O 0.39843 0.68994 0.22559 0.0
O415 O 0.39635 0.73132 0.15011 0.0
Mg416 Mg 0.09307 0.54862 0.83126 0.0
C417 C 0.02828 0.51918 0.80689 0.0
O418 O 0.04196 0.52869 0.77829 0.0
C419 C 0.14986 0.55854 0.8807 0.0
O420 O 0.16095 0.57784 0.8562 0.0
C421 C 0.1273 0.53613 0.75964 0.0
O422 O 0.117 0.56588 0.74945 0.0
O423 O 0.12109 0.5262 0.78949 0.0
O424 O 0.04447 0.52336 0.83421 0.0
O425 O 0.08219 0.60216 0.83478 0.0
C426 C 0.06154 0.60834 0.85864 0.0
O427 O 0.04735 0.58301 0.87453 0.0
O428 O 0.12284 0.54163 0.8766 0.0
Mg429 Mg 0.22433 0.84307 0.08126 0.0
C430 C 0.25376 0.77828 0.05689 0.0
O431 O 0.24425 0.79195 0.02829 0.0
C432 C 0.21441 0.89986 0.1307 0.0
O433 O 0.19511 0.91095 0.1062 0.0
C434 C 0.23682 0.87729 1.00964 0.0
O435 O 0.20707 0.86698 0.99944 0.0
O436 O 0.24675 0.87109 0.03949 0.0
O437 O 0.24958 0.79447 0.08421 0.0
O438 O 0.17079 0.83219 0.08478 0.0
C439 C 0.1646 0.81154 0.10863 0.0
O440 O 0.18994 0.79736 0.12452 0.0
O441 O 0.23132 0.87284 0.1266 0.0
Mg442 Mg 0.92988 0.97432 0.33126 0.0
C443 C 0.99467 1.00376 0.30689 0.0
O444 O 0.98099 0.99425 0.27829 0.0
C445 C 0.87309 0.96441 0.3807 0.0
O446 O 0.862 0.94511 0.3562 0.0
C447 C 0.89567 0.98682 0.25963 0.0
O448 O 0.90601 0.95709 0.24942 0.0
O449 O 0.90185 0.99675 0.28949 0.0
O450 O 0.97847 0.99958 0.33421 0.0
O451 O 0.94076 0.92079 0.33478 0.0
C452 C 0.9614 0.91461 0.35864 0.0
O453 O 0.97559 0.93994 0.37453 0.0
O454 O 0.9001 0.98132 0.3766 0.0
Mg455 Mg 0.79862 0.67988 0.58126 0.0
C456 C 0.76919 0.74467 0.55689 0.0
O457 O 0.7787 0.731 0.52829 0.0
C458 C 0.80854 0.6231 0.6307 0.0
O459 O 0.82784 0.61201 0.60621 0.0
C460 C 0.78612 0.64568 0.50963 0.0
O461 O 0.81585 0.65603 0.49942 0.0
O462 O 0.7762 0.65185 0.53949 0.0
O463 O 0.77336 0.72848 0.58421 0.0
O464 O 0.85216 0.69076 0.58478 0.0
C465 C 0.85834 0.71141 0.60863 0.0
O466 O 0.83301 0.72559 0.62453 0.0
O467 O 0.79163 0.65011 0.6266 0.0
Mg468 Mg 0.09307 0.47433 0.19171 0.0
C469 C 0.02828 0.50376 0.21608 0.0
O470 O 0.04195 0.49425 0.24468 0.0
C471 C 0.14985 0.46441 0.14225 0.0
O472 O 0.16094 0.44511 0.16675 0.0
C473 C 0.12724 0.48684 0.26334 0.0
O474 O 0.11686 0.45713 0.27356 0.0
O475 O 0.12111 0.49674 0.23347 0.0
O476 O 0.04447 0.49959 0.18876 0.0
O477 O 0.08219 0.42079 0.18818 0.0
C478 C 0.06154 0.41461 0.16432 0.0
O479 O 0.04736 0.43994 0.14843 0.0
O480 O 0.12284 0.48132 0.14636 0.0
Mg481 Mg 0.29862 0.84307 0.4417 0.0
C482 C 0.26919 0.77828 0.46608 0.0
O483 O 0.2787 0.79195 0.49468 0.0
C484 C 0.30854 0.89985 0.39226 0.0
O485 O 0.32784 0.91094 0.41675 0.0
C486 C 0.28611 0.87723 0.51334 0.0
O487 O 0.31581 0.86683 0.52357 0.0
O488 O 0.2762 0.87111 0.48347 0.0
O489 O 0.27336 0.79447 0.43876 0.0
O490 O 0.35216 0.83219 0.43818 0.0
C491 C 0.35834 0.81154 0.41433 0.0
O492 O 0.33301 0.79736 0.39844 0.0
O493 O 0.29163 0.87284 0.39636 0.0
Mg494 Mg 0.92988 0.04862 0.6917 0.0
C495 C 0.99467 0.01918 0.71608 0.0
O496 O 0.98099 0.0287 0.74468 0.0
C497 C 0.8731 0.05854 0.64225 0.0
O498 O 0.86201 0.07784 0.66675 0.0
C499 C 0.89571 0.03611 0.76334 0.0
O500 O 0.90609 0.06582 0.77357 0.0
O501 O 0.90184 0.0262 0.73347 0.0
O502 O 0.97848 0.02336 0.68876 0.0
O503 O 0.94076 0.10216 0.68818 0.0
C504 C 0.9614 0.10834 0.66432 0.0
O505 O 0.97559 0.08301 0.64843 0.0
O506 O 0.90011 0.04163 0.64636 0.0
Mg507 Mg 0.72432 0.67988 0.94171 0.0
C508 C 0.75376 0.74467 0.96608 0.0
O509 O 0.74424 0.731 0.99468 0.0
C510 C 0.71441 0.6231 0.89225 0.0
O511 O 0.69511 0.612 0.91675 0.0
C512 C 0.73684 0.64572 0.01335 0.0
O513 O 0.70715 0.65614 0.02358 0.0
O514 O 0.74674 0.65184 0.98347 0.0
O515 O 0.74958 0.72848 0.93876 0.0
O516 O 0.67079 0.69076 0.93818 0.0
C517 C 0.6646 0.71141 0.91433 0.0
O518 O 0.68994 0.72559 0.89844 0.0
O519 O 0.73131 0.65011 0.89636 0.0
Mg520 Mg 0.33125 0.59307 0.54863 0.0
C521 C 0.30688 0.52828 0.51919 0.0
O522 O 0.27829 0.54195 0.5287 0.0
C523 C 0.3807 0.64985 0.55855 0.0
O524 O 0.3562 0.66094 0.57785 0.0
C525 C 0.25963 0.62728 0.53614 0.0
O526 O 0.24943 0.61696 0.56587 0.0
O527 O 0.28949 0.6211 0.52621 0.0
O528 O 0.3342 0.54447 0.52337 0.0
O529 O 0.33477 0.58219 0.60216 0.0
C530 C 0.35863 0.56154 0.60835 0.0
O531 O 0.37452 0.54736 0.58301 0.0
O532 O 0.3766 0.62284 0.54164 0.0
Mg533 Mg 0.83126 0.42988 0.97433 0.0
C534 C 0.80689 0.49467 1.00377 0.0
O535 O 0.77829 0.48099 0.99426 0.0
C536 C 0.88069 0.37309 0.96442 0.0
O537 O 0.8562 0.362 0.94511 0.0
C538 C 0.75965 0.39563 0.98681 0.0
O539 O 0.74946 0.4059 0.95705 0.0
O540 O 0.78948 0.40186 0.99676 0.0
O541 O 0.83421 0.47848 0.99959 0.0
O542 O 0.83478 0.44076 0.9208 0.0
C543 C 0.85864 0.4614 0.91462 0.0
O544 O 0.87453 0.47559 0.93995 0.0
O545 O 0.8766 0.4001 0.98133 0.0
Mg546 Mg 0.34307 0.58125 0.22433 0.0
C547 C 0.27828 0.55689 0.25377 0.0
O548 O 0.29195 0.52829 0.24426 0.0
C549 C 0.39986 0.63069 0.21441 0.0
O550 O 0.41095 0.6062 0.19511 0.0
C551 C 0.3773 0.50964 0.23682 0.0
O552 O 0.36702 0.49945 0.20706 0.0
O553 O 0.37109 0.53949 0.24676 0.0
O554 O 0.29447 0.58421 0.24959 0.0
O555 O 0.33219 0.58477 0.1708 0.0
C556 C 0.31154 0.60863 0.16461 0.0
O557 O 0.29736 0.62452 0.18995 0.0
O558 O 0.37285 0.62659 0.23132 0.0
Mg559 Mg 0.19169 0.09307 0.47433 0.0
C560 C 0.21606 0.02828 0.50377 0.0
O561 O 0.24466 0.04195 0.49425 0.0
C562 C 0.14225 0.14986 0.46441 0.0
O563 O 0.16675 0.16095 0.44511 0.0
C564 C 0.26331 0.12729 0.48682 0.0
O565 O 0.27351 0.11698 0.45707 0.0
O566 O 0.23346 0.1211 0.49675 0.0
O567 O 0.18874 0.04447 0.49959 0.0
O568 O 0.18817 0.08219 0.4208 0.0
C569 C 0.16431 0.06154 0.41461 0.0
O570 O 0.14842 0.04736 0.43995 0.0
O571 O 0.14635 0.12285 0.48132 0.0
Mg572 Mg 0.17988 0.4417 0.72433 0.0
C573 C 0.24467 0.46607 0.75377 0.0
O574 O 0.23099 0.49467 0.74426 0.0
C575 C 0.1231 0.39225 0.71441 0.0
O576 O 0.11201 0.41675 0.69511 0.0
C577 C 0.14567 0.51332 0.73682 0.0
O578 O 0.15601 0.52353 0.70709 0.0
O579 O 0.15185 0.48346 0.74675 0.0
O580 O 0.22848 0.43875 0.74959 0.0
O581 O 0.19076 0.43817 0.6708 0.0
C582 C 0.2114 0.41431 0.66461 0.0
O583 O 0.22559 0.39842 0.68995 0.0
O584 O 0.15011 0.39635 0.73132 0.0
Mg585 Mg 0.69169 0.42988 0.54863 0.0
C586 C 0.71606 0.49467 0.51919 0.0
O587 O 0.74466 0.481 0.5287 0.0
C588 C 0.64225 0.37309 0.55855 0.0
O589 O 0.66675 0.36201 0.57785 0.0
C590 C 0.76331 0.39566 0.53614 0.0
O591 O 0.77351 0.40598 0.56588 0.0
O592 O 0.73346 0.40185 0.5262 0.0
O593 O 0.68874 0.47848 0.52337 0.0
O594 O 0.68818 0.44076 0.60216 0.0
C595 C 0.66432 0.46141 0.60835 0.0
O596 O 0.64843 0.47559 0.58301 0.0
O597 O 0.64635 0.4001 0.54164 0.0
Mg598 Mg 0.34307 0.9417 0.29863 0.0
C599 C 0.27828 0.96607 0.26919 0.0
O600 O 0.29195 0.99467 0.2787 0.0
C601 C 0.39985 0.89225 0.30854 0.0
O602 O 0.41094 0.91674 0.32784 0.0
C603 C 0.37725 0.01333 0.28612 0.0
O604 O 0.36687 0.02355 0.31583 0.0
O605 O 0.37111 0.98346 0.27621 0.0
O606 O 0.29447 0.93875 0.27337 0.0
O607 O 0.33219 0.93817 0.35216 0.0
C608 C 0.31154 0.91431 0.35834 0.0
O609 O 0.29736 0.89842 0.33301 0.0
O610 O 0.37284 0.89635 0.29164 0.0
Mg611 Mg 0.67988 0.58125 0.79863 0.0
C612 C 0.74467 0.55688 0.76919 0.0
O613 O 0.731 0.52829 0.77871 0.0
C614 C 0.62309 0.6307 0.80854 0.0
O615 O 0.61201 0.6062 0.82784 0.0
C616 C 0.64568 0.50963 0.78613 0.0
O617 O 0.65604 0.49941 0.81585 0.0
O618 O 0.65185 0.53949 0.77621 0.0
O619 O 0.72848 0.5842 0.77337 0.0
O620 O 0.69076 0.58478 0.85216 0.0
C621 C 0.7114 0.60864 0.85834 0.0
O622 O 0.72559 0.62453 0.83301 0.0
O623 O 0.6501 0.6266 0.79163 0.0
Mg624 Mg 0.54862 0.33125 0.59307 0.0
C625 C 0.51918 0.30688 0.52828 0.0
O626 O 0.52869 0.27829 0.54196 0.0
C627 C 0.55854 0.3807 0.64986 0.0
O628 O 0.57784 0.3562 0.66095 0.0
C629 C 0.53613 0.25964 0.62731 0.0
O630 O 0.56589 0.24945 0.61701 0.0
O631 O 0.5262 0.28948 0.6211 0.0
O632 O 0.52336 0.33421 0.54447 0.0
O633 O 0.60215 0.33478 0.58219 0.0
C634 C 0.60834 0.35863 0.56155 0.0
O635 O 0.58301 0.37452 0.54736 0.0
O636 O 0.54163 0.3766 0.62285 0.0
Mg637 Mg 0.44169 0.29862 0.84307 0.0
C638 C 0.46606 0.26918 0.77828 0.0
O639 O 0.49466 0.27869 0.79196 0.0
C640 C 0.39225 0.30854 0.89986 0.0
O641 O 0.41675 0.32784 0.91096 0.0
C642 C 0.51331 0.28613 0.8773 0.0
O643 O 0.5235 0.31588 0.867 0.0
O644 O 0.48346 0.2762 0.8711 0.0
O645 O 0.43874 0.27336 0.79447 0.0
O646 O 0.43817 0.35215 0.83219 0.0
C647 C 0.41431 0.35834 0.81155 0.0
O648 O 0.39842 0.333 0.79736 0.0
O649 O 0.39635 0.29163 0.87285 0.0
Mg650 Mg 0.47433 0.19169 0.09307 0.0
C651 C 0.50377 0.21606 0.02828 0.0
O652 O 0.49426 0.24466 0.04196 0.0
C653 C 0.46441 0.14225 0.14986 0.0
O654 O 0.44511 0.16674 0.16095 0.0
C655 C 0.48681 0.2633 0.12731 0.0
O656 O 0.45705 0.2735 0.11702 0.0
O657 O 0.49675 0.23346 0.1211 0.0
O658 O 0.49958 0.18874 0.04447 0.0
O659 O 0.42079 0.18817 0.08219 0.0
C660 C 0.41461 0.16431 0.06155 0.0
O661 O 0.43994 0.14842 0.04736 0.0
O662 O 0.48132 0.14635 0.12285 0.0
Mg663 Mg 0.58125 0.22433 0.34307 0.0
C664 C 0.55688 0.25377 0.27829 0.0
O665 O 0.52828 0.24426 0.29196 0.0
C666 C 0.63069 0.21441 0.39986 0.0
O667 O 0.6062 0.19511 0.41096 0.0
C668 C 0.50964 0.23681 0.3773 0.0
O669 O 0.49944 0.20706 0.367 0.0
O670 O 0.53948 0.24675 0.3711 0.0
O671 O 0.5842 0.24959 0.29447 0.0
O672 O 0.58477 0.17079 0.33219 0.0
C673 C 0.60863 0.16461 0.31155 0.0
O674 O 0.62452 0.18994 0.29736 0.0
O675 O 0.62659 0.23132 0.37285 0.0
Mg676 Mg 0.54862 0.6917 0.42988 0.0
C677 C 0.51919 0.71606 0.49468 0.0
O678 O 0.5287 0.74466 0.481 0.0
C679 C 0.55854 0.64225 0.3731 0.0
O680 O 0.57784 0.66675 0.36201 0.0
C681 C 0.53612 0.76332 0.39568 0.0
O682 O 0.56585 0.77353 0.40602 0.0
O683 O 0.5262 0.73346 0.40185 0.0
O684 O 0.52336 0.68874 0.47848 0.0
O685 O 0.60216 0.68818 0.44077 0.0
C686 C 0.60834 0.66432 0.46141 0.0
O687 O 0.58301 0.64843 0.47559 0.0
O688 O 0.54163 0.64635 0.40011 0.0
Mg689 Mg 0.08125 0.29862 0.67988 0.0
C690 C 0.05688 0.26918 0.74467 0.0
O691 O 0.02829 0.27869 0.731 0.0
C692 C 0.13069 0.30854 0.62309 0.0
O693 O 0.1062 0.32784 0.612 0.0
C694 C 1.00964 0.28614 0.64565 0.0
O695 O 0.99945 0.31589 0.65594 0.0
O696 O 0.03948 0.2762 0.65186 0.0
O697 O 0.08421 0.27336 0.72849 0.0
O698 O 0.08478 0.35215 0.69077 0.0
C699 C 0.10863 0.35834 0.71141 0.0
O700 O 0.12453 0.33301 0.7256 0.0
O701 O 0.12659 0.29163 0.65011 0.0
Mg702 Mg 0.47432 0.83125 0.92988 0.0
C703 C 0.50376 0.80688 0.99468 0.0
O704 O 0.49425 0.77829 0.981 0.0
C705 C 0.46441 0.8807 0.8731 0.0
O706 O 0.44511 0.8562 0.86201 0.0
C707 C 0.48682 0.75963 0.89569 0.0
O708 O 0.4571 0.74942 0.90603 0.0
O709 O 0.49675 0.78949 0.90185 0.0
O710 O 0.49958 0.8342 0.97848 0.0
O711 O 0.42079 0.83477 0.94076 0.0
C712 C 0.4146 0.85863 0.96141 0.0
O713 O 0.43994 0.87452 0.97559 0.0
O714 O 0.48132 0.8766 0.90011 0.0
Mg715 Mg 0.94169 0.22433 0.17988 0.0
C716 C 0.96606 0.25377 0.24467 0.0
O717 O 0.99466 0.24426 0.231 0.0
C718 C 0.89225 0.21441 0.12309 0.0
O719 O 0.91675 0.19511 0.112 0.0
C720 C 0.0133 0.23681 0.14565 0.0
O721 O 0.0235 0.20705 0.15593 0.0
O722 O 0.98346 0.24675 0.15186 0.0
O723 O 0.93874 0.24958 0.22848 0.0
O724 O 0.93817 0.17079 0.19077 0.0
C725 C 0.91432 0.1646 0.21141 0.0
O726 O 0.89843 0.18994 0.22559 0.0
O727 O 0.89635 0.23132 0.15011 0.0
Mg728 Mg 0.59307 0.04862 0.83126 0.0
C729 C 0.52828 0.01918 0.80689 0.0
O730 O 0.54195 0.02869 0.77829 0.0
C731 C 0.64985 0.05854 0.8807 0.0
O732 O 0.66094 0.07784 0.85621 0.0
C733 C 0.62726 0.03612 0.75963 0.0
O734 O 0.6169 0.06584 0.74941 0.0
O735 O 0.6211 0.0262 0.78949 0.0
O736 O 0.54447 0.02336 0.83421 0.0
O737 O 0.58219 0.10216 0.83477 0.0
C738 C 0.56154 0.10834 0.85863 0.0
O739 O 0.54736 0.08301 0.87453 0.0
O740 O 0.62284 0.04163 0.8766 0.0
Mg741 Mg 0.72432 0.34307 0.08126 0.0
C742 C 0.75377 0.27828 0.05688 0.0
O743 O 0.74426 0.29195 0.02828 0.0
C744 C 0.71441 0.39985 0.1307 0.0
O745 O 0.69511 0.41094 0.10621 0.0
C746 C 0.73683 0.37726 1.00963 0.0
O747 O 0.70711 0.36689 0.99941 0.0
O748 O 0.74674 0.3711 0.03949 0.0
O749 O 0.74958 0.29447 0.0842 0.0
O750 O 0.67079 0.33219 0.08478 0.0
C751 C 0.66461 0.31154 0.10864 0.0
O752 O 0.68994 0.29735 0.12453 0.0
O753 O 0.73132 0.37284 0.1266 0.0
Mg754 Mg 0.42988 0.47433 0.33126 0.0
C755 C 0.49467 0.50376 0.30689 0.0
O756 O 0.48099 0.49425 0.27829 0.0
C757 C 0.3731 0.46441 0.38071 0.0
O758 O 0.36201 0.44511 0.35621 0.0
C759 C 0.39568 0.48683 0.25963 0.0
O760 O 0.40603 0.4571 0.24942 0.0
O761 O 0.40185 0.49675 0.28949 0.0
O762 O 0.47848 0.49958 0.33421 0.0
O763 O 0.44076 0.42079 0.33478 0.0
C764 C 0.46141 0.4146 0.35863 0.0
O765 O 0.47559 0.43994 0.37453 0.0
O766 O 0.40011 0.48132 0.3766 0.0
Mg767 Mg 0.29862 0.17988 0.58125 0.0
C768 C 0.26918 0.24467 0.55689 0.0
O769 O 0.27869 0.23099 0.52829 0.0
C770 C 0.30854 0.12309 0.6307 0.0
O771 O 0.32784 0.112 0.6062 0.0
C772 C 0.28613 0.14567 0.50963 0.0
O773 O 0.31586 0.15599 0.49943 0.0
O774 O 0.2762 0.15185 0.53949 0.0
O775 O 0.27336 0.22848 0.58421 0.0
O776 O 0.35216 0.19076 0.58478 0.0
C777 C 0.35834 0.2114 0.60864 0.0
O778 O 0.33301 0.22559 0.62453 0.0
O779 O 0.29163 0.1501 0.6266 0.0
Mg780 Mg 0.59307 0.97433 0.1917 0.0
C781 C 0.52828 1.00376 0.21606 0.0
O782 O 0.54195 0.99426 0.24466 0.0
C783 C 0.64986 0.96441 0.14226 0.0
O784 O 0.66095 0.94511 0.16675 0.0
C785 C 0.62731 0.98681 0.26331 0.0
O786 O 0.61704 0.95705 0.27349 0.0
O787 O 0.62109 0.99675 0.23347 0.0
O788 O 0.54447 0.99958 0.18874 0.0
O789 O 0.58219 0.92079 0.18818 0.0
C790 C 0.56154 0.9146 0.16432 0.0
O791 O 0.54736 0.93994 0.14843 0.0
O792 O 0.62284 0.98132 0.14636 0.0
Mg793 Mg 0.79862 0.34307 0.4417 0.0
C794 C 0.76918 0.27828 0.46608 0.0
O795 O 0.77868 0.29196 0.49467 0.0
C796 C 0.80854 0.39985 0.39225 0.0
O797 O 0.82784 0.41094 0.41675 0.0
C798 C 0.78613 0.37729 0.51332 0.0
O799 O 0.81587 0.36697 0.52352 0.0
O800 O 0.7762 0.3711 0.48347 0.0
O801 O 0.77336 0.29447 0.43875 0.0
O802 O 0.85215 0.33219 0.43818 0.0
C803 C 0.85834 0.31154 0.41432 0.0
O804 O 0.83301 0.29735 0.39843 0.0
O805 O 0.79163 0.37284 0.39636 0.0
Mg806 Mg 0.42988 0.54862 0.6917 0.0
C807 C 0.49467 0.51918 0.71606 0.0
O808 O 0.48099 0.52869 0.74466 0.0
C809 C 0.37309 0.55854 0.64226 0.0
O810 O 0.362 0.57784 0.66676 0.0
C811 C 0.39562 0.53615 0.7633 0.0
O812 O 0.40586 0.56592 0.77348 0.0
O813 O 0.40186 0.52619 0.73347 0.0
O814 O 0.47848 0.52336 0.68874 0.0
O815 O 0.44076 0.60216 0.68818 0.0
C816 C 0.46141 0.60834 0.66432 0.0
O817 O 0.47559 0.58301 0.64843 0.0
O818 O 0.4001 0.54163 0.64636 0.0
Mg819 Mg 0.22433 0.17988 0.9417 0.0
C820 C 0.25377 0.24467 0.96607 0.0
O821 O 0.24426 0.23099 0.99467 0.0
C822 C 0.21441 0.1231 0.89225 0.0
O823 O 0.19511 0.11201 0.91675 0.0
C824 C 0.23682 0.14566 0.01332 0.0
O825 O 0.20707 0.15597 0.02352 0.0
O826 O 0.24675 0.15185 0.98347 0.0
O827 O 0.24958 0.22848 0.93875 0.0
O828 O 0.17079 0.19076 0.93818 0.0
C829 C 0.16461 0.21141 0.91432 0.0
O830 O 0.18994 0.22559 0.89843 0.0
O831 O 0.23132 0.15011 0.89636 0.0
Mg832 Mg 0.83126 0.09307 0.54862 0.0
C833 C 0.80689 0.02828 0.51918 0.0
O834 O 0.77829 0.04196 0.52869 0.0
C835 C 0.88069 0.14986 0.55854 0.0
O836 O 0.8562 0.16095 0.57785 0.0
C837 C 0.75966 0.12735 0.53616 0.0
O838 O 0.7495 0.11713 0.56595 0.0
O839 O 0.78948 0.12108 0.52619 0.0
O840 O 0.83421 0.04447 0.52337 0.0
O841 O 0.83478 0.08219 0.60216 0.0
C842 C 0.85864 0.06154 0.60834 0.0
O843 O 0.87453 0.04736 0.58301 0.0
O844 O 0.87659 0.12285 0.54163 0.0
Mg845 Mg 0.33125 0.92988 0.97433 0.0
C846 C 0.30688 0.99467 1.00377 0.0
O847 O 0.27828 0.98099 0.99426 0.0
C848 C 0.38069 0.87309 0.96441 0.0
O849 O 0.3562 0.862 0.94511 0.0
C850 C 0.25963 0.89566 0.98682 0.0
O851 O 0.24943 0.90598 0.95709 0.0
O852 O 0.28948 0.90185 0.99675 0.0
O853 O 0.3342 0.97848 0.99959 0.0
O854 O 0.33477 0.94076 0.9208 0.0
C855 C 0.35863 0.96141 0.91461 0.0
O856 O 0.37452 0.97559 0.93995 0.0
O857 O 0.37659 0.9001 0.98132 0.0
Mg858 Mg 0.84307 0.08125 0.22433 0.0
C859 C 0.77828 0.05688 0.25377 0.0
O860 O 0.79196 0.02829 0.24427 0.0
C861 C 0.89986 0.13069 0.21441 0.0
O862 O 0.91095 0.1062 0.19511 0.0
C863 C 0.8773 1.00964 0.23681 0.0
O864 O 0.86701 0.99945 0.20706 0.0
O865 O 0.87109 0.03948 0.24675 0.0
O866 O 0.79447 0.08421 0.24959 0.0
O867 O 0.83219 0.08478 0.1708 0.0
C868 C 0.81154 0.10864 0.16461 0.0
O869 O 0.79736 0.12453 0.18995 0.0
O870 O 0.87284 0.12659 0.23132 0.0
Mg871 Mg 0.69169 0.59307 0.47433 0.0
C872 C 0.71606 0.52828 0.50377 0.0
O873 O 0.74466 0.54196 0.49427 0.0
C874 C 0.64225 0.64986 0.46441 0.0
O875 O 0.66675 0.66095 0.44511 0.0
C876 C 0.7633 0.6273 0.48681 0.0
O877 O 0.7735 0.61702 0.45706 0.0
O878 O 0.73346 0.62109 0.49676 0.0
O879 O 0.68874 0.54447 0.49959 0.0
O880 O 0.68817 0.58219 0.4208 0.0
C881 C 0.66432 0.56154 0.41461 0.0
O882 O 0.64842 0.54736 0.43995 0.0
O883 O 0.64635 0.62284 0.48132 0.0
Mg884 Mg 0.67988 0.94169 0.72433 0.0
C885 C 0.74467 0.96606 0.75377 0.0
O886 O 0.73099 0.99466 0.74426 0.0
C887 C 0.62309 0.89225 0.71441 0.0
O888 O 0.612 0.91675 0.69511 0.0
C889 C 0.64564 0.0133 0.73681 0.0
O890 O 0.65591 0.02349 0.70705 0.0
O891 O 0.65186 0.98346 0.74676 0.0
O892 O 0.72848 0.93874 0.74959 0.0
O893 O 0.69076 0.93817 0.6708 0.0
C894 C 0.71141 0.91432 0.66461 0.0
O895 O 0.72559 0.89842 0.68995 0.0
O896 O 0.6501 0.89635 0.73132 0.0
Mg897 Mg 0.19169 0.92988 0.54862 0.0
C898 C 0.21606 0.99467 0.51918 0.0
O899 O 0.24465 0.98099 0.52869 0.0
C900 C 0.14225 0.87309 0.55854 0.0
O901 O 0.16675 0.862 0.57785 0.0
C902 C 0.26329 0.89561 0.53616 0.0
O903 O 0.27346 0.90584 0.56594 0.0
O904 O 0.23346 0.90186 0.5262 0.0
O905 O 0.18873 0.97848 0.52337 0.0
O906 O 0.18817 0.94076 0.60216 0.0
C907 C 0.16431 0.9614 0.60834 0.0
O908 O 0.14841 0.97559 0.58301 0.0
O909 O 0.14635 0.9001 0.54163 0.0
Mg910 Mg 0.84307 0.44169 0.29862 0.0
C911 C 0.77828 0.46606 0.26919 0.0
O912 O 0.79195 0.49466 0.2787 0.0
C913 C 0.89986 0.39225 0.30854 0.0
O914 O 0.91095 0.41675 0.32785 0.0
C915 C 0.87732 0.5133 0.28615 0.0
O916 O 0.86707 0.52347 0.31592 0.0
O917 O 0.87109 0.48346 0.2762 0.0
O918 O 0.79447 0.43874 0.27337 0.0
O919 O 0.83219 0.43817 0.35216 0.0
C920 C 0.81154 0.41431 0.35834 0.0
O921 O 0.79735 0.39842 0.33301 0.0
O922 O 0.87285 0.39635 0.29163 0.0
Mg923 Mg 0.17988 0.08126 0.79863 0.0
C924 C 0.24467 0.05689 0.76919 0.0
O925 O 0.23099 0.02829 0.7787 0.0
C926 C 0.12309 0.13069 0.80854 0.0
O927 O 0.112 0.1062 0.82785 0.0
C928 C 0.14563 1.00965 0.78615 0.0
O929 O 0.15589 0.99947 0.81592 0.0
O930 O 0.15186 0.03948 0.7762 0.0
O931 O 0.22848 0.08421 0.77337 0.0
O932 O 0.19076 0.08478 0.85216 0.0
C933 C 0.21141 0.10864 0.85834 0.0
O934 O 0.22559 0.12453 0.83301 0.0
O935 O 0.1501 0.1266 0.79163 0.0
Mg936 Mg 0.54862 0.83125 0.09307 0.0
C937 C 0.51918 0.80688 0.02828 0.0
O938 O 0.52868 0.77829 0.04196 0.0
C939 C 0.55854 0.88069 0.14986 0.0
O940 O 0.57784 0.8562 0.16096 0.0
C941 C 0.53614 0.75964 0.12731 0.0
O942 O 0.56589 0.74945 0.11702 0.0
O943 O 0.5262 0.78948 0.1211 0.0
O944 O 0.52336 0.83421 0.04447 0.0
O945 O 0.60215 0.83477 0.08219 0.0
C946 C 0.60834 0.85863 0.06155 0.0
O947 O 0.58301 0.87452 0.04736 0.0
O948 O 0.54163 0.87659 0.12285 0.0
Mg949 Mg 0.44169 0.79862 0.34308 0.0
C950 C 0.46606 0.76918 0.27829 0.0
O951 O 0.49466 0.77869 0.29196 0.0
C952 C 0.39225 0.80854 0.39986 0.0
O953 O 0.41675 0.82784 0.41096 0.0
C954 C 0.51331 0.78613 0.3773 0.0
O955 O 0.5235 0.81589 0.36701 0.0
O956 O 0.48346 0.7762 0.3711 0.0
O957 O 0.43874 0.77336 0.29447 0.0
O958 O 0.43817 0.85215 0.33219 0.0
C959 C 0.41431 0.85834 0.31155 0.0
O960 O 0.39842 0.833 0.29736 0.0
O961 O 0.39635 0.79163 0.37285 0.0
Mg962 Mg 0.47433 0.69169 0.59307 0.0
C963 C 0.50377 0.71606 0.52828 0.0
O964 O 0.49426 0.74466 0.54196 0.0
C965 C 0.46441 0.64225 0.64986 0.0
O966 O 0.44511 0.66675 0.66096 0.0
C967 C 0.48681 0.76331 0.62731 0.0
O968 O 0.45706 0.7735 0.61701 0.0
O969 O 0.49675 0.73346 0.6211 0.0
O970 O 0.49958 0.68874 0.54447 0.0
O971 O 0.42079 0.68817 0.58219 0.0
C972 C 0.41461 0.66431 0.56155 0.0
O973 O 0.43994 0.64842 0.54736 0.0
O974 O 0.48132 0.64635 0.62285 0.0
Mg975 Mg 0.58125 0.72433 0.84307 0.0
C976 C 0.55688 0.75377 0.77829 0.0
O977 O 0.52829 0.74426 0.79196 0.0
C978 C 0.63069 0.71441 0.89986 0.0
O979 O 0.6062 0.69511 0.91096 0.0
C980 C 0.50964 0.73681 0.87731 0.0
O981 O 0.49945 0.70706 0.86702 0.0
O982 O 0.53948 0.74675 0.8711 0.0
O983 O 0.58421 0.74959 0.79447 0.0
O984 O 0.58478 0.67079 0.83219 0.0
C985 C 0.60863 0.66461 0.81155 0.0
O986 O 0.62452 0.68994 0.79736 0.0
O987 O 0.62659 0.73132 0.87285 0.0
Mg988 Mg 0.54862 0.1917 0.92988 0.0
C989 C 0.51918 0.21606 0.99467 0.0
O990 O 0.5287 0.24466 0.981 0.0
C991 C 0.55854 0.14225 0.87309 0.0
O992 O 0.57784 0.16675 0.862 0.0
C993 C 0.53613 0.26332 0.89568 0.0
O994 O 0.56586 0.27352 0.90601 0.0
O995 O 0.5262 0.23346 0.90185 0.0
O996 O 0.52336 0.18874 0.97848 0.0
O997 O 0.60216 0.18818 0.94077 0.0
C998 C 0.60834 0.16432 0.96141 0.0
O999 O 0.58301 0.14843 0.9756 0.0
O1000 O 0.54163 0.14635 0.90011 0.0
Mg1001 Mg 0.08125 0.79862 0.17988 0.0
C1002 C 0.05689 0.76918 0.24467 0.0
O1003 O 0.02829 0.77869 0.231 0.0
C1004 C 0.13069 0.80854 0.12309 0.0
O1005 O 0.1062 0.82784 0.112 0.0
C1006 C 1.00964 0.78614 0.14565 0.0
O1007 O 0.99945 0.8159 0.15592 0.0
O1008 O 0.03948 0.7762 0.15186 0.0
O1009 O 0.08421 0.77336 0.22849 0.0
O1010 O 0.08478 0.85215 0.19077 0.0
C1011 C 0.10864 0.85834 0.21141 0.0
O1012 O 0.12453 0.83301 0.2256 0.0
O1013 O 0.12659 0.79163 0.15011 0.0
Mg1014 Mg 0.47432 0.33125 0.42988 0.0
C1015 C 0.50376 0.30688 0.49467 0.0
O1016 O 0.49425 0.27828 0.481 0.0
C1017 C 0.46441 0.38069 0.3731 0.0
O1018 O 0.44511 0.3562 0.362 0.0
C1019 C 0.48682 0.25963 0.39568 0.0
O1020 O 0.45709 0.24942 0.40601 0.0
O1021 O 0.49675 0.28949 0.40185 0.0
O1022 O 0.49958 0.3342 0.47848 0.0
O1023 O 0.42079 0.33477 0.44077 0.0
C1024 C 0.4146 0.35863 0.46141 0.0
O1025 O 0.43994 0.37452 0.4756 0.0
O1026 O 0.48131 0.37659 0.40011 0.0
Mg1027 Mg 0.94169 0.72433 0.67989 0.0
C1028 C 0.96606 0.75377 0.74467 0.0
O1029 O 0.99466 0.74426 0.731 0.0
C1030 C 0.89225 0.71441 0.6231 0.0
O1031 O 0.91675 0.69511 0.612 0.0
C1032 C 0.01331 0.73681 0.64565 0.0
O1033 O 0.0235 0.70706 0.65594 0.0
O1034 O 0.98346 0.74675 0.65186 0.0
O1035 O 0.93874 0.74958 0.72849 0.0
O1036 O 0.93818 0.67079 0.69077 0.0
C1037 C 0.91432 0.6646 0.71141 0.0
O1038 O 0.89843 0.68994 0.7256 0.0
O1039 O 0.89635 0.73132 0.65011 0.0
Mg1040 Mg 0.59307 0.54862 0.33126 0.0
C1041 C 0.52828 0.51918 0.30689 0.0
O1042 O 0.54195 0.52869 0.27829 0.0
C1043 C 0.64986 0.55854 0.3807 0.0
O1044 O 0.66095 0.57784 0.3562 0.0
C1045 C 0.62726 0.53612 0.25963 0.0
O1046 O 0.6169 0.56584 0.24941 0.0
O1047 O 0.6211 0.5262 0.28949 0.0
O1048 O 0.54447 0.52336 0.33421 0.0
O1049 O 0.58219 0.60216 0.33478 0.0
C1050 C 0.56154 0.60834 0.35864 0.0
O1051 O 0.54736 0.58301 0.37453 0.0
O1052 O 0.62284 0.54163 0.3766 0.0
Mg1053 Mg 0.72433 0.84307 0.58126 0.0
C1054 C 0.75377 0.77828 0.55689 0.0
O1055 O 0.74426 0.79196 0.52829 0.0
C1056 C 0.71441 0.89986 0.6307 0.0
O1057 O 0.69511 0.91095 0.6062 0.0
C1058 C 0.73682 0.87728 0.50964 0.0
O1059 O 0.70709 0.86695 0.49943 0.0
O1060 O 0.74675 0.8711 0.53949 0.0
O1061 O 0.74958 0.79447 0.58421 0.0
O1062 O 0.67079 0.83219 0.58478 0.0
C1063 C 0.66461 0.81154 0.60864 0.0
O1064 O 0.68994 0.79735 0.62453 0.0
O1065 O 0.73132 0.87284 0.6266 0.0
Mg1066 Mg 0.42988 0.97433 0.83126 0.0
C1067 C 0.49467 1.00377 0.80689 0.0
O1068 O 0.48099 0.99426 0.77829 0.0
C1069 C 0.37309 0.96441 0.8807 0.0
O1070 O 0.362 0.94511 0.8562 0.0
C1071 C 0.39568 0.98683 0.75963 0.0
O1072 O 0.40603 0.9571 0.74942 0.0
O1073 O 0.40184 0.99675 0.78949 0.0
O1074 O 0.47848 0.99959 0.83421 0.0
O1075 O 0.44076 0.92079 0.83478 0.0
C1076 C 0.4614 0.91461 0.85864 0.0
O1077 O 0.47559 0.93994 0.87453 0.0
O1078 O 0.4001 0.98132 0.8766 0.0
Mg1079 Mg 0.29862 0.67988 0.08126 0.0
C1080 C 0.26918 0.74467 0.05689 0.0
O1081 O 0.27869 0.73099 0.02829 0.0
C1082 C 0.30854 0.62309 0.1307 0.0
O1083 O 0.32784 0.612 0.10621 0.0
C1084 C 0.28613 0.64565 1.00964 0.0
O1085 O 0.31588 0.65596 0.99944 0.0
O1086 O 0.2762 0.65185 0.03949 0.0
O1087 O 0.27336 0.72848 0.08421 0.0
O1088 O 0.35215 0.69076 0.08478 0.0
C1089 C 0.35834 0.7114 0.10864 0.0
O1090 O 0.333 0.72559 0.12453 0.0
O1091 O 0.29163 0.6501 0.1266 0.0
Mg1092 Mg 0.59307 0.47433 0.6917 0.0
C1093 C 0.52828 0.50376 0.71607 0.0
O1094 O 0.54195 0.49425 0.74466 0.0
C1095 C 0.64986 0.46441 0.64226 0.0
O1096 O 0.66095 0.44511 0.66675 0.0
C1097 C 0.62731 0.48681 0.76331 0.0
O1098 O 0.61703 0.45705 0.7735 0.0
O1099 O 0.62109 0.49675 0.73347 0.0
O1100 O 0.54447 0.49959 0.68874 0.0
O1101 O 0.58219 0.42079 0.68818 0.0
C1102 C 0.56154 0.41461 0.66432 0.0
O1103 O 0.54735 0.43994 0.64843 0.0
O1104 O 0.62285 0.48132 0.64636 0.0
Mg1105 Mg 0.79862 0.84307 0.9417 0.0
C1106 C 0.76918 0.77828 0.96608 0.0
O1107 O 0.77868 0.79196 0.99468 0.0
C1108 C 0.80854 0.89985 0.89226 0.0
O1109 O 0.82784 0.91094 0.91675 0.0
C1110 C 0.78613 0.87729 0.01332 0.0
O1111 O 0.81588 0.86699 0.02352 0.0
O1112 O 0.7762 0.87109 0.98347 0.0
O1113 O 0.77336 0.79447 0.93875 0.0
O1114 O 0.85215 0.83219 0.93818 0.0
C1115 C 0.85834 0.81154 0.91432 0.0
O1116 O 0.833 0.79735 0.89843 0.0
O1117 O 0.79163 0.87284 0.89636 0.0
Mg1118 Mg 0.42988 0.04862 0.1917 0.0
C1119 C 0.49467 0.01918 0.21606 0.0
O1120 O 0.48099 0.02869 0.24466 0.0
C1121 C 0.37309 0.05854 0.14226 0.0
O1122 O 0.362 0.07784 0.16676 0.0
C1123 C 0.39562 0.03615 0.2633 0.0
O1124 O 0.40587 0.06592 0.27348 0.0
O1125 O 0.40186 0.02619 0.23347 0.0
O1126 O 0.47848 0.02336 0.18874 0.0
O1127 O 0.44076 0.10215 0.18818 0.0
C1128 C 0.46141 0.10834 0.16432 0.0
O1129 O 0.4756 0.08301 0.14843 0.0
O1130 O 0.4001 0.04163 0.14636 0.0
Mg1131 Mg 0.22433 0.67988 0.4417 0.0
C1132 C 0.25377 0.74467 0.46608 0.0
O1133 O 0.24426 0.73099 0.49468 0.0
C1134 C 0.21441 0.6231 0.39226 0.0
O1135 O 0.19511 0.61201 0.41675 0.0
C1136 C 0.23682 0.64566 0.51332 0.0
O1137 O 0.20707 0.65597 0.52352 0.0
O1138 O 0.24675 0.65185 0.48347 0.0
O1139 O 0.24958 0.72848 0.43875 0.0
O1140 O 0.17079 0.69076 0.43818 0.0
C1141 C 0.16461 0.71141 0.41432 0.0
O1142 O 0.18994 0.72559 0.39843 0.0
O1143 O 0.23132 0.65011 0.39636 0.0
Mg1144 Mg 0.83126 0.59307 0.04862 0.0
C1145 C 0.80689 0.52828 0.01918 0.0
O1146 O 0.77829 0.54196 0.02869 0.0
C1147 C 0.88069 0.64986 0.05854 0.0
O1148 O 0.8562 0.66095 0.07785 0.0
C1149 C 0.75966 0.62735 0.03616 0.0
O1150 O 0.74949 0.61713 0.06595 0.0
O1151 O 0.78948 0.62108 0.02619 0.0
O1152 O 0.83421 0.54447 0.02337 0.0
O1153 O 0.83478 0.58219 0.10216 0.0
C1154 C 0.85864 0.56154 0.10834 0.0
O1155 O 0.87453 0.54736 0.08301 0.0
O1156 O 0.87659 0.62285 0.04163 0.0
Mg1157 Mg 0.33125 0.42988 0.47433 0.0
C1158 C 0.30689 0.49467 0.50377 0.0
O1159 O 0.27829 0.48099 0.49427 0.0
C1160 C 0.38069 0.37309 0.46442 0.0
O1161 O 0.3562 0.362 0.44511 0.0
C1162 C 0.25964 0.39564 0.48681 0.0
O1163 O 0.24945 0.40592 0.45706 0.0
O1164 O 0.28948 0.40185 0.49676 0.0
O1165 O 0.33421 0.47848 0.49959 0.0
O1166 O 0.33478 0.44076 0.4208 0.0
C1167 C 0.35864 0.4614 0.41462 0.0
O1168 O 0.37453 0.47559 0.43995 0.0
O1169 O 0.37659 0.4001 0.48133 0.0
Mg1170 Mg 0.84307 0.58125 0.72433 0.0
C1171 C 0.77828 0.55688 0.75377 0.0
O1172 O 0.79196 0.52829 0.74427 0.0
C1173 C 0.89986 0.63069 0.71442 0.0
O1174 O 0.91095 0.6062 0.69511 0.0
C1175 C 0.8773 0.50964 0.73682 0.0
O1176 O 0.867 0.49944 0.70707 0.0
O1177 O 0.87109 0.53948 0.74676 0.0
O1178 O 0.79447 0.58421 0.74959 0.0
O1179 O 0.83219 0.58478 0.6708 0.0
C1180 C 0.81154 0.60863 0.66462 0.0
O1181 O 0.79736 0.62453 0.68995 0.0
O1182 O 0.87285 0.62659 0.73133 0.0
Mg1183 Mg 0.69169 0.09307 0.97433 0.0
C1184 C 0.71606 0.02828 1.00377 0.0
O1185 O 0.74466 0.04196 0.99427 0.0
C1186 C 0.64225 0.14986 0.96442 0.0
O1187 O 0.66675 0.16095 0.94511 0.0
C1188 C 0.7633 0.12732 0.98681 0.0
O1189 O 0.77348 0.11706 0.95704 0.0
O1190 O 0.73346 0.12109 0.99676 0.0
O1191 O 0.68874 0.04447 0.99959 0.0
O1192 O 0.68817 0.08219 0.9208 0.0
C1193 C 0.66431 0.06154 0.91462 0.0
O1194 O 0.64842 0.04736 0.93995 0.0
O1195 O 0.64635 0.12285 0.98133 0.0
Mg1196 Mg 0.67988 0.44169 0.22433 0.0
C1197 C 0.74467 0.46606 0.25377 0.0
O1198 O 0.73099 0.49466 0.24426 0.0
C1199 C 0.62309 0.39225 0.21442 0.0
O1200 O 0.612 0.41675 0.19511 0.0
C1201 C 0.64564 0.5133 0.23681 0.0
O1202 O 0.65591 0.52349 0.20705 0.0
O1203 O 0.65186 0.48346 0.24676 0.0
O1204 O 0.72848 0.43874 0.24959 0.0
O1205 O 0.69076 0.43817 0.1708 0.0
C1206 C 0.7114 0.41431 0.16461 0.0
O1207 O 0.72559 0.39842 0.18995 0.0
O1208 O 0.6501 0.39635 0.23133 0.0
Mg1209 Mg 0.19169 0.42988 0.04862 0.0
C1210 C 0.21606 0.49467 0.01918 0.0
O1211 O 0.24466 0.48099 0.02869 0.0
C1212 C 0.14225 0.37309 0.05854 0.0
O1213 O 0.16675 0.362 0.07785 0.0
C1214 C 0.26329 0.39561 0.03616 0.0
O1215 O 0.27346 0.40583 0.06594 0.0
O1216 O 0.23346 0.40187 0.0262 0.0
O1217 O 0.18873 0.47848 0.02337 0.0
O1218 O 0.18817 0.44076 0.10216 0.0
C1219 C 0.16431 0.46141 0.10834 0.0
O1220 O 0.14842 0.47559 0.08301 0.0
O1221 O 0.14635 0.4001 0.04163 0.0
Mg1222 Mg 0.84307 0.94169 0.79863 0.0
C1223 C 0.77828 0.96606 0.76919 0.0
O1224 O 0.79195 0.99466 0.7787 0.0
C1225 C 0.89986 0.89225 0.80854 0.0
O1226 O 0.91095 0.91675 0.82785 0.0
C1227 C 0.87733 0.0133 0.78616 0.0
O1228 O 0.86709 0.02347 0.81593 0.0
O1229 O 0.87108 0.98346 0.7762 0.0
O1230 O 0.79447 0.93874 0.77337 0.0
O1231 O 0.83219 0.93817 0.85216 0.0
C1232 C 0.81154 0.91431 0.85835 0.0
O1233 O 0.79735 0.89842 0.83301 0.0
O1234 O 0.87285 0.89635 0.79163 0.0
Mg1235 Mg 0.17988 0.58126 0.29863 0.0
C1236 C 0.24467 0.55689 0.26919 0.0
O1237 O 0.23099 0.52829 0.2787 0.0
C1238 C 0.12309 0.63069 0.30854 0.0
O1239 O 0.112 0.6062 0.32785 0.0
C1240 C 0.14562 0.50965 0.28616 0.0
O1241 O 0.15587 0.49947 0.31593 0.0
O1242 O 0.15186 0.53948 0.2762 0.0
O1243 O 0.22848 0.58421 0.27337 0.0
O1244 O 0.19076 0.58478 0.35216 0.0
C1245 C 0.21141 0.60864 0.35835 0.0
O1246 O 0.22559 0.62453 0.33301 0.0
O1247 O 0.1501 0.62659 0.29163 0.0
loop_
_geom_bond_atom_site_label_1
_geom_bond_atom_site_label_2
_geom_bond_distance
_geom_bond_site_symmetry_2
_ccdc_geom_bond_type
Mg0 O7 2.141 1_455 S
Mg0 O8 2.048 . S
Mg0 O9 2.048 . S
Mg0 O12 2.141 . S
C1 O2 1.313 . S
C1 O8 1.195 . S
O2 C1 1.313 . S
C3 O4 1.245 . S
C3 O12 1.289 . S
O4 C3 1.245 . S
C5 O6 1.245 1_655 S
C5 O7 1.289 . S
O6 C5 1.245 1_455 S
O7 Mg0 2.141 1_655 S
O7 C5 1.289 . S
O8 Mg0 2.048 . S
O8 C1 1.195 . S
O9 Mg0 2.048 . S
O9 C10 1.195 . S
C10 O9 1.195 . S
C10 O11 1.313 . S
O11 C10 1.313 . S
O12 Mg0 2.141 . S
O12 C3 1.289 . S
Mg13 O20 2.141 . S
Mg13 O21 2.048 . S
Mg13 O22 2.048 . S
Mg13 O25 2.141 . S
C14 O15 1.313 . S
C14 O21 1.195 . S
O15 C14 1.313 . S
C16 O17 1.245 . S
C16 O25 1.289 . S
O17 C16 1.245 . S
C18 O19 1.245 . S
C18 O20 1.289 . S
O19 C18 1.245 . S
O20 Mg13 2.141 . S
O20 C18 1.289 . S
O21 Mg13 2.048 . S
O21 C14 1.195 . S
O22 Mg13 2.048 . S
O22 C23 1.195 . S
C23 O22 1.195 . S
C23 O24 1.313 . S
O24 C23 1.313 . S
O25 Mg13 2.141 . S
O25 C16 1.289 . S
Mg26 O33 2.141 1_655 S
Mg26 O34 2.048 . S
Mg26 O35 2.048 . S
Mg26 O38 2.141 . S
C27 O28 1.313 . S
C27 O34 1.195 . S
O28 C27 1.313 . S
C29 O30 1.245 . S
C29 O38 1.289 . S
O30 C29 1.245 . S
C31 O32 1.245 1_455 S
C31 O33 1.289 . S
O32 C31 1.245 1_655 S
O33 Mg26 2.141 1_455 S
O33 C31 1.289 . S
O34 Mg26 2.048 . S
O34 C27 1.195 . S
O35 Mg26 2.048 . S
O35 C36 1.195 . S
C36 O35 1.195 . S
C36 O37 1.313 . S
O37 C36 1.313 . S
O38 Mg26 2.141 . S
O38 C29 1.289 . S
Mg39 O46 2.141 . S
Mg39 O47 2.048 . S
Mg39 O48 2.048 . S
Mg39 O51 2.141 . S
C40 O41 1.313 . S
C40 O47 1.195 . S
O41 C40 1.313 . S
C42 O43 1.245 . S
C42 O51 1.289 . S
O43 C42 1.245 . S
C44 O45 1.245 . S
C44 O46 1.289 . S
O45 C44 1.245 . S
O46 Mg39 2.141 . S
O46 C44 1.289 . S
O47 Mg39 2.048 . S
O47 C40 1.195 . S
O48 Mg39 2.048 . S
O48 C49 1.195 . S
C49 O48 1.195 . S
C49 O50 1.313 . S
O50 C49 1.313 . S
O51 Mg39 2.141 . S
O51 C42 1.289 . S
Mg52 O59 2.141 1_455 S
Mg52 O60 2.048 . S
Mg52 O61 2.048 . S
Mg52 O64 2.141 . S
C53 O54 1.313 . S
C53 O60 1.195 . S
O54 C53 1.313 . S
C55 O56 1.245 . S
C55 O64 1.289 . S
O56 C55 1.245 . S
C57 O58 1.245 1_655 S
C57 O59 1.289 . S
O58 C57 1.245 1_455 S
O59 Mg52 2.141 1_655 S
O59 C57 1.289 . S
O60 Mg52 2.048 . S
O60 C53 1.195 . S
O61 Mg52 2.048 . S
O61 C62 1.195 . S
C62 O61 1.195 . S
C62 O63 1.313 . S
O63 C62 1.313 . S
O64 Mg52 2.141 . S
O64 C55 1.289 . S
Mg65 O72 2.141 . S
Mg65 O73 2.048 . S
Mg65 O74 2.048 . S
Mg65 O77 2.141 . S
C66 O67 1.313 . S
C66 O73 1.195 . S
O67 C66 1.313 . S
C68 O69 1.245 . S
C68 O77 1.289 . S
O69 C68 1.245 . S
C70 O71 1.245 . S
C70 O72 1.289 . S
O71 C70 1.245 . S
O72 Mg65 2.141 . S
O72 C70 1.289 . S
O73 Mg65 2.048 . S
O73 C66 1.195 . S
O74 Mg65 2.048 . S
O74 C75 1.195 . S
C75 O74 1.195 . S
C75 O76 1.313 . S
O76 C75 1.313 . S
O77 Mg65 2.141 . S
O77 C68 1.289 . S
Mg78 O85 2.141 1_655 S
Mg78 O86 2.048 . S
Mg78 O87 2.048 . S
Mg78 O90 2.141 . S
C79 O80 1.313 . S
C79 O86 1.195 . S
O80 C79 1.313 . S
C81 O82 1.245 . S
C81 O90 1.289 . S
O82 C81 1.245 . S
C83 O84 1.245 1_455 S
C83 O85 1.289 . S
O84 C83 1.245 1_655 S
O85 Mg78 2.141 1_455 S
O85 C83 1.289 . S
O86 Mg78 2.048 . S
O86 C79 1.195 . S
O87 Mg78 2.048 . S
O87 C88 1.195 . S
C88 O87 1.195 . S
C88 O89 1.313 . S
O89 C88 1.313 . S
O90 Mg78 2.141 . S
O90 C81 1.289 . S
Mg91 O98 2.141 . S
Mg91 O99 2.048 . S
Mg91 O100 2.048 . S
Mg91 O103 2.141 . S
C92 O93 1.313 . S
C92 O99 1.195 . S
O93 C92 1.313 . S
C94 O95 1.245 . S
C94 O103 1.289 . S
O95 C94 1.245 . S
C96 O97 1.245 . S
C96 O98 1.289 . S
O97 C96 1.245 . S
O98 Mg91 2.141 . S
O98 C96 1.289 . S
O99 Mg91 2.048 . S
O99 C92 1.195 . S
O100 Mg91 2.048 . S
O100 C101 1.195 . S
C101 O100 1.195 . S
C101 O102 1.313 . S
O102 C101 1.313 . S
O103 Mg91 2.141 . S
O103 C94 1.289 . S
Mg104 O111 2.141 1_545 S
Mg104 O112 2.048 . S
Mg104 O113 2.048 . S
Mg104 O116 2.141 . S
C105 O106 1.313 . S
C105 O112 1.195 . S
O106 C105 1.313 . S
C107 O108 1.245 . S
C107 O116 1.289 . S
O108 C107 1.245 . S
C109 O110 1.245 1_565 S
C109 O111 1.289 . S
O110 C109 1.245 1_545 S
O111 Mg104 2.141 1_565 S
O111 C109 1.289 . S
O112 Mg104 2.048 . S
O112 C105 1.195 . S
O113 Mg104 2.048 . S
O113 C114 1.195 . S
C114 O113 1.195 . S
C114 O115 1.313 . S
O115 C114 1.313 . S
O116 Mg104 2.141 . S
O116 C107 1.289 . S
Mg117 O124 2.141 . S
Mg117 O125 2.048 . S
Mg117 O126 2.048 . S
Mg117 O129 2.141 . S
C118 O119 1.313 . S
C118 O125 1.195 . S
O119 C118 1.313 . S
C120 O121 1.245 . S
C120 O129 1.289 . S
O121 C120 1.245 . S
C122 O123 1.245 . S
C122 O124 1.289 . S
O123 C122 1.245 . S
O124 Mg117 2.141 . S
O124 C122 1.289 . S
O125 Mg117 2.048 . S
O125 C118 1.195 . S
O126 Mg117 2.048 . S
O126 C127 1.195 . S
C127 O126 1.195 . S
C127 O128 1.313 . S
O128 C127 1.313 . S
O129 Mg117 2.141 . S
O129 C120 1.289 . S
Mg130 O137 2.141 . S
Mg130 O138 2.048 . S
Mg130 O139 2.048 . S
Mg130 O142 2.141 . S
C131 O132 1.313 . S
C131 O138 1.195 . S
O132 C131 1.313 . S
C133 O134 1.245 . S
C133 O142 1.289 . S
O134 C133 1.245 . S
C135 O136 1.245 . S
C135 O137 1.289 . S
O136 C135 1.245 . S
O137 Mg130 2.141 . S
O137 C135 1.289 . S
O138 Mg130 2.048 . S
O138 C131 1.195 . S
O139 Mg130 2.048 . S
O139 C140 1.195 . S
C140 O139 1.195 . S
C140 O141 1.313 . S
O141 C140 1.313 . S
O142 Mg130 2.141 . S
O142 C133 1.289 . S
Mg143 O150 2.141 . S
Mg143 O151 2.048 . S
Mg143 O152 2.048 . S
Mg143 O155 2.141 . S
C144 O145 1.313 . S
C144 O151 1.195 . S
O145 C144 1.313 . S
C146 O147 1.245 . S
C146 O155 1.289 . S
O147 C146 1.245 . S
C148 O149 1.245 . S
C148 O150 1.289 . S
O149 C148 1.245 . S
O150 Mg143 2.141 . S
O150 C148 1.289 . S
O151 Mg143 2.048 . S
O151 C144 1.195 . S
O152 Mg143 2.048 . S
O152 C153 1.195 . S
C153 O152 1.195 . S
C153 O154 1.313 . S
O154 C153 1.313 . S
O155 Mg143 2.141 . S
O155 C146 1.289 . S
Mg156 O163 2.141 1_565 S
Mg156 O164 2.048 . S
Mg156 O165 2.048 . S
Mg156 O168 2.141 . S
C157 O158 1.313 . S
C157 O164 1.195 . S
O158 C157 1.313 . S
C159 O160 1.245 . S
C159 O168 1.289 . S
O160 C159 1.245 . S
C161 O162 1.245 1_545 S
C161 O163 1.289 . S
O162 C161 1.245 1_565 S
O163 Mg156 2.141 1_545 S
O163 C161 1.289 . S
O164 Mg156 2.048 . S
O164 C157 1.195 . S
O165 Mg156 2.048 . S
O165 C166 1.195 . S
C166 O165 1.195 . S
C166 O167 1.313 . S
O167 C166 1.313 . S
O168 Mg156 2.141 . S
O168 C159 1.289 . S
Mg169 O176 2.141 . S
Mg169 O177 2.048 . S
Mg169 O178 2.048 . S
Mg169 O181 2.141 . S
C170 O171 1.313 . S
C170 O177 1.195 . S
O171 C170 1.313 . S
C172 O173 1.245 . S
C172 O181 1.289 . S
O173 C172 1.245 . S
C174 O175 1.245 . S
C174 O176 1.289 . S
O175 C174 1.245 . S
O176 Mg169 2.141 . S
O176 C174 1.289 . S
O177 Mg169 2.048 . S
O177 C170 1.195 . S
O178 Mg169 2.048 . S
O178 C179 1.195 . S
C179 O178 1.195 . S
C179 O180 1.313 . S
O180 C179 1.313 . S
O181 Mg169 2.141 . S
O181 C172 1.289 . S
Mg182 O189 2.141 . S
Mg182 O190 2.048 . S
Mg182 O191 2.048 . S
Mg182 O194 2.141 . S
C183 O184 1.313 . S
C183 O190 1.195 . S
O184 C183 1.313 . S
C185 O186 1.245 . S
C185 O194 1.289 . S
O186 C185 1.245 . S
C187 O188 1.245 . S
C187 O189 1.289 . S
O188 C187 1.245 . S
O189 Mg182 2.141 . S
O189 C187 1.289 . S
O190 Mg182 2.048 . S
O190 C183 1.195 . S
O191 Mg182 2.048 . S
O191 C192 1.195 . S
C192 O191 1.195 . S
C192 O193 1.313 . S
O193 C192 1.313 . S
O194 Mg182 2.141 . S
O194 C185 1.289 . S
Mg195 O202 2.141 . S
Mg195 O203 2.048 . S
Mg195 O204 2.048 . S
Mg195 O207 2.141 . S
C196 O197 1.313 . S
C196 O203 1.195 . S
O197 C196 1.313 . S
C198 O199 1.245 . S
C198 O207 1.289 . S
O199 C198 1.245 . S
C200 O201 1.245 . S
C200 O202 1.289 . S
O201 C200 1.245 . S
O202 Mg195 2.141 . S
O202 C200 1.289 . S
O203 Mg195 2.048 . S
O203 C196 1.195 . S
O204 Mg195 2.048 . S
O204 C205 1.195 . S
C205 O204 1.195 . S
C205 O206 1.313 . S
O206 C205 1.313 . S
O207 Mg195 2.141 . S
O207 C198 1.289 . S
Mg208 O215 2.141 1_554 S
Mg208 O216 2.048 . S
Mg208 O217 2.048 . S
Mg208 O220 2.141 . S
C209 O210 1.313 . S
C209 O216 1.195 . S
O210 C209 1.313 . S
C211 O212 1.245 . S
C211 O220 1.289 . S
O212 C211 1.245 . S
C213 O214 1.245 1_556 S
C213 O215 1.289 . S
O214 C213 1.245 1_554 S
O215 Mg208 2.141 1_556 S
O215 C213 1.289 . S
O216 Mg208 2.048 . S
O216 C209 1.195 . S
O217 Mg208 2.048 . S
O217 C218 1.195 . S
C218 O217 1.195 . S
C218 O219 1.313 . S
O219 C218 1.313 . S
O220 Mg208 2.141 . S
O220 C211 1.289 . S
Mg221 O228 2.141 . S
Mg221 O229 2.048 . S
Mg221 O230 2.048 . S
Mg221 O233 2.141 . S
C222 O223 1.313 . S
C222 O229 1.195 . S
O223 C222 1.313 . S
C224 O225 1.245 . S
C224 O233 1.289 . S
O225 C224 1.245 . S
C226 O227 1.245 . S
C226 O228 1.289 . S
O227 C226 1.245 . S
O228 Mg221 2.141 . S
O228 C226 1.289 . S
O229 Mg221 2.048 . S
O229 C222 1.195 . S
O230 Mg221 2.048 . S
O230 C231 1.195 . S
C231 O230 1.195 . S
C231 O232 1.313 . S
O232 C231 1.313 . S
O233 Mg221 2.141 . S
O233 C224 1.289 . S
Mg234 O241 2.141 . S
Mg234 O242 2.048 . S
Mg234 O243 2.048 . S
Mg234 O246 2.141 . S
C235 O236 1.313 . S
C235 O242 1.195 . S
O236 C235 1.313 . S
C237 O238 1.245 . S
C237 O246 1.289 . S
O238 C237 1.245 . S
C239 O240 1.245 . S
C239 O241 1.289 . S
O240 C239 1.245 . S
O241 Mg234 2.141 . S
O241 C239 1.289 . S
O242 Mg234 2.048 . S
O242 C235 1.195 . S
O243 Mg234 2.048 . S
O243 C244 1.195 . S
C244 O243 1.195 . S
C244 O245 1.313 . S
O245 C244 1.313 . S
O246 Mg234 2.141 . S
O246 C237 1.289 . S
Mg247 O254 2.141 1_556 S
Mg247 O255 2.048 . S
Mg247 O256 2.048 . S
Mg247 O259 2.141 . S
C248 O249 1.313 . S
C248 O255 1.195 . S
O249 C248 1.313 . S
C250 O251 1.245 . S
C250 O259 1.289 . S
O251 C250 1.245 . S
C252 O253 1.245 1_554 S
C252 O254 1.289 . S
O253 C252 1.245 1_556 S
O254 Mg247 2.141 1_554 S
O254 C252 1.289 . S
O255 Mg247 2.048 . S
O255 C248 1.195 . S
O256 Mg247 2.048 . S
O256 C257 1.195 . S
C257 O256 1.195 . S
C257 O258 1.313 . S
O258 C257 1.313 . S
O259 Mg247 2.141 . S
O259 C250 1.289 . S
Mg260 O267 2.141 . S
Mg260 O268 2.048 . S
Mg260 O269 2.048 . S
Mg260 O272 2.141 . S
C261 O262 1.313 . S
C261 O268 1.195 . S
O262 C261 1.313 . S
C263 O264 1.245 . S
C263 O272 1.289 . S
O264 C263 1.245 . S
C265 O266 1.245 . S
C265 O267 1.289 . S
O266 C265 1.245 . S
O267 Mg260 2.141 . S
O267 C265 1.289 . S
O268 Mg260 2.048 . S
O268 C261 1.195 . S
O269 Mg260 2.048 . S
O269 C270 1.195 . S
C270 O269 1.195 . S
C270 O271 1.313 . S
O271 C270 1.313 . S
O272 Mg260 2.141 . S
O272 C263 1.289 . S
Mg273 O280 2.141 1_554 S
Mg273 O281 2.048 . S
Mg273 O282 2.048 . S
Mg273 O285 2.141 . S
C274 O275 1.313 . S
C274 O281 1.195 . S
O275 C274 1.313 . S
C276 O277 1.245 . S
C276 O285 1.289 . S
O277 C276 1.245 . S
C278 O279 1.245 1_556 S
C278 O280 1.289 . S
O279 C278 1.245 1_554 S
O280 Mg273 2.141 1_556 S
O280 C278 1.289 . S
O281 Mg273 2.048 . S
O281 C274 1.195 . S
O282 Mg273 2.048 . S
O282 C283 1.195 . S
C283 O282 1.195 . S
C283 O284 1.313 . S
O284 C283 1.313 . S
O285 Mg273 2.141 . S
O285 C276 1.289 . S
Mg286 O293 2.141 . S
Mg286 O294 2.048 . S
Mg286 O295 2.048 . S
Mg286 O298 2.141 . S
C287 O288 1.313 . S
C287 O294 1.195 . S
O288 C287 1.313 . S
C289 O290 1.245 . S
C289 O298 1.289 . S
O290 C289 1.245 . S
C291 O292 1.245 . S
C291 O293 1.289 . S
O292 C291 1.245 . S
O293 Mg286 2.141 . S
O293 C291 1.289 . S
O294 Mg286 2.048 . S
O294 C287 1.195 . S
O295 Mg286 2.048 . S
O295 C296 1.195 . S
C296 O295 1.195 . S
C296 O297 1.313 . S
O297 C296 1.313 . S
O298 Mg286 2.141 . S
O298 C289 1.289 . S
Mg299 O306 2.141 . S
Mg299 O307 2.048 . S
Mg299 O308 2.048 . S
Mg299 O311 2.141 . S
C300 O301 1.313 . S
C300 O307 1.195 . S
O301 C300 1.313 . S
C302 O303 1.245 . S
C302 O311 1.289 . S
O303 C302 1.245 . S
C304 O305 1.245 . S
C304 O306 1.289 . S
O305 C304 1.245 . S
O306 Mg299 2.141 . S
O306 C304 1.289 . S
O307 Mg299 2.048 . S
O307 C300 1.195 . S
O308 Mg299 2.048 . S
O308 C309 1.195 . S
C309 O308 1.195 . S
C309 O310 1.313 . S
O310 C309 1.313 . S
O311 Mg299 2.141 . S
O311 C302 1.289 . S
Mg312 O319 2.141 1_455 S
Mg312 O320 2.048 . S
Mg312 O321 2.048 . S
Mg312 O324 2.141 . S
C313 O314 1.313 . S
C313 O320 1.195 . S
O314 C313 1.313 . S
C315 O316 1.245 . S
C315 O324 1.289 . S
O316 C315 1.245 . S
C317 O318 1.245 1_655 S
C317 O319 1.289 . S
O318 C317 1.245 1_455 S
O319 Mg312 2.141 1_655 S
O319 C317 1.289 . S
O320 Mg312 2.048 . S
O320 C313 1.195 . S
O321 Mg312 2.048 . S
O321 C322 1.195 . S
C322 O321 1.195 . S
C322 O323 1.313 . S
O323 C322 1.313 . S
O324 Mg312 2.141 . S
O324 C315 1.289 . S
Mg325 O332 2.141 . S
Mg325 O333 2.048 . S
Mg325 O334 2.048 . S
Mg325 O337 2.141 . S
C326 O327 1.313 . S
C326 O333 1.195 . S
O327 C326 1.313 . S
C328 O329 1.245 . S
C328 O337 1.289 . S
O329 C328 1.245 . S
C330 O331 1.245 . S
C330 O332 1.289 . S
O331 C330 1.245 . S
O332 Mg325 2.141 . S
O332 C330 1.289 . S
O333 Mg325 2.048 . S
O333 C326 1.195 . S
O334 Mg325 2.048 . S
O334 C335 1.195 . S
C335 O334 1.195 . S
C335 O336 1.313 . S
O336 C335 1.313 . S
O337 Mg325 2.141 . S
O337 C328 1.289 . S
Mg338 O345 2.141 1_655 S
Mg338 O346 2.048 . S
Mg338 O347 2.048 . S
Mg338 O350 2.141 . S
C339 O340 1.313 . S
C339 O346 1.195 . S
O340 C339 1.313 . S
C341 O342 1.245 . S
C341 O350 1.289 . S
O342 C341 1.245 . S
C343 O344 1.245 1_455 S
C343 O345 1.289 . S
O344 C343 1.245 1_655 S
O345 Mg338 2.141 1_455 S
O345 C343 1.289 . S
O346 Mg338 2.048 . S
O346 C339 1.195 . S
O347 Mg338 2.048 . S
O347 C348 1.195 . S
C348 O347 1.195 . S
C348 O349 1.313 . S
O349 C348 1.313 . S
O350 Mg338 2.141 . S
O350 C341 1.289 . S
Mg351 O358 2.141 . S
Mg351 O359 2.048 . S
Mg351 O360 2.048 . S
Mg351 O363 2.141 . S
C352 O353 1.313 . S
C352 O359 1.195 . S
O353 C352 1.313 . S
C354 O355 1.245 . S
C354 O363 1.289 . S
O355 C354 1.245 . S
C356 O357 1.245 . S
C356 O358 1.289 . S
O357 C356 1.245 . S
O358 Mg351 2.141 . S
O358 C356 1.289 . S
O359 Mg351 2.048 . S
O359 C352 1.195 . S
O360 Mg351 2.048 . S
O360 C361 1.195 . S
C361 O360 1.195 . S
C361 O362 1.313 . S
O362 C361 1.313 . S
O363 Mg351 2.141 . S
O363 C354 1.289 . S
Mg364 O371 2.141 1_455 S
Mg364 O372 2.048 . S
Mg364 O373 2.048 . S
Mg364 O376 2.141 . S
C365 O366 1.313 . S
C365 O372 1.195 . S
O366 C365 1.313 . S
C367 O368 1.245 . S
C367 O376 1.289 . S
O368 C367 1.245 . S
C369 O370 1.245 1_655 S
C369 O371 1.289 . S
O370 C369 1.245 1_455 S
O371 Mg364 2.141 1_655 S
O371 C369 1.289 . S
O372 Mg364 2.048 . S
O372 C365 1.195 . S
O373 Mg364 2.048 . S
O373 C374 1.195 . S
C374 O373 1.195 . S
C374 O375 1.313 . S
O375 C374 1.313 . S
O376 Mg364 2.141 . S
O376 C367 1.289 . S
Mg377 O384 2.141 . S
Mg377 O385 2.048 . S
Mg377 O386 2.048 . S
Mg377 O389 2.141 . S
C378 O379 1.313 . S
C378 O385 1.195 . S
O379 C378 1.313 . S
C380 O381 1.245 . S
C380 O389 1.289 . S
O381 C380 1.245 . S
C382 O383 1.245 . S
C382 O384 1.289 . S
O383 C382 1.245 . S
O384 Mg377 2.141 . S
O384 C382 1.289 . S
O385 Mg377 2.048 . S
O385 C378 1.195 . S
O386 Mg377 2.048 . S
O386 C387 1.195 . S
C387 O386 1.195 . S
C387 O388 1.313 . S
O388 C387 1.313 . S
O389 Mg377 2.141 . S
O389 C380 1.289 . S
Mg390 O397 2.141 1_655 S
Mg390 O398 2.048 . S
Mg390 O399 2.048 . S
Mg390 O402 2.141 . S
C391 O392 1.313 . S
C391 O398 1.195 . S
O392 C391 1.313 . S
C393 O394 1.245 . S
C393 O402 1.289 . S
O394 C393 1.245 . S
C395 O396 1.245 1_455 S
C395 O397 1.289 . S
O396 C395 1.245 1_655 S
O397 Mg390 2.141 1_455 S
O397 C395 1.289 . S
O398 Mg390 2.048 . S
O398 C391 1.195 . S
O399 Mg390 2.048 . S
O399 C400 1.195 . S
C400 O399 1.195 . S
C400 O401 1.313 . S
O401 C400 1.313 . S
O402 Mg390 2.141 . S
O402 C393 1.289 . S
Mg403 O410 2.141 . S
Mg403 O411 2.048 . S
Mg403 O412 2.048 . S
Mg403 O415 2.141 . S
C404 O405 1.313 . S
C404 O411 1.195 . S
O405 C404 1.313 . S
C406 O407 1.245 . S
C406 O415 1.289 . S
O407 C406 1.245 . S
C408 O409 1.245 . S
C408 O410 1.289 . S
O409 C408 1.245 . S
O410 Mg403 2.141 . S
O410 C408 1.289 . S
O411 Mg403 2.048 . S
O411 C404 1.195 . S
O412 Mg403 2.048 . S
O412 C413 1.195 . S
C413 O412 1.195 . S
C413 O414 1.313 . S
O414 C413 1.313 . S
O415 Mg403 2.141 . S
O415 C406 1.289 . S
Mg416 O423 2.141 . S
Mg416 O424 2.048 . S
Mg416 O425 2.048 . S
Mg416 O428 2.141 . S
C417 O418 1.313 . S
C417 O424 1.195 . S
O418 C417 1.313 . S
C419 O420 1.245 . S
C419 O428 1.289 . S
O420 C419 1.245 . S
C421 O422 1.245 . S
C421 O423 1.289 . S
O422 C421 1.245 . S
O423 Mg416 2.141 . S
O423 C421 1.289 . S
O424 Mg416 2.048 . S
O424 C417 1.195 . S
O425 Mg416 2.048 . S
O425 C426 1.195 . S
C426 O425 1.195 . S
C426 O427 1.313 . S
O427 C426 1.313 . S
O428 Mg416 2.141 . S
O428 C419 1.289 . S
Mg429 O436 2.141 . S
Mg429 O437 2.048 . S
Mg429 O438 2.048 . S
Mg429 O441 2.141 . S
C430 O431 1.313 . S
C430 O437 1.195 . S
O431 C430 1.313 . S
C432 O433 1.245 . S
C432 O441 1.289 . S
O433 C432 1.245 . S
C434 O435 1.245 . S
C434 O436 1.289 . S
O435 C434 1.245 . S
O436 Mg429 2.141 . S
O436 C434 1.289 . S
O437 Mg429 2.048 . S
O437 C430 1.195 . S
O438 Mg429 2.048 . S
O438 C439 1.195 . S
C439 O438 1.195 . S
C439 O440 1.313 . S
O440 C439 1.313 . S
O441 Mg429 2.141 . S
O441 C432 1.289 . S
Mg442 O449 2.141 1_565 S
Mg442 O450 2.048 . S
Mg442 O451 2.048 . S
Mg442 O454 2.141 . S
C443 O444 1.313 . S
C443 O450 1.195 . S
O444 C443 1.313 . S
C445 O446 1.245 . S
C445 O454 1.289 . S
O446 C445 1.245 . S
C447 O448 1.245 1_545 S
C447 O449 1.289 . S
O448 C447 1.245 1_565 S
O449 Mg442 2.141 1_545 S
O449 C447 1.289 . S
O450 Mg442 2.048 . S
O450 C443 1.195 . S
O451 Mg442 2.048 . S
O451 C452 1.195 . S
C452 O451 1.195 . S
C452 O453 1.313 . S
O453 C452 1.313 . S
O454 Mg442 2.141 . S
O454 C445 1.289 . S
Mg455 O462 2.141 . S
Mg455 O463 2.048 . S
Mg455 O464 2.048 . S
Mg455 O467 2.141 . S
C456 O457 1.313 . S
C456 O463 1.195 . S
O457 C456 1.313 . S
C458 O459 1.245 . S
C458 O467 1.289 . S
O459 C458 1.245 . S
C460 O461 1.245 . S
C460 O462 1.289 . S
O461 C460 1.245 . S
O462 Mg455 2.141 . S
O462 C460 1.289 . S
O463 Mg455 2.048 . S
O463 C456 1.195 . S
O464 Mg455 2.048 . S
O464 C465 1.195 . S
C465 O464 1.195 . S
C465 O466 1.313 . S
O466 C465 1.313 . S
O467 Mg455 2.141 . S
O467 C458 1.289 . S
Mg468 O475 2.141 . S
Mg468 O476 2.048 . S
Mg468 O477 2.048 . S
Mg468 O480 2.141 . S
C469 O470 1.313 . S
C469 O476 1.195 . S
O470 C469 1.313 . S
C471 O472 1.245 . S
C471 O480 1.289 . S
O472 C471 1.245 . S
C473 O474 1.245 . S
C473 O475 1.289 . S
O474 C473 1.245 . S
O475 Mg468 2.141 . S
O475 C473 1.289 . S
O476 Mg468 2.048 . S
O476 C469 1.195 . S
O477 Mg468 2.048 . S
O477 C478 1.195 . S
C478 O477 1.195 . S
C478 O479 1.313 . S
O479 C478 1.313 . S
O480 Mg468 2.141 . S
O480 C471 1.289 . S
Mg481 O488 2.141 . S
Mg481 O489 2.048 . S
Mg481 O490 2.048 . S
Mg481 O493 2.141 . S
C482 O483 1.313 . S
C482 O489 1.195 . S
O483 C482 1.313 . S
C484 O485 1.245 . S
C484 O493 1.289 . S
O485 C484 1.245 . S
C486 O487 1.245 . S
C486 O488 1.289 . S
O487 C486 1.245 . S
O488 Mg481 2.141 . S
O488 C486 1.289 . S
O489 Mg481 2.048 . S
O489 C482 1.195 . S
O490 Mg481 2.048 . S
O490 C491 1.195 . S
C491 O490 1.195 . S
C491 O492 1.313 . S
O492 C491 1.313 . S
O493 Mg481 2.141 . S
O493 C484 1.289 . S
Mg494 O501 2.141 1_545 S
Mg494 O502 2.048 . S
Mg494 O503 2.048 . S
Mg494 O506 2.141 . S
C495 O496 1.313 . S
C495 O502 1.195 . S
O496 C495 1.313 . S
C497 O498 1.245 . S
C497 O506 1.289 . S
O498 C497 1.245 . S
C499 O500 1.245 1_565 S
C499 O501 1.289 . S
O500 C499 1.245 1_545 S
O501 Mg494 2.141 1_565 S
O501 C499 1.289 . S
O502 Mg494 2.048 . S
O502 C495 1.195 . S
O503 Mg494 2.048 . S
O503 C504 1.195 . S
C504 O503 1.195 . S
C504 O505 1.313 . S
O505 C504 1.313 . S
O506 Mg494 2.141 . S
O506 C497 1.289 . S
Mg507 O514 2.141 . S
Mg507 O515 2.048 . S
Mg507 O516 2.048 . S
Mg507 O519 2.141 . S
C508 O509 1.313 . S
C508 O515 1.195 . S
O509 C508 1.313 . S
C510 O511 1.245 . S
C510 O519 1.289 . S
O511 C510 1.245 . S
C512 O513 1.245 . S
C512 O514 1.289 . S
O513 C512 1.245 . S
O514 Mg507 2.141 . S
O514 C512 1.289 . S
O515 Mg507 2.048 . S
O515 C508 1.195 . S
O516 Mg507 2.048 . S
O516 C517 1.195 . S
C517 O516 1.195 . S
C517 O518 1.313 . S
O518 C517 1.313 . S
O519 Mg507 2.141 . S
O519 C510 1.289 . S
Mg520 O527 2.141 . S
Mg520 O528 2.048 . S
Mg520 O529 2.048 . S
Mg520 O532 2.141 . S
C521 O522 1.313 . S
C521 O528 1.195 . S
O522 C521 1.313 . S
C523 O524 1.245 . S
C523 O532 1.289 . S
O524 C523 1.245 . S
C525 O526 1.245 . S
C525 O527 1.289 . S
O526 C525 1.245 . S
O527 Mg520 2.141 . S
O527 C525 1.289 . S
O528 Mg520 2.048 . S
O528 C521 1.195 . S
O529 Mg520 2.048 . S
O529 C530 1.195 . S
C530 O529 1.195 . S
C530 O531 1.313 . S
O531 C530 1.313 . S
O532 Mg520 2.141 . S
O532 C523 1.289 . S
Mg533 O540 2.141 1_556 S
Mg533 O541 2.048 . S
Mg533 O542 2.048 . S
Mg533 O545 2.141 . S
C534 O535 1.313 . S
C534 O541 1.195 . S
O535 C534 1.313 . S
C536 O537 1.245 . S
C536 O545 1.289 . S
O537 C536 1.245 . S
C538 O539 1.245 1_554 S
C538 O540 1.289 . S
O539 C538 1.245 1_556 S
O540 Mg533 2.141 1_554 S
O540 C538 1.289 . S
O541 Mg533 2.048 . S
O541 C534 1.195 . S
O542 Mg533 2.048 . S
O542 C543 1.195 . S
C543 O542 1.195 . S
C543 O544 1.313 . S
O544 C543 1.313 . S
O545 Mg533 2.141 . S
O545 C536 1.289 . S
Mg546 O553 2.141 . S
Mg546 O554 2.048 . S
Mg546 O555 2.048 . S
Mg546 O558 2.141 . S
C547 O548 1.313 . S
C547 O554 1.195 . S
O548 C547 1.313 . S
C549 O550 1.245 . S
C549 O558 1.289 . S
O550 C549 1.245 . S
C551 O552 1.245 . S
C551 O553 1.289 . S
O552 C551 1.245 . S
O553 Mg546 2.141 . S
O553 C551 1.289 . S
O554 Mg546 2.048 . S
O554 C547 1.195 . S
O555 Mg546 2.048 . S
O555 C556 1.195 . S
C556 O555 1.195 . S
C556 O557 1.313 . S
O557 C556 1.313 . S
O558 Mg546 2.141 . S
O558 C549 1.289 . S
Mg559 O566 2.141 . S
Mg559 O567 2.048 . S
Mg559 O568 2.048 . S
Mg559 O571 2.141 . S
C560 O561 1.313 . S
C560 O567 1.195 . S
O561 C560 1.313 . S
C562 O563 1.245 . S
C562 O571 1.289 . S
O563 C562 1.245 . S
C564 O565 1.245 . S
C564 O566 1.289 . S
O565 C564 1.245 . S
O566 Mg559 2.141 . S
O566 C564 1.289 . S
O567 Mg559 2.048 . S
O567 C560 1.195 . S
O568 Mg559 2.048 . S
O568 C569 1.195 . S
C569 O568 1.195 . S
C569 O570 1.313 . S
O570 C569 1.313 . S
O571 Mg559 2.141 . S
O571 C562 1.289 . S
Mg572 O579 2.141 . S
Mg572 O580 2.048 . S
Mg572 O581 2.048 . S
Mg572 O584 2.141 . S
C573 O574 1.313 . S
C573 O580 1.195 . S
O574 C573 1.313 . S
C575 O576 1.245 . S
C575 O584 1.289 . S
O576 C575 1.245 . S
C577 O578 1.245 . S
C577 O579 1.289 . S
O578 C577 1.245 . S
O579 Mg572 2.141 . S
O579 C577 1.289 . S
O580 Mg572 2.048 . S
O580 C573 1.195 . S
O581 Mg572 2.048 . S
O581 C582 1.195 . S
C582 O581 1.195 . S
C582 O583 1.313 . S
O583 C582 1.313 . S
O584 Mg572 2.141 . S
O584 C575 1.289 . S
Mg585 O592 2.141 . S
Mg585 O593 2.048 . S
Mg585 O594 2.048 . S
Mg585 O597 2.141 . S
C586 O587 1.313 . S
C586 O593 1.195 . S
O587 C586 1.313 . S
C588 O589 1.245 . S
C588 O597 1.289 . S
O589 C588 1.245 . S
C590 O591 1.245 . S
C590 O592 1.289 . S
O591 C590 1.245 . S
O592 Mg585 2.141 . S
O592 C590 1.289 . S
O593 Mg585 2.048 . S
O593 C586 1.195 . S
O594 Mg585 2.048 . S
O594 C595 1.195 . S
C595 O594 1.195 . S
C595 O596 1.313 . S
O596 C595 1.313 . S
O597 Mg585 2.141 . S
O597 C588 1.289 . S
Mg598 O605 2.141 . S
Mg598 O606 2.048 . S
Mg598 O607 2.048 . S
Mg598 O610 2.141 . S
C599 O600 1.313 . S
C599 O606 1.195 . S
O600 C599 1.313 . S
C601 O602 1.245 . S
C601 O610 1.289 . S
O602 C601 1.245 . S
C603 O604 1.245 . S
C603 O605 1.289 . S
O604 C603 1.245 . S
O605 Mg598 2.141 . S
O605 C603 1.289 . S
O606 Mg598 2.048 . S
O606 C599 1.195 . S
O607 Mg598 2.048 . S
O607 C608 1.195 . S
C608 O607 1.195 . S
C608 O609 1.313 . S
O609 C608 1.313 . S
O610 Mg598 2.141 . S
O610 C601 1.289 . S
Mg611 O618 2.141 . S
Mg611 O619 2.048 . S
Mg611 O620 2.048 . S
Mg611 O623 2.141 . S
C612 O613 1.313 . S
C612 O619 1.195 . S
O613 C612 1.313 . S
C614 O615 1.245 . S
C614 O623 1.289 . S
O615 C614 1.245 . S
C616 O617 1.245 . S
C616 O618 1.289 . S
O617 C616 1.245 . S
O618 Mg611 2.141 . S
O618 C616 1.289 . S
O619 Mg611 2.048 . S
O619 C612 1.195 . S
O620 Mg611 2.048 . S
O620 C621 1.195 . S
C621 O620 1.195 . S
C621 O622 1.313 . S
O622 C621 1.313 . S
O623 Mg611 2.141 . S
O623 C614 1.289 . S
Mg624 O631 2.141 . S
Mg624 O632 2.048 . S
Mg624 O633 2.048 . S
Mg624 O636 2.141 . S
C625 O626 1.313 . S
C625 O632 1.195 . S
O626 C625 1.313 . S
C627 O628 1.245 . S
C627 O636 1.289 . S
O628 C627 1.245 . S
C629 O630 1.245 . S
C629 O631 1.289 . S
O630 C629 1.245 . S
O631 Mg624 2.141 . S
O631 C629 1.289 . S
O632 Mg624 2.048 . S
O632 C625 1.195 . S
O633 Mg624 2.048 . S
O633 C634 1.195 . S
C634 O633 1.195 . S
C634 O635 1.313 . S
O635 C634 1.313 . S
O636 Mg624 2.141 . S
O636 C627 1.289 . S
Mg637 O644 2.141 . S
Mg637 O645 2.048 . S
Mg637 O646 2.048 . S
Mg637 O649 2.141 . S
C638 O639 1.313 . S
C638 O645 1.195 . S
O639 C638 1.313 . S
C640 O641 1.245 . S
C640 O649 1.289 . S
O641 C640 1.245 . S
C642 O643 1.245 . S
C642 O644 1.289 . S
O643 C642 1.245 . S
O644 Mg637 2.141 . S
O644 C642 1.289 . S
O645 Mg637 2.048 . S
O645 C638 1.195 . S
O646 Mg637 2.048 . S
O646 C647 1.195 . S
C647 O646 1.195 . S
C647 O648 1.313 . S
O648 C647 1.313 . S
O649 Mg637 2.141 . S
O649 C640 1.289 . S
Mg650 O657 2.141 . S
Mg650 O658 2.048 . S
Mg650 O659 2.048 . S
Mg650 O662 2.141 . S
C651 O652 1.313 . S
C651 O658 1.195 . S
O652 C651 1.313 . S
C653 O654 1.245 . S
C653 O662 1.289 . S
O654 C653 1.245 . S
C655 O656 1.245 . S
C655 O657 1.289 . S
O656 C655 1.245 . S
O657 Mg650 2.141 . S
O657 C655 1.289 . S
O658 Mg650 2.048 . S
O658 C651 1.195 . S
O659 Mg650 2.048 . S
O659 C660 1.195 . S
C660 O659 1.195 . S
C660 O661 1.313 . S
O661 C660 1.313 . S
O662 Mg650 2.141 . S
O662 C653 1.289 . S
Mg663 O670 2.141 . S
Mg663 O671 2.048 . S
Mg663 O672 2.048 . S
Mg663 O675 2.141 . S
C664 O665 1.313 . S
C664 O671 1.195 . S
O665 C664 1.313 . S
C666 O667 1.245 . S
C666 O675 1.289 . S
O667 C666 1.245 . S
C668 O669 1.245 . S
C668 O670 1.289 . S
O669 C668 1.245 . S
O670 Mg663 2.141 . S
O670 C668 1.289 . S
O671 Mg663 2.048 . S
O671 C664 1.195 . S
O672 Mg663 2.048 . S
O672 C673 1.195 . S
C673 O672 1.195 . S
C673 O674 1.313 . S
O674 C673 1.313 . S
O675 Mg663 2.141 . S
O675 C666 1.289 . S
Mg676 O683 2.141 . S
Mg676 O684 2.048 . S
Mg676 O685 2.048 . S
Mg676 O688 2.141 . S
C677 O678 1.313 . S
C677 O684 1.195 . S
O678 C677 1.313 . S
C679 O680 1.245 . S
C679 O688 1.289 . S
O680 C679 1.245 . S
C681 O682 1.245 . S
C681 O683 1.289 . S
O682 C681 1.245 . S
O683 Mg676 2.141 . S
O683 C681 1.289 . S
O684 Mg676 2.048 . S
O684 C677 1.195 . S
O685 Mg676 2.048 . S
O685 C686 1.195 . S
C686 O685 1.195 . S
C686 O687 1.313 . S
O687 C686 1.313 . S
O688 Mg676 2.141 . S
O688 C679 1.289 . S
Mg689 O696 2.141 . S
Mg689 O697 2.048 . S
Mg689 O698 2.048 . S
Mg689 O701 2.141 . S
C690 O691 1.313 . S
C690 O697 1.195 . S
O691 C690 1.313 . S
C692 O693 1.245 . S
C692 O701 1.289 . S
O693 C692 1.245 . S
C694 O695 1.245 . S
C694 O696 1.289 . S
O695 C694 1.245 . S
O696 Mg689 2.141 . S
O696 C694 1.289 . S
O697 Mg689 2.048 . S
O697 C690 1.195 . S
O698 Mg689 2.048 . S
O698 C699 1.195 . S
C699 O698 1.195 . S
C699 O700 1.313 . S
O700 C699 1.313 . S
O701 Mg689 2.141 . S
O701 C692 1.289 . S
Mg702 O709 2.141 . S
Mg702 O710 2.048 . S
Mg702 O711 2.048 . S
Mg702 O714 2.141 . S
C703 O704 1.313 . S
C703 O710 1.195 . S
O704 C703 1.313 . S
C705 O706 1.245 . S
C705 O714 1.289 . S
O706 C705 1.245 . S
C707 O708 1.245 . S
C707 O709 1.289 . S
O708 C707 1.245 . S
O709 Mg702 2.141 . S
O709 C707 1.289 . S
O710 Mg702 2.048 . S
O710 C703 1.195 . S
O711 Mg702 2.048 . S
O711 C712 1.195 . S
C712 O711 1.195 . S
C712 O713 1.313 . S
O713 C712 1.313 . S
O714 Mg702 2.141 . S
O714 C705 1.289 . S
Mg715 O722 2.141 . S
Mg715 O723 2.048 . S
Mg715 O724 2.048 . S
Mg715 O727 2.141 . S
C716 O717 1.313 . S
C716 O723 1.195 . S
O717 C716 1.313 . S
C718 O719 1.245 . S
C718 O727 1.289 . S
O719 C718 1.245 . S
C720 O721 1.245 . S
C720 O722 1.289 . S
O721 C720 1.245 . S
O722 Mg715 2.141 . S
O722 C720 1.289 . S
O723 Mg715 2.048 . S
O723 C716 1.195 . S
O724 Mg715 2.048 . S
O724 C725 1.195 . S
C725 O724 1.195 . S
C725 O726 1.313 . S
O726 C725 1.313 . S
O727 Mg715 2.141 . S
O727 C718 1.289 . S
Mg728 O735 2.141 1_545 S
Mg728 O736 2.048 . S
Mg728 O737 2.048 . S
Mg728 O740 2.141 . S
C729 O730 1.313 . S
C729 O736 1.195 . S
O730 C729 1.313 . S
C731 O732 1.245 . S
C731 O740 1.289 . S
O732 C731 1.245 . S
C733 O734 1.245 1_565 S
C733 O735 1.289 . S
O734 C733 1.245 1_545 S
O735 Mg728 2.141 1_565 S
O735 C733 1.289 . S
O736 Mg728 2.048 . S
O736 C729 1.195 . S
O737 Mg728 2.048 . S
O737 C738 1.195 . S
C738 O737 1.195 . S
C738 O739 1.313 . S
O739 C738 1.313 . S
O740 Mg728 2.141 . S
O740 C731 1.289 . S
Mg741 O748 2.141 . S
Mg741 O749 2.048 . S
Mg741 O750 2.048 . S
Mg741 O753 2.141 . S
C742 O743 1.313 . S
C742 O749 1.195 . S
O743 C742 1.313 . S
C744 O745 1.245 . S
C744 O753 1.289 . S
O745 C744 1.245 . S
C746 O747 1.245 . S
C746 O748 1.289 . S
O747 C746 1.245 . S
O748 Mg741 2.141 . S
O748 C746 1.289 . S
O749 Mg741 2.048 . S
O749 C742 1.195 . S
O750 Mg741 2.048 . S
O750 C751 1.195 . S
C751 O750 1.195 . S
C751 O752 1.313 . S
O752 C751 1.313 . S
O753 Mg741 2.141 . S
O753 C744 1.289 . S
Mg754 O761 2.141 . S
Mg754 O762 2.048 . S
Mg754 O763 2.048 . S
Mg754 O766 2.141 . S
C755 O756 1.313 . S
C755 O762 1.195 . S
O756 C755 1.313 . S
C757 O758 1.245 . S
C757 O766 1.289 . S
O758 C757 1.245 . S
C759 O760 1.245 . S
C759 O761 1.289 . S
O760 C759 1.245 . S
O761 Mg754 2.141 . S
O761 C759 1.289 . S
O762 Mg754 2.048 . S
O762 C755 1.195 . S
O763 Mg754 2.048 . S
O763 C764 1.195 . S
C764 O763 1.195 . S
C764 O765 1.313 . S
O765 C764 1.313 . S
O766 Mg754 2.141 . S
O766 C757 1.289 . S
Mg767 O774 2.141 . S
Mg767 O775 2.048 . S
Mg767 O776 2.048 . S
Mg767 O779 2.141 . S
C768 O769 1.313 . S
C768 O775 1.195 . S
O769 C768 1.313 . S
C770 O771 1.245 . S
C770 O779 1.289 . S
O771 C770 1.245 . S
C772 O773 1.245 . S
C772 O774 1.289 . S
O773 C772 1.245 . S
O774 Mg767 2.141 . S
O774 C772 1.289 . S
O775 Mg767 2.048 . S
O775 C768 1.195 . S
O776 Mg767 2.048 . S
O776 C777 1.195 . S
C777 O776 1.195 . S
C777 O778 1.313 . S
O778 C777 1.313 . S
O779 Mg767 2.141 . S
O779 C770 1.289 . S
Mg780 O787 2.141 1_565 S
Mg780 O788 2.048 . S
Mg780 O789 2.048 . S
Mg780 O792 2.141 . S
C781 O782 1.313 . S
C781 O788 1.195 . S
O782 C781 1.313 . S
C783 O784 1.245 . S
C783 O792 1.289 . S
O784 C783 1.245 . S
C785 O786 1.245 1_545 S
C785 O787 1.289 . S
O786 C785 1.245 1_565 S
O787 Mg780 2.141 1_545 S
O787 C785 1.289 . S
O788 Mg780 2.048 . S
O788 C781 1.195 . S
O789 Mg780 2.048 . S
O789 C790 1.195 . S
C790 O789 1.195 . S
C790 O791 1.313 . S
O791 C790 1.313 . S
O792 Mg780 2.141 . S
O792 C783 1.289 . S
Mg793 O800 2.141 . S
Mg793 O801 2.048 . S
Mg793 O802 2.048 . S
Mg793 O805 2.141 . S
C794 O795 1.313 . S
C794 O801 1.195 . S
O795 C794 1.313 . S
C796 O797 1.245 . S
C796 O805 1.289 . S
O797 C796 1.245 . S
C798 O799 1.245 . S
C798 O800 1.289 . S
O799 C798 1.245 . S
O800 Mg793 2.141 . S
O800 C798 1.289 . S
O801 Mg793 2.048 . S
O801 C794 1.195 . S
O802 Mg793 2.048 . S
O802 C803 1.195 . S
C803 O802 1.195 . S
C803 O804 1.313 . S
O804 C803 1.313 . S
O805 Mg793 2.141 . S
O805 C796 1.289 . S
Mg806 O813 2.141 . S
Mg806 O814 2.048 . S
Mg806 O815 2.048 . S
Mg806 O818 2.141 . S
C807 O808 1.313 . S
C807 O814 1.195 . S
O808 C807 1.313 . S
C809 O810 1.245 . S
C809 O818 1.289 . S
O810 C809 1.245 . S
C811 O812 1.245 . S
C811 O813 1.289 . S
O812 C811 1.245 . S
O813 Mg806 2.141 . S
O813 C811 1.289 . S
O814 Mg806 2.048 . S
O814 C807 1.195 . S
O815 Mg806 2.048 . S
O815 C816 1.195 . S
C816 O815 1.195 . S
C816 O817 1.313 . S
O817 C816 1.313 . S
O818 Mg806 2.141 . S
O818 C809 1.289 . S
Mg819 O826 2.141 . S
Mg819 O827 2.048 . S
Mg819 O828 2.048 . S
Mg819 O831 2.141 . S
C820 O821 1.313 . S
C820 O827 1.195 . S
O821 C820 1.313 . S
C822 O823 1.245 . S
C822 O831 1.289 . S
O823 C822 1.245 . S
C824 O825 1.245 . S
C824 O826 1.289 . S
O825 C824 1.245 . S
O826 Mg819 2.141 . S
O826 C824 1.289 . S
O827 Mg819 2.048 . S
O827 C820 1.195 . S
O828 Mg819 2.048 . S
O828 C829 1.195 . S
C829 O828 1.195 . S
C829 O830 1.313 . S
O830 C829 1.313 . S
O831 Mg819 2.141 . S
O831 C822 1.289 . S
Mg832 O839 2.141 . S
Mg832 O840 2.048 . S
Mg832 O841 2.048 . S
Mg832 O844 2.141 . S
C833 O834 1.313 . S
C833 O840 1.195 . S
O834 C833 1.313 . S
C835 O836 1.245 . S
C835 O844 1.289 . S
O836 C835 1.245 . S
C837 O838 1.245 . S
C837 O839 1.289 . S
O838 C837 1.245 . S
O839 Mg832 2.141 . S
O839 C837 1.289 . S
O840 Mg832 2.048 . S
O840 C833 1.195 . S
O841 Mg832 2.048 . S
O841 C842 1.195 . S
C842 O841 1.195 . S
C842 O843 1.313 . S
O843 C842 1.313 . S
O844 Mg832 2.141 . S
O844 C835 1.289 . S
Mg845 O852 2.141 1_556 S
Mg845 O853 2.048 . S
Mg845 O854 2.048 . S
Mg845 O857 2.141 . S
C846 O847 1.313 . S
C846 O853 1.195 . S
O847 C846 1.313 . S
C848 O849 1.245 . S
C848 O857 1.289 . S
O849 C848 1.245 . S
C850 O851 1.245 1_554 S
C850 O852 1.289 . S
O851 C850 1.245 1_556 S
O852 Mg845 2.141 1_554 S
O852 C850 1.289 . S
O853 Mg845 2.048 . S
O853 C846 1.195 . S
O854 Mg845 2.048 . S
O854 C855 1.195 . S
C855 O854 1.195 . S
C855 O856 1.313 . S
O856 C855 1.313 . S
O857 Mg845 2.141 . S
O857 C848 1.289 . S
Mg858 O865 2.141 . S
Mg858 O866 2.048 . S
Mg858 O867 2.048 . S
Mg858 O870 2.141 . S
C859 O860 1.313 . S
C859 O866 1.195 . S
O860 C859 1.313 . S
C861 O862 1.245 . S
C861 O870 1.289 . S
O862 C861 1.245 . S
C863 O864 1.245 . S
C863 O865 1.289 . S
O864 C863 1.245 . S
O865 Mg858 2.141 . S
O865 C863 1.289 . S
O866 Mg858 2.048 . S
O866 C859 1.195 . S
O867 Mg858 2.048 . S
O867 C868 1.195 . S
C868 O867 1.195 . S
C868 O869 1.313 . S
O869 C868 1.313 . S
O870 Mg858 2.141 . S
O870 C861 1.289 . S
Mg871 O878 2.141 . S
Mg871 O879 2.048 . S
Mg871 O880 2.048 . S
Mg871 O883 2.141 . S
C872 O873 1.313 . S
C872 O879 1.195 . S
O873 C872 1.313 . S
C874 O875 1.245 . S
C874 O883 1.289 . S
O875 C874 1.245 . S
C876 O877 1.245 . S
C876 O878 1.289 . S
O877 C876 1.245 . S
O878 Mg871 2.141 . S
O878 C876 1.289 . S
O879 Mg871 2.048 . S
O879 C872 1.195 . S
O880 Mg871 2.048 . S
O880 C881 1.195 . S
C881 O880 1.195 . S
C881 O882 1.313 . S
O882 C881 1.313 . S
O883 Mg871 2.141 . S
O883 C874 1.289 . S
Mg884 O891 2.141 . S
Mg884 O892 2.048 . S
Mg884 O893 2.048 . S
Mg884 O896 2.141 . S
C885 O886 1.313 . S
C885 O892 1.195 . S
O886 C885 1.313 . S
C887 O888 1.245 . S
C887 O896 1.289 . S
O888 C887 1.245 . S
C889 O890 1.245 . S
C889 O891 1.289 . S
O890 C889 1.245 . S
O891 Mg884 2.141 . S
O891 C889 1.289 . S
O892 Mg884 2.048 . S
O892 C885 1.195 . S
O893 Mg884 2.048 . S
O893 C894 1.195 . S
C894 O893 1.195 . S
C894 O895 1.313 . S
O895 C894 1.313 . S
O896 Mg884 2.141 . S
O896 C887 1.289 . S
Mg897 O904 2.141 . S
Mg897 O905 2.048 . S
Mg897 O906 2.048 . S
Mg897 O909 2.141 . S
C898 O899 1.313 . S
C898 O905 1.195 . S
O899 C898 1.313 . S
C900 O901 1.245 . S
C900 O909 1.289 . S
O901 C900 1.245 . S
C902 O903 1.245 . S
C902 O904 1.289 . S
O903 C902 1.245 . S
O904 Mg897 2.141 . S
O904 C902 1.289 . S
O905 Mg897 2.048 . S
O905 C898 1.195 . S
O906 Mg897 2.048 . S
O906 C907 1.195 . S
C907 O906 1.195 . S
C907 O908 1.313 . S
O908 C907 1.313 . S
O909 Mg897 2.141 . S
O909 C900 1.289 . S
Mg910 O917 2.141 . S
Mg910 O918 2.048 . S
Mg910 O919 2.048 . S
Mg910 O922 2.141 . S
C911 O912 1.313 . S
C911 O918 1.195 . S
O912 C911 1.313 . S
C913 O914 1.245 . S
C913 O922 1.289 . S
O914 C913 1.245 . S
C915 O916 1.245 . S
C915 O917 1.289 . S
O916 C915 1.245 . S
O917 Mg910 2.141 . S
O917 C915 1.289 . S
O918 Mg910 2.048 . S
O918 C911 1.195 . S
O919 Mg910 2.048 . S
O919 C920 1.195 . S
C920 O919 1.195 . S
C920 O921 1.313 . S
O921 C920 1.313 . S
O922 Mg910 2.141 . S
O922 C913 1.289 . S
Mg923 O930 2.141 . S
Mg923 O931 2.048 . S
Mg923 O932 2.048 . S
Mg923 O935 2.141 . S
C924 O925 1.313 . S
C924 O931 1.195 . S
O925 C924 1.313 . S
C926 O927 1.245 . S
C926 O935 1.289 . S
O927 C926 1.245 . S
C928 O929 1.245 . S
C928 O930 1.289 . S
O929 C928 1.245 . S
O930 Mg923 2.141 . S
O930 C928 1.289 . S
O931 Mg923 2.048 . S
O931 C924 1.195 . S
O932 Mg923 2.048 . S
O932 C933 1.195 . S
C933 O932 1.195 . S
C933 O934 1.313 . S
O934 C933 1.313 . S
O935 Mg923 2.141 . S
O935 C926 1.289 . S
Mg936 O943 2.141 . S
Mg936 O944 2.048 . S
Mg936 O945 2.048 . S
Mg936 O948 2.141 . S
C937 O938 1.313 . S
C937 O944 1.195 . S
O938 C937 1.313 . S
C939 O940 1.245 . S
C939 O948 1.289 . S
O940 C939 1.245 . S
C941 O942 1.245 . S
C941 O943 1.289 . S
O942 C941 1.245 . S
O943 Mg936 2.141 . S
O943 C941 1.289 . S
O944 Mg936 2.048 . S
O944 C937 1.195 . S
O945 Mg936 2.048 . S
O945 C946 1.195 . S
C946 O945 1.195 . S
C946 O947 1.313 . S
O947 C946 1.313 . S
O948 Mg936 2.141 . S
O948 C939 1.289 . S
Mg949 O956 2.141 . S
Mg949 O957 2.048 . S
Mg949 O958 2.048 . S
Mg949 O961 2.141 . S
C950 O951 1.313 . S
C950 O957 1.195 . S
O951 C950 1.313 . S
C952 O953 1.245 . S
C952 O961 1.289 . S
O953 C952 1.245 . S
C954 O955 1.245 . S
C954 O956 1.289 . S
O955 C954 1.245 . S
O956 Mg949 2.141 . S
O956 C954 1.289 . S
O957 Mg949 2.048 . S
O957 C950 1.195 . S
O958 Mg949 2.048 . S
O958 C959 1.195 . S
C959 O958 1.195 . S
C959 O960 1.313 . S
O960 C959 1.313 . S
O961 Mg949 2.141 . S
O961 C952 1.289 . S
Mg962 O969 2.141 . S
Mg962 O970 2.048 . S
Mg962 O971 2.048 . S
Mg962 O974 2.141 . S
C963 O964 1.313 . S
C963 O970 1.195 . S
O964 C963 1.313 . S
C965 O966 1.245 . S
C965 O974 1.289 . S
O966 C965 1.245 . S
C967 O968 1.245 . S
C967 O969 1.289 . S
O968 C967 1.245 . S
O969 Mg962 2.141 . S
O969 C967 1.289 . S
O970 Mg962 2.048 . S
O970 C963 1.195 . S
O971 Mg962 2.048 . S
O971 C972 1.195 . S
C972 O971 1.195 . S
C972 O973 1.313 . S
O973 C972 1.313 . S
O974 Mg962 2.141 . S
O974 C965 1.289 . S
Mg975 O982 2.141 . S
Mg975 O983 2.048 . S
Mg975 O984 2.048 . S
Mg975 O987 2.141 . S
C976 O977 1.313 . S
C976 O983 1.195 . S
O977 C976 1.313 . S
C978 O979 1.245 . S
C978 O987 1.289 . S
O979 C978 1.245 . S
C980 O981 1.245 . S
C980 O982 1.289 . S
O981 C980 1.245 . S
O982 Mg975 2.141 . S
O982 C980 1.289 . S
O983 Mg975 2.048 . S
O983 C976 1.195 . S
O984 Mg975 2.048 . S
O984 C985 1.195 . S
C985 O984 1.195 . S
C985 O986 1.313 . S
O986 C985 1.313 . S
O987 Mg975 2.141 . S
O987 C978 1.289 . S
Mg988 O995 2.141 . S
Mg988 O996 2.048 . S
Mg988 O997 2.048 . S
Mg988 O1000 2.141 . S
C989 O990 1.313 . S
C989 O996 1.195 . S
O990 C989 1.313 . S
C991 O992 1.245 . S
C991 O1000 1.289 . S
O992 C991 1.245 . S
C993 O994 1.245 . S
C993 O995 1.289 . S
O994 C993 1.245 . S
O995 Mg988 2.141 . S
O995 C993 1.289 . S
O996 Mg988 2.048 . S
O996 C989 1.195 . S
O997 Mg988 2.048 . S
O997 C998 1.195 . S
C998 O997 1.195 . S
C998 O999 1.313 . S
O999 C998 1.313 . S
O1000 Mg988 2.141 . S
O1000 C991 1.289 . S
Mg1001 O1008 2.141 . S
Mg1001 O1009 2.048 . S
Mg1001 O1010 2.048 . S
Mg1001 O1013 2.141 . S
C1002 O1003 1.313 . S
C1002 O1009 1.195 . S
O1003 C1002 1.313 . S
C1004 O1005 1.245 . S
C1004 O1013 1.289 . S
O1005 C1004 1.245 . S
C1006 O1007 1.245 . S
C1006 O1008 1.289 . S
O1007 C1006 1.245 . S
O1008 Mg1001 2.141 . S
O1008 C1006 1.289 . S
O1009 Mg1001 2.048 . S
O1009 C1002 1.195 . S
O1010 Mg1001 2.048 . S
O1010 C1011 1.195 . S
C1011 O1010 1.195 . S
C1011 O1012 1.313 . S
O1012 C1011 1.313 . S
O1013 Mg1001 2.141 . S
O1013 C1004 1.289 . S
Mg1014 O1021 2.141 . S
Mg1014 O1022 2.048 . S
Mg1014 O1023 2.048 . S
Mg1014 O1026 2.141 . S
C1015 O1016 1.313 . S
C1015 O1022 1.195 . S
O1016 C1015 1.313 . S
C1017 O1018 1.245 . S
C1017 O1026 1.289 . S
O1018 C1017 1.245 . S
C1019 O1020 1.245 . S
C1019 O1021 1.289 . S
O1020 C1019 1.245 . S
O1021 Mg1014 2.141 . S
O1021 C1019 1.289 . S
O1022 Mg1014 2.048 . S
O1022 C1015 1.195 . S
O1023 Mg1014 2.048 . S
O1023 C1024 1.195 . S
C1024 O1023 1.195 . S
C1024 O1025 1.313 . S
O1025 C1024 1.313 . S
O1026 Mg1014 2.141 . S
O1026 C1017 1.289 . S
Mg1027 O1034 2.141 . S
Mg1027 O1035 2.048 . S
Mg1027 O1036 2.048 . S
Mg1027 O1039 2.141 . S
C1028 O1029 1.313 . S
C1028 O1035 1.195 . S
O1029 C1028 1.313 . S
C1030 O1031 1.245 . S
C1030 O1039 1.289 . S
O1031 C1030 1.245 . S
C1032 O1033 1.245 . S
C1032 O1034 1.289 . S
O1033 C1032 1.245 . S
O1034 Mg1027 2.141 . S
O1034 C1032 1.289 . S
O1035 Mg1027 2.048 . S
O1035 C1028 1.195 . S
O1036 Mg1027 2.048 . S
O1036 C1037 1.195 . S
C1037 O1036 1.195 . S
C1037 O1038 1.313 . S
O1038 C1037 1.313 . S
O1039 Mg1027 2.141 . S
O1039 C1030 1.289 . S
Mg1040 O1047 2.141 . S
Mg1040 O1048 2.048 . S
Mg1040 O1049 2.048 . S
Mg1040 O1052 2.141 . S
C1041 O1042 1.313 . S
C1041 O1048 1.195 . S
O1042 C1041 1.313 . S
C1043 O1044 1.245 . S
C1043 O1052 1.289 . S
O1044 C1043 1.245 . S
C1045 O1046 1.245 . S
C1045 O1047 1.289 . S
O1046 C1045 1.245 . S
O1047 Mg1040 2.141 . S
O1047 C1045 1.289 . S
O1048 Mg1040 2.048 . S
O1048 C1041 1.195 . S
O1049 Mg1040 2.048 . S
O1049 C1050 1.195 . S
C1050 O1049 1.195 . S
C1050 O1051 1.313 . S
O1051 C1050 1.313 . S
O1052 Mg1040 2.141 . S
O1052 C1043 1.289 . S
Mg1053 O1060 2.141 . S
Mg1053 O1061 2.048 . S
Mg1053 O1062 2.048 . S
Mg1053 O1065 2.141 . S
C1054 O1055 1.313 . S
C1054 O1061 1.195 . S
O1055 C1054 1.313 . S
C1056 O1057 1.245 . S
C1056 O1065 1.289 . S
O1057 C1056 1.245 . S
C1058 O1059 1.245 . S
C1058 O1060 1.289 . S
O1059 C1058 1.245 . S
O1060 Mg1053 2.141 . S
O1060 C1058 1.289 . S
O1061 Mg1053 2.048 . S
O1061 C1054 1.195 . S
O1062 Mg1053 2.048 . S
O1062 C1063 1.195 . S
C1063 O1062 1.195 . S
C1063 O1064 1.313 . S
O1064 C1063 1.313 . S
O1065 Mg1053 2.141 . S
O1065 C1056 1.289 . S
Mg1066 O1073 2.141 1_565 S
Mg1066 O1074 2.048 . S
Mg1066 O1075 2.048 . S
Mg1066 O1078 2.141 . S
C1067 O1068 1.313 . S
C1067 O1074 1.195 . S
O1068 C1067 1.313 . S
C1069 O1070 1.245 . S
C1069 O1078 1.289 . S
O1070 C1069 1.245 . S
C1071 O1072 1.245 1_545 S
C1071 O1073 1.289 . S
O1072 C1071 1.245 1_565 S
O1073 Mg1066 2.141 1_545 S
O1073 C1071 1.289 . S
O1074 Mg1066 2.048 . S
O1074 C1067 1.195 . S
O1075 Mg1066 2.048 . S
O1075 C1076 1.195 . S
C1076 O1075 1.195 . S
C1076 O1077 1.313 . S
O1077 C1076 1.313 . S
O1078 Mg1066 2.141 . S
O1078 C1069 1.289 . S
Mg1079 O1086 2.141 . S
Mg1079 O1087 2.048 . S
Mg1079 O1088 2.048 . S
Mg1079 O1091 2.141 . S
C1080 O1081 1.313 . S
C1080 O1087 1.195 . S
O1081 C1080 1.313 . S
C1082 O1083 1.245 . S
C1082 O1091 1.289 . S
O1083 C1082 1.245 . S
C1084 O1085 1.245 . S
C1084 O1086 1.289 . S
O1085 C1084 1.245 . S
O1086 Mg1079 2.141 . S
O1086 C1084 1.289 . S
O1087 Mg1079 2.048 . S
O1087 C1080 1.195 . S
O1088 Mg1079 2.048 . S
O1088 C1089 1.195 . S
C1089 O1088 1.195 . S
C1089 O1090 1.313 . S
O1090 C1089 1.313 . S
O1091 Mg1079 2.141 . S
O1091 C1082 1.289 . S
Mg1092 O1099 2.141 . S
Mg1092 O1100 2.048 . S
Mg1092 O1101 2.048 . S
Mg1092 O1104 2.141 . S
C1093 O1094 1.313 . S
C1093 O1100 1.195 . S
O1094 C1093 1.313 . S
C1095 O1096 1.245 . S
C1095 O1104 1.289 . S
O1096 C1095 1.245 . S
C1097 O1098 1.245 . S
C1097 O1099 1.289 . S
O1098 C1097 1.245 . S
O1099 Mg1092 2.141 . S
O1099 C1097 1.289 . S
O1100 Mg1092 2.048 . S
O1100 C1093 1.195 . S
O1101 Mg1092 2.048 . S
O1101 C1102 1.195 . S
C1102 O1101 1.195 . S
C1102 O1103 1.313 . S
O1103 C1102 1.313 . S
O1104 Mg1092 2.141 . S
O1104 C1095 1.289 . S
Mg1105 O1112 2.141 . S
Mg1105 O1113 2.048 . S
Mg1105 O1114 2.048 . S
Mg1105 O1117 2.141 . S
C1106 O1107 1.313 . S
C1106 O1113 1.195 . S
O1107 C1106 1.313 . S
C1108 O1109 1.245 . S
C1108 O1117 1.289 . S
O1109 C1108 1.245 . S
C1110 O1111 1.245 . S
C1110 O1112 1.289 . S
O1111 C1110 1.245 . S
O1112 Mg1105 2.141 . S
O1112 C1110 1.289 . S
O1113 Mg1105 2.048 . S
O1113 C1106 1.195 . S
O1114 Mg1105 2.048 . S
O1114 C1115 1.195 . S
C1115 O1114 1.195 . S
C1115 O1116 1.313 . S
O1116 C1115 1.313 . S
O1117 Mg1105 2.141 . S
O1117 C1108 1.289 . S
Mg1118 O1125 2.141 1_545 S
Mg1118 O1126 2.048 . S
Mg1118 O1127 2.048 . S
Mg1118 O1130 2.141 . S
C1119 O1120 1.313 . S
C1119 O1126 1.195 . S
O1120 C1119 1.313 . S
C1121 O1122 1.245 . S
C1121 O1130 1.289 . S
O1122 C1121 1.245 . S
C1123 O1124 1.245 1_565 S
C1123 O1125 1.289 . S
O1124 C1123 1.245 1_545 S
O1125 Mg1118 2.141 1_565 S
O1125 C1123 1.289 . S
O1126 Mg1118 2.048 . S
O1126 C1119 1.195 . S
O1127 Mg1118 2.048 . S
O1127 C1128 1.195 . S
C1128 O1127 1.195 . S
C1128 O1129 1.313 . S
O1129 C1128 1.313 . S
O1130 Mg1118 2.141 . S
O1130 C1121 1.289 . S
Mg1131 O1138 2.141 . S
Mg1131 O1139 2.048 . S
Mg1131 O1140 2.048 . S
Mg1131 O1143 2.141 . S
C1132 O1133 1.313 . S
C1132 O1139 1.195 . S
O1133 C1132 1.313 . S
C1134 O1135 1.245 . S
C1134 O1143 1.289 . S
O1135 C1134 1.245 . S
C1136 O1137 1.245 . S
C1136 O1138 1.289 . S
O1137 C1136 1.245 . S
O1138 Mg1131 2.141 . S
O1138 C1136 1.289 . S
O1139 Mg1131 2.048 . S
O1139 C1132 1.195 . S
O1140 Mg1131 2.048 . S
O1140 C1141 1.195 . S
C1141 O1140 1.195 . S
C1141 O1142 1.313 . S
O1142 C1141 1.313 . S
O1143 Mg1131 2.141 . S
O1143 C1134 1.289 . S
Mg1144 O1151 2.141 1_554 S
Mg1144 O1152 2.048 . S
Mg1144 O1153 2.048 . S
Mg1144 O1156 2.141 . S
C1145 O1146 1.313 . S
C1145 O1152 1.195 . S
O1146 C1145 1.313 . S
C1147 O1148 1.245 . S
C1147 O1156 1.289 . S
O1148 C1147 1.245 . S
C1149 O1150 1.245 1_556 S
C1149 O1151 1.289 . S
O1150 C1149 1.245 1_554 S
O1151 Mg1144 2.141 1_556 S
O1151 C1149 1.289 . S
O1152 Mg1144 2.048 . S
O1152 C1145 1.195 . S
O1153 Mg1144 2.048 . S
O1153 C1154 1.195 . S
C1154 O1153 1.195 . S
C1154 O1155 1.313 . S
O1155 C1154 1.313 . S
O1156 Mg1144 2.141 . S
O1156 C1147 1.289 . S
Mg1157 O1164 2.141 . S
Mg1157 O1165 2.048 . S
Mg1157 O1166 2.048 . S
Mg1157 O1169 2.141 . S
C1158 O1159 1.313 . S
C1158 O1165 1.195 . S
O1159 C1158 1.313 . S
C1160 O1161 1.245 . S
C1160 O1169 1.289 . S
O1161 C1160 1.245 . S
C1162 O1163 1.245 . S
C1162 O1164 1.289 . S
O1163 C1162 1.245 . S
O1164 Mg1157 2.141 . S
O1164 C1162 1.289 . S
O1165 Mg1157 2.048 . S
O1165 C1158 1.195 . S
O1166 Mg1157 2.048 . S
O1166 C1167 1.195 . S
C1167 O1166 1.195 . S
C1167 O1168 1.313 . S
O1168 C1167 1.313 . S
O1169 Mg1157 2.141 . S
O1169 C1160 1.289 . S
Mg1170 O1177 2.141 . S
Mg1170 O1178 2.048 . S
Mg1170 O1179 2.048 . S
Mg1170 O1182 2.141 . S
C1171 O1172 1.313 . S
C1171 O1178 1.195 . S
O1172 C1171 1.313 . S
C1173 O1174 1.245 . S
C1173 O1182 1.289 . S
O1174 C1173 1.245 . S
C1175 O1176 1.245 . S
C1175 O1177 1.289 . S
O1176 C1175 1.245 . S
O1177 Mg1170 2.141 . S
O1177 C1175 1.289 . S
O1178 Mg1170 2.048 . S
O1178 C1171 1.195 . S
O1179 Mg1170 2.048 . S
O1179 C1180 1.195 . S
C1180 O1179 1.195 . S
C1180 O1181 1.313 . S
O1181 C1180 1.313 . S
O1182 Mg1170 2.141 . S
O1182 C1173 1.289 . S
Mg1183 O1190 2.141 1_556 S
Mg1183 O1191 2.048 . S
Mg1183 O1192 2.048 . S
Mg1183 O1195 2.141 . S
C1184 O1185 1.313 . S
C1184 O1191 1.195 . S
O1185 C1184 1.313 . S
C1186 O1187 1.245 . S
C1186 O1195 1.289 . S
O1187 C1186 1.245 . S
C1188 O1189 1.245 1_554 S
C1188 O1190 1.289 . S
O1189 C1188 1.245 1_556 S
O1190 Mg1183 2.141 1_554 S
O1190 C1188 1.289 . S
O1191 Mg1183 2.048 . S
O1191 C1184 1.195 . S
O1192 Mg1183 2.048 . S
O1192 C1193 1.195 . S
C1193 O1192 1.195 . S
C1193 O1194 1.313 . S
O1194 C1193 1.313 . S
O1195 Mg1183 2.141 . S
O1195 C1186 1.289 . S
Mg1196 O1203 2.141 . S
Mg1196 O1204 2.048 . S
Mg1196 O1205 2.048 . S
Mg1196 O1208 2.141 . S
C1197 O1198 1.313 . S
C1197 O1204 1.195 . S
O1198 C1197 1.313 . S
C1199 O1200 1.245 . S
C1199 O1208 1.289 . S
O1200 C1199 1.245 . S
C1201 O1202 1.245 . S
C1201 O1203 1.289 . S
O1202 C1201 1.245 . S
O1203 Mg1196 2.141 . S
O1203 C1201 1.289 . S
O1204 Mg1196 2.048 . S
O1204 C1197 1.195 . S
O1205 Mg1196 2.048 . S
O1205 C1206 1.195 . S
C1206 O1205 1.195 . S
C1206 O1207 1.313 . S
O1207 C1206 1.313 . S
O1208 Mg1196 2.141 . S
O1208 C1199 1.289 . S
Mg1209 O1216 2.141 1_554 S
Mg1209 O1217 2.048 . S
Mg1209 O1218 2.048 . S
Mg1209 O1221 2.141 . S
C1210 O1211 1.313 . S
C1210 O1217 1.195 . S
O1211 C1210 1.313 . S
C1212 O1213 1.245 . S
C1212 O1221 1.289 . S
O1213 C1212 1.245 . S
C1214 O1215 1.245 1_556 S
C1214 O1216 1.289 . S
O1215 C1214 1.245 1_554 S
O1216 Mg1209 2.141 1_556 S
O1216 C1214 1.289 . S
O1217 Mg1209 2.048 . S
O1217 C1210 1.195 . S
O1218 Mg1209 2.048 . S
O1218 C1219 1.195 . S
C1219 O1218 1.195 . S
C1219 O1220 1.313 . S
O1220 C1219 1.313 . S
O1221 Mg1209 2.141 . S
O1221 C1212 1.289 . S
Mg1222 O1229 2.141 . S
Mg1222 O1230 2.048 . S
Mg1222 O1231 2.048 . S
Mg1222 O1234 2.141 . S
C1223 O1224 1.313 . S
C1223 O1230 1.195 . S
O1224 C1223 1.313 . S
C1225 O1226 1.245 . S
C1225 O1234 1.289 . S
O1226 C1225 1.245 . S
C1227 O1228 1.245 . S
C1227 O1229 1.289 . S
O1228 C1227 1.245 . S
O1229 Mg1222 2.141 . S
O1229 C1227 1.289 . S
O1230 Mg1222 2.048 . S
O1230 C1223 1.195 . S
O1231 Mg1222 2.048 . S
O1231 C1232 1.195 . S
C1232 O1231 1.195 . S
C1232 O1233 1.313 . S
O1233 C1232 1.313 . S
O1234 Mg1222 2.141 . S
O1234 C1225 1.289 . S
Mg1235 O1242 2.141 . S
Mg1235 O1243 2.048 . S
Mg1235 O1244 2.048 . S
Mg1235 O1247 2.141 . S
C1236 O1237 1.313 . S
C1236 O1243 1.195 . S
O1237 C1236 1.313 . S
C1238 O1239 1.245 . S
C1238 O1247 1.289 . S
O1239 C1238 1.245 . S
C1240 O1241 1.245 . S
C1240 O1242 1.289 . S
O1241 C1240 1.245 . S
O1242 Mg1235 2.141 . S
O1242 C1240 1.289 . S
O1243 Mg1235 2.048 . S
O1243 C1236 1.195 . S
O1244 Mg1235 2.048 . S
O1244 C1245 1.195 . S
C1245 O1244 1.195 . S
C1245 O1246 1.313 . S
O1246 C1245 1.313 . S
O1247 Mg1235 2.141 . S
O1247 C1238 1.289 . S
C1 C391 2.687 1_454 S
C716 C14 2.687 . S
C27 C365 2.687 1_655 S
C40 C690 2.687 . S
C339 C53 2.687 1_654 S
C66 C664 2.687 . S
C313 C79 2.687 1_455 S
C92 C638 2.687 . S
C443 C105 2.687 1_665 S
C118 C768 2.687 . S
C131 C417 2.687 1_655 S
C144 C742 2.687 . S
C157 C495 2.687 1_465 S
C820 C170 2.687 . S
C469 C183 2.687 1_455 S
C196 C794 2.687 . S
C846 C209 2.687 1_566 S
C833 C222 2.687 1_545 S
C235 C924 2.687 . S
C1210 C248 2.687 1_554 S
C599 C261 2.687 . S
C274 C1184 2.687 1_564 S
C287 C573 2.687 . S
C300 C859 2.687 . S
C326 C1028 2.687 . S
C352 C1002 2.687 . S
C378 C976 2.687 . S
C404 C950 2.687 . S
C1080 C430 2.687 . S
C456 C1054 2.687 . S
C1132 C482 2.687 . S
C508 C1106 2.687 . S
C521 C1158 2.687 . S
C534 C1145 2.687 1_556 S
C547 C1236 2.687 . S
C898 C560 2.687 1_565 S
C872 C586 2.687 . S
C612 C1171 2.687 . S
C625 C1015 2.687 . S
C989 C651 2.687 1_556 S
C677 C963 2.687 . S
C703 C937 2.687 1_556 S
C1067 C729 2.687 1_565 S
C1041 C755 2.687 . S
C781 C1119 2.687 1_565 S
C1093 C807 2.687 . S
C885 C1223 2.687 . S
C911 C1197 2.687 . S
C5 C720 1.480 . S
C18 C369 1.480 . S
C31 C694 1.480 . S
C395 C44 1.480 . S
C57 C330 1.480 . S
C70 C655 1.480 . S
C83 C356 1.480 . S
C629 C96 1.480 . S
C109 C265 1.480 . S
C122 C1162 1.480 . S
C1175 C135 1.480 . S
C148 C1188 1.480 . S
C928 C161 1.480 . S
C1214 C174 1.480 . S
C187 C915 1.480 . S
C837 C200 1.480 . S
C824 C213 1.480 . S
C1058 C226 1.480 . S
C239 C1071 1.480 . S
C252 C1084 1.480 . S
C278 C1110 1.480 . S
C291 C811 1.480 . S
C785 C304 1.480 . S
C317 C1032 1.480 . S
C1006 C343 1.480 . S
C967 C382 1.480 . S
C408 C941 1.480 . S
C421 C577 1.480 . S
C434 C850 1.480 . S
C447 C863 1.480 . S
C460 C876 1.480 . S
C473 C1240 1.480 . S
C902 C486 1.480 . S
C1227 C499 1.480 . S
C1149 C512 1.480 . S
C1136 C525 1.480 . S
C538 C746 1.480 . S
C551 C759 1.480 . S
C564 C772 1.480 . S
C798 C590 1.480 . S
C1123 C603 1.480 . S
C1097 C616 1.480 . S
C642 C993 1.480 . S
C668 C1019 1.480 . S
C954 C681 1.480 . S
C980 C707 1.480 . S
C889 C733 1.480 . S
C1201 C1045 1.480 . S
C10 C1212 2.702 . S
C23 C913 2.702 . S
C835 C36 2.702 . S
C926 C49 2.702 . S
C62 C250 2.702 . S
C75 C1199 2.702 . S
C224 C88 2.702 . S
C237 C101 2.702 . S
C367 C114 2.702 . S
C127 C692 2.702 . S
C140 C393 2.702 . S
C153 C718 2.702 . S
C315 C166 2.702 . S
C179 C640 2.702 . S
C341 C192 2.702 . S
C205 C666 2.702 . S
C218 C1121 2.702 . S
C445 C231 2.702 . S
C244 C770 2.702 . S
C419 C257 2.702 . S
C270 C432 2.702 . S
C783 C283 2.702 . S
C172 C296 2.702 . S
C198 C309 2.702 . S
C900 C322 2.702 . S
C335 C1225 2.702 . S
C1147 C348 2.702 . S
C361 C1238 2.702 . S
C562 C374 2.702 . S
C887 C387 2.702 . S
C400 C536 2.702 . S
C413 C549 2.702 . S
C426 C55 2.702 . S
C439 C1004 2.702 . S
C81 C452 2.702 . S
C465 C1030 2.702 . S
C3 C478 2.702 . S
C491 C952 2.702 . S
C29 C504 2.702 . S
C978 C517 2.702 . S
C530 C809 2.702 . S
C543 C133 2.702 . S
C1082 C556 2.702 . S
C569 C107 2.702 . S
C120 C582 2.702 . S
C595 C1095 2.702 . S
C484 C608 2.702 . S
C621 C510 2.702 . S
C588 C634 2.702 . S
C647 C289 2.702 . S
C660 C211 2.702 . S
C673 C302 2.702 . S
C686 C874 2.702 . S
C575 C699 2.702 . S
C848 C712 2.702 . S
C725 C861 2.702 . S
C991 C738 2.702 . S
C68 C751 2.702 . S
C1017 C764 2.702 . S
C777 C94 2.702 . S
C939 C790 2.702 . S
C803 C16 2.702 . S
C965 C816 2.702 . S
C42 C829 2.702 . S
C497 C842 2.702 . S
C855 C1069 2.702 . S
C868 C146 2.702 . S
C1043 C881 2.702 . S
C894 C1056 2.702 . S
C159 C907 2.702 . S
C796 C920 2.702 . S
C933 C822 2.702 . S
C946 C276 2.702 . S
C601 C959 2.702 . S
C523 C972 2.702 . S
C985 C614 2.702 . S
C998 C1186 2.702 . S
C263 C1011 2.702 . S
C1160 C1024 2.702 . S
C1173 C1037 2.702 . S
C679 C1050 2.702 . S
C1063 C380 2.702 . S
C1076 C705 2.702 . S
C1089 C406 2.702 . S
C627 C1102 2.702 . S
C1115 C328 2.702 . S
C1128 C653 2.702 . S
C1141 C354 2.702 . S
C185 C1154 2.702 . S
C1167 C757 2.702 . S
C1180 C458 2.702 . S
C1193 C731 2.702 . S
C1206 C744 2.702 . S
C471 C1219 2.702 . S
C1108 C1232 2.702 . S
C1134 C1245 2.702 . S
