# Generated by pormake.
# Topology fnd, (5)-cn, num edge types: 1
# Building blocks:
#     Node 0, Type 0, BuildingBlock: XOMCOT_clean_sbu_0, # of connection points: 5
#     Node 1, Type 0, BuildingBlock: XOMCOT_clean_sbu_0, # of connection points: 5
#     Node 2, Type 0, BuildingBlock: XOMCOT_clean_sbu_0, # of connection points: 5
#     Node 3, Type 0, BuildingBlock: XOMCOT_clean_sbu_0, # of connection points: 5
#     Node 4, Type 0, BuildingBlock: XOMCOT_clean_sbu_0, # of connection points: 5
#     Node 5, Type 0, BuildingBlock: XOMCOT_clean_sbu_0, # of connection points: 5
#     Node 6, Type 0, BuildingBlock: XOMCOT_clean_sbu_0, # of connection points: 5
#     Node 7, Type 0, BuildingBlock: XOMCOT_clean_sbu_0, # of connection points: 5
#     Node 8, Type 0, BuildingBlock: XOMCOT_clean_sbu_0, # of connection points: 5
#     Node 9, Type 0, BuildingBlock: XOMCOT_clean_sbu_0, # of connection points: 5
#     Node 10, Type 0, BuildingBlock: XOMCOT_clean_sbu_0, # of connection points: 5
#     Node 11, Type 0, BuildingBlock: XOMCOT_clean_sbu_0, # of connection points: 5
#     Node 12, Type 0, BuildingBlock: XOMCOT_clean_sbu_0, # of connection points: 5
#     Node 13, Type 0, BuildingBlock: XOMCOT_clean_sbu_0, # of connection points: 5
#     Node 14, Type 0, BuildingBlock: XOMCOT_clean_sbu_0, # of connection points: 5
#     Node 15, Type 0, BuildingBlock: XOMCOT_clean_sbu_0, # of connection points: 5
#     Node 16, Type 0, BuildingBlock: XOMCOT_clean_sbu_0, # of connection points: 5
#     Node 17, Type 0, BuildingBlock: XOMCOT_clean_sbu_0, # of connection points: 5
#     Edge 18, Type (0, 0), BuildingBlock: UVAHIK_clean_linker_0, # of connection points: 2
#     Edge 19, Type (0, 0), BuildingBlock: UVAHIK_clean_linker_0, # of connection points: 2
#     Edge 20, Type (0, 0), BuildingBlock: UVAHIK_clean_linker_0, # of connection points: 2
#     Edge 21, Type (0, 0), BuildingBlock: UVAHIK_clean_linker_0, # of connection points: 2
#     Edge 22, Type (0, 0), BuildingBlock: UVAHIK_clean_linker_0, # of connection points: 2
#     Edge 23, Type (0, 0), BuildingBlock: UVAHIK_clean_linker_0, # of connection points: 2
#     Edge 24, Type (0, 0), BuildingBlock: UVAHIK_clean_linker_0, # of connection points: 2
#     Edge 25, Type (0, 0), BuildingBlock: UVAHIK_clean_linker_0, # of connection points: 2
#     Edge 26, Type (0, 0), BuildingBlock: UVAHIK_clean_linker_0, # of connection points: 2
#     Edge 27, Type (0, 0), BuildingBlock: UVAHIK_clean_linker_0, # of connection points: 2
#     Edge 28, Type (0, 0), BuildingBlock: UVAHIK_clean_linker_0, # of connection points: 2
#     Edge 29, Type (0, 0), BuildingBlock: UVAHIK_clean_linker_0, # of connection points: 2
#     Edge 30, Type (0, 0), BuildingBlock: UVAHIK_clean_linker_0, # of connection points: 2
#     Edge 31, Type (0, 0), BuildingBlock: UVAHIK_clean_linker_0, # of connection points: 2
#     Edge 32, Type (0, 0), BuildingBlock: UVAHIK_clean_linker_0, # of connection points: 2
#     Edge 33, Type (0, 0), BuildingBlock: UVAHIK_clean_linker_0, # of connection points: 2
#     Edge 34, Type (0, 0), BuildingBlock: UVAHIK_clean_linker_0, # of connection points: 2
#     Edge 35, Type (0, 0), BuildingBlock: UVAHIK_clean_linker_0, # of connection points: 2
#     Edge 36, Type (0, 0), BuildingBlock: UVAHIK_clean_linker_0, # of connection points: 2
#     Edge 37, Type (0, 0), BuildingBlock: UVAHIK_clean_linker_0, # of connection points: 2
#     Edge 38, Type (0, 0), BuildingBlock: UVAHIK_clean_linker_0, # of connection points: 2
#     Edge 39, Type (0, 0), BuildingBlock: UVAHIK_clean_linker_0, # of connection points: 2
#     Edge 40, Type (0, 0), BuildingBlock: UVAHIK_clean_linker_0, # of connection points: 2
#     Edge 41, Type (0, 0), BuildingBlock: UVAHIK_clean_linker_0, # of connection points: 2
#     Edge 42, Type (0, 0), BuildingBlock: UVAHIK_clean_linker_0, # of connection points: 2
#     Edge 43, Type (0, 0), BuildingBlock: UVAHIK_clean_linker_0, # of connection points: 2
#     Edge 44, Type (0, 0), BuildingBlock: UVAHIK_clean_linker_0, # of connection points: 2
#     Edge 45, Type (0, 0), BuildingBlock: UVAHIK_clean_linker_0, # of connection points: 2
#     Edge 46, Type (0, 0), BuildingBlock: UVAHIK_clean_linker_0, # of connection points: 2
#     Edge 47, Type (0, 0), BuildingBlock: UVAHIK_clean_linker_0, # of connection points: 2
#     Edge 48, Type (0, 0), BuildingBlock: UVAHIK_clean_linker_0, # of connection points: 2
#     Edge 49, Type (0, 0), BuildingBlock: UVAHIK_clean_linker_0, # of connection points: 2
#     Edge 50, Type (0, 0), BuildingBlock: UVAHIK_clean_linker_0, # of connection points: 2
#     Edge 51, Type (0, 0), BuildingBlock: UVAHIK_clean_linker_0, # of connection points: 2
#     Edge 52, Type (0, 0), BuildingBlock: UVAHIK_clean_linker_0, # of connection points: 2
#     Edge 53, Type (0, 0), BuildingBlock: UVAHIK_clean_linker_0, # of connection points: 2
#     Edge 54, Type (0, 0), BuildingBlock: UVAHIK_clean_linker_0, # of connection points: 2
#     Edge 55, Type (0, 0), BuildingBlock: UVAHIK_clean_linker_0, # of connection points: 2
#     Edge 56, Type (0, 0), BuildingBlock: UVAHIK_clean_linker_0, # of connection points: 2
#     Edge 57, Type (0, 0), BuildingBlock: UVAHIK_clean_linker_0, # of connection points: 2
#     Edge 58, Type (0, 0), BuildingBlock: UVAHIK_clean_linker_0, # of connection points: 2
#     Edge 59, Type (0, 0), BuildingBlock: UVAHIK_clean_linker_0, # of connection points: 2
#     Edge 60, Type (0, 0), BuildingBlock: UVAHIK_clean_linker_0, # of connection points: 2
#     Edge 61, Type (0, 0), BuildingBlock: UVAHIK_clean_linker_0, # of connection points: 2
#     Edge 62, Type (0, 0), BuildingBlock: UVAHIK_clean_linker_0, # of connection points: 2
# Relax obj value: 0.025
# Max RMSD: 0.064
# Mean RMSD: 0.064
data_MOF--net-fnd--node1-XOMCOT_clean_sbu_0--edge1-UVAHIK_clean_linker_0
_symmetry_space_group_name_H-M    P1
_symmetry_Int_Tables_number       1
_symmetry_cell_setting            triclinic
loop_
_symmetry_equiv_pos_as_xyz
'x, y, z'
_cell_length_a     106.02071
_cell_length_b     106.08008
_cell_length_c     22.153764
_cell_angle_alpha  89.975781
_cell_angle_beta   90.033156
_cell_angle_gamma 120.00454
loop_
_atom_site_label
_atom_site_type_symbol
_atom_site_fract_x
_atom_site_fract_y
_atom_site_fract_z
_atom_type_partial_charge
Co0 Co 0.1127 0.23743 0.46561 0.0
C1 C 0.1135 0.23999 0.59909 0.0
C2 C 0.11663 0.25938 0.55505 0.0
C3 C 0.11668 0.26132 0.61643 0.0
N4 N 0.11469 0.24605 0.54426 0.0
N5 N 0.11466 0.24912 0.64424 0.0
H6 H 0.11141 0.22899 0.6056 0.0
H7 H 0.11765 0.26707 0.52064 0.0
C8 C 0.13789 0.26129 0.39457 0.0
O9 O 0.14048 0.2517 0.36842 0.0
N10 N 0.1104 0.22875 0.38595 0.0
C11 C 0.1073 0.21506 0.37338 0.0
C12 C 0.10627 0.21308 0.31197 0.0
C13 C 0.11054 0.23468 0.33162 0.0
N14 N 0.10845 0.22545 0.28551 0.0
C15 C 0.12225 0.21769 0.50251 0.0
C16 C 0.15185 0.23692 0.501 0.0
C17 C 0.14691 0.22199 0.50783 0.0
C18 C 0.13185 0.21249 0.51175 0.0
C19 C 0.14177 0.2417 0.49308 0.0
N20 N 0.12719 0.23193 0.48836 0.0
H21 H 0.11076 0.21002 0.50542 0.0
H22 H 0.14583 0.25323 0.49024 0.0
H23 H 0.10547 0.20679 0.40603 0.0
H24 H 0.11243 0.24562 0.32593 0.0
O25 O 0.09527 0.22011 0.4921 0.0
O26 O 0.09563 0.23926 0.45063 0.0
O27 O 0.1278 0.25724 0.43406 0.0
C28 C 0.08804 0.22631 0.47388 0.0
H29 H 0.1181 0.27102 0.63873 0.0
H30 H 0.10383 0.20314 0.2887 0.0
H31 H 0.16337 0.24484 0.50005 0.0
H32 H 0.1274 0.20102 0.52104 0.0
Co33 Co 0.7845 0.87911 0.46683 0.0
C34 C 0.78195 0.87738 0.60032 0.0
C35 C 0.7626 0.86101 0.55625 0.0
C36 C 0.76064 0.85912 0.61763 0.0
N37 N 0.7759 0.87246 0.54548 0.0
N38 N 0.77282 0.86937 0.64544 0.0
H39 H 0.79292 0.88633 0.60685 0.0
H40 H 0.75493 0.85432 0.52183 0.0
C41 C 0.76064 0.88053 0.39606 0.0
O42 O 0.77026 0.89271 0.36987 0.0
N43 N 0.79315 0.8855 0.38712 0.0
C44 C 0.80684 0.89609 0.37438 0.0
C45 C 0.80877 0.89706 0.31293 0.0
C46 C 0.78717 0.87973 0.33286 0.0
N47 N 0.79635 0.88687 0.28664 0.0
C48 C 0.80434 0.90839 0.50366 0.0
C49 C 0.78513 0.91879 0.50257 0.0
C50 C 0.80008 0.92876 0.50921 0.0
C51 C 0.80957 0.92318 0.51292 0.0
C52 C 0.78032 0.90393 0.49462 0.0
N53 N 0.79007 0.8991 0.4897 0.0
H54 H 0.81199 0.90455 0.5064 0.0
H55 H 0.76877 0.89647 0.49191 0.0
H56 H 0.81514 0.90252 0.40693 0.0
H57 H 0.77621 0.87069 0.3273 0.0
O58 O 0.80182 0.87894 0.49309 0.0
O59 O 0.78261 0.86021 0.45166 0.0
O60 O 0.76468 0.87446 0.43549 0.0
C61 C 0.79557 0.86552 0.47476 0.0
H62 H 0.75095 0.85081 0.63992 0.0
H63 H 0.81868 0.90457 0.28952 0.0
H64 H 0.77722 0.9224 0.50178 0.0
H65 H 0.82106 0.9302 0.52204 0.0
Co66 Co 0.14234 0.9093 0.46356 0.0
C67 C 0.14297 0.90726 0.59694 0.0
C68 C 0.15954 0.90442 0.55399 0.0
C69 C 0.16069 0.90341 0.61541 0.0
N70 N 0.14839 0.90672 0.54249 0.0
N71 N 0.15028 0.90521 0.64242 0.0
H72 H 0.13388 0.90909 0.603 0.0
H73 H 0.16654 0.90378 0.5201 0.0
C74 C 0.1408 0.88395 0.39363 0.0
O75 O 0.12838 0.88116 0.36896 0.0
N76 N 0.13662 0.9122 0.38333 0.0
C77 C 0.12741 0.91709 0.36959 0.0
C78 C 0.12713 0.9186 0.30817 0.0
C79 C 0.14231 0.91146 0.32961 0.0
N80 N 0.13646 0.91502 0.28286 0.0
C81 C 0.1124 0.89922 0.49153 0.0
C82 C 0.10345 0.8701 0.50612 0.0
C83 C 0.09298 0.87451 0.50892 0.0
C84 C 0.09776 0.88938 0.50266 0.0
C85 C 0.11809 0.88041 0.49469 0.0
N86 N 0.12224 0.89465 0.48345 0.0
H87 H 0.11578 0.91061 0.49017 0.0
H88 H 0.12603 0.87688 0.49561 0.0
H89 H 0.12164 0.92001 0.40138 0.0
H90 H 0.15081 0.90873 0.32489 0.0
O91 O 0.1422 0.9265 0.4917 0.0
O92 O 0.1613 0.92643 0.45168 0.0
O93 O 0.14718 0.89438 0.4314 0.0
C94 C 0.15577 0.93385 0.47514 0.0
H95 H 0.16883 0.90189 0.63845 0.0
H96 H 0.12051 0.92208 0.28412 0.0
H97 H 0.10042 0.85885 0.51351 0.0
H98 H 0.09025 0.89347 0.5055 0.0
Co99 Co 0.24684 0.11468 0.55594 0.0
C100 C 0.2496 0.11573 0.42038 0.0
C101 C 0.26814 0.1173 0.46599 0.0
C102 C 0.27031 0.11721 0.40492 0.0
N103 N 0.25531 0.11672 0.47601 0.0
N104 N 0.25863 0.1162 0.37615 0.0
H105 H 0.23882 0.11387 0.4118 0.0
H106 H 0.27535 0.11747 0.50096 0.0
C107 C 0.27588 0.14155 0.56277 0.0
O108 O 0.2722 0.14573 0.51318 0.0
N109 N 0.23858 0.11225 0.63557 0.0
C110 C 0.22488 0.10909 0.64805 0.0
C111 C 0.2232 0.10875 0.70966 0.0
C112 C 0.24506 0.11367 0.68955 0.0
N113 N 0.23589 0.11166 0.73575 0.0
C114 C 0.23075 0.12695 0.50038 0.0
C115 C 0.24109 0.15101 0.57479 0.0
C116 C 0.23063 0.14879 0.53114 0.0
C117 C 0.22549 0.1366 0.49347 0.0
C118 C 0.24625 0.14122 0.57942 0.0
N119 N 0.24148 0.12959 0.54107 0.0
H120 H 0.22548 0.11689 0.47555 0.0
H121 H 0.25362 0.14269 0.61588 0.0
H122 H 0.21672 0.10731 0.61456 0.0
H123 H 0.25629 0.11642 0.69484 0.0
O124 O 0.22912 0.09769 0.52919 0.0
O125 O 0.24828 0.09734 0.56726 0.0
O126 O 0.26676 0.12952 0.58794 0.0
C127 C 0.23518 0.09013 0.54497 0.0
H128 H 0.27974 0.11774 0.38356 0.0
H129 H 0.21335 0.10644 0.73338 0.0
H130 H 0.24506 0.16007 0.60591 0.0
H131 H 0.21689 0.13412 0.46111 0.0
Co132 Co 0.9071 0.13609 0.55355 0.0
C133 C 0.90606 0.13779 0.41803 0.0
C134 C 0.904 0.15448 0.46339 0.0
C135 C 0.90411 0.15673 0.4023 0.0
N136 N 0.90486 0.14239 0.47358 0.0
N137 N 0.90542 0.14623 0.37369 0.0
H138 H 0.90823 0.12907 0.40963 0.0
H139 H 0.90367 0.16144 0.49825 0.0
C140 C 0.88012 0.13804 0.56127 0.0
O141 O 0.87584 0.13006 0.51203 0.0
N142 N 0.90975 0.13038 0.63315 0.0
C143 C 0.91305 0.11994 0.64544 0.0
C144 C 0.91351 0.11864 0.70701 0.0
C145 C 0.90835 0.13541 0.68722 0.0
N146 N 0.91052 0.12833 0.73329 0.0
C147 C 0.8948 0.1077 0.49835 0.0
C148 C 0.87097 0.09394 0.574 0.0
C149 C 0.87311 0.08569 0.53016 0.0
C150 C 0.88518 0.09276 0.49186 0.0
C151 C 0.88071 0.1089 0.57821 0.0
N152 N 0.89223 0.11577 0.53929 0.0
H153 H 0.90478 0.11251 0.473 0.0
H154 H 0.87931 0.11481 0.61478 0.0
H155 H 0.91486 0.11361 0.61185 0.0
H156 H 0.9055 0.14382 0.69268 0.0
O157 O 0.9241 0.13545 0.52628 0.0
O158 O 0.9244 0.15493 0.56417 0.0
O159 O 0.89225 0.14109 0.58596 0.0
C160 C 0.93164 0.14909 0.54171 0.0
H161 H 0.9034 0.16551 0.38082 0.0
H162 H 0.91597 0.11118 0.73058 0.0
H163 H 0.86199 0.08883 0.60556 0.0
H164 H 0.88761 0.08665 0.45931 0.0
Co165 Co 0.88555 0.77452 0.55303 0.0
C166 C 0.88414 0.77181 0.41764 0.0
C167 C 0.86608 0.7541 0.46263 0.0
C168 C 0.86394 0.75203 0.4015 0.0
N169 N 0.87886 0.76636 0.47303 0.0
N170 N 0.87528 0.76319 0.3731 0.0
H171 H 0.89382 0.78211 0.40956 0.0
H172 H 0.85868 0.74722 0.49741 0.0
C173 C 0.88238 0.74501 0.55661 0.0
O174 O 0.88985 0.74851 0.50601 0.0
N175 N 0.89174 0.78256 0.63274 0.0
C176 C 0.90257 0.79612 0.64519 0.0
C177 C 0.90413 0.79771 0.70675 0.0
C178 C 0.88673 0.77607 0.68672 0.0
N179 N 0.8942 0.78511 0.73284 0.0
C180 C 0.91402 0.79122 0.49964 0.0
C181 C 0.92731 0.77915 0.56662 0.0
C182 C 0.93597 0.79084 0.52812 0.0
C183 C 0.92904 0.79682 0.49417 0.0
C184 C 0.91239 0.77405 0.57146 0.0
N185 N 0.90573 0.77969 0.53665 0.0
H186 H 0.90927 0.79683 0.47688 0.0
H187 H 0.9064 0.76603 0.60571 0.0
H188 H 0.90897 0.80426 0.61172 0.0
H189 H 0.87803 0.76494 0.69206 0.0
O190 O 0.88641 0.79241 0.52781 0.0
O191 O 0.86691 0.77332 0.56597 0.0
O192 O 0.88017 0.75442 0.58359 0.0
C193 C 0.87283 0.78644 0.54404 0.0
H194 H 0.85469 0.743 0.37983 0.0
H195 H 0.9119 0.80746 0.73048 0.0
H196 H 0.93203 0.77416 0.59433 0.0
H197 H 0.93524 0.80627 0.46584 0.0
Co198 Co 0.77841 0.56987 0.7974 0.0
C199 C 0.78086 0.57265 0.9308 0.0
C200 C 0.7851 0.5925 0.88748 0.0
C201 C 0.78602 0.59464 0.94881 0.0
N202 N 0.78196 0.57878 0.8762 0.0
N203 N 0.78327 0.58214 0.97628 0.0
H204 H 0.77794 0.56139 0.93688 0.0
H205 H 0.78633 0.60035 0.85355 0.0
C206 C 0.80436 0.59363 0.72986 0.0
O207 O 0.80776 0.5841 0.70905 0.0
N208 N 0.77438 0.56094 0.7171 0.0
C209 C 0.76641 0.54656 0.70448 0.0
C210 C 0.76546 0.54459 0.64309 0.0
C211 C 0.77734 0.56749 0.6623 0.0
N212 N 0.77241 0.55775 0.61654 0.0
C213 C 0.78933 0.55011 0.80857 0.0
C214 C 0.81764 0.57032 0.83934 0.0
C215 C 0.81405 0.55589 0.82835 0.0
C216 C 0.79961 0.54568 0.81445 0.0
C217 C 0.80697 0.57436 0.8319 0.0
N218 N 0.79322 0.56443 0.81299 0.0
H219 H 0.7782 0.54192 0.80099 0.0
H220 H 0.80985 0.58552 0.84029 0.0
H221 H 0.76101 0.53794 0.73716 0.0
H222 H 0.78274 0.57911 0.65554 0.0
O223 O 0.7616 0.5527 0.82899 0.0
O224 O 0.76123 0.57175 0.7899 0.0
O225 O 0.79314 0.58949 0.76326 0.0
C226 C 0.75408 0.55889 0.81446 0.0
H227 H 0.78848 0.60467 0.9712 0.0
H228 H 0.75967 0.53426 0.61977 0.0
H229 H 0.82863 0.57844 0.85194 0.0
H230 H 0.79625 0.53429 0.80847 0.0
Co231 Co 0.45131 0.2126 0.79814 0.0
C232 C 0.44867 0.2109 0.93156 0.0
C233 C 0.42933 0.19456 0.88734 0.0
C234 C 0.42727 0.19279 0.94869 0.0
N235 N 0.4427 0.20593 0.8767 0.0
N236 N 0.43944 0.20302 0.97662 0.0
H237 H 0.45964 0.21985 0.9381 0.0
H238 H 0.42168 0.18789 0.85286 0.0
C239 C 0.42755 0.21498 0.73162 0.0
O240 O 0.43719 0.22762 0.70881 0.0
N241 N 0.45992 0.21893 0.71814 0.0
C242 C 0.47407 0.22809 0.70489 0.0
C243 C 0.4758 0.22917 0.64338 0.0
C244 C 0.45342 0.21398 0.66384 0.0
N245 N 0.4628 0.22039 0.61746 0.0
C246 C 0.4713 0.24232 0.82877 0.0
C247 C 0.45119 0.25115 0.84833 0.0
C248 C 0.46609 0.26164 0.8502 0.0
C249 C 0.47615 0.2569 0.84148 0.0
C250 C 0.44682 0.23659 0.83508 0.0
N251 N 0.45686 0.23253 0.82128 0.0
H252 H 0.4793 0.23895 0.82561 0.0
H253 H 0.43536 0.22864 0.83645 0.0
H254 H 0.48284 0.23319 0.73693 0.0
H255 H 0.44207 0.20585 0.65826 0.0
O256 O 0.46859 0.21238 0.8246 0.0
O257 O 0.44933 0.1937 0.78286 0.0
O258 O 0.43157 0.20815 0.76714 0.0
C259 C 0.46227 0.19895 0.80621 0.0
H260 H 0.41749 0.18459 0.97083 0.0
H261 H 0.48598 0.2356 0.61959 0.0
H262 H 0.44299 0.25411 0.85765 0.0
H263 H 0.48777 0.26439 0.84349 0.0
Co264 Co 0.80737 0.24131 0.79441 0.0
C265 C 0.80918 0.24048 0.92784 0.0
C266 C 0.82579 0.23792 0.88367 0.0
C267 C 0.82768 0.23781 0.94504 0.0
N268 N 0.81419 0.23953 0.87298 0.0
N269 N 0.81727 0.23947 0.97293 0.0
H270 H 0.80007 0.24224 0.93437 0.0
H271 H 0.83257 0.23711 0.84921 0.0
C272 C 0.80613 0.21597 0.72568 0.0
O273 O 0.79353 0.21283 0.70191 0.0
N274 N 0.80087 0.24341 0.71455 0.0
C275 C 0.79075 0.24717 0.70145 0.0
C276 C 0.78974 0.24796 0.63993 0.0
C277 C 0.80637 0.2427 0.6603 0.0
N278 N 0.79947 0.24503 0.61392 0.0
C279 C 0.7775 0.23054 0.8271 0.0
C280 C 0.76941 0.20157 0.8395 0.0
C281 C 0.75864 0.20553 0.8435 0.0
C282 C 0.76297 0.22033 0.83898 0.0
C283 C 0.7839 0.21223 0.82809 0.0
N284 N 0.7876 0.22637 0.81726 0.0
H285 H 0.78057 0.24186 0.82601 0.0
H286 H 0.79209 0.20903 0.82828 0.0
H287 H 0.7848 0.24976 0.73366 0.0
H288 H 0.81515 0.24039 0.65484 0.0
O289 O 0.80697 0.25848 0.82124 0.0
O290 O 0.826 0.2586 0.77951 0.0
O291 O 0.81252 0.22655 0.7628 0.0
C292 C 0.82042 0.26594 0.80313 0.0
H293 H 0.83608 0.23657 0.96724 0.0
H294 H 0.78261 0.25085 0.61626 0.0
H295 H 0.76669 0.19036 0.84573 0.0
H296 H 0.75517 0.22402 0.84334 0.0
Co297 Co 0.91186 0.44667 0.89136 0.0
C298 C 0.91498 0.44873 0.75597 0.0
C299 C 0.93247 0.44795 0.80102 0.0
C300 C 0.93482 0.44841 0.73988 0.0
N301 N 0.92017 0.44842 0.81142 0.0
N302 N 0.92381 0.44888 0.71159 0.0
H303 H 0.90496 0.44866 0.74749 0.0
H304 H 0.93916 0.44708 0.83577 0.0
C305 C 0.94126 0.47317 0.8962 0.0
O306 O 0.93783 0.47718 0.84553 0.0
N307 N 0.90371 0.44456 0.971 0.0
C308 C 0.89013 0.44177 0.98357 0.0
C309 C 0.88835 0.44104 0.04513 0.0
C310 C 0.91002 0.44542 0.02489 0.0
N311 N 0.90084 0.4433 0.07123 0.0
C312 C 0.89485 0.45794 0.83794 0.0
C313 C 0.90624 0.48327 0.90498 0.0
C314 C 0.89452 0.47983 0.86617 0.0
C315 C 0.8889 0.46702 0.83211 0.0
C316 C 0.9118 0.47379 0.90987 0.0
N317 N 0.90643 0.46149 0.87515 0.0
H318 H 0.8895 0.44761 0.81496 0.0
H319 H 0.91985 0.47601 0.94424 0.0
H320 H 0.88211 0.44046 0.9502 0.0
H321 H 0.92101 0.44739 0.02988 0.0
O322 O 0.89408 0.42962 0.86553 0.0
O323 O 0.91319 0.42926 0.90376 0.0
O324 O 0.93184 0.4615 0.92273 0.0
C325 C 0.90007 0.42203 0.88162 0.0
H326 H 0.94369 0.44794 0.71792 0.0
H327 H 0.87866 0.43923 0.06873 0.0
H328 H 0.91055 0.49277 0.93382 0.0
H329 H 0.87968 0.46379 0.80235 0.0
Co330 Co 0.57315 0.46833 0.89279 0.0
C331 C 0.57216 0.47001 0.75729 0.0
C332 C 0.57298 0.48824 0.80264 0.0
C333 C 0.5731 0.49046 0.74155 0.0
N334 N 0.57217 0.47532 0.81278 0.0
N335 N 0.57262 0.47901 0.71292 0.0
H336 H 0.57239 0.46014 0.74899 0.0
H337 H 0.57359 0.49564 0.83759 0.0
C338 C 0.54677 0.4715 0.89354 0.0
O339 O 0.54315 0.46436 0.84214 0.0
N340 N 0.57449 0.46185 0.97259 0.0
C341 C 0.57699 0.45089 0.9855 0.0
C342 C 0.57686 0.44933 0.04712 0.0
C343 C 0.57301 0.46694 0.02633 0.0
N344 N 0.57435 0.4594 0.07276 0.0
C345 C 0.56226 0.44019 0.83822 0.0
C346 C 0.53624 0.42628 0.90081 0.0
C347 C 0.54004 0.41801 0.86379 0.0
C348 C 0.5532 0.42515 0.83205 0.0
C349 C 0.54574 0.44126 0.90662 0.0
N350 N 0.55841 0.4482 0.87413 0.0
H351 H 0.5728 0.4452 0.81688 0.0
H352 H 0.54323 0.44703 0.94023 0.0
H353 H 0.57875 0.44444 0.95232 0.0
H354 H 0.5708 0.4758 0.03125 0.0
O355 O 0.59045 0.46774 0.86962 0.0
O356 O 0.59041 0.48697 0.90817 0.0
O357 O 0.55813 0.47344 0.92189 0.0
C358 C 0.59786 0.48123 0.88704 0.0
H359 H 0.57351 0.49982 0.72006 0.0
H360 H 0.57868 0.44149 0.0712 0.0
H361 H 0.52644 0.42107 0.92796 0.0
H362 H 0.5567 0.41909 0.80412 0.0
Co363 Co 0.55282 0.10873 0.88711 0.0
C364 C 0.55123 0.10637 0.75349 0.0
C365 C 0.53557 0.08658 0.79714 0.0
C366 C 0.53362 0.08472 0.73579 0.0
N367 N 0.54662 0.10011 0.80819 0.0
N368 N 0.54341 0.09717 0.70823 0.0
H369 H 0.55976 0.11755 0.74719 0.0
H370 H 0.52912 0.07871 0.83136 0.0
C371 C 0.55355 0.08465 0.95972 0.0
O372 O 0.56512 0.09406 0.98995 0.0
N373 N 0.55874 0.11743 0.96704 0.0
C374 C 0.56899 0.13127 0.97969 0.0
C375 C 0.56965 0.13336 0.04096 0.0
C376 C 0.55279 0.11153 0.02121 0.0
N377 N 0.55959 0.1209 0.06731 0.0
C378 C 0.58243 0.12859 0.85439 0.0
C379 C 0.59268 0.10927 0.85754 0.0
C380 C 0.60273 0.12422 0.85311 0.0
C381 C 0.59732 0.13381 0.84869 0.0
C382 C 0.57776 0.10449 0.86321 0.0
N383 N 0.57295 0.11428 0.86684 0.0
H384 H 0.57865 0.13627 0.85047 0.0
H385 H 0.57024 0.09295 0.86517 0.0
H386 H 0.57535 0.1396 0.94716 0.0
H387 H 0.54387 0.10051 0.02683 0.0
O388 O 0.55283 0.12603 0.85963 0.0
O389 O 0.53381 0.10684 0.89968 0.0
O390 O 0.54805 0.08891 0.91862 0.0
C391 C 0.53929 0.1198 0.87644 0.0
H392 H 0.52555 0.07492 0.71334 0.0
H393 H 0.57685 0.14341 0.06419 0.0
H394 H 0.59632 0.10138 0.85865 0.0
H395 H 0.60458 0.14537 0.84183 0.0
Co396 Co 0.44719 0.90579 0.13418 0.0
C397 C 0.44799 0.90822 0.26774 0.0
C398 C 0.45145 0.92775 0.22374 0.0
C399 C 0.4516 0.92973 0.28506 0.0
N400 N 0.44925 0.91432 0.21296 0.0
N401 N 0.44936 0.91744 0.31283 0.0
H402 H 0.44574 0.89718 0.27421 0.0
H403 H 0.45265 0.93551 0.18934 0.0
C404 C 0.47289 0.92987 0.06583 0.0
O405 O 0.47538 0.92044 0.03766 0.0
N406 N 0.44478 0.89726 0.05404 0.0
C407 C 0.44034 0.88322 0.04086 0.0
C408 C 0.43942 0.88141 0.97942 0.0
C409 C 0.44568 0.90357 0.99984 0.0
N410 N 0.44291 0.89423 0.95348 0.0
C411 C 0.45697 0.8858 0.16416 0.0
C412 C 0.48633 0.90571 0.17401 0.0
C413 C 0.48173 0.89082 0.17391 0.0
C414 C 0.46682 0.88084 0.1712 0.0
C415 C 0.47604 0.91022 0.16583 0.0
N416 N 0.46167 0.90024 0.15604 0.0
H417 H 0.44553 0.8779 0.16448 0.0
H418 H 0.47972 0.92171 0.16698 0.0
H419 H 0.43731 0.87457 0.07297 0.0
H420 H 0.44845 0.9148 0.99438 0.0
O421 O 0.42974 0.88844 0.16046 0.0
O422 O 0.43016 0.90771 0.11984 0.0
O423 O 0.4625 0.92563 0.10395 0.0
C424 C 0.42254 0.89471 0.14264 0.0
H425 H 0.45325 0.93952 0.30733 0.0
H426 H 0.43604 0.87129 0.95573 0.0
H427 H 0.49777 0.91376 0.17848 0.0
H428 H 0.4628 0.86924 0.17397 0.0
Co429 Co 0.11746 0.54644 0.13225 0.0
C430 C 0.11504 0.54461 0.26581 0.0
C431 C 0.09582 0.52803 0.22181 0.0
C432 C 0.09392 0.52608 0.28318 0.0
N433 N 0.10901 0.53966 0.21101 0.0
N434 N 0.10602 0.53647 0.31094 0.0
H435 H 0.12594 0.5537 0.27233 0.0
H436 H 0.0882 0.52127 0.18739 0.0
C437 C 0.09327 0.54759 0.0623 0.0
O438 O 0.1027 0.55961 0.03459 0.0
N439 N 0.12596 0.55297 0.0525 0.0
C440 C 0.13955 0.56379 0.03972 0.0
C441 C 0.14145 0.56479 0.97826 0.0
C442 C 0.12003 0.54711 0.99829 0.0
N443 N 0.12914 0.5544 0.95204 0.0
C444 C 0.13737 0.57554 0.17101 0.0
C445 C 0.11853 0.58636 0.16776 0.0
C446 C 0.13348 0.59615 0.17577 0.0
C447 C 0.14276 0.59035 0.18052 0.0
C448 C 0.11354 0.57147 0.15957 0.0
N449 N 0.12314 0.56643 0.15591 0.0
H450 H 0.14491 0.57155 0.17412 0.0
H451 H 0.10199 0.56418 0.15577 0.0
H452 H 0.14779 0.57037 0.07226 0.0
H453 H 0.10916 0.53791 0.99282 0.0
O454 O 0.1348 0.54613 0.15729 0.0
O455 O 0.11545 0.52753 0.116 0.0
O456 O 0.09756 0.54182 0.10209 0.0
C457 C 0.12845 0.53274 0.13859 0.0
H458 H 0.08432 0.51764 0.3055 0.0
H459 H 0.15128 0.57246 0.9548 0.0
H460 H 0.11076 0.59014 0.16604 0.0
H461 H 0.15423 0.59722 0.19053 0.0
Co462 Co 0.4752 0.57544 0.13342 0.0
C463 C 0.47719 0.57483 0.26684 0.0
C464 C 0.49377 0.57223 0.22261 0.0
C465 C 0.49572 0.57222 0.284 0.0
N466 N 0.48215 0.57381 0.21196 0.0
N467 N 0.48533 0.5739 0.31191 0.0
H468 H 0.46808 0.57659 0.27345 0.0
H469 H 0.5005 0.57135 0.18811 0.0
C470 C 0.47386 0.55024 0.0633 0.0
O471 O 0.46149 0.54749 0.03839 0.0
N472 N 0.46852 0.57738 0.05378 0.0
C473 C 0.45765 0.58007 0.04087 0.0
C474 C 0.45663 0.58094 0.97938 0.0
C475 C 0.47438 0.57732 0.99954 0.0
N476 N 0.46706 0.57907 0.9532 0.0
C477 C 0.44583 0.5654 0.17159 0.0
C478 C 0.43661 0.53605 0.17755 0.0
C479 C 0.42644 0.54063 0.18669 0.0
C480 C 0.43133 0.55556 0.18556 0.0
C481 C 0.45117 0.54637 0.16509 0.0
N482 N 0.4554 0.56076 0.15751 0.0
H483 H 0.44928 0.57683 0.17172 0.0
H484 H 0.45894 0.54267 0.16211 0.0
H485 H 0.45105 0.58171 0.07327 0.0
H486 H 0.48362 0.57571 0.99412 0.0
O487 O 0.47507 0.59279 0.15949 0.0
O488 O 0.49391 0.59263 0.1174 0.0
O489 O 0.48009 0.56047 0.10207 0.0
C490 C 0.48846 0.60012 0.14084 0.0
H491 H 0.50415 0.57102 0.30624 0.0
H492 H 0.44893 0.58305 0.95586 0.0
H493 H 0.43337 0.52464 0.18072 0.0
H494 H 0.42391 0.5596 0.1939 0.0
Co495 Co 0.57941 0.78093 0.22439 0.0
C496 C 0.58247 0.78298 0.08902 0.0
C497 C 0.59999 0.78223 0.13393 0.0
C498 C 0.60233 0.7827 0.07277 0.0
N499 N 0.58768 0.78266 0.14441 0.0
N500 N 0.5913 0.78315 0.04457 0.0
H501 H 0.57244 0.7829 0.08064 0.0
H502 H 0.60671 0.78139 0.16863 0.0
C503 C 0.60872 0.80756 0.22849 0.0
O504 O 0.60516 0.81148 0.17789 0.0
N505 N 0.57129 0.77883 0.30406 0.0
C506 C 0.55768 0.77595 0.31664 0.0
C507 C 0.5559 0.7752 0.37819 0.0
C508 C 0.57762 0.77973 0.35794 0.0
N509 N 0.56841 0.77754 0.40427 0.0
C510 C 0.56209 0.7919 0.1712 0.0
C511 C 0.57349 0.81735 0.2374 0.0
C512 C 0.56164 0.81373 0.19917 0.0
C513 C 0.55599 0.80085 0.16559 0.0
C514 C 0.57915 0.80796 0.2423 0.0
N515 N 0.57379 0.7956 0.20797 0.0
H516 H 0.55678 0.78153 0.14845 0.0
H517 H 0.5873 0.81031 0.27641 0.0
H518 H 0.54964 0.77457 0.28328 0.0
H519 H 0.58863 0.78175 0.36292 0.0
O520 O 0.5617 0.76373 0.19894 0.0
O521 O 0.58096 0.76366 0.23712 0.0
O522 O 0.59938 0.7959 0.25538 0.0
C523 C 0.56784 0.75629 0.21519 0.0
H524 H 0.61121 0.78226 0.05074 0.0
H525 H 0.54618 0.77332 0.40179 0.0
H526 H 0.57782 0.82692 0.26586 0.0
H527 H 0.54664 0.79749 0.13642 0.0
Co528 Co 0.24143 0.80369 0.22028 0.0
C529 C 0.24026 0.8053 0.08476 0.0
C530 C 0.2385 0.82217 0.13012 0.0
C531 C 0.23855 0.82437 0.06902 0.0
N532 N 0.23922 0.81 0.14032 0.0
N533 N 0.23967 0.81377 0.0404 0.0
H534 H 0.24225 0.79646 0.07634 0.0
H535 H 0.23829 0.82919 0.16498 0.0
C536 C 0.21448 0.80572 0.22765 0.0
O537 O 0.21024 0.79778 0.1783 0.0
N538 N 0.24403 0.79795 0.29988 0.0
C539 C 0.24732 0.7875 0.31218 0.0
C540 C 0.24771 0.78614 0.37375 0.0
C541 C 0.24257 0.80293 0.35395 0.0
N542 N 0.24469 0.79581 0.40002 0.0
C543 C 0.22921 0.77529 0.16527 0.0
C544 C 0.20525 0.76152 0.24023 0.0
C545 C 0.20747 0.75326 0.19673 0.0
C546 C 0.21962 0.76034 0.15878 0.0
C547 C 0.21498 0.77649 0.24448 0.0
N548 N 0.22656 0.78337 0.20588 0.0
H549 H 0.23924 0.7801 0.14019 0.0
H550 H 0.21351 0.7824 0.28085 0.0
H551 H 0.24915 0.78119 0.27859 0.0
H552 H 0.23971 0.81133 0.3594 0.0
O553 O 0.25846 0.80306 0.1931 0.0
O554 O 0.25875 0.82253 0.23102 0.0
O555 O 0.22656 0.8087 0.25258 0.0
C556 C 0.266 0.81671 0.20852 0.0
H557 H 0.23792 0.8332 0.04753 0.0
H558 H 0.25013 0.77866 0.39733 0.0
H559 H 0.19621 0.75642 0.27153 0.0
H560 H 0.22212 0.75423 0.1265 0.0
Co561 Co 0.2185 0.44196 0.21855 0.0
C562 C 0.21745 0.4389 0.08304 0.0
C563 C 0.20029 0.42045 0.12828 0.0
C564 C 0.19837 0.4181 0.06714 0.0
N565 N 0.21246 0.43333 0.13862 0.0
N566 N 0.20916 0.42972 0.0387 0.0
H567 H 0.22664 0.4495 0.07441 0.0
H568 H 0.19306 0.41336 0.16304 0.0
C569 C 0.21671 0.41312 0.22738 0.0
O570 O 0.22475 0.41678 0.1783 0.0
N571 N 0.22396 0.45037 0.29811 0.0
C572 C 0.23429 0.46414 0.31065 0.0
C573 C 0.23511 0.46601 0.3722 0.0
C574 C 0.21855 0.44403 0.35197 0.0
N575 N 0.2252 0.45338 0.39827 0.0
C576 C 0.24695 0.45871 0.1654 0.0
C577 C 0.26103 0.44897 0.24081 0.0
C578 C 0.26935 0.45993 0.19881 0.0
C579 C 0.26201 0.46463 0.16029 0.0
C580 C 0.24594 0.44318 0.24374 0.0
N581 N 0.23894 0.44773 0.2051 0.0
H582 H 0.24196 0.46369 0.13988 0.0
H583 H 0.24004 0.4356 0.27959 0.0
H584 H 0.2409 0.47221 0.27729 0.0
H585 H 0.20988 0.43287 0.357 0.0
O586 O 0.21897 0.45946 0.19054 0.0
O587 O 0.19951 0.44021 0.22811 0.0
O588 O 0.21365 0.42221 0.25166 0.0
C589 C 0.20529 0.45326 0.20541 0.0
H590 H 0.1894 0.40881 0.04532 0.0
H591 H 0.24266 0.47586 0.39584 0.0
H592 H 0.26617 0.44537 0.2734 0.0
H593 H 0.26785 0.47317 0.12748 0.0
C594 C 0.2228 0.16391 0.47208 0.0
C595 C 0.22427 0.15847 0.5278 0.0
C596 C 0.2162 0.17249 0.46868 0.0
C597 C 0.20312 0.19298 0.56388 0.0
H598 H 0.17917 0.18766 0.42349 0.0
C599 C 0.17102 0.22387 0.53567 0.0
C600 C 0.15712 0.21611 0.50907 0.0
C601 C 0.18039 0.21809 0.5362 0.0
C602 C 0.18568 0.1892 0.46341 0.0
H603 H 0.21997 0.1577 0.62366 0.0
H604 H 0.20797 0.17213 0.61776 0.0
H605 H 0.19293 0.17511 0.42911 0.0
H606 H 0.14249 0.19629 0.46055 0.0
H607 H 0.15828 0.186 0.46445 0.0
H608 H 0.19512 0.20639 0.59966 0.0
C609 C 0.21232 0.17026 0.5767 0.0
C610 C 0.19383 0.18217 0.46617 0.0
C611 C 0.21914 0.1619 0.58016 0.0
C612 C 0.15294 0.2025 0.48271 0.0
C613 C 0.16218 0.19669 0.48387 0.0
C614 C 0.19478 0.19986 0.5615 0.0
C615 C 0.21064 0.1756 0.52082 0.0
C616 C 0.20259 0.18382 0.51668 0.0
C617 C 0.17607 0.20438 0.51038 0.0
C618 C 0.18578 0.19791 0.51153 0.0
H619 H 0.2268 0.16155 0.43108 0.0
H620 H 0.21545 0.17663 0.42498 0.0
H621 H 0.20992 0.19479 0.60309 0.0
H622 H 0.17463 0.23433 0.55676 0.0
H623 H 0.19105 0.22444 0.55649 0.0
C624 C 0.85794 0.06266 0.47168 0.0
C625 C 0.86347 0.06964 0.5272 0.0
C626 C 0.84941 0.04748 0.46863 0.0
C627 C 0.82917 0.014 0.56458 0.0
H628 H 0.83433 0.99529 0.42422 0.0
C629 C 0.79825 0.951 0.53719 0.0
C630 C 0.80598 0.94485 0.51045 0.0
C631 C 0.80404 0.96614 0.53762 0.0
C632 C 0.83284 1.00028 0.46413 0.0
H633 H 0.86446 0.06622 0.62305 0.0
H634 H 0.85009 0.03978 0.61773 0.0
H635 H 0.84684 0.02159 0.42936 0.0
H636 H 0.82577 0.95004 0.46163 0.0
H637 H 0.83607 0.97611 0.46532 0.0
H638 H 0.81584 0.99261 0.60079 0.0
C639 C 0.85186 0.04595 0.57658 0.0
C640 C 0.83984 0.01547 0.46662 0.0
C641 C 0.86018 0.06114 0.57971 0.0
C642 C 0.81958 0.95427 0.48389 0.0
C643 C 0.8254 0.96933 0.48493 0.0
C644 C 0.82231 0.99878 0.56245 0.0
C645 C 0.84642 0.03886 0.52091 0.0
C646 C 0.83824 0.02259 0.51711 0.0
C647 C 0.81773 0.97552 0.51155 0.0
C648 C 0.82419 0.9917 0.51249 0.0
H649 H 0.86019 0.06897 0.43058 0.0
H650 H 0.84519 0.04253 0.42509 0.0
H651 H 0.82741 0.01901 0.60379 0.0
H652 H 0.78781 0.94415 0.55845 0.0
H653 H 0.79771 0.97045 0.55801 0.0
C654 C 0.9599 0.79792 0.57927 0.0
C655 C 0.95218 0.79743 0.52674 0.0
C656 C 0.97509 0.80462 0.57887 0.0
C657 C 1.00741 0.81944 0.47596 0.0
H658 H 0.02783 0.84073 0.61957 0.0
C659 C 0.07047 0.85018 0.48954 0.0
C660 C 0.07717 0.86387 0.51803 0.0
C661 C 0.05538 0.84082 0.4936 0.0
C662 C 0.02235 0.83495 0.57881 0.0
H663 H 0.95466 0.80344 0.43202 0.0
H664 H 0.9811 0.81574 0.43212 0.0
H665 H 1.00144 0.82737 0.61854 0.0
H666 H 0.0732 0.87801 0.57603 0.0
H667 H 0.04706 0.86213 0.58093 0.0
H668 H 0.02838 0.82776 0.43513 0.0
C669 C 0.97539 0.81063 0.47346 0.0
C670 C 1.00713 0.82704 0.57854 0.0
C671 C 0.96016 0.80374 0.47363 0.0
C672 C 0.06844 0.8677 0.5524 0.0
C673 C 0.05339 0.85844 0.556 0.0
C674 C 0.02266 0.82751 0.47599 0.0
C675 C 0.9831 0.81127 0.52623 0.0
C676 C 0.9994 0.81924 0.52699 0.0
C677 C 0.04658 0.84493 0.52607 0.0
C678 C 0.03036 0.83551 0.52724 0.0
H679 H 0.95428 0.79344 0.62145 0.0
H680 H 0.98055 0.80462 0.6202 0.0
H681 H 1.00192 0.81339 0.4357 0.0
H682 H 0.07681 0.84687 0.46246 0.0
H683 H 0.0506 0.83041 0.47078 0.0
C684 C 0.79517 0.84163 0.47459 0.0
C685 C 0.80299 0.85688 0.4799 0.0
C686 C 0.80228 0.83356 0.48068 0.0
C687 C 0.83801 0.83637 0.4655 0.0
H688 H 0.82305 0.80361 0.57558 0.0
C689 C 0.87181 0.80923 0.52636 0.0
C690 C 0.86451 0.79416 0.53704 0.0
C691 C 0.864 0.81655 0.51905 0.0
C692 C 0.82728 0.81256 0.54382 0.0
H693 H 0.82439 0.87563 0.49493 0.0
H694 H 0.83681 0.86158 0.50424 0.0
H695 H 0.80977 0.8167 0.56157 0.0
H696 H 0.8433 0.77492 0.54791 0.0
H697 H 0.82962 0.78754 0.53303 0.0
H698 H 0.8553 0.83215 0.44629 0.0
C699 C 0.82519 0.85586 0.49576 0.0
C700 C 0.81967 0.82009 0.53603 0.0
C701 C 0.81806 0.86389 0.49072 0.0
C702 C 0.84924 0.78656 0.54016 0.0
C703 C 0.8414 0.79384 0.53195 0.0
C704 C 0.8455 0.82873 0.47253 0.0
C705 C 0.81738 0.84061 0.49106 0.0
C706 C 0.82504 0.83216 0.49727 0.0
C707 C 0.84867 0.80896 0.52124 0.0
C708 C 0.84035 0.8168 0.51233 0.0
H709 H 0.78354 0.83593 0.4664 0.0
H710 H 0.79601 0.82182 0.47656 0.0
H711 H 0.8423 0.84553 0.4347 0.0
H712 H 0.88359 0.81541 0.5242 0.0
H713 H 0.87006 0.82822 0.51231 0.0
C714 C 0.21234 0.0663 0.52839 0.0
C715 C 0.22746 0.0741 0.53822 0.0
C716 C 0.20496 0.05113 0.52273 0.0
C717 C 0.20971 0.02047 0.48019 0.0
H718 H 0.17457 0.99734 0.57342 0.0
C719 C 0.17961 0.95735 0.47802 0.0
C720 C 0.16435 0.94985 0.4824 0.0
C721 C 0.18764 0.97248 0.48589 0.0
C722 C 0.18422 1.0036 0.54621 0.0
H723 H 0.24673 0.07214 0.54902 0.0
H724 H 0.23383 0.04561 0.53783 0.0
H725 H 0.18782 0.02373 0.58401 0.0
H726 H 0.14551 0.95234 0.49713 0.0
H727 H 0.15935 0.97865 0.50847 0.0
H728 H 0.20594 1.00048 0.44078 0.0
C729 C 0.22771 0.05126 0.53494 0.0
C730 C 0.19185 0.01874 0.55263 0.0
C731 C 0.23507 0.06643 0.54163 0.0
C732 C 0.15727 0.95779 0.49407 0.0
C733 C 0.16526 0.97291 0.50104 0.0
C734 C 0.20196 1.00533 0.47303 0.0
C735 C 0.21256 0.04345 0.5258 0.0
C736 C 0.20465 0.02734 0.51962 0.0
C737 C 0.18058 0.98049 0.4975 0.0
C738 C 0.18906 0.99665 0.50581 0.0
H739 H 0.20617 0.0719 0.52565 0.0
H740 H 0.1933 0.04541 0.51524 0.0
H741 H 0.21948 0.02686 0.45376 0.0
H742 H 0.18537 0.9515 0.46939 0.0
H743 H 0.1994 0.97783 0.48373 0.0
C744 C 0.95552 0.15023 0.52458 0.0
C745 C 0.94766 0.15748 0.53446 0.0
C746 C 0.97068 0.15807 0.51864 0.0
C747 C 1.00127 0.19351 0.47572 0.0
H748 H 0.02446 0.1817 0.56973 0.0
C749 C 0.0645 0.22664 0.47444 0.0
C750 C 0.07199 0.21888 0.47959 0.0
C751 C 0.04934 0.21953 0.48167 0.0
C752 C 0.0182 0.18505 0.54228 0.0
H753 H 0.94951 0.17866 0.54495 0.0
H754 H 0.97604 0.1924 0.53326 0.0
H755 H 0.99807 0.1685 0.58019 0.0
H756 H 0.06944 0.19755 0.49469 0.0
H757 H 0.04311 0.18508 0.50484 0.0
H758 H 0.02128 0.20976 0.43625 0.0
C759 C 0.97044 0.18063 0.53056 0.0
C760 C 1.00305 0.1775 0.54864 0.0
C761 C 0.95527 0.17276 0.53753 0.0
C762 C 0.064 0.20386 0.49108 0.0
C763 C 0.04887 0.19673 0.49739 0.0
C764 C 0.01644 0.20095 0.46862 0.0
C765 C 0.9783 0.17336 0.52147 0.0
C766 C 0.99442 0.18162 0.51534 0.0
C767 C 0.0413 0.20446 0.4934 0.0
C768 C 0.02513 0.19678 0.50164 0.0
H769 H 0.94996 0.13846 0.52208 0.0
H770 H 0.97645 0.15218 0.5112 0.0
H771 H 0.99487 0.19685 0.44911 0.0
H772 H 0.07038 0.23825 0.46591 0.0
H773 H 0.04399 0.22594 0.47908 0.0
C774 C 0.8957 0.50415 0.86069 0.0
C775 C 0.88742 0.48889 0.86445 0.0
C776 C 0.88883 0.51251 0.85753 0.0
C777 C 0.85299 0.50892 0.81967 0.0
H778 H 0.86898 0.5467 0.89635 0.0
C779 C 0.82653 0.54384 0.7805 0.0
C780 C 0.82506 0.55118 0.83026 0.0
C781 C 0.83551 0.53774 0.78365 0.0
C782 C 0.86431 0.53613 0.875 0.0
H783 H 0.86549 0.4705 0.87103 0.0
H784 H 0.85356 0.48497 0.86678 0.0
H785 H 0.88157 0.53281 0.90644 0.0
H786 H 0.83219 0.55839 0.92168 0.0
H787 H 0.84766 0.54733 0.92818 0.0
H788 H 0.83547 0.51184 0.79023 0.0
C789 C 0.86533 0.49053 0.86412 0.0
C790 C 0.87163 0.52822 0.88017 0.0
C791 C 0.87217 0.48221 0.86668 0.0
C792 C 0.83321 0.55282 0.88261 0.0
C793 C 0.84209 0.54651 0.88616 0.0
C794 C 0.84566 0.51674 0.81488 0.0
C795 C 0.87352 0.50578 0.85862 0.0
C796 C 0.86602 0.51447 0.85274 0.0
C797 C 0.84307 0.53857 0.83711 0.0
C798 C 0.8512 0.53047 0.84228 0.0
H799 H 0.90748 0.50959 0.85878 0.0
H800 H 0.89551 0.5242 0.8528 0.0
H801 H 0.84843 0.49851 0.79701 0.0
H802 H 0.82048 0.54259 0.73935 0.0
H803 H 0.83631 0.53212 0.74431 0.0
C804 C 0.48421 0.28613 0.89294 0.0
C805 C 0.47128 0.27741 0.86059 0.0
C806 C 0.49004 0.30117 0.89705 0.0
C807 C 0.48872 0.33185 0.82119 0.0
H808 H 0.5127 0.35346 0.95774 0.0
C809 C 0.51596 0.39491 0.85224 0.0
C810 C 0.53104 0.40189 0.86299 0.0
C811 C 0.50752 0.37968 0.85317 0.0
C812 C 0.50603 0.34755 0.91933 0.0
H813 H 0.454 0.27779 0.80958 0.0
H814 H 0.46379 0.30395 0.81929 0.0
H815 H 0.49932 0.32695 0.96054 0.0
H816 H 0.54906 0.39847 0.88416 0.0
H817 H 0.53427 0.3719 0.88715 0.0
H818 H 0.49532 0.35266 0.78092 0.0
C819 C 0.46971 0.29919 0.83983 0.0
C820 C 0.49841 0.33233 0.92064 0.0
C821 C 0.46395 0.28411 0.83505 0.0
C822 C 0.53749 0.39337 0.87511 0.0
C823 C 0.52902 0.3782 0.87728 0.0
C824 C 0.49614 0.3471 0.82044 0.0
C825 C 0.483 0.30799 0.86992 0.0
C826 C 0.4899 0.32423 0.87102 0.0
C827 C 0.51396 0.3712 0.86634 0.0
C828 C 0.5051 0.35508 0.86898 0.0
H829 H 0.49003 0.28138 0.91446 0.0
H830 H 0.50036 0.30747 0.92003 0.0
H831 H 0.48248 0.32609 0.78172 0.0
H832 H 0.51074 0.40125 0.84282 0.0
H833 H 0.49592 0.37454 0.84472 0.0
C834 C 0.73653 0.18144 0.81826 0.0
C835 C 0.74297 0.19445 0.85172 0.0
C836 C 0.7215 0.17171 0.82161 0.0
C837 C 0.68859 0.16231 0.9138 0.0
H838 H 0.66772 0.14718 0.76324 0.0
C839 C 0.62754 0.14237 0.89091 0.0
C840 C 0.61875 0.13005 0.85539 0.0
C841 C 0.64262 0.1483 0.89273 0.0
C842 C 0.67339 0.1511 0.80581 0.0
H843 H 0.73872 0.20707 0.91716 0.0
H844 H 0.71261 0.19029 0.92245 0.0
H845 H 0.69432 0.16097 0.76313 0.0
H846 H 0.61895 0.11418 0.79447 0.0
H847 H 0.64548 0.12462 0.79757 0.0
H848 H 0.66768 0.15279 0.95626 0.0
C849 C 0.71913 0.18751 0.89373 0.0
C850 C 0.68865 0.15901 0.80578 0.0
C851 C 0.73411 0.19724 0.89021 0.0
C852 C 0.62542 0.12365 0.82236 0.0
C853 C 0.64061 0.12969 0.82381 0.0
C854 C 0.67337 0.15445 0.9138 0.0
C855 C 0.71258 0.17472 0.85884 0.0
C856 C 0.69644 0.16499 0.85963 0.0
C857 C 0.64938 0.14212 0.85901 0.0
C858 C 0.66556 0.14901 0.85965 0.0
H859 H 0.74303 0.179 0.78788 0.0
H860 H 0.71685 0.16188 0.79462 0.0
H861 H 0.69422 0.16648 0.95628 0.0
H862 H 0.62274 0.14745 0.91758 0.0
H863 H 0.64902 0.15797 0.91973 0.0
C864 C 0.46152 0.17492 0.80676 0.0
C865 C 0.46952 0.19017 0.81165 0.0
C866 C 0.46846 0.16669 0.81294 0.0
C867 C 0.50386 0.16897 0.79624 0.0
H868 H 0.48909 0.13654 0.90804 0.0
C869 C 0.53785 0.14227 0.85796 0.0
C870 C 0.53072 0.12724 0.86936 0.0
C871 C 0.52992 0.14943 0.85043 0.0
C872 C 0.49326 0.14539 0.87581 0.0
H873 H 0.49105 0.20877 0.82614 0.0
H874 H 0.50318 0.19443 0.83556 0.0
H875 H 0.47593 0.14977 0.89425 0.0
H876 H 0.50965 0.10789 0.88163 0.0
H877 H 0.4957 0.12028 0.86637 0.0
H878 H 0.52095 0.16452 0.77633 0.0
C879 C 0.49155 0.18884 0.82736 0.0
C880 C 0.48572 0.153 0.86816 0.0
C881 C 0.48459 0.19703 0.82224 0.0
C882 C 0.51545 0.11951 0.87317 0.0
C883 C 0.50747 0.12665 0.86474 0.0
C884 C 0.51126 0.16124 0.80313 0.0
C885 C 0.48357 0.17359 0.82298 0.0
C886 C 0.49106 0.16498 0.82889 0.0
C887 C 0.5146 0.14173 0.85307 0.0
C888 C 0.50621 0.14947 0.8437 0.0
H889 H 0.44989 0.16933 0.79877 0.0
H890 H 0.46206 0.15495 0.80909 0.0
H891 H 0.50811 0.17803 0.76498 0.0
H892 H 0.54962 0.14856 0.85538 0.0
H893 H 0.53588 0.16108 0.84313 0.0
C894 C 0.82186 0.28991 0.82178 0.0
C895 C 0.82893 0.28198 0.80971 0.0
C896 C 0.82987 0.30505 0.82829 0.0
C897 C 0.86574 0.33514 0.87008 0.0
H898 H 0.85385 0.35919 0.78308 0.0
C899 C 0.8998 0.39824 0.87682 0.0
C900 C 0.89229 0.40601 0.87447 0.0
C901 C 0.89238 0.38312 0.86817 0.0
C902 C 0.85722 0.35268 0.80861 0.0
H903 H 0.84995 0.28366 0.79559 0.0
H904 H 0.86398 0.31014 0.80823 0.0
H905 H 0.84025 0.33287 0.77015 0.0
H906 H 0.87107 0.404 0.86277 0.0
H907 H 0.85806 0.37772 0.85018 0.0
H908 H 0.88241 0.35481 0.91017 0.0
C909 C 0.85223 0.30462 0.81223 0.0
C910 C 0.84945 0.33757 0.80082 0.0
C911 C 0.8442 0.28949 0.80469 0.0
C912 C 0.87719 0.39834 0.86428 0.0
C913 C 0.86975 0.38324 0.85655 0.0
C914 C 0.8734 0.35025 0.87864 0.0
C915 C 0.84514 0.31257 0.82389 0.0
C916 C 0.8536 0.32864 0.83151 0.0
C917 C 0.87723 0.37539 0.85779 0.0
C918 C 0.86924 0.35926 0.84813 0.0
H919 H 0.81011 0.28444 0.82584 0.0
H920 H 0.82412 0.31088 0.83768 0.0
H921 H 0.8691 0.3285 0.89478 0.0
H922 H 0.91146 0.40387 0.88424 0.0
H923 H 0.89861 0.37757 0.86858 0.0
C924 C 0.62186 0.48243 0.87303 0.0
C925 C 0.61393 0.48963 0.88237 0.0
C926 C 0.63704 0.49031 0.86818 0.0
C927 C 0.66749 0.52586 0.82592 0.0
H928 H 0.69094 0.51406 0.91813 0.0
C929 C 0.73058 0.55916 0.82092 0.0
C930 C 0.73815 0.55146 0.82419 0.0
C931 C 0.71549 0.55202 0.83008 0.0
C932 C 0.6846 0.51741 0.89125 0.0
H933 H 0.61569 0.51076 0.89345 0.0
H934 H 0.64227 0.52457 0.88371 0.0
H935 H 0.66455 0.50075 0.92934 0.0
H936 H 0.73582 0.53019 0.83859 0.0
H937 H 0.70956 0.51764 0.85228 0.0
H938 H 0.68739 0.54219 0.78614 0.0
C939 C 0.6367 0.51281 0.88057 0.0
C940 C 0.66945 0.5098 0.89802 0.0
C941 C 0.62151 0.5049 0.88645 0.0
C942 C 0.73031 0.53646 0.83637 0.0
C943 C 0.71523 0.52928 0.84466 0.0
C944 C 0.68264 0.53335 0.81842 0.0
C945 C 0.64462 0.50559 0.87157 0.0
C946 C 0.66073 0.51392 0.86534 0.0
C947 C 0.70757 0.53695 0.8419 0.0
C948 C 0.69142 0.52921 0.85083 0.0
H949 H 0.61633 0.47067 0.86975 0.0
H950 H 0.64286 0.48447 0.86078 0.0
H951 H 0.66102 0.52919 0.7997 0.0
H952 H 0.73634 0.57075 0.81191 0.0
H953 H 0.71009 0.55838 0.82855 0.0
C954 C 0.49203 0.87671 0.12624 0.0
C955 C 0.49218 0.88541 0.17418 0.0
C956 C 0.50074 0.87028 0.12787 0.0
C957 C 0.53148 0.87003 0.20993 0.0
H958 H 0.51391 0.83128 0.14136 0.0
C959 C 0.56255 0.83788 0.19151 0.0
C960 C 0.55442 0.82267 0.19782 0.0
C961 C 0.55557 0.84614 0.18918 0.0
C962 C 0.51897 0.84201 0.16148 0.0
H963 H 0.50175 0.89457 0.26085 0.0
H964 H 0.5167 0.88289 0.26517 0.0
H965 H 0.50089 0.84456 0.13752 0.0
H966 H 0.53268 0.80427 0.20953 0.0
H967 H 0.52055 0.81857 0.2074 0.0
H968 H 0.54929 0.8671 0.23642 0.0
C969 C 0.51011 0.88128 0.22544 0.0
C970 C 0.51157 0.8498 0.15825 0.0
C971 C 0.50153 0.88794 0.22322 0.0
C972 C 0.53921 0.81594 0.2033 0.0
C973 C 0.53226 0.82418 0.20184 0.0
C974 C 0.53884 0.86215 0.21379 0.0
C975 C 0.50961 0.87212 0.17821 0.0
C976 C 0.51772 0.86395 0.18212 0.0
C977 C 0.5403 0.83938 0.19394 0.0
C978 C 0.53266 0.848 0.18968 0.0
H979 H 0.48499 0.87473 0.08763 0.0
H980 H 0.50034 0.86371 0.08976 0.0
H981 H 0.53665 0.88094 0.22838 0.0
H982 H 0.57429 0.84335 0.18706 0.0
H983 H 0.56214 0.85778 0.18238 0.0
C984 C 0.19254 0.73019 0.13809 0.0
C985 C 0.19784 0.7372 0.19375 0.0
C986 C 0.18401 0.715 0.13505 0.0
C987 C 0.16325 0.68158 0.23082 0.0
H988 H 0.16889 0.66273 0.09207 0.0
C989 C 0.13189 0.61856 0.20293 0.0
C990 C 0.1396 0.61228 0.17723 0.0
C991 C 0.13785 0.63373 0.20345 0.0
C992 C 0.16725 0.66776 0.13154 0.0
H993 H 0.19843 0.73381 0.28987 0.0
H994 H 0.18404 0.70736 0.28463 0.0
H995 H 0.18153 0.68905 0.09711 0.0
H996 H 0.15957 0.61726 0.13039 0.0
H997 H 0.17015 0.64337 0.13423 0.0
H998 H 0.14961 0.66021 0.26672 0.0
C999 C 0.186 0.71352 0.24331 0.0
C1000 C 0.17435 0.68295 0.13395 0.0
C1001 C 0.19433 0.72871 0.2464 0.0
C1002 C 0.15337 0.6216 0.15184 0.0
C1003 C 0.15937 0.63668 0.15296 0.0
C1004 C 0.1563 0.66635 0.22877 0.0
C1005 C 0.18079 0.7064 0.18752 0.0
C1006 C 0.17257 0.69013 0.18384 0.0
C1007 C 0.15171 0.64301 0.1785 0.0
C1008 C 0.15834 0.65921 0.17939 0.0
H1009 H 0.19496 0.73647 0.09686 0.0
H1010 H 0.17996 0.71003 0.09139 0.0
H1011 H 0.16135 0.68663 0.26955 0.0
H1012 H 0.12131 0.61181 0.22328 0.0
H1013 H 0.13153 0.63815 0.22299 0.0
C1014 C 0.40301 0.51886 0.15426 0.0
C1015 C 0.41075 0.53008 0.19607 0.0
C1016 C 0.38783 0.51016 0.15838 0.0
C1017 C 0.35601 0.51085 0.22588 0.0
H1018 H 0.33486 0.47108 0.16793 0.0
C1019 C 0.29417 0.48216 0.18609 0.0
C1020 C 0.28562 0.46717 0.19826 0.0
C1021 C 0.30937 0.4891 0.18706 0.0
C1022 C 0.34056 0.48211 0.18502 0.0
H1023 H 0.4089 0.54043 0.27707 0.0
H1024 H 0.38259 0.52489 0.28617 0.0
H1025 H 0.36136 0.48382 0.17165 0.0
H1026 H 0.28662 0.44776 0.22043 0.0
H1027 H 0.3131 0.45998 0.22477 0.0
H1028 H 0.33529 0.50902 0.24148 0.0
C1029 C 0.38804 0.5231 0.24863 0.0
C1030 C 0.35582 0.48952 0.18636 0.0
C1031 C 0.40315 0.53195 0.24385 0.0
C1032 C 0.29278 0.45933 0.21144 0.0
C1033 C 0.30802 0.46633 0.21312 0.0
C1034 C 0.34079 0.5034 0.22525 0.0
C1035 C 0.38008 0.51234 0.205 0.0
C1036 C 0.36378 0.50406 0.20632 0.0
C1037 C 0.31655 0.48134 0.20123 0.0
C1038 C 0.33282 0.48899 0.20409 0.0
H1039 H 0.4086 0.51729 0.11665 0.0
H1040 H 0.38216 0.50214 0.12348 0.0
H1041 H 0.36164 0.52208 0.24065 0.0
H1042 H 0.28918 0.4887 0.17685 0.0
H1043 H 0.31548 0.50059 0.17649 0.0
C1044 C 0.15082 0.53083 0.15323 0.0
C1045 C 0.13574 0.52397 0.14291 0.0
C1046 C 0.15782 0.52266 0.1575 0.0
C1047 C 0.152 0.48671 0.19645 0.0
H1048 H 0.18741 0.49857 0.1054 0.0
C1049 C 0.18156 0.45313 0.20012 0.0
C1050 C 0.19684 0.4608 0.19716 0.0
C1051 C 0.17366 0.46034 0.19154 0.0
C1052 C 0.17767 0.4952 0.13197 0.0
H1053 H 0.11613 0.50314 0.1295 0.0
H1054 H 0.12837 0.48879 0.1383 0.0
H1055 H 0.17456 0.51211 0.09482 0.0
H1056 H 0.21585 0.4821 0.1841 0.0
H1057 H 0.20223 0.49476 0.1715 0.0
H1058 H 0.15531 0.47013 0.23536 0.0
C1059 C 0.13476 0.50052 0.14263 0.0
C1060 C 0.17026 0.50294 0.12552 0.0
C1061 C 0.12778 0.50873 0.13731 0.0
C1062 C 0.20407 0.47585 0.18609 0.0
C1063 C 0.19621 0.48309 0.17838 0.0
C1064 C 0.15953 0.47908 0.20364 0.0
C1065 C 0.14987 0.50742 0.1525 0.0
C1066 C 0.15739 0.49882 0.15788 0.0
C1067 C 0.18087 0.47545 0.18058 0.0
C1068 C 0.17254 0.48327 0.17175 0.0
H1069 H 0.15726 0.54256 0.15766 0.0
H1070 H 0.16946 0.52826 0.16561 0.0
H1071 H 0.14217 0.48338 0.22237 0.0
H1072 H 0.17568 0.4415 0.20826 0.0
H1073 H 0.16189 0.45401 0.19269 0.0
C1074 C 0.56787 0.73264 0.21158 0.0
C1075 C 0.56019 0.74025 0.20878 0.0
C1076 C 0.56057 0.71748 0.20436 0.0
C1077 C 0.52475 0.68481 0.22108 0.0
H1078 H 0.53874 0.66698 0.10659 0.0
C1079 C 0.49001 0.62411 0.15931 0.0
C1080 C 0.49705 0.61616 0.14699 0.0
C1081 C 0.49803 0.63921 0.16654 0.0
C1082 C 0.53478 0.6717 0.13954 0.0
H1083 H 0.53884 0.73795 0.1969 0.0
H1084 H 0.52608 0.7115 0.18565 0.0
H1085 H 0.55234 0.6933 0.12153 0.0
H1086 H 0.51803 0.6178 0.13272 0.0
H1087 H 0.53212 0.64411 0.14744 0.0
H1088 H 0.50744 0.66335 0.2406 0.0
C1089 C 0.53774 0.71725 0.19305 0.0
C1090 C 0.54257 0.68682 0.14786 0.0
C1091 C 0.54506 0.7324 0.19922 0.0
C1092 C 0.51229 0.62365 0.14184 0.0
C1093 C 0.52036 0.63877 0.14998 0.0
C1094 C 0.51708 0.6697 0.2135 0.0
C1095 C 0.54541 0.70963 0.19532 0.0
C1096 C 0.53754 0.69354 0.18825 0.0
C1097 C 0.51335 0.64678 0.16265 0.0
C1098 C 0.52187 0.66291 0.17208 0.0
H1099 H 0.57954 0.7384 0.21871 0.0
H1100 H 0.56674 0.71187 0.20663 0.0
H1101 H 0.52073 0.68967 0.25316 0.0
H1102 H 0.47826 0.61866 0.16299 0.0
H1103 H 0.49215 0.64495 0.17471 0.0
C1104 C 0.39898 0.89502 0.14242 0.0
C1105 C 0.40646 0.88725 0.14762 0.0
C1106 C 0.38378 0.88785 0.148 0.0
C1107 C 0.35096 0.85207 0.13105 0.0
H1108 H 0.33277 0.86675 0.24042 0.0
C1109 C 0.28988 0.81795 0.18985 0.0
C1110 C 0.28202 0.82514 0.20078 0.0
C1111 C 0.30502 0.82584 0.18265 0.0
C1112 C 0.33759 0.86259 0.20883 0.0
H1113 H 0.40387 0.86585 0.16201 0.0
H1114 H 0.37737 0.85333 0.17048 0.0
H1115 H 0.35917 0.88012 0.22761 0.0
H1116 H 0.28383 0.84626 0.21206 0.0
H1117 H 0.31015 0.86009 0.19733 0.0
H1118 H 0.32952 0.83476 0.11083 0.0
C1119 C 0.38325 0.86497 0.16245 0.0
C1120 C 0.35276 0.87026 0.20174 0.0
C1121 C 0.39843 0.87216 0.15791 0.0
C1122 C 0.28961 0.84041 0.20406 0.0
C1123 C 0.30474 0.84833 0.19598 0.0
C1124 C 0.3358 0.84452 0.13739 0.0
C1125 C 0.37575 0.87273 0.15776 0.0
C1126 C 0.35961 0.865 0.16327 0.0
C1127 C 0.31269 0.84116 0.18523 0.0
C1128 C 0.32887 0.84956 0.17691 0.0
H1129 H 0.40488 0.90666 0.13461 0.0
H1130 H 0.37827 0.89409 0.14389 0.0
H1131 H 0.35593 0.84786 0.10044 0.0
H1132 H 0.28436 0.80617 0.18758 0.0
H1133 H 0.3107 0.81985 0.17585 0.0
C1134 C 0.14456 0.28736 0.40965 0.0
C1135 C 0.14697 0.27702 0.38002 0.0
C1136 C 0.15291 0.30216 0.39565 0.0
C1137 C 0.17592 0.32722 0.27517 0.0
H1138 H 0.18838 0.35639 0.40132 0.0
C1139 C 0.21367 0.38814 0.22378 0.0
C1140 C 0.21028 0.39805 0.25104 0.0
C1141 C 0.20675 0.37359 0.24215 0.0
C1142 C 0.18487 0.34839 0.36548 0.0
H1143 H 0.1602 0.27426 0.31254 0.0
H1144 H 0.17484 0.30012 0.28836 0.0
H1145 H 0.17487 0.3306 0.42781 0.0
H1146 H 0.19721 0.40047 0.32038 0.0
H1147 H 0.18503 0.37501 0.35216 0.0
H1148 H 0.18579 0.34495 0.21279 0.0
C1149 C 0.16636 0.29673 0.32208 0.0
C1150 C 0.17713 0.3336 0.38067 0.0
C1151 C 0.15802 0.2819 0.33619 0.0
C1152 C 0.2001 0.39313 0.29845 0.0
C1153 C 0.19315 0.37854 0.31682 0.0
C1154 C 0.18365 0.34199 0.26 0.0
C1155 C 0.16389 0.30705 0.35155 0.0
C1156 C 0.17251 0.32281 0.33568 0.0
C1157 C 0.19623 0.36852 0.28824 0.0
C1158 C 0.18821 0.35279 0.30491 0.0
H1159 H 0.13613 0.28404 0.44354 0.0
H1160 H 0.15055 0.30976 0.41865 0.0
H1161 H 0.17233 0.31924 0.23924 0.0
H1162 H 0.22153 0.39154 0.18741 0.0
H1163 H 0.20962 0.36627 0.21993 0.0
C1164 C 0.63389 0.82918 0.22264 0.0
C1165 C 0.62384 0.81621 0.25174 0.0
C1166 C 0.64845 0.83682 0.24094 0.0
C1167 C 0.67352 0.84087 0.36633 0.0
H1168 H 0.70274 0.85633 0.24003 0.0
C1169 C 0.7345 0.86139 0.41219 0.0
C1170 C 0.7449 0.87392 0.3815 0.0
C1171 C 0.71969 0.85494 0.39806 0.0
C1172 C 0.69474 0.85227 0.27594 0.0
H1173 H 0.62119 0.80132 0.32414 0.0
H1174 H 0.64668 0.81458 0.35574 0.0
H1175 H 0.67703 0.84405 0.21328 0.0
H1176 H 0.74779 0.88955 0.312 0.0
H1177 H 0.72193 0.87834 0.28752 0.0
H1178 H 0.69129 0.84898 0.42893 0.0
C1179 C 0.64325 0.81892 0.31905 0.0
C1180 C 0.67997 0.84521 0.2606 0.0
C1181 C 0.62863 0.81128 0.30078 0.0
C1182 C 0.7401 0.8799 0.3365 0.0
C1183 C 0.72527 0.87342 0.32222 0.0
C1184 C 0.68831 0.84792 0.38167 0.0
C1185 C 0.6534 0.83168 0.28875 0.0
C1186 C 0.66914 0.8394 0.30556 0.0
C1187 C 0.71488 0.86083 0.35273 0.0
C1188 C 0.69912 0.85367 0.33664 0.0
H1189 H 0.63057 0.83337 0.18496 0.0
H1190 H 0.65587 0.84675 0.21734 0.0
H1191 H 0.66551 0.83672 0.40218 0.0
H1192 H 0.73777 0.85645 0.44704 0.0
H1193 H 0.71204 0.84516 0.42192 0.0
C1194 C 0.21099 0.82236 0.29806 0.0
C1195 C 0.20577 0.81212 0.25091 0.0
C1196 C 0.20324 0.82924 0.31612 0.0
C1197 C 0.17585 0.83828 0.25897 0.0
H1198 H 0.1734 0.84732 0.42654 0.0
C1199 C 0.14119 0.86377 0.33538 0.0
C1200 C 0.14747 0.87492 0.3787 0.0
C1201 C 0.14771 0.85545 0.32117 0.0
C1202 C 0.17408 0.84498 0.37946 0.0
H1203 H 0.18802 0.80068 0.18737 0.0
H1204 H 0.17449 0.81245 0.21937 0.0
H1205 H 0.18582 0.83394 0.40035 0.0
H1206 H 0.16555 0.886 0.44115 0.0
H1207 H 0.17688 0.87163 0.41615 0.0
H1208 H 0.16419 0.84939 0.23801 0.0
C1209 C 0.1847 0.81543 0.24162 0.0
C1210 C 0.18122 0.83732 0.36444 0.0
C1211 C 0.19243 0.8086 0.22355 0.0
C1212 C 0.16036 0.87748 0.40766 0.0
C1213 C 0.16683 0.86916 0.39361 0.0
C1214 C 0.1687 0.84592 0.27398 0.0
C1215 C 0.1901 0.82601 0.28748 0.0
C1216 C 0.18224 0.83391 0.30396 0.0
C1217 C 0.16062 0.85805 0.3501 0.0
C1218 C 0.16778 0.84944 0.33438 0.0
H1219 H 0.22124 0.82536 0.32004 0.0
H1220 H 0.2078 0.83741 0.35128 0.0
H1221 H 0.17663 0.83608 0.21181 0.0
H1222 H 0.13127 0.86148 0.31223 0.0
H1223 H 0.14255 0.84688 0.28786 0.0
C1224 C 0.40702 0.21506 0.67472 0.0
C1225 C 0.41185 0.20848 0.71687 0.0
C1226 C 0.3922 0.20866 0.66038 0.0
C1227 C 0.35531 0.18203 0.71672 0.0
H1228 H 0.34408 0.18 0.54893 0.0
C1229 C 0.29598 0.14508 0.63344 0.0
C1230 C 0.29094 0.1503 0.58635 0.0
C1231 C 0.31057 0.15289 0.6519 0.0
C1232 C 0.347 0.18065 0.59613 0.0
H1233 H 0.40478 0.19004 0.7773 0.0
H1234 H 0.37909 0.17892 0.75212 0.0
H1235 H 0.3698 0.19246 0.57588 0.0
H1236 H 0.29719 0.16813 0.52336 0.0
H1237 H 0.32244 0.1818 0.55615 0.0
H1238 H 0.3325 0.17014 0.73693 0.0
C1239 C 0.3867 0.1891 0.73055 0.0
C1240 C 0.36177 0.1878 0.61157 0.0
C1241 C 0.40149 0.19544 0.74468 0.0
C1242 C 0.30071 0.16371 0.55946 0.0
C1243 C 0.31524 0.17152 0.57799 0.0
C1244 C 0.34052 0.17489 0.70129 0.0
C1245 C 0.38186 0.19558 0.68808 0.0
C1246 C 0.36612 0.18851 0.672 0.0
C1247 C 0.32044 0.16612 0.6238 0.0
C1248 C 0.33617 0.17404 0.64074 0.0
H1249 H 0.41469 0.22511 0.6525 0.0
H1250 H 0.38882 0.21402 0.62788 0.0
H1251 H 0.35827 0.18255 0.76382 0.0
H1252 H 0.28877 0.13477 0.65504 0.0
H1253 H 0.31421 0.14832 0.68697 0.0
C1254 C 0.80653 0.19563 0.66887 0.0
C1255 C 0.81292 0.20704 0.71105 0.0
C1256 C 0.81311 0.18736 0.65496 0.0
C1257 C 0.83993 0.17752 0.7127 0.0
H1258 H 0.84192 0.16793 0.54548 0.0
C1259 C 0.87675 0.15482 0.63115 0.0
C1260 C 0.87141 0.14441 0.58465 0.0
C1261 C 0.869 0.16169 0.6492 0.0
C1262 C 0.84129 0.17032 0.59254 0.0
H1263 H 0.83127 0.21862 0.77181 0.0
H1264 H 0.84272 0.20433 0.74731 0.0
H1265 H 0.82946 0.18123 0.57138 0.0
H1266 H 0.85345 0.13264 0.52236 0.0
H1267 H 0.8399 0.14439 0.55441 0.0
H1268 H 0.85184 0.16666 0.73379 0.0
C1269 C 0.83254 0.20164 0.72544 0.0
C1270 C 0.83414 0.17796 0.60737 0.0
C1271 C 0.826 0.20991 0.73919 0.0
C1272 C 0.85795 0.1407 0.558 0.0
C1273 C 0.85021 0.14752 0.57609 0.0
C1274 C 0.84708 0.16984 0.69787 0.0
C1275 C 0.82621 0.19028 0.68306 0.0
C1276 C 0.83342 0.18172 0.6676 0.0
C1277 C 0.85573 0.15827 0.62123 0.0
C1278 C 0.84789 0.16618 0.63755 0.0
H1279 H 0.79645 0.19309 0.64642 0.0
H1280 H 0.80786 0.1786 0.62255 0.0
H1281 H 0.83941 0.18005 0.75966 0.0
H1282 H 0.88709 0.15796 0.65256 0.0
H1283 H 0.87365 0.17 0.68377 0.0
C1284 C 0.81021 0.61957 0.73929 0.0
C1285 C 0.81333 0.60928 0.71382 0.0
C1286 C 0.81856 0.63431 0.72456 0.0
C1287 C 0.84266 0.65913 0.60686 0.0
H1288 H 0.85378 0.68856 0.73121 0.0
C1289 C 0.87951 0.72011 0.55332 0.0
C1290 C 0.87597 0.72995 0.58017 0.0
C1291 C 0.87274 0.7056 0.57208 0.0
C1292 C 0.85064 0.6805 0.6958 0.0
H1293 H 0.82774 0.60653 0.65268 0.0
H1294 H 0.8423 0.63233 0.62673 0.0
H1295 H 0.84035 0.66284 0.75861 0.0
H1296 H 0.86271 0.73227 0.64884 0.0
H1297 H 0.85069 0.70687 0.68097 0.0
H1298 H 0.85266 0.67671 0.54385 0.0
C1299 C 0.83333 0.62892 0.65803 0.0
C1300 C 0.84296 0.66575 0.71155 0.0
C1301 C 0.82502 0.61413 0.67312 0.0
C1302 C 0.86573 0.725 0.62732 0.0
C1303 C 0.85888 0.71042 0.6459 0.0
C1304 C 0.85027 0.67388 0.59106 0.0
C1305 C 0.8302 0.63918 0.68367 0.0
C1306 C 0.83883 0.65488 0.66723 0.0
C1307 C 0.86216 0.70048 0.61797 0.0
C1308 C 0.85433 0.68477 0.63528 0.0
H1309 H 0.80128 0.61626 0.77063 0.0
H1310 H 0.81571 0.64189 0.74447 0.0
H1311 H 0.83945 0.65105 0.57149 0.0
H1312 H 0.88744 0.72357 0.51719 0.0
H1313 H 0.87579 0.69836 0.55037 0.0
C1314 C 0.0673 0.52854 0.08214 0.0
C1315 C 0.07745 0.54074 0.04901 0.0
C1316 C 0.05242 0.52177 0.06901 0.0
C1317 C 0.02454 0.52737 0.99162 0.0
H1318 H 1.00219 0.48518 0.99364 0.0
C1319 C 0.9666 0.49456 0.89049 0.0
C1320 C 0.95632 0.48178 0.92014 0.0
C1321 C 0.98109 0.50218 0.9099 0.0
C1322 C 1.00821 0.49697 0.99372 0.0
H1323 H 0.07982 0.55543 0.97617 0.0
H1324 H 0.05385 0.5435 0.95274 0.0
H1325 H 0.02799 0.49761 0.01914 0.0
H1326 H 0.95319 0.46724 0.99469 0.0
H1327 H 0.97848 0.48062 0.02887 0.0
H1328 H 1.00475 0.52668 0.96551 0.0
C1329 C 0.0574 0.53928 0.98951 0.0
C1330 C 0.02303 0.50412 1.0083 0.0
C1331 C 0.07232 0.54609 1.00273 0.0
C1332 C 0.96082 0.47701 0.97068 0.0
C1333 C 0.97535 0.48463 0.99003 0.0
C1334 C 1.0097 0.52021 0.97695 0.0
C1335 C 0.04727 0.52697 0.02226 0.0
C1336 C 0.03142 0.51941 1.00729 0.0
C1337 C 0.9857 0.49723 0.95945 0.0
C1338 C 1.00135 0.50491 0.97758 0.0
H1339 H 0.07081 0.52416 0.11836 0.0
H1340 H 0.04494 0.51248 0.09589 0.0
H1341 H 0.03059 0.53915 0.99128 0.0
H1342 H 0.96355 0.49856 0.85138 0.0
H1343 H 0.98877 0.51173 0.88484 0.0
C1344 C 0.47449 0.53048 1.00292 0.0
C1345 C 0.48049 0.54117 0.0482 0.0
C1346 C 0.48096 0.52216 0.98818 0.0
C1347 C 0.50625 0.51042 0.04698 0.0
H1348 H 0.51049 0.50362 0.87827 0.0
C1349 C 0.54286 0.48745 0.96622 0.0
C1350 C 0.5381 0.47796 0.91642 0.0
C1351 C 0.53521 0.4944 0.98445 0.0
C1352 C 0.50922 0.50521 0.92567 0.0
H1353 H 0.49798 0.5514 0.11378 0.0
H1354 H 0.50924 0.53698 0.08792 0.0
H1355 H 0.49823 0.51702 0.90555 0.0
H1356 H 0.52124 0.46796 0.84815 0.0
H1357 H 0.50782 0.47982 0.88053 0.0
H1358 H 0.51727 0.49864 0.0671 0.0
C1359 C 0.49946 0.53491 0.06415 0.0
C1360 C 0.50218 0.51293 0.94129 0.0
C1361 C 0.49304 0.54326 0.0787 0.0
C1362 C 0.52529 0.47527 0.88643 0.0
C1363 C 0.51764 0.48217 0.90475 0.0
C1364 C 0.51325 0.50267 0.03136 0.0
C1365 C 0.49355 0.52429 0.01855 0.0
C1366 C 0.50066 0.51569 1.00212 0.0
C1367 C 0.5226 0.492 0.95342 0.0
C1368 C 0.51488 0.5 0.97046 0.0
H1369 H 0.46483 0.52857 0.97855 0.0
H1370 H 0.47603 0.51396 0.95326 0.0
H1371 H 0.50508 0.51218 0.09431 0.0
H1372 H 0.5527 0.4898 0.99024 0.0
H1373 H 0.53944 0.502 0.02177 0.0
C1374 C 0.53981 0.05879 0.92466 0.0
C1375 C 0.54694 0.06886 0.97141 0.0
C1376 C 0.53304 0.04382 0.93574 0.0
C1377 C 0.51378 0.01691 0.04941 0.0
H1378 H 0.52315 0.99138 0.95897 0.0
C1379 C 0.48505 0.95553 0.10297 0.0
C1380 C 0.48252 0.94568 0.05591 0.0
C1381 C 0.49381 0.97052 0.09387 0.0
C1382 C 0.52016 0.99825 0.98404 0.0
H1383 H 0.55257 0.07119 0.06634 0.0
H1384 H 0.5402 0.04488 0.08623 0.0
H1385 H 0.53666 0.01756 0.94016 0.0
H1386 H 0.48712 0.94376 0.96232 0.0
H1387 H 0.50174 0.96993 0.94503 0.0
H1388 H 0.49678 0.99782 0.09096 0.0
C1389 C 0.54012 0.04866 0.04087 0.0
C1390 C 0.52804 0.01329 0.97353 0.0
C1391 C 0.54722 0.06366 0.02945 0.0
C1392 C 0.48898 0.95112 0.99951 0.0
C1393 C 0.49746 0.96617 0.98987 0.0
C1394 C 0.50567 1.00187 0.05895 0.0
C1395 C 0.53296 0.03862 0.99408 0.0
C1396 C 0.52495 0.02274 1.00629 0.0
C1397 C 0.49998 0.97613 0.0369 0.0
C1398 C 0.50874 0.99226 0.0266 0.0
H1399 H 0.53948 0.06248 0.8794 0.0
H1400 H 0.52754 0.03629 0.89903 0.0
H1401 H 0.51106 0.02397 0.07464 0.0
H1402 H 0.48038 0.95163 0.14725 0.0
H1403 H 0.49576 0.97766 0.13192 0.0
C1404 C 0.10939 0.25416 0.74755 0.0
C1405 C 0.11359 0.24644 0.70856 0.0
C1406 C 0.10867 0.25189 0.80991 0.0
C1407 C 0.10571 0.22551 0.92608 0.0
H1408 H 0.12014 0.25876 0.03344 0.0
C1409 C 0.11289 0.22042 0.18105 0.0
C1410 C 0.10906 0.2282 0.22135 0.0
C1411 C 0.11332 0.22279 0.1189 0.0
C1412 C 0.11589 0.24934 1.00417 0.0
H1413 H 0.1203 0.23021 0.70519 0.0
H1414 H 0.119 0.22621 0.81412 0.0
H1415 H 0.12116 0.26244 0.92445 0.0
H1416 H 0.10278 0.24471 0.22739 0.0
H1417 H 0.10347 0.24884 0.1185 0.0
H1418 H 0.10043 0.21239 1.00567 0.0
C1419 C 0.11613 0.23395 0.79619 0.0
C1420 C 0.11649 0.25145 0.94161 0.0
C1421 C 0.11687 0.23623 0.73367 0.0
C1422 C 0.10586 0.2386 0.19776 0.0
C1423 C 0.10627 0.24096 0.13531 0.0
C1424 C 0.10509 0.2234 0.98859 0.0
C1425 C 0.11209 0.24181 0.83512 0.0
C1426 C 0.11144 0.23956 0.90175 0.0
C1427 C 0.10992 0.23301 0.09506 0.0
C1428 C 0.11023 0.23529 0.02849 0.0
H1429 H 0.10648 0.26188 0.72996 0.0
H1430 H 0.10524 0.25793 0.83835 0.0
H1431 H 0.1015 0.21608 0.89681 0.0
H1432 H 0.11578 0.21259 0.19751 0.0
H1433 H 0.11651 0.21671 0.08953 0.0
C1434 C 0.76783 0.8591 0.74883 0.0
C1435 C 0.77547 0.87103 0.70977 0.0
C1436 C 0.77003 0.86069 0.81121 0.0
C1437 C 0.78364 0.88841 0.93235 0.0
H1438 H 0.78458 0.85803 0.02638 0.0
C1439 C 0.80118 0.89642 0.18227 0.0
C1440 C 0.7935 0.88477 0.22255 0.0
C1441 C 0.79863 0.89455 0.1202 0.0
C1442 C 0.78416 0.86653 1.00091 0.0
H1443 H 0.79153 0.89401 0.70626 0.0
H1444 H 0.79559 0.89675 0.81514 0.0
H1445 H 0.78132 0.85533 0.91722 0.0
H1446 H 0.77702 0.86197 0.22863 0.0
H1447 H 0.77244 0.85869 0.1199 0.0
H1448 H 0.78654 0.89963 0.01599 0.0
C1449 C 0.78773 0.88617 0.79739 0.0
C1450 C 0.78231 0.865 0.93825 0.0
C1451 C 0.78553 0.88458 0.73483 0.0
C1452 C 0.78308 0.87118 0.19901 0.0
C1453 C 0.78056 0.86928 0.13663 0.0
C1454 C 0.78551 0.88995 0.99496 0.0
C1455 C 0.77996 0.87425 0.8364 0.0
C1456 C 0.78206 0.87593 0.90311 0.0
C1457 C 0.78832 0.88096 0.09647 0.0
C1458 C 0.78584 0.87906 0.03004 0.0
H1459 H 0.76015 0.84845 0.7313 0.0
H1460 H 0.76375 0.8513 0.83978 0.0
H1461 H 0.78323 0.89692 0.90696 0.0
H1462 H 0.80911 0.90711 0.19867 0.0
H1463 H 0.80492 0.90374 0.09067 0.0
C1464 C 0.14254 0.91393 0.73094 0.0
C1465 C 0.14803 0.90541 0.70656 0.0
C1466 C 0.14123 0.91476 0.79351 0.0
C1467 C 0.15519 0.90871 0.93813 0.0
H1468 H 0.12263 0.9107 1.00696 0.0
C1469 C 0.14364 0.90524 0.19594 0.0
C1470 C 0.13909 0.91467 0.21907 0.0
C1471 C 0.14507 0.90415 0.13356 0.0
C1472 C 0.13187 0.91029 0.98841 0.0
H1473 H 0.15583 0.89058 0.72872 0.0
H1474 H 0.15335 0.89185 0.83744 0.0
H1475 H 0.12396 0.90838 0.89805 0.0
H1476 H 0.1332 0.93086 0.19453 0.0
H1477 H 0.1356 0.92889 0.08633 0.0
H1478 H 0.16301 0.91052 0.02876 0.0
C1479 C 0.15044 0.89822 0.8085 0.0
C1480 C 0.13264 0.90898 0.9259 0.0
C1481 C 0.15182 0.89746 0.74608 0.0
C1482 C 0.13641 0.92325 0.17841 0.0
C1483 C 0.13778 0.92212 0.11625 0.0
C1484 C 0.15437 0.90995 1.00071 0.0
C1485 C 0.14528 0.90701 0.83314 0.0
C1486 C 0.14434 0.90823 0.89987 0.0
C1487 C 0.14194 0.91242 0.09298 0.0
C1488 C 0.14274 0.91084 0.02656 0.0
H1489 H 0.13968 0.92031 0.70178 0.0
H1490 H 0.13738 0.92178 0.81082 0.0
H1491 H 0.16448 0.9084 0.91969 0.0
H1492 H 0.14565 0.89836 0.22583 0.0
H1493 H 0.14821 0.8965 0.11703 0.0
C1494 C 0.24924 0.10933 0.82294 0.0
C1495 C 0.23891 0.11265 0.79962 0.0
C1496 C 0.25176 0.10986 0.8852 0.0
C1497 C 0.24733 0.12562 0.027 0.0
H1498 H 0.24998 0.09417 0.10367 0.0
C1499 C 0.24674 0.11967 0.28632 0.0
C1500 C 0.25621 0.11543 0.31172 0.0
C1501 C 0.24471 0.11928 0.22379 0.0
C1502 C 0.24945 0.10313 0.08293 0.0
H1503 H 0.22344 0.11955 0.82341 0.0
H1504 H 0.22772 0.12035 0.93162 0.0
H1505 H 0.24684 0.09397 0.99452 0.0
H1506 H 0.27072 0.10714 0.29075 0.0
H1507 H 0.26748 0.10681 0.18208 0.0
H1508 H 0.25 0.13484 0.11518 0.0
C1509 C 0.23391 0.11736 0.90191 0.0
C1510 C 0.24765 0.10301 0.02033 0.0
C1511 C 0.23133 0.11674 0.83987 0.0
C1512 C 0.26349 0.11066 0.27296 0.0
C1513 C 0.26149 0.1103 0.21049 0.0
C1514 C 0.24918 0.12577 0.08953 0.0
C1515 C 0.24409 0.11386 0.9254 0.0
C1516 C 0.2465 0.11422 0.99167 0.0
C1517 C 0.25212 0.11466 0.18504 0.0
C1518 C 0.2502 0.1145 0.11837 0.0
H1519 H 0.25519 0.10606 0.7932 0.0
H1520 H 0.25977 0.10723 0.90186 0.0
H1521 H 0.2467 0.13453 1.0062 0.0
H1522 H 0.24105 0.12352 0.3146 0.0
H1523 H 0.23727 0.12253 0.20585 0.0
C1524 C 0.90581 0.11873 0.83749 0.0
C1525 C 0.90964 0.13035 0.79724 0.0
C1526 C 0.90539 0.1207 0.89962 0.0
C1527 C 0.90335 0.14503 0.01423 0.0
H1528 H 0.91776 0.12607 0.12108 0.0
C1529 C 0.91097 0.1567 0.27057 0.0
C1530 C 0.90637 0.14467 0.30931 0.0
C1531 C 0.91155 0.15514 0.20815 0.0
C1532 C 0.91357 0.13132 0.0919 0.0
H1533 H 0.91596 0.15314 0.79092 0.0
H1534 H 0.91536 0.15664 0.89969 0.0
H1535 H 0.91842 0.12318 0.01223 0.0
H1536 H 0.89874 0.12151 0.31217 0.0
H1537 H 0.89987 0.11882 0.20333 0.0
H1538 H 0.89858 0.15323 0.09413 0.0
C1539 C 0.91249 0.14594 0.88301 0.0
C1540 C 0.91393 0.12966 0.02945 0.0
C1541 C 0.91284 0.14395 0.82065 0.0
C1542 C 0.90252 0.13106 0.28394 0.0
C1543 C 0.90315 0.12951 0.22147 0.0
C1544 C 0.90304 0.14674 0.07674 0.0
C1545 C 0.90886 0.13435 0.92331 0.0
C1546 C 0.90875 0.13643 0.98978 0.0
C1547 C 0.90761 0.14152 0.18282 0.0
C1548 C 0.90809 0.13985 0.11632 0.0
H1549 H 0.90297 0.10804 0.82095 0.0
H1550 H 0.90222 0.11144 0.9291 0.0
H1551 H 0.89909 0.15023 0.98513 0.0
H1552 H 0.91427 0.1674 0.28836 0.0
H1553 H 0.91526 0.16466 0.17975 0.0
C1554 C 0.89114 0.77428 0.28378 0.0
C1555 C 0.8772 0.76554 0.30871 0.0
C1556 C 0.89297 0.77631 0.22129 0.0
C1557 C 0.87522 0.7597 0.07655 0.0
H1558 H 0.90101 0.79811 0.01127 0.0
C1559 C 0.87848 0.77234 0.82056 0.0
C1560 C 0.89225 0.78213 0.79669 0.0
C1561 C 0.87656 0.77005 0.88295 0.0
C1562 C 0.89391 0.78727 0.0287 0.0
H1563 H 0.85422 0.75239 0.28691 0.0
H1564 H 0.85745 0.75581 0.17837 0.0
H1565 H 0.89801 0.79478 0.12019 0.0
H1566 H 0.91491 0.79668 0.81935 0.0
H1567 H 0.91165 0.79257 0.92761 0.0
H1568 H 0.8712 0.75215 0.98514 0.0
C1569 C 0.86698 0.76093 0.20714 0.0
C1570 C 0.89219 0.78537 0.09118 0.0
C1571 C 0.86514 0.75896 0.26952 0.0
C1572 C 0.9041 0.7893 0.83638 0.0
C1573 C 0.90222 0.78696 0.89854 0.0
C1574 C 0.877 0.76158 0.01403 0.0
C1575 C 0.88091 0.76959 0.18227 0.0
C1576 C 0.88282 0.77158 0.11583 0.0
C1577 C 0.88839 0.77744 0.92276 0.0
C1578 C 0.88638 0.77539 0.98929 0.0
H1579 H 0.90069 0.77936 0.31235 0.0
H1580 H 0.90387 0.78292 0.20344 0.0
H1581 H 0.86806 0.7489 0.0942 0.0
H1582 H 0.86911 0.76676 0.79119 0.0
H1583 H 0.86572 0.76275 0.90004 0.0
C1584 C 0.78381 0.56792 0.06445 0.0
C1585 C 0.78249 0.57951 0.04061 0.0
C1586 C 0.78313 0.56553 0.12688 0.0
C1587 C 0.78794 0.58412 0.27296 0.0
H1588 H 0.76409 0.54516 0.33671 0.0
C1589 C 0.77508 0.57319 0.52798 0.0
C1590 C 0.77422 0.56057 0.55252 0.0
C1591 C 0.77647 0.57561 0.46556 0.0
C1592 C 0.77098 0.55609 0.31977 0.0
H1593 H 0.77902 0.59741 0.06465 0.0
H1594 H 0.7781 0.59338 0.17266 0.0
H1595 H 0.76606 0.549 0.22785 0.0
H1596 H 0.77475 0.54092 0.53106 0.0
H1597 H 0.77742 0.54521 0.4228 0.0
H1598 H 0.793 0.59124 0.36464 0.0
C1599 C 0.77985 0.58626 0.14312 0.0
C1600 C 0.77208 0.55827 0.25729 0.0
C1601 C 0.78042 0.58858 0.08092 0.0
C1602 C 0.77507 0.55059 0.51344 0.0
C1603 C 0.77658 0.55305 0.45127 0.0
C1604 C 0.78694 0.58193 0.33543 0.0
C1605 C 0.78122 0.57474 0.16688 0.0
C1606 C 0.7805 0.57232 0.23319 0.0
C1607 C 0.77717 0.56553 0.42634 0.0
C1608 C 0.77839 0.56789 0.35972 0.0
H1609 H 0.78557 0.5608 0.03509 0.0
H1610 H 0.78433 0.55662 0.14392 0.0
H1611 H 0.79467 0.59506 0.25571 0.0
H1612 H 0.77433 0.58102 0.55685 0.0
H1613 H 0.7767 0.58525 0.44799 0.0
C1614 C 0.4683 0.23002 0.51346 0.0
C1615 C 0.45982 0.21857 0.5535 0.0
C1616 C 0.46585 0.2283 0.45132 0.0
C1617 C 0.43853 0.2055 0.33607 0.0
H1618 H 0.47206 0.22243 0.22957 0.0
C1619 C 0.43387 0.19311 0.08058 0.0
C1620 C 0.44197 0.20482 0.041 0.0
C1621 C 0.436 0.19484 0.14294 0.0
C1622 C 0.46258 0.21778 0.25864 0.0
H1623 H 0.44197 0.19636 0.55939 0.0
H1624 H 0.43774 0.19325 0.45051 0.0
H1625 H 0.47565 0.22507 0.33847 0.0
H1626 H 0.4587 0.22758 0.0367 0.0
H1627 H 0.46251 0.23056 0.14565 0.0
H1628 H 0.42549 0.1981 0.256 0.0
C1629 C 0.4462 0.20366 0.46741 0.0
C1630 C 0.46462 0.21929 0.32115 0.0
C1631 C 0.44863 0.20541 0.52984 0.0
C1632 C 0.45239 0.21828 0.06558 0.0
C1633 C 0.45456 0.22 0.1281 0.0
C1634 C 0.43649 0.20394 0.27351 0.0
C1635 C 0.45487 0.21506 0.42732 0.0
C1636 C 0.45263 0.21321 0.36073 0.0
C1637 C 0.44633 0.20831 0.16753 0.0
C1638 C 0.4485 0.21008 0.23405 0.0
H1639 H 0.47679 0.24041 0.53022 0.0
H1640 H 0.4725 0.23744 0.4221 0.0
H1641 H 0.42904 0.20087 0.36504 0.0
H1642 H 0.42597 0.18249 0.06351 0.0
H1643 H 0.42967 0.18554 0.17191 0.0
C1644 C 0.78994 0.24047 0.50956 0.0
C1645 C 0.80152 0.24416 0.54991 0.0
C1646 C 0.7918 0.23977 0.4475 0.0
C1647 C 0.81986 0.25304 0.32869 0.0
H1648 H 0.78934 0.22201 0.23403 0.0
C1649 C 0.82744 0.24454 0.07654 0.0
C1650 C 0.81554 0.24032 0.03729 0.0
C1651 C 0.82578 0.24504 0.13891 0.0
C1652 C 0.79789 0.23086 0.25961 0.0
H1653 H 0.82419 0.24994 0.55626 0.0
H1654 H 0.82745 0.24862 0.44753 0.0
H1655 H 0.78654 0.22252 0.34306 0.0
H1656 H 0.79254 0.23337 0.03352 0.0
H1657 H 0.7897 0.23454 0.14234 0.0
H1658 H 0.83116 0.26145 0.24526 0.0
C1659 C 0.81692 0.24638 0.46418 0.0
C1660 C 0.7963 0.23113 0.32221 0.0
C1661 C 0.81503 0.24701 0.52653 0.0
C1662 C 0.80196 0.23676 0.0622 0.0
C1663 C 0.8003 0.23727 0.12474 0.0
C1664 C 0.82143 0.25279 0.26605 0.0
C1665 C 0.80532 0.24276 0.42393 0.0
C1666 C 0.80725 0.24224 0.35753 0.0
C1667 C 0.81219 0.24137 0.16394 0.0
C1668 C 0.81045 0.24171 0.23064 0.0
H1669 H 0.77933 0.23798 0.52593 0.0
H1670 H 0.78267 0.23708 0.41786 0.0
H1671 H 0.82839 0.26187 0.3544 0.0
H1672 H 0.83812 0.24757 0.05919 0.0
H1673 H 0.83515 0.2481 0.1676 0.0
C1674 C 0.90764 0.44242 0.62246 0.0
C1675 C 0.92171 0.44888 0.64725 0.0
C1676 C 0.90565 0.44205 0.55992 0.0
C1677 C 0.92464 0.44518 0.4151 0.0
H1678 H 0.89373 0.45035 0.34819 0.0
C1679 C 0.91792 0.45121 0.15812 0.0
C1680 C 0.90363 0.44359 0.13521 0.0
C1681 C 0.92046 0.45193 0.22043 0.0
C1682 C 0.90233 0.44877 0.36622 0.0
H1683 H 0.94473 0.46039 0.62582 0.0
H1684 H 0.94132 0.45993 0.51692 0.0
H1685 H 0.89748 0.45173 0.45703 0.0
H1686 H 0.88089 0.43025 0.16029 0.0
H1687 H 0.88531 0.43165 0.26831 0.0
H1688 H 0.92952 0.44234 0.32395 0.0
C1689 C 0.93178 0.45483 0.54562 0.0
C1690 C 0.90447 0.44952 0.42866 0.0
C1691 C 0.93375 0.45513 0.6081 0.0
C1692 C 0.892 0.4365 0.17611 0.0
C1693 C 0.89453 0.43728 0.23821 0.0
C1694 C 0.92254 0.4445 0.35256 0.0
C1695 C 0.9177 0.44822 0.52065 0.0
C1696 C 0.9156 0.44766 0.45399 0.0
C1697 C 0.90877 0.4451 0.26117 0.0
C1698 C 0.9113 0.44619 0.32745 0.0
H1699 H 0.89813 0.43732 0.65128 0.0
H1700 H 0.89465 0.43665 0.54232 0.0
H1701 H 0.93317 0.44348 0.43301 0.0
H1702 H 0.92713 0.45691 0.12814 0.0
H1703 H 0.93155 0.45813 0.23678 0.0
C1704 C 0.56734 0.4631 0.62338 0.0
C1705 C 0.57289 0.47707 0.64846 0.0
C1706 C 0.56735 0.46126 0.56084 0.0
C1707 C 0.58448 0.48138 0.41938 0.0
H1708 H 0.55126 0.44871 0.34349 0.0
C1709 C 0.57756 0.47537 0.15984 0.0
C1710 C 0.57335 0.4615 0.13649 0.0
C1711 C 0.57719 0.47743 0.22209 0.0
C1712 C 0.56066 0.45783 0.36408 0.0
H1713 H 0.5831 0.50007 0.62682 0.0
H1714 H 0.58272 0.49682 0.5183 0.0
H1715 H 0.55145 0.45189 0.45255 0.0
H1716 H 0.56498 0.43885 0.16002 0.0
H1717 H 0.56441 0.44244 0.26833 0.0
H1718 H 0.59363 0.48735 0.33069 0.0
C1719 C 0.57851 0.48728 0.54692 0.0
C1720 C 0.5608 0.45963 0.42664 0.0
C1721 C 0.57854 0.48913 0.60935 0.0
C1722 C 0.56847 0.4497 0.17661 0.0
C1723 C 0.568 0.45173 0.23865 0.0
C1724 C 0.5843 0.47961 0.35679 0.0
C1725 C 0.57289 0.47333 0.52179 0.0
C1726 C 0.57274 0.4714 0.45514 0.0
C1727 C 0.57246 0.46563 0.26219 0.0
C1728 C 0.57242 0.46779 0.32846 0.0
H1729 H 0.56278 0.45355 0.65191 0.0
H1730 H 0.5631 0.45036 0.54314 0.0
H1731 H 0.59396 0.49044 0.43984 0.0
H1732 H 0.58145 0.48469 0.13014 0.0
H1733 H 0.58057 0.48826 0.23885 0.0
C1734 C 0.53269 0.09204 0.60565 0.0
C1735 C 0.54469 0.10001 0.64405 0.0
C1736 C 0.53394 0.0944 0.54335 0.0
C1737 C 0.55641 0.12115 0.42653 0.0
H1738 H 0.53841 0.08776 0.31953 0.0
C1739 C 0.56883 0.12633 0.17203 0.0
C1740 C 0.55735 0.11823 0.13146 0.0
C1741 C 0.56683 0.12402 0.23416 0.0
C1742 C 0.54333 0.09721 0.3487 0.0
H1743 H 0.56743 0.11683 0.64653 0.0
H1744 H 0.56963 0.12098 0.53761 0.0
H1745 H 0.53601 0.08411 0.42856 0.0
H1746 H 0.53474 0.10123 0.12492 0.0
H1747 H 0.5312 0.0972 0.23388 0.0
H1748 H 0.56375 0.13426 0.3468 0.0
C1749 C 0.55919 0.11297 0.55598 0.0
C1750 C 0.54198 0.09513 0.41128 0.0
C1751 C 0.55794 0.1106 0.61847 0.0
C1752 C 0.54383 0.10759 0.15478 0.0
C1753 C 0.54182 0.10529 0.21725 0.0
C1754 C 0.55774 0.12324 0.36401 0.0
C1755 C 0.54722 0.10482 0.51761 0.0
C1756 C 0.54856 0.10707 0.45099 0.0
C1757 C 0.55329 0.11355 0.25773 0.0
C1758 C 0.55131 0.1113 0.32426 0.0
H1759 H 0.52222 0.08404 0.62367 0.0
H1760 H 0.52442 0.08814 0.51535 0.0
H1761 H 0.56139 0.1306 0.45573 0.0
H1762 H 0.57949 0.13435 0.15582 0.0
H1763 H 0.57601 0.13034 0.26373 0.0
C1764 C 0.45134 0.90442 0.40221 0.0
C1765 C 0.44832 0.91481 0.37712 0.0
C1766 C 0.45066 0.90222 0.46474 0.0
C1767 C 0.45204 0.92024 0.60954 0.0
H1768 H 0.4345 0.88116 0.67478 0.0
C1769 C 0.4414 0.90803 0.8659 0.0
C1770 C 0.44385 0.89714 0.8895 0.0
C1771 C 0.44193 0.9104 0.80345 0.0
C1772 C 0.43959 0.89217 0.65736 0.0
H1773 H 0.44171 0.93065 0.39851 0.0
H1774 H 0.44064 0.92687 0.50695 0.0
H1775 H 0.43553 0.88468 0.56582 0.0
H1776 H 0.44945 0.88069 0.86608 0.0
H1777 H 0.45047 0.88486 0.75803 0.0
H1778 H 0.45619 0.92773 0.70107 0.0
C1779 C 0.4438 0.92062 0.47845 0.0
C1780 C 0.44018 0.89417 0.59484 0.0
C1781 C 0.44443 0.92279 0.4161 0.0
C1782 C 0.44715 0.88892 0.84942 0.0
C1783 C 0.44773 0.89131 0.7873 0.0
C1784 C 0.4515 0.91823 0.67212 0.0
C1785 C 0.44697 0.91037 0.50361 0.0
C1786 C 0.44642 0.90823 0.57015 0.0
C1787 C 0.44499 0.90197 0.76336 0.0
C1788 C 0.4453 0.90417 0.69683 0.0
H1789 H 0.45451 0.8982 0.37371 0.0
H1790 H 0.45331 0.89433 0.48275 0.0
H1791 H 0.45709 0.93123 0.59197 0.0
H1792 H 0.43875 0.91448 0.89551 0.0
H1793 H 0.43965 0.91863 0.78653 0.0
C1794 C 0.11849 0.55178 0.40034 0.0
C1795 C 0.10868 0.53815 0.37524 0.0
C1796 C 0.12065 0.55341 0.4629 0.0
C1797 C 0.1157 0.53239 0.60379 0.0
H1798 H 0.11883 0.5666 0.6813 0.0
C1799 C 0.11615 0.53854 0.86447 0.0
C1800 C 0.1263 0.55224 0.88797 0.0
C1801 C 0.11367 0.53657 0.8021 0.0
C1802 C 0.11811 0.55704 0.66033 0.0
H1803 H 0.09379 0.51546 0.39664 0.0
H1804 H 0.09732 0.51835 0.50516 0.0
H1805 H 0.11564 0.56382 0.57224 0.0
H1806 H 0.14147 0.5747 0.86405 0.0
H1807 H 0.13735 0.57123 0.75605 0.0
H1808 H 0.11817 0.52562 0.69202 0.0
C1809 C 0.10343 0.52778 0.47662 0.0
C1810 C 0.11631 0.55547 0.59771 0.0
C1811 C 0.10126 0.52617 0.41424 0.0
C1812 C 0.13375 0.56394 0.84767 0.0
C1813 C 0.13124 0.56199 0.78561 0.0
C1814 C 0.11748 0.53396 0.66646 0.0
C1815 C 0.1131 0.54143 0.50186 0.0
C1816 C 0.11513 0.54314 0.56857 0.0
C1817 C 0.1212 0.5483 0.76192 0.0
C1818 C 0.11877 0.54633 0.69549 0.0
H1819 H 0.12431 0.56126 0.3718 0.0
H1820 H 0.12832 0.56405 0.48071 0.0
H1821 H 0.11502 0.52285 0.58281 0.0
H1822 H 0.11027 0.52929 0.89414 0.0
H1823 H 0.10576 0.5259 0.78538 0.0
C1824 C 0.48296 0.5819 0.86575 0.0
C1825 C 0.46925 0.57841 0.88911 0.0
C1826 C 0.48495 0.58137 0.8034 0.0
C1827 C 0.4645 0.56542 0.66134 0.0
H1828 H 0.49894 0.59625 0.5841 0.0
C1829 C 0.46998 0.57102 0.40127 0.0
C1830 C 0.48361 0.57478 0.37627 0.0
C1831 C 0.46833 0.57153 0.46382 0.0
C1832 C 0.48933 0.58746 0.60499 0.0
H1833 H 0.44682 0.57123 0.86485 0.0
H1834 H 0.45034 0.57055 0.75692 0.0
H1835 H 0.49611 0.5967 0.69321 0.0
H1836 H 0.50627 0.58241 0.39796 0.0
H1837 H 0.50333 0.58302 0.50647 0.0
H1838 H 0.4577 0.55617 0.57325 0.0
C1839 C 0.45956 0.57364 0.78658 0.0
C1840 C 0.48772 0.58771 0.66763 0.0
C1841 C 0.45759 0.57422 0.84863 0.0
C1842 C 0.49556 0.57924 0.41543 0.0
C1843 C 0.49392 0.57976 0.47783 0.0
C1844 C 0.46611 0.56516 0.59875 0.0
C1845 C 0.47325 0.57722 0.76304 0.0
C1846 C 0.47525 0.57673 0.6966 0.0
C1847 C 0.48027 0.57587 0.50295 0.0
C1848 C 0.47853 0.5762 0.56968 0.0
H1849 H 0.49219 0.58523 0.8955 0.0
H1850 H 0.49562 0.58407 0.78685 0.0
H1851 H 0.45486 0.55665 0.68222 0.0
H1852 H 0.46052 0.56745 0.37265 0.0
H1853 H 0.45769 0.56862 0.4815 0.0
C1854 C 0.60123 0.78946 0.94112 0.0
C1855 C 0.58919 0.78317 0.98026 0.0
C1856 C 0.59926 0.78915 0.87865 0.0
C1857 C 0.57192 0.78369 0.76163 0.0
H1858 H 0.5971 0.77666 0.65708 0.0
C1859 C 0.55957 0.77064 0.50908 0.0
C1860 C 0.5712 0.77781 0.46824 0.0
C1861 C 0.56208 0.77142 0.57118 0.0
C1862 C 0.59008 0.77878 0.68566 0.0
H1863 H 0.56561 0.77152 0.98431 0.0
H1864 H 0.56213 0.77083 0.87533 0.0
H1865 H 0.60073 0.77781 0.76616 0.0
H1866 H 0.59468 0.79126 0.46129 0.0
H1867 H 0.59908 0.79247 0.56995 0.0
H1868 H 0.56116 0.78446 0.68109 0.0
C1869 C 0.57313 0.77627 0.89293 0.0
C1870 C 0.59217 0.77947 0.7482 0.0
C1871 C 0.57512 0.77665 0.95548 0.0
C1872 C 0.58547 0.7855 0.49122 0.0
C1873 C 0.588 0.78622 0.55353 0.0
C1874 C 0.5698 0.78293 0.69918 0.0
C1875 C 0.58518 0.78247 0.85368 0.0
C1876 C 0.58308 0.7819 0.78702 0.0
C1877 C 0.5763 0.77931 0.5942 0.0
C1878 C 0.57882 0.78041 0.66048 0.0
H1879 H 0.61222 0.79477 0.95885 0.0
H1880 H 0.6088 0.79429 0.84996 0.0
H1881 H 0.5649 0.78586 0.78996 0.0
H1882 H 0.54846 0.76433 0.4932 0.0
H1883 H 0.55286 0.76573 0.60124 0.0
C1884 C 0.24695 0.81138 0.48749 0.0
C1885 C 0.24373 0.79778 0.46395 0.0
C1886 C 0.24654 0.81332 0.54985 0.0
C1887 C 0.24776 0.79689 0.69618 0.0
H1888 H 0.23264 0.82066 0.76084 0.0
C1889 C 0.23651 0.79847 0.95075 0.0
C1890 C 0.24051 0.81214 0.97601 0.0
C1891 C 0.23706 0.79687 0.88828 0.0
C1892 C 0.23703 0.8141 0.74345 0.0
H1893 H 0.23695 0.77544 0.48739 0.0
H1894 H 0.23608 0.77875 0.59555 0.0
H1895 H 0.23314 0.81765 0.65184 0.0
H1896 H 0.2486 0.83489 0.95484 0.0
H1897 H 0.24944 0.83205 0.84623 0.0
H1898 H 0.25154 0.79325 0.78783 0.0
C1899 C 0.23932 0.78804 0.56619 0.0
C1900 C 0.23734 0.81239 0.68095 0.0
C1901 C 0.2398 0.78613 0.50406 0.0
C1902 C 0.24517 0.82416 0.93715 0.0
C1903 C 0.24567 0.82254 0.87473 0.0
C1904 C 0.2474 0.79855 0.75864 0.0
C1905 C 0.24282 0.80169 0.59002 0.0
C1906 C 0.24267 0.80373 0.65651 0.0
C1907 C 0.24158 0.80887 0.84952 0.0
C1908 C 0.24201 0.80716 0.78304 0.0
H1909 H 0.25015 0.8206 0.45786 0.0
H1910 H 0.24944 0.82402 0.56663 0.0
H1911 H 0.2522 0.79036 0.67898 0.0
H1912 H 0.23267 0.78894 0.97907 0.0
H1913 H 0.23366 0.78615 0.87023 0.0
C1914 C 0.22656 0.46213 0.50291 0.0
C1915 C 0.22269 0.45058 0.46224 0.0
C1916 C 0.22485 0.45963 0.56504 0.0
C1917 C 0.20527 0.43119 0.67963 0.0
H1918 H 0.23674 0.45772 0.78442 0.0
C1919 C 0.2059 0.4201 0.93475 0.0
C1920 C 0.21094 0.43201 0.97433 0.0
C1921 C 0.20734 0.42223 0.8723 0.0
C1922 C 0.22777 0.45031 0.75595 0.0
H1923 H 0.21375 0.42723 0.45559 0.0
H1924 H 0.21063 0.42284 0.56421 0.0
H1925 H 0.23893 0.46155 0.67562 0.0
H1926 H 0.22129 0.45553 0.97903 0.0
H1927 H 0.22372 0.45926 0.87014 0.0
H1928 H 0.19404 0.42001 0.75998 0.0
C1929 C 0.21495 0.43386 0.54771 0.0
C1930 C 0.22904 0.4525 0.69352 0.0
C1931 C 0.21672 0.43637 0.48539 0.0
C1932 C 0.21751 0.44613 0.94993 0.0
C1933 C 0.21889 0.44826 0.88741 0.0
C1934 C 0.20397 0.42903 0.74215 0.0
C1935 C 0.21915 0.44549 0.58826 0.0
C1936 C 0.2178 0.44299 0.65461 0.0
C1937 C 0.2138 0.43633 0.84776 0.0
C1938 C 0.2152 0.43858 0.78114 0.0
H1939 H 0.23088 0.47316 0.48684 0.0
H1940 H 0.22791 0.46878 0.59495 0.0
H1941 H 0.19635 0.42377 0.65096 0.0
H1942 H 0.201 0.40911 0.9521 0.0
H1943 H 0.20354 0.4128 0.84327 0.0
loop_
_geom_bond_atom_site_label_1
_geom_bond_atom_site_label_2
_geom_bond_distance
_geom_bond_site_symmetry_2
_ccdc_geom_bond_type
Co0 N4 2.148 . S
Co0 N10 2.128 . S
Co0 N20 2.194 . S
Co0 O25 2.351 . S
Co0 O26 2.155 . S
Co0 O27 2.096 . S
C1 N4 1.301 . S
C1 N5 1.328 . S
C1 H6 0.930 . S
C2 C3 1.333 . S
C2 N4 1.317 . S
C2 H7 0.930 . S
C3 C2 1.333 . S
C3 N5 1.350 . S
C3 H29 0.931 . S
N4 Co0 2.148 . S
N4 C1 1.301 . S
N4 C2 1.317 . S
N5 C1 1.328 . S
N5 C3 1.350 . S
H6 C1 0.930 . S
H7 C2 0.930 . S
C8 O9 1.224 . S
C8 O27 1.247 . S
O9 C8 1.224 . S
N10 Co0 2.128 . S
N10 C11 1.355 . S
N10 C13 1.311 . S
C11 N10 1.355 . S
C11 C12 1.363 . S
C11 H23 0.929 . S
C12 C11 1.363 . S
C12 N14 1.375 . S
C12 H30 0.931 . S
C13 N10 1.311 . S
C13 N14 1.347 . S
C13 H24 0.929 . S
N14 C12 1.375 . S
N14 C13 1.347 . S
C15 C18 1.365 . S
C15 N20 1.328 . S
C15 H21 0.929 . S
C16 C17 1.362 . S
C16 C19 1.378 . S
C16 H31 0.929 . S
C17 C16 1.362 . S
C17 C18 1.366 . S
C18 C15 1.365 . S
C18 C17 1.366 . S
C18 H32 0.930 . S
C19 C16 1.378 . S
C19 N20 1.315 . S
C19 H22 0.930 . S
N20 Co0 2.194 . S
N20 C15 1.328 . S
N20 C19 1.315 . S
H21 C15 0.929 . S
H22 C19 0.930 . S
H23 C11 0.929 . S
H24 C13 0.929 . S
O25 Co0 2.351 . S
O25 C28 1.244 . S
O26 Co0 2.155 . S
O26 C28 1.240 . S
O27 Co0 2.096 . S
O27 C8 1.247 . S
C28 O25 1.244 . S
C28 O26 1.240 . S
H29 C3 0.931 . S
H30 C12 0.931 . S
H31 C16 0.929 . S
H32 C18 0.930 . S
Co33 N37 2.148 . S
Co33 N43 2.128 . S
Co33 N53 2.194 . S
Co33 O58 2.351 . S
Co33 O59 2.155 . S
Co33 O60 2.096 . S
C34 N37 1.301 . S
C34 N38 1.328 . S
C34 H39 0.930 . S
C35 C36 1.333 . S
C35 N37 1.317 . S
C35 H40 0.930 . S
C36 C35 1.333 . S
C36 N38 1.350 . S
C36 H62 0.931 . S
N37 Co33 2.148 . S
N37 C34 1.301 . S
N37 C35 1.317 . S
N38 C34 1.328 . S
N38 C36 1.350 . S
H39 C34 0.930 . S
H40 C35 0.930 . S
C41 O42 1.224 . S
C41 O60 1.247 . S
O42 C41 1.224 . S
N43 Co33 2.128 . S
N43 C44 1.355 . S
N43 C46 1.311 . S
C44 N43 1.355 . S
C44 C45 1.363 . S
C44 H56 0.929 . S
C45 C44 1.363 . S
C45 N47 1.375 . S
C45 H63 0.931 . S
C46 N43 1.311 . S
C46 N47 1.347 . S
C46 H57 0.929 . S
N47 C45 1.375 . S
N47 C46 1.347 . S
C48 C51 1.365 . S
C48 N53 1.328 . S
C48 H54 0.929 . S
C49 C50 1.362 . S
C49 C52 1.378 . S
C49 H64 0.929 . S
C50 C49 1.362 . S
C50 C51 1.366 . S
C51 C48 1.365 . S
C51 C50 1.366 . S
C51 H65 0.930 . S
C52 C49 1.378 . S
C52 N53 1.315 . S
C52 H55 0.930 . S
N53 Co33 2.194 . S
N53 C48 1.328 . S
N53 C52 1.315 . S
H54 C48 0.929 . S
H55 C52 0.930 . S
H56 C44 0.929 . S
H57 C46 0.929 . S
O58 Co33 2.351 . S
O58 C61 1.244 . S
O59 Co33 2.155 . S
O59 C61 1.240 . S
O60 Co33 2.096 . S
O60 C41 1.247 . S
C61 O58 1.244 . S
C61 O59 1.240 . S
H62 C36 0.931 . S
H63 C45 0.931 . S
H64 C49 0.929 . S
H65 C51 0.930 . S
Co66 N70 2.148 . S
Co66 N76 2.128 . S
Co66 N86 2.194 . S
Co66 O91 2.351 . S
Co66 O92 2.155 . S
Co66 O93 2.096 . S
C67 N70 1.301 . S
C67 N71 1.328 . S
C67 H72 0.930 . S
C68 C69 1.333 . S
C68 N70 1.317 . S
C68 H73 0.930 . S
C69 C68 1.333 . S
C69 N71 1.350 . S
C69 H95 0.931 . S
N70 Co66 2.148 . S
N70 C67 1.301 . S
N70 C68 1.317 . S
N71 C67 1.328 . S
N71 C69 1.350 . S
H72 C67 0.930 . S
H73 C68 0.930 . S
C74 O75 1.224 . S
C74 O93 1.247 . S
O75 C74 1.224 . S
N76 Co66 2.128 . S
N76 C77 1.355 . S
N76 C79 1.311 . S
C77 N76 1.355 . S
C77 C78 1.363 . S
C77 H89 0.929 . S
C78 C77 1.363 . S
C78 N80 1.375 . S
C78 H96 0.931 . S
C79 N76 1.311 . S
C79 N80 1.347 . S
C79 H90 0.929 . S
N80 C78 1.375 . S
N80 C79 1.347 . S
C81 C84 1.365 . S
C81 N86 1.328 . S
C81 H87 0.929 . S
C82 C83 1.362 . S
C82 C85 1.378 . S
C82 H97 0.929 . S
C83 C82 1.362 . S
C83 C84 1.366 . S
C84 C81 1.365 . S
C84 C83 1.366 . S
C84 H98 0.930 . S
C85 C82 1.378 . S
C85 N86 1.315 . S
C85 H88 0.930 . S
N86 Co66 2.194 . S
N86 C81 1.328 . S
N86 C85 1.315 . S
H87 C81 0.929 . S
H88 C85 0.930 . S
H89 C77 0.929 . S
H90 C79 0.929 . S
O91 Co66 2.351 . S
O91 C94 1.244 . S
O92 Co66 2.155 . S
O92 C94 1.240 . S
O93 Co66 2.096 . S
O93 C74 1.247 . S
C94 O91 1.244 . S
C94 O92 1.240 . S
H95 C69 0.931 . S
H96 C78 0.931 . S
H97 C82 0.929 . S
H98 C84 0.930 . S
Co99 N103 2.148 . S
Co99 N109 2.128 . S
Co99 N119 2.194 . S
Co99 O124 2.351 . S
Co99 O125 2.155 . S
Co99 O126 2.096 . S
C100 N103 1.301 . S
C100 N104 1.328 . S
C100 H105 0.930 . S
C101 C102 1.333 . S
C101 N103 1.317 . S
C101 H106 0.930 . S
C102 C101 1.333 . S
C102 N104 1.350 . S
C102 H128 0.931 . S
N103 Co99 2.148 . S
N103 C100 1.301 . S
N103 C101 1.317 . S
N104 C100 1.328 . S
N104 C102 1.350 . S
H105 C100 0.930 . S
H106 C101 0.930 . S
C107 O108 1.224 . S
C107 O126 1.247 . S
O108 C107 1.224 . S
N109 Co99 2.128 . S
N109 C110 1.355 . S
N109 C112 1.311 . S
C110 N109 1.355 . S
C110 C111 1.363 . S
C110 H122 0.929 . S
C111 C110 1.363 . S
C111 N113 1.375 . S
C111 H129 0.931 . S
C112 N109 1.311 . S
C112 N113 1.347 . S
C112 H123 0.929 . S
N113 C111 1.375 . S
N113 C112 1.347 . S
C114 C117 1.365 . S
C114 N119 1.328 . S
C114 H120 0.929 . S
C115 C116 1.362 . S
C115 C118 1.378 . S
C115 H130 0.929 . S
C116 C115 1.362 . S
C116 C117 1.366 . S
C117 C114 1.365 . S
C117 C116 1.366 . S
C117 H131 0.930 . S
C118 C115 1.378 . S
C118 N119 1.315 . S
C118 H121 0.930 . S
N119 Co99 2.194 . S
N119 C114 1.328 . S
N119 C118 1.315 . S
H120 C114 0.929 . S
H121 C118 0.930 . S
H122 C110 0.929 . S
H123 C112 0.929 . S
O124 Co99 2.351 . S
O124 C127 1.244 . S
O125 Co99 2.155 . S
O125 C127 1.240 . S
O126 Co99 2.096 . S
O126 C107 1.247 . S
C127 O124 1.244 . S
C127 O125 1.240 . S
H128 C102 0.931 . S
H129 C111 0.931 . S
H130 C115 0.929 . S
H131 C117 0.930 . S
Co132 N136 2.148 . S
Co132 N142 2.128 . S
Co132 N152 2.194 . S
Co132 O157 2.351 . S
Co132 O158 2.155 . S
Co132 O159 2.096 . S
C133 N136 1.301 . S
C133 N137 1.328 . S
C133 H138 0.930 . S
C134 C135 1.333 . S
C134 N136 1.317 . S
C134 H139 0.930 . S
C135 C134 1.333 . S
C135 N137 1.350 . S
C135 H161 0.931 . S
N136 Co132 2.148 . S
N136 C133 1.301 . S
N136 C134 1.317 . S
N137 C133 1.328 . S
N137 C135 1.350 . S
H138 C133 0.930 . S
H139 C134 0.930 . S
C140 O141 1.224 . S
C140 O159 1.247 . S
O141 C140 1.224 . S
N142 Co132 2.128 . S
N142 C143 1.355 . S
N142 C145 1.311 . S
C143 N142 1.355 . S
C143 C144 1.363 . S
C143 H155 0.929 . S
C144 C143 1.363 . S
C144 N146 1.375 . S
C144 H162 0.931 . S
C145 N142 1.311 . S
C145 N146 1.347 . S
C145 H156 0.929 . S
N146 C144 1.375 . S
N146 C145 1.347 . S
C147 C150 1.365 . S
C147 N152 1.328 . S
C147 H153 0.929 . S
C148 C149 1.362 . S
C148 C151 1.378 . S
C148 H163 0.929 . S
C149 C148 1.362 . S
C149 C150 1.366 . S
C150 C147 1.365 . S
C150 C149 1.366 . S
C150 H164 0.930 . S
C151 C148 1.378 . S
C151 N152 1.315 . S
C151 H154 0.930 . S
N152 Co132 2.194 . S
N152 C147 1.328 . S
N152 C151 1.315 . S
H153 C147 0.929 . S
H154 C151 0.930 . S
H155 C143 0.929 . S
H156 C145 0.929 . S
O157 Co132 2.351 . S
O157 C160 1.244 . S
O158 Co132 2.155 . S
O158 C160 1.240 . S
O159 Co132 2.096 . S
O159 C140 1.247 . S
C160 O157 1.244 . S
C160 O158 1.240 . S
H161 C135 0.931 . S
H162 C144 0.931 . S
H163 C148 0.929 . S
H164 C150 0.930 . S
Co165 N169 2.148 . S
Co165 N175 2.128 . S
Co165 N185 2.194 . S
Co165 O190 2.351 . S
Co165 O191 2.155 . S
Co165 O192 2.096 . S
C166 N169 1.301 . S
C166 N170 1.328 . S
C166 H171 0.930 . S
C167 C168 1.333 . S
C167 N169 1.317 . S
C167 H172 0.930 . S
C168 C167 1.333 . S
C168 N170 1.350 . S
C168 H194 0.931 . S
N169 Co165 2.148 . S
N169 C166 1.301 . S
N169 C167 1.317 . S
N170 C166 1.328 . S
N170 C168 1.350 . S
H171 C166 0.930 . S
H172 C167 0.930 . S
C173 O174 1.224 . S
C173 O192 1.247 . S
O174 C173 1.224 . S
N175 Co165 2.128 . S
N175 C176 1.355 . S
N175 C178 1.311 . S
C176 N175 1.355 . S
C176 C177 1.363 . S
C176 H188 0.929 . S
C177 C176 1.363 . S
C177 N179 1.375 . S
C177 H195 0.931 . S
C178 N175 1.311 . S
C178 N179 1.347 . S
C178 H189 0.929 . S
N179 C177 1.375 . S
N179 C178 1.347 . S
C180 C183 1.365 . S
C180 N185 1.328 . S
C180 H186 0.929 . S
C181 C182 1.362 . S
C181 C184 1.378 . S
C181 H196 0.929 . S
C182 C181 1.362 . S
C182 C183 1.366 . S
C183 C180 1.365 . S
C183 C182 1.366 . S
C183 H197 0.930 . S
C184 C181 1.378 . S
C184 N185 1.315 . S
C184 H187 0.930 . S
N185 Co165 2.194 . S
N185 C180 1.328 . S
N185 C184 1.315 . S
H186 C180 0.929 . S
H187 C184 0.930 . S
H188 C176 0.929 . S
H189 C178 0.929 . S
O190 Co165 2.351 . S
O190 C193 1.244 . S
O191 Co165 2.155 . S
O191 C193 1.240 . S
O192 Co165 2.096 . S
O192 C173 1.247 . S
C193 O190 1.244 . S
C193 O191 1.240 . S
H194 C168 0.931 . S
H195 C177 0.931 . S
H196 C181 0.929 . S
H197 C183 0.930 . S
Co198 N202 2.148 . S
Co198 N208 2.128 . S
Co198 N218 2.194 . S
Co198 O223 2.351 . S
Co198 O224 2.155 . S
Co198 O225 2.096 . S
C199 N202 1.301 . S
C199 N203 1.328 . S
C199 H204 0.930 . S
C200 C201 1.333 . S
C200 N202 1.317 . S
C200 H205 0.930 . S
C201 C200 1.333 . S
C201 N203 1.350 . S
C201 H227 0.931 . S
N202 Co198 2.148 . S
N202 C199 1.301 . S
N202 C200 1.317 . S
N203 C199 1.328 . S
N203 C201 1.350 . S
H204 C199 0.930 . S
H205 C200 0.930 . S
C206 O207 1.224 . S
C206 O225 1.247 . S
O207 C206 1.224 . S
N208 Co198 2.128 . S
N208 C209 1.355 . S
N208 C211 1.311 . S
C209 N208 1.355 . S
C209 C210 1.363 . S
C209 H221 0.929 . S
C210 C209 1.363 . S
C210 N212 1.375 . S
C210 H228 0.931 . S
C211 N208 1.311 . S
C211 N212 1.347 . S
C211 H222 0.929 . S
N212 C210 1.375 . S
N212 C211 1.347 . S
C213 C216 1.365 . S
C213 N218 1.328 . S
C213 H219 0.929 . S
C214 C215 1.362 . S
C214 C217 1.378 . S
C214 H229 0.929 . S
C215 C214 1.362 . S
C215 C216 1.366 . S
C216 C213 1.365 . S
C216 C215 1.366 . S
C216 H230 0.930 . S
C217 C214 1.378 . S
C217 N218 1.315 . S
C217 H220 0.930 . S
N218 Co198 2.194 . S
N218 C213 1.328 . S
N218 C217 1.315 . S
H219 C213 0.929 . S
H220 C217 0.930 . S
H221 C209 0.929 . S
H222 C211 0.929 . S
O223 Co198 2.351 . S
O223 C226 1.244 . S
O224 Co198 2.155 . S
O224 C226 1.240 . S
O225 Co198 2.096 . S
O225 C206 1.247 . S
C226 O223 1.244 . S
C226 O224 1.240 . S
H227 C201 0.931 . S
H228 C210 0.931 . S
H229 C214 0.929 . S
H230 C216 0.930 . S
Co231 N235 2.148 . S
Co231 N241 2.128 . S
Co231 N251 2.194 . S
Co231 O256 2.351 . S
Co231 O257 2.155 . S
Co231 O258 2.096 . S
C232 N235 1.301 . S
C232 N236 1.328 . S
C232 H237 0.930 . S
C233 C234 1.333 . S
C233 N235 1.317 . S
C233 H238 0.930 . S
C234 C233 1.333 . S
C234 N236 1.350 . S
C234 H260 0.931 . S
N235 Co231 2.148 . S
N235 C232 1.301 . S
N235 C233 1.317 . S
N236 C232 1.328 . S
N236 C234 1.350 . S
H237 C232 0.930 . S
H238 C233 0.930 . S
C239 O240 1.224 . S
C239 O258 1.247 . S
O240 C239 1.224 . S
N241 Co231 2.128 . S
N241 C242 1.355 . S
N241 C244 1.311 . S
C242 N241 1.355 . S
C242 C243 1.363 . S
C242 H254 0.929 . S
C243 C242 1.363 . S
C243 N245 1.375 . S
C243 H261 0.931 . S
C244 N241 1.311 . S
C244 N245 1.347 . S
C244 H255 0.929 . S
N245 C243 1.375 . S
N245 C244 1.347 . S
C246 C249 1.365 . S
C246 N251 1.328 . S
C246 H252 0.929 . S
C247 C248 1.362 . S
C247 C250 1.378 . S
C247 H262 0.929 . S
C248 C247 1.362 . S
C248 C249 1.366 . S
C249 C246 1.365 . S
C249 C248 1.366 . S
C249 H263 0.930 . S
C250 C247 1.378 . S
C250 N251 1.315 . S
C250 H253 0.930 . S
N251 Co231 2.194 . S
N251 C246 1.328 . S
N251 C250 1.315 . S
H252 C246 0.929 . S
H253 C250 0.930 . S
H254 C242 0.929 . S
H255 C244 0.929 . S
O256 Co231 2.351 . S
O256 C259 1.244 . S
O257 Co231 2.155 . S
O257 C259 1.240 . S
O258 Co231 2.096 . S
O258 C239 1.247 . S
C259 O256 1.244 . S
C259 O257 1.240 . S
H260 C234 0.931 . S
H261 C243 0.931 . S
H262 C247 0.929 . S
H263 C249 0.930 . S
Co264 N268 2.148 . S
Co264 N274 2.128 . S
Co264 N284 2.194 . S
Co264 O289 2.351 . S
Co264 O290 2.155 . S
Co264 O291 2.096 . S
C265 N268 1.301 . S
C265 N269 1.328 . S
C265 H270 0.930 . S
C266 C267 1.333 . S
C266 N268 1.317 . S
C266 H271 0.930 . S
C267 C266 1.333 . S
C267 N269 1.350 . S
C267 H293 0.931 . S
N268 Co264 2.148 . S
N268 C265 1.301 . S
N268 C266 1.317 . S
N269 C265 1.328 . S
N269 C267 1.350 . S
H270 C265 0.930 . S
H271 C266 0.930 . S
C272 O273 1.224 . S
C272 O291 1.247 . S
O273 C272 1.224 . S
N274 Co264 2.128 . S
N274 C275 1.355 . S
N274 C277 1.311 . S
C275 N274 1.355 . S
C275 C276 1.363 . S
C275 H287 0.929 . S
C276 C275 1.363 . S
C276 N278 1.375 . S
C276 H294 0.931 . S
C277 N274 1.311 . S
C277 N278 1.347 . S
C277 H288 0.929 . S
N278 C276 1.375 . S
N278 C277 1.347 . S
C279 C282 1.365 . S
C279 N284 1.328 . S
C279 H285 0.929 . S
C280 C281 1.362 . S
C280 C283 1.378 . S
C280 H295 0.929 . S
C281 C280 1.362 . S
C281 C282 1.366 . S
C282 C279 1.365 . S
C282 C281 1.366 . S
C282 H296 0.930 . S
C283 C280 1.378 . S
C283 N284 1.315 . S
C283 H286 0.930 . S
N284 Co264 2.194 . S
N284 C279 1.328 . S
N284 C283 1.315 . S
H285 C279 0.929 . S
H286 C283 0.930 . S
H287 C275 0.929 . S
H288 C277 0.929 . S
O289 Co264 2.351 . S
O289 C292 1.244 . S
O290 Co264 2.155 . S
O290 C292 1.240 . S
O291 Co264 2.096 . S
O291 C272 1.247 . S
C292 O289 1.244 . S
C292 O290 1.240 . S
H293 C267 0.931 . S
H294 C276 0.931 . S
H295 C280 0.929 . S
H296 C282 0.930 . S
Co297 N301 2.148 . S
Co297 N307 2.128 . S
Co297 N317 2.194 . S
Co297 O322 2.351 . S
Co297 O323 2.155 . S
Co297 O324 2.096 . S
C298 N301 1.301 . S
C298 N302 1.328 . S
C298 H303 0.930 . S
C299 C300 1.333 . S
C299 N301 1.317 . S
C299 H304 0.930 . S
C300 C299 1.333 . S
C300 N302 1.350 . S
C300 H326 0.931 . S
N301 Co297 2.148 . S
N301 C298 1.301 . S
N301 C299 1.317 . S
N302 C298 1.328 . S
N302 C300 1.350 . S
H303 C298 0.930 . S
H304 C299 0.930 . S
C305 O306 1.224 . S
C305 O324 1.247 . S
O306 C305 1.224 . S
N307 Co297 2.128 . S
N307 C308 1.355 . S
N307 C310 1.311 1_556 S
C308 N307 1.355 . S
C308 C309 1.363 1_556 S
C308 H320 0.929 . S
C309 C308 1.363 1_554 S
C309 N311 1.375 . S
C309 H327 0.931 . S
C310 N307 1.311 1_554 S
C310 N311 1.347 . S
C310 H321 0.929 . S
N311 C309 1.375 . S
N311 C310 1.347 . S
C312 C315 1.365 . S
C312 N317 1.328 . S
C312 H318 0.929 . S
C313 C314 1.362 . S
C313 C316 1.378 . S
C313 H328 0.929 . S
C314 C313 1.362 . S
C314 C315 1.366 . S
C315 C312 1.365 . S
C315 C314 1.366 . S
C315 H329 0.930 . S
C316 C313 1.378 . S
C316 N317 1.315 . S
C316 H319 0.930 . S
N317 Co297 2.194 . S
N317 C312 1.328 . S
N317 C316 1.315 . S
H318 C312 0.929 . S
H319 C316 0.930 . S
H320 C308 0.929 . S
H321 C310 0.929 . S
O322 Co297 2.351 . S
O322 C325 1.244 . S
O323 Co297 2.155 . S
O323 C325 1.240 . S
O324 Co297 2.096 . S
O324 C305 1.247 . S
C325 O322 1.244 . S
C325 O323 1.240 . S
H326 C300 0.931 . S
H327 C309 0.931 . S
H328 C313 0.929 . S
H329 C315 0.930 . S
Co330 N334 2.148 . S
Co330 N340 2.128 . S
Co330 N350 2.194 . S
Co330 O355 2.351 . S
Co330 O356 2.155 . S
Co330 O357 2.096 . S
C331 N334 1.301 . S
C331 N335 1.328 . S
C331 H336 0.930 . S
C332 C333 1.333 . S
C332 N334 1.317 . S
C332 H337 0.930 . S
C333 C332 1.333 . S
C333 N335 1.350 . S
C333 H359 0.931 . S
N334 Co330 2.148 . S
N334 C331 1.301 . S
N334 C332 1.317 . S
N335 C331 1.328 . S
N335 C333 1.350 . S
H336 C331 0.930 . S
H337 C332 0.930 . S
C338 O339 1.224 . S
C338 O357 1.247 . S
O339 C338 1.224 . S
N340 Co330 2.128 . S
N340 C341 1.355 . S
N340 C343 1.311 1_556 S
C341 N340 1.355 . S
C341 C342 1.363 1_556 S
C341 H353 0.929 . S
C342 C341 1.363 1_554 S
C342 N344 1.375 . S
C342 H360 0.931 . S
C343 N340 1.311 1_554 S
C343 N344 1.347 . S
C343 H354 0.929 . S
N344 C342 1.375 . S
N344 C343 1.347 . S
C345 C348 1.365 . S
C345 N350 1.328 . S
C345 H351 0.929 . S
C346 C347 1.362 . S
C346 C349 1.378 . S
C346 H361 0.929 . S
C347 C346 1.362 . S
C347 C348 1.366 . S
C348 C345 1.365 . S
C348 C347 1.366 . S
C348 H362 0.930 . S
C349 C346 1.378 . S
C349 N350 1.315 . S
C349 H352 0.930 . S
N350 Co330 2.194 . S
N350 C345 1.328 . S
N350 C349 1.315 . S
H351 C345 0.929 . S
H352 C349 0.930 . S
H353 C341 0.929 . S
H354 C343 0.929 . S
O355 Co330 2.351 . S
O355 C358 1.244 . S
O356 Co330 2.155 . S
O356 C358 1.240 . S
O357 Co330 2.096 . S
O357 C338 1.247 . S
C358 O355 1.244 . S
C358 O356 1.240 . S
H359 C333 0.931 . S
H360 C342 0.931 . S
H361 C346 0.929 . S
H362 C348 0.930 . S
Co363 N367 2.148 . S
Co363 N373 2.128 . S
Co363 N383 2.194 . S
Co363 O388 2.351 . S
Co363 O389 2.155 . S
Co363 O390 2.096 . S
C364 N367 1.301 . S
C364 N368 1.328 . S
C364 H369 0.930 . S
C365 C366 1.333 . S
C365 N367 1.317 . S
C365 H370 0.930 . S
C366 C365 1.333 . S
C366 N368 1.350 . S
C366 H392 0.931 . S
N367 Co363 2.148 . S
N367 C364 1.301 . S
N367 C365 1.317 . S
N368 C364 1.328 . S
N368 C366 1.350 . S
H369 C364 0.930 . S
H370 C365 0.930 . S
C371 O372 1.224 . S
C371 O390 1.247 . S
O372 C371 1.224 . S
N373 Co363 2.128 . S
N373 C374 1.355 . S
N373 C376 1.311 1_556 S
C374 N373 1.355 . S
C374 C375 1.363 1_556 S
C374 H386 0.929 . S
C375 C374 1.363 1_554 S
C375 N377 1.375 . S
C375 H393 0.931 . S
C376 N373 1.311 1_554 S
C376 N377 1.347 . S
C376 H387 0.929 . S
N377 C375 1.375 . S
N377 C376 1.347 . S
C378 C381 1.365 . S
C378 N383 1.328 . S
C378 H384 0.929 . S
C379 C380 1.362 . S
C379 C382 1.378 . S
C379 H394 0.929 . S
C380 C379 1.362 . S
C380 C381 1.366 . S
C381 C378 1.365 . S
C381 C380 1.366 . S
C381 H395 0.930 . S
C382 C379 1.378 . S
C382 N383 1.315 . S
C382 H385 0.930 . S
N383 Co363 2.194 . S
N383 C378 1.328 . S
N383 C382 1.315 . S
H384 C378 0.929 . S
H385 C382 0.930 . S
H386 C374 0.929 . S
H387 C376 0.929 . S
O388 Co363 2.351 . S
O388 C391 1.244 . S
O389 Co363 2.155 . S
O389 C391 1.240 . S
O390 Co363 2.096 . S
O390 C371 1.247 . S
C391 O388 1.244 . S
C391 O389 1.240 . S
H392 C366 0.931 . S
H393 C375 0.931 . S
H394 C379 0.929 . S
H395 C381 0.930 . S
Co396 N400 2.148 . S
Co396 N406 2.128 . S
Co396 N416 2.194 . S
Co396 O421 2.351 . S
Co396 O422 2.155 . S
Co396 O423 2.096 . S
C397 N400 1.301 . S
C397 N401 1.328 . S
C397 H402 0.930 . S
C398 C399 1.333 . S
C398 N400 1.317 . S
C398 H403 0.930 . S
C399 C398 1.333 . S
C399 N401 1.350 . S
C399 H425 0.931 . S
N400 Co396 2.148 . S
N400 C397 1.301 . S
N400 C398 1.317 . S
N401 C397 1.328 . S
N401 C399 1.350 . S
H402 C397 0.930 . S
H403 C398 0.930 . S
C404 O405 1.224 . S
C404 O423 1.247 . S
O405 C404 1.224 . S
N406 Co396 2.128 . S
N406 C407 1.355 . S
N406 C409 1.311 1_554 S
C407 N406 1.355 . S
C407 C408 1.363 1_554 S
C407 H419 0.929 . S
C408 C407 1.363 1_556 S
C408 N410 1.375 . S
C408 H426 0.931 . S
C409 N406 1.311 1_556 S
C409 N410 1.347 . S
C409 H420 0.929 . S
N410 C408 1.375 . S
N410 C409 1.347 . S
C411 C414 1.365 . S
C411 N416 1.328 . S
C411 H417 0.929 . S
C412 C413 1.362 . S
C412 C415 1.378 . S
C412 H427 0.929 . S
C413 C412 1.362 . S
C413 C414 1.366 . S
C414 C411 1.365 . S
C414 C413 1.366 . S
C414 H428 0.930 . S
C415 C412 1.378 . S
C415 N416 1.315 . S
C415 H418 0.930 . S
N416 Co396 2.194 . S
N416 C411 1.328 . S
N416 C415 1.315 . S
H417 C411 0.929 . S
H418 C415 0.930 . S
H419 C407 0.929 . S
H420 C409 0.929 . S
O421 Co396 2.351 . S
O421 C424 1.244 . S
O422 Co396 2.155 . S
O422 C424 1.240 . S
O423 Co396 2.096 . S
O423 C404 1.247 . S
C424 O421 1.244 . S
C424 O422 1.240 . S
H425 C399 0.931 . S
H426 C408 0.931 . S
H427 C412 0.929 . S
H428 C414 0.930 . S
Co429 N433 2.148 . S
Co429 N439 2.128 . S
Co429 N449 2.194 . S
Co429 O454 2.351 . S
Co429 O455 2.155 . S
Co429 O456 2.096 . S
C430 N433 1.301 . S
C430 N434 1.328 . S
C430 H435 0.930 . S
C431 C432 1.333 . S
C431 N433 1.317 . S
C431 H436 0.930 . S
C432 C431 1.333 . S
C432 N434 1.350 . S
C432 H458 0.931 . S
N433 Co429 2.148 . S
N433 C430 1.301 . S
N433 C431 1.317 . S
N434 C430 1.328 . S
N434 C432 1.350 . S
H435 C430 0.930 . S
H436 C431 0.930 . S
C437 O438 1.224 . S
C437 O456 1.247 . S
O438 C437 1.224 . S
N439 Co429 2.128 . S
N439 C440 1.355 . S
N439 C442 1.311 1_554 S
C440 N439 1.355 . S
C440 C441 1.363 1_554 S
C440 H452 0.929 . S
C441 C440 1.363 1_556 S
C441 N443 1.375 . S
C441 H459 0.931 . S
C442 N439 1.311 1_556 S
C442 N443 1.347 . S
C442 H453 0.929 . S
N443 C441 1.375 . S
N443 C442 1.347 . S
C444 C447 1.365 . S
C444 N449 1.328 . S
C444 H450 0.929 . S
C445 C446 1.362 . S
C445 C448 1.378 . S
C445 H460 0.929 . S
C446 C445 1.362 . S
C446 C447 1.366 . S
C447 C444 1.365 . S
C447 C446 1.366 . S
C447 H461 0.930 . S
C448 C445 1.378 . S
C448 N449 1.315 . S
C448 H451 0.930 . S
N449 Co429 2.194 . S
N449 C444 1.328 . S
N449 C448 1.315 . S
H450 C444 0.929 . S
H451 C448 0.930 . S
H452 C440 0.929 . S
H453 C442 0.929 . S
O454 Co429 2.351 . S
O454 C457 1.244 . S
O455 Co429 2.155 . S
O455 C457 1.240 . S
O456 Co429 2.096 . S
O456 C437 1.247 . S
C457 O454 1.244 . S
C457 O455 1.240 . S
H458 C432 0.931 . S
H459 C441 0.931 . S
H460 C445 0.929 . S
H461 C447 0.930 . S
Co462 N466 2.148 . S
Co462 N472 2.128 . S
Co462 N482 2.194 . S
Co462 O487 2.351 . S
Co462 O488 2.155 . S
Co462 O489 2.096 . S
C463 N466 1.301 . S
C463 N467 1.328 . S
C463 H468 0.930 . S
C464 C465 1.333 . S
C464 N466 1.317 . S
C464 H469 0.930 . S
C465 C464 1.333 . S
C465 N467 1.350 . S
C465 H491 0.931 . S
N466 Co462 2.148 . S
N466 C463 1.301 . S
N466 C464 1.317 . S
N467 C463 1.328 . S
N467 C465 1.350 . S
H468 C463 0.930 . S
H469 C464 0.930 . S
C470 O471 1.224 . S
C470 O489 1.247 . S
O471 C470 1.224 . S
N472 Co462 2.128 . S
N472 C473 1.355 . S
N472 C475 1.311 1_554 S
C473 N472 1.355 . S
C473 C474 1.363 1_554 S
C473 H485 0.929 . S
C474 C473 1.363 1_556 S
C474 N476 1.375 . S
C474 H492 0.931 . S
C475 N472 1.311 1_556 S
C475 N476 1.347 . S
C475 H486 0.929 . S
N476 C474 1.375 . S
N476 C475 1.347 . S
C477 C480 1.365 . S
C477 N482 1.328 . S
C477 H483 0.929 . S
C478 C479 1.362 . S
C478 C481 1.378 . S
C478 H493 0.929 . S
C479 C478 1.362 . S
C479 C480 1.366 . S
C480 C477 1.365 . S
C480 C479 1.366 . S
C480 H494 0.930 . S
C481 C478 1.378 . S
C481 N482 1.315 . S
C481 H484 0.930 . S
N482 Co462 2.194 . S
N482 C477 1.328 . S
N482 C481 1.315 . S
H483 C477 0.929 . S
H484 C481 0.930 . S
H485 C473 0.929 . S
H486 C475 0.929 . S
O487 Co462 2.351 . S
O487 C490 1.244 . S
O488 Co462 2.155 . S
O488 C490 1.240 . S
O489 Co462 2.096 . S
O489 C470 1.247 . S
C490 O487 1.244 . S
C490 O488 1.240 . S
H491 C465 0.931 . S
H492 C474 0.931 . S
H493 C478 0.929 . S
H494 C480 0.930 . S
Co495 N499 2.148 . S
Co495 N505 2.128 . S
Co495 N515 2.194 . S
Co495 O520 2.351 . S
Co495 O521 2.155 . S
Co495 O522 2.096 . S
C496 N499 1.301 . S
C496 N500 1.328 . S
C496 H501 0.930 . S
C497 C498 1.333 . S
C497 N499 1.317 . S
C497 H502 0.930 . S
C498 C497 1.333 . S
C498 N500 1.350 . S
C498 H524 0.931 . S
N499 Co495 2.148 . S
N499 C496 1.301 . S
N499 C497 1.317 . S
N500 C496 1.328 . S
N500 C498 1.350 . S
H501 C496 0.930 . S
H502 C497 0.930 . S
C503 O504 1.224 . S
C503 O522 1.247 . S
O504 C503 1.224 . S
N505 Co495 2.128 . S
N505 C506 1.355 . S
N505 C508 1.311 . S
C506 N505 1.355 . S
C506 C507 1.363 . S
C506 H518 0.929 . S
C507 C506 1.363 . S
C507 N509 1.375 . S
C507 H525 0.931 . S
C508 N505 1.311 . S
C508 N509 1.347 . S
C508 H519 0.929 . S
N509 C507 1.375 . S
N509 C508 1.347 . S
C510 C513 1.365 . S
C510 N515 1.328 . S
C510 H516 0.929 . S
C511 C512 1.362 . S
C511 C514 1.378 . S
C511 H526 0.929 . S
C512 C511 1.362 . S
C512 C513 1.366 . S
C513 C510 1.365 . S
C513 C512 1.366 . S
C513 H527 0.930 . S
C514 C511 1.378 . S
C514 N515 1.315 . S
C514 H517 0.930 . S
N515 Co495 2.194 . S
N515 C510 1.328 . S
N515 C514 1.315 . S
H516 C510 0.929 . S
H517 C514 0.930 . S
H518 C506 0.929 . S
H519 C508 0.929 . S
O520 Co495 2.351 . S
O520 C523 1.244 . S
O521 Co495 2.155 . S
O521 C523 1.240 . S
O522 Co495 2.096 . S
O522 C503 1.247 . S
C523 O520 1.244 . S
C523 O521 1.240 . S
H524 C498 0.931 . S
H525 C507 0.931 . S
H526 C511 0.929 . S
H527 C513 0.930 . S
Co528 N532 2.148 . S
Co528 N538 2.128 . S
Co528 N548 2.194 . S
Co528 O553 2.351 . S
Co528 O554 2.155 . S
Co528 O555 2.096 . S
C529 N532 1.301 . S
C529 N533 1.328 . S
C529 H534 0.930 . S
C530 C531 1.333 . S
C530 N532 1.317 . S
C530 H535 0.930 . S
C531 C530 1.333 . S
C531 N533 1.350 . S
C531 H557 0.931 . S
N532 Co528 2.148 . S
N532 C529 1.301 . S
N532 C530 1.317 . S
N533 C529 1.328 . S
N533 C531 1.350 . S
H534 C529 0.930 . S
H535 C530 0.930 . S
C536 O537 1.224 . S
C536 O555 1.247 . S
O537 C536 1.224 . S
N538 Co528 2.128 . S
N538 C539 1.355 . S
N538 C541 1.311 . S
C539 N538 1.355 . S
C539 C540 1.363 . S
C539 H551 0.929 . S
C540 C539 1.363 . S
C540 N542 1.375 . S
C540 H558 0.931 . S
C541 N538 1.311 . S
C541 N542 1.347 . S
C541 H552 0.929 . S
N542 C540 1.375 . S
N542 C541 1.347 . S
C543 C546 1.365 . S
C543 N548 1.328 . S
C543 H549 0.929 . S
C544 C545 1.362 . S
C544 C547 1.378 . S
C544 H559 0.929 . S
C545 C544 1.362 . S
C545 C546 1.366 . S
C546 C543 1.365 . S
C546 C545 1.366 . S
C546 H560 0.930 . S
C547 C544 1.378 . S
C547 N548 1.315 . S
C547 H550 0.930 . S
N548 Co528 2.194 . S
N548 C543 1.328 . S
N548 C547 1.315 . S
H549 C543 0.929 . S
H550 C547 0.930 . S
H551 C539 0.929 . S
H552 C541 0.929 . S
O553 Co528 2.351 . S
O553 C556 1.244 . S
O554 Co528 2.155 . S
O554 C556 1.240 . S
O555 Co528 2.096 . S
O555 C536 1.247 . S
C556 O553 1.244 . S
C556 O554 1.240 . S
H557 C531 0.931 . S
H558 C540 0.931 . S
H559 C544 0.929 . S
H560 C546 0.930 . S
Co561 N565 2.148 . S
Co561 N571 2.128 . S
Co561 N581 2.194 . S
Co561 O586 2.351 . S
Co561 O587 2.155 . S
Co561 O588 2.096 . S
C562 N565 1.301 . S
C562 N566 1.328 . S
C562 H567 0.930 . S
C563 C564 1.333 . S
C563 N565 1.317 . S
C563 H568 0.930 . S
C564 C563 1.333 . S
C564 N566 1.350 . S
C564 H590 0.931 . S
N565 Co561 2.148 . S
N565 C562 1.301 . S
N565 C563 1.317 . S
N566 C562 1.328 . S
N566 C564 1.350 . S
H567 C562 0.930 . S
H568 C563 0.930 . S
C569 O570 1.224 . S
C569 O588 1.247 . S
O570 C569 1.224 . S
N571 Co561 2.128 . S
N571 C572 1.355 . S
N571 C574 1.311 . S
C572 N571 1.355 . S
C572 C573 1.363 . S
C572 H584 0.929 . S
C573 C572 1.363 . S
C573 N575 1.375 . S
C573 H591 0.931 . S
C574 N571 1.311 . S
C574 N575 1.347 . S
C574 H585 0.929 . S
N575 C573 1.375 . S
N575 C574 1.347 . S
C576 C579 1.365 . S
C576 N581 1.328 . S
C576 H582 0.929 . S
C577 C578 1.362 . S
C577 C580 1.378 . S
C577 H592 0.929 . S
C578 C577 1.362 . S
C578 C579 1.366 . S
C579 C576 1.365 . S
C579 C578 1.366 . S
C579 H593 0.930 . S
C580 C577 1.378 . S
C580 N581 1.315 . S
C580 H583 0.930 . S
N581 Co561 2.194 . S
N581 C576 1.328 . S
N581 C580 1.315 . S
H582 C576 0.929 . S
H583 C580 0.930 . S
H584 C572 0.929 . S
H585 C574 0.929 . S
O586 Co561 2.351 . S
O586 C589 1.244 . S
O587 Co561 2.155 . S
O587 C589 1.240 . S
O588 Co561 2.096 . S
O588 C569 1.247 . S
C589 O586 1.244 . S
C589 O587 1.240 . S
H590 C564 0.931 . S
H591 C573 0.931 . S
H592 C577 0.929 . S
H593 C579 0.930 . S
C594 C595 1.349 . S
C594 C596 1.327 . S
C594 H619 0.950 . S
C595 C594 1.349 . S
C595 C611 1.349 . S
C596 C594 1.327 . S
C596 C615 1.429 . S
C596 H620 0.950 . S
C597 C614 1.574 . S
C597 C616 1.368 . S
C597 H621 0.949 . S
H598 C602 0.949 . S
C599 C600 1.349 . S
C599 C601 1.327 . S
C599 H622 0.950 . S
C600 C599 1.349 . S
C600 C612 1.349 . S
C601 C599 1.327 . S
C601 C617 1.429 . S
C601 H623 0.950 . S
C602 H598 0.949 . S
C602 C610 1.574 . S
C602 C618 1.368 . S
H603 C611 0.950 . S
H604 C609 0.950 . S
H605 C610 0.949 . S
H606 C612 0.950 . S
H607 C613 0.950 . S
H608 C614 0.949 . S
C609 H604 0.950 . S
C609 C611 1.327 . S
C609 C615 1.429 . S
C610 C602 1.574 . S
C610 H605 0.949 . S
C610 C616 1.368 . S
C611 C595 1.349 . S
C611 H603 0.950 . S
C611 C609 1.327 . S
C612 C600 1.349 . S
C612 H606 0.950 . S
C612 C613 1.327 . S
C613 H607 0.950 . S
C613 C612 1.327 . S
C613 C617 1.429 . S
C614 C597 1.574 . S
C614 H608 0.949 . S
C614 C618 1.368 . S
C615 C596 1.429 . S
C615 C609 1.429 . S
C615 C616 1.523 . S
C616 C597 1.368 . S
C616 C610 1.368 . S
C616 C615 1.523 . S
C617 C601 1.429 . S
C617 C613 1.429 . S
C617 C618 1.523 . S
C618 C602 1.368 . S
C618 C614 1.368 . S
C618 C617 1.523 . S
H619 C594 0.950 . S
H620 C596 0.950 . S
H621 C597 0.949 . S
H622 C599 0.950 . S
H623 C601 0.950 . S
C624 C625 1.349 . S
C624 C626 1.327 . S
C624 H649 0.950 . S
C625 C624 1.349 . S
C625 C641 1.349 . S
C626 C624 1.327 . S
C626 C645 1.429 . S
C626 H650 0.950 . S
C627 C644 1.574 1_545 S
C627 C646 1.368 . S
C627 H651 0.949 . S
H628 C632 0.949 . S
C629 C630 1.349 . S
C629 C631 1.327 . S
C629 H652 0.950 . S
C630 C629 1.349 . S
C630 C642 1.349 . S
C631 C629 1.327 . S
C631 C647 1.429 . S
C631 H653 0.950 . S
C632 H628 0.949 . S
C632 C640 1.574 1_565 S
C632 C648 1.368 . S
H633 C641 0.950 . S
H634 C639 0.950 . S
H635 C640 0.949 . S
H636 C642 0.950 . S
H637 C643 0.950 . S
H638 C644 0.949 . S
C639 H634 0.950 . S
C639 C641 1.327 . S
C639 C645 1.429 . S
C640 C632 1.574 1_545 S
C640 H635 0.949 . S
C640 C646 1.368 . S
C641 C625 1.349 . S
C641 H633 0.950 . S
C641 C639 1.327 . S
C642 C630 1.349 . S
C642 H636 0.950 . S
C642 C643 1.327 . S
C643 H637 0.950 . S
C643 C642 1.327 . S
C643 C647 1.429 . S
C644 C627 1.574 1_565 S
C644 H638 0.949 . S
C644 C648 1.368 . S
C645 C626 1.429 . S
C645 C639 1.429 . S
C645 C646 1.523 . S
C646 C627 1.368 . S
C646 C640 1.368 . S
C646 C645 1.523 . S
C647 C631 1.429 . S
C647 C643 1.429 . S
C647 C648 1.523 . S
C648 C632 1.368 . S
C648 C644 1.368 . S
C648 C647 1.523 . S
H649 C624 0.950 . S
H650 C626 0.950 . S
H651 C627 0.949 . S
H652 C629 0.950 . S
H653 C631 0.950 . S
C654 C655 1.349 . S
C654 C656 1.327 . S
C654 H679 0.950 . S
C655 C654 1.349 . S
C655 C671 1.349 . S
C656 C654 1.327 . S
C656 C675 1.429 . S
C656 H680 0.950 . S
C657 C674 1.574 1_655 S
C657 C676 1.368 . S
C657 H681 0.949 . S
H658 C662 0.949 . S
C659 C660 1.349 . S
C659 C661 1.327 . S
C659 H682 0.950 . S
C660 C659 1.349 . S
C660 C672 1.349 . S
C661 C659 1.327 . S
C661 C677 1.429 . S
C661 H683 0.950 . S
C662 H658 0.949 . S
C662 C670 1.574 1_455 S
C662 C678 1.368 . S
H663 C671 0.950 . S
H664 C669 0.950 . S
H665 C670 0.949 . S
H666 C672 0.950 . S
H667 C673 0.950 . S
H668 C674 0.949 . S
C669 H664 0.950 . S
C669 C671 1.327 . S
C669 C675 1.429 . S
C670 C662 1.574 1_655 S
C670 H665 0.949 . S
C670 C676 1.368 . S
C671 C655 1.349 . S
C671 H663 0.950 . S
C671 C669 1.327 . S
C672 C660 1.349 . S
C672 H666 0.950 . S
C672 C673 1.327 . S
C673 H667 0.950 . S
C673 C672 1.327 . S
C673 C677 1.429 . S
C674 C657 1.574 1_455 S
C674 H668 0.949 . S
C674 C678 1.368 . S
C675 C656 1.429 . S
C675 C669 1.429 . S
C675 C676 1.523 . S
C676 C657 1.368 . S
C676 C670 1.368 . S
C676 C675 1.523 . S
C677 C661 1.429 . S
C677 C673 1.429 . S
C677 C678 1.523 . S
C678 C662 1.368 . S
C678 C674 1.368 . S
C678 C677 1.523 . S
H679 C654 0.950 . S
H680 C656 0.950 . S
H681 C657 0.949 . S
H682 C659 0.950 . S
H683 C661 0.950 . S
C684 C685 1.349 . S
C684 C686 1.327 . S
C684 H709 0.950 . S
C685 C684 1.349 . S
C685 C701 1.349 . S
C686 C684 1.327 . S
C686 C705 1.429 . S
C686 H710 0.950 . S
C687 C704 1.574 . S
C687 C706 1.368 . S
C687 H711 0.949 . S
H688 C692 0.949 . S
C689 C690 1.349 . S
C689 C691 1.327 . S
C689 H712 0.950 . S
C690 C689 1.349 . S
C690 C702 1.349 . S
C691 C689 1.327 . S
C691 C707 1.429 . S
C691 H713 0.950 . S
C692 H688 0.949 . S
C692 C700 1.574 . S
C692 C708 1.368 . S
H693 C701 0.950 . S
H694 C699 0.950 . S
H695 C700 0.949 . S
H696 C702 0.950 . S
H697 C703 0.950 . S
H698 C704 0.949 . S
C699 H694 0.950 . S
C699 C701 1.327 . S
C699 C705 1.429 . S
C700 C692 1.574 . S
C700 H695 0.949 . S
C700 C706 1.368 . S
C701 C685 1.349 . S
C701 H693 0.950 . S
C701 C699 1.327 . S
C702 C690 1.349 . S
C702 H696 0.950 . S
C702 C703 1.327 . S
C703 H697 0.950 . S
C703 C702 1.327 . S
C703 C707 1.429 . S
C704 C687 1.574 . S
C704 H698 0.949 . S
C704 C708 1.368 . S
C705 C686 1.429 . S
C705 C699 1.429 . S
C705 C706 1.523 . S
C706 C687 1.368 . S
C706 C700 1.368 . S
C706 C705 1.523 . S
C707 C691 1.429 . S
C707 C703 1.429 . S
C707 C708 1.523 . S
C708 C692 1.368 . S
C708 C704 1.368 . S
C708 C707 1.523 . S
H709 C684 0.950 . S
H710 C686 0.950 . S
H711 C687 0.949 . S
H712 C689 0.950 . S
H713 C691 0.950 . S
C714 C715 1.349 . S
C714 C716 1.327 . S
C714 H739 0.950 . S
C715 C714 1.349 . S
C715 C731 1.349 . S
C716 C714 1.327 . S
C716 C735 1.429 . S
C716 H740 0.950 . S
C717 C734 1.574 1_545 S
C717 C736 1.368 . S
C717 H741 0.949 . S
H718 C722 0.949 . S
C719 C720 1.349 . S
C719 C721 1.327 . S
C719 H742 0.950 . S
C720 C719 1.349 . S
C720 C732 1.349 . S
C721 C719 1.327 . S
C721 C737 1.429 . S
C721 H743 0.950 . S
C722 H718 0.949 . S
C722 C730 1.574 1_565 S
C722 C738 1.368 . S
H723 C731 0.950 . S
H724 C729 0.950 . S
H725 C730 0.949 . S
H726 C732 0.950 . S
H727 C733 0.950 . S
H728 C734 0.949 . S
C729 H724 0.950 . S
C729 C731 1.327 . S
C729 C735 1.429 . S
C730 C722 1.574 1_545 S
C730 H725 0.949 . S
C730 C736 1.368 . S
C731 C715 1.349 . S
C731 H723 0.950 . S
C731 C729 1.327 . S
C732 C720 1.349 . S
C732 H726 0.950 . S
C732 C733 1.327 . S
C733 H727 0.950 . S
C733 C732 1.327 . S
C733 C737 1.429 . S
C734 C717 1.574 1_565 S
C734 H728 0.949 . S
C734 C738 1.368 . S
C735 C716 1.429 . S
C735 C729 1.429 . S
C735 C736 1.523 . S
C736 C717 1.368 . S
C736 C730 1.368 . S
C736 C735 1.523 . S
C737 C721 1.429 . S
C737 C733 1.429 . S
C737 C738 1.523 . S
C738 C722 1.368 . S
C738 C734 1.368 . S
C738 C737 1.523 . S
H739 C714 0.950 . S
H740 C716 0.950 . S
H741 C717 0.949 . S
H742 C719 0.950 . S
H743 C721 0.950 . S
C744 C745 1.349 . S
C744 C746 1.327 . S
C744 H769 0.950 . S
C745 C744 1.349 . S
C745 C761 1.349 . S
C746 C744 1.327 . S
C746 C765 1.429 . S
C746 H770 0.950 . S
C747 C764 1.574 1_655 S
C747 C766 1.368 . S
C747 H771 0.949 . S
H748 C752 0.949 . S
C749 C750 1.349 . S
C749 C751 1.327 . S
C749 H772 0.950 . S
C750 C749 1.349 . S
C750 C762 1.349 . S
C751 C749 1.327 . S
C751 C767 1.429 . S
C751 H773 0.950 . S
C752 H748 0.949 . S
C752 C760 1.574 1_455 S
C752 C768 1.368 . S
H753 C761 0.950 . S
H754 C759 0.950 . S
H755 C760 0.949 . S
H756 C762 0.950 . S
H757 C763 0.950 . S
H758 C764 0.949 . S
C759 H754 0.950 . S
C759 C761 1.327 . S
C759 C765 1.429 . S
C760 C752 1.574 1_655 S
C760 H755 0.949 . S
C760 C766 1.368 . S
C761 C745 1.349 . S
C761 H753 0.950 . S
C761 C759 1.327 . S
C762 C750 1.349 . S
C762 H756 0.950 . S
C762 C763 1.327 . S
C763 H757 0.950 . S
C763 C762 1.327 . S
C763 C767 1.429 . S
C764 C747 1.574 1_455 S
C764 H758 0.949 . S
C764 C768 1.368 . S
C765 C746 1.429 . S
C765 C759 1.429 . S
C765 C766 1.523 . S
C766 C747 1.368 . S
C766 C760 1.368 . S
C766 C765 1.523 . S
C767 C751 1.429 . S
C767 C763 1.429 . S
C767 C768 1.523 . S
C768 C752 1.368 . S
C768 C764 1.368 . S
C768 C767 1.523 . S
H769 C744 0.950 . S
H770 C746 0.950 . S
H771 C747 0.949 . S
H772 C749 0.950 . S
H773 C751 0.950 . S
C774 C775 1.349 . S
C774 C776 1.327 . S
C774 H799 0.950 . S
C775 C774 1.349 . S
C775 C791 1.349 . S
C776 C774 1.327 . S
C776 C795 1.429 . S
C776 H800 0.950 . S
C777 C794 1.574 . S
C777 C796 1.368 . S
C777 H801 0.949 . S
H778 C782 0.949 . S
C779 C780 1.349 . S
C779 C781 1.327 . S
C779 H802 0.950 . S
C780 C779 1.349 . S
C780 C792 1.349 . S
C781 C779 1.327 . S
C781 C797 1.429 . S
C781 H803 0.950 . S
C782 H778 0.949 . S
C782 C790 1.574 . S
C782 C798 1.368 . S
H783 C791 0.950 . S
H784 C789 0.950 . S
H785 C790 0.949 . S
H786 C792 0.950 . S
H787 C793 0.950 . S
H788 C794 0.949 . S
C789 H784 0.950 . S
C789 C791 1.327 . S
C789 C795 1.429 . S
C790 C782 1.574 . S
C790 H785 0.949 . S
C790 C796 1.368 . S
C791 C775 1.349 . S
C791 H783 0.950 . S
C791 C789 1.327 . S
C792 C780 1.349 . S
C792 H786 0.950 . S
C792 C793 1.327 . S
C793 H787 0.950 . S
C793 C792 1.327 . S
C793 C797 1.429 . S
C794 C777 1.574 . S
C794 H788 0.949 . S
C794 C798 1.368 . S
C795 C776 1.429 . S
C795 C789 1.429 . S
C795 C796 1.523 . S
C796 C777 1.368 . S
C796 C790 1.368 . S
C796 C795 1.523 . S
C797 C781 1.429 . S
C797 C793 1.429 . S
C797 C798 1.523 . S
C798 C782 1.368 . S
C798 C794 1.368 . S
C798 C797 1.523 . S
H799 C774 0.950 . S
H800 C776 0.950 . S
H801 C777 0.949 . S
H802 C779 0.950 . S
H803 C781 0.950 . S
C804 C805 1.349 . S
C804 C806 1.327 . S
C804 H829 0.950 . S
C805 C804 1.349 . S
C805 C821 1.349 . S
C806 C804 1.327 . S
C806 C825 1.429 . S
C806 H830 0.950 . S
C807 C824 1.574 . S
C807 C826 1.368 . S
C807 H831 0.949 . S
H808 C812 0.949 . S
C809 C810 1.349 . S
C809 C811 1.327 . S
C809 H832 0.950 . S
C810 C809 1.349 . S
C810 C822 1.349 . S
C811 C809 1.327 . S
C811 C827 1.429 . S
C811 H833 0.950 . S
C812 H808 0.949 . S
C812 C820 1.574 . S
C812 C828 1.368 . S
H813 C821 0.950 . S
H814 C819 0.950 . S
H815 C820 0.949 . S
H816 C822 0.950 . S
H817 C823 0.950 . S
H818 C824 0.949 . S
C819 H814 0.950 . S
C819 C821 1.327 . S
C819 C825 1.429 . S
C820 C812 1.574 . S
C820 H815 0.949 . S
C820 C826 1.368 . S
C821 C805 1.349 . S
C821 H813 0.950 . S
C821 C819 1.327 . S
C822 C810 1.349 . S
C822 H816 0.950 . S
C822 C823 1.327 . S
C823 H817 0.950 . S
C823 C822 1.327 . S
C823 C827 1.429 . S
C824 C807 1.574 . S
C824 H818 0.949 . S
C824 C828 1.368 . S
C825 C806 1.429 . S
C825 C819 1.429 . S
C825 C826 1.523 . S
C826 C807 1.368 . S
C826 C820 1.368 . S
C826 C825 1.523 . S
C827 C811 1.429 . S
C827 C823 1.429 . S
C827 C828 1.523 . S
C828 C812 1.368 . S
C828 C824 1.368 . S
C828 C827 1.523 . S
H829 C804 0.950 . S
H830 C806 0.950 . S
H831 C807 0.949 . S
H832 C809 0.950 . S
H833 C811 0.950 . S
C834 C835 1.349 . S
C834 C836 1.327 . S
C834 H859 0.950 . S
C835 C834 1.349 . S
C835 C851 1.349 . S
C836 C834 1.327 . S
C836 C855 1.429 . S
C836 H860 0.950 . S
C837 C854 1.574 . S
C837 C856 1.368 . S
C837 H861 0.949 . S
H838 C842 0.949 . S
C839 C840 1.349 . S
C839 C841 1.327 . S
C839 H862 0.950 . S
C840 C839 1.349 . S
C840 C852 1.349 . S
C841 C839 1.327 . S
C841 C857 1.429 . S
C841 H863 0.950 . S
C842 H838 0.949 . S
C842 C850 1.574 . S
C842 C858 1.368 . S
H843 C851 0.950 . S
H844 C849 0.950 . S
H845 C850 0.949 . S
H846 C852 0.950 . S
H847 C853 0.950 . S
H848 C854 0.949 . S
C849 H844 0.950 . S
C849 C851 1.327 . S
C849 C855 1.429 . S
C850 C842 1.574 . S
C850 H845 0.949 . S
C850 C856 1.368 . S
C851 C835 1.349 . S
C851 H843 0.950 . S
C851 C849 1.327 . S
C852 C840 1.349 . S
C852 H846 0.950 . S
C852 C853 1.327 . S
C853 H847 0.950 . S
C853 C852 1.327 . S
C853 C857 1.429 . S
C854 C837 1.574 . S
C854 H848 0.949 . S
C854 C858 1.368 . S
C855 C836 1.429 . S
C855 C849 1.429 . S
C855 C856 1.523 . S
C856 C837 1.368 . S
C856 C850 1.368 . S
C856 C855 1.523 . S
C857 C841 1.429 . S
C857 C853 1.429 . S
C857 C858 1.523 . S
C858 C842 1.368 . S
C858 C854 1.368 . S
C858 C857 1.523 . S
H859 C834 0.950 . S
H860 C836 0.950 . S
H861 C837 0.949 . S
H862 C839 0.950 . S
H863 C841 0.950 . S
C864 C865 1.349 . S
C864 C866 1.327 . S
C864 H889 0.950 . S
C865 C864 1.349 . S
C865 C881 1.349 . S
C866 C864 1.327 . S
C866 C885 1.429 . S
C866 H890 0.950 . S
C867 C884 1.574 . S
C867 C886 1.368 . S
C867 H891 0.949 . S
H868 C872 0.949 . S
C869 C870 1.349 . S
C869 C871 1.327 . S
C869 H892 0.950 . S
C870 C869 1.349 . S
C870 C882 1.349 . S
C871 C869 1.327 . S
C871 C887 1.429 . S
C871 H893 0.950 . S
C872 H868 0.949 . S
C872 C880 1.574 . S
C872 C888 1.368 . S
H873 C881 0.950 . S
H874 C879 0.950 . S
H875 C880 0.949 . S
H876 C882 0.950 . S
H877 C883 0.950 . S
H878 C884 0.949 . S
C879 H874 0.950 . S
C879 C881 1.327 . S
C879 C885 1.429 . S
C880 C872 1.574 . S
C880 H875 0.949 . S
C880 C886 1.368 . S
C881 C865 1.349 . S
C881 H873 0.950 . S
C881 C879 1.327 . S
C882 C870 1.349 . S
C882 H876 0.950 . S
C882 C883 1.327 . S
C883 H877 0.950 . S
C883 C882 1.327 . S
C883 C887 1.429 . S
C884 C867 1.574 . S
C884 H878 0.949 . S
C884 C888 1.368 . S
C885 C866 1.429 . S
C885 C879 1.429 . S
C885 C886 1.523 . S
C886 C867 1.368 . S
C886 C880 1.368 . S
C886 C885 1.523 . S
C887 C871 1.429 . S
C887 C883 1.429 . S
C887 C888 1.523 . S
C888 C872 1.368 . S
C888 C884 1.368 . S
C888 C887 1.523 . S
H889 C864 0.950 . S
H890 C866 0.950 . S
H891 C867 0.949 . S
H892 C869 0.950 . S
H893 C871 0.950 . S
C894 C895 1.349 . S
C894 C896 1.327 . S
C894 H919 0.950 . S
C895 C894 1.349 . S
C895 C911 1.349 . S
C896 C894 1.327 . S
C896 C915 1.429 . S
C896 H920 0.950 . S
C897 C914 1.574 . S
C897 C916 1.368 . S
C897 H921 0.949 . S
H898 C902 0.949 . S
C899 C900 1.349 . S
C899 C901 1.327 . S
C899 H922 0.950 . S
C900 C899 1.349 . S
C900 C912 1.349 . S
C901 C899 1.327 . S
C901 C917 1.429 . S
C901 H923 0.950 . S
C902 H898 0.949 . S
C902 C910 1.574 . S
C902 C918 1.368 . S
H903 C911 0.950 . S
H904 C909 0.950 . S
H905 C910 0.949 . S
H906 C912 0.950 . S
H907 C913 0.950 . S
H908 C914 0.949 . S
C909 H904 0.950 . S
C909 C911 1.327 . S
C909 C915 1.429 . S
C910 C902 1.574 . S
C910 H905 0.949 . S
C910 C916 1.368 . S
C911 C895 1.349 . S
C911 H903 0.950 . S
C911 C909 1.327 . S
C912 C900 1.349 . S
C912 H906 0.950 . S
C912 C913 1.327 . S
C913 H907 0.950 . S
C913 C912 1.327 . S
C913 C917 1.429 . S
C914 C897 1.574 . S
C914 H908 0.949 . S
C914 C918 1.368 . S
C915 C896 1.429 . S
C915 C909 1.429 . S
C915 C916 1.523 . S
C916 C897 1.368 . S
C916 C910 1.368 . S
C916 C915 1.523 . S
C917 C901 1.429 . S
C917 C913 1.429 . S
C917 C918 1.523 . S
C918 C902 1.368 . S
C918 C914 1.368 . S
C918 C917 1.523 . S
H919 C894 0.950 . S
H920 C896 0.950 . S
H921 C897 0.949 . S
H922 C899 0.950 . S
H923 C901 0.950 . S
C924 C925 1.349 . S
C924 C926 1.327 . S
C924 H949 0.950 . S
C925 C924 1.349 . S
C925 C941 1.349 . S
C926 C924 1.327 . S
C926 C945 1.429 . S
C926 H950 0.950 . S
C927 C944 1.574 . S
C927 C946 1.368 . S
C927 H951 0.949 . S
H928 C932 0.949 . S
C929 C930 1.349 . S
C929 C931 1.327 . S
C929 H952 0.950 . S
C930 C929 1.349 . S
C930 C942 1.349 . S
C931 C929 1.327 . S
C931 C947 1.429 . S
C931 H953 0.950 . S
C932 H928 0.949 . S
C932 C940 1.574 . S
C932 C948 1.368 . S
H933 C941 0.950 . S
H934 C939 0.950 . S
H935 C940 0.949 . S
H936 C942 0.950 . S
H937 C943 0.950 . S
H938 C944 0.949 . S
C939 H934 0.950 . S
C939 C941 1.327 . S
C939 C945 1.429 . S
C940 C932 1.574 . S
C940 H935 0.949 . S
C940 C946 1.368 . S
C941 C925 1.349 . S
C941 H933 0.950 . S
C941 C939 1.327 . S
C942 C930 1.349 . S
C942 H936 0.950 . S
C942 C943 1.327 . S
C943 H937 0.950 . S
C943 C942 1.327 . S
C943 C947 1.429 . S
C944 C927 1.574 . S
C944 H938 0.949 . S
C944 C948 1.368 . S
C945 C926 1.429 . S
C945 C939 1.429 . S
C945 C946 1.523 . S
C946 C927 1.368 . S
C946 C940 1.368 . S
C946 C945 1.523 . S
C947 C931 1.429 . S
C947 C943 1.429 . S
C947 C948 1.523 . S
C948 C932 1.368 . S
C948 C944 1.368 . S
C948 C947 1.523 . S
H949 C924 0.950 . S
H950 C926 0.950 . S
H951 C927 0.949 . S
H952 C929 0.950 . S
H953 C931 0.950 . S
C954 C955 1.349 . S
C954 C956 1.327 . S
C954 H979 0.950 . S
C955 C954 1.349 . S
C955 C971 1.349 . S
C956 C954 1.327 . S
C956 C975 1.429 . S
C956 H980 0.950 . S
C957 C974 1.574 . S
C957 C976 1.368 . S
C957 H981 0.949 . S
H958 C962 0.949 . S
C959 C960 1.349 . S
C959 C961 1.327 . S
C959 H982 0.950 . S
C960 C959 1.349 . S
C960 C972 1.349 . S
C961 C959 1.327 . S
C961 C977 1.429 . S
C961 H983 0.950 . S
C962 H958 0.949 . S
C962 C970 1.574 . S
C962 C978 1.368 . S
H963 C971 0.950 . S
H964 C969 0.950 . S
H965 C970 0.949 . S
H966 C972 0.950 . S
H967 C973 0.950 . S
H968 C974 0.949 . S
C969 H964 0.950 . S
C969 C971 1.327 . S
C969 C975 1.429 . S
C970 C962 1.574 . S
C970 H965 0.949 . S
C970 C976 1.368 . S
C971 C955 1.349 . S
C971 H963 0.950 . S
C971 C969 1.327 . S
C972 C960 1.349 . S
C972 H966 0.950 . S
C972 C973 1.327 . S
C973 H967 0.950 . S
C973 C972 1.327 . S
C973 C977 1.429 . S
C974 C957 1.574 . S
C974 H968 0.949 . S
C974 C978 1.368 . S
C975 C956 1.429 . S
C975 C969 1.429 . S
C975 C976 1.523 . S
C976 C957 1.368 . S
C976 C970 1.368 . S
C976 C975 1.523 . S
C977 C961 1.429 . S
C977 C973 1.429 . S
C977 C978 1.523 . S
C978 C962 1.368 . S
C978 C974 1.368 . S
C978 C977 1.523 . S
H979 C954 0.950 . S
H980 C956 0.950 . S
H981 C957 0.949 . S
H982 C959 0.950 . S
H983 C961 0.950 . S
C984 C985 1.349 . S
C984 C986 1.327 . S
C984 H1009 0.950 . S
C985 C984 1.349 . S
C985 C1001 1.349 . S
C986 C984 1.327 . S
C986 C1005 1.429 . S
C986 H1010 0.950 . S
C987 C1004 1.574 . S
C987 C1006 1.368 . S
C987 H1011 0.949 . S
H988 C992 0.949 . S
C989 C990 1.349 . S
C989 C991 1.327 . S
C989 H1012 0.950 . S
C990 C989 1.349 . S
C990 C1002 1.349 . S
C991 C989 1.327 . S
C991 C1007 1.429 . S
C991 H1013 0.950 . S
C992 H988 0.949 . S
C992 C1000 1.574 . S
C992 C1008 1.368 . S
H993 C1001 0.950 . S
H994 C999 0.950 . S
H995 C1000 0.949 . S
H996 C1002 0.950 . S
H997 C1003 0.950 . S
H998 C1004 0.949 . S
C999 H994 0.950 . S
C999 C1001 1.327 . S
C999 C1005 1.429 . S
C1000 C992 1.574 . S
C1000 H995 0.949 . S
C1000 C1006 1.368 . S
C1001 C985 1.349 . S
C1001 H993 0.950 . S
C1001 C999 1.327 . S
C1002 C990 1.349 . S
C1002 H996 0.950 . S
C1002 C1003 1.327 . S
C1003 H997 0.950 . S
C1003 C1002 1.327 . S
C1003 C1007 1.429 . S
C1004 C987 1.574 . S
C1004 H998 0.949 . S
C1004 C1008 1.368 . S
C1005 C986 1.429 . S
C1005 C999 1.429 . S
C1005 C1006 1.523 . S
C1006 C987 1.368 . S
C1006 C1000 1.368 . S
C1006 C1005 1.523 . S
C1007 C991 1.429 . S
C1007 C1003 1.429 . S
C1007 C1008 1.523 . S
C1008 C992 1.368 . S
C1008 C1004 1.368 . S
C1008 C1007 1.523 . S
H1009 C984 0.950 . S
H1010 C986 0.950 . S
H1011 C987 0.949 . S
H1012 C989 0.950 . S
H1013 C991 0.950 . S
C1014 C1015 1.349 . S
C1014 C1016 1.327 . S
C1014 H1039 0.950 . S
C1015 C1014 1.349 . S
C1015 C1031 1.349 . S
C1016 C1014 1.327 . S
C1016 C1035 1.429 . S
C1016 H1040 0.950 . S
C1017 C1034 1.574 . S
C1017 C1036 1.368 . S
C1017 H1041 0.949 . S
H1018 C1022 0.949 . S
C1019 C1020 1.349 . S
C1019 C1021 1.327 . S
C1019 H1042 0.950 . S
C1020 C1019 1.349 . S
C1020 C1032 1.349 . S
C1021 C1019 1.327 . S
C1021 C1037 1.429 . S
C1021 H1043 0.950 . S
C1022 H1018 0.949 . S
C1022 C1030 1.574 . S
C1022 C1038 1.368 . S
H1023 C1031 0.950 . S
H1024 C1029 0.950 . S
H1025 C1030 0.949 . S
H1026 C1032 0.950 . S
H1027 C1033 0.950 . S
H1028 C1034 0.949 . S
C1029 H1024 0.950 . S
C1029 C1031 1.327 . S
C1029 C1035 1.429 . S
C1030 C1022 1.574 . S
C1030 H1025 0.949 . S
C1030 C1036 1.368 . S
C1031 C1015 1.349 . S
C1031 H1023 0.950 . S
C1031 C1029 1.327 . S
C1032 C1020 1.349 . S
C1032 H1026 0.950 . S
C1032 C1033 1.327 . S
C1033 H1027 0.950 . S
C1033 C1032 1.327 . S
C1033 C1037 1.429 . S
C1034 C1017 1.574 . S
C1034 H1028 0.949 . S
C1034 C1038 1.368 . S
C1035 C1016 1.429 . S
C1035 C1029 1.429 . S
C1035 C1036 1.523 . S
C1036 C1017 1.368 . S
C1036 C1030 1.368 . S
C1036 C1035 1.523 . S
C1037 C1021 1.429 . S
C1037 C1033 1.429 . S
C1037 C1038 1.523 . S
C1038 C1022 1.368 . S
C1038 C1034 1.368 . S
C1038 C1037 1.523 . S
H1039 C1014 0.950 . S
H1040 C1016 0.950 . S
H1041 C1017 0.949 . S
H1042 C1019 0.950 . S
H1043 C1021 0.950 . S
C1044 C1045 1.349 . S
C1044 C1046 1.327 . S
C1044 H1069 0.950 . S
C1045 C1044 1.349 . S
C1045 C1061 1.349 . S
C1046 C1044 1.327 . S
C1046 C1065 1.429 . S
C1046 H1070 0.950 . S
C1047 C1064 1.574 . S
C1047 C1066 1.368 . S
C1047 H1071 0.949 . S
H1048 C1052 0.949 . S
C1049 C1050 1.349 . S
C1049 C1051 1.327 . S
C1049 H1072 0.950 . S
C1050 C1049 1.349 . S
C1050 C1062 1.349 . S
C1051 C1049 1.327 . S
C1051 C1067 1.429 . S
C1051 H1073 0.950 . S
C1052 H1048 0.949 . S
C1052 C1060 1.574 . S
C1052 C1068 1.368 . S
H1053 C1061 0.950 . S
H1054 C1059 0.950 . S
H1055 C1060 0.949 . S
H1056 C1062 0.950 . S
H1057 C1063 0.950 . S
H1058 C1064 0.949 . S
C1059 H1054 0.950 . S
C1059 C1061 1.327 . S
C1059 C1065 1.429 . S
C1060 C1052 1.574 . S
C1060 H1055 0.949 . S
C1060 C1066 1.368 . S
C1061 C1045 1.349 . S
C1061 H1053 0.950 . S
C1061 C1059 1.327 . S
C1062 C1050 1.349 . S
C1062 H1056 0.950 . S
C1062 C1063 1.327 . S
C1063 H1057 0.950 . S
C1063 C1062 1.327 . S
C1063 C1067 1.429 . S
C1064 C1047 1.574 . S
C1064 H1058 0.949 . S
C1064 C1068 1.368 . S
C1065 C1046 1.429 . S
C1065 C1059 1.429 . S
C1065 C1066 1.523 . S
C1066 C1047 1.368 . S
C1066 C1060 1.368 . S
C1066 C1065 1.523 . S
C1067 C1051 1.429 . S
C1067 C1063 1.429 . S
C1067 C1068 1.523 . S
C1068 C1052 1.368 . S
C1068 C1064 1.368 . S
C1068 C1067 1.523 . S
H1069 C1044 0.950 . S
H1070 C1046 0.950 . S
H1071 C1047 0.949 . S
H1072 C1049 0.950 . S
H1073 C1051 0.950 . S
C1074 C1075 1.349 . S
C1074 C1076 1.327 . S
C1074 H1099 0.950 . S
C1075 C1074 1.349 . S
C1075 C1091 1.349 . S
C1076 C1074 1.327 . S
C1076 C1095 1.429 . S
C1076 H1100 0.950 . S
C1077 C1094 1.574 . S
C1077 C1096 1.368 . S
C1077 H1101 0.949 . S
H1078 C1082 0.949 . S
C1079 C1080 1.349 . S
C1079 C1081 1.327 . S
C1079 H1102 0.950 . S
C1080 C1079 1.349 . S
C1080 C1092 1.349 . S
C1081 C1079 1.327 . S
C1081 C1097 1.429 . S
C1081 H1103 0.950 . S
C1082 H1078 0.949 . S
C1082 C1090 1.574 . S
C1082 C1098 1.368 . S
H1083 C1091 0.950 . S
H1084 C1089 0.950 . S
H1085 C1090 0.949 . S
H1086 C1092 0.950 . S
H1087 C1093 0.950 . S
H1088 C1094 0.949 . S
C1089 H1084 0.950 . S
C1089 C1091 1.327 . S
C1089 C1095 1.429 . S
C1090 C1082 1.574 . S
C1090 H1085 0.949 . S
C1090 C1096 1.368 . S
C1091 C1075 1.349 . S
C1091 H1083 0.950 . S
C1091 C1089 1.327 . S
C1092 C1080 1.349 . S
C1092 H1086 0.950 . S
C1092 C1093 1.327 . S
C1093 H1087 0.950 . S
C1093 C1092 1.327 . S
C1093 C1097 1.429 . S
C1094 C1077 1.574 . S
C1094 H1088 0.949 . S
C1094 C1098 1.368 . S
C1095 C1076 1.429 . S
C1095 C1089 1.429 . S
C1095 C1096 1.523 . S
C1096 C1077 1.368 . S
C1096 C1090 1.368 . S
C1096 C1095 1.523 . S
C1097 C1081 1.429 . S
C1097 C1093 1.429 . S
C1097 C1098 1.523 . S
C1098 C1082 1.368 . S
C1098 C1094 1.368 . S
C1098 C1097 1.523 . S
H1099 C1074 0.950 . S
H1100 C1076 0.950 . S
H1101 C1077 0.949 . S
H1102 C1079 0.950 . S
H1103 C1081 0.950 . S
C1104 C1105 1.349 . S
C1104 C1106 1.327 . S
C1104 H1129 0.950 . S
C1105 C1104 1.349 . S
C1105 C1121 1.349 . S
C1106 C1104 1.327 . S
C1106 C1125 1.429 . S
C1106 H1130 0.950 . S
C1107 C1124 1.574 . S
C1107 C1126 1.368 . S
C1107 H1131 0.949 . S
H1108 C1112 0.949 . S
C1109 C1110 1.349 . S
C1109 C1111 1.327 . S
C1109 H1132 0.950 . S
C1110 C1109 1.349 . S
C1110 C1122 1.349 . S
C1111 C1109 1.327 . S
C1111 C1127 1.429 . S
C1111 H1133 0.950 . S
C1112 H1108 0.949 . S
C1112 C1120 1.574 . S
C1112 C1128 1.368 . S
H1113 C1121 0.950 . S
H1114 C1119 0.950 . S
H1115 C1120 0.949 . S
H1116 C1122 0.950 . S
H1117 C1123 0.950 . S
H1118 C1124 0.949 . S
C1119 H1114 0.950 . S
C1119 C1121 1.327 . S
C1119 C1125 1.429 . S
C1120 C1112 1.574 . S
C1120 H1115 0.949 . S
C1120 C1126 1.368 . S
C1121 C1105 1.349 . S
C1121 H1113 0.950 . S
C1121 C1119 1.327 . S
C1122 C1110 1.349 . S
C1122 H1116 0.950 . S
C1122 C1123 1.327 . S
C1123 H1117 0.950 . S
C1123 C1122 1.327 . S
C1123 C1127 1.429 . S
C1124 C1107 1.574 . S
C1124 H1118 0.949 . S
C1124 C1128 1.368 . S
C1125 C1106 1.429 . S
C1125 C1119 1.429 . S
C1125 C1126 1.523 . S
C1126 C1107 1.368 . S
C1126 C1120 1.368 . S
C1126 C1125 1.523 . S
C1127 C1111 1.429 . S
C1127 C1123 1.429 . S
C1127 C1128 1.523 . S
C1128 C1112 1.368 . S
C1128 C1124 1.368 . S
C1128 C1127 1.523 . S
H1129 C1104 0.950 . S
H1130 C1106 0.950 . S
H1131 C1107 0.949 . S
H1132 C1109 0.950 . S
H1133 C1111 0.950 . S
C1134 C1135 1.349 . S
C1134 C1136 1.327 . S
C1134 H1159 0.950 . S
C1135 C1134 1.349 . S
C1135 C1151 1.349 . S
C1136 C1134 1.327 . S
C1136 C1155 1.429 . S
C1136 H1160 0.950 . S
C1137 C1154 1.574 . S
C1137 C1156 1.368 . S
C1137 H1161 0.949 . S
H1138 C1142 0.949 . S
C1139 C1140 1.349 . S
C1139 C1141 1.327 . S
C1139 H1162 0.950 . S
C1140 C1139 1.349 . S
C1140 C1152 1.349 . S
C1141 C1139 1.327 . S
C1141 C1157 1.429 . S
C1141 H1163 0.950 . S
C1142 H1138 0.949 . S
C1142 C1150 1.574 . S
C1142 C1158 1.368 . S
H1143 C1151 0.950 . S
H1144 C1149 0.950 . S
H1145 C1150 0.949 . S
H1146 C1152 0.950 . S
H1147 C1153 0.950 . S
H1148 C1154 0.949 . S
C1149 H1144 0.950 . S
C1149 C1151 1.327 . S
C1149 C1155 1.429 . S
C1150 C1142 1.574 . S
C1150 H1145 0.949 . S
C1150 C1156 1.368 . S
C1151 C1135 1.349 . S
C1151 H1143 0.950 . S
C1151 C1149 1.327 . S
C1152 C1140 1.349 . S
C1152 H1146 0.950 . S
C1152 C1153 1.327 . S
C1153 H1147 0.950 . S
C1153 C1152 1.327 . S
C1153 C1157 1.429 . S
C1154 C1137 1.574 . S
C1154 H1148 0.949 . S
C1154 C1158 1.368 . S
C1155 C1136 1.429 . S
C1155 C1149 1.429 . S
C1155 C1156 1.523 . S
C1156 C1137 1.368 . S
C1156 C1150 1.368 . S
C1156 C1155 1.523 . S
C1157 C1141 1.429 . S
C1157 C1153 1.429 . S
C1157 C1158 1.523 . S
C1158 C1142 1.368 . S
C1158 C1154 1.368 . S
C1158 C1157 1.523 . S
H1159 C1134 0.950 . S
H1160 C1136 0.950 . S
H1161 C1137 0.949 . S
H1162 C1139 0.950 . S
H1163 C1141 0.950 . S
C1164 C1165 1.349 . S
C1164 C1166 1.327 . S
C1164 H1189 0.950 . S
C1165 C1164 1.349 . S
C1165 C1181 1.349 . S
C1166 C1164 1.327 . S
C1166 C1185 1.429 . S
C1166 H1190 0.950 . S
C1167 C1184 1.574 . S
C1167 C1186 1.368 . S
C1167 H1191 0.949 . S
H1168 C1172 0.949 . S
C1169 C1170 1.349 . S
C1169 C1171 1.327 . S
C1169 H1192 0.950 . S
C1170 C1169 1.349 . S
C1170 C1182 1.349 . S
C1171 C1169 1.327 . S
C1171 C1187 1.429 . S
C1171 H1193 0.950 . S
C1172 H1168 0.949 . S
C1172 C1180 1.574 . S
C1172 C1188 1.368 . S
H1173 C1181 0.950 . S
H1174 C1179 0.950 . S
H1175 C1180 0.949 . S
H1176 C1182 0.950 . S
H1177 C1183 0.950 . S
H1178 C1184 0.949 . S
C1179 H1174 0.950 . S
C1179 C1181 1.327 . S
C1179 C1185 1.429 . S
C1180 C1172 1.574 . S
C1180 H1175 0.949 . S
C1180 C1186 1.368 . S
C1181 C1165 1.349 . S
C1181 H1173 0.950 . S
C1181 C1179 1.327 . S
C1182 C1170 1.349 . S
C1182 H1176 0.950 . S
C1182 C1183 1.327 . S
C1183 H1177 0.950 . S
C1183 C1182 1.327 . S
C1183 C1187 1.429 . S
C1184 C1167 1.574 . S
C1184 H1178 0.949 . S
C1184 C1188 1.368 . S
C1185 C1166 1.429 . S
C1185 C1179 1.429 . S
C1185 C1186 1.523 . S
C1186 C1167 1.368 . S
C1186 C1180 1.368 . S
C1186 C1185 1.523 . S
C1187 C1171 1.429 . S
C1187 C1183 1.429 . S
C1187 C1188 1.523 . S
C1188 C1172 1.368 . S
C1188 C1184 1.368 . S
C1188 C1187 1.523 . S
H1189 C1164 0.950 . S
H1190 C1166 0.950 . S
H1191 C1167 0.949 . S
H1192 C1169 0.950 . S
H1193 C1171 0.950 . S
C1194 C1195 1.349 . S
C1194 C1196 1.327 . S
C1194 H1219 0.950 . S
C1195 C1194 1.349 . S
C1195 C1211 1.349 . S
C1196 C1194 1.327 . S
C1196 C1215 1.429 . S
C1196 H1220 0.950 . S
C1197 C1214 1.574 . S
C1197 C1216 1.368 . S
C1197 H1221 0.949 . S
H1198 C1202 0.949 . S
C1199 C1200 1.349 . S
C1199 C1201 1.327 . S
C1199 H1222 0.950 . S
C1200 C1199 1.349 . S
C1200 C1212 1.349 . S
C1201 C1199 1.327 . S
C1201 C1217 1.429 . S
C1201 H1223 0.950 . S
C1202 H1198 0.949 . S
C1202 C1210 1.574 . S
C1202 C1218 1.368 . S
H1203 C1211 0.950 . S
H1204 C1209 0.950 . S
H1205 C1210 0.949 . S
H1206 C1212 0.950 . S
H1207 C1213 0.950 . S
H1208 C1214 0.949 . S
C1209 H1204 0.950 . S
C1209 C1211 1.327 . S
C1209 C1215 1.429 . S
C1210 C1202 1.574 . S
C1210 H1205 0.949 . S
C1210 C1216 1.368 . S
C1211 C1195 1.349 . S
C1211 H1203 0.950 . S
C1211 C1209 1.327 . S
C1212 C1200 1.349 . S
C1212 H1206 0.950 . S
C1212 C1213 1.327 . S
C1213 H1207 0.950 . S
C1213 C1212 1.327 . S
C1213 C1217 1.429 . S
C1214 C1197 1.574 . S
C1214 H1208 0.949 . S
C1214 C1218 1.368 . S
C1215 C1196 1.429 . S
C1215 C1209 1.429 . S
C1215 C1216 1.523 . S
C1216 C1197 1.368 . S
C1216 C1210 1.368 . S
C1216 C1215 1.523 . S
C1217 C1201 1.429 . S
C1217 C1213 1.429 . S
C1217 C1218 1.523 . S
C1218 C1202 1.368 . S
C1218 C1214 1.368 . S
C1218 C1217 1.523 . S
H1219 C1194 0.950 . S
H1220 C1196 0.950 . S
H1221 C1197 0.949 . S
H1222 C1199 0.950 . S
H1223 C1201 0.950 . S
C1224 C1225 1.349 . S
C1224 C1226 1.327 . S
C1224 H1249 0.950 . S
C1225 C1224 1.349 . S
C1225 C1241 1.349 . S
C1226 C1224 1.327 . S
C1226 C1245 1.429 . S
C1226 H1250 0.950 . S
C1227 C1244 1.574 . S
C1227 C1246 1.368 . S
C1227 H1251 0.949 . S
H1228 C1232 0.949 . S
C1229 C1230 1.349 . S
C1229 C1231 1.327 . S
C1229 H1252 0.950 . S
C1230 C1229 1.349 . S
C1230 C1242 1.349 . S
C1231 C1229 1.327 . S
C1231 C1247 1.429 . S
C1231 H1253 0.950 . S
C1232 H1228 0.949 . S
C1232 C1240 1.574 . S
C1232 C1248 1.368 . S
H1233 C1241 0.950 . S
H1234 C1239 0.950 . S
H1235 C1240 0.949 . S
H1236 C1242 0.950 . S
H1237 C1243 0.950 . S
H1238 C1244 0.949 . S
C1239 H1234 0.950 . S
C1239 C1241 1.327 . S
C1239 C1245 1.429 . S
C1240 C1232 1.574 . S
C1240 H1235 0.949 . S
C1240 C1246 1.368 . S
C1241 C1225 1.349 . S
C1241 H1233 0.950 . S
C1241 C1239 1.327 . S
C1242 C1230 1.349 . S
C1242 H1236 0.950 . S
C1242 C1243 1.327 . S
C1243 H1237 0.950 . S
C1243 C1242 1.327 . S
C1243 C1247 1.429 . S
C1244 C1227 1.574 . S
C1244 H1238 0.949 . S
C1244 C1248 1.368 . S
C1245 C1226 1.429 . S
C1245 C1239 1.429 . S
C1245 C1246 1.523 . S
C1246 C1227 1.368 . S
C1246 C1240 1.368 . S
C1246 C1245 1.523 . S
C1247 C1231 1.429 . S
C1247 C1243 1.429 . S
C1247 C1248 1.523 . S
C1248 C1232 1.368 . S
C1248 C1244 1.368 . S
C1248 C1247 1.523 . S
H1249 C1224 0.950 . S
H1250 C1226 0.950 . S
H1251 C1227 0.949 . S
H1252 C1229 0.950 . S
H1253 C1231 0.950 . S
C1254 C1255 1.349 . S
C1254 C1256 1.327 . S
C1254 H1279 0.950 . S
C1255 C1254 1.349 . S
C1255 C1271 1.349 . S
C1256 C1254 1.327 . S
C1256 C1275 1.429 . S
C1256 H1280 0.950 . S
C1257 C1274 1.574 . S
C1257 C1276 1.368 . S
C1257 H1281 0.949 . S
H1258 C1262 0.949 . S
C1259 C1260 1.349 . S
C1259 C1261 1.327 . S
C1259 H1282 0.950 . S
C1260 C1259 1.349 . S
C1260 C1272 1.349 . S
C1261 C1259 1.327 . S
C1261 C1277 1.429 . S
C1261 H1283 0.950 . S
C1262 H1258 0.949 . S
C1262 C1270 1.574 . S
C1262 C1278 1.368 . S
H1263 C1271 0.950 . S
H1264 C1269 0.950 . S
H1265 C1270 0.949 . S
H1266 C1272 0.950 . S
H1267 C1273 0.950 . S
H1268 C1274 0.949 . S
C1269 H1264 0.950 . S
C1269 C1271 1.327 . S
C1269 C1275 1.429 . S
C1270 C1262 1.574 . S
C1270 H1265 0.949 . S
C1270 C1276 1.368 . S
C1271 C1255 1.349 . S
C1271 H1263 0.950 . S
C1271 C1269 1.327 . S
C1272 C1260 1.349 . S
C1272 H1266 0.950 . S
C1272 C1273 1.327 . S
C1273 H1267 0.950 . S
C1273 C1272 1.327 . S
C1273 C1277 1.429 . S
C1274 C1257 1.574 . S
C1274 H1268 0.949 . S
C1274 C1278 1.368 . S
C1275 C1256 1.429 . S
C1275 C1269 1.429 . S
C1275 C1276 1.523 . S
C1276 C1257 1.368 . S
C1276 C1270 1.368 . S
C1276 C1275 1.523 . S
C1277 C1261 1.429 . S
C1277 C1273 1.429 . S
C1277 C1278 1.523 . S
C1278 C1262 1.368 . S
C1278 C1274 1.368 . S
C1278 C1277 1.523 . S
H1279 C1254 0.950 . S
H1280 C1256 0.950 . S
H1281 C1257 0.949 . S
H1282 C1259 0.950 . S
H1283 C1261 0.950 . S
C1284 C1285 1.349 . S
C1284 C1286 1.327 . S
C1284 H1309 0.950 . S
C1285 C1284 1.349 . S
C1285 C1301 1.349 . S
C1286 C1284 1.327 . S
C1286 C1305 1.429 . S
C1286 H1310 0.950 . S
C1287 C1304 1.574 . S
C1287 C1306 1.368 . S
C1287 H1311 0.949 . S
H1288 C1292 0.949 . S
C1289 C1290 1.349 . S
C1289 C1291 1.327 . S
C1289 H1312 0.950 . S
C1290 C1289 1.349 . S
C1290 C1302 1.349 . S
C1291 C1289 1.327 . S
C1291 C1307 1.429 . S
C1291 H1313 0.950 . S
C1292 H1288 0.949 . S
C1292 C1300 1.574 . S
C1292 C1308 1.368 . S
H1293 C1301 0.950 . S
H1294 C1299 0.950 . S
H1295 C1300 0.949 . S
H1296 C1302 0.950 . S
H1297 C1303 0.950 . S
H1298 C1304 0.949 . S
C1299 H1294 0.950 . S
C1299 C1301 1.327 . S
C1299 C1305 1.429 . S
C1300 C1292 1.574 . S
C1300 H1295 0.949 . S
C1300 C1306 1.368 . S
C1301 C1285 1.349 . S
C1301 H1293 0.950 . S
C1301 C1299 1.327 . S
C1302 C1290 1.349 . S
C1302 H1296 0.950 . S
C1302 C1303 1.327 . S
C1303 H1297 0.950 . S
C1303 C1302 1.327 . S
C1303 C1307 1.429 . S
C1304 C1287 1.574 . S
C1304 H1298 0.949 . S
C1304 C1308 1.368 . S
C1305 C1286 1.429 . S
C1305 C1299 1.429 . S
C1305 C1306 1.523 . S
C1306 C1287 1.368 . S
C1306 C1300 1.368 . S
C1306 C1305 1.523 . S
C1307 C1291 1.429 . S
C1307 C1303 1.429 . S
C1307 C1308 1.523 . S
C1308 C1292 1.368 . S
C1308 C1304 1.368 . S
C1308 C1307 1.523 . S
H1309 C1284 0.950 . S
H1310 C1286 0.950 . S
H1311 C1287 0.949 . S
H1312 C1289 0.950 . S
H1313 C1291 0.950 . S
C1314 C1315 1.349 . S
C1314 C1316 1.327 . S
C1314 H1339 0.950 . S
C1315 C1314 1.349 . S
C1315 C1331 1.349 . S
C1316 C1314 1.327 . S
C1316 C1335 1.429 . S
C1316 H1340 0.950 . S
C1317 C1334 1.574 1_455 S
C1317 C1336 1.368 1_556 S
C1317 H1341 0.949 . S
H1318 C1322 0.949 . S
C1319 C1320 1.349 . S
C1319 C1321 1.327 . S
C1319 H1342 0.950 . S
C1320 C1319 1.349 . S
C1320 C1332 1.349 . S
C1321 C1319 1.327 . S
C1321 C1337 1.429 . S
C1321 H1343 0.950 . S
C1322 H1318 0.949 . S
C1322 C1330 1.574 1_655 S
C1322 C1338 1.368 1_554 S
H1323 C1331 0.950 1_556 S
H1324 C1329 0.950 . S
H1325 C1330 0.949 . S
H1326 C1332 0.950 1_554 S
H1327 C1333 0.950 . S
H1328 C1334 0.949 . S
C1329 H1324 0.950 . S
C1329 C1331 1.327 1_556 S
C1329 C1335 1.429 1_556 S
C1330 C1322 1.574 1_455 S
C1330 H1325 0.949 . S
C1330 C1336 1.368 . S
C1331 C1315 1.349 . S
C1331 H1323 0.950 1_554 S
C1331 C1329 1.327 1_554 S
C1332 C1320 1.349 . S
C1332 H1326 0.950 1_556 S
C1332 C1333 1.327 1_556 S
C1333 H1327 0.950 . S
C1333 C1332 1.327 1_554 S
C1333 C1337 1.429 1_554 S
C1334 C1317 1.574 1_655 S
C1334 H1328 0.949 . S
C1334 C1338 1.368 . S
C1335 C1316 1.429 . S
C1335 C1329 1.429 1_554 S
C1335 C1336 1.523 . S
C1336 C1317 1.368 1_554 S
C1336 C1330 1.368 . S
C1336 C1335 1.523 . S
C1337 C1321 1.429 . S
C1337 C1333 1.429 1_556 S
C1337 C1338 1.523 . S
C1338 C1322 1.368 1_556 S
C1338 C1334 1.368 . S
C1338 C1337 1.523 . S
H1339 C1314 0.950 . S
H1340 C1316 0.950 . S
H1341 C1317 0.949 . S
H1342 C1319 0.950 . S
H1343 C1321 0.950 . S
C1344 C1345 1.349 . S
C1344 C1346 1.327 . S
C1344 H1369 0.950 . S
C1345 C1344 1.349 . S
C1345 C1361 1.349 . S
C1346 C1344 1.327 . S
C1346 C1365 1.429 . S
C1346 H1370 0.950 . S
C1347 C1364 1.574 . S
C1347 C1366 1.368 1_556 S
C1347 H1371 0.949 . S
H1348 C1352 0.949 . S
C1349 C1350 1.349 . S
C1349 C1351 1.327 . S
C1349 H1372 0.950 . S
C1350 C1349 1.349 . S
C1350 C1362 1.349 . S
C1351 C1349 1.327 . S
C1351 C1367 1.429 . S
C1351 H1373 0.950 . S
C1352 H1348 0.949 . S
C1352 C1360 1.574 . S
C1352 C1368 1.368 1_554 S
H1353 C1361 0.950 . S
H1354 C1359 0.950 . S
H1355 C1360 0.949 . S
H1356 C1362 0.950 . S
H1357 C1363 0.950 . S
H1358 C1364 0.949 . S
C1359 H1354 0.950 . S
C1359 C1361 1.327 . S
C1359 C1365 1.429 . S
C1360 C1352 1.574 . S
C1360 H1355 0.949 . S
C1360 C1366 1.368 . S
C1361 C1345 1.349 . S
C1361 H1353 0.950 . S
C1361 C1359 1.327 . S
C1362 C1350 1.349 . S
C1362 H1356 0.950 . S
C1362 C1363 1.327 . S
C1363 H1357 0.950 . S
C1363 C1362 1.327 . S
C1363 C1367 1.429 . S
C1364 C1347 1.574 . S
C1364 H1358 0.949 . S
C1364 C1368 1.368 . S
C1365 C1346 1.429 . S
C1365 C1359 1.429 . S
C1365 C1366 1.523 . S
C1366 C1347 1.368 1_554 S
C1366 C1360 1.368 . S
C1366 C1365 1.523 . S
C1367 C1351 1.429 . S
C1367 C1363 1.429 . S
C1367 C1368 1.523 . S
C1368 C1352 1.368 1_556 S
C1368 C1364 1.368 . S
C1368 C1367 1.523 . S
H1369 C1344 0.950 . S
H1370 C1346 0.950 . S
H1371 C1347 0.949 . S
H1372 C1349 0.950 . S
H1373 C1351 0.950 . S
C1374 C1375 1.349 . S
C1374 C1376 1.327 . S
C1374 H1399 0.950 . S
C1375 C1374 1.349 . S
C1375 C1391 1.349 . S
C1376 C1374 1.327 . S
C1376 C1395 1.429 . S
C1376 H1400 0.950 . S
C1377 C1394 1.574 1_545 S
C1377 C1396 1.368 1_554 S
C1377 H1401 0.949 . S
H1378 C1382 0.949 . S
C1379 C1380 1.349 . S
C1379 C1381 1.327 . S
C1379 H1402 0.950 . S
C1380 C1379 1.349 . S
C1380 C1392 1.349 . S
C1381 C1379 1.327 . S
C1381 C1397 1.429 . S
C1381 H1403 0.950 . S
C1382 H1378 0.949 . S
C1382 C1390 1.574 1_565 S
C1382 C1398 1.368 1_556 S
H1383 C1391 0.950 1_554 S
H1384 C1389 0.950 . S
H1385 C1390 0.949 . S
H1386 C1392 0.950 1_556 S
H1387 C1393 0.950 . S
H1388 C1394 0.949 . S
C1389 H1384 0.950 . S
C1389 C1391 1.327 1_554 S
C1389 C1395 1.429 1_554 S
C1390 C1382 1.574 1_545 S
C1390 H1385 0.949 . S
C1390 C1396 1.368 . S
C1391 C1375 1.349 . S
C1391 H1383 0.950 1_556 S
C1391 C1389 1.327 1_556 S
C1392 C1380 1.349 . S
C1392 H1386 0.950 1_554 S
C1392 C1393 1.327 1_554 S
C1393 H1387 0.950 . S
C1393 C1392 1.327 1_556 S
C1393 C1397 1.429 1_556 S
C1394 C1377 1.574 1_565 S
C1394 H1388 0.949 . S
C1394 C1398 1.368 . S
C1395 C1376 1.429 . S
C1395 C1389 1.429 1_556 S
C1395 C1396 1.523 . S
C1396 C1377 1.368 1_556 S
C1396 C1390 1.368 . S
C1396 C1395 1.523 . S
C1397 C1381 1.429 . S
C1397 C1393 1.429 1_554 S
C1397 C1398 1.523 . S
C1398 C1382 1.368 1_554 S
C1398 C1394 1.368 . S
C1398 C1397 1.523 . S
H1399 C1374 0.950 . S
H1400 C1376 0.950 . S
H1401 C1377 0.949 . S
H1402 C1379 0.950 . S
H1403 C1381 0.950 . S
C1404 C1405 1.349 . S
C1404 C1406 1.327 . S
C1404 H1429 0.950 . S
C1405 C1404 1.349 . S
C1405 C1421 1.349 . S
C1406 C1404 1.327 . S
C1406 C1425 1.429 . S
C1406 H1430 0.950 . S
C1407 C1424 1.574 . S
C1407 C1426 1.368 . S
C1407 H1431 0.949 . S
H1408 C1412 0.949 1_554 S
C1409 C1410 1.349 . S
C1409 C1411 1.327 . S
C1409 H1432 0.950 . S
C1410 C1409 1.349 . S
C1410 C1422 1.349 . S
C1411 C1409 1.327 . S
C1411 C1427 1.429 . S
C1411 H1433 0.950 . S
C1412 H1408 0.949 1_556 S
C1412 C1420 1.574 . S
C1412 C1428 1.368 1_556 S
H1413 C1421 0.950 . S
H1414 C1419 0.950 . S
H1415 C1420 0.949 . S
H1416 C1422 0.950 . S
H1417 C1423 0.950 . S
H1418 C1424 0.949 1_554 S
C1419 H1414 0.950 . S
C1419 C1421 1.327 . S
C1419 C1425 1.429 . S
C1420 C1412 1.574 . S
C1420 H1415 0.949 . S
C1420 C1426 1.368 . S
C1421 C1405 1.349 . S
C1421 H1413 0.950 . S
C1421 C1419 1.327 . S
C1422 C1410 1.349 . S
C1422 H1416 0.950 . S
C1422 C1423 1.327 . S
C1423 H1417 0.950 . S
C1423 C1422 1.327 . S
C1423 C1427 1.429 . S
C1424 C1407 1.574 . S
C1424 H1418 0.949 1_556 S
C1424 C1428 1.368 1_556 S
C1425 C1406 1.429 . S
C1425 C1419 1.429 . S
C1425 C1426 1.523 . S
C1426 C1407 1.368 . S
C1426 C1420 1.368 . S
C1426 C1425 1.523 . S
C1427 C1411 1.429 . S
C1427 C1423 1.429 . S
C1427 C1428 1.523 . S
C1428 C1412 1.368 1_554 S
C1428 C1424 1.368 1_554 S
C1428 C1427 1.523 . S
H1429 C1404 0.950 . S
H1430 C1406 0.950 . S
H1431 C1407 0.949 . S
H1432 C1409 0.950 . S
H1433 C1411 0.950 . S
C1434 C1435 1.349 . S
C1434 C1436 1.327 . S
C1434 H1459 0.950 . S
C1435 C1434 1.349 . S
C1435 C1451 1.349 . S
C1436 C1434 1.327 . S
C1436 C1455 1.429 . S
C1436 H1460 0.950 . S
C1437 C1454 1.574 . S
C1437 C1456 1.368 . S
C1437 H1461 0.949 . S
H1438 C1442 0.949 1_554 S
C1439 C1440 1.349 . S
C1439 C1441 1.327 . S
C1439 H1462 0.950 . S
C1440 C1439 1.349 . S
C1440 C1452 1.349 . S
C1441 C1439 1.327 . S
C1441 C1457 1.429 . S
C1441 H1463 0.950 . S
C1442 H1438 0.949 1_556 S
C1442 C1450 1.574 . S
C1442 C1458 1.368 1_556 S
H1443 C1451 0.950 . S
H1444 C1449 0.950 . S
H1445 C1450 0.949 . S
H1446 C1452 0.950 . S
H1447 C1453 0.950 . S
H1448 C1454 0.949 1_554 S
C1449 H1444 0.950 . S
C1449 C1451 1.327 . S
C1449 C1455 1.429 . S
C1450 C1442 1.574 . S
C1450 H1445 0.949 . S
C1450 C1456 1.368 . S
C1451 C1435 1.349 . S
C1451 H1443 0.950 . S
C1451 C1449 1.327 . S
C1452 C1440 1.349 . S
C1452 H1446 0.950 . S
C1452 C1453 1.327 . S
C1453 H1447 0.950 . S
C1453 C1452 1.327 . S
C1453 C1457 1.429 . S
C1454 C1437 1.574 . S
C1454 H1448 0.949 1_556 S
C1454 C1458 1.368 1_556 S
C1455 C1436 1.429 . S
C1455 C1449 1.429 . S
C1455 C1456 1.523 . S
C1456 C1437 1.368 . S
C1456 C1450 1.368 . S
C1456 C1455 1.523 . S
C1457 C1441 1.429 . S
C1457 C1453 1.429 . S
C1457 C1458 1.523 . S
C1458 C1442 1.368 1_554 S
C1458 C1454 1.368 1_554 S
C1458 C1457 1.523 . S
H1459 C1434 0.950 . S
H1460 C1436 0.950 . S
H1461 C1437 0.949 . S
H1462 C1439 0.950 . S
H1463 C1441 0.950 . S
C1464 C1465 1.349 . S
C1464 C1466 1.327 . S
C1464 H1489 0.950 . S
C1465 C1464 1.349 . S
C1465 C1481 1.349 . S
C1466 C1464 1.327 . S
C1466 C1485 1.429 . S
C1466 H1490 0.950 . S
C1467 C1484 1.574 . S
C1467 C1486 1.368 . S
C1467 H1491 0.949 . S
H1468 C1472 0.949 1_554 S
C1469 C1470 1.349 . S
C1469 C1471 1.327 . S
C1469 H1492 0.950 . S
C1470 C1469 1.349 . S
C1470 C1482 1.349 . S
C1471 C1469 1.327 . S
C1471 C1487 1.429 . S
C1471 H1493 0.950 . S
C1472 H1468 0.949 1_556 S
C1472 C1480 1.574 . S
C1472 C1488 1.368 1_556 S
H1473 C1481 0.950 . S
H1474 C1479 0.950 . S
H1475 C1480 0.949 . S
H1476 C1482 0.950 . S
H1477 C1483 0.950 . S
H1478 C1484 0.949 1_554 S
C1479 H1474 0.950 . S
C1479 C1481 1.327 . S
C1479 C1485 1.429 . S
C1480 C1472 1.574 . S
C1480 H1475 0.949 . S
C1480 C1486 1.368 . S
C1481 C1465 1.349 . S
C1481 H1473 0.950 . S
C1481 C1479 1.327 . S
C1482 C1470 1.349 . S
C1482 H1476 0.950 . S
C1482 C1483 1.327 . S
C1483 H1477 0.950 . S
C1483 C1482 1.327 . S
C1483 C1487 1.429 . S
C1484 C1467 1.574 . S
C1484 H1478 0.949 1_556 S
C1484 C1488 1.368 1_556 S
C1485 C1466 1.429 . S
C1485 C1479 1.429 . S
C1485 C1486 1.523 . S
C1486 C1467 1.368 . S
C1486 C1480 1.368 . S
C1486 C1485 1.523 . S
C1487 C1471 1.429 . S
C1487 C1483 1.429 . S
C1487 C1488 1.523 . S
C1488 C1472 1.368 1_554 S
C1488 C1484 1.368 1_554 S
C1488 C1487 1.523 . S
H1489 C1464 0.950 . S
H1490 C1466 0.950 . S
H1491 C1467 0.949 . S
H1492 C1469 0.950 . S
H1493 C1471 0.950 . S
C1494 C1495 1.349 . S
C1494 C1496 1.327 . S
C1494 H1519 0.950 . S
C1495 C1494 1.349 . S
C1495 C1511 1.349 . S
C1496 C1494 1.327 . S
C1496 C1515 1.429 . S
C1496 H1520 0.950 . S
C1497 C1514 1.574 . S
C1497 C1516 1.368 1_554 S
C1497 H1521 0.949 1_554 S
H1498 C1502 0.949 . S
C1499 C1500 1.349 . S
C1499 C1501 1.327 . S
C1499 H1522 0.950 . S
C1500 C1499 1.349 . S
C1500 C1512 1.349 . S
C1501 C1499 1.327 . S
C1501 C1517 1.429 . S
C1501 H1523 0.950 . S
C1502 H1498 0.949 . S
C1502 C1510 1.574 . S
C1502 C1518 1.368 . S
H1503 C1511 0.950 . S
H1504 C1509 0.950 . S
H1505 C1510 0.949 1_556 S
H1506 C1512 0.950 . S
H1507 C1513 0.950 . S
H1508 C1514 0.949 . S
C1509 H1504 0.950 . S
C1509 C1511 1.327 . S
C1509 C1515 1.429 . S
C1510 C1502 1.574 . S
C1510 H1505 0.949 1_554 S
C1510 C1516 1.368 1_554 S
C1511 C1495 1.349 . S
C1511 H1503 0.950 . S
C1511 C1509 1.327 . S
C1512 C1500 1.349 . S
C1512 H1506 0.950 . S
C1512 C1513 1.327 . S
C1513 H1507 0.950 . S
C1513 C1512 1.327 . S
C1513 C1517 1.429 . S
C1514 C1497 1.574 . S
C1514 H1508 0.949 . S
C1514 C1518 1.368 . S
C1515 C1496 1.429 . S
C1515 C1509 1.429 . S
C1515 C1516 1.523 . S
C1516 C1497 1.368 1_556 S
C1516 C1510 1.368 1_556 S
C1516 C1515 1.523 . S
C1517 C1501 1.429 . S
C1517 C1513 1.429 . S
C1517 C1518 1.523 . S
C1518 C1502 1.368 . S
C1518 C1514 1.368 . S
C1518 C1517 1.523 . S
H1519 C1494 0.950 . S
H1520 C1496 0.950 . S
H1521 C1497 0.949 1_556 S
H1522 C1499 0.950 . S
H1523 C1501 0.950 . S
C1524 C1525 1.349 . S
C1524 C1526 1.327 . S
C1524 H1549 0.950 . S
C1525 C1524 1.349 . S
C1525 C1541 1.349 . S
C1526 C1524 1.327 . S
C1526 C1545 1.429 . S
C1526 H1550 0.950 . S
C1527 C1544 1.574 . S
C1527 C1546 1.368 1_554 S
C1527 H1551 0.949 1_554 S
H1528 C1532 0.949 . S
C1529 C1530 1.349 . S
C1529 C1531 1.327 . S
C1529 H1552 0.950 . S
C1530 C1529 1.349 . S
C1530 C1542 1.349 . S
C1531 C1529 1.327 . S
C1531 C1547 1.429 . S
C1531 H1553 0.950 . S
C1532 H1528 0.949 . S
C1532 C1540 1.574 . S
C1532 C1548 1.368 . S
H1533 C1541 0.950 . S
H1534 C1539 0.950 . S
H1535 C1540 0.949 1_556 S
H1536 C1542 0.950 . S
H1537 C1543 0.950 . S
H1538 C1544 0.949 . S
C1539 H1534 0.950 . S
C1539 C1541 1.327 . S
C1539 C1545 1.429 . S
C1540 C1532 1.574 . S
C1540 H1535 0.949 1_554 S
C1540 C1546 1.368 1_554 S
C1541 C1525 1.349 . S
C1541 H1533 0.950 . S
C1541 C1539 1.327 . S
C1542 C1530 1.349 . S
C1542 H1536 0.950 . S
C1542 C1543 1.327 . S
C1543 H1537 0.950 . S
C1543 C1542 1.327 . S
C1543 C1547 1.429 . S
C1544 C1527 1.574 . S
C1544 H1538 0.949 . S
C1544 C1548 1.368 . S
C1545 C1526 1.429 . S
C1545 C1539 1.429 . S
C1545 C1546 1.523 . S
C1546 C1527 1.368 1_556 S
C1546 C1540 1.368 1_556 S
C1546 C1545 1.523 . S
C1547 C1531 1.429 . S
C1547 C1543 1.429 . S
C1547 C1548 1.523 . S
C1548 C1532 1.368 . S
C1548 C1544 1.368 . S
C1548 C1547 1.523 . S
H1549 C1524 0.950 . S
H1550 C1526 0.950 . S
H1551 C1527 0.949 1_556 S
H1552 C1529 0.950 . S
H1553 C1531 0.950 . S
C1554 C1555 1.349 . S
C1554 C1556 1.327 . S
C1554 H1579 0.950 . S
C1555 C1554 1.349 . S
C1555 C1571 1.349 . S
C1556 C1554 1.327 . S
C1556 C1575 1.429 . S
C1556 H1580 0.950 . S
C1557 C1574 1.574 . S
C1557 C1576 1.368 . S
C1557 H1581 0.949 . S
H1558 C1562 0.949 1_556 S
C1559 C1560 1.349 . S
C1559 C1561 1.327 . S
C1559 H1582 0.950 . S
C1560 C1559 1.349 . S
C1560 C1572 1.349 . S
C1561 C1559 1.327 . S
C1561 C1577 1.429 . S
C1561 H1583 0.950 . S
C1562 H1558 0.949 1_554 S
C1562 C1570 1.574 . S
C1562 C1578 1.368 1_554 S
H1563 C1571 0.950 . S
H1564 C1569 0.950 . S
H1565 C1570 0.949 . S
H1566 C1572 0.950 . S
H1567 C1573 0.950 . S
H1568 C1574 0.949 1_556 S
C1569 H1564 0.950 . S
C1569 C1571 1.327 . S
C1569 C1575 1.429 . S
C1570 C1562 1.574 . S
C1570 H1565 0.949 . S
C1570 C1576 1.368 . S
C1571 C1555 1.349 . S
C1571 H1563 0.950 . S
C1571 C1569 1.327 . S
C1572 C1560 1.349 . S
C1572 H1566 0.950 . S
C1572 C1573 1.327 . S
C1573 H1567 0.950 . S
C1573 C1572 1.327 . S
C1573 C1577 1.429 . S
C1574 C1557 1.574 . S
C1574 H1568 0.949 1_554 S
C1574 C1578 1.368 1_554 S
C1575 C1556 1.429 . S
C1575 C1569 1.429 . S
C1575 C1576 1.523 . S
C1576 C1557 1.368 . S
C1576 C1570 1.368 . S
C1576 C1575 1.523 . S
C1577 C1561 1.429 . S
C1577 C1573 1.429 . S
C1577 C1578 1.523 . S
C1578 C1562 1.368 1_556 S
C1578 C1574 1.368 1_556 S
C1578 C1577 1.523 . S
H1579 C1554 0.950 . S
H1580 C1556 0.950 . S
H1581 C1557 0.949 . S
H1582 C1559 0.950 . S
H1583 C1561 0.950 . S
C1584 C1585 1.349 . S
C1584 C1586 1.327 . S
C1584 H1609 0.950 . S
C1585 C1584 1.349 . S
C1585 C1601 1.349 . S
C1586 C1584 1.327 . S
C1586 C1605 1.429 . S
C1586 H1610 0.950 . S
C1587 C1604 1.574 . S
C1587 C1606 1.368 . S
C1587 H1611 0.949 . S
H1588 C1592 0.949 . S
C1589 C1590 1.349 . S
C1589 C1591 1.327 . S
C1589 H1612 0.950 . S
C1590 C1589 1.349 . S
C1590 C1602 1.349 . S
C1591 C1589 1.327 . S
C1591 C1607 1.429 . S
C1591 H1613 0.950 . S
C1592 H1588 0.949 . S
C1592 C1600 1.574 . S
C1592 C1608 1.368 . S
H1593 C1601 0.950 . S
H1594 C1599 0.950 . S
H1595 C1600 0.949 . S
H1596 C1602 0.950 . S
H1597 C1603 0.950 . S
H1598 C1604 0.949 . S
C1599 H1594 0.950 . S
C1599 C1601 1.327 . S
C1599 C1605 1.429 . S
C1600 C1592 1.574 . S
C1600 H1595 0.949 . S
C1600 C1606 1.368 . S
C1601 C1585 1.349 . S
C1601 H1593 0.950 . S
C1601 C1599 1.327 . S
C1602 C1590 1.349 . S
C1602 H1596 0.950 . S
C1602 C1603 1.327 . S
C1603 H1597 0.950 . S
C1603 C1602 1.327 . S
C1603 C1607 1.429 . S
C1604 C1587 1.574 . S
C1604 H1598 0.949 . S
C1604 C1608 1.368 . S
C1605 C1586 1.429 . S
C1605 C1599 1.429 . S
C1605 C1606 1.523 . S
C1606 C1587 1.368 . S
C1606 C1600 1.368 . S
C1606 C1605 1.523 . S
C1607 C1591 1.429 . S
C1607 C1603 1.429 . S
C1607 C1608 1.523 . S
C1608 C1592 1.368 . S
C1608 C1604 1.368 . S
C1608 C1607 1.523 . S
H1609 C1584 0.950 . S
H1610 C1586 0.950 . S
H1611 C1587 0.949 . S
H1612 C1589 0.950 . S
H1613 C1591 0.950 . S
C1614 C1615 1.349 . S
C1614 C1616 1.327 . S
C1614 H1639 0.950 . S
C1615 C1614 1.349 . S
C1615 C1631 1.349 . S
C1616 C1614 1.327 . S
C1616 C1635 1.429 . S
C1616 H1640 0.950 . S
C1617 C1634 1.574 . S
C1617 C1636 1.368 . S
C1617 H1641 0.949 . S
H1618 C1622 0.949 . S
C1619 C1620 1.349 . S
C1619 C1621 1.327 . S
C1619 H1642 0.950 . S
C1620 C1619 1.349 . S
C1620 C1632 1.349 . S
C1621 C1619 1.327 . S
C1621 C1637 1.429 . S
C1621 H1643 0.950 . S
C1622 H1618 0.949 . S
C1622 C1630 1.574 . S
C1622 C1638 1.368 . S
H1623 C1631 0.950 . S
H1624 C1629 0.950 . S
H1625 C1630 0.949 . S
H1626 C1632 0.950 . S
H1627 C1633 0.950 . S
H1628 C1634 0.949 . S
C1629 H1624 0.950 . S
C1629 C1631 1.327 . S
C1629 C1635 1.429 . S
C1630 C1622 1.574 . S
C1630 H1625 0.949 . S
C1630 C1636 1.368 . S
C1631 C1615 1.349 . S
C1631 H1623 0.950 . S
C1631 C1629 1.327 . S
C1632 C1620 1.349 . S
C1632 H1626 0.950 . S
C1632 C1633 1.327 . S
C1633 H1627 0.950 . S
C1633 C1632 1.327 . S
C1633 C1637 1.429 . S
C1634 C1617 1.574 . S
C1634 H1628 0.949 . S
C1634 C1638 1.368 . S
C1635 C1616 1.429 . S
C1635 C1629 1.429 . S
C1635 C1636 1.523 . S
C1636 C1617 1.368 . S
C1636 C1630 1.368 . S
C1636 C1635 1.523 . S
C1637 C1621 1.429 . S
C1637 C1633 1.429 . S
C1637 C1638 1.523 . S
C1638 C1622 1.368 . S
C1638 C1634 1.368 . S
C1638 C1637 1.523 . S
H1639 C1614 0.950 . S
H1640 C1616 0.950 . S
H1641 C1617 0.949 . S
H1642 C1619 0.950 . S
H1643 C1621 0.950 . S
C1644 C1645 1.349 . S
C1644 C1646 1.327 . S
C1644 H1669 0.950 . S
C1645 C1644 1.349 . S
C1645 C1661 1.349 . S
C1646 C1644 1.327 . S
C1646 C1665 1.429 . S
C1646 H1670 0.950 . S
C1647 C1664 1.574 . S
C1647 C1666 1.368 . S
C1647 H1671 0.949 . S
H1648 C1652 0.949 . S
C1649 C1650 1.349 . S
C1649 C1651 1.327 . S
C1649 H1672 0.950 . S
C1650 C1649 1.349 . S
C1650 C1662 1.349 . S
C1651 C1649 1.327 . S
C1651 C1667 1.429 . S
C1651 H1673 0.950 . S
C1652 H1648 0.949 . S
C1652 C1660 1.574 . S
C1652 C1668 1.368 . S
H1653 C1661 0.950 . S
H1654 C1659 0.950 . S
H1655 C1660 0.949 . S
H1656 C1662 0.950 . S
H1657 C1663 0.950 . S
H1658 C1664 0.949 . S
C1659 H1654 0.950 . S
C1659 C1661 1.327 . S
C1659 C1665 1.429 . S
C1660 C1652 1.574 . S
C1660 H1655 0.949 . S
C1660 C1666 1.368 . S
C1661 C1645 1.349 . S
C1661 H1653 0.950 . S
C1661 C1659 1.327 . S
C1662 C1650 1.349 . S
C1662 H1656 0.950 . S
C1662 C1663 1.327 . S
C1663 H1657 0.950 . S
C1663 C1662 1.327 . S
C1663 C1667 1.429 . S
C1664 C1647 1.574 . S
C1664 H1658 0.949 . S
C1664 C1668 1.368 . S
C1665 C1646 1.429 . S
C1665 C1659 1.429 . S
C1665 C1666 1.523 . S
C1666 C1647 1.368 . S
C1666 C1660 1.368 . S
C1666 C1665 1.523 . S
C1667 C1651 1.429 . S
C1667 C1663 1.429 . S
C1667 C1668 1.523 . S
C1668 C1652 1.368 . S
C1668 C1664 1.368 . S
C1668 C1667 1.523 . S
H1669 C1644 0.950 . S
H1670 C1646 0.950 . S
H1671 C1647 0.949 . S
H1672 C1649 0.950 . S
H1673 C1651 0.950 . S
C1674 C1675 1.349 . S
C1674 C1676 1.327 . S
C1674 H1699 0.950 . S
C1675 C1674 1.349 . S
C1675 C1691 1.349 . S
C1676 C1674 1.327 . S
C1676 C1695 1.429 . S
C1676 H1700 0.950 . S
C1677 C1694 1.574 . S
C1677 C1696 1.368 . S
C1677 H1701 0.949 . S
H1678 C1682 0.949 . S
C1679 C1680 1.349 . S
C1679 C1681 1.327 . S
C1679 H1702 0.950 . S
C1680 C1679 1.349 . S
C1680 C1692 1.349 . S
C1681 C1679 1.327 . S
C1681 C1697 1.429 . S
C1681 H1703 0.950 . S
C1682 H1678 0.949 . S
C1682 C1690 1.574 . S
C1682 C1698 1.368 . S
H1683 C1691 0.950 . S
H1684 C1689 0.950 . S
H1685 C1690 0.949 . S
H1686 C1692 0.950 . S
H1687 C1693 0.950 . S
H1688 C1694 0.949 . S
C1689 H1684 0.950 . S
C1689 C1691 1.327 . S
C1689 C1695 1.429 . S
C1690 C1682 1.574 . S
C1690 H1685 0.949 . S
C1690 C1696 1.368 . S
C1691 C1675 1.349 . S
C1691 H1683 0.950 . S
C1691 C1689 1.327 . S
C1692 C1680 1.349 . S
C1692 H1686 0.950 . S
C1692 C1693 1.327 . S
C1693 H1687 0.950 . S
C1693 C1692 1.327 . S
C1693 C1697 1.429 . S
C1694 C1677 1.574 . S
C1694 H1688 0.949 . S
C1694 C1698 1.368 . S
C1695 C1676 1.429 . S
C1695 C1689 1.429 . S
C1695 C1696 1.523 . S
C1696 C1677 1.368 . S
C1696 C1690 1.368 . S
C1696 C1695 1.523 . S
C1697 C1681 1.429 . S
C1697 C1693 1.429 . S
C1697 C1698 1.523 . S
C1698 C1682 1.368 . S
C1698 C1694 1.368 . S
C1698 C1697 1.523 . S
H1699 C1674 0.950 . S
H1700 C1676 0.950 . S
H1701 C1677 0.949 . S
H1702 C1679 0.950 . S
H1703 C1681 0.950 . S
C1704 C1705 1.349 . S
C1704 C1706 1.327 . S
C1704 H1729 0.950 . S
C1705 C1704 1.349 . S
C1705 C1721 1.349 . S
C1706 C1704 1.327 . S
C1706 C1725 1.429 . S
C1706 H1730 0.950 . S
C1707 C1724 1.574 . S
C1707 C1726 1.368 . S
C1707 H1731 0.949 . S
H1708 C1712 0.949 . S
C1709 C1710 1.349 . S
C1709 C1711 1.327 . S
C1709 H1732 0.950 . S
C1710 C1709 1.349 . S
C1710 C1722 1.349 . S
C1711 C1709 1.327 . S
C1711 C1727 1.429 . S
C1711 H1733 0.950 . S
C1712 H1708 0.949 . S
C1712 C1720 1.574 . S
C1712 C1728 1.368 . S
H1713 C1721 0.950 . S
H1714 C1719 0.950 . S
H1715 C1720 0.949 . S
H1716 C1722 0.950 . S
H1717 C1723 0.950 . S
H1718 C1724 0.949 . S
C1719 H1714 0.950 . S
C1719 C1721 1.327 . S
C1719 C1725 1.429 . S
C1720 C1712 1.574 . S
C1720 H1715 0.949 . S
C1720 C1726 1.368 . S
C1721 C1705 1.349 . S
C1721 H1713 0.950 . S
C1721 C1719 1.327 . S
C1722 C1710 1.349 . S
C1722 H1716 0.950 . S
C1722 C1723 1.327 . S
C1723 H1717 0.950 . S
C1723 C1722 1.327 . S
C1723 C1727 1.429 . S
C1724 C1707 1.574 . S
C1724 H1718 0.949 . S
C1724 C1728 1.368 . S
C1725 C1706 1.429 . S
C1725 C1719 1.429 . S
C1725 C1726 1.523 . S
C1726 C1707 1.368 . S
C1726 C1720 1.368 . S
C1726 C1725 1.523 . S
C1727 C1711 1.429 . S
C1727 C1723 1.429 . S
C1727 C1728 1.523 . S
C1728 C1712 1.368 . S
C1728 C1724 1.368 . S
C1728 C1727 1.523 . S
H1729 C1704 0.950 . S
H1730 C1706 0.950 . S
H1731 C1707 0.949 . S
H1732 C1709 0.950 . S
H1733 C1711 0.950 . S
C1734 C1735 1.349 . S
C1734 C1736 1.327 . S
C1734 H1759 0.950 . S
C1735 C1734 1.349 . S
C1735 C1751 1.349 . S
C1736 C1734 1.327 . S
C1736 C1755 1.429 . S
C1736 H1760 0.950 . S
C1737 C1754 1.574 . S
C1737 C1756 1.368 . S
C1737 H1761 0.949 . S
H1738 C1742 0.949 . S
C1739 C1740 1.349 . S
C1739 C1741 1.327 . S
C1739 H1762 0.950 . S
C1740 C1739 1.349 . S
C1740 C1752 1.349 . S
C1741 C1739 1.327 . S
C1741 C1757 1.429 . S
C1741 H1763 0.950 . S
C1742 H1738 0.949 . S
C1742 C1750 1.574 . S
C1742 C1758 1.368 . S
H1743 C1751 0.950 . S
H1744 C1749 0.950 . S
H1745 C1750 0.949 . S
H1746 C1752 0.950 . S
H1747 C1753 0.950 . S
H1748 C1754 0.949 . S
C1749 H1744 0.950 . S
C1749 C1751 1.327 . S
C1749 C1755 1.429 . S
C1750 C1742 1.574 . S
C1750 H1745 0.949 . S
C1750 C1756 1.368 . S
C1751 C1735 1.349 . S
C1751 H1743 0.950 . S
C1751 C1749 1.327 . S
C1752 C1740 1.349 . S
C1752 H1746 0.950 . S
C1752 C1753 1.327 . S
C1753 H1747 0.950 . S
C1753 C1752 1.327 . S
C1753 C1757 1.429 . S
C1754 C1737 1.574 . S
C1754 H1748 0.949 . S
C1754 C1758 1.368 . S
C1755 C1736 1.429 . S
C1755 C1749 1.429 . S
C1755 C1756 1.523 . S
C1756 C1737 1.368 . S
C1756 C1750 1.368 . S
C1756 C1755 1.523 . S
C1757 C1741 1.429 . S
C1757 C1753 1.429 . S
C1757 C1758 1.523 . S
C1758 C1742 1.368 . S
C1758 C1754 1.368 . S
C1758 C1757 1.523 . S
H1759 C1734 0.950 . S
H1760 C1736 0.950 . S
H1761 C1737 0.949 . S
H1762 C1739 0.950 . S
H1763 C1741 0.950 . S
C1764 C1765 1.349 . S
C1764 C1766 1.327 . S
C1764 H1789 0.950 . S
C1765 C1764 1.349 . S
C1765 C1781 1.349 . S
C1766 C1764 1.327 . S
C1766 C1785 1.429 . S
C1766 H1790 0.950 . S
C1767 C1784 1.574 . S
C1767 C1786 1.368 . S
C1767 H1791 0.949 . S
H1768 C1772 0.949 . S
C1769 C1770 1.349 . S
C1769 C1771 1.327 . S
C1769 H1792 0.950 . S
C1770 C1769 1.349 . S
C1770 C1782 1.349 . S
C1771 C1769 1.327 . S
C1771 C1787 1.429 . S
C1771 H1793 0.950 . S
C1772 H1768 0.949 . S
C1772 C1780 1.574 . S
C1772 C1788 1.368 . S
H1773 C1781 0.950 . S
H1774 C1779 0.950 . S
H1775 C1780 0.949 . S
H1776 C1782 0.950 . S
H1777 C1783 0.950 . S
H1778 C1784 0.949 . S
C1779 H1774 0.950 . S
C1779 C1781 1.327 . S
C1779 C1785 1.429 . S
C1780 C1772 1.574 . S
C1780 H1775 0.949 . S
C1780 C1786 1.368 . S
C1781 C1765 1.349 . S
C1781 H1773 0.950 . S
C1781 C1779 1.327 . S
C1782 C1770 1.349 . S
C1782 H1776 0.950 . S
C1782 C1783 1.327 . S
C1783 H1777 0.950 . S
C1783 C1782 1.327 . S
C1783 C1787 1.429 . S
C1784 C1767 1.574 . S
C1784 H1778 0.949 . S
C1784 C1788 1.368 . S
C1785 C1766 1.429 . S
C1785 C1779 1.429 . S
C1785 C1786 1.523 . S
C1786 C1767 1.368 . S
C1786 C1780 1.368 . S
C1786 C1785 1.523 . S
C1787 C1771 1.429 . S
C1787 C1783 1.429 . S
C1787 C1788 1.523 . S
C1788 C1772 1.368 . S
C1788 C1784 1.368 . S
C1788 C1787 1.523 . S
H1789 C1764 0.950 . S
H1790 C1766 0.950 . S
H1791 C1767 0.949 . S
H1792 C1769 0.950 . S
H1793 C1771 0.950 . S
C1794 C1795 1.349 . S
C1794 C1796 1.327 . S
C1794 H1819 0.950 . S
C1795 C1794 1.349 . S
C1795 C1811 1.349 . S
C1796 C1794 1.327 . S
C1796 C1815 1.429 . S
C1796 H1820 0.950 . S
C1797 C1814 1.574 . S
C1797 C1816 1.368 . S
C1797 H1821 0.949 . S
H1798 C1802 0.949 . S
C1799 C1800 1.349 . S
C1799 C1801 1.327 . S
C1799 H1822 0.950 . S
C1800 C1799 1.349 . S
C1800 C1812 1.349 . S
C1801 C1799 1.327 . S
C1801 C1817 1.429 . S
C1801 H1823 0.950 . S
C1802 H1798 0.949 . S
C1802 C1810 1.574 . S
C1802 C1818 1.368 . S
H1803 C1811 0.950 . S
H1804 C1809 0.950 . S
H1805 C1810 0.949 . S
H1806 C1812 0.950 . S
H1807 C1813 0.950 . S
H1808 C1814 0.949 . S
C1809 H1804 0.950 . S
C1809 C1811 1.327 . S
C1809 C1815 1.429 . S
C1810 C1802 1.574 . S
C1810 H1805 0.949 . S
C1810 C1816 1.368 . S
C1811 C1795 1.349 . S
C1811 H1803 0.950 . S
C1811 C1809 1.327 . S
C1812 C1800 1.349 . S
C1812 H1806 0.950 . S
C1812 C1813 1.327 . S
C1813 H1807 0.950 . S
C1813 C1812 1.327 . S
C1813 C1817 1.429 . S
C1814 C1797 1.574 . S
C1814 H1808 0.949 . S
C1814 C1818 1.368 . S
C1815 C1796 1.429 . S
C1815 C1809 1.429 . S
C1815 C1816 1.523 . S
C1816 C1797 1.368 . S
C1816 C1810 1.368 . S
C1816 C1815 1.523 . S
C1817 C1801 1.429 . S
C1817 C1813 1.429 . S
C1817 C1818 1.523 . S
C1818 C1802 1.368 . S
C1818 C1814 1.368 . S
C1818 C1817 1.523 . S
H1819 C1794 0.950 . S
H1820 C1796 0.950 . S
H1821 C1797 0.949 . S
H1822 C1799 0.950 . S
H1823 C1801 0.950 . S
C1824 C1825 1.349 . S
C1824 C1826 1.327 . S
C1824 H1849 0.950 . S
C1825 C1824 1.349 . S
C1825 C1841 1.349 . S
C1826 C1824 1.327 . S
C1826 C1845 1.429 . S
C1826 H1850 0.950 . S
C1827 C1844 1.574 . S
C1827 C1846 1.368 . S
C1827 H1851 0.949 . S
H1828 C1832 0.949 . S
C1829 C1830 1.349 . S
C1829 C1831 1.327 . S
C1829 H1852 0.950 . S
C1830 C1829 1.349 . S
C1830 C1842 1.349 . S
C1831 C1829 1.327 . S
C1831 C1847 1.429 . S
C1831 H1853 0.950 . S
C1832 H1828 0.949 . S
C1832 C1840 1.574 . S
C1832 C1848 1.368 . S
H1833 C1841 0.950 . S
H1834 C1839 0.950 . S
H1835 C1840 0.949 . S
H1836 C1842 0.950 . S
H1837 C1843 0.950 . S
H1838 C1844 0.949 . S
C1839 H1834 0.950 . S
C1839 C1841 1.327 . S
C1839 C1845 1.429 . S
C1840 C1832 1.574 . S
C1840 H1835 0.949 . S
C1840 C1846 1.368 . S
C1841 C1825 1.349 . S
C1841 H1833 0.950 . S
C1841 C1839 1.327 . S
C1842 C1830 1.349 . S
C1842 H1836 0.950 . S
C1842 C1843 1.327 . S
C1843 H1837 0.950 . S
C1843 C1842 1.327 . S
C1843 C1847 1.429 . S
C1844 C1827 1.574 . S
C1844 H1838 0.949 . S
C1844 C1848 1.368 . S
C1845 C1826 1.429 . S
C1845 C1839 1.429 . S
C1845 C1846 1.523 . S
C1846 C1827 1.368 . S
C1846 C1840 1.368 . S
C1846 C1845 1.523 . S
C1847 C1831 1.429 . S
C1847 C1843 1.429 . S
C1847 C1848 1.523 . S
C1848 C1832 1.368 . S
C1848 C1844 1.368 . S
C1848 C1847 1.523 . S
H1849 C1824 0.950 . S
H1850 C1826 0.950 . S
H1851 C1827 0.949 . S
H1852 C1829 0.950 . S
H1853 C1831 0.950 . S
C1854 C1855 1.349 . S
C1854 C1856 1.327 . S
C1854 H1879 0.950 . S
C1855 C1854 1.349 . S
C1855 C1871 1.349 . S
C1856 C1854 1.327 . S
C1856 C1875 1.429 . S
C1856 H1880 0.950 . S
C1857 C1874 1.574 . S
C1857 C1876 1.368 . S
C1857 H1881 0.949 . S
H1858 C1862 0.949 . S
C1859 C1860 1.349 . S
C1859 C1861 1.327 . S
C1859 H1882 0.950 . S
C1860 C1859 1.349 . S
C1860 C1872 1.349 . S
C1861 C1859 1.327 . S
C1861 C1877 1.429 . S
C1861 H1883 0.950 . S
C1862 H1858 0.949 . S
C1862 C1870 1.574 . S
C1862 C1878 1.368 . S
H1863 C1871 0.950 . S
H1864 C1869 0.950 . S
H1865 C1870 0.949 . S
H1866 C1872 0.950 . S
H1867 C1873 0.950 . S
H1868 C1874 0.949 . S
C1869 H1864 0.950 . S
C1869 C1871 1.327 . S
C1869 C1875 1.429 . S
C1870 C1862 1.574 . S
C1870 H1865 0.949 . S
C1870 C1876 1.368 . S
C1871 C1855 1.349 . S
C1871 H1863 0.950 . S
C1871 C1869 1.327 . S
C1872 C1860 1.349 . S
C1872 H1866 0.950 . S
C1872 C1873 1.327 . S
C1873 H1867 0.950 . S
C1873 C1872 1.327 . S
C1873 C1877 1.429 . S
C1874 C1857 1.574 . S
C1874 H1868 0.949 . S
C1874 C1878 1.368 . S
C1875 C1856 1.429 . S
C1875 C1869 1.429 . S
C1875 C1876 1.523 . S
C1876 C1857 1.368 . S
C1876 C1870 1.368 . S
C1876 C1875 1.523 . S
C1877 C1861 1.429 . S
C1877 C1873 1.429 . S
C1877 C1878 1.523 . S
C1878 C1862 1.368 . S
C1878 C1874 1.368 . S
C1878 C1877 1.523 . S
H1879 C1854 0.950 . S
H1880 C1856 0.950 . S
H1881 C1857 0.949 . S
H1882 C1859 0.950 . S
H1883 C1861 0.950 . S
C1884 C1885 1.349 . S
C1884 C1886 1.327 . S
C1884 H1909 0.950 . S
C1885 C1884 1.349 . S
C1885 C1901 1.349 . S
C1886 C1884 1.327 . S
C1886 C1905 1.429 . S
C1886 H1910 0.950 . S
C1887 C1904 1.574 . S
C1887 C1906 1.368 . S
C1887 H1911 0.949 . S
H1888 C1892 0.949 . S
C1889 C1890 1.349 . S
C1889 C1891 1.327 . S
C1889 H1912 0.950 . S
C1890 C1889 1.349 . S
C1890 C1902 1.349 . S
C1891 C1889 1.327 . S
C1891 C1907 1.429 . S
C1891 H1913 0.950 . S
C1892 H1888 0.949 . S
C1892 C1900 1.574 . S
C1892 C1908 1.368 . S
H1893 C1901 0.950 . S
H1894 C1899 0.950 . S
H1895 C1900 0.949 . S
H1896 C1902 0.950 . S
H1897 C1903 0.950 . S
H1898 C1904 0.949 . S
C1899 H1894 0.950 . S
C1899 C1901 1.327 . S
C1899 C1905 1.429 . S
C1900 C1892 1.574 . S
C1900 H1895 0.949 . S
C1900 C1906 1.368 . S
C1901 C1885 1.349 . S
C1901 H1893 0.950 . S
C1901 C1899 1.327 . S
C1902 C1890 1.349 . S
C1902 H1896 0.950 . S
C1902 C1903 1.327 . S
C1903 H1897 0.950 . S
C1903 C1902 1.327 . S
C1903 C1907 1.429 . S
C1904 C1887 1.574 . S
C1904 H1898 0.949 . S
C1904 C1908 1.368 . S
C1905 C1886 1.429 . S
C1905 C1899 1.429 . S
C1905 C1906 1.523 . S
C1906 C1887 1.368 . S
C1906 C1900 1.368 . S
C1906 C1905 1.523 . S
C1907 C1891 1.429 . S
C1907 C1903 1.429 . S
C1907 C1908 1.523 . S
C1908 C1892 1.368 . S
C1908 C1904 1.368 . S
C1908 C1907 1.523 . S
H1909 C1884 0.950 . S
H1910 C1886 0.950 . S
H1911 C1887 0.949 . S
H1912 C1889 0.950 . S
H1913 C1891 0.950 . S
C1914 C1915 1.349 . S
C1914 C1916 1.327 . S
C1914 H1939 0.950 . S
C1915 C1914 1.349 . S
C1915 C1931 1.349 . S
C1916 C1914 1.327 . S
C1916 C1935 1.429 . S
C1916 H1940 0.950 . S
C1917 C1934 1.574 . S
C1917 C1936 1.368 . S
C1917 H1941 0.949 . S
H1918 C1922 0.949 . S
C1919 C1920 1.349 . S
C1919 C1921 1.327 . S
C1919 H1942 0.950 . S
C1920 C1919 1.349 . S
C1920 C1932 1.349 . S
C1921 C1919 1.327 . S
C1921 C1937 1.429 . S
C1921 H1943 0.950 . S
C1922 H1918 0.949 . S
C1922 C1930 1.574 . S
C1922 C1938 1.368 . S
H1923 C1931 0.950 . S
H1924 C1929 0.950 . S
H1925 C1930 0.949 . S
H1926 C1932 0.950 . S
H1927 C1933 0.950 . S
H1928 C1934 0.949 . S
C1929 H1924 0.950 . S
C1929 C1931 1.327 . S
C1929 C1935 1.429 . S
C1930 C1922 1.574 . S
C1930 H1925 0.949 . S
C1930 C1936 1.368 . S
C1931 C1915 1.349 . S
C1931 H1923 0.950 . S
C1931 C1929 1.327 . S
C1932 C1920 1.349 . S
C1932 H1926 0.950 . S
C1932 C1933 1.327 . S
C1933 H1927 0.950 . S
C1933 C1932 1.327 . S
C1933 C1937 1.429 . S
C1934 C1917 1.574 . S
C1934 H1928 0.949 . S
C1934 C1938 1.368 . S
C1935 C1916 1.429 . S
C1935 C1929 1.429 . S
C1935 C1936 1.523 . S
C1936 C1917 1.368 . S
C1936 C1930 1.368 . S
C1936 C1935 1.523 . S
C1937 C1921 1.429 . S
C1937 C1933 1.429 . S
C1937 C1938 1.523 . S
C1938 C1922 1.368 . S
C1938 C1934 1.368 . S
C1938 C1937 1.523 . S
H1939 C1914 0.950 . S
H1940 C1916 0.950 . S
H1941 C1917 0.949 . S
H1942 C1919 0.950 . S
H1943 C1921 0.950 . S
C595 C116 1.568 . S
C600 C17 1.568 . S
C625 C149 1.567 . S
C630 C50 1.567 . S
C655 C182 1.568 . S
C660 C83 1.567 . S
C685 C61 1.515 . S
C690 C193 1.515 . S
C715 C127 1.515 . S
C720 C94 1.515 . S
C745 C160 1.515 . S
C750 C28 1.515 . S
C775 C314 1.568 . S
C780 C215 1.568 . S
C805 C248 1.567 . S
C810 C347 1.567 . S
C835 C281 1.567 . S
C840 C380 1.567 . S
C865 C259 1.515 . S
C870 C391 1.515 . S
C895 C292 1.515 . S
C900 C325 1.515 . S
C925 C358 1.515 . S
C930 C226 1.515 . S
C955 C413 1.568 . S
C960 C512 1.568 . S
C985 C545 1.567 . S
C990 C446 1.567 . S
C1015 C479 1.567 . S
C1020 C578 1.567 . S
C1045 C457 1.515 . S
C1050 C589 1.515 . S
C1075 C523 1.515 . S
C1080 C490 1.515 . S
C1105 C424 1.515 . S
C1110 C556 1.515 . S
C1135 C8 1.436 . S
C1140 C569 1.436 . S
C1165 C503 1.436 . S
C1170 C41 1.436 . S
C1195 C536 1.437 . S
C1200 C74 1.437 . S
C1225 C239 1.436 . S
C1230 C107 1.436 . S
C1255 C272 1.437 . S
C1260 C140 1.437 . S
C1285 C206 1.436 . S
C1290 C173 1.436 . S
C1315 C437 1.436 . S
C1320 C305 1.436 . S
C1345 C470 1.437 . S
C1350 C338 1.437 . S
C1375 C371 1.436 . S
C1380 C404 1.436 . S
C1405 N5 1.421 . S
C1410 N14 1.417 . S
C1435 N38 1.421 . S
C1440 N47 1.417 . S
C1465 N71 1.421 . S
C1470 N80 1.417 . S
C1495 N113 1.417 . S
C1500 N104 1.421 . S
C1525 N146 1.417 . S
C1530 N137 1.421 . S
C1555 N170 1.421 . S
C1560 N179 1.417 . S
C1585 N203 1.421 1_554 S
C1590 N212 1.417 . S
C1615 N245 1.417 . S
C1620 N236 1.421 1_554 S
C1645 N278 1.417 . S
C1650 N269 1.421 1_554 S
C1675 N302 1.421 . S
C1680 N311 1.417 . S
C1705 N335 1.421 . S
C1710 N344 1.417 . S
C1735 N368 1.421 . S
C1740 N377 1.417 . S
C1765 N401 1.421 . S
C1770 N410 1.417 . S
C1795 N434 1.421 . S
C1800 N443 1.417 . S
C1825 N476 1.417 . S
C1830 N467 1.421 . S
C1855 N500 1.421 1_556 S
C1860 N509 1.417 . S
C1885 N542 1.417 . S
C1890 N533 1.421 1_556 S
C1915 N575 1.417 . S
C1920 N566 1.421 1_556 S
