# Generated by pormake.
# Topology ukd, (4)-cn, num edge types: 1
# Building blocks:
#     Node 0, Type 0, BuildingBlock: NAHDIM_clean_sbu_0, # of connection points: 4
#     Node 1, Type 0, BuildingBlock: NAHDIM_clean_sbu_0, # of connection points: 4
#     Node 2, Type 0, BuildingBlock: NAHDIM_clean_sbu_0, # of connection points: 4
#     Node 3, Type 0, BuildingBlock: NAHDIM_clean_sbu_0, # of connection points: 4
#     Node 4, Type 0, BuildingBlock: NAHDIM_clean_sbu_0, # of connection points: 4
#     Node 5, Type 0, BuildingBlock: NAHDIM_clean_sbu_0, # of connection points: 4
#     Node 6, Type 0, BuildingBlock: NAHDIM_clean_sbu_0, # of connection points: 4
#     Node 7, Type 0, BuildingBlock: NAHDIM_clean_sbu_0, # of connection points: 4
#     Node 8, Type 0, BuildingBlock: NAHDIM_clean_sbu_0, # of connection points: 4
#     Node 9, Type 0, BuildingBlock: NAHDIM_clean_sbu_0, # of connection points: 4
#     Node 10, Type 0, BuildingBlock: NAHDIM_clean_sbu_0, # of connection points: 4
#     Node 11, Type 0, BuildingBlock: NAHDIM_clean_sbu_0, # of connection points: 4
#     Node 12, Type 0, BuildingBlock: NAHDIM_clean_sbu_0, # of connection points: 4
#     Node 13, Type 0, BuildingBlock: NAHDIM_clean_sbu_0, # of connection points: 4
#     Node 14, Type 0, BuildingBlock: NAHDIM_clean_sbu_0, # of connection points: 4
#     Node 15, Type 0, BuildingBlock: NAHDIM_clean_sbu_0, # of connection points: 4
#     Node 16, Type 0, BuildingBlock: NAHDIM_clean_sbu_0, # of connection points: 4
#     Node 17, Type 0, BuildingBlock: NAHDIM_clean_sbu_0, # of connection points: 4
#     Node 18, Type 0, BuildingBlock: NAHDIM_clean_sbu_0, # of connection points: 4
#     Node 19, Type 0, BuildingBlock: NAHDIM_clean_sbu_0, # of connection points: 4
#     Node 20, Type 0, BuildingBlock: NAHDIM_clean_sbu_0, # of connection points: 4
#     Node 21, Type 0, BuildingBlock: NAHDIM_clean_sbu_0, # of connection points: 4
#     Node 22, Type 0, BuildingBlock: NAHDIM_clean_sbu_0, # of connection points: 4
#     Node 23, Type 0, BuildingBlock: NAHDIM_clean_sbu_0, # of connection points: 4
#     Node 24, Type 0, BuildingBlock: NAHDIM_clean_sbu_0, # of connection points: 4
#     Node 25, Type 0, BuildingBlock: NAHDIM_clean_sbu_0, # of connection points: 4
#     Node 26, Type 0, BuildingBlock: NAHDIM_clean_sbu_0, # of connection points: 4
#     Node 27, Type 0, BuildingBlock: NAHDIM_clean_sbu_0, # of connection points: 4
#     Node 28, Type 0, BuildingBlock: NAHDIM_clean_sbu_0, # of connection points: 4
#     Node 29, Type 0, BuildingBlock: NAHDIM_clean_sbu_0, # of connection points: 4
#     Node 30, Type 0, BuildingBlock: NAHDIM_clean_sbu_0, # of connection points: 4
#     Node 31, Type 0, BuildingBlock: NAHDIM_clean_sbu_0, # of connection points: 4
#     Edge 32, Type (0, 0), BuildingBlock: AJUNOK_clean_linker_0, # of connection points: 2
#     Edge 33, Type (0, 0), BuildingBlock: AJUNOK_clean_linker_0, # of connection points: 2
#     Edge 34, Type (0, 0), BuildingBlock: AJUNOK_clean_linker_0, # of connection points: 2
#     Edge 35, Type (0, 0), BuildingBlock: AJUNOK_clean_linker_0, # of connection points: 2
#     Edge 36, Type (0, 0), BuildingBlock: AJUNOK_clean_linker_0, # of connection points: 2
#     Edge 37, Type (0, 0), BuildingBlock: AJUNOK_clean_linker_0, # of connection points: 2
#     Edge 38, Type (0, 0), BuildingBlock: AJUNOK_clean_linker_0, # of connection points: 2
#     Edge 39, Type (0, 0), BuildingBlock: AJUNOK_clean_linker_0, # of connection points: 2
#     Edge 40, Type (0, 0), BuildingBlock: AJUNOK_clean_linker_0, # of connection points: 2
#     Edge 41, Type (0, 0), BuildingBlock: AJUNOK_clean_linker_0, # of connection points: 2
#     Edge 42, Type (0, 0), BuildingBlock: AJUNOK_clean_linker_0, # of connection points: 2
#     Edge 43, Type (0, 0), BuildingBlock: AJUNOK_clean_linker_0, # of connection points: 2
#     Edge 44, Type (0, 0), BuildingBlock: AJUNOK_clean_linker_0, # of connection points: 2
#     Edge 45, Type (0, 0), BuildingBlock: AJUNOK_clean_linker_0, # of connection points: 2
#     Edge 46, Type (0, 0), BuildingBlock: AJUNOK_clean_linker_0, # of connection points: 2
#     Edge 47, Type (0, 0), BuildingBlock: AJUNOK_clean_linker_0, # of connection points: 2
#     Edge 48, Type (0, 0), BuildingBlock: AJUNOK_clean_linker_0, # of connection points: 2
#     Edge 49, Type (0, 0), BuildingBlock: AJUNOK_clean_linker_0, # of connection points: 2
#     Edge 50, Type (0, 0), BuildingBlock: AJUNOK_clean_linker_0, # of connection points: 2
#     Edge 51, Type (0, 0), BuildingBlock: AJUNOK_clean_linker_0, # of connection points: 2
#     Edge 52, Type (0, 0), BuildingBlock: AJUNOK_clean_linker_0, # of connection points: 2
#     Edge 53, Type (0, 0), BuildingBlock: AJUNOK_clean_linker_0, # of connection points: 2
#     Edge 54, Type (0, 0), BuildingBlock: AJUNOK_clean_linker_0, # of connection points: 2
#     Edge 55, Type (0, 0), BuildingBlock: AJUNOK_clean_linker_0, # of connection points: 2
#     Edge 56, Type (0, 0), BuildingBlock: AJUNOK_clean_linker_0, # of connection points: 2
#     Edge 57, Type (0, 0), BuildingBlock: AJUNOK_clean_linker_0, # of connection points: 2
#     Edge 58, Type (0, 0), BuildingBlock: AJUNOK_clean_linker_0, # of connection points: 2
#     Edge 59, Type (0, 0), BuildingBlock: AJUNOK_clean_linker_0, # of connection points: 2
#     Edge 60, Type (0, 0), BuildingBlock: AJUNOK_clean_linker_0, # of connection points: 2
#     Edge 61, Type (0, 0), BuildingBlock: AJUNOK_clean_linker_0, # of connection points: 2
#     Edge 62, Type (0, 0), BuildingBlock: AJUNOK_clean_linker_0, # of connection points: 2
#     Edge 63, Type (0, 0), BuildingBlock: AJUNOK_clean_linker_0, # of connection points: 2
#     Edge 64, Type (0, 0), BuildingBlock: AJUNOK_clean_linker_0, # of connection points: 2
#     Edge 65, Type (0, 0), BuildingBlock: AJUNOK_clean_linker_0, # of connection points: 2
#     Edge 66, Type (0, 0), BuildingBlock: AJUNOK_clean_linker_0, # of connection points: 2
#     Edge 67, Type (0, 0), BuildingBlock: AJUNOK_clean_linker_0, # of connection points: 2
#     Edge 68, Type (0, 0), BuildingBlock: AJUNOK_clean_linker_0, # of connection points: 2
#     Edge 69, Type (0, 0), BuildingBlock: AJUNOK_clean_linker_0, # of connection points: 2
#     Edge 70, Type (0, 0), BuildingBlock: AJUNOK_clean_linker_0, # of connection points: 2
#     Edge 71, Type (0, 0), BuildingBlock: AJUNOK_clean_linker_0, # of connection points: 2
#     Edge 72, Type (0, 0), BuildingBlock: AJUNOK_clean_linker_0, # of connection points: 2
#     Edge 73, Type (0, 0), BuildingBlock: AJUNOK_clean_linker_0, # of connection points: 2
#     Edge 74, Type (0, 0), BuildingBlock: AJUNOK_clean_linker_0, # of connection points: 2
#     Edge 75, Type (0, 0), BuildingBlock: AJUNOK_clean_linker_0, # of connection points: 2
#     Edge 76, Type (0, 0), BuildingBlock: AJUNOK_clean_linker_0, # of connection points: 2
#     Edge 77, Type (0, 0), BuildingBlock: AJUNOK_clean_linker_0, # of connection points: 2
#     Edge 78, Type (0, 0), BuildingBlock: AJUNOK_clean_linker_0, # of connection points: 2
#     Edge 79, Type (0, 0), BuildingBlock: AJUNOK_clean_linker_0, # of connection points: 2
#     Edge 80, Type (0, 0), BuildingBlock: AJUNOK_clean_linker_0, # of connection points: 2
#     Edge 81, Type (0, 0), BuildingBlock: AJUNOK_clean_linker_0, # of connection points: 2
#     Edge 82, Type (0, 0), BuildingBlock: AJUNOK_clean_linker_0, # of connection points: 2
#     Edge 83, Type (0, 0), BuildingBlock: AJUNOK_clean_linker_0, # of connection points: 2
#     Edge 84, Type (0, 0), BuildingBlock: AJUNOK_clean_linker_0, # of connection points: 2
#     Edge 85, Type (0, 0), BuildingBlock: AJUNOK_clean_linker_0, # of connection points: 2
#     Edge 86, Type (0, 0), BuildingBlock: AJUNOK_clean_linker_0, # of connection points: 2
#     Edge 87, Type (0, 0), BuildingBlock: AJUNOK_clean_linker_0, # of connection points: 2
#     Edge 88, Type (0, 0), BuildingBlock: AJUNOK_clean_linker_0, # of connection points: 2
#     Edge 89, Type (0, 0), BuildingBlock: AJUNOK_clean_linker_0, # of connection points: 2
#     Edge 90, Type (0, 0), BuildingBlock: AJUNOK_clean_linker_0, # of connection points: 2
#     Edge 91, Type (0, 0), BuildingBlock: AJUNOK_clean_linker_0, # of connection points: 2
#     Edge 92, Type (0, 0), BuildingBlock: AJUNOK_clean_linker_0, # of connection points: 2
#     Edge 93, Type (0, 0), BuildingBlock: AJUNOK_clean_linker_0, # of connection points: 2
#     Edge 94, Type (0, 0), BuildingBlock: AJUNOK_clean_linker_0, # of connection points: 2
#     Edge 95, Type (0, 0), BuildingBlock: AJUNOK_clean_linker_0, # of connection points: 2
# Relax obj value: 0.152
# Max RMSD: 0.186
# Mean RMSD: 0.186
data_MOF--net-ukd--node1-NAHDIM_clean_sbu_0--edge1-AJUNOK_clean_linker_0
_symmetry_space_group_name_H-M    P1
_symmetry_Int_Tables_number       1
_symmetry_cell_setting            triclinic
loop_
_symmetry_equiv_pos_as_xyz
'x, y, z'
_cell_length_a     32.21479
_cell_length_b     32.257264
_cell_length_c     54.372795
_cell_angle_alpha  89.897996
_cell_angle_beta   90.022295
_cell_angle_gamma 89.993372
loop_
_atom_site_label
_atom_site_type_symbol
_atom_site_fract_x
_atom_site_fract_y
_atom_site_fract_z
_atom_type_partial_charge
C0 C 0.31797 0.18592 0.35192 0.0
O1 O 0.31987 0.1908 0.32797 0.0
O2 O 0.24431 0.21817 0.30854 0.0
Zn3 Zn 0.23169 0.2064 0.3442 0.0
O4 O 0.19552 0.15585 0.34728 0.0
C5 C 0.21126 0.29099 0.36058 0.0
O6 O 0.24716 0.30172 0.35105 0.0
O7 O 0.28396 0.19348 0.36287 0.0
C8 C 0.1571 0.15756 0.34212 0.0
O9 O 0.14187 0.19227 0.33326 0.0
C10 C 0.22055 0.2397 0.29493 0.0
O11 O 0.18651 0.25536 0.30441 0.0
O12 O 0.20012 0.25326 0.35973 0.0
C13 C 0.08289 0.06552 0.6033 0.0
O14 O 0.08771 0.05466 0.58021 0.0
O15 O 0.02382 0.98967 0.57146 0.0
Zn16 Zn 0.04928 0.98414 0.60512 0.0
O17 O 0.10066 0.94863 0.60456 0.0
C18 C 0.96961 0.95964 0.62532 0.0
O19 O 0.95524 0.98738 0.60977 0.0
O20 O 0.06533 0.0403 0.61798 0.0
C21 C 0.0973 0.91035 0.59953 0.0
O22 O 0.06067 0.89588 0.59323 0.0
C23 C 0.04328 0.98294 0.55156 0.0
O24 O 0.08241 0.97155 0.55258 0.0
O25 O 0.00861 0.9549 0.6272 0.0
C26 C 0.17991 0.83147 0.84599 0.0
O27 O 0.18597 0.83817 0.82244 0.0
O28 O 0.24918 0.78559 0.8058 0.0
Zn29 Zn 0.2612 0.79874 0.84114 0.0
O30 O 0.29807 0.84881 0.84358 0.0
C31 C 0.28475 0.71391 0.85617 0.0
O32 O 0.25442 0.70107 0.84194 0.0
O33 O 0.20798 0.8129 0.85822 0.0
C34 C 0.33686 0.84488 0.84012 0.0
O35 O 0.35137 0.80856 0.83341 0.0
C36 C 0.27287 0.76565 0.79143 0.0
O37 O 0.30842 0.75147 0.79979 0.0
O38 O 0.29133 0.75252 0.85828 0.0
C39 C 0.44025 0.94096 0.103 0.0
O40 O 0.44482 0.94286 0.07903 0.0
O41 O 0.48216 0.01961 0.06522 0.0
Zn42 Zn 0.4641 0.02739 0.10035 0.0
O43 O 0.41251 0.06257 0.10309 0.0
C44 C 0.50599 0.08413 0.13367 0.0
O45 O 0.46796 0.09383 0.14017 0.0
O46 O 0.44935 0.97255 0.11588 0.0
C47 C 0.40714 0.09794 0.09331 0.0
O48 O 0.43654 0.11336 0.07926 0.0
C49 C 0.45823 0.01943 0.04664 0.0
O50 O 0.41821 0.02493 0.04993 0.0
O51 O 0.51149 0.05548 0.11799 0.0
C52 C 0.32109 0.82647 0.14414 0.0
O53 O 0.31416 0.82451 0.1679 0.0
O54 O 0.2432 0.77318 0.17726 0.0
Zn55 Zn 0.23793 0.79396 0.14238 0.0
O56 O 0.19885 0.84259 0.14065 0.0
C57 C 0.21621 0.71082 0.12716 0.0
O58 O 0.23966 0.70056 0.14598 0.0
O59 O 0.2934 0.81311 0.12947 0.0
C60 C 0.16061 0.83743 0.14542 0.0
O61 O 0.14794 0.80057 0.1525 0.0
C62 C 0.23641 0.7957 0.19599 0.0
O63 O 0.22524 0.83448 0.19272 0.0
O64 O 0.21283 0.7489 0.12147 0.0
C65 C 0.42737 0.07137 0.40128 0.0
O66 O 0.42116 0.0626 0.42459 0.0
O67 O 0.48648 0.99686 0.43634 0.0
Zn68 Zn 0.46349 0.99052 0.40216 0.0
O69 O 0.41386 0.95263 0.40121 0.0
C70 C 0.54529 0.96765 0.38423 0.0
O71 O 0.5586 0.99408 0.40081 0.0
O72 O 0.4466 0.04536 0.38798 0.0
C73 C 0.41942 0.91394 0.40418 0.0
O74 O 0.4568 0.90066 0.40981 0.0
C75 C 0.4667 0.9878 0.45581 0.0
O76 O 0.42838 0.9742 0.45401 0.0
O77 O 0.5065 0.96322 0.38116 0.0
C78 C 0.19074 0.18945 0.64491 0.0
O79 O 0.1882 0.19989 0.66818 0.0
O80 O 0.26474 0.21918 0.68796 0.0
Zn81 Zn 0.27788 0.20417 0.65311 0.0
O82 O 0.31205 0.15222 0.65138 0.0
C83 C 0.30409 0.27971 0.62498 0.0
O84 O 0.26757 0.28047 0.61423 0.0
O85 O 0.22555 0.19275 0.63404 0.0
C86 C 0.349 0.15057 0.65944 0.0
O87 O 0.3647 0.18336 0.67032 0.0
C88 C 0.26445 0.19462 0.70622 0.0
O89 O 0.27317 0.15527 0.70282 0.0
O90 O 0.31261 0.25079 0.64001 0.0
C91 C 0.06792 0.93702 0.8996 0.0
O92 O 0.07508 0.94068 0.92329 0.0
O93 O 0.02327 0.0007 0.94309 0.0
Zn94 Zn 0.03778 0.01717 0.90855 0.0
O95 O 0.091 0.04934 0.90811 0.0
C96 C 0.95676 0.04577 0.88929 0.0
O97 O 0.94216 0.00937 0.89587 0.0
O98 O 0.04891 0.96619 0.88861 0.0
C99 C 0.09312 0.08596 0.9165 0.0
O100 O 0.06027 0.10189 0.92725 0.0
C101 C -0.00027 0.02059 0.95757 0.0
O102 O 0.98253 0.05525 0.94995 0.0
O103 O 0.99474 0.05399 0.89309 0.0
C104 C 0.69457 0.80342 0.64804 0.0
O105 O 0.69366 0.79214 0.67124 0.0
O106 O 0.77281 0.75993 0.68573 0.0
Zn107 Zn 0.78233 0.78321 0.65184 0.0
O108 O 0.81876 0.83383 0.65257 0.0
C109 C 0.80118 0.70312 0.63001 0.0
O110 O 0.76737 0.69115 0.64151 0.0
O111 O 0.72837 0.80014 0.63612 0.0
C112 C 0.85654 0.83148 0.65912 0.0
O113 O 0.8708 0.7958 0.66718 0.0
C114 C 0.77221 0.78209 0.70501 0.0
O115 O 0.77891 0.82214 0.70304 0.0
O116 O 0.81221 0.74083 0.63145 0.0
C117 C 0.93327 0.92596 0.40297 0.0
O118 O 0.93413 0.93209 0.42682 0.0
O119 O 0.9887 0.00322 0.43645 0.0
Zn120 Zn 0.96527 0.00921 0.40228 0.0
O121 O 0.91536 0.04664 0.4019 0.0
C122 C 0.04617 0.03334 0.38294 0.0
O123 O 0.06076 0.00806 0.39983 0.0
O124 O 0.94721 0.95411 0.38881 0.0
C125 C 0.91948 0.08477 0.40717 0.0
O126 O 0.95601 0.09815 0.41441 0.0
C127 C 0.96657 0.00832 0.45555 0.0
O128 O 0.9272 0.01793 0.45291 0.0
O129 O 0.00716 0.03677 0.38038 0.0
C130 C 0.81647 0.18771 0.15211 0.0
O131 O 0.81655 0.20291 0.17448 0.0
O132 O 0.73793 0.23939 0.18503 0.0
Zn133 Zn 0.73094 0.21704 0.1508 0.0
O134 O 0.68515 0.17459 0.1506 0.0
C135 C 0.71627 0.30036 0.13224 0.0
O136 O 0.7377 0.3118 0.15163 0.0
O137 O 0.78412 0.19122 0.13884 0.0
C138 C 0.64923 0.18693 0.15693 0.0
O139 O 0.64485 0.22543 0.16432 0.0
C140 C 0.73633 0.2149 0.20333 0.0
O141 O 0.7296 0.17531 0.19936 0.0
O142 O 0.7117 0.26196 0.12796 0.0
C143 C 0.56803 0.06682 0.89634 0.0
O144 O 0.56739 0.06153 0.92029 0.0
O145 O 0.5118 0.99147 0.93082 0.0
Zn146 Zn 0.53645 0.98351 0.89713 0.0
O147 O 0.58659 0.94615 0.89764 0.0
C148 C 0.45557 0.96539 0.87677 0.0
O149 O 0.44395 0.99645 0.89075 0.0
O150 O 0.55444 0.03801 0.88261 0.0
C151 C 0.58394 0.90834 0.90404 0.0
O152 O 0.54813 0.89426 0.91203 0.0
C153 C 0.53216 0.98723 0.95065 0.0
O154 O 0.57167 0.97729 0.9495 0.0
O155 O 0.49377 0.95571 0.87598 0.0
C156 C 0.68307 0.18496 0.85459 0.0
O157 O 0.68941 0.18602 0.83075 0.0
O158 O 0.76023 0.2368 0.81982 0.0
Zn159 Zn 0.76598 0.21785 0.85511 0.0
O160 O 0.80482 0.16918 0.8578 0.0
C161 C 0.79263 0.30075 0.86857 0.0
O162 O 0.77202 0.3115 0.8487 0.0
O163 O 0.71095 0.19927 0.8688 0.0
C164 C 0.84366 0.17528 0.85599 0.0
O165 O 0.85688 0.21279 0.85075 0.0
C166 C 0.76836 0.21328 0.80172 0.0
O167 O 0.78112 0.1753 0.80606 0.0
O168 O 0.79193 0.26311 0.8754 0.0
C169 C 0.57719 0.9184 0.60565 0.0
O170 O 0.58222 0.92905 0.58251 0.0
O171 O 0.51963 0.99458 0.57181 0.0
Zn172 Zn 0.54148 0.99878 0.60651 0.0
O173 O 0.59261 0.03434 0.60813 0.0
C174 C 0.46002 0.02165 0.62469 0.0
O175 O 0.44717 0.99412 0.60862 0.0
O176 O 0.55768 0.94291 0.6198 0.0
C177 C 0.591 0.07263 0.6028 0.0
O178 O 0.55581 0.08813 0.5947 0.0
C179 C 0.54173 0.00273 0.55305 0.0
O180 O 0.58059 0.01376 0.55624 0.0
O181 O 0.49878 0.02702 0.62753 0.0
C182 C 0.81703 0.81299 0.3583 0.0
O183 O 0.81525 0.81117 0.3342 0.0
O184 O 0.74244 0.77659 0.31779 0.0
Zn185 Zn 0.73149 0.79079 0.35318 0.0
O186 O 0.69655 0.84237 0.35507 0.0
C187 C 0.70445 0.7071 0.36664 0.0
O188 O 0.73687 0.69451 0.35404 0.0
O189 O 0.78507 0.80309 0.3707 0.0
C190 C 0.65808 0.84019 0.35009 0.0
O191 O 0.64263 0.80455 0.34293 0.0
C192 C 0.71674 0.75743 0.30423 0.0
O193 O 0.68121 0.74514 0.31354 0.0
O194 O 0.69842 0.74568 0.36935 0.0
C195 C 0.93471 0.0703 0.11392 0.0
O196 O 0.94274 0.06939 0.09025 0.0
O197 O 0.95637 0.99181 0.07348 0.0
Zn198 Zn 0.94907 0.98259 0.10981 0.0
O199 O 0.89806 0.94854 0.11631 0.0
C200 C 0.0355 0.9614 0.12109 0.0
O201 O 0.04449 0.99552 0.109 0.0
O202 O 0.93887 0.03728 0.12648 0.0
C203 C 0.88184 0.92279 0.10152 0.0
O204 O 0.89892 0.91695 0.07987 0.0
C205 C 0.97679 0.96817 0.05931 0.0
O206 O 0.99396 0.93454 0.06841 0.0
O207 O 0.99766 0.9514 0.12394 0.0
C208 C 0.82083 0.68017 0.85415 0.0
O209 O 0.81273 0.67947 0.83049 0.0
O210 O 0.74401 0.73411 0.82066 0.0
Zn211 Zn 0.73779 0.71207 0.85529 0.0
O212 O 0.69966 0.66253 0.85601 0.0
C213 C 0.71225 0.79399 0.87184 0.0
O214 O 0.7374 0.8069 0.85441 0.0
O215 O 0.79354 0.69443 0.86878 0.0
C216 C 0.66167 0.66816 0.85066 0.0
O217 O 0.64972 0.70534 0.84373 0.0
C218 C 0.73786 0.7117 0.8018 0.0
O219 O 0.72659 0.67291 0.80488 0.0
O220 O 0.70983 0.75538 0.8762 0.0
C221 C 0.55166 0.56502 0.10128 0.0
O222 O 0.546 0.56806 0.07743 0.0
O223 O 0.53212 0.49244 0.05612 0.0
Zn224 Zn 0.53782 0.47836 0.09199 0.0
O225 O 0.58964 0.44545 0.09761 0.0
C226 C 0.45451 0.45702 0.11052 0.0
O227 O 0.44645 0.49686 0.10898 0.0
O228 O 0.54599 0.53019 0.11169 0.0
C229 C 0.59795 0.41173 0.0867 0.0
O230 O 0.57202 0.39771 0.07 0.0
C231 C 0.50595 0.47603 0.04167 0.0
O232 O 0.48121 0.4469 0.05008 0.0
O233 O 0.49018 0.44391 0.10431 0.0
C234 C 0.68505 0.30753 0.35388 0.0
O235 O 0.6889 0.30059 0.33021 0.0
O236 O 0.76511 0.25927 0.32035 0.0
Zn237 Zn 0.77109 0.28247 0.35448 0.0
O238 O 0.80758 0.33296 0.35441 0.0
C239 C 0.79471 0.20157 0.37317 0.0
O240 O 0.76707 0.18832 0.35723 0.0
O241 O 0.71556 0.29984 0.36802 0.0
C242 C 0.84499 0.33073 0.34717 0.0
O243 O 0.85873 0.29531 0.3385 0.0
C244 C 0.7674 0.28163 0.30116 0.0
O245 O 0.77434 0.32157 0.30353 0.0
O246 O 0.79975 0.24035 0.3758 0.0
C247 C 0.9291 0.42913 0.59866 0.0
O248 O 0.92447 0.43695 0.5751 0.0
O249 O 0.98932 0.49885 0.56198 0.0
Zn250 Zn 0.96699 0.50843 0.59611 0.0
O251 O 0.91749 0.54637 0.59621 0.0
C252 C 0.04925 0.53363 0.61195 0.0
O253 O 0.06182 0.50655 0.59554 0.0
O254 O 0.94879 0.45507 0.6118 0.0
C255 C 0.9225 0.58512 0.5933 0.0
O256 O 0.95976 0.59905 0.58797 0.0
C257 C 0.96992 0.5079 0.54236 0.0
O258 O 0.93248 0.52383 0.54395 0.0
O259 O 0.01064 0.53735 0.61603 0.0
C260 C 0.8162 0.3143 0.64586 0.0
O261 O 0.81179 0.31582 0.66986 0.0
O262 O 0.74723 0.25441 0.68344 0.0
Zn263 Zn 0.73664 0.27381 0.64874 0.0
O264 O 0.69235 0.31777 0.64722 0.0
C265 C 0.7176 0.18866 0.63474 0.0
O266 O 0.74201 0.17871 0.65318 0.0
O267 O 0.78836 0.29656 0.6331 0.0
C268 C 0.65512 0.30574 0.65019 0.0
O269 O 0.64851 0.26725 0.65708 0.0
C270 C 0.73889 0.27574 0.70242 0.0
O271 O 0.72289 0.31292 0.69963 0.0
O272 O 0.71338 0.2266 0.62901 0.0
C273 C 0.94956 0.57274 0.8922 0.0
O274 O 0.96136 0.57313 0.9153 0.0
O275 O 0.99113 0.49327 0.9297 0.0
Zn276 Zn 0.97356 0.48583 0.89455 0.0
O277 O 0.924 0.448 0.89226 0.0
C278 C 0.01714 0.42978 0.8618 0.0
O279 O 0.97937 0.4187 0.85551 0.0
O280 O 0.95527 0.54009 0.87954 0.0
C281 C 0.92009 0.41375 0.90359 0.0
O282 O 0.94961 0.40185 0.9187 0.0
C283 C 0.96576 0.49612 0.94748 0.0
O284 O 0.92575 0.49417 0.94295 0.0
O285 O 0.02187 0.45941 0.87693 0.0
C286 C 0.67066 0.6721 0.1485 0.0
O287 O 0.67927 0.66865 0.17202 0.0
O288 O 0.73502 0.72959 0.18512 0.0
Zn289 Zn 0.74669 0.71743 0.1495 0.0
O290 O 0.79492 0.67762 0.14619 0.0
C291 C 0.76395 0.8048 0.14114 0.0
O292 O 0.75018 0.80898 0.16372 0.0
O293 O 0.69554 0.69206 0.13473 0.0
C294 C 0.83128 0.69295 0.14555 0.0
O295 O 0.83564 0.73322 0.14805 0.0
C296 C 0.76177 0.72805 0.20224 0.0
O297 O 0.80058 0.7196 0.19687 0.0
O298 O 0.76262 0.76927 0.13114 0.0
C299 C 0.56448 0.42651 0.38835 0.0
O300 O 0.55905 0.43358 0.41189 0.0
O301 O 0.51127 0.50487 0.41977 0.0
Zn302 Zn 0.53313 0.50959 0.38512 0.0
O303 O 0.58155 0.54884 0.3842 0.0
C304 C 0.45152 0.53604 0.36881 0.0
O305 O 0.43857 0.51362 0.38749 0.0
O306 O 0.55328 0.45408 0.37294 0.0
C307 C 0.5746 0.58697 0.38828 0.0
O308 O 0.53665 0.59848 0.39388 0.0
C309 C 0.53403 0.51336 0.43818 0.0
O310 O 0.57237 0.52561 0.43439 0.0
O311 O 0.48986 0.53577 0.36343 0.0
C312 C 0.17744 0.33633 0.14072 0.0
O313 O 0.19189 0.34419 0.16282 0.0
O314 O 0.2413 0.27763 0.17652 0.0
Zn315 Zn 0.25244 0.29267 0.14113 0.0
O316 O 0.29331 0.33997 0.13914 0.0
C317 C 0.27743 0.20752 0.12938 0.0
O318 O 0.25649 0.19761 0.14926 0.0
O319 O 0.19858 0.31304 0.12661 0.0
C320 C 0.33194 0.33225 0.13787 0.0
O321 O 0.34436 0.29353 0.1393 0.0
C322 C 0.26787 0.26733 0.19266 0.0
O323 O 0.30706 0.26386 0.18632 0.0
O324 O 0.27745 0.24501 0.12218 0.0
C325 C 0.43358 0.43349 0.88547 0.0
O326 O 0.44398 0.43298 0.90882 0.0
O327 O 0.46387 0.50951 0.92601 0.0
Zn328 Zn 0.45332 0.52032 0.89008 0.0
O329 O 0.40422 0.55821 0.88634 0.0
C330 C 0.53975 0.542 0.87627 0.0
O331 O 0.55141 0.5096 0.88922 0.0
O332 O 0.43787 0.4669 0.87327 0.0
C333 C 0.40779 0.59626 0.8919 0.0
O334 O 0.44307 0.60931 0.90119 0.0
C335 C 0.48796 0.53017 0.93982 0.0
O336 O 0.50786 0.56221 0.93069 0.0
O337 O 0.50131 0.54988 0.87411 0.0
C338 C 0.32022 0.66359 0.63702 0.0
O339 O 0.30864 0.65518 0.65965 0.0
O340 O 0.25455 0.71848 0.6753 0.0
Zn341 Zn 0.24372 0.70457 0.63983 0.0
O342 O 0.20476 0.65592 0.63792 0.0
C343 C 0.22485 0.79023 0.62515 0.0
O344 O 0.25671 0.80029 0.639 0.0
O345 O 0.2972 0.68693 0.62398 0.0
C346 C 0.16623 0.66093 0.64192 0.0
O347 O 0.15274 0.69795 0.64793 0.0
C348 C 0.23009 0.73993 0.68844 0.0
O349 O 0.19615 0.75501 0.67848 0.0
O350 O 0.21586 0.75217 0.62242 0.0
C351 C 0.07418 0.56904 0.39181 0.0
O352 O 0.07595 0.56137 0.41551 0.0
O353 O 0.02105 0.49223 0.42648 0.0
Zn354 Zn 0.04188 0.48648 0.39167 0.0
O355 O 0.09196 0.44933 0.38985 0.0
C356 C 0.95961 0.46054 0.37644 0.0
O357 O 0.94741 0.48567 0.394 0.0
O358 O 0.05852 0.54181 0.3777 0.0
C359 C 0.08715 0.41053 0.39262 0.0
O360 O 0.05015 0.39646 0.39845 0.0
C361 C 0.0428 0.48329 0.44525 0.0
O362 O 0.08092 0.46989 0.44209 0.0
O363 O 0.99802 0.45836 0.3714 0.0
C364 C 0.187 0.68769 0.34857 0.0
O365 O 0.19248 0.68667 0.32465 0.0
O366 O 0.2605 0.74459 0.31275 0.0
Zn367 Zn 0.26953 0.71989 0.34643 0.0
O368 O 0.30449 0.66831 0.34496 0.0
C369 C 0.29509 0.79933 0.36695 0.0
O370 O 0.26497 0.81429 0.35325 0.0
O371 O 0.21537 0.70318 0.36195 0.0
C372 C 0.3424 0.66985 0.33862 0.0
O373 O 0.35793 0.70553 0.33144 0.0
C374 C 0.26462 0.72381 0.29308 0.0
O375 O 0.27514 0.68453 0.29459 0.0
O376 O 0.30105 0.76043 0.36737 0.0
C377 C 0.05162 0.44562 0.1016 0.0
O378 O 0.0428 0.44536 0.07803 0.0
O379 O 0.0097 0.52713 0.06427 0.0
Zn380 Zn 0.0283 0.53332 0.09935 0.0
O381 O 0.07919 0.56971 0.10269 0.0
C382 C 0.97644 0.59824 0.11618 0.0
O383 O 0.00458 0.61929 0.10398 0.0
O384 O 0.04505 0.47835 0.11401 0.0
C385 C 0.09232 0.59789 0.08829 0.0
O386 O 0.07137 0.6066 0.06819 0.0
C387 C 0.03313 0.52143 0.04583 0.0
O388 O 0.07347 0.51919 0.04917 0.0
O389 O 0.98022 0.55909 0.11776 0.0
C390 C 0.31152 0.31694 0.84969 0.0
O391 O 0.30132 0.31464 0.82637 0.0
O392 O 0.23902 0.24884 0.82198 0.0
Zn393 Zn 0.23259 0.27706 0.85476 0.0
O394 O 0.19038 0.32297 0.85262 0.0
C395 C 0.21771 0.19744 0.8777 0.0
O396 O 0.24456 0.18442 0.86126 0.0
O397 O 0.28715 0.30143 0.86565 0.0
C398 C 0.1532 0.31437 0.84674 0.0
O399 O 0.14387 0.27581 0.84125 0.0
C400 C 0.22989 0.26711 0.802 0.0
O401 O 0.21606 0.3054 0.80282 0.0
O402 O 0.20999 0.23597 0.87905 0.0
C403 C 0.44186 0.55447 0.59299 0.0
O404 O 0.44658 0.55321 0.56903 0.0
O405 O 0.49506 0.48333 0.55557 0.0
Zn406 Zn 0.47526 0.47164 0.58988 0.0
O407 O 0.42796 0.43053 0.59008 0.0
C408 C 0.52697 0.40683 0.60527 0.0
O409 O 0.50382 0.38866 0.58858 0.0
O410 O 0.45407 0.52378 0.60582 0.0
C411 C 0.41901 0.41706 0.6114 0.0
O412 O 0.43843 0.43272 0.6305 0.0
C413 C 0.47268 0.47753 0.53666 0.0
O414 O 0.4351 0.46239 0.5394 0.0
O415 O 0.52222 0.44541 0.60917 0.0
C416 C 0.11342 0.33825 0.38744 0.0
C417 C 0.12118 0.38113 0.38666 0.0
C418 C 0.14316 0.30957 0.3796 0.0
C419 C 0.18211 0.32242 0.37061 0.0
H420 H 0.08366 0.32652 0.39358 0.0
H421 H 0.135 0.27701 0.38013 0.0
S422 S 0.21949 0.43115 0.36666 0.0
N423 N 0.17185 0.43506 0.37759 0.0
N424 N 0.2278 0.38108 0.36283 0.0
C425 C 0.19101 0.36516 0.3706 0.0
C426 C 0.16059 0.39449 0.37863 0.0
C427 C 0.89798 0.9323 0.6327 0.0
C428 C 0.94085 0.92996 0.63748 0.0
C429 C 0.87071 0.90137 0.64086 0.0
C430 C 0.88513 0.86667 0.6541 0.0
H431 H 0.8854 0.95742 0.62175 0.0
H432 H 0.83827 0.904 0.63583 0.0
S433 S 0.99371 0.84853 0.67446 0.0
N434 N 0.99582 0.89215 0.65861 0.0
N435 N 0.94458 0.83405 0.67385 0.0
C436 C 0.92751 0.86522 0.66037 0.0
C437 C 0.95533 0.89682 0.65209 0.0
C438 C 0.34098 0.61318 0.8705 0.0
C439 C 0.37444 0.62607 0.88532 0.0
C440 C 0.31135 0.64151 0.86185 0.0
C441 C 0.31389 0.6839 0.86769 0.0
H442 H 0.33824 0.58112 0.86484 0.0
H443 H 0.28698 0.63015 0.8499 0.0
S444 S 0.39284 0.73293 0.90819 0.0
N445 N 0.40643 0.68364 0.9071 0.0
N446 N 0.35085 0.73682 0.89096 0.0
C447 C 0.3461 0.69691 0.88346 0.0
C448 C 0.37631 0.66804 0.89223 0.0
C449 C 0.58262 0.09565 0.13718 0.0
C450 C 0.54194 0.10907 0.14228 0.0
C451 C 0.61711 0.12036 0.1428 0.0
C452 C 0.61243 0.15969 0.15363 0.0
H453 H 0.58796 0.06611 0.12829 0.0
H454 H 0.64763 0.10888 0.13794 0.0
S455 S 0.51266 0.20838 0.17212 0.0
N456 N 0.49908 0.16355 0.15997 0.0
N457 N 0.56378 0.20997 0.17047 0.0
C458 C 0.57199 0.1729 0.15967 0.0
C459 C 0.53683 0.14761 0.15402 0.0
C460 C 0.16131 0.69212 0.09644 0.0
C461 C 0.18908 0.67961 0.11507 0.0
C462 C 0.13138 0.66489 0.08701 0.0
C463 C 0.12779 0.62413 0.09595 0.0
H464 H 0.16164 0.72369 0.08961 0.0
H465 H 0.10975 0.67653 0.07339 0.0
S466 S 0.19647 0.57393 0.14206 0.0
N467 N 0.21371 0.62202 0.14019 0.0
N468 N 0.15726 0.57111 0.12259 0.0
C469 C 0.1568 0.61042 0.11353 0.0
C470 C 0.1875 0.63805 0.12303 0.0
C471 C 0.61697 0.93932 0.37849 0.0
C472 C 0.57461 0.93859 0.37216 0.0
C473 C 0.64424 0.90847 0.37026 0.0
C474 C 0.6302 0.87557 0.35547 0.0
H475 H 0.62898 0.96296 0.39068 0.0
H476 H 0.67618 0.90955 0.37647 0.0
S477 S 0.52354 0.86243 0.33077 0.0
N478 N 0.52092 0.90449 0.34793 0.0
N479 N 0.57213 0.84655 0.33264 0.0
C480 C 0.58852 0.87585 0.34774 0.0
C481 C 0.56076 0.90735 0.35602 0.0
C482 C 0.32876 0.34285 0.60208 0.0
C483 C 0.33445 0.31379 0.62116 0.0
C484 C 0.35654 0.37596 0.59872 0.0
C485 C 0.39046 0.38164 0.61464 0.0
H486 H 0.30267 0.34006 0.58962 0.0
H487 H 0.35098 0.39768 0.58386 0.0
S488 S 0.42076 0.31349 0.66667 0.0
N489 N 0.37809 0.29229 0.65558 0.0
N490 N 0.42944 0.3547 0.64943 0.0
C491 C 0.39685 0.35266 0.63357 0.0
C492 C 0.36909 0.31868 0.63678 0.0
C493 C 0.88567 0.07174 0.87848 0.0
C494 C 0.92888 0.07807 0.87888 0.0
C495 C 0.85851 0.10287 0.87035 0.0
C496 C 0.87338 0.14162 0.86225 0.0
H497 H 0.87251 0.04287 0.88502 0.0
H498 H 0.82547 0.09668 0.87099 0.0
S499 S 0.98415 0.17279 0.85765 0.0
N500 N 0.98548 0.12532 0.86896 0.0
N501 N 0.93452 0.1836 0.85374 0.0
C502 C 0.91663 0.14784 0.8617 0.0
C503 C 0.94431 0.11617 0.87001 0.0
C504 C 0.89692 0.6574 0.59979 0.0
C505 C 0.88866 0.61458 0.59953 0.0
C506 C 0.86777 0.68578 0.60875 0.0
C507 C 0.82903 0.67263 0.61789 0.0
H508 H 0.92675 0.66919 0.59382 0.0
H509 H 0.87641 0.71822 0.60924 0.0
S510 S 0.78991 0.56432 0.61851 0.0
N511 N 0.83726 0.5607 0.60713 0.0
N512 N 0.7825 0.61408 0.62402 0.0
C513 C 0.81939 0.63013 0.6165 0.0
C514 C 0.84915 0.60113 0.60731 0.0
C515 C 0.14412 0.09098 0.36457 0.0
C516 C 0.12913 0.12305 0.34937 0.0
C517 C 0.11735 0.06104 0.37446 0.0
C518 C 0.07449 0.0618 0.36948 0.0
H519 H 0.17658 0.08979 0.36974 0.0
H520 H 0.13029 0.038 0.38678 0.0
S521 S 0.02038 0.13602 0.32803 0.0
N522 N 0.06924 0.15136 0.32785 0.0
N523 N 0.01895 0.09513 0.34629 0.0
C524 C 0.05947 0.09223 0.35308 0.0
C525 C 0.08676 0.12283 0.34308 0.0
C526 C 0.6347 0.3436 0.08896 0.0
C527 C 0.63295 0.38572 0.09546 0.0
C528 C 0.66337 0.31674 0.09998 0.0
C529 C 0.69153 0.33089 0.11794 0.0
H530 H 0.61252 0.3307 0.0761 0.0
H531 H 0.66209 0.28424 0.09508 0.0
S532 S 0.70442 0.43993 0.13835 0.0
N533 N 0.66536 0.44148 0.11872 0.0
N534 N 0.71921 0.39097 0.13944 0.0
C535 C 0.69217 0.37355 0.12327 0.0
C536 C 0.66289 0.40095 0.11205 0.0
C537 C 0.43759 0.90109 0.85353 0.0
C538 C 0.42446 0.93817 0.86472 0.0
C539 C 0.40899 0.87205 0.84472 0.0
C540 C 0.36597 0.87881 0.84664 0.0
H541 H 0.47029 0.89355 0.85228 0.0
H542 H 0.4209 0.84346 0.83705 0.0
S543 S 0.31527 0.97328 0.8716 0.0
N544 N 0.36542 0.98181 0.8752 0.0
N545 N 0.3116 0.92724 0.85858 0.0
C546 C 0.35233 0.91681 0.85652 0.0
C547 C 0.38157 0.94645 0.86557 0.0
C548 C 0.85624 0.398 0.87913 0.0
C549 C 0.88478 0.38597 0.89745 0.0
C550 C 0.82536 0.37092 0.8708 0.0
C551 C 0.82155 0.33059 0.8804 0.0
H552 H 0.85847 0.4282 0.8705 0.0
H553 H 0.80522 0.38138 0.85608 0.0
S554 S 0.88527 0.28536 0.93076 0.0
N555 N 0.90486 0.3321 0.92649 0.0
N556 N 0.84679 0.28116 0.91087 0.0
C557 C 0.84837 0.31888 0.89971 0.0
C558 C 0.87996 0.34653 0.9082 0.0
C559 C 0.41885 0.11699 0.65734 0.0
C560 C 0.37572 0.11439 0.6536 0.0
C561 C 0.4456 0.08584 0.64898 0.0
C562 C 0.43039 0.05074 0.6365 0.0
H563 H 0.4324 0.14407 0.66592 0.0
H564 H 0.47866 0.09029 0.65149 0.0
S565 S 0.3194 0.0259 0.62535 0.0
N566 N 0.31856 0.07155 0.63902 0.0
N567 N 0.36888 0.01307 0.62326 0.0
C568 C 0.38711 0.04644 0.63402 0.0
C569 C 0.3598 0.07822 0.64257 0.0
C570 C 0.67915 0.63425 0.3721 0.0
C571 C 0.67222 0.67707 0.37469 0.0
C572 C 0.64782 0.60536 0.37723 0.0
C573 C 0.60814 0.61808 0.38506 0.0
H574 H 0.70878 0.62284 0.36556 0.0
H575 H 0.65459 0.57281 0.37446 0.0
S576 S 0.57443 0.72665 0.39604 0.0
N577 N 0.62299 0.73073 0.38672 0.0
N578 N 0.56424 0.67653 0.39622 0.0
C579 C 0.60114 0.66076 0.38849 0.0
C580 C 0.6331 0.6902 0.38336 0.0
C581 C 0.08754 0.86344 0.14462 0.0
C582 C 0.13009 0.87123 0.14109 0.0
C583 C 0.05751 0.89324 0.1388 0.0
C584 C 0.06861 0.93224 0.12914 0.0
H585 H 0.07706 0.83366 0.15145 0.0
H586 H 0.02519 0.88506 0.14139 0.0
S587 S 0.17609 0.96978 0.11839 0.0
N588 N 0.18204 0.92204 0.12879 0.0
N589 N 0.12553 0.97804 0.1178 0.0
C590 C 0.11114 0.94113 0.12636 0.0
C591 C 0.14186 0.91069 0.13235 0.0
C592 C 0.68427 0.86575 0.87751 0.0
C593 C 0.6825 0.8233 0.88344 0.0
C594 C 0.65332 0.89331 0.88527 0.0
C595 C 0.6191 0.87961 0.89921 0.0
H596 H 0.70903 0.87772 0.86605 0.0
H597 H 0.65553 0.92535 0.87942 0.0
S598 S 0.60225 0.77248 0.92228 0.0
N599 N 0.64554 0.7696 0.90616 0.0
N600 N 0.58739 0.82138 0.92061 0.0
C601 C 0.61812 0.83771 0.90648 0.0
C602 C 0.64979 0.80961 0.89866 0.0
C603 C 0.43364 0.38496 0.12195 0.0
C604 C 0.42256 0.42686 0.11883 0.0
C605 C 0.40433 0.35507 0.12872 0.0
C606 C 0.36248 0.36561 0.1326 0.0
H607 H 0.46529 0.37481 0.11891 0.0
H608 H 0.41465 0.32324 0.13046 0.0
S609 S 0.31736 0.47137 0.12802 0.0
N610 N 0.36684 0.4777 0.12107 0.0
N611 N 0.3116 0.42142 0.13374 0.0
C612 C 0.35098 0.40758 0.13014 0.0
C613 C 0.38101 0.43818 0.12327 0.0
C614 C 0.8504 0.10106 0.38839 0.0
C615 C 0.8853 0.11436 0.40184 0.0
C616 C 0.82031 0.12924 0.38018 0.0
C617 C 0.82372 0.17191 0.38514 0.0
H618 H 0.84698 0.0688 0.38328 0.0
H619 H 0.79495 0.11751 0.36911 0.0
S620 S 0.9063 0.22202 0.42248 0.0
N621 N 0.91941 0.17257 0.42181 0.0
N622 N 0.86289 0.22552 0.40649 0.0
C623 C 0.85716 0.18531 0.39986 0.0
C624 C 0.88791 0.15657 0.40816 0.0
C625 C 0.14986 0.5909 0.62467 0.0
C626 C 0.13657 0.62666 0.63722 0.0
C627 C 0.12165 0.56015 0.6175 0.0
C628 C 0.07902 0.56372 0.62271 0.0
H629 H 0.18213 0.58721 0.61951 0.0
H630 H 0.13331 0.53398 0.60713 0.0
S631 S 0.02891 0.64911 0.65767 0.0
N632 N 0.07837 0.66222 0.65638 0.0
N633 N 0.02539 0.60447 0.64305 0.0
C634 C 0.06562 0.59827 0.63644 0.0
C635 C 0.09435 0.62971 0.64363 0.0
C636 C 0.62356 0.14294 0.60288 0.0
C637 C 0.62664 0.10036 0.60821 0.0
C638 C 0.65425 0.17087 0.61041 0.0
C639 C 0.68929 0.15748 0.62375 0.0
H640 H 0.59655 0.15518 0.59347 0.0
H641 H 0.64942 0.2035 0.60662 0.0
S642 S 0.71495 0.04857 0.6398 0.0
N643 N 0.66972 0.04558 0.62564 0.0
N644 N 0.72724 0.09825 0.63995 0.0
C645 C 0.69398 0.11473 0.62804 0.0
C646 C 0.66275 0.08614 0.62023 0.0
C647 C 0.07888 0.33546 0.84212 0.0
C648 C 0.12005 0.34634 0.84793 0.0
C649 C 0.04613 0.36344 0.84546 0.0
C650 C 0.05308 0.40344 0.8549 0.0
H651 H 0.07155 0.30462 0.83558 0.0
H652 H 0.0149 0.35286 0.84154 0.0
S653 S 0.15562 0.44922 0.87021 0.0
N654 N 0.16638 0.40143 0.86146 0.0
N655 N 0.10475 0.45388 0.86787 0.0
C656 C 0.09432 0.41555 0.85957 0.0
C657 C 0.12778 0.38707 0.85605 0.0
C658 C 0.83887 0.85859 0.09782 0.0
C659 C 0.84703 0.89624 0.10986 0.0
C660 C 0.81014 0.83021 0.10734 0.0
C661 C 0.78829 0.8384 0.12925 0.0
H662 H 0.85615 0.85 0.08152 0.0
H663 H 0.80649 0.80086 0.09794 0.0
S664 S 0.79321 0.93577 0.16548 0.0
N665 N 0.82726 0.94254 0.14316 0.0
N666 N 0.77316 0.8893 0.16101 0.0
C667 C 0.79397 0.87726 0.14048 0.0
C668 C 0.82337 0.90612 0.13082 0.0
C669 C 0.38074 0.56632 0.3629 0.0
C670 C 0.42336 0.56698 0.3573 0.0
C671 C 0.35442 0.5987 0.35565 0.0
C672 C 0.36967 0.63332 0.34266 0.0
H673 H 0.36773 0.54129 0.37373 0.0
H674 H 0.32218 0.59727 0.36124 0.0
S675 S 0.47796 0.64803 0.32093 0.0
N676 N 0.47892 0.60355 0.33595 0.0
N677 N 0.4295 0.66441 0.3225 0.0
C678 C 0.41174 0.63326 0.33568 0.0
C679 C 0.43854 0.60011 0.34293 0.0
C680 C 0.36826 0.16519 0.09265 0.0
C681 C 0.37054 0.12353 0.10022 0.0
C682 C 0.33685 0.19151 0.10125 0.0
C683 C 0.30639 0.17736 0.11786 0.0
H684 H 0.39172 0.17815 0.08062 0.0
H685 H 0.33757 0.22369 0.09552 0.0
S686 S 0.295 0.06948 0.14082 0.0
N687 N 0.33696 0.06823 0.12342 0.0
N688 N 0.27816 0.11777 0.13963 0.0
C689 C 0.30689 0.13518 0.1245 0.0
C690 C 0.33886 0.10828 0.11568 0.0
C691 C 0.61319 0.56724 0.87275 0.0
C692 C 0.57088 0.57231 0.86701 0.0
C693 C 0.64254 0.59769 0.86661 0.0
C694 C 0.6308 0.63453 0.85453 0.0
H695 H 0.62371 0.54011 0.88272 0.0
H696 H 0.67449 0.59275 0.8721 0.0
S697 S 0.52457 0.66122 0.8331 0.0
N698 N 0.51928 0.61584 0.84677 0.0
N699 N 0.57429 0.67287 0.83536 0.0
C700 C 0.5889 0.63919 0.84769 0.0
C701 C 0.55902 0.60816 0.85389 0.0
C702 C 0.15785 0.80998 0.60509 0.0
C703 C 0.1956 0.82234 0.6159 0.0
C704 C 0.12709 0.83886 0.599 0.0
C705 C 0.13267 0.88146 0.60336 0.0
H706 H 0.15119 0.77748 0.60203 0.0
H707 H 0.09817 0.82736 0.59147 0.0
S708 S 0.22785 0.93078 0.62856 0.0
N709 N 0.2383 0.88068 0.62874 0.0
N710 N 0.18051 0.93506 0.61721 0.0
C711 C 0.17117 0.89462 0.61291 0.0
C712 C 0.20257 0.86507 0.6192 0.0
C713 C 0.88786 0.43178 0.37223 0.0
C714 C 0.93004 0.43032 0.36558 0.0
C715 C 0.86026 0.40039 0.36523 0.0
C716 C 0.87367 0.36607 0.35137 0.0
H717 H 0.8762 0.45664 0.38366 0.0
H718 H 0.82845 0.40241 0.37158 0.0
S719 S 0.97992 0.34974 0.32672 0.0
N720 N 0.9831 0.39342 0.34236 0.0
N721 N 0.93124 0.33444 0.32932 0.0
C722 C 0.91524 0.36533 0.34341 0.0
C723 C 0.94338 0.39744 0.35046 0.0
C724 C 0.31928 0.8709 0.3776 0.0
C725 C 0.32476 0.82772 0.3794 0.0
C726 C 0.34914 0.89853 0.38669 0.0
C727 C 0.38588 0.88417 0.39788 0.0
H728 H 0.29226 0.88365 0.36844 0.0
H729 H 0.34395 0.93142 0.38407 0.0
S730 S 0.41337 0.77403 0.40958 0.0
N731 N 0.36839 0.77192 0.39512 0.0
N732 N 0.42442 0.8238 0.41208 0.0
C733 C 0.39082 0.8411 0.40092 0.0
C734 C 0.36033 0.81291 0.39173 0.0
C735 C 0.94152 0.66355 0.12888 0.0
C736 C 0.93981 0.62024 0.1262 0.0
C737 C 0.90659 0.68634 0.13588 0.0
C738 C 0.86821 0.6669 0.14033 0.0
H739 H 0.96999 0.68028 0.12512 0.0
H740 H 0.90965 0.7197 0.13716 0.0
S741 S 0.84769 0.55372 0.13738 0.0
N742 N 0.89709 0.55832 0.12976 0.0
N743 N 0.83111 0.60127 0.14282 0.0
C744 C 0.86629 0.62338 0.13855 0.0
C745 C 0.90215 0.60003 0.13155 0.0
C746 C 0.157 0.18256 0.90495 0.0
C747 C 0.19091 0.16765 0.89121 0.0
C748 C 0.12682 0.15562 0.91432 0.0
C749 C 0.12923 0.11262 0.91036 0.0
H750 H 0.1525 0.21553 0.90756 0.0
H751 H 0.10037 0.16898 0.92371 0.0
S752 S 0.21562 0.05699 0.87939 0.0
N753 N 0.22793 0.10649 0.87689 0.0
N754 N 0.17123 0.05581 0.89454 0.0
C755 C 0.16466 0.09694 0.89833 0.0
C756 C 0.19547 0.12445 0.88876 0.0
C757 C 0.59577 0.39941 0.62629 0.0
C758 C 0.55753 0.38214 0.61928 0.0
C759 C 0.62673 0.37482 0.63718 0.0
C760 C 0.62019 0.33232 0.64188 0.0
H761 H 0.60248 0.43166 0.62238 0.0
H762 H 0.65636 0.38903 0.64138 0.0
S763 S 0.52296 0.27381 0.62965 0.0
N764 N 0.51332 0.32112 0.61957 0.0
N765 N 0.57085 0.2751 0.64042 0.0
C766 C 0.58102 0.31541 0.63623 0.0
C767 C 0.54988 0.34026 0.6248 0.0
C768 C 0.28255 0.24249 0.23546 0.0
C769 C 0.25473 0.26023 0.21851 0.0
C770 C 0.27113 0.23585 0.26003 0.0
C771 C 0.2315 0.24699 0.26875 0.0
H772 H 0.31347 0.23348 0.22975 0.0
H773 H 0.29378 0.22208 0.2723 0.0
S774 S 0.14694 0.29474 0.23185 0.0
N775 N 0.18553 0.28889 0.21223 0.0
N776 N 0.16425 0.27661 0.25834 0.0
C777 C 0.20332 0.26483 0.252 0.0
C778 C 0.21486 0.27135 0.22693 0.0
C779 C 0.04553 0.98498 0.50559 0.0
C780 C 0.02258 0.98926 0.52744 0.0
C781 C 0.02716 0.99131 0.48255 0.0
C782 C 0.98497 0.00216 0.48033 0.0
H783 H 0.07814 0.9768 0.50619 0.0
H784 H 0.04634 0.98764 0.46635 0.0
S785 S 0.91079 0.01678 0.5319 0.0
N786 N 0.95507 0.00472 0.54539 0.0
N787 N 0.92057 0.01663 0.50211 0.0
C788 C 0.96153 0.00643 0.50203 0.0
C789 C 0.98028 -1e-05 0.52555 0.0
C790 C 0.27837 0.73401 0.7243 0.0
C791 C 0.23991 0.74716 0.71474 0.0
C792 C 0.2886 0.73997 0.74907 0.0
C793 C 0.26082 0.75928 0.76537 0.0
H794 H 0.301 0.71903 0.71257 0.0
H795 H 0.3187 0.72941 0.75541 0.0
S796 S 0.15551 0.79864 0.74979 0.0
N797 N 0.17355 0.77991 0.72368 0.0
N798 N 0.19266 0.79104 0.7702 0.0
C799 C 0.22208 0.77243 0.7561 0.0
C800 C 0.21169 0.76641 0.73082 0.0
C801 C 0.51871 0.0047 0.01919 0.0
C802 C 0.47573 0.01142 0.02182 0.0
C803 C 0.53646 0.99665 0.9962 0.0
C804 C 0.51208 0.99509 0.97477 0.0
H805 H 0.53907 0.00561 0.03504 0.0
H806 H 0.56971 0.99189 0.99528 0.0
S807 S 0.39777 0.00972 0.97148 0.0
N808 N 0.40903 0.01543 0.00089 0.0
N809 N 0.44238 0.00035 0.95766 0.0
C810 C 0.46898 0.00159 0.97706 0.0
C811 C 0.45084 0.00973 0.00056 0.0
C812 C 0.26137 0.71945 0.24721 0.0
C813 C 0.25695 0.74323 0.26871 0.0
C814 C 0.25443 0.73667 0.22391 0.0
C815 C 0.24274 0.77848 0.22106 0.0
H816 H 0.27034 0.68713 0.24827 0.0
H817 H 0.25839 0.71689 0.20801 0.0
S818 S 0.22671 0.85432 0.27152 0.0
N819 N 0.23994 0.81098 0.28566 0.0
N820 N 0.22689 0.84332 0.24189 0.0
C821 C 0.23804 0.80268 0.24241 0.0
C822 C 0.24515 0.78511 0.2662 0.0
C823 C 0.46383 0.98398 0.50176 0.0
C824 C 0.48673 0.99221 0.48027 0.0
C825 C 0.48187 0.98753 0.5251 0.0
C826 C 0.52366 -0.00059 0.528 0.0
H827 H 0.43157 0.9747 0.50063 0.0
H828 H 0.46275 0.98083 0.541 0.0
S829 S 0.59747 0.02431 0.47759 0.0
N830 N 0.55371 0.01274 0.46341 0.0
N831 N 0.58756 0.01938 0.50723 0.0
C832 C 0.547 0.00776 0.50667 0.0
C833 C 0.52859 0.00418 0.48285 0.0
C834 C 0.23265 0.26988 0.75622 0.0
C835 C 0.23731 0.24677 0.77798 0.0
C836 C 0.24111 0.25248 0.73325 0.0
C837 C 0.25447 0.2111 0.73097 0.0
H838 H 0.2229 0.302 0.75684 0.0
H839 H 0.23732 0.27194 0.71715 0.0
S840 S 0.26992 0.13649 0.78224 0.0
N841 N 0.25494 0.17971 0.79581 0.0
N842 N 0.27083 0.14695 0.75252 0.0
C843 C 0.2585 0.18724 0.75253 0.0
C844 C 0.24996 0.20507 0.77604 0.0
C845 C 0.97067 0.0299 -0.00014 0.0
C846 C 0.99309 0.00551 0.98308 0.0
C847 C 0.96524 0.01726 0.02429 0.0
C848 C 0.98197 0.97965 0.03303 0.0
H849 H 0.95753 0.05934 0.99423 0.0
H850 H 0.94806 0.03753 0.03647 0.0
S851 S 0.04168 0.90326 0.99625 0.0
N852 N 0.03101 0.94102 0.97674 0.0
N853 N 0.02082 0.9174 0.02265 0.0
C854 C 0.00385 0.95453 0.01636 0.0
C855 C 0.0094 0.9674 0.99142 0.0
C856 C 0.76615 0.78731 0.75079 0.0
C857 C 0.76299 0.76321 0.72934 0.0
C858 C 0.75769 0.77045 0.77402 0.0
C859 C 0.74556 0.72876 0.77681 0.0
H860 H 0.77547 0.81953 0.74974 0.0
H861 H 0.76086 0.79039 0.78992 0.0
S862 S 0.73162 0.65244 0.72637 0.0
N863 N 0.74619 0.69544 0.71234 0.0
N864 N 0.73024 0.66383 0.75593 0.0
C865 C 0.74191 0.70432 0.75548 0.0
C866 C 0.75066 0.72149 0.7318 0.0
C867 C 0.75207 0.27318 0.23213 0.0
C868 C 0.74398 0.23074 0.22853 0.0
C869 C 0.7599 0.28917 0.2556 0.0
C870 C 0.75995 0.26342 0.27651 0.0
H871 H 0.75241 0.29446 0.21669 0.0
H872 H 0.7658 0.32209 0.25728 0.0
S873 S 0.74092 0.14977 0.27719 0.0
N874 N 0.73675 0.16307 0.24797 0.0
N875 N 0.75149 0.19305 0.29205 0.0
C876 C 0.75204 0.22082 0.27321 0.0
C877 C 0.74404 0.20452 0.24927 0.0
C878 C 0.74701 0.26881 0.77204 0.0
C879 C 0.76188 0.22832 0.77615 0.0
C880 C 0.7398 0.28377 0.74821 0.0
C881 C 0.74721 0.25896 0.72741 0.0
H882 H 0.74065 0.28926 0.78736 0.0
H883 H 0.72826 0.31513 0.74616 0.0
S884 S 0.78647 0.15059 0.72795 0.0
N885 N 0.78398 0.16362 0.75724 0.0
N886 N 0.77049 0.19169 0.71252 0.0
C887 C 0.76229 0.21842 0.7312 0.0
C888 C 0.7696 0.20315 0.75551 0.0
C889 C 0.76872 0.75117 0.27043 0.0
C890 C 0.72709 0.74933 0.27818 0.0
C891 C 0.77959 0.74402 0.24588 0.0
C892 C 0.74922 0.73533 0.22805 0.0
H893 H 0.79326 0.75792 0.28344 0.0
H894 H 0.81209 0.74572 0.24085 0.0
S895 S 0.63561 0.72724 0.2388 0.0
N896 N 0.65526 0.73811 0.26608 0.0
N897 N 0.67558 0.72512 0.21987 0.0
C898 C 0.70739 0.73352 0.23552 0.0
C899 C 0.69637 0.74034 0.26061 0.0
C900 C 0.47409 0.47131 -0.00018 0.0
C901 C 0.50262 0.49038 0.01577 0.0
C902 C 0.46968 0.48447 0.97541 0.0
C903 C 0.49352 0.51738 0.96587 0.0
H904 H 0.45484 0.44594 0.00617 0.0
H905 H 0.44719 0.46861 0.96398 0.0
S906 S 0.57305 0.57775 -8e-05 0.0
N907 N 0.55548 0.5439 0.02018 0.0
N908 N 0.54703 0.56866 0.97434 0.0
C909 C 0.52228 0.53677 0.98158 0.0
C910 C 0.52688 0.52326 0.00648 0.0
C911 C 0.98435 0.50353 0.47308 0.0
C912 C 0.02522 0.48876 0.4703 0.0
C913 C 0.96683 0.50944 0.49638 0.0
C914 C 0.98936 0.50081 0.51796 0.0
H915 H 0.96555 0.51075 0.45711 0.0
H916 H 0.93529 0.52095 0.4974 0.0
S917 S 0.09767 0.46133 0.52096 0.0
N918 N 0.08782 0.46548 0.49127 0.0
N919 N 0.05495 0.47655 0.53503 0.0
C920 C 0.03028 0.48586 0.5155 0.0
C921 C 0.04816 0.47986 0.49172 0.0
C922 C 0.04092 0.50687 0.00091 0.0
C923 C 0.01491 0.51562 0.021 0.0
C924 C 0.02466 0.50058 0.97732 0.0
C925 C 0.98166 0.50271 0.97279 0.0
H926 H 0.07423 0.50468 0.00334 0.0
H927 H 0.04616 0.49384 0.96255 0.0
S928 S 0.89995 0.52557 0.01897 0.0
N929 N 0.94374 0.5267 0.0347 0.0
N930 N 0.9133 0.51481 0.9904 0.0
C931 C 0.95521 0.51159 0.99268 0.0
C932 C 0.97178 0.51808 0.01674 0.0
C933 C 0.48074 0.4851 0.46715 0.0
C934 C 0.51845 0.50627 0.46349 0.0
C935 C 0.46613 0.47622 0.49084 0.0
C936 C 0.48859 0.48815 0.51185 0.0
H937 H 0.46251 0.47467 0.45161 0.0
H938 H 0.43716 0.45942 0.49261 0.0
S939 S 0.58781 0.54694 0.5124 0.0
N940 N 0.57703 0.54075 0.48297 0.0
N941 N 0.54964 0.52411 0.52745 0.0
C942 C 0.52597 0.51014 0.50849 0.0
C943 C 0.54085 0.51919 0.48434 0.0
C944 C 0.34631 0.15414 0.39037 0.0
C945 C 0.35154 0.16382 0.36529 0.0
C946 C 0.37282 0.12628 0.40234 0.0
C947 C 0.40554 0.10684 0.38971 0.0
H948 H 0.32024 0.16646 0.4006 0.0
H949 H 0.36601 0.11822 0.42126 0.0
S950 S 0.43784 0.12786 0.32535 0.0
N951 N 0.3959 0.15649 0.32929 0.0
N952 N 0.44558 0.10393 0.35182 0.0
C953 C 0.41341 0.119 0.36529 0.0
C954 C 0.38648 0.14757 0.35308 0.0
C955 C 0.13552 0.12171 0.59862 0.0
C956 C 0.10416 0.10293 0.6128 0.0
C957 C 0.16154 0.15203 0.60865 0.0
C958 C 0.15709 0.16502 0.6332 0.0
H959 H 0.14171 0.11132 0.58005 0.0
H960 H 0.18669 0.16375 0.59739 0.0
S961 S 0.07428 0.13147 0.67645 0.0
N962 N 0.06618 0.10372 0.65143 0.0
N963 N 0.1148 0.16105 0.67029 0.0
C964 C 0.12335 0.1493 0.64683 0.0
C965 C 0.09702 0.11812 0.63665 0.0
C966 C 0.14395 0.85153 0.88484 0.0
C967 C 0.14504 0.8519 0.85898 0.0
C968 C 0.11663 0.87708 0.89782 0.0
C969 C 0.08932 0.9041 0.88548 0.0
H970 H 0.16588 0.83306 0.89526 0.0
H971 H 0.11869 0.87718 0.9177 0.0
S972 S 0.07378 0.91043 0.81791 0.0
N973 N 0.11186 0.87671 0.82148 0.0
N974 N 0.06056 0.92493 0.84593 0.0
C975 C 0.08733 0.90193 0.85966 0.0
C976 C 0.11519 0.8758 0.84639 0.0
C977 C 0.36327 0.85298 0.10886 0.0
C978 C 0.35719 0.84998 0.13443 0.0
C979 C 0.39241 0.88048 0.09891 0.0
C980 C 0.41644 0.90635 0.11411 0.0
H981 H 0.34412 0.8353 0.0963 0.0
H982 H 0.39431 0.88304 0.07907 0.0
S983 S 0.41775 0.90548 0.18236 0.0
N984 N 0.38171 0.8714 0.17487 0.0
N985 N 0.43617 0.92334 0.15607 0.0
C986 C 0.41303 0.90139 0.13973 0.0
C987 C 0.38352 0.87313 0.14991 0.0
C988 C 0.66052 0.83649 0.61173 0.0
C989 C 0.65926 0.82623 0.63688 0.0
C990 C 0.63194 0.86419 0.60144 0.0
C991 C 0.60108 0.88307 0.61591 0.0
H992 H 0.68489 0.82445 0.60003 0.0
H993 H 0.63564 0.87246 0.58225 0.0
S994 S 0.57991 0.86143 0.68181 0.0
N995 N 0.62113 0.83308 0.67535 0.0
N996 N 0.56755 0.88542 0.65598 0.0
C997 C 0.59735 0.87062 0.64064 0.0
C998 C 0.62639 0.84212 0.65112 0.0
C999 C 0.90767 0.88593 0.36674 0.0
C1000 C 0.90965 0.89072 0.39243 0.0
C1001 C 0.8796 0.85836 0.35591 0.0
C1002 C 0.85214 0.83465 0.37033 0.0
H1003 H 0.92653 0.90505 0.35475 0.0
H1004 H 0.87788 0.85755 0.33603 0.0
S1005 S 0.85025 0.82965 0.43852 0.0
N1006 N 0.88585 0.86486 0.43213 0.0
N1007 N 0.83283 0.81326 0.41169 0.0
C1008 C 0.85624 0.83643 0.39606 0.0
C1009 C 0.88507 0.86439 0.40714 0.0
C1010 C 0.85821 0.15862 0.11769 0.0
C1011 C 0.85184 0.16284 0.14313 0.0
C1012 C 0.88759 0.13079 0.10845 0.0
C1013 C 0.91112 0.10548 0.1243 0.0
H1014 H 0.83941 0.17603 0.10476 0.0
H1015 H 0.88998 0.12741 0.08868 0.0
S1016 S 0.90951 0.10788 0.1925 0.0
N1017 N 0.87422 0.14227 0.18413 0.0
N1018 N 0.92894 0.08921 0.16669 0.0
C1019 C 0.90683 0.11113 0.1498 0.0
C1020 C 0.87731 0.14002 0.15924 0.0
C1021 C 0.6174 0.12605 0.90064 0.0
C1022 C 0.59116 0.10219 0.88556 0.0
C1023 C 0.64528 0.15466 0.89054 0.0
C1024 C 0.64799 0.16073 0.86494 0.0
H1025 H 0.61808 0.12115 0.92035 0.0
H1026 H 0.66622 0.17066 0.90289 0.0
S1027 S 0.58046 0.11173 0.8178 0.0
N1028 N 0.56557 0.09064 0.84403 0.0
N1029 N 0.6178 0.14459 0.825 0.0
C1030 C 0.61946 0.13963 0.84981 0.0
C1031 C 0.59113 0.11031 0.86013 0.0
C1032 C 0.88048 0.63185 0.84808 0.0
C1033 C 0.85823 0.65863 0.86368 0.0
C1034 C 0.91178 0.60598 0.85723 0.0
C1035 C 0.92244 0.60606 0.88232 0.0
H1036 H 0.87238 0.62921 0.82881 0.0
H1037 H 0.92652 0.58453 0.84466 0.0
S1038 S 0.87818 0.67532 0.93016 0.0
N1039 N 0.85231 0.68718 0.9049 0.0
N1040 N 0.91144 0.63885 0.92213 0.0
C1041 C 0.90269 0.63502 0.89778 0.0
C1042 C 0.87048 0.66117 0.88847 0.0
C1043 C 0.62726 0.6524 0.11227 0.0
C1044 C 0.63496 0.64956 0.13769 0.0
C1045 C 0.5977 0.6271 0.10089 0.0
C1046 C 0.57488 0.59774 0.11445 0.0
H1047 H 0.64539 0.67308 0.1008 0.0
H1048 H 0.59463 0.62898 0.08108 0.0
S1049 S 0.57775 0.58316 0.18214 0.0
N1050 N 0.61313 0.61899 0.17662 0.0
N1051 N 0.55783 0.5712 0.1551 0.0
C1052 C 0.57983 0.59688 0.14014 0.0
C1053 C 0.60982 0.62283 0.1518 0.0
C1054 C 0.6251 0.35495 0.34648 0.0
C1055 C 0.64917 0.33162 0.3631 0.0
C1056 C 0.59604 0.38397 0.35482 0.0
C1057 C 0.58961 0.39057 0.3801 0.0
H1058 H 0.63025 0.35254 0.32685 0.0
H1059 H 0.57981 0.40258 0.34128 0.0
S1060 S 0.63959 0.33202 0.43109 0.0
N1061 N 0.66102 0.31321 0.4059 0.0
N1062 N 0.60609 0.36738 0.42168 0.0
C1063 C 0.61106 0.36498 0.39689 0.0
C1064 C 0.64094 0.33564 0.38837 0.0
C1065 C 0.90113 0.39393 0.63617 0.0
C1066 C 0.90567 0.39485 0.61043 0.0
C1067 C 0.87371 0.36624 0.64756 0.0
C1068 C 0.84969 0.33832 0.63368 0.0
H1069 H 0.91739 0.41606 0.64763 0.0
H1070 H 0.87004 0.36814 0.66733 0.0
S1071 S 0.85542 0.32323 0.56606 0.0
N1072 N 0.88778 0.36175 0.57165 0.0
N1073 N 0.83623 0.30971 0.59305 0.0
C1074 C 0.85618 0.33681 0.60809 0.0
C1075 C 0.88416 0.36505 0.59648 0.0
C1076 C 0.10075 0.38618 0.09677 0.0
C1077 C 0.07742 0.41212 0.11233 0.0
C1078 C 0.13162 0.35997 0.10621 0.0
C1079 C 0.14024 0.35863 0.13157 0.0
H1080 H 0.09688 0.38777 0.077 0.0
H1081 H 0.15019 0.34226 0.09337 0.0
S1082 S 0.08232 0.4143 0.1805 0.0
N1083 N 0.06106 0.43049 0.15458 0.0
N1084 N 0.11875 0.38106 0.17238 0.0
C1085 C 0.11478 0.38183 0.14749 0.0
C1086 C 0.08345 0.4086 0.13786 0.0
C1087 C 0.38876 0.37115 0.89122 0.0
C1088 C 0.40872 0.39902 0.87517 0.0
C1089 C 0.35878 0.34331 0.88261 0.0
C1090 C 0.34782 0.34192 0.85758 0.0
H1091 H 0.39457 0.37226 0.91083 0.0
H1092 H 0.34298 0.32386 0.8959 0.0
S1093 S 0.39617 0.40361 0.80738 0.0
N1094 N 0.41914 0.42013 0.83267 0.0
N1095 N 0.36313 0.36753 0.81636 0.0
C1096 C 0.36993 0.36737 0.84104 0.0
C1097 C 0.40026 0.39599 0.84987 0.0
C1098 C 0.40604 0.58445 0.6296 0.0
C1099 C 0.4163 0.58743 0.60451 0.0
C1100 C 0.37654 0.61076 0.64018 0.0
C1101 C 0.35596 0.64117 0.62613 0.0
H1102 H 0.41951 0.56043 0.64104 0.0
H1103 H 0.36865 0.6059 0.65933 0.0
S1104 S 0.37647 0.66639 0.5606 0.0
N1105 N 0.40723 0.62669 0.56658 0.0
N1106 N 0.35161 0.67608 0.5865 0.0
C1107 C 0.36807 0.64655 0.60147 0.0
C1108 C 0.39827 0.61972 0.59066 0.0
C1109 C 0.10135 0.60828 0.35554 0.0
C1110 C 0.09678 0.60498 0.38121 0.0
C1111 C 0.12863 0.63711 0.34508 0.0
C1112 C 0.15255 0.66379 0.35985 0.0
H1113 H 0.08534 0.58708 0.34337 0.0
H1114 H 0.13249 0.63683 0.32529 0.0
S1115 S 0.14615 0.67321 0.42779 0.0
N1116 N 0.11404 0.63504 0.42098 0.0
N1117 N 0.16545 0.68911 0.40129 0.0
C1118 C 0.1457 0.66325 0.38541 0.0
C1119 C 0.11779 0.6339 0.39609 0.0
loop_
_geom_bond_atom_site_label_1
_geom_bond_atom_site_label_2
_geom_bond_distance
_geom_bond_site_symmetry_2
_ccdc_geom_bond_type
C0 O1 1.160 . S
C0 O7 1.185 . S
O1 C0 1.160 . S
O2 Zn3 1.899 . S
O2 C10 1.284 . S
Zn3 O2 1.899 . S
Zn3 O4 2.032 . S
Zn3 O7 2.086 . S
Zn3 O12 1.977 . S
O4 Zn3 2.032 . S
O4 C8 1.278 . S
C5 O6 1.203 . S
C5 O12 1.267 . S
O6 C5 1.203 . S
O7 C0 1.185 . S
O7 Zn3 2.086 . S
C8 O4 1.278 . S
C8 O9 1.211 . S
O9 C8 1.211 . S
C10 O2 1.284 . S
C10 O11 1.273 . S
O11 C10 1.273 . S
O12 Zn3 1.977 . S
O12 C5 1.267 . S
C13 O14 1.160 . S
C13 O20 1.185 . S
O14 C13 1.160 . S
O15 Zn16 1.899 1_545 S
O15 C23 1.284 1_545 S
Zn16 O15 1.899 1_565 S
Zn16 O17 2.032 . S
Zn16 O20 2.086 1_565 S
Zn16 O25 1.977 1_455 S
O17 Zn16 2.032 . S
O17 C21 1.278 . S
C18 O19 1.203 . S
C18 O25 1.267 . S
O19 C18 1.203 . S
O20 C13 1.185 . S
O20 Zn16 2.086 1_545 S
C21 O17 1.278 . S
C21 O22 1.211 . S
O22 C21 1.211 . S
C23 O15 1.284 1_565 S
C23 O24 1.273 . S
O24 C23 1.273 . S
O25 Zn16 1.977 1_655 S
O25 C18 1.267 . S
C26 O27 1.160 . S
C26 O33 1.185 . S
O27 C26 1.160 . S
O28 Zn29 1.899 . S
O28 C36 1.284 . S
Zn29 O28 1.899 . S
Zn29 O30 2.032 . S
Zn29 O33 2.086 . S
Zn29 O38 1.977 . S
O30 Zn29 2.032 . S
O30 C34 1.278 . S
C31 O32 1.203 . S
C31 O38 1.267 . S
O32 C31 1.203 . S
O33 C26 1.185 . S
O33 Zn29 2.086 . S
C34 O30 1.278 . S
C34 O35 1.211 . S
O35 C34 1.211 . S
C36 O28 1.284 . S
C36 O37 1.273 . S
O37 C36 1.273 . S
O38 Zn29 1.977 . S
O38 C31 1.267 . S
C39 O40 1.160 . S
C39 O46 1.185 . S
O40 C39 1.160 . S
O41 Zn42 1.899 1_565 S
O41 C49 1.284 1_565 S
Zn42 O41 1.899 1_545 S
Zn42 O43 2.032 . S
Zn42 O46 2.086 1_545 S
Zn42 O51 1.977 . S
O43 Zn42 2.032 . S
O43 C47 1.278 . S
C44 O45 1.203 . S
C44 O51 1.267 . S
O45 C44 1.203 . S
O46 C39 1.185 . S
O46 Zn42 2.086 1_565 S
C47 O43 1.278 . S
C47 O48 1.211 . S
O48 C47 1.211 . S
C49 O41 1.284 1_545 S
C49 O50 1.273 . S
O50 C49 1.273 . S
O51 Zn42 1.977 . S
O51 C44 1.267 . S
C52 O53 1.160 . S
C52 O59 1.185 . S
O53 C52 1.160 . S
O54 Zn55 1.899 . S
O54 C62 1.284 . S
Zn55 O54 1.899 . S
Zn55 O56 2.032 . S
Zn55 O59 2.086 . S
Zn55 O64 1.977 . S
O56 Zn55 2.032 . S
O56 C60 1.278 . S
C57 O58 1.203 . S
C57 O64 1.267 . S
O58 C57 1.203 . S
O59 C52 1.185 . S
O59 Zn55 2.086 . S
C60 O56 1.278 . S
C60 O61 1.211 . S
O61 C60 1.211 . S
C62 O54 1.284 . S
C62 O63 1.273 . S
O63 C62 1.273 . S
O64 Zn55 1.977 . S
O64 C57 1.267 . S
C65 O66 1.160 . S
C65 O72 1.185 . S
O66 C65 1.160 . S
O67 Zn68 1.899 1_545 S
O67 C75 1.284 1_545 S
Zn68 O67 1.899 1_565 S
Zn68 O69 2.032 . S
Zn68 O72 2.086 1_565 S
Zn68 O77 1.977 . S
O69 Zn68 2.032 . S
O69 C73 1.278 . S
C70 O71 1.203 . S
C70 O77 1.267 . S
O71 C70 1.203 . S
O72 C65 1.185 . S
O72 Zn68 2.086 1_545 S
C73 O69 1.278 . S
C73 O74 1.211 . S
O74 C73 1.211 . S
C75 O67 1.284 1_565 S
C75 O76 1.273 . S
O76 C75 1.273 . S
O77 Zn68 1.977 . S
O77 C70 1.267 . S
C78 O79 1.160 . S
C78 O85 1.185 . S
O79 C78 1.160 . S
O80 Zn81 1.899 . S
O80 C88 1.284 . S
Zn81 O80 1.899 . S
Zn81 O82 2.032 . S
Zn81 O85 2.086 . S
Zn81 O90 1.977 . S
O82 Zn81 2.032 . S
O82 C86 1.278 . S
C83 O84 1.203 . S
C83 O90 1.267 . S
O84 C83 1.203 . S
O85 C78 1.185 . S
O85 Zn81 2.086 . S
C86 O82 1.278 . S
C86 O87 1.211 . S
O87 C86 1.211 . S
C88 O80 1.284 . S
C88 O89 1.273 . S
O89 C88 1.273 . S
O90 Zn81 1.977 . S
O90 C83 1.267 . S
C91 O92 1.160 . S
C91 O98 1.185 . S
O92 C91 1.160 . S
O93 Zn94 1.899 1_565 S
O93 C101 1.284 1_565 S
Zn94 O93 1.899 1_545 S
Zn94 O95 2.032 . S
Zn94 O98 2.086 1_545 S
Zn94 O103 1.977 1_455 S
O95 Zn94 2.032 . S
O95 C99 1.278 . S
C96 O97 1.203 . S
C96 O103 1.267 . S
O97 C96 1.203 . S
O98 C91 1.185 . S
O98 Zn94 2.086 1_565 S
C99 O95 1.278 . S
C99 O100 1.211 . S
O100 C99 1.211 . S
C101 O93 1.284 1_545 S
C101 O102 1.273 . S
O102 C101 1.273 . S
O103 Zn94 1.977 1_655 S
O103 C96 1.267 . S
C104 O105 1.160 . S
C104 O111 1.185 . S
O105 C104 1.160 . S
O106 Zn107 1.899 . S
O106 C114 1.284 . S
Zn107 O106 1.899 . S
Zn107 O108 2.032 . S
Zn107 O111 2.086 . S
Zn107 O116 1.977 . S
O108 Zn107 2.032 . S
O108 C112 1.278 . S
C109 O110 1.203 . S
C109 O116 1.267 . S
O110 C109 1.203 . S
O111 C104 1.185 . S
O111 Zn107 2.086 . S
C112 O108 1.278 . S
C112 O113 1.211 . S
O113 C112 1.211 . S
C114 O106 1.284 . S
C114 O115 1.273 . S
O115 C114 1.273 . S
O116 Zn107 1.977 . S
O116 C109 1.267 . S
C117 O118 1.160 . S
C117 O124 1.185 . S
O118 C117 1.160 . S
O119 Zn120 1.899 1_565 S
O119 C127 1.284 1_565 S
Zn120 O119 1.899 1_545 S
Zn120 O121 2.032 . S
Zn120 O124 2.086 1_545 S
Zn120 O129 1.977 1_655 S
O121 Zn120 2.032 . S
O121 C125 1.278 . S
C122 O123 1.203 . S
C122 O129 1.267 . S
O123 C122 1.203 . S
O124 C117 1.185 . S
O124 Zn120 2.086 1_565 S
C125 O121 1.278 . S
C125 O126 1.211 . S
O126 C125 1.211 . S
C127 O119 1.284 1_545 S
C127 O128 1.273 . S
O128 C127 1.273 . S
O129 Zn120 1.977 1_455 S
O129 C122 1.267 . S
C130 O131 1.160 . S
C130 O137 1.185 . S
O131 C130 1.160 . S
O132 Zn133 1.899 . S
O132 C140 1.284 . S
Zn133 O132 1.899 . S
Zn133 O134 2.032 . S
Zn133 O137 2.086 . S
Zn133 O142 1.977 . S
O134 Zn133 2.032 . S
O134 C138 1.278 . S
C135 O136 1.203 . S
C135 O142 1.267 . S
O136 C135 1.203 . S
O137 C130 1.185 . S
O137 Zn133 2.086 . S
C138 O134 1.278 . S
C138 O139 1.211 . S
O139 C138 1.211 . S
C140 O132 1.284 . S
C140 O141 1.273 . S
O141 C140 1.273 . S
O142 Zn133 1.977 . S
O142 C135 1.267 . S
C143 O144 1.160 . S
C143 O150 1.185 . S
O144 C143 1.160 . S
O145 Zn146 1.899 1_545 S
O145 C153 1.284 1_545 S
Zn146 O145 1.899 1_565 S
Zn146 O147 2.032 . S
Zn146 O150 2.086 1_565 S
Zn146 O155 1.977 . S
O147 Zn146 2.032 . S
O147 C151 1.278 . S
C148 O149 1.203 . S
C148 O155 1.267 . S
O149 C148 1.203 . S
O150 C143 1.185 . S
O150 Zn146 2.086 1_545 S
C151 O147 1.278 . S
C151 O152 1.211 . S
O152 C151 1.211 . S
C153 O145 1.284 1_565 S
C153 O154 1.273 . S
O154 C153 1.273 . S
O155 Zn146 1.977 . S
O155 C148 1.267 . S
C156 O157 1.160 . S
C156 O163 1.185 . S
O157 C156 1.160 . S
O158 Zn159 1.899 . S
O158 C166 1.284 . S
Zn159 O158 1.899 . S
Zn159 O160 2.032 . S
Zn159 O163 2.086 . S
Zn159 O168 1.977 . S
O160 Zn159 2.032 . S
O160 C164 1.278 . S
C161 O162 1.203 . S
C161 O168 1.267 . S
O162 C161 1.203 . S
O163 C156 1.185 . S
O163 Zn159 2.086 . S
C164 O160 1.278 . S
C164 O165 1.211 . S
O165 C164 1.211 . S
C166 O158 1.284 . S
C166 O167 1.273 . S
O167 C166 1.273 . S
O168 Zn159 1.977 . S
O168 C161 1.267 . S
C169 O170 1.160 . S
C169 O176 1.185 . S
O170 C169 1.160 . S
O171 Zn172 1.899 1_565 S
O171 C179 1.284 1_565 S
Zn172 O171 1.899 1_545 S
Zn172 O173 2.032 . S
Zn172 O176 2.086 1_545 S
Zn172 O181 1.977 . S
O173 Zn172 2.032 . S
O173 C177 1.278 . S
C174 O175 1.203 . S
C174 O181 1.267 . S
O175 C174 1.203 . S
O176 C169 1.185 . S
O176 Zn172 2.086 1_565 S
C177 O173 1.278 . S
C177 O178 1.211 . S
O178 C177 1.211 . S
C179 O171 1.284 1_545 S
C179 O180 1.273 . S
O180 C179 1.273 . S
O181 Zn172 1.977 . S
O181 C174 1.267 . S
C182 O183 1.160 . S
C182 O189 1.185 . S
O183 C182 1.160 . S
O184 Zn185 1.899 . S
O184 C192 1.284 . S
Zn185 O184 1.899 . S
Zn185 O186 2.032 . S
Zn185 O189 2.086 . S
Zn185 O194 1.977 . S
O186 Zn185 2.032 . S
O186 C190 1.278 . S
C187 O188 1.203 . S
C187 O194 1.267 . S
O188 C187 1.203 . S
O189 C182 1.185 . S
O189 Zn185 2.086 . S
C190 O186 1.278 . S
C190 O191 1.211 . S
O191 C190 1.211 . S
C192 O184 1.284 . S
C192 O193 1.273 . S
O193 C192 1.273 . S
O194 Zn185 1.977 . S
O194 C187 1.267 . S
C195 O196 1.160 . S
C195 O202 1.185 . S
O196 C195 1.160 . S
O197 Zn198 1.899 1_545 S
O197 C205 1.284 1_545 S
Zn198 O197 1.899 1_565 S
Zn198 O199 2.032 . S
Zn198 O202 2.086 1_565 S
Zn198 O207 1.977 1_655 S
O199 Zn198 2.032 . S
O199 C203 1.278 . S
C200 O201 1.203 . S
C200 O207 1.267 . S
O201 C200 1.203 . S
O202 C195 1.185 . S
O202 Zn198 2.086 1_545 S
C203 O199 1.278 . S
C203 O204 1.211 . S
O204 C203 1.211 . S
C205 O197 1.284 1_565 S
C205 O206 1.273 . S
O206 C205 1.273 . S
O207 Zn198 1.977 1_455 S
O207 C200 1.267 . S
C208 O209 1.160 . S
C208 O215 1.185 . S
O209 C208 1.160 . S
O210 Zn211 1.899 . S
O210 C218 1.284 . S
Zn211 O210 1.899 . S
Zn211 O212 2.032 . S
Zn211 O215 2.086 . S
Zn211 O220 1.977 . S
O212 Zn211 2.032 . S
O212 C216 1.278 . S
C213 O214 1.203 . S
C213 O220 1.267 . S
O214 C213 1.203 . S
O215 C208 1.185 . S
O215 Zn211 2.086 . S
C216 O212 1.278 . S
C216 O217 1.211 . S
O217 C216 1.211 . S
C218 O210 1.284 . S
C218 O219 1.273 . S
O219 C218 1.273 . S
O220 Zn211 1.977 . S
O220 C213 1.267 . S
C221 O222 1.160 . S
C221 O228 1.185 . S
O222 C221 1.160 . S
O223 Zn224 1.899 . S
O223 C231 1.284 . S
Zn224 O223 1.899 . S
Zn224 O225 2.032 . S
Zn224 O228 2.086 . S
Zn224 O233 1.977 . S
O225 Zn224 2.032 . S
O225 C229 1.278 . S
C226 O227 1.203 . S
C226 O233 1.267 . S
O227 C226 1.203 . S
O228 C221 1.185 . S
O228 Zn224 2.086 . S
C229 O225 1.278 . S
C229 O230 1.211 . S
O230 C229 1.211 . S
C231 O223 1.284 . S
C231 O232 1.273 . S
O232 C231 1.273 . S
O233 Zn224 1.977 . S
O233 C226 1.267 . S
C234 O235 1.160 . S
C234 O241 1.185 . S
O235 C234 1.160 . S
O236 Zn237 1.899 . S
O236 C244 1.284 . S
Zn237 O236 1.899 . S
Zn237 O238 2.032 . S
Zn237 O241 2.086 . S
Zn237 O246 1.977 . S
O238 Zn237 2.032 . S
O238 C242 1.278 . S
C239 O240 1.203 . S
C239 O246 1.267 . S
O240 C239 1.203 . S
O241 C234 1.185 . S
O241 Zn237 2.086 . S
C242 O238 1.278 . S
C242 O243 1.211 . S
O243 C242 1.211 . S
C244 O236 1.284 . S
C244 O245 1.273 . S
O245 C244 1.273 . S
O246 Zn237 1.977 . S
O246 C239 1.267 . S
C247 O248 1.160 . S
C247 O254 1.185 . S
O248 C247 1.160 . S
O249 Zn250 1.899 . S
O249 C257 1.284 . S
Zn250 O249 1.899 . S
Zn250 O251 2.032 . S
Zn250 O254 2.086 . S
Zn250 O259 1.977 1_655 S
O251 Zn250 2.032 . S
O251 C255 1.278 . S
C252 O253 1.203 . S
C252 O259 1.267 . S
O253 C252 1.203 . S
O254 C247 1.185 . S
O254 Zn250 2.086 . S
C255 O251 1.278 . S
C255 O256 1.211 . S
O256 C255 1.211 . S
C257 O249 1.284 . S
C257 O258 1.273 . S
O258 C257 1.273 . S
O259 Zn250 1.977 1_455 S
O259 C252 1.267 . S
C260 O261 1.160 . S
C260 O267 1.185 . S
O261 C260 1.160 . S
O262 Zn263 1.899 . S
O262 C270 1.284 . S
Zn263 O262 1.899 . S
Zn263 O264 2.032 . S
Zn263 O267 2.086 . S
Zn263 O272 1.977 . S
O264 Zn263 2.032 . S
O264 C268 1.278 . S
C265 O266 1.203 . S
C265 O272 1.267 . S
O266 C265 1.203 . S
O267 C260 1.185 . S
O267 Zn263 2.086 . S
C268 O264 1.278 . S
C268 O269 1.211 . S
O269 C268 1.211 . S
C270 O262 1.284 . S
C270 O271 1.273 . S
O271 C270 1.273 . S
O272 Zn263 1.977 . S
O272 C265 1.267 . S
C273 O274 1.160 . S
C273 O280 1.185 . S
O274 C273 1.160 . S
O275 Zn276 1.899 . S
O275 C283 1.284 . S
Zn276 O275 1.899 . S
Zn276 O277 2.032 . S
Zn276 O280 2.086 . S
Zn276 O285 1.977 1_655 S
O277 Zn276 2.032 . S
O277 C281 1.278 . S
C278 O279 1.203 . S
C278 O285 1.267 . S
O279 C278 1.203 . S
O280 C273 1.185 . S
O280 Zn276 2.086 . S
C281 O277 1.278 . S
C281 O282 1.211 . S
O282 C281 1.211 . S
C283 O275 1.284 . S
C283 O284 1.273 . S
O284 C283 1.273 . S
O285 Zn276 1.977 1_455 S
O285 C278 1.267 . S
C286 O287 1.160 . S
C286 O293 1.185 . S
O287 C286 1.160 . S
O288 Zn289 1.899 . S
O288 C296 1.284 . S
Zn289 O288 1.899 . S
Zn289 O290 2.032 . S
Zn289 O293 2.086 . S
Zn289 O298 1.977 . S
O290 Zn289 2.032 . S
O290 C294 1.278 . S
C291 O292 1.203 . S
C291 O298 1.267 . S
O292 C291 1.203 . S
O293 C286 1.185 . S
O293 Zn289 2.086 . S
C294 O290 1.278 . S
C294 O295 1.211 . S
O295 C294 1.211 . S
C296 O288 1.284 . S
C296 O297 1.273 . S
O297 C296 1.273 . S
O298 Zn289 1.977 . S
O298 C291 1.267 . S
C299 O300 1.160 . S
C299 O306 1.185 . S
O300 C299 1.160 . S
O301 Zn302 1.899 . S
O301 C309 1.284 . S
Zn302 O301 1.899 . S
Zn302 O303 2.032 . S
Zn302 O306 2.086 . S
Zn302 O311 1.977 . S
O303 Zn302 2.032 . S
O303 C307 1.278 . S
C304 O305 1.203 . S
C304 O311 1.267 . S
O305 C304 1.203 . S
O306 C299 1.185 . S
O306 Zn302 2.086 . S
C307 O303 1.278 . S
C307 O308 1.211 . S
O308 C307 1.211 . S
C309 O301 1.284 . S
C309 O310 1.273 . S
O310 C309 1.273 . S
O311 Zn302 1.977 . S
O311 C304 1.267 . S
C312 O313 1.160 . S
C312 O319 1.185 . S
O313 C312 1.160 . S
O314 Zn315 1.899 . S
O314 C322 1.284 . S
Zn315 O314 1.899 . S
Zn315 O316 2.032 . S
Zn315 O319 2.086 . S
Zn315 O324 1.977 . S
O316 Zn315 2.032 . S
O316 C320 1.278 . S
C317 O318 1.203 . S
C317 O324 1.267 . S
O318 C317 1.203 . S
O319 C312 1.185 . S
O319 Zn315 2.086 . S
C320 O316 1.278 . S
C320 O321 1.211 . S
O321 C320 1.211 . S
C322 O314 1.284 . S
C322 O323 1.273 . S
O323 C322 1.273 . S
O324 Zn315 1.977 . S
O324 C317 1.267 . S
C325 O326 1.160 . S
C325 O332 1.185 . S
O326 C325 1.160 . S
O327 Zn328 1.899 . S
O327 C335 1.284 . S
Zn328 O327 1.899 . S
Zn328 O329 2.032 . S
Zn328 O332 2.086 . S
Zn328 O337 1.977 . S
O329 Zn328 2.032 . S
O329 C333 1.278 . S
C330 O331 1.203 . S
C330 O337 1.267 . S
O331 C330 1.203 . S
O332 C325 1.185 . S
O332 Zn328 2.086 . S
C333 O329 1.278 . S
C333 O334 1.211 . S
O334 C333 1.211 . S
C335 O327 1.284 . S
C335 O336 1.273 . S
O336 C335 1.273 . S
O337 Zn328 1.977 . S
O337 C330 1.267 . S
C338 O339 1.160 . S
C338 O345 1.185 . S
O339 C338 1.160 . S
O340 Zn341 1.899 . S
O340 C348 1.284 . S
Zn341 O340 1.899 . S
Zn341 O342 2.032 . S
Zn341 O345 2.086 . S
Zn341 O350 1.977 . S
O342 Zn341 2.032 . S
O342 C346 1.278 . S
C343 O344 1.203 . S
C343 O350 1.267 . S
O344 C343 1.203 . S
O345 C338 1.185 . S
O345 Zn341 2.086 . S
C346 O342 1.278 . S
C346 O347 1.211 . S
O347 C346 1.211 . S
C348 O340 1.284 . S
C348 O349 1.273 . S
O349 C348 1.273 . S
O350 Zn341 1.977 . S
O350 C343 1.267 . S
C351 O352 1.160 . S
C351 O358 1.185 . S
O352 C351 1.160 . S
O353 Zn354 1.899 . S
O353 C361 1.284 . S
Zn354 O353 1.899 . S
Zn354 O355 2.032 . S
Zn354 O358 2.086 . S
Zn354 O363 1.977 1_455 S
O355 Zn354 2.032 . S
O355 C359 1.278 . S
C356 O357 1.203 . S
C356 O363 1.267 . S
O357 C356 1.203 . S
O358 C351 1.185 . S
O358 Zn354 2.086 . S
C359 O355 1.278 . S
C359 O360 1.211 . S
O360 C359 1.211 . S
C361 O353 1.284 . S
C361 O362 1.273 . S
O362 C361 1.273 . S
O363 Zn354 1.977 1_655 S
O363 C356 1.267 . S
C364 O365 1.160 . S
C364 O371 1.185 . S
O365 C364 1.160 . S
O366 Zn367 1.899 . S
O366 C374 1.284 . S
Zn367 O366 1.899 . S
Zn367 O368 2.032 . S
Zn367 O371 2.086 . S
Zn367 O376 1.977 . S
O368 Zn367 2.032 . S
O368 C372 1.278 . S
C369 O370 1.203 . S
C369 O376 1.267 . S
O370 C369 1.203 . S
O371 C364 1.185 . S
O371 Zn367 2.086 . S
C372 O368 1.278 . S
C372 O373 1.211 . S
O373 C372 1.211 . S
C374 O366 1.284 . S
C374 O375 1.273 . S
O375 C374 1.273 . S
O376 Zn367 1.977 . S
O376 C369 1.267 . S
C377 O378 1.160 . S
C377 O384 1.185 . S
O378 C377 1.160 . S
O379 Zn380 1.899 . S
O379 C387 1.284 . S
Zn380 O379 1.899 . S
Zn380 O381 2.032 . S
Zn380 O384 2.086 . S
Zn380 O389 1.977 1_455 S
O381 Zn380 2.032 . S
O381 C385 1.278 . S
C382 O383 1.203 . S
C382 O389 1.267 . S
O383 C382 1.203 . S
O384 C377 1.185 . S
O384 Zn380 2.086 . S
C385 O381 1.278 . S
C385 O386 1.211 . S
O386 C385 1.211 . S
C387 O379 1.284 . S
C387 O388 1.273 . S
O388 C387 1.273 . S
O389 Zn380 1.977 1_655 S
O389 C382 1.267 . S
C390 O391 1.160 . S
C390 O397 1.185 . S
O391 C390 1.160 . S
O392 Zn393 1.899 . S
O392 C400 1.284 . S
Zn393 O392 1.899 . S
Zn393 O394 2.032 . S
Zn393 O397 2.086 . S
Zn393 O402 1.977 . S
O394 Zn393 2.032 . S
O394 C398 1.278 . S
C395 O396 1.203 . S
C395 O402 1.267 . S
O396 C395 1.203 . S
O397 C390 1.185 . S
O397 Zn393 2.086 . S
C398 O394 1.278 . S
C398 O399 1.211 . S
O399 C398 1.211 . S
C400 O392 1.284 . S
C400 O401 1.273 . S
O401 C400 1.273 . S
O402 Zn393 1.977 . S
O402 C395 1.267 . S
C403 O404 1.160 . S
C403 O410 1.185 . S
O404 C403 1.160 . S
O405 Zn406 1.899 . S
O405 C413 1.284 . S
Zn406 O405 1.899 . S
Zn406 O407 2.032 . S
Zn406 O410 2.086 . S
Zn406 O415 1.977 . S
O407 Zn406 2.032 . S
O407 C411 1.278 . S
C408 O409 1.203 . S
C408 O415 1.267 . S
O409 C408 1.203 . S
O410 C403 1.185 . S
O410 Zn406 2.086 . S
C411 O407 1.278 . S
C411 O412 1.211 . S
O412 C411 1.211 . S
C413 O405 1.284 . S
C413 O414 1.273 . S
O414 C413 1.273 . S
O415 Zn406 1.977 . S
O415 C408 1.267 . S
C416 C417 1.369 . S
C416 C418 1.419 . S
C416 H420 0.930 . S
C417 C416 1.369 . S
C417 C426 1.429 . S
C418 C416 1.419 . S
C418 C419 1.363 . S
C418 H421 0.929 . S
C419 C418 1.363 . S
C419 C425 1.428 . S
H420 C416 0.930 . S
H421 C418 0.929 . S
S422 N423 1.613 . S
S422 N424 1.610 . S
N423 S422 1.613 . S
N423 C426 1.350 . S
N424 S422 1.610 . S
N424 C425 1.351 . S
C425 C419 1.428 . S
C425 N424 1.351 . S
C425 C426 1.434 . S
C426 C417 1.429 . S
C426 N423 1.350 . S
C426 C425 1.434 . S
C427 C428 1.369 . S
C427 C429 1.419 . S
C427 H431 0.930 . S
C428 C427 1.369 . S
C428 C437 1.429 . S
C429 C427 1.419 . S
C429 C430 1.363 . S
C429 H432 0.929 . S
C430 C429 1.363 . S
C430 C436 1.428 . S
H431 C427 0.930 . S
H432 C429 0.929 . S
S433 N434 1.613 . S
S433 N435 1.610 . S
N434 S433 1.613 . S
N434 C437 1.350 . S
N435 S433 1.610 . S
N435 C436 1.351 . S
C436 C430 1.428 . S
C436 N435 1.351 . S
C436 C437 1.434 . S
C437 C428 1.429 . S
C437 N434 1.350 . S
C437 C436 1.434 . S
C438 C439 1.369 . S
C438 C440 1.419 . S
C438 H442 0.930 . S
C439 C438 1.369 . S
C439 C448 1.429 . S
C440 C438 1.419 . S
C440 C441 1.363 . S
C440 H443 0.929 . S
C441 C440 1.363 . S
C441 C447 1.428 . S
H442 C438 0.930 . S
H443 C440 0.929 . S
S444 N445 1.613 . S
S444 N446 1.610 . S
N445 S444 1.613 . S
N445 C448 1.350 . S
N446 S444 1.610 . S
N446 C447 1.351 . S
C447 C441 1.428 . S
C447 N446 1.351 . S
C447 C448 1.434 . S
C448 C439 1.429 . S
C448 N445 1.350 . S
C448 C447 1.434 . S
C449 C450 1.369 . S
C449 C451 1.419 . S
C449 H453 0.930 . S
C450 C449 1.369 . S
C450 C459 1.429 . S
C451 C449 1.419 . S
C451 C452 1.363 . S
C451 H454 0.929 . S
C452 C451 1.363 . S
C452 C458 1.428 . S
H453 C449 0.930 . S
H454 C451 0.929 . S
S455 N456 1.613 . S
S455 N457 1.610 . S
N456 S455 1.613 . S
N456 C459 1.350 . S
N457 S455 1.610 . S
N457 C458 1.351 . S
C458 C452 1.428 . S
C458 N457 1.351 . S
C458 C459 1.434 . S
C459 C450 1.429 . S
C459 N456 1.350 . S
C459 C458 1.434 . S
C460 C461 1.369 . S
C460 C462 1.419 . S
C460 H464 0.930 . S
C461 C460 1.369 . S
C461 C470 1.429 . S
C462 C460 1.419 . S
C462 C463 1.363 . S
C462 H465 0.929 . S
C463 C462 1.363 . S
C463 C469 1.428 . S
H464 C460 0.930 . S
H465 C462 0.929 . S
S466 N467 1.613 . S
S466 N468 1.610 . S
N467 S466 1.613 . S
N467 C470 1.350 . S
N468 S466 1.610 . S
N468 C469 1.351 . S
C469 C463 1.428 . S
C469 N468 1.351 . S
C469 C470 1.434 . S
C470 C461 1.429 . S
C470 N467 1.350 . S
C470 C469 1.434 . S
C471 C472 1.369 . S
C471 C473 1.419 . S
C471 H475 0.930 . S
C472 C471 1.369 . S
C472 C481 1.429 . S
C473 C471 1.419 . S
C473 C474 1.363 . S
C473 H476 0.929 . S
C474 C473 1.363 . S
C474 C480 1.428 . S
H475 C471 0.930 . S
H476 C473 0.929 . S
S477 N478 1.613 . S
S477 N479 1.610 . S
N478 S477 1.613 . S
N478 C481 1.350 . S
N479 S477 1.610 . S
N479 C480 1.351 . S
C480 C474 1.428 . S
C480 N479 1.351 . S
C480 C481 1.434 . S
C481 C472 1.429 . S
C481 N478 1.350 . S
C481 C480 1.434 . S
C482 C483 1.369 . S
C482 C484 1.419 . S
C482 H486 0.930 . S
C483 C482 1.369 . S
C483 C492 1.429 . S
C484 C482 1.419 . S
C484 C485 1.363 . S
C484 H487 0.929 . S
C485 C484 1.363 . S
C485 C491 1.428 . S
H486 C482 0.930 . S
H487 C484 0.929 . S
S488 N489 1.613 . S
S488 N490 1.610 . S
N489 S488 1.613 . S
N489 C492 1.350 . S
N490 S488 1.610 . S
N490 C491 1.351 . S
C491 C485 1.428 . S
C491 N490 1.351 . S
C491 C492 1.434 . S
C492 C483 1.429 . S
C492 N489 1.350 . S
C492 C491 1.434 . S
C493 C494 1.369 . S
C493 C495 1.419 . S
C493 H497 0.930 . S
C494 C493 1.369 . S
C494 C503 1.429 . S
C495 C493 1.419 . S
C495 C496 1.363 . S
C495 H498 0.929 . S
C496 C495 1.363 . S
C496 C502 1.428 . S
H497 C493 0.930 . S
H498 C495 0.929 . S
S499 N500 1.613 . S
S499 N501 1.610 . S
N500 S499 1.613 . S
N500 C503 1.350 . S
N501 S499 1.610 . S
N501 C502 1.351 . S
C502 C496 1.428 . S
C502 N501 1.351 . S
C502 C503 1.434 . S
C503 C494 1.429 . S
C503 N500 1.350 . S
C503 C502 1.434 . S
C504 C505 1.369 . S
C504 C506 1.419 . S
C504 H508 0.930 . S
C505 C504 1.369 . S
C505 C514 1.429 . S
C506 C504 1.419 . S
C506 C507 1.363 . S
C506 H509 0.929 . S
C507 C506 1.363 . S
C507 C513 1.428 . S
H508 C504 0.930 . S
H509 C506 0.929 . S
S510 N511 1.613 . S
S510 N512 1.610 . S
N511 S510 1.613 . S
N511 C514 1.350 . S
N512 S510 1.610 . S
N512 C513 1.351 . S
C513 C507 1.428 . S
C513 N512 1.351 . S
C513 C514 1.434 . S
C514 C505 1.429 . S
C514 N511 1.350 . S
C514 C513 1.434 . S
C515 C516 1.369 . S
C515 C517 1.419 . S
C515 H519 0.930 . S
C516 C515 1.369 . S
C516 C525 1.429 . S
C517 C515 1.419 . S
C517 C518 1.363 . S
C517 H520 0.929 . S
C518 C517 1.363 . S
C518 C524 1.428 . S
H519 C515 0.930 . S
H520 C517 0.929 . S
S521 N522 1.613 . S
S521 N523 1.610 . S
N522 S521 1.613 . S
N522 C525 1.350 . S
N523 S521 1.610 . S
N523 C524 1.351 . S
C524 C518 1.428 . S
C524 N523 1.351 . S
C524 C525 1.434 . S
C525 C516 1.429 . S
C525 N522 1.350 . S
C525 C524 1.434 . S
C526 C527 1.369 . S
C526 C528 1.419 . S
C526 H530 0.930 . S
C527 C526 1.369 . S
C527 C536 1.429 . S
C528 C526 1.419 . S
C528 C529 1.363 . S
C528 H531 0.929 . S
C529 C528 1.363 . S
C529 C535 1.428 . S
H530 C526 0.930 . S
H531 C528 0.929 . S
S532 N533 1.613 . S
S532 N534 1.610 . S
N533 S532 1.613 . S
N533 C536 1.350 . S
N534 S532 1.610 . S
N534 C535 1.351 . S
C535 C529 1.428 . S
C535 N534 1.351 . S
C535 C536 1.434 . S
C536 C527 1.429 . S
C536 N533 1.350 . S
C536 C535 1.434 . S
C537 C538 1.369 . S
C537 C539 1.419 . S
C537 H541 0.930 . S
C538 C537 1.369 . S
C538 C547 1.429 . S
C539 C537 1.419 . S
C539 C540 1.363 . S
C539 H542 0.929 . S
C540 C539 1.363 . S
C540 C546 1.428 . S
H541 C537 0.930 . S
H542 C539 0.929 . S
S543 N544 1.613 . S
S543 N545 1.610 . S
N544 S543 1.613 . S
N544 C547 1.350 . S
N545 S543 1.610 . S
N545 C546 1.351 . S
C546 C540 1.428 . S
C546 N545 1.351 . S
C546 C547 1.434 . S
C547 C538 1.429 . S
C547 N544 1.350 . S
C547 C546 1.434 . S
C548 C549 1.369 . S
C548 C550 1.419 . S
C548 H552 0.930 . S
C549 C548 1.369 . S
C549 C558 1.429 . S
C550 C548 1.419 . S
C550 C551 1.363 . S
C550 H553 0.929 . S
C551 C550 1.363 . S
C551 C557 1.428 . S
H552 C548 0.930 . S
H553 C550 0.929 . S
S554 N555 1.613 . S
S554 N556 1.610 . S
N555 S554 1.613 . S
N555 C558 1.350 . S
N556 S554 1.610 . S
N556 C557 1.351 . S
C557 C551 1.428 . S
C557 N556 1.351 . S
C557 C558 1.434 . S
C558 C549 1.429 . S
C558 N555 1.350 . S
C558 C557 1.434 . S
C559 C560 1.369 . S
C559 C561 1.419 . S
C559 H563 0.930 . S
C560 C559 1.369 . S
C560 C569 1.429 . S
C561 C559 1.419 . S
C561 C562 1.363 . S
C561 H564 0.929 . S
C562 C561 1.363 . S
C562 C568 1.428 . S
H563 C559 0.930 . S
H564 C561 0.929 . S
S565 N566 1.613 . S
S565 N567 1.610 . S
N566 S565 1.613 . S
N566 C569 1.350 . S
N567 S565 1.610 . S
N567 C568 1.351 . S
C568 C562 1.428 . S
C568 N567 1.351 . S
C568 C569 1.434 . S
C569 C560 1.429 . S
C569 N566 1.350 . S
C569 C568 1.434 . S
C570 C571 1.369 . S
C570 C572 1.419 . S
C570 H574 0.930 . S
C571 C570 1.369 . S
C571 C580 1.429 . S
C572 C570 1.419 . S
C572 C573 1.363 . S
C572 H575 0.929 . S
C573 C572 1.363 . S
C573 C579 1.428 . S
H574 C570 0.930 . S
H575 C572 0.929 . S
S576 N577 1.613 . S
S576 N578 1.610 . S
N577 S576 1.613 . S
N577 C580 1.350 . S
N578 S576 1.610 . S
N578 C579 1.351 . S
C579 C573 1.428 . S
C579 N578 1.351 . S
C579 C580 1.434 . S
C580 C571 1.429 . S
C580 N577 1.350 . S
C580 C579 1.434 . S
C581 C582 1.369 . S
C581 C583 1.419 . S
C581 H585 0.930 . S
C582 C581 1.369 . S
C582 C591 1.429 . S
C583 C581 1.419 . S
C583 C584 1.363 . S
C583 H586 0.929 . S
C584 C583 1.363 . S
C584 C590 1.428 . S
H585 C581 0.930 . S
H586 C583 0.929 . S
S587 N588 1.613 . S
S587 N589 1.610 . S
N588 S587 1.613 . S
N588 C591 1.350 . S
N589 S587 1.610 . S
N589 C590 1.351 . S
C590 C584 1.428 . S
C590 N589 1.351 . S
C590 C591 1.434 . S
C591 C582 1.429 . S
C591 N588 1.350 . S
C591 C590 1.434 . S
C592 C593 1.369 . S
C592 C594 1.419 . S
C592 H596 0.930 . S
C593 C592 1.369 . S
C593 C602 1.429 . S
C594 C592 1.419 . S
C594 C595 1.363 . S
C594 H597 0.929 . S
C595 C594 1.363 . S
C595 C601 1.428 . S
H596 C592 0.930 . S
H597 C594 0.929 . S
S598 N599 1.613 . S
S598 N600 1.610 . S
N599 S598 1.613 . S
N599 C602 1.350 . S
N600 S598 1.610 . S
N600 C601 1.351 . S
C601 C595 1.428 . S
C601 N600 1.351 . S
C601 C602 1.434 . S
C602 C593 1.429 . S
C602 N599 1.350 . S
C602 C601 1.434 . S
C603 C604 1.369 . S
C603 C605 1.419 . S
C603 H607 0.930 . S
C604 C603 1.369 . S
C604 C613 1.429 . S
C605 C603 1.419 . S
C605 C606 1.363 . S
C605 H608 0.929 . S
C606 C605 1.363 . S
C606 C612 1.428 . S
H607 C603 0.930 . S
H608 C605 0.929 . S
S609 N610 1.613 . S
S609 N611 1.610 . S
N610 S609 1.613 . S
N610 C613 1.350 . S
N611 S609 1.610 . S
N611 C612 1.351 . S
C612 C606 1.428 . S
C612 N611 1.351 . S
C612 C613 1.434 . S
C613 C604 1.429 . S
C613 N610 1.350 . S
C613 C612 1.434 . S
C614 C615 1.369 . S
C614 C616 1.419 . S
C614 H618 0.930 . S
C615 C614 1.369 . S
C615 C624 1.429 . S
C616 C614 1.419 . S
C616 C617 1.363 . S
C616 H619 0.929 . S
C617 C616 1.363 . S
C617 C623 1.428 . S
H618 C614 0.930 . S
H619 C616 0.929 . S
S620 N621 1.613 . S
S620 N622 1.610 . S
N621 S620 1.613 . S
N621 C624 1.350 . S
N622 S620 1.610 . S
N622 C623 1.351 . S
C623 C617 1.428 . S
C623 N622 1.351 . S
C623 C624 1.434 . S
C624 C615 1.429 . S
C624 N621 1.350 . S
C624 C623 1.434 . S
C625 C626 1.369 . S
C625 C627 1.419 . S
C625 H629 0.930 . S
C626 C625 1.369 . S
C626 C635 1.429 . S
C627 C625 1.419 . S
C627 C628 1.363 . S
C627 H630 0.929 . S
C628 C627 1.363 . S
C628 C634 1.428 . S
H629 C625 0.930 . S
H630 C627 0.929 . S
S631 N632 1.613 . S
S631 N633 1.610 . S
N632 S631 1.613 . S
N632 C635 1.350 . S
N633 S631 1.610 . S
N633 C634 1.351 . S
C634 C628 1.428 . S
C634 N633 1.351 . S
C634 C635 1.434 . S
C635 C626 1.429 . S
C635 N632 1.350 . S
C635 C634 1.434 . S
C636 C637 1.369 . S
C636 C638 1.419 . S
C636 H640 0.930 . S
C637 C636 1.369 . S
C637 C646 1.429 . S
C638 C636 1.419 . S
C638 C639 1.363 . S
C638 H641 0.929 . S
C639 C638 1.363 . S
C639 C645 1.428 . S
H640 C636 0.930 . S
H641 C638 0.929 . S
S642 N643 1.613 . S
S642 N644 1.610 . S
N643 S642 1.613 . S
N643 C646 1.350 . S
N644 S642 1.610 . S
N644 C645 1.351 . S
C645 C639 1.428 . S
C645 N644 1.351 . S
C645 C646 1.434 . S
C646 C637 1.429 . S
C646 N643 1.350 . S
C646 C645 1.434 . S
C647 C648 1.369 . S
C647 C649 1.419 . S
C647 H651 0.930 . S
C648 C647 1.369 . S
C648 C657 1.429 . S
C649 C647 1.419 . S
C649 C650 1.363 . S
C649 H652 0.929 . S
C650 C649 1.363 . S
C650 C656 1.428 . S
H651 C647 0.930 . S
H652 C649 0.929 . S
S653 N654 1.613 . S
S653 N655 1.610 . S
N654 S653 1.613 . S
N654 C657 1.350 . S
N655 S653 1.610 . S
N655 C656 1.351 . S
C656 C650 1.428 . S
C656 N655 1.351 . S
C656 C657 1.434 . S
C657 C648 1.429 . S
C657 N654 1.350 . S
C657 C656 1.434 . S
C658 C659 1.369 . S
C658 C660 1.419 . S
C658 H662 0.930 . S
C659 C658 1.369 . S
C659 C668 1.429 . S
C660 C658 1.419 . S
C660 C661 1.363 . S
C660 H663 0.929 . S
C661 C660 1.363 . S
C661 C667 1.428 . S
H662 C658 0.930 . S
H663 C660 0.929 . S
S664 N665 1.613 . S
S664 N666 1.610 . S
N665 S664 1.613 . S
N665 C668 1.350 . S
N666 S664 1.610 . S
N666 C667 1.351 . S
C667 C661 1.428 . S
C667 N666 1.351 . S
C667 C668 1.434 . S
C668 C659 1.429 . S
C668 N665 1.350 . S
C668 C667 1.434 . S
C669 C670 1.369 . S
C669 C671 1.419 . S
C669 H673 0.930 . S
C670 C669 1.369 . S
C670 C679 1.429 . S
C671 C669 1.419 . S
C671 C672 1.363 . S
C671 H674 0.929 . S
C672 C671 1.363 . S
C672 C678 1.428 . S
H673 C669 0.930 . S
H674 C671 0.929 . S
S675 N676 1.613 . S
S675 N677 1.610 . S
N676 S675 1.613 . S
N676 C679 1.350 . S
N677 S675 1.610 . S
N677 C678 1.351 . S
C678 C672 1.428 . S
C678 N677 1.351 . S
C678 C679 1.434 . S
C679 C670 1.429 . S
C679 N676 1.350 . S
C679 C678 1.434 . S
C680 C681 1.369 . S
C680 C682 1.419 . S
C680 H684 0.930 . S
C681 C680 1.369 . S
C681 C690 1.429 . S
C682 C680 1.419 . S
C682 C683 1.363 . S
C682 H685 0.929 . S
C683 C682 1.363 . S
C683 C689 1.428 . S
H684 C680 0.930 . S
H685 C682 0.929 . S
S686 N687 1.613 . S
S686 N688 1.610 . S
N687 S686 1.613 . S
N687 C690 1.350 . S
N688 S686 1.610 . S
N688 C689 1.351 . S
C689 C683 1.428 . S
C689 N688 1.351 . S
C689 C690 1.434 . S
C690 C681 1.429 . S
C690 N687 1.350 . S
C690 C689 1.434 . S
C691 C692 1.369 . S
C691 C693 1.419 . S
C691 H695 0.930 . S
C692 C691 1.369 . S
C692 C701 1.429 . S
C693 C691 1.419 . S
C693 C694 1.363 . S
C693 H696 0.929 . S
C694 C693 1.363 . S
C694 C700 1.428 . S
H695 C691 0.930 . S
H696 C693 0.929 . S
S697 N698 1.613 . S
S697 N699 1.610 . S
N698 S697 1.613 . S
N698 C701 1.350 . S
N699 S697 1.610 . S
N699 C700 1.351 . S
C700 C694 1.428 . S
C700 N699 1.351 . S
C700 C701 1.434 . S
C701 C692 1.429 . S
C701 N698 1.350 . S
C701 C700 1.434 . S
C702 C703 1.369 . S
C702 C704 1.419 . S
C702 H706 0.930 . S
C703 C702 1.369 . S
C703 C712 1.429 . S
C704 C702 1.419 . S
C704 C705 1.363 . S
C704 H707 0.929 . S
C705 C704 1.363 . S
C705 C711 1.428 . S
H706 C702 0.930 . S
H707 C704 0.929 . S
S708 N709 1.613 . S
S708 N710 1.610 . S
N709 S708 1.613 . S
N709 C712 1.350 . S
N710 S708 1.610 . S
N710 C711 1.351 . S
C711 C705 1.428 . S
C711 N710 1.351 . S
C711 C712 1.434 . S
C712 C703 1.429 . S
C712 N709 1.350 . S
C712 C711 1.434 . S
C713 C714 1.369 . S
C713 C715 1.419 . S
C713 H717 0.930 . S
C714 C713 1.369 . S
C714 C723 1.429 . S
C715 C713 1.419 . S
C715 C716 1.363 . S
C715 H718 0.929 . S
C716 C715 1.363 . S
C716 C722 1.428 . S
H717 C713 0.930 . S
H718 C715 0.929 . S
S719 N720 1.613 . S
S719 N721 1.610 . S
N720 S719 1.613 . S
N720 C723 1.350 . S
N721 S719 1.610 . S
N721 C722 1.351 . S
C722 C716 1.428 . S
C722 N721 1.351 . S
C722 C723 1.434 . S
C723 C714 1.429 . S
C723 N720 1.350 . S
C723 C722 1.434 . S
C724 C725 1.369 . S
C724 C726 1.419 . S
C724 H728 0.930 . S
C725 C724 1.369 . S
C725 C734 1.429 . S
C726 C724 1.419 . S
C726 C727 1.363 . S
C726 H729 0.929 . S
C727 C726 1.363 . S
C727 C733 1.428 . S
H728 C724 0.930 . S
H729 C726 0.929 . S
S730 N731 1.613 . S
S730 N732 1.610 . S
N731 S730 1.613 . S
N731 C734 1.350 . S
N732 S730 1.610 . S
N732 C733 1.351 . S
C733 C727 1.428 . S
C733 N732 1.351 . S
C733 C734 1.434 . S
C734 C725 1.429 . S
C734 N731 1.350 . S
C734 C733 1.434 . S
C735 C736 1.369 . S
C735 C737 1.419 . S
C735 H739 0.930 . S
C736 C735 1.369 . S
C736 C745 1.429 . S
C737 C735 1.419 . S
C737 C738 1.363 . S
C737 H740 0.929 . S
C738 C737 1.363 . S
C738 C744 1.428 . S
H739 C735 0.930 . S
H740 C737 0.929 . S
S741 N742 1.613 . S
S741 N743 1.610 . S
N742 S741 1.613 . S
N742 C745 1.350 . S
N743 S741 1.610 . S
N743 C744 1.351 . S
C744 C738 1.428 . S
C744 N743 1.351 . S
C744 C745 1.434 . S
C745 C736 1.429 . S
C745 N742 1.350 . S
C745 C744 1.434 . S
C746 C747 1.369 . S
C746 C748 1.419 . S
C746 H750 0.930 . S
C747 C746 1.369 . S
C747 C756 1.429 . S
C748 C746 1.419 . S
C748 C749 1.363 . S
C748 H751 0.929 . S
C749 C748 1.363 . S
C749 C755 1.428 . S
H750 C746 0.930 . S
H751 C748 0.929 . S
S752 N753 1.613 . S
S752 N754 1.610 . S
N753 S752 1.613 . S
N753 C756 1.350 . S
N754 S752 1.610 . S
N754 C755 1.351 . S
C755 C749 1.428 . S
C755 N754 1.351 . S
C755 C756 1.434 . S
C756 C747 1.429 . S
C756 N753 1.350 . S
C756 C755 1.434 . S
C757 C758 1.369 . S
C757 C759 1.419 . S
C757 H761 0.930 . S
C758 C757 1.369 . S
C758 C767 1.429 . S
C759 C757 1.419 . S
C759 C760 1.363 . S
C759 H762 0.929 . S
C760 C759 1.363 . S
C760 C766 1.428 . S
H761 C757 0.930 . S
H762 C759 0.929 . S
S763 N764 1.613 . S
S763 N765 1.610 . S
N764 S763 1.613 . S
N764 C767 1.350 . S
N765 S763 1.610 . S
N765 C766 1.351 . S
C766 C760 1.428 . S
C766 N765 1.351 . S
C766 C767 1.434 . S
C767 C758 1.429 . S
C767 N764 1.350 . S
C767 C766 1.434 . S
C768 C769 1.369 . S
C768 C770 1.419 . S
C768 H772 0.930 . S
C769 C768 1.369 . S
C769 C778 1.429 . S
C770 C768 1.419 . S
C770 C771 1.363 . S
C770 H773 0.929 . S
C771 C770 1.363 . S
C771 C777 1.428 . S
H772 C768 0.930 . S
H773 C770 0.929 . S
S774 N775 1.613 . S
S774 N776 1.610 . S
N775 S774 1.613 . S
N775 C778 1.350 . S
N776 S774 1.610 . S
N776 C777 1.351 . S
C777 C771 1.428 . S
C777 N776 1.351 . S
C777 C778 1.434 . S
C778 C769 1.429 . S
C778 N775 1.350 . S
C778 C777 1.434 . S
C779 C780 1.372 . S
C779 C781 1.415 1_455 S
C779 H783 0.930 . S
C780 C779 1.372 . S
C780 C789 1.429 1_565 S
C781 C779 1.415 1_655 S
C781 C782 1.363 1_565 S
C781 H784 0.929 . S
C782 C781 1.363 1_545 S
C782 C788 1.433 . S
H783 C779 0.930 . S
H784 C781 0.929 . S
S785 N786 1.613 . S
S785 N787 1.605 1_455 S
N786 S785 1.613 . S
N786 C789 1.350 . S
N787 S785 1.605 1_655 S
N787 C788 1.351 . S
C788 C782 1.433 . S
C788 N787 1.351 . S
C788 C789 1.429 1_655 S
C789 C780 1.429 1_545 S
C789 N786 1.350 . S
C789 C788 1.429 1_455 S
C790 C791 1.369 . S
C790 C792 1.419 . S
C790 H794 0.930 . S
C791 C790 1.369 . S
C791 C800 1.429 . S
C792 C790 1.419 . S
C792 C793 1.363 . S
C792 H795 0.929 . S
C793 C792 1.363 . S
C793 C799 1.428 . S
H794 C790 0.930 . S
H795 C792 0.929 . S
S796 N797 1.613 . S
S796 N798 1.610 . S
N797 S796 1.613 . S
N797 C800 1.350 . S
N798 S796 1.610 . S
N798 C799 1.351 . S
C799 C793 1.428 . S
C799 N798 1.351 . S
C799 C800 1.434 . S
C800 C791 1.429 . S
C800 N797 1.350 . S
C800 C799 1.434 . S
C801 C802 1.369 1_565 S
C801 C803 1.419 1_554 S
C801 H805 0.930 . S
C802 C801 1.369 1_545 S
C802 C811 1.429 . S
C803 C801 1.419 1_556 S
C803 C804 1.363 . S
C803 H806 0.929 . S
C804 C803 1.363 . S
C804 C810 1.428 1_565 S
H805 C801 0.930 . S
H806 C803 0.929 . S
S807 N808 1.613 1_556 S
S807 N809 1.610 . S
N808 S807 1.613 1_554 S
N808 C811 1.350 . S
N809 S807 1.610 . S
N809 C810 1.351 . S
C810 C804 1.428 1_545 S
C810 N809 1.351 . S
C810 C811 1.434 1_556 S
C811 C802 1.429 . S
C811 N808 1.350 . S
C811 C810 1.434 1_554 S
C812 C813 1.369 . S
C812 C814 1.419 . S
C812 H816 0.930 . S
C813 C812 1.369 . S
C813 C822 1.429 . S
C814 C812 1.419 . S
C814 C815 1.363 . S
C814 H817 0.929 . S
C815 C814 1.363 . S
C815 C821 1.428 . S
H816 C812 0.930 . S
H817 C814 0.929 . S
S818 N819 1.613 . S
S818 N820 1.610 . S
N819 S818 1.613 . S
N819 C822 1.350 . S
N820 S818 1.610 . S
N820 C821 1.351 . S
C821 C815 1.428 . S
C821 N820 1.351 . S
C821 C822 1.434 . S
C822 C813 1.429 . S
C822 N819 1.350 . S
C822 C821 1.434 . S
C823 C824 1.369 . S
C823 C825 1.419 . S
C823 H827 0.930 . S
C824 C823 1.369 . S
C824 C833 1.429 1_565 S
C825 C823 1.419 . S
C825 C826 1.363 1_565 S
C825 H828 0.929 . S
C826 C825 1.363 1_545 S
C826 C832 1.428 . S
H827 C823 0.930 . S
H828 C825 0.929 . S
S829 N830 1.613 . S
S829 N831 1.610 . S
N830 S829 1.613 . S
N830 C833 1.350 . S
N831 S829 1.610 . S
N831 C832 1.351 . S
C832 C826 1.428 . S
C832 N831 1.351 . S
C832 C833 1.434 . S
C833 C824 1.429 1_545 S
C833 N830 1.350 . S
C833 C832 1.434 . S
C834 C835 1.369 . S
C834 C836 1.419 . S
C834 H838 0.930 . S
C835 C834 1.369 . S
C835 C844 1.429 . S
C836 C834 1.419 . S
C836 C837 1.363 . S
C836 H839 0.929 . S
C837 C836 1.363 . S
C837 C843 1.428 . S
H838 C834 0.930 . S
H839 C836 0.929 . S
S840 N841 1.613 . S
S840 N842 1.610 . S
N841 S840 1.613 . S
N841 C844 1.350 . S
N842 S840 1.610 . S
N842 C843 1.351 . S
C843 C837 1.428 . S
C843 N842 1.351 . S
C843 C844 1.434 . S
C844 C835 1.429 . S
C844 N841 1.350 . S
C844 C843 1.434 . S
C845 C846 1.369 1_655 S
C845 C847 1.419 1_556 S
C845 H849 0.930 . S
C846 C845 1.369 1_455 S
C846 C855 1.429 1_545 S
C847 C845 1.419 1_554 S
C847 C848 1.363 1_545 S
C847 H850 0.929 . S
C848 C847 1.363 1_565 S
C848 C854 1.428 1_655 S
H849 C845 0.930 . S
H850 C847 0.929 . S
S851 N852 1.613 1_554 S
S851 N853 1.610 . S
N852 S851 1.613 1_556 S
N852 C855 1.350 . S
N853 S851 1.610 . S
N853 C854 1.351 . S
C854 C848 1.428 1_455 S
C854 N853 1.351 . S
C854 C855 1.434 1_554 S
C855 C846 1.429 1_565 S
C855 N852 1.350 . S
C855 C854 1.434 1_556 S
C856 C857 1.369 . S
C856 C858 1.419 . S
C856 H860 0.930 . S
C857 C856 1.369 . S
C857 C866 1.429 . S
C858 C856 1.419 . S
C858 C859 1.363 . S
C858 H861 0.929 . S
C859 C858 1.363 . S
C859 C865 1.428 . S
H860 C856 0.930 . S
H861 C858 0.929 . S
S862 N863 1.613 . S
S862 N864 1.610 . S
N863 S862 1.613 . S
N863 C866 1.350 . S
N864 S862 1.610 . S
N864 C865 1.351 . S
C865 C859 1.428 . S
C865 N864 1.351 . S
C865 C866 1.434 . S
C866 C857 1.429 . S
C866 N863 1.350 . S
C866 C865 1.434 . S
C867 C868 1.369 . S
C867 C869 1.419 . S
C867 H871 0.930 . S
C868 C867 1.369 . S
C868 C877 1.429 . S
C869 C867 1.419 . S
C869 C870 1.363 . S
C869 H872 0.929 . S
C870 C869 1.363 . S
C870 C876 1.428 . S
H871 C867 0.930 . S
H872 C869 0.929 . S
S873 N874 1.613 . S
S873 N875 1.610 . S
N874 S873 1.613 . S
N874 C877 1.350 . S
N875 S873 1.610 . S
N875 C876 1.351 . S
C876 C870 1.428 . S
C876 N875 1.351 . S
C876 C877 1.434 . S
C877 C868 1.429 . S
C877 N874 1.350 . S
C877 C876 1.434 . S
C878 C879 1.369 . S
C878 C880 1.419 . S
C878 H882 0.930 . S
C879 C878 1.369 . S
C879 C888 1.429 . S
C880 C878 1.419 . S
C880 C881 1.363 . S
C880 H883 0.929 . S
C881 C880 1.363 . S
C881 C887 1.428 . S
H882 C878 0.930 . S
H883 C880 0.929 . S
S884 N885 1.613 . S
S884 N886 1.610 . S
N885 S884 1.613 . S
N885 C888 1.350 . S
N886 S884 1.610 . S
N886 C887 1.351 . S
C887 C881 1.428 . S
C887 N886 1.351 . S
C887 C888 1.434 . S
C888 C879 1.429 . S
C888 N885 1.350 . S
C888 C887 1.434 . S
C889 C890 1.369 . S
C889 C891 1.419 . S
C889 H893 0.930 . S
C890 C889 1.369 . S
C890 C899 1.429 . S
C891 C889 1.419 . S
C891 C892 1.363 . S
C891 H894 0.929 . S
C892 C891 1.363 . S
C892 C898 1.428 . S
H893 C889 0.930 . S
H894 C891 0.929 . S
S895 N896 1.613 . S
S895 N897 1.610 . S
N896 S895 1.613 . S
N896 C899 1.350 . S
N897 S895 1.610 . S
N897 C898 1.351 . S
C898 C892 1.428 . S
C898 N897 1.351 . S
C898 C899 1.434 . S
C899 C890 1.429 . S
C899 N896 1.350 . S
C899 C898 1.434 . S
C900 C901 1.369 . S
C900 C902 1.419 1_554 S
C900 H904 0.930 . S
C901 C900 1.369 . S
C901 C910 1.429 . S
C902 C900 1.419 1_556 S
C902 C903 1.363 . S
C902 H905 0.929 . S
C903 C902 1.363 . S
C903 C909 1.428 . S
H904 C900 0.930 . S
H905 C902 0.929 . S
S906 N907 1.613 1_556 S
S906 N908 1.610 . S
N907 S906 1.613 1_554 S
N907 C910 1.350 . S
N908 S906 1.610 . S
N908 C909 1.351 . S
C909 C903 1.428 . S
C909 N908 1.351 . S
C909 C910 1.434 1_556 S
C910 C901 1.429 . S
C910 N907 1.350 . S
C910 C909 1.434 1_554 S
C911 C912 1.362 1_655 S
C911 C913 1.425 . S
C911 H915 0.931 . S
C912 C911 1.362 1_455 S
C912 C921 1.429 . S
C913 C911 1.425 . S
C913 C914 1.363 . S
C913 H916 0.929 . S
C914 C913 1.363 . S
C914 C920 1.422 1_655 S
H915 C911 0.931 . S
H916 C913 0.929 . S
S917 N918 1.613 . S
S917 N919 1.610 . S
N918 S917 1.613 . S
N918 C921 1.350 . S
N919 S917 1.610 . S
N919 C920 1.352 . S
C920 C914 1.422 1_455 S
C920 N919 1.352 . S
C920 C921 1.440 . S
C921 C912 1.429 . S
C921 N918 1.350 . S
C921 C920 1.440 . S
C922 C923 1.369 . S
C922 C924 1.419 1_554 S
C922 H926 0.930 . S
C923 C922 1.369 . S
C923 C932 1.429 1_455 S
C924 C922 1.419 1_556 S
C924 C925 1.363 1_455 S
C924 H927 0.929 . S
C925 C924 1.363 1_655 S
C925 C931 1.428 . S
H926 C922 0.930 . S
H927 C924 0.929 . S
S928 N929 1.613 . S
S928 N930 1.610 1_554 S
N929 S928 1.613 . S
N929 C932 1.350 . S
N930 S928 1.610 1_556 S
N930 C931 1.351 . S
C931 C925 1.428 . S
C931 N930 1.351 . S
C931 C932 1.434 1_556 S
C932 C923 1.429 1_655 S
C932 N929 1.350 . S
C932 C931 1.434 1_554 S
C933 C934 1.369 . S
C933 C935 1.419 . S
C933 H937 0.930 . S
C934 C933 1.369 . S
C934 C943 1.429 . S
C935 C933 1.419 . S
C935 C936 1.363 . S
C935 H938 0.929 . S
C936 C935 1.363 . S
C936 C942 1.428 . S
H937 C933 0.930 . S
H938 C935 0.929 . S
S939 N940 1.613 . S
S939 N941 1.610 . S
N940 S939 1.613 . S
N940 C943 1.350 . S
N941 S939 1.610 . S
N941 C942 1.351 . S
C942 C936 1.428 . S
C942 N941 1.351 . S
C942 C943 1.434 . S
C943 C934 1.429 . S
C943 N940 1.350 . S
C943 C942 1.434 . S
C944 C945 1.369 . S
C944 C946 1.419 . S
C944 H948 0.930 . S
C945 C944 1.369 . S
C945 C954 1.429 . S
C946 C944 1.419 . S
C946 C947 1.363 . S
C946 H949 0.929 . S
C947 C946 1.363 . S
C947 C953 1.428 . S
H948 C944 0.930 . S
H949 C946 0.929 . S
S950 N951 1.613 . S
S950 N952 1.610 . S
N951 S950 1.613 . S
N951 C954 1.350 . S
N952 S950 1.610 . S
N952 C953 1.351 . S
C953 C947 1.428 . S
C953 N952 1.351 . S
C953 C954 1.434 . S
C954 C945 1.429 . S
C954 N951 1.350 . S
C954 C953 1.434 . S
C955 C956 1.369 . S
C955 C957 1.419 . S
C955 H959 0.930 . S
C956 C955 1.369 . S
C956 C965 1.429 . S
C957 C955 1.419 . S
C957 C958 1.363 . S
C957 H960 0.929 . S
C958 C957 1.363 . S
C958 C964 1.428 . S
H959 C955 0.930 . S
H960 C957 0.929 . S
S961 N962 1.613 . S
S961 N963 1.610 . S
N962 S961 1.613 . S
N962 C965 1.350 . S
N963 S961 1.610 . S
N963 C964 1.351 . S
C964 C958 1.428 . S
C964 N963 1.351 . S
C964 C965 1.434 . S
C965 C956 1.429 . S
C965 N962 1.350 . S
C965 C964 1.434 . S
C966 C967 1.369 . S
C966 C968 1.419 . S
C966 H970 0.930 . S
C967 C966 1.369 . S
C967 C976 1.429 . S
C968 C966 1.419 . S
C968 C969 1.363 . S
C968 H971 0.929 . S
C969 C968 1.363 . S
C969 C975 1.428 . S
H970 C966 0.930 . S
H971 C968 0.929 . S
S972 N973 1.613 . S
S972 N974 1.610 . S
N973 S972 1.613 . S
N973 C976 1.350 . S
N974 S972 1.610 . S
N974 C975 1.351 . S
C975 C969 1.428 . S
C975 N974 1.351 . S
C975 C976 1.434 . S
C976 C967 1.429 . S
C976 N973 1.350 . S
C976 C975 1.434 . S
C977 C978 1.369 . S
C977 C979 1.419 . S
C977 H981 0.930 . S
C978 C977 1.369 . S
C978 C987 1.429 . S
C979 C977 1.419 . S
C979 C980 1.363 . S
C979 H982 0.929 . S
C980 C979 1.363 . S
C980 C986 1.428 . S
H981 C977 0.930 . S
H982 C979 0.929 . S
S983 N984 1.613 . S
S983 N985 1.610 . S
N984 S983 1.613 . S
N984 C987 1.350 . S
N985 S983 1.610 . S
N985 C986 1.351 . S
C986 C980 1.428 . S
C986 N985 1.351 . S
C986 C987 1.434 . S
C987 C978 1.429 . S
C987 N984 1.350 . S
C987 C986 1.434 . S
C988 C989 1.369 . S
C988 C990 1.419 . S
C988 H992 0.930 . S
C989 C988 1.369 . S
C989 C998 1.429 . S
C990 C988 1.419 . S
C990 C991 1.363 . S
C990 H993 0.929 . S
C991 C990 1.363 . S
C991 C997 1.428 . S
H992 C988 0.930 . S
H993 C990 0.929 . S
S994 N995 1.613 . S
S994 N996 1.610 . S
N995 S994 1.613 . S
N995 C998 1.350 . S
N996 S994 1.610 . S
N996 C997 1.351 . S
C997 C991 1.428 . S
C997 N996 1.351 . S
C997 C998 1.434 . S
C998 C989 1.429 . S
C998 N995 1.350 . S
C998 C997 1.434 . S
C999 C1000 1.369 . S
C999 C1001 1.419 . S
C999 H1003 0.930 . S
C1000 C999 1.369 . S
C1000 C1009 1.429 . S
C1001 C999 1.419 . S
C1001 C1002 1.363 . S
C1001 H1004 0.929 . S
C1002 C1001 1.363 . S
C1002 C1008 1.428 . S
H1003 C999 0.930 . S
H1004 C1001 0.929 . S
S1005 N1006 1.613 . S
S1005 N1007 1.610 . S
N1006 S1005 1.613 . S
N1006 C1009 1.350 . S
N1007 S1005 1.610 . S
N1007 C1008 1.351 . S
C1008 C1002 1.428 . S
C1008 N1007 1.351 . S
C1008 C1009 1.434 . S
C1009 C1000 1.429 . S
C1009 N1006 1.350 . S
C1009 C1008 1.434 . S
C1010 C1011 1.369 . S
C1010 C1012 1.419 . S
C1010 H1014 0.930 . S
C1011 C1010 1.369 . S
C1011 C1020 1.429 . S
C1012 C1010 1.419 . S
C1012 C1013 1.363 . S
C1012 H1015 0.929 . S
C1013 C1012 1.363 . S
C1013 C1019 1.428 . S
H1014 C1010 0.930 . S
H1015 C1012 0.929 . S
S1016 N1017 1.613 . S
S1016 N1018 1.610 . S
N1017 S1016 1.613 . S
N1017 C1020 1.350 . S
N1018 S1016 1.610 . S
N1018 C1019 1.351 . S
C1019 C1013 1.428 . S
C1019 N1018 1.351 . S
C1019 C1020 1.434 . S
C1020 C1011 1.429 . S
C1020 N1017 1.350 . S
C1020 C1019 1.434 . S
C1021 C1022 1.369 . S
C1021 C1023 1.419 . S
C1021 H1025 0.930 . S
C1022 C1021 1.369 . S
C1022 C1031 1.429 . S
C1023 C1021 1.419 . S
C1023 C1024 1.363 . S
C1023 H1026 0.929 . S
C1024 C1023 1.363 . S
C1024 C1030 1.428 . S
H1025 C1021 0.930 . S
H1026 C1023 0.929 . S
S1027 N1028 1.613 . S
S1027 N1029 1.610 . S
N1028 S1027 1.613 . S
N1028 C1031 1.350 . S
N1029 S1027 1.610 . S
N1029 C1030 1.351 . S
C1030 C1024 1.428 . S
C1030 N1029 1.351 . S
C1030 C1031 1.434 . S
C1031 C1022 1.429 . S
C1031 N1028 1.350 . S
C1031 C1030 1.434 . S
C1032 C1033 1.369 . S
C1032 C1034 1.419 . S
C1032 H1036 0.930 . S
C1033 C1032 1.369 . S
C1033 C1042 1.429 . S
C1034 C1032 1.419 . S
C1034 C1035 1.363 . S
C1034 H1037 0.929 . S
C1035 C1034 1.363 . S
C1035 C1041 1.428 . S
H1036 C1032 0.930 . S
H1037 C1034 0.929 . S
S1038 N1039 1.613 . S
S1038 N1040 1.610 . S
N1039 S1038 1.613 . S
N1039 C1042 1.350 . S
N1040 S1038 1.610 . S
N1040 C1041 1.351 . S
C1041 C1035 1.428 . S
C1041 N1040 1.351 . S
C1041 C1042 1.434 . S
C1042 C1033 1.429 . S
C1042 N1039 1.350 . S
C1042 C1041 1.434 . S
C1043 C1044 1.369 . S
C1043 C1045 1.419 . S
C1043 H1047 0.930 . S
C1044 C1043 1.369 . S
C1044 C1053 1.429 . S
C1045 C1043 1.419 . S
C1045 C1046 1.363 . S
C1045 H1048 0.929 . S
C1046 C1045 1.363 . S
C1046 C1052 1.428 . S
H1047 C1043 0.930 . S
H1048 C1045 0.929 . S
S1049 N1050 1.613 . S
S1049 N1051 1.610 . S
N1050 S1049 1.613 . S
N1050 C1053 1.350 . S
N1051 S1049 1.610 . S
N1051 C1052 1.351 . S
C1052 C1046 1.428 . S
C1052 N1051 1.351 . S
C1052 C1053 1.434 . S
C1053 C1044 1.429 . S
C1053 N1050 1.350 . S
C1053 C1052 1.434 . S
C1054 C1055 1.369 . S
C1054 C1056 1.419 . S
C1054 H1058 0.930 . S
C1055 C1054 1.369 . S
C1055 C1064 1.429 . S
C1056 C1054 1.419 . S
C1056 C1057 1.363 . S
C1056 H1059 0.929 . S
C1057 C1056 1.363 . S
C1057 C1063 1.428 . S
H1058 C1054 0.930 . S
H1059 C1056 0.929 . S
S1060 N1061 1.613 . S
S1060 N1062 1.610 . S
N1061 S1060 1.613 . S
N1061 C1064 1.350 . S
N1062 S1060 1.610 . S
N1062 C1063 1.351 . S
C1063 C1057 1.428 . S
C1063 N1062 1.351 . S
C1063 C1064 1.434 . S
C1064 C1055 1.429 . S
C1064 N1061 1.350 . S
C1064 C1063 1.434 . S
C1065 C1066 1.369 . S
C1065 C1067 1.419 . S
C1065 H1069 0.930 . S
C1066 C1065 1.369 . S
C1066 C1075 1.429 . S
C1067 C1065 1.419 . S
C1067 C1068 1.363 . S
C1067 H1070 0.929 . S
C1068 C1067 1.363 . S
C1068 C1074 1.428 . S
H1069 C1065 0.930 . S
H1070 C1067 0.929 . S
S1071 N1072 1.613 . S
S1071 N1073 1.610 . S
N1072 S1071 1.613 . S
N1072 C1075 1.350 . S
N1073 S1071 1.610 . S
N1073 C1074 1.351 . S
C1074 C1068 1.428 . S
C1074 N1073 1.351 . S
C1074 C1075 1.434 . S
C1075 C1066 1.429 . S
C1075 N1072 1.350 . S
C1075 C1074 1.434 . S
C1076 C1077 1.369 . S
C1076 C1078 1.419 . S
C1076 H1080 0.930 . S
C1077 C1076 1.369 . S
C1077 C1086 1.429 . S
C1078 C1076 1.419 . S
C1078 C1079 1.363 . S
C1078 H1081 0.929 . S
C1079 C1078 1.363 . S
C1079 C1085 1.428 . S
H1080 C1076 0.930 . S
H1081 C1078 0.929 . S
S1082 N1083 1.613 . S
S1082 N1084 1.610 . S
N1083 S1082 1.613 . S
N1083 C1086 1.350 . S
N1084 S1082 1.610 . S
N1084 C1085 1.351 . S
C1085 C1079 1.428 . S
C1085 N1084 1.351 . S
C1085 C1086 1.434 . S
C1086 C1077 1.429 . S
C1086 N1083 1.350 . S
C1086 C1085 1.434 . S
C1087 C1088 1.369 . S
C1087 C1089 1.419 . S
C1087 H1091 0.930 . S
C1088 C1087 1.369 . S
C1088 C1097 1.429 . S
C1089 C1087 1.419 . S
C1089 C1090 1.363 . S
C1089 H1092 0.929 . S
C1090 C1089 1.363 . S
C1090 C1096 1.428 . S
H1091 C1087 0.930 . S
H1092 C1089 0.929 . S
S1093 N1094 1.613 . S
S1093 N1095 1.610 . S
N1094 S1093 1.613 . S
N1094 C1097 1.350 . S
N1095 S1093 1.610 . S
N1095 C1096 1.351 . S
C1096 C1090 1.428 . S
C1096 N1095 1.351 . S
C1096 C1097 1.434 . S
C1097 C1088 1.429 . S
C1097 N1094 1.350 . S
C1097 C1096 1.434 . S
C1098 C1099 1.369 . S
C1098 C1100 1.419 . S
C1098 H1102 0.930 . S
C1099 C1098 1.369 . S
C1099 C1108 1.429 . S
C1100 C1098 1.419 . S
C1100 C1101 1.363 . S
C1100 H1103 0.929 . S
C1101 C1100 1.363 . S
C1101 C1107 1.428 . S
H1102 C1098 0.930 . S
H1103 C1100 0.929 . S
S1104 N1105 1.613 . S
S1104 N1106 1.610 . S
N1105 S1104 1.613 . S
N1105 C1108 1.350 . S
N1106 S1104 1.610 . S
N1106 C1107 1.351 . S
C1107 C1101 1.428 . S
C1107 N1106 1.351 . S
C1107 C1108 1.434 . S
C1108 C1099 1.429 . S
C1108 N1105 1.350 . S
C1108 C1107 1.434 . S
C1109 C1110 1.369 . S
C1109 C1111 1.419 . S
C1109 H1113 0.930 . S
C1110 C1109 1.369 . S
C1110 C1119 1.429 . S
C1111 C1109 1.419 . S
C1111 C1112 1.363 . S
C1111 H1114 0.929 . S
C1112 C1111 1.363 . S
C1112 C1118 1.428 . S
H1113 C1109 0.930 . S
H1114 C1111 0.929 . S
S1115 N1116 1.613 . S
S1115 N1117 1.610 . S
N1116 S1115 1.613 . S
N1116 C1119 1.350 . S
N1117 S1115 1.610 . S
N1117 C1118 1.351 . S
C1118 C1112 1.428 . S
C1118 N1117 1.351 . S
C1118 C1119 1.434 . S
C1119 C1110 1.429 . S
C1119 N1116 1.350 . S
C1119 C1118 1.434 . S
C417 C359 1.440 . S
C419 C5 1.365 . S
C428 C18 1.365 . S
C430 C112 1.441 . S
C439 C333 1.444 . S
C441 C31 1.371 . S
C450 C44 1.361 . S
C452 C138 1.439 . S
C461 C57 1.365 . S
C463 C385 1.441 . S
C472 C70 1.361 . S
C474 C190 1.439 . S
C483 C83 1.362 . S
C485 C411 1.439 . S
C494 C96 1.367 . S
C496 C164 1.442 . S
C505 C255 1.444 . S
C507 C109 1.371 . S
C516 C8 1.439 . S
C518 C122 1.363 . S
C527 C229 1.441 . S
C529 C135 1.366 . S
C538 C148 1.373 . S
C540 C34 1.444 . S
C549 C281 1.440 . S
C551 C161 1.366 . S
C560 C86 1.445 . S
C562 C174 1.372 . S
C571 C187 1.362 . S
C573 C307 1.439 . S
C582 C60 1.440 . S
C584 C200 1.365 . S
C593 C213 1.371 . S
C595 C151 1.443 . S
C604 C226 1.374 . S
C606 C320 1.444 . S
C615 C125 1.444 . S
C617 C239 1.371 . S
C626 C346 1.440 . S
C628 C252 1.365 . S
C637 C177 1.441 . S
C639 C265 1.367 . S
C648 C398 1.445 . S
C650 C278 1.372 . S
C659 C203 1.442 . S
C661 C291 1.368 . S
C670 C304 1.370 . S
C672 C372 1.443 . S
C681 C47 1.441 . S
C683 C317 1.367 . S
C692 C330 1.373 . S
C694 C216 1.443 . S
C703 C343 1.369 . S
C705 C21 1.443 . S
C714 C356 1.374 . S
C716 C242 1.444 . S
C725 C369 1.374 . S
C727 C73 1.444 . S
C736 C382 1.374 . S
C738 C294 1.444 . S
C747 C395 1.371 . S
C749 C99 1.443 . S
C758 C408 1.361 . S
C760 C268 1.439 . S
C769 C322 1.505 . S
C771 C10 1.504 . S
C780 C23 1.506 . S
C782 C127 1.503 . S
C791 C348 1.504 . S
C793 C36 1.505 . S
C802 C49 1.503 . S
C804 C153 1.505 . S
C813 C374 1.504 . S
C815 C62 1.504 . S
C824 C75 1.505 . S
C826 C179 1.503 . S
C835 C400 1.506 . S
C837 C88 1.504 . S
C846 C101 1.505 . S
C848 C205 1.503 . S
C857 C114 1.505 . S
C859 C218 1.504 . S
C868 C140 1.504 . S
C870 C244 1.506 . S
C879 C166 1.503 . S
C881 C270 1.505 . S
C890 C192 1.504 . S
C892 C296 1.505 . S
C901 C231 1.506 . S
C903 C335 1.504 . S
C912 C361 1.503 . S
C914 C257 1.506 . S
C923 C387 1.505 . S
C925 C283 1.504 . S
C934 C309 1.503 . S
C936 C413 1.505 . S
C945 C0 1.164 . S
C947 C65 1.171 . S
C956 C13 1.172 . S
C958 C78 1.163 . S
C967 C26 1.168 . S
C969 C91 1.167 . S
C978 C52 1.167 . S
C980 C39 1.167 . S
C989 C104 1.162 . S
C991 C169 1.171 . S
C1000 C117 1.169 . S
C1002 C182 1.168 . S
C1011 C130 1.160 . S
C1013 C195 1.173 . S
C1022 C143 1.167 . S
C1024 C156 1.166 . S
C1033 C208 1.173 . S
C1035 C273 1.163 . S
C1044 C286 1.168 . S
C1046 C221 1.167 . S
C1055 C234 1.174 . S
C1057 C299 1.162 . S
C1066 C247 1.163 . S
C1068 C260 1.172 . S
C1077 C377 1.168 . S
C1079 C312 1.165 . S
C1088 C325 1.163 . S
C1090 C390 1.169 . S
C1099 C403 1.168 . S
C1101 C338 1.169 . S
C1110 C351 1.161 . S
C1112 C364 1.172 . S
