# Generated by pormake.
# Topology ukv, (4)-cn, num edge types: 1
# Building blocks:
#     Node 0, Type 0, BuildingBlock: QUQFOY_clean_sbu_1, # of connection points: 4
#     Node 1, Type 0, BuildingBlock: QUQFOY_clean_sbu_1, # of connection points: 4
#     Node 2, Type 0, BuildingBlock: QUQFOY_clean_sbu_1, # of connection points: 4
#     Node 3, Type 0, BuildingBlock: QUQFOY_clean_sbu_1, # of connection points: 4
#     Node 4, Type 0, BuildingBlock: QUQFOY_clean_sbu_1, # of connection points: 4
#     Node 5, Type 0, BuildingBlock: QUQFOY_clean_sbu_1, # of connection points: 4
#     Node 6, Type 0, BuildingBlock: QUQFOY_clean_sbu_1, # of connection points: 4
#     Node 7, Type 0, BuildingBlock: QUQFOY_clean_sbu_1, # of connection points: 4
#     Node 8, Type 0, BuildingBlock: QUQFOY_clean_sbu_1, # of connection points: 4
#     Node 9, Type 0, BuildingBlock: QUQFOY_clean_sbu_1, # of connection points: 4
#     Node 10, Type 0, BuildingBlock: QUQFOY_clean_sbu_1, # of connection points: 4
#     Node 11, Type 0, BuildingBlock: QUQFOY_clean_sbu_1, # of connection points: 4
#     Node 12, Type 0, BuildingBlock: QUQFOY_clean_sbu_1, # of connection points: 4
#     Node 13, Type 0, BuildingBlock: QUQFOY_clean_sbu_1, # of connection points: 4
#     Node 14, Type 0, BuildingBlock: QUQFOY_clean_sbu_1, # of connection points: 4
#     Node 15, Type 0, BuildingBlock: QUQFOY_clean_sbu_1, # of connection points: 4
#     Node 16, Type 0, BuildingBlock: QUQFOY_clean_sbu_1, # of connection points: 4
#     Node 17, Type 0, BuildingBlock: QUQFOY_clean_sbu_1, # of connection points: 4
#     Node 18, Type 0, BuildingBlock: QUQFOY_clean_sbu_1, # of connection points: 4
#     Node 19, Type 0, BuildingBlock: QUQFOY_clean_sbu_1, # of connection points: 4
#     Node 20, Type 0, BuildingBlock: QUQFOY_clean_sbu_1, # of connection points: 4
#     Node 21, Type 0, BuildingBlock: QUQFOY_clean_sbu_1, # of connection points: 4
#     Node 22, Type 0, BuildingBlock: QUQFOY_clean_sbu_1, # of connection points: 4
#     Node 23, Type 0, BuildingBlock: QUQFOY_clean_sbu_1, # of connection points: 4
#     Node 24, Type 0, BuildingBlock: QUQFOY_clean_sbu_1, # of connection points: 4
#     Node 25, Type 0, BuildingBlock: QUQFOY_clean_sbu_1, # of connection points: 4
#     Node 26, Type 0, BuildingBlock: QUQFOY_clean_sbu_1, # of connection points: 4
#     Node 27, Type 0, BuildingBlock: QUQFOY_clean_sbu_1, # of connection points: 4
#     Node 28, Type 0, BuildingBlock: QUQFOY_clean_sbu_1, # of connection points: 4
#     Node 29, Type 0, BuildingBlock: QUQFOY_clean_sbu_1, # of connection points: 4
#     Node 30, Type 0, BuildingBlock: QUQFOY_clean_sbu_1, # of connection points: 4
#     Node 31, Type 0, BuildingBlock: QUQFOY_clean_sbu_1, # of connection points: 4
#     Node 32, Type 0, BuildingBlock: QUQFOY_clean_sbu_1, # of connection points: 4
#     Node 33, Type 0, BuildingBlock: QUQFOY_clean_sbu_1, # of connection points: 4
#     Node 34, Type 0, BuildingBlock: QUQFOY_clean_sbu_1, # of connection points: 4
#     Node 35, Type 0, BuildingBlock: QUQFOY_clean_sbu_1, # of connection points: 4
#     Edge 36, Type (0, 0), None
#     Edge 37, Type (0, 0), None
#     Edge 38, Type (0, 0), None
#     Edge 39, Type (0, 0), None
#     Edge 40, Type (0, 0), None
#     Edge 41, Type (0, 0), None
#     Edge 42, Type (0, 0), None
#     Edge 43, Type (0, 0), None
#     Edge 44, Type (0, 0), None
#     Edge 45, Type (0, 0), None
#     Edge 46, Type (0, 0), None
#     Edge 47, Type (0, 0), None
#     Edge 48, Type (0, 0), None
#     Edge 49, Type (0, 0), None
#     Edge 50, Type (0, 0), None
#     Edge 51, Type (0, 0), None
#     Edge 52, Type (0, 0), None
#     Edge 53, Type (0, 0), None
#     Edge 54, Type (0, 0), None
#     Edge 55, Type (0, 0), None
#     Edge 56, Type (0, 0), None
#     Edge 57, Type (0, 0), None
#     Edge 58, Type (0, 0), None
#     Edge 59, Type (0, 0), None
#     Edge 60, Type (0, 0), None
#     Edge 61, Type (0, 0), None
#     Edge 62, Type (0, 0), None
#     Edge 63, Type (0, 0), None
#     Edge 64, Type (0, 0), None
#     Edge 65, Type (0, 0), None
#     Edge 66, Type (0, 0), None
#     Edge 67, Type (0, 0), None
#     Edge 68, Type (0, 0), None
#     Edge 69, Type (0, 0), None
#     Edge 70, Type (0, 0), None
#     Edge 71, Type (0, 0), None
#     Edge 72, Type (0, 0), None
#     Edge 73, Type (0, 0), None
#     Edge 74, Type (0, 0), None
#     Edge 75, Type (0, 0), None
#     Edge 76, Type (0, 0), None
#     Edge 77, Type (0, 0), None
#     Edge 78, Type (0, 0), None
#     Edge 79, Type (0, 0), None
#     Edge 80, Type (0, 0), None
#     Edge 81, Type (0, 0), None
#     Edge 82, Type (0, 0), None
#     Edge 83, Type (0, 0), None
#     Edge 84, Type (0, 0), None
#     Edge 85, Type (0, 0), None
#     Edge 86, Type (0, 0), None
#     Edge 87, Type (0, 0), None
#     Edge 88, Type (0, 0), None
#     Edge 89, Type (0, 0), None
#     Edge 90, Type (0, 0), None
#     Edge 91, Type (0, 0), None
#     Edge 92, Type (0, 0), None
#     Edge 93, Type (0, 0), None
#     Edge 94, Type (0, 0), None
#     Edge 95, Type (0, 0), None
#     Edge 96, Type (0, 0), None
#     Edge 97, Type (0, 0), None
#     Edge 98, Type (0, 0), None
#     Edge 99, Type (0, 0), None
#     Edge 100, Type (0, 0), None
#     Edge 101, Type (0, 0), None
#     Edge 102, Type (0, 0), None
#     Edge 103, Type (0, 0), None
#     Edge 104, Type (0, 0), None
#     Edge 105, Type (0, 0), None
#     Edge 106, Type (0, 0), None
#     Edge 107, Type (0, 0), None
# Relax obj value: 0.122
# Max RMSD: 0.483
# Mean RMSD: 0.413
data_MOF--net-ukv--node1-QUQFOY_clean_sbu_1--edge1-none
_symmetry_space_group_name_H-M    P1
_symmetry_Int_Tables_number       1
_symmetry_cell_setting            triclinic
loop_
_symmetry_equiv_pos_as_xyz
'x, y, z'
_cell_length_a     34.683016
_cell_length_b     34.694058
_cell_length_c     9.5870708
_cell_angle_alpha  92.941778
_cell_angle_beta   87.050303
_cell_angle_gamma 120.97446
loop_
_atom_site_label
_atom_site_type_symbol
_atom_site_fract_x
_atom_site_fract_y
_atom_site_fract_z
_atom_type_partial_charge
O0 O 0.45326 0.15375 0.9681 0.0
Cd1 Cd 0.41257 0.16153 0.13024 0.0
Cd2 Cd 0.48052 0.17478 0.21216 0.0
O3 O 0.43322 0.10418 0.10125 0.0
O4 O 0.34227 0.1128 0.14623 0.0
O5 O 0.38919 0.11464 0.29274 0.0
C6 C 0.34929 0.09309 0.24357 0.0
C7 C 0.47853 0.21635 0.42917 0.0
C8 C 0.43071 0.1126 0.97436 0.0
C9 C 0.48743 0.24946 0.06215 0.0
O10 O 0.50891 0.22895 0.0724 0.0
O11 O 0.44728 0.23119 0.11357 0.0
O12 O 0.51127 0.20921 0.40269 0.0
O13 O 0.44612 0.19534 0.34689 0.0
O14 O 1.01788 0.35698 0.27493 0.0
Cd15 Cd 0.99549 0.28726 0.29287 0.0
Cd16 Cd 0.94646 0.32042 0.3682 0.0
O17 O 1.01892 0.36054 0.28233 0.0
O18 O 1.05247 0.28709 0.21258 0.0
O19 O 1.03916 0.29028 0.43667 0.0
C20 C 1.0678 0.29548 0.33699 0.0
C21 C 0.90965 0.27327 0.56748 0.0
C22 C 1.04113 0.36099 0.16658 0.0
C23 C 0.8978 0.25304 0.16649 0.0
O24 O 0.90114 0.28917 0.2143 0.0
O25 O 0.92942 0.24521 0.19348 0.0
O26 O 0.90195 0.3048 0.5421 0.0
O27 O 0.9429 0.27517 0.49768 0.0
O28 O 0.78601 0.6571 0.1433 0.0
Cd29 Cd 0.84327 0.71626 0.20658 0.0
Cd30 Cd 0.80955 0.6136 0.23901 0.0
O31 O 0.78416 0.65249 0.14309 0.0
O32 O 0.83327 0.7686 0.15682 0.0
O33 O 0.81898 0.74164 0.36683 0.0
C34 C 0.81731 0.76845 0.28208 0.0
C35 C 0.84751 0.6305 0.45893 0.0
C36 C 0.78982 0.66311 1.00867 0.0
C37 C 0.88439 0.65472 1.04212 0.0
O38 O 0.85605 0.6173 0.09461 0.0
O39 O 0.88256 0.69078 0.07686 0.0
O40 O 0.82403 0.58968 0.41349 0.0
O41 O 0.84413 0.65937 0.39209 0.0
O42 O 0.17806 0.42921 0.63681 0.0
Cd43 Cd 0.18584 0.38854 0.47464 0.0
Cd44 Cd 0.19911 0.45647 0.39278 0.0
O45 O 0.12848 0.40915 0.50372 0.0
O46 O 0.13708 0.31826 0.45869 0.0
O47 O 0.13895 0.36519 0.31209 0.0
C48 C 0.11738 0.32531 0.36133 0.0
C49 C 0.24072 0.4545 0.17576 0.0
C50 C 0.13691 0.40665 0.6306 0.0
C51 C 0.27381 0.46336 0.54282 0.0
O52 O 0.2533 0.48484 0.53253 0.0
O53 O 0.25552 0.42322 0.49145 0.0
O54 O 0.23356 0.48722 0.20224 0.0
O55 O 0.2197 0.4221 0.25805 0.0
O56 O 0.68111 0.76182 0.46122 0.0
Cd57 Cd 0.74034 0.81905 0.39807 0.0
Cd58 Cd 0.63765 0.78543 0.36553 0.0
O59 O 0.67649 0.75998 0.46142 0.0
O60 O 0.79268 0.80905 0.44797 0.0
O61 O 0.76578 0.79478 0.2379 0.0
C62 C 0.79257 0.79311 0.32271 0.0
C63 C 0.65461 0.8234 0.14557 0.0
C64 C 0.68709 0.7656 0.59584 0.0
C65 C 0.67884 0.86024 0.56244 0.0
O66 O 0.64141 0.83194 0.50995 0.0
O67 O 0.71489 0.85837 0.52771 0.0
O68 O 0.61378 0.79998 0.19107 0.0
O69 O 0.68346 0.81994 0.21238 0.0
O70 O 0.38113 0.99373 0.32931 0.0
Cd71 Cd 0.31136 0.97126 0.31156 0.0
Cd72 Cd 0.34462 0.92232 0.23619 0.0
O73 O 0.38469 0.99477 0.32191 0.0
O74 O 0.31108 1.02814 0.39209 0.0
O75 O 0.31432 1.01493 0.1679 0.0
C76 C 0.3195 1.0435 0.26772 0.0
C77 C 0.29747 0.88548 1.03696 0.0
C78 C 0.38515 1.01697 0.43765 0.0
C79 C 0.27724 0.87362 0.43792 0.0
O80 O 0.31341 0.87701 0.39014 0.0
O81 O 0.26936 0.9052 0.41092 0.0
O82 O 0.32904 0.87784 0.0623 0.0
O83 O 0.29932 0.91869 0.10678 0.0
O84 O 0.70413 0.95533 0.13656 0.0
Cd85 Cd 0.74483 0.94755 0.97438 0.0
Cd86 Cd 0.67688 0.93429 0.89252 0.0
O87 O 0.72423 1.0049 1.00342 0.0
O88 O 0.81512 0.9963 0.95841 0.0
O89 O 0.76821 0.99442 0.81179 0.0
C90 C 0.80811 1.01599 0.86098 0.0
C91 C 0.67884 0.89269 0.67554 0.0
C92 C 0.72673 0.99647 0.13031 0.0
C93 C 0.66998 0.85962 1.04258 0.0
O94 O 0.64849 0.88012 1.0323 0.0
O95 O 0.71013 0.87789 0.99121 0.0
O96 O 0.64612 0.89986 0.70201 0.0
O97 O 0.71126 0.91369 0.7578 0.0
O98 O 0.13964 0.75213 0.82943 0.0
Cd99 Cd 0.16203 0.82186 0.81155 0.0
Cd100 Cd 0.21106 0.7887 0.73621 0.0
O101 O 0.13858 0.74857 0.82199 0.0
O102 O 0.10507 0.82205 0.89192 0.0
O103 O 0.11835 0.81886 0.66781 0.0
C104 C 0.08973 0.81366 0.76752 0.0
C105 C 0.24786 0.83585 0.53695 0.0
C106 C 0.11637 0.7481 0.93774 0.0
C107 C 0.2597 0.85608 0.93795 0.0
O108 O 0.25637 0.81995 0.89014 0.0
O109 O 0.22809 0.8639 0.91093 0.0
O110 O 0.25556 0.80432 0.56231 0.0
O111 O 0.21461 0.83394 0.60675 0.0
O112 O 0.37166 0.45222 0.96145 0.0
Cd113 Cd 0.31438 0.39303 0.89836 0.0
Cd114 Cd 0.34801 0.49564 0.86573 0.0
O115 O 0.3735 0.45683 0.96165 0.0
O116 O 0.32432 0.34066 0.94828 0.0
O117 O 0.33857 0.36753 0.73816 0.0
C118 C 0.34022 0.34073 0.82297 0.0
C119 C 0.31001 0.47869 0.64588 0.0
C120 C 0.36785 0.44622 0.09607 0.0
C121 C 0.27318 0.4545 0.06267 0.0
O122 O 0.3015 0.49192 1.01019 0.0
O123 O 0.27503 0.41845 1.02795 0.0
O124 O 0.33349 0.51952 0.69124 0.0
O125 O 0.31345 0.44984 0.71268 0.0
O126 O 0.97943 0.67992 0.46791 0.0
Cd127 Cd 0.97168 0.72061 0.63002 0.0
Cd128 Cd 0.95839 0.65265 0.71197 0.0
O129 O 1.02902 0.6999 0.60102 0.0
O130 O 1.02042 0.79089 0.64597 0.0
O131 O 1.01859 0.74396 0.79246 0.0
C132 C 1.04014 0.78384 0.74324 0.0
C133 C 0.91682 0.65468 0.929 0.0
C134 C 1.0206 0.70243 0.47414 0.0
C135 C 0.88371 0.64581 0.56199 0.0
O136 O 0.9042 0.6243 0.57224 0.0
O137 O 0.902 0.68593 0.6134 0.0
O138 O 0.92395 0.62194 0.90255 0.0
O139 O 0.93785 0.68708 0.84669 0.0
O140 O 0.47618 0.34715 0.64347 0.0
Cd141 Cd 0.41698 0.28993 0.70679 0.0
Cd142 Cd 0.51969 0.3236 0.73914 0.0
O143 O 0.48079 0.34899 0.64326 0.0
O144 O 0.36466 0.29998 0.65708 0.0
O145 O 0.39166 0.31428 0.86705 0.0
C146 C 0.36486 0.31597 0.78232 0.0
C147 C 0.50276 0.28564 0.95904 0.0
C148 C 0.47018 0.34336 0.50885 0.0
C149 C 0.47851 0.24879 0.54228 0.0
O150 O 0.51595 0.27709 0.59475 0.0
O151 O 0.44245 0.25064 0.57704 0.0
O152 O 0.5436 0.3091 0.91361 0.0
O153 O 0.47389 0.28906 0.89226 0.0
O154 O 0.77633 0.11541 0.77512 0.0
Cd155 Cd 0.84609 0.13784 0.79285 0.0
Cd156 Cd 0.81287 0.18682 0.86825 0.0
O157 O 0.77276 0.11437 0.78251 0.0
O158 O 0.8463 0.08092 0.71236 0.0
O159 O 0.84311 0.09416 0.93654 0.0
C160 C 0.8379 0.06557 0.83675 0.0
C161 C 0.86003 0.22364 0.06746 0.0
C162 C 0.77229 0.09217 0.66677 0.0
C163 C 0.88025 0.23549 0.66648 0.0
O164 O 0.8441 0.23213 0.71429 0.0
O165 O 0.88811 0.2039 0.69347 0.0
O166 O 0.82846 0.2313 1.04214 0.0
O167 O 0.85817 0.19043 0.99763 0.0
O168 O 0.98884 0.44489 0.36033 0.0
Cd169 Cd 1.02662 0.46534 0.52221 0.0
Cd170 Cd 0.09918 0.47664 0.5263 0.0
O171 O 1.05554 0.45127 0.32027 0.0
O172 O 0.99021 0.42556 0.69363 0.0
O173 O 1.03119 0.40804 0.5557 0.0
C174 C 1.00273 0.39706 0.65861 0.0
C175 C 0.11172 0.52677 0.74821 0.0
C176 C 1.01625 0.44174 0.27561 0.0
C177 C 0.13132 0.54807 0.3971 0.0
O178 O 0.14771 0.52351 0.41122 0.0
O179 O 0.08994 0.53335 0.44277 0.0
O180 O 1.07524 0.50605 0.68516 0.0
O181 O 0.1409 0.51727 0.6981 0.0
O182 O 0.63705 0.65187 0.33299 0.0
Cd183 Cd 0.6344 0.60915 0.48717 0.0
Cd184 Cd 0.61249 0.66157 0.57183 0.0
O185 O 0.68472 0.68955 0.46712 0.0
O186 O 0.68779 0.59467 0.49452 0.0
O187 O 0.68378 0.64253 0.642 0.0
C188 C 0.70767 0.62671 0.58668 0.0
C189 C 0.57788 0.62361 0.79577 0.0
C190 C 0.67797 0.67646 0.34003 0.0
C191 C 0.54247 0.58263 0.40853 0.0
O192 O 0.55795 0.62484 0.42698 0.0
O193 O 0.56482 0.56681 0.45796 0.0
O194 O 0.5768 0.65884 0.76603 0.0
O195 O 0.60225 0.61497 0.71276 0.0
O196 O 0.46603 1.00757 0.57507 0.0
Cd197 Cd 0.51644 0.06566 0.51234 0.0
Cd198 Cd 0.50698 0.95046 0.58631 0.0
O199 O 0.4463 0.9399 0.51171 0.0
O200 O 0.48371 0.09828 0.44977 0.0
O201 O 0.52273 0.11843 0.63925 0.0
C202 C 0.49495 0.12202 0.5651 0.0
C203 C 0.54581 0.97647 0.80132 0.0
C204 C 0.45231 0.97775 0.47835 0.0
C205 C 0.572 1.01334 0.36529 0.0
O206 O 0.55316 0.97533 0.42297 0.0
O207 O 0.56005 1.04277 0.39891 0.0
O208 O 0.53482 0.93709 0.74996 0.0
O209 O 0.52849 0.9961 0.74173 0.0
O210 O 0.79341 0.67175 0.91764 0.0
Cd211 Cd 0.82638 0.68212 0.74081 0.0
Cd212 Cd 0.87 0.77466 0.72255 0.0
O213 O 0.81099 0.73871 0.87141 0.0
O214 O 0.77485 0.62447 0.64809 0.0
O215 O 0.78179 0.69135 0.63702 0.0
C216 C 0.75677 0.64796 0.62082 0.0
C217 C 0.89987 0.76939 0.49025 0.0
C218 C 0.78694 0.70366 0.94877 0.0
C219 C 0.92768 0.76646 0.87648 0.0
O220 O 0.92423 0.79911 0.84297 0.0
O221 O 0.89557 0.72606 0.84033 0.0
O222 O 0.90287 0.8066 0.53394 0.0
O223 O 0.87464 0.73553 0.5656 0.0
O224 O 0.37645 0.1259 0.9179 0.0
Cd225 Cd 0.42168 0.16783 0.76179 0.0
Cd226 Cd 0.3466 0.12435 0.68805 0.0
O227 O 0.38037 0.08589 0.77195 0.0
O228 O 0.48507 0.17289 0.73104 0.0
O229 O 0.43141 0.1341 0.58377 0.0
C230 C 0.47075 0.14527 0.62452 0.0
C231 C 0.35788 0.16851 0.47629 0.0
C232 C 0.38661 0.0969 0.90126 0.0
C233 C 0.36808 0.20556 0.87133 0.0
O234 O 0.33639 0.16498 0.84729 0.0
O235 O 0.40703 0.21808 0.81562 0.0
O236 O 0.31895 0.13392 0.50484 0.0
O237 O 0.38854 0.17257 0.55269 0.0
O238 O 0.97934 0.31561 1.03456 0.0
Cd239 Cd 0.95916 0.28608 0.85939 0.0
Cd240 Cd 1.015 0.25065 0.82184 0.0
O241 O 1.03924 0.31183 0.96823 0.0
O242 O 0.94627 0.33389 0.79724 0.0
O243 O 1.00672 0.33176 0.723 0.0
C244 C 0.98496 0.35316 0.73049 0.0
C245 C 0.97723 0.21748 0.59571 0.0
C246 C 1.01964 0.32827 1.04944 0.0
C247 C 0.94472 0.18977 0.98343 0.0
O248 O 0.98423 0.19817 0.95609 0.0
O249 O 0.93374 0.21734 0.93899 0.0
O250 O 1.01133 0.21469 0.62803 0.0
O251 O 0.96979 0.2429 0.679 0.0
O252 O 0.46154 0.33979 0.41783 0.0
Cd253 Cd 0.45116 0.30684 0.24098 0.0
Cd254 Cd 0.35859 0.26328 0.2228 0.0
O255 O 0.39457 0.32226 0.37165 0.0
O256 O 0.50884 0.35837 0.14829 0.0
O257 O 0.44195 0.35146 0.13728 0.0
C258 C 0.48537 0.37646 0.12107 0.0
C259 C 0.36384 0.2334 0.99055 0.0
C260 C 0.42963 0.34628 0.44899 0.0
C261 C 0.36676 0.20559 0.37674 0.0
O262 O 0.33411 0.20906 0.34325 0.0
O263 O 0.40718 0.23767 0.34053 0.0
O264 O 0.32663 0.23044 1.03423 0.0
O265 O 0.39772 0.25861 0.06584 0.0
O266 O 0.81769 0.15395 0.53474 0.0
Cd267 Cd 0.84722 0.17413 0.35953 0.0
Cd268 Cd 0.88263 0.11835 0.32192 0.0
O269 O 0.82141 0.09405 0.46824 0.0
O270 O 0.7994 0.18703 0.29732 0.0
O271 O 0.80155 0.12661 0.22307 0.0
C272 C 0.78014 0.14836 0.23056 0.0
C273 C 0.91586 0.15612 0.09583 0.0
C274 C 0.80499 0.11365 0.54955 0.0
C275 C 0.94355 0.18862 0.48341 0.0
O276 O 0.9351 0.1491 0.45626 0.0
O277 O 0.91603 0.19965 0.43879 0.0
O278 O 0.91863 0.12201 0.12813 0.0
O279 O 0.89041 0.16355 0.17906 0.0
O280 O 1.00738 0.75673 0.41765 0.0
Cd281 Cd 0.96541 0.71151 0.26157 0.0
Cd282 Cd 1.00893 0.78655 0.18775 0.0
O283 O 1.04735 0.75274 0.27166 0.0
O284 O 0.96035 0.64814 0.23085 0.0
O285 O 0.99913 0.70177 0.08349 0.0
C286 C 0.98796 0.66244 0.12426 0.0
C287 C 0.96475 0.77531 0.97608 0.0
C288 C 1.03635 0.74652 0.401 0.0
C289 C 0.92772 0.76512 0.37107 0.0
O290 O 0.96831 0.79679 0.347 0.0
O291 O 0.91516 0.72618 0.31539 0.0
O292 O 0.99938 0.81421 1.00453 0.0
O293 O 0.96067 0.74464 0.05247 0.0
O294 O 0.68842 0.14447 0.86027 0.0
Cd295 Cd 0.66795 0.1067 1.02218 0.0
Cd296 Cd 0.65667 1.03416 1.02627 0.0
O297 O 0.68203 0.07779 0.82023 0.0
O298 O 0.70773 0.14311 0.19359 0.0
O299 O 0.72527 0.10214 0.05574 0.0
C300 C 0.73624 0.1306 0.15862 0.0
C301 C 0.6065 1.0216 0.24816 0.0
C302 C 0.69157 0.11708 0.77556 0.0
C303 C 0.58522 1.00204 0.89712 0.0
O304 O 0.6098 0.98566 0.91118 0.0
O305 O 0.59993 1.0434 0.94282 0.0
O306 O 0.62727 0.05809 0.18521 0.0
O307 O 0.61598 0.99242 0.19799 0.0
O308 O 0.12574 0.6672 0.07499 0.0
Cd309 Cd 1.06764 0.6168 1.01227 0.0
Cd310 Cd 0.1829 0.62628 0.08623 0.0
O311 O 0.19344 0.68694 1.0116 0.0
O312 O 1.035 0.6495 0.94961 0.0
O313 O 1.01484 0.61051 0.13915 0.0
C314 C 1.01125 0.63827 0.06496 0.0
C315 C 0.15688 0.58746 0.3012 0.0
C316 C 0.15558 0.68093 0.97826 0.0
C317 C 0.11999 0.56127 0.86529 0.0
O318 O 0.15801 0.58011 0.92293 0.0
O319 O 0.09055 0.57322 0.8989 0.0
O320 O 0.19628 0.59845 0.24985 0.0
O321 O 0.13725 0.60479 0.24172 0.0
O322 O 0.48139 0.49602 0.8331 0.0
Cd323 Cd 0.52416 0.49877 0.98734 0.0
Cd324 Cd 0.47161 0.52048 0.07182 0.0
O325 O 0.44378 0.44828 0.96704 0.0
O326 O 0.53868 0.44543 0.99478 0.0
O327 O 0.49081 0.44943 0.14232 0.0
C328 C 0.50664 0.42556 0.08699 0.0
C329 C 0.50953 0.5552 0.2957 0.0
C330 C 0.4569 0.4551 0.83999 0.0
C331 C 0.55048 0.59061 0.9085 0.0
O332 O 0.50825 0.57506 0.92701 0.0
O333 O 0.5664 0.56834 0.95786 0.0
O334 O 0.47419 0.5561 0.266 0.0
O335 O 0.5183 0.53092 0.21273 0.0
O336 O 0.69573 0.76917 0.68687 0.0
Cd337 Cd 0.70608 0.80212 0.86372 0.0
Cd338 Cd 0.79868 0.84563 0.88189 0.0
O339 O 0.76267 0.78664 0.73313 0.0
O340 O 0.64832 0.75057 0.95609 0.0
O341 O 0.7152 0.75746 0.96747 0.0
C342 C 0.67177 0.73245 0.9834 0.0
C343 C 0.79347 0.87554 0.11414 0.0
C344 C 0.72761 0.76264 0.65578 0.0
C345 C 0.79055 0.90335 0.72796 0.0
O346 O 0.82318 0.89984 0.76141 0.0
O347 O 0.75012 0.87129 0.76416 0.0
O348 O 0.83067 0.8785 0.07041 0.0
O349 O 0.75957 0.85032 1.03888 0.0
O350 O 0.33978 0.95518 0.5697 0.0
Cd351 Cd 0.31025 0.93498 0.74488 0.0
Cd352 Cd 0.27479 0.99074 0.78249 0.0
O353 O 0.33601 1.01505 0.63614 0.0
O354 O 0.35807 0.92209 0.80706 0.0
O355 O 0.35591 0.9825 0.88135 0.0
C356 C 0.37733 0.96076 0.87385 0.0
C357 C 0.2416 0.95298 1.00863 0.0
C358 C 0.35245 0.99547 0.55487 0.0
C359 C 0.21389 0.92046 0.62098 0.0
O360 O 0.22232 0.95997 0.6482 0.0
O361 O 0.24145 0.90947 0.66552 0.0
O362 O 0.23879 0.98705 0.97629 0.0
O363 O 0.26705 0.94556 0.92536 0.0
O364 O 0.15027 0.35243 0.68704 0.0
Cd365 Cd 0.19221 0.39765 0.8431 0.0
Cd366 Cd 0.14872 0.32259 0.91695 0.0
O367 O 0.11023 0.35631 0.83305 0.0
O368 O 0.19726 0.46102 0.87379 0.0
O369 O 0.15845 0.40738 1.02109 0.0
C370 C 0.16963 0.4467 0.98032 0.0
C371 C 0.1929 0.3339 0.1287 0.0
C372 C 0.12124 0.36257 0.70372 0.0
C373 C 0.22996 0.34408 0.73363 0.0
O374 O 0.18936 0.31239 0.75767 0.0
O375 O 0.24248 0.383 0.78938 0.0
O376 O 0.15833 0.29497 0.10017 0.0
O377 O 0.19694 0.36454 0.05227 0.0
O378 O 0.46902 0.96462 0.2442 0.0
Cd379 Cd 0.4895 1.0024 0.08231 0.0
Cd380 Cd 0.50077 0.07494 0.07822 0.0
O381 O 0.4754 1.0313 0.28424 0.0
O382 O 0.44973 0.966 0.91086 0.0
O383 O 0.43219 1.00696 1.04871 0.0
C384 C 0.42122 0.97851 0.94581 0.0
C385 C 0.55094 0.0875 0.85631 0.0
C386 C 0.46587 0.99202 0.32891 0.0
C387 C 0.57223 0.10707 0.20737 0.0
O388 O 0.54765 0.12344 0.19331 0.0
O389 O 0.55752 0.06571 0.16168 0.0
O390 O 0.53018 1.05101 0.91929 0.0
O391 O 0.54146 0.11668 0.9065 0.0
O392 O 1.03184 0.44193 1.02948 0.0
Cd393 Cd 0.08994 0.49233 0.09224 0.0
Cd394 Cd 0.97465 0.48284 1.01824 0.0
O395 O 0.96411 0.42219 0.09288 0.0
O396 O 0.12257 0.45963 0.15491 0.0
O397 O 0.14275 0.49864 0.9654 0.0
C398 C 0.14633 0.47087 1.03959 0.0
C399 C 1.00067 0.52165 0.80319 0.0
C400 C 1.00199 0.42822 0.12615 0.0
C401 C 1.03756 0.54785 0.23919 0.0
O402 O 0.99954 0.52902 0.18153 0.0
O403 O 1.067 0.5359 0.20559 0.0
O404 O 0.96127 0.51067 0.8546 0.0
O405 O 1.02029 0.50433 0.86274 0.0
O406 O 0.67543 0.61283 0.27056 0.0
Cd407 Cd 0.63288 0.61007 0.11627 0.0
Cd408 Cd 0.68585 0.58851 1.03179 0.0
O409 O 0.71366 0.6606 0.13655 0.0
O410 O 0.61823 0.6633 0.10869 0.0
O411 O 0.66645 0.65955 0.96203 0.0
C412 C 0.65048 0.68332 1.01713 0.0
C413 C 0.64814 0.55397 0.80756 0.0
C414 C 0.7003 0.65371 0.26337 0.0
C415 C 0.60692 0.51822 0.19445 0.0
O416 O 0.6492 0.53394 0.17649 0.0
O417 O 0.59094 0.54036 0.14456 0.0
O418 O 0.68343 0.55302 0.83755 0.0
O419 O 0.63928 0.57818 0.89059 0.0
O420 O 0.16872 0.66424 0.7441 0.0
Cd421 Cd 0.13093 0.64379 0.58224 0.0
Cd422 Cd 1.05837 0.63248 0.57817 0.0
O423 O 0.10201 0.65785 0.78418 0.0
O424 O 0.16733 0.68356 0.41079 0.0
O425 O 0.12635 0.70108 0.54874 0.0
C426 C 0.15481 0.71206 0.44581 0.0
C427 C 1.04582 0.58233 0.35629 0.0
C428 C 0.14131 0.66739 0.82882 0.0
C429 C 1.02624 0.56106 0.70738 0.0
O430 O 1.00984 0.58562 0.69328 0.0
O431 O 1.06762 0.57578 0.66168 0.0
O432 O 0.08231 0.60307 0.41929 0.0
O433 O 1.01664 0.59184 0.40641 0.0
O434 O 0.52071 0.45793 0.77065 0.0
Cd435 Cd 0.52337 0.50044 0.61646 0.0
Cd436 Cd 0.54514 0.44761 0.53179 0.0
O437 O 0.47302 0.41963 0.63645 0.0
O438 O 0.47008 0.51503 0.609 0.0
O439 O 0.47386 0.46685 0.46233 0.0
C440 C 0.45007 0.4828 0.51745 0.0
C441 C 0.57959 0.48535 0.30754 0.0
C442 C 0.47984 0.43296 0.7633 0.0
C443 C 0.61529 0.52658 0.69449 0.0
O444 O 0.59968 0.48434 0.67652 0.0
O445 O 0.59309 0.54248 0.64454 0.0
O446 O 0.58066 0.45013 0.33749 0.0
O447 O 0.55531 0.49411 0.39062 0.0
O448 O 0.69141 0.1015 0.52943 0.0
Cd449 Cd 0.64099 1.04342 0.59219 0.0
Cd450 Cd 0.65047 0.15865 0.51818 0.0
O451 O 0.71114 0.1692 0.59281 0.0
O452 O 0.6737 1.01078 0.65478 0.0
O453 O 0.63469 0.99064 0.46529 0.0
C454 C 0.66246 0.98704 0.53945 0.0
C455 C 0.61163 0.13262 0.30324 0.0
C456 C 0.70511 0.13134 0.6261 0.0
C457 C 0.58544 0.09576 0.73919 0.0
O458 O 0.60428 0.13377 0.68152 0.0
O459 O 0.5974 0.06633 0.70558 0.0
O460 O 0.62263 0.17202 0.35455 0.0
O461 O 0.62896 0.11301 0.36277 0.0
O462 O 0.36425 0.43758 0.1871 0.0
Cd463 Cd 0.33127 0.42722 0.36394 0.0
Cd464 Cd 0.28774 0.33465 0.38213 0.0
O465 O 0.34677 0.37066 0.23341 0.0
O466 O 0.3828 0.48495 0.45636 0.0
O467 O 0.37591 0.4181 0.46776 0.0
C468 C 0.40093 0.46151 0.48369 0.0
C469 C 0.25781 0.33985 0.61437 0.0
C470 C 0.37079 0.40571 0.15605 0.0
C471 C 0.23001 0.3428 0.22821 0.0
O472 O 0.23352 0.31017 0.26165 0.0
O473 O 0.26208 0.38321 0.26443 0.0
O474 O 0.25486 0.30267 0.57068 0.0
O475 O 0.28303 0.37374 0.5391 0.0
O476 O 0.78093 0.98307 0.18676 0.0
Cd477 Cd 0.73568 0.94116 0.34287 0.0
Cd478 Cd 0.81079 0.98462 0.41662 0.0
O479 O 0.77708 1.02313 0.33272 0.0
O480 O 0.67231 0.93614 0.37358 0.0
O481 O 0.72598 0.97493 0.52084 0.0
C482 C 0.68664 0.96377 0.48008 0.0
C483 C 0.79947 0.94044 0.62835 0.0
C484 C 0.77082 1.01211 0.20341 0.0
C485 C 0.78925 0.9034 0.23334 0.0
O486 O 0.82096 0.94397 0.25737 0.0
O487 O 0.75031 0.89089 0.28908 0.0
O488 O 0.83842 0.97501 0.59983 0.0
O489 O 0.76882 0.93643 0.552 0.0
O490 O 0.17816 0.79349 0.06981 0.0
Cd491 Cd 0.19833 0.82302 0.24498 0.0
Cd492 Cd 0.14247 0.85841 0.28253 0.0
O493 O 0.11824 0.79724 0.13612 0.0
O494 O 0.21125 0.77523 0.30716 0.0
O495 O 0.15079 0.77734 0.38139 0.0
C496 C 0.17256 0.75595 0.37392 0.0
C497 C 0.18024 0.89161 0.5086 0.0
C498 C 0.13785 0.78081 0.05492 0.0
C499 C 0.21274 0.91931 0.12096 0.0
O500 O 0.17322 0.91089 0.14827 0.0
O501 O 0.22374 0.89176 0.16544 0.0
O502 O 0.14612 0.89437 0.47632 0.0
O503 O 0.18768 0.86618 0.42537 0.0
loop_
_geom_bond_atom_site_label_1
_geom_bond_atom_site_label_2
_geom_bond_distance
_geom_bond_site_symmetry_2
_ccdc_geom_bond_type
O0 Cd1 2.223 1_556 S
O0 C8 1.315 . S
Cd1 O0 2.223 1_554 S
Cd1 O4 2.297 . S
Cd1 O5 2.439 . S
Cd1 O11 2.240 . S
Cd2 O3 2.240 . S
Cd2 O10 2.223 1_554 S
Cd2 O12 2.297 . S
Cd2 O13 2.439 . S
O3 Cd2 2.240 . S
O3 C8 1.279 1_554 S
O4 Cd1 2.297 . S
O4 C6 1.247 . S
O5 Cd1 2.439 . S
O5 C6 1.208 . S
C6 O4 1.247 . S
C6 O5 1.208 . S
C7 O12 1.247 . S
C7 O13 1.208 . S
C8 O0 1.315 . S
C8 O3 1.279 1_556 S
C9 O10 1.315 1_554 S
C9 O11 1.279 . S
O10 Cd2 2.223 1_556 S
O10 C9 1.315 1_556 S
O11 Cd1 2.240 . S
O11 C9 1.279 . S
O12 Cd2 2.297 . S
O12 C7 1.247 . S
O13 Cd2 2.439 . S
O13 C7 1.208 . S
O14 Cd15 2.223 1_556 S
O14 C22 1.315 . S
Cd15 O14 2.223 1_554 S
Cd15 O18 2.297 . S
Cd15 O19 2.439 . S
Cd15 O25 2.240 . S
Cd16 O17 2.240 . S
Cd16 O24 2.223 . S
Cd16 O26 2.297 . S
Cd16 O27 2.439 . S
O17 Cd16 2.240 . S
O17 C22 1.279 1_554 S
O18 Cd15 2.297 . S
O18 C20 1.247 . S
O19 Cd15 2.439 . S
O19 C20 1.208 . S
C20 O18 1.247 . S
C20 O19 1.208 . S
C21 O26 1.247 . S
C21 O27 1.208 . S
C22 O14 1.315 . S
C22 O17 1.279 1_556 S
C23 O24 1.315 . S
C23 O25 1.279 . S
O24 Cd16 2.223 . S
O24 C23 1.315 . S
O25 Cd15 2.240 . S
O25 C23 1.279 . S
O26 Cd16 2.297 . S
O26 C21 1.247 . S
O27 Cd16 2.439 . S
O27 C21 1.208 . S
O28 Cd29 2.223 1_556 S
O28 C36 1.315 . S
Cd29 O28 2.223 1_554 S
Cd29 O32 2.297 . S
Cd29 O33 2.439 . S
Cd29 O39 2.240 . S
Cd30 O31 2.240 . S
Cd30 O38 2.223 1_554 S
Cd30 O40 2.297 . S
Cd30 O41 2.439 . S
O31 Cd30 2.240 . S
O31 C36 1.279 1_554 S
O32 Cd29 2.297 . S
O32 C34 1.247 . S
O33 Cd29 2.439 . S
O33 C34 1.208 . S
C34 O32 1.247 . S
C34 O33 1.208 . S
C35 O40 1.247 . S
C35 O41 1.208 . S
C36 O28 1.315 . S
C36 O31 1.279 1_556 S
C37 O38 1.315 1_554 S
C37 O39 1.279 . S
O38 Cd30 2.223 1_556 S
O38 C37 1.315 1_556 S
O39 Cd29 2.240 . S
O39 C37 1.279 . S
O40 Cd30 2.297 . S
O40 C35 1.247 . S
O41 Cd30 2.439 . S
O41 C35 1.208 . S
O42 Cd43 2.223 . S
O42 C50 1.315 . S
Cd43 O42 2.223 . S
Cd43 O46 2.297 . S
Cd43 O47 2.439 . S
Cd43 O53 2.240 . S
Cd44 O45 2.240 . S
Cd44 O52 2.223 . S
Cd44 O54 2.297 . S
Cd44 O55 2.439 . S
O45 Cd44 2.240 . S
O45 C50 1.279 . S
O46 Cd43 2.297 . S
O46 C48 1.247 . S
O47 Cd43 2.439 . S
O47 C48 1.208 . S
C48 O46 1.247 . S
C48 O47 1.208 . S
C49 O54 1.247 . S
C49 O55 1.208 . S
C50 O42 1.315 . S
C50 O45 1.279 . S
C51 O52 1.315 . S
C51 O53 1.279 . S
O52 Cd44 2.223 . S
O52 C51 1.315 . S
O53 Cd43 2.240 . S
O53 C51 1.279 . S
O54 Cd44 2.297 . S
O54 C49 1.247 . S
O55 Cd44 2.439 . S
O55 C49 1.208 . S
O56 Cd57 2.223 . S
O56 C64 1.315 . S
Cd57 O56 2.223 . S
Cd57 O60 2.297 . S
Cd57 O61 2.439 . S
Cd57 O67 2.240 . S
Cd58 O59 2.240 . S
Cd58 O66 2.223 . S
Cd58 O68 2.297 . S
Cd58 O69 2.439 . S
O59 Cd58 2.240 . S
O59 C64 1.279 . S
O60 Cd57 2.297 . S
O60 C62 1.247 . S
O61 Cd57 2.439 . S
O61 C62 1.208 . S
C62 O60 1.247 . S
C62 O61 1.208 . S
C63 O68 1.247 . S
C63 O69 1.208 . S
C64 O56 1.315 . S
C64 O59 1.279 . S
C65 O66 1.315 . S
C65 O67 1.279 . S
O66 Cd58 2.223 . S
O66 C65 1.315 . S
O67 Cd57 2.240 . S
O67 C65 1.279 . S
O68 Cd58 2.297 . S
O68 C63 1.247 . S
O69 Cd58 2.439 . S
O69 C63 1.208 . S
O70 Cd71 2.223 . S
O70 C78 1.315 . S
Cd71 O70 2.223 . S
Cd71 O74 2.297 . S
Cd71 O75 2.439 . S
Cd71 O81 2.240 . S
Cd72 O73 2.240 . S
Cd72 O80 2.223 . S
Cd72 O82 2.297 . S
Cd72 O83 2.439 . S
O73 Cd72 2.240 . S
O73 C78 1.279 . S
O74 Cd71 2.297 . S
O74 C76 1.247 . S
O75 Cd71 2.439 . S
O75 C76 1.208 . S
C76 O74 1.247 . S
C76 O75 1.208 . S
C77 O82 1.247 . S
C77 O83 1.208 . S
C78 O70 1.315 . S
C78 O73 1.279 . S
C79 O80 1.315 . S
C79 O81 1.279 . S
O80 Cd72 2.223 . S
O80 C79 1.315 . S
O81 Cd71 2.240 . S
O81 C79 1.279 . S
O82 Cd72 2.297 . S
O82 C77 1.247 . S
O83 Cd72 2.439 . S
O83 C77 1.208 . S
O84 Cd85 2.223 1_554 S
O84 C92 1.315 . S
Cd85 O84 2.223 1_556 S
Cd85 O88 2.297 . S
Cd85 O89 2.439 . S
Cd85 O95 2.240 . S
Cd86 O87 2.240 . S
Cd86 O94 2.223 1_556 S
Cd86 O96 2.297 . S
Cd86 O97 2.439 . S
O87 Cd86 2.240 . S
O87 C92 1.279 1_556 S
O88 Cd85 2.297 . S
O88 C90 1.247 . S
O89 Cd85 2.439 . S
O89 C90 1.208 . S
C90 O88 1.247 . S
C90 O89 1.208 . S
C91 O96 1.247 . S
C91 O97 1.208 . S
C92 O84 1.315 . S
C92 O87 1.279 1_554 S
C93 O94 1.315 1_556 S
C93 O95 1.279 . S
O94 Cd86 2.223 1_554 S
O94 C93 1.315 1_554 S
O95 Cd85 2.240 . S
O95 C93 1.279 . S
O96 Cd86 2.297 . S
O96 C91 1.247 . S
O97 Cd86 2.439 . S
O97 C91 1.208 . S
O98 Cd99 2.223 1_554 S
O98 C106 1.315 . S
Cd99 O98 2.223 1_556 S
Cd99 O102 2.297 . S
Cd99 O103 2.439 . S
Cd99 O109 2.240 . S
Cd100 O101 2.240 . S
Cd100 O108 2.223 . S
Cd100 O110 2.297 . S
Cd100 O111 2.439 . S
O101 Cd100 2.240 . S
O101 C106 1.279 1_556 S
O102 Cd99 2.297 . S
O102 C104 1.247 . S
O103 Cd99 2.439 . S
O103 C104 1.208 . S
C104 O102 1.247 . S
C104 O103 1.208 . S
C105 O110 1.247 . S
C105 O111 1.208 . S
C106 O98 1.315 . S
C106 O101 1.279 1_554 S
C107 O108 1.315 . S
C107 O109 1.279 . S
O108 Cd100 2.223 . S
O108 C107 1.315 . S
O109 Cd99 2.240 . S
O109 C107 1.279 . S
O110 Cd100 2.297 . S
O110 C105 1.247 . S
O111 Cd100 2.439 . S
O111 C105 1.208 . S
O112 Cd113 2.223 1_554 S
O112 C120 1.315 . S
Cd113 O112 2.223 1_556 S
Cd113 O116 2.297 . S
Cd113 O117 2.439 . S
Cd113 O123 2.240 . S
Cd114 O115 2.240 . S
Cd114 O122 2.223 1_556 S
Cd114 O124 2.297 . S
Cd114 O125 2.439 . S
O115 Cd114 2.240 . S
O115 C120 1.279 1_556 S
O116 Cd113 2.297 . S
O116 C118 1.247 . S
O117 Cd113 2.439 . S
O117 C118 1.208 . S
C118 O116 1.247 . S
C118 O117 1.208 . S
C119 O124 1.247 . S
C119 O125 1.208 . S
C120 O112 1.315 . S
C120 O115 1.279 1_554 S
C121 O122 1.315 1_556 S
C121 O123 1.279 . S
O122 Cd114 2.223 1_554 S
O122 C121 1.315 1_554 S
O123 Cd113 2.240 . S
O123 C121 1.279 . S
O124 Cd114 2.297 . S
O124 C119 1.247 . S
O125 Cd114 2.439 . S
O125 C119 1.208 . S
O126 Cd127 2.223 . S
O126 C134 1.315 . S
Cd127 O126 2.223 . S
Cd127 O130 2.297 . S
Cd127 O131 2.439 . S
Cd127 O137 2.240 . S
Cd128 O129 2.240 . S
Cd128 O136 2.223 . S
Cd128 O138 2.297 . S
Cd128 O139 2.439 . S
O129 Cd128 2.240 . S
O129 C134 1.279 . S
O130 Cd127 2.297 . S
O130 C132 1.247 . S
O131 Cd127 2.439 . S
O131 C132 1.208 . S
C132 O130 1.247 . S
C132 O131 1.208 . S
C133 O138 1.247 . S
C133 O139 1.208 . S
C134 O126 1.315 . S
C134 O129 1.279 . S
C135 O136 1.315 . S
C135 O137 1.279 . S
O136 Cd128 2.223 . S
O136 C135 1.315 . S
O137 Cd127 2.240 . S
O137 C135 1.279 . S
O138 Cd128 2.297 . S
O138 C133 1.247 . S
O139 Cd128 2.439 . S
O139 C133 1.208 . S
O140 Cd141 2.223 . S
O140 C148 1.315 . S
Cd141 O140 2.223 . S
Cd141 O144 2.297 . S
Cd141 O145 2.439 . S
Cd141 O151 2.240 . S
Cd142 O143 2.240 . S
Cd142 O150 2.223 . S
Cd142 O152 2.297 . S
Cd142 O153 2.439 . S
O143 Cd142 2.240 . S
O143 C148 1.279 . S
O144 Cd141 2.297 . S
O144 C146 1.247 . S
O145 Cd141 2.439 . S
O145 C146 1.208 . S
C146 O144 1.247 . S
C146 O145 1.208 . S
C147 O152 1.247 . S
C147 O153 1.208 . S
C148 O140 1.315 . S
C148 O143 1.279 . S
C149 O150 1.315 . S
C149 O151 1.279 . S
O150 Cd142 2.223 . S
O150 C149 1.315 . S
O151 Cd141 2.240 . S
O151 C149 1.279 . S
O152 Cd142 2.297 . S
O152 C147 1.247 . S
O153 Cd142 2.439 . S
O153 C147 1.208 . S
O154 Cd155 2.223 . S
O154 C162 1.315 . S
Cd155 O154 2.223 . S
Cd155 O158 2.297 . S
Cd155 O159 2.439 . S
Cd155 O165 2.240 . S
Cd156 O157 2.240 . S
Cd156 O164 2.223 . S
Cd156 O166 2.297 . S
Cd156 O167 2.439 . S
O157 Cd156 2.240 . S
O157 C162 1.279 . S
O158 Cd155 2.297 . S
O158 C160 1.247 . S
O159 Cd155 2.439 . S
O159 C160 1.208 . S
C160 O158 1.247 . S
C160 O159 1.208 . S
C161 O166 1.247 . S
C161 O167 1.208 . S
C162 O154 1.315 . S
C162 O157 1.279 . S
C163 O164 1.315 . S
C163 O165 1.279 . S
O164 Cd156 2.223 . S
O164 C163 1.315 . S
O165 Cd155 2.240 . S
O165 C163 1.279 . S
O166 Cd156 2.297 . S
O166 C161 1.247 . S
O167 Cd156 2.439 . S
O167 C161 1.208 . S
O168 Cd169 2.223 . S
O168 C176 1.315 1_655 S
Cd169 O168 2.223 . S
Cd169 O172 2.297 . S
Cd169 O173 2.439 . S
Cd169 O179 2.240 . S
Cd170 O171 2.240 . S
Cd170 O178 2.223 . S
Cd170 O180 2.297 . S
Cd170 O181 2.439 . S
O171 Cd170 2.240 . S
O171 C176 1.279 . S
O172 Cd169 2.297 . S
O172 C174 1.247 . S
O173 Cd169 2.439 . S
O173 C174 1.208 . S
C174 O172 1.247 . S
C174 O173 1.208 . S
C175 O180 1.247 . S
C175 O181 1.208 . S
C176 O168 1.315 1_455 S
C176 O171 1.279 . S
C177 O178 1.315 1_655 S
C177 O179 1.279 . S
O178 Cd170 2.223 . S
O178 C177 1.315 1_455 S
O179 Cd169 2.240 . S
O179 C177 1.279 . S
O180 Cd170 2.297 . S
O180 C175 1.247 . S
O181 Cd170 2.439 . S
O181 C175 1.208 . S
O182 Cd183 2.223 . S
O182 C190 1.315 . S
Cd183 O182 2.223 . S
Cd183 O186 2.297 . S
Cd183 O187 2.439 . S
Cd183 O193 2.240 . S
Cd184 O185 2.240 . S
Cd184 O192 2.223 . S
Cd184 O194 2.297 . S
Cd184 O195 2.439 . S
O185 Cd184 2.240 . S
O185 C190 1.279 . S
O186 Cd183 2.297 . S
O186 C188 1.247 . S
O187 Cd183 2.439 . S
O187 C188 1.208 . S
C188 O186 1.247 . S
C188 O187 1.208 . S
C189 O194 1.247 . S
C189 O195 1.208 . S
C190 O182 1.315 . S
C190 O185 1.279 . S
C191 O192 1.315 . S
C191 O193 1.279 . S
O192 Cd184 2.223 . S
O192 C191 1.315 . S
O193 Cd183 2.240 . S
O193 C191 1.279 . S
O194 Cd184 2.297 . S
O194 C189 1.247 . S
O195 Cd184 2.439 . S
O195 C189 1.208 . S
O196 Cd197 2.223 . S
O196 C204 1.315 1_545 S
Cd197 O196 2.223 . S
Cd197 O200 2.297 . S
Cd197 O201 2.439 . S
Cd197 O207 2.240 . S
Cd198 O199 2.240 . S
Cd198 O206 2.223 . S
Cd198 O208 2.297 . S
Cd198 O209 2.439 . S
O199 Cd198 2.240 . S
O199 C204 1.279 . S
O200 Cd197 2.297 . S
O200 C202 1.247 . S
O201 Cd197 2.439 . S
O201 C202 1.208 . S
C202 O200 1.247 . S
C202 O201 1.208 . S
C203 O208 1.247 . S
C203 O209 1.208 . S
C204 O196 1.315 1_565 S
C204 O199 1.279 . S
C205 O206 1.315 1_545 S
C205 O207 1.279 . S
O206 Cd198 2.223 . S
O206 C205 1.315 1_565 S
O207 Cd197 2.240 . S
O207 C205 1.279 . S
O208 Cd198 2.297 . S
O208 C203 1.247 . S
O209 Cd198 2.439 . S
O209 C203 1.208 . S
O210 Cd211 2.223 . S
O210 C218 1.315 . S
Cd211 O210 2.223 . S
Cd211 O214 2.297 . S
Cd211 O215 2.439 . S
Cd211 O221 2.240 . S
Cd212 O213 2.240 . S
Cd212 O220 2.223 . S
Cd212 O222 2.297 . S
Cd212 O223 2.439 . S
O213 Cd212 2.240 . S
O213 C218 1.279 . S
O214 Cd211 2.297 . S
O214 C216 1.247 . S
O215 Cd211 2.439 . S
O215 C216 1.208 . S
C216 O214 1.247 . S
C216 O215 1.208 . S
C217 O222 1.247 . S
C217 O223 1.208 . S
C218 O210 1.315 . S
C218 O213 1.279 . S
C219 O220 1.315 . S
C219 O221 1.279 . S
O220 Cd212 2.223 . S
O220 C219 1.315 . S
O221 Cd211 2.240 . S
O221 C219 1.279 . S
O222 Cd212 2.297 . S
O222 C217 1.247 . S
O223 Cd212 2.439 . S
O223 C217 1.208 . S
O224 Cd225 2.223 . S
O224 C232 1.315 . S
Cd225 O224 2.223 . S
Cd225 O228 2.297 . S
Cd225 O229 2.439 . S
Cd225 O235 2.240 . S
Cd226 O227 2.240 . S
Cd226 O234 2.223 . S
Cd226 O236 2.297 . S
Cd226 O237 2.439 . S
O227 Cd226 2.240 . S
O227 C232 1.279 . S
O228 Cd225 2.297 . S
O228 C230 1.247 . S
O229 Cd225 2.439 . S
O229 C230 1.208 . S
C230 O228 1.247 . S
C230 O229 1.208 . S
C231 O236 1.247 . S
C231 O237 1.208 . S
C232 O224 1.315 . S
C232 O227 1.279 . S
C233 O234 1.315 . S
C233 O235 1.279 . S
O234 Cd226 2.223 . S
O234 C233 1.315 . S
O235 Cd225 2.240 . S
O235 C233 1.279 . S
O236 Cd226 2.297 . S
O236 C231 1.247 . S
O237 Cd226 2.439 . S
O237 C231 1.208 . S
O238 Cd239 2.223 . S
O238 C246 1.315 . S
Cd239 O238 2.223 . S
Cd239 O242 2.297 . S
Cd239 O243 2.439 . S
Cd239 O249 2.240 . S
Cd240 O241 2.240 . S
Cd240 O248 2.223 . S
Cd240 O250 2.297 . S
Cd240 O251 2.439 . S
O241 Cd240 2.240 . S
O241 C246 1.279 . S
O242 Cd239 2.297 . S
O242 C244 1.247 . S
O243 Cd239 2.439 . S
O243 C244 1.208 . S
C244 O242 1.247 . S
C244 O243 1.208 . S
C245 O250 1.247 . S
C245 O251 1.208 . S
C246 O238 1.315 . S
C246 O241 1.279 . S
C247 O248 1.315 . S
C247 O249 1.279 . S
O248 Cd240 2.223 . S
O248 C247 1.315 . S
O249 Cd239 2.240 . S
O249 C247 1.279 . S
O250 Cd240 2.297 . S
O250 C245 1.247 . S
O251 Cd240 2.439 . S
O251 C245 1.208 . S
O252 Cd253 2.223 . S
O252 C260 1.315 . S
Cd253 O252 2.223 . S
Cd253 O256 2.297 . S
Cd253 O257 2.439 . S
Cd253 O263 2.240 . S
Cd254 O255 2.240 . S
Cd254 O262 2.223 . S
Cd254 O264 2.297 . S
Cd254 O265 2.439 1_554 S
O255 Cd254 2.240 . S
O255 C260 1.279 . S
O256 Cd253 2.297 . S
O256 C258 1.247 . S
O257 Cd253 2.439 . S
O257 C258 1.208 . S
C258 O256 1.247 . S
C258 O257 1.208 . S
C259 O264 1.247 1_556 S
C259 O265 1.208 . S
C260 O252 1.315 . S
C260 O255 1.279 . S
C261 O262 1.315 . S
C261 O263 1.279 . S
O262 Cd254 2.223 . S
O262 C261 1.315 . S
O263 Cd253 2.240 . S
O263 C261 1.279 . S
O264 Cd254 2.297 . S
O264 C259 1.247 1_554 S
O265 Cd254 2.439 1_556 S
O265 C259 1.208 . S
O266 Cd267 2.223 . S
O266 C274 1.315 . S
Cd267 O266 2.223 . S
Cd267 O270 2.297 . S
Cd267 O271 2.439 . S
Cd267 O277 2.240 . S
Cd268 O269 2.240 . S
Cd268 O276 2.223 . S
Cd268 O278 2.297 . S
Cd268 O279 2.439 1_554 S
O269 Cd268 2.240 . S
O269 C274 1.279 . S
O270 Cd267 2.297 . S
O270 C272 1.247 . S
O271 Cd267 2.439 . S
O271 C272 1.208 . S
C272 O270 1.247 . S
C272 O271 1.208 . S
C273 O278 1.247 1_556 S
C273 O279 1.208 . S
C274 O266 1.315 . S
C274 O269 1.279 . S
C275 O276 1.315 . S
C275 O277 1.279 . S
O276 Cd268 2.223 . S
O276 C275 1.315 . S
O277 Cd267 2.240 . S
O277 C275 1.279 . S
O278 Cd268 2.297 . S
O278 C273 1.247 1_554 S
O279 Cd268 2.439 1_556 S
O279 C273 1.208 . S
O280 Cd281 2.223 . S
O280 C288 1.315 . S
Cd281 O280 2.223 . S
Cd281 O284 2.297 . S
Cd281 O285 2.439 . S
Cd281 O291 2.240 . S
Cd282 O283 2.240 . S
Cd282 O290 2.223 . S
Cd282 O292 2.297 . S
Cd282 O293 2.439 1_554 S
O283 Cd282 2.240 . S
O283 C288 1.279 . S
O284 Cd281 2.297 . S
O284 C286 1.247 . S
O285 Cd281 2.439 . S
O285 C286 1.208 . S
C286 O284 1.247 . S
C286 O285 1.208 . S
C287 O292 1.247 1_556 S
C287 O293 1.208 . S
C288 O280 1.315 . S
C288 O283 1.279 . S
C289 O290 1.315 . S
C289 O291 1.279 . S
O290 Cd282 2.223 . S
O290 C289 1.315 . S
O291 Cd281 2.240 . S
O291 C289 1.279 . S
O292 Cd282 2.297 . S
O292 C287 1.247 1_554 S
O293 Cd282 2.439 1_556 S
O293 C287 1.208 . S
O294 Cd295 2.223 . S
O294 C302 1.315 1_545 S
Cd295 O294 2.223 . S
Cd295 O298 2.297 . S
Cd295 O299 2.439 1_556 S
Cd295 O305 2.240 . S
Cd296 O297 2.240 1_554 S
Cd296 O304 2.223 1_554 S
Cd296 O306 2.297 . S
Cd296 O307 2.439 . S
O297 Cd296 2.240 1_556 S
O297 C302 1.279 . S
O298 Cd295 2.297 . S
O298 C300 1.247 1_556 S
O299 Cd295 2.439 1_554 S
O299 C300 1.208 . S
C300 O298 1.247 1_554 S
C300 O299 1.208 . S
C301 O306 1.247 . S
C301 O307 1.208 . S
C302 O294 1.315 1_565 S
C302 O297 1.279 . S
C303 O304 1.315 1_545 S
C303 O305 1.279 . S
O304 Cd296 2.223 1_556 S
O304 C303 1.315 1_565 S
O305 Cd295 2.240 . S
O305 C303 1.279 . S
O306 Cd296 2.297 . S
O306 C301 1.247 . S
O307 Cd296 2.439 . S
O307 C301 1.208 . S
O308 Cd309 2.223 . S
O308 C316 1.315 1_655 S
Cd309 O308 2.223 . S
Cd309 O312 2.297 . S
Cd309 O313 2.439 1_556 S
Cd309 O319 2.240 . S
Cd310 O311 2.240 1_554 S
Cd310 O318 2.223 1_554 S
Cd310 O320 2.297 . S
Cd310 O321 2.439 . S
O311 Cd310 2.240 1_556 S
O311 C316 1.279 . S
O312 Cd309 2.297 . S
O312 C314 1.247 1_556 S
O313 Cd309 2.439 1_554 S
O313 C314 1.208 . S
C314 O312 1.247 1_554 S
C314 O313 1.208 . S
C315 O320 1.247 . S
C315 O321 1.208 . S
C316 O308 1.315 1_455 S
C316 O311 1.279 . S
C317 O318 1.315 1_655 S
C317 O319 1.279 . S
O318 Cd310 2.223 1_556 S
O318 C317 1.315 1_455 S
O319 Cd309 2.240 . S
O319 C317 1.279 . S
O320 Cd310 2.297 . S
O320 C315 1.247 . S
O321 Cd310 2.439 . S
O321 C315 1.208 . S
O322 Cd323 2.223 . S
O322 C330 1.315 . S
Cd323 O322 2.223 . S
Cd323 O326 2.297 . S
Cd323 O327 2.439 1_556 S
Cd323 O333 2.240 . S
Cd324 O325 2.240 . S
Cd324 O332 2.223 . S
Cd324 O334 2.297 1_556 S
Cd324 O335 2.439 1_556 S
O325 Cd324 2.240 . S
O325 C330 1.279 . S
O326 Cd323 2.297 . S
O326 C328 1.247 1_556 S
O327 Cd323 2.439 1_554 S
O327 C328 1.208 . S
C328 O326 1.247 1_554 S
C328 O327 1.208 . S
C329 O334 1.247 . S
C329 O335 1.208 . S
C330 O322 1.315 . S
C330 O325 1.279 . S
C331 O332 1.315 . S
C331 O333 1.279 . S
O332 Cd324 2.223 . S
O332 C331 1.315 . S
O333 Cd323 2.240 . S
O333 C331 1.279 . S
O334 Cd324 2.297 1_554 S
O334 C329 1.247 . S
O335 Cd324 2.439 1_554 S
O335 C329 1.208 . S
O336 Cd337 2.223 . S
O336 C344 1.315 . S
Cd337 O336 2.223 . S
Cd337 O340 2.297 . S
Cd337 O341 2.439 . S
Cd337 O347 2.240 . S
Cd338 O339 2.240 . S
Cd338 O346 2.223 . S
Cd338 O348 2.297 . S
Cd338 O349 2.439 1_556 S
O339 Cd338 2.240 . S
O339 C344 1.279 . S
O340 Cd337 2.297 . S
O340 C342 1.247 . S
O341 Cd337 2.439 . S
O341 C342 1.208 . S
C342 O340 1.247 . S
C342 O341 1.208 . S
C343 O348 1.247 1_554 S
C343 O349 1.208 . S
C344 O336 1.315 . S
C344 O339 1.279 . S
C345 O346 1.315 . S
C345 O347 1.279 . S
O346 Cd338 2.223 . S
O346 C345 1.315 . S
O347 Cd337 2.240 . S
O347 C345 1.279 . S
O348 Cd338 2.297 . S
O348 C343 1.247 1_556 S
O349 Cd338 2.439 1_554 S
O349 C343 1.208 . S
O350 Cd351 2.223 . S
O350 C358 1.315 . S
Cd351 O350 2.223 . S
Cd351 O354 2.297 . S
Cd351 O355 2.439 . S
Cd351 O361 2.240 . S
Cd352 O353 2.240 . S
Cd352 O360 2.223 . S
Cd352 O362 2.297 . S
Cd352 O363 2.439 1_556 S
O353 Cd352 2.240 . S
O353 C358 1.279 . S
O354 Cd351 2.297 . S
O354 C356 1.247 . S
O355 Cd351 2.439 . S
O355 C356 1.208 . S
C356 O354 1.247 . S
C356 O355 1.208 . S
C357 O362 1.247 1_554 S
C357 O363 1.208 . S
C358 O350 1.315 . S
C358 O353 1.279 . S
C359 O360 1.315 . S
C359 O361 1.279 . S
O360 Cd352 2.223 . S
O360 C359 1.315 . S
O361 Cd351 2.240 . S
O361 C359 1.279 . S
O362 Cd352 2.297 . S
O362 C357 1.247 1_556 S
O363 Cd352 2.439 1_554 S
O363 C357 1.208 . S
O364 Cd365 2.223 . S
O364 C372 1.315 . S
Cd365 O364 2.223 . S
Cd365 O368 2.297 . S
Cd365 O369 2.439 . S
Cd365 O375 2.240 . S
Cd366 O367 2.240 . S
Cd366 O374 2.223 . S
Cd366 O376 2.297 . S
Cd366 O377 2.439 1_556 S
O367 Cd366 2.240 . S
O367 C372 1.279 . S
O368 Cd365 2.297 . S
O368 C370 1.247 . S
O369 Cd365 2.439 . S
O369 C370 1.208 . S
C370 O368 1.247 . S
C370 O369 1.208 . S
C371 O376 1.247 1_554 S
C371 O377 1.208 . S
C372 O364 1.315 . S
C372 O367 1.279 . S
C373 O374 1.315 . S
C373 O375 1.279 . S
O374 Cd366 2.223 . S
O374 C373 1.315 . S
O375 Cd365 2.240 . S
O375 C373 1.279 . S
O376 Cd366 2.297 . S
O376 C371 1.247 1_556 S
O377 Cd366 2.439 1_554 S
O377 C371 1.208 . S
O378 Cd379 2.223 . S
O378 C386 1.315 1_565 S
Cd379 O378 2.223 . S
Cd379 O382 2.297 . S
Cd379 O383 2.439 1_554 S
Cd379 O389 2.240 . S
Cd380 O381 2.240 1_556 S
Cd380 O388 2.223 1_556 S
Cd380 O390 2.297 . S
Cd380 O391 2.439 . S
O381 Cd380 2.240 1_554 S
O381 C386 1.279 . S
O382 Cd379 2.297 . S
O382 C384 1.247 1_554 S
O383 Cd379 2.439 1_556 S
O383 C384 1.208 . S
C384 O382 1.247 1_556 S
C384 O383 1.208 . S
C385 O390 1.247 . S
C385 O391 1.208 . S
C386 O378 1.315 1_545 S
C386 O381 1.279 . S
C387 O388 1.315 1_565 S
C387 O389 1.279 . S
O388 Cd380 2.223 1_554 S
O388 C387 1.315 1_545 S
O389 Cd379 2.240 . S
O389 C387 1.279 . S
O390 Cd380 2.297 . S
O390 C385 1.247 . S
O391 Cd380 2.439 . S
O391 C385 1.208 . S
O392 Cd393 2.223 . S
O392 C400 1.315 1_455 S
Cd393 O392 2.223 . S
Cd393 O396 2.297 . S
Cd393 O397 2.439 1_554 S
Cd393 O403 2.240 . S
Cd394 O395 2.240 1_556 S
Cd394 O402 2.223 1_556 S
Cd394 O404 2.297 . S
Cd394 O405 2.439 . S
O395 Cd394 2.240 1_554 S
O395 C400 1.279 . S
O396 Cd393 2.297 . S
O396 C398 1.247 1_554 S
O397 Cd393 2.439 1_556 S
O397 C398 1.208 . S
C398 O396 1.247 1_556 S
C398 O397 1.208 . S
C399 O404 1.247 . S
C399 O405 1.208 . S
C400 O392 1.315 1_655 S
C400 O395 1.279 . S
C401 O402 1.315 1_455 S
C401 O403 1.279 . S
O402 Cd394 2.223 1_554 S
O402 C401 1.315 1_655 S
O403 Cd393 2.240 . S
O403 C401 1.279 . S
O404 Cd394 2.297 . S
O404 C399 1.247 . S
O405 Cd394 2.439 . S
O405 C399 1.208 . S
O406 Cd407 2.223 . S
O406 C414 1.315 . S
Cd407 O406 2.223 . S
Cd407 O410 2.297 . S
Cd407 O411 2.439 1_554 S
Cd407 O417 2.240 . S
Cd408 O409 2.240 . S
Cd408 O416 2.223 . S
Cd408 O418 2.297 1_554 S
Cd408 O419 2.439 1_554 S
O409 Cd408 2.240 . S
O409 C414 1.279 . S
O410 Cd407 2.297 . S
O410 C412 1.247 1_554 S
O411 Cd407 2.439 1_556 S
O411 C412 1.208 . S
C412 O410 1.247 1_556 S
C412 O411 1.208 . S
C413 O418 1.247 . S
C413 O419 1.208 . S
C414 O406 1.315 . S
C414 O409 1.279 . S
C415 O416 1.315 . S
C415 O417 1.279 . S
O416 Cd408 2.223 . S
O416 C415 1.315 . S
O417 Cd407 2.240 . S
O417 C415 1.279 . S
O418 Cd408 2.297 1_556 S
O418 C413 1.247 . S
O419 Cd408 2.439 1_556 S
O419 C413 1.208 . S
O420 Cd421 2.223 . S
O420 C428 1.315 1_455 S
Cd421 O420 2.223 . S
Cd421 O424 2.297 . S
Cd421 O425 2.439 . S
Cd421 O431 2.240 . S
Cd422 O423 2.240 . S
Cd422 O430 2.223 . S
Cd422 O432 2.297 . S
Cd422 O433 2.439 . S
O423 Cd422 2.240 . S
O423 C428 1.279 . S
O424 Cd421 2.297 . S
O424 C426 1.247 . S
O425 Cd421 2.439 . S
O425 C426 1.208 . S
C426 O424 1.247 . S
C426 O425 1.208 . S
C427 O432 1.247 . S
C427 O433 1.208 . S
C428 O420 1.315 1_655 S
C428 O423 1.279 . S
C429 O430 1.315 1_455 S
C429 O431 1.279 . S
O430 Cd422 2.223 . S
O430 C429 1.315 1_655 S
O431 Cd421 2.240 . S
O431 C429 1.279 . S
O432 Cd422 2.297 . S
O432 C427 1.247 . S
O433 Cd422 2.439 . S
O433 C427 1.208 . S
O434 Cd435 2.223 . S
O434 C442 1.315 . S
Cd435 O434 2.223 . S
Cd435 O438 2.297 . S
Cd435 O439 2.439 . S
Cd435 O445 2.240 . S
Cd436 O437 2.240 . S
Cd436 O444 2.223 . S
Cd436 O446 2.297 . S
Cd436 O447 2.439 . S
O437 Cd436 2.240 . S
O437 C442 1.279 . S
O438 Cd435 2.297 . S
O438 C440 1.247 . S
O439 Cd435 2.439 . S
O439 C440 1.208 . S
C440 O438 1.247 . S
C440 O439 1.208 . S
C441 O446 1.247 . S
C441 O447 1.208 . S
C442 O434 1.315 . S
C442 O437 1.279 . S
C443 O444 1.315 . S
C443 O445 1.279 . S
O444 Cd436 2.223 . S
O444 C443 1.315 . S
O445 Cd435 2.240 . S
O445 C443 1.279 . S
O446 Cd436 2.297 . S
O446 C441 1.247 . S
O447 Cd436 2.439 . S
O447 C441 1.208 . S
O448 Cd449 2.223 . S
O448 C456 1.315 1_565 S
Cd449 O448 2.223 . S
Cd449 O452 2.297 . S
Cd449 O453 2.439 . S
Cd449 O459 2.240 . S
Cd450 O451 2.240 . S
Cd450 O458 2.223 . S
Cd450 O460 2.297 . S
Cd450 O461 2.439 . S
O451 Cd450 2.240 . S
O451 C456 1.279 . S
O452 Cd449 2.297 . S
O452 C454 1.247 . S
O453 Cd449 2.439 . S
O453 C454 1.208 . S
C454 O452 1.247 . S
C454 O453 1.208 . S
C455 O460 1.247 . S
C455 O461 1.208 . S
C456 O448 1.315 1_545 S
C456 O451 1.279 . S
C457 O458 1.315 1_565 S
C457 O459 1.279 . S
O458 Cd450 2.223 . S
O458 C457 1.315 1_545 S
O459 Cd449 2.240 . S
O459 C457 1.279 . S
O460 Cd450 2.297 . S
O460 C455 1.247 . S
O461 Cd450 2.439 . S
O461 C455 1.208 . S
O462 Cd463 2.223 . S
O462 C470 1.315 . S
Cd463 O462 2.223 . S
Cd463 O466 2.297 . S
Cd463 O467 2.439 . S
Cd463 O473 2.240 . S
Cd464 O465 2.240 . S
Cd464 O472 2.223 . S
Cd464 O474 2.297 . S
Cd464 O475 2.439 . S
O465 Cd464 2.240 . S
O465 C470 1.279 . S
O466 Cd463 2.297 . S
O466 C468 1.247 . S
O467 Cd463 2.439 . S
O467 C468 1.208 . S
C468 O466 1.247 . S
C468 O467 1.208 . S
C469 O474 1.247 . S
C469 O475 1.208 . S
C470 O462 1.315 . S
C470 O465 1.279 . S
C471 O472 1.315 . S
C471 O473 1.279 . S
O472 Cd464 2.223 . S
O472 C471 1.315 . S
O473 Cd463 2.240 . S
O473 C471 1.279 . S
O474 Cd464 2.297 . S
O474 C469 1.247 . S
O475 Cd464 2.439 . S
O475 C469 1.208 . S
O476 Cd477 2.223 . S
O476 C484 1.315 . S
Cd477 O476 2.223 . S
Cd477 O480 2.297 . S
Cd477 O481 2.439 . S
Cd477 O487 2.240 . S
Cd478 O479 2.240 . S
Cd478 O486 2.223 . S
Cd478 O488 2.297 . S
Cd478 O489 2.439 . S
O479 Cd478 2.240 . S
O479 C484 1.279 . S
O480 Cd477 2.297 . S
O480 C482 1.247 . S
O481 Cd477 2.439 . S
O481 C482 1.208 . S
C482 O480 1.247 . S
C482 O481 1.208 . S
C483 O488 1.247 . S
C483 O489 1.208 . S
C484 O476 1.315 . S
C484 O479 1.279 . S
C485 O486 1.315 . S
C485 O487 1.279 . S
O486 Cd478 2.223 . S
O486 C485 1.315 . S
O487 Cd477 2.240 . S
O487 C485 1.279 . S
O488 Cd478 2.297 . S
O488 C483 1.247 . S
O489 Cd478 2.439 . S
O489 C483 1.208 . S
O490 Cd491 2.223 . S
O490 C498 1.315 . S
Cd491 O490 2.223 . S
Cd491 O494 2.297 . S
Cd491 O495 2.439 . S
Cd491 O501 2.240 . S
Cd492 O493 2.240 . S
Cd492 O500 2.223 . S
Cd492 O502 2.297 . S
Cd492 O503 2.439 . S
O493 Cd492 2.240 . S
O493 C498 1.279 . S
O494 Cd491 2.297 . S
O494 C496 1.247 . S
O495 Cd491 2.439 . S
O495 C496 1.208 . S
C496 O494 1.247 . S
C496 O495 1.208 . S
C497 O502 1.247 . S
C497 O503 1.208 . S
C498 O490 1.315 . S
C498 O493 1.279 . S
C499 O500 1.315 . S
C499 O501 1.279 . S
O500 Cd492 2.223 . S
O500 C499 1.315 . S
O501 Cd491 2.240 . S
O501 C499 1.279 . S
O502 Cd492 2.297 . S
O502 C497 1.247 . S
O503 Cd492 2.439 . S
O503 C497 1.208 . S
C76 C6 1.541 1_565 S
C20 C48 1.541 1_655 S
C62 C34 1.416 . S
C90 C160 1.541 1_565 S
C104 C132 1.541 1_455 S
C146 C118 1.416 . S
C244 C174 1.378 . S
C188 C216 1.500 . S
C230 C202 1.346 . S
C258 C328 1.501 . S
C272 C300 1.380 . S
C286 C314 1.347 . S
C342 C412 1.501 . S
C384 C356 1.380 . S
C370 C398 1.347 . S
C426 C496 1.378 . S
C440 C468 1.500 . S
C454 C482 1.346 . S
C147 C9 3.305 1_556 S
C161 C23 3.117 1_556 S
C133 C37 3.116 1_556 S
C119 C51 3.305 . S
C65 C91 3.117 . S
C79 C105 3.115 . S
C93 C63 3.305 1_556 S
C107 C77 3.117 1_556 S
C121 C49 3.116 1_556 S
C35 C135 3.305 . S
C7 C149 3.117 . S
C163 C21 3.115 . S
C177 C315 2.285 1_655 S
C191 C329 3.409 . S
C301 C205 2.188 1_565 S
C219 C287 3.122 . S
C233 C259 3.196 . S
C247 C273 2.900 . S
C261 C231 3.123 . S
C245 C275 2.902 . S
C217 C289 3.194 . S
C303 C203 2.263 1_545 S
C175 C317 2.169 1_455 S
C189 C331 3.410 . S
C483 C345 3.123 . S
C359 C497 2.902 . S
C373 C469 3.194 . S
C455 C387 2.263 1_545 S
C427 C401 2.169 1_655 S
C441 C415 3.410 . S
C429 C399 2.285 1_455 S
C413 C443 3.409 . S
C457 C385 2.188 1_565 S
C371 C471 3.122 . S
C343 C485 3.196 . S
C357 C499 2.900 . S
C232 C8 3.464 . S
C22 C246 3.427 . S
C218 C36 3.788 . S
C372 C50 3.463 . S
C64 C344 3.788 . S
C78 C358 3.429 . S
C92 C484 3.464 . S
C498 C106 3.427 . S
C470 C120 3.788 . S
C288 C134 3.463 . S
C148 C260 3.788 . S
C162 C274 3.429 . S
C176 C400 2.072 1_455 S
C414 C190 3.842 . S
C386 C204 2.055 1_545 S
C302 C456 2.055 1_565 S
C428 C316 2.072 1_655 S
C442 C330 3.842 . S
