# Generated by pormake.
# Topology lon, (4)-cn, num edge types: 1
# Building blocks:
#     Node 0, Type 0, BuildingBlock: ICAMEG_clean_sbu_1, # of connection points: 4
#     Node 1, Type 0, BuildingBlock: ICAMEG_clean_sbu_1, # of connection points: 4
#     Node 2, Type 0, BuildingBlock: ICAMEG_clean_sbu_1, # of connection points: 4
#     Node 3, Type 0, BuildingBlock: ICAMEG_clean_sbu_1, # of connection points: 4
#     Edge 4, Type (0, 0), BuildingBlock: XIVTED_clean_linker_0, # of connection points: 2
#     Edge 5, Type (0, 0), BuildingBlock: XIVTED_clean_linker_0, # of connection points: 2
#     Edge 6, Type (0, 0), BuildingBlock: XIVTED_clean_linker_0, # of connection points: 2
#     Edge 7, Type (0, 0), BuildingBlock: XIVTED_clean_linker_0, # of connection points: 2
#     Edge 8, Type (0, 0), BuildingBlock: XIVTED_clean_linker_0, # of connection points: 2
#     Edge 9, Type (0, 0), BuildingBlock: XIVTED_clean_linker_0, # of connection points: 2
#     Edge 10, Type (0, 0), BuildingBlock: XIVTED_clean_linker_0, # of connection points: 2
#     Edge 11, Type (0, 0), BuildingBlock: XIVTED_clean_linker_0, # of connection points: 2
# Relax obj value: 0.243
# Max RMSD: 0.269
# Mean RMSD: 0.258
data_MOF--net-lon--node1-ICAMEG_clean_sbu_1--edge1-XIVTED_clean_linker_0
_symmetry_space_group_name_H-M    P1
_symmetry_Int_Tables_number       1
_symmetry_cell_setting            triclinic
loop_
_symmetry_equiv_pos_as_xyz
'x, y, z'
_cell_length_a     22.499325
_cell_length_b     26.420274
_cell_length_c     44.891589
_cell_angle_alpha  92.958784
_cell_angle_beta   90.096884
_cell_angle_gamma 115.21247
loop_
_atom_site_label
_atom_site_type_symbol
_atom_site_fract_x
_atom_site_fract_y
_atom_site_fract_z
_atom_type_partial_charge
Co0 Co 0.3715 0.71864 0.04435 0.0
Co1 Co 0.35356 0.6402 0.10491 0.0
O2 O 0.38029 0.71303 0.0874 0.0
C3 C 0.50336 0.80722 0.03123 0.0
O4 O 0.51279 0.77043 0.01342 0.0
C5 C 0.31813 0.71182 0.15014 0.0
O6 O 0.32887 0.75057 0.1311 0.0
O7 O 0.26381 0.61423 0.0867 0.0
O8 O 0.28987 0.64632 0.04103 0.0
H9 H 0.24568 0.42977 0.10229 0.0
H10 H 0.38574 0.81622 0.08451 0.0
O11 O 0.452 0.792 0.04691 0.0
H12 H 0.17288 0.75812 0.03136 0.0
H13 H 0.37523 0.81899 0.95132 0.0
H14 H 0.34346 0.63926 0.99153 0.0
H15 H 0.24188 0.70808 0.02094 0.0
H16 H 0.38378 0.81117 1.00549 0.0
O17 O 0.32401 0.66708 0.14242 0.0
H18 H 0.28227 0.52239 0.08128 0.0
H19 H 0.3647 0.60268 0.16556 0.0
H20 H 0.33419 0.64516 0.9372 0.0
H21 H 0.31884 0.86816 0.09521 0.0
H22 H 0.35015 0.73554 0.91676 0.0
H23 H 0.21137 0.83901 0.06866 0.0
O24 O 0.42617 0.67696 0.03653 0.0
H25 H 0.55928 0.77947 0.15879 0.0
H26 H 0.44977 0.59039 0.10943 0.0
H27 H 0.56192 0.62275 0.13053 0.0
H28 H 0.61737 0.71785 0.1556 0.0
H29 H 0.44761 0.74574 0.13702 0.0
H30 H 0.32845 0.51093 0.18752 0.0
H31 H 0.26874 0.42362 0.15578 0.0
O32 O 0.38284 0.60966 0.06884 0.0
C33 C 0.24892 0.61495 0.05933 0.0
C34 C 0.27182 0.4675 0.11633 0.0
C35 C 0.31819 0.51306 0.16417 0.0
N36 N 0.32597 0.56792 0.12209 0.0
C37 C 0.2928 0.52008 0.10454 0.0
C38 C 0.33841 0.56491 0.15162 0.0
C39 C 0.28472 0.46409 0.14635 0.0
C40 C 0.33923 0.80341 0.07272 0.0
N41 N 0.31758 0.75874 0.05232 0.0
C42 C 0.30147 0.83293 0.07894 0.0
C43 C 0.24115 0.81652 0.06407 0.0
C44 C 0.21948 0.77108 0.04319 0.0
C45 C 0.25857 0.74258 0.03755 0.0
C46 C 0.36816 0.77937 0.95995 0.0
C47 C 0.3504 0.67872 0.98281 0.0
C48 C 0.37303 0.7747 0.9906 0.0
N49 N 0.36412 0.72478 1.00169 0.0
C50 C 0.34511 0.68181 0.95203 0.0
C51 C 0.35409 0.73254 0.94057 0.0
C52 C 0.41784 0.63005 0.04632 0.0
C53 C 0.53549 0.73781 0.14808 0.0
C54 C 0.47349 0.63186 0.12021 0.0
C55 C 0.53704 0.64993 0.13218 0.0
C56 C 0.56811 0.70327 0.14624 0.0
N57 N 0.44149 0.66576 0.12232 0.0
C58 C 0.47196 0.71831 0.13584 0.0
Co59 Co 0.6027 0.30592 0.54054 0.0
Co60 Co 0.68573 0.28353 0.59906 0.0
O61 O 0.62587 0.31272 0.58316 0.0
C62 C 0.62833 0.42244 0.529 0.0
O63 O 0.67041 0.42082 0.50917 0.0
C64 C 0.58139 0.26366 0.64558 0.0
O65 O 0.54756 0.28072 0.6282 0.0
O66 O 0.63074 0.2083 0.57952 0.0
O67 O 0.60558 0.23132 0.53537 0.0
H68 H 0.82364 0.1759 0.59161 0.0
H69 H 0.51679 0.33191 0.58281 0.0
O70 O 0.59876 0.38061 0.54489 0.0
H71 H 0.37266 0.15201 0.53052 0.0
H72 H 0.47686 0.32164 0.45117 0.0
H73 H 0.65266 0.27223 0.48556 0.0
H74 H 0.48963 0.19999 0.5183 0.0
H75 H 0.50493 0.32818 0.50479 0.0
O76 O 0.63366 0.26084 0.63654 0.0
H77 H 0.75018 0.21521 0.57266 0.0
H78 H 0.74562 0.28677 0.65909 0.0
H79 H 0.62607 0.26496 0.43173 0.0
H80 H 0.39978 0.28577 0.59535 0.0
H81 H 0.53759 0.28977 0.41423 0.0
H82 H 0.32688 0.195 0.56922 0.0
O83 O 0.69729 0.34334 0.53124 0.0
H84 H 0.72505 0.46464 0.65638 0.0
H85 H 0.82981 0.356 0.6047 0.0
H86 H 0.89895 0.4499 0.62739 0.0
H87 H 0.84665 0.50485 0.65368 0.0
H88 H 0.65784 0.37114 0.63296 0.0
H89 H 0.81845 0.24774 0.67901 0.0
H90 H 0.85825 0.19209 0.64515 0.0
O91 O 0.74189 0.3057 0.56299 0.0
C92 C 0.60953 0.19577 0.55251 0.0
C93 C 0.80679 0.20023 0.60657 0.0
C94 C 0.80379 0.24046 0.65563 0.0
N95 N 0.74399 0.2536 0.61467 0.0
C96 C 0.76533 0.22273 0.59595 0.0
C97 C 0.76236 0.2623 0.64423 0.0
C98 C 0.82613 0.20927 0.63662 0.0
C99 C 0.48535 0.29263 0.57118 0.0
N100 N 0.51028 0.26861 0.54998 0.0
C101 C 0.41914 0.2666 0.57845 0.0
C102 C 0.37829 0.21564 0.56381 0.0
C103 C 0.40397 0.19146 0.54213 0.0
C104 C 0.47042 0.21869 0.53545 0.0
C105 C 0.51544 0.31062 0.45852 0.0
C106 C 0.61397 0.28294 0.47813 0.0
C107 C 0.53154 0.31421 0.48886 0.0
N108 N 0.5802 0.30033 0.49832 0.0
C109 C 0.59918 0.27881 0.44762 0.0
C110 C 0.54954 0.29275 0.43781 0.0
C111 C 0.74512 0.33405 0.54038 0.0
C112 C 0.74847 0.44095 0.64518 0.0
C113 C 0.80652 0.37954 0.61599 0.0
C114 C 0.84602 0.43274 0.62887 0.0
C115 C 0.81667 0.46354 0.64361 0.0
N116 N 0.73961 0.35728 0.61786 0.0
C117 C 0.71055 0.38761 0.63201 0.0
Co118 Co 0.29356 0.69142 0.48296 0.0
Co119 Co 0.38738 0.70877 0.42133 0.0
O120 O 0.30127 0.68308 0.43974 0.0
C121 C 0.18039 0.58093 0.46281 0.0
O122 O 0.19931 0.58543 0.4351 0.0
C123 C 0.3703 0.76916 0.37015 0.0
O124 O 0.422 0.81373 0.38038 0.0
O125 O 0.41099 0.78577 0.4392 0.0
O126 O 0.37443 0.76422 0.48534 0.0
H127 H 0.63291 0.81584 0.4192 0.0
H128 H 0.18242 0.67668 0.44166 0.0
O129 O 0.21214 0.61873 0.48299 0.0
H130 H 0.23037 0.85133 0.50207 0.0
H131 H 0.1735 0.6803 0.5788 0.0
H132 H 0.38891 0.72526 0.534 0.0
H133 H 0.29432 0.79705 0.51009 0.0
H134 H 0.18285 0.67214 0.52421 0.0
O135 O 0.34786 0.7252 0.38496 0.0
H136 H 0.52401 0.78123 0.442 0.0
H137 H 0.43329 0.69312 0.36042 0.0
H138 H 0.38186 0.73447 0.58869 0.0
H139 H 0.1168 0.7292 0.43319 0.0
H140 H 0.27355 0.71192 0.61142 0.0
H141 H 0.14057 0.81733 0.46349 0.0
O142 O 0.34715 0.64944 0.48894 0.0
H143 H 0.2395 0.52827 0.36556 0.0
H144 H 0.45261 0.63085 0.41892 0.0
H145 H 0.42201 0.53456 0.39833 0.0
H146 H 0.31483 0.48259 0.3713 0.0
H147 H 0.27157 0.62434 0.38698 0.0
H148 H 0.54118 0.72688 0.33674 0.0
H149 H 0.64198 0.78866 0.3662 0.0
O150 O 0.42776 0.69102 0.45708 0.0
C151 C 0.40876 0.79937 0.46673 0.0
C152 C 0.58935 0.78893 0.40614 0.0
C153 C 0.53787 0.739 0.35986 0.0
N154 N 0.47234 0.73517 0.4026 0.0
C155 C 0.52755 0.7692 0.41893 0.0
C156 C 0.47692 0.72004 0.37339 0.0
C157 C 0.5944 0.77366 0.3764 0.0
C158 C 0.19255 0.71434 0.45529 0.0
N159 N 0.24136 0.7329 0.47678 0.0
C160 C 0.15544 0.74422 0.45024 0.0
C161 C 0.16887 0.79371 0.4672 0.0
C162 C 0.21922 0.8128 0.48884 0.0
C163 C 0.25528 0.78181 0.49327 0.0
C164 C 0.221 0.69036 0.56915 0.0
C165 C 0.34167 0.71569 0.54372 0.0
C166 C 0.22659 0.68569 0.53826 0.0
N167 N 0.28649 0.69868 0.52591 0.0
C168 C 0.33795 0.72084 0.5747 0.0
C169 C 0.27715 0.70812 0.58745 0.0
C170 C 0.40394 0.66 0.47895 0.0
C171 C 0.2863 0.55043 0.37733 0.0
C172 C 0.40547 0.60834 0.4076 0.0
C173 C 0.38862 0.5539 0.39578 0.0
C174 C 0.32854 0.52481 0.38058 0.0
N175 N 0.36365 0.63317 0.40445 0.0
C176 C 0.30481 0.60494 0.38946 0.0
Co177 Co 0.66153 0.29981 0.9722 0.0
Co178 Co 0.72045 0.37679 0.91101 0.0
O179 O 0.67462 0.30457 0.92908 0.0
C180 C 0.7033 0.21037 0.98551 0.0
O181 O 0.74975 0.24682 1.0034 0.0
C182 C 0.61249 0.3037 0.86636 0.0
O183 O 0.58879 0.2633 0.88481 0.0
O184 O 0.6582 0.40386 0.92965 0.0
O185 O 0.6532 0.37252 0.97544 0.0
H186 H 0.82554 0.58714 0.9125 0.0
H187 H 0.57617 0.20193 0.93263 0.0
O188 O 0.66771 0.22611 0.96973 0.0
H189 H 0.42441 0.26253 0.98624 0.0
H190 H 0.56673 0.20132 0.06588 0.0
H191 H 0.71525 0.37979 0.02468 0.0
H192 H 0.5438 0.31177 0.99611 0.0
H193 H 0.58157 0.20822 0.01161 0.0
O194 O 0.66161 0.34967 0.87406 0.0
H195 H 0.76982 0.49508 0.93414 0.0
H196 H 0.76555 0.41277 0.84979 0.0
H197 H 0.70165 0.37479 0.0791 0.0
H198 H 0.45696 0.15081 0.92244 0.0
H199 H 0.62694 0.28505 0.10004 0.0
H200 H 0.38014 0.18121 0.94924 0.0
O201 O 0.75814 0.34099 0.97951 0.0
H202 H 0.78369 0.23541 0.85728 0.0
H203 H 0.8659 0.42595 0.90493 0.0
H204 H 0.94441 0.39293 0.88324 0.0
H205 H 0.90344 0.2971 0.85899 0.0
H206 H 0.70711 0.26975 0.87962 0.0
H207 H 0.82064 0.50394 0.8272 0.0
H208 H 0.85131 0.59197 0.85865 0.0
O209 O 0.78215 0.40742 0.94658 0.0
C210 C 0.64347 0.40374 0.95708 0.0
C211 C 0.8126 0.54908 0.89858 0.0
C212 C 0.80976 0.50239 0.8507 0.0
N213 N 0.76485 0.44859 0.89333 0.0
C214 C 0.7812 0.49683 0.91073 0.0
C215 C 0.77838 0.45088 0.86361 0.0
C216 C 0.82698 0.55176 0.86836 0.0
C217 C 0.54313 0.21534 0.94448 0.0
N218 N 0.5672 0.26026 0.96471 0.0
C219 C 0.47563 0.18626 0.93857 0.0
C220 C 0.43257 0.20336 0.95359 0.0
C221 C 0.45738 0.24904 0.9743 0.0
C222 C 0.52517 0.27708 0.97963 0.0
C223 C 0.59941 0.24067 0.05703 0.0
C224 C 0.68261 0.3406 0.03361 0.0
C225 C 0.60808 0.24482 0.02631 0.0
N226 N 0.64925 0.2944 0.01496 0.0
C227 C 0.67511 0.33802 0.06445 0.0
C228 C 0.6332 0.28766 0.07618 0.0
C229 C 0.79693 0.38744 0.96928 0.0
C230 C 0.80212 0.27742 0.86757 0.0
C231 C 0.84752 0.38419 0.89447 0.0
C232 C 0.89231 0.36574 0.88218 0.0
C233 C 0.8693 0.312 0.86859 0.0
N234 N 0.78153 0.35032 0.8931 0.0
C235 C 0.75879 0.29731 0.88011 0.0
H236 H 0.35202 0.81361 0.18063 0.0
H237 H 0.27511 0.67829 0.3396 0.0
H238 H 0.26768 0.63593 0.19286 0.0
H239 H 0.41281 0.84981 0.32873 0.0
H240 H 0.25033 0.66666 0.28614 0.0
H241 H 0.35333 0.83113 0.23494 0.0
C242 C 0.33259 0.77827 0.19465 0.0
C243 C 0.31007 0.72321 0.1822 0.0
C244 C 0.28542 0.70705 0.29549 0.0
C245 C 0.31145 0.74299 0.2442 0.0
C246 C 0.29948 0.71388 0.32611 0.0
C247 C 0.34685 0.765 0.33876 0.0
C248 C 0.31859 0.75164 0.27723 0.0
C249 C 0.37636 0.80954 0.31997 0.0
C250 C 0.33377 0.78834 0.22563 0.0
C251 C 0.28593 0.67906 0.20149 0.0
N252 N 0.36218 0.80171 0.2901 0.0
N253 N 0.2875 0.68992 0.23147 0.0
H254 H 0.60646 0.19785 0.68402 0.0
H255 H 0.61301 0.37947 0.82711 0.0
H256 H 0.52861 0.32108 0.68056 0.0
H257 H 0.56494 0.20398 0.83327 0.0
H258 H 0.59061 0.36302 0.7731 0.0
H259 H 0.59977 0.20189 0.73859 0.0
C260 C 0.58688 0.225 0.69474 0.0
C261 C 0.56775 0.25899 0.67779 0.0
C262 C 0.58393 0.328 0.78639 0.0
C263 C 0.56197 0.26505 0.74004 0.0
C264 C 0.59679 0.33735 0.81713 0.0
C265 C 0.59055 0.29296 0.83465 0.0
C266 C 0.56676 0.27429 0.77297 0.0
C267 C 0.56979 0.23925 0.8206 0.0
C268 C 0.58305 0.22725 0.7258 0.0
C269 C 0.54326 0.2938 0.69278 0.0
N270 N 0.55985 0.23157 0.79046 0.0
N271 N 0.54229 0.2968 0.72313 0.0
H272 H 0.41569 0.53132 0.06289 0.0
H273 H 0.61674 0.48156 0.92759 0.0
H274 H 0.4921 0.65224 0.99542 0.0
H275 H 0.60139 0.41089 0.01348 0.0
H276 H 0.56172 0.53838 0.94791 0.0
H277 H 0.47162 0.47897 0.04027 0.0
C278 C 0.44436 0.54714 0.04332 0.0
C279 C 0.44982 0.59699 0.03138 0.0
C280 C 0.5707 0.51039 0.96216 0.0
C281 C 0.51394 0.53615 1.00501 0.0
C282 C 0.60193 0.47789 0.95062 0.0
C283 C 0.61313 0.4407 0.96869 0.0
C284 C 0.5499 0.505 0.9918 0.0
C285 C 0.59327 0.43817 0.99845 0.0
C286 C 0.47644 0.51705 0.03041 0.0
C287 C 0.487 0.61439 1.00559 0.0
N288 N 0.56232 0.4694 0.0089 0.0
N289 N 0.5177 0.58394 0.9932 0.0
H290 H 0.07026 0.52355 0.42727 0.0
H291 H 0.86323 0.33548 0.557 0.0
H292 H 0.14791 0.53474 0.51654 0.0
H293 H 0.77258 0.3906 0.48864 0.0
H294 H 0.97006 0.38821 0.53547 0.0
H295 H 0.96276 0.4548 0.44317 0.0
C296 C 0.06496 0.51079 0.45002 0.0
C297 C 0.11776 0.5349 0.4707 0.0
C298 C 0.92662 0.38839 0.52513 0.0
C299 C 0.996 0.45642 0.48877 0.0
C300 C 0.86551 0.35839 0.53741 0.0
C301 C 0.80876 0.35979 0.52516 0.0
C302 C 0.93111 0.41914 0.50003 0.0
C303 C 0.81505 0.38915 0.49922 0.0
C304 C 1.00371 0.47196 0.45908 0.0
C305 C 0.10827 0.51736 0.49998 0.0
N306 N 0.87525 0.41794 0.48757 0.0
N307 N 0.04857 0.47913 0.50814 0.0
H308 H 0.58234 0.12667 0.97151 0.0
H309 H 0.62802 0.86058 0.00936 0.0
H310 H 0.77237 0.15567 0.00832 0.0
H311 H 0.467 0.89177 0.04394 0.0
H312 H 0.68414 0.95994 0.99739 0.0
H313 H 0.54009 0.02904 0.98416 0.0
C314 C 0.61568 0.11237 0.9817 0.0
C315 C 0.68109 0.1496 0.98897 0.0
C316 C 0.63689 0.94472 1.00794 0.0
C317 C 0.63265 0.0376 1.00326 0.0
C318 C 0.60493 0.88833 0.01478 0.0
C319 C 0.54276 0.86784 0.02769 0.0
C320 C 0.60525 0.97988 0.01321 0.0
C321 C 0.51491 0.90557 0.03414 0.0
C322 C 0.59124 0.05675 0.98911 0.0
C323 C 0.7216 0.12839 1.00244 0.0
N324 N 0.54577 0.95941 0.02633 0.0
N325 N 0.69676 0.0735 0.00914 0.0
H326 H 0.68144 0.51916 0.49938 0.0
H327 H 0.36852 0.58407 0.52265 0.0
H328 H 0.52241 0.42755 0.55696 0.0
H329 H 0.5296 0.67597 0.46604 0.0
H330 H 0.43017 0.53405 0.54041 0.0
H331 H 0.63319 0.58479 0.49218 0.0
C332 C 0.63684 0.51325 0.51085 0.0
C333 C 0.60559 0.46738 0.52853 0.0
C334 C 0.45224 0.56554 0.5243 0.0
C335 C 0.5495 0.54213 0.52008 0.0
C336 C 0.41706 0.59418 0.51414 0.0
C337 C 0.44339 0.63378 0.49244 0.0
C338 C 0.51419 0.57643 0.51267 0.0
C339 C 0.50679 0.6453 0.48245 0.0
C340 C 0.60919 0.55074 0.50668 0.0
C341 C 0.5481 0.46215 0.54301 0.0
N342 N 0.53965 0.61641 0.49242 0.0
N343 N 0.52147 0.49864 0.53815 0.0
H344 H 0.14434 0.53647 0.08847 0.0
H345 H 0.89452 0.48473 0.95174 0.0
H346 H 0.19947 0.60895 1.00301 0.0
H347 H 0.84867 0.36674 0.02082 0.0
H348 H 1.00273 0.53761 0.97451 0.0
H349 H 0.03268 0.47943 0.06783 0.0
C350 C 0.13318 0.54052 0.06548 0.0
C351 C 0.1815 0.57821 0.04762 0.0
C352 C 0.96922 0.50005 0.9847 0.0
C353 C 0.05416 0.51357 0.02411 0.0
C354 C 0.90707 0.46966 0.97168 0.0
C355 C 0.86227 0.42052 0.98407 0.0
C356 C 0.9872 0.48195 0.01064 0.0
C357 C 0.88173 0.40403 0.0103 0.0
C358 C 0.06955 0.50788 0.05374 0.0
C359 C 0.16414 0.58122 0.01789 0.0
N360 N 0.94283 0.43475 0.02278 0.0
N361 N 0.10209 0.54977 1.00724 0.0
H362 H 0.59027 0.10143 0.58206 0.0
H363 H 0.46845 0.8942 0.43514 0.0
H364 H 0.57929 0.15681 0.49419 0.0
H365 H 0.43656 0.83861 0.52496 0.0
H366 H 0.52441 0.99128 0.45573 0.0
H367 H 0.54876 0.00504 0.56068 0.0
C368 C 0.57952 0.09347 0.55829 0.0
C369 C 0.58778 0.13737 0.54 0.0
C370 C 0.50537 0.95768 0.47087 0.0
C371 C 0.54054 0.02718 0.51537 0.0
C372 C 0.47365 0.90228 0.45913 0.0
C373 C 0.44721 0.85813 0.4783 0.0
C374 C 0.51122 0.96891 0.50198 0.0
C375 C 0.45552 0.8712 0.50925 0.0
C376 C 0.55571 0.03841 0.54611 0.0
C377 C 0.5732 0.12439 0.50928 0.0
N378 N 0.48658 0.92527 0.52008 0.0
N379 N 0.55022 0.07056 0.49798 0.0
loop_
_geom_bond_atom_site_label_1
_geom_bond_atom_site_label_2
_geom_bond_distance
_geom_bond_site_symmetry_2
_ccdc_geom_bond_type
Co0 O2 2.143 . S
Co0 O8 2.074 . S
Co0 O11 2.093 . S
Co0 O24 2.097 . S
Co0 N41 2.151 . S
Co0 N49 2.214 1_554 S
Co1 O2 2.160 . S
Co1 O7 2.058 . S
Co1 O17 2.057 . S
Co1 O32 2.037 . S
Co1 N36 2.145 . S
Co1 N57 2.257 . S
O2 Co0 2.143 . S
O2 Co1 2.160 . S
C3 O4 1.278 . S
C3 O11 1.224 . S
O4 C3 1.278 . S
C5 O6 1.245 . S
C5 O17 1.232 . S
O6 C5 1.245 . S
O7 Co1 2.058 . S
O7 C33 1.269 . S
O8 Co0 2.074 . S
O8 C33 1.257 . S
H9 C34 0.930 . S
H10 C40 0.930 . S
O11 Co0 2.093 . S
O11 C3 1.224 . S
H12 C44 0.929 . S
H13 C46 0.930 . S
H14 C47 0.930 . S
H15 C45 0.929 . S
H16 C48 0.928 . S
O17 Co1 2.057 . S
O17 C5 1.232 . S
H18 C37 0.929 . S
H19 C38 0.929 . S
H20 C50 0.931 . S
H21 C42 0.929 . S
H22 C51 0.930 . S
H23 C43 0.931 . S
O24 Co0 2.097 . S
O24 C52 1.214 . S
H25 C53 0.929 . S
H26 C54 0.929 . S
H27 C55 0.930 . S
H28 C56 0.929 . S
H29 C58 0.930 . S
H30 C35 0.930 . S
H31 C39 0.930 . S
O32 Co1 2.037 . S
O32 C52 1.234 . S
C33 O7 1.269 . S
C33 O8 1.257 . S
C34 H9 0.930 . S
C34 C37 1.388 . S
C34 C39 1.418 . S
C35 H30 0.930 . S
C35 C38 1.404 . S
C35 C39 1.353 . S
N36 Co1 2.145 . S
N36 C37 1.397 . S
N36 C38 1.334 . S
C37 H18 0.929 . S
C37 C34 1.388 . S
C37 N36 1.397 . S
C38 H19 0.929 . S
C38 C35 1.404 . S
C38 N36 1.334 . S
C39 H31 0.930 . S
C39 C34 1.418 . S
C39 C35 1.353 . S
C40 H10 0.930 . S
C40 N41 1.330 . S
C40 C42 1.446 . S
N41 Co0 2.151 . S
N41 C40 1.330 . S
N41 C45 1.418 . S
C42 H21 0.929 . S
C42 C40 1.446 . S
C42 C43 1.332 . S
C43 H23 0.931 . S
C43 C42 1.332 . S
C43 C44 1.267 . S
C44 H12 0.929 . S
C44 C43 1.267 . S
C44 C45 1.251 . S
C45 H15 0.929 . S
C45 N41 1.418 . S
C45 C44 1.251 . S
C46 H13 0.930 . S
C46 C48 1.406 . S
C46 C51 1.261 . S
C47 H14 0.930 . S
C47 N49 1.325 . S
C47 C50 1.357 . S
C48 H16 0.928 . S
C48 C46 1.406 . S
C48 N49 1.261 . S
N49 Co0 2.214 1_556 S
N49 C47 1.325 . S
N49 C48 1.261 . S
C50 H20 0.931 . S
C50 C47 1.357 . S
C50 C51 1.312 . S
C51 H22 0.930 . S
C51 C46 1.261 . S
C51 C50 1.312 . S
C52 O24 1.214 . S
C52 O32 1.234 . S
C53 H25 0.929 . S
C53 C56 1.391 . S
C53 C58 1.391 . S
C54 H26 0.929 . S
C54 C55 1.390 . S
C54 N57 1.391 . S
C55 H27 0.930 . S
C55 C54 1.390 . S
C55 C56 1.392 . S
C56 H28 0.929 . S
C56 C53 1.391 . S
C56 C55 1.392 . S
N57 Co1 2.257 . S
N57 C54 1.391 . S
N57 C58 1.388 . S
C58 H29 0.930 . S
C58 C53 1.391 . S
C58 N57 1.388 . S
Co59 O61 2.143 . S
Co59 O67 2.074 . S
Co59 O70 2.093 . S
Co59 O83 2.097 . S
Co59 N100 2.151 . S
Co59 N108 2.214 . S
Co60 O61 2.160 . S
Co60 O66 2.058 . S
Co60 O76 2.057 . S
Co60 O91 2.037 . S
Co60 N95 2.145 . S
Co60 N116 2.257 . S
O61 Co59 2.143 . S
O61 Co60 2.160 . S
C62 O63 1.278 . S
C62 O70 1.224 . S
O63 C62 1.278 . S
C64 O65 1.245 . S
C64 O76 1.232 . S
O65 C64 1.245 . S
O66 Co60 2.058 . S
O66 C92 1.269 . S
O67 Co59 2.074 . S
O67 C92 1.257 . S
H68 C93 0.930 . S
H69 C99 0.930 . S
O70 Co59 2.093 . S
O70 C62 1.224 . S
H71 C103 0.929 . S
H72 C105 0.930 . S
H73 C106 0.930 . S
H74 C104 0.929 . S
H75 C107 0.928 . S
O76 Co60 2.057 . S
O76 C64 1.232 . S
H77 C96 0.929 . S
H78 C97 0.929 . S
H79 C109 0.931 . S
H80 C101 0.929 . S
H81 C110 0.930 . S
H82 C102 0.931 . S
O83 Co59 2.097 . S
O83 C111 1.214 . S
H84 C112 0.929 . S
H85 C113 0.929 . S
H86 C114 0.930 . S
H87 C115 0.929 . S
H88 C117 0.930 . S
H89 C94 0.930 . S
H90 C98 0.930 . S
O91 Co60 2.037 . S
O91 C111 1.234 . S
C92 O66 1.269 . S
C92 O67 1.257 . S
C93 H68 0.930 . S
C93 C96 1.388 . S
C93 C98 1.418 . S
C94 H89 0.930 . S
C94 C97 1.404 . S
C94 C98 1.353 . S
N95 Co60 2.145 . S
N95 C96 1.397 . S
N95 C97 1.334 . S
C96 H77 0.929 . S
C96 C93 1.388 . S
C96 N95 1.397 . S
C97 H78 0.929 . S
C97 C94 1.404 . S
C97 N95 1.334 . S
C98 H90 0.930 . S
C98 C93 1.418 . S
C98 C94 1.353 . S
C99 H69 0.930 . S
C99 N100 1.330 . S
C99 C101 1.446 . S
N100 Co59 2.151 . S
N100 C99 1.330 . S
N100 C104 1.418 . S
C101 H80 0.929 . S
C101 C99 1.446 . S
C101 C102 1.332 . S
C102 H82 0.931 . S
C102 C101 1.332 . S
C102 C103 1.267 . S
C103 H71 0.929 . S
C103 C102 1.267 . S
C103 C104 1.251 . S
C104 H74 0.929 . S
C104 N100 1.418 . S
C104 C103 1.251 . S
C105 H72 0.930 . S
C105 C107 1.406 . S
C105 C110 1.261 . S
C106 H73 0.930 . S
C106 N108 1.325 . S
C106 C109 1.357 . S
C107 H75 0.928 . S
C107 C105 1.406 . S
C107 N108 1.261 . S
N108 Co59 2.214 . S
N108 C106 1.325 . S
N108 C107 1.261 . S
C109 H79 0.931 . S
C109 C106 1.357 . S
C109 C110 1.312 . S
C110 H81 0.930 . S
C110 C105 1.261 . S
C110 C109 1.312 . S
C111 O83 1.214 . S
C111 O91 1.234 . S
C112 H84 0.929 . S
C112 C115 1.391 . S
C112 C117 1.391 . S
C113 H85 0.929 . S
C113 C114 1.390 . S
C113 N116 1.391 . S
C114 H86 0.930 . S
C114 C113 1.390 . S
C114 C115 1.392 . S
C115 H87 0.929 . S
C115 C112 1.391 . S
C115 C114 1.392 . S
N116 Co60 2.257 . S
N116 C113 1.391 . S
N116 C117 1.388 . S
C117 H88 0.930 . S
C117 C112 1.391 . S
C117 N116 1.388 . S
Co118 O120 2.143 . S
Co118 O126 2.074 . S
Co118 O129 2.093 . S
Co118 O142 2.097 . S
Co118 N159 2.151 . S
Co118 N167 2.214 . S
Co119 O120 2.160 . S
Co119 O125 2.058 . S
Co119 O135 2.057 . S
Co119 O150 2.037 . S
Co119 N154 2.145 . S
Co119 N175 2.257 . S
O120 Co118 2.143 . S
O120 Co119 2.160 . S
C121 O122 1.278 . S
C121 O129 1.224 . S
O122 C121 1.278 . S
C123 O124 1.245 . S
C123 O135 1.232 . S
O124 C123 1.245 . S
O125 Co119 2.058 . S
O125 C151 1.269 . S
O126 Co118 2.074 . S
O126 C151 1.257 . S
H127 C152 0.930 . S
H128 C158 0.930 . S
O129 Co118 2.093 . S
O129 C121 1.224 . S
H130 C162 0.929 . S
H131 C164 0.930 . S
H132 C165 0.930 . S
H133 C163 0.929 . S
H134 C166 0.928 . S
O135 Co119 2.057 . S
O135 C123 1.232 . S
H136 C155 0.929 . S
H137 C156 0.929 . S
H138 C168 0.931 . S
H139 C160 0.929 . S
H140 C169 0.930 . S
H141 C161 0.931 . S
O142 Co118 2.097 . S
O142 C170 1.214 . S
H143 C171 0.929 . S
H144 C172 0.929 . S
H145 C173 0.930 . S
H146 C174 0.929 . S
H147 C176 0.930 . S
H148 C153 0.930 . S
H149 C157 0.930 . S
O150 Co119 2.037 . S
O150 C170 1.234 . S
C151 O125 1.269 . S
C151 O126 1.257 . S
C152 H127 0.930 . S
C152 C155 1.388 . S
C152 C157 1.418 . S
C153 H148 0.930 . S
C153 C156 1.404 . S
C153 C157 1.353 . S
N154 Co119 2.145 . S
N154 C155 1.397 . S
N154 C156 1.334 . S
C155 H136 0.929 . S
C155 C152 1.388 . S
C155 N154 1.397 . S
C156 H137 0.929 . S
C156 C153 1.404 . S
C156 N154 1.334 . S
C157 H149 0.930 . S
C157 C152 1.418 . S
C157 C153 1.353 . S
C158 H128 0.930 . S
C158 N159 1.330 . S
C158 C160 1.446 . S
N159 Co118 2.151 . S
N159 C158 1.330 . S
N159 C163 1.418 . S
C160 H139 0.929 . S
C160 C158 1.446 . S
C160 C161 1.332 . S
C161 H141 0.931 . S
C161 C160 1.332 . S
C161 C162 1.267 . S
C162 H130 0.929 . S
C162 C161 1.267 . S
C162 C163 1.251 . S
C163 H133 0.929 . S
C163 N159 1.418 . S
C163 C162 1.251 . S
C164 H131 0.930 . S
C164 C166 1.406 . S
C164 C169 1.261 . S
C165 H132 0.930 . S
C165 N167 1.325 . S
C165 C168 1.357 . S
C166 H134 0.928 . S
C166 C164 1.406 . S
C166 N167 1.261 . S
N167 Co118 2.214 . S
N167 C165 1.325 . S
N167 C166 1.261 . S
C168 H138 0.931 . S
C168 C165 1.357 . S
C168 C169 1.312 . S
C169 H140 0.930 . S
C169 C164 1.261 . S
C169 C168 1.312 . S
C170 O142 1.214 . S
C170 O150 1.234 . S
C171 H143 0.929 . S
C171 C174 1.391 . S
C171 C176 1.391 . S
C172 H144 0.929 . S
C172 C173 1.390 . S
C172 N175 1.391 . S
C173 H145 0.930 . S
C173 C172 1.390 . S
C173 C174 1.392 . S
C174 H146 0.929 . S
C174 C171 1.391 . S
C174 C173 1.392 . S
N175 Co119 2.257 . S
N175 C172 1.391 . S
N175 C176 1.388 . S
C176 H147 0.930 . S
C176 C171 1.391 . S
C176 N175 1.388 . S
Co177 O179 2.143 . S
Co177 O185 2.074 . S
Co177 O188 2.093 . S
Co177 O201 2.097 . S
Co177 N218 2.151 . S
Co177 N226 2.214 1_556 S
Co178 O179 2.160 . S
Co178 O184 2.058 . S
Co178 O194 2.057 . S
Co178 O209 2.037 . S
Co178 N213 2.145 . S
Co178 N234 2.257 . S
O179 Co177 2.143 . S
O179 Co178 2.160 . S
C180 O181 1.278 . S
C180 O188 1.224 . S
O181 C180 1.278 . S
C182 O183 1.245 . S
C182 O194 1.232 . S
O183 C182 1.245 . S
O184 Co178 2.058 . S
O184 C210 1.269 . S
O185 Co177 2.074 . S
O185 C210 1.257 . S
H186 C211 0.930 . S
H187 C217 0.930 . S
O188 Co177 2.093 . S
O188 C180 1.224 . S
H189 C221 0.929 . S
H190 C223 0.930 . S
H191 C224 0.930 . S
H192 C222 0.929 . S
H193 C225 0.928 . S
O194 Co178 2.057 . S
O194 C182 1.232 . S
H195 C214 0.929 . S
H196 C215 0.929 . S
H197 C227 0.931 . S
H198 C219 0.929 . S
H199 C228 0.930 . S
H200 C220 0.931 . S
O201 Co177 2.097 . S
O201 C229 1.214 . S
H202 C230 0.929 . S
H203 C231 0.929 . S
H204 C232 0.930 . S
H205 C233 0.929 . S
H206 C235 0.930 . S
H207 C212 0.930 . S
H208 C216 0.930 . S
O209 Co178 2.037 . S
O209 C229 1.234 . S
C210 O184 1.269 . S
C210 O185 1.257 . S
C211 H186 0.930 . S
C211 C214 1.388 . S
C211 C216 1.418 . S
C212 H207 0.930 . S
C212 C215 1.404 . S
C212 C216 1.353 . S
N213 Co178 2.145 . S
N213 C214 1.397 . S
N213 C215 1.334 . S
C214 H195 0.929 . S
C214 C211 1.388 . S
C214 N213 1.397 . S
C215 H196 0.929 . S
C215 C212 1.404 . S
C215 N213 1.334 . S
C216 H208 0.930 . S
C216 C211 1.418 . S
C216 C212 1.353 . S
C217 H187 0.930 . S
C217 N218 1.330 . S
C217 C219 1.446 . S
N218 Co177 2.151 . S
N218 C217 1.330 . S
N218 C222 1.418 . S
C219 H198 0.929 . S
C219 C217 1.446 . S
C219 C220 1.332 . S
C220 H200 0.931 . S
C220 C219 1.332 . S
C220 C221 1.267 . S
C221 H189 0.929 . S
C221 C220 1.267 . S
C221 C222 1.251 . S
C222 H192 0.929 . S
C222 N218 1.418 . S
C222 C221 1.251 . S
C223 H190 0.930 . S
C223 C225 1.406 . S
C223 C228 1.261 . S
C224 H191 0.930 . S
C224 N226 1.325 . S
C224 C227 1.357 . S
C225 H193 0.928 . S
C225 C223 1.406 . S
C225 N226 1.261 . S
N226 Co177 2.214 1_554 S
N226 C224 1.325 . S
N226 C225 1.261 . S
C227 H197 0.931 . S
C227 C224 1.357 . S
C227 C228 1.312 . S
C228 H199 0.930 . S
C228 C223 1.261 . S
C228 C227 1.312 . S
C229 O201 1.214 . S
C229 O209 1.234 . S
C230 H202 0.929 . S
C230 C233 1.391 . S
C230 C235 1.391 . S
C231 H203 0.929 . S
C231 C232 1.390 . S
C231 N234 1.391 . S
C232 H204 0.930 . S
C232 C231 1.390 . S
C232 C233 1.392 . S
C233 H205 0.929 . S
C233 C230 1.391 . S
C233 C232 1.392 . S
N234 Co178 2.257 . S
N234 C231 1.391 . S
N234 C235 1.388 . S
C235 H206 0.930 . S
C235 C230 1.391 . S
C235 N234 1.388 . S
H236 C242 0.930 . S
H237 C246 0.930 . S
H238 C251 0.929 . S
H239 C249 0.929 . S
H240 C244 0.929 . S
H241 C250 0.929 . S
C242 H236 0.930 . S
C242 C243 1.367 . S
C242 C250 1.378 . S
C243 C242 1.367 . S
C243 C251 1.433 . S
C244 H240 0.929 . S
C244 C246 1.378 . S
C244 C248 1.350 . S
C245 C248 1.463 . S
C245 C250 1.350 . S
C245 N253 1.427 . S
C246 H237 0.930 . S
C246 C244 1.378 . S
C246 C247 1.367 . S
C247 C246 1.367 . S
C247 C249 1.433 . S
C248 C244 1.350 . S
C248 C245 1.463 . S
C248 N252 1.427 . S
C249 H239 0.929 . S
C249 C247 1.433 . S
C249 N252 1.384 . S
C250 H241 0.929 . S
C250 C242 1.378 . S
C250 C245 1.350 . S
C251 H238 0.929 . S
C251 C243 1.433 . S
C251 N253 1.384 . S
N252 C248 1.427 . S
N252 C249 1.384 . S
N253 C245 1.427 . S
N253 C251 1.384 . S
H254 C260 0.930 . S
H255 C264 0.930 . S
H256 C269 0.929 . S
H257 C267 0.929 . S
H258 C262 0.929 . S
H259 C268 0.929 . S
C260 H254 0.930 . S
C260 C261 1.367 . S
C260 C268 1.378 . S
C261 C260 1.367 . S
C261 C269 1.433 . S
C262 H258 0.929 . S
C262 C264 1.378 . S
C262 C266 1.350 . S
C263 C266 1.463 . S
C263 C268 1.350 . S
C263 N271 1.427 . S
C264 H255 0.930 . S
C264 C262 1.378 . S
C264 C265 1.367 . S
C265 C264 1.367 . S
C265 C267 1.433 . S
C266 C262 1.350 . S
C266 C263 1.463 . S
C266 N270 1.427 . S
C267 H257 0.929 . S
C267 C265 1.433 . S
C267 N270 1.384 . S
C268 H259 0.929 . S
C268 C260 1.378 . S
C268 C263 1.350 . S
C269 H256 0.929 . S
C269 C261 1.433 . S
C269 N271 1.384 . S
N270 C266 1.427 . S
N270 C267 1.384 . S
N271 C263 1.427 . S
N271 C269 1.384 . S
H272 C278 0.930 . S
H273 C282 0.930 . S
H274 C287 0.929 . S
H275 C285 0.929 . S
H276 C280 0.929 . S
H277 C286 0.929 . S
C278 H272 0.930 . S
C278 C279 1.367 . S
C278 C286 1.378 . S
C279 C278 1.367 . S
C279 C287 1.433 1_554 S
C280 H276 0.929 . S
C280 C282 1.378 . S
C280 C284 1.350 . S
C281 C284 1.463 . S
C281 C286 1.350 1_556 S
C281 N289 1.427 . S
C282 H273 0.930 . S
C282 C280 1.378 . S
C282 C283 1.367 . S
C283 C282 1.367 . S
C283 C285 1.433 . S
C284 C280 1.350 . S
C284 C281 1.463 . S
C284 N288 1.427 . S
C285 H275 0.929 . S
C285 C283 1.433 . S
C285 N288 1.384 . S
C286 H277 0.929 . S
C286 C278 1.378 . S
C286 C281 1.350 1_554 S
C287 H274 0.929 . S
C287 C279 1.433 1_556 S
C287 N289 1.384 . S
N288 C284 1.427 . S
N288 C285 1.384 . S
N289 C281 1.427 . S
N289 C287 1.384 . S
H290 C296 0.930 . S
H291 C300 0.930 . S
H292 C305 0.929 . S
H293 C303 0.929 . S
H294 C298 0.929 . S
H295 C304 0.929 . S
C296 H290 0.930 . S
C296 C297 1.367 . S
C296 C304 1.378 1_455 S
C297 C296 1.367 . S
C297 C305 1.433 . S
C298 H294 0.929 . S
C298 C300 1.378 . S
C298 C302 1.350 . S
C299 C302 1.463 . S
C299 C304 1.350 . S
C299 N307 1.427 1_655 S
C300 H291 0.930 . S
C300 C298 1.378 . S
C300 C301 1.367 . S
C301 C300 1.367 . S
C301 C303 1.433 . S
C302 C298 1.350 . S
C302 C299 1.463 . S
C302 N306 1.427 . S
C303 H293 0.929 . S
C303 C301 1.433 . S
C303 N306 1.384 . S
C304 H295 0.929 . S
C304 C296 1.378 1_655 S
C304 C299 1.350 . S
C305 H292 0.929 . S
C305 C297 1.433 . S
C305 N307 1.384 . S
N306 C302 1.427 . S
N306 C303 1.384 . S
N307 C299 1.427 1_455 S
N307 C305 1.384 . S
H308 C314 0.930 . S
H309 C318 0.930 . S
H310 C323 0.929 . S
H311 C321 0.929 . S
H312 C316 0.929 1_556 S
H313 C322 0.929 1_554 S
C314 H308 0.930 . S
C314 C315 1.367 . S
C314 C322 1.378 . S
C315 C314 1.367 . S
C315 C323 1.433 . S
C316 H312 0.929 1_554 S
C316 C318 1.378 . S
C316 C320 1.350 . S
C317 C320 1.463 1_546 S
C317 C322 1.350 . S
C317 N325 1.427 . S
C318 H309 0.930 . S
C318 C316 1.378 . S
C318 C319 1.367 . S
C319 C318 1.367 . S
C319 C321 1.433 . S
C320 C316 1.350 . S
C320 C317 1.463 1_564 S
C320 N324 1.427 . S
C321 H311 0.929 . S
C321 C319 1.433 . S
C321 N324 1.384 . S
C322 H313 0.929 1_556 S
C322 C314 1.378 . S
C322 C317 1.350 . S
C323 H310 0.929 . S
C323 C315 1.433 . S
C323 N325 1.384 . S
N324 C320 1.427 . S
N324 C321 1.384 . S
N325 C317 1.427 . S
N325 C323 1.384 . S
H326 C332 0.930 . S
H327 C336 0.930 . S
H328 C341 0.929 . S
H329 C339 0.929 . S
H330 C334 0.929 . S
H331 C340 0.929 . S
C332 H326 0.930 . S
C332 C333 1.367 . S
C332 C340 1.378 . S
C333 C332 1.367 . S
C333 C341 1.433 . S
C334 H330 0.929 . S
C334 C336 1.378 . S
C334 C338 1.350 . S
C335 C338 1.463 . S
C335 C340 1.350 . S
C335 N343 1.427 . S
C336 H327 0.930 . S
C336 C334 1.378 . S
C336 C337 1.367 . S
C337 C336 1.367 . S
C337 C339 1.433 . S
C338 C334 1.350 . S
C338 C335 1.463 . S
C338 N342 1.427 . S
C339 H329 0.929 . S
C339 C337 1.433 . S
C339 N342 1.384 . S
C340 H331 0.929 . S
C340 C332 1.378 . S
C340 C335 1.350 . S
C341 H328 0.929 . S
C341 C333 1.433 . S
C341 N343 1.384 . S
N342 C338 1.427 . S
N342 C339 1.384 . S
N343 C335 1.427 . S
N343 C341 1.384 . S
H344 C350 0.930 . S
H345 C354 0.930 . S
H346 C359 0.929 1_556 S
H347 C357 0.929 . S
H348 C352 0.929 . S
H349 C358 0.929 . S
C350 H344 0.930 . S
C350 C351 1.367 . S
C350 C358 1.378 . S
C351 C350 1.367 . S
C351 C359 1.433 . S
C352 H348 0.929 . S
C352 C354 1.378 . S
C352 C356 1.350 1_556 S
C353 C356 1.463 1_455 S
C353 C358 1.350 . S
C353 N361 1.432 . S
C354 H345 0.930 . S
C354 C352 1.378 . S
C354 C355 1.367 . S
C355 C354 1.367 . S
C355 C357 1.433 1_556 S
C356 C352 1.350 1_554 S
C356 C353 1.463 1_655 S
C356 N360 1.427 . S
C357 H347 0.929 . S
C357 C355 1.433 1_554 S
C357 N360 1.384 . S
C358 H349 0.929 . S
C358 C350 1.378 . S
C358 C353 1.350 . S
C359 H346 0.929 1_554 S
C359 C351 1.433 . S
C359 N361 1.386 . S
N360 C356 1.427 . S
N360 C357 1.384 . S
N361 C353 1.432 . S
N361 C359 1.386 . S
H362 C368 0.930 . S
H363 C372 0.930 . S
H364 C377 0.929 . S
H365 C375 0.929 . S
H366 C370 0.929 . S
H367 C376 0.929 . S
C368 H362 0.930 . S
C368 C369 1.367 . S
C368 C376 1.378 . S
C369 C368 1.367 . S
C369 C377 1.433 . S
C370 H366 0.929 . S
C370 C372 1.378 . S
C370 C374 1.350 . S
C371 C374 1.463 1_545 S
C371 C376 1.350 . S
C371 N379 1.427 . S
C372 H363 0.930 . S
C372 C370 1.378 . S
C372 C373 1.367 . S
C373 C372 1.367 . S
C373 C375 1.433 . S
C374 C370 1.350 . S
C374 C371 1.463 1_565 S
C374 N378 1.427 . S
C375 H365 0.929 . S
C375 C373 1.433 . S
C375 N378 1.384 . S
C376 H367 0.929 . S
C376 C368 1.378 . S
C376 C371 1.350 . S
C377 H364 0.929 . S
C377 C369 1.433 . S
C377 N379 1.384 . S
N378 C374 1.427 . S
N378 C375 1.384 . S
N379 C371 1.427 . S
N379 C377 1.384 . S
C243 C5 1.618 . S
C247 C123 1.615 . S
C261 C64 1.617 . S
C265 C182 1.613 . S
C279 C52 1.723 . S
C283 C210 1.739 . S
C297 C121 1.507 . S
C301 C111 1.497 . S
C315 C180 1.365 . S
C319 C3 1.367 . S
C333 C62 1.503 . S
C337 C170 1.491 . S
C351 C33 1.738 . S
C355 C229 1.722 . S
C369 C92 1.937 . S
C373 C151 1.940 . S
