# Generated by pormake.
# Topology wio, (6)-cn, num edge types: 1
# Building blocks:
#     Node 0, Type 0, BuildingBlock: MIFKUJ_clean_sbu_0, # of connection points: 6
#     Node 1, Type 0, BuildingBlock: MIFKUJ_clean_sbu_0, # of connection points: 6
#     Node 2, Type 0, BuildingBlock: MIFKUJ_clean_sbu_0, # of connection points: 6
#     Node 3, Type 0, BuildingBlock: MIFKUJ_clean_sbu_0, # of connection points: 6
#     Node 4, Type 0, BuildingBlock: MIFKUJ_clean_sbu_0, # of connection points: 6
#     Node 5, Type 0, BuildingBlock: MIFKUJ_clean_sbu_0, # of connection points: 6
#     Node 6, Type 0, BuildingBlock: MIFKUJ_clean_sbu_0, # of connection points: 6
#     Node 7, Type 0, BuildingBlock: MIFKUJ_clean_sbu_0, # of connection points: 6
#     Node 8, Type 0, BuildingBlock: MIFKUJ_clean_sbu_0, # of connection points: 6
#     Node 9, Type 0, BuildingBlock: MIFKUJ_clean_sbu_0, # of connection points: 6
#     Node 10, Type 0, BuildingBlock: MIFKUJ_clean_sbu_0, # of connection points: 6
#     Node 11, Type 0, BuildingBlock: MIFKUJ_clean_sbu_0, # of connection points: 6
#     Node 12, Type 0, BuildingBlock: MIFKUJ_clean_sbu_0, # of connection points: 6
#     Node 13, Type 0, BuildingBlock: MIFKUJ_clean_sbu_0, # of connection points: 6
#     Node 14, Type 0, BuildingBlock: MIFKUJ_clean_sbu_0, # of connection points: 6
#     Node 15, Type 0, BuildingBlock: MIFKUJ_clean_sbu_0, # of connection points: 6
#     Node 16, Type 0, BuildingBlock: MIFKUJ_clean_sbu_0, # of connection points: 6
#     Node 17, Type 0, BuildingBlock: MIFKUJ_clean_sbu_0, # of connection points: 6
#     Node 18, Type 0, BuildingBlock: MIFKUJ_clean_sbu_0, # of connection points: 6
#     Node 19, Type 0, BuildingBlock: MIFKUJ_clean_sbu_0, # of connection points: 6
#     Node 20, Type 0, BuildingBlock: MIFKUJ_clean_sbu_0, # of connection points: 6
#     Node 21, Type 0, BuildingBlock: MIFKUJ_clean_sbu_0, # of connection points: 6
#     Node 22, Type 0, BuildingBlock: MIFKUJ_clean_sbu_0, # of connection points: 6
#     Node 23, Type 0, BuildingBlock: MIFKUJ_clean_sbu_0, # of connection points: 6
#     Node 24, Type 0, BuildingBlock: MIFKUJ_clean_sbu_0, # of connection points: 6
#     Node 25, Type 0, BuildingBlock: MIFKUJ_clean_sbu_0, # of connection points: 6
#     Node 26, Type 0, BuildingBlock: MIFKUJ_clean_sbu_0, # of connection points: 6
#     Node 27, Type 0, BuildingBlock: MIFKUJ_clean_sbu_0, # of connection points: 6
#     Node 28, Type 0, BuildingBlock: MIFKUJ_clean_sbu_0, # of connection points: 6
#     Node 29, Type 0, BuildingBlock: MIFKUJ_clean_sbu_0, # of connection points: 6
#     Node 30, Type 0, BuildingBlock: MIFKUJ_clean_sbu_0, # of connection points: 6
#     Node 31, Type 0, BuildingBlock: MIFKUJ_clean_sbu_0, # of connection points: 6
#     Edge 32, Type (0, 0), BuildingBlock: ZUJKAS_clean_linker_0, # of connection points: 2
#     Edge 33, Type (0, 0), BuildingBlock: ZUJKAS_clean_linker_0, # of connection points: 2
#     Edge 34, Type (0, 0), BuildingBlock: ZUJKAS_clean_linker_0, # of connection points: 2
#     Edge 35, Type (0, 0), BuildingBlock: ZUJKAS_clean_linker_0, # of connection points: 2
#     Edge 36, Type (0, 0), BuildingBlock: ZUJKAS_clean_linker_0, # of connection points: 2
#     Edge 37, Type (0, 0), BuildingBlock: ZUJKAS_clean_linker_0, # of connection points: 2
#     Edge 38, Type (0, 0), BuildingBlock: ZUJKAS_clean_linker_0, # of connection points: 2
#     Edge 39, Type (0, 0), BuildingBlock: ZUJKAS_clean_linker_0, # of connection points: 2
#     Edge 40, Type (0, 0), BuildingBlock: ZUJKAS_clean_linker_0, # of connection points: 2
#     Edge 41, Type (0, 0), BuildingBlock: ZUJKAS_clean_linker_0, # of connection points: 2
#     Edge 42, Type (0, 0), BuildingBlock: ZUJKAS_clean_linker_0, # of connection points: 2
#     Edge 43, Type (0, 0), BuildingBlock: ZUJKAS_clean_linker_0, # of connection points: 2
#     Edge 44, Type (0, 0), BuildingBlock: ZUJKAS_clean_linker_0, # of connection points: 2
#     Edge 45, Type (0, 0), BuildingBlock: ZUJKAS_clean_linker_0, # of connection points: 2
#     Edge 46, Type (0, 0), BuildingBlock: ZUJKAS_clean_linker_0, # of connection points: 2
#     Edge 47, Type (0, 0), BuildingBlock: ZUJKAS_clean_linker_0, # of connection points: 2
#     Edge 48, Type (0, 0), BuildingBlock: ZUJKAS_clean_linker_0, # of connection points: 2
#     Edge 49, Type (0, 0), BuildingBlock: ZUJKAS_clean_linker_0, # of connection points: 2
#     Edge 50, Type (0, 0), BuildingBlock: ZUJKAS_clean_linker_0, # of connection points: 2
#     Edge 51, Type (0, 0), BuildingBlock: ZUJKAS_clean_linker_0, # of connection points: 2
#     Edge 52, Type (0, 0), BuildingBlock: ZUJKAS_clean_linker_0, # of connection points: 2
#     Edge 53, Type (0, 0), BuildingBlock: ZUJKAS_clean_linker_0, # of connection points: 2
#     Edge 54, Type (0, 0), BuildingBlock: ZUJKAS_clean_linker_0, # of connection points: 2
#     Edge 55, Type (0, 0), BuildingBlock: ZUJKAS_clean_linker_0, # of connection points: 2
#     Edge 56, Type (0, 0), BuildingBlock: ZUJKAS_clean_linker_0, # of connection points: 2
#     Edge 57, Type (0, 0), BuildingBlock: ZUJKAS_clean_linker_0, # of connection points: 2
#     Edge 58, Type (0, 0), BuildingBlock: ZUJKAS_clean_linker_0, # of connection points: 2
#     Edge 59, Type (0, 0), BuildingBlock: ZUJKAS_clean_linker_0, # of connection points: 2
#     Edge 60, Type (0, 0), BuildingBlock: ZUJKAS_clean_linker_0, # of connection points: 2
#     Edge 61, Type (0, 0), BuildingBlock: ZUJKAS_clean_linker_0, # of connection points: 2
#     Edge 62, Type (0, 0), BuildingBlock: ZUJKAS_clean_linker_0, # of connection points: 2
#     Edge 63, Type (0, 0), BuildingBlock: ZUJKAS_clean_linker_0, # of connection points: 2
#     Edge 64, Type (0, 0), BuildingBlock: ZUJKAS_clean_linker_0, # of connection points: 2
#     Edge 65, Type (0, 0), BuildingBlock: ZUJKAS_clean_linker_0, # of connection points: 2
#     Edge 66, Type (0, 0), BuildingBlock: ZUJKAS_clean_linker_0, # of connection points: 2
#     Edge 67, Type (0, 0), BuildingBlock: ZUJKAS_clean_linker_0, # of connection points: 2
#     Edge 68, Type (0, 0), BuildingBlock: ZUJKAS_clean_linker_0, # of connection points: 2
#     Edge 69, Type (0, 0), BuildingBlock: ZUJKAS_clean_linker_0, # of connection points: 2
#     Edge 70, Type (0, 0), BuildingBlock: ZUJKAS_clean_linker_0, # of connection points: 2
#     Edge 71, Type (0, 0), BuildingBlock: ZUJKAS_clean_linker_0, # of connection points: 2
#     Edge 72, Type (0, 0), BuildingBlock: ZUJKAS_clean_linker_0, # of connection points: 2
#     Edge 73, Type (0, 0), BuildingBlock: ZUJKAS_clean_linker_0, # of connection points: 2
#     Edge 74, Type (0, 0), BuildingBlock: ZUJKAS_clean_linker_0, # of connection points: 2
#     Edge 75, Type (0, 0), BuildingBlock: ZUJKAS_clean_linker_0, # of connection points: 2
#     Edge 76, Type (0, 0), BuildingBlock: ZUJKAS_clean_linker_0, # of connection points: 2
#     Edge 77, Type (0, 0), BuildingBlock: ZUJKAS_clean_linker_0, # of connection points: 2
#     Edge 78, Type (0, 0), BuildingBlock: ZUJKAS_clean_linker_0, # of connection points: 2
#     Edge 79, Type (0, 0), BuildingBlock: ZUJKAS_clean_linker_0, # of connection points: 2
#     Edge 80, Type (0, 0), BuildingBlock: ZUJKAS_clean_linker_0, # of connection points: 2
#     Edge 81, Type (0, 0), BuildingBlock: ZUJKAS_clean_linker_0, # of connection points: 2
#     Edge 82, Type (0, 0), BuildingBlock: ZUJKAS_clean_linker_0, # of connection points: 2
#     Edge 83, Type (0, 0), BuildingBlock: ZUJKAS_clean_linker_0, # of connection points: 2
#     Edge 84, Type (0, 0), BuildingBlock: ZUJKAS_clean_linker_0, # of connection points: 2
#     Edge 85, Type (0, 0), BuildingBlock: ZUJKAS_clean_linker_0, # of connection points: 2
#     Edge 86, Type (0, 0), BuildingBlock: ZUJKAS_clean_linker_0, # of connection points: 2
#     Edge 87, Type (0, 0), BuildingBlock: ZUJKAS_clean_linker_0, # of connection points: 2
#     Edge 88, Type (0, 0), BuildingBlock: ZUJKAS_clean_linker_0, # of connection points: 2
#     Edge 89, Type (0, 0), BuildingBlock: ZUJKAS_clean_linker_0, # of connection points: 2
#     Edge 90, Type (0, 0), BuildingBlock: ZUJKAS_clean_linker_0, # of connection points: 2
#     Edge 91, Type (0, 0), BuildingBlock: ZUJKAS_clean_linker_0, # of connection points: 2
#     Edge 92, Type (0, 0), BuildingBlock: ZUJKAS_clean_linker_0, # of connection points: 2
#     Edge 93, Type (0, 0), BuildingBlock: ZUJKAS_clean_linker_0, # of connection points: 2
#     Edge 94, Type (0, 0), BuildingBlock: ZUJKAS_clean_linker_0, # of connection points: 2
#     Edge 95, Type (0, 0), BuildingBlock: ZUJKAS_clean_linker_0, # of connection points: 2
#     Edge 96, Type (0, 0), BuildingBlock: ZUJKAS_clean_linker_0, # of connection points: 2
#     Edge 97, Type (0, 0), BuildingBlock: ZUJKAS_clean_linker_0, # of connection points: 2
#     Edge 98, Type (0, 0), BuildingBlock: ZUJKAS_clean_linker_0, # of connection points: 2
#     Edge 99, Type (0, 0), BuildingBlock: ZUJKAS_clean_linker_0, # of connection points: 2
#     Edge 100, Type (0, 0), BuildingBlock: ZUJKAS_clean_linker_0, # of connection points: 2
#     Edge 101, Type (0, 0), BuildingBlock: ZUJKAS_clean_linker_0, # of connection points: 2
#     Edge 102, Type (0, 0), BuildingBlock: ZUJKAS_clean_linker_0, # of connection points: 2
#     Edge 103, Type (0, 0), BuildingBlock: ZUJKAS_clean_linker_0, # of connection points: 2
#     Edge 104, Type (0, 0), BuildingBlock: ZUJKAS_clean_linker_0, # of connection points: 2
#     Edge 105, Type (0, 0), BuildingBlock: ZUJKAS_clean_linker_0, # of connection points: 2
#     Edge 106, Type (0, 0), BuildingBlock: ZUJKAS_clean_linker_0, # of connection points: 2
#     Edge 107, Type (0, 0), BuildingBlock: ZUJKAS_clean_linker_0, # of connection points: 2
#     Edge 108, Type (0, 0), BuildingBlock: ZUJKAS_clean_linker_0, # of connection points: 2
#     Edge 109, Type (0, 0), BuildingBlock: ZUJKAS_clean_linker_0, # of connection points: 2
#     Edge 110, Type (0, 0), BuildingBlock: ZUJKAS_clean_linker_0, # of connection points: 2
#     Edge 111, Type (0, 0), BuildingBlock: ZUJKAS_clean_linker_0, # of connection points: 2
#     Edge 112, Type (0, 0), BuildingBlock: ZUJKAS_clean_linker_0, # of connection points: 2
#     Edge 113, Type (0, 0), BuildingBlock: ZUJKAS_clean_linker_0, # of connection points: 2
#     Edge 114, Type (0, 0), BuildingBlock: ZUJKAS_clean_linker_0, # of connection points: 2
#     Edge 115, Type (0, 0), BuildingBlock: ZUJKAS_clean_linker_0, # of connection points: 2
#     Edge 116, Type (0, 0), BuildingBlock: ZUJKAS_clean_linker_0, # of connection points: 2
#     Edge 117, Type (0, 0), BuildingBlock: ZUJKAS_clean_linker_0, # of connection points: 2
#     Edge 118, Type (0, 0), BuildingBlock: ZUJKAS_clean_linker_0, # of connection points: 2
#     Edge 119, Type (0, 0), BuildingBlock: ZUJKAS_clean_linker_0, # of connection points: 2
#     Edge 120, Type (0, 0), BuildingBlock: ZUJKAS_clean_linker_0, # of connection points: 2
#     Edge 121, Type (0, 0), BuildingBlock: ZUJKAS_clean_linker_0, # of connection points: 2
#     Edge 122, Type (0, 0), BuildingBlock: ZUJKAS_clean_linker_0, # of connection points: 2
#     Edge 123, Type (0, 0), BuildingBlock: ZUJKAS_clean_linker_0, # of connection points: 2
#     Edge 124, Type (0, 0), BuildingBlock: ZUJKAS_clean_linker_0, # of connection points: 2
#     Edge 125, Type (0, 0), BuildingBlock: ZUJKAS_clean_linker_0, # of connection points: 2
#     Edge 126, Type (0, 0), BuildingBlock: ZUJKAS_clean_linker_0, # of connection points: 2
#     Edge 127, Type (0, 0), BuildingBlock: ZUJKAS_clean_linker_0, # of connection points: 2
# Relax obj value: 0.185
# Max RMSD: 0.207
# Mean RMSD: 0.207
data_MOF--net-wio--node1-MIFKUJ_clean_sbu_0--edge1-ZUJKAS_clean_linker_0
_symmetry_space_group_name_H-M    P1
_symmetry_Int_Tables_number       1
_symmetry_cell_setting            triclinic
loop_
_symmetry_equiv_pos_as_xyz
'x, y, z'
_cell_length_a     67.948113
_cell_length_b     67.929806
_cell_length_c     62.718458
_cell_angle_alpha  90.006522
_cell_angle_beta   90.025547
_cell_angle_gamma 90.013491
loop_
_atom_site_label
_atom_site_type_symbol
_atom_site_fract_x
_atom_site_fract_y
_atom_site_fract_z
_atom_type_partial_charge
Zn0 Zn 0.11778 0.11844 0.31974 0.0
Zn1 Zn 0.15684 0.12662 0.27022 0.0
C2 C 0.12104 0.09102 0.35161 0.0
O3 O 0.10643 0.08471 0.3397 0.0
C4 C 0.14327 0.14086 0.23008 0.0
O5 O 0.15454 0.1557 0.23572 0.0
O6 O 0.09032 0.12751 0.32673 0.0
O7 O 0.13467 0.13827 0.30542 0.0
O8 O 0.15476 0.15376 0.28459 0.0
C9 C 0.08668 0.1332 0.34565 0.0
O10 O 0.10128 0.13481 0.35928 0.0
O11 O 0.12976 0.10685 0.34634 0.0
C12 C 0.18765 0.10668 0.24906 0.0
O13 O 0.17245 0.09634 0.24257 0.0
O14 O 0.18484 0.12099 0.26177 0.0
O15 O 0.14706 0.10493 0.29027 0.0
O16 O 0.11684 0.09664 0.29834 0.0
O17 O 0.14109 0.12658 0.24296 0.0
C18 C 0.1431 0.15418 0.30041 0.0
C19 C 0.13203 0.09418 0.2868 0.0
Zn20 Zn 0.12238 0.87034 0.57026 0.0
Zn21 Zn 0.11704 0.91278 0.52275 0.0
C22 C 0.14738 0.86875 0.60475 0.0
O23 O 0.15037 0.85205 0.59469 0.0
C24 C 0.11564 0.88194 0.48855 0.0
O25 O 0.11533 0.86839 0.50349 0.0
O26 O 0.11209 0.84305 0.57561 0.0
O27 O 0.10277 0.88873 0.55689 0.0
O28 O 0.08963 0.9109 0.53623 0.0
C29 C 0.1043 0.83885 0.59346 0.0
O30 O 0.10103 0.85302 0.60725 0.0
O31 O 0.13459 0.88061 0.59738 0.0
C32 C 0.13767 0.94383 0.50315 0.0
O33 O 0.14551 0.92843 0.49375 0.0
O34 O 0.1249 0.94107 0.51768 0.0
O35 O 0.1364 0.89919 0.54243 0.0
O36 O 0.1445 0.86882 0.54922 0.0
O37 O 0.11622 0.90002 0.49372 0.0
C38 C 0.08775 0.89851 0.55133 0.0
C39 C 0.14679 0.8842 0.53797 0.0
Zn40 Zn 0.37403 0.87147 0.82066 0.0
Zn41 Zn 0.33397 0.86548 0.77113 0.0
C42 C 0.37446 0.89707 0.85429 0.0
O43 O 0.39136 0.89977 0.84453 0.0
C44 C 0.35106 0.84961 0.73266 0.0
O45 O 0.34384 0.83309 0.74024 0.0
O46 O 0.40114 0.86118 0.82751 0.0
O47 O 0.35636 0.85204 0.80635 0.0
O48 O 0.33538 0.83814 0.78504 0.0
C49 C 0.40475 0.85472 0.84614 0.0
O50 O 0.39014 0.85273 0.85969 0.0
O51 O 0.36269 0.88416 0.84698 0.0
C52 C 0.30359 0.88614 0.74981 0.0
O53 O 0.31912 0.89556 0.74264 0.0
O54 O 0.30601 0.87233 0.76326 0.0
O55 O 0.34555 0.88574 0.79156 0.0
O56 O 0.376 0.89327 0.79935 0.0
O57 O 0.34935 0.86528 0.74359 0.0
C58 C 0.34727 0.83668 0.80063 0.0
C59 C 0.36089 0.8959 0.78773 0.0
Zn60 Zn 0.36822 0.12238 0.07331 0.0
Zn61 Zn 0.37521 0.08507 0.02182 0.0
C62 C 0.34573 0.1218 0.10997 0.0
O63 O 0.34244 0.13938 0.10199 0.0
C64 C 0.39041 0.10572 0.98492 0.0
O65 O 0.40734 0.09913 0.99209 0.0
O66 O 0.37811 0.14982 0.07933 0.0
O67 O 0.38733 0.10545 0.05784 0.0
O68 O 0.40252 0.08601 0.03607 0.0
C69 C 0.386 0.15381 0.09721 0.0
O70 O 0.38945 0.13942 0.1107 0.0
O71 O 0.35755 0.11036 0.10031 0.0
C72 C 0.35574 0.05566 0.99775 0.0
O73 O 0.34613 0.07136 0.99134 0.0
O74 O 0.36924 0.05761 0.01165 0.0
O75 O 0.35413 0.09398 0.04306 0.0
O76 O 0.34536 0.12354 0.05318 0.0
O77 O 0.37486 0.10236 0.99559 0.0
C78 C 0.40308 0.09689 0.05253 0.0
C79 C 0.34297 0.10889 0.04078 0.0
Zn80 Zn 0.1208 0.87338 0.17651 0.0
Zn81 Zn 0.15899 0.86441 0.22688 0.0
C82 C 0.12322 0.90138 0.1451 0.0
O83 O 0.10876 0.90725 0.15747 0.0
C84 C 0.14289 0.84884 0.26563 0.0
O85 O 0.15268 0.8332 0.25935 0.0
O86 O 0.09336 0.86408 0.17003 0.0
O87 O 0.13767 0.85349 0.19071 0.0
O88 O 0.15732 0.83765 0.21171 0.0
C89 C 0.08923 0.85847 0.15122 0.0
O90 O 0.10344 0.85707 0.1371 0.0
O91 O 0.13223 0.88556 0.14985 0.0
C92 C 0.18877 0.88339 0.25045 0.0
O93 O 0.17323 0.8935 0.25639 0.0
O94 O 0.18666 0.8697 0.2368 0.0
O95 O 0.14981 0.88665 0.20723 0.0
O96 O 0.1197 0.89474 0.19838 0.0
O97 O 0.14247 0.8639 0.25361 0.0
C98 C 0.14597 0.83749 0.19561 0.0
C99 C 0.13454 0.8971 0.2105 0.0
Zn100 Zn 0.36877 0.86477 0.43327 0.0
Zn101 Zn 0.37488 0.90994 0.47576 0.0
C102 C 0.34288 0.86249 0.39941 0.0
O103 O 0.34027 0.84573 0.40949 0.0
C104 C 0.37884 0.87999 0.51018 0.0
O105 O 0.38009 0.86659 0.49514 0.0
O106 O 0.37944 0.83777 0.42732 0.0
O107 O 0.38776 0.88406 0.44482 0.0
O108 O 0.40214 0.90784 0.46164 0.0
C109 C 0.38823 0.83525 0.40963 0.0
O110 O 0.39236 0.85075 0.3979 0.0
O111 O 0.35566 0.87449 0.4065 0.0
C112 C 0.354 0.94106 0.49472 0.0
O113 O 0.34594 0.92566 0.5039 0.0
O114 O 0.36714 0.93829 0.48059 0.0
O115 O 0.35367 0.89594 0.45803 0.0
O116 O 0.34747 0.86443 0.4551 0.0
O117 O 0.37674 0.89798 0.50511 0.0
C118 C 0.4033 0.89361 0.44858 0.0
C119 C 0.34393 0.88089 0.46404 0.0
Zn120 Zn 0.37054 0.11868 0.67395 0.0
Zn121 Zn 0.33543 0.12623 0.72729 0.0
C122 C 0.36758 0.09122 0.64237 0.0
O123 O 0.38321 0.08624 0.65348 0.0
C124 C 0.35666 0.14157 0.76459 0.0
O125 O 0.35351 0.15894 0.75604 0.0
O126 O 0.3972 0.12932 0.6659 0.0
O127 O 0.35403 0.13601 0.69099 0.0
O128 O 0.33709 0.15351 0.71257 0.0
C129 C 0.40033 0.13439 0.64667 0.0
O130 O 0.38555 0.13455 0.63316 0.0
O131 O 0.35788 0.10636 0.64805 0.0
C132 C 0.30338 0.1107 0.75154 0.0
O133 O 0.31809 0.10203 0.76134 0.0
O134 O 0.30704 0.12198 0.73585 0.0
O135 O 0.34407 0.10218 0.70867 0.0
O136 O 0.37367 0.09717 0.69505 0.0
O137 O 0.35111 0.1262 0.75469 0.0
C138 C 0.34722 0.15265 0.69568 0.0
C139 C 0.36034 0.09262 0.70849 0.0
Zn140 Zn 0.12333 0.12703 0.93105 0.0
Zn141 Zn 0.11544 0.08074 0.97221 0.0
C142 C 0.15254 0.12762 0.90023 0.0
O143 O 0.15873 0.1406 0.91426 0.0
C144 C 0.11231 0.11064 0.00716 0.0
O145 O 0.11353 0.12453 0.99266 0.0
O146 O 0.11396 0.15482 0.92695 0.0
O147 O 0.10301 0.10778 0.94036 0.0
O148 O 0.08904 0.08325 0.95667 0.0
C149 C 0.10616 0.15914 0.90913 0.0
O150 O 0.1023 0.1449 0.89557 0.0
O151 O 0.13641 0.11871 0.90369 0.0
C152 C 0.13545 0.0497 0.9921 0.0
O153 O 0.14355 0.06524 0.00097 0.0
O154 O 0.12262 0.05229 0.97757 0.0
O155 O 0.13721 0.09438 0.95538 0.0
O156 O 0.14397 0.1258 0.95364 0.0
O157 O 0.11263 0.09268 0.00152 0.0
C158 C 0.08778 0.09749 0.94358 0.0
C159 C 0.14692 0.10911 0.96224 0.0
Zn160 Zn 0.83403 0.86404 0.72742 0.0
Zn161 Zn 0.87465 0.87431 0.67893 0.0
C162 C 0.84232 0.85045 0.7696 0.0
O163 O 0.82835 0.83789 0.76459 0.0
C164 C 0.87303 0.90216 0.64748 0.0
O165 O 0.88989 0.90524 0.6572 0.0
O166 O 0.80544 0.86981 0.73337 0.0
O167 O 0.84727 0.88475 0.70937 0.0
O168 O 0.8769 0.8947 0.70189 0.0
C169 C 0.79559 0.88489 0.72784 0.0
O170 O 0.80377 0.89826 0.71557 0.0
O171 O 0.84779 0.863 0.7558 0.0
C172 C 0.90335 0.85801 0.6513 0.0
O173 O 0.88753 0.85491 0.63972 0.0
O174 O 0.90142 0.86511 0.66993 0.0
O175 O 0.8581 0.8529 0.69168 0.0
O176 O 0.83721 0.83748 0.71208 0.0
O177 O 0.86216 0.88814 0.65395 0.0
C178 C 0.86214 0.89518 0.71431 0.0
C179 C 0.84957 0.83703 0.69681 0.0
Zn180 Zn 0.87416 0.08537 0.47741 0.0
Zn181 Zn 0.86707 0.12262 0.4261 0.0
C182 C 0.89042 0.10113 0.51605 0.0
O183 O 0.90601 0.09159 0.50921 0.0
C184 C 0.83922 0.12046 0.39468 0.0
O185 O 0.83603 0.13738 0.40425 0.0
O186 O 0.86748 0.05783 0.48677 0.0
O187 O 0.85267 0.09575 0.45737 0.0
O188 O 0.84604 0.12608 0.44805 0.0
C189 C 0.85348 0.05605 0.50008 0.0
O190 O 0.84392 0.07188 0.50616 0.0
O191 O 0.87508 0.10152 0.50444 0.0
C192 C 0.88275 0.15127 0.39749 0.0
O193 O 0.88273 0.13593 0.38472 0.0
O194 O 0.87775 0.14896 0.41687 0.0
O195 O 0.8863 0.10552 0.44097 0.0
O196 O 0.90121 0.08583 0.46269 0.0
O197 O 0.85339 0.10979 0.40118 0.0
C198 C 0.84288 0.11151 0.46034 0.0
C199 C 0.90195 0.09679 0.4463 0.0
Zn200 Zn 0.65905 0.12567 0.22223 0.0
Zn201 Zn 0.61866 0.12015 0.17413 0.0
C202 C 0.64588 0.13928 0.2626 0.0
O203 O 0.65919 0.15275 0.25833 0.0
C204 C 0.61734 0.09527 0.13986 0.0
O205 O 0.60205 0.0904 0.15156 0.0
O206 O 0.6864 0.11886 0.23213 0.0
O207 O 0.64911 0.10421 0.20182 0.0
O208 O 0.61829 0.09746 0.19436 0.0
C209 C 0.68791 0.10416 0.24458 0.0
O210 O 0.67198 0.0942 0.24951 0.0
O211 O 0.64231 0.1261 0.24874 0.0
C212 C 0.58638 0.13799 0.15225 0.0
O213 O 0.60014 0.14103 0.13794 0.0
O214 O 0.59112 0.13042 0.17007 0.0
O215 O 0.63718 0.13849 0.18814 0.0
O216 O 0.65853 0.15305 0.20818 0.0
O217 O 0.62832 0.10927 0.14618 0.0
C218 C 0.63377 0.09385 0.20513 0.0
C219 C 0.64653 0.15398 0.1927 0.0
Zn220 Zn 0.61869 0.91049 0.9726 0.0
Zn221 Zn 0.62784 0.8745 0.91941 0.0
C222 C 0.6043 0.89609 0.01252 0.0
O223 O 0.58964 0.9078 0.00744 0.0
C224 C 0.65575 0.8797 0.88825 0.0
O225 O 0.66172 0.86422 0.89902 0.0
O226 O 0.625 0.9385 0.98095 0.0
O227 O 0.63882 0.89998 0.95194 0.0
O228 O 0.64938 0.87146 0.94115 0.0
C229 C 0.63589 0.9411 0.99721 0.0
O230 O 0.64297 0.92567 0.00722 0.0
O231 O 0.61843 0.89404 -0.00057 0.0
C232 C 0.61298 0.84484 0.89131 0.0
O233 O 0.61161 0.85992 0.87827 0.0
O234 O 0.61872 0.8477 0.91034 0.0
O235 O 0.60669 0.8898 0.93458 0.0
O236 O 0.59176 0.90838 0.95783 0.0
O237 O 0.63992 0.88818 0.89397 0.0
C238 C 0.65 0.88524 0.9548 0.0
C239 C 0.59093 0.89772 0.94112 0.0
Zn240 Zn 0.82933 0.1238 0.77328 0.0
Zn241 Zn 0.87395 0.11488 0.81184 0.0
C242 C 0.85947 0.12703 0.73894 0.0
O243 O 0.87285 0.12835 0.75401 0.0
C244 C 0.87483 0.08628 0.84322 0.0
O245 O 0.89052 0.08243 0.83169 0.0
O246 O 0.8006 0.11911 0.76727 0.0
O247 O 0.83963 0.09961 0.78955 0.0
O248 O 0.87171 0.09571 0.78816 0.0
C249 C 0.79632 0.10281 0.75842 0.0
O250 O 0.81043 0.08998 0.75503 0.0
O251 O 0.84147 0.1251 0.74399 0.0
C252 C 0.90546 0.12985 0.83609 0.0
O253 O 0.89058 0.13367 0.8488 0.0
O254 O 0.90206 0.12231 0.8179 0.0
O255 O 0.85748 0.13774 0.80504 0.0
O256 O 0.83276 0.15046 0.78787 0.0
O257 O 0.86398 0.1007 0.83788 0.0
C258 C 0.85454 0.08978 0.78328 0.0
C259 C 0.84697 0.15255 0.80078 0.0
Zn260 Zn 0.61663 0.08592 0.52148 0.0
Zn261 Zn 0.62218 0.12389 0.57327 0.0
C262 C 0.60343 0.10069 0.48122 0.0
O263 O 0.58768 0.09062 0.48659 0.0
C264 C 0.64686 0.12214 0.60762 0.0
O265 O 0.65092 0.13894 0.5982 0.0
O266 O 0.62295 0.05784 0.51367 0.0
O267 O 0.63636 0.0967 0.54293 0.0
O268 O 0.64473 0.12634 0.55292 0.0
C269 C 0.6365 0.05487 0.50006 0.0
O270 O 0.64618 0.07002 0.49236 0.0
O271 O 0.61774 0.10163 0.49424 0.0
C272 C 0.60539 0.15413 0.59935 0.0
O273 O 0.60303 0.13925 0.61248 0.0
O274 O 0.61219 0.15089 0.58079 0.0
O275 O 0.60282 0.10735 0.55729 0.0
O276 O 0.58888 0.0878 0.53446 0.0
O277 O 0.63347 0.11129 0.59968 0.0
C278 C 0.64703 0.11191 0.54026 0.0
C279 C 0.58737 0.09894 0.55069 0.0
Zn280 Zn 0.65489 0.86977 0.27232 0.0
Zn281 Zn 0.61621 0.87539 0.32361 0.0
C282 C 0.64039 0.85598 0.23231 0.0
O283 O 0.65154 0.84094 0.23758 0.0
C284 C 0.61564 0.89481 0.36285 0.0
O285 O 0.5974 0.89689 0.35628 0.0
O286 O 0.68277 0.87693 0.26428 0.0
O287 O 0.64386 0.88863 0.29416 0.0
O288 O 0.61515 0.89915 0.30439 0.0
C289 C 0.68523 0.88828 0.24836 0.0
O290 O 0.6697 0.89541 0.23855 0.0
O291 O 0.63858 0.87015 0.2454 0.0
C292 C 0.58485 0.85403 0.34398 0.0
O293 O 0.59935 0.84746 0.35585 0.0
O294 O 0.58874 0.86532 0.32839 0.0
O295 O 0.63334 0.8557 0.30839 0.0
O296 O 0.65351 0.84219 0.28567 0.0
O297 O 0.62759 0.885 0.35142 0.0
C298 C 0.6297 0.90062 0.29178 0.0
C299 C 0.64247 0.84056 0.30199 0.0
Zn300 Zn 0.87539 0.91047 0.02599 0.0
Zn301 Zn 0.86809 0.87074 0.0737 0.0
C302 C 0.88732 0.89893 0.98458 0.0
O303 O 0.89812 0.91481 0.98715 0.0
C304 C 0.84014 0.8713 0.10511 0.0
O305 O 0.83541 0.85622 0.09302 0.0
O306 O 0.86966 0.93776 0.01515 0.0
O307 O 0.85277 0.90118 0.04527 0.0
O308 O 0.84689 0.86995 0.05181 0.0
C309 C 0.85515 0.93976 0.00253 0.0
O310 O 0.8441 0.92437 0.99834 0.0
O311 O 0.87647 0.89322 -0.00012 0.0
C312 C 0.8834 0.83942 0.09885 0.0
O313 O 0.88447 0.85374 0.11287 0.0
O314 O 0.87787 0.84335 0.07995 0.0
O315 O 0.8875 0.88872 0.06079 0.0
O316 O 0.90226 0.91002 0.0409 0.0
O317 O 0.85523 0.88141 0.10022 0.0
C318 C 0.84288 0.88559 0.04151 0.0
C319 C 0.90305 0.89803 0.05638 0.0
Zn320 Zn 0.61947 0.62003 0.82112 0.0
Zn321 Zn 0.66085 0.62499 0.77413 0.0
C322 C 0.61994 0.59391 0.85428 0.0
O323 O 0.60521 0.58828 0.84213 0.0
C324 C 0.64757 0.63807 0.73355 0.0
O325 O 0.65962 0.65253 0.7384 0.0
O326 O 0.59169 0.62915 0.82599 0.0
O327 O 0.63722 0.63958 0.80758 0.0
O328 O 0.65925 0.65264 0.78698 0.0
C329 C 0.58714 0.63603 0.84419 0.0
O330 O 0.60116 0.63924 0.85819 0.0
O331 O 0.62981 0.60898 0.84878 0.0
C332 C 0.69116 0.60392 0.75322 0.0
O333 O 0.67576 0.59353 0.74739 0.0
O334 O 0.68867 0.61854 0.7656 0.0
O335 O 0.65061 0.60431 0.79496 0.0
O336 O 0.61956 0.59753 0.80073 0.0
O337 O 0.64488 0.62437 0.74704 0.0
C338 C 0.64664 0.65469 0.80176 0.0
C339 C 0.63554 0.59376 0.79102 0.0
Zn340 Zn 0.6218 0.3689 0.06846 0.0
Zn341 Zn 0.6155 0.41162 0.02194 0.0
C342 C 0.64862 0.3673 0.10127 0.0
O343 O 0.65129 0.35072 0.09086 0.0
C344 C 0.61179 0.38077 0.98818 0.0
O345 O 0.6113 0.36751 0.00342 0.0
O346 O 0.61094 0.3419 0.07484 0.0
O347 O 0.60274 0.38796 0.05593 0.0
O348 O 0.58855 0.4104 0.03677 0.0
C349 C 0.60508 0.33807 0.09364 0.0
O350 O 0.60407 0.35241 0.10764 0.0
O351 O 0.63544 0.37913 0.09473 0.0
C352 C 0.63591 0.44241 0.00153 0.0
O353 O 0.6434 0.42695 0.99193 0.0
O354 O 0.62345 0.43978 0.0164 0.0
O355 O 0.63626 0.39802 0.04032 0.0
O356 O 0.64284 0.36704 0.04625 0.0
O357 O 0.6133 0.39888 0.99297 0.0
C358 C 0.58747 0.39786 0.05177 0.0
C359 C 0.64577 0.38255 0.03533 0.0
Zn360 Zn 0.8717 0.37126 0.32336 0.0
Zn361 Zn 0.83371 0.36698 0.27183 0.0
C362 C 0.87245 0.39299 0.36024 0.0
O363 O 0.88971 0.39607 0.35138 0.0
C364 C 0.85818 0.35426 0.23581 0.0
O365 O 0.85757 0.33686 0.24492 0.0
O366 O 0.89895 0.36069 0.32817 0.0
O367 O 0.85457 0.35308 0.30694 0.0
O368 O 0.83513 0.33897 0.28431 0.0
C369 C 0.90322 0.35159 0.34526 0.0
O370 O 0.88907 0.34726 0.35873 0.0
O371 O 0.86048 0.38133 0.35108 0.0
C372 C 0.80335 0.38725 0.24999 0.0
O373 O 0.81867 0.39761 0.2439 0.0
O374 O 0.8059 0.37311 0.26299 0.0
O375 O 0.84342 0.38695 0.29391 0.0
O376 O 0.8732 0.39477 0.30421 0.0
O377 O 0.84998 0.36881 0.24495 0.0
C378 C 0.84612 0.3376 0.30063 0.0
C379 C 0.85861 0.39778 0.29191 0.0
Zn380 Zn 0.86856 0.62119 0.57373 0.0
Zn381 Zn 0.87241 0.5823 0.52246 0.0
C382 C 0.84846 0.6214 0.61205 0.0
O383 O 0.84554 0.63921 0.60449 0.0
C384 C 0.88432 0.60606 0.48568 0.0
O385 O 0.90169 0.60612 0.49487 0.0
O386 O 0.8783 0.64882 0.57838 0.0
O387 O 0.88698 0.60426 0.55712 0.0
O388 O 0.90062 0.58455 0.53429 0.0
C389 C 0.88883 0.65332 0.59441 0.0
O390 O 0.89536 0.63923 0.60688 0.0
O391 O 0.85929 0.60961 0.60156 0.0
C392 C 0.85189 0.55098 0.50237 0.0
O393 O 0.84131 0.56601 0.49588 0.0
O394 O 0.86629 0.55409 0.5149 0.0
O395 O 0.85319 0.59261 0.54486 0.0
O396 O 0.8447 0.62219 0.55509 0.0
O397 O 0.86995 0.59774 0.49503 0.0
C398 C 0.90233 0.59583 0.55038 0.0
C399 C 0.84201 0.60753 0.54282 0.0
Zn400 Zn 0.61735 0.37732 0.67741 0.0
Zn401 Zn 0.65667 0.36815 0.72776 0.0
C402 C 0.61827 0.4034 0.64413 0.0
O403 O 0.603 0.40867 0.65566 0.0
C404 C 0.64052 0.35162 0.76607 0.0
O405 O 0.65007 0.33608 0.75913 0.0
O406 O 0.58962 0.36843 0.67158 0.0
O407 O 0.634 0.35589 0.69073 0.0
O408 O 0.65459 0.34156 0.71257 0.0
C409 C 0.58531 0.36133 0.65341 0.0
O410 O 0.59944 0.35848 0.63945 0.0
O411 O 0.62841 0.38869 0.6502 0.0
C412 C 0.68726 0.3849 0.75279 0.0
O413 O 0.67178 0.3912 0.76329 0.0
O414 O 0.68473 0.37469 0.73599 0.0
O415 O 0.6455 0.38796 0.70729 0.0
O416 O 0.61682 0.39959 0.69863 0.0
O417 O 0.64041 0.36714 0.75475 0.0
C418 C 0.64301 0.34046 0.6966 0.0
C419 C 0.63162 0.39997 0.71097 0.0
Zn420 Zn 0.86773 0.36508 0.92851 0.0
Zn421 Zn 0.87442 0.40643 0.97567 0.0
C422 C 0.84147 0.3655 0.89537 0.0
O423 O 0.83693 0.34973 0.90649 0.0
C424 C 0.89032 0.38761 0.01384 0.0
O425 O 0.90742 0.39225 0.00547 0.0
O426 O 0.87787 0.33815 0.92147 0.0
O427 O 0.8872 0.38279 0.94215 0.0
O428 O 0.90188 0.40448 0.96179 0.0
C429 C 0.88597 0.33616 0.90333 0.0
O430 O 0.88944 0.35195 0.89182 0.0
O431 O 0.85566 0.37621 0.90173 0.0
C432 C 0.85524 0.43721 0.99784 0.0
O433 O 0.84735 0.42177 0.0071 0.0
O434 O 0.86752 0.43459 0.9828 0.0
O435 O 0.85341 0.39469 0.95607 0.0
O436 O 0.84596 0.36391 0.94979 0.0
O437 O 0.87465 0.39149 0.00357 0.0
C438 C 0.90294 0.3914 0.94736 0.0
C439 C 0.84311 0.37956 0.96051 0.0
Zn440 Zn 0.8729 0.61694 0.1745 0.0
Zn441 Zn 0.83349 0.6241 0.22455 0.0
C442 C 0.87171 0.59055 0.14174 0.0
O443 O 0.88712 0.58562 0.15323 0.0
C444 C 0.85209 0.63873 0.2631 0.0
O445 O 0.84704 0.65594 0.25527 0.0
O446 O 0.90032 0.62636 0.16799 0.0
O447 O 0.856 0.63685 0.189 0.0
O448 O 0.83581 0.65139 0.21068 0.0
C449 C 0.90406 0.63298 0.14947 0.0
O450 O 0.88951 0.63537 0.13591 0.0
O451 O 0.86146 0.60525 0.14764 0.0
C452 C 0.80181 0.60438 0.24485 0.0
O453 O 0.81662 0.5938 0.2519 0.0
O454 O 0.80523 0.61852 0.23209 0.0
O455 O 0.84398 0.60333 0.20397 0.0
O456 O 0.87405 0.59489 0.1956 0.0
O457 O 0.84861 0.62327 0.25228 0.0
C458 C 0.84732 0.65244 0.19473 0.0
C459 C 0.85901 0.59259 0.2074 0.0
Zn460 Zn 0.62395 0.62377 0.42181 0.0
Zn461 Zn 0.61997 0.58578 0.47442 0.0
C462 C 0.6424 0.62344 0.382 0.0
O463 O 0.64478 0.64181 0.38803 0.0
C464 C 0.60657 0.60096 0.51421 0.0
O465 O 0.59126 0.59016 0.50901 0.0
O466 O 0.61402 0.65129 0.4167 0.0
O467 O 0.60465 0.60697 0.43811 0.0
O468 O 0.59211 0.58708 0.46184 0.0
C469 C 0.60331 0.65551 0.40072 0.0
O470 O 0.5968 0.64121 0.38852 0.0
O471 O 0.63289 0.61176 0.39404 0.0
C472 C 0.63871 0.55554 0.49852 0.0
O473 O 0.64586 0.57114 0.50818 0.0
O474 O 0.62738 0.55789 0.48255 0.0
O475 O 0.63788 0.59693 0.45184 0.0
O476 O 0.64811 0.62533 0.44035 0.0
O477 O 0.62082 0.60229 0.50115 0.0
C478 C 0.58981 0.59793 0.44544 0.0
C479 C 0.6498 0.61123 0.45351 0.0
Zn480 Zn 0.33235 0.36736 0.22439 0.0
Zn481 Zn 0.37255 0.37388 0.17637 0.0
C482 C 0.34108 0.35558 0.26664 0.0
O483 O 0.32503 0.34529 0.26305 0.0
C484 C 0.37144 0.4019 0.14496 0.0
O485 O 0.38662 0.4068 0.15682 0.0
O486 O 0.30456 0.37411 0.23263 0.0
O487 O 0.34322 0.38914 0.20502 0.0
O488 O 0.37425 0.39517 0.19818 0.0
C489 C 0.30217 0.38873 0.24502 0.0
O490 O 0.31767 0.39881 0.25115 0.0
O491 O 0.34795 0.36625 0.25174 0.0
C492 C 0.40324 0.35798 0.15076 0.0
O493 O 0.38874 0.35698 0.13694 0.0
O494 O 0.39959 0.36363 0.16968 0.0
O495 O 0.3545 0.35475 0.18983 0.0
O496 O 0.33326 0.34019 0.21001 0.0
O497 O 0.36154 0.38672 0.15001 0.0
C498 C 0.35885 0.39887 0.20898 0.0
C499 C 0.34528 0.33922 0.19456 0.0
Zn500 Zn 0.37427 0.58205 0.9717 0.0
Zn501 Zn 0.36836 0.62027 0.92082 0.0
C502 C 0.38882 0.59302 0.01231 0.0
O503 O 0.40086 0.57856 0.0075 0.0
C504 C 0.34285 0.62072 0.88702 0.0
O505 O 0.34046 0.63786 0.8964 0.0
O506 O 0.36653 0.5546 0.98055 0.0
O507 O 0.35361 0.59338 0.95148 0.0
O508 O 0.3466 0.62353 0.94209 0.0
C509 C 0.35456 0.55286 0.99603 0.0
O510 O 0.34725 0.56883 0.00478 0.0
O511 O 0.37602 0.59826 -0.00136 0.0
C512 C 0.3864 0.6498 0.8948 0.0
O513 O 0.38756 0.63499 0.8814 0.0
O514 O 0.37983 0.64673 0.91348 0.0
O515 O 0.38702 0.60224 0.93558 0.0
O516 O 0.40137 0.58183 0.95702 0.0
O517 O 0.35546 0.60882 0.89467 0.0
C518 C 0.34372 0.60904 0.95455 0.0
C519 C 0.40238 0.59293 0.94074 0.0
Zn520 Zn 0.15602 0.6251 0.72208 0.0
Zn521 Zn 0.11388 0.6191 0.67584 0.0
C522 C 0.14924 0.6366 0.76506 0.0
O523 O 0.16563 0.64629 0.76136 0.0
C524 C 0.11347 0.59212 0.6431 0.0
O525 O 0.09618 0.58999 0.6522 0.0
O526 O 0.18386 0.61711 0.72903 0.0
O527 O 0.14245 0.60462 0.70336 0.0
O528 O 0.11118 0.59848 0.69835 0.0
C529 C 0.18599 0.60313 0.74233 0.0
O530 O 0.17024 0.59421 0.74966 0.0
O531 O 0.14155 0.62667 0.75004 0.0
C532 C 0.08618 0.63802 0.64912 0.0
O533 O 0.10214 0.64032 0.63756 0.0
O534 O 0.08771 0.63041 0.66756 0.0
O535 O 0.13249 0.63837 0.6885 0.0
O536 O 0.15514 0.65228 0.70762 0.0
O537 O 0.12518 0.60506 0.65041 0.0
C538 C 0.12688 0.59553 0.70893 0.0
C539 C 0.14211 0.65368 0.69316 0.0
Zn540 Zn 0.11539 0.40864 0.47101 0.0
Zn541 Zn 0.12123 0.37021 0.42183 0.0
C542 C 0.10179 0.39356 0.51043 0.0
O543 O 0.08767 0.40613 0.506 0.0
C544 C 0.14564 0.3701 0.38712 0.0
O545 O 0.14934 0.35342 0.39694 0.0
O546 O 0.12142 0.43577 0.48189 0.0
O547 O 0.13709 0.40012 0.45009 0.0
O548 O 0.144 0.36946 0.44193 0.0
C549 C 0.13589 0.4376 0.49461 0.0
O550 O 0.14655 0.42203 0.49917 0.0
O551 O 0.11553 0.3911 0.49694 0.0
C552 C 0.1038 0.33862 0.39833 0.0
O553 O 0.10164 0.35268 0.38416 0.0
O554 O 0.11092 0.34285 0.41652 0.0
O555 O 0.1028 0.3879 0.43666 0.0
O556 O 0.08785 0.40822 0.45743 0.0
O557 O 0.1324 0.38134 0.39468 0.0
C558 C 0.14785 0.38492 0.45265 0.0
C559 C 0.08709 0.39664 0.4416 0.0
Zn560 Zn 0.33643 0.62521 0.27207 0.0
Zn561 Zn 0.37003 0.61687 0.32807 0.0
C562 C 0.34647 0.6357 0.22999 0.0
O563 O 0.33139 0.64735 0.23357 0.0
C564 C 0.34304 0.59411 0.35427 0.0
O565 O 0.33698 0.58719 0.33585 0.0
O566 O 0.30828 0.61913 0.2641 0.0
O567 O 0.34685 0.60596 0.29385 0.0
O568 O 0.37271 0.59322 0.3087 0.0
C569 C 0.30557 0.60563 0.25035 0.0
O570 O 0.3209 0.59614 0.24281 0.0
O571 O 0.35243 0.62457 0.24496 0.0
C572 C 0.40001 0.63174 0.35574 0.0
O573 O 0.38494 0.63368 0.36868 0.0
O574 O 0.39708 0.62564 0.33684 0.0
O575 O 0.35595 0.63758 0.31067 0.0
O576 O 0.33909 0.65263 0.286 0.0
O577 O 0.35565 0.60793 0.3545 0.0
C578 C 0.36038 0.59309 0.29347 0.0
C579 C 0.34901 0.65348 0.30327 0.0
Zn580 Zn 0.11935 0.58245 0.02354 0.0
Zn581 Zn 0.1237 0.6229 0.07279 0.0
C582 C 0.10623 0.5931 0.98223 0.0
O583 O 0.09317 0.57955 0.98707 0.0
C584 C 0.14775 0.62421 0.10799 0.0
O585 O 0.15052 0.64126 0.09855 0.0
O586 O 0.1265 0.55445 0.01621 0.0
O587 O 0.13944 0.59431 0.04418 0.0
O588 O 0.14619 0.62491 0.05231 0.0
C589 C 0.14042 0.55145 0.00306 0.0
O590 O 0.15004 0.56661 0.99528 0.0
O591 O 0.11917 0.59769 0.996 0.0
C592 C 0.10476 0.65369 0.09633 0.0
O593 O 0.10234 0.63933 0.1101 0.0
O594 O 0.11247 0.64986 0.07833 0.0
O595 O 0.10541 0.60455 0.05802 0.0
O596 O 0.0917 0.58342 0.03687 0.0
O597 O 0.13546 0.61222 0.09991 0.0
C598 C 0.14944 0.60986 0.04074 0.0
C599 C 0.09018 0.59516 0.05256 0.0
Zn600 Zn 0.14928 0.36777 0.77044 0.0
Zn601 Zn 0.11935 0.37329 0.83049 0.0
C602 C 0.14379 0.35297 0.72815 0.0
O603 O 0.16054 0.3443 0.73279 0.0
C604 C 0.12148 0.38942 0.87112 0.0
O605 O 0.10291 0.3919 0.86591 0.0
O606 O 0.17649 0.37797 0.76369 0.0
O607 O 0.13384 0.38834 0.78779 0.0
O608 O 0.11637 0.39906 0.81503 0.0
C609 C 0.17828 0.38986 0.74813 0.0
O610 O 0.1624 0.39566 0.73797 0.0
O611 O 0.13547 0.36349 0.7423 0.0
C612 C 0.08808 0.35111 0.85131 0.0
O613 O 0.10228 0.34504 0.86391 0.0
O614 O 0.09226 0.36216 0.8356 0.0
O615 O 0.1354 0.35756 0.8103 0.0
O616 O 0.15101 0.34125 0.78617 0.0
O617 O 0.13271 0.38032 0.85823 0.0
C618 C 0.12467 0.40226 0.79714 0.0
C619 C 0.14276 0.34143 0.80432 0.0
Zn620 Zn 0.37264 0.40695 0.5234 0.0
Zn621 Zn 0.35912 0.3697 0.57419 0.0
C622 C 0.38776 0.39364 0.48375 0.0
O623 O 0.40099 0.407 0.48865 0.0
C624 C 0.33114 0.37355 0.60517 0.0
O625 O 0.32547 0.35846 0.59357 0.0
O626 O 0.36718 0.43494 0.5139 0.0
O627 O 0.35153 0.39723 0.54294 0.0
O628 O 0.33829 0.36927 0.55145 0.0
C629 C 0.35595 0.43684 0.49777 0.0
O630 O 0.34874 0.42095 0.48875 0.0
O631 O 0.37408 0.39001 0.49701 0.0
C632 C 0.38011 0.33108 0.58134 0.0
O633 O 0.39628 0.33805 0.57271 0.0
O634 O 0.36487 0.34183 0.58257 0.0
O635 O 0.38263 0.38458 0.56246 0.0
O636 O 0.39821 0.40409 0.54023 0.0
O637 O 0.3469 0.38247 0.6 0.0
C638 C 0.33924 0.38373 0.53875 0.0
C639 C 0.39844 0.39308 0.55674 0.0
H640 H 0.19973 0.07391 0.22762 0.0
H641 H 0.23111 0.06886 0.20938 0.0
H642 H 0.251 0.12577 0.2311 0.0
H643 H 0.21996 0.13061 0.24993 0.0
H644 H 0.24348 0.08994 0.17731 0.0
H645 H 0.30005 0.09458 0.24016 0.0
H646 H 0.27429 0.09128 0.24624 0.0
H647 H 0.28409 0.11554 0.24137 0.0
C648 C 0.21096 0.08518 0.22886 0.0
C649 C 0.20737 0.1027 0.24013 0.0
C650 C 0.2289 0.08224 0.21847 0.0
C651 C 0.24357 0.0968 0.21909 0.0
C652 C 0.2402 0.11406 0.23089 0.0
H653 H 0.32748 0.14503 0.139 0.0
H654 H 0.30511 0.13481 0.16735 0.0
C655 C 0.22235 0.1169 0.2415 0.0
C656 C 0.26121 0.09518 0.20525 0.0
H657 H 0.31082 0.10331 0.20424 0.0
C658 C 0.25827 0.09231 0.1833 0.0
C659 C 0.28055 0.09819 0.21303 0.0
C660 C 0.28494 0.09985 0.23653 0.0
C661 C 0.27389 0.09375 0.16881 0.0
C662 C 0.29292 0.09817 0.17647 0.0
C663 C 0.29614 0.09997 0.19847 0.0
C664 C 0.30882 0.10365 0.1616 0.0
C665 C 0.2698 0.09179 0.14524 0.0
C666 C 0.31868 0.08941 0.14942 0.0
C667 C 0.33161 0.09521 0.1332 0.0
C668 C 0.33457 0.11531 0.12888 0.0
C669 C 0.32535 0.12944 0.14183 0.0
C670 C 0.31265 0.12365 0.1581 0.0
H671 H 0.25401 0.08892 0.14184 0.0
H672 H 0.27429 0.10547 0.13685 0.0
H673 H 0.27864 0.0795 0.13858 0.0
H674 H 0.31581 0.0739 0.15194 0.0
H675 H 0.33852 0.08403 0.12344 0.0
H676 H 0.14317 0.10346 0.38585 0.0
H677 H 0.14982 0.08504 0.41884 0.0
H678 H 0.11804 0.03523 0.39356 0.0
H679 H 0.11101 0.05351 0.36113 0.0
H680 H 0.10638 0.04535 0.43399 0.0
H681 H 0.18799 0.03919 0.42885 0.0
H682 H 0.17748 0.06347 0.4277 0.0
H683 H 0.17316 0.04647 0.40631 0.0
C684 C 0.13778 0.08852 0.38733 0.0
C685 C 0.12651 0.07993 0.37096 0.0
C686 C 0.14163 0.07802 0.40613 0.0
C687 C 0.13447 0.05875 0.4086 0.0
C688 C 0.12361 0.05012 0.39204 0.0
H689 H 0.15753 0.95311 0.4669 0.0
H690 H 0.15869 0.9848 0.44902 0.0
C691 C 0.11962 0.06059 0.37349 0.0
C692 C 0.13754 0.04732 0.42844 0.0
H693 H 0.17222 0.02123 0.45581 0.0
C694 C 0.12079 0.04031 0.43908 0.0
C695 C 0.15637 0.0409 0.43498 0.0
C696 C 0.17483 0.04774 0.42387 0.0
C697 C 0.12217 0.0258 0.45489 0.0
C698 C 0.14098 0.01863 0.4608 0.0
C699 C 0.15785 0.02679 0.4513 0.0
C700 C 0.14316 0.00055 0.47387 0.0
C701 C 0.10337 0.01719 0.46374 0.0
C702 C 0.13477 -0.00105 0.49428 0.0
C703 C 0.13369 0.98061 0.50442 0.0
C704 C 0.14137 0.96373 0.49448 0.0
C705 C 0.15128 0.96576 0.47494 0.0
C706 C 0.15206 0.98395 0.4647 0.0
H707 H 0.09021 0.02187 0.45451 0.0
H708 H 0.10395 0.00086 0.46368 0.0
H709 H 0.10137 0.0222 0.48043 0.0
H710 H 0.12832 0.01169 0.50195 0.0
H711 H 0.12625 0.97955 0.51964 0.0
H712 H 0.29305 0.91685 0.72426 0.0
H713 H 0.26257 0.92052 0.70398 0.0
H714 H 0.23989 0.86741 0.73256 0.0
H715 H 0.27015 0.86386 0.75325 0.0
H716 H 0.25183 0.89432 0.67463 0.0
H717 H 0.19138 0.9018 0.73305 0.0
H718 H 0.21688 0.90552 0.74016 0.0
H719 H 0.20678 0.88104 0.73886 0.0
C720 C 0.2814 0.90618 0.7266 0.0
C721 C 0.28407 0.88996 0.74022 0.0
C722 C 0.26396 0.90834 0.71503 0.0
C723 C 0.24886 0.89434 0.71686 0.0
C724 C 0.25112 0.87865 0.73124 0.0
H725 H 0.17386 0.84519 0.62477 0.0
H726 H 0.19692 0.85414 0.65289 0.0
C727 C 0.26851 0.87655 0.74295 0.0
C728 C 0.23217 0.89452 0.70161 0.0
H729 H 0.18217 0.89009 0.69789 0.0
C730 C 0.23659 0.89381 0.67975 0.0
C731 C 0.21226 0.89396 0.70823 0.0
C732 C 0.20652 0.89583 0.73136 0.0
C733 C 0.22176 0.8915 0.66445 0.0
C734 C 0.20202 0.88962 0.67117 0.0
C735 C 0.19739 0.89137 0.69287 0.0
C736 C 0.18646 0.88406 0.65587 0.0
C737 C 0.22735 0.89039 0.64119 0.0
C738 C 0.1726 0.89785 0.64868 0.0
C739 C 0.15932 0.89279 0.63246 0.0
C740 C 0.1598 0.87388 0.62331 0.0
C741 C 0.1732 0.85993 0.6313 0.0
C742 C 0.18638 0.86499 0.64741 0.0
H743 H 0.24232 0.8964 0.63827 0.0
H744 H 0.22718 0.87477 0.636 0.0
H745 H 0.21663 0.8986 0.63122 0.0
H746 H 0.17249 0.91265 0.6551 0.0
H747 H 0.14913 0.90383 0.62668 0.0
H748 H 0.39887 0.92119 0.87631 0.0
H749 H 0.3902 0.94498 0.90377 0.0
H750 H 0.3297 0.92596 0.90111 0.0
H751 H 0.33831 0.90179 0.87343 0.0
H752 H 0.36079 0.97512 0.89522 0.0
H753 H 0.34446 0.92937 0.96681 0.0
H754 H 0.35978 0.9205 0.94532 0.0
H755 H 0.3337 0.92242 0.94164 0.0
C756 C 0.38374 0.92184 0.88168 0.0
C757 C 0.36923 0.90974 0.87256 0.0
C758 C 0.37883 0.93543 0.89742 0.0
C759 C 0.35935 0.93718 0.90444 0.0
C760 C 0.34487 0.92465 0.89602 0.0
H761 H 0.32675 0.04639 0.96933 0.0
H762 H 0.32391 0.0164 0.94799 0.0
C763 C 0.3498 0.91092 0.8802 0.0
C764 C 0.35427 0.9534 0.91914 0.0
H765 H 0.34309 0.96387 0.97098 0.0
C766 C 0.35665 0.97271 0.91172 0.0
C767 C 0.34902 0.95007 0.94062 0.0
C768 C 0.34664 0.9295 0.94926 0.0
C769 C 0.35458 0.98887 0.92539 0.0
C770 C 0.34963 0.98559 0.94701 0.0
C771 C 0.34673 0.96628 0.95435 0.0
C772 C 0.34904 0.00209 0.9624 0.0
C773 C 0.35862 0.00925 0.91681 0.0
C774 C 0.36354 0.00353 0.97825 0.0
C775 C 0.36517 0.02061 0.99055 0.0
C776 C 0.35234 0.03653 0.98712 0.0
C777 C 0.33704 0.0345 0.97216 0.0
C778 C 0.33537 0.01738 0.95995 0.0
H779 H 0.36597 0.00882 0.90099 0.0
H780 H 0.34451 0.01728 0.91499 0.0
H781 H 0.36806 0.01771 0.928 0.0
H782 H 0.37421 0.99184 0.98038 0.0
H783 H 0.37703 0.02167 0.00204 0.0
H784 H 0.34114 0.89735 0.37721 0.0
H785 H 0.31755 0.90619 0.34908 0.0
H786 H 0.29225 0.84807 0.35249 0.0
H787 H 0.31556 0.83911 0.38039 0.0
H788 H 0.30819 0.88562 0.30747 0.0
H789 H 0.24654 0.88849 0.36545 0.0
H790 H 0.27204 0.89003 0.37345 0.0
H791 H 0.26132 0.86659 0.36701 0.0
C792 C 0.33067 0.88641 0.3718 0.0
C793 C 0.33007 0.8676 0.38118 0.0
C794 C 0.31725 0.89148 0.35575 0.0
C795 C 0.30306 0.87783 0.349 0.0
C796 C 0.30296 0.85886 0.35773 0.0
H797 H 0.22207 0.86084 0.24776 0.0
H798 H 0.25149 0.86326 0.27001 0.0
C799 C 0.31631 0.85378 0.37367 0.0
C800 C 0.28767 0.8834 0.3335 0.0
H801 H 0.23787 0.88723 0.3287 0.0
C802 C 0.29282 0.88627 0.31207 0.0
C803 C 0.26771 0.88453 0.33969 0.0
C804 C 0.26151 0.88243 0.36268 0.0
C805 C 0.27831 0.88926 0.29642 0.0
C806 C 0.25824 0.8891 0.30244 0.0
C807 C 0.25325 0.88723 0.32406 0.0
C808 C 0.24201 0.88952 0.28666 0.0
C809 C 0.28459 0.89236 0.27361 0.0
C810 C 0.22691 0.9035 0.28856 0.0
C811 C 0.20997 0.90201 0.27605 0.0
C812 C 0.20779 0.88645 0.26144 0.0
C813 C 0.22333 0.87302 0.25882 0.0
C814 C 0.24024 0.87448 0.27142 0.0
H815 H 0.29975 0.89842 0.27269 0.0
H816 H 0.2845 0.878 0.26518 0.0
H817 H 0.27441 0.9025 0.26516 0.0
H818 H 0.22793 0.91517 0.30028 0.0
H819 H 0.19832 0.91267 0.27836 0.0
H820 H 0.33273 0.95055 0.52997 0.0
H821 H 0.33006 0.98249 0.54701 0.0
H822 H 0.36242 0.00904 0.49526 0.0
H823 H 0.36594 0.97666 0.47846 0.0
H824 H 0.37835 0.01898 0.53035 0.0
H825 H 0.29925 0.03142 0.54172 0.0
H826 H 0.30501 0.00749 0.55184 0.0
H827 H 0.30834 0.01269 0.52383 0.0
C828 C 0.33895 0.96321 0.52192 0.0
C829 C 0.34972 0.96102 0.50295 0.0
C830 C 0.33718 0.98161 0.5316 0.0
C831 C 0.34572 -0.00165 0.5223 0.0
C832 C 0.3556 -0.00362 0.50271 0.0
H833 H 0.34264 0.10128 0.60945 0.0
H834 H 0.33641 0.08221 0.57674 0.0
C835 C 0.35763 0.97787 0.49314 0.0
C836 C 0.34691 0.01695 0.53474 0.0
H837 H 0.32079 0.04505 0.56994 0.0
C838 C 0.36563 0.02501 0.5385 0.0
C839 C 0.33037 0.02529 0.54511 0.0
C840 C 0.30962 0.01886 0.54016 0.0
C841 C 0.36847 0.03979 0.55376 0.0
C842 C 0.35227 0.04628 0.56605 0.0
C843 C 0.33329 0.03968 0.5609 0.0
C844 C 0.35522 0.05789 0.5858 0.0
C845 C 0.38897 0.04775 0.55714 0.0
C846 C 0.36726 0.05023 0.60194 0.0
C847 C 0.37088 0.06101 0.62038 0.0
C848 C 0.36228 0.07961 0.62331 0.0
C849 C 0.34951 0.087 0.60757 0.0
C850 C 0.34598 0.07617 0.5889 0.0
H851 H 0.39768 0.0471 0.54217 0.0
H852 H 0.38867 0.06322 0.56288 0.0
H853 H 0.39667 0.03859 0.56919 0.0
H854 H 0.37401 0.03587 0.6002 0.0
H855 H 0.38054 0.05474 0.63233 0.0
H856 H 0.19035 0.13847 0.89289 0.0
H857 H 0.20967 0.13359 0.86068 0.0
H858 H 0.16067 0.10389 0.83101 0.0
H859 H 0.1412 0.10833 0.86369 0.0
H860 H 0.19538 0.08494 0.82363 0.0
H861 H 0.20444 0.16386 0.80567 0.0
H862 H 0.21196 0.15884 0.83251 0.0
H863 H 0.18667 0.15504 0.82482 0.0
C864 C 0.1836 0.13096 0.87952 0.0
C865 C 0.16418 0.12395 0.88075 0.0
C866 C 0.19463 0.1283 0.86104 0.0
C867 C 0.18642 0.1189 0.84322 0.0
C868 C 0.16719 0.11142 0.84451 0.0
H869 H 0.26946 0.12807 0.73691 0.0
H870 H 0.23704 0.12762 0.754 0.0
C871 C 0.15612 0.11393 0.86317 0.0
C872 C 0.19843 0.11652 0.82368 0.0
H873 H 0.22979 0.14219 0.79167 0.0
C874 C 0.20259 0.09747 0.81629 0.0
C875 C 0.20737 0.13287 0.81361 0.0
C876 C 0.20218 0.1538 0.81942 0.0
C877 C 0.21681 0.09428 0.80041 0.0
C878 C 0.22743 0.11053 0.79218 0.0
C879 C 0.22195 0.12966 0.79821 0.0
C880 C 0.24576 0.1081 0.7796 0.0
C881 C 0.22064 0.0735 0.79304 0.0
C882 C 0.26137 0.09707 0.78811 0.0
C883 C 0.27982 0.09726 0.77838 0.0
C884 C 0.28318 0.10871 0.76008 0.0
C885 C 0.26736 0.11915 0.75105 0.0
C886 C 0.24882 0.11888 0.76077 0.0
H887 H 0.20696 0.06455 0.79376 0.0
H888 H 0.22644 0.07312 0.7765 0.0
H889 H 0.23155 0.06651 0.80381 0.0
H890 H 0.25961 0.0891 0.80293 0.0
H891 H 0.29165 0.08902 0.78576 0.0
H892 H 0.1446 0.88994 0.1099 0.0
H893 H 0.15015 0.90913 0.07717 0.0
H894 H 0.11861 0.95804 0.10469 0.0
H895 H 0.11267 0.93901 0.13685 0.0
H896 H 0.10582 0.94887 0.06458 0.0
H897 H 0.1875 0.95543 0.06665 0.0
H898 H 0.17731 0.93101 0.06755 0.0
H899 H 0.17347 0.94749 0.08952 0.0
C900 C 0.13905 0.90486 0.10896 0.0
C901 C 0.12814 0.91295 0.12589 0.0
C902 C 0.14226 0.91581 0.09031 0.0
C903 C 0.13484 0.93505 0.08853 0.0
C904 C 0.12437 0.94319 0.10565 0.0
H905 H 0.15618 0.04103 0.02799 0.0
H906 H 0.15759 0.00974 0.0467 0.0
C907 C 0.12101 0.93228 0.12406 0.0
C908 C 0.13717 0.9469 0.06883 0.0
H909 H 0.1708 0.97318 0.04014 0.0
C910 C 0.12003 0.95398 0.05896 0.0
C911 C 0.15574 0.95345 0.06158 0.0
C912 C 0.17461 0.94661 0.07188 0.0
C913 C 0.12083 0.96853 0.04313 0.0
C914 C 0.13939 0.97571 0.03641 0.0
C915 C 0.1566 0.96761 0.04526 0.0
C916 C 0.14109 0.99359 0.02289 0.0
C917 C 0.10171 0.97709 0.03505 0.0
C918 C 0.13202 0.99483 0.00279 0.0
C919 C 0.13082 0.01294 0.99217 0.0
C920 C 0.13904 0.02997 0.00131 0.0
C921 C 0.14951 0.02827 0.02056 0.0
C922 C 0.15042 0.01031 0.03128 0.0
H923 H 0.08894 0.97258 0.04498 0.0
H924 H 0.10235 0.99342 0.03481 0.0
H925 H 0.09901 0.97185 0.01856 0.0
H926 H 0.12521 0.98199 0.9957 0.0
H927 H 0.12292 0.01372 0.97719 0.0
H928 H 0.7752 0.91971 0.73034 0.0
H929 H 0.74607 0.92646 0.75231 0.0
H930 H 0.74373 0.86534 0.77071 0.0
H931 H 0.77259 0.85846 0.74885 0.0
H932 H 0.70581 0.88351 0.76233 0.0
H933 H 0.75333 0.92601 0.81843 0.0
H934 H 0.75304 0.93322 0.79082 0.0
H935 H 0.76363 0.91005 0.79833 0.0
C936 C 0.76821 0.90764 0.73871 0.0
C937 C 0.77631 0.88858 0.73805 0.0
C938 C 0.75165 0.91155 0.75132 0.0
C939 C 0.74293 0.89644 0.76331 0.0
C940 C 0.75026 0.87721 0.76158 0.0
H941 H 0.69271 0.86855 0.87747 0.0
H942 H 0.71131 0.87738 0.84575 0.0
C943 C 0.76681 0.87332 0.74914 0.0
C944 C 0.72743 0.90056 0.77928 0.0
H945 H 0.72178 0.91755 0.83015 0.0
C946 C 0.70903 0.89142 0.77695 0.0
C947 C 0.73182 0.91078 0.79836 0.0
C948 C 0.75153 0.92054 0.80185 0.0
C949 C 0.69534 0.89122 0.79372 0.0
C950 C 0.70023 0.90043 0.81322 0.0
C951 C 0.71809 0.91064 0.81507 0.0
C952 C 0.68884 0.89652 0.83285 0.0
C953 C 0.67637 0.87992 0.79112 0.0
C954 C 0.67009 0.90462 0.83624 0.0
C955 C 0.65933 0.89962 0.85455 0.0
C956 C 0.6672 0.88636 0.86954 0.0
C957 C 0.68615 0.87869 0.8662 0.0
C958 C 0.69686 0.88378 0.8481 0.0
H959 H 0.67514 0.8729 0.77518 0.0
H960 H 0.67533 0.8683 0.80353 0.0
H961 H 0.6637 0.89001 0.79332 0.0
H962 H 0.66373 0.91457 0.82464 0.0
H963 H 0.64476 0.90575 0.85672 0.0
H964 H 0.87566 0.02246 0.49863 0.0
H965 H 0.87162 0.99301 0.5205 0.0
H966 H 0.81822 0.01698 0.54713 0.0
H967 H 0.82241 0.0467 0.52567 0.0
H968 H 0.84343 0.0069 0.57742 0.0
H969 H 0.83713 0.94475 0.52104 0.0
H970 H 0.85811 0.95977 0.51504 0.0
H971 H 0.83374 0.97003 0.51288 0.0
C972 C 0.86281 0.02128 0.50878 0.0
C973 C 0.84946 0.03698 0.51058 0.0
C974 C 0.86043 0.00434 0.52115 0.0
C975 C 0.84449 0.00267 0.53529 0.0
C976 C 0.83058 0.01792 0.53627 0.0
H977 H 0.83838 0.90181 0.62467 0.0
H978 H 0.82819 0.92535 0.59696 0.0
C979 C 0.83304 0.03491 0.52403 0.0
C980 C 0.84394 0.98646 0.55112 0.0
H981 H 0.84904 0.93667 0.55656 0.0
C982 C 0.84421 0.99153 0.57282 0.0
C983 C 0.84476 0.96636 0.54519 0.0
C984 C 0.8432 0.9599 0.52226 0.0
C985 C 0.84653 0.97719 0.58865 0.0
C986 C 0.84894 0.9573 0.58262 0.0
C987 C 0.84741 0.952 0.56107 0.0
C988 C 0.85509 0.94233 0.59834 0.0
C989 C 0.84707 0.98351 0.61172 0.0
C990 C 0.87369 0.94391 0.60781 0.0
C991 C 0.87953 0.93061 0.62347 0.0
C992 C 0.86687 0.91539 0.62999 0.0
C993 C 0.8484 0.91344 0.62004 0.0
C994 C 0.84257 0.92682 0.60424 0.0
H995 H 0.83969 -0.00206 0.61407 0.0
H996 H 0.83989 0.97239 0.62211 0.0
H997 H 0.86262 0.98504 0.61687 0.0
H998 H 0.88365 0.95563 0.60323 0.0
H999 H 0.89391 0.93247 0.63065 0.0
H1000 H 0.72155 0.12629 0.24519 0.0
H1001 H 0.75056 0.12112 0.26744 0.0
H1002 H 0.72594 0.06662 0.2906 0.0
H1003 H 0.69664 0.07192 0.26873 0.0
H1004 H 0.73565 0.09026 0.32245 0.0
H1005 H 0.79868 0.08653 0.26711 0.0
H1006 H 0.78384 0.10779 0.26181 0.0
H1007 H 0.77355 0.08356 0.25824 0.0
C1008 C 0.72249 0.11298 0.25464 0.0
C1009 C 0.70672 0.09962 0.25536 0.0
C1010 C 0.73919 0.10995 0.26723 0.0
C1011 C 0.74056 0.09335 0.28051 0.0
C1012 C 0.72525 0.07948 0.2804 0.0
H1013 H 0.84057 0.0862 0.37119 0.0
H1014 H 0.81746 0.0759 0.34309 0.0
C1015 C 0.70849 0.08257 0.26794 0.0
C1016 C 0.7565 0.09203 0.29661 0.0
H1017 H 0.80612 0.0974 0.30327 0.0
C1018 C 0.75108 0.09134 0.3182 0.0
C1019 C 0.77668 0.09321 0.29114 0.0
C1020 C 0.78353 0.09259 0.26829 0.0
C1021 C 0.76514 0.09321 0.33441 0.0
C1022 C 0.78508 0.09612 0.32889 0.0
C1023 C 0.79075 0.09541 0.3074 0.0
C1024 C 0.79964 0.10222 0.34509 0.0
C1025 C 0.75843 0.09282 0.35734 0.0
C1026 C 0.79742 0.12053 0.35507 0.0
C1027 C 0.81048 0.12643 0.37093 0.0
C1028 C 0.8261 0.11414 0.37716 0.0
C1029 C 0.82862 0.09594 0.36679 0.0
C1030 C 0.81548 0.09005 0.35077 0.0
H1031 H 0.74417 0.08499 0.3591 0.0
H1032 H 0.76955 0.0856 0.36769 0.0
H1033 H 0.75639 0.10816 0.36304 0.0
H1034 H 0.78544 0.13024 0.35065 0.0
H1035 H 0.80816 0.14059 0.37845 0.0
H1036 H 0.62852 0.97677 0.97829 0.0
H1037 H 0.63125 0.00942 0.99466 0.0
H1038 H 0.652 0.98266 0.0529 0.0
H1039 H 0.65016 0.95036 0.03643 0.0
H1040 H 0.61105 0.02266 0.02585 0.0
H1041 H 0.68823 0.02806 0.05112 0.0
H1042 H 0.68008 0.00946 0.03254 0.0
H1043 H 0.67853 0.00532 0.06094 0.0
C1044 C 0.63406 0.97795 0.99443 0.0
C1045 C 0.63911 0.961 0.00607 0.0
C1046 C 0.63565 -0.0034 0.00376 0.0
C1047 C 0.6422 -0.00138 0.02491 0.0
C1048 C 0.6476 0.98168 0.03634 0.0
H1049 H 0.59832 0.06281 0.12538 0.0
H1050 H 0.60558 0.04341 0.09388 0.0
C1051 C 0.64631 0.96312 0.02695 0.0
C1052 C 0.64099 0.01784 0.03612 0.0
H1053 H 0.66427 0.04513 0.07424 0.0
C1054 C 0.62291 0.02786 0.03597 0.0
C1055 C 0.65654 0.02513 0.04894 0.0
C1056 C 0.67698 0.01651 0.04816 0.0
C1057 C 0.61939 0.0437 0.04977 0.0
C1058 C 0.6341 0.04924 0.06458 0.0
C1059 C 0.6528 0.04056 0.06327 0.0
C1060 C 0.62953 0.06195 0.08314 0.0
C1061 C 0.59967 0.05386 0.04883 0.0
C1062 C 0.64104 0.07852 0.08808 0.0
C1063 C 0.63709 0.08959 0.10645 0.0
C1064 C 0.62162 0.08416 0.12014 0.0
C1065 C 0.61022 0.06755 0.1151 0.0
C1066 C 0.61423 0.0565 0.09693 0.0
H1067 H 0.59368 0.05369 0.03234 0.0
H1068 H 0.58907 0.04587 0.05914 0.0
H1069 H 0.60064 0.06937 0.05434 0.0
H1070 H 0.6531 0.08282 0.07778 0.0
H1071 H 0.64617 0.10229 0.10996 0.0
H1072 H 0.78203 0.06892 0.74084 0.0
H1073 H 0.75197 0.06512 0.71976 0.0
H1074 H 0.73629 0.12537 0.73313 0.0
H1075 H 0.76609 0.12922 0.75457 0.0
H1076 H 0.70345 0.09925 0.73154 0.0
H1077 H 0.75287 0.09196 0.66108 0.0
H1078 H 0.75632 0.0742 0.68196 0.0
H1079 H 0.7618 0.09968 0.68683 0.0
C1080 C 0.772 0.08126 0.73963 0.0
C1081 C 0.77662 0.0995 0.74903 0.0
C1082 C 0.75485 0.07905 0.72756 0.0
C1083 C 0.74216 0.09509 0.72453 0.0
C1084 C 0.74596 0.11284 0.73522 0.0
H1085 H 0.67394 0.14392 0.62891 0.0
H1086 H 0.6947 0.13383 0.65859 0.0
C1087 C 0.76304 0.11503 0.74742 0.0
C1088 C 0.72629 0.09429 0.70836 0.0
H1089 H 0.71903 0.09369 0.65449 0.0
C1090 C 0.70676 0.09765 0.71472 0.0
C1091 C 0.73074 0.09237 0.68639 0.0
C1092 C 0.75156 0.0895 0.67853 0.0
C1093 C 0.69166 0.09983 0.69957 0.0
C1094 C 0.6963 0.0986 0.67769 0.0
C1095 C 0.71561 0.0944 0.67137 0.0
C1096 C 0.6822 0.10466 0.66106 0.0
C1097 C 0.67104 0.10448 0.70684 0.0
C1098 C 0.66817 0.09156 0.65281 0.0
C1099 C 0.6562 0.09728 0.63568 0.0
C1100 C 0.65826 0.11612 0.62662 0.0
C1101 C 0.67203 0.12927 0.6354 0.0
C1102 C 0.68389 0.12357 0.65241 0.0
H1103 H 0.66962 0.10413 0.72449 0.0
H1104 H 0.66679 0.11934 0.70106 0.0
H1105 H 0.66056 0.09375 0.69982 0.0
H1106 H 0.66681 0.07684 0.6593 0.0
H1107 H 0.6457 0.08684 0.62926 0.0
H1108 H 0.61369 0.02198 0.50491 0.0
H1109 H 0.61691 0.99077 0.48595 0.0
H1110 H 0.67027 0.0115 0.4562 0.0
H1111 H 0.66685 0.04299 0.47467 0.0
H1112 H 0.64489 -0.00125 0.42749 0.0
H1113 H 0.6505 0.94237 0.49064 0.0
H1114 H 0.62962 0.95802 0.4948 0.0
H1115 H 0.65406 0.96826 0.49594 0.0
C1116 C 0.62634 0.01975 0.49468 0.0
C1117 C 0.63993 0.035 0.49116 0.0
C1118 C 0.62826 0.00181 0.48398 0.0
C1119 C 0.64398 -0.00135 0.46985 0.0
C1120 C 0.65807 0.01356 0.46709 0.0
H1121 H 0.65353 0.904 0.37426 0.0
H1122 H 0.66375 0.92728 0.40212 0.0
C1123 C 0.65607 0.03156 0.47763 0.0
C1124 C 0.64424 0.98098 0.45595 0.0
H1125 H 0.6389 0.93094 0.45616 0.0
C1126 C 0.64407 0.9839 0.43378 0.0
C1127 C 0.64315 0.96158 0.46413 0.0
C1128 C 0.64455 0.95736 0.48769 0.0
C1129 C 0.64176 0.96809 0.41965 0.0
C1130 C 0.6396 0.94888 0.4279 0.0
C1131 C 0.64055 0.94576 0.44996 0.0
C1132 C 0.63423 0.93238 0.41374 0.0
C1133 C 0.64063 0.97207 0.396 0.0
C1134 C 0.61437 0.92726 0.41159 0.0
C1135 C 0.60849 0.91418 0.39567 0.0
C1136 C 0.62241 0.90593 0.38171 0.0
C1137 C 0.64249 0.91012 0.38479 0.0
C1138 C 0.64835 0.92338 0.40066 0.0
H1139 H 0.64203 0.98799 0.3922 0.0
H1140 H 0.65255 0.96397 0.38768 0.0
H1141 H 0.62638 0.96664 0.38961 0.0
H1142 H 0.6033 0.93414 0.42154 0.0
H1143 H 0.59294 0.91112 0.3938 0.0
H1144 H 0.84769 0.89808 0.13704 0.0
H1145 H 0.82732 0.90466 0.16866 0.0
H1146 H 0.78482 0.86201 0.14679 0.0
H1147 H 0.80502 0.85512 0.11574 0.0
H1148 H 0.78947 0.91818 0.17195 0.0
H1149 H 0.79412 0.84409 0.20735 0.0
H1150 H 0.81061 0.85218 0.18654 0.0
H1151 H 0.78669 0.8424 0.17999 0.0
C1152 C 0.83403 0.89007 0.13909 0.0
C1153 C 0.82805 0.87595 0.12401 0.0
C1154 C 0.82246 0.89382 0.15714 0.0
C1155 C 0.80482 0.88344 0.16033 0.0
C1156 C 0.79867 0.86972 0.14501 0.0
H1157 H 0.69428 0.90513 0.21027 0.0
H1158 H 0.72635 0.90712 0.19333 0.0
C1159 C 0.8102 0.86591 0.12715 0.0
C1160 C 0.79212 0.88726 0.17906 0.0
H1161 H 0.76467 0.86284 0.21601 0.0
C1162 C 0.78436 0.9062 0.18197 0.0
C1163 C 0.78589 0.8718 0.19257 0.0
C1164 C 0.79497 0.85154 0.19161 0.0
C1165 C 0.76921 0.90966 0.19672 0.0
C1166 C 0.76133 0.89364 0.20838 0.0
C1167 C 0.77039 0.87511 0.20684 0.0
C1168 C 0.74242 0.89501 0.22014 0.0
C1169 C 0.76152 0.93036 0.19923 0.0
C1170 C 0.74058 0.88725 0.24082 0.0
C1171 C 0.72205 0.88564 0.25041 0.0
C1172 C 0.70507 0.89182 0.23949 0.0
C1173 C 0.70707 0.90033 0.21919 0.0
C1174 C 0.7255 0.9017 0.20954 0.0
H1175 H 0.77348 0.94128 0.19678 0.0
H1176 H 0.75013 0.93317 0.18692 0.0
H1177 H 0.75495 0.93276 0.21522 0.0
H1178 H 0.7534 0.88186 0.24927 0.0
H1179 H 0.72098 0.87908 0.26611 0.0
H1180 H 0.84176 0.0872 0.86846 0.0
H1181 H 0.83375 0.065 0.89813 0.0
H1182 H 0.88919 0.03516 0.88952 0.0
H1183 H 0.89716 0.05691 0.8599 0.0
H1184 H 0.85678 0.01005 0.89102 0.0
H1185 H 0.85713 0.06269 0.95904 0.0
H1186 H 0.84197 0.06904 0.93655 0.0
H1187 H 0.86823 0.06843 0.93363 0.0
C1188 C 0.85228 0.07599 0.87303 0.0
C1189 C 0.87006 0.07375 0.86178 0.0
C1190 C 0.84773 0.06341 0.89003 0.0
C1191 C 0.86096 0.04855 0.89609 0.0
C1192 C 0.87879 0.04654 0.88508 0.0
H1193 H 0.87973 0.97164 0.00089 0.0
H1194 H 0.87784 -0.00059 0.97617 0.0
C1195 C 0.88331 0.05899 0.86813 0.0
C1196 C 0.85608 0.03427 0.91311 0.0
H1197 H 0.85022 0.02944 0.96695 0.0
C1198 C 0.85514 0.01428 0.90761 0.0
C1199 C 0.85408 0.0399 0.93471 0.0
C1200 C 0.85552 0.06116 0.94149 0.0
C1201 C 0.85285 -0.00034 0.92316 0.0
C1202 C 0.85101 0.00523 0.94481 0.0
C1203 C 0.85146 0.02527 0.95031 0.0
C1204 C 0.85029 0.99027 0.96196 0.0
C1205 C 0.85339 0.97834 0.91635 0.0
C1206 C 0.83502 0.97639 0.96273 0.0
C1207 C 0.83614 0.96041 0.9767 0.0
C1208 C 0.85246 0.95817 0.99029 0.0
C1209 C 0.86702 0.97288 0.99055 0.0
C1210 C 0.86594 0.98879 0.97647 0.0
H1211 H 0.85908 0.97657 0.89985 0.0
H1212 H 0.86277 0.96954 0.92728 0.0
H1213 H 0.83827 0.97219 0.91685 0.0
H1214 H 0.82263 0.9775 0.95193 0.0
H1215 H 0.82456 0.94945 0.9763 0.0
H1216 H 0.70157 0.57282 0.72804 0.0
H1217 H 0.73238 0.56837 0.70851 0.0
H1218 H 0.75519 0.62178 0.73635 0.0
H1219 H 0.72464 0.62612 0.75624 0.0
H1220 H 0.74501 0.5934 0.67878 0.0
H1221 H 0.80274 0.5865 0.74037 0.0
H1222 H 0.77691 0.58348 0.74633 0.0
H1223 H 0.78762 0.60771 0.74493 0.0
C1224 C 0.7133 0.58342 0.73034 0.0
C1225 C 0.71062 0.5999 0.74359 0.0
C1226 C 0.73091 0.58081 0.7192 0.0
C1227 C 0.7462 0.59459 0.72114 0.0
C1228 C 0.74383 0.61067 0.73499 0.0
H1229 H 0.83023 0.64461 0.64119 0.0
H1230 H 0.80744 0.63437 0.66915 0.0
C1231 C 0.72626 0.61323 0.74623 0.0
C1232 C 0.76348 0.59366 0.70673 0.0
H1233 H 0.81359 0.59792 0.70557 0.0
C1234 C 0.76002 0.59387 0.68465 0.0
C1235 C 0.78309 0.59425 0.71437 0.0
C1236 C 0.78782 0.59276 0.73781 0.0
C1237 C 0.77554 0.59587 0.6701 0.0
C1238 C 0.79496 0.59772 0.67782 0.0
C1239 C 0.79861 0.59654 0.69978 0.0
C1240 C 0.81111 0.60324 0.66331 0.0
C1241 C 0.77105 0.59711 0.64657 0.0
C1242 C 0.82106 0.589 0.65122 0.0
C1243 C 0.83421 0.5948 0.63521 0.0
C1244 C 0.83732 0.6149 0.63101 0.0
C1245 C 0.82803 0.62902 0.64394 0.0
C1246 C 0.81508 0.62322 0.65997 0.0
H1247 H 0.75523 0.59451 0.64306 0.0
H1248 H 0.77517 0.6119 0.64051 0.0
H1249 H 0.77995 0.5861 0.63774 0.0
H1250 H 0.81804 0.5735 0.6536 0.0
H1251 H 0.84113 0.58361 0.62546 0.0
H1252 H 0.64428 0.60423 0.88762 0.0
H1253 H 0.6509 0.58494 0.92003 0.0
H1254 H 0.61323 0.53862 0.89654 0.0
H1255 H 0.6062 0.55779 0.86478 0.0
H1256 H 0.60548 0.54793 0.93783 0.0
H1257 H 0.68586 0.53641 0.92568 0.0
H1258 H 0.67722 0.56142 0.92653 0.0
H1259 H 0.67013 0.54572 0.90482 0.0
C1260 C 0.6375 0.5899 0.88942 0.0
C1261 C 0.62471 0.58253 0.87368 0.0
C1262 C 0.64135 0.57888 0.90788 0.0
C1263 C 0.63265 0.56028 0.91063 0.0
C1264 C 0.62002 0.55297 0.89482 0.0
H1265 H 0.65343 0.45161 0.96388 0.0
H1266 H 0.65487 0.48365 0.94669 0.0
C1267 C 0.61604 0.56396 0.87662 0.0
C1268 C 0.63625 0.54807 0.92982 0.0
H1269 H 0.67083 0.51886 0.95339 0.0
C1270 C 0.61982 0.54179 0.94154 0.0
C1271 C 0.65499 0.54018 0.93458 0.0
C1272 C 0.6731 0.54612 0.92222 0.0
C1273 C 0.62127 0.52665 0.95665 0.0
C1274 C 0.6399 0.51808 0.96077 0.0
C1275 C 0.6566 0.52547 0.95023 0.0
C1276 C 0.64178 0.4995 0.97308 0.0
C1277 C 0.60257 0.51897 0.96666 0.0
C1278 C 0.63465 0.49778 0.99403 0.0
C1279 C 0.63337 0.47928 0.00377 0.0
C1280 C 0.63967 0.46231 0.9929 0.0
C1281 C 0.6483 0.46435 0.97266 0.0
C1282 C 0.64923 0.48272 0.96282 0.0
H1283 H 0.58919 0.52469 0.95858 0.0
H1284 H 0.60212 0.50264 0.96611 0.0
H1285 H 0.60195 0.52364 0.98359 0.0
H1286 H 0.62937 0.51061 0.00251 0.0
H1287 H 0.62694 0.47819 0.01953 0.0
H1288 H 0.67532 0.34333 0.12032 0.0
H1289 H 0.6983 0.35151 0.14877 0.0
H1290 H 0.67426 0.41016 0.15228 0.0
H1291 H 0.6509 0.40204 0.12368 0.0
H1292 H 0.72616 0.38291 0.145 0.0
H1293 H 0.67727 0.39063 0.21577 0.0
H1294 H 0.6699 0.37721 0.1922 0.0
H1295 H 0.67046 0.40359 0.19182 0.0
C1296 C 0.67473 0.35794 0.12722 0.0
C1297 C 0.66136 0.37209 0.11965 0.0
C1298 C 0.68787 0.36256 0.14352 0.0
C1299 C 0.6879 0.38138 0.15265 0.0
C1300 C 0.67427 0.39546 0.14558 0.0
H1301 H 0.79268 0.41733 0.22356 0.0
H1302 H 0.76304 0.41939 0.20156 0.0
C1303 C 0.66101 0.39083 0.12921 0.0
C1304 C 0.7033 0.38638 0.1684 0.0
H1305 H 0.71134 0.39512 0.22132 0.0
C1306 C 0.72295 0.38581 0.16165 0.0
C1307 C 0.69895 0.39001 0.19008 0.0
C1308 C 0.67803 0.39032 0.19808 0.0
C1309 C 0.73848 0.38821 0.1761 0.0
C1310 C 0.7342 0.39166 0.19786 0.0
C1311 C 0.71451 0.39266 0.20458 0.0
C1312 C 0.75012 0.39262 0.21391 0.0
C1313 C 0.75934 0.38614 0.16809 0.0
C1314 C 0.75211 0.37746 0.22895 0.0
C1315 C 0.76898 0.37629 0.24165 0.0
C1316 C 0.78412 0.39025 0.23944 0.0
C1317 C 0.7814 0.40619 0.22543 0.0
C1318 C 0.76449 0.4074 0.21284 0.0
H1319 H 0.75993 0.37959 0.15187 0.0
H1320 H 0.76631 0.4009 0.16737 0.0
H1321 H 0.76818 0.37682 0.17904 0.0
H1322 H 0.74113 0.36594 0.23004 0.0
H1323 H 0.77057 0.3639 0.25238 0.0
H1324 H 0.87512 0.51819 0.50608 0.0
H1325 H 0.87251 0.4877 0.48548 0.0
H1326 H 0.81883 0.50865 0.45668 0.0
H1327 H 0.82143 0.53929 0.47695 0.0
H1328 H 0.84261 0.45772 0.479 0.0
H1329 H 0.85803 0.50264 0.40661 0.0
H1330 H 0.8614 0.51213 0.43322 0.0
H1331 H 0.8371 0.51009 0.42214 0.0
C1332 C 0.86257 0.51618 0.49565 0.0
C1333 C 0.84868 0.5313 0.49284 0.0
C1334 C 0.86107 0.49872 0.48395 0.0
C1335 C 0.84565 0.4961 0.46933 0.0
C1336 C 0.83099 0.51054 0.46766 0.0
H1337 H 0.83561 0.39794 0.37768 0.0
H1338 H 0.82644 0.42113 0.40614 0.0
C1339 C 0.83252 0.52803 0.47926 0.0
C1340 C 0.84621 0.47937 0.45422 0.0
H1341 H 0.85467 0.46856 0.40187 0.0
C1342 C 0.84498 0.46004 0.46209 0.0
C1343 C 0.84951 0.48251 0.4322 0.0
C1344 C 0.85175 0.50292 0.42296 0.0
C1345 C 0.84729 0.44376 0.44847 0.0
C1346 C 0.85094 0.44699 0.42661 0.0
C1347 C 0.85168 0.46625 0.41867 0.0
C1348 C 0.85628 0.43084 0.41197 0.0
C1349 C 0.84662 0.42321 0.4575 0.0
C1350 C 0.87605 0.42849 0.40625 0.0
C1351 C 0.88129 0.41543 0.39011 0.0
C1352 C 0.86682 0.40451 0.37928 0.0
C1353 C 0.84706 0.40615 0.38576 0.0
C1354 C 0.84181 0.41934 0.40198 0.0
H1355 H 0.84349 0.42314 0.47488 0.0
H1356 H 0.83509 0.41454 0.44917 0.0
H1357 H 0.86093 0.41576 0.45465 0.0
H1358 H 0.88737 0.43732 0.41378 0.0
H1359 H 0.89665 0.41441 0.38564 0.0
H1360 H 0.69648 0.39909 0.79206 0.0
H1361 H 0.72874 0.40106 0.80853 0.0
H1362 H 0.75564 0.38072 0.75023 0.0
H1363 H 0.72301 0.37789 0.7338 0.0
H1364 H 0.76891 0.3604 0.78146 0.0
H1365 H 0.77401 0.43751 0.80701 0.0
H1366 H 0.75124 0.42775 0.81667 0.0
H1367 H 0.75551 0.42938 0.7883 0.0
C1368 C 0.70925 0.39535 0.78255 0.0
C1369 C 0.70717 0.38823 0.76164 0.0
C1370 C 0.72779 0.39673 0.79195 0.0
C1371 C 0.74476 0.39148 0.78053 0.0
C1372 C 0.7428 0.38501 0.75933 0.0
H1373 H 0.84837 0.39479 0.86593 0.0
H1374 H 0.82881 0.40216 0.83391 0.0
C1375 C 0.72415 0.38336 0.74997 0.0
C1376 C 0.76397 0.39029 0.79179 0.0
H1377 H 0.79096 0.4135 0.83023 0.0
C1378 C 0.77403 0.37224 0.79166 0.0
C1379 C 0.77115 0.40582 0.80473 0.0
C1380 C 0.76249 0.42625 0.80395 0.0
C1381 C 0.78977 0.3687 0.80559 0.0
C1382 C 0.79517 0.38336 0.82051 0.0
C1383 C 0.78648 0.40206 0.81918 0.0
C1384 C 0.80776 0.37873 0.83916 0.0
C1385 C 0.79996 0.34898 0.80469 0.0
C1386 C 0.8022 0.36342 0.85289 0.0
C1387 C 0.81328 0.35917 0.87098 0.0
C1388 C 0.83005 0.37034 0.876 0.0
C1389 C 0.83553 0.3859 0.86244 0.0
C1390 C 0.82442 0.3901 0.84415 0.0
H1391 H 0.79984 0.34299 0.7882 0.0
H1392 H 0.81544 0.34998 0.81026 0.0
H1393 H 0.79195 0.33837 0.81498 0.0
H1394 H 0.78904 0.35488 0.84979 0.0
H1395 H 0.8085 0.34722 0.88116 0.0
H1396 H 0.88867 0.55647 0.12893 0.0
H1397 H 0.88146 0.53714 0.09736 0.0
H1398 H 0.83681 0.5789 0.07879 0.0
H1399 H 0.84374 0.59839 0.11102 0.0
H1400 H 0.82428 0.54101 0.07429 0.0
H1401 H 0.89703 0.54833 0.03661 0.0
H1402 H 0.89998 0.5403 0.06363 0.0
H1403 H 0.88925 0.56407 0.05823 0.0
C1404 C 0.87737 0.5617 0.11814 0.0
C1405 C 0.86687 0.57907 0.12242 0.0
C1406 C 0.87338 0.55067 0.09995 0.0
C1407 C 0.859 0.55686 0.08539 0.0
C1408 C 0.84817 0.57403 0.08969 0.0
H1409 H 0.864 0.47294 0.97974 0.0
H1410 H 0.86061 0.50551 0.99617 0.0
C1411 C 0.85212 0.5851 0.10809 0.0
C1412 C 0.85494 0.54454 0.06638 0.0
H1413 H 0.87917 0.51799 0.02854 0.0
C1414 C 0.83613 0.53631 0.06389 0.0
C1415 C 0.87018 0.53888 0.05231 0.0
C1416 C 0.89016 0.54857 0.05269 0.0
C1417 C 0.83272 0.52117 0.04909 0.0
C1418 C 0.84869 0.5137 0.03702 0.0
C1419 C 0.86696 0.52332 0.03806 0.0
C1420 C 0.84763 0.49463 0.02543 0.0
C1421 C 0.81215 0.51305 0.047 0.0
C1422 C 0.84123 0.47768 0.03621 0.0
C1423 C 0.84288 0.45917 0.02675 0.0
C1424 C 0.85145 0.45711 0.00649 0.0
C1425 C 0.85741 0.47407 0.99541 0.0
C1426 C 0.85544 0.49268 0.00477 0.0
H1427 H 0.80106 0.52486 0.04941 0.0
H1428 H 0.80966 0.5062 0.03116 0.0
H1429 H 0.80968 0.50181 0.05957 0.0
H1430 H 0.83583 0.47857 0.05242 0.0
H1431 H 0.83828 0.44639 0.0358 0.0
H1432 H 0.77082 0.63 0.24479 0.0
H1433 H 0.73968 0.62644 0.26391 0.0
H1434 H 0.75634 0.56782 0.28325 0.0
H1435 H 0.78786 0.57158 0.26484 0.0
H1436 H 0.70842 0.60139 0.26302 0.0
H1437 H 0.74852 0.59429 0.34 0.0
H1438 H 0.76074 0.60101 0.31558 0.0
H1439 H 0.75442 0.57573 0.32069 0.0
C1440 C 0.76776 0.61627 0.25291 0.0
C1441 C 0.7819 0.6012 0.25364 0.0
C1442 C 0.74994 0.61423 0.2638 0.0
C1443 C 0.74589 0.59704 0.27544 0.0
C1444 C 0.7594 0.58142 0.2749 0.0
H1445 H 0.65342 0.58565 0.37245 0.0
H1446 H 0.67584 0.57536 0.34385 0.0
C1447 C 0.77736 0.58356 0.26429 0.0
C1448 C 0.72822 0.59618 0.28928 0.0
H1449 H 0.71408 0.59387 0.34146 0.0
C1450 C 0.70962 0.59953 0.28015 0.0
C1451 C 0.72981 0.59378 0.31166 0.0
C1452 C 0.74943 0.59117 0.32264 0.0
C1453 C 0.69269 0.6011 0.29287 0.0
C1454 C 0.69444 0.59929 0.31522 0.0
C1455 C 0.71282 0.59505 0.32426 0.0
C1456 C 0.67813 0.60436 0.32982 0.0
C1457 C 0.67313 0.60515 0.2824 0.0
C1458 C 0.67181 0.62397 0.33112 0.0
C1459 C 0.65928 0.6299 0.3475 0.0
C1460 C 0.65277 0.6163 0.36283 0.0
C1461 C 0.65814 0.59641 0.36078 0.0
C1462 C 0.67093 0.59052 0.34449 0.0
H1463 H 0.67315 0.60066 0.26536 0.0
H1464 H 0.66105 0.59732 0.29078 0.0
H1465 H 0.67004 0.62118 0.28314 0.0
H1466 H 0.67748 0.63494 0.32018 0.0
H1467 H 0.65532 0.64531 0.34864 0.0
H1468 H 0.60088 0.43694 0.63019 0.0
H1469 H 0.60864 0.4561 0.59866 0.0
H1470 H 0.6544 0.41488 0.58199 0.0
H1471 H 0.64692 0.39557 0.61418 0.0
H1472 H 0.66668 0.4527 0.57789 0.0
H1473 H 0.59525 0.4449 0.53737 0.0
H1474 H 0.59138 0.45305 0.56421 0.0
H1475 H 0.60236 0.4293 0.55938 0.0
C1476 C 0.61252 0.43178 0.61982 0.0
C1477 C 0.62321 0.41464 0.62465 0.0
C1478 C 0.61683 0.4427 0.60164 0.0
C1479 C 0.63173 0.43665 0.58763 0.0
C1480 C 0.64265 0.41966 0.59245 0.0
H1481 H 0.63067 0.51951 0.48066 0.0
H1482 H 0.63321 0.48722 0.49788 0.0
C1483 C 0.63839 0.40868 0.61083 0.0
C1484 C 0.63632 0.44899 0.56878 0.0
H1485 H 0.6133 0.4752 0.52975 0.0
C1486 C 0.65516 0.45728 0.56699 0.0
C1487 C 0.62153 0.45453 0.55407 0.0
C1488 C 0.60158 0.44476 0.55371 0.0
C1489 C 0.65902 0.47234 0.55221 0.0
C1490 C 0.64346 0.47964 0.53941 0.0
C1491 C 0.62519 0.46999 0.53982 0.0
C1492 C 0.64493 0.49856 0.52757 0.0
C1493 C 0.67962 0.48052 0.55091 0.0
C1494 C 0.65086 0.51567 0.53836 0.0
C1495 C 0.64968 0.53402 0.52847 0.0
C1496 C 0.64206 0.53577 0.50773 0.0
C1497 C 0.63655 0.51863 0.49668 0.0
C1498 C 0.63802 0.50017 0.5065 0.0
H1499 H 0.69067 0.46881 0.55402 0.0
H1500 H 0.68267 0.48715 0.53507 0.0
H1501 H 0.68156 0.49197 0.56336 0.0
H1502 H 0.65556 0.51503 0.55484 0.0
H1503 H 0.65391 0.54694 0.53752 0.0
H1504 H 0.1728 0.34783 0.36656 0.0
H1505 H 0.19576 0.35821 0.33895 0.0
H1506 H 0.16959 0.416 0.3383 0.0
H1507 H 0.14633 0.40573 0.36623 0.0
H1508 H 0.18044 0.39381 0.29476 0.0
H1509 H 0.2394 0.40253 0.35547 0.0
H1510 H 0.22486 0.38048 0.35769 0.0
H1511 H 0.21353 0.40403 0.36198 0.0
C1512 C 0.17172 0.36271 0.36047 0.0
C1513 C 0.15787 0.37604 0.36875 0.0
C1514 C 0.18485 0.36858 0.34466 0.0
C1515 C 0.1844 0.38786 0.33681 0.0
C1516 C 0.17009 0.40104 0.34426 0.0
H1517 H 0.29178 0.4203 0.26947 0.0
H1518 H 0.26109 0.42494 0.28915 0.0
C1519 C 0.15687 0.39516 0.36018 0.0
C1520 C 0.19989 0.39422 0.32186 0.0
H1521 H 0.2496 0.40004 0.31931 0.0
C1522 C 0.19554 0.3956 0.30006 0.0
C1523 C 0.21944 0.39677 0.32894 0.0
C1524 C 0.22467 0.39605 0.35232 0.0
C1525 C 0.21058 0.39829 0.28496 0.0
C1526 C 0.23037 0.39929 0.29196 0.0
C1527 C 0.23446 0.39918 0.3139 0.0
C1528 C 0.24727 0.3985 0.27704 0.0
C1529 C 0.20517 0.39965 0.2617 0.0
C1530 C 0.24955 0.38229 0.26337 0.0
C1531 C 0.26705 0.37962 0.25205 0.0
C1532 C 0.2827 0.39297 0.25445 0.0
C1533 C 0.28005 0.40967 0.26739 0.0
C1534 C 0.2625 0.41239 0.2786 0.0
H1535 H 0.19009 0.4057 0.25963 0.0
H1536 H 0.21571 0.40905 0.25278 0.0
H1537 H 0.20536 0.38469 0.25461 0.0
H1538 H 0.23823 0.3711 0.26232 0.0
H1539 H 0.26865 0.36658 0.24226 0.0
H1540 H 0.3451 0.39351 0.11286 0.0
H1541 H 0.33837 0.41347 0.08096 0.0
H1542 H 0.37948 0.45734 0.1031 0.0
H1543 H 0.38652 0.43755 0.13446 0.0
H1544 H 0.3241 0.45132 0.07674 0.0
H1545 H 0.39897 0.44688 0.04315 0.0
H1546 H 0.39061 0.43066 0.06408 0.0
H1547 H 0.39984 0.45485 0.07037 0.0
C1548 C 0.35271 0.4074 0.11084 0.0
C1549 C 0.3665 0.41386 0.12604 0.0
C1550 C 0.34887 0.41874 0.09264 0.0
C1551 C 0.35881 0.43662 0.08942 0.0
C1552 C 0.3721 0.4433 0.10493 0.0
H1553 H 0.33681 0.5454 0.03407 0.0
H1554 H 0.33468 0.51406 0.05261 0.0
C1555 C 0.37602 0.432 0.12294 0.0
C1556 C 0.35516 0.44888 0.07032 0.0
H1557 H 0.37981 0.47549 0.03285 0.0
C1558 C 0.33617 0.4563 0.06678 0.0
C1559 C 0.37076 0.45493 0.05693 0.0
C1560 C 0.39113 0.44622 0.05868 0.0
C1561 C 0.33275 0.47092 0.05138 0.0
C1562 C 0.34884 0.47859 0.03969 0.0
C1563 C 0.36747 0.4699 0.042 0.0
C1564 C 0.34739 0.49693 0.02692 0.0
C1565 C 0.31201 0.47825 0.04819 0.0
C1566 C 0.35545 0.49792 0.00631 0.0
C1567 C 0.35715 0.51602 0.99583 0.0
C1568 C 0.35072 0.53342 0.00574 0.0
C1569 C 0.34182 0.53226 0.02592 0.0
C1570 C 0.34037 0.51425 0.03648 0.0
H1571 H 0.30118 0.46628 0.05108 0.0
H1572 H 0.30892 0.49013 0.05986 0.0
H1573 H 0.30975 0.48411 0.03184 0.0
H1574 H 0.36108 0.48478 -0.00134 0.0
H1575 H 0.36399 0.51644 0.98024 0.0
H1576 H 0.1957 0.5727 0.76867 0.0
H1577 H 0.22573 0.56925 0.78983 0.0
H1578 H 0.24989 0.62096 0.75978 0.0
H1579 H 0.22003 0.62439 0.73828 0.0
H1580 H 0.27832 0.5902 0.7687 0.0
H1581 H 0.2316 0.60999 0.83843 0.0
H1582 H 0.22389 0.58875 0.82353 0.0
H1583 H 0.22315 0.61266 0.81132 0.0
C1584 C 0.20755 0.58313 0.76624 0.0
C1585 C 0.20537 0.59903 0.75208 0.0
C1586 C 0.22469 0.58112 0.77835 0.0
C1587 C 0.23982 0.59506 0.77662 0.0
C1588 C 0.23832 0.61008 0.76136 0.0
H1589 H 0.3182 0.64487 0.86528 0.0
H1590 H 0.29491 0.63605 0.83738 0.0
C1591 C 0.22122 0.61205 0.74913 0.0
C1592 C 0.25602 0.5955 0.79239 0.0
H1593 H 0.26529 0.60552 0.84475 0.0
C1594 C 0.27553 0.59329 0.78539 0.0
C1595 C 0.25224 0.59977 0.81409 0.0
C1596 C 0.23163 0.60309 0.82236 0.0
C1597 C 0.29142 0.59562 0.79955 0.0
C1598 C 0.28758 0.6002 0.82111 0.0
C1599 C 0.26809 0.60188 0.82818 0.0
C1600 C 0.30339 0.60539 0.83627 0.0
C1601 C 0.31219 0.59402 0.79129 0.0
C1602 C 0.3161 0.59106 0.84465 0.0
C1603 C 0.32953 0.59606 0.86074 0.0
C1604 C 0.33026 0.61542 0.86869 0.0
C1605 C 0.31792 0.62979 0.85967 0.0
C1606 C 0.30462 0.62481 0.84367 0.0
H1607 H 0.31268 0.59214 0.7737 0.0
H1608 H 0.32069 0.60739 0.79567 0.0
H1609 H 0.31955 0.5812 0.79882 0.0
H1610 H 0.31519 0.57594 0.83925 0.0
H1611 H 0.33885 0.58468 0.86741 0.0
H1612 H 0.14941 0.58924 0.62317 0.0
H1613 H 0.15902 0.5653 0.59571 0.0
H1614 H 0.10026 0.54132 0.59603 0.0
H1615 H 0.09059 0.56489 0.62332 0.0
H1616 H 0.13172 0.51336 0.60173 0.0
H1617 H 0.14211 0.56222 0.53126 0.0
H1618 H 0.15398 0.56901 0.55588 0.0
H1619 H 0.12766 0.5696 0.55408 0.0
C1620 C 0.13851 0.57899 0.6172 0.0
C1621 C 0.11926 0.57889 0.62548 0.0
C1622 C 0.14401 0.56539 0.6015 0.0
C1623 C 0.13031 0.55164 0.59385 0.0
C1624 C 0.11103 0.55183 0.60177 0.0
H1625 H 0.1134 0.47095 0.49333 0.0
H1626 H 0.116 0.49968 0.51661 0.0
C1627 C 0.10554 0.56533 0.61738 0.0
C1628 C 0.13599 0.5362 0.57843 0.0
H1629 H 0.14593 0.52812 0.52581 0.0
C1630 C 0.13511 0.51654 0.58518 0.0
C1631 C 0.14028 0.54053 0.5569 0.0
C1632 C 0.14101 0.56145 0.54892 0.0
C1633 C 0.13769 0.50099 0.57079 0.0
C1634 C 0.14159 0.50527 0.54911 0.0
C1635 C 0.14309 0.52495 0.54247 0.0
C1636 C 0.14214 0.48945 0.53292 0.0
C1637 C 0.13518 0.48013 0.57868 0.0
C1638 C 0.1564 0.47456 0.53387 0.0
C1639 C 0.15488 0.45804 0.52069 0.0
C1640 C 0.13912 0.45624 0.50626 0.0
C1641 C 0.12563 0.47183 0.50437 0.0
C1642 C 0.12713 0.48829 0.51761 0.0
H1643 H 0.12858 0.47959 0.59488 0.0
H1644 H 0.1257 0.47154 0.56765 0.0
H1645 H 0.14978 0.47285 0.5794 0.0
H1646 H 0.16828 0.47536 0.54537 0.0
H1647 H 0.16566 0.4464 0.52235 0.0
H1648 H 0.1723 0.64818 0.13021 0.0
H1649 H 0.19546 0.63899 0.15817 0.0
H1650 H 0.17442 0.57916 0.15605 0.0
H1651 H 0.15099 0.58822 0.1278 0.0
H1652 H 0.18321 0.60228 0.2011 0.0
H1653 H 0.24233 0.59733 0.13996 0.0
H1654 H 0.22592 0.61806 0.13805 0.0
H1655 H 0.21664 0.59367 0.13362 0.0
C1656 C 0.17237 0.63309 0.1358 0.0
C1657 C 0.15996 0.61886 0.12662 0.0
C1658 C 0.18558 0.62791 0.15183 0.0
C1659 C 0.18664 0.60843 0.15901 0.0
C1660 C 0.17371 0.59429 0.15066 0.0
H1661 H 0.29443 0.57524 0.22469 0.0
H1662 H 0.26359 0.57186 0.20502 0.0
C1663 C 0.1604 0.59948 0.13454 0.0
C1664 C 0.20249 0.60285 0.17389 0.0
H1665 H 0.25237 0.59835 0.17607 0.0
C1666 C 0.19832 0.60106 0.1957 0.0
C1667 C 0.22208 0.60112 0.16666 0.0
C1668 C 0.22713 0.6025 0.14328 0.0
C1669 C 0.21352 0.59845 0.21066 0.0
C1670 C 0.23328 0.59796 0.20352 0.0
C1671 C 0.23724 0.59878 0.18157 0.0
C1672 C 0.25028 0.59805 0.21835 0.0
C1673 C 0.2083 0.59648 0.23392 0.0
C1674 C 0.2529 0.61367 0.23275 0.0
C1675 C 0.27051 0.61561 0.2441 0.0
C1676 C 0.28591 0.6021 0.241 0.0
C1677 C 0.2829 0.58598 0.22731 0.0
C1678 C 0.26526 0.58398 0.2161 0.0
H1679 H 0.19317 0.59055 0.23597 0.0
H1680 H 0.21882 0.5867 0.24238 0.0
H1681 H 0.20879 0.61123 0.24151 0.0
H1682 H 0.24176 0.62497 0.23437 0.0
H1683 H 0.27241 0.62823 0.25446 0.0
H1684 H 0.10082 0.4031 0.90503 0.0
H1685 H 0.11218 0.42614 0.93222 0.0
H1686 H 0.17107 0.42296 0.90689 0.0
H1687 H 0.15978 0.39975 0.87946 0.0
H1688 H 0.1454 0.42641 0.96398 0.0
H1689 H 0.15089 0.48137 0.89815 0.0
H1690 H 0.13739 0.45866 0.89507 0.0
H1691 H 0.16378 0.45838 0.89525 0.0
C1692 C 0.11629 0.40694 0.9055 0.0
C1693 C 0.12936 0.39985 0.88994 0.0
C1694 C 0.12276 0.42004 0.92112 0.0
C1695 C 0.14238 0.42639 0.92137 0.0
C1696 C 0.15583 0.41828 0.90683 0.0
H1697 H 0.17209 0.53932 0.97973 0.0
H1698 H 0.17686 0.50732 0.96265 0.0
C1699 C 0.14938 0.40499 0.89124 0.0
C1700 C 0.1478 0.44327 0.93505 0.0
H1701 H 0.15376 0.49307 0.93298 0.0
C1702 C 0.14761 0.44096 0.95727 0.0
C1703 C 0.15067 0.46219 0.92618 0.0
C1704 C 0.15063 0.46549 0.90237 0.0
C1705 C 0.14962 0.45725 0.97092 0.0
C1706 C 0.1513 0.47634 0.96204 0.0
C1707 C 0.15246 0.47845 0.9398 0.0
C1708 C 0.15008 0.49451 0.97516 0.0
C1709 C 0.1497 0.45382 0.99468 0.0
C1710 C 0.13358 0.4979 0.98815 0.0
C1711 C 0.13091 0.51612 0.99808 0.0
C1712 C 0.14448 0.53144 0.99487 0.0
C1713 C 0.16131 0.52784 0.98242 0.0
C1714 C 0.16408 0.50954 0.97268 0.0
H1715 H 0.15567 0.43903 -0.00141 0.0
H1716 H 0.15856 0.46512 0.00314 0.0
H1717 H 0.13437 0.45445 0.00072 0.0
H1718 H 0.12227 0.48678 0.98983 0.0
H1719 H 0.11773 0.51847 0.00746 0.0
H1720 H 0.33973 0.40148 0.63575 0.0
H1721 H 0.32006 0.40955 0.66754 0.0
H1722 H 0.27635 0.36708 0.64827 0.0
H1723 H 0.29573 0.35883 0.61703 0.0
H1724 H 0.28108 0.42336 0.67117 0.0
H1725 H 0.28866 0.35068 0.70942 0.0
H1726 H 0.30468 0.35872 0.68815 0.0
H1727 H 0.28102 0.34803 0.68221 0.0
C1728 C 0.32593 0.39388 0.63837 0.0
C1729 C 0.31939 0.37937 0.62399 0.0
C1730 C 0.31475 0.39848 0.6565 0.0
C1731 C 0.297 0.38855 0.66049 0.0
C1732 C 0.29027 0.37452 0.64582 0.0
H1733 H 0.18675 0.40735 0.7102 0.0
H1734 H 0.21883 0.41103 0.69364 0.0
C1735 C 0.30136 0.3699 0.62786 0.0
C1736 C 0.28488 0.39284 0.67954 0.0
H1737 H 0.25887 0.36886 0.71798 0.0
C1738 C 0.27655 0.41161 0.68181 0.0
C1739 C 0.27943 0.37771 0.69385 0.0
C1740 C 0.28911 0.35772 0.69344 0.0
C1741 C 0.26148 0.41508 0.69669 0.0
C1742 C 0.25429 0.39922 0.70911 0.0
C1743 C 0.26404 0.38101 0.70825 0.0
C1744 C 0.2353 0.40019 0.72081 0.0
C1745 C 0.25309 0.43557 0.69844 0.0
C1746 C 0.23366 0.39269 0.74163 0.0
C1747 C 0.21515 0.39008 0.75099 0.0
C1748 C 0.19795 0.395 0.73972 0.0
C1749 C 0.19969 0.40349 0.71937 0.0
C1750 C 0.21813 0.40584 0.70994 0.0
H1751 H 0.2647 0.44679 0.69563 0.0
H1752 H 0.24166 0.43763 0.68599 0.0
H1753 H 0.24639 0.43823 0.71432 0.0
H1754 H 0.24666 0.38812 0.75031 0.0
H1755 H 0.21428 0.3836 0.76674 0.0
H1756 H 0.37155 0.47276 0.50883 0.0
H1757 H 0.36583 0.50446 0.49111 0.0
H1758 H 0.32531 0.47648 0.44769 0.0
H1759 H 0.33065 0.44504 0.46535 0.0
H1760 H 0.37405 0.51204 0.44913 0.0
H1761 H 0.29505 0.52563 0.46408 0.0
H1762 H 0.30917 0.50799 0.47927 0.0
H1763 H 0.29934 0.50146 0.45356 0.0
C1764 C 0.36118 0.47346 0.49573 0.0
C1765 C 0.3516 0.45638 0.48846 0.0
C1766 C 0.35792 0.49157 0.48565 0.0
C1767 C 0.34488 0.4929 0.46831 0.0
C1768 C 0.33503 0.47593 0.46137 0.0
H1769 H 0.32116 0.56059 0.3588 0.0
H1770 H 0.32037 0.53877 0.38973 0.0
C1771 C 0.33828 0.45789 0.47137 0.0
C1772 C 0.34302 0.51141 0.45595 0.0
H1773 H 0.3092 0.5425 0.43379 0.0
C1774 C 0.35995 0.519 0.44614 0.0
C1775 C 0.32458 0.5204 0.45203 0.0
C1776 C 0.30604 0.51356 0.46298 0.0
C1777 C 0.35879 0.53458 0.43151 0.0
C1778 C 0.34022 0.54301 0.42688 0.0
C1779 C 0.32339 0.53599 0.43737 0.0
C1780 C 0.33791 0.55786 0.40978 0.0
C1781 C 0.37729 0.54111 0.4202 0.0
C1782 C 0.34724 0.57623 0.41117 0.0
C1783 C 0.34777 0.58874 0.39348 0.0
C1784 C 0.33891 0.58308 0.37413 0.0
C1785 C 0.32824 0.56536 0.37338 0.0
C1786 C 0.32776 0.55285 0.39106 0.0
H1787 H 0.38969 0.53071 0.42273 0.0
H1788 H 0.37464 0.54254 0.4028 0.0
H1789 H 0.38182 0.55574 0.42636 0.0
H1790 H 0.35485 0.5805 0.42563 0.0
H1791 H 0.35597 0.60238 0.39467 0.0
H1792 H 0.09041 0.32462 0.36023 0.0
H1793 H 0.09397 0.29121 0.34649 0.0
H1794 H 0.11705 0.2722 0.40715 0.0
H1795 H 0.11374 0.30568 0.42103 0.0
H1796 H 0.14188 0.2647 0.37264 0.0
H1797 H 0.06613 0.23834 0.35612 0.0
H1798 H 0.07122 0.26238 0.34555 0.0
H1799 H 0.07124 0.25862 0.37392 0.0
C1800 C 0.0958 0.31325 0.37084 0.0
C1801 C 0.10202 0.31784 0.39164 0.0
C1802 C 0.09772 0.29413 0.36298 0.0
C1803 C 0.10573 0.27926 0.37583 0.0
C1804 C 0.11082 0.28351 0.39702 0.0
H1805 H 0.12226 0.15787 0.33698 0.0
H1806 H 0.1135 0.18799 0.35593 0.0
C1807 C 0.10887 0.30263 0.40492 0.0
C1808 C 0.11104 0.26007 0.36635 0.0
H1809 H 0.09237 0.2206 0.33948 0.0
C1810 C 0.13104 0.25494 0.36557 0.0
C1811 C 0.09686 0.24741 0.35722 0.0
C1812 C 0.07514 0.25184 0.35838 0.0
C1813 C 0.13731 0.23767 0.35541 0.0
C1814 C 0.12321 0.2254 0.34556 0.0
C1815 C 0.10315 0.23023 0.34683 0.0
C1816 C 0.12894 0.20725 0.33417 0.0
C1817 C 0.15894 0.23265 0.3554 0.0
C1818 C 0.14053 0.20813 0.31565 0.0
C1819 C 0.14549 0.19086 0.30474 0.0
C1820 C 0.13883 0.17252 0.31217 0.0
C1821 C 0.1274 0.17178 0.3308 0.0
C1822 C 0.12242 0.18896 0.34165 0.0
H1823 H 0.16714 0.24102 0.36777 0.0
H1824 H 0.1612 0.21666 0.35817 0.0
H1825 H 0.16531 0.23639 0.33962 0.0
H1826 H 0.14548 0.22217 0.30949 0.0
H1827 H 0.15426 0.1919 0.29036 0.0
H1828 H 0.08115 0.87917 0.58837 0.0
H1829 H 0.04954 0.87047 0.60439 0.0
H1830 H 0.01927 0.90112 0.55393 0.0
H1831 H 0.05102 0.90957 0.53751 0.0
H1832 H 0.0096 0.90786 0.60428 0.0
H1833 H 0.00647 0.83168 0.57144 0.0
H1834 H 0.02974 0.84103 0.5809 0.0
H1835 H 0.01874 0.85152 0.55756 0.0
C1836 C 0.06779 0.8839 0.5806 0.0
C1837 C 0.06855 0.89475 0.56156 0.0
C1838 C 0.04978 0.879 0.5898 0.0
C1839 C 0.0322 0.88498 0.58015 0.0
C1840 C 0.03279 0.89631 0.56146 0.0
H1841 H 0.91215 0.85235 0.60926 0.0
H1842 H 0.94399 0.85759 0.59204 0.0
C1843 C 0.05088 0.90117 0.55218 0.0
C1844 C 0.01326 0.8794 0.58983 0.0
H1845 H 0.98175 0.8407 0.59602 0.0
C1846 C 0.00341 0.89323 0.60246 0.0
C1847 C 0.00538 0.86032 0.58727 0.0
C1848 C 0.01549 0.84519 0.57351 0.0
C1849 C 0.98581 0.88838 0.61287 0.0
C1850 C 0.97811 0.8691 0.61076 0.0
C1851 C 0.98783 0.85538 0.59778 0.0
C1852 C 0.95964 0.86322 0.62146 0.0
C1853 C 0.97547 0.90402 0.62579 0.0
C1854 C 0.95816 0.86372 0.64376 0.0
C1855 C 0.93999 0.86084 0.65365 0.0
C1856 C 0.92304 0.85723 0.64138 0.0
C1857 C 0.9249 0.85521 0.61915 0.0
C1858 C 0.94307 0.85822 0.60927 0.0
H1859 H 0.98064 0.91905 0.62158 0.0
H1860 H 0.95929 0.90331 0.62341 0.0
H1861 H 0.97857 0.9016 0.64297 0.0
H1862 H 0.97093 0.86708 0.65345 0.0
H1863 H 0.93908 0.86224 0.67083 0.0
H1864 H 0.36889 0.83038 0.83629 0.0
H1865 H 0.37805 0.79897 0.85233 0.0
H1866 H 0.34442 0.76828 0.80439 0.0
H1867 H 0.3352 0.79986 0.78818 0.0
H1868 H 0.33818 0.75514 0.84694 0.0
H1869 H 0.41769 0.75928 0.82691 0.0
H1870 H 0.40815 0.78058 0.84039 0.0
H1871 H 0.3994 0.77456 0.81414 0.0
C1872 C 0.36353 0.81697 0.82912 0.0
C1873 C 0.35154 0.81758 0.81088 0.0
C1874 C 0.36882 0.79903 0.83824 0.0
C1875 C 0.36225 0.78134 0.82925 0.0
C1876 C 0.34978 0.78183 0.8114 0.0
H1877 H 0.3972 0.66159 0.85485 0.0
H1878 H 0.39319 0.69443 0.83954 0.0
C1879 C 0.34449 0.79985 0.80222 0.0
C1880 C 0.36809 0.76237 0.83886 0.0
H1881 H 0.40795 0.7337 0.85057 0.0
C1882 C 0.35341 0.75041 0.84769 0.0
C1883 C 0.38798 0.75625 0.83964 0.0
C1884 C 0.40423 0.76823 0.82961 0.0
C1885 C 0.35812 0.73254 0.85762 0.0
C1886 C 0.37806 0.72668 0.85894 0.0
C1887 C 0.39273 0.73845 0.84978 0.0
C1888 C 0.38368 0.70788 0.86904 0.0
C1889 C 0.34171 0.71993 0.86639 0.0
C1890 C 0.38059 0.70491 0.8909 0.0
C1891 C 0.38287 0.68618 0.89973 0.0
C1892 C 0.38824 0.67016 0.88677 0.0
C1893 C 0.39285 0.67358 0.86522 0.0
C1894 C 0.39059 0.69232 0.85643 0.0
H1895 H 0.32708 0.72457 0.86029 0.0
H1896 H 0.34406 0.70421 0.86223 0.0
H1897 H 0.34152 0.72115 0.88403 0.0
H1898 H 0.37555 0.71688 0.90092 0.0
H1899 H 0.37937 0.68408 0.91642 0.0
H1900 H 0.4411 0.09041 0.03966 0.0
H1901 H 0.47126 0.09871 0.05933 0.0
H1902 H 0.43633 0.11944 0.11216 0.0
H1903 H 0.4063 0.11076 0.09279 0.0
H1904 H 0.46654 0.14641 0.09692 0.0
H1905 H 0.49418 0.0709 0.11359 0.0
H1906 H 0.4875 0.07582 0.08634 0.0
H1907 H 0.46886 0.07584 0.10662 0.0
C1908 C 0.4399 0.09652 0.05556 0.0
C1909 C 0.42138 0.10029 0.06463 0.0
C1910 C 0.45709 0.10126 0.06675 0.0
C1911 C 0.45595 0.10971 0.08715 0.0
C1912 C 0.43749 0.11306 0.09637 0.0
H1913 H 0.55433 0.12427 0.17408 0.0
H1914 H 0.52106 0.1198 0.16001 0.0
C1915 C 0.42038 0.10825 0.08526 0.0
C1916 C 0.47396 0.11563 0.09869 0.0
H1917 H 0.51547 0.09741 0.122 0.0
C1918 C 0.47724 0.13573 0.10249 0.0
C1919 C 0.48766 0.1016 0.10615 0.0
C1920 C 0.48439 0.0798 0.10317 0.0
C1921 C 0.49422 0.14223 0.11313 0.0
C1922 C 0.50821 0.12823 0.12001 0.0
C1923 C 0.50468 0.1081 0.11666 0.0
C1924 C 0.52709 0.13403 0.12988 0.0
C1925 C 0.49706 0.16396 0.11698 0.0
C1926 C 0.54128 0.14405 0.1178 0.0
C1927 C 0.56031 0.1466 0.12575 0.0
C1928 C 0.56547 0.13908 0.14588 0.0
C1929 C 0.55084 0.13021 0.15851 0.0
C1930 C 0.53184 0.12758 0.15049 0.0
H1931 H 0.48299 0.1722 0.11556 0.0
H1932 H 0.50341 0.16665 0.13303 0.0
H1933 H 0.50746 0.16989 0.10495 0.0
H1934 H 0.53795 0.14893 0.10175 0.0
H1935 H 0.57122 0.15355 0.11566 0.0
H1936 H 0.12675 0.8341 0.15786 0.0
H1937 H 0.117 0.80396 0.13939 0.0
H1938 H 0.14517 0.76935 0.18832 0.0
H1939 H 0.15495 0.79958 0.20691 0.0
H1940 H 0.15382 0.75734 0.14637 0.0
H1941 H 0.07331 0.76594 0.15878 0.0
H1942 H 0.0853 0.78681 0.14691 0.0
H1943 H 0.09131 0.77979 0.17375 0.0
C1944 C 0.13074 0.82008 0.16473 0.0
C1945 C 0.14135 0.81919 0.18394 0.0
C1946 C 0.12514 0.80288 0.15421 0.0
C1947 C 0.13001 0.78446 0.16275 0.0
C1948 C 0.14112 0.78347 0.1816 0.0
H1949 H 0.09129 0.66701 0.13473 0.0
H1950 H 0.09544 0.70008 0.1494 0.0
C1951 C 0.14674 0.80072 0.19216 0.0
C1952 C 0.12384 0.7662 0.15178 0.0
H1953 H 0.08351 0.73978 0.13626 0.0
C1954 C 0.13847 0.75349 0.14413 0.0
C1955 C 0.10377 0.76123 0.14905 0.0
C1956 C 0.08748 0.77404 0.1577 0.0
C1957 C 0.13357 0.73591 0.13371 0.0
C1958 C 0.11351 0.7311 0.13064 0.0
C1959 C 0.09885 0.74372 0.13841 0.0
C1960 C 0.10768 0.71236 0.12049 0.0
C1961 C 0.14989 0.72239 0.12647 0.0
C1962 C 0.11229 0.70867 0.09908 0.0
C1963 C 0.10995 0.68979 0.09062 0.0
C1964 C 0.10301 0.67433 0.10351 0.0
C1965 C 0.09687 0.67853 0.12444 0.0
C1966 C 0.0992 0.69742 0.13286 0.0
H1967 H 0.16429 0.72641 0.13366 0.0
H1968 H 0.14649 0.70688 0.13067 0.0
H1969 H 0.15134 0.72332 0.10888 0.0
H1970 H 0.11858 0.72015 0.08922 0.0
H1971 H 0.11465 0.68709 0.07438 0.0
H1972 H 0.5521 0.87187 0.32765 0.0
H1973 H 0.52005 0.87488 0.34488 0.0
H1974 H 0.53891 0.83537 0.39466 0.0
H1975 H 0.57122 0.8325 0.37775 0.0
H1976 H 0.49036 0.84943 0.3586 0.0
H1977 H 0.52748 0.88706 0.42629 0.0
H1978 H 0.53984 0.88184 0.40148 0.0
H1979 H 0.53627 0.86264 0.42082 0.0
C1980 C 0.54935 0.86349 0.34204 0.0
C1981 C 0.56435 0.85228 0.3516 0.0
C1982 C 0.531 0.86524 0.35186 0.0
C1983 C 0.52735 0.85577 0.37131 0.0
C1984 C 0.54166 0.84318 0.3799 0.0
H1985 H 0.41449 0.85709 0.43669 0.0
H1986 H 0.44443 0.84744 0.41787 0.0
C1987 C 0.56007 0.84149 0.37016 0.0
C1988 C 0.50927 0.8605 0.38339 0.0
H1989 H 0.49319 0.88239 0.42916 0.0
C1990 C 0.49092 0.85655 0.37407 0.0
C1991 C 0.51014 0.8702 0.40334 0.0
C1992 C 0.52946 0.87588 0.41354 0.0
C1993 C 0.47335 0.86195 0.38426 0.0
C1994 C 0.47422 0.8712 0.40448 0.0
C1995 C 0.49258 0.8752 0.41373 0.0
C1996 C 0.45626 0.877 0.41627 0.0
C1997 C 0.45406 0.85818 0.37301 0.0
C1998 C 0.45336 0.89668 0.42245 0.0
C1999 C 0.4363 0.90218 0.43342 0.0
C2000 C 0.42188 0.88806 0.43815 0.0
C2001 C 0.4251 0.86832 0.43253 0.0
C2002 C 0.44219 0.86281 0.4218 0.0
H2003 H 0.45615 0.85634 0.35555 0.0
H2004 H 0.44744 0.8444 0.37925 0.0
H2005 H 0.4435 0.87039 0.37575 0.0
H2006 H 0.46418 0.90783 0.41853 0.0
H2007 H 0.43417 0.91747 0.43772 0.0
H2008 H 0.41041 0.30455 0.58654 0.0
H2009 H 0.40852 0.27188 0.60334 0.0
H2010 H 0.34639 0.28017 0.61405 0.0
H2011 H 0.34801 0.31235 0.59731 0.0
H2012 H 0.39583 0.26295 0.6454 0.0
H2013 H 0.34897 0.22614 0.58526 0.0
H2014 H 0.3621 0.24871 0.5798 0.0
H2015 H 0.33893 0.24929 0.59369 0.0
C2016 C 0.39633 0.29928 0.59228 0.0
C2017 C 0.37936 0.31103 0.59051 0.0
C2018 C 0.39529 0.28068 0.6019 0.0
C2019 C 0.37725 0.27354 0.60961 0.0
C2020 C 0.36037 0.28523 0.6078 0.0
H2021 H 0.34415 0.19151 0.70717 0.0
H2022 H 0.35356 0.22026 0.68579 0.0
C2023 C 0.36138 0.30372 0.59831 0.0
C2024 C 0.37583 0.25426 0.62047 0.0
H2025 H 0.34931 0.21165 0.62023 0.0
C2026 C 0.38592 0.25156 0.63976 0.0
C2027 C 0.3631 0.23934 0.61293 0.0
C2028 C 0.35281 0.24091 0.59166 0.0
C2029 C 0.3828 0.23471 0.65229 0.0
C2030 C 0.36895 0.22047 0.64548 0.0
C2031 C 0.35967 0.22273 0.62563 0.0
C2032 C 0.36361 0.2032 0.6587 0.0
C2033 C 0.3943 0.23237 0.67272 0.0
C2034 C 0.36543 0.18417 0.65028 0.0
C2035 C 0.35973 0.16787 0.66229 0.0
C2036 C 0.35224 0.17021 0.68297 0.0
C2037 C 0.35004 0.18928 0.6913 0.0
C2038 C 0.35564 0.20567 0.67921 0.0
H2039 H 0.40818 0.24103 0.67235 0.0
H2040 H 0.38531 0.23786 0.68624 0.0
H2041 H 0.39796 0.21669 0.67575 0.0
H2042 H 0.37124 0.18193 0.63438 0.0
H2043 H 0.36095 0.15339 0.65532 0.0
H2044 H 0.07686 0.1327 0.92707 0.0
H2045 H 0.0465 0.14076 0.90813 0.0
H2046 H 0.02658 0.08084 0.91572 0.0
H2047 H 0.05691 0.07282 0.93507 0.0
H2048 H 0.03161 0.12671 0.87156 0.0
H2049 H 0.98006 0.11138 0.93793 0.0
H2050 H 0.00633 0.11281 0.94177 0.0
H2051 H 0.99529 0.09064 0.93155 0.0
C2052 C 0.06606 0.12123 0.92457 0.0
C2053 C 0.06926 0.10212 0.93239 0.0
C2054 C 0.04869 0.12587 0.91384 0.0
C2055 C 0.03417 0.11148 0.91073 0.0
C2056 C 0.0374 0.0923 0.91837 0.0
H2057 H 0.93857 0.11229 0.82032 0.0
H2058 H 0.97071 0.1102 0.83759 0.0
C2059 C 0.05474 0.0877 0.92932 0.0
C2060 C 0.0158 0.11657 0.89924 0.0
H2061 H 0.96579 0.11598 0.90361 0.0
C2062 C 0.01721 0.12449 0.8786 0.0
C2063 C -0.00296 0.11405 0.90862 0.0
C2064 C 0.99455 0.10696 0.93126 0.0
C2065 C 0.00033 0.12948 0.86687 0.0
C2066 C 0.98156 0.12601 0.87585 0.0
C2067 C 0.98018 0.11853 0.89667 0.0
C2068 C 0.96305 0.12941 0.86387 0.0
C2069 C 0.00281 0.13866 0.84513 0.0
C2070 C 0.94805 0.14094 0.87283 0.0
C2071 C 0.92956 0.1419 0.86317 0.0
C2072 C 0.92577 0.13139 0.84431 0.0
C2073 C 0.9411 0.12068 0.83475 0.0
C2074 C 0.95953 0.11954 0.84456 0.0
H2075 H 0.01728 0.14617 0.84365 0.0
H2076 H 0.00219 0.12695 0.83282 0.0
H2077 H 0.99098 0.1495 0.84177 0.0
H2078 H 0.95045 0.14868 0.88772 0.0
H2079 H 0.91806 0.15036 0.87085 0.0
H2080 H 0.88401 0.82818 0.67732 0.0
H2081 H 0.89283 0.7979 0.65875 0.0
H2082 H 0.83549 0.77382 0.67275 0.0
H2083 H 0.82684 0.80404 0.69205 0.0
H2084 H 0.86323 0.74741 0.67964 0.0
H2085 H 0.87644 0.78094 0.60047 0.0
H2086 H 0.89146 0.79178 0.62083 0.0
H2087 H 0.8651 0.79432 0.62204 0.0
C2088 C 0.8732 0.81652 0.67622 0.0
C2089 C 0.85464 0.81854 0.68581 0.0
C2090 C 0.87824 0.79924 0.66553 0.0
C2091 C 0.86464 0.78378 0.66383 0.0
C2092 C 0.84615 0.78564 0.6737 0.0
H2093 H 0.8682 0.6846 0.57866 0.0
H2094 H 0.86425 0.71681 0.59522 0.0
C2095 C 0.84122 0.80286 0.68472 0.0
C2096 C 0.86997 0.76544 0.65237 0.0
H2097 H 0.88709 0.74775 0.60489 0.0
C2098 C 0.86837 0.74748 0.66326 0.0
C2099 C 0.87649 0.76553 0.63092 0.0
C2100 C 0.87729 0.78416 0.61781 0.0
C2101 C 0.87315 0.7296 0.65337 0.0
C2102 C 0.88039 0.72976 0.63219 0.0
C2103 C 0.8819 0.74771 0.62124 0.0
C2104 C 0.88505 0.71129 0.62067 0.0
C2105 C 0.86978 0.71069 0.66549 0.0
C2106 C 0.8988 0.69783 0.62887 0.0
C2107 C 0.90094 0.67926 0.61956 0.0
C2108 C 0.88961 0.674 0.60169 0.0
C2109 C 0.87709 0.68813 0.59248 0.0
C2110 C 0.87479 0.70658 0.60194 0.0
H2111 H 0.8595 0.71281 0.67907 0.0
H2112 H 0.8637 0.69907 0.65492 0.0
H2113 H 0.884 0.7054 0.67204 0.0
H2114 H 0.90733 0.70142 0.64293 0.0
H2115 H 0.91089 0.66878 0.62685 0.0
H2116 H 0.07406 0.14532 0.38477 0.0
H2117 H 0.04118 0.14122 0.39988 0.0
H2118 H 0.02006 0.11927 0.33957 0.0
H2119 H 0.05297 0.1232 0.32426 0.0
H2120 H 0.00209 0.1547 0.38711 0.0
H2121 H 0.01208 0.07344 0.38351 0.0
H2122 H 0.03233 0.09045 0.38065 0.0
H2123 H 0.0156 0.08655 0.35889 0.0
C2124 C 0.06237 0.13994 0.37458 0.0
C2125 C 0.06619 0.13429 0.35341 0.0
C2126 C 0.04359 0.13763 0.38325 0.0
C2127 C 0.02838 0.1296 0.37092 0.0
C2128 C 0.03176 0.12522 0.34938 0.0
H2129 H 0.90629 0.11547 0.40839 0.0
H2130 H 0.93683 0.12363 0.3899 0.0
C2131 C 0.05053 0.12757 0.34066 0.0
C2132 C 0.0095 0.12441 0.38113 0.0
H2133 H 0.98174 0.08507 0.39673 0.0
C2134 C -0.00245 0.13951 0.38914 0.0
C2135 C 0.00389 0.10453 0.38405 0.0
C2136 C 0.01667 0.08774 0.3765 0.0
C2137 C 0.97995 0.13524 0.39989 0.0
C2138 C 0.97417 0.11536 0.40248 0.0
C2139 C 0.98621 0.10028 0.3946 0.0
C2140 C 0.95569 0.10993 0.4134 0.0
C2141 C 0.96786 0.15198 0.40875 0.0
C2142 C 0.95616 0.09895 0.43236 0.0
C2143 C 0.93867 0.09424 0.44295 0.0
C2144 C 0.92047 0.10041 0.43465 0.0
C2145 C 0.92009 0.11086 0.41533 0.0
C2146 C 0.93752 0.11556 0.40477 0.0
H2147 H 0.97653 0.16582 0.40987 0.0
H2148 H 0.95512 0.15472 0.39809 0.0
H2149 H 0.96209 0.14828 0.42482 0.0
H2150 H 0.97008 0.09434 0.43915 0.0
H2151 H 0.93941 0.08613 0.4578 0.0
H2152 H 0.59263 0.32483 0.13243 0.0
H2153 H 0.59737 0.29188 0.14724 0.0
H2154 H 0.61992 0.27177 0.08682 0.0
H2155 H 0.61528 0.30469 0.07179 0.0
H2156 H 0.58532 0.25154 0.13296 0.0
H2157 H 0.66594 0.26631 0.13216 0.0
H2158 H 0.64788 0.28567 0.12974 0.0
H2159 H 0.65297 0.26992 0.10745 0.0
C2160 C 0.59821 0.31331 0.12213 0.0
C2161 C 0.60387 0.31744 0.10103 0.0
C2162 C 0.60088 0.2945 0.13063 0.0
C2163 C 0.6093 0.27958 0.11819 0.0
C2164 C 0.61361 0.28323 0.09669 0.0
H2165 H 0.63018 0.15783 0.15359 0.0
H2166 H 0.62076 0.18822 0.1353 0.0
C2167 C 0.61086 0.30202 0.08813 0.0
C2168 C 0.61526 0.26088 0.1283 0.0
H2169 H 0.65571 0.23528 0.14481 0.0
C2170 C 0.60068 0.24788 0.13548 0.0
C2171 C 0.63533 0.25643 0.13183 0.0
C2172 C 0.6515 0.27033 0.12506 0.0
C2173 C 0.6057 0.23033 0.14598 0.0
C2174 C 0.62579 0.22575 0.14923 0.0
C2175 C 0.64034 0.23885 0.14219 0.0
C2176 C 0.63201 0.20742 0.15999 0.0
C2177 C 0.58949 0.21701 0.15388 0.0
C2178 C 0.64206 0.2082 0.17954 0.0
C2179 C 0.64736 0.19081 0.19005 0.0
C2180 C 0.64268 0.17245 0.18107 0.0
C2181 C 0.63335 0.17179 0.1611 0.0
C2182 C 0.62803 0.18911 0.15065 0.0
H2183 H 0.57505 0.22468 0.15441 0.0
H2184 H 0.58808 0.20422 0.14298 0.0
H2185 H 0.59293 0.21132 0.17006 0.0
H2186 H 0.64542 0.22224 0.18687 0.0
H2187 H 0.65461 0.19174 0.2054 0.0
H2188 H 0.41751 0.84368 0.88567 0.0
H2189 H 0.45032 0.84877 0.9007 0.0
H2190 H 0.47118 0.86913 0.83967 0.0
H2191 H 0.4384 0.86422 0.82445 0.0
H2192 H 0.48975 0.8357 0.88866 0.0
H2193 H 0.47822 0.91653 0.88174 0.0
H2194 H 0.45833 0.89903 0.87952 0.0
H2195 H 0.47492 0.90265 0.85759 0.0
C2196 C 0.42915 0.84889 0.87531 0.0
C2197 C 0.42526 0.85385 0.85395 0.0
C2198 C 0.44788 0.85177 0.88394 0.0
C2199 C 0.46298 0.85969 0.87138 0.0
C2200 C 0.45957 0.8633 0.84967 0.0
H2201 H 0.58542 0.87697 0.90453 0.0
H2202 H 0.55436 0.86758 0.88788 0.0
C2203 C 0.44085 0.86039 0.841 0.0
C2204 C 0.48176 0.86561 0.88138 0.0
H2205 H 0.50919 0.90596 0.89448 0.0
C2206 C 0.49407 0.85103 0.88991 0.0
C2207 C 0.48709 0.88566 0.8833 0.0
C2208 C 0.47392 0.90194 0.87523 0.0
C2209 C 0.51182 0.85601 0.90004 0.0
C2210 C 0.51738 0.87605 0.90147 0.0
C2211 C 0.50491 0.89062 0.89322 0.0
C2212 C 0.53617 0.88218 0.91135 0.0
C2213 C 0.52433 0.83983 0.90941 0.0
C2214 C 0.53624 0.89407 0.92967 0.0
C2215 C 0.55404 0.89953 0.93921 0.0
C2216 C 0.57202 0.89326 0.93047 0.0
C2217 C 0.57184 0.88184 0.91177 0.0
C2218 C 0.55409 0.87638 0.90229 0.0
H2219 H 0.51583 0.826 0.91162 0.0
H2220 H 0.53676 0.83666 0.89847 0.0
H2221 H 0.53056 0.84435 0.92504 0.0
H2222 H 0.5225 0.89882 0.93677 0.0
H2223 H 0.55369 0.90836 0.95359 0.0
H2224 H 0.88239 0.30041 0.92298 0.0
H2225 H 0.87916 0.26831 0.90566 0.0
H2226 H 0.88851 0.29552 0.84434 0.0
H2227 H 0.89242 0.32743 0.86152 0.0
H2228 H 0.85046 0.25924 0.87864 0.0
H2229 H 0.92186 0.24726 0.83838 0.0
H2230 H 0.91851 0.26589 0.85856 0.0
H2231 H 0.91126 0.27055 0.8314 0.0
C2232 C 0.88427 0.29945 0.90586 0.0
C2233 C 0.88757 0.31645 0.8936 0.0
C2234 C 0.88236 0.28112 0.89599 0.0
C2235 C 0.88368 0.27949 0.87371 0.0
C2236 C 0.88786 0.29632 0.86156 0.0
H2237 H 0.8258 0.18714 0.79935 0.0
H2238 H 0.83445 0.21851 0.81644 0.0
C2239 C 0.89 0.3146 0.87144 0.0
C2240 C 0.87867 0.2607 0.86304 0.0
H2241 H 0.89485 0.22758 0.82613 0.0
C2242 C 0.86024 0.25221 0.8673 0.0
C2243 C 0.89149 0.2515 0.84834 0.0
C2244 C 0.91196 0.25917 0.84406 0.0
C2245 C 0.85417 0.23486 0.85712 0.0
C2246 C 0.86664 0.22612 0.84176 0.0
C2247 C 0.88516 0.2345 0.83766 0.0
C2248 C 0.86135 0.20758 0.83074 0.0
C2249 C 0.83469 0.22584 0.86333 0.0
C2250 C 0.87391 0.19132 0.83246 0.0
C2251 C 0.8692 0.17367 0.82246 0.0
C2252 C 0.85171 0.17172 0.81068 0.0
C2253 C 0.83926 0.18812 0.80855 0.0
C2254 C 0.84411 0.20597 0.81844 0.0
H2255 H 0.82956 0.23128 0.87908 0.0
H2256 H 0.82343 0.22988 0.85129 0.0
H2257 H 0.8357 0.20954 0.86398 0.0
H2258 H 0.88737 0.19224 0.8417 0.0
H2259 H 0.87939 0.16155 0.82389 0.0
H2260 H 0.41194 0.14533 0.60678 0.0
H2261 H 0.44476 0.14173 0.59132 0.0
H2262 H 0.46748 0.12345 0.65238 0.0
H2263 H 0.43467 0.12691 0.66804 0.0
H2264 H 0.4838 0.15712 0.603 0.0
H2265 H 0.47606 0.07585 0.61046 0.0
H2266 H 0.45537 0.0924 0.61262 0.0
H2267 H 0.47225 0.08981 0.63447 0.0
C2268 C 0.42398 0.1409 0.61704 0.0
C2269 C 0.42066 0.1361 0.63856 0.0
C2270 C 0.4427 0.13887 0.60817 0.0
C2271 C 0.45835 0.13197 0.62065 0.0
C2272 C 0.45544 0.12852 0.64247 0.0
H2273 H 0.58091 0.11955 0.58702 0.0
H2274 H 0.54949 0.1279 0.60347 0.0
C2275 C 0.43672 0.1306 0.65139 0.0
C2276 C 0.47725 0.1269 0.61043 0.0
H2277 H 0.50622 0.08779 0.59695 0.0
C2278 C 0.48877 0.142 0.60169 0.0
C2279 C 0.48341 0.1071 0.60846 0.0
C2280 C 0.4711 0.09028 0.61682 0.0
C2281 C 0.50656 0.1378 0.5913 0.0
C2282 C 0.51295 0.11802 0.58978 0.0
C2283 C 0.50127 0.10292 0.59823 0.0
C2284 C 0.53193 0.11274 0.57983 0.0
C2285 C 0.51827 0.1545 0.58177 0.0
C2286 C 0.53248 0.10095 0.56145 0.0
C2287 C 0.55051 0.09614 0.55201 0.0
C2288 C 0.56822 0.10298 0.56093 0.0
C2289 C 0.56754 0.11435 0.57963 0.0
C2290 C 0.54959 0.11917 0.58901 0.0
H2291 H 0.50917 0.16796 0.5797 0.0
H2292 H 0.53069 0.15818 0.59255 0.0
H2293 H 0.52449 0.15025 0.56606 0.0
H2294 H 0.51895 0.09571 0.55427 0.0
H2295 H 0.55057 0.08731 0.53762 0.0
H2296 H 0.64553 0.80356 0.28497 0.0
H2297 H 0.63687 0.77235 0.30244 0.0
H2298 H 0.62397 0.80366 0.36062 0.0
H2299 H 0.6329 0.83471 0.34335 0.0
H2300 H 0.65227 0.7549 0.34028 0.0
H2301 H 0.57278 0.77271 0.3481 0.0
H2302 H 0.58903 0.78602 0.33044 0.0
H2303 H 0.58921 0.79107 0.35856 0.0
C2304 C 0.64101 0.8037 0.30153 0.0
C2305 C 0.63937 0.82153 0.31273 0.0
C2306 C 0.63598 0.78594 0.31144 0.0
C2307 C 0.62927 0.78583 0.33262 0.0
C2308 C 0.62854 0.80352 0.34407 0.0
H2309 H 0.61919 0.6881 0.41966 0.0
H2310 H 0.62369 0.72054 0.40354 0.0
C2311 C 0.63357 0.82121 0.3342 0.0
C2312 C 0.62319 0.76721 0.34289 0.0
H2313 H 0.58403 0.74394 0.36599 0.0
C2314 C 0.63735 0.75246 0.34583 0.0
C2315 C 0.60366 0.76408 0.34997 0.0
C2316 C 0.58771 0.77922 0.34648 0.0
C2317 C 0.63258 0.73475 0.35608 0.0
C2318 C 0.6132 0.73184 0.36365 0.0
C2319 C 0.59891 0.74639 0.36034 0.0
C2320 C 0.60766 0.71351 0.37476 0.0
C2321 C 0.64826 0.7192 0.3587 0.0
C2322 C 0.59636 0.69922 0.36425 0.0
C2323 C 0.59375 0.68064 0.37339 0.0
C2324 C 0.60241 0.67612 0.39317 0.0
C2325 C 0.61246 0.69103 0.40433 0.0
C2326 C 0.6151 0.70956 0.39515 0.0
H2327 H 0.66146 0.72231 0.3488 0.0
H2328 H 0.6529 0.71861 0.37566 0.0
H2329 H 0.64241 0.70447 0.35432 0.0
H2330 H 0.59044 0.70211 0.34852 0.0
H2331 H 0.58583 0.66953 0.36444 0.0
H2332 H 0.9076 0.87553 0.0917 0.0
H2333 H 0.93808 0.86713 0.1102 0.0
H2334 H 0.97076 0.90328 0.06614 0.0
H2335 H 0.94016 0.91172 0.04751 0.0
H2336 H 0.97127 0.84836 0.09215 0.0
H2337 H 0.98936 0.92186 0.12569 0.0
H2338 H 0.96515 0.91571 0.11581 0.0
H2339 H 0.98459 0.92167 0.0975 0.0
C2340 C 0.92125 0.88172 0.086 0.0
C2341 C 0.92148 0.89418 0.06814 0.0
C2342 C 0.93864 0.87693 0.09659 0.0
C2343 C 0.95662 0.88468 0.08961 0.0
C2344 C 0.95696 0.89737 0.07194 0.0
H2345 H 0.07545 0.84813 0.1119 0.0
H2346 H 0.04196 0.8521 0.0985 0.0
C2347 C 0.9395 0.90214 0.0613 0.0
C2348 C 0.97505 0.8789 0.10045 0.0
H2349 H 0.01403 0.89722 0.12836 0.0
C2350 C 0.9806 0.859 0.10017 0.0
C2351 C 0.98696 0.89279 0.11116 0.0
C2352 C 0.98118 0.91419 0.11279 0.0
C2353 C -0.00188 0.85269 0.10984 0.0
C2354 C 0.0104 0.86671 0.11984 0.0
C2355 C 0.00457 0.88652 0.12061 0.0
C2356 C 0.02984 0.86144 0.12875 0.0
C2357 C 0.00332 0.83111 0.10935 0.0
C2358 C 0.03404 0.8651 0.15028 0.0
C2359 C 0.0532 0.8629 0.15801 0.0
C2360 C 0.0685 0.85723 0.14422 0.0
C2361 C 0.06401 0.85257 0.12293 0.0
C2362 C 0.04485 0.85473 0.11524 0.0
H2363 H 0.99014 0.82178 0.10648 0.0
H2364 H 0.01391 0.8284 0.09621 0.0
H2365 H 0.01033 0.82646 0.12453 0.0
H2366 H 0.02263 0.87033 0.16093 0.0
H2367 H 0.05616 0.86658 0.17451 0.0
H2368 H 0.66432 0.69014 0.79318 0.0
H2369 H 0.65635 0.72223 0.80888 0.0
H2370 H 0.61147 0.69505 0.84758 0.0
H2371 H 0.61918 0.66314 0.83185 0.0
H2372 H 0.59909 0.72968 0.8266 0.0
H2373 H 0.66954 0.73996 0.87027 0.0
H2374 H 0.6721 0.73475 0.84231 0.0
H2375 H 0.6619 0.71643 0.85976 0.0
C2376 C 0.65283 0.691 0.8051 0.0
C2377 C 0.64245 0.67408 0.81141 0.0
C2378 C 0.64833 0.70931 0.81408 0.0
C2379 C 0.63346 0.71092 0.82952 0.0
C2380 C 0.62303 0.69409 0.83572 0.0
H2381 H 0.61611 0.81043 0.91362 0.0
H2382 H 0.61841 0.77719 0.89895 0.0
C2383 C 0.62751 0.67585 0.82679 0.0
C2384 C 0.62859 0.73015 0.83917 0.0
H2385 H 0.6475 0.76696 0.86992 0.0
C2386 C 0.60963 0.73786 0.83612 0.0
C2387 C 0.64231 0.74055 0.85182 0.0
C2388 C 0.66255 0.73247 0.85645 0.0
C2389 C 0.60412 0.75595 0.8451 0.0
C2390 C 0.61804 0.76662 0.85722 0.0
C2391 C 0.63689 0.75874 0.86055 0.0
C2392 C 0.61367 0.78623 0.86628 0.0
C2393 C 0.58343 0.76339 0.84177 0.0
C2394 C 0.60976 0.80222 0.85278 0.0
C2395 C 0.60839 0.82124 0.86111 0.0
C2396 C 0.6111 0.82457 0.88304 0.0
C2397 C 0.61404 0.80838 0.89664 0.0
C2398 C 0.61538 0.78937 0.8883 0.0
H2399 H 0.57324 0.75132 0.83717 0.0
H2400 H 0.57773 0.7706 0.85642 0.0
H2401 H 0.58343 0.77445 0.82875 0.0
H2402 H 0.6087 0.80013 0.8357 0.0
H2403 H 0.60612 0.83339 0.85021 0.0
H2404 H 0.55014 0.41041 0.04186 0.0
H2405 H 0.51956 0.4021 0.06068 0.0
H2406 H 0.55275 0.36879 0.10689 0.0
H2407 H 0.58317 0.37717 0.08829 0.0
H2408 H 0.52006 0.34838 0.08901 0.0
H2409 H 0.50028 0.42264 0.11948 0.0
H2410 H 0.50538 0.42135 0.09139 0.0
H2411 H 0.52472 0.41661 0.11023 0.0
C2412 C 0.5509 0.40149 0.05615 0.0
C2413 C 0.56902 0.39422 0.06354 0.0
C2414 C 0.53346 0.39678 0.06688 0.0
C2415 C 0.53397 0.38488 0.08518 0.0
C2416 C 0.55206 0.37792 0.09274 0.0
H2417 H 0.43685 0.36677 0.17285 0.0
H2418 H 0.4699 0.37079 0.15805 0.0
C2419 C 0.56941 0.38264 0.08208 0.0
C2420 C 0.51564 0.37908 0.09617 0.0
H2421 H 0.47661 0.39735 0.12399 0.0
C2422 C 0.51056 0.35905 0.09673 0.0
C2423 C 0.5035 0.39303 0.10645 0.0
C2424 C 0.50876 0.4146 0.10708 0.0
C2425 C 0.49335 0.35263 0.10693 0.0
C2426 C 0.48091 0.36666 0.11665 0.0
C2427 C 0.48621 0.38664 0.11647 0.0
C2428 C 0.46187 0.36118 0.12634 0.0
C2429 C 0.48865 0.33093 0.10736 0.0
C2430 C 0.44661 0.35392 0.11351 0.0
C2431 C 0.42772 0.35161 0.12188 0.0
C2432 C 0.42378 0.35665 0.14321 0.0
C2433 C 0.43939 0.36279 0.15635 0.0
C2434 C 0.45827 0.36515 0.14793 0.0
H2435 H 0.50191 0.32182 0.10419 0.0
H2436 H 0.48235 0.32659 0.123 0.0
H2437 H 0.47759 0.32762 0.09484 0.0
H2438 H 0.44906 0.35101 0.09674 0.0
H2439 H 0.41603 0.34681 0.11135 0.0
H2440 H 0.85775 0.33178 0.34142 0.0
H2441 H 0.86686 0.30062 0.35845 0.0
H2442 H 0.85248 0.26944 0.30062 0.0
H2443 H 0.84343 0.30068 0.28342 0.0
H2444 H 0.83959 0.26348 0.35954 0.0
H2445 H 0.91265 0.25527 0.32025 0.0
H2446 H 0.90122 0.27903 0.32418 0.0
H2447 H 0.89193 0.26265 0.30416 0.0
C2448 C 0.85668 0.31829 0.33233 0.0
C2449 C 0.85016 0.31861 0.31108 0.0
C2450 C 0.86178 0.30055 0.34207 0.0
C2451 C 0.86056 0.28288 0.33065 0.0
C2452 C 0.85368 0.28304 0.30955 0.0
H2453 H 0.88578 0.16144 0.35555 0.0
H2454 H 0.88228 0.19428 0.34029 0.0
C2455 C 0.84841 0.30081 0.29983 0.0
C2456 C 0.86617 0.26423 0.341 0.0
H2457 H 0.90229 0.22938 0.34269 0.0
C2458 C 0.85331 0.25601 0.35598 0.0
C2459 C 0.88407 0.25467 0.33618 0.0
C2460 C 0.89841 0.2633 0.32039 0.0
C2461 C 0.85767 0.23808 0.366 0.0
C2462 C 0.87566 0.22848 0.3613 0.0
C2463 C 0.8886 0.23685 0.34639 0.0
C2464 C 0.88064 0.20915 0.37075 0.0
C2465 C 0.84264 0.22927 0.38094 0.0
C2466 C 0.88184 0.20674 0.39294 0.0
C2467 C 0.88366 0.18793 0.40176 0.0
C2468 C 0.88456 0.17128 0.38848 0.0
C2469 C 0.88496 0.17394 0.36624 0.0
C2470 C 0.88297 0.19271 0.35747 0.0
H2471 H 0.82785 0.23594 0.37872 0.0
H2472 H 0.8414 0.21312 0.37854 0.0
H2473 H 0.84726 0.23197 0.39766 0.0
H2474 H 0.88062 0.21933 0.40345 0.0
H2475 H 0.88357 0.18639 0.41895 0.0
H2476 H 0.93883 0.59449 0.53194 0.0
H2477 H 0.97029 0.60401 0.54847 0.0
H2478 H 0.94025 0.61607 0.60759 0.0
H2479 H 0.90896 0.60641 0.59128 0.0
H2480 H 0.97671 0.64438 0.57207 0.0
H2481 H 0.98822 0.57635 0.62002 0.0
H2482 H 0.97361 0.57656 0.59593 0.0
H2483 H 0.96394 0.58696 0.62003 0.0
C2484 C 0.93903 0.59899 0.54851 0.0
C2485 C 0.92151 0.59996 0.56035 0.0
C2486 C 0.95691 0.60453 0.55785 0.0
C2487 C 0.95746 0.61078 0.57917 0.0
C2488 C 0.94005 0.61132 0.5911 0.0
H2489 H 0.05032 0.63668 0.66875 0.0
H2490 H 0.01824 0.63328 0.6515 0.0
C2491 C 0.92222 0.60594 0.58176 0.0
C2492 C 0.97616 0.61689 0.58911 0.0
H2493 H 0.01018 0.60262 0.62587 0.0
C2494 C 0.98415 0.63528 0.58377 0.0
C2495 C 0.98556 0.60501 0.60448 0.0
C2496 C 0.97754 0.58504 0.61047 0.0
C2497 C 0.00132 0.64225 0.59372 0.0
C2498 C 0.01085 0.63027 0.60903 0.0
C2499 C 0.00279 0.61185 0.61425 0.0
C2500 C 0.02958 0.63604 0.6194 0.0
C2501 C 0.0088 0.66251 0.58812 0.0
C2502 C 0.04649 0.63941 0.6071 0.0
C2503 C 0.06481 0.64159 0.61693 0.0
C2504 C 0.06656 0.64005 0.63921 0.0
C2505 C 0.04946 0.63782 0.65155 0.0
C2506 C 0.03112 0.63584 0.64172 0.0
H2507 H -0.00312 0.67194 0.58158 0.0
H2508 H 0.01529 0.66995 0.60223 0.0
H2509 H 0.02037 0.66118 0.57572 0.0
H2510 H 0.04573 0.63924 0.58985 0.0
H2511 H 0.07772 0.64322 0.60696 0.0
H2512 H 0.62252 0.33465 0.65994 0.0
H2513 H 0.61407 0.30343 0.64299 0.0
H2514 H 0.64619 0.27216 0.69169 0.0
H2515 H 0.65476 0.30349 0.70878 0.0
H2516 H 0.65382 0.25932 0.64959 0.0
H2517 H 0.57362 0.26358 0.66604 0.0
H2518 H 0.58367 0.28487 0.65299 0.0
H2519 H 0.59142 0.27885 0.6796 0.0
C2520 C 0.62773 0.32115 0.66709 0.0
C2521 C 0.63911 0.32153 0.6858 0.0
C2522 C 0.62283 0.30332 0.65743 0.0
C2523 C 0.62916 0.28551 0.66636 0.0
C2524 C 0.64102 0.28579 0.68469 0.0
H2525 H 0.59387 0.16611 0.639 0.0
H2526 H 0.59812 0.19884 0.65456 0.0
C2527 C 0.64594 0.30368 0.69439 0.0
C2528 C 0.62364 0.26663 0.6563 0.0
H2529 H 0.58419 0.23801 0.64283 0.0
C2530 C 0.63862 0.25462 0.64814 0.0
C2531 C 0.60378 0.26053 0.65463 0.0
C2532 C 0.58718 0.27252 0.66394 0.0
C2533 C 0.63425 0.23674 0.63803 0.0
C2534 C 0.61436 0.2309 0.63584 0.0
C2535 C 0.59939 0.24273 0.6443 0.0
C2536 C 0.60905 0.21209 0.62554 0.0
C2537 C 0.65095 0.22407 0.63005 0.0
C2538 C 0.61296 0.20903 0.60384 0.0
C2539 C 0.61054 0.19038 0.59487 0.0
C2540 C 0.60419 0.1745 0.60751 0.0
C2541 C 0.59895 0.17799 0.62887 0.0
C2542 C 0.60135 0.19667 0.63781 0.0
H2543 H 0.66534 0.22868 0.63683 0.0
H2544 H 0.64839 0.20836 0.63411 0.0
H2545 H 0.65185 0.22528 0.61244 0.0
H2546 H 0.61862 0.2209 0.59407 0.0
H2547 H 0.61456 0.18822 0.57833 0.0
H2548 H 0.91236 0.35555 0.93177 0.0
H2549 H 0.94315 0.34515 0.91527 0.0
H2550 H 0.96708 0.40335 0.92486 0.0
H2551 H 0.93618 0.41369 0.94179 0.0
H2552 H 0.96087 0.35782 0.88011 0.0
H2553 H 0.01011 0.3695 0.94937 0.0
H2554 H 0.98365 0.37016 0.95166 0.0
H2555 H -0.0031 0.39136 0.94212 0.0
C2556 C 0.92412 0.36616 0.93018 0.0
C2557 C 0.92183 0.38547 0.93777 0.0
C2558 C 0.94176 0.36017 0.92089 0.0
C2559 C 0.95751 0.37339 0.91903 0.0
C2560 C 0.95527 0.39276 0.92657 0.0
H2561 H 0.05581 0.36909 0.8342 0.0
H2562 H 0.02315 0.37133 0.84992 0.0
C2563 C 0.93762 0.3987 0.93611 0.0
C2564 C 0.97602 0.36692 0.90867 0.0
H2565 H 0.0257 0.36406 0.9158 0.0
C2566 C 0.97504 0.35904 0.88798 0.0
C2567 C 0.99444 0.36808 0.91911 0.0
C2568 C -0.00364 0.37503 0.94187 0.0
C2569 C 0.99205 0.35289 0.87719 0.0
C2570 C 0.01058 0.35514 0.88716 0.0
C2571 C 0.01149 0.36244 0.9081 0.0
C2572 C 0.02933 0.35124 0.87587 0.0
C2573 C 0.98994 0.34393 0.85529 0.0
C2574 C 0.04368 0.33903 0.88509 0.0
C2575 C 0.06254 0.33792 0.87627 0.0
C2576 C 0.06736 0.34905 0.85811 0.0
C2577 C 0.05259 0.36028 0.84816 0.0
C2578 C 0.03382 0.3615 0.85708 0.0
H2579 H 0.97525 0.33699 0.85321 0.0
H2580 H 0.99136 0.35569 0.84311 0.0
H2581 H 0.00145 0.33267 0.85228 0.0
H2582 H 0.04052 0.33098 0.8996 0.0
H2583 H 0.07356 0.32906 0.88424 0.0
H2584 H 0.87404 0.80598 0.07662 0.0
H2585 H 0.87042 0.77274 0.09118 0.0
H2586 H 0.89174 0.79299 0.15211 0.0
H2587 H 0.89553 0.82621 0.13774 0.0
H2588 H 0.90569 0.75421 0.13858 0.0
H2589 H 0.82439 0.7636 0.13466 0.0
H2590 H 0.83761 0.76768 0.11022 0.0
H2591 H 0.84124 0.78404 0.13235 0.0
C2592 C 0.87836 0.80329 0.09299 0.0
C2593 C 0.8848 0.81878 0.10613 0.0
C2594 C 0.87618 0.78432 0.10129 0.0
C2595 C 0.88046 0.78059 0.12279 0.0
C2596 C 0.88824 0.79567 0.1355 0.0
H2597 H 0.83678 0.68968 0.20722 0.0
H2598 H 0.84523 0.72078 0.18953 0.0
C2599 C 0.89037 0.81463 0.12726 0.0
C2600 C 0.87538 0.76148 0.13257 0.0
H2601 H 0.83621 0.73314 0.14737 0.0
C2602 C 0.89053 0.74951 0.14044 0.0
C2603 C 0.85554 0.75567 0.13526 0.0
C2604 C 0.83869 0.76843 0.12785 0.0
C2605 C 0.88636 0.73168 0.1508 0.0
C2606 C 0.86652 0.72571 0.15317 0.0
C2607 C 0.85138 0.73777 0.14544 0.0
C2608 C 0.86117 0.70698 0.16366 0.0
C2609 C 0.90315 0.71958 0.15952 0.0
C2610 C 0.86696 0.68902 0.15467 0.0
C2611 C 0.86213 0.67134 0.16468 0.0
C2612 C 0.85138 0.67127 0.18381 0.0
C2613 C 0.84513 0.68927 0.19252 0.0
C2614 C 0.84997 0.70701 0.18247 0.0
H2615 H 0.9169 0.72834 0.16093 0.0
H2616 H 0.89941 0.71346 0.17544 0.0
H2617 H 0.90606 0.70706 0.1486 0.0
H2618 H 0.8752 0.68866 0.13989 0.0
H2619 H 0.86678 0.6577 0.15743 0.0
H2620 H 0.55359 0.59364 0.46396 0.0
H2621 H 0.52149 0.60128 0.44786 0.0
H2622 H 0.5502 0.61644 0.38881 0.0
H2623 H 0.58221 0.60873 0.4047 0.0
H2624 H 0.51359 0.64257 0.42409 0.0
H2625 H 0.50344 0.57348 0.37737 0.0
H2626 H 0.51772 0.57412 0.40169 0.0
H2627 H 0.5274 0.58487 0.3778 0.0
C2628 C 0.553 0.59841 0.4475 0.0
C2629 C 0.57034 0.60083 0.43559 0.0
C2630 C 0.53473 0.60286 0.43839 0.0
C2631 C 0.53363 0.60947 0.41724 0.0
C2632 C 0.55085 0.6114 0.40519 0.0
H2633 H 0.43446 0.63024 0.33325 0.0
H2634 H 0.46777 0.6278 0.34779 0.0
C2635 C 0.56907 0.60711 0.4143 0.0
C2636 C 0.51451 0.61474 0.40774 0.0
H2637 H 0.47945 0.59815 0.37331 0.0
C2638 C 0.50603 0.63291 0.41301 0.0
C2639 C 0.50501 0.60215 0.39312 0.0
C2640 C 0.51371 0.58249 0.38711 0.0
C2641 C 0.48813 0.63888 0.40392 0.0
C2642 C 0.47834 0.62608 0.38961 0.0
C2643 C 0.48701 0.60797 0.38423 0.0
C2644 C 0.45867 0.63061 0.38072 0.0
C2645 C 0.48007 0.65893 0.40943 0.0
C2646 C 0.44258 0.63347 0.39438 0.0
C2647 C 0.42357 0.63504 0.38612 0.0
C2648 C 0.42028 0.63344 0.36405 0.0
C2649 C 0.43651 0.63144 0.35033 0.0
C2650 C 0.45554 0.63002 0.35861 0.0
H2651 H 0.49194 0.66909 0.41469 0.0
H2652 H 0.47232 0.66563 0.39563 0.0
H2653 H 0.46944 0.65747 0.42276 0.0
H2654 H 0.44458 0.63354 0.41151 0.0
H2655 H 0.41138 0.63651 0.39713 0.0
H2656 H 0.39865 0.16721 0.13592 0.0
H2657 H 0.39388 0.20014 0.15069 0.0
H2658 H 0.37078 0.22004 0.0904 0.0
H2659 H 0.37528 0.18708 0.07548 0.0
H2660 H 0.40592 0.23909 0.13846 0.0
H2661 H 0.325 0.22757 0.13356 0.0
H2662 H 0.34243 0.20773 0.1305 0.0
H2663 H 0.33816 0.22459 0.10893 0.0
C2664 C 0.39289 0.17866 0.12564 0.0
C2665 C 0.38701 0.17444 0.10463 0.0
C2666 C 0.39019 0.19747 0.13413 0.0
C2667 C 0.38157 0.21233 0.12175 0.0
C2668 C 0.3771 0.20861 0.10029 0.0
H2669 H 0.36537 0.33459 0.15759 0.0
H2670 H 0.37443 0.3039 0.13986 0.0
C2671 C 0.37978 0.18979 0.09178 0.0
C2672 C 0.37588 0.23116 0.13181 0.0
H2673 H 0.33584 0.25851 0.14607 0.0
C2674 C 0.39063 0.24341 0.14009 0.0
C2675 C 0.35587 0.23649 0.13422 0.0
C2676 C 0.3394 0.22337 0.12652 0.0
C2677 C 0.38588 0.26106 0.15053 0.0
C2678 C 0.36589 0.2666 0.15249 0.0
C2679 C 0.35115 0.25424 0.14441 0.0
C2680 C 0.35995 0.28519 0.16294 0.0
C2681 C 0.40227 0.27343 0.15973 0.0
C2682 C 0.3482 0.28487 0.18136 0.0
C2683 C 0.34297 0.30245 0.19149 0.0
C2684 C 0.34939 0.32059 0.18328 0.0
C2685 C 0.3606 0.32083 0.16447 0.0
C2686 C 0.3658 0.30331 0.15436 0.0
H2687 H 0.41609 0.26485 0.16159 0.0
H2688 H 0.40532 0.28595 0.14886 0.0
H2689 H 0.39804 0.27953 0.17551 0.0
H2690 H 0.34339 0.27099 0.18809 0.0
H2691 H 0.33427 0.30182 0.20595 0.0
H2692 H 0.55487 0.62321 0.82207 0.0
H2693 H 0.52173 0.61802 0.83619 0.0
H2694 H 0.5393 0.64379 0.89607 0.0
H2695 H 0.57243 0.64912 0.88213 0.0
H2696 H 0.51577 0.59378 0.8728 0.0
H2697 H 0.48479 0.66877 0.88374 0.0
H2698 H 0.50511 0.66373 0.86598 0.0
H2699 H 0.50918 0.66539 0.89422 0.0
C2700 C 0.55157 0.62823 0.83806 0.0
C2701 C 0.56633 0.63643 0.85105 0.0
C2702 C 0.53265 0.62519 0.84611 0.0
C2703 C 0.52811 0.63054 0.86713 0.0
C2704 C 0.54246 0.63977 0.87972 0.0
H2705 H 0.43999 0.58385 0.95337 0.0
H2706 H 0.47065 0.59216 0.9347 0.0
C2707 C 0.56141 0.64274 0.87173 0.0
C2708 C 0.50913 0.62458 0.87666 0.0
H2709 H 0.46766 0.64238 0.90046 0.0
C2710 C 0.50517 0.60439 0.87872 0.0
C2711 C 0.49538 0.63848 0.8843 0.0
C2712 C 0.49868 0.66032 0.88183 0.0
C2713 C 0.48792 0.59769 0.88862 0.0
C2714 C 0.47443 0.61159 0.89679 0.0
C2715 C 0.47819 0.63179 0.89434 0.0
C2716 C 0.4561 0.60549 0.90759 0.0
C2717 C 0.48416 0.57585 0.89013 0.0
C2718 C 0.43788 0.61014 0.89845 0.0
C2719 C 0.42048 0.60536 0.909 0.0
C2720 C 0.42094 0.59609 0.929 0.0
C2721 C 0.4392 0.59097 0.93794 0.0
C2722 C 0.45668 0.5957 0.92731 0.0
H2723 H 0.49382 0.56734 0.87921 0.0
H2724 H 0.48707 0.57086 0.90668 0.0
H2725 H 0.46857 0.57243 0.88631 0.0
H2726 H 0.43714 0.61759 0.88319 0.0
H2727 H 0.40661 0.60904 0.90159 0.0
H2728 H 0.08513 0.82408 0.62819 0.0
H2729 H 0.0891 0.79126 0.64368 0.0
H2730 H 0.12622 0.77444 0.59095 0.0
H2731 H 0.12178 0.80691 0.57501 0.0
H2732 H 0.1034 0.74427 0.60362 0.0
H2733 H 0.14017 0.77822 0.67352 0.0
H2734 H 0.11545 0.78676 0.66966 0.0
H2735 H 0.13394 0.79206 0.64994 0.0
C2736 C 0.09382 0.81325 0.61969 0.0
C2737 C 0.10339 0.81816 0.60056 0.0
C2738 C 0.09621 0.79458 0.62865 0.0
C2739 C 0.10849 0.78067 0.61881 0.0
C2740 C 0.11686 0.78504 0.59892 0.0
H2741 H 0.16696 0.68466 0.68568 0.0
H2742 H 0.15919 0.71523 0.66651 0.0
C2743 C 0.11426 0.80361 0.58981 0.0
C2744 C 0.11366 0.76207 0.62977 0.0
H2745 H 0.13428 0.74388 0.67532 0.0
C2746 C 0.11017 0.74416 0.61929 0.0
C2747 C 0.12298 0.762 0.64998 0.0
C2748 C 0.12856 0.78078 0.66135 0.0
C2749 C 0.11543 0.72614 0.62862 0.0
C2750 C 0.12388 0.72604 0.64927 0.0
C2751 C 0.12764 0.74397 0.65959 0.0
C2752 C 0.12872 0.70751 0.6606 0.0
C2753 C 0.11229 0.70746 0.61601 0.0
C2754 C 0.11412 0.69327 0.66401 0.0
C2755 C 0.11861 0.67583 0.67462 0.0
C2756 C 0.13768 0.67243 0.68242 0.0
C2757 C 0.15217 0.68693 0.67971 0.0
C2758 C 0.14774 0.70433 0.66877 0.0
H2759 H 0.11195 0.71043 0.59859 0.0
H2760 H 0.12403 0.6965 0.61928 0.0
H2761 H 0.09791 0.7009 0.62046 0.0
H2762 H 0.09917 0.6957 0.65861 0.0
H2763 H 0.10704 0.66512 0.67707 0.0
H2764 H 0.93588 0.36319 0.32316 0.0
H2765 H 0.969 0.36773 0.33747 0.0
H2766 H 0.95068 0.34236 0.39727 0.0
H2767 H 0.91751 0.33764 0.38311 0.0
H2768 H 0.9742 0.39227 0.37367 0.0
H2769 H 0.00556 0.31766 0.38643 0.0
H2770 H 0.98545 0.32229 0.36824 0.0
H2771 H 0.981 0.32109 0.39644 0.0
C2772 C 0.93899 0.35809 0.33917 0.0
C2773 C 0.92399 0.35028 0.3521 0.0
C2774 C 0.95793 0.36073 0.34731 0.0
C2775 C 0.96223 0.3554 0.3684 0.0
C2776 C 0.94769 0.34636 0.38086 0.0
H2777 H 0.04931 0.40436 0.45447 0.0
H2778 H 0.01883 0.3948 0.43612 0.0
C2779 C 0.92871 0.34374 0.37275 0.0
C2780 C 0.98104 0.36158 0.37816 0.0
H2781 H 0.02245 0.34447 0.40269 0.0
C2782 C 0.98483 0.38183 0.3799 0.0
C2783 C 0.9948 0.34789 0.38621 0.0
C2784 C 0.99165 0.326 0.38412 0.0
C2785 C 0.00195 0.3888 0.38982 0.0
C2786 C 0.01548 0.37514 0.39836 0.0
C2787 C 0.01189 0.35487 0.39628 0.0
C2788 C 0.03368 0.38161 0.40914 0.0
C2789 C 0.00554 0.4107 0.39096 0.0
C2790 C 0.05198 0.37743 0.39994 0.0
C2791 C 0.06927 0.38295 0.41029 0.0
C2792 C 0.06861 0.39249 0.43013 0.0
C2793 C 0.05025 0.39705 0.43915 0.0
C2794 C 0.03288 0.39159 0.42873 0.0
H2795 H -0.00423 0.41899 0.37995 0.0
H2796 H 0.00266 0.4159 0.40744 0.0
H2797 H 0.02109 0.41417 0.38703 0.0
H2798 H 0.05287 0.36987 0.38475 0.0
H2799 H 0.08322 0.37975 0.40281 0.0
H2800 H 0.40336 0.82495 0.37082 0.0
H2801 H 0.39906 0.79348 0.35242 0.0
H2802 H 0.37166 0.7691 0.40849 0.0
H2803 H 0.37572 0.8005 0.42701 0.0
H2804 H 0.40956 0.75279 0.36249 0.0
H2805 H 0.32897 0.76668 0.3604 0.0
H2806 H 0.34666 0.78572 0.36642 0.0
H2807 H 0.34004 0.76797 0.38639 0.0
C2808 C 0.39675 0.81279 0.3794 0.0
C2809 C 0.38957 0.81533 0.40025 0.0
C2810 C 0.39432 0.79483 0.36884 0.0
C2811 C 0.38465 0.77919 0.37898 0.0
C2812 C 0.37883 0.78117 0.40031 0.0
H2813 H 0.36774 0.65877 0.34109 0.0
H2814 H 0.37687 0.68967 0.35818 0.0
C2815 C 0.38127 0.7991 0.41089 0.0
C2816 C 0.37933 0.76134 0.36679 0.0
H2817 H 0.33981 0.73556 0.34804 0.0
C2818 C 0.39434 0.749 0.35926 0.0
C2819 C 0.35946 0.75672 0.36227 0.0
C2820 C 0.34282 0.77002 0.3691 0.0
C2821 C 0.38993 0.73177 0.34785 0.0
C2822 C 0.37001 0.72676 0.34408 0.0
C2823 C 0.35505 0.7394 0.35108 0.0
C2824 C 0.36436 0.7081 0.33355 0.0
C2825 C 0.40662 0.71914 0.33981 0.0
C2826 C 0.35371 0.70822 0.31435 0.0
C2827 C 0.34838 0.69049 0.30452 0.0
C2828 C 0.35354 0.6724 0.31387 0.0
C2829 C 0.36378 0.67243 0.33335 0.0
C2830 C 0.3691 0.69008 0.3431 0.0
H2831 H 0.42063 0.72754 0.33889 0.0
H2832 H 0.40887 0.70664 0.35093 0.0
H2833 H 0.40323 0.71304 0.32379 0.0
H2834 H 0.34973 0.72203 0.30685 0.0
H2835 H 0.34046 0.69095 0.28954 0.0
H2836 H 0.05297 0.58689 0.03814 0.0
H2837 H 0.02175 0.59547 0.05554 0.0
H2838 H 0.05367 0.61993 0.10877 0.0
H2839 H 0.08475 0.61119 0.09158 0.0
H2840 H 0.00752 0.58425 0.09655 0.0
H2841 H 0.01705 0.66526 0.08967 0.0
H2842 H 0.03132 0.64797 0.07419 0.0
H2843 H 0.03738 0.65246 0.10164 0.0
C2844 C 0.05328 0.594 0.0536 0.0
C2845 C 0.07126 0.59878 0.06339 0.0
C2846 C 0.03549 0.59895 0.06346 0.0
C2847 C 0.03547 0.60875 0.08318 0.0
C2848 C 0.05339 0.61287 0.09329 0.0
H2849 H 0.93748 0.62168 0.17054 0.0
H2850 H 0.97032 0.61755 0.15519 0.0
C2851 C 0.07111 0.60792 0.08347 0.0
C2852 C 0.01673 0.61442 0.09342 0.0
H2853 H 0.99014 0.65405 0.11059 0.0
C2854 C 0.00368 0.59949 0.0996 0.0
C2855 C 0.01179 0.63435 0.09723 0.0
C2856 C 0.02501 0.65098 0.09019 0.0
C2857 C 0.98587 0.60396 0.10977 0.0
C2858 C 0.98113 0.62385 0.11399 0.0
C2859 C 0.99402 0.63882 0.10755 0.0
C2860 C 0.96236 0.62924 0.12429 0.0
C2861 C 0.97209 0.5874 0.11569 0.0
C2862 C 0.94739 0.63804 0.11225 0.0
C2863 C 0.92862 0.64042 0.12094 0.0
C2864 C 0.9246 0.63408 0.14184 0.0
C2865 C 0.94006 0.6266 0.15436 0.0
C2866 C 0.9588 0.62416 0.14561 0.0
H2867 H 0.97628 0.5733 0.10795 0.0
H2868 H 0.97243 0.58523 0.13322 0.0
H2869 H 0.95674 0.59107 0.11109 0.0
H2870 H 0.94995 0.64214 0.09579 0.0
H2871 H 0.91707 0.64638 0.11094 0.0
H2872 H 0.14305 0.30346 0.79002 0.0
H2873 H 0.13529 0.27374 0.81056 0.0
H2874 H 0.12869 0.30883 0.86741 0.0
H2875 H 0.13663 0.33856 0.84695 0.0
H2876 H 0.15387 0.25817 0.84768 0.0
H2877 H 0.07579 0.27869 0.86258 0.0
H2878 H 0.09059 0.29052 0.84238 0.0
H2879 H 0.09386 0.29679 0.86995 0.0
C2880 C 0.14009 0.30479 0.80693 0.0
C2881 C 0.13997 0.32331 0.81688 0.0
C2882 C 0.13559 0.28785 0.8186 0.0
C2883 C 0.13095 0.2892 0.84036 0.0
C2884 C 0.1317 0.30757 0.85051 0.0
H2885 H 0.12071 0.19169 0.92949 0.0
H2886 H 0.12506 0.22458 0.91427 0.0
C2887 C 0.13618 0.3245 0.83884 0.0
C2888 C 0.1254 0.27133 0.8524 0.0
H2889 H 0.08724 0.24928 0.87869 0.0
C2890 C 0.13934 0.25624 0.85452 0.0
C2891 C 0.10637 0.26889 0.8612 0.0
C2892 C 0.09069 0.28448 0.85883 0.0
C2893 C 0.13477 0.23874 0.86527 0.0
C2894 C 0.1158 0.23632 0.87409 0.0
C2895 C 0.10181 0.25135 0.872 0.0
C2896 C 0.11021 0.21776 0.88469 0.0
C2897 C 0.15011 0.22275 0.86688 0.0
C2898 C 0.09981 0.20337 0.87332 0.0
C2899 C 0.09736 0.18455 0.88189 0.0
C2900 C 0.10526 0.17987 0.902 0.0
C2901 C 0.11448 0.19479 0.91395 0.0
C2902 C 0.11701 0.21358 0.9053 0.0
H2903 H 0.16357 0.22624 0.85756 0.0
H2904 H 0.15435 0.22071 0.88383 0.0
H2905 H 0.14398 0.20856 0.86109 0.0
H2906 H 0.09447 0.20641 0.85737 0.0
H2907 H 0.09009 0.17343 0.87233 0.0
H2908 H 0.55245 0.37106 0.6763 0.0
H2909 H 0.51869 0.37334 0.66301 0.0
H2910 H 0.53741 0.35061 0.60211 0.0
H2911 H 0.57114 0.34811 0.61526 0.0
H2912 H 0.5092 0.39746 0.62839 0.0
H2913 H 0.4861 0.32034 0.61357 0.0
H2914 H 0.50648 0.32662 0.63081 0.0
H2915 H 0.50964 0.32647 0.60235 0.0
C2916 C 0.54932 0.36612 0.66023 0.0
C2917 C 0.56451 0.35956 0.64676 0.0
C2918 C 0.53003 0.36746 0.65267 0.0
C2919 C 0.52556 0.36207 0.63163 0.0
C2920 C 0.54049 0.35456 0.61851 0.0
H2921 H 0.43582 0.40487 0.54647 0.0
H2922 H 0.46624 0.39761 0.5659 0.0
C2923 C 0.55979 0.35325 0.62603 0.0
C2924 C 0.50591 0.36637 0.62262 0.0
H2925 H 0.46672 0.34553 0.59713 0.0
C2926 C 0.49981 0.38609 0.62175 0.0
C2927 C 0.49369 0.35149 0.61408 0.0
C2928 C 0.49919 0.33001 0.61539 0.0
C2929 C 0.48203 0.39141 0.61198 0.0
C2930 C 0.4702 0.37663 0.60266 0.0
C2931 C 0.47598 0.35684 0.60411 0.0
C2932 C 0.45182 0.38146 0.5912 0.0
C2933 C 0.47603 0.4128 0.6117 0.0
C2934 C 0.43372 0.37467 0.59897 0.0
C2935 C 0.41635 0.37884 0.58797 0.0
C2936 C 0.4168 0.38966 0.56885 0.0
C2937 C 0.43497 0.39657 0.56118 0.0
C2938 C 0.45235 0.39245 0.57226 0.0
H2939 H 0.48422 0.42154 0.62377 0.0
H2940 H 0.47923 0.41909 0.59575 0.0
H2941 H 0.46001 0.41437 0.61474 0.0
H2942 H 0.43304 0.36617 0.61356 0.0
H2943 H 0.40258 0.37344 0.59442 0.0
H2944 H 0.16582 0.07403 0.27775 0.0
H2945 H 0.16845 0.04068 0.26332 0.0
H2946 H 0.10529 0.03802 0.25688 0.0
H2947 H 0.10261 0.07157 0.27061 0.0
H2948 H 0.15221 0.0081 0.28256 0.0
H2949 H 0.12366 0.0158 0.20023 0.0
H2950 H 0.13136 0.03668 0.21598 0.0
H2951 H 0.10738 0.02601 0.21983 0.0
C2952 C 0.15256 0.06661 0.27253 0.0
C2953 C 0.13401 0.07549 0.27503 0.0
C2954 C 0.15407 0.04749 0.26451 0.0
C2955 C 0.13709 0.03696 0.25886 0.0
C2956 C 0.11862 0.04602 0.26073 0.0
H2957 H 0.10431 0.91902 0.22595 0.0
H2958 H 0.10608 0.95259 0.23994 0.0
C2959 C 0.1171 0.06515 0.26868 0.0
C2960 C 0.13843 0.01596 0.25279 0.0
H2961 H 0.12493 0.98311 0.21437 0.0
C2962 C 0.14648 0.00263 0.26754 0.0
C2963 C 0.1309 0.00892 0.23322 0.0
C2964 C 0.12302 0.02263 0.21632 0.0
C2965 C 0.1466 0.98231 0.26349 0.0
C2966 C 0.13857 0.97528 0.24419 0.0
C2967 C 0.13089 0.98862 0.22927 0.0
C2968 C 0.13786 0.9541 0.23899 0.0
C2969 C 0.15475 0.96844 0.28007 0.0
C2970 C 0.1552 0.94375 0.23439 0.0
C2971 C 0.15424 0.92459 0.22635 0.0
C2972 C 0.13591 0.91555 0.22281 0.0
C2973 C 0.11863 0.92562 0.22851 0.0
C2974 C 0.11961 0.94477 0.23647 0.0
H2975 H 0.15719 0.97589 0.29562 0.0
H2976 H 0.14462 0.95581 0.28251 0.0
H2977 H 0.16905 0.96249 0.27446 0.0
H2978 H 0.16941 0.95084 0.23596 0.0
H2979 H 0.16778 0.91734 0.22173 0.0
H2980 H 0.16659 0.85456 0.51831 0.0
H2981 H 0.19993 0.8563 0.50357 0.0
H2982 H 0.20045 0.91913 0.51313 0.0
H2983 H 0.16728 0.9175 0.52825 0.0
H2984 H 0.21939 0.89852 0.47076 0.0
H2985 H 0.24401 0.8746 0.55149 0.0
H2986 H 0.22351 0.86193 0.53949 0.0
H2987 H 0.22092 0.88719 0.54725 0.0
C2988 C 0.17361 0.86881 0.51671 0.0
C2989 C 0.16437 0.8859 0.52438 0.0
C2990 C 0.19259 0.86977 0.5083 0.0
C2991 C 0.20256 0.88781 0.50748 0.0
C2992 C 0.19287 0.90511 0.51362 0.0
H2993 H 0.32311 0.91497 0.46963 0.0
H2994 H 0.28909 0.91802 0.48185 0.0
C2995 C 0.17388 0.90416 0.52208 0.0
C2996 C 0.22379 0.88821 0.5028 0.0
H2997 H 0.26842 0.8779 0.52509 0.0
C2998 C 0.23018 0.89415 0.48259 0.0
C2999 C 0.23765 0.88246 0.51839 0.0
C3000 C 0.23132 0.87626 0.54046 0.0
C3001 C 0.25026 0.894 0.47734 0.0
C3002 C 0.26418 0.88818 0.49295 0.0
C3003 C 0.25771 0.88246 0.51324 0.0
C3004 C 0.28543 0.88691 0.48814 0.0
C3005 C 0.25636 0.89943 0.45496 0.0
C3006 C 0.29495 0.86861 0.48889 0.0
C3007 C 0.31448 0.86686 0.48229 0.0
C3008 C 0.32482 0.88342 0.47488 0.0
C3009 C 0.3156 0.90195 0.4754 0.0
C3010 C 0.29608 0.90369 0.48207 0.0
H3011 H 0.24371 0.89914 0.44373 0.0
H3012 H 0.26253 0.91455 0.45498 0.0
H3013 H 0.26788 0.88925 0.44897 0.0
H3014 H 0.28701 0.85552 0.49374 0.0
H3015 H 0.32122 0.85241 0.48215 0.0
H3016 H 0.32822 0.91737 0.77799 0.0
H3017 H 0.32731 0.95009 0.76179 0.0
H3018 H 0.39019 0.94809 0.75266 0.0
H3019 H 0.3912 0.91529 0.7688 0.0
H3020 H 0.37655 0.98092 0.77588 0.0
H3021 H 0.33466 0.97084 0.70049 0.0
H3022 H 0.32337 0.96054 0.72388 0.0
H3023 H 0.34621 0.95059 0.71436 0.0
C3024 C 0.34175 0.92359 0.77182 0.0
C3025 C 0.35976 0.91373 0.77443 0.0
C3026 C 0.34121 0.94232 0.76264 0.0
C3027 C 0.35867 0.95141 0.75594 0.0
C3028 C 0.37656 0.94125 0.75771 0.0
H3029 H 0.38041 0.06114 0.69242 0.0
H3030 H 0.37943 0.02713 0.70479 0.0
C3031 C 0.37711 0.92254 0.76687 0.0
C3032 C 0.3586 0.97223 0.74916 0.0
H3033 H 0.34121 0.00374 0.71122 0.0
C3034 C 0.36886 0.98592 0.76172 0.0
C3035 C 0.3485 0.97863 0.73072 0.0
C3036 C 0.33767 0.9644 0.71644 0.0
C3037 C 0.36926 0.00594 0.75633 0.0
C3038 C 0.35907 0.01234 0.738 0.0
C3039 C 0.34885 -0.00132 0.72538 0.0
C3040 C 0.35973 0.03305 0.73107 0.0
C3041 C 0.38081 0.02011 0.77 0.0
C3042 C 0.34901 0.04758 0.7419 0.0
C3043 C 0.34941 0.06708 0.73477 0.0
C3044 C 0.36069 0.07232 0.7169 0.0
C3045 C 0.37169 0.05768 0.70638 0.0
C3046 C 0.37108 0.03821 0.71331 0.0
H3047 H 0.38986 0.01241 0.78218 0.0
H3048 H 0.39063 0.02926 0.75991 0.0
H3049 H 0.37048 0.03017 0.77831 0.0
H3050 H 0.34017 0.04377 0.75567 0.0
H3051 H 0.34093 0.07805 0.74317 0.0
H3052 H 0.16804 0.07512 0.96713 0.0
H3053 H 0.20151 0.07215 0.98122 0.0
H3054 H 0.20118 0.13375 0.99778 0.0
H3055 H 0.16763 0.13682 0.98402 0.0
H3056 H 0.23243 0.11911 0.96794 0.0
H3057 H 0.22596 0.07641 0.04349 0.0
H3058 H 0.21217 0.06813 0.02064 0.0
H3059 H 0.20588 0.09101 0.03313 0.0
C3060 C 0.17483 0.08787 0.97444 0.0
C3061 C 0.16523 0.10622 0.97448 0.0
C3062 C 0.19397 0.08616 0.98239 0.0
C3063 C 0.20373 0.10274 0.99047 0.0
C3064 C 0.19382 0.1208 0.99159 0.0
H3065 H 0.31911 0.13872 0.02783 0.0
H3066 H 0.28593 0.13592 0.01318 0.0
C3067 C 0.17468 0.12252 0.98374 0.0
C3068 C 0.2249 0.10187 0.99557 0.0
H3069 H 0.2579 0.08503 0.03222 0.0
C3070 C 0.23806 0.11163 0.98196 0.0
C3071 C 0.23208 0.09184 0.01366 0.0
C3072 C 0.21837 0.08128 0.02872 0.0
C3073 C 0.25832 0.11185 0.98613 0.0
C3074 C 0.26548 0.10245 0.00469 0.0
C3075 C 0.25235 0.09223 0.018 0.0
C3076 C 0.28631 0.10409 0.01135 0.0
C3077 C 0.27184 0.12205 0.97058 0.0
C3078 C 0.29753 0.08713 0.01522 0.0
C3079 C 0.31645 0.08869 0.0238 0.0
C3080 C 0.32443 0.10726 0.02864 0.0
C3081 C 0.3134 0.12423 0.0241 0.0
C3082 C 0.29448 0.12266 0.01561 0.0
H3083 H 0.26526 0.12271 0.95437 0.0
H3084 H 0.27438 0.1374 0.97599 0.0
H3085 H 0.2863 0.11449 0.96954 0.0
H3086 H 0.29142 0.07266 0.01218 0.0
H3087 H 0.32441 0.07533 0.02757 0.0
H3088 H 0.82207 0.06639 0.78925 0.0
H3089 H 0.82001 0.03065 0.78463 0.0
H3090 H 0.87988 0.02964 0.76188 0.0
H3091 H 0.8821 0.06529 0.76639 0.0
H3092 H 0.82624 0.00715 0.74785 0.0
H3093 H 0.8799 0.98982 0.8116 0.0
H3094 H 0.86823 0.01361 0.80917 0.0
H3095 H 0.88902 0.00746 0.79271 0.0
C3096 C 0.83472 0.0586 0.783 0.0
C3097 C 0.85232 0.06864 0.7783 0.0
C3098 C 0.83354 0.03818 0.78053 0.0
C3099 C 0.84996 0.02752 0.77348 0.0
C3100 C 0.86723 0.03759 0.76792 0.0
H3101 H 0.88965 0.92293 0.72373 0.0
H3102 H 0.88447 0.95307 0.74385 0.0
C3103 C 0.86843 0.05795 0.77036 0.0
C3104 C 0.84914 0.00586 0.77149 0.0
H3105 H 0.87354 0.96409 0.7861 0.0
C3106 C 0.83624 -0.00239 0.75652 0.0
C3107 C 0.8621 0.99354 0.78303 0.0
C3108 C 0.87546 0.00152 0.80019 0.0
C3109 C 0.83702 0.97749 0.75155 0.0
C3110 C 0.85088 0.96536 0.76214 0.0
C3111 C 0.86292 0.97343 0.77806 0.0
C3112 C 0.85519 0.94526 0.75442 0.0
C3113 C 0.82402 0.96965 0.73396 0.0
C3114 C 0.84092 0.93033 0.75487 0.0
C3115 C 0.84387 0.91294 0.74333 0.0
C3116 C 0.86102 0.91042 0.7311 0.0
C3117 C 0.8761 0.92452 0.73265 0.0
C3118 C 0.87319 0.9418 0.74419 0.0
H3119 H 0.81595 0.98156 0.72553 0.0
H3120 H 0.83291 0.96138 0.72211 0.0
H3121 H 0.81303 0.95935 0.74082 0.0
H3122 H 0.82712 0.93256 0.76315 0.0
H3123 H 0.83231 0.90203 0.74307 0.0
H3124 H 0.66744 0.14291 0.52411 0.0
H3125 H 0.70044 0.14208 0.50852 0.0
H3126 H 0.70017 0.07865 0.51159 0.0
H3127 H 0.66728 0.07939 0.52736 0.0
H3128 H 0.7319 0.12483 0.53209 0.0
H3129 H 0.72359 0.0907 0.452 0.0
H3130 H 0.70331 0.10215 0.46591 0.0
H3131 H 0.71154 0.07804 0.47352 0.0
C3132 C 0.67421 0.12878 0.52091 0.0
C3133 C 0.66475 0.1112 0.52677 0.0
C3134 C 0.69304 0.12833 0.51205 0.0
C3135 C 0.70265 0.11031 0.50884 0.0
C3136 C 0.69283 0.09269 0.5136 0.0
H3137 H 0.82151 0.07905 0.47152 0.0
H3138 H 0.78803 0.07839 0.48574 0.0
C3139 C 0.674 0.09313 0.5225 0.0
C3140 C 0.72371 0.11007 0.50301 0.0
H3141 H 0.75611 0.09485 0.46494 0.0
C3142 C 0.73722 0.11837 0.51736 0.0
C3143 C 0.73052 0.10141 0.48393 0.0
C3144 C 0.71652 0.09268 0.46783 0.0
C3145 C 0.75748 0.11813 0.51321 0.0
C3146 C 0.76432 0.10969 0.494 0.0
C3147 C 0.7508 0.10126 0.4797 0.0
C3148 C 0.78536 0.11006 0.488 0.0
C3149 C 0.7714 0.12658 0.52959 0.0
C3150 C 0.79507 0.12808 0.48502 0.0
C3151 C 0.81429 0.12849 0.4772 0.0
C3152 C 0.82408 0.11089 0.4721 0.0
C3153 C 0.81454 0.09284 0.47576 0.0
C3154 C 0.79533 0.09244 0.48364 0.0
H3155 H 0.76456 0.12711 0.54567 0.0
H3156 H 0.78517 0.11783 0.53055 0.0
H3157 H 0.77531 0.14186 0.52498 0.0
H3158 H 0.78751 0.14185 0.48791 0.0
H3159 H 0.82122 0.14262 0.47436 0.0
H3160 H 0.60388 0.07181 0.22119 0.0
H3161 H 0.60568 0.03802 0.23456 0.0
H3162 H 0.66866 0.03836 0.226 0.0
H3163 H 0.66698 0.07214 0.21256 0.0
H3164 H 0.62089 0.00613 0.21007 0.0
H3165 H 0.66112 0.01585 0.28667 0.0
H3166 H 0.64895 0.03599 0.27327 0.0
H3167 H 0.67215 0.02706 0.26362 0.0
C3168 C 0.61815 0.06479 0.2225 0.0
C3169 C 0.6353 0.07465 0.21598 0.0
C3170 C 0.61914 0.04551 0.23008 0.0
C3171 C 0.6373 0.03578 0.23134 0.0
C3172 C 0.65454 0.04575 0.22545 0.0
H3173 H 0.66317 0.91682 0.27552 0.0
H3174 H 0.66622 0.94845 0.25714 0.0
C3175 C 0.65356 0.06506 0.21785 0.0
C3176 C 0.63793 0.01479 0.23749 0.0
H3177 H 0.65407 0.98328 0.27602 0.0
C3178 C 0.62818 0.00109 0.22446 0.0
C3179 C 0.64764 0.00832 0.25612 0.0
C3180 C 0.65796 0.02253 0.27086 0.0
C3181 C 0.62767 0.98104 0.22973 0.0
C3182 C 0.63688 0.97464 0.2487 0.0
C3183 C 0.64708 0.98826 0.26144 0.0
C3184 C 0.63491 0.9542 0.25655 0.0
C3185 C 0.61732 0.9669 0.21495 0.0
C3186 C 0.61627 0.94678 0.26184 0.0
C3187 C 0.61448 0.92865 0.27212 0.0
C3188 C 0.63132 0.91768 0.27735 0.0
C3189 C 0.64992 0.92473 0.27123 0.0
C3190 C 0.6517 0.94289 0.26094 0.0
H3191 H 0.6165 0.97279 0.19845 0.0
H3192 H 0.62488 0.95241 0.21456 0.0
H3193 H 0.60204 0.96457 0.22067 0.0
H3194 H 0.60315 0.95544 0.25898 0.0
H3195 H 0.59998 0.92363 0.27681 0.0
H3196 H 0.66707 0.91751 0.97286 0.0
H3197 H 0.69885 0.91844 0.99123 0.0
H3198 H 0.70155 0.85504 0.98964 0.0
H3199 H 0.66977 0.85399 0.97132 0.0
H3200 H 0.7168 0.89856 0.02911 0.0
H3201 H 0.7474 0.87587 0.95063 0.0
H3202 H 0.72267 0.88515 0.95365 0.0
H3203 H 0.72836 0.86026 0.9611 0.0
C3204 C 0.67405 0.90376 0.9772 0.0
C3205 C 0.66604 0.88568 0.9706 0.0
C3206 C 0.69226 0.90432 0.98756 0.0
C3207 C 0.70263 0.88683 0.99136 0.0
C3208 C 0.69382 0.8687 0.98654 0.0
H3209 H 0.82078 0.85545 0.02601 0.0
H3210 H 0.78669 0.85686 0.0136 0.0
C3211 C 0.67568 0.86812 0.97614 0.0
C3212 C 0.72351 0.88757 0.99778 0.0
H3213 H 0.76979 0.87804 0.97936 0.0
C3214 C 0.72843 0.89416 0.01828 0.0
C3215 C 0.73857 0.88196 0.98345 0.0
C3216 C 0.73409 0.87556 0.9609 0.0
C3217 C 0.74813 0.89471 0.02506 0.0
C3218 C 0.76316 0.88886 0.01078 0.0
C3219 C 0.7582 0.88251 0.99022 0.0
C3220 C 0.78409 0.88844 0.01714 0.0
C3221 C 0.75267 0.901 0.04761 0.0
C3222 C 0.79406 0.90582 0.02252 0.0
C3223 C 0.81356 0.90508 0.02958 0.0
C3224 C 0.82337 0.88691 0.03124 0.0
C3225 C 0.81357 0.86964 0.02496 0.0
C3226 C 0.79411 0.87041 0.01791 0.0
H3227 H 0.73932 0.90099 0.05783 0.0
H3228 H 0.76386 0.89114 0.05488 0.0
H3229 H 0.75877 0.91615 0.04743 0.0
H3230 H 0.78666 0.91992 0.02161 0.0
H3231 H 0.82067 0.91862 0.03444 0.0
H3232 H 0.66952 0.57276 0.78536 0.0
H3233 H 0.67231 0.53827 0.77449 0.0
H3234 H 0.60952 0.53564 0.76482 0.0
H3235 H 0.60658 0.5701 0.77562 0.0
H3236 H 0.62571 0.50575 0.79238 0.0
H3237 H 0.6657 0.51198 0.71515 0.0
H3238 H 0.67596 0.52504 0.7375 0.0
H3239 H 0.6526 0.53245 0.72683 0.0
C3240 C 0.65637 0.56499 0.78037 0.0
C3241 C 0.63782 0.57414 0.78125 0.0
C3242 C 0.658 0.54528 0.77425 0.0
C3243 C 0.64112 0.53449 0.76887 0.0
C3244 C 0.6227 0.54377 0.76899 0.0
H3245 H 0.60274 0.42257 0.72833 0.0
H3246 H 0.60704 0.45389 0.74681 0.0
C3247 C 0.62106 0.56344 0.77509 0.0
C3248 C 0.64236 0.51321 0.76429 0.0
H3249 H 0.65828 0.48009 0.72733 0.0
C3250 C 0.63294 0.50008 0.77823 0.0
C3251 C 0.65201 0.50594 0.74598 0.0
C3252 C 0.66206 0.51952 0.73037 0.0
C3253 C 0.6325 0.47981 0.77406 0.0
C3254 C 0.64143 0.47261 0.75528 0.0
C3255 C 0.6515 0.48567 0.74177 0.0
C3256 C 0.63884 0.45205 0.74808 0.0
C3257 C 0.62236 0.46633 0.7897 0.0
C3258 C 0.65526 0.44046 0.74297 0.0
C3259 C 0.65283 0.4226 0.73226 0.0
C3260 C 0.63393 0.41612 0.72645 0.0
C3261 C 0.61746 0.42716 0.73273 0.0
C3262 C 0.6199 0.44501 0.74342 0.0
H3263 H 0.62227 0.47272 0.806 0.0
H3264 H 0.60683 0.46425 0.7847 0.0
H3265 H 0.62957 0.45167 0.79028 0.0
H3266 H 0.67 0.44573 0.74629 0.0
H3267 H 0.6658 0.4146 0.72722 0.0
H3268 H 0.81973 0.35012 0.97546 0.0
H3269 H 0.78599 0.35313 0.98849 0.0
H3270 H 0.79045 0.4164 0.98543 0.0
H3271 H 0.82407 0.41352 0.9718 0.0
H3272 H 0.76856 0.37232 0.02309 0.0
H3273 H 0.74408 0.40379 0.9456 0.0
H3274 H 0.76789 0.39248 0.94909 0.0
H3275 H 0.76353 0.417 0.95874 0.0
C3276 C 0.81364 0.36469 0.97787 0.0
C3277 C 0.8245 0.38158 0.97244 0.0
C3278 C 0.79438 0.36638 0.9853 0.0
C3279 C 0.78562 0.38496 0.9874 0.0
C3280 C 0.79685 0.40191 0.98345 0.0
H3281 H 0.66665 0.4157 0.02543 0.0
H3282 H 0.70029 0.41704 0.01162 0.0
C3283 C 0.81614 0.40024 0.97594 0.0
C3284 C 0.76446 0.38638 0.99266 0.0
H3285 H 0.71987 0.40022 0.97236 0.0
C3286 C 0.75792 0.37847 0.01204 0.0
C3287 C 0.75064 0.39433 0.97811 0.0
C3288 C 0.75679 0.40225 0.95663 0.0
C3289 C 0.73788 0.37831 0.0173 0.0
C3290 C 0.72407 0.38604 0.00266 0.0
C3291 C 0.73058 0.39426 0.98344 0.0
C3292 C 0.70278 0.38557 0.00724 0.0
C3293 C 0.73159 0.36992 0.03852 0.0
C3294 C 0.69283 0.36752 0.00825 0.0
C3295 C 0.67357 0.36671 0.01592 0.0
C3296 C 0.664 0.38396 0.02267 0.0
C3297 C 0.67354 0.40219 0.02012 0.0
C3298 C 0.6928 0.40298 0.01239 0.0
H3299 H 0.7442 0.36825 0.04966 0.0
H3300 H 0.72031 0.37945 0.04611 0.0
H3301 H 0.72494 0.35518 0.03597 0.0
H3302 H 0.70028 0.35397 0.00405 0.0
H3303 H 0.66654 0.35248 0.01759 0.0
H3304 H 0.88882 0.5714 0.22492 0.0
H3305 H 0.88677 0.53825 0.24003 0.0
H3306 H 0.82361 0.53938 0.2332 0.0
H3307 H 0.82562 0.57225 0.21739 0.0
H3308 H 0.86665 0.52212 0.27491 0.0
H3309 H 0.84018 0.49133 0.1979 0.0
H3310 H 0.85021 0.51583 0.20018 0.0
H3311 H 0.82543 0.51091 0.20861 0.0
C3312 C 0.87447 0.56469 0.22696 0.0
C3313 C 0.85737 0.57442 0.22009 0.0
C3314 C 0.87333 0.54578 0.23557 0.0
C3315 C 0.85508 0.53627 0.23732 0.0
C3316 C 0.83786 0.54637 0.23161 0.0
H3317 H 0.82573 0.41812 0.27998 0.0
H3318 H 0.82439 0.45152 0.26536 0.0
C3319 C 0.839 0.56527 0.22291 0.0
C3320 C 0.85429 0.51546 0.24413 0.0
H3321 H 0.84276 0.46917 0.22683 0.0
C3322 C 0.8614 0.51054 0.26443 0.0
C3323 C 0.84751 0.50042 0.23033 0.0
C3324 C 0.84055 0.50478 0.20796 0.0
C3325 C 0.86183 0.49093 0.27137 0.0
C3326 C 0.8552 0.47591 0.25751 0.0
C3327 C 0.84784 0.4808 0.23734 0.0
C3328 C 0.856 0.45499 0.26378 0.0
C3329 C 0.86925 0.48641 0.29352 0.0
C3330 C 0.87421 0.44572 0.26686 0.0
C3331 C 0.87502 0.42661 0.27495 0.0
C3332 C 0.85761 0.41645 0.27998 0.0
C3333 C 0.83937 0.42544 0.27587 0.0
C3334 C 0.83857 0.44456 0.26771 0.0
H3335 H 0.8698 0.49978 0.3037 0.0
H3336 H 0.85977 0.47525 0.30138 0.0
H3337 H 0.88436 0.48028 0.29244 0.0
H3338 H 0.8878 0.45351 0.2636 0.0
H3339 H 0.88927 0.42002 0.27793 0.0
H3340 H 0.67208 0.64183 0.46763 0.0
H3341 H 0.70448 0.63973 0.48448 0.0
H3342 H 0.69912 0.57655 0.48768 0.0
H3343 H 0.66669 0.57853 0.47078 0.0
H3344 H 0.71785 0.59533 0.52442 0.0
H3345 H 0.74968 0.61764 0.44648 0.0
H3346 H 0.73136 0.63411 0.45688 0.0
H3347 H 0.72452 0.60953 0.44932 0.0
C3348 C 0.67761 0.62754 0.47239 0.0
C3349 C 0.66693 0.61033 0.46786 0.0
C3350 C 0.69612 0.62636 0.48191 0.0
C3351 C 0.70428 0.60796 0.48685 0.0
C3352 C 0.69305 0.59086 0.48386 0.0
H3353 H 0.82118 0.57455 0.53245 0.0
H3354 H 0.78798 0.57324 0.51723 0.0
C3355 C 0.67448 0.59203 0.47437 0.0
C3356 C 0.72511 0.6065 0.49331 0.0
H3357 H 0.77177 0.61545 0.47565 0.0
C3358 C 0.72968 0.59959 0.51377 0.0
C3359 C 0.74043 0.61193 0.47922 0.0
C3360 C 0.73634 0.61856 0.45667 0.0
C3361 C 0.74926 0.59864 0.52082 0.0
C3362 C 0.76455 0.60443 0.50684 0.0
C3363 C 0.75997 0.61101 0.48626 0.0
C3364 C 0.78532 0.60482 0.51372 0.0
C3365 C 0.75344 0.59204 0.54335 0.0
C3366 C 0.79504 0.62292 0.51577 0.0
C3367 C 0.81403 0.62368 0.52418 0.0
C3368 C 0.82363 0.60633 0.53047 0.0
C3369 C 0.81424 0.58812 0.52739 0.0
C3370 C 0.79521 0.58737 0.519 0.0
H3371 H 0.7399 0.59172 0.55327 0.0
H3372 H 0.75975 0.57698 0.54303 0.0
H3373 H 0.76435 0.60193 0.55104 0.0
H3374 H 0.78765 0.63652 0.51163 0.0
H3375 H 0.82094 0.6379 0.52645 0.0
H3376 H 0.32809 0.57481 0.27747 0.0
H3377 H 0.3271 0.54243 0.26032 0.0
H3378 H 0.39052 0.54018 0.26101 0.0
H3379 H 0.39157 0.57269 0.27793 0.0
H3380 H 0.34673 0.52451 0.22222 0.0
H3381 H 0.37045 0.49432 0.30058 0.0
H3382 H 0.36086 0.51895 0.29758 0.0
H3383 H 0.38568 0.5135 0.28974 0.0
C3384 C 0.3418 0.56782 0.27303 0.0
C3385 C 0.35991 0.57632 0.27869 0.0
C3386 C 0.34122 0.54924 0.26348 0.0
C3387 C 0.35873 0.53889 0.25972 0.0
C3388 C 0.37686 0.54793 0.26401 0.0
H3389 H 0.38912 0.4201 0.22555 0.0
H3390 H 0.38811 0.45409 0.23842 0.0
C3391 C 0.37745 0.56648 0.27355 0.0
C3392 C 0.358 0.51795 0.25347 0.0
H3393 H 0.36761 0.47174 0.27211 0.0
C3394 C 0.35122 0.51293 0.23309 0.0
C3395 C 0.36377 0.50297 0.26783 0.0
C3396 C 0.37046 0.5076 0.29023 0.0
C3397 C 0.35057 0.4932 0.22643 0.0
C3398 C 0.35647 0.47821 0.24076 0.0
C3399 C 0.36307 0.48328 0.26121 0.0
C3400 C 0.35662 0.45721 0.23455 0.0
C3401 C 0.34412 0.4886 0.20395 0.0
C3402 C 0.33914 0.44754 0.22889 0.0
C3403 C 0.33968 0.42813 0.22153 0.0
C3404 C 0.3577 0.41807 0.21992 0.0
C3405 C 0.37504 0.42751 0.22661 0.0
C3406 C 0.37449 0.4469 0.23392 0.0
H3407 H 0.34447 0.50186 0.19358 0.0
H3408 H 0.35362 0.47709 0.19676 0.0
H3409 H 0.32879 0.48297 0.20422 0.0
H3410 H 0.32516 0.45515 0.22968 0.0
H3411 H 0.3261 0.42134 0.21625 0.0
H3412 H 0.32434 0.57675 0.96991 0.0
H3413 H 0.29149 0.57593 0.98578 0.0
H3414 H 0.28865 0.6393 0.98302 0.0
H3415 H 0.32173 0.6403 0.96767 0.0
H3416 H 0.27286 0.62277 0.02087 0.0
H3417 H 0.24322 0.58721 0.94772 0.0
H3418 H 0.26331 0.57447 0.96024 0.0
H3419 H 0.26733 0.59834 0.9487 0.0
C3420 C 0.31698 0.59054 0.97326 0.0
C3421 C 0.3256 0.6086 0.96753 0.0
C3422 C 0.2981 0.59003 0.98205 0.0
C3423 C 0.28752 0.60753 0.98508 0.0
C3424 C 0.29655 0.62563 0.98061 0.0
H3425 H 0.16993 0.64064 0.02407 0.0
H3426 H 0.20323 0.63982 0.00918 0.0
C3427 C 0.31543 0.62616 0.97186 0.0
C3428 C 0.2667 0.60703 0.99185 0.0
H3429 H 0.2209 0.59212 0.97616 0.0
C3430 C 0.26149 0.61608 0.01112 0.0
C3431 C 0.25193 0.59835 0.97899 0.0
C3432 C 0.25662 0.58918 0.95766 0.0
C3433 C 0.24187 0.61648 0.01804 0.0
C3434 C 0.2271 0.60789 0.00513 0.0
C3435 C 0.23231 0.59872 0.98593 0.0
C3436 C 0.20618 0.60818 0.01152 0.0
C3437 C 0.23712 0.62584 0.03925 0.0
C3438 C 0.19655 0.59057 0.01672 0.0
C3439 C 0.17752 0.59098 0.02513 0.0
C3440 C 0.16782 0.60902 0.02828 0.0
C3441 C 0.1771 0.62654 0.02188 0.0
C3442 C 0.19612 0.62611 0.01349 0.0
H3443 H 0.25047 0.62768 0.04931 0.0
H3444 H 0.23066 0.64063 0.0365 0.0
H3445 H 0.2262 0.61688 0.04816 0.0
H3446 H 0.2041 0.57659 0.0152 0.0
H3447 H 0.17088 0.57728 0.03025 0.0
H3448 H 0.09797 0.43127 0.80511 0.0
H3449 H 0.09825 0.46504 0.79151 0.0
H3450 H 0.15111 0.4524 0.75596 0.0
H3451 H 0.15068 0.41857 0.76926 0.0
H3452 H 0.12606 0.49333 0.79691 0.0
H3453 H 0.11677 0.47719 0.71082 0.0
H3454 H 0.11264 0.4589 0.73119 0.0
H3455 H 0.13725 0.46447 0.72246 0.0
C3456 C 0.10951 0.43564 0.79418 0.0
C3457 C 0.12414 0.42222 0.78791 0.0
C3458 C 0.10968 0.45493 0.78648 0.0
C3459 C 0.12452 0.46114 0.77247 0.0
C3460 C 0.13921 0.44777 0.76629 0.0
H3461 H 0.15819 0.57132 0.71511 0.0
H3462 H 0.15817 0.53952 0.73344 0.0
C3463 C 0.13893 0.42844 0.77383 0.0
C3464 C 0.12501 0.48177 0.76491 0.0
H3465 H 0.12597 0.50997 0.7199 0.0
C3466 C 0.12591 0.49699 0.78008 0.0
C3467 C 0.12473 0.48649 0.74294 0.0
C3468 C 0.1226 0.47092 0.72592 0.0
C3469 C 0.12692 0.5168 0.7738 0.0
C3470 C 0.12708 0.52138 0.75188 0.0
C3471 C 0.12604 0.50625 0.73672 0.0
C3472 C 0.12801 0.54184 0.74412 0.0
C3473 C 0.12812 0.53273 0.79049 0.0
C3474 C 0.11115 0.55372 0.74454 0.0
C3475 C 0.11111 0.57188 0.73408 0.0
C3476 C 0.12798 0.57839 0.72323 0.0
C3477 C 0.14511 0.56683 0.72371 0.0
C3478 C 0.1451 0.54864 0.73405 0.0
H3479 H 0.13006 0.52663 0.8068 0.0
H3480 H 0.14056 0.54282 0.78693 0.0
H3481 H 0.1144 0.54159 0.79017 0.0
H3482 H 0.09777 0.54854 0.75207 0.0
H3483 H 0.09769 0.58048 0.73376 0.0
H3484 H 0.17304 0.35552 0.46394 0.0
H3485 H 0.20737 0.3588 0.47516 0.0
H3486 H 0.20225 0.42203 0.47254 0.0
H3487 H 0.16792 0.41893 0.46134 0.0
H3488 H 0.23754 0.37817 0.45133 0.0
H3489 H 0.22668 0.41142 0.5316 0.0
H3490 H 0.20712 0.39904 0.51745 0.0
H3491 H 0.21434 0.42347 0.50987 0.0
C3492 C 0.17914 0.37013 0.46603 0.0
C3493 C 0.16774 0.38696 0.46189 0.0
C3494 C 0.19875 0.37197 0.47235 0.0
C3495 C 0.20726 0.39064 0.47473 0.0
C3496 C 0.19584 0.40749 0.47107 0.0
H3497 H 0.32385 0.41811 0.5241 0.0
H3498 H 0.29351 0.422 0.50349 0.0
C3499 C 0.17621 0.40568 0.46475 0.0
C3500 C 0.2283 0.39236 0.48038 0.0
H3501 H 0.2593 0.40712 0.52 0.0
C3502 C 0.24235 0.38459 0.46629 0.0
C3503 C 0.23447 0.40094 0.49977 0.0
C3504 C 0.21991 0.40909 0.51567 0.0
C3505 C 0.26247 0.38482 0.47131 0.0
C3506 C 0.26857 0.39275 0.49106 0.0
C3507 C 0.25457 0.40114 0.5048 0.0
C3508 C 0.28898 0.39074 0.49895 0.0
C3509 C 0.27698 0.37647 0.45552 0.0
C3510 C 0.29681 0.37192 0.50256 0.0
C3511 C 0.31421 0.36969 0.51413 0.0
C3512 C 0.32402 0.38625 0.52229 0.0
C3513 C 0.31683 0.40513 0.51756 0.0
C3514 C 0.29942 0.40736 0.50596 0.0
H3515 H 0.27113 0.37712 0.43899 0.0
H3516 H 0.29122 0.38448 0.45612 0.0
H3517 H 0.27976 0.36078 0.45942 0.0
H3518 H 0.2888 0.35889 0.49771 0.0
H3519 H 0.31936 0.35497 0.51776 0.0
H3520 H 0.1058 0.08554 0.0403 0.0
H3521 H 0.10719 0.09277 0.07833 0.0
H3522 H 0.11952 0.15372 0.06446 0.0
H3523 H 0.11778 0.14668 0.02617 0.0
H3524 H 0.13961 0.10636 0.09919 0.0
H3525 H 0.07723 0.15814 0.11037 0.0
H3526 H 0.07987 0.1431 0.0868 0.0
H3527 H 0.09426 0.16513 0.08982 0.0
C3528 C 0.10856 0.10056 0.04527 0.0
C3529 C 0.11172 0.11554 0.03017 0.0
C3530 C 0.10934 0.10466 0.06705 0.0
C3531 C 0.11326 0.1238 0.07426 0.0
C3532 C 0.11606 0.13891 0.05927 0.0
H3533 H 0.14504 0.16895 0.19892 0.0
H3534 H 0.13612 0.16531 0.16132 0.0
C3535 C 0.11518 0.13484 0.03739 0.0
C3536 C 0.11598 0.12742 0.09741 0.0
H3537 H 0.09882 0.15385 0.1399 0.0
C3538 C 0.1306 0.11666 0.1081 0.0
C3539 C 0.10428 0.14095 0.10898 0.0
C3540 C 0.0879 0.15239 0.09849 0.0
C3541 C 0.13397 0.11914 0.12998 0.0
C3542 C 0.12223 0.13256 0.14157 0.0
C3543 C 0.10771 0.14349 0.13093 0.0
C3544 C 0.12523 0.13557 0.16472 0.0
C3545 C 0.1503 0.10761 0.14049 0.0
C3546 C 0.12146 0.12025 0.17916 0.0
C3547 C 0.12652 0.12226 0.20066 0.0
C3548 C 0.13547 0.13964 0.20806 0.0
C3549 C 0.13829 0.15532 0.19372 0.0
C3550 C 0.13316 0.15331 0.17224 0.0
H3551 H 0.1605 0.10104 0.12862 0.0
H3552 H 0.1589 0.11714 0.15145 0.0
H3553 H 0.14382 0.09547 0.15003 0.0
H3554 H 0.11514 0.10651 0.17366 0.0
H3555 H 0.12407 0.10993 0.21129 0.0
H3556 H 0.11791 0.84497 0.47077 0.0
H3557 H 0.12027 0.83674 0.43271 0.0
H3558 H 0.11618 0.89834 0.41675 0.0
H3559 H 0.11408 0.90671 0.45443 0.0
H3560 H 0.09462 0.84537 0.39746 0.0
H3561 H 0.16775 0.88062 0.38846 0.0
H3562 H 0.1573 0.87482 0.41416 0.0
H3563 H 0.14964 0.89658 0.40008 0.0
C3564 C 0.11745 0.85674 0.45913 0.0
C3565 C 0.11601 0.8765 0.46567 0.0
C3566 C 0.11877 0.85201 0.43742 0.0
C3567 C 0.11873 0.86697 0.42197 0.0
C3568 C 0.11663 0.8866 0.42844 0.0
H3569 H 0.1287 0.88124 0.28646 0.0
H3570 H 0.12083 0.88409 0.32438 0.0
C3571 C 0.11537 0.89134 0.45003 0.0
C3572 C 0.12135 0.86234 0.39905 0.0
H3573 H 0.15079 0.87257 0.35638 0.0
C3574 C 0.10698 0.85112 0.38848 0.0
C3575 C 0.13757 0.86979 0.38743 0.0
C3576 C 0.15405 0.88096 0.39813 0.0
C3577 C 0.10806 0.8478 0.36637 0.0
C3578 C 0.12393 0.85584 0.35471 0.0
C3579 C 0.13851 0.86664 0.36537 0.0
C3580 C 0.1259 0.85333 0.33137 0.0
C3581 C 0.09202 0.83622 0.35547 0.0
C3582 C 0.13103 0.83501 0.32272 0.0
C3583 C 0.13565 0.83333 0.30106 0.0
C3584 C 0.13522 0.84997 0.28771 0.0
C3585 C 0.12915 0.86812 0.29627 0.0
C3586 C 0.12467 0.8698 0.31794 0.0
H3587 H 0.07924 0.83357 0.36613 0.0
H3588 H 0.08687 0.84409 0.34098 0.0
H3589 H 0.09796 0.82176 0.35034 0.0
H3590 H 0.13228 0.82218 0.3329 0.0
H3591 H 0.14025 0.81914 0.29497 0.0
H3592 H 0.36103 0.88227 0.70953 0.0
H3593 H 0.36981 0.88372 0.67177 0.0
H3594 H 0.3676 0.82037 0.66809 0.0
H3595 H 0.35841 0.81876 0.70577 0.0
H3596 H 0.40041 0.86773 0.64777 0.0
H3597 H 0.32803 0.83716 0.62275 0.0
H3598 H 0.33274 0.84537 0.64962 0.0
H3599 H 0.34189 0.82195 0.64071 0.0
C3600 C 0.3626 0.86862 0.70077 0.0
C3601 C 0.35877 0.8504 0.71059 0.0
C3602 C 0.36762 0.86948 0.67918 0.0
C3603 C 0.36895 0.85218 0.66703 0.0
C3604 C 0.36619 0.83392 0.67706 0.0
H3605 H 0.37986 0.84289 0.52762 0.0
H3606 H 0.3798 0.83423 0.56562 0.0
C3607 C 0.36104 0.83304 0.69862 0.0
C3608 C 0.37237 0.85343 0.64371 0.0
H3609 H 0.35051 0.84491 0.59551 0.0
C3610 C 0.38957 0.86262 0.63633 0.0
C3611 C 0.35821 0.8467 0.62881 0.0
C3612 C 0.3391 0.83739 0.63579 0.0
C3613 C 0.39285 0.86555 0.61446 0.0
C3614 C 0.37843 0.85936 0.59963 0.0
C3615 C 0.36156 0.84958 0.60694 0.0
C3616 C 0.37971 0.8644 0.57668 0.0
C3617 C 0.41167 0.87538 0.6074 0.0
C3618 C 0.37949 0.88419 0.57037 0.0
C3619 C 0.37942 0.88917 0.54879 0.0
C3620 C 0.37951 0.87444 0.53302 0.0
C3621 C 0.37985 0.85458 0.53936 0.0
C3622 C 0.37983 0.84961 0.56104 0.0
H3623 H 0.42345 0.87383 0.61958 0.0
H3624 H 0.417 0.86912 0.5921 0.0
H3625 H 0.4089 0.89133 0.60502 0.0
H3626 H 0.37894 0.89583 0.58217 0.0
H3627 H 0.37908 0.90461 0.54451 0.0
H3628 H 0.37295 0.17059 0.78933 0.0
H3629 H 0.38333 0.16816 0.82666 0.0
H3630 H 0.36722 0.10673 0.82717 0.0
H3631 H 0.35746 0.10887 0.78987 0.0
H3632 H 0.36165 0.15992 0.86064 0.0
H3633 H 0.42021 0.1039 0.85469 0.0
H3634 H 0.41022 0.11608 0.83152 0.0
H3635 H 0.39783 0.09511 0.84294 0.0
C3636 C 0.37194 0.15649 0.79731 0.0
C3637 C 0.36448 0.13991 0.78658 0.0
C3638 C 0.37784 0.15513 0.81866 0.0
C3639 C 0.37637 0.13718 0.82967 0.0
C3640 C 0.36905 0.1206 0.8189 0.0
H3641 H 0.35725 0.1134 0.96164 0.0
H3642 H 0.35538 0.12387 0.9245 0.0
C3643 C 0.36335 0.12189 0.79755 0.0
C3644 C 0.38115 0.13598 0.85276 0.0
H3645 H 0.40557 0.10805 0.88945 0.0
C3646 C 0.3715 0.14877 0.86692 0.0
C3647 C 0.3943 0.12172 0.86101 0.0
C3648 C 0.40639 0.10859 0.8467 0.0
C3649 C 0.37385 0.14702 0.88909 0.0
C3650 C 0.38576 0.13172 0.89736 0.0
C3651 C 0.3962 0.1196 0.88317 0.0
C3652 C 0.38686 0.1273 0.92054 0.0
C3653 C 0.3635 0.16157 0.90339 0.0
C3654 C 0.40519 0.1255 0.93073 0.0
C3655 C 0.40632 0.1192 0.95193 0.0
C3656 C 0.38913 0.11458 0.96337 0.0
C3657 C 0.37077 0.117 0.95336 0.0
C3658 C 0.36967 0.12313 0.93212 0.0
H3659 H 0.3611 0.17583 0.8951 0.0
H3660 H 0.34885 0.15563 0.90782 0.0
H3661 H 0.372 0.16435 0.91821 0.0
H3662 H 0.41866 0.12856 0.92211 0.0
H3663 H 0.42069 0.1175 0.95917 0.0
H3664 H 0.8701 0.8756 0.78568 0.0
H3665 H 0.88068 0.87876 0.82279 0.0
H3666 H 0.84308 0.83029 0.8404 0.0
H3667 H 0.83229 0.82706 0.80336 0.0
H3668 H 0.83727 0.86452 0.86442 0.0
H3669 H 0.91646 0.845 0.8611 0.0
H3670 H 0.90904 0.86294 0.84166 0.0
H3671 H 0.89929 0.83837 0.84029 0.0
C3672 C 0.86431 0.86539 0.79737 0.0
C3673 C 0.85029 0.85112 0.79157 0.0
C3674 C 0.87048 0.86714 0.81856 0.0
C3675 C 0.86284 0.8546 0.83429 0.0
C3676 C 0.84925 0.84002 0.82846 0.0
H3677 H 0.86679 0.86569 0.97359 0.0
H3678 H 0.86188 0.85231 0.93773 0.0
C3679 C 0.84309 0.83822 0.80728 0.0
C3680 C 0.8675 0.85801 0.85707 0.0
H3681 H 0.90538 0.86125 0.8927 0.0
C3682 C 0.85211 0.86354 0.87071 0.0
C3683 C 0.8869 0.85683 0.86513 0.0
C3684 C 0.90387 0.85029 0.85135 0.0
C3685 C 0.85567 0.86869 0.89202 0.0
C3686 C 0.87512 0.8678 0.90005 0.0
C3687 C 0.89048 0.86185 0.88652 0.0
C3688 C 0.87991 0.87423 0.92205 0.0
C3689 C 0.83868 0.87588 0.90544 0.0
C3690 C 0.89244 0.89037 0.92523 0.0
C3691 C 0.89547 0.8979 0.94569 0.0
C3692 C 0.88597 0.88943 0.96338 0.0
C3693 C 0.87417 0.87266 0.96028 0.0
C3694 C 0.87126 0.86506 0.93979 0.0
H3695 H 0.82578 0.88006 0.89553 0.0
H3696 H 0.83399 0.86396 0.91642 0.0
H3697 H 0.84307 0.8888 0.91519 0.0
H3698 H 0.89934 0.89761 0.91177 0.0
H3699 H 0.90472 0.91077 0.94752 0.0
H3700 H 0.89658 0.12611 0.72159 0.0
H3701 H 0.90532 0.126 0.68361 0.0
H3702 H 0.84385 0.129 0.66688 0.0
H3703 H 0.83498 0.12913 0.70455 0.0
H3704 H 0.89214 0.09738 0.65303 0.0
H3705 H 0.86946 0.17299 0.63056 0.0
H3706 H 0.87399 0.16575 0.65785 0.0
H3707 H 0.85111 0.15951 0.64512 0.0
C3708 C 0.88494 0.12693 0.70982 0.0
C3709 C 0.86508 0.12764 0.71612 0.0
C3710 C 0.88996 0.12687 0.68815 0.0
C3711 C 0.87524 0.1278 0.67247 0.0
C3712 C 0.85545 0.12867 0.67873 0.0
H3713 H 0.85837 0.11425 0.53833 0.0
H3714 H 0.85677 0.12237 0.57627 0.0
C3715 C 0.85042 0.12859 0.7003 0.0
C3716 C 0.88027 0.12655 0.64952 0.0
H3717 H 0.87461 0.15033 0.60194 0.0
C3718 C 0.88862 0.10905 0.64186 0.0
C3719 C 0.87553 0.14178 0.63504 0.0
C3720 C 0.86718 0.16115 0.64254 0.0
C3721 C 0.89151 0.10598 0.61994 0.0
C3722 C 0.88636 0.12106 0.60536 0.0
C3723 C 0.87854 0.1388 0.61312 0.0
C3724 C 0.8879 0.11818 0.58196 0.0
C3725 C 0.89915 0.08626 0.61256 0.0
C3726 C 0.90605 0.11382 0.57238 0.0
C3727 C 0.907 0.10903 0.55072 0.0
C3728 C 0.88983 0.10875 0.53817 0.0
C3729 C 0.87186 0.11428 0.54754 0.0
C3730 C 0.87091 0.11892 0.56924 0.0
H3731 H 0.89789 0.07486 0.62519 0.0
H3732 H 0.89103 0.08109 0.59825 0.0
H3733 H 0.91493 0.08767 0.60829 0.0
H3734 H 0.91943 0.11366 0.58178 0.0
H3735 H 0.92111 0.10506 0.54395 0.0
H3736 H 0.57525 0.10244 0.45013 0.0
H3737 H 0.57972 0.11174 0.41273 0.0
H3738 H 0.64049 0.12585 0.42522 0.0
H3739 H 0.63623 0.11661 0.46266 0.0
H3740 H 0.59579 0.14878 0.39282 0.0
H3741 H 0.63966 0.08093 0.37828 0.0
H3742 H 0.62371 0.0837 0.40111 0.0
H3743 H 0.64718 0.09581 0.40057 0.0
C3744 C 0.58951 0.10776 0.44501 0.0
C3745 C 0.60543 0.10861 0.45933 0.0
C3746 C 0.592 0.1131 0.42365 0.0
C3747 C 0.61047 0.11925 0.41625 0.0
C3748 C 0.62616 0.12097 0.43066 0.0
H3749 H 0.6503 0.16522 0.29557 0.0
H3750 H 0.63934 0.16112 0.3324 0.0
C3751 C 0.62367 0.11573 0.45204 0.0
C3752 C 0.61367 0.12263 0.39321 0.0
H3753 H 0.6373 0.10362 0.34987 0.0
C3754 C 0.60483 0.13893 0.38336 0.0
C3755 C 0.6252 0.10954 0.38094 0.0
C3756 C 0.6344 0.0914 0.39064 0.0
C3757 C 0.60765 0.14274 0.36154 0.0
C3758 C 0.61967 0.12995 0.34942 0.0
C3759 C 0.62813 0.11343 0.35922 0.0
C3760 C 0.62422 0.13359 0.32666 0.0
C3761 C 0.59765 0.16031 0.3516 0.0
C3762 C 0.61932 0.11949 0.31118 0.0
C3763 C 0.62561 0.12174 0.2901 0.0
C3764 C 0.63711 0.13807 0.28417 0.0
C3765 C 0.64145 0.15248 0.29958 0.0
C3766 C 0.6351 0.15024 0.32064 0.0
H3767 H 0.58512 0.16557 0.36145 0.0
H3768 H 0.60841 0.17252 0.35016 0.0
H3769 H 0.59216 0.15673 0.33537 0.0
H3770 H 0.61102 0.10648 0.31555 0.0
H3771 H 0.62204 0.11035 0.27865 0.0
H3772 H 0.63494 0.8756 0.03018 0.0
H3773 H 0.63845 0.86512 0.06731 0.0
H3774 H 0.58042 0.88732 0.08126 0.0
H3775 H 0.5767 0.89772 0.04417 0.0
H3776 H 0.63707 0.89148 0.10158 0.0
H3777 H 0.58063 0.83294 0.11037 0.0
H3778 H 0.5897 0.84093 0.08471 0.0
H3779 H 0.57173 0.8554 0.09871 0.0
C3780 C 0.62277 0.87793 0.04103 0.0
C3781 C 0.60555 0.88756 0.03422 0.0
C3782 C 0.62481 0.87195 0.06225 0.0
C3783 C 0.60964 0.8753 0.07699 0.0
C3784 C 0.59218 0.88428 0.07008 0.0
H3785 H 0.62227 0.88772 0.21389 0.0
H3786 H 0.61333 0.89174 0.17633 0.0
C3787 C 0.59013 0.89032 0.04888 0.0
C3788 C 0.61281 0.87114 0.09994 0.0
H3789 H 0.59513 0.84506 0.14241 0.0
C3790 C 0.62796 0.88126 0.11048 0.0
C3791 C 0.60094 0.85775 0.11147 0.0
C3792 C 0.58493 0.84598 0.10074 0.0
C3793 C 0.63139 0.87858 0.13234 0.0
C3794 C 0.6192 0.86561 0.144 0.0
C3795 C 0.60427 0.85519 0.13343 0.0
C3796 C 0.62226 0.86239 0.16711 0.0
C3797 C 0.64818 0.88951 0.14276 0.0
C3798 C 0.62954 0.84431 0.17445 0.0
C3799 C 0.63467 0.84195 0.19588 0.0
C3800 C 0.6325 0.85762 0.21037 0.0
C3801 C 0.6242 0.87538 0.20316 0.0
C3802 C 0.61914 0.87774 0.18169 0.0
H3803 H 0.65854 0.89574 0.13084 0.0
H3804 H 0.6422 0.90184 0.15239 0.0
H3805 H 0.6565 0.87965 0.15364 0.0
H3806 H 0.63198 0.83228 0.16342 0.0
H3807 H 0.64092 0.82805 0.20094 0.0
H3808 H 0.6502 0.66506 0.70138 0.0
H3809 H 0.63962 0.66115 0.66438 0.0
H3810 H 0.61551 0.60408 0.67936 0.0
H3811 H 0.62617 0.60777 0.71642 0.0
H3812 H 0.64175 0.60413 0.64496 0.0
H3813 H 0.58516 0.66242 0.63553 0.0
H3814 H 0.60794 0.67074 0.64698 0.0
H3815 H 0.59295 0.65341 0.66129 0.0
C3816 C 0.64237 0.6518 0.69691 0.0
C3817 C 0.6391 0.63669 0.71184 0.0
C3818 C 0.63622 0.64965 0.67577 0.0
C3819 C 0.62662 0.63241 0.66918 0.0
C3820 C 0.62281 0.61755 0.68417 0.0
H3821 H 0.57853 0.6015 0.54543 0.0
H3822 H 0.5829 0.61059 0.58289 0.0
C3823 C 0.6289 0.6197 0.70534 0.0
C3824 C 0.62227 0.6291 0.64631 0.0
H3825 H 0.59684 0.64729 0.60362 0.0
C3826 C 0.63185 0.6135 0.63595 0.0
C3827 C 0.6093 0.64131 0.63464 0.0
C3828 C 0.59809 0.65782 0.64517 0.0
C3829 C 0.62906 0.60997 0.61414 0.0
C3830 C 0.61654 0.62251 0.60232 0.0
C3831 C 0.60663 0.63788 0.61272 0.0
C3832 C 0.61329 0.61941 0.57924 0.0
C3833 C 0.6394 0.59273 0.6039 0.0
C3834 C 0.62877 0.62198 0.56471 0.0
C3835 C 0.62634 0.61684 0.54328 0.0
C3836 C 0.60837 0.609 0.53606 0.0
C3837 C 0.59259 0.60739 0.55049 0.0
C3838 C 0.59503 0.61261 0.57189 0.0
H3839 H 0.64526 0.58226 0.61594 0.0
H3840 H 0.62927 0.58466 0.59309 0.0
H3841 H 0.65193 0.59821 0.59423 0.0
H3842 H 0.64292 0.62741 0.57008 0.0
H3843 H 0.63876 0.61833 0.53258 0.0
H3844 H 0.63687 0.32062 0.79358 0.0
H3845 H 0.62688 0.32166 0.83101 0.0
H3846 H 0.61639 0.38409 0.82574 0.0
H3847 H 0.62595 0.38312 0.78823 0.0
H3848 H 0.64563 0.34198 0.86169 0.0
H3849 H 0.56819 0.36675 0.85825 0.0
H3850 H 0.58107 0.35756 0.83512 0.0
H3851 H 0.58421 0.38272 0.84352 0.0
C3852 C 0.63208 0.33451 0.80027 0.0
C3853 C 0.63223 0.3518 0.78792 0.0
C3854 C 0.62638 0.33508 0.82168 0.0
C3855 C 0.62066 0.3529 0.83116 0.0
C3856 C 0.62027 0.37007 0.81869 0.0
H3857 H 0.61076 0.40494 0.95349 0.0
H3858 H 0.61136 0.3957 0.91594 0.0
C3859 C 0.62587 0.36951 0.79724 0.0
C3860 C 0.61705 0.35396 0.85448 0.0
H3861 H 0.58479 0.3711 0.89188 0.0
C3862 C 0.63218 0.34801 0.86832 0.0
C3863 C 0.59949 0.36181 0.86312 0.0
C3864 C 0.58224 0.36738 0.84922 0.0
C3865 C 0.63066 0.35063 0.89046 0.0
C3866 C 0.61343 0.35923 0.899 0.0
C3867 C 0.598 0.36455 0.88526 0.0
C3868 C 0.61189 0.36435 0.9219 0.0
C3869 C 0.64785 0.34507 0.90445 0.0
C3870 C 0.61169 0.34974 0.93774 0.0
C3871 C 0.61136 0.35497 0.95935 0.0
C3872 C 0.61121 0.37491 0.96542 0.0
C3873 C 0.61095 0.38945 0.94943 0.0
C3874 C 0.61123 0.3842 0.92792 0.0
H3875 H 0.66127 0.3417 0.89502 0.0
H3876 H 0.65131 0.35714 0.9158 0.0
H3877 H 0.64398 0.33181 0.9139 0.0
H3878 H 0.61196 0.33431 0.93339 0.0
H3879 H 0.61149 0.34343 0.97126 0.0
H3880 H 0.85738 0.38274 0.03829 0.0
H3881 H 0.85581 0.37417 0.07605 0.0
H3882 H 0.91884 0.36679 0.07741 0.0
H3883 H 0.92063 0.37586 0.03969 0.0
H3884 H 0.8667 0.34189 0.09894 0.0
H3885 H 0.91026 0.40711 0.12415 0.0
H3886 H 0.90097 0.40427 0.09739 0.0
H3887 H 0.9226 0.3911 0.10572 0.0
C3888 C 0.87092 0.37916 0.04654 0.0
C3889 C 0.88917 0.38022 0.03602 0.0
C3890 C 0.86999 0.37425 0.06815 0.0
C3891 C 0.88725 0.37024 0.07967 0.0
C3892 C 0.90539 0.37031 0.06897 0.0
H3893 H 0.87739 0.3267 0.21157 0.0
H3894 H 0.88697 0.32948 0.17405 0.0
C3895 C 0.90636 0.37538 0.04737 0.0
C3896 C 0.88611 0.36664 0.10299 0.0
H3897 H 0.89998 0.38541 0.15125 0.0
C3898 C 0.87408 0.3513 0.1104 0.0
C3899 C 0.8956 0.3791 0.1179 0.0
C3900 C 0.90795 0.39643 0.11097 0.0
C3901 C 0.87093 0.34831 0.13229 0.0
C3902 C 0.88047 0.36073 0.14721 0.0
C3903 C 0.89283 0.37581 0.1398 0.0
C3904 C 0.87652 0.35939 0.17044 0.0
C3905 C 0.85674 0.33244 0.13918 0.0
C3906 C 0.86837 0.37559 0.18116 0.0
C3907 C 0.86315 0.37416 0.20264 0.0
C3908 C 0.86593 0.35644 0.21385 0.0
C3909 C 0.87488 0.34049 0.20334 0.0
C3910 C 0.88024 0.342 0.18185 0.0
H3911 H 0.84728 0.32739 0.12579 0.0
H3912 H 0.86515 0.31956 0.14511 0.0
H3913 H 0.8471 0.33774 0.15227 0.0
H3914 H 0.86547 0.3892 0.17271 0.0
H3915 H 0.85635 0.38675 0.21023 0.0
H3916 H 0.85718 0.60528 0.28674 0.0
H3917 H 0.86526 0.60301 0.32461 0.0
H3918 H 0.87183 0.6661 0.32763 0.0
H3919 H 0.86325 0.66857 0.28983 0.0
H3920 H 0.89697 0.61382 0.34851 0.0
H3921 H 0.83083 0.65607 0.37328 0.0
H3922 H 0.83426 0.64733 0.34638 0.0
H3923 H 0.84691 0.66904 0.35544 0.0
C3924 C 0.8605 0.61868 0.29539 0.0
C3925 C 0.85934 0.63714 0.28531 0.0
C3926 C 0.86512 0.61735 0.31706 0.0
C3927 C 0.86872 0.63441 0.32907 0.0
C3928 C 0.8686 0.65278 0.31881 0.0
H3929 H 0.91154 0.62531 0.46109 0.0
H3930 H 0.90863 0.63428 0.42341 0.0
C3931 C 0.86382 0.65415 0.29716 0.0
C3932 C 0.87195 0.63288 0.35243 0.0
H3933 H 0.85253 0.6461 0.40059 0.0
C3934 C 0.88733 0.62096 0.35992 0.0
C3935 C 0.85918 0.64203 0.36728 0.0
C3936 C 0.84175 0.65419 0.36026 0.0
C3937 C 0.89017 0.6177 0.38182 0.0
C3938 C 0.87753 0.627 0.39667 0.0
C3939 C 0.86231 0.63914 0.38919 0.0
C3940 C 0.87894 0.6232 0.41993 0.0
C3941 C 0.90618 0.6037 0.38879 0.0
C3942 C 0.86289 0.61487 0.43075 0.0
C3943 C 0.86439 0.60999 0.45233 0.0
C3944 C 0.88202 0.61331 0.46353 0.0
C3945 C 0.89782 0.62239 0.45288 0.0
C3946 C 0.89624 0.6274 0.4313 0.0
H3947 H 0.91135 0.59428 0.37544 0.0
H3948 H 0.91896 0.61229 0.3947 0.0
H3949 H 0.90099 0.59404 0.40191 0.0
H3950 H 0.84935 0.61161 0.42233 0.0
H3951 H 0.85192 0.60306 0.46003 0.0
H3952 H 0.32674 0.33854 0.30285 0.0
H3953 H 0.33904 0.34227 0.3392 0.0
H3954 H 0.38747 0.37726 0.31598 0.0
H3955 H 0.37496 0.37404 0.27952 0.0
H3956 H 0.37388 0.33306 0.35922 0.0
H3957 H 0.36177 0.41397 0.35869 0.0
H3958 H 0.35238 0.39807 0.33803 0.0
H3959 H 0.37786 0.40525 0.33806 0.0
C3960 C 0.34009 0.34694 0.30541 0.0
C3961 C 0.34973 0.35621 0.2883 0.0
C3962 C 0.34712 0.34901 0.32622 0.0
C3963 C 0.36394 0.36035 0.33035 0.0
C3964 C 0.37418 0.36882 0.3132 0.0
H3965 H 0.41321 0.40061 0.45091 0.0
H3966 H 0.40967 0.39042 0.41374 0.0
C3967 C 0.36707 0.36689 0.29236 0.0
C3968 C 0.37013 0.36397 0.3527 0.0
H3969 H 0.37598 0.40043 0.38965 0.0
C3970 C 0.37443 0.34779 0.36587 0.0
C3971 C 0.37073 0.38321 0.36138 0.0
C3972 C 0.36527 0.40112 0.3484 0.0
C3973 C 0.37929 0.35035 0.38748 0.0
C3974 C 0.37969 0.36955 0.39613 0.0
C3975 C 0.37575 0.38573 0.3829 0.0
C3976 C 0.38327 0.37334 0.41907 0.0
C3977 C 0.38399 0.33253 0.40088 0.0
C3978 C 0.36973 0.36686 0.43444 0.0
C3979 C 0.37166 0.37271 0.45573 0.0
C3980 C 0.38713 0.38522 0.46197 0.0
C3981 C 0.40111 0.391 0.44666 0.0
C3982 C 0.39913 0.3852 0.4254 0.0
H3983 H 0.38795 0.31962 0.39087 0.0
H3984 H 0.39631 0.33565 0.41201 0.0
H3985 H 0.37088 0.32856 0.4105 0.0
H3986 H 0.35719 0.35799 0.42982 0.0
H3987 H 0.3606 0.36805 0.46709 0.0
H3988 H 0.3335 0.65383 0.19381 0.0
H3989 H 0.34489 0.64866 0.15735 0.0
H3990 H 0.38988 0.60919 0.18025 0.0
H3991 H 0.37821 0.61386 0.21686 0.0
H3992 H 0.38004 0.65438 0.13686 0.0
H3993 H 0.36049 0.57495 0.13799 0.0
H3994 H 0.35291 0.59171 0.15871 0.0
H3995 H 0.3776 0.58218 0.15834 0.0
C3996 C 0.3459 0.64413 0.19116 0.0
C3997 C 0.3548 0.63407 0.20824 0.0
C3998 C 0.35242 0.64123 0.17028 0.0
C3999 C 0.36798 0.62825 0.16602 0.0
C4000 C 0.37754 0.61891 0.18312 0.0
H4001 H 0.41295 0.58338 0.04552 0.0
H4002 H 0.41 0.59368 0.08271 0.0
C4003 C 0.37092 0.62168 0.20404 0.0
C4004 C 0.37354 0.62397 0.14361 0.0
H4005 H 0.37565 0.58697 0.10682 0.0
C4006 C 0.37915 0.63963 0.1303 0.0
C4007 C 0.37226 0.60473 0.13504 0.0
C4008 C 0.36532 0.58744 0.14817 0.0
C4009 C 0.38354 0.63656 0.10865 0.0
C4010 C 0.38212 0.61736 0.10011 0.0
C4011 C 0.37682 0.60167 0.11347 0.0
C4012 C 0.38534 0.61314 0.07718 0.0
C4013 C 0.38976 0.65382 0.09512 0.0
C4014 C 0.37257 0.62087 0.06169 0.0
C4015 C 0.37417 0.61497 0.04038 0.0
C4016 C 0.38852 0.60117 0.03423 0.0
C4017 C 0.40171 0.59401 0.04969 0.0
C4018 C 0.40007 0.59987 0.07097 0.0
H4019 H 0.39493 0.66636 0.10502 0.0
H4020 H 0.40167 0.64955 0.08392 0.0
H4021 H 0.377 0.65892 0.08556 0.0
H4022 H 0.36088 0.63086 0.06621 0.0
H4023 H 0.36374 0.62071 0.02889 0.0
H4024 H 0.16483 0.65228 0.80143 0.0
H4025 H 0.1535 0.64741 0.838 0.0
H4026 H 0.104 0.61384 0.81492 0.0
H4027 H 0.11547 0.61825 0.77825 0.0
H4028 H 0.1187 0.65621 0.85931 0.0
H4029 H 0.13109 0.57541 0.85521 0.0
H4030 H 0.14012 0.59208 0.83508 0.0
H4031 H 0.11466 0.58489 0.83529 0.0
C4032 C 0.15144 0.64399 0.80408 0.0
C4033 C 0.14117 0.63546 0.78693 0.0
C4034 C 0.14497 0.64125 0.82501 0.0
C4035 C 0.12812 0.62996 0.82919 0.0
C4036 C 0.11728 0.62224 0.81206 0.0
H4037 H 0.08142 0.58534 0.94901 0.0
H4038 H 0.08469 0.59616 0.91203 0.0
C4039 C 0.1238 0.62487 0.79111 0.0
C4040 C 0.12251 0.62557 0.85153 0.0
H4041 H 0.11763 0.58785 0.88708 0.0
C4042 C 0.11839 0.64127 0.86539 0.0
C4043 C 0.1222 0.60605 0.85942 0.0
C4044 C 0.12742 0.58863 0.84557 0.0
C4045 C 0.11392 0.63796 0.88697 0.0
C4046 C 0.11382 0.61847 0.89487 0.0
C4047 C 0.11763 0.60277 0.88093 0.0
C4048 C 0.11059 0.61391 0.9177 0.0
C4049 C 0.10923 0.65531 0.90109 0.0
C4050 C 0.12399 0.62046 0.93319 0.0
C4051 C 0.12219 0.61428 0.95438 0.0
C4052 C 0.10702 0.60133 0.96039 0.0
C4053 C 0.09329 0.59528 0.94493 0.0
C4054 C 0.09512 0.60145 0.92378 0.0
H4055 H 0.1047 0.66837 0.89163 0.0
H4056 H 0.09731 0.65164 0.91254 0.0
H4057 H 0.12254 0.65933 0.91037 0.0
H4058 H 0.13627 0.62977 0.92876 0.0
H4059 H 0.13305 0.61916 0.96587 0.0
H4060 H 0.10952 0.36902 0.7131 0.0
H4061 H 0.09878 0.37135 0.67596 0.0
H4062 H 0.15025 0.3391 0.65601 0.0
H4063 H 0.16087 0.33633 0.69306 0.0
H4064 H 0.11911 0.3903 0.64515 0.0
H4065 H 0.10791 0.31271 0.6208 0.0
H4066 H 0.10987 0.32005 0.64839 0.0
H4067 H 0.13166 0.317 0.63242 0.0
C4068 C 0.11837 0.36209 0.70086 0.0
C4069 C 0.13608 0.35252 0.70606 0.0
C4070 C 0.1122 0.36344 0.67963 0.0
C4071 C 0.12358 0.3552 0.66321 0.0
C4072 C 0.14097 0.34516 0.66842 0.0
H4073 H 0.13153 0.37095 0.527 0.0
H4074 H 0.13527 0.36012 0.56404 0.0
C4075 C 0.1471 0.34372 0.68964 0.0
C4076 C 0.11835 0.35889 0.64057 0.0
H4077 H 0.1102 0.33643 0.59259 0.0
C4078 C 0.11691 0.37851 0.63373 0.0
C4079 C 0.11563 0.34348 0.62565 0.0
C4080 C 0.11616 0.32213 0.63221 0.0
C4081 C 0.11333 0.38317 0.61231 0.0
C4082 C 0.11085 0.3678 0.59734 0.0
C4083 C 0.11211 0.34816 0.60414 0.0
C4084 C 0.10739 0.37205 0.57449 0.0
C4085 C 0.11281 0.40455 0.60572 0.0
C4086 C 0.09018 0.38174 0.56801 0.0
C4087 C 0.088 0.38797 0.54692 0.0
C4088 C 0.10298 0.38457 0.5319 0.0
C4089 C 0.11974 0.37387 0.53819 0.0
C4090 C 0.12191 0.36765 0.55933 0.0
H4091 H 0.11906 0.41436 0.61818 0.0
H4092 H 0.12111 0.40683 0.59067 0.0
H4093 H 0.09732 0.40903 0.6029 0.0
H4094 H 0.07869 0.38501 0.57945 0.0
H4095 H 0.07483 0.39601 0.54259 0.0
loop_
_geom_bond_atom_site_label_1
_geom_bond_atom_site_label_2
_geom_bond_distance
_geom_bond_site_symmetry_2
_ccdc_geom_bond_type
Zn0 O6 1.969 . S
Zn0 O7 1.965 . S
Zn0 O11 2.024 . S
Zn0 O16 1.969 . S
Zn1 O8 1.969 . S
Zn1 O14 1.969 . S
Zn1 O15 1.965 . S
Zn1 O17 2.024 . S
C2 O3 1.229 . S
C2 O11 1.058 . S
O3 C2 1.229 . S
C4 O5 1.229 . S
C4 O17 1.058 . S
O5 C4 1.229 . S
O6 Zn0 1.969 . S
O6 C9 1.267 . S
O7 Zn0 1.965 . S
O7 C18 1.260 . S
O8 Zn1 1.969 . S
O8 C18 1.258 . S
C9 O6 1.267 . S
C9 O10 1.228 . S
O10 C9 1.228 . S
O11 Zn0 2.024 . S
O11 C2 1.058 . S
C12 O13 1.228 . S
C12 O14 1.267 . S
O13 C12 1.228 . S
O14 Zn1 1.969 . S
O14 C12 1.267 . S
O15 Zn1 1.965 . S
O15 C19 1.260 . S
O16 Zn0 1.969 . S
O16 C19 1.258 . S
O17 Zn1 2.024 . S
O17 C4 1.058 . S
C18 O7 1.260 . S
C18 O8 1.258 . S
C19 O15 1.260 . S
C19 O16 1.258 . S
Zn20 O26 1.969 . S
Zn20 O27 1.965 . S
Zn20 O31 2.024 . S
Zn20 O36 1.969 . S
Zn21 O28 1.969 . S
Zn21 O34 1.969 . S
Zn21 O35 1.965 . S
Zn21 O37 2.024 . S
C22 O23 1.229 . S
C22 O31 1.058 . S
O23 C22 1.229 . S
C24 O25 1.229 . S
C24 O37 1.058 . S
O25 C24 1.229 . S
O26 Zn20 1.969 . S
O26 C29 1.267 . S
O27 Zn20 1.965 . S
O27 C38 1.260 . S
O28 Zn21 1.969 . S
O28 C38 1.258 . S
C29 O26 1.267 . S
C29 O30 1.228 . S
O30 C29 1.228 . S
O31 Zn20 2.024 . S
O31 C22 1.058 . S
C32 O33 1.228 . S
C32 O34 1.267 . S
O33 C32 1.228 . S
O34 Zn21 1.969 . S
O34 C32 1.267 . S
O35 Zn21 1.965 . S
O35 C39 1.260 . S
O36 Zn20 1.969 . S
O36 C39 1.258 . S
O37 Zn21 2.024 . S
O37 C24 1.058 . S
C38 O27 1.260 . S
C38 O28 1.258 . S
C39 O35 1.260 . S
C39 O36 1.258 . S
Zn40 O46 1.969 . S
Zn40 O47 1.965 . S
Zn40 O51 2.024 . S
Zn40 O56 1.969 . S
Zn41 O48 1.969 . S
Zn41 O54 1.969 . S
Zn41 O55 1.965 . S
Zn41 O57 2.024 . S
C42 O43 1.229 . S
C42 O51 1.058 . S
O43 C42 1.229 . S
C44 O45 1.229 . S
C44 O57 1.058 . S
O45 C44 1.229 . S
O46 Zn40 1.969 . S
O46 C49 1.267 . S
O47 Zn40 1.965 . S
O47 C58 1.260 . S
O48 Zn41 1.969 . S
O48 C58 1.258 . S
C49 O46 1.267 . S
C49 O50 1.228 . S
O50 C49 1.228 . S
O51 Zn40 2.024 . S
O51 C42 1.058 . S
C52 O53 1.228 . S
C52 O54 1.267 . S
O53 C52 1.228 . S
O54 Zn41 1.969 . S
O54 C52 1.267 . S
O55 Zn41 1.965 . S
O55 C59 1.260 . S
O56 Zn40 1.969 . S
O56 C59 1.258 . S
O57 Zn41 2.024 . S
O57 C44 1.058 . S
C58 O47 1.260 . S
C58 O48 1.258 . S
C59 O55 1.260 . S
C59 O56 1.258 . S
Zn60 O66 1.969 . S
Zn60 O67 1.965 . S
Zn60 O71 2.024 . S
Zn60 O76 1.969 . S
Zn61 O68 1.969 . S
Zn61 O74 1.969 . S
Zn61 O75 1.965 . S
Zn61 O77 2.024 1_554 S
C62 O63 1.229 . S
C62 O71 1.058 . S
O63 C62 1.229 . S
C64 O65 1.229 . S
C64 O77 1.058 . S
O65 C64 1.229 . S
O66 Zn60 1.969 . S
O66 C69 1.267 . S
O67 Zn60 1.965 . S
O67 C78 1.260 . S
O68 Zn61 1.969 . S
O68 C78 1.258 . S
C69 O66 1.267 . S
C69 O70 1.228 . S
O70 C69 1.228 . S
O71 Zn60 2.024 . S
O71 C62 1.058 . S
C72 O73 1.228 1_554 S
C72 O74 1.267 . S
O73 C72 1.228 1_556 S
O74 Zn61 1.969 . S
O74 C72 1.267 . S
O75 Zn61 1.965 . S
O75 C79 1.260 . S
O76 Zn60 1.969 . S
O76 C79 1.258 . S
O77 Zn61 2.024 1_556 S
O77 C64 1.058 . S
C78 O67 1.260 . S
C78 O68 1.258 . S
C79 O75 1.260 . S
C79 O76 1.258 . S
Zn80 O86 1.969 . S
Zn80 O87 1.965 . S
Zn80 O91 2.024 . S
Zn80 O96 1.969 . S
Zn81 O88 1.969 . S
Zn81 O94 1.969 . S
Zn81 O95 1.965 . S
Zn81 O97 2.024 . S
C82 O83 1.229 . S
C82 O91 1.058 . S
O83 C82 1.229 . S
C84 O85 1.229 . S
C84 O97 1.058 . S
O85 C84 1.229 . S
O86 Zn80 1.969 . S
O86 C89 1.267 . S
O87 Zn80 1.965 . S
O87 C98 1.260 . S
O88 Zn81 1.969 . S
O88 C98 1.258 . S
C89 O86 1.267 . S
C89 O90 1.228 . S
O90 C89 1.228 . S
O91 Zn80 2.024 . S
O91 C82 1.058 . S
C92 O93 1.228 . S
C92 O94 1.267 . S
O93 C92 1.228 . S
O94 Zn81 1.969 . S
O94 C92 1.267 . S
O95 Zn81 1.965 . S
O95 C99 1.260 . S
O96 Zn80 1.969 . S
O96 C99 1.258 . S
O97 Zn81 2.024 . S
O97 C84 1.058 . S
C98 O87 1.260 . S
C98 O88 1.258 . S
C99 O95 1.260 . S
C99 O96 1.258 . S
Zn100 O106 1.969 . S
Zn100 O107 1.965 . S
Zn100 O111 2.024 . S
Zn100 O116 1.969 . S
Zn101 O108 1.969 . S
Zn101 O114 1.969 . S
Zn101 O115 1.965 . S
Zn101 O117 2.024 . S
C102 O103 1.229 . S
C102 O111 1.058 . S
O103 C102 1.229 . S
C104 O105 1.229 . S
C104 O117 1.058 . S
O105 C104 1.229 . S
O106 Zn100 1.969 . S
O106 C109 1.267 . S
O107 Zn100 1.965 . S
O107 C118 1.260 . S
O108 Zn101 1.969 . S
O108 C118 1.258 . S
C109 O106 1.267 . S
C109 O110 1.228 . S
O110 C109 1.228 . S
O111 Zn100 2.024 . S
O111 C102 1.058 . S
C112 O113 1.228 . S
C112 O114 1.267 . S
O113 C112 1.228 . S
O114 Zn101 1.969 . S
O114 C112 1.267 . S
O115 Zn101 1.965 . S
O115 C119 1.260 . S
O116 Zn100 1.969 . S
O116 C119 1.258 . S
O117 Zn101 2.024 . S
O117 C104 1.058 . S
C118 O107 1.260 . S
C118 O108 1.258 . S
C119 O115 1.260 . S
C119 O116 1.258 . S
Zn120 O126 1.969 . S
Zn120 O127 1.965 . S
Zn120 O131 2.024 . S
Zn120 O136 1.969 . S
Zn121 O128 1.969 . S
Zn121 O134 1.969 . S
Zn121 O135 1.965 . S
Zn121 O137 2.024 . S
C122 O123 1.229 . S
C122 O131 1.058 . S
O123 C122 1.229 . S
C124 O125 1.229 . S
C124 O137 1.058 . S
O125 C124 1.229 . S
O126 Zn120 1.969 . S
O126 C129 1.267 . S
O127 Zn120 1.965 . S
O127 C138 1.260 . S
O128 Zn121 1.969 . S
O128 C138 1.258 . S
C129 O126 1.267 . S
C129 O130 1.228 . S
O130 C129 1.228 . S
O131 Zn120 2.024 . S
O131 C122 1.058 . S
C132 O133 1.228 . S
C132 O134 1.267 . S
O133 C132 1.228 . S
O134 Zn121 1.969 . S
O134 C132 1.267 . S
O135 Zn121 1.965 . S
O135 C139 1.260 . S
O136 Zn120 1.969 . S
O136 C139 1.258 . S
O137 Zn121 2.024 . S
O137 C124 1.058 . S
C138 O127 1.260 . S
C138 O128 1.258 . S
C139 O135 1.260 . S
C139 O136 1.258 . S
Zn140 O146 1.969 . S
Zn140 O147 1.965 . S
Zn140 O151 2.024 . S
Zn140 O156 1.969 . S
Zn141 O148 1.969 . S
Zn141 O154 1.969 . S
Zn141 O155 1.965 . S
Zn141 O157 2.024 1_556 S
C142 O143 1.229 . S
C142 O151 1.058 . S
O143 C142 1.229 . S
C144 O145 1.229 . S
C144 O157 1.058 . S
O145 C144 1.229 . S
O146 Zn140 1.969 . S
O146 C149 1.267 . S
O147 Zn140 1.965 . S
O147 C158 1.260 . S
O148 Zn141 1.969 . S
O148 C158 1.258 . S
C149 O146 1.267 . S
C149 O150 1.228 . S
O150 C149 1.228 . S
O151 Zn140 2.024 . S
O151 C142 1.058 . S
C152 O153 1.228 1_556 S
C152 O154 1.267 . S
O153 C152 1.228 1_554 S
O154 Zn141 1.969 . S
O154 C152 1.267 . S
O155 Zn141 1.965 . S
O155 C159 1.260 . S
O156 Zn140 1.969 . S
O156 C159 1.258 . S
O157 Zn141 2.024 1_554 S
O157 C144 1.058 . S
C158 O147 1.260 . S
C158 O148 1.258 . S
C159 O155 1.260 . S
C159 O156 1.258 . S
Zn160 O166 1.969 . S
Zn160 O167 1.965 . S
Zn160 O171 2.024 . S
Zn160 O176 1.969 . S
Zn161 O168 1.969 . S
Zn161 O174 1.969 . S
Zn161 O175 1.965 . S
Zn161 O177 2.024 . S
C162 O163 1.229 . S
C162 O171 1.058 . S
O163 C162 1.229 . S
C164 O165 1.229 . S
C164 O177 1.058 . S
O165 C164 1.229 . S
O166 Zn160 1.969 . S
O166 C169 1.267 . S
O167 Zn160 1.965 . S
O167 C178 1.260 . S
O168 Zn161 1.969 . S
O168 C178 1.258 . S
C169 O166 1.267 . S
C169 O170 1.228 . S
O170 C169 1.228 . S
O171 Zn160 2.024 . S
O171 C162 1.058 . S
C172 O173 1.228 . S
C172 O174 1.267 . S
O173 C172 1.228 . S
O174 Zn161 1.969 . S
O174 C172 1.267 . S
O175 Zn161 1.965 . S
O175 C179 1.260 . S
O176 Zn160 1.969 . S
O176 C179 1.258 . S
O177 Zn161 2.024 . S
O177 C164 1.058 . S
C178 O167 1.260 . S
C178 O168 1.258 . S
C179 O175 1.260 . S
C179 O176 1.258 . S
Zn180 O186 1.969 . S
Zn180 O187 1.965 . S
Zn180 O191 2.024 . S
Zn180 O196 1.969 . S
Zn181 O188 1.969 . S
Zn181 O194 1.969 . S
Zn181 O195 1.965 . S
Zn181 O197 2.024 . S
C182 O183 1.229 . S
C182 O191 1.058 . S
O183 C182 1.229 . S
C184 O185 1.229 . S
C184 O197 1.058 . S
O185 C184 1.229 . S
O186 Zn180 1.969 . S
O186 C189 1.267 . S
O187 Zn180 1.965 . S
O187 C198 1.260 . S
O188 Zn181 1.969 . S
O188 C198 1.258 . S
C189 O186 1.267 . S
C189 O190 1.228 . S
O190 C189 1.228 . S
O191 Zn180 2.024 . S
O191 C182 1.058 . S
C192 O193 1.228 . S
C192 O194 1.267 . S
O193 C192 1.228 . S
O194 Zn181 1.969 . S
O194 C192 1.267 . S
O195 Zn181 1.965 . S
O195 C199 1.260 . S
O196 Zn180 1.969 . S
O196 C199 1.258 . S
O197 Zn181 2.024 . S
O197 C184 1.058 . S
C198 O187 1.260 . S
C198 O188 1.258 . S
C199 O195 1.260 . S
C199 O196 1.258 . S
Zn200 O206 1.969 . S
Zn200 O207 1.965 . S
Zn200 O211 2.024 . S
Zn200 O216 1.969 . S
Zn201 O208 1.969 . S
Zn201 O214 1.969 . S
Zn201 O215 1.965 . S
Zn201 O217 2.024 . S
C202 O203 1.229 . S
C202 O211 1.058 . S
O203 C202 1.229 . S
C204 O205 1.229 . S
C204 O217 1.058 . S
O205 C204 1.229 . S
O206 Zn200 1.969 . S
O206 C209 1.267 . S
O207 Zn200 1.965 . S
O207 C218 1.260 . S
O208 Zn201 1.969 . S
O208 C218 1.258 . S
C209 O206 1.267 . S
C209 O210 1.228 . S
O210 C209 1.228 . S
O211 Zn200 2.024 . S
O211 C202 1.058 . S
C212 O213 1.228 . S
C212 O214 1.267 . S
O213 C212 1.228 . S
O214 Zn201 1.969 . S
O214 C212 1.267 . S
O215 Zn201 1.965 . S
O215 C219 1.260 . S
O216 Zn200 1.969 . S
O216 C219 1.258 . S
O217 Zn201 2.024 . S
O217 C204 1.058 . S
C218 O207 1.260 . S
C218 O208 1.258 . S
C219 O215 1.260 . S
C219 O216 1.258 . S
Zn220 O226 1.969 . S
Zn220 O227 1.965 . S
Zn220 O231 2.024 1_556 S
Zn220 O236 1.969 . S
Zn221 O228 1.969 . S
Zn221 O234 1.969 . S
Zn221 O235 1.965 . S
Zn221 O237 2.024 . S
C222 O223 1.229 . S
C222 O231 1.058 . S
O223 C222 1.229 . S
C224 O225 1.229 . S
C224 O237 1.058 . S
O225 C224 1.229 . S
O226 Zn220 1.969 . S
O226 C229 1.267 . S
O227 Zn220 1.965 . S
O227 C238 1.260 . S
O228 Zn221 1.969 . S
O228 C238 1.258 . S
C229 O226 1.267 . S
C229 O230 1.228 1_556 S
O230 C229 1.228 1_554 S
O231 Zn220 2.024 1_554 S
O231 C222 1.058 . S
C232 O233 1.228 . S
C232 O234 1.267 . S
O233 C232 1.228 . S
O234 Zn221 1.969 . S
O234 C232 1.267 . S
O235 Zn221 1.965 . S
O235 C239 1.260 . S
O236 Zn220 1.969 . S
O236 C239 1.258 . S
O237 Zn221 2.024 . S
O237 C224 1.058 . S
C238 O227 1.260 . S
C238 O228 1.258 . S
C239 O235 1.260 . S
C239 O236 1.258 . S
Zn240 O246 1.969 . S
Zn240 O247 1.965 . S
Zn240 O251 2.024 . S
Zn240 O256 1.969 . S
Zn241 O248 1.969 . S
Zn241 O254 1.969 . S
Zn241 O255 1.965 . S
Zn241 O257 2.024 . S
C242 O243 1.229 . S
C242 O251 1.058 . S
O243 C242 1.229 . S
C244 O245 1.229 . S
C244 O257 1.058 . S
O245 C244 1.229 . S
O246 Zn240 1.969 . S
O246 C249 1.267 . S
O247 Zn240 1.965 . S
O247 C258 1.260 . S
O248 Zn241 1.969 . S
O248 C258 1.258 . S
C249 O246 1.267 . S
C249 O250 1.228 . S
O250 C249 1.228 . S
O251 Zn240 2.024 . S
O251 C242 1.058 . S
C252 O253 1.228 . S
C252 O254 1.267 . S
O253 C252 1.228 . S
O254 Zn241 1.969 . S
O254 C252 1.267 . S
O255 Zn241 1.965 . S
O255 C259 1.260 . S
O256 Zn240 1.969 . S
O256 C259 1.258 . S
O257 Zn241 2.024 . S
O257 C244 1.058 . S
C258 O247 1.260 . S
C258 O248 1.258 . S
C259 O255 1.260 . S
C259 O256 1.258 . S
Zn260 O266 1.969 . S
Zn260 O267 1.965 . S
Zn260 O271 2.024 . S
Zn260 O276 1.969 . S
Zn261 O268 1.969 . S
Zn261 O274 1.969 . S
Zn261 O275 1.965 . S
Zn261 O277 2.024 . S
C262 O263 1.229 . S
C262 O271 1.058 . S
O263 C262 1.229 . S
C264 O265 1.229 . S
C264 O277 1.058 . S
O265 C264 1.229 . S
O266 Zn260 1.969 . S
O266 C269 1.267 . S
O267 Zn260 1.965 . S
O267 C278 1.260 . S
O268 Zn261 1.969 . S
O268 C278 1.258 . S
C269 O266 1.267 . S
C269 O270 1.228 . S
O270 C269 1.228 . S
O271 Zn260 2.024 . S
O271 C262 1.058 . S
C272 O273 1.228 . S
C272 O274 1.267 . S
O273 C272 1.228 . S
O274 Zn261 1.969 . S
O274 C272 1.267 . S
O275 Zn261 1.965 . S
O275 C279 1.260 . S
O276 Zn260 1.969 . S
O276 C279 1.258 . S
O277 Zn261 2.024 . S
O277 C264 1.058 . S
C278 O267 1.260 . S
C278 O268 1.258 . S
C279 O275 1.260 . S
C279 O276 1.258 . S
Zn280 O286 1.969 . S
Zn280 O287 1.965 . S
Zn280 O291 2.024 . S
Zn280 O296 1.969 . S
Zn281 O288 1.969 . S
Zn281 O294 1.969 . S
Zn281 O295 1.965 . S
Zn281 O297 2.024 . S
C282 O283 1.229 . S
C282 O291 1.058 . S
O283 C282 1.229 . S
C284 O285 1.229 . S
C284 O297 1.058 . S
O285 C284 1.229 . S
O286 Zn280 1.969 . S
O286 C289 1.267 . S
O287 Zn280 1.965 . S
O287 C298 1.260 . S
O288 Zn281 1.969 . S
O288 C298 1.258 . S
C289 O286 1.267 . S
C289 O290 1.228 . S
O290 C289 1.228 . S
O291 Zn280 2.024 . S
O291 C282 1.058 . S
C292 O293 1.228 . S
C292 O294 1.267 . S
O293 C292 1.228 . S
O294 Zn281 1.969 . S
O294 C292 1.267 . S
O295 Zn281 1.965 . S
O295 C299 1.260 . S
O296 Zn280 1.969 . S
O296 C299 1.258 . S
O297 Zn281 2.024 . S
O297 C284 1.058 . S
C298 O287 1.260 . S
C298 O288 1.258 . S
C299 O295 1.260 . S
C299 O296 1.258 . S
Zn300 O306 1.969 . S
Zn300 O307 1.965 . S
Zn300 O311 2.024 1_554 S
Zn300 O316 1.969 . S
Zn301 O308 1.969 . S
Zn301 O314 1.969 . S
Zn301 O315 1.965 . S
Zn301 O317 2.024 . S
C302 O303 1.229 . S
C302 O311 1.058 . S
O303 C302 1.229 . S
C304 O305 1.229 . S
C304 O317 1.058 . S
O305 C304 1.229 . S
O306 Zn300 1.969 . S
O306 C309 1.267 . S
O307 Zn300 1.965 . S
O307 C318 1.260 . S
O308 Zn301 1.969 . S
O308 C318 1.258 . S
C309 O306 1.267 . S
C309 O310 1.228 1_554 S
O310 C309 1.228 1_556 S
O311 Zn300 2.024 1_556 S
O311 C302 1.058 . S
C312 O313 1.228 . S
C312 O314 1.267 . S
O313 C312 1.228 . S
O314 Zn301 1.969 . S
O314 C312 1.267 . S
O315 Zn301 1.965 . S
O315 C319 1.260 . S
O316 Zn300 1.969 . S
O316 C319 1.258 . S
O317 Zn301 2.024 . S
O317 C304 1.058 . S
C318 O307 1.260 . S
C318 O308 1.258 . S
C319 O315 1.260 . S
C319 O316 1.258 . S
Zn320 O326 1.969 . S
Zn320 O327 1.965 . S
Zn320 O331 2.024 . S
Zn320 O336 1.969 . S
Zn321 O328 1.969 . S
Zn321 O334 1.969 . S
Zn321 O335 1.965 . S
Zn321 O337 2.024 . S
C322 O323 1.229 . S
C322 O331 1.058 . S
O323 C322 1.229 . S
C324 O325 1.229 . S
C324 O337 1.058 . S
O325 C324 1.229 . S
O326 Zn320 1.969 . S
O326 C329 1.267 . S
O327 Zn320 1.965 . S
O327 C338 1.260 . S
O328 Zn321 1.969 . S
O328 C338 1.258 . S
C329 O326 1.267 . S
C329 O330 1.228 . S
O330 C329 1.228 . S
O331 Zn320 2.024 . S
O331 C322 1.058 . S
C332 O333 1.228 . S
C332 O334 1.267 . S
O333 C332 1.228 . S
O334 Zn321 1.969 . S
O334 C332 1.267 . S
O335 Zn321 1.965 . S
O335 C339 1.260 . S
O336 Zn320 1.969 . S
O336 C339 1.258 . S
O337 Zn321 2.024 . S
O337 C324 1.058 . S
C338 O327 1.260 . S
C338 O328 1.258 . S
C339 O335 1.260 . S
C339 O336 1.258 . S
Zn340 O346 1.969 . S
Zn340 O347 1.965 . S
Zn340 O351 2.024 . S
Zn340 O356 1.969 . S
Zn341 O348 1.969 . S
Zn341 O354 1.969 . S
Zn341 O355 1.965 . S
Zn341 O357 2.024 1_554 S
C342 O343 1.229 . S
C342 O351 1.058 . S
O343 C342 1.229 . S
C344 O345 1.229 . S
C344 O357 1.058 . S
O345 C344 1.229 . S
O346 Zn340 1.969 . S
O346 C349 1.267 . S
O347 Zn340 1.965 . S
O347 C358 1.260 . S
O348 Zn341 1.969 . S
O348 C358 1.258 . S
C349 O346 1.267 . S
C349 O350 1.228 . S
O350 C349 1.228 . S
O351 Zn340 2.024 . S
O351 C342 1.058 . S
C352 O353 1.228 1_554 S
C352 O354 1.267 . S
O353 C352 1.228 1_556 S
O354 Zn341 1.969 . S
O354 C352 1.267 . S
O355 Zn341 1.965 . S
O355 C359 1.260 . S
O356 Zn340 1.969 . S
O356 C359 1.258 . S
O357 Zn341 2.024 1_556 S
O357 C344 1.058 . S
C358 O347 1.260 . S
C358 O348 1.258 . S
C359 O355 1.260 . S
C359 O356 1.258 . S
Zn360 O366 1.969 . S
Zn360 O367 1.965 . S
Zn360 O371 2.024 . S
Zn360 O376 1.969 . S
Zn361 O368 1.969 . S
Zn361 O374 1.969 . S
Zn361 O375 1.965 . S
Zn361 O377 2.024 . S
C362 O363 1.229 . S
C362 O371 1.058 . S
O363 C362 1.229 . S
C364 O365 1.229 . S
C364 O377 1.058 . S
O365 C364 1.229 . S
O366 Zn360 1.969 . S
O366 C369 1.267 . S
O367 Zn360 1.965 . S
O367 C378 1.260 . S
O368 Zn361 1.969 . S
O368 C378 1.258 . S
C369 O366 1.267 . S
C369 O370 1.228 . S
O370 C369 1.228 . S
O371 Zn360 2.024 . S
O371 C362 1.058 . S
C372 O373 1.228 . S
C372 O374 1.267 . S
O373 C372 1.228 . S
O374 Zn361 1.969 . S
O374 C372 1.267 . S
O375 Zn361 1.965 . S
O375 C379 1.260 . S
O376 Zn360 1.969 . S
O376 C379 1.258 . S
O377 Zn361 2.024 . S
O377 C364 1.058 . S
C378 O367 1.260 . S
C378 O368 1.258 . S
C379 O375 1.260 . S
C379 O376 1.258 . S
Zn380 O386 1.969 . S
Zn380 O387 1.965 . S
Zn380 O391 2.024 . S
Zn380 O396 1.969 . S
Zn381 O388 1.969 . S
Zn381 O394 1.969 . S
Zn381 O395 1.965 . S
Zn381 O397 2.024 . S
C382 O383 1.229 . S
C382 O391 1.058 . S
O383 C382 1.229 . S
C384 O385 1.229 . S
C384 O397 1.058 . S
O385 C384 1.229 . S
O386 Zn380 1.969 . S
O386 C389 1.267 . S
O387 Zn380 1.965 . S
O387 C398 1.260 . S
O388 Zn381 1.969 . S
O388 C398 1.258 . S
C389 O386 1.267 . S
C389 O390 1.228 . S
O390 C389 1.228 . S
O391 Zn380 2.024 . S
O391 C382 1.058 . S
C392 O393 1.228 . S
C392 O394 1.267 . S
O393 C392 1.228 . S
O394 Zn381 1.969 . S
O394 C392 1.267 . S
O395 Zn381 1.965 . S
O395 C399 1.260 . S
O396 Zn380 1.969 . S
O396 C399 1.258 . S
O397 Zn381 2.024 . S
O397 C384 1.058 . S
C398 O387 1.260 . S
C398 O388 1.258 . S
C399 O395 1.260 . S
C399 O396 1.258 . S
Zn400 O406 1.969 . S
Zn400 O407 1.965 . S
Zn400 O411 2.024 . S
Zn400 O416 1.969 . S
Zn401 O408 1.969 . S
Zn401 O414 1.969 . S
Zn401 O415 1.965 . S
Zn401 O417 2.024 . S
C402 O403 1.229 . S
C402 O411 1.058 . S
O403 C402 1.229 . S
C404 O405 1.229 . S
C404 O417 1.058 . S
O405 C404 1.229 . S
O406 Zn400 1.969 . S
O406 C409 1.267 . S
O407 Zn400 1.965 . S
O407 C418 1.260 . S
O408 Zn401 1.969 . S
O408 C418 1.258 . S
C409 O406 1.267 . S
C409 O410 1.228 . S
O410 C409 1.228 . S
O411 Zn400 2.024 . S
O411 C402 1.058 . S
C412 O413 1.228 . S
C412 O414 1.267 . S
O413 C412 1.228 . S
O414 Zn401 1.969 . S
O414 C412 1.267 . S
O415 Zn401 1.965 . S
O415 C419 1.260 . S
O416 Zn400 1.969 . S
O416 C419 1.258 . S
O417 Zn401 2.024 . S
O417 C404 1.058 . S
C418 O407 1.260 . S
C418 O408 1.258 . S
C419 O415 1.260 . S
C419 O416 1.258 . S
Zn420 O426 1.969 . S
Zn420 O427 1.965 . S
Zn420 O431 2.024 . S
Zn420 O436 1.969 . S
Zn421 O428 1.969 . S
Zn421 O434 1.969 . S
Zn421 O435 1.965 . S
Zn421 O437 2.024 1_556 S
C422 O423 1.229 . S
C422 O431 1.058 . S
O423 C422 1.229 . S
C424 O425 1.229 . S
C424 O437 1.058 . S
O425 C424 1.229 . S
O426 Zn420 1.969 . S
O426 C429 1.267 . S
O427 Zn420 1.965 . S
O427 C438 1.260 . S
O428 Zn421 1.969 . S
O428 C438 1.258 . S
C429 O426 1.267 . S
C429 O430 1.228 . S
O430 C429 1.228 . S
O431 Zn420 2.024 . S
O431 C422 1.058 . S
C432 O433 1.228 1_556 S
C432 O434 1.267 . S
O433 C432 1.228 1_554 S
O434 Zn421 1.969 . S
O434 C432 1.267 . S
O435 Zn421 1.965 . S
O435 C439 1.260 . S
O436 Zn420 1.969 . S
O436 C439 1.258 . S
O437 Zn421 2.024 1_554 S
O437 C424 1.058 . S
C438 O427 1.260 . S
C438 O428 1.258 . S
C439 O435 1.260 . S
C439 O436 1.258 . S
Zn440 O446 1.969 . S
Zn440 O447 1.965 . S
Zn440 O451 2.024 . S
Zn440 O456 1.969 . S
Zn441 O448 1.969 . S
Zn441 O454 1.969 . S
Zn441 O455 1.965 . S
Zn441 O457 2.024 . S
C442 O443 1.229 . S
C442 O451 1.058 . S
O443 C442 1.229 . S
C444 O445 1.229 . S
C444 O457 1.058 . S
O445 C444 1.229 . S
O446 Zn440 1.969 . S
O446 C449 1.267 . S
O447 Zn440 1.965 . S
O447 C458 1.260 . S
O448 Zn441 1.969 . S
O448 C458 1.258 . S
C449 O446 1.267 . S
C449 O450 1.228 . S
O450 C449 1.228 . S
O451 Zn440 2.024 . S
O451 C442 1.058 . S
C452 O453 1.228 . S
C452 O454 1.267 . S
O453 C452 1.228 . S
O454 Zn441 1.969 . S
O454 C452 1.267 . S
O455 Zn441 1.965 . S
O455 C459 1.260 . S
O456 Zn440 1.969 . S
O456 C459 1.258 . S
O457 Zn441 2.024 . S
O457 C444 1.058 . S
C458 O447 1.260 . S
C458 O448 1.258 . S
C459 O455 1.260 . S
C459 O456 1.258 . S
Zn460 O466 1.969 . S
Zn460 O467 1.965 . S
Zn460 O471 2.024 . S
Zn460 O476 1.969 . S
Zn461 O468 1.969 . S
Zn461 O474 1.969 . S
Zn461 O475 1.965 . S
Zn461 O477 2.024 . S
C462 O463 1.229 . S
C462 O471 1.058 . S
O463 C462 1.229 . S
C464 O465 1.229 . S
C464 O477 1.058 . S
O465 C464 1.229 . S
O466 Zn460 1.969 . S
O466 C469 1.267 . S
O467 Zn460 1.965 . S
O467 C478 1.260 . S
O468 Zn461 1.969 . S
O468 C478 1.258 . S
C469 O466 1.267 . S
C469 O470 1.228 . S
O470 C469 1.228 . S
O471 Zn460 2.024 . S
O471 C462 1.058 . S
C472 O473 1.228 . S
C472 O474 1.267 . S
O473 C472 1.228 . S
O474 Zn461 1.969 . S
O474 C472 1.267 . S
O475 Zn461 1.965 . S
O475 C479 1.260 . S
O476 Zn460 1.969 . S
O476 C479 1.258 . S
O477 Zn461 2.024 . S
O477 C464 1.058 . S
C478 O467 1.260 . S
C478 O468 1.258 . S
C479 O475 1.260 . S
C479 O476 1.258 . S
Zn480 O486 1.969 . S
Zn480 O487 1.965 . S
Zn480 O491 2.024 . S
Zn480 O496 1.969 . S
Zn481 O488 1.969 . S
Zn481 O494 1.969 . S
Zn481 O495 1.965 . S
Zn481 O497 2.024 . S
C482 O483 1.229 . S
C482 O491 1.058 . S
O483 C482 1.229 . S
C484 O485 1.229 . S
C484 O497 1.058 . S
O485 C484 1.229 . S
O486 Zn480 1.969 . S
O486 C489 1.267 . S
O487 Zn480 1.965 . S
O487 C498 1.260 . S
O488 Zn481 1.969 . S
O488 C498 1.258 . S
C489 O486 1.267 . S
C489 O490 1.228 . S
O490 C489 1.228 . S
O491 Zn480 2.024 . S
O491 C482 1.058 . S
C492 O493 1.228 . S
C492 O494 1.267 . S
O493 C492 1.228 . S
O494 Zn481 1.969 . S
O494 C492 1.267 . S
O495 Zn481 1.965 . S
O495 C499 1.260 . S
O496 Zn480 1.969 . S
O496 C499 1.258 . S
O497 Zn481 2.024 . S
O497 C484 1.058 . S
C498 O487 1.260 . S
C498 O488 1.258 . S
C499 O495 1.260 . S
C499 O496 1.258 . S
Zn500 O506 1.969 . S
Zn500 O507 1.965 . S
Zn500 O511 2.024 1_556 S
Zn500 O516 1.969 . S
Zn501 O508 1.969 . S
Zn501 O514 1.969 . S
Zn501 O515 1.965 . S
Zn501 O517 2.024 . S
C502 O503 1.229 . S
C502 O511 1.058 . S
O503 C502 1.229 . S
C504 O505 1.229 . S
C504 O517 1.058 . S
O505 C504 1.229 . S
O506 Zn500 1.969 . S
O506 C509 1.267 . S
O507 Zn500 1.965 . S
O507 C518 1.260 . S
O508 Zn501 1.969 . S
O508 C518 1.258 . S
C509 O506 1.267 . S
C509 O510 1.228 1_556 S
O510 C509 1.228 1_554 S
O511 Zn500 2.024 1_554 S
O511 C502 1.058 . S
C512 O513 1.228 . S
C512 O514 1.267 . S
O513 C512 1.228 . S
O514 Zn501 1.969 . S
O514 C512 1.267 . S
O515 Zn501 1.965 . S
O515 C519 1.260 . S
O516 Zn500 1.969 . S
O516 C519 1.258 . S
O517 Zn501 2.024 . S
O517 C504 1.058 . S
C518 O507 1.260 . S
C518 O508 1.258 . S
C519 O515 1.260 . S
C519 O516 1.258 . S
Zn520 O526 1.969 . S
Zn520 O527 1.965 . S
Zn520 O531 2.024 . S
Zn520 O536 1.969 . S
Zn521 O528 1.969 . S
Zn521 O534 1.969 . S
Zn521 O535 1.965 . S
Zn521 O537 2.024 . S
C522 O523 1.229 . S
C522 O531 1.058 . S
O523 C522 1.229 . S
C524 O525 1.229 . S
C524 O537 1.058 . S
O525 C524 1.229 . S
O526 Zn520 1.969 . S
O526 C529 1.267 . S
O527 Zn520 1.965 . S
O527 C538 1.260 . S
O528 Zn521 1.969 . S
O528 C538 1.258 . S
C529 O526 1.267 . S
C529 O530 1.228 . S
O530 C529 1.228 . S
O531 Zn520 2.024 . S
O531 C522 1.058 . S
C532 O533 1.228 . S
C532 O534 1.267 . S
O533 C532 1.228 . S
O534 Zn521 1.969 . S
O534 C532 1.267 . S
O535 Zn521 1.965 . S
O535 C539 1.260 . S
O536 Zn520 1.969 . S
O536 C539 1.258 . S
O537 Zn521 2.024 . S
O537 C524 1.058 . S
C538 O527 1.260 . S
C538 O528 1.258 . S
C539 O535 1.260 . S
C539 O536 1.258 . S
Zn540 O546 1.969 . S
Zn540 O547 1.965 . S
Zn540 O551 2.024 . S
Zn540 O556 1.969 . S
Zn541 O548 1.969 . S
Zn541 O554 1.969 . S
Zn541 O555 1.965 . S
Zn541 O557 2.024 . S
C542 O543 1.229 . S
C542 O551 1.058 . S
O543 C542 1.229 . S
C544 O545 1.229 . S
C544 O557 1.058 . S
O545 C544 1.229 . S
O546 Zn540 1.969 . S
O546 C549 1.267 . S
O547 Zn540 1.965 . S
O547 C558 1.260 . S
O548 Zn541 1.969 . S
O548 C558 1.258 . S
C549 O546 1.267 . S
C549 O550 1.228 . S
O550 C549 1.228 . S
O551 Zn540 2.024 . S
O551 C542 1.058 . S
C552 O553 1.228 . S
C552 O554 1.267 . S
O553 C552 1.228 . S
O554 Zn541 1.969 . S
O554 C552 1.267 . S
O555 Zn541 1.965 . S
O555 C559 1.260 . S
O556 Zn540 1.969 . S
O556 C559 1.258 . S
O557 Zn541 2.024 . S
O557 C544 1.058 . S
C558 O547 1.260 . S
C558 O548 1.258 . S
C559 O555 1.260 . S
C559 O556 1.258 . S
Zn560 O566 1.969 . S
Zn560 O567 1.965 . S
Zn560 O571 2.024 . S
Zn560 O576 1.969 . S
Zn561 O568 1.969 . S
Zn561 O574 1.969 . S
Zn561 O575 1.965 . S
Zn561 O577 2.024 . S
C562 O563 1.229 . S
C562 O571 1.058 . S
O563 C562 1.229 . S
C564 O565 1.229 . S
C564 O577 1.058 . S
O565 C564 1.229 . S
O566 Zn560 1.969 . S
O566 C569 1.267 . S
O567 Zn560 1.965 . S
O567 C578 1.260 . S
O568 Zn561 1.969 . S
O568 C578 1.258 . S
C569 O566 1.267 . S
C569 O570 1.228 . S
O570 C569 1.228 . S
O571 Zn560 2.024 . S
O571 C562 1.058 . S
C572 O573 1.228 . S
C572 O574 1.267 . S
O573 C572 1.228 . S
O574 Zn561 1.969 . S
O574 C572 1.267 . S
O575 Zn561 1.965 . S
O575 C579 1.260 . S
O576 Zn560 1.969 . S
O576 C579 1.258 . S
O577 Zn561 2.024 . S
O577 C564 1.058 . S
C578 O567 1.260 . S
C578 O568 1.258 . S
C579 O575 1.260 . S
C579 O576 1.258 . S
Zn580 O586 1.969 . S
Zn580 O587 1.965 . S
Zn580 O591 2.024 1_554 S
Zn580 O596 1.969 . S
Zn581 O588 1.969 . S
Zn581 O594 1.969 . S
Zn581 O595 1.965 . S
Zn581 O597 2.024 . S
C582 O583 1.229 . S
C582 O591 1.058 . S
O583 C582 1.229 . S
C584 O585 1.229 . S
C584 O597 1.058 . S
O585 C584 1.229 . S
O586 Zn580 1.969 . S
O586 C589 1.267 . S
O587 Zn580 1.965 . S
O587 C598 1.260 . S
O588 Zn581 1.969 . S
O588 C598 1.258 . S
C589 O586 1.267 . S
C589 O590 1.228 1_554 S
O590 C589 1.228 1_556 S
O591 Zn580 2.024 1_556 S
O591 C582 1.058 . S
C592 O593 1.228 . S
C592 O594 1.267 . S
O593 C592 1.228 . S
O594 Zn581 1.969 . S
O594 C592 1.267 . S
O595 Zn581 1.965 . S
O595 C599 1.260 . S
O596 Zn580 1.969 . S
O596 C599 1.258 . S
O597 Zn581 2.024 . S
O597 C584 1.058 . S
C598 O587 1.260 . S
C598 O588 1.258 . S
C599 O595 1.260 . S
C599 O596 1.258 . S
Zn600 O606 1.969 . S
Zn600 O607 1.965 . S
Zn600 O611 2.024 . S
Zn600 O616 1.969 . S
Zn601 O608 1.969 . S
Zn601 O614 1.969 . S
Zn601 O615 1.965 . S
Zn601 O617 2.024 . S
C602 O603 1.229 . S
C602 O611 1.058 . S
O603 C602 1.229 . S
C604 O605 1.229 . S
C604 O617 1.058 . S
O605 C604 1.229 . S
O606 Zn600 1.969 . S
O606 C609 1.267 . S
O607 Zn600 1.965 . S
O607 C618 1.260 . S
O608 Zn601 1.969 . S
O608 C618 1.258 . S
C609 O606 1.267 . S
C609 O610 1.228 . S
O610 C609 1.228 . S
O611 Zn600 2.024 . S
O611 C602 1.058 . S
C612 O613 1.228 . S
C612 O614 1.267 . S
O613 C612 1.228 . S
O614 Zn601 1.969 . S
O614 C612 1.267 . S
O615 Zn601 1.965 . S
O615 C619 1.260 . S
O616 Zn600 1.969 . S
O616 C619 1.258 . S
O617 Zn601 2.024 . S
O617 C604 1.058 . S
C618 O607 1.260 . S
C618 O608 1.258 . S
C619 O615 1.260 . S
C619 O616 1.258 . S
Zn620 O626 1.969 . S
Zn620 O627 1.965 . S
Zn620 O631 2.024 . S
Zn620 O636 1.969 . S
Zn621 O628 1.969 . S
Zn621 O634 1.969 . S
Zn621 O635 1.965 . S
Zn621 O637 2.024 . S
C622 O623 1.229 . S
C622 O631 1.058 . S
O623 C622 1.229 . S
C624 O625 1.229 . S
C624 O637 1.058 . S
O625 C624 1.229 . S
O626 Zn620 1.969 . S
O626 C629 1.267 . S
O627 Zn620 1.965 . S
O627 C638 1.260 . S
O628 Zn621 1.969 . S
O628 C638 1.258 . S
C629 O626 1.267 . S
C629 O630 1.228 . S
O630 C629 1.228 . S
O631 Zn620 2.024 . S
O631 C622 1.058 . S
C632 O633 1.228 . S
C632 O634 1.267 . S
O633 C632 1.228 . S
O634 Zn621 1.969 . S
O634 C632 1.267 . S
O635 Zn621 1.965 . S
O635 C639 1.260 . S
O636 Zn620 1.969 . S
O636 C639 1.258 . S
O637 Zn621 2.024 . S
O637 C624 1.058 . S
C638 O627 1.260 . S
C638 O628 1.258 . S
C639 O635 1.260 . S
C639 O636 1.258 . S
H640 C648 0.929 . S
H641 C650 0.930 . S
H642 C652 0.930 . S
H643 C655 0.929 . S
H644 C658 0.930 . S
H645 C660 0.960 . S
H646 C660 0.960 . S
H647 C660 0.960 . S
C648 H640 0.929 . S
C648 C649 1.377 . S
C648 C650 1.384 . S
C649 C648 1.377 . S
C649 C655 1.390 . S
C650 H641 0.930 . S
C650 C648 1.384 . S
C650 C651 1.372 . S
C651 C650 1.372 . S
C651 C652 1.400 . S
C651 C656 1.490 . S
C652 H642 0.930 . S
C652 C651 1.400 . S
C652 C655 1.386 . S
H653 C669 0.930 . S
H654 C670 0.931 . S
C655 H643 0.929 . S
C655 C649 1.390 . S
C655 C652 1.386 . S
C656 C651 1.490 . S
C656 C658 1.395 . S
C656 C659 1.403 . S
H657 C663 0.930 . S
C658 H644 0.930 . S
C658 C656 1.395 . S
C658 C661 1.403 . S
C659 C656 1.403 . S
C659 C660 1.524 . S
C659 C663 1.400 . S
C660 H645 0.960 . S
C660 H646 0.960 . S
C660 H647 0.960 . S
C660 C659 1.524 . S
C661 C658 1.403 . S
C661 C662 1.392 . S
C661 C665 1.495 . S
C662 C661 1.392 . S
C662 C663 1.385 . S
C662 C664 1.478 . S
C663 H657 0.930 . S
C663 C659 1.400 . S
C663 C662 1.385 . S
C664 C662 1.478 . S
C664 C666 1.381 . S
C664 C670 1.383 . S
C665 C661 1.495 . S
C665 H671 0.959 . S
C665 H672 0.961 . S
C665 H673 0.960 . S
C666 C664 1.381 . S
C666 C667 1.394 . S
C666 H674 0.930 . S
C667 C666 1.394 . S
C667 C668 1.383 . S
C667 H675 0.929 . S
C668 C667 1.383 . S
C668 C669 1.377 . S
C669 H653 0.930 . S
C669 C668 1.377 . S
C669 C670 1.379 . S
C670 H654 0.931 . S
C670 C664 1.383 . S
C670 C669 1.379 . S
H671 C665 0.959 . S
H672 C665 0.961 . S
H673 C665 0.960 . S
H674 C666 0.930 . S
H675 C667 0.929 . S
H676 C684 0.929 . S
H677 C686 0.930 . S
H678 C688 0.930 . S
H679 C691 0.929 . S
H680 C694 0.930 . S
H681 C696 0.960 . S
H682 C696 0.960 . S
H683 C696 0.960 . S
C684 H676 0.929 . S
C684 C685 1.377 . S
C684 C686 1.384 . S
C685 C684 1.377 . S
C685 C691 1.390 . S
C686 H677 0.930 . S
C686 C684 1.384 . S
C686 C687 1.372 . S
C687 C686 1.372 . S
C687 C688 1.400 . S
C687 C692 1.490 . S
C688 H678 0.930 . S
C688 C687 1.400 . S
C688 C691 1.386 . S
H689 C705 0.930 . S
H690 C706 0.931 . S
C691 H679 0.929 . S
C691 C685 1.390 . S
C691 C688 1.386 . S
C692 C687 1.490 . S
C692 C694 1.395 . S
C692 C695 1.403 . S
H693 C699 0.930 . S
C694 H680 0.930 . S
C694 C692 1.395 . S
C694 C697 1.403 . S
C695 C692 1.403 . S
C695 C696 1.524 . S
C695 C699 1.400 1_545 S
C696 H681 0.960 . S
C696 H682 0.960 . S
C696 H683 0.960 . S
C696 C695 1.524 . S
C697 C694 1.403 . S
C697 C698 1.392 1_545 S
C697 C701 1.495 . S
C698 C697 1.392 1_565 S
C698 C699 1.385 . S
C698 C700 1.478 . S
C699 H693 0.930 . S
C699 C695 1.400 1_565 S
C699 C698 1.385 . S
C700 C698 1.478 . S
C700 C702 1.381 . S
C700 C706 1.383 . S
C701 C697 1.495 . S
C701 H707 0.959 . S
C701 H708 0.961 1_545 S
C701 H709 0.960 . S
C702 C700 1.381 . S
C702 C703 1.394 . S
C702 H710 0.930 . S
C703 C702 1.394 . S
C703 C704 1.383 . S
C703 H711 0.929 . S
C704 C703 1.383 . S
C704 C705 1.377 . S
C705 H689 0.930 . S
C705 C704 1.377 . S
C705 C706 1.379 . S
C706 H690 0.931 . S
C706 C700 1.383 . S
C706 C705 1.379 . S
H707 C701 0.959 . S
H708 C701 0.961 1_565 S
H709 C701 0.960 . S
H710 C702 0.930 . S
H711 C703 0.929 . S
H712 C720 0.929 . S
H713 C722 0.930 . S
H714 C724 0.930 . S
H715 C727 0.929 . S
H716 C730 0.930 . S
H717 C732 0.960 . S
H718 C732 0.960 . S
H719 C732 0.960 . S
C720 H712 0.929 . S
C720 C721 1.377 . S
C720 C722 1.384 . S
C721 C720 1.377 . S
C721 C727 1.390 . S
C722 H713 0.930 . S
C722 C720 1.384 . S
C722 C723 1.372 . S
C723 C722 1.372 . S
C723 C724 1.400 . S
C723 C728 1.490 . S
C724 H714 0.930 . S
C724 C723 1.400 . S
C724 C727 1.386 . S
H725 C741 0.930 . S
H726 C742 0.931 . S
C727 H715 0.929 . S
C727 C721 1.390 . S
C727 C724 1.386 . S
C728 C723 1.490 . S
C728 C730 1.395 . S
C728 C731 1.403 . S
H729 C735 0.930 . S
C730 H716 0.930 . S
C730 C728 1.395 . S
C730 C733 1.403 . S
C731 C728 1.403 . S
C731 C732 1.524 . S
C731 C735 1.400 . S
C732 H717 0.960 . S
C732 H718 0.960 . S
C732 H719 0.960 . S
C732 C731 1.524 . S
C733 C730 1.403 . S
C733 C734 1.392 . S
C733 C737 1.495 . S
C734 C733 1.392 . S
C734 C735 1.385 . S
C734 C736 1.478 . S
C735 H729 0.930 . S
C735 C731 1.400 . S
C735 C734 1.385 . S
C736 C734 1.478 . S
C736 C738 1.381 . S
C736 C742 1.383 . S
C737 C733 1.495 . S
C737 H743 0.959 . S
C737 H744 0.961 . S
C737 H745 0.960 . S
C738 C736 1.381 . S
C738 C739 1.394 . S
C738 H746 0.930 . S
C739 C738 1.394 . S
C739 C740 1.383 . S
C739 H747 0.929 . S
C740 C739 1.383 . S
C740 C741 1.377 . S
C741 H725 0.930 . S
C741 C740 1.377 . S
C741 C742 1.379 . S
C742 H726 0.931 . S
C742 C736 1.383 . S
C742 C741 1.379 . S
H743 C737 0.959 . S
H744 C737 0.961 . S
H745 C737 0.960 . S
H746 C738 0.930 . S
H747 C739 0.929 . S
H748 C756 0.929 . S
H749 C758 0.930 . S
H750 C760 0.930 . S
H751 C763 0.929 . S
H752 C766 0.930 . S
H753 C768 0.960 . S
H754 C768 0.960 . S
H755 C768 0.960 . S
C756 H748 0.929 . S
C756 C757 1.377 . S
C756 C758 1.384 . S
C757 C756 1.377 . S
C757 C763 1.390 . S
C758 H749 0.930 . S
C758 C756 1.384 . S
C758 C759 1.372 . S
C759 C758 1.372 . S
C759 C760 1.400 . S
C759 C764 1.490 . S
C760 H750 0.930 . S
C760 C759 1.400 . S
C760 C763 1.386 . S
H761 C777 0.930 . S
H762 C778 0.931 . S
C763 H751 0.929 . S
C763 C757 1.390 . S
C763 C760 1.386 . S
C764 C759 1.490 . S
C764 C766 1.395 . S
C764 C767 1.403 . S
H765 C771 0.930 . S
C766 H752 0.930 . S
C766 C764 1.395 . S
C766 C769 1.403 1_565 S
C767 C764 1.403 . S
C767 C768 1.524 . S
C767 C771 1.400 . S
C768 H753 0.960 . S
C768 H754 0.960 . S
C768 H755 0.960 . S
C768 C767 1.524 . S
C769 C766 1.403 1_545 S
C769 C770 1.392 . S
C769 C773 1.495 . S
C770 C769 1.392 . S
C770 C771 1.385 1_545 S
C770 C772 1.478 . S
C771 H765 0.930 . S
C771 C767 1.400 . S
C771 C770 1.385 1_565 S
C772 C770 1.478 . S
C772 C774 1.381 . S
C772 C778 1.383 . S
C773 C769 1.495 . S
C773 H779 0.959 . S
C773 H780 0.961 . S
C773 H781 0.960 . S
C774 C772 1.381 . S
C774 C775 1.394 . S
C774 H782 0.930 . S
C775 C774 1.394 . S
C775 C776 1.383 . S
C775 H783 0.929 1_556 S
C776 C775 1.383 . S
C776 C777 1.377 . S
C777 H761 0.930 . S
C777 C776 1.377 . S
C777 C778 1.379 . S
C778 H762 0.931 . S
C778 C772 1.383 . S
C778 C777 1.379 . S
H779 C773 0.959 . S
H780 C773 0.961 . S
H781 C773 0.960 . S
H782 C774 0.930 . S
H783 C775 0.929 1_554 S
H784 C792 0.929 . S
H785 C794 0.930 . S
H786 C796 0.930 . S
H787 C799 0.929 . S
H788 C802 0.930 . S
H789 C804 0.960 . S
H790 C804 0.960 . S
H791 C804 0.960 . S
C792 H784 0.929 . S
C792 C793 1.377 . S
C792 C794 1.384 . S
C793 C792 1.377 . S
C793 C799 1.390 . S
C794 H785 0.930 . S
C794 C792 1.384 . S
C794 C795 1.372 . S
C795 C794 1.372 . S
C795 C796 1.400 . S
C795 C800 1.490 . S
C796 H786 0.930 . S
C796 C795 1.400 . S
C796 C799 1.386 . S
H797 C813 0.930 . S
H798 C814 0.931 . S
C799 H787 0.929 . S
C799 C793 1.390 . S
C799 C796 1.386 . S
C800 C795 1.490 . S
C800 C802 1.395 . S
C800 C803 1.403 . S
H801 C807 0.930 . S
C802 H788 0.930 . S
C802 C800 1.395 . S
C802 C805 1.403 . S
C803 C800 1.403 . S
C803 C804 1.524 . S
C803 C807 1.400 . S
C804 H789 0.960 . S
C804 H790 0.960 . S
C804 H791 0.960 . S
C804 C803 1.524 . S
C805 C802 1.403 . S
C805 C806 1.392 . S
C805 C809 1.495 . S
C806 C805 1.392 . S
C806 C807 1.385 . S
C806 C808 1.478 . S
C807 H801 0.930 . S
C807 C803 1.400 . S
C807 C806 1.385 . S
C808 C806 1.478 . S
C808 C810 1.381 . S
C808 C814 1.383 . S
C809 C805 1.495 . S
C809 H815 0.959 . S
C809 H816 0.961 . S
C809 H817 0.960 . S
C810 C808 1.381 . S
C810 C811 1.394 . S
C810 H818 0.930 . S
C811 C810 1.394 . S
C811 C812 1.383 . S
C811 H819 0.929 . S
C812 C811 1.383 . S
C812 C813 1.377 . S
C813 H797 0.930 . S
C813 C812 1.377 . S
C813 C814 1.379 . S
C814 H798 0.931 . S
C814 C808 1.383 . S
C814 C813 1.379 . S
H815 C809 0.959 . S
H816 C809 0.961 . S
H817 C809 0.960 . S
H818 C810 0.930 . S
H819 C811 0.929 . S
H820 C828 0.929 . S
H821 C830 0.930 . S
H822 C832 0.930 . S
H823 C835 0.929 . S
H824 C838 0.930 . S
H825 C840 0.960 . S
H826 C840 0.960 . S
H827 C840 0.960 . S
C828 H820 0.929 . S
C828 C829 1.377 . S
C828 C830 1.384 . S
C829 C828 1.377 . S
C829 C835 1.390 . S
C830 H821 0.930 . S
C830 C828 1.384 . S
C830 C831 1.372 . S
C831 C830 1.372 . S
C831 C832 1.400 . S
C831 C836 1.490 . S
C832 H822 0.930 . S
C832 C831 1.400 . S
C832 C835 1.386 . S
H833 C849 0.930 . S
H834 C850 0.931 . S
C835 H823 0.929 . S
C835 C829 1.390 . S
C835 C832 1.386 . S
C836 C831 1.490 . S
C836 C838 1.395 . S
C836 C839 1.403 1_565 S
H837 C843 0.930 . S
C838 H824 0.930 . S
C838 C836 1.395 . S
C838 C841 1.403 1_565 S
C839 C836 1.403 1_545 S
C839 C840 1.524 . S
C839 C843 1.400 . S
C840 H825 0.960 . S
C840 H826 0.960 . S
C840 H827 0.960 . S
C840 C839 1.524 . S
C841 C838 1.403 1_545 S
C841 C842 1.392 . S
C841 C845 1.495 . S
C842 C841 1.392 . S
C842 C843 1.385 . S
C842 C844 1.478 . S
C843 H837 0.930 . S
C843 C839 1.400 . S
C843 C842 1.385 . S
C844 C842 1.478 . S
C844 C846 1.381 . S
C844 C850 1.383 . S
C845 C841 1.495 . S
C845 H851 0.959 1_545 S
C845 H852 0.961 . S
C845 H853 0.960 . S
C846 C844 1.381 . S
C846 C847 1.394 . S
C846 H854 0.930 . S
C847 C846 1.394 . S
C847 C848 1.383 . S
C847 H855 0.929 . S
C848 C847 1.383 . S
C848 C849 1.377 . S
C849 H833 0.930 . S
C849 C848 1.377 . S
C849 C850 1.379 . S
C850 H834 0.931 . S
C850 C844 1.383 . S
C850 C849 1.379 . S
H851 C845 0.959 1_565 S
H852 C845 0.961 . S
H853 C845 0.960 . S
H854 C846 0.930 . S
H855 C847 0.929 . S
H856 C864 0.929 . S
H857 C866 0.930 . S
H858 C868 0.930 . S
H859 C871 0.929 . S
H860 C874 0.930 . S
H861 C876 0.960 . S
H862 C876 0.960 . S
H863 C876 0.960 . S
C864 H856 0.929 . S
C864 C865 1.377 . S
C864 C866 1.384 . S
C865 C864 1.377 . S
C865 C871 1.390 . S
C866 H857 0.930 . S
C866 C864 1.384 . S
C866 C867 1.372 . S
C867 C866 1.372 . S
C867 C868 1.400 . S
C867 C872 1.490 . S
C868 H858 0.930 . S
C868 C867 1.400 . S
C868 C871 1.386 . S
H869 C885 0.930 . S
H870 C886 0.931 . S
C871 H859 0.929 . S
C871 C865 1.390 . S
C871 C868 1.386 . S
C872 C867 1.490 . S
C872 C874 1.395 . S
C872 C875 1.403 . S
H873 C879 0.930 . S
C874 H860 0.930 . S
C874 C872 1.395 . S
C874 C877 1.403 . S
C875 C872 1.403 . S
C875 C876 1.524 . S
C875 C879 1.400 . S
C876 H861 0.960 . S
C876 H862 0.960 . S
C876 H863 0.960 . S
C876 C875 1.524 . S
C877 C874 1.403 . S
C877 C878 1.392 . S
C877 C881 1.495 . S
C878 C877 1.392 . S
C878 C879 1.385 . S
C878 C880 1.478 . S
C879 H873 0.930 . S
C879 C875 1.400 . S
C879 C878 1.385 . S
C880 C878 1.478 . S
C880 C882 1.381 . S
C880 C886 1.383 . S
C881 C877 1.495 . S
C881 H887 0.959 . S
C881 H888 0.961 . S
C881 H889 0.960 . S
C882 C880 1.381 . S
C882 C883 1.394 . S
C882 H890 0.930 . S
C883 C882 1.394 . S
C883 C884 1.383 . S
C883 H891 0.929 . S
C884 C883 1.383 . S
C884 C885 1.377 . S
C885 H869 0.930 . S
C885 C884 1.377 . S
C885 C886 1.379 . S
C886 H870 0.931 . S
C886 C880 1.383 . S
C886 C885 1.379 . S
H887 C881 0.959 . S
H888 C881 0.961 . S
H889 C881 0.960 . S
H890 C882 0.930 . S
H891 C883 0.929 . S
H892 C900 0.929 . S
H893 C902 0.930 . S
H894 C904 0.930 . S
H895 C907 0.929 . S
H896 C910 0.930 . S
H897 C912 0.960 . S
H898 C912 0.960 . S
H899 C912 0.960 . S
C900 H892 0.929 . S
C900 C901 1.377 . S
C900 C902 1.384 . S
C901 C900 1.377 . S
C901 C907 1.390 . S
C902 H893 0.930 . S
C902 C900 1.384 . S
C902 C903 1.372 . S
C903 C902 1.372 . S
C903 C904 1.400 . S
C903 C908 1.490 . S
C904 H894 0.930 . S
C904 C903 1.400 . S
C904 C907 1.386 . S
H905 C921 0.930 . S
H906 C922 0.931 . S
C907 H895 0.929 . S
C907 C901 1.390 . S
C907 C904 1.386 . S
C908 C903 1.490 . S
C908 C910 1.395 . S
C908 C911 1.403 . S
H909 C915 0.930 . S
C910 H896 0.930 . S
C910 C908 1.395 . S
C910 C913 1.403 . S
C911 C908 1.403 . S
C911 C912 1.524 . S
C911 C915 1.400 1_565 S
C912 H897 0.960 . S
C912 H898 0.960 . S
C912 H899 0.960 . S
C912 C911 1.524 . S
C913 C910 1.403 . S
C913 C914 1.392 1_565 S
C913 C917 1.495 . S
C914 C913 1.392 1_545 S
C914 C915 1.385 . S
C914 C916 1.478 . S
C915 H909 0.930 . S
C915 C911 1.400 1_545 S
C915 C914 1.385 . S
C916 C914 1.478 . S
C916 C918 1.381 . S
C916 C922 1.383 . S
C917 C913 1.495 . S
C917 H923 0.959 . S
C917 H924 0.961 1_565 S
C917 H925 0.960 . S
C918 C916 1.381 . S
C918 C919 1.394 1_554 S
C918 H926 0.930 . S
C919 C918 1.394 1_556 S
C919 C920 1.383 1_556 S
C919 H927 0.929 . S
C920 C919 1.383 1_554 S
C920 C921 1.377 . S
C921 H905 0.930 . S
C921 C920 1.377 . S
C921 C922 1.379 . S
C922 H906 0.931 . S
C922 C916 1.383 . S
C922 C921 1.379 . S
H923 C917 0.959 . S
H924 C917 0.961 1_545 S
H925 C917 0.960 . S
H926 C918 0.930 . S
H927 C919 0.929 . S
H928 C936 0.929 . S
H929 C938 0.930 . S
H930 C940 0.930 . S
H931 C943 0.929 . S
H932 C946 0.930 . S
H933 C948 0.960 . S
H934 C948 0.960 . S
H935 C948 0.960 . S
C936 H928 0.929 . S
C936 C937 1.377 . S
C936 C938 1.384 . S
C937 C936 1.377 . S
C937 C943 1.390 . S
C938 H929 0.930 . S
C938 C936 1.384 . S
C938 C939 1.372 . S
C939 C938 1.372 . S
C939 C940 1.400 . S
C939 C944 1.490 . S
C940 H930 0.930 . S
C940 C939 1.400 . S
C940 C943 1.386 . S
H941 C957 0.930 . S
H942 C958 0.931 . S
C943 H931 0.929 . S
C943 C937 1.390 . S
C943 C940 1.386 . S
C944 C939 1.490 . S
C944 C946 1.395 . S
C944 C947 1.403 . S
H945 C951 0.930 . S
C946 H932 0.930 . S
C946 C944 1.395 . S
C946 C949 1.403 . S
C947 C944 1.403 . S
C947 C948 1.524 . S
C947 C951 1.400 . S
C948 H933 0.960 . S
C948 H934 0.960 . S
C948 H935 0.960 . S
C948 C947 1.524 . S
C949 C946 1.403 . S
C949 C950 1.392 . S
C949 C953 1.495 . S
C950 C949 1.392 . S
C950 C951 1.385 . S
C950 C952 1.478 . S
C951 H945 0.930 . S
C951 C947 1.400 . S
C951 C950 1.385 . S
C952 C950 1.478 . S
C952 C954 1.381 . S
C952 C958 1.383 . S
C953 C949 1.495 . S
C953 H959 0.959 . S
C953 H960 0.961 . S
C953 H961 0.960 . S
C954 C952 1.381 . S
C954 C955 1.394 . S
C954 H962 0.930 . S
C955 C954 1.394 . S
C955 C956 1.383 . S
C955 H963 0.929 . S
C956 C955 1.383 . S
C956 C957 1.377 . S
C957 H941 0.930 . S
C957 C956 1.377 . S
C957 C958 1.379 . S
C958 H942 0.931 . S
C958 C952 1.383 . S
C958 C957 1.379 . S
H959 C953 0.959 . S
H960 C953 0.961 . S
H961 C953 0.960 . S
H962 C954 0.930 . S
H963 C955 0.929 . S
H964 C972 0.929 . S
H965 C974 0.930 . S
H966 C976 0.930 . S
H967 C979 0.929 . S
H968 C982 0.930 . S
H969 C984 0.960 . S
H970 C984 0.960 . S
H971 C984 0.960 . S
C972 H964 0.929 . S
C972 C973 1.377 . S
C972 C974 1.384 . S
C973 C972 1.377 . S
C973 C979 1.390 . S
C974 H965 0.930 . S
C974 C972 1.384 . S
C974 C975 1.372 . S
C975 C974 1.372 . S
C975 C976 1.400 . S
C975 C980 1.490 . S
C976 H966 0.930 . S
C976 C975 1.400 . S
C976 C979 1.386 . S
H977 C993 0.930 . S
H978 C994 0.931 . S
C979 H967 0.929 . S
C979 C973 1.390 . S
C979 C976 1.386 . S
C980 C975 1.490 . S
C980 C982 1.395 . S
C980 C983 1.403 1_545 S
H981 C987 0.930 . S
C982 H968 0.930 . S
C982 C980 1.395 . S
C982 C985 1.403 1_545 S
C983 C980 1.403 1_565 S
C983 C984 1.524 . S
C983 C987 1.400 . S
C984 H969 0.960 . S
C984 H970 0.960 . S
C984 H971 0.960 . S
C984 C983 1.524 . S
C985 C982 1.403 1_565 S
C985 C986 1.392 . S
C985 C989 1.495 1_565 S
C986 C985 1.392 . S
C986 C987 1.385 . S
C986 C988 1.478 . S
C987 H981 0.930 . S
C987 C983 1.400 . S
C987 C986 1.385 . S
C988 C986 1.478 . S
C988 C990 1.381 . S
C988 C994 1.383 . S
C989 C985 1.495 1_545 S
C989 H995 0.959 . S
C989 H996 0.952 1_545 S
C989 H997 0.960 . S
C990 C988 1.381 . S
C990 C991 1.394 . S
C990 H998 0.930 . S
C991 C990 1.394 . S
C991 C992 1.383 . S
C991 H999 0.929 . S
C992 C991 1.383 . S
C992 C993 1.377 . S
C993 H977 0.930 . S
C993 C992 1.377 . S
C993 C994 1.379 . S
C994 H978 0.931 . S
C994 C988 1.383 . S
C994 C993 1.379 . S
H995 C989 0.959 . S
H996 C989 0.952 1_565 S
H997 C989 0.960 . S
H998 C990 0.930 . S
H999 C991 0.929 . S
H1000 C1008 0.929 . S
H1001 C1010 0.930 . S
H1002 C1012 0.930 . S
H1003 C1015 0.929 . S
H1004 C1018 0.930 . S
H1005 C1020 0.960 . S
H1006 C1020 0.960 . S
H1007 C1020 0.960 . S
C1008 H1000 0.929 . S
C1008 C1009 1.377 . S
C1008 C1010 1.384 . S
C1009 C1008 1.377 . S
C1009 C1015 1.390 . S
C1010 H1001 0.930 . S
C1010 C1008 1.384 . S
C1010 C1011 1.372 . S
C1011 C1010 1.372 . S
C1011 C1012 1.400 . S
C1011 C1016 1.490 . S
C1012 H1002 0.930 . S
C1012 C1011 1.400 . S
C1012 C1015 1.386 . S
H1013 C1029 0.930 . S
H1014 C1030 0.931 . S
C1015 H1003 0.929 . S
C1015 C1009 1.390 . S
C1015 C1012 1.386 . S
C1016 C1011 1.490 . S
C1016 C1018 1.395 . S
C1016 C1019 1.403 . S
H1017 C1023 0.930 . S
C1018 H1004 0.930 . S
C1018 C1016 1.395 . S
C1018 C1021 1.403 . S
C1019 C1016 1.403 . S
C1019 C1020 1.524 . S
C1019 C1023 1.400 . S
C1020 H1005 0.960 . S
C1020 H1006 0.960 . S
C1020 H1007 0.960 . S
C1020 C1019 1.524 . S
C1021 C1018 1.403 . S
C1021 C1022 1.392 . S
C1021 C1025 1.495 . S
C1022 C1021 1.392 . S
C1022 C1023 1.385 . S
C1022 C1024 1.478 . S
C1023 H1017 0.930 . S
C1023 C1019 1.400 . S
C1023 C1022 1.385 . S
C1024 C1022 1.478 . S
C1024 C1026 1.381 . S
C1024 C1030 1.383 . S
C1025 C1021 1.495 . S
C1025 H1031 0.959 . S
C1025 H1032 0.961 . S
C1025 H1033 0.960 . S
C1026 C1024 1.381 . S
C1026 C1027 1.394 . S
C1026 H1034 0.930 . S
C1027 C1026 1.394 . S
C1027 C1028 1.383 . S
C1027 H1035 0.929 . S
C1028 C1027 1.383 . S
C1028 C1029 1.377 . S
C1029 H1013 0.930 . S
C1029 C1028 1.377 . S
C1029 C1030 1.379 . S
C1030 H1014 0.931 . S
C1030 C1024 1.383 . S
C1030 C1029 1.379 . S
H1031 C1025 0.959 . S
H1032 C1025 0.961 . S
H1033 C1025 0.960 . S
H1034 C1026 0.930 . S
H1035 C1027 0.929 . S
H1036 C1044 0.929 1_556 S
H1037 C1046 0.930 . S
H1038 C1048 0.930 . S
H1039 C1051 0.929 . S
H1040 C1054 0.930 . S
H1041 C1056 0.960 . S
H1042 C1056 0.960 . S
H1043 C1056 0.960 . S
C1044 H1036 0.929 1_554 S
C1044 C1045 1.377 . S
C1044 C1046 1.384 . S
C1045 C1044 1.377 . S
C1045 C1051 1.390 . S
C1046 H1037 0.930 . S
C1046 C1044 1.384 . S
C1046 C1047 1.372 . S
C1047 C1046 1.372 . S
C1047 C1048 1.400 . S
C1047 C1052 1.490 . S
C1048 H1038 0.930 . S
C1048 C1047 1.400 . S
C1048 C1051 1.386 . S
H1049 C1065 0.930 . S
H1050 C1066 0.931 . S
C1051 H1039 0.929 . S
C1051 C1045 1.390 . S
C1051 C1048 1.386 . S
C1052 C1047 1.490 . S
C1052 C1054 1.395 1_565 S
C1052 C1055 1.403 . S
H1053 C1059 0.930 . S
C1054 H1040 0.930 . S
C1054 C1052 1.395 1_545 S
C1054 C1057 1.403 . S
C1055 C1052 1.403 . S
C1055 C1056 1.524 . S
C1055 C1059 1.400 1_565 S
C1056 H1041 0.960 . S
C1056 H1042 0.960 . S
C1056 H1043 0.960 . S
C1056 C1055 1.524 . S
C1057 C1054 1.403 . S
C1057 C1058 1.392 . S
C1057 C1061 1.495 . S
C1058 C1057 1.392 . S
C1058 C1059 1.385 . S
C1058 C1060 1.478 . S
C1059 H1053 0.930 . S
C1059 C1055 1.400 1_545 S
C1059 C1058 1.385 . S
C1060 C1058 1.478 . S
C1060 C1062 1.381 . S
C1060 C1066 1.383 . S
C1061 C1057 1.495 . S
C1061 H1067 0.959 . S
C1061 H1068 0.961 . S
C1061 H1069 0.960 . S
C1062 C1060 1.381 . S
C1062 C1063 1.394 . S
C1062 H1070 0.930 . S
C1063 C1062 1.394 . S
C1063 C1064 1.383 . S
C1063 H1071 0.929 . S
C1064 C1063 1.383 . S
C1064 C1065 1.377 . S
C1065 H1049 0.930 . S
C1065 C1064 1.377 . S
C1065 C1066 1.379 . S
C1066 H1050 0.931 . S
C1066 C1060 1.383 . S
C1066 C1065 1.379 . S
H1067 C1061 0.959 . S
H1068 C1061 0.961 . S
H1069 C1061 0.960 . S
H1070 C1062 0.930 . S
H1071 C1063 0.929 . S
H1072 C1080 0.929 . S
H1073 C1082 0.930 . S
H1074 C1084 0.930 . S
H1075 C1087 0.929 . S
H1076 C1090 0.930 . S
H1077 C1092 0.960 . S
H1078 C1092 0.960 . S
H1079 C1092 0.960 . S
C1080 H1072 0.929 . S
C1080 C1081 1.377 . S
C1080 C1082 1.384 . S
C1081 C1080 1.377 . S
C1081 C1087 1.390 . S
C1082 H1073 0.930 . S
C1082 C1080 1.384 . S
C1082 C1083 1.372 . S
C1083 C1082 1.372 . S
C1083 C1084 1.400 . S
C1083 C1088 1.490 . S
C1084 H1074 0.930 . S
C1084 C1083 1.400 . S
C1084 C1087 1.386 . S
H1085 C1101 0.930 . S
H1086 C1102 0.931 . S
C1087 H1075 0.929 . S
C1087 C1081 1.390 . S
C1087 C1084 1.386 . S
C1088 C1083 1.490 . S
C1088 C1090 1.395 . S
C1088 C1091 1.403 . S
H1089 C1095 0.930 . S
C1090 H1076 0.930 . S
C1090 C1088 1.395 . S
C1090 C1093 1.403 . S
C1091 C1088 1.403 . S
C1091 C1092 1.524 . S
C1091 C1095 1.400 . S
C1092 H1077 0.960 . S
C1092 H1078 0.960 . S
C1092 H1079 0.960 . S
C1092 C1091 1.524 . S
C1093 C1090 1.403 . S
C1093 C1094 1.392 . S
C1093 C1097 1.495 . S
C1094 C1093 1.392 . S
C1094 C1095 1.385 . S
C1094 C1096 1.478 . S
C1095 H1089 0.930 . S
C1095 C1091 1.400 . S
C1095 C1094 1.385 . S
C1096 C1094 1.478 . S
C1096 C1098 1.381 . S
C1096 C1102 1.383 . S
C1097 C1093 1.495 . S
C1097 H1103 0.959 . S
C1097 H1104 0.961 . S
C1097 H1105 0.960 . S
C1098 C1096 1.381 . S
C1098 C1099 1.394 . S
C1098 H1106 0.930 . S
C1099 C1098 1.394 . S
C1099 C1100 1.383 . S
C1099 H1107 0.929 . S
C1100 C1099 1.383 . S
C1100 C1101 1.377 . S
C1101 H1085 0.930 . S
C1101 C1100 1.377 . S
C1101 C1102 1.379 . S
C1102 H1086 0.931 . S
C1102 C1096 1.383 . S
C1102 C1101 1.379 . S
H1103 C1097 0.959 . S
H1104 C1097 0.961 . S
H1105 C1097 0.960 . S
H1106 C1098 0.930 . S
H1107 C1099 0.929 . S
H1108 C1116 0.929 . S
H1109 C1118 0.930 . S
H1110 C1120 0.930 . S
H1111 C1123 0.929 . S
H1112 C1126 0.930 . S
H1113 C1128 0.960 . S
H1114 C1128 0.960 . S
H1115 C1128 0.960 . S
C1116 H1108 0.929 . S
C1116 C1117 1.377 . S
C1116 C1118 1.384 . S
C1117 C1116 1.377 . S
C1117 C1123 1.390 . S
C1118 H1109 0.930 . S
C1118 C1116 1.384 . S
C1118 C1119 1.372 . S
C1119 C1118 1.372 . S
C1119 C1120 1.400 . S
C1119 C1124 1.490 . S
C1120 H1110 0.930 . S
C1120 C1119 1.400 . S
C1120 C1123 1.386 . S
H1121 C1137 0.930 . S
H1122 C1138 0.931 . S
C1123 H1111 0.929 . S
C1123 C1117 1.390 . S
C1123 C1120 1.386 . S
C1124 C1119 1.490 . S
C1124 C1126 1.395 . S
C1124 C1127 1.403 1_545 S
H1125 C1131 0.930 . S
C1126 H1112 0.930 . S
C1126 C1124 1.395 . S
C1126 C1129 1.403 1_545 S
C1127 C1124 1.403 1_565 S
C1127 C1128 1.524 . S
C1127 C1131 1.400 . S
C1128 H1113 0.960 . S
C1128 H1114 0.960 . S
C1128 H1115 0.960 . S
C1128 C1127 1.524 . S
C1129 C1126 1.403 1_565 S
C1129 C1130 1.392 . S
C1129 C1133 1.495 1_565 S
C1130 C1129 1.392 . S
C1130 C1131 1.385 . S
C1130 C1132 1.478 . S
C1131 H1125 0.930 . S
C1131 C1127 1.400 . S
C1131 C1130 1.385 . S
C1132 C1130 1.478 . S
C1132 C1134 1.381 . S
C1132 C1138 1.383 . S
C1133 C1129 1.495 1_545 S
C1133 H1139 0.959 . S
C1133 H1140 0.961 . S
C1133 H1141 0.973 . S
C1134 C1132 1.381 . S
C1134 C1135 1.394 . S
C1134 H1142 0.930 . S
C1135 C1134 1.394 . S
C1135 C1136 1.383 . S
C1135 H1143 0.929 . S
C1136 C1135 1.383 . S
C1136 C1137 1.377 . S
C1137 H1121 0.930 . S
C1137 C1136 1.377 . S
C1137 C1138 1.379 . S
C1138 H1122 0.931 . S
C1138 C1132 1.383 . S
C1138 C1137 1.379 . S
H1139 C1133 0.959 . S
H1140 C1133 0.961 . S
H1141 C1133 0.973 . S
H1142 C1134 0.930 . S
H1143 C1135 0.929 . S
H1144 C1152 0.929 . S
H1145 C1154 0.930 . S
H1146 C1156 0.930 . S
H1147 C1159 0.929 . S
H1148 C1162 0.930 . S
H1149 C1164 0.960 . S
H1150 C1164 0.960 . S
H1151 C1164 0.960 . S
C1152 H1144 0.929 . S
C1152 C1153 1.377 . S
C1152 C1154 1.384 . S
C1153 C1152 1.377 . S
C1153 C1159 1.390 . S
C1154 H1145 0.930 . S
C1154 C1152 1.384 . S
C1154 C1155 1.372 . S
C1155 C1154 1.372 . S
C1155 C1156 1.400 . S
C1155 C1160 1.490 . S
C1156 H1146 0.930 . S
C1156 C1155 1.400 . S
C1156 C1159 1.386 . S
H1157 C1173 0.930 . S
H1158 C1174 0.931 . S
C1159 H1147 0.929 . S
C1159 C1153 1.390 . S
C1159 C1156 1.386 . S
C1160 C1155 1.490 . S
C1160 C1162 1.395 . S
C1160 C1163 1.403 . S
H1161 C1167 0.930 . S
C1162 H1148 0.930 . S
C1162 C1160 1.395 . S
C1162 C1165 1.403 . S
C1163 C1160 1.403 . S
C1163 C1164 1.524 . S
C1163 C1167 1.400 . S
C1164 H1149 0.960 . S
C1164 H1150 0.960 . S
C1164 H1151 0.960 . S
C1164 C1163 1.524 . S
C1165 C1162 1.403 . S
C1165 C1166 1.392 . S
C1165 C1169 1.495 . S
C1166 C1165 1.392 . S
C1166 C1167 1.385 . S
C1166 C1168 1.478 . S
C1167 H1161 0.930 . S
C1167 C1163 1.400 . S
C1167 C1166 1.385 . S
C1168 C1166 1.478 . S
C1168 C1170 1.381 . S
C1168 C1174 1.383 . S
C1169 C1165 1.495 . S
C1169 H1175 0.959 . S
C1169 H1176 0.961 . S
C1169 H1177 0.960 . S
C1170 C1168 1.381 . S
C1170 C1171 1.394 . S
C1170 H1178 0.930 . S
C1171 C1170 1.394 . S
C1171 C1172 1.383 . S
C1171 H1179 0.929 . S
C1172 C1171 1.383 . S
C1172 C1173 1.377 . S
C1173 H1157 0.930 . S
C1173 C1172 1.377 . S
C1173 C1174 1.379 . S
C1174 H1158 0.931 . S
C1174 C1168 1.383 . S
C1174 C1173 1.379 . S
H1175 C1169 0.959 . S
H1176 C1169 0.961 . S
H1177 C1169 0.960 . S
H1178 C1170 0.930 . S
H1179 C1171 0.929 . S
H1180 C1188 0.929 . S
H1181 C1190 0.930 . S
H1182 C1192 0.930 . S
H1183 C1195 0.929 . S
H1184 C1198 0.930 . S
H1185 C1200 0.960 . S
H1186 C1200 0.960 . S
H1187 C1200 0.960 . S
C1188 H1180 0.929 . S
C1188 C1189 1.377 . S
C1188 C1190 1.384 . S
C1189 C1188 1.377 . S
C1189 C1195 1.390 . S
C1190 H1181 0.930 . S
C1190 C1188 1.384 . S
C1190 C1191 1.372 . S
C1191 C1190 1.372 . S
C1191 C1192 1.400 . S
C1191 C1196 1.490 . S
C1192 H1182 0.930 . S
C1192 C1191 1.400 . S
C1192 C1195 1.386 . S
H1193 C1209 0.930 . S
H1194 C1210 0.931 . S
C1195 H1183 0.929 . S
C1195 C1189 1.390 . S
C1195 C1192 1.386 . S
C1196 C1191 1.490 . S
C1196 C1198 1.395 . S
C1196 C1199 1.403 . S
H1197 C1203 0.930 . S
C1198 H1184 0.930 . S
C1198 C1196 1.395 . S
C1198 C1201 1.403 1_545 S
C1199 C1196 1.403 . S
C1199 C1200 1.524 . S
C1199 C1203 1.400 . S
C1200 H1185 0.960 . S
C1200 H1186 0.960 . S
C1200 H1187 0.960 . S
C1200 C1199 1.524 . S
C1201 C1198 1.403 1_565 S
C1201 C1202 1.392 . S
C1201 C1205 1.495 . S
C1202 C1201 1.392 . S
C1202 C1203 1.385 1_565 S
C1202 C1204 1.478 . S
C1203 H1197 0.930 . S
C1203 C1199 1.400 . S
C1203 C1202 1.385 1_545 S
C1204 C1202 1.478 . S
C1204 C1206 1.381 . S
C1204 C1210 1.383 . S
C1205 C1201 1.495 . S
C1205 H1211 0.959 . S
C1205 H1212 0.961 . S
C1205 H1213 0.960 . S
C1206 C1204 1.381 . S
C1206 C1207 1.394 . S
C1206 H1214 0.930 . S
C1207 C1206 1.394 . S
C1207 C1208 1.383 . S
C1207 H1215 0.929 . S
C1208 C1207 1.383 . S
C1208 C1209 1.377 . S
C1209 H1193 0.930 . S
C1209 C1208 1.377 . S
C1209 C1210 1.379 . S
C1210 H1194 0.931 . S
C1210 C1204 1.383 . S
C1210 C1209 1.379 . S
H1211 C1205 0.959 . S
H1212 C1205 0.961 . S
H1213 C1205 0.960 . S
H1214 C1206 0.930 . S
H1215 C1207 0.929 . S
H1216 C1224 0.929 . S
H1217 C1226 0.930 . S
H1218 C1228 0.930 . S
H1219 C1231 0.929 . S
H1220 C1234 0.930 . S
H1221 C1236 0.960 . S
H1222 C1236 0.960 . S
H1223 C1236 0.960 . S
C1224 H1216 0.929 . S
C1224 C1225 1.377 . S
C1224 C1226 1.384 . S
C1225 C1224 1.377 . S
C1225 C1231 1.390 . S
C1226 H1217 0.930 . S
C1226 C1224 1.384 . S
C1226 C1227 1.372 . S
C1227 C1226 1.372 . S
C1227 C1228 1.400 . S
C1227 C1232 1.490 . S
C1228 H1218 0.930 . S
C1228 C1227 1.400 . S
C1228 C1231 1.386 . S
H1229 C1245 0.930 . S
H1230 C1246 0.931 . S
C1231 H1219 0.929 . S
C1231 C1225 1.390 . S
C1231 C1228 1.386 . S
C1232 C1227 1.490 . S
C1232 C1234 1.395 . S
C1232 C1235 1.403 . S
H1233 C1239 0.930 . S
C1234 H1220 0.930 . S
C1234 C1232 1.395 . S
C1234 C1237 1.403 . S
C1235 C1232 1.403 . S
C1235 C1236 1.524 . S
C1235 C1239 1.400 . S
C1236 H1221 0.960 . S
C1236 H1222 0.960 . S
C1236 H1223 0.960 . S
C1236 C1235 1.524 . S
C1237 C1234 1.403 . S
C1237 C1238 1.392 . S
C1237 C1241 1.495 . S
C1238 C1237 1.392 . S
C1238 C1239 1.385 . S
C1238 C1240 1.478 . S
C1239 H1233 0.930 . S
C1239 C1235 1.400 . S
C1239 C1238 1.385 . S
C1240 C1238 1.478 . S
C1240 C1242 1.381 . S
C1240 C1246 1.383 . S
C1241 C1237 1.495 . S
C1241 H1247 0.959 . S
C1241 H1248 0.961 . S
C1241 H1249 0.960 . S
C1242 C1240 1.381 . S
C1242 C1243 1.394 . S
C1242 H1250 0.930 . S
C1243 C1242 1.394 . S
C1243 C1244 1.383 . S
C1243 H1251 0.929 . S
C1244 C1243 1.383 . S
C1244 C1245 1.377 . S
C1245 H1229 0.930 . S
C1245 C1244 1.377 . S
C1245 C1246 1.379 . S
C1246 H1230 0.931 . S
C1246 C1240 1.383 . S
C1246 C1245 1.379 . S
H1247 C1241 0.959 . S
H1248 C1241 0.961 . S
H1249 C1241 0.960 . S
H1250 C1242 0.930 . S
H1251 C1243 0.929 . S
H1252 C1260 0.929 . S
H1253 C1262 0.930 . S
H1254 C1264 0.930 . S
H1255 C1267 0.929 . S
H1256 C1270 0.930 . S
H1257 C1272 0.960 . S
H1258 C1272 0.960 . S
H1259 C1272 0.960 . S
C1260 H1252 0.929 . S
C1260 C1261 1.377 . S
C1260 C1262 1.384 . S
C1261 C1260 1.377 . S
C1261 C1267 1.390 . S
C1262 H1253 0.930 . S
C1262 C1260 1.384 . S
C1262 C1263 1.372 . S
C1263 C1262 1.372 . S
C1263 C1264 1.400 . S
C1263 C1268 1.490 . S
C1264 H1254 0.930 . S
C1264 C1263 1.400 . S
C1264 C1267 1.386 . S
H1265 C1281 0.930 . S
H1266 C1282 0.931 . S
C1267 H1255 0.929 . S
C1267 C1261 1.390 . S
C1267 C1264 1.386 . S
C1268 C1263 1.490 . S
C1268 C1270 1.395 . S
C1268 C1271 1.403 . S
H1269 C1275 0.930 . S
C1270 H1256 0.930 . S
C1270 C1268 1.395 . S
C1270 C1273 1.403 . S
C1271 C1268 1.403 . S
C1271 C1272 1.524 . S
C1271 C1275 1.400 . S
C1272 H1257 0.960 . S
C1272 H1258 0.960 . S
C1272 H1259 0.960 . S
C1272 C1271 1.524 . S
C1273 C1270 1.403 . S
C1273 C1274 1.392 . S
C1273 C1277 1.495 . S
C1274 C1273 1.392 . S
C1274 C1275 1.385 . S
C1274 C1276 1.478 . S
C1275 H1269 0.930 . S
C1275 C1271 1.400 . S
C1275 C1274 1.385 . S
C1276 C1274 1.478 . S
C1276 C1278 1.381 . S
C1276 C1282 1.383 . S
C1277 C1273 1.495 . S
C1277 H1283 0.959 . S
C1277 H1284 0.961 . S
C1277 H1285 0.960 . S
C1278 C1276 1.381 . S
C1278 C1279 1.394 1_556 S
C1278 H1286 0.930 . S
C1279 C1278 1.394 1_554 S
C1279 C1280 1.383 1_554 S
C1279 H1287 0.929 . S
C1280 C1279 1.383 1_556 S
C1280 C1281 1.377 . S
C1281 H1265 0.930 . S
C1281 C1280 1.377 . S
C1281 C1282 1.379 . S
C1282 H1266 0.931 . S
C1282 C1276 1.383 . S
C1282 C1281 1.379 . S
H1283 C1277 0.959 . S
H1284 C1277 0.961 . S
H1285 C1277 0.960 . S
H1286 C1278 0.930 . S
H1287 C1279 0.929 . S
H1288 C1296 0.929 . S
H1289 C1298 0.930 . S
H1290 C1300 0.930 . S
H1291 C1303 0.929 . S
H1292 C1306 0.930 . S
H1293 C1308 0.960 . S
H1294 C1308 0.960 . S
H1295 C1308 0.960 . S
C1296 H1288 0.929 . S
C1296 C1297 1.377 . S
C1296 C1298 1.384 . S
C1297 C1296 1.377 . S
C1297 C1303 1.390 . S
C1298 H1289 0.930 . S
C1298 C1296 1.384 . S
C1298 C1299 1.372 . S
C1299 C1298 1.372 . S
C1299 C1300 1.400 . S
C1299 C1304 1.490 . S
C1300 H1290 0.930 . S
C1300 C1299 1.400 . S
C1300 C1303 1.386 . S
H1301 C1317 0.930 . S
H1302 C1318 0.931 . S
C1303 H1291 0.929 . S
C1303 C1297 1.390 . S
C1303 C1300 1.386 . S
C1304 C1299 1.490 . S
C1304 C1306 1.395 . S
C1304 C1307 1.403 . S
H1305 C1311 0.930 . S
C1306 H1292 0.930 . S
C1306 C1304 1.395 . S
C1306 C1309 1.403 . S
C1307 C1304 1.403 . S
C1307 C1308 1.524 . S
C1307 C1311 1.400 . S
C1308 H1293 0.960 . S
C1308 H1294 0.960 . S
C1308 H1295 0.960 . S
C1308 C1307 1.524 . S
C1309 C1306 1.403 . S
C1309 C1310 1.392 . S
C1309 C1313 1.495 . S
C1310 C1309 1.392 . S
C1310 C1311 1.385 . S
C1310 C1312 1.478 . S
C1311 H1305 0.930 . S
C1311 C1307 1.400 . S
C1311 C1310 1.385 . S
C1312 C1310 1.478 . S
C1312 C1314 1.381 . S
C1312 C1318 1.383 . S
C1313 C1309 1.495 . S
C1313 H1319 0.959 . S
C1313 H1320 0.961 . S
C1313 H1321 0.960 . S
C1314 C1312 1.381 . S
C1314 C1315 1.394 . S
C1314 H1322 0.930 . S
C1315 C1314 1.394 . S
C1315 C1316 1.383 . S
C1315 H1323 0.929 . S
C1316 C1315 1.383 . S
C1316 C1317 1.377 . S
C1317 H1301 0.930 . S
C1317 C1316 1.377 . S
C1317 C1318 1.379 . S
C1318 H1302 0.931 . S
C1318 C1312 1.383 . S
C1318 C1317 1.379 . S
H1319 C1313 0.959 . S
H1320 C1313 0.961 . S
H1321 C1313 0.960 . S
H1322 C1314 0.930 . S
H1323 C1315 0.929 . S
H1324 C1332 0.929 . S
H1325 C1334 0.930 . S
H1326 C1336 0.930 . S
H1327 C1339 0.929 . S
H1328 C1342 0.930 . S
H1329 C1344 0.960 . S
H1330 C1344 0.960 . S
H1331 C1344 0.960 . S
C1332 H1324 0.929 . S
C1332 C1333 1.377 . S
C1332 C1334 1.384 . S
C1333 C1332 1.377 . S
C1333 C1339 1.390 . S
C1334 H1325 0.930 . S
C1334 C1332 1.384 . S
C1334 C1335 1.372 . S
C1335 C1334 1.372 . S
C1335 C1336 1.400 . S
C1335 C1340 1.490 . S
C1336 H1326 0.930 . S
C1336 C1335 1.400 . S
C1336 C1339 1.386 . S
H1337 C1353 0.930 . S
H1338 C1354 0.931 . S
C1339 H1327 0.929 . S
C1339 C1333 1.390 . S
C1339 C1336 1.386 . S
C1340 C1335 1.490 . S
C1340 C1342 1.395 . S
C1340 C1343 1.403 . S
H1341 C1347 0.930 . S
C1342 H1328 0.930 . S
C1342 C1340 1.395 . S
C1342 C1345 1.403 . S
C1343 C1340 1.403 . S
C1343 C1344 1.524 . S
C1343 C1347 1.400 . S
C1344 H1329 0.960 . S
C1344 H1330 0.960 . S
C1344 H1331 0.960 . S
C1344 C1343 1.524 . S
C1345 C1342 1.403 . S
C1345 C1346 1.392 . S
C1345 C1349 1.495 . S
C1346 C1345 1.392 . S
C1346 C1347 1.385 . S
C1346 C1348 1.478 . S
C1347 H1341 0.930 . S
C1347 C1343 1.400 . S
C1347 C1346 1.385 . S
C1348 C1346 1.478 . S
C1348 C1350 1.381 . S
C1348 C1354 1.383 . S
C1349 C1345 1.495 . S
C1349 H1355 0.959 . S
C1349 H1356 0.961 . S
C1349 H1357 0.960 . S
C1350 C1348 1.381 . S
C1350 C1351 1.394 . S
C1350 H1358 0.930 . S
C1351 C1350 1.394 . S
C1351 C1352 1.383 . S
C1351 H1359 0.929 . S
C1352 C1351 1.383 . S
C1352 C1353 1.377 . S
C1353 H1337 0.930 . S
C1353 C1352 1.377 . S
C1353 C1354 1.379 . S
C1354 H1338 0.931 . S
C1354 C1348 1.383 . S
C1354 C1353 1.379 . S
H1355 C1349 0.959 . S
H1356 C1349 0.961 . S
H1357 C1349 0.960 . S
H1358 C1350 0.930 . S
H1359 C1351 0.929 . S
H1360 C1368 0.929 . S
H1361 C1370 0.930 . S
H1362 C1372 0.930 . S
H1363 C1375 0.929 . S
H1364 C1378 0.930 . S
H1365 C1380 0.960 . S
H1366 C1380 0.960 . S
H1367 C1380 0.960 . S
C1368 H1360 0.929 . S
C1368 C1369 1.377 . S
C1368 C1370 1.384 . S
C1369 C1368 1.377 . S
C1369 C1375 1.390 . S
C1370 H1361 0.930 . S
C1370 C1368 1.384 . S
C1370 C1371 1.372 . S
C1371 C1370 1.372 . S
C1371 C1372 1.400 . S
C1371 C1376 1.490 . S
C1372 H1362 0.930 . S
C1372 C1371 1.400 . S
C1372 C1375 1.386 . S
H1373 C1389 0.930 . S
H1374 C1390 0.931 . S
C1375 H1363 0.929 . S
C1375 C1369 1.390 . S
C1375 C1372 1.386 . S
C1376 C1371 1.490 . S
C1376 C1378 1.395 . S
C1376 C1379 1.403 . S
H1377 C1383 0.930 . S
C1378 H1364 0.930 . S
C1378 C1376 1.395 . S
C1378 C1381 1.403 . S
C1379 C1376 1.403 . S
C1379 C1380 1.524 . S
C1379 C1383 1.400 . S
C1380 H1365 0.960 . S
C1380 H1366 0.960 . S
C1380 H1367 0.960 . S
C1380 C1379 1.524 . S
C1381 C1378 1.403 . S
C1381 C1382 1.392 . S
C1381 C1385 1.495 . S
C1382 C1381 1.392 . S
C1382 C1383 1.385 . S
C1382 C1384 1.478 . S
C1383 H1377 0.930 . S
C1383 C1379 1.400 . S
C1383 C1382 1.385 . S
C1384 C1382 1.478 . S
C1384 C1386 1.381 . S
C1384 C1390 1.383 . S
C1385 C1381 1.495 . S
C1385 H1391 0.959 . S
C1385 H1392 0.961 . S
C1385 H1393 0.960 . S
C1386 C1384 1.381 . S
C1386 C1387 1.394 . S
C1386 H1394 0.930 . S
C1387 C1386 1.394 . S
C1387 C1388 1.383 . S
C1387 H1395 0.929 . S
C1388 C1387 1.383 . S
C1388 C1389 1.377 . S
C1389 H1373 0.930 . S
C1389 C1388 1.377 . S
C1389 C1390 1.379 . S
C1390 H1374 0.931 . S
C1390 C1384 1.383 . S
C1390 C1389 1.379 . S
H1391 C1385 0.959 . S
H1392 C1385 0.961 . S
H1393 C1385 0.960 . S
H1394 C1386 0.930 . S
H1395 C1387 0.929 . S
H1396 C1404 0.929 . S
H1397 C1406 0.930 . S
H1398 C1408 0.930 . S
H1399 C1411 0.929 . S
H1400 C1414 0.930 . S
H1401 C1416 0.960 . S
H1402 C1416 0.960 . S
H1403 C1416 0.960 . S
C1404 H1396 0.929 . S
C1404 C1405 1.377 . S
C1404 C1406 1.384 . S
C1405 C1404 1.377 . S
C1405 C1411 1.390 . S
C1406 H1397 0.930 . S
C1406 C1404 1.384 . S
C1406 C1407 1.372 . S
C1407 C1406 1.372 . S
C1407 C1408 1.400 . S
C1407 C1412 1.490 . S
C1408 H1398 0.930 . S
C1408 C1407 1.400 . S
C1408 C1411 1.386 . S
H1409 C1425 0.930 1_556 S
H1410 C1426 0.931 . S
C1411 H1399 0.929 . S
C1411 C1405 1.390 . S
C1411 C1408 1.386 . S
C1412 C1407 1.490 . S
C1412 C1414 1.395 . S
C1412 C1415 1.403 . S
H1413 C1419 0.930 . S
C1414 H1400 0.930 . S
C1414 C1412 1.395 . S
C1414 C1417 1.403 . S
C1415 C1412 1.403 . S
C1415 C1416 1.524 . S
C1415 C1419 1.400 . S
C1416 H1401 0.960 . S
C1416 H1402 0.960 . S
C1416 H1403 0.960 . S
C1416 C1415 1.524 . S
C1417 C1414 1.403 . S
C1417 C1418 1.392 . S
C1417 C1421 1.495 . S
C1418 C1417 1.392 . S
C1418 C1419 1.385 . S
C1418 C1420 1.478 . S
C1419 H1413 0.930 . S
C1419 C1415 1.400 . S
C1419 C1418 1.385 . S
C1420 C1418 1.478 . S
C1420 C1422 1.381 . S
C1420 C1426 1.383 . S
C1421 C1417 1.495 . S
C1421 H1427 0.959 . S
C1421 H1428 0.961 . S
C1421 H1429 0.960 . S
C1422 C1420 1.381 . S
C1422 C1423 1.394 . S
C1422 H1430 0.930 . S
C1423 C1422 1.394 . S
C1423 C1424 1.383 . S
C1423 H1431 0.929 . S
C1424 C1423 1.383 . S
C1424 C1425 1.377 . S
C1425 H1409 0.930 1_554 S
C1425 C1424 1.377 . S
C1425 C1426 1.379 . S
C1426 H1410 0.931 . S
C1426 C1420 1.383 . S
C1426 C1425 1.379 . S
H1427 C1421 0.959 . S
H1428 C1421 0.961 . S
H1429 C1421 0.960 . S
H1430 C1422 0.930 . S
H1431 C1423 0.929 . S
H1432 C1440 0.929 . S
H1433 C1442 0.930 . S
H1434 C1444 0.930 . S
H1435 C1447 0.929 . S
H1436 C1450 0.930 . S
H1437 C1452 0.960 . S
H1438 C1452 0.960 . S
H1439 C1452 0.960 . S
C1440 H1432 0.929 . S
C1440 C1441 1.377 . S
C1440 C1442 1.384 . S
C1441 C1440 1.377 . S
C1441 C1447 1.390 . S
C1442 H1433 0.930 . S
C1442 C1440 1.384 . S
C1442 C1443 1.372 . S
C1443 C1442 1.372 . S
C1443 C1444 1.400 . S
C1443 C1448 1.490 . S
C1444 H1434 0.930 . S
C1444 C1443 1.400 . S
C1444 C1447 1.386 . S
H1445 C1461 0.930 . S
H1446 C1462 0.931 . S
C1447 H1435 0.929 . S
C1447 C1441 1.390 . S
C1447 C1444 1.386 . S
C1448 C1443 1.490 . S
C1448 C1450 1.395 . S
C1448 C1451 1.403 . S
H1449 C1455 0.930 . S
C1450 H1436 0.930 . S
C1450 C1448 1.395 . S
C1450 C1453 1.403 . S
C1451 C1448 1.403 . S
C1451 C1452 1.524 . S
C1451 C1455 1.400 . S
C1452 H1437 0.960 . S
C1452 H1438 0.960 . S
C1452 H1439 0.960 . S
C1452 C1451 1.524 . S
C1453 C1450 1.403 . S
C1453 C1454 1.392 . S
C1453 C1457 1.495 . S
C1454 C1453 1.392 . S
C1454 C1455 1.385 . S
C1454 C1456 1.478 . S
C1455 H1449 0.930 . S
C1455 C1451 1.400 . S
C1455 C1454 1.385 . S
C1456 C1454 1.478 . S
C1456 C1458 1.381 . S
C1456 C1462 1.383 . S
C1457 C1453 1.495 . S
C1457 H1463 0.959 . S
C1457 H1464 0.961 . S
C1457 H1465 0.960 . S
C1458 C1456 1.381 . S
C1458 C1459 1.394 . S
C1458 H1466 0.930 . S
C1459 C1458 1.394 . S
C1459 C1460 1.383 . S
C1459 H1467 0.929 . S
C1460 C1459 1.383 . S
C1460 C1461 1.377 . S
C1461 H1445 0.930 . S
C1461 C1460 1.377 . S
C1461 C1462 1.379 . S
C1462 H1446 0.931 . S
C1462 C1456 1.383 . S
C1462 C1461 1.379 . S
H1463 C1457 0.959 . S
H1464 C1457 0.961 . S
H1465 C1457 0.960 . S
H1466 C1458 0.930 . S
H1467 C1459 0.929 . S
H1468 C1476 0.929 . S
H1469 C1478 0.930 . S
H1470 C1480 0.930 . S
H1471 C1483 0.929 . S
H1472 C1486 0.930 . S
H1473 C1488 0.960 . S
H1474 C1488 0.960 . S
H1475 C1488 0.960 . S
C1476 H1468 0.929 . S
C1476 C1477 1.377 . S
C1476 C1478 1.384 . S
C1477 C1476 1.377 . S
C1477 C1483 1.390 . S
C1478 H1469 0.930 . S
C1478 C1476 1.384 . S
C1478 C1479 1.372 . S
C1479 C1478 1.372 . S
C1479 C1480 1.400 . S
C1479 C1484 1.490 . S
C1480 H1470 0.930 . S
C1480 C1479 1.400 . S
C1480 C1483 1.386 . S
H1481 C1497 0.930 . S
H1482 C1498 0.931 . S
C1483 H1471 0.929 . S
C1483 C1477 1.390 . S
C1483 C1480 1.386 . S
C1484 C1479 1.490 . S
C1484 C1486 1.395 . S
C1484 C1487 1.403 . S
H1485 C1491 0.930 . S
C1486 H1472 0.930 . S
C1486 C1484 1.395 . S
C1486 C1489 1.403 . S
C1487 C1484 1.403 . S
C1487 C1488 1.524 . S
C1487 C1491 1.400 . S
C1488 H1473 0.960 . S
C1488 H1474 0.960 . S
C1488 H1475 0.960 . S
C1488 C1487 1.524 . S
C1489 C1486 1.403 . S
C1489 C1490 1.392 . S
C1489 C1493 1.495 . S
C1490 C1489 1.392 . S
C1490 C1491 1.385 . S
C1490 C1492 1.478 . S
C1491 H1485 0.930 . S
C1491 C1487 1.400 . S
C1491 C1490 1.385 . S
C1492 C1490 1.478 . S
C1492 C1494 1.381 . S
C1492 C1498 1.383 . S
C1493 C1489 1.495 . S
C1493 H1499 0.959 . S
C1493 H1500 0.961 . S
C1493 H1501 0.960 . S
C1494 C1492 1.381 . S
C1494 C1495 1.394 . S
C1494 H1502 0.930 . S
C1495 C1494 1.394 . S
C1495 C1496 1.383 . S
C1495 H1503 0.929 . S
C1496 C1495 1.383 . S
C1496 C1497 1.377 . S
C1497 H1481 0.930 . S
C1497 C1496 1.377 . S
C1497 C1498 1.379 . S
C1498 H1482 0.931 . S
C1498 C1492 1.383 . S
C1498 C1497 1.379 . S
H1499 C1493 0.959 . S
H1500 C1493 0.961 . S
H1501 C1493 0.960 . S
H1502 C1494 0.930 . S
H1503 C1495 0.929 . S
H1504 C1512 0.929 . S
H1505 C1514 0.930 . S
H1506 C1516 0.930 . S
H1507 C1519 0.929 . S
H1508 C1522 0.930 . S
H1509 C1524 0.960 . S
H1510 C1524 0.960 . S
H1511 C1524 0.960 . S
C1512 H1504 0.929 . S
C1512 C1513 1.377 . S
C1512 C1514 1.384 . S
C1513 C1512 1.377 . S
C1513 C1519 1.390 . S
C1514 H1505 0.930 . S
C1514 C1512 1.384 . S
C1514 C1515 1.372 . S
C1515 C1514 1.372 . S
C1515 C1516 1.400 . S
C1515 C1520 1.490 . S
C1516 H1506 0.930 . S
C1516 C1515 1.400 . S
C1516 C1519 1.386 . S
H1517 C1533 0.930 . S
H1518 C1534 0.931 . S
C1519 H1507 0.929 . S
C1519 C1513 1.390 . S
C1519 C1516 1.386 . S
C1520 C1515 1.490 . S
C1520 C1522 1.395 . S
C1520 C1523 1.403 . S
H1521 C1527 0.930 . S
C1522 H1508 0.930 . S
C1522 C1520 1.395 . S
C1522 C1525 1.403 . S
C1523 C1520 1.403 . S
C1523 C1524 1.524 . S
C1523 C1527 1.400 . S
C1524 H1509 0.960 . S
C1524 H1510 0.960 . S
C1524 H1511 0.960 . S
C1524 C1523 1.524 . S
C1525 C1522 1.403 . S
C1525 C1526 1.392 . S
C1525 C1529 1.495 . S
C1526 C1525 1.392 . S
C1526 C1527 1.385 . S
C1526 C1528 1.478 . S
C1527 H1521 0.930 . S
C1527 C1523 1.400 . S
C1527 C1526 1.385 . S
C1528 C1526 1.478 . S
C1528 C1530 1.381 . S
C1528 C1534 1.383 . S
C1529 C1525 1.495 . S
C1529 H1535 0.959 . S
C1529 H1536 0.961 . S
C1529 H1537 0.960 . S
C1530 C1528 1.381 . S
C1530 C1531 1.394 . S
C1530 H1538 0.930 . S
C1531 C1530 1.394 . S
C1531 C1532 1.383 . S
C1531 H1539 0.929 . S
C1532 C1531 1.383 . S
C1532 C1533 1.377 . S
C1533 H1517 0.930 . S
C1533 C1532 1.377 . S
C1533 C1534 1.379 . S
C1534 H1518 0.931 . S
C1534 C1528 1.383 . S
C1534 C1533 1.379 . S
H1535 C1529 0.959 . S
H1536 C1529 0.961 . S
H1537 C1529 0.960 . S
H1538 C1530 0.930 . S
H1539 C1531 0.929 . S
H1540 C1548 0.929 . S
H1541 C1550 0.930 . S
H1542 C1552 0.930 . S
H1543 C1555 0.929 . S
H1544 C1558 0.930 . S
H1545 C1560 0.960 . S
H1546 C1560 0.960 . S
H1547 C1560 0.960 . S
C1548 H1540 0.929 . S
C1548 C1549 1.377 . S
C1548 C1550 1.384 . S
C1549 C1548 1.377 . S
C1549 C1555 1.390 . S
C1550 H1541 0.930 . S
C1550 C1548 1.384 . S
C1550 C1551 1.372 . S
C1551 C1550 1.372 . S
C1551 C1552 1.400 . S
C1551 C1556 1.490 . S
C1552 H1542 0.930 . S
C1552 C1551 1.400 . S
C1552 C1555 1.386 . S
H1553 C1569 0.930 . S
H1554 C1570 0.931 . S
C1555 H1543 0.929 . S
C1555 C1549 1.390 . S
C1555 C1552 1.386 . S
C1556 C1551 1.490 . S
C1556 C1558 1.395 . S
C1556 C1559 1.403 . S
H1557 C1563 0.930 . S
C1558 H1544 0.930 . S
C1558 C1556 1.395 . S
C1558 C1561 1.403 . S
C1559 C1556 1.403 . S
C1559 C1560 1.524 . S
C1559 C1563 1.400 . S
C1560 H1545 0.960 . S
C1560 H1546 0.960 . S
C1560 H1547 0.960 . S
C1560 C1559 1.524 . S
C1561 C1558 1.403 . S
C1561 C1562 1.392 . S
C1561 C1565 1.495 . S
C1562 C1561 1.392 . S
C1562 C1563 1.385 . S
C1562 C1564 1.478 . S
C1563 H1557 0.930 . S
C1563 C1559 1.400 . S
C1563 C1562 1.385 . S
C1564 C1562 1.478 . S
C1564 C1566 1.381 . S
C1564 C1570 1.383 . S
C1565 C1561 1.495 . S
C1565 H1571 0.959 . S
C1565 H1572 0.961 . S
C1565 H1573 0.960 . S
C1566 C1564 1.381 . S
C1566 C1567 1.394 1_554 S
C1566 H1574 0.930 . S
C1567 C1566 1.394 1_556 S
C1567 C1568 1.383 1_556 S
C1567 H1575 0.929 . S
C1568 C1567 1.383 1_554 S
C1568 C1569 1.377 . S
C1569 H1553 0.930 . S
C1569 C1568 1.377 . S
C1569 C1570 1.379 . S
C1570 H1554 0.931 . S
C1570 C1564 1.383 . S
C1570 C1569 1.379 . S
H1571 C1565 0.959 . S
H1572 C1565 0.961 . S
H1573 C1565 0.960 . S
H1574 C1566 0.930 . S
H1575 C1567 0.929 . S
H1576 C1584 0.929 . S
H1577 C1586 0.930 . S
H1578 C1588 0.930 . S
H1579 C1591 0.929 . S
H1580 C1594 0.930 . S
H1581 C1596 0.960 . S
H1582 C1596 0.960 . S
H1583 C1596 0.960 . S
C1584 H1576 0.929 . S
C1584 C1585 1.377 . S
C1584 C1586 1.384 . S
C1585 C1584 1.377 . S
C1585 C1591 1.390 . S
C1586 H1577 0.930 . S
C1586 C1584 1.384 . S
C1586 C1587 1.372 . S
C1587 C1586 1.372 . S
C1587 C1588 1.400 . S
C1587 C1592 1.490 . S
C1588 H1578 0.930 . S
C1588 C1587 1.400 . S
C1588 C1591 1.386 . S
H1589 C1605 0.930 . S
H1590 C1606 0.931 . S
C1591 H1579 0.929 . S
C1591 C1585 1.390 . S
C1591 C1588 1.386 . S
C1592 C1587 1.490 . S
C1592 C1594 1.395 . S
C1592 C1595 1.403 . S
H1593 C1599 0.930 . S
C1594 H1580 0.930 . S
C1594 C1592 1.395 . S
C1594 C1597 1.403 . S
C1595 C1592 1.403 . S
C1595 C1596 1.524 . S
C1595 C1599 1.400 . S
C1596 H1581 0.960 . S
C1596 H1582 0.960 . S
C1596 H1583 0.960 . S
C1596 C1595 1.524 . S
C1597 C1594 1.403 . S
C1597 C1598 1.392 . S
C1597 C1601 1.495 . S
C1598 C1597 1.392 . S
C1598 C1599 1.385 . S
C1598 C1600 1.478 . S
C1599 H1593 0.930 . S
C1599 C1595 1.400 . S
C1599 C1598 1.385 . S
C1600 C1598 1.478 . S
C1600 C1602 1.381 . S
C1600 C1606 1.383 . S
C1601 C1597 1.495 . S
C1601 H1607 0.959 . S
C1601 H1608 0.961 . S
C1601 H1609 0.960 . S
C1602 C1600 1.381 . S
C1602 C1603 1.394 . S
C1602 H1610 0.930 . S
C1603 C1602 1.394 . S
C1603 C1604 1.383 . S
C1603 H1611 0.929 . S
C1604 C1603 1.383 . S
C1604 C1605 1.377 . S
C1605 H1589 0.930 . S
C1605 C1604 1.377 . S
C1605 C1606 1.379 . S
C1606 H1590 0.931 . S
C1606 C1600 1.383 . S
C1606 C1605 1.379 . S
H1607 C1601 0.959 . S
H1608 C1601 0.961 . S
H1609 C1601 0.960 . S
H1610 C1602 0.930 . S
H1611 C1603 0.929 . S
H1612 C1620 0.929 . S
H1613 C1622 0.930 . S
H1614 C1624 0.930 . S
H1615 C1627 0.929 . S
H1616 C1630 0.930 . S
H1617 C1632 0.960 . S
H1618 C1632 0.960 . S
H1619 C1632 0.960 . S
C1620 H1612 0.929 . S
C1620 C1621 1.377 . S
C1620 C1622 1.384 . S
C1621 C1620 1.377 . S
C1621 C1627 1.390 . S
C1622 H1613 0.930 . S
C1622 C1620 1.384 . S
C1622 C1623 1.372 . S
C1623 C1622 1.372 . S
C1623 C1624 1.400 . S
C1623 C1628 1.490 . S
C1624 H1614 0.930 . S
C1624 C1623 1.400 . S
C1624 C1627 1.386 . S
H1625 C1641 0.930 . S
H1626 C1642 0.931 . S
C1627 H1615 0.929 . S
C1627 C1621 1.390 . S
C1627 C1624 1.386 . S
C1628 C1623 1.490 . S
C1628 C1630 1.395 . S
C1628 C1631 1.403 . S
H1629 C1635 0.930 . S
C1630 H1616 0.930 . S
C1630 C1628 1.395 . S
C1630 C1633 1.403 . S
C1631 C1628 1.403 . S
C1631 C1632 1.524 . S
C1631 C1635 1.400 . S
C1632 H1617 0.960 . S
C1632 H1618 0.960 . S
C1632 H1619 0.960 . S
C1632 C1631 1.524 . S
C1633 C1630 1.403 . S
C1633 C1634 1.392 . S
C1633 C1637 1.495 . S
C1634 C1633 1.392 . S
C1634 C1635 1.385 . S
C1634 C1636 1.478 . S
C1635 H1629 0.930 . S
C1635 C1631 1.400 . S
C1635 C1634 1.385 . S
C1636 C1634 1.478 . S
C1636 C1638 1.381 . S
C1636 C1642 1.383 . S
C1637 C1633 1.495 . S
C1637 H1643 0.959 . S
C1637 H1644 0.961 . S
C1637 H1645 0.960 . S
C1638 C1636 1.381 . S
C1638 C1639 1.394 . S
C1638 H1646 0.930 . S
C1639 C1638 1.394 . S
C1639 C1640 1.383 . S
C1639 H1647 0.929 . S
C1640 C1639 1.383 . S
C1640 C1641 1.377 . S
C1641 H1625 0.930 . S
C1641 C1640 1.377 . S
C1641 C1642 1.379 . S
C1642 H1626 0.931 . S
C1642 C1636 1.383 . S
C1642 C1641 1.379 . S
H1643 C1637 0.959 . S
H1644 C1637 0.961 . S
H1645 C1637 0.960 . S
H1646 C1638 0.930 . S
H1647 C1639 0.929 . S
H1648 C1656 0.929 . S
H1649 C1658 0.930 . S
H1650 C1660 0.930 . S
H1651 C1663 0.929 . S
H1652 C1666 0.930 . S
H1653 C1668 0.960 . S
H1654 C1668 0.960 . S
H1655 C1668 0.960 . S
C1656 H1648 0.929 . S
C1656 C1657 1.377 . S
C1656 C1658 1.384 . S
C1657 C1656 1.377 . S
C1657 C1663 1.390 . S
C1658 H1649 0.930 . S
C1658 C1656 1.384 . S
C1658 C1659 1.372 . S
C1659 C1658 1.372 . S
C1659 C1660 1.400 . S
C1659 C1664 1.490 . S
C1660 H1650 0.930 . S
C1660 C1659 1.400 . S
C1660 C1663 1.386 . S
H1661 C1677 0.930 . S
H1662 C1678 0.931 . S
C1663 H1651 0.929 . S
C1663 C1657 1.390 . S
C1663 C1660 1.386 . S
C1664 C1659 1.490 . S
C1664 C1666 1.395 . S
C1664 C1667 1.403 . S
H1665 C1671 0.930 . S
C1666 H1652 0.930 . S
C1666 C1664 1.395 . S
C1666 C1669 1.403 . S
C1667 C1664 1.403 . S
C1667 C1668 1.524 . S
C1667 C1671 1.400 . S
C1668 H1653 0.960 . S
C1668 H1654 0.960 . S
C1668 H1655 0.960 . S
C1668 C1667 1.524 . S
C1669 C1666 1.403 . S
C1669 C1670 1.392 . S
C1669 C1673 1.495 . S
C1670 C1669 1.392 . S
C1670 C1671 1.385 . S
C1670 C1672 1.478 . S
C1671 H1665 0.930 . S
C1671 C1667 1.400 . S
C1671 C1670 1.385 . S
C1672 C1670 1.478 . S
C1672 C1674 1.381 . S
C1672 C1678 1.383 . S
C1673 C1669 1.495 . S
C1673 H1679 0.959 . S
C1673 H1680 0.961 . S
C1673 H1681 0.960 . S
C1674 C1672 1.381 . S
C1674 C1675 1.394 . S
C1674 H1682 0.930 . S
C1675 C1674 1.394 . S
C1675 C1676 1.383 . S
C1675 H1683 0.929 . S
C1676 C1675 1.383 . S
C1676 C1677 1.377 . S
C1677 H1661 0.930 . S
C1677 C1676 1.377 . S
C1677 C1678 1.379 . S
C1678 H1662 0.931 . S
C1678 C1672 1.383 . S
C1678 C1677 1.379 . S
H1679 C1673 0.959 . S
H1680 C1673 0.961 . S
H1681 C1673 0.960 . S
H1682 C1674 0.930 . S
H1683 C1675 0.929 . S
H1684 C1692 0.929 . S
H1685 C1694 0.930 . S
H1686 C1696 0.930 . S
H1687 C1699 0.929 . S
H1688 C1702 0.930 . S
H1689 C1704 0.960 . S
H1690 C1704 0.960 . S
H1691 C1704 0.960 . S
C1692 H1684 0.929 . S
C1692 C1693 1.377 . S
C1692 C1694 1.384 . S
C1693 C1692 1.377 . S
C1693 C1699 1.390 . S
C1694 H1685 0.930 . S
C1694 C1692 1.384 . S
C1694 C1695 1.372 . S
C1695 C1694 1.372 . S
C1695 C1696 1.400 . S
C1695 C1700 1.490 . S
C1696 H1686 0.930 . S
C1696 C1695 1.400 . S
C1696 C1699 1.386 . S
H1697 C1713 0.930 . S
H1698 C1714 0.931 . S
C1699 H1687 0.929 . S
C1699 C1693 1.390 . S
C1699 C1696 1.386 . S
C1700 C1695 1.490 . S
C1700 C1702 1.395 . S
C1700 C1703 1.403 . S
H1701 C1707 0.930 . S
C1702 H1688 0.930 . S
C1702 C1700 1.395 . S
C1702 C1705 1.403 . S
C1703 C1700 1.403 . S
C1703 C1704 1.524 . S
C1703 C1707 1.400 . S
C1704 H1689 0.960 . S
C1704 H1690 0.960 . S
C1704 H1691 0.960 . S
C1704 C1703 1.524 . S
C1705 C1702 1.403 . S
C1705 C1706 1.392 . S
C1705 C1709 1.495 . S
C1706 C1705 1.392 . S
C1706 C1707 1.385 . S
C1706 C1708 1.478 . S
C1707 H1701 0.930 . S
C1707 C1703 1.400 . S
C1707 C1706 1.385 . S
C1708 C1706 1.478 . S
C1708 C1710 1.381 . S
C1708 C1714 1.383 . S
C1709 C1705 1.495 . S
C1709 H1715 0.959 . S
C1709 H1716 0.961 . S
C1709 H1717 0.960 . S
C1710 C1708 1.381 . S
C1710 C1711 1.394 . S
C1710 H1718 0.930 . S
C1711 C1710 1.394 . S
C1711 C1712 1.383 . S
C1711 H1719 0.929 . S
C1712 C1711 1.383 . S
C1712 C1713 1.377 . S
C1713 H1697 0.930 . S
C1713 C1712 1.377 . S
C1713 C1714 1.379 . S
C1714 H1698 0.931 . S
C1714 C1708 1.383 . S
C1714 C1713 1.379 . S
H1715 C1709 0.959 . S
H1716 C1709 0.961 . S
H1717 C1709 0.960 . S
H1718 C1710 0.930 . S
H1719 C1711 0.929 . S
H1720 C1728 0.929 . S
H1721 C1730 0.930 . S
H1722 C1732 0.930 . S
H1723 C1735 0.929 . S
H1724 C1738 0.930 . S
H1725 C1740 0.960 . S
H1726 C1740 0.960 . S
H1727 C1740 0.960 . S
C1728 H1720 0.929 . S
C1728 C1729 1.377 . S
C1728 C1730 1.384 . S
C1729 C1728 1.377 . S
C1729 C1735 1.390 . S
C1730 H1721 0.930 . S
C1730 C1728 1.384 . S
C1730 C1731 1.372 . S
C1731 C1730 1.372 . S
C1731 C1732 1.400 . S
C1731 C1736 1.490 . S
C1732 H1722 0.930 . S
C1732 C1731 1.400 . S
C1732 C1735 1.386 . S
H1733 C1749 0.930 . S
H1734 C1750 0.931 . S
C1735 H1723 0.929 . S
C1735 C1729 1.390 . S
C1735 C1732 1.386 . S
C1736 C1731 1.490 . S
C1736 C1738 1.395 . S
C1736 C1739 1.403 . S
H1737 C1743 0.930 . S
C1738 H1724 0.930 . S
C1738 C1736 1.395 . S
C1738 C1741 1.403 . S
C1739 C1736 1.403 . S
C1739 C1740 1.524 . S
C1739 C1743 1.400 . S
C1740 H1725 0.960 . S
C1740 H1726 0.960 . S
C1740 H1727 0.960 . S
C1740 C1739 1.524 . S
C1741 C1738 1.403 . S
C1741 C1742 1.392 . S
C1741 C1745 1.495 . S
C1742 C1741 1.392 . S
C1742 C1743 1.385 . S
C1742 C1744 1.478 . S
C1743 H1737 0.930 . S
C1743 C1739 1.400 . S
C1743 C1742 1.385 . S
C1744 C1742 1.478 . S
C1744 C1746 1.381 . S
C1744 C1750 1.383 . S
C1745 C1741 1.495 . S
C1745 H1751 0.959 . S
C1745 H1752 0.961 . S
C1745 H1753 0.960 . S
C1746 C1744 1.381 . S
C1746 C1747 1.394 . S
C1746 H1754 0.930 . S
C1747 C1746 1.394 . S
C1747 C1748 1.383 . S
C1747 H1755 0.929 . S
C1748 C1747 1.383 . S
C1748 C1749 1.377 . S
C1749 H1733 0.930 . S
C1749 C1748 1.377 . S
C1749 C1750 1.379 . S
C1750 H1734 0.931 . S
C1750 C1744 1.383 . S
C1750 C1749 1.379 . S
H1751 C1745 0.959 . S
H1752 C1745 0.961 . S
H1753 C1745 0.960 . S
H1754 C1746 0.930 . S
H1755 C1747 0.929 . S
H1756 C1764 0.929 . S
H1757 C1766 0.930 . S
H1758 C1768 0.930 . S
H1759 C1771 0.929 . S
H1760 C1774 0.930 . S
H1761 C1776 0.960 . S
H1762 C1776 0.960 . S
H1763 C1776 0.960 . S
C1764 H1756 0.929 . S
C1764 C1765 1.377 . S
C1764 C1766 1.384 . S
C1765 C1764 1.377 . S
C1765 C1771 1.390 . S
C1766 H1757 0.930 . S
C1766 C1764 1.384 . S
C1766 C1767 1.372 . S
C1767 C1766 1.372 . S
C1767 C1768 1.400 . S
C1767 C1772 1.490 . S
C1768 H1758 0.930 . S
C1768 C1767 1.400 . S
C1768 C1771 1.386 . S
H1769 C1785 0.930 . S
H1770 C1786 0.931 . S
C1771 H1759 0.929 . S
C1771 C1765 1.390 . S
C1771 C1768 1.386 . S
C1772 C1767 1.490 . S
C1772 C1774 1.395 . S
C1772 C1775 1.403 . S
H1773 C1779 0.930 . S
C1774 H1760 0.930 . S
C1774 C1772 1.395 . S
C1774 C1777 1.403 . S
C1775 C1772 1.403 . S
C1775 C1776 1.524 . S
C1775 C1779 1.400 . S
C1776 H1761 0.960 . S
C1776 H1762 0.960 . S
C1776 H1763 0.960 . S
C1776 C1775 1.524 . S
C1777 C1774 1.403 . S
C1777 C1778 1.392 . S
C1777 C1781 1.495 . S
C1778 C1777 1.392 . S
C1778 C1779 1.385 . S
C1778 C1780 1.478 . S
C1779 H1773 0.930 . S
C1779 C1775 1.400 . S
C1779 C1778 1.385 . S
C1780 C1778 1.478 . S
C1780 C1782 1.381 . S
C1780 C1786 1.383 . S
C1781 C1777 1.495 . S
C1781 H1787 0.959 . S
C1781 H1788 0.961 . S
C1781 H1789 0.960 . S
C1782 C1780 1.381 . S
C1782 C1783 1.394 . S
C1782 H1790 0.930 . S
C1783 C1782 1.394 . S
C1783 C1784 1.383 . S
C1783 H1791 0.929 . S
C1784 C1783 1.383 . S
C1784 C1785 1.377 . S
C1785 H1769 0.930 . S
C1785 C1784 1.377 . S
C1785 C1786 1.379 . S
C1786 H1770 0.931 . S
C1786 C1780 1.383 . S
C1786 C1785 1.379 . S
H1787 C1781 0.959 . S
H1788 C1781 0.961 . S
H1789 C1781 0.960 . S
H1790 C1782 0.930 . S
H1791 C1783 0.929 . S
H1792 C1800 0.929 . S
H1793 C1802 0.930 . S
H1794 C1804 0.930 . S
H1795 C1807 0.929 . S
H1796 C1810 0.930 . S
H1797 C1812 0.960 . S
H1798 C1812 0.960 . S
H1799 C1812 0.960 . S
C1800 H1792 0.929 . S
C1800 C1801 1.377 . S
C1800 C1802 1.384 . S
C1801 C1800 1.377 . S
C1801 C1807 1.390 . S
C1802 H1793 0.930 . S
C1802 C1800 1.384 . S
C1802 C1803 1.372 . S
C1803 C1802 1.372 . S
C1803 C1804 1.400 . S
C1803 C1808 1.490 . S
C1804 H1794 0.930 . S
C1804 C1803 1.400 . S
C1804 C1807 1.386 . S
H1805 C1821 0.930 . S
H1806 C1822 0.931 . S
C1807 H1795 0.929 . S
C1807 C1801 1.390 . S
C1807 C1804 1.386 . S
C1808 C1803 1.490 . S
C1808 C1810 1.395 . S
C1808 C1811 1.403 . S
H1809 C1815 0.930 . S
C1810 H1796 0.930 . S
C1810 C1808 1.395 . S
C1810 C1813 1.403 . S
C1811 C1808 1.403 . S
C1811 C1812 1.524 . S
C1811 C1815 1.400 . S
C1812 H1797 0.960 . S
C1812 H1798 0.960 . S
C1812 H1799 0.960 . S
C1812 C1811 1.524 . S
C1813 C1810 1.403 . S
C1813 C1814 1.392 . S
C1813 C1817 1.495 . S
C1814 C1813 1.392 . S
C1814 C1815 1.385 . S
C1814 C1816 1.478 . S
C1815 H1809 0.930 . S
C1815 C1811 1.400 . S
C1815 C1814 1.385 . S
C1816 C1814 1.478 . S
C1816 C1818 1.381 . S
C1816 C1822 1.383 . S
C1817 C1813 1.495 . S
C1817 H1823 0.959 . S
C1817 H1824 0.961 . S
C1817 H1825 0.960 . S
C1818 C1816 1.381 . S
C1818 C1819 1.394 . S
C1818 H1826 0.930 . S
C1819 C1818 1.394 . S
C1819 C1820 1.383 . S
C1819 H1827 0.929 . S
C1820 C1819 1.383 . S
C1820 C1821 1.377 . S
C1821 H1805 0.930 . S
C1821 C1820 1.377 . S
C1821 C1822 1.379 . S
C1822 H1806 0.931 . S
C1822 C1816 1.383 . S
C1822 C1821 1.379 . S
H1823 C1817 0.959 . S
H1824 C1817 0.961 . S
H1825 C1817 0.960 . S
H1826 C1818 0.930 . S
H1827 C1819 0.929 . S
H1828 C1836 0.929 . S
H1829 C1838 0.930 . S
H1830 C1840 0.930 . S
H1831 C1843 0.929 . S
H1832 C1846 0.930 . S
H1833 C1848 0.960 . S
H1834 C1848 0.960 . S
H1835 C1848 0.960 . S
C1836 H1828 0.929 . S
C1836 C1837 1.377 . S
C1836 C1838 1.384 . S
C1837 C1836 1.377 . S
C1837 C1843 1.390 . S
C1838 H1829 0.930 . S
C1838 C1836 1.384 . S
C1838 C1839 1.372 . S
C1839 C1838 1.372 . S
C1839 C1840 1.400 . S
C1839 C1844 1.490 . S
C1840 H1830 0.930 . S
C1840 C1839 1.400 . S
C1840 C1843 1.386 . S
H1841 C1857 0.930 . S
H1842 C1858 0.931 . S
C1843 H1831 0.929 . S
C1843 C1837 1.390 . S
C1843 C1840 1.386 . S
C1844 C1839 1.490 . S
C1844 C1846 1.395 . S
C1844 C1847 1.403 . S
H1845 C1851 0.930 1_655 S
C1846 H1832 0.930 . S
C1846 C1844 1.395 . S
C1846 C1849 1.403 . S
C1847 C1844 1.403 . S
C1847 C1848 1.524 . S
C1847 C1851 1.400 . S
C1848 H1833 0.960 . S
C1848 H1834 0.960 . S
C1848 H1835 0.960 . S
C1848 C1847 1.524 . S
C1849 C1846 1.403 . S
C1849 C1850 1.392 . S
C1849 C1853 1.495 . S
C1850 C1849 1.392 . S
C1850 C1851 1.385 . S
C1850 C1852 1.478 1_455 S
C1851 H1845 0.930 1_455 S
C1851 C1847 1.400 . S
C1851 C1850 1.385 . S
C1852 C1850 1.478 1_655 S
C1852 C1854 1.381 . S
C1852 C1858 1.383 . S
C1853 C1849 1.495 . S
C1853 H1859 0.959 . S
C1853 H1860 0.961 . S
C1853 H1861 0.960 . S
C1854 C1852 1.381 . S
C1854 C1855 1.394 . S
C1854 H1862 0.930 . S
C1855 C1854 1.394 . S
C1855 C1856 1.383 . S
C1855 H1863 0.929 . S
C1856 C1855 1.383 . S
C1856 C1857 1.377 . S
C1857 H1841 0.930 . S
C1857 C1856 1.377 . S
C1857 C1858 1.379 . S
C1858 H1842 0.931 . S
C1858 C1852 1.383 . S
C1858 C1857 1.379 . S
H1859 C1853 0.959 . S
H1860 C1853 0.961 . S
H1861 C1853 0.960 . S
H1862 C1854 0.930 . S
H1863 C1855 0.929 . S
H1864 C1872 0.929 . S
H1865 C1874 0.930 . S
H1866 C1876 0.930 . S
H1867 C1879 0.929 . S
H1868 C1882 0.930 . S
H1869 C1884 0.960 . S
H1870 C1884 0.960 . S
H1871 C1884 0.960 . S
C1872 H1864 0.929 . S
C1872 C1873 1.377 . S
C1872 C1874 1.384 . S
C1873 C1872 1.377 . S
C1873 C1879 1.390 . S
C1874 H1865 0.930 . S
C1874 C1872 1.384 . S
C1874 C1875 1.372 . S
C1875 C1874 1.372 . S
C1875 C1876 1.400 . S
C1875 C1880 1.490 . S
C1876 H1866 0.930 . S
C1876 C1875 1.400 . S
C1876 C1879 1.386 . S
H1877 C1893 0.930 . S
H1878 C1894 0.931 . S
C1879 H1867 0.929 . S
C1879 C1873 1.390 . S
C1879 C1876 1.386 . S
C1880 C1875 1.490 . S
C1880 C1882 1.395 . S
C1880 C1883 1.403 . S
H1881 C1887 0.930 . S
C1882 H1868 0.930 . S
C1882 C1880 1.395 . S
C1882 C1885 1.403 . S
C1883 C1880 1.403 . S
C1883 C1884 1.524 . S
C1883 C1887 1.400 . S
C1884 H1869 0.960 . S
C1884 H1870 0.960 . S
C1884 H1871 0.960 . S
C1884 C1883 1.524 . S
C1885 C1882 1.403 . S
C1885 C1886 1.392 . S
C1885 C1889 1.495 . S
C1886 C1885 1.392 . S
C1886 C1887 1.385 . S
C1886 C1888 1.478 . S
C1887 H1881 0.930 . S
C1887 C1883 1.400 . S
C1887 C1886 1.385 . S
C1888 C1886 1.478 . S
C1888 C1890 1.381 . S
C1888 C1894 1.383 . S
C1889 C1885 1.495 . S
C1889 H1895 0.959 . S
C1889 H1896 0.961 . S
C1889 H1897 0.960 . S
C1890 C1888 1.381 . S
C1890 C1891 1.394 . S
C1890 H1898 0.930 . S
C1891 C1890 1.394 . S
C1891 C1892 1.383 . S
C1891 H1899 0.929 . S
C1892 C1891 1.383 . S
C1892 C1893 1.377 . S
C1893 H1877 0.930 . S
C1893 C1892 1.377 . S
C1893 C1894 1.379 . S
C1894 H1878 0.931 . S
C1894 C1888 1.383 . S
C1894 C1893 1.379 . S
H1895 C1889 0.959 . S
H1896 C1889 0.961 . S
H1897 C1889 0.960 . S
H1898 C1890 0.930 . S
H1899 C1891 0.929 . S
H1900 C1908 0.929 . S
H1901 C1910 0.930 . S
H1902 C1912 0.930 . S
H1903 C1915 0.929 . S
H1904 C1918 0.930 . S
H1905 C1920 0.960 . S
H1906 C1920 0.960 . S
H1907 C1920 0.960 . S
C1908 H1900 0.929 . S
C1908 C1909 1.377 . S
C1908 C1910 1.384 . S
C1909 C1908 1.377 . S
C1909 C1915 1.390 . S
C1910 H1901 0.930 . S
C1910 C1908 1.384 . S
C1910 C1911 1.372 . S
C1911 C1910 1.372 . S
C1911 C1912 1.400 . S
C1911 C1916 1.490 . S
C1912 H1902 0.930 . S
C1912 C1911 1.400 . S
C1912 C1915 1.386 . S
H1913 C1929 0.930 . S
H1914 C1930 0.931 . S
C1915 H1903 0.929 . S
C1915 C1909 1.390 . S
C1915 C1912 1.386 . S
C1916 C1911 1.490 . S
C1916 C1918 1.395 . S
C1916 C1919 1.403 . S
H1917 C1923 0.930 . S
C1918 H1904 0.930 . S
C1918 C1916 1.395 . S
C1918 C1921 1.403 . S
C1919 C1916 1.403 . S
C1919 C1920 1.524 . S
C1919 C1923 1.400 . S
C1920 H1905 0.960 . S
C1920 H1906 0.960 . S
C1920 H1907 0.960 . S
C1920 C1919 1.524 . S
C1921 C1918 1.403 . S
C1921 C1922 1.392 . S
C1921 C1925 1.495 . S
C1922 C1921 1.392 . S
C1922 C1923 1.385 . S
C1922 C1924 1.478 . S
C1923 H1917 0.930 . S
C1923 C1919 1.400 . S
C1923 C1922 1.385 . S
C1924 C1922 1.478 . S
C1924 C1926 1.381 . S
C1924 C1930 1.383 . S
C1925 C1921 1.495 . S
C1925 H1931 0.959 . S
C1925 H1932 0.961 . S
C1925 H1933 0.960 . S
C1926 C1924 1.381 . S
C1926 C1927 1.394 . S
C1926 H1934 0.930 . S
C1927 C1926 1.394 . S
C1927 C1928 1.383 . S
C1927 H1935 0.929 . S
C1928 C1927 1.383 . S
C1928 C1929 1.377 . S
C1929 H1913 0.930 . S
C1929 C1928 1.377 . S
C1929 C1930 1.379 . S
C1930 H1914 0.931 . S
C1930 C1924 1.383 . S
C1930 C1929 1.379 . S
H1931 C1925 0.959 . S
H1932 C1925 0.961 . S
H1933 C1925 0.960 . S
H1934 C1926 0.930 . S
H1935 C1927 0.929 . S
H1936 C1944 0.929 . S
H1937 C1946 0.930 . S
H1938 C1948 0.930 . S
H1939 C1951 0.929 . S
H1940 C1954 0.930 . S
H1941 C1956 0.960 . S
H1942 C1956 0.960 . S
H1943 C1956 0.960 . S
C1944 H1936 0.929 . S
C1944 C1945 1.377 . S
C1944 C1946 1.384 . S
C1945 C1944 1.377 . S
C1945 C1951 1.390 . S
C1946 H1937 0.930 . S
C1946 C1944 1.384 . S
C1946 C1947 1.372 . S
C1947 C1946 1.372 . S
C1947 C1948 1.400 . S
C1947 C1952 1.490 . S
C1948 H1938 0.930 . S
C1948 C1947 1.400 . S
C1948 C1951 1.386 . S
H1949 C1965 0.930 . S
H1950 C1966 0.931 . S
C1951 H1939 0.929 . S
C1951 C1945 1.390 . S
C1951 C1948 1.386 . S
C1952 C1947 1.490 . S
C1952 C1954 1.395 . S
C1952 C1955 1.403 . S
H1953 C1959 0.930 . S
C1954 H1940 0.930 . S
C1954 C1952 1.395 . S
C1954 C1957 1.403 . S
C1955 C1952 1.403 . S
C1955 C1956 1.524 . S
C1955 C1959 1.400 . S
C1956 H1941 0.960 . S
C1956 H1942 0.960 . S
C1956 H1943 0.960 . S
C1956 C1955 1.524 . S
C1957 C1954 1.403 . S
C1957 C1958 1.392 . S
C1957 C1961 1.495 . S
C1958 C1957 1.392 . S
C1958 C1959 1.385 . S
C1958 C1960 1.478 . S
C1959 H1953 0.930 . S
C1959 C1955 1.400 . S
C1959 C1958 1.385 . S
C1960 C1958 1.478 . S
C1960 C1962 1.381 . S
C1960 C1966 1.383 . S
C1961 C1957 1.495 . S
C1961 H1967 0.959 . S
C1961 H1968 0.961 . S
C1961 H1969 0.960 . S
C1962 C1960 1.381 . S
C1962 C1963 1.394 . S
C1962 H1970 0.930 . S
C1963 C1962 1.394 . S
C1963 C1964 1.383 . S
C1963 H1971 0.929 . S
C1964 C1963 1.383 . S
C1964 C1965 1.377 . S
C1965 H1949 0.930 . S
C1965 C1964 1.377 . S
C1965 C1966 1.379 . S
C1966 H1950 0.931 . S
C1966 C1960 1.383 . S
C1966 C1965 1.379 . S
H1967 C1961 0.959 . S
H1968 C1961 0.961 . S
H1969 C1961 0.960 . S
H1970 C1962 0.930 . S
H1971 C1963 0.929 . S
H1972 C1980 0.929 . S
H1973 C1982 0.930 . S
H1974 C1984 0.930 . S
H1975 C1987 0.929 . S
H1976 C1990 0.930 . S
H1977 C1992 0.960 . S
H1978 C1992 0.960 . S
H1979 C1992 0.960 . S
C1980 H1972 0.929 . S
C1980 C1981 1.377 . S
C1980 C1982 1.384 . S
C1981 C1980 1.377 . S
C1981 C1987 1.390 . S
C1982 H1973 0.930 . S
C1982 C1980 1.384 . S
C1982 C1983 1.372 . S
C1983 C1982 1.372 . S
C1983 C1984 1.400 . S
C1983 C1988 1.490 . S
C1984 H1974 0.930 . S
C1984 C1983 1.400 . S
C1984 C1987 1.386 . S
H1985 C2001 0.930 . S
H1986 C2002 0.931 . S
C1987 H1975 0.929 . S
C1987 C1981 1.390 . S
C1987 C1984 1.386 . S
C1988 C1983 1.490 . S
C1988 C1990 1.395 . S
C1988 C1991 1.403 . S
H1989 C1995 0.930 . S
C1990 H1976 0.930 . S
C1990 C1988 1.395 . S
C1990 C1993 1.403 . S
C1991 C1988 1.403 . S
C1991 C1992 1.524 . S
C1991 C1995 1.400 . S
C1992 H1977 0.960 . S
C1992 H1978 0.960 . S
C1992 H1979 0.960 . S
C1992 C1991 1.524 . S
C1993 C1990 1.403 . S
C1993 C1994 1.392 . S
C1993 C1997 1.495 . S
C1994 C1993 1.392 . S
C1994 C1995 1.385 . S
C1994 C1996 1.478 . S
C1995 H1989 0.930 . S
C1995 C1991 1.400 . S
C1995 C1994 1.385 . S
C1996 C1994 1.478 . S
C1996 C1998 1.381 . S
C1996 C2002 1.383 . S
C1997 C1993 1.495 . S
C1997 H2003 0.959 . S
C1997 H2004 0.961 . S
C1997 H2005 0.960 . S
C1998 C1996 1.381 . S
C1998 C1999 1.394 . S
C1998 H2006 0.930 . S
C1999 C1998 1.394 . S
C1999 C2000 1.383 . S
C1999 H2007 0.929 . S
C2000 C1999 1.383 . S
C2000 C2001 1.377 . S
C2001 H1985 0.930 . S
C2001 C2000 1.377 . S
C2001 C2002 1.379 . S
C2002 H1986 0.931 . S
C2002 C1996 1.383 . S
C2002 C2001 1.379 . S
H2003 C1997 0.959 . S
H2004 C1997 0.961 . S
H2005 C1997 0.960 . S
H2006 C1998 0.930 . S
H2007 C1999 0.929 . S
H2008 C2016 0.929 . S
H2009 C2018 0.930 . S
H2010 C2020 0.930 . S
H2011 C2023 0.929 . S
H2012 C2026 0.930 . S
H2013 C2028 0.960 . S
H2014 C2028 0.960 . S
H2015 C2028 0.960 . S
C2016 H2008 0.929 . S
C2016 C2017 1.377 . S
C2016 C2018 1.384 . S
C2017 C2016 1.377 . S
C2017 C2023 1.390 . S
C2018 H2009 0.930 . S
C2018 C2016 1.384 . S
C2018 C2019 1.372 . S
C2019 C2018 1.372 . S
C2019 C2020 1.400 . S
C2019 C2024 1.490 . S
C2020 H2010 0.930 . S
C2020 C2019 1.400 . S
C2020 C2023 1.386 . S
H2021 C2037 0.930 . S
H2022 C2038 0.931 . S
C2023 H2011 0.929 . S
C2023 C2017 1.390 . S
C2023 C2020 1.386 . S
C2024 C2019 1.490 . S
C2024 C2026 1.395 . S
C2024 C2027 1.403 . S
H2025 C2031 0.930 . S
C2026 H2012 0.930 . S
C2026 C2024 1.395 . S
C2026 C2029 1.403 . S
C2027 C2024 1.403 . S
C2027 C2028 1.524 . S
C2027 C2031 1.400 . S
C2028 H2013 0.960 . S
C2028 H2014 0.960 . S
C2028 H2015 0.960 . S
C2028 C2027 1.524 . S
C2029 C2026 1.403 . S
C2029 C2030 1.392 . S
C2029 C2033 1.495 . S
C2030 C2029 1.392 . S
C2030 C2031 1.385 . S
C2030 C2032 1.478 . S
C2031 H2025 0.930 . S
C2031 C2027 1.400 . S
C2031 C2030 1.385 . S
C2032 C2030 1.478 . S
C2032 C2034 1.381 . S
C2032 C2038 1.383 . S
C2033 C2029 1.495 . S
C2033 H2039 0.959 . S
C2033 H2040 0.961 . S
C2033 H2041 0.960 . S
C2034 C2032 1.381 . S
C2034 C2035 1.394 . S
C2034 H2042 0.930 . S
C2035 C2034 1.394 . S
C2035 C2036 1.383 . S
C2035 H2043 0.929 . S
C2036 C2035 1.383 . S
C2036 C2037 1.377 . S
C2037 H2021 0.930 . S
C2037 C2036 1.377 . S
C2037 C2038 1.379 . S
C2038 H2022 0.931 . S
C2038 C2032 1.383 . S
C2038 C2037 1.379 . S
H2039 C2033 0.959 . S
H2040 C2033 0.961 . S
H2041 C2033 0.960 . S
H2042 C2034 0.930 . S
H2043 C2035 0.929 . S
H2044 C2052 0.929 . S
H2045 C2054 0.930 . S
H2046 C2056 0.930 . S
H2047 C2059 0.929 . S
H2048 C2062 0.930 . S
H2049 C2064 0.960 . S
H2050 C2064 0.960 . S
H2051 C2064 0.960 . S
C2052 H2044 0.929 . S
C2052 C2053 1.377 . S
C2052 C2054 1.384 . S
C2053 C2052 1.377 . S
C2053 C2059 1.390 . S
C2054 H2045 0.930 . S
C2054 C2052 1.384 . S
C2054 C2055 1.372 . S
C2055 C2054 1.372 . S
C2055 C2056 1.400 . S
C2055 C2060 1.490 . S
C2056 H2046 0.930 . S
C2056 C2055 1.400 . S
C2056 C2059 1.386 . S
H2057 C2073 0.930 . S
H2058 C2074 0.931 . S
C2059 H2047 0.929 . S
C2059 C2053 1.390 . S
C2059 C2056 1.386 . S
C2060 C2055 1.490 . S
C2060 C2062 1.395 . S
C2060 C2063 1.403 . S
H2061 C2067 0.925 1_655 S
C2062 H2048 0.930 . S
C2062 C2060 1.395 . S
C2062 C2065 1.403 . S
C2063 C2060 1.403 . S
C2063 C2064 1.524 . S
C2063 C2067 1.400 . S
C2064 H2049 0.960 . S
C2064 H2050 0.960 . S
C2064 H2051 0.960 . S
C2064 C2063 1.524 . S
C2065 C2062 1.403 . S
C2065 C2066 1.392 . S
C2065 C2069 1.495 . S
C2066 C2065 1.392 . S
C2066 C2067 1.385 . S
C2066 C2068 1.478 1_455 S
C2067 H2061 0.925 1_455 S
C2067 C2063 1.400 . S
C2067 C2066 1.385 . S
C2068 C2066 1.478 1_655 S
C2068 C2070 1.381 . S
C2068 C2074 1.383 . S
C2069 C2065 1.495 . S
C2069 H2075 0.959 . S
C2069 H2076 0.961 . S
C2069 H2077 0.960 . S
C2070 C2068 1.381 . S
C2070 C2071 1.394 . S
C2070 H2078 0.930 . S
C2071 C2070 1.394 . S
C2071 C2072 1.383 . S
C2071 H2079 0.929 . S
C2072 C2071 1.383 . S
C2072 C2073 1.377 . S
C2073 H2057 0.930 . S
C2073 C2072 1.377 . S
C2073 C2074 1.379 . S
C2074 H2058 0.931 . S
C2074 C2068 1.383 . S
C2074 C2073 1.379 . S
H2075 C2069 0.959 . S
H2076 C2069 0.961 . S
H2077 C2069 0.960 . S
H2078 C2070 0.930 . S
H2079 C2071 0.929 . S
H2080 C2088 0.929 . S
H2081 C2090 0.930 . S
H2082 C2092 0.930 . S
H2083 C2095 0.929 . S
H2084 C2098 0.930 . S
H2085 C2100 0.960 . S
H2086 C2100 0.960 . S
H2087 C2100 0.960 . S
C2088 H2080 0.929 . S
C2088 C2089 1.377 . S
C2088 C2090 1.384 . S
C2089 C2088 1.377 . S
C2089 C2095 1.390 . S
C2090 H2081 0.930 . S
C2090 C2088 1.384 . S
C2090 C2091 1.372 . S
C2091 C2090 1.372 . S
C2091 C2092 1.400 . S
C2091 C2096 1.490 . S
C2092 H2082 0.930 . S
C2092 C2091 1.400 . S
C2092 C2095 1.386 . S
H2093 C2109 0.930 . S
H2094 C2110 0.931 . S
C2095 H2083 0.929 . S
C2095 C2089 1.390 . S
C2095 C2092 1.386 . S
C2096 C2091 1.490 . S
C2096 C2098 1.395 . S
C2096 C2099 1.403 . S
H2097 C2103 0.930 . S
C2098 H2084 0.930 . S
C2098 C2096 1.395 . S
C2098 C2101 1.403 . S
C2099 C2096 1.403 . S
C2099 C2100 1.524 . S
C2099 C2103 1.400 . S
C2100 H2085 0.960 . S
C2100 H2086 0.960 . S
C2100 H2087 0.960 . S
C2100 C2099 1.524 . S
C2101 C2098 1.403 . S
C2101 C2102 1.392 . S
C2101 C2105 1.495 . S
C2102 C2101 1.392 . S
C2102 C2103 1.385 . S
C2102 C2104 1.478 . S
C2103 H2097 0.930 . S
C2103 C2099 1.400 . S
C2103 C2102 1.385 . S
C2104 C2102 1.478 . S
C2104 C2106 1.381 . S
C2104 C2110 1.383 . S
C2105 C2101 1.495 . S
C2105 H2111 0.959 . S
C2105 H2112 0.961 . S
C2105 H2113 0.960 . S
C2106 C2104 1.381 . S
C2106 C2107 1.394 . S
C2106 H2114 0.930 . S
C2107 C2106 1.394 . S
C2107 C2108 1.383 . S
C2107 H2115 0.929 . S
C2108 C2107 1.383 . S
C2108 C2109 1.377 . S
C2109 H2093 0.930 . S
C2109 C2108 1.377 . S
C2109 C2110 1.379 . S
C2110 H2094 0.931 . S
C2110 C2104 1.383 . S
C2110 C2109 1.379 . S
H2111 C2105 0.959 . S
H2112 C2105 0.961 . S
H2113 C2105 0.960 . S
H2114 C2106 0.930 . S
H2115 C2107 0.929 . S
H2116 C2124 0.929 . S
H2117 C2126 0.930 . S
H2118 C2128 0.930 . S
H2119 C2131 0.929 . S
H2120 C2134 0.930 . S
H2121 C2136 0.960 . S
H2122 C2136 0.960 1_455 S
H2123 C2136 0.960 . S
C2124 H2116 0.929 . S
C2124 C2125 1.377 . S
C2124 C2126 1.384 . S
C2125 C2124 1.377 . S
C2125 C2131 1.390 . S
C2126 H2117 0.930 . S
C2126 C2124 1.384 . S
C2126 C2127 1.372 . S
C2127 C2126 1.372 . S
C2127 C2128 1.400 . S
C2127 C2132 1.490 1_455 S
C2128 H2118 0.930 . S
C2128 C2127 1.400 . S
C2128 C2131 1.386 . S
H2129 C2145 0.930 . S
H2130 C2146 0.931 . S
C2131 H2119 0.929 . S
C2131 C2125 1.390 . S
C2131 C2128 1.386 . S
C2132 C2127 1.490 1_655 S
C2132 C2134 1.395 . S
C2132 C2135 1.403 . S
H2133 C2139 0.930 . S
C2134 H2120 0.930 . S
C2134 C2132 1.395 . S
C2134 C2137 1.403 . S
C2135 C2132 1.403 . S
C2135 C2136 1.524 . S
C2135 C2139 1.400 . S
C2136 H2121 0.960 . S
C2136 H2122 0.960 1_655 S
C2136 H2123 0.960 . S
C2136 C2135 1.524 . S
C2137 C2134 1.403 . S
C2137 C2138 1.392 . S
C2137 C2141 1.495 . S
C2138 C2137 1.392 . S
C2138 C2139 1.385 . S
C2138 C2140 1.478 . S
C2139 H2133 0.930 . S
C2139 C2135 1.400 . S
C2139 C2138 1.385 . S
C2140 C2138 1.478 . S
C2140 C2142 1.381 . S
C2140 C2146 1.383 . S
C2141 C2137 1.495 . S
C2141 H2147 0.959 . S
C2141 H2148 0.961 . S
C2141 H2149 0.960 . S
C2142 C2140 1.381 . S
C2142 C2143 1.394 . S
C2142 H2150 0.930 . S
C2143 C2142 1.394 . S
C2143 C2144 1.383 . S
C2143 H2151 0.929 . S
C2144 C2143 1.383 . S
C2144 C2145 1.377 . S
C2145 H2129 0.930 . S
C2145 C2144 1.377 . S
C2145 C2146 1.379 . S
C2146 H2130 0.931 . S
C2146 C2140 1.383 . S
C2146 C2145 1.379 . S
H2147 C2141 0.959 . S
H2148 C2141 0.961 . S
H2149 C2141 0.960 . S
H2150 C2142 0.930 . S
H2151 C2143 0.929 . S
H2152 C2160 0.929 . S
H2153 C2162 0.930 . S
H2154 C2164 0.930 . S
H2155 C2167 0.929 . S
H2156 C2170 0.930 . S
H2157 C2172 0.960 . S
H2158 C2172 0.960 . S
H2159 C2172 0.960 . S
C2160 H2152 0.929 . S
C2160 C2161 1.377 . S
C2160 C2162 1.384 . S
C2161 C2160 1.377 . S
C2161 C2167 1.390 . S
C2162 H2153 0.930 . S
C2162 C2160 1.384 . S
C2162 C2163 1.372 . S
C2163 C2162 1.372 . S
C2163 C2164 1.400 . S
C2163 C2168 1.490 . S
C2164 H2154 0.930 . S
C2164 C2163 1.400 . S
C2164 C2167 1.386 . S
H2165 C2181 0.930 . S
H2166 C2182 0.931 . S
C2167 H2155 0.929 . S
C2167 C2161 1.390 . S
C2167 C2164 1.386 . S
C2168 C2163 1.490 . S
C2168 C2170 1.395 . S
C2168 C2171 1.403 . S
H2169 C2175 0.930 . S
C2170 H2156 0.930 . S
C2170 C2168 1.395 . S
C2170 C2173 1.403 . S
C2171 C2168 1.403 . S
C2171 C2172 1.524 . S
C2171 C2175 1.400 . S
C2172 H2157 0.960 . S
C2172 H2158 0.960 . S
C2172 H2159 0.960 . S
C2172 C2171 1.524 . S
C2173 C2170 1.403 . S
C2173 C2174 1.392 . S
C2173 C2177 1.495 . S
C2174 C2173 1.392 . S
C2174 C2175 1.385 . S
C2174 C2176 1.478 . S
C2175 H2169 0.930 . S
C2175 C2171 1.400 . S
C2175 C2174 1.385 . S
C2176 C2174 1.478 . S
C2176 C2178 1.381 . S
C2176 C2182 1.383 . S
C2177 C2173 1.495 . S
C2177 H2183 0.959 . S
C2177 H2184 0.961 . S
C2177 H2185 0.960 . S
C2178 C2176 1.381 . S
C2178 C2179 1.394 . S
C2178 H2186 0.930 . S
C2179 C2178 1.394 . S
C2179 C2180 1.383 . S
C2179 H2187 0.929 . S
C2180 C2179 1.383 . S
C2180 C2181 1.377 . S
C2181 H2165 0.930 . S
C2181 C2180 1.377 . S
C2181 C2182 1.379 . S
C2182 H2166 0.931 . S
C2182 C2176 1.383 . S
C2182 C2181 1.379 . S
H2183 C2177 0.959 . S
H2184 C2177 0.961 . S
H2185 C2177 0.960 . S
H2186 C2178 0.930 . S
H2187 C2179 0.929 . S
H2188 C2196 0.929 . S
H2189 C2198 0.930 . S
H2190 C2200 0.930 . S
H2191 C2203 0.929 . S
H2192 C2206 0.930 . S
H2193 C2208 0.960 . S
H2194 C2208 0.960 . S
H2195 C2208 0.960 . S
C2196 H2188 0.929 . S
C2196 C2197 1.377 . S
C2196 C2198 1.384 . S
C2197 C2196 1.377 . S
C2197 C2203 1.390 . S
C2198 H2189 0.930 . S
C2198 C2196 1.384 . S
C2198 C2199 1.372 . S
C2199 C2198 1.372 . S
C2199 C2200 1.400 . S
C2199 C2204 1.490 . S
C2200 H2190 0.930 . S
C2200 C2199 1.400 . S
C2200 C2203 1.386 . S
H2201 C2217 0.930 . S
H2202 C2218 0.931 . S
C2203 H2191 0.929 . S
C2203 C2197 1.390 . S
C2203 C2200 1.386 . S
C2204 C2199 1.490 . S
C2204 C2206 1.395 . S
C2204 C2207 1.403 . S
H2205 C2211 0.930 . S
C2206 H2192 0.930 . S
C2206 C2204 1.395 . S
C2206 C2209 1.403 . S
C2207 C2204 1.403 . S
C2207 C2208 1.524 . S
C2207 C2211 1.400 . S
C2208 H2193 0.960 . S
C2208 H2194 0.960 . S
C2208 H2195 0.960 . S
C2208 C2207 1.524 . S
C2209 C2206 1.403 . S
C2209 C2210 1.392 . S
C2209 C2213 1.495 . S
C2210 C2209 1.392 . S
C2210 C2211 1.385 . S
C2210 C2212 1.478 . S
C2211 H2205 0.930 . S
C2211 C2207 1.400 . S
C2211 C2210 1.385 . S
C2212 C2210 1.478 . S
C2212 C2214 1.381 . S
C2212 C2218 1.383 . S
C2213 C2209 1.495 . S
C2213 H2219 0.959 . S
C2213 H2220 0.961 . S
C2213 H2221 0.960 . S
C2214 C2212 1.381 . S
C2214 C2215 1.394 . S
C2214 H2222 0.930 . S
C2215 C2214 1.394 . S
C2215 C2216 1.383 . S
C2215 H2223 0.929 . S
C2216 C2215 1.383 . S
C2216 C2217 1.377 . S
C2217 H2201 0.930 . S
C2217 C2216 1.377 . S
C2217 C2218 1.379 . S
C2218 H2202 0.931 . S
C2218 C2212 1.383 . S
C2218 C2217 1.379 . S
H2219 C2213 0.959 . S
H2220 C2213 0.961 . S
H2221 C2213 0.960 . S
H2222 C2214 0.930 . S
H2223 C2215 0.929 . S
H2224 C2232 0.929 . S
H2225 C2234 0.930 . S
H2226 C2236 0.930 . S
H2227 C2239 0.929 . S
H2228 C2242 0.930 . S
H2229 C2244 0.960 . S
H2230 C2244 0.960 . S
H2231 C2244 0.960 . S
C2232 H2224 0.929 . S
C2232 C2233 1.377 . S
C2232 C2234 1.384 . S
C2233 C2232 1.377 . S
C2233 C2239 1.390 . S
C2234 H2225 0.930 . S
C2234 C2232 1.384 . S
C2234 C2235 1.372 . S
C2235 C2234 1.372 . S
C2235 C2236 1.400 . S
C2235 C2240 1.490 . S
C2236 H2226 0.930 . S
C2236 C2235 1.400 . S
C2236 C2239 1.386 . S
H2237 C2253 0.930 . S
H2238 C2254 0.931 . S
C2239 H2227 0.929 . S
C2239 C2233 1.390 . S
C2239 C2236 1.386 . S
C2240 C2235 1.490 . S
C2240 C2242 1.395 . S
C2240 C2243 1.403 . S
H2241 C2247 0.930 . S
C2242 H2228 0.930 . S
C2242 C2240 1.395 . S
C2242 C2245 1.403 . S
C2243 C2240 1.403 . S
C2243 C2244 1.524 . S
C2243 C2247 1.400 . S
C2244 H2229 0.960 . S
C2244 H2230 0.960 . S
C2244 H2231 0.960 . S
C2244 C2243 1.524 . S
C2245 C2242 1.403 . S
C2245 C2246 1.392 . S
C2245 C2249 1.495 . S
C2246 C2245 1.392 . S
C2246 C2247 1.385 . S
C2246 C2248 1.478 . S
C2247 H2241 0.930 . S
C2247 C2243 1.400 . S
C2247 C2246 1.385 . S
C2248 C2246 1.478 . S
C2248 C2250 1.381 . S
C2248 C2254 1.383 . S
C2249 C2245 1.495 . S
C2249 H2255 0.959 . S
C2249 H2256 0.961 . S
C2249 H2257 0.960 . S
C2250 C2248 1.381 . S
C2250 C2251 1.394 . S
C2250 H2258 0.930 . S
C2251 C2250 1.394 . S
C2251 C2252 1.383 . S
C2251 H2259 0.929 . S
C2252 C2251 1.383 . S
C2252 C2253 1.377 . S
C2253 H2237 0.930 . S
C2253 C2252 1.377 . S
C2253 C2254 1.379 . S
C2254 H2238 0.931 . S
C2254 C2248 1.383 . S
C2254 C2253 1.379 . S
H2255 C2249 0.959 . S
H2256 C2249 0.961 . S
H2257 C2249 0.960 . S
H2258 C2250 0.930 . S
H2259 C2251 0.929 . S
H2260 C2268 0.929 . S
H2261 C2270 0.930 . S
H2262 C2272 0.930 . S
H2263 C2275 0.929 . S
H2264 C2278 0.930 . S
H2265 C2280 0.960 . S
H2266 C2280 0.960 . S
H2267 C2280 0.960 . S
C2268 H2260 0.929 . S
C2268 C2269 1.377 . S
C2268 C2270 1.384 . S
C2269 C2268 1.377 . S
C2269 C2275 1.390 . S
C2270 H2261 0.930 . S
C2270 C2268 1.384 . S
C2270 C2271 1.372 . S
C2271 C2270 1.372 . S
C2271 C2272 1.400 . S
C2271 C2276 1.490 . S
C2272 H2262 0.930 . S
C2272 C2271 1.400 . S
C2272 C2275 1.386 . S
H2273 C2289 0.930 . S
H2274 C2290 0.931 . S
C2275 H2263 0.929 . S
C2275 C2269 1.390 . S
C2275 C2272 1.386 . S
C2276 C2271 1.490 . S
C2276 C2278 1.395 . S
C2276 C2279 1.403 . S
H2277 C2283 0.930 . S
C2278 H2264 0.930 . S
C2278 C2276 1.395 . S
C2278 C2281 1.403 . S
C2279 C2276 1.403 . S
C2279 C2280 1.524 . S
C2279 C2283 1.400 . S
C2280 H2265 0.960 . S
C2280 H2266 0.960 . S
C2280 H2267 0.960 . S
C2280 C2279 1.524 . S
C2281 C2278 1.403 . S
C2281 C2282 1.392 . S
C2281 C2285 1.495 . S
C2282 C2281 1.392 . S
C2282 C2283 1.385 . S
C2282 C2284 1.478 . S
C2283 H2277 0.930 . S
C2283 C2279 1.400 . S
C2283 C2282 1.385 . S
C2284 C2282 1.478 . S
C2284 C2286 1.381 . S
C2284 C2290 1.383 . S
C2285 C2281 1.495 . S
C2285 H2291 0.959 . S
C2285 H2292 0.961 . S
C2285 H2293 0.960 . S
C2286 C2284 1.381 . S
C2286 C2287 1.394 . S
C2286 H2294 0.930 . S
C2287 C2286 1.394 . S
C2287 C2288 1.383 . S
C2287 H2295 0.929 . S
C2288 C2287 1.383 . S
C2288 C2289 1.377 . S
C2289 H2273 0.930 . S
C2289 C2288 1.377 . S
C2289 C2290 1.379 . S
C2290 H2274 0.931 . S
C2290 C2284 1.383 . S
C2290 C2289 1.379 . S
H2291 C2285 0.959 . S
H2292 C2285 0.961 . S
H2293 C2285 0.960 . S
H2294 C2286 0.930 . S
H2295 C2287 0.929 . S
H2296 C2304 0.929 . S
H2297 C2306 0.930 . S
H2298 C2308 0.930 . S
H2299 C2311 0.929 . S
H2300 C2314 0.930 . S
H2301 C2316 0.960 . S
H2302 C2316 0.960 . S
H2303 C2316 0.960 . S
C2304 H2296 0.929 . S
C2304 C2305 1.377 . S
C2304 C2306 1.384 . S
C2305 C2304 1.377 . S
C2305 C2311 1.390 . S
C2306 H2297 0.930 . S
C2306 C2304 1.384 . S
C2306 C2307 1.372 . S
C2307 C2306 1.372 . S
C2307 C2308 1.400 . S
C2307 C2312 1.490 . S
C2308 H2298 0.930 . S
C2308 C2307 1.400 . S
C2308 C2311 1.386 . S
H2309 C2325 0.930 . S
H2310 C2326 0.931 . S
C2311 H2299 0.929 . S
C2311 C2305 1.390 . S
C2311 C2308 1.386 . S
C2312 C2307 1.490 . S
C2312 C2314 1.395 . S
C2312 C2315 1.403 . S
H2313 C2319 0.930 . S
C2314 H2300 0.930 . S
C2314 C2312 1.395 . S
C2314 C2317 1.403 . S
C2315 C2312 1.403 . S
C2315 C2316 1.524 . S
C2315 C2319 1.400 . S
C2316 H2301 0.960 . S
C2316 H2302 0.960 . S
C2316 H2303 0.960 . S
C2316 C2315 1.524 . S
C2317 C2314 1.403 . S
C2317 C2318 1.392 . S
C2317 C2321 1.495 . S
C2318 C2317 1.392 . S
C2318 C2319 1.385 . S
C2318 C2320 1.478 . S
C2319 H2313 0.930 . S
C2319 C2315 1.400 . S
C2319 C2318 1.385 . S
C2320 C2318 1.478 . S
C2320 C2322 1.381 . S
C2320 C2326 1.383 . S
C2321 C2317 1.495 . S
C2321 H2327 0.959 . S
C2321 H2328 0.961 . S
C2321 H2329 0.960 . S
C2322 C2320 1.381 . S
C2322 C2323 1.394 . S
C2322 H2330 0.930 . S
C2323 C2322 1.394 . S
C2323 C2324 1.383 . S
C2323 H2331 0.929 . S
C2324 C2323 1.383 . S
C2324 C2325 1.377 . S
C2325 H2309 0.930 . S
C2325 C2324 1.377 . S
C2325 C2326 1.379 . S
C2326 H2310 0.931 . S
C2326 C2320 1.383 . S
C2326 C2325 1.379 . S
H2327 C2321 0.959 . S
H2328 C2321 0.961 . S
H2329 C2321 0.960 . S
H2330 C2322 0.930 . S
H2331 C2323 0.929 . S
H2332 C2340 0.929 . S
H2333 C2342 0.930 . S
H2334 C2344 0.930 . S
H2335 C2347 0.929 . S
H2336 C2350 0.930 . S
H2337 C2352 0.960 . S
H2338 C2352 0.960 . S
H2339 C2352 0.960 . S
C2340 H2332 0.929 . S
C2340 C2341 1.377 . S
C2340 C2342 1.384 . S
C2341 C2340 1.377 . S
C2341 C2347 1.390 . S
C2342 H2333 0.930 . S
C2342 C2340 1.384 . S
C2342 C2343 1.372 . S
C2343 C2342 1.372 . S
C2343 C2344 1.400 . S
C2343 C2348 1.490 . S
C2344 H2334 0.930 . S
C2344 C2343 1.400 . S
C2344 C2347 1.386 . S
H2345 C2361 0.930 . S
H2346 C2362 0.931 . S
C2347 H2335 0.929 . S
C2347 C2341 1.390 . S
C2347 C2344 1.386 . S
C2348 C2343 1.490 . S
C2348 C2350 1.395 . S
C2348 C2351 1.403 . S
H2349 C2355 0.954 . S
C2350 H2336 0.930 . S
C2350 C2348 1.395 . S
C2350 C2353 1.403 . S
C2351 C2348 1.403 . S
C2351 C2352 1.524 . S
C2351 C2355 1.400 . S
C2352 H2337 0.960 . S
C2352 H2338 0.960 . S
C2352 H2339 0.960 . S
C2352 C2351 1.524 . S
C2353 C2350 1.403 . S
C2353 C2354 1.392 . S
C2353 C2357 1.495 . S
C2354 C2353 1.392 . S
C2354 C2355 1.385 . S
C2354 C2356 1.478 1_655 S
C2355 H2349 0.954 . S
C2355 C2351 1.400 . S
C2355 C2354 1.385 . S
C2356 C2354 1.478 1_455 S
C2356 C2358 1.381 . S
C2356 C2362 1.383 . S
C2357 C2353 1.495 . S
C2357 H2363 0.959 . S
C2357 H2364 0.961 . S
C2357 H2365 0.960 . S
C2358 C2356 1.381 . S
C2358 C2359 1.394 . S
C2358 H2366 0.930 . S
C2359 C2358 1.394 . S
C2359 C2360 1.383 . S
C2359 H2367 0.929 . S
C2360 C2359 1.383 . S
C2360 C2361 1.377 . S
C2361 H2345 0.930 . S
C2361 C2360 1.377 . S
C2361 C2362 1.379 . S
C2362 H2346 0.931 . S
C2362 C2356 1.383 . S
C2362 C2361 1.379 . S
H2363 C2357 0.959 . S
H2364 C2357 0.961 . S
H2365 C2357 0.960 . S
H2366 C2358 0.930 . S
H2367 C2359 0.929 . S
H2368 C2376 0.929 . S
H2369 C2378 0.930 . S
H2370 C2380 0.930 . S
H2371 C2383 0.929 . S
H2372 C2386 0.930 . S
H2373 C2388 0.960 . S
H2374 C2388 0.960 . S
H2375 C2388 0.960 . S
C2376 H2368 0.929 . S
C2376 C2377 1.377 . S
C2376 C2378 1.384 . S
C2377 C2376 1.377 . S
C2377 C2383 1.390 . S
C2378 H2369 0.930 . S
C2378 C2376 1.384 . S
C2378 C2379 1.372 . S
C2379 C2378 1.372 . S
C2379 C2380 1.400 . S
C2379 C2384 1.490 . S
C2380 H2370 0.930 . S
C2380 C2379 1.400 . S
C2380 C2383 1.386 . S
H2381 C2397 0.930 . S
H2382 C2398 0.931 . S
C2383 H2371 0.929 . S
C2383 C2377 1.390 . S
C2383 C2380 1.386 . S
C2384 C2379 1.490 . S
C2384 C2386 1.395 . S
C2384 C2387 1.403 . S
H2385 C2391 0.930 . S
C2386 H2372 0.930 . S
C2386 C2384 1.395 . S
C2386 C2389 1.403 . S
C2387 C2384 1.403 . S
C2387 C2388 1.524 . S
C2387 C2391 1.400 . S
C2388 H2373 0.960 . S
C2388 H2374 0.960 . S
C2388 H2375 0.960 . S
C2388 C2387 1.524 . S
C2389 C2386 1.403 . S
C2389 C2390 1.392 . S
C2389 C2393 1.495 . S
C2390 C2389 1.392 . S
C2390 C2391 1.385 . S
C2390 C2392 1.478 . S
C2391 H2385 0.930 . S
C2391 C2387 1.400 . S
C2391 C2390 1.385 . S
C2392 C2390 1.478 . S
C2392 C2394 1.381 . S
C2392 C2398 1.383 . S
C2393 C2389 1.495 . S
C2393 H2399 0.959 . S
C2393 H2400 0.961 . S
C2393 H2401 0.960 . S
C2394 C2392 1.381 . S
C2394 C2395 1.394 . S
C2394 H2402 0.930 . S
C2395 C2394 1.394 . S
C2395 C2396 1.383 . S
C2395 H2403 0.929 . S
C2396 C2395 1.383 . S
C2396 C2397 1.377 . S
C2397 H2381 0.930 . S
C2397 C2396 1.377 . S
C2397 C2398 1.379 . S
C2398 H2382 0.931 . S
C2398 C2392 1.383 . S
C2398 C2397 1.379 . S
H2399 C2393 0.959 . S
H2400 C2393 0.961 . S
H2401 C2393 0.960 . S
H2402 C2394 0.930 . S
H2403 C2395 0.929 . S
H2404 C2412 0.929 . S
H2405 C2414 0.930 . S
H2406 C2416 0.930 . S
H2407 C2419 0.929 . S
H2408 C2422 0.930 . S
H2409 C2424 0.960 . S
H2410 C2424 0.960 . S
H2411 C2424 0.960 . S
C2412 H2404 0.929 . S
C2412 C2413 1.377 . S
C2412 C2414 1.384 . S
C2413 C2412 1.377 . S
C2413 C2419 1.390 . S
C2414 H2405 0.930 . S
C2414 C2412 1.384 . S
C2414 C2415 1.372 . S
C2415 C2414 1.372 . S
C2415 C2416 1.400 . S
C2415 C2420 1.490 . S
C2416 H2406 0.930 . S
C2416 C2415 1.400 . S
C2416 C2419 1.386 . S
H2417 C2433 0.930 . S
H2418 C2434 0.931 . S
C2419 H2407 0.929 . S
C2419 C2413 1.390 . S
C2419 C2416 1.386 . S
C2420 C2415 1.490 . S
C2420 C2422 1.395 . S
C2420 C2423 1.403 . S
H2421 C2427 0.930 . S
C2422 H2408 0.930 . S
C2422 C2420 1.395 . S
C2422 C2425 1.403 . S
C2423 C2420 1.403 . S
C2423 C2424 1.524 . S
C2423 C2427 1.400 . S
C2424 H2409 0.960 . S
C2424 H2410 0.960 . S
C2424 H2411 0.960 . S
C2424 C2423 1.524 . S
C2425 C2422 1.403 . S
C2425 C2426 1.392 . S
C2425 C2429 1.495 . S
C2426 C2425 1.392 . S
C2426 C2427 1.385 . S
C2426 C2428 1.478 . S
C2427 H2421 0.930 . S
C2427 C2423 1.400 . S
C2427 C2426 1.385 . S
C2428 C2426 1.478 . S
C2428 C2430 1.381 . S
C2428 C2434 1.383 . S
C2429 C2425 1.495 . S
C2429 H2435 0.959 . S
C2429 H2436 0.961 . S
C2429 H2437 0.960 . S
C2430 C2428 1.381 . S
C2430 C2431 1.394 . S
C2430 H2438 0.930 . S
C2431 C2430 1.394 . S
C2431 C2432 1.383 . S
C2431 H2439 0.929 . S
C2432 C2431 1.383 . S
C2432 C2433 1.377 . S
C2433 H2417 0.930 . S
C2433 C2432 1.377 . S
C2433 C2434 1.379 . S
C2434 H2418 0.931 . S
C2434 C2428 1.383 . S
C2434 C2433 1.379 . S
H2435 C2429 0.959 . S
H2436 C2429 0.961 . S
H2437 C2429 0.960 . S
H2438 C2430 0.930 . S
H2439 C2431 0.929 . S
H2440 C2448 0.929 . S
H2441 C2450 0.930 . S
H2442 C2452 0.930 . S
H2443 C2455 0.929 . S
H2444 C2458 0.930 . S
H2445 C2460 0.960 . S
H2446 C2460 0.960 . S
H2447 C2460 0.960 . S
C2448 H2440 0.929 . S
C2448 C2449 1.377 . S
C2448 C2450 1.384 . S
C2449 C2448 1.377 . S
C2449 C2455 1.390 . S
C2450 H2441 0.930 . S
C2450 C2448 1.384 . S
C2450 C2451 1.372 . S
C2451 C2450 1.372 . S
C2451 C2452 1.400 . S
C2451 C2456 1.490 . S
C2452 H2442 0.930 . S
C2452 C2451 1.400 . S
C2452 C2455 1.386 . S
H2453 C2469 0.930 . S
H2454 C2470 0.931 . S
C2455 H2443 0.929 . S
C2455 C2449 1.390 . S
C2455 C2452 1.386 . S
C2456 C2451 1.490 . S
C2456 C2458 1.395 . S
C2456 C2459 1.403 . S
H2457 C2463 0.930 . S
C2458 H2444 0.930 . S
C2458 C2456 1.395 . S
C2458 C2461 1.403 . S
C2459 C2456 1.403 . S
C2459 C2460 1.524 . S
C2459 C2463 1.400 . S
C2460 H2445 0.960 . S
C2460 H2446 0.960 . S
C2460 H2447 0.960 . S
C2460 C2459 1.524 . S
C2461 C2458 1.403 . S
C2461 C2462 1.392 . S
C2461 C2465 1.495 . S
C2462 C2461 1.392 . S
C2462 C2463 1.385 . S
C2462 C2464 1.478 . S
C2463 H2457 0.930 . S
C2463 C2459 1.400 . S
C2463 C2462 1.385 . S
C2464 C2462 1.478 . S
C2464 C2466 1.381 . S
C2464 C2470 1.383 . S
C2465 C2461 1.495 . S
C2465 H2471 0.959 . S
C2465 H2472 0.961 . S
C2465 H2473 0.960 . S
C2466 C2464 1.381 . S
C2466 C2467 1.394 . S
C2466 H2474 0.930 . S
C2467 C2466 1.394 . S
C2467 C2468 1.383 . S
C2467 H2475 0.929 . S
C2468 C2467 1.383 . S
C2468 C2469 1.377 . S
C2469 H2453 0.930 . S
C2469 C2468 1.377 . S
C2469 C2470 1.379 . S
C2470 H2454 0.931 . S
C2470 C2464 1.383 . S
C2470 C2469 1.379 . S
H2471 C2465 0.959 . S
H2472 C2465 0.961 . S
H2473 C2465 0.960 . S
H2474 C2466 0.930 . S
H2475 C2467 0.929 . S
H2476 C2484 0.929 . S
H2477 C2486 0.930 . S
H2478 C2488 0.930 . S
H2479 C2491 0.929 . S
H2480 C2494 0.930 . S
H2481 C2496 0.960 . S
H2482 C2496 0.960 . S
H2483 C2496 0.960 . S
C2484 H2476 0.929 . S
C2484 C2485 1.377 . S
C2484 C2486 1.384 . S
C2485 C2484 1.377 . S
C2485 C2491 1.390 . S
C2486 H2477 0.930 . S
C2486 C2484 1.384 . S
C2486 C2487 1.372 . S
C2487 C2486 1.372 . S
C2487 C2488 1.400 . S
C2487 C2492 1.490 . S
C2488 H2478 0.930 . S
C2488 C2487 1.400 . S
C2488 C2491 1.386 . S
H2489 C2505 0.930 . S
H2490 C2506 0.931 . S
C2491 H2479 0.929 . S
C2491 C2485 1.390 . S
C2491 C2488 1.386 . S
C2492 C2487 1.490 . S
C2492 C2494 1.395 . S
C2492 C2495 1.403 . S
H2493 C2499 0.930 . S
C2494 H2480 0.930 . S
C2494 C2492 1.395 . S
C2494 C2497 1.403 . S
C2495 C2492 1.403 . S
C2495 C2496 1.524 . S
C2495 C2499 1.400 . S
C2496 H2481 0.960 . S
C2496 H2482 0.960 . S
C2496 H2483 0.960 . S
C2496 C2495 1.524 . S
C2497 C2494 1.403 . S
C2497 C2498 1.392 . S
C2497 C2501 1.495 1_655 S
C2498 C2497 1.392 . S
C2498 C2499 1.385 . S
C2498 C2500 1.478 1_655 S
C2499 H2493 0.930 . S
C2499 C2495 1.400 . S
C2499 C2498 1.385 . S
C2500 C2498 1.478 1_455 S
C2500 C2502 1.381 . S
C2500 C2506 1.383 . S
C2501 C2497 1.495 1_455 S
C2501 H2507 0.959 . S
C2501 H2508 0.961 . S
C2501 H2509 0.960 . S
C2502 C2500 1.381 . S
C2502 C2503 1.394 . S
C2502 H2510 0.930 . S
C2503 C2502 1.394 . S
C2503 C2504 1.383 . S
C2503 H2511 0.929 . S
C2504 C2503 1.383 . S
C2504 C2505 1.377 . S
C2505 H2489 0.930 . S
C2505 C2504 1.377 . S
C2505 C2506 1.379 . S
C2506 H2490 0.931 . S
C2506 C2500 1.383 . S
C2506 C2505 1.379 . S
H2507 C2501 0.959 . S
H2508 C2501 0.961 . S
H2509 C2501 0.960 . S
H2510 C2502 0.930 . S
H2511 C2503 0.929 . S
H2512 C2520 0.929 . S
H2513 C2522 0.930 . S
H2514 C2524 0.930 . S
H2515 C2527 0.929 . S
H2516 C2530 0.930 . S
H2517 C2532 0.960 . S
H2518 C2532 0.960 . S
H2519 C2532 0.960 . S
C2520 H2512 0.929 . S
C2520 C2521 1.377 . S
C2520 C2522 1.384 . S
C2521 C2520 1.377 . S
C2521 C2527 1.390 . S
C2522 H2513 0.930 . S
C2522 C2520 1.384 . S
C2522 C2523 1.372 . S
C2523 C2522 1.372 . S
C2523 C2524 1.400 . S
C2523 C2528 1.490 . S
C2524 H2514 0.930 . S
C2524 C2523 1.400 . S
C2524 C2527 1.386 . S
H2525 C2541 0.930 . S
H2526 C2542 0.931 . S
C2527 H2515 0.929 . S
C2527 C2521 1.390 . S
C2527 C2524 1.386 . S
C2528 C2523 1.490 . S
C2528 C2530 1.395 . S
C2528 C2531 1.403 . S
H2529 C2535 0.930 . S
C2530 H2516 0.930 . S
C2530 C2528 1.395 . S
C2530 C2533 1.403 . S
C2531 C2528 1.403 . S
C2531 C2532 1.524 . S
C2531 C2535 1.400 . S
C2532 H2517 0.960 . S
C2532 H2518 0.960 . S
C2532 H2519 0.960 . S
C2532 C2531 1.524 . S
C2533 C2530 1.403 . S
C2533 C2534 1.392 . S
C2533 C2537 1.495 . S
C2534 C2533 1.392 . S
C2534 C2535 1.385 . S
C2534 C2536 1.478 . S
C2535 H2529 0.930 . S
C2535 C2531 1.400 . S
C2535 C2534 1.385 . S
C2536 C2534 1.478 . S
C2536 C2538 1.381 . S
C2536 C2542 1.383 . S
C2537 C2533 1.495 . S
C2537 H2543 0.959 . S
C2537 H2544 0.961 . S
C2537 H2545 0.960 . S
C2538 C2536 1.381 . S
C2538 C2539 1.394 . S
C2538 H2546 0.930 . S
C2539 C2538 1.394 . S
C2539 C2540 1.383 . S
C2539 H2547 0.929 . S
C2540 C2539 1.383 . S
C2540 C2541 1.377 . S
C2541 H2525 0.930 . S
C2541 C2540 1.377 . S
C2541 C2542 1.379 . S
C2542 H2526 0.931 . S
C2542 C2536 1.383 . S
C2542 C2541 1.379 . S
H2543 C2537 0.959 . S
H2544 C2537 0.961 . S
H2545 C2537 0.960 . S
H2546 C2538 0.930 . S
H2547 C2539 0.929 . S
H2548 C2556 0.929 . S
H2549 C2558 0.930 . S
H2550 C2560 0.930 . S
H2551 C2563 0.929 . S
H2552 C2566 0.930 . S
H2553 C2568 0.960 . S
H2554 C2568 0.960 . S
H2555 C2568 0.960 . S
C2556 H2548 0.929 . S
C2556 C2557 1.377 . S
C2556 C2558 1.384 . S
C2557 C2556 1.377 . S
C2557 C2563 1.390 . S
C2558 H2549 0.930 . S
C2558 C2556 1.384 . S
C2558 C2559 1.372 . S
C2559 C2558 1.372 . S
C2559 C2560 1.400 . S
C2559 C2564 1.490 . S
C2560 H2550 0.930 . S
C2560 C2559 1.400 . S
C2560 C2563 1.386 . S
H2561 C2577 0.930 . S
H2562 C2578 0.931 . S
C2563 H2551 0.929 . S
C2563 C2557 1.390 . S
C2563 C2560 1.386 . S
C2564 C2559 1.490 . S
C2564 C2566 1.395 . S
C2564 C2567 1.403 . S
H2565 C2571 0.960 . S
C2566 H2552 0.930 . S
C2566 C2564 1.395 . S
C2566 C2569 1.403 . S
C2567 C2564 1.403 . S
C2567 C2568 1.524 . S
C2567 C2571 1.400 . S
C2568 H2553 0.960 . S
C2568 H2554 0.960 . S
C2568 H2555 0.960 . S
C2568 C2567 1.524 . S
C2569 C2566 1.403 . S
C2569 C2570 1.392 . S
C2569 C2573 1.495 . S
C2570 C2569 1.392 . S
C2570 C2571 1.385 . S
C2570 C2572 1.478 1_655 S
C2571 H2565 0.960 . S
C2571 C2567 1.400 . S
C2571 C2570 1.385 . S
C2572 C2570 1.478 1_455 S
C2572 C2574 1.381 . S
C2572 C2578 1.383 . S
C2573 C2569 1.495 . S
C2573 H2579 0.959 . S
C2573 H2580 0.961 . S
C2573 H2581 0.960 . S
C2574 C2572 1.381 . S
C2574 C2575 1.394 . S
C2574 H2582 0.930 . S
C2575 C2574 1.394 . S
C2575 C2576 1.383 . S
C2575 H2583 0.929 . S
C2576 C2575 1.383 . S
C2576 C2577 1.377 . S
C2577 H2561 0.930 . S
C2577 C2576 1.377 . S
C2577 C2578 1.379 . S
C2578 H2562 0.931 . S
C2578 C2572 1.383 . S
C2578 C2577 1.379 . S
H2579 C2573 0.959 . S
H2580 C2573 0.961 . S
H2581 C2573 0.960 . S
H2582 C2574 0.930 . S
H2583 C2575 0.929 . S
H2584 C2592 0.929 . S
H2585 C2594 0.930 . S
H2586 C2596 0.930 . S
H2587 C2599 0.929 . S
H2588 C2602 0.930 . S
H2589 C2604 0.960 . S
H2590 C2604 0.960 . S
H2591 C2604 0.960 . S
C2592 H2584 0.929 . S
C2592 C2593 1.377 . S
C2592 C2594 1.384 . S
C2593 C2592 1.377 . S
C2593 C2599 1.390 . S
C2594 H2585 0.930 . S
C2594 C2592 1.384 . S
C2594 C2595 1.372 . S
C2595 C2594 1.372 . S
C2595 C2596 1.400 . S
C2595 C2600 1.490 . S
C2596 H2586 0.930 . S
C2596 C2595 1.400 . S
C2596 C2599 1.386 . S
H2597 C2613 0.930 . S
H2598 C2614 0.931 . S
C2599 H2587 0.929 . S
C2599 C2593 1.390 . S
C2599 C2596 1.386 . S
C2600 C2595 1.490 . S
C2600 C2602 1.395 . S
C2600 C2603 1.403 . S
H2601 C2607 0.930 . S
C2602 H2588 0.930 . S
C2602 C2600 1.395 . S
C2602 C2605 1.403 . S
C2603 C2600 1.403 . S
C2603 C2604 1.524 . S
C2603 C2607 1.400 . S
C2604 H2589 0.960 . S
C2604 H2590 0.960 . S
C2604 H2591 0.960 . S
C2604 C2603 1.524 . S
C2605 C2602 1.403 . S
C2605 C2606 1.392 . S
C2605 C2609 1.495 . S
C2606 C2605 1.392 . S
C2606 C2607 1.385 . S
C2606 C2608 1.478 . S
C2607 H2601 0.930 . S
C2607 C2603 1.400 . S
C2607 C2606 1.385 . S
C2608 C2606 1.478 . S
C2608 C2610 1.381 . S
C2608 C2614 1.383 . S
C2609 C2605 1.495 . S
C2609 H2615 0.959 . S
C2609 H2616 0.961 . S
C2609 H2617 0.960 . S
C2610 C2608 1.381 . S
C2610 C2611 1.394 . S
C2610 H2618 0.930 . S
C2611 C2610 1.394 . S
C2611 C2612 1.383 . S
C2611 H2619 0.929 . S
C2612 C2611 1.383 . S
C2612 C2613 1.377 . S
C2613 H2597 0.930 . S
C2613 C2612 1.377 . S
C2613 C2614 1.379 . S
C2614 H2598 0.931 . S
C2614 C2608 1.383 . S
C2614 C2613 1.379 . S
H2615 C2609 0.959 . S
H2616 C2609 0.961 . S
H2617 C2609 0.960 . S
H2618 C2610 0.930 . S
H2619 C2611 0.929 . S
H2620 C2628 0.929 . S
H2621 C2630 0.930 . S
H2622 C2632 0.930 . S
H2623 C2635 0.929 . S
H2624 C2638 0.930 . S
H2625 C2640 0.960 . S
H2626 C2640 0.960 . S
H2627 C2640 0.960 . S
C2628 H2620 0.929 . S
C2628 C2629 1.377 . S
C2628 C2630 1.384 . S
C2629 C2628 1.377 . S
C2629 C2635 1.390 . S
C2630 H2621 0.930 . S
C2630 C2628 1.384 . S
C2630 C2631 1.372 . S
C2631 C2630 1.372 . S
C2631 C2632 1.400 . S
C2631 C2636 1.490 . S
C2632 H2622 0.930 . S
C2632 C2631 1.400 . S
C2632 C2635 1.386 . S
H2633 C2649 0.930 . S
H2634 C2650 0.931 . S
C2635 H2623 0.929 . S
C2635 C2629 1.390 . S
C2635 C2632 1.386 . S
C2636 C2631 1.490 . S
C2636 C2638 1.395 . S
C2636 C2639 1.403 . S
H2637 C2643 0.930 . S
C2638 H2624 0.930 . S
C2638 C2636 1.395 . S
C2638 C2641 1.403 . S
C2639 C2636 1.403 . S
C2639 C2640 1.524 . S
C2639 C2643 1.400 . S
C2640 H2625 0.960 . S
C2640 H2626 0.960 . S
C2640 H2627 0.960 . S
C2640 C2639 1.524 . S
C2641 C2638 1.403 . S
C2641 C2642 1.392 . S
C2641 C2645 1.495 . S
C2642 C2641 1.392 . S
C2642 C2643 1.385 . S
C2642 C2644 1.478 . S
C2643 H2637 0.930 . S
C2643 C2639 1.400 . S
C2643 C2642 1.385 . S
C2644 C2642 1.478 . S
C2644 C2646 1.381 . S
C2644 C2650 1.383 . S
C2645 C2641 1.495 . S
C2645 H2651 0.959 . S
C2645 H2652 0.961 . S
C2645 H2653 0.960 . S
C2646 C2644 1.381 . S
C2646 C2647 1.394 . S
C2646 H2654 0.930 . S
C2647 C2646 1.394 . S
C2647 C2648 1.383 . S
C2647 H2655 0.929 . S
C2648 C2647 1.383 . S
C2648 C2649 1.377 . S
C2649 H2633 0.930 . S
C2649 C2648 1.377 . S
C2649 C2650 1.379 . S
C2650 H2634 0.931 . S
C2650 C2644 1.383 . S
C2650 C2649 1.379 . S
H2651 C2645 0.959 . S
H2652 C2645 0.961 . S
H2653 C2645 0.960 . S
H2654 C2646 0.930 . S
H2655 C2647 0.929 . S
H2656 C2664 0.929 . S
H2657 C2666 0.930 . S
H2658 C2668 0.930 . S
H2659 C2671 0.929 . S
H2660 C2674 0.930 . S
H2661 C2676 0.960 . S
H2662 C2676 0.960 . S
H2663 C2676 0.960 . S
C2664 H2656 0.929 . S
C2664 C2665 1.377 . S
C2664 C2666 1.384 . S
C2665 C2664 1.377 . S
C2665 C2671 1.390 . S
C2666 H2657 0.930 . S
C2666 C2664 1.384 . S
C2666 C2667 1.372 . S
C2667 C2666 1.372 . S
C2667 C2668 1.400 . S
C2667 C2672 1.490 . S
C2668 H2658 0.930 . S
C2668 C2667 1.400 . S
C2668 C2671 1.386 . S
H2669 C2685 0.930 . S
H2670 C2686 0.931 . S
C2671 H2659 0.929 . S
C2671 C2665 1.390 . S
C2671 C2668 1.386 . S
C2672 C2667 1.490 . S
C2672 C2674 1.395 . S
C2672 C2675 1.403 . S
H2673 C2679 0.930 . S
C2674 H2660 0.930 . S
C2674 C2672 1.395 . S
C2674 C2677 1.403 . S
C2675 C2672 1.403 . S
C2675 C2676 1.524 . S
C2675 C2679 1.400 . S
C2676 H2661 0.960 . S
C2676 H2662 0.960 . S
C2676 H2663 0.960 . S
C2676 C2675 1.524 . S
C2677 C2674 1.403 . S
C2677 C2678 1.392 . S
C2677 C2681 1.495 . S
C2678 C2677 1.392 . S
C2678 C2679 1.385 . S
C2678 C2680 1.478 . S
C2679 H2673 0.930 . S
C2679 C2675 1.400 . S
C2679 C2678 1.385 . S
C2680 C2678 1.478 . S
C2680 C2682 1.381 . S
C2680 C2686 1.383 . S
C2681 C2677 1.495 . S
C2681 H2687 0.959 . S
C2681 H2688 0.961 . S
C2681 H2689 0.960 . S
C2682 C2680 1.381 . S
C2682 C2683 1.394 . S
C2682 H2690 0.930 . S
C2683 C2682 1.394 . S
C2683 C2684 1.383 . S
C2683 H2691 0.929 . S
C2684 C2683 1.383 . S
C2684 C2685 1.377 . S
C2685 H2669 0.930 . S
C2685 C2684 1.377 . S
C2685 C2686 1.379 . S
C2686 H2670 0.931 . S
C2686 C2680 1.383 . S
C2686 C2685 1.379 . S
H2687 C2681 0.959 . S
H2688 C2681 0.961 . S
H2689 C2681 0.960 . S
H2690 C2682 0.930 . S
H2691 C2683 0.929 . S
H2692 C2700 0.929 . S
H2693 C2702 0.930 . S
H2694 C2704 0.930 . S
H2695 C2707 0.929 . S
H2696 C2710 0.930 . S
H2697 C2712 0.960 . S
H2698 C2712 0.960 . S
H2699 C2712 0.960 . S
C2700 H2692 0.929 . S
C2700 C2701 1.377 . S
C2700 C2702 1.384 . S
C2701 C2700 1.377 . S
C2701 C2707 1.390 . S
C2702 H2693 0.930 . S
C2702 C2700 1.384 . S
C2702 C2703 1.372 . S
C2703 C2702 1.372 . S
C2703 C2704 1.400 . S
C2703 C2708 1.490 . S
C2704 H2694 0.930 . S
C2704 C2703 1.400 . S
C2704 C2707 1.386 . S
H2705 C2721 0.930 . S
H2706 C2722 0.931 . S
C2707 H2695 0.929 . S
C2707 C2701 1.390 . S
C2707 C2704 1.386 . S
C2708 C2703 1.490 . S
C2708 C2710 1.395 . S
C2708 C2711 1.403 . S
H2709 C2715 0.930 . S
C2710 H2696 0.930 . S
C2710 C2708 1.395 . S
C2710 C2713 1.403 . S
C2711 C2708 1.403 . S
C2711 C2712 1.524 . S
C2711 C2715 1.400 . S
C2712 H2697 0.960 . S
C2712 H2698 0.960 . S
C2712 H2699 0.960 . S
C2712 C2711 1.524 . S
C2713 C2710 1.403 . S
C2713 C2714 1.392 . S
C2713 C2717 1.495 . S
C2714 C2713 1.392 . S
C2714 C2715 1.385 . S
C2714 C2716 1.478 . S
C2715 H2709 0.930 . S
C2715 C2711 1.400 . S
C2715 C2714 1.385 . S
C2716 C2714 1.478 . S
C2716 C2718 1.381 . S
C2716 C2722 1.383 . S
C2717 C2713 1.495 . S
C2717 H2723 0.959 . S
C2717 H2724 0.961 . S
C2717 H2725 0.960 . S
C2718 C2716 1.381 . S
C2718 C2719 1.394 . S
C2718 H2726 0.930 . S
C2719 C2718 1.394 . S
C2719 C2720 1.383 . S
C2719 H2727 0.929 . S
C2720 C2719 1.383 . S
C2720 C2721 1.377 . S
C2721 H2705 0.930 . S
C2721 C2720 1.377 . S
C2721 C2722 1.379 . S
C2722 H2706 0.931 . S
C2722 C2716 1.383 . S
C2722 C2721 1.379 . S
H2723 C2717 0.959 . S
H2724 C2717 0.961 . S
H2725 C2717 0.960 . S
H2726 C2718 0.930 . S
H2727 C2719 0.929 . S
H2728 C2736 0.929 . S
H2729 C2738 0.930 . S
H2730 C2740 0.930 . S
H2731 C2743 0.929 . S
H2732 C2746 0.930 . S
H2733 C2748 0.960 . S
H2734 C2748 0.960 . S
H2735 C2748 0.960 . S
C2736 H2728 0.929 . S
C2736 C2737 1.377 . S
C2736 C2738 1.384 . S
C2737 C2736 1.377 . S
C2737 C2743 1.390 . S
C2738 H2729 0.930 . S
C2738 C2736 1.384 . S
C2738 C2739 1.372 . S
C2739 C2738 1.372 . S
C2739 C2740 1.400 . S
C2739 C2744 1.490 . S
C2740 H2730 0.930 . S
C2740 C2739 1.400 . S
C2740 C2743 1.386 . S
H2741 C2757 0.930 . S
H2742 C2758 0.931 . S
C2743 H2731 0.929 . S
C2743 C2737 1.390 . S
C2743 C2740 1.386 . S
C2744 C2739 1.490 . S
C2744 C2746 1.395 . S
C2744 C2747 1.403 . S
H2745 C2751 0.930 . S
C2746 H2732 0.930 . S
C2746 C2744 1.395 . S
C2746 C2749 1.403 . S
C2747 C2744 1.403 . S
C2747 C2748 1.524 . S
C2747 C2751 1.400 . S
C2748 H2733 0.960 . S
C2748 H2734 0.960 . S
C2748 H2735 0.960 . S
C2748 C2747 1.524 . S
C2749 C2746 1.403 . S
C2749 C2750 1.392 . S
C2749 C2753 1.495 . S
C2750 C2749 1.392 . S
C2750 C2751 1.385 . S
C2750 C2752 1.478 . S
C2751 H2745 0.930 . S
C2751 C2747 1.400 . S
C2751 C2750 1.385 . S
C2752 C2750 1.478 . S
C2752 C2754 1.381 . S
C2752 C2758 1.383 . S
C2753 C2749 1.495 . S
C2753 H2759 0.959 . S
C2753 H2760 0.961 . S
C2753 H2761 0.960 . S
C2754 C2752 1.381 . S
C2754 C2755 1.394 . S
C2754 H2762 0.930 . S
C2755 C2754 1.394 . S
C2755 C2756 1.383 . S
C2755 H2763 0.929 . S
C2756 C2755 1.383 . S
C2756 C2757 1.377 . S
C2757 H2741 0.930 . S
C2757 C2756 1.377 . S
C2757 C2758 1.379 . S
C2758 H2742 0.931 . S
C2758 C2752 1.383 . S
C2758 C2757 1.379 . S
H2759 C2753 0.959 . S
H2760 C2753 0.961 . S
H2761 C2753 0.960 . S
H2762 C2754 0.930 . S
H2763 C2755 0.929 . S
H2764 C2772 0.929 . S
H2765 C2774 0.930 . S
H2766 C2776 0.930 . S
H2767 C2779 0.929 . S
H2768 C2782 0.930 . S
H2769 C2784 0.960 1_455 S
H2770 C2784 0.960 . S
H2771 C2784 0.960 . S
C2772 H2764 0.929 . S
C2772 C2773 1.377 . S
C2772 C2774 1.384 . S
C2773 C2772 1.377 . S
C2773 C2779 1.390 . S
C2774 H2765 0.930 . S
C2774 C2772 1.384 . S
C2774 C2775 1.372 . S
C2775 C2774 1.372 . S
C2775 C2776 1.400 . S
C2775 C2780 1.490 1_655 S
C2776 H2766 0.930 . S
C2776 C2775 1.400 . S
C2776 C2779 1.386 . S
H2777 C2793 0.930 . S
H2778 C2794 0.931 . S
C2779 H2767 0.929 . S
C2779 C2773 1.390 . S
C2779 C2776 1.386 . S
C2780 C2775 1.490 1_455 S
C2780 C2782 1.395 . S
C2780 C2783 1.403 . S
H2781 C2787 0.930 . S
C2782 H2768 0.930 . S
C2782 C2780 1.395 . S
C2782 C2785 1.403 . S
C2783 C2780 1.403 . S
C2783 C2784 1.524 1_455 S
C2783 C2787 1.400 . S
C2784 H2769 0.960 1_655 S
C2784 H2770 0.960 . S
C2784 H2771 0.960 . S
C2784 C2783 1.524 1_655 S
C2785 C2782 1.403 . S
C2785 C2786 1.392 . S
C2785 C2789 1.495 . S
C2786 C2785 1.392 . S
C2786 C2787 1.385 . S
C2786 C2788 1.478 . S
C2787 H2781 0.930 . S
C2787 C2783 1.400 . S
C2787 C2786 1.385 . S
C2788 C2786 1.478 . S
C2788 C2790 1.381 . S
C2788 C2794 1.383 . S
C2789 C2785 1.495 . S
C2789 H2795 0.959 . S
C2789 H2796 0.961 . S
C2789 H2797 0.960 . S
C2790 C2788 1.381 . S
C2790 C2791 1.394 . S
C2790 H2798 0.930 . S
C2791 C2790 1.394 . S
C2791 C2792 1.383 . S
C2791 H2799 0.929 . S
C2792 C2791 1.383 . S
C2792 C2793 1.377 . S
C2793 H2777 0.930 . S
C2793 C2792 1.377 . S
C2793 C2794 1.379 . S
C2794 H2778 0.931 . S
C2794 C2788 1.383 . S
C2794 C2793 1.379 . S
H2795 C2789 0.959 . S
H2796 C2789 0.961 . S
H2797 C2789 0.960 . S
H2798 C2790 0.930 . S
H2799 C2791 0.929 . S
H2800 C2808 0.929 . S
H2801 C2810 0.930 . S
H2802 C2812 0.930 . S
H2803 C2815 0.929 . S
H2804 C2818 0.930 . S
H2805 C2820 0.960 . S
H2806 C2820 0.960 . S
H2807 C2820 0.960 . S
C2808 H2800 0.929 . S
C2808 C2809 1.377 . S
C2808 C2810 1.384 . S
C2809 C2808 1.377 . S
C2809 C2815 1.390 . S
C2810 H2801 0.930 . S
C2810 C2808 1.384 . S
C2810 C2811 1.372 . S
C2811 C2810 1.372 . S
C2811 C2812 1.400 . S
C2811 C2816 1.490 . S
C2812 H2802 0.930 . S
C2812 C2811 1.400 . S
C2812 C2815 1.386 . S
H2813 C2829 0.930 . S
H2814 C2830 0.931 . S
C2815 H2803 0.929 . S
C2815 C2809 1.390 . S
C2815 C2812 1.386 . S
C2816 C2811 1.490 . S
C2816 C2818 1.395 . S
C2816 C2819 1.403 . S
H2817 C2823 0.930 . S
C2818 H2804 0.930 . S
C2818 C2816 1.395 . S
C2818 C2821 1.403 . S
C2819 C2816 1.403 . S
C2819 C2820 1.524 . S
C2819 C2823 1.400 . S
C2820 H2805 0.960 . S
C2820 H2806 0.960 . S
C2820 H2807 0.960 . S
C2820 C2819 1.524 . S
C2821 C2818 1.403 . S
C2821 C2822 1.392 . S
C2821 C2825 1.495 . S
C2822 C2821 1.392 . S
C2822 C2823 1.385 . S
C2822 C2824 1.478 . S
C2823 H2817 0.930 . S
C2823 C2819 1.400 . S
C2823 C2822 1.385 . S
C2824 C2822 1.478 . S
C2824 C2826 1.381 . S
C2824 C2830 1.383 . S
C2825 C2821 1.495 . S
C2825 H2831 0.959 . S
C2825 H2832 0.961 . S
C2825 H2833 0.960 . S
C2826 C2824 1.381 . S
C2826 C2827 1.394 . S
C2826 H2834 0.930 . S
C2827 C2826 1.394 . S
C2827 C2828 1.383 . S
C2827 H2835 0.929 . S
C2828 C2827 1.383 . S
C2828 C2829 1.377 . S
C2829 H2813 0.930 . S
C2829 C2828 1.377 . S
C2829 C2830 1.379 . S
C2830 H2814 0.931 . S
C2830 C2824 1.383 . S
C2830 C2829 1.379 . S
H2831 C2825 0.959 . S
H2832 C2825 0.961 . S
H2833 C2825 0.960 . S
H2834 C2826 0.930 . S
H2835 C2827 0.929 . S
H2836 C2844 0.929 . S
H2837 C2846 0.930 . S
H2838 C2848 0.930 . S
H2839 C2851 0.929 . S
H2840 C2854 0.930 . S
H2841 C2856 0.960 . S
H2842 C2856 0.960 . S
H2843 C2856 0.960 . S
C2844 H2836 0.929 . S
C2844 C2845 1.377 . S
C2844 C2846 1.384 . S
C2845 C2844 1.377 . S
C2845 C2851 1.390 . S
C2846 H2837 0.930 . S
C2846 C2844 1.384 . S
C2846 C2847 1.372 . S
C2847 C2846 1.372 . S
C2847 C2848 1.400 . S
C2847 C2852 1.490 . S
C2848 H2838 0.930 . S
C2848 C2847 1.400 . S
C2848 C2851 1.386 . S
H2849 C2865 0.930 . S
H2850 C2866 0.931 . S
C2851 H2839 0.929 . S
C2851 C2845 1.390 . S
C2851 C2848 1.386 . S
C2852 C2847 1.490 . S
C2852 C2854 1.395 . S
C2852 C2855 1.403 . S
H2853 C2859 0.930 . S
C2854 H2840 0.930 . S
C2854 C2852 1.395 . S
C2854 C2857 1.403 . S
C2855 C2852 1.403 . S
C2855 C2856 1.524 . S
C2855 C2859 1.400 . S
C2856 H2841 0.960 . S
C2856 H2842 0.960 . S
C2856 H2843 0.960 . S
C2856 C2855 1.524 . S
C2857 C2854 1.403 . S
C2857 C2858 1.392 . S
C2857 C2861 1.495 . S
C2858 C2857 1.392 . S
C2858 C2859 1.385 . S
C2858 C2860 1.478 1_455 S
C2859 H2853 0.930 . S
C2859 C2855 1.400 . S
C2859 C2858 1.385 . S
C2860 C2858 1.478 1_655 S
C2860 C2862 1.381 . S
C2860 C2866 1.383 . S
C2861 C2857 1.495 . S
C2861 H2867 0.959 . S
C2861 H2868 0.961 . S
C2861 H2869 0.960 1_455 S
C2862 C2860 1.381 . S
C2862 C2863 1.394 . S
C2862 H2870 0.930 . S
C2863 C2862 1.394 . S
C2863 C2864 1.383 . S
C2863 H2871 0.929 . S
C2864 C2863 1.383 . S
C2864 C2865 1.377 . S
C2865 H2849 0.930 . S
C2865 C2864 1.377 . S
C2865 C2866 1.379 . S
C2866 H2850 0.931 . S
C2866 C2860 1.383 . S
C2866 C2865 1.379 . S
H2867 C2861 0.959 . S
H2868 C2861 0.961 . S
H2869 C2861 0.960 1_655 S
H2870 C2862 0.930 . S
H2871 C2863 0.929 . S
H2872 C2880 0.929 . S
H2873 C2882 0.930 . S
H2874 C2884 0.930 . S
H2875 C2887 0.929 . S
H2876 C2890 0.930 . S
H2877 C2892 0.960 . S
H2878 C2892 0.960 . S
H2879 C2892 0.960 . S
C2880 H2872 0.929 . S
C2880 C2881 1.377 . S
C2880 C2882 1.384 . S
C2881 C2880 1.377 . S
C2881 C2887 1.390 . S
C2882 H2873 0.930 . S
C2882 C2880 1.384 . S
C2882 C2883 1.372 . S
C2883 C2882 1.372 . S
C2883 C2884 1.400 . S
C2883 C2888 1.490 . S
C2884 H2874 0.930 . S
C2884 C2883 1.400 . S
C2884 C2887 1.386 . S
H2885 C2901 0.930 . S
H2886 C2902 0.931 . S
C2887 H2875 0.929 . S
C2887 C2881 1.390 . S
C2887 C2884 1.386 . S
C2888 C2883 1.490 . S
C2888 C2890 1.395 . S
C2888 C2891 1.403 . S
H2889 C2895 0.930 . S
C2890 H2876 0.930 . S
C2890 C2888 1.395 . S
C2890 C2893 1.403 . S
C2891 C2888 1.403 . S
C2891 C2892 1.524 . S
C2891 C2895 1.400 . S
C2892 H2877 0.960 . S
C2892 H2878 0.960 . S
C2892 H2879 0.960 . S
C2892 C2891 1.524 . S
C2893 C2890 1.403 . S
C2893 C2894 1.392 . S
C2893 C2897 1.495 . S
C2894 C2893 1.392 . S
C2894 C2895 1.385 . S
C2894 C2896 1.478 . S
C2895 H2889 0.930 . S
C2895 C2891 1.400 . S
C2895 C2894 1.385 . S
C2896 C2894 1.478 . S
C2896 C2898 1.381 . S
C2896 C2902 1.383 . S
C2897 C2893 1.495 . S
C2897 H2903 0.959 . S
C2897 H2904 0.961 . S
C2897 H2905 0.960 . S
C2898 C2896 1.381 . S
C2898 C2899 1.394 . S
C2898 H2906 0.930 . S
C2899 C2898 1.394 . S
C2899 C2900 1.383 . S
C2899 H2907 0.929 . S
C2900 C2899 1.383 . S
C2900 C2901 1.377 . S
C2901 H2885 0.930 . S
C2901 C2900 1.377 . S
C2901 C2902 1.379 . S
C2902 H2886 0.931 . S
C2902 C2896 1.383 . S
C2902 C2901 1.379 . S
H2903 C2897 0.959 . S
H2904 C2897 0.961 . S
H2905 C2897 0.960 . S
H2906 C2898 0.930 . S
H2907 C2899 0.929 . S
H2908 C2916 0.929 . S
H2909 C2918 0.930 . S
H2910 C2920 0.930 . S
H2911 C2923 0.929 . S
H2912 C2926 0.930 . S
H2913 C2928 0.960 . S
H2914 C2928 0.960 . S
H2915 C2928 0.960 . S
C2916 H2908 0.929 . S
C2916 C2917 1.377 . S
C2916 C2918 1.384 . S
C2917 C2916 1.377 . S
C2917 C2923 1.390 . S
C2918 H2909 0.930 . S
C2918 C2916 1.384 . S
C2918 C2919 1.372 . S
C2919 C2918 1.372 . S
C2919 C2920 1.400 . S
C2919 C2924 1.490 . S
C2920 H2910 0.930 . S
C2920 C2919 1.400 . S
C2920 C2923 1.386 . S
H2921 C2937 0.930 . S
H2922 C2938 0.931 . S
C2923 H2911 0.929 . S
C2923 C2917 1.390 . S
C2923 C2920 1.386 . S
C2924 C2919 1.490 . S
C2924 C2926 1.395 . S
C2924 C2927 1.403 . S
H2925 C2931 0.930 . S
C2926 H2912 0.930 . S
C2926 C2924 1.395 . S
C2926 C2929 1.403 . S
C2927 C2924 1.403 . S
C2927 C2928 1.524 . S
C2927 C2931 1.400 . S
C2928 H2913 0.960 . S
C2928 H2914 0.960 . S
C2928 H2915 0.960 . S
C2928 C2927 1.524 . S
C2929 C2926 1.403 . S
C2929 C2930 1.392 . S
C2929 C2933 1.495 . S
C2930 C2929 1.392 . S
C2930 C2931 1.385 . S
C2930 C2932 1.478 . S
C2931 H2925 0.930 . S
C2931 C2927 1.400 . S
C2931 C2930 1.385 . S
C2932 C2930 1.478 . S
C2932 C2934 1.381 . S
C2932 C2938 1.383 . S
C2933 C2929 1.495 . S
C2933 H2939 0.959 . S
C2933 H2940 0.961 . S
C2933 H2941 0.960 . S
C2934 C2932 1.381 . S
C2934 C2935 1.394 . S
C2934 H2942 0.930 . S
C2935 C2934 1.394 . S
C2935 C2936 1.383 . S
C2935 H2943 0.929 . S
C2936 C2935 1.383 . S
C2936 C2937 1.377 . S
C2937 H2921 0.930 . S
C2937 C2936 1.377 . S
C2937 C2938 1.379 . S
C2938 H2922 0.931 . S
C2938 C2932 1.383 . S
C2938 C2937 1.379 . S
H2939 C2933 0.959 . S
H2940 C2933 0.961 . S
H2941 C2933 0.960 . S
H2942 C2934 0.930 . S
H2943 C2935 0.929 . S
H2944 C2952 0.929 . S
H2945 C2954 0.930 . S
H2946 C2956 0.930 . S
H2947 C2959 0.929 . S
H2948 C2962 0.930 . S
H2949 C2964 0.960 . S
H2950 C2964 0.960 . S
H2951 C2964 0.960 . S
C2952 H2944 0.929 . S
C2952 C2953 1.377 . S
C2952 C2954 1.384 . S
C2953 C2952 1.377 . S
C2953 C2959 1.390 . S
C2954 H2945 0.930 . S
C2954 C2952 1.384 . S
C2954 C2955 1.372 . S
C2955 C2954 1.372 . S
C2955 C2956 1.400 . S
C2955 C2960 1.490 . S
C2956 H2946 0.930 . S
C2956 C2955 1.400 . S
C2956 C2959 1.386 . S
H2957 C2973 0.930 . S
H2958 C2974 0.931 . S
C2959 H2947 0.929 . S
C2959 C2953 1.390 . S
C2959 C2956 1.386 . S
C2960 C2955 1.490 . S
C2960 C2962 1.395 . S
C2960 C2963 1.403 . S
H2961 C2967 0.930 . S
C2962 H2948 0.930 . S
C2962 C2960 1.395 . S
C2962 C2965 1.403 1_545 S
C2963 C2960 1.403 . S
C2963 C2964 1.524 . S
C2963 C2967 1.400 1_545 S
C2964 H2949 0.960 . S
C2964 H2950 0.960 . S
C2964 H2951 0.960 . S
C2964 C2963 1.524 . S
C2965 C2962 1.403 1_565 S
C2965 C2966 1.392 . S
C2965 C2969 1.495 . S
C2966 C2965 1.392 . S
C2966 C2967 1.385 . S
C2966 C2968 1.478 . S
C2967 H2961 0.930 . S
C2967 C2963 1.400 1_565 S
C2967 C2966 1.385 . S
C2968 C2966 1.478 . S
C2968 C2970 1.381 . S
C2968 C2974 1.383 . S
C2969 C2965 1.495 . S
C2969 H2975 0.959 . S
C2969 H2976 0.961 . S
C2969 H2977 0.960 . S
C2970 C2968 1.381 . S
C2970 C2971 1.394 . S
C2970 H2978 0.930 . S
C2971 C2970 1.394 . S
C2971 C2972 1.383 . S
C2971 H2979 0.929 . S
C2972 C2971 1.383 . S
C2972 C2973 1.377 . S
C2973 H2957 0.930 . S
C2973 C2972 1.377 . S
C2973 C2974 1.379 . S
C2974 H2958 0.931 . S
C2974 C2968 1.383 . S
C2974 C2973 1.379 . S
H2975 C2969 0.959 . S
H2976 C2969 0.961 . S
H2977 C2969 0.960 . S
H2978 C2970 0.930 . S
H2979 C2971 0.929 . S
H2980 C2988 0.929 . S
H2981 C2990 0.930 . S
H2982 C2992 0.930 . S
H2983 C2995 0.929 . S
H2984 C2998 0.930 . S
H2985 C3000 0.960 . S
H2986 C3000 0.960 . S
H2987 C3000 0.960 . S
C2988 H2980 0.929 . S
C2988 C2989 1.377 . S
C2988 C2990 1.384 . S
C2989 C2988 1.377 . S
C2989 C2995 1.390 . S
C2990 H2981 0.930 . S
C2990 C2988 1.384 . S
C2990 C2991 1.372 . S
C2991 C2990 1.372 . S
C2991 C2992 1.400 . S
C2991 C2996 1.490 . S
C2992 H2982 0.930 . S
C2992 C2991 1.400 . S
C2992 C2995 1.386 . S
H2993 C3009 0.930 . S
H2994 C3010 0.931 . S
C2995 H2983 0.929 . S
C2995 C2989 1.390 . S
C2995 C2992 1.386 . S
C2996 C2991 1.490 . S
C2996 C2998 1.395 . S
C2996 C2999 1.403 . S
H2997 C3003 0.930 . S
C2998 H2984 0.930 . S
C2998 C2996 1.395 . S
C2998 C3001 1.403 . S
C2999 C2996 1.403 . S
C2999 C3000 1.524 . S
C2999 C3003 1.400 . S
C3000 H2985 0.960 . S
C3000 H2986 0.960 . S
C3000 H2987 0.960 . S
C3000 C2999 1.524 . S
C3001 C2998 1.403 . S
C3001 C3002 1.392 . S
C3001 C3005 1.495 . S
C3002 C3001 1.392 . S
C3002 C3003 1.385 . S
C3002 C3004 1.478 . S
C3003 H2997 0.930 . S
C3003 C2999 1.400 . S
C3003 C3002 1.385 . S
C3004 C3002 1.478 . S
C3004 C3006 1.381 . S
C3004 C3010 1.383 . S
C3005 C3001 1.495 . S
C3005 H3011 0.959 . S
C3005 H3012 0.961 . S
C3005 H3013 0.960 . S
C3006 C3004 1.381 . S
C3006 C3007 1.394 . S
C3006 H3014 0.930 . S
C3007 C3006 1.394 . S
C3007 C3008 1.383 . S
C3007 H3015 0.929 . S
C3008 C3007 1.383 . S
C3008 C3009 1.377 . S
C3009 H2993 0.930 . S
C3009 C3008 1.377 . S
C3009 C3010 1.379 . S
C3010 H2994 0.931 . S
C3010 C3004 1.383 . S
C3010 C3009 1.379 . S
H3011 C3005 0.959 . S
H3012 C3005 0.961 . S
H3013 C3005 0.960 . S
H3014 C3006 0.930 . S
H3015 C3007 0.929 . S
H3016 C3024 0.929 . S
H3017 C3026 0.930 . S
H3018 C3028 0.930 . S
H3019 C3031 0.929 . S
H3020 C3034 0.930 . S
H3021 C3036 0.960 . S
H3022 C3036 0.960 . S
H3023 C3036 0.960 . S
C3024 H3016 0.929 . S
C3024 C3025 1.377 . S
C3024 C3026 1.384 . S
C3025 C3024 1.377 . S
C3025 C3031 1.390 . S
C3026 H3017 0.930 . S
C3026 C3024 1.384 . S
C3026 C3027 1.372 . S
C3027 C3026 1.372 . S
C3027 C3028 1.400 . S
C3027 C3032 1.490 . S
C3028 H3018 0.930 . S
C3028 C3027 1.400 . S
C3028 C3031 1.386 . S
H3029 C3045 0.930 . S
H3030 C3046 0.931 . S
C3031 H3019 0.929 . S
C3031 C3025 1.390 . S
C3031 C3028 1.386 . S
C3032 C3027 1.490 . S
C3032 C3034 1.395 . S
C3032 C3035 1.403 . S
H3033 C3039 0.930 . S
C3034 H3020 0.930 . S
C3034 C3032 1.395 . S
C3034 C3037 1.403 1_565 S
C3035 C3032 1.403 . S
C3035 C3036 1.524 . S
C3035 C3039 1.400 1_565 S
C3036 H3021 0.960 . S
C3036 H3022 0.960 . S
C3036 H3023 0.960 . S
C3036 C3035 1.524 . S
C3037 C3034 1.403 1_545 S
C3037 C3038 1.392 . S
C3037 C3041 1.495 . S
C3038 C3037 1.392 . S
C3038 C3039 1.385 . S
C3038 C3040 1.478 . S
C3039 H3033 0.930 . S
C3039 C3035 1.400 1_545 S
C3039 C3038 1.385 . S
C3040 C3038 1.478 . S
C3040 C3042 1.381 . S
C3040 C3046 1.383 . S
C3041 C3037 1.495 . S
C3041 H3047 0.959 . S
C3041 H3048 0.961 . S
C3041 H3049 0.960 . S
C3042 C3040 1.381 . S
C3042 C3043 1.394 . S
C3042 H3050 0.930 . S
C3043 C3042 1.394 . S
C3043 C3044 1.383 . S
C3043 H3051 0.929 . S
C3044 C3043 1.383 . S
C3044 C3045 1.377 . S
C3045 H3029 0.930 . S
C3045 C3044 1.377 . S
C3045 C3046 1.379 . S
C3046 H3030 0.931 . S
C3046 C3040 1.383 . S
C3046 C3045 1.379 . S
H3047 C3041 0.959 . S
H3048 C3041 0.961 . S
H3049 C3041 0.960 . S
H3050 C3042 0.930 . S
H3051 C3043 0.929 . S
H3052 C3060 0.929 . S
H3053 C3062 0.930 . S
H3054 C3064 0.930 1_554 S
H3055 C3067 0.929 . S
H3056 C3070 0.930 . S
H3057 C3072 0.960 . S
H3058 C3072 0.960 . S
H3059 C3072 0.960 . S
C3060 H3052 0.929 . S
C3060 C3061 1.377 . S
C3060 C3062 1.384 . S
C3061 C3060 1.377 . S
C3061 C3067 1.390 . S
C3062 H3053 0.930 . S
C3062 C3060 1.384 . S
C3062 C3063 1.372 . S
C3063 C3062 1.372 . S
C3063 C3064 1.400 . S
C3063 C3068 1.490 . S
C3064 H3054 0.930 1_556 S
C3064 C3063 1.400 . S
C3064 C3067 1.386 . S
H3065 C3081 0.930 . S
H3066 C3082 0.931 . S
C3067 H3055 0.929 . S
C3067 C3061 1.390 . S
C3067 C3064 1.386 . S
C3068 C3063 1.490 . S
C3068 C3070 1.395 . S
C3068 C3071 1.403 1_556 S
H3069 C3075 0.930 . S
C3070 H3056 0.930 . S
C3070 C3068 1.395 . S
C3070 C3073 1.403 . S
C3071 C3068 1.403 1_554 S
C3071 C3072 1.524 . S
C3071 C3075 1.400 . S
C3072 H3057 0.960 . S
C3072 H3058 0.960 . S
C3072 H3059 0.960 . S
C3072 C3071 1.524 . S
C3073 C3070 1.403 . S
C3073 C3074 1.392 1_556 S
C3073 C3077 1.495 . S
C3074 C3073 1.392 1_554 S
C3074 C3075 1.385 . S
C3074 C3076 1.478 . S
C3075 H3069 0.930 . S
C3075 C3071 1.400 . S
C3075 C3074 1.385 . S
C3076 C3074 1.478 . S
C3076 C3078 1.381 . S
C3076 C3082 1.383 . S
C3077 C3073 1.495 . S
C3077 H3083 0.959 . S
C3077 H3084 0.961 . S
C3077 H3085 0.960 . S
C3078 C3076 1.381 . S
C3078 C3079 1.394 . S
C3078 H3086 0.930 1_554 S
C3079 C3078 1.394 . S
C3079 C3080 1.383 . S
C3079 H3087 0.929 . S
C3080 C3079 1.383 . S
C3080 C3081 1.377 . S
C3081 H3065 0.930 . S
C3081 C3080 1.377 . S
C3081 C3082 1.379 . S
C3082 H3066 0.931 . S
C3082 C3076 1.383 . S
C3082 C3081 1.379 . S
H3083 C3077 0.959 . S
H3084 C3077 0.961 . S
H3085 C3077 0.960 . S
H3086 C3078 0.930 1_556 S
H3087 C3079 0.929 . S
H3088 C3096 0.929 . S
H3089 C3098 0.930 . S
H3090 C3100 0.930 . S
H3091 C3103 0.929 . S
H3092 C3106 0.930 . S
H3093 C3108 0.960 . S
H3094 C3108 0.960 . S
H3095 C3108 0.960 . S
C3096 H3088 0.929 . S
C3096 C3097 1.377 . S
C3096 C3098 1.384 . S
C3097 C3096 1.377 . S
C3097 C3103 1.390 . S
C3098 H3089 0.930 . S
C3098 C3096 1.384 . S
C3098 C3099 1.372 . S
C3099 C3098 1.372 . S
C3099 C3100 1.400 . S
C3099 C3104 1.490 . S
C3100 H3090 0.930 . S
C3100 C3099 1.400 . S
C3100 C3103 1.386 . S
H3101 C3117 0.930 . S
H3102 C3118 0.931 . S
C3103 H3091 0.929 . S
C3103 C3097 1.390 . S
C3103 C3100 1.386 . S
C3104 C3099 1.490 . S
C3104 C3106 1.395 . S
C3104 C3107 1.403 . S
H3105 C3111 0.930 . S
C3106 H3092 0.930 . S
C3106 C3104 1.395 . S
C3106 C3109 1.403 1_545 S
C3107 C3104 1.403 . S
C3107 C3108 1.524 . S
C3107 C3111 1.400 1_545 S
C3108 H3093 0.960 . S
C3108 H3094 0.960 . S
C3108 H3095 0.960 . S
C3108 C3107 1.524 . S
C3109 C3106 1.403 1_565 S
C3109 C3110 1.392 . S
C3109 C3113 1.495 . S
C3110 C3109 1.392 . S
C3110 C3111 1.385 . S
C3110 C3112 1.478 . S
C3111 H3105 0.930 . S
C3111 C3107 1.400 1_565 S
C3111 C3110 1.385 . S
C3112 C3110 1.478 . S
C3112 C3114 1.381 . S
C3112 C3118 1.383 . S
C3113 C3109 1.495 . S
C3113 H3119 0.959 . S
C3113 H3120 0.961 . S
C3113 H3121 0.960 . S
C3114 C3112 1.381 . S
C3114 C3115 1.394 . S
C3114 H3122 0.930 . S
C3115 C3114 1.394 . S
C3115 C3116 1.383 . S
C3115 H3123 0.929 . S
C3116 C3115 1.383 . S
C3116 C3117 1.377 . S
C3117 H3101 0.930 . S
C3117 C3116 1.377 . S
C3117 C3118 1.379 . S
C3118 H3102 0.931 . S
C3118 C3112 1.383 . S
C3118 C3117 1.379 . S
H3119 C3113 0.959 . S
H3120 C3113 0.961 . S
H3121 C3113 0.960 . S
H3122 C3114 0.930 . S
H3123 C3115 0.929 . S
H3124 C3132 0.929 . S
H3125 C3134 0.930 . S
H3126 C3136 0.930 . S
H3127 C3139 0.929 . S
H3128 C3142 0.930 . S
H3129 C3144 0.960 . S
H3130 C3144 0.960 . S
H3131 C3144 0.960 . S
C3132 H3124 0.929 . S
C3132 C3133 1.377 . S
C3132 C3134 1.384 . S
C3133 C3132 1.377 . S
C3133 C3139 1.390 . S
C3134 H3125 0.930 . S
C3134 C3132 1.384 . S
C3134 C3135 1.372 . S
C3135 C3134 1.372 . S
C3135 C3136 1.400 . S
C3135 C3140 1.490 . S
C3136 H3126 0.930 . S
C3136 C3135 1.400 . S
C3136 C3139 1.386 . S
H3137 C3153 0.930 . S
H3138 C3154 0.931 . S
C3139 H3127 0.929 . S
C3139 C3133 1.390 . S
C3139 C3136 1.386 . S
C3140 C3135 1.490 . S
C3140 C3142 1.395 . S
C3140 C3143 1.403 . S
H3141 C3147 0.930 . S
C3142 H3128 0.930 . S
C3142 C3140 1.395 . S
C3142 C3145 1.403 . S
C3143 C3140 1.403 . S
C3143 C3144 1.524 . S
C3143 C3147 1.400 . S
C3144 H3129 0.960 . S
C3144 H3130 0.960 . S
C3144 H3131 0.960 . S
C3144 C3143 1.524 . S
C3145 C3142 1.403 . S
C3145 C3146 1.392 . S
C3145 C3149 1.495 . S
C3146 C3145 1.392 . S
C3146 C3147 1.385 . S
C3146 C3148 1.478 . S
C3147 H3141 0.930 . S
C3147 C3143 1.400 . S
C3147 C3146 1.385 . S
C3148 C3146 1.478 . S
C3148 C3150 1.381 . S
C3148 C3154 1.383 . S
C3149 C3145 1.495 . S
C3149 H3155 0.959 . S
C3149 H3156 0.961 . S
C3149 H3157 0.960 . S
C3150 C3148 1.381 . S
C3150 C3151 1.394 . S
C3150 H3158 0.930 . S
C3151 C3150 1.394 . S
C3151 C3152 1.383 . S
C3151 H3159 0.929 . S
C3152 C3151 1.383 . S
C3152 C3153 1.377 . S
C3153 H3137 0.930 . S
C3153 C3152 1.377 . S
C3153 C3154 1.379 . S
C3154 H3138 0.931 . S
C3154 C3148 1.383 . S
C3154 C3153 1.379 . S
H3155 C3149 0.959 . S
H3156 C3149 0.961 . S
H3157 C3149 0.960 . S
H3158 C3150 0.930 . S
H3159 C3151 0.929 . S
H3160 C3168 0.929 . S
H3161 C3170 0.930 . S
H3162 C3172 0.930 . S
H3163 C3175 0.929 . S
H3164 C3178 0.930 . S
H3165 C3180 0.960 . S
H3166 C3180 0.960 . S
H3167 C3180 0.960 . S
C3168 H3160 0.929 . S
C3168 C3169 1.377 . S
C3168 C3170 1.384 . S
C3169 C3168 1.377 . S
C3169 C3175 1.390 . S
C3170 H3161 0.930 . S
C3170 C3168 1.384 . S
C3170 C3171 1.372 . S
C3171 C3170 1.372 . S
C3171 C3172 1.400 . S
C3171 C3176 1.490 . S
C3172 H3162 0.930 . S
C3172 C3171 1.400 . S
C3172 C3175 1.386 . S
H3173 C3189 0.930 . S
H3174 C3190 0.931 . S
C3175 H3163 0.929 . S
C3175 C3169 1.390 . S
C3175 C3172 1.386 . S
C3176 C3171 1.490 . S
C3176 C3178 1.395 . S
C3176 C3179 1.403 . S
H3177 C3183 0.930 . S
C3178 H3164 0.930 . S
C3178 C3176 1.395 . S
C3178 C3181 1.403 1_545 S
C3179 C3176 1.403 . S
C3179 C3180 1.524 . S
C3179 C3183 1.400 1_545 S
C3180 H3165 0.960 . S
C3180 H3166 0.960 . S
C3180 H3167 0.960 . S
C3180 C3179 1.524 . S
C3181 C3178 1.403 1_565 S
C3181 C3182 1.392 . S
C3181 C3185 1.495 . S
C3182 C3181 1.392 . S
C3182 C3183 1.385 . S
C3182 C3184 1.478 . S
C3183 H3177 0.930 . S
C3183 C3179 1.400 1_565 S
C3183 C3182 1.385 . S
C3184 C3182 1.478 . S
C3184 C3186 1.381 . S
C3184 C3190 1.383 . S
C3185 C3181 1.495 . S
C3185 H3191 0.971 . S
C3185 H3192 0.961 . S
C3185 H3193 0.960 . S
C3186 C3184 1.381 . S
C3186 C3187 1.394 . S
C3186 H3194 0.930 . S
C3187 C3186 1.394 . S
C3187 C3188 1.383 . S
C3187 H3195 0.929 . S
C3188 C3187 1.383 . S
C3188 C3189 1.377 . S
C3189 H3173 0.930 . S
C3189 C3188 1.377 . S
C3189 C3190 1.379 . S
C3190 H3174 0.931 . S
C3190 C3184 1.383 . S
C3190 C3189 1.379 . S
H3191 C3185 0.971 . S
H3192 C3185 0.961 . S
H3193 C3185 0.960 . S
H3194 C3186 0.930 . S
H3195 C3187 0.929 . S
H3196 C3204 0.929 . S
H3197 C3206 0.930 . S
H3198 C3208 0.930 . S
H3199 C3211 0.929 . S
H3200 C3214 0.930 . S
H3201 C3216 0.960 . S
H3202 C3216 0.960 . S
H3203 C3216 0.960 . S
C3204 H3196 0.929 . S
C3204 C3205 1.377 . S
C3204 C3206 1.384 . S
C3205 C3204 1.377 . S
C3205 C3211 1.390 . S
C3206 H3197 0.930 . S
C3206 C3204 1.384 . S
C3206 C3207 1.372 . S
C3207 C3206 1.372 . S
C3207 C3208 1.400 . S
C3207 C3212 1.490 . S
C3208 H3198 0.930 . S
C3208 C3207 1.400 . S
C3208 C3211 1.386 . S
H3209 C3225 0.930 . S
H3210 C3226 0.931 . S
C3211 H3199 0.929 . S
C3211 C3205 1.390 . S
C3211 C3208 1.386 . S
C3212 C3207 1.490 . S
C3212 C3214 1.395 1_556 S
C3212 C3215 1.403 . S
H3213 C3219 0.930 . S
C3214 H3200 0.930 . S
C3214 C3212 1.395 1_554 S
C3214 C3217 1.403 . S
C3215 C3212 1.403 . S
C3215 C3216 1.524 . S
C3215 C3219 1.400 . S
C3216 H3201 0.960 . S
C3216 H3202 0.960 . S
C3216 H3203 0.960 . S
C3216 C3215 1.524 . S
C3217 C3214 1.403 . S
C3217 C3218 1.392 . S
C3217 C3221 1.495 . S
C3218 C3217 1.392 . S
C3218 C3219 1.385 1_554 S
C3218 C3220 1.478 . S
C3219 H3213 0.930 . S
C3219 C3215 1.400 . S
C3219 C3218 1.385 1_556 S
C3220 C3218 1.478 . S
C3220 C3222 1.381 . S
C3220 C3226 1.383 . S
C3221 C3217 1.495 . S
C3221 H3227 0.959 . S
C3221 H3228 0.961 . S
C3221 H3229 0.960 . S
C3222 C3220 1.381 . S
C3222 C3223 1.394 . S
C3222 H3230 0.930 . S
C3223 C3222 1.394 . S
C3223 C3224 1.383 . S
C3223 H3231 0.929 . S
C3224 C3223 1.383 . S
C3224 C3225 1.377 . S
C3225 H3209 0.930 . S
C3225 C3224 1.377 . S
C3225 C3226 1.379 . S
C3226 H3210 0.931 . S
C3226 C3220 1.383 . S
C3226 C3225 1.379 . S
H3227 C3221 0.959 . S
H3228 C3221 0.961 . S
H3229 C3221 0.960 . S
H3230 C3222 0.930 . S
H3231 C3223 0.929 . S
H3232 C3240 0.929 . S
H3233 C3242 0.930 . S
H3234 C3244 0.930 . S
H3235 C3247 0.929 . S
H3236 C3250 0.930 . S
H3237 C3252 0.960 . S
H3238 C3252 0.960 . S
H3239 C3252 0.960 . S
C3240 H3232 0.929 . S
C3240 C3241 1.377 . S
C3240 C3242 1.384 . S
C3241 C3240 1.377 . S
C3241 C3247 1.390 . S
C3242 H3233 0.930 . S
C3242 C3240 1.384 . S
C3242 C3243 1.372 . S
C3243 C3242 1.372 . S
C3243 C3244 1.400 . S
C3243 C3248 1.490 . S
C3244 H3234 0.930 . S
C3244 C3243 1.400 . S
C3244 C3247 1.386 . S
H3245 C3261 0.930 . S
H3246 C3262 0.931 . S
C3247 H3235 0.929 . S
C3247 C3241 1.390 . S
C3247 C3244 1.386 . S
C3248 C3243 1.490 . S
C3248 C3250 1.395 . S
C3248 C3251 1.403 . S
H3249 C3255 0.930 . S
C3250 H3236 0.930 . S
C3250 C3248 1.395 . S
C3250 C3253 1.403 . S
C3251 C3248 1.403 . S
C3251 C3252 1.524 . S
C3251 C3255 1.400 . S
C3252 H3237 0.960 . S
C3252 H3238 0.960 . S
C3252 H3239 0.960 . S
C3252 C3251 1.524 . S
C3253 C3250 1.403 . S
C3253 C3254 1.392 . S
C3253 C3257 1.495 . S
C3254 C3253 1.392 . S
C3254 C3255 1.385 . S
C3254 C3256 1.478 . S
C3255 H3249 0.930 . S
C3255 C3251 1.400 . S
C3255 C3254 1.385 . S
C3256 C3254 1.478 . S
C3256 C3258 1.381 . S
C3256 C3262 1.383 . S
C3257 C3253 1.495 . S
C3257 H3263 0.959 . S
C3257 H3264 0.961 . S
C3257 H3265 0.960 . S
C3258 C3256 1.381 . S
C3258 C3259 1.394 . S
C3258 H3266 0.930 . S
C3259 C3258 1.394 . S
C3259 C3260 1.383 . S
C3259 H3267 0.929 . S
C3260 C3259 1.383 . S
C3260 C3261 1.377 . S
C3261 H3245 0.930 . S
C3261 C3260 1.377 . S
C3261 C3262 1.379 . S
C3262 H3246 0.931 . S
C3262 C3256 1.383 . S
C3262 C3261 1.379 . S
H3263 C3257 0.959 . S
H3264 C3257 0.961 . S
H3265 C3257 0.960 . S
H3266 C3258 0.930 . S
H3267 C3259 0.929 . S
H3268 C3276 0.929 . S
H3269 C3278 0.930 . S
H3270 C3280 0.930 . S
H3271 C3283 0.929 . S
H3272 C3286 0.930 . S
H3273 C3288 0.960 . S
H3274 C3288 0.960 . S
H3275 C3288 0.960 . S
C3276 H3268 0.929 . S
C3276 C3277 1.377 . S
C3276 C3278 1.384 . S
C3277 C3276 1.377 . S
C3277 C3283 1.390 . S
C3278 H3269 0.930 . S
C3278 C3276 1.384 . S
C3278 C3279 1.372 . S
C3279 C3278 1.372 . S
C3279 C3280 1.400 . S
C3279 C3284 1.490 . S
C3280 H3270 0.930 . S
C3280 C3279 1.400 . S
C3280 C3283 1.386 . S
H3281 C3297 0.930 . S
H3282 C3298 0.931 . S
C3283 H3271 0.929 . S
C3283 C3277 1.390 . S
C3283 C3280 1.386 . S
C3284 C3279 1.490 . S
C3284 C3286 1.395 1_556 S
C3284 C3287 1.403 . S
H3285 C3291 0.930 . S
C3286 H3272 0.930 . S
C3286 C3284 1.395 1_554 S
C3286 C3289 1.403 . S
C3287 C3284 1.403 . S
C3287 C3288 1.524 . S
C3287 C3291 1.400 . S
C3288 H3273 0.960 . S
C3288 H3274 0.960 . S
C3288 H3275 0.960 . S
C3288 C3287 1.524 . S
C3289 C3286 1.403 . S
C3289 C3290 1.392 . S
C3289 C3293 1.495 . S
C3290 C3289 1.392 . S
C3290 C3291 1.385 1_554 S
C3290 C3292 1.478 . S
C3291 H3285 0.930 . S
C3291 C3287 1.400 . S
C3291 C3290 1.385 1_556 S
C3292 C3290 1.478 . S
C3292 C3294 1.381 . S
C3292 C3298 1.383 . S
C3293 C3289 1.495 . S
C3293 H3299 0.959 . S
C3293 H3300 0.961 . S
C3293 H3301 0.960 . S
C3294 C3292 1.381 . S
C3294 C3295 1.394 . S
C3294 H3302 0.930 . S
C3295 C3294 1.394 . S
C3295 C3296 1.383 . S
C3295 H3303 0.929 . S
C3296 C3295 1.383 . S
C3296 C3297 1.377 . S
C3297 H3281 0.930 . S
C3297 C3296 1.377 . S
C3297 C3298 1.379 . S
C3298 H3282 0.931 . S
C3298 C3292 1.383 . S
C3298 C3297 1.379 . S
H3299 C3293 0.959 . S
H3300 C3293 0.961 . S
H3301 C3293 0.960 . S
H3302 C3294 0.930 . S
H3303 C3295 0.929 . S
H3304 C3312 0.929 . S
H3305 C3314 0.930 . S
H3306 C3316 0.930 . S
H3307 C3319 0.929 . S
H3308 C3322 0.930 . S
H3309 C3324 0.960 . S
H3310 C3324 0.960 . S
H3311 C3324 0.960 . S
C3312 H3304 0.929 . S
C3312 C3313 1.377 . S
C3312 C3314 1.384 . S
C3313 C3312 1.377 . S
C3313 C3319 1.390 . S
C3314 H3305 0.930 . S
C3314 C3312 1.384 . S
C3314 C3315 1.372 . S
C3315 C3314 1.372 . S
C3315 C3316 1.400 . S
C3315 C3320 1.490 . S
C3316 H3306 0.930 . S
C3316 C3315 1.400 . S
C3316 C3319 1.386 . S
H3317 C3333 0.930 . S
H3318 C3334 0.931 . S
C3319 H3307 0.929 . S
C3319 C3313 1.390 . S
C3319 C3316 1.386 . S
C3320 C3315 1.490 . S
C3320 C3322 1.395 . S
C3320 C3323 1.403 . S
H3321 C3327 0.930 . S
C3322 H3308 0.930 . S
C3322 C3320 1.395 . S
C3322 C3325 1.403 . S
C3323 C3320 1.403 . S
C3323 C3324 1.524 . S
C3323 C3327 1.400 . S
C3324 H3309 0.960 . S
C3324 H3310 0.960 . S
C3324 H3311 0.960 . S
C3324 C3323 1.524 . S
C3325 C3322 1.403 . S
C3325 C3326 1.392 . S
C3325 C3329 1.495 . S
C3326 C3325 1.392 . S
C3326 C3327 1.385 . S
C3326 C3328 1.478 . S
C3327 H3321 0.930 . S
C3327 C3323 1.400 . S
C3327 C3326 1.385 . S
C3328 C3326 1.478 . S
C3328 C3330 1.381 . S
C3328 C3334 1.383 . S
C3329 C3325 1.495 . S
C3329 H3335 0.959 . S
C3329 H3336 0.961 . S
C3329 H3337 0.960 . S
C3330 C3328 1.381 . S
C3330 C3331 1.394 . S
C3330 H3338 0.930 . S
C3331 C3330 1.394 . S
C3331 C3332 1.383 . S
C3331 H3339 0.929 . S
C3332 C3331 1.383 . S
C3332 C3333 1.377 . S
C3333 H3317 0.930 . S
C3333 C3332 1.377 . S
C3333 C3334 1.379 . S
C3334 H3318 0.931 . S
C3334 C3328 1.383 . S
C3334 C3333 1.379 . S
H3335 C3329 0.959 . S
H3336 C3329 0.961 . S
H3337 C3329 0.960 . S
H3338 C3330 0.930 . S
H3339 C3331 0.929 . S
H3340 C3348 0.929 . S
H3341 C3350 0.930 . S
H3342 C3352 0.930 . S
H3343 C3355 0.929 . S
H3344 C3358 0.930 . S
H3345 C3360 0.960 . S
H3346 C3360 0.960 . S
H3347 C3360 0.960 . S
C3348 H3340 0.929 . S
C3348 C3349 1.377 . S
C3348 C3350 1.384 . S
C3349 C3348 1.377 . S
C3349 C3355 1.390 . S
C3350 H3341 0.930 . S
C3350 C3348 1.384 . S
C3350 C3351 1.372 . S
C3351 C3350 1.372 . S
C3351 C3352 1.400 . S
C3351 C3356 1.490 . S
C3352 H3342 0.930 . S
C3352 C3351 1.400 . S
C3352 C3355 1.386 . S
H3353 C3369 0.930 . S
H3354 C3370 0.931 . S
C3355 H3343 0.929 . S
C3355 C3349 1.390 . S
C3355 C3352 1.386 . S
C3356 C3351 1.490 . S
C3356 C3358 1.395 . S
C3356 C3359 1.403 . S
H3357 C3363 0.930 . S
C3358 H3344 0.930 . S
C3358 C3356 1.395 . S
C3358 C3361 1.403 . S
C3359 C3356 1.403 . S
C3359 C3360 1.524 . S
C3359 C3363 1.400 . S
C3360 H3345 0.960 . S
C3360 H3346 0.960 . S
C3360 H3347 0.960 . S
C3360 C3359 1.524 . S
C3361 C3358 1.403 . S
C3361 C3362 1.392 . S
C3361 C3365 1.495 . S
C3362 C3361 1.392 . S
C3362 C3363 1.385 . S
C3362 C3364 1.478 . S
C3363 H3357 0.930 . S
C3363 C3359 1.400 . S
C3363 C3362 1.385 . S
C3364 C3362 1.478 . S
C3364 C3366 1.381 . S
C3364 C3370 1.383 . S
C3365 C3361 1.495 . S
C3365 H3371 0.959 . S
C3365 H3372 0.961 . S
C3365 H3373 0.960 . S
C3366 C3364 1.381 . S
C3366 C3367 1.394 . S
C3366 H3374 0.930 . S
C3367 C3366 1.394 . S
C3367 C3368 1.383 . S
C3367 H3375 0.929 . S
C3368 C3367 1.383 . S
C3368 C3369 1.377 . S
C3369 H3353 0.930 . S
C3369 C3368 1.377 . S
C3369 C3370 1.379 . S
C3370 H3354 0.931 . S
C3370 C3364 1.383 . S
C3370 C3369 1.379 . S
H3371 C3365 0.959 . S
H3372 C3365 0.961 . S
H3373 C3365 0.960 . S
H3374 C3366 0.930 . S
H3375 C3367 0.929 . S
H3376 C3384 0.929 . S
H3377 C3386 0.930 . S
H3378 C3388 0.930 . S
H3379 C3391 0.929 . S
H3380 C3394 0.930 . S
H3381 C3396 0.960 . S
H3382 C3396 0.960 . S
H3383 C3396 0.960 . S
C3384 H3376 0.929 . S
C3384 C3385 1.377 . S
C3384 C3386 1.384 . S
C3385 C3384 1.377 . S
C3385 C3391 1.390 . S
C3386 H3377 0.930 . S
C3386 C3384 1.384 . S
C3386 C3387 1.372 . S
C3387 C3386 1.372 . S
C3387 C3388 1.400 . S
C3387 C3392 1.490 . S
C3388 H3378 0.930 . S
C3388 C3387 1.400 . S
C3388 C3391 1.386 . S
H3389 C3405 0.930 . S
H3390 C3406 0.931 . S
C3391 H3379 0.929 . S
C3391 C3385 1.390 . S
C3391 C3388 1.386 . S
C3392 C3387 1.490 . S
C3392 C3394 1.395 . S
C3392 C3395 1.403 . S
H3393 C3399 0.930 . S
C3394 H3380 0.930 . S
C3394 C3392 1.395 . S
C3394 C3397 1.403 . S
C3395 C3392 1.403 . S
C3395 C3396 1.524 . S
C3395 C3399 1.400 . S
C3396 H3381 0.960 . S
C3396 H3382 0.960 . S
C3396 H3383 0.960 . S
C3396 C3395 1.524 . S
C3397 C3394 1.403 . S
C3397 C3398 1.392 . S
C3397 C3401 1.495 . S
C3398 C3397 1.392 . S
C3398 C3399 1.385 . S
C3398 C3400 1.478 . S
C3399 H3393 0.930 . S
C3399 C3395 1.400 . S
C3399 C3398 1.385 . S
C3400 C3398 1.478 . S
C3400 C3402 1.381 . S
C3400 C3406 1.383 . S
C3401 C3397 1.495 . S
C3401 H3407 0.959 . S
C3401 H3408 0.961 . S
C3401 H3409 0.960 . S
C3402 C3400 1.381 . S
C3402 C3403 1.394 . S
C3402 H3410 0.930 . S
C3403 C3402 1.394 . S
C3403 C3404 1.383 . S
C3403 H3411 0.929 . S
C3404 C3403 1.383 . S
C3404 C3405 1.377 . S
C3405 H3389 0.930 . S
C3405 C3404 1.377 . S
C3405 C3406 1.379 . S
C3406 H3390 0.931 . S
C3406 C3400 1.383 . S
C3406 C3405 1.379 . S
H3407 C3401 0.959 . S
H3408 C3401 0.961 . S
H3409 C3401 0.960 . S
H3410 C3402 0.930 . S
H3411 C3403 0.929 . S
H3412 C3420 0.929 . S
H3413 C3422 0.930 1_554 S
H3414 C3424 0.930 . S
H3415 C3427 0.929 . S
H3416 C3430 0.930 . S
H3417 C3432 0.960 . S
H3418 C3432 0.960 . S
H3419 C3432 0.960 . S
C3420 H3412 0.929 . S
C3420 C3421 1.377 . S
C3420 C3422 1.384 . S
C3421 C3420 1.377 . S
C3421 C3427 1.390 . S
C3422 H3413 0.930 1_556 S
C3422 C3420 1.384 . S
C3422 C3423 1.372 . S
C3423 C3422 1.372 . S
C3423 C3424 1.400 . S
C3423 C3428 1.490 . S
C3424 H3414 0.930 . S
C3424 C3423 1.400 . S
C3424 C3427 1.386 . S
H3425 C3441 0.930 . S
H3426 C3442 0.931 1_556 S
C3427 H3415 0.929 . S
C3427 C3421 1.390 . S
C3427 C3424 1.386 . S
C3428 C3423 1.490 . S
C3428 C3430 1.395 1_556 S
C3428 C3431 1.403 . S
H3429 C3435 0.930 . S
C3430 H3416 0.930 . S
C3430 C3428 1.395 1_554 S
C3430 C3433 1.403 . S
C3431 C3428 1.403 . S
C3431 C3432 1.524 . S
C3431 C3435 1.400 . S
C3432 H3417 0.960 . S
C3432 H3418 0.960 . S
C3432 H3419 0.960 . S
C3432 C3431 1.524 . S
C3433 C3430 1.403 . S
C3433 C3434 1.392 . S
C3433 C3437 1.495 . S
C3434 C3433 1.392 . S
C3434 C3435 1.385 1_554 S
C3434 C3436 1.478 . S
C3435 H3429 0.930 . S
C3435 C3431 1.400 . S
C3435 C3434 1.385 1_556 S
C3436 C3434 1.478 . S
C3436 C3438 1.381 . S
C3436 C3442 1.383 . S
C3437 C3433 1.495 . S
C3437 H3443 0.959 . S
C3437 H3444 0.961 . S
C3437 H3445 0.960 . S
C3438 C3436 1.381 . S
C3438 C3439 1.394 . S
C3438 H3446 0.930 . S
C3439 C3438 1.394 . S
C3439 C3440 1.383 . S
C3439 H3447 0.929 . S
C3440 C3439 1.383 . S
C3440 C3441 1.377 . S
C3441 H3425 0.930 . S
C3441 C3440 1.377 . S
C3441 C3442 1.379 . S
C3442 H3426 0.931 1_554 S
C3442 C3436 1.383 . S
C3442 C3441 1.379 . S
H3443 C3437 0.959 . S
H3444 C3437 0.961 . S
H3445 C3437 0.960 . S
H3446 C3438 0.930 . S
H3447 C3439 0.929 . S
H3448 C3456 0.929 . S
H3449 C3458 0.930 . S
H3450 C3460 0.930 . S
H3451 C3463 0.929 . S
H3452 C3466 0.930 . S
H3453 C3468 0.960 . S
H3454 C3468 0.960 . S
H3455 C3468 0.960 . S
C3456 H3448 0.929 . S
C3456 C3457 1.377 . S
C3456 C3458 1.384 . S
C3457 C3456 1.377 . S
C3457 C3463 1.390 . S
C3458 H3449 0.930 . S
C3458 C3456 1.384 . S
C3458 C3459 1.372 . S
C3459 C3458 1.372 . S
C3459 C3460 1.400 . S
C3459 C3464 1.490 . S
C3460 H3450 0.930 . S
C3460 C3459 1.400 . S
C3460 C3463 1.386 . S
H3461 C3477 0.930 . S
H3462 C3478 0.931 . S
C3463 H3451 0.929 . S
C3463 C3457 1.390 . S
C3463 C3460 1.386 . S
C3464 C3459 1.490 . S
C3464 C3466 1.395 . S
C3464 C3467 1.403 . S
H3465 C3471 0.930 . S
C3466 H3452 0.930 . S
C3466 C3464 1.395 . S
C3466 C3469 1.403 . S
C3467 C3464 1.403 . S
C3467 C3468 1.524 . S
C3467 C3471 1.400 . S
C3468 H3453 0.960 . S
C3468 H3454 0.960 . S
C3468 H3455 0.960 . S
C3468 C3467 1.524 . S
C3469 C3466 1.403 . S
C3469 C3470 1.392 . S
C3469 C3473 1.495 . S
C3470 C3469 1.392 . S
C3470 C3471 1.385 . S
C3470 C3472 1.478 . S
C3471 H3465 0.930 . S
C3471 C3467 1.400 . S
C3471 C3470 1.385 . S
C3472 C3470 1.478 . S
C3472 C3474 1.381 . S
C3472 C3478 1.383 . S
C3473 C3469 1.495 . S
C3473 H3479 0.959 . S
C3473 H3480 0.961 . S
C3473 H3481 0.960 . S
C3474 C3472 1.381 . S
C3474 C3475 1.394 . S
C3474 H3482 0.930 . S
C3475 C3474 1.394 . S
C3475 C3476 1.383 . S
C3475 H3483 0.929 . S
C3476 C3475 1.383 . S
C3476 C3477 1.377 . S
C3477 H3461 0.930 . S
C3477 C3476 1.377 . S
C3477 C3478 1.379 . S
C3478 H3462 0.931 . S
C3478 C3472 1.383 . S
C3478 C3477 1.379 . S
H3479 C3473 0.959 . S
H3480 C3473 0.961 . S
H3481 C3473 0.960 . S
H3482 C3474 0.930 . S
H3483 C3475 0.929 . S
H3484 C3492 0.929 . S
H3485 C3494 0.930 . S
H3486 C3496 0.930 . S
H3487 C3499 0.929 . S
H3488 C3502 0.930 . S
H3489 C3504 0.960 . S
H3490 C3504 0.960 . S
H3491 C3504 0.960 . S
C3492 H3484 0.929 . S
C3492 C3493 1.377 . S
C3492 C3494 1.384 . S
C3493 C3492 1.377 . S
C3493 C3499 1.390 . S
C3494 H3485 0.930 . S
C3494 C3492 1.384 . S
C3494 C3495 1.372 . S
C3495 C3494 1.372 . S
C3495 C3496 1.400 . S
C3495 C3500 1.490 . S
C3496 H3486 0.930 . S
C3496 C3495 1.400 . S
C3496 C3499 1.386 . S
H3497 C3513 0.930 . S
H3498 C3514 0.931 . S
C3499 H3487 0.929 . S
C3499 C3493 1.390 . S
C3499 C3496 1.386 . S
C3500 C3495 1.490 . S
C3500 C3502 1.395 . S
C3500 C3503 1.403 . S
H3501 C3507 0.930 . S
C3502 H3488 0.930 . S
C3502 C3500 1.395 . S
C3502 C3505 1.403 . S
C3503 C3500 1.403 . S
C3503 C3504 1.524 . S
C3503 C3507 1.400 . S
C3504 H3489 0.960 . S
C3504 H3490 0.960 . S
C3504 H3491 0.960 . S
C3504 C3503 1.524 . S
C3505 C3502 1.403 . S
C3505 C3506 1.392 . S
C3505 C3509 1.495 . S
C3506 C3505 1.392 . S
C3506 C3507 1.385 . S
C3506 C3508 1.478 . S
C3507 H3501 0.930 . S
C3507 C3503 1.400 . S
C3507 C3506 1.385 . S
C3508 C3506 1.478 . S
C3508 C3510 1.381 . S
C3508 C3514 1.383 . S
C3509 C3505 1.495 . S
C3509 H3515 0.959 . S
C3509 H3516 0.961 . S
C3509 H3517 0.960 . S
C3510 C3508 1.381 . S
C3510 C3511 1.394 . S
C3510 H3518 0.930 . S
C3511 C3510 1.394 . S
C3511 C3512 1.383 . S
C3511 H3519 0.929 . S
C3512 C3511 1.383 . S
C3512 C3513 1.377 . S
C3513 H3497 0.930 . S
C3513 C3512 1.377 . S
C3513 C3514 1.379 . S
C3514 H3498 0.931 . S
C3514 C3508 1.383 . S
C3514 C3513 1.379 . S
H3515 C3509 0.959 . S
H3516 C3509 0.961 . S
H3517 C3509 0.960 . S
H3518 C3510 0.930 . S
H3519 C3511 0.929 . S
H3520 C3528 0.929 . S
H3521 C3530 0.930 . S
H3522 C3532 0.930 . S
H3523 C3535 0.929 . S
H3524 C3538 0.930 . S
H3525 C3540 0.960 . S
H3526 C3540 0.960 . S
H3527 C3540 0.960 . S
C3528 H3520 0.929 . S
C3528 C3529 1.377 . S
C3528 C3530 1.384 . S
C3529 C3528 1.377 . S
C3529 C3535 1.390 . S
C3530 H3521 0.930 . S
C3530 C3528 1.384 . S
C3530 C3531 1.372 . S
C3531 C3530 1.372 . S
C3531 C3532 1.400 . S
C3531 C3536 1.490 . S
C3532 H3522 0.930 . S
C3532 C3531 1.400 . S
C3532 C3535 1.386 . S
H3533 C3549 0.930 . S
H3534 C3550 0.931 . S
C3535 H3523 0.929 . S
C3535 C3529 1.390 . S
C3535 C3532 1.386 . S
C3536 C3531 1.490 . S
C3536 C3538 1.395 . S
C3536 C3539 1.403 . S
H3537 C3543 0.930 . S
C3538 H3524 0.930 . S
C3538 C3536 1.395 . S
C3538 C3541 1.403 . S
C3539 C3536 1.403 . S
C3539 C3540 1.524 . S
C3539 C3543 1.400 . S
C3540 H3525 0.960 . S
C3540 H3526 0.960 . S
C3540 H3527 0.960 . S
C3540 C3539 1.524 . S
C3541 C3538 1.403 . S
C3541 C3542 1.392 . S
C3541 C3545 1.495 . S
C3542 C3541 1.392 . S
C3542 C3543 1.385 . S
C3542 C3544 1.478 . S
C3543 H3537 0.930 . S
C3543 C3539 1.400 . S
C3543 C3542 1.385 . S
C3544 C3542 1.478 . S
C3544 C3546 1.381 . S
C3544 C3550 1.383 . S
C3545 C3541 1.495 . S
C3545 H3551 0.959 . S
C3545 H3552 0.961 . S
C3545 H3553 0.960 . S
C3546 C3544 1.381 . S
C3546 C3547 1.394 . S
C3546 H3554 0.930 . S
C3547 C3546 1.394 . S
C3547 C3548 1.383 . S
C3547 H3555 0.929 . S
C3548 C3547 1.383 . S
C3548 C3549 1.377 . S
C3549 H3533 0.930 . S
C3549 C3548 1.377 . S
C3549 C3550 1.379 . S
C3550 H3534 0.931 . S
C3550 C3544 1.383 . S
C3550 C3549 1.379 . S
H3551 C3545 0.959 . S
H3552 C3545 0.961 . S
H3553 C3545 0.960 . S
H3554 C3546 0.930 . S
H3555 C3547 0.929 . S
H3556 C3564 0.929 . S
H3557 C3566 0.930 . S
H3558 C3568 0.930 . S
H3559 C3571 0.929 . S
H3560 C3574 0.930 . S
H3561 C3576 0.960 . S
H3562 C3576 0.960 . S
H3563 C3576 0.960 . S
C3564 H3556 0.929 . S
C3564 C3565 1.377 . S
C3564 C3566 1.384 . S
C3565 C3564 1.377 . S
C3565 C3571 1.390 . S
C3566 H3557 0.930 . S
C3566 C3564 1.384 . S
C3566 C3567 1.372 . S
C3567 C3566 1.372 . S
C3567 C3568 1.400 . S
C3567 C3572 1.490 . S
C3568 H3558 0.930 . S
C3568 C3567 1.400 . S
C3568 C3571 1.386 . S
H3569 C3585 0.930 . S
H3570 C3586 0.931 . S
C3571 H3559 0.929 . S
C3571 C3565 1.390 . S
C3571 C3568 1.386 . S
C3572 C3567 1.490 . S
C3572 C3574 1.395 . S
C3572 C3575 1.403 . S
H3573 C3579 0.930 . S
C3574 H3560 0.930 . S
C3574 C3572 1.395 . S
C3574 C3577 1.403 . S
C3575 C3572 1.403 . S
C3575 C3576 1.524 . S
C3575 C3579 1.400 . S
C3576 H3561 0.960 . S
C3576 H3562 0.960 . S
C3576 H3563 0.960 . S
C3576 C3575 1.524 . S
C3577 C3574 1.403 . S
C3577 C3578 1.392 . S
C3577 C3581 1.495 . S
C3578 C3577 1.392 . S
C3578 C3579 1.385 . S
C3578 C3580 1.478 . S
C3579 H3573 0.930 . S
C3579 C3575 1.400 . S
C3579 C3578 1.385 . S
C3580 C3578 1.478 . S
C3580 C3582 1.381 . S
C3580 C3586 1.383 . S
C3581 C3577 1.495 . S
C3581 H3587 0.959 . S
C3581 H3588 0.961 . S
C3581 H3589 0.960 . S
C3582 C3580 1.381 . S
C3582 C3583 1.394 . S
C3582 H3590 0.930 . S
C3583 C3582 1.394 . S
C3583 C3584 1.383 . S
C3583 H3591 0.929 . S
C3584 C3583 1.383 . S
C3584 C3585 1.377 . S
C3585 H3569 0.930 . S
C3585 C3584 1.377 . S
C3585 C3586 1.379 . S
C3586 H3570 0.931 . S
C3586 C3580 1.383 . S
C3586 C3585 1.379 . S
H3587 C3581 0.959 . S
H3588 C3581 0.961 . S
H3589 C3581 0.960 . S
H3590 C3582 0.930 . S
H3591 C3583 0.929 . S
H3592 C3600 0.929 . S
H3593 C3602 0.930 . S
H3594 C3604 0.930 . S
H3595 C3607 0.929 . S
H3596 C3610 0.930 . S
H3597 C3612 0.960 . S
H3598 C3612 0.960 . S
H3599 C3612 0.960 . S
C3600 H3592 0.929 . S
C3600 C3601 1.377 . S
C3600 C3602 1.384 . S
C3601 C3600 1.377 . S
C3601 C3607 1.390 . S
C3602 H3593 0.930 . S
C3602 C3600 1.384 . S
C3602 C3603 1.372 . S
C3603 C3602 1.372 . S
C3603 C3604 1.400 . S
C3603 C3608 1.490 . S
C3604 H3594 0.930 . S
C3604 C3603 1.400 . S
C3604 C3607 1.386 . S
H3605 C3621 0.930 . S
H3606 C3622 0.931 . S
C3607 H3595 0.929 . S
C3607 C3601 1.390 . S
C3607 C3604 1.386 . S
C3608 C3603 1.490 . S
C3608 C3610 1.395 . S
C3608 C3611 1.403 . S
H3609 C3615 0.930 . S
C3610 H3596 0.930 . S
C3610 C3608 1.395 . S
C3610 C3613 1.403 . S
C3611 C3608 1.403 . S
C3611 C3612 1.524 . S
C3611 C3615 1.400 . S
C3612 H3597 0.960 . S
C3612 H3598 0.960 . S
C3612 H3599 0.960 . S
C3612 C3611 1.524 . S
C3613 C3610 1.403 . S
C3613 C3614 1.392 . S
C3613 C3617 1.495 . S
C3614 C3613 1.392 . S
C3614 C3615 1.385 . S
C3614 C3616 1.478 . S
C3615 H3609 0.930 . S
C3615 C3611 1.400 . S
C3615 C3614 1.385 . S
C3616 C3614 1.478 . S
C3616 C3618 1.381 . S
C3616 C3622 1.383 . S
C3617 C3613 1.495 . S
C3617 H3623 0.959 . S
C3617 H3624 0.961 . S
C3617 H3625 0.960 . S
C3618 C3616 1.381 . S
C3618 C3619 1.394 . S
C3618 H3626 0.930 . S
C3619 C3618 1.394 . S
C3619 C3620 1.383 . S
C3619 H3627 0.929 . S
C3620 C3619 1.383 . S
C3620 C3621 1.377 . S
C3621 H3605 0.930 . S
C3621 C3620 1.377 . S
C3621 C3622 1.379 . S
C3622 H3606 0.931 . S
C3622 C3616 1.383 . S
C3622 C3621 1.379 . S
H3623 C3617 0.959 . S
H3624 C3617 0.961 . S
H3625 C3617 0.960 . S
H3626 C3618 0.930 . S
H3627 C3619 0.929 . S
H3628 C3636 0.929 . S
H3629 C3638 0.930 . S
H3630 C3640 0.930 . S
H3631 C3643 0.929 . S
H3632 C3646 0.930 . S
H3633 C3648 0.960 . S
H3634 C3648 0.960 . S
H3635 C3648 0.960 . S
C3636 H3628 0.929 . S
C3636 C3637 1.377 . S
C3636 C3638 1.384 . S
C3637 C3636 1.377 . S
C3637 C3643 1.390 . S
C3638 H3629 0.930 . S
C3638 C3636 1.384 . S
C3638 C3639 1.372 . S
C3639 C3638 1.372 . S
C3639 C3640 1.400 . S
C3639 C3644 1.490 . S
C3640 H3630 0.930 . S
C3640 C3639 1.400 . S
C3640 C3643 1.386 . S
H3641 C3657 0.930 . S
H3642 C3658 0.931 . S
C3643 H3631 0.929 . S
C3643 C3637 1.390 . S
C3643 C3640 1.386 . S
C3644 C3639 1.490 . S
C3644 C3646 1.395 . S
C3644 C3647 1.403 . S
H3645 C3651 0.930 . S
C3646 H3632 0.930 . S
C3646 C3644 1.395 . S
C3646 C3649 1.403 . S
C3647 C3644 1.403 . S
C3647 C3648 1.524 . S
C3647 C3651 1.400 . S
C3648 H3633 0.960 . S
C3648 H3634 0.960 . S
C3648 H3635 0.960 . S
C3648 C3647 1.524 . S
C3649 C3646 1.403 . S
C3649 C3650 1.392 . S
C3649 C3653 1.495 . S
C3650 C3649 1.392 . S
C3650 C3651 1.385 . S
C3650 C3652 1.478 . S
C3651 H3645 0.930 . S
C3651 C3647 1.400 . S
C3651 C3650 1.385 . S
C3652 C3650 1.478 . S
C3652 C3654 1.381 . S
C3652 C3658 1.383 . S
C3653 C3649 1.495 . S
C3653 H3659 0.959 . S
C3653 H3660 0.961 . S
C3653 H3661 0.960 . S
C3654 C3652 1.381 . S
C3654 C3655 1.394 . S
C3654 H3662 0.930 . S
C3655 C3654 1.394 . S
C3655 C3656 1.383 . S
C3655 H3663 0.929 . S
C3656 C3655 1.383 . S
C3656 C3657 1.377 . S
C3657 H3641 0.930 . S
C3657 C3656 1.377 . S
C3657 C3658 1.379 . S
C3658 H3642 0.931 . S
C3658 C3652 1.383 . S
C3658 C3657 1.379 . S
H3659 C3653 0.959 . S
H3660 C3653 0.961 . S
H3661 C3653 0.960 . S
H3662 C3654 0.930 . S
H3663 C3655 0.929 . S
H3664 C3672 0.929 . S
H3665 C3674 0.930 . S
H3666 C3676 0.930 . S
H3667 C3679 0.929 . S
H3668 C3682 0.930 . S
H3669 C3684 0.960 . S
H3670 C3684 0.960 . S
H3671 C3684 0.960 . S
C3672 H3664 0.929 . S
C3672 C3673 1.377 . S
C3672 C3674 1.384 . S
C3673 C3672 1.377 . S
C3673 C3679 1.390 . S
C3674 H3665 0.930 . S
C3674 C3672 1.384 . S
C3674 C3675 1.372 . S
C3675 C3674 1.372 . S
C3675 C3676 1.400 . S
C3675 C3680 1.490 . S
C3676 H3666 0.930 . S
C3676 C3675 1.400 . S
C3676 C3679 1.386 . S
H3677 C3693 0.930 . S
H3678 C3694 0.931 . S
C3679 H3667 0.929 . S
C3679 C3673 1.390 . S
C3679 C3676 1.386 . S
C3680 C3675 1.490 . S
C3680 C3682 1.395 . S
C3680 C3683 1.403 . S
H3681 C3687 0.930 . S
C3682 H3668 0.930 . S
C3682 C3680 1.395 . S
C3682 C3685 1.403 . S
C3683 C3680 1.403 . S
C3683 C3684 1.524 . S
C3683 C3687 1.400 . S
C3684 H3669 0.960 . S
C3684 H3670 0.960 . S
C3684 H3671 0.960 . S
C3684 C3683 1.524 . S
C3685 C3682 1.403 . S
C3685 C3686 1.392 . S
C3685 C3689 1.495 . S
C3686 C3685 1.392 . S
C3686 C3687 1.385 . S
C3686 C3688 1.478 . S
C3687 H3681 0.930 . S
C3687 C3683 1.400 . S
C3687 C3686 1.385 . S
C3688 C3686 1.478 . S
C3688 C3690 1.381 . S
C3688 C3694 1.383 . S
C3689 C3685 1.495 . S
C3689 H3695 0.959 . S
C3689 H3696 0.961 . S
C3689 H3697 0.960 . S
C3690 C3688 1.381 . S
C3690 C3691 1.394 . S
C3690 H3698 0.930 . S
C3691 C3690 1.394 . S
C3691 C3692 1.383 . S
C3691 H3699 0.929 . S
C3692 C3691 1.383 . S
C3692 C3693 1.377 . S
C3693 H3677 0.930 . S
C3693 C3692 1.377 . S
C3693 C3694 1.379 . S
C3694 H3678 0.931 . S
C3694 C3688 1.383 . S
C3694 C3693 1.379 . S
H3695 C3689 0.959 . S
H3696 C3689 0.961 . S
H3697 C3689 0.960 . S
H3698 C3690 0.930 . S
H3699 C3691 0.929 . S
H3700 C3708 0.929 . S
H3701 C3710 0.930 . S
H3702 C3712 0.930 . S
H3703 C3715 0.929 . S
H3704 C3718 0.930 . S
H3705 C3720 0.960 . S
H3706 C3720 0.960 . S
H3707 C3720 0.960 . S
C3708 H3700 0.929 . S
C3708 C3709 1.377 . S
C3708 C3710 1.384 . S
C3709 C3708 1.377 . S
C3709 C3715 1.390 . S
C3710 H3701 0.930 . S
C3710 C3708 1.384 . S
C3710 C3711 1.372 . S
C3711 C3710 1.372 . S
C3711 C3712 1.400 . S
C3711 C3716 1.490 . S
C3712 H3702 0.930 . S
C3712 C3711 1.400 . S
C3712 C3715 1.386 . S
H3713 C3729 0.930 . S
H3714 C3730 0.931 . S
C3715 H3703 0.929 . S
C3715 C3709 1.390 . S
C3715 C3712 1.386 . S
C3716 C3711 1.490 . S
C3716 C3718 1.395 . S
C3716 C3719 1.403 . S
H3717 C3723 0.930 . S
C3718 H3704 0.930 . S
C3718 C3716 1.395 . S
C3718 C3721 1.403 . S
C3719 C3716 1.403 . S
C3719 C3720 1.524 . S
C3719 C3723 1.400 . S
C3720 H3705 0.960 . S
C3720 H3706 0.960 . S
C3720 H3707 0.960 . S
C3720 C3719 1.524 . S
C3721 C3718 1.403 . S
C3721 C3722 1.392 . S
C3721 C3725 1.495 . S
C3722 C3721 1.392 . S
C3722 C3723 1.385 . S
C3722 C3724 1.478 . S
C3723 H3717 0.930 . S
C3723 C3719 1.400 . S
C3723 C3722 1.385 . S
C3724 C3722 1.478 . S
C3724 C3726 1.381 . S
C3724 C3730 1.383 . S
C3725 C3721 1.495 . S
C3725 H3731 0.959 . S
C3725 H3732 0.961 . S
C3725 H3733 0.960 . S
C3726 C3724 1.381 . S
C3726 C3727 1.394 . S
C3726 H3734 0.930 . S
C3727 C3726 1.394 . S
C3727 C3728 1.383 . S
C3727 H3735 0.929 . S
C3728 C3727 1.383 . S
C3728 C3729 1.377 . S
C3729 H3713 0.930 . S
C3729 C3728 1.377 . S
C3729 C3730 1.379 . S
C3730 H3714 0.931 . S
C3730 C3724 1.383 . S
C3730 C3729 1.379 . S
H3731 C3725 0.959 . S
H3732 C3725 0.961 . S
H3733 C3725 0.960 . S
H3734 C3726 0.930 . S
H3735 C3727 0.929 . S
H3736 C3744 0.929 . S
H3737 C3746 0.930 . S
H3738 C3748 0.930 . S
H3739 C3751 0.929 . S
H3740 C3754 0.930 . S
H3741 C3756 0.960 . S
H3742 C3756 0.960 . S
H3743 C3756 0.960 . S
C3744 H3736 0.929 . S
C3744 C3745 1.377 . S
C3744 C3746 1.384 . S
C3745 C3744 1.377 . S
C3745 C3751 1.390 . S
C3746 H3737 0.930 . S
C3746 C3744 1.384 . S
C3746 C3747 1.372 . S
C3747 C3746 1.372 . S
C3747 C3748 1.400 . S
C3747 C3752 1.490 . S
C3748 H3738 0.930 . S
C3748 C3747 1.400 . S
C3748 C3751 1.386 . S
H3749 C3765 0.930 . S
H3750 C3766 0.931 . S
C3751 H3739 0.929 . S
C3751 C3745 1.390 . S
C3751 C3748 1.386 . S
C3752 C3747 1.490 . S
C3752 C3754 1.395 . S
C3752 C3755 1.403 . S
H3753 C3759 0.930 . S
C3754 H3740 0.930 . S
C3754 C3752 1.395 . S
C3754 C3757 1.403 . S
C3755 C3752 1.403 . S
C3755 C3756 1.524 . S
C3755 C3759 1.400 . S
C3756 H3741 0.960 . S
C3756 H3742 0.960 . S
C3756 H3743 0.960 . S
C3756 C3755 1.524 . S
C3757 C3754 1.403 . S
C3757 C3758 1.392 . S
C3757 C3761 1.495 . S
C3758 C3757 1.392 . S
C3758 C3759 1.385 . S
C3758 C3760 1.478 . S
C3759 H3753 0.930 . S
C3759 C3755 1.400 . S
C3759 C3758 1.385 . S
C3760 C3758 1.478 . S
C3760 C3762 1.381 . S
C3760 C3766 1.383 . S
C3761 C3757 1.495 . S
C3761 H3767 0.959 . S
C3761 H3768 0.961 . S
C3761 H3769 0.960 . S
C3762 C3760 1.381 . S
C3762 C3763 1.394 . S
C3762 H3770 0.930 . S
C3763 C3762 1.394 . S
C3763 C3764 1.383 . S
C3763 H3771 0.929 . S
C3764 C3763 1.383 . S
C3764 C3765 1.377 . S
C3765 H3749 0.930 . S
C3765 C3764 1.377 . S
C3765 C3766 1.379 . S
C3766 H3750 0.931 . S
C3766 C3760 1.383 . S
C3766 C3765 1.379 . S
H3767 C3761 0.959 . S
H3768 C3761 0.961 . S
H3769 C3761 0.960 . S
H3770 C3762 0.930 . S
H3771 C3763 0.929 . S
H3772 C3780 0.929 . S
H3773 C3782 0.930 . S
H3774 C3784 0.930 . S
H3775 C3787 0.929 . S
H3776 C3790 0.930 . S
H3777 C3792 0.960 . S
H3778 C3792 0.960 . S
H3779 C3792 0.960 . S
C3780 H3772 0.929 . S
C3780 C3781 1.377 . S
C3780 C3782 1.384 . S
C3781 C3780 1.377 . S
C3781 C3787 1.390 . S
C3782 H3773 0.930 . S
C3782 C3780 1.384 . S
C3782 C3783 1.372 . S
C3783 C3782 1.372 . S
C3783 C3784 1.400 . S
C3783 C3788 1.490 . S
C3784 H3774 0.930 . S
C3784 C3783 1.400 . S
C3784 C3787 1.386 . S
H3785 C3801 0.930 . S
H3786 C3802 0.931 . S
C3787 H3775 0.929 . S
C3787 C3781 1.390 . S
C3787 C3784 1.386 . S
C3788 C3783 1.490 . S
C3788 C3790 1.395 . S
C3788 C3791 1.403 . S
H3789 C3795 0.930 . S
C3790 H3776 0.930 . S
C3790 C3788 1.395 . S
C3790 C3793 1.403 . S
C3791 C3788 1.403 . S
C3791 C3792 1.524 . S
C3791 C3795 1.400 . S
C3792 H3777 0.960 . S
C3792 H3778 0.960 . S
C3792 H3779 0.960 . S
C3792 C3791 1.524 . S
C3793 C3790 1.403 . S
C3793 C3794 1.392 . S
C3793 C3797 1.495 . S
C3794 C3793 1.392 . S
C3794 C3795 1.385 . S
C3794 C3796 1.478 . S
C3795 H3789 0.930 . S
C3795 C3791 1.400 . S
C3795 C3794 1.385 . S
C3796 C3794 1.478 . S
C3796 C3798 1.381 . S
C3796 C3802 1.383 . S
C3797 C3793 1.495 . S
C3797 H3803 0.959 . S
C3797 H3804 0.961 . S
C3797 H3805 0.960 . S
C3798 C3796 1.381 . S
C3798 C3799 1.394 . S
C3798 H3806 0.930 . S
C3799 C3798 1.394 . S
C3799 C3800 1.383 . S
C3799 H3807 0.929 . S
C3800 C3799 1.383 . S
C3800 C3801 1.377 . S
C3801 H3785 0.930 . S
C3801 C3800 1.377 . S
C3801 C3802 1.379 . S
C3802 H3786 0.931 . S
C3802 C3796 1.383 . S
C3802 C3801 1.379 . S
H3803 C3797 0.959 . S
H3804 C3797 0.961 . S
H3805 C3797 0.960 . S
H3806 C3798 0.930 . S
H3807 C3799 0.929 . S
H3808 C3816 0.929 . S
H3809 C3818 0.930 . S
H3810 C3820 0.930 . S
H3811 C3823 0.929 . S
H3812 C3826 0.930 . S
H3813 C3828 0.960 . S
H3814 C3828 0.960 . S
H3815 C3828 0.960 . S
C3816 H3808 0.929 . S
C3816 C3817 1.377 . S
C3816 C3818 1.384 . S
C3817 C3816 1.377 . S
C3817 C3823 1.390 . S
C3818 H3809 0.930 . S
C3818 C3816 1.384 . S
C3818 C3819 1.372 . S
C3819 C3818 1.372 . S
C3819 C3820 1.400 . S
C3819 C3824 1.490 . S
C3820 H3810 0.930 . S
C3820 C3819 1.400 . S
C3820 C3823 1.386 . S
H3821 C3837 0.930 . S
H3822 C3838 0.931 . S
C3823 H3811 0.929 . S
C3823 C3817 1.390 . S
C3823 C3820 1.386 . S
C3824 C3819 1.490 . S
C3824 C3826 1.395 . S
C3824 C3827 1.403 . S
H3825 C3831 0.930 . S
C3826 H3812 0.930 . S
C3826 C3824 1.395 . S
C3826 C3829 1.403 . S
C3827 C3824 1.403 . S
C3827 C3828 1.524 . S
C3827 C3831 1.400 . S
C3828 H3813 0.960 . S
C3828 H3814 0.960 . S
C3828 H3815 0.960 . S
C3828 C3827 1.524 . S
C3829 C3826 1.403 . S
C3829 C3830 1.392 . S
C3829 C3833 1.495 . S
C3830 C3829 1.392 . S
C3830 C3831 1.385 . S
C3830 C3832 1.478 . S
C3831 H3825 0.930 . S
C3831 C3827 1.400 . S
C3831 C3830 1.385 . S
C3832 C3830 1.478 . S
C3832 C3834 1.381 . S
C3832 C3838 1.383 . S
C3833 C3829 1.495 . S
C3833 H3839 0.959 . S
C3833 H3840 0.961 . S
C3833 H3841 0.960 . S
C3834 C3832 1.381 . S
C3834 C3835 1.394 . S
C3834 H3842 0.930 . S
C3835 C3834 1.394 . S
C3835 C3836 1.383 . S
C3835 H3843 0.929 . S
C3836 C3835 1.383 . S
C3836 C3837 1.377 . S
C3837 H3821 0.930 . S
C3837 C3836 1.377 . S
C3837 C3838 1.379 . S
C3838 H3822 0.931 . S
C3838 C3832 1.383 . S
C3838 C3837 1.379 . S
H3839 C3833 0.959 . S
H3840 C3833 0.961 . S
H3841 C3833 0.960 . S
H3842 C3834 0.930 . S
H3843 C3835 0.929 . S
H3844 C3852 0.929 . S
H3845 C3854 0.930 . S
H3846 C3856 0.930 . S
H3847 C3859 0.929 . S
H3848 C3862 0.930 . S
H3849 C3864 0.960 . S
H3850 C3864 0.960 . S
H3851 C3864 0.960 . S
C3852 H3844 0.929 . S
C3852 C3853 1.377 . S
C3852 C3854 1.384 . S
C3853 C3852 1.377 . S
C3853 C3859 1.390 . S
C3854 H3845 0.930 . S
C3854 C3852 1.384 . S
C3854 C3855 1.372 . S
C3855 C3854 1.372 . S
C3855 C3856 1.400 . S
C3855 C3860 1.490 . S
C3856 H3846 0.930 . S
C3856 C3855 1.400 . S
C3856 C3859 1.386 . S
H3857 C3873 0.930 . S
H3858 C3874 0.931 . S
C3859 H3847 0.929 . S
C3859 C3853 1.390 . S
C3859 C3856 1.386 . S
C3860 C3855 1.490 . S
C3860 C3862 1.395 . S
C3860 C3863 1.403 . S
H3861 C3867 0.930 . S
C3862 H3848 0.930 . S
C3862 C3860 1.395 . S
C3862 C3865 1.403 . S
C3863 C3860 1.403 . S
C3863 C3864 1.524 . S
C3863 C3867 1.400 . S
C3864 H3849 0.960 . S
C3864 H3850 0.960 . S
C3864 H3851 0.960 . S
C3864 C3863 1.524 . S
C3865 C3862 1.403 . S
C3865 C3866 1.392 . S
C3865 C3869 1.495 . S
C3866 C3865 1.392 . S
C3866 C3867 1.385 . S
C3866 C3868 1.478 . S
C3867 H3861 0.930 . S
C3867 C3863 1.400 . S
C3867 C3866 1.385 . S
C3868 C3866 1.478 . S
C3868 C3870 1.381 . S
C3868 C3874 1.383 . S
C3869 C3865 1.495 . S
C3869 H3875 0.959 . S
C3869 H3876 0.961 . S
C3869 H3877 0.960 . S
C3870 C3868 1.381 . S
C3870 C3871 1.394 . S
C3870 H3878 0.930 . S
C3871 C3870 1.394 . S
C3871 C3872 1.383 . S
C3871 H3879 0.929 . S
C3872 C3871 1.383 . S
C3872 C3873 1.377 . S
C3873 H3857 0.930 . S
C3873 C3872 1.377 . S
C3873 C3874 1.379 . S
C3874 H3858 0.931 . S
C3874 C3868 1.383 . S
C3874 C3873 1.379 . S
H3875 C3869 0.959 . S
H3876 C3869 0.961 . S
H3877 C3869 0.960 . S
H3878 C3870 0.930 . S
H3879 C3871 0.929 . S
H3880 C3888 0.929 . S
H3881 C3890 0.930 . S
H3882 C3892 0.930 . S
H3883 C3895 0.929 . S
H3884 C3898 0.930 . S
H3885 C3900 0.960 . S
H3886 C3900 0.960 . S
H3887 C3900 0.960 . S
C3888 H3880 0.929 . S
C3888 C3889 1.377 . S
C3888 C3890 1.384 . S
C3889 C3888 1.377 . S
C3889 C3895 1.390 . S
C3890 H3881 0.930 . S
C3890 C3888 1.384 . S
C3890 C3891 1.372 . S
C3891 C3890 1.372 . S
C3891 C3892 1.400 . S
C3891 C3896 1.490 . S
C3892 H3882 0.930 . S
C3892 C3891 1.400 . S
C3892 C3895 1.386 . S
H3893 C3909 0.930 . S
H3894 C3910 0.931 . S
C3895 H3883 0.929 . S
C3895 C3889 1.390 . S
C3895 C3892 1.386 . S
C3896 C3891 1.490 . S
C3896 C3898 1.395 . S
C3896 C3899 1.403 . S
H3897 C3903 0.930 . S
C3898 H3884 0.930 . S
C3898 C3896 1.395 . S
C3898 C3901 1.403 . S
C3899 C3896 1.403 . S
C3899 C3900 1.524 . S
C3899 C3903 1.400 . S
C3900 H3885 0.960 . S
C3900 H3886 0.960 . S
C3900 H3887 0.960 . S
C3900 C3899 1.524 . S
C3901 C3898 1.403 . S
C3901 C3902 1.392 . S
C3901 C3905 1.495 . S
C3902 C3901 1.392 . S
C3902 C3903 1.385 . S
C3902 C3904 1.478 . S
C3903 H3897 0.930 . S
C3903 C3899 1.400 . S
C3903 C3902 1.385 . S
C3904 C3902 1.478 . S
C3904 C3906 1.381 . S
C3904 C3910 1.383 . S
C3905 C3901 1.495 . S
C3905 H3911 0.959 . S
C3905 H3912 0.961 . S
C3905 H3913 0.960 . S
C3906 C3904 1.381 . S
C3906 C3907 1.394 . S
C3906 H3914 0.930 . S
C3907 C3906 1.394 . S
C3907 C3908 1.383 . S
C3907 H3915 0.929 . S
C3908 C3907 1.383 . S
C3908 C3909 1.377 . S
C3909 H3893 0.930 . S
C3909 C3908 1.377 . S
C3909 C3910 1.379 . S
C3910 H3894 0.931 . S
C3910 C3904 1.383 . S
C3910 C3909 1.379 . S
H3911 C3905 0.959 . S
H3912 C3905 0.961 . S
H3913 C3905 0.960 . S
H3914 C3906 0.930 . S
H3915 C3907 0.929 . S
H3916 C3924 0.929 . S
H3917 C3926 0.930 . S
H3918 C3928 0.930 . S
H3919 C3931 0.929 . S
H3920 C3934 0.930 . S
H3921 C3936 0.960 . S
H3922 C3936 0.960 . S
H3923 C3936 0.960 . S
C3924 H3916 0.929 . S
C3924 C3925 1.377 . S
C3924 C3926 1.384 . S
C3925 C3924 1.377 . S
C3925 C3931 1.390 . S
C3926 H3917 0.930 . S
C3926 C3924 1.384 . S
C3926 C3927 1.372 . S
C3927 C3926 1.372 . S
C3927 C3928 1.400 . S
C3927 C3932 1.490 . S
C3928 H3918 0.930 . S
C3928 C3927 1.400 . S
C3928 C3931 1.386 . S
H3929 C3945 0.930 . S
H3930 C3946 0.931 . S
C3931 H3919 0.929 . S
C3931 C3925 1.390 . S
C3931 C3928 1.386 . S
C3932 C3927 1.490 . S
C3932 C3934 1.395 . S
C3932 C3935 1.403 . S
H3933 C3939 0.930 . S
C3934 H3920 0.930 . S
C3934 C3932 1.395 . S
C3934 C3937 1.403 . S
C3935 C3932 1.403 . S
C3935 C3936 1.524 . S
C3935 C3939 1.400 . S
C3936 H3921 0.960 . S
C3936 H3922 0.960 . S
C3936 H3923 0.960 . S
C3936 C3935 1.524 . S
C3937 C3934 1.403 . S
C3937 C3938 1.392 . S
C3937 C3941 1.495 . S
C3938 C3937 1.392 . S
C3938 C3939 1.385 . S
C3938 C3940 1.478 . S
C3939 H3933 0.930 . S
C3939 C3935 1.400 . S
C3939 C3938 1.385 . S
C3940 C3938 1.478 . S
C3940 C3942 1.381 . S
C3940 C3946 1.383 . S
C3941 C3937 1.495 . S
C3941 H3947 0.959 . S
C3941 H3948 0.961 . S
C3941 H3949 0.960 . S
C3942 C3940 1.381 . S
C3942 C3943 1.394 . S
C3942 H3950 0.930 . S
C3943 C3942 1.394 . S
C3943 C3944 1.383 . S
C3943 H3951 0.929 . S
C3944 C3943 1.383 . S
C3944 C3945 1.377 . S
C3945 H3929 0.930 . S
C3945 C3944 1.377 . S
C3945 C3946 1.379 . S
C3946 H3930 0.931 . S
C3946 C3940 1.383 . S
C3946 C3945 1.379 . S
H3947 C3941 0.959 . S
H3948 C3941 0.961 . S
H3949 C3941 0.960 . S
H3950 C3942 0.930 . S
H3951 C3943 0.929 . S
H3952 C3960 0.929 . S
H3953 C3962 0.930 . S
H3954 C3964 0.930 . S
H3955 C3967 0.929 . S
H3956 C3970 0.930 . S
H3957 C3972 0.960 . S
H3958 C3972 0.960 . S
H3959 C3972 0.960 . S
C3960 H3952 0.929 . S
C3960 C3961 1.377 . S
C3960 C3962 1.384 . S
C3961 C3960 1.377 . S
C3961 C3967 1.390 . S
C3962 H3953 0.930 . S
C3962 C3960 1.384 . S
C3962 C3963 1.372 . S
C3963 C3962 1.372 . S
C3963 C3964 1.400 . S
C3963 C3968 1.490 . S
C3964 H3954 0.930 . S
C3964 C3963 1.400 . S
C3964 C3967 1.386 . S
H3965 C3981 0.930 . S
H3966 C3982 0.931 . S
C3967 H3955 0.929 . S
C3967 C3961 1.390 . S
C3967 C3964 1.386 . S
C3968 C3963 1.490 . S
C3968 C3970 1.395 . S
C3968 C3971 1.403 . S
H3969 C3975 0.930 . S
C3970 H3956 0.930 . S
C3970 C3968 1.395 . S
C3970 C3973 1.403 . S
C3971 C3968 1.403 . S
C3971 C3972 1.524 . S
C3971 C3975 1.400 . S
C3972 H3957 0.960 . S
C3972 H3958 0.960 . S
C3972 H3959 0.960 . S
C3972 C3971 1.524 . S
C3973 C3970 1.403 . S
C3973 C3974 1.392 . S
C3973 C3977 1.495 . S
C3974 C3973 1.392 . S
C3974 C3975 1.385 . S
C3974 C3976 1.478 . S
C3975 H3969 0.930 . S
C3975 C3971 1.400 . S
C3975 C3974 1.385 . S
C3976 C3974 1.478 . S
C3976 C3978 1.381 . S
C3976 C3982 1.383 . S
C3977 C3973 1.495 . S
C3977 H3983 0.959 . S
C3977 H3984 0.961 . S
C3977 H3985 0.960 . S
C3978 C3976 1.381 . S
C3978 C3979 1.394 . S
C3978 H3986 0.930 . S
C3979 C3978 1.394 . S
C3979 C3980 1.383 . S
C3979 H3987 0.929 . S
C3980 C3979 1.383 . S
C3980 C3981 1.377 . S
C3981 H3965 0.930 . S
C3981 C3980 1.377 . S
C3981 C3982 1.379 . S
C3982 H3966 0.931 . S
C3982 C3976 1.383 . S
C3982 C3981 1.379 . S
H3983 C3977 0.959 . S
H3984 C3977 0.961 . S
H3985 C3977 0.960 . S
H3986 C3978 0.930 . S
H3987 C3979 0.929 . S
H3988 C3996 0.929 . S
H3989 C3998 0.930 . S
H3990 C4000 0.930 . S
H3991 C4003 0.929 . S
H3992 C4006 0.930 . S
H3993 C4008 0.960 . S
H3994 C4008 0.960 . S
H3995 C4008 0.960 . S
C3996 H3988 0.929 . S
C3996 C3997 1.377 . S
C3996 C3998 1.384 . S
C3997 C3996 1.377 . S
C3997 C4003 1.390 . S
C3998 H3989 0.930 . S
C3998 C3996 1.384 . S
C3998 C3999 1.372 . S
C3999 C3998 1.372 . S
C3999 C4000 1.400 . S
C3999 C4004 1.490 . S
C4000 H3990 0.930 . S
C4000 C3999 1.400 . S
C4000 C4003 1.386 . S
H4001 C4017 0.930 . S
H4002 C4018 0.931 . S
C4003 H3991 0.929 . S
C4003 C3997 1.390 . S
C4003 C4000 1.386 . S
C4004 C3999 1.490 . S
C4004 C4006 1.395 . S
C4004 C4007 1.403 . S
H4005 C4011 0.930 . S
C4006 H3992 0.930 . S
C4006 C4004 1.395 . S
C4006 C4009 1.403 . S
C4007 C4004 1.403 . S
C4007 C4008 1.524 . S
C4007 C4011 1.400 . S
C4008 H3993 0.960 . S
C4008 H3994 0.960 . S
C4008 H3995 0.960 . S
C4008 C4007 1.524 . S
C4009 C4006 1.403 . S
C4009 C4010 1.392 . S
C4009 C4013 1.495 . S
C4010 C4009 1.392 . S
C4010 C4011 1.385 . S
C4010 C4012 1.478 . S
C4011 H4005 0.930 . S
C4011 C4007 1.400 . S
C4011 C4010 1.385 . S
C4012 C4010 1.478 . S
C4012 C4014 1.381 . S
C4012 C4018 1.383 . S
C4013 C4009 1.495 . S
C4013 H4019 0.959 . S
C4013 H4020 0.961 . S
C4013 H4021 0.960 . S
C4014 C4012 1.381 . S
C4014 C4015 1.394 . S
C4014 H4022 0.930 . S
C4015 C4014 1.394 . S
C4015 C4016 1.383 . S
C4015 H4023 0.929 . S
C4016 C4015 1.383 . S
C4016 C4017 1.377 . S
C4017 H4001 0.930 . S
C4017 C4016 1.377 . S
C4017 C4018 1.379 . S
C4018 H4002 0.931 . S
C4018 C4012 1.383 . S
C4018 C4017 1.379 . S
H4019 C4013 0.959 . S
H4020 C4013 0.961 . S
H4021 C4013 0.960 . S
H4022 C4014 0.930 . S
H4023 C4015 0.929 . S
H4024 C4032 0.929 . S
H4025 C4034 0.930 . S
H4026 C4036 0.930 . S
H4027 C4039 0.929 . S
H4028 C4042 0.930 . S
H4029 C4044 0.960 . S
H4030 C4044 0.960 . S
H4031 C4044 0.960 . S
C4032 H4024 0.929 . S
C4032 C4033 1.377 . S
C4032 C4034 1.384 . S
C4033 C4032 1.377 . S
C4033 C4039 1.390 . S
C4034 H4025 0.930 . S
C4034 C4032 1.384 . S
C4034 C4035 1.372 . S
C4035 C4034 1.372 . S
C4035 C4036 1.400 . S
C4035 C4040 1.490 . S
C4036 H4026 0.930 . S
C4036 C4035 1.400 . S
C4036 C4039 1.386 . S
H4037 C4053 0.930 . S
H4038 C4054 0.931 . S
C4039 H4027 0.929 . S
C4039 C4033 1.390 . S
C4039 C4036 1.386 . S
C4040 C4035 1.490 . S
C4040 C4042 1.395 . S
C4040 C4043 1.403 . S
H4041 C4047 0.930 . S
C4042 H4028 0.930 . S
C4042 C4040 1.395 . S
C4042 C4045 1.403 . S
C4043 C4040 1.403 . S
C4043 C4044 1.524 . S
C4043 C4047 1.400 . S
C4044 H4029 0.960 . S
C4044 H4030 0.960 . S
C4044 H4031 0.960 . S
C4044 C4043 1.524 . S
C4045 C4042 1.403 . S
C4045 C4046 1.392 . S
C4045 C4049 1.495 . S
C4046 C4045 1.392 . S
C4046 C4047 1.385 . S
C4046 C4048 1.478 . S
C4047 H4041 0.930 . S
C4047 C4043 1.400 . S
C4047 C4046 1.385 . S
C4048 C4046 1.478 . S
C4048 C4050 1.381 . S
C4048 C4054 1.383 . S
C4049 C4045 1.495 . S
C4049 H4055 0.959 . S
C4049 H4056 0.961 . S
C4049 H4057 0.960 . S
C4050 C4048 1.381 . S
C4050 C4051 1.394 . S
C4050 H4058 0.930 . S
C4051 C4050 1.394 . S
C4051 C4052 1.383 . S
C4051 H4059 0.929 . S
C4052 C4051 1.383 . S
C4052 C4053 1.377 . S
C4053 H4037 0.930 . S
C4053 C4052 1.377 . S
C4053 C4054 1.379 . S
C4054 H4038 0.931 . S
C4054 C4048 1.383 . S
C4054 C4053 1.379 . S
H4055 C4049 0.959 . S
H4056 C4049 0.961 . S
H4057 C4049 0.960 . S
H4058 C4050 0.930 . S
H4059 C4051 0.929 . S
H4060 C4068 0.929 . S
H4061 C4070 0.930 . S
H4062 C4072 0.930 . S
H4063 C4075 0.929 . S
H4064 C4078 0.930 . S
H4065 C4080 0.960 . S
H4066 C4080 0.960 . S
H4067 C4080 0.960 . S
C4068 H4060 0.929 . S
C4068 C4069 1.377 . S
C4068 C4070 1.384 . S
C4069 C4068 1.377 . S
C4069 C4075 1.390 . S
C4070 H4061 0.930 . S
C4070 C4068 1.384 . S
C4070 C4071 1.372 . S
C4071 C4070 1.372 . S
C4071 C4072 1.400 . S
C4071 C4076 1.490 . S
C4072 H4062 0.930 . S
C4072 C4071 1.400 . S
C4072 C4075 1.386 . S
H4073 C4089 0.930 . S
H4074 C4090 0.931 . S
C4075 H4063 0.929 . S
C4075 C4069 1.390 . S
C4075 C4072 1.386 . S
C4076 C4071 1.490 . S
C4076 C4078 1.395 . S
C4076 C4079 1.403 . S
H4077 C4083 0.930 . S
C4078 H4064 0.930 . S
C4078 C4076 1.395 . S
C4078 C4081 1.403 . S
C4079 C4076 1.403 . S
C4079 C4080 1.524 . S
C4079 C4083 1.400 . S
C4080 H4065 0.960 . S
C4080 H4066 0.960 . S
C4080 H4067 0.960 . S
C4080 C4079 1.524 . S
C4081 C4078 1.403 . S
C4081 C4082 1.392 . S
C4081 C4085 1.495 . S
C4082 C4081 1.392 . S
C4082 C4083 1.385 . S
C4082 C4084 1.478 . S
C4083 H4077 0.930 . S
C4083 C4079 1.400 . S
C4083 C4082 1.385 . S
C4084 C4082 1.478 . S
C4084 C4086 1.381 . S
C4084 C4090 1.383 . S
C4085 C4081 1.495 . S
C4085 H4091 0.959 . S
C4085 H4092 0.961 . S
C4085 H4093 0.960 . S
C4086 C4084 1.381 . S
C4086 C4087 1.394 . S
C4086 H4094 0.930 . S
C4087 C4086 1.394 . S
C4087 C4088 1.383 . S
C4087 H4095 0.929 . S
C4088 C4087 1.383 . S
C4088 C4089 1.377 . S
C4089 H4073 0.930 . S
C4089 C4088 1.377 . S
C4089 C4090 1.379 . S
C4090 H4074 0.931 . S
C4090 C4084 1.383 . S
C4090 C4089 1.379 . S
H4091 C4085 0.959 . S
H4092 C4085 0.961 . S
H4093 C4085 0.960 . S
H4094 C4086 0.930 . S
H4095 C4087 0.929 . S
C649 C12 1.391 . S
C668 C62 1.358 . S
C685 C2 1.364 . S
C704 C32 1.389 . S
C721 C52 1.387 . S
C740 C22 1.329 . S
C757 C42 1.357 . S
C776 C72 1.352 1_556 S
C793 C102 1.358 . S
C812 C92 1.413 . S
C829 C112 1.382 . S
C848 C122 1.315 . S
C865 C142 1.350 . S
C884 C132 1.388 . S
C901 C82 1.364 . S
C920 C152 1.388 1_554 S
C937 C169 1.385 . S
C956 C224 1.357 . S
C973 C189 1.385 . S
C992 C164 1.344 . S
C1009 C209 1.390 . S
C1028 C184 1.321 . S
C1045 C229 1.385 1_554 S
C1064 C204 1.355 . S
C1081 C249 1.385 . S
C1100 C264 1.353 . S
C1117 C269 1.387 . S
C1136 C284 1.336 . S
C1153 C304 1.356 . S
C1172 C289 1.389 . S
C1189 C244 1.365 . S
C1208 C309 1.348 1_556 S
C1225 C332 1.383 . S
C1244 C382 1.317 . S
C1261 C322 1.364 . S
C1280 C352 1.402 1_556 S
C1297 C342 1.351 . S
C1316 C372 1.348 . S
C1333 C392 1.382 . S
C1352 C362 1.380 . S
C1369 C412 1.377 . S
C1388 C422 1.333 . S
C1405 C442 1.349 . S
C1424 C432 1.354 1_554 S
C1441 C452 1.377 . S
C1460 C462 1.340 . S
C1477 C402 1.349 . S
C1496 C472 1.356 . S
C1513 C544 1.348 . S
C1532 C489 1.415 . S
C1549 C484 1.353 . S
C1568 C509 1.398 1_554 S
C1585 C529 1.381 . S
C1604 C504 1.375 . S
C1621 C524 1.364 . S
C1640 C549 1.349 . S
C1657 C584 1.348 . S
C1676 C569 1.415 . S
C1693 C604 1.350 . S
C1712 C589 1.408 1_556 S
C1729 C624 1.354 . S
C1748 C609 1.395 . S
C1765 C629 1.391 . S
C1784 C564 1.316 . S
C1801 C552 1.422 . S
C1820 C18 1.445 . S
C1837 C38 1.436 . S
C1856 C172 1.441 . S
C1873 C58 1.439 . S
C1892 C512 1.441 . S
C1909 C78 1.436 . S
C1928 C212 1.432 . S
C1945 C98 1.440 . S
C1964 C592 1.431 . S
C1981 C292 1.424 . S
C2000 C118 1.450 . S
C2017 C632 1.429 . S
C2036 C138 1.422 . S
C2053 C158 1.436 . S
C2072 C252 1.435 . S
C2089 C179 1.440 . S
C2108 C389 1.403 . S
C2125 C9 1.422 . S
C2144 C199 1.436 . S
C2161 C349 1.423 . S
C2180 C219 1.435 . S
C2197 C49 1.426 . S
C2216 C239 1.422 . S
C2233 C429 1.425 . S
C2252 C259 1.448 . S
C2269 C129 1.424 . S
C2288 C279 1.430 . S
C2305 C299 1.437 . S
C2324 C469 1.415 . S
C2341 C319 1.440 . S
C2360 C89 1.431 . S
C2377 C338 1.438 . S
C2396 C232 1.405 . S
C2413 C358 1.436 . S
C2432 C492 1.419 . S
C2449 C378 1.438 . S
C2468 C192 1.442 . S
C2485 C398 1.438 . S
C2504 C532 1.405 . S
C2521 C418 1.441 . S
C2540 C272 1.429 . S
C2557 C438 1.436 . S
C2576 C612 1.433 . S
C2593 C312 1.430 . S
C2612 C458 1.437 . S
C2629 C478 1.438 . S
C2648 C572 1.407 . S
C2665 C69 1.423 . S
C2684 C499 1.431 . S
C2701 C329 1.428 . S
C2720 C519 1.441 . S
C2737 C29 1.422 . S
C2756 C539 1.444 . S
C2773 C369 1.428 . S
C2792 C559 1.442 . S
C2809 C109 1.425 . S
C2828 C579 1.425 . S
C2845 C599 1.436 . S
C2864 C449 1.425 . S
C2881 C619 1.437 . S
C2900 C149 1.416 . S
C2917 C409 1.430 . S
C2936 C639 1.431 . S
C2953 C19 0.281 . S
C2972 C99 0.375 . S
C2989 C39 0.277 . S
C3008 C119 0.176 . S
C3025 C59 0.258 . S
C3044 C139 0.340 . S
C3061 C159 0.269 . S
C3080 C79 0.372 . S
C3097 C258 0.257 . S
C3116 C178 0.237 . S
C3133 C278 0.296 . S
C3152 C198 0.372 . S
C3169 C218 0.287 . S
C3188 C298 0.290 . S
C3205 C238 0.260 . S
C3224 C318 0.177 . S
C3241 C339 0.273 . S
C3260 C419 0.376 . S
C3277 C439 0.257 . S
C3296 C359 0.249 . S
C3313 C459 0.260 . S
C3332 C379 0.228 . S
C3349 C479 0.280 . S
C3368 C399 0.177 . S
C3385 C578 0.258 . S
C3404 C498 0.176 . S
C3421 C518 0.282 . S
C3440 C598 0.265 . S
C3457 C618 0.290 . S
C3476 C538 0.374 . S
C3493 C558 0.290 . S
C3512 C638 0.373 . S
C3529 C144 1.567 . S
C3548 C4 1.534 . S
C3565 C24 1.575 . S
C3584 C84 1.602 . S
C3601 C44 1.564 . S
C3620 C104 1.556 . S
C3637 C124 1.578 . S
C3656 C64 1.590 . S
C3673 C162 1.574 . S
C3692 C302 1.544 . S
C3709 C242 1.577 . S
C3728 C182 1.549 . S
C3745 C262 1.569 . S
C3764 C202 1.590 . S
C3781 C222 1.577 . S
C3800 C282 1.536 . S
C3817 C324 1.570 . S
C3836 C464 1.533 . S
C3853 C404 1.579 . S
C3872 C344 1.582 . S
C3889 C424 1.564 . S
C3908 C364 1.554 . S
C3925 C444 1.564 . S
C3944 C384 1.556 . S
C3961 C482 1.564 . S
C3980 C622 1.603 . S
C3997 C562 1.565 . S
C4016 C502 1.594 . S
C4033 C522 1.564 . S
C4052 C582 1.600 . S
C4069 C602 1.578 . S
C4088 C542 1.543 . S
