# Generated by pormake.
# Topology ulg, (4)-cn, num edge types: 1
# Building blocks:
#     Node 0, Type 0, BuildingBlock: GALJAG_clean_sbu_0, # of connection points: 4
#     Node 1, Type 0, BuildingBlock: GALJAG_clean_sbu_0, # of connection points: 4
#     Node 2, Type 0, BuildingBlock: GALJAG_clean_sbu_0, # of connection points: 4
#     Node 3, Type 0, BuildingBlock: GALJAG_clean_sbu_0, # of connection points: 4
#     Node 4, Type 0, BuildingBlock: GALJAG_clean_sbu_0, # of connection points: 4
#     Node 5, Type 0, BuildingBlock: GALJAG_clean_sbu_0, # of connection points: 4
#     Node 6, Type 0, BuildingBlock: GALJAG_clean_sbu_0, # of connection points: 4
#     Node 7, Type 0, BuildingBlock: GALJAG_clean_sbu_0, # of connection points: 4
#     Node 8, Type 0, BuildingBlock: GALJAG_clean_sbu_0, # of connection points: 4
#     Node 9, Type 0, BuildingBlock: GALJAG_clean_sbu_0, # of connection points: 4
#     Node 10, Type 0, BuildingBlock: GALJAG_clean_sbu_0, # of connection points: 4
#     Node 11, Type 0, BuildingBlock: GALJAG_clean_sbu_0, # of connection points: 4
#     Node 12, Type 0, BuildingBlock: GALJAG_clean_sbu_0, # of connection points: 4
#     Node 13, Type 0, BuildingBlock: GALJAG_clean_sbu_0, # of connection points: 4
#     Node 14, Type 0, BuildingBlock: GALJAG_clean_sbu_0, # of connection points: 4
#     Node 15, Type 0, BuildingBlock: GALJAG_clean_sbu_0, # of connection points: 4
#     Node 16, Type 0, BuildingBlock: GALJAG_clean_sbu_0, # of connection points: 4
#     Node 17, Type 0, BuildingBlock: GALJAG_clean_sbu_0, # of connection points: 4
#     Node 18, Type 0, BuildingBlock: GALJAG_clean_sbu_0, # of connection points: 4
#     Node 19, Type 0, BuildingBlock: GALJAG_clean_sbu_0, # of connection points: 4
#     Node 20, Type 0, BuildingBlock: GALJAG_clean_sbu_0, # of connection points: 4
#     Node 21, Type 0, BuildingBlock: GALJAG_clean_sbu_0, # of connection points: 4
#     Node 22, Type 0, BuildingBlock: GALJAG_clean_sbu_0, # of connection points: 4
#     Node 23, Type 0, BuildingBlock: GALJAG_clean_sbu_0, # of connection points: 4
#     Node 24, Type 0, BuildingBlock: GALJAG_clean_sbu_0, # of connection points: 4
#     Node 25, Type 0, BuildingBlock: GALJAG_clean_sbu_0, # of connection points: 4
#     Node 26, Type 0, BuildingBlock: GALJAG_clean_sbu_0, # of connection points: 4
#     Node 27, Type 0, BuildingBlock: GALJAG_clean_sbu_0, # of connection points: 4
#     Node 28, Type 0, BuildingBlock: GALJAG_clean_sbu_0, # of connection points: 4
#     Node 29, Type 0, BuildingBlock: GALJAG_clean_sbu_0, # of connection points: 4
#     Node 30, Type 0, BuildingBlock: GALJAG_clean_sbu_0, # of connection points: 4
#     Node 31, Type 0, BuildingBlock: GALJAG_clean_sbu_0, # of connection points: 4
#     Node 32, Type 0, BuildingBlock: GALJAG_clean_sbu_0, # of connection points: 4
#     Node 33, Type 0, BuildingBlock: GALJAG_clean_sbu_0, # of connection points: 4
#     Node 34, Type 0, BuildingBlock: GALJAG_clean_sbu_0, # of connection points: 4
#     Node 35, Type 0, BuildingBlock: GALJAG_clean_sbu_0, # of connection points: 4
#     Node 36, Type 0, BuildingBlock: GALJAG_clean_sbu_0, # of connection points: 4
#     Node 37, Type 0, BuildingBlock: GALJAG_clean_sbu_0, # of connection points: 4
#     Node 38, Type 0, BuildingBlock: GALJAG_clean_sbu_0, # of connection points: 4
#     Node 39, Type 0, BuildingBlock: GALJAG_clean_sbu_0, # of connection points: 4
#     Node 40, Type 0, BuildingBlock: GALJAG_clean_sbu_0, # of connection points: 4
#     Node 41, Type 0, BuildingBlock: GALJAG_clean_sbu_0, # of connection points: 4
#     Node 42, Type 0, BuildingBlock: GALJAG_clean_sbu_0, # of connection points: 4
#     Node 43, Type 0, BuildingBlock: GALJAG_clean_sbu_0, # of connection points: 4
#     Node 44, Type 0, BuildingBlock: GALJAG_clean_sbu_0, # of connection points: 4
#     Node 45, Type 0, BuildingBlock: GALJAG_clean_sbu_0, # of connection points: 4
#     Node 46, Type 0, BuildingBlock: GALJAG_clean_sbu_0, # of connection points: 4
#     Node 47, Type 0, BuildingBlock: GALJAG_clean_sbu_0, # of connection points: 4
#     Node 48, Type 0, BuildingBlock: GALJAG_clean_sbu_0, # of connection points: 4
#     Node 49, Type 0, BuildingBlock: GALJAG_clean_sbu_0, # of connection points: 4
#     Node 50, Type 0, BuildingBlock: GALJAG_clean_sbu_0, # of connection points: 4
#     Node 51, Type 0, BuildingBlock: GALJAG_clean_sbu_0, # of connection points: 4
#     Node 52, Type 0, BuildingBlock: GALJAG_clean_sbu_0, # of connection points: 4
#     Node 53, Type 0, BuildingBlock: GALJAG_clean_sbu_0, # of connection points: 4
#     Node 54, Type 0, BuildingBlock: GALJAG_clean_sbu_0, # of connection points: 4
#     Node 55, Type 0, BuildingBlock: GALJAG_clean_sbu_0, # of connection points: 4
#     Node 56, Type 0, BuildingBlock: GALJAG_clean_sbu_0, # of connection points: 4
#     Node 57, Type 0, BuildingBlock: GALJAG_clean_sbu_0, # of connection points: 4
#     Node 58, Type 0, BuildingBlock: GALJAG_clean_sbu_0, # of connection points: 4
#     Node 59, Type 0, BuildingBlock: GALJAG_clean_sbu_0, # of connection points: 4
#     Node 60, Type 0, BuildingBlock: GALJAG_clean_sbu_0, # of connection points: 4
#     Node 61, Type 0, BuildingBlock: GALJAG_clean_sbu_0, # of connection points: 4
#     Node 62, Type 0, BuildingBlock: GALJAG_clean_sbu_0, # of connection points: 4
#     Node 63, Type 0, BuildingBlock: GALJAG_clean_sbu_0, # of connection points: 4
#     Node 64, Type 0, BuildingBlock: GALJAG_clean_sbu_0, # of connection points: 4
#     Node 65, Type 0, BuildingBlock: GALJAG_clean_sbu_0, # of connection points: 4
#     Node 66, Type 0, BuildingBlock: GALJAG_clean_sbu_0, # of connection points: 4
#     Node 67, Type 0, BuildingBlock: GALJAG_clean_sbu_0, # of connection points: 4
#     Node 68, Type 0, BuildingBlock: GALJAG_clean_sbu_0, # of connection points: 4
#     Node 69, Type 0, BuildingBlock: GALJAG_clean_sbu_0, # of connection points: 4
#     Node 70, Type 0, BuildingBlock: GALJAG_clean_sbu_0, # of connection points: 4
#     Node 71, Type 0, BuildingBlock: GALJAG_clean_sbu_0, # of connection points: 4
#     Node 72, Type 0, BuildingBlock: GALJAG_clean_sbu_0, # of connection points: 4
#     Node 73, Type 0, BuildingBlock: GALJAG_clean_sbu_0, # of connection points: 4
#     Node 74, Type 0, BuildingBlock: GALJAG_clean_sbu_0, # of connection points: 4
#     Node 75, Type 0, BuildingBlock: GALJAG_clean_sbu_0, # of connection points: 4
#     Node 76, Type 0, BuildingBlock: GALJAG_clean_sbu_0, # of connection points: 4
#     Node 77, Type 0, BuildingBlock: GALJAG_clean_sbu_0, # of connection points: 4
#     Node 78, Type 0, BuildingBlock: GALJAG_clean_sbu_0, # of connection points: 4
#     Node 79, Type 0, BuildingBlock: GALJAG_clean_sbu_0, # of connection points: 4
#     Node 80, Type 0, BuildingBlock: GALJAG_clean_sbu_0, # of connection points: 4
#     Node 81, Type 0, BuildingBlock: GALJAG_clean_sbu_0, # of connection points: 4
#     Node 82, Type 0, BuildingBlock: GALJAG_clean_sbu_0, # of connection points: 4
#     Node 83, Type 0, BuildingBlock: GALJAG_clean_sbu_0, # of connection points: 4
#     Node 84, Type 0, BuildingBlock: GALJAG_clean_sbu_0, # of connection points: 4
#     Node 85, Type 0, BuildingBlock: GALJAG_clean_sbu_0, # of connection points: 4
#     Node 86, Type 0, BuildingBlock: GALJAG_clean_sbu_0, # of connection points: 4
#     Node 87, Type 0, BuildingBlock: GALJAG_clean_sbu_0, # of connection points: 4
#     Node 88, Type 0, BuildingBlock: GALJAG_clean_sbu_0, # of connection points: 4
#     Node 89, Type 0, BuildingBlock: GALJAG_clean_sbu_0, # of connection points: 4
#     Node 90, Type 0, BuildingBlock: GALJAG_clean_sbu_0, # of connection points: 4
#     Node 91, Type 0, BuildingBlock: GALJAG_clean_sbu_0, # of connection points: 4
#     Node 92, Type 0, BuildingBlock: GALJAG_clean_sbu_0, # of connection points: 4
#     Node 93, Type 0, BuildingBlock: GALJAG_clean_sbu_0, # of connection points: 4
#     Node 94, Type 0, BuildingBlock: GALJAG_clean_sbu_0, # of connection points: 4
#     Node 95, Type 0, BuildingBlock: GALJAG_clean_sbu_0, # of connection points: 4
#     Edge 96, Type (0, 0), BuildingBlock: OJICUG_clean_linker_0, # of connection points: 2
#     Edge 97, Type (0, 0), BuildingBlock: OJICUG_clean_linker_0, # of connection points: 2
#     Edge 98, Type (0, 0), BuildingBlock: OJICUG_clean_linker_0, # of connection points: 2
#     Edge 99, Type (0, 0), BuildingBlock: OJICUG_clean_linker_0, # of connection points: 2
#     Edge 100, Type (0, 0), BuildingBlock: OJICUG_clean_linker_0, # of connection points: 2
#     Edge 101, Type (0, 0), BuildingBlock: OJICUG_clean_linker_0, # of connection points: 2
#     Edge 102, Type (0, 0), BuildingBlock: OJICUG_clean_linker_0, # of connection points: 2
#     Edge 103, Type (0, 0), BuildingBlock: OJICUG_clean_linker_0, # of connection points: 2
#     Edge 104, Type (0, 0), BuildingBlock: OJICUG_clean_linker_0, # of connection points: 2
#     Edge 105, Type (0, 0), BuildingBlock: OJICUG_clean_linker_0, # of connection points: 2
#     Edge 106, Type (0, 0), BuildingBlock: OJICUG_clean_linker_0, # of connection points: 2
#     Edge 107, Type (0, 0), BuildingBlock: OJICUG_clean_linker_0, # of connection points: 2
#     Edge 108, Type (0, 0), BuildingBlock: OJICUG_clean_linker_0, # of connection points: 2
#     Edge 109, Type (0, 0), BuildingBlock: OJICUG_clean_linker_0, # of connection points: 2
#     Edge 110, Type (0, 0), BuildingBlock: OJICUG_clean_linker_0, # of connection points: 2
#     Edge 111, Type (0, 0), BuildingBlock: OJICUG_clean_linker_0, # of connection points: 2
#     Edge 112, Type (0, 0), BuildingBlock: OJICUG_clean_linker_0, # of connection points: 2
#     Edge 113, Type (0, 0), BuildingBlock: OJICUG_clean_linker_0, # of connection points: 2
#     Edge 114, Type (0, 0), BuildingBlock: OJICUG_clean_linker_0, # of connection points: 2
#     Edge 115, Type (0, 0), BuildingBlock: OJICUG_clean_linker_0, # of connection points: 2
#     Edge 116, Type (0, 0), BuildingBlock: OJICUG_clean_linker_0, # of connection points: 2
#     Edge 117, Type (0, 0), BuildingBlock: OJICUG_clean_linker_0, # of connection points: 2
#     Edge 118, Type (0, 0), BuildingBlock: OJICUG_clean_linker_0, # of connection points: 2
#     Edge 119, Type (0, 0), BuildingBlock: OJICUG_clean_linker_0, # of connection points: 2
#     Edge 120, Type (0, 0), BuildingBlock: OJICUG_clean_linker_0, # of connection points: 2
#     Edge 121, Type (0, 0), BuildingBlock: OJICUG_clean_linker_0, # of connection points: 2
#     Edge 122, Type (0, 0), BuildingBlock: OJICUG_clean_linker_0, # of connection points: 2
#     Edge 123, Type (0, 0), BuildingBlock: OJICUG_clean_linker_0, # of connection points: 2
#     Edge 124, Type (0, 0), BuildingBlock: OJICUG_clean_linker_0, # of connection points: 2
#     Edge 125, Type (0, 0), BuildingBlock: OJICUG_clean_linker_0, # of connection points: 2
#     Edge 126, Type (0, 0), BuildingBlock: OJICUG_clean_linker_0, # of connection points: 2
#     Edge 127, Type (0, 0), BuildingBlock: OJICUG_clean_linker_0, # of connection points: 2
#     Edge 128, Type (0, 0), BuildingBlock: OJICUG_clean_linker_0, # of connection points: 2
#     Edge 129, Type (0, 0), BuildingBlock: OJICUG_clean_linker_0, # of connection points: 2
#     Edge 130, Type (0, 0), BuildingBlock: OJICUG_clean_linker_0, # of connection points: 2
#     Edge 131, Type (0, 0), BuildingBlock: OJICUG_clean_linker_0, # of connection points: 2
#     Edge 132, Type (0, 0), BuildingBlock: OJICUG_clean_linker_0, # of connection points: 2
#     Edge 133, Type (0, 0), BuildingBlock: OJICUG_clean_linker_0, # of connection points: 2
#     Edge 134, Type (0, 0), BuildingBlock: OJICUG_clean_linker_0, # of connection points: 2
#     Edge 135, Type (0, 0), BuildingBlock: OJICUG_clean_linker_0, # of connection points: 2
#     Edge 136, Type (0, 0), BuildingBlock: OJICUG_clean_linker_0, # of connection points: 2
#     Edge 137, Type (0, 0), BuildingBlock: OJICUG_clean_linker_0, # of connection points: 2
#     Edge 138, Type (0, 0), BuildingBlock: OJICUG_clean_linker_0, # of connection points: 2
#     Edge 139, Type (0, 0), BuildingBlock: OJICUG_clean_linker_0, # of connection points: 2
#     Edge 140, Type (0, 0), BuildingBlock: OJICUG_clean_linker_0, # of connection points: 2
#     Edge 141, Type (0, 0), BuildingBlock: OJICUG_clean_linker_0, # of connection points: 2
#     Edge 142, Type (0, 0), BuildingBlock: OJICUG_clean_linker_0, # of connection points: 2
#     Edge 143, Type (0, 0), BuildingBlock: OJICUG_clean_linker_0, # of connection points: 2
#     Edge 144, Type (0, 0), BuildingBlock: OJICUG_clean_linker_0, # of connection points: 2
#     Edge 145, Type (0, 0), BuildingBlock: OJICUG_clean_linker_0, # of connection points: 2
#     Edge 146, Type (0, 0), BuildingBlock: OJICUG_clean_linker_0, # of connection points: 2
#     Edge 147, Type (0, 0), BuildingBlock: OJICUG_clean_linker_0, # of connection points: 2
#     Edge 148, Type (0, 0), BuildingBlock: OJICUG_clean_linker_0, # of connection points: 2
#     Edge 149, Type (0, 0), BuildingBlock: OJICUG_clean_linker_0, # of connection points: 2
#     Edge 150, Type (0, 0), BuildingBlock: OJICUG_clean_linker_0, # of connection points: 2
#     Edge 151, Type (0, 0), BuildingBlock: OJICUG_clean_linker_0, # of connection points: 2
#     Edge 152, Type (0, 0), BuildingBlock: OJICUG_clean_linker_0, # of connection points: 2
#     Edge 153, Type (0, 0), BuildingBlock: OJICUG_clean_linker_0, # of connection points: 2
#     Edge 154, Type (0, 0), BuildingBlock: OJICUG_clean_linker_0, # of connection points: 2
#     Edge 155, Type (0, 0), BuildingBlock: OJICUG_clean_linker_0, # of connection points: 2
#     Edge 156, Type (0, 0), BuildingBlock: OJICUG_clean_linker_0, # of connection points: 2
#     Edge 157, Type (0, 0), BuildingBlock: OJICUG_clean_linker_0, # of connection points: 2
#     Edge 158, Type (0, 0), BuildingBlock: OJICUG_clean_linker_0, # of connection points: 2
#     Edge 159, Type (0, 0), BuildingBlock: OJICUG_clean_linker_0, # of connection points: 2
#     Edge 160, Type (0, 0), BuildingBlock: OJICUG_clean_linker_0, # of connection points: 2
#     Edge 161, Type (0, 0), BuildingBlock: OJICUG_clean_linker_0, # of connection points: 2
#     Edge 162, Type (0, 0), BuildingBlock: OJICUG_clean_linker_0, # of connection points: 2
#     Edge 163, Type (0, 0), BuildingBlock: OJICUG_clean_linker_0, # of connection points: 2
#     Edge 164, Type (0, 0), BuildingBlock: OJICUG_clean_linker_0, # of connection points: 2
#     Edge 165, Type (0, 0), BuildingBlock: OJICUG_clean_linker_0, # of connection points: 2
#     Edge 166, Type (0, 0), BuildingBlock: OJICUG_clean_linker_0, # of connection points: 2
#     Edge 167, Type (0, 0), BuildingBlock: OJICUG_clean_linker_0, # of connection points: 2
#     Edge 168, Type (0, 0), BuildingBlock: OJICUG_clean_linker_0, # of connection points: 2
#     Edge 169, Type (0, 0), BuildingBlock: OJICUG_clean_linker_0, # of connection points: 2
#     Edge 170, Type (0, 0), BuildingBlock: OJICUG_clean_linker_0, # of connection points: 2
#     Edge 171, Type (0, 0), BuildingBlock: OJICUG_clean_linker_0, # of connection points: 2
#     Edge 172, Type (0, 0), BuildingBlock: OJICUG_clean_linker_0, # of connection points: 2
#     Edge 173, Type (0, 0), BuildingBlock: OJICUG_clean_linker_0, # of connection points: 2
#     Edge 174, Type (0, 0), BuildingBlock: OJICUG_clean_linker_0, # of connection points: 2
#     Edge 175, Type (0, 0), BuildingBlock: OJICUG_clean_linker_0, # of connection points: 2
#     Edge 176, Type (0, 0), BuildingBlock: OJICUG_clean_linker_0, # of connection points: 2
#     Edge 177, Type (0, 0), BuildingBlock: OJICUG_clean_linker_0, # of connection points: 2
#     Edge 178, Type (0, 0), BuildingBlock: OJICUG_clean_linker_0, # of connection points: 2
#     Edge 179, Type (0, 0), BuildingBlock: OJICUG_clean_linker_0, # of connection points: 2
#     Edge 180, Type (0, 0), BuildingBlock: OJICUG_clean_linker_0, # of connection points: 2
#     Edge 181, Type (0, 0), BuildingBlock: OJICUG_clean_linker_0, # of connection points: 2
#     Edge 182, Type (0, 0), BuildingBlock: OJICUG_clean_linker_0, # of connection points: 2
#     Edge 183, Type (0, 0), BuildingBlock: OJICUG_clean_linker_0, # of connection points: 2
#     Edge 184, Type (0, 0), BuildingBlock: OJICUG_clean_linker_0, # of connection points: 2
#     Edge 185, Type (0, 0), BuildingBlock: OJICUG_clean_linker_0, # of connection points: 2
#     Edge 186, Type (0, 0), BuildingBlock: OJICUG_clean_linker_0, # of connection points: 2
#     Edge 187, Type (0, 0), BuildingBlock: OJICUG_clean_linker_0, # of connection points: 2
#     Edge 188, Type (0, 0), BuildingBlock: OJICUG_clean_linker_0, # of connection points: 2
#     Edge 189, Type (0, 0), BuildingBlock: OJICUG_clean_linker_0, # of connection points: 2
#     Edge 190, Type (0, 0), BuildingBlock: OJICUG_clean_linker_0, # of connection points: 2
#     Edge 191, Type (0, 0), BuildingBlock: OJICUG_clean_linker_0, # of connection points: 2
#     Edge 192, Type (0, 0), BuildingBlock: OJICUG_clean_linker_0, # of connection points: 2
#     Edge 193, Type (0, 0), BuildingBlock: OJICUG_clean_linker_0, # of connection points: 2
#     Edge 194, Type (0, 0), BuildingBlock: OJICUG_clean_linker_0, # of connection points: 2
#     Edge 195, Type (0, 0), BuildingBlock: OJICUG_clean_linker_0, # of connection points: 2
#     Edge 196, Type (0, 0), BuildingBlock: OJICUG_clean_linker_0, # of connection points: 2
#     Edge 197, Type (0, 0), BuildingBlock: OJICUG_clean_linker_0, # of connection points: 2
#     Edge 198, Type (0, 0), BuildingBlock: OJICUG_clean_linker_0, # of connection points: 2
#     Edge 199, Type (0, 0), BuildingBlock: OJICUG_clean_linker_0, # of connection points: 2
#     Edge 200, Type (0, 0), BuildingBlock: OJICUG_clean_linker_0, # of connection points: 2
#     Edge 201, Type (0, 0), BuildingBlock: OJICUG_clean_linker_0, # of connection points: 2
#     Edge 202, Type (0, 0), BuildingBlock: OJICUG_clean_linker_0, # of connection points: 2
#     Edge 203, Type (0, 0), BuildingBlock: OJICUG_clean_linker_0, # of connection points: 2
#     Edge 204, Type (0, 0), BuildingBlock: OJICUG_clean_linker_0, # of connection points: 2
#     Edge 205, Type (0, 0), BuildingBlock: OJICUG_clean_linker_0, # of connection points: 2
#     Edge 206, Type (0, 0), BuildingBlock: OJICUG_clean_linker_0, # of connection points: 2
#     Edge 207, Type (0, 0), BuildingBlock: OJICUG_clean_linker_0, # of connection points: 2
#     Edge 208, Type (0, 0), BuildingBlock: OJICUG_clean_linker_0, # of connection points: 2
#     Edge 209, Type (0, 0), BuildingBlock: OJICUG_clean_linker_0, # of connection points: 2
#     Edge 210, Type (0, 0), BuildingBlock: OJICUG_clean_linker_0, # of connection points: 2
#     Edge 211, Type (0, 0), BuildingBlock: OJICUG_clean_linker_0, # of connection points: 2
#     Edge 212, Type (0, 0), BuildingBlock: OJICUG_clean_linker_0, # of connection points: 2
#     Edge 213, Type (0, 0), BuildingBlock: OJICUG_clean_linker_0, # of connection points: 2
#     Edge 214, Type (0, 0), BuildingBlock: OJICUG_clean_linker_0, # of connection points: 2
#     Edge 215, Type (0, 0), BuildingBlock: OJICUG_clean_linker_0, # of connection points: 2
#     Edge 216, Type (0, 0), BuildingBlock: OJICUG_clean_linker_0, # of connection points: 2
#     Edge 217, Type (0, 0), BuildingBlock: OJICUG_clean_linker_0, # of connection points: 2
#     Edge 218, Type (0, 0), BuildingBlock: OJICUG_clean_linker_0, # of connection points: 2
#     Edge 219, Type (0, 0), BuildingBlock: OJICUG_clean_linker_0, # of connection points: 2
#     Edge 220, Type (0, 0), BuildingBlock: OJICUG_clean_linker_0, # of connection points: 2
#     Edge 221, Type (0, 0), BuildingBlock: OJICUG_clean_linker_0, # of connection points: 2
#     Edge 222, Type (0, 0), BuildingBlock: OJICUG_clean_linker_0, # of connection points: 2
#     Edge 223, Type (0, 0), BuildingBlock: OJICUG_clean_linker_0, # of connection points: 2
#     Edge 224, Type (0, 0), BuildingBlock: OJICUG_clean_linker_0, # of connection points: 2
#     Edge 225, Type (0, 0), BuildingBlock: OJICUG_clean_linker_0, # of connection points: 2
#     Edge 226, Type (0, 0), BuildingBlock: OJICUG_clean_linker_0, # of connection points: 2
#     Edge 227, Type (0, 0), BuildingBlock: OJICUG_clean_linker_0, # of connection points: 2
#     Edge 228, Type (0, 0), BuildingBlock: OJICUG_clean_linker_0, # of connection points: 2
#     Edge 229, Type (0, 0), BuildingBlock: OJICUG_clean_linker_0, # of connection points: 2
#     Edge 230, Type (0, 0), BuildingBlock: OJICUG_clean_linker_0, # of connection points: 2
#     Edge 231, Type (0, 0), BuildingBlock: OJICUG_clean_linker_0, # of connection points: 2
#     Edge 232, Type (0, 0), BuildingBlock: OJICUG_clean_linker_0, # of connection points: 2
#     Edge 233, Type (0, 0), BuildingBlock: OJICUG_clean_linker_0, # of connection points: 2
#     Edge 234, Type (0, 0), BuildingBlock: OJICUG_clean_linker_0, # of connection points: 2
#     Edge 235, Type (0, 0), BuildingBlock: OJICUG_clean_linker_0, # of connection points: 2
#     Edge 236, Type (0, 0), BuildingBlock: OJICUG_clean_linker_0, # of connection points: 2
#     Edge 237, Type (0, 0), BuildingBlock: OJICUG_clean_linker_0, # of connection points: 2
#     Edge 238, Type (0, 0), BuildingBlock: OJICUG_clean_linker_0, # of connection points: 2
#     Edge 239, Type (0, 0), BuildingBlock: OJICUG_clean_linker_0, # of connection points: 2
#     Edge 240, Type (0, 0), BuildingBlock: OJICUG_clean_linker_0, # of connection points: 2
#     Edge 241, Type (0, 0), BuildingBlock: OJICUG_clean_linker_0, # of connection points: 2
#     Edge 242, Type (0, 0), BuildingBlock: OJICUG_clean_linker_0, # of connection points: 2
#     Edge 243, Type (0, 0), BuildingBlock: OJICUG_clean_linker_0, # of connection points: 2
#     Edge 244, Type (0, 0), BuildingBlock: OJICUG_clean_linker_0, # of connection points: 2
#     Edge 245, Type (0, 0), BuildingBlock: OJICUG_clean_linker_0, # of connection points: 2
#     Edge 246, Type (0, 0), BuildingBlock: OJICUG_clean_linker_0, # of connection points: 2
#     Edge 247, Type (0, 0), BuildingBlock: OJICUG_clean_linker_0, # of connection points: 2
#     Edge 248, Type (0, 0), BuildingBlock: OJICUG_clean_linker_0, # of connection points: 2
#     Edge 249, Type (0, 0), BuildingBlock: OJICUG_clean_linker_0, # of connection points: 2
#     Edge 250, Type (0, 0), BuildingBlock: OJICUG_clean_linker_0, # of connection points: 2
#     Edge 251, Type (0, 0), BuildingBlock: OJICUG_clean_linker_0, # of connection points: 2
#     Edge 252, Type (0, 0), BuildingBlock: OJICUG_clean_linker_0, # of connection points: 2
#     Edge 253, Type (0, 0), BuildingBlock: OJICUG_clean_linker_0, # of connection points: 2
#     Edge 254, Type (0, 0), BuildingBlock: OJICUG_clean_linker_0, # of connection points: 2
#     Edge 255, Type (0, 0), BuildingBlock: OJICUG_clean_linker_0, # of connection points: 2
#     Edge 256, Type (0, 0), BuildingBlock: OJICUG_clean_linker_0, # of connection points: 2
#     Edge 257, Type (0, 0), BuildingBlock: OJICUG_clean_linker_0, # of connection points: 2
#     Edge 258, Type (0, 0), BuildingBlock: OJICUG_clean_linker_0, # of connection points: 2
#     Edge 259, Type (0, 0), BuildingBlock: OJICUG_clean_linker_0, # of connection points: 2
#     Edge 260, Type (0, 0), BuildingBlock: OJICUG_clean_linker_0, # of connection points: 2
#     Edge 261, Type (0, 0), BuildingBlock: OJICUG_clean_linker_0, # of connection points: 2
#     Edge 262, Type (0, 0), BuildingBlock: OJICUG_clean_linker_0, # of connection points: 2
#     Edge 263, Type (0, 0), BuildingBlock: OJICUG_clean_linker_0, # of connection points: 2
#     Edge 264, Type (0, 0), BuildingBlock: OJICUG_clean_linker_0, # of connection points: 2
#     Edge 265, Type (0, 0), BuildingBlock: OJICUG_clean_linker_0, # of connection points: 2
#     Edge 266, Type (0, 0), BuildingBlock: OJICUG_clean_linker_0, # of connection points: 2
#     Edge 267, Type (0, 0), BuildingBlock: OJICUG_clean_linker_0, # of connection points: 2
#     Edge 268, Type (0, 0), BuildingBlock: OJICUG_clean_linker_0, # of connection points: 2
#     Edge 269, Type (0, 0), BuildingBlock: OJICUG_clean_linker_0, # of connection points: 2
#     Edge 270, Type (0, 0), BuildingBlock: OJICUG_clean_linker_0, # of connection points: 2
#     Edge 271, Type (0, 0), BuildingBlock: OJICUG_clean_linker_0, # of connection points: 2
#     Edge 272, Type (0, 0), BuildingBlock: OJICUG_clean_linker_0, # of connection points: 2
#     Edge 273, Type (0, 0), BuildingBlock: OJICUG_clean_linker_0, # of connection points: 2
#     Edge 274, Type (0, 0), BuildingBlock: OJICUG_clean_linker_0, # of connection points: 2
#     Edge 275, Type (0, 0), BuildingBlock: OJICUG_clean_linker_0, # of connection points: 2
#     Edge 276, Type (0, 0), BuildingBlock: OJICUG_clean_linker_0, # of connection points: 2
#     Edge 277, Type (0, 0), BuildingBlock: OJICUG_clean_linker_0, # of connection points: 2
#     Edge 278, Type (0, 0), BuildingBlock: OJICUG_clean_linker_0, # of connection points: 2
#     Edge 279, Type (0, 0), BuildingBlock: OJICUG_clean_linker_0, # of connection points: 2
#     Edge 280, Type (0, 0), BuildingBlock: OJICUG_clean_linker_0, # of connection points: 2
#     Edge 281, Type (0, 0), BuildingBlock: OJICUG_clean_linker_0, # of connection points: 2
#     Edge 282, Type (0, 0), BuildingBlock: OJICUG_clean_linker_0, # of connection points: 2
#     Edge 283, Type (0, 0), BuildingBlock: OJICUG_clean_linker_0, # of connection points: 2
#     Edge 284, Type (0, 0), BuildingBlock: OJICUG_clean_linker_0, # of connection points: 2
#     Edge 285, Type (0, 0), BuildingBlock: OJICUG_clean_linker_0, # of connection points: 2
#     Edge 286, Type (0, 0), BuildingBlock: OJICUG_clean_linker_0, # of connection points: 2
#     Edge 287, Type (0, 0), BuildingBlock: OJICUG_clean_linker_0, # of connection points: 2
# Relax obj value: 0.599
# Max RMSD: 0.185
# Mean RMSD: 0.185
data_MOF--net-ulg--node1-GALJAG_clean_sbu_0--edge1-OJICUG_clean_linker_0
_symmetry_space_group_name_H-M    P1
_symmetry_Int_Tables_number       1
_symmetry_cell_setting            triclinic
loop_
_symmetry_equiv_pos_as_xyz
'x, y, z'
_cell_length_a     68.576626
_cell_length_b     68.566731
_cell_length_c     68.568124
_cell_angle_alpha  90.002129
_cell_angle_beta   90.000579
_cell_angle_gamma 90.0
loop_
_atom_site_label
_atom_site_type_symbol
_atom_site_fract_x
_atom_site_fract_y
_atom_site_fract_z
_atom_type_partial_charge
In0 In 0.06427 0.53272 0.15724 0.0
O1 O 0.05833 0.56566 0.15877 0.0
O2 O 0.0443 0.54892 0.13675 0.0
C3 C 0.08454 0.52458 0.18953 0.0
C4 C 0.0327 0.51046 0.16053 0.0
C5 C 0.09392 0.53199 0.13163 0.0
O6 O 0.07389 0.53961 0.18807 0.0
O7 O 0.0839 0.51318 0.17508 0.0
O8 O 0.08099 0.51882 0.13198 0.0
O9 O 0.09186 0.54523 0.14421 0.0
C10 C 0.04706 0.56548 0.14415 0.0
O11 O 0.04424 0.50908 0.14621 0.0
O12 O 0.03766 0.52238 0.17366 0.0
In13 In 0.70653 0.31464 0.40601 0.0
O14 O 0.73016 0.29446 0.39517 0.0
O15 O 0.71681 0.28814 0.42265 0.0
C16 C 0.70699 0.34409 0.38017 0.0
C17 C 0.67366 0.29746 0.3932 0.0
C18 C 0.71482 0.33532 0.43799 0.0
O19 O 0.72012 0.33111 0.38041 0.0
O20 O 0.69395 0.34217 0.39298 0.0
O21 O 0.69985 0.32456 0.43677 0.0
O22 O 0.72613 0.33457 0.42347 0.0
C23 C 0.72873 0.28303 0.40957 0.0
O24 O 0.67362 0.30869 0.40784 0.0
O25 O 0.69015 0.29469 0.38564 0.0
In26 In 0.92272 0.95692 0.65599 0.0
O27 O 0.92868 0.924 0.65759 0.0
O28 O 0.94244 0.94064 0.63532 0.0
C29 C 0.90257 0.96504 0.68835 0.0
C30 C 0.95445 0.97898 0.65932 0.0
C31 C 0.89297 0.95757 0.63051 0.0
O32 O 0.91326 0.95006 0.68685 0.0
O33 O 0.90308 0.97644 0.67388 0.0
O34 O 0.90594 0.97071 0.63069 0.0
O35 O 0.89504 0.94443 0.6432 0.0
C36 C 0.93978 0.92412 0.64285 0.0
O37 O 0.94289 0.98053 0.64503 0.0
O38 O 0.94941 0.96704 0.6724 0.0
In39 In 0.28243 0.17322 0.90722 0.0
O40 O 0.31531 0.17947 0.90852 0.0
O41 O 0.29838 0.19292 0.88628 0.0
C42 C 0.27477 0.15292 0.9396 0.0
C43 C 0.26031 0.20491 0.91062 0.0
C44 C 0.28158 0.14345 0.88175 0.0
O45 O 0.28975 0.16358 0.93793 0.0
O46 O 0.26313 0.15359 0.92534 0.0
O47 O 0.26831 0.15628 0.88222 0.0
O48 O 0.29496 0.14567 0.89415 0.0
C49 C 0.31498 0.19047 0.8937 0.0
O50 O 0.25873 0.19331 0.89637 0.0
O51 O 0.27231 0.19991 0.92366 0.0
In52 In 0.06404 0.45523 0.83282 0.0
O53 O 0.0432 0.47825 0.84377 0.0
O54 O 0.03727 0.46484 0.81623 0.0
C55 C 0.09345 0.45598 0.85867 0.0
C56 C 0.0476 0.42192 0.84541 0.0
C57 C 0.0846 0.46441 0.80102 0.0
O58 O 0.08021 0.46886 0.8586 0.0
O59 O 0.0918 0.44306 0.8457 0.0
O60 O 0.07419 0.44918 0.80201 0.0
O61 O 0.08354 0.47553 0.81568 0.0
C62 C 0.03181 0.47653 0.82937 0.0
O63 O 0.05884 0.42219 0.83078 0.0
O64 O 0.04448 0.43831 0.85307 0.0
In65 In 0.78147 0.31549 0.08175 0.0
O66 O 0.75777 0.29529 0.0924 0.0
O67 O 0.77162 0.28879 0.06521 0.0
C68 C 0.78094 0.34531 0.10715 0.0
C69 C 0.814 0.29828 0.09531 0.0
C70 C 0.77353 0.33594 0.04955 0.0
O71 O 0.76768 0.33245 0.10692 0.0
O72 O 0.79414 0.34308 0.09454 0.0
O73 O 0.78858 0.32534 0.05107 0.0
O74 O 0.76196 0.33513 0.06387 0.0
C75 C 0.75954 0.28371 0.07815 0.0
O76 O 0.8143 0.30905 0.08032 0.0
O77 O 0.79743 0.29604 0.10288 0.0
In78 In 0.92387 0.03257 0.33139 0.0
O79 O 0.92983 0.0655 0.32977 0.0
O80 O 0.94355 0.04886 0.35207 0.0
C81 C 0.90355 0.0241 0.29925 0.0
C82 C 0.95561 0.01056 0.32798 0.0
C83 C 0.89413 0.03197 0.35689 0.0
O84 O 0.91407 0.03923 0.30059 0.0
O85 O 0.90436 0.01276 0.31375 0.0
O86 O 0.90714 0.01887 0.35676 0.0
O87 O 0.89617 0.04507 0.34415 0.0
C88 C 0.94089 0.06539 0.34454 0.0
O89 O 0.94409 0.00901 0.3423 0.0
O90 O 0.95055 0.02253 0.31493 0.0
In91 In 0.20716 0.1728 0.58251 0.0
O92 O 0.17427 0.17881 0.58072 0.0
O93 O 0.19079 0.19242 0.60319 0.0
C94 C 0.21551 0.15244 0.55035 0.0
C95 C 0.22917 0.20455 0.57905 0.0
C96 C 0.20754 0.14306 0.60801 0.0
O97 O 0.20052 0.16315 0.55167 0.0
O98 O 0.22682 0.15306 0.56489 0.0
O99 O 0.22066 0.15606 0.608 0.0
O100 O 0.19457 0.14511 0.59514 0.0
C101 C 0.17431 0.18981 0.59554 0.0
O102 O 0.23075 0.19306 0.59339 0.0
O103 O 0.21723 0.19944 0.56601 0.0
In104 In 0.15558 0.06439 0.53152 0.0
O105 O 0.14464 0.04409 0.50801 0.0
O106 O 0.17201 0.03767 0.52155 0.0
C107 C 0.1302 0.09422 0.53091 0.0
C108 C 0.14238 0.04755 0.5644 0.0
C109 C 0.18786 0.08456 0.52317 0.0
O110 O 0.13023 0.08118 0.51783 0.0
O111 O 0.14299 0.09218 0.54395 0.0
O112 O 0.18644 0.07392 0.53821 0.0
O113 O 0.17335 0.08397 0.51183 0.0
C114 C 0.15895 0.03256 0.50962 0.0
O115 O 0.15722 0.05853 0.56445 0.0
O116 O 0.13481 0.04488 0.54789 0.0
In117 In 0.17369 0.4061 0.78281 0.0
O118 O 0.17964 0.40774 0.81574 0.0
O119 O 0.1933 0.38538 0.79912 0.0
C120 C 0.15333 0.43827 0.77447 0.0
C121 C 0.20553 0.4094 0.7609 0.0
C122 C 0.14398 0.38058 0.78208 0.0
O123 O 0.16386 0.43688 0.78958 0.0
O124 O 0.15417 0.42383 0.76306 0.0
O125 O 0.15695 0.38083 0.76894 0.0
O126 O 0.14604 0.39321 0.79527 0.0
C127 C 0.19067 0.39294 0.81564 0.0
O128 O 0.19398 0.39511 0.75934 0.0
O129 O 0.20043 0.42252 0.77278 0.0
In130 In 0.8326 0.42502 0.03221 0.0
O131 O 0.8308 0.43009 0.06527 0.0
O132 O 0.85297 0.44453 0.04908 0.0
C133 C 0.80073 0.40447 0.02328 0.0
C134 C 0.82882 0.45719 0.01087 0.0
C135 C 0.85843 0.3956 0.0312 0.0
O136 O 0.80183 0.41493 0.03847 0.0
O137 O 0.81534 0.40544 0.01209 0.0
O138 O 0.85842 0.40898 0.01847 0.0
O139 O 0.84542 0.39712 0.04409 0.0
C140 C 0.84544 0.44132 0.0655 0.0
O141 O 0.84326 0.44586 0.00906 0.0
O142 O 0.81583 0.45172 0.02272 0.0
In143 In 0.81477 0.08285 0.28214 0.0
O144 O 0.80924 0.08091 0.31513 0.0
O145 O 0.79529 0.10335 0.29886 0.0
C146 C 0.83508 0.05087 0.27305 0.0
C147 C 0.78275 0.07949 0.26054 0.0
C148 C 0.84447 0.10837 0.28154 0.0
O149 O 0.82468 0.05198 0.28828 0.0
O150 O 0.83415 0.06552 0.26191 0.0
O151 O 0.83129 0.10843 0.2686 0.0
O152 O 0.84261 0.09542 0.29446 0.0
C153 C 0.79817 0.09568 0.31528 0.0
O154 O 0.7942 0.09386 0.25893 0.0
O155 O 0.78801 0.06637 0.27234 0.0
In156 In 0.15539 0.92352 0.45561 0.0
O157 O 0.15729 0.9287 0.42255 0.0
O158 O 0.13514 0.94315 0.43877 0.0
C159 C 0.18729 0.90309 0.46476 0.0
C160 C 0.1588 0.95568 0.47701 0.0
C161 C 0.12957 0.89409 0.45639 0.0
O162 O 0.18623 0.91347 0.44951 0.0
O163 O 0.17263 0.90408 0.47587 0.0
O164 O 0.12964 0.90734 0.46926 0.0
O165 O 0.14254 0.89572 0.44347 0.0
C166 C 0.14269 0.93999 0.42235 0.0
O167 O 0.14442 0.94426 0.47869 0.0
O168 O 0.17193 0.9503 0.46527 0.0
In169 In 0.31424 0.40537 0.70633 0.0
O170 O 0.30857 0.40729 0.67337 0.0
O171 O 0.29479 0.38477 0.68969 0.0
C172 C 0.33466 0.43728 0.71538 0.0
C173 C 0.28224 0.40887 0.72793 0.0
C174 C 0.34397 0.37988 0.70684 0.0
O175 O 0.32424 0.43619 0.70015 0.0
O176 O 0.33369 0.42265 0.72654 0.0
O177 O 0.33082 0.37978 0.71981 0.0
O178 O 0.34206 0.39283 0.69393 0.0
C179 C 0.29757 0.39247 0.67326 0.0
O180 O 0.29363 0.39445 0.72957 0.0
O181 O 0.28755 0.42195 0.71611 0.0
In182 In 0.83114 0.56552 0.95573 0.0
O183 O 0.82941 0.55937 0.92284 0.0
O184 O 0.8515 0.54541 0.93956 0.0
C185 C 0.79906 0.58612 0.96386 0.0
C186 C 0.82785 0.53397 0.97805 0.0
C187 C 0.857 0.59496 0.95606 0.0
O188 O 0.80037 0.57534 0.94892 0.0
O189 O 0.81355 0.58543 0.97522 0.0
O190 O 0.8566 0.58217 0.96936 0.0
O191 O 0.84433 0.59289 0.94291 0.0
C192 C 0.844 0.54807 0.92302 0.0
O193 O 0.84216 0.54551 0.97941 0.0
O194 O 0.81469 0.53896 0.96617 0.0
In195 In 0.67429 0.08256 0.20547 0.0
O196 O 0.69467 0.09366 0.22881 0.0
O197 O 0.70093 0.06607 0.21562 0.0
C198 C 0.6447 0.1082 0.20593 0.0
C199 C 0.69124 0.09531 0.17247 0.0
C200 C 0.65372 0.05066 0.21428 0.0
O201 O 0.65771 0.10809 0.21903 0.0
O202 O 0.64668 0.09539 0.1929 0.0
O203 O 0.66427 0.05175 0.19916 0.0
O204 O 0.65465 0.06526 0.22548 0.0
C205 C 0.70612 0.07927 0.22738 0.0
O206 O 0.68011 0.0806 0.17253 0.0
O207 O 0.69401 0.10298 0.18891 0.0
In208 In 0.53176 0.15666 0.06452 0.0
O209 O 0.56478 0.15852 0.05917 0.0
O210 O 0.5485 0.13623 0.04499 0.0
C211 C 0.52291 0.18865 0.08493 0.0
C212 C 0.51045 0.16018 0.03231 0.0
C213 C 0.53093 0.13094 0.09405 0.0
O214 O 0.5381 0.18745 0.07449 0.0
O215 O 0.51166 0.17408 0.08399 0.0
O216 O 0.51799 0.13105 0.08087 0.0
O217 O 0.54393 0.14381 0.09229 0.0
C218 C 0.56493 0.14384 0.04799 0.0
O219 O 0.5087 0.14577 0.04369 0.0
O220 O 0.52216 0.17329 0.03778 0.0
In221 In 0.03162 0.8318 0.42332 0.0
O222 O 0.00828 0.84299 0.44364 0.0
O223 O 0.0216 0.81554 0.45014 0.0
C224 C 0.03096 0.85719 0.39348 0.0
C225 C 0.06456 0.84486 0.44016 0.0
C226 C 0.02315 0.79959 0.40309 0.0
O227 O 0.01785 0.85706 0.40648 0.0
O228 O 0.0441 0.84451 0.39559 0.0
O229 O 0.03825 0.80096 0.41364 0.0
O230 O 0.01179 0.81407 0.40388 0.0
C231 C 0.00981 0.82873 0.45524 0.0
O232 O 0.06456 0.83002 0.42919 0.0
O233 O 0.0481 0.85252 0.4428 0.0
In234 In 0.40715 0.28272 0.67343 0.0
O235 O 0.39595 0.25938 0.69374 0.0
O236 O 0.4234 0.27271 0.70029 0.0
C237 C 0.38166 0.28201 0.6437 0.0
C238 C 0.39401 0.31557 0.69037 0.0
C239 C 0.43936 0.27416 0.65323 0.0
O240 O 0.38194 0.26884 0.65664 0.0
O241 O 0.39426 0.29523 0.64579 0.0
O242 O 0.43799 0.28933 0.66369 0.0
O243 O 0.42488 0.26282 0.65407 0.0
C244 C 0.41018 0.26093 0.70537 0.0
O245 O 0.40874 0.31569 0.67925 0.0
O246 O 0.38652 0.29904 0.6931 0.0
In247 In 0.9562 0.65496 0.92303 0.0
O248 O 0.9232 0.65754 0.9282 0.0
O249 O 0.93901 0.63529 0.94295 0.0
C250 C 0.9657 0.68643 0.90208 0.0
C251 C 0.97767 0.65838 0.95516 0.0
C252 C 0.95662 0.62875 0.89391 0.0
O253 O 0.95052 0.68574 0.91259 0.0
O254 O 0.97663 0.67164 0.90326 0.0
O255 O 0.96956 0.6289 0.90708 0.0
O256 O 0.94378 0.64182 0.89549 0.0
C257 C 0.92273 0.64312 0.9397 0.0
O258 O 0.97903 0.64379 0.94395 0.0
O259 O 0.96626 0.67171 0.94955 0.0
In260 In 0.08161 0.70675 0.17353 0.0
O261 O 0.07985 0.67387 0.17968 0.0
O262 O 0.10223 0.69049 0.1933 0.0
C263 C 0.04955 0.71493 0.15295 0.0
C264 C 0.07824 0.72892 0.20519 0.0
C265 C 0.10724 0.7071 0.14391 0.0
O266 O 0.05083 0.7 0.16374 0.0
O267 O 0.06404 0.72629 0.15363 0.0
O268 O 0.10705 0.72032 0.1568 0.0
O269 O 0.09449 0.69402 0.14601 0.0
C270 C 0.09463 0.67398 0.19074 0.0
O271 O 0.09256 0.73038 0.19366 0.0
O272 O 0.06513 0.71702 0.20014 0.0
In273 In 0.45537 0.83077 0.0645 0.0
O274 O 0.47857 0.84184 0.04397 0.0
O275 O 0.46556 0.81413 0.03794 0.0
C276 C 0.45603 0.85677 0.09382 0.0
C277 C 0.42237 0.84332 0.04739 0.0
C278 C 0.46395 0.79891 0.08526 0.0
O279 O 0.4692 0.8563 0.08088 0.0
O280 O 0.44283 0.84412 0.09191 0.0
O281 O 0.44885 0.80005 0.07469 0.0
O282 O 0.47526 0.81342 0.08424 0.0
C283 C 0.47717 0.82739 0.0326 0.0
O284 O 0.4224 0.82882 0.05881 0.0
O285 O 0.43883 0.85089 0.04447 0.0
In286 In 0.40491 0.20686 0.81424 0.0
O287 O 0.39445 0.23031 0.79362 0.0
O288 O 0.42171 0.21638 0.78761 0.0
C289 C 0.37932 0.2075 0.84386 0.0
C290 C 0.39171 0.1739 0.79758 0.0
C291 C 0.43691 0.21549 0.83471 0.0
O292 O 0.37924 0.22041 0.83065 0.0
O293 O 0.39233 0.19464 0.84209 0.0
O294 O 0.43567 0.20034 0.8242 0.0
O295 O 0.42236 0.22677 0.83387 0.0
C296 C 0.40886 0.22843 0.78226 0.0
O297 O 0.40655 0.17389 0.80856 0.0
O298 O 0.38416 0.19039 0.7948 0.0
In299 In 0.58291 0.28157 0.31451 0.0
O300 O 0.581 0.31455 0.30894 0.0
O301 O 0.60319 0.29821 0.29471 0.0
C302 C 0.55094 0.27292 0.33503 0.0
C303 C 0.5793 0.25981 0.28261 0.0
C304 C 0.60873 0.28095 0.34396 0.0
O305 O 0.55211 0.28798 0.32441 0.0
O306 O 0.56554 0.2617 0.33426 0.0
O307 O 0.60861 0.26796 0.33084 0.0
O308 O 0.59583 0.29392 0.34218 0.0
C309 C 0.5956 0.31465 0.29766 0.0
O310 O 0.59376 0.25825 0.29395 0.0
O311 O 0.56621 0.27161 0.28796 0.0
In312 In 0.06368 0.03256 0.65538 0.0
O313 O 0.04266 0.00978 0.64429 0.0
O314 O 0.03698 0.0229 0.67204 0.0
C315 C 0.09294 0.0317 0.62937 0.0
C316 C 0.0474 0.0661 0.64318 0.0
C317 C 0.08417 0.02294 0.6871 0.0
O318 O 0.07957 0.01896 0.62942 0.0
O319 O 0.09149 0.04454 0.64244 0.0
O320 O 0.07385 0.03825 0.68625 0.0
O321 O 0.08308 0.012 0.67232 0.0
C322 C 0.03139 0.01137 0.65881 0.0
O323 O 0.05891 0.06566 0.6576 0.0
O324 O 0.04394 0.04977 0.63556 0.0
In325 In 0.70603 0.81551 0.90674 0.0
O326 O 0.67326 0.80877 0.90841 0.0
O327 O 0.6901 0.79578 0.88582 0.0
C328 C 0.71387 0.83593 0.93901 0.0
C329 C 0.7285 0.78404 0.90979 0.0
C330 C 0.70623 0.84536 0.88137 0.0
O331 O 0.69894 0.82516 0.93751 0.0
O332 O 0.72538 0.83528 0.92464 0.0
O333 O 0.7197 0.83274 0.88171 0.0
O334 O 0.69295 0.84289 0.89384 0.0
C335 C 0.67357 0.79791 0.89349 0.0
O336 O 0.72984 0.79572 0.89558 0.0
O337 O 0.71657 0.78885 0.92297 0.0
In338 In 0.92442 0.45497 0.15649 0.0
O339 O 0.94507 0.47811 0.14553 0.0
O340 O 0.95105 0.46485 0.17314 0.0
C341 C 0.89501 0.456 0.13063 0.0
C342 C 0.94102 0.42176 0.1438 0.0
C343 C 0.90395 0.46395 0.18841 0.0
O344 O 0.90824 0.46888 0.13088 0.0
O345 O 0.89667 0.44291 0.14342 0.0
O346 O 0.91432 0.4487 0.18728 0.0
O347 O 0.90498 0.47514 0.17381 0.0
C348 C 0.9564 0.47659 0.16 0.0
O349 O 0.92963 0.42192 0.15831 0.0
O350 O 0.94422 0.4382 0.13631 0.0
In351 In 0.28125 0.67305 0.40626 0.0
O352 O 0.2578 0.69352 0.39552 0.0
O353 O 0.2712 0.69955 0.42304 0.0
C354 C 0.28081 0.6437 0.38032 0.0
C355 C 0.31417 0.69014 0.39351 0.0
C356 C 0.27281 0.65225 0.4381 0.0
O357 O 0.26768 0.65669 0.38057 0.0
O358 O 0.29382 0.64556 0.39317 0.0
O359 O 0.28781 0.66296 0.43697 0.0
O360 O 0.26152 0.65311 0.42357 0.0
C361 C 0.25936 0.70486 0.40998 0.0
O362 O 0.31417 0.6789 0.40814 0.0
O363 O 0.29771 0.69294 0.38592 0.0
In364 In 0.06385 0.95502 0.33143 0.0
O365 O 0.05826 0.92204 0.32932 0.0
O366 O 0.04394 0.93831 0.35152 0.0
C367 C 0.08462 0.96418 0.29976 0.0
C368 C 0.03199 0.97684 0.32805 0.0
C369 C 0.09323 0.95551 0.35733 0.0
O370 O 0.0742 0.94895 0.30068 0.0
O371 O 0.08342 0.9753 0.31441 0.0
O372 O 0.08015 0.96854 0.35717 0.0
O373 O 0.09143 0.94252 0.34445 0.0
C374 C 0.04692 0.9219 0.34387 0.0
O375 O 0.04334 0.97822 0.34252 0.0
O376 O 0.03728 0.96516 0.31482 0.0
In377 In 0.78159 0.81459 0.58276 0.0
O378 O 0.81457 0.8091 0.58067 0.0
O379 O 0.79836 0.79472 0.60286 0.0
C380 C 0.77273 0.83521 0.55089 0.0
C381 C 0.75979 0.7827 0.57932 0.0
C382 C 0.78106 0.84395 0.60869 0.0
O383 O 0.78782 0.8246 0.55193 0.0
O384 O 0.7616 0.83435 0.56554 0.0
O385 O 0.76804 0.83085 0.60852 0.0
O386 O 0.79401 0.8422 0.59577 0.0
C387 C 0.81476 0.79775 0.59522 0.0
O388 O 0.75834 0.79406 0.59378 0.0
O389 O 0.7715 0.78802 0.56614 0.0
In390 In 0.92285 0.53043 0.83272 0.0
O391 O 0.94325 0.50703 0.84369 0.0
O392 O 0.94941 0.52029 0.81612 0.0
C393 C 0.89336 0.53044 0.85848 0.0
C394 C 0.93998 0.56342 0.84525 0.0
C395 C 0.90208 0.52153 0.80098 0.0
O396 O 0.90633 0.51729 0.85853 0.0
O397 O 0.89532 0.54325 0.84544 0.0
O398 O 0.91275 0.53658 0.80192 0.0
O399 O 0.90298 0.51043 0.81566 0.0
C400 C 0.95467 0.50852 0.82927 0.0
O401 O 0.92888 0.56331 0.8305 0.0
O402 O 0.94262 0.54702 0.85306 0.0
In403 In 0.20506 0.67366 0.0818 0.0
O404 O 0.22833 0.69411 0.09291 0.0
O405 O 0.21516 0.70036 0.06533 0.0
C406 C 0.20573 0.64426 0.10768 0.0
C407 C 0.17202 0.69058 0.09452 0.0
C408 C 0.21361 0.6531 0.0498 0.0
O409 O 0.21885 0.65724 0.10732 0.0
O410 O 0.19259 0.64614 0.09497 0.0
O411 O 0.19853 0.6637 0.05101 0.0
O412 O 0.22489 0.65397 0.06433 0.0
C413 C 0.22686 0.70559 0.07856 0.0
O414 O 0.17207 0.67925 0.07995 0.0
O415 O 0.18849 0.69354 0.10206 0.0
In416 In 0.15542 0.5635 0.03291 0.0
O417 O 0.14442 0.54269 0.0099 0.0
O418 O 0.17213 0.53689 0.023 0.0
C419 C 0.12925 0.59264 0.032 0.0
C420 C 0.14317 0.5471 0.0664 0.0
C421 C 0.18715 0.58422 0.02378 0.0
O422 O 0.12944 0.57931 0.01923 0.0
O423 O 0.14227 0.59122 0.04491 0.0
O424 O 0.18623 0.57368 0.03892 0.0
O425 O 0.17245 0.58322 0.01273 0.0
C426 C 0.15893 0.53141 0.01139 0.0
O427 O 0.15754 0.55866 0.066 0.0
O428 O 0.13563 0.5436 0.05004 0.0
In429 In 0.17466 0.90667 0.28384 0.0
O430 O 0.18016 0.90851 0.31685 0.0
O431 O 0.1944 0.88634 0.30046 0.0
C432 C 0.15401 0.93844 0.27475 0.0
C433 C 0.20657 0.91034 0.26215 0.0
C434 C 0.1452 0.88087 0.28304 0.0
O435 O 0.1643 0.9374 0.29006 0.0
O436 O 0.15522 0.92385 0.26357 0.0
O437 O 0.15839 0.88102 0.27013 0.0
O438 O 0.14693 0.89373 0.29607 0.0
C439 C 0.19141 0.89387 0.31693 0.0
O440 O 0.19526 0.89586 0.26061 0.0
O441 O 0.20125 0.92342 0.27398 0.0
In442 In 0.83111 0.92435 0.53255 0.0
O443 O 0.82916 0.9299 0.56554 0.0
O444 O 0.85111 0.94447 0.54918 0.0
C445 C 0.79912 0.90376 0.52403 0.0
C446 C 0.82785 0.95598 0.51034 0.0
C447 C 0.85706 0.895 0.53195 0.0
O448 O 0.80026 0.91451 0.539 0.0
O449 O 0.81372 0.90447 0.51283 0.0
O450 O 0.85676 0.90803 0.51888 0.0
O451 O 0.84426 0.89681 0.54502 0.0
C452 C 0.8436 0.94138 0.56564 0.0
O453 O 0.84226 0.94455 0.50911 0.0
O454 O 0.81461 0.95088 0.52208 0.0
In455 In 0.8136 0.58101 0.78195 0.0
O456 O 0.79344 0.59167 0.75822 0.0
O457 O 0.7868 0.56457 0.77218 0.0
C458 C 0.84368 0.60608 0.78104 0.0
C459 C 0.79668 0.59496 0.81448 0.0
C460 C 0.8337 0.54856 0.77413 0.0
O461 O 0.8307 0.60593 0.76789 0.0
O462 O 0.84142 0.59358 0.79433 0.0
O463 O 0.82317 0.55027 0.78922 0.0
O464 O 0.833 0.56283 0.7625 0.0
C465 C 0.78182 0.57747 0.76002 0.0
O466 O 0.80735 0.57991 0.81484 0.0
O467 O 0.79435 0.60239 0.79786 0.0
In468 In 0.15616 0.42293 0.95633 0.0
O469 O 0.15781 0.42884 0.9234 0.0
O470 O 0.13545 0.44252 0.93998 0.0
C471 C 0.18839 0.40271 0.96475 0.0
C472 C 0.15944 0.45473 0.9783 0.0
C473 C 0.13073 0.39313 0.95693 0.0
O474 O 0.187 0.41326 0.94965 0.0
O475 O 0.1739 0.40343 0.9761 0.0
O476 O 0.13083 0.40614 0.97004 0.0
O477 O 0.14347 0.39519 0.94384 0.0
C478 C 0.14301 0.43986 0.92347 0.0
O479 O 0.14517 0.44315 0.97987 0.0
O480 O 0.17252 0.44969 0.96636 0.0
In481 In 0.31402 0.90793 0.20517 0.0
O482 O 0.30757 0.9093 0.17232 0.0
O483 O 0.29424 0.88701 0.18928 0.0
C484 C 0.33441 0.94024 0.21289 0.0
C485 C 0.2826 0.91121 0.22768 0.0
C486 C 0.34384 0.88253 0.20584 0.0
O487 O 0.32371 0.93866 0.19791 0.0
O488 O 0.3337 0.92594 0.22448 0.0
O489 O 0.33105 0.88294 0.21915 0.0
O490 O 0.34154 0.89493 0.19248 0.0
C491 C 0.29661 0.89446 0.17267 0.0
O492 O 0.29423 0.89697 0.22904 0.0
O493 O 0.28739 0.9243 0.21563 0.0
In494 In 0.83178 0.0643 0.45485 0.0
O495 O 0.82992 0.05908 0.4218 0.0
O496 O 0.8519 0.04445 0.43809 0.0
C497 C 0.79992 0.08483 0.4639 0.0
C498 C 0.82827 0.03232 0.4765 0.0
C499 C 0.85771 0.09366 0.45572 0.0
O500 O 0.80099 0.07445 0.44865 0.0
O501 O 0.81453 0.08378 0.47506 0.0
O502 O 0.85751 0.08042 0.46859 0.0
O503 O 0.84481 0.09204 0.44272 0.0
C504 C 0.84442 0.04766 0.42164 0.0
O505 O 0.84269 0.0437 0.47806 0.0
O506 O 0.81516 0.03762 0.4647 0.0
In507 In 0.67323 0.58105 0.70524 0.0
O508 O 0.69378 0.592 0.72849 0.0
O509 O 0.69991 0.56447 0.7151 0.0
C510 C 0.64362 0.60668 0.70585 0.0
C511 C 0.69011 0.59401 0.67231 0.0
C512 C 0.65279 0.54912 0.7142 0.0
O513 O 0.65666 0.60652 0.71892 0.0
O514 O 0.64556 0.59389 0.69278 0.0
O515 O 0.66313 0.55027 0.69893 0.0
O516 O 0.65385 0.56369 0.72542 0.0
C517 C 0.70519 0.5776 0.7269 0.0
O518 O 0.67896 0.5793 0.67227 0.0
O519 O 0.69292 0.60155 0.6888 0.0
In520 In 0.53281 0.65645 0.56442 0.0
O521 O 0.56589 0.65831 0.55934 0.0
O522 O 0.54969 0.63622 0.54479 0.0
C523 C 0.52374 0.68849 0.58469 0.0
C524 C 0.51132 0.65958 0.5323 0.0
C525 C 0.53182 0.63075 0.59398 0.0
O526 O 0.53899 0.68733 0.57432 0.0
O527 O 0.51257 0.67387 0.58372 0.0
O528 O 0.51896 0.6309 0.58073 0.0
O529 O 0.54487 0.64357 0.59227 0.0
C530 C 0.56611 0.64374 0.54802 0.0
O531 O 0.50978 0.64523 0.54378 0.0
O532 O 0.52298 0.67282 0.53758 0.0
In533 In 0.03286 0.33091 0.92408 0.0
O534 O 0.06587 0.32898 0.92954 0.0
O535 O 0.04955 0.35107 0.94395 0.0
C536 C 0.02397 0.29899 0.90355 0.0
C537 C 0.01105 0.32765 0.95598 0.0
C538 C 0.03216 0.35672 0.89462 0.0
O539 O 0.03912 0.30008 0.91407 0.0
O540 O 0.0128 0.31361 0.9045 0.0
O541 O 0.01914 0.35648 0.90771 0.0
O542 O 0.04524 0.34394 0.89645 0.0
C543 C 0.06599 0.34352 0.9409 0.0
O544 O 0.00968 0.34208 0.94457 0.0
O545 O 0.0227 0.31439 0.95072 0.0
In546 In 0.40532 0.78378 0.17477 0.0
O547 O 0.40754 0.81692 0.17929 0.0
O548 O 0.38575 0.8011 0.19469 0.0
C549 C 0.43708 0.77416 0.15432 0.0
C550 C 0.40851 0.76245 0.20701 0.0
C551 C 0.37917 0.78281 0.14562 0.0
O552 O 0.43623 0.78944 0.16466 0.0
O553 O 0.42228 0.76325 0.15536 0.0
O554 O 0.37933 0.77011 0.15901 0.0
O555 O 0.39222 0.79569 0.14698 0.0
C556 C 0.39328 0.81742 0.19098 0.0
O557 O 0.39405 0.76099 0.19566 0.0
O558 O 0.42182 0.77394 0.20154 0.0
In559 In 0.95619 0.15566 0.42392 0.0
O560 O 0.97933 0.14481 0.44467 0.0
O561 O 0.96582 0.17231 0.45064 0.0
C562 C 0.95699 0.12999 0.39436 0.0
C563 C 0.92296 0.14288 0.44039 0.0
C564 C 0.96533 0.18757 0.40353 0.0
O565 O 0.96981 0.12995 0.40765 0.0
O566 O 0.94409 0.14297 0.39604 0.0
O567 O 0.95006 0.18649 0.41387 0.0
O568 O 0.97646 0.17293 0.40453 0.0
C569 C 0.97763 0.15925 0.45603 0.0
O570 O 0.92317 0.15758 0.42924 0.0
O571 O 0.93938 0.13525 0.44343 0.0
In572 In 0.08303 0.20554 0.67377 0.0
O573 O 0.08067 0.17246 0.67862 0.0
O574 O 0.10262 0.18831 0.69376 0.0
C575 C 0.05132 0.21505 0.65321 0.0
C576 C 0.07966 0.22717 0.70579 0.0
C577 C 0.10916 0.20617 0.6446 0.0
O578 O 0.05212 0.19987 0.66369 0.0
O579 O 0.06615 0.22593 0.65413 0.0
O580 O 0.10912 0.21893 0.65793 0.0
O581 O 0.096 0.19341 0.64602 0.0
C582 C 0.09499 0.17199 0.69025 0.0
O583 O 0.09419 0.22853 0.69451 0.0
O584 O 0.06641 0.21559 0.70037 0.0
In585 In 0.4561 0.33245 0.56419 0.0
O586 O 0.42307 0.33032 0.559 0.0
O587 O 0.4391 0.35272 0.54472 0.0
C588 C 0.46545 0.30059 0.58458 0.0
C589 C 0.47746 0.32915 0.53199 0.0
C590 C 0.45681 0.35811 0.59377 0.0
O591 O 0.45018 0.30158 0.57422 0.0
O592 O 0.4765 0.31529 0.58355 0.0
O593 O 0.46964 0.35819 0.58049 0.0
O594 O 0.44394 0.3451 0.59206 0.0
C595 C 0.42274 0.345 0.54782 0.0
O596 O 0.47907 0.34357 0.54339 0.0
O597 O 0.46582 0.31595 0.53741 0.0
In598 In 0.40513 0.70682 0.31515 0.0
O599 O 0.40724 0.67388 0.3094 0.0
O600 O 0.38512 0.69019 0.29503 0.0
C601 C 0.43708 0.71539 0.33576 0.0
C602 C 0.4085 0.7291 0.28357 0.0
C603 C 0.3792 0.70705 0.34452 0.0
O604 O 0.436 0.70048 0.32491 0.0
O605 O 0.4224 0.72651 0.33516 0.0
O606 O 0.37932 0.72015 0.3315 0.0
O607 O 0.39218 0.69417 0.34268 0.0
C608 C 0.39275 0.67376 0.29799 0.0
O609 O 0.39407 0.73037 0.29498 0.0
O610 O 0.42167 0.71729 0.28867 0.0
In611 In 0.583 0.78041 0.81497 0.0
O612 O 0.58105 0.81335 0.80928 0.0
O613 O 0.60335 0.79702 0.7952 0.0
C614 C 0.5511 0.77186 0.83563 0.0
C615 C 0.57924 0.7585 0.78318 0.0
C616 C 0.60888 0.78006 0.84437 0.0
O617 O 0.55221 0.78683 0.82486 0.0
O618 O 0.56572 0.76067 0.83494 0.0
O619 O 0.60893 0.76711 0.83121 0.0
O620 O 0.59576 0.79282 0.84267 0.0
C621 C 0.59571 0.81346 0.79808 0.0
O622 O 0.59366 0.75686 0.79455 0.0
O623 O 0.56627 0.77046 0.78844 0.0
In624 In 0.56361 0.53255 0.65629 0.0
O625 O 0.55814 0.56555 0.65824 0.0
O626 O 0.54415 0.5493 0.63581 0.0
C627 C 0.58391 0.52336 0.68825 0.0
C628 C 0.53155 0.51101 0.65964 0.0
C629 C 0.59334 0.53182 0.6308 0.0
O630 O 0.57362 0.53867 0.68713 0.0
O631 O 0.58285 0.5122 0.67362 0.0
O632 O 0.58013 0.51892 0.63075 0.0
O633 O 0.59149 0.54478 0.6437 0.0
C634 C 0.54707 0.56572 0.64348 0.0
O635 O 0.54296 0.50943 0.64523 0.0
O636 O 0.53685 0.52276 0.67278 0.0
In637 In 0.20617 0.31382 0.90609 0.0
O638 O 0.22937 0.29308 0.89536 0.0
O639 O 0.2158 0.28716 0.92283 0.0
C640 C 0.20696 0.34334 0.88035 0.0
C641 C 0.17304 0.29727 0.8932 0.0
C642 C 0.21505 0.33432 0.93801 0.0
O643 O 0.21985 0.3301 0.8804 0.0
O644 O 0.19402 0.34163 0.8933 0.0
O645 O 0.19987 0.32386 0.93687 0.0
O646 O 0.22626 0.33337 0.92341 0.0
C647 C 0.22763 0.28174 0.9098 0.0
O648 O 0.17316 0.30845 0.90788 0.0
O649 O 0.18949 0.29424 0.88565 0.0
In650 In 0.42414 0.95598 0.15432 0.0
O651 O 0.42918 0.92295 0.15681 0.0
O652 O 0.44403 0.93875 0.13463 0.0
C653 C 0.40325 0.96566 0.18575 0.0
C654 C 0.45618 0.97753 0.15793 0.0
C655 C 0.39504 0.95641 0.12812 0.0
O656 O 0.41371 0.95045 0.18513 0.0
O657 O 0.40438 0.97649 0.17089 0.0
O658 O 0.40837 0.96919 0.12808 0.0
O659 O 0.39645 0.94375 0.14137 0.0
C660 C 0.44068 0.92246 0.14239 0.0
O661 O 0.44498 0.97897 0.14334 0.0
O662 O 0.45065 0.96593 0.17112 0.0
In663 In 0.7835 0.17434 0.40636 0.0
O664 O 0.7605 0.19505 0.39524 0.0
O665 O 0.77365 0.20108 0.42288 0.0
C666 C 0.78267 0.14496 0.38044 0.0
C667 C 0.81685 0.19084 0.39392 0.0
C668 C 0.7742 0.15385 0.43818 0.0
O669 O 0.76982 0.15822 0.38058 0.0
O670 O 0.79562 0.14657 0.39338 0.0
O671 O 0.78947 0.1642 0.4372 0.0
O672 O 0.76313 0.15493 0.4235 0.0
C673 C 0.76201 0.20645 0.40966 0.0
O674 O 0.81656 0.1794 0.4084 0.0
O675 O 0.80046 0.19412 0.38635 0.0
In676 In 0.56445 0.45573 0.33147 0.0
O677 O 0.55906 0.42271 0.32967 0.0
O678 O 0.54454 0.43908 0.35165 0.0
C679 C 0.58487 0.46438 0.29943 0.0
C680 C 0.53256 0.47753 0.32805 0.0
C681 C 0.59388 0.4566 0.35733 0.0
O682 O 0.57432 0.44927 0.30065 0.0
O683 O 0.58406 0.47563 0.31399 0.0
O684 O 0.58074 0.46957 0.35707 0.0
O685 O 0.59213 0.44352 0.34454 0.0
C686 C 0.54765 0.42262 0.34417 0.0
O687 O 0.54396 0.47901 0.34247 0.0
O688 O 0.53783 0.46577 0.31489 0.0
In689 In 0.28298 0.31373 0.58224 0.0
O690 O 0.31607 0.30887 0.58007 0.0
O691 O 0.30012 0.29403 0.60216 0.0
C692 C 0.27356 0.33416 0.55041 0.0
C693 C 0.26171 0.28147 0.57901 0.0
C694 C 0.28208 0.3431 0.60816 0.0
O695 O 0.28883 0.32382 0.55136 0.0
O696 O 0.26253 0.3331 0.56513 0.0
O697 O 0.26926 0.32981 0.60802 0.0
O698 O 0.29503 0.34153 0.59522 0.0
C699 C 0.31646 0.29741 0.59453 0.0
O700 O 0.26018 0.29282 0.59347 0.0
O701 O 0.27321 0.28696 0.56572 0.0
In702 In 0.42442 0.03424 0.8304 0.0
O703 O 0.44455 0.01074 0.84144 0.0
O704 O 0.45091 0.02376 0.81381 0.0
C705 C 0.39514 0.03349 0.85642 0.0
C706 C 0.44162 0.06719 0.84304 0.0
C707 C 0.4037 0.02562 0.79852 0.0
O708 O 0.40816 0.02042 0.85597 0.0
O709 O 0.39694 0.04668 0.84374 0.0
O710 O 0.41424 0.04076 0.79965 0.0
O711 O 0.40471 0.01437 0.81306 0.0
C712 C 0.45596 0.01195 0.82701 0.0
O713 O 0.43012 0.06722 0.82861 0.0
O714 O 0.44465 0.05067 0.85045 0.0
In715 In 0.70607 0.17446 0.08199 0.0
O716 O 0.67306 0.17986 0.08017 0.0
O717 O 0.68936 0.19396 0.10249 0.0
C718 C 0.71482 0.15409 0.04994 0.0
C719 C 0.72747 0.20662 0.07846 0.0
C720 C 0.70703 0.14485 0.10762 0.0
O721 O 0.69964 0.16454 0.05119 0.0
O722 O 0.7261 0.155 0.06448 0.0
O723 O 0.71996 0.15804 0.10747 0.0
O724 O 0.69394 0.14666 0.09484 0.0
C725 C 0.67293 0.191 0.09488 0.0
O726 O 0.72915 0.19526 0.0929 0.0
O727 O 0.71576 0.20116 0.06534 0.0
In728 In 0.65598 0.06537 0.03224 0.0
O729 O 0.64459 0.04518 0.00889 0.0
O730 O 0.67222 0.03867 0.02183 0.0
C731 C 0.63012 0.09481 0.0318 0.0
C732 C 0.64358 0.04852 0.06544 0.0
C733 C 0.68804 0.08571 0.02338 0.0
O734 O 0.63027 0.08174 0.01876 0.0
O735 O 0.64305 0.09301 0.04474 0.0
O736 O 0.68694 0.07503 0.03841 0.0
O737 O 0.67333 0.08507 0.01232 0.0
C738 C 0.65891 0.03363 0.01014 0.0
O739 O 0.65801 0.06001 0.06526 0.0
O740 O 0.63606 0.04531 0.04901 0.0
In741 In 0.67389 0.40579 0.28196 0.0
O742 O 0.67939 0.40773 0.31495 0.0
O743 O 0.69378 0.38561 0.29863 0.0
C744 C 0.65336 0.43769 0.27308 0.0
C745 C 0.70575 0.40936 0.26017 0.0
C746 C 0.64453 0.37987 0.28137 0.0
O747 O 0.66388 0.4366 0.28822 0.0
O748 O 0.65423 0.42305 0.26193 0.0
O749 O 0.65768 0.38001 0.2684 0.0
O750 O 0.64623 0.39283 0.2943 0.0
C751 C 0.69074 0.39318 0.31507 0.0
O752 O 0.69437 0.39494 0.2586 0.0
O753 O 0.70049 0.42244 0.27202 0.0
In754 In 0.33141 0.42338 0.53336 0.0
O755 O 0.32948 0.42857 0.56642 0.0
O756 O 0.35137 0.44336 0.55017 0.0
C757 C 0.29941 0.403 0.52439 0.0
C758 C 0.32831 0.45528 0.51152 0.0
C759 C 0.35731 0.39398 0.53255 0.0
O760 O 0.30052 0.41349 0.53955 0.0
O761 O 0.31406 0.40387 0.51326 0.0
O762 O 0.35705 0.40713 0.5196 0.0
O763 O 0.34449 0.39569 0.54561 0.0
C764 C 0.3439 0.44008 0.5666 0.0
O765 O 0.34269 0.44381 0.51018 0.0
O766 O 0.31503 0.4501 0.52318 0.0
In767 In 0.31325 0.08249 0.78287 0.0
O768 O 0.30836 0.08008 0.81593 0.0
O769 O 0.29328 0.10209 0.8001 0.0
C770 C 0.33425 0.05111 0.77325 0.0
C771 C 0.2812 0.07879 0.76137 0.0
C772 C 0.34227 0.10879 0.78213 0.0
O773 O 0.32388 0.05176 0.78852 0.0
O774 O 0.33293 0.06588 0.76233 0.0
O775 O 0.32891 0.10866 0.76939 0.0
O776 O 0.34092 0.09568 0.79495 0.0
C777 C 0.29675 0.09442 0.81641 0.0
O778 O 0.29234 0.09342 0.75996 0.0
O779 O 0.28679 0.06559 0.77294 0.0
In780 In 0.65442 0.925 0.95517 0.0
O781 O 0.65656 0.92961 0.92205 0.0
O782 O 0.63459 0.94472 0.93789 0.0
C783 C 0.68616 0.90446 0.96461 0.0
C784 C 0.65793 0.95716 0.97657 0.0
C785 C 0.6284 0.89574 0.95612 0.0
O786 O 0.68531 0.91493 0.94941 0.0
O787 O 0.67137 0.90541 0.97554 0.0
O788 O 0.62837 0.90921 0.96875 0.0
O789 O 0.64154 0.89709 0.94334 0.0
C790 C 0.64215 0.94112 0.92156 0.0
O791 O 0.64342 0.94588 0.97812 0.0
O792 O 0.67109 0.95167 0.96491 0.0
In793 In 0.81433 0.40657 0.20536 0.0
O794 O 0.80894 0.40877 0.17235 0.0
O795 O 0.79424 0.38675 0.18851 0.0
C796 C 0.83498 0.43833 0.2145 0.0
C797 C 0.78243 0.40978 0.22716 0.0
C798 C 0.84358 0.38051 0.20596 0.0
O799 O 0.82449 0.43739 0.19932 0.0
O800 O 0.83396 0.42364 0.22557 0.0
O801 O 0.83049 0.3808 0.21897 0.0
O802 O 0.84185 0.39336 0.19292 0.0
C803 C 0.79739 0.39439 0.17212 0.0
O804 O 0.79379 0.39532 0.22845 0.0
O805 O 0.78775 0.4231 0.21561 0.0
In806 In 0.33235 0.56339 0.45567 0.0
O807 O 0.33054 0.558 0.42266 0.0
O808 O 0.35261 0.54358 0.43898 0.0
C809 C 0.30026 0.58379 0.46425 0.0
C810 C 0.32884 0.53159 0.47761 0.0
C811 C 0.35815 0.59287 0.45651 0.0
O812 O 0.30151 0.57318 0.44918 0.0
O813 O 0.31485 0.58308 0.47548 0.0
O814 O 0.358 0.57967 0.46941 0.0
O815 O 0.34526 0.59117 0.44351 0.0
C816 C 0.3451 0.54669 0.42252 0.0
O817 O 0.34326 0.54299 0.47908 0.0
O818 O 0.31575 0.53679 0.46574 0.0
In819 In 0.17325 0.08072 0.70538 0.0
O820 O 0.19322 0.0919 0.72899 0.0
O821 O 0.19991 0.06442 0.71581 0.0
C822 C 0.14371 0.10647 0.70584 0.0
C823 C 0.19053 0.09351 0.67255 0.0
C824 C 0.15286 0.04857 0.71379 0.0
O825 O 0.1566 0.10614 0.71905 0.0
O826 O 0.14574 0.09379 0.69269 0.0
O827 O 0.16348 0.04987 0.69874 0.0
O828 O 0.1536 0.0631 0.72509 0.0
C829 C 0.20482 0.07762 0.72767 0.0
O830 O 0.1792 0.07894 0.67244 0.0
O831 O 0.19331 0.10101 0.68906 0.0
In832 In 0.03282 0.15698 0.56442 0.0
O833 O 0.0094 0.14577 0.54421 0.0
O834 O 0.02256 0.17331 0.53771 0.0
C835 C 0.03213 0.13139 0.59409 0.0
C836 C 0.06571 0.14401 0.54739 0.0
C837 C 0.02442 0.1892 0.58467 0.0
O838 O 0.01896 0.13171 0.58115 0.0
O839 O 0.04534 0.144 0.59202 0.0
O840 O 0.03949 0.18783 0.57408 0.0
O841 O 0.01308 0.1747 0.58394 0.0
C842 C 0.01078 0.16008 0.53266 0.0
O843 O 0.06578 0.15865 0.55863 0.0
O844 O 0.0492 0.13653 0.54456 0.0
In845 In 0.53116 0.83181 0.92367 0.0
O846 O 0.56408 0.83074 0.92962 0.0
O847 O 0.54718 0.85309 0.94295 0.0
C848 C 0.52349 0.79936 0.90352 0.0
C849 C 0.50946 0.82792 0.95559 0.0
C850 C 0.53009 0.8571 0.89377 0.0
O851 O 0.5385 0.80111 0.91413 0.0
O852 O 0.51183 0.81362 0.90412 0.0
O853 O 0.51707 0.85696 0.90687 0.0
O854 O 0.54329 0.84446 0.89579 0.0
C855 C 0.56379 0.84572 0.94041 0.0
O856 O 0.50744 0.84216 0.94405 0.0
O857 O 0.52169 0.81516 0.95044 0.0
In858 In 0.90483 0.28174 0.1739 0.0
O859 O 0.90701 0.31475 0.17915 0.0
O860 O 0.88482 0.29869 0.19371 0.0
C861 C 0.93638 0.27263 0.15295 0.0
C862 C 0.90877 0.26018 0.2059 0.0
C863 C 0.87871 0.28124 0.14473 0.0
O864 O 0.93556 0.28774 0.16355 0.0
O865 O 0.92167 0.26159 0.15399 0.0
O866 O 0.87869 0.26842 0.15803 0.0
O867 O 0.8919 0.29396 0.1462 0.0
C868 C 0.89248 0.31506 0.19051 0.0
O869 O 0.8942 0.25854 0.19471 0.0
O870 O 0.92179 0.27197 0.20037 0.0
In871 In 0.45595 0.65562 0.424 0.0
O872 O 0.4795 0.64478 0.4443 0.0
O873 O 0.466 0.67219 0.45062 0.0
C874 C 0.45674 0.63006 0.39432 0.0
C875 C 0.42301 0.64251 0.44082 0.0
C876 C 0.46419 0.68789 0.40375 0.0
O877 O 0.46975 0.63019 0.40742 0.0
O878 O 0.44367 0.64285 0.39622 0.0
O879 O 0.44919 0.68647 0.41443 0.0
O880 O 0.47553 0.67338 0.40432 0.0
C881 C 0.47796 0.65915 0.45575 0.0
O882 O 0.42298 0.6572 0.42966 0.0
O883 O 0.43952 0.63504 0.44371 0.0
In884 In 0.58163 0.70503 0.67385 0.0
O885 O 0.59286 0.72792 0.69464 0.0
O886 O 0.56526 0.71471 0.70074 0.0
C887 C 0.6074 0.7059 0.64436 0.0
C888 C 0.59422 0.67169 0.69024 0.0
C889 C 0.54971 0.71434 0.65352 0.0
O890 O 0.60726 0.71879 0.65758 0.0
O891 O 0.59453 0.69289 0.64605 0.0
O892 O 0.55076 0.69904 0.66383 0.0
O893 O 0.56437 0.72544 0.65458 0.0
C894 C 0.57852 0.7263 0.70613 0.0
O895 O 0.57964 0.67195 0.67893 0.0
O896 O 0.60182 0.68808 0.69343 0.0
In897 In 0.95563 0.83337 0.56412 0.0
O898 O 0.92261 0.83141 0.5589 0.0
O899 O 0.93879 0.85355 0.54439 0.0
C900 C 0.96454 0.80143 0.58458 0.0
C901 C 0.9772 0.82971 0.5321 0.0
C902 C 0.95636 0.85923 0.59354 0.0
O903 O 0.94942 0.80253 0.57403 0.0
O904 O 0.97567 0.81609 0.58378 0.0
O905 O 0.96923 0.85918 0.58029 0.0
O906 O 0.94348 0.84622 0.5919 0.0
C907 C 0.92238 0.84597 0.54756 0.0
O908 O 0.97882 0.84421 0.5434 0.0
O909 O 0.96544 0.81664 0.53753 0.0
In910 In 0.90729 0.20582 0.31472 0.0
O911 O 0.89603 0.22916 0.29444 0.0
O912 O 0.92348 0.21587 0.28785 0.0
C913 C 0.8818 0.20642 0.34447 0.0
C914 C 0.89429 0.17289 0.29782 0.0
C915 C 0.93947 0.21442 0.33495 0.0
O916 O 0.88201 0.21958 0.33151 0.0
O917 O 0.89447 0.19327 0.34237 0.0
O918 O 0.93815 0.19929 0.32443 0.0
O919 O 0.92495 0.22573 0.33413 0.0
C920 C 0.91025 0.22764 0.2828 0.0
O921 O 0.90902 0.17285 0.30893 0.0
O922 O 0.88672 0.18938 0.29507 0.0
In923 In 0.0822 0.28229 0.8143 0.0
O924 O 0.0801 0.31532 0.80905 0.0
O925 O 0.10219 0.29919 0.79444 0.0
C926 C 0.05029 0.27314 0.83472 0.0
C927 C 0.07912 0.26051 0.78236 0.0
C928 C 0.10804 0.28165 0.84374 0.0
O929 O 0.0513 0.28831 0.82424 0.0
O930 O 0.06499 0.26208 0.83381 0.0
O931 O 0.10792 0.26871 0.83057 0.0
O932 O 0.09512 0.29461 0.84201 0.0
C933 C 0.09459 0.31558 0.79763 0.0
O934 O 0.09349 0.25913 0.79384 0.0
O935 O 0.06584 0.27216 0.78756 0.0
In936 In 0.56445 0.033 0.15592 0.0
O937 O 0.55846 0.06591 0.15793 0.0
O938 O 0.54467 0.0495 0.1355 0.0
C939 C 0.58493 0.02432 0.18792 0.0
C940 C 0.53273 0.01089 0.15897 0.0
C941 C 0.59408 0.03261 0.13029 0.0
O942 O 0.57434 0.03941 0.18676 0.0
O943 O 0.58408 0.0131 0.17334 0.0
O944 O 0.58114 0.01945 0.13045 0.0
O945 O 0.59202 0.04568 0.14305 0.0
C946 C 0.54733 0.06594 0.14321 0.0
O947 O 0.54429 0.00955 0.14467 0.0
O948 O 0.53775 0.02266 0.17222 0.0
In949 In 0.20578 0.81407 0.40692 0.0
O950 O 0.22906 0.79348 0.39608 0.0
O951 O 0.21536 0.78721 0.42341 0.0
C952 C 0.20677 0.84387 0.38151 0.0
C953 C 0.17285 0.79745 0.39359 0.0
C954 C 0.21423 0.83439 0.43908 0.0
O955 O 0.21977 0.83076 0.38168 0.0
O956 O 0.19357 0.84188 0.39416 0.0
O957 O 0.19904 0.82397 0.43767 0.0
O958 O 0.22568 0.83343 0.42467 0.0
C959 C 0.22724 0.78195 0.41036 0.0
O960 O 0.1728 0.80836 0.40847 0.0
O961 O 0.18935 0.79476 0.38602 0.0
In962 In 0.42338 0.4554 0.65675 0.0
O963 O 0.42944 0.42249 0.65839 0.0
O964 O 0.44307 0.43916 0.63605 0.0
C965 C 0.40314 0.46386 0.68895 0.0
C966 C 0.45509 0.47748 0.66 0.0
C967 C 0.39357 0.45592 0.63134 0.0
O968 O 0.41367 0.44874 0.68758 0.0
O969 O 0.40391 0.4752 0.67446 0.0
O970 O 0.40651 0.46908 0.63147 0.0
O971 O 0.39571 0.4428 0.64404 0.0
C972 C 0.44048 0.42263 0.6436 0.0
O973 O 0.44354 0.47895 0.6457 0.0
O974 O 0.45007 0.46557 0.67312 0.0
In975 In 0.7824 0.67491 0.90449 0.0
O976 O 0.81551 0.67957 0.90637 0.0
O977 O 0.79956 0.69423 0.88417 0.0
C978 C 0.7732 0.65459 0.93643 0.0
C979 C 0.76137 0.70729 0.90825 0.0
C980 C 0.7811 0.6454 0.87876 0.0
O981 O 0.78848 0.66491 0.93532 0.0
O982 O 0.76206 0.65558 0.92178 0.0
O983 O 0.76852 0.65893 0.8787 0.0
O984 O 0.79399 0.64684 0.89179 0.0
C985 C 0.81592 0.6908 0.89174 0.0
O986 O 0.75955 0.69606 0.89373 0.0
O987 O 0.77309 0.70165 0.92129 0.0
In988 In 0.56314 0.95434 0.83058 0.0
O989 O 0.55734 0.92137 0.82909 0.0
O990 O 0.54321 0.93806 0.85107 0.0
C991 C 0.58345 0.96261 0.79835 0.0
C992 C 0.53157 0.97658 0.82713 0.0
C993 C 0.59275 0.95535 0.85624 0.0
O994 O 0.57296 0.94747 0.7998 0.0
O995 O 0.58264 0.97402 0.81278 0.0
O996 O 0.57969 0.96839 0.85585 0.0
O997 O 0.59082 0.94208 0.84367 0.0
C998 C 0.54607 0.92151 0.84369 0.0
O999 O 0.54304 0.97796 0.8415 0.0
O1000 O 0.53655 0.96461 0.81404 0.0
In1001 In 0.28091 0.81456 0.083 0.0
O1002 O 0.3139 0.80906 0.08145 0.0
O1003 O 0.29745 0.7952 0.10381 0.0
C1004 C 0.27257 0.83476 0.05075 0.0
C1005 C 0.25931 0.78254 0.0793 0.0
C1006 C 0.27999 0.84432 0.10846 0.0
O1007 O 0.28762 0.82414 0.05217 0.0
O1008 O 0.26122 0.83416 0.06525 0.0
O1009 O 0.26712 0.83107 0.10851 0.0
O1010 O 0.29295 0.84251 0.09556 0.0
C1011 C 0.31394 0.79808 0.09628 0.0
O1012 O 0.25748 0.79398 0.09365 0.0
O1013 O 0.27131 0.78782 0.06637 0.0
In1014 In 0.42399 0.53231 0.33166 0.0
O1015 O 0.44443 0.50891 0.34248 0.0
O1016 O 0.45065 0.5224 0.31504 0.0
C1017 C 0.3945 0.53135 0.35743 0.0
C1018 C 0.44078 0.56532 0.34464 0.0
C1019 C 0.40356 0.52391 0.29955 0.0
O1020 O 0.40764 0.51838 0.35715 0.0
O1021 O 0.39629 0.54449 0.3447 0.0
O1022 O 0.41414 0.539 0.30088 0.0
O1023 O 0.40436 0.51256 0.31403 0.0
C1024 C 0.45587 0.51052 0.32811 0.0
O1025 O 0.42951 0.56532 0.33004 0.0
O1026 O 0.44377 0.54882 0.35209 0.0
In1027 In 0.7057 0.67371 0.58237 0.0
O1028 O 0.67272 0.67926 0.58033 0.0
O1029 O 0.68893 0.69314 0.60286 0.0
C1030 C 0.71492 0.65331 0.55049 0.0
C1031 C 0.72719 0.70582 0.57913 0.0
C1032 C 0.70626 0.64399 0.60788 0.0
O1033 O 0.69965 0.66367 0.55153 0.0
O1034 O 0.72605 0.65438 0.56513 0.0
O1035 O 0.71922 0.65715 0.60795 0.0
O1036 O 0.69333 0.64589 0.59496 0.0
C1037 C 0.67254 0.6903 0.59512 0.0
O1038 O 0.72881 0.69435 0.59348 0.0
O1039 O 0.71547 0.70051 0.56595 0.0
In1040 In 0.6565 0.56435 0.5334 0.0
O1041 O 0.65816 0.55872 0.5664 0.0
O1042 O 0.63598 0.54468 0.54987 0.0
C1043 C 0.68863 0.58456 0.5246 0.0
C1044 C 0.65966 0.53245 0.51158 0.0
C1045 C 0.63098 0.59406 0.53268 0.0
O1046 O 0.68736 0.57416 0.53982 0.0
O1047 O 0.67407 0.58368 0.51335 0.0
O1048 O 0.63112 0.58099 0.51964 0.0
O1049 O 0.64373 0.59211 0.54578 0.0
C1050 C 0.64347 0.54756 0.56638 0.0
O1051 O 0.64538 0.54402 0.51005 0.0
O1052 O 0.67282 0.53753 0.52343 0.0
In1053 In 0.67331 0.90539 0.7824 0.0
O1054 O 0.69429 0.89408 0.75972 0.0
O1055 O 0.69982 0.9221 0.77229 0.0
C1056 C 0.64442 0.87895 0.78197 0.0
C1057 C 0.68995 0.89395 0.81603 0.0
C1058 C 0.65241 0.93676 0.7725 0.0
O1059 O 0.65766 0.87914 0.76911 0.0
O1060 O 0.64581 0.8921 0.79475 0.0
O1061 O 0.66285 0.93623 0.78773 0.0
O1062 O 0.65361 0.92185 0.76175 0.0
C1063 C 0.70546 0.9087 0.76099 0.0
O1064 O 0.6781 0.90808 0.81547 0.0
O1065 O 0.69355 0.88623 0.79978 0.0
In1066 In 0.33242 0.92253 0.03057 0.0
O1067 O 0.33084 0.9288 0.06343 0.0
O1068 O 0.35335 0.94207 0.04671 0.0
C1069 C 0.30003 0.90238 0.02259 0.0
C1070 C 0.32927 0.95424 0.00846 0.0
C1071 C 0.35772 0.89262 0.03026 0.0
O1072 O 0.30155 0.91318 0.0375 0.0
O1073 O 0.31449 0.90281 0.01117 0.0
O1074 O 0.35763 0.90545 0.01698 0.0
O1075 O 0.34502 0.8949 0.04335 0.0
C1076 C 0.34575 0.93967 0.06324 0.0
O1077 O 0.34346 0.94257 0.00688 0.0
O1078 O 0.31618 0.9493 0.02042 0.0
In1079 In 0.31454 0.58264 0.2819 0.0
O1080 O 0.30888 0.58051 0.31485 0.0
O1081 O 0.29464 0.60277 0.2986 0.0
C1082 C 0.33509 0.55074 0.27302 0.0
C1083 C 0.28265 0.57936 0.26009 0.0
C1084 C 0.34392 0.60854 0.28146 0.0
O1085 O 0.32451 0.5518 0.28812 0.0
O1086 O 0.33425 0.56539 0.26189 0.0
O1087 O 0.33089 0.60836 0.26839 0.0
O1088 O 0.3421 0.59564 0.29443 0.0
C1089 C 0.29755 0.59508 0.31501 0.0
O1090 O 0.29408 0.59375 0.25863 0.0
O1091 O 0.28791 0.56614 0.27178 0.0
In1092 In 0.65567 0.42435 0.45572 0.0
O1093 O 0.64469 0.44476 0.47909 0.0
O1094 O 0.67229 0.4509 0.4659 0.0
C1095 C 0.62983 0.39491 0.45636 0.0
C1096 C 0.64307 0.44112 0.42255 0.0
C1097 C 0.68761 0.40379 0.46443 0.0
O1098 O 0.62993 0.40808 0.4693 0.0
O1099 O 0.64277 0.39664 0.44342 0.0
O1100 O 0.68651 0.41445 0.44938 0.0
O1101 O 0.67298 0.40456 0.47559 0.0
C1102 C 0.65915 0.45612 0.4777 0.0
O1103 O 0.65765 0.42981 0.42273 0.0
O1104 O 0.63549 0.44419 0.43897 0.0
In1105 In 0.81437 0.90542 0.70702 0.0
O1106 O 0.80879 0.90738 0.67405 0.0
O1107 O 0.79451 0.88519 0.69037 0.0
C1108 C 0.83476 0.93748 0.71568 0.0
C1109 C 0.78253 0.90884 0.72888 0.0
C1110 C 0.84384 0.87961 0.7075 0.0
O1111 O 0.82408 0.9363 0.70066 0.0
O1112 O 0.83413 0.92284 0.72684 0.0
O1113 O 0.83074 0.87968 0.72051 0.0
O1114 O 0.84204 0.89257 0.69459 0.0
C1115 C 0.79747 0.89281 0.67393 0.0
O1116 O 0.794 0.89447 0.73045 0.0
O1117 O 0.78773 0.92194 0.71703 0.0
In1118 In 0.33398 0.06393 0.95576 0.0
O1119 O 0.33175 0.05937 0.92265 0.0
O1120 O 0.35395 0.04447 0.9384 0.0
C1121 C 0.30229 0.08445 0.96538 0.0
C1122 C 0.33037 0.03146 0.97667 0.0
C1123 C 0.35995 0.09321 0.95669 0.0
O1124 O 0.30313 0.0741 0.9501 0.0
O1125 O 0.31708 0.08338 0.97633 0.0
O1126 O 0.36003 0.07974 0.96933 0.0
O1127 O 0.34677 0.09186 0.94395 0.0
C1128 C 0.34627 0.04799 0.9221 0.0
O1129 O 0.3449 0.04269 0.97844 0.0
O1130 O 0.31723 0.03719 0.96511 0.0
In1131 In 0.17343 0.58329 0.20659 0.0
O1132 O 0.1786 0.58107 0.17357 0.0
O1133 O 0.19313 0.60333 0.18956 0.0
C1134 C 0.15291 0.55151 0.21591 0.0
C1135 C 0.20557 0.57981 0.228 0.0
C1136 C 0.14405 0.60918 0.20724 0.0
O1137 O 0.16335 0.55244 0.2007 0.0
O1138 O 0.15388 0.56624 0.22693 0.0
O1139 O 0.15732 0.60918 0.22008 0.0
O1140 O 0.14566 0.59612 0.1944 0.0
C1141 C 0.18995 0.59561 0.17322 0.0
O1142 O 0.19426 0.59429 0.22959 0.0
O1143 O 0.20008 0.56664 0.21636 0.0
In1144 In 0.03117 0.6552 0.06438 0.0
O1145 O 0.00769 0.64443 0.04394 0.0
O1146 O 0.02154 0.67164 0.03753 0.0
C1147 C 0.03048 0.62982 0.0942 0.0
C1148 C 0.06408 0.64189 0.04771 0.0
C1149 C 0.02277 0.68739 0.08468 0.0
O1150 O 0.01745 0.62981 0.08111 0.0
O1151 O 0.04351 0.64263 0.0922 0.0
O1152 O 0.03786 0.686 0.07412 0.0
O1153 O 0.01139 0.67292 0.08391 0.0
C1154 C 0.00954 0.65866 0.03236 0.0
O1155 O 0.0641 0.65683 0.05853 0.0
O1156 O 0.04759 0.63425 0.04511 0.0
In1157 In 0.53211 0.33228 0.42335 0.0
O1158 O 0.56506 0.33064 0.42915 0.0
O1159 O 0.5485 0.35291 0.44301 0.0
C1160 C 0.5238 0.30002 0.40313 0.0
C1161 C 0.51017 0.32895 0.45516 0.0
C1162 C 0.53148 0.35778 0.39361 0.0
O1163 O 0.53883 0.30143 0.41377 0.0
O1164 O 0.51245 0.31452 0.40375 0.0
O1165 O 0.51837 0.35764 0.40662 0.0
O1166 O 0.54457 0.34504 0.39564 0.0
C1167 C 0.565 0.34539 0.44025 0.0
O1168 O 0.50862 0.34326 0.44364 0.0
O1169 O 0.52207 0.31585 0.45005 0.0
In1170 In 0.90598 0.78196 0.67342 0.0
O1171 O 0.89524 0.75817 0.69345 0.0
O1172 O 0.9227 0.77152 0.6998 0.0
C1173 C 0.88009 0.78147 0.64401 0.0
C1174 C 0.89313 0.81476 0.69073 0.0
C1175 C 0.93805 0.7739 0.65279 0.0
O1176 O 0.88036 0.76835 0.65699 0.0
O1177 O 0.8929 0.79452 0.64589 0.0
O1178 O 0.93674 0.78881 0.66362 0.0
O1179 O 0.92355 0.76256 0.6534 0.0
C1180 C 0.90968 0.75952 0.70483 0.0
O1181 O 0.90769 0.81488 0.6794 0.0
O1182 O 0.88567 0.79824 0.69354 0.0
In1183 In 0.45711 0.15666 0.92312 0.0
O1184 O 0.48077 0.14606 0.94343 0.0
O1185 O 0.46683 0.17323 0.94985 0.0
C1186 C 0.45783 0.13148 0.89312 0.0
C1187 C 0.42459 0.14289 0.94017 0.0
C1188 C 0.46487 0.189 0.90284 0.0
O1189 O 0.47103 0.13163 0.90603 0.0
O1190 O 0.44459 0.14404 0.8954 0.0
O1191 O 0.44984 0.18735 0.91346 0.0
O1192 O 0.47652 0.17474 0.90356 0.0
C1193 C 0.47891 0.16032 0.95499 0.0
O1194 O 0.42427 0.15795 0.9295 0.0
O1195 O 0.44117 0.13534 0.94239 0.0
In1196 In 0.58201 0.206 0.17353 0.0
O1197 O 0.58033 0.17295 0.17879 0.0
O1198 O 0.60234 0.18935 0.19324 0.0
C1199 C 0.54986 0.21481 0.15334 0.0
C1200 C 0.57875 0.22753 0.20561 0.0
C1201 C 0.60774 0.20686 0.144 0.0
O1202 O 0.55113 0.19963 0.16378 0.0
O1203 O 0.56444 0.22604 0.15413 0.0
O1204 O 0.60756 0.21981 0.15717 0.0
O1205 O 0.5949 0.19382 0.14575 0.0
C1206 C 0.5949 0.17287 0.19011 0.0
O1207 O 0.59304 0.22922 0.19407 0.0
O1208 O 0.56562 0.21573 0.20037 0.0
In1209 In 0.95544 0.33168 0.06413 0.0
O1210 O 0.92255 0.33053 0.05796 0.0
O1211 O 0.93949 0.35287 0.04469 0.0
C1212 C 0.96316 0.29931 0.0844 0.0
C1213 C 0.97746 0.32795 0.03242 0.0
C1214 C 0.9564 0.35701 0.09401 0.0
O1215 O 0.94812 0.30099 0.07382 0.0
O1216 O 0.97481 0.31357 0.08368 0.0
O1217 O 0.96951 0.35676 0.081 0.0
O1218 O 0.94313 0.34447 0.0919 0.0
C1219 C 0.92288 0.34547 0.04714 0.0
O1220 O 0.97925 0.34221 0.04399 0.0
O1221 O 0.96526 0.31511 0.03742 0.0
In1222 In 0.90713 0.70343 0.81288 0.0
O1223 O 0.90862 0.67034 0.80777 0.0
O1224 O 0.88689 0.68681 0.79301 0.0
C1225 C 0.93935 0.71199 0.8331 0.0
C1226 C 0.91031 0.72518 0.78093 0.0
C1227 C 0.88134 0.70474 0.84236 0.0
O1228 O 0.93798 0.69681 0.82266 0.0
O1229 O 0.92486 0.72332 0.83227 0.0
O1230 O 0.88178 0.71766 0.82918 0.0
O1231 O 0.89393 0.69146 0.84063 0.0
C1232 C 0.89417 0.6703 0.7963 0.0
O1233 O 0.896 0.72666 0.79245 0.0
O1234 O 0.92352 0.71342 0.78608 0.0
In1235 In 0.08239 0.78276 0.31432 0.0
O1236 O 0.0807 0.81583 0.30922 0.0
O1237 O 0.10287 0.79953 0.29488 0.0
C1238 C 0.0504 0.77371 0.33464 0.0
C1239 C 0.0788 0.76151 0.28207 0.0
C1240 C 0.10807 0.78174 0.34387 0.0
O1241 O 0.05157 0.78898 0.3243 0.0
O1242 O 0.065 0.76252 0.33367 0.0
O1243 O 0.10801 0.76893 0.33056 0.0
O1244 O 0.09516 0.79472 0.34223 0.0
C1245 C 0.09538 0.81599 0.29804 0.0
O1246 O 0.09318 0.75968 0.29347 0.0
O1247 O 0.06577 0.77334 0.2875 0.0
C1248 C 0.12396 0.54725 0.11779 0.0
C1249 C 0.10912 0.53314 0.11647 0.0
H1250 H 0.14686 0.56248 0.10293 0.0
C1251 C 0.10774 0.52164 0.09962 0.0
H1252 H 0.12544 0.55621 0.13072 0.0
C1253 C 0.1199 0.52533 0.08371 0.0
C1254 C 0.13377 0.54039 0.0845 0.0
H1255 H 0.09652 0.51061 0.09825 0.0
H1256 H 0.11775 0.51703 0.07043 0.0
C1257 C 0.13629 0.55077 0.10195 0.0
C1258 C 0.7126 0.36961 0.33188 0.0
C1259 C 0.69778 0.38372 0.33302 0.0
H1260 H 0.7274 0.34611 0.34614 0.0
C1261 C 0.68797 0.38651 0.35074 0.0
H1262 H 0.72047 0.36725 0.31837 0.0
C1263 C 0.69178 0.37424 0.36656 0.0
C1264 C 0.70563 0.35918 0.36494 0.0
H1265 H 0.67646 0.39727 0.35199 0.0
H1266 H 0.68324 0.37595 0.37974 0.0
C1267 C 0.71659 0.35751 0.34775 0.0
C1268 C 0.85041 0.93855 0.60128 0.0
C1269 C 0.85306 0.94845 0.58358 0.0
H1270 H 0.86117 0.93373 0.63019 0.0
C1271 C 0.86709 0.96335 0.58243 0.0
H1272 H 0.83973 0.92698 0.60254 0.0
C1273 C 0.87926 0.96732 0.59826 0.0
C1274 C 0.87775 0.95626 0.61539 0.0
H1275 H 0.86934 0.97128 0.56895 0.0
H1276 H 0.8906 0.97819 0.59663 0.0
C1277 C 0.86276 0.94235 0.61705 0.0
C1278 C 0.27112 0.12955 0.8498 0.0
C1279 C 0.28269 0.12822 0.86661 0.0
H1280 H 0.26648 0.11957 0.82061 0.0
C1281 C 0.29687 0.11345 0.86787 0.0
H1282 H 0.26002 0.14072 0.84849 0.0
C1283 C 0.30042 0.10116 0.85199 0.0
C1284 C 0.28999 0.10366 0.83458 0.0
H1285 H 0.30589 0.112 0.88076 0.0
H1286 H 0.3122 0.09067 0.85291 0.0
C1287 C 0.27482 0.11744 0.83387 0.0
C1288 C 0.10668 0.46537 0.89123 0.0
C1289 C 0.10858 0.45472 0.87388 0.0
H1290 H 0.11638 0.46901 0.92066 0.0
C1291 C 0.12394 0.44123 0.87203 0.0
H1292 H 0.09505 0.4759 0.89302 0.0
C1293 C 0.13631 0.43745 0.88777 0.0
C1294 C 0.13333 0.44693 0.90565 0.0
H1295 H 0.12583 0.43293 0.85871 0.0
H1296 H 0.14733 0.42621 0.88633 0.0
C1297 C 0.11889 0.46141 0.90703 0.0
C1298 C 0.79642 0.37536 0.12067 0.0
C1299 C 0.78231 0.36055 0.12224 0.0
H1300 H 0.81202 0.39817 0.13529 0.0
C1301 C 0.77112 0.35918 0.1393 0.0
H1302 H 0.80514 0.37684 0.10758 0.0
C1303 C 0.77516 0.37129 0.15516 0.0
C1304 C 0.79027 0.3851 0.15412 0.0
H1305 H 0.76009 0.34798 0.14086 0.0
H1306 H 0.76713 0.36913 0.1686 0.0
C1307 C 0.80029 0.38765 0.13647 0.0
C1308 C 0.88022 0.022 0.38898 0.0
C1309 C 0.87885 0.03324 0.37195 0.0
H1310 H 0.87008 0.01774 0.41817 0.0
C1311 C 0.86392 0.04722 0.37035 0.0
H1312 H 0.89151 0.01106 0.39056 0.0
C1313 C 0.85148 0.05088 0.38607 0.0
C1314 C 0.85397 0.04078 0.40368 0.0
H1315 H 0.86244 0.05598 0.35728 0.0
H1316 H 0.84083 0.0625 0.38487 0.0
C1317 C 0.86795 0.02583 0.40476 0.0
C1318 C 0.19224 0.11277 0.62119 0.0
C1319 C 0.20606 0.12782 0.62309 0.0
H1320 H 0.17675 0.08964 0.6354 0.0
C1321 C 0.21681 0.12937 0.64041 0.0
H1322 H 0.18386 0.11114 0.60789 0.0
C1323 C 0.21262 0.11717 0.65616 0.0
C1324 C 0.19781 0.10306 0.65474 0.0
H1325 H 0.22759 0.14077 0.64224 0.0
H1326 H 0.22032 0.11944 0.66978 0.0
C1327 C 0.18824 0.10038 0.63687 0.0
C1328 C 0.08216 0.12024 0.52547 0.0
C1329 C 0.08353 0.13439 0.54024 0.0
H1330 H 0.0961 0.09655 0.51065 0.0
C1331 C 0.10134 0.13704 0.54993 0.0
H1332 H 0.06858 0.11799 0.5177 0.0
C1333 C 0.11701 0.1246 0.54605 0.0
C1334 C 0.11515 0.10951 0.53227 0.0
H1335 H 0.10277 0.14782 0.5614 0.0
H1336 H 0.13026 0.1262 0.55451 0.0
C1337 C 0.09789 0.10798 0.52142 0.0
C1338 C 0.11798 0.33263 0.77578 0.0
C1339 C 0.10401 0.33361 0.79076 0.0
H1340 H 0.14146 0.34697 0.76104 0.0
C1341 C 0.10144 0.35118 0.8009 0.0
H1342 H 0.12017 0.31925 0.76766 0.0
C1343 C 0.11381 0.36697 0.79726 0.0
C1344 C 0.12874 0.36547 0.78327 0.0
H1345 H 0.0908 0.3523 0.81253 0.0
H1346 H 0.11228 0.38001 0.80606 0.0
C1347 C 0.13017 0.34848 0.77198 0.0
C1348 C 0.87153 0.36479 0.04548 0.0
C1349 C 0.87361 0.38042 0.03236 0.0
H1350 H 0.88554 0.34103 0.06018 0.0
C1351 C 0.89112 0.38252 0.02202 0.0
H1352 H 0.85809 0.36275 0.05353 0.0
C1353 C 0.90684 0.3702 0.02595 0.0
C1354 C 0.9052 0.35543 0.04008 0.0
H1355 H 0.89308 0.39439 0.01178 0.0
H1356 H 0.92058 0.37284 0.0186 0.0
C1357 C 0.88718 0.35229 0.04922 0.0
C1358 C 0.87489 0.12157 0.29658 0.0
C1359 C 0.85974 0.12343 0.28287 0.0
H1360 H 0.89818 0.13582 0.31182 0.0
C1361 C 0.85816 0.14069 0.27202 0.0
H1362 H 0.87654 0.10832 0.30503 0.0
C1363 C 0.87044 0.15642 0.27601 0.0
C1364 C 0.88465 0.15506 0.29072 0.0
H1365 H 0.84669 0.14248 0.2613 0.0
H1366 H 0.86816 0.17 0.26824 0.0
C1367 C 0.88735 0.13724 0.3004 0.0
C1368 C 0.0811 0.86886 0.46176 0.0
C1369 C 0.08242 0.85443 0.44725 0.0
H1370 H 0.09522 0.8926 0.4763 0.0
C1371 C 0.10029 0.85137 0.43778 0.0
H1372 H 0.06749 0.87142 0.46936 0.0
C1373 C 0.11609 0.86367 0.4416 0.0
C1374 C 0.11431 0.87901 0.45511 0.0
H1375 H 0.10168 0.84037 0.42652 0.0
H1376 H 0.1294 0.86173 0.43331 0.0
C1377 C 0.09696 0.88097 0.46575 0.0
C1378 C 0.37442 0.36682 0.69175 0.0
C1379 C 0.35928 0.36486 0.70546 0.0
H1380 H 0.39776 0.35269 0.67647 0.0
C1381 C 0.35775 0.34756 0.71625 0.0
H1382 H 0.37603 0.3801 0.68334 0.0
C1383 C 0.37009 0.33188 0.71221 0.0
C1384 C 0.3843 0.33334 0.69751 0.0
H1385 H 0.34629 0.3457 0.72696 0.0
H1386 H 0.36785 0.31828 0.71994 0.0
C1387 C 0.38694 0.3512 0.68788 0.0
C1388 C 0.88934 0.60839 0.96588 0.0
C1389 C 0.87234 0.60995 0.95462 0.0
H1390 H 0.91874 0.61796 0.96998 0.0
C1391 C 0.87105 0.62471 0.94043 0.0
H1392 H 0.89069 0.59721 0.97696 0.0
C1393 C 0.88702 0.63677 0.93658 0.0
C1394 C 0.90458 0.63404 0.94671 0.0
H1395 H 0.85801 0.62634 0.93164 0.0
H1396 H 0.88605 0.64727 0.92481 0.0
C1397 C 0.90537 0.62026 0.96187 0.0
C1398 C 0.6186 0.15615 0.21188 0.0
C1399 C 0.60454 0.15497 0.19701 0.0
H1400 H 0.64223 0.14204 0.22661 0.0
C1401 C 0.60199 0.1373 0.18702 0.0
H1402 H 0.62076 0.1696 0.21988 0.0
C1403 C 0.61445 0.1216 0.19072 0.0
C1404 C 0.62945 0.12329 0.20462 0.0
H1405 H 0.59128 0.13603 0.17547 0.0
H1406 H 0.61292 0.10848 0.18205 0.0
C1407 C 0.63088 0.14039 0.21575 0.0
C1408 C 0.52553 0.08254 0.11942 0.0
C1409 C 0.54015 0.08384 0.13374 0.0
H1410 H 0.51087 0.09667 0.09575 0.0
C1411 C 0.54966 0.10169 0.13673 0.0
H1412 H 0.51789 0.06894 0.11691 0.0
C1413 C 0.54579 0.11749 0.12445 0.0
C1414 C 0.5322 0.11572 0.10918 0.0
H1415 H 0.56099 0.10307 0.14765 0.0
H1416 H 0.55413 0.13079 0.12632 0.0
C1417 C 0.52149 0.0984 0.10732 0.0
C1418 C 0.04615 0.87056 0.3632 0.0
C1419 C 0.03221 0.87222 0.37817 0.0
H1420 H 0.06149 0.88504 0.34012 0.0
C1421 C 0.02105 0.8893 0.37956 0.0
H1422 H 0.05485 0.85745 0.3617 0.0
C1423 C 0.02495 0.90508 0.36731 0.0
C1424 C 0.03989 0.90394 0.35332 0.0
H1425 H 0.01015 0.89093 0.39088 0.0
H1426 H 0.01694 0.91853 0.36948 0.0
C1427 C 0.04989 0.88628 0.35078 0.0
C1428 C 0.35204 0.30096 0.60136 0.0
C1429 C 0.33457 0.29063 0.60387 0.0
H1430 H 0.38083 0.30628 0.6122 0.0
C1431 C 0.33374 0.27553 0.61771 0.0
H1432 H 0.35304 0.31269 0.59082 0.0
C1433 C 0.34964 0.27177 0.62984 0.0
C1434 C 0.36652 0.28322 0.62848 0.0
H1435 H 0.32044 0.26727 0.61984 0.0
H1436 H 0.34824 0.26071 0.64104 0.0
C1437 C 0.36788 0.29735 0.61367 0.0
C1438 C 0.94158 0.61508 0.8637 0.0
C1439 C 0.9552 0.61338 0.87895 0.0
H1440 H 0.92634 0.60052 0.84061 0.0
C1441 C 0.96586 0.59605 0.88094 0.0
H1442 H 0.93327 0.62838 0.86174 0.0
C1443 C 0.96179 0.58012 0.86894 0.0
C1444 C 0.94717 0.58135 0.85462 0.0
H1445 H 0.9765 0.59438 0.89249 0.0
H1446 H 0.96941 0.56652 0.87153 0.0
C1447 C 0.93768 0.5992 0.85153 0.0
C1448 C 0.15536 0.71258 0.11807 0.0
C1449 C 0.15413 0.69768 0.10403 0.0
H1450 H 0.14125 0.7275 0.14158 0.0
C1451 C 0.13639 0.68787 0.10139 0.0
H1452 H 0.16888 0.72045 0.1203 0.0
C1453 C 0.12065 0.69175 0.11374 0.0
C1454 C 0.12237 0.70567 0.12872 0.0
H1455 H 0.13507 0.67631 0.0907 0.0
H1456 H 0.10746 0.6832 0.11215 0.0
C1457 C 0.13956 0.71663 0.13024 0.0
C1458 C 0.46248 0.90502 0.11924 0.0
C1459 C 0.44747 0.90429 0.13318 0.0
H1460 H 0.47721 0.89031 0.09597 0.0
C1461 C 0.43722 0.8868 0.13593 0.0
H1462 H 0.47068 0.91832 0.11692 0.0
C1463 C 0.4408 0.87085 0.12376 0.0
C1464 C 0.45484 0.87209 0.10885 0.0
H1465 H 0.42556 0.88587 0.14655 0.0
H1466 H 0.43193 0.85788 0.12542 0.0
C1467 C 0.46623 0.889 0.10725 0.0
C1468 C 0.33095 0.2122 0.86942 0.0
C1469 C 0.33263 0.19779 0.88391 0.0
H1470 H 0.34465 0.22686 0.84549 0.0
C1471 C 0.35069 0.18866 0.88688 0.0
H1472 H 0.31719 0.21955 0.86691 0.0
C1473 C 0.36633 0.19269 0.87446 0.0
C1474 C 0.3642 0.20609 0.85906 0.0
H1475 H 0.35236 0.17749 0.89793 0.0
H1476 H 0.37979 0.18464 0.87634 0.0
C1477 C 0.34665 0.21641 0.85717 0.0
C1478 C 0.65714 0.27566 0.36934 0.0
C1479 C 0.65581 0.29028 0.38366 0.0
H1480 H 0.64305 0.26097 0.34567 0.0
C1481 C 0.63794 0.29979 0.38661 0.0
H1482 H 0.67075 0.26803 0.36686 0.0
C1483 C 0.62217 0.29591 0.37431 0.0
C1484 C 0.62397 0.28229 0.35907 0.0
H1485 H 0.63654 0.31114 0.39752 0.0
H1486 H 0.60887 0.30424 0.37616 0.0
C1487 C 0.6413 0.27161 0.35722 0.0
C1488 C 0.10595 0.0223 0.59672 0.0
C1489 C 0.10801 0.03289 0.61409 0.0
H1490 H 0.1155 0.01862 0.56726 0.0
C1491 C 0.12347 0.04625 0.61591 0.0
H1492 H 0.09423 0.01186 0.59496 0.0
C1493 C 0.13582 0.04997 0.60012 0.0
C1494 C 0.1327 0.04055 0.58224 0.0
H1495 H 0.12549 0.05451 0.62923 0.0
H1496 H 0.14693 0.06111 0.60154 0.0
C1497 C 0.11813 0.02619 0.58088 0.0
C1498 C 0.71247 0.87162 0.83357 0.0
C1499 C 0.69693 0.88496 0.83423 0.0
H1500 H 0.72785 0.84875 0.84822 0.0
C1501 C 0.68638 0.88718 0.85162 0.0
H1502 H 0.72091 0.86973 0.82035 0.0
C1503 C 0.6902 0.87499 0.8675 0.0
C1504 C 0.70478 0.86059 0.86627 0.0
H1505 H 0.67431 0.89734 0.85249 0.0
H1506 H 0.6811 0.87618 0.88036 0.0
C1507 C 0.71645 0.85961 0.84951 0.0
C1508 C 0.86934 0.46264 0.08254 0.0
C1509 C 0.85505 0.44797 0.08352 0.0
H1510 H 0.89308 0.47693 0.09691 0.0
C1511 C 0.85225 0.4379 0.1011 0.0
H1512 H 0.87172 0.47069 0.06915 0.0
C1513 C 0.86465 0.44131 0.11691 0.0
C1514 C 0.87985 0.455 0.11542 0.0
H1515 H 0.84136 0.4265 0.10222 0.0
H1516 H 0.86289 0.43258 0.12996 0.0
C1517 C 0.88157 0.46622 0.09841 0.0
C1518 C 0.27142 0.63048 0.34776 0.0
C1519 C 0.28225 0.62869 0.36501 0.0
H1520 H 0.26778 0.62096 0.31828 0.0
C1521 C 0.29608 0.61362 0.36664 0.0
H1522 H 0.26062 0.64189 0.34615 0.0
C1523 C 0.30003 0.60147 0.35076 0.0
C1524 C 0.29037 0.60439 0.33297 0.0
H1525 H 0.30452 0.61181 0.37987 0.0
H1526 H 0.31153 0.59071 0.35202 0.0
C1527 C 0.27554 0.61851 0.33182 0.0
C1528 C 0.12342 0.94038 0.37097 0.0
C1529 C 0.10838 0.95425 0.37253 0.0
H1530 H 0.14655 0.92524 0.38557 0.0
C1531 C 0.10682 0.96542 0.38958 0.0
H1532 H 0.12505 0.93168 0.35788 0.0
C1533 C 0.11903 0.96164 0.40542 0.0
C1534 C 0.13314 0.9468 0.40437 0.0
H1535 H 0.09544 0.97626 0.39113 0.0
H1536 H 0.11677 0.96968 0.41884 0.0
C1537 C 0.13581 0.93676 0.38675 0.0
C1538 C 0.77562 0.8692 0.65714 0.0
C1539 C 0.79037 0.88339 0.65598 0.0
H1540 H 0.76083 0.84571 0.64285 0.0
C1541 C 0.80006 0.88632 0.63821 0.0
H1542 H 0.76785 0.86675 0.67068 0.0
C1543 C 0.79619 0.87411 0.62235 0.0
C1544 C 0.78243 0.85898 0.62399 0.0
H1545 H 0.8115 0.89714 0.63694 0.0
H1546 H 0.80464 0.87593 0.60912 0.0
C1547 C 0.77159 0.85717 0.64123 0.0
C1548 C 0.87985 0.52156 0.89106 0.0
C1549 C 0.87822 0.53212 0.87363 0.0
H1550 H 0.87002 0.51834 0.92049 0.0
C1551 C 0.86315 0.5459 0.87164 0.0
H1552 H 0.89127 0.51081 0.89296 0.0
C1553 C 0.85081 0.55005 0.88732 0.0
C1554 C 0.85355 0.54066 0.90528 0.0
H1555 H 0.86146 0.55413 0.85826 0.0
H1556 H 0.84004 0.56151 0.88577 0.0
C1557 C 0.8677 0.52589 0.90681 0.0
C1558 C 0.21176 0.61894 0.15603 0.0
C1559 C 0.19685 0.6049 0.15513 0.0
H1560 H 0.22653 0.64228 0.14147 0.0
C1561 C 0.18684 0.60206 0.13753 0.0
H1562 H 0.21979 0.62133 0.16943 0.0
C1563 C 0.19054 0.61423 0.1216 0.0
C1564 C 0.20448 0.62922 0.12299 0.0
H1565 H 0.17526 0.59136 0.13646 0.0
H1566 H 0.18185 0.61249 0.10852 0.0
C1567 C 0.21564 0.63093 0.14004 0.0
C1568 C 0.08062 0.61753 0.02649 0.0
C1569 C 0.08194 0.6322 0.04076 0.0
H1570 H 0.09478 0.59362 0.01226 0.0
C1571 C 0.09982 0.63545 0.05013 0.0
H1572 H 0.06699 0.6148 0.01897 0.0
C1573 C 0.11566 0.62316 0.04645 0.0
C1574 C 0.11389 0.60762 0.03317 0.0
H1575 H 0.10121 0.64664 0.0612 0.0
H1576 H 0.12899 0.62529 0.05466 0.0
C1577 C 0.09651 0.60541 0.02263 0.0
C1578 C 0.11483 0.86731 0.29789 0.0
C1579 C 0.12999 0.86572 0.28415 0.0
H1580 H 0.09152 0.85276 0.31281 0.0
C1581 C 0.1316 0.84867 0.27299 0.0
H1582 H 0.11316 0.88039 0.30659 0.0
C1583 C 0.11931 0.83286 0.27664 0.0
C1584 C 0.10507 0.83395 0.29134 0.0
H1585 H 0.14307 0.84709 0.26224 0.0
H1586 H 0.1216 0.81945 0.2686 0.0
C1587 C 0.10237 0.85156 0.30138 0.0
C1588 C 0.90536 0.86958 0.52592 0.0
C1589 C 0.90436 0.85543 0.54072 0.0
H1590 H 0.89093 0.89308 0.51128 0.0
C1591 C 0.88673 0.85261 0.55069 0.0
H1592 H 0.91878 0.87197 0.51793 0.0
C1593 C 0.87087 0.86487 0.54704 0.0
C1594 C 0.87235 0.87994 0.5332 0.0
H1595 H 0.8856 0.84183 0.56219 0.0
H1596 H 0.85776 0.86312 0.55569 0.0
C1597 C 0.88943 0.88166 0.5221 0.0
C1598 C 0.88674 0.63482 0.79966 0.0
C1599 C 0.88442 0.65242 0.78949 0.0
H1600 H 0.87545 0.60619 0.80492 0.0
C1601 C 0.87043 0.65359 0.77455 0.0
H1602 H 0.89738 0.63356 0.81127 0.0
C1603 C 0.85798 0.63793 0.77081 0.0
C1604 C 0.85916 0.62095 0.78214 0.0
H1605 H 0.86844 0.66698 0.7664 0.0
H1606 H 0.84668 0.63959 0.7599 0.0
C1607 C 0.8741 0.61923 0.79609 0.0
C1608 C 0.09856 0.37928 0.96675 0.0
C1609 C 0.11566 0.37785 0.95563 0.0
H1610 H 0.06931 0.36923 0.97081 0.0
C1611 C 0.11733 0.36289 0.94169 0.0
H1612 H 0.09692 0.39061 0.97764 0.0
C1613 C 0.1016 0.35047 0.93793 0.0
C1614 C 0.08393 0.35304 0.9479 0.0
H1615 H 0.13045 0.36136 0.93303 0.0
H1616 H 0.10286 0.3398 0.92635 0.0
C1617 C 0.08277 0.36705 0.96282 0.0
C1618 C 0.38619 0.85289 0.18693 0.0
C1619 C 0.38394 0.83559 0.1976 0.0
H1620 H 0.37505 0.8815 0.18121 0.0
C1621 C 0.37029 0.83493 0.21288 0.0
H1622 H 0.39657 0.85376 0.17505 0.0
C1623 C 0.35808 0.8508 0.2165 0.0
C1624 C 0.35915 0.86748 0.20472 0.0
H1625 H 0.36836 0.82177 0.22141 0.0
H1626 H 0.34702 0.84952 0.22771 0.0
C1627 C 0.37379 0.8687 0.19039 0.0
C1628 C 0.88729 0.13628 0.43734 0.0
C1629 C 0.90497 0.13334 0.4472 0.0
H1630 H 0.8583 0.12582 0.43235 0.0
C1631 C 0.90602 0.11903 0.46184 0.0
H1632 H 0.88611 0.14719 0.42598 0.0
C1633 C 0.89012 0.1069 0.46559 0.0
C1634 C 0.87299 0.10874 0.45458 0.0
H1635 H 0.91948 0.11655 0.46975 0.0
H1636 H 0.89167 0.09536 0.47627 0.0
C1637 C 0.87144 0.12397 0.44092 0.0
C1638 C 0.62985 0.63882 0.71585 0.0
C1639 C 0.62841 0.62181 0.70459 0.0
H1640 H 0.61985 0.66805 0.72014 0.0
C1641 C 0.61347 0.6203 0.6906 0.0
H1642 H 0.64115 0.64034 0.72679 0.0
C1643 C 0.60111 0.63609 0.68694 0.0
C1644 C 0.60368 0.65367 0.69707 0.0
H1645 H 0.61193 0.60725 0.68182 0.0
H1646 H 0.59046 0.63495 0.67532 0.0
C1647 C 0.61767 0.65466 0.71203 0.0
C1648 C 0.5501 0.60138 0.63678 0.0
C1649 C 0.54024 0.58369 0.63391 0.0
H1650 H 0.55514 0.63031 0.62618 0.0
C1651 C 0.5256 0.58259 0.6196 0.0
H1652 H 0.56147 0.60259 0.64769 0.0
C1653 C 0.52187 0.59844 0.6074 0.0
C1654 C 0.5329 0.61557 0.60916 0.0
H1655 H 0.51769 0.56912 0.61719 0.0
H1656 H 0.5112 0.59685 0.59586 0.0
C1657 C 0.54655 0.61717 0.6244 0.0
C1658 C 0.02217 0.38898 0.88112 0.0
C1659 C 0.03335 0.37194 0.87949 0.0
H1660 H 0.0179 0.41828 0.87131 0.0
C1661 C 0.04721 0.37045 0.86443 0.0
H1662 H 0.01133 0.39048 0.89251 0.0
C1663 C 0.05082 0.38629 0.85211 0.0
C1664 C 0.04078 0.40389 0.85487 0.0
H1665 H 0.05592 0.35737 0.86275 0.0
H1666 H 0.06234 0.38516 0.84136 0.0
C1667 C 0.02594 0.40488 0.86898 0.0
C1668 C 0.33063 0.77694 0.1206 0.0
C1669 C 0.33184 0.79128 0.10599 0.0
H1670 H 0.34489 0.76276 0.14448 0.0
C1671 C 0.34964 0.80085 0.10283 0.0
H1672 H 0.31708 0.76926 0.12326 0.0
C1673 C 0.36548 0.79729 0.11514 0.0
C1674 C 0.36382 0.78392 0.13062 0.0
H1675 H 0.35095 0.81199 0.09169 0.0
H1676 H 0.37873 0.80564 0.11308 0.0
C1677 C 0.34654 0.7732 0.13274 0.0
C1678 C 0.96247 0.08176 0.36868 0.0
C1679 C 0.94797 0.08319 0.35425 0.0
H1680 H 0.97696 0.09568 0.39258 0.0
C1681 C 0.93848 0.10107 0.35135 0.0
H1682 H 0.97009 0.06813 0.37112 0.0
C1683 C 0.94226 0.11677 0.3638 0.0
C1684 C 0.95575 0.11486 0.37914 0.0
H1685 H 0.92723 0.10255 0.34036 0.0
H1686 H 0.93395 0.13008 0.36197 0.0
C1687 C 0.96642 0.09751 0.38095 0.0
C1688 C 0.12271 0.19142 0.61419 0.0
C1689 C 0.12451 0.20483 0.62962 0.0
H1690 H 0.13712 0.17641 0.59086 0.0
C1691 C 0.14192 0.21534 0.63173 0.0
H1692 H 0.10936 0.18323 0.61213 0.0
C1693 C 0.15781 0.21132 0.61966 0.0
C1694 C 0.15646 0.19692 0.60512 0.0
H1695 H 0.14368 0.22581 0.64343 0.0
H1696 H 0.17146 0.21883 0.62233 0.0
C1697 C 0.13854 0.18758 0.60194 0.0
C1698 C 0.46214 0.40634 0.61949 0.0
C1699 C 0.44763 0.40486 0.6339 0.0
H1700 H 0.47669 0.39247 0.5956 0.0
C1701 C 0.43819 0.38695 0.63678 0.0
H1702 H 0.46972 0.41998 0.61706 0.0
C1703 C 0.44202 0.37127 0.62433 0.0
C1704 C 0.45552 0.37323 0.609 0.0
H1705 H 0.42693 0.38543 0.64777 0.0
H1706 H 0.43374 0.35793 0.62614 0.0
C1707 C 0.46614 0.3906 0.60722 0.0
C1708 C 0.34989 0.68778 0.38691 0.0
C1709 C 0.33204 0.69734 0.38403 0.0
H1710 H 0.37898 0.68341 0.37647 0.0
C1711 C 0.33074 0.71208 0.36983 0.0
H1712 H 0.35126 0.67635 0.39773 0.0
C1713 C 0.3466 0.71623 0.35777 0.0
C1714 C 0.36393 0.70553 0.35956 0.0
H1715 H 0.31715 0.71976 0.36741 0.0
H1716 H 0.34488 0.72698 0.34632 0.0
C1717 C 0.36569 0.69176 0.37467 0.0
C1718 C 0.63776 0.79923 0.88709 0.0
C1719 C 0.65591 0.79037 0.88388 0.0
H1720 H 0.60846 0.80284 0.87692 0.0
C1721 C 0.65762 0.77603 0.86931 0.0
H1722 H 0.63605 0.81034 0.8982 0.0
C1723 C 0.64183 0.77161 0.85725 0.0
C1724 C 0.62416 0.78167 0.8594 0.0
H1725 H 0.67146 0.7689 0.86662 0.0
H1726 H 0.64385 0.76123 0.84551 0.0
C1727 C 0.62202 0.795 0.87485 0.0
C1728 C 0.63637 0.55042 0.60197 0.0
C1729 C 0.63375 0.5406 0.58422 0.0
H1730 H 0.62543 0.55529 0.63081 0.0
C1731 C 0.61953 0.5259 0.5829 0.0
H1732 H 0.64721 0.56184 0.60336 0.0
C1733 C 0.60716 0.52206 0.5986 0.0
C1734 C 0.60867 0.53304 0.61578 0.0
H1735 H 0.6173 0.51803 0.56938 0.0
H1736 H 0.59569 0.51134 0.59684 0.0
C1737 C 0.62383 0.54674 0.61761 0.0
C1738 C 0.18836 0.38623 0.85134 0.0
C1739 C 0.1978 0.38327 0.83344 0.0
H1740 H 0.18392 0.37572 0.8804 0.0
C1741 C 0.21229 0.36884 0.83202 0.0
H1742 H 0.17712 0.39723 0.85282 0.0
C1743 C 0.2163 0.35663 0.8478 0.0
C1744 C 0.20569 0.3585 0.86518 0.0
H1745 H 0.21987 0.36635 0.81838 0.0
H1746 H 0.22684 0.345 0.84598 0.0
C1747 C 0.19219 0.37385 0.86707 0.0
C1748 C 0.35225 0.93775 0.099 0.0
C1749 C 0.35544 0.94689 0.08099 0.0
H1750 H 0.36247 0.93365 0.12822 0.0
C1751 C 0.37006 0.96118 0.07945 0.0
H1752 H 0.3411 0.92667 0.10057 0.0
C1753 C 0.38219 0.96529 0.09527 0.0
C1754 C 0.38005 0.95498 0.11279 0.0
H1755 H 0.37274 0.96852 0.06571 0.0
H1756 H 0.39395 0.97567 0.09338 0.0
C1757 C 0.36455 0.94168 0.11477 0.0
C1758 C 0.79744 0.11459 0.3668 0.0
C1759 C 0.78383 0.12987 0.36518 0.0
H1760 H 0.81239 0.09133 0.35222 0.0
C1761 C 0.77291 0.13173 0.34799 0.0
H1762 H 0.80594 0.11273 0.37998 0.0
C1763 C 0.7767 0.11958 0.33211 0.0
C1764 C 0.79129 0.10523 0.33324 0.0
H1765 H 0.76228 0.1433 0.34639 0.0
H1766 H 0.76888 0.12207 0.31861 0.0
C1767 C 0.80106 0.10227 0.35097 0.0
C1768 C 0.61932 0.4627 0.40562 0.0
C1769 C 0.63358 0.44801 0.40456 0.0
H1770 H 0.59569 0.4772 0.39126 0.0
C1771 C 0.63647 0.43814 0.38687 0.0
H1772 H 0.61688 0.47061 0.41908 0.0
C1773 C 0.62417 0.44175 0.37103 0.0
C1774 C 0.60898 0.45546 0.37258 0.0
H1775 H 0.64734 0.42673 0.38568 0.0
H1776 H 0.62597 0.43316 0.35789 0.0
C1777 C 0.60719 0.46649 0.38971 0.0
C1778 C 0.29675 0.37354 0.62175 0.0
C1779 C 0.28321 0.35821 0.62341 0.0
H1780 H 0.31165 0.39687 0.63628 0.0
C1781 C 0.27235 0.3563 0.64063 0.0
H1782 H 0.3052 0.37544 0.60854 0.0
C1783 C 0.27614 0.36847 0.6565 0.0
C1784 C 0.29067 0.38289 0.65532 0.0
H1785 H 0.26177 0.34469 0.64227 0.0
H1786 H 0.26837 0.36595 0.67002 0.0
C1787 C 0.30037 0.38588 0.63756 0.0
C1788 C 0.38169 0.02301 0.88854 0.0
C1789 C 0.3801 0.03456 0.87174 0.0
H1790 H 0.37192 0.01818 0.91776 0.0
C1791 C 0.36516 0.04858 0.87059 0.0
H1792 H 0.39299 0.01204 0.88977 0.0
C1793 C 0.35292 0.05194 0.88653 0.0
C1794 C 0.35563 0.04149 0.90391 0.0
H1795 H 0.36352 0.05757 0.8577 0.0
H1796 H 0.34226 0.06357 0.88569 0.0
C1797 C 0.36963 0.02653 0.90454 0.0
C1798 C 0.69225 0.1144 0.12103 0.0
C1799 C 0.70588 0.12964 0.12276 0.0
H1800 H 0.67719 0.09111 0.13546 0.0
C1801 C 0.71678 0.13137 0.13998 0.0
H1802 H 0.68376 0.11263 0.10782 0.0
C1803 C 0.71291 0.11916 0.15579 0.0
C1804 C 0.69827 0.10486 0.15456 0.0
H1805 H 0.72743 0.14291 0.14167 0.0
H1806 H 0.7207 0.12157 0.16933 0.0
C1807 C 0.68856 0.102 0.13679 0.0
C1808 C 0.58176 0.12019 0.02624 0.0
C1809 C 0.58289 0.13435 0.04102 0.0
H1810 H 0.59606 0.0967 0.01147 0.0
C1811 C 0.60061 0.13719 0.05082 0.0
H1812 H 0.56826 0.11779 0.01838 0.0
C1813 C 0.61645 0.12494 0.04702 0.0
C1814 C 0.61485 0.10986 0.03319 0.0
H1815 H 0.60184 0.14798 0.0623 0.0
H1816 H 0.62964 0.1267 0.05554 0.0
C1817 C 0.59765 0.10812 0.02227 0.0
C1818 C 0.63133 0.34733 0.27189 0.0
C1819 C 0.62949 0.36458 0.28271 0.0
H1820 H 0.62175 0.31788 0.26812 0.0
C1821 C 0.61433 0.36623 0.29644 0.0
H1822 H 0.64282 0.3457 0.26116 0.0
C1823 C 0.6021 0.35038 0.30027 0.0
C1824 C 0.60505 0.33259 0.2906 0.0
H1825 H 0.61249 0.37946 0.30488 0.0
H1826 H 0.59125 0.35165 0.31169 0.0
C1827 C 0.61928 0.33142 0.27589 0.0
C1828 C 0.37118 0.3638 0.54751 0.0
C1829 C 0.37261 0.37892 0.53371 0.0
H1830 H 0.386 0.34074 0.56255 0.0
C1831 C 0.38965 0.38068 0.52255 0.0
H1832 H 0.35811 0.36202 0.55621 0.0
C1833 C 0.4056 0.3686 0.52628 0.0
C1834 C 0.40467 0.35442 0.54105 0.0
H1835 H 0.3911 0.39212 0.51176 0.0
H1836 H 0.41899 0.37102 0.51825 0.0
C1837 C 0.38708 0.35154 0.55107 0.0
C1838 C 0.36738 0.1573 0.77639 0.0
C1839 C 0.38199 0.15602 0.79072 0.0
H1840 H 0.34346 0.14314 0.76219 0.0
C1841 C 0.38511 0.1382 0.80025 0.0
H1842 H 0.36475 0.17088 0.76875 0.0
C1843 C 0.37276 0.12239 0.79665 0.0
C1844 C 0.35728 0.12413 0.7833 0.0
H1845 H 0.39625 0.13684 0.81138 0.0
H1846 H 0.3748 0.10911 0.80497 0.0
C1847 C 0.3552 0.14144 0.77262 0.0
C1848 C 0.59566 0.88282 0.96531 0.0
C1849 C 0.61315 0.88064 0.95496 0.0
H1850 H 0.56619 0.8732 0.96883 0.0
C1851 C 0.61517 0.86497 0.94187 0.0
H1852 H 0.59374 0.89471 0.97554 0.0
C1853 C 0.59948 0.85251 0.93818 0.0
C1854 C 0.58149 0.8557 0.94736 0.0
H1855 H 0.6286 0.86287 0.93381 0.0
H1856 H 0.60108 0.84121 0.92726 0.0
C1857 C 0.57991 0.87052 0.96145 0.0
C1858 C 0.88591 0.35072 0.18728 0.0
C1859 C 0.88309 0.33313 0.19733 0.0
H1860 H 0.87542 0.37967 0.18216 0.0
C1861 C 0.86897 0.33221 0.21216 0.0
H1862 H 0.89667 0.35179 0.17576 0.0
C1863 C 0.8569 0.34816 0.21592 0.0
C1864 C 0.85861 0.36519 0.20474 0.0
H1865 H 0.86658 0.31882 0.22021 0.0
H1866 H 0.8455 0.34672 0.22676 0.0
C1867 C 0.87367 0.36661 0.19088 0.0
C1868 C 0.38735 0.63572 0.4381 0.0
C1869 C 0.40515 0.63281 0.44775 0.0
H1870 H 0.35836 0.62517 0.43335 0.0
C1871 C 0.40642 0.6184 0.46229 0.0
H1872 H 0.38599 0.6467 0.42682 0.0
C1873 C 0.39061 0.60618 0.46614 0.0
C1874 C 0.37335 0.60802 0.45533 0.0
H1875 H 0.41998 0.61594 0.47003 0.0
H1876 H 0.39232 0.59458 0.47672 0.0
C1877 C 0.3716 0.62333 0.44178 0.0
C1878 C 0.13002 0.13859 0.71602 0.0
C1879 C 0.12861 0.12172 0.70455 0.0
H1880 H 0.12016 0.16785 0.7205 0.0
C1881 C 0.11386 0.12046 0.69034 0.0
H1882 H 0.14117 0.13992 0.72713 0.0
C1883 C 0.10166 0.13638 0.68669 0.0
C1884 C 0.10422 0.15384 0.69705 0.0
H1885 H 0.11236 0.10752 0.6814 0.0
H1886 H 0.09117 0.13545 0.67491 0.0
C1887 C 0.11799 0.15457 0.71221 0.0
C1888 C 0.04747 0.11754 0.62408 0.0
C1889 C 0.03332 0.11623 0.60928 0.0
H1890 H 0.06279 0.10263 0.6469 0.0
C1891 C 0.02181 0.09938 0.60793 0.0
H1892 H 0.05644 0.13047 0.62555 0.0
C1893 C 0.02554 0.08347 0.62005 0.0
C1894 C 0.04066 0.08423 0.63387 0.0
H1895 H 0.01074 0.09803 0.59675 0.0
H1896 H 0.01724 0.07019 0.61792 0.0
C1897 C 0.05104 0.10168 0.63638 0.0
C1898 C 0.52437 0.90512 0.86774 0.0
C1899 C 0.53899 0.90371 0.85343 0.0
H1900 H 0.50981 0.89122 0.89161 0.0
C1901 C 0.54861 0.88587 0.85069 0.0
H1902 H 0.51666 0.91871 0.87007 0.0
C1903 C 0.54485 0.87022 0.86319 0.0
C1904 C 0.53124 0.87211 0.87843 0.0
H1905 H 0.55995 0.88441 0.83978 0.0
H1906 H 0.55327 0.85695 0.8615 0.0
C1907 C 0.52043 0.88939 0.88006 0.0
C1908 C 0.8655 0.29588 0.11414 0.0
C1909 C 0.8634 0.28269 0.12972 0.0
H1910 H 0.85145 0.3109 0.0906 0.0
C1911 C 0.84577 0.27258 0.13194 0.0
H1912 H 0.87903 0.30376 0.11201 0.0
C1913 C 0.82999 0.27679 0.11979 0.0
C1914 C 0.83167 0.29097 0.10508 0.0
H1915 H 0.84379 0.2623 0.14377 0.0
H1916 H 0.81618 0.2696 0.12253 0.0
C1917 C 0.84977 0.2999 0.10182 0.0
C1918 C 0.46641 0.59773 0.38074 0.0
C1919 C 0.4555 0.61494 0.37909 0.0
H1920 H 0.47031 0.5684 0.37083 0.0
C1921 C 0.44178 0.61669 0.36394 0.0
H1922 H 0.47713 0.59602 0.39221 0.0
C1923 C 0.43803 0.60096 0.35153 0.0
C1924 C 0.44778 0.58319 0.35428 0.0
H1925 H 0.43327 0.6299 0.36224 0.0
H1926 H 0.42661 0.60231 0.34069 0.0
C1927 C 0.46249 0.58194 0.3685 0.0
C1928 C 0.63685 0.68741 0.6017 0.0
C1929 C 0.65456 0.69721 0.60461 0.0
H1930 H 0.60785 0.68251 0.61219 0.0
C1931 C 0.65567 0.71188 0.61889 0.0
H1932 H 0.63563 0.67602 0.59081 0.0
C1933 C 0.63978 0.7157 0.63103 0.0
C1934 C 0.62262 0.70473 0.62923 0.0
H1935 H 0.66915 0.71974 0.62135 0.0
H1936 H 0.64138 0.72639 0.64255 0.0
C1937 C 0.62102 0.69106 0.61401 0.0
C1938 C 0.96144 0.90774 0.61876 0.0
C1939 C 0.94696 0.90631 0.63322 0.0
H1940 H 0.97604 0.89373 0.59499 0.0
C1941 C 0.93763 0.88837 0.63628 0.0
H1942 H 0.96894 0.92141 0.61619 0.0
C1943 C 0.94155 0.8726 0.62398 0.0
C1944 C 0.95501 0.87448 0.60862 0.0
H1945 H 0.92641 0.88689 0.64731 0.0
H1946 H 0.93335 0.85923 0.62594 0.0
C1947 C 0.96553 0.89191 0.60664 0.0
C1948 C 0.84976 0.21653 0.35838 0.0
C1949 C 0.86671 0.20517 0.35972 0.0
H1950 H 0.82057 0.2209 0.36847 0.0
C1951 C 0.86819 0.1911 0.37458 0.0
H1952 H 0.84826 0.22753 0.34715 0.0
C1953 C 0.85242 0.18745 0.38697 0.0
C1954 C 0.83488 0.19768 0.38448 0.0
H1955 H 0.8812 0.18225 0.37604 0.0
H1956 H 0.85352 0.17577 0.39754 0.0
C1957 C 0.83392 0.21272 0.37058 0.0
C1958 C 0.12162 0.29662 0.87404 0.0
C1959 C 0.12325 0.28289 0.85888 0.0
H1960 H 0.13616 0.31169 0.89726 0.0
C1961 C 0.1404 0.27189 0.85717 0.0
H1962 H 0.10846 0.30519 0.87578 0.0
C1963 C 0.15624 0.2757 0.86936 0.0
C1964 C 0.1551 0.2904 0.88361 0.0
H1965 H 0.14201 0.26115 0.84569 0.0
H1966 H 0.16972 0.2678 0.86699 0.0
C1967 C 0.1374 0.30027 0.88641 0.0
C1968 C 0.62018 0.02657 0.08236 0.0
C1969 C 0.63411 0.04158 0.08342 0.0
H1970 H 0.5967 0.01172 0.0966 0.0
C1971 C 0.6366 0.05169 0.10102 0.0
H1972 H 0.61806 0.01848 0.06896 0.0
C1973 C 0.6242 0.04798 0.11677 0.0
C1974 C 0.60932 0.03394 0.11519 0.0
H1975 H 0.6472 0.06334 0.1022 0.0
H1976 H 0.62568 0.05674 0.12983 0.0
C1977 C 0.60796 0.0227 0.09817 0.0
C1978 C 0.21305 0.87005 0.33366 0.0
C1979 C 0.1983 0.88424 0.33484 0.0
H1980 H 0.22756 0.84626 0.34774 0.0
C1981 C 0.18835 0.88687 0.35252 0.0
H1982 H 0.22102 0.86782 0.32019 0.0
C1983 C 0.19194 0.87435 0.3682 0.0
C1984 C 0.20569 0.85921 0.3665 0.0
H1985 H 0.1769 0.89767 0.3538 0.0
H1986 H 0.18328 0.87594 0.38132 0.0
C1987 C 0.21681 0.85771 0.3494 0.0
C1988 C 0.36727 0.46205 0.58353 0.0
C1989 C 0.3534 0.44699 0.58458 0.0
H1990 H 0.39075 0.47693 0.59774 0.0
C1991 C 0.35099 0.43682 0.60216 0.0
H1992 H 0.36933 0.47019 0.57014 0.0
C1993 C 0.36343 0.44053 0.61788 0.0
C1994 C 0.37827 0.45461 0.6163 0.0
H1995 H 0.34043 0.42513 0.60334 0.0
H1996 H 0.36202 0.43171 0.63092 0.0
C1997 C 0.37953 0.46592 0.59931 0.0
C1998 C 0.7718 0.63227 0.84613 0.0
C1999 C 0.78212 0.63015 0.86365 0.0
H2000 H 0.76831 0.62251 0.8167 0.0
C2001 C 0.79512 0.61442 0.86578 0.0
H2002 H 0.76165 0.64421 0.84412 0.0
C2003 C 0.79877 0.60184 0.85017 0.0
C2004 C 0.78965 0.60499 0.83213 0.0
H2005 H 0.80315 0.61236 0.87923 0.0
H2006 H 0.80964 0.59051 0.85184 0.0
C2007 C 0.77563 0.61986 0.83045 0.0
C2008 C 0.60655 0.96606 0.88814 0.0
C2009 C 0.60796 0.9544 0.8714 0.0
H2010 H 0.61659 0.97102 0.91725 0.0
C2011 C 0.62287 0.94037 0.87019 0.0
H2012 H 0.59527 0.97705 0.88942 0.0
C2013 C 0.63526 0.93707 0.88604 0.0
C2014 C 0.63271 0.94761 0.90339 0.0
H2015 H 0.62439 0.93129 0.85734 0.0
H2016 H 0.64588 0.92541 0.88517 0.0
C2017 C 0.61875 0.96261 0.90406 0.0
C2018 C 0.29848 0.88758 0.13698 0.0
C2019 C 0.28932 0.88462 0.15502 0.0
H2020 H 0.30265 0.87695 0.10792 0.0
C2021 C 0.27498 0.87006 0.15671 0.0
H2022 H 0.3096 0.89868 0.1353 0.0
C2023 C 0.27088 0.85773 0.14104 0.0
C2024 C 0.28125 0.85961 0.12352 0.0
H2025 H 0.26761 0.86757 0.17047 0.0
H2026 H 0.26049 0.846 0.14306 0.0
C2027 C 0.29456 0.87507 0.12137 0.0
C2028 C 0.35181 0.54972 0.38688 0.0
C2029 C 0.35467 0.53984 0.40456 0.0
H2030 H 0.36237 0.55473 0.35793 0.0
C2031 C 0.36895 0.52516 0.40564 0.0
H2032 H 0.34093 0.56111 0.38567 0.0
C2033 C 0.38112 0.52141 0.38976 0.0
C2034 C 0.37936 0.53245 0.37264 0.0
H2035 H 0.37136 0.51725 0.4191 0.0
H2036 H 0.39264 0.51071 0.39133 0.0
C2037 C 0.36416 0.54613 0.37106 0.0
C2038 C 0.71191 0.61785 0.65584 0.0
C2039 C 0.69717 0.60367 0.65447 0.0
H2040 H 0.7266 0.64163 0.64193 0.0
C2041 C 0.68743 0.60105 0.63669 0.0
H2042 H 0.71973 0.62008 0.66939 0.0
C2043 C 0.69121 0.61355 0.62104 0.0
C2044 C 0.70495 0.62868 0.62291 0.0
H2045 H 0.67598 0.59024 0.63527 0.0
H2046 H 0.68271 0.61196 0.60782 0.0
C2047 C 0.71586 0.63018 0.64013 0.0
C2048 C 0.5989 0.6079 0.52258 0.0
C2049 C 0.61589 0.60932 0.53387 0.0
H2050 H 0.56971 0.61798 0.5182 0.0
C2051 C 0.61742 0.6243 0.54781 0.0
H2052 H 0.59736 0.59657 0.51168 0.0
C2053 C 0.60167 0.63674 0.55139 0.0
C2054 C 0.5841 0.63418 0.54124 0.0
H2055 H 0.63046 0.62583 0.5566 0.0
H2056 H 0.60282 0.64742 0.56298 0.0
C2057 C 0.58309 0.62015 0.52633 0.0
C2058 C 0.61961 0.83025 0.77655 0.0
C2059 C 0.60519 0.83141 0.79108 0.0
H2060 H 0.64323 0.8446 0.76203 0.0
C2061 C 0.60205 0.84922 0.80065 0.0
H2062 H 0.62225 0.81669 0.76888 0.0
C2063 C 0.61422 0.86512 0.79688 0.0
C2064 C 0.62954 0.8635 0.78333 0.0
H2065 H 0.59106 0.85049 0.81192 0.0
H2066 H 0.61219 0.87839 0.80522 0.0
C2067 C 0.63162 0.84621 0.77262 0.0
C2068 C 0.38671 0.85019 0.0499 0.0
C2069 C 0.40449 0.85273 0.04012 0.0
H2070 H 0.35778 0.86103 0.05438 0.0
C2071 C 0.40577 0.86661 0.02508 0.0
H2072 H 0.38536 0.83962 0.06156 0.0
C2073 C 0.38999 0.87875 0.02086 0.0
C2074 C 0.37277 0.87736 0.0318 0.0
H2075 H 0.41932 0.86876 0.01723 0.0
H2076 H 0.39172 0.88999 0.00989 0.0
C2077 C 0.37099 0.86251 0.04585 0.0
C2078 C 0.35723 0.64104 0.27198 0.0
C2079 C 0.35897 0.62382 0.28287 0.0
H2080 H 0.36684 0.67048 0.26823 0.0
C2081 C 0.37404 0.62219 0.2967 0.0
H2082 H 0.34581 0.64266 0.26118 0.0
C2083 C 0.38625 0.63804 0.30058 0.0
C2084 C 0.38338 0.65581 0.29085 0.0
H2085 H 0.37581 0.60898 0.30518 0.0
H2086 H 0.39701 0.63678 0.31207 0.0
C2087 C 0.36926 0.65695 0.27603 0.0
C2088 C 0.60068 0.35212 0.43773 0.0
C2089 C 0.58284 0.35505 0.44729 0.0
H2090 H 0.62971 0.36265 0.43315 0.0
C2091 C 0.5815 0.36943 0.46184 0.0
H2092 H 0.60208 0.34116 0.42644 0.0
C2093 C 0.59731 0.38163 0.46579 0.0
C2094 C 0.61462 0.37978 0.45507 0.0
H2095 H 0.56791 0.3719 0.46951 0.0
H2096 H 0.59556 0.39321 0.47639 0.0
C2097 C 0.61643 0.36449 0.44151 0.0
C2098 C 0.88646 0.85048 0.68849 0.0
C2099 C 0.88355 0.83258 0.69796 0.0
H2100 H 0.87598 0.87956 0.68414 0.0
C2101 C 0.86926 0.83119 0.71259 0.0
H2102 H 0.89736 0.85193 0.67714 0.0
C2103 C 0.85713 0.84701 0.71671 0.0
C2104 C 0.85894 0.86439 0.70607 0.0
H2105 H 0.8668 0.81756 0.72019 0.0
H2106 H 0.84559 0.84522 0.72735 0.0
C2107 C 0.87416 0.86624 0.69243 0.0
C2108 C 0.39284 0.10601 0.96554 0.0
C2109 C 0.37522 0.10829 0.95542 0.0
H2110 H 0.42241 0.11545 0.96864 0.0
C2111 C 0.37311 0.12398 0.94237 0.0
H2112 H 0.39483 0.0941 0.97572 0.0
C2113 C 0.38882 0.13635 0.93847 0.0
C2114 C 0.40692 0.13304 0.94739 0.0
H2115 H 0.35959 0.12615 0.93449 0.0
H2116 H 0.38714 0.14766 0.92757 0.0
C2117 C 0.40861 0.11822 0.96146 0.0
C2118 C 0.11357 0.6225 0.19245 0.0
C2119 C 0.12894 0.62441 0.20591 0.0
H2120 H 0.0902 0.63676 0.17735 0.0
C2121 C 0.13088 0.64182 0.21645 0.0
H2122 H 0.11165 0.60914 0.18424 0.0
C2123 C 0.1187 0.65762 0.2124 0.0
C2124 C 0.10425 0.65618 0.19794 0.0
H2125 H 0.14253 0.64365 0.22696 0.0
H2126 H 0.12125 0.67129 0.21992 0.0
C2127 C 0.10122 0.63825 0.18858 0.0
C2128 C 0.04938 0.60113 0.13717 0.0
C2129 C 0.03985 0.58324 0.13446 0.0
H2130 H 0.05383 0.63008 0.12635 0.0
C2131 C 0.02518 0.58175 0.12022 0.0
H2132 H 0.06076 0.60265 0.14802 0.0
C2133 C 0.0211 0.59745 0.10792 0.0
C2134 C 0.03181 0.61479 0.10951 0.0
H2135 H 0.01752 0.56812 0.11792 0.0
H2136 H 0.01043 0.59558 0.09642 0.0
C2137 C 0.04548 0.61676 0.12469 0.0
C2138 C 0.55051 0.38698 0.35104 0.0
C2139 C 0.54062 0.40469 0.35368 0.0
H2140 H 0.55531 0.35807 0.3618 0.0
C2141 C 0.52573 0.40586 0.36772 0.0
H2142 H 0.56207 0.38571 0.34034 0.0
C2143 C 0.52175 0.39004 0.3799 0.0
C2144 C 0.53279 0.3729 0.37839 0.0
H2145 H 0.5178 0.41934 0.36995 0.0
H2146 H 0.51089 0.39168 0.39124 0.0
C2147 C 0.5467 0.37123 0.36339 0.0
C2148 C 0.84762 0.77188 0.63071 0.0
C2149 C 0.86479 0.78284 0.62897 0.0
H2150 H 0.8182 0.768 0.62111 0.0
C2151 C 0.86634 0.7967 0.61392 0.0
H2152 H 0.84606 0.76105 0.64212 0.0
C2153 C 0.85047 0.80053 0.60172 0.0
C2154 C 0.83276 0.79071 0.60459 0.0
H2155 H 0.87952 0.80525 0.61216 0.0
H2156 H 0.85167 0.81204 0.59097 0.0
C2157 C 0.83169 0.77587 0.6187 0.0
C2158 C 0.46764 0.09942 0.87899 0.0
C2159 C 0.45657 0.11656 0.8777 0.0
H2160 H 0.4716 0.07022 0.86873 0.0
C2161 C 0.44266 0.11839 0.86272 0.0
H2162 H 0.47851 0.09766 0.89032 0.0
C2163 C 0.43885 0.10277 0.85019 0.0
C2164 C 0.44874 0.08503 0.85264 0.0
H2165 H 0.43403 0.13155 0.86129 0.0
H2166 H 0.42727 0.10414 0.83954 0.0
C2167 C 0.46367 0.08373 0.86664 0.0
C2168 C 0.65611 0.21262 0.11868 0.0
C2169 C 0.65497 0.19795 0.1044 0.0
H2170 H 0.64182 0.22721 0.14228 0.0
C2171 C 0.63723 0.18821 0.10145 0.0
H2172 H 0.66962 0.22042 0.12115 0.0
C2173 C 0.62138 0.19195 0.11371 0.0
C2174 C 0.623 0.20563 0.12891 0.0
H2175 H 0.63598 0.17683 0.09056 0.0
H2176 H 0.60819 0.18346 0.11187 0.0
C2177 C 0.64021 0.21652 0.13076 0.0
C2178 C 0.96277 0.40486 0.12018 0.0
C2179 C 0.94788 0.40379 0.13423 0.0
H2180 H 0.97741 0.39064 0.09655 0.0
C2181 C 0.9378 0.38618 0.1368 0.0
H2182 H 0.97085 0.41827 0.11801 0.0
C2183 C 0.9414 0.37045 0.12434 0.0
C2184 C 0.9553 0.37205 0.10933 0.0
H2185 H 0.92623 0.38499 0.1475 0.0
H2186 H 0.93264 0.35739 0.12587 0.0
C2187 C 0.96654 0.38906 0.10791 0.0
C2188 C 0.85147 0.68691 0.885 0.0
C2189 C 0.83404 0.69723 0.88218 0.0
H2190 H 0.88029 0.68124 0.87441 0.0
C2191 C 0.83329 0.71195 0.86794 0.0
H2192 H 0.85241 0.67547 0.89586 0.0
C2193 C 0.84924 0.71535 0.85576 0.0
C2194 C 0.8661 0.70391 0.85749 0.0
H2195 H 0.82003 0.7202 0.86555 0.0
H2196 H 0.84792 0.72612 0.84428 0.0
C2197 C 0.86736 0.69015 0.87265 0.0
C2198 C 0.15636 0.77604 0.36938 0.0
C2199 C 0.15501 0.79049 0.38386 0.0
H2200 H 0.14232 0.76166 0.34548 0.0
C2201 C 0.13717 0.80004 0.38684 0.0
H2202 H 0.16995 0.76838 0.36688 0.0
C2203 C 0.12143 0.79634 0.37443 0.0
C2204 C 0.12325 0.78288 0.35905 0.0
H2205 H 0.13576 0.81125 0.39788 0.0
H2206 H 0.10815 0.80469 0.37632 0.0
C2207 C 0.14056 0.77217 0.35715 0.0
C2208 C 0.13602 0.52166 0.20452 0.0
C2209 C 0.13651 0.53776 0.21712 0.0
H2210 H 0.11819 0.50387 0.18626 0.0
C2211 C 0.11911 0.54405 0.22596 0.0
H2212 H 0.14929 0.51628 0.19783 0.0
C2213 C 0.10124 0.5373 0.21897 0.0
C2214 C 0.10078 0.52391 0.20351 0.0
H2215 H 0.1191 0.55622 0.23604 0.0
H2216 H 0.088 0.54441 0.22385 0.0
C2217 C 0.11814 0.51456 0.1979 0.0
C2218 C 0.72449 0.36917 0.44582 0.0
C2219 C 0.71546 0.35175 0.45177 0.0
H2220 H 0.72244 0.4003 0.44554 0.0
C2221 C 0.70233 0.35219 0.46744 0.0
H2222 H 0.73496 0.36922 0.43399 0.0
C2223 C 0.69551 0.37005 0.4744 0.0
C2224 C 0.70147 0.38745 0.46534 0.0
H2225 H 0.69547 0.33891 0.47256 0.0
H2226 H 0.68354 0.36998 0.48472 0.0
C2227 C 0.71732 0.38702 0.45242 0.0
C2228 C 0.86888 0.97465 0.69684 0.0
C2229 C 0.88642 0.96564 0.70244 0.0
H2230 H 0.83777 0.97249 0.69705 0.0
C2231 C 0.88628 0.95244 0.71807 0.0
H2232 H 0.8686 0.98519 0.68506 0.0
C2233 C 0.86856 0.94552 0.72528 0.0
C2234 C 0.85101 0.95145 0.71652 0.0
H2235 H 0.89967 0.9456 0.72292 0.0
H2236 H 0.86884 0.93349 0.73552 0.0
C2237 C 0.85116 0.96739 0.7037 0.0
C2238 C 0.288 0.13611 0.96876 0.0
C2239 C 0.27438 0.13659 0.95351 0.0
H2240 H 0.30723 0.11825 0.98548 0.0
C2241 C 0.26503 0.11921 0.94795 0.0
H2242 H 0.29513 0.14937 0.97359 0.0
C2243 C 0.27229 0.10133 0.95439 0.0
C2244 C 0.28855 0.10084 0.96678 0.0
H2245 H 0.25417 0.11919 0.93647 0.0
H2246 H 0.26686 0.08807 0.94773 0.0
C2247 C 0.29492 0.11823 0.97558 0.0
C2248 C 0.11966 0.44629 0.76436 0.0
C2249 C 0.13696 0.45211 0.7737 0.0
H2250 H 0.08851 0.44601 0.76598 0.0
C2251 C 0.13634 0.46765 0.787 0.0
H2252 H 0.11975 0.43458 0.75375 0.0
C2253 C 0.11839 0.47455 0.79364 0.0
C2254 C 0.10108 0.46556 0.78734 0.0
H2255 H 0.14953 0.47266 0.79411 0.0
H2256 H 0.1183 0.48472 0.80573 0.0
C2257 C 0.10172 0.45283 0.77135 0.0
C2258 C 0.78631 0.3528 0.02022 0.0
C2259 C 0.77297 0.35233 0.03572 0.0
H2260 H 0.80524 0.37063 0.00314 0.0
C2261 C 0.76379 0.36972 0.04151 0.0
H2262 H 0.7933 0.33953 0.01523 0.0
C2263 C 0.77097 0.38759 0.03495 0.0
C2264 C 0.78697 0.38806 0.02222 0.0
H2265 H 0.75317 0.36976 0.0532 0.0
H2266 H 0.7657 0.40086 0.04173 0.0
C2267 C 0.79313 0.37067 0.01329 0.0
C2268 C 0.86988 0.01404 0.29126 0.0
C2269 C 0.88722 0.02326 0.28538 0.0
H2270 H 0.83874 0.01587 0.29158 0.0
C2271 C 0.88667 0.03644 0.26975 0.0
H2272 H 0.8699 0.00351 0.30304 0.0
C2273 C 0.86876 0.04315 0.26282 0.0
C2274 C 0.85142 0.03704 0.27189 0.0
H2275 H 0.8999 0.04345 0.26468 0.0
H2276 H 0.86874 0.05518 0.25258 0.0
C2277 C 0.85197 0.02111 0.2847 0.0
C2278 C 0.20318 0.13598 0.52062 0.0
C2279 C 0.21618 0.13616 0.53641 0.0
H2280 H 0.18434 0.11853 0.50306 0.0
C2281 C 0.22498 0.1186 0.54228 0.0
H2282 H 0.19649 0.14938 0.51557 0.0
C2283 C 0.21768 0.10088 0.53547 0.0
C2284 C 0.20193 0.10072 0.52243 0.0
H2285 H 0.23536 0.11834 0.5542 0.0
H2286 H 0.2226 0.0875 0.54229 0.0
C2287 C 0.19623 0.11825 0.51346 0.0
C2288 C 0.21704 0.88611 0.45319 0.0
C2289 C 0.2011 0.88673 0.46598 0.0
H2290 H 0.23473 0.86808 0.43504 0.0
C2291 C 0.195 0.86944 0.47516 0.0
H2292 H 0.22226 0.8993 0.44623 0.0
C2293 C 0.20178 0.85148 0.4684 0.0
C2294 C 0.21501 0.85084 0.45281 0.0
H2295 H 0.18296 0.86952 0.48539 0.0
H2296 H 0.1948 0.83828 0.47357 0.0
C2297 C 0.22418 0.86816 0.4468 0.0
C2298 C 0.36842 0.44484 0.72547 0.0
C2299 C 0.35106 0.45104 0.71649 0.0
H2300 H 0.39954 0.44442 0.72348 0.0
C2301 C 0.35162 0.46699 0.70371 0.0
H2302 H 0.36838 0.43278 0.73569 0.0
C2303 C 0.36953 0.47401 0.69709 0.0
C2304 C 0.38686 0.46471 0.70288 0.0
H2305 H 0.33838 0.4723 0.6969 0.0
H2306 H 0.36954 0.48456 0.68533 0.0
C2307 C 0.38633 0.45149 0.71848 0.0
C2308 C 0.79111 0.61993 0.97356 0.0
C2309 C 0.78526 0.60253 0.96441 0.0
H2310 H 0.79149 0.65105 0.97156 0.0
C2311 C 0.76976 0.60303 0.95108 0.0
H2312 H 0.80279 0.61994 0.9842 0.0
C2313 C 0.76293 0.62092 0.94419 0.0
C2314 C 0.77196 0.63828 0.95029 0.0
H2315 H 0.76472 0.58977 0.94412 0.0
H2316 H 0.7528 0.62089 0.93207 0.0
C2317 C 0.78464 0.63781 0.96633 0.0
C2318 C 0.60198 0.03651 0.21739 0.0
C2319 C 0.60136 0.02343 0.20169 0.0
H2320 H 0.62002 0.05504 0.23469 0.0
C2321 C 0.61866 0.0142 0.1957 0.0
H2322 H 0.58879 0.04352 0.22254 0.0
C2323 C 0.63661 0.02114 0.20229 0.0
C2324 C 0.63724 0.03696 0.21524 0.0
H2325 H 0.61857 0.00375 0.18385 0.0
H2326 H 0.64981 0.01589 0.19537 0.0
C2327 C 0.61993 0.0431 0.22435 0.0
C2328 C 0.54168 0.22513 0.11978 0.0
C2329 C 0.53587 0.21585 0.13711 0.0
H2330 H 0.5417 0.2235 0.08862 0.0
C2331 C 0.52012 0.20281 0.13662 0.0
H2332 H 0.55356 0.23556 0.11977 0.0
C2333 C 0.51298 0.19628 0.11873 0.0
C2334 C 0.52195 0.20242 0.10134 0.0
H2335 H 0.51511 0.19577 0.14985 0.0
H2336 H 0.50264 0.18433 0.11872 0.0
C2337 C 0.53489 0.21824 0.10188 0.0
C2338 C 0.03566 0.77019 0.38617 0.0
C2339 C 0.02242 0.78578 0.3867 0.0
H2340 H 0.05459 0.75317 0.36828 0.0
C2341 C 0.01331 0.79172 0.36931 0.0
H2342 H 0.04258 0.76508 0.39942 0.0
C2343 C 0.02054 0.78528 0.35142 0.0
C2344 C 0.0365 0.77251 0.35092 0.0
H2345 H 0.00275 0.80347 0.36932 0.0
H2346 H 0.01537 0.7922 0.33819 0.0
C2347 C 0.04252 0.76338 0.36827 0.0
C2348 C 0.44742 0.2639 0.61962 0.0
C2349 C 0.45325 0.27327 0.6369 0.0
H2350 H 0.44711 0.26551 0.58847 0.0
C2351 C 0.46882 0.28652 0.63627 0.0
H2352 H 0.43569 0.25332 0.61972 0.0
C2353 C 0.47572 0.29314 0.61831 0.0
C2354 C 0.46669 0.28686 0.60101 0.0
H2355 H 0.47385 0.29364 0.64945 0.0
H2356 H 0.48591 0.30521 0.61821 0.0
C2357 C 0.45395 0.27087 0.60166 0.0
C2358 C 0.96877 0.6996 0.85012 0.0
C2359 C 0.95329 0.71296 0.84938 0.0
H2360 H 0.98586 0.68109 0.86837 0.0
C2361 C 0.94764 0.72264 0.86655 0.0
H2362 H 0.97367 0.69225 0.83702 0.0
C2363 C 0.95426 0.71592 0.88458 0.0
C2364 C 0.9669 0.69986 0.88541 0.0
H2365 H 0.93599 0.73331 0.86637 0.0
H2366 H 0.94756 0.72155 0.89773 0.0
C2367 C 0.97575 0.69323 0.86814 0.0
C2368 C 0.02004 0.7024 0.13622 0.0
C2369 C 0.03575 0.71549 0.13654 0.0
H2370 H 0.00263 0.68357 0.1186 0.0
C2371 C 0.04169 0.72437 0.11904 0.0
H2372 H 0.01494 0.69564 0.14957 0.0
C2373 C 0.03499 0.71711 0.10125 0.0
C2374 C 0.02199 0.70133 0.10096 0.0
H2375 H 0.05355 0.7348 0.11888 0.0
H2376 H 0.04185 0.72213 0.08792 0.0
C2377 C 0.01299 0.6955 0.11842 0.0
C2378 C 0.47397 0.79156 0.11911 0.0
C2379 C 0.46474 0.78537 0.10188 0.0
H2380 H 0.47214 0.79252 0.15024 0.0
C2381 C 0.45149 0.76982 0.10274 0.0
H2382 H 0.48456 0.80329 0.11885 0.0
C2383 C 0.44472 0.7633 0.12079 0.0
C2384 C 0.45087 0.77269 0.13795 0.0
H2385 H 0.44447 0.7645 0.08961 0.0
H2386 H 0.43265 0.75311 0.12101 0.0
C2387 C 0.46686 0.78541 0.13715 0.0
C2388 C 0.46684 0.20371 0.85123 0.0
C2389 C 0.45084 0.21645 0.85098 0.0
H2390 H 0.48484 0.18542 0.8688 0.0
C2391 C 0.44489 0.22535 0.86846 0.0
H2392 H 0.47193 0.19696 0.83788 0.0
C2393 C 0.45194 0.2184 0.88623 0.0
C2394 C 0.46527 0.20289 0.88651 0.0
H2395 H 0.4328 0.23552 0.86866 0.0
H2396 H 0.4451 0.22335 0.89959 0.0
C2397 C 0.47423 0.19713 0.86899 0.0
C2398 C 0.52117 0.28491 0.35165 0.0
C2399 C 0.53707 0.27205 0.35135 0.0
H2400 H 0.5035 0.3035 0.36926 0.0
C2401 C 0.54307 0.2632 0.36884 0.0
H2402 H 0.51601 0.29162 0.33831 0.0
C2403 C 0.53626 0.27035 0.38663 0.0
C2404 C 0.52309 0.286 0.38691 0.0
H2405 H 0.55508 0.25293 0.36901 0.0
H2406 H 0.54317 0.26542 0.39996 0.0
C2407 C 0.514 0.2917 0.36944 0.0
C2408 C 0.11923 0.04051 0.72398 0.0
C2409 C 0.1365 0.03472 0.71456 0.0
H2410 H 0.08809 0.04093 0.72235 0.0
C2411 C 0.13583 0.01926 0.70118 0.0
H2412 H 0.11935 0.05214 0.73468 0.0
C2413 C 0.11785 0.01248 0.69448 0.0
C2414 C 0.10058 0.02152 0.70082 0.0
H2415 H 0.14899 0.01425 0.69403 0.0
H2416 H 0.11773 0.00241 0.6823 0.0
C2417 C 0.10126 0.03409 0.71693 0.0
C2418 C 0.70072 0.85285 0.96815 0.0
C2419 C 0.71425 0.85235 0.95281 0.0
H2420 H 0.68151 0.87071 0.98487 0.0
C2421 C 0.72347 0.86975 0.94708 0.0
H2422 H 0.6937 0.83959 0.9731 0.0
C2423 C 0.71615 0.88763 0.95344 0.0
C2424 C 0.69997 0.88811 0.96594 0.0
H2425 H 0.73425 0.86976 0.93553 0.0
H2426 H 0.72146 0.90088 0.94667 0.0
C2427 C 0.69375 0.87074 0.97488 0.0
C2428 C 0.85233 0.46776 0.20267 0.0
C2429 C 0.85151 0.45195 0.21562 0.0
H2430 H 0.87058 0.48494 0.18425 0.0
C2431 C 0.86872 0.4457 0.22482 0.0
H2432 H 0.8392 0.47312 0.19569 0.0
C2433 C 0.88675 0.4521 0.21792 0.0
C2434 C 0.88755 0.46512 0.20217 0.0
H2435 H 0.86849 0.43377 0.23519 0.0
H2436 H 0.89986 0.44496 0.22312 0.0
C2437 C 0.87036 0.47452 0.19613 0.0
C2438 C 0.26328 0.6183 0.4456 0.0
C2439 C 0.27212 0.63573 0.45177 0.0
H2440 H 0.26557 0.58719 0.44509 0.0
C2441 C 0.28513 0.63526 0.46755 0.0
H2442 H 0.25291 0.61826 0.43368 0.0
C2443 C 0.29203 0.6174 0.47442 0.0
C2444 C 0.28628 0.60003 0.46516 0.0
H2445 H 0.29185 0.64856 0.47282 0.0
H2446 H 0.30391 0.61748 0.48483 0.0
C2447 C 0.27054 0.60044 0.45212 0.0
C2448 C 0.1023 0.95234 0.27054 0.0
C2449 C 0.10126 0.96534 0.28629 0.0
H2450 H 0.12081 0.93399 0.25356 0.0
C2451 C 0.11837 0.97465 0.29268 0.0
H2452 H 0.08926 0.94527 0.26508 0.0
C2453 C 0.1365 0.96783 0.28646 0.0
C2454 C 0.1375 0.95207 0.27347 0.0
H2455 H 0.11797 0.98505 0.30457 0.0
H2456 H 0.14951 0.97313 0.29369 0.0
C2457 C 0.12043 0.94589 0.26395 0.0
C2458 C 0.78463 0.8521 0.52122 0.0
C2459 C 0.77174 0.8516 0.53709 0.0
H2460 H 0.80304 0.86998 0.50364 0.0
C2461 C 0.76269 0.86897 0.54315 0.0
H2462 H 0.79149 0.83885 0.51602 0.0
C2463 C 0.76964 0.88686 0.53641 0.0
C2464 C 0.78531 0.88737 0.52327 0.0
H2465 H 0.75239 0.86897 0.55513 0.0
H2466 H 0.76454 0.90011 0.54335 0.0
C2467 C 0.79123 0.86999 0.51413 0.0
C2468 C 0.8673 0.54005 0.76422 0.0
C2469 C 0.84991 0.53453 0.77356 0.0
H2470 H 0.89845 0.53986 0.76588 0.0
C2471 C 0.85028 0.51909 0.78697 0.0
H2472 H 0.86741 0.55169 0.75354 0.0
C2473 C 0.86811 0.51195 0.79367 0.0
C2474 C 0.88557 0.52062 0.78733 0.0
H2475 H 0.837 0.51431 0.79409 0.0
H2476 H 0.86803 0.50185 0.80582 0.0
C2477 C 0.88514 0.53328 0.77128 0.0
C2478 C 0.20121 0.63598 0.02045 0.0
C2479 C 0.21442 0.63665 0.03606 0.0
H2480 H 0.18255 0.61789 0.00335 0.0
C2481 C 0.22371 0.61936 0.042 0.0
H2482 H 0.19415 0.64916 0.01534 0.0
C2483 C 0.21673 0.60139 0.0355 0.0
C2484 C 0.20081 0.60072 0.02268 0.0
H2485 H 0.23426 0.61948 0.05377 0.0
H2486 H 0.22207 0.58821 0.04239 0.0
C2487 C 0.19458 0.61801 0.01359 0.0
C2488 C 0.225 0.36811 0.94564 0.0
C2489 C 0.21607 0.35071 0.95179 0.0
H2490 H 0.22293 0.39924 0.94532 0.0
C2491 C 0.20326 0.35119 0.96773 0.0
H2492 H 0.23523 0.36813 0.9336 0.0
C2493 C 0.19659 0.36906 0.97478 0.0
C2494 C 0.20234 0.38644 0.96554 0.0
H2495 H 0.1965 0.33791 0.97299 0.0
H2496 H 0.18482 0.36901 0.98532 0.0
C2497 C 0.21796 0.38598 0.95234 0.0
C2498 C 0.36942 0.97595 0.19281 0.0
C2499 C 0.38672 0.96709 0.19934 0.0
H2500 H 0.33829 0.97413 0.19239 0.0
C2501 C 0.38606 0.95475 0.21563 0.0
H2502 H 0.36954 0.98582 0.18047 0.0
C2503 C 0.3681 0.94844 0.22279 0.0
C2504 C 0.35081 0.95406 0.2133 0.0
H2505 H 0.39925 0.94805 0.22118 0.0
H2506 H 0.368 0.937 0.23369 0.0
C2507 C 0.35146 0.96926 0.19963 0.0
C2508 C 0.78587 0.13651 0.46768 0.0
C2509 C 0.77295 0.13737 0.45185 0.0
H2510 H 0.80418 0.11819 0.4849 0.0
C2511 C 0.76366 0.12019 0.44561 0.0
H2512 H 0.79291 0.14961 0.47302 0.0
C2513 C 0.77047 0.10213 0.45205 0.0
C2514 C 0.78621 0.10128 0.46508 0.0
H2515 H 0.75331 0.12046 0.43367 0.0
H2516 H 0.76521 0.08904 0.44492 0.0
C2517 C 0.79231 0.11845 0.47447 0.0
C2518 C 0.61752 0.51282 0.69584 0.0
C2519 C 0.60032 0.52212 0.70199 0.0
H2520 H 0.64866 0.51438 0.69525 0.0
C2521 C 0.60112 0.53507 0.7178 0.0
H2522 H 0.61729 0.50245 0.68391 0.0
C2523 C 0.61915 0.54152 0.72466 0.0
C2524 C 0.63635 0.5354 0.71534 0.0
H2525 H 0.588 0.54212 0.72308 0.0
H2526 H 0.61937 0.55341 0.73507 0.0
C2527 C 0.63555 0.51964 0.70233 0.0
C2528 C 0.53566 0.71799 0.60185 0.0
C2529 C 0.5226 0.70228 0.60108 0.0
H2530 H 0.55413 0.73515 0.62007 0.0
C2531 C 0.51325 0.69623 0.6183 0.0
H2532 H 0.54275 0.7232 0.58872 0.0
C2533 C 0.52012 0.70271 0.63632 0.0
C2534 C 0.53598 0.7156 0.63709 0.0
H2535 H 0.50279 0.68439 0.6181 0.0
H2536 H 0.5148 0.6957 0.64945 0.0
C2537 C 0.54217 0.72484 0.61987 0.0
C2538 C 0.036 0.26954 0.88636 0.0
C2539 C 0.02296 0.28528 0.88709 0.0
H2540 H 0.05452 0.25235 0.86822 0.0
C2541 C 0.01374 0.2914 0.86982 0.0
H2542 H 0.04299 0.26429 0.89953 0.0
C2543 C 0.0207 0.28493 0.85183 0.0
C2544 C 0.03651 0.27198 0.85112 0.0
H2545 H 0.00332 0.30327 0.86998 0.0
H2546 H 0.01547 0.29196 0.83868 0.0
C2547 C 0.04259 0.26271 0.86837 0.0
C2548 C 0.94735 0.22447 0.36865 0.0
C2549 C 0.95329 0.21525 0.35133 0.0
H2550 H 0.94687 0.22261 0.39979 0.0
C2551 C 0.96888 0.20203 0.35194 0.0
H2552 H 0.93559 0.23503 0.36858 0.0
C2553 C 0.9757 0.19528 0.36988 0.0
C2554 C 0.96657 0.2014 0.38718 0.0
H2555 H 0.974 0.19503 0.33873 0.0
H2556 H 0.98591 0.18322 0.36994 0.0
C2557 C 0.9538 0.21736 0.38659 0.0
C2558 C 0.04379 0.2254 0.6195 0.0
C2559 C 0.03754 0.21639 0.63683 0.0
H2560 H 0.04411 0.22358 0.58837 0.0
C2561 C 0.02145 0.20378 0.63624 0.0
H2562 H 0.05594 0.2355 0.61957 0.0
C2563 C 0.01433 0.19732 0.61831 0.0
C2564 C 0.02367 0.2031 0.60099 0.0
H2565 H 0.0161 0.19697 0.64946 0.0
H2566 H 0.00366 0.18567 0.61826 0.0
C2567 C 0.03702 0.21858 0.60157 0.0
C2568 C 0.46681 0.70322 0.35233 0.0
C2569 C 0.45094 0.71612 0.3521 0.0
H2570 H 0.48443 0.68449 0.36983 0.0
C2571 C 0.44496 0.72489 0.36964 0.0
H2572 H 0.47196 0.69658 0.33895 0.0
C2573 C 0.45175 0.71763 0.38738 0.0
C2574 C 0.46488 0.70195 0.38758 0.0
H2575 H 0.43298 0.73519 0.36986 0.0
H2576 H 0.44486 0.72251 0.40074 0.0
C2577 C 0.47396 0.69631 0.37008 0.0
C2578 C 0.54329 0.7625 0.86956 0.0
C2579 C 0.53723 0.77111 0.85197 0.0
H2580 H 0.54328 0.76499 0.90065 0.0
C2581 C 0.52124 0.78386 0.85212 0.0
H2582 H 0.55539 0.75233 0.86984 0.0
C2583 C 0.51397 0.79075 0.86983 0.0
C2584 C 0.52304 0.78526 0.88737 0.0
H2585 H 0.51606 0.79041 0.8387 0.0
H2586 H 0.50337 0.80246 0.86952 0.0
C2587 C 0.53637 0.76974 0.88726 0.0
C2588 C 0.61857 0.47444 0.29153 0.0
C2589 C 0.60122 0.46528 0.28558 0.0
H2590 H 0.6497 0.47258 0.29184 0.0
C2591 C 0.60176 0.45219 0.26987 0.0
H2592 H 0.61855 0.4849 0.30337 0.0
C2593 C 0.61966 0.44548 0.26292 0.0
C2594 C 0.63701 0.45153 0.27203 0.0
H2595 H 0.58852 0.44524 0.26475 0.0
H2596 H 0.61967 0.43352 0.25261 0.0
C2597 C 0.63647 0.46739 0.28493 0.0
C2598 C 0.28508 0.35138 0.52079 0.0
C2599 C 0.27227 0.35061 0.53671 0.0
H2600 H 0.30337 0.36958 0.50341 0.0
C2601 C 0.26309 0.36785 0.54297 0.0
H2602 H 0.29203 0.33824 0.51543 0.0
C2603 C 0.26994 0.38586 0.53645 0.0
C2604 C 0.28561 0.38661 0.52332 0.0
H2605 H 0.25283 0.36765 0.55498 0.0
H2606 H 0.26479 0.39899 0.54358 0.0
C2607 C 0.29157 0.3694 0.51392 0.0
C2608 C 0.38618 0.03798 0.76939 0.0
C2609 C 0.38719 0.02465 0.78487 0.0
H2610 H 0.36765 0.05646 0.75258 0.0
C2611 C 0.37012 0.01498 0.79082 0.0
H2612 H 0.39919 0.04533 0.76426 0.0
C2613 C 0.35198 0.02168 0.7845 0.0
C2614 C 0.35094 0.03772 0.77185 0.0
H2615 H 0.3705 0.00431 0.80247 0.0
H2616 H 0.33895 0.01605 0.79143 0.0
C2617 C 0.36805 0.04434 0.7627 0.0
C2618 C 0.70281 0.13726 0.0203 0.0
C2619 C 0.71577 0.13774 0.03611 0.0
H2620 H 0.6842 0.11943 0.00287 0.0
C2621 C 0.7248 0.12034 0.04213 0.0
H2622 H 0.69596 0.15053 0.01512 0.0
C2623 C 0.71771 0.10247 0.03548 0.0
C2624 C 0.70196 0.10201 0.02245 0.0
H2625 H 0.73515 0.12032 0.05406 0.0
H2626 H 0.72279 0.08921 0.04243 0.0
C2627 C 0.69608 0.11938 0.01329 0.0
C2628 C 0.95018 0.26997 0.1011 0.0
C2629 C 0.96369 0.28532 0.10065 0.0
H2630 H 0.93126 0.25291 0.11895 0.0
C2631 C 0.97313 0.29081 0.118 0.0
H2632 H 0.94298 0.26521 0.08785 0.0
C2633 C 0.96609 0.28413 0.13588 0.0
C2634 C 0.94995 0.27158 0.13639 0.0
H2635 H 0.9839 0.30237 0.11804 0.0
H2636 H 0.97159 0.29069 0.14916 0.0
C2637 C 0.94348 0.26292 0.11897 0.0
C2638 C 0.96751 0.78661 0.63612 0.0
C2639 C 0.95194 0.77335 0.63646 0.0
H2640 H 0.9847 0.80559 0.61846 0.0
C2641 C 0.94617 0.76429 0.619 0.0
H2642 H 0.97249 0.79349 0.64945 0.0
C2643 C 0.95281 0.77155 0.60119 0.0
C2644 C 0.96558 0.78752 0.60086 0.0
H2645 H 0.93443 0.75371 0.61886 0.0
H2646 H 0.94604 0.76639 0.58787 0.0
C2647 C 0.9745 0.79352 0.61831 0.0
C2648 C 0.60051 0.94996 0.76907 0.0
C2649 C 0.59974 0.96346 0.78442 0.0
H2650 H 0.61879 0.93125 0.75224 0.0
C2651 C 0.61689 0.97321 0.79 0.0
H2652 H 0.58742 0.94255 0.76422 0.0
C2653 C 0.63492 0.96641 0.7835 0.0
C2654 C 0.63578 0.95021 0.77106 0.0
H2655 H 0.61667 0.98401 0.80153 0.0
H2656 H 0.64806 0.97211 0.79019 0.0
C2657 C 0.61854 0.94351 0.76221 0.0
C2658 C 0.28473 0.85092 0.02078 0.0
C2659 C 0.27185 0.85091 0.03667 0.0
H2660 H 0.30341 0.86817 0.00285 0.0
C2661 C 0.2631 0.86853 0.04242 0.0
H2662 H 0.29138 0.83746 0.01583 0.0
C2663 C 0.27033 0.88618 0.03533 0.0
C2664 C 0.28597 0.8862 0.02216 0.0
H2665 H 0.25283 0.86892 0.05442 0.0
H2666 H 0.26546 0.89964 0.04204 0.0
C2667 C 0.29161 0.86856 0.01335 0.0
C2668 C 0.36886 0.54301 0.26303 0.0
C2669 C 0.35148 0.53693 0.27204 0.0
H2670 H 0.39999 0.54326 0.26497 0.0
C2671 C 0.35197 0.52105 0.28491 0.0
H2672 H 0.36888 0.55501 0.25275 0.0
C2673 C 0.36985 0.51397 0.29155 0.0
C2674 C 0.38722 0.52313 0.28568 0.0
H2675 H 0.33871 0.51583 0.29174 0.0
H2676 H 0.36982 0.50347 0.30336 0.0
C2677 C 0.38674 0.53629 0.27003 0.0
C2678 C 0.70325 0.6361 0.52092 0.0
C2679 C 0.71609 0.63683 0.53682 0.0
H2680 H 0.68484 0.61798 0.5036 0.0
C2681 C 0.72515 0.61955 0.54312 0.0
H2682 H 0.69638 0.64927 0.51554 0.0
C2683 C 0.71818 0.60156 0.53666 0.0
C2684 C 0.70251 0.60087 0.52353 0.0
H2685 H 0.73542 0.61971 0.55513 0.0
H2686 H 0.72324 0.58842 0.54383 0.0
C2687 C 0.69665 0.61811 0.5141 0.0
C2688 C 0.98507 0.48953 0.17814 0.0
C2689 C 0.97563 0.48585 0.16036 0.0
H2690 H 0.0108 0.50052 0.19211 0.0
C2691 C 0.98529 0.48969 0.14275 0.0
H2692 H 0.97788 0.48651 0.19187 0.0
C2693 C 0.00424 0.49696 0.14289 0.0
C2694 C 0.01359 0.50097 0.16064 0.0
H2695 H 0.97836 0.48668 0.12888 0.0
H2696 H 0.01139 0.49991 0.12911 0.0
C2697 C 0.00386 0.49737 0.17827 0.0
C2698 C 0.74158 0.25421 0.42754 0.0
C2699 C 0.73811 0.26386 0.40983 0.0
H2700 H 0.75217 0.22823 0.44136 0.0
C2701 C 0.74211 0.25436 0.39217 0.0
H2702 H 0.73844 0.26127 0.44132 0.0
C2703 C 0.74922 0.23535 0.39218 0.0
C2704 C 0.75292 0.22576 0.40986 0.0
H2705 H 0.73927 0.26145 0.37833 0.0
H2706 H 0.75222 0.2283 0.37836 0.0
C2707 C 0.74926 0.23536 0.42756 0.0
C2708 C 0.98307 0.99214 0.64167 0.0
C2709 C 0.9737 0.9882 0.65941 0.0
H2710 H 0.00914 0.00197 0.62766 0.0
C2711 C 0.98355 0.99148 0.67704 0.0
H2712 H 0.97583 0.98944 0.62789 0.0
C2713 C 0.0025 -0.0011 0.67691 0.0
C2714 C 0.01198 0.0025 0.65914 0.0
H2715 H 0.97659 0.98837 0.69088 0.0
H2716 H 0.00979 0.00167 0.69065 0.0
C2717 C 0.00218 -0.001 0.64153 0.0
C2718 C 0.24034 0.2526 0.89266 0.0
C2719 C 0.23665 0.2624 0.91023 0.0
H2720 H 0.2501 0.22627 0.87912 0.0
C2721 C 0.24015 0.25294 0.92804 0.0
H2722 H 0.23745 0.25954 0.87876 0.0
C2723 C 0.24765 0.23402 0.92824 0.0
C2724 C 0.25109 0.22416 0.91065 0.0
H2725 H 0.23724 0.26024 0.94175 0.0
H2726 H 0.25068 0.22707 0.94211 0.0
C2727 C 0.24726 0.23352 0.89287 0.0
C2728 C 0.00269 0.48871 0.81142 0.0
C2729 C 0.01237 0.48537 0.82913 0.0
H2730 H 0.97656 0.49891 0.79759 0.0
C2731 C 0.00274 0.48903 0.84679 0.0
H2732 H 0.00985 0.4858 0.79763 0.0
C2733 C 0.98358 0.49577 0.84677 0.0
C2734 C 0.97399 0.49943 0.82908 0.0
H2735 H 0.00985 0.48627 0.86063 0.0
H2736 H 0.97646 0.4986 0.86059 0.0
C2737 C 0.98369 0.49601 0.81139 0.0
C2738 C 0.74726 0.25455 0.06034 0.0
C2739 C 0.75044 0.2644 0.07799 0.0
H2740 H 0.7372 0.22828 0.04667 0.0
C2741 C 0.74654 0.25496 0.09571 0.0
H2742 H 0.75035 0.26156 0.04652 0.0
C2743 C 0.73979 0.23581 0.09581 0.0
C2744 C 0.73636 0.22603 0.07817 0.0
H2745 H 0.74919 0.2622 0.10951 0.0
H2746 H 0.73683 0.22881 0.10966 0.0
C2747 C 0.73993 0.23556 0.06043 0.0
C2748 C 0.98446 -0.0023 0.31007 0.0
C2749 C 0.97477 0.00116 0.32776 0.0
H2750 H 0.01041 0.98699 0.29631 0.0
C2751 C 0.98418 -0.00294 0.34545 0.0
H2752 H 0.97746 0.00093 0.29628 0.0
C2753 C 0.00315 0.98983 0.34547 0.0
C2754 C 0.01276 0.98612 0.32781 0.0
H2755 H 0.97706 -0.00011 0.35927 0.0
H2756 H 0.01012 0.98673 0.35931 0.0
C2757 C 0.00326 0.98991 0.31009 0.0
C2758 C 0.2424 0.23329 0.5965 0.0
C2759 C 0.23842 0.2238 0.57883 0.0
H2760 H 0.2523 0.25944 0.61032 0.0
C2761 C 0.2417 0.23353 0.56113 0.0
H2762 H 0.23969 0.22614 0.61033 0.0
C2763 C 0.24917 0.25246 0.56112 0.0
C2764 C 0.2528 0.26206 0.57882 0.0
H2765 H 0.23857 0.22647 0.54734 0.0
H2766 H 0.25193 0.25966 0.54733 0.0
C2767 C 0.2493 0.25239 0.5965 0.0
C2768 C 0.1768 0.00358 0.49699 0.0
C2769 C 0.15912 0.01329 0.50041 0.0
H2770 H 0.19054 0.97748 0.48661 0.0
C2771 C 0.14143 0.00379 0.49657 0.0
H2772 H 0.1906 0.01065 0.50002 0.0
C2773 C 0.14139 0.98469 0.48965 0.0
C2774 C 0.15905 0.97505 0.48599 0.0
H2775 H 0.12762 0.01093 0.49938 0.0
H2776 H 0.12755 0.97764 0.48675 0.0
C2777 C 0.17677 0.98465 0.4895 0.0
C2778 C 0.25345 0.42698 0.74061 0.0
C2779 C 0.26295 0.40921 0.73708 0.0
H2780 H 0.22756 0.44096 0.75122 0.0
C2781 C 0.25326 0.3916 0.74085 0.0
H2782 H 0.26066 0.44072 0.73764 0.0
C2783 C 0.23421 0.39174 0.74786 0.0
C2784 C 0.22479 0.40949 0.75169 0.0
H2785 H 0.26024 0.37773 0.73794 0.0
H2786 H 0.22702 0.37797 0.75074 0.0
C2787 C 0.23456 0.42712 0.7482 0.0
C2788 C 0.81052 0.48601 -0.00152 0.0
C2789 C 0.82834 0.47654 0.00187 0.0
H2790 H 0.7964 0.51187 0.98799 0.0
C2791 C 0.84589 0.48631 -0.00195 0.0
H2792 H 0.79683 0.47873 0.0015 0.0
C2793 C 0.84565 0.50538 0.99108 0.0
C2794 C 0.82786 0.51475 0.98735 0.0
H2795 H 0.85981 0.47937 0.00084 0.0
H2796 H 0.85939 0.51261 0.98813 0.0
C2797 C 0.81028 0.50492 0.99094 0.0
C2798 C 0.75386 0.0615 0.2479 0.0
C2799 C 0.76348 0.07922 0.25136 0.0
H2800 H 0.72792 0.04763 0.2373 0.0
C2801 C 0.75391 0.09687 0.24746 0.0
H2802 H 0.76098 0.04773 0.25097 0.0
C2803 C 0.73488 0.09682 0.24039 0.0
C2804 C 0.72536 0.07911 0.23663 0.0
H2805 H 0.76097 0.11072 0.2503 0.0
H2806 H 0.7278 0.11063 0.23741 0.0
C2807 C 0.735 0.06144 0.24026 0.0
C2808 C 0.49822 0.17814 0.00322 0.0
C2809 C 0.50168 0.16042 0.01284 0.0
H2810 H 0.48802 0.19199 0.9771 0.0
C2811 C 0.49829 0.14276 0.00309 0.0
H2812 H 0.50092 0.19192 0.01048 0.0
C2813 C 0.49169 0.14281 0.98388 0.0
C2814 C 0.4879 0.16051 0.97436 0.0
H2815 H 0.50117 0.12892 0.01015 0.0
H2816 H 0.48907 0.129 0.97666 0.0
C2817 C 0.49104 0.17818 0.98418 0.0
C2818 C 0.98976 0.81144 0.50336 0.0
C2819 C 0.98629 0.82927 0.51279 0.0
H2820 H 0.0002 0.79731 0.47749 0.0
C2821 C 0.99003 0.84682 0.50298 0.0
H2822 H 0.9868 0.79774 0.51066 0.0
C2823 C -0.00305 0.84657 0.48389 0.0
C2824 C 0.0007 0.82877 0.47454 0.0
H2825 H 0.98718 0.86074 0.5099 0.0
H2826 H -0.00019 0.86031 0.47662 0.0
C2827 C -0.00276 0.81119 0.48443 0.0
C2828 C 0.42727 0.24077 0.75352 0.0
C2829 C 0.40941 0.23753 0.76296 0.0
H2830 H 0.44151 0.25102 0.72763 0.0
C2831 C 0.3919 0.24148 0.75317 0.0
H2832 H 0.44093 0.23765 0.76081 0.0
C2833 C 0.39223 0.24836 0.73406 0.0
C2834 C 0.41007 0.25187 0.7247 0.0
H2835 H 0.37796 0.2388 0.7601 0.0
H2836 H 0.37853 0.25137 0.72679 0.0
C2837 C 0.4276 0.24823 0.73458 0.0
C2838 C -0.00243 0.67647 0.00306 0.0
C2839 C 0.00054 0.65883 0.01299 0.0
H2840 H 0.98772 0.69015 0.97672 0.0
C2841 C -0.00353 0.64112 0.00361 0.0
H2842 H 0.00079 0.69029 0.01003 0.0
C2843 C 0.98976 0.64102 0.98444 0.0
C2844 C 0.98653 0.65865 0.97458 0.0
H2845 H -0.00105 0.62732 0.01091 0.0
H2846 H 0.98666 0.62717 0.9775 0.0
C2847 C 0.99029 0.67639 0.98406 0.0
C2848 C 0.09604 0.74883 0.25298 0.0
C2849 C 0.07844 0.75257 0.26269 0.0
H2850 H 0.10968 0.73902 0.22671 0.0
C2851 C 0.06067 0.74917 0.25314 0.0
H2852 H 0.10992 0.75164 0.25999 0.0
C2853 C 0.06053 0.74168 0.23421 0.0
C2854 C 0.07816 0.73817 0.22443 0.0
H2855 H 0.04694 0.75213 0.26036 0.0
H2856 H 0.04669 0.73872 0.22719 0.0
C2857 C 0.0959 0.74192 0.23389 0.0
C2858 C 0.48999 0.80966 0.00361 0.0
C2859 C 0.48616 0.8273 0.01323 0.0
H2860 H 0.50065 0.79605 0.97755 0.0
C2861 C 0.48941 0.84503 0.00357 0.0
H2862 H 0.4874 0.79583 0.01079 0.0
C2863 C 0.49622 0.84514 0.98444 0.0
C2864 C 0.50037 0.82753 0.9749 0.0
H2865 H 0.48625 0.85881 0.01063 0.0
H2866 H 0.49871 0.85901 0.97729 0.0
C2867 C 0.49738 0.80978 0.98464 0.0
C2868 C 0.59642 0.24023 0.23444 0.0
C2869 C 0.57867 0.2365 0.22498 0.0
H2870 H 0.61043 0.24992 0.26056 0.0
C2871 C 0.56105 0.23988 0.2348 0.0
H2872 H 0.61019 0.23744 0.22722 0.0
C2873 C 0.56118 0.24726 0.25376 0.0
C2874 C 0.57895 0.25073 0.2633 0.0
H2875 H 0.54721 0.23692 0.22777 0.0
H2876 H 0.54744 0.25017 0.26101 0.0
C2877 C 0.59656 0.24706 0.25356 0.0
C2878 C 0.74138 0.75485 0.92713 0.0
C2879 C 0.73788 0.76486 0.90963 0.0
H2880 H 0.75185 0.72854 0.94038 0.0
C2881 C 0.74176 0.75569 0.89176 0.0
H2882 H 0.73832 0.76165 0.94106 0.0
C2883 C 0.74875 0.73663 0.89137 0.0
C2884 C 0.75244 0.72668 0.90884 0.0
H2885 H 0.73889 0.76306 0.87808 0.0
H2886 H 0.75164 0.72983 0.8774 0.0
C2887 C 0.74893 0.73596 0.92674 0.0
C2888 C 0.23946 0.75274 0.42815 0.0
C2889 C 0.23616 0.76255 0.4105 0.0
H2890 H 0.24968 0.72652 0.44181 0.0
C2891 C 0.2399 0.75305 0.39278 0.0
H2892 H 0.2365 0.75979 0.44198 0.0
C2893 C 0.24667 0.73391 0.39268 0.0
C2894 C 0.25029 0.72419 0.4103 0.0
H2895 H 0.23716 0.76026 0.37898 0.0
H2896 H 0.24954 0.72689 0.37881 0.0
C2897 C 0.24681 0.73375 0.42806 0.0
C2898 C 0.74713 0.75381 0.56134 0.0
C2899 C 0.75065 0.76341 0.57906 0.0
H2900 H 0.73667 0.7278 0.54748 0.0
C2901 C 0.74691 0.75378 0.59671 0.0
H2902 H 0.75008 0.76097 0.54756 0.0
C2903 C 0.73999 0.73469 0.59667 0.0
C2904 C 0.73622 0.72516 0.57896 0.0
H2905 H 0.7498 0.76083 0.61056 0.0
H2906 H 0.73716 0.72755 0.61048 0.0
C2907 C 0.73965 0.73488 0.56129 0.0
C2908 C 0.23941 0.73444 0.0963 0.0
C2909 C 0.23591 0.72493 0.07853 0.0
H2910 H 0.24896 0.76059 0.11037 0.0
C2911 C 0.23956 0.73468 0.06092 0.0
H2912 H 0.23641 0.72727 0.11006 0.0
C2913 C 0.24699 0.75363 0.0611 0.0
C2914 C 0.25023 0.76322 0.07889 0.0
H2915 H 0.23678 0.72762 0.04706 0.0
H2916 H 0.25011 0.76082 0.04738 0.0
C2917 C 0.24628 0.75355 0.09647 0.0
C2918 C 0.17717 0.48377 0.99097 0.0
C2919 C 0.15954 0.47395 0.98759 0.0
H2920 H 0.19078 0.50991 0.00146 0.0
C2921 C 0.14181 0.48331 0.99161 0.0
H2922 H 0.19101 0.47683 0.98781 0.0
C2923 C 0.14167 0.50235 -0.00133 0.0
C2924 C 0.15928 0.5121 0.00229 0.0
H2925 H 0.12803 0.47609 0.98883 0.0
H2926 H 0.1278 0.50927 0.00169 0.0
C2927 C 0.17704 0.50265 -0.0014 0.0
C2928 C 0.25436 0.89347 0.24146 0.0
C2929 C 0.26356 0.91125 0.23732 0.0
H2930 H 0.22864 0.87933 0.25199 0.0
C2931 C 0.25377 0.92884 0.24098 0.0
H2932 H 0.26156 0.87972 0.23849 0.0
C2933 C 0.23505 0.92862 0.24898 0.0
C2934 C 0.22574 0.9108 0.25278 0.0
H2935 H 0.26061 0.94271 0.23773 0.0
H2936 H 0.2278 0.94232 0.25203 0.0
C2937 C 0.23547 0.89324 0.2489 0.0
C2938 C 0.81017 0.00355 0.4893 0.0
C2939 C 0.82793 0.01309 0.48577 0.0
H2940 H 0.79625 0.97774 0.50016 0.0
C2941 C 0.84555 0.00352 0.48976 0.0
H2942 H 0.79643 0.01067 0.48616 0.0
C2943 C 0.84545 0.98457 0.49703 0.0
C2944 C 0.82772 0.97512 0.50089 0.0
H2945 H 0.85941 0.01052 0.48687 0.0
H2946 H 0.85924 0.97749 0.50009 0.0
C2947 C 0.81007 0.98476 0.49713 0.0
C2948 C 0.73398 0.55962 0.73979 0.0
C2949 C 0.72448 0.57735 0.73603 0.0
H2950 H 0.75984 0.54579 0.75063 0.0
C2951 C 0.73416 0.595 0.7396 0.0
H2952 H 0.72677 0.54585 0.73696 0.0
C2953 C 0.7532 0.59496 0.74665 0.0
C2954 C 0.76261 0.57726 0.75072 0.0
H2955 H 0.72719 0.60885 0.73652 0.0
H2956 H 0.76038 0.60877 0.74938 0.0
C2957 C 0.75285 0.55959 0.74741 0.0
C2958 C 0.49137 0.64186 0.48448 0.0
C2959 C 0.48734 0.65948 0.47492 0.0
H2960 H 0.50153 0.62817 0.51059 0.0
C2961 C 0.4908 0.67723 0.48449 0.0
H2962 H 0.48853 0.62799 0.47745 0.0
C2963 C 0.4985 0.67734 0.50333 0.0
C2964 C 0.50219 0.65969 0.513 0.0
H2965 H 0.48764 0.69098 0.47738 0.0
H2966 H 0.50142 0.69117 0.5104 0.0
C2967 C 0.4985 0.64196 0.50349 0.0
C2968 C 0.99009 0.3099 0.00356 0.0
C2969 C 0.98686 0.32763 0.01326 0.0
H2970 H 0.0006 0.29602 0.97757 0.0
C2971 C 0.99115 0.34526 0.00384 0.0
H2972 H 0.98672 0.29614 0.01056 0.0
C2973 C -0.00166 0.34521 0.98485 0.0
C2974 C 0.00182 0.32751 0.97522 0.0
H2975 H 0.9885 0.35912 0.01097 0.0
H2976 H 0.00158 0.35901 0.97787 0.0
C2977 C -0.00215 0.30983 0.98474 0.0
C2978 C 0.42642 0.74973 0.23592 0.0
C2979 C 0.40872 0.75339 0.22634 0.0
H2980 H 0.44021 0.73888 0.2618 0.0
C2981 C 0.39104 0.7497 0.23594 0.0
H2982 H 0.44021 0.75263 0.22878 0.0
C2983 C 0.39105 0.74257 0.25495 0.0
C2984 C 0.40872 0.73855 0.26442 0.0
H2985 H 0.37722 0.7527 0.22891 0.0
H2986 H 0.37722 0.73971 0.26205 0.0
C2987 C 0.42642 0.74204 0.25477 0.0
C2988 C 0.9902 0.17748 0.4848 0.0
C2989 C 0.98676 0.15967 0.47532 0.0
H2990 H 0.00079 0.19156 0.51064 0.0
C2991 C 0.99067 0.1421 0.48502 0.0
H2992 H 0.98712 0.19119 0.47758 0.0
C2993 C -0.00225 0.14231 0.50405 0.0
C2994 C 0.00149 0.16009 0.51344 0.0
H2995 H 0.98785 0.1282 0.47806 0.0
H2996 H 0.00074 0.12856 0.51124 0.0
C2997 C -0.00216 0.17769 0.50366 0.0
C2998 C 0.06155 0.24001 0.73452 0.0
C2999 C 0.07932 0.23639 0.72504 0.0
H3000 H 0.04757 0.25077 0.76034 0.0
C3001 C 0.09692 0.24021 0.73472 0.0
H3002 H 0.04781 0.23701 0.72732 0.0
C3003 C 0.09678 0.24736 0.75373 0.0
C3004 C 0.07904 0.25125 0.76312 0.0
H3005 H 0.1108 0.23725 0.72777 0.0
H3006 H 0.11056 0.25026 0.7609 0.0
C3007 C 0.06141 0.2477 0.75336 0.0
C3008 C 0.49002 0.31117 0.50306 0.0
C3009 C 0.48646 0.3289 0.51263 0.0
H3010 H 0.50059 0.29731 0.4771 0.0
C3011 C 0.49011 0.34655 0.50297 0.0
H3012 H 0.48713 0.2974 0.51025 0.0
C3013 C 0.49706 0.34649 0.48389 0.0
C3014 C 0.50094 0.32879 0.47441 0.0
H3015 H 0.48719 0.3604 0.51 0.0
H3016 H 0.49987 0.3603 0.47673 0.0
C3017 C 0.49753 0.31112 0.48414 0.0
C3018 C 0.59642 0.7454 0.75423 0.0
C3019 C 0.57884 0.74934 0.7639 0.0
H3020 H 0.61001 0.73563 0.72792 0.0
C3021 C 0.56105 0.7461 0.7543 0.0
H3022 H 0.61031 0.74807 0.76127 0.0
C3023 C 0.56088 0.73872 0.73533 0.0
C3024 C 0.57849 0.73514 0.72556 0.0
H3025 H 0.54733 0.7492 0.76149 0.0
H3026 H 0.54702 0.73598 0.72825 0.0
C3027 C 0.59625 0.73859 0.7351 0.0
C3028 C 0.48396 0.49044 0.67778 0.0
C3029 C 0.47426 0.48687 0.66012 0.0
H3030 H 0.50995 0.50119 0.69144 0.0
C3031 C 0.48367 0.49081 0.6424 0.0
H3032 H 0.47696 0.48735 0.6916 0.0
C3033 C 0.50266 0.49798 0.6423 0.0
C3034 C 0.51229 0.50181 0.65993 0.0
H3035 H 0.47654 0.48788 0.6286 0.0
H3036 H 0.50965 0.50095 0.62844 0.0
C3037 C 0.50278 0.49819 0.67768 0.0
C3038 C 0.48526 0.99048 0.14086 0.0
C3039 C 0.47545 0.98671 0.1584 0.0
H3040 H 0.51153 0.00051 0.1274 0.0
C3041 C 0.4848 0.99033 0.17624 0.0
H3042 H 0.4784 0.98752 0.12694 0.0
C3043 C 0.50365 -0.00198 0.1765 0.0
C3044 C 0.51353 0.00155 0.15894 0.0
H3045 H 0.4775 0.98736 0.18993 0.0
H3046 H 0.51052 0.00112 0.19039 0.0
C3047 C 0.50427 -0.00238 0.14113 0.0
C3048 C 0.4848 0.4979 0.31015 0.0
C3049 C 0.47514 0.50133 0.32785 0.0
H3050 H 0.51081 0.48738 0.29634 0.0
C3051 C 0.48467 0.49744 0.34552 0.0
H3052 H 0.47771 0.50097 0.29636 0.0
C3053 C 0.50371 0.49042 0.34551 0.0
C3054 C 0.51329 0.48671 0.32783 0.0
H3055 H 0.47757 0.50026 0.35936 0.0
H3056 H 0.51077 0.48746 0.35934 0.0
C3057 C 0.50368 0.49031 0.31013 0.0
C3058 C 0.50319 0.99056 0.84449 0.0
C3059 C 0.51257 0.9863 0.82683 0.0
H3060 H 0.47746 0.00147 0.85829 0.0
C3061 C 0.50305 0.99004 0.80911 0.0
H3062 H 0.51019 0.98754 0.85834 0.0
C3063 C 0.48444 -0.00171 0.80909 0.0
C3064 C 0.47497 0.00227 0.82678 0.0
H3065 H 0.51003 0.98671 0.79534 0.0
H3066 H 0.47741 0.00143 0.79529 0.0
C3067 C 0.48441 -0.00175 0.84447 0.0
C3068 C 0.67621 0.98583 0.9893 0.0
C3069 C 0.65839 0.97643 0.98575 0.0
H3070 H 0.69033 0.01156 0.0001 0.0
C3071 C 0.64084 0.98617 0.98966 0.0
H3072 H 0.68991 0.97858 0.98623 0.0
C3073 C 0.64108 0.00515 -0.00313 0.0
C3074 C 0.65888 0.01446 0.00074 0.0
H3075 H 0.62692 0.97927 0.98676 0.0
H3076 H 0.62734 0.01236 -0.00013 0.0
C3077 C 0.67645 0.00465 -0.00294 0.0
C3078 C 0.73456 0.39208 0.24692 0.0
C3079 C 0.725 0.4097 0.25095 0.0
H3080 H 0.76068 0.37838 0.23683 0.0
C3081 C 0.73463 0.42745 0.24763 0.0
H3082 H 0.72749 0.37821 0.24965 0.0
C3083 C 0.75351 0.42755 0.24004 0.0
C3084 C 0.76315 0.4099 0.23631 0.0
H3085 H 0.72752 0.4412 0.2508 0.0
H3086 H 0.76061 0.44138 0.23721 0.0
C3087 C 0.7536 0.39217 0.23989 0.0
C3088 C 0.34596 0.48393 0.49841 0.0
C3089 C 0.32822 0.47449 0.5022 0.0
H3090 H 0.35996 0.50987 0.48823 0.0
C3091 C 0.31059 0.48414 0.49842 0.0
H3092 H 0.35974 0.47684 0.50149 0.0
C3093 C 0.31072 0.50292 0.49057 0.0
C3094 C 0.32848 0.51244 0.48703 0.0
H3095 H 0.29675 0.47712 0.50141 0.0
H3096 H 0.29698 0.51004 0.48737 0.0
C3097 C 0.34609 0.50288 0.49112 0.0
C3098 C 0.23387 0.06011 0.74066 0.0
C3099 C 0.22395 0.07766 0.73714 0.0
H3100 H 0.26001 0.04673 0.7514 0.0
C3101 C 0.23313 0.09548 0.74121 0.0
H3102 H 0.22706 0.04622 0.73747 0.0
C3103 C 0.25209 0.09578 0.74844 0.0
C3104 C 0.26194 0.07826 0.75219 0.0
H3105 H 0.22583 0.1092 0.73833 0.0
H3106 H 0.25888 0.10972 0.75148 0.0
C3107 C 0.25267 0.06041 0.74845 0.0
C3108 C 0.89225 0.24042 0.25422 0.0
C3109 C 0.9101 0.23673 0.26348 0.0
H3110 H 0.87791 0.25013 0.22828 0.0
C3111 C 0.92761 0.24024 0.25349 0.0
H3112 H 0.87856 0.23754 0.26156 0.0
C3113 C 0.92724 0.2477 0.23456 0.0
C3114 C 0.90936 0.25111 0.22522 0.0
H3115 H 0.94154 0.23731 0.26036 0.0
H3116 H 0.94089 0.25069 0.22718 0.0
C3117 C 0.89188 0.24732 0.23512 0.0
C3118 C 0.64202 0.50387 0.4983 0.0
C3119 C 0.65976 0.51325 0.50225 0.0
H3120 H 0.62801 0.47798 0.48801 0.0
C3121 C 0.67739 0.50352 0.49864 0.0
H3122 H 0.62824 0.51102 0.50125 0.0
C3123 C 0.67726 0.48474 0.4908 0.0
C3124 C 0.6595 0.47528 0.48711 0.0
H3125 H 0.69123 0.51049 0.50175 0.0
H3126 H 0.691 0.47757 0.48773 0.0
C3127 C 0.64189 0.48492 0.49102 0.0
C3128 C 0.7344 0.92666 0.74842 0.0
C3129 C 0.72488 0.90893 0.75213 0.0
H3130 H 0.76038 0.9405 0.7379 0.0
C3131 C 0.73467 0.89128 0.74882 0.0
H3132 H 0.72712 0.94043 0.75105 0.0
C3133 C 0.75381 0.89134 0.74204 0.0
C3134 C 0.76323 0.90903 0.738 0.0
H3135 H 0.72769 0.87744 0.75188 0.0
H3136 H 0.76105 0.87752 0.73948 0.0
C3137 C 0.75338 0.9267 0.74109 0.0
C3138 C 0.34715 0.98284 -0.00449 0.0
C3139 C 0.32934 0.97354 -0.00068 0.0
H3140 H 0.36136 0.00891 0.98596 0.0
C3141 C 0.31179 0.98355 -0.00393 0.0
H3142 H 0.36087 0.97548 -0.0018 0.0
C3143 C 0.31207 0.00256 0.98882 0.0
C3144 C 0.32991 0.01196 0.98537 0.0
H3145 H 0.2979 0.97665 -0.00091 0.0
H3146 H 0.29838 0.00997 0.98608 0.0
C3147 C 0.34744 0.00202 0.98882 0.0
C3148 C 0.23467 0.59711 0.24059 0.0
C3149 C 0.22496 0.57949 0.23692 0.0
H3150 H 0.261 0.61078 0.25018 0.0
C3151 C 0.23454 0.56173 0.2403 0.0
H3152 H 0.22763 0.61098 0.2378 0.0
C3153 C 0.25353 0.56161 0.24763 0.0
C3154 C 0.26331 0.57926 0.25104 0.0
H3155 H 0.22732 0.54798 0.2374 0.0
H3156 H 0.26058 0.54778 0.25055 0.0
C3157 C 0.25381 0.59699 0.24737 0.0
C3158 C 0.92802 0.7383 0.75207 0.0
C3159 C 0.9104 0.7345 0.76173 0.0
H3160 H 0.94159 0.74952 0.72622 0.0
C3161 C 0.89264 0.73832 0.75232 0.0
H3162 H 0.94186 0.7353 0.75906 0.0
C3163 C 0.89249 0.74571 0.73341 0.0
C3164 C 0.91009 0.74987 0.72386 0.0
H3165 H 0.87887 0.73521 0.75942 0.0
H3166 H 0.87861 0.74864 0.72647 0.0
C3167 C 0.92786 0.74626 0.73333 0.0
loop_
_geom_bond_atom_site_label_1
_geom_bond_atom_site_label_2
_geom_bond_distance
_geom_bond_site_symmetry_2
_ccdc_geom_bond_type
In0 O1 2.294 . S
In0 O2 2.326 . S
In0 O6 2.266 . S
In0 O7 2.326 . S
In0 O8 2.266 . S
In0 O9 2.326 . S
In0 O11 2.294 . S
In0 O12 2.326 . S
O1 In0 2.294 . S
O1 C10 1.240 . S
O2 In0 2.326 . S
O2 C10 1.252 . S
C3 O6 1.252 . S
C3 O7 1.260 . S
C4 O11 1.240 . S
C4 O12 1.252 . S
C5 O8 1.252 . S
C5 O9 1.260 . S
O6 In0 2.266 . S
O6 C3 1.252 . S
O7 In0 2.326 . S
O7 C3 1.260 . S
O8 In0 2.266 . S
O8 C5 1.252 . S
O9 In0 2.326 . S
O9 C5 1.260 . S
C10 O1 1.240 . S
C10 O2 1.252 . S
O11 In0 2.294 . S
O11 C4 1.240 . S
O12 In0 2.326 . S
O12 C4 1.252 . S
In13 O14 2.294 . S
In13 O15 2.326 . S
In13 O19 2.266 . S
In13 O20 2.326 . S
In13 O21 2.266 . S
In13 O22 2.326 . S
In13 O24 2.294 . S
In13 O25 2.326 . S
O14 In13 2.294 . S
O14 C23 1.240 . S
O15 In13 2.326 . S
O15 C23 1.252 . S
C16 O19 1.252 . S
C16 O20 1.260 . S
C17 O24 1.240 . S
C17 O25 1.252 . S
C18 O21 1.252 . S
C18 O22 1.260 . S
O19 In13 2.266 . S
O19 C16 1.252 . S
O20 In13 2.326 . S
O20 C16 1.260 . S
O21 In13 2.266 . S
O21 C18 1.252 . S
O22 In13 2.326 . S
O22 C18 1.260 . S
C23 O14 1.240 . S
C23 O15 1.252 . S
O24 In13 2.294 . S
O24 C17 1.240 . S
O25 In13 2.326 . S
O25 C17 1.252 . S
In26 O27 2.294 . S
In26 O28 2.326 . S
In26 O32 2.266 . S
In26 O33 2.326 . S
In26 O34 2.266 . S
In26 O35 2.326 . S
In26 O37 2.294 1_565 S
In26 O38 2.326 . S
O27 In26 2.294 . S
O27 C36 1.240 . S
O28 In26 2.326 . S
O28 C36 1.252 . S
C29 O32 1.252 . S
C29 O33 1.260 . S
C30 O37 1.240 1_565 S
C30 O38 1.252 . S
C31 O34 1.252 . S
C31 O35 1.260 . S
O32 In26 2.266 . S
O32 C29 1.252 . S
O33 In26 2.326 . S
O33 C29 1.260 . S
O34 In26 2.266 . S
O34 C31 1.252 . S
O35 In26 2.326 . S
O35 C31 1.260 . S
C36 O27 1.240 . S
C36 O28 1.252 . S
O37 In26 2.294 1_545 S
O37 C30 1.240 1_545 S
O38 In26 2.326 . S
O38 C30 1.252 . S
In39 O40 2.294 . S
In39 O41 2.326 . S
In39 O45 2.266 . S
In39 O46 2.326 . S
In39 O47 2.266 . S
In39 O48 2.326 . S
In39 O50 2.294 . S
In39 O51 2.326 . S
O40 In39 2.294 . S
O40 C49 1.240 . S
O41 In39 2.326 . S
O41 C49 1.252 . S
C42 O45 1.252 . S
C42 O46 1.260 . S
C43 O50 1.240 . S
C43 O51 1.252 . S
C44 O47 1.252 . S
C44 O48 1.260 . S
O45 In39 2.266 . S
O45 C42 1.252 . S
O46 In39 2.326 . S
O46 C42 1.260 . S
O47 In39 2.266 . S
O47 C44 1.252 . S
O48 In39 2.326 . S
O48 C44 1.260 . S
C49 O40 1.240 . S
C49 O41 1.252 . S
O50 In39 2.294 . S
O50 C43 1.240 . S
O51 In39 2.326 . S
O51 C43 1.252 . S
In52 O53 2.294 . S
In52 O54 2.326 . S
In52 O58 2.266 . S
In52 O59 2.326 . S
In52 O60 2.266 . S
In52 O61 2.326 . S
In52 O63 2.294 . S
In52 O64 2.326 . S
O53 In52 2.294 . S
O53 C62 1.240 . S
O54 In52 2.326 . S
O54 C62 1.252 . S
C55 O58 1.252 . S
C55 O59 1.260 . S
C56 O63 1.240 . S
C56 O64 1.252 . S
C57 O60 1.252 . S
C57 O61 1.260 . S
O58 In52 2.266 . S
O58 C55 1.252 . S
O59 In52 2.326 . S
O59 C55 1.260 . S
O60 In52 2.266 . S
O60 C57 1.252 . S
O61 In52 2.326 . S
O61 C57 1.260 . S
C62 O53 1.240 . S
C62 O54 1.252 . S
O63 In52 2.294 . S
O63 C56 1.240 . S
O64 In52 2.326 . S
O64 C56 1.252 . S
In65 O66 2.294 . S
In65 O67 2.326 . S
In65 O71 2.266 . S
In65 O72 2.326 . S
In65 O73 2.266 . S
In65 O74 2.326 . S
In65 O76 2.294 . S
In65 O77 2.326 . S
O66 In65 2.294 . S
O66 C75 1.240 . S
O67 In65 2.326 . S
O67 C75 1.252 . S
C68 O71 1.252 . S
C68 O72 1.260 . S
C69 O76 1.240 . S
C69 O77 1.252 . S
C70 O73 1.252 . S
C70 O74 1.260 . S
O71 In65 2.266 . S
O71 C68 1.252 . S
O72 In65 2.326 . S
O72 C68 1.260 . S
O73 In65 2.266 . S
O73 C70 1.252 . S
O74 In65 2.326 . S
O74 C70 1.260 . S
C75 O66 1.240 . S
C75 O67 1.252 . S
O76 In65 2.294 . S
O76 C69 1.240 . S
O77 In65 2.326 . S
O77 C69 1.252 . S
In78 O79 2.294 . S
In78 O80 2.326 . S
In78 O84 2.266 . S
In78 O85 2.326 . S
In78 O86 2.266 . S
In78 O87 2.326 . S
In78 O89 2.294 1_545 S
In78 O90 2.326 . S
O79 In78 2.294 . S
O79 C88 1.240 . S
O80 In78 2.326 . S
O80 C88 1.252 . S
C81 O84 1.252 . S
C81 O85 1.260 . S
C82 O89 1.240 1_545 S
C82 O90 1.252 . S
C83 O86 1.252 . S
C83 O87 1.260 . S
O84 In78 2.266 . S
O84 C81 1.252 . S
O85 In78 2.326 . S
O85 C81 1.260 . S
O86 In78 2.266 . S
O86 C83 1.252 . S
O87 In78 2.326 . S
O87 C83 1.260 . S
C88 O79 1.240 . S
C88 O80 1.252 . S
O89 In78 2.294 1_565 S
O89 C82 1.240 1_565 S
O90 In78 2.326 . S
O90 C82 1.252 . S
In91 O92 2.294 . S
In91 O93 2.326 . S
In91 O97 2.266 . S
In91 O98 2.326 . S
In91 O99 2.266 . S
In91 O100 2.326 . S
In91 O102 2.294 . S
In91 O103 2.326 . S
O92 In91 2.294 . S
O92 C101 1.240 . S
O93 In91 2.326 . S
O93 C101 1.252 . S
C94 O97 1.252 . S
C94 O98 1.260 . S
C95 O102 1.240 . S
C95 O103 1.252 . S
C96 O99 1.252 . S
C96 O100 1.260 . S
O97 In91 2.266 . S
O97 C94 1.252 . S
O98 In91 2.326 . S
O98 C94 1.260 . S
O99 In91 2.266 . S
O99 C96 1.252 . S
O100 In91 2.326 . S
O100 C96 1.260 . S
C101 O92 1.240 . S
C101 O93 1.252 . S
O102 In91 2.294 . S
O102 C95 1.240 . S
O103 In91 2.326 . S
O103 C95 1.252 . S
In104 O105 2.294 . S
In104 O106 2.326 . S
In104 O110 2.266 . S
In104 O111 2.326 . S
In104 O112 2.266 . S
In104 O113 2.326 . S
In104 O115 2.294 . S
In104 O116 2.326 . S
O105 In104 2.294 . S
O105 C114 1.240 . S
O106 In104 2.326 . S
O106 C114 1.252 . S
C107 O110 1.252 . S
C107 O111 1.260 . S
C108 O115 1.240 . S
C108 O116 1.252 . S
C109 O112 1.252 . S
C109 O113 1.260 . S
O110 In104 2.266 . S
O110 C107 1.252 . S
O111 In104 2.326 . S
O111 C107 1.260 . S
O112 In104 2.266 . S
O112 C109 1.252 . S
O113 In104 2.326 . S
O113 C109 1.260 . S
C114 O105 1.240 . S
C114 O106 1.252 . S
O115 In104 2.294 . S
O115 C108 1.240 . S
O116 In104 2.326 . S
O116 C108 1.252 . S
In117 O118 2.294 . S
In117 O119 2.326 . S
In117 O123 2.266 . S
In117 O124 2.326 . S
In117 O125 2.266 . S
In117 O126 2.326 . S
In117 O128 2.294 . S
In117 O129 2.326 . S
O118 In117 2.294 . S
O118 C127 1.240 . S
O119 In117 2.326 . S
O119 C127 1.252 . S
C120 O123 1.252 . S
C120 O124 1.260 . S
C121 O128 1.240 . S
C121 O129 1.252 . S
C122 O125 1.252 . S
C122 O126 1.260 . S
O123 In117 2.266 . S
O123 C120 1.252 . S
O124 In117 2.326 . S
O124 C120 1.260 . S
O125 In117 2.266 . S
O125 C122 1.252 . S
O126 In117 2.326 . S
O126 C122 1.260 . S
C127 O118 1.240 . S
C127 O119 1.252 . S
O128 In117 2.294 . S
O128 C121 1.240 . S
O129 In117 2.326 . S
O129 C121 1.252 . S
In130 O131 2.294 . S
In130 O132 2.326 . S
In130 O136 2.266 . S
In130 O137 2.326 . S
In130 O138 2.266 . S
In130 O139 2.326 . S
In130 O141 2.294 1_554 S
In130 O142 2.326 . S
O131 In130 2.294 . S
O131 C140 1.240 . S
O132 In130 2.326 . S
O132 C140 1.252 . S
C133 O136 1.252 . S
C133 O137 1.260 . S
C134 O141 1.240 1_554 S
C134 O142 1.252 . S
C135 O138 1.252 . S
C135 O139 1.260 . S
O136 In130 2.266 . S
O136 C133 1.252 . S
O137 In130 2.326 . S
O137 C133 1.260 . S
O138 In130 2.266 . S
O138 C135 1.252 . S
O139 In130 2.326 . S
O139 C135 1.260 . S
C140 O131 1.240 . S
C140 O132 1.252 . S
O141 In130 2.294 1_556 S
O141 C134 1.240 1_556 S
O142 In130 2.326 . S
O142 C134 1.252 . S
In143 O144 2.294 . S
In143 O145 2.326 . S
In143 O149 2.266 . S
In143 O150 2.326 . S
In143 O151 2.266 . S
In143 O152 2.326 . S
In143 O154 2.294 . S
In143 O155 2.326 . S
O144 In143 2.294 . S
O144 C153 1.240 . S
O145 In143 2.326 . S
O145 C153 1.252 . S
C146 O149 1.252 . S
C146 O150 1.260 . S
C147 O154 1.240 . S
C147 O155 1.252 . S
C148 O151 1.252 . S
C148 O152 1.260 . S
O149 In143 2.266 . S
O149 C146 1.252 . S
O150 In143 2.326 . S
O150 C146 1.260 . S
O151 In143 2.266 . S
O151 C148 1.252 . S
O152 In143 2.326 . S
O152 C148 1.260 . S
C153 O144 1.240 . S
C153 O145 1.252 . S
O154 In143 2.294 . S
O154 C147 1.240 . S
O155 In143 2.326 . S
O155 C147 1.252 . S
In156 O157 2.294 . S
In156 O158 2.326 . S
In156 O162 2.266 . S
In156 O163 2.326 . S
In156 O164 2.266 . S
In156 O165 2.326 . S
In156 O167 2.294 . S
In156 O168 2.326 . S
O157 In156 2.294 . S
O157 C166 1.240 . S
O158 In156 2.326 . S
O158 C166 1.252 . S
C159 O162 1.252 . S
C159 O163 1.260 . S
C160 O167 1.240 . S
C160 O168 1.252 . S
C161 O164 1.252 . S
C161 O165 1.260 . S
O162 In156 2.266 . S
O162 C159 1.252 . S
O163 In156 2.326 . S
O163 C159 1.260 . S
O164 In156 2.266 . S
O164 C161 1.252 . S
O165 In156 2.326 . S
O165 C161 1.260 . S
C166 O157 1.240 . S
C166 O158 1.252 . S
O167 In156 2.294 . S
O167 C160 1.240 . S
O168 In156 2.326 . S
O168 C160 1.252 . S
In169 O170 2.294 . S
In169 O171 2.326 . S
In169 O175 2.266 . S
In169 O176 2.326 . S
In169 O177 2.266 . S
In169 O178 2.326 . S
In169 O180 2.294 . S
In169 O181 2.326 . S
O170 In169 2.294 . S
O170 C179 1.240 . S
O171 In169 2.326 . S
O171 C179 1.252 . S
C172 O175 1.252 . S
C172 O176 1.260 . S
C173 O180 1.240 . S
C173 O181 1.252 . S
C174 O177 1.252 . S
C174 O178 1.260 . S
O175 In169 2.266 . S
O175 C172 1.252 . S
O176 In169 2.326 . S
O176 C172 1.260 . S
O177 In169 2.266 . S
O177 C174 1.252 . S
O178 In169 2.326 . S
O178 C174 1.260 . S
C179 O170 1.240 . S
C179 O171 1.252 . S
O180 In169 2.294 . S
O180 C173 1.240 . S
O181 In169 2.326 . S
O181 C173 1.252 . S
In182 O183 2.294 . S
In182 O184 2.326 . S
In182 O188 2.266 . S
In182 O189 2.326 . S
In182 O190 2.266 . S
In182 O191 2.326 . S
In182 O193 2.294 1_556 S
In182 O194 2.326 . S
O183 In182 2.294 . S
O183 C192 1.240 . S
O184 In182 2.326 . S
O184 C192 1.252 . S
C185 O188 1.252 . S
C185 O189 1.260 . S
C186 O193 1.240 1_556 S
C186 O194 1.252 . S
C187 O190 1.252 . S
C187 O191 1.260 . S
O188 In182 2.266 . S
O188 C185 1.252 . S
O189 In182 2.326 . S
O189 C185 1.260 . S
O190 In182 2.266 . S
O190 C187 1.252 . S
O191 In182 2.326 . S
O191 C187 1.260 . S
C192 O183 1.240 . S
C192 O184 1.252 . S
O193 In182 2.294 1_554 S
O193 C186 1.240 1_554 S
O194 In182 2.326 . S
O194 C186 1.252 . S
In195 O196 2.294 . S
In195 O197 2.326 . S
In195 O201 2.266 . S
In195 O202 2.326 . S
In195 O203 2.266 . S
In195 O204 2.326 . S
In195 O206 2.294 . S
In195 O207 2.326 . S
O196 In195 2.294 . S
O196 C205 1.240 . S
O197 In195 2.326 . S
O197 C205 1.252 . S
C198 O201 1.252 . S
C198 O202 1.260 . S
C199 O206 1.240 . S
C199 O207 1.252 . S
C200 O203 1.252 . S
C200 O204 1.260 . S
O201 In195 2.266 . S
O201 C198 1.252 . S
O202 In195 2.326 . S
O202 C198 1.260 . S
O203 In195 2.266 . S
O203 C200 1.252 . S
O204 In195 2.326 . S
O204 C200 1.260 . S
C205 O196 1.240 . S
C205 O197 1.252 . S
O206 In195 2.294 . S
O206 C199 1.240 . S
O207 In195 2.326 . S
O207 C199 1.252 . S
In208 O209 2.294 . S
In208 O210 2.326 . S
In208 O214 2.266 . S
In208 O215 2.326 . S
In208 O216 2.266 . S
In208 O217 2.326 . S
In208 O219 2.294 . S
In208 O220 2.326 . S
O209 In208 2.294 . S
O209 C218 1.240 . S
O210 In208 2.326 . S
O210 C218 1.252 . S
C211 O214 1.252 . S
C211 O215 1.260 . S
C212 O219 1.240 . S
C212 O220 1.252 . S
C213 O216 1.252 . S
C213 O217 1.260 . S
O214 In208 2.266 . S
O214 C211 1.252 . S
O215 In208 2.326 . S
O215 C211 1.260 . S
O216 In208 2.266 . S
O216 C213 1.252 . S
O217 In208 2.326 . S
O217 C213 1.260 . S
C218 O209 1.240 . S
C218 O210 1.252 . S
O219 In208 2.294 . S
O219 C212 1.240 . S
O220 In208 2.326 . S
O220 C212 1.252 . S
In221 O222 2.294 1_455 S
In221 O223 2.326 . S
In221 O227 2.266 . S
In221 O228 2.326 . S
In221 O229 2.266 . S
In221 O230 2.326 . S
In221 O232 2.294 . S
In221 O233 2.326 . S
O222 In221 2.294 1_655 S
O222 C231 1.240 1_655 S
O223 In221 2.326 . S
O223 C231 1.252 . S
C224 O227 1.252 . S
C224 O228 1.260 . S
C225 O232 1.240 . S
C225 O233 1.252 . S
C226 O229 1.252 . S
C226 O230 1.260 . S
O227 In221 2.266 . S
O227 C224 1.252 . S
O228 In221 2.326 . S
O228 C224 1.260 . S
O229 In221 2.266 . S
O229 C226 1.252 . S
O230 In221 2.326 . S
O230 C226 1.260 . S
C231 O222 1.240 1_455 S
C231 O223 1.252 . S
O232 In221 2.294 . S
O232 C225 1.240 . S
O233 In221 2.326 . S
O233 C225 1.252 . S
In234 O235 2.294 . S
In234 O236 2.326 . S
In234 O240 2.266 . S
In234 O241 2.326 . S
In234 O242 2.266 . S
In234 O243 2.326 . S
In234 O245 2.294 . S
In234 O246 2.326 . S
O235 In234 2.294 . S
O235 C244 1.240 . S
O236 In234 2.326 . S
O236 C244 1.252 . S
C237 O240 1.252 . S
C237 O241 1.260 . S
C238 O245 1.240 . S
C238 O246 1.252 . S
C239 O242 1.252 . S
C239 O243 1.260 . S
O240 In234 2.266 . S
O240 C237 1.252 . S
O241 In234 2.326 . S
O241 C237 1.260 . S
O242 In234 2.266 . S
O242 C239 1.252 . S
O243 In234 2.326 . S
O243 C239 1.260 . S
C244 O235 1.240 . S
C244 O236 1.252 . S
O245 In234 2.294 . S
O245 C238 1.240 . S
O246 In234 2.326 . S
O246 C238 1.252 . S
In247 O248 2.294 . S
In247 O249 2.326 . S
In247 O253 2.266 . S
In247 O254 2.326 . S
In247 O255 2.266 . S
In247 O256 2.326 . S
In247 O258 2.294 1_655 S
In247 O259 2.326 . S
O248 In247 2.294 . S
O248 C257 1.240 . S
O249 In247 2.326 . S
O249 C257 1.252 . S
C250 O253 1.252 . S
C250 O254 1.260 . S
C251 O258 1.240 1_655 S
C251 O259 1.252 . S
C252 O255 1.252 . S
C252 O256 1.260 . S
O253 In247 2.266 . S
O253 C250 1.252 . S
O254 In247 2.326 . S
O254 C250 1.260 . S
O255 In247 2.266 . S
O255 C252 1.252 . S
O256 In247 2.326 . S
O256 C252 1.260 . S
C257 O248 1.240 . S
C257 O249 1.252 . S
O258 In247 2.294 1_455 S
O258 C251 1.240 1_455 S
O259 In247 2.326 . S
O259 C251 1.252 . S
In260 O261 2.294 . S
In260 O262 2.326 . S
In260 O266 2.266 . S
In260 O267 2.326 . S
In260 O268 2.266 . S
In260 O269 2.326 . S
In260 O271 2.294 . S
In260 O272 2.326 . S
O261 In260 2.294 . S
O261 C270 1.240 . S
O262 In260 2.326 . S
O262 C270 1.252 . S
C263 O266 1.252 . S
C263 O267 1.260 . S
C264 O271 1.240 . S
C264 O272 1.252 . S
C265 O268 1.252 . S
C265 O269 1.260 . S
O266 In260 2.266 . S
O266 C263 1.252 . S
O267 In260 2.326 . S
O267 C263 1.260 . S
O268 In260 2.266 . S
O268 C265 1.252 . S
O269 In260 2.326 . S
O269 C265 1.260 . S
C270 O261 1.240 . S
C270 O262 1.252 . S
O271 In260 2.294 . S
O271 C264 1.240 . S
O272 In260 2.326 . S
O272 C264 1.252 . S
In273 O274 2.294 . S
In273 O275 2.326 . S
In273 O279 2.266 . S
In273 O280 2.326 . S
In273 O281 2.266 . S
In273 O282 2.326 . S
In273 O284 2.294 . S
In273 O285 2.326 . S
O274 In273 2.294 . S
O274 C283 1.240 . S
O275 In273 2.326 . S
O275 C283 1.252 . S
C276 O279 1.252 . S
C276 O280 1.260 . S
C277 O284 1.240 . S
C277 O285 1.252 . S
C278 O281 1.252 . S
C278 O282 1.260 . S
O279 In273 2.266 . S
O279 C276 1.252 . S
O280 In273 2.326 . S
O280 C276 1.260 . S
O281 In273 2.266 . S
O281 C278 1.252 . S
O282 In273 2.326 . S
O282 C278 1.260 . S
C283 O274 1.240 . S
C283 O275 1.252 . S
O284 In273 2.294 . S
O284 C277 1.240 . S
O285 In273 2.326 . S
O285 C277 1.252 . S
In286 O287 2.294 . S
In286 O288 2.326 . S
In286 O292 2.266 . S
In286 O293 2.326 . S
In286 O294 2.266 . S
In286 O295 2.326 . S
In286 O297 2.294 . S
In286 O298 2.326 . S
O287 In286 2.294 . S
O287 C296 1.240 . S
O288 In286 2.326 . S
O288 C296 1.252 . S
C289 O292 1.252 . S
C289 O293 1.260 . S
C290 O297 1.240 . S
C290 O298 1.252 . S
C291 O294 1.252 . S
C291 O295 1.260 . S
O292 In286 2.266 . S
O292 C289 1.252 . S
O293 In286 2.326 . S
O293 C289 1.260 . S
O294 In286 2.266 . S
O294 C291 1.252 . S
O295 In286 2.326 . S
O295 C291 1.260 . S
C296 O287 1.240 . S
C296 O288 1.252 . S
O297 In286 2.294 . S
O297 C290 1.240 . S
O298 In286 2.326 . S
O298 C290 1.252 . S
In299 O300 2.294 . S
In299 O301 2.326 . S
In299 O305 2.266 . S
In299 O306 2.326 . S
In299 O307 2.266 . S
In299 O308 2.326 . S
In299 O310 2.294 . S
In299 O311 2.326 . S
O300 In299 2.294 . S
O300 C309 1.240 . S
O301 In299 2.326 . S
O301 C309 1.252 . S
C302 O305 1.252 . S
C302 O306 1.260 . S
C303 O310 1.240 . S
C303 O311 1.252 . S
C304 O307 1.252 . S
C304 O308 1.260 . S
O305 In299 2.266 . S
O305 C302 1.252 . S
O306 In299 2.326 . S
O306 C302 1.260 . S
O307 In299 2.266 . S
O307 C304 1.252 . S
O308 In299 2.326 . S
O308 C304 1.260 . S
C309 O300 1.240 . S
C309 O301 1.252 . S
O310 In299 2.294 . S
O310 C303 1.240 . S
O311 In299 2.326 . S
O311 C303 1.252 . S
In312 O313 2.294 1_545 S
In312 O314 2.326 . S
In312 O318 2.266 . S
In312 O319 2.326 . S
In312 O320 2.266 . S
In312 O321 2.326 . S
In312 O323 2.294 . S
In312 O324 2.326 . S
O313 In312 2.294 1_565 S
O313 C322 1.240 1_565 S
O314 In312 2.326 . S
O314 C322 1.252 . S
C315 O318 1.252 . S
C315 O319 1.260 . S
C316 O323 1.240 . S
C316 O324 1.252 . S
C317 O320 1.252 . S
C317 O321 1.260 . S
O318 In312 2.266 . S
O318 C315 1.252 . S
O319 In312 2.326 . S
O319 C315 1.260 . S
O320 In312 2.266 . S
O320 C317 1.252 . S
O321 In312 2.326 . S
O321 C317 1.260 . S
C322 O313 1.240 1_545 S
C322 O314 1.252 . S
O323 In312 2.294 . S
O323 C316 1.240 . S
O324 In312 2.326 . S
O324 C316 1.252 . S
In325 O326 2.294 . S
In325 O327 2.326 . S
In325 O331 2.266 . S
In325 O332 2.326 . S
In325 O333 2.266 . S
In325 O334 2.326 . S
In325 O336 2.294 . S
In325 O337 2.326 . S
O326 In325 2.294 . S
O326 C335 1.240 . S
O327 In325 2.326 . S
O327 C335 1.252 . S
C328 O331 1.252 . S
C328 O332 1.260 . S
C329 O336 1.240 . S
C329 O337 1.252 . S
C330 O333 1.252 . S
C330 O334 1.260 . S
O331 In325 2.266 . S
O331 C328 1.252 . S
O332 In325 2.326 . S
O332 C328 1.260 . S
O333 In325 2.266 . S
O333 C330 1.252 . S
O334 In325 2.326 . S
O334 C330 1.260 . S
C335 O326 1.240 . S
C335 O327 1.252 . S
O336 In325 2.294 . S
O336 C329 1.240 . S
O337 In325 2.326 . S
O337 C329 1.252 . S
In338 O339 2.294 . S
In338 O340 2.326 . S
In338 O344 2.266 . S
In338 O345 2.326 . S
In338 O346 2.266 . S
In338 O347 2.326 . S
In338 O349 2.294 . S
In338 O350 2.326 . S
O339 In338 2.294 . S
O339 C348 1.240 . S
O340 In338 2.326 . S
O340 C348 1.252 . S
C341 O344 1.252 . S
C341 O345 1.260 . S
C342 O349 1.240 . S
C342 O350 1.252 . S
C343 O346 1.252 . S
C343 O347 1.260 . S
O344 In338 2.266 . S
O344 C341 1.252 . S
O345 In338 2.326 . S
O345 C341 1.260 . S
O346 In338 2.266 . S
O346 C343 1.252 . S
O347 In338 2.326 . S
O347 C343 1.260 . S
C348 O339 1.240 . S
C348 O340 1.252 . S
O349 In338 2.294 . S
O349 C342 1.240 . S
O350 In338 2.326 . S
O350 C342 1.252 . S
In351 O352 2.294 . S
In351 O353 2.326 . S
In351 O357 2.266 . S
In351 O358 2.326 . S
In351 O359 2.266 . S
In351 O360 2.326 . S
In351 O362 2.294 . S
In351 O363 2.326 . S
O352 In351 2.294 . S
O352 C361 1.240 . S
O353 In351 2.326 . S
O353 C361 1.252 . S
C354 O357 1.252 . S
C354 O358 1.260 . S
C355 O362 1.240 . S
C355 O363 1.252 . S
C356 O359 1.252 . S
C356 O360 1.260 . S
O357 In351 2.266 . S
O357 C354 1.252 . S
O358 In351 2.326 . S
O358 C354 1.260 . S
O359 In351 2.266 . S
O359 C356 1.252 . S
O360 In351 2.326 . S
O360 C356 1.260 . S
C361 O352 1.240 . S
C361 O353 1.252 . S
O362 In351 2.294 . S
O362 C355 1.240 . S
O363 In351 2.326 . S
O363 C355 1.252 . S
In364 O365 2.294 . S
In364 O366 2.326 . S
In364 O370 2.266 . S
In364 O371 2.326 . S
In364 O372 2.266 . S
In364 O373 2.326 . S
In364 O375 2.294 1_565 S
In364 O376 2.326 . S
O365 In364 2.294 . S
O365 C374 1.240 . S
O366 In364 2.326 . S
O366 C374 1.252 . S
C367 O370 1.252 . S
C367 O371 1.260 . S
C368 O375 1.240 1_565 S
C368 O376 1.252 . S
C369 O372 1.252 . S
C369 O373 1.260 . S
O370 In364 2.266 . S
O370 C367 1.252 . S
O371 In364 2.326 . S
O371 C367 1.260 . S
O372 In364 2.266 . S
O372 C369 1.252 . S
O373 In364 2.326 . S
O373 C369 1.260 . S
C374 O365 1.240 . S
C374 O366 1.252 . S
O375 In364 2.294 1_545 S
O375 C368 1.240 1_545 S
O376 In364 2.326 . S
O376 C368 1.252 . S
In377 O378 2.294 . S
In377 O379 2.326 . S
In377 O383 2.266 . S
In377 O384 2.326 . S
In377 O385 2.266 . S
In377 O386 2.326 . S
In377 O388 2.294 . S
In377 O389 2.326 . S
O378 In377 2.294 . S
O378 C387 1.240 . S
O379 In377 2.326 . S
O379 C387 1.252 . S
C380 O383 1.252 . S
C380 O384 1.260 . S
C381 O388 1.240 . S
C381 O389 1.252 . S
C382 O385 1.252 . S
C382 O386 1.260 . S
O383 In377 2.266 . S
O383 C380 1.252 . S
O384 In377 2.326 . S
O384 C380 1.260 . S
O385 In377 2.266 . S
O385 C382 1.252 . S
O386 In377 2.326 . S
O386 C382 1.260 . S
C387 O378 1.240 . S
C387 O379 1.252 . S
O388 In377 2.294 . S
O388 C381 1.240 . S
O389 In377 2.326 . S
O389 C381 1.252 . S
In390 O391 2.294 . S
In390 O392 2.326 . S
In390 O396 2.266 . S
In390 O397 2.326 . S
In390 O398 2.266 . S
In390 O399 2.326 . S
In390 O401 2.294 . S
In390 O402 2.326 . S
O391 In390 2.294 . S
O391 C400 1.240 . S
O392 In390 2.326 . S
O392 C400 1.252 . S
C393 O396 1.252 . S
C393 O397 1.260 . S
C394 O401 1.240 . S
C394 O402 1.252 . S
C395 O398 1.252 . S
C395 O399 1.260 . S
O396 In390 2.266 . S
O396 C393 1.252 . S
O397 In390 2.326 . S
O397 C393 1.260 . S
O398 In390 2.266 . S
O398 C395 1.252 . S
O399 In390 2.326 . S
O399 C395 1.260 . S
C400 O391 1.240 . S
C400 O392 1.252 . S
O401 In390 2.294 . S
O401 C394 1.240 . S
O402 In390 2.326 . S
O402 C394 1.252 . S
In403 O404 2.294 . S
In403 O405 2.326 . S
In403 O409 2.266 . S
In403 O410 2.326 . S
In403 O411 2.266 . S
In403 O412 2.326 . S
In403 O414 2.294 . S
In403 O415 2.326 . S
O404 In403 2.294 . S
O404 C413 1.240 . S
O405 In403 2.326 . S
O405 C413 1.252 . S
C406 O409 1.252 . S
C406 O410 1.260 . S
C407 O414 1.240 . S
C407 O415 1.252 . S
C408 O411 1.252 . S
C408 O412 1.260 . S
O409 In403 2.266 . S
O409 C406 1.252 . S
O410 In403 2.326 . S
O410 C406 1.260 . S
O411 In403 2.266 . S
O411 C408 1.252 . S
O412 In403 2.326 . S
O412 C408 1.260 . S
C413 O404 1.240 . S
C413 O405 1.252 . S
O414 In403 2.294 . S
O414 C407 1.240 . S
O415 In403 2.326 . S
O415 C407 1.252 . S
In416 O417 2.294 1_554 S
In416 O418 2.326 . S
In416 O422 2.266 . S
In416 O423 2.326 . S
In416 O424 2.266 . S
In416 O425 2.326 . S
In416 O427 2.294 . S
In416 O428 2.326 . S
O417 In416 2.294 1_556 S
O417 C426 1.240 1_556 S
O418 In416 2.326 . S
O418 C426 1.252 . S
C419 O422 1.252 . S
C419 O423 1.260 . S
C420 O427 1.240 . S
C420 O428 1.252 . S
C421 O424 1.252 . S
C421 O425 1.260 . S
O422 In416 2.266 . S
O422 C419 1.252 . S
O423 In416 2.326 . S
O423 C419 1.260 . S
O424 In416 2.266 . S
O424 C421 1.252 . S
O425 In416 2.326 . S
O425 C421 1.260 . S
C426 O417 1.240 1_554 S
C426 O418 1.252 . S
O427 In416 2.294 . S
O427 C420 1.240 . S
O428 In416 2.326 . S
O428 C420 1.252 . S
In429 O430 2.294 . S
In429 O431 2.326 . S
In429 O435 2.266 . S
In429 O436 2.326 . S
In429 O437 2.266 . S
In429 O438 2.326 . S
In429 O440 2.294 . S
In429 O441 2.326 . S
O430 In429 2.294 . S
O430 C439 1.240 . S
O431 In429 2.326 . S
O431 C439 1.252 . S
C432 O435 1.252 . S
C432 O436 1.260 . S
C433 O440 1.240 . S
C433 O441 1.252 . S
C434 O437 1.252 . S
C434 O438 1.260 . S
O435 In429 2.266 . S
O435 C432 1.252 . S
O436 In429 2.326 . S
O436 C432 1.260 . S
O437 In429 2.266 . S
O437 C434 1.252 . S
O438 In429 2.326 . S
O438 C434 1.260 . S
C439 O430 1.240 . S
C439 O431 1.252 . S
O440 In429 2.294 . S
O440 C433 1.240 . S
O441 In429 2.326 . S
O441 C433 1.252 . S
In442 O443 2.294 . S
In442 O444 2.326 . S
In442 O448 2.266 . S
In442 O449 2.326 . S
In442 O450 2.266 . S
In442 O451 2.326 . S
In442 O453 2.294 . S
In442 O454 2.326 . S
O443 In442 2.294 . S
O443 C452 1.240 . S
O444 In442 2.326 . S
O444 C452 1.252 . S
C445 O448 1.252 . S
C445 O449 1.260 . S
C446 O453 1.240 . S
C446 O454 1.252 . S
C447 O450 1.252 . S
C447 O451 1.260 . S
O448 In442 2.266 . S
O448 C445 1.252 . S
O449 In442 2.326 . S
O449 C445 1.260 . S
O450 In442 2.266 . S
O450 C447 1.252 . S
O451 In442 2.326 . S
O451 C447 1.260 . S
C452 O443 1.240 . S
C452 O444 1.252 . S
O453 In442 2.294 . S
O453 C446 1.240 . S
O454 In442 2.326 . S
O454 C446 1.252 . S
In455 O456 2.294 . S
In455 O457 2.326 . S
In455 O461 2.266 . S
In455 O462 2.326 . S
In455 O463 2.266 . S
In455 O464 2.326 . S
In455 O466 2.294 . S
In455 O467 2.326 . S
O456 In455 2.294 . S
O456 C465 1.240 . S
O457 In455 2.326 . S
O457 C465 1.252 . S
C458 O461 1.252 . S
C458 O462 1.260 . S
C459 O466 1.240 . S
C459 O467 1.252 . S
C460 O463 1.252 . S
C460 O464 1.260 . S
O461 In455 2.266 . S
O461 C458 1.252 . S
O462 In455 2.326 . S
O462 C458 1.260 . S
O463 In455 2.266 . S
O463 C460 1.252 . S
O464 In455 2.326 . S
O464 C460 1.260 . S
C465 O456 1.240 . S
C465 O457 1.252 . S
O466 In455 2.294 . S
O466 C459 1.240 . S
O467 In455 2.326 . S
O467 C459 1.252 . S
In468 O469 2.294 . S
In468 O470 2.326 . S
In468 O474 2.266 . S
In468 O475 2.326 . S
In468 O476 2.266 . S
In468 O477 2.326 . S
In468 O479 2.294 1_556 S
In468 O480 2.326 . S
O469 In468 2.294 . S
O469 C478 1.240 . S
O470 In468 2.326 . S
O470 C478 1.252 . S
C471 O474 1.252 . S
C471 O475 1.260 . S
C472 O479 1.240 1_556 S
C472 O480 1.252 . S
C473 O476 1.252 . S
C473 O477 1.260 . S
O474 In468 2.266 . S
O474 C471 1.252 . S
O475 In468 2.326 . S
O475 C471 1.260 . S
O476 In468 2.266 . S
O476 C473 1.252 . S
O477 In468 2.326 . S
O477 C473 1.260 . S
C478 O469 1.240 . S
C478 O470 1.252 . S
O479 In468 2.294 1_554 S
O479 C472 1.240 1_554 S
O480 In468 2.326 . S
O480 C472 1.252 . S
In481 O482 2.294 . S
In481 O483 2.326 . S
In481 O487 2.266 . S
In481 O488 2.326 . S
In481 O489 2.266 . S
In481 O490 2.326 . S
In481 O492 2.294 . S
In481 O493 2.326 . S
O482 In481 2.294 . S
O482 C491 1.240 . S
O483 In481 2.326 . S
O483 C491 1.252 . S
C484 O487 1.252 . S
C484 O488 1.260 . S
C485 O492 1.240 . S
C485 O493 1.252 . S
C486 O489 1.252 . S
C486 O490 1.260 . S
O487 In481 2.266 . S
O487 C484 1.252 . S
O488 In481 2.326 . S
O488 C484 1.260 . S
O489 In481 2.266 . S
O489 C486 1.252 . S
O490 In481 2.326 . S
O490 C486 1.260 . S
C491 O482 1.240 . S
C491 O483 1.252 . S
O492 In481 2.294 . S
O492 C485 1.240 . S
O493 In481 2.326 . S
O493 C485 1.252 . S
In494 O495 2.294 . S
In494 O496 2.326 . S
In494 O500 2.266 . S
In494 O501 2.326 . S
In494 O502 2.266 . S
In494 O503 2.326 . S
In494 O505 2.294 . S
In494 O506 2.326 . S
O495 In494 2.294 . S
O495 C504 1.240 . S
O496 In494 2.326 . S
O496 C504 1.252 . S
C497 O500 1.252 . S
C497 O501 1.260 . S
C498 O505 1.240 . S
C498 O506 1.252 . S
C499 O502 1.252 . S
C499 O503 1.260 . S
O500 In494 2.266 . S
O500 C497 1.252 . S
O501 In494 2.326 . S
O501 C497 1.260 . S
O502 In494 2.266 . S
O502 C499 1.252 . S
O503 In494 2.326 . S
O503 C499 1.260 . S
C504 O495 1.240 . S
C504 O496 1.252 . S
O505 In494 2.294 . S
O505 C498 1.240 . S
O506 In494 2.326 . S
O506 C498 1.252 . S
In507 O508 2.294 . S
In507 O509 2.326 . S
In507 O513 2.266 . S
In507 O514 2.326 . S
In507 O515 2.266 . S
In507 O516 2.326 . S
In507 O518 2.294 . S
In507 O519 2.326 . S
O508 In507 2.294 . S
O508 C517 1.240 . S
O509 In507 2.326 . S
O509 C517 1.252 . S
C510 O513 1.252 . S
C510 O514 1.260 . S
C511 O518 1.240 . S
C511 O519 1.252 . S
C512 O515 1.252 . S
C512 O516 1.260 . S
O513 In507 2.266 . S
O513 C510 1.252 . S
O514 In507 2.326 . S
O514 C510 1.260 . S
O515 In507 2.266 . S
O515 C512 1.252 . S
O516 In507 2.326 . S
O516 C512 1.260 . S
C517 O508 1.240 . S
C517 O509 1.252 . S
O518 In507 2.294 . S
O518 C511 1.240 . S
O519 In507 2.326 . S
O519 C511 1.252 . S
In520 O521 2.294 . S
In520 O522 2.326 . S
In520 O526 2.266 . S
In520 O527 2.326 . S
In520 O528 2.266 . S
In520 O529 2.326 . S
In520 O531 2.294 . S
In520 O532 2.326 . S
O521 In520 2.294 . S
O521 C530 1.240 . S
O522 In520 2.326 . S
O522 C530 1.252 . S
C523 O526 1.252 . S
C523 O527 1.260 . S
C524 O531 1.240 . S
C524 O532 1.252 . S
C525 O528 1.252 . S
C525 O529 1.260 . S
O526 In520 2.266 . S
O526 C523 1.252 . S
O527 In520 2.326 . S
O527 C523 1.260 . S
O528 In520 2.266 . S
O528 C525 1.252 . S
O529 In520 2.326 . S
O529 C525 1.260 . S
C530 O521 1.240 . S
C530 O522 1.252 . S
O531 In520 2.294 . S
O531 C524 1.240 . S
O532 In520 2.326 . S
O532 C524 1.252 . S
In533 O534 2.294 . S
In533 O535 2.326 . S
In533 O539 2.266 . S
In533 O540 2.326 . S
In533 O541 2.266 . S
In533 O542 2.326 . S
In533 O544 2.294 1_455 S
In533 O545 2.326 . S
O534 In533 2.294 . S
O534 C543 1.240 . S
O535 In533 2.326 . S
O535 C543 1.252 . S
C536 O539 1.252 . S
C536 O540 1.260 . S
C537 O544 1.240 1_455 S
C537 O545 1.252 . S
C538 O541 1.252 . S
C538 O542 1.260 . S
O539 In533 2.266 . S
O539 C536 1.252 . S
O540 In533 2.326 . S
O540 C536 1.260 . S
O541 In533 2.266 . S
O541 C538 1.252 . S
O542 In533 2.326 . S
O542 C538 1.260 . S
C543 O534 1.240 . S
C543 O535 1.252 . S
O544 In533 2.294 1_655 S
O544 C537 1.240 1_655 S
O545 In533 2.326 . S
O545 C537 1.252 . S
In546 O547 2.294 . S
In546 O548 2.326 . S
In546 O552 2.266 . S
In546 O553 2.326 . S
In546 O554 2.266 . S
In546 O555 2.326 . S
In546 O557 2.294 . S
In546 O558 2.326 . S
O547 In546 2.294 . S
O547 C556 1.240 . S
O548 In546 2.326 . S
O548 C556 1.252 . S
C549 O552 1.252 . S
C549 O553 1.260 . S
C550 O557 1.240 . S
C550 O558 1.252 . S
C551 O554 1.252 . S
C551 O555 1.260 . S
O552 In546 2.266 . S
O552 C549 1.252 . S
O553 In546 2.326 . S
O553 C549 1.260 . S
O554 In546 2.266 . S
O554 C551 1.252 . S
O555 In546 2.326 . S
O555 C551 1.260 . S
C556 O547 1.240 . S
C556 O548 1.252 . S
O557 In546 2.294 . S
O557 C550 1.240 . S
O558 In546 2.326 . S
O558 C550 1.252 . S
In559 O560 2.294 1_655 S
In559 O561 2.326 . S
In559 O565 2.266 . S
In559 O566 2.326 . S
In559 O567 2.266 . S
In559 O568 2.326 . S
In559 O570 2.294 . S
In559 O571 2.326 . S
O560 In559 2.294 1_455 S
O560 C569 1.240 1_455 S
O561 In559 2.326 . S
O561 C569 1.252 . S
C562 O565 1.252 . S
C562 O566 1.260 . S
C563 O570 1.240 . S
C563 O571 1.252 . S
C564 O567 1.252 . S
C564 O568 1.260 . S
O565 In559 2.266 . S
O565 C562 1.252 . S
O566 In559 2.326 . S
O566 C562 1.260 . S
O567 In559 2.266 . S
O567 C564 1.252 . S
O568 In559 2.326 . S
O568 C564 1.260 . S
C569 O560 1.240 1_655 S
C569 O561 1.252 . S
O570 In559 2.294 . S
O570 C563 1.240 . S
O571 In559 2.326 . S
O571 C563 1.252 . S
In572 O573 2.294 . S
In572 O574 2.326 . S
In572 O578 2.266 . S
In572 O579 2.326 . S
In572 O580 2.266 . S
In572 O581 2.326 . S
In572 O583 2.294 . S
In572 O584 2.326 . S
O573 In572 2.294 . S
O573 C582 1.240 . S
O574 In572 2.326 . S
O574 C582 1.252 . S
C575 O578 1.252 . S
C575 O579 1.260 . S
C576 O583 1.240 . S
C576 O584 1.252 . S
C577 O580 1.252 . S
C577 O581 1.260 . S
O578 In572 2.266 . S
O578 C575 1.252 . S
O579 In572 2.326 . S
O579 C575 1.260 . S
O580 In572 2.266 . S
O580 C577 1.252 . S
O581 In572 2.326 . S
O581 C577 1.260 . S
C582 O573 1.240 . S
C582 O574 1.252 . S
O583 In572 2.294 . S
O583 C576 1.240 . S
O584 In572 2.326 . S
O584 C576 1.252 . S
In585 O586 2.294 . S
In585 O587 2.326 . S
In585 O591 2.266 . S
In585 O592 2.326 . S
In585 O593 2.266 . S
In585 O594 2.326 . S
In585 O596 2.294 . S
In585 O597 2.326 . S
O586 In585 2.294 . S
O586 C595 1.240 . S
O587 In585 2.326 . S
O587 C595 1.252 . S
C588 O591 1.252 . S
C588 O592 1.260 . S
C589 O596 1.240 . S
C589 O597 1.252 . S
C590 O593 1.252 . S
C590 O594 1.260 . S
O591 In585 2.266 . S
O591 C588 1.252 . S
O592 In585 2.326 . S
O592 C588 1.260 . S
O593 In585 2.266 . S
O593 C590 1.252 . S
O594 In585 2.326 . S
O594 C590 1.260 . S
C595 O586 1.240 . S
C595 O587 1.252 . S
O596 In585 2.294 . S
O596 C589 1.240 . S
O597 In585 2.326 . S
O597 C589 1.252 . S
In598 O599 2.294 . S
In598 O600 2.326 . S
In598 O604 2.266 . S
In598 O605 2.326 . S
In598 O606 2.266 . S
In598 O607 2.326 . S
In598 O609 2.294 . S
In598 O610 2.326 . S
O599 In598 2.294 . S
O599 C608 1.240 . S
O600 In598 2.326 . S
O600 C608 1.252 . S
C601 O604 1.252 . S
C601 O605 1.260 . S
C602 O609 1.240 . S
C602 O610 1.252 . S
C603 O606 1.252 . S
C603 O607 1.260 . S
O604 In598 2.266 . S
O604 C601 1.252 . S
O605 In598 2.326 . S
O605 C601 1.260 . S
O606 In598 2.266 . S
O606 C603 1.252 . S
O607 In598 2.326 . S
O607 C603 1.260 . S
C608 O599 1.240 . S
C608 O600 1.252 . S
O609 In598 2.294 . S
O609 C602 1.240 . S
O610 In598 2.326 . S
O610 C602 1.252 . S
In611 O612 2.294 . S
In611 O613 2.326 . S
In611 O617 2.266 . S
In611 O618 2.326 . S
In611 O619 2.266 . S
In611 O620 2.326 . S
In611 O622 2.294 . S
In611 O623 2.326 . S
O612 In611 2.294 . S
O612 C621 1.240 . S
O613 In611 2.326 . S
O613 C621 1.252 . S
C614 O617 1.252 . S
C614 O618 1.260 . S
C615 O622 1.240 . S
C615 O623 1.252 . S
C616 O619 1.252 . S
C616 O620 1.260 . S
O617 In611 2.266 . S
O617 C614 1.252 . S
O618 In611 2.326 . S
O618 C614 1.260 . S
O619 In611 2.266 . S
O619 C616 1.252 . S
O620 In611 2.326 . S
O620 C616 1.260 . S
C621 O612 1.240 . S
C621 O613 1.252 . S
O622 In611 2.294 . S
O622 C615 1.240 . S
O623 In611 2.326 . S
O623 C615 1.252 . S
In624 O625 2.294 . S
In624 O626 2.326 . S
In624 O630 2.266 . S
In624 O631 2.326 . S
In624 O632 2.266 . S
In624 O633 2.326 . S
In624 O635 2.294 . S
In624 O636 2.326 . S
O625 In624 2.294 . S
O625 C634 1.240 . S
O626 In624 2.326 . S
O626 C634 1.252 . S
C627 O630 1.252 . S
C627 O631 1.260 . S
C628 O635 1.240 . S
C628 O636 1.252 . S
C629 O632 1.252 . S
C629 O633 1.260 . S
O630 In624 2.266 . S
O630 C627 1.252 . S
O631 In624 2.326 . S
O631 C627 1.260 . S
O632 In624 2.266 . S
O632 C629 1.252 . S
O633 In624 2.326 . S
O633 C629 1.260 . S
C634 O625 1.240 . S
C634 O626 1.252 . S
O635 In624 2.294 . S
O635 C628 1.240 . S
O636 In624 2.326 . S
O636 C628 1.252 . S
In637 O638 2.294 . S
In637 O639 2.326 . S
In637 O643 2.266 . S
In637 O644 2.326 . S
In637 O645 2.266 . S
In637 O646 2.326 . S
In637 O648 2.294 . S
In637 O649 2.326 . S
O638 In637 2.294 . S
O638 C647 1.240 . S
O639 In637 2.326 . S
O639 C647 1.252 . S
C640 O643 1.252 . S
C640 O644 1.260 . S
C641 O648 1.240 . S
C641 O649 1.252 . S
C642 O645 1.252 . S
C642 O646 1.260 . S
O643 In637 2.266 . S
O643 C640 1.252 . S
O644 In637 2.326 . S
O644 C640 1.260 . S
O645 In637 2.266 . S
O645 C642 1.252 . S
O646 In637 2.326 . S
O646 C642 1.260 . S
C647 O638 1.240 . S
C647 O639 1.252 . S
O648 In637 2.294 . S
O648 C641 1.240 . S
O649 In637 2.326 . S
O649 C641 1.252 . S
In650 O651 2.294 . S
In650 O652 2.326 . S
In650 O656 2.266 . S
In650 O657 2.326 . S
In650 O658 2.266 . S
In650 O659 2.326 . S
In650 O661 2.294 1_565 S
In650 O662 2.326 . S
O651 In650 2.294 . S
O651 C660 1.240 . S
O652 In650 2.326 . S
O652 C660 1.252 . S
C653 O656 1.252 . S
C653 O657 1.260 . S
C654 O661 1.240 1_565 S
C654 O662 1.252 . S
C655 O658 1.252 . S
C655 O659 1.260 . S
O656 In650 2.266 . S
O656 C653 1.252 . S
O657 In650 2.326 . S
O657 C653 1.260 . S
O658 In650 2.266 . S
O658 C655 1.252 . S
O659 In650 2.326 . S
O659 C655 1.260 . S
C660 O651 1.240 . S
C660 O652 1.252 . S
O661 In650 2.294 1_545 S
O661 C654 1.240 1_545 S
O662 In650 2.326 . S
O662 C654 1.252 . S
In663 O664 2.294 . S
In663 O665 2.326 . S
In663 O669 2.266 . S
In663 O670 2.326 . S
In663 O671 2.266 . S
In663 O672 2.326 . S
In663 O674 2.294 . S
In663 O675 2.326 . S
O664 In663 2.294 . S
O664 C673 1.240 . S
O665 In663 2.326 . S
O665 C673 1.252 . S
C666 O669 1.252 . S
C666 O670 1.260 . S
C667 O674 1.240 . S
C667 O675 1.252 . S
C668 O671 1.252 . S
C668 O672 1.260 . S
O669 In663 2.266 . S
O669 C666 1.252 . S
O670 In663 2.326 . S
O670 C666 1.260 . S
O671 In663 2.266 . S
O671 C668 1.252 . S
O672 In663 2.326 . S
O672 C668 1.260 . S
C673 O664 1.240 . S
C673 O665 1.252 . S
O674 In663 2.294 . S
O674 C667 1.240 . S
O675 In663 2.326 . S
O675 C667 1.252 . S
In676 O677 2.294 . S
In676 O678 2.326 . S
In676 O682 2.266 . S
In676 O683 2.326 . S
In676 O684 2.266 . S
In676 O685 2.326 . S
In676 O687 2.294 . S
In676 O688 2.326 . S
O677 In676 2.294 . S
O677 C686 1.240 . S
O678 In676 2.326 . S
O678 C686 1.252 . S
C679 O682 1.252 . S
C679 O683 1.260 . S
C680 O687 1.240 . S
C680 O688 1.252 . S
C681 O684 1.252 . S
C681 O685 1.260 . S
O682 In676 2.266 . S
O682 C679 1.252 . S
O683 In676 2.326 . S
O683 C679 1.260 . S
O684 In676 2.266 . S
O684 C681 1.252 . S
O685 In676 2.326 . S
O685 C681 1.260 . S
C686 O677 1.240 . S
C686 O678 1.252 . S
O687 In676 2.294 . S
O687 C680 1.240 . S
O688 In676 2.326 . S
O688 C680 1.252 . S
In689 O690 2.294 . S
In689 O691 2.326 . S
In689 O695 2.266 . S
In689 O696 2.326 . S
In689 O697 2.266 . S
In689 O698 2.326 . S
In689 O700 2.294 . S
In689 O701 2.326 . S
O690 In689 2.294 . S
O690 C699 1.240 . S
O691 In689 2.326 . S
O691 C699 1.252 . S
C692 O695 1.252 . S
C692 O696 1.260 . S
C693 O700 1.240 . S
C693 O701 1.252 . S
C694 O697 1.252 . S
C694 O698 1.260 . S
O695 In689 2.266 . S
O695 C692 1.252 . S
O696 In689 2.326 . S
O696 C692 1.260 . S
O697 In689 2.266 . S
O697 C694 1.252 . S
O698 In689 2.326 . S
O698 C694 1.260 . S
C699 O690 1.240 . S
C699 O691 1.252 . S
O700 In689 2.294 . S
O700 C693 1.240 . S
O701 In689 2.326 . S
O701 C693 1.252 . S
In702 O703 2.294 1_545 S
In702 O704 2.326 . S
In702 O708 2.266 . S
In702 O709 2.326 . S
In702 O710 2.266 . S
In702 O711 2.326 . S
In702 O713 2.294 . S
In702 O714 2.326 . S
O703 In702 2.294 1_565 S
O703 C712 1.240 1_565 S
O704 In702 2.326 . S
O704 C712 1.252 . S
C705 O708 1.252 . S
C705 O709 1.260 . S
C706 O713 1.240 . S
C706 O714 1.252 . S
C707 O710 1.252 . S
C707 O711 1.260 . S
O708 In702 2.266 . S
O708 C705 1.252 . S
O709 In702 2.326 . S
O709 C705 1.260 . S
O710 In702 2.266 . S
O710 C707 1.252 . S
O711 In702 2.326 . S
O711 C707 1.260 . S
C712 O703 1.240 1_545 S
C712 O704 1.252 . S
O713 In702 2.294 . S
O713 C706 1.240 . S
O714 In702 2.326 . S
O714 C706 1.252 . S
In715 O716 2.294 . S
In715 O717 2.326 . S
In715 O721 2.266 . S
In715 O722 2.326 . S
In715 O723 2.266 . S
In715 O724 2.326 . S
In715 O726 2.294 . S
In715 O727 2.326 . S
O716 In715 2.294 . S
O716 C725 1.240 . S
O717 In715 2.326 . S
O717 C725 1.252 . S
C718 O721 1.252 . S
C718 O722 1.260 . S
C719 O726 1.240 . S
C719 O727 1.252 . S
C720 O723 1.252 . S
C720 O724 1.260 . S
O721 In715 2.266 . S
O721 C718 1.252 . S
O722 In715 2.326 . S
O722 C718 1.260 . S
O723 In715 2.266 . S
O723 C720 1.252 . S
O724 In715 2.326 . S
O724 C720 1.260 . S
C725 O716 1.240 . S
C725 O717 1.252 . S
O726 In715 2.294 . S
O726 C719 1.240 . S
O727 In715 2.326 . S
O727 C719 1.252 . S
In728 O729 2.294 1_554 S
In728 O730 2.326 . S
In728 O734 2.266 . S
In728 O735 2.326 . S
In728 O736 2.266 . S
In728 O737 2.326 . S
In728 O739 2.294 . S
In728 O740 2.326 . S
O729 In728 2.294 1_556 S
O729 C738 1.240 1_556 S
O730 In728 2.326 . S
O730 C738 1.252 . S
C731 O734 1.252 . S
C731 O735 1.260 . S
C732 O739 1.240 . S
C732 O740 1.252 . S
C733 O736 1.252 . S
C733 O737 1.260 . S
O734 In728 2.266 . S
O734 C731 1.252 . S
O735 In728 2.326 . S
O735 C731 1.260 . S
O736 In728 2.266 . S
O736 C733 1.252 . S
O737 In728 2.326 . S
O737 C733 1.260 . S
C738 O729 1.240 1_554 S
C738 O730 1.252 . S
O739 In728 2.294 . S
O739 C732 1.240 . S
O740 In728 2.326 . S
O740 C732 1.252 . S
In741 O742 2.294 . S
In741 O743 2.326 . S
In741 O747 2.266 . S
In741 O748 2.326 . S
In741 O749 2.266 . S
In741 O750 2.326 . S
In741 O752 2.294 . S
In741 O753 2.326 . S
O742 In741 2.294 . S
O742 C751 1.240 . S
O743 In741 2.326 . S
O743 C751 1.252 . S
C744 O747 1.252 . S
C744 O748 1.260 . S
C745 O752 1.240 . S
C745 O753 1.252 . S
C746 O749 1.252 . S
C746 O750 1.260 . S
O747 In741 2.266 . S
O747 C744 1.252 . S
O748 In741 2.326 . S
O748 C744 1.260 . S
O749 In741 2.266 . S
O749 C746 1.252 . S
O750 In741 2.326 . S
O750 C746 1.260 . S
C751 O742 1.240 . S
C751 O743 1.252 . S
O752 In741 2.294 . S
O752 C745 1.240 . S
O753 In741 2.326 . S
O753 C745 1.252 . S
In754 O755 2.294 . S
In754 O756 2.326 . S
In754 O760 2.266 . S
In754 O761 2.326 . S
In754 O762 2.266 . S
In754 O763 2.326 . S
In754 O765 2.294 . S
In754 O766 2.326 . S
O755 In754 2.294 . S
O755 C764 1.240 . S
O756 In754 2.326 . S
O756 C764 1.252 . S
C757 O760 1.252 . S
C757 O761 1.260 . S
C758 O765 1.240 . S
C758 O766 1.252 . S
C759 O762 1.252 . S
C759 O763 1.260 . S
O760 In754 2.266 . S
O760 C757 1.252 . S
O761 In754 2.326 . S
O761 C757 1.260 . S
O762 In754 2.266 . S
O762 C759 1.252 . S
O763 In754 2.326 . S
O763 C759 1.260 . S
C764 O755 1.240 . S
C764 O756 1.252 . S
O765 In754 2.294 . S
O765 C758 1.240 . S
O766 In754 2.326 . S
O766 C758 1.252 . S
In767 O768 2.294 . S
In767 O769 2.326 . S
In767 O773 2.266 . S
In767 O774 2.326 . S
In767 O775 2.266 . S
In767 O776 2.326 . S
In767 O778 2.294 . S
In767 O779 2.326 . S
O768 In767 2.294 . S
O768 C777 1.240 . S
O769 In767 2.326 . S
O769 C777 1.252 . S
C770 O773 1.252 . S
C770 O774 1.260 . S
C771 O778 1.240 . S
C771 O779 1.252 . S
C772 O775 1.252 . S
C772 O776 1.260 . S
O773 In767 2.266 . S
O773 C770 1.252 . S
O774 In767 2.326 . S
O774 C770 1.260 . S
O775 In767 2.266 . S
O775 C772 1.252 . S
O776 In767 2.326 . S
O776 C772 1.260 . S
C777 O768 1.240 . S
C777 O769 1.252 . S
O778 In767 2.294 . S
O778 C771 1.240 . S
O779 In767 2.326 . S
O779 C771 1.252 . S
In780 O781 2.294 . S
In780 O782 2.326 . S
In780 O786 2.266 . S
In780 O787 2.326 . S
In780 O788 2.266 . S
In780 O789 2.326 . S
In780 O791 2.294 1_556 S
In780 O792 2.326 . S
O781 In780 2.294 . S
O781 C790 1.240 . S
O782 In780 2.326 . S
O782 C790 1.252 . S
C783 O786 1.252 . S
C783 O787 1.260 . S
C784 O791 1.240 1_556 S
C784 O792 1.252 . S
C785 O788 1.252 . S
C785 O789 1.260 . S
O786 In780 2.266 . S
O786 C783 1.252 . S
O787 In780 2.326 . S
O787 C783 1.260 . S
O788 In780 2.266 . S
O788 C785 1.252 . S
O789 In780 2.326 . S
O789 C785 1.260 . S
C790 O781 1.240 . S
C790 O782 1.252 . S
O791 In780 2.294 1_554 S
O791 C784 1.240 1_554 S
O792 In780 2.326 . S
O792 C784 1.252 . S
In793 O794 2.294 . S
In793 O795 2.326 . S
In793 O799 2.266 . S
In793 O800 2.326 . S
In793 O801 2.266 . S
In793 O802 2.326 . S
In793 O804 2.294 . S
In793 O805 2.326 . S
O794 In793 2.294 . S
O794 C803 1.240 . S
O795 In793 2.326 . S
O795 C803 1.252 . S
C796 O799 1.252 . S
C796 O800 1.260 . S
C797 O804 1.240 . S
C797 O805 1.252 . S
C798 O801 1.252 . S
C798 O802 1.260 . S
O799 In793 2.266 . S
O799 C796 1.252 . S
O800 In793 2.326 . S
O800 C796 1.260 . S
O801 In793 2.266 . S
O801 C798 1.252 . S
O802 In793 2.326 . S
O802 C798 1.260 . S
C803 O794 1.240 . S
C803 O795 1.252 . S
O804 In793 2.294 . S
O804 C797 1.240 . S
O805 In793 2.326 . S
O805 C797 1.252 . S
In806 O807 2.294 . S
In806 O808 2.326 . S
In806 O812 2.266 . S
In806 O813 2.326 . S
In806 O814 2.266 . S
In806 O815 2.326 . S
In806 O817 2.294 . S
In806 O818 2.326 . S
O807 In806 2.294 . S
O807 C816 1.240 . S
O808 In806 2.326 . S
O808 C816 1.252 . S
C809 O812 1.252 . S
C809 O813 1.260 . S
C810 O817 1.240 . S
C810 O818 1.252 . S
C811 O814 1.252 . S
C811 O815 1.260 . S
O812 In806 2.266 . S
O812 C809 1.252 . S
O813 In806 2.326 . S
O813 C809 1.260 . S
O814 In806 2.266 . S
O814 C811 1.252 . S
O815 In806 2.326 . S
O815 C811 1.260 . S
C816 O807 1.240 . S
C816 O808 1.252 . S
O817 In806 2.294 . S
O817 C810 1.240 . S
O818 In806 2.326 . S
O818 C810 1.252 . S
In819 O820 2.294 . S
In819 O821 2.326 . S
In819 O825 2.266 . S
In819 O826 2.326 . S
In819 O827 2.266 . S
In819 O828 2.326 . S
In819 O830 2.294 . S
In819 O831 2.326 . S
O820 In819 2.294 . S
O820 C829 1.240 . S
O821 In819 2.326 . S
O821 C829 1.252 . S
C822 O825 1.252 . S
C822 O826 1.260 . S
C823 O830 1.240 . S
C823 O831 1.252 . S
C824 O827 1.252 . S
C824 O828 1.260 . S
O825 In819 2.266 . S
O825 C822 1.252 . S
O826 In819 2.326 . S
O826 C822 1.260 . S
O827 In819 2.266 . S
O827 C824 1.252 . S
O828 In819 2.326 . S
O828 C824 1.260 . S
C829 O820 1.240 . S
C829 O821 1.252 . S
O830 In819 2.294 . S
O830 C823 1.240 . S
O831 In819 2.326 . S
O831 C823 1.252 . S
In832 O833 2.294 1_455 S
In832 O834 2.326 . S
In832 O838 2.266 . S
In832 O839 2.326 . S
In832 O840 2.266 . S
In832 O841 2.326 . S
In832 O843 2.294 . S
In832 O844 2.326 . S
O833 In832 2.294 1_655 S
O833 C842 1.240 1_655 S
O834 In832 2.326 . S
O834 C842 1.252 . S
C835 O838 1.252 . S
C835 O839 1.260 . S
C836 O843 1.240 . S
C836 O844 1.252 . S
C837 O840 1.252 . S
C837 O841 1.260 . S
O838 In832 2.266 . S
O838 C835 1.252 . S
O839 In832 2.326 . S
O839 C835 1.260 . S
O840 In832 2.266 . S
O840 C837 1.252 . S
O841 In832 2.326 . S
O841 C837 1.260 . S
C842 O833 1.240 1_455 S
C842 O834 1.252 . S
O843 In832 2.294 . S
O843 C836 1.240 . S
O844 In832 2.326 . S
O844 C836 1.252 . S
In845 O846 2.294 . S
In845 O847 2.326 . S
In845 O851 2.266 . S
In845 O852 2.326 . S
In845 O853 2.266 . S
In845 O854 2.326 . S
In845 O856 2.294 . S
In845 O857 2.326 . S
O846 In845 2.294 . S
O846 C855 1.240 . S
O847 In845 2.326 . S
O847 C855 1.252 . S
C848 O851 1.252 . S
C848 O852 1.260 . S
C849 O856 1.240 . S
C849 O857 1.252 . S
C850 O853 1.252 . S
C850 O854 1.260 . S
O851 In845 2.266 . S
O851 C848 1.252 . S
O852 In845 2.326 . S
O852 C848 1.260 . S
O853 In845 2.266 . S
O853 C850 1.252 . S
O854 In845 2.326 . S
O854 C850 1.260 . S
C855 O846 1.240 . S
C855 O847 1.252 . S
O856 In845 2.294 . S
O856 C849 1.240 . S
O857 In845 2.326 . S
O857 C849 1.252 . S
In858 O859 2.294 . S
In858 O860 2.326 . S
In858 O864 2.266 . S
In858 O865 2.326 . S
In858 O866 2.266 . S
In858 O867 2.326 . S
In858 O869 2.294 . S
In858 O870 2.326 . S
O859 In858 2.294 . S
O859 C868 1.240 . S
O860 In858 2.326 . S
O860 C868 1.252 . S
C861 O864 1.252 . S
C861 O865 1.260 . S
C862 O869 1.240 . S
C862 O870 1.252 . S
C863 O866 1.252 . S
C863 O867 1.260 . S
O864 In858 2.266 . S
O864 C861 1.252 . S
O865 In858 2.326 . S
O865 C861 1.260 . S
O866 In858 2.266 . S
O866 C863 1.252 . S
O867 In858 2.326 . S
O867 C863 1.260 . S
C868 O859 1.240 . S
C868 O860 1.252 . S
O869 In858 2.294 . S
O869 C862 1.240 . S
O870 In858 2.326 . S
O870 C862 1.252 . S
In871 O872 2.294 . S
In871 O873 2.326 . S
In871 O877 2.266 . S
In871 O878 2.326 . S
In871 O879 2.266 . S
In871 O880 2.326 . S
In871 O882 2.294 . S
In871 O883 2.326 . S
O872 In871 2.294 . S
O872 C881 1.240 . S
O873 In871 2.326 . S
O873 C881 1.252 . S
C874 O877 1.252 . S
C874 O878 1.260 . S
C875 O882 1.240 . S
C875 O883 1.252 . S
C876 O879 1.252 . S
C876 O880 1.260 . S
O877 In871 2.266 . S
O877 C874 1.252 . S
O878 In871 2.326 . S
O878 C874 1.260 . S
O879 In871 2.266 . S
O879 C876 1.252 . S
O880 In871 2.326 . S
O880 C876 1.260 . S
C881 O872 1.240 . S
C881 O873 1.252 . S
O882 In871 2.294 . S
O882 C875 1.240 . S
O883 In871 2.326 . S
O883 C875 1.252 . S
In884 O885 2.294 . S
In884 O886 2.326 . S
In884 O890 2.266 . S
In884 O891 2.326 . S
In884 O892 2.266 . S
In884 O893 2.326 . S
In884 O895 2.294 . S
In884 O896 2.326 . S
O885 In884 2.294 . S
O885 C894 1.240 . S
O886 In884 2.326 . S
O886 C894 1.252 . S
C887 O890 1.252 . S
C887 O891 1.260 . S
C888 O895 1.240 . S
C888 O896 1.252 . S
C889 O892 1.252 . S
C889 O893 1.260 . S
O890 In884 2.266 . S
O890 C887 1.252 . S
O891 In884 2.326 . S
O891 C887 1.260 . S
O892 In884 2.266 . S
O892 C889 1.252 . S
O893 In884 2.326 . S
O893 C889 1.260 . S
C894 O885 1.240 . S
C894 O886 1.252 . S
O895 In884 2.294 . S
O895 C888 1.240 . S
O896 In884 2.326 . S
O896 C888 1.252 . S
In897 O898 2.294 . S
In897 O899 2.326 . S
In897 O903 2.266 . S
In897 O904 2.326 . S
In897 O905 2.266 . S
In897 O906 2.326 . S
In897 O908 2.294 1_655 S
In897 O909 2.326 . S
O898 In897 2.294 . S
O898 C907 1.240 . S
O899 In897 2.326 . S
O899 C907 1.252 . S
C900 O903 1.252 . S
C900 O904 1.260 . S
C901 O908 1.240 1_655 S
C901 O909 1.252 . S
C902 O905 1.252 . S
C902 O906 1.260 . S
O903 In897 2.266 . S
O903 C900 1.252 . S
O904 In897 2.326 . S
O904 C900 1.260 . S
O905 In897 2.266 . S
O905 C902 1.252 . S
O906 In897 2.326 . S
O906 C902 1.260 . S
C907 O898 1.240 . S
C907 O899 1.252 . S
O908 In897 2.294 1_455 S
O908 C901 1.240 1_455 S
O909 In897 2.326 . S
O909 C901 1.252 . S
In910 O911 2.294 . S
In910 O912 2.326 . S
In910 O916 2.266 . S
In910 O917 2.326 . S
In910 O918 2.266 . S
In910 O919 2.326 . S
In910 O921 2.294 . S
In910 O922 2.326 . S
O911 In910 2.294 . S
O911 C920 1.240 . S
O912 In910 2.326 . S
O912 C920 1.252 . S
C913 O916 1.252 . S
C913 O917 1.260 . S
C914 O921 1.240 . S
C914 O922 1.252 . S
C915 O918 1.252 . S
C915 O919 1.260 . S
O916 In910 2.266 . S
O916 C913 1.252 . S
O917 In910 2.326 . S
O917 C913 1.260 . S
O918 In910 2.266 . S
O918 C915 1.252 . S
O919 In910 2.326 . S
O919 C915 1.260 . S
C920 O911 1.240 . S
C920 O912 1.252 . S
O921 In910 2.294 . S
O921 C914 1.240 . S
O922 In910 2.326 . S
O922 C914 1.252 . S
In923 O924 2.294 . S
In923 O925 2.326 . S
In923 O929 2.266 . S
In923 O930 2.326 . S
In923 O931 2.266 . S
In923 O932 2.326 . S
In923 O934 2.294 . S
In923 O935 2.326 . S
O924 In923 2.294 . S
O924 C933 1.240 . S
O925 In923 2.326 . S
O925 C933 1.252 . S
C926 O929 1.252 . S
C926 O930 1.260 . S
C927 O934 1.240 . S
C927 O935 1.252 . S
C928 O931 1.252 . S
C928 O932 1.260 . S
O929 In923 2.266 . S
O929 C926 1.252 . S
O930 In923 2.326 . S
O930 C926 1.260 . S
O931 In923 2.266 . S
O931 C928 1.252 . S
O932 In923 2.326 . S
O932 C928 1.260 . S
C933 O924 1.240 . S
C933 O925 1.252 . S
O934 In923 2.294 . S
O934 C927 1.240 . S
O935 In923 2.326 . S
O935 C927 1.252 . S
In936 O937 2.294 . S
In936 O938 2.326 . S
In936 O942 2.266 . S
In936 O943 2.326 . S
In936 O944 2.266 . S
In936 O945 2.326 . S
In936 O947 2.294 1_545 S
In936 O948 2.326 . S
O937 In936 2.294 . S
O937 C946 1.240 . S
O938 In936 2.326 . S
O938 C946 1.252 . S
C939 O942 1.252 . S
C939 O943 1.260 . S
C940 O947 1.240 1_545 S
C940 O948 1.252 . S
C941 O944 1.252 . S
C941 O945 1.260 . S
O942 In936 2.266 . S
O942 C939 1.252 . S
O943 In936 2.326 . S
O943 C939 1.260 . S
O944 In936 2.266 . S
O944 C941 1.252 . S
O945 In936 2.326 . S
O945 C941 1.260 . S
C946 O937 1.240 . S
C946 O938 1.252 . S
O947 In936 2.294 1_565 S
O947 C940 1.240 1_565 S
O948 In936 2.326 . S
O948 C940 1.252 . S
In949 O950 2.294 . S
In949 O951 2.326 . S
In949 O955 2.266 . S
In949 O956 2.326 . S
In949 O957 2.266 . S
In949 O958 2.326 . S
In949 O960 2.294 . S
In949 O961 2.326 . S
O950 In949 2.294 . S
O950 C959 1.240 . S
O951 In949 2.326 . S
O951 C959 1.252 . S
C952 O955 1.252 . S
C952 O956 1.260 . S
C953 O960 1.240 . S
C953 O961 1.252 . S
C954 O957 1.252 . S
C954 O958 1.260 . S
O955 In949 2.266 . S
O955 C952 1.252 . S
O956 In949 2.326 . S
O956 C952 1.260 . S
O957 In949 2.266 . S
O957 C954 1.252 . S
O958 In949 2.326 . S
O958 C954 1.260 . S
C959 O950 1.240 . S
C959 O951 1.252 . S
O960 In949 2.294 . S
O960 C953 1.240 . S
O961 In949 2.326 . S
O961 C953 1.252 . S
In962 O963 2.294 . S
In962 O964 2.326 . S
In962 O968 2.266 . S
In962 O969 2.326 . S
In962 O970 2.266 . S
In962 O971 2.326 . S
In962 O973 2.294 . S
In962 O974 2.326 . S
O963 In962 2.294 . S
O963 C972 1.240 . S
O964 In962 2.326 . S
O964 C972 1.252 . S
C965 O968 1.252 . S
C965 O969 1.260 . S
C966 O973 1.240 . S
C966 O974 1.252 . S
C967 O970 1.252 . S
C967 O971 1.260 . S
O968 In962 2.266 . S
O968 C965 1.252 . S
O969 In962 2.326 . S
O969 C965 1.260 . S
O970 In962 2.266 . S
O970 C967 1.252 . S
O971 In962 2.326 . S
O971 C967 1.260 . S
C972 O963 1.240 . S
C972 O964 1.252 . S
O973 In962 2.294 . S
O973 C966 1.240 . S
O974 In962 2.326 . S
O974 C966 1.252 . S
In975 O976 2.294 . S
In975 O977 2.326 . S
In975 O981 2.266 . S
In975 O982 2.326 . S
In975 O983 2.266 . S
In975 O984 2.326 . S
In975 O986 2.294 . S
In975 O987 2.326 . S
O976 In975 2.294 . S
O976 C985 1.240 . S
O977 In975 2.326 . S
O977 C985 1.252 . S
C978 O981 1.252 . S
C978 O982 1.260 . S
C979 O986 1.240 . S
C979 O987 1.252 . S
C980 O983 1.252 . S
C980 O984 1.260 . S
O981 In975 2.266 . S
O981 C978 1.252 . S
O982 In975 2.326 . S
O982 C978 1.260 . S
O983 In975 2.266 . S
O983 C980 1.252 . S
O984 In975 2.326 . S
O984 C980 1.260 . S
C985 O976 1.240 . S
C985 O977 1.252 . S
O986 In975 2.294 . S
O986 C979 1.240 . S
O987 In975 2.326 . S
O987 C979 1.252 . S
In988 O989 2.294 . S
In988 O990 2.326 . S
In988 O994 2.266 . S
In988 O995 2.326 . S
In988 O996 2.266 . S
In988 O997 2.326 . S
In988 O999 2.294 1_565 S
In988 O1000 2.326 . S
O989 In988 2.294 . S
O989 C998 1.240 . S
O990 In988 2.326 . S
O990 C998 1.252 . S
C991 O994 1.252 . S
C991 O995 1.260 . S
C992 O999 1.240 1_565 S
C992 O1000 1.252 . S
C993 O996 1.252 . S
C993 O997 1.260 . S
O994 In988 2.266 . S
O994 C991 1.252 . S
O995 In988 2.326 . S
O995 C991 1.260 . S
O996 In988 2.266 . S
O996 C993 1.252 . S
O997 In988 2.326 . S
O997 C993 1.260 . S
C998 O989 1.240 . S
C998 O990 1.252 . S
O999 In988 2.294 1_545 S
O999 C992 1.240 1_545 S
O1000 In988 2.326 . S
O1000 C992 1.252 . S
In1001 O1002 2.294 . S
In1001 O1003 2.326 . S
In1001 O1007 2.266 . S
In1001 O1008 2.326 . S
In1001 O1009 2.266 . S
In1001 O1010 2.326 . S
In1001 O1012 2.294 . S
In1001 O1013 2.326 . S
O1002 In1001 2.294 . S
O1002 C1011 1.240 . S
O1003 In1001 2.326 . S
O1003 C1011 1.252 . S
C1004 O1007 1.252 . S
C1004 O1008 1.260 . S
C1005 O1012 1.240 . S
C1005 O1013 1.252 . S
C1006 O1009 1.252 . S
C1006 O1010 1.260 . S
O1007 In1001 2.266 . S
O1007 C1004 1.252 . S
O1008 In1001 2.326 . S
O1008 C1004 1.260 . S
O1009 In1001 2.266 . S
O1009 C1006 1.252 . S
O1010 In1001 2.326 . S
O1010 C1006 1.260 . S
C1011 O1002 1.240 . S
C1011 O1003 1.252 . S
O1012 In1001 2.294 . S
O1012 C1005 1.240 . S
O1013 In1001 2.326 . S
O1013 C1005 1.252 . S
In1014 O1015 2.294 . S
In1014 O1016 2.326 . S
In1014 O1020 2.266 . S
In1014 O1021 2.326 . S
In1014 O1022 2.266 . S
In1014 O1023 2.326 . S
In1014 O1025 2.294 . S
In1014 O1026 2.326 . S
O1015 In1014 2.294 . S
O1015 C1024 1.240 . S
O1016 In1014 2.326 . S
O1016 C1024 1.252 . S
C1017 O1020 1.252 . S
C1017 O1021 1.260 . S
C1018 O1025 1.240 . S
C1018 O1026 1.252 . S
C1019 O1022 1.252 . S
C1019 O1023 1.260 . S
O1020 In1014 2.266 . S
O1020 C1017 1.252 . S
O1021 In1014 2.326 . S
O1021 C1017 1.260 . S
O1022 In1014 2.266 . S
O1022 C1019 1.252 . S
O1023 In1014 2.326 . S
O1023 C1019 1.260 . S
C1024 O1015 1.240 . S
C1024 O1016 1.252 . S
O1025 In1014 2.294 . S
O1025 C1018 1.240 . S
O1026 In1014 2.326 . S
O1026 C1018 1.252 . S
In1027 O1028 2.294 . S
In1027 O1029 2.326 . S
In1027 O1033 2.266 . S
In1027 O1034 2.326 . S
In1027 O1035 2.266 . S
In1027 O1036 2.326 . S
In1027 O1038 2.294 . S
In1027 O1039 2.326 . S
O1028 In1027 2.294 . S
O1028 C1037 1.240 . S
O1029 In1027 2.326 . S
O1029 C1037 1.252 . S
C1030 O1033 1.252 . S
C1030 O1034 1.260 . S
C1031 O1038 1.240 . S
C1031 O1039 1.252 . S
C1032 O1035 1.252 . S
C1032 O1036 1.260 . S
O1033 In1027 2.266 . S
O1033 C1030 1.252 . S
O1034 In1027 2.326 . S
O1034 C1030 1.260 . S
O1035 In1027 2.266 . S
O1035 C1032 1.252 . S
O1036 In1027 2.326 . S
O1036 C1032 1.260 . S
C1037 O1028 1.240 . S
C1037 O1029 1.252 . S
O1038 In1027 2.294 . S
O1038 C1031 1.240 . S
O1039 In1027 2.326 . S
O1039 C1031 1.252 . S
In1040 O1041 2.294 . S
In1040 O1042 2.326 . S
In1040 O1046 2.266 . S
In1040 O1047 2.326 . S
In1040 O1048 2.266 . S
In1040 O1049 2.326 . S
In1040 O1051 2.294 . S
In1040 O1052 2.326 . S
O1041 In1040 2.294 . S
O1041 C1050 1.240 . S
O1042 In1040 2.326 . S
O1042 C1050 1.252 . S
C1043 O1046 1.252 . S
C1043 O1047 1.260 . S
C1044 O1051 1.240 . S
C1044 O1052 1.252 . S
C1045 O1048 1.252 . S
C1045 O1049 1.260 . S
O1046 In1040 2.266 . S
O1046 C1043 1.252 . S
O1047 In1040 2.326 . S
O1047 C1043 1.260 . S
O1048 In1040 2.266 . S
O1048 C1045 1.252 . S
O1049 In1040 2.326 . S
O1049 C1045 1.260 . S
C1050 O1041 1.240 . S
C1050 O1042 1.252 . S
O1051 In1040 2.294 . S
O1051 C1044 1.240 . S
O1052 In1040 2.326 . S
O1052 C1044 1.252 . S
In1053 O1054 2.294 . S
In1053 O1055 2.326 . S
In1053 O1059 2.266 . S
In1053 O1060 2.326 . S
In1053 O1061 2.266 . S
In1053 O1062 2.326 . S
In1053 O1064 2.294 . S
In1053 O1065 2.326 . S
O1054 In1053 2.294 . S
O1054 C1063 1.240 . S
O1055 In1053 2.326 . S
O1055 C1063 1.252 . S
C1056 O1059 1.252 . S
C1056 O1060 1.260 . S
C1057 O1064 1.240 . S
C1057 O1065 1.252 . S
C1058 O1061 1.252 . S
C1058 O1062 1.260 . S
O1059 In1053 2.266 . S
O1059 C1056 1.252 . S
O1060 In1053 2.326 . S
O1060 C1056 1.260 . S
O1061 In1053 2.266 . S
O1061 C1058 1.252 . S
O1062 In1053 2.326 . S
O1062 C1058 1.260 . S
C1063 O1054 1.240 . S
C1063 O1055 1.252 . S
O1064 In1053 2.294 . S
O1064 C1057 1.240 . S
O1065 In1053 2.326 . S
O1065 C1057 1.252 . S
In1066 O1067 2.294 . S
In1066 O1068 2.326 . S
In1066 O1072 2.266 . S
In1066 O1073 2.326 . S
In1066 O1074 2.266 . S
In1066 O1075 2.326 . S
In1066 O1077 2.294 1_554 S
In1066 O1078 2.326 . S
O1067 In1066 2.294 . S
O1067 C1076 1.240 . S
O1068 In1066 2.326 . S
O1068 C1076 1.252 . S
C1069 O1072 1.252 . S
C1069 O1073 1.260 . S
C1070 O1077 1.240 1_554 S
C1070 O1078 1.252 . S
C1071 O1074 1.252 . S
C1071 O1075 1.260 . S
O1072 In1066 2.266 . S
O1072 C1069 1.252 . S
O1073 In1066 2.326 . S
O1073 C1069 1.260 . S
O1074 In1066 2.266 . S
O1074 C1071 1.252 . S
O1075 In1066 2.326 . S
O1075 C1071 1.260 . S
C1076 O1067 1.240 . S
C1076 O1068 1.252 . S
O1077 In1066 2.294 1_556 S
O1077 C1070 1.240 1_556 S
O1078 In1066 2.326 . S
O1078 C1070 1.252 . S
In1079 O1080 2.294 . S
In1079 O1081 2.326 . S
In1079 O1085 2.266 . S
In1079 O1086 2.326 . S
In1079 O1087 2.266 . S
In1079 O1088 2.326 . S
In1079 O1090 2.294 . S
In1079 O1091 2.326 . S
O1080 In1079 2.294 . S
O1080 C1089 1.240 . S
O1081 In1079 2.326 . S
O1081 C1089 1.252 . S
C1082 O1085 1.252 . S
C1082 O1086 1.260 . S
C1083 O1090 1.240 . S
C1083 O1091 1.252 . S
C1084 O1087 1.252 . S
C1084 O1088 1.260 . S
O1085 In1079 2.266 . S
O1085 C1082 1.252 . S
O1086 In1079 2.326 . S
O1086 C1082 1.260 . S
O1087 In1079 2.266 . S
O1087 C1084 1.252 . S
O1088 In1079 2.326 . S
O1088 C1084 1.260 . S
C1089 O1080 1.240 . S
C1089 O1081 1.252 . S
O1090 In1079 2.294 . S
O1090 C1083 1.240 . S
O1091 In1079 2.326 . S
O1091 C1083 1.252 . S
In1092 O1093 2.294 . S
In1092 O1094 2.326 . S
In1092 O1098 2.266 . S
In1092 O1099 2.326 . S
In1092 O1100 2.266 . S
In1092 O1101 2.326 . S
In1092 O1103 2.294 . S
In1092 O1104 2.326 . S
O1093 In1092 2.294 . S
O1093 C1102 1.240 . S
O1094 In1092 2.326 . S
O1094 C1102 1.252 . S
C1095 O1098 1.252 . S
C1095 O1099 1.260 . S
C1096 O1103 1.240 . S
C1096 O1104 1.252 . S
C1097 O1100 1.252 . S
C1097 O1101 1.260 . S
O1098 In1092 2.266 . S
O1098 C1095 1.252 . S
O1099 In1092 2.326 . S
O1099 C1095 1.260 . S
O1100 In1092 2.266 . S
O1100 C1097 1.252 . S
O1101 In1092 2.326 . S
O1101 C1097 1.260 . S
C1102 O1093 1.240 . S
C1102 O1094 1.252 . S
O1103 In1092 2.294 . S
O1103 C1096 1.240 . S
O1104 In1092 2.326 . S
O1104 C1096 1.252 . S
In1105 O1106 2.294 . S
In1105 O1107 2.326 . S
In1105 O1111 2.266 . S
In1105 O1112 2.326 . S
In1105 O1113 2.266 . S
In1105 O1114 2.326 . S
In1105 O1116 2.294 . S
In1105 O1117 2.326 . S
O1106 In1105 2.294 . S
O1106 C1115 1.240 . S
O1107 In1105 2.326 . S
O1107 C1115 1.252 . S
C1108 O1111 1.252 . S
C1108 O1112 1.260 . S
C1109 O1116 1.240 . S
C1109 O1117 1.252 . S
C1110 O1113 1.252 . S
C1110 O1114 1.260 . S
O1111 In1105 2.266 . S
O1111 C1108 1.252 . S
O1112 In1105 2.326 . S
O1112 C1108 1.260 . S
O1113 In1105 2.266 . S
O1113 C1110 1.252 . S
O1114 In1105 2.326 . S
O1114 C1110 1.260 . S
C1115 O1106 1.240 . S
C1115 O1107 1.252 . S
O1116 In1105 2.294 . S
O1116 C1109 1.240 . S
O1117 In1105 2.326 . S
O1117 C1109 1.252 . S
In1118 O1119 2.294 . S
In1118 O1120 2.326 . S
In1118 O1124 2.266 . S
In1118 O1125 2.326 . S
In1118 O1126 2.266 . S
In1118 O1127 2.326 . S
In1118 O1129 2.294 1_556 S
In1118 O1130 2.326 . S
O1119 In1118 2.294 . S
O1119 C1128 1.240 . S
O1120 In1118 2.326 . S
O1120 C1128 1.252 . S
C1121 O1124 1.252 . S
C1121 O1125 1.260 . S
C1122 O1129 1.240 1_556 S
C1122 O1130 1.252 . S
C1123 O1126 1.252 . S
C1123 O1127 1.260 . S
O1124 In1118 2.266 . S
O1124 C1121 1.252 . S
O1125 In1118 2.326 . S
O1125 C1121 1.260 . S
O1126 In1118 2.266 . S
O1126 C1123 1.252 . S
O1127 In1118 2.326 . S
O1127 C1123 1.260 . S
C1128 O1119 1.240 . S
C1128 O1120 1.252 . S
O1129 In1118 2.294 1_554 S
O1129 C1122 1.240 1_554 S
O1130 In1118 2.326 . S
O1130 C1122 1.252 . S
In1131 O1132 2.294 . S
In1131 O1133 2.326 . S
In1131 O1137 2.266 . S
In1131 O1138 2.326 . S
In1131 O1139 2.266 . S
In1131 O1140 2.326 . S
In1131 O1142 2.294 . S
In1131 O1143 2.326 . S
O1132 In1131 2.294 . S
O1132 C1141 1.240 . S
O1133 In1131 2.326 . S
O1133 C1141 1.252 . S
C1134 O1137 1.252 . S
C1134 O1138 1.260 . S
C1135 O1142 1.240 . S
C1135 O1143 1.252 . S
C1136 O1139 1.252 . S
C1136 O1140 1.260 . S
O1137 In1131 2.266 . S
O1137 C1134 1.252 . S
O1138 In1131 2.326 . S
O1138 C1134 1.260 . S
O1139 In1131 2.266 . S
O1139 C1136 1.252 . S
O1140 In1131 2.326 . S
O1140 C1136 1.260 . S
C1141 O1132 1.240 . S
C1141 O1133 1.252 . S
O1142 In1131 2.294 . S
O1142 C1135 1.240 . S
O1143 In1131 2.326 . S
O1143 C1135 1.252 . S
In1144 O1145 2.294 1_455 S
In1144 O1146 2.326 . S
In1144 O1150 2.266 . S
In1144 O1151 2.326 . S
In1144 O1152 2.266 . S
In1144 O1153 2.326 . S
In1144 O1155 2.294 . S
In1144 O1156 2.326 . S
O1145 In1144 2.294 1_655 S
O1145 C1154 1.240 1_655 S
O1146 In1144 2.326 . S
O1146 C1154 1.252 . S
C1147 O1150 1.252 . S
C1147 O1151 1.260 . S
C1148 O1155 1.240 . S
C1148 O1156 1.252 . S
C1149 O1152 1.252 . S
C1149 O1153 1.260 . S
O1150 In1144 2.266 . S
O1150 C1147 1.252 . S
O1151 In1144 2.326 . S
O1151 C1147 1.260 . S
O1152 In1144 2.266 . S
O1152 C1149 1.252 . S
O1153 In1144 2.326 . S
O1153 C1149 1.260 . S
C1154 O1145 1.240 1_455 S
C1154 O1146 1.252 . S
O1155 In1144 2.294 . S
O1155 C1148 1.240 . S
O1156 In1144 2.326 . S
O1156 C1148 1.252 . S
In1157 O1158 2.294 . S
In1157 O1159 2.326 . S
In1157 O1163 2.266 . S
In1157 O1164 2.326 . S
In1157 O1165 2.266 . S
In1157 O1166 2.326 . S
In1157 O1168 2.294 . S
In1157 O1169 2.326 . S
O1158 In1157 2.294 . S
O1158 C1167 1.240 . S
O1159 In1157 2.326 . S
O1159 C1167 1.252 . S
C1160 O1163 1.252 . S
C1160 O1164 1.260 . S
C1161 O1168 1.240 . S
C1161 O1169 1.252 . S
C1162 O1165 1.252 . S
C1162 O1166 1.260 . S
O1163 In1157 2.266 . S
O1163 C1160 1.252 . S
O1164 In1157 2.326 . S
O1164 C1160 1.260 . S
O1165 In1157 2.266 . S
O1165 C1162 1.252 . S
O1166 In1157 2.326 . S
O1166 C1162 1.260 . S
C1167 O1158 1.240 . S
C1167 O1159 1.252 . S
O1168 In1157 2.294 . S
O1168 C1161 1.240 . S
O1169 In1157 2.326 . S
O1169 C1161 1.252 . S
In1170 O1171 2.294 . S
In1170 O1172 2.326 . S
In1170 O1176 2.266 . S
In1170 O1177 2.326 . S
In1170 O1178 2.266 . S
In1170 O1179 2.326 . S
In1170 O1181 2.294 . S
In1170 O1182 2.326 . S
O1171 In1170 2.294 . S
O1171 C1180 1.240 . S
O1172 In1170 2.326 . S
O1172 C1180 1.252 . S
C1173 O1176 1.252 . S
C1173 O1177 1.260 . S
C1174 O1181 1.240 . S
C1174 O1182 1.252 . S
C1175 O1178 1.252 . S
C1175 O1179 1.260 . S
O1176 In1170 2.266 . S
O1176 C1173 1.252 . S
O1177 In1170 2.326 . S
O1177 C1173 1.260 . S
O1178 In1170 2.266 . S
O1178 C1175 1.252 . S
O1179 In1170 2.326 . S
O1179 C1175 1.260 . S
C1180 O1171 1.240 . S
C1180 O1172 1.252 . S
O1181 In1170 2.294 . S
O1181 C1174 1.240 . S
O1182 In1170 2.326 . S
O1182 C1174 1.252 . S
In1183 O1184 2.294 . S
In1183 O1185 2.326 . S
In1183 O1189 2.266 . S
In1183 O1190 2.326 . S
In1183 O1191 2.266 . S
In1183 O1192 2.326 . S
In1183 O1194 2.294 . S
In1183 O1195 2.326 . S
O1184 In1183 2.294 . S
O1184 C1193 1.240 . S
O1185 In1183 2.326 . S
O1185 C1193 1.252 . S
C1186 O1189 1.252 . S
C1186 O1190 1.260 . S
C1187 O1194 1.240 . S
C1187 O1195 1.252 . S
C1188 O1191 1.252 . S
C1188 O1192 1.260 . S
O1189 In1183 2.266 . S
O1189 C1186 1.252 . S
O1190 In1183 2.326 . S
O1190 C1186 1.260 . S
O1191 In1183 2.266 . S
O1191 C1188 1.252 . S
O1192 In1183 2.326 . S
O1192 C1188 1.260 . S
C1193 O1184 1.240 . S
C1193 O1185 1.252 . S
O1194 In1183 2.294 . S
O1194 C1187 1.240 . S
O1195 In1183 2.326 . S
O1195 C1187 1.252 . S
In1196 O1197 2.294 . S
In1196 O1198 2.326 . S
In1196 O1202 2.266 . S
In1196 O1203 2.326 . S
In1196 O1204 2.266 . S
In1196 O1205 2.326 . S
In1196 O1207 2.294 . S
In1196 O1208 2.326 . S
O1197 In1196 2.294 . S
O1197 C1206 1.240 . S
O1198 In1196 2.326 . S
O1198 C1206 1.252 . S
C1199 O1202 1.252 . S
C1199 O1203 1.260 . S
C1200 O1207 1.240 . S
C1200 O1208 1.252 . S
C1201 O1204 1.252 . S
C1201 O1205 1.260 . S
O1202 In1196 2.266 . S
O1202 C1199 1.252 . S
O1203 In1196 2.326 . S
O1203 C1199 1.260 . S
O1204 In1196 2.266 . S
O1204 C1201 1.252 . S
O1205 In1196 2.326 . S
O1205 C1201 1.260 . S
C1206 O1197 1.240 . S
C1206 O1198 1.252 . S
O1207 In1196 2.294 . S
O1207 C1200 1.240 . S
O1208 In1196 2.326 . S
O1208 C1200 1.252 . S
In1209 O1210 2.294 . S
In1209 O1211 2.326 . S
In1209 O1215 2.266 . S
In1209 O1216 2.326 . S
In1209 O1217 2.266 . S
In1209 O1218 2.326 . S
In1209 O1220 2.294 1_655 S
In1209 O1221 2.326 . S
O1210 In1209 2.294 . S
O1210 C1219 1.240 . S
O1211 In1209 2.326 . S
O1211 C1219 1.252 . S
C1212 O1215 1.252 . S
C1212 O1216 1.260 . S
C1213 O1220 1.240 1_655 S
C1213 O1221 1.252 . S
C1214 O1217 1.252 . S
C1214 O1218 1.260 . S
O1215 In1209 2.266 . S
O1215 C1212 1.252 . S
O1216 In1209 2.326 . S
O1216 C1212 1.260 . S
O1217 In1209 2.266 . S
O1217 C1214 1.252 . S
O1218 In1209 2.326 . S
O1218 C1214 1.260 . S
C1219 O1210 1.240 . S
C1219 O1211 1.252 . S
O1220 In1209 2.294 1_455 S
O1220 C1213 1.240 1_455 S
O1221 In1209 2.326 . S
O1221 C1213 1.252 . S
In1222 O1223 2.294 . S
In1222 O1224 2.326 . S
In1222 O1228 2.266 . S
In1222 O1229 2.326 . S
In1222 O1230 2.266 . S
In1222 O1231 2.326 . S
In1222 O1233 2.294 . S
In1222 O1234 2.326 . S
O1223 In1222 2.294 . S
O1223 C1232 1.240 . S
O1224 In1222 2.326 . S
O1224 C1232 1.252 . S
C1225 O1228 1.252 . S
C1225 O1229 1.260 . S
C1226 O1233 1.240 . S
C1226 O1234 1.252 . S
C1227 O1230 1.252 . S
C1227 O1231 1.260 . S
O1228 In1222 2.266 . S
O1228 C1225 1.252 . S
O1229 In1222 2.326 . S
O1229 C1225 1.260 . S
O1230 In1222 2.266 . S
O1230 C1227 1.252 . S
O1231 In1222 2.326 . S
O1231 C1227 1.260 . S
C1232 O1223 1.240 . S
C1232 O1224 1.252 . S
O1233 In1222 2.294 . S
O1233 C1226 1.240 . S
O1234 In1222 2.326 . S
O1234 C1226 1.252 . S
In1235 O1236 2.294 . S
In1235 O1237 2.326 . S
In1235 O1241 2.266 . S
In1235 O1242 2.326 . S
In1235 O1243 2.266 . S
In1235 O1244 2.326 . S
In1235 O1246 2.294 . S
In1235 O1247 2.326 . S
O1236 In1235 2.294 . S
O1236 C1245 1.240 . S
O1237 In1235 2.326 . S
O1237 C1245 1.252 . S
C1238 O1241 1.252 . S
C1238 O1242 1.260 . S
C1239 O1246 1.240 . S
C1239 O1247 1.252 . S
C1240 O1243 1.252 . S
C1240 O1244 1.260 . S
O1241 In1235 2.266 . S
O1241 C1238 1.252 . S
O1242 In1235 2.326 . S
O1242 C1238 1.260 . S
O1243 In1235 2.266 . S
O1243 C1240 1.252 . S
O1244 In1235 2.326 . S
O1244 C1240 1.260 . S
C1245 O1236 1.240 . S
C1245 O1237 1.252 . S
O1246 In1235 2.294 . S
O1246 C1239 1.240 . S
O1247 In1235 2.326 . S
O1247 C1239 1.252 . S
C1248 C1249 1.387 . S
C1248 H1252 0.950 . S
C1248 C1257 1.390 . S
C1249 C1248 1.387 . S
C1249 C1251 1.387 . S
H1250 C1257 0.950 . S
C1251 C1249 1.387 . S
C1251 C1253 1.390 . S
C1251 H1255 0.950 . S
H1252 C1248 0.950 . S
C1253 C1251 1.390 . S
C1253 C1254 1.387 . S
C1253 H1256 0.950 . S
C1254 C1253 1.387 . S
C1254 C1257 1.387 . S
H1255 C1251 0.950 . S
H1256 C1253 0.950 . S
C1257 C1248 1.390 . S
C1257 H1250 0.950 . S
C1257 C1254 1.387 . S
C1258 C1259 1.387 . S
C1258 H1262 0.950 . S
C1258 C1267 1.390 . S
C1259 C1258 1.387 . S
C1259 C1261 1.387 . S
H1260 C1267 0.950 . S
C1261 C1259 1.387 . S
C1261 C1263 1.390 . S
C1261 H1265 0.950 . S
H1262 C1258 0.950 . S
C1263 C1261 1.390 . S
C1263 C1264 1.387 . S
C1263 H1266 0.950 . S
C1264 C1263 1.387 . S
C1264 C1267 1.387 . S
H1265 C1261 0.950 . S
H1266 C1263 0.950 . S
C1267 C1258 1.390 . S
C1267 H1260 0.950 . S
C1267 C1264 1.387 . S
C1268 C1269 1.387 . S
C1268 H1272 0.950 . S
C1268 C1277 1.390 . S
C1269 C1268 1.387 . S
C1269 C1271 1.387 . S
H1270 C1277 0.950 . S
C1271 C1269 1.387 . S
C1271 C1273 1.390 . S
C1271 H1275 0.950 . S
H1272 C1268 0.950 . S
C1273 C1271 1.390 . S
C1273 C1274 1.387 . S
C1273 H1276 0.950 . S
C1274 C1273 1.387 . S
C1274 C1277 1.387 . S
H1275 C1271 0.950 . S
H1276 C1273 0.950 . S
C1277 C1268 1.390 . S
C1277 H1270 0.950 . S
C1277 C1274 1.387 . S
C1278 C1279 1.387 . S
C1278 H1282 0.950 . S
C1278 C1287 1.390 . S
C1279 C1278 1.387 . S
C1279 C1281 1.387 . S
H1280 C1287 0.950 . S
C1281 C1279 1.387 . S
C1281 C1283 1.390 . S
C1281 H1285 0.950 . S
H1282 C1278 0.950 . S
C1283 C1281 1.390 . S
C1283 C1284 1.387 . S
C1283 H1286 0.950 . S
C1284 C1283 1.387 . S
C1284 C1287 1.387 . S
H1285 C1281 0.950 . S
H1286 C1283 0.950 . S
C1287 C1278 1.390 . S
C1287 H1280 0.950 . S
C1287 C1284 1.387 . S
C1288 C1289 1.387 . S
C1288 H1292 0.950 . S
C1288 C1297 1.390 . S
C1289 C1288 1.387 . S
C1289 C1291 1.387 . S
H1290 C1297 0.950 . S
C1291 C1289 1.387 . S
C1291 C1293 1.390 . S
C1291 H1295 0.950 . S
H1292 C1288 0.950 . S
C1293 C1291 1.390 . S
C1293 C1294 1.387 . S
C1293 H1296 0.950 . S
C1294 C1293 1.387 . S
C1294 C1297 1.387 . S
H1295 C1291 0.950 . S
H1296 C1293 0.950 . S
C1297 C1288 1.390 . S
C1297 H1290 0.950 . S
C1297 C1294 1.387 . S
C1298 C1299 1.387 . S
C1298 H1302 0.950 . S
C1298 C1307 1.390 . S
C1299 C1298 1.387 . S
C1299 C1301 1.387 . S
H1300 C1307 0.950 . S
C1301 C1299 1.387 . S
C1301 C1303 1.390 . S
C1301 H1305 0.950 . S
H1302 C1298 0.950 . S
C1303 C1301 1.390 . S
C1303 C1304 1.387 . S
C1303 H1306 0.950 . S
C1304 C1303 1.387 . S
C1304 C1307 1.387 . S
H1305 C1301 0.950 . S
H1306 C1303 0.950 . S
C1307 C1298 1.390 . S
C1307 H1300 0.950 . S
C1307 C1304 1.387 . S
C1308 C1309 1.387 . S
C1308 H1312 0.950 1_545 S
C1308 C1317 1.390 . S
C1309 C1308 1.387 . S
C1309 C1311 1.387 . S
H1310 C1317 0.950 . S
C1311 C1309 1.387 . S
C1311 C1313 1.390 . S
C1311 H1315 0.950 . S
H1312 C1308 0.950 1_565 S
C1313 C1311 1.390 . S
C1313 C1314 1.387 . S
C1313 H1316 0.950 . S
C1314 C1313 1.387 . S
C1314 C1317 1.387 . S
H1315 C1311 0.950 . S
H1316 C1313 0.950 . S
C1317 C1308 1.390 . S
C1317 H1310 0.950 . S
C1317 C1314 1.387 . S
C1318 C1319 1.387 . S
C1318 H1322 0.950 . S
C1318 C1327 1.390 . S
C1319 C1318 1.387 . S
C1319 C1321 1.387 . S
H1320 C1327 0.950 . S
C1321 C1319 1.387 . S
C1321 C1323 1.390 . S
C1321 H1325 0.950 . S
H1322 C1318 0.950 . S
C1323 C1321 1.390 . S
C1323 C1324 1.387 . S
C1323 H1326 0.950 . S
C1324 C1323 1.387 . S
C1324 C1327 1.387 . S
H1325 C1321 0.950 . S
H1326 C1323 0.950 . S
C1327 C1318 1.390 . S
C1327 H1320 0.950 . S
C1327 C1324 1.387 . S
C1328 C1329 1.387 . S
C1328 H1332 0.950 . S
C1328 C1337 1.390 . S
C1329 C1328 1.387 . S
C1329 C1331 1.387 . S
H1330 C1337 0.950 . S
C1331 C1329 1.387 . S
C1331 C1333 1.390 . S
C1331 H1335 0.950 . S
H1332 C1328 0.950 . S
C1333 C1331 1.390 . S
C1333 C1334 1.387 . S
C1333 H1336 0.950 . S
C1334 C1333 1.387 . S
C1334 C1337 1.387 . S
H1335 C1331 0.950 . S
H1336 C1333 0.950 . S
C1337 C1328 1.390 . S
C1337 H1330 0.950 . S
C1337 C1334 1.387 . S
C1338 C1339 1.387 . S
C1338 H1342 0.950 . S
C1338 C1347 1.390 . S
C1339 C1338 1.387 . S
C1339 C1341 1.387 . S
H1340 C1347 0.950 . S
C1341 C1339 1.387 . S
C1341 C1343 1.390 . S
C1341 H1345 0.950 . S
H1342 C1338 0.950 . S
C1343 C1341 1.390 . S
C1343 C1344 1.387 . S
C1343 H1346 0.950 . S
C1344 C1343 1.387 . S
C1344 C1347 1.387 . S
H1345 C1341 0.950 . S
H1346 C1343 0.950 . S
C1347 C1338 1.390 . S
C1347 H1340 0.950 . S
C1347 C1344 1.387 . S
C1348 C1349 1.387 . S
C1348 H1352 0.950 . S
C1348 C1357 1.390 . S
C1349 C1348 1.387 . S
C1349 C1351 1.387 . S
H1350 C1357 0.950 . S
C1351 C1349 1.387 . S
C1351 C1353 1.390 . S
C1351 H1355 0.950 . S
H1352 C1348 0.950 . S
C1353 C1351 1.390 . S
C1353 C1354 1.387 . S
C1353 H1356 0.950 . S
C1354 C1353 1.387 . S
C1354 C1357 1.387 . S
H1355 C1351 0.950 . S
H1356 C1353 0.950 . S
C1357 C1348 1.390 . S
C1357 H1350 0.950 . S
C1357 C1354 1.387 . S
C1358 C1359 1.387 . S
C1358 H1362 0.950 . S
C1358 C1367 1.390 . S
C1359 C1358 1.387 . S
C1359 C1361 1.387 . S
H1360 C1367 0.950 . S
C1361 C1359 1.387 . S
C1361 C1363 1.390 . S
C1361 H1365 0.950 . S
H1362 C1358 0.950 . S
C1363 C1361 1.390 . S
C1363 C1364 1.387 . S
C1363 H1366 0.950 . S
C1364 C1363 1.387 . S
C1364 C1367 1.387 . S
H1365 C1361 0.950 . S
H1366 C1363 0.950 . S
C1367 C1358 1.390 . S
C1367 H1360 0.950 . S
C1367 C1364 1.387 . S
C1368 C1369 1.387 . S
C1368 H1372 0.950 . S
C1368 C1377 1.390 . S
C1369 C1368 1.387 . S
C1369 C1371 1.387 . S
H1370 C1377 0.950 . S
C1371 C1369 1.387 . S
C1371 C1373 1.390 . S
C1371 H1375 0.950 . S
H1372 C1368 0.950 . S
C1373 C1371 1.390 . S
C1373 C1374 1.387 . S
C1373 H1376 0.950 . S
C1374 C1373 1.387 . S
C1374 C1377 1.387 . S
H1375 C1371 0.950 . S
H1376 C1373 0.950 . S
C1377 C1368 1.390 . S
C1377 H1370 0.950 . S
C1377 C1374 1.387 . S
C1378 C1379 1.387 . S
C1378 H1382 0.950 . S
C1378 C1387 1.390 . S
C1379 C1378 1.387 . S
C1379 C1381 1.387 . S
H1380 C1387 0.950 . S
C1381 C1379 1.387 . S
C1381 C1383 1.390 . S
C1381 H1385 0.950 . S
H1382 C1378 0.950 . S
C1383 C1381 1.390 . S
C1383 C1384 1.387 . S
C1383 H1386 0.950 . S
C1384 C1383 1.387 . S
C1384 C1387 1.387 . S
H1385 C1381 0.950 . S
H1386 C1383 0.950 . S
C1387 C1378 1.390 . S
C1387 H1380 0.950 . S
C1387 C1384 1.387 . S
C1388 C1389 1.387 . S
C1388 H1392 0.950 . S
C1388 C1397 1.390 . S
C1389 C1388 1.387 . S
C1389 C1391 1.387 . S
H1390 C1397 0.950 . S
C1391 C1389 1.387 . S
C1391 C1393 1.390 . S
C1391 H1395 0.950 . S
H1392 C1388 0.950 . S
C1393 C1391 1.390 . S
C1393 C1394 1.387 . S
C1393 H1396 0.950 . S
C1394 C1393 1.387 . S
C1394 C1397 1.387 . S
H1395 C1391 0.950 . S
H1396 C1393 0.950 . S
C1397 C1388 1.390 . S
C1397 H1390 0.950 . S
C1397 C1394 1.387 . S
C1398 C1399 1.387 . S
C1398 H1402 0.950 . S
C1398 C1407 1.390 . S
C1399 C1398 1.387 . S
C1399 C1401 1.387 . S
H1400 C1407 0.950 . S
C1401 C1399 1.387 . S
C1401 C1403 1.390 . S
C1401 H1405 0.950 . S
H1402 C1398 0.950 . S
C1403 C1401 1.390 . S
C1403 C1404 1.387 . S
C1403 H1406 0.950 . S
C1404 C1403 1.387 . S
C1404 C1407 1.387 . S
H1405 C1401 0.950 . S
H1406 C1403 0.950 . S
C1407 C1398 1.390 . S
C1407 H1400 0.950 . S
C1407 C1404 1.387 . S
C1408 C1409 1.387 . S
C1408 H1412 0.950 . S
C1408 C1417 1.390 . S
C1409 C1408 1.387 . S
C1409 C1411 1.387 . S
H1410 C1417 0.950 . S
C1411 C1409 1.387 . S
C1411 C1413 1.390 . S
C1411 H1415 0.950 . S
H1412 C1408 0.950 . S
C1413 C1411 1.390 . S
C1413 C1414 1.387 . S
C1413 H1416 0.950 . S
C1414 C1413 1.387 . S
C1414 C1417 1.387 . S
H1415 C1411 0.950 . S
H1416 C1413 0.950 . S
C1417 C1408 1.390 . S
C1417 H1410 0.950 . S
C1417 C1414 1.387 . S
C1418 C1419 1.387 . S
C1418 H1422 0.950 . S
C1418 C1427 1.390 . S
C1419 C1418 1.387 . S
C1419 C1421 1.387 . S
H1420 C1427 0.950 . S
C1421 C1419 1.387 . S
C1421 C1423 1.390 . S
C1421 H1425 0.950 . S
H1422 C1418 0.950 . S
C1423 C1421 1.390 . S
C1423 C1424 1.387 . S
C1423 H1426 0.950 . S
C1424 C1423 1.387 . S
C1424 C1427 1.387 . S
H1425 C1421 0.950 . S
H1426 C1423 0.950 . S
C1427 C1418 1.390 . S
C1427 H1420 0.950 . S
C1427 C1424 1.387 . S
C1428 C1429 1.387 . S
C1428 H1432 0.950 . S
C1428 C1437 1.390 . S
C1429 C1428 1.387 . S
C1429 C1431 1.387 . S
H1430 C1437 0.950 . S
C1431 C1429 1.387 . S
C1431 C1433 1.390 . S
C1431 H1435 0.950 . S
H1432 C1428 0.950 . S
C1433 C1431 1.390 . S
C1433 C1434 1.387 . S
C1433 H1436 0.950 . S
C1434 C1433 1.387 . S
C1434 C1437 1.387 . S
H1435 C1431 0.950 . S
H1436 C1433 0.950 . S
C1437 C1428 1.390 . S
C1437 H1430 0.950 . S
C1437 C1434 1.387 . S
C1438 C1439 1.387 . S
C1438 H1442 0.950 . S
C1438 C1447 1.390 . S
C1439 C1438 1.387 . S
C1439 C1441 1.387 . S
H1440 C1447 0.950 . S
C1441 C1439 1.387 . S
C1441 C1443 1.390 . S
C1441 H1445 0.950 . S
H1442 C1438 0.950 . S
C1443 C1441 1.390 . S
C1443 C1444 1.387 . S
C1443 H1446 0.950 . S
C1444 C1443 1.387 . S
C1444 C1447 1.387 . S
H1445 C1441 0.950 . S
H1446 C1443 0.950 . S
C1447 C1438 1.390 . S
C1447 H1440 0.950 . S
C1447 C1444 1.387 . S
C1448 C1449 1.387 . S
C1448 H1452 0.950 . S
C1448 C1457 1.390 . S
C1449 C1448 1.387 . S
C1449 C1451 1.387 . S
H1450 C1457 0.950 . S
C1451 C1449 1.387 . S
C1451 C1453 1.390 . S
C1451 H1455 0.950 . S
H1452 C1448 0.950 . S
C1453 C1451 1.390 . S
C1453 C1454 1.387 . S
C1453 H1456 0.950 . S
C1454 C1453 1.387 . S
C1454 C1457 1.387 . S
H1455 C1451 0.950 . S
H1456 C1453 0.950 . S
C1457 C1448 1.390 . S
C1457 H1450 0.950 . S
C1457 C1454 1.387 . S
C1458 C1459 1.387 . S
C1458 H1462 0.950 . S
C1458 C1467 1.390 . S
C1459 C1458 1.387 . S
C1459 C1461 1.387 . S
H1460 C1467 0.950 . S
C1461 C1459 1.387 . S
C1461 C1463 1.390 . S
C1461 H1465 0.950 . S
H1462 C1458 0.950 . S
C1463 C1461 1.390 . S
C1463 C1464 1.387 . S
C1463 H1466 0.950 . S
C1464 C1463 1.387 . S
C1464 C1467 1.387 . S
H1465 C1461 0.950 . S
H1466 C1463 0.950 . S
C1467 C1458 1.390 . S
C1467 H1460 0.950 . S
C1467 C1464 1.387 . S
C1468 C1469 1.387 . S
C1468 H1472 0.950 . S
C1468 C1477 1.390 . S
C1469 C1468 1.387 . S
C1469 C1471 1.387 . S
H1470 C1477 0.950 . S
C1471 C1469 1.387 . S
C1471 C1473 1.390 . S
C1471 H1475 0.950 . S
H1472 C1468 0.950 . S
C1473 C1471 1.390 . S
C1473 C1474 1.387 . S
C1473 H1476 0.950 . S
C1474 C1473 1.387 . S
C1474 C1477 1.387 . S
H1475 C1471 0.950 . S
H1476 C1473 0.950 . S
C1477 C1468 1.390 . S
C1477 H1470 0.950 . S
C1477 C1474 1.387 . S
C1478 C1479 1.387 . S
C1478 H1482 0.950 . S
C1478 C1487 1.390 . S
C1479 C1478 1.387 . S
C1479 C1481 1.387 . S
H1480 C1487 0.950 . S
C1481 C1479 1.387 . S
C1481 C1483 1.390 . S
C1481 H1485 0.950 . S
H1482 C1478 0.950 . S
C1483 C1481 1.390 . S
C1483 C1484 1.387 . S
C1483 H1486 0.950 . S
C1484 C1483 1.387 . S
C1484 C1487 1.387 . S
H1485 C1481 0.950 . S
H1486 C1483 0.950 . S
C1487 C1478 1.390 . S
C1487 H1480 0.950 . S
C1487 C1484 1.387 . S
C1488 C1489 1.387 . S
C1488 H1492 0.950 . S
C1488 C1497 1.390 . S
C1489 C1488 1.387 . S
C1489 C1491 1.387 . S
H1490 C1497 0.950 . S
C1491 C1489 1.387 . S
C1491 C1493 1.390 . S
C1491 H1495 0.950 . S
H1492 C1488 0.950 . S
C1493 C1491 1.390 . S
C1493 C1494 1.387 . S
C1493 H1496 0.950 . S
C1494 C1493 1.387 . S
C1494 C1497 1.387 . S
H1495 C1491 0.950 . S
H1496 C1493 0.950 . S
C1497 C1488 1.390 . S
C1497 H1490 0.950 . S
C1497 C1494 1.387 . S
C1498 C1499 1.387 . S
C1498 H1502 0.950 . S
C1498 C1507 1.390 . S
C1499 C1498 1.387 . S
C1499 C1501 1.387 . S
H1500 C1507 0.950 . S
C1501 C1499 1.387 . S
C1501 C1503 1.390 . S
C1501 H1505 0.950 . S
H1502 C1498 0.950 . S
C1503 C1501 1.390 . S
C1503 C1504 1.387 . S
C1503 H1506 0.950 . S
C1504 C1503 1.387 . S
C1504 C1507 1.387 . S
H1505 C1501 0.950 . S
H1506 C1503 0.950 . S
C1507 C1498 1.390 . S
C1507 H1500 0.950 . S
C1507 C1504 1.387 . S
C1508 C1509 1.387 . S
C1508 H1512 0.950 . S
C1508 C1517 1.390 . S
C1509 C1508 1.387 . S
C1509 C1511 1.387 . S
H1510 C1517 0.950 . S
C1511 C1509 1.387 . S
C1511 C1513 1.390 . S
C1511 H1515 0.950 . S
H1512 C1508 0.950 . S
C1513 C1511 1.390 . S
C1513 C1514 1.387 . S
C1513 H1516 0.950 . S
C1514 C1513 1.387 . S
C1514 C1517 1.387 . S
H1515 C1511 0.950 . S
H1516 C1513 0.950 . S
C1517 C1508 1.390 . S
C1517 H1510 0.950 . S
C1517 C1514 1.387 . S
C1518 C1519 1.387 . S
C1518 H1522 0.950 . S
C1518 C1527 1.390 . S
C1519 C1518 1.387 . S
C1519 C1521 1.387 . S
H1520 C1527 0.950 . S
C1521 C1519 1.387 . S
C1521 C1523 1.390 . S
C1521 H1525 0.950 . S
H1522 C1518 0.950 . S
C1523 C1521 1.390 . S
C1523 C1524 1.387 . S
C1523 H1526 0.950 . S
C1524 C1523 1.387 . S
C1524 C1527 1.387 . S
H1525 C1521 0.950 . S
H1526 C1523 0.950 . S
C1527 C1518 1.390 . S
C1527 H1520 0.950 . S
C1527 C1524 1.387 . S
C1528 C1529 1.387 . S
C1528 H1532 0.950 . S
C1528 C1537 1.390 . S
C1529 C1528 1.387 . S
C1529 C1531 1.387 . S
H1530 C1537 0.950 . S
C1531 C1529 1.387 . S
C1531 C1533 1.390 . S
C1531 H1535 0.950 1_565 S
H1532 C1528 0.950 . S
C1533 C1531 1.390 . S
C1533 C1534 1.387 . S
C1533 H1536 0.950 . S
C1534 C1533 1.387 . S
C1534 C1537 1.387 . S
H1535 C1531 0.950 1_545 S
H1536 C1533 0.950 . S
C1537 C1528 1.390 . S
C1537 H1530 0.950 . S
C1537 C1534 1.387 . S
C1538 C1539 1.387 . S
C1538 H1542 0.950 . S
C1538 C1547 1.390 . S
C1539 C1538 1.387 . S
C1539 C1541 1.387 . S
H1540 C1547 0.950 . S
C1541 C1539 1.387 . S
C1541 C1543 1.390 . S
C1541 H1545 0.950 . S
H1542 C1538 0.950 . S
C1543 C1541 1.390 . S
C1543 C1544 1.387 . S
C1543 H1546 0.950 . S
C1544 C1543 1.387 . S
C1544 C1547 1.387 . S
H1545 C1541 0.950 . S
H1546 C1543 0.950 . S
C1547 C1538 1.390 . S
C1547 H1540 0.950 . S
C1547 C1544 1.387 . S
C1548 C1549 1.387 . S
C1548 H1552 0.950 . S
C1548 C1557 1.390 . S
C1549 C1548 1.387 . S
C1549 C1551 1.387 . S
H1550 C1557 0.950 . S
C1551 C1549 1.387 . S
C1551 C1553 1.390 . S
C1551 H1555 0.950 . S
H1552 C1548 0.950 . S
C1553 C1551 1.390 . S
C1553 C1554 1.387 . S
C1553 H1556 0.950 . S
C1554 C1553 1.387 . S
C1554 C1557 1.387 . S
H1555 C1551 0.950 . S
H1556 C1553 0.950 . S
C1557 C1548 1.390 . S
C1557 H1550 0.950 . S
C1557 C1554 1.387 . S
C1558 C1559 1.387 . S
C1558 H1562 0.950 . S
C1558 C1567 1.390 . S
C1559 C1558 1.387 . S
C1559 C1561 1.387 . S
H1560 C1567 0.950 . S
C1561 C1559 1.387 . S
C1561 C1563 1.390 . S
C1561 H1565 0.950 . S
H1562 C1558 0.950 . S
C1563 C1561 1.390 . S
C1563 C1564 1.387 . S
C1563 H1566 0.950 . S
C1564 C1563 1.387 . S
C1564 C1567 1.387 . S
H1565 C1561 0.950 . S
H1566 C1563 0.950 . S
C1567 C1558 1.390 . S
C1567 H1560 0.950 . S
C1567 C1564 1.387 . S
C1568 C1569 1.387 . S
C1568 H1572 0.950 . S
C1568 C1577 1.390 . S
C1569 C1568 1.387 . S
C1569 C1571 1.387 . S
H1570 C1577 0.950 . S
C1571 C1569 1.387 . S
C1571 C1573 1.390 . S
C1571 H1575 0.950 . S
H1572 C1568 0.950 . S
C1573 C1571 1.390 . S
C1573 C1574 1.387 . S
C1573 H1576 0.947 . S
C1574 C1573 1.387 . S
C1574 C1577 1.387 . S
H1575 C1571 0.950 . S
H1576 C1573 0.947 . S
C1577 C1568 1.390 . S
C1577 H1570 0.950 . S
C1577 C1574 1.387 . S
C1578 C1579 1.387 . S
C1578 H1582 0.950 . S
C1578 C1587 1.390 . S
C1579 C1578 1.387 . S
C1579 C1581 1.387 . S
H1580 C1587 0.950 . S
C1581 C1579 1.387 . S
C1581 C1583 1.390 . S
C1581 H1585 0.950 . S
H1582 C1578 0.950 . S
C1583 C1581 1.390 . S
C1583 C1584 1.387 . S
C1583 H1586 0.950 . S
C1584 C1583 1.387 . S
C1584 C1587 1.387 . S
H1585 C1581 0.950 . S
H1586 C1583 0.950 . S
C1587 C1578 1.390 . S
C1587 H1580 0.950 . S
C1587 C1584 1.387 . S
C1588 C1589 1.387 . S
C1588 H1592 0.950 . S
C1588 C1597 1.390 . S
C1589 C1588 1.387 . S
C1589 C1591 1.387 . S
H1590 C1597 0.950 . S
C1591 C1589 1.387 . S
C1591 C1593 1.390 . S
C1591 H1595 0.950 . S
H1592 C1588 0.950 . S
C1593 C1591 1.390 . S
C1593 C1594 1.387 . S
C1593 H1596 0.950 . S
C1594 C1593 1.387 . S
C1594 C1597 1.387 . S
H1595 C1591 0.950 . S
H1596 C1593 0.950 . S
C1597 C1588 1.390 . S
C1597 H1590 0.950 . S
C1597 C1594 1.387 . S
C1598 C1599 1.387 . S
C1598 H1602 0.950 . S
C1598 C1607 1.390 . S
C1599 C1598 1.387 . S
C1599 C1601 1.387 . S
H1600 C1607 0.950 . S
C1601 C1599 1.387 . S
C1601 C1603 1.390 . S
C1601 H1605 0.950 . S
H1602 C1598 0.950 . S
C1603 C1601 1.390 . S
C1603 C1604 1.387 . S
C1603 H1606 0.950 . S
C1604 C1603 1.387 . S
C1604 C1607 1.387 . S
H1605 C1601 0.950 . S
H1606 C1603 0.950 . S
C1607 C1598 1.390 . S
C1607 H1600 0.950 . S
C1607 C1604 1.387 . S
C1608 C1609 1.387 . S
C1608 H1612 0.950 . S
C1608 C1617 1.390 . S
C1609 C1608 1.387 . S
C1609 C1611 1.387 . S
H1610 C1617 0.950 . S
C1611 C1609 1.387 . S
C1611 C1613 1.390 . S
C1611 H1615 0.950 . S
H1612 C1608 0.950 . S
C1613 C1611 1.390 . S
C1613 C1614 1.387 . S
C1613 H1616 0.950 . S
C1614 C1613 1.387 . S
C1614 C1617 1.387 . S
H1615 C1611 0.950 . S
H1616 C1613 0.950 . S
C1617 C1608 1.390 . S
C1617 H1610 0.950 . S
C1617 C1614 1.387 . S
C1618 C1619 1.387 . S
C1618 H1622 0.950 . S
C1618 C1627 1.390 . S
C1619 C1618 1.387 . S
C1619 C1621 1.387 . S
H1620 C1627 0.950 . S
C1621 C1619 1.387 . S
C1621 C1623 1.390 . S
C1621 H1625 0.950 . S
H1622 C1618 0.950 . S
C1623 C1621 1.390 . S
C1623 C1624 1.387 . S
C1623 H1626 0.950 . S
C1624 C1623 1.387 . S
C1624 C1627 1.387 . S
H1625 C1621 0.950 . S
H1626 C1623 0.950 . S
C1627 C1618 1.390 . S
C1627 H1620 0.950 . S
C1627 C1624 1.387 . S
C1628 C1629 1.387 . S
C1628 H1632 0.950 . S
C1628 C1637 1.390 . S
C1629 C1628 1.387 . S
C1629 C1631 1.387 . S
H1630 C1637 0.950 . S
C1631 C1629 1.387 . S
C1631 C1633 1.390 . S
C1631 H1635 0.950 . S
H1632 C1628 0.950 . S
C1633 C1631 1.390 . S
C1633 C1634 1.387 . S
C1633 H1636 0.950 . S
C1634 C1633 1.387 . S
C1634 C1637 1.387 . S
H1635 C1631 0.950 . S
H1636 C1633 0.950 . S
C1637 C1628 1.390 . S
C1637 H1630 0.950 . S
C1637 C1634 1.387 . S
C1638 C1639 1.387 . S
C1638 H1642 0.950 . S
C1638 C1647 1.390 . S
C1639 C1638 1.387 . S
C1639 C1641 1.387 . S
H1640 C1647 0.950 . S
C1641 C1639 1.387 . S
C1641 C1643 1.390 . S
C1641 H1645 0.950 . S
H1642 C1638 0.950 . S
C1643 C1641 1.390 . S
C1643 C1644 1.387 . S
C1643 H1646 0.950 . S
C1644 C1643 1.387 . S
C1644 C1647 1.387 . S
H1645 C1641 0.950 . S
H1646 C1643 0.950 . S
C1647 C1638 1.390 . S
C1647 H1640 0.950 . S
C1647 C1644 1.387 . S
C1648 C1649 1.387 . S
C1648 H1652 0.950 . S
C1648 C1657 1.390 . S
C1649 C1648 1.387 . S
C1649 C1651 1.387 . S
H1650 C1657 0.950 . S
C1651 C1649 1.387 . S
C1651 C1653 1.390 . S
C1651 H1655 0.950 . S
H1652 C1648 0.950 . S
C1653 C1651 1.390 . S
C1653 C1654 1.387 . S
C1653 H1656 0.950 . S
C1654 C1653 1.387 . S
C1654 C1657 1.387 . S
H1655 C1651 0.950 . S
H1656 C1653 0.950 . S
C1657 C1648 1.390 . S
C1657 H1650 0.950 . S
C1657 C1654 1.387 . S
C1658 C1659 1.387 . S
C1658 H1662 0.950 . S
C1658 C1667 1.390 . S
C1659 C1658 1.387 . S
C1659 C1661 1.387 . S
H1660 C1667 0.950 . S
C1661 C1659 1.387 . S
C1661 C1663 1.390 . S
C1661 H1665 0.950 . S
H1662 C1658 0.950 . S
C1663 C1661 1.390 . S
C1663 C1664 1.387 . S
C1663 H1666 0.950 . S
C1664 C1663 1.387 . S
C1664 C1667 1.387 . S
H1665 C1661 0.950 . S
H1666 C1663 0.950 . S
C1667 C1658 1.390 . S
C1667 H1660 0.950 . S
C1667 C1664 1.387 . S
C1668 C1669 1.387 . S
C1668 H1672 0.950 . S
C1668 C1677 1.390 . S
C1669 C1668 1.387 . S
C1669 C1671 1.387 . S
H1670 C1677 0.950 . S
C1671 C1669 1.387 . S
C1671 C1673 1.390 . S
C1671 H1675 0.950 . S
H1672 C1668 0.950 . S
C1673 C1671 1.390 . S
C1673 C1674 1.387 . S
C1673 H1676 0.950 . S
C1674 C1673 1.387 . S
C1674 C1677 1.387 . S
H1675 C1671 0.950 . S
H1676 C1673 0.950 . S
C1677 C1668 1.390 . S
C1677 H1670 0.950 . S
C1677 C1674 1.387 . S
C1678 C1679 1.387 . S
C1678 H1682 0.950 . S
C1678 C1687 1.390 . S
C1679 C1678 1.387 . S
C1679 C1681 1.387 . S
H1680 C1687 0.950 . S
C1681 C1679 1.387 . S
C1681 C1683 1.390 . S
C1681 H1685 0.950 . S
H1682 C1678 0.950 . S
C1683 C1681 1.390 . S
C1683 C1684 1.387 . S
C1683 H1686 0.950 . S
C1684 C1683 1.387 . S
C1684 C1687 1.387 . S
H1685 C1681 0.950 . S
H1686 C1683 0.950 . S
C1687 C1678 1.390 . S
C1687 H1680 0.950 . S
C1687 C1684 1.387 . S
C1688 C1689 1.387 . S
C1688 H1692 0.950 . S
C1688 C1697 1.390 . S
C1689 C1688 1.387 . S
C1689 C1691 1.387 . S
H1690 C1697 0.950 . S
C1691 C1689 1.387 . S
C1691 C1693 1.390 . S
C1691 H1695 0.950 . S
H1692 C1688 0.950 . S
C1693 C1691 1.390 . S
C1693 C1694 1.387 . S
C1693 H1696 0.950 . S
C1694 C1693 1.387 . S
C1694 C1697 1.387 . S
H1695 C1691 0.950 . S
H1696 C1693 0.950 . S
C1697 C1688 1.390 . S
C1697 H1690 0.950 . S
C1697 C1694 1.387 . S
C1698 C1699 1.387 . S
C1698 H1702 0.950 . S
C1698 C1707 1.390 . S
C1699 C1698 1.387 . S
C1699 C1701 1.387 . S
H1700 C1707 0.950 . S
C1701 C1699 1.387 . S
C1701 C1703 1.390 . S
C1701 H1705 0.950 . S
H1702 C1698 0.950 . S
C1703 C1701 1.390 . S
C1703 C1704 1.387 . S
C1703 H1706 0.950 . S
C1704 C1703 1.387 . S
C1704 C1707 1.387 . S
H1705 C1701 0.950 . S
H1706 C1703 0.950 . S
C1707 C1698 1.390 . S
C1707 H1700 0.950 . S
C1707 C1704 1.387 . S
C1708 C1709 1.387 . S
C1708 H1712 0.950 . S
C1708 C1717 1.390 . S
C1709 C1708 1.387 . S
C1709 C1711 1.387 . S
H1710 C1717 0.950 . S
C1711 C1709 1.387 . S
C1711 C1713 1.390 . S
C1711 H1715 0.950 . S
H1712 C1708 0.950 . S
C1713 C1711 1.390 . S
C1713 C1714 1.387 . S
C1713 H1716 0.950 . S
C1714 C1713 1.387 . S
C1714 C1717 1.387 . S
H1715 C1711 0.950 . S
H1716 C1713 0.950 . S
C1717 C1708 1.390 . S
C1717 H1710 0.950 . S
C1717 C1714 1.387 . S
C1718 C1719 1.387 . S
C1718 H1722 0.950 . S
C1718 C1727 1.390 . S
C1719 C1718 1.387 . S
C1719 C1721 1.387 . S
H1720 C1727 0.950 . S
C1721 C1719 1.387 . S
C1721 C1723 1.390 . S
C1721 H1725 0.950 . S
H1722 C1718 0.950 . S
C1723 C1721 1.390 . S
C1723 C1724 1.387 . S
C1723 H1726 0.950 . S
C1724 C1723 1.387 . S
C1724 C1727 1.387 . S
H1725 C1721 0.950 . S
H1726 C1723 0.950 . S
C1727 C1718 1.390 . S
C1727 H1720 0.950 . S
C1727 C1724 1.387 . S
C1728 C1729 1.387 . S
C1728 H1732 0.950 . S
C1728 C1737 1.390 . S
C1729 C1728 1.387 . S
C1729 C1731 1.387 . S
H1730 C1737 0.950 . S
C1731 C1729 1.387 . S
C1731 C1733 1.390 . S
C1731 H1735 0.950 . S
H1732 C1728 0.950 . S
C1733 C1731 1.390 . S
C1733 C1734 1.387 . S
C1733 H1736 0.950 . S
C1734 C1733 1.387 . S
C1734 C1737 1.387 . S
H1735 C1731 0.950 . S
H1736 C1733 0.950 . S
C1737 C1728 1.390 . S
C1737 H1730 0.950 . S
C1737 C1734 1.387 . S
C1738 C1739 1.387 . S
C1738 H1742 0.950 . S
C1738 C1747 1.390 . S
C1739 C1738 1.387 . S
C1739 C1741 1.387 . S
H1740 C1747 0.950 . S
C1741 C1739 1.387 . S
C1741 C1743 1.390 . S
C1741 H1745 0.950 . S
H1742 C1738 0.950 . S
C1743 C1741 1.390 . S
C1743 C1744 1.387 . S
C1743 H1746 0.950 . S
C1744 C1743 1.387 . S
C1744 C1747 1.387 . S
H1745 C1741 0.950 . S
H1746 C1743 0.950 . S
C1747 C1738 1.390 . S
C1747 H1740 0.950 . S
C1747 C1744 1.387 . S
C1748 C1749 1.387 . S
C1748 H1752 0.950 . S
C1748 C1757 1.390 . S
C1749 C1748 1.387 . S
C1749 C1751 1.387 . S
H1750 C1757 0.950 . S
C1751 C1749 1.387 . S
C1751 C1753 1.390 . S
C1751 H1755 0.950 . S
H1752 C1748 0.950 . S
C1753 C1751 1.390 . S
C1753 C1754 1.387 . S
C1753 H1756 0.950 . S
C1754 C1753 1.387 . S
C1754 C1757 1.387 . S
H1755 C1751 0.950 . S
H1756 C1753 0.950 . S
C1757 C1748 1.390 . S
C1757 H1750 0.950 . S
C1757 C1754 1.387 . S
C1758 C1759 1.387 . S
C1758 H1762 0.950 . S
C1758 C1767 1.390 . S
C1759 C1758 1.387 . S
C1759 C1761 1.387 . S
H1760 C1767 0.950 . S
C1761 C1759 1.387 . S
C1761 C1763 1.390 . S
C1761 H1765 0.950 . S
H1762 C1758 0.950 . S
C1763 C1761 1.390 . S
C1763 C1764 1.387 . S
C1763 H1766 0.950 . S
C1764 C1763 1.387 . S
C1764 C1767 1.387 . S
H1765 C1761 0.950 . S
H1766 C1763 0.950 . S
C1767 C1758 1.390 . S
C1767 H1760 0.950 . S
C1767 C1764 1.387 . S
C1768 C1769 1.387 . S
C1768 H1772 0.950 . S
C1768 C1777 1.390 . S
C1769 C1768 1.387 . S
C1769 C1771 1.387 . S
H1770 C1777 0.950 . S
C1771 C1769 1.387 . S
C1771 C1773 1.390 . S
C1771 H1775 0.950 . S
H1772 C1768 0.950 . S
C1773 C1771 1.390 . S
C1773 C1774 1.387 . S
C1773 H1776 0.950 . S
C1774 C1773 1.387 . S
C1774 C1777 1.387 . S
H1775 C1771 0.950 . S
H1776 C1773 0.950 . S
C1777 C1768 1.390 . S
C1777 H1770 0.950 . S
C1777 C1774 1.387 . S
C1778 C1779 1.387 . S
C1778 H1782 0.950 . S
C1778 C1787 1.390 . S
C1779 C1778 1.387 . S
C1779 C1781 1.387 . S
H1780 C1787 0.950 . S
C1781 C1779 1.387 . S
C1781 C1783 1.390 . S
C1781 H1785 0.950 . S
H1782 C1778 0.950 . S
C1783 C1781 1.390 . S
C1783 C1784 1.387 . S
C1783 H1786 0.950 . S
C1784 C1783 1.387 . S
C1784 C1787 1.387 . S
H1785 C1781 0.950 . S
H1786 C1783 0.950 . S
C1787 C1778 1.390 . S
C1787 H1780 0.950 . S
C1787 C1784 1.387 . S
C1788 C1789 1.387 . S
C1788 H1792 0.950 1_545 S
C1788 C1797 1.390 . S
C1789 C1788 1.387 . S
C1789 C1791 1.387 . S
H1790 C1797 0.950 . S
C1791 C1789 1.387 . S
C1791 C1793 1.390 . S
C1791 H1795 0.950 . S
H1792 C1788 0.950 1_565 S
C1793 C1791 1.390 . S
C1793 C1794 1.387 . S
C1793 H1796 0.950 . S
C1794 C1793 1.387 . S
C1794 C1797 1.387 . S
H1795 C1791 0.950 . S
H1796 C1793 0.950 . S
C1797 C1788 1.390 . S
C1797 H1790 0.950 . S
C1797 C1794 1.387 . S
C1798 C1799 1.387 . S
C1798 H1802 0.950 . S
C1798 C1807 1.390 . S
C1799 C1798 1.387 . S
C1799 C1801 1.387 . S
H1800 C1807 0.950 . S
C1801 C1799 1.387 . S
C1801 C1803 1.390 . S
C1801 H1805 0.950 . S
H1802 C1798 0.950 . S
C1803 C1801 1.390 . S
C1803 C1804 1.387 . S
C1803 H1806 0.950 . S
C1804 C1803 1.387 . S
C1804 C1807 1.387 . S
H1805 C1801 0.950 . S
H1806 C1803 0.950 . S
C1807 C1798 1.390 . S
C1807 H1800 0.950 . S
C1807 C1804 1.387 . S
C1808 C1809 1.387 . S
C1808 H1812 0.950 . S
C1808 C1817 1.390 . S
C1809 C1808 1.387 . S
C1809 C1811 1.387 . S
H1810 C1817 0.950 . S
C1811 C1809 1.387 . S
C1811 C1813 1.390 . S
C1811 H1815 0.950 . S
H1812 C1808 0.950 . S
C1813 C1811 1.390 . S
C1813 C1814 1.387 . S
C1813 H1816 0.950 . S
C1814 C1813 1.387 . S
C1814 C1817 1.387 . S
H1815 C1811 0.950 . S
H1816 C1813 0.950 . S
C1817 C1808 1.390 . S
C1817 H1810 0.950 . S
C1817 C1814 1.387 . S
C1818 C1819 1.387 . S
C1818 H1822 0.950 . S
C1818 C1827 1.390 . S
C1819 C1818 1.387 . S
C1819 C1821 1.387 . S
H1820 C1827 0.950 . S
C1821 C1819 1.387 . S
C1821 C1823 1.390 . S
C1821 H1825 0.950 . S
H1822 C1818 0.950 . S
C1823 C1821 1.390 . S
C1823 C1824 1.387 . S
C1823 H1826 0.950 . S
C1824 C1823 1.387 . S
C1824 C1827 1.387 . S
H1825 C1821 0.950 . S
H1826 C1823 0.950 . S
C1827 C1818 1.390 . S
C1827 H1820 0.950 . S
C1827 C1824 1.387 . S
C1828 C1829 1.387 . S
C1828 H1832 0.950 . S
C1828 C1837 1.390 . S
C1829 C1828 1.387 . S
C1829 C1831 1.387 . S
H1830 C1837 0.950 . S
C1831 C1829 1.387 . S
C1831 C1833 1.390 . S
C1831 H1835 0.950 . S
H1832 C1828 0.950 . S
C1833 C1831 1.390 . S
C1833 C1834 1.387 . S
C1833 H1836 0.950 . S
C1834 C1833 1.387 . S
C1834 C1837 1.387 . S
H1835 C1831 0.950 . S
H1836 C1833 0.950 . S
C1837 C1828 1.390 . S
C1837 H1830 0.950 . S
C1837 C1834 1.387 . S
C1838 C1839 1.387 . S
C1838 H1842 0.950 . S
C1838 C1847 1.390 . S
C1839 C1838 1.387 . S
C1839 C1841 1.387 . S
H1840 C1847 0.950 . S
C1841 C1839 1.387 . S
C1841 C1843 1.390 . S
C1841 H1845 0.950 . S
H1842 C1838 0.950 . S
C1843 C1841 1.390 . S
C1843 C1844 1.387 . S
C1843 H1846 0.950 . S
C1844 C1843 1.387 . S
C1844 C1847 1.387 . S
H1845 C1841 0.950 . S
H1846 C1843 0.950 . S
C1847 C1838 1.390 . S
C1847 H1840 0.950 . S
C1847 C1844 1.387 . S
C1848 C1849 1.387 . S
C1848 H1852 0.950 . S
C1848 C1857 1.390 . S
C1849 C1848 1.387 . S
C1849 C1851 1.387 . S
H1850 C1857 0.950 . S
C1851 C1849 1.387 . S
C1851 C1853 1.390 . S
C1851 H1855 0.950 . S
H1852 C1848 0.950 . S
C1853 C1851 1.390 . S
C1853 C1854 1.387 . S
C1853 H1856 0.950 . S
C1854 C1853 1.387 . S
C1854 C1857 1.387 . S
H1855 C1851 0.950 . S
H1856 C1853 0.950 . S
C1857 C1848 1.390 . S
C1857 H1850 0.950 . S
C1857 C1854 1.387 . S
C1858 C1859 1.387 . S
C1858 H1862 0.950 . S
C1858 C1867 1.390 . S
C1859 C1858 1.387 . S
C1859 C1861 1.387 . S
H1860 C1867 0.950 . S
C1861 C1859 1.387 . S
C1861 C1863 1.390 . S
C1861 H1865 0.950 . S
H1862 C1858 0.950 . S
C1863 C1861 1.390 . S
C1863 C1864 1.387 . S
C1863 H1866 0.950 . S
C1864 C1863 1.387 . S
C1864 C1867 1.387 . S
H1865 C1861 0.950 . S
H1866 C1863 0.950 . S
C1867 C1858 1.390 . S
C1867 H1860 0.950 . S
C1867 C1864 1.387 . S
C1868 C1869 1.387 . S
C1868 H1872 0.950 . S
C1868 C1877 1.390 . S
C1869 C1868 1.387 . S
C1869 C1871 1.387 . S
H1870 C1877 0.950 . S
C1871 C1869 1.387 . S
C1871 C1873 1.390 . S
C1871 H1875 0.950 . S
H1872 C1868 0.950 . S
C1873 C1871 1.390 . S
C1873 C1874 1.387 . S
C1873 H1876 0.950 . S
C1874 C1873 1.387 . S
C1874 C1877 1.387 . S
H1875 C1871 0.950 . S
H1876 C1873 0.950 . S
C1877 C1868 1.390 . S
C1877 H1870 0.950 . S
C1877 C1874 1.387 . S
C1878 C1879 1.387 . S
C1878 H1882 0.950 . S
C1878 C1887 1.390 . S
C1879 C1878 1.387 . S
C1879 C1881 1.387 . S
H1880 C1887 0.950 . S
C1881 C1879 1.387 . S
C1881 C1883 1.390 . S
C1881 H1885 0.950 . S
H1882 C1878 0.950 . S
C1883 C1881 1.390 . S
C1883 C1884 1.387 . S
C1883 H1886 0.950 . S
C1884 C1883 1.387 . S
C1884 C1887 1.387 . S
H1885 C1881 0.950 . S
H1886 C1883 0.950 . S
C1887 C1878 1.390 . S
C1887 H1880 0.950 . S
C1887 C1884 1.387 . S
C1888 C1889 1.387 . S
C1888 H1892 0.950 . S
C1888 C1897 1.390 . S
C1889 C1888 1.387 . S
C1889 C1891 1.387 . S
H1890 C1897 0.950 . S
C1891 C1889 1.387 . S
C1891 C1893 1.390 . S
C1891 H1895 0.950 1_455 S
H1892 C1888 0.950 . S
C1893 C1891 1.390 . S
C1893 C1894 1.387 . S
C1893 H1896 0.950 . S
C1894 C1893 1.387 . S
C1894 C1897 1.387 . S
H1895 C1891 0.950 1_655 S
H1896 C1893 0.950 . S
C1897 C1888 1.390 . S
C1897 H1890 0.950 . S
C1897 C1894 1.387 . S
C1898 C1899 1.387 . S
C1898 H1902 0.950 . S
C1898 C1907 1.390 . S
C1899 C1898 1.387 . S
C1899 C1901 1.387 . S
H1900 C1907 0.950 . S
C1901 C1899 1.387 . S
C1901 C1903 1.390 . S
C1901 H1905 0.950 . S
H1902 C1898 0.950 . S
C1903 C1901 1.390 . S
C1903 C1904 1.387 . S
C1903 H1906 0.950 . S
C1904 C1903 1.387 . S
C1904 C1907 1.387 . S
H1905 C1901 0.950 . S
H1906 C1903 0.950 . S
C1907 C1898 1.390 . S
C1907 H1900 0.950 . S
C1907 C1904 1.387 . S
C1908 C1909 1.387 . S
C1908 H1912 0.950 . S
C1908 C1917 1.390 . S
C1909 C1908 1.387 . S
C1909 C1911 1.387 . S
H1910 C1917 0.950 . S
C1911 C1909 1.387 . S
C1911 C1913 1.390 . S
C1911 H1915 0.950 . S
H1912 C1908 0.950 . S
C1913 C1911 1.390 . S
C1913 C1914 1.387 . S
C1913 H1916 0.950 . S
C1914 C1913 1.387 . S
C1914 C1917 1.387 . S
H1915 C1911 0.950 . S
H1916 C1913 0.950 . S
C1917 C1908 1.390 . S
C1917 H1910 0.950 . S
C1917 C1914 1.387 . S
C1918 C1919 1.387 . S
C1918 H1922 0.950 . S
C1918 C1927 1.390 . S
C1919 C1918 1.387 . S
C1919 C1921 1.387 . S
H1920 C1927 0.950 . S
C1921 C1919 1.387 . S
C1921 C1923 1.390 . S
C1921 H1925 0.950 . S
H1922 C1918 0.950 . S
C1923 C1921 1.390 . S
C1923 C1924 1.387 . S
C1923 H1926 0.950 . S
C1924 C1923 1.387 . S
C1924 C1927 1.387 . S
H1925 C1921 0.950 . S
H1926 C1923 0.950 . S
C1927 C1918 1.390 . S
C1927 H1920 0.950 . S
C1927 C1924 1.387 . S
C1928 C1929 1.387 . S
C1928 H1932 0.950 . S
C1928 C1937 1.390 . S
C1929 C1928 1.387 . S
C1929 C1931 1.387 . S
H1930 C1937 0.950 . S
C1931 C1929 1.387 . S
C1931 C1933 1.390 . S
C1931 H1935 0.950 . S
H1932 C1928 0.950 . S
C1933 C1931 1.390 . S
C1933 C1934 1.387 . S
C1933 H1936 0.950 . S
C1934 C1933 1.387 . S
C1934 C1937 1.387 . S
H1935 C1931 0.950 . S
H1936 C1933 0.950 . S
C1937 C1928 1.390 . S
C1937 H1930 0.950 . S
C1937 C1934 1.387 . S
C1938 C1939 1.387 . S
C1938 H1942 0.950 . S
C1938 C1947 1.390 . S
C1939 C1938 1.387 . S
C1939 C1941 1.387 . S
H1940 C1947 0.950 . S
C1941 C1939 1.387 . S
C1941 C1943 1.390 . S
C1941 H1945 0.950 . S
H1942 C1938 0.950 . S
C1943 C1941 1.390 . S
C1943 C1944 1.387 . S
C1943 H1946 0.950 . S
C1944 C1943 1.387 . S
C1944 C1947 1.387 . S
H1945 C1941 0.950 . S
H1946 C1943 0.950 . S
C1947 C1938 1.390 . S
C1947 H1940 0.950 . S
C1947 C1944 1.387 . S
C1948 C1949 1.387 . S
C1948 H1952 0.950 . S
C1948 C1957 1.390 . S
C1949 C1948 1.387 . S
C1949 C1951 1.387 . S
H1950 C1957 0.950 . S
C1951 C1949 1.387 . S
C1951 C1953 1.390 . S
C1951 H1955 0.950 . S
H1952 C1948 0.950 . S
C1953 C1951 1.390 . S
C1953 C1954 1.387 . S
C1953 H1956 0.950 . S
C1954 C1953 1.387 . S
C1954 C1957 1.387 . S
H1955 C1951 0.950 . S
H1956 C1953 0.950 . S
C1957 C1948 1.390 . S
C1957 H1950 0.950 . S
C1957 C1954 1.387 . S
C1958 C1959 1.387 . S
C1958 H1962 0.950 . S
C1958 C1967 1.390 . S
C1959 C1958 1.387 . S
C1959 C1961 1.387 . S
H1960 C1967 0.950 . S
C1961 C1959 1.387 . S
C1961 C1963 1.390 . S
C1961 H1965 0.950 . S
H1962 C1958 0.950 . S
C1963 C1961 1.390 . S
C1963 C1964 1.387 . S
C1963 H1966 0.950 . S
C1964 C1963 1.387 . S
C1964 C1967 1.387 . S
H1965 C1961 0.950 . S
H1966 C1963 0.950 . S
C1967 C1958 1.390 . S
C1967 H1960 0.950 . S
C1967 C1964 1.387 . S
C1968 C1969 1.387 . S
C1968 H1972 0.950 . S
C1968 C1977 1.390 . S
C1969 C1968 1.387 . S
C1969 C1971 1.387 . S
H1970 C1977 0.950 1_565 S
C1971 C1969 1.387 . S
C1971 C1973 1.390 . S
C1971 H1975 0.950 . S
H1972 C1968 0.950 . S
C1973 C1971 1.390 . S
C1973 C1974 1.387 . S
C1973 H1976 0.950 . S
C1974 C1973 1.387 . S
C1974 C1977 1.387 . S
H1975 C1971 0.950 . S
H1976 C1973 0.950 . S
C1977 C1968 1.390 . S
C1977 H1970 0.950 1_545 S
C1977 C1974 1.387 . S
C1978 C1979 1.387 . S
C1978 H1982 0.950 . S
C1978 C1987 1.390 . S
C1979 C1978 1.387 . S
C1979 C1981 1.387 . S
H1980 C1987 0.950 . S
C1981 C1979 1.387 . S
C1981 C1983 1.390 . S
C1981 H1985 0.950 . S
H1982 C1978 0.950 . S
C1983 C1981 1.390 . S
C1983 C1984 1.387 . S
C1983 H1986 0.950 . S
C1984 C1983 1.387 . S
C1984 C1987 1.387 . S
H1985 C1981 0.950 . S
H1986 C1983 0.950 . S
C1987 C1978 1.390 . S
C1987 H1980 0.950 . S
C1987 C1984 1.387 . S
C1988 C1989 1.387 . S
C1988 H1992 0.950 . S
C1988 C1997 1.390 . S
C1989 C1988 1.387 . S
C1989 C1991 1.387 . S
H1990 C1997 0.950 . S
C1991 C1989 1.387 . S
C1991 C1993 1.390 . S
C1991 H1995 0.950 . S
H1992 C1988 0.950 . S
C1993 C1991 1.390 . S
C1993 C1994 1.387 . S
C1993 H1996 0.950 . S
C1994 C1993 1.387 . S
C1994 C1997 1.387 . S
H1995 C1991 0.950 . S
H1996 C1993 0.950 . S
C1997 C1988 1.390 . S
C1997 H1990 0.950 . S
C1997 C1994 1.387 . S
C1998 C1999 1.387 . S
C1998 H2002 0.950 . S
C1998 C2007 1.390 . S
C1999 C1998 1.387 . S
C1999 C2001 1.387 . S
H2000 C2007 0.950 . S
C2001 C1999 1.387 . S
C2001 C2003 1.390 . S
C2001 H2005 0.950 . S
H2002 C1998 0.950 . S
C2003 C2001 1.390 . S
C2003 C2004 1.387 . S
C2003 H2006 0.950 . S
C2004 C2003 1.387 . S
C2004 C2007 1.387 . S
H2005 C2001 0.950 . S
H2006 C2003 0.950 . S
C2007 C1998 1.390 . S
C2007 H2000 0.950 . S
C2007 C2004 1.387 . S
C2008 C2009 1.387 . S
C2008 H2012 0.950 1_565 S
C2008 C2017 1.390 . S
C2009 C2008 1.387 . S
C2009 C2011 1.387 . S
H2010 C2017 0.950 . S
C2011 C2009 1.387 . S
C2011 C2013 1.390 . S
C2011 H2015 0.950 . S
H2012 C2008 0.950 1_545 S
C2013 C2011 1.390 . S
C2013 C2014 1.387 . S
C2013 H2016 0.950 . S
C2014 C2013 1.387 . S
C2014 C2017 1.387 . S
H2015 C2011 0.950 . S
H2016 C2013 0.950 . S
C2017 C2008 1.390 . S
C2017 H2010 0.950 . S
C2017 C2014 1.387 . S
C2018 C2019 1.387 . S
C2018 H2022 0.950 . S
C2018 C2027 1.390 . S
C2019 C2018 1.387 . S
C2019 C2021 1.387 . S
H2020 C2027 0.950 . S
C2021 C2019 1.387 . S
C2021 C2023 1.390 . S
C2021 H2025 0.950 . S
H2022 C2018 0.950 . S
C2023 C2021 1.390 . S
C2023 C2024 1.387 . S
C2023 H2026 0.950 . S
C2024 C2023 1.387 . S
C2024 C2027 1.387 . S
H2025 C2021 0.950 . S
H2026 C2023 0.950 . S
C2027 C2018 1.390 . S
C2027 H2020 0.950 . S
C2027 C2024 1.387 . S
C2028 C2029 1.387 . S
C2028 H2032 0.950 . S
C2028 C2037 1.390 . S
C2029 C2028 1.387 . S
C2029 C2031 1.387 . S
H2030 C2037 0.950 . S
C2031 C2029 1.387 . S
C2031 C2033 1.390 . S
C2031 H2035 0.950 . S
H2032 C2028 0.950 . S
C2033 C2031 1.390 . S
C2033 C2034 1.387 . S
C2033 H2036 0.950 . S
C2034 C2033 1.387 . S
C2034 C2037 1.387 . S
H2035 C2031 0.950 . S
H2036 C2033 0.950 . S
C2037 C2028 1.390 . S
C2037 H2030 0.950 . S
C2037 C2034 1.387 . S
C2038 C2039 1.387 . S
C2038 H2042 0.950 . S
C2038 C2047 1.390 . S
C2039 C2038 1.387 . S
C2039 C2041 1.387 . S
H2040 C2047 0.950 . S
C2041 C2039 1.387 . S
C2041 C2043 1.390 . S
C2041 H2045 0.950 . S
H2042 C2038 0.950 . S
C2043 C2041 1.390 . S
C2043 C2044 1.387 . S
C2043 H2046 0.950 . S
C2044 C2043 1.387 . S
C2044 C2047 1.387 . S
H2045 C2041 0.950 . S
H2046 C2043 0.950 . S
C2047 C2038 1.390 . S
C2047 H2040 0.950 . S
C2047 C2044 1.387 . S
C2048 C2049 1.387 . S
C2048 H2052 0.950 . S
C2048 C2057 1.390 . S
C2049 C2048 1.387 . S
C2049 C2051 1.387 . S
H2050 C2057 0.950 . S
C2051 C2049 1.387 . S
C2051 C2053 1.390 . S
C2051 H2055 0.950 . S
H2052 C2048 0.950 . S
C2053 C2051 1.390 . S
C2053 C2054 1.387 . S
C2053 H2056 0.950 . S
C2054 C2053 1.387 . S
C2054 C2057 1.387 . S
H2055 C2051 0.950 . S
H2056 C2053 0.950 . S
C2057 C2048 1.390 . S
C2057 H2050 0.950 . S
C2057 C2054 1.387 . S
C2058 C2059 1.387 . S
C2058 H2062 0.950 . S
C2058 C2067 1.390 . S
C2059 C2058 1.387 . S
C2059 C2061 1.387 . S
H2060 C2067 0.950 . S
C2061 C2059 1.387 . S
C2061 C2063 1.390 . S
C2061 H2065 0.950 . S
H2062 C2058 0.950 . S
C2063 C2061 1.390 . S
C2063 C2064 1.387 . S
C2063 H2066 0.950 . S
C2064 C2063 1.387 . S
C2064 C2067 1.387 . S
H2065 C2061 0.950 . S
H2066 C2063 0.950 . S
C2067 C2058 1.390 . S
C2067 H2060 0.950 . S
C2067 C2064 1.387 . S
C2068 C2069 1.387 . S
C2068 H2072 0.950 . S
C2068 C2077 1.390 . S
C2069 C2068 1.387 . S
C2069 C2071 1.387 . S
H2070 C2077 0.950 . S
C2071 C2069 1.387 . S
C2071 C2073 1.390 . S
C2071 H2075 0.950 . S
H2072 C2068 0.950 . S
C2073 C2071 1.390 . S
C2073 C2074 1.387 . S
C2073 H2076 0.950 . S
C2074 C2073 1.387 . S
C2074 C2077 1.387 . S
H2075 C2071 0.950 . S
H2076 C2073 0.950 . S
C2077 C2068 1.390 . S
C2077 H2070 0.950 . S
C2077 C2074 1.387 . S
C2078 C2079 1.387 . S
C2078 H2082 0.950 . S
C2078 C2087 1.390 . S
C2079 C2078 1.387 . S
C2079 C2081 1.387 . S
H2080 C2087 0.950 . S
C2081 C2079 1.387 . S
C2081 C2083 1.390 . S
C2081 H2085 0.950 . S
H2082 C2078 0.950 . S
C2083 C2081 1.390 . S
C2083 C2084 1.387 . S
C2083 H2086 0.950 . S
C2084 C2083 1.387 . S
C2084 C2087 1.387 . S
H2085 C2081 0.950 . S
H2086 C2083 0.950 . S
C2087 C2078 1.390 . S
C2087 H2080 0.950 . S
C2087 C2084 1.387 . S
C2088 C2089 1.387 . S
C2088 H2092 0.950 . S
C2088 C2097 1.390 . S
C2089 C2088 1.387 . S
C2089 C2091 1.387 . S
H2090 C2097 0.950 . S
C2091 C2089 1.387 . S
C2091 C2093 1.390 . S
C2091 H2095 0.950 . S
H2092 C2088 0.950 . S
C2093 C2091 1.390 . S
C2093 C2094 1.387 . S
C2093 H2096 0.950 . S
C2094 C2093 1.387 . S
C2094 C2097 1.387 . S
H2095 C2091 0.950 . S
H2096 C2093 0.950 . S
C2097 C2088 1.390 . S
C2097 H2090 0.950 . S
C2097 C2094 1.387 . S
C2098 C2099 1.387 . S
C2098 H2102 0.950 . S
C2098 C2107 1.390 . S
C2099 C2098 1.387 . S
C2099 C2101 1.387 . S
H2100 C2107 0.950 . S
C2101 C2099 1.387 . S
C2101 C2103 1.390 . S
C2101 H2105 0.950 . S
H2102 C2098 0.950 . S
C2103 C2101 1.390 . S
C2103 C2104 1.387 . S
C2103 H2106 0.950 . S
C2104 C2103 1.387 . S
C2104 C2107 1.387 . S
H2105 C2101 0.950 . S
H2106 C2103 0.950 . S
C2107 C2098 1.390 . S
C2107 H2100 0.950 . S
C2107 C2104 1.387 . S
C2108 C2109 1.387 . S
C2108 H2112 0.950 . S
C2108 C2117 1.390 . S
C2109 C2108 1.387 . S
C2109 C2111 1.387 . S
H2110 C2117 0.950 . S
C2111 C2109 1.387 . S
C2111 C2113 1.390 . S
C2111 H2115 0.950 . S
H2112 C2108 0.950 . S
C2113 C2111 1.390 . S
C2113 C2114 1.387 . S
C2113 H2116 0.950 . S
C2114 C2113 1.387 . S
C2114 C2117 1.387 . S
H2115 C2111 0.950 . S
H2116 C2113 0.950 . S
C2117 C2108 1.390 . S
C2117 H2110 0.950 . S
C2117 C2114 1.387 . S
C2118 C2119 1.387 . S
C2118 H2122 0.950 . S
C2118 C2127 1.390 . S
C2119 C2118 1.387 . S
C2119 C2121 1.387 . S
H2120 C2127 0.950 . S
C2121 C2119 1.387 . S
C2121 C2123 1.390 . S
C2121 H2125 0.950 . S
H2122 C2118 0.950 . S
C2123 C2121 1.390 . S
C2123 C2124 1.387 . S
C2123 H2126 0.950 . S
C2124 C2123 1.387 . S
C2124 C2127 1.387 . S
H2125 C2121 0.950 . S
H2126 C2123 0.950 . S
C2127 C2118 1.390 . S
C2127 H2120 0.950 . S
C2127 C2124 1.387 . S
C2128 C2129 1.387 . S
C2128 H2132 0.950 . S
C2128 C2137 1.390 . S
C2129 C2128 1.387 . S
C2129 C2131 1.387 . S
H2130 C2137 0.950 . S
C2131 C2129 1.387 . S
C2131 C2133 1.390 . S
C2131 H2135 0.950 . S
H2132 C2128 0.950 . S
C2133 C2131 1.390 . S
C2133 C2134 1.387 . S
C2133 H2136 0.950 . S
C2134 C2133 1.387 . S
C2134 C2137 1.387 . S
H2135 C2131 0.950 . S
H2136 C2133 0.950 . S
C2137 C2128 1.390 . S
C2137 H2130 0.950 . S
C2137 C2134 1.387 . S
C2138 C2139 1.387 . S
C2138 H2142 0.950 . S
C2138 C2147 1.390 . S
C2139 C2138 1.387 . S
C2139 C2141 1.387 . S
H2140 C2147 0.950 . S
C2141 C2139 1.387 . S
C2141 C2143 1.390 . S
C2141 H2145 0.950 . S
H2142 C2138 0.950 . S
C2143 C2141 1.390 . S
C2143 C2144 1.387 . S
C2143 H2146 0.950 . S
C2144 C2143 1.387 . S
C2144 C2147 1.387 . S
H2145 C2141 0.950 . S
H2146 C2143 0.950 . S
C2147 C2138 1.390 . S
C2147 H2140 0.950 . S
C2147 C2144 1.387 . S
C2148 C2149 1.387 . S
C2148 H2152 0.950 . S
C2148 C2157 1.390 . S
C2149 C2148 1.387 . S
C2149 C2151 1.387 . S
H2150 C2157 0.950 . S
C2151 C2149 1.387 . S
C2151 C2153 1.390 . S
C2151 H2155 0.950 . S
H2152 C2148 0.950 . S
C2153 C2151 1.390 . S
C2153 C2154 1.387 . S
C2153 H2156 0.950 . S
C2154 C2153 1.387 . S
C2154 C2157 1.387 . S
H2155 C2151 0.950 . S
H2156 C2153 0.950 . S
C2157 C2148 1.390 . S
C2157 H2150 0.950 . S
C2157 C2154 1.387 . S
C2158 C2159 1.387 . S
C2158 H2162 0.950 . S
C2158 C2167 1.390 . S
C2159 C2158 1.387 . S
C2159 C2161 1.387 . S
H2160 C2167 0.950 . S
C2161 C2159 1.387 . S
C2161 C2163 1.390 . S
C2161 H2165 0.950 . S
H2162 C2158 0.950 . S
C2163 C2161 1.390 . S
C2163 C2164 1.387 . S
C2163 H2166 0.950 . S
C2164 C2163 1.387 . S
C2164 C2167 1.387 . S
H2165 C2161 0.950 . S
H2166 C2163 0.950 . S
C2167 C2158 1.390 . S
C2167 H2160 0.950 . S
C2167 C2164 1.387 . S
C2168 C2169 1.387 . S
C2168 H2172 0.950 . S
C2168 C2177 1.390 . S
C2169 C2168 1.387 . S
C2169 C2171 1.387 . S
H2170 C2177 0.950 . S
C2171 C2169 1.387 . S
C2171 C2173 1.390 . S
C2171 H2175 0.950 . S
H2172 C2168 0.950 . S
C2173 C2171 1.390 . S
C2173 C2174 1.387 . S
C2173 H2176 0.950 . S
C2174 C2173 1.387 . S
C2174 C2177 1.387 . S
H2175 C2171 0.950 . S
H2176 C2173 0.950 . S
C2177 C2168 1.390 . S
C2177 H2170 0.950 . S
C2177 C2174 1.387 . S
C2178 C2179 1.387 . S
C2178 H2182 0.950 . S
C2178 C2187 1.390 . S
C2179 C2178 1.387 . S
C2179 C2181 1.387 . S
H2180 C2187 0.950 . S
C2181 C2179 1.387 . S
C2181 C2183 1.390 . S
C2181 H2185 0.950 . S
H2182 C2178 0.950 . S
C2183 C2181 1.390 . S
C2183 C2184 1.387 . S
C2183 H2186 0.950 . S
C2184 C2183 1.387 . S
C2184 C2187 1.387 . S
H2185 C2181 0.950 . S
H2186 C2183 0.950 . S
C2187 C2178 1.390 . S
C2187 H2180 0.950 . S
C2187 C2184 1.387 . S
C2188 C2189 1.387 . S
C2188 H2192 0.950 . S
C2188 C2197 1.390 . S
C2189 C2188 1.387 . S
C2189 C2191 1.387 . S
H2190 C2197 0.950 . S
C2191 C2189 1.387 . S
C2191 C2193 1.390 . S
C2191 H2195 0.950 . S
H2192 C2188 0.950 . S
C2193 C2191 1.390 . S
C2193 C2194 1.387 . S
C2193 H2196 0.950 . S
C2194 C2193 1.387 . S
C2194 C2197 1.387 . S
H2195 C2191 0.950 . S
H2196 C2193 0.950 . S
C2197 C2188 1.390 . S
C2197 H2190 0.950 . S
C2197 C2194 1.387 . S
C2198 C2199 1.387 . S
C2198 H2202 0.950 . S
C2198 C2207 1.390 . S
C2199 C2198 1.387 . S
C2199 C2201 1.387 . S
H2200 C2207 0.950 . S
C2201 C2199 1.387 . S
C2201 C2203 1.390 . S
C2201 H2205 0.950 . S
H2202 C2198 0.950 . S
C2203 C2201 1.390 . S
C2203 C2204 1.387 . S
C2203 H2206 0.950 . S
C2204 C2203 1.387 . S
C2204 C2207 1.387 . S
H2205 C2201 0.950 . S
H2206 C2203 0.950 . S
C2207 C2198 1.390 . S
C2207 H2200 0.950 . S
C2207 C2204 1.387 . S
C2208 C2209 1.387 . S
C2208 H2212 0.950 . S
C2208 C2217 1.390 . S
C2209 C2208 1.387 . S
C2209 C2211 1.387 . S
H2210 C2217 0.950 . S
C2211 C2209 1.387 . S
C2211 C2213 1.390 . S
C2211 H2215 0.950 . S
H2212 C2208 0.950 . S
C2213 C2211 1.390 . S
C2213 C2214 1.387 . S
C2213 H2216 0.950 . S
C2214 C2213 1.387 . S
C2214 C2217 1.387 . S
H2215 C2211 0.950 . S
H2216 C2213 0.950 . S
C2217 C2208 1.390 . S
C2217 H2210 0.950 . S
C2217 C2214 1.387 . S
C2218 C2219 1.387 . S
C2218 H2222 0.950 . S
C2218 C2227 1.390 . S
C2219 C2218 1.387 . S
C2219 C2221 1.387 . S
H2220 C2227 0.950 . S
C2221 C2219 1.387 . S
C2221 C2223 1.390 . S
C2221 H2225 0.950 . S
H2222 C2218 0.950 . S
C2223 C2221 1.390 . S
C2223 C2224 1.387 . S
C2223 H2226 0.950 . S
C2224 C2223 1.387 . S
C2224 C2227 1.387 . S
H2225 C2221 0.950 . S
H2226 C2223 0.950 . S
C2227 C2218 1.390 . S
C2227 H2220 0.950 . S
C2227 C2224 1.387 . S
C2228 C2229 1.387 . S
C2228 H2232 0.950 . S
C2228 C2237 1.390 . S
C2229 C2228 1.387 . S
C2229 C2231 1.387 . S
H2230 C2237 0.950 . S
C2231 C2229 1.387 . S
C2231 C2233 1.390 . S
C2231 H2235 0.950 . S
H2232 C2228 0.950 . S
C2233 C2231 1.390 . S
C2233 C2234 1.387 . S
C2233 H2236 0.950 . S
C2234 C2233 1.387 . S
C2234 C2237 1.387 . S
H2235 C2231 0.950 . S
H2236 C2233 0.950 . S
C2237 C2228 1.390 . S
C2237 H2230 0.950 . S
C2237 C2234 1.387 . S
C2238 C2239 1.387 . S
C2238 H2242 0.950 . S
C2238 C2247 1.390 . S
C2239 C2238 1.387 . S
C2239 C2241 1.387 . S
H2240 C2247 0.950 . S
C2241 C2239 1.387 . S
C2241 C2243 1.390 . S
C2241 H2245 0.950 . S
H2242 C2238 0.950 . S
C2243 C2241 1.390 . S
C2243 C2244 1.387 . S
C2243 H2246 0.950 . S
C2244 C2243 1.387 . S
C2244 C2247 1.387 . S
H2245 C2241 0.950 . S
H2246 C2243 0.950 . S
C2247 C2238 1.390 . S
C2247 H2240 0.950 . S
C2247 C2244 1.387 . S
C2248 C2249 1.387 . S
C2248 H2252 0.950 . S
C2248 C2257 1.390 . S
C2249 C2248 1.387 . S
C2249 C2251 1.387 . S
H2250 C2257 0.950 . S
C2251 C2249 1.387 . S
C2251 C2253 1.390 . S
C2251 H2255 0.950 . S
H2252 C2248 0.950 . S
C2253 C2251 1.390 . S
C2253 C2254 1.387 . S
C2253 H2256 0.950 . S
C2254 C2253 1.387 . S
C2254 C2257 1.387 . S
H2255 C2251 0.950 . S
H2256 C2253 0.950 . S
C2257 C2248 1.390 . S
C2257 H2250 0.950 . S
C2257 C2254 1.387 . S
C2258 C2259 1.387 . S
C2258 H2262 0.950 . S
C2258 C2267 1.390 . S
C2259 C2258 1.387 . S
C2259 C2261 1.387 . S
H2260 C2267 0.950 . S
C2261 C2259 1.387 . S
C2261 C2263 1.390 . S
C2261 H2265 0.950 . S
H2262 C2258 0.950 . S
C2263 C2261 1.390 . S
C2263 C2264 1.387 . S
C2263 H2266 0.950 . S
C2264 C2263 1.387 . S
C2264 C2267 1.387 . S
H2265 C2261 0.950 . S
H2266 C2263 0.950 . S
C2267 C2258 1.390 . S
C2267 H2260 0.950 . S
C2267 C2264 1.387 . S
C2268 C2269 1.387 . S
C2268 H2272 0.950 . S
C2268 C2277 1.390 . S
C2269 C2268 1.387 . S
C2269 C2271 1.387 . S
H2270 C2277 0.950 . S
C2271 C2269 1.387 . S
C2271 C2273 1.390 . S
C2271 H2275 0.950 . S
H2272 C2268 0.950 . S
C2273 C2271 1.390 . S
C2273 C2274 1.387 . S
C2273 H2276 0.950 . S
C2274 C2273 1.387 . S
C2274 C2277 1.387 . S
H2275 C2271 0.950 . S
H2276 C2273 0.950 . S
C2277 C2268 1.390 . S
C2277 H2270 0.950 . S
C2277 C2274 1.387 . S
C2278 C2279 1.387 . S
C2278 H2282 0.950 . S
C2278 C2287 1.390 . S
C2279 C2278 1.387 . S
C2279 C2281 1.387 . S
H2280 C2287 0.950 . S
C2281 C2279 1.387 . S
C2281 C2283 1.390 . S
C2281 H2285 0.950 . S
H2282 C2278 0.950 . S
C2283 C2281 1.390 . S
C2283 C2284 1.387 . S
C2283 H2286 0.950 . S
C2284 C2283 1.387 . S
C2284 C2287 1.387 . S
H2285 C2281 0.950 . S
H2286 C2283 0.950 . S
C2287 C2278 1.390 . S
C2287 H2280 0.950 . S
C2287 C2284 1.387 . S
C2288 C2289 1.387 . S
C2288 H2292 0.950 . S
C2288 C2297 1.390 . S
C2289 C2288 1.387 . S
C2289 C2291 1.387 . S
H2290 C2297 0.950 . S
C2291 C2289 1.387 . S
C2291 C2293 1.390 . S
C2291 H2295 0.950 . S
H2292 C2288 0.950 . S
C2293 C2291 1.390 . S
C2293 C2294 1.387 . S
C2293 H2296 0.950 . S
C2294 C2293 1.387 . S
C2294 C2297 1.387 . S
H2295 C2291 0.950 . S
H2296 C2293 0.950 . S
C2297 C2288 1.390 . S
C2297 H2290 0.950 . S
C2297 C2294 1.387 . S
C2298 C2299 1.387 . S
C2298 H2302 0.950 . S
C2298 C2307 1.390 . S
C2299 C2298 1.387 . S
C2299 C2301 1.387 . S
H2300 C2307 0.950 . S
C2301 C2299 1.387 . S
C2301 C2303 1.390 . S
C2301 H2305 0.950 . S
H2302 C2298 0.950 . S
C2303 C2301 1.390 . S
C2303 C2304 1.387 . S
C2303 H2306 0.950 . S
C2304 C2303 1.387 . S
C2304 C2307 1.387 . S
H2305 C2301 0.950 . S
H2306 C2303 0.950 . S
C2307 C2298 1.390 . S
C2307 H2300 0.950 . S
C2307 C2304 1.387 . S
C2308 C2309 1.387 . S
C2308 H2312 0.950 . S
C2308 C2317 1.390 . S
C2309 C2308 1.387 . S
C2309 C2311 1.387 . S
H2310 C2317 0.950 . S
C2311 C2309 1.387 . S
C2311 C2313 1.390 . S
C2311 H2315 0.950 . S
H2312 C2308 0.950 . S
C2313 C2311 1.390 . S
C2313 C2314 1.387 . S
C2313 H2316 0.950 . S
C2314 C2313 1.387 . S
C2314 C2317 1.387 . S
H2315 C2311 0.950 . S
H2316 C2313 0.950 . S
C2317 C2308 1.390 . S
C2317 H2310 0.950 . S
C2317 C2314 1.387 . S
C2318 C2319 1.387 . S
C2318 H2322 0.950 . S
C2318 C2327 1.390 . S
C2319 C2318 1.387 . S
C2319 C2321 1.387 . S
H2320 C2327 0.950 . S
C2321 C2319 1.387 . S
C2321 C2323 1.390 . S
C2321 H2325 0.950 . S
H2322 C2318 0.950 . S
C2323 C2321 1.390 . S
C2323 C2324 1.387 . S
C2323 H2326 0.950 . S
C2324 C2323 1.387 . S
C2324 C2327 1.387 . S
H2325 C2321 0.950 . S
H2326 C2323 0.950 . S
C2327 C2318 1.390 . S
C2327 H2320 0.950 . S
C2327 C2324 1.387 . S
C2328 C2329 1.387 . S
C2328 H2332 0.950 . S
C2328 C2337 1.390 . S
C2329 C2328 1.387 . S
C2329 C2331 1.387 . S
H2330 C2337 0.950 . S
C2331 C2329 1.387 . S
C2331 C2333 1.390 . S
C2331 H2335 0.950 . S
H2332 C2328 0.950 . S
C2333 C2331 1.390 . S
C2333 C2334 1.387 . S
C2333 H2336 0.950 . S
C2334 C2333 1.387 . S
C2334 C2337 1.387 . S
H2335 C2331 0.950 . S
H2336 C2333 0.950 . S
C2337 C2328 1.390 . S
C2337 H2330 0.950 . S
C2337 C2334 1.387 . S
C2338 C2339 1.387 . S
C2338 H2342 0.950 . S
C2338 C2347 1.390 . S
C2339 C2338 1.387 . S
C2339 C2341 1.387 . S
H2340 C2347 0.950 . S
C2341 C2339 1.387 . S
C2341 C2343 1.390 . S
C2341 H2345 0.950 . S
H2342 C2338 0.950 . S
C2343 C2341 1.390 . S
C2343 C2344 1.387 . S
C2343 H2346 0.950 . S
C2344 C2343 1.387 . S
C2344 C2347 1.387 . S
H2345 C2341 0.950 . S
H2346 C2343 0.950 . S
C2347 C2338 1.390 . S
C2347 H2340 0.950 . S
C2347 C2344 1.387 . S
C2348 C2349 1.387 . S
C2348 H2352 0.950 . S
C2348 C2357 1.390 . S
C2349 C2348 1.387 . S
C2349 C2351 1.387 . S
H2350 C2357 0.950 . S
C2351 C2349 1.387 . S
C2351 C2353 1.390 . S
C2351 H2355 0.950 . S
H2352 C2348 0.950 . S
C2353 C2351 1.390 . S
C2353 C2354 1.387 . S
C2353 H2356 0.950 . S
C2354 C2353 1.387 . S
C2354 C2357 1.387 . S
H2355 C2351 0.950 . S
H2356 C2353 0.950 . S
C2357 C2348 1.390 . S
C2357 H2350 0.950 . S
C2357 C2354 1.387 . S
C2358 C2359 1.387 . S
C2358 H2362 0.950 . S
C2358 C2367 1.390 . S
C2359 C2358 1.387 . S
C2359 C2361 1.387 . S
H2360 C2367 0.950 . S
C2361 C2359 1.387 . S
C2361 C2363 1.390 . S
C2361 H2365 0.950 . S
H2362 C2358 0.950 . S
C2363 C2361 1.390 . S
C2363 C2364 1.387 . S
C2363 H2366 0.950 . S
C2364 C2363 1.387 . S
C2364 C2367 1.387 . S
H2365 C2361 0.950 . S
H2366 C2363 0.950 . S
C2367 C2358 1.390 . S
C2367 H2360 0.950 . S
C2367 C2364 1.387 . S
C2368 C2369 1.387 . S
C2368 H2372 0.950 . S
C2368 C2377 1.390 . S
C2369 C2368 1.387 . S
C2369 C2371 1.387 . S
H2370 C2377 0.950 . S
C2371 C2369 1.387 . S
C2371 C2373 1.390 . S
C2371 H2375 0.950 . S
H2372 C2368 0.950 . S
C2373 C2371 1.390 . S
C2373 C2374 1.387 . S
C2373 H2376 0.950 . S
C2374 C2373 1.387 . S
C2374 C2377 1.387 . S
H2375 C2371 0.950 . S
H2376 C2373 0.950 . S
C2377 C2368 1.390 . S
C2377 H2370 0.950 . S
C2377 C2374 1.387 . S
C2378 C2379 1.387 . S
C2378 H2382 0.950 . S
C2378 C2387 1.390 . S
C2379 C2378 1.387 . S
C2379 C2381 1.387 . S
H2380 C2387 0.950 . S
C2381 C2379 1.387 . S
C2381 C2383 1.390 . S
C2381 H2385 0.950 . S
H2382 C2378 0.950 . S
C2383 C2381 1.390 . S
C2383 C2384 1.387 . S
C2383 H2386 0.950 . S
C2384 C2383 1.387 . S
C2384 C2387 1.387 . S
H2385 C2381 0.950 . S
H2386 C2383 0.950 . S
C2387 C2378 1.390 . S
C2387 H2380 0.950 . S
C2387 C2384 1.387 . S
C2388 C2389 1.387 . S
C2388 H2392 0.950 . S
C2388 C2397 1.390 . S
C2389 C2388 1.387 . S
C2389 C2391 1.387 . S
H2390 C2397 0.950 . S
C2391 C2389 1.387 . S
C2391 C2393 1.390 . S
C2391 H2395 0.950 . S
H2392 C2388 0.950 . S
C2393 C2391 1.390 . S
C2393 C2394 1.387 . S
C2393 H2396 0.950 . S
C2394 C2393 1.387 . S
C2394 C2397 1.387 . S
H2395 C2391 0.950 . S
H2396 C2393 0.950 . S
C2397 C2388 1.390 . S
C2397 H2390 0.950 . S
C2397 C2394 1.387 . S
C2398 C2399 1.387 . S
C2398 H2402 0.950 . S
C2398 C2407 1.390 . S
C2399 C2398 1.387 . S
C2399 C2401 1.387 . S
H2400 C2407 0.950 . S
C2401 C2399 1.387 . S
C2401 C2403 1.390 . S
C2401 H2405 0.950 . S
H2402 C2398 0.950 . S
C2403 C2401 1.390 . S
C2403 C2404 1.387 . S
C2403 H2406 0.950 . S
C2404 C2403 1.387 . S
C2404 C2407 1.387 . S
H2405 C2401 0.950 . S
H2406 C2403 0.950 . S
C2407 C2398 1.390 . S
C2407 H2400 0.950 . S
C2407 C2404 1.387 . S
C2408 C2409 1.387 . S
C2408 H2412 0.950 . S
C2408 C2417 1.390 . S
C2409 C2408 1.387 . S
C2409 C2411 1.387 . S
H2410 C2417 0.950 . S
C2411 C2409 1.387 . S
C2411 C2413 1.390 . S
C2411 H2415 0.950 . S
H2412 C2408 0.950 . S
C2413 C2411 1.390 . S
C2413 C2414 1.387 . S
C2413 H2416 0.950 . S
C2414 C2413 1.387 . S
C2414 C2417 1.387 . S
H2415 C2411 0.950 . S
H2416 C2413 0.950 . S
C2417 C2408 1.390 . S
C2417 H2410 0.950 . S
C2417 C2414 1.387 . S
C2418 C2419 1.387 . S
C2418 H2422 0.950 . S
C2418 C2427 1.390 . S
C2419 C2418 1.387 . S
C2419 C2421 1.387 . S
H2420 C2427 0.950 . S
C2421 C2419 1.387 . S
C2421 C2423 1.390 . S
C2421 H2425 0.950 . S
H2422 C2418 0.950 . S
C2423 C2421 1.390 . S
C2423 C2424 1.387 . S
C2423 H2426 0.950 . S
C2424 C2423 1.387 . S
C2424 C2427 1.387 . S
H2425 C2421 0.950 . S
H2426 C2423 0.950 . S
C2427 C2418 1.390 . S
C2427 H2420 0.950 . S
C2427 C2424 1.387 . S
C2428 C2429 1.387 . S
C2428 H2432 0.950 . S
C2428 C2437 1.390 . S
C2429 C2428 1.387 . S
C2429 C2431 1.387 . S
H2430 C2437 0.950 . S
C2431 C2429 1.387 . S
C2431 C2433 1.390 . S
C2431 H2435 0.950 . S
H2432 C2428 0.950 . S
C2433 C2431 1.390 . S
C2433 C2434 1.387 . S
C2433 H2436 0.950 . S
C2434 C2433 1.387 . S
C2434 C2437 1.387 . S
H2435 C2431 0.950 . S
H2436 C2433 0.950 . S
C2437 C2428 1.390 . S
C2437 H2430 0.950 . S
C2437 C2434 1.387 . S
C2438 C2439 1.387 . S
C2438 H2442 0.950 . S
C2438 C2447 1.390 . S
C2439 C2438 1.387 . S
C2439 C2441 1.387 . S
H2440 C2447 0.950 . S
C2441 C2439 1.387 . S
C2441 C2443 1.390 . S
C2441 H2445 0.950 . S
H2442 C2438 0.950 . S
C2443 C2441 1.390 . S
C2443 C2444 1.387 . S
C2443 H2446 0.950 . S
C2444 C2443 1.387 . S
C2444 C2447 1.387 . S
H2445 C2441 0.950 . S
H2446 C2443 0.950 . S
C2447 C2438 1.390 . S
C2447 H2440 0.950 . S
C2447 C2444 1.387 . S
C2448 C2449 1.387 . S
C2448 H2452 0.950 . S
C2448 C2457 1.390 . S
C2449 C2448 1.387 . S
C2449 C2451 1.387 . S
H2450 C2457 0.950 . S
C2451 C2449 1.387 . S
C2451 C2453 1.390 . S
C2451 H2455 0.950 . S
H2452 C2448 0.950 . S
C2453 C2451 1.390 . S
C2453 C2454 1.387 . S
C2453 H2456 0.950 . S
C2454 C2453 1.387 . S
C2454 C2457 1.387 . S
H2455 C2451 0.950 . S
H2456 C2453 0.950 . S
C2457 C2448 1.390 . S
C2457 H2450 0.950 . S
C2457 C2454 1.387 . S
C2458 C2459 1.387 . S
C2458 H2462 0.950 . S
C2458 C2467 1.390 . S
C2459 C2458 1.387 . S
C2459 C2461 1.387 . S
H2460 C2467 0.950 . S
C2461 C2459 1.387 . S
C2461 C2463 1.390 . S
C2461 H2465 0.950 . S
H2462 C2458 0.950 . S
C2463 C2461 1.390 . S
C2463 C2464 1.387 . S
C2463 H2466 0.950 . S
C2464 C2463 1.387 . S
C2464 C2467 1.387 . S
H2465 C2461 0.950 . S
H2466 C2463 0.950 . S
C2467 C2458 1.390 . S
C2467 H2460 0.950 . S
C2467 C2464 1.387 . S
C2468 C2469 1.387 . S
C2468 H2472 0.950 . S
C2468 C2477 1.390 . S
C2469 C2468 1.387 . S
C2469 C2471 1.387 . S
H2470 C2477 0.950 . S
C2471 C2469 1.387 . S
C2471 C2473 1.390 . S
C2471 H2475 0.950 . S
H2472 C2468 0.950 . S
C2473 C2471 1.390 . S
C2473 C2474 1.387 . S
C2473 H2476 0.950 . S
C2474 C2473 1.387 . S
C2474 C2477 1.387 . S
H2475 C2471 0.950 . S
H2476 C2473 0.950 . S
C2477 C2468 1.390 . S
C2477 H2470 0.950 . S
C2477 C2474 1.387 . S
C2478 C2479 1.387 . S
C2478 H2482 0.950 . S
C2478 C2487 1.390 . S
C2479 C2478 1.387 . S
C2479 C2481 1.387 . S
H2480 C2487 0.950 . S
C2481 C2479 1.387 . S
C2481 C2483 1.390 . S
C2481 H2485 0.950 . S
H2482 C2478 0.950 . S
C2483 C2481 1.390 . S
C2483 C2484 1.387 . S
C2483 H2486 0.950 . S
C2484 C2483 1.387 . S
C2484 C2487 1.387 . S
H2485 C2481 0.950 . S
H2486 C2483 0.950 . S
C2487 C2478 1.390 . S
C2487 H2480 0.950 . S
C2487 C2484 1.387 . S
C2488 C2489 1.387 . S
C2488 H2492 0.950 . S
C2488 C2497 1.390 . S
C2489 C2488 1.387 . S
C2489 C2491 1.387 . S
H2490 C2497 0.950 . S
C2491 C2489 1.387 . S
C2491 C2493 1.390 . S
C2491 H2495 0.950 . S
H2492 C2488 0.950 . S
C2493 C2491 1.390 . S
C2493 C2494 1.387 . S
C2493 H2496 0.950 . S
C2494 C2493 1.387 . S
C2494 C2497 1.387 . S
H2495 C2491 0.950 . S
H2496 C2493 0.950 . S
C2497 C2488 1.390 . S
C2497 H2490 0.950 . S
C2497 C2494 1.387 . S
C2498 C2499 1.387 . S
C2498 H2502 0.950 . S
C2498 C2507 1.390 . S
C2499 C2498 1.387 . S
C2499 C2501 1.387 . S
H2500 C2507 0.950 . S
C2501 C2499 1.387 . S
C2501 C2503 1.390 . S
C2501 H2505 0.950 . S
H2502 C2498 0.950 . S
C2503 C2501 1.390 . S
C2503 C2504 1.387 . S
C2503 H2506 0.950 . S
C2504 C2503 1.387 . S
C2504 C2507 1.387 . S
H2505 C2501 0.950 . S
H2506 C2503 0.950 . S
C2507 C2498 1.390 . S
C2507 H2500 0.950 . S
C2507 C2504 1.387 . S
C2508 C2509 1.387 . S
C2508 H2512 0.950 . S
C2508 C2517 1.390 . S
C2509 C2508 1.387 . S
C2509 C2511 1.387 . S
H2510 C2517 0.950 . S
C2511 C2509 1.387 . S
C2511 C2513 1.390 . S
C2511 H2515 0.950 . S
H2512 C2508 0.950 . S
C2513 C2511 1.390 . S
C2513 C2514 1.387 . S
C2513 H2516 0.950 . S
C2514 C2513 1.387 . S
C2514 C2517 1.387 . S
H2515 C2511 0.950 . S
H2516 C2513 0.950 . S
C2517 C2508 1.390 . S
C2517 H2510 0.950 . S
C2517 C2514 1.387 . S
C2518 C2519 1.387 . S
C2518 H2522 0.950 . S
C2518 C2527 1.390 . S
C2519 C2518 1.387 . S
C2519 C2521 1.387 . S
H2520 C2527 0.950 . S
C2521 C2519 1.387 . S
C2521 C2523 1.390 . S
C2521 H2525 0.950 . S
H2522 C2518 0.950 . S
C2523 C2521 1.390 . S
C2523 C2524 1.387 . S
C2523 H2526 0.950 . S
C2524 C2523 1.387 . S
C2524 C2527 1.387 . S
H2525 C2521 0.950 . S
H2526 C2523 0.950 . S
C2527 C2518 1.390 . S
C2527 H2520 0.950 . S
C2527 C2524 1.387 . S
C2528 C2529 1.387 . S
C2528 H2532 0.950 . S
C2528 C2537 1.390 . S
C2529 C2528 1.387 . S
C2529 C2531 1.387 . S
H2530 C2537 0.950 . S
C2531 C2529 1.387 . S
C2531 C2533 1.390 . S
C2531 H2535 0.950 . S
H2532 C2528 0.950 . S
C2533 C2531 1.390 . S
C2533 C2534 1.387 . S
C2533 H2536 0.950 . S
C2534 C2533 1.387 . S
C2534 C2537 1.387 . S
H2535 C2531 0.950 . S
H2536 C2533 0.950 . S
C2537 C2528 1.390 . S
C2537 H2530 0.950 . S
C2537 C2534 1.387 . S
C2538 C2539 1.387 . S
C2538 H2542 0.950 . S
C2538 C2547 1.390 . S
C2539 C2538 1.387 . S
C2539 C2541 1.387 . S
H2540 C2547 0.950 . S
C2541 C2539 1.387 . S
C2541 C2543 1.390 . S
C2541 H2545 0.950 . S
H2542 C2538 0.950 . S
C2543 C2541 1.390 . S
C2543 C2544 1.387 . S
C2543 H2546 0.950 . S
C2544 C2543 1.387 . S
C2544 C2547 1.387 . S
H2545 C2541 0.950 . S
H2546 C2543 0.950 . S
C2547 C2538 1.390 . S
C2547 H2540 0.950 . S
C2547 C2544 1.387 . S
C2548 C2549 1.387 . S
C2548 H2552 0.950 . S
C2548 C2557 1.390 . S
C2549 C2548 1.387 . S
C2549 C2551 1.387 . S
H2550 C2557 0.950 . S
C2551 C2549 1.387 . S
C2551 C2553 1.390 . S
C2551 H2555 0.950 . S
H2552 C2548 0.950 . S
C2553 C2551 1.390 . S
C2553 C2554 1.387 . S
C2553 H2556 0.950 . S
C2554 C2553 1.387 . S
C2554 C2557 1.387 . S
H2555 C2551 0.950 . S
H2556 C2553 0.950 . S
C2557 C2548 1.390 . S
C2557 H2550 0.950 . S
C2557 C2554 1.387 . S
C2558 C2559 1.387 . S
C2558 H2562 0.950 . S
C2558 C2567 1.390 . S
C2559 C2558 1.387 . S
C2559 C2561 1.387 . S
H2560 C2567 0.950 . S
C2561 C2559 1.387 . S
C2561 C2563 1.390 . S
C2561 H2565 0.950 . S
H2562 C2558 0.950 . S
C2563 C2561 1.390 . S
C2563 C2564 1.387 . S
C2563 H2566 0.950 . S
C2564 C2563 1.387 . S
C2564 C2567 1.387 . S
H2565 C2561 0.950 . S
H2566 C2563 0.950 . S
C2567 C2558 1.390 . S
C2567 H2560 0.950 . S
C2567 C2564 1.387 . S
C2568 C2569 1.387 . S
C2568 H2572 0.950 . S
C2568 C2577 1.390 . S
C2569 C2568 1.387 . S
C2569 C2571 1.387 . S
H2570 C2577 0.950 . S
C2571 C2569 1.387 . S
C2571 C2573 1.390 . S
C2571 H2575 0.950 . S
H2572 C2568 0.950 . S
C2573 C2571 1.390 . S
C2573 C2574 1.387 . S
C2573 H2576 0.950 . S
C2574 C2573 1.387 . S
C2574 C2577 1.387 . S
H2575 C2571 0.950 . S
H2576 C2573 0.950 . S
C2577 C2568 1.390 . S
C2577 H2570 0.950 . S
C2577 C2574 1.387 . S
C2578 C2579 1.387 . S
C2578 H2582 0.950 . S
C2578 C2587 1.390 . S
C2579 C2578 1.387 . S
C2579 C2581 1.387 . S
H2580 C2587 0.950 . S
C2581 C2579 1.387 . S
C2581 C2583 1.390 . S
C2581 H2585 0.950 . S
H2582 C2578 0.950 . S
C2583 C2581 1.390 . S
C2583 C2584 1.387 . S
C2583 H2586 0.950 . S
C2584 C2583 1.387 . S
C2584 C2587 1.387 . S
H2585 C2581 0.950 . S
H2586 C2583 0.950 . S
C2587 C2578 1.390 . S
C2587 H2580 0.950 . S
C2587 C2584 1.387 . S
C2588 C2589 1.387 . S
C2588 H2592 0.950 . S
C2588 C2597 1.390 . S
C2589 C2588 1.387 . S
C2589 C2591 1.387 . S
H2590 C2597 0.950 . S
C2591 C2589 1.387 . S
C2591 C2593 1.390 . S
C2591 H2595 0.950 . S
H2592 C2588 0.950 . S
C2593 C2591 1.390 . S
C2593 C2594 1.387 . S
C2593 H2596 0.950 . S
C2594 C2593 1.387 . S
C2594 C2597 1.387 . S
H2595 C2591 0.950 . S
H2596 C2593 0.950 . S
C2597 C2588 1.390 . S
C2597 H2590 0.950 . S
C2597 C2594 1.387 . S
C2598 C2599 1.387 . S
C2598 H2602 0.950 . S
C2598 C2607 1.390 . S
C2599 C2598 1.387 . S
C2599 C2601 1.387 . S
H2600 C2607 0.950 . S
C2601 C2599 1.387 . S
C2601 C2603 1.390 . S
C2601 H2605 0.950 . S
H2602 C2598 0.950 . S
C2603 C2601 1.390 . S
C2603 C2604 1.387 . S
C2603 H2606 0.950 . S
C2604 C2603 1.387 . S
C2604 C2607 1.387 . S
H2605 C2601 0.950 . S
H2606 C2603 0.950 . S
C2607 C2598 1.390 . S
C2607 H2600 0.950 . S
C2607 C2604 1.387 . S
C2608 C2609 1.387 . S
C2608 H2612 0.950 . S
C2608 C2617 1.390 . S
C2609 C2608 1.387 . S
C2609 C2611 1.387 . S
H2610 C2617 0.950 . S
C2611 C2609 1.387 . S
C2611 C2613 1.390 . S
C2611 H2615 0.950 . S
H2612 C2608 0.950 . S
C2613 C2611 1.390 . S
C2613 C2614 1.387 . S
C2613 H2616 0.950 . S
C2614 C2613 1.387 . S
C2614 C2617 1.387 . S
H2615 C2611 0.950 . S
H2616 C2613 0.950 . S
C2617 C2608 1.390 . S
C2617 H2610 0.950 . S
C2617 C2614 1.387 . S
C2618 C2619 1.387 . S
C2618 H2622 0.950 . S
C2618 C2627 1.390 . S
C2619 C2618 1.387 . S
C2619 C2621 1.387 . S
H2620 C2627 0.950 . S
C2621 C2619 1.387 . S
C2621 C2623 1.390 . S
C2621 H2625 0.950 . S
H2622 C2618 0.950 . S
C2623 C2621 1.390 . S
C2623 C2624 1.387 . S
C2623 H2626 0.950 . S
C2624 C2623 1.387 . S
C2624 C2627 1.387 . S
H2625 C2621 0.950 . S
H2626 C2623 0.950 . S
C2627 C2618 1.390 . S
C2627 H2620 0.950 . S
C2627 C2624 1.387 . S
C2628 C2629 1.387 . S
C2628 H2632 0.950 . S
C2628 C2637 1.390 . S
C2629 C2628 1.387 . S
C2629 C2631 1.387 . S
H2630 C2637 0.950 . S
C2631 C2629 1.387 . S
C2631 C2633 1.390 . S
C2631 H2635 0.950 . S
H2632 C2628 0.950 . S
C2633 C2631 1.390 . S
C2633 C2634 1.387 . S
C2633 H2636 0.950 . S
C2634 C2633 1.387 . S
C2634 C2637 1.387 . S
H2635 C2631 0.950 . S
H2636 C2633 0.950 . S
C2637 C2628 1.390 . S
C2637 H2630 0.950 . S
C2637 C2634 1.387 . S
C2638 C2639 1.387 . S
C2638 H2642 0.950 . S
C2638 C2647 1.390 . S
C2639 C2638 1.387 . S
C2639 C2641 1.387 . S
H2640 C2647 0.950 . S
C2641 C2639 1.387 . S
C2641 C2643 1.390 . S
C2641 H2645 0.950 . S
H2642 C2638 0.950 . S
C2643 C2641 1.390 . S
C2643 C2644 1.387 . S
C2643 H2646 0.950 . S
C2644 C2643 1.387 . S
C2644 C2647 1.387 . S
H2645 C2641 0.950 . S
H2646 C2643 0.950 . S
C2647 C2638 1.390 . S
C2647 H2640 0.950 . S
C2647 C2644 1.387 . S
C2648 C2649 1.387 . S
C2648 H2652 0.950 . S
C2648 C2657 1.390 . S
C2649 C2648 1.387 . S
C2649 C2651 1.387 . S
H2650 C2657 0.950 . S
C2651 C2649 1.387 . S
C2651 C2653 1.390 . S
C2651 H2655 0.950 . S
H2652 C2648 0.950 . S
C2653 C2651 1.390 . S
C2653 C2654 1.387 . S
C2653 H2656 0.950 . S
C2654 C2653 1.387 . S
C2654 C2657 1.387 . S
H2655 C2651 0.950 . S
H2656 C2653 0.950 . S
C2657 C2648 1.390 . S
C2657 H2650 0.950 . S
C2657 C2654 1.387 . S
C2658 C2659 1.387 . S
C2658 H2662 0.950 . S
C2658 C2667 1.390 . S
C2659 C2658 1.387 . S
C2659 C2661 1.387 . S
H2660 C2667 0.950 . S
C2661 C2659 1.387 . S
C2661 C2663 1.390 . S
C2661 H2665 0.950 . S
H2662 C2658 0.950 . S
C2663 C2661 1.390 . S
C2663 C2664 1.387 . S
C2663 H2666 0.950 . S
C2664 C2663 1.387 . S
C2664 C2667 1.387 . S
H2665 C2661 0.950 . S
H2666 C2663 0.950 . S
C2667 C2658 1.390 . S
C2667 H2660 0.950 . S
C2667 C2664 1.387 . S
C2668 C2669 1.387 . S
C2668 H2672 0.950 . S
C2668 C2677 1.390 . S
C2669 C2668 1.387 . S
C2669 C2671 1.387 . S
H2670 C2677 0.950 . S
C2671 C2669 1.387 . S
C2671 C2673 1.390 . S
C2671 H2675 0.950 . S
H2672 C2668 0.950 . S
C2673 C2671 1.390 . S
C2673 C2674 1.387 . S
C2673 H2676 0.950 . S
C2674 C2673 1.387 . S
C2674 C2677 1.387 . S
H2675 C2671 0.950 . S
H2676 C2673 0.950 . S
C2677 C2668 1.390 . S
C2677 H2670 0.950 . S
C2677 C2674 1.387 . S
C2678 C2679 1.387 . S
C2678 H2682 0.950 . S
C2678 C2687 1.390 . S
C2679 C2678 1.387 . S
C2679 C2681 1.387 . S
H2680 C2687 0.950 . S
C2681 C2679 1.387 . S
C2681 C2683 1.390 . S
C2681 H2685 0.950 . S
H2682 C2678 0.950 . S
C2683 C2681 1.390 . S
C2683 C2684 1.387 . S
C2683 H2686 0.950 . S
C2684 C2683 1.387 . S
C2684 C2687 1.387 . S
H2685 C2681 0.950 . S
H2686 C2683 0.950 . S
C2687 C2678 1.390 . S
C2687 H2680 0.950 . S
C2687 C2684 1.387 . S
C2688 C2689 1.387 . S
C2688 H2692 0.950 . S
C2688 C2697 1.390 1_655 S
C2689 C2688 1.387 . S
C2689 C2691 1.387 . S
H2690 C2697 0.950 . S
C2691 C2689 1.387 . S
C2691 C2693 1.390 1_655 S
C2691 H2695 0.950 . S
H2692 C2688 0.950 . S
C2693 C2691 1.390 1_455 S
C2693 C2694 1.387 . S
C2693 H2696 0.950 . S
C2694 C2693 1.387 . S
C2694 C2697 1.387 . S
H2695 C2691 0.950 . S
H2696 C2693 0.950 . S
C2697 C2688 1.390 1_455 S
C2697 H2690 0.950 . S
C2697 C2694 1.387 . S
C2698 C2699 1.387 . S
C2698 H2702 0.950 . S
C2698 C2707 1.390 . S
C2699 C2698 1.387 . S
C2699 C2701 1.387 . S
H2700 C2707 0.950 . S
C2701 C2699 1.387 . S
C2701 C2703 1.390 . S
C2701 H2705 0.950 . S
H2702 C2698 0.950 . S
C2703 C2701 1.390 . S
C2703 C2704 1.387 . S
C2703 H2706 0.950 . S
C2704 C2703 1.387 . S
C2704 C2707 1.387 . S
H2705 C2701 0.950 . S
H2706 C2703 0.950 . S
C2707 C2698 1.390 . S
C2707 H2700 0.950 . S
C2707 C2704 1.387 . S
C2708 C2709 1.387 . S
C2708 H2712 0.950 . S
C2708 C2717 1.390 1_645 S
C2709 C2708 1.387 . S
C2709 C2711 1.387 . S
H2710 C2717 0.950 . S
C2711 C2709 1.387 . S
C2711 C2713 1.390 1_645 S
C2711 H2715 0.950 . S
H2712 C2708 0.950 . S
C2713 C2711 1.390 1_465 S
C2713 C2714 1.387 . S
C2713 H2716 0.950 . S
C2714 C2713 1.387 . S
C2714 C2717 1.387 . S
H2715 C2711 0.950 . S
H2716 C2713 0.950 . S
C2717 C2708 1.390 1_465 S
C2717 H2710 0.950 . S
C2717 C2714 1.387 . S
C2718 C2719 1.387 . S
C2718 H2722 0.950 . S
C2718 C2727 1.390 . S
C2719 C2718 1.387 . S
C2719 C2721 1.387 . S
H2720 C2727 0.950 . S
C2721 C2719 1.387 . S
C2721 C2723 1.390 . S
C2721 H2725 0.950 . S
H2722 C2718 0.950 . S
C2723 C2721 1.390 . S
C2723 C2724 1.387 . S
C2723 H2726 0.950 . S
C2724 C2723 1.387 . S
C2724 C2727 1.387 . S
H2725 C2721 0.950 . S
H2726 C2723 0.950 . S
C2727 C2718 1.390 . S
C2727 H2720 0.950 . S
C2727 C2724 1.387 . S
C2728 C2729 1.387 . S
C2728 H2732 0.950 . S
C2728 C2737 1.390 1_455 S
C2729 C2728 1.387 . S
C2729 C2731 1.387 . S
H2730 C2737 0.950 . S
C2731 C2729 1.387 . S
C2731 C2733 1.390 1_455 S
C2731 H2735 0.950 . S
H2732 C2728 0.950 . S
C2733 C2731 1.390 1_655 S
C2733 C2734 1.387 . S
C2733 H2736 0.950 . S
C2734 C2733 1.387 . S
C2734 C2737 1.387 . S
H2735 C2731 0.950 . S
H2736 C2733 0.950 . S
C2737 C2728 1.390 1_655 S
C2737 H2730 0.950 . S
C2737 C2734 1.387 . S
C2738 C2739 1.387 . S
C2738 H2742 0.950 . S
C2738 C2747 1.390 . S
C2739 C2738 1.387 . S
C2739 C2741 1.387 . S
H2740 C2747 0.950 . S
C2741 C2739 1.387 . S
C2741 C2743 1.390 . S
C2741 H2745 0.950 . S
H2742 C2738 0.950 . S
C2743 C2741 1.390 . S
C2743 C2744 1.387 . S
C2743 H2746 0.950 . S
C2744 C2743 1.387 . S
C2744 C2747 1.387 . S
H2745 C2741 0.950 . S
H2746 C2743 0.950 . S
C2747 C2738 1.390 . S
C2747 H2740 0.950 . S
C2747 C2744 1.387 . S
C2748 C2749 1.387 . S
C2748 H2752 0.950 . S
C2748 C2757 1.390 1_665 S
C2749 C2748 1.387 . S
C2749 C2751 1.387 . S
H2750 C2757 0.950 . S
C2751 C2749 1.387 . S
C2751 C2753 1.390 1_665 S
C2751 H2755 0.950 . S
H2752 C2748 0.950 . S
C2753 C2751 1.390 1_445 S
C2753 C2754 1.387 . S
C2753 H2756 0.950 . S
C2754 C2753 1.387 . S
C2754 C2757 1.387 . S
H2755 C2751 0.950 . S
H2756 C2753 0.950 . S
C2757 C2748 1.390 1_445 S
C2757 H2750 0.950 . S
C2757 C2754 1.387 . S
C2758 C2759 1.387 . S
C2758 H2762 0.950 . S
C2758 C2767 1.390 . S
C2759 C2758 1.387 . S
C2759 C2761 1.387 . S
H2760 C2767 0.950 . S
C2761 C2759 1.387 . S
C2761 C2763 1.390 . S
C2761 H2765 0.950 . S
H2762 C2758 0.950 . S
C2763 C2761 1.390 . S
C2763 C2764 1.387 . S
C2763 H2766 0.950 . S
C2764 C2763 1.387 . S
C2764 C2767 1.387 . S
H2765 C2761 0.950 . S
H2766 C2763 0.950 . S
C2767 C2758 1.390 . S
C2767 H2760 0.950 . S
C2767 C2764 1.387 . S
C2768 C2769 1.387 . S
C2768 H2772 0.950 . S
C2768 C2777 1.390 1_545 S
C2769 C2768 1.387 . S
C2769 C2771 1.387 . S
H2770 C2777 0.950 . S
C2771 C2769 1.387 . S
C2771 C2773 1.390 1_545 S
C2771 H2775 0.950 . S
H2772 C2768 0.950 . S
C2773 C2771 1.390 1_565 S
C2773 C2774 1.387 . S
C2773 H2776 0.950 . S
C2774 C2773 1.387 . S
C2774 C2777 1.387 . S
H2775 C2771 0.950 . S
H2776 C2773 0.950 . S
C2777 C2768 1.390 1_565 S
C2777 H2770 0.950 . S
C2777 C2774 1.387 . S
C2778 C2779 1.387 . S
C2778 H2782 0.950 . S
C2778 C2787 1.390 . S
C2779 C2778 1.387 . S
C2779 C2781 1.387 . S
H2780 C2787 0.950 . S
C2781 C2779 1.387 . S
C2781 C2783 1.390 . S
C2781 H2785 0.950 . S
H2782 C2778 0.950 . S
C2783 C2781 1.390 . S
C2783 C2784 1.387 . S
C2783 H2786 0.950 . S
C2784 C2783 1.387 . S
C2784 C2787 1.387 . S
H2785 C2781 0.950 . S
H2786 C2783 0.950 . S
C2787 C2778 1.390 . S
C2787 H2780 0.950 . S
C2787 C2784 1.387 . S
C2788 C2789 1.387 . S
C2788 H2792 0.950 . S
C2788 C2797 1.390 1_556 S
C2789 C2788 1.387 . S
C2789 C2791 1.387 . S
H2790 C2797 0.950 . S
C2791 C2789 1.387 . S
C2791 C2793 1.390 1_556 S
C2791 H2795 0.950 . S
H2792 C2788 0.950 . S
C2793 C2791 1.390 1_554 S
C2793 C2794 1.387 . S
C2793 H2796 0.950 . S
C2794 C2793 1.387 . S
C2794 C2797 1.387 . S
H2795 C2791 0.950 . S
H2796 C2793 0.950 . S
C2797 C2788 1.390 1_554 S
C2797 H2790 0.950 . S
C2797 C2794 1.387 . S
C2798 C2799 1.387 . S
C2798 H2802 0.950 . S
C2798 C2807 1.390 . S
C2799 C2798 1.387 . S
C2799 C2801 1.387 . S
H2800 C2807 0.950 . S
C2801 C2799 1.387 . S
C2801 C2803 1.390 . S
C2801 H2805 0.950 . S
H2802 C2798 0.950 . S
C2803 C2801 1.390 . S
C2803 C2804 1.387 . S
C2803 H2806 0.950 . S
C2804 C2803 1.387 . S
C2804 C2807 1.387 . S
H2805 C2801 0.950 . S
H2806 C2803 0.950 . S
C2807 C2798 1.390 . S
C2807 H2800 0.950 . S
C2807 C2804 1.387 . S
C2808 C2809 1.387 . S
C2808 H2812 0.950 . S
C2808 C2817 1.390 1_554 S
C2809 C2808 1.387 . S
C2809 C2811 1.387 . S
H2810 C2817 0.950 . S
C2811 C2809 1.387 . S
C2811 C2813 1.390 1_554 S
C2811 H2815 0.950 . S
H2812 C2808 0.950 . S
C2813 C2811 1.390 1_556 S
C2813 C2814 1.387 . S
C2813 H2816 0.950 . S
C2814 C2813 1.387 . S
C2814 C2817 1.387 . S
H2815 C2811 0.950 . S
H2816 C2813 0.950 . S
C2817 C2808 1.390 1_556 S
C2817 H2810 0.950 . S
C2817 C2814 1.387 . S
C2818 C2819 1.387 . S
C2818 H2822 0.950 . S
C2818 C2827 1.390 1_455 S
C2819 C2818 1.387 . S
C2819 C2821 1.387 . S
H2820 C2827 0.950 . S
C2821 C2819 1.387 . S
C2821 C2823 1.390 1_455 S
C2821 H2825 0.950 . S
H2822 C2818 0.950 . S
C2823 C2821 1.390 1_655 S
C2823 C2824 1.387 . S
C2823 H2826 0.950 . S
C2824 C2823 1.387 . S
C2824 C2827 1.387 . S
H2825 C2821 0.950 . S
H2826 C2823 0.950 . S
C2827 C2818 1.390 1_655 S
C2827 H2820 0.950 . S
C2827 C2824 1.387 . S
C2828 C2829 1.387 . S
C2828 H2832 0.950 . S
C2828 C2837 1.390 . S
C2829 C2828 1.387 . S
C2829 C2831 1.387 . S
H2830 C2837 0.950 . S
C2831 C2829 1.387 . S
C2831 C2833 1.390 . S
C2831 H2835 0.950 . S
H2832 C2828 0.950 . S
C2833 C2831 1.390 . S
C2833 C2834 1.387 . S
C2833 H2836 0.950 . S
C2834 C2833 1.387 . S
C2834 C2837 1.387 . S
H2835 C2831 0.950 . S
H2836 C2833 0.950 . S
C2837 C2828 1.390 . S
C2837 H2830 0.950 . S
C2837 C2834 1.387 . S
C2838 C2839 1.387 . S
C2838 H2842 0.950 . S
C2838 C2847 1.390 1_654 S
C2839 C2838 1.387 . S
C2839 C2841 1.387 . S
H2840 C2847 0.950 . S
C2841 C2839 1.387 . S
C2841 C2843 1.390 1_654 S
C2841 H2845 0.950 . S
H2842 C2838 0.950 . S
C2843 C2841 1.390 1_456 S
C2843 C2844 1.387 . S
C2843 H2846 0.950 . S
C2844 C2843 1.387 . S
C2844 C2847 1.387 . S
H2845 C2841 0.950 . S
H2846 C2843 0.950 . S
C2847 C2838 1.390 1_456 S
C2847 H2840 0.950 . S
C2847 C2844 1.387 . S
C2848 C2849 1.387 . S
C2848 H2852 0.950 . S
C2848 C2857 1.390 . S
C2849 C2848 1.387 . S
C2849 C2851 1.387 . S
H2850 C2857 0.950 . S
C2851 C2849 1.387 . S
C2851 C2853 1.390 . S
C2851 H2855 0.950 . S
H2852 C2848 0.950 . S
C2853 C2851 1.390 . S
C2853 C2854 1.387 . S
C2853 H2856 0.950 . S
C2854 C2853 1.387 . S
C2854 C2857 1.387 . S
H2855 C2851 0.950 . S
H2856 C2853 0.950 . S
C2857 C2848 1.390 . S
C2857 H2850 0.950 . S
C2857 C2854 1.387 . S
C2858 C2859 1.387 . S
C2858 H2862 0.950 . S
C2858 C2867 1.390 1_554 S
C2859 C2858 1.387 . S
C2859 C2861 1.387 . S
H2860 C2867 0.950 . S
C2861 C2859 1.387 . S
C2861 C2863 1.390 1_554 S
C2861 H2865 0.950 . S
H2862 C2858 0.950 . S
C2863 C2861 1.390 1_556 S
C2863 C2864 1.387 . S
C2863 H2866 0.950 . S
C2864 C2863 1.387 . S
C2864 C2867 1.387 . S
H2865 C2861 0.950 . S
H2866 C2863 0.950 . S
C2867 C2858 1.390 1_556 S
C2867 H2860 0.950 . S
C2867 C2864 1.387 . S
C2868 C2869 1.387 . S
C2868 H2872 0.950 . S
C2868 C2877 1.390 . S
C2869 C2868 1.387 . S
C2869 C2871 1.387 . S
H2870 C2877 0.950 . S
C2871 C2869 1.387 . S
C2871 C2873 1.390 . S
C2871 H2875 0.950 . S
H2872 C2868 0.950 . S
C2873 C2871 1.390 . S
C2873 C2874 1.387 . S
C2873 H2876 0.950 . S
C2874 C2873 1.387 . S
C2874 C2877 1.387 . S
H2875 C2871 0.950 . S
H2876 C2873 0.950 . S
C2877 C2868 1.390 . S
C2877 H2870 0.950 . S
C2877 C2874 1.387 . S
C2878 C2879 1.387 . S
C2878 H2882 0.950 . S
C2878 C2887 1.390 . S
C2879 C2878 1.387 . S
C2879 C2881 1.387 . S
H2880 C2887 0.950 . S
C2881 C2879 1.387 . S
C2881 C2883 1.390 . S
C2881 H2885 0.950 . S
H2882 C2878 0.950 . S
C2883 C2881 1.390 . S
C2883 C2884 1.387 . S
C2883 H2886 0.950 . S
C2884 C2883 1.387 . S
C2884 C2887 1.387 . S
H2885 C2881 0.950 . S
H2886 C2883 0.950 . S
C2887 C2878 1.390 . S
C2887 H2880 0.950 . S
C2887 C2884 1.387 . S
C2888 C2889 1.387 . S
C2888 H2892 0.950 . S
C2888 C2897 1.390 . S
C2889 C2888 1.387 . S
C2889 C2891 1.387 . S
H2890 C2897 0.950 . S
C2891 C2889 1.387 . S
C2891 C2893 1.390 . S
C2891 H2895 0.950 . S
H2892 C2888 0.950 . S
C2893 C2891 1.390 . S
C2893 C2894 1.387 . S
C2893 H2896 0.950 . S
C2894 C2893 1.387 . S
C2894 C2897 1.387 . S
H2895 C2891 0.950 . S
H2896 C2893 0.950 . S
C2897 C2888 1.390 . S
C2897 H2890 0.950 . S
C2897 C2894 1.387 . S
C2898 C2899 1.387 . S
C2898 H2902 0.950 . S
C2898 C2907 1.390 . S
C2899 C2898 1.387 . S
C2899 C2901 1.387 . S
H2900 C2907 0.950 . S
C2901 C2899 1.387 . S
C2901 C2903 1.390 . S
C2901 H2905 0.950 . S
H2902 C2898 0.950 . S
C2903 C2901 1.390 . S
C2903 C2904 1.387 . S
C2903 H2906 0.950 . S
C2904 C2903 1.387 . S
C2904 C2907 1.387 . S
H2905 C2901 0.950 . S
H2906 C2903 0.950 . S
C2907 C2898 1.390 . S
C2907 H2900 0.950 . S
C2907 C2904 1.387 . S
C2908 C2909 1.387 . S
C2908 H2912 0.950 . S
C2908 C2917 1.390 . S
C2909 C2908 1.387 . S
C2909 C2911 1.387 . S
H2910 C2917 0.950 . S
C2911 C2909 1.387 . S
C2911 C2913 1.390 . S
C2911 H2915 0.950 . S
H2912 C2908 0.950 . S
C2913 C2911 1.390 . S
C2913 C2914 1.387 . S
C2913 H2916 0.950 . S
C2914 C2913 1.387 . S
C2914 C2917 1.387 . S
H2915 C2911 0.950 . S
H2916 C2913 0.950 . S
C2917 C2908 1.390 . S
C2917 H2910 0.950 . S
C2917 C2914 1.387 . S
C2918 C2919 1.387 . S
C2918 H2922 0.950 . S
C2918 C2927 1.390 1_554 S
C2919 C2918 1.387 . S
C2919 C2921 1.387 . S
H2920 C2927 0.950 . S
C2921 C2919 1.387 . S
C2921 C2923 1.390 1_554 S
C2921 H2925 0.950 . S
H2922 C2918 0.950 . S
C2923 C2921 1.390 1_556 S
C2923 C2924 1.387 . S
C2923 H2926 0.950 . S
C2924 C2923 1.387 . S
C2924 C2927 1.387 . S
H2925 C2921 0.950 . S
H2926 C2923 0.950 . S
C2927 C2918 1.390 1_556 S
C2927 H2920 0.950 . S
C2927 C2924 1.387 . S
C2928 C2929 1.387 . S
C2928 H2932 0.950 . S
C2928 C2937 1.390 . S
C2929 C2928 1.387 . S
C2929 C2931 1.387 . S
H2930 C2937 0.950 . S
C2931 C2929 1.387 . S
C2931 C2933 1.390 . S
C2931 H2935 0.950 . S
H2932 C2928 0.950 . S
C2933 C2931 1.390 . S
C2933 C2934 1.387 . S
C2933 H2936 0.950 . S
C2934 C2933 1.387 . S
C2934 C2937 1.387 . S
H2935 C2931 0.950 . S
H2936 C2933 0.950 . S
C2937 C2928 1.390 . S
C2937 H2930 0.950 . S
C2937 C2934 1.387 . S
C2938 C2939 1.387 . S
C2938 H2942 0.950 . S
C2938 C2947 1.390 1_545 S
C2939 C2938 1.387 . S
C2939 C2941 1.387 . S
H2940 C2947 0.950 . S
C2941 C2939 1.387 . S
C2941 C2943 1.390 1_545 S
C2941 H2945 0.950 . S
H2942 C2938 0.950 . S
C2943 C2941 1.390 1_565 S
C2943 C2944 1.387 . S
C2943 H2946 0.950 . S
C2944 C2943 1.387 . S
C2944 C2947 1.387 . S
H2945 C2941 0.950 . S
H2946 C2943 0.950 . S
C2947 C2938 1.390 1_565 S
C2947 H2940 0.950 . S
C2947 C2944 1.387 . S
C2948 C2949 1.387 . S
C2948 H2952 0.950 . S
C2948 C2957 1.390 . S
C2949 C2948 1.387 . S
C2949 C2951 1.387 . S
H2950 C2957 0.950 . S
C2951 C2949 1.387 . S
C2951 C2953 1.390 . S
C2951 H2955 0.950 . S
H2952 C2948 0.950 . S
C2953 C2951 1.390 . S
C2953 C2954 1.387 . S
C2953 H2956 0.950 . S
C2954 C2953 1.387 . S
C2954 C2957 1.387 . S
H2955 C2951 0.950 . S
H2956 C2953 0.950 . S
C2957 C2948 1.390 . S
C2957 H2950 0.950 . S
C2957 C2954 1.387 . S
C2958 C2959 1.387 . S
C2958 H2962 0.950 . S
C2958 C2967 1.390 . S
C2959 C2958 1.387 . S
C2959 C2961 1.387 . S
H2960 C2967 0.950 . S
C2961 C2959 1.387 . S
C2961 C2963 1.390 . S
C2961 H2965 0.950 . S
H2962 C2958 0.950 . S
C2963 C2961 1.390 . S
C2963 C2964 1.387 . S
C2963 H2966 0.950 . S
C2964 C2963 1.387 . S
C2964 C2967 1.387 . S
H2965 C2961 0.950 . S
H2966 C2963 0.950 . S
C2967 C2958 1.390 . S
C2967 H2960 0.950 . S
C2967 C2964 1.387 . S
C2968 C2969 1.387 . S
C2968 H2972 0.950 . S
C2968 C2977 1.390 1_454 S
C2969 C2968 1.387 . S
C2969 C2971 1.387 . S
H2970 C2977 0.950 . S
C2971 C2969 1.387 . S
C2971 C2973 1.390 1_454 S
C2971 H2975 0.950 . S
H2972 C2968 0.950 . S
C2973 C2971 1.390 1_656 S
C2973 C2974 1.387 . S
C2973 H2976 0.950 . S
C2974 C2973 1.387 . S
C2974 C2977 1.387 . S
H2975 C2971 0.950 . S
H2976 C2973 0.950 . S
C2977 C2968 1.390 1_656 S
C2977 H2970 0.950 . S
C2977 C2974 1.387 . S
C2978 C2979 1.387 . S
C2978 H2982 0.950 . S
C2978 C2987 1.390 . S
C2979 C2978 1.387 . S
C2979 C2981 1.387 . S
H2980 C2987 0.950 . S
C2981 C2979 1.387 . S
C2981 C2983 1.390 . S
C2981 H2985 0.950 . S
H2982 C2978 0.950 . S
C2983 C2981 1.390 . S
C2983 C2984 1.387 . S
C2983 H2986 0.950 . S
C2984 C2983 1.387 . S
C2984 C2987 1.387 . S
H2985 C2981 0.950 . S
H2986 C2983 0.950 . S
C2987 C2978 1.390 . S
C2987 H2980 0.950 . S
C2987 C2984 1.387 . S
C2988 C2989 1.387 . S
C2988 H2992 0.950 . S
C2988 C2997 1.390 1_455 S
C2989 C2988 1.387 . S
C2989 C2991 1.387 . S
H2990 C2997 0.950 . S
C2991 C2989 1.387 . S
C2991 C2993 1.390 1_455 S
C2991 H2995 0.950 . S
H2992 C2988 0.950 . S
C2993 C2991 1.390 1_655 S
C2993 C2994 1.387 . S
C2993 H2996 0.950 . S
C2994 C2993 1.387 . S
C2994 C2997 1.387 . S
H2995 C2991 0.950 . S
H2996 C2993 0.950 . S
C2997 C2988 1.390 1_655 S
C2997 H2990 0.950 . S
C2997 C2994 1.387 . S
C2998 C2999 1.387 . S
C2998 H3002 0.950 . S
C2998 C3007 1.390 . S
C2999 C2998 1.387 . S
C2999 C3001 1.387 . S
H3000 C3007 0.950 . S
C3001 C2999 1.387 . S
C3001 C3003 1.390 . S
C3001 H3005 0.950 . S
H3002 C2998 0.950 . S
C3003 C3001 1.390 . S
C3003 C3004 1.387 . S
C3003 H3006 0.950 . S
C3004 C3003 1.387 . S
C3004 C3007 1.387 . S
H3005 C3001 0.950 . S
H3006 C3003 0.950 . S
C3007 C2998 1.390 . S
C3007 H3000 0.950 . S
C3007 C3004 1.387 . S
C3008 C3009 1.387 . S
C3008 H3012 0.950 . S
C3008 C3017 1.390 . S
C3009 C3008 1.387 . S
C3009 C3011 1.387 . S
H3010 C3017 0.950 . S
C3011 C3009 1.387 . S
C3011 C3013 1.390 . S
C3011 H3015 0.950 . S
H3012 C3008 0.950 . S
C3013 C3011 1.390 . S
C3013 C3014 1.387 . S
C3013 H3016 0.950 . S
C3014 C3013 1.387 . S
C3014 C3017 1.387 . S
H3015 C3011 0.950 . S
H3016 C3013 0.950 . S
C3017 C3008 1.390 . S
C3017 H3010 0.950 . S
C3017 C3014 1.387 . S
C3018 C3019 1.387 . S
C3018 H3022 0.950 . S
C3018 C3027 1.390 . S
C3019 C3018 1.387 . S
C3019 C3021 1.387 . S
H3020 C3027 0.950 . S
C3021 C3019 1.387 . S
C3021 C3023 1.390 . S
C3021 H3025 0.950 . S
H3022 C3018 0.950 . S
C3023 C3021 1.390 . S
C3023 C3024 1.387 . S
C3023 H3026 0.950 . S
C3024 C3023 1.387 . S
C3024 C3027 1.387 . S
H3025 C3021 0.950 . S
H3026 C3023 0.950 . S
C3027 C3018 1.390 . S
C3027 H3020 0.950 . S
C3027 C3024 1.387 . S
C3028 C3029 1.387 . S
C3028 H3032 0.950 . S
C3028 C3037 1.390 . S
C3029 C3028 1.387 . S
C3029 C3031 1.387 . S
H3030 C3037 0.950 . S
C3031 C3029 1.387 . S
C3031 C3033 1.390 . S
C3031 H3035 0.950 . S
H3032 C3028 0.950 . S
C3033 C3031 1.390 . S
C3033 C3034 1.387 . S
C3033 H3036 0.950 . S
C3034 C3033 1.387 . S
C3034 C3037 1.387 . S
H3035 C3031 0.950 . S
H3036 C3033 0.950 . S
C3037 C3028 1.390 . S
C3037 H3030 0.950 . S
C3037 C3034 1.387 . S
C3038 C3039 1.387 . S
C3038 H3042 0.950 . S
C3038 C3047 1.390 1_545 S
C3039 C3038 1.387 . S
C3039 C3041 1.387 . S
H3040 C3047 0.950 . S
C3041 C3039 1.387 . S
C3041 C3043 1.390 1_545 S
C3041 H3045 0.950 . S
H3042 C3038 0.950 . S
C3043 C3041 1.390 1_565 S
C3043 C3044 1.387 . S
C3043 H3046 0.950 . S
C3044 C3043 1.387 . S
C3044 C3047 1.387 . S
H3045 C3041 0.950 . S
H3046 C3043 0.950 . S
C3047 C3038 1.390 1_565 S
C3047 H3040 0.950 . S
C3047 C3044 1.387 . S
C3048 C3049 1.387 . S
C3048 H3052 0.950 . S
C3048 C3057 1.390 . S
C3049 C3048 1.387 . S
C3049 C3051 1.387 . S
H3050 C3057 0.950 . S
C3051 C3049 1.387 . S
C3051 C3053 1.390 . S
C3051 H3055 0.950 . S
H3052 C3048 0.950 . S
C3053 C3051 1.390 . S
C3053 C3054 1.387 . S
C3053 H3056 0.950 . S
C3054 C3053 1.387 . S
C3054 C3057 1.387 . S
H3055 C3051 0.950 . S
H3056 C3053 0.950 . S
C3057 C3048 1.390 . S
C3057 H3050 0.950 . S
C3057 C3054 1.387 . S
C3058 C3059 1.387 . S
C3058 H3062 0.950 . S
C3058 C3067 1.390 1_545 S
C3059 C3058 1.387 . S
C3059 C3061 1.387 . S
H3060 C3067 0.950 . S
C3061 C3059 1.387 . S
C3061 C3063 1.390 1_545 S
C3061 H3065 0.950 . S
H3062 C3058 0.950 . S
C3063 C3061 1.390 1_565 S
C3063 C3064 1.387 . S
C3063 H3066 0.950 . S
C3064 C3063 1.387 . S
C3064 C3067 1.387 . S
H3065 C3061 0.950 . S
H3066 C3063 0.950 . S
C3067 C3058 1.390 1_565 S
C3067 H3060 0.950 . S
C3067 C3064 1.387 . S
C3068 C3069 1.387 . S
C3068 H3072 0.950 . S
C3068 C3077 1.390 1_564 S
C3069 C3068 1.387 . S
C3069 C3071 1.387 . S
H3070 C3077 0.950 . S
C3071 C3069 1.387 . S
C3071 C3073 1.390 1_564 S
C3071 H3075 0.950 . S
H3072 C3068 0.950 . S
C3073 C3071 1.390 1_546 S
C3073 C3074 1.387 . S
C3073 H3076 0.950 . S
C3074 C3073 1.387 . S
C3074 C3077 1.387 . S
H3075 C3071 0.950 . S
H3076 C3073 0.950 . S
C3077 C3068 1.390 1_546 S
C3077 H3070 0.950 . S
C3077 C3074 1.387 . S
C3078 C3079 1.387 . S
C3078 H3082 0.950 . S
C3078 C3087 1.390 . S
C3079 C3078 1.387 . S
C3079 C3081 1.387 . S
H3080 C3087 0.950 . S
C3081 C3079 1.387 . S
C3081 C3083 1.390 . S
C3081 H3085 0.950 . S
H3082 C3078 0.950 . S
C3083 C3081 1.390 . S
C3083 C3084 1.387 . S
C3083 H3086 0.950 . S
C3084 C3083 1.387 . S
C3084 C3087 1.387 . S
H3085 C3081 0.950 . S
H3086 C3083 0.950 . S
C3087 C3078 1.390 . S
C3087 H3080 0.950 . S
C3087 C3084 1.387 . S
C3088 C3089 1.387 . S
C3088 H3092 0.950 . S
C3088 C3097 1.390 . S
C3089 C3088 1.387 . S
C3089 C3091 1.387 . S
H3090 C3097 0.950 . S
C3091 C3089 1.387 . S
C3091 C3093 1.390 . S
C3091 H3095 0.950 . S
H3092 C3088 0.950 . S
C3093 C3091 1.390 . S
C3093 C3094 1.387 . S
C3093 H3096 0.950 . S
C3094 C3093 1.387 . S
C3094 C3097 1.387 . S
H3095 C3091 0.950 . S
H3096 C3093 0.950 . S
C3097 C3088 1.390 . S
C3097 H3090 0.950 . S
C3097 C3094 1.387 . S
C3098 C3099 1.387 . S
C3098 H3102 0.950 . S
C3098 C3107 1.390 . S
C3099 C3098 1.387 . S
C3099 C3101 1.387 . S
H3100 C3107 0.950 . S
C3101 C3099 1.387 . S
C3101 C3103 1.390 . S
C3101 H3105 0.950 . S
H3102 C3098 0.950 . S
C3103 C3101 1.390 . S
C3103 C3104 1.387 . S
C3103 H3106 0.950 . S
C3104 C3103 1.387 . S
C3104 C3107 1.387 . S
H3105 C3101 0.950 . S
H3106 C3103 0.950 . S
C3107 C3098 1.390 . S
C3107 H3100 0.950 . S
C3107 C3104 1.387 . S
C3108 C3109 1.387 . S
C3108 H3112 0.950 . S
C3108 C3117 1.390 . S
C3109 C3108 1.387 . S
C3109 C3111 1.387 . S
H3110 C3117 0.950 . S
C3111 C3109 1.387 . S
C3111 C3113 1.390 . S
C3111 H3115 0.950 . S
H3112 C3108 0.950 . S
C3113 C3111 1.390 . S
C3113 C3114 1.387 . S
C3113 H3116 0.950 . S
C3114 C3113 1.387 . S
C3114 C3117 1.387 . S
H3115 C3111 0.950 . S
H3116 C3113 0.950 . S
C3117 C3108 1.390 . S
C3117 H3110 0.950 . S
C3117 C3114 1.387 . S
C3118 C3119 1.387 . S
C3118 H3122 0.950 . S
C3118 C3127 1.390 . S
C3119 C3118 1.387 . S
C3119 C3121 1.387 . S
H3120 C3127 0.950 . S
C3121 C3119 1.387 . S
C3121 C3123 1.390 . S
C3121 H3125 0.950 . S
H3122 C3118 0.950 . S
C3123 C3121 1.390 . S
C3123 C3124 1.387 . S
C3123 H3126 0.950 . S
C3124 C3123 1.387 . S
C3124 C3127 1.387 . S
H3125 C3121 0.950 . S
H3126 C3123 0.950 . S
C3127 C3118 1.390 . S
C3127 H3120 0.950 . S
C3127 C3124 1.387 . S
C3128 C3129 1.387 . S
C3128 H3132 0.950 . S
C3128 C3137 1.390 . S
C3129 C3128 1.387 . S
C3129 C3131 1.387 . S
H3130 C3137 0.950 . S
C3131 C3129 1.387 . S
C3131 C3133 1.390 . S
C3131 H3135 0.950 . S
H3132 C3128 0.950 . S
C3133 C3131 1.390 . S
C3133 C3134 1.387 . S
C3133 H3136 0.950 . S
C3134 C3133 1.387 . S
C3134 C3137 1.387 . S
H3135 C3131 0.950 . S
H3136 C3133 0.950 . S
C3137 C3128 1.390 . S
C3137 H3130 0.950 . S
C3137 C3134 1.387 . S
C3138 C3139 1.387 . S
C3138 H3142 0.950 . S
C3138 C3147 1.390 1_566 S
C3139 C3138 1.387 . S
C3139 C3141 1.387 . S
H3140 C3147 0.950 . S
C3141 C3139 1.387 . S
C3141 C3143 1.390 1_566 S
C3141 H3145 0.950 . S
H3142 C3138 0.950 . S
C3143 C3141 1.390 1_544 S
C3143 C3144 1.387 . S
C3143 H3146 0.950 . S
C3144 C3143 1.387 . S
C3144 C3147 1.387 . S
H3145 C3141 0.950 . S
H3146 C3143 0.950 . S
C3147 C3138 1.390 1_544 S
C3147 H3140 0.950 . S
C3147 C3144 1.387 . S
C3148 C3149 1.387 . S
C3148 H3152 0.950 . S
C3148 C3157 1.390 . S
C3149 C3148 1.387 . S
C3149 C3151 1.387 . S
H3150 C3157 0.950 . S
C3151 C3149 1.387 . S
C3151 C3153 1.390 . S
C3151 H3155 0.950 . S
H3152 C3148 0.950 . S
C3153 C3151 1.390 . S
C3153 C3154 1.387 . S
C3153 H3156 0.950 . S
C3154 C3153 1.387 . S
C3154 C3157 1.387 . S
H3155 C3151 0.950 . S
H3156 C3153 0.950 . S
C3157 C3148 1.390 . S
C3157 H3150 0.950 . S
C3157 C3154 1.387 . S
C3158 C3159 1.387 . S
C3158 H3162 0.950 . S
C3158 C3167 1.390 . S
C3159 C3158 1.387 . S
C3159 C3161 1.387 . S
H3160 C3167 0.950 . S
C3161 C3159 1.387 . S
C3161 C3163 1.390 . S
C3161 H3165 0.950 . S
H3162 C3158 0.950 . S
C3163 C3161 1.390 . S
C3163 C3164 1.387 . S
C3163 H3166 0.950 . S
C3164 C3163 1.387 . S
C3164 C3167 1.387 . S
H3165 C3161 0.950 . S
H3166 C3163 0.950 . S
C3167 C3158 1.390 . S
C3167 H3160 0.950 . S
C3167 C3164 1.387 . S
C1249 C5 1.429 . S
C1254 C420 1.514 . S
C1259 C751 1.513 . S
C1264 C16 1.432 . S
C1269 C452 1.514 . S
C1274 C31 1.430 . S
C1279 C44 1.432 . S
C1284 C777 1.513 . S
C1289 C55 1.433 . S
C1294 C478 1.513 . S
C1299 C68 1.430 . S
C1304 C803 1.515 . S
C1309 C83 1.433 . S
C1314 C504 1.514 . S
C1319 C96 1.430 . S
C1324 C823 1.514 . S
C1329 C836 1.513 . S
C1334 C107 1.432 . S
C1339 C933 1.514 . S
C1344 C122 1.433 . S
C1349 C135 1.432 . S
C1354 C1219 1.515 . S
C1359 C148 1.429 . S
C1364 C914 1.513 . S
C1369 C225 1.513 . S
C1374 C161 1.431 . S
C1379 C174 1.430 . S
C1384 C238 1.513 . S
C1389 C187 1.432 . S
C1394 C257 1.513 . S
C1399 C1206 1.515 . S
C1404 C198 1.432 . S
C1409 C946 1.513 . S
C1414 C213 1.433 . S
C1419 C224 1.430 . S
C1424 C374 1.514 . S
C1429 C699 1.513 . S
C1434 C237 1.430 . S
C1439 C252 1.430 . S
C1444 C394 1.515 . S
C1449 C407 1.513 . S
C1454 C265 1.431 . S
C1459 C660 1.513 . S
C1464 C276 1.432 . S
C1469 C49 1.513 . S
C1474 C289 1.431 . S
C1479 C17 1.513 . S
C1484 C304 1.432 . S
C1489 C315 1.431 . S
C1494 C108 1.513 . S
C1499 C1057 1.515 . S
C1504 C330 1.432 . S
C1509 C140 1.514 . S
C1514 C341 1.433 . S
C1519 C354 1.432 . S
C1524 C1089 1.513 . S
C1529 C369 1.430 . S
C1534 C166 1.513 . S
C1539 C1115 1.513 . S
C1544 C382 1.433 . S
C1549 C393 1.433 . S
C1554 C192 1.514 . S
C1559 C1141 1.513 . S
C1564 C406 1.431 . S
C1569 C1148 1.513 . S
C1574 C419 1.431 . S
C1579 C434 1.429 . S
C1584 C1245 1.514 . S
C1589 C907 1.514 . S
C1594 C447 1.433 . S
C1599 C1232 1.513 . S
C1604 C458 1.430 . S
C1609 C473 1.432 . S
C1614 C543 1.513 . S
C1619 C556 1.513 . S
C1624 C486 1.430 . S
C1629 C563 1.515 . S
C1634 C499 1.432 . S
C1639 C510 1.433 . S
C1644 C888 1.514 . S
C1649 C634 1.515 . S
C1654 C525 1.430 . S
C1659 C538 1.433 . S
C1664 C56 1.514 . S
C1669 C1011 1.513 . S
C1674 C551 1.431 . S
C1679 C88 1.513 . S
C1684 C562 1.431 . S
C1689 C577 1.430 . S
C1694 C101 1.515 . S
C1699 C972 1.513 . S
C1704 C590 1.432 . S
C1709 C355 1.515 . S
C1714 C603 1.432 . S
C1719 C335 1.515 . S
C1724 C616 1.432 . S
C1729 C1050 1.513 . S
C1734 C629 1.430 . S
C1739 C127 1.515 . S
C1744 C640 1.430 . S
C1749 C1076 1.515 . S
C1754 C655 1.431 . S
C1759 C666 1.430 . S
C1764 C153 1.514 . S
C1769 C1096 1.513 . S
C1774 C681 1.432 . S
C1779 C694 1.430 . S
C1784 C179 1.514 . S
C1789 C705 1.433 . S
C1794 C1128 1.514 . S
C1799 C720 1.430 . S
C1804 C199 1.514 . S
C1809 C218 1.513 . S
C1814 C731 1.431 . S
C1819 C746 1.433 . S
C1824 C309 1.513 . S
C1829 C759 1.431 . S
C1834 C595 1.515 . S
C1839 C290 1.513 . S
C1844 C772 1.432 . S
C1849 C785 1.431 . S
C1854 C855 1.513 . S
C1859 C868 1.514 . S
C1864 C798 1.429 . S
C1869 C875 1.514 . S
C1874 C811 1.430 . S
C1879 C822 1.433 . S
C1884 C582 1.515 . S
C1889 C835 1.429 . S
C1894 C316 1.513 . S
C1899 C998 1.513 . S
C1904 C850 1.433 . S
C1909 C863 1.432 . S
C1914 C69 1.515 . S
C1919 C874 1.432 . S
C1924 C1018 1.513 . S
C1929 C1037 1.515 . S
C1934 C887 1.431 . S
C1939 C36 1.513 . S
C1944 C902 1.432 . S
C1949 C913 1.432 . S
C1954 C667 1.515 . S
C1959 C928 1.431 . S
C1964 C641 1.515 . S
C1969 C732 1.514 . S
C1974 C941 1.433 . S
C1979 C439 1.513 . S
C1984 C952 1.432 . S
C1989 C764 1.514 . S
C1994 C967 1.433 . S
C1999 C980 1.431 . S
C2004 C459 1.513 . S
C2009 C993 1.433 . S
C2014 C790 1.514 . S
C2019 C491 1.515 . S
C2024 C1006 1.432 . S
C2029 C816 1.514 . S
C2034 C1017 1.429 . S
C2039 C511 1.513 . S
C2044 C1032 1.432 . S
C2049 C1045 1.432 . S
C2054 C530 1.515 . S
C2059 C621 1.513 . S
C2064 C1056 1.431 . S
C2069 C277 1.515 . S
C2074 C1071 1.431 . S
C2079 C1084 1.433 . S
C2084 C608 1.514 . S
C2089 C1167 1.515 . S
C2094 C1095 1.431 . S
C2099 C1174 1.515 . S
C2104 C1110 1.432 . S
C2109 C1123 1.431 . S
C2114 C1187 1.513 . S
C2119 C1136 1.431 . S
C2124 C270 1.515 . S
C2129 C10 1.515 . S
C2134 C1147 1.430 . S
C2139 C686 1.515 . S
C2144 C1162 1.430 . S
C2149 C1173 1.431 . S
C2154 C387 1.513 . S
C2159 C1186 1.433 . S
C2164 C706 1.514 . S
C2169 C725 1.513 . S
C2174 C1201 1.431 . S
C2179 C342 1.513 . S
C2184 C1214 1.432 . S
C2189 C985 1.514 . S
C2194 C1227 1.429 . S
C2199 C953 1.513 . S
C2204 C1240 1.432 . S
C2209 C1134 1.591 . S
C2214 C3 1.591 . S
C2219 C18 1.593 . S
C2224 C1097 1.591 . S
C2229 C29 1.592 . S
C2234 C1108 1.590 . S
C2239 C42 1.592 . S
C2244 C1121 1.593 . S
C2249 C120 1.591 . S
C2254 C57 1.591 . S
C2259 C70 1.590 . S
C2264 C133 1.593 . S
C2269 C81 1.593 . S
C2274 C146 1.590 . S
C2279 C94 1.590 . S
C2284 C109 1.593 . S
C2289 C159 1.591 . S
C2294 C954 1.593 . S
C2299 C172 1.593 . S
C2304 C965 1.592 . S
C2309 C185 1.592 . S
C2314 C978 1.591 . S
C2319 C939 1.592 . S
C2324 C200 1.593 . S
C2329 C1199 1.593 . S
C2334 C211 1.590 . S
C2339 C226 1.590 . S
C2344 C1238 1.593 . S
C2349 C239 1.593 . S
C2354 C588 1.590 . S
C2359 C1225 1.592 . S
C2364 C250 1.593 . S
C2369 C263 1.592 . S
C2374 C1149 1.593 . S
C2379 C278 1.593 . S
C2384 C549 1.590 . S
C2389 C291 1.591 . S
C2394 C1188 1.593 . S
C2399 C302 1.590 . S
C2404 C1160 1.593 . S
C2409 C824 1.593 . S
C2414 C317 1.591 . S
C2419 C328 1.590 . S
C2424 C783 1.592 . S
C2429 C796 1.591 . S
C2434 C343 1.593 . S
C2439 C356 1.593 . S
C2444 C809 1.591 . S
C2449 C367 1.590 . S
C2454 C432 1.592 . S
C2459 C380 1.590 . S
C2464 C445 1.592 . S
C2469 C460 1.592 . S
C2474 C395 1.591 . S
C2479 C408 1.590 . S
C2484 C421 1.593 . S
C2489 C642 1.593 . S
C2494 C471 1.592 . S
C2499 C653 1.593 . S
C2504 C484 1.592 . S
C2509 C668 1.590 . S
C2514 C497 1.593 . S
C2519 C627 1.592 . S
C2524 C512 1.590 . S
C2529 C523 1.590 . S
C2534 C889 1.593 . S
C2539 C536 1.590 . S
C2544 C926 1.592 . S
C2549 C915 1.593 . S
C2554 C564 1.590 . S
C2559 C575 1.593 . S
C2564 C837 1.590 . S
C2569 C601 1.590 . S
C2574 C876 1.592 . S
C2579 C614 1.593 . S
C2584 C848 1.590 . S
C2589 C679 1.592 . S
C2594 C744 1.590 . S
C2599 C692 1.590 . S
C2604 C757 1.592 . S
C2609 C707 1.592 . S
C2614 C770 1.593 . S
C2619 C718 1.590 . S
C2624 C733 1.593 . S
C2629 C1212 1.592 . S
C2634 C861 1.593 . S
C2639 C1175 1.591 . S
C2644 C900 1.593 . S
C2649 C991 1.592 . S
C2654 C1058 1.593 . S
C2659 C1004 1.590 . S
C2664 C1069 1.593 . S
C2669 C1082 1.593 . S
C2674 C1019 1.592 . S
C2679 C1030 1.590 . S
C2684 C1043 1.593 . S
C2689 C348 1.556 . S
C2694 C4 1.556 . S
C2699 C23 1.556 . S
C2704 C673 1.556 . S
C2709 C30 1.552 1_545 S
C2714 C322 1.552 1_565 S
C2719 C647 1.552 . S
C2724 C43 1.552 . S
C2729 C62 1.556 . S
C2734 C400 1.556 . S
C2739 C75 1.556 . S
C2744 C719 1.556 . S
C2749 C82 1.556 1_565 S
C2754 C368 1.556 1_545 S
C2759 C95 1.552 . S
C2764 C693 1.552 . S
C2769 C114 1.556 . S
C2774 C160 1.556 . S
C2779 C173 1.556 . S
C2784 C121 1.556 . S
C2789 C134 1.556 1_556 S
C2794 C186 1.556 1_554 S
C2799 C147 1.556 . S
C2804 C205 1.556 . S
C2809 C212 1.556 . S
C2814 C1193 1.556 . S
C2819 C901 1.556 1_455 S
C2824 C231 1.556 1_655 S
C2829 C296 1.556 . S
C2834 C244 1.556 . S
C2839 C1154 1.556 1_655 S
C2844 C251 1.556 1_455 S
C2849 C1239 1.552 . S
C2854 C264 1.552 . S
C2859 C283 1.556 . S
C2864 C849 1.556 . S
C2869 C1200 1.552 . S
C2874 C303 1.552 . S
C2879 C329 1.556 . S
C2884 C979 1.556 . S
C2889 C959 1.556 . S
C2894 C361 1.556 . S
C2899 C381 1.556 . S
C2904 C1031 1.556 . S
C2909 C413 1.552 . S
C2914 C1005 1.552 . S
C2919 C472 1.556 1_554 S
C2924 C426 1.556 1_556 S
C2929 C485 1.552 . S
C2934 C433 1.552 . S
C2939 C498 1.556 . S
C2944 C446 1.556 . S
C2949 C517 1.556 . S
C2954 C465 1.556 . S
C2959 C881 1.552 . S
C2964 C524 1.552 . S
C2969 C1213 1.556 1_455 S
C2974 C537 1.556 1_655 S
C2979 C550 1.556 . S
C2984 C602 1.556 . S
C2989 C569 1.556 1_455 S
C2994 C842 1.556 1_655 S
C2999 C576 1.556 . S
C3004 C927 1.556 . S
C3009 C589 1.556 . S
C3014 C1161 1.556 . S
C3019 C615 1.552 . S
C3024 C894 1.552 . S
C3029 C966 1.556 . S
C3034 C628 1.556 . S
C3039 C654 1.552 1_545 S
C3044 C940 1.552 1_565 S
C3049 C1024 1.556 . S
C3054 C680 1.556 . S
C3059 C992 1.552 1_545 S
C3064 C712 1.552 1_565 S
C3069 C784 1.556 1_554 S
C3074 C738 1.556 1_556 S
C3079 C745 1.552 . S
C3084 C797 1.552 . S
C3089 C758 1.552 . S
C3094 C810 1.552 . S
C3099 C829 1.556 . S
C3104 C771 1.556 . S
C3109 C920 1.552 . S
C3114 C862 1.552 . S
C3119 C1044 1.552 . S
C3124 C1102 1.552 . S
C3129 C1063 1.556 . S
C3134 C1109 1.556 . S
C3139 C1070 1.552 1_556 S
C3144 C1122 1.552 1_554 S
C3149 C1135 1.552 . S
C3154 C1083 1.552 . S
C3159 C1226 1.556 . S
C3164 C1180 1.556 . S
