# Generated by pormake.
# Topology unn, (4)-cn, num edge types: 1
# Building blocks:
#     Node 0, Type 0, BuildingBlock: ICAMEG_clean_sbu_1, # of connection points: 4
#     Node 1, Type 0, BuildingBlock: ICAMEG_clean_sbu_1, # of connection points: 4
#     Node 2, Type 0, BuildingBlock: ICAMEG_clean_sbu_1, # of connection points: 4
#     Node 3, Type 0, BuildingBlock: ICAMEG_clean_sbu_1, # of connection points: 4
#     Node 4, Type 0, BuildingBlock: ICAMEG_clean_sbu_1, # of connection points: 4
#     Node 5, Type 0, BuildingBlock: ICAMEG_clean_sbu_1, # of connection points: 4
#     Node 6, Type 0, BuildingBlock: ICAMEG_clean_sbu_1, # of connection points: 4
#     Node 7, Type 0, BuildingBlock: ICAMEG_clean_sbu_1, # of connection points: 4
#     Node 8, Type 0, BuildingBlock: ICAMEG_clean_sbu_1, # of connection points: 4
#     Node 9, Type 0, BuildingBlock: ICAMEG_clean_sbu_1, # of connection points: 4
#     Node 10, Type 0, BuildingBlock: ICAMEG_clean_sbu_1, # of connection points: 4
#     Node 11, Type 0, BuildingBlock: ICAMEG_clean_sbu_1, # of connection points: 4
#     Node 12, Type 0, BuildingBlock: ICAMEG_clean_sbu_1, # of connection points: 4
#     Node 13, Type 0, BuildingBlock: ICAMEG_clean_sbu_1, # of connection points: 4
#     Node 14, Type 0, BuildingBlock: ICAMEG_clean_sbu_1, # of connection points: 4
#     Node 15, Type 0, BuildingBlock: ICAMEG_clean_sbu_1, # of connection points: 4
#     Node 16, Type 0, BuildingBlock: ICAMEG_clean_sbu_1, # of connection points: 4
#     Node 17, Type 0, BuildingBlock: ICAMEG_clean_sbu_1, # of connection points: 4
#     Edge 18, Type (0, 0), BuildingBlock: UVAHIK_clean_linker_0, # of connection points: 2
#     Edge 19, Type (0, 0), BuildingBlock: UVAHIK_clean_linker_0, # of connection points: 2
#     Edge 20, Type (0, 0), BuildingBlock: UVAHIK_clean_linker_0, # of connection points: 2
#     Edge 21, Type (0, 0), BuildingBlock: UVAHIK_clean_linker_0, # of connection points: 2
#     Edge 22, Type (0, 0), BuildingBlock: UVAHIK_clean_linker_0, # of connection points: 2
#     Edge 23, Type (0, 0), BuildingBlock: UVAHIK_clean_linker_0, # of connection points: 2
#     Edge 24, Type (0, 0), BuildingBlock: UVAHIK_clean_linker_0, # of connection points: 2
#     Edge 25, Type (0, 0), BuildingBlock: UVAHIK_clean_linker_0, # of connection points: 2
#     Edge 26, Type (0, 0), BuildingBlock: UVAHIK_clean_linker_0, # of connection points: 2
#     Edge 27, Type (0, 0), BuildingBlock: UVAHIK_clean_linker_0, # of connection points: 2
#     Edge 28, Type (0, 0), BuildingBlock: UVAHIK_clean_linker_0, # of connection points: 2
#     Edge 29, Type (0, 0), BuildingBlock: UVAHIK_clean_linker_0, # of connection points: 2
#     Edge 30, Type (0, 0), BuildingBlock: UVAHIK_clean_linker_0, # of connection points: 2
#     Edge 31, Type (0, 0), BuildingBlock: UVAHIK_clean_linker_0, # of connection points: 2
#     Edge 32, Type (0, 0), BuildingBlock: UVAHIK_clean_linker_0, # of connection points: 2
#     Edge 33, Type (0, 0), BuildingBlock: UVAHIK_clean_linker_0, # of connection points: 2
#     Edge 34, Type (0, 0), BuildingBlock: UVAHIK_clean_linker_0, # of connection points: 2
#     Edge 35, Type (0, 0), BuildingBlock: UVAHIK_clean_linker_0, # of connection points: 2
#     Edge 36, Type (0, 0), BuildingBlock: UVAHIK_clean_linker_0, # of connection points: 2
#     Edge 37, Type (0, 0), BuildingBlock: UVAHIK_clean_linker_0, # of connection points: 2
#     Edge 38, Type (0, 0), BuildingBlock: UVAHIK_clean_linker_0, # of connection points: 2
#     Edge 39, Type (0, 0), BuildingBlock: UVAHIK_clean_linker_0, # of connection points: 2
#     Edge 40, Type (0, 0), BuildingBlock: UVAHIK_clean_linker_0, # of connection points: 2
#     Edge 41, Type (0, 0), BuildingBlock: UVAHIK_clean_linker_0, # of connection points: 2
#     Edge 42, Type (0, 0), BuildingBlock: UVAHIK_clean_linker_0, # of connection points: 2
#     Edge 43, Type (0, 0), BuildingBlock: UVAHIK_clean_linker_0, # of connection points: 2
#     Edge 44, Type (0, 0), BuildingBlock: UVAHIK_clean_linker_0, # of connection points: 2
#     Edge 45, Type (0, 0), BuildingBlock: UVAHIK_clean_linker_0, # of connection points: 2
#     Edge 46, Type (0, 0), BuildingBlock: UVAHIK_clean_linker_0, # of connection points: 2
#     Edge 47, Type (0, 0), BuildingBlock: UVAHIK_clean_linker_0, # of connection points: 2
#     Edge 48, Type (0, 0), BuildingBlock: UVAHIK_clean_linker_0, # of connection points: 2
#     Edge 49, Type (0, 0), BuildingBlock: UVAHIK_clean_linker_0, # of connection points: 2
#     Edge 50, Type (0, 0), BuildingBlock: UVAHIK_clean_linker_0, # of connection points: 2
#     Edge 51, Type (0, 0), BuildingBlock: UVAHIK_clean_linker_0, # of connection points: 2
#     Edge 52, Type (0, 0), BuildingBlock: UVAHIK_clean_linker_0, # of connection points: 2
#     Edge 53, Type (0, 0), BuildingBlock: UVAHIK_clean_linker_0, # of connection points: 2
# Relax obj value: 0.106
# Max RMSD: 0.205
# Mean RMSD: 0.166
data_MOF--net-unn--node1-ICAMEG_clean_sbu_1--edge1-UVAHIK_clean_linker_0
_symmetry_space_group_name_H-M    P1
_symmetry_Int_Tables_number       1
_symmetry_cell_setting            triclinic
loop_
_symmetry_equiv_pos_as_xyz
'x, y, z'
_cell_length_a     62.178682
_cell_length_b     62.465203
_cell_length_c     52.33771
_cell_angle_alpha  90.283324
_cell_angle_beta   90.522695
_cell_angle_gamma 120.25483
loop_
_atom_site_label
_atom_site_type_symbol
_atom_site_fract_x
_atom_site_fract_y
_atom_site_fract_z
_atom_type_partial_charge
Co0 Co 0.009 0.73207 0.25894 0.0
Co1 Co 0.03222 0.7938 0.24514 0.0
O2 O 0.02707 0.76708 0.26773 0.0
C3 C 0.98261 0.73848 0.30144 0.0
O4 O 0.98476 0.75754 0.28885 0.0
C5 C 0.08164 0.80173 0.25804 0.0
O6 O 0.07231 0.77849 0.25111 0.0
O7 O 0.04041 0.77876 0.21626 0.0
O8 O 0.02591 0.73858 0.22518 0.0
H9 H 0.02423 0.83178 0.16378 0.0
H10 H 0.03662 0.74884 0.30828 0.0
O11 O 0.99135 0.72546 0.29232 0.0
H12 H 0.07396 0.70665 0.26235 0.0
H13 H 0.97054 0.64141 0.27865 0.0
H14 H 0.98376 0.70249 0.21229 0.0
H15 H 0.03891 0.70919 0.2432 0.0
H16 H 0.99433 0.68624 0.28849 0.0
O17 O 0.06827 0.8119 0.25642 0.0
H18 H 0.01651 0.7974 0.19237 0.0
H19 H 0.06153 0.84871 0.25037 0.0
H20 H 0.96003 0.65787 0.20155 0.0
H21 H 0.07155 0.74663 0.32819 0.0
H22 H 0.95329 0.62699 0.23488 0.0
H23 H 0.09052 0.72548 0.30514 0.0
O24 O 0.98194 0.7351 0.24279 0.0
H25 H 0.03671 0.82244 0.33598 0.0
H26 H 0.99831 0.81416 0.25092 0.0
H27 H 0.98654 0.83185 0.28674 0.0
H28 H 0.00582 0.83609 0.32963 0.0
H29 H 0.04779 0.80469 0.2997 0.0
H30 H 0.0699 0.88368 0.22236 0.0
H31 H 0.0511 0.87529 0.17875 0.0
O32 O 0.99626 0.77527 0.23344 0.0
C33 C 0.03676 0.75731 0.21055 0.0
C34 C 0.03243 0.83568 0.18278 0.0
C35 C 0.0581 0.86481 0.21564 0.0
N36 N 0.03832 0.82107 0.22309 0.0
C37 C 0.02804 0.81629 0.19908 0.0
C38 C 0.05332 0.84494 0.2314 0.0
C39 C 0.04754 0.86009 0.19118 0.0
C40 C 0.0446 0.73938 0.29826 0.0
N41 N 0.03565 0.72901 0.2747 0.0
C42 C 0.06445 0.73828 0.30958 0.0
C43 C 0.0751 0.72644 0.29661 0.0
C44 C 0.06583 0.71588 0.2726 0.0
C45 C 0.046 0.71738 0.26185 0.0
C46 C 0.97342 0.65469 0.26395 0.0
C47 C 0.98107 0.68916 0.22683 0.0
C48 C 0.98684 0.68007 0.26942 0.0
N49 N 0.99064 0.69693 0.2509 0.0
C50 C 0.96755 0.66392 0.22067 0.0
C51 C 0.96375 0.64661 0.23938 0.0
C52 C 0.97915 0.75241 0.23367 0.0
C53 C 0.02826 0.82078 0.31736 0.0
C54 C 0.00676 0.81595 0.26954 0.0
C55 C 1.00006 0.826 0.28974 0.0
C56 C 0.01089 0.8284 0.31379 0.0
N57 N 0.02383 0.80855 0.27319 0.0
C58 C 0.03454 0.81084 0.29671 0.0
Co59 Co 0.28686 0.3018 0.23027 0.0
Co60 Co 0.2488 0.23962 0.24289 0.0
O61 O 0.26791 0.26708 0.22008 0.0
C62 C 0.2486 0.29719 0.19394 0.0
O63 O 0.23282 0.27823 0.20749 0.0
C64 C 0.28816 0.23175 0.22183 0.0
O65 O 0.30297 0.25535 0.22702 0.0
O66 O 0.27555 0.25383 0.26931 0.0
O67 O 0.30175 0.29389 0.26013 0.0
H68 H 0.2118 0.19962 0.32663 0.0
H69 H 0.28975 0.28684 0.17705 0.0
O70 O 0.27151 0.30971 0.20065 0.0
H71 H 0.37567 0.32691 0.21127 0.0
H72 H 0.33798 0.39309 0.21271 0.0
H73 H 0.29945 0.32974 0.2794 0.0
H74 H 0.34157 0.32376 0.23774 0.0
H75 H 0.31427 0.34864 0.20115 0.0
O76 O 0.265 0.22153 0.22708 0.0
H77 H 0.23555 0.2347 0.29769 0.0
H78 H 0.22186 0.1848 0.23603 0.0
H79 H 0.32316 0.37394 0.29183 0.0
H80 H 0.3233 0.28975 0.14988 0.0
H81 H 0.34262 0.40597 0.25835 0.0
H82 H 0.3666 0.30981 0.16701 0.0
O83 O 0.25971 0.29843 0.25239 0.0
H84 H 0.21403 0.21337 0.15384 0.0
H85 H 0.19399 0.21927 0.24363 0.0
H86 H 0.16041 0.20241 0.21099 0.0
H87 H 0.17036 0.19933 0.16573 0.0
H88 H 0.24706 0.23032 0.18706 0.0
H89 H 0.1981 0.14915 0.26433 0.0
H90 H 0.19288 0.15648 0.30996 0.0
O91 O 0.23309 0.25788 0.25915 0.0
C92 C 0.29493 0.27478 0.27393 0.0
C93 C 0.21386 0.19619 0.30676 0.0
C94 C 0.2062 0.16786 0.2718 0.0
N95 N 0.22985 0.21177 0.26517 0.0
C96 C 0.2272 0.21598 0.29027 0.0
C97 C 0.2197 0.18811 0.25589 0.0
C98 C 0.20327 0.17199 0.2974 0.0
C99 C 0.30859 0.29585 0.18454 0.0
N100 N 0.31373 0.30527 0.20889 0.0
C101 C 0.32749 0.29734 0.16911 0.0
C102 C 0.35178 0.30857 0.17874 0.0
C103 C 0.35688 0.31816 0.20358 0.0
C104 C 0.3375 0.31631 0.21848 0.0
C105 C 0.32963 0.37931 0.22748 0.0
C106 C 0.30801 0.34356 0.26474 0.0
C107 C 0.31614 0.35413 0.22104 0.0
N108 N 0.30566 0.33664 0.23961 0.0
C109 C 0.32134 0.36856 0.27189 0.0
C110 C 0.33223 0.38652 0.25309 0.0
C111 C 0.24008 0.28089 0.26225 0.0
C112 C 0.20945 0.21451 0.17352 0.0
C113 C 0.19845 0.21801 0.22397 0.0
C114 C 0.17936 0.20842 0.20558 0.0
C115 C 0.18495 0.20668 0.18019 0.0
N116 N 0.22241 0.2256 0.21726 0.0
C117 C 0.22806 0.224 0.19242 0.0
Co118 Co 0.72599 0.02135 0.23891 0.0
Co119 Co 0.77456 0.00984 0.2451 0.0
O120 O 0.74741 0.01319 0.2587 0.0
C121 C 0.75183 0.0618 0.27608 0.0
O122 O 0.77223 0.06257 0.2685 0.0
C123 C 0.73796 0.9607 0.26507 0.0
O124 O 0.7215 0.96441 0.25316 0.0
O125 O 0.75461 0.9914 0.2144 0.0
O126 O 0.7214 0.99671 0.21196 0.0
H127 H 0.8337 0.0139 0.17795 0.0
H128 H 0.71542 0.00799 0.29354 0.0
O129 O 0.73089 0.04636 0.26587 0.0
H130 H 0.64064 0.94603 0.24613 0.0
H131 H 0.65892 0.04338 0.22873 0.0
H132 H 0.72 0.02892 0.18397 0.0
H133 H 0.67604 0.9796 0.22334 0.0
H134 H 0.68615 0.03227 0.25283 0.0
O135 O 0.76109 0.97717 0.26394 0.0
H136 H 0.79937 0.01853 0.19499 0.0
H137 H 0.80761 0.99296 0.26741 0.0
H138 H 0.69303 0.03981 0.1591 0.0
H139 H 0.68038 0.97486 0.31711 0.0
H140 H 0.66222 0.04712 0.18151 0.0
H141 H 0.6427 0.94351 0.29336 0.0
O142 O 0.75473 0.04744 0.21998 0.0
H143 H 0.78952 0.03006 0.33894 0.0
H144 H 0.82584 0.05271 0.25308 0.0
H145 H 0.85048 0.07713 0.29058 0.0
H146 H 0.8323 0.06585 0.33389 0.0
H147 H 0.7655 0.00624 0.3009 0.0
H148 H 0.84193 0.98787 0.25113 0.0
H149 H 0.85522 0.99847 0.20611 0.0
O150 O 0.78767 0.04216 0.22599 0.0
C151 C 0.73431 0.98744 0.20391 0.0
C152 C 0.82813 0.0093 0.19762 0.0
C153 C 0.83272 0.99465 0.23868 0.0
N154 N 0.80166 0.00619 0.2322 0.0
C155 C 0.80876 0.01195 0.20739 0.0
C156 C 0.81326 0.99752 0.24778 0.0
C157 C 0.84018 1.00061 0.21343 0.0
C158 C 0.69898 0.99458 0.2831 0.0
N159 N 0.69773 0.99579 0.25711 0.0
C160 C 0.67924 0.97579 0.29654 0.0
C161 C 0.65812 0.95819 0.2832 0.0
C162 C 0.65696 0.95959 0.25669 0.0
C163 C 0.67706 0.97861 0.24389 0.0
C164 C 0.67224 0.04019 0.21874 0.0
C165 C 0.70651 0.03191 0.19383 0.0
C166 C 0.68773 0.03395 0.23229 0.0
N167 N 0.70448 0.02976 0.21978 0.0
C168 C 0.69135 0.03815 0.17966 0.0
C169 C 0.67409 0.04228 0.19225 0.0
C170 C 0.77752 0.05398 0.21664 0.0
C171 C 0.79768 0.03511 0.32018 0.0
C172 C 0.81783 0.04767 0.27187 0.0
C173 C 0.83187 0.06155 0.29303 0.0
C174 C 0.82166 0.05521 0.31733 0.0
N175 N 0.79432 0.02799 0.27483 0.0
C176 C 0.7842 0.02162 0.29858 0.0
Co177 Co 0.01358 0.28105 0.75324 0.0
Co178 Co 0.03326 0.23901 0.74302 0.0
O179 O 0.02961 0.26273 0.76396 0.0
C180 C 0.98529 0.25094 0.7964 0.0
O181 O 0.98622 0.23276 0.78484 0.0
C182 C 0.08351 0.27934 0.75576 0.0
O183 O 0.07526 0.29386 0.74806 0.0
O184 O 0.04295 0.26094 0.71302 0.0
O185 O 0.03107 0.28908 0.71974 0.0
H186 H 0.02262 0.18776 0.66451 0.0
H187 H 0.04026 0.29268 0.80318 0.0
O188 O 0.99537 0.2724 0.78641 0.0
H189 H 0.0826 0.37015 0.75423 0.0
H190 H 0.98015 0.33851 0.76782 0.0
H191 H 0.99026 0.28509 0.70518 0.0
H192 H 0.0464 0.33282 0.73575 0.0
H193 H 1.00134 0.31559 0.7801 0.0
O194 O 0.06924 0.25581 0.75454 0.0
H195 H 0.01697 0.21731 0.69099 0.0
H196 H 0.05975 0.21102 0.75107 0.0
H197 H 0.96914 0.30781 0.69202 0.0
H198 H 0.07631 0.3296 0.82245 0.0
H199 H 0.96398 0.33476 0.72346 0.0
H200 H 0.0978 0.36865 0.79787 0.0
O201 O 0.98559 0.25103 0.73759 0.0
H202 H 0.03531 0.21866 0.83548 0.0
H203 H 0.99684 0.18554 0.75091 0.0
H204 H 0.98321 0.15784 0.78812 0.0
H205 H 1.0025 0.17439 0.83077 0.0
H206 H 0.04826 0.24573 0.79782 0.0
H207 H 0.06605 0.18153 0.72518 0.0
H208 H 0.04731 0.16966 0.68161 0.0
O209 O 0.99742 0.22274 0.73104 0.0
C210 C 0.04094 0.27938 0.70608 0.0
C211 C 0.03078 0.1927 0.68352 0.0
C212 C 0.05518 0.18923 0.71755 0.0
N213 N 0.03777 0.21562 0.72263 0.0
C214 C 0.02755 0.20934 0.69863 0.0
C215 C 0.05159 0.20595 0.7321 0.0
C216 C 0.04466 0.18257 0.69311 0.0
C217 C 0.04934 0.3097 0.79249 0.0
N218 N 0.04115 0.31066 0.76845 0.0
C219 C 0.06981 0.3305 0.80345 0.0
C220 C 0.08188 0.3524 0.78964 0.0
C221 C 0.07337 0.35325 0.76514 0.0
C222 C 0.05288 0.33206 0.75477 0.0
C223 C 0.98235 0.32689 0.75393 0.0
C224 C 0.98825 0.29693 0.7189 0.0
C225 C 0.9943 0.31385 0.76078 0.0
N226 N 0.99725 0.29925 0.74329 0.0
C227 C 0.9762 0.30968 0.71137 0.0
C228 C 0.97329 0.32478 0.72903 0.0
C229 C 0.98141 0.22988 0.72985 0.0
C230 C 0.02684 0.21121 0.81698 0.0
C231 C 0.00532 0.19285 0.76942 0.0
C232 C 0.99755 0.17708 0.7904 0.0
C233 C 0.0084 0.18638 0.81433 0.0
N234 N 0.02344 0.21717 0.77217 0.0
C235 C 0.03417 0.22642 0.79556 0.0
Co236 Co 0.73308 0.70302 0.74819 0.0
Co237 Co 0.77403 0.76564 0.74114 0.0
O238 O 0.75338 0.73661 0.7615 0.0
C239 C 0.77016 0.7024 0.78246 0.0
O240 O 0.78646 0.72215 0.77026 0.0
C241 C 0.73618 0.77441 0.76468 0.0
O242 O 0.72041 0.75151 0.75765 0.0
O243 O 0.74766 0.75502 0.71441 0.0
O244 O 0.71951 0.71473 0.72034 0.0
H245 H 0.81393 0.81167 0.66077 0.0
H246 H 0.73059 0.71368 0.80308 0.0
O247 O 0.7472 0.69138 0.77585 0.0
H248 H 0.64535 0.68061 0.7689 0.0
H249 H 0.67789 0.61085 0.75739 0.0
H250 H 0.71987 0.67952 0.69665 0.0
H251 H 0.67887 0.68434 0.74109 0.0
H252 H 0.70334 0.654 0.77296 0.0
O253 O 0.7593 0.78386 0.7596 0.0
H254 H 0.78812 0.77462 0.68663 0.0
H255 H 0.80353 0.81966 0.753 0.0
H256 H 0.69445 0.63669 0.68023 0.0
H257 H 0.6976 0.71009 0.83161 0.0
H258 H 0.67326 0.60199 0.71071 0.0
H259 H 0.65464 0.69355 0.81451 0.0
O260 O 0.75983 0.70682 0.72509 0.0
H261 H 0.80742 0.78181 0.83128 0.0
H262 H 0.8284 0.78346 0.74039 0.0
H263 H 0.8612 0.79538 0.77339 0.0
H264 H 0.85077 0.79461 0.8192 0.0
H265 H 0.77518 0.76988 0.79766 0.0
H266 H 0.82938 0.85725 0.72786 0.0
H267 H 0.83478 0.85335 0.68141 0.0
O268 O 0.78846 0.74738 0.72236 0.0
C269 C 0.72749 0.73517 0.70854 0.0
C270 C 0.8118 0.8136 0.68101 0.0
C271 C 0.82044 0.83918 0.71866 0.0
N272 N 0.79456 0.795 0.72131 0.0
C273 C 0.79729 0.79269 0.69575 0.0
C274 C 0.80577 0.81786 0.73279 0.0
C275 C 0.82347 0.83698 0.6926 0.0
C276 C 0.71188 0.7062 0.79557 0.0
N277 N 0.70662 0.69907 0.7705 0.0
C278 C 0.6933 0.70432 0.81179 0.0
C279 C 0.66921 0.69507 0.80217 0.0
C280 C 0.66398 0.68781 0.77658 0.0
C281 C 0.68304 0.68999 0.76092 0.0
C282 C 0.68699 0.62581 0.74392 0.0
C283 C 0.71055 0.66453 0.71002 0.0
C284 C 0.70146 0.65026 0.75262 0.0
N285 N 0.71289 0.66925 0.73571 0.0
C286 C 0.69626 0.64031 0.70061 0.0
C287 C 0.68439 0.62086 0.71772 0.0
C288 C 0.78026 0.72451 0.71678 0.0
C289 C 0.81221 0.78232 0.81137 0.0
C290 C 0.82374 0.78309 0.76029 0.0
C291 C 0.84238 0.78989 0.77888 0.0
C292 C 0.83652 0.78946 0.80459 0.0
N293 N 0.79995 0.77614 0.7671 0.0
C294 C 0.79406 0.77568 0.79226 0.0
Co295 Co 0.29798 0.99407 0.75086 0.0
Co296 Co 0.25228 0.00978 0.74533 0.0
O297 O 0.27779 0.004 0.73134 0.0
C298 C 0.26973 0.95391 0.71394 0.0
O299 O 0.25008 0.95437 0.72204 0.0
C300 C 0.29077 0.05763 0.72441 0.0
O301 O 0.3065 0.05259 0.73587 0.0
O302 O 0.2735 0.02792 0.77542 0.0
O303 O 0.30451 0.0193 0.77786 0.0
H304 H 0.19701 0.01167 0.81365 0.0
H305 H 0.30864 0.00679 0.6961 0.0
O306 O 0.29109 0.96845 0.72389 0.0
H307 H 0.38541 0.06583 0.74279 0.0
H308 H 0.36089 0.96639 0.76008 0.0
H309 H 0.30377 0.98599 0.80572 0.0
H310 H 0.34912 0.03384 0.76595 0.0
H311 H 0.33527 0.97977 0.73638 0.0
O312 O 0.26734 0.04234 0.72603 0.0
H313 H 0.22912 0.00382 0.79603 0.0
H314 H 0.22132 0.02929 0.72337 0.0
H315 H 0.32918 0.97287 0.83019 0.0
H316 H 0.34455 0.03837 0.67217 0.0
H317 H 0.35799 0.96296 0.80734 0.0
H318 H 0.38325 0.06824 0.69556 0.0
O319 O 0.26868 0.96933 0.7701 0.0
H320 H 0.23449 0.98839 0.65195 0.0
H321 H 0.19966 0.96915 0.73862 0.0
H322 H 0.1734 0.94509 0.70176 0.0
H323 H 0.19083 0.95465 0.65805 0.0
H324 H 0.26011 0.0119 0.68937 0.0
H325 H 0.18925 0.03759 0.74023 0.0
H326 H 0.17685 0.02868 0.78566 0.0
O327 O 0.23758 0.97759 0.76502 0.0
C328 C 0.29323 0.03034 0.78584 0.0
C329 C 0.20219 0.01554 0.7938 0.0
C330 C 0.19785 0.03013 0.7526 0.0
N331 N 0.22688 0.01589 0.75866 0.0
C332 C 0.22028 0.01106 0.7837 0.0
C333 C 0.21604 0.02544 0.74317 0.0
C334 C 0.1909 0.02511 0.77809 0.0
C335 C 0.32551 0.01954 0.70638 0.0
N336 N 0.32684 0.01838 0.73237 0.0
C337 C 0.34575 0.03746 0.69274 0.0
C338 C 0.36744 0.05424 0.70588 0.0
C339 C 0.36866 0.0529 0.73238 0.0
C340 C 0.34805 0.03476 0.7454 0.0
C341 C 0.34844 0.9707 0.77026 0.0
C342 C 0.31639 0.98187 0.79567 0.0
C343 C 0.33386 0.97824 0.75694 0.0
N344 N 0.31821 0.98384 0.76969 0.0
C345 C 0.33067 0.97437 0.80961 0.0
C346 C 0.34681 0.96879 0.79678 0.0
C347 C 0.24647 0.96451 0.77406 0.0
C348 C 0.22666 0.98411 0.67089 0.0
C349 C 0.20734 0.97344 0.71965 0.0
C350 C 0.19239 0.95978 0.69885 0.0
C351 C 0.20217 0.96515 0.67433 0.0
N352 N 0.23133 0.99199 0.71611 0.0
C353 C 0.24104 0.99742 0.69213 0.0
Co354 Co 0.68788 0.05331 0.57271 0.0
Co355 Co 0.7019 0.11414 0.57567 0.0
O356 O 0.7005 0.08492 0.58996 0.0
C357 C 0.65664 0.04412 0.61721 0.0
O358 O 0.65422 0.06254 0.60883 0.0
C359 C 0.75325 0.12694 0.58653 0.0
O360 O 0.74744 0.10696 0.5731 0.0
O361 O 0.71429 0.10934 0.54258 0.0
O362 O 0.70594 0.06982 0.54084 0.0
H363 H 0.68822 0.16423 0.50946 0.0
H364 H 0.71328 0.06231 0.62323 0.0
O365 O 0.66933 0.03688 0.60459 0.0
H366 H 0.76299 0.04347 0.56411 0.0
H367 H 0.6629 0.96322 0.56874 0.0
H368 H 0.66771 0.0333 0.52091 0.0
H369 H 0.72496 0.04278 0.54892 0.0
H370 H 0.67976 0.00433 0.58931 0.0
O371 O 0.73721 0.13384 0.58934 0.0
H372 H 0.68545 0.12644 0.52728 0.0
H373 H 0.72363 0.16598 0.59467 0.0
H374 H 0.65089 0.99258 0.49953 0.0
H375 H 0.7511 0.0631 0.63925 0.0
H376 H 0.6484 0.95719 0.52349 0.0
H377 H 0.7763 0.05374 0.60957 0.0
O378 O 0.65862 0.05448 0.55949 0.0
H379 H 0.69802 0.11768 0.6714 0.0
H380 H 0.66149 0.1241 0.58978 0.0
H381 H 0.64403 0.12828 0.6304 0.0
H382 H 0.6623 0.12503 0.67158 0.0
H383 H 0.71482 0.11351 0.63036 0.0
H384 H 0.727 0.20428 0.57752 0.0
H385 H 0.70912 0.20351 0.53466 0.0
O386 O 0.66687 0.09399 0.56166 0.0
C387 C 0.71443 0.09132 0.53118 0.0
C388 C 0.696 0.16478 0.5282 0.0
C389 C 0.7178 0.18727 0.56639 0.0
N390 N 0.70417 0.14399 0.56207 0.0
C391 C 0.69441 0.14342 0.53842 0.0
C392 C 0.71588 0.16555 0.57598 0.0
C393 C 0.70775 0.18682 0.54234 0.0
C394 C 0.72397 0.05791 0.61027 0.0
N395 N 0.71683 0.05233 0.58521 0.0
C396 C 0.74544 0.05851 0.61942 0.0
C397 C 0.75959 0.05329 0.60275 0.0
C398 C 0.75214 0.04753 0.57724 0.0
C399 C 0.7306 0.04717 0.56875 0.0
C400 C 0.66394 0.97851 0.55808 0.0
C401 C 0.66685 0.01803 0.5314 0.0
C402 C 0.67343 1.0018 0.56964 0.0
N403 N 0.67492 0.02121 0.55624 0.0
C404 C 0.65723 0.995 0.51922 0.0
C405 C 0.65582 0.97514 0.53269 0.0
C406 C 0.65267 0.07103 0.55584 0.0
C407 C 0.68995 0.11923 0.65358 0.0
C408 C 0.66957 0.12274 0.60763 0.0
C409 C 0.65962 0.12513 0.63057 0.0
C410 C 0.66989 0.12331 0.65367 0.0
N411 N 0.68926 0.11875 0.60771 0.0
C412 C 0.69946 0.11699 0.63028 0.0
Co413 Co 0.97749 0.64817 0.58339 0.0
Co414 Co 0.93157 0.58641 0.58178 0.0
O415 O 0.95653 0.61678 0.56563 0.0
C416 C 0.94744 0.65751 0.54676 0.0
O417 O 0.92862 0.63626 0.5539 0.0
C418 C 0.96902 0.57554 0.56093 0.0
O419 O 0.98543 0.59717 0.57061 0.0
O420 O 0.95395 0.59166 0.61149 0.0
O421 O 0.98555 0.6311 0.61057 0.0
H422 H 0.87904 0.53424 0.65409 0.0
H423 H 0.98534 0.64324 0.52837 0.0
O424 O 0.96906 0.66553 0.55652 0.0
H425 H 0.06455 0.66407 0.57134 0.0
H426 H 0.04034 0.73938 0.58762 0.0
H427 H 0.98581 0.66499 0.63755 0.0
H428 H 0.02942 0.66073 0.59609 0.0
H429 H 0.01384 0.69906 0.56604 0.0
O430 O 0.94577 0.56764 0.56356 0.0
H431 H 0.91038 0.57288 0.63365 0.0
H432 H 0.89986 0.53436 0.56337 0.0
H433 H 0.01215 0.70487 0.65993 0.0
H434 H 0.02003 0.64655 0.50286 0.0
H435 H 0.03966 0.74242 0.63492 0.0
H436 H 0.05995 0.65694 0.52438 0.0
O437 O 0.94912 0.64455 0.6037 0.0
H438 H 0.91005 0.58244 0.48844 0.0
H439 H 0.87867 0.57368 0.57621 0.0
H440 H 0.85087 0.56816 0.53971 0.0
H441 H 0.86655 0.57253 0.49545 0.0
H442 H 0.93726 0.58798 0.52549 0.0
H443 H 0.86854 0.49525 0.58307 0.0
H444 H 0.85789 0.49507 0.62873 0.0
O445 O 0.91755 0.60514 0.60026 0.0
C446 C 0.97444 0.60949 0.62021 0.0
C447 C 0.88345 0.5341 0.63415 0.0
C448 C 0.87758 0.51221 0.5943 0.0
N449 N 0.90674 0.55588 0.59731 0.0
C450 C 0.90111 0.55593 0.62246 0.0
C451 C 0.89536 0.53438 0.58326 0.0
C452 C 0.87161 0.51212 0.61992 0.0
C453 C 1.00274 0.64803 0.53782 0.0
N454 N 0.00541 0.65194 0.56365 0.0
C455 C 0.02229 0.64977 0.5233 0.0
C456 C 0.04467 0.65557 0.53539 0.0
C457 C 0.04725 0.65956 0.56174 0.0
C458 C 0.0273 0.65762 0.57566 0.0
C459 C 0.02847 0.72314 0.59874 0.0
C460 C 0.99787 0.68121 0.62656 0.0
C461 C 0.0134 0.70028 0.58662 0.0
N462 N 0.99847 0.67968 0.60055 0.0
C463 C 0.01268 0.70376 0.63933 0.0
C464 C 0.02809 0.72483 0.62528 0.0
C465 C 0.9269 0.62756 0.60831 0.0
C466 C 0.90298 0.5804 0.50763 0.0
C467 C 0.88561 0.57562 0.557 0.0
C468 C 0.86978 0.57244 0.53641 0.0
C469 C 0.87859 0.57488 0.51158 0.0
N470 N 0.90951 0.58101 0.55296 0.0
C471 C 0.91827 0.58342 0.52868 0.0
Co472 Co 0.37908 0.331 0.57923 0.0
Co473 Co 0.43978 0.34348 0.57974 0.0
O474 O 0.41114 0.3425 0.56359 0.0
C475 C 0.3702 0.30024 0.53381 0.0
O476 O 0.38719 0.29591 0.54336 0.0
C477 C 0.4551 0.39486 0.56582 0.0
O478 O 0.43477 0.39054 0.57754 0.0
O479 O 0.43525 0.35809 0.61153 0.0
O480 O 0.39526 0.34889 0.61181 0.0
H481 H 0.48741 0.33092 0.65042 0.0
H482 H 0.39017 0.35631 0.52912 0.0
O483 O 0.36311 0.31299 0.54655 0.0
H484 H 0.37164 0.40736 0.58692 0.0
H485 H 0.2894 0.30926 0.57845 0.0
H486 H 0.35737 0.31162 0.63002 0.0
H487 H 0.36954 0.36909 0.6023 0.0
H488 H 0.33098 0.32459 0.56 0.0
O489 O 0.46113 0.37804 0.56533 0.0
H490 H 0.45044 0.32873 0.62993 0.0
H491 H 0.49189 0.36237 0.56322 0.0
H492 H 0.31615 0.29633 0.64929 0.0
H493 H 0.39234 0.39433 0.51292 0.0
H494 H 0.28183 0.29508 0.62344 0.0
H495 H 0.38314 0.4202 0.54193 0.0
O496 O 0.37861 0.30112 0.59257 0.0
H497 H 0.44433 0.33476 0.48473 0.0
H498 H 0.44811 0.3014 0.5688 0.0
H499 H 0.45211 0.28165 0.52959 0.0
H500 H 0.45021 0.29834 0.48718 0.0
H501 H 0.4403 0.35387 0.52439 0.0
H502 H 0.52939 0.36512 0.58303 0.0
H503 H 0.52725 0.34923 0.62691 0.0
O504 O 0.4182 0.3091 0.59439 0.0
C505 C 0.41695 0.35835 0.62201 0.0
C506 C 0.48856 0.33782 0.63125 0.0
C507 C 0.51213 0.35705 0.59344 0.0
N508 N 0.46899 0.3452 0.59534 0.0
C509 C 0.46767 0.33654 0.61953 0.0
C510 C 0.49087 0.35549 0.58234 0.0
C511 C 0.51091 0.34812 0.61806 0.0
C512 C 0.38584 0.36729 0.54179 0.0
N513 N 0.37957 0.36039 0.56659 0.0
C514 C 0.38722 0.38888 0.53253 0.0
C515 C 0.38209 0.40341 0.54883 0.0
C516 C 0.37566 0.39622 0.57408 0.0
C517 C 0.37452 0.37454 0.58269 0.0
C518 C 0.30422 0.30976 0.58992 0.0
C519 C 0.34256 0.31129 0.61871 0.0
C520 C 0.32777 0.31837 0.57957 0.0
N521 N 0.3466 0.31919 0.59401 0.0
C522 C 0.31925 0.30254 0.6297 0.0
C523 C 0.29999 0.30182 0.61517 0.0
C524 C 0.39478 0.295 0.59824 0.0
C525 C 0.44531 0.3274 0.5031 0.0
C526 C 0.44732 0.30879 0.5504 0.0
C527 C 0.44961 0.29755 0.52828 0.0
C528 C 0.44856 0.30693 0.50449 0.0
N529 N 0.44417 0.32888 0.54888 0.0
C530 C 0.44315 0.33821 0.52563 0.0
Co531 Co 0.71847 0.63506 0.07742 0.0
Co532 Co 0.69931 0.57289 0.08306 0.0
O533 O 0.70366 0.60146 0.06396 0.0
C534 C 0.74966 0.63726 0.03496 0.0
O535 O 0.74802 0.61708 0.04436 0.0
C536 C 0.64949 0.56264 0.06816 0.0
O537 O 0.65697 0.58497 0.07711 0.0
O538 O 0.6874 0.58271 0.11345 0.0
O539 O 0.69893 0.62292 0.10949 0.0
H540 H 0.70661 0.52798 0.15906 0.0
H541 H 0.69492 0.62315 0.02587 0.0
O542 O 0.73873 0.64747 0.04572 0.0
H543 H 0.64843 0.65345 0.07563 0.0
H544 H 0.7511 0.72665 0.0704 0.0
H545 H 0.73848 0.65906 0.12789 0.0
H546 H 0.68385 0.65181 0.09512 0.0
H547 H 0.7314 0.68352 0.05438 0.0
O548 O 0.66404 0.55377 0.06937 0.0
H549 H 0.71306 0.56459 0.135 0.0
H550 H 0.67417 0.51896 0.07092 0.0
H551 H 0.75806 0.70186 0.14476 0.0
H552 H 0.65971 0.6246 0.00558 0.0
H553 H 0.76448 0.736 0.11592 0.0
H554 H 0.63615 0.63975 0.03055 0.0
O555 O 0.74591 0.63262 0.09351 0.0
H556 H 0.70275 0.55642 0.98952 0.0
H557 H 0.73691 0.55738 0.0752 0.0
H558 H 0.75295 0.54604 0.03767 0.0
H559 H 0.73582 0.5455 0.99446 0.0
H560 H 0.6874 0.56784 0.02752 0.0
H561 H 0.66713 0.48181 0.09433 0.0
H562 H 0.6835 0.48623 0.1387 0.0
O563 O 0.73438 0.59224 0.09717 0.0
C564 C 0.68845 0.60249 0.12156 0.0
C565 C 0.69948 0.52583 0.1397 0.0
C566 C 0.67729 0.49991 0.10339 0.0
N567 N 0.69423 0.54391 0.10151 0.0
C568 C 0.70316 0.5465 0.12596 0.0
C569 C 0.6813 0.52099 0.09024 0.0
C570 C 0.68648 0.5024 0.12828 0.0
C571 C 0.68493 0.63003 0.03676 0.0
N572 N 0.69151 0.63754 0.06158 0.0
C573 C 0.66494 0.6307 0.02521 0.0
C574 C 0.6517 0.63917 0.03924 0.0
C575 C 0.65858 0.64685 0.06454 0.0
C576 C 0.67863 0.64587 0.07548 0.0
C577 C 0.74833 0.71192 0.08317 0.0
C578 C 0.74103 0.6738 0.11528 0.0
C579 C 0.73723 0.68749 0.0742 0.0
N580 N 0.73357 0.6688 0.09026 0.0
C581 C 0.75221 0.69801 0.12492 0.0
C582 C 0.75584 0.71716 0.10872 0.0
C583 C 0.75001 0.6154 0.10008 0.0
C584 C 0.71029 0.5565 0.00826 0.0
C585 C 0.72939 0.5572 0.05645 0.0
C586 C 0.73851 0.55073 0.03528 0.0
C587 C 0.72888 0.55041 0.01104 0.0
N588 N 0.71114 0.56312 0.05356 0.0
C589 C 0.7016 0.56285 0.02986 0.0
Co590 Co 0.37403 0.04674 0.07311 0.0
Co591 Co 0.43594 0.09184 0.07992 0.0
O592 O 0.4073 0.06771 0.05996 0.0
C593 C 0.36897 0.07741 0.03413 0.0
O594 O 0.38836 0.09621 0.04516 0.0
C595 C 0.44839 0.05475 0.06141 0.0
O596 O 0.42597 0.03845 0.06893 0.0
O597 O 0.42739 0.06875 0.10895 0.0
O598 O 0.38755 0.03834 0.10366 0.0
H599 H 0.48106 0.14162 0.15831 0.0
H600 H 0.38536 0.03941 0.01992 0.0
O601 O 0.36026 0.05559 0.04286 0.0
H602 H 0.35908 0.9601 0.063 0.0
H603 H 0.28261 0.98445 0.06415 0.0
H604 H 0.35067 0.03796 0.1241 0.0
H605 H 0.35974 0.99491 0.08621 0.0
H606 H 0.32541 0.01096 0.04869 0.0
O607 O 0.45627 0.0779 0.06451 0.0
H608 H 0.44441 0.11134 0.1331 0.0
H609 H 0.48976 0.1235 0.0684 0.0
H610 H 0.30821 0.01161 0.14041 0.0
H611 H 0.38483 0.00505 0.99595 0.0
H612 H 0.27383 0.98461 0.11034 0.0
H613 H 0.37172 0.96508 0.01755 0.0
O614 O 0.37554 0.07477 0.09256 0.0
H615 H 0.44926 0.11619 0.98755 0.0
H616 H 0.44933 0.14464 0.07563 0.0
H617 H 0.45845 0.17345 0.03987 0.0
H618 H 0.45843 0.15925 0.99545 0.0
H619 H 0.4401 0.08796 0.02386 0.0
H620 H 0.52695 0.15379 0.09296 0.0
H621 H 0.5227 0.16307 0.13822 0.0
O622 O 0.41556 0.10538 0.09583 0.0
C623 C 0.40817 0.04889 0.11607 0.0
C624 C 0.48314 0.1378 0.13857 0.0
C625 C 0.5089 0.14461 0.1019 0.0
N626 N 0.46494 0.11586 0.09926 0.0
C627 C 0.46245 0.12075 0.12418 0.0
C628 C 0.4878 0.12742 0.08811 0.0
C629 C 0.5065 0.14981 0.1273 0.0
C630 C 0.37937 0.02198 0.02936 0.0
N631 N 0.37243 0.01911 0.05438 0.0
C632 C 0.37921 1.00263 0.01573 0.0
C633 C 0.37189 0.98022 0.02787 0.0
C634 C 0.36481 0.97742 0.05338 0.0
C635 C 0.36523 0.99719 0.06642 0.0
C636 C 0.29745 0.99609 0.07745 0.0
C637 C 0.33584 0.02612 0.11093 0.0
C638 C 0.3217 0.01116 0.0688 0.0
N639 N 0.34054 0.0258 0.08552 0.0
C640 C 0.31182 0.01131 0.12026 0.0
C641 C 0.29253 0.99618 0.10337 0.0
C642 C 0.39228 0.09628 0.10019 0.0
C643 C 0.44941 0.12262 0.00682 0.0
C644 C 0.44933 0.13835 0.05635 0.0
C645 C 0.45452 0.15475 0.03619 0.0
C646 C 0.45451 0.14677 0.01127 0.0
N647 N 0.44436 0.11471 0.05183 0.0
C648 C 0.44435 0.10676 0.02747 0.0
Co649 Co 0.97033 0.32881 0.08315 0.0
Co650 Co 0.92465 0.34484 0.0826 0.0
O651 O 0.94942 0.33941 0.06598 0.0
C652 C 0.94038 0.28991 0.04559 0.0
O653 O 0.92139 0.29181 0.05324 0.0
C654 C 0.96226 0.39337 0.06214 0.0
O655 O 0.97855 0.38809 0.07179 0.0
O656 O 0.94721 0.36191 0.11231 0.0
O657 O 0.97843 0.35362 0.11095 0.0
H658 H 0.87266 0.3445 0.15567 0.0
H659 H 0.97822 0.34238 0.02841 0.0
O660 O 0.96192 0.30342 0.0556 0.0
H661 H 0.05749 0.40024 0.07198 0.0
H662 H 0.03298 0.30036 0.08563 0.0
H663 H 0.9787 0.31975 0.13694 0.0
H664 H 0.02231 0.36806 0.09627 0.0
H665 H 0.00655 0.31443 0.06484 0.0
O666 O 0.93897 0.37799 0.06468 0.0
H667 H 0.90373 0.3371 0.13463 0.0
H668 H 0.8931 0.36538 0.06502 0.0
H669 H 0.00496 0.30593 0.15854 0.0
H670 H 0.01297 0.37416 0.00336 0.0
H671 H 0.03234 0.29612 0.13283 0.0
H672 H 0.05292 0.40344 0.02518 0.0
O673 O 0.94193 0.30378 0.10315 0.0
H674 H 0.90252 0.32755 0.98926 0.0
H675 H 0.87168 0.30465 0.07711 0.0
H676 H 0.8436 0.28249 0.04063 0.0
H677 H 0.859 0.29394 -0.00367 0.0
H678 H 0.93001 0.34909 0.0263 0.0
H679 H 0.86203 0.37327 0.08533 0.0
H680 H 0.85159 0.36271 0.13095 0.0
O681 O 0.91057 0.31191 0.10076 0.0
C682 C 0.96756 0.36426 0.1209 0.0
C683 C 0.87699 0.34909 0.13575 0.0
C684 C 0.87105 0.36527 0.09628 0.0
N685 N 0.90001 0.3506 0.09859 0.0
C686 C 0.89449 0.34486 0.12373 0.0
C687 C 0.88867 0.36081 0.0849 0.0
C688 C 0.86519 0.35934 0.12188 0.0
C689 C 0.99564 0.35488 0.03799 0.0
N690 N 0.99829 0.35328 0.06374 0.0
C691 C 0.01521 0.37291 0.02373 0.0
C692 C 0.03761 0.38935 0.03599 0.0
C693 C 0.04018 0.38758 0.06225 0.0
C694 C 0.0202 0.36934 0.07591 0.0
C695 C 0.02116 0.30462 0.09705 0.0
C696 C 0.9907 0.31567 0.12565 0.0
C697 C 0.00613 0.31255 0.08538 0.0
N698 N 0.99126 0.31808 0.0997 0.0
C699 C 0.00546 0.30778 0.13798 0.0
C700 C 0.0208 0.30226 0.12353 0.0
C701 C 0.91984 0.29867 0.10823 0.0
C702 C 0.89557 0.32246 0.00848 0.0
C703 C 0.87851 0.30971 0.05788 0.0
C704 C 0.86252 0.29713 0.0373 0.0
C705 C 0.87116 0.30357 0.01245 0.0
N706 N 0.90241 0.32823 0.05382 0.0
C707 C 0.91102 0.33465 0.02951 0.0
Co708 Co 0.34768 0.36159 0.91525 0.0
Co709 Co 0.36703 0.42385 0.91099 0.0
O710 O 0.35965 0.39432 0.93011 0.0
C711 C 0.30848 0.35703 0.9491 0.0
O712 O 0.31247 0.37796 0.93927 0.0
C713 C 0.41405 0.43327 0.93431 0.0
O714 O 0.40735 0.41088 0.92615 0.0
O715 O 0.38333 0.4154 0.88346 0.0
O716 O 0.37339 0.37567 0.88812 0.0
H717 H 0.37093 0.47225 0.83302 0.0
H718 H 0.35995 0.36999 0.97061 0.0
O719 O 0.32116 0.34723 0.94186 0.0
H720 H 0.41577 0.34286 0.93541 0.0
H721 H 0.31397 0.26966 0.91956 0.0
H722 H 0.33843 0.34072 0.86258 0.0
H723 H 0.38519 0.34591 0.90758 0.0
H724 H 0.33006 0.31174 0.93739 0.0
O725 O 0.40003 0.44236 0.92983 0.0
H726 H 0.36105 0.43456 0.85705 0.0
H727 H 0.39023 0.4772 0.92522 0.0
H728 H 0.32264 0.29901 0.84393 0.0
H729 H 0.39013 0.36706 -0.00083 0.0
H730 H 0.31027 0.26312 0.8725 0.0
H731 H 0.41838 0.35351 0.98156 0.0
O732 O 0.32431 0.3652 0.89235 0.0
H733 H 0.34958 0.43563 0.00197 0.0
H734 H 0.32876 0.43915 0.91152 0.0
H735 H 0.30722 0.44859 0.94526 0.0
H736 H 0.31762 0.44686 0.99086 0.0
H737 H 0.37052 0.42616 0.96763 0.0
H738 H 0.40061 0.51541 0.9019 0.0
H739 H 0.39085 0.51304 0.85548 0.0
O740 O 0.33437 0.40522 0.89171 0.0
C741 C 0.38472 0.39648 0.87678 0.0
C742 C 0.37518 0.47351 0.85326 0.0
C743 C 0.39188 0.49774 0.89192 0.0
N744 N 0.37485 0.45368 0.89254 0.0
C745 C 0.36955 0.45222 0.86698 0.0
C746 C 0.386 0.47607 0.905 0.0
C747 C 0.38639 0.49639 0.86587 0.0
C748 C 0.37199 0.3638 0.96288 0.0
N749 N 0.37071 0.35796 0.93752 0.0
C750 C 0.38912 0.36229 0.97912 0.0
C751 C 0.40498 0.35472 0.96921 0.0
C752 C 0.40353 0.34875 0.94332 0.0
C753 C 0.3862 0.35052 0.92765 0.0
C754 C 0.31936 0.28516 0.90691 0.0
C755 C 0.33328 0.32522 0.87513 0.0
C756 C 0.32845 0.30901 0.9169 0.0
N757 N 0.33541 0.32868 0.90102 0.0
C758 C 0.32426 0.30164 0.86446 0.0
C759 C 0.3173 0.2815 0.8805 0.0
C760 C 0.32055 0.38246 0.88498 0.0
C761 C 0.34496 0.43653 0.98217 0.0
C762 C 0.33337 0.43837 0.93132 0.0
C763 C 0.32114 0.44376 0.95034 0.0
C764 C 0.327 0.4428 0.97592 0.0
N765 N 0.35099 0.43227 0.93761 0.0
C766 C 0.35683 0.43129 0.96264 0.0
Co767 Co 0.64815 0.98063 0.92292 0.0
Co768 Co 0.60089 0.91944 0.92168 0.0
O769 O 0.62708 0.94909 0.90576 0.0
C770 C 0.62182 0.99015 0.88199 0.0
O771 O 0.60133 0.97183 0.89134 0.0
C772 C 0.63779 0.90692 0.90296 0.0
O773 O 0.65414 0.92783 0.91401 0.0
O774 O 0.62208 0.92406 0.95226 0.0
O775 O 0.65367 0.96371 0.95227 0.0
H776 H 0.54481 0.86883 0.99278 0.0
H777 H 0.65856 0.97258 0.86955 0.0
O778 O 0.64264 0.99745 0.89332 0.0
H779 H 0.73444 0.99271 0.91903 0.0
H780 H 0.7137 0.07106 0.92576 0.0
H781 H 0.654 0.99939 0.97615 0.0
H782 H 0.69875 0.99207 0.93999 0.0
H783 H 0.68711 0.0303 0.90501 0.0
O784 O 0.61457 0.89967 0.9044 0.0
H785 H 0.57785 0.90682 0.97285 0.0
H786 H 0.56826 0.86759 0.90325 0.0
H787 H 0.68033 0.03976 -0.00229 0.0
H788 H 0.69388 0.97322 0.84779 0.0
H789 H 0.71045 0.07594 0.97246 0.0
H790 H 0.73213 0.98322 0.8726 0.0
O791 O 0.61914 0.9789 0.94049 0.0
H792 H 0.58251 0.91652 0.82762 0.0
H793 H 0.54887 0.90888 0.91419 0.0
H794 H 0.52262 0.90468 0.8767 0.0
H795 H 0.53945 0.90854 0.83304 0.0
H796 H 0.60813 0.92066 0.86562 0.0
H797 H 0.53524 0.82911 0.92246 0.0
H798 H 0.52326 0.82962 0.96752 0.0
O799 O 0.58761 0.93931 0.93916 0.0
C800 C 0.64205 0.94203 0.9617 0.0
C801 C 0.5498 0.86839 0.97311 0.0
C802 C 0.54445 0.84608 0.93365 0.0
N803 N 0.5748 0.88942 0.93688 0.0
C804 C 0.56844 0.88985 0.96171 0.0
C805 C 0.56319 0.8679 0.92289 0.0
C806 C 0.53774 0.84639 0.95893 0.0
C807 C 0.67524 0.97723 0.88042 0.0
N808 N 0.67663 0.98239 0.90599 0.0
C809 C 0.69514 0.97745 0.86802 0.0
C810 C 0.71658 0.98303 0.88195 0.0
C811 C 0.71789 0.98834 0.90801 0.0
C812 C 0.69761 0.98792 0.91978 0.0
C813 C 0.70068 0.05542 0.93698 0.0
C814 C 0.66719 0.01503 0.96508 0.0
C815 C 0.68556 0.03233 0.92533 0.0
N816 N 0.6692 0.01248 0.93942 0.0
C817 C 0.68199 0.03784 0.97737 0.0
C818 C 0.69886 0.05814 0.96318 0.0
C819 C 0.5969 0.96216 0.94561 0.0
C820 C 0.57493 0.91469 0.84654 0.0
C821 C 0.55629 0.91051 0.89525 0.0
C822 C 0.54134 0.9081 0.87409 0.0
C823 C 0.55079 0.91025 0.8496 0.0
N824 N 0.57994 0.91482 0.89209 0.0
C825 C 0.58932 0.91692 0.86813 0.0
Co826 Co 0.0465 0.68726 0.90556 0.0
Co827 Co 0.09471 0.67498 0.90862 0.0
O828 O 0.06745 0.67727 0.92345 0.0
C829 C 0.07045 0.72234 0.94781 0.0
O830 O 0.09146 0.72554 0.93879 0.0
C831 C 0.0583 0.62479 0.92603 0.0
O832 O 0.04192 0.62861 0.91411 0.0
O833 O 0.07465 0.65803 0.8775 0.0
O834 O 0.0432 0.66605 0.87552 0.0
H835 H 0.15352 0.68243 0.83946 0.0
H836 H 0.03393 0.66732 0.95814 0.0
O837 O 0.05005 0.70854 0.93581 0.0
H838 H 0.96136 0.61087 0.90449 0.0
H839 H 0.97915 0.70935 0.90072 0.0
H840 H 0.04232 0.70105 0.85235 0.0
H841 H 0.99744 0.64718 0.88565 0.0
H842 H 0.00583 0.69592 0.92217 0.0
O843 O 0.08138 0.6415 0.92561 0.0
H844 H 0.11921 0.68607 0.85821 0.0
H845 H 0.12803 0.65732 0.92837 0.0
H846 H 0.01593 0.71435 0.83009 0.0
H847 H 0.99818 0.63134 0.97778 0.0
H848 H 0.98407 0.71857 0.85433 0.0
H849 H 0.9616 0.60276 0.95088 0.0
O850 O 0.07577 0.71556 0.88958 0.0
H851 H 0.10981 0.69039 0.00317 0.0
H852 H 0.14597 0.71753 0.91778 0.0
H853 H 0.17069 0.73998 0.95606 0.0
H854 H 0.1526 0.72643 -0.00086 0.0
H855 H 0.08573 0.66855 0.96438 0.0
H856 H 0.16233 0.65319 0.91035 0.0
H857 H 0.17533 0.66589 0.86561 0.0
O858 O 0.10773 0.70825 0.89143 0.0
C859 C 0.05525 0.65611 0.86673 0.0
C860 C 0.1481 0.67693 0.85901 0.0
C861 C 0.15302 0.66048 0.89879 0.0
N862 N 0.12183 0.67213 0.89441 0.0
C863 C 0.12875 0.67902 0.86975 0.0
C864 C 0.13357 0.66282 0.90887 0.0
C865 C 0.1603 0.66762 0.87368 0.0
C866 C 0.01796 0.65515 0.94635 0.0
N867 N 0.01771 0.65945 0.9208 0.0
C868 C 0.99782 0.63473 0.95757 0.0
C869 C 0.97732 0.61868 0.94245 0.0
C870 C 0.97718 0.62321 0.91642 0.0
C871 C 0.99767 0.64379 0.90586 0.0
C872 C 0.99294 0.70753 0.88995 0.0
C873 C 0.02838 0.70269 0.86298 0.0
C874 C 0.00812 0.69999 0.902 0.0
N875 N 0.02546 0.69754 0.88847 0.0
C876 C 0.01355 0.7103 0.8503 0.0
C877 C 0.9957 0.71269 0.86391 0.0
C878 C 0.09823 0.72156 0.88494 0.0
C879 C 0.11795 0.6964 0.98451 0.0
C880 C 0.138 0.71151 0.93646 0.0
C881 C 0.15209 0.72427 0.95807 0.0
C882 C 0.14193 0.71665 0.98223 0.0
N883 N 0.1145 0.69166 0.93886 0.0
C884 C 0.10443 0.68405 0.96249 0.0
Co885 Co 0.34686 0.97527 0.42174 0.0
Co886 Co 0.36688 0.93403 0.40852 0.0
O887 O 0.36178 0.95564 0.4313 0.0
C888 C 0.31467 0.94062 0.46035 0.0
O889 O 0.316 0.92363 0.44681 0.0
C890 C 0.41618 0.97275 0.42616 0.0
O891 O 0.40841 0.988 0.4198 0.0
O892 O 0.37878 0.95886 0.38091 0.0
O893 O 0.36715 0.98681 0.39007 0.0
H894 H 0.36143 0.89033 0.32576 0.0
H895 H 0.36909 0.98109 0.47354 0.0
O896 O 0.3259 0.96312 0.45307 0.0
H897 H 0.41587 0.06354 0.4343 0.0
H898 H 0.31266 0.03142 0.44048 0.0
H899 H 0.32778 0.98488 0.37354 0.0
H900 H 0.3813 0.02862 0.41082 0.0
H901 H 0.33256 0.00692 0.45124 0.0
O902 O 0.40198 0.94944 0.42252 0.0
H903 H 0.35406 0.91736 0.35449 0.0
H904 H 0.39269 0.90517 0.41478 0.0
H905 H 0.30801 0.00926 0.36189 0.0
H906 H 0.40343 0.01551 0.49775 0.0
H907 H 0.30033 0.03276 0.3955 0.0
H908 H 0.42715 0.05706 0.47808 0.0
O909 O 0.32029 0.94734 0.40191 0.0
H910 H 0.36185 0.90471 0.4987 0.0
H911 H 0.32985 0.88006 0.41048 0.0
H912 H 0.31325 0.84889 0.4446 0.0
H913 H 0.32926 0.86118 0.48909 0.0
H914 H 0.37783 0.93529 0.46403 0.0
H915 H 0.40065 0.87814 0.38665 0.0
H916 H 0.38487 0.87051 0.34182 0.0
O917 O 0.33201 0.9192 0.39414 0.0
C918 C 0.37766 0.97821 0.37578 0.0
C919 C 0.36831 0.89343 0.34528 0.0
C920 C 0.39035 0.88662 0.37945 0.0
N921 N 0.37273 0.91261 0.38633 0.0
C922 C 0.36412 0.90865 0.36166 0.0
C923 C 0.38584 0.90197 0.39527 0.0
C924 C 0.38149 0.88234 0.3543 0.0
C925 C 0.37914 0.99919 0.46497 0.0
N926 N 0.3731 1.0029 0.44088 0.0
C927 C 0.39864 0.01858 0.47872 0.0
C928 C 0.41196 0.04188 0.46766 0.0
C929 C 0.40565 0.04553 0.44309 0.0
C930 C 0.38607 0.0257 0.42989 0.0
C931 C 0.31598 0.02132 0.42566 0.0
C932 C 0.32468 0.99522 0.38823 0.0
C933 C 0.3272 0.00741 0.43164 0.0
N934 N 0.33156 0.99473 0.41299 0.0
C935 C 0.3134 0.00892 0.38154 0.0
C936 C 0.30907 0.02207 0.40041 0.0
C937 C 0.31648 0.92691 0.39227 0.0
C938 C 0.35479 0.89911 0.47937 0.0
C939 C 0.33694 0.88552 0.42978 0.0
C940 C 0.32748 0.8678 0.44902 0.0
C941 C 0.33648 0.8747 0.47397 0.0
N942 N 0.35491 0.90942 0.43523 0.0
C943 C 0.36386 0.91632 0.45964 0.0
Co944 Co 0.04599 0.36023 0.40496 0.0
Co945 Co 0.0949 0.4206 0.40599 0.0
O946 O 0.068 0.39159 0.422 0.0
C947 C 0.07151 0.34962 0.44572 0.0
O948 O 0.0921 0.36769 0.43627 0.0
C949 C 0.05968 0.43532 0.42464 0.0
O950 O 0.04274 0.41472 0.41355 0.0
O951 O 0.07378 0.41681 0.37566 0.0
O952 O 0.04165 0.37755 0.37521 0.0
H953 H 0.15135 0.46952 0.3344 0.0
H954 H 0.03593 0.36897 0.45821 0.0
O955 O 0.05063 0.34297 0.43479 0.0
H956 H 0.96148 0.35249 0.4081 0.0
H957 H 0.9777 0.27084 0.40272 0.0
H958 H 0.03941 0.34085 0.35187 0.0
H959 H 0.99639 0.35133 0.38744 0.0
H960 H 0.00561 0.31144 0.42316 0.0
O961 O 0.08266 0.44154 0.42335 0.0
H962 H 0.11744 0.4323 0.35458 0.0
H963 H 0.12946 0.47211 0.42426 0.0
H964 H 0.01175 0.30065 0.3306 0.0
H965 H 1.00139 0.37016 0.47965 0.0
H966 H 0.98062 0.2653 0.35609 0.0
H967 H 0.96387 0.36198 0.45453 0.0
O968 O 0.0743 0.36047 0.38759 0.0
H969 H 0.11357 0.42294 0.49991 0.0
H970 H 0.14615 0.4289 0.41308 0.0
H971 H 0.17216 0.43195 0.45036 0.0
H972 H 0.15586 0.42893 0.49416 0.0
H973 H 0.08817 0.41989 0.4621 0.0
H974 H 0.16338 0.50984 0.4048 0.0
H975 H 0.17457 0.50864 0.35958 0.0
O976 O 0.10679 0.39957 0.38837 0.0
C977 C 0.05373 0.39925 0.36582 0.0
C978 C 0.14671 0.47025 0.35415 0.0
C979 C 0.15344 0.49289 0.39365 0.0
N980 N 0.12168 0.45002 0.39061 0.0
C981 C 0.1276 0.44922 0.36569 0.0
C982 C 0.1342 0.4715 0.40455 0.0
C983 C 0.15971 0.4922 0.36828 0.0
C984 C 0.01954 0.3651 0.4472 0.0
N985 N 0.01811 0.35993 0.42163 0.0
C986 C 1.00009 0.36592 0.45943 0.0
C987 C 0.97906 0.36136 0.44531 0.0
C988 C 0.97771 0.35605 0.41926 0.0
C989 C 0.99754 0.35544 0.40766 0.0
C990 C 0.99115 0.28612 0.3914 0.0
C991 C 0.02579 0.3256 0.36304 0.0
C992 C 0.00703 0.30912 0.40287 0.0
N993 N 0.02395 0.32852 0.38866 0.0
C994 C 0.01024 0.30286 0.35091 0.0
C995 C 0.99279 0.28303 0.36523 0.0
C996 C 0.09668 0.37656 0.38218 0.0
C997 C 0.12092 0.42438 0.48093 0.0
C998 C 0.13897 0.42763 0.43208 0.0
C999 C 0.15378 0.42939 0.45312 0.0
C1000 C 0.14463 0.42771 0.47769 0.0
N1001 N 0.11574 0.42439 0.43542 0.0
C1002 C 0.10666 0.42278 0.45945 0.0
Co1003 Co 0.64842 0.66395 0.4177 0.0
Co1004 Co 0.6015 0.67818 0.41606 0.0
O1005 O 0.62859 0.67582 0.40074 0.0
C1006 C 0.62547 0.63132 0.37328 0.0
O1007 O 0.60441 0.62916 0.38083 0.0
C1008 C 0.63916 0.72899 0.40143 0.0
O1009 O 0.65495 0.72427 0.41329 0.0
O1010 O 0.62101 0.69301 0.44805 0.0
O1011 O 0.65126 0.68325 0.44921 0.0
H1012 H 0.54179 0.66857 0.48517 0.0
H1013 H 0.66299 0.68721 0.36672 0.0
O1014 O 0.64541 0.64432 0.38627 0.0
H1015 H 0.73443 0.73888 0.4239 0.0
H1016 H 0.71424 0.63968 0.42098 0.0
H1017 H 0.65004 0.64596 0.46962 0.0
H1018 H 0.69732 0.70182 0.44021 0.0
H1019 H 0.68911 0.65548 0.40058 0.0
O1020 O 0.61597 0.71258 0.40095 0.0
H1021 H 0.57588 0.66488 0.46592 0.0
H1022 H 0.56969 0.69817 0.39782 0.0
H1023 H 0.67487 0.63024 0.49083 0.0
H1024 H 0.69979 0.72401 0.34957 0.0
H1025 H 0.70724 0.62702 0.46645 0.0
H1026 H 0.73581 0.75019 0.37826 0.0
O1027 O 0.61822 0.63504 0.43149 0.0
H1028 H 0.58784 0.66812 0.32093 0.0
H1029 H 0.55001 0.6369 0.40495 0.0
H1030 H 0.52568 0.61692 0.36567 0.0
H1031 H 0.54462 0.63253 0.32328 0.0
H1032 H 0.61154 0.68747 0.36068 0.0
H1033 H 0.53565 0.70241 0.41638 0.0
H1034 H 0.52144 0.68745 0.46033 0.0
O1035 O 0.58736 0.64399 0.43144 0.0
C1036 C 0.63959 0.69322 0.45885 0.0
C1037 C 0.54776 0.67507 0.46597 0.0
C1038 C 0.54434 0.6941 0.42737 0.0
N1039 N 0.57459 0.68111 0.43071 0.0
C1040 C 0.56699 0.67296 0.45494 0.0
C1041 C 0.56364 0.6917 0.41698 0.0
C1042 C 0.53637 0.6857 0.45203 0.0
C1043 C 0.6787 0.69836 0.37927 0.0
N1044 N 0.67806 0.69231 0.40442 0.0
C1045 C 0.69944 0.71923 0.36947 0.0
C1046 C 0.71963 0.73393 0.38559 0.0
C1047 C 0.71886 0.72761 0.4112 0.0
C1048 C 0.69779 0.70663 0.42034 0.0
C1049 C 0.70023 0.64105 0.43181 0.0
C1050 C 0.66421 0.64477 0.45895 0.0
C1051 C 0.68592 0.64994 0.42036 0.0
N1052 N 0.66829 0.65184 0.43398 0.0
C1053 C 0.67816 0.63578 0.47103 0.0
C1054 C 0.6963 0.63396 0.45734 0.0
C1055 C 0.59594 0.62954 0.43631 0.0
C1056 C 0.57936 0.66122 0.33929 0.0
C1057 C 0.55835 0.64381 0.38657 0.0
C1058 C 0.54448 0.63245 0.3644 0.0
C1059 C 0.55512 0.64122 0.34062 0.0
N1060 N 0.5821 0.66343 0.3851 0.0
C1061 C 0.59264 0.67217 0.36186 0.0
C1062 C 0.05734 0.77469 0.16902 0.0
C1063 C 0.04521 0.7542 0.18526 0.0
C1064 C 0.06305 0.77165 0.14412 0.0
C1065 C 0.04172 0.72459 0.09362 0.0
H1066 H 0.10042 0.77477 0.05915 0.0
C1067 C 0.09119 0.73982 0.98987 0.0
C1068 C 0.06986 0.73047 0.97411 0.0
C1069 C 0.08977 0.74375 0.01588 0.0
C1070 C 0.08403 0.76049 0.06854 0.0
H1071 H 0.03075 0.71463 0.18846 0.0
H1072 H 0.04111 0.70941 0.14485 0.0
H1073 H 0.09673 0.77804 0.10513 0.0
H1074 H 0.03071 0.71936 0.97284 0.0
H1075 H 0.02841 0.72696 0.01816 0.0
H1076 H 0.0292 0.7068 0.05717 0.0
C1077 C 0.04575 0.72774 0.15139 0.0
C1078 C 0.08184 0.76246 0.09483 0.0
C1079 C 0.03995 0.73076 0.17639 0.0
C1080 C 0.04742 0.72643 0.98455 0.0
C1081 C 0.04605 0.73054 0.01054 0.0
C1082 C 0.04397 0.72256 0.06738 0.0
C1083 C 0.0569 0.74809 0.13488 0.0
C1084 C 0.0605 0.7447 0.10757 0.0
C1085 C 0.06705 0.73861 0.02658 0.0
C1086 C 0.06498 0.74067 0.05451 0.0
H1087 H 0.06176 0.79306 0.17519 0.0
H1088 H 0.07134 0.78764 0.13181 0.0
H1089 H 0.02492 0.71077 0.10283 0.0
H1090 H 0.10877 0.74306 0.98241 0.0
H1091 H 0.10623 0.74983 0.02776 0.0
C1092 C 0.28663 0.36159 0.98623 0.0
C1093 C 0.29075 0.34613 0.97002 0.0
C1094 C 0.27147 0.35189 0.00743 0.0
C1095 C 0.24859 0.29811 0.05013 0.0
H1096 H 0.22238 0.33458 0.08565 0.0
C1097 C 0.22149 0.28102 0.15513 0.0
C1098 C 0.24093 0.30109 0.16858 0.0
C1099 C 0.21748 0.28319 0.12924 0.0
C1100 C 0.22911 0.32391 0.07567 0.0
H1101 H 0.281 0.30826 0.96189 0.0
H1102 H 0.25327 0.29089 -0.00179 0.0
H1103 H 0.23298 0.34266 0.04053 0.0
H1104 H 0.26977 0.33971 0.16646 0.0
H1105 H 0.26218 0.3437 0.12127 0.0
H1106 H 0.24476 0.27954 0.08546 0.0
C1107 C 0.26258 0.31071 0.99531 0.0
C1108 C 0.23553 0.3287 0.04998 0.0
C1109 C 0.27837 0.32057 0.97445 0.0
C1110 C 0.25477 0.32397 0.15643 0.0
C1111 C 0.25031 0.3263 0.13073 0.0
C1112 C 0.24149 0.29285 0.07553 0.0
C1113 C 0.25954 0.32636 0.01257 0.0
C1114 C 0.24671 0.31688 0.03731 0.0
C1115 C 0.23235 0.30565 0.11677 0.0
C1116 C 0.23285 0.30653 0.08875 0.0
H1117 H 0.29606 0.38143 0.98324 0.0
H1118 H 0.27022 0.36476 0.0204 0.0
H1119 H 0.25731 0.28873 0.04137 0.0
H1120 H 0.21056 0.26316 0.16407 0.0
H1121 H 0.20372 0.26702 0.11865 0.0
C1122 C 0.74259 0.96908 0.16541 0.0
C1123 C 0.72561 0.97178 0.18069 0.0
C1124 C 0.73517 0.9574 0.14155 0.0
C1125 C 0.68205 0.91889 0.09889 0.0
H1126 H 0.71893 0.96921 0.04853 0.0
C1127 C 0.63766 0.92432 0.005 0.0
C1128 C 0.65283 0.9373 0.98444 0.0
C1129 C 0.6483 0.922 0.02763 0.0
C1130 C 0.70876 0.95445 0.06196 0.0
H1131 H 0.6871 0.96246 0.18409 0.0
H1132 H 0.67413 0.94184 0.14249 0.0
H1133 H 0.73452 0.97523 0.09199 0.0
H1134 H 0.69042 0.95597 0.97009 0.0
H1135 H 0.70898 0.95073 0.009 0.0
H1136 H 0.65604 0.89819 0.06896 0.0
C1137 C 0.69315 0.94886 0.14894 0.0
C1138 C 0.71774 0.95802 0.08699 0.0
C1139 C 0.70065 0.9609 0.17259 0.0
C1140 C 0.67851 0.9464 0.98605 0.0
C1141 C 0.68908 0.94344 0.00837 0.0
C1142 C 0.67329 0.91501 0.07365 0.0
C1143 C 0.71056 0.94783 0.13288 0.0
C1144 C 0.70395 0.94078 0.10583 0.0
C1145 C 0.67425 0.93205 0.02983 0.0
C1146 C 0.68596 0.9333 0.05512 0.0
H1147 H 0.76194 0.97721 0.1712 0.0
H1148 H 0.74888 0.95683 0.12938 0.0
H1149 H 0.67122 0.9053 0.1132 0.0
H1150 H 0.61776 0.91711 0.00402 0.0
H1151 H 0.63623 0.91345 0.04374 0.0
C1152 C 0.73145 0.11795 0.49267 0.0
C1153 C 0.7251 0.09577 0.50538 0.0
C1154 C 0.73974 0.12146 0.46756 0.0
C1155 C 0.76516 0.09844 0.4184 0.0
H1156 H 0.72834 0.11563 0.37057 0.0
C1157 C 0.73087 0.0726 0.31008 0.0
C1158 C 0.75286 0.07609 0.29897 0.0
C1159 C 0.73165 0.08278 0.33408 0.0
C1160 C 0.73895 0.11108 0.38374 0.0
H1161 H 0.72341 0.06029 0.50199 0.0
H1162 H 0.73788 0.06646 0.45814 0.0
H1163 H 0.72279 0.11787 0.41647 0.0
H1164 H 0.79312 0.09476 0.30317 0.0
H1165 H 0.79439 0.11254 0.34503 0.0
H1166 H 0.78028 0.09031 0.3858 0.0
C1167 C 0.73655 0.08116 0.46771 0.0
C1168 C 0.73593 0.11253 0.40996 0.0
C1169 C 0.72808 0.07755 0.49276 0.0
C1170 C 0.7758 0.09149 0.31138 0.0
C1171 C 0.77657 0.10165 0.33536 0.0
C1172 C 0.76827 0.09711 0.39224 0.0
C1173 C 0.74206 0.10297 0.45477 0.0
C1174 C 0.7484 0.10543 0.42745 0.0
C1175 C 0.75442 0.09661 0.34733 0.0
C1176 C 0.75459 0.10266 0.37466 0.0
H1177 H 0.72942 0.13241 0.50184 0.0
H1178 H 0.74402 0.13849 0.45801 0.0
H1179 H 0.77518 0.09313 0.43155 0.0
H1180 H 0.71293 0.06092 0.30091 0.0
H1181 H 0.71425 0.07842 0.34295 0.0
C1182 C 0.92654 0.65732 0.50615 0.0
C1183 C 0.94409 0.67071 0.52544 0.0
C1184 C 0.92544 0.66923 0.48417 0.0
C1185 C 0.96697 0.7249 0.44734 0.0
H1186 H 0.9104 0.69561 0.40048 0.0
C1187 C 0.97259 0.75272 0.34169 0.0
C1188 C 0.97177 0.73342 0.327 0.0
C1189 C 0.96442 0.74858 0.36687 0.0
C1190 C 0.92616 0.70422 0.4136 0.0
H1191 H 0.97269 0.70718 0.53832 0.0
H1192 H 0.96985 0.7284 0.50057 0.0
H1193 H 0.90442 0.68365 0.44539 0.0
H1194 H 0.96053 0.69445 0.32631 0.0
H1195 H 0.9456 0.68709 0.37033 0.0
H1196 H 0.98857 0.74536 0.41533 0.0
C1197 C 0.95771 0.70853 0.5017 0.0
C1198 C 0.92289 0.69724 0.4392 0.0
C1199 C 0.95929 0.69646 0.52338 0.0
C1200 C 0.96147 0.70963 0.33735 0.0
C1201 C 0.95274 0.70537 0.36232 0.0
C1202 C 0.97006 0.73232 0.42197 0.0
C1203 C 0.94149 0.69491 0.48133 0.0
C1204 C 0.94351 0.70656 0.4561 0.0
C1205 C 0.9547 0.72495 0.37734 0.0
C1206 C 0.9499 0.72126 0.40478 0.0
H1207 H 0.91464 0.63739 0.50733 0.0
H1208 H 0.913 0.65791 0.46888 0.0
H1209 H 0.98343 0.73231 0.45946 0.0
H1210 H 0.98052 0.77126 0.33413 0.0
H1211 H 0.9663 0.76391 0.37838 0.0
C1212 C 0.37509 0.28573 0.49094 0.0
C1213 C 0.36283 0.29437 0.50672 0.0
C1214 C 0.37071 0.28341 0.46462 0.0
C1215 C 0.34867 0.26887 0.41098 0.0
H1216 H 0.3405 0.31996 0.3783 0.0
C1217 C 0.30209 0.25635 0.31299 0.0
C1218 C 0.30944 0.27707 0.29732 0.0
C1219 C 0.31319 0.25897 0.33688 0.0
C1220 C 0.34322 0.30579 0.387 0.0
H1221 H 0.33547 0.30619 0.50752 0.0
H1222 H 0.32728 0.30145 0.46165 0.0
H1223 H 0.34972 0.323 0.42383 0.0
H1224 H 0.3356 0.31647 0.29367 0.0
H1225 H 0.35525 0.32094 0.33543 0.0
H1226 H 0.34231 0.25176 0.37404 0.0
C1227 C 0.3408 0.29714 0.46954 0.0
C1228 C 0.34805 0.30731 0.41319 0.0
C1229 C 0.34529 0.2996 0.49584 0.0
C1230 C 0.32931 0.30018 0.30538 0.0
C1231 C 0.34049 0.30277 0.32933 0.0
C1232 C 0.34394 0.26741 0.38472 0.0
C1233 C 0.35387 0.28955 0.4536 0.0
C1234 C 0.35027 0.28859 0.42555 0.0
C1235 C 0.332 0.28232 0.34563 0.0
C1236 C 0.34064 0.28559 0.37257 0.0
H1237 H 0.3888 0.28162 0.49874 0.0
H1238 H 0.38116 0.27765 0.45283 0.0
H1239 H 0.35029 0.25416 0.41997 0.0
H1240 H 0.28696 0.23821 0.30734 0.0
H1241 H 0.30603 0.24288 0.34904 0.0
C1242 C 0.9721 0.22724 0.83684 0.0
C1243 C 0.97417 0.24678 0.82181 0.0
C1244 C 0.96337 0.2243 0.86174 0.0
C1245 C 0.92606 0.23244 0.90656 0.0
H1246 H 0.98109 0.25998 0.95525 0.0
C1247 C 0.92101 0.27219 0.00334 0.0
C1248 C 0.93764 0.27477 0.02299 0.0
C1249 C 0.92122 0.26136 0.98007 0.0
C1250 C 0.96527 0.25146 0.94225 0.0
H1251 H 0.96769 0.27777 0.82039 0.0
H1252 H 0.95185 0.27218 0.86404 0.0
H1253 H 0.98847 0.25434 0.91096 0.0
H1254 H 0.96576 0.2661 0.03502 0.0
H1255 H 0.96509 0.24569 0.99496 0.0
H1256 H 0.90268 0.22934 0.93767 0.0
C1257 C 0.95716 0.25937 0.85641 0.0
C1258 C 0.96964 0.24848 0.91682 0.0
C1259 C 0.96637 0.26266 0.83166 0.0
C1260 C 0.95306 0.26461 0.01988 0.0
C1261 C 0.95275 0.25311 -0.00313 0.0
C1262 C 0.9215 0.23485 0.93219 0.0
C1263 C 0.95606 0.24046 0.87166 0.0
C1264 C 0.95024 0.23968 0.89878 0.0
C1265 C 0.93766 0.25236 0.97627 0.0
C1266 C 0.94124 0.24524 0.9502 0.0
H1267 H 0.97809 0.21479 0.82972 0.0
H1268 H 0.96288 0.20981 0.87347 0.0
H1269 H 0.91089 0.22551 0.89273 0.0
H1270 H 0.90898 0.27997 0.00532 0.0
H1271 H 0.90955 0.2615 0.96468 0.0
C1272 C 0.76114 0.63002 0.99189 0.0
C1273 C 0.76215 0.64666 0.01058 0.0
C1274 C 0.77052 0.63843 0.96764 0.0
C1275 C 0.78443 0.69118 0.9257 0.0
H1276 H 0.80057 0.65353 0.8783 0.0
C1277 C 0.79981 0.71299 0.81898 0.0
C1278 C 0.77787 0.69549 0.80617 0.0
C1279 C 0.80525 0.7082 0.84344 0.0
C1280 C 0.79646 0.66436 0.89151 0.0
H1281 H 0.77547 0.6852 0.01969 0.0
H1282 H 0.79343 0.7003 0.97782 0.0
H1283 H 0.79865 0.64503 0.92406 0.0
H1284 H 0.7455 0.65859 0.80787 0.0
H1285 H 0.75546 0.65003 0.85066 0.0
H1286 H 0.7825 0.71057 0.89299 0.0
C1287 C 0.78426 0.68058 0.98128 0.0
C1288 C 0.79508 0.6594 0.91763 0.0
C1289 C 0.77414 0.67203 0.00531 0.0
C1290 C 0.76245 0.67241 0.81741 0.0
C1291 C 0.76821 0.66744 0.84169 0.0
C1292 C 0.78649 0.69655 0.89977 0.0
C1293 C 0.78174 0.66378 0.9618 0.0
C1294 C 0.78807 0.67209 0.93495 0.0
C1295 C 0.78919 0.68563 0.85509 0.0
C1296 C 0.79171 0.68265 0.8825 0.0
H1297 H 0.7519 0.61032 0.99558 0.0
H1298 H 0.76775 0.62478 0.9532 0.0
H1299 H 0.77852 0.7011 0.93812 0.0
H1300 H 0.81204 0.73097 0.81078 0.0
H1301 H 0.82136 0.7225 0.85371 0.0
C1302 C 0.37068 0.10448 -0.00168 0.0
C1303 C 0.35867 0.0813 0.01031 0.0
C1304 C 0.36257 0.10743 0.97434 0.0
C1305 C 0.31132 0.07669 0.92639 0.0
H1306 H 0.36491 0.10275 0.87744 0.0
C1307 C 0.32492 0.04972 0.82102 0.0
C1308 C 0.30323 0.04639 0.80878 0.0
C1309 C 0.33278 0.0625 0.84424 0.0
C1310 C 0.34976 0.0957 0.8909 0.0
H1311 H 0.3279 0.04345 0.00739 0.0
H1312 H 0.31397 0.04847 0.9655 0.0
H1313 H 0.37473 0.10872 0.92299 0.0
H1314 H 0.27373 0.05537 0.8105 0.0
H1315 H 0.28755 0.07766 0.85115 0.0
H1316 H 0.2864 0.06196 0.89437 0.0
C1317 C 0.32947 0.06447 0.97466 0.0
C1318 C 0.35536 0.09932 0.91697 0.0
C1319 C 0.33761 0.0615 -0.00144 0.0
C1320 C 0.29039 0.05737 0.81954 0.0
C1321 C 0.29826 0.07014 0.84283 0.0
C1322 C 0.30573 0.07304 0.90032 0.0
C1323 C 0.34225 0.08727 0.96202 0.0
C1324 C 0.3362 0.08882 0.93496 0.0
C1325 C 0.31914 0.07224 0.85572 0.0
C1326 C 0.32494 0.0815 0.88239 0.0
H1327 H 0.38691 0.12015 0.00698 0.0
H1328 H 0.37264 0.12524 0.9651 0.0
H1329 H 0.2962 0.06874 0.93987 0.0
H1330 H 0.33535 0.04165 0.81321 0.0
H1331 H 0.34877 0.06351 0.85387 0.0
C1332 C 0.24454 0.92626 0.67774 0.0
C1333 C 0.2676 0.93969 0.69059 0.0
C1334 C 0.24322 0.91672 0.65328 0.0
C1335 C 0.27934 0.90635 0.60363 0.0
H1336 H 0.24827 0.93193 0.55798 0.0
C1337 C 0.2989 0.95121 0.4993 0.0
C1338 C 0.30182 0.93381 0.48501 0.0
C1339 C 0.28846 0.94524 0.52352 0.0
C1340 C 0.2568 0.92446 0.57049 0.0
H1341 H 0.30694 0.95171 0.68896 0.0
H1342 H 0.30468 0.93533 0.64615 0.0
H1343 H 0.24161 0.9314 0.60378 0.0
H1344 H 0.29536 0.89622 0.48442 0.0
H1345 H 0.27726 0.88594 0.52684 0.0
H1346 H 0.29582 0.90092 0.57037 0.0
C1347 C 0.2876 0.93203 0.65499 0.0
C1348 C 0.25277 0.92387 0.59668 0.0
C1349 C 0.28894 0.9416 0.67945 0.0
C1350 C 0.29338 0.91006 0.49501 0.0
C1351 C 0.28309 0.90415 0.5193 0.0
C1352 C 0.2833 0.90686 0.5774 0.0
C1353 C 0.2649 0.9204 0.64129 0.0
C1354 C 0.26477 0.91569 0.61358 0.0
C1355 C 0.28088 0.92181 0.53391 0.0
C1356 C 0.27282 0.91682 0.56074 0.0
H1357 H 0.22769 0.92424 0.68595 0.0
H1358 H 0.22544 0.90753 0.64325 0.0
H1359 H 0.28861 0.89974 0.61624 0.0
H1360 H 0.30519 0.96963 0.49205 0.0
H1361 H 0.28729 0.95933 0.53455 0.0
C1362 C 0.06059 0.2787 0.66496 0.0
C1363 C 0.05001 0.2894 0.68043 0.0
C1364 C 0.06669 0.28605 0.63975 0.0
C1365 C 0.05719 0.2907 0.58385 0.0
H1366 H 0.08986 0.35902 0.56175 0.0
C1367 C 0.05046 0.3204 0.48155 0.0
C1368 C 0.07219 0.33992 0.47109 0.0
C1369 C 0.05042 0.31344 0.50683 0.0
C1370 C 0.08097 0.33987 0.5677 0.0
H1371 H 0.03876 0.31713 0.68186 0.0
H1372 H 0.0495 0.32996 0.6376 0.0
H1373 H 0.08586 0.34991 0.60741 0.0
H1374 H 0.1112 0.36675 0.47849 0.0
H1375 H 0.11099 0.35457 0.52267 0.0
H1376 H 0.05191 0.28063 0.54418 0.0
C1377 C 0.05304 0.31589 0.64517 0.0
C1378 C 0.07849 0.33469 0.59375 0.0
C1379 C 0.0468 0.30847 0.67045 0.0
C1380 C 0.09413 0.35164 0.48601 0.0
C1381 C 0.09402 0.34482 0.51133 0.0
C1382 C 0.05949 0.29587 0.55783 0.0
C1383 C 0.06248 0.30431 0.62947 0.0
C1384 C 0.06641 0.31005 0.60202 0.0
C1385 C 0.07205 0.326 0.52208 0.0
C1386 C 0.0712 0.32049 0.54954 0.0
H1387 H 0.06355 0.2641 0.67204 0.0
H1388 H 0.0743 0.27711 0.62813 0.0
H1389 H 0.04757 0.27152 0.58976 0.0
H1390 H 0.03328 0.31103 0.47049 0.0
H1391 H 0.03319 0.29896 0.51476 0.0
C1392 C 0.6704 0.70948 0.49496 0.0
C1393 C 0.64774 0.70516 0.48425 0.0
C1394 C 0.67721 0.71876 0.51977 0.0
C1395 C 0.69207 0.74795 0.56924 0.0
H1396 H 0.64272 0.71023 0.62036 0.0
C1397 C 0.7199 0.75865 0.67456 0.0
C1398 C 0.71305 0.73595 0.68638 0.0
C1399 C 0.70851 0.7592 0.65171 0.0
C1400 C 0.65661 0.72107 0.6063 0.0
H1401 H 0.61482 0.70799 0.49092 0.0
H1402 H 0.62674 0.72402 0.53457 0.0
H1403 H 0.63065 0.70444 0.57519 0.0
H1404 H 0.68761 0.6962 0.68442 0.0
H1405 H 0.66814 0.69714 0.64425 0.0
H1406 H 0.71839 0.76344 0.60001 0.0
C1407 C 0.63914 0.72019 0.52361 0.0
C1408 C 0.64967 0.71794 0.5805 0.0
C1409 C 0.63241 0.7111 0.49862 0.0
C1410 C 0.69345 0.71398 0.67573 0.0
C1411 C 0.68213 0.71454 0.6528 0.0
C1412 C 0.699 0.75111 0.59498 0.0
C1413 C 0.66145 0.72378 0.53449 0.0
C1414 C 0.66756 0.7307 0.56172 0.0
C1415 C 0.69011 0.73708 0.64016 0.0
C1416 C 0.68153 0.73707 0.6137 0.0
H1417 H 0.68267 0.70517 0.48442 0.0
H1418 H 0.69436 0.72102 0.52781 0.0
H1419 H 0.70615 0.75819 0.55512 0.0
H1420 H 0.73467 0.77598 0.68246 0.0
H1421 H 0.71474 0.77687 0.64261 0.0
C1422 C 0.39821 0.37749 0.84291 0.0
C1423 C 0.39927 0.3986 0.85382 0.0
C1424 C 0.4084 0.37877 0.81895 0.0
C1425 C 0.43654 0.38734 0.76952 0.0
H1426 H 0.41379 0.41862 0.72091 0.0
C1427 C 0.44365 0.37784 0.66093 0.0
C1428 C 0.42103 0.36982 0.64766 0.0
C1429 C 0.44677 0.38674 0.68599 0.0
C1430 C 0.42042 0.40997 0.73427 0.0
H1431 H 0.41394 0.43813 0.84922 0.0
H1432 H 0.43182 0.44027 0.80752 0.0
H1433 H 0.41036 0.42395 0.7665 0.0
H1434 H 0.38433 0.36585 0.64997 0.0
H1435 H 0.38978 0.38125 0.69368 0.0
H1436 H 0.44522 0.37218 0.73715 0.0
C1437 C 0.42266 0.42267 0.81728 0.0
C1438 C 0.41874 0.41324 0.76038 0.0
C1439 C 0.41243 0.42141 0.84119 0.0
C1440 C 0.40197 0.37181 0.65963 0.0
C1441 C 0.40515 0.38081 0.68462 0.0
C1442 C 0.43827 0.38411 0.74337 0.0
C1443 C 0.41993 0.40118 0.80551 0.0
C1444 C 0.42606 0.40133 0.77826 0.0
C1445 C 0.42741 0.38795 0.69818 0.0
C1446 C 0.42947 0.39475 0.72554 0.0
H1447 H 0.38836 0.35968 0.85218 0.0
H1448 H 0.40584 0.36184 0.81029 0.0
H1449 H 0.44253 0.37815 0.78289 0.0
H1450 H 0.45878 0.37665 0.65226 0.0
H1451 H 0.46418 0.39231 0.69597 0.0
C1452 C 0.63519 0.04398 0.65716 0.0
C1453 C 0.64734 0.03424 0.64278 0.0
C1454 C 0.62904 0.03716 0.6825 0.0
C1455 C 0.64999 0.01575 0.73674 0.0
H1456 H 0.59071 0.00857 0.7688 0.0
C1457 C 0.60033 0.98543 0.8401 0.0
C1458 C 0.62161 0.99851 0.85578 0.0
C1459 C 0.60153 0.99016 0.81398 0.0
C1460 C 0.60728 0.01041 0.76007 0.0
H1461 H 0.66138 0.00872 0.64319 0.0
H1462 H 0.65029 0.99652 0.68756 0.0
H1463 H 0.59483 0.01264 0.72244 0.0
H1464 H 0.66022 0.02811 0.85688 0.0
H1465 H 0.66212 0.03674 0.81138 0.0
H1466 H 0.66234 0.01319 0.77419 0.0
C1467 C 0.64592 0.00975 0.67926 0.0
C1468 C 0.6097 0.01287 0.7336 0.0
C1469 C 0.65213 0.01662 0.65385 0.0
C1470 C 0.64358 0.01757 0.84523 0.0
C1471 C 0.64474 0.02237 0.81915 0.0
C1472 C 0.64757 0.01328 0.76314 0.0
C1473 C 0.63485 0.02041 0.69398 0.0
C1474 C 0.63117 0.01574 0.72171 0.0
C1475 C 0.62398 0.00813 0.80315 0.0
C1476 C 0.62632 0.01084 0.77511 0.0
H1477 H 0.63122 0.05762 0.64919 0.0
H1478 H 0.62078 0.0459 0.69341 0.0
H1479 H 0.6669 0.01828 0.72819 0.0
H1480 H 0.58311 0.97061 0.84768 0.0
H1481 H 0.58526 0.97884 0.8021 0.0
C1482 C 0.02443 0.63815 0.83068 0.0
C1483 C 0.04612 0.64139 0.84285 0.0
C1484 C 0.01661 0.62561 0.80734 0.0
C1485 C 0.04239 0.61393 0.7507 0.0
H1486 H 0.97274 0.57791 0.73031 0.0
C1487 C 0.97357 0.58201 0.6554 0.0
C1488 C 0.98564 0.60506 0.64311 0.0
C1489 C 0.98265 0.57887 0.67872 0.0
C1490 C 0.99228 0.58735 0.73565 0.0
H1491 H 0.076 0.63301 0.84053 0.0
H1492 H 0.06224 0.61113 0.7996 0.0
H1493 H 0.98396 0.5849 0.77544 0.0
H1494 H 0.01771 0.64233 0.64479 0.0
H1495 H 0.03312 0.63702 0.68551 0.0
H1496 H 0.0507 0.61711 0.71085 0.0
C1497 C 0.05145 0.61846 0.80815 0.0
C1498 C 0.99869 0.5916 0.76152 0.0
C1499 C 0.05929 0.631 0.83158 0.0
C1500 C 0.00782 0.62438 0.6538 0.0
C1501 C 0.01685 0.62124 0.67708 0.0
C1502 C 0.03599 0.60957 0.72481 0.0
C1503 C 0.03026 0.61601 0.79561 0.0
C1504 C 0.02374 0.60605 0.7692 0.0
C1505 C 0.00396 0.5987 0.69016 0.0
C1506 C 0.01086 0.59738 0.71701 0.0
H1507 H 0.01377 0.64583 0.83881 0.0
H1508 H 1.00045 0.62445 0.79794 0.0
H1509 H 0.06188 0.62511 0.75602 0.0
H1510 H 0.95658 0.56663 0.64753 0.0
H1511 H 0.9725 0.56121 0.68825 0.0
C1512 C 0.60656 0.6123 0.33089 0.0
C1513 C 0.62669 0.62116 0.34826 0.0
C1514 C 0.60881 0.60535 0.30613 0.0
C1515 C 0.62787 0.61296 0.25169 0.0
H1516 H 0.66342 0.57833 0.2364 0.0
C1517 C 0.67743 0.62259 0.1566 0.0
C1518 C 0.67656 0.60138 0.14619 0.0
C1519 C 0.66724 0.62167 0.1805 0.0
C1520 C 0.65315 0.58772 0.24032 0.0
H1521 H 0.66447 0.62856 0.35381 0.0
H1522 H 0.66839 0.61647 0.31061 0.0
H1523 H 0.65236 0.58091 0.28042 0.0
H1524 H 0.66353 0.56234 0.1524 0.0
H1525 H 0.64576 0.56086 0.19396 0.0
H1526 H 0.62905 0.62013 0.21162 0.0
C1527 C 0.65086 0.61478 0.31613 0.0
C1528 C 0.64701 0.58937 0.26551 0.0
C1529 C 0.64867 0.62186 0.34081 0.0
C1530 C 0.66471 0.5791 0.15989 0.0
C1531 C 0.65457 0.57822 0.18375 0.0
C1532 C 0.63409 0.61139 0.22648 0.0
C1533 C 0.63115 0.60696 0.2984 0.0
C1534 C 0.63477 0.60243 0.27149 0.0
C1535 C 0.65602 0.59955 0.19443 0.0
C1536 C 0.6472 0.59917 0.22064 0.0
H1537 H 0.58937 0.61154 0.33609 0.0
H1538 H 0.59328 0.59917 0.29286 0.0
H1539 H 0.61861 0.62333 0.25579 0.0
H1540 H 0.6864 0.64004 0.14657 0.0
H1541 H 0.66888 0.63849 0.18842 0.0
C1542 C 0.43079 0.05137 0.1567 0.0
C1543 C 0.40927 0.03883 0.1412 0.0
C1544 C 0.43041 0.04471 0.18215 0.0
C1545 C 0.42648 0.02097 0.23396 0.0
H1546 H 0.36748 0.01059 0.26938 0.0
C1547 C 0.40029 0.9817 0.33547 0.0
C1548 C 0.38806 0.99041 0.35124 0.0
C1549 C 0.40658 0.99026 0.3106 0.0
C1550 C 0.38422 0.01379 0.25983 0.0
H1551 H 0.37115 0.00808 0.13966 0.0
H1552 H 0.37067 0.99634 0.18401 0.0
H1553 H 0.37062 0.01773 0.22361 0.0
H1554 H 0.37463 0.0164 0.35391 0.0
H1555 H 0.38583 0.03147 0.31041 0.0
H1556 H 0.44012 0.01724 0.27042 0.0
C1557 C 0.38761 0.01169 0.17658 0.0
C1558 C 0.38582 0.01742 0.23355 0.0
C1559 C 0.38796 0.01833 0.15114 0.0
C1560 C 0.38381 0.00912 0.34219 0.0
C1561 C 0.39009 0.01766 0.31725 0.0
C1562 C 0.42485 0.01727 0.26033 0.0
C1563 C 0.40854 0.02538 0.19253 0.0
C1564 C 0.40687 0.02088 0.22032 0.0
C1565 C 0.40079 0.00771 0.30099 0.0
C1566 C 0.40365 0.01357 0.27348 0.0
H1567 H 0.44759 0.06716 0.14964 0.0
H1568 H 0.4468 0.05561 0.19402 0.0
H1569 H 0.44292 0.02361 0.22421 0.0
H1570 H 0.40405 0.96743 0.34188 0.0
H1571 H 0.41469 0.98216 0.29847 0.0
C1572 C 0.05645 0.42803 0.33117 0.0
C1573 C 0.04381 0.40447 0.34241 0.0
C1574 C 0.04787 0.43244 0.30818 0.0
C1575 C 0.03743 0.42775 0.25106 0.0
H1576 H 0.96736 0.39295 0.23228 0.0
C1577 C 1.00138 0.38286 0.15405 0.0
C1578 C 0.97893 0.37973 0.144 0.0
C1579 C 0.01068 0.39491 0.17742 0.0
C1580 C 0.987 0.40337 0.2372 0.0
H1581 H 0.01166 0.3674 0.33883 0.0
H1582 H 0.99707 0.37495 0.29864 0.0
H1583 H 0.97958 0.39725 0.27712 0.0
H1584 H 0.94961 0.38845 0.14977 0.0
H1585 H 0.96599 0.40957 0.19071 0.0
H1586 H 0.04483 0.43316 0.21107 0.0
C1587 C 0.01337 0.39015 0.30775 0.0
C1588 C 0.99398 0.40555 0.26289 0.0
C1589 C 0.02191 0.38574 0.33069 0.0
C1590 C 0.96681 0.3903 0.1571 0.0
C1591 C 0.97616 0.40238 0.18055 0.0
C1592 C 0.03044 0.42568 0.22537 0.0
C1593 C 0.02648 0.41341 0.29602 0.0
C1594 C 0.01923 0.41662 0.26994 0.0
C1595 C 0.9978 0.40416 0.19128 0.0
C1596 C 0.00517 0.41233 0.21813 0.0
H1597 H 0.07329 0.44296 0.3398 0.0
H1598 H 0.05825 0.45058 0.29965 0.0
H1599 H 0.05705 0.43642 0.25587 0.0
H1600 H 0.01131 0.37512 0.14441 0.0
H1601 H 0.0272 0.39563 0.1853 0.0
C1602 C 0.28626 0.88928 0.36618 0.0
C1603 C 0.29229 0.91158 0.37881 0.0
C1604 C 0.2634 0.87564 0.35312 0.0
C1605 C 0.20042 0.86829 0.34925 0.0
H1606 H 0.19788 0.84286 0.2809 0.0
C1607 C 0.11567 0.83776 0.28244 0.0
C1608 C 0.10682 0.81494 0.26972 0.0
C1609 C 0.13865 0.84889 0.29533 0.0
C1610 C 0.19829 0.8497 0.30006 0.0
H1611 H 0.27884 0.9369 0.38756 0.0
H1612 H 0.23977 0.91353 0.36486 0.0
H1613 H 0.23707 0.86199 0.30526 0.0
H1614 H 0.11543 0.78626 0.2599 0.0
H1615 H 0.15541 0.80575 0.28224 0.0
H1616 H 0.16184 0.85642 0.34396 0.0
C1617 C 0.25232 0.90626 0.36529 0.0
C1618 C 0.22067 0.86052 0.31404 0.0
C1619 C 0.27495 0.91979 0.3782 0.0
C1620 C 0.1217 0.80387 0.26951 0.0
C1621 C 0.14469 0.81506 0.28222 0.0
C1622 C 0.17815 0.85763 0.33526 0.0
C1623 C 0.2462 0.88402 0.35263 0.0
C1624 C 0.22205 0.87026 0.33865 0.0
C1625 C 0.15324 0.83749 0.29557 0.0
C1626 C 0.17692 0.84851 0.31041 0.0
H1627 H 0.2992 0.88247 0.36624 0.0
H1628 H 0.25911 0.85849 0.34359 0.0
H1629 H 0.20074 0.87518 0.36836 0.0
H1630 H 0.10462 0.84671 0.28298 0.0
H1631 H 0.14495 0.86636 0.30524 0.0
C1632 C 0.19937 0.27204 0.282 0.0
C1633 C 0.22471 0.28843 0.27722 0.0
C1634 C 0.18505 0.28049 0.29445 0.0
C1635 C 0.19066 0.33222 0.33524 0.0
H1636 H 0.12591 0.31417 0.30675 0.0
C1637 C 0.1374 0.38224 0.36572 0.0
C1638 C 0.1116 0.36717 0.36922 0.0
C1639 C 0.15113 0.37243 0.35463 0.0
C1640 C 0.14385 0.31923 0.31515 0.0
H1641 H 0.25496 0.32636 0.28276 0.0
H1642 H 0.23025 0.3408 0.30412 0.0
H1643 H 0.1492 0.29592 0.28888 0.0
H1644 H 0.08008 0.32995 0.36324 0.0
H1645 H 0.10387 0.31312 0.34442 0.0
H1646 H 0.18539 0.35557 0.36146 0.0
C1647 C 0.22132 0.32147 0.29841 0.0
C1648 C 0.15716 0.30866 0.30494 0.0
C1649 C 0.23548 0.31315 0.2859 0.0
C1650 C 0.0999 0.34224 0.36095 0.0
C1651 C 0.11355 0.33253 0.34992 0.0
C1652 C 0.17735 0.34275 0.34548 0.0
C1653 C 0.19587 0.3054 0.30264 0.0
C1654 C 0.18083 0.31515 0.31473 0.0
C1655 C 0.13937 0.34739 0.3467 0.0
C1656 C 0.1538 0.3365 0.33551 0.0
H1657 H 0.19049 0.25291 0.27557 0.0
H1658 H 0.1655 0.26757 0.29761 0.0
H1659 H 0.2087 0.3374 0.34349 0.0
H1660 H 0.14703 0.40149 0.3718 0.0
H1661 H 0.17096 0.38451 0.35217 0.0
C1662 C 0.74537 0.9316 0.29246 0.0
C1663 C 0.72895 0.93748 0.27989 0.0
C1664 C 0.73615 0.90944 0.30618 0.0
C1665 C 0.67812 0.85999 0.33633 0.0
H1666 H 0.71085 0.82125 0.33235 0.0
C1667 C 0.63306 0.75954 0.37524 0.0
C1668 C 0.64894 0.75301 0.38792 0.0
C1669 C 0.64288 0.78218 0.36234 0.0
C1670 C 0.70159 0.83193 0.33391 0.0
H1671 H 0.68987 0.9245 0.27208 0.0
H1672 H 0.67408 0.88623 0.29544 0.0
H1673 H 0.72847 0.8607 0.31018 0.0
H1674 H 0.68768 0.76532 0.39682 0.0
H1675 H 0.70454 0.8045 0.37474 0.0
H1676 H 0.65119 0.83119 0.35995 0.0
C1677 C 0.69403 0.89873 0.29513 0.0
C1678 C 0.71176 0.85464 0.32121 0.0
C1679 C 0.70318 0.92072 0.28147 0.0
C1680 C 0.67479 0.76965 0.38733 0.0
C1681 C 0.68455 0.79214 0.37444 0.0
C1682 C 0.66794 0.83728 0.34899 0.0
C1683 C 0.7103 0.89271 0.30774 0.0
C1684 C 0.70012 0.86896 0.32213 0.0
C1685 C 0.66879 0.79876 0.3617 0.0
C1686 C 0.67949 0.82289 0.34794 0.0
H1687 H 0.7653 0.94409 0.29169 0.0
H1688 H 0.74926 0.90555 0.31584 0.0
H1689 H 0.66882 0.87064 0.33789 0.0
H1690 H 0.61309 0.74715 0.3752 0.0
H1691 H 0.63016 0.78652 0.35253 0.0
C1692 C 0.78111 0.08859 0.18959 0.0
C1693 C 0.79294 0.0779 0.20322 0.0
C1694 C 0.79481 0.11226 0.17927 0.0
C1695 C 0.85821 0.16083 0.16057 0.0
H1696 H 0.83068 0.20419 0.16716 0.0
C1697 C 0.91594 0.2642 0.1356 0.0
C1698 C 0.90424 0.27506 0.12203 0.0
C1699 C 0.90209 0.24065 0.1461 0.0
C1700 C 0.83852 0.19228 0.16487 0.0
H1701 H 0.82881 0.08372 0.21582 0.0
H1702 H 0.85287 0.12527 0.19774 0.0
H1703 H 0.80783 0.16214 0.18367 0.0
H1704 H 0.86849 0.26975 0.10979 0.0
H1705 H 0.84411 0.2283 0.12811 0.0
H1706 H 0.88887 0.1909 0.14173 0.0
C1707 C 0.83285 0.11513 0.19501 0.0
C1708 C 0.82542 0.1681 0.17436 0.0
C1709 C 0.81907 0.09128 0.20538 0.0
C1710 C 0.8781 0.26203 0.12019 0.0
C1711 C 0.86415 0.23824 0.13069 0.0
C1712 C 0.8713 0.18498 0.15106 0.0
C1713 C 0.82082 0.12612 0.18223 0.0
C1714 C 0.83506 0.15201 0.17233 0.0
C1715 C 0.87605 0.22703 0.14333 0.0
C1716 C 0.8617 0.2011 0.15314 0.0
H1717 H 0.76104 0.07882 0.1872 0.0
H1718 H 0.78491 0.11976 0.16903 0.0
H1719 H 0.86606 0.14891 0.15828 0.0
H1720 H 0.93601 0.27376 0.13777 0.0
H1721 H 0.91191 0.23302 0.15627 0.0
C1722 C 0.79551 0.64325 0.09942 0.0
C1723 C 0.77475 0.62374 0.11122 0.0
C1724 C 0.81818 0.65627 0.11247 0.0
C1725 C 0.84115 0.67437 0.1777 0.0
H1726 H 0.90614 0.70141 0.14695 0.0
C1727 C 0.93343 0.72543 0.23428 0.0
C1728 C 0.9545 0.74448 0.22239 0.0
C1729 C 0.9108 0.71261 0.22112 0.0
C1730 C 0.8881 0.69437 0.15564 0.0
H1731 H 0.76151 0.60144 0.1452 0.0
H1732 H 0.80152 0.62426 0.16831 0.0
H1733 H 0.86906 0.67168 0.12296 0.0
H1734 H 0.9682 0.76633 0.18815 0.0
H1735 H 0.92827 0.74397 0.16493 0.0
H1736 H 0.86015 0.69711 0.21035 0.0
C1737 C 0.80014 0.62952 0.14894 0.0
C1738 C 0.86689 0.67714 0.142 0.0
C1739 C 0.77741 0.61626 0.13567 0.0
C1740 C 0.95213 0.75185 0.19776 0.0
C1741 C 0.92941 0.73881 0.18442 0.0
C1742 C 0.86234 0.69163 0.19133 0.0
C1743 C 0.82048 0.65019 0.13774 0.0
C1744 C 0.8432 0.66694 0.15289 0.0
C1745 C 0.90879 0.71847 0.19568 0.0
C1746 C 0.88606 0.7018 0.18047 0.0
H1747 H 0.79376 0.64941 0.08058 0.0
H1748 H 0.83339 0.67215 0.10336 0.0
H1749 H 0.82309 0.66729 0.18639 0.0
H1750 H 0.93487 0.71941 0.25329 0.0
H1751 H 0.89538 0.697 0.23033 0.0
C1752 C 0.32417 0.23007 0.2031 0.0
C1753 C 0.29884 0.21766 0.2097 0.0
C1754 C 0.3348 0.21731 0.19185 0.0
C1755 C 0.32588 0.15447 0.18318 0.0
H1756 H 0.37393 0.18548 0.12914 0.0
C1757 C 0.3583 0.09989 0.12139 0.0
C1758 C 0.38344 0.11119 0.11416 0.0
C1759 C 0.34916 0.11336 0.13391 0.0
C1760 C 0.36084 0.1767 0.14446 0.0
H1761 H 0.2648 0.18197 0.20939 0.0
H1762 H 0.28335 0.1596 0.18946 0.0
H1763 H 0.35485 0.20743 0.14841 0.0
H1764 H 0.41871 0.14577 0.11485 0.0
H1765 H 0.4026 0.16948 0.13691 0.0
H1766 H 0.33172 0.12367 0.1791 0.0
C1767 C 0.29505 0.17925 0.19334 0.0
C1768 C 0.34981 0.18926 0.1555 0.0
C1769 C 0.28436 0.19208 0.20462 0.0
C1770 C 0.39927 0.13646 0.12008 0.0
C1771 C 0.39 0.15006 0.1326 0.0
C1772 C 0.33688 0.14191 0.17214 0.0
C1773 C 0.32044 0.19173 0.1868 0.0
C1774 C 0.33209 0.17827 0.17494 0.0
C1775 C 0.36478 0.13862 0.13966 0.0
C1776 C 0.35437 0.15277 0.1525 0.0
H1777 H 0.33598 0.24977 0.20668 0.0
H1778 H 0.35444 0.2275 0.18747 0.0
H1779 H 0.31271 0.14561 0.19842 0.0
H1780 H 0.34542 0.08049 0.11728 0.0
H1781 H 0.32959 0.104 0.13863 0.0
C1782 C 0.79574 0.13348 0.59366 0.0
C1783 C 0.7774 0.13928 0.60034 0.0
C1784 C 0.81755 0.14249 0.60815 0.0
C1785 C 0.857 0.18993 0.65622 0.0
H1786 H 0.88171 0.14497 0.66948 0.0
C1787 C 0.93644 0.21604 0.72738 0.0
C1788 C 0.95638 0.21344 0.71887 0.0
C1789 C 0.9138 0.20473 0.71417 0.0
C1790 C 0.87512 0.15775 0.66577 0.0
H1791 H 0.76778 0.15957 0.62714 0.0
H1792 H 0.806 0.17528 0.65278 0.0
H1793 H 0.84397 0.13093 0.64359 0.0
H1794 H 0.96775 0.1955 0.69096 0.0
H1795 H 0.9278 0.17553 0.66756 0.0
H1796 H 0.88804 0.2167 0.67847 0.0
C1797 C 0.80356 0.16393 0.63609 0.0
C1798 C 0.85355 0.14978 0.65091 0.0
C1799 C 0.78168 0.15497 0.62142 0.0
C1800 C 0.95265 0.19775 0.69793 0.0
C1801 C 0.92984 0.18641 0.68455 0.0
C1802 C 0.87846 0.19785 0.67114 0.0
C1803 C 0.82155 0.15743 0.62982 0.0
C1804 C 0.84427 0.16581 0.64592 0.0
C1805 C 0.91054 0.19059 0.69205 0.0
C1806 C 0.88772 0.18184 0.67613 0.0
H1807 H 0.79309 0.12156 0.57739 0.0
H1808 H 0.83125 0.13762 0.60241 0.0
H1809 H 0.85063 0.20288 0.6524 0.0
H1810 H 0.93866 0.22772 0.74375 0.0
H1811 H 0.89906 0.20773 0.72082 0.0
C1812 C 0.88492 0.6214 0.62065 0.0
C1813 C 0.91107 0.6355 0.62179 0.0
C1814 C 0.87052 0.6309 0.63076 0.0
C1815 C 0.87523 0.69098 0.64775 0.0
H1816 H 0.81421 0.65028 0.68439 0.0
C1817 C 0.82185 0.7315 0.70191 0.0
C1818 C 0.79573 0.71709 0.70189 0.0
C1819 C 0.83608 0.72215 0.69103 0.0
C1820 C 0.83105 0.66188 0.6739 0.0
H1821 H 0.94244 0.6701 0.63581 0.0
H1822 H 0.91751 0.68624 0.65353 0.0
H1823 H 0.83803 0.6319 0.66839 0.0
H1824 H 0.7641 0.68227 0.68888 0.0
H1825 H 0.78868 0.6664 0.66958 0.0
H1826 H 0.86825 0.72096 0.65325 0.0
C1827 C 0.90805 0.66819 0.64427 0.0
C1828 C 0.84472 0.65129 0.66474 0.0
C1829 C 0.92237 0.65878 0.63423 0.0
C1830 C 0.7842 0.69377 0.68958 0.0
C1831 C 0.79832 0.68453 0.67866 0.0
C1832 C 0.86154 0.70156 0.65688 0.0
C1833 C 0.88197 0.65466 0.64223 0.0
C1834 C 0.86704 0.66571 0.65161 0.0
C1835 C 0.82445 0.69825 0.67981 0.0
C1836 C 0.83924 0.68716 0.67007 0.0
H1837 H 0.8756 0.60347 0.61114 0.0
H1838 H 0.85044 0.61998 0.62881 0.0
H1839 H 0.89213 0.70257 0.63735 0.0
H1840 H 0.83131 0.74946 0.71137 0.0
H1841 H 0.85619 0.73323 0.69233 0.0
C1842 C 0.28538 0.08929 0.69936 0.0
C1843 C 0.30088 0.08115 0.70988 0.0
C1844 C 0.29567 0.11197 0.68642 0.0
C1845 C 0.35528 0.17194 0.67966 0.0
H1846 H 0.32351 0.17888 0.61878 0.0
C1847 C 0.40115 0.26173 0.61858 0.0
C1848 C 0.38517 0.26998 0.60966 0.0
C1849 C 0.39142 0.23834 0.62999 0.0
C1850 C 0.33256 0.17737 0.63589 0.0
H1851 H 0.33939 0.09034 0.71435 0.0
H1852 H 0.35702 0.12926 0.69179 0.0
H1853 H 0.30488 0.13911 0.6404 0.0
H1854 H 0.34624 0.25966 0.60577 0.0
H1855 H 0.32967 0.21961 0.62556 0.0
H1856 H 0.3829 0.21023 0.6752 0.0
C1857 C 0.337 0.11856 0.69392 0.0
C1858 C 0.3218 0.15451 0.64834 0.0
C1859 C 0.3268 0.09604 0.70679 0.0
C1860 C 0.35929 0.25412 0.61226 0.0
C1861 C 0.34965 0.23089 0.62352 0.0
C1862 C 0.36604 0.1948 0.6672 0.0
C1863 C 0.32167 0.12701 0.68371 0.0
C1864 C 0.33296 0.15146 0.67045 0.0
C1865 C 0.3655 0.22262 0.63262 0.0
C1866 C 0.35478 0.1979 0.6452 0.0
H1867 H 0.26537 0.07832 0.70139 0.0
H1868 H 0.28325 0.11794 0.67898 0.0
H1869 H 0.36427 0.17048 0.69684 0.0
H1870 H 0.42114 0.27337 0.61695 0.0
H1871 H 0.40421 0.23251 0.6366 0.0
C1872 C 0.20406 0.92956 0.78721 0.0
C1873 C 0.23019 0.94122 0.78816 0.0
C1874 C 0.1893 0.90623 0.79843 0.0
C1875 C 0.1923 0.86201 0.84452 0.0
H1876 H 0.134 0.81258 0.80726 0.0
C1877 C 0.14004 0.75786 0.87247 0.0
C1878 C 0.11388 0.74594 0.87239 0.0
C1879 C 0.15428 0.78164 0.86206 0.0
C1880 C 0.15012 0.8262 0.81804 0.0
H1881 H 0.26113 0.93769 0.80265 0.0
H1882 H 0.23572 0.89753 0.82164 0.0
H1883 H 0.15769 0.85461 0.79083 0.0
H1884 H 0.08233 0.74963 0.86048 0.0
H1885 H 0.10695 0.79058 0.84256 0.0
H1886 H 0.18483 0.83351 0.8716 0.0
C1887 C 0.22644 0.90625 0.81251 0.0
C1888 C 0.16366 0.8504 0.80866 0.0
C1889 C 0.24109 0.92936 0.80135 0.0
C1890 C 0.10241 0.75815 0.86105 0.0
C1891 C 0.11656 0.78168 0.85055 0.0
C1892 C 0.17882 0.8378 0.85384 0.0
C1893 C 0.20033 0.89413 0.81098 0.0
C1894 C 0.18501 0.86866 0.82171 0.0
C1895 C 0.14269 0.79391 0.85109 0.0
C1896 C 0.15756 0.81954 0.84072 0.0
H1897 H 0.19502 0.93808 0.77722 0.0
H1898 H 0.16923 0.89762 0.79713 0.0
H1899 H 0.20838 0.8756 0.85537 0.0
H1900 H 0.14952 0.74907 0.88102 0.0
H1901 H 0.17439 0.79041 0.86257 0.0
C1902 C 0.11885 0.27618 0.77534 0.0
C1903 C 0.10868 0.2907 0.76743 0.0
C1904 C 0.14232 0.28728 0.78724 0.0
C1905 C 0.20029 0.34799 0.79727 0.0
H1906 H 0.20973 0.3144 0.85458 0.0
C1907 C 0.2888 0.39079 0.86383 0.0
C1908 C 0.29785 0.37467 0.86916 0.0
C1909 C 0.26607 0.38204 0.85066 0.0
C1910 C 0.20739 0.32396 0.83852 0.0
H1911 H 0.1152 0.32828 0.76579 0.0
H1912 H 0.15569 0.34739 0.78679 0.0
H1913 H 0.16941 0.29566 0.83287 0.0
H1914 H 0.29061 0.33703 0.86357 0.0
H1915 H 0.25152 0.32214 0.84099 0.0
H1916 H 0.23842 0.3764 0.80323 0.0
C1917 C 0.14587 0.32755 0.78342 0.0
C1918 C 0.18434 0.31315 0.82599 0.0
C1919 C 0.12253 0.31651 0.77147 0.0
C1920 C 0.28417 0.34999 0.86024 0.0
C1921 C 0.26162 0.34132 0.84732 0.0
C1922 C 0.22338 0.3589 0.80994 0.0
C1923 C 0.15602 0.31309 0.79157 0.0
C1924 C 0.18056 0.32487 0.80503 0.0
C1925 C 0.25206 0.35704 0.84281 0.0
C1926 C 0.22722 0.34679 0.83047 0.0
H1927 H 0.10865 0.25627 0.77245 0.0
H1928 H 0.14977 0.27564 0.79297 0.0
H1929 H 0.19806 0.35744 0.78104 0.0
H1930 H 0.2989 0.4099 0.87036 0.0
H1931 H 0.25908 0.39455 0.84733 0.0
C1932 C 0.74253 0.81297 0.78754 0.0
C1933 C 0.72661 0.78864 0.77863 0.0
C1934 C 0.73292 0.82585 0.80082 0.0
C1935 C 0.67695 0.81552 0.83676 0.0
H1936 H 0.70314 0.8855 0.82502 0.0
C1937 C 0.63066 0.86916 0.87782 0.0
C1938 C 0.64697 0.89278 0.88823 0.0
C1939 C 0.63999 0.85628 0.86407 0.0
C1940 C 0.69573 0.86599 0.82868 0.0
H1941 H 0.68803 0.75888 0.77664 0.0
H1942 H 0.67146 0.7813 0.79914 0.0
H1943 H 0.72076 0.8638 0.80236 0.0
H1944 H 0.6859 0.92144 0.89203 0.0
H1945 H 0.70191 0.89909 0.86836 0.0
H1946 H 0.65185 0.81772 0.863 0.0
C1947 C 0.69139 0.79039 0.7964 0.0
C1948 C 0.70591 0.85355 0.81573 0.0
C1949 C 0.70094 0.77757 0.78325 0.0
C1950 C 0.67271 0.90325 0.88439 0.0
C1951 C 0.68196 0.89051 0.87059 0.0
C1952 C 0.66671 0.82794 0.84963 0.0
C1953 C 0.70719 0.81468 0.80547 0.0
C1954 C 0.69668 0.82813 0.8196 0.0
C1955 C 0.66578 0.86685 0.86025 0.0
C1956 C 0.67602 0.85336 0.84583 0.0
H1957 H 0.76239 0.82202 0.78439 0.0
H1958 H 0.74572 0.84444 0.80775 0.0
H1959 H 0.6696 0.79604 0.84059 0.0
H1960 H 0.61075 0.86061 0.88036 0.0
H1961 H 0.62698 0.83816 0.85617 0.0
C1962 C 0.46087 0.43551 0.55116 0.0
C1963 C 0.46977 0.41879 0.55225 0.0
C1964 C 0.47391 0.45789 0.53815 0.0
C1965 C 0.52199 0.48997 0.48871 0.0
H1966 H 0.52457 0.54883 0.51678 0.0
C1967 C 0.58803 0.58775 0.44987 0.0
C1968 C 0.57963 0.60486 0.44803 0.0
C1969 C 0.5737 0.56489 0.46164 0.0
C1970 C 0.52375 0.53251 0.50847 0.0
H1971 H 0.49953 0.41267 0.54031 0.0
H1972 H 0.52265 0.45209 0.51785 0.0
H1973 H 0.50257 0.50977 0.53959 0.0
H1974 H 0.54913 0.61088 0.45712 0.0
H1975 H 0.52393 0.5707 0.4778 0.0
H1976 H 0.54343 0.51283 0.45773 0.0
C1977 C 0.50531 0.44765 0.52687 0.0
C1978 C 0.51114 0.51005 0.52159 0.0
C1979 C 0.49216 0.4251 0.5399 0.0
C1980 C 0.55621 0.59822 0.45814 0.0
C1981 C 0.54185 0.57525 0.47014 0.0
C1982 C 0.53466 0.51244 0.47564 0.0
C1983 C 0.49636 0.46439 0.52584 0.0
C1984 C 0.51011 0.48843 0.51193 0.0
C1985 C 0.55047 0.5583 0.47208 0.0
C1986 C 0.53581 0.53407 0.48538 0.0
H1987 H 0.44357 0.43126 0.56018 0.0
H1988 H 0.4661 0.46994 0.53741 0.0
H1989 H 0.52125 0.4737 0.48038 0.0
H1990 H 0.60593 0.59203 0.44235 0.0
H1991 H 0.58116 0.55256 0.46307 0.0
C1992 C 0.62074 0.07915 0.53503 0.0
C1993 C 0.62774 0.06244 0.54438 0.0
C1994 C 0.59777 0.07032 0.5224 0.0
C1995 C 0.55054 0.01531 0.48673 0.0
H1996 H 0.50684 0.0415 0.49958 0.0
C1997 C 0.44936 0.96748 0.44801 0.0
C1998 C 0.44084 0.98298 0.43876 0.0
C1999 C 0.47238 0.97761 0.46076 0.0
C2000 C 0.51897 0.03417 0.49557 0.0
H2001 H 0.61548 0.02332 0.54883 0.0
H2002 H 0.57584 0.00826 0.52722 0.0
H2003 H 0.54686 0.05931 0.52214 0.0
H2004 H 0.44989 0.02131 0.4354 0.0
H2005 H 0.48993 0.0388 0.45712 0.0
H2006 H 0.52281 0.99022 0.46017 0.0
C2007 C 0.58821 0.02811 0.52907 0.0
C2008 C 0.54188 0.0444 0.50848 0.0
C2009 C 0.61097 0.03683 0.5416 0.0
C2010 C 0.45584 0.00877 0.44231 0.0
C2011 C 0.47876 0.01885 0.45497 0.0
C2012 C 0.52771 0.00513 0.47381 0.0
C2013 C 0.58152 0.04469 0.51891 0.0
C2014 C 0.55778 0.03491 0.50436 0.0
C2015 C 0.48726 1.00342 0.46447 0.0
C2016 C 0.51159 0.01433 0.47818 0.0
H2017 H 0.63322 0.09897 0.53687 0.0
H2018 H 0.59305 0.08353 0.51473 0.0
H2019 H 0.56262 0.00789 0.48283 0.0
H2020 H 0.43816 0.94754 0.44569 0.0
H2021 H 0.47831 0.96521 0.4681 0.0
C2022 C 0.02582 0.44139 0.44202 0.0
C2023 C 0.05145 0.45038 0.43911 0.0
C2024 C 0.01743 0.45501 0.45558 0.0
C2025 C 0.03615 0.51821 0.47788 0.0
H2026 H 0.97937 0.48374 0.52234 0.0
C2027 C 0.00373 0.57054 0.5439 0.0
C2028 C 0.978 0.56086 0.5469 0.0
C2029 C 0.01268 0.55711 0.53087 0.0
C2030 C 0.99503 0.49363 0.50976 0.0
H2031 H 0.08838 0.48085 0.44834 0.0
H2032 H 0.07366 0.5048 0.4722 0.0
H2033 H 0.99567 0.46059 0.50018 0.0
H2034 H 0.94148 0.52939 0.53832 0.0
H2035 H 0.95713 0.50592 0.51526 0.0
H2036 H 0.03544 0.55122 0.48735 0.0
C2037 C 0.06008 0.48718 0.46373 0.0
C2038 C 0.00444 0.48036 0.49709 0.0
C2039 C 0.06853 0.47343 0.45017 0.0
C2040 C 0.9614 0.53736 0.53643 0.0
C2041 C 0.9704 0.52387 0.52334 0.0
C2042 C 0.02671 0.53148 0.49053 0.0
C2043 C 0.03439 0.47807 0.46665 0.0
C2044 C 0.02507 0.49245 0.48091 0.0
C2045 C 0.99619 0.5336 0.52039 0.0
C2046 C 0.006 0.51936 0.50662 0.0
H2047 H 0.01205 0.4237 0.43383 0.0
H2048 H 0.99756 0.44757 0.45706 0.0
H2049 H 0.0518 0.52806 0.46528 0.0
H2050 H 0.01713 0.58858 0.5517 0.0
H2051 H 0.03263 0.56507 0.52937 0.0
C2052 C 0.45198 0.43607 0.95408 0.0
C2053 C 0.43764 0.44725 0.94898 0.0
C2054 C 0.47428 0.44874 0.96784 0.0
C2055 C 0.52383 0.51132 0.98661 0.0
H2056 H 0.54073 0.47559 0.03573 0.0
C2057 C 0.61036 0.56021 0.0524 0.0
C2058 C 0.62475 0.54878 0.05557 0.0
C2059 C 0.58727 0.54781 0.03997 0.0
C2060 C 0.53638 0.48574 0.02189 0.0
H2061 H 0.43544 0.48051 0.95449 0.0
H2062 H 0.4746 0.50275 0.97888 0.0
H2063 H 0.50047 0.45441 0.01368 0.0
H2064 H 0.62612 0.51531 0.04821 0.0
H2065 H 0.58556 0.49353 0.02635 0.0
H2066 H 0.55978 0.54265 0.99487 0.0
C2067 C 0.46857 0.48419 0.97191 0.0
C2068 C 0.51331 0.47364 0.00928 0.0
C2069 C 0.44612 0.47144 0.95806 0.0
C2070 C 0.61543 0.52456 0.04614 0.0
C2071 C 0.59219 0.51208 0.03373 0.0
C2072 C 0.54689 0.52344 -0.00072 0.0
C2073 C 0.48286 0.47292 0.97697 0.0
C2074 C 0.50684 0.48623 0.99135 0.0
C2075 C 0.57794 0.52366 0.03041 0.0
C2076 C 0.55346 0.51074 0.01697 0.0
H2077 H 0.44606 0.41745 0.94739 0.0
H2078 H 0.48501 0.43967 0.97099 0.0
H2079 H 0.51958 0.52143 0.97265 0.0
H2080 H 0.61695 0.57888 0.05939 0.0
H2081 H 0.57662 0.55711 0.03803 0.0
C2082 C 0.59145 0.99555 0.96597 0.0
C2083 C 0.58111 0.97048 0.95868 0.0
C2084 C 0.57694 0.00407 0.97745 0.0
C2085 C 0.51167 0.98899 0.98547 0.0
H2086 H 0.5406 0.03936 0.03883 0.0
C2087 C 0.45332 0.02035 0.04323 0.0
C2088 C 0.46389 0.04572 0.04918 0.0
C2089 C 0.46752 0.01126 0.03211 0.0
C2090 C 0.53233 0.02553 0.02374 0.0
H2091 H 0.54713 0.93468 0.95821 0.0
H2092 H 0.52174 0.94957 0.97861 0.0
H2093 H 0.56495 0.02243 0.02071 0.0
H2094 H 0.49778 0.08147 0.04778 0.0
H2095 H 0.52271 0.06554 0.02824 0.0
H2096 H 0.47899 0.99205 0.98863 0.0
C2097 C 0.54115 0.96268 0.97506 0.0
C2098 C 0.54628 0.01575 0.01334 0.0
C2099 C 0.55575 0.95409 0.9635 0.0
C2100 C 0.48908 0.06184 0.04351 0.0
C2101 C 0.50338 0.05266 0.03245 0.0
C2102 C 0.49768 0.99873 0.99593 0.0
C2103 C 0.55158 0.98783 0.98214 0.0
C2104 C 0.53621 0.99742 0.99397 0.0
C2105 C 0.49276 0.02722 0.02662 0.0
C2106 C 0.50784 0.01718 0.01517 0.0
H2107 H 0.61087 0.00885 0.96261 0.0
H2108 H 0.58559 0.0236 0.98218 0.0
H2109 H 0.50341 0.97523 0.97033 0.0
H2110 H 0.43396 0.00734 0.04723 0.0
H2111 H 0.45876 0.99155 0.02821 0.0
C2112 C 0.02351 0.58488 0.94257 0.0
C2113 C 0.04929 0.60135 0.94043 0.0
C2114 C 0.01441 0.56278 0.95602 0.0
C2115 C 0.03174 0.51774 0.97959 0.0
H2116 H 0.97355 0.49562 0.02193 0.0
C2117 C 0.9973 0.43313 0.04557 0.0
C2118 C 0.9715 0.41706 0.04816 0.0
C2119 C 0.00657 0.45546 0.03251 0.0
C2120 C 0.9896 0.50131 0.00993 0.0
H2121 H 0.08572 0.60737 0.95099 0.0
H2122 H 0.06977 0.56857 0.97462 0.0
H2123 H 0.99071 0.53503 -0.00021 0.0
H2124 H 0.9352 0.41202 0.03881 0.0
H2125 H 0.95141 0.45107 0.01568 0.0
H2126 H 0.03057 0.48398 0.98958 0.0
C2127 C 0.05661 0.5728 0.96563 0.0
C2128 C 0.99952 0.524 -0.00274 0.0
C2129 C 0.06577 0.5951 0.95219 0.0
C2130 C 0.95516 0.42397 0.03726 0.0
C2131 C 0.96449 0.44644 0.02411 0.0
C2132 C 0.02179 0.49502 0.99221 0.0
C2133 C 0.03077 0.55637 0.96775 0.0
C2134 C 0.02071 0.53252 0.98188 0.0
C2135 C 0.99036 0.46248 0.02152 0.0
C2136 C 1.00059 0.48648 0.0076 0.0
H2137 H 0.01017 0.58902 0.93384 0.0
H2138 H 0.99445 0.5505 0.95688 0.0
H2139 H 0.0478 0.52347 0.9676 0.0
H2140 H 0.01053 0.42853 0.05371 0.0
H2141 H 0.02656 0.46742 0.03136 0.0
loop_
_geom_bond_atom_site_label_1
_geom_bond_atom_site_label_2
_geom_bond_distance
_geom_bond_site_symmetry_2
_ccdc_geom_bond_type
Co0 O2 2.143 . S
Co0 O8 2.074 . S
Co0 O11 2.093 1_455 S
Co0 O24 2.097 1_455 S
Co0 N41 2.151 . S
Co0 N49 2.214 1_455 S
Co1 O2 2.160 . S
Co1 O7 2.058 . S
Co1 O17 2.057 . S
Co1 O32 2.037 1_455 S
Co1 N36 2.145 . S
Co1 N57 2.257 . S
O2 Co0 2.143 . S
O2 Co1 2.160 . S
C3 O4 1.278 1_655 S
C3 O11 1.224 . S
O4 C3 1.278 1_455 S
C5 O6 1.245 . S
C5 O17 1.232 . S
O6 C5 1.245 . S
O7 Co1 2.058 . S
O7 C33 1.269 . S
O8 Co0 2.074 . S
O8 C33 1.257 . S
H9 C34 0.930 . S
H10 C40 0.930 . S
O11 Co0 2.093 1_655 S
O11 C3 1.224 . S
H12 C44 0.929 . S
H13 C46 0.930 . S
H14 C47 0.930 . S
H15 C45 0.929 . S
H16 C48 0.928 . S
O17 Co1 2.057 . S
O17 C5 1.232 . S
H18 C37 0.929 . S
H19 C38 0.929 . S
H20 C50 0.931 . S
H21 C42 0.929 . S
H22 C51 0.930 . S
H23 C43 0.931 . S
O24 Co0 2.097 1_655 S
O24 C52 1.214 . S
H25 C53 0.929 . S
H26 C54 0.929 . S
H27 C55 0.930 . S
H28 C56 0.929 . S
H29 C58 0.930 . S
H30 C35 0.930 . S
H31 C39 0.930 . S
O32 Co1 2.037 1_655 S
O32 C52 1.234 . S
C33 O7 1.269 . S
C33 O8 1.257 . S
C34 H9 0.930 . S
C34 C37 1.388 . S
C34 C39 1.418 . S
C35 H30 0.930 . S
C35 C38 1.404 . S
C35 C39 1.353 . S
N36 Co1 2.145 . S
N36 C37 1.397 . S
N36 C38 1.334 . S
C37 H18 0.929 . S
C37 C34 1.388 . S
C37 N36 1.397 . S
C38 H19 0.929 . S
C38 C35 1.404 . S
C38 N36 1.334 . S
C39 H31 0.930 . S
C39 C34 1.418 . S
C39 C35 1.353 . S
C40 H10 0.930 . S
C40 N41 1.330 . S
C40 C42 1.446 . S
N41 Co0 2.151 . S
N41 C40 1.330 . S
N41 C45 1.418 . S
C42 H21 0.929 . S
C42 C40 1.446 . S
C42 C43 1.332 . S
C43 H23 0.931 . S
C43 C42 1.332 . S
C43 C44 1.267 . S
C44 H12 0.929 . S
C44 C43 1.267 . S
C44 C45 1.251 . S
C45 H15 0.929 . S
C45 N41 1.418 . S
C45 C44 1.251 . S
C46 H13 0.930 . S
C46 C48 1.406 . S
C46 C51 1.261 . S
C47 H14 0.930 . S
C47 N49 1.325 . S
C47 C50 1.357 . S
C48 H16 0.928 . S
C48 C46 1.406 . S
C48 N49 1.261 . S
N49 Co0 2.214 1_655 S
N49 C47 1.325 . S
N49 C48 1.261 . S
C50 H20 0.931 . S
C50 C47 1.357 . S
C50 C51 1.312 . S
C51 H22 0.930 . S
C51 C46 1.261 . S
C51 C50 1.312 . S
C52 O24 1.214 . S
C52 O32 1.234 . S
C53 H25 0.929 . S
C53 C56 1.391 1_455 S
C53 C58 1.391 . S
C54 H26 0.929 . S
C54 C55 1.390 . S
C54 N57 1.391 1_655 S
C55 H27 0.930 . S
C55 C54 1.390 . S
C55 C56 1.392 . S
C56 H28 0.929 . S
C56 C53 1.391 1_655 S
C56 C55 1.392 . S
N57 Co1 2.257 . S
N57 C54 1.391 1_455 S
N57 C58 1.388 . S
C58 H29 0.930 . S
C58 C53 1.391 . S
C58 N57 1.388 . S
Co59 O61 2.143 . S
Co59 O67 2.074 . S
Co59 O70 2.093 . S
Co59 O83 2.097 . S
Co59 N100 2.151 . S
Co59 N108 2.214 . S
Co60 O61 2.160 . S
Co60 O66 2.058 . S
Co60 O76 2.057 . S
Co60 O91 2.037 . S
Co60 N95 2.145 . S
Co60 N116 2.257 . S
O61 Co59 2.143 . S
O61 Co60 2.160 . S
C62 O63 1.278 . S
C62 O70 1.224 . S
O63 C62 1.278 . S
C64 O65 1.245 . S
C64 O76 1.232 . S
O65 C64 1.245 . S
O66 Co60 2.058 . S
O66 C92 1.269 . S
O67 Co59 2.074 . S
O67 C92 1.257 . S
H68 C93 0.930 . S
H69 C99 0.930 . S
O70 Co59 2.093 . S
O70 C62 1.224 . S
H71 C103 0.929 . S
H72 C105 0.930 . S
H73 C106 0.930 . S
H74 C104 0.929 . S
H75 C107 0.928 . S
O76 Co60 2.057 . S
O76 C64 1.232 . S
H77 C96 0.929 . S
H78 C97 0.929 . S
H79 C109 0.931 . S
H80 C101 0.929 . S
H81 C110 0.930 . S
H82 C102 0.931 . S
O83 Co59 2.097 . S
O83 C111 1.214 . S
H84 C112 0.929 . S
H85 C113 0.929 . S
H86 C114 0.930 . S
H87 C115 0.929 . S
H88 C117 0.930 . S
H89 C94 0.930 . S
H90 C98 0.930 . S
O91 Co60 2.037 . S
O91 C111 1.234 . S
C92 O66 1.269 . S
C92 O67 1.257 . S
C93 H68 0.930 . S
C93 C96 1.388 . S
C93 C98 1.418 . S
C94 H89 0.930 . S
C94 C97 1.404 . S
C94 C98 1.353 . S
N95 Co60 2.145 . S
N95 C96 1.397 . S
N95 C97 1.334 . S
C96 H77 0.929 . S
C96 C93 1.388 . S
C96 N95 1.397 . S
C97 H78 0.929 . S
C97 C94 1.404 . S
C97 N95 1.334 . S
C98 H90 0.930 . S
C98 C93 1.418 . S
C98 C94 1.353 . S
C99 H69 0.930 . S
C99 N100 1.330 . S
C99 C101 1.446 . S
N100 Co59 2.151 . S
N100 C99 1.330 . S
N100 C104 1.418 . S
C101 H80 0.929 . S
C101 C99 1.446 . S
C101 C102 1.332 . S
C102 H82 0.931 . S
C102 C101 1.332 . S
C102 C103 1.267 . S
C103 H71 0.929 . S
C103 C102 1.267 . S
C103 C104 1.251 . S
C104 H74 0.929 . S
C104 N100 1.418 . S
C104 C103 1.251 . S
C105 H72 0.930 . S
C105 C107 1.406 . S
C105 C110 1.261 . S
C106 H73 0.930 . S
C106 N108 1.325 . S
C106 C109 1.357 . S
C107 H75 0.928 . S
C107 C105 1.406 . S
C107 N108 1.261 . S
N108 Co59 2.214 . S
N108 C106 1.325 . S
N108 C107 1.261 . S
C109 H79 0.931 . S
C109 C106 1.357 . S
C109 C110 1.312 . S
C110 H81 0.930 . S
C110 C105 1.261 . S
C110 C109 1.312 . S
C111 O83 1.214 . S
C111 O91 1.234 . S
C112 H84 0.929 . S
C112 C115 1.391 . S
C112 C117 1.391 . S
C113 H85 0.929 . S
C113 C114 1.390 . S
C113 N116 1.391 . S
C114 H86 0.930 . S
C114 C113 1.390 . S
C114 C115 1.392 . S
C115 H87 0.929 . S
C115 C112 1.391 . S
C115 C114 1.392 . S
N116 Co60 2.257 . S
N116 C113 1.391 . S
N116 C117 1.388 . S
C117 H88 0.930 . S
C117 C112 1.391 . S
C117 N116 1.388 . S
Co118 O120 2.143 . S
Co118 O126 2.074 . S
Co118 O129 2.093 . S
Co118 O142 2.097 . S
Co118 N159 2.151 . S
Co118 N167 2.214 . S
Co119 O120 2.160 . S
Co119 O125 2.058 1_545 S
Co119 O135 2.057 1_545 S
Co119 O150 2.037 . S
Co119 N154 2.145 . S
Co119 N175 2.257 . S
O120 Co118 2.143 . S
O120 Co119 2.160 . S
C121 O122 1.278 . S
C121 O129 1.224 . S
O122 C121 1.278 . S
C123 O124 1.245 . S
C123 O135 1.232 . S
O124 C123 1.245 . S
O125 Co119 2.058 1_565 S
O125 C151 1.269 1_565 S
O126 Co118 2.074 . S
O126 C151 1.257 . S
H127 C152 0.930 . S
H128 C158 0.930 . S
O129 Co118 2.093 . S
O129 C121 1.224 . S
H130 C162 0.929 . S
H131 C164 0.930 . S
H132 C165 0.930 . S
H133 C163 0.929 . S
H134 C166 0.928 . S
O135 Co119 2.057 1_565 S
O135 C123 1.232 . S
H136 C155 0.929 . S
H137 C156 0.929 . S
H138 C168 0.931 . S
H139 C160 0.929 . S
H140 C169 0.930 . S
H141 C161 0.931 . S
O142 Co118 2.097 . S
O142 C170 1.214 . S
H143 C171 0.929 . S
H144 C172 0.929 . S
H145 C173 0.930 . S
H146 C174 0.929 . S
H147 C176 0.930 . S
H148 C153 0.930 . S
H149 C157 0.930 . S
O150 Co119 2.037 . S
O150 C170 1.234 . S
C151 O125 1.269 1_545 S
C151 O126 1.257 . S
C152 H127 0.930 . S
C152 C155 1.388 . S
C152 C157 1.418 1_545 S
C153 H148 0.930 . S
C153 C156 1.404 . S
C153 C157 1.353 . S
N154 Co119 2.145 . S
N154 C155 1.397 . S
N154 C156 1.334 1_545 S
C155 H136 0.929 . S
C155 C152 1.388 . S
C155 N154 1.397 . S
C156 H137 0.929 . S
C156 C153 1.404 . S
C156 N154 1.334 1_565 S
C157 H149 0.930 . S
C157 C152 1.418 1_565 S
C157 C153 1.353 . S
C158 H128 0.930 . S
C158 N159 1.330 . S
C158 C160 1.446 1_545 S
N159 Co118 2.151 . S
N159 C158 1.330 . S
N159 C163 1.418 . S
C160 H139 0.929 . S
C160 C158 1.446 1_565 S
C160 C161 1.332 . S
C161 H141 0.931 . S
C161 C160 1.332 . S
C161 C162 1.267 . S
C162 H130 0.929 . S
C162 C161 1.267 . S
C162 C163 1.251 1_565 S
C163 H133 0.929 . S
C163 N159 1.418 . S
C163 C162 1.251 1_545 S
C164 H131 0.930 . S
C164 C166 1.406 . S
C164 C169 1.261 . S
C165 H132 0.930 . S
C165 N167 1.325 . S
C165 C168 1.357 . S
C166 H134 0.928 . S
C166 C164 1.406 . S
C166 N167 1.261 . S
N167 Co118 2.214 . S
N167 C165 1.325 . S
N167 C166 1.261 . S
C168 H138 0.931 . S
C168 C165 1.357 . S
C168 C169 1.312 . S
C169 H140 0.930 . S
C169 C164 1.261 . S
C169 C168 1.312 . S
C170 O142 1.214 . S
C170 O150 1.234 . S
C171 H143 0.929 . S
C171 C174 1.391 . S
C171 C176 1.391 . S
C172 H144 0.929 . S
C172 C173 1.390 . S
C172 N175 1.391 . S
C173 H145 0.930 . S
C173 C172 1.390 . S
C173 C174 1.392 . S
C174 H146 0.929 . S
C174 C171 1.391 . S
C174 C173 1.392 . S
N175 Co119 2.257 . S
N175 C172 1.391 . S
N175 C176 1.388 . S
C176 H147 0.930 . S
C176 C171 1.391 . S
C176 N175 1.388 . S
Co177 O179 2.143 . S
Co177 O185 2.074 . S
Co177 O188 2.093 1_455 S
Co177 O201 2.097 1_455 S
Co177 N218 2.151 . S
Co177 N226 2.214 1_455 S
Co178 O179 2.160 . S
Co178 O184 2.058 . S
Co178 O194 2.057 . S
Co178 O209 2.037 1_455 S
Co178 N213 2.145 . S
Co178 N234 2.257 . S
O179 Co177 2.143 . S
O179 Co178 2.160 . S
C180 O181 1.278 1_655 S
C180 O188 1.224 . S
O181 C180 1.278 1_455 S
C182 O183 1.245 . S
C182 O194 1.232 . S
O183 C182 1.245 . S
O184 Co178 2.058 . S
O184 C210 1.269 . S
O185 Co177 2.074 . S
O185 C210 1.257 . S
H186 C211 0.930 . S
H187 C217 0.930 . S
O188 Co177 2.093 1_655 S
O188 C180 1.224 . S
H189 C221 0.929 . S
H190 C223 0.930 . S
H191 C224 0.930 . S
H192 C222 0.929 . S
H193 C225 0.928 . S
O194 Co178 2.057 . S
O194 C182 1.232 . S
H195 C214 0.929 . S
H196 C215 0.929 . S
H197 C227 0.931 . S
H198 C219 0.929 . S
H199 C228 0.930 . S
H200 C220 0.931 . S
O201 Co177 2.097 1_655 S
O201 C229 1.214 . S
H202 C230 0.929 . S
H203 C231 0.927 1_655 S
H204 C232 0.930 . S
H205 C233 0.929 . S
H206 C235 0.930 . S
H207 C212 0.930 . S
H208 C216 0.930 . S
O209 Co178 2.037 1_655 S
O209 C229 1.234 . S
C210 O184 1.269 . S
C210 O185 1.257 . S
C211 H186 0.930 . S
C211 C214 1.388 . S
C211 C216 1.418 . S
C212 H207 0.930 . S
C212 C215 1.404 . S
C212 C216 1.353 . S
N213 Co178 2.145 . S
N213 C214 1.397 . S
N213 C215 1.334 . S
C214 H195 0.929 . S
C214 C211 1.388 . S
C214 N213 1.397 . S
C215 H196 0.929 . S
C215 C212 1.404 . S
C215 N213 1.334 . S
C216 H208 0.930 . S
C216 C211 1.418 . S
C216 C212 1.353 . S
C217 H187 0.930 . S
C217 N218 1.330 . S
C217 C219 1.446 . S
N218 Co177 2.151 . S
N218 C217 1.330 . S
N218 C222 1.418 . S
C219 H198 0.929 . S
C219 C217 1.446 . S
C219 C220 1.332 . S
C220 H200 0.931 . S
C220 C219 1.332 . S
C220 C221 1.267 . S
C221 H189 0.929 . S
C221 C220 1.267 . S
C221 C222 1.251 . S
C222 H192 0.929 . S
C222 N218 1.418 . S
C222 C221 1.251 . S
C223 H190 0.930 . S
C223 C225 1.406 . S
C223 C228 1.261 . S
C224 H191 0.930 . S
C224 N226 1.325 . S
C224 C227 1.357 . S
C225 H193 0.928 . S
C225 C223 1.406 . S
C225 N226 1.261 . S
N226 Co177 2.214 1_655 S
N226 C224 1.325 . S
N226 C225 1.261 . S
C227 H197 0.931 . S
C227 C224 1.357 . S
C227 C228 1.312 . S
C228 H199 0.930 . S
C228 C223 1.261 . S
C228 C227 1.312 . S
C229 O201 1.214 . S
C229 O209 1.234 . S
C230 H202 0.929 . S
C230 C233 1.391 1_455 S
C230 C235 1.391 . S
C231 H203 0.927 1_455 S
C231 C232 1.389 1_455 S
C231 N234 1.393 . S
C232 H204 0.930 . S
C232 C231 1.389 1_655 S
C232 C233 1.392 . S
C233 H205 0.929 . S
C233 C230 1.391 1_655 S
C233 C232 1.392 . S
N234 Co178 2.257 . S
N234 C231 1.393 . S
N234 C235 1.388 . S
C235 H206 0.930 . S
C235 C230 1.391 . S
C235 N234 1.388 . S
Co236 O238 2.143 . S
Co236 O244 2.074 . S
Co236 O247 2.093 . S
Co236 O260 2.097 . S
Co236 N277 2.151 . S
Co236 N285 2.214 . S
Co237 O238 2.160 . S
Co237 O243 2.058 . S
Co237 O253 2.057 . S
Co237 O268 2.037 . S
Co237 N272 2.145 . S
Co237 N293 2.257 . S
O238 Co236 2.143 . S
O238 Co237 2.160 . S
C239 O240 1.278 . S
C239 O247 1.224 . S
O240 C239 1.278 . S
C241 O242 1.245 . S
C241 O253 1.232 . S
O242 C241 1.245 . S
O243 Co237 2.058 . S
O243 C269 1.269 . S
O244 Co236 2.074 . S
O244 C269 1.257 . S
H245 C270 0.930 . S
H246 C276 0.930 . S
O247 Co236 2.093 . S
O247 C239 1.224 . S
H248 C280 0.929 . S
H249 C282 0.930 . S
H250 C283 0.930 . S
H251 C281 0.929 . S
H252 C284 0.928 . S
O253 Co237 2.057 . S
O253 C241 1.232 . S
H254 C273 0.929 . S
H255 C274 0.929 . S
H256 C286 0.931 . S
H257 C278 0.929 . S
H258 C287 0.930 . S
H259 C279 0.931 . S
O260 Co236 2.097 . S
O260 C288 1.214 . S
H261 C289 0.929 . S
H262 C290 0.929 . S
H263 C291 0.930 . S
H264 C292 0.929 . S
H265 C294 0.930 . S
H266 C271 0.930 . S
H267 C275 0.930 . S
O268 Co237 2.037 . S
O268 C288 1.234 . S
C269 O243 1.269 . S
C269 O244 1.257 . S
C270 H245 0.930 . S
C270 C273 1.388 . S
C270 C275 1.418 . S
C271 H266 0.930 . S
C271 C274 1.404 . S
C271 C275 1.353 . S
N272 Co237 2.145 . S
N272 C273 1.397 . S
N272 C274 1.334 . S
C273 H254 0.929 . S
C273 C270 1.388 . S
C273 N272 1.397 . S
C274 H255 0.929 . S
C274 C271 1.404 . S
C274 N272 1.334 . S
C275 H267 0.930 . S
C275 C270 1.418 . S
C275 C271 1.353 . S
C276 H246 0.930 . S
C276 N277 1.330 . S
C276 C278 1.446 . S
N277 Co236 2.151 . S
N277 C276 1.330 . S
N277 C281 1.418 . S
C278 H257 0.929 . S
C278 C276 1.446 . S
C278 C279 1.332 . S
C279 H259 0.931 . S
C279 C278 1.332 . S
C279 C280 1.267 . S
C280 H248 0.929 . S
C280 C279 1.267 . S
C280 C281 1.251 . S
C281 H251 0.929 . S
C281 N277 1.418 . S
C281 C280 1.251 . S
C282 H249 0.930 . S
C282 C284 1.406 . S
C282 C287 1.261 . S
C283 H250 0.930 . S
C283 N285 1.325 . S
C283 C286 1.357 . S
C284 H252 0.928 . S
C284 C282 1.406 . S
C284 N285 1.261 . S
N285 Co236 2.214 . S
N285 C283 1.325 . S
N285 C284 1.261 . S
C286 H256 0.931 . S
C286 C283 1.357 . S
C286 C287 1.312 . S
C287 H258 0.930 . S
C287 C282 1.261 . S
C287 C286 1.312 . S
C288 O260 1.214 . S
C288 O268 1.234 . S
C289 H261 0.929 . S
C289 C292 1.391 . S
C289 C294 1.391 . S
C290 H262 0.929 . S
C290 C291 1.390 . S
C290 N293 1.391 . S
C291 H263 0.930 . S
C291 C290 1.390 . S
C291 C292 1.392 . S
C292 H264 0.929 . S
C292 C289 1.391 . S
C292 C291 1.392 . S
N293 Co237 2.257 . S
N293 C290 1.391 . S
N293 C294 1.388 . S
C294 H265 0.930 . S
C294 C289 1.391 . S
C294 N293 1.388 . S
Co295 O297 2.143 1_565 S
Co295 O303 2.074 . S
Co295 O306 2.093 . S
Co295 O319 2.097 . S
Co295 N336 2.151 1_565 S
Co295 N344 2.214 . S
Co296 O297 2.160 . S
Co296 O302 2.058 . S
Co296 O312 2.057 . S
Co296 O327 2.037 1_545 S
Co296 N331 2.145 . S
Co296 N352 2.256 . S
O297 Co295 2.143 1_545 S
O297 Co296 2.160 . S
C298 O299 1.278 . S
C298 O306 1.224 . S
O299 C298 1.278 . S
C300 O301 1.245 . S
C300 O312 1.232 . S
O301 C300 1.245 . S
O302 Co296 2.058 . S
O302 C328 1.269 . S
O303 Co295 2.074 . S
O303 C328 1.257 1_565 S
H304 C329 0.945 . S
H305 C335 0.930 . S
O306 Co295 2.093 . S
O306 C298 1.224 . S
H307 C339 0.929 . S
H308 C341 0.930 . S
H309 C342 0.930 . S
H310 C340 0.929 . S
H311 C343 0.928 . S
O312 Co296 2.057 . S
O312 C300 1.232 . S
H313 C332 0.929 1_565 S
H314 C333 0.929 . S
H315 C345 0.931 . S
H316 C337 0.929 . S
H317 C346 0.930 . S
H318 C338 0.931 . S
O319 Co295 2.097 . S
O319 C347 1.214 . S
H320 C348 0.929 1_545 S
H321 C349 0.929 . S
H322 C350 0.930 . S
H323 C351 0.929 . S
H324 C353 0.930 . S
H325 C330 0.930 . S
H326 C334 0.930 . S
O327 Co296 2.037 1_565 S
O327 C347 1.234 . S
C328 O302 1.269 . S
C328 O303 1.257 1_545 S
C329 H304 0.945 . S
C329 C332 1.388 . S
C329 C334 1.418 . S
C330 H325 0.930 . S
C330 C333 1.404 . S
C330 C334 1.353 . S
N331 Co296 2.145 . S
N331 C332 1.397 . S
N331 C333 1.334 . S
C332 H313 0.929 1_545 S
C332 C329 1.388 . S
C332 N331 1.397 . S
C333 H314 0.929 . S
C333 C330 1.404 . S
C333 N331 1.334 . S
C334 H326 0.930 . S
C334 C329 1.418 . S
C334 C330 1.353 . S
C335 H305 0.930 . S
C335 N336 1.330 . S
C335 C337 1.446 . S
N336 Co295 2.151 1_545 S
N336 C335 1.330 . S
N336 C340 1.418 . S
C337 H316 0.929 . S
C337 C335 1.446 . S
C337 C338 1.332 . S
C338 H318 0.931 . S
C338 C337 1.332 . S
C338 C339 1.267 . S
C339 H307 0.929 . S
C339 C338 1.267 . S
C339 C340 1.251 . S
C340 H310 0.929 . S
C340 N336 1.418 . S
C340 C339 1.251 . S
C341 H308 0.930 . S
C341 C343 1.406 . S
C341 C346 1.261 . S
C342 H309 0.930 . S
C342 N344 1.325 . S
C342 C345 1.357 . S
C343 H311 0.928 . S
C343 C341 1.406 . S
C343 N344 1.261 . S
N344 Co295 2.214 . S
N344 C342 1.325 . S
N344 C343 1.261 . S
C345 H315 0.931 . S
C345 C342 1.357 . S
C345 C346 1.312 . S
C346 H317 0.930 . S
C346 C341 1.261 . S
C346 C345 1.312 . S
C347 O319 1.214 . S
C347 O327 1.234 . S
C348 H320 0.929 1_565 S
C348 C351 1.391 . S
C348 C353 1.391 1_565 S
C349 H321 0.929 . S
C349 C350 1.390 . S
C349 N352 1.381 1_565 S
C350 H322 0.930 . S
C350 C349 1.390 . S
C350 C351 1.392 . S
C351 H323 0.929 . S
C351 C348 1.391 . S
C351 C350 1.392 . S
N352 Co296 2.256 . S
N352 C349 1.381 1_545 S
N352 C353 1.397 . S
C353 H324 0.930 . S
C353 C348 1.391 1_545 S
C353 N352 1.397 . S
Co354 O356 2.143 . S
Co354 O362 2.074 . S
Co354 O365 2.093 . S
Co354 O378 2.097 . S
Co354 N395 2.151 . S
Co354 N403 2.214 . S
Co355 O356 2.160 . S
Co355 O361 2.058 . S
Co355 O371 2.057 . S
Co355 O386 2.037 . S
Co355 N390 2.145 . S
Co355 N411 2.257 . S
O356 Co354 2.143 . S
O356 Co355 2.160 . S
C357 O358 1.278 . S
C357 O365 1.224 . S
O358 C357 1.278 . S
C359 O360 1.245 . S
C359 O371 1.232 . S
O360 C359 1.245 . S
O361 Co355 2.058 . S
O361 C387 1.269 . S
O362 Co354 2.074 . S
O362 C387 1.257 . S
H363 C388 0.930 . S
H364 C394 0.930 . S
O365 Co354 2.093 . S
O365 C357 1.224 . S
H366 C398 0.929 . S
H367 C400 0.930 1_565 S
H368 C401 0.930 . S
H369 C399 0.929 . S
H370 C402 0.928 . S
O371 Co355 2.057 . S
O371 C359 1.232 . S
H372 C391 0.929 . S
H373 C392 0.929 . S
H374 C404 0.931 . S
H375 C396 0.929 . S
H376 C405 0.930 1_565 S
H377 C397 0.931 . S
O378 Co354 2.097 . S
O378 C406 1.214 . S
H379 C407 0.929 . S
H380 C408 0.929 . S
H381 C409 0.930 . S
H382 C410 0.929 . S
H383 C412 0.930 . S
H384 C389 0.930 . S
H385 C393 0.930 . S
O386 Co355 2.037 . S
O386 C406 1.234 . S
C387 O361 1.269 . S
C387 O362 1.257 . S
C388 H363 0.930 . S
C388 C391 1.388 . S
C388 C393 1.418 . S
C389 H384 0.930 . S
C389 C392 1.404 . S
C389 C393 1.353 . S
N390 Co355 2.145 . S
N390 C391 1.397 . S
N390 C392 1.334 . S
C391 H372 0.929 . S
C391 C388 1.388 . S
C391 N390 1.397 . S
C392 H373 0.929 . S
C392 C389 1.404 . S
C392 N390 1.334 . S
C393 H385 0.930 . S
C393 C388 1.418 . S
C393 C389 1.353 . S
C394 H364 0.930 . S
C394 N395 1.330 . S
C394 C396 1.446 . S
N395 Co354 2.151 . S
N395 C394 1.330 . S
N395 C399 1.418 . S
C396 H375 0.929 . S
C396 C394 1.446 . S
C396 C397 1.332 . S
C397 H377 0.931 . S
C397 C396 1.332 . S
C397 C398 1.267 . S
C398 H366 0.929 . S
C398 C397 1.267 . S
C398 C399 1.251 . S
C399 H369 0.929 . S
C399 N395 1.418 . S
C399 C398 1.251 . S
C400 H367 0.930 1_545 S
C400 C402 1.406 . S
C400 C405 1.261 . S
C401 H368 0.930 . S
C401 N403 1.325 . S
C401 C404 1.357 . S
C402 H370 0.928 . S
C402 C400 1.406 . S
C402 N403 1.261 . S
N403 Co354 2.214 . S
N403 C401 1.325 . S
N403 C402 1.261 . S
C404 H374 0.931 . S
C404 C401 1.357 . S
C404 C405 1.312 . S
C405 H376 0.930 1_545 S
C405 C400 1.261 . S
C405 C404 1.312 . S
C406 O378 1.214 . S
C406 O386 1.234 . S
C407 H379 0.929 . S
C407 C410 1.391 . S
C407 C412 1.391 . S
C408 H380 0.929 . S
C408 C409 1.390 . S
C408 N411 1.391 . S
C409 H381 0.930 . S
C409 C408 1.390 . S
C409 C410 1.392 . S
C410 H382 0.929 . S
C410 C407 1.391 . S
C410 C409 1.392 . S
N411 Co355 2.257 . S
N411 C408 1.391 . S
N411 C412 1.388 . S
C412 H383 0.930 . S
C412 C407 1.391 . S
C412 N411 1.388 . S
Co413 O415 2.143 . S
Co413 O421 2.074 . S
Co413 O424 2.093 . S
Co413 O437 2.097 . S
Co413 N454 2.151 . S
Co413 N462 2.214 . S
Co414 O415 2.160 . S
Co414 O420 2.058 . S
Co414 O430 2.057 . S
Co414 O445 2.037 . S
Co414 N449 2.145 . S
Co414 N470 2.257 . S
O415 Co413 2.143 . S
O415 Co414 2.160 . S
C416 O417 1.278 . S
C416 O424 1.224 . S
O417 C416 1.278 . S
C418 O419 1.245 . S
C418 O430 1.232 . S
O419 C418 1.245 . S
O420 Co414 2.058 . S
O420 C446 1.269 . S
O421 Co413 2.074 . S
O421 C446 1.257 . S
H422 C447 0.930 . S
H423 C453 0.930 . S
O424 Co413 2.093 . S
O424 C416 1.224 . S
H425 C457 0.929 . S
H426 C459 0.930 . S
H427 C460 0.930 . S
H428 C458 0.929 1_655 S
H429 C461 0.928 . S
O430 Co414 2.057 . S
O430 C418 1.232 . S
H431 C450 0.929 . S
H432 C451 0.929 . S
H433 C463 0.931 . S
H434 C455 0.929 . S
H435 C464 0.930 . S
H436 C456 0.931 . S
O437 Co413 2.097 . S
O437 C465 1.214 . S
H438 C466 0.929 . S
H439 C467 0.929 . S
H440 C468 0.930 . S
H441 C469 0.929 . S
H442 C471 0.930 . S
H443 C448 0.930 . S
H444 C452 0.930 . S
O445 Co414 2.037 . S
O445 C465 1.234 . S
C446 O420 1.269 . S
C446 O421 1.257 . S
C447 H422 0.930 . S
C447 C450 1.388 . S
C447 C452 1.418 . S
C448 H443 0.930 . S
C448 C451 1.404 . S
C448 C452 1.353 . S
N449 Co414 2.145 . S
N449 C450 1.397 . S
N449 C451 1.334 . S
C450 H431 0.929 . S
C450 C447 1.388 . S
C450 N449 1.397 . S
C451 H432 0.929 . S
C451 C448 1.404 . S
C451 N449 1.334 . S
C452 H444 0.930 . S
C452 C447 1.418 . S
C452 C448 1.353 . S
C453 H423 0.930 . S
C453 N454 1.330 . S
C453 C455 1.446 1_655 S
N454 Co413 2.151 . S
N454 C453 1.330 . S
N454 C458 1.418 1_655 S
C455 H434 0.929 . S
C455 C453 1.446 1_455 S
C455 C456 1.332 . S
C456 H436 0.931 . S
C456 C455 1.332 . S
C456 C457 1.267 . S
C457 H425 0.929 . S
C457 C456 1.267 . S
C457 C458 1.251 . S
C458 H428 0.929 1_455 S
C458 N454 1.418 1_455 S
C458 C457 1.251 . S
C459 H426 0.930 . S
C459 C461 1.406 . S
C459 C464 1.261 . S
C460 H427 0.930 . S
C460 N462 1.325 . S
C460 C463 1.357 . S
C461 H429 0.928 . S
C461 C459 1.406 . S
C461 N462 1.261 . S
N462 Co413 2.214 . S
N462 C460 1.325 . S
N462 C461 1.261 . S
C463 H433 0.931 . S
C463 C460 1.357 . S
C463 C464 1.312 . S
C464 H435 0.930 . S
C464 C459 1.261 . S
C464 C463 1.312 . S
C465 O437 1.214 . S
C465 O445 1.234 . S
C466 H438 0.929 . S
C466 C469 1.391 . S
C466 C471 1.391 . S
C467 H439 0.929 . S
C467 C468 1.390 . S
C467 N470 1.391 . S
C468 H440 0.930 . S
C468 C467 1.390 . S
C468 C469 1.392 . S
C469 H441 0.929 . S
C469 C466 1.391 . S
C469 C468 1.392 . S
N470 Co414 2.257 . S
N470 C467 1.391 . S
N470 C471 1.388 . S
C471 H442 0.930 . S
C471 C466 1.391 . S
C471 N470 1.388 . S
Co472 O474 2.143 . S
Co472 O480 2.074 . S
Co472 O483 2.093 . S
Co472 O496 2.097 . S
Co472 N513 2.151 . S
Co472 N521 2.214 . S
Co473 O474 2.160 . S
Co473 O479 2.058 . S
Co473 O489 2.057 . S
Co473 O504 2.037 . S
Co473 N508 2.145 . S
Co473 N529 2.257 . S
O474 Co472 2.143 . S
O474 Co473 2.160 . S
C475 O476 1.278 . S
C475 O483 1.224 . S
O476 C475 1.278 . S
C477 O478 1.245 . S
C477 O489 1.232 . S
O478 C477 1.245 . S
O479 Co473 2.058 . S
O479 C505 1.269 . S
O480 Co472 2.074 . S
O480 C505 1.257 . S
H481 C506 0.930 . S
H482 C512 0.930 . S
O483 Co472 2.093 . S
O483 C475 1.224 . S
H484 C516 0.929 . S
H485 C518 0.930 . S
H486 C519 0.930 . S
H487 C517 0.929 . S
H488 C520 0.928 . S
O489 Co473 2.057 . S
O489 C477 1.232 . S
H490 C509 0.929 . S
H491 C510 0.929 . S
H492 C522 0.931 . S
H493 C514 0.929 . S
H494 C523 0.930 . S
H495 C515 0.931 . S
O496 Co472 2.097 . S
O496 C524 1.214 . S
H497 C525 0.929 . S
H498 C526 0.929 . S
H499 C527 0.930 . S
H500 C528 0.929 . S
H501 C530 0.930 . S
H502 C507 0.930 . S
H503 C511 0.930 . S
O504 Co473 2.037 . S
O504 C524 1.234 . S
C505 O479 1.269 . S
C505 O480 1.257 . S
C506 H481 0.930 . S
C506 C509 1.388 . S
C506 C511 1.418 . S
C507 H502 0.930 . S
C507 C510 1.404 . S
C507 C511 1.353 . S
N508 Co473 2.145 . S
N508 C509 1.397 . S
N508 C510 1.334 . S
C509 H490 0.929 . S
C509 C506 1.388 . S
C509 N508 1.397 . S
C510 H491 0.929 . S
C510 C507 1.404 . S
C510 N508 1.334 . S
C511 H503 0.930 . S
C511 C506 1.418 . S
C511 C507 1.353 . S
C512 H482 0.930 . S
C512 N513 1.330 . S
C512 C514 1.446 . S
N513 Co472 2.151 . S
N513 C512 1.330 . S
N513 C517 1.418 . S
C514 H493 0.929 . S
C514 C512 1.446 . S
C514 C515 1.332 . S
C515 H495 0.931 . S
C515 C514 1.332 . S
C515 C516 1.267 . S
C516 H484 0.929 . S
C516 C515 1.267 . S
C516 C517 1.251 . S
C517 H487 0.929 . S
C517 N513 1.418 . S
C517 C516 1.251 . S
C518 H485 0.930 . S
C518 C520 1.406 . S
C518 C523 1.261 . S
C519 H486 0.930 . S
C519 N521 1.325 . S
C519 C522 1.357 . S
C520 H488 0.928 . S
C520 C518 1.406 . S
C520 N521 1.261 . S
N521 Co472 2.214 . S
N521 C519 1.325 . S
N521 C520 1.261 . S
C522 H492 0.931 . S
C522 C519 1.357 . S
C522 C523 1.312 . S
C523 H494 0.930 . S
C523 C518 1.261 . S
C523 C522 1.312 . S
C524 O496 1.214 . S
C524 O504 1.234 . S
C525 H497 0.929 . S
C525 C528 1.391 . S
C525 C530 1.391 . S
C526 H498 0.929 . S
C526 C527 1.390 . S
C526 N529 1.391 . S
C527 H499 0.930 . S
C527 C526 1.390 . S
C527 C528 1.392 . S
C528 H500 0.929 . S
C528 C525 1.391 . S
C528 C527 1.392 . S
N529 Co473 2.257 . S
N529 C526 1.391 . S
N529 C530 1.388 . S
C530 H501 0.930 . S
C530 C525 1.391 . S
C530 N529 1.388 . S
Co531 O533 2.143 . S
Co531 O539 2.074 . S
Co531 O542 2.093 . S
Co531 O555 2.097 . S
Co531 N572 2.151 . S
Co531 N580 2.214 . S
Co532 O533 2.160 . S
Co532 O538 2.058 . S
Co532 O548 2.057 . S
Co532 O563 2.037 . S
Co532 N567 2.145 . S
Co532 N588 2.257 . S
O533 Co531 2.143 . S
O533 Co532 2.160 . S
C534 O535 1.278 . S
C534 O542 1.224 . S
O535 C534 1.278 . S
C536 O537 1.245 . S
C536 O548 1.232 . S
O537 C536 1.245 . S
O538 Co532 2.058 . S
O538 C564 1.269 . S
O539 Co531 2.074 . S
O539 C564 1.257 . S
H540 C565 0.930 . S
H541 C571 0.930 . S
O542 Co531 2.093 . S
O542 C534 1.224 . S
H543 C575 0.929 . S
H544 C577 0.930 . S
H545 C578 0.930 . S
H546 C576 0.929 . S
H547 C579 0.928 . S
O548 Co532 2.057 . S
O548 C536 1.232 . S
H549 C568 0.929 . S
H550 C569 0.929 . S
H551 C581 0.931 . S
H552 C573 0.929 . S
H553 C582 0.930 . S
H554 C574 0.931 . S
O555 Co531 2.097 . S
O555 C583 1.214 . S
H556 C584 0.932 1_556 S
H557 C585 0.929 . S
H558 C586 0.930 . S
H559 C587 0.929 . S
H560 C589 0.930 . S
H561 C566 0.930 . S
H562 C570 0.930 . S
O563 Co532 2.037 . S
O563 C583 1.234 . S
C564 O538 1.269 . S
C564 O539 1.257 . S
C565 H540 0.930 . S
C565 C568 1.388 . S
C565 C570 1.418 . S
C566 H561 0.930 . S
C566 C569 1.404 . S
C566 C570 1.353 . S
N567 Co532 2.145 . S
N567 C568 1.397 . S
N567 C569 1.334 . S
C568 H549 0.929 . S
C568 C565 1.388 . S
C568 N567 1.397 . S
C569 H550 0.929 . S
C569 C566 1.404 . S
C569 N567 1.334 . S
C570 H562 0.930 . S
C570 C565 1.418 . S
C570 C566 1.353 . S
C571 H541 0.930 . S
C571 N572 1.330 . S
C571 C573 1.446 . S
N572 Co531 2.151 . S
N572 C571 1.330 . S
N572 C576 1.418 . S
C573 H552 0.929 . S
C573 C571 1.446 . S
C573 C574 1.332 . S
C574 H554 0.931 . S
C574 C573 1.332 . S
C574 C575 1.267 . S
C575 H543 0.929 . S
C575 C574 1.267 . S
C575 C576 1.251 . S
C576 H546 0.929 . S
C576 N572 1.418 . S
C576 C575 1.251 . S
C577 H544 0.930 . S
C577 C579 1.406 . S
C577 C582 1.261 . S
C578 H545 0.930 . S
C578 N580 1.325 . S
C578 C581 1.357 . S
C579 H547 0.928 . S
C579 C577 1.406 . S
C579 N580 1.261 . S
N580 Co531 2.214 . S
N580 C578 1.325 . S
N580 C579 1.261 . S
C581 H551 0.931 . S
C581 C578 1.357 . S
C581 C582 1.312 . S
C582 H553 0.930 . S
C582 C577 1.261 . S
C582 C581 1.312 . S
C583 O555 1.214 . S
C583 O563 1.234 . S
C584 H556 0.932 1_554 S
C584 C587 1.391 . S
C584 C589 1.391 . S
C585 H557 0.929 . S
C585 C586 1.390 . S
C585 N588 1.391 . S
C586 H558 0.930 . S
C586 C585 1.390 . S
C586 C587 1.392 . S
C587 H559 0.929 . S
C587 C584 1.391 . S
C587 C586 1.392 . S
N588 Co532 2.257 . S
N588 C585 1.391 . S
N588 C589 1.388 . S
C589 H560 0.930 . S
C589 C584 1.391 . S
C589 N588 1.388 . S
Co590 O592 2.143 . S
Co590 O598 2.074 . S
Co590 O601 2.093 . S
Co590 O614 2.097 . S
Co590 N631 2.151 . S
Co590 N639 2.214 . S
Co591 O592 2.160 . S
Co591 O597 2.058 . S
Co591 O607 2.057 . S
Co591 O622 2.037 . S
Co591 N626 2.145 . S
Co591 N647 2.257 . S
O592 Co590 2.143 . S
O592 Co591 2.160 . S
C593 O594 1.278 . S
C593 O601 1.224 . S
O594 C593 1.278 . S
C595 O596 1.245 . S
C595 O607 1.232 . S
O596 C595 1.245 . S
O597 Co591 2.058 . S
O597 C623 1.269 . S
O598 Co590 2.074 . S
O598 C623 1.257 . S
H599 C624 0.930 . S
H600 C630 0.930 . S
O601 Co590 2.093 . S
O601 C593 1.224 . S
H602 C634 0.929 . S
H603 C636 0.930 . S
H604 C637 0.930 . S
H605 C635 0.929 1_545 S
H606 C638 0.928 . S
O607 Co591 2.057 . S
O607 C595 1.232 . S
H608 C627 0.929 . S
H609 C628 0.929 . S
H610 C640 0.931 . S
H611 C632 0.929 . S
H612 C641 0.930 . S
H613 C633 0.931 . S
O614 Co590 2.097 . S
O614 C642 1.214 . S
H615 C643 0.929 . S
H616 C644 0.929 . S
H617 C645 0.930 . S
H618 C646 0.929 . S
H619 C648 0.930 . S
H620 C625 0.930 . S
H621 C629 0.930 . S
O622 Co591 2.037 . S
O622 C642 1.234 . S
C623 O597 1.269 . S
C623 O598 1.257 . S
C624 H599 0.930 . S
C624 C627 1.388 . S
C624 C629 1.418 . S
C625 H620 0.930 . S
C625 C628 1.404 . S
C625 C629 1.353 . S
N626 Co591 2.145 . S
N626 C627 1.397 . S
N626 C628 1.334 . S
C627 H608 0.929 . S
C627 C624 1.388 . S
C627 N626 1.397 . S
C628 H609 0.929 . S
C628 C625 1.404 . S
C628 N626 1.334 . S
C629 H621 0.930 . S
C629 C624 1.418 . S
C629 C625 1.353 . S
C630 H600 0.930 . S
C630 N631 1.330 . S
C630 C632 1.446 1_545 S
N631 Co590 2.151 . S
N631 C630 1.330 . S
N631 C635 1.418 1_545 S
C632 H611 0.929 . S
C632 C630 1.446 1_565 S
C632 C633 1.332 . S
C633 H613 0.931 . S
C633 C632 1.332 . S
C633 C634 1.267 . S
C634 H602 0.929 . S
C634 C633 1.267 . S
C634 C635 1.251 . S
C635 H605 0.929 1_565 S
C635 N631 1.418 1_565 S
C635 C634 1.251 . S
C636 H603 0.930 . S
C636 C638 1.406 . S
C636 C641 1.261 . S
C637 H604 0.930 . S
C637 N639 1.325 . S
C637 C640 1.357 . S
C638 H606 0.928 . S
C638 C636 1.406 . S
C638 N639 1.261 . S
N639 Co590 2.214 . S
N639 C637 1.325 . S
N639 C638 1.261 . S
C640 H610 0.931 . S
C640 C637 1.357 . S
C640 C641 1.312 . S
C641 H612 0.930 . S
C641 C636 1.261 . S
C641 C640 1.312 . S
C642 O614 1.214 . S
C642 O622 1.234 . S
C643 H615 0.929 . S
C643 C646 1.391 . S
C643 C648 1.391 . S
C644 H616 0.929 . S
C644 C645 1.390 . S
C644 N647 1.391 . S
C645 H617 0.930 . S
C645 C644 1.390 . S
C645 C646 1.392 . S
C646 H618 0.929 . S
C646 C643 1.391 . S
C646 C645 1.392 . S
N647 Co591 2.257 . S
N647 C644 1.391 . S
N647 C648 1.388 . S
C648 H619 0.930 . S
C648 C643 1.391 . S
C648 N647 1.388 . S
Co649 O651 2.143 . S
Co649 O657 2.074 . S
Co649 O660 2.093 . S
Co649 O673 2.097 . S
Co649 N690 2.151 . S
Co649 N698 2.214 . S
Co650 O651 2.160 . S
Co650 O656 2.058 . S
Co650 O666 2.057 . S
Co650 O681 2.037 . S
Co650 N685 2.145 . S
Co650 N706 2.257 . S
O651 Co649 2.143 . S
O651 Co650 2.160 . S
C652 O653 1.278 . S
C652 O660 1.224 . S
O653 C652 1.278 . S
C654 O655 1.245 . S
C654 O666 1.232 . S
O655 C654 1.245 . S
O656 Co650 2.058 . S
O656 C682 1.269 . S
O657 Co649 2.074 . S
O657 C682 1.257 . S
H658 C683 0.930 . S
H659 C689 0.930 . S
O660 Co649 2.093 . S
O660 C652 1.224 . S
H661 C693 0.929 . S
H662 C695 0.930 . S
H663 C696 0.930 . S
H664 C694 0.929 . S
H665 C697 0.928 . S
O666 Co650 2.057 . S
O666 C654 1.232 . S
H667 C686 0.929 . S
H668 C687 0.929 . S
H669 C699 0.931 . S
H670 C691 0.929 . S
H671 C700 0.930 . S
H672 C692 0.931 . S
O673 Co649 2.097 . S
O673 C701 1.214 . S
H674 C702 0.929 1_556 S
H675 C703 0.929 . S
H676 C704 0.930 . S
H677 C705 0.929 . S
H678 C707 0.930 . S
H679 C684 0.930 . S
H680 C688 0.930 . S
O681 Co650 2.037 . S
O681 C701 1.234 . S
C682 O656 1.269 . S
C682 O657 1.257 . S
C683 H658 0.930 . S
C683 C686 1.388 . S
C683 C688 1.418 . S
C684 H679 0.930 . S
C684 C687 1.404 . S
C684 C688 1.353 . S
N685 Co650 2.145 . S
N685 C686 1.397 . S
N685 C687 1.334 . S
C686 H667 0.929 . S
C686 C683 1.388 . S
C686 N685 1.397 . S
C687 H668 0.929 . S
C687 C684 1.404 . S
C687 N685 1.334 . S
C688 H680 0.930 . S
C688 C683 1.418 . S
C688 C684 1.353 . S
C689 H659 0.930 . S
C689 N690 1.330 . S
C689 C691 1.446 1_655 S
N690 Co649 2.151 . S
N690 C689 1.330 . S
N690 C694 1.418 1_655 S
C691 H670 0.929 . S
C691 C689 1.446 1_455 S
C691 C692 1.332 . S
C692 H672 0.931 . S
C692 C691 1.332 . S
C692 C693 1.267 . S
C693 H661 0.929 . S
C693 C692 1.267 . S
C693 C694 1.251 . S
C694 H664 0.929 . S
C694 N690 1.418 1_455 S
C694 C693 1.251 . S
C695 H662 0.930 . S
C695 C697 1.406 . S
C695 C700 1.261 . S
C696 H663 0.930 . S
C696 N698 1.325 . S
C696 C699 1.357 . S
C697 H665 0.928 . S
C697 C695 1.406 . S
C697 N698 1.261 . S
N698 Co649 2.214 . S
N698 C696 1.325 . S
N698 C697 1.261 . S
C699 H669 0.931 . S
C699 C696 1.357 . S
C699 C700 1.312 . S
C700 H671 0.930 . S
C700 C695 1.261 . S
C700 C699 1.312 . S
C701 O673 1.214 . S
C701 O681 1.234 . S
C702 H674 0.929 1_554 S
C702 C705 1.391 . S
C702 C707 1.391 . S
C703 H675 0.929 . S
C703 C704 1.390 . S
C703 N706 1.391 . S
C704 H676 0.930 . S
C704 C703 1.390 . S
C704 C705 1.392 . S
C705 H677 0.929 . S
C705 C702 1.391 . S
C705 C704 1.392 . S
N706 Co650 2.257 . S
N706 C703 1.391 . S
N706 C707 1.388 . S
C707 H678 0.930 . S
C707 C702 1.391 . S
C707 N706 1.388 . S
Co708 O710 2.143 . S
Co708 O716 2.074 . S
Co708 O719 2.093 . S
Co708 O732 2.097 . S
Co708 N749 2.151 . S
Co708 N757 2.214 . S
Co709 O710 2.160 . S
Co709 O715 2.058 . S
Co709 O725 2.057 . S
Co709 O740 2.037 . S
Co709 N744 2.145 . S
Co709 N765 2.257 . S
O710 Co708 2.143 . S
O710 Co709 2.160 . S
C711 O712 1.278 . S
C711 O719 1.224 . S
O712 C711 1.278 . S
C713 O714 1.245 . S
C713 O725 1.232 . S
O714 C713 1.245 . S
O715 Co709 2.058 . S
O715 C741 1.269 . S
O716 Co708 2.074 . S
O716 C741 1.257 . S
H717 C742 0.930 . S
H718 C748 0.930 . S
O719 Co708 2.093 . S
O719 C711 1.224 . S
H720 C752 0.929 . S
H721 C754 0.930 . S
H722 C755 0.930 . S
H723 C753 0.929 . S
H724 C756 0.928 . S
O725 Co709 2.057 . S
O725 C713 1.232 . S
H726 C745 0.929 . S
H727 C746 0.929 . S
H728 C758 0.931 . S
H729 C750 0.929 . S
H730 C759 0.930 . S
H731 C751 0.931 . S
O732 Co708 2.097 . S
O732 C760 1.214 . S
H733 C761 0.929 1_554 S
H734 C762 0.929 . S
H735 C763 0.930 . S
H736 C764 0.929 . S
H737 C766 0.930 . S
H738 C743 0.930 . S
H739 C747 0.930 . S
O740 Co709 2.037 . S
O740 C760 1.234 . S
C741 O715 1.269 . S
C741 O716 1.257 . S
C742 H717 0.930 . S
C742 C745 1.388 . S
C742 C747 1.418 . S
C743 H738 0.930 . S
C743 C746 1.404 . S
C743 C747 1.353 . S
N744 Co709 2.145 . S
N744 C745 1.397 . S
N744 C746 1.334 . S
C745 H726 0.929 . S
C745 C742 1.388 . S
C745 N744 1.397 . S
C746 H727 0.929 . S
C746 C743 1.404 . S
C746 N744 1.334 . S
C747 H739 0.930 . S
C747 C742 1.418 . S
C747 C743 1.353 . S
C748 H718 0.930 . S
C748 N749 1.330 . S
C748 C750 1.446 . S
N749 Co708 2.151 . S
N749 C748 1.330 . S
N749 C753 1.418 . S
C750 H729 0.929 . S
C750 C748 1.446 . S
C750 C751 1.332 . S
C751 H731 0.931 . S
C751 C750 1.332 . S
C751 C752 1.267 . S
C752 H720 0.929 . S
C752 C751 1.267 . S
C752 C753 1.251 . S
C753 H723 0.929 . S
C753 N749 1.418 . S
C753 C752 1.251 . S
C754 H721 0.930 . S
C754 C756 1.406 . S
C754 C759 1.261 . S
C755 H722 0.930 . S
C755 N757 1.325 . S
C755 C758 1.357 . S
C756 H724 0.928 . S
C756 C754 1.406 . S
C756 N757 1.261 . S
N757 Co708 2.214 . S
N757 C755 1.325 . S
N757 C756 1.261 . S
C758 H728 0.931 . S
C758 C755 1.357 . S
C758 C759 1.312 . S
C759 H730 0.930 . S
C759 C754 1.261 . S
C759 C758 1.312 . S
C760 O732 1.214 . S
C760 O740 1.234 . S
C761 H733 0.929 1_556 S
C761 C764 1.391 . S
C761 C766 1.391 . S
C762 H734 0.929 . S
C762 C763 1.390 . S
C762 N765 1.391 . S
C763 H735 0.930 . S
C763 C762 1.390 . S
C763 C764 1.392 . S
C764 H736 0.929 . S
C764 C761 1.391 . S
C764 C763 1.392 . S
N765 Co709 2.257 . S
N765 C762 1.391 . S
N765 C766 1.388 . S
C766 H737 0.930 . S
C766 C761 1.391 . S
C766 N765 1.388 . S
Co767 O769 2.143 . S
Co767 O775 2.074 . S
Co767 O778 2.093 . S
Co767 O791 2.097 . S
Co767 N808 2.151 . S
Co767 N816 2.214 1_565 S
Co768 O769 2.160 . S
Co768 O774 2.058 . S
Co768 O784 2.057 . S
Co768 O799 2.037 . S
Co768 N803 2.145 . S
Co768 N824 2.257 . S
O769 Co767 2.143 . S
O769 Co768 2.160 . S
C770 O771 1.278 . S
C770 O778 1.224 . S
O771 C770 1.278 . S
C772 O773 1.245 . S
C772 O784 1.232 . S
O773 C772 1.245 . S
O774 Co768 2.058 . S
O774 C800 1.269 . S
O775 Co767 2.074 . S
O775 C800 1.257 . S
H776 C801 0.930 . S
H777 C807 0.930 . S
O778 Co767 2.093 . S
O778 C770 1.224 . S
H779 C811 0.929 . S
H780 C813 0.930 . S
H781 C814 0.930 1_565 S
H782 C812 0.929 . S
H783 C815 0.928 . S
O784 Co768 2.057 . S
O784 C772 1.232 . S
H785 C804 0.929 . S
H786 C805 0.929 . S
H787 C817 0.931 . S
H788 C809 0.929 . S
H789 C818 0.930 . S
H790 C810 0.931 . S
O791 Co767 2.097 . S
O791 C819 1.214 . S
H792 C820 0.929 . S
H793 C821 0.929 . S
H794 C822 0.930 . S
H795 C823 0.929 . S
H796 C825 0.930 . S
H797 C802 0.930 . S
H798 C806 0.930 . S
O799 Co768 2.037 . S
O799 C819 1.234 . S
C800 O774 1.269 . S
C800 O775 1.257 . S
C801 H776 0.930 . S
C801 C804 1.388 . S
C801 C806 1.418 . S
C802 H797 0.930 . S
C802 C805 1.404 . S
C802 C806 1.353 . S
N803 Co768 2.145 . S
N803 C804 1.397 . S
N803 C805 1.334 . S
C804 H785 0.929 . S
C804 C801 1.388 . S
C804 N803 1.397 . S
C805 H786 0.929 . S
C805 C802 1.404 . S
C805 N803 1.334 . S
C806 H798 0.930 . S
C806 C801 1.418 . S
C806 C802 1.353 . S
C807 H777 0.930 . S
C807 N808 1.330 . S
C807 C809 1.446 . S
N808 Co767 2.151 . S
N808 C807 1.330 . S
N808 C812 1.418 . S
C809 H788 0.929 . S
C809 C807 1.446 . S
C809 C810 1.332 1_565 S
C810 H790 0.931 . S
C810 C809 1.332 1_545 S
C810 C811 1.267 . S
C811 H779 0.929 . S
C811 C810 1.267 . S
C811 C812 1.251 1_545 S
C812 H782 0.929 . S
C812 N808 1.418 . S
C812 C811 1.251 1_565 S
C813 H780 0.930 . S
C813 C815 1.406 . S
C813 C818 1.261 . S
C814 H781 0.930 1_545 S
C814 N816 1.325 . S
C814 C817 1.357 . S
C815 H783 0.928 . S
C815 C813 1.406 . S
C815 N816 1.261 . S
N816 Co767 2.214 1_545 S
N816 C814 1.325 . S
N816 C815 1.261 . S
C817 H787 0.931 . S
C817 C814 1.357 . S
C817 C818 1.312 . S
C818 H789 0.930 . S
C818 C813 1.261 . S
C818 C817 1.312 . S
C819 O791 1.214 . S
C819 O799 1.234 . S
C820 H792 0.929 . S
C820 C823 1.391 . S
C820 C825 1.391 . S
C821 H793 0.929 . S
C821 C822 1.390 . S
C821 N824 1.391 . S
C822 H794 0.930 . S
C822 C821 1.390 . S
C822 C823 1.392 . S
C823 H795 0.929 . S
C823 C820 1.391 . S
C823 C822 1.392 . S
N824 Co768 2.257 . S
N824 C821 1.391 . S
N824 C825 1.388 . S
C825 H796 0.930 . S
C825 C820 1.391 . S
C825 N824 1.388 . S
Co826 O828 2.143 . S
Co826 O834 2.074 . S
Co826 O837 2.093 . S
Co826 O850 2.097 . S
Co826 N867 2.151 . S
Co826 N875 2.214 . S
Co827 O828 2.160 . S
Co827 O833 2.058 . S
Co827 O843 2.057 . S
Co827 O858 2.037 . S
Co827 N862 2.145 . S
Co827 N883 2.257 . S
O828 Co826 2.143 . S
O828 Co827 2.160 . S
C829 O830 1.278 . S
C829 O837 1.224 . S
O830 C829 1.278 . S
C831 O832 1.245 . S
C831 O843 1.232 . S
O832 C831 1.245 . S
O833 Co827 2.058 . S
O833 C859 1.269 . S
O834 Co826 2.074 . S
O834 C859 1.257 . S
H835 C860 0.930 . S
H836 C866 0.930 . S
O837 Co826 2.093 . S
O837 C829 1.224 . S
H838 C870 0.929 . S
H839 C872 0.930 . S
H840 C873 0.930 . S
H841 C871 0.929 . S
H842 C874 0.928 . S
O843 Co827 2.057 . S
O843 C831 1.232 . S
H844 C863 0.929 . S
H845 C864 0.929 . S
H846 C876 0.931 . S
H847 C868 0.928 1_655 S
H848 C877 0.930 . S
H849 C869 0.931 . S
O850 Co826 2.097 . S
O850 C878 1.214 . S
H851 C879 0.922 1_554 S
H852 C880 0.929 . S
H853 C881 0.930 . S
H854 C882 0.929 . S
H855 C884 0.930 . S
H856 C861 0.930 . S
H857 C865 0.930 . S
O858 Co827 2.037 . S
O858 C878 1.234 . S
C859 O833 1.269 . S
C859 O834 1.257 . S
C860 H835 0.930 . S
C860 C863 1.388 . S
C860 C865 1.418 . S
C861 H856 0.930 . S
C861 C864 1.404 . S
C861 C865 1.353 . S
N862 Co827 2.145 . S
N862 C863 1.397 . S
N862 C864 1.334 . S
C863 H844 0.929 . S
C863 C860 1.388 . S
C863 N862 1.397 . S
C864 H845 0.929 . S
C864 C861 1.404 . S
C864 N862 1.334 . S
C865 H857 0.930 . S
C865 C860 1.418 . S
C865 C861 1.353 . S
C866 H836 0.930 . S
C866 N867 1.330 . S
C866 C868 1.458 . S
N867 Co826 2.151 . S
N867 C866 1.330 . S
N867 C871 1.418 . S
C868 H847 0.928 1_455 S
C868 C866 1.458 . S
C868 C869 1.322 1_455 S
C869 H849 0.931 . S
C869 C868 1.322 1_655 S
C869 C870 1.267 . S
C870 H838 0.929 . S
C870 C869 1.267 . S
C870 C871 1.251 1_655 S
C871 H841 0.929 . S
C871 N867 1.418 . S
C871 C870 1.251 1_455 S
C872 H839 0.930 . S
C872 C874 1.406 . S
C872 C877 1.261 . S
C873 H840 0.930 . S
C873 N875 1.325 . S
C873 C876 1.357 . S
C874 H842 0.928 . S
C874 C872 1.406 . S
C874 N875 1.261 . S
N875 Co826 2.214 . S
N875 C873 1.325 . S
N875 C874 1.261 . S
C876 H846 0.931 . S
C876 C873 1.357 . S
C876 C877 1.312 . S
C877 H848 0.930 . S
C877 C872 1.261 . S
C877 C876 1.312 . S
C878 O850 1.214 . S
C878 O858 1.234 . S
C879 H851 0.922 1_556 S
C879 C882 1.391 . S
C879 C884 1.391 . S
C880 H852 0.929 . S
C880 C881 1.390 . S
C880 N883 1.391 . S
C881 H853 0.930 . S
C881 C880 1.390 . S
C881 C882 1.392 . S
C882 H854 0.929 . S
C882 C879 1.391 . S
C882 C881 1.392 . S
N883 Co827 2.257 . S
N883 C880 1.391 . S
N883 C884 1.388 . S
C884 H855 0.930 . S
C884 C879 1.391 . S
C884 N883 1.388 . S
Co885 O887 2.143 . S
Co885 O893 2.074 . S
Co885 O896 2.093 . S
Co885 O909 2.097 . S
Co885 N926 2.151 . S
Co885 N934 2.214 . S
Co886 O887 2.160 . S
Co886 O892 2.058 . S
Co886 O902 2.057 . S
Co886 O917 2.037 . S
Co886 N921 2.145 . S
Co886 N942 2.257 . S
O887 Co885 2.143 . S
O887 Co886 2.160 . S
C888 O889 1.278 . S
C888 O896 1.224 . S
O889 C888 1.278 . S
C890 O891 1.245 . S
C890 O902 1.232 . S
O891 C890 1.245 . S
O892 Co886 2.058 . S
O892 C918 1.269 . S
O893 Co885 2.074 . S
O893 C918 1.257 . S
H894 C919 0.930 . S
H895 C925 0.930 . S
O896 Co885 2.093 . S
O896 C888 1.224 . S
H897 C929 0.929 . S
H898 C931 0.930 . S
H899 C932 0.930 . S
H900 C930 0.929 . S
H901 C933 0.928 . S
O902 Co886 2.057 . S
O902 C890 1.232 . S
H903 C922 0.929 . S
H904 C923 0.929 . S
H905 C935 0.931 . S
H906 C927 0.929 . S
H907 C936 0.930 . S
H908 C928 0.931 . S
O909 Co885 2.097 . S
O909 C937 1.214 . S
H910 C938 0.929 . S
H911 C939 0.929 . S
H912 C940 0.930 . S
H913 C941 0.929 . S
H914 C943 0.930 . S
H915 C920 0.930 . S
H916 C924 0.930 . S
O917 Co886 2.037 . S
O917 C937 1.234 . S
C918 O892 1.269 . S
C918 O893 1.257 . S
C919 H894 0.930 . S
C919 C922 1.388 . S
C919 C924 1.418 . S
C920 H915 0.930 . S
C920 C923 1.404 . S
C920 C924 1.353 . S
N921 Co886 2.145 . S
N921 C922 1.397 . S
N921 C923 1.334 . S
C922 H903 0.929 . S
C922 C919 1.388 . S
C922 N921 1.397 . S
C923 H904 0.929 . S
C923 C920 1.404 . S
C923 N921 1.334 . S
C924 H916 0.930 . S
C924 C919 1.418 . S
C924 C920 1.353 . S
C925 H895 0.930 . S
C925 N926 1.330 . S
C925 C927 1.446 1_565 S
N926 Co885 2.151 . S
N926 C925 1.330 . S
N926 C930 1.418 . S
C927 H906 0.929 . S
C927 C925 1.446 1_545 S
C927 C928 1.332 . S
C928 H908 0.931 . S
C928 C927 1.332 . S
C928 C929 1.267 . S
C929 H897 0.929 . S
C929 C928 1.267 . S
C929 C930 1.251 1_545 S
C930 H900 0.929 . S
C930 N926 1.418 . S
C930 C929 1.251 1_565 S
C931 H898 0.930 . S
C931 C933 1.406 . S
C931 C936 1.261 . S
C932 H899 0.930 . S
C932 N934 1.325 . S
C932 C935 1.357 . S
C933 H901 0.928 . S
C933 C931 1.406 . S
C933 N934 1.261 . S
N934 Co885 2.214 . S
N934 C932 1.325 . S
N934 C933 1.261 . S
C935 H905 0.931 . S
C935 C932 1.357 . S
C935 C936 1.312 . S
C936 H907 0.930 . S
C936 C931 1.261 . S
C936 C935 1.312 . S
C937 O909 1.214 . S
C937 O917 1.234 . S
C938 H910 0.929 . S
C938 C941 1.391 . S
C938 C943 1.391 . S
C939 H911 0.929 . S
C939 C940 1.390 . S
C939 N942 1.391 . S
C940 H912 0.930 . S
C940 C939 1.390 . S
C940 C941 1.392 . S
C941 H913 0.929 . S
C941 C938 1.391 . S
C941 C940 1.392 . S
N942 Co886 2.257 . S
N942 C939 1.391 . S
N942 C943 1.388 . S
C943 H914 0.930 . S
C943 C938 1.391 . S
C943 N942 1.388 . S
Co944 O946 2.143 . S
Co944 O952 2.074 . S
Co944 O955 2.093 . S
Co944 O968 2.097 . S
Co944 N985 2.151 . S
Co944 N993 2.214 . S
Co945 O946 2.160 . S
Co945 O951 2.058 . S
Co945 O961 2.057 . S
Co945 O976 2.037 . S
Co945 N980 2.145 . S
Co945 N1001 2.257 . S
O946 Co944 2.143 . S
O946 Co945 2.160 . S
C947 O948 1.278 . S
C947 O955 1.224 . S
O948 C947 1.278 . S
C949 O950 1.245 . S
C949 O961 1.232 . S
O950 C949 1.245 . S
O951 Co945 2.058 . S
O951 C977 1.269 . S
O952 Co944 2.074 . S
O952 C977 1.257 . S
H953 C978 0.930 . S
H954 C984 0.930 . S
O955 Co944 2.093 . S
O955 C947 1.224 . S
H956 C988 0.929 . S
H957 C990 0.930 . S
H958 C991 0.930 . S
H959 C989 0.929 . S
H960 C992 0.928 . S
O961 Co945 2.057 . S
O961 C949 1.232 . S
H962 C981 0.929 . S
H963 C982 0.929 . S
H964 C994 0.931 . S
H965 C986 0.918 1_655 S
H966 C995 0.930 . S
H967 C987 0.931 . S
O968 Co944 2.097 . S
O968 C996 1.214 . S
H969 C997 0.929 . S
H970 C998 0.929 . S
H971 C999 0.930 . S
H972 C1000 0.929 . S
H973 C1002 0.930 . S
H974 C979 0.930 . S
H975 C983 0.930 . S
O976 Co945 2.037 . S
O976 C996 1.234 . S
C977 O951 1.269 . S
C977 O952 1.257 . S
C978 H953 0.930 . S
C978 C981 1.388 . S
C978 C983 1.418 . S
C979 H974 0.930 . S
C979 C982 1.404 . S
C979 C983 1.353 . S
N980 Co945 2.145 . S
N980 C981 1.397 . S
N980 C982 1.334 . S
C981 H962 0.929 . S
C981 C978 1.388 . S
C981 N980 1.397 . S
C982 H963 0.929 . S
C982 C979 1.404 . S
C982 N980 1.334 . S
C983 H975 0.930 . S
C983 C978 1.418 . S
C983 C979 1.353 . S
C984 H954 0.930 . S
C984 N985 1.330 . S
C984 C986 1.446 . S
N985 Co944 2.151 . S
N985 C984 1.330 . S
N985 C989 1.418 . S
C986 H965 0.918 1_455 S
C986 C984 1.446 . S
C986 C987 1.332 1_455 S
C987 H967 0.931 . S
C987 C986 1.332 1_655 S
C987 C988 1.267 . S
C988 H956 0.929 . S
C988 C987 1.267 . S
C988 C989 1.251 1_655 S
C989 H959 0.929 . S
C989 N985 1.418 . S
C989 C988 1.251 1_455 S
C990 H957 0.930 . S
C990 C992 1.406 . S
C990 C995 1.261 . S
C991 H958 0.930 . S
C991 N993 1.325 . S
C991 C994 1.357 . S
C992 H960 0.928 . S
C992 C990 1.406 . S
C992 N993 1.261 . S
N993 Co944 2.214 . S
N993 C991 1.325 . S
N993 C992 1.261 . S
C994 H964 0.931 . S
C994 C991 1.357 . S
C994 C995 1.312 . S
C995 H966 0.930 . S
C995 C990 1.261 . S
C995 C994 1.312 . S
C996 O968 1.214 . S
C996 O976 1.234 . S
C997 H969 0.929 . S
C997 C1000 1.391 . S
C997 C1002 1.391 . S
C998 H970 0.929 . S
C998 C999 1.390 . S
C998 N1001 1.391 . S
C999 H971 0.930 . S
C999 C998 1.390 . S
C999 C1000 1.392 . S
C1000 H972 0.929 . S
C1000 C997 1.391 . S
C1000 C999 1.392 . S
N1001 Co945 2.257 . S
N1001 C998 1.391 . S
N1001 C1002 1.388 . S
C1002 H973 0.930 . S
C1002 C997 1.391 . S
C1002 N1001 1.388 . S
Co1003 O1005 2.143 . S
Co1003 O1011 2.074 . S
Co1003 O1014 2.093 . S
Co1003 O1027 2.097 . S
Co1003 N1044 2.151 . S
Co1003 N1052 2.214 . S
Co1004 O1005 2.160 . S
Co1004 O1010 2.058 . S
Co1004 O1020 2.057 . S
Co1004 O1035 2.037 . S
Co1004 N1039 2.145 . S
Co1004 N1060 2.257 . S
O1005 Co1003 2.143 . S
O1005 Co1004 2.160 . S
C1006 O1007 1.278 . S
C1006 O1014 1.224 . S
O1007 C1006 1.278 . S
C1008 O1009 1.245 . S
C1008 O1020 1.232 . S
O1009 C1008 1.245 . S
O1010 Co1004 2.058 . S
O1010 C1036 1.269 . S
O1011 Co1003 2.074 . S
O1011 C1036 1.257 . S
H1012 C1037 0.930 . S
H1013 C1043 0.930 . S
O1014 Co1003 2.093 . S
O1014 C1006 1.224 . S
H1015 C1047 0.929 . S
H1016 C1049 0.930 . S
H1017 C1050 0.930 . S
H1018 C1048 0.929 . S
H1019 C1051 0.928 . S
O1020 Co1004 2.057 . S
O1020 C1008 1.232 . S
H1021 C1040 0.929 . S
H1022 C1041 0.929 . S
H1023 C1053 0.931 . S
H1024 C1045 0.929 . S
H1025 C1054 0.930 . S
H1026 C1046 0.931 . S
O1027 Co1003 2.097 . S
O1027 C1055 1.214 . S
H1028 C1056 0.929 . S
H1029 C1057 0.929 . S
H1030 C1058 0.930 . S
H1031 C1059 0.929 . S
H1032 C1061 0.930 . S
H1033 C1038 0.930 . S
H1034 C1042 0.930 . S
O1035 Co1004 2.037 . S
O1035 C1055 1.234 . S
C1036 O1010 1.269 . S
C1036 O1011 1.257 . S
C1037 H1012 0.930 . S
C1037 C1040 1.388 . S
C1037 C1042 1.418 . S
C1038 H1033 0.930 . S
C1038 C1041 1.404 . S
C1038 C1042 1.353 . S
N1039 Co1004 2.145 . S
N1039 C1040 1.397 . S
N1039 C1041 1.334 . S
C1040 H1021 0.929 . S
C1040 C1037 1.388 . S
C1040 N1039 1.397 . S
C1041 H1022 0.929 . S
C1041 C1038 1.404 . S
C1041 N1039 1.334 . S
C1042 H1034 0.930 . S
C1042 C1037 1.418 . S
C1042 C1038 1.353 . S
C1043 H1013 0.930 . S
C1043 N1044 1.330 . S
C1043 C1045 1.446 . S
N1044 Co1003 2.151 . S
N1044 C1043 1.330 . S
N1044 C1048 1.418 . S
C1045 H1024 0.929 . S
C1045 C1043 1.446 . S
C1045 C1046 1.332 . S
C1046 H1026 0.931 . S
C1046 C1045 1.332 . S
C1046 C1047 1.267 . S
C1047 H1015 0.929 . S
C1047 C1046 1.267 . S
C1047 C1048 1.251 . S
C1048 H1018 0.929 . S
C1048 N1044 1.418 . S
C1048 C1047 1.251 . S
C1049 H1016 0.930 . S
C1049 C1051 1.406 . S
C1049 C1054 1.261 . S
C1050 H1017 0.930 . S
C1050 N1052 1.325 . S
C1050 C1053 1.357 . S
C1051 H1019 0.928 . S
C1051 C1049 1.406 . S
C1051 N1052 1.261 . S
N1052 Co1003 2.214 . S
N1052 C1050 1.325 . S
N1052 C1051 1.261 . S
C1053 H1023 0.931 . S
C1053 C1050 1.357 . S
C1053 C1054 1.312 . S
C1054 H1025 0.930 . S
C1054 C1049 1.261 . S
C1054 C1053 1.312 . S
C1055 O1027 1.214 . S
C1055 O1035 1.234 . S
C1056 H1028 0.929 . S
C1056 C1059 1.391 . S
C1056 C1061 1.391 . S
C1057 H1029 0.929 . S
C1057 C1058 1.390 . S
C1057 N1060 1.391 . S
C1058 H1030 0.930 . S
C1058 C1057 1.390 . S
C1058 C1059 1.392 . S
C1059 H1031 0.929 . S
C1059 C1056 1.391 . S
C1059 C1058 1.392 . S
N1060 Co1004 2.257 . S
N1060 C1057 1.391 . S
N1060 C1061 1.388 . S
C1061 H1032 0.930 . S
C1061 C1056 1.391 . S
C1061 N1060 1.388 . S
C1062 C1063 1.349 . S
C1062 C1064 1.327 . S
C1062 H1087 0.950 . S
C1063 C1062 1.349 . S
C1063 C1079 1.349 . S
C1064 C1062 1.327 . S
C1064 C1083 1.429 . S
C1064 H1088 0.950 . S
C1065 C1082 1.574 . S
C1065 C1084 1.368 . S
C1065 H1089 0.949 . S
H1066 C1070 0.949 . S
C1067 C1068 1.349 1_554 S
C1067 C1069 1.327 . S
C1067 H1090 0.950 . S
C1068 C1067 1.349 1_556 S
C1068 C1080 1.349 . S
C1069 C1067 1.327 . S
C1069 C1085 1.429 . S
C1069 H1091 0.950 . S
C1070 H1066 0.949 . S
C1070 C1078 1.574 . S
C1070 C1086 1.368 . S
H1071 C1079 0.950 . S
H1072 C1077 0.950 . S
H1073 C1078 0.949 . S
H1074 C1080 0.950 . S
H1075 C1081 0.950 . S
H1076 C1082 0.949 . S
C1077 H1072 0.950 . S
C1077 C1079 1.327 . S
C1077 C1083 1.429 . S
C1078 C1070 1.574 . S
C1078 H1073 0.949 . S
C1078 C1084 1.368 . S
C1079 C1063 1.349 . S
C1079 H1071 0.950 . S
C1079 C1077 1.327 . S
C1080 C1068 1.349 . S
C1080 H1074 0.950 . S
C1080 C1081 1.327 1_556 S
C1081 H1075 0.950 . S
C1081 C1080 1.327 1_554 S
C1081 C1085 1.429 . S
C1082 C1065 1.574 . S
C1082 H1076 0.949 . S
C1082 C1086 1.368 . S
C1083 C1064 1.429 . S
C1083 C1077 1.429 . S
C1083 C1084 1.523 . S
C1084 C1065 1.368 . S
C1084 C1078 1.368 . S
C1084 C1083 1.523 . S
C1085 C1069 1.429 . S
C1085 C1081 1.429 . S
C1085 C1086 1.523 . S
C1086 C1070 1.368 . S
C1086 C1082 1.368 . S
C1086 C1085 1.523 . S
H1087 C1062 0.950 . S
H1088 C1064 0.950 . S
H1089 C1065 0.949 . S
H1090 C1067 0.950 . S
H1091 C1069 0.950 . S
C1092 C1093 1.349 1_554 S
C1092 C1094 1.327 . S
C1092 H1117 0.950 . S
C1093 C1092 1.349 1_556 S
C1093 C1109 1.349 . S
C1094 C1092 1.327 . S
C1094 C1113 1.429 . S
C1094 H1118 0.950 . S
C1095 C1112 1.574 . S
C1095 C1114 1.368 . S
C1095 H1119 0.949 . S
H1096 C1100 0.949 . S
C1097 C1098 1.349 . S
C1097 C1099 1.327 . S
C1097 H1120 0.950 . S
C1098 C1097 1.349 . S
C1098 C1110 1.349 . S
C1099 C1097 1.327 . S
C1099 C1115 1.429 . S
C1099 H1121 0.950 . S
C1100 H1096 0.949 . S
C1100 C1108 1.574 . S
C1100 C1116 1.368 . S
H1101 C1109 0.950 . S
H1102 C1107 0.950 . S
H1103 C1108 0.949 . S
H1104 C1110 0.950 . S
H1105 C1111 0.950 . S
H1106 C1112 0.949 . S
C1107 H1102 0.950 . S
C1107 C1109 1.327 1_554 S
C1107 C1113 1.429 . S
C1108 C1100 1.574 . S
C1108 H1103 0.949 . S
C1108 C1114 1.368 . S
C1109 C1093 1.349 . S
C1109 H1101 0.950 . S
C1109 C1107 1.327 1_556 S
C1110 C1098 1.349 . S
C1110 H1104 0.950 . S
C1110 C1111 1.327 . S
C1111 H1105 0.950 . S
C1111 C1110 1.327 . S
C1111 C1115 1.429 . S
C1112 C1095 1.574 . S
C1112 H1106 0.949 . S
C1112 C1116 1.368 . S
C1113 C1094 1.429 . S
C1113 C1107 1.429 . S
C1113 C1114 1.523 . S
C1114 C1095 1.368 . S
C1114 C1108 1.368 . S
C1114 C1113 1.523 . S
C1115 C1099 1.429 . S
C1115 C1111 1.429 . S
C1115 C1116 1.523 . S
C1116 C1100 1.368 . S
C1116 C1112 1.368 . S
C1116 C1115 1.523 . S
H1117 C1092 0.950 . S
H1118 C1094 0.950 . S
H1119 C1095 0.949 . S
H1120 C1097 0.950 . S
H1121 C1099 0.950 . S
C1122 C1123 1.349 1_545 S
C1122 C1124 1.327 1_545 S
C1122 H1147 0.950 . S
C1123 C1122 1.349 1_565 S
C1123 C1139 1.349 . S
C1124 C1122 1.327 1_565 S
C1124 C1143 1.429 . S
C1124 H1148 0.950 1_565 S
C1125 C1142 1.574 . S
C1125 C1144 1.368 . S
C1125 H1149 0.949 . S
H1126 C1130 0.949 . S
C1127 C1128 1.349 1_554 S
C1127 C1129 1.327 . S
C1127 H1150 0.950 . S
C1128 C1127 1.349 1_556 S
C1128 C1140 1.349 . S
C1129 C1127 1.327 . S
C1129 C1145 1.429 . S
C1129 H1151 0.950 . S
C1130 H1126 0.949 . S
C1130 C1138 1.574 . S
C1130 C1146 1.368 . S
H1131 C1139 0.950 . S
H1132 C1137 0.950 . S
H1133 C1138 0.949 . S
H1134 C1140 0.950 . S
H1135 C1141 0.950 . S
H1136 C1142 0.949 . S
C1137 H1132 0.950 . S
C1137 C1139 1.327 . S
C1137 C1143 1.429 . S
C1138 C1130 1.574 . S
C1138 H1133 0.949 . S
C1138 C1144 1.368 . S
C1139 C1123 1.349 . S
C1139 H1131 0.950 . S
C1139 C1137 1.327 . S
C1140 C1128 1.349 . S
C1140 H1134 0.950 . S
C1140 C1141 1.327 1_556 S
C1141 H1135 0.950 . S
C1141 C1140 1.327 1_554 S
C1141 C1145 1.429 . S
C1142 C1125 1.574 . S
C1142 H1136 0.949 . S
C1142 C1146 1.368 . S
C1143 C1124 1.429 . S
C1143 C1137 1.429 . S
C1143 C1144 1.523 . S
C1144 C1125 1.368 . S
C1144 C1138 1.368 . S
C1144 C1143 1.523 . S
C1145 C1129 1.429 . S
C1145 C1141 1.429 . S
C1145 C1146 1.523 . S
C1146 C1130 1.368 . S
C1146 C1142 1.368 . S
C1146 C1145 1.523 . S
H1147 C1122 0.950 . S
H1148 C1124 0.950 1_545 S
H1149 C1125 0.949 . S
H1150 C1127 0.950 . S
H1151 C1129 0.950 . S
C1152 C1153 1.349 . S
C1152 C1154 1.327 . S
C1152 H1177 0.950 . S
C1153 C1152 1.349 . S
C1153 C1169 1.349 . S
C1154 C1152 1.327 . S
C1154 C1173 1.429 . S
C1154 H1178 0.950 . S
C1155 C1172 1.574 . S
C1155 C1174 1.368 . S
C1155 H1179 0.949 . S
H1156 C1160 0.949 . S
C1157 C1158 1.349 . S
C1157 C1159 1.327 . S
C1157 H1180 0.950 . S
C1158 C1157 1.349 . S
C1158 C1170 1.349 . S
C1159 C1157 1.327 . S
C1159 C1175 1.429 . S
C1159 H1181 0.950 . S
C1160 H1156 0.949 . S
C1160 C1168 1.574 . S
C1160 C1176 1.368 . S
H1161 C1169 0.950 . S
H1162 C1167 0.950 . S
H1163 C1168 0.949 . S
H1164 C1170 0.950 . S
H1165 C1171 0.950 . S
H1166 C1172 0.949 . S
C1167 H1162 0.950 . S
C1167 C1169 1.327 . S
C1167 C1173 1.429 . S
C1168 C1160 1.574 . S
C1168 H1163 0.949 . S
C1168 C1174 1.368 . S
C1169 C1153 1.349 . S
C1169 H1161 0.950 . S
C1169 C1167 1.327 . S
C1170 C1158 1.349 . S
C1170 H1164 0.950 . S
C1170 C1171 1.327 . S
C1171 H1165 0.950 . S
C1171 C1170 1.327 . S
C1171 C1175 1.429 . S
C1172 C1155 1.574 . S
C1172 H1166 0.949 . S
C1172 C1176 1.368 . S
C1173 C1154 1.429 . S
C1173 C1167 1.429 . S
C1173 C1174 1.523 . S
C1174 C1155 1.368 . S
C1174 C1168 1.368 . S
C1174 C1173 1.523 . S
C1175 C1159 1.429 . S
C1175 C1171 1.429 . S
C1175 C1176 1.523 . S
C1176 C1160 1.368 . S
C1176 C1172 1.368 . S
C1176 C1175 1.523 . S
H1177 C1152 0.950 . S
H1178 C1154 0.950 . S
H1179 C1155 0.949 . S
H1180 C1157 0.950 . S
H1181 C1159 0.950 . S
C1182 C1183 1.349 . S
C1182 C1184 1.327 . S
C1182 H1207 0.950 . S
C1183 C1182 1.349 . S
C1183 C1199 1.349 . S
C1184 C1182 1.327 . S
C1184 C1203 1.429 . S
C1184 H1208 0.950 . S
C1185 C1202 1.574 . S
C1185 C1204 1.368 . S
C1185 H1209 0.949 . S
H1186 C1190 0.949 . S
C1187 C1188 1.349 1_455 S
C1187 C1189 1.327 . S
C1187 H1210 0.950 . S
C1188 C1187 1.349 1_655 S
C1188 C1200 1.349 . S
C1189 C1187 1.327 . S
C1189 C1205 1.429 1_455 S
C1189 H1211 0.950 . S
C1190 H1186 0.949 . S
C1190 C1198 1.574 . S
C1190 C1206 1.368 . S
H1191 C1199 0.950 . S
H1192 C1197 0.950 . S
H1193 C1198 0.949 . S
H1194 C1200 0.950 . S
H1195 C1201 0.950 . S
H1196 C1202 0.949 1_455 S
C1197 H1192 0.950 . S
C1197 C1199 1.327 . S
C1197 C1203 1.429 . S
C1198 C1190 1.574 . S
C1198 H1193 0.949 . S
C1198 C1204 1.368 . S
C1199 C1183 1.349 . S
C1199 H1191 0.950 . S
C1199 C1197 1.327 . S
C1200 C1188 1.349 . S
C1200 H1194 0.950 . S
C1200 C1201 1.327 . S
C1201 H1195 0.950 . S
C1201 C1200 1.327 . S
C1201 C1205 1.429 . S
C1202 C1185 1.574 . S
C1202 H1196 0.949 1_655 S
C1202 C1206 1.368 . S
C1203 C1184 1.429 . S
C1203 C1197 1.429 . S
C1203 C1204 1.523 . S
C1204 C1185 1.368 . S
C1204 C1198 1.368 . S
C1204 C1203 1.523 . S
C1205 C1189 1.429 1_655 S
C1205 C1201 1.429 . S
C1205 C1206 1.523 . S
C1206 C1190 1.368 . S
C1206 C1202 1.368 . S
C1206 C1205 1.523 . S
H1207 C1182 0.950 . S
H1208 C1184 0.950 . S
H1209 C1185 0.949 . S
H1210 C1187 0.950 . S
H1211 C1189 0.950 . S
C1212 C1213 1.349 . S
C1212 C1214 1.327 . S
C1212 H1237 0.950 . S
C1213 C1212 1.349 . S
C1213 C1229 1.349 . S
C1214 C1212 1.327 . S
C1214 C1233 1.429 . S
C1214 H1238 0.950 . S
C1215 C1232 1.574 . S
C1215 C1234 1.368 . S
C1215 H1239 0.949 . S
H1216 C1220 0.949 . S
C1217 C1218 1.349 . S
C1217 C1219 1.327 . S
C1217 H1240 0.950 . S
C1218 C1217 1.349 . S
C1218 C1230 1.349 . S
C1219 C1217 1.327 . S
C1219 C1235 1.429 . S
C1219 H1241 0.950 . S
C1220 H1216 0.949 . S
C1220 C1228 1.574 . S
C1220 C1236 1.368 . S
H1221 C1229 0.950 . S
H1222 C1227 0.950 . S
H1223 C1228 0.949 . S
H1224 C1230 0.950 . S
H1225 C1231 0.950 . S
H1226 C1232 0.949 . S
C1227 H1222 0.950 . S
C1227 C1229 1.327 . S
C1227 C1233 1.429 . S
C1228 C1220 1.574 . S
C1228 H1223 0.949 . S
C1228 C1234 1.368 . S
C1229 C1213 1.349 . S
C1229 H1221 0.950 . S
C1229 C1227 1.327 . S
C1230 C1218 1.349 . S
C1230 H1224 0.950 . S
C1230 C1231 1.327 . S
C1231 H1225 0.950 . S
C1231 C1230 1.327 . S
C1231 C1235 1.429 . S
C1232 C1215 1.574 . S
C1232 H1226 0.949 . S
C1232 C1236 1.368 . S
C1233 C1214 1.429 . S
C1233 C1227 1.429 . S
C1233 C1234 1.523 . S
C1234 C1215 1.368 . S
C1234 C1228 1.368 . S
C1234 C1233 1.523 . S
C1235 C1219 1.429 . S
C1235 C1231 1.429 . S
C1235 C1236 1.523 . S
C1236 C1220 1.368 . S
C1236 C1232 1.368 . S
C1236 C1235 1.523 . S
H1237 C1212 0.950 . S
H1238 C1214 0.950 . S
H1239 C1215 0.949 . S
H1240 C1217 0.950 . S
H1241 C1219 0.950 . S
C1242 C1243 1.349 . S
C1242 C1244 1.327 . S
C1242 H1267 0.950 . S
C1243 C1242 1.349 . S
C1243 C1259 1.349 . S
C1244 C1242 1.327 . S
C1244 C1263 1.429 . S
C1244 H1268 0.950 . S
C1245 C1262 1.574 . S
C1245 C1264 1.368 . S
C1245 H1269 0.949 . S
H1246 C1250 0.949 . S
C1247 C1248 1.349 1_556 S
C1247 C1249 1.327 . S
C1247 H1270 0.950 . S
C1248 C1247 1.349 1_554 S
C1248 C1260 1.349 . S
C1249 C1247 1.327 . S
C1249 C1265 1.429 . S
C1249 H1271 0.950 . S
C1250 H1246 0.949 . S
C1250 C1258 1.574 . S
C1250 C1266 1.368 . S
H1251 C1259 0.950 . S
H1252 C1257 0.950 . S
H1253 C1258 0.949 . S
H1254 C1260 0.950 . S
H1255 C1261 0.950 . S
H1256 C1262 0.949 . S
C1257 H1252 0.950 . S
C1257 C1259 1.327 . S
C1257 C1263 1.429 . S
C1258 C1250 1.574 . S
C1258 H1253 0.949 . S
C1258 C1264 1.368 . S
C1259 C1243 1.349 . S
C1259 H1251 0.950 . S
C1259 C1257 1.327 . S
C1260 C1248 1.349 . S
C1260 H1254 0.950 . S
C1260 C1261 1.327 1_554 S
C1261 H1255 0.950 . S
C1261 C1260 1.327 1_556 S
C1261 C1265 1.429 . S
C1262 C1245 1.574 . S
C1262 H1256 0.949 . S
C1262 C1266 1.368 . S
C1263 C1244 1.429 . S
C1263 C1257 1.429 . S
C1263 C1264 1.523 . S
C1264 C1245 1.368 . S
C1264 C1258 1.368 . S
C1264 C1263 1.523 . S
C1265 C1249 1.429 . S
C1265 C1261 1.429 . S
C1265 C1266 1.523 . S
C1266 C1250 1.368 . S
C1266 C1262 1.368 . S
C1266 C1265 1.523 . S
H1267 C1242 0.950 . S
H1268 C1244 0.950 . S
H1269 C1245 0.949 . S
H1270 C1247 0.950 . S
H1271 C1249 0.950 . S
C1272 C1273 1.349 1_556 S
C1272 C1274 1.327 . S
C1272 H1297 0.950 . S
C1273 C1272 1.349 1_554 S
C1273 C1289 1.349 . S
C1274 C1272 1.327 . S
C1274 C1293 1.429 . S
C1274 H1298 0.950 . S
C1275 C1292 1.574 . S
C1275 C1294 1.368 . S
C1275 H1299 0.949 . S
H1276 C1280 0.949 . S
C1277 C1278 1.349 . S
C1277 C1279 1.327 . S
C1277 H1300 0.950 . S
C1278 C1277 1.349 . S
C1278 C1290 1.349 . S
C1279 C1277 1.327 . S
C1279 C1295 1.429 . S
C1279 H1301 0.950 . S
C1280 H1276 0.949 . S
C1280 C1288 1.574 . S
C1280 C1296 1.368 . S
H1281 C1289 0.950 . S
H1282 C1287 0.950 . S
H1283 C1288 0.949 . S
H1284 C1290 0.950 . S
H1285 C1291 0.950 . S
H1286 C1292 0.949 . S
C1287 H1282 0.950 . S
C1287 C1289 1.327 1_556 S
C1287 C1293 1.429 . S
C1288 C1280 1.574 . S
C1288 H1283 0.949 . S
C1288 C1294 1.368 . S
C1289 C1273 1.349 . S
C1289 H1281 0.950 . S
C1289 C1287 1.327 1_554 S
C1290 C1278 1.349 . S
C1290 H1284 0.950 . S
C1290 C1291 1.327 . S
C1291 H1285 0.950 . S
C1291 C1290 1.327 . S
C1291 C1295 1.429 . S
C1292 C1275 1.574 . S
C1292 H1286 0.949 . S
C1292 C1296 1.368 . S
C1293 C1274 1.429 . S
C1293 C1287 1.429 . S
C1293 C1294 1.523 . S
C1294 C1275 1.368 . S
C1294 C1288 1.368 . S
C1294 C1293 1.523 . S
C1295 C1279 1.429 . S
C1295 C1291 1.429 . S
C1295 C1296 1.523 . S
C1296 C1280 1.368 . S
C1296 C1292 1.368 . S
C1296 C1295 1.523 . S
H1297 C1272 0.950 . S
H1298 C1274 0.950 . S
H1299 C1275 0.949 . S
H1300 C1277 0.950 . S
H1301 C1279 0.950 . S
C1302 C1303 1.349 1_556 S
C1302 C1304 1.327 . S
C1302 H1327 0.950 . S
C1303 C1302 1.349 1_554 S
C1303 C1319 1.349 . S
C1304 C1302 1.327 . S
C1304 C1323 1.429 . S
C1304 H1328 0.950 . S
C1305 C1322 1.574 . S
C1305 C1324 1.368 . S
C1305 H1329 0.949 . S
H1306 C1310 0.949 . S
C1307 C1308 1.349 . S
C1307 C1309 1.327 . S
C1307 H1330 0.950 1_545 S
C1308 C1307 1.349 . S
C1308 C1320 1.349 . S
C1309 C1307 1.327 . S
C1309 C1325 1.429 . S
C1309 H1331 0.950 . S
C1310 H1306 0.949 . S
C1310 C1318 1.574 . S
C1310 C1326 1.368 . S
H1311 C1319 0.950 . S
H1312 C1317 0.950 . S
H1313 C1318 0.949 . S
H1314 C1320 0.950 . S
H1315 C1321 0.950 . S
H1316 C1322 0.949 . S
C1317 H1312 0.950 . S
C1317 C1319 1.327 1_556 S
C1317 C1323 1.429 . S
C1318 C1310 1.574 . S
C1318 H1313 0.949 . S
C1318 C1324 1.368 . S
C1319 C1303 1.349 . S
C1319 H1311 0.950 . S
C1319 C1317 1.327 1_554 S
C1320 C1308 1.349 . S
C1320 H1314 0.950 . S
C1320 C1321 1.327 . S
C1321 H1315 0.950 . S
C1321 C1320 1.327 . S
C1321 C1325 1.429 . S
C1322 C1305 1.574 . S
C1322 H1316 0.949 . S
C1322 C1326 1.368 . S
C1323 C1304 1.429 . S
C1323 C1317 1.429 . S
C1323 C1324 1.523 . S
C1324 C1305 1.368 . S
C1324 C1318 1.368 . S
C1324 C1323 1.523 . S
C1325 C1309 1.429 . S
C1325 C1321 1.429 . S
C1325 C1326 1.523 . S
C1326 C1310 1.368 . S
C1326 C1322 1.368 . S
C1326 C1325 1.523 . S
H1327 C1302 0.950 . S
H1328 C1304 0.950 . S
H1329 C1305 0.949 . S
H1330 C1307 0.950 1_565 S
H1331 C1309 0.950 . S
C1332 C1333 1.349 . S
C1332 C1334 1.327 . S
C1332 H1357 0.950 . S
C1333 C1332 1.349 . S
C1333 C1349 1.349 . S
C1334 C1332 1.327 . S
C1334 C1353 1.429 . S
C1334 H1358 0.950 . S
C1335 C1352 1.574 . S
C1335 C1354 1.368 . S
C1335 H1359 0.949 . S
H1336 C1340 0.949 . S
C1337 C1338 1.349 . S
C1337 C1339 1.327 . S
C1337 H1360 0.950 . S
C1338 C1337 1.349 . S
C1338 C1350 1.349 . S
C1339 C1337 1.327 . S
C1339 C1355 1.429 . S
C1339 H1361 0.950 . S
C1340 H1336 0.949 . S
C1340 C1348 1.574 . S
C1340 C1356 1.368 . S
H1341 C1349 0.950 1_545 S
H1342 C1347 0.940 1_545 S
H1343 C1348 0.949 . S
H1344 C1350 0.950 . S
H1345 C1351 0.950 . S
H1346 C1352 0.949 . S
C1347 H1342 0.940 1_565 S
C1347 C1349 1.327 . S
C1347 C1353 1.429 . S
C1348 C1340 1.574 . S
C1348 H1343 0.949 . S
C1348 C1354 1.368 . S
C1349 C1333 1.349 . S
C1349 H1341 0.950 1_565 S
C1349 C1347 1.327 . S
C1350 C1338 1.349 . S
C1350 H1344 0.950 . S
C1350 C1351 1.327 . S
C1351 H1345 0.950 . S
C1351 C1350 1.327 . S
C1351 C1355 1.429 . S
C1352 C1335 1.574 . S
C1352 H1346 0.949 . S
C1352 C1356 1.368 . S
C1353 C1334 1.429 . S
C1353 C1347 1.429 . S
C1353 C1354 1.523 . S
C1354 C1335 1.368 . S
C1354 C1348 1.368 . S
C1354 C1353 1.523 . S
C1355 C1339 1.429 . S
C1355 C1351 1.429 . S
C1355 C1356 1.523 . S
C1356 C1340 1.368 . S
C1356 C1352 1.368 . S
C1356 C1355 1.523 . S
H1357 C1332 0.950 . S
H1358 C1334 0.950 . S
H1359 C1335 0.949 . S
H1360 C1337 0.950 . S
H1361 C1339 0.950 . S
C1362 C1363 1.349 . S
C1362 C1364 1.327 . S
C1362 H1387 0.950 . S
C1363 C1362 1.349 . S
C1363 C1379 1.349 . S
C1364 C1362 1.327 . S
C1364 C1383 1.429 . S
C1364 H1388 0.950 . S
C1365 C1382 1.574 . S
C1365 C1384 1.368 . S
C1365 H1389 0.949 . S
H1366 C1370 0.949 . S
C1367 C1368 1.349 . S
C1367 C1369 1.327 . S
C1367 H1390 0.950 . S
C1368 C1367 1.349 . S
C1368 C1380 1.349 . S
C1369 C1367 1.327 . S
C1369 C1385 1.429 . S
C1369 H1391 0.950 . S
C1370 H1366 0.949 . S
C1370 C1378 1.574 . S
C1370 C1386 1.368 . S
H1371 C1379 0.950 . S
H1372 C1377 0.950 . S
H1373 C1378 0.949 . S
H1374 C1380 0.950 . S
H1375 C1381 0.950 . S
H1376 C1382 0.949 . S
C1377 H1372 0.950 . S
C1377 C1379 1.327 . S
C1377 C1383 1.429 . S
C1378 C1370 1.574 . S
C1378 H1373 0.949 . S
C1378 C1384 1.368 . S
C1379 C1363 1.349 . S
C1379 H1371 0.950 . S
C1379 C1377 1.327 . S
C1380 C1368 1.349 . S
C1380 H1374 0.950 . S
C1380 C1381 1.327 . S
C1381 H1375 0.950 . S
C1381 C1380 1.327 . S
C1381 C1385 1.429 . S
C1382 C1365 1.574 . S
C1382 H1376 0.949 . S
C1382 C1386 1.368 . S
C1383 C1364 1.429 . S
C1383 C1377 1.429 . S
C1383 C1384 1.523 . S
C1384 C1365 1.368 . S
C1384 C1378 1.368 . S
C1384 C1383 1.523 . S
C1385 C1369 1.429 . S
C1385 C1381 1.429 . S
C1385 C1386 1.523 . S
C1386 C1370 1.368 . S
C1386 C1382 1.368 . S
C1386 C1385 1.523 . S
H1387 C1362 0.950 . S
H1388 C1364 0.950 . S
H1389 C1365 0.949 . S
H1390 C1367 0.950 . S
H1391 C1369 0.950 . S
C1392 C1393 1.349 . S
C1392 C1394 1.327 . S
C1392 H1417 0.950 . S
C1393 C1392 1.349 . S
C1393 C1409 1.349 . S
C1394 C1392 1.327 . S
C1394 C1413 1.429 . S
C1394 H1418 0.950 . S
C1395 C1412 1.574 . S
C1395 C1414 1.368 . S
C1395 H1419 0.949 . S
H1396 C1400 0.949 . S
C1397 C1398 1.349 . S
C1397 C1399 1.327 . S
C1397 H1420 0.950 . S
C1398 C1397 1.349 . S
C1398 C1410 1.349 . S
C1399 C1397 1.327 . S
C1399 C1415 1.429 . S
C1399 H1421 0.950 . S
C1400 H1396 0.949 . S
C1400 C1408 1.574 . S
C1400 C1416 1.368 . S
H1401 C1409 0.950 . S
H1402 C1407 0.950 . S
H1403 C1408 0.949 . S
H1404 C1410 0.950 . S
H1405 C1411 0.950 . S
H1406 C1412 0.949 . S
C1407 H1402 0.950 . S
C1407 C1409 1.327 . S
C1407 C1413 1.429 . S
C1408 C1400 1.574 . S
C1408 H1403 0.949 . S
C1408 C1414 1.368 . S
C1409 C1393 1.349 . S
C1409 H1401 0.950 . S
C1409 C1407 1.327 . S
C1410 C1398 1.349 . S
C1410 H1404 0.950 . S
C1410 C1411 1.327 . S
C1411 H1405 0.950 . S
C1411 C1410 1.327 . S
C1411 C1415 1.429 . S
C1412 C1395 1.574 . S
C1412 H1406 0.949 . S
C1412 C1416 1.368 . S
C1413 C1394 1.429 . S
C1413 C1407 1.429 . S
C1413 C1414 1.523 . S
C1414 C1395 1.368 . S
C1414 C1408 1.368 . S
C1414 C1413 1.523 . S
C1415 C1399 1.429 . S
C1415 C1411 1.429 . S
C1415 C1416 1.523 . S
C1416 C1400 1.368 . S
C1416 C1412 1.368 . S
C1416 C1415 1.523 . S
H1417 C1392 0.950 . S
H1418 C1394 0.950 . S
H1419 C1395 0.949 . S
H1420 C1397 0.950 . S
H1421 C1399 0.950 . S
C1422 C1423 1.349 . S
C1422 C1424 1.327 . S
C1422 H1447 0.950 . S
C1423 C1422 1.349 . S
C1423 C1439 1.349 . S
C1424 C1422 1.327 . S
C1424 C1443 1.429 . S
C1424 H1448 0.950 . S
C1425 C1442 1.574 . S
C1425 C1444 1.368 . S
C1425 H1449 0.949 . S
H1426 C1430 0.949 . S
C1427 C1428 1.349 . S
C1427 C1429 1.327 . S
C1427 H1450 0.950 . S
C1428 C1427 1.349 . S
C1428 C1440 1.349 . S
C1429 C1427 1.327 . S
C1429 C1445 1.429 . S
C1429 H1451 0.950 . S
C1430 H1426 0.949 . S
C1430 C1438 1.574 . S
C1430 C1446 1.368 . S
H1431 C1439 0.950 . S
H1432 C1437 0.950 . S
H1433 C1438 0.949 . S
H1434 C1440 0.950 . S
H1435 C1441 0.950 . S
H1436 C1442 0.949 . S
C1437 H1432 0.950 . S
C1437 C1439 1.327 . S
C1437 C1443 1.429 . S
C1438 C1430 1.574 . S
C1438 H1433 0.949 . S
C1438 C1444 1.368 . S
C1439 C1423 1.349 . S
C1439 H1431 0.950 . S
C1439 C1437 1.327 . S
C1440 C1428 1.349 . S
C1440 H1434 0.950 . S
C1440 C1441 1.327 . S
C1441 H1435 0.950 . S
C1441 C1440 1.327 . S
C1441 C1445 1.429 . S
C1442 C1425 1.574 . S
C1442 H1436 0.949 . S
C1442 C1446 1.368 . S
C1443 C1424 1.429 . S
C1443 C1437 1.429 . S
C1443 C1444 1.523 . S
C1444 C1425 1.368 . S
C1444 C1438 1.368 . S
C1444 C1443 1.523 . S
C1445 C1429 1.429 . S
C1445 C1441 1.429 . S
C1445 C1446 1.523 . S
C1446 C1430 1.368 . S
C1446 C1442 1.368 . S
C1446 C1445 1.523 . S
H1447 C1422 0.950 . S
H1448 C1424 0.950 . S
H1449 C1425 0.949 . S
H1450 C1427 0.950 . S
H1451 C1429 0.950 . S
C1452 C1453 1.349 . S
C1452 C1454 1.327 . S
C1452 H1477 0.950 . S
C1453 C1452 1.349 . S
C1453 C1469 1.349 . S
C1454 C1452 1.327 . S
C1454 C1473 1.429 . S
C1454 H1478 0.950 . S
C1455 C1472 1.574 . S
C1455 C1474 1.368 . S
C1455 H1479 0.949 . S
H1456 C1460 0.949 . S
C1457 C1458 1.349 . S
C1457 C1459 1.327 . S
C1457 H1480 0.950 . S
C1458 C1457 1.349 . S
C1458 C1470 1.349 . S
C1459 C1457 1.327 . S
C1459 C1475 1.409 1_565 S
C1459 H1481 0.950 . S
C1460 H1456 0.949 . S
C1460 C1468 1.574 . S
C1460 C1476 1.368 . S
H1461 C1469 0.950 . S
H1462 C1467 0.950 . S
H1463 C1468 0.949 . S
H1464 C1470 0.950 . S
H1465 C1471 0.950 . S
H1466 C1472 0.964 . S
C1467 H1462 0.950 . S
C1467 C1469 1.327 . S
C1467 C1473 1.429 . S
C1468 C1460 1.574 . S
C1468 H1463 0.949 . S
C1468 C1474 1.368 . S
C1469 C1453 1.349 . S
C1469 H1461 0.950 . S
C1469 C1467 1.327 . S
C1470 C1458 1.349 . S
C1470 H1464 0.950 . S
C1470 C1471 1.327 1_565 S
C1471 H1465 0.950 . S
C1471 C1470 1.327 1_545 S
C1471 C1475 1.437 . S
C1472 C1455 1.574 . S
C1472 H1466 0.964 . S
C1472 C1476 1.368 . S
C1473 C1454 1.429 . S
C1473 C1467 1.429 . S
C1473 C1474 1.523 . S
C1474 C1455 1.368 . S
C1474 C1468 1.368 . S
C1474 C1473 1.523 . S
C1475 C1459 1.409 1_545 S
C1475 C1471 1.437 . S
C1475 C1476 1.533 . S
C1476 C1460 1.368 . S
C1476 C1472 1.368 . S
C1476 C1475 1.533 . S
H1477 C1452 0.950 . S
H1478 C1454 0.950 . S
H1479 C1455 0.949 . S
H1480 C1457 0.950 . S
H1481 C1459 0.950 . S
C1482 C1483 1.349 . S
C1482 C1484 1.327 . S
C1482 H1507 0.950 . S
C1483 C1482 1.349 . S
C1483 C1499 1.349 . S
C1484 C1482 1.327 . S
C1484 C1503 1.429 . S
C1484 H1508 0.950 . S
C1485 C1502 1.574 . S
C1485 C1504 1.368 . S
C1485 H1509 0.949 . S
H1486 C1490 0.949 . S
C1487 C1488 1.349 . S
C1487 C1489 1.327 . S
C1487 H1510 0.950 . S
C1488 C1487 1.349 . S
C1488 C1500 1.349 . S
C1489 C1487 1.327 . S
C1489 C1505 1.429 . S
C1489 H1511 0.950 1_655 S
C1490 H1486 0.949 . S
C1490 C1498 1.574 1_655 S
C1490 C1506 1.368 . S
H1491 C1499 0.950 . S
H1492 C1497 0.950 . S
H1493 C1498 0.949 1_655 S
H1494 C1500 0.950 . S
H1495 C1501 0.950 . S
H1496 C1502 0.949 . S
C1497 H1492 0.950 . S
C1497 C1499 1.327 . S
C1497 C1503 1.429 . S
C1498 C1490 1.574 1_455 S
C1498 H1493 0.949 1_455 S
C1498 C1504 1.368 . S
C1499 C1483 1.349 . S
C1499 H1491 0.950 . S
C1499 C1497 1.327 . S
C1500 C1488 1.349 . S
C1500 H1494 0.950 . S
C1500 C1501 1.327 . S
C1501 H1495 0.950 . S
C1501 C1500 1.327 . S
C1501 C1505 1.429 . S
C1502 C1485 1.574 . S
C1502 H1496 0.949 . S
C1502 C1506 1.368 1_455 S
C1503 C1484 1.429 . S
C1503 C1497 1.429 . S
C1503 C1504 1.523 . S
C1504 C1485 1.368 . S
C1504 C1498 1.368 . S
C1504 C1503 1.523 . S
C1505 C1489 1.429 . S
C1505 C1501 1.429 . S
C1505 C1506 1.523 . S
C1506 C1490 1.368 . S
C1506 C1502 1.368 1_655 S
C1506 C1505 1.523 . S
H1507 C1482 0.950 . S
H1508 C1484 0.950 . S
H1509 C1485 0.949 . S
H1510 C1487 0.950 . S
H1511 C1489 0.950 1_455 S
C1512 C1513 1.349 . S
C1512 C1514 1.327 . S
C1512 H1537 0.950 . S
C1513 C1512 1.349 . S
C1513 C1529 1.349 . S
C1514 C1512 1.327 . S
C1514 C1533 1.429 . S
C1514 H1538 0.950 . S
C1515 C1532 1.574 . S
C1515 C1534 1.368 . S
C1515 H1539 0.949 . S
H1516 C1520 0.949 . S
C1517 C1518 1.349 . S
C1517 C1519 1.327 . S
C1517 H1540 0.950 . S
C1518 C1517 1.349 . S
C1518 C1530 1.349 . S
C1519 C1517 1.327 . S
C1519 C1535 1.429 . S
C1519 H1541 0.950 . S
C1520 H1516 0.949 . S
C1520 C1528 1.574 . S
C1520 C1536 1.368 . S
H1521 C1529 0.950 . S
H1522 C1527 0.950 . S
H1523 C1528 0.949 . S
H1524 C1530 0.950 . S
H1525 C1531 0.950 . S
H1526 C1532 0.949 . S
C1527 H1522 0.950 . S
C1527 C1529 1.327 . S
C1527 C1533 1.429 . S
C1528 C1520 1.574 . S
C1528 H1523 0.949 . S
C1528 C1534 1.368 . S
C1529 C1513 1.349 . S
C1529 H1521 0.950 . S
C1529 C1527 1.327 . S
C1530 C1518 1.349 . S
C1530 H1524 0.950 . S
C1530 C1531 1.327 . S
C1531 H1525 0.950 . S
C1531 C1530 1.327 . S
C1531 C1535 1.429 . S
C1532 C1515 1.574 . S
C1532 H1526 0.949 . S
C1532 C1536 1.368 . S
C1533 C1514 1.429 . S
C1533 C1527 1.429 . S
C1533 C1534 1.523 . S
C1534 C1515 1.368 . S
C1534 C1528 1.368 . S
C1534 C1533 1.523 . S
C1535 C1519 1.429 . S
C1535 C1531 1.429 . S
C1535 C1536 1.523 . S
C1536 C1520 1.368 . S
C1536 C1532 1.368 . S
C1536 C1535 1.523 . S
H1537 C1512 0.950 . S
H1538 C1514 0.950 . S
H1539 C1515 0.949 . S
H1540 C1517 0.950 . S
H1541 C1519 0.950 . S
C1542 C1543 1.349 . S
C1542 C1544 1.327 . S
C1542 H1567 0.950 . S
C1543 C1542 1.349 . S
C1543 C1559 1.349 . S
C1544 C1542 1.327 . S
C1544 C1563 1.429 . S
C1544 H1568 0.950 . S
C1545 C1562 1.574 . S
C1545 C1564 1.368 1_565 S
C1545 H1569 0.949 . S
H1546 C1550 0.949 . S
C1547 C1548 1.349 . S
C1547 C1549 1.327 . S
C1547 H1570 0.950 . S
C1548 C1547 1.349 . S
C1548 C1560 1.349 . S
C1549 C1547 1.327 . S
C1549 C1565 1.429 . S
C1549 H1571 0.950 . S
C1550 H1546 0.949 . S
C1550 C1558 1.574 . S
C1550 C1566 1.368 1_545 S
H1551 C1559 0.950 . S
H1552 C1557 0.950 1_565 S
H1553 C1558 0.949 . S
H1554 C1560 0.950 . S
H1555 C1561 0.950 . S
H1556 C1562 0.949 . S
C1557 H1552 0.950 1_545 S
C1557 C1559 1.327 . S
C1557 C1563 1.429 . S
C1558 C1550 1.574 . S
C1558 H1553 0.949 . S
C1558 C1564 1.368 . S
C1559 C1543 1.349 . S
C1559 H1551 0.950 . S
C1559 C1557 1.327 . S
C1560 C1548 1.349 . S
C1560 H1554 0.950 . S
C1560 C1561 1.327 . S
C1561 H1555 0.950 . S
C1561 C1560 1.327 . S
C1561 C1565 1.429 . S
C1562 C1545 1.574 . S
C1562 H1556 0.949 . S
C1562 C1566 1.368 . S
C1563 C1544 1.429 . S
C1563 C1557 1.429 . S
C1563 C1564 1.523 . S
C1564 C1545 1.368 1_545 S
C1564 C1558 1.368 . S
C1564 C1563 1.523 . S
C1565 C1549 1.429 . S
C1565 C1561 1.429 . S
C1565 C1566 1.523 . S
C1566 C1550 1.368 1_565 S
C1566 C1562 1.368 . S
C1566 C1565 1.523 . S
H1567 C1542 0.950 . S
H1568 C1544 0.950 . S
H1569 C1545 0.949 . S
H1570 C1547 0.950 . S
H1571 C1549 0.950 . S
C1572 C1573 1.349 . S
C1572 C1574 1.327 . S
C1572 H1597 0.950 . S
C1573 C1572 1.349 . S
C1573 C1589 1.349 . S
C1574 C1572 1.327 . S
C1574 C1593 1.429 . S
C1574 H1598 0.950 . S
C1575 C1592 1.574 . S
C1575 C1594 1.368 . S
C1575 H1599 0.949 . S
H1576 C1580 0.949 . S
C1577 C1578 1.349 . S
C1577 C1579 1.327 . S
C1577 H1600 0.950 . S
C1578 C1577 1.349 . S
C1578 C1590 1.349 . S
C1579 C1577 1.327 . S
C1579 C1595 1.429 . S
C1579 H1601 0.950 1_655 S
C1580 H1576 0.949 . S
C1580 C1588 1.574 1_655 S
C1580 C1596 1.349 1_655 S
H1581 C1589 0.950 . S
H1582 C1587 0.950 . S
H1583 C1588 0.949 . S
H1584 C1590 0.950 . S
H1585 C1591 0.950 . S
H1586 C1592 0.949 . S
C1587 H1582 0.950 . S
C1587 C1589 1.327 . S
C1587 C1593 1.429 . S
C1588 C1580 1.574 1_455 S
C1588 H1583 0.949 . S
C1588 C1594 1.368 . S
C1589 C1573 1.349 . S
C1589 H1581 0.950 . S
C1589 C1587 1.327 . S
C1590 C1578 1.349 . S
C1590 H1584 0.950 . S
C1590 C1591 1.327 . S
C1591 H1585 0.950 . S
C1591 C1590 1.327 . S
C1591 C1595 1.429 . S
C1592 C1575 1.574 . S
C1592 H1586 0.949 . S
C1592 C1596 1.398 . S
C1593 C1574 1.429 . S
C1593 C1587 1.429 . S
C1593 C1594 1.523 . S
C1594 C1575 1.368 . S
C1594 C1588 1.368 . S
C1594 C1593 1.523 . S
C1595 C1579 1.429 . S
C1595 C1591 1.429 . S
C1595 C1596 1.510 1_655 S
C1596 C1580 1.349 1_455 S
C1596 C1592 1.398 . S
C1596 C1595 1.510 1_455 S
H1597 C1572 0.950 . S
H1598 C1574 0.950 . S
H1599 C1575 0.949 . S
H1600 C1577 0.950 . S
H1601 C1579 0.950 1_455 S
C1602 C1603 1.349 . S
C1602 C1604 1.327 . S
C1602 H1627 0.950 . S
C1603 C1602 1.349 . S
C1603 C1619 1.349 . S
C1604 C1602 1.327 . S
C1604 C1623 1.429 . S
C1604 H1628 0.950 . S
C1605 C1622 1.574 . S
C1605 C1624 1.368 . S
C1605 H1629 0.949 . S
H1606 C1610 0.949 . S
C1607 C1608 1.349 . S
C1607 C1609 1.327 . S
C1607 H1630 0.950 . S
C1608 C1607 1.349 . S
C1608 C1620 1.349 . S
C1609 C1607 1.327 . S
C1609 C1625 1.429 . S
C1609 H1631 0.950 . S
C1610 H1606 0.949 . S
C1610 C1618 1.574 . S
C1610 C1626 1.368 . S
H1611 C1619 0.950 . S
H1612 C1617 0.950 . S
H1613 C1618 0.949 . S
H1614 C1620 0.950 . S
H1615 C1621 0.950 . S
H1616 C1622 0.949 . S
C1617 H1612 0.950 . S
C1617 C1619 1.327 . S
C1617 C1623 1.429 . S
C1618 C1610 1.574 . S
C1618 H1613 0.949 . S
C1618 C1624 1.368 . S
C1619 C1603 1.349 . S
C1619 H1611 0.950 . S
C1619 C1617 1.327 . S
C1620 C1608 1.349 . S
C1620 H1614 0.950 . S
C1620 C1621 1.327 . S
C1621 H1615 0.950 . S
C1621 C1620 1.327 . S
C1621 C1625 1.429 . S
C1622 C1605 1.574 . S
C1622 H1616 0.949 . S
C1622 C1626 1.368 . S
C1623 C1604 1.429 . S
C1623 C1617 1.429 . S
C1623 C1624 1.523 . S
C1624 C1605 1.368 . S
C1624 C1618 1.368 . S
C1624 C1623 1.523 . S
C1625 C1609 1.429 . S
C1625 C1621 1.429 . S
C1625 C1626 1.523 . S
C1626 C1610 1.368 . S
C1626 C1622 1.368 . S
C1626 C1625 1.523 . S
H1627 C1602 0.950 . S
H1628 C1604 0.950 . S
H1629 C1605 0.949 . S
H1630 C1607 0.950 . S
H1631 C1609 0.950 . S
C1632 C1633 1.349 . S
C1632 C1634 1.327 . S
C1632 H1657 0.950 . S
C1633 C1632 1.349 . S
C1633 C1649 1.349 . S
C1634 C1632 1.327 . S
C1634 C1653 1.429 . S
C1634 H1658 0.950 . S
C1635 C1652 1.574 . S
C1635 C1654 1.368 . S
C1635 H1659 0.949 . S
H1636 C1640 0.949 . S
C1637 C1638 1.349 . S
C1637 C1639 1.327 . S
C1637 H1660 0.950 . S
C1638 C1637 1.349 . S
C1638 C1650 1.349 . S
C1639 C1637 1.327 . S
C1639 C1655 1.429 . S
C1639 H1661 0.950 . S
C1640 H1636 0.949 . S
C1640 C1648 1.574 . S
C1640 C1656 1.368 . S
H1641 C1649 0.950 . S
H1642 C1647 0.950 . S
H1643 C1648 0.949 . S
H1644 C1650 0.950 . S
H1645 C1651 0.950 . S
H1646 C1652 0.949 . S
C1647 H1642 0.950 . S
C1647 C1649 1.327 . S
C1647 C1653 1.429 . S
C1648 C1640 1.574 . S
C1648 H1643 0.949 . S
C1648 C1654 1.368 . S
C1649 C1633 1.349 . S
C1649 H1641 0.950 . S
C1649 C1647 1.327 . S
C1650 C1638 1.349 . S
C1650 H1644 0.950 . S
C1650 C1651 1.327 . S
C1651 H1645 0.950 . S
C1651 C1650 1.327 . S
C1651 C1655 1.429 . S
C1652 C1635 1.574 . S
C1652 H1646 0.949 . S
C1652 C1656 1.368 . S
C1653 C1634 1.429 . S
C1653 C1647 1.429 . S
C1653 C1654 1.523 . S
C1654 C1635 1.368 . S
C1654 C1648 1.368 . S
C1654 C1653 1.523 . S
C1655 C1639 1.429 . S
C1655 C1651 1.429 . S
C1655 C1656 1.523 . S
C1656 C1640 1.368 . S
C1656 C1652 1.368 . S
C1656 C1655 1.523 . S
H1657 C1632 0.950 . S
H1658 C1634 0.950 . S
H1659 C1635 0.949 . S
H1660 C1637 0.950 . S
H1661 C1639 0.950 . S
C1662 C1663 1.349 . S
C1662 C1664 1.327 . S
C1662 H1687 0.950 . S
C1663 C1662 1.349 . S
C1663 C1679 1.349 . S
C1664 C1662 1.327 . S
C1664 C1683 1.429 . S
C1664 H1688 0.950 . S
C1665 C1682 1.574 . S
C1665 C1684 1.368 . S
C1665 H1689 0.949 . S
H1666 C1670 0.949 . S
C1667 C1668 1.349 . S
C1667 C1669 1.327 . S
C1667 H1690 0.950 . S
C1668 C1667 1.349 . S
C1668 C1680 1.349 . S
C1669 C1667 1.327 . S
C1669 C1685 1.429 . S
C1669 H1691 0.950 . S
C1670 H1666 0.949 . S
C1670 C1678 1.574 . S
C1670 C1686 1.368 . S
H1671 C1679 0.950 . S
H1672 C1677 0.950 . S
H1673 C1678 0.949 . S
H1674 C1680 0.950 . S
H1675 C1681 0.950 . S
H1676 C1682 0.949 . S
C1677 H1672 0.950 . S
C1677 C1679 1.327 . S
C1677 C1683 1.429 . S
C1678 C1670 1.574 . S
C1678 H1673 0.949 . S
C1678 C1684 1.368 . S
C1679 C1663 1.349 . S
C1679 H1671 0.950 . S
C1679 C1677 1.327 . S
C1680 C1668 1.349 . S
C1680 H1674 0.950 . S
C1680 C1681 1.327 . S
C1681 H1675 0.950 . S
C1681 C1680 1.327 . S
C1681 C1685 1.429 . S
C1682 C1665 1.574 . S
C1682 H1676 0.949 . S
C1682 C1686 1.368 . S
C1683 C1664 1.429 . S
C1683 C1677 1.429 . S
C1683 C1684 1.523 . S
C1684 C1665 1.368 . S
C1684 C1678 1.368 . S
C1684 C1683 1.523 . S
C1685 C1669 1.429 . S
C1685 C1681 1.429 . S
C1685 C1686 1.523 . S
C1686 C1670 1.368 . S
C1686 C1682 1.368 . S
C1686 C1685 1.523 . S
H1687 C1662 0.950 . S
H1688 C1664 0.950 . S
H1689 C1665 0.949 . S
H1690 C1667 0.950 . S
H1691 C1669 0.950 . S
C1692 C1693 1.349 . S
C1692 C1694 1.327 . S
C1692 H1717 0.950 . S
C1693 C1692 1.349 . S
C1693 C1709 1.349 . S
C1694 C1692 1.327 . S
C1694 C1713 1.429 . S
C1694 H1718 0.950 . S
C1695 C1712 1.574 . S
C1695 C1714 1.368 . S
C1695 H1719 0.949 . S
H1696 C1700 0.949 . S
C1697 C1698 1.349 . S
C1697 C1699 1.327 . S
C1697 H1720 0.950 . S
C1698 C1697 1.349 . S
C1698 C1710 1.349 . S
C1699 C1697 1.327 . S
C1699 C1715 1.429 . S
C1699 H1721 0.950 . S
C1700 H1696 0.949 . S
C1700 C1708 1.574 . S
C1700 C1716 1.368 . S
H1701 C1709 0.950 . S
H1702 C1707 0.950 . S
H1703 C1708 0.949 . S
H1704 C1710 0.950 . S
H1705 C1711 0.950 . S
H1706 C1712 0.949 . S
C1707 H1702 0.950 . S
C1707 C1709 1.327 . S
C1707 C1713 1.429 . S
C1708 C1700 1.574 . S
C1708 H1703 0.949 . S
C1708 C1714 1.368 . S
C1709 C1693 1.349 . S
C1709 H1701 0.950 . S
C1709 C1707 1.327 . S
C1710 C1698 1.349 . S
C1710 H1704 0.950 . S
C1710 C1711 1.327 . S
C1711 H1705 0.950 . S
C1711 C1710 1.327 . S
C1711 C1715 1.429 . S
C1712 C1695 1.574 . S
C1712 H1706 0.949 . S
C1712 C1716 1.368 . S
C1713 C1694 1.429 . S
C1713 C1707 1.429 . S
C1713 C1714 1.523 . S
C1714 C1695 1.368 . S
C1714 C1708 1.368 . S
C1714 C1713 1.523 . S
C1715 C1699 1.429 . S
C1715 C1711 1.429 . S
C1715 C1716 1.523 . S
C1716 C1700 1.368 . S
C1716 C1712 1.368 . S
C1716 C1715 1.523 . S
H1717 C1692 0.950 . S
H1718 C1694 0.950 . S
H1719 C1695 0.949 . S
H1720 C1697 0.950 . S
H1721 C1699 0.950 . S
C1722 C1723 1.349 . S
C1722 C1724 1.327 . S
C1722 H1747 0.950 . S
C1723 C1722 1.349 . S
C1723 C1739 1.349 . S
C1724 C1722 1.327 . S
C1724 C1743 1.429 . S
C1724 H1748 0.950 . S
C1725 C1742 1.574 . S
C1725 C1744 1.368 . S
C1725 H1749 0.949 . S
H1726 C1730 0.949 . S
C1727 C1728 1.349 . S
C1727 C1729 1.327 . S
C1727 H1750 0.950 . S
C1728 C1727 1.349 . S
C1728 C1740 1.349 . S
C1729 C1727 1.327 . S
C1729 C1745 1.429 . S
C1729 H1751 0.950 . S
C1730 H1726 0.949 . S
C1730 C1738 1.574 . S
C1730 C1746 1.368 . S
H1731 C1739 0.950 . S
H1732 C1737 0.950 . S
H1733 C1738 0.949 . S
H1734 C1740 0.950 . S
H1735 C1741 0.950 . S
H1736 C1742 0.949 . S
C1737 H1732 0.950 . S
C1737 C1739 1.327 . S
C1737 C1743 1.429 . S
C1738 C1730 1.574 . S
C1738 H1733 0.949 . S
C1738 C1744 1.368 . S
C1739 C1723 1.349 . S
C1739 H1731 0.950 . S
C1739 C1737 1.327 . S
C1740 C1728 1.349 . S
C1740 H1734 0.950 . S
C1740 C1741 1.327 . S
C1741 H1735 0.950 . S
C1741 C1740 1.327 . S
C1741 C1745 1.429 . S
C1742 C1725 1.574 . S
C1742 H1736 0.949 . S
C1742 C1746 1.368 . S
C1743 C1724 1.429 . S
C1743 C1737 1.429 . S
C1743 C1744 1.523 . S
C1744 C1725 1.368 . S
C1744 C1738 1.368 . S
C1744 C1743 1.523 . S
C1745 C1729 1.429 . S
C1745 C1741 1.429 . S
C1745 C1746 1.523 . S
C1746 C1730 1.368 . S
C1746 C1742 1.368 . S
C1746 C1745 1.523 . S
H1747 C1722 0.950 . S
H1748 C1724 0.950 . S
H1749 C1725 0.949 . S
H1750 C1727 0.950 . S
H1751 C1729 0.950 . S
C1752 C1753 1.349 . S
C1752 C1754 1.327 . S
C1752 H1777 0.950 . S
C1753 C1752 1.349 . S
C1753 C1769 1.349 . S
C1754 C1752 1.327 . S
C1754 C1773 1.429 . S
C1754 H1778 0.950 . S
C1755 C1772 1.574 . S
C1755 C1774 1.368 . S
C1755 H1779 0.949 . S
H1756 C1760 0.949 . S
C1757 C1758 1.349 . S
C1757 C1759 1.327 . S
C1757 H1780 0.950 . S
C1758 C1757 1.349 . S
C1758 C1770 1.349 . S
C1759 C1757 1.327 . S
C1759 C1775 1.429 . S
C1759 H1781 0.950 . S
C1760 H1756 0.949 . S
C1760 C1768 1.574 . S
C1760 C1776 1.368 . S
H1761 C1769 0.950 . S
H1762 C1767 0.950 . S
H1763 C1768 0.949 . S
H1764 C1770 0.950 . S
H1765 C1771 0.950 . S
H1766 C1772 0.949 . S
C1767 H1762 0.950 . S
C1767 C1769 1.327 . S
C1767 C1773 1.429 . S
C1768 C1760 1.574 . S
C1768 H1763 0.949 . S
C1768 C1774 1.368 . S
C1769 C1753 1.349 . S
C1769 H1761 0.950 . S
C1769 C1767 1.327 . S
C1770 C1758 1.349 . S
C1770 H1764 0.950 . S
C1770 C1771 1.327 . S
C1771 H1765 0.950 . S
C1771 C1770 1.327 . S
C1771 C1775 1.429 . S
C1772 C1755 1.574 . S
C1772 H1766 0.949 . S
C1772 C1776 1.368 . S
C1773 C1754 1.429 . S
C1773 C1767 1.429 . S
C1773 C1774 1.523 . S
C1774 C1755 1.368 . S
C1774 C1768 1.368 . S
C1774 C1773 1.523 . S
C1775 C1759 1.429 . S
C1775 C1771 1.429 . S
C1775 C1776 1.523 . S
C1776 C1760 1.368 . S
C1776 C1772 1.368 . S
C1776 C1775 1.523 . S
H1777 C1752 0.950 . S
H1778 C1754 0.950 . S
H1779 C1755 0.949 . S
H1780 C1757 0.950 . S
H1781 C1759 0.950 . S
C1782 C1783 1.349 . S
C1782 C1784 1.327 . S
C1782 H1807 0.950 . S
C1783 C1782 1.349 . S
C1783 C1799 1.349 . S
C1784 C1782 1.327 . S
C1784 C1803 1.429 . S
C1784 H1808 0.950 . S
C1785 C1802 1.574 . S
C1785 C1804 1.368 . S
C1785 H1809 0.949 . S
H1786 C1790 0.949 . S
C1787 C1788 1.349 . S
C1787 C1789 1.327 . S
C1787 H1810 0.950 . S
C1788 C1787 1.349 . S
C1788 C1800 1.349 . S
C1789 C1787 1.327 . S
C1789 C1805 1.429 . S
C1789 H1811 0.950 . S
C1790 H1786 0.949 . S
C1790 C1798 1.574 . S
C1790 C1806 1.368 . S
H1791 C1799 0.950 . S
H1792 C1797 0.950 . S
H1793 C1798 0.949 . S
H1794 C1800 0.950 . S
H1795 C1801 0.950 . S
H1796 C1802 0.949 . S
C1797 H1792 0.950 . S
C1797 C1799 1.327 . S
C1797 C1803 1.429 . S
C1798 C1790 1.574 . S
C1798 H1793 0.949 . S
C1798 C1804 1.368 . S
C1799 C1783 1.349 . S
C1799 H1791 0.950 . S
C1799 C1797 1.327 . S
C1800 C1788 1.349 . S
C1800 H1794 0.950 . S
C1800 C1801 1.327 . S
C1801 H1795 0.950 . S
C1801 C1800 1.327 . S
C1801 C1805 1.429 . S
C1802 C1785 1.574 . S
C1802 H1796 0.949 . S
C1802 C1806 1.368 . S
C1803 C1784 1.429 . S
C1803 C1797 1.429 . S
C1803 C1804 1.523 . S
C1804 C1785 1.368 . S
C1804 C1798 1.368 . S
C1804 C1803 1.523 . S
C1805 C1789 1.429 . S
C1805 C1801 1.429 . S
C1805 C1806 1.523 . S
C1806 C1790 1.368 . S
C1806 C1802 1.368 . S
C1806 C1805 1.523 . S
H1807 C1782 0.950 . S
H1808 C1784 0.950 . S
H1809 C1785 0.949 . S
H1810 C1787 0.950 . S
H1811 C1789 0.950 . S
C1812 C1813 1.349 . S
C1812 C1814 1.327 . S
C1812 H1837 0.950 . S
C1813 C1812 1.349 . S
C1813 C1829 1.349 . S
C1814 C1812 1.327 . S
C1814 C1833 1.429 . S
C1814 H1838 0.950 . S
C1815 C1832 1.574 . S
C1815 C1834 1.368 . S
C1815 H1839 0.949 . S
H1816 C1820 0.949 . S
C1817 C1818 1.349 . S
C1817 C1819 1.327 . S
C1817 H1840 0.950 . S
C1818 C1817 1.349 . S
C1818 C1830 1.349 . S
C1819 C1817 1.327 . S
C1819 C1835 1.429 . S
C1819 H1841 0.950 . S
C1820 H1816 0.949 . S
C1820 C1828 1.574 . S
C1820 C1836 1.368 . S
H1821 C1829 0.950 . S
H1822 C1827 0.950 . S
H1823 C1828 0.949 . S
H1824 C1830 0.950 . S
H1825 C1831 0.950 . S
H1826 C1832 0.949 . S
C1827 H1822 0.950 . S
C1827 C1829 1.327 . S
C1827 C1833 1.429 . S
C1828 C1820 1.574 . S
C1828 H1823 0.949 . S
C1828 C1834 1.368 . S
C1829 C1813 1.349 . S
C1829 H1821 0.950 . S
C1829 C1827 1.327 . S
C1830 C1818 1.349 . S
C1830 H1824 0.950 . S
C1830 C1831 1.327 . S
C1831 H1825 0.950 . S
C1831 C1830 1.327 . S
C1831 C1835 1.429 . S
C1832 C1815 1.574 . S
C1832 H1826 0.949 . S
C1832 C1836 1.368 . S
C1833 C1814 1.429 . S
C1833 C1827 1.429 . S
C1833 C1834 1.523 . S
C1834 C1815 1.368 . S
C1834 C1828 1.368 . S
C1834 C1833 1.523 . S
C1835 C1819 1.429 . S
C1835 C1831 1.429 . S
C1835 C1836 1.523 . S
C1836 C1820 1.368 . S
C1836 C1832 1.368 . S
C1836 C1835 1.523 . S
H1837 C1812 0.950 . S
H1838 C1814 0.950 . S
H1839 C1815 0.949 . S
H1840 C1817 0.950 . S
H1841 C1819 0.950 . S
C1842 C1843 1.349 . S
C1842 C1844 1.327 . S
C1842 H1867 0.950 . S
C1843 C1842 1.349 . S
C1843 C1859 1.349 . S
C1844 C1842 1.327 . S
C1844 C1863 1.429 . S
C1844 H1868 0.950 . S
C1845 C1862 1.574 . S
C1845 C1864 1.368 . S
C1845 H1869 0.949 . S
H1846 C1850 0.949 . S
C1847 C1848 1.349 . S
C1847 C1849 1.327 . S
C1847 H1870 0.950 . S
C1848 C1847 1.349 . S
C1848 C1860 1.349 . S
C1849 C1847 1.327 . S
C1849 C1865 1.429 . S
C1849 H1871 0.950 . S
C1850 H1846 0.949 . S
C1850 C1858 1.574 . S
C1850 C1866 1.368 . S
H1851 C1859 0.950 . S
H1852 C1857 0.950 . S
H1853 C1858 0.949 . S
H1854 C1860 0.950 . S
H1855 C1861 0.950 . S
H1856 C1862 0.949 . S
C1857 H1852 0.950 . S
C1857 C1859 1.327 . S
C1857 C1863 1.429 . S
C1858 C1850 1.574 . S
C1858 H1853 0.949 . S
C1858 C1864 1.368 . S
C1859 C1843 1.349 . S
C1859 H1851 0.950 . S
C1859 C1857 1.327 . S
C1860 C1848 1.349 . S
C1860 H1854 0.950 . S
C1860 C1861 1.327 . S
C1861 H1855 0.950 . S
C1861 C1860 1.327 . S
C1861 C1865 1.429 . S
C1862 C1845 1.574 . S
C1862 H1856 0.949 . S
C1862 C1866 1.368 . S
C1863 C1844 1.429 . S
C1863 C1857 1.429 . S
C1863 C1864 1.523 . S
C1864 C1845 1.368 . S
C1864 C1858 1.368 . S
C1864 C1863 1.523 . S
C1865 C1849 1.429 . S
C1865 C1861 1.429 . S
C1865 C1866 1.523 . S
C1866 C1850 1.368 . S
C1866 C1862 1.368 . S
C1866 C1865 1.523 . S
H1867 C1842 0.950 . S
H1868 C1844 0.950 . S
H1869 C1845 0.949 . S
H1870 C1847 0.950 . S
H1871 C1849 0.950 . S
C1872 C1873 1.349 . S
C1872 C1874 1.327 . S
C1872 H1897 0.950 . S
C1873 C1872 1.349 . S
C1873 C1889 1.349 . S
C1874 C1872 1.327 . S
C1874 C1893 1.429 . S
C1874 H1898 0.950 . S
C1875 C1892 1.574 . S
C1875 C1894 1.368 . S
C1875 H1899 0.949 . S
H1876 C1880 0.949 . S
C1877 C1878 1.349 . S
C1877 C1879 1.327 . S
C1877 H1900 0.950 . S
C1878 C1877 1.349 . S
C1878 C1890 1.349 . S
C1879 C1877 1.327 . S
C1879 C1895 1.429 . S
C1879 H1901 0.950 . S
C1880 H1876 0.949 . S
C1880 C1888 1.574 . S
C1880 C1896 1.368 . S
H1881 C1889 0.950 . S
H1882 C1887 0.950 . S
H1883 C1888 0.949 . S
H1884 C1890 0.950 . S
H1885 C1891 0.950 . S
H1886 C1892 0.949 . S
C1887 H1882 0.950 . S
C1887 C1889 1.327 . S
C1887 C1893 1.429 . S
C1888 C1880 1.574 . S
C1888 H1883 0.949 . S
C1888 C1894 1.368 . S
C1889 C1873 1.349 . S
C1889 H1881 0.950 . S
C1889 C1887 1.327 . S
C1890 C1878 1.349 . S
C1890 H1884 0.950 . S
C1890 C1891 1.327 . S
C1891 H1885 0.950 . S
C1891 C1890 1.327 . S
C1891 C1895 1.429 . S
C1892 C1875 1.574 . S
C1892 H1886 0.949 . S
C1892 C1896 1.368 . S
C1893 C1874 1.429 . S
C1893 C1887 1.429 . S
C1893 C1894 1.523 . S
C1894 C1875 1.368 . S
C1894 C1888 1.368 . S
C1894 C1893 1.523 . S
C1895 C1879 1.429 . S
C1895 C1891 1.429 . S
C1895 C1896 1.523 . S
C1896 C1880 1.368 . S
C1896 C1892 1.368 . S
C1896 C1895 1.523 . S
H1897 C1872 0.950 . S
H1898 C1874 0.950 . S
H1899 C1875 0.949 . S
H1900 C1877 0.950 . S
H1901 C1879 0.950 . S
C1902 C1903 1.349 . S
C1902 C1904 1.327 . S
C1902 H1927 0.950 . S
C1903 C1902 1.349 . S
C1903 C1919 1.349 . S
C1904 C1902 1.327 . S
C1904 C1923 1.429 . S
C1904 H1928 0.950 . S
C1905 C1922 1.574 . S
C1905 C1924 1.368 . S
C1905 H1929 0.949 . S
H1906 C1910 0.949 . S
C1907 C1908 1.349 . S
C1907 C1909 1.327 . S
C1907 H1930 0.950 . S
C1908 C1907 1.349 . S
C1908 C1920 1.349 . S
C1909 C1907 1.327 . S
C1909 C1925 1.429 . S
C1909 H1931 0.950 . S
C1910 H1906 0.949 . S
C1910 C1918 1.574 . S
C1910 C1926 1.368 . S
H1911 C1919 0.950 . S
H1912 C1917 0.950 . S
H1913 C1918 0.949 . S
H1914 C1920 0.950 . S
H1915 C1921 0.950 . S
H1916 C1922 0.949 . S
C1917 H1912 0.950 . S
C1917 C1919 1.327 . S
C1917 C1923 1.429 . S
C1918 C1910 1.574 . S
C1918 H1913 0.949 . S
C1918 C1924 1.368 . S
C1919 C1903 1.349 . S
C1919 H1911 0.950 . S
C1919 C1917 1.327 . S
C1920 C1908 1.349 . S
C1920 H1914 0.950 . S
C1920 C1921 1.327 . S
C1921 H1915 0.950 . S
C1921 C1920 1.327 . S
C1921 C1925 1.429 . S
C1922 C1905 1.574 . S
C1922 H1916 0.949 . S
C1922 C1926 1.368 . S
C1923 C1904 1.429 . S
C1923 C1917 1.429 . S
C1923 C1924 1.523 . S
C1924 C1905 1.368 . S
C1924 C1918 1.368 . S
C1924 C1923 1.523 . S
C1925 C1909 1.429 . S
C1925 C1921 1.429 . S
C1925 C1926 1.523 . S
C1926 C1910 1.368 . S
C1926 C1922 1.368 . S
C1926 C1925 1.523 . S
H1927 C1902 0.950 . S
H1928 C1904 0.950 . S
H1929 C1905 0.949 . S
H1930 C1907 0.950 . S
H1931 C1909 0.950 . S
C1932 C1933 1.349 . S
C1932 C1934 1.327 . S
C1932 H1957 0.950 . S
C1933 C1932 1.349 . S
C1933 C1949 1.349 . S
C1934 C1932 1.327 . S
C1934 C1953 1.429 . S
C1934 H1958 0.950 . S
C1935 C1952 1.574 . S
C1935 C1954 1.368 . S
C1935 H1959 0.949 . S
H1936 C1940 0.949 . S
C1937 C1938 1.349 . S
C1937 C1939 1.327 . S
C1937 H1960 0.950 . S
C1938 C1937 1.349 . S
C1938 C1950 1.349 . S
C1939 C1937 1.327 . S
C1939 C1955 1.429 . S
C1939 H1961 0.950 . S
C1940 H1936 0.949 . S
C1940 C1948 1.574 . S
C1940 C1956 1.368 . S
H1941 C1949 0.950 . S
H1942 C1947 0.950 . S
H1943 C1948 0.949 . S
H1944 C1950 0.950 . S
H1945 C1951 0.950 . S
H1946 C1952 0.949 . S
C1947 H1942 0.950 . S
C1947 C1949 1.327 . S
C1947 C1953 1.429 . S
C1948 C1940 1.574 . S
C1948 H1943 0.949 . S
C1948 C1954 1.368 . S
C1949 C1933 1.349 . S
C1949 H1941 0.950 . S
C1949 C1947 1.327 . S
C1950 C1938 1.349 . S
C1950 H1944 0.950 . S
C1950 C1951 1.327 . S
C1951 H1945 0.950 . S
C1951 C1950 1.327 . S
C1951 C1955 1.429 . S
C1952 C1935 1.574 . S
C1952 H1946 0.949 . S
C1952 C1956 1.368 . S
C1953 C1934 1.429 . S
C1953 C1947 1.429 . S
C1953 C1954 1.523 . S
C1954 C1935 1.368 . S
C1954 C1948 1.368 . S
C1954 C1953 1.523 . S
C1955 C1939 1.429 . S
C1955 C1951 1.429 . S
C1955 C1956 1.523 . S
C1956 C1940 1.368 . S
C1956 C1952 1.368 . S
C1956 C1955 1.523 . S
H1957 C1932 0.950 . S
H1958 C1934 0.950 . S
H1959 C1935 0.949 . S
H1960 C1937 0.950 . S
H1961 C1939 0.950 . S
C1962 C1963 1.349 . S
C1962 C1964 1.327 . S
C1962 H1987 0.950 . S
C1963 C1962 1.349 . S
C1963 C1979 1.349 . S
C1964 C1962 1.327 . S
C1964 C1983 1.429 . S
C1964 H1988 0.950 . S
C1965 C1982 1.574 . S
C1965 C1984 1.368 . S
C1965 H1989 0.949 . S
H1966 C1970 0.949 . S
C1967 C1968 1.349 . S
C1967 C1969 1.327 . S
C1967 H1990 0.950 . S
C1968 C1967 1.349 . S
C1968 C1980 1.349 . S
C1969 C1967 1.327 . S
C1969 C1985 1.429 . S
C1969 H1991 0.950 . S
C1970 H1966 0.949 . S
C1970 C1978 1.574 . S
C1970 C1986 1.368 . S
H1971 C1979 0.950 . S
H1972 C1977 0.950 . S
H1973 C1978 0.949 . S
H1974 C1980 0.950 . S
H1975 C1981 0.950 . S
H1976 C1982 0.949 . S
C1977 H1972 0.950 . S
C1977 C1979 1.327 . S
C1977 C1983 1.429 . S
C1978 C1970 1.574 . S
C1978 H1973 0.949 . S
C1978 C1984 1.368 . S
C1979 C1963 1.349 . S
C1979 H1971 0.950 . S
C1979 C1977 1.327 . S
C1980 C1968 1.349 . S
C1980 H1974 0.950 . S
C1980 C1981 1.327 . S
C1981 H1975 0.950 . S
C1981 C1980 1.327 . S
C1981 C1985 1.429 . S
C1982 C1965 1.574 . S
C1982 H1976 0.949 . S
C1982 C1986 1.368 . S
C1983 C1964 1.429 . S
C1983 C1977 1.429 . S
C1983 C1984 1.523 . S
C1984 C1965 1.368 . S
C1984 C1978 1.368 . S
C1984 C1983 1.523 . S
C1985 C1969 1.429 . S
C1985 C1981 1.429 . S
C1985 C1986 1.523 . S
C1986 C1970 1.368 . S
C1986 C1982 1.368 . S
C1986 C1985 1.523 . S
H1987 C1962 0.950 . S
H1988 C1964 0.950 . S
H1989 C1965 0.949 . S
H1990 C1967 0.950 . S
H1991 C1969 0.950 . S
C1992 C1993 1.349 . S
C1992 C1994 1.327 . S
C1992 H2017 0.950 . S
C1993 C1992 1.349 . S
C1993 C2009 1.349 . S
C1994 C1992 1.327 . S
C1994 C2013 1.429 . S
C1994 H2018 0.950 . S
C1995 C2012 1.569 1_545 S
C1995 C2014 1.368 . S
C1995 H2019 0.949 . S
H1996 C2000 0.949 . S
C1997 C1998 1.349 . S
C1997 C1999 1.327 . S
C1997 H2020 0.950 . S
C1998 C1997 1.349 . S
C1998 C2010 1.349 . S
C1999 C1997 1.327 . S
C1999 C2015 1.429 . S
C1999 H2021 0.950 . S
C2000 H1996 0.949 . S
C2000 C2008 1.574 . S
C2000 C2016 1.368 . S
H2001 C2009 0.950 . S
H2002 C2007 0.950 . S
H2003 C2008 0.949 . S
H2004 C2010 0.950 . S
H2005 C2011 0.950 1_545 S
H2006 C2012 0.962 . S
C2007 H2002 0.950 . S
C2007 C2009 1.327 . S
C2007 C2013 1.429 . S
C2008 C2000 1.574 . S
C2008 H2003 0.949 . S
C2008 C2014 1.368 . S
C2009 C1993 1.349 . S
C2009 H2001 0.950 . S
C2009 C2007 1.327 . S
C2010 C1998 1.349 . S
C2010 H2004 0.950 . S
C2010 C2011 1.327 . S
C2011 H2005 0.950 1_565 S
C2011 C2010 1.327 . S
C2011 C2015 1.429 . S
C2012 C1995 1.569 1_565 S
C2012 H2006 0.962 . S
C2012 C2016 1.359 1_565 S
C2013 C1994 1.429 . S
C2013 C2007 1.429 . S
C2013 C2014 1.523 . S
C2014 C1995 1.368 . S
C2014 C2008 1.368 . S
C2014 C2013 1.523 . S
C2015 C1999 1.429 . S
C2015 C2011 1.429 . S
C2015 C2016 1.523 1_565 S
C2016 C2000 1.368 . S
C2016 C2012 1.359 1_545 S
C2016 C2015 1.523 1_545 S
H2017 C1992 0.950 . S
H2018 C1994 0.950 . S
H2019 C1995 0.949 . S
H2020 C1997 0.950 . S
H2021 C1999 0.950 . S
C2022 C2023 1.349 . S
C2022 C2024 1.327 . S
C2022 H2047 0.950 . S
C2023 C2022 1.349 . S
C2023 C2039 1.349 . S
C2024 C2022 1.327 . S
C2024 C2043 1.429 . S
C2024 H2048 0.950 . S
C2025 C2042 1.574 . S
C2025 C2044 1.368 . S
C2025 H2049 0.949 . S
H2026 C2030 0.949 . S
C2027 C2028 1.349 . S
C2027 C2029 1.327 . S
C2027 H2050 0.950 . S
C2028 C2027 1.349 . S
C2028 C2040 1.349 . S
C2029 C2027 1.327 . S
C2029 C2045 1.429 . S
C2029 H2051 0.950 . S
C2030 H2026 0.949 . S
C2030 C2038 1.574 1_655 S
C2030 C2046 1.368 . S
H2031 C2039 0.950 . S
H2032 C2037 0.950 . S
H2033 C2038 0.949 . S
H2034 C2040 0.950 . S
H2035 C2041 0.950 . S
H2036 C2042 0.949 . S
C2037 H2032 0.950 . S
C2037 C2039 1.327 . S
C2037 C2043 1.429 . S
C2038 C2030 1.574 1_455 S
C2038 H2033 0.949 . S
C2038 C2044 1.368 . S
C2039 C2023 1.349 . S
C2039 H2031 0.950 . S
C2039 C2037 1.327 . S
C2040 C2028 1.349 . S
C2040 H2034 0.950 . S
C2040 C2041 1.327 . S
C2041 H2035 0.950 . S
C2041 C2040 1.327 . S
C2041 C2045 1.429 . S
C2042 C2025 1.574 . S
C2042 H2036 0.949 . S
C2042 C2046 1.368 1_455 S
C2043 C2024 1.429 . S
C2043 C2037 1.429 . S
C2043 C2044 1.523 . S
C2044 C2025 1.368 . S
C2044 C2038 1.368 . S
C2044 C2043 1.523 . S
C2045 C2029 1.429 . S
C2045 C2041 1.429 . S
C2045 C2046 1.523 . S
C2046 C2030 1.368 . S
C2046 C2042 1.368 1_655 S
C2046 C2045 1.523 . S
H2047 C2022 0.950 . S
H2048 C2024 0.950 . S
H2049 C2025 0.949 . S
H2050 C2027 0.950 . S
H2051 C2029 0.950 . S
C2052 C2053 1.349 . S
C2052 C2054 1.327 . S
C2052 H2077 0.950 . S
C2053 C2052 1.349 . S
C2053 C2069 1.349 . S
C2054 C2052 1.327 . S
C2054 C2073 1.429 . S
C2054 H2078 0.950 . S
C2055 C2072 1.562 1_556 S
C2055 C2074 1.378 . S
C2055 H2079 0.952 . S
H2056 C2060 0.949 . S
C2057 C2058 1.349 . S
C2057 C2059 1.327 . S
C2057 H2080 0.950 . S
C2058 C2057 1.349 . S
C2058 C2070 1.349 . S
C2059 C2057 1.327 . S
C2059 C2075 1.429 . S
C2059 H2081 0.950 . S
C2060 H2056 0.949 . S
C2060 C2068 1.574 1_554 S
C2060 C2076 1.368 . S
H2061 C2069 0.950 . S
H2062 C2067 0.950 . S
H2063 C2068 0.949 . S
H2064 C2070 0.950 . S
H2065 C2071 0.950 . S
H2066 C2072 0.949 . S
C2067 H2062 0.950 . S
C2067 C2069 1.327 . S
C2067 C2073 1.429 . S
C2068 C2060 1.574 1_556 S
C2068 H2063 0.949 . S
C2068 C2074 1.368 . S
C2069 C2053 1.349 . S
C2069 H2061 0.950 . S
C2069 C2067 1.327 . S
C2070 C2058 1.349 . S
C2070 H2064 0.950 . S
C2070 C2071 1.327 . S
C2071 H2065 0.950 . S
C2071 C2070 1.327 . S
C2071 C2075 1.429 . S
C2072 C2055 1.562 1_554 S
C2072 H2066 0.949 . S
C2072 C2076 1.368 . S
C2073 C2054 1.429 . S
C2073 C2067 1.429 . S
C2073 C2074 1.523 . S
C2074 C2055 1.378 . S
C2074 C2068 1.368 . S
C2074 C2073 1.523 . S
C2075 C2059 1.429 . S
C2075 C2071 1.429 . S
C2075 C2076 1.523 . S
C2076 C2060 1.368 . S
C2076 C2072 1.368 . S
C2076 C2075 1.523 . S
H2077 C2052 0.950 . S
H2078 C2054 0.950 . S
H2079 C2055 0.952 . S
H2080 C2057 0.950 . S
H2081 C2059 0.950 . S
C2082 C2083 1.349 . S
C2082 C2084 1.327 . S
C2082 H2107 0.950 . S
C2083 C2082 1.349 . S
C2083 C2099 1.349 . S
C2084 C2082 1.327 . S
C2084 C2103 1.429 . S
C2084 H2108 0.975 . S
C2085 C2102 1.574 . S
C2085 C2104 1.368 1_554 S
C2085 H2109 0.949 . S
H2086 C2090 0.949 . S
C2087 C2088 1.349 . S
C2087 C2089 1.327 . S
C2087 H2110 0.950 . S
C2088 C2087 1.349 . S
C2088 C2100 1.349 . S
C2089 C2087 1.327 . S
C2089 C2105 1.429 . S
C2089 H2111 0.986 . S
C2090 H2086 0.949 . S
C2090 C2098 1.574 . S
C2090 C2106 1.368 1_556 S
H2091 C2099 0.950 . S
H2092 C2097 0.950 . S
H2093 C2098 0.949 . S
H2094 C2100 0.950 . S
H2095 C2101 0.950 . S
H2096 C2102 0.949 . S
C2097 H2092 0.950 . S
C2097 C2099 1.327 . S
C2097 C2103 1.429 . S
C2098 C2090 1.574 . S
C2098 H2093 0.949 . S
C2098 C2104 1.368 1_545 S
C2099 C2083 1.349 . S
C2099 H2091 0.950 . S
C2099 C2097 1.327 . S
C2100 C2088 1.349 . S
C2100 H2094 0.950 . S
C2100 C2101 1.327 . S
C2101 H2095 0.950 . S
C2101 C2100 1.327 . S
C2101 C2105 1.429 . S
C2102 C2085 1.574 . S
C2102 H2096 0.949 . S
C2102 C2106 1.368 1_565 S
C2103 C2084 1.429 . S
C2103 C2097 1.429 . S
C2103 C2104 1.523 . S
C2104 C2085 1.368 1_556 S
C2104 C2098 1.368 1_565 S
C2104 C2103 1.523 . S
C2105 C2089 1.429 . S
C2105 C2101 1.429 . S
C2105 C2106 1.523 . S
C2106 C2090 1.368 1_554 S
C2106 C2102 1.368 1_545 S
C2106 C2105 1.523 . S
H2107 C2082 0.950 . S
H2108 C2084 0.975 . S
H2109 C2085 0.949 . S
H2110 C2087 0.950 . S
H2111 C2089 0.986 . S
C2112 C2113 1.349 . S
C2112 C2114 1.327 . S
C2112 H2137 0.950 . S
C2113 C2112 1.349 . S
C2113 C2129 1.349 . S
C2114 C2112 1.327 . S
C2114 C2133 1.429 . S
C2114 H2138 0.950 1_556 S
C2115 C2132 1.574 . S
C2115 C2134 1.368 . S
C2115 H2139 0.949 . S
H2116 C2120 0.949 1_655 S
C2117 C2118 1.349 . S
C2117 C2119 1.327 . S
C2117 H2140 0.950 . S
C2118 C2117 1.349 . S
C2118 C2130 1.349 . S
C2119 C2117 1.327 . S
C2119 C2135 1.429 . S
C2119 H2141 0.950 1_554 S
C2120 H2116 0.949 1_455 S
C2120 C2128 1.574 . S
C2120 C2136 1.368 1_455 S
H2121 C2129 0.950 . S
H2122 C2127 0.950 . S
H2123 C2128 0.949 . S
H2124 C2130 0.950 . S
H2125 C2131 0.950 . S
H2126 C2132 0.949 1_655 S
C2127 H2122 0.950 . S
C2127 C2129 1.327 . S
C2127 C2133 1.429 . S
C2128 C2120 1.574 . S
C2128 H2123 0.949 . S
C2128 C2134 1.368 1_554 S
C2129 C2113 1.349 . S
C2129 H2121 0.950 . S
C2129 C2127 1.327 . S
C2130 C2118 1.349 . S
C2130 H2124 0.950 . S
C2130 C2131 1.327 . S
C2131 H2125 0.950 . S
C2131 C2130 1.327 . S
C2131 C2135 1.429 . S
C2132 C2115 1.574 . S
C2132 H2126 0.949 1_455 S
C2132 C2136 1.368 1_456 S
C2133 C2114 1.429 . S
C2133 C2127 1.429 . S
C2133 C2134 1.523 . S
C2134 C2115 1.368 . S
C2134 C2128 1.368 1_556 S
C2134 C2133 1.523 . S
C2135 C2119 1.429 . S
C2135 C2131 1.429 . S
C2135 C2136 1.523 . S
C2136 C2120 1.368 1_655 S
C2136 C2132 1.368 1_654 S
C2136 C2135 1.523 . S
H2137 C2112 0.950 . S
H2138 C2114 0.950 1_554 S
H2139 C2115 0.949 . S
H2140 C2117 0.950 . S
H2141 C2119 0.950 1_556 S
C1063 C33 1.176 . S
C1068 C829 1.174 . S
C1093 C711 1.097 . S
C1098 C62 1.099 . S
C1123 C151 1.415 1_565 S
C1128 C800 1.414 . S
C1153 C387 1.087 . S
C1158 C121 1.086 . S
C1183 C416 1.071 . S
C1188 C3 1.071 . S
C1213 C475 1.311 . S
C1218 C92 1.314 . S
C1243 C180 1.075 . S
C1248 C652 1.075 . S
C1273 C534 0.928 . S
C1278 C239 0.928 . S
C1303 C593 1.277 . S
C1308 C328 1.279 . S
C1333 C298 1.156 . S
C1338 C888 1.154 . S
C1363 C210 1.124 . S
C1368 C947 1.122 . S
C1393 C1036 1.430 . S
C1398 C269 1.429 . S
C1423 C741 1.264 . S
C1428 C505 1.264 . S
C1453 C357 1.140 . S
C1458 C770 1.139 . S
C1483 C859 1.517 . S
C1488 C446 1.515 . S
C1513 C1006 1.314 . S
C1518 C564 1.315 . S
C1543 C623 1.268 . S
C1548 C918 1.266 . S
C1573 C977 1.536 . S
C1578 C682 1.535 . S
C1603 C937 1.809 . S
C1608 C5 1.781 . S
C1633 C111 1.722 . S
C1638 C996 1.729 . S
C1663 C123 1.562 . S
C1668 C1008 1.567 . S
C1693 C170 1.528 . S
C1698 C701 1.521 . S
C1723 C583 1.877 . S
C1728 C52 1.876 . S
C1753 C64 1.714 . S
C1758 C642 1.744 . S
C1783 C359 1.817 . S
C1788 C229 1.842 . S
C1813 C465 1.465 . S
C1818 C288 1.458 . S
C1843 C300 1.666 . S
C1848 C524 1.699 . S
C1873 C347 1.747 . S
C1878 C878 1.754 . S
C1903 C182 1.668 . S
C1908 C760 1.698 . S
C1933 C241 1.789 . S
C1938 C772 1.798 . S
C1963 C477 1.669 . S
C1968 C1055 1.692 . S
C1993 C406 1.937 . S
C1998 C890 1.934 . S
C2023 C949 1.796 . S
C2028 C418 1.800 . S
C2053 C713 1.880 . S
C2058 C536 1.858 . S
C2083 C819 1.572 . S
C2088 C595 1.558 . S
C2113 C831 1.736 . S
C2118 C654 1.746 . S
