# Generated by pormake.
# Topology gme, (4)-cn, num edge types: 1
# Building blocks:
#     Node 0, Type 0, BuildingBlock: TATPOV_clean_sbu_0, # of connection points: 4
#     Node 1, Type 0, BuildingBlock: TATPOV_clean_sbu_0, # of connection points: 4
#     Node 2, Type 0, BuildingBlock: TATPOV_clean_sbu_0, # of connection points: 4
#     Node 3, Type 0, BuildingBlock: TATPOV_clean_sbu_0, # of connection points: 4
#     Node 4, Type 0, BuildingBlock: TATPOV_clean_sbu_0, # of connection points: 4
#     Node 5, Type 0, BuildingBlock: TATPOV_clean_sbu_0, # of connection points: 4
#     Node 6, Type 0, BuildingBlock: TATPOV_clean_sbu_0, # of connection points: 4
#     Node 7, Type 0, BuildingBlock: TATPOV_clean_sbu_0, # of connection points: 4
#     Node 8, Type 0, BuildingBlock: TATPOV_clean_sbu_0, # of connection points: 4
#     Node 9, Type 0, BuildingBlock: TATPOV_clean_sbu_0, # of connection points: 4
#     Node 10, Type 0, BuildingBlock: TATPOV_clean_sbu_0, # of connection points: 4
#     Node 11, Type 0, BuildingBlock: TATPOV_clean_sbu_0, # of connection points: 4
#     Node 12, Type 0, BuildingBlock: TATPOV_clean_sbu_0, # of connection points: 4
#     Node 13, Type 0, BuildingBlock: TATPOV_clean_sbu_0, # of connection points: 4
#     Node 14, Type 0, BuildingBlock: TATPOV_clean_sbu_0, # of connection points: 4
#     Node 15, Type 0, BuildingBlock: TATPOV_clean_sbu_0, # of connection points: 4
#     Node 16, Type 0, BuildingBlock: TATPOV_clean_sbu_0, # of connection points: 4
#     Node 17, Type 0, BuildingBlock: TATPOV_clean_sbu_0, # of connection points: 4
#     Node 18, Type 0, BuildingBlock: TATPOV_clean_sbu_0, # of connection points: 4
#     Node 19, Type 0, BuildingBlock: TATPOV_clean_sbu_0, # of connection points: 4
#     Node 20, Type 0, BuildingBlock: TATPOV_clean_sbu_0, # of connection points: 4
#     Node 21, Type 0, BuildingBlock: TATPOV_clean_sbu_0, # of connection points: 4
#     Node 22, Type 0, BuildingBlock: TATPOV_clean_sbu_0, # of connection points: 4
#     Node 23, Type 0, BuildingBlock: TATPOV_clean_sbu_0, # of connection points: 4
#     Edge 24, Type (0, 0), BuildingBlock: ZUJKAS_clean_linker_0, # of connection points: 2
#     Edge 25, Type (0, 0), BuildingBlock: ZUJKAS_clean_linker_0, # of connection points: 2
#     Edge 26, Type (0, 0), BuildingBlock: ZUJKAS_clean_linker_0, # of connection points: 2
#     Edge 27, Type (0, 0), BuildingBlock: ZUJKAS_clean_linker_0, # of connection points: 2
#     Edge 28, Type (0, 0), BuildingBlock: ZUJKAS_clean_linker_0, # of connection points: 2
#     Edge 29, Type (0, 0), BuildingBlock: ZUJKAS_clean_linker_0, # of connection points: 2
#     Edge 30, Type (0, 0), BuildingBlock: ZUJKAS_clean_linker_0, # of connection points: 2
#     Edge 31, Type (0, 0), BuildingBlock: ZUJKAS_clean_linker_0, # of connection points: 2
#     Edge 32, Type (0, 0), BuildingBlock: ZUJKAS_clean_linker_0, # of connection points: 2
#     Edge 33, Type (0, 0), BuildingBlock: ZUJKAS_clean_linker_0, # of connection points: 2
#     Edge 34, Type (0, 0), BuildingBlock: ZUJKAS_clean_linker_0, # of connection points: 2
#     Edge 35, Type (0, 0), BuildingBlock: ZUJKAS_clean_linker_0, # of connection points: 2
#     Edge 36, Type (0, 0), BuildingBlock: ZUJKAS_clean_linker_0, # of connection points: 2
#     Edge 37, Type (0, 0), BuildingBlock: ZUJKAS_clean_linker_0, # of connection points: 2
#     Edge 38, Type (0, 0), BuildingBlock: ZUJKAS_clean_linker_0, # of connection points: 2
#     Edge 39, Type (0, 0), BuildingBlock: ZUJKAS_clean_linker_0, # of connection points: 2
#     Edge 40, Type (0, 0), BuildingBlock: ZUJKAS_clean_linker_0, # of connection points: 2
#     Edge 41, Type (0, 0), BuildingBlock: ZUJKAS_clean_linker_0, # of connection points: 2
#     Edge 42, Type (0, 0), BuildingBlock: ZUJKAS_clean_linker_0, # of connection points: 2
#     Edge 43, Type (0, 0), BuildingBlock: ZUJKAS_clean_linker_0, # of connection points: 2
#     Edge 44, Type (0, 0), BuildingBlock: ZUJKAS_clean_linker_0, # of connection points: 2
#     Edge 45, Type (0, 0), BuildingBlock: ZUJKAS_clean_linker_0, # of connection points: 2
#     Edge 46, Type (0, 0), BuildingBlock: ZUJKAS_clean_linker_0, # of connection points: 2
#     Edge 47, Type (0, 0), BuildingBlock: ZUJKAS_clean_linker_0, # of connection points: 2
#     Edge 48, Type (0, 0), BuildingBlock: ZUJKAS_clean_linker_0, # of connection points: 2
#     Edge 49, Type (0, 0), BuildingBlock: ZUJKAS_clean_linker_0, # of connection points: 2
#     Edge 50, Type (0, 0), BuildingBlock: ZUJKAS_clean_linker_0, # of connection points: 2
#     Edge 51, Type (0, 0), BuildingBlock: ZUJKAS_clean_linker_0, # of connection points: 2
#     Edge 52, Type (0, 0), BuildingBlock: ZUJKAS_clean_linker_0, # of connection points: 2
#     Edge 53, Type (0, 0), BuildingBlock: ZUJKAS_clean_linker_0, # of connection points: 2
#     Edge 54, Type (0, 0), BuildingBlock: ZUJKAS_clean_linker_0, # of connection points: 2
#     Edge 55, Type (0, 0), BuildingBlock: ZUJKAS_clean_linker_0, # of connection points: 2
#     Edge 56, Type (0, 0), BuildingBlock: ZUJKAS_clean_linker_0, # of connection points: 2
#     Edge 57, Type (0, 0), BuildingBlock: ZUJKAS_clean_linker_0, # of connection points: 2
#     Edge 58, Type (0, 0), BuildingBlock: ZUJKAS_clean_linker_0, # of connection points: 2
#     Edge 59, Type (0, 0), BuildingBlock: ZUJKAS_clean_linker_0, # of connection points: 2
#     Edge 60, Type (0, 0), BuildingBlock: ZUJKAS_clean_linker_0, # of connection points: 2
#     Edge 61, Type (0, 0), BuildingBlock: ZUJKAS_clean_linker_0, # of connection points: 2
#     Edge 62, Type (0, 0), BuildingBlock: ZUJKAS_clean_linker_0, # of connection points: 2
#     Edge 63, Type (0, 0), BuildingBlock: ZUJKAS_clean_linker_0, # of connection points: 2
#     Edge 64, Type (0, 0), BuildingBlock: ZUJKAS_clean_linker_0, # of connection points: 2
#     Edge 65, Type (0, 0), BuildingBlock: ZUJKAS_clean_linker_0, # of connection points: 2
#     Edge 66, Type (0, 0), BuildingBlock: ZUJKAS_clean_linker_0, # of connection points: 2
#     Edge 67, Type (0, 0), BuildingBlock: ZUJKAS_clean_linker_0, # of connection points: 2
#     Edge 68, Type (0, 0), BuildingBlock: ZUJKAS_clean_linker_0, # of connection points: 2
#     Edge 69, Type (0, 0), BuildingBlock: ZUJKAS_clean_linker_0, # of connection points: 2
#     Edge 70, Type (0, 0), BuildingBlock: ZUJKAS_clean_linker_0, # of connection points: 2
#     Edge 71, Type (0, 0), BuildingBlock: ZUJKAS_clean_linker_0, # of connection points: 2
# Relax obj value: 0.146
# Max RMSD: 0.132
# Mean RMSD: 0.132
data_MOF--net-gme--node1-TATPOV_clean_sbu_0--edge1-ZUJKAS_clean_linker_0
_symmetry_space_group_name_H-M    P1
_symmetry_Int_Tables_number       1
_symmetry_cell_setting            triclinic
loop_
_symmetry_equiv_pos_as_xyz
'x, y, z'
_cell_length_a     83.656536
_cell_length_b     83.671909
_cell_length_c     64.994691
_cell_angle_alpha  90.054418
_cell_angle_beta   90.011769
_cell_angle_gamma 119.93861
loop_
_atom_site_label
_atom_site_type_symbol
_atom_site_fract_x
_atom_site_fract_y
_atom_site_fract_z
_atom_type_partial_charge
Zn0 Zn 0.41582 0.06547 0.10446 0.0
Zn1 Zn 0.41782 0.09373 0.0848 0.0
O2 O 0.39996 0.07182 0.06618 0.0
O3 O 0.40127 0.04888 0.08106 0.0
O4 O 0.41879 0.11629 0.0723 0.0
O5 O 0.40284 0.06859 0.12861 0.0
O6 O 0.40842 0.0946 0.11413 0.0
C7 C 0.39554 0.05485 0.06661 0.0
C8 C 0.45282 0.09183 0.09305 0.0
O9 O 0.44483 0.09913 0.08334 0.0
O10 O 0.44357 0.0779 0.10439 0.0
C11 C 0.40385 0.11673 0.07097 0.0
O12 O 0.38832 0.10201 0.07624 0.0
C13 C 0.40242 0.08348 0.12929 0.0
Zn14 Zn 0.33908 0.41662 0.59914 0.0
Zn15 Zn 0.31115 0.41997 0.58441 0.0
O16 O 0.31211 0.40053 0.56519 0.0
O17 O 0.33388 0.39651 0.57904 0.0
O18 O 0.28839 0.42062 0.57499 0.0
O19 O 0.3277 0.41005 0.62721 0.0
O20 O 0.3046 0.41267 0.61499 0.0
C21 C 0.32165 0.39244 0.5654 0.0
C22 C 0.35026 0.45318 0.58363 0.0
O23 O 0.33304 0.44645 0.5804 0.0
O24 O 0.35621 0.44318 0.59119 0.0
C25 C 0.28808 0.43316 0.56424 0.0
O26 O 0.30367 0.44707 0.55764 0.0
C27 C 0.31234 0.40925 0.62989 0.0
Zn28 Zn 0.91822 0.34831 0.1012 0.0
Zn29 Zn 0.88733 0.32229 0.08397 0.0
O30 O 0.90802 0.32299 0.06546 0.0
O31 O 0.93337 0.34278 0.08176 0.0
O32 O 0.86353 0.30116 0.07297 0.0
O33 O 0.91147 0.33577 0.1286 0.0
O34 O 0.88619 0.31391 0.11418 0.0
C35 C 0.92557 0.33154 0.06714 0.0
C36 C 0.8951 0.36208 0.08522 0.0
O37 O 0.88422 0.34517 0.08081 0.0
O38 O 0.91055 0.36693 0.09358 0.0
C39 C 0.86234 0.28561 0.06968 0.0
O40 O 0.8771 0.28405 0.07213 0.0
C41 C 0.89651 0.32059 0.12994 0.0
Zn42 Zn 0.55343 0.91645 0.60399 0.0
Zn43 Zn 0.55004 0.88608 0.58636 0.0
O44 O 0.56797 0.907 0.5668 0.0
O45 O 0.57052 0.93193 0.58142 0.0
O46 O 0.54898 0.86299 0.57513 0.0
O47 O 0.56379 0.9122 0.62982 0.0
O48 O 0.55941 0.88633 0.61597 0.0
C49 C 0.57469 0.92447 0.56703 0.0
C50 C 0.51595 0.89026 0.59209 0.0
O51 O 0.52322 0.88113 0.58505 0.0
O52 O 0.52588 0.90553 0.60112 0.0
C53 C 0.53606 0.85058 0.56432 0.0
O54 O 0.52214 0.85272 0.55876 0.0
C55 C 0.56447 0.89747 0.63115 0.0
Zn56 Zn 0.62866 0.56639 0.10143 0.0
Zn57 Zn 0.65382 0.56022 0.08411 0.0
O58 O 0.65249 0.57924 0.06455 0.0
O59 O 0.63298 0.58553 0.08034 0.0
O60 O 0.6748 0.55739 0.07286 0.0
O61 O 0.6424 0.57422 0.12807 0.0
O62 O 0.66304 0.56867 0.11397 0.0
C63 C 0.6438 0.58816 0.0655 0.0
C64 C 0.6142 0.52855 0.08771 0.0
O65 O 0.63081 0.53425 0.08218 0.0
O66 O 0.60994 0.53959 0.09612 0.0
C67 C 0.69044 0.57197 0.07124 0.0
O68 O 0.69177 0.58791 0.07569 0.0
C69 C 0.65727 0.5738 0.12938 0.0
Zn70 Zn 0.0563 0.63215 0.60032 0.0
Zn71 Zn 0.08681 0.65908 0.58282 0.0
O72 O 0.0659 0.65619 0.56325 0.0
O73 O 0.04082 0.63432 0.57808 0.0
O74 O 0.10984 0.68127 0.57183 0.0
O75 O 0.06082 0.64641 0.62648 0.0
O76 O 0.08661 0.66793 0.61261 0.0
C77 C 0.04839 0.64577 0.56359 0.0
C78 C 0.08236 0.62073 0.58774 0.0
O79 O 0.09168 0.63722 0.58109 0.0
O80 O 0.06707 0.6154 0.59669 0.0
C81 C 0.12321 0.68113 0.56268 0.0
O82 O 0.12227 0.66528 0.55872 0.0
C83 C 0.07558 0.66176 0.62787 0.0
Zn84 Zn 0.91499 0.56079 0.36041 0.0
Zn85 Zn 0.88523 0.55778 0.37901 0.0
O86 O 0.90665 0.57602 0.39797 0.0
O87 O 0.93115 0.57884 0.38195 0.0
O88 O 0.86225 0.55633 0.39105 0.0
O89 O 0.90975 0.57021 0.33452 0.0
O90 O 0.88454 0.56664 0.34933 0.0
C91 C 0.92413 0.58306 0.39676 0.0
C92 C 0.88939 0.52365 0.37373 0.0
O93 O 0.8804 0.53107 0.38074 0.0
O94 O 0.90445 0.53336 0.36426 0.0
C95 C 0.84681 0.54417 0.38372 0.0
O96 O 0.84659 0.53278 0.36964 0.0
C97 C 0.89513 0.57113 0.3337 0.0
Zn98 Zn 0.34607 0.91966 0.86454 0.0
Zn99 Zn 0.3181 0.89042 0.88131 0.0
O100 O 0.32217 0.91161 0.90139 0.0
O101 O 0.34675 0.93535 0.88806 0.0
O102 O 0.29521 0.86783 0.89196 0.0
O103 O 0.33195 0.9177 0.83894 0.0
O104 O 0.30966 0.89179 0.85164 0.0
C105 C 0.33461 0.92862 0.90201 0.0
C106 C 0.35513 0.8918 0.87489 0.0
O107 O 0.33886 0.88365 0.88238 0.0
O108 O 0.36118 0.90715 0.86587 0.0
C109 C 0.29493 0.85487 0.90248 0.0
O110 O 0.31058 0.85609 0.9081 0.0
C111 C 0.31629 0.90341 0.83697 0.0
Zn112 Zn 0.41094 0.34866 0.37039 0.0
Zn113 Zn 0.41428 0.32146 0.38679 0.0
O114 O 0.39429 0.32251 0.40497 0.0
O115 O 0.38988 0.34325 0.38911 0.0
O116 O 0.41571 0.29959 0.39763 0.0
O117 O 0.40562 0.3369 0.34252 0.0
O118 O 0.40755 0.31392 0.35627 0.0
C119 C 0.38576 0.33155 0.40335 0.0
C120 C 0.44717 0.36073 0.38733 0.0
O121 O 0.44056 0.34358 0.39087 0.0
O122 O 0.43713 0.3664 0.37921 0.0
C123 C 0.4012 0.28383 0.39697 0.0
O124 O 0.38579 0.28264 0.39041 0.0
C125 C 0.40473 0.32142 0.34068 0.0
Zn126 Zn 0.05351 0.42295 0.87081 0.0
Zn127 Zn 0.08479 0.42511 0.88333 0.0
O128 O 0.0652 0.40561 0.9031 0.0
O129 O 0.03928 0.40264 0.89093 0.0
O130 O 0.10853 0.42547 0.89 0.0
O131 O 0.05687 0.41676 0.84188 0.0
O132 O 0.08236 0.41797 0.8526 0.0
C133 C 0.04763 0.39795 0.90367 0.0
C134 C 0.08011 0.45901 0.88645 0.0
O135 O 0.09036 0.45182 0.88849 0.0
O136 O 0.06383 0.44943 0.87962 0.0
C137 C 0.11678 0.4286 0.90721 0.0
O138 O 0.1097 0.43215 0.92343 0.0
C139 C 0.07093 0.4153 0.83822 0.0
Zn140 Zn 0.61974 0.05325 0.36604 0.0
Zn141 Zn 0.6459 0.08446 0.38226 0.0
O142 O 0.64522 0.06414 0.40141 0.0
O143 O 0.62531 0.0384 0.38584 0.0
O144 O 0.66742 0.10829 0.39269 0.0
O145 O 0.63173 0.05917 0.33837 0.0
O146 O 0.65379 0.08484 0.3519 0.0
C147 C 0.63663 0.04655 0.4003 0.0
C148 C 0.60618 0.07675 0.38161 0.0
O149 O 0.62315 0.08778 0.38565 0.0
O150 O 0.6013 0.06116 0.37358 0.0
C151 C 0.68302 0.10922 0.39428 0.0
O152 O 0.68415 0.09442 0.39032 0.0
C153 C 0.64686 0.07409 0.33649 0.0
Zn154 Zn 0.55819 0.63166 0.85988 0.0
Zn155 Zn 0.5538 0.65773 0.87851 0.0
O156 O 0.57221 0.65498 0.89749 0.0
O157 O 0.57563 0.63338 0.88221 0.0
O158 O 0.55142 0.67861 0.89088 0.0
O159 O 0.56813 0.64713 0.83448 0.0
O160 O 0.56273 0.66768 0.84909 0.0
C161 C 0.57945 0.64469 0.89687 0.0
C162 C 0.52052 0.61917 0.87237 0.0
O163 O 0.52743 0.63542 0.87972 0.0
O164 O 0.5307 0.61437 0.86289 0.0
C165 C 0.56558 0.69308 0.89741 0.0
O166 O 0.58165 0.69385 0.89707 0.0
C167 C 0.56813 0.66223 0.83365 0.0
Zn168 Zn 0.55602 0.91672 0.86402 0.0
Zn169 Zn 0.55263 0.88651 0.88187 0.0
O170 O 0.57075 0.90765 0.90119 0.0
O171 O 0.57315 0.93243 0.88645 0.0
O172 O 0.55079 0.86329 0.89357 0.0
O173 O 0.5665 0.91215 0.83843 0.0
O174 O 0.562 0.8863 0.85241 0.0
C175 C 0.57747 0.9251 0.90082 0.0
C176 C 0.51853 0.89055 0.87579 0.0
O177 O 0.52585 0.88151 0.88294 0.0
O178 O 0.52845 0.90581 0.86677 0.0
C179 C 0.56485 0.86307 0.90065 0.0
O180 O 0.58071 0.87857 0.90147 0.0
C181 C 0.56716 0.89741 0.83722 0.0
Zn182 Zn 0.62488 0.56037 0.3627 0.0
Zn183 Zn 0.65178 0.55733 0.38089 0.0
O184 O 0.64875 0.57557 0.39997 0.0
O185 O 0.62654 0.57798 0.38473 0.0
O186 O 0.67348 0.55595 0.39254 0.0
O187 O 0.63942 0.57009 0.33675 0.0
O188 O 0.66092 0.56602 0.35112 0.0
C189 C 0.63802 0.58231 0.3993 0.0
C190 C 0.61357 0.52321 0.3759 0.0
O191 O 0.62997 0.53065 0.38295 0.0
O192 O 0.60822 0.53289 0.36632 0.0
C193 C 0.67705 0.54421 0.38452 0.0
O194 O 0.66604 0.53319 0.3701 0.0
C195 C 0.65482 0.57072 0.33566 0.0
Zn196 Zn 0.0581 0.63526 0.86152 0.0
Zn197 Zn 0.08779 0.66258 0.87963 0.0
O198 O 0.06633 0.65905 0.89883 0.0
O199 O 0.04193 0.63692 0.88314 0.0
O200 O 0.11052 0.68502 0.89087 0.0
O201 O 0.06244 0.6494 0.83543 0.0
O202 O 0.08772 0.6714 0.84975 0.0
C203 C 0.04889 0.64832 0.89782 0.0
C204 C 0.08458 0.62469 0.87476 0.0
O205 O 0.0934 0.64119 0.88152 0.0
O206 O 0.06935 0.61898 0.86549 0.0
C207 C 0.12314 0.68492 0.90171 0.0
O208 O 0.12141 0.66909 0.90745 0.0
C209 C 0.0769 0.66502 0.83431 0.0
Zn210 Zn 0.40365 0.05564 0.36125 0.0
Zn211 Zn 0.40871 0.0862 0.37965 0.0
O212 O 0.38895 0.06521 0.3979 0.0
O213 O 0.38368 0.04009 0.38126 0.0
O214 O 0.41135 0.10963 0.39179 0.0
O215 O 0.39691 0.06263 0.33456 0.0
O216 O 0.40123 0.088 0.34967 0.0
C217 C 0.38024 0.04767 0.39614 0.0
C218 C 0.44078 0.07859 0.37682 0.0
O219 O 0.43464 0.08915 0.3824 0.0
O220 O 0.43023 0.06355 0.36767 0.0
C221 C 0.39733 0.11176 0.39138 0.0
O222 O 0.38167 0.09828 0.38425 0.0
C223 C 0.39699 0.07776 0.33374 0.0
Zn224 Zn 0.34143 0.41505 0.86983 0.0
Zn225 Zn 0.31524 0.42089 0.885 0.0
O226 O 0.31526 0.40126 0.90462 0.0
O227 O 0.33562 0.39523 0.89056 0.0
O228 O 0.29454 0.42448 0.89563 0.0
O229 O 0.32904 0.40842 0.84225 0.0
O230 O 0.30719 0.41293 0.85483 0.0
C231 C 0.3239 0.39227 0.90449 0.0
C232 C 0.35531 0.45244 0.88386 0.0
O233 O 0.33834 0.44672 0.88764 0.0
O234 O 0.3602 0.44149 0.87657 0.0
C235 C 0.27803 0.41117 0.89451 0.0
O236 O 0.27503 0.39527 0.88714 0.0
C237 C 0.31409 0.40855 0.83985 0.0
Zn238 Zn 0.91097 0.34385 0.36755 0.0
Zn239 Zn 0.87936 0.31731 0.38294 0.0
O240 O 0.89943 0.31772 0.40231 0.0
O241 O 0.92545 0.33837 0.38792 0.0
O242 O 0.8554 0.29581 0.39306 0.0
O243 O 0.90552 0.33163 0.33993 0.0
O244 O 0.87943 0.30958 0.35268 0.0
C245 C 0.91705 0.32659 0.40188 0.0
C246 C 0.88698 0.35705 0.38236 0.0
O247 O 0.87597 0.34003 0.38614 0.0
O248 O 0.90273 0.36213 0.37473 0.0
C249 C 0.85432 0.28013 0.39437 0.0
O250 O 0.86902 0.27886 0.39021 0.0
C251 C 0.8906 0.31654 0.33765 0.0
Zn252 Zn 0.04922 0.41729 0.59511 0.0
Zn253 Zn 0.07996 0.41927 0.58093 0.0
O254 O 0.05935 0.39931 0.56226 0.0
O255 O 0.03398 0.39603 0.57652 0.0
O256 O 0.10335 0.41958 0.5721 0.0
O257 O 0.05416 0.4121 0.62371 0.0
O258 O 0.07905 0.41268 0.6118 0.0
C259 C 0.04177 0.39125 0.56315 0.0
C260 C 0.0747 0.45296 0.57825 0.0
O261 O 0.08496 0.44582 0.57598 0.0
O262 O 0.0586 0.44341 0.58554 0.0
C263 C 0.11597 0.4317 0.56078 0.0
O264 O 0.1139 0.44507 0.55308 0.0
C265 C 0.06823 0.41048 0.62669 0.0
Zn266 Zn 0.62674 0.05737 0.09572 0.0
Zn267 Zn 0.65443 0.08848 0.08129 0.0
O268 O 0.65379 0.06801 0.06232 0.0
O269 O 0.63312 0.04231 0.07729 0.0
O270 O 0.67674 0.11199 0.07157 0.0
O271 O 0.63711 0.06293 0.12431 0.0
O272 O 0.66078 0.08812 0.11205 0.0
C273 C 0.64502 0.05041 0.06336 0.0
C274 C 0.61526 0.08203 0.07891 0.0
O275 O 0.63255 0.09301 0.07699 0.0
O276 O 0.60928 0.06584 0.08571 0.0
C277 C 0.69259 0.11421 0.07569 0.0
O278 O 0.69365 0.10088 0.08511 0.0
C279 C 0.65257 0.07732 0.12708 0.0
Zn280 Zn 0.5508 0.62973 0.60124 0.0
Zn281 Zn 0.54793 0.65676 0.58311 0.0
O282 O 0.56594 0.65341 0.56391 0.0
O283 O 0.5686 0.63148 0.57952 0.0
O284 O 0.54737 0.679 0.57166 0.0
O285 O 0.56057 0.6441 0.62723 0.0
O286 O 0.55708 0.66595 0.61285 0.0
C287 C 0.57286 0.64284 0.56486 0.0
C288 C 0.51357 0.61871 0.58846 0.0
O289 O 0.52102 0.63515 0.58158 0.0
O290 O 0.52332 0.61319 0.59758 0.0
C291 C 0.53402 0.67886 0.56211 0.0
O292 O 0.51918 0.66302 0.55801 0.0
C293 C 0.56165 0.6597 0.62829 0.0
Zn294 Zn 0.91707 0.56551 0.10147 0.0
Zn295 Zn 0.88621 0.5602 0.08338 0.0
O296 O 0.90686 0.57852 0.06373 0.0
O297 O 0.93227 0.58315 0.07917 0.0
O298 O 0.86261 0.55767 0.07188 0.0
O299 O 0.9118 0.57521 0.12722 0.0
O300 O 0.8856 0.56932 0.1129 0.0
C301 C 0.92444 0.58633 0.06435 0.0
C302 C 0.89242 0.52751 0.08926 0.0
O303 O 0.8825 0.53391 0.08222 0.0
O304 O 0.90751 0.53814 0.09828 0.0
C305 C 0.86164 0.57228 0.06983 0.0
O306 O 0.87635 0.58826 0.07385 0.0
C307 C 0.89657 0.57493 0.12824 0.0
Zn308 Zn 0.34226 0.92136 0.5976 0.0
Zn309 Zn 0.31453 0.88972 0.58311 0.0
O310 O 0.31547 0.90956 0.56308 0.0
O311 O 0.3374 0.9356 0.57623 0.0
O312 O 0.29224 0.86593 0.57374 0.0
O313 O 0.33013 0.91712 0.62526 0.0
O314 O 0.30737 0.89107 0.61328 0.0
C315 C 0.32516 0.92715 0.56267 0.0
C316 C 0.35381 0.89576 0.58401 0.0
O317 O 0.33667 0.88531 0.58033 0.0
O318 O 0.35963 0.91181 0.59121 0.0
C319 C 0.29257 0.85339 0.56298 0.0
O320 O 0.30846 0.85576 0.55642 0.0
C321 C 0.31477 0.9026 0.62795 0.0
Zn322 Zn 0.40935 0.34937 0.10478 0.0
Zn323 Zn 0.41427 0.32345 0.08733 0.0
O324 O 0.39431 0.32436 0.06898 0.0
O325 O 0.38892 0.34433 0.08519 0.0
O326 O 0.41646 0.30213 0.07592 0.0
O327 O 0.40312 0.33651 0.13197 0.0
O328 O 0.40712 0.31496 0.11758 0.0
C329 C 0.38543 0.33306 0.07058 0.0
C330 C 0.44628 0.36311 0.08871 0.0
O331 O 0.44024 0.34625 0.08396 0.0
O332 O 0.43573 0.36784 0.09744 0.0
C333 C 0.40177 0.28658 0.07437 0.0
O334 O 0.38594 0.28541 0.07905 0.0
C335 C 0.40312 0.32143 0.13327 0.0
H336 H 0.3815 0.05662 0.29982 0.0
H337 H 0.37805 0.06661 0.26581 0.0
H338 H 0.39965 0.12215 0.28829 0.0
H339 H 0.40331 0.11222 0.32272 0.0
H340 H 0.35915 0.08564 0.25087 0.0
H341 H 0.43569 0.1259 0.24171 0.0
H342 H 0.42516 0.1091 0.26198 0.0
H343 H 0.42519 0.13053 0.26336 0.0
C344 C 0.38536 0.07094 0.29768 0.0
C345 C 0.39293 0.08368 0.31392 0.0
C346 C 0.38327 0.0766 0.27823 0.0
C347 C 0.38874 0.09513 0.27451 0.0
C348 C 0.39549 0.10781 0.29085 0.0
H349 H 0.41036 0.11777 0.14286 0.0
H350 H 0.40427 0.12564 0.17732 0.0
C351 C 0.39752 0.1021 0.31048 0.0
C352 C 0.3888 0.10094 0.253 0.0
H353 H 0.41782 0.11767 0.21185 0.0
C354 C 0.37196 0.09315 0.24237 0.0
C355 C 0.40551 0.11093 0.24198 0.0
C356 C 0.42398 0.11961 0.2527 0.0
C357 C 0.37146 0.09362 0.22081 0.0
C358 C 0.38821 0.10178 0.2097 0.0
C359 C 0.40498 0.11131 0.22041 0.0
C360 C 0.38889 0.09735 0.18775 0.0
C361 C 0.35301 0.0844 0.2101 0.0
C362 C 0.38208 0.07886 0.18215 0.0
C363 C 0.38567 0.07438 0.16271 0.0
C364 C 0.39619 0.08829 0.14841 0.0
C365 C 0.40215 0.10676 0.15356 0.0
C366 C 0.39869 0.11127 0.1732 0.0
H367 H 0.3425 0.08552 0.21947 0.0
H368 H 0.35384 0.09052 0.19471 0.0
H369 H 0.34825 0.06951 0.20813 0.0
H370 H 0.37489 0.0679 0.19324 0.0
H371 H 0.38083 0.06002 0.15919 0.0
H372 H 0.32038 0.39316 0.66143 0.0
H373 H 0.30911 0.3887 0.69665 0.0
H374 H 0.27427 0.41127 0.68098 0.0
H375 H 0.28553 0.41578 0.64533 0.0
H376 H 0.29785 0.42814 0.71514 0.0
H377 H 0.25984 0.35244 0.72387 0.0
H378 H 0.2817 0.36034 0.71154 0.0
H379 H 0.26432 0.36362 0.69905 0.0
C380 C 0.31011 0.39693 0.66533 0.0
C381 C 0.3039 0.40489 0.65061 0.0
C382 C 0.30354 0.3942 0.68544 0.0
C383 C 0.29063 0.39937 0.69134 0.0
C384 C 0.28406 0.40698 0.67664 0.0
H385 H 0.28594 0.41382 0.82599 0.0
H386 H 0.27422 0.40993 0.79058 0.0
C387 C 0.2905 0.40954 0.65632 0.0
C388 C 0.28595 0.39868 0.71341 0.0
H389 H 0.27448 0.37016 0.75493 0.0
C390 C 0.29216 0.41542 0.72388 0.0
C391 C 0.27841 0.38205 0.72469 0.0
C392 C 0.27051 0.36358 0.71416 0.0
C393 C 0.29285 0.41618 0.74547 0.0
C394 C 0.28693 0.3997 0.75673 0.0
C395 C 0.27911 0.38278 0.74625 0.0
C396 C 0.29193 0.40012 0.77865 0.0
C397 C 0.30144 0.43473 0.756 0.0
C398 C 0.30527 0.39531 0.78373 0.0
C399 C 0.31194 0.3975 0.80377 0.0
C400 C 0.30537 0.40449 0.81925 0.0
C401 C 0.29134 0.40849 0.81438 0.0
C402 C 0.28468 0.40635 0.79418 0.0
H403 H 0.30685 0.44632 0.74484 0.0
H404 H 0.29096 0.43548 0.76577 0.0
H405 H 0.31292 0.43657 0.76614 0.0
H406 H 0.31104 0.39048 0.77197 0.0
H407 H 0.32262 0.39412 0.80698 0.0
H408 H 0.86251 0.29215 0.14165 0.0
H409 H 0.85309 0.27922 0.17641 0.0
H410 H 0.90843 0.31515 0.19831 0.0
H411 H 0.91793 0.32798 0.16399 0.0
H412 H 0.89062 0.27705 0.2133 0.0
H413 H 0.84837 0.31124 0.22313 0.0
H414 H 0.84427 0.2964 0.2013 0.0
H415 H 0.86529 0.31812 0.20287 0.0
C416 C 0.8727 0.29709 0.15384 0.0
C417 C 0.89092 0.31124 0.15013 0.0
C418 C 0.86728 0.28974 0.17366 0.0
C419 C 0.88005 0.29636 0.1899 0.0
C420 C 0.89838 0.30984 0.18597 0.0
H421 H 0.91443 0.32247 0.30641 0.0
H422 H 0.90716 0.31065 0.27144 0.0
C423 C 0.90376 0.31724 0.16633 0.0
C424 C 0.87453 0.29062 0.21146 0.0
H425 H 0.85709 0.30185 0.25289 0.0
C426 C 0.8828 0.28195 0.22192 0.0
C427 C 0.86417 0.29686 0.22262 0.0
C428 C 0.855 0.30622 0.21205 0.0
C429 C 0.88235 0.28083 0.24346 0.0
C430 C 0.87369 0.28887 0.25472 0.0
C431 C 0.8638 0.2958 0.24419 0.0
C432 C 0.87782 0.29358 0.27677 0.0
C433 C 0.89209 0.27205 0.254 0.0
C434 C 0.8637 0.28797 0.29144 0.0
C435 C 0.86785 0.29476 0.31162 0.0
C436 C 0.88613 0.30755 0.31722 0.0
C437 C 0.90022 0.3127 0.30259 0.0
C438 C 0.8961 0.30579 0.28261 0.0
H439 H 0.89184 0.26098 0.2443 0.0
H440 H 0.90675 0.28264 0.25655 0.0
H441 H 0.88573 0.26613 0.26913 0.0
H442 H 0.84948 0.27874 0.28713 0.0
H443 H 0.85671 0.2906 0.32257 0.0
H444 H 0.56005 0.8641 0.64374 0.0
H445 H 0.56567 0.85618 0.67838 0.0
H446 H 0.58674 0.91252 0.69767 0.0
H447 H 0.58139 0.92055 0.66339 0.0
H448 H 0.60693 0.89541 0.71331 0.0
H449 H 0.53087 0.85322 0.72562 0.0
H450 H 0.54096 0.84787 0.70414 0.0
H451 H 0.54036 0.869 0.70428 0.0
C452 C 0.56619 0.87485 0.65529 0.0
C453 C 0.57004 0.8929 0.65091 0.0
C454 C 0.56932 0.87028 0.67506 0.0
C455 C 0.57641 0.88373 0.69061 0.0
C456 C 0.58125 0.90194 0.68588 0.0
H457 H 0.58671 0.92096 0.80638 0.0
H458 H 0.59177 0.91318 0.77187 0.0
C459 C 0.57808 0.90648 0.66628 0.0
C460 C 0.57728 0.87899 0.71236 0.0
H461 H 0.54972 0.86239 0.7547 0.0
C462 C 0.59446 0.88773 0.72234 0.0
C463 C 0.56102 0.86881 0.72408 0.0
C464 C 0.5422 0.85919 0.71412 0.0
C465 C 0.59568 0.88786 0.74387 0.0
C466 C 0.57929 0.87932 0.75565 0.0
C467 C 0.56226 0.86901 0.74562 0.0
C468 C 0.5791 0.88387 0.77766 0.0
C469 C 0.61444 0.898 0.75384 0.0
C470 C 0.57031 0.86997 0.79251 0.0
C471 C 0.56734 0.87441 0.81241 0.0
C472 C 0.57279 0.89278 0.81756 0.0
C473 C 0.58228 0.90668 0.80289 0.0
C474 C 0.58538 0.90227 0.78318 0.0
H475 H 0.62499 0.89734 0.74406 0.0
H476 H 0.61856 0.91276 0.75564 0.0
H477 H 0.61442 0.89226 0.76925 0.0
H478 H 0.56515 0.85565 0.78847 0.0
H479 H 0.55993 0.8634 0.82338 0.0
H480 H 0.64934 0.5879 0.30326 0.0
H481 H 0.66252 0.59247 0.26894 0.0
H482 H 0.69626 0.56968 0.28848 0.0
H483 H 0.68294 0.56488 0.32319 0.0
H484 H 0.70011 0.61143 0.25338 0.0
H485 H 0.6633 0.5352 0.24126 0.0
H486 H 0.65749 0.5453 0.26245 0.0
H487 H 0.67872 0.5449 0.26282 0.0
C488 C 0.65973 0.58405 0.30041 0.0
C489 C 0.66491 0.5758 0.31588 0.0
C490 C 0.66733 0.58677 0.28079 0.0
C491 C 0.68021 0.58124 0.27613 0.0
C492 C 0.6862 0.57388 0.29176 0.0
H493 H 0.68269 0.56449 0.14298 0.0
H494 H 0.69548 0.5687 0.17791 0.0
C495 C 0.67864 0.57122 0.31156 0.0
C496 C 0.68568 0.58174 0.25438 0.0
H497 H 0.67323 0.55391 0.21208 0.0
C498 C 0.69474 0.59887 0.24437 0.0
C499 C 0.67883 0.56535 0.24269 0.0
C500 C 0.66898 0.54659 0.25271 0.0
C501 C 0.6957 0.59998 0.22283 0.0
C502 C 0.68708 0.58356 0.21109 0.0
C503 C 0.67973 0.56648 0.22113 0.0
C504 C 0.68225 0.58358 0.18916 0.0
C505 C 0.705 0.61873 0.21282 0.0
C506 C 0.6707 0.59063 0.18392 0.0
C507 C 0.66328 0.5881 0.16421 0.0
C508 C 0.66721 0.57842 0.14925 0.0
C509 C 0.67946 0.57207 0.15417 0.0
C510 C 0.68678 0.57446 0.17409 0.0
H511 H 0.7165 0.62898 0.22253 0.0
H512 H 0.71047 0.61833 0.19737 0.0
H513 H 0.69486 0.62351 0.21108 0.0
H514 H 0.66662 0.5973 0.1954 0.0
H515 H 0.65395 0.59323 0.1609 0.0
H516 H 0.10906 0.69059 0.64041 0.0
H517 H 0.11724 0.70402 0.6751 0.0
H518 H 0.06106 0.66867 0.69475 0.0
H519 H 0.05278 0.6554 0.66042 0.0
H520 H 0.07823 0.70606 0.71031 0.0
H521 H 0.12063 0.6723 0.72229 0.0
H522 H 0.12574 0.6876 0.70074 0.0
H523 H 0.10464 0.66588 0.7011 0.0
C524 C 0.09841 0.68593 0.65205 0.0
C525 C 0.08032 0.67176 0.64774 0.0
C526 C 0.10312 0.69356 0.67185 0.0
C527 C 0.08979 0.68717 0.68751 0.0
C528 C 0.07156 0.6738 0.68288 0.0
H529 H 0.05326 0.66058 0.80338 0.0
H530 H 0.06089 0.67317 0.76879 0.0
C531 C 0.06687 0.66614 0.66324 0.0
C532 C 0.09466 0.69283 0.70924 0.0
H533 H 0.11159 0.68203 0.75146 0.0
C534 C 0.08598 0.70131 0.71928 0.0
C535 C 0.10494 0.68679 0.72088 0.0
C536 C 0.11452 0.67757 0.71084 0.0
C537 C 0.086 0.70247 0.74082 0.0
C538 C 0.09464 0.69467 0.75253 0.0
C539 C 0.10489 0.68792 0.74243 0.0
C540 C 0.0902 0.68999 0.77455 0.0
C541 C 0.07589 0.71111 0.75085 0.0
C542 C 0.10415 0.69527 0.7894 0.0
C543 C 0.09979 0.68801 0.80937 0.0
C544 C 0.08147 0.67508 0.81455 0.0
C545 C 0.06751 0.67045 0.79985 0.0
C546 C 0.07183 0.67782 0.7801 0.0
H547 H 0.07642 0.72224 0.74106 0.0
H548 H 0.06117 0.70047 0.75281 0.0
H549 H 0.08177 0.71692 0.7662 0.0
H550 H 0.11845 0.70447 0.78534 0.0
H551 H 0.11084 0.69176 0.82036 0.0
H552 H 0.86189 0.56608 0.14139 0.0
H553 H 0.85316 0.57051 0.17613 0.0
H554 H 0.91048 0.59911 0.19398 0.0
H555 H 0.91923 0.59483 0.15964 0.0
H556 H 0.86025 0.55561 0.21017 0.0
H557 H 0.89222 0.63062 0.22126 0.0
H558 H 0.88787 0.62017 0.19601 0.0
H559 H 0.90848 0.62517 0.21 0.0
C560 C 0.87264 0.57373 0.1526 0.0
C561 C 0.89124 0.57999 0.14785 0.0
C562 C 0.86763 0.57625 0.17241 0.0
C563 C 0.88118 0.58539 0.18756 0.0
C564 C 0.8998 0.59243 0.18244 0.0
H565 H 0.9178 0.58861 0.30146 0.0
H566 H 0.90927 0.5936 0.26729 0.0
C567 C 0.90478 0.58978 0.16282 0.0
C568 C 0.87618 0.58526 0.20946 0.0
H569 H 0.89084 0.6128 0.25202 0.0
C570 C 0.86632 0.56812 0.21934 0.0
C571 C 0.88397 0.6016 0.22135 0.0
C572 C 0.89355 0.62042 0.21153 0.0
C573 C 0.86593 0.56682 0.24088 0.0
C574 C 0.87547 0.58311 0.25274 0.0
C575 C 0.88366 0.60032 0.24288 0.0
C576 C 0.88037 0.58239 0.27447 0.0
C577 C 0.85687 0.54797 0.25072 0.0
C578 C 0.867 0.5749 0.29007 0.0
C579 C 0.87187 0.572 0.3098 0.0
C580 C 0.89013 0.57644 0.31406 0.0
C581 C 0.90358 0.58483 0.29865 0.0
C582 C 0.89875 0.58781 0.27911 0.0
H583 H 0.85116 0.53667 0.23916 0.0
H584 H 0.86699 0.54651 0.26045 0.0
H585 H 0.84544 0.5463 0.26081 0.0
H586 H 0.85276 0.57078 0.28681 0.0
H587 H 0.86122 0.56555 0.32139 0.0
H588 H 0.28685 0.87099 0.82302 0.0
H589 H 0.27458 0.8642 0.78779 0.0
H590 H 0.31213 0.92056 0.77045 0.0
H591 H 0.3242 0.92749 0.80536 0.0
H592 H 0.27641 0.90556 0.75258 0.0
H593 H 0.30688 0.86 0.7425 0.0
H594 H 0.2905 0.85478 0.76292 0.0
H595 H 0.31268 0.87531 0.76427 0.0
C596 C 0.29221 0.882 0.81178 0.0
C597 C 0.30669 0.89972 0.81691 0.0
C598 C 0.28525 0.87807 0.79166 0.0
C599 C 0.29267 0.89181 0.77646 0.0
C600 C 0.30624 0.90974 0.78193 0.0
H601 H 0.32267 0.92714 0.6591 0.0
H602 H 0.31096 0.92082 0.69415 0.0
C603 C 0.3132 0.91366 0.80191 0.0
C604 C 0.28789 0.8876 0.75443 0.0
H605 H 0.29826 0.86951 0.71286 0.0
C606 C 0.28072 0.89728 0.74391 0.0
C607 C 0.29341 0.87668 0.74316 0.0
C608 C 0.30138 0.86612 0.75366 0.0
C609 C 0.28023 0.89745 0.72234 0.0
C610 C 0.28732 0.88791 0.71107 0.0
C611 C 0.2929 0.87687 0.72157 0.0
C612 C 0.29214 0.89173 0.68901 0.0
C613 C 0.27296 0.90858 0.71179 0.0
C614 C 0.28553 0.87744 0.67443 0.0
C615 C 0.29227 0.88103 0.65422 0.0
C616 C 0.30598 0.8989 0.64847 0.0
C617 C 0.31216 0.91321 0.66302 0.0
C618 C 0.30533 0.90966 0.68305 0.0
H619 H 0.26235 0.90932 0.72137 0.0
H620 H 0.28446 0.92288 0.70947 0.0
H621 H 0.26689 0.90264 0.69655 0.0
H622 H 0.27553 0.86346 0.67882 0.0
H623 H 0.28729 0.86971 0.64337 0.0
H624 H 0.40948 0.29268 0.32784 0.0
H625 H 0.40566 0.28036 0.29267 0.0
H626 H 0.38773 0.31793 0.27236 0.0
H627 H 0.39146 0.33023 0.30706 0.0
H628 H 0.36622 0.27912 0.25717 0.0
H629 H 0.44237 0.31318 0.24552 0.0
H630 H 0.43188 0.29864 0.2676 0.0
H631 H 0.43286 0.3205 0.26596 0.0
C632 C 0.40452 0.29813 0.3159 0.0
C633 C 0.40095 0.31256 0.32018 0.0
C634 C 0.40239 0.29111 0.29586 0.0
C635 C 0.39652 0.29834 0.27997 0.0
C636 C 0.39225 0.31217 0.28444 0.0
H637 H 0.38552 0.32622 0.16568 0.0
H638 H 0.38175 0.31357 0.20013 0.0
C639 C 0.39449 0.31925 0.30428 0.0
C640 C 0.39588 0.29277 0.25826 0.0
H641 H 0.42375 0.30482 0.21608 0.0
C642 C 0.37876 0.28419 0.24819 0.0
C643 C 0.41224 0.29922 0.24665 0.0
C644 C 0.43095 0.30844 0.25684 0.0
C645 C 0.37768 0.2834 0.22665 0.0
C646 C 0.39413 0.29173 0.215 0.0
C647 C 0.41115 0.29854 0.22508 0.0
C648 C 0.39425 0.29693 0.19321 0.0
C649 C 0.35896 0.27468 0.21656 0.0
C650 C 0.40265 0.29186 0.17781 0.0
C651 C 0.40484 0.29914 0.15791 0.0
C652 C 0.39903 0.31188 0.15334 0.0
C653 C 0.39021 0.31649 0.1687 0.0
C654 C 0.38785 0.3091 0.18838 0.0
H655 H 0.34844 0.26333 0.22618 0.0
H656 H 0.35467 0.2852 0.21486 0.0
H657 H 0.35917 0.26916 0.20109 0.0
H658 H 0.4079 0.28267 0.18132 0.0
H659 H 0.41175 0.2954 0.14639 0.0
H660 H 0.10073 0.41469 0.64216 0.0
H661 H 0.10721 0.4106 0.67808 0.0
H662 H 0.05094 0.3935 0.6943 0.0
H663 H 0.04439 0.39747 0.65884 0.0
H664 H 0.10343 0.42999 0.71138 0.0
H665 H 0.05948 0.35504 0.72323 0.0
H666 H 0.06642 0.36518 0.69795 0.0
H667 H 0.04696 0.3645 0.71069 0.0
C668 C 0.08969 0.40975 0.65335 0.0
C669 C 0.07207 0.40648 0.64769 0.0
C670 C 0.09341 0.40742 0.67382 0.0
C671 C 0.07947 0.40144 0.68875 0.0
C672 C 0.06179 0.39769 0.68295 0.0
H673 H 0.04734 0.40487 0.80566 0.0
H674 H 0.05322 0.39987 0.77021 0.0
C675 C 0.05812 0.40016 0.66267 0.0
C676 C 0.08346 0.40099 0.71085 0.0
H677 H 0.06482 0.37439 0.75353 0.0
C678 C 0.0955 0.41772 0.72063 0.0
C679 C 0.07316 0.38494 0.72282 0.0
C680 C 0.06093 0.36636 0.71308 0.0
C681 C 0.09606 0.41921 0.74217 0.0
C682 C 0.08441 0.40351 0.75407 0.0
C683 C 0.07363 0.38644 0.74432 0.0
C684 C 0.08091 0.40518 0.77604 0.0
C685 C 0.10788 0.43786 0.75199 0.0
C686 C 0.09448 0.40953 0.79112 0.0
C687 C 0.09115 0.41241 0.81154 0.0
C688 C 0.07423 0.41104 0.81707 0.0
C689 C 0.06055 0.40616 0.80194 0.0
C690 C 0.06385 0.40322 0.78167 0.0
H691 H 0.11512 0.44894 0.74041 0.0
H692 H 0.09926 0.44145 0.76181 0.0
H693 H 0.11838 0.4374 0.76202 0.0
H694 H 0.10768 0.41097 0.78704 0.0
H695 H 0.10195 0.4161 0.82285 0.0
H696 H 0.6756 0.10755 0.32372 0.0
H697 H 0.68818 0.11591 0.28868 0.0
H698 H 0.65092 0.06034 0.26838 0.0
H699 H 0.63846 0.05188 0.30298 0.0
H700 H 0.68838 0.07639 0.25304 0.0
H701 H 0.65708 0.12107 0.24153 0.0
H702 H 0.67204 0.12526 0.26325 0.0
H703 H 0.64988 0.1047 0.26239 0.0
C704 C 0.67027 0.09709 0.31181 0.0
C705 C 0.65589 0.0791 0.31607 0.0
C706 C 0.67742 0.10191 0.29182 0.0
C707 C 0.67034 0.08877 0.27595 0.0
C708 C 0.65657 0.07068 0.28043 0.0
H709 H 0.64361 0.05358 0.15912 0.0
H710 H 0.65446 0.06064 0.19448 0.0
C711 C 0.6494 0.06589 0.30022 0.0
C712 C 0.67605 0.09363 0.25426 0.0
H713 H 0.66614 0.11146 0.21215 0.0
C714 C 0.68403 0.08451 0.24413 0.0
C715 C 0.6705 0.10437 0.24271 0.0
C716 C 0.66184 0.11442 0.25288 0.0
C717 C 0.68516 0.08456 0.22261 0.0
C718 C 0.6779 0.09374 0.21099 0.0
C719 C 0.67161 0.10437 0.22115 0.0
C720 C 0.6734 0.08961 0.18891 0.0
C721 C 0.69312 0.07387 0.21244 0.0
C722 C 0.68038 0.10361 0.174 0.0
C723 C 0.6742 0.09957 0.15359 0.0
C724 C 0.66064 0.08157 0.14798 0.0
C725 C 0.654 0.06759 0.16293 0.0
C726 C 0.66032 0.07157 0.18313 0.0
H727 H 0.70356 0.07326 0.22247 0.0
H728 H 0.68191 0.05951 0.20962 0.0
H729 H 0.69962 0.0801 0.19745 0.0
H730 H 0.69031 0.11766 0.17825 0.0
H731 H 0.67951 0.11064 0.14241 0.0
H732 H 0.5791 0.65396 0.6602 0.0
H733 H 0.58479 0.66754 0.69441 0.0
H734 H 0.56284 0.7022 0.67564 0.0
H735 H 0.55691 0.68847 0.64103 0.0
H736 H 0.60491 0.70525 0.70957 0.0
H737 H 0.52902 0.67021 0.72369 0.0
H738 H 0.53831 0.66384 0.70218 0.0
H739 H 0.53856 0.6854 0.70195 0.0
C740 C 0.57566 0.66463 0.66319 0.0
C741 C 0.56731 0.66995 0.64798 0.0
C742 C 0.57904 0.67246 0.68274 0.0
C743 C 0.57407 0.68573 0.6876 0.0
C744 C 0.56661 0.69185 0.6722 0.0
H745 H 0.55969 0.68846 0.8209 0.0
H746 H 0.56396 0.70165 0.78623 0.0
C747 C 0.5633 0.68404 0.65246 0.0
C748 C 0.57523 0.69145 0.70935 0.0
H749 H 0.5484 0.67978 0.75237 0.0
C750 C 0.59259 0.7002 0.71892 0.0
C751 C 0.55914 0.68503 0.72148 0.0
C752 C 0.54015 0.67554 0.71195 0.0
C753 C 0.5942 0.70122 0.74043 0.0
C754 C 0.57803 0.69298 0.75259 0.0
C755 C 0.56078 0.68599 0.74301 0.0
C756 C 0.57839 0.68814 0.77445 0.0
C757 C 0.61317 0.71019 0.74994 0.0
C758 C 0.58525 0.67636 0.77936 0.0
C759 C 0.5827 0.66873 0.79895 0.0
C760 C 0.57319 0.67266 0.8141 0.0
C761 C 0.56714 0.68522 0.80955 0.0
C762 C 0.56956 0.69277 0.78978 0.0
H763 H 0.62333 0.72161 0.74011 0.0
H764 H 0.61326 0.71569 0.76552 0.0
H765 H 0.61772 0.69983 0.75124 0.0
H766 H 0.59168 0.6722 0.76768 0.0
H767 H 0.58758 0.65915 0.80196 0.0
H768 H 0.37436 0.12209 0.06711 0.0
H769 H 0.37482 0.15135 0.06326 0.0
H770 H 0.43425 0.18024 0.06077 0.0
H771 H 0.43394 0.15097 0.06436 0.0
H772 H 0.39149 0.17991 0.09145 0.0
H773 H 0.42091 0.20386 0.0135 0.0
H774 H 0.41156 0.18024 0.02173 0.0
H775 H 0.43419 0.1976 0.02991 0.0
C776 C 0.38754 0.13461 0.06538 0.0
C777 C 0.40412 0.13418 0.06611 0.0
C778 C 0.38777 0.15134 0.06319 0.0
C779 C 0.40455 0.16797 0.06157 0.0
C780 C 0.42112 0.16755 0.06161 0.0
H781 H 0.43242 0.28304 0.06895 0.0
H782 H 0.43331 0.25438 0.06468 0.0
C783 C 0.42091 0.1508 0.06377 0.0
C784 C 0.40468 0.18577 0.0618 0.0
H785 H 0.41758 0.22529 0.03454 0.0
C786 C 0.39709 0.18978 0.07894 0.0
C787 C 0.41218 0.1987 0.04557 0.0
C788 C 0.42004 0.19488 0.02653 0.0
C789 C 0.3969 0.2064 0.0804 0.0
C790 C 0.40417 0.21925 0.06407 0.0
C791 C 0.41195 0.21537 0.04699 0.0
C792 C 0.40366 0.23671 0.06459 0.0
C793 C 0.3892 0.21021 0.09961 0.0
C794 C 0.3867 0.23629 0.0653 0.0
C795 C 0.38613 0.25258 0.0678 0.0
C796 C 0.40253 0.26965 0.0695 0.0
C797 C 0.41953 0.27012 0.06777 0.0
C798 C 0.42008 0.25377 0.06532 0.0
H799 H 0.38859 0.20133 0.11264 0.0
H800 H 0.39765 0.22487 0.10435 0.0
H801 H 0.37497 0.20734 0.0965 0.0
H802 H 0.37387 0.22329 0.06438 0.0
H803 H 0.3728 0.25172 0.06887 0.0
H804 H 0.12485 0.40635 0.57508 0.0
H805 H 0.15433 0.40711 0.5719 0.0
H806 H 0.17604 0.45698 0.53609 0.0
H807 H 0.14664 0.45649 0.53936 0.0
H808 H 0.1744 0.40742 0.53658 0.0
H809 H 0.21325 0.47103 0.58362 0.0
H810 H 0.18837 0.45796 0.58307 0.0
H811 H 0.20088 0.47293 0.56204 0.0
C812 C 0.13585 0.41746 0.56644 0.0
C813 C 0.13341 0.43145 0.55761 0.0
C814 C 0.15269 0.41785 0.56462 0.0
C815 C 0.16746 0.43225 0.55403 0.0
C816 C 0.16492 0.44593 0.54465 0.0
H817 H 0.28233 0.4584 0.54354 0.0
H818 H 0.25311 0.45804 0.53879 0.0
C819 C 0.14807 0.44556 0.54645 0.0
C820 C 0.18557 0.43304 0.55322 0.0
H821 H 0.23026 0.45817 0.56949 0.0
C822 C 0.18664 0.41854 0.54371 0.0
C823 C 0.20152 0.44759 0.56249 0.0
C824 C 0.20102 0.46321 0.57354 0.0
C825 C 0.20325 0.41817 0.54327 0.0
C826 C 0.2191 0.43251 0.55293 0.0
C827 C 0.21811 0.4472 0.56207 0.0
C828 C 0.23661 0.43214 0.55464 0.0
C829 C 0.20369 0.40248 0.53233 0.0
C830 C 0.23705 0.41774 0.56518 0.0
C831 C 0.2537 0.41789 0.56791 0.0
C832 C 0.27031 0.43254 0.56028 0.0
C833 C 0.26981 0.44689 0.54956 0.0
C834 C 0.25312 0.44672 0.54685 0.0
H835 H 0.19248 0.39592 0.52073 0.0
H836 H 0.21713 0.40726 0.52453 0.0
H837 H 0.20172 0.39179 0.54374 0.0
H838 H 0.22457 0.40656 0.57173 0.0
H839 H 0.25357 0.40666 0.57633 0.0
H840 H 0.82814 0.28251 0.0709 0.0
H841 H 0.79815 0.2542 0.06822 0.0
H842 H 0.82539 0.22287 0.05683 0.0
H843 H 0.85544 0.25103 0.05952 0.0
H844 H 0.79184 0.21414 0.03077 0.0
H845 H 0.78221 0.21398 0.11562 0.0
H846 H 0.78838 0.23502 0.10203 0.0
H847 H 0.80459 0.22696 0.10365 0.0
C848 C 0.82777 0.26965 0.06753 0.0
C849 C 0.8442 0.26901 0.0656 0.0
C850 C 0.81062 0.2535 0.06605 0.0
C851 C 0.80961 0.23648 0.06251 0.0
C852 C 0.82592 0.2359 0.05959 0.0
H853 H 0.72782 0.12438 0.08695 0.0
H854 H 0.75563 0.15429 0.08213 0.0
C855 C 0.84307 0.252 0.0612 0.0
C856 C 0.79168 0.21909 0.06325 0.0
H857 H 0.7586 0.18967 0.09672 0.0
C858 C 0.78445 0.20883 0.04512 0.0
C859 C 0.78224 0.21217 0.08207 0.0
C860 C 0.78972 0.22247 0.10204 0.0
C861 C 0.76798 0.19173 0.04537 0.0
C862 C 0.75862 0.1848 0.06421 0.0
C863 C 0.76581 0.19512 0.08229 0.0
C864 C 0.74182 0.16644 0.06577 0.0
C865 C 0.76089 0.18091 0.02566 0.0
C866 C 0.72485 0.16338 0.05807 0.0
C867 C 0.70883 0.14628 0.06091 0.0
C868 C 0.70958 0.13198 0.07144 0.0
C869 C 0.72672 0.13505 0.07874 0.0
C870 C 0.74265 0.15214 0.07603 0.0
H871 H 0.77089 0.18716 0.01282 0.0
H872 H 0.75783 0.16651 0.02796 0.0
H873 H 0.74783 0.18038 0.02118 0.0
H874 H 0.72393 0.17433 0.05028 0.0
H875 H 0.69585 0.14437 0.05511 0.0
H876 H 0.50721 0.6838 0.54395 0.0
H877 H 0.50733 0.71286 0.53894 0.0
H878 H 0.56187 0.74273 0.56526 0.0
H879 H 0.56201 0.71388 0.57004 0.0
H880 H 0.51008 0.7367 0.56958 0.0
H881 H 0.56739 0.77304 0.51423 0.0
H882 H 0.5567 0.74857 0.51896 0.0
H883 H 0.5739 0.76479 0.53636 0.0
C884 C 0.51935 0.69658 0.54838 0.0
C885 C 0.5346 0.69649 0.5574 0.0
C886 C 0.51938 0.71317 0.54552 0.0
C887 C 0.5347 0.73 0.55146 0.0
C888 C 0.55006 0.72998 0.56011 0.0
H889 H 0.56249 0.84169 0.57406 0.0
H890 H 0.56131 0.81221 0.56881 0.0
C891 C 0.55006 0.71342 0.56297 0.0
C892 C 0.5341 0.74742 0.5502 0.0
H893 H 0.55769 0.79171 0.53242 0.0
C894 C 0.52031 0.74865 0.5612 0.0
C895 C 0.5475 0.763 0.5393 0.0
C896 C 0.5621 0.76227 0.52638 0.0
C897 C 0.52001 0.76526 0.56231 0.0
C898 C 0.5337 0.78098 0.55186 0.0
C899 C 0.54723 0.77964 0.54044 0.0
C900 C 0.53478 0.79918 0.55357 0.0
C901 C 0.5055 0.76605 0.57536 0.0
C902 C 0.52044 0.80177 0.54629 0.0
C903 C 0.52104 0.81864 0.54929 0.0
C904 C 0.53604 0.83323 0.55957 0.0
C905 C 0.55068 0.83075 0.56617 0.0
C906 C 0.55006 0.81391 0.56315 0.0
H907 H 0.49845 0.75394 0.58575 0.0
H908 H 0.51168 0.7788 0.58484 0.0
H909 H 0.49493 0.76622 0.5652 0.0
H910 H 0.50866 0.79068 0.53853 0.0
H911 H 0.50959 0.8201 0.5439 0.0
H912 H 0.72548 0.60068 0.06626 0.0
H913 H 0.75375 0.59929 0.06203 0.0
H914 H 0.72212 0.53987 0.06192 0.0
H915 H 0.69363 0.5411 0.06594 0.0
H916 H 0.76592 0.58284 0.09044 0.0
H917 H 0.75744 0.55114 0.01313 0.0
H918 H 0.74394 0.56133 0.02154 0.0
H919 H 0.7384 0.53883 0.03044 0.0
C920 C 0.72445 0.58729 0.06503 0.0
C921 C 0.70728 0.57099 0.06651 0.0
C922 C 0.74065 0.58653 0.06261 0.0
C923 C 0.74004 0.56949 0.06149 0.0
C924 C 0.72289 0.55317 0.06237 0.0
H925 H 0.82744 0.54141 0.06596 0.0
H926 H 0.79768 0.54027 0.06281 0.0
C927 C 0.70663 0.55391 0.06478 0.0
C928 C 0.75751 0.56895 0.06121 0.0
H929 H 0.78301 0.55518 0.03302 0.0
C930 C 0.76968 0.57686 0.07784 0.0
C931 C 0.76229 0.56097 0.04485 0.0
C932 C 0.74993 0.5527 0.02637 0.0
C933 C 0.78649 0.57699 0.07861 0.0
C934 C 0.79146 0.56931 0.06211 0.0
C935 C 0.77919 0.56113 0.04559 0.0
C936 C 0.80947 0.56989 0.06183 0.0
C937 C 0.79869 0.58512 0.09727 0.0
C938 C 0.82596 0.58689 0.06163 0.0
C939 C 0.84294 0.5876 0.06347 0.0
C940 C 0.84378 0.5713 0.06543 0.0
C941 C 0.82728 0.55423 0.06456 0.0
C942 C 0.81026 0.55354 0.06275 0.0
H943 H 0.79091 0.58605 0.11064 0.0
H944 H 0.80508 0.57677 0.10179 0.0
H945 H 0.80991 0.59927 0.0936 0.0
H946 H 0.82566 0.59966 0.06054 0.0
H947 H 0.85537 0.60098 0.06388 0.0
H948 H 0.25748 0.84427 0.57406 0.0
H949 H 0.22922 0.81461 0.56963 0.0
H950 H 0.25996 0.79302 0.53857 0.0
H951 H 0.2884 0.82263 0.54307 0.0
H952 H 0.21205 0.79394 0.53309 0.0
H953 H 0.23405 0.75652 0.5864 0.0
H954 H 0.24549 0.78137 0.58547 0.0
H955 H 0.2497 0.76886 0.56578 0.0
C956 C 0.25826 0.83326 0.5662 0.0
C957 C 0.27526 0.8358 0.55906 0.0
C958 C 0.24208 0.81633 0.56366 0.0
C959 C 0.24255 0.80156 0.55403 0.0
C960 C 0.25936 0.80416 0.54634 0.0
H961 H 0.1551 0.68609 0.54491 0.0
H962 H 0.18401 0.71517 0.54006 0.0
C963 C 0.27558 0.82113 0.54885 0.0
C964 C 0.22546 0.78336 0.55255 0.0
H965 H 0.20508 0.73916 0.57051 0.0
C966 C 0.21053 0.78192 0.54118 0.0
C967 C 0.22356 0.7677 0.56306 0.0
C968 C 0.23897 0.76861 0.57601 0.0
C969 C 0.19368 0.76525 0.54014 0.0
C970 C 0.19161 0.74973 0.55112 0.0
C971 C 0.20669 0.75106 0.56208 0.0
C972 C 0.17367 0.73228 0.55243 0.0
C973 C 0.1783 0.76441 0.52722 0.0
C974 C 0.15824 0.73224 0.56098 0.0
C975 C 0.14171 0.71567 0.56373 0.0
C976 C 0.14029 0.69876 0.55818 0.0
C977 C 0.15569 0.69886 0.54933 0.0
C978 C 0.17224 0.71546 0.54655 0.0
H979 H 0.18371 0.77512 0.515 0.0
H980 H 0.17002 0.75067 0.51988 0.0
H981 H 0.16902 0.76696 0.53718 0.0
H982 H 0.15913 0.74498 0.56609 0.0
H983 H 0.13017 0.71612 0.57069 0.0
H984 H 0.84252 0.56873 0.40787 0.0
H985 H 0.81386 0.56905 0.41479 0.0
H986 H 0.78339 0.51924 0.37922 0.0
H987 H 0.81178 0.5187 0.37238 0.0
H988 H 0.79121 0.57133 0.385 0.0
H989 H 0.75193 0.50775 0.43098 0.0
H990 H 0.77655 0.51857 0.42715 0.0
H991 H 0.76086 0.50383 0.4076 0.0
C992 C 0.82966 0.55768 0.4018 0.0
C993 C 0.82944 0.54369 0.38956 0.0
C994 C 0.81332 0.55791 0.40575 0.0
C995 C 0.79645 0.54403 0.39777 0.0
C996 C 0.79616 0.52986 0.38592 0.0
H997 H 0.68755 0.51992 0.37112 0.0
H998 H 0.71676 0.52083 0.37742 0.0
C999 C 0.81246 0.52966 0.3819 0.0
C1000 C 0.77934 0.54504 0.40025 0.0
H1001 H 0.7342 0.51974 0.41485 0.0
C1002 C 0.77882 0.56023 0.39188 0.0
C1003 C 0.76321 0.53053 0.40923 0.0
C1004 C 0.76317 0.51433 0.41944 0.0
C1005 C 0.76234 0.56083 0.39119 0.0
C1006 C 0.74603 0.54595 0.3994 0.0
C1007 C 0.74672 0.5311 0.40851 0.0
C1008 C 0.72787 0.54487 0.39713 0.0
C1009 C 0.7623 0.5769 0.38073 0.0
C1010 C 0.72425 0.55785 0.40652 0.0
C1011 C 0.70751 0.55738 0.40295 0.0
C1012 C 0.69411 0.5439 0.38992 0.0
C1013 C 0.69758 0.53055 0.38114 0.0
C1014 C 0.71426 0.53101 0.38476 0.0
H1015 H 0.77521 0.58554 0.37198 0.0
H1016 H 0.75041 0.57198 0.37002 0.0
H1017 H 0.76092 0.58574 0.39252 0.0
H1018 H 0.73448 0.56849 0.41637 0.0
H1019 H 0.70524 0.56781 0.41002 0.0
H1020 H 0.13162 0.71984 0.89068 0.0
H1021 H 0.16096 0.74841 0.89522 0.0
H1022 H 0.18301 0.71858 0.92732 0.0
H1023 H 0.15375 0.68982 0.92262 0.0
H1024 H 0.18138 0.76662 0.93076 0.0
H1025 H 0.21978 0.74377 0.88011 0.0
H1026 H 0.19491 0.73189 0.88106 0.0
H1027 H 0.20773 0.72867 0.90122 0.0
C1028 C 0.14265 0.71933 0.89882 0.0
C1029 C 0.14037 0.70248 0.90611 0.0
C1030 C 0.15941 0.7357 0.90143 0.0
C1031 C 0.17426 0.73557 0.9113 0.0
C1032 C 0.17184 0.71893 0.9193 0.0
H1033 H 0.28931 0.82351 0.92214 0.0
H1034 H 0.26007 0.79475 0.92685 0.0
C1035 C 0.15506 0.70252 0.91669 0.0
C1036 C 0.19239 0.75281 0.91261 0.0
H1037 H 0.23692 0.77297 0.89567 0.0
C1038 C 0.19355 0.76801 0.92316 0.0
C1039 C 0.20825 0.75457 0.9027 0.0
C1040 C 0.20767 0.73894 0.89048 0.0
C1041 C 0.21015 0.78494 0.92402 0.0
C1042 C 0.22591 0.78681 0.91375 0.0
C1043 C 0.22483 0.7715 0.90357 0.0
C1044 C 0.24339 0.80472 0.91244 0.0
C1045 C 0.21069 0.80065 0.93602 0.0
C1046 C 0.24374 0.81989 0.9028 0.0
C1047 C 0.26041 0.83634 0.90009 0.0
C1048 C 0.27712 0.83792 0.90683 0.0
C1049 C 0.2767 0.82279 0.91679 0.0
C1050 C 0.26 0.80633 0.91949 0.0
H1051 H 0.19959 0.79559 0.94778 0.0
H1052 H 0.22421 0.80901 0.94379 0.0
H1053 H 0.2086 0.80976 0.9253 0.0
H1054 H 0.23116 0.81885 0.89683 0.0
H1055 H 0.26021 0.84767 0.89227 0.0
H1056 H 0.3701 0.12072 0.39116 0.0
H1057 H 0.37319 0.15095 0.39712 0.0
H1058 H 0.43106 0.17369 0.41028 0.0
H1059 H 0.42818 0.14347 0.40406 0.0
H1060 H 0.38563 0.17488 0.43153 0.0
H1061 H 0.43057 0.20614 0.36308 0.0
H1062 H 0.41771 0.18155 0.36725 0.0
H1063 H 0.4385 0.19566 0.38152 0.0
C1064 C 0.38348 0.13209 0.39545 0.0
C1065 C 0.39893 0.1297 0.39693 0.0
C1066 C 0.3852 0.14937 0.39889 0.0
C1067 C 0.4024 0.16462 0.40382 0.0
C1068 C 0.41773 0.16216 0.40612 0.0
H1069 H 0.43144 0.28085 0.40721 0.0
H1070 H 0.43275 0.25247 0.41193 0.0
C1071 C 0.41603 0.14486 0.40266 0.0
C1072 C 0.40425 0.18314 0.40576 0.0
H1073 H 0.42321 0.22529 0.38253 0.0
C1074 C 0.39395 0.18596 0.42092 0.0
C1075 C 0.41515 0.19758 0.39193 0.0
C1076 C 0.42602 0.19514 0.3749 0.0
C1077 C 0.39406 0.20276 0.42244 0.0
C1078 C 0.4045 0.21699 0.40819 0.0
C1079 C 0.41525 0.21437 0.39345 0.0
C1080 C 0.40349 0.23419 0.40731 0.0
C1081 C 0.38298 0.20511 0.43926 0.0
C1082 C 0.38662 0.23334 0.40319 0.0
C1083 C 0.38582 0.24949 0.40047 0.0
C1084 C 0.40192 0.26686 0.40168 0.0
C1085 C 0.41877 0.2677 0.40623 0.0
C1086 C 0.41956 0.25151 0.40891 0.0
H1087 H 0.38066 0.1957 0.45238 0.0
H1088 H 0.38995 0.21953 0.44504 0.0
H1089 H 0.36929 0.20175 0.43306 0.0
H1090 H 0.37412 0.22015 0.40141 0.0
H1091 H 0.37262 0.24832 0.39692 0.0
H1092 H 0.27918 0.44243 0.90935 0.0
H1093 H 0.25305 0.4471 0.91645 0.0
H1094 H 0.21533 0.39085 0.89876 0.0
H1095 H 0.24126 0.38596 0.89198 0.0
H1096 H 0.22742 0.44465 0.88906 0.0
H1097 H 0.19261 0.39487 0.9522 0.0
H1098 H 0.21593 0.40204 0.94431 0.0
H1099 H 0.19665 0.38433 0.93027 0.0
C1100 C 0.26531 0.43097 0.90724 0.0
C1101 C 0.26232 0.41381 0.90011 0.0
C1102 C 0.2504 0.43367 0.9113 0.0
C1103 C 0.23221 0.41925 0.90844 0.0
C1104 C 0.2292 0.40205 0.90157 0.0
H1105 H 0.13455 0.42148 0.87644 0.0
H1106 H 0.16324 0.42072 0.87852 0.0
C1107 C 0.24408 0.39933 0.89754 0.0
C1108 C 0.21642 0.42248 0.91111 0.0
H1109 H 0.17433 0.40527 0.93423 0.0
C1110 C 0.21593 0.4362 0.89915 0.0
C1111 C 0.20153 0.41166 0.9245 0.0
C1112 C 0.20176 0.39753 0.93871 0.0
C1113 C 0.2006 0.43879 0.89949 0.0
C1114 C 0.1852 0.42714 0.91184 0.0
C1115 C 0.18604 0.41403 0.92456 0.0
C1116 C 0.16776 0.42769 0.91087 0.0
C1117 C 0.20098 0.45391 0.88649 0.0
C1118 C 0.16044 0.43135 0.92853 0.0
C1119 C 0.14388 0.4317 0.92744 0.0
C1120 C 0.1343 0.42823 0.90868 0.0
C1121 C 0.1416 0.42434 0.89112 0.0
C1122 C 0.15809 0.42401 0.89223 0.0
H1123 H 0.21535 0.4649 0.88315 0.0
H1124 H 0.19407 0.44801 0.87158 0.0
H1125 H 0.19363 0.46023 0.89417 0.0
H1126 H 0.16762 0.43409 0.94311 0.0
H1127 H 0.13862 0.43467 0.94126 0.0
H1128 H 0.68661 0.14359 0.39766 0.0
H1129 H 0.71532 0.17324 0.40071 0.0
H1130 H 0.74639 0.14487 0.40339 0.0
H1131 H 0.71792 0.11527 0.4001 0.0
H1132 H 0.74443 0.18779 0.43055 0.0
H1133 H 0.76837 0.17956 0.3537 0.0
H1134 H 0.74484 0.16539 0.36221 0.0
H1135 H 0.76245 0.16061 0.37086 0.0
C1136 C 0.69954 0.14365 0.39909 0.0
C1137 C 0.69999 0.12706 0.39839 0.0
C1138 C 0.71592 0.16061 0.40085 0.0
C1139 C 0.73299 0.16125 0.40188 0.0
C1140 C 0.73339 0.14469 0.40219 0.0
H1141 H 0.8479 0.245 0.39905 0.0
H1142 H 0.8182 0.21673 0.40273 0.0
C1143 C 0.71707 0.12777 0.40038 0.0
C1144 C 0.75047 0.1792 0.40177 0.0
H1145 H 0.78996 0.20449 0.37412 0.0
C1146 C 0.75438 0.19153 0.41819 0.0
C1147 C 0.76335 0.18405 0.38554 0.0
C1148 C 0.75952 0.17181 0.36697 0.0
C1149 C 0.77112 0.20837 0.41912 0.0
C1150 C 0.78411 0.21305 0.40304 0.0
C1151 C 0.78005 0.20081 0.38651 0.0
C1152 C 0.80212 0.23048 0.40294 0.0
C1153 C 0.77497 0.22077 0.43752 0.0
C1154 C 0.80298 0.24766 0.40204 0.0
C1155 C 0.81999 0.26392 0.39996 0.0
C1156 C 0.83644 0.26324 0.39858 0.0
C1157 C 0.83553 0.24604 0.40001 0.0
C1158 C 0.81855 0.22984 0.40212 0.0
H1159 H 0.76581 0.21326 0.45069 0.0
H1160 H 0.78955 0.22684 0.44256 0.0
H1161 H 0.77256 0.23223 0.43327 0.0
H1162 H 0.79045 0.24847 0.40224 0.0
H1163 H 0.8202 0.27693 0.39881 0.0
H1164 H 0.59278 0.7255 0.91355 0.0
H1165 H 0.59179 0.75382 0.91965 0.0
H1166 H 0.53502 0.72665 0.89982 0.0
H1167 H 0.53577 0.69817 0.89404 0.0
H1168 H 0.58565 0.77277 0.88968 0.0
H1169 H 0.53314 0.7535 0.95098 0.0
H1170 H 0.5437 0.73978 0.94502 0.0
H1171 H 0.52518 0.73808 0.92936 0.0
C1172 C 0.57997 0.72544 0.91082 0.0
C1173 C 0.56436 0.70958 0.90324 0.0
C1174 C 0.57943 0.74165 0.91433 0.0
C1175 C 0.56328 0.74232 0.91041 0.0
C1176 C 0.54751 0.72636 0.9034 0.0
H1177 H 0.53578 0.82814 0.89482 0.0
H1178 H 0.53562 0.79902 0.89919 0.0
C1179 C 0.54801 0.7101 0.89997 0.0
C1180 C 0.56352 0.76016 0.91165 0.0
H1181 H 0.54186 0.78162 0.93301 0.0
C1182 C 0.57622 0.77477 0.89935 0.0
C1183 C 0.5511 0.76269 0.92415 0.0
C1184 C 0.53762 0.74774 0.93828 0.0
C1185 C 0.57656 0.79169 0.89876 0.0
C1186 C 0.56408 0.79421 0.91114 0.0
C1187 C 0.55145 0.77966 0.92359 0.0
C1188 C 0.56359 0.81169 0.9107 0.0
C1189 C 0.58988 0.8065 0.88434 0.0
C1190 C 0.57916 0.82841 0.91638 0.0
C1191 C 0.57935 0.84509 0.91377 0.0
C1192 C 0.56389 0.84533 0.90564 0.0
C1193 C 0.54795 0.82846 0.90104 0.0
C1194 C 0.54782 0.81179 0.90355 0.0
H1195 H 0.59526 0.80086 0.87244 0.0
H1196 H 0.58323 0.81346 0.8765 0.0
H1197 H 0.60181 0.81703 0.89329 0.0
H1198 H 0.59134 0.8286 0.92235 0.0
H1199 H 0.59177 0.85781 0.91769 0.0
H1200 H 0.36502 0.95966 0.91477 0.0
H1201 H 0.36791 0.98012 0.94276 0.0
H1202 H 0.3098 0.94639 0.95586 0.0
H1203 H 0.30699 0.92511 0.92809 0.0
H1204 H 0.35327 0.00112 0.94837 0.0
H1205 H 0.33078 0.94992 0.01199 0.0
H1206 H 0.33509 0.94467 -0.01359 0.0
H1207 H 0.31416 0.94493 -0.00805 0.0
C1208 C 0.35281 0.9565 0.9236 0.0
C1209 C 0.33577 0.94072 0.91925 0.0
C1210 C 0.35448 0.96828 0.93961 0.0
C1211 C 0.33912 0.96481 0.95158 0.0
C1212 C 0.32194 0.94918 0.94714 0.0
H1213 H 0.37164 0.05757 0.03953 0.0
H1214 H 0.35348 0.03562 0.0122 0.0
C1215 C 0.32033 0.93708 0.93124 0.0
C1216 C 0.34172 0.9777 0.9687 0.0
H1217 H 0.34188 0.98073 0.02107 0.0
C1218 C 0.3506 -0.00333 0.96429 0.0
C1219 C 0.33812 0.97187 -0.01055 0.0
C1220 C 0.32914 0.95177 -0.00465 0.0
C1221 C 0.35735 0.00999 0.98 0.0
C1222 C 0.35441 0.00416 0.00078 0.0
C1223 C 0.34419 0.98518 0.00515 0.0
C1224 C 0.36408 0.01712 0.01807 0.0
C1225 C 0.36873 0.03006 0.97409 0.0
C1226 C 0.37552 0.01374 0.03094 0.0
C1227 C 0.38545 0.02592 0.04676 0.0
C1228 C 0.38443 0.042 0.04997 0.0
C1229 C 0.37286 0.0454 0.03724 0.0
C1230 C 0.36255 0.03291 0.02157 0.0
H1231 H 0.3729 0.03184 0.95765 0.0
H1232 H 0.3605 0.03696 0.9766 0.0
H1233 H 0.3814 0.03717 -0.01634 0.0
H1234 H 0.37705 0.00175 0.02855 0.0
H1235 H 0.39428 0.0229 0.05622 0.0
H1236 H 0.35698 0.33741 0.39751 0.0
H1237 H 0.33827 0.34101 0.42395 0.0
H1238 H 0.36536 0.32648 0.47069 0.0
H1239 H 0.38385 0.32232 0.44411 0.0
H1240 H 0.32706 0.31343 0.47871 0.0
H1241 H 0.36559 0.38795 0.45866 0.0
H1242 H 0.35337 0.37289 0.43758 0.0
H1243 H 0.3723 0.37186 0.44931 0.0
C1244 C 0.35867 0.33458 0.41338 0.0
C1245 C 0.37207 0.32986 0.41882 0.0
C1246 C 0.34801 0.33669 0.42846 0.0
C1247 C 0.35079 0.33449 0.44929 0.0
C1248 C 0.36311 0.32836 0.45468 0.0
H1249 H 0.33382 0.36779 0.56623 0.0
H1250 H 0.33643 0.35068 0.53738 0.0
C1251 C 0.37364 0.32597 0.43951 0.0
C1252 C 0.34241 0.34053 0.46541 0.0
H1253 H 0.34292 0.37888 0.48423 0.0
C1254 C 0.33042 0.32771 0.47988 0.0
C1255 C 0.34683 0.35919 0.46689 0.0
C1256 C 0.36034 0.37383 0.45242 0.0
C1257 C 0.32281 0.3331 0.4959 0.0
C1258 C 0.32753 0.35182 0.49756 0.0
C1259 C 0.33914 0.3645 0.48278 0.0
C1260 C 0.32249 0.35917 0.51567 0.0
C1261 C 0.30989 0.31876 0.51095 0.0
C1262 C 0.31359 0.36952 0.51317 0.0
C1263 C 0.31213 0.37946 0.52972 0.0
C1264 C 0.31984 0.37941 0.54892 0.0
C1265 C 0.32782 0.36821 0.5516 0.0
C1266 C 0.32916 0.35823 0.53515 0.0
H1267 H 0.30297 0.30476 0.50397 0.0
H1268 H 0.31791 0.31854 0.52445 0.0
H1269 H 0.29919 0.32191 0.51645 0.0
H1270 H 0.3085 0.37056 0.49819 0.0
H1271 H 0.30596 0.388 0.52716 0.0
H1272 H 0.01038 0.37571 0.90495 0.0
H1273 H -0.00831 0.35778 0.93397 0.0
H1274 H 0.04097 0.37154 0.96844 0.0
H1275 H 0.05998 0.38997 0.93937 0.0
H1276 H -0.01168 0.32837 0.95836 0.0
H1277 H 0.01565 0.39412 0.00226 0.0
H1278 H 0.01947 0.39368 0.97502 0.0
H1279 H 0.03244 0.38841 -0.00692 0.0
C1280 C 0.01733 0.37477 0.91857 0.0
C1281 C 0.0367 0.38458 0.91999 0.0
C1282 C 0.00658 0.36439 0.93512 0.0
C1283 C 0.01493 0.36359 0.95346 0.0
C1284 C 0.03427 0.37224 0.95448 0.0
H1285 H 0.96027 0.33734 0.07219 0.0
H1286 H 0.98218 0.34099 0.0453 0.0
C1287 C 0.0451 0.38269 0.93785 0.0
C1288 C 0.00326 0.35544 0.97194 0.0
H1289 H -0.00794 0.36757 0.0175 0.0
C1290 C -0.01072 0.33683 0.97147 0.0
C1291 C 0.00446 0.36656 -0.01108 0.0
C1292 C 0.01869 0.38683 -0.01008 0.0
C1293 C 0.97624 0.32915 -0.01258 0.0
C1294 C 0.97708 0.34046 0.00403 0.0
C1295 C -0.00854 0.35887 0.00479 0.0
C1296 C 0.96274 0.33414 0.0203 0.0
C1297 C 0.96166 0.30905 -0.01375 0.0
C1298 C 0.94429 0.32837 0.01527 0.0
C1299 C 0.93162 0.32606 0.03071 0.0
C1300 C 0.93735 0.32984 0.05133 0.0
C1301 C 0.9555 0.33448 0.0564 0.0
C1302 C 0.96804 0.33655 0.04105 0.0
H1303 H 0.96632 0.30112 0.97671 0.0
H1304 H 0.95793 0.30276 0.00179 0.0
H1305 H 0.94908 0.30781 0.97897 0.0
H1306 H 0.93995 0.3268 -0.00066 0.0
H1307 H 0.91776 0.3226 0.02636 0.0
H1308 H 0.64553 0.05544 0.44091 0.0
H1309 H 0.64127 0.03398 0.4688 0.0
H1310 H 0.62701 -0.00948 0.42443 0.0
H1311 H 0.63071 0.01169 0.39667 0.0
H1312 H 0.60056 0.9812 0.45228 0.0
H1313 H 0.66738 0.00864 0.49283 0.0
H1314 H 0.66033 0.02555 0.48988 0.0
H1315 H 0.66549 0.01633 0.46745 0.0
C1316 C 0.64204 0.04146 0.4371 0.0
C1317 C 0.63828 0.03518 0.41666 0.0
C1318 C 0.63968 0.0292 0.45305 0.0
C1319 C 0.63389 0.01062 0.44872 0.0
C1320 C 0.63146 0.00476 0.42815 0.0
H1321 H 0.58244 0.91366 0.53011 0.0
H1322 H 0.59916 0.93352 0.50083 0.0
C1323 C 0.63357 0.01689 0.4123 0.0
C1324 C 0.62774 -0.00326 0.46547 0.0
H1325 H 0.64045 0.98648 0.51134 0.0
C1326 C 0.6094 0.98218 0.465 0.0
C1327 C 0.63923 -0.00192 0.48213 0.0
C1328 C 0.65926 0.0129 0.48304 0.0
C1329 C 0.60202 0.96935 0.48106 0.0
C1330 C 0.61335 0.97094 0.49798 0.0
C1331 C 0.63183 0.98524 0.49828 0.0
C1332 C 0.60565 0.95898 0.51631 0.0
C1333 C 0.58187 0.95473 0.48027 0.0
C1334 C 0.60444 0.96678 0.5349 0.0
C1335 C 0.59498 0.95554 0.55158 0.0
C1336 C 0.58655 0.93622 0.55004 0.0
C1337 C 0.58866 0.92847 0.53175 0.0
C1338 C 0.59815 0.93978 0.515 0.0
H1339 H 0.57429 0.95751 0.46805 0.0
H1340 H 0.58066 0.94114 0.47702 0.0
H1341 H 0.57508 0.95375 0.49526 0.0
H1342 H 0.61015 0.98155 0.53624 0.0
H1343 H 0.5938 0.96202 0.56549 0.0
H1344 H 0.65222 0.58714 0.02492 0.0
H1345 H 0.64729 0.60334 -0.00362 0.0
H1346 H 0.63262 0.63307 0.03958 0.0
H1347 H 0.637 0.61661 0.06799 0.0
H1348 H 0.60607 0.6149 0.01189 0.0
H1349 H 0.67273 0.65433 0.97113 0.0
H1350 H 0.66603 0.63054 0.97482 0.0
H1351 H 0.67105 0.64539 -0.00319 0.0
C1352 C 0.64846 0.59752 0.02832 0.0
C1353 C 0.64481 0.60049 0.04865 0.0
C1354 C 0.64573 0.60684 0.01201 0.0
C1355 C 0.63967 0.6195 0.01584 0.0
C1356 C 0.63728 0.62336 0.03625 0.0
H1357 H 0.58731 0.6634 0.93366 0.0
H1358 H 0.6042 0.66047 0.96292 0.0
C1359 C 0.63977 0.61392 0.05247 0.0
C1360 C 0.63327 0.62671 -0.00124 0.0
H1361 H 0.64566 0.6491 0.95257 0.0
C1362 C 0.61483 0.62266 -0.0009 0.0
C1363 C 0.64467 0.63671 0.98202 0.0
C1364 C 0.66477 0.64216 0.98122 0.0
C1365 C 0.60728 0.62775 0.98285 0.0
C1366 C 0.61855 0.6374 0.96589 0.0
C1367 C 0.6371 0.64179 0.96568 0.0
C1368 C 0.61075 0.64151 0.94752 0.0
C1369 C 0.58707 0.622 -0.01645 0.0
C1370 C 0.60953 0.63244 0.92897 0.0
C1371 C 0.59996 0.63409 0.91229 0.0
C1372 C 0.59145 0.64492 0.91379 0.0
C1373 C 0.59358 0.65485 0.93204 0.0
C1374 C 0.60318 0.65315 0.94878 0.0
H1375 H 0.57958 0.61166 -0.0042 0.0
H1376 H 0.58566 0.63427 -0.01331 0.0
H1377 H 0.58033 0.61608 0.96855 0.0
H1378 H 0.61532 0.62342 0.92767 0.0
H1379 H 0.59877 0.62639 0.89841 0.0
H1380 H 0.05908 0.66003 0.52474 0.0
H1381 H 0.03886 0.6558 0.49539 0.0
H1382 H -0.00882 0.62717 0.53451 0.0
H1383 H 0.01114 0.63132 0.56375 0.0
H1384 H 0.01236 0.61981 0.48227 0.0
H1385 H 0.97901 0.66116 0.50023 0.0
H1386 H 0.00033 0.66546 0.51213 0.0
H1387 H 0.97864 0.64688 0.52105 0.0
C1388 C 0.04432 0.65324 0.52718 0.0
C1389 C 0.03671 0.64591 0.54653 0.0
C1390 C 0.03279 0.65082 0.51041 0.0
C1391 C 0.01354 0.64134 0.51284 0.0
C1392 C 0.006 0.63483 0.53236 0.0
H1393 H 0.91606 0.58467 0.43739 0.0
H1394 H 0.93828 0.60106 0.46513 0.0
C1395 C 0.01745 0.63708 0.54903 0.0
C1396 C 0.0012 0.63603 0.49468 0.0
H1397 H 0.96454 0.63793 0.47426 0.0
C1398 C 0.0021 0.62401 0.48031 0.0
C1399 C -0.01235 0.6413 0.49241 0.0
C1400 C -0.01361 0.65454 0.50717 0.0
C1401 C -0.01058 0.61658 0.46407 0.0
C1402 C 0.97577 0.62176 0.46179 0.0
C1403 C 0.97503 0.63403 0.476 0.0
C1404 C 0.96198 0.61414 0.44494 0.0
C1405 C -0.00969 0.60265 0.45004 0.0
C1406 C 0.96781 0.61675 0.42438 0.0
C1407 C 0.95526 0.60726 0.40865 0.0
C1408 C 0.93653 0.59526 0.4131 0.0
C1409 C 0.93041 0.5938 0.43352 0.0
C1410 C 0.94309 0.60314 0.44936 0.0
H1411 H -0.00182 0.59659 0.45709 0.0
H1412 H 0.97627 0.59128 0.44613 0.0
H1413 H -0.00262 0.60955 0.43554 0.0
H1414 H 0.98224 0.62556 0.42058 0.0
H1415 H 0.96033 0.60889 0.39302 0.0
H1416 H 0.58667 0.91473 0.93713 0.0
H1417 H 0.60471 0.93495 0.96569 0.0
H1418 H 0.61395 0.98253 0.93062 0.0
H1419 H 0.59628 0.96265 0.9021 0.0
H1420 H 0.64549 0.98768 0.95324 0.0
H1421 H 0.58176 0.95953 0.00085 0.0
H1422 H 0.58767 0.94306 -0.00898 0.0
H1423 H 0.58106 0.95536 0.97355 0.0
C1424 C 0.59274 0.92951 0.93542 0.0
C1425 C 0.5898 0.93704 0.91745 0.0
C1426 C 0.603 0.94103 0.95175 0.0
C1427 C 0.61045 0.96021 0.95033 0.0
C1428 C 0.60831 0.96778 0.93203 0.0
H1429 H 0.65302 0.05832 0.02251 0.0
H1430 H 0.64826 0.0361 -0.00474 0.0
C1431 C 0.59808 0.95634 0.91579 0.0
C1432 C 0.61914 0.97245 0.96829 0.0
H1433 H 0.60873 0.98379 0.0148 0.0
C1434 C 0.63757 0.98673 0.96686 0.0
C1435 C 0.60872 0.97121 -0.01406 0.0
C1436 C 0.58867 0.95658 -0.012 0.0
C1437 C 0.64578 -3e-05 0.98255 0.0
C1438 C 0.63516 -0.00094 -0.0001 0.0
C1439 C 0.61691 0.98445 0.00154 0.0
C1440 C 0.64203 0.01352 0.0161 0.0
C1441 C 0.66571 0.0148 0.98037 0.0
C1442 C 0.6405 0.00838 0.03685 0.0
C1443 C 0.64288 0.02093 0.05234 0.0
C1444 C 0.647 0.03894 0.0474 0.0
C1445 C 0.65003 0.04458 0.02674 0.0
C1446 C 0.64737 0.03189 0.01116 0.0
H1447 H 0.67337 0.01021 0.97026 0.0
H1448 H 0.66638 0.02716 0.97324 0.0
H1449 H 0.6727 0.01883 -0.00444 0.0
H1450 H 0.63641 -0.00568 0.04104 0.0
H1451 H 0.64055 0.01625 0.06816 0.0
H1452 H 0.65397 0.58822 0.43761 0.0
H1453 H 0.6491 0.60395 0.46679 0.0
H1454 H 0.61625 0.61841 0.42832 0.0
H1455 H 0.62111 0.60294 0.39918 0.0
H1456 H 0.64053 0.64699 0.45713 0.0
H1457 H 0.5966 0.57814 0.49298 0.0
H1458 H 0.61971 0.58388 0.48629 0.0
H1459 H 0.60354 0.58077 0.46635 0.0
C1460 C 0.64601 0.59505 0.43527 0.0
C1461 C 0.63771 0.59409 0.41615 0.0
C1462 C 0.6432 0.60398 0.45196 0.0
C1463 C 0.6321 0.6121 0.44973 0.0
C1464 C 0.62482 0.61218 0.43036 0.0
H1465 H 0.57516 0.65348 0.5245 0.0
H1466 H 0.59216 0.6485 0.49683 0.0
C1467 C 0.62755 0.60324 0.41374 0.0
C1468 C 0.62647 0.6189 0.46781 0.0
H1469 H 0.59915 0.60379 0.51044 0.0
C1470 C 0.63163 0.63763 0.46894 0.0
C1471 C 0.61472 0.60658 0.48304 0.0
C1472 C 0.60815 0.58619 0.48215 0.0
C1473 C 0.62538 0.64439 0.48501 0.0
C1474 C 0.61336 0.63199 0.50003 0.0
C1475 C 0.60843 0.61332 0.49898 0.0
C1476 C 0.60526 0.63772 0.51685 0.0
C1477 C 0.63184 0.66474 0.48583 0.0
C1478 C 0.607 0.63342 0.53728 0.0
C1479 C 0.59707 0.63591 0.55295 0.0
C1480 C 0.58525 0.6429 0.54858 0.0
C1481 C 0.58426 0.64819 0.52832 0.0
C1482 C 0.59406 0.64544 0.51253 0.0
H1483 H 0.645 0.67293 0.47734 0.0
H1484 H 0.6213 0.66724 0.47851 0.0
H1485 H 0.6338 0.66977 0.50196 0.0
H1486 H 0.61555 0.62746 0.541 0.0
H1487 H 0.59825 0.63185 0.56844 0.0
H1488 H 0.96147 0.61018 0.06476 0.0
H1489 H 0.9814 0.62593 0.03555 0.0
H1490 H 0.93386 0.60481 -0.00421 0.0
H1491 H 0.91366 0.58883 0.02511 0.0
H1492 H 0.96112 0.59633 -0.01646 0.0
H1493 H -0.00747 0.67102 0.00019 0.0
H1494 H -0.00658 0.65773 0.02138 0.0
H1495 H 0.97146 0.6538 0.01225 0.0
C1496 C 0.95516 0.60915 0.0499 0.0
C1497 C 0.93597 0.59812 0.04723 0.0
C1498 C 0.9666 0.61833 0.03324 0.0
C1499 C 0.95911 0.61671 0.01355 0.0
C1500 C 0.93988 0.60635 0.01093 0.0
H1501 H 0.01254 0.63737 0.89412 0.0
H1502 H -0.00939 0.63196 0.92168 0.0
C1503 C 0.92837 0.59725 0.02768 0.0
C1504 C 0.97155 0.62375 -0.00451 0.0
H1505 H 0.00772 0.66249 0.97484 0.0
C1506 C 0.97111 0.61082 0.98143 0.0
C1507 C -0.01523 0.64263 -0.00698 0.0
C1508 C -0.01448 0.65714 0.00741 0.0
C1509 C -0.0161 0.61615 0.96532 0.0
C1510 C -0.0028 0.63504 0.96284 0.0
C1511 C -0.0025 0.64804 0.97674 0.0
C1512 C 0.01098 0.64129 0.946 0.0
C1513 C -0.01653 0.60137 0.95159 0.0
C1514 C 0.02991 0.64947 0.95039 0.0
C1515 C 0.0426 0.6529 0.93455 0.0
C1516 C 0.03645 0.64803 0.91417 0.0
C1517 C 0.01766 0.64099 0.90973 0.0
C1518 C 0.00508 0.63783 0.92546 0.0
H1519 H 0.97586 0.5875 0.95881 0.0
H1520 H 0.97637 0.60086 0.93698 0.0
H1521 H -0.00235 0.60433 0.94787 0.0
H1522 H 0.03475 0.65238 0.96615 0.0
H1523 H 0.057 0.65835 0.9384 0.0
H1524 H 0.30607 0.91448 0.52625 0.0
H1525 H 0.30726 0.93318 0.49657 0.0
H1526 H 0.34161 0.98281 0.53105 0.0
H1527 H 0.34029 0.96442 0.56068 0.0
H1528 H 0.31541 0.98534 0.50555 0.0
H1529 H 0.3559 0.95909 0.46391 0.0
H1530 H 0.33345 0.94199 0.47282 0.0
H1531 H 0.35126 0.9555 0.49111 0.0
C1532 C 0.31357 0.92937 0.52762 0.0
C1533 C 0.32333 0.93795 0.54571 0.0
C1534 C 0.3143 0.94003 0.51064 0.0
C1535 C 0.32479 0.95937 0.51153 0.0
C1536 C 0.33349 0.96791 0.53001 0.0
H1537 H 0.3789 0.05583 0.43676 0.0
H1538 H 0.36162 0.03382 0.46415 0.0
C1539 C 0.33279 0.95734 0.54691 0.0
C1540 C 0.3284 0.97086 0.49289 0.0
H1541 H 0.35224 0.98195 0.4477 0.0
C1542 C 0.32325 0.98447 0.49273 0.0
C1543 C 0.33874 0.96977 0.47629 0.0
C1544 C 0.34532 0.95592 0.47598 0.0
C1545 C 0.32839 -0.0028 0.4765 0.0
C1546 C 0.33923 -0.00354 0.46024 0.0
C1547 C 0.34387 0.98248 0.46014 0.0
C1548 C 0.34692 0.0105 0.44366 0.0
C1549 C 0.32223 0.01134 0.47697 0.0
C1550 C 0.34425 0.00481 0.42303 0.0
C1551 C 0.35432 0.01727 0.40746 0.0
C1552 C 0.36722 0.03571 0.41217 0.0
C1553 C 0.36897 0.04174 0.43266 0.0
C1554 C 0.35902 0.02917 0.44832 0.0
H1555 H 0.30953 0.00651 0.48633 0.0
H1556 H 0.33324 0.02423 0.48408 0.0
H1557 H 0.31958 0.0146 0.46122 0.0
H1558 H 0.33501 -0.00951 0.41906 0.0
H1559 H 0.35255 0.01224 0.39178 0.0
H1560 H 0.38403 0.3235 0.02995 0.0
H1561 H 0.36597 0.3275 0.00272 0.0
H1562 H 0.33863 0.34295 0.04821 0.0
H1563 H 0.35686 0.33945 0.07532 0.0
H1564 H 0.32747 0.31444 -0.00571 0.0
H1565 H 0.36683 0.38936 0.01262 0.0
H1566 H 0.37328 0.37325 0.02256 0.0
H1567 H 0.35445 0.37472 0.03389 0.0
C1568 C 0.37386 0.32733 0.03416 0.0
C1569 C 0.37208 0.33149 0.05469 0.0
C1570 C 0.36357 0.32962 0.01861 0.0
C1571 C 0.35129 0.33593 0.02345 0.0
C1572 C 0.34832 0.33846 0.04412 0.0
H1573 H 0.30844 0.38924 0.9426 0.0
H1574 H 0.31049 0.37224 0.97227 0.0
C1575 C 0.35873 0.33642 0.05958 0.0
C1576 C 0.34314 0.3418 0.00692 0.0
H1577 H 0.34442 0.38005 -0.01331 0.0
C1578 C 0.33106 0.32875 -0.00734 0.0
C1579 C 0.34786 0.3605 0.00487 0.0
C1580 C 0.36143 0.37533 0.01916 0.0
C1581 C 0.32366 0.33396 0.97627 0.0
C1582 C 0.3287 0.35272 0.97401 0.0
C1583 C 0.34039 0.36564 -0.01141 0.0
C1584 C 0.32389 0.35981 0.95551 0.0
C1585 C 0.31059 0.31937 0.96149 0.0
C1586 C 0.33036 0.35813 0.93619 0.0
C1587 C 0.32927 0.36783 0.91933 0.0
C1588 C 0.32178 0.37953 0.92143 0.0
C1589 C 0.31426 0.38033 0.94048 0.0
C1590 C 0.31543 0.37064 0.95743 0.0
H1591 H 0.30337 0.30557 0.96891 0.0
H1592 H 0.30013 0.32267 0.95553 0.0
H1593 H 0.31854 0.31856 0.94826 0.0
H1594 H 0.33729 0.35021 0.9344 0.0
H1595 H 0.33511 0.36683 0.90484 0.0
H1596 H 0.0492 0.38884 0.52253 0.0
H1597 H 0.02656 0.3699 0.49612 0.0
H1598 H -0.0148 0.34311 0.5431 0.0
H1599 H 0.00749 0.36225 0.56934 0.0
H1600 H 0.00093 0.33109 0.48866 0.0
H1601 H 0.96591 0.37082 0.50811 0.0
H1602 H -0.01125 0.37743 0.51721 0.0
H1603 H 0.96886 0.35883 0.52936 0.0
C1604 C 0.03542 0.37856 0.52722 0.0
C1605 C 0.02998 0.3772 0.54789 0.0
C1606 C 0.0225 0.36777 0.51216 0.0
C1607 C 0.00412 0.35543 0.51766 0.0
C1608 C -0.00079 0.35283 0.53851 0.0
H1609 H 0.90564 0.31154 0.44035 0.0
H1610 H 0.92549 0.31382 0.46933 0.0
C1611 C 0.01197 0.36375 0.55347 0.0
C1612 C -0.01039 0.34699 0.50166 0.0
H1613 H 0.95201 0.34792 0.48281 0.0
C1614 C -0.00985 0.33465 0.48742 0.0
C1615 C 0.97557 0.35168 0.5001 0.0
C1616 C 0.97475 0.36552 0.51437 0.0
C1617 C 0.97703 0.32696 0.47153 0.0
C1618 C 0.96323 0.33196 0.46976 0.0
C1619 C 0.96245 0.34392 0.48434 0.0
C1620 C 0.9508 0.32691 0.45169 0.0
C1621 C 0.97811 0.31364 0.45674 0.0
C1622 C 0.9584 0.33313 0.43213 0.0
C1623 C 0.94716 0.33192 0.41566 0.0
C1624 C 0.92807 0.32456 0.41843 0.0
C1625 C 0.92028 0.31726 0.43773 0.0
C1626 C 0.9316 0.31856 0.45428 0.0
H1627 H -0.0151 0.30652 0.46394 0.0
H1628 H 0.96419 0.30311 0.45127 0.0
H1629 H -0.01354 0.32137 0.4432 0.0
H1630 H 0.97318 0.33998 0.42982 0.0
H1631 H 0.9536 0.33759 0.40096 0.0
H1632 H 0.47293 0.10358 0.05751 0.0
H1633 H 0.50354 0.10703 0.05169 0.0
H1634 H 0.50789 0.0985 0.11642 0.0
H1635 H 0.47711 0.0942 0.12208 0.0
H1636 H 0.53976 0.12778 0.06623 0.0
H1637 H 0.50816 0.0547 0.09016 0.0
H1638 H 0.49467 0.06572 0.08564 0.0
H1639 H 0.50651 0.0689 0.10976 0.0
C1640 C 0.48066 0.10289 0.07053 0.0
C1641 C 0.47262 0.09835 0.09018 0.0
C1642 C 0.4981 0.10484 0.0672 0.0
C1643 C 0.50774 0.1025 0.08354 0.0
C1644 C 0.50046 0.09985 0.1035 0.0
H1645 H 0.61699 0.11451 0.08922 0.0
H1646 H 0.59164 0.12123 0.08743 0.0
C1647 C 0.48293 0.09749 0.10674 0.0
C1648 C 0.52426 0.10072 0.07961 0.0
H1649 H 0.54067 0.07114 0.08665 0.0
C1650 C 0.53998 0.11537 0.07053 0.0
C1651 C 0.52436 0.08434 0.08474 0.0
C1652 C 0.50746 0.06745 0.0929 0.0
C1653 C 0.55602 0.11424 0.06703 0.0
C1654 C 0.5564 0.09821 0.07324 0.0
C1655 C 0.5405 0.08349 0.08193 0.0
C1656 C 0.57296 0.09606 0.0712 0.0
C1657 C 0.57218 0.13008 0.05643 0.0
C1658 C 0.57105 0.07977 0.06261 0.0
C1659 C 0.58524 0.07568 0.06428 0.0
C1660 C 0.60184 0.088 0.07408 0.0
C1661 C 0.60436 0.10491 0.08137 0.0
C1662 C 0.58991 0.1088 0.08022 0.0
H1663 H 0.56768 0.13803 0.0467 0.0
H1664 H 0.58182 0.13963 0.06822 0.0
H1665 H 0.57976 0.1252 0.04664 0.0
H1666 H 0.55818 0.06974 0.0555 0.0
H1667 H 0.58302 0.06257 0.05849 0.0
H1668 H 0.48947 0.62049 0.56093 0.0
H1669 H 0.45681 0.59722 0.55556 0.0
H1670 H 0.46017 0.56453 0.60481 0.0
H1671 H 0.49249 0.58736 0.61013 0.0
H1672 H 0.44408 0.55878 0.54591 0.0
H1673 H 0.41224 0.56598 0.61727 0.0
H1674 H 0.43398 0.58421 0.60749 0.0
H1675 H 0.43316 0.56558 0.62215 0.0
C1676 C 0.48313 0.60845 0.57077 0.0
C1677 C 0.49357 0.60572 0.5859 0.0
C1678 C 0.46452 0.5952 0.56768 0.0
C1679 C 0.45604 0.57931 0.58 0.0
C1680 C 0.46635 0.57686 0.59539 0.0
H1681 H 0.38722 0.4685 0.57837 0.0
H1682 H 0.40995 0.50085 0.57322 0.0
C1683 C 0.48489 0.58987 0.59829 0.0
C1684 C 0.43698 0.56425 0.57593 0.0
H1685 H 0.39703 0.53567 0.60131 0.0
C1686 C 0.43354 0.554 0.55774 0.0
C1687 C 0.42315 0.55815 0.59123 0.0
C1688 C 0.42573 0.56917 0.61055 0.0
C1689 C 0.41736 0.53689 0.55535 0.0
C1690 C 0.40444 0.52989 0.57163 0.0
C1691 C 0.40704 0.54097 0.58892 0.0
C1692 C 0.39003 0.51016 0.57256 0.0
C1693 C 0.41469 0.52598 0.53592 0.0
C1694 C 0.37122 0.50464 0.57404 0.0
C1695 C 0.35805 0.48597 0.57693 0.0
C1696 C 0.36362 0.47271 0.57884 0.0
C1697 C 0.38245 0.47836 0.57705 0.0
C1698 C 0.39548 0.49685 0.57392 0.0
H1699 H 0.42209 0.5352 0.52276 0.0
H1700 H 0.42036 0.51662 0.53821 0.0
H1701 H 0.39983 0.51747 0.53196 0.0
H1702 H 0.36678 0.51477 0.57327 0.0
H1703 H 0.34365 0.48204 0.57832 0.0
H1704 H 0.91767 0.39928 0.08525 0.0
H1705 H 0.90923 0.42305 0.08105 0.0
H1706 H 0.8524 0.38129 0.07187 0.0
H1707 H 0.86076 0.35713 0.07601 0.0
H1708 H 0.88868 0.42845 0.04612 0.0
H1709 H 0.8547 0.41465 0.123 0.0
H1710 H 0.8711 0.40727 0.11699 0.0
H1711 H 0.84865 0.39579 0.10542 0.0
C1712 C 0.90337 0.39506 0.08221 0.0
C1713 C 0.88986 0.37628 0.08112 0.0
C1714 C 0.8986 0.40869 0.07972 0.0
C1715 C 0.88021 0.4039 0.07626 0.0
C1716 C 0.86667 0.38522 0.07462 0.0
H1717 H 0.86533 0.50155 0.06415 0.0
H1718 H 0.85776 0.46937 0.05902 0.0
C1719 C 0.87147 0.37147 0.07694 0.0
C1720 C 0.87553 0.41877 0.07549 0.0
H1721 H 0.86152 0.44232 0.10663 0.0
C1722 C 0.88224 0.43126 0.05903 0.0
C1723 C 0.86725 0.42238 0.09248 0.0
C1724 C 0.86 0.40941 0.11058 0.0
C1725 C 0.88189 0.44786 0.05968 0.0
C1726 C 0.87466 0.452 0.07725 0.0
C1727 C 0.86693 0.439 0.09314 0.0
C1728 C 0.87793 0.47085 0.08092 0.0
C1729 C 0.89046 0.4615 0.04232 0.0
C1730 C 0.89153 0.48212 0.09511 0.0
C1731 C 0.89594 0.50038 0.09796 0.0
C1732 C 0.88673 0.50777 0.08679 0.0
C1733 C 0.87268 0.49627 0.07298 0.0
C1734 C 0.86836 0.47793 0.06999 0.0
H1735 H 0.89608 0.45644 0.03007 0.0
H1736 H 0.87995 0.46427 0.03539 0.0
H1737 H 0.90178 0.47478 0.04834 0.0
H1738 H 0.89907 0.47689 0.10367 0.0
H1739 H 0.90674 0.50877 0.10883 0.0
H1740 H 0.39101 0.91704 0.58055 0.0
H1741 H 0.41363 0.90707 0.57642 0.0
H1742 H 0.37004 0.85029 0.57486 0.0
H1743 H 0.34702 0.86022 0.57886 0.0
H1744 H 0.39974 0.85915 0.60405 0.0
H1745 H 0.42628 0.8849 0.52594 0.0
H1746 H 0.42435 0.90165 0.5414 0.0
H1747 H 0.40389 0.88045 0.53463 0.0
C1748 C 0.38614 0.90242 0.57912 0.0
C1749 C 0.36721 0.88942 0.5801 0.0
C1750 C 0.3991 0.89676 0.57659 0.0
C1751 C 0.39349 0.87797 0.57504 0.0
C1752 C 0.3746 0.86487 0.5758 0.0
H1753 H 0.49168 0.86477 0.5644 0.0
H1754 H 0.45921 0.85608 0.5589 0.0
C1755 C 0.36151 0.87056 0.57809 0.0
C1756 C 0.40774 0.87241 0.57447 0.0
H1757 H 0.44749 0.8824 0.54939 0.0
C1758 C 0.40991 0.86373 0.59183 0.0
C1759 C 0.42087 0.87816 0.55842 0.0
C1760 C 0.41865 0.88665 0.53894 0.0
C1761 C 0.42579 0.86224 0.59441 0.0
C1762 C 0.43981 0.86974 0.57931 0.0
C1763 C 0.4368 0.87681 0.56106 0.0
C1764 C 0.45865 0.87316 0.58359 0.0
C1765 C 0.42788 0.85354 0.61377 0.0
C1766 C 0.46902 0.88564 0.59919 0.0
C1767 C 0.48746 0.89077 0.60216 0.0
C1768 C 0.49598 0.88348 0.58964 0.0
C1769 C 0.48546 0.87055 0.57434 0.0
C1770 C 0.46695 0.86558 0.57119 0.0
H1771 H 0.41423 0.84344 0.62026 0.0
H1772 H 0.43592 0.84648 0.61085 0.0
H1773 H 0.43533 0.86445 0.62549 0.0
H1774 H 0.463 0.89193 0.60867 0.0
H1775 H 0.49514 0.90071 0.61412 0.0
H1776 H 0.57742 0.51366 0.0947 0.0
H1777 H 0.55295 0.48205 0.08905 0.0
H1778 H 0.59268 0.46753 0.06719 0.0
H1779 H 0.61762 0.49949 0.07278 0.0
H1780 H 0.54584 0.4614 0.048 0.0
H1781 H 0.5603 0.42958 0.11566 0.0
H1782 H 0.56758 0.45385 0.11556 0.0
H1783 H 0.57879 0.4453 0.09908 0.0
C1784 C 0.58109 0.50383 0.08872 0.0
C1785 C 0.59954 0.50915 0.08423 0.0
C1786 C 0.56704 0.48575 0.08546 0.0
C1787 C 0.57104 0.47251 0.07777 0.0
C1788 C 0.58938 0.4776 0.07323 0.0
H1789 H 0.47544 0.35858 0.07683 0.0
H1790 H 0.50745 0.38303 0.07037 0.0
C1791 C 0.60356 0.49584 0.07641 0.0
C1792 C 0.55564 0.45349 0.07457 0.0
H1793 H 0.53133 0.41237 0.09962 0.0
C1794 C 0.54288 0.45048 0.05893 0.0
C1795 C 0.55189 0.43928 0.08878 0.0
C1796 C 0.56528 0.44199 0.10579 0.0
C1797 C 0.52587 0.43404 0.058 0.0
C1798 C 0.52143 0.42047 0.0733 0.0
C1799 C 0.53478 0.42285 0.08795 0.0
C1800 C 0.50218 0.40542 0.07633 0.0
C1801 C 0.51238 0.43173 0.04126 0.0
C1802 C 0.48879 0.40996 0.08203 0.0
C1803 C 0.47071 0.39618 0.08587 0.0
C1804 C 0.46554 0.37746 0.08408 0.0
C1805 C 0.47897 0.37287 0.07825 0.0
C1806 C 0.49723 0.38678 0.07457 0.0
H1807 H 0.5196 0.44009 0.0275 0.0
H1808 H 0.5039 0.41704 0.03662 0.0
H1809 H 0.50298 0.43649 0.04706 0.0
H1810 H 0.4924 0.42426 0.08381 0.0
H1811 H 0.46077 0.40026 0.09031 0.0
H1812 H 0.05409 0.46918 0.57116 0.0
H1813 H 0.06474 0.50184 0.56664 0.0
H1814 H 0.12124 0.51411 0.56982 0.0
H1815 H 0.1106 0.48109 0.5743 0.0
H1816 H 0.11209 0.53456 0.59755 0.0
H1817 H 0.08931 0.53811 0.51877 0.0
H1818 H 0.07144 0.51941 0.5331 0.0
H1819 H 0.09245 0.51931 0.52739 0.0
C1820 C 0.0688 0.47874 0.57058 0.0
C1821 C 0.08151 0.47256 0.57318 0.0
C1822 C 0.07487 0.49742 0.5678 0.0
C1823 C 0.09378 0.51038 0.56759 0.0
C1824 C 0.10659 0.50428 0.5697 0.0
H1825 H 0.10829 0.62244 0.56037 0.0
H1826 H 0.11682 0.59862 0.55419 0.0
C1827 C 0.10049 0.48545 0.57224 0.0
C1828 C 0.09966 0.53027 0.56753 0.0
H1829 H 0.09076 0.56104 0.54301 0.0
C1830 C 0.10795 0.54059 0.58536 0.0
C1831 C 0.09451 0.53825 0.55153 0.0
C1832 C 0.08661 0.52824 0.53152 0.0
C1833 C 0.10954 0.55793 0.58843 0.0
C1834 C 0.10253 0.56499 0.57336 0.0
C1835 C 0.09594 0.55552 0.55468 0.0
C1836 C 0.09909 0.58035 0.57803 0.0
C1837 C 0.11779 0.56811 0.60826 0.0
C1838 C 0.08629 0.57789 0.59337 0.0
C1839 C 0.08126 0.59124 0.59675 0.0
C1840 C 0.08897 0.60742 0.58487 0.0
C1841 C 0.10218 0.61015 0.56982 0.0
C1842 C 0.10706 0.59658 0.56626 0.0
H1843 H 0.1277 0.56431 0.6148 0.0
H1844 H 0.12496 0.58328 0.60593 0.0
H1845 H 0.10661 0.56435 0.61968 0.0
H1846 H 0.0797 0.56531 0.60235 0.0
H1847 H 0.07109 0.58872 0.6085 0.0
H1848 H 0.90029 0.50252 0.35296 0.0
H1849 H 0.89072 0.4702 0.35859 0.0
H1850 H 0.85376 0.46707 0.40666 0.0
H1851 H 0.86321 0.49969 0.40099 0.0
H1852 H 0.87933 0.45411 0.41719 0.0
H1853 H 0.84105 0.42258 0.34524 0.0
H1854 H 0.86259 0.44336 0.34085 0.0
H1855 H 0.84463 0.44438 0.35498 0.0
C1856 C 0.88998 0.49497 0.36462 0.0
C1857 C 0.88255 0.5037 0.37657 0.0
C1858 C 0.88442 0.47644 0.3677 0.0
C1859 C 0.87135 0.46619 0.38283 0.0
C1860 C 0.86373 0.47473 0.39475 0.0
H1861 H 0.85213 0.35222 0.3871 0.0
H1862 H 0.84393 0.37652 0.39113 0.0
C1863 C 0.86914 0.49333 0.39149 0.0
C1864 C 0.86709 0.44707 0.38701 0.0
H1865 H 0.85489 0.40664 0.36212 0.0
C1866 C 0.8735 0.44351 0.40541 0.0
C1867 C 0.85928 0.43319 0.37175 0.0
C1868 C 0.85132 0.43597 0.35216 0.0
C1869 C 0.87383 0.42704 0.40814 0.0
C1870 C 0.86772 0.41394 0.39201 0.0
C1871 C 0.85973 0.41677 0.37442 0.0
C1872 C 0.8722 0.39891 0.39164 0.0
C1873 C 0.88162 0.42418 0.42782 0.0
C1874 C 0.89074 0.40351 0.39051 0.0
C1875 C 0.89541 0.38981 0.38796 0.0
C1876 C 0.88164 0.37116 0.38655 0.0
C1877 C 0.86303 0.36647 0.38823 0.0
C1878 C 0.85833 0.3803 0.39052 0.0
H1879 H 0.88019 0.43209 0.44074 0.0
H1880 H 0.87466 0.40935 0.43205 0.0
H1881 H 0.89653 0.42913 0.42569 0.0
H1882 H 0.90163 0.4178 0.39095 0.0
H1883 H 0.90988 0.3939 0.3868 0.0
H1884 H 0.49357 0.86338 0.90153 0.0
H1885 H 0.46048 0.85298 0.90502 0.0
H1886 H 0.46531 0.89123 0.85773 0.0
H1887 H 0.49805 0.90175 0.85428 0.0
H1888 H 0.44545 0.87813 0.91401 0.0
H1889 H 0.42005 0.84019 0.84058 0.0
H1890 H 0.44111 0.84403 0.8528 0.0
H1891 H 0.44093 0.86196 0.83771 0.0
C1892 C 0.4875 0.86943 0.89179 0.0
C1893 C 0.49844 0.88342 0.87766 0.0
C1894 C 0.46864 0.86348 0.89381 0.0
C1895 C 0.46046 0.87117 0.88142 0.0
C1896 C 0.47132 0.88492 0.86719 0.0
H1897 H 0.38669 0.90206 0.85369 0.0
H1898 H 0.40854 0.89122 0.85798 0.0
C1899 C 0.49008 0.89101 0.86535 0.0
C1900 C 0.44088 0.86602 0.88384 0.0
H1901 H 0.4026 0.85367 0.8546 0.0
C1902 C 0.43575 0.87217 0.90139 0.0
C1903 C 0.42828 0.85816 0.86737 0.0
C1904 C 0.43278 0.85053 0.84862 0.0
C1905 C 0.41908 0.87244 0.90193 0.0
C1906 C 0.40732 0.86625 0.88456 0.0
C1907 C 0.41168 0.85846 0.86788 0.0
C1908 C 0.39285 0.8713 0.88158 0.0
C1909 C 0.41496 0.88091 0.92022 0.0
C1910 C 0.37655 0.86345 0.89325 0.0
C1911 C 0.36385 0.86965 0.8908 0.0
C1912 C 0.36742 0.88385 0.87676 0.0
C1913 C 0.38355 0.89123 0.86478 0.0
C1914 C 0.39605 0.88499 0.86713 0.0
H1915 H 0.4259 0.88571 0.93217 0.0
H1916 H 0.41353 0.89282 0.91518 0.0
H1917 H 0.40168 0.87062 0.92724 0.0
H1918 H 0.37379 0.85276 0.90439 0.0
H1919 H 0.35153 0.86368 0.90022 0.0
H1920 H 0.47614 0.35439 0.39287 0.0
H1921 H 0.50891 0.37771 0.39701 0.0
H1922 H 0.49478 0.42071 0.39615 0.0
H1923 H 0.46234 0.39775 0.39193 0.0
H1924 H 0.52886 0.40667 0.36786 0.0
H1925 H 0.5307 0.43493 0.44528 0.0
H1926 H 0.51259 0.4124 0.43719 0.0
H1927 H 0.51179 0.43279 0.43012 0.0
C1928 C 0.48003 0.36881 0.39394 0.0
C1929 C 0.46667 0.37425 0.392 0.0
C1930 C 0.49872 0.38208 0.39628 0.0
C1931 C 0.50422 0.4009 0.39718 0.0
C1932 C 0.49081 0.40625 0.39591 0.0
H1933 H 0.58186 0.50184 0.35478 0.0
H1934 H 0.55866 0.46986 0.36135 0.0
C1935 C 0.47227 0.3931 0.39331 0.0
C1936 C 0.52395 0.41534 0.39725 0.0
H1937 H 0.55376 0.45584 0.42101 0.0
C1938 C 0.53455 0.41716 0.37976 0.0
C1939 C 0.53146 0.42889 0.41289 0.0
C1940 C 0.5211 0.42707 0.43253 0.0
C1941 C 0.55174 0.43306 0.37662 0.0
C1942 C 0.55835 0.44746 0.39128 0.0
C1943 C 0.54858 0.44486 0.40967 0.0
C1944 C 0.57358 0.46622 0.3864 0.0
C1945 C 0.56224 0.43474 0.35713 0.0
C1946 C 0.58968 0.47485 0.39841 0.0
C1947 C 0.60311 0.49325 0.39461 0.0
C1948 C 0.6004 0.50334 0.37905 0.0
C1949 C 0.58436 0.49449 0.36693 0.0
C1950 C 0.57114 0.47615 0.37055 0.0
H1951 H 0.55871 0.42096 0.35099 0.0
H1952 H 0.55853 0.44186 0.34526 0.0
H1953 H 0.57737 0.44292 0.35975 0.0
H1954 H 0.5917 0.46744 0.41087 0.0
H1955 H 0.6153 0.49972 0.40426 0.0
H1956 H 0.1161 0.48736 0.88874 0.0
H1957 H 0.1267 0.52043 0.89281 0.0
H1958 H 0.07026 0.50783 0.89886 0.0
H1959 H 0.05966 0.47515 0.8948 0.0
H1960 H 0.11661 0.5402 0.86579 0.0
H1961 H 0.09615 0.54526 0.94516 0.0
H1962 H 0.09899 0.52627 0.93657 0.0
H1963 H 0.07776 0.52622 0.93172 0.0
C1964 C 0.10602 0.49167 0.89136 0.0
C1965 C 0.08705 0.47867 0.89135 0.0
C1966 C 0.11209 0.51053 0.89367 0.0
C1967 C 0.09928 0.51655 0.89646 0.0
C1968 C 0.08042 0.50349 0.89719 0.0
H1969 H 0.0739 0.59249 0.85454 0.0
H1970 H 0.08343 0.56983 0.86096 0.0
C1971 C 0.07437 0.4848 0.89466 0.0
C1972 C 0.10499 0.53641 0.89618 0.0
H1973 H 0.09606 0.56727 0.92052 0.0
C1974 C 0.11267 0.54637 0.87801 0.0
C1975 C 0.10012 0.54461 0.91223 0.0
C1976 C 0.09298 0.53508 0.9326 0.0
C1977 C 0.11382 0.56349 0.87468 0.0
C1978 C 0.10696 0.57067 0.8898 0.0
C1979 C 0.10108 0.56163 0.9088 0.0
C1980 C 0.10292 0.5856 0.88497 0.0
C1981 C 0.12144 0.57326 0.85452 0.0
C1982 C 0.11059 0.60199 0.8965 0.0
C1983 C 0.10516 0.61511 0.89281 0.0
C1984 C 0.09168 0.61181 0.87784 0.0
C1985 C 0.08426 0.59547 0.86621 0.0
C1986 C 0.08982 0.58255 0.86974 0.0
H1987 H 0.13156 0.56974 0.84797 0.0
H1988 H 0.10997 0.56883 0.84331 0.0
H1989 H 0.12821 0.58846 0.85639 0.0
H1990 H 0.12056 0.60448 0.9085 0.0
H1991 H 0.11106 0.62754 0.90207 0.0
H1992 H 0.6108 0.11095 0.39106 0.0
H1993 H 0.58637 0.11873 0.3968 0.0
H1994 H 0.54509 0.06169 0.38783 0.0
H1995 H 0.56907 0.05385 0.38211 0.0
H1996 H 0.557 0.11182 0.36795 0.0
H1997 H 0.52944 0.07605 0.44196 0.0
H1998 H 0.55234 0.08258 0.43295 0.0
H1999 H 0.53263 0.06182 0.42364 0.0
C2000 C 0.59651 0.10007 0.39053 0.0
C2001 C 0.59188 0.08178 0.38612 0.0
C2002 C 0.58261 0.10454 0.39379 0.0
C2003 C 0.56396 0.09072 0.39306 0.0
C2004 C 0.5594 0.0725 0.38887 0.0
H2005 H 0.4566 0.05753 0.3696 0.0
H2006 H 0.48822 0.06508 0.37634 0.0
C2007 C 0.57316 0.06807 0.38544 0.0
C2008 C 0.5489 0.09505 0.39526 0.0
H2009 H 0.50784 0.07957 0.42007 0.0
C2010 C 0.54652 0.10533 0.37973 0.0
C2011 C 0.5353 0.08662 0.41069 0.0
C2012 C 0.53763 0.0763 0.42838 0.0
C2013 C 0.53005 0.10591 0.37819 0.0
C2014 C 0.5158 0.09604 0.39255 0.0
C2015 C 0.51881 0.08707 0.40903 0.0
C2016 C 0.49678 0.09215 0.38871 0.0
C2017 C 0.52733 0.1158 0.36034 0.0
C2018 C 0.49116 0.10495 0.39352 0.0
C2019 C 0.47292 0.10066 0.38972 0.0
C2020 C 0.46015 0.08353 0.38102 0.0
C2021 C 0.466 0.07085 0.37627 0.0
C2022 C 0.48409 0.07511 0.38013 0.0
H2023 H 0.54007 0.12359 0.35103 0.0
H2024 H 0.51616 0.10563 0.35023 0.0
H2025 H 0.52296 0.12553 0.36608 0.0
H2026 H 0.50083 0.11818 0.4002 0.0
H2027 H 0.46885 0.11073 0.39355 0.0
H2028 H 0.50027 0.58719 0.85119 0.0
H2029 H 0.46827 0.56352 0.85688 0.0
H2030 H 0.46374 0.59616 0.90546 0.0
H2031 H 0.49599 0.6202 0.89975 0.0
H2032 H 0.45243 0.55818 0.9158 0.0
H2033 H 0.41936 0.56315 0.84418 0.0
H2034 H 0.44054 0.56316 0.8396 0.0
H2035 H 0.44094 0.5819 0.85365 0.0
C2036 C 0.49246 0.58949 0.86295 0.0
C2037 C 0.50069 0.60557 0.87505 0.0
C2038 C 0.47411 0.57599 0.86607 0.0
C2039 C 0.46358 0.57821 0.88139 0.0
C2040 C 0.47162 0.59431 0.89341 0.0
H2041 H 0.35052 0.48248 0.88835 0.0
H2042 H 0.37481 0.51501 0.89142 0.0
C2043 C 0.49001 0.608 0.89012 0.0
C2044 C 0.44476 0.56283 0.8857 0.0
H2045 H 0.40428 0.53365 0.86148 0.0
C2046 C 0.44169 0.55306 0.90417 0.0
C2047 C 0.4307 0.55629 0.87062 0.0
C2048 C 0.43295 0.56678 0.85097 0.0
C2049 C 0.42551 0.53608 0.90719 0.0
C2050 C 0.41221 0.52872 0.8913 0.0
C2051 C 0.41458 0.53925 0.87359 0.0
C2052 C 0.39728 0.50921 0.89142 0.0
C2053 C 0.42315 0.52572 0.92697 0.0
C2054 C 0.40192 0.49529 0.89034 0.0
C2055 C 0.38821 0.47687 0.88836 0.0
C2056 C 0.36951 0.47194 0.88747 0.0
C2057 C 0.36481 0.48586 0.88909 0.0
C2058 C 0.37863 0.50441 0.89082 0.0
H2059 H 0.43126 0.53521 0.93968 0.0
H2060 H 0.40841 0.51782 0.93156 0.0
H2061 H 0.42818 0.51582 0.92472 0.0
H2062 H 0.41624 0.49873 0.89041 0.0
H2063 H 0.39232 0.4665 0.88721 0.0
loop_
_geom_bond_atom_site_label_1
_geom_bond_atom_site_label_2
_geom_bond_distance
_geom_bond_site_symmetry_2
_ccdc_geom_bond_type
Zn0 O3 2.031 . S
Zn0 O5 2.049 . S
Zn0 O10 2.067 . S
Zn1 O2 1.962 . S
Zn1 O4 1.986 . S
Zn1 O6 1.996 . S
Zn1 O9 1.943 . S
O2 Zn1 1.962 . S
O2 C7 1.254 . S
O3 Zn0 2.031 . S
O3 C7 1.269 . S
O4 Zn1 1.986 . S
O4 C11 1.262 . S
O5 Zn0 2.049 . S
O5 C13 1.260 . S
O6 Zn1 1.996 . S
O6 C13 1.257 . S
C7 O2 1.254 . S
C7 O3 1.269 . S
C8 O9 1.249 . S
C8 O10 1.270 . S
O9 Zn1 1.943 . S
O9 C8 1.249 . S
O10 Zn0 2.067 . S
O10 C8 1.270 . S
C11 O4 1.262 . S
C11 O12 1.232 . S
O12 C11 1.232 . S
C13 O5 1.260 . S
C13 O6 1.257 . S
Zn14 O17 2.031 . S
Zn14 O19 2.049 . S
Zn14 O24 2.067 . S
Zn15 O16 1.962 . S
Zn15 O18 1.986 . S
Zn15 O20 1.996 . S
Zn15 O23 1.943 . S
O16 Zn15 1.962 . S
O16 C21 1.254 . S
O17 Zn14 2.031 . S
O17 C21 1.269 . S
O18 Zn15 1.986 . S
O18 C25 1.262 . S
O19 Zn14 2.049 . S
O19 C27 1.260 . S
O20 Zn15 1.996 . S
O20 C27 1.257 . S
C21 O16 1.254 . S
C21 O17 1.269 . S
C22 O23 1.249 . S
C22 O24 1.270 . S
O23 Zn15 1.943 . S
O23 C22 1.249 . S
O24 Zn14 2.067 . S
O24 C22 1.270 . S
C25 O18 1.262 . S
C25 O26 1.232 . S
O26 C25 1.232 . S
C27 O19 1.260 . S
C27 O20 1.257 . S
Zn28 O31 2.031 . S
Zn28 O33 2.049 . S
Zn28 O38 2.067 . S
Zn29 O30 1.962 . S
Zn29 O32 1.986 . S
Zn29 O34 1.996 . S
Zn29 O37 1.943 . S
O30 Zn29 1.962 . S
O30 C35 1.254 . S
O31 Zn28 2.031 . S
O31 C35 1.269 . S
O32 Zn29 1.986 . S
O32 C39 1.262 . S
O33 Zn28 2.049 . S
O33 C41 1.260 . S
O34 Zn29 1.996 . S
O34 C41 1.257 . S
C35 O30 1.254 . S
C35 O31 1.269 . S
C36 O37 1.249 . S
C36 O38 1.270 . S
O37 Zn29 1.943 . S
O37 C36 1.249 . S
O38 Zn28 2.067 . S
O38 C36 1.270 . S
C39 O32 1.262 . S
C39 O40 1.232 . S
O40 C39 1.232 . S
C41 O33 1.260 . S
C41 O34 1.257 . S
Zn42 O45 2.031 . S
Zn42 O47 2.049 . S
Zn42 O52 2.067 . S
Zn43 O44 1.962 . S
Zn43 O46 1.986 . S
Zn43 O48 1.996 . S
Zn43 O51 1.943 . S
O44 Zn43 1.962 . S
O44 C49 1.254 . S
O45 Zn42 2.031 . S
O45 C49 1.269 . S
O46 Zn43 1.986 . S
O46 C53 1.262 . S
O47 Zn42 2.049 . S
O47 C55 1.260 . S
O48 Zn43 1.996 . S
O48 C55 1.257 . S
C49 O44 1.254 . S
C49 O45 1.269 . S
C50 O51 1.249 . S
C50 O52 1.270 . S
O51 Zn43 1.943 . S
O51 C50 1.249 . S
O52 Zn42 2.067 . S
O52 C50 1.270 . S
C53 O46 1.262 . S
C53 O54 1.232 . S
O54 C53 1.232 . S
C55 O47 1.260 . S
C55 O48 1.257 . S
Zn56 O59 2.031 . S
Zn56 O61 2.049 . S
Zn56 O66 2.067 . S
Zn57 O58 1.962 . S
Zn57 O60 1.986 . S
Zn57 O62 1.996 . S
Zn57 O65 1.943 . S
O58 Zn57 1.962 . S
O58 C63 1.254 . S
O59 Zn56 2.031 . S
O59 C63 1.269 . S
O60 Zn57 1.986 . S
O60 C67 1.262 . S
O61 Zn56 2.049 . S
O61 C69 1.260 . S
O62 Zn57 1.996 . S
O62 C69 1.257 . S
C63 O58 1.254 . S
C63 O59 1.269 . S
C64 O65 1.249 . S
C64 O66 1.270 . S
O65 Zn57 1.943 . S
O65 C64 1.249 . S
O66 Zn56 2.067 . S
O66 C64 1.270 . S
C67 O60 1.262 . S
C67 O68 1.232 . S
O68 C67 1.232 . S
C69 O61 1.260 . S
C69 O62 1.257 . S
Zn70 O73 2.031 . S
Zn70 O75 2.049 . S
Zn70 O80 2.067 . S
Zn71 O72 1.962 . S
Zn71 O74 1.986 . S
Zn71 O76 1.996 . S
Zn71 O79 1.943 . S
O72 Zn71 1.962 . S
O72 C77 1.254 . S
O73 Zn70 2.031 . S
O73 C77 1.269 . S
O74 Zn71 1.986 . S
O74 C81 1.262 . S
O75 Zn70 2.049 . S
O75 C83 1.260 . S
O76 Zn71 1.996 . S
O76 C83 1.257 . S
C77 O72 1.254 . S
C77 O73 1.269 . S
C78 O79 1.249 . S
C78 O80 1.270 . S
O79 Zn71 1.943 . S
O79 C78 1.249 . S
O80 Zn70 2.067 . S
O80 C78 1.270 . S
C81 O74 1.262 . S
C81 O82 1.232 . S
O82 C81 1.232 . S
C83 O75 1.260 . S
C83 O76 1.257 . S
Zn84 O87 2.031 . S
Zn84 O89 2.049 . S
Zn84 O94 2.067 . S
Zn85 O86 1.962 . S
Zn85 O88 1.986 . S
Zn85 O90 1.996 . S
Zn85 O93 1.943 . S
O86 Zn85 1.962 . S
O86 C91 1.254 . S
O87 Zn84 2.031 . S
O87 C91 1.269 . S
O88 Zn85 1.986 . S
O88 C95 1.262 . S
O89 Zn84 2.049 . S
O89 C97 1.260 . S
O90 Zn85 1.996 . S
O90 C97 1.257 . S
C91 O86 1.254 . S
C91 O87 1.269 . S
C92 O93 1.249 . S
C92 O94 1.270 . S
O93 Zn85 1.943 . S
O93 C92 1.249 . S
O94 Zn84 2.067 . S
O94 C92 1.270 . S
C95 O88 1.262 . S
C95 O96 1.232 . S
O96 C95 1.232 . S
C97 O89 1.260 . S
C97 O90 1.257 . S
Zn98 O101 2.031 . S
Zn98 O103 2.049 . S
Zn98 O108 2.067 . S
Zn99 O100 1.962 . S
Zn99 O102 1.986 . S
Zn99 O104 1.996 . S
Zn99 O107 1.943 . S
O100 Zn99 1.962 . S
O100 C105 1.254 . S
O101 Zn98 2.031 . S
O101 C105 1.269 . S
O102 Zn99 1.986 . S
O102 C109 1.262 . S
O103 Zn98 2.049 . S
O103 C111 1.260 . S
O104 Zn99 1.996 . S
O104 C111 1.257 . S
C105 O100 1.254 . S
C105 O101 1.269 . S
C106 O107 1.249 . S
C106 O108 1.270 . S
O107 Zn99 1.943 . S
O107 C106 1.249 . S
O108 Zn98 2.067 . S
O108 C106 1.270 . S
C109 O102 1.262 . S
C109 O110 1.232 . S
O110 C109 1.232 . S
C111 O103 1.260 . S
C111 O104 1.257 . S
Zn112 O115 2.031 . S
Zn112 O117 2.049 . S
Zn112 O122 2.067 . S
Zn113 O114 1.962 . S
Zn113 O116 1.986 . S
Zn113 O118 1.996 . S
Zn113 O121 1.943 . S
O114 Zn113 1.962 . S
O114 C119 1.254 . S
O115 Zn112 2.031 . S
O115 C119 1.269 . S
O116 Zn113 1.986 . S
O116 C123 1.262 . S
O117 Zn112 2.049 . S
O117 C125 1.260 . S
O118 Zn113 1.996 . S
O118 C125 1.257 . S
C119 O114 1.254 . S
C119 O115 1.269 . S
C120 O121 1.249 . S
C120 O122 1.270 . S
O121 Zn113 1.943 . S
O121 C120 1.249 . S
O122 Zn112 2.067 . S
O122 C120 1.270 . S
C123 O116 1.262 . S
C123 O124 1.232 . S
O124 C123 1.232 . S
C125 O117 1.260 . S
C125 O118 1.257 . S
Zn126 O129 2.031 . S
Zn126 O131 2.049 . S
Zn126 O136 2.067 . S
Zn127 O128 1.962 . S
Zn127 O130 1.986 . S
Zn127 O132 1.996 . S
Zn127 O135 1.943 . S
O128 Zn127 1.962 . S
O128 C133 1.254 . S
O129 Zn126 2.031 . S
O129 C133 1.269 . S
O130 Zn127 1.986 . S
O130 C137 1.262 . S
O131 Zn126 2.049 . S
O131 C139 1.260 . S
O132 Zn127 1.996 . S
O132 C139 1.257 . S
C133 O128 1.254 . S
C133 O129 1.269 . S
C134 O135 1.249 . S
C134 O136 1.270 . S
O135 Zn127 1.943 . S
O135 C134 1.249 . S
O136 Zn126 2.067 . S
O136 C134 1.270 . S
C137 O130 1.262 . S
C137 O138 1.232 . S
O138 C137 1.232 . S
C139 O131 1.260 . S
C139 O132 1.257 . S
Zn140 O143 2.031 . S
Zn140 O145 2.049 . S
Zn140 O150 2.067 . S
Zn141 O142 1.962 . S
Zn141 O144 1.986 . S
Zn141 O146 1.996 . S
Zn141 O149 1.943 . S
O142 Zn141 1.962 . S
O142 C147 1.254 . S
O143 Zn140 2.031 . S
O143 C147 1.269 . S
O144 Zn141 1.986 . S
O144 C151 1.262 . S
O145 Zn140 2.049 . S
O145 C153 1.260 . S
O146 Zn141 1.996 . S
O146 C153 1.257 . S
C147 O142 1.254 . S
C147 O143 1.269 . S
C148 O149 1.249 . S
C148 O150 1.270 . S
O149 Zn141 1.943 . S
O149 C148 1.249 . S
O150 Zn140 2.067 . S
O150 C148 1.270 . S
C151 O144 1.262 . S
C151 O152 1.232 . S
O152 C151 1.232 . S
C153 O145 1.260 . S
C153 O146 1.257 . S
Zn154 O157 2.031 . S
Zn154 O159 2.049 . S
Zn154 O164 2.067 . S
Zn155 O156 1.962 . S
Zn155 O158 1.986 . S
Zn155 O160 1.996 . S
Zn155 O163 1.943 . S
O156 Zn155 1.962 . S
O156 C161 1.254 . S
O157 Zn154 2.031 . S
O157 C161 1.269 . S
O158 Zn155 1.986 . S
O158 C165 1.262 . S
O159 Zn154 2.049 . S
O159 C167 1.260 . S
O160 Zn155 1.996 . S
O160 C167 1.257 . S
C161 O156 1.254 . S
C161 O157 1.269 . S
C162 O163 1.249 . S
C162 O164 1.270 . S
O163 Zn155 1.943 . S
O163 C162 1.249 . S
O164 Zn154 2.067 . S
O164 C162 1.270 . S
C165 O158 1.262 . S
C165 O166 1.232 . S
O166 C165 1.232 . S
C167 O159 1.260 . S
C167 O160 1.257 . S
Zn168 O171 2.031 . S
Zn168 O173 2.049 . S
Zn168 O178 2.067 . S
Zn169 O170 1.962 . S
Zn169 O172 1.986 . S
Zn169 O174 1.996 . S
Zn169 O177 1.943 . S
O170 Zn169 1.962 . S
O170 C175 1.254 . S
O171 Zn168 2.031 . S
O171 C175 1.269 . S
O172 Zn169 1.986 . S
O172 C179 1.262 . S
O173 Zn168 2.049 . S
O173 C181 1.260 . S
O174 Zn169 1.996 . S
O174 C181 1.257 . S
C175 O170 1.254 . S
C175 O171 1.269 . S
C176 O177 1.249 . S
C176 O178 1.270 . S
O177 Zn169 1.943 . S
O177 C176 1.249 . S
O178 Zn168 2.067 . S
O178 C176 1.270 . S
C179 O172 1.262 . S
C179 O180 1.232 . S
O180 C179 1.232 . S
C181 O173 1.260 . S
C181 O174 1.257 . S
Zn182 O185 2.031 . S
Zn182 O187 2.049 . S
Zn182 O192 2.067 . S
Zn183 O184 1.962 . S
Zn183 O186 1.986 . S
Zn183 O188 1.996 . S
Zn183 O191 1.943 . S
O184 Zn183 1.962 . S
O184 C189 1.254 . S
O185 Zn182 2.031 . S
O185 C189 1.269 . S
O186 Zn183 1.986 . S
O186 C193 1.262 . S
O187 Zn182 2.049 . S
O187 C195 1.260 . S
O188 Zn183 1.996 . S
O188 C195 1.257 . S
C189 O184 1.254 . S
C189 O185 1.269 . S
C190 O191 1.249 . S
C190 O192 1.270 . S
O191 Zn183 1.943 . S
O191 C190 1.249 . S
O192 Zn182 2.067 . S
O192 C190 1.270 . S
C193 O186 1.262 . S
C193 O194 1.232 . S
O194 C193 1.232 . S
C195 O187 1.260 . S
C195 O188 1.257 . S
Zn196 O199 2.031 . S
Zn196 O201 2.049 . S
Zn196 O206 2.067 . S
Zn197 O198 1.962 . S
Zn197 O200 1.986 . S
Zn197 O202 1.996 . S
Zn197 O205 1.943 . S
O198 Zn197 1.962 . S
O198 C203 1.254 . S
O199 Zn196 2.031 . S
O199 C203 1.269 . S
O200 Zn197 1.986 . S
O200 C207 1.262 . S
O201 Zn196 2.049 . S
O201 C209 1.260 . S
O202 Zn197 1.996 . S
O202 C209 1.257 . S
C203 O198 1.254 . S
C203 O199 1.269 . S
C204 O205 1.249 . S
C204 O206 1.270 . S
O205 Zn197 1.943 . S
O205 C204 1.249 . S
O206 Zn196 2.067 . S
O206 C204 1.270 . S
C207 O200 1.262 . S
C207 O208 1.232 . S
O208 C207 1.232 . S
C209 O201 1.260 . S
C209 O202 1.257 . S
Zn210 O213 2.031 . S
Zn210 O215 2.049 . S
Zn210 O220 2.067 . S
Zn211 O212 1.962 . S
Zn211 O214 1.986 . S
Zn211 O216 1.996 . S
Zn211 O219 1.943 . S
O212 Zn211 1.962 . S
O212 C217 1.254 . S
O213 Zn210 2.031 . S
O213 C217 1.269 . S
O214 Zn211 1.986 . S
O214 C221 1.262 . S
O215 Zn210 2.049 . S
O215 C223 1.260 . S
O216 Zn211 1.996 . S
O216 C223 1.257 . S
C217 O212 1.254 . S
C217 O213 1.269 . S
C218 O219 1.249 . S
C218 O220 1.270 . S
O219 Zn211 1.943 . S
O219 C218 1.249 . S
O220 Zn210 2.067 . S
O220 C218 1.270 . S
C221 O214 1.262 . S
C221 O222 1.232 . S
O222 C221 1.232 . S
C223 O215 1.260 . S
C223 O216 1.257 . S
Zn224 O227 2.031 . S
Zn224 O229 2.049 . S
Zn224 O234 2.067 . S
Zn225 O226 1.962 . S
Zn225 O228 1.986 . S
Zn225 O230 1.996 . S
Zn225 O233 1.943 . S
O226 Zn225 1.962 . S
O226 C231 1.254 . S
O227 Zn224 2.031 . S
O227 C231 1.269 . S
O228 Zn225 1.986 . S
O228 C235 1.262 . S
O229 Zn224 2.049 . S
O229 C237 1.260 . S
O230 Zn225 1.996 . S
O230 C237 1.257 . S
C231 O226 1.254 . S
C231 O227 1.269 . S
C232 O233 1.249 . S
C232 O234 1.270 . S
O233 Zn225 1.943 . S
O233 C232 1.249 . S
O234 Zn224 2.067 . S
O234 C232 1.270 . S
C235 O228 1.262 . S
C235 O236 1.232 . S
O236 C235 1.232 . S
C237 O229 1.260 . S
C237 O230 1.257 . S
Zn238 O241 2.031 . S
Zn238 O243 2.049 . S
Zn238 O248 2.067 . S
Zn239 O240 1.962 . S
Zn239 O242 1.986 . S
Zn239 O244 1.996 . S
Zn239 O247 1.943 . S
O240 Zn239 1.962 . S
O240 C245 1.254 . S
O241 Zn238 2.031 . S
O241 C245 1.269 . S
O242 Zn239 1.986 . S
O242 C249 1.262 . S
O243 Zn238 2.049 . S
O243 C251 1.260 . S
O244 Zn239 1.996 . S
O244 C251 1.257 . S
C245 O240 1.254 . S
C245 O241 1.269 . S
C246 O247 1.249 . S
C246 O248 1.270 . S
O247 Zn239 1.943 . S
O247 C246 1.249 . S
O248 Zn238 2.067 . S
O248 C246 1.270 . S
C249 O242 1.262 . S
C249 O250 1.232 . S
O250 C249 1.232 . S
C251 O243 1.260 . S
C251 O244 1.257 . S
Zn252 O255 2.031 . S
Zn252 O257 2.049 . S
Zn252 O262 2.067 . S
Zn253 O254 1.962 . S
Zn253 O256 1.986 . S
Zn253 O258 1.996 . S
Zn253 O261 1.943 . S
O254 Zn253 1.962 . S
O254 C259 1.254 . S
O255 Zn252 2.031 . S
O255 C259 1.269 . S
O256 Zn253 1.986 . S
O256 C263 1.262 . S
O257 Zn252 2.049 . S
O257 C265 1.260 . S
O258 Zn253 1.996 . S
O258 C265 1.257 . S
C259 O254 1.254 . S
C259 O255 1.269 . S
C260 O261 1.249 . S
C260 O262 1.270 . S
O261 Zn253 1.943 . S
O261 C260 1.249 . S
O262 Zn252 2.067 . S
O262 C260 1.270 . S
C263 O256 1.262 . S
C263 O264 1.232 . S
O264 C263 1.232 . S
C265 O257 1.260 . S
C265 O258 1.257 . S
Zn266 O269 2.031 . S
Zn266 O271 2.049 . S
Zn266 O276 2.067 . S
Zn267 O268 1.962 . S
Zn267 O270 1.986 . S
Zn267 O272 1.996 . S
Zn267 O275 1.943 . S
O268 Zn267 1.962 . S
O268 C273 1.254 . S
O269 Zn266 2.031 . S
O269 C273 1.269 . S
O270 Zn267 1.986 . S
O270 C277 1.262 . S
O271 Zn266 2.049 . S
O271 C279 1.260 . S
O272 Zn267 1.996 . S
O272 C279 1.257 . S
C273 O268 1.254 . S
C273 O269 1.269 . S
C274 O275 1.249 . S
C274 O276 1.270 . S
O275 Zn267 1.943 . S
O275 C274 1.249 . S
O276 Zn266 2.067 . S
O276 C274 1.270 . S
C277 O270 1.262 . S
C277 O278 1.232 . S
O278 C277 1.232 . S
C279 O271 1.260 . S
C279 O272 1.257 . S
Zn280 O283 2.031 . S
Zn280 O285 2.049 . S
Zn280 O290 2.067 . S
Zn281 O282 1.962 . S
Zn281 O284 1.986 . S
Zn281 O286 1.996 . S
Zn281 O289 1.943 . S
O282 Zn281 1.962 . S
O282 C287 1.254 . S
O283 Zn280 2.031 . S
O283 C287 1.269 . S
O284 Zn281 1.986 . S
O284 C291 1.262 . S
O285 Zn280 2.049 . S
O285 C293 1.260 . S
O286 Zn281 1.996 . S
O286 C293 1.257 . S
C287 O282 1.254 . S
C287 O283 1.269 . S
C288 O289 1.249 . S
C288 O290 1.270 . S
O289 Zn281 1.943 . S
O289 C288 1.249 . S
O290 Zn280 2.067 . S
O290 C288 1.270 . S
C291 O284 1.262 . S
C291 O292 1.232 . S
O292 C291 1.232 . S
C293 O285 1.260 . S
C293 O286 1.257 . S
Zn294 O297 2.031 . S
Zn294 O299 2.049 . S
Zn294 O304 2.067 . S
Zn295 O296 1.962 . S
Zn295 O298 1.986 . S
Zn295 O300 1.996 . S
Zn295 O303 1.943 . S
O296 Zn295 1.962 . S
O296 C301 1.254 . S
O297 Zn294 2.031 . S
O297 C301 1.269 . S
O298 Zn295 1.986 . S
O298 C305 1.262 . S
O299 Zn294 2.049 . S
O299 C307 1.260 . S
O300 Zn295 1.996 . S
O300 C307 1.257 . S
C301 O296 1.254 . S
C301 O297 1.269 . S
C302 O303 1.249 . S
C302 O304 1.270 . S
O303 Zn295 1.943 . S
O303 C302 1.249 . S
O304 Zn294 2.067 . S
O304 C302 1.270 . S
C305 O298 1.262 . S
C305 O306 1.232 . S
O306 C305 1.232 . S
C307 O299 1.260 . S
C307 O300 1.257 . S
Zn308 O311 2.031 . S
Zn308 O313 2.049 . S
Zn308 O318 2.067 . S
Zn309 O310 1.962 . S
Zn309 O312 1.986 . S
Zn309 O314 1.996 . S
Zn309 O317 1.943 . S
O310 Zn309 1.962 . S
O310 C315 1.254 . S
O311 Zn308 2.031 . S
O311 C315 1.269 . S
O312 Zn309 1.986 . S
O312 C319 1.262 . S
O313 Zn308 2.049 . S
O313 C321 1.260 . S
O314 Zn309 1.996 . S
O314 C321 1.257 . S
C315 O310 1.254 . S
C315 O311 1.269 . S
C316 O317 1.249 . S
C316 O318 1.270 . S
O317 Zn309 1.943 . S
O317 C316 1.249 . S
O318 Zn308 2.067 . S
O318 C316 1.270 . S
C319 O312 1.262 . S
C319 O320 1.232 . S
O320 C319 1.232 . S
C321 O313 1.260 . S
C321 O314 1.257 . S
Zn322 O325 2.031 . S
Zn322 O327 2.049 . S
Zn322 O332 2.067 . S
Zn323 O324 1.962 . S
Zn323 O326 1.986 . S
Zn323 O328 1.996 . S
Zn323 O331 1.943 . S
O324 Zn323 1.962 . S
O324 C329 1.254 . S
O325 Zn322 2.031 . S
O325 C329 1.269 . S
O326 Zn323 1.986 . S
O326 C333 1.262 . S
O327 Zn322 2.049 . S
O327 C335 1.260 . S
O328 Zn323 1.996 . S
O328 C335 1.257 . S
C329 O324 1.254 . S
C329 O325 1.269 . S
C330 O331 1.249 . S
C330 O332 1.270 . S
O331 Zn323 1.943 . S
O331 C330 1.249 . S
O332 Zn322 2.067 . S
O332 C330 1.270 . S
C333 O326 1.262 . S
C333 O334 1.232 . S
O334 C333 1.232 . S
C335 O327 1.260 . S
C335 O328 1.257 . S
H336 C344 0.929 . S
H337 C346 0.930 . S
H338 C348 0.930 . S
H339 C351 0.929 . S
H340 C354 0.930 . S
H341 C356 0.960 . S
H342 C356 0.960 . S
H343 C356 0.960 . S
C344 H336 0.929 . S
C344 C345 1.377 . S
C344 C346 1.384 . S
C345 C344 1.377 . S
C345 C351 1.390 . S
C346 H337 0.930 . S
C346 C344 1.384 . S
C346 C347 1.372 . S
C347 C346 1.372 . S
C347 C348 1.400 . S
C347 C352 1.490 . S
C348 H338 0.930 . S
C348 C347 1.400 . S
C348 C351 1.386 . S
H349 C365 0.930 . S
H350 C366 0.931 . S
C351 H339 0.929 . S
C351 C345 1.390 . S
C351 C348 1.386 . S
C352 C347 1.490 . S
C352 C354 1.395 . S
C352 C355 1.403 . S
H353 C359 0.930 . S
C354 H340 0.930 . S
C354 C352 1.395 . S
C354 C357 1.403 . S
C355 C352 1.403 . S
C355 C356 1.524 . S
C355 C359 1.400 . S
C356 H341 0.960 . S
C356 H342 0.960 . S
C356 H343 0.960 . S
C356 C355 1.524 . S
C357 C354 1.403 . S
C357 C358 1.392 . S
C357 C361 1.495 . S
C358 C357 1.392 . S
C358 C359 1.385 . S
C358 C360 1.478 . S
C359 H353 0.930 . S
C359 C355 1.400 . S
C359 C358 1.385 . S
C360 C358 1.478 . S
C360 C362 1.381 . S
C360 C366 1.383 . S
C361 C357 1.495 . S
C361 H367 0.959 . S
C361 H368 0.961 . S
C361 H369 0.960 . S
C362 C360 1.381 . S
C362 C363 1.394 . S
C362 H370 0.930 . S
C363 C362 1.394 . S
C363 C364 1.383 . S
C363 H371 0.929 . S
C364 C363 1.383 . S
C364 C365 1.377 . S
C365 H349 0.930 . S
C365 C364 1.377 . S
C365 C366 1.379 . S
C366 H350 0.931 . S
C366 C360 1.383 . S
C366 C365 1.379 . S
H367 C361 0.959 . S
H368 C361 0.961 . S
H369 C361 0.960 . S
H370 C362 0.930 . S
H371 C363 0.929 . S
H372 C380 0.929 . S
H373 C382 0.930 . S
H374 C384 0.930 . S
H375 C387 0.929 . S
H376 C390 0.930 . S
H377 C392 0.960 . S
H378 C392 0.960 . S
H379 C392 0.960 . S
C380 H372 0.929 . S
C380 C381 1.377 . S
C380 C382 1.384 . S
C381 C380 1.377 . S
C381 C387 1.390 . S
C382 H373 0.930 . S
C382 C380 1.384 . S
C382 C383 1.372 . S
C383 C382 1.372 . S
C383 C384 1.400 . S
C383 C388 1.490 . S
C384 H374 0.930 . S
C384 C383 1.400 . S
C384 C387 1.386 . S
H385 C401 0.930 . S
H386 C402 0.931 . S
C387 H375 0.929 . S
C387 C381 1.390 . S
C387 C384 1.386 . S
C388 C383 1.490 . S
C388 C390 1.395 . S
C388 C391 1.403 . S
H389 C395 0.930 . S
C390 H376 0.930 . S
C390 C388 1.395 . S
C390 C393 1.403 . S
C391 C388 1.403 . S
C391 C392 1.524 . S
C391 C395 1.400 . S
C392 H377 0.960 . S
C392 H378 0.960 . S
C392 H379 0.960 . S
C392 C391 1.524 . S
C393 C390 1.403 . S
C393 C394 1.392 . S
C393 C397 1.495 . S
C394 C393 1.392 . S
C394 C395 1.385 . S
C394 C396 1.478 . S
C395 H389 0.930 . S
C395 C391 1.400 . S
C395 C394 1.385 . S
C396 C394 1.478 . S
C396 C398 1.381 . S
C396 C402 1.383 . S
C397 C393 1.495 . S
C397 H403 0.959 . S
C397 H404 0.961 . S
C397 H405 0.960 . S
C398 C396 1.381 . S
C398 C399 1.394 . S
C398 H406 0.930 . S
C399 C398 1.394 . S
C399 C400 1.383 . S
C399 H407 0.929 . S
C400 C399 1.383 . S
C400 C401 1.377 . S
C401 H385 0.930 . S
C401 C400 1.377 . S
C401 C402 1.379 . S
C402 H386 0.931 . S
C402 C396 1.383 . S
C402 C401 1.379 . S
H403 C397 0.959 . S
H404 C397 0.961 . S
H405 C397 0.960 . S
H406 C398 0.930 . S
H407 C399 0.929 . S
H408 C416 0.929 . S
H409 C418 0.930 . S
H410 C420 0.930 . S
H411 C423 0.929 . S
H412 C426 0.930 . S
H413 C428 0.960 . S
H414 C428 0.960 . S
H415 C428 0.960 . S
C416 H408 0.929 . S
C416 C417 1.377 . S
C416 C418 1.384 . S
C417 C416 1.377 . S
C417 C423 1.390 . S
C418 H409 0.930 . S
C418 C416 1.384 . S
C418 C419 1.372 . S
C419 C418 1.372 . S
C419 C420 1.400 . S
C419 C424 1.490 . S
C420 H410 0.930 . S
C420 C419 1.400 . S
C420 C423 1.386 . S
H421 C437 0.930 . S
H422 C438 0.931 . S
C423 H411 0.929 . S
C423 C417 1.390 . S
C423 C420 1.386 . S
C424 C419 1.490 . S
C424 C426 1.395 . S
C424 C427 1.403 . S
H425 C431 0.930 . S
C426 H412 0.930 . S
C426 C424 1.395 . S
C426 C429 1.403 . S
C427 C424 1.403 . S
C427 C428 1.524 . S
C427 C431 1.400 . S
C428 H413 0.960 . S
C428 H414 0.960 . S
C428 H415 0.960 . S
C428 C427 1.524 . S
C429 C426 1.403 . S
C429 C430 1.392 . S
C429 C433 1.495 . S
C430 C429 1.392 . S
C430 C431 1.385 . S
C430 C432 1.478 . S
C431 H425 0.930 . S
C431 C427 1.400 . S
C431 C430 1.385 . S
C432 C430 1.478 . S
C432 C434 1.381 . S
C432 C438 1.383 . S
C433 C429 1.495 . S
C433 H439 0.959 . S
C433 H440 0.961 . S
C433 H441 0.960 . S
C434 C432 1.381 . S
C434 C435 1.394 . S
C434 H442 0.930 . S
C435 C434 1.394 . S
C435 C436 1.383 . S
C435 H443 0.929 . S
C436 C435 1.383 . S
C436 C437 1.377 . S
C437 H421 0.930 . S
C437 C436 1.377 . S
C437 C438 1.379 . S
C438 H422 0.931 . S
C438 C432 1.383 . S
C438 C437 1.379 . S
H439 C433 0.959 . S
H440 C433 0.961 . S
H441 C433 0.960 . S
H442 C434 0.930 . S
H443 C435 0.929 . S
H444 C452 0.929 . S
H445 C454 0.930 . S
H446 C456 0.930 . S
H447 C459 0.929 . S
H448 C462 0.930 . S
H449 C464 0.960 . S
H450 C464 0.960 . S
H451 C464 0.960 . S
C452 H444 0.929 . S
C452 C453 1.377 . S
C452 C454 1.384 . S
C453 C452 1.377 . S
C453 C459 1.390 . S
C454 H445 0.930 . S
C454 C452 1.384 . S
C454 C455 1.372 . S
C455 C454 1.372 . S
C455 C456 1.400 . S
C455 C460 1.490 . S
C456 H446 0.930 . S
C456 C455 1.400 . S
C456 C459 1.386 . S
H457 C473 0.930 . S
H458 C474 0.931 . S
C459 H447 0.929 . S
C459 C453 1.390 . S
C459 C456 1.386 . S
C460 C455 1.490 . S
C460 C462 1.395 . S
C460 C463 1.403 . S
H461 C467 0.930 . S
C462 H448 0.930 . S
C462 C460 1.395 . S
C462 C465 1.403 . S
C463 C460 1.403 . S
C463 C464 1.524 . S
C463 C467 1.400 . S
C464 H449 0.960 . S
C464 H450 0.960 . S
C464 H451 0.960 . S
C464 C463 1.524 . S
C465 C462 1.403 . S
C465 C466 1.392 . S
C465 C469 1.495 . S
C466 C465 1.392 . S
C466 C467 1.385 . S
C466 C468 1.478 . S
C467 H461 0.930 . S
C467 C463 1.400 . S
C467 C466 1.385 . S
C468 C466 1.478 . S
C468 C470 1.381 . S
C468 C474 1.383 . S
C469 C465 1.495 . S
C469 H475 0.959 . S
C469 H476 0.961 . S
C469 H477 0.960 . S
C470 C468 1.381 . S
C470 C471 1.394 . S
C470 H478 0.930 . S
C471 C470 1.394 . S
C471 C472 1.383 . S
C471 H479 0.929 . S
C472 C471 1.383 . S
C472 C473 1.377 . S
C473 H457 0.930 . S
C473 C472 1.377 . S
C473 C474 1.379 . S
C474 H458 0.931 . S
C474 C468 1.383 . S
C474 C473 1.379 . S
H475 C469 0.959 . S
H476 C469 0.961 . S
H477 C469 0.960 . S
H478 C470 0.930 . S
H479 C471 0.929 . S
H480 C488 0.929 . S
H481 C490 0.930 . S
H482 C492 0.930 . S
H483 C495 0.929 . S
H484 C498 0.930 . S
H485 C500 0.960 . S
H486 C500 0.960 . S
H487 C500 0.960 . S
C488 H480 0.929 . S
C488 C489 1.377 . S
C488 C490 1.384 . S
C489 C488 1.377 . S
C489 C495 1.390 . S
C490 H481 0.930 . S
C490 C488 1.384 . S
C490 C491 1.372 . S
C491 C490 1.372 . S
C491 C492 1.400 . S
C491 C496 1.490 . S
C492 H482 0.930 . S
C492 C491 1.400 . S
C492 C495 1.386 . S
H493 C509 0.930 . S
H494 C510 0.931 . S
C495 H483 0.929 . S
C495 C489 1.390 . S
C495 C492 1.386 . S
C496 C491 1.490 . S
C496 C498 1.395 . S
C496 C499 1.403 . S
H497 C503 0.930 . S
C498 H484 0.930 . S
C498 C496 1.395 . S
C498 C501 1.403 . S
C499 C496 1.403 . S
C499 C500 1.524 . S
C499 C503 1.400 . S
C500 H485 0.960 . S
C500 H486 0.960 . S
C500 H487 0.960 . S
C500 C499 1.524 . S
C501 C498 1.403 . S
C501 C502 1.392 . S
C501 C505 1.495 . S
C502 C501 1.392 . S
C502 C503 1.385 . S
C502 C504 1.478 . S
C503 H497 0.930 . S
C503 C499 1.400 . S
C503 C502 1.385 . S
C504 C502 1.478 . S
C504 C506 1.381 . S
C504 C510 1.383 . S
C505 C501 1.495 . S
C505 H511 0.959 . S
C505 H512 0.961 . S
C505 H513 0.960 . S
C506 C504 1.381 . S
C506 C507 1.394 . S
C506 H514 0.930 . S
C507 C506 1.394 . S
C507 C508 1.383 . S
C507 H515 0.929 . S
C508 C507 1.383 . S
C508 C509 1.377 . S
C509 H493 0.930 . S
C509 C508 1.377 . S
C509 C510 1.379 . S
C510 H494 0.931 . S
C510 C504 1.383 . S
C510 C509 1.379 . S
H511 C505 0.959 . S
H512 C505 0.961 . S
H513 C505 0.960 . S
H514 C506 0.930 . S
H515 C507 0.929 . S
H516 C524 0.929 . S
H517 C526 0.930 . S
H518 C528 0.930 . S
H519 C531 0.929 . S
H520 C534 0.930 . S
H521 C536 0.960 . S
H522 C536 0.960 . S
H523 C536 0.960 . S
C524 H516 0.929 . S
C524 C525 1.377 . S
C524 C526 1.384 . S
C525 C524 1.377 . S
C525 C531 1.390 . S
C526 H517 0.930 . S
C526 C524 1.384 . S
C526 C527 1.372 . S
C527 C526 1.372 . S
C527 C528 1.400 . S
C527 C532 1.490 . S
C528 H518 0.930 . S
C528 C527 1.400 . S
C528 C531 1.386 . S
H529 C545 0.930 . S
H530 C546 0.931 . S
C531 H519 0.929 . S
C531 C525 1.390 . S
C531 C528 1.386 . S
C532 C527 1.490 . S
C532 C534 1.395 . S
C532 C535 1.403 . S
H533 C539 0.930 . S
C534 H520 0.930 . S
C534 C532 1.395 . S
C534 C537 1.403 . S
C535 C532 1.403 . S
C535 C536 1.524 . S
C535 C539 1.400 . S
C536 H521 0.960 . S
C536 H522 0.960 . S
C536 H523 0.960 . S
C536 C535 1.524 . S
C537 C534 1.403 . S
C537 C538 1.392 . S
C537 C541 1.495 . S
C538 C537 1.392 . S
C538 C539 1.385 . S
C538 C540 1.478 . S
C539 H533 0.930 . S
C539 C535 1.400 . S
C539 C538 1.385 . S
C540 C538 1.478 . S
C540 C542 1.381 . S
C540 C546 1.383 . S
C541 C537 1.495 . S
C541 H547 0.959 . S
C541 H548 0.961 . S
C541 H549 0.960 . S
C542 C540 1.381 . S
C542 C543 1.394 . S
C542 H550 0.930 . S
C543 C542 1.394 . S
C543 C544 1.383 . S
C543 H551 0.929 . S
C544 C543 1.383 . S
C544 C545 1.377 . S
C545 H529 0.930 . S
C545 C544 1.377 . S
C545 C546 1.379 . S
C546 H530 0.931 . S
C546 C540 1.383 . S
C546 C545 1.379 . S
H547 C541 0.959 . S
H548 C541 0.961 . S
H549 C541 0.960 . S
H550 C542 0.930 . S
H551 C543 0.929 . S
H552 C560 0.929 . S
H553 C562 0.930 . S
H554 C564 0.930 . S
H555 C567 0.929 . S
H556 C570 0.930 . S
H557 C572 0.960 . S
H558 C572 0.960 . S
H559 C572 0.960 . S
C560 H552 0.929 . S
C560 C561 1.377 . S
C560 C562 1.384 . S
C561 C560 1.377 . S
C561 C567 1.390 . S
C562 H553 0.930 . S
C562 C560 1.384 . S
C562 C563 1.372 . S
C563 C562 1.372 . S
C563 C564 1.400 . S
C563 C568 1.490 . S
C564 H554 0.930 . S
C564 C563 1.400 . S
C564 C567 1.386 . S
H565 C581 0.930 . S
H566 C582 0.931 . S
C567 H555 0.929 . S
C567 C561 1.390 . S
C567 C564 1.386 . S
C568 C563 1.490 . S
C568 C570 1.395 . S
C568 C571 1.403 . S
H569 C575 0.930 . S
C570 H556 0.930 . S
C570 C568 1.395 . S
C570 C573 1.403 . S
C571 C568 1.403 . S
C571 C572 1.524 . S
C571 C575 1.400 . S
C572 H557 0.960 . S
C572 H558 0.960 . S
C572 H559 0.960 . S
C572 C571 1.524 . S
C573 C570 1.403 . S
C573 C574 1.392 . S
C573 C577 1.495 . S
C574 C573 1.392 . S
C574 C575 1.385 . S
C574 C576 1.478 . S
C575 H569 0.930 . S
C575 C571 1.400 . S
C575 C574 1.385 . S
C576 C574 1.478 . S
C576 C578 1.381 . S
C576 C582 1.383 . S
C577 C573 1.495 . S
C577 H583 0.959 . S
C577 H584 0.961 . S
C577 H585 0.960 . S
C578 C576 1.381 . S
C578 C579 1.394 . S
C578 H586 0.930 . S
C579 C578 1.394 . S
C579 C580 1.383 . S
C579 H587 0.929 . S
C580 C579 1.383 . S
C580 C581 1.377 . S
C581 H565 0.930 . S
C581 C580 1.377 . S
C581 C582 1.379 . S
C582 H566 0.931 . S
C582 C576 1.383 . S
C582 C581 1.379 . S
H583 C577 0.959 . S
H584 C577 0.961 . S
H585 C577 0.960 . S
H586 C578 0.930 . S
H587 C579 0.929 . S
H588 C596 0.929 . S
H589 C598 0.930 . S
H590 C600 0.930 . S
H591 C603 0.929 . S
H592 C606 0.930 . S
H593 C608 0.960 . S
H594 C608 0.960 . S
H595 C608 0.960 . S
C596 H588 0.929 . S
C596 C597 1.377 . S
C596 C598 1.384 . S
C597 C596 1.377 . S
C597 C603 1.390 . S
C598 H589 0.930 . S
C598 C596 1.384 . S
C598 C599 1.372 . S
C599 C598 1.372 . S
C599 C600 1.400 . S
C599 C604 1.490 . S
C600 H590 0.930 . S
C600 C599 1.400 . S
C600 C603 1.386 . S
H601 C617 0.930 . S
H602 C618 0.931 . S
C603 H591 0.929 . S
C603 C597 1.390 . S
C603 C600 1.386 . S
C604 C599 1.490 . S
C604 C606 1.395 . S
C604 C607 1.403 . S
H605 C611 0.930 . S
C606 H592 0.930 . S
C606 C604 1.395 . S
C606 C609 1.403 . S
C607 C604 1.403 . S
C607 C608 1.524 . S
C607 C611 1.400 . S
C608 H593 0.960 . S
C608 H594 0.960 . S
C608 H595 0.960 . S
C608 C607 1.524 . S
C609 C606 1.403 . S
C609 C610 1.392 . S
C609 C613 1.495 . S
C610 C609 1.392 . S
C610 C611 1.385 . S
C610 C612 1.478 . S
C611 H605 0.930 . S
C611 C607 1.400 . S
C611 C610 1.385 . S
C612 C610 1.478 . S
C612 C614 1.381 . S
C612 C618 1.383 . S
C613 C609 1.495 . S
C613 H619 0.959 . S
C613 H620 0.961 . S
C613 H621 0.960 . S
C614 C612 1.381 . S
C614 C615 1.394 . S
C614 H622 0.930 . S
C615 C614 1.394 . S
C615 C616 1.383 . S
C615 H623 0.929 . S
C616 C615 1.383 . S
C616 C617 1.377 . S
C617 H601 0.930 . S
C617 C616 1.377 . S
C617 C618 1.379 . S
C618 H602 0.931 . S
C618 C612 1.383 . S
C618 C617 1.379 . S
H619 C613 0.959 . S
H620 C613 0.961 . S
H621 C613 0.960 . S
H622 C614 0.930 . S
H623 C615 0.929 . S
H624 C632 0.929 . S
H625 C634 0.930 . S
H626 C636 0.930 . S
H627 C639 0.929 . S
H628 C642 0.930 . S
H629 C644 0.960 . S
H630 C644 0.960 . S
H631 C644 0.960 . S
C632 H624 0.929 . S
C632 C633 1.377 . S
C632 C634 1.384 . S
C633 C632 1.377 . S
C633 C639 1.390 . S
C634 H625 0.930 . S
C634 C632 1.384 . S
C634 C635 1.372 . S
C635 C634 1.372 . S
C635 C636 1.400 . S
C635 C640 1.490 . S
C636 H626 0.930 . S
C636 C635 1.400 . S
C636 C639 1.386 . S
H637 C653 0.930 . S
H638 C654 0.931 . S
C639 H627 0.929 . S
C639 C633 1.390 . S
C639 C636 1.386 . S
C640 C635 1.490 . S
C640 C642 1.395 . S
C640 C643 1.403 . S
H641 C647 0.930 . S
C642 H628 0.930 . S
C642 C640 1.395 . S
C642 C645 1.403 . S
C643 C640 1.403 . S
C643 C644 1.524 . S
C643 C647 1.400 . S
C644 H629 0.960 . S
C644 H630 0.960 . S
C644 H631 0.960 . S
C644 C643 1.524 . S
C645 C642 1.403 . S
C645 C646 1.392 . S
C645 C649 1.495 . S
C646 C645 1.392 . S
C646 C647 1.385 . S
C646 C648 1.478 . S
C647 H641 0.930 . S
C647 C643 1.400 . S
C647 C646 1.385 . S
C648 C646 1.478 . S
C648 C650 1.381 . S
C648 C654 1.383 . S
C649 C645 1.495 . S
C649 H655 0.959 . S
C649 H656 0.961 . S
C649 H657 0.960 . S
C650 C648 1.381 . S
C650 C651 1.394 . S
C650 H658 0.930 . S
C651 C650 1.394 . S
C651 C652 1.383 . S
C651 H659 0.929 . S
C652 C651 1.383 . S
C652 C653 1.377 . S
C653 H637 0.930 . S
C653 C652 1.377 . S
C653 C654 1.379 . S
C654 H638 0.931 . S
C654 C648 1.383 . S
C654 C653 1.379 . S
H655 C649 0.959 . S
H656 C649 0.961 . S
H657 C649 0.960 . S
H658 C650 0.930 . S
H659 C651 0.929 . S
H660 C668 0.929 . S
H661 C670 0.930 . S
H662 C672 0.930 . S
H663 C675 0.929 . S
H664 C678 0.930 . S
H665 C680 0.960 . S
H666 C680 0.960 . S
H667 C680 0.960 . S
C668 H660 0.929 . S
C668 C669 1.377 . S
C668 C670 1.384 . S
C669 C668 1.377 . S
C669 C675 1.390 . S
C670 H661 0.930 . S
C670 C668 1.384 . S
C670 C671 1.372 . S
C671 C670 1.372 . S
C671 C672 1.400 . S
C671 C676 1.490 . S
C672 H662 0.930 . S
C672 C671 1.400 . S
C672 C675 1.386 . S
H673 C689 0.930 . S
H674 C690 0.931 . S
C675 H663 0.929 . S
C675 C669 1.390 . S
C675 C672 1.386 . S
C676 C671 1.490 . S
C676 C678 1.395 . S
C676 C679 1.403 . S
H677 C683 0.930 . S
C678 H664 0.930 . S
C678 C676 1.395 . S
C678 C681 1.403 . S
C679 C676 1.403 . S
C679 C680 1.524 . S
C679 C683 1.400 . S
C680 H665 0.960 . S
C680 H666 0.960 . S
C680 H667 0.960 . S
C680 C679 1.524 . S
C681 C678 1.403 . S
C681 C682 1.392 . S
C681 C685 1.495 . S
C682 C681 1.392 . S
C682 C683 1.385 . S
C682 C684 1.478 . S
C683 H677 0.930 . S
C683 C679 1.400 . S
C683 C682 1.385 . S
C684 C682 1.478 . S
C684 C686 1.381 . S
C684 C690 1.383 . S
C685 C681 1.495 . S
C685 H691 0.959 . S
C685 H692 0.961 . S
C685 H693 0.960 . S
C686 C684 1.381 . S
C686 C687 1.394 . S
C686 H694 0.930 . S
C687 C686 1.394 . S
C687 C688 1.383 . S
C687 H695 0.929 . S
C688 C687 1.383 . S
C688 C689 1.377 . S
C689 H673 0.930 . S
C689 C688 1.377 . S
C689 C690 1.379 . S
C690 H674 0.931 . S
C690 C684 1.383 . S
C690 C689 1.379 . S
H691 C685 0.959 . S
H692 C685 0.961 . S
H693 C685 0.960 . S
H694 C686 0.930 . S
H695 C687 0.929 . S
H696 C704 0.929 . S
H697 C706 0.930 . S
H698 C708 0.930 . S
H699 C711 0.929 . S
H700 C714 0.930 . S
H701 C716 0.960 . S
H702 C716 0.960 . S
H703 C716 0.960 . S
C704 H696 0.929 . S
C704 C705 1.377 . S
C704 C706 1.384 . S
C705 C704 1.377 . S
C705 C711 1.390 . S
C706 H697 0.930 . S
C706 C704 1.384 . S
C706 C707 1.372 . S
C707 C706 1.372 . S
C707 C708 1.400 . S
C707 C712 1.490 . S
C708 H698 0.930 . S
C708 C707 1.400 . S
C708 C711 1.386 . S
H709 C725 0.930 . S
H710 C726 0.931 . S
C711 H699 0.929 . S
C711 C705 1.390 . S
C711 C708 1.386 . S
C712 C707 1.490 . S
C712 C714 1.395 . S
C712 C715 1.403 . S
H713 C719 0.930 . S
C714 H700 0.930 . S
C714 C712 1.395 . S
C714 C717 1.403 . S
C715 C712 1.403 . S
C715 C716 1.524 . S
C715 C719 1.400 . S
C716 H701 0.960 . S
C716 H702 0.960 . S
C716 H703 0.960 . S
C716 C715 1.524 . S
C717 C714 1.403 . S
C717 C718 1.392 . S
C717 C721 1.495 . S
C718 C717 1.392 . S
C718 C719 1.385 . S
C718 C720 1.478 . S
C719 H713 0.930 . S
C719 C715 1.400 . S
C719 C718 1.385 . S
C720 C718 1.478 . S
C720 C722 1.381 . S
C720 C726 1.383 . S
C721 C717 1.495 . S
C721 H727 0.959 . S
C721 H728 0.961 . S
C721 H729 0.960 . S
C722 C720 1.381 . S
C722 C723 1.394 . S
C722 H730 0.930 . S
C723 C722 1.394 . S
C723 C724 1.383 . S
C723 H731 0.929 . S
C724 C723 1.383 . S
C724 C725 1.377 . S
C725 H709 0.930 . S
C725 C724 1.377 . S
C725 C726 1.379 . S
C726 H710 0.931 . S
C726 C720 1.383 . S
C726 C725 1.379 . S
H727 C721 0.959 . S
H728 C721 0.961 . S
H729 C721 0.960 . S
H730 C722 0.930 . S
H731 C723 0.929 . S
H732 C740 0.929 . S
H733 C742 0.930 . S
H734 C744 0.930 . S
H735 C747 0.929 . S
H736 C750 0.930 . S
H737 C752 0.960 . S
H738 C752 0.960 . S
H739 C752 0.960 . S
C740 H732 0.929 . S
C740 C741 1.377 . S
C740 C742 1.384 . S
C741 C740 1.377 . S
C741 C747 1.390 . S
C742 H733 0.930 . S
C742 C740 1.384 . S
C742 C743 1.372 . S
C743 C742 1.372 . S
C743 C744 1.400 . S
C743 C748 1.490 . S
C744 H734 0.930 . S
C744 C743 1.400 . S
C744 C747 1.386 . S
H745 C761 0.930 . S
H746 C762 0.931 . S
C747 H735 0.929 . S
C747 C741 1.390 . S
C747 C744 1.386 . S
C748 C743 1.490 . S
C748 C750 1.395 . S
C748 C751 1.403 . S
H749 C755 0.930 . S
C750 H736 0.930 . S
C750 C748 1.395 . S
C750 C753 1.403 . S
C751 C748 1.403 . S
C751 C752 1.524 . S
C751 C755 1.400 . S
C752 H737 0.960 . S
C752 H738 0.960 . S
C752 H739 0.960 . S
C752 C751 1.524 . S
C753 C750 1.403 . S
C753 C754 1.392 . S
C753 C757 1.495 . S
C754 C753 1.392 . S
C754 C755 1.385 . S
C754 C756 1.478 . S
C755 H749 0.930 . S
C755 C751 1.400 . S
C755 C754 1.385 . S
C756 C754 1.478 . S
C756 C758 1.381 . S
C756 C762 1.383 . S
C757 C753 1.495 . S
C757 H763 0.959 . S
C757 H764 0.961 . S
C757 H765 0.960 . S
C758 C756 1.381 . S
C758 C759 1.394 . S
C758 H766 0.930 . S
C759 C758 1.394 . S
C759 C760 1.383 . S
C759 H767 0.929 . S
C760 C759 1.383 . S
C760 C761 1.377 . S
C761 H745 0.930 . S
C761 C760 1.377 . S
C761 C762 1.379 . S
C762 H746 0.931 . S
C762 C756 1.383 . S
C762 C761 1.379 . S
H763 C757 0.959 . S
H764 C757 0.961 . S
H765 C757 0.960 . S
H766 C758 0.930 . S
H767 C759 0.929 . S
H768 C776 0.929 . S
H769 C778 0.930 . S
H770 C780 0.930 . S
H771 C783 0.929 . S
H772 C786 0.930 . S
H773 C788 0.960 . S
H774 C788 0.960 . S
H775 C788 0.960 . S
C776 H768 0.929 . S
C776 C777 1.377 . S
C776 C778 1.384 . S
C777 C776 1.377 . S
C777 C783 1.390 . S
C778 H769 0.930 . S
C778 C776 1.384 . S
C778 C779 1.372 . S
C779 C778 1.372 . S
C779 C780 1.400 . S
C779 C784 1.490 . S
C780 H770 0.930 . S
C780 C779 1.400 . S
C780 C783 1.386 . S
H781 C797 0.930 . S
H782 C798 0.931 . S
C783 H771 0.929 . S
C783 C777 1.390 . S
C783 C780 1.386 . S
C784 C779 1.490 . S
C784 C786 1.395 . S
C784 C787 1.403 . S
H785 C791 0.930 . S
C786 H772 0.930 . S
C786 C784 1.395 . S
C786 C789 1.403 . S
C787 C784 1.403 . S
C787 C788 1.524 . S
C787 C791 1.400 . S
C788 H773 0.960 . S
C788 H774 0.960 . S
C788 H775 0.960 . S
C788 C787 1.524 . S
C789 C786 1.403 . S
C789 C790 1.392 . S
C789 C793 1.495 . S
C790 C789 1.392 . S
C790 C791 1.385 . S
C790 C792 1.478 . S
C791 H785 0.930 . S
C791 C787 1.400 . S
C791 C790 1.385 . S
C792 C790 1.478 . S
C792 C794 1.381 . S
C792 C798 1.383 . S
C793 C789 1.495 . S
C793 H799 0.959 . S
C793 H800 0.961 . S
C793 H801 0.960 . S
C794 C792 1.381 . S
C794 C795 1.394 . S
C794 H802 0.930 . S
C795 C794 1.394 . S
C795 C796 1.383 . S
C795 H803 0.929 . S
C796 C795 1.383 . S
C796 C797 1.377 . S
C797 H781 0.930 . S
C797 C796 1.377 . S
C797 C798 1.379 . S
C798 H782 0.931 . S
C798 C792 1.383 . S
C798 C797 1.379 . S
H799 C793 0.959 . S
H800 C793 0.961 . S
H801 C793 0.960 . S
H802 C794 0.930 . S
H803 C795 0.929 . S
H804 C812 0.929 . S
H805 C814 0.930 . S
H806 C816 0.930 . S
H807 C819 0.929 . S
H808 C822 0.930 . S
H809 C824 0.960 . S
H810 C824 0.960 . S
H811 C824 0.960 . S
C812 H804 0.929 . S
C812 C813 1.377 . S
C812 C814 1.384 . S
C813 C812 1.377 . S
C813 C819 1.390 . S
C814 H805 0.930 . S
C814 C812 1.384 . S
C814 C815 1.372 . S
C815 C814 1.372 . S
C815 C816 1.400 . S
C815 C820 1.490 . S
C816 H806 0.930 . S
C816 C815 1.400 . S
C816 C819 1.386 . S
H817 C833 0.930 . S
H818 C834 0.931 . S
C819 H807 0.929 . S
C819 C813 1.390 . S
C819 C816 1.386 . S
C820 C815 1.490 . S
C820 C822 1.395 . S
C820 C823 1.403 . S
H821 C827 0.930 . S
C822 H808 0.930 . S
C822 C820 1.395 . S
C822 C825 1.403 . S
C823 C820 1.403 . S
C823 C824 1.524 . S
C823 C827 1.400 . S
C824 H809 0.960 . S
C824 H810 0.960 . S
C824 H811 0.960 . S
C824 C823 1.524 . S
C825 C822 1.403 . S
C825 C826 1.392 . S
C825 C829 1.495 . S
C826 C825 1.392 . S
C826 C827 1.385 . S
C826 C828 1.478 . S
C827 H821 0.930 . S
C827 C823 1.400 . S
C827 C826 1.385 . S
C828 C826 1.478 . S
C828 C830 1.381 . S
C828 C834 1.383 . S
C829 C825 1.495 . S
C829 H835 0.959 . S
C829 H836 0.961 . S
C829 H837 0.960 . S
C830 C828 1.381 . S
C830 C831 1.394 . S
C830 H838 0.930 . S
C831 C830 1.394 . S
C831 C832 1.383 . S
C831 H839 0.929 . S
C832 C831 1.383 . S
C832 C833 1.377 . S
C833 H817 0.930 . S
C833 C832 1.377 . S
C833 C834 1.379 . S
C834 H818 0.931 . S
C834 C828 1.383 . S
C834 C833 1.379 . S
H835 C829 0.959 . S
H836 C829 0.961 . S
H837 C829 0.960 . S
H838 C830 0.930 . S
H839 C831 0.929 . S
H840 C848 0.929 . S
H841 C850 0.930 . S
H842 C852 0.930 . S
H843 C855 0.929 . S
H844 C858 0.930 . S
H845 C860 0.960 . S
H846 C860 0.960 . S
H847 C860 0.960 . S
C848 H840 0.929 . S
C848 C849 1.377 . S
C848 C850 1.384 . S
C849 C848 1.377 . S
C849 C855 1.390 . S
C850 H841 0.930 . S
C850 C848 1.384 . S
C850 C851 1.372 . S
C851 C850 1.372 . S
C851 C852 1.400 . S
C851 C856 1.490 . S
C852 H842 0.930 . S
C852 C851 1.400 . S
C852 C855 1.386 . S
H853 C869 0.930 . S
H854 C870 0.931 . S
C855 H843 0.929 . S
C855 C849 1.390 . S
C855 C852 1.386 . S
C856 C851 1.490 . S
C856 C858 1.395 . S
C856 C859 1.403 . S
H857 C863 0.930 . S
C858 H844 0.930 . S
C858 C856 1.395 . S
C858 C861 1.403 . S
C859 C856 1.403 . S
C859 C860 1.524 . S
C859 C863 1.400 . S
C860 H845 0.960 . S
C860 H846 0.960 . S
C860 H847 0.960 . S
C860 C859 1.524 . S
C861 C858 1.403 . S
C861 C862 1.392 . S
C861 C865 1.495 . S
C862 C861 1.392 . S
C862 C863 1.385 . S
C862 C864 1.478 . S
C863 H857 0.930 . S
C863 C859 1.400 . S
C863 C862 1.385 . S
C864 C862 1.478 . S
C864 C866 1.381 . S
C864 C870 1.383 . S
C865 C861 1.495 . S
C865 H871 0.959 . S
C865 H872 0.961 . S
C865 H873 0.960 . S
C866 C864 1.381 . S
C866 C867 1.394 . S
C866 H874 0.930 . S
C867 C866 1.394 . S
C867 C868 1.383 . S
C867 H875 0.929 . S
C868 C867 1.383 . S
C868 C869 1.377 . S
C869 H853 0.930 . S
C869 C868 1.377 . S
C869 C870 1.379 . S
C870 H854 0.931 . S
C870 C864 1.383 . S
C870 C869 1.379 . S
H871 C865 0.959 . S
H872 C865 0.961 . S
H873 C865 0.960 . S
H874 C866 0.930 . S
H875 C867 0.929 . S
H876 C884 0.929 . S
H877 C886 0.930 . S
H878 C888 0.930 . S
H879 C891 0.929 . S
H880 C894 0.930 . S
H881 C896 0.960 . S
H882 C896 0.960 . S
H883 C896 0.960 . S
C884 H876 0.929 . S
C884 C885 1.377 . S
C884 C886 1.384 . S
C885 C884 1.377 . S
C885 C891 1.390 . S
C886 H877 0.930 . S
C886 C884 1.384 . S
C886 C887 1.372 . S
C887 C886 1.372 . S
C887 C888 1.400 . S
C887 C892 1.490 . S
C888 H878 0.930 . S
C888 C887 1.400 . S
C888 C891 1.386 . S
H889 C905 0.930 . S
H890 C906 0.931 . S
C891 H879 0.929 . S
C891 C885 1.390 . S
C891 C888 1.386 . S
C892 C887 1.490 . S
C892 C894 1.395 . S
C892 C895 1.403 . S
H893 C899 0.930 . S
C894 H880 0.930 . S
C894 C892 1.395 . S
C894 C897 1.403 . S
C895 C892 1.403 . S
C895 C896 1.524 . S
C895 C899 1.400 . S
C896 H881 0.960 . S
C896 H882 0.960 . S
C896 H883 0.960 . S
C896 C895 1.524 . S
C897 C894 1.403 . S
C897 C898 1.392 . S
C897 C901 1.495 . S
C898 C897 1.392 . S
C898 C899 1.385 . S
C898 C900 1.478 . S
C899 H893 0.930 . S
C899 C895 1.400 . S
C899 C898 1.385 . S
C900 C898 1.478 . S
C900 C902 1.381 . S
C900 C906 1.383 . S
C901 C897 1.495 . S
C901 H907 0.959 . S
C901 H908 0.961 . S
C901 H909 0.960 . S
C902 C900 1.381 . S
C902 C903 1.394 . S
C902 H910 0.930 . S
C903 C902 1.394 . S
C903 C904 1.383 . S
C903 H911 0.929 . S
C904 C903 1.383 . S
C904 C905 1.377 . S
C905 H889 0.930 . S
C905 C904 1.377 . S
C905 C906 1.379 . S
C906 H890 0.931 . S
C906 C900 1.383 . S
C906 C905 1.379 . S
H907 C901 0.959 . S
H908 C901 0.961 . S
H909 C901 0.960 . S
H910 C902 0.930 . S
H911 C903 0.929 . S
H912 C920 0.929 . S
H913 C922 0.930 . S
H914 C924 0.930 . S
H915 C927 0.929 . S
H916 C930 0.930 . S
H917 C932 0.960 . S
H918 C932 0.960 . S
H919 C932 0.960 . S
C920 H912 0.929 . S
C920 C921 1.377 . S
C920 C922 1.384 . S
C921 C920 1.377 . S
C921 C927 1.390 . S
C922 H913 0.930 . S
C922 C920 1.384 . S
C922 C923 1.372 . S
C923 C922 1.372 . S
C923 C924 1.400 . S
C923 C928 1.490 . S
C924 H914 0.930 . S
C924 C923 1.400 . S
C924 C927 1.386 . S
H925 C941 0.930 . S
H926 C942 0.931 . S
C927 H915 0.929 . S
C927 C921 1.390 . S
C927 C924 1.386 . S
C928 C923 1.490 . S
C928 C930 1.395 . S
C928 C931 1.403 . S
H929 C935 0.930 . S
C930 H916 0.930 . S
C930 C928 1.395 . S
C930 C933 1.403 . S
C931 C928 1.403 . S
C931 C932 1.524 . S
C931 C935 1.400 . S
C932 H917 0.960 . S
C932 H918 0.960 . S
C932 H919 0.960 . S
C932 C931 1.524 . S
C933 C930 1.403 . S
C933 C934 1.392 . S
C933 C937 1.495 . S
C934 C933 1.392 . S
C934 C935 1.385 . S
C934 C936 1.478 . S
C935 H929 0.930 . S
C935 C931 1.400 . S
C935 C934 1.385 . S
C936 C934 1.478 . S
C936 C938 1.381 . S
C936 C942 1.383 . S
C937 C933 1.495 . S
C937 H943 0.959 . S
C937 H944 0.961 . S
C937 H945 0.960 . S
C938 C936 1.381 . S
C938 C939 1.394 . S
C938 H946 0.930 . S
C939 C938 1.394 . S
C939 C940 1.383 . S
C939 H947 0.929 . S
C940 C939 1.383 . S
C940 C941 1.377 . S
C941 H925 0.930 . S
C941 C940 1.377 . S
C941 C942 1.379 . S
C942 H926 0.931 . S
C942 C936 1.383 . S
C942 C941 1.379 . S
H943 C937 0.959 . S
H944 C937 0.961 . S
H945 C937 0.960 . S
H946 C938 0.930 . S
H947 C939 0.929 . S
H948 C956 0.929 . S
H949 C958 0.930 . S
H950 C960 0.930 . S
H951 C963 0.929 . S
H952 C966 0.930 . S
H953 C968 0.960 . S
H954 C968 0.960 . S
H955 C968 0.960 . S
C956 H948 0.929 . S
C956 C957 1.377 . S
C956 C958 1.384 . S
C957 C956 1.377 . S
C957 C963 1.390 . S
C958 H949 0.930 . S
C958 C956 1.384 . S
C958 C959 1.372 . S
C959 C958 1.372 . S
C959 C960 1.400 . S
C959 C964 1.490 . S
C960 H950 0.930 . S
C960 C959 1.400 . S
C960 C963 1.386 . S
H961 C977 0.930 . S
H962 C978 0.931 . S
C963 H951 0.929 . S
C963 C957 1.390 . S
C963 C960 1.386 . S
C964 C959 1.490 . S
C964 C966 1.395 . S
C964 C967 1.403 . S
H965 C971 0.930 . S
C966 H952 0.930 . S
C966 C964 1.395 . S
C966 C969 1.403 . S
C967 C964 1.403 . S
C967 C968 1.524 . S
C967 C971 1.400 . S
C968 H953 0.960 . S
C968 H954 0.960 . S
C968 H955 0.960 . S
C968 C967 1.524 . S
C969 C966 1.403 . S
C969 C970 1.392 . S
C969 C973 1.495 . S
C970 C969 1.392 . S
C970 C971 1.385 . S
C970 C972 1.478 . S
C971 H965 0.930 . S
C971 C967 1.400 . S
C971 C970 1.385 . S
C972 C970 1.478 . S
C972 C974 1.381 . S
C972 C978 1.383 . S
C973 C969 1.495 . S
C973 H979 0.959 . S
C973 H980 0.961 . S
C973 H981 0.960 . S
C974 C972 1.381 . S
C974 C975 1.394 . S
C974 H982 0.930 . S
C975 C974 1.394 . S
C975 C976 1.383 . S
C975 H983 0.929 . S
C976 C975 1.383 . S
C976 C977 1.377 . S
C977 H961 0.930 . S
C977 C976 1.377 . S
C977 C978 1.379 . S
C978 H962 0.931 . S
C978 C972 1.383 . S
C978 C977 1.379 . S
H979 C973 0.959 . S
H980 C973 0.961 . S
H981 C973 0.960 . S
H982 C974 0.930 . S
H983 C975 0.929 . S
H984 C992 0.929 . S
H985 C994 0.930 . S
H986 C996 0.930 . S
H987 C999 0.929 . S
H988 C1002 0.930 . S
H989 C1004 0.960 . S
H990 C1004 0.960 . S
H991 C1004 0.960 . S
C992 H984 0.929 . S
C992 C993 1.377 . S
C992 C994 1.384 . S
C993 C992 1.377 . S
C993 C999 1.390 . S
C994 H985 0.930 . S
C994 C992 1.384 . S
C994 C995 1.372 . S
C995 C994 1.372 . S
C995 C996 1.400 . S
C995 C1000 1.490 . S
C996 H986 0.930 . S
C996 C995 1.400 . S
C996 C999 1.386 . S
H997 C1013 0.930 . S
H998 C1014 0.931 . S
C999 H987 0.929 . S
C999 C993 1.390 . S
C999 C996 1.386 . S
C1000 C995 1.490 . S
C1000 C1002 1.395 . S
C1000 C1003 1.403 . S
H1001 C1007 0.930 . S
C1002 H988 0.930 . S
C1002 C1000 1.395 . S
C1002 C1005 1.403 . S
C1003 C1000 1.403 . S
C1003 C1004 1.524 . S
C1003 C1007 1.400 . S
C1004 H989 0.960 . S
C1004 H990 0.960 . S
C1004 H991 0.960 . S
C1004 C1003 1.524 . S
C1005 C1002 1.403 . S
C1005 C1006 1.392 . S
C1005 C1009 1.495 . S
C1006 C1005 1.392 . S
C1006 C1007 1.385 . S
C1006 C1008 1.478 . S
C1007 H1001 0.930 . S
C1007 C1003 1.400 . S
C1007 C1006 1.385 . S
C1008 C1006 1.478 . S
C1008 C1010 1.381 . S
C1008 C1014 1.383 . S
C1009 C1005 1.495 . S
C1009 H1015 0.959 . S
C1009 H1016 0.961 . S
C1009 H1017 0.960 . S
C1010 C1008 1.381 . S
C1010 C1011 1.394 . S
C1010 H1018 0.930 . S
C1011 C1010 1.394 . S
C1011 C1012 1.383 . S
C1011 H1019 0.929 . S
C1012 C1011 1.383 . S
C1012 C1013 1.377 . S
C1013 H997 0.930 . S
C1013 C1012 1.377 . S
C1013 C1014 1.379 . S
C1014 H998 0.931 . S
C1014 C1008 1.383 . S
C1014 C1013 1.379 . S
H1015 C1009 0.959 . S
H1016 C1009 0.961 . S
H1017 C1009 0.960 . S
H1018 C1010 0.930 . S
H1019 C1011 0.929 . S
H1020 C1028 0.929 . S
H1021 C1030 0.930 . S
H1022 C1032 0.930 . S
H1023 C1035 0.929 . S
H1024 C1038 0.930 . S
H1025 C1040 0.960 . S
H1026 C1040 0.960 . S
H1027 C1040 0.960 . S
C1028 H1020 0.929 . S
C1028 C1029 1.377 . S
C1028 C1030 1.384 . S
C1029 C1028 1.377 . S
C1029 C1035 1.390 . S
C1030 H1021 0.930 . S
C1030 C1028 1.384 . S
C1030 C1031 1.372 . S
C1031 C1030 1.372 . S
C1031 C1032 1.400 . S
C1031 C1036 1.490 . S
C1032 H1022 0.930 . S
C1032 C1031 1.400 . S
C1032 C1035 1.386 . S
H1033 C1049 0.930 . S
H1034 C1050 0.931 . S
C1035 H1023 0.929 . S
C1035 C1029 1.390 . S
C1035 C1032 1.386 . S
C1036 C1031 1.490 . S
C1036 C1038 1.395 . S
C1036 C1039 1.403 . S
H1037 C1043 0.930 . S
C1038 H1024 0.930 . S
C1038 C1036 1.395 . S
C1038 C1041 1.403 . S
C1039 C1036 1.403 . S
C1039 C1040 1.524 . S
C1039 C1043 1.400 . S
C1040 H1025 0.960 . S
C1040 H1026 0.960 . S
C1040 H1027 0.960 . S
C1040 C1039 1.524 . S
C1041 C1038 1.403 . S
C1041 C1042 1.392 . S
C1041 C1045 1.495 . S
C1042 C1041 1.392 . S
C1042 C1043 1.385 . S
C1042 C1044 1.478 . S
C1043 H1037 0.930 . S
C1043 C1039 1.400 . S
C1043 C1042 1.385 . S
C1044 C1042 1.478 . S
C1044 C1046 1.381 . S
C1044 C1050 1.383 . S
C1045 C1041 1.495 . S
C1045 H1051 0.959 . S
C1045 H1052 0.961 . S
C1045 H1053 0.960 . S
C1046 C1044 1.381 . S
C1046 C1047 1.394 . S
C1046 H1054 0.930 . S
C1047 C1046 1.394 . S
C1047 C1048 1.383 . S
C1047 H1055 0.929 . S
C1048 C1047 1.383 . S
C1048 C1049 1.377 . S
C1049 H1033 0.930 . S
C1049 C1048 1.377 . S
C1049 C1050 1.379 . S
C1050 H1034 0.931 . S
C1050 C1044 1.383 . S
C1050 C1049 1.379 . S
H1051 C1045 0.959 . S
H1052 C1045 0.961 . S
H1053 C1045 0.960 . S
H1054 C1046 0.930 . S
H1055 C1047 0.929 . S
H1056 C1064 0.929 . S
H1057 C1066 0.930 . S
H1058 C1068 0.930 . S
H1059 C1071 0.929 . S
H1060 C1074 0.930 . S
H1061 C1076 0.960 . S
H1062 C1076 0.960 . S
H1063 C1076 0.960 . S
C1064 H1056 0.929 . S
C1064 C1065 1.377 . S
C1064 C1066 1.384 . S
C1065 C1064 1.377 . S
C1065 C1071 1.390 . S
C1066 H1057 0.930 . S
C1066 C1064 1.384 . S
C1066 C1067 1.372 . S
C1067 C1066 1.372 . S
C1067 C1068 1.400 . S
C1067 C1072 1.490 . S
C1068 H1058 0.930 . S
C1068 C1067 1.400 . S
C1068 C1071 1.386 . S
H1069 C1085 0.930 . S
H1070 C1086 0.931 . S
C1071 H1059 0.929 . S
C1071 C1065 1.390 . S
C1071 C1068 1.386 . S
C1072 C1067 1.490 . S
C1072 C1074 1.395 . S
C1072 C1075 1.403 . S
H1073 C1079 0.930 . S
C1074 H1060 0.930 . S
C1074 C1072 1.395 . S
C1074 C1077 1.403 . S
C1075 C1072 1.403 . S
C1075 C1076 1.524 . S
C1075 C1079 1.400 . S
C1076 H1061 0.960 . S
C1076 H1062 0.960 . S
C1076 H1063 0.960 . S
C1076 C1075 1.524 . S
C1077 C1074 1.403 . S
C1077 C1078 1.392 . S
C1077 C1081 1.495 . S
C1078 C1077 1.392 . S
C1078 C1079 1.385 . S
C1078 C1080 1.478 . S
C1079 H1073 0.930 . S
C1079 C1075 1.400 . S
C1079 C1078 1.385 . S
C1080 C1078 1.478 . S
C1080 C1082 1.381 . S
C1080 C1086 1.383 . S
C1081 C1077 1.495 . S
C1081 H1087 0.959 . S
C1081 H1088 0.961 . S
C1081 H1089 0.960 . S
C1082 C1080 1.381 . S
C1082 C1083 1.394 . S
C1082 H1090 0.930 . S
C1083 C1082 1.394 . S
C1083 C1084 1.383 . S
C1083 H1091 0.929 . S
C1084 C1083 1.383 . S
C1084 C1085 1.377 . S
C1085 H1069 0.930 . S
C1085 C1084 1.377 . S
C1085 C1086 1.379 . S
C1086 H1070 0.931 . S
C1086 C1080 1.383 . S
C1086 C1085 1.379 . S
H1087 C1081 0.959 . S
H1088 C1081 0.961 . S
H1089 C1081 0.960 . S
H1090 C1082 0.930 . S
H1091 C1083 0.929 . S
H1092 C1100 0.929 . S
H1093 C1102 0.930 . S
H1094 C1104 0.930 . S
H1095 C1107 0.929 . S
H1096 C1110 0.930 . S
H1097 C1112 0.960 . S
H1098 C1112 0.960 . S
H1099 C1112 0.960 . S
C1100 H1092 0.929 . S
C1100 C1101 1.377 . S
C1100 C1102 1.384 . S
C1101 C1100 1.377 . S
C1101 C1107 1.390 . S
C1102 H1093 0.930 . S
C1102 C1100 1.384 . S
C1102 C1103 1.372 . S
C1103 C1102 1.372 . S
C1103 C1104 1.400 . S
C1103 C1108 1.490 . S
C1104 H1094 0.930 . S
C1104 C1103 1.400 . S
C1104 C1107 1.386 . S
H1105 C1121 0.930 . S
H1106 C1122 0.931 . S
C1107 H1095 0.929 . S
C1107 C1101 1.390 . S
C1107 C1104 1.386 . S
C1108 C1103 1.490 . S
C1108 C1110 1.395 . S
C1108 C1111 1.403 . S
H1109 C1115 0.930 . S
C1110 H1096 0.930 . S
C1110 C1108 1.395 . S
C1110 C1113 1.403 . S
C1111 C1108 1.403 . S
C1111 C1112 1.524 . S
C1111 C1115 1.400 . S
C1112 H1097 0.960 . S
C1112 H1098 0.960 . S
C1112 H1099 0.960 . S
C1112 C1111 1.524 . S
C1113 C1110 1.403 . S
C1113 C1114 1.392 . S
C1113 C1117 1.495 . S
C1114 C1113 1.392 . S
C1114 C1115 1.385 . S
C1114 C1116 1.478 . S
C1115 H1109 0.930 . S
C1115 C1111 1.400 . S
C1115 C1114 1.385 . S
C1116 C1114 1.478 . S
C1116 C1118 1.381 . S
C1116 C1122 1.383 . S
C1117 C1113 1.495 . S
C1117 H1123 0.959 . S
C1117 H1124 0.961 . S
C1117 H1125 0.960 . S
C1118 C1116 1.381 . S
C1118 C1119 1.394 . S
C1118 H1126 0.930 . S
C1119 C1118 1.394 . S
C1119 C1120 1.383 . S
C1119 H1127 0.929 . S
C1120 C1119 1.383 . S
C1120 C1121 1.377 . S
C1121 H1105 0.930 . S
C1121 C1120 1.377 . S
C1121 C1122 1.379 . S
C1122 H1106 0.931 . S
C1122 C1116 1.383 . S
C1122 C1121 1.379 . S
H1123 C1117 0.959 . S
H1124 C1117 0.961 . S
H1125 C1117 0.960 . S
H1126 C1118 0.930 . S
H1127 C1119 0.929 . S
H1128 C1136 0.929 . S
H1129 C1138 0.930 . S
H1130 C1140 0.930 . S
H1131 C1143 0.929 . S
H1132 C1146 0.930 . S
H1133 C1148 0.960 . S
H1134 C1148 0.960 . S
H1135 C1148 0.960 . S
C1136 H1128 0.929 . S
C1136 C1137 1.377 . S
C1136 C1138 1.384 . S
C1137 C1136 1.377 . S
C1137 C1143 1.390 . S
C1138 H1129 0.930 . S
C1138 C1136 1.384 . S
C1138 C1139 1.372 . S
C1139 C1138 1.372 . S
C1139 C1140 1.400 . S
C1139 C1144 1.490 . S
C1140 H1130 0.930 . S
C1140 C1139 1.400 . S
C1140 C1143 1.386 . S
H1141 C1157 0.930 . S
H1142 C1158 0.931 . S
C1143 H1131 0.929 . S
C1143 C1137 1.390 . S
C1143 C1140 1.386 . S
C1144 C1139 1.490 . S
C1144 C1146 1.395 . S
C1144 C1147 1.403 . S
H1145 C1151 0.930 . S
C1146 H1132 0.930 . S
C1146 C1144 1.395 . S
C1146 C1149 1.403 . S
C1147 C1144 1.403 . S
C1147 C1148 1.524 . S
C1147 C1151 1.400 . S
C1148 H1133 0.960 . S
C1148 H1134 0.960 . S
C1148 H1135 0.960 . S
C1148 C1147 1.524 . S
C1149 C1146 1.403 . S
C1149 C1150 1.392 . S
C1149 C1153 1.495 . S
C1150 C1149 1.392 . S
C1150 C1151 1.385 . S
C1150 C1152 1.478 . S
C1151 H1145 0.930 . S
C1151 C1147 1.400 . S
C1151 C1150 1.385 . S
C1152 C1150 1.478 . S
C1152 C1154 1.381 . S
C1152 C1158 1.383 . S
C1153 C1149 1.495 . S
C1153 H1159 0.959 . S
C1153 H1160 0.961 . S
C1153 H1161 0.960 . S
C1154 C1152 1.381 . S
C1154 C1155 1.394 . S
C1154 H1162 0.930 . S
C1155 C1154 1.394 . S
C1155 C1156 1.383 . S
C1155 H1163 0.929 . S
C1156 C1155 1.383 . S
C1156 C1157 1.377 . S
C1157 H1141 0.930 . S
C1157 C1156 1.377 . S
C1157 C1158 1.379 . S
C1158 H1142 0.931 . S
C1158 C1152 1.383 . S
C1158 C1157 1.379 . S
H1159 C1153 0.959 . S
H1160 C1153 0.961 . S
H1161 C1153 0.960 . S
H1162 C1154 0.930 . S
H1163 C1155 0.929 . S
H1164 C1172 0.929 . S
H1165 C1174 0.930 . S
H1166 C1176 0.930 . S
H1167 C1179 0.929 . S
H1168 C1182 0.930 . S
H1169 C1184 0.960 . S
H1170 C1184 0.960 . S
H1171 C1184 0.960 . S
C1172 H1164 0.929 . S
C1172 C1173 1.377 . S
C1172 C1174 1.384 . S
C1173 C1172 1.377 . S
C1173 C1179 1.390 . S
C1174 H1165 0.930 . S
C1174 C1172 1.384 . S
C1174 C1175 1.372 . S
C1175 C1174 1.372 . S
C1175 C1176 1.400 . S
C1175 C1180 1.490 . S
C1176 H1166 0.930 . S
C1176 C1175 1.400 . S
C1176 C1179 1.386 . S
H1177 C1193 0.930 . S
H1178 C1194 0.931 . S
C1179 H1167 0.929 . S
C1179 C1173 1.390 . S
C1179 C1176 1.386 . S
C1180 C1175 1.490 . S
C1180 C1182 1.395 . S
C1180 C1183 1.403 . S
H1181 C1187 0.930 . S
C1182 H1168 0.930 . S
C1182 C1180 1.395 . S
C1182 C1185 1.403 . S
C1183 C1180 1.403 . S
C1183 C1184 1.524 . S
C1183 C1187 1.400 . S
C1184 H1169 0.960 . S
C1184 H1170 0.960 . S
C1184 H1171 0.960 . S
C1184 C1183 1.524 . S
C1185 C1182 1.403 . S
C1185 C1186 1.392 . S
C1185 C1189 1.495 . S
C1186 C1185 1.392 . S
C1186 C1187 1.385 . S
C1186 C1188 1.478 . S
C1187 H1181 0.930 . S
C1187 C1183 1.400 . S
C1187 C1186 1.385 . S
C1188 C1186 1.478 . S
C1188 C1190 1.381 . S
C1188 C1194 1.383 . S
C1189 C1185 1.495 . S
C1189 H1195 0.959 . S
C1189 H1196 0.961 . S
C1189 H1197 0.960 . S
C1190 C1188 1.381 . S
C1190 C1191 1.394 . S
C1190 H1198 0.930 . S
C1191 C1190 1.394 . S
C1191 C1192 1.383 . S
C1191 H1199 0.929 . S
C1192 C1191 1.383 . S
C1192 C1193 1.377 . S
C1193 H1177 0.930 . S
C1193 C1192 1.377 . S
C1193 C1194 1.379 . S
C1194 H1178 0.931 . S
C1194 C1188 1.383 . S
C1194 C1193 1.379 . S
H1195 C1189 0.959 . S
H1196 C1189 0.961 . S
H1197 C1189 0.960 . S
H1198 C1190 0.930 . S
H1199 C1191 0.929 . S
H1200 C1208 0.929 . S
H1201 C1210 0.930 . S
H1202 C1212 0.930 . S
H1203 C1215 0.929 . S
H1204 C1218 0.930 . S
H1205 C1220 0.960 . S
H1206 C1220 0.960 . S
H1207 C1220 0.960 . S
C1208 H1200 0.929 . S
C1208 C1209 1.377 . S
C1208 C1210 1.384 . S
C1209 C1208 1.377 . S
C1209 C1215 1.390 . S
C1210 H1201 0.930 . S
C1210 C1208 1.384 . S
C1210 C1211 1.372 . S
C1211 C1210 1.372 . S
C1211 C1212 1.400 . S
C1211 C1216 1.490 . S
C1212 H1202 0.930 . S
C1212 C1211 1.400 . S
C1212 C1215 1.386 . S
H1213 C1229 0.930 . S
H1214 C1230 0.931 . S
C1215 H1203 0.929 . S
C1215 C1209 1.390 . S
C1215 C1212 1.386 . S
C1216 C1211 1.490 . S
C1216 C1218 1.395 1_565 S
C1216 C1219 1.403 1_556 S
H1217 C1223 0.929 . S
C1218 H1204 0.930 . S
C1218 C1216 1.395 1_545 S
C1218 C1221 1.403 . S
C1219 C1216 1.403 1_554 S
C1219 C1220 1.524 . S
C1219 C1223 1.410 . S
C1220 H1205 0.960 . S
C1220 H1206 0.960 . S
C1220 H1207 0.960 . S
C1220 C1219 1.524 . S
C1221 C1218 1.403 . S
C1221 C1222 1.392 1_556 S
C1221 C1225 1.495 . S
C1222 C1221 1.392 1_554 S
C1222 C1223 1.377 1_545 S
C1222 C1224 1.478 . S
C1223 H1217 0.929 . S
C1223 C1219 1.410 . S
C1223 C1222 1.377 1_565 S
C1224 C1222 1.478 . S
C1224 C1226 1.381 . S
C1224 C1230 1.383 . S
C1225 C1221 1.495 . S
C1225 H1231 0.959 . S
C1225 H1232 0.961 . S
C1225 H1233 0.960 . S
C1226 C1224 1.381 . S
C1226 C1227 1.394 . S
C1226 H1234 0.930 . S
C1227 C1226 1.394 . S
C1227 C1228 1.383 . S
C1227 H1235 0.929 . S
C1228 C1227 1.383 . S
C1228 C1229 1.377 . S
C1229 H1213 0.930 . S
C1229 C1228 1.377 . S
C1229 C1230 1.379 . S
C1230 H1214 0.931 . S
C1230 C1224 1.383 . S
C1230 C1229 1.379 . S
H1231 C1225 0.959 . S
H1232 C1225 0.961 . S
H1233 C1225 0.960 . S
H1234 C1226 0.930 . S
H1235 C1227 0.929 . S
H1236 C1244 0.929 . S
H1237 C1246 0.930 . S
H1238 C1248 0.930 . S
H1239 C1251 0.929 . S
H1240 C1254 0.930 . S
H1241 C1256 0.960 . S
H1242 C1256 0.960 . S
H1243 C1256 0.960 . S
C1244 H1236 0.929 . S
C1244 C1245 1.377 . S
C1244 C1246 1.384 . S
C1245 C1244 1.377 . S
C1245 C1251 1.390 . S
C1246 H1237 0.930 . S
C1246 C1244 1.384 . S
C1246 C1247 1.372 . S
C1247 C1246 1.372 . S
C1247 C1248 1.400 . S
C1247 C1252 1.490 . S
C1248 H1238 0.930 . S
C1248 C1247 1.400 . S
C1248 C1251 1.386 . S
H1249 C1265 0.930 . S
H1250 C1266 0.931 . S
C1251 H1239 0.929 . S
C1251 C1245 1.390 . S
C1251 C1248 1.386 . S
C1252 C1247 1.490 . S
C1252 C1254 1.395 . S
C1252 C1255 1.403 . S
H1253 C1259 0.930 . S
C1254 H1240 0.930 . S
C1254 C1252 1.395 . S
C1254 C1257 1.403 . S
C1255 C1252 1.403 . S
C1255 C1256 1.524 . S
C1255 C1259 1.400 . S
C1256 H1241 0.960 . S
C1256 H1242 0.960 . S
C1256 H1243 0.960 . S
C1256 C1255 1.524 . S
C1257 C1254 1.403 . S
C1257 C1258 1.392 . S
C1257 C1261 1.495 . S
C1258 C1257 1.392 . S
C1258 C1259 1.385 . S
C1258 C1260 1.478 . S
C1259 H1253 0.930 . S
C1259 C1255 1.400 . S
C1259 C1258 1.385 . S
C1260 C1258 1.478 . S
C1260 C1262 1.381 . S
C1260 C1266 1.383 . S
C1261 C1257 1.495 . S
C1261 H1267 0.959 . S
C1261 H1268 0.961 . S
C1261 H1269 0.960 . S
C1262 C1260 1.381 . S
C1262 C1263 1.394 . S
C1262 H1270 0.930 . S
C1263 C1262 1.394 . S
C1263 C1264 1.383 . S
C1263 H1271 0.929 . S
C1264 C1263 1.383 . S
C1264 C1265 1.377 . S
C1265 H1249 0.930 . S
C1265 C1264 1.377 . S
C1265 C1266 1.379 . S
C1266 H1250 0.931 . S
C1266 C1260 1.383 . S
C1266 C1265 1.379 . S
H1267 C1261 0.959 . S
H1268 C1261 0.961 . S
H1269 C1261 0.960 . S
H1270 C1262 0.930 . S
H1271 C1263 0.929 . S
H1272 C1280 0.929 . S
H1273 C1282 0.930 . S
H1274 C1284 0.930 . S
H1275 C1287 0.929 . S
H1276 C1290 0.946 . S
H1277 C1292 0.960 . S
H1278 C1292 0.960 1_556 S
H1279 C1292 0.960 . S
C1280 H1272 0.929 . S
C1280 C1281 1.377 . S
C1280 C1282 1.384 . S
C1281 C1280 1.377 . S
C1281 C1287 1.390 . S
C1282 H1273 0.930 . S
C1282 C1280 1.384 . S
C1282 C1283 1.372 . S
C1283 C1282 1.372 . S
C1283 C1284 1.400 . S
C1283 C1288 1.490 . S
C1284 H1274 0.930 . S
C1284 C1283 1.400 . S
C1284 C1287 1.386 . S
H1285 C1301 0.930 . S
H1286 C1302 0.931 . S
C1287 H1275 0.929 . S
C1287 C1281 1.390 . S
C1287 C1284 1.386 . S
C1288 C1283 1.490 . S
C1288 C1290 1.402 . S
C1288 C1291 1.409 . S
H1289 C1295 0.930 . S
C1290 H1276 0.946 . S
C1290 C1288 1.402 . S
C1290 C1293 1.381 1_455 S
C1291 C1288 1.409 . S
C1291 C1292 1.523 1_556 S
C1291 C1295 1.394 1_456 S
C1292 H1277 0.960 . S
C1292 H1278 0.960 1_554 S
C1292 H1279 0.960 . S
C1292 C1291 1.523 1_554 S
C1293 C1290 1.381 1_655 S
C1293 C1294 1.392 1_556 S
C1293 C1297 1.495 . S
C1294 C1293 1.392 1_554 S
C1294 C1295 1.385 . S
C1294 C1296 1.478 . S
C1295 H1289 0.930 . S
C1295 C1291 1.394 1_654 S
C1295 C1294 1.385 . S
C1296 C1294 1.478 . S
C1296 C1298 1.381 . S
C1296 C1302 1.383 . S
C1297 C1293 1.495 . S
C1297 H1303 0.959 . S
C1297 H1304 0.961 1_556 S
C1297 H1305 0.960 . S
C1298 C1296 1.381 . S
C1298 C1299 1.394 . S
C1298 H1306 0.930 . S
C1299 C1298 1.394 . S
C1299 C1300 1.383 . S
C1299 H1307 0.929 . S
C1300 C1299 1.383 . S
C1300 C1301 1.377 . S
C1301 H1285 0.930 . S
C1301 C1300 1.377 . S
C1301 C1302 1.379 . S
C1302 H1286 0.931 . S
C1302 C1296 1.383 . S
C1302 C1301 1.379 . S
H1303 C1297 0.959 . S
H1304 C1297 0.961 1_554 S
H1305 C1297 0.960 . S
H1306 C1298 0.930 . S
H1307 C1299 0.929 . S
H1308 C1316 0.929 . S
H1309 C1318 0.930 . S
H1310 C1320 0.930 . S
H1311 C1323 0.929 . S
H1312 C1326 0.930 . S
H1313 C1328 0.960 . S
H1314 C1328 0.960 . S
H1315 C1328 0.960 . S
C1316 H1308 0.929 . S
C1316 C1317 1.377 . S
C1316 C1318 1.384 . S
C1317 C1316 1.377 . S
C1317 C1323 1.390 . S
C1318 H1309 0.930 . S
C1318 C1316 1.384 . S
C1318 C1319 1.372 . S
C1319 C1318 1.372 . S
C1319 C1320 1.400 . S
C1319 C1324 1.490 . S
C1320 H1310 0.930 . S
C1320 C1319 1.400 . S
C1320 C1323 1.386 . S
H1321 C1337 0.930 . S
H1322 C1338 0.931 . S
C1323 H1311 0.929 . S
C1323 C1317 1.390 . S
C1323 C1320 1.386 . S
C1324 C1319 1.490 . S
C1324 C1326 1.395 1_545 S
C1324 C1327 1.403 . S
H1325 C1331 0.929 . S
C1326 H1312 0.930 . S
C1326 C1324 1.395 1_565 S
C1326 C1329 1.403 . S
C1327 C1324 1.403 . S
C1327 C1328 1.524 . S
C1327 C1331 1.429 . S
C1328 H1313 0.960 . S
C1328 H1314 0.960 . S
C1328 H1315 0.960 . S
C1328 C1327 1.524 . S
C1329 C1326 1.403 . S
C1329 C1330 1.392 . S
C1329 C1333 1.495 . S
C1330 C1329 1.392 . S
C1330 C1331 1.358 1_565 S
C1330 C1332 1.478 . S
C1331 H1325 0.929 . S
C1331 C1327 1.429 . S
C1331 C1330 1.358 1_545 S
C1332 C1330 1.478 . S
C1332 C1334 1.381 . S
C1332 C1338 1.383 . S
C1333 C1329 1.495 . S
C1333 H1339 0.959 . S
C1333 H1340 0.961 . S
C1333 H1341 0.960 . S
C1334 C1332 1.381 . S
C1334 C1335 1.394 . S
C1334 H1342 0.930 . S
C1335 C1334 1.394 . S
C1335 C1336 1.383 . S
C1335 H1343 0.929 . S
C1336 C1335 1.383 . S
C1336 C1337 1.377 . S
C1337 H1321 0.930 . S
C1337 C1336 1.377 . S
C1337 C1338 1.379 . S
C1338 H1322 0.931 . S
C1338 C1332 1.383 . S
C1338 C1337 1.379 . S
H1339 C1333 0.959 . S
H1340 C1333 0.961 . S
H1341 C1333 0.960 . S
H1342 C1334 0.930 . S
H1343 C1335 0.929 . S
H1344 C1352 0.929 . S
H1345 C1354 0.930 . S
H1346 C1356 0.930 . S
H1347 C1359 0.929 . S
H1348 C1362 0.930 . S
H1349 C1364 0.960 . S
H1350 C1364 0.960 . S
H1351 C1364 0.960 1_554 S
C1352 H1344 0.929 . S
C1352 C1353 1.377 . S
C1352 C1354 1.384 . S
C1353 C1352 1.377 . S
C1353 C1359 1.390 . S
C1354 H1345 0.930 . S
C1354 C1352 1.384 . S
C1354 C1355 1.372 . S
C1355 C1354 1.372 . S
C1355 C1356 1.400 . S
C1355 C1360 1.490 . S
C1356 H1346 0.930 . S
C1356 C1355 1.400 . S
C1356 C1359 1.386 . S
H1357 C1373 0.930 . S
H1358 C1374 0.931 . S
C1359 H1347 0.929 . S
C1359 C1353 1.390 . S
C1359 C1356 1.386 . S
C1360 C1355 1.490 . S
C1360 C1362 1.395 . S
C1360 C1363 1.403 1_554 S
H1361 C1367 0.930 . S
C1362 H1348 0.930 . S
C1362 C1360 1.395 . S
C1362 C1365 1.403 . S
C1363 C1360 1.403 1_556 S
C1363 C1364 1.524 . S
C1363 C1367 1.400 . S
C1364 H1349 0.960 . S
C1364 H1350 0.960 . S
C1364 H1351 0.960 1_556 S
C1364 C1363 1.524 . S
C1365 C1362 1.403 . S
C1365 C1366 1.392 1_554 S
C1365 C1369 1.495 . S
C1366 C1365 1.392 1_556 S
C1366 C1367 1.385 . S
C1366 C1368 1.478 . S
C1367 H1361 0.930 . S
C1367 C1363 1.400 . S
C1367 C1366 1.385 . S
C1368 C1366 1.478 . S
C1368 C1370 1.381 . S
C1368 C1374 1.383 . S
C1369 C1365 1.495 . S
C1369 H1375 0.959 . S
C1369 H1376 0.961 . S
C1369 H1377 0.960 1_554 S
C1370 C1368 1.381 . S
C1370 C1371 1.394 . S
C1370 H1378 0.930 . S
C1371 C1370 1.394 . S
C1371 C1372 1.383 . S
C1371 H1379 0.929 . S
C1372 C1371 1.383 . S
C1372 C1373 1.377 . S
C1373 H1357 0.930 . S
C1373 C1372 1.377 . S
C1373 C1374 1.379 . S
C1374 H1358 0.931 . S
C1374 C1368 1.383 . S
C1374 C1373 1.379 . S
H1375 C1369 0.959 . S
H1376 C1369 0.961 . S
H1377 C1369 0.960 1_556 S
H1378 C1370 0.930 . S
H1379 C1371 0.929 . S
H1380 C1388 0.929 . S
H1381 C1390 0.930 . S
H1382 C1392 0.930 . S
H1383 C1395 0.929 . S
H1384 C1398 0.930 . S
H1385 C1400 0.908 1_655 S
H1386 C1400 0.984 . S
H1387 C1400 0.966 . S
C1388 H1380 0.929 . S
C1388 C1389 1.377 . S
C1388 C1390 1.384 . S
C1389 C1388 1.377 . S
C1389 C1395 1.390 . S
C1390 H1381 0.930 . S
C1390 C1388 1.384 . S
C1390 C1391 1.372 . S
C1391 C1390 1.372 . S
C1391 C1392 1.400 . S
C1391 C1396 1.490 . S
C1392 H1382 0.930 . S
C1392 C1391 1.400 . S
C1392 C1395 1.386 . S
H1393 C1409 0.930 . S
H1394 C1410 0.931 . S
C1395 H1383 0.929 . S
C1395 C1389 1.390 . S
C1395 C1392 1.386 . S
C1396 C1391 1.490 . S
C1396 C1398 1.395 . S
C1396 C1399 1.403 . S
H1397 C1403 0.930 . S
C1398 H1384 0.930 . S
C1398 C1396 1.395 . S
C1398 C1401 1.403 . S
C1399 C1396 1.403 . S
C1399 C1400 1.546 . S
C1399 C1403 1.400 1_455 S
C1400 H1385 0.908 1_455 S
C1400 H1386 0.984 . S
C1400 H1387 0.966 . S
C1400 C1399 1.546 . S
C1401 C1398 1.403 . S
C1401 C1402 1.392 1_455 S
C1401 C1405 1.495 . S
C1402 C1401 1.392 1_655 S
C1402 C1403 1.385 . S
C1402 C1404 1.478 . S
C1403 H1397 0.930 . S
C1403 C1399 1.400 1_655 S
C1403 C1402 1.385 . S
C1404 C1402 1.478 . S
C1404 C1406 1.381 . S
C1404 C1410 1.383 . S
C1405 C1401 1.495 . S
C1405 H1411 0.959 . S
C1405 H1412 0.961 1_455 S
C1405 H1413 0.960 . S
C1406 C1404 1.381 . S
C1406 C1407 1.394 . S
C1406 H1414 0.930 . S
C1407 C1406 1.394 . S
C1407 C1408 1.383 . S
C1407 H1415 0.929 . S
C1408 C1407 1.383 . S
C1408 C1409 1.377 . S
C1409 H1393 0.930 . S
C1409 C1408 1.377 . S
C1409 C1410 1.379 . S
C1410 H1394 0.931 . S
C1410 C1404 1.383 . S
C1410 C1409 1.379 . S
H1411 C1405 0.959 . S
H1412 C1405 0.961 1_655 S
H1413 C1405 0.960 . S
H1414 C1406 0.930 . S
H1415 C1407 0.929 . S
H1416 C1424 0.929 . S
H1417 C1426 0.930 . S
H1418 C1428 0.930 . S
H1419 C1431 0.929 . S
H1420 C1434 0.921 . S
H1421 C1436 0.960 . S
H1422 C1436 0.960 . S
H1423 C1436 0.960 1_556 S
C1424 H1416 0.929 . S
C1424 C1425 1.377 . S
C1424 C1426 1.384 . S
C1425 C1424 1.377 . S
C1425 C1431 1.390 . S
C1426 H1417 0.930 . S
C1426 C1424 1.384 . S
C1426 C1427 1.372 . S
C1427 C1426 1.372 . S
C1427 C1428 1.400 . S
C1427 C1432 1.490 . S
C1428 H1418 0.930 . S
C1428 C1427 1.400 . S
C1428 C1431 1.386 . S
H1429 C1445 0.930 . S
H1430 C1446 0.931 . S
C1431 H1419 0.929 . S
C1431 C1425 1.390 . S
C1431 C1428 1.386 . S
C1432 C1427 1.490 . S
C1432 C1434 1.382 1_565 S
C1432 C1435 1.403 1_556 S
H1433 C1439 0.930 . S
C1434 H1420 0.921 . S
C1434 C1432 1.382 1_545 S
C1434 C1437 1.428 . S
C1435 C1432 1.403 1_554 S
C1435 C1436 1.524 . S
C1435 C1439 1.400 1_565 S
C1436 H1421 0.960 . S
C1436 H1422 0.960 . S
C1436 H1423 0.960 1_554 S
C1436 C1435 1.524 . S
C1437 C1434 1.428 . S
C1437 C1438 1.392 1_556 S
C1437 C1441 1.495 . S
C1438 C1437 1.392 1_554 S
C1438 C1439 1.385 . S
C1438 C1440 1.478 . S
C1439 H1433 0.930 . S
C1439 C1435 1.400 1_545 S
C1439 C1438 1.385 . S
C1440 C1438 1.478 . S
C1440 C1442 1.381 . S
C1440 C1446 1.383 . S
C1441 C1437 1.495 . S
C1441 H1447 0.959 . S
C1441 H1448 0.961 . S
C1441 H1449 0.960 1_556 S
C1442 C1440 1.381 . S
C1442 C1443 1.394 . S
C1442 H1450 0.930 . S
C1443 C1442 1.394 . S
C1443 C1444 1.383 . S
C1443 H1451 0.929 . S
C1444 C1443 1.383 . S
C1444 C1445 1.377 . S
C1445 H1429 0.930 . S
C1445 C1444 1.377 . S
C1445 C1446 1.379 . S
C1446 H1430 0.931 . S
C1446 C1440 1.383 . S
C1446 C1445 1.379 . S
H1447 C1441 0.959 . S
H1448 C1441 0.961 . S
H1449 C1441 0.960 1_554 S
H1450 C1442 0.930 . S
H1451 C1443 0.929 . S
H1452 C1460 0.929 . S
H1453 C1462 0.930 . S
H1454 C1464 0.930 . S
H1455 C1467 0.929 . S
H1456 C1470 0.930 . S
H1457 C1472 0.960 . S
H1458 C1472 0.960 . S
H1459 C1472 0.960 . S
C1460 H1452 0.929 . S
C1460 C1461 1.377 . S
C1460 C1462 1.384 . S
C1461 C1460 1.377 . S
C1461 C1467 1.390 . S
C1462 H1453 0.930 . S
C1462 C1460 1.384 . S
C1462 C1463 1.372 . S
C1463 C1462 1.372 . S
C1463 C1464 1.400 . S
C1463 C1468 1.490 . S
C1464 H1454 0.930 . S
C1464 C1463 1.400 . S
C1464 C1467 1.386 . S
H1465 C1481 0.930 . S
H1466 C1482 0.931 . S
C1467 H1455 0.929 . S
C1467 C1461 1.390 . S
C1467 C1464 1.386 . S
C1468 C1463 1.490 . S
C1468 C1470 1.395 . S
C1468 C1471 1.403 . S
H1469 C1475 0.930 . S
C1470 H1456 0.930 . S
C1470 C1468 1.395 . S
C1470 C1473 1.403 . S
C1471 C1468 1.403 . S
C1471 C1472 1.524 . S
C1471 C1475 1.400 . S
C1472 H1457 0.960 . S
C1472 H1458 0.960 . S
C1472 H1459 0.960 . S
C1472 C1471 1.524 . S
C1473 C1470 1.403 . S
C1473 C1474 1.392 . S
C1473 C1477 1.495 . S
C1474 C1473 1.392 . S
C1474 C1475 1.385 . S
C1474 C1476 1.478 . S
C1475 H1469 0.930 . S
C1475 C1471 1.400 . S
C1475 C1474 1.385 . S
C1476 C1474 1.478 . S
C1476 C1478 1.381 . S
C1476 C1482 1.383 . S
C1477 C1473 1.495 . S
C1477 H1483 0.959 . S
C1477 H1484 0.961 . S
C1477 H1485 0.960 . S
C1478 C1476 1.381 . S
C1478 C1479 1.394 . S
C1478 H1486 0.930 . S
C1479 C1478 1.394 . S
C1479 C1480 1.383 . S
C1479 H1487 0.929 . S
C1480 C1479 1.383 . S
C1480 C1481 1.377 . S
C1481 H1465 0.930 . S
C1481 C1480 1.377 . S
C1481 C1482 1.379 . S
C1482 H1466 0.931 . S
C1482 C1476 1.383 . S
C1482 C1481 1.379 . S
H1483 C1477 0.959 . S
H1484 C1477 0.961 . S
H1485 C1477 0.960 . S
H1486 C1478 0.930 . S
H1487 C1479 0.929 . S
H1488 C1496 0.929 . S
H1489 C1498 0.930 . S
H1490 C1500 0.930 . S
H1491 C1503 0.929 . S
H1492 C1506 0.930 . S
H1493 C1508 0.960 . S
H1494 C1508 0.960 . S
H1495 C1508 0.960 . S
C1496 H1488 0.929 . S
C1496 C1497 1.377 . S
C1496 C1498 1.384 . S
C1497 C1496 1.377 . S
C1497 C1503 1.390 . S
C1498 H1489 0.930 . S
C1498 C1496 1.384 . S
C1498 C1499 1.372 . S
C1499 C1498 1.372 . S
C1499 C1500 1.400 . S
C1499 C1504 1.490 . S
C1500 H1490 0.930 . S
C1500 C1499 1.400 . S
C1500 C1503 1.386 . S
H1501 C1517 0.930 . S
H1502 C1518 0.931 . S
C1503 H1491 0.929 . S
C1503 C1497 1.390 . S
C1503 C1500 1.386 . S
C1504 C1499 1.490 . S
C1504 C1506 1.395 1_554 S
C1504 C1507 1.403 1_655 S
H1505 C1511 0.930 . S
C1506 H1492 0.930 . S
C1506 C1504 1.395 1_556 S
C1506 C1509 1.403 . S
C1507 C1504 1.403 1_455 S
C1507 C1508 1.524 . S
C1507 C1511 1.400 . S
C1508 H1493 0.960 . S
C1508 H1494 0.960 . S
C1508 H1495 0.960 . S
C1508 C1507 1.524 . S
C1509 C1506 1.403 . S
C1509 C1510 1.392 1_655 S
C1509 C1513 1.495 . S
C1510 C1509 1.392 1_455 S
C1510 C1511 1.385 1_556 S
C1510 C1512 1.478 . S
C1511 H1505 0.930 . S
C1511 C1507 1.400 . S
C1511 C1510 1.385 1_554 S
C1512 C1510 1.478 . S
C1512 C1514 1.381 . S
C1512 C1518 1.383 . S
C1513 C1509 1.495 . S
C1513 H1519 0.959 . S
C1513 H1520 0.961 . S
C1513 H1521 0.960 . S
C1514 C1512 1.381 . S
C1514 C1515 1.394 . S
C1514 H1522 0.930 . S
C1515 C1514 1.394 . S
C1515 C1516 1.383 . S
C1515 H1523 0.929 . S
C1516 C1515 1.383 . S
C1516 C1517 1.377 . S
C1517 H1501 0.930 . S
C1517 C1516 1.377 . S
C1517 C1518 1.379 . S
C1518 H1502 0.931 . S
C1518 C1512 1.383 . S
C1518 C1517 1.379 . S
H1519 C1513 0.959 . S
H1520 C1513 0.961 . S
H1521 C1513 0.960 . S
H1522 C1514 0.930 . S
H1523 C1515 0.929 . S
H1524 C1532 0.929 . S
H1525 C1534 0.930 . S
H1526 C1536 0.930 . S
H1527 C1539 0.929 . S
H1528 C1542 0.930 . S
H1529 C1544 0.960 . S
H1530 C1544 0.960 . S
H1531 C1544 0.960 . S
C1532 H1524 0.929 . S
C1532 C1533 1.377 . S
C1532 C1534 1.384 . S
C1533 C1532 1.377 . S
C1533 C1539 1.390 . S
C1534 H1525 0.930 . S
C1534 C1532 1.384 . S
C1534 C1535 1.372 . S
C1535 C1534 1.372 . S
C1535 C1536 1.400 . S
C1535 C1540 1.490 . S
C1536 H1526 0.930 . S
C1536 C1535 1.400 . S
C1536 C1539 1.386 . S
H1537 C1553 0.930 . S
H1538 C1554 0.931 . S
C1539 H1527 0.929 . S
C1539 C1533 1.390 . S
C1539 C1536 1.386 . S
C1540 C1535 1.490 . S
C1540 C1542 1.395 . S
C1540 C1543 1.403 . S
H1541 C1547 0.930 . S
C1542 H1528 0.930 . S
C1542 C1540 1.395 . S
C1542 C1545 1.403 1_565 S
C1543 C1540 1.403 . S
C1543 C1544 1.524 . S
C1543 C1547 1.400 1_565 S
C1544 H1529 0.960 . S
C1544 H1530 0.960 . S
C1544 H1531 0.960 . S
C1544 C1543 1.524 . S
C1545 C1542 1.403 1_545 S
C1545 C1546 1.392 . S
C1545 C1549 1.495 . S
C1546 C1545 1.392 . S
C1546 C1547 1.385 . S
C1546 C1548 1.478 . S
C1547 H1541 0.930 . S
C1547 C1543 1.400 1_545 S
C1547 C1546 1.385 . S
C1548 C1546 1.478 . S
C1548 C1550 1.381 . S
C1548 C1554 1.383 . S
C1549 C1545 1.495 . S
C1549 H1555 0.965 . S
C1549 H1556 0.961 . S
C1549 H1557 0.960 . S
C1550 C1548 1.381 . S
C1550 C1551 1.394 . S
C1550 H1558 0.930 . S
C1551 C1550 1.394 . S
C1551 C1552 1.383 . S
C1551 H1559 0.929 . S
C1552 C1551 1.383 . S
C1552 C1553 1.377 . S
C1553 H1537 0.930 . S
C1553 C1552 1.377 . S
C1553 C1554 1.379 . S
C1554 H1538 0.931 . S
C1554 C1548 1.383 . S
C1554 C1553 1.379 . S
H1555 C1549 0.965 . S
H1556 C1549 0.961 . S
H1557 C1549 0.960 . S
H1558 C1550 0.930 . S
H1559 C1551 0.929 . S
H1560 C1568 0.929 . S
H1561 C1570 0.930 . S
H1562 C1572 0.930 . S
H1563 C1575 0.929 . S
H1564 C1578 0.931 . S
H1565 C1580 0.960 . S
H1566 C1580 0.960 . S
H1567 C1580 0.960 . S
C1568 H1560 0.929 . S
C1568 C1569 1.377 . S
C1568 C1570 1.384 . S
C1569 C1568 1.377 . S
C1569 C1575 1.390 . S
C1570 H1561 0.930 . S
C1570 C1568 1.384 . S
C1570 C1571 1.372 . S
C1571 C1570 1.372 . S
C1571 C1572 1.400 . S
C1571 C1576 1.490 . S
C1572 H1562 0.930 . S
C1572 C1571 1.400 . S
C1572 C1575 1.386 . S
H1573 C1589 0.930 . S
H1574 C1590 0.931 . S
C1575 H1563 0.929 . S
C1575 C1569 1.390 . S
C1575 C1572 1.386 . S
C1576 C1571 1.490 . S
C1576 C1578 1.395 1_554 S
C1576 C1579 1.403 . S
H1577 C1583 0.930 . S
C1578 H1564 0.931 . S
C1578 C1576 1.395 1_556 S
C1578 C1581 1.403 . S
C1579 C1576 1.403 . S
C1579 C1580 1.524 . S
C1579 C1583 1.400 1_554 S
C1580 H1565 0.960 . S
C1580 H1566 0.960 . S
C1580 H1567 0.960 . S
C1580 C1579 1.524 . S
C1581 C1578 1.403 . S
C1581 C1582 1.392 . S
C1581 C1585 1.495 . S
C1582 C1581 1.392 . S
C1582 C1583 1.385 . S
C1582 C1584 1.478 . S
C1583 H1577 0.930 . S
C1583 C1579 1.400 1_556 S
C1583 C1582 1.385 . S
C1584 C1582 1.478 . S
C1584 C1586 1.381 . S
C1584 C1590 1.383 . S
C1585 C1581 1.495 . S
C1585 H1591 0.959 . S
C1585 H1592 0.961 . S
C1585 H1593 0.960 . S
C1586 C1584 1.381 . S
C1586 C1587 1.394 . S
C1586 H1594 0.930 . S
C1587 C1586 1.394 . S
C1587 C1588 1.383 . S
C1587 H1595 0.929 . S
C1588 C1587 1.383 . S
C1588 C1589 1.377 . S
C1589 H1573 0.930 . S
C1589 C1588 1.377 . S
C1589 C1590 1.379 . S
C1590 H1574 0.931 . S
C1590 C1584 1.383 . S
C1590 C1589 1.379 . S
H1591 C1585 0.959 . S
H1592 C1585 0.961 . S
H1593 C1585 0.960 . S
H1594 C1586 0.930 . S
H1595 C1587 0.929 . S
H1596 C1604 0.929 . S
H1597 C1606 0.930 . S
H1598 C1608 0.930 . S
H1599 C1611 0.929 . S
H1600 C1614 0.930 . S
H1601 C1616 0.960 1_655 S
H1602 C1616 0.960 . S
H1603 C1616 0.960 . S
C1604 H1596 0.929 . S
C1604 C1605 1.377 . S
C1604 C1606 1.384 . S
C1605 C1604 1.377 . S
C1605 C1611 1.390 . S
C1606 H1597 0.930 . S
C1606 C1604 1.384 . S
C1606 C1607 1.372 . S
C1607 C1606 1.372 . S
C1607 C1608 1.400 . S
C1607 C1612 1.490 . S
C1608 H1598 0.930 . S
C1608 C1607 1.400 . S
C1608 C1611 1.386 . S
H1609 C1625 0.930 . S
H1610 C1626 0.931 . S
C1611 H1599 0.929 . S
C1611 C1605 1.390 . S
C1611 C1608 1.386 . S
C1612 C1607 1.490 . S
C1612 C1614 1.395 . S
C1612 C1615 1.403 . S
H1613 C1619 0.930 . S
C1614 H1600 0.930 . S
C1614 C1612 1.395 . S
C1614 C1617 1.388 1_455 S
C1615 C1612 1.403 . S
C1615 C1616 1.524 . S
C1615 C1619 1.400 1_455 S
C1616 H1601 0.960 1_455 S
C1616 H1602 0.960 . S
C1616 H1603 0.960 . S
C1616 C1615 1.524 . S
C1617 C1614 1.388 1_655 S
C1617 C1618 1.417 . S
C1617 C1621 1.486 . S
C1618 C1617 1.417 . S
C1618 C1619 1.385 . S
C1618 C1620 1.478 . S
C1619 H1613 0.930 . S
C1619 C1615 1.400 1_655 S
C1619 C1618 1.385 . S
C1620 C1618 1.478 . S
C1620 C1622 1.381 . S
C1620 C1626 1.383 . S
C1621 C1617 1.486 . S
C1621 H1627 0.959 1_655 S
C1621 H1628 0.961 . S
C1621 H1629 0.958 . S
C1622 C1620 1.381 . S
C1622 C1623 1.394 . S
C1622 H1630 0.930 . S
C1623 C1622 1.394 . S
C1623 C1624 1.383 . S
C1623 H1631 0.929 . S
C1624 C1623 1.383 . S
C1624 C1625 1.377 . S
C1625 H1609 0.930 . S
C1625 C1624 1.377 . S
C1625 C1626 1.379 . S
C1626 H1610 0.931 . S
C1626 C1620 1.383 . S
C1626 C1625 1.379 . S
H1627 C1621 0.959 1_455 S
H1628 C1621 0.961 . S
H1629 C1621 0.958 . S
H1630 C1622 0.930 . S
H1631 C1623 0.929 . S
H1632 C1640 0.929 . S
H1633 C1642 0.930 . S
H1634 C1644 0.930 . S
H1635 C1647 0.929 . S
H1636 C1650 0.930 . S
H1637 C1652 0.960 . S
H1638 C1652 0.960 . S
H1639 C1652 0.960 . S
C1640 H1632 0.929 . S
C1640 C1641 1.377 . S
C1640 C1642 1.384 . S
C1641 C1640 1.377 . S
C1641 C1647 1.390 . S
C1642 H1633 0.930 . S
C1642 C1640 1.384 . S
C1642 C1643 1.372 . S
C1643 C1642 1.372 . S
C1643 C1644 1.400 . S
C1643 C1648 1.490 . S
C1644 H1634 0.930 . S
C1644 C1643 1.400 . S
C1644 C1647 1.386 . S
H1645 C1661 0.930 . S
H1646 C1662 0.931 . S
C1647 H1635 0.929 . S
C1647 C1641 1.390 . S
C1647 C1644 1.386 . S
C1648 C1643 1.490 . S
C1648 C1650 1.395 . S
C1648 C1651 1.403 . S
H1649 C1655 0.930 . S
C1650 H1636 0.930 . S
C1650 C1648 1.395 . S
C1650 C1653 1.403 . S
C1651 C1648 1.403 . S
C1651 C1652 1.524 . S
C1651 C1655 1.400 . S
C1652 H1637 0.960 . S
C1652 H1638 0.960 . S
C1652 H1639 0.960 . S
C1652 C1651 1.524 . S
C1653 C1650 1.403 . S
C1653 C1654 1.392 . S
C1653 C1657 1.495 . S
C1654 C1653 1.392 . S
C1654 C1655 1.385 . S
C1654 C1656 1.478 . S
C1655 H1649 0.930 . S
C1655 C1651 1.400 . S
C1655 C1654 1.385 . S
C1656 C1654 1.478 . S
C1656 C1658 1.381 . S
C1656 C1662 1.383 . S
C1657 C1653 1.495 . S
C1657 H1663 0.959 . S
C1657 H1664 0.961 . S
C1657 H1665 0.960 . S
C1658 C1656 1.381 . S
C1658 C1659 1.394 . S
C1658 H1666 0.930 . S
C1659 C1658 1.394 . S
C1659 C1660 1.383 . S
C1659 H1667 0.929 . S
C1660 C1659 1.383 . S
C1660 C1661 1.377 . S
C1661 H1645 0.930 . S
C1661 C1660 1.377 . S
C1661 C1662 1.379 . S
C1662 H1646 0.931 . S
C1662 C1656 1.383 . S
C1662 C1661 1.379 . S
H1663 C1657 0.959 . S
H1664 C1657 0.961 . S
H1665 C1657 0.960 . S
H1666 C1658 0.930 . S
H1667 C1659 0.929 . S
H1668 C1676 0.929 . S
H1669 C1678 0.930 . S
H1670 C1680 0.930 . S
H1671 C1683 0.929 . S
H1672 C1686 0.930 . S
H1673 C1688 0.960 . S
H1674 C1688 0.960 . S
H1675 C1688 0.960 . S
C1676 H1668 0.929 . S
C1676 C1677 1.377 . S
C1676 C1678 1.384 . S
C1677 C1676 1.377 . S
C1677 C1683 1.390 . S
C1678 H1669 0.930 . S
C1678 C1676 1.384 . S
C1678 C1679 1.372 . S
C1679 C1678 1.372 . S
C1679 C1680 1.400 . S
C1679 C1684 1.490 . S
C1680 H1670 0.930 . S
C1680 C1679 1.400 . S
C1680 C1683 1.386 . S
H1681 C1697 0.930 . S
H1682 C1698 0.931 . S
C1683 H1671 0.929 . S
C1683 C1677 1.390 . S
C1683 C1680 1.386 . S
C1684 C1679 1.490 . S
C1684 C1686 1.395 . S
C1684 C1687 1.403 . S
H1685 C1691 0.930 . S
C1686 H1672 0.930 . S
C1686 C1684 1.395 . S
C1686 C1689 1.403 . S
C1687 C1684 1.403 . S
C1687 C1688 1.524 . S
C1687 C1691 1.400 . S
C1688 H1673 0.960 . S
C1688 H1674 0.960 . S
C1688 H1675 0.960 . S
C1688 C1687 1.524 . S
C1689 C1686 1.403 . S
C1689 C1690 1.392 . S
C1689 C1693 1.495 . S
C1690 C1689 1.392 . S
C1690 C1691 1.385 . S
C1690 C1692 1.478 . S
C1691 H1685 0.930 . S
C1691 C1687 1.400 . S
C1691 C1690 1.385 . S
C1692 C1690 1.478 . S
C1692 C1694 1.381 . S
C1692 C1698 1.383 . S
C1693 C1689 1.495 . S
C1693 H1699 0.959 . S
C1693 H1700 0.961 . S
C1693 H1701 0.960 . S
C1694 C1692 1.381 . S
C1694 C1695 1.394 . S
C1694 H1702 0.930 . S
C1695 C1694 1.394 . S
C1695 C1696 1.383 . S
C1695 H1703 0.929 . S
C1696 C1695 1.383 . S
C1696 C1697 1.377 . S
C1697 H1681 0.930 . S
C1697 C1696 1.377 . S
C1697 C1698 1.379 . S
C1698 H1682 0.931 . S
C1698 C1692 1.383 . S
C1698 C1697 1.379 . S
H1699 C1693 0.959 . S
H1700 C1693 0.961 . S
H1701 C1693 0.960 . S
H1702 C1694 0.930 . S
H1703 C1695 0.929 . S
H1704 C1712 0.929 . S
H1705 C1714 0.930 . S
H1706 C1716 0.930 . S
H1707 C1719 0.929 . S
H1708 C1722 0.930 . S
H1709 C1724 0.960 . S
H1710 C1724 0.960 . S
H1711 C1724 0.960 . S
C1712 H1704 0.929 . S
C1712 C1713 1.377 . S
C1712 C1714 1.384 . S
C1713 C1712 1.377 . S
C1713 C1719 1.390 . S
C1714 H1705 0.930 . S
C1714 C1712 1.384 . S
C1714 C1715 1.372 . S
C1715 C1714 1.372 . S
C1715 C1716 1.400 . S
C1715 C1720 1.490 . S
C1716 H1706 0.930 . S
C1716 C1715 1.400 . S
C1716 C1719 1.386 . S
H1717 C1733 0.930 . S
H1718 C1734 0.931 . S
C1719 H1707 0.929 . S
C1719 C1713 1.390 . S
C1719 C1716 1.386 . S
C1720 C1715 1.490 . S
C1720 C1722 1.395 . S
C1720 C1723 1.403 . S
H1721 C1727 0.930 . S
C1722 H1708 0.930 . S
C1722 C1720 1.395 . S
C1722 C1725 1.403 . S
C1723 C1720 1.403 . S
C1723 C1724 1.524 . S
C1723 C1727 1.400 . S
C1724 H1709 0.960 . S
C1724 H1710 0.960 . S
C1724 H1711 0.960 . S
C1724 C1723 1.524 . S
C1725 C1722 1.403 . S
C1725 C1726 1.392 . S
C1725 C1729 1.495 . S
C1726 C1725 1.392 . S
C1726 C1727 1.385 . S
C1726 C1728 1.478 . S
C1727 H1721 0.930 . S
C1727 C1723 1.400 . S
C1727 C1726 1.385 . S
C1728 C1726 1.478 . S
C1728 C1730 1.381 . S
C1728 C1734 1.383 . S
C1729 C1725 1.495 . S
C1729 H1735 0.959 . S
C1729 H1736 0.961 . S
C1729 H1737 0.960 . S
C1730 C1728 1.381 . S
C1730 C1731 1.394 . S
C1730 H1738 0.930 . S
C1731 C1730 1.394 . S
C1731 C1732 1.383 . S
C1731 H1739 0.929 . S
C1732 C1731 1.383 . S
C1732 C1733 1.377 . S
C1733 H1717 0.930 . S
C1733 C1732 1.377 . S
C1733 C1734 1.379 . S
C1734 H1718 0.931 . S
C1734 C1728 1.383 . S
C1734 C1733 1.379 . S
H1735 C1729 0.959 . S
H1736 C1729 0.961 . S
H1737 C1729 0.960 . S
H1738 C1730 0.930 . S
H1739 C1731 0.929 . S
H1740 C1748 0.929 . S
H1741 C1750 0.930 . S
H1742 C1752 0.930 . S
H1743 C1755 0.929 . S
H1744 C1758 0.930 . S
H1745 C1760 0.960 . S
H1746 C1760 0.960 . S
H1747 C1760 0.960 . S
C1748 H1740 0.929 . S
C1748 C1749 1.377 . S
C1748 C1750 1.384 . S
C1749 C1748 1.377 . S
C1749 C1755 1.390 . S
C1750 H1741 0.930 . S
C1750 C1748 1.384 . S
C1750 C1751 1.372 . S
C1751 C1750 1.372 . S
C1751 C1752 1.400 . S
C1751 C1756 1.490 . S
C1752 H1742 0.930 . S
C1752 C1751 1.400 . S
C1752 C1755 1.386 . S
H1753 C1769 0.930 . S
H1754 C1770 0.931 . S
C1755 H1743 0.929 . S
C1755 C1749 1.390 . S
C1755 C1752 1.386 . S
C1756 C1751 1.490 . S
C1756 C1758 1.395 . S
C1756 C1759 1.403 . S
H1757 C1763 0.930 . S
C1758 H1744 0.930 . S
C1758 C1756 1.395 . S
C1758 C1761 1.403 . S
C1759 C1756 1.403 . S
C1759 C1760 1.524 . S
C1759 C1763 1.400 . S
C1760 H1745 0.960 . S
C1760 H1746 0.960 . S
C1760 H1747 0.960 . S
C1760 C1759 1.524 . S
C1761 C1758 1.403 . S
C1761 C1762 1.392 . S
C1761 C1765 1.495 . S
C1762 C1761 1.392 . S
C1762 C1763 1.385 . S
C1762 C1764 1.478 . S
C1763 H1757 0.930 . S
C1763 C1759 1.400 . S
C1763 C1762 1.385 . S
C1764 C1762 1.478 . S
C1764 C1766 1.381 . S
C1764 C1770 1.383 . S
C1765 C1761 1.495 . S
C1765 H1771 0.959 . S
C1765 H1772 0.961 . S
C1765 H1773 0.960 . S
C1766 C1764 1.381 . S
C1766 C1767 1.394 . S
C1766 H1774 0.930 . S
C1767 C1766 1.394 . S
C1767 C1768 1.383 . S
C1767 H1775 0.929 . S
C1768 C1767 1.383 . S
C1768 C1769 1.377 . S
C1769 H1753 0.930 . S
C1769 C1768 1.377 . S
C1769 C1770 1.379 . S
C1770 H1754 0.931 . S
C1770 C1764 1.383 . S
C1770 C1769 1.379 . S
H1771 C1765 0.959 . S
H1772 C1765 0.961 . S
H1773 C1765 0.960 . S
H1774 C1766 0.930 . S
H1775 C1767 0.929 . S
H1776 C1784 0.929 . S
H1777 C1786 0.930 . S
H1778 C1788 0.930 . S
H1779 C1791 0.929 . S
H1780 C1794 0.930 . S
H1781 C1796 0.960 . S
H1782 C1796 0.960 . S
H1783 C1796 0.960 . S
C1784 H1776 0.929 . S
C1784 C1785 1.377 . S
C1784 C1786 1.384 . S
C1785 C1784 1.377 . S
C1785 C1791 1.390 . S
C1786 H1777 0.930 . S
C1786 C1784 1.384 . S
C1786 C1787 1.372 . S
C1787 C1786 1.372 . S
C1787 C1788 1.400 . S
C1787 C1792 1.490 . S
C1788 H1778 0.930 . S
C1788 C1787 1.400 . S
C1788 C1791 1.386 . S
H1789 C1805 0.930 . S
H1790 C1806 0.931 . S
C1791 H1779 0.929 . S
C1791 C1785 1.390 . S
C1791 C1788 1.386 . S
C1792 C1787 1.490 . S
C1792 C1794 1.395 . S
C1792 C1795 1.403 . S
H1793 C1799 0.930 . S
C1794 H1780 0.930 . S
C1794 C1792 1.395 . S
C1794 C1797 1.403 . S
C1795 C1792 1.403 . S
C1795 C1796 1.524 . S
C1795 C1799 1.400 . S
C1796 H1781 0.960 . S
C1796 H1782 0.960 . S
C1796 H1783 0.960 . S
C1796 C1795 1.524 . S
C1797 C1794 1.403 . S
C1797 C1798 1.392 . S
C1797 C1801 1.495 . S
C1798 C1797 1.392 . S
C1798 C1799 1.385 . S
C1798 C1800 1.478 . S
C1799 H1793 0.930 . S
C1799 C1795 1.400 . S
C1799 C1798 1.385 . S
C1800 C1798 1.478 . S
C1800 C1802 1.381 . S
C1800 C1806 1.383 . S
C1801 C1797 1.495 . S
C1801 H1807 0.959 . S
C1801 H1808 0.961 . S
C1801 H1809 0.960 . S
C1802 C1800 1.381 . S
C1802 C1803 1.394 . S
C1802 H1810 0.930 . S
C1803 C1802 1.394 . S
C1803 C1804 1.383 . S
C1803 H1811 0.929 . S
C1804 C1803 1.383 . S
C1804 C1805 1.377 . S
C1805 H1789 0.930 . S
C1805 C1804 1.377 . S
C1805 C1806 1.379 . S
C1806 H1790 0.931 . S
C1806 C1800 1.383 . S
C1806 C1805 1.379 . S
H1807 C1801 0.959 . S
H1808 C1801 0.961 . S
H1809 C1801 0.960 . S
H1810 C1802 0.930 . S
H1811 C1803 0.929 . S
H1812 C1820 0.929 . S
H1813 C1822 0.930 . S
H1814 C1824 0.930 . S
H1815 C1827 0.929 . S
H1816 C1830 0.930 . S
H1817 C1832 0.960 . S
H1818 C1832 0.960 . S
H1819 C1832 0.960 . S
C1820 H1812 0.929 . S
C1820 C1821 1.377 . S
C1820 C1822 1.384 . S
C1821 C1820 1.377 . S
C1821 C1827 1.390 . S
C1822 H1813 0.930 . S
C1822 C1820 1.384 . S
C1822 C1823 1.372 . S
C1823 C1822 1.372 . S
C1823 C1824 1.400 . S
C1823 C1828 1.490 . S
C1824 H1814 0.930 . S
C1824 C1823 1.400 . S
C1824 C1827 1.386 . S
H1825 C1841 0.930 . S
H1826 C1842 0.931 . S
C1827 H1815 0.929 . S
C1827 C1821 1.390 . S
C1827 C1824 1.386 . S
C1828 C1823 1.490 . S
C1828 C1830 1.395 . S
C1828 C1831 1.403 . S
H1829 C1835 0.930 . S
C1830 H1816 0.930 . S
C1830 C1828 1.395 . S
C1830 C1833 1.403 . S
C1831 C1828 1.403 . S
C1831 C1832 1.524 . S
C1831 C1835 1.400 . S
C1832 H1817 0.960 . S
C1832 H1818 0.960 . S
C1832 H1819 0.960 . S
C1832 C1831 1.524 . S
C1833 C1830 1.403 . S
C1833 C1834 1.392 . S
C1833 C1837 1.495 . S
C1834 C1833 1.392 . S
C1834 C1835 1.385 . S
C1834 C1836 1.478 . S
C1835 H1829 0.930 . S
C1835 C1831 1.400 . S
C1835 C1834 1.385 . S
C1836 C1834 1.478 . S
C1836 C1838 1.381 . S
C1836 C1842 1.383 . S
C1837 C1833 1.495 . S
C1837 H1843 0.959 . S
C1837 H1844 0.961 . S
C1837 H1845 0.960 . S
C1838 C1836 1.381 . S
C1838 C1839 1.394 . S
C1838 H1846 0.930 . S
C1839 C1838 1.394 . S
C1839 C1840 1.383 . S
C1839 H1847 0.929 . S
C1840 C1839 1.383 . S
C1840 C1841 1.377 . S
C1841 H1825 0.930 . S
C1841 C1840 1.377 . S
C1841 C1842 1.379 . S
C1842 H1826 0.931 . S
C1842 C1836 1.383 . S
C1842 C1841 1.379 . S
H1843 C1837 0.959 . S
H1844 C1837 0.961 . S
H1845 C1837 0.960 . S
H1846 C1838 0.930 . S
H1847 C1839 0.929 . S
H1848 C1856 0.929 . S
H1849 C1858 0.930 . S
H1850 C1860 0.930 . S
H1851 C1863 0.929 . S
H1852 C1866 0.930 . S
H1853 C1868 0.960 . S
H1854 C1868 0.960 . S
H1855 C1868 0.960 . S
C1856 H1848 0.929 . S
C1856 C1857 1.377 . S
C1856 C1858 1.384 . S
C1857 C1856 1.377 . S
C1857 C1863 1.390 . S
C1858 H1849 0.930 . S
C1858 C1856 1.384 . S
C1858 C1859 1.372 . S
C1859 C1858 1.372 . S
C1859 C1860 1.400 . S
C1859 C1864 1.490 . S
C1860 H1850 0.930 . S
C1860 C1859 1.400 . S
C1860 C1863 1.386 . S
H1861 C1877 0.930 . S
H1862 C1878 0.931 . S
C1863 H1851 0.929 . S
C1863 C1857 1.390 . S
C1863 C1860 1.386 . S
C1864 C1859 1.490 . S
C1864 C1866 1.395 . S
C1864 C1867 1.403 . S
H1865 C1871 0.930 . S
C1866 H1852 0.930 . S
C1866 C1864 1.395 . S
C1866 C1869 1.403 . S
C1867 C1864 1.403 . S
C1867 C1868 1.524 . S
C1867 C1871 1.400 . S
C1868 H1853 0.960 . S
C1868 H1854 0.960 . S
C1868 H1855 0.960 . S
C1868 C1867 1.524 . S
C1869 C1866 1.403 . S
C1869 C1870 1.392 . S
C1869 C1873 1.495 . S
C1870 C1869 1.392 . S
C1870 C1871 1.385 . S
C1870 C1872 1.478 . S
C1871 H1865 0.930 . S
C1871 C1867 1.400 . S
C1871 C1870 1.385 . S
C1872 C1870 1.478 . S
C1872 C1874 1.381 . S
C1872 C1878 1.383 . S
C1873 C1869 1.495 . S
C1873 H1879 0.959 . S
C1873 H1880 0.961 . S
C1873 H1881 0.960 . S
C1874 C1872 1.381 . S
C1874 C1875 1.394 . S
C1874 H1882 0.930 . S
C1875 C1874 1.394 . S
C1875 C1876 1.383 . S
C1875 H1883 0.929 . S
C1876 C1875 1.383 . S
C1876 C1877 1.377 . S
C1877 H1861 0.930 . S
C1877 C1876 1.377 . S
C1877 C1878 1.379 . S
C1878 H1862 0.931 . S
C1878 C1872 1.383 . S
C1878 C1877 1.379 . S
H1879 C1873 0.959 . S
H1880 C1873 0.961 . S
H1881 C1873 0.960 . S
H1882 C1874 0.930 . S
H1883 C1875 0.929 . S
H1884 C1892 0.929 . S
H1885 C1894 0.930 . S
H1886 C1896 0.930 . S
H1887 C1899 0.929 . S
H1888 C1902 0.930 . S
H1889 C1904 0.960 . S
H1890 C1904 0.960 . S
H1891 C1904 0.960 . S
C1892 H1884 0.929 . S
C1892 C1893 1.377 . S
C1892 C1894 1.384 . S
C1893 C1892 1.377 . S
C1893 C1899 1.390 . S
C1894 H1885 0.930 . S
C1894 C1892 1.384 . S
C1894 C1895 1.372 . S
C1895 C1894 1.372 . S
C1895 C1896 1.400 . S
C1895 C1900 1.490 . S
C1896 H1886 0.930 . S
C1896 C1895 1.400 . S
C1896 C1899 1.386 . S
H1897 C1913 0.930 . S
H1898 C1914 0.931 . S
C1899 H1887 0.929 . S
C1899 C1893 1.390 . S
C1899 C1896 1.386 . S
C1900 C1895 1.490 . S
C1900 C1902 1.395 . S
C1900 C1903 1.403 . S
H1901 C1907 0.930 . S
C1902 H1888 0.930 . S
C1902 C1900 1.395 . S
C1902 C1905 1.403 . S
C1903 C1900 1.403 . S
C1903 C1904 1.524 . S
C1903 C1907 1.400 . S
C1904 H1889 0.960 . S
C1904 H1890 0.960 . S
C1904 H1891 0.960 . S
C1904 C1903 1.524 . S
C1905 C1902 1.403 . S
C1905 C1906 1.392 . S
C1905 C1909 1.495 . S
C1906 C1905 1.392 . S
C1906 C1907 1.385 . S
C1906 C1908 1.478 . S
C1907 H1901 0.930 . S
C1907 C1903 1.400 . S
C1907 C1906 1.385 . S
C1908 C1906 1.478 . S
C1908 C1910 1.381 . S
C1908 C1914 1.383 . S
C1909 C1905 1.495 . S
C1909 H1915 0.959 . S
C1909 H1916 0.961 . S
C1909 H1917 0.960 . S
C1910 C1908 1.381 . S
C1910 C1911 1.394 . S
C1910 H1918 0.930 . S
C1911 C1910 1.394 . S
C1911 C1912 1.383 . S
C1911 H1919 0.929 . S
C1912 C1911 1.383 . S
C1912 C1913 1.377 . S
C1913 H1897 0.930 . S
C1913 C1912 1.377 . S
C1913 C1914 1.379 . S
C1914 H1898 0.931 . S
C1914 C1908 1.383 . S
C1914 C1913 1.379 . S
H1915 C1909 0.959 . S
H1916 C1909 0.961 . S
H1917 C1909 0.960 . S
H1918 C1910 0.930 . S
H1919 C1911 0.929 . S
H1920 C1928 0.929 . S
H1921 C1930 0.930 . S
H1922 C1932 0.930 . S
H1923 C1935 0.929 . S
H1924 C1938 0.930 . S
H1925 C1940 0.960 . S
H1926 C1940 0.960 . S
H1927 C1940 0.960 . S
C1928 H1920 0.929 . S
C1928 C1929 1.377 . S
C1928 C1930 1.384 . S
C1929 C1928 1.377 . S
C1929 C1935 1.390 . S
C1930 H1921 0.930 . S
C1930 C1928 1.384 . S
C1930 C1931 1.372 . S
C1931 C1930 1.372 . S
C1931 C1932 1.400 . S
C1931 C1936 1.490 . S
C1932 H1922 0.930 . S
C1932 C1931 1.400 . S
C1932 C1935 1.386 . S
H1933 C1949 0.930 . S
H1934 C1950 0.931 . S
C1935 H1923 0.929 . S
C1935 C1929 1.390 . S
C1935 C1932 1.386 . S
C1936 C1931 1.490 . S
C1936 C1938 1.395 . S
C1936 C1939 1.403 . S
H1937 C1943 0.930 . S
C1938 H1924 0.930 . S
C1938 C1936 1.395 . S
C1938 C1941 1.403 . S
C1939 C1936 1.403 . S
C1939 C1940 1.524 . S
C1939 C1943 1.400 . S
C1940 H1925 0.960 . S
C1940 H1926 0.960 . S
C1940 H1927 0.960 . S
C1940 C1939 1.524 . S
C1941 C1938 1.403 . S
C1941 C1942 1.392 . S
C1941 C1945 1.495 . S
C1942 C1941 1.392 . S
C1942 C1943 1.385 . S
C1942 C1944 1.478 . S
C1943 H1937 0.930 . S
C1943 C1939 1.400 . S
C1943 C1942 1.385 . S
C1944 C1942 1.478 . S
C1944 C1946 1.381 . S
C1944 C1950 1.383 . S
C1945 C1941 1.495 . S
C1945 H1951 0.959 . S
C1945 H1952 0.961 . S
C1945 H1953 0.960 . S
C1946 C1944 1.381 . S
C1946 C1947 1.394 . S
C1946 H1954 0.930 . S
C1947 C1946 1.394 . S
C1947 C1948 1.383 . S
C1947 H1955 0.929 . S
C1948 C1947 1.383 . S
C1948 C1949 1.377 . S
C1949 H1933 0.930 . S
C1949 C1948 1.377 . S
C1949 C1950 1.379 . S
C1950 H1934 0.931 . S
C1950 C1944 1.383 . S
C1950 C1949 1.379 . S
H1951 C1945 0.959 . S
H1952 C1945 0.961 . S
H1953 C1945 0.960 . S
H1954 C1946 0.930 . S
H1955 C1947 0.929 . S
H1956 C1964 0.929 . S
H1957 C1966 0.930 . S
H1958 C1968 0.930 . S
H1959 C1971 0.929 . S
H1960 C1974 0.930 . S
H1961 C1976 0.960 . S
H1962 C1976 0.960 . S
H1963 C1976 0.960 . S
C1964 H1956 0.929 . S
C1964 C1965 1.377 . S
C1964 C1966 1.384 . S
C1965 C1964 1.377 . S
C1965 C1971 1.390 . S
C1966 H1957 0.930 . S
C1966 C1964 1.384 . S
C1966 C1967 1.372 . S
C1967 C1966 1.372 . S
C1967 C1968 1.400 . S
C1967 C1972 1.490 . S
C1968 H1958 0.930 . S
C1968 C1967 1.400 . S
C1968 C1971 1.386 . S
H1969 C1985 0.930 . S
H1970 C1986 0.931 . S
C1971 H1959 0.929 . S
C1971 C1965 1.390 . S
C1971 C1968 1.386 . S
C1972 C1967 1.490 . S
C1972 C1974 1.395 . S
C1972 C1975 1.403 . S
H1973 C1979 0.930 . S
C1974 H1960 0.930 . S
C1974 C1972 1.395 . S
C1974 C1977 1.403 . S
C1975 C1972 1.403 . S
C1975 C1976 1.524 . S
C1975 C1979 1.400 . S
C1976 H1961 0.960 . S
C1976 H1962 0.960 . S
C1976 H1963 0.960 . S
C1976 C1975 1.524 . S
C1977 C1974 1.403 . S
C1977 C1978 1.392 . S
C1977 C1981 1.495 . S
C1978 C1977 1.392 . S
C1978 C1979 1.385 . S
C1978 C1980 1.478 . S
C1979 H1973 0.930 . S
C1979 C1975 1.400 . S
C1979 C1978 1.385 . S
C1980 C1978 1.478 . S
C1980 C1982 1.381 . S
C1980 C1986 1.383 . S
C1981 C1977 1.495 . S
C1981 H1987 0.959 . S
C1981 H1988 0.961 . S
C1981 H1989 0.960 . S
C1982 C1980 1.381 . S
C1982 C1983 1.394 . S
C1982 H1990 0.930 . S
C1983 C1982 1.394 . S
C1983 C1984 1.383 . S
C1983 H1991 0.929 . S
C1984 C1983 1.383 . S
C1984 C1985 1.377 . S
C1985 H1969 0.930 . S
C1985 C1984 1.377 . S
C1985 C1986 1.379 . S
C1986 H1970 0.931 . S
C1986 C1980 1.383 . S
C1986 C1985 1.379 . S
H1987 C1981 0.959 . S
H1988 C1981 0.961 . S
H1989 C1981 0.960 . S
H1990 C1982 0.930 . S
H1991 C1983 0.929 . S
H1992 C2000 0.929 . S
H1993 C2002 0.930 . S
H1994 C2004 0.930 . S
H1995 C2007 0.929 . S
H1996 C2010 0.930 . S
H1997 C2012 0.960 . S
H1998 C2012 0.960 . S
H1999 C2012 0.960 . S
C2000 H1992 0.929 . S
C2000 C2001 1.377 . S
C2000 C2002 1.384 . S
C2001 C2000 1.377 . S
C2001 C2007 1.390 . S
C2002 H1993 0.930 . S
C2002 C2000 1.384 . S
C2002 C2003 1.372 . S
C2003 C2002 1.372 . S
C2003 C2004 1.400 . S
C2003 C2008 1.490 . S
C2004 H1994 0.930 . S
C2004 C2003 1.400 . S
C2004 C2007 1.386 . S
H2005 C2021 0.930 . S
H2006 C2022 0.931 . S
C2007 H1995 0.929 . S
C2007 C2001 1.390 . S
C2007 C2004 1.386 . S
C2008 C2003 1.490 . S
C2008 C2010 1.395 . S
C2008 C2011 1.403 . S
H2009 C2015 0.930 . S
C2010 H1996 0.930 . S
C2010 C2008 1.395 . S
C2010 C2013 1.403 . S
C2011 C2008 1.403 . S
C2011 C2012 1.524 . S
C2011 C2015 1.400 . S
C2012 H1997 0.960 . S
C2012 H1998 0.960 . S
C2012 H1999 0.960 . S
C2012 C2011 1.524 . S
C2013 C2010 1.403 . S
C2013 C2014 1.392 . S
C2013 C2017 1.495 . S
C2014 C2013 1.392 . S
C2014 C2015 1.385 . S
C2014 C2016 1.478 . S
C2015 H2009 0.930 . S
C2015 C2011 1.400 . S
C2015 C2014 1.385 . S
C2016 C2014 1.478 . S
C2016 C2018 1.381 . S
C2016 C2022 1.383 . S
C2017 C2013 1.495 . S
C2017 H2023 0.959 . S
C2017 H2024 0.961 . S
C2017 H2025 0.960 . S
C2018 C2016 1.381 . S
C2018 C2019 1.394 . S
C2018 H2026 0.930 . S
C2019 C2018 1.394 . S
C2019 C2020 1.383 . S
C2019 H2027 0.929 . S
C2020 C2019 1.383 . S
C2020 C2021 1.377 . S
C2021 H2005 0.930 . S
C2021 C2020 1.377 . S
C2021 C2022 1.379 . S
C2022 H2006 0.931 . S
C2022 C2016 1.383 . S
C2022 C2021 1.379 . S
H2023 C2017 0.959 . S
H2024 C2017 0.961 . S
H2025 C2017 0.960 . S
H2026 C2018 0.930 . S
H2027 C2019 0.929 . S
H2028 C2036 0.929 . S
H2029 C2038 0.930 . S
H2030 C2040 0.930 . S
H2031 C2043 0.929 . S
H2032 C2046 0.930 . S
H2033 C2048 0.960 . S
H2034 C2048 0.960 . S
H2035 C2048 0.960 . S
C2036 H2028 0.929 . S
C2036 C2037 1.377 . S
C2036 C2038 1.384 . S
C2037 C2036 1.377 . S
C2037 C2043 1.390 . S
C2038 H2029 0.930 . S
C2038 C2036 1.384 . S
C2038 C2039 1.372 . S
C2039 C2038 1.372 . S
C2039 C2040 1.400 . S
C2039 C2044 1.490 . S
C2040 H2030 0.930 . S
C2040 C2039 1.400 . S
C2040 C2043 1.386 . S
H2041 C2057 0.930 . S
H2042 C2058 0.931 . S
C2043 H2031 0.929 . S
C2043 C2037 1.390 . S
C2043 C2040 1.386 . S
C2044 C2039 1.490 . S
C2044 C2046 1.395 . S
C2044 C2047 1.403 . S
H2045 C2051 0.930 . S
C2046 H2032 0.930 . S
C2046 C2044 1.395 . S
C2046 C2049 1.403 . S
C2047 C2044 1.403 . S
C2047 C2048 1.524 . S
C2047 C2051 1.400 . S
C2048 H2033 0.960 . S
C2048 H2034 0.960 . S
C2048 H2035 0.960 . S
C2048 C2047 1.524 . S
C2049 C2046 1.403 . S
C2049 C2050 1.392 . S
C2049 C2053 1.495 . S
C2050 C2049 1.392 . S
C2050 C2051 1.385 . S
C2050 C2052 1.478 . S
C2051 H2045 0.930 . S
C2051 C2047 1.400 . S
C2051 C2050 1.385 . S
C2052 C2050 1.478 . S
C2052 C2054 1.381 . S
C2052 C2058 1.383 . S
C2053 C2049 1.495 . S
C2053 H2059 0.959 . S
C2053 H2060 0.961 . S
C2053 H2061 0.960 . S
C2054 C2052 1.381 . S
C2054 C2055 1.394 . S
C2054 H2062 0.930 . S
C2055 C2054 1.394 . S
C2055 C2056 1.383 . S
C2055 H2063 0.929 . S
C2056 C2055 1.383 . S
C2056 C2057 1.377 . S
C2057 H2041 0.930 . S
C2057 C2056 1.377 . S
C2057 C2058 1.379 . S
C2058 H2042 0.931 . S
C2058 C2052 1.383 . S
C2058 C2057 1.379 . S
H2059 C2053 0.959 . S
H2060 C2053 0.961 . S
H2061 C2053 0.960 . S
H2062 C2054 0.930 . S
H2063 C2055 0.929 . S
C345 C223 1.282 . S
C364 C13 1.278 . S
C381 C27 1.280 . S
C400 C237 1.302 . S
C417 C41 1.294 . S
C436 C251 1.283 . S
C453 C55 1.294 . S
C472 C181 1.263 . S
C489 C195 1.280 . S
C508 C69 1.308 . S
C525 C83 1.290 . S
C544 C209 1.308 . S
C561 C307 1.294 . S
C580 C97 1.272 . S
C597 C111 1.291 . S
C616 C321 1.306 . S
C633 C125 1.286 . S
C652 C335 1.318 . S
C669 C265 1.294 . S
C688 C139 1.286 . S
C705 C153 1.283 . S
C724 C279 1.318 . S
C741 C293 1.283 . S
C760 C167 1.318 . S
C777 C11 1.235 . S
C796 C333 1.230 . S
C813 C263 1.233 . S
C832 C25 1.230 . S
C849 C39 1.233 . S
C868 C277 1.237 . S
C885 C291 1.234 . S
C904 C53 1.235 . S
C921 C67 1.235 . S
C940 C305 1.227 . S
C957 C319 1.233 . S
C976 C81 1.228 . S
C993 C95 1.232 . S
C1012 C193 1.231 . S
C1029 C207 1.233 . S
C1048 C109 1.233 . S
C1065 C221 1.233 . S
C1084 C123 1.236 . S
C1101 C235 1.235 . S
C1120 C137 1.227 . S
C1137 C151 1.233 . S
C1156 C249 1.235 . S
C1173 C165 1.235 . S
C1192 C179 1.229 . S
C1209 C105 0.897 . S
C1228 C7 0.904 . S
C1245 C119 0.899 . S
C1264 C21 0.885 . S
C1281 C133 0.892 . S
C1300 C35 0.922 . S
C1317 C147 0.897 . S
C1336 C49 0.907 . S
C1353 C63 0.899 . S
C1372 C161 0.893 . S
C1389 C77 0.903 . S
C1408 C91 0.871 . S
C1425 C175 0.902 . S
C1444 C273 0.921 . S
C1461 C189 0.903 . S
C1480 C287 0.919 . S
C1497 C301 0.892 . S
C1516 C203 0.879 . S
C1533 C315 0.898 . S
C1552 C217 0.917 . S
C1569 C329 0.896 . S
C1588 C231 0.909 . S
C1605 C259 0.896 . S
C1624 C245 0.911 . S
C1641 C8 1.415 . S
C1660 C274 1.436 . S
C1677 C288 1.421 . S
C1696 C22 1.396 . S
C1713 C36 1.408 . S
C1732 C302 1.419 . S
C1749 C316 1.414 . S
C1768 C50 1.387 . S
C1785 C64 1.411 . S
C1804 C330 1.441 . S
C1821 C260 1.408 . S
C1840 C78 1.428 . S
C1857 C92 1.411 . S
C1876 C246 1.396 . S
C1893 C176 1.420 . S
C1912 C106 1.405 . S
C1929 C120 1.421 . S
C1948 C190 1.391 . S
C1965 C134 1.415 . S
C1984 C204 1.384 . S
C2001 C148 1.419 . S
C2020 C218 1.384 . S
C2037 C162 1.412 . S
C2056 C232 1.393 . S
