# Generated by pormake.
# Topology uog, (4)-cn, num edge types: 1
# Building blocks:
#     Node 0, Type 0, BuildingBlock: ICAMEG_clean_sbu_1, # of connection points: 4
#     Node 1, Type 0, BuildingBlock: ICAMEG_clean_sbu_1, # of connection points: 4
#     Node 2, Type 0, BuildingBlock: ICAMEG_clean_sbu_1, # of connection points: 4
#     Node 3, Type 0, BuildingBlock: ICAMEG_clean_sbu_1, # of connection points: 4
#     Node 4, Type 0, BuildingBlock: ICAMEG_clean_sbu_1, # of connection points: 4
#     Node 5, Type 0, BuildingBlock: ICAMEG_clean_sbu_1, # of connection points: 4
#     Edge 6, Type (0, 0), BuildingBlock: FUNLAD_clean_linker_1, # of connection points: 2
#     Edge 7, Type (0, 0), BuildingBlock: FUNLAD_clean_linker_1, # of connection points: 2
#     Edge 8, Type (0, 0), BuildingBlock: FUNLAD_clean_linker_1, # of connection points: 2
#     Edge 9, Type (0, 0), BuildingBlock: FUNLAD_clean_linker_1, # of connection points: 2
#     Edge 10, Type (0, 0), BuildingBlock: FUNLAD_clean_linker_1, # of connection points: 2
#     Edge 11, Type (0, 0), BuildingBlock: FUNLAD_clean_linker_1, # of connection points: 2
#     Edge 12, Type (0, 0), BuildingBlock: FUNLAD_clean_linker_1, # of connection points: 2
#     Edge 13, Type (0, 0), BuildingBlock: FUNLAD_clean_linker_1, # of connection points: 2
#     Edge 14, Type (0, 0), BuildingBlock: FUNLAD_clean_linker_1, # of connection points: 2
#     Edge 15, Type (0, 0), BuildingBlock: FUNLAD_clean_linker_1, # of connection points: 2
#     Edge 16, Type (0, 0), BuildingBlock: FUNLAD_clean_linker_1, # of connection points: 2
#     Edge 17, Type (0, 0), BuildingBlock: FUNLAD_clean_linker_1, # of connection points: 2
# Relax obj value: 0.053
# Max RMSD: 0.119
# Mean RMSD: 0.119
data_MOF--net-uog--node1-ICAMEG_clean_sbu_1--edge1-FUNLAD_clean_linker_1
_symmetry_space_group_name_H-M    P1
_symmetry_Int_Tables_number       1
_symmetry_cell_setting            triclinic
loop_
_symmetry_equiv_pos_as_xyz
'x, y, z'
_cell_length_a     31.098359
_cell_length_b     30.785615
_cell_length_c     47.036902
_cell_angle_alpha  89.853555
_cell_angle_beta   90.062892
_cell_angle_gamma 119.61468
loop_
_atom_site_label
_atom_site_type_symbol
_atom_site_fract_x
_atom_site_fract_y
_atom_site_fract_z
_atom_type_partial_charge
Co0 Co 0.65783 0.37778 0.16739 0.0
Co1 Co 0.54075 0.2902 0.18867 0.0
O2 O 0.60057 0.31069 0.16635 0.0
C3 C 0.635 0.35588 0.10646 0.0
O4 O 0.58856 0.34094 0.11258 0.0
C5 C 0.57041 0.2147 0.20247 0.0
O6 O 0.61427 0.25229 0.20847 0.0
O7 O 0.58049 0.31546 0.22415 0.0
O8 O 0.64956 0.38362 0.20909 0.0
H9 H 0.43508 0.31171 0.2617 0.0
H10 H 0.66778 0.29456 0.1427 0.0
O11 O 0.66792 0.3732 0.12574 0.0
H12 H 0.78628 0.35807 0.22234 0.0
H13 H 0.83049 0.50984 0.14072 0.0
H14 H 0.68016 0.47369 0.19432 0.0
H15 H 0.73607 0.39734 0.21037 0.0
H16 H 0.75786 0.42506 0.14075 0.0
O17 O 0.53562 0.22278 0.19473 0.0
H18 H 0.5101 0.33798 0.23277 0.0
H19 H 0.44407 0.19585 0.19288 0.0
H20 H 0.75206 0.55892 0.19502 0.0
H21 H 0.71789 0.25472 0.15366 0.0
H22 H 0.82791 0.57741 0.16809 0.0
H23 H 0.77748 0.28632 0.19382 0.0
O24 O 0.6152 0.40773 0.15925 0.0
H25 H 0.49221 0.1965 0.09624 0.0
H26 H 0.46019 0.30215 0.16177 0.0
H27 H 0.41281 0.27331 0.1171 0.0
H28 H 0.42867 0.22004 0.084 0.0
H29 H 0.53902 0.2265 0.14099 0.0
H30 H 0.36844 0.16785 0.22154 0.0
H31 H 0.36356 0.22606 0.25617 0.0
O32 O 0.54468 0.35718 0.18269 0.0
C33 C 0.62129 0.35546 0.22873 0.0
C34 C 0.43668 0.28605 0.24662 0.0
C35 C 0.39931 0.20529 0.2241 0.0
N36 N 0.48124 0.26862 0.211 0.0
C37 C 0.479 0.30077 0.23012 0.0
C38 C 0.44225 0.2213 0.20798 0.0
C39 C 0.3966 0.23798 0.24353 0.0
C40 C 0.69413 0.30898 0.15996 0.0
N41 N 0.69918 0.34844 0.17575 0.0
C42 C 0.72221 0.28609 0.16616 0.0
C43 C 0.75558 0.30379 0.18873 0.0
C44 C 0.76053 0.34404 0.20474 0.0
C45 C 0.73188 0.36604 0.1979 0.0
C46 C 0.79768 0.50222 0.15258 0.0
C47 C 0.71313 0.48141 0.18267 0.0
C48 C 0.75641 0.45433 0.15263 0.0
N49 N 0.71496 0.44439 0.16769 0.0
C50 C 0.75368 0.52976 0.18309 0.0
C51 C 0.79621 0.54012 0.16795 0.0
C52 C 0.5732 0.39769 0.16932 0.0
C53 C 0.48481 0.21953 0.11054 0.0
C54 C 0.46739 0.27908 0.14745 0.0
C55 C 0.44036 0.26276 0.12222 0.0
C56 C 0.44925 0.23284 0.10366 0.0
N57 N 0.5022 0.26586 0.15405 0.0
C58 C 0.51104 0.23644 0.13599 0.0
Co59 Co 0.30507 0.62735 0.50009 0.0
Co60 Co 0.28471 0.51156 0.52249 0.0
O61 O 0.31981 0.57246 0.49979 0.0
C62 C 0.29795 0.59668 0.44014 0.0
O63 O 0.27265 0.5506 0.44945 0.0
C64 C 0.39008 0.55067 0.53689 0.0
O65 O 0.39401 0.59475 0.54038 0.0
O66 O 0.29386 0.55138 0.55744 0.0
O67 O 0.29688 0.62253 0.54263 0.0
H68 H 0.16155 0.39872 0.59517 0.0
H69 H 0.39624 0.64151 0.4716 0.0
O70 O 0.31336 0.63315 0.45749 0.0
H71 H 0.45346 0.76976 0.54663 0.0
H72 H 0.32861 0.79411 0.46861 0.0
H73 H 0.23234 0.6469 0.52978 0.0
H74 H 0.36443 0.71208 0.53944 0.0
H75 H 0.34688 0.72471 0.46943 0.0
O76 O 0.34879 0.51313 0.53009 0.0
H77 H 0.20506 0.47482 0.56576 0.0
H78 H 0.29235 0.4191 0.52831 0.0
H79 H 0.21306 0.71562 0.52979 0.0
H80 H 0.48565 0.69896 0.47779 0.0
H81 H 0.26139 0.78989 0.49903 0.0
H82 H 0.51478 0.76355 0.51559 0.0
O83 O 0.23301 0.58031 0.4952 0.0
H84 H 0.34158 0.46684 0.43286 0.0
H85 H 0.19865 0.42454 0.49515 0.0
H86 H 0.18692 0.37567 0.4515 0.0
H87 H 0.25874 0.39662 0.42006 0.0
H88 H 0.35151 0.51524 0.47644 0.0
H89 H 0.25005 0.34257 0.55746 0.0
H90 H 0.184 0.33194 0.5911 0.0
O91 O 0.21983 0.50833 0.51523 0.0
C92 C 0.29546 0.5929 0.56221 0.0
C93 C 0.19014 0.40283 0.58051 0.0
C94 C 0.23986 0.37135 0.55937 0.0
N95 N 0.25087 0.45118 0.54517 0.0
C96 C 0.2148 0.44577 0.56375 0.0
C97 C 0.26374 0.41481 0.54297 0.0
C98 C 0.20279 0.3654 0.57824 0.0
C99 C 0.40861 0.66986 0.4879 0.0
N100 N 0.37513 0.67359 0.50502 0.0
C101 C 0.45929 0.70214 0.49139 0.0
C102 C 0.47561 0.73833 0.51263 0.0
C103 C 0.44124 0.74183 0.53006 0.0
C104 C 0.39086 0.70895 0.52593 0.0
C105 C 0.30736 0.762 0.48214 0.0
C106 C 0.25372 0.67926 0.51648 0.0
C107 C 0.31747 0.72256 0.48265 0.0
N108 N 0.29094 0.68202 0.49981 0.0
C109 C 0.24255 0.71797 0.51651 0.0
C110 C 0.26965 0.75961 0.49923 0.0
C111 C 0.20453 0.5357 0.50372 0.0
C112 C 0.31001 0.45728 0.44641 0.0
C113 C 0.23003 0.43411 0.48148 0.0
C114 C 0.22319 0.40619 0.45685 0.0
C115 C 0.26351 0.41793 0.43923 0.0
N116 N 0.27576 0.47263 0.48839 0.0
C117 C 0.31546 0.48439 0.4712 0.0
Co118 Co 0.66729 0.31118 0.83346 0.0
Co119 Co 0.73854 0.26196 0.85827 0.0
O120 O 0.7285 0.30797 0.8342 0.0
C121 C 0.68659 0.30047 0.77313 0.0
O122 O 0.69364 0.26334 0.78064 0.0
C123 C 0.8239 0.36136 0.87085 0.0
O124 O 0.7924 0.37773 0.87399 0.0
O125 O 0.71655 0.28362 0.89254 0.0
O126 O 0.6586 0.30017 0.87538 0.0
H127 H 0.69145 0.12993 0.93344 0.0
H128 H 0.75849 0.39326 0.80775 0.0
O129 O 0.67489 0.32304 0.7915 0.0
H130 H 0.71123 0.47262 0.88316 0.0
H131 H 0.55898 0.38089 0.80134 0.0
H132 H 0.56843 0.25305 0.86018 0.0
H133 H 0.66013 0.38248 0.87351 0.0
H134 H 0.63599 0.37645 0.80346 0.0
O135 O 0.80859 0.3156 0.86524 0.0
H136 H 0.67924 0.18777 0.90255 0.0
H137 H 0.82116 0.23994 0.86581 0.0
H138 H 0.49078 0.25634 0.85883 0.0
H139 H 0.81035 0.48363 0.81649 0.0
H140 H 0.48574 0.32064 0.82925 0.0
H141 H 0.78692 0.52385 0.85452 0.0
O142 O 0.6274 0.2377 0.82709 0.0
H143 H 0.83411 0.2895 0.76763 0.0
H144 H 0.71382 0.16307 0.83351 0.0
H145 H 0.7384 0.13582 0.79022 0.0
H146 H 0.79901 0.19926 0.75694 0.0
H147 H 0.80816 0.3151 0.81103 0.0
H148 H 0.83511 0.18291 0.89649 0.0
H149 H 0.76988 0.12725 0.93052 0.0
O150 O 0.66914 0.20733 0.85146 0.0
C151 C 0.68163 0.2936 0.89585 0.0
C152 C 0.72011 0.15389 0.91865 0.0
C153 C 0.80076 0.18368 0.89793 0.0
N154 N 0.74931 0.2169 0.88226 0.0
C155 C 0.71336 0.18663 0.90105 0.0
C156 C 0.79272 0.21597 0.88066 0.0
C157 C 0.76414 0.15244 0.91701 0.0
C158 C 0.74768 0.41059 0.82408 0.0
N159 N 0.70616 0.38263 0.83998 0.0
C160 C 0.77734 0.46174 0.82903 0.0
C161 C 0.76423 0.48427 0.85041 0.0
C162 C 0.72178 0.45554 0.8665 0.0
C163 C 0.69304 0.40448 0.86097 0.0
C164 C 0.56074 0.35275 0.81434 0.0
C165 C 0.56658 0.28128 0.84737 0.0
C166 C 0.60421 0.35 0.81558 0.0
N167 N 0.60678 0.31474 0.83208 0.0
C168 C 0.52248 0.28289 0.84664 0.0
C169 C 0.51967 0.31895 0.83002 0.0
C170 C 0.63134 0.20159 0.83762 0.0
C171 C 0.8078 0.26149 0.78202 0.0
C172 C 0.74012 0.1909 0.81911 0.0
C173 C 0.75399 0.17525 0.79466 0.0
C174 C 0.78803 0.21086 0.77601 0.0
N175 N 0.75968 0.24063 0.82487 0.0
C176 C 0.79313 0.27577 0.8067 0.0
Co177 Co 0.34737 0.67008 0.16614 0.0
Co178 Co 0.46837 0.75098 0.18609 0.0
O179 O 0.40907 0.73349 0.16363 0.0
C180 C 0.37414 0.6808 0.10482 0.0
O181 O 0.41976 0.69434 0.11225 0.0
C182 C 0.4435 0.82987 0.19954 0.0
O183 O 0.39858 0.79348 0.20476 0.0
O184 O 0.42931 0.7272 0.22208 0.0
O185 O 0.35209 0.67071 0.20854 0.0
H186 H 0.57075 0.7222 0.25838 0.0
H187 H 0.35084 0.75486 0.13413 0.0
O188 O 0.34066 0.66874 0.12361 0.0
H189 H 0.2253 0.71401 0.20881 0.0
H190 H 0.17169 0.54707 0.13912 0.0
H191 H 0.3131 0.57742 0.19995 0.0
H192 H 0.26878 0.66562 0.20445 0.0
H193 H 0.24985 0.6273 0.13666 0.0
O194 O 0.47724 0.81996 0.19219 0.0
H195 H 0.49613 0.6997 0.2298 0.0
H196 H 0.56752 0.84233 0.19003 0.0
H197 H 0.23547 0.49683 0.20331 0.0
H198 H 0.30801 0.80399 0.13762 0.0
H199 H 0.1641 0.48126 0.17272 0.0
H200 H 0.24479 0.78371 0.1752 0.0
O201 O 0.38359 0.63174 0.16341 0.0
H202 H 0.51895 0.84353 0.09307 0.0
H203 H 0.54548 0.73404 0.15894 0.0
H204 H 0.59214 0.76038 0.11391 0.0
H205 H 0.57898 0.8155 0.08062 0.0
H206 H 0.47289 0.81611 0.13824 0.0
H207 H 0.64284 0.86656 0.21837 0.0
H208 H 0.6448 0.80619 0.25276 0.0
O209 O 0.46034 0.68265 0.18015 0.0
C210 C 0.38458 0.69449 0.22752 0.0
C211 C 0.57041 0.74879 0.24342 0.0
C212 C 0.61084 0.82984 0.22098 0.0
N213 N 0.52763 0.76955 0.20814 0.0
C214 C 0.52831 0.73621 0.22711 0.0
C215 C 0.56807 0.81596 0.20504 0.0
C216 C 0.61192 0.79593 0.24027 0.0
C217 C 0.32306 0.74551 0.15038 0.0
N218 N 0.31208 0.70718 0.16893 0.0
C219 C 0.29907 0.77359 0.15232 0.0
C220 C 0.26365 0.76224 0.17344 0.0
C221 C 0.25272 0.72315 0.19231 0.0
C222 C 0.27751 0.69593 0.18977 0.0
C223 C 0.20252 0.55343 0.15257 0.0
C224 C 0.28209 0.571 0.18669 0.0
C225 C 0.2469 0.59873 0.15122 0.0
N226 N 0.28587 0.60711 0.16827 0.0
C227 C 0.23829 0.52526 0.18863 0.0
C228 C 0.19827 0.51653 0.17145 0.0
C229 C 0.4267 0.64047 0.17071 0.0
C230 C 0.52515 0.81966 0.10745 0.0
C231 C 0.53955 0.75804 0.14456 0.0
C232 C 0.56613 0.77289 0.11912 0.0
C233 C 0.55876 0.80385 0.10046 0.0
N234 N 0.50667 0.77372 0.15128 0.0
C235 C 0.49933 0.80418 0.13312 0.0
Co236 Co 0.73914 0.35688 0.4972 0.0
Co237 Co 0.75632 0.47028 0.52032 0.0
O238 O 0.72208 0.41005 0.49729 0.0
C239 C 0.73847 0.38244 0.43687 0.0
O240 O 0.76691 0.42944 0.44396 0.0
C241 C 0.65098 0.43117 0.53461 0.0
O242 O 0.64763 0.38758 0.5393 0.0
O243 O 0.7457 0.42923 0.55507 0.0
O244 O 0.75263 0.36415 0.53903 0.0
H245 H 0.87532 0.58016 0.59529 0.0
H246 H 0.64332 0.33799 0.47284 0.0
O247 O 0.72517 0.34805 0.45543 0.0
H248 H 0.59978 0.21514 0.5504 0.0
H249 H 0.71763 0.19041 0.46725 0.0
H250 H 0.81839 0.34299 0.52326 0.0
H251 H 0.68709 0.27377 0.53895 0.0
H252 H 0.69614 0.25754 0.46891 0.0
O253 O 0.69193 0.4685 0.52707 0.0
H254 H 0.83371 0.50541 0.56487 0.0
H255 H 0.74869 0.56272 0.52594 0.0
H256 H 0.84109 0.27673 0.52229 0.0
H257 H 0.5555 0.27945 0.48328 0.0
H258 H 0.79049 0.19975 0.49415 0.0
H259 H 0.53325 0.21762 0.52239 0.0
O260 O 0.80986 0.4059 0.48955 0.0
H261 H 0.70334 0.51551 0.4292 0.0
H262 H 0.84324 0.55846 0.49419 0.0
H263 H 0.85683 0.60759 0.45029 0.0
H264 H 0.78655 0.5862 0.41746 0.0
H265 H 0.69151 0.46703 0.47316 0.0
H266 H 0.78924 0.63802 0.556 0.0
H267 H 0.85314 0.64714 0.59093 0.0
O268 O 0.82162 0.47377 0.51385 0.0
C269 C 0.74939 0.39019 0.55906 0.0
C270 C 0.84769 0.57673 0.58006 0.0
C271 C 0.79932 0.60916 0.55804 0.0
N272 N 0.78919 0.52996 0.54348 0.0
C273 C 0.82412 0.53456 0.56273 0.0
C274 C 0.77646 0.56643 0.5411 0.0
C275 C 0.83518 0.61426 0.57763 0.0
C276 C 0.63396 0.31075 0.48964 0.0
N277 N 0.67034 0.30913 0.50513 0.0
C278 C 0.58415 0.27787 0.49556 0.0
C279 C 0.57169 0.24324 0.51753 0.0
C280 C 0.60899 0.24183 0.53325 0.0
C281 C 0.65839 0.27523 0.52671 0.0
C282 C 0.73989 0.22373 0.47963 0.0
C283 C 0.79605 0.30948 0.51108 0.0
C284 C 0.72795 0.26189 0.48062 0.0
N285 N 0.75577 0.30394 0.49634 0.0
C286 C 0.80915 0.27215 0.51056 0.0
C287 C 0.78078 0.22899 0.49474 0.0
C288 C 0.83774 0.44903 0.50016 0.0
C289 C 0.73423 0.52525 0.44336 0.0
C290 C 0.81251 0.54883 0.47997 0.0
C291 C 0.8204 0.57686 0.45518 0.0
C292 C 0.78094 0.56487 0.43677 0.0
N293 N 0.76659 0.51003 0.48629 0.0
C294 C 0.72771 0.4981 0.46836 0.0
Co295 Co 0.33545 0.7084 0.82439 0.0
Co296 Co 0.27019 0.7595 0.85584 0.0
O297 O 0.27676 0.71567 0.82836 0.0
C298 C 0.32013 0.73607 0.76633 0.0
O299 O 0.31629 0.77277 0.77784 0.0
C300 C 0.18496 0.65977 0.86768 0.0
O301 O 0.21617 0.64268 0.86769 0.0
O302 O 0.29406 0.7336 0.88738 0.0
O303 O 0.34412 0.70956 0.86672 0.0
H304 H 0.32687 0.8833 0.93586 0.0
H305 H 0.24213 0.63703 0.7956 0.0
O306 O 0.32795 0.70668 0.78187 0.0
H307 H 0.28024 0.53444 0.86041 0.0
H308 H 0.43473 0.63705 0.78062 0.0
H309 H 0.43434 0.7545 0.85159 0.0
H310 H 0.3363 0.62544 0.85697 0.0
H311 H 0.36102 0.64646 0.78698 0.0
O312 O 0.20032 0.70608 0.86373 0.0
H313 H 0.33462 0.82828 0.90073 0.0
H314 H 0.19009 0.78264 0.86983 0.0
H315 H 0.50873 0.74598 0.84609 0.0
H316 H 0.18524 0.54613 0.79825 0.0
H317 H 0.5092 0.6869 0.81038 0.0
H318 H 0.20407 0.49423 0.83092 0.0
O319 O 0.37956 0.78244 0.82296 0.0
H320 H 0.16739 0.74433 0.76999 0.0
H321 H 0.29534 0.86148 0.83596 0.0
H322 H 0.26792 0.89457 0.79636 0.0
H323 H 0.2034 0.83581 0.76307 0.0
H324 H 0.19624 0.71286 0.80974 0.0
H325 H 0.18059 0.83694 0.90481 0.0
H326 H 0.24938 0.88788 0.93806 0.0
O327 O 0.3394 0.81346 0.84822 0.0
C328 C 0.32514 0.71799 0.8886 0.0
C329 C 0.29667 0.86141 0.92144 0.0
C330 C 0.21455 0.83532 0.90403 0.0
N331 N 0.26298 0.80259 0.88312 0.0
C332 C 0.3009 0.83029 0.90144 0.0
C333 C 0.22009 0.80457 0.88431 0.0
C334 C 0.25318 0.86392 0.92267 0.0
C335 C 0.25088 0.61462 0.80964 0.0
N336 N 0.29263 0.63649 0.826 0.0
C337 C 0.2184 0.5632 0.81114 0.0
C338 C 0.22895 0.53411 0.82951 0.0
C339 C 0.27167 0.55666 0.84608 0.0
C340 C 0.30323 0.60821 0.84407 0.0
C341 C 0.43494 0.66284 0.79629 0.0
C342 C 0.43419 0.72849 0.83614 0.0
C343 C 0.39335 0.6684 0.79995 0.0
N344 N 0.39329 0.70073 0.81979 0.0
C345 C 0.47645 0.72393 0.83306 0.0
C346 C 0.47671 0.69081 0.813 0.0
C347 C 0.37705 0.81859 0.83452 0.0
C348 C 0.19541 0.77031 0.78441 0.0
C349 C 0.26737 0.83567 0.82152 0.0
C350 C 0.25191 0.85463 0.79917 0.0
C351 C 0.21568 0.82164 0.78051 0.0
N352 N 0.24723 0.78527 0.82524 0.0
C353 C 0.21175 0.7527 0.80701 0.0
H354 H 0.59342 0.1586 0.21116 0.0
C355 C 0.5627 0.16323 0.20395 0.0
H356 H 0.48998 0.12691 0.18761 0.0
H357 H 0.49489 0.93779 0.1404 0.0
H358 H 0.49717 0.98082 0.09667 0.0
H359 H 0.50807 0.06581 0.09769 0.0
H360 H 0.5165 0.10825 0.14243 0.0
C361 C 0.52026 0.12264 0.19602 0.0
C362 C 0.51497 0.07157 0.19571 0.0
C363 C 0.51035 0.04724 0.16937 0.0
C364 C 0.50465 0.99836 0.16875 0.0
C365 C 0.49973 0.975 0.14211 0.0
C366 C 0.50093 0.99925 0.11684 0.0
C367 C 0.50701 0.04708 0.11741 0.0
C368 C 0.5117 0.07098 0.14328 0.0
H369 H 0.42412 0.88797 0.20983 0.0
C370 C 0.45362 0.88208 0.20181 0.0
H371 H 0.52554 0.91666 0.18428 0.0
H372 H 0.51869 0.10518 0.25002 0.0
H373 H 0.51901 0.06318 0.29361 0.0
H374 H 0.51372 0.98058 0.29238 0.0
H375 H 0.50734 0.93912 0.24753 0.0
C376 C 0.49646 0.92189 0.19359 0.0
C377 C 0.50346 0.97361 0.19447 0.0
C378 C 0.50872 0.99816 0.22082 0.0
C379 C 0.51368 0.04676 0.22147 0.0
C380 C 0.51657 0.06917 0.24818 0.0
C381 C 0.5165 0.04533 0.2734 0.0
C382 C 0.51336 0.99875 0.27271 0.0
C383 C 0.50949 0.97526 0.24681 0.0
H384 H 0.46994 0.57835 0.54321 0.0
C385 C 0.43444 0.54515 0.53934 0.0
H386 H 0.39692 0.46753 0.53126 0.0
H387 H 0.57855 0.45753 0.48074 0.0
H388 H 0.52814 0.44334 0.43864 0.0
H389 H 0.45404 0.45309 0.44023 0.0
H390 H 0.42991 0.47711 0.48383 0.0
C391 C 0.43206 0.50062 0.536 0.0
C392 C 0.47723 0.49558 0.53532 0.0
C393 C 0.49066 0.48134 0.50961 0.0
C394 C 0.53345 0.4759 0.50864 0.0
C395 C 0.54632 0.46209 0.48265 0.0
C396 C 0.51775 0.45387 0.45832 0.0
C397 C 0.47603 0.45934 0.45922 0.0
C398 C 0.46251 0.47301 0.48446 0.0
H399 H 0.57173 0.4038 0.54302 0.0
C400 C 0.60654 0.43648 0.53723 0.0
H401 H 0.64234 0.51319 0.5261 0.0
H402 H 0.45942 0.51855 0.58878 0.0
H403 H 0.51068 0.53379 0.63054 0.0
H404 H 0.58659 0.52733 0.62826 0.0
H405 H 0.61137 0.505 0.5842 0.0
C406 C 0.60798 0.48014 0.53206 0.0
C407 C 0.5626 0.48456 0.53336 0.0
C408 C 0.54925 0.4987 0.55906 0.0
C409 C 0.50614 0.50365 0.56017 0.0
C410 C 0.49258 0.5158 0.58645 0.0
C411 C 0.52152 0.52433 0.61066 0.0
C412 C 0.56421 0.5206 0.60939 0.0
C413 C 0.57803 0.5078 0.58398 0.0
H414 H 0.90203 0.38002 0.87045 0.0
C415 C 0.87772 0.39592 0.872 0.0
H416 H 0.87397 0.46244 0.87517 0.0
H417 H 0.09205 0.58905 0.92385 0.0
H418 H 0.04335 0.58335 0.96538 0.0
H419 H 0.95254 0.53022 0.96504 0.0
H420 H 0.90986 0.48232 0.92319 0.0
C421 C 0.89755 0.44579 0.8732 0.0
C422 C 0.95225 0.4795 0.87278 0.0
C423 C 0.97657 0.50795 0.89723 0.0
C424 C 0.02893 0.53906 0.89732 0.0
C425 C 0.05232 0.56576 0.92238 0.0
C426 C 0.02483 0.56259 0.94644 0.0
C427 C 0.9737 0.53263 0.94626 0.0
C428 C 0.94967 0.50541 0.92206 0.0
H429 H 0.10715 0.64167 0.87137 0.0
C430 C 0.13136 0.62555 0.87097 0.0
H431 H 0.1349 0.55876 0.87067 0.0
H432 H 0.91702 0.43482 0.82106 0.0
H433 H 0.96578 0.44051 0.77965 0.0
H434 H 0.05674 0.49231 0.78037 0.0
H435 H 0.09939 0.53912 0.82247 0.0
C436 C 0.11151 0.57569 0.87232 0.0
C437 C 0.05685 0.54219 0.8728 0.0
C438 C 0.03255 0.51388 0.84831 0.0
C439 C 0.98016 0.4831 0.84812 0.0
C440 C 0.95678 0.45734 0.82281 0.0
C441 C 0.98432 0.46061 0.79875 0.0
C442 C 0.03551 0.48984 0.79914 0.0
C443 C 0.05953 0.51643 0.8235 0.0
H444 H 0.12719 0.47553 0.50797 0.0
C445 C 0.15049 0.51394 0.50096 0.0
H446 H 0.15141 0.57805 0.48388 0.0
H447 H 0.93331 0.45772 0.43473 0.0
H448 H 0.98159 0.4816 0.39121 0.0
H449 H 0.07259 0.52143 0.39275 0.0
H450 H 0.11595 0.53794 0.4378 0.0
C451 C 0.12906 0.53998 0.49157 0.0
C452 C 0.07416 0.51691 0.49079 0.0
C453 C 0.04938 0.50732 0.46429 0.0
C454 C 0.99684 0.48385 0.46338 0.0
C455 C 0.9731 0.4751 0.43662 0.0
C456 C 1.00036 0.48864 0.41149 0.0
C457 C 0.0516 0.5111 0.41235 0.0
C458 C 0.07603 0.52039 0.43837 0.0
H459 H 0.91454 0.50904 0.50647 0.0
C460 C 0.89193 0.47162 0.49795 0.0
H461 H 0.89274 0.40976 0.47899 0.0
H462 H 0.11009 0.53587 0.54535 0.0
H463 H 0.06181 0.50913 0.58872 0.0
H464 H 0.97062 0.46202 0.58701 0.0
H465 H 0.92725 0.44235 0.54196 0.0
C466 C 0.91428 0.44692 0.48798 0.0
C467 C 0.96916 0.46995 0.48898 0.0
C468 C 0.99393 0.47893 0.51551 0.0
C469 C 0.0465 0.5037 0.51644 0.0
C470 C 0.07026 0.51512 0.5433 0.0
C471 C 0.04298 0.50032 0.5684 0.0
C472 C 0.99166 0.47399 0.56745 0.0
C473 C 0.96723 0.46328 0.5414 0.0
H474 H 0.45395 0.87343 0.82233 0.0
C475 C 0.42046 0.86927 0.83211 0.0
H476 H 0.38678 0.906 0.85244 0.0
H477 H 0.57788 0.09354 0.89647 0.0
H478 H 0.54244 0.04887 0.9404 0.0
H479 H 0.4713 0.96316 0.93982 0.0
H480 H 0.43501 0.92175 0.89531 0.0
C481 C 0.41964 0.90991 0.84196 0.0
C482 C 0.46426 0.96058 0.84176 0.0
C483 C 0.48544 0.98411 0.86799 0.0
C484 C 0.52698 0.0332 0.86831 0.0
C485 C 0.54679 0.05602 0.89488 0.0
C486 C 0.52673 0.03085 0.92032 0.0
C487 C 0.48664 0.98265 0.92 0.0
C488 C 0.46608 0.95936 0.89424 0.0
H489 H 0.55537 0.14569 0.82463 0.0
C490 C 0.58922 0.15037 0.83422 0.0
H491 H 0.62461 0.11427 0.85345 0.0
H492 H 0.42982 0.92861 0.7878 0.0
H493 H 0.46753 0.97167 0.7438 0.0
H494 H 0.54355 0.05393 0.74427 0.0
H495 H 0.58166 0.09408 0.78877 0.0
C496 C 0.59139 0.1099 0.84317 0.0
C497 C 0.54758 0.05867 0.84238 0.0
C498 C 0.52705 0.03476 0.8161 0.0
C499 C 0.48462 0.98615 0.8158 0.0
C500 C 0.46317 0.96449 0.78931 0.0
C501 C 0.48428 0.98895 0.76385 0.0
C502 C 0.52696 0.03535 0.76412 0.0
C503 C 0.54828 0.05814 0.78986 0.0
H504 H 0.40749 0.56253 0.16134 0.0
C505 C 0.43717 0.59844 0.16856 0.0
H506 H 0.5104 0.63763 0.18402 0.0
H507 H 0.52408 0.45329 0.23043 0.0
H508 H 0.52374 0.49474 0.27407 0.0
H509 H 0.50704 0.56517 0.27343 0.0
H510 H 0.49082 0.59479 0.22913 0.0
C511 C 0.48095 0.60246 0.17582 0.0
C512 C 0.48914 0.55835 0.17587 0.0
C513 C 0.49806 0.54096 0.20199 0.0
C514 C 0.50696 0.49974 0.20241 0.0
C515 C 0.51647 0.48391 0.22884 0.0
C516 C 0.51648 0.50745 0.25409 0.0
C517 C 0.50715 0.54714 0.25372 0.0
C518 C 0.49801 0.56384 0.22809 0.0
H519 H 0.58396 0.47079 0.15495 0.0
C520 C 0.55859 0.43665 0.16614 0.0
H521 H 0.49232 0.39985 0.18976 0.0
H522 H 0.47842 0.58464 0.12173 0.0
H523 H 0.47548 0.54109 0.0783 0.0
H524 H 0.48473 0.46602 0.07944 0.0
H525 H 0.49795 0.43459 0.12399 0.0
C526 C 0.5171 0.43283 0.17751 0.0
C527 C 0.50681 0.47557 0.17672 0.0
C528 C 0.49701 0.49235 0.15063 0.0
C529 C 0.48926 0.53436 0.15012 0.0
C530 C 0.48246 0.55182 0.12355 0.0
C531 C 0.48102 0.52735 0.0984 0.0
C532 C 0.48642 0.48519 0.09903 0.0
C533 C 0.4943 0.46772 0.12475 0.0
H534 H 0.6385 0.31034 0.92643 0.0
C535 C 0.66697 0.29971 0.92466 0.0
H536 H 0.7149 0.28195 0.94756 0.0
H537 H 0.65681 0.41508 0.03588 0.0
H538 H 0.70807 0.48501 1.00503 0.0
H539 H 0.74481 0.47273 0.96144 0.0
H540 H 0.72986 0.39034 0.94825 0.0
C541 C 0.68753 0.2941 0.94847 0.0
C542 C 0.67144 0.30264 0.97669 0.0
C543 C 0.68238 0.35145 0.98472 0.0
C544 C 0.66304 0.35887 0.01049 0.0
C545 C 0.67219 0.40757 0.01715 0.0
C546 C 0.70128 0.44803 0.99952 0.0
C547 C 0.72182 0.44109 0.97493 0.0
C548 C 0.71265 0.3935 0.96752 0.0
H549 H 0.68929 0.3662 0.07344 0.0
C550 C 0.64998 0.35068 0.07756 0.0
H551 H 0.57786 0.30772 0.0609 0.0
H552 H 0.6445 0.20466 0.96777 0.0
H553 H 0.59533 0.13497 0.99935 0.0
H554 H 0.56412 0.14817 0.04487 0.0
H555 H 0.58148 0.23101 0.059 0.0
C556 C 0.61738 0.32576 0.05682 0.0
C557 C 0.63468 0.3178 0.02882 0.0
C558 C 0.62436 0.26912 0.02097 0.0
C559 C 0.6428 0.26156 0.99487 0.0
C560 C 0.63162 0.21252 0.98743 0.0
C561 C 0.60347 0.17219 1.00536 0.0
C562 C 0.58587 0.17962 0.03098 0.0
C563 C 0.59609 0.22741 0.03882 0.0
H564 H 0.32962 0.6752 0.26153 0.0
C565 C 0.36771 0.68492 0.25733 0.0
H566 H 0.43409 0.69379 0.27444 0.0
H567 H 0.40706 0.72909 0.40269 0.0
H568 H 0.48388 0.80294 0.39026 0.0
H569 H 0.51244 0.81998 0.34051 0.0
H570 H 0.46487 0.7627 0.30296 0.0
C571 C 0.39621 0.68466 0.27879 0.0
C572 C 0.37796 0.67418 0.30891 0.0
C573 C 0.40539 0.70902 0.33058 0.0
C574 C 0.38791 0.70013 0.3592 0.0
C575 C 0.41752 0.73446 0.3805 0.0
C576 C 0.46194 0.77706 0.3737 0.0
C577 C 0.47807 0.78659 0.3457 0.0
C578 C 0.45035 0.75318 0.32433 0.0
H579 H 0.3126 0.57492 0.39832 0.0
C580 C 0.31233 0.60531 0.40988 0.0
H581 H 0.32401 0.67862 0.40801 0.0
H582 H 0.3222 0.59248 0.27508 0.0
H583 H 0.24131 0.52288 0.28622 0.0
H584 H 0.20296 0.51688 0.33302 0.0
H585 H 0.24655 0.57904 0.36935 0.0
C586 C 0.32436 0.64839 0.39632 0.0
C587 C 0.3418 0.65753 0.36603 0.0
C588 C 0.31343 0.62376 0.34408 0.0
C589 C 0.33307 0.63026 0.31606 0.0
C590 C 0.30712 0.59196 0.29585 0.0
C591 C 0.26088 0.55137 0.30209 0.0
C592 C 0.23948 0.54779 0.3285 0.0
C593 C 0.26523 0.58345 0.3493 0.0
H594 H 0.68705 0.34915 0.73876 0.0
C595 C 0.69422 0.31873 0.74362 0.0
H596 H 0.71767 0.27002 0.72704 0.0
H597 H 0.65507 0.3042 0.60266 0.0
H598 H 0.59058 0.21939 0.61216 0.0
H599 H 0.5842 0.18043 0.65902 0.0
H600 H 0.6423 0.22638 0.69673 0.0
C601 C 0.71108 0.30102 0.72301 0.0
C602 C 0.71901 0.32243 0.69384 0.0
C603 C 0.68577 0.29457 0.67178 0.0
C604 C 0.69016 0.31669 0.64458 0.0
C605 C 0.65473 0.28883 0.62341 0.0
C606 C 0.61715 0.24015 0.62865 0.0
C607 C 0.61351 0.21825 0.65505 0.0
C608 C 0.64713 0.24504 0.67649 0.0
H609 H 0.75407 0.34037 0.59103 0.0
C610 C 0.74758 0.37174 0.58819 0.0
H611 H 0.72823 0.42084 0.60856 0.0
H612 H 0.79202 0.38423 0.73062 0.0
H613 H 0.85737 0.46885 0.72103 0.0
H614 H 0.86467 0.50751 0.67396 0.0
H615 H 0.80675 0.46169 0.63618 0.0
C616 C 0.73446 0.38923 0.61072 0.0
C617 C 0.72881 0.36621 0.6393 0.0
C618 C 0.76251 0.39378 0.66124 0.0
C619 C 0.75789 0.37173 0.68847 0.0
C620 C 0.793 0.39959 0.70976 0.0
C621 C 0.83093 0.4481 0.70448 0.0
C622 C 0.83508 0.46983 0.67797 0.0
C623 C 0.80151 0.44313 0.65649 0.0
H624 H 0.36617 0.69455 0.91742 0.0
C625 C 0.34086 0.70936 0.91677 0.0
H626 H 0.30259 0.73712 0.94104 0.0
H627 H 0.34873 0.60742 0.03793 0.0
H628 H 0.29363 0.53407 0.01052 0.0
H629 H 0.26019 0.54231 0.9645 0.0
H630 H 0.28223 0.62388 0.94539 0.0
C631 C 0.32616 0.7203 0.94132 0.0
C632 C 0.34522 0.71457 0.96942 0.0
C633 C 0.33076 0.66645 0.98067 0.0
C634 C 0.34843 0.66161 0.0078 0.0
C635 C 0.33501 0.6132 0.01796 0.0
C636 C 0.30364 0.57078 1.00236 0.0
C637 C 0.28494 0.57543 0.9764 0.0
C638 C 0.29814 0.62256 0.9656 0.0
H639 H 0.32207 0.66841 0.0699 0.0
C640 C 0.36078 0.68161 0.07475 0.0
H641 H 0.43337 0.71561 0.0582 0.0
H642 H 0.38146 0.81223 0.95375 0.0
H643 H 0.43537 0.88545 0.98157 0.0
H644 H 0.46394 0.87698 0.02915 0.0
H645 H 0.439 0.79525 0.04916 0.0
C646 C 0.39423 0.70002 0.05362 0.0
C647 C 0.37909 0.70478 0.02412 0.0
C648 C 0.39407 0.75286 0.01268 0.0
C649 C 0.37711 0.75775 0.98535 0.0
C650 C 0.39277 0.80628 0.97449 0.0
C651 C 0.42381 0.84868 0.99021 0.0
C652 C 0.43993 0.8439 0.01699 0.0
C653 C 0.42534 0.79671 0.02821 0.0
H654 H 0.69523 0.32904 0.40319 0.0
C655 C 0.71807 0.36858 0.40795 0.0
H656 H 0.74483 0.44221 0.39295 0.0
H657 H 0.67395 0.30008 0.27583 0.0
H658 H 0.74061 0.28307 0.28637 0.0
H659 H 0.78934 0.31444 0.33048 0.0
H660 H 0.77152 0.36269 0.36434 0.0
C661 C 0.72415 0.40255 0.3881 0.0
C662 C 0.69772 0.38674 0.36037 0.0
C663 C 0.70936 0.35936 0.34056 0.0
C664 C 0.68215 0.34238 0.31479 0.0
C665 C 0.69391 0.31444 0.29556 0.0
C666 C 0.73203 0.30435 0.30136 0.0
C667 C 0.75939 0.32192 0.32621 0.0
C668 C 0.74849 0.34926 0.3456 0.0
H669 H 0.6731 0.40545 0.26103 0.0
C670 C 0.63937 0.36987 0.25803 0.0
H671 H 0.58624 0.30327 0.27826 0.0
H672 H 0.66612 0.43865 0.39351 0.0
H673 H 0.6015 0.45812 0.38192 0.0
H674 H 0.55584 0.43029 0.33662 0.0
H675 H 0.57437 0.38241 0.30269 0.0
C676 C 0.61902 0.33973 0.28052 0.0
C677 C 0.64443 0.35406 0.30849 0.0
C678 C 0.63326 0.38199 0.32802 0.0
C679 C 0.65991 0.39835 0.35401 0.0
C680 C 0.6475 0.42572 0.3733 0.0
C681 C 0.61039 0.43708 0.36694 0.0
C682 C 0.58466 0.42139 0.34144 0.0
C683 C 0.59573 0.39405 0.32214 0.0
H684 H 0.30959 0.7554 0.72249 0.0
C685 C 0.31524 0.72904 0.73514 0.0
H686 H 0.32128 0.66364 0.73465 0.0
H687 H 0.20922 0.58414 0.61782 0.0
H688 H 0.14366 0.53231 0.65074 0.0
H689 H 0.15385 0.54868 0.70232 0.0
H690 H 0.22951 0.61733 0.72127 0.0
C691 C 0.31737 0.69124 0.72216 0.0
C692 C 0.31078 0.68322 0.69082 0.0
C693 C 0.26674 0.6424 0.68009 0.0
C694 C 0.26127 0.63231 0.65038 0.0
C695 C 0.21604 0.59247 0.64024 0.0
C696 C 0.17792 0.56266 0.65889 0.0
C697 C 0.18363 0.57192 0.68793 0.0
C698 C 0.22733 0.61136 0.69852 0.0
H699 H 0.29641 0.58154 0.60843 0.0
C700 C 0.29626 0.60689 0.59233 0.0
H701 H 0.29845 0.67574 0.585 0.0
H702 H 0.40015 0.76442 0.70416 0.0
H703 H 0.46523 0.81685 0.67117 0.0
H704 H 0.45573 0.79939 0.6197 0.0
H705 H 0.38116 0.7293 0.6009 0.0
C706 C 0.29712 0.6491 0.60067 0.0
C707 C 0.30045 0.66228 0.63145 0.0
C708 C 0.34383 0.70412 0.64206 0.0
C709 C 0.34915 0.71445 0.67178 0.0
C710 C 0.3937 0.75535 0.68181 0.0
C711 C 0.43149 0.78566 0.6631 0.0
C712 C 0.42617 0.77581 0.63413 0.0
C713 C 0.38306 0.73547 0.62362 0.0
loop_
_geom_bond_atom_site_label_1
_geom_bond_atom_site_label_2
_geom_bond_distance
_geom_bond_site_symmetry_2
_ccdc_geom_bond_type
Co0 O2 2.143 . S
Co0 O8 2.074 . S
Co0 O11 2.093 . S
Co0 O24 2.097 . S
Co0 N41 2.151 . S
Co0 N49 2.214 . S
Co1 O2 2.160 . S
Co1 O7 2.058 . S
Co1 O17 2.057 . S
Co1 O32 2.037 . S
Co1 N36 2.145 . S
Co1 N57 2.257 . S
O2 Co0 2.143 . S
O2 Co1 2.160 . S
C3 O4 1.278 . S
C3 O11 1.224 . S
O4 C3 1.278 . S
C5 O6 1.245 . S
C5 O17 1.232 . S
O6 C5 1.245 . S
O7 Co1 2.058 . S
O7 C33 1.269 . S
O8 Co0 2.074 . S
O8 C33 1.257 . S
H9 C34 0.930 . S
H10 C40 0.930 . S
O11 Co0 2.093 . S
O11 C3 1.224 . S
H12 C44 0.929 . S
H13 C46 0.930 . S
H14 C47 0.930 . S
H15 C45 0.929 . S
H16 C48 0.928 . S
O17 Co1 2.057 . S
O17 C5 1.232 . S
H18 C37 0.929 . S
H19 C38 0.929 . S
H20 C50 0.931 . S
H21 C42 0.929 . S
H22 C51 0.930 . S
H23 C43 0.931 . S
O24 Co0 2.097 . S
O24 C52 1.214 . S
H25 C53 0.929 . S
H26 C54 0.929 . S
H27 C55 0.930 . S
H28 C56 0.929 . S
H29 C58 0.930 . S
H30 C35 0.930 . S
H31 C39 0.930 . S
O32 Co1 2.037 . S
O32 C52 1.234 . S
C33 O7 1.269 . S
C33 O8 1.257 . S
C34 H9 0.930 . S
C34 C37 1.388 . S
C34 C39 1.418 . S
C35 H30 0.930 . S
C35 C38 1.404 . S
C35 C39 1.353 . S
N36 Co1 2.145 . S
N36 C37 1.397 . S
N36 C38 1.334 . S
C37 H18 0.929 . S
C37 C34 1.388 . S
C37 N36 1.397 . S
C38 H19 0.929 . S
C38 C35 1.404 . S
C38 N36 1.334 . S
C39 H31 0.930 . S
C39 C34 1.418 . S
C39 C35 1.353 . S
C40 H10 0.930 . S
C40 N41 1.330 . S
C40 C42 1.446 . S
N41 Co0 2.151 . S
N41 C40 1.330 . S
N41 C45 1.418 . S
C42 H21 0.929 . S
C42 C40 1.446 . S
C42 C43 1.332 . S
C43 H23 0.931 . S
C43 C42 1.332 . S
C43 C44 1.267 . S
C44 H12 0.929 . S
C44 C43 1.267 . S
C44 C45 1.251 . S
C45 H15 0.929 . S
C45 N41 1.418 . S
C45 C44 1.251 . S
C46 H13 0.930 . S
C46 C48 1.406 . S
C46 C51 1.261 . S
C47 H14 0.930 . S
C47 N49 1.325 . S
C47 C50 1.357 . S
C48 H16 0.928 . S
C48 C46 1.406 . S
C48 N49 1.261 . S
N49 Co0 2.214 . S
N49 C47 1.325 . S
N49 C48 1.261 . S
C50 H20 0.931 . S
C50 C47 1.357 . S
C50 C51 1.312 . S
C51 H22 0.930 . S
C51 C46 1.261 . S
C51 C50 1.312 . S
C52 O24 1.214 . S
C52 O32 1.234 . S
C53 H25 0.929 . S
C53 C56 1.391 . S
C53 C58 1.391 . S
C54 H26 0.929 . S
C54 C55 1.390 . S
C54 N57 1.391 . S
C55 H27 0.930 . S
C55 C54 1.390 . S
C55 C56 1.392 . S
C56 H28 0.929 . S
C56 C53 1.391 . S
C56 C55 1.392 . S
N57 Co1 2.257 . S
N57 C54 1.391 . S
N57 C58 1.388 . S
C58 H29 0.930 . S
C58 C53 1.391 . S
C58 N57 1.388 . S
Co59 O61 2.143 . S
Co59 O67 2.074 . S
Co59 O70 2.093 . S
Co59 O83 2.097 . S
Co59 N100 2.151 . S
Co59 N108 2.214 . S
Co60 O61 2.160 . S
Co60 O66 2.058 . S
Co60 O76 2.057 . S
Co60 O91 2.037 . S
Co60 N95 2.145 . S
Co60 N116 2.257 . S
O61 Co59 2.143 . S
O61 Co60 2.160 . S
C62 O63 1.278 . S
C62 O70 1.224 . S
O63 C62 1.278 . S
C64 O65 1.245 . S
C64 O76 1.232 . S
O65 C64 1.245 . S
O66 Co60 2.058 . S
O66 C92 1.269 . S
O67 Co59 2.074 . S
O67 C92 1.257 . S
H68 C93 0.930 . S
H69 C99 0.930 . S
O70 Co59 2.093 . S
O70 C62 1.224 . S
H71 C103 0.929 . S
H72 C105 0.930 . S
H73 C106 0.930 . S
H74 C104 0.929 . S
H75 C107 0.928 . S
O76 Co60 2.057 . S
O76 C64 1.232 . S
H77 C96 0.929 . S
H78 C97 0.929 . S
H79 C109 0.931 . S
H80 C101 0.929 . S
H81 C110 0.930 . S
H82 C102 0.931 . S
O83 Co59 2.097 . S
O83 C111 1.214 . S
H84 C112 0.929 . S
H85 C113 0.929 . S
H86 C114 0.930 . S
H87 C115 0.929 . S
H88 C117 0.930 . S
H89 C94 0.930 . S
H90 C98 0.930 . S
O91 Co60 2.037 . S
O91 C111 1.234 . S
C92 O66 1.269 . S
C92 O67 1.257 . S
C93 H68 0.930 . S
C93 C96 1.388 . S
C93 C98 1.418 . S
C94 H89 0.930 . S
C94 C97 1.404 . S
C94 C98 1.353 . S
N95 Co60 2.145 . S
N95 C96 1.397 . S
N95 C97 1.334 . S
C96 H77 0.929 . S
C96 C93 1.388 . S
C96 N95 1.397 . S
C97 H78 0.929 . S
C97 C94 1.404 . S
C97 N95 1.334 . S
C98 H90 0.930 . S
C98 C93 1.418 . S
C98 C94 1.353 . S
C99 H69 0.930 . S
C99 N100 1.330 . S
C99 C101 1.446 . S
N100 Co59 2.151 . S
N100 C99 1.330 . S
N100 C104 1.418 . S
C101 H80 0.929 . S
C101 C99 1.446 . S
C101 C102 1.332 . S
C102 H82 0.931 . S
C102 C101 1.332 . S
C102 C103 1.267 . S
C103 H71 0.929 . S
C103 C102 1.267 . S
C103 C104 1.251 . S
C104 H74 0.929 . S
C104 N100 1.418 . S
C104 C103 1.251 . S
C105 H72 0.930 . S
C105 C107 1.406 . S
C105 C110 1.261 . S
C106 H73 0.930 . S
C106 N108 1.325 . S
C106 C109 1.357 . S
C107 H75 0.928 . S
C107 C105 1.406 . S
C107 N108 1.261 . S
N108 Co59 2.214 . S
N108 C106 1.325 . S
N108 C107 1.261 . S
C109 H79 0.931 . S
C109 C106 1.357 . S
C109 C110 1.312 . S
C110 H81 0.930 . S
C110 C105 1.261 . S
C110 C109 1.312 . S
C111 O83 1.214 . S
C111 O91 1.234 . S
C112 H84 0.929 . S
C112 C115 1.391 . S
C112 C117 1.391 . S
C113 H85 0.929 . S
C113 C114 1.390 . S
C113 N116 1.391 . S
C114 H86 0.930 . S
C114 C113 1.390 . S
C114 C115 1.392 . S
C115 H87 0.929 . S
C115 C112 1.391 . S
C115 C114 1.392 . S
N116 Co60 2.257 . S
N116 C113 1.391 . S
N116 C117 1.388 . S
C117 H88 0.930 . S
C117 C112 1.391 . S
C117 N116 1.388 . S
Co118 O120 2.143 . S
Co118 O126 2.074 . S
Co118 O129 2.093 . S
Co118 O142 2.097 . S
Co118 N159 2.151 . S
Co118 N167 2.214 . S
Co119 O120 2.160 . S
Co119 O125 2.058 . S
Co119 O135 2.057 . S
Co119 O150 2.037 . S
Co119 N154 2.145 . S
Co119 N175 2.257 . S
O120 Co118 2.143 . S
O120 Co119 2.160 . S
C121 O122 1.278 . S
C121 O129 1.224 . S
O122 C121 1.278 . S
C123 O124 1.245 . S
C123 O135 1.232 . S
O124 C123 1.245 . S
O125 Co119 2.058 . S
O125 C151 1.269 . S
O126 Co118 2.074 . S
O126 C151 1.257 . S
H127 C152 0.930 . S
H128 C158 0.930 . S
O129 Co118 2.093 . S
O129 C121 1.224 . S
H130 C162 0.929 . S
H131 C164 0.930 . S
H132 C165 0.930 . S
H133 C163 0.929 . S
H134 C166 0.928 . S
O135 Co119 2.057 . S
O135 C123 1.232 . S
H136 C155 0.929 . S
H137 C156 0.929 . S
H138 C168 0.931 . S
H139 C160 0.929 . S
H140 C169 0.930 . S
H141 C161 0.931 . S
O142 Co118 2.097 . S
O142 C170 1.214 . S
H143 C171 0.929 . S
H144 C172 0.929 . S
H145 C173 0.930 . S
H146 C174 0.929 . S
H147 C176 0.930 . S
H148 C153 0.930 . S
H149 C157 0.930 . S
O150 Co119 2.037 . S
O150 C170 1.234 . S
C151 O125 1.269 . S
C151 O126 1.257 . S
C152 H127 0.930 . S
C152 C155 1.388 . S
C152 C157 1.418 . S
C153 H148 0.930 . S
C153 C156 1.404 . S
C153 C157 1.353 . S
N154 Co119 2.145 . S
N154 C155 1.397 . S
N154 C156 1.334 . S
C155 H136 0.929 . S
C155 C152 1.388 . S
C155 N154 1.397 . S
C156 H137 0.929 . S
C156 C153 1.404 . S
C156 N154 1.334 . S
C157 H149 0.930 . S
C157 C152 1.418 . S
C157 C153 1.353 . S
C158 H128 0.930 . S
C158 N159 1.330 . S
C158 C160 1.446 . S
N159 Co118 2.151 . S
N159 C158 1.330 . S
N159 C163 1.418 . S
C160 H139 0.929 . S
C160 C158 1.446 . S
C160 C161 1.332 . S
C161 H141 0.931 . S
C161 C160 1.332 . S
C161 C162 1.267 . S
C162 H130 0.929 . S
C162 C161 1.267 . S
C162 C163 1.251 . S
C163 H133 0.929 . S
C163 N159 1.418 . S
C163 C162 1.251 . S
C164 H131 0.930 . S
C164 C166 1.406 . S
C164 C169 1.261 . S
C165 H132 0.930 . S
C165 N167 1.325 . S
C165 C168 1.357 . S
C166 H134 0.928 . S
C166 C164 1.406 . S
C166 N167 1.261 . S
N167 Co118 2.214 . S
N167 C165 1.325 . S
N167 C166 1.261 . S
C168 H138 0.931 . S
C168 C165 1.357 . S
C168 C169 1.312 . S
C169 H140 0.930 . S
C169 C164 1.261 . S
C169 C168 1.312 . S
C170 O142 1.214 . S
C170 O150 1.234 . S
C171 H143 0.929 . S
C171 C174 1.391 . S
C171 C176 1.391 . S
C172 H144 0.929 . S
C172 C173 1.390 . S
C172 N175 1.391 . S
C173 H145 0.930 . S
C173 C172 1.390 . S
C173 C174 1.392 . S
C174 H146 0.929 . S
C174 C171 1.391 . S
C174 C173 1.392 . S
N175 Co119 2.257 . S
N175 C172 1.391 . S
N175 C176 1.388 . S
C176 H147 0.930 . S
C176 C171 1.391 . S
C176 N175 1.388 . S
Co177 O179 2.143 . S
Co177 O185 2.074 . S
Co177 O188 2.093 . S
Co177 O201 2.097 . S
Co177 N218 2.151 . S
Co177 N226 2.214 . S
Co178 O179 2.160 . S
Co178 O184 2.058 . S
Co178 O194 2.057 . S
Co178 O209 2.037 . S
Co178 N213 2.145 . S
Co178 N234 2.257 . S
O179 Co177 2.143 . S
O179 Co178 2.160 . S
C180 O181 1.278 . S
C180 O188 1.224 . S
O181 C180 1.278 . S
C182 O183 1.245 . S
C182 O194 1.232 . S
O183 C182 1.245 . S
O184 Co178 2.058 . S
O184 C210 1.269 . S
O185 Co177 2.074 . S
O185 C210 1.257 . S
H186 C211 0.930 . S
H187 C217 0.930 . S
O188 Co177 2.093 . S
O188 C180 1.224 . S
H189 C221 0.929 . S
H190 C223 0.930 . S
H191 C224 0.930 . S
H192 C222 0.929 . S
H193 C225 0.928 . S
O194 Co178 2.057 . S
O194 C182 1.232 . S
H195 C214 0.929 . S
H196 C215 0.929 . S
H197 C227 0.931 . S
H198 C219 0.929 . S
H199 C228 0.930 . S
H200 C220 0.931 . S
O201 Co177 2.097 . S
O201 C229 1.214 . S
H202 C230 0.929 . S
H203 C231 0.929 . S
H204 C232 0.930 . S
H205 C233 0.929 . S
H206 C235 0.930 . S
H207 C212 0.930 . S
H208 C216 0.930 . S
O209 Co178 2.037 . S
O209 C229 1.234 . S
C210 O184 1.269 . S
C210 O185 1.257 . S
C211 H186 0.930 . S
C211 C214 1.388 . S
C211 C216 1.418 . S
C212 H207 0.930 . S
C212 C215 1.404 . S
C212 C216 1.353 . S
N213 Co178 2.145 . S
N213 C214 1.397 . S
N213 C215 1.334 . S
C214 H195 0.929 . S
C214 C211 1.388 . S
C214 N213 1.397 . S
C215 H196 0.929 . S
C215 C212 1.404 . S
C215 N213 1.334 . S
C216 H208 0.930 . S
C216 C211 1.418 . S
C216 C212 1.353 . S
C217 H187 0.930 . S
C217 N218 1.330 . S
C217 C219 1.446 . S
N218 Co177 2.151 . S
N218 C217 1.330 . S
N218 C222 1.418 . S
C219 H198 0.929 . S
C219 C217 1.446 . S
C219 C220 1.332 . S
C220 H200 0.931 . S
C220 C219 1.332 . S
C220 C221 1.267 . S
C221 H189 0.929 . S
C221 C220 1.267 . S
C221 C222 1.251 . S
C222 H192 0.929 . S
C222 N218 1.418 . S
C222 C221 1.251 . S
C223 H190 0.930 . S
C223 C225 1.406 . S
C223 C228 1.261 . S
C224 H191 0.930 . S
C224 N226 1.325 . S
C224 C227 1.357 . S
C225 H193 0.928 . S
C225 C223 1.406 . S
C225 N226 1.261 . S
N226 Co177 2.214 . S
N226 C224 1.325 . S
N226 C225 1.261 . S
C227 H197 0.931 . S
C227 C224 1.357 . S
C227 C228 1.312 . S
C228 H199 0.930 . S
C228 C223 1.261 . S
C228 C227 1.312 . S
C229 O201 1.214 . S
C229 O209 1.234 . S
C230 H202 0.929 . S
C230 C233 1.391 . S
C230 C235 1.391 . S
C231 H203 0.929 . S
C231 C232 1.390 . S
C231 N234 1.391 . S
C232 H204 0.930 . S
C232 C231 1.390 . S
C232 C233 1.392 . S
C233 H205 0.929 . S
C233 C230 1.391 . S
C233 C232 1.392 . S
N234 Co178 2.257 . S
N234 C231 1.391 . S
N234 C235 1.388 . S
C235 H206 0.930 . S
C235 C230 1.391 . S
C235 N234 1.388 . S
Co236 O238 2.143 . S
Co236 O244 2.074 . S
Co236 O247 2.093 . S
Co236 O260 2.097 . S
Co236 N277 2.151 . S
Co236 N285 2.214 . S
Co237 O238 2.160 . S
Co237 O243 2.058 . S
Co237 O253 2.057 . S
Co237 O268 2.037 . S
Co237 N272 2.145 . S
Co237 N293 2.257 . S
O238 Co236 2.143 . S
O238 Co237 2.160 . S
C239 O240 1.278 . S
C239 O247 1.224 . S
O240 C239 1.278 . S
C241 O242 1.245 . S
C241 O253 1.232 . S
O242 C241 1.245 . S
O243 Co237 2.058 . S
O243 C269 1.269 . S
O244 Co236 2.074 . S
O244 C269 1.257 . S
H245 C270 0.930 . S
H246 C276 0.930 . S
O247 Co236 2.093 . S
O247 C239 1.224 . S
H248 C280 0.929 . S
H249 C282 0.930 . S
H250 C283 0.930 . S
H251 C281 0.929 . S
H252 C284 0.928 . S
O253 Co237 2.057 . S
O253 C241 1.232 . S
H254 C273 0.929 . S
H255 C274 0.929 . S
H256 C286 0.931 . S
H257 C278 0.929 . S
H258 C287 0.930 . S
H259 C279 0.931 . S
O260 Co236 2.097 . S
O260 C288 1.214 . S
H261 C289 0.929 . S
H262 C290 0.929 . S
H263 C291 0.930 . S
H264 C292 0.929 . S
H265 C294 0.930 . S
H266 C271 0.930 . S
H267 C275 0.930 . S
O268 Co237 2.037 . S
O268 C288 1.234 . S
C269 O243 1.269 . S
C269 O244 1.257 . S
C270 H245 0.930 . S
C270 C273 1.388 . S
C270 C275 1.418 . S
C271 H266 0.930 . S
C271 C274 1.404 . S
C271 C275 1.353 . S
N272 Co237 2.145 . S
N272 C273 1.397 . S
N272 C274 1.334 . S
C273 H254 0.929 . S
C273 C270 1.388 . S
C273 N272 1.397 . S
C274 H255 0.929 . S
C274 C271 1.404 . S
C274 N272 1.334 . S
C275 H267 0.930 . S
C275 C270 1.418 . S
C275 C271 1.353 . S
C276 H246 0.930 . S
C276 N277 1.330 . S
C276 C278 1.446 . S
N277 Co236 2.151 . S
N277 C276 1.330 . S
N277 C281 1.418 . S
C278 H257 0.929 . S
C278 C276 1.446 . S
C278 C279 1.332 . S
C279 H259 0.931 . S
C279 C278 1.332 . S
C279 C280 1.267 . S
C280 H248 0.929 . S
C280 C279 1.267 . S
C280 C281 1.251 . S
C281 H251 0.929 . S
C281 N277 1.418 . S
C281 C280 1.251 . S
C282 H249 0.930 . S
C282 C284 1.406 . S
C282 C287 1.261 . S
C283 H250 0.930 . S
C283 N285 1.325 . S
C283 C286 1.357 . S
C284 H252 0.928 . S
C284 C282 1.406 . S
C284 N285 1.261 . S
N285 Co236 2.214 . S
N285 C283 1.325 . S
N285 C284 1.261 . S
C286 H256 0.931 . S
C286 C283 1.357 . S
C286 C287 1.312 . S
C287 H258 0.930 . S
C287 C282 1.261 . S
C287 C286 1.312 . S
C288 O260 1.214 . S
C288 O268 1.234 . S
C289 H261 0.929 . S
C289 C292 1.391 . S
C289 C294 1.391 . S
C290 H262 0.929 . S
C290 C291 1.390 . S
C290 N293 1.391 . S
C291 H263 0.930 . S
C291 C290 1.390 . S
C291 C292 1.392 . S
C292 H264 0.929 . S
C292 C289 1.391 . S
C292 C291 1.392 . S
N293 Co237 2.257 . S
N293 C290 1.391 . S
N293 C294 1.388 . S
C294 H265 0.930 . S
C294 C289 1.391 . S
C294 N293 1.388 . S
Co295 O297 2.143 . S
Co295 O303 2.074 . S
Co295 O306 2.093 . S
Co295 O319 2.097 . S
Co295 N336 2.151 . S
Co295 N344 2.214 . S
Co296 O297 2.160 . S
Co296 O302 2.058 . S
Co296 O312 2.057 . S
Co296 O327 2.037 . S
Co296 N331 2.145 . S
Co296 N352 2.257 . S
O297 Co295 2.143 . S
O297 Co296 2.160 . S
C298 O299 1.278 . S
C298 O306 1.224 . S
O299 C298 1.278 . S
C300 O301 1.245 . S
C300 O312 1.232 . S
O301 C300 1.245 . S
O302 Co296 2.058 . S
O302 C328 1.269 . S
O303 Co295 2.074 . S
O303 C328 1.257 . S
H304 C329 0.930 . S
H305 C335 0.930 . S
O306 Co295 2.093 . S
O306 C298 1.224 . S
H307 C339 0.929 . S
H308 C341 0.930 . S
H309 C342 0.930 . S
H310 C340 0.929 . S
H311 C343 0.928 . S
O312 Co296 2.057 . S
O312 C300 1.232 . S
H313 C332 0.929 . S
H314 C333 0.929 . S
H315 C345 0.931 . S
H316 C337 0.929 . S
H317 C346 0.930 . S
H318 C338 0.931 . S
O319 Co295 2.097 . S
O319 C347 1.214 . S
H320 C348 0.929 . S
H321 C349 0.929 . S
H322 C350 0.930 . S
H323 C351 0.929 . S
H324 C353 0.930 . S
H325 C330 0.930 . S
H326 C334 0.930 . S
O327 Co296 2.037 . S
O327 C347 1.234 . S
C328 O302 1.269 . S
C328 O303 1.257 . S
C329 H304 0.930 . S
C329 C332 1.388 . S
C329 C334 1.418 . S
C330 H325 0.930 . S
C330 C333 1.404 . S
C330 C334 1.353 . S
N331 Co296 2.145 . S
N331 C332 1.397 . S
N331 C333 1.334 . S
C332 H313 0.929 . S
C332 C329 1.388 . S
C332 N331 1.397 . S
C333 H314 0.929 . S
C333 C330 1.404 . S
C333 N331 1.334 . S
C334 H326 0.930 . S
C334 C329 1.418 . S
C334 C330 1.353 . S
C335 H305 0.930 . S
C335 N336 1.330 . S
C335 C337 1.446 . S
N336 Co295 2.151 . S
N336 C335 1.330 . S
N336 C340 1.418 . S
C337 H316 0.929 . S
C337 C335 1.446 . S
C337 C338 1.332 . S
C338 H318 0.931 . S
C338 C337 1.332 . S
C338 C339 1.267 . S
C339 H307 0.929 . S
C339 C338 1.267 . S
C339 C340 1.251 . S
C340 H310 0.929 . S
C340 N336 1.418 . S
C340 C339 1.251 . S
C341 H308 0.930 . S
C341 C343 1.406 . S
C341 C346 1.261 . S
C342 H309 0.930 . S
C342 N344 1.325 . S
C342 C345 1.357 . S
C343 H311 0.928 . S
C343 C341 1.406 . S
C343 N344 1.261 . S
N344 Co295 2.214 . S
N344 C342 1.325 . S
N344 C343 1.261 . S
C345 H315 0.931 . S
C345 C342 1.357 . S
C345 C346 1.312 . S
C346 H317 0.930 . S
C346 C341 1.261 . S
C346 C345 1.312 . S
C347 O319 1.214 . S
C347 O327 1.234 . S
C348 H320 0.929 . S
C348 C351 1.391 . S
C348 C353 1.391 . S
C349 H321 0.929 . S
C349 C350 1.390 . S
C349 N352 1.391 . S
C350 H322 0.930 . S
C350 C349 1.390 . S
C350 C351 1.392 . S
C351 H323 0.929 . S
C351 C348 1.391 . S
C351 C350 1.392 . S
N352 Co296 2.257 . S
N352 C349 1.391 . S
N352 C353 1.388 . S
C353 H324 0.930 . S
C353 C348 1.391 . S
C353 N352 1.388 . S
H354 C355 0.951 . S
C355 H354 0.951 . S
C355 C361 1.265 . S
H356 C361 0.950 . S
H357 C365 0.949 . S
H358 C366 0.950 . S
H359 C367 0.951 . S
H360 C368 0.951 . S
C361 C355 1.265 . S
C361 H356 0.950 . S
C361 C362 1.478 . S
C362 C361 1.478 . S
C362 C363 1.397 . S
C362 C379 1.394 . S
C363 C362 1.397 . S
C363 C364 1.438 1_545 S
C363 C368 1.429 . S
C364 C363 1.438 1_565 S
C364 C365 1.428 . S
C364 C377 1.394 . S
C365 H357 0.949 . S
C365 C364 1.428 . S
C365 C366 1.345 . S
C366 H358 0.950 . S
C366 C365 1.345 . S
C366 C367 1.424 1_565 S
C367 H359 0.951 . S
C367 C366 1.424 1_545 S
C367 C368 1.347 . S
C368 H360 0.951 . S
C368 C363 1.429 . S
C368 C367 1.347 . S
H369 C370 0.951 . S
C370 H369 0.951 . S
C370 C376 1.265 . S
H371 C376 0.950 . S
H372 C380 0.949 . S
H373 C381 0.950 . S
H374 C382 0.951 . S
H375 C383 0.951 . S
C376 C370 1.265 . S
C376 H371 0.950 . S
C376 C377 1.478 . S
C377 C364 1.394 . S
C377 C376 1.478 . S
C377 C378 1.397 . S
C378 C377 1.397 . S
C378 C379 1.438 1_565 S
C378 C383 1.429 . S
C379 C362 1.394 . S
C379 C378 1.438 1_545 S
C379 C380 1.428 . S
C380 H372 0.949 . S
C380 C379 1.428 . S
C380 C381 1.345 . S
C381 H373 0.950 . S
C381 C380 1.345 . S
C381 C382 1.424 1_545 S
C382 H374 0.951 . S
C382 C381 1.424 1_565 S
C382 C383 1.347 . S
C383 H375 0.951 . S
C383 C378 1.429 . S
C383 C382 1.347 . S
H384 C385 0.951 . S
C385 H384 0.951 . S
C385 C391 1.265 . S
H386 C391 0.950 . S
H387 C395 0.949 . S
H388 C396 0.950 . S
H389 C397 0.951 . S
H390 C398 0.951 . S
C391 C385 1.265 . S
C391 H386 0.950 . S
C391 C392 1.478 . S
C392 C391 1.478 . S
C392 C393 1.397 . S
C392 C409 1.394 . S
C393 C392 1.397 . S
C393 C394 1.438 . S
C393 C398 1.429 . S
C394 C393 1.438 . S
C394 C395 1.428 . S
C394 C407 1.394 . S
C395 H387 0.949 . S
C395 C394 1.428 . S
C395 C396 1.345 . S
C396 H388 0.950 . S
C396 C395 1.345 . S
C396 C397 1.424 . S
C397 H389 0.951 . S
C397 C396 1.424 . S
C397 C398 1.347 . S
C398 H390 0.951 . S
C398 C393 1.429 . S
C398 C397 1.347 . S
H399 C400 0.951 . S
C400 H399 0.951 . S
C400 C406 1.265 . S
H401 C406 0.950 . S
H402 C410 0.949 . S
H403 C411 0.950 . S
H404 C412 0.951 . S
H405 C413 0.951 . S
C406 C400 1.265 . S
C406 H401 0.950 . S
C406 C407 1.478 . S
C407 C394 1.394 . S
C407 C406 1.478 . S
C407 C408 1.397 . S
C408 C407 1.397 . S
C408 C409 1.438 . S
C408 C413 1.429 . S
C409 C392 1.394 . S
C409 C408 1.438 . S
C409 C410 1.428 . S
C410 H402 0.949 . S
C410 C409 1.428 . S
C410 C411 1.345 . S
C411 H403 0.950 . S
C411 C410 1.345 . S
C411 C412 1.424 . S
C412 H404 0.951 . S
C412 C411 1.424 . S
C412 C413 1.347 . S
C413 H405 0.951 . S
C413 C408 1.429 . S
C413 C412 1.347 . S
H414 C415 0.951 . S
C415 H414 0.951 . S
C415 C421 1.265 . S
H416 C421 0.950 . S
H417 C425 0.949 . S
H418 C426 0.950 . S
H419 C427 0.951 . S
H420 C428 0.951 . S
C421 C415 1.265 . S
C421 H416 0.950 . S
C421 C422 1.478 . S
C422 C421 1.478 . S
C422 C423 1.397 . S
C422 C439 1.394 . S
C423 C422 1.397 . S
C423 C424 1.438 1_655 S
C423 C428 1.429 . S
C424 C423 1.438 1_455 S
C424 C425 1.428 . S
C424 C437 1.394 . S
C425 H417 0.949 . S
C425 C424 1.428 . S
C425 C426 1.345 . S
C426 H418 0.950 . S
C426 C425 1.345 . S
C426 C427 1.424 1_455 S
C427 H419 0.951 . S
C427 C426 1.424 1_655 S
C427 C428 1.347 . S
C428 H420 0.951 . S
C428 C423 1.429 . S
C428 C427 1.347 . S
H429 C430 0.951 . S
C430 H429 0.951 . S
C430 C436 1.265 . S
H431 C436 0.950 . S
H432 C440 0.949 . S
H433 C441 0.950 . S
H434 C442 0.951 . S
H435 C443 0.951 . S
C436 C430 1.265 . S
C436 H431 0.950 . S
C436 C437 1.478 . S
C437 C424 1.394 . S
C437 C436 1.478 . S
C437 C438 1.397 . S
C438 C437 1.397 . S
C438 C439 1.438 1_455 S
C438 C443 1.429 . S
C439 C422 1.394 . S
C439 C438 1.438 1_655 S
C439 C440 1.428 . S
C440 H432 0.949 . S
C440 C439 1.428 . S
C440 C441 1.345 . S
C441 H433 0.950 . S
C441 C440 1.345 . S
C441 C442 1.424 1_655 S
C442 H434 0.951 . S
C442 C441 1.424 1_455 S
C442 C443 1.347 . S
C443 H435 0.951 . S
C443 C438 1.429 . S
C443 C442 1.347 . S
H444 C445 0.951 . S
C445 H444 0.951 . S
C445 C451 1.265 . S
H446 C451 0.950 . S
H447 C455 0.949 . S
H448 C456 0.950 . S
H449 C457 0.951 . S
H450 C458 0.951 . S
C451 C445 1.265 . S
C451 H446 0.950 . S
C451 C452 1.478 . S
C452 C451 1.478 . S
C452 C453 1.397 . S
C452 C469 1.394 . S
C453 C452 1.397 . S
C453 C454 1.438 1_455 S
C453 C458 1.429 . S
C454 C453 1.438 1_655 S
C454 C455 1.428 . S
C454 C467 1.394 . S
C455 H447 0.949 . S
C455 C454 1.428 . S
C455 C456 1.345 . S
C456 H448 0.950 . S
C456 C455 1.345 . S
C456 C457 1.424 1_655 S
C457 H449 0.951 . S
C457 C456 1.424 1_455 S
C457 C458 1.347 . S
C458 H450 0.951 . S
C458 C453 1.429 . S
C458 C457 1.347 . S
H459 C460 0.951 . S
C460 H459 0.951 . S
C460 C466 1.265 . S
H461 C466 0.950 . S
H462 C470 0.949 . S
H463 C471 0.950 . S
H464 C472 0.951 . S
H465 C473 0.951 . S
C466 C460 1.265 . S
C466 H461 0.950 . S
C466 C467 1.478 . S
C467 C454 1.394 . S
C467 C466 1.478 . S
C467 C468 1.397 . S
C468 C467 1.397 . S
C468 C469 1.438 1_655 S
C468 C473 1.429 . S
C469 C452 1.394 . S
C469 C468 1.438 1_455 S
C469 C470 1.428 . S
C470 H462 0.949 . S
C470 C469 1.428 . S
C470 C471 1.345 . S
C471 H463 0.950 . S
C471 C470 1.345 . S
C471 C472 1.424 1_455 S
C472 H464 0.951 . S
C472 C471 1.424 1_655 S
C472 C473 1.347 . S
C473 H465 0.951 . S
C473 C468 1.429 . S
C473 C472 1.347 . S
H474 C475 0.951 . S
C475 H474 0.951 . S
C475 C481 1.265 . S
H476 C481 0.950 . S
H477 C485 0.949 . S
H478 C486 0.950 . S
H479 C487 0.951 . S
H480 C488 0.951 . S
C481 C475 1.265 . S
C481 H476 0.950 . S
C481 C482 1.478 . S
C482 C481 1.478 . S
C482 C483 1.397 . S
C482 C499 1.394 . S
C483 C482 1.397 . S
C483 C484 1.438 1_565 S
C483 C488 1.429 . S
C484 C483 1.438 1_545 S
C484 C485 1.428 . S
C484 C497 1.394 . S
C485 H477 0.949 . S
C485 C484 1.428 . S
C485 C486 1.345 . S
C486 H478 0.950 . S
C486 C485 1.345 . S
C486 C487 1.424 1_545 S
C487 H479 0.951 . S
C487 C486 1.424 1_565 S
C487 C488 1.347 . S
C488 H480 0.951 . S
C488 C483 1.429 . S
C488 C487 1.347 . S
H489 C490 0.951 . S
C490 H489 0.951 . S
C490 C496 1.265 . S
H491 C496 0.950 . S
H492 C500 0.949 . S
H493 C501 0.950 . S
H494 C502 0.951 . S
H495 C503 0.951 . S
C496 C490 1.265 . S
C496 H491 0.950 . S
C496 C497 1.478 . S
C497 C484 1.394 . S
C497 C496 1.478 . S
C497 C498 1.397 . S
C498 C497 1.397 . S
C498 C499 1.438 1_545 S
C498 C503 1.429 . S
C499 C482 1.394 . S
C499 C498 1.438 1_565 S
C499 C500 1.428 . S
C500 H492 0.949 . S
C500 C499 1.428 . S
C500 C501 1.345 . S
C501 H493 0.950 . S
C501 C500 1.345 . S
C501 C502 1.424 1_565 S
C502 H494 0.951 . S
C502 C501 1.424 1_545 S
C502 C503 1.347 . S
C503 H495 0.951 . S
C503 C498 1.429 . S
C503 C502 1.347 . S
H504 C505 0.951 . S
C505 H504 0.951 . S
C505 C511 1.265 . S
H506 C511 0.950 . S
H507 C515 0.949 . S
H508 C516 0.950 . S
H509 C517 0.951 . S
H510 C518 0.951 . S
C511 C505 1.265 . S
C511 H506 0.950 . S
C511 C512 1.478 . S
C512 C511 1.478 . S
C512 C513 1.397 . S
C512 C529 1.394 . S
C513 C512 1.397 . S
C513 C514 1.438 . S
C513 C518 1.429 . S
C514 C513 1.438 . S
C514 C515 1.428 . S
C514 C527 1.394 . S
C515 H507 0.949 . S
C515 C514 1.428 . S
C515 C516 1.345 . S
C516 H508 0.950 . S
C516 C515 1.345 . S
C516 C517 1.424 . S
C517 H509 0.951 . S
C517 C516 1.424 . S
C517 C518 1.347 . S
C518 H510 0.951 . S
C518 C513 1.429 . S
C518 C517 1.347 . S
H519 C520 0.951 . S
C520 H519 0.951 . S
C520 C526 1.265 . S
H521 C526 0.950 . S
H522 C530 0.949 . S
H523 C531 0.950 . S
H524 C532 0.951 . S
H525 C533 0.951 . S
C526 C520 1.265 . S
C526 H521 0.950 . S
C526 C527 1.478 . S
C527 C514 1.394 . S
C527 C526 1.478 . S
C527 C528 1.397 . S
C528 C527 1.397 . S
C528 C529 1.438 . S
C528 C533 1.429 . S
C529 C512 1.394 . S
C529 C528 1.438 . S
C529 C530 1.428 . S
C530 H522 0.949 . S
C530 C529 1.428 . S
C530 C531 1.345 . S
C531 H523 0.950 . S
C531 C530 1.345 . S
C531 C532 1.424 . S
C532 H524 0.951 . S
C532 C531 1.424 . S
C532 C533 1.347 . S
C533 H525 0.951 . S
C533 C528 1.429 . S
C533 C532 1.347 . S
H534 C535 0.951 . S
C535 H534 0.951 . S
C535 C541 1.265 . S
H536 C541 0.950 . S
H537 C545 0.949 . S
H538 C546 0.950 . S
H539 C547 0.951 . S
H540 C548 0.951 . S
C541 C535 1.265 . S
C541 H536 0.950 . S
C541 C542 1.478 . S
C542 C541 1.478 . S
C542 C543 1.397 . S
C542 C559 1.394 . S
C543 C542 1.397 . S
C543 C544 1.438 1_556 S
C543 C548 1.429 . S
C544 C543 1.438 1_554 S
C544 C545 1.428 . S
C544 C557 1.394 . S
C545 H537 0.949 . S
C545 C544 1.428 . S
C545 C546 1.345 . S
C546 H538 0.950 . S
C546 C545 1.345 . S
C546 C547 1.424 1_554 S
C547 H539 0.951 . S
C547 C546 1.424 1_556 S
C547 C548 1.347 . S
C548 H540 0.951 . S
C548 C543 1.429 . S
C548 C547 1.347 . S
H549 C550 0.951 . S
C550 H549 0.951 . S
C550 C556 1.265 . S
H551 C556 0.950 . S
H552 C560 0.949 . S
H553 C561 0.950 . S
H554 C562 0.951 . S
H555 C563 0.951 . S
C556 C550 1.265 . S
C556 H551 0.950 . S
C556 C557 1.478 . S
C557 C544 1.394 . S
C557 C556 1.478 . S
C557 C558 1.397 . S
C558 C557 1.397 . S
C558 C559 1.438 1_554 S
C558 C563 1.429 . S
C559 C542 1.394 . S
C559 C558 1.438 1_556 S
C559 C560 1.428 . S
C560 H552 0.949 . S
C560 C559 1.428 . S
C560 C561 1.345 . S
C561 H553 0.950 . S
C561 C560 1.345 . S
C561 C562 1.424 1_556 S
C562 H554 0.951 . S
C562 C561 1.424 1_554 S
C562 C563 1.347 . S
C563 H555 0.951 . S
C563 C558 1.429 . S
C563 C562 1.347 . S
H564 C565 0.951 . S
C565 H564 0.951 . S
C565 C571 1.265 . S
H566 C571 0.950 . S
H567 C575 0.949 . S
H568 C576 0.950 . S
H569 C577 0.951 . S
H570 C578 0.951 . S
C571 C565 1.265 . S
C571 H566 0.950 . S
C571 C572 1.478 . S
C572 C571 1.478 . S
C572 C573 1.397 . S
C572 C589 1.394 . S
C573 C572 1.397 . S
C573 C574 1.438 . S
C573 C578 1.429 . S
C574 C573 1.438 . S
C574 C575 1.428 . S
C574 C587 1.394 . S
C575 H567 0.949 . S
C575 C574 1.428 . S
C575 C576 1.345 . S
C576 H568 0.950 . S
C576 C575 1.345 . S
C576 C577 1.424 . S
C577 H569 0.951 . S
C577 C576 1.424 . S
C577 C578 1.347 . S
C578 H570 0.951 . S
C578 C573 1.429 . S
C578 C577 1.347 . S
H579 C580 0.951 . S
C580 H579 0.951 . S
C580 C586 1.265 . S
H581 C586 0.950 . S
H582 C590 0.949 . S
H583 C591 0.950 . S
H584 C592 0.951 . S
H585 C593 0.951 . S
C586 C580 1.265 . S
C586 H581 0.950 . S
C586 C587 1.478 . S
C587 C574 1.394 . S
C587 C586 1.478 . S
C587 C588 1.397 . S
C588 C587 1.397 . S
C588 C589 1.438 . S
C588 C593 1.429 . S
C589 C572 1.394 . S
C589 C588 1.438 . S
C589 C590 1.428 . S
C590 H582 0.949 . S
C590 C589 1.428 . S
C590 C591 1.345 . S
C591 H583 0.950 . S
C591 C590 1.345 . S
C591 C592 1.424 . S
C592 H584 0.951 . S
C592 C591 1.424 . S
C592 C593 1.347 . S
C593 H585 0.951 . S
C593 C588 1.429 . S
C593 C592 1.347 . S
H594 C595 0.951 . S
C595 H594 0.951 . S
C595 C601 1.265 . S
H596 C601 0.950 . S
H597 C605 0.949 . S
H598 C606 0.950 . S
H599 C607 0.951 . S
H600 C608 0.951 . S
C601 C595 1.265 . S
C601 H596 0.950 . S
C601 C602 1.478 . S
C602 C601 1.478 . S
C602 C603 1.397 . S
C602 C619 1.394 . S
C603 C602 1.397 . S
C603 C604 1.438 . S
C603 C608 1.429 . S
C604 C603 1.438 . S
C604 C605 1.428 . S
C604 C617 1.394 . S
C605 H597 0.949 . S
C605 C604 1.428 . S
C605 C606 1.345 . S
C606 H598 0.950 . S
C606 C605 1.345 . S
C606 C607 1.424 . S
C607 H599 0.951 . S
C607 C606 1.424 . S
C607 C608 1.347 . S
C608 H600 0.951 . S
C608 C603 1.429 . S
C608 C607 1.347 . S
H609 C610 0.951 . S
C610 H609 0.951 . S
C610 C616 1.265 . S
H611 C616 0.950 . S
H612 C620 0.949 . S
H613 C621 0.950 . S
H614 C622 0.951 . S
H615 C623 0.951 . S
C616 C610 1.265 . S
C616 H611 0.950 . S
C616 C617 1.478 . S
C617 C604 1.394 . S
C617 C616 1.478 . S
C617 C618 1.397 . S
C618 C617 1.397 . S
C618 C619 1.438 . S
C618 C623 1.429 . S
C619 C602 1.394 . S
C619 C618 1.438 . S
C619 C620 1.428 . S
C620 H612 0.949 . S
C620 C619 1.428 . S
C620 C621 1.345 . S
C621 H613 0.950 . S
C621 C620 1.345 . S
C621 C622 1.424 . S
C622 H614 0.951 . S
C622 C621 1.424 . S
C622 C623 1.347 . S
C623 H615 0.951 . S
C623 C618 1.429 . S
C623 C622 1.347 . S
H624 C625 0.951 . S
C625 H624 0.951 . S
C625 C631 1.265 . S
H626 C631 0.950 . S
H627 C635 0.949 . S
H628 C636 0.950 . S
H629 C637 0.951 . S
H630 C638 0.951 . S
C631 C625 1.265 . S
C631 H626 0.950 . S
C631 C632 1.478 . S
C632 C631 1.478 . S
C632 C633 1.397 . S
C632 C649 1.394 . S
C633 C632 1.397 . S
C633 C634 1.438 1_556 S
C633 C638 1.429 . S
C634 C633 1.438 1_554 S
C634 C635 1.428 . S
C634 C647 1.394 . S
C635 H627 0.949 . S
C635 C634 1.428 . S
C635 C636 1.345 . S
C636 H628 0.950 . S
C636 C635 1.345 . S
C636 C637 1.424 1_554 S
C637 H629 0.951 . S
C637 C636 1.424 1_556 S
C637 C638 1.347 . S
C638 H630 0.951 . S
C638 C633 1.429 . S
C638 C637 1.347 . S
H639 C640 0.951 . S
C640 H639 0.951 . S
C640 C646 1.265 . S
H641 C646 0.950 . S
H642 C650 0.949 . S
H643 C651 0.950 . S
H644 C652 0.951 . S
H645 C653 0.951 . S
C646 C640 1.265 . S
C646 H641 0.950 . S
C646 C647 1.478 . S
C647 C634 1.394 . S
C647 C646 1.478 . S
C647 C648 1.397 . S
C648 C647 1.397 . S
C648 C649 1.438 1_554 S
C648 C653 1.429 . S
C649 C632 1.394 . S
C649 C648 1.438 1_556 S
C649 C650 1.428 . S
C650 H642 0.949 . S
C650 C649 1.428 . S
C650 C651 1.345 . S
C651 H643 0.950 . S
C651 C650 1.345 . S
C651 C652 1.424 1_556 S
C652 H644 0.951 . S
C652 C651 1.424 1_554 S
C652 C653 1.347 . S
C653 H645 0.951 . S
C653 C648 1.429 . S
C653 C652 1.347 . S
H654 C655 0.951 . S
C655 H654 0.951 . S
C655 C661 1.265 . S
H656 C661 0.950 . S
H657 C665 0.949 . S
H658 C666 0.950 . S
H659 C667 0.951 . S
H660 C668 0.951 . S
C661 C655 1.265 . S
C661 H656 0.950 . S
C661 C662 1.478 . S
C662 C661 1.478 . S
C662 C663 1.397 . S
C662 C679 1.394 . S
C663 C662 1.397 . S
C663 C664 1.438 . S
C663 C668 1.429 . S
C664 C663 1.438 . S
C664 C665 1.428 . S
C664 C677 1.394 . S
C665 H657 0.949 . S
C665 C664 1.428 . S
C665 C666 1.345 . S
C666 H658 0.950 . S
C666 C665 1.345 . S
C666 C667 1.424 . S
C667 H659 0.951 . S
C667 C666 1.424 . S
C667 C668 1.347 . S
C668 H660 0.951 . S
C668 C663 1.429 . S
C668 C667 1.347 . S
H669 C670 0.951 . S
C670 H669 0.951 . S
C670 C676 1.265 . S
H671 C676 0.950 . S
H672 C680 0.949 . S
H673 C681 0.950 . S
H674 C682 0.951 . S
H675 C683 0.951 . S
C676 C670 1.265 . S
C676 H671 0.950 . S
C676 C677 1.478 . S
C677 C664 1.394 . S
C677 C676 1.478 . S
C677 C678 1.397 . S
C678 C677 1.397 . S
C678 C679 1.438 . S
C678 C683 1.429 . S
C679 C662 1.394 . S
C679 C678 1.438 . S
C679 C680 1.428 . S
C680 H672 0.949 . S
C680 C679 1.428 . S
C680 C681 1.345 . S
C681 H673 0.950 . S
C681 C680 1.345 . S
C681 C682 1.424 . S
C682 H674 0.951 . S
C682 C681 1.424 . S
C682 C683 1.347 . S
C683 H675 0.951 . S
C683 C678 1.429 . S
C683 C682 1.347 . S
H684 C685 0.951 . S
C685 H684 0.951 . S
C685 C691 1.265 . S
H686 C691 0.950 . S
H687 C695 0.949 . S
H688 C696 0.950 . S
H689 C697 0.951 . S
H690 C698 0.951 . S
C691 C685 1.265 . S
C691 H686 0.950 . S
C691 C692 1.478 . S
C692 C691 1.478 . S
C692 C693 1.397 . S
C692 C709 1.394 . S
C693 C692 1.397 . S
C693 C694 1.438 . S
C693 C698 1.429 . S
C694 C693 1.438 . S
C694 C695 1.428 . S
C694 C707 1.394 . S
C695 H687 0.949 . S
C695 C694 1.428 . S
C695 C696 1.345 . S
C696 H688 0.950 . S
C696 C695 1.345 . S
C696 C697 1.424 . S
C697 H689 0.951 . S
C697 C696 1.424 . S
C697 C698 1.347 . S
C698 H690 0.951 . S
C698 C693 1.429 . S
C698 C697 1.347 . S
H699 C700 0.951 . S
C700 H699 0.951 . S
C700 C706 1.265 . S
H701 C706 0.950 . S
H702 C710 0.949 . S
H703 C711 0.950 . S
H704 C712 0.951 . S
H705 C713 0.951 . S
C706 C700 1.265 . S
C706 H701 0.950 . S
C706 C707 1.478 . S
C707 C694 1.394 . S
C707 C706 1.478 . S
C707 C708 1.397 . S
C708 C707 1.397 . S
C708 C709 1.438 . S
C708 C713 1.429 . S
C709 C692 1.394 . S
C709 C708 1.438 . S
C709 C710 1.428 . S
C710 H702 0.949 . S
C710 C709 1.428 . S
C710 C711 1.345 . S
C711 H703 0.950 . S
C711 C710 1.345 . S
C711 C712 1.424 . S
C712 H704 0.951 . S
C712 C711 1.424 . S
C712 C713 1.347 . S
C713 H705 0.951 . S
C713 C708 1.429 . S
C713 C712 1.347 . S
C355 C5 1.169 . S
C370 C182 1.169 . S
C385 C64 1.169 . S
C400 C241 1.169 . S
C415 C123 1.182 . S
C430 C300 1.182 . S
C445 C111 1.849 . S
C460 C288 1.847 . S
C475 C347 1.854 . S
C490 C170 1.855 . S
C505 C229 1.853 . S
C520 C52 1.855 . S
C535 C151 1.366 . S
C550 C3 1.365 . S
C565 C210 1.355 . S
C580 C62 1.342 . S
C595 C121 1.355 . S
C610 C269 1.352 . S
C625 C328 1.367 . S
C640 C180 1.365 . S
C655 C239 1.338 . S
C670 C33 1.352 . S
C685 C298 1.302 . S
C700 C92 1.321 . S
