# Generated by pormake.
# Topology msp, (4)-cn, num edge types: 1
# Building blocks:
#     Node 0, Type 0, BuildingBlock: CEKHIL_clean_sbu_0, # of connection points: 4
#     Node 1, Type 0, BuildingBlock: CEKHIL_clean_sbu_0, # of connection points: 4
#     Node 2, Type 0, BuildingBlock: CEKHIL_clean_sbu_0, # of connection points: 4
#     Node 3, Type 0, BuildingBlock: CEKHIL_clean_sbu_0, # of connection points: 4
#     Node 4, Type 0, BuildingBlock: CEKHIL_clean_sbu_0, # of connection points: 4
#     Node 5, Type 0, BuildingBlock: CEKHIL_clean_sbu_0, # of connection points: 4
#     Node 6, Type 0, BuildingBlock: CEKHIL_clean_sbu_0, # of connection points: 4
#     Node 7, Type 0, BuildingBlock: CEKHIL_clean_sbu_0, # of connection points: 4
#     Edge 8, Type (0, 0), BuildingBlock: UVAHIK_clean_linker_0, # of connection points: 2
#     Edge 9, Type (0, 0), BuildingBlock: UVAHIK_clean_linker_0, # of connection points: 2
#     Edge 10, Type (0, 0), BuildingBlock: UVAHIK_clean_linker_0, # of connection points: 2
#     Edge 11, Type (0, 0), BuildingBlock: UVAHIK_clean_linker_0, # of connection points: 2
#     Edge 12, Type (0, 0), BuildingBlock: UVAHIK_clean_linker_0, # of connection points: 2
#     Edge 13, Type (0, 0), BuildingBlock: UVAHIK_clean_linker_0, # of connection points: 2
#     Edge 14, Type (0, 0), BuildingBlock: UVAHIK_clean_linker_0, # of connection points: 2
#     Edge 15, Type (0, 0), BuildingBlock: UVAHIK_clean_linker_0, # of connection points: 2
#     Edge 16, Type (0, 0), BuildingBlock: UVAHIK_clean_linker_0, # of connection points: 2
#     Edge 17, Type (0, 0), BuildingBlock: UVAHIK_clean_linker_0, # of connection points: 2
#     Edge 18, Type (0, 0), BuildingBlock: UVAHIK_clean_linker_0, # of connection points: 2
#     Edge 19, Type (0, 0), BuildingBlock: UVAHIK_clean_linker_0, # of connection points: 2
#     Edge 20, Type (0, 0), BuildingBlock: UVAHIK_clean_linker_0, # of connection points: 2
#     Edge 21, Type (0, 0), BuildingBlock: UVAHIK_clean_linker_0, # of connection points: 2
#     Edge 22, Type (0, 0), BuildingBlock: UVAHIK_clean_linker_0, # of connection points: 2
#     Edge 23, Type (0, 0), BuildingBlock: UVAHIK_clean_linker_0, # of connection points: 2
# Relax obj value: 0.161
# Max RMSD: 0.204
# Mean RMSD: 0.204
data_MOF--net-msp--node1-CEKHIL_clean_sbu_0--edge1-UVAHIK_clean_linker_0
_symmetry_space_group_name_H-M    P1
_symmetry_Int_Tables_number       1
_symmetry_cell_setting            triclinic
loop_
_symmetry_equiv_pos_as_xyz
'x, y, z'
_cell_length_a     30.27227
_cell_length_b     29.731307
_cell_length_c     50.699016
_cell_angle_alpha  89.953431
_cell_angle_beta   99.304514
_cell_angle_gamma 89.993711
loop_
_atom_site_label
_atom_site_type_symbol
_atom_site_fract_x
_atom_site_fract_y
_atom_site_fract_z
_atom_type_partial_charge
Co0 Co 0.01366 0.28118 0.35916 0.0
O1 O 0.97414 0.30718 0.32964 0.0
O2 O 0.9771 0.23469 0.33978 0.0
C3 C -0.00064 0.33383 0.38851 0.0
O4 O 0.04915 0.24209 0.38827 0.0
Co5 Co 0.09395 0.33425 0.39108 0.0
O6 O 0.09129 0.28659 0.41811 0.0
C7 C 0.10114 0.29233 0.33851 0.0
C8 C 0.95829 0.26702 0.32464 0.0
C9 C 0.07459 0.24838 0.41087 0.0
O10 O 0.06219 0.27391 0.33661 0.0
O11 O 0.11748 0.31888 0.35751 0.0
O12 O 0.97264 0.29958 0.38347 0.0
O13 O 0.03194 0.33578 0.37515 0.0
Co14 Co 0.47031 0.28139 0.62132 0.0
O15 O 0.51418 0.31136 0.64683 0.0
O16 O 0.50875 0.23746 0.64186 0.0
C17 C 0.47886 0.32622 0.58679 0.0
O18 O 0.43001 0.23896 0.59652 0.0
Co19 Co 0.38622 0.3349 0.5937 0.0
O20 O 0.37577 0.27987 0.57161 0.0
C21 C 0.39268 0.30488 0.64969 0.0
C22 C 0.52978 0.27179 0.65392 0.0
C23 C 0.3963 0.24292 0.57762 0.0
O24 O 0.42709 0.28037 0.64769 0.0
O25 O 0.37499 0.33222 0.63147 0.0
O26 O 0.50633 0.2929 0.59313 0.0
O27 O 0.45035 0.3331 0.60259 0.0
Co28 Co 0.97594 0.71358 0.62458 0.0
O29 O 0.01916 0.68713 0.65202 0.0
O30 O 0.0127 0.76019 0.64369 0.0
C31 C 0.98759 0.66403 0.59291 0.0
O32 O 0.93615 0.7529 0.59755 0.0
Co33 Co 0.89418 0.65822 0.5961 0.0
O34 O 0.89 0.70817 0.56983 0.0
C35 C 0.89512 0.69443 0.65076 0.0
C36 C 0.03381 0.72757 0.65754 0.0
C37 C 0.90727 0.74647 0.57633 0.0
O38 O 0.93095 0.7173 0.64969 0.0
O39 O 0.87814 0.66665 0.6326 0.0
O40 O 0.0138 0.69871 0.59778 0.0
O41 O 0.9577 0.65955 0.60806 0.0
Co42 Co 0.51945 0.71752 0.36188 0.0
O43 O 0.47634 0.68737 0.33601 0.0
O44 O 0.48103 0.76128 0.34121 0.0
C45 C 0.51057 0.67228 0.39617 0.0
O46 O 0.55883 0.7601 0.38707 0.0
Co47 Co 0.60361 0.6645 0.38984 0.0
O48 O 0.61361 0.71964 0.41184 0.0
C49 C 0.59776 0.69475 0.33396 0.0
C50 C 0.46057 0.72687 0.3289 0.0
C51 C 0.59258 0.75636 0.40595 0.0
O52 O 0.56328 0.71921 0.33588 0.0
O53 O 0.61526 0.66729 0.35216 0.0
O54 O 0.48286 0.70537 0.38971 0.0
O55 O 0.53951 0.66583 0.38058 0.0
Co56 Co 0.51874 0.78507 0.86009 0.0
O57 O 0.47512 0.81393 0.83385 0.0
O58 O 0.48099 0.74026 0.83997 0.0
C59 C 0.509 0.83137 0.89373 0.0
O60 O 0.55883 0.74358 0.88565 0.0
Co61 Co 0.60198 0.83831 0.88869 0.0
O62 O 0.60602 0.78675 0.91382 0.0
C63 C 0.59861 0.80585 0.83316 0.0
C64 C 0.45989 0.77404 0.8273 0.0
C65 C 0.58823 0.74888 0.90677 0.0
O66 O 0.56273 0.78311 0.83428 0.0
O67 O 0.61657 0.83245 0.85171 0.0
O68 O 0.48193 0.79763 0.88775 0.0
O69 O 0.5381 0.83751 0.8782 0.0
Co70 Co 0.97711 0.78598 0.12594 0.0
O71 O 0.02029 0.81114 0.15379 0.0
O72 O 0.01375 0.73849 0.14432 0.0
C73 C 0.98898 0.83672 0.09491 0.0
O74 O 0.93732 0.74816 0.09811 0.0
Co75 Co 0.89563 0.84425 0.09948 0.0
O76 O 0.88452 0.79257 0.07468 0.0
C77 C 0.89739 0.80501 0.1533 0.0
C78 C 0.03492 0.77051 0.15866 0.0
C79 C 0.90436 0.75486 0.07906 0.0
O80 O 0.93204 0.78099 0.15104 0.0
O81 O 0.88131 0.835 0.13626 0.0
O82 O 0.01507 0.80188 0.0994 0.0
O83 O 0.95938 0.8409 0.11028 0.0
Co84 Co 0.47325 0.22021 0.12236 0.0
O85 O 0.51264 0.19239 0.1513 0.0
O86 O 0.51104 0.26528 0.14224 0.0
C87 C 0.48575 0.16871 0.0919 0.0
O88 O 0.43804 0.26088 0.09395 0.0
Co89 Co 0.39124 0.1695 0.09044 0.0
O90 O 0.39527 0.21744 0.06378 0.0
C91 C 0.38607 0.21 0.1436 0.0
C92 C 0.52939 0.23207 0.1568 0.0
C93 C 0.41249 0.2553 0.07131 0.0
O94 O 0.42536 0.22761 0.14537 0.0
O95 O 0.36877 0.18428 0.12441 0.0
O96 O 0.51349 0.20199 0.09755 0.0
O97 O 0.45355 0.16666 0.10556 0.0
Co98 Co 0.0134 0.21474 0.8577 0.0
O99 O 0.96996 0.18876 0.83028 0.0
O100 O 0.97645 0.26168 0.83891 0.0
C101 C 0.00211 0.16485 0.8893 0.0
O102 O 0.05356 0.25335 0.88494 0.0
Co103 Co 0.09526 0.15735 0.88453 0.0
O104 O 0.10526 0.20907 0.9094 0.0
C105 C 0.09297 0.19524 0.8303 0.0
C106 C 0.95525 0.22923 0.82497 0.0
C107 C 0.08589 0.24689 0.90441 0.0
O108 O 0.05807 0.219 0.83232 0.0
O109 O 0.10952 0.16595 0.84767 0.0
O110 O 0.9759 0.19957 0.88462 0.0
O111 O 0.03149 0.16031 0.87383 0.0
C112 C 0.96612 0.36243 0.42759 0.0
C113 C 0.99531 0.36793 0.40897 0.0
C114 C 0.96429 0.39515 0.44723 0.0
C115 C 0.99101 0.51424 0.4629 0.0
H116 H 0.995 0.47666 0.53647 0.0
C117 C 0.01866 0.63811 0.55244 0.0
C118 C 0.98983 0.63177 0.57118 0.0
C119 C 0.01994 0.60636 0.53218 0.0
C120 C 0.99357 0.48762 0.51596 0.0
H121 H 0.04481 0.41201 0.3959 0.0
H122 H 0.04162 0.46847 0.42995 0.0
H123 H 0.99284 0.41997 0.50153 0.0
H124 H 0.93976 0.58753 0.58351 0.0
H125 H 0.94195 0.53284 0.54842 0.0
H126 H 0.9918 0.58193 0.47739 0.0
C127 C 0.01999 0.43934 0.42942 0.0
C128 C 0.99209 0.4552 0.49599 0.0
C129 C 0.02202 0.40674 0.41004 0.0
C130 C 0.96241 0.59341 0.56937 0.0
C131 C 0.96385 0.56181 0.54938 0.0
C132 C 0.99248 0.54669 0.48288 0.0
C133 C 0.9913 0.43387 0.44827 0.0
C134 C 0.99078 0.4682 0.46928 0.0
C135 C 0.99269 0.56778 0.53065 0.0
C136 C 0.99359 0.53365 0.50958 0.0
H137 H 0.94523 0.33279 0.42716 0.0
H138 H 0.94168 0.39031 0.4615 0.0
H139 H 0.98963 0.52517 0.44239 0.0
H140 H 0.04009 0.66744 0.55341 0.0
H141 H 0.0426 0.61161 0.51798 0.0
C142 C 0.54495 0.61336 0.42752 0.0
C143 C 0.50876 0.64225 0.41899 0.0
C144 C 0.54188 0.5805 0.44665 0.0
C145 C 0.45882 0.511 0.47147 0.0
H146 H 0.55777 0.47893 0.52691 0.0
C147 C 0.44427 0.38492 0.55536 0.0
C148 C 0.48047 0.35603 0.56385 0.0
C149 C 0.44723 0.41769 0.53615 0.0
C150 C 0.53017 0.4871 0.51123 0.0
H151 H 0.44175 0.66105 0.42456 0.0
H152 H 0.43623 0.60305 0.4583 0.0
H153 H 0.56379 0.54498 0.49912 0.0
H154 H 0.54738 0.33711 0.55813 0.0
H155 H 0.55272 0.39496 0.52428 0.0
H156 H 0.42519 0.45313 0.4836 0.0
C157 C 0.46684 0.60581 0.44992 0.0
C158 C 0.53346 0.52505 0.4955 0.0
C159 C 0.47009 0.63912 0.43083 0.0
C160 C 0.51903 0.35904 0.55189 0.0
C161 C 0.52217 0.39226 0.53274 0.0
C162 C 0.45553 0.47305 0.48721 0.0
C163 C 0.50245 0.57566 0.45756 0.0
C164 C 0.49783 0.53732 0.47546 0.0
C165 C 0.48658 0.42244 0.52514 0.0
C166 C 0.49117 0.46077 0.50724 0.0
H167 H 0.5753 0.61513 0.41882 0.0
H168 H 0.56971 0.55756 0.45199 0.0
H169 H 0.43122 0.51917 0.45579 0.0
H170 H 0.41401 0.38325 0.56414 0.0
H171 H 0.41941 0.44065 0.53084 0.0
C172 C 0.52561 0.13408 0.05718 0.0
C173 C 0.48866 0.13565 0.07067 0.0
C174 C 0.52842 0.10043 0.03822 0.0
C175 C 0.4593 0.01871 -0.00508 0.0
H176 H 0.57078 0.95345 -0.00262 0.0
C177 C 0.4722 0.8601 0.93128 0.0
C178 C 0.50816 0.86076 0.91696 0.0
C179 C 0.4704 0.89132 0.95171 0.0
C180 C 0.53948 0.97152 -0.00357 0.0
H181 H 0.42541 0.10387 0.07465 0.0
H182 H 0.4304 0.0458 0.04189 0.0
H183 H 0.56676 0.01603 0.02808 0.0
H184 H 0.57122 0.89322 0.91339 0.0
H185 H 0.56808 0.94709 0.94881 0.0
H186 H 0.43205 0.97438 0.96323 0.0
C187 C 0.457 0.07048 0.04565 0.0
C188 C 0.5373 0.00746 0.01384 0.0
C189 C 0.45431 0.10373 0.06455 0.0
C190 C 0.54299 0.89184 0.92404 0.0
C191 C 0.54139 0.92261 0.94447 0.0
C192 C 0.46147 0.98277 0.97754 0.0
C193 C 0.49416 0.06822 0.03242 0.0
C194 C 0.49719 0.03142 0.01322 0.0
C195 C 0.50478 0.92321 0.95822 0.0
C196 C 0.50162 0.95895 0.97806 0.0
H197 H 0.55254 0.15828 0.06157 0.0
H198 H 0.55731 0.09959 0.02811 0.0
H199 H 0.42806 0.03691 -0.00617 0.0
H200 H 0.44496 0.83643 0.92621 0.0
H201 H 0.44195 0.89089 0.96221 0.0
C202 C 0.96541 0.90882 0.07245 0.0
C203 C 0.99163 0.86967 0.0736 0.0
C204 C 0.96731 0.94086 0.0527 0.0
C205 C 0.99454 0.95557 0.9858 0.0
H206 H -0.00082 0.08224 0.00462 0.0
C207 C 0.02633 0.09337 0.91228 0.0
C208 C -0.00018 0.13234 0.9109 0.0
C209 C 0.02464 0.06159 0.9322 0.0
C210 C -0.00271 0.04703 -0.00094 0.0
H211 H 0.04038 0.83312 0.05504 0.0
H212 H 0.04366 0.88958 0.02008 0.0
H213 H 2e-05 0.02554 0.03956 0.0
H214 H 0.95093 0.16895 0.92931 0.0
H215 H 0.94803 0.11292 0.96458 0.0
H216 H 0.99182 0.97705 0.94531 0.0
C217 C 0.02155 0.89517 0.03456 0.0
C218 C -0.00204 0.01462 0.01902 0.0
C219 C 0.01984 0.86304 0.05455 0.0
C220 C 0.97166 0.13915 0.92996 0.0
C221 C 0.97016 0.10727 0.95012 0.0
C222 C 0.99388 0.98798 0.96586 0.0
C223 C -0.00463 0.93443 0.03358 0.0
C224 C -0.00347 0.96861 0.01255 0.0
C225 C -0.00348 0.06811 0.95127 0.0
C226 C 0.99533 0.03399 0.97232 0.0
H227 H 0.94335 0.91492 0.08689 0.0
H228 H 0.94631 0.97045 0.05219 0.0
H229 H 0.99264 0.92037 0.98024 0.0
H230 H 0.04839 0.08714 0.89785 0.0
H231 H 0.04579 0.03208 0.93283 0.0
C232 C 0.59384 0.27865 0.17918 0.0
C233 C 0.57032 0.23775 0.17682 0.0
C234 C 0.63563 0.28178 0.19557 0.0
C235 C 0.71047 0.22492 0.25078 0.0
H236 H 0.80448 0.28585 0.22107 0.0
C237 C 0.895 0.21859 0.30255 0.0
C238 C 0.9178 0.25991 0.30447 0.0
C239 C 0.85351 0.21426 0.28594 0.0
C240 C 0.77855 0.269 0.22975 0.0
H241 H 0.57126 0.16862 0.19066 0.0
H242 H 0.64388 0.17406 0.2191 0.0
H243 H 0.72878 0.28393 0.19587 0.0
H244 H 0.91591 0.32849 0.28966 0.0
H245 H 0.84388 0.32102 0.26094 0.0
H246 H 0.76021 0.21012 0.28472 0.0
C247 C 0.63013 0.2038 0.20845 0.0
C248 C 0.7351 0.26807 0.21535 0.0
C249 C 0.58852 0.20065 0.19204 0.0
C250 C 0.89923 0.29616 0.28863 0.0
C251 C 0.85794 0.29183 0.27204 0.0
C252 C 0.75392 0.22589 0.26521 0.0
C253 C 0.65461 0.24412 0.21001 0.0
C254 C 0.70051 0.24612 0.22572 0.0
C255 C 0.83414 0.25112 0.27086 0.0
C256 C 0.78847 0.24807 0.2549 0.0
H257 H 0.58069 0.30782 0.16771 0.0
H258 H 0.65336 0.31353 0.19668 0.0
H259 H 0.6845 0.20809 0.25946 0.0
H260 H 0.90845 0.19006 0.31452 0.0
H261 H 0.83632 0.18223 0.28516 0.0
C262 C 0.59184 0.22488 0.67885 0.0
C263 C 0.57135 0.26699 0.67348 0.0
C264 C 0.63338 0.22157 0.69547 0.0
C265 C 0.7114 0.2829 0.7469 0.0
H266 H 0.80105 0.20656 0.72314 0.0
C267 C 0.89513 0.27968 0.80094 0.0
C268 C 0.91437 0.23676 0.8052 0.0
C269 C 0.8542 0.28522 0.78388 0.0
C270 C 0.77631 0.22777 0.73018 0.0
H271 H 0.57765 0.33849 0.68195 0.0
H272 H 0.64989 0.33269 0.71072 0.0
H273 H 0.72635 0.21073 0.69683 0.0
H274 H 0.90637 0.16621 0.79445 0.0
H275 H 0.83533 0.17575 0.76522 0.0
H276 H 0.76129 0.29965 0.78038 0.0
C277 C 0.63388 0.30218 0.70231 0.0
C278 C 0.73345 0.23002 0.71514 0.0
C279 C 0.59251 0.30548 0.6857 0.0
C280 C 0.89257 0.1998 0.79157 0.0
C281 C 0.85184 0.20529 0.77464 0.0
C282 C 0.75428 0.28054 0.762 0.0
C283 C 0.65512 0.26031 0.70709 0.0
C284 C 0.70044 0.25744 0.72339 0.0
C285 C 0.83187 0.24793 0.77078 0.0
C286 C 0.78716 0.25272 0.7539 0.0
H287 H 0.5763 0.19463 0.66976 0.0
H288 H 0.64865 0.18873 0.6991 0.0
H289 H 0.68658 0.30407 0.7539 0.0
H290 H 0.91119 0.30879 0.81116 0.0
H291 H 0.83994 0.31862 0.78106 0.0
C292 C 0.09413 0.77785 0.68128 0.0
C293 C 0.07466 0.73501 0.67732 0.0
C294 C 0.1352 0.78337 0.69816 0.0
C295 C 0.2135 0.72676 0.75197 0.0
H296 H 0.30293 0.8017 0.72681 0.0
C297 C 0.39817 0.72594 0.80315 0.0
C298 C 0.41848 0.76829 0.80773 0.0
C299 C 0.35662 0.72185 0.7866 0.0
C300 C 0.27821 0.78092 0.73422 0.0
H301 H 0.08226 0.66461 0.68852 0.0
H302 H 0.15362 0.67413 0.71756 0.0
H303 H 0.22802 0.79668 0.70069 0.0
H304 H 0.41191 0.83932 0.79792 0.0
H305 H 0.33968 0.83217 0.7693 0.0
H306 H 0.26375 0.71083 0.78542 0.0
C307 C 0.13719 0.7036 0.70797 0.0
C308 C 0.23522 0.77821 0.71931 0.0
C309 C 0.0963 0.69812 0.69117 0.0
C310 C 0.39718 0.80616 0.79478 0.0
C311 C 0.35582 0.80207 0.77826 0.0
C312 C 0.25649 0.72941 0.76684 0.0
C313 C 0.15746 0.74614 0.71141 0.0
C314 C 0.20241 0.75095 0.72796 0.0
C315 C 0.33472 0.76 0.77428 0.0
C316 C 0.28937 0.75641 0.7581 0.0
H317 H 0.0782 0.80691 0.67089 0.0
H318 H 0.14969 0.8167 0.70069 0.0
H319 H 0.18883 0.70595 0.75939 0.0
H320 H 0.4138 0.69615 0.81282 0.0
H321 H 0.34148 0.68886 0.78361 0.0
C322 C 0.39934 0.69304 0.29611 0.0
C323 C 0.41945 0.7315 0.30897 0.0
C324 C 0.35838 0.69612 0.27907 0.0
C325 C 0.2809 0.77633 0.23973 0.0
H326 H 0.19181 0.6849 0.24632 0.0
C327 C 0.09734 0.79892 0.19257 0.0
C328 C 0.07604 0.76249 0.17812 0.0
C329 C 0.13883 0.79339 0.20869 0.0
C330 C 0.2165 0.71038 0.24406 0.0
H331 H 0.41302 0.80355 0.31352 0.0
H332 H 0.3411 0.80898 0.28382 0.0
H333 H 0.26608 0.6795 0.27335 0.0
H334 H 0.08068 0.69119 0.17009 0.0
H335 H 0.15359 0.6814 0.19857 0.0
H336 H 0.23118 0.80745 0.21066 0.0
C337 C 0.35726 0.77645 0.28676 0.0
C338 C 0.25906 0.7073 0.2595 0.0
C339 C 0.39838 0.77337 0.30383 0.0
C340 C 0.0963 0.71986 0.18101 0.0
C341 C 0.13797 0.71428 0.1973 0.0
C342 C 0.23836 0.77946 0.22438 0.0
C343 C 0.3365 0.73771 0.27451 0.0
C344 C 0.29167 0.7404 0.2576 0.0
C345 C 0.16004 0.75128 0.21082 0.0
C346 C 0.2056 0.74673 0.22654 0.0
H347 H 0.41485 0.66027 0.29953 0.0
H348 H 0.34373 0.6658 0.26957 0.0
H349 H 0.30548 0.80191 0.23744 0.0
H350 H 0.08251 0.83217 0.19096 0.0
H351 H 0.15456 0.82231 0.21931 0.0
C352 C 0.31184 0.21151 0.15865 0.0
C353 C 0.35804 0.22049 0.16406 0.0
C354 C 0.28463 0.22056 0.1776 0.0
C355 C 0.28701 0.23312 0.24923 0.0
H356 H 0.17001 0.28712 0.22751 0.0
C357 C 0.17591 0.29148 0.32413 0.0
C358 C 0.12982 0.28205 0.31837 0.0
C359 C 0.20364 0.28298 0.30537 0.0
C360 C 0.20234 0.27148 0.23376 0.0
H361 H 0.41184 0.24654 0.19356 0.0
H362 H 0.36383 0.26231 0.22702 0.0
H363 H 0.22011 0.27737 0.19476 0.0
H364 H 0.07677 0.25569 0.28849 0.0
H365 H 0.12566 0.2409 0.25538 0.0
H366 H 0.26921 0.22721 0.28823 0.0
C367 C 0.34902 0.24801 0.208 0.0
C368 C 0.23106 0.26611 0.21509 0.0
C369 C 0.37639 0.2392 0.18885 0.0
C370 C 0.11212 0.26336 0.29347 0.0
C371 C 0.13999 0.25513 0.27452 0.0
C372 C 0.25829 0.23851 0.26791 0.0
C373 C 0.30288 0.2387 0.20248 0.0
C374 C 0.27359 0.24672 0.22264 0.0
C375 C 0.18599 0.265 0.28035 0.0
C376 C 0.21568 0.2577 0.26032 0.0
H377 H 0.29642 0.19746 0.13967 0.0
H378 H 0.24932 0.21256 0.17291 0.0
H379 H 0.31931 0.21741 0.25546 0.0
H380 H 0.19081 0.30552 0.34322 0.0
H381 H 0.23884 0.29135 0.3103 0.0
C382 C 0.33666 0.32996 0.67757 0.0
C383 C 0.36901 0.29845 0.67268 0.0
C384 C 0.3083 0.32062 0.69591 0.0
C385 C 0.29003 0.2459 0.75115 0.0
H386 H 0.16459 0.26963 0.72456 0.0
C387 C 0.15186 0.17432 0.80344 0.0
C388 C 0.11837 0.2045 0.80837 0.0
C389 C 0.18119 0.18582 0.78604 0.0
C390 C 0.19949 0.26323 0.73235 0.0
H391 H 0.39898 0.23374 0.6845 0.0
H392 H 0.34908 0.21729 0.71657 0.0
H393 H 0.22125 0.29158 0.6979 0.0
H394 H 0.08772 0.26934 0.79766 0.0
H395 H 0.13925 0.2895 0.76712 0.0
H396 H 0.26821 0.2173 0.78553 0.0
C397 C 0.34583 0.24928 0.7062 0.0
C398 C 0.23196 0.27588 0.71716 0.0
C399 C 0.37441 0.25869 0.68785 0.0
C400 C 0.11312 0.24535 0.79425 0.0
C401 C 0.14265 0.25691 0.7768 0.0
C402 C 0.25756 0.23323 0.76633 0.0
C403 C 0.31158 0.27956 0.70974 0.0
C404 C 0.27754 0.26728 0.72639 0.0
C405 C 0.17774 0.22774 0.77317 0.0
C406 C 0.21196 0.24157 0.75701 0.0
H407 H 0.33208 0.36124 0.66649 0.0
H408 H 0.28293 0.34506 0.69873 0.0
H409 H 0.32492 0.23931 0.75888 0.0
H410 H 0.15644 0.14227 0.8137 0.0
H411 H 0.20722 0.16222 0.78309 0.0
C412 C 0.65773 0.82801 0.80674 0.0
C413 C 0.62317 0.7984 0.81067 0.0
C414 C 0.68606 0.81765 0.78856 0.0
C415 C 0.70035 0.7452 0.73178 0.0
H416 H 0.82684 0.76101 0.75895 0.0
C417 C 0.83482 0.67335 0.67656 0.0
C418 C 0.86965 0.70271 0.67276 0.0
C419 C 0.8061 0.6841 0.69445 0.0
C420 C 0.79165 0.7568 0.75102 0.0
H421 H 0.58952 0.73603 0.79744 0.0
H422 H 0.63939 0.71779 0.76564 0.0
H423 H 0.77136 0.78348 0.78631 0.0
H424 H 0.90322 0.76519 0.68586 0.0
H425 H 0.85269 0.78409 0.71717 0.0
H426 H 0.72066 0.71845 0.6965 0.0
C427 C 0.64437 0.74908 0.77664 0.0
C428 C 0.75989 0.76974 0.76662 0.0
C429 C 0.61582 0.75953 0.79484 0.0
C430 C 0.87672 0.74187 0.68836 0.0
C431 C 0.8478 0.75269 0.70628 0.0
C432 C 0.73212 0.73226 0.71618 0.0
C433 C 0.68054 0.77744 0.77395 0.0
C434 C 0.71393 0.76414 0.75712 0.0
C435 C 0.81151 0.72445 0.70892 0.0
C436 C 0.77807 0.73787 0.72568 0.0
H437 H 0.66388 0.8586 0.81834 0.0
H438 H 0.713 0.84065 0.7864 0.0
H439 H 0.66516 0.74094 0.72387 0.0
H440 H 0.82883 0.64255 0.66514 0.0
H441 H 0.77906 0.6612 0.69657 0.0
C442 C 0.87708 0.75446 0.18912 0.0
C443 C 0.87177 0.79538 0.17508 0.0
C444 C 0.84753 0.74271 0.20652 0.0
C445 C 0.73257 0.76592 0.21705 0.0
H446 H 0.76934 0.70847 0.28572 0.0
C447 C 0.61604 0.74088 0.29577 0.0
C448 C 0.62162 0.70126 0.31106 0.0
C449 C 0.64459 0.75026 0.27738 0.0
C450 C 0.75851 0.72391 0.2664 0.0
H451 H 0.83345 0.85748 0.16979 0.0
H452 H 0.78261 0.83716 0.20027 0.0
H453 H 0.8258 0.73028 0.25887 0.0
H454 H 0.65887 0.63867 0.31745 0.0
H455 H 0.70794 0.65479 0.28517 0.0
H456 H 0.66528 0.75973 0.22462 0.0
C457 C 0.80874 0.81367 0.19732 0.0
C458 C 0.79086 0.73647 0.2511 0.0
C459 C 0.83811 0.82538 0.17999 0.0
C460 C 0.65415 0.66986 0.30629 0.0
C461 C 0.68247 0.67916 0.28791 0.0
C462 C 0.70021 0.75333 0.23234 0.0
C463 C 0.81233 0.77173 0.21016 0.0
C464 C 0.77821 0.75782 0.22636 0.0
C465 C 0.67897 0.72007 0.27394 0.0
C466 C 0.71288 0.73228 0.25719 0.0
H467 H 0.90262 0.73061 0.18573 0.0
H468 H 0.85103 0.71011 0.21619 0.0
H469 H 0.7218 0.78163 0.1978 0.0
H470 H 0.59132 0.76574 0.29902 0.0
H471 H 0.64117 0.78214 0.26689 0.0
C472 C 0.38861 0.18551 0.54133 0.0
C473 C 0.37524 0.20262 0.56453 0.0
C474 C 0.35965 0.15762 0.52418 0.0
C475 C 0.24088 0.11185 0.51439 0.0
H476 H 0.2385 0.16521 0.44447 0.0
C477 C 0.10099 0.21156 0.45458 0.0
C478 C 0.09358 0.2093 0.42659 0.0
C479 C 0.13155 0.18252 0.46955 0.0
C480 C 0.23891 0.14879 0.4636 0.0
H481 H 0.32385 0.20151 0.58951 0.0
H482 H 0.273 0.15486 0.55979 0.0
H483 H 0.30758 0.16465 0.47574 0.0
H484 H 0.10916 0.17279 0.39229 0.0
H485 H 0.16433 0.12325 0.41852 0.0
H486 H 0.17013 0.10187 0.50289 0.0
C487 C 0.3057 0.16112 0.55455 0.0
C488 C 0.27886 0.14828 0.48172 0.0
C489 C 0.33481 0.18828 0.57172 0.0
C490 C 0.11396 0.1748 0.41391 0.0
C491 C 0.14556 0.14655 0.42886 0.0
C492 C 0.20057 0.11362 0.49647 0.0
C493 C 0.31642 0.14766 0.52969 0.0
C494 C 0.27972 0.13273 0.50807 0.0
C495 C 0.1561 0.15168 0.4567 0.0
C496 C 0.19888 0.13447 0.47151 0.0
H497 H 0.41972 0.19646 0.53542 0.0
H498 H 0.36984 0.14684 0.50569 0.0
H499 H 0.24052 0.09766 0.53402 0.0
H500 H 0.08584 0.23808 0.46474 0.0
H501 H 0.13943 0.18754 0.49097 0.0
C502 C 0.86622 0.8191 0.57396 0.0
C503 C 0.88716 0.7854 0.56099 0.0
C504 C 0.83496 0.84789 0.55915 0.0
C505 C 0.78335 0.88456 0.4916 0.0
H506 H 0.67411 0.83341 0.50922 0.0
C507 C 0.65395 0.81106 0.4135 0.0
C508 C 0.6127 0.79671 0.41949 0.0
C509 C 0.68184 0.8383 0.43132 0.0
C510 C 0.7035 0.84984 0.50414 0.0
H511 H 0.89584 0.75807 0.52265 0.0
H512 H 0.84286 0.80954 0.49669 0.0
H513 H 0.74175 0.83114 0.54173 0.0
H514 H 0.56553 0.80298 0.44703 0.0
H515 H 0.61346 0.8525 0.47797 0.0
H516 H 0.74555 0.9021 0.45367 0.0
C517 C 0.85011 0.81363 0.51819 0.0
C518 C 0.74258 0.84835 0.52296 0.0
C519 C 0.88027 0.78405 0.533 0.0
C520 C 0.59732 0.81393 0.44206 0.0
C521 C 0.62512 0.84179 0.45989 0.0
C522 C 0.74391 0.88729 0.473 0.0
C523 C 0.82536 0.84406 0.5312 0.0
C524 C 0.78342 0.86258 0.51609 0.0
C525 C 0.66906 0.85173 0.45566 0.0
C526 C 0.70439 0.86628 0.47815 0.0
H527 H 0.87066 0.82029 0.59559 0.0
H528 H 0.81596 0.87078 0.56959 0.0
H529 H 0.81443 0.8963 0.48601 0.0
H530 H 0.66643 0.7978 0.3962 0.0
H531 H 0.71517 0.84458 0.42706 0.0
C532 C 0.84171 0.70183 0.06916 0.0
C533 C 0.88335 0.71639 0.0639 0.0
C534 C 0.8149 0.67403 0.05115 0.0
C535 C 0.79511 0.65889 0.97877 0.0
H536 H 0.68819 0.60331 -0.00296 0.0
C537 C 0.6327 0.67865 0.90829 0.0
C538 C 0.60845 0.70937 0.92137 0.0
C539 C 0.6654 0.6514 0.92313 0.0
C540 C 0.71824 0.61761 0.99141 0.0
H541 H 0.93184 0.71085 0.03711 0.0
H542 H 0.88535 0.66093 0.00553 0.0
H543 H 0.7568 0.60442 0.02981 0.0
H544 H 0.59519 0.73244 0.95975 0.0
H545 H 0.65076 0.68367 0.9857 0.0
H546 H 0.75596 0.6737 0.94082 0.0
C547 C 0.87289 0.67151 0.02339 0.0
C548 C 0.75747 0.61878 0.01024 0.0
C549 C 0.89974 0.69971 0.04151 0.0
C550 C 0.6133 0.70866 0.94932 0.0
C551 C 0.64504 0.68062 0.96412 0.0
C552 C 0.75627 0.65673 0.95978 0.0
C553 C 0.82908 0.66027 0.02728 0.0
C554 C 0.79518 0.64287 0.00492 0.0
C555 C 0.67334 0.65392 0.95118 0.0
C556 C 0.71661 0.63911 0.96663 0.0
H557 H 0.82848 0.71465 0.08632 0.0
H558 H 0.78143 0.66695 0.05495 0.0
H559 H 0.8232 0.67761 0.97366 0.0
H560 H 0.62984 0.67918 0.88671 0.0
H561 H 0.68695 0.63127 0.91272 0.0
C562 C 0.38674 0.29358 0.02808 0.0
C563 C 0.39324 0.29474 0.05609 0.0
C564 C 0.35444 0.32101 0.01322 0.0
C565 C 0.24457 0.34475 0.01972 0.0
H566 H 0.23744 0.39609 0.94895 0.0
C567 C 0.09458 0.30062 0.94273 0.0
C568 C 0.10753 0.28568 0.91893 0.0
C569 C 0.12309 0.32862 0.96008 0.0
C570 C 0.23864 0.38176 0.96868 0.0
H571 H 0.3746 0.32822 0.09058 0.0
H572 H 0.31665 0.37495 0.06454 0.0
H573 H 0.30839 0.39762 0.97968 0.0
H574 H 0.15795 0.29008 0.89339 0.0
H575 H 0.20818 0.33687 0.92352 0.0
H576 H 0.17728 0.32335 0.0081 0.0
C577 C 0.33726 0.35375 0.0541 0.0
C578 C 0.27921 0.38328 0.98637 0.0
C579 C 0.3705 0.32714 0.06895 0.0
C580 C 0.1473 0.30167 0.91164 0.0
C581 C 0.176 0.32893 0.92901 0.0
C582 C 0.20445 0.34206 0.00185 0.0
C583 C 0.32733 0.34901 0.02621 0.0
C584 C 0.28307 0.36255 0.01149 0.0
C585 C 0.16548 0.34094 0.95416 0.0
C586 C 0.20178 0.35782 0.97542 0.0
H587 H 0.40369 0.2686 0.01778 0.0
H588 H 0.34721 0.31637 -0.00825 0.0
H589 H 0.24665 0.32826 0.03896 0.0
H590 H 0.06398 0.28836 0.94871 0.0
H591 H 0.11311 0.33806 0.97888 0.0
loop_
_geom_bond_atom_site_label_1
_geom_bond_atom_site_label_2
_geom_bond_distance
_geom_bond_site_symmetry_2
_ccdc_geom_bond_type
Co0 O1 2.216 1_455 S
Co0 O2 2.091 1_455 S
Co0 O4 2.004 . S
Co0 O10 2.021 . S
Co0 O12 2.137 1_455 S
Co0 O13 2.244 . S
O1 Co0 2.216 1_655 S
O1 C8 1.247 . S
O2 Co0 2.091 1_655 S
O2 C8 1.261 . S
C3 O12 1.247 1_455 S
C3 O13 1.272 . S
O4 Co0 2.004 . S
O4 C9 1.259 . S
Co5 O6 2.061 . S
Co5 O11 2.052 . S
Co5 O13 2.135 . S
O6 Co5 2.061 . S
O6 C9 1.235 . S
C7 O10 1.238 . S
C7 O11 1.241 . S
C8 O1 1.247 . S
C8 O2 1.261 . S
C9 O4 1.259 . S
C9 O6 1.235 . S
O10 Co0 2.021 . S
O10 C7 1.238 . S
O11 Co5 2.052 . S
O11 C7 1.241 . S
O12 Co0 2.137 1_655 S
O12 C3 1.247 1_655 S
O13 Co0 2.244 . S
O13 C3 1.272 . S
O13 Co5 2.135 . S
Co14 O15 2.216 . S
Co14 O16 2.091 . S
Co14 O18 2.004 . S
Co14 O24 2.021 . S
Co14 O26 2.137 . S
Co14 O27 2.244 . S
O15 Co14 2.216 . S
O15 C22 1.247 . S
O16 Co14 2.091 . S
O16 C22 1.261 . S
C17 O26 1.247 . S
C17 O27 1.272 . S
O18 Co14 2.004 . S
O18 C23 1.259 . S
Co19 O20 2.061 . S
Co19 O25 2.052 . S
Co19 O27 2.135 . S
O20 Co19 2.061 . S
O20 C23 1.235 . S
C21 O24 1.238 . S
C21 O25 1.241 . S
C22 O15 1.247 . S
C22 O16 1.261 . S
C23 O18 1.259 . S
C23 O20 1.235 . S
O24 Co14 2.021 . S
O24 C21 1.238 . S
O25 Co19 2.052 . S
O25 C21 1.241 . S
O26 Co14 2.137 . S
O26 C17 1.247 . S
O27 Co14 2.244 . S
O27 C17 1.272 . S
O27 Co19 2.135 . S
Co28 O29 2.216 1_655 S
Co28 O30 2.091 1_655 S
Co28 O32 2.004 . S
Co28 O38 2.021 . S
Co28 O40 2.137 1_655 S
Co28 O41 2.244 . S
O29 Co28 2.216 1_455 S
O29 C36 1.247 . S
O30 Co28 2.091 1_455 S
O30 C36 1.261 . S
C31 O40 1.247 1_655 S
C31 O41 1.272 . S
O32 Co28 2.004 . S
O32 C37 1.259 . S
Co33 O34 2.061 . S
Co33 O39 2.052 . S
Co33 O41 2.135 . S
O34 Co33 2.061 . S
O34 C37 1.235 . S
C35 O38 1.238 . S
C35 O39 1.241 . S
C36 O29 1.247 . S
C36 O30 1.261 . S
C37 O32 1.259 . S
C37 O34 1.235 . S
O38 Co28 2.021 . S
O38 C35 1.238 . S
O39 Co33 2.052 . S
O39 C35 1.241 . S
O40 Co28 2.137 1_455 S
O40 C31 1.247 1_455 S
O41 Co28 2.244 . S
O41 C31 1.272 . S
O41 Co33 2.135 . S
Co42 O43 2.216 . S
Co42 O44 2.091 . S
Co42 O46 2.004 . S
Co42 O52 2.021 . S
Co42 O54 2.137 . S
Co42 O55 2.244 . S
O43 Co42 2.216 . S
O43 C50 1.247 . S
O44 Co42 2.091 . S
O44 C50 1.261 . S
C45 O54 1.247 . S
C45 O55 1.272 . S
O46 Co42 2.004 . S
O46 C51 1.259 . S
Co47 O48 2.061 . S
Co47 O53 2.052 . S
Co47 O55 2.135 . S
O48 Co47 2.061 . S
O48 C51 1.235 . S
C49 O52 1.238 . S
C49 O53 1.241 . S
C50 O43 1.247 . S
C50 O44 1.261 . S
C51 O46 1.259 . S
C51 O48 1.235 . S
O52 Co42 2.021 . S
O52 C49 1.238 . S
O53 Co47 2.052 . S
O53 C49 1.241 . S
O54 Co42 2.137 . S
O54 C45 1.247 . S
O55 Co42 2.244 . S
O55 C45 1.272 . S
O55 Co47 2.135 . S
Co56 O57 2.216 . S
Co56 O58 2.091 . S
Co56 O60 2.004 . S
Co56 O66 2.021 . S
Co56 O68 2.137 . S
Co56 O69 2.244 . S
O57 Co56 2.216 . S
O57 C64 1.247 . S
O58 Co56 2.091 . S
O58 C64 1.261 . S
C59 O68 1.247 . S
C59 O69 1.272 . S
O60 Co56 2.004 . S
O60 C65 1.259 . S
Co61 O62 2.061 . S
Co61 O67 2.052 . S
Co61 O69 2.135 . S
O62 Co61 2.061 . S
O62 C65 1.235 . S
C63 O66 1.238 . S
C63 O67 1.241 . S
C64 O57 1.247 . S
C64 O58 1.261 . S
C65 O60 1.259 . S
C65 O62 1.235 . S
O66 Co56 2.021 . S
O66 C63 1.238 . S
O67 Co61 2.052 . S
O67 C63 1.241 . S
O68 Co56 2.137 . S
O68 C59 1.247 . S
O69 Co56 2.244 . S
O69 C59 1.272 . S
O69 Co61 2.135 . S
Co70 O71 2.216 1_655 S
Co70 O72 2.091 1_655 S
Co70 O74 2.004 . S
Co70 O80 2.021 . S
Co70 O82 2.137 1_655 S
Co70 O83 2.244 . S
O71 Co70 2.216 1_455 S
O71 C78 1.247 . S
O72 Co70 2.091 1_455 S
O72 C78 1.261 . S
C73 O82 1.247 1_655 S
C73 O83 1.272 . S
O74 Co70 2.004 . S
O74 C79 1.259 . S
Co75 O76 2.061 . S
Co75 O81 2.052 . S
Co75 O83 2.135 . S
O76 Co75 2.061 . S
O76 C79 1.235 . S
C77 O80 1.238 . S
C77 O81 1.241 . S
C78 O71 1.247 . S
C78 O72 1.261 . S
C79 O74 1.259 . S
C79 O76 1.235 . S
O80 Co70 2.021 . S
O80 C77 1.238 . S
O81 Co75 2.052 . S
O81 C77 1.241 . S
O82 Co70 2.137 1_455 S
O82 C73 1.247 1_455 S
O83 Co70 2.244 . S
O83 C73 1.272 . S
O83 Co75 2.135 . S
Co84 O85 2.216 . S
Co84 O86 2.091 . S
Co84 O88 2.004 . S
Co84 O94 2.021 . S
Co84 O96 2.137 . S
Co84 O97 2.244 . S
O85 Co84 2.216 . S
O85 C92 1.247 . S
O86 Co84 2.091 . S
O86 C92 1.261 . S
C87 O96 1.247 . S
C87 O97 1.272 . S
O88 Co84 2.004 . S
O88 C93 1.259 . S
Co89 O90 2.061 . S
Co89 O95 2.052 . S
Co89 O97 2.135 . S
O90 Co89 2.061 . S
O90 C93 1.235 . S
C91 O94 1.238 . S
C91 O95 1.241 . S
C92 O85 1.247 . S
C92 O86 1.261 . S
C93 O88 1.259 . S
C93 O90 1.235 . S
O94 Co84 2.021 . S
O94 C91 1.238 . S
O95 Co89 2.052 . S
O95 C91 1.241 . S
O96 Co84 2.137 . S
O96 C87 1.247 . S
O97 Co84 2.244 . S
O97 C87 1.272 . S
O97 Co89 2.135 . S
Co98 O99 2.216 1_455 S
Co98 O100 2.091 1_455 S
Co98 O102 2.004 . S
Co98 O108 2.021 . S
Co98 O110 2.137 1_455 S
Co98 O111 2.244 . S
O99 Co98 2.216 1_655 S
O99 C106 1.247 . S
O100 Co98 2.091 1_655 S
O100 C106 1.261 . S
C101 O110 1.247 1_455 S
C101 O111 1.272 . S
O102 Co98 2.004 . S
O102 C107 1.259 . S
Co103 O104 2.061 . S
Co103 O109 2.052 . S
Co103 O111 2.135 . S
O104 Co103 2.061 . S
O104 C107 1.235 . S
C105 O108 1.238 . S
C105 O109 1.241 . S
C106 O99 1.247 . S
C106 O100 1.261 . S
C107 O102 1.259 . S
C107 O104 1.235 . S
O108 Co98 2.021 . S
O108 C105 1.238 . S
O109 Co103 2.052 . S
O109 C105 1.241 . S
O110 Co98 2.137 1_655 S
O110 C101 1.247 1_655 S
O111 Co98 2.244 . S
O111 C101 1.272 . S
O111 Co103 2.135 . S
C112 C113 1.349 . S
C112 C114 1.327 . S
C112 H137 0.950 . S
C113 C112 1.349 . S
C113 C129 1.349 1_455 S
C114 C112 1.327 . S
C114 C133 1.429 . S
C114 H138 0.950 . S
C115 C132 1.574 . S
C115 C134 1.368 1_655 S
C115 H139 0.949 . S
H116 C120 0.949 . S
C117 C118 1.349 . S
C117 C119 1.327 . S
C117 H140 0.950 . S
C118 C117 1.349 . S
C118 C130 1.349 1_655 S
C119 C117 1.327 . S
C119 C135 1.429 . S
C119 H141 0.950 . S
C120 H116 0.949 . S
C120 C128 1.574 . S
C120 C136 1.368 1_455 S
H121 C129 0.950 . S
H122 C127 0.950 . S
H123 C128 0.949 . S
H124 C130 0.950 . S
H125 C131 0.950 . S
H126 C132 0.949 . S
C127 H122 0.950 . S
C127 C129 1.327 . S
C127 C133 1.429 1_655 S
C128 C120 1.574 . S
C128 H123 0.949 . S
C128 C134 1.368 . S
C129 C113 1.349 1_655 S
C129 H121 0.950 . S
C129 C127 1.327 . S
C130 C118 1.349 1_455 S
C130 H124 0.950 . S
C130 C131 1.327 . S
C131 H125 0.950 . S
C131 C130 1.327 . S
C131 C135 1.429 1_455 S
C132 C115 1.574 . S
C132 H126 0.949 . S
C132 C136 1.368 . S
C133 C114 1.429 . S
C133 C127 1.429 1_455 S
C133 C134 1.523 . S
C134 C115 1.368 1_455 S
C134 C128 1.368 . S
C134 C133 1.523 . S
C135 C119 1.429 . S
C135 C131 1.429 1_655 S
C135 C136 1.523 . S
C136 C120 1.368 1_655 S
C136 C132 1.368 . S
C136 C135 1.523 . S
H137 C112 0.950 . S
H138 C114 0.950 . S
H139 C115 0.949 . S
H140 C117 0.950 . S
H141 C119 0.950 . S
C142 C143 1.349 . S
C142 C144 1.327 . S
C142 H167 0.950 . S
C143 C142 1.349 . S
C143 C159 1.349 . S
C144 C142 1.327 . S
C144 C163 1.429 . S
C144 H168 0.950 . S
C145 C162 1.574 . S
C145 C164 1.368 . S
C145 H169 0.949 . S
H146 C150 0.949 . S
C147 C148 1.349 . S
C147 C149 1.327 . S
C147 H170 0.950 . S
C148 C147 1.349 . S
C148 C160 1.349 . S
C149 C147 1.327 . S
C149 C165 1.429 . S
C149 H171 0.950 . S
C150 H146 0.949 . S
C150 C158 1.574 . S
C150 C166 1.368 . S
H151 C159 0.950 . S
H152 C157 0.950 . S
H153 C158 0.949 . S
H154 C160 0.950 . S
H155 C161 0.950 . S
H156 C162 0.949 . S
C157 H152 0.950 . S
C157 C159 1.327 . S
C157 C163 1.429 . S
C158 C150 1.574 . S
C158 H153 0.949 . S
C158 C164 1.368 . S
C159 C143 1.349 . S
C159 H151 0.950 . S
C159 C157 1.327 . S
C160 C148 1.349 . S
C160 H154 0.950 . S
C160 C161 1.327 . S
C161 H155 0.950 . S
C161 C160 1.327 . S
C161 C165 1.429 . S
C162 C145 1.574 . S
C162 H156 0.949 . S
C162 C166 1.368 . S
C163 C144 1.429 . S
C163 C157 1.429 . S
C163 C164 1.523 . S
C164 C145 1.368 . S
C164 C158 1.368 . S
C164 C163 1.523 . S
C165 C149 1.429 . S
C165 C161 1.429 . S
C165 C166 1.523 . S
C166 C150 1.368 . S
C166 C162 1.368 . S
C166 C165 1.523 . S
H167 C142 0.950 . S
H168 C144 0.950 . S
H169 C145 0.949 . S
H170 C147 0.950 . S
H171 C149 0.950 . S
C172 C173 1.349 . S
C172 C174 1.327 . S
C172 H197 0.950 . S
C173 C172 1.349 . S
C173 C189 1.349 . S
C174 C172 1.327 . S
C174 C193 1.429 . S
C174 H198 0.950 . S
C175 C192 1.574 1_544 S
C175 C194 1.368 . S
C175 H199 0.949 . S
H176 C180 0.949 . S
C177 C178 1.349 . S
C177 C179 1.327 . S
C177 H200 0.950 . S
C178 C177 1.349 . S
C178 C190 1.349 . S
C179 C177 1.327 . S
C179 C195 1.429 . S
C179 H201 0.950 . S
C180 H176 0.949 . S
C180 C188 1.574 1_566 S
C180 C196 1.368 . S
H181 C189 0.950 . S
H182 C187 0.950 . S
H183 C188 0.949 . S
H184 C190 0.950 . S
H185 C191 0.950 . S
H186 C192 0.949 . S
C187 H182 0.950 . S
C187 C189 1.327 . S
C187 C193 1.429 . S
C188 C180 1.574 1_544 S
C188 H183 0.949 . S
C188 C194 1.368 . S
C189 C173 1.349 . S
C189 H181 0.950 . S
C189 C187 1.327 . S
C190 C178 1.349 . S
C190 H184 0.950 . S
C190 C191 1.327 . S
C191 H185 0.950 . S
C191 C190 1.327 . S
C191 C195 1.429 . S
C192 C175 1.574 1_566 S
C192 H186 0.949 . S
C192 C196 1.368 . S
C193 C174 1.429 . S
C193 C187 1.429 . S
C193 C194 1.523 . S
C194 C175 1.368 . S
C194 C188 1.368 . S
C194 C193 1.523 . S
C195 C179 1.429 . S
C195 C191 1.429 . S
C195 C196 1.523 . S
C196 C180 1.368 . S
C196 C192 1.368 . S
C196 C195 1.523 . S
H197 C172 0.950 . S
H198 C174 0.950 . S
H199 C175 0.949 . S
H200 C177 0.950 . S
H201 C179 0.950 . S
C202 C203 1.349 1_455 S
C202 C204 1.327 . S
C202 H227 0.950 . S
C203 C202 1.349 1_655 S
C203 C219 1.349 . S
C204 C202 1.327 . S
C204 C223 1.429 1_455 S
C204 H228 0.950 . S
C205 C222 1.574 . S
C205 C224 1.368 1_556 S
C205 H229 0.949 . S
H206 C210 0.949 . S
C207 C208 1.349 1_655 S
C207 C209 1.327 . S
C207 H230 0.950 . S
C208 C207 1.349 1_455 S
C208 C220 1.349 . S
C209 C207 1.327 . S
C209 C225 1.429 1_655 S
C209 H231 0.950 . S
C210 H206 0.949 . S
C210 C218 1.574 . S
C210 C226 1.368 1_554 S
H211 C219 0.950 . S
H212 C217 0.950 . S
H213 C218 0.949 . S
H214 C220 0.950 . S
H215 C221 0.950 . S
H216 C222 0.949 . S
C217 H212 0.950 . S
C217 C219 1.327 . S
C217 C223 1.429 . S
C218 C210 1.574 . S
C218 H213 0.949 . S
C218 C224 1.368 1_445 S
C219 C203 1.349 . S
C219 H211 0.950 . S
C219 C217 1.327 . S
C220 C208 1.349 . S
C220 H214 0.950 . S
C220 C221 1.327 . S
C221 H215 0.950 . S
C221 C220 1.327 . S
C221 C225 1.429 . S
C222 C205 1.574 . S
C222 H216 0.949 . S
C222 C226 1.368 1_665 S
C223 C204 1.429 1_655 S
C223 C217 1.429 . S
C223 C224 1.523 . S
C224 C205 1.368 1_554 S
C224 C218 1.368 1_665 S
C224 C223 1.523 . S
C225 C209 1.429 1_455 S
C225 C221 1.429 . S
C225 C226 1.523 . S
C226 C210 1.368 1_556 S
C226 C222 1.368 1_445 S
C226 C225 1.523 . S
H227 C202 0.950 . S
H228 C204 0.950 . S
H229 C205 0.949 . S
H230 C207 0.950 . S
H231 C209 0.950 . S
C232 C233 1.349 . S
C232 C234 1.327 . S
C232 H257 0.950 . S
C233 C232 1.349 . S
C233 C249 1.349 . S
C234 C232 1.327 . S
C234 C253 1.429 . S
C234 H258 0.950 . S
C235 C252 1.574 . S
C235 C254 1.368 . S
C235 H259 0.949 . S
H236 C240 0.949 . S
C237 C238 1.349 . S
C237 C239 1.327 . S
C237 H260 0.950 . S
C238 C237 1.349 . S
C238 C250 1.349 . S
C239 C237 1.327 . S
C239 C255 1.429 . S
C239 H261 0.950 . S
C240 H236 0.949 . S
C240 C248 1.574 . S
C240 C256 1.368 . S
H241 C249 0.950 . S
H242 C247 0.950 . S
H243 C248 0.949 . S
H244 C250 0.950 . S
H245 C251 0.950 . S
H246 C252 0.949 . S
C247 H242 0.950 . S
C247 C249 1.327 . S
C247 C253 1.429 . S
C248 C240 1.574 . S
C248 H243 0.949 . S
C248 C254 1.368 . S
C249 C233 1.349 . S
C249 H241 0.950 . S
C249 C247 1.327 . S
C250 C238 1.349 . S
C250 H244 0.950 . S
C250 C251 1.327 . S
C251 H245 0.950 . S
C251 C250 1.327 . S
C251 C255 1.429 . S
C252 C235 1.574 . S
C252 H246 0.949 . S
C252 C256 1.368 . S
C253 C234 1.429 . S
C253 C247 1.429 . S
C253 C254 1.523 . S
C254 C235 1.368 . S
C254 C248 1.368 . S
C254 C253 1.523 . S
C255 C239 1.429 . S
C255 C251 1.429 . S
C255 C256 1.523 . S
C256 C240 1.368 . S
C256 C252 1.368 . S
C256 C255 1.523 . S
H257 C232 0.950 . S
H258 C234 0.950 . S
H259 C235 0.949 . S
H260 C237 0.950 . S
H261 C239 0.950 . S
C262 C263 1.349 . S
C262 C264 1.327 . S
C262 H287 0.950 . S
C263 C262 1.349 . S
C263 C279 1.349 . S
C264 C262 1.327 . S
C264 C283 1.429 . S
C264 H288 0.950 . S
C265 C282 1.574 . S
C265 C284 1.368 . S
C265 H289 0.949 . S
H266 C270 0.949 . S
C267 C268 1.349 . S
C267 C269 1.327 . S
C267 H290 0.950 . S
C268 C267 1.349 . S
C268 C280 1.349 . S
C269 C267 1.327 . S
C269 C285 1.429 . S
C269 H291 0.950 . S
C270 H266 0.949 . S
C270 C278 1.574 . S
C270 C286 1.368 . S
H271 C279 0.950 . S
H272 C277 0.950 . S
H273 C278 0.949 . S
H274 C280 0.950 . S
H275 C281 0.950 . S
H276 C282 0.949 . S
C277 H272 0.950 . S
C277 C279 1.327 . S
C277 C283 1.429 . S
C278 C270 1.574 . S
C278 H273 0.949 . S
C278 C284 1.368 . S
C279 C263 1.349 . S
C279 H271 0.950 . S
C279 C277 1.327 . S
C280 C268 1.349 . S
C280 H274 0.950 . S
C280 C281 1.327 . S
C281 H275 0.950 . S
C281 C280 1.327 . S
C281 C285 1.429 . S
C282 C265 1.574 . S
C282 H276 0.949 . S
C282 C286 1.368 . S
C283 C264 1.429 . S
C283 C277 1.429 . S
C283 C284 1.523 . S
C284 C265 1.368 . S
C284 C278 1.368 . S
C284 C283 1.523 . S
C285 C269 1.429 . S
C285 C281 1.429 . S
C285 C286 1.523 . S
C286 C270 1.368 . S
C286 C282 1.368 . S
C286 C285 1.523 . S
H287 C262 0.950 . S
H288 C264 0.950 . S
H289 C265 0.949 . S
H290 C267 0.950 . S
H291 C269 0.950 . S
C292 C293 1.349 . S
C292 C294 1.327 . S
C292 H317 0.950 . S
C293 C292 1.349 . S
C293 C309 1.349 . S
C294 C292 1.327 . S
C294 C313 1.429 . S
C294 H318 0.950 . S
C295 C312 1.574 . S
C295 C314 1.368 . S
C295 H319 0.949 . S
H296 C300 0.949 . S
C297 C298 1.349 . S
C297 C299 1.327 . S
C297 H320 0.950 . S
C298 C297 1.349 . S
C298 C310 1.349 . S
C299 C297 1.327 . S
C299 C315 1.429 . S
C299 H321 0.950 . S
C300 H296 0.949 . S
C300 C308 1.574 . S
C300 C316 1.368 . S
H301 C309 0.950 . S
H302 C307 0.950 . S
H303 C308 0.949 . S
H304 C310 0.950 . S
H305 C311 0.950 . S
H306 C312 0.949 . S
C307 H302 0.950 . S
C307 C309 1.327 . S
C307 C313 1.429 . S
C308 C300 1.574 . S
C308 H303 0.949 . S
C308 C314 1.368 . S
C309 C293 1.349 . S
C309 H301 0.950 . S
C309 C307 1.327 . S
C310 C298 1.349 . S
C310 H304 0.950 . S
C310 C311 1.327 . S
C311 H305 0.950 . S
C311 C310 1.327 . S
C311 C315 1.429 . S
C312 C295 1.574 . S
C312 H306 0.949 . S
C312 C316 1.368 . S
C313 C294 1.429 . S
C313 C307 1.429 . S
C313 C314 1.523 . S
C314 C295 1.368 . S
C314 C308 1.368 . S
C314 C313 1.523 . S
C315 C299 1.429 . S
C315 C311 1.429 . S
C315 C316 1.523 . S
C316 C300 1.368 . S
C316 C312 1.368 . S
C316 C315 1.523 . S
H317 C292 0.950 . S
H318 C294 0.950 . S
H319 C295 0.949 . S
H320 C297 0.950 . S
H321 C299 0.950 . S
C322 C323 1.349 . S
C322 C324 1.327 . S
C322 H347 0.950 . S
C323 C322 1.349 . S
C323 C339 1.349 . S
C324 C322 1.327 . S
C324 C343 1.429 . S
C324 H348 0.950 . S
C325 C342 1.574 . S
C325 C344 1.368 . S
C325 H349 0.949 . S
H326 C330 0.949 . S
C327 C328 1.349 . S
C327 C329 1.327 . S
C327 H350 0.950 . S
C328 C327 1.349 . S
C328 C340 1.349 . S
C329 C327 1.327 . S
C329 C345 1.429 . S
C329 H351 0.950 . S
C330 H326 0.949 . S
C330 C338 1.574 . S
C330 C346 1.368 . S
H331 C339 0.950 . S
H332 C337 0.950 . S
H333 C338 0.949 . S
H334 C340 0.950 . S
H335 C341 0.950 . S
H336 C342 0.949 . S
C337 H332 0.950 . S
C337 C339 1.327 . S
C337 C343 1.429 . S
C338 C330 1.574 . S
C338 H333 0.949 . S
C338 C344 1.368 . S
C339 C323 1.349 . S
C339 H331 0.950 . S
C339 C337 1.327 . S
C340 C328 1.349 . S
C340 H334 0.950 . S
C340 C341 1.327 . S
C341 H335 0.950 . S
C341 C340 1.327 . S
C341 C345 1.429 . S
C342 C325 1.574 . S
C342 H336 0.949 . S
C342 C346 1.368 . S
C343 C324 1.429 . S
C343 C337 1.429 . S
C343 C344 1.523 . S
C344 C325 1.368 . S
C344 C338 1.368 . S
C344 C343 1.523 . S
C345 C329 1.429 . S
C345 C341 1.429 . S
C345 C346 1.523 . S
C346 C330 1.368 . S
C346 C342 1.368 . S
C346 C345 1.523 . S
H347 C322 0.950 . S
H348 C324 0.950 . S
H349 C325 0.949 . S
H350 C327 0.950 . S
H351 C329 0.950 . S
C352 C353 1.349 . S
C352 C354 1.327 . S
C352 H377 0.950 . S
C353 C352 1.349 . S
C353 C369 1.349 . S
C354 C352 1.327 . S
C354 C373 1.429 . S
C354 H378 0.950 . S
C355 C372 1.574 . S
C355 C374 1.368 . S
C355 H379 0.949 . S
H356 C360 0.949 . S
C357 C358 1.349 . S
C357 C359 1.327 . S
C357 H380 0.950 . S
C358 C357 1.349 . S
C358 C370 1.349 . S
C359 C357 1.327 . S
C359 C375 1.429 . S
C359 H381 0.950 . S
C360 H356 0.949 . S
C360 C368 1.574 . S
C360 C376 1.368 . S
H361 C369 0.950 . S
H362 C367 0.950 . S
H363 C368 0.949 . S
H364 C370 0.950 . S
H365 C371 0.950 . S
H366 C372 0.949 . S
C367 H362 0.950 . S
C367 C369 1.327 . S
C367 C373 1.429 . S
C368 C360 1.574 . S
C368 H363 0.949 . S
C368 C374 1.368 . S
C369 C353 1.349 . S
C369 H361 0.950 . S
C369 C367 1.327 . S
C370 C358 1.349 . S
C370 H364 0.950 . S
C370 C371 1.327 . S
C371 H365 0.950 . S
C371 C370 1.327 . S
C371 C375 1.429 . S
C372 C355 1.574 . S
C372 H366 0.949 . S
C372 C376 1.368 . S
C373 C354 1.429 . S
C373 C367 1.429 . S
C373 C374 1.523 . S
C374 C355 1.368 . S
C374 C368 1.368 . S
C374 C373 1.523 . S
C375 C359 1.429 . S
C375 C371 1.429 . S
C375 C376 1.523 . S
C376 C360 1.368 . S
C376 C372 1.368 . S
C376 C375 1.523 . S
H377 C352 0.950 . S
H378 C354 0.950 . S
H379 C355 0.949 . S
H380 C357 0.950 . S
H381 C359 0.950 . S
C382 C383 1.349 . S
C382 C384 1.327 . S
C382 H407 0.950 . S
C383 C382 1.349 . S
C383 C399 1.349 . S
C384 C382 1.327 . S
C384 C403 1.429 . S
C384 H408 0.950 . S
C385 C402 1.574 . S
C385 C404 1.368 . S
C385 H409 0.949 . S
H386 C390 0.949 . S
C387 C388 1.349 . S
C387 C389 1.327 . S
C387 H410 0.950 . S
C388 C387 1.349 . S
C388 C400 1.349 . S
C389 C387 1.327 . S
C389 C405 1.429 . S
C389 H411 0.950 . S
C390 H386 0.949 . S
C390 C398 1.574 . S
C390 C406 1.368 . S
H391 C399 0.950 . S
H392 C397 0.950 . S
H393 C398 0.949 . S
H394 C400 0.950 . S
H395 C401 0.950 . S
H396 C402 0.949 . S
C397 H392 0.950 . S
C397 C399 1.327 . S
C397 C403 1.429 . S
C398 C390 1.574 . S
C398 H393 0.949 . S
C398 C404 1.368 . S
C399 C383 1.349 . S
C399 H391 0.950 . S
C399 C397 1.327 . S
C400 C388 1.349 . S
C400 H394 0.950 . S
C400 C401 1.327 . S
C401 H395 0.950 . S
C401 C400 1.327 . S
C401 C405 1.429 . S
C402 C385 1.574 . S
C402 H396 0.949 . S
C402 C406 1.368 . S
C403 C384 1.429 . S
C403 C397 1.429 . S
C403 C404 1.523 . S
C404 C385 1.368 . S
C404 C398 1.368 . S
C404 C403 1.523 . S
C405 C389 1.429 . S
C405 C401 1.429 . S
C405 C406 1.523 . S
C406 C390 1.368 . S
C406 C402 1.368 . S
C406 C405 1.523 . S
H407 C382 0.950 . S
H408 C384 0.950 . S
H409 C385 0.949 . S
H410 C387 0.950 . S
H411 C389 0.950 . S
C412 C413 1.349 . S
C412 C414 1.327 . S
C412 H437 0.950 . S
C413 C412 1.349 . S
C413 C429 1.349 . S
C414 C412 1.327 . S
C414 C433 1.429 . S
C414 H438 0.950 . S
C415 C432 1.574 . S
C415 C434 1.368 . S
C415 H439 0.949 . S
H416 C420 0.949 . S
C417 C418 1.349 . S
C417 C419 1.327 . S
C417 H440 0.950 . S
C418 C417 1.349 . S
C418 C430 1.349 . S
C419 C417 1.327 . S
C419 C435 1.429 . S
C419 H441 0.950 . S
C420 H416 0.949 . S
C420 C428 1.574 . S
C420 C436 1.368 . S
H421 C429 0.950 . S
H422 C427 0.950 . S
H423 C428 0.949 . S
H424 C430 0.950 . S
H425 C431 0.950 . S
H426 C432 0.949 . S
C427 H422 0.950 . S
C427 C429 1.327 . S
C427 C433 1.429 . S
C428 C420 1.574 . S
C428 H423 0.949 . S
C428 C434 1.368 . S
C429 C413 1.349 . S
C429 H421 0.950 . S
C429 C427 1.327 . S
C430 C418 1.349 . S
C430 H424 0.950 . S
C430 C431 1.327 . S
C431 H425 0.950 . S
C431 C430 1.327 . S
C431 C435 1.429 . S
C432 C415 1.574 . S
C432 H426 0.949 . S
C432 C436 1.368 . S
C433 C414 1.429 . S
C433 C427 1.429 . S
C433 C434 1.523 . S
C434 C415 1.368 . S
C434 C428 1.368 . S
C434 C433 1.523 . S
C435 C419 1.429 . S
C435 C431 1.429 . S
C435 C436 1.523 . S
C436 C420 1.368 . S
C436 C432 1.368 . S
C436 C435 1.523 . S
H437 C412 0.950 . S
H438 C414 0.950 . S
H439 C415 0.949 . S
H440 C417 0.950 . S
H441 C419 0.950 . S
C442 C443 1.349 . S
C442 C444 1.327 . S
C442 H467 0.950 . S
C443 C442 1.349 . S
C443 C459 1.349 . S
C444 C442 1.327 . S
C444 C463 1.429 . S
C444 H468 0.950 . S
C445 C462 1.574 . S
C445 C464 1.368 . S
C445 H469 0.949 . S
H446 C450 0.949 . S
C447 C448 1.349 . S
C447 C449 1.327 . S
C447 H470 0.950 . S
C448 C447 1.349 . S
C448 C460 1.349 . S
C449 C447 1.327 . S
C449 C465 1.429 . S
C449 H471 0.950 . S
C450 H446 0.949 . S
C450 C458 1.574 . S
C450 C466 1.368 . S
H451 C459 0.950 . S
H452 C457 0.950 . S
H453 C458 0.949 . S
H454 C460 0.950 . S
H455 C461 0.950 . S
H456 C462 0.949 . S
C457 H452 0.950 . S
C457 C459 1.327 . S
C457 C463 1.429 . S
C458 C450 1.574 . S
C458 H453 0.949 . S
C458 C464 1.368 . S
C459 C443 1.349 . S
C459 H451 0.950 . S
C459 C457 1.327 . S
C460 C448 1.349 . S
C460 H454 0.950 . S
C460 C461 1.327 . S
C461 H455 0.950 . S
C461 C460 1.327 . S
C461 C465 1.429 . S
C462 C445 1.574 . S
C462 H456 0.949 . S
C462 C466 1.368 . S
C463 C444 1.429 . S
C463 C457 1.429 . S
C463 C464 1.523 . S
C464 C445 1.368 . S
C464 C458 1.368 . S
C464 C463 1.523 . S
C465 C449 1.429 . S
C465 C461 1.429 . S
C465 C466 1.523 . S
C466 C450 1.368 . S
C466 C462 1.368 . S
C466 C465 1.523 . S
H467 C442 0.950 . S
H468 C444 0.950 . S
H469 C445 0.949 . S
H470 C447 0.950 . S
H471 C449 0.950 . S
C472 C473 1.349 . S
C472 C474 1.327 . S
C472 H497 0.950 . S
C473 C472 1.349 . S
C473 C489 1.349 . S
C474 C472 1.327 . S
C474 C493 1.429 . S
C474 H498 0.950 . S
C475 C492 1.574 . S
C475 C494 1.368 . S
C475 H499 0.949 . S
H476 C480 0.949 . S
C477 C478 1.349 . S
C477 C479 1.327 . S
C477 H500 0.950 . S
C478 C477 1.349 . S
C478 C490 1.349 . S
C479 C477 1.327 . S
C479 C495 1.429 . S
C479 H501 0.950 . S
C480 H476 0.949 . S
C480 C488 1.574 . S
C480 C496 1.368 . S
H481 C489 0.950 . S
H482 C487 0.950 . S
H483 C488 0.949 . S
H484 C490 0.950 . S
H485 C491 0.950 . S
H486 C492 0.949 . S
C487 H482 0.950 . S
C487 C489 1.327 . S
C487 C493 1.429 . S
C488 C480 1.574 . S
C488 H483 0.949 . S
C488 C494 1.368 . S
C489 C473 1.349 . S
C489 H481 0.950 . S
C489 C487 1.327 . S
C490 C478 1.349 . S
C490 H484 0.950 . S
C490 C491 1.327 . S
C491 H485 0.950 . S
C491 C490 1.327 . S
C491 C495 1.429 . S
C492 C475 1.574 . S
C492 H486 0.949 . S
C492 C496 1.368 . S
C493 C474 1.429 . S
C493 C487 1.429 . S
C493 C494 1.523 . S
C494 C475 1.368 . S
C494 C488 1.368 . S
C494 C493 1.523 . S
C495 C479 1.429 . S
C495 C491 1.429 . S
C495 C496 1.523 . S
C496 C480 1.368 . S
C496 C492 1.368 . S
C496 C495 1.523 . S
H497 C472 0.950 . S
H498 C474 0.950 . S
H499 C475 0.949 . S
H500 C477 0.950 . S
H501 C479 0.950 . S
C502 C503 1.349 . S
C502 C504 1.327 . S
C502 H527 0.950 . S
C503 C502 1.349 . S
C503 C519 1.349 . S
C504 C502 1.327 . S
C504 C523 1.429 . S
C504 H528 0.950 . S
C505 C522 1.574 . S
C505 C524 1.368 . S
C505 H529 0.949 . S
H506 C510 0.949 . S
C507 C508 1.349 . S
C507 C509 1.327 . S
C507 H530 0.950 . S
C508 C507 1.349 . S
C508 C520 1.349 . S
C509 C507 1.327 . S
C509 C525 1.429 . S
C509 H531 0.950 . S
C510 H506 0.949 . S
C510 C518 1.574 . S
C510 C526 1.368 . S
H511 C519 0.950 . S
H512 C517 0.950 . S
H513 C518 0.949 . S
H514 C520 0.950 . S
H515 C521 0.950 . S
H516 C522 0.949 . S
C517 H512 0.950 . S
C517 C519 1.327 . S
C517 C523 1.429 . S
C518 C510 1.574 . S
C518 H513 0.949 . S
C518 C524 1.368 . S
C519 C503 1.349 . S
C519 H511 0.950 . S
C519 C517 1.327 . S
C520 C508 1.349 . S
C520 H514 0.950 . S
C520 C521 1.327 . S
C521 H515 0.950 . S
C521 C520 1.327 . S
C521 C525 1.429 . S
C522 C505 1.574 . S
C522 H516 0.949 . S
C522 C526 1.368 . S
C523 C504 1.429 . S
C523 C517 1.429 . S
C523 C524 1.523 . S
C524 C505 1.368 . S
C524 C518 1.368 . S
C524 C523 1.523 . S
C525 C509 1.429 . S
C525 C521 1.429 . S
C525 C526 1.523 . S
C526 C510 1.368 . S
C526 C522 1.368 . S
C526 C525 1.523 . S
H527 C502 0.950 . S
H528 C504 0.950 . S
H529 C505 0.949 . S
H530 C507 0.950 . S
H531 C509 0.950 . S
C532 C533 1.349 . S
C532 C534 1.327 . S
C532 H557 0.950 . S
C533 C532 1.349 . S
C533 C549 1.349 . S
C534 C532 1.327 . S
C534 C553 1.429 . S
C534 H558 0.950 . S
C535 C552 1.564 1_554 S
C535 C554 1.379 . S
C535 H559 0.948 . S
H536 C540 0.948 . S
C537 C538 1.349 . S
C537 C539 1.327 . S
C537 H560 0.950 . S
C538 C537 1.349 . S
C538 C550 1.349 . S
C539 C537 1.327 . S
C539 C555 1.429 . S
C539 H561 0.950 . S
C540 H536 0.948 . S
C540 C548 1.564 1_556 S
C540 C556 1.379 . S
H541 C549 0.950 . S
H542 C547 0.950 . S
H543 C548 0.949 . S
H544 C550 0.950 . S
H545 C551 0.950 . S
H546 C552 0.949 . S
C547 H542 0.950 . S
C547 C549 1.327 . S
C547 C553 1.429 . S
C548 C540 1.564 1_554 S
C548 H543 0.949 . S
C548 C554 1.368 . S
C549 C533 1.349 . S
C549 H541 0.950 . S
C549 C547 1.327 . S
C550 C538 1.349 . S
C550 H544 0.950 . S
C550 C551 1.327 . S
C551 H545 0.950 . S
C551 C550 1.327 . S
C551 C555 1.429 . S
C552 C535 1.564 1_556 S
C552 H546 0.949 . S
C552 C556 1.368 . S
C553 C534 1.429 . S
C553 C547 1.429 . S
C553 C554 1.523 . S
C554 C535 1.379 . S
C554 C548 1.368 . S
C554 C553 1.523 . S
C555 C539 1.429 . S
C555 C551 1.429 . S
C555 C556 1.523 . S
C556 C540 1.379 . S
C556 C552 1.368 . S
C556 C555 1.523 . S
H557 C532 0.950 . S
H558 C534 0.950 . S
H559 C535 0.948 . S
H560 C537 0.950 . S
H561 C539 0.950 . S
C562 C563 1.349 . S
C562 C564 1.327 . S
C562 H587 0.950 . S
C563 C562 1.349 . S
C563 C579 1.349 . S
C564 C562 1.327 . S
C564 C583 1.429 . S
C564 H588 0.950 . S
C565 C582 1.564 1_554 S
C565 C584 1.368 . S
C565 H589 0.949 . S
H566 C570 0.949 . S
C567 C568 1.349 . S
C567 C569 1.327 . S
C567 H590 0.950 . S
C568 C567 1.349 . S
C568 C580 1.349 . S
C569 C567 1.327 . S
C569 C585 1.429 . S
C569 H591 0.950 . S
C570 H566 0.949 . S
C570 C578 1.564 1_556 S
C570 C586 1.368 . S
H571 C579 0.950 . S
H572 C577 0.950 . S
H573 C578 0.948 . S
H574 C580 0.950 . S
H575 C581 0.950 . S
H576 C582 0.948 . S
C577 H572 0.950 . S
C577 C579 1.327 . S
C577 C583 1.429 . S
C578 C570 1.564 1_554 S
C578 H573 0.948 . S
C578 C584 1.379 . S
C579 C563 1.349 . S
C579 H571 0.950 . S
C579 C577 1.327 . S
C580 C568 1.349 . S
C580 H574 0.950 . S
C580 C581 1.327 . S
C581 H575 0.950 . S
C581 C580 1.327 . S
C581 C585 1.429 . S
C582 C565 1.564 1_556 S
C582 H576 0.948 . S
C582 C586 1.379 . S
C583 C564 1.429 . S
C583 C577 1.429 . S
C583 C584 1.523 . S
C584 C565 1.368 . S
C584 C578 1.379 . S
C584 C583 1.523 . S
C585 C569 1.429 . S
C585 C581 1.429 . S
C585 C586 1.523 . S
C586 C570 1.368 . S
C586 C582 1.379 . S
C586 C585 1.523 . S
H587 C562 0.950 . S
H588 C564 0.950 . S
H589 C565 0.949 . S
H590 C567 0.950 . S
H591 C569 0.950 . S
C113 C3 1.550 . S
C118 C31 1.550 . S
C143 C45 1.550 . S
C148 C17 1.550 . S
C173 C87 1.550 . S
C178 C59 1.550 . S
C203 C73 1.550 . S
C208 C101 1.550 . S
C233 C92 1.804 . S
C238 C8 1.804 . S
C263 C22 1.805 . S
C268 C106 1.805 . S
C293 C36 1.804 . S
C298 C64 1.804 . S
C323 C50 1.805 . S
C328 C78 1.805 . S
C353 C91 1.521 . S
C358 C7 1.521 . S
C383 C21 1.521 . S
C388 C105 1.521 . S
C413 C63 1.521 . S
C418 C35 1.521 . S
C443 C77 1.521 . S
C448 C49 1.521 . S
C473 C23 0.566 . S
C478 C9 0.566 . S
C503 C37 0.566 . S
C508 C51 0.566 . S
C533 C79 0.566 . S
C538 C65 0.566 . S
C563 C93 0.566 . S
C568 C107 0.566 . S
