# Generated by pormake.
# Topology uov, (4)-cn, num edge types: 1
# Building blocks:
#     Node 0, Type 0, BuildingBlock: QUQFOY_clean_sbu_3, # of connection points: 4
#     Node 1, Type 0, BuildingBlock: QUQFOY_clean_sbu_3, # of connection points: 4
#     Node 2, Type 0, BuildingBlock: QUQFOY_clean_sbu_3, # of connection points: 4
#     Node 3, Type 0, BuildingBlock: QUQFOY_clean_sbu_3, # of connection points: 4
#     Node 4, Type 0, BuildingBlock: QUQFOY_clean_sbu_3, # of connection points: 4
#     Node 5, Type 0, BuildingBlock: QUQFOY_clean_sbu_3, # of connection points: 4
#     Node 6, Type 0, BuildingBlock: QUQFOY_clean_sbu_3, # of connection points: 4
#     Node 7, Type 0, BuildingBlock: QUQFOY_clean_sbu_3, # of connection points: 4
#     Edge 8, Type (0, 0), BuildingBlock: CIFDUS_clean_linker_0, # of connection points: 2
#     Edge 9, Type (0, 0), BuildingBlock: CIFDUS_clean_linker_0, # of connection points: 2
#     Edge 10, Type (0, 0), BuildingBlock: CIFDUS_clean_linker_0, # of connection points: 2
#     Edge 11, Type (0, 0), BuildingBlock: CIFDUS_clean_linker_0, # of connection points: 2
#     Edge 12, Type (0, 0), BuildingBlock: CIFDUS_clean_linker_0, # of connection points: 2
#     Edge 13, Type (0, 0), BuildingBlock: CIFDUS_clean_linker_0, # of connection points: 2
#     Edge 14, Type (0, 0), BuildingBlock: CIFDUS_clean_linker_0, # of connection points: 2
#     Edge 15, Type (0, 0), BuildingBlock: CIFDUS_clean_linker_0, # of connection points: 2
#     Edge 16, Type (0, 0), BuildingBlock: CIFDUS_clean_linker_0, # of connection points: 2
#     Edge 17, Type (0, 0), BuildingBlock: CIFDUS_clean_linker_0, # of connection points: 2
#     Edge 18, Type (0, 0), BuildingBlock: CIFDUS_clean_linker_0, # of connection points: 2
#     Edge 19, Type (0, 0), BuildingBlock: CIFDUS_clean_linker_0, # of connection points: 2
#     Edge 20, Type (0, 0), BuildingBlock: CIFDUS_clean_linker_0, # of connection points: 2
#     Edge 21, Type (0, 0), BuildingBlock: CIFDUS_clean_linker_0, # of connection points: 2
#     Edge 22, Type (0, 0), BuildingBlock: CIFDUS_clean_linker_0, # of connection points: 2
#     Edge 23, Type (0, 0), BuildingBlock: CIFDUS_clean_linker_0, # of connection points: 2
# Relax obj value: 0.139
# Max RMSD: 0.154
# Mean RMSD: 0.146
data_MOF--net-uov--node1-QUQFOY_clean_sbu_3--edge1-CIFDUS_clean_linker_0
_symmetry_space_group_name_H-M    P1
_symmetry_Int_Tables_number       1
_symmetry_cell_setting            triclinic
loop_
_symmetry_equiv_pos_as_xyz
'x, y, z'
_cell_length_a     28.051589
_cell_length_b     28.228875
_cell_length_c     38.512881
_cell_angle_alpha  89.910667
_cell_angle_beta   89.944012
_cell_angle_gamma 88.124788
loop_
_atom_site_label
_atom_site_type_symbol
_atom_site_fract_x
_atom_site_fract_y
_atom_site_fract_z
_atom_type_partial_charge
C0 C 0.91604 0.17133 0.58432 0.0
O1 O 0.93092 0.14059 0.60628 0.0
Cd2 Cd 0.00616 0.13841 0.63603 0.0
O3 O 0.94072 0.20722 0.5771 0.0
Cd4 Cd 0.01671 0.24305 0.59509 0.0
C5 C 0.07947 0.14709 0.56404 0.0
O6 O 0.01682 0.21669 0.6547 0.0
O7 O 0.07949 0.25257 0.639 0.0
O8 O 0.97477 0.3195 0.59119 0.0
C9 C 0.05846 0.22933 0.66223 0.0
O10 O 0.06532 0.12412 0.59045 0.0
C11 C 0.00775 0.33941 0.57451 0.0
O12 O 0.06461 0.18953 0.55814 0.0
O13 O 0.04452 0.31412 0.5668 0.0
C14 C 0.15045 0.92189 0.30585 0.0
O15 O 0.12031 0.94719 0.32282 0.0
Cd16 Cd 0.13193 -0.01567 0.37778 0.0
O17 O 0.19324 0.9162 0.31655 0.0
Cd18 Cd 0.24137 0.94343 0.36622 0.0
C19 C 0.17383 0.88497 0.42284 0.0
O20 O 0.2057 0.02156 0.37797 0.0
O21 O 0.24683 -0.01084 0.41929 0.0
O22 O 0.30858 0.97445 0.33509 0.0
C23 C 0.22179 0.02445 0.40864 0.0
O24 O 0.14329 0.91874 0.41808 0.0
C25 C 0.33887 0.94388 0.34645 0.0
O26 O 0.2125 0.8817 0.40544 0.0
O27 O 0.32335 0.91103 0.36559 0.0
C28 C 0.0331 0.78777 0.57843 0.0
O29 O 0.0175 0.81625 0.60165 0.0
Cd30 Cd 0.94343 0.81334 0.6323 0.0
O31 O 0.01004 0.75116 0.57037 0.0
Cd32 Cd 0.93645 0.71099 0.58878 0.0
C33 C 0.87014 0.80581 0.56029 0.0
O34 O 0.93701 0.73379 0.64905 0.0
O35 O 0.87383 0.69946 0.63265 0.0
O36 O -0.01924 0.63587 0.58468 0.0
C37 C 0.89562 0.72045 0.65661 0.0
O38 O 0.88328 0.82751 0.58749 0.0
C39 C 0.94835 0.61492 0.56823 0.0
O40 O 0.88672 0.76443 0.55287 0.0
O41 O 0.91107 0.63929 0.56024 0.0
C42 C 0.78712 0.06027 0.30828 0.0
O43 O 0.82197 0.04294 0.3256 0.0
Cd44 Cd 0.81769 -5e-05 0.37906 0.0
O45 O 0.74438 0.05732 0.31896 0.0
Cd46 Cd 0.7048 0.02813 0.37181 0.0
C47 C 0.7699 0.09082 0.4285 0.0
O48 O 0.74903 0.95305 0.37976 0.0
O49 O 0.70496 -0.02278 0.42249 0.0
O50 O 0.63802 -0.00741 0.34294 0.0
C51 C 0.73321 0.94557 0.4101 0.0
O52 O 0.80347 0.06082 0.42184 0.0
C53 C 0.60678 0.02245 0.35388 0.0
O54 O 0.73015 0.09061 0.41244 0.0
O55 O 0.62121 0.05619 0.37254 0.0
C56 C 0.90804 0.17092 0.14506 0.0
O57 O 0.92234 0.13316 0.12982 0.0
Cd58 Cd 0.97378 0.12124 0.08107 0.0
O59 O 0.91915 0.21187 0.13415 0.0
Cd60 Cd 0.96256 0.24269 0.08269 0.0
C61 C 0.90068 0.17925 0.02209 0.0
O62 O 0.02663 0.18378 0.08644 0.0
O63 O 0.03542 0.2368 0.04753 0.0
O64 O -0.01657 0.31407 0.1152 0.0
C65 C 0.05049 0.19825 0.0609 0.0
O66 O 0.92185 0.1418 0.03338 0.0
C67 C 0.97349 0.34172 0.08994 0.0
O68 O 0.907 0.21976 0.0357 0.0
O69 O 0.95551 0.3235 0.06304 0.0
C70 C 0.17396 0.90783 0.87322 0.0
O71 O 0.13771 0.92251 0.8561 0.0
Cd72 Cd 0.12687 3e-05 0.83244 0.0
O73 O 0.21131 0.93235 0.875 0.0
Cd74 Cd 0.24189 0.00635 0.84828 0.0
C75 C 0.16739 0.06327 0.90324 0.0
O76 O 0.19372 0.01011 0.79631 0.0
O77 O 0.22972 0.07394 0.80845 0.0
O78 O 0.3173 0.96471 0.83495 0.0
C79 C 0.20138 0.05281 0.78865 0.0
O80 O 0.13321 0.0508 0.88387 0.0
C81 C 0.34267 -0.00281 0.8473 0.0
O82 O 0.21049 0.05102 0.89688 0.0
O83 O 0.32101 0.03336 0.85997 0.0
C84 C 0.02271 0.80666 0.14325 0.0
O85 O -0.00493 0.82992 0.12291 0.0
Cd86 Cd 0.97146 0.80791 0.06589 0.0
O87 O 0.03813 0.76492 0.13561 0.0
Cd88 Cd 0.02572 0.70694 0.08796 0.0
C89 C 0.08388 0.77656 0.03292 0.0
O90 O 0.94536 0.72994 0.06909 0.0
O91 O -0.01291 0.68775 0.03337 0.0
O92 O 0.00835 0.64145 0.12732 0.0
C93 C 0.94808 0.70983 0.03973 0.0
O94 O 0.04548 0.80196 0.03282 0.0
C95 C 0.03617 0.61207 0.11177 0.0
O96 O 0.08943 0.74065 0.05279 0.0
O97 O 0.06201 0.62817 0.08766 0.0
C98 C 0.78616 0.02608 0.88363 0.0
O99 O 0.82302 0.01373 0.86624 0.0
Cd100 Cd 0.83408 0.93903 0.8369 0.0
O101 O 0.74966 0.00033 0.88395 0.0
Cd102 Cd 0.72178 0.92685 0.8563 0.0
C103 C 0.80181 0.86612 0.90494 0.0
O104 O 0.76609 0.92813 0.80229 0.0
O105 O 0.73449 0.86188 0.81499 0.0
O106 O 0.64631 0.9676 0.84358 0.0
C107 C 0.7596 0.88534 0.79418 0.0
O108 O 0.83301 0.87944 0.88321 0.0
C109 C 0.62091 0.93484 0.85551 0.0
O110 O 0.75861 0.88122 0.90325 0.0
O111 O 0.6426 0.89869 0.86832 0.0
H112 H 0.02888 0.55958 0.56367 0.0
H113 H 0.87544 0.55508 0.5592 0.0
H114 H 0.88026 0.46852 0.5585 0.0
H115 H 0.92791 0.39438 0.56519 0.0
H116 H 0.08144 0.39868 0.56684 0.0
H117 H 0.07688 0.4851 0.5623 0.0
C118 C -0.00341 0.53957 0.56203 0.0
C119 C 0.95189 0.56346 0.56196 0.0
C120 C -0.00035 0.48989 0.56141 0.0
C121 C 0.91028 0.53735 0.55933 0.0
C122 C 0.91298 0.48789 0.55914 0.0
C123 C 0.96031 0.41431 0.56412 0.0
C124 C 0.00488 0.39052 0.56684 0.0
C125 C 0.95742 0.46383 0.56112 0.0
C126 C 0.0467 0.41641 0.56487 0.0
C127 C 0.04413 0.46577 0.56243 0.0
H128 H 0.56305 0.93972 0.34473 0.0
H129 H 0.53635 0.0909 0.34931 0.0
H130 H 0.45067 0.07956 0.34269 0.0
H131 H 0.38336 0.0264 0.34027 0.0
H132 H 0.40935 0.87506 0.34314 0.0
H133 H 0.49558 0.88646 0.34178 0.0
C134 C 0.53844 0.97015 0.34378 0.0
C135 C 0.55572 0.01608 0.3473 0.0
C136 C 0.48928 0.96321 0.34142 0.0
C137 C 0.52364 0.05526 0.34668 0.0
C138 C 0.47478 0.04876 0.3429 0.0
C139 C 0.40797 -0.00406 0.33995 0.0
C140 C 0.39033 0.94996 0.34145 0.0
C141 C 0.45719 0.00288 0.34086 0.0
C142 C 0.42235 0.91074 0.34185 0.0
C143 C 0.47151 0.91728 0.34118 0.0
H144 H -0.01849 0.4017 0.14529 0.0
H145 H -0.00261 0.39303 0.03396 0.0
H146 H 0.02471 0.47391 0.03207 0.0
H147 H 0.04117 0.54779 0.06119 0.0
H148 H 0.01591 0.56235 0.17107 0.0
H149 H -0.00398 0.47829 0.17471 0.0
C150 C -0.00911 0.41775 0.12072 0.0
C151 C -0.01272 0.39163 0.0898 0.0
C152 C 0.00538 0.46502 0.11965 0.0
C153 C -0.00069 0.41268 0.05805 0.0
C154 C 0.01529 0.45878 0.05694 0.0
C155 C 0.03228 0.53231 0.08609 0.0
C156 C 0.03093 0.56067 0.11595 0.0
C157 C 0.01829 0.48526 0.0875 0.0
C158 C 0.0178 0.54076 0.14785 0.0
C159 C 0.0061 0.49293 0.14984 0.0
H160 H 0.39776 0.91668 0.84912 0.0
H161 H 0.40449 0.06907 0.84633 0.0
H162 H 0.49158 0.06319 0.84763 0.0
H163 H 0.56563 0.01475 0.85035 0.0
H164 H 0.55901 0.8626 0.85763 0.0
H165 H 0.47198 0.86823 0.85395 0.0
C166 C 0.41843 0.94849 0.84859 0.0
C167 C 0.39505 -0.00683 0.8474 0.0
C168 C 0.46835 0.94487 0.85034 0.0
C169 C 0.42193 0.03427 0.84728 0.0
C170 C 0.47163 0.03095 0.84801 0.0
C171 C 0.54507 -0.01713 0.85107 0.0
C172 C 0.56849 0.93837 0.8541 0.0
C173 C 0.49518 -0.01355 0.84968 0.0
C174 C 0.54159 0.8973 0.85542 0.0
C175 C 0.49192 0.90047 0.85321 0.0
H176 H 0.22078 0.01551 0.47845 0.0
H177 H 0.17204 0.10738 0.39523 0.0
H178 H 0.1263 0.15633 0.43678 0.0
H179 H 0.09497 0.16863 0.49607 0.0
H180 H 0.13966 0.07211 0.57773 0.0
H181 H 0.19214 0.0292 0.53736 0.0
C182 C 0.20082 0.04669 0.4694 0.0
C183 C 0.19979 0.05789 0.43384 0.0
C184 C 0.1734 0.07343 0.49311 0.0
C185 C 0.17334 0.09811 0.42252 0.0
C186 C 0.14706 0.12592 0.44623 0.0
C187 C 0.11661 0.13852 0.50505 0.0
C188 C 0.11325 0.12341 0.53976 0.0
C189 C 0.14597 0.11326 0.48148 0.0
C190 C 0.14125 0.08416 0.55104 0.0
C191 C 0.17138 0.05967 0.52802 0.0
H192 H 0.1765 0.90178 0.4908 0.0
H193 H 0.14533 0.79438 0.41574 0.0
H194 H 0.10454 0.74873 0.46049 0.0
H195 H 0.06527 0.74816 0.51777 0.0
H196 H 0.09434 0.85853 0.59164 0.0
H197 H 0.14937 0.89369 0.5509 0.0
C198 C 0.16228 0.86745 0.48473 0.0
C199 C 0.16378 0.85103 0.45043 0.0
C200 C 0.13787 0.84245 0.51023 0.0
C201 C 0.14489 0.80708 0.44228 0.0
C202 C 0.12117 0.78138 0.46774 0.0
C203 C 0.08457 0.77917 0.52532 0.0
C204 C 0.07471 0.80134 0.55738 0.0
C205 C 0.11548 0.79995 0.50139 0.0
C206 C 0.10048 0.84123 0.56688 0.0
C207 C 0.13195 0.86148 0.54357 0.0
H208 H 0.7269 0.94128 0.47997 0.0
H209 H 0.79142 0.86992 0.39185 0.0
H210 H 0.83647 0.8166 0.43094 0.0
H211 H 0.86254 0.79516 0.49031 0.0
H212 H 0.802 0.87186 0.57753 0.0
H213 H 0.75019 0.91818 0.5386 0.0
C214 C 0.75029 0.91365 0.46922 0.0
C215 C 0.75593 0.90958 0.43309 0.0
C216 C 0.77708 0.88437 0.49173 0.0
C217 C 0.7866 0.87378 0.41963 0.0
C218 C 0.81243 0.84342 0.44195 0.0
C219 C 0.83749 0.82157 0.50073 0.0
C220 C 0.83613 0.83027 0.53666 0.0
C221 C 0.80873 0.84909 0.47807 0.0
C222 C 0.80391 0.86485 0.5499 0.0
C223 C 0.77426 0.89129 0.52769 0.0
H224 H 0.76267 0.07226 0.49609 0.0
H225 H 0.80043 0.18074 0.42343 0.0
H226 H 0.84375 0.2218 0.46906 0.0
H227 H 0.88436 0.21653 0.52561 0.0
H228 H 0.85066 0.1038 0.59658 0.0
H229 H 0.79164 0.07518 0.55603 0.0
C230 C 0.77857 0.10609 0.49083 0.0
C231 C 0.77816 0.12399 0.45686 0.0
C232 C 0.80514 0.12799 0.51671 0.0
C233 C 0.79972 0.16704 0.44972 0.0
C234 C 0.82505 0.19002 0.47567 0.0
C235 C 0.86324 0.18647 0.53263 0.0
C236 C 0.87284 0.16164 0.56373 0.0
C237 C 0.83016 0.16933 0.50871 0.0
C238 C 0.84473 0.12303 0.57252 0.0
C239 C 0.81094 0.10657 0.54933 0.0
H240 H 0.84496 0.10073 0.88008 0.0
H241 H 0.73417 0.04095 0.94262 0.0
H242 H 0.75384 0.09302 -0.0094 0.0
H243 H 0.81396 0.14205 0.01838 0.0
H244 H 0.92511 0.20121 0.9564 0.0
H245 H 0.89338 0.16387 0.90434 0.0
C246 C 0.82429 0.10006 0.90388 0.0
C247 C 0.78902 0.0662 0.90811 0.0
C248 C 0.83612 0.12981 0.93154 0.0
C249 C 0.76184 0.06633 0.9388 0.0
C250 C 0.77325 0.09592 0.96638 0.0
C251 C 0.82969 0.1485 -0.00688 0.0
C252 C 0.87147 0.17429 -0.00911 0.0
C253 C 0.81191 0.12595 0.96361 0.0
C254 C 0.89241 0.18198 0.95838 0.0
C255 C 0.87468 0.16006 0.92878 0.0
H256 H 0.13149 0.03666 0.96477 0.0
H257 H 0.17998 0.15723 0.90765 0.0
H258 H 0.15402 0.21023 0.95486 0.0
H259 H 0.10932 0.22243 0.00889 0.0
H260 H 0.06137 0.10181 0.06664 0.0
H261 H 0.09665 0.04825 0.02322 0.0
C262 C 0.13681 0.0745 0.96311 0.0
C263 C 0.15679 0.09362 0.93306 0.0
C264 C 0.12205 0.10446 -0.00965 0.0
C265 C 0.16426 0.14232 0.93077 0.0
C266 C 0.14948 0.17243 0.95764 0.0
C267 C 0.10745 0.18437 0.01233 0.0
C268 C 0.08185 0.16609 0.0404 0.0
C269 C 0.1272 0.15397 -0.0129 0.0
C270 C 0.08039 0.11676 0.04497 0.0
C271 C 0.10026 0.08612 0.02004 0.0
H272 H 0.08006 0.75766 0.96537 0.0
H273 H 0.16576 0.82375 0.04295 0.0
H274 H 0.21063 0.86399 -0.00253 0.0
H275 H 0.21279 0.89259 0.93694 0.0
H276 H 0.12119 0.8309 0.86058 0.0
H277 H 0.09225 0.77555 0.90386 0.0
C278 C 0.10989 0.77944 0.97206 0.0
C279 C 0.1201 0.78781 0.00707 0.0
C280 C 0.13393 0.80364 0.94594 0.0
C281 C 0.15799 0.81657 0.01595 0.0
C282 C 0.18318 0.83988 -0.01002 0.0
C283 C 0.18787 0.86582 0.92954 0.0
C284 C 0.16861 0.86611 0.89582 0.0
C285 C 0.16977 0.83551 0.955 0.0
C286 C 0.13607 0.83156 0.88653 0.0
C287 C 0.11932 0.80012 0.91129 0.0
H288 H 0.86669 0.794 0.90096 0.0
H289 H 0.77047 0.86636 0.97195 0.0
H290 H 0.80376 0.81969 0.02042 0.0
H291 H 0.8666 0.76484 0.04301 0.0
H292 H 0.96082 0.69116 0.97095 0.0
H293 H 0.92119 0.73108 0.92239 0.0
C294 C 0.85272 0.79909 0.92702 0.0
C295 C 0.81694 0.83392 0.93318 0.0
C296 C 0.87164 0.77196 0.95449 0.0
C297 C 0.79826 0.83975 0.96679 0.0
C298 C 0.81736 0.81323 -0.00556 0.0
C299 C 0.87778 0.75682 0.01664 0.0
C300 C 0.91718 0.7258 0.01069 0.0
C301 C 0.85496 0.78012 -0.0113 0.0
C302 C 0.9309 0.71527 -0.02366 0.0
C303 C 0.90844 0.73827 0.9485 0.0
H304 H 0.04153 0.14516 0.69328 0.0
H305 H 0.13962 0.25966 0.69243 0.0
H306 H 0.19282 0.21511 0.73187 0.0
H307 H 0.21328 0.14178 0.76396 0.0
H308 H 0.11811 0.0248 0.76002 0.0
H309 H 0.06257 0.07162 0.72409 0.0
C310 C 0.07434 0.16056 0.70187 0.0
C311 C 0.08665 0.20562 0.68996 0.0
C312 C 0.10573 0.13386 0.72306 0.0
C313 C 0.12937 0.22502 0.70136 0.0
C314 C 0.15993 0.19945 0.72366 0.0
C315 C 0.18047 0.12651 0.75509 0.0
C316 C 0.16988 0.07989 0.76457 0.0
C317 C 0.14889 0.15346 0.73412 0.0
C318 C 0.1273 0.06048 0.75285 0.0
C319 C 0.09533 0.08735 0.73253 0.0
H320 H 0.10665 0.79138 0.17732 0.0
H321 H 0.97523 0.87516 0.18005 0.0
H322 H 0.00356 0.91853 0.23031 0.0
H323 H 0.06585 0.93373 0.27257 0.0
H324 H 0.19892 0.85254 0.2691 0.0
H325 H 0.16998 0.80751 0.21968 0.0
C326 C 0.08409 0.81877 0.18923 0.0
C327 C 0.03884 0.82989 0.17521 0.0
C328 C 0.10109 0.84441 0.21762 0.0
C329 C 0.01022 0.86599 0.19043 0.0
C330 C 0.02641 0.89087 0.21909 0.0
C331 C 0.08867 0.90627 0.26102 0.0
C332 C 0.13447 0.89656 0.27456 0.0
C333 C 0.0719 0.88065 0.23268 0.0
C334 C 0.16357 0.86095 0.2591 0.0
C335 C 0.14696 0.83499 0.23095 0.0
H336 H 0.91417 0.80154 0.69092 0.0
H337 H 0.81512 0.688 0.68678 0.0
H338 H 0.76391 0.7291 0.7294 0.0
H339 H 0.74567 0.79925 0.76555 0.0
H340 H 0.84131 0.91595 0.76463 0.0
H341 H 0.89485 0.87232 0.72522 0.0
C342 C 0.88154 0.78562 0.6994 0.0
C343 C 0.8684 0.74182 0.68573 0.0
C344 C 0.85123 0.8105 0.72241 0.0
C345 C 0.82597 0.72168 0.69706 0.0
C346 C 0.79657 0.7453 0.72119 0.0
C347 C 0.77813 0.81516 0.75654 0.0
C348 C 0.78951 0.86072 0.76791 0.0
C349 C 0.80845 0.79013 0.73355 0.0
C350 C 0.83155 0.88108 0.756 0.0
C351 C 0.86238 0.85601 0.73371 0.0
H352 H 0.84561 0.13251 0.29768 0.0
H353 H 0.75004 0.03997 0.24534 0.0
H354 H 0.77551 0.07066 0.18892 0.0
H355 H 0.83236 0.11662 0.155 0.0
H356 H 0.92463 0.2126 0.20718 0.0
H357 H 0.89234 0.18875 0.26351 0.0
C358 C 0.82995 0.1198 0.27383 0.0
C359 C 0.79677 0.08371 0.27519 0.0
C360 C 0.84413 0.1382 0.24176 0.0
C361 C 0.77585 0.06768 0.24453 0.0
C362 C 0.79049 0.08508 0.21243 0.0
C363 C 0.84439 0.13308 0.17874 0.0
C364 C 0.88092 0.16583 0.17733 0.0
C365 C 0.8256 0.11931 0.21076 0.0
C366 C 0.89631 0.18742 0.20791 0.0
C367 C 0.87822 0.17346 0.24003 0.0
loop_
_geom_bond_atom_site_label_1
_geom_bond_atom_site_label_2
_geom_bond_distance
_geom_bond_site_symmetry_2
_ccdc_geom_bond_type
C0 O1 1.306 . S
C0 O3 1.160 . S
O1 C0 1.306 . S
O1 Cd2 2.228 . S
Cd2 O1 2.228 . S
Cd2 O6 2.273 . S
Cd2 O10 2.277 . S
O3 C0 1.160 . S
O3 Cd4 2.203 . S
Cd4 O3 2.203 . S
Cd4 O6 2.411 . S
Cd4 O7 2.333 . S
Cd4 O8 2.352 . S
Cd4 O12 2.277 . S
Cd4 O13 2.356 . S
C5 O10 1.209 . S
C5 O12 1.226 . S
O6 Cd2 2.273 . S
O6 Cd4 2.411 . S
O6 C9 1.320 . S
O7 Cd4 2.333 . S
O7 C9 1.214 . S
O8 Cd4 2.352 . S
O8 C11 1.258 . S
C9 O6 1.320 . S
C9 O7 1.214 . S
O10 Cd2 2.277 . S
O10 C5 1.209 . S
C11 O8 1.258 . S
C11 O13 1.282 . S
O12 Cd4 2.277 . S
O12 C5 1.226 . S
O13 Cd4 2.356 . S
O13 C11 1.282 . S
C14 O15 1.306 . S
C14 O17 1.160 . S
O15 C14 1.306 . S
O15 Cd16 2.228 . S
Cd16 O15 2.228 . S
Cd16 O20 2.273 . S
Cd16 O24 2.277 . S
O17 C14 1.160 . S
O17 Cd18 2.203 . S
Cd18 O17 2.203 . S
Cd18 O20 2.411 . S
Cd18 O21 2.333 . S
Cd18 O22 2.352 . S
Cd18 O26 2.277 . S
Cd18 O27 2.356 . S
C19 O24 1.209 . S
C19 O26 1.226 . S
O20 Cd16 2.273 . S
O20 Cd18 2.411 . S
O20 C23 1.320 . S
O21 Cd18 2.333 . S
O21 C23 1.214 . S
O22 Cd18 2.352 . S
O22 C25 1.258 . S
C23 O20 1.320 . S
C23 O21 1.214 . S
O24 Cd16 2.277 . S
O24 C19 1.209 . S
C25 O22 1.258 . S
C25 O27 1.282 . S
O26 Cd18 2.277 . S
O26 C19 1.226 . S
O27 Cd18 2.356 . S
O27 C25 1.282 . S
C28 O29 1.306 . S
C28 O31 1.160 . S
O29 C28 1.306 . S
O29 Cd30 2.228 . S
Cd30 O29 2.228 . S
Cd30 O34 2.273 . S
Cd30 O38 2.277 . S
O31 C28 1.160 . S
O31 Cd32 2.203 . S
Cd32 O31 2.203 . S
Cd32 O34 2.411 . S
Cd32 O35 2.333 . S
Cd32 O36 2.352 . S
Cd32 O40 2.277 . S
Cd32 O41 2.356 . S
C33 O38 1.209 . S
C33 O40 1.226 . S
O34 Cd30 2.273 . S
O34 Cd32 2.411 . S
O34 C37 1.320 . S
O35 Cd32 2.333 . S
O35 C37 1.214 . S
O36 Cd32 2.352 . S
O36 C39 1.258 . S
C37 O34 1.320 . S
C37 O35 1.214 . S
O38 Cd30 2.277 . S
O38 C33 1.209 . S
C39 O36 1.258 . S
C39 O41 1.282 . S
O40 Cd32 2.277 . S
O40 C33 1.226 . S
O41 Cd32 2.356 . S
O41 C39 1.282 . S
C42 O43 1.306 . S
C42 O45 1.160 . S
O43 C42 1.306 . S
O43 Cd44 2.228 . S
Cd44 O43 2.228 . S
Cd44 O48 2.273 . S
Cd44 O52 2.277 . S
O45 C42 1.160 . S
O45 Cd46 2.203 . S
Cd46 O45 2.203 . S
Cd46 O48 2.411 . S
Cd46 O49 2.333 . S
Cd46 O50 2.352 . S
Cd46 O54 2.277 . S
Cd46 O55 2.356 . S
C47 O52 1.209 . S
C47 O54 1.226 . S
O48 Cd44 2.273 . S
O48 Cd46 2.411 . S
O48 C51 1.320 . S
O49 Cd46 2.333 . S
O49 C51 1.214 . S
O50 Cd46 2.352 . S
O50 C53 1.258 . S
C51 O48 1.320 . S
C51 O49 1.214 . S
O52 Cd44 2.277 . S
O52 C47 1.209 . S
C53 O50 1.258 . S
C53 O55 1.282 . S
O54 Cd46 2.277 . S
O54 C47 1.226 . S
O55 Cd46 2.356 . S
O55 C53 1.282 . S
C56 O57 1.306 . S
C56 O59 1.160 . S
O57 C56 1.306 . S
O57 Cd58 2.228 . S
Cd58 O57 2.228 . S
Cd58 O62 2.273 . S
Cd58 O66 2.277 . S
O59 C56 1.160 . S
O59 Cd60 2.203 . S
Cd60 O59 2.203 . S
Cd60 O62 2.411 . S
Cd60 O63 2.333 . S
Cd60 O64 2.352 . S
Cd60 O68 2.277 . S
Cd60 O69 2.356 . S
C61 O66 1.209 . S
C61 O68 1.226 . S
O62 Cd58 2.273 . S
O62 Cd60 2.411 . S
O62 C65 1.320 . S
O63 Cd60 2.333 . S
O63 C65 1.214 . S
O64 Cd60 2.352 . S
O64 C67 1.258 . S
C65 O62 1.320 . S
C65 O63 1.214 . S
O66 Cd58 2.277 . S
O66 C61 1.209 . S
C67 O64 1.258 . S
C67 O69 1.282 . S
O68 Cd60 2.277 . S
O68 C61 1.226 . S
O69 Cd60 2.356 . S
O69 C67 1.282 . S
C70 O71 1.306 . S
C70 O73 1.160 . S
O71 C70 1.306 . S
O71 Cd72 2.228 . S
Cd72 O71 2.228 . S
Cd72 O76 2.273 . S
Cd72 O80 2.277 . S
O73 C70 1.160 . S
O73 Cd74 2.203 . S
Cd74 O73 2.203 . S
Cd74 O76 2.411 . S
Cd74 O77 2.333 . S
Cd74 O78 2.352 . S
Cd74 O82 2.277 . S
Cd74 O83 2.356 . S
C75 O80 1.209 . S
C75 O82 1.226 . S
O76 Cd72 2.273 . S
O76 Cd74 2.411 . S
O76 C79 1.320 . S
O77 Cd74 2.333 . S
O77 C79 1.214 . S
O78 Cd74 2.352 . S
O78 C81 1.258 . S
C79 O76 1.320 . S
C79 O77 1.214 . S
O80 Cd72 2.277 . S
O80 C75 1.209 . S
C81 O78 1.258 . S
C81 O83 1.282 . S
O82 Cd74 2.277 . S
O82 C75 1.226 . S
O83 Cd74 2.356 . S
O83 C81 1.282 . S
C84 O85 1.306 . S
C84 O87 1.160 . S
O85 C84 1.306 . S
O85 Cd86 2.228 . S
Cd86 O85 2.228 . S
Cd86 O90 2.273 . S
Cd86 O94 2.277 . S
O87 C84 1.160 . S
O87 Cd88 2.203 . S
Cd88 O87 2.203 . S
Cd88 O90 2.411 . S
Cd88 O91 2.333 . S
Cd88 O92 2.352 . S
Cd88 O96 2.277 . S
Cd88 O97 2.356 . S
C89 O94 1.209 . S
C89 O96 1.226 . S
O90 Cd86 2.273 . S
O90 Cd88 2.411 . S
O90 C93 1.320 . S
O91 Cd88 2.333 . S
O91 C93 1.214 . S
O92 Cd88 2.352 . S
O92 C95 1.258 . S
C93 O90 1.320 . S
C93 O91 1.214 . S
O94 Cd86 2.277 . S
O94 C89 1.209 . S
C95 O92 1.258 . S
C95 O97 1.282 . S
O96 Cd88 2.277 . S
O96 C89 1.226 . S
O97 Cd88 2.356 . S
O97 C95 1.282 . S
C98 O99 1.306 . S
C98 O101 1.160 . S
O99 C98 1.306 . S
O99 Cd100 2.228 . S
Cd100 O99 2.228 . S
Cd100 O104 2.273 . S
Cd100 O108 2.277 . S
O101 C98 1.160 . S
O101 Cd102 2.203 . S
Cd102 O101 2.203 . S
Cd102 O104 2.411 . S
Cd102 O105 2.333 . S
Cd102 O106 2.352 . S
Cd102 O110 2.277 . S
Cd102 O111 2.356 . S
C103 O108 1.209 . S
C103 O110 1.226 . S
O104 Cd100 2.273 . S
O104 Cd102 2.411 . S
O104 C107 1.320 . S
O105 Cd102 2.333 . S
O105 C107 1.214 . S
O106 Cd102 2.352 . S
O106 C109 1.258 . S
C107 O104 1.320 . S
C107 O105 1.214 . S
O108 Cd100 2.277 . S
O108 C103 1.209 . S
C109 O106 1.258 . S
C109 O111 1.282 . S
O110 Cd102 2.277 . S
O110 C103 1.226 . S
O111 Cd102 2.356 . S
O111 C109 1.282 . S
H112 C118 0.930 1_455 S
H113 C121 0.930 . S
H114 C122 0.930 . S
H115 C123 0.930 1_655 S
H116 C126 0.930 . S
H117 C127 0.930 . S
C118 H112 0.930 1_655 S
C118 C119 1.355 . S
C118 C120 1.415 1_655 S
C119 C118 1.355 . S
C119 C121 1.419 . S
C120 C118 1.415 1_455 S
C120 C125 1.425 1_455 S
C120 C127 1.409 . S
C121 H113 0.930 . S
C121 C119 1.419 . S
C121 C122 1.362 . S
C122 H114 0.930 . S
C122 C121 1.362 . S
C122 C125 1.409 . S
C123 H115 0.930 1_455 S
C123 C124 1.355 . S
C123 C125 1.415 1_455 S
C124 C123 1.355 . S
C124 C126 1.419 . S
C125 C120 1.425 1_655 S
C125 C122 1.409 . S
C125 C123 1.415 1_655 S
C126 H116 0.930 . S
C126 C124 1.419 . S
C126 C127 1.362 . S
C127 H117 0.930 . S
C127 C120 1.409 . S
C127 C126 1.362 . S
H128 C134 0.930 1_565 S
H129 C137 0.930 . S
H130 C138 0.930 . S
H131 C139 0.930 1_545 S
H132 C142 0.930 . S
H133 C143 0.930 . S
C134 H128 0.930 1_545 S
C134 C135 1.355 . S
C134 C136 1.415 1_545 S
C135 C134 1.355 . S
C135 C137 1.419 . S
C136 C134 1.415 1_565 S
C136 C141 1.425 1_565 S
C136 C143 1.409 . S
C137 H129 0.930 . S
C137 C135 1.419 . S
C137 C138 1.362 . S
C138 H130 0.930 . S
C138 C137 1.362 . S
C138 C141 1.409 . S
C139 H131 0.930 1_565 S
C139 C140 1.355 . S
C139 C141 1.415 1_565 S
C140 C139 1.355 . S
C140 C142 1.419 . S
C141 C136 1.425 1_545 S
C141 C138 1.409 . S
C141 C139 1.415 1_545 S
C142 H132 0.930 . S
C142 C140 1.419 . S
C142 C143 1.362 . S
C143 H133 0.930 . S
C143 C136 1.409 . S
C143 C142 1.362 . S
H144 C150 0.930 . S
H145 C153 0.930 . S
H146 C154 0.930 . S
H147 C155 0.930 . S
H148 C158 0.930 . S
H149 C159 0.930 . S
C150 H144 0.930 . S
C150 C151 1.355 . S
C150 C152 1.420 . S
C151 C150 1.355 . S
C151 C153 1.419 . S
C152 C150 1.420 . S
C152 C157 1.425 1_655 S
C152 C159 1.404 1_655 S
C153 H145 0.930 . S
C153 C151 1.419 . S
C153 C154 1.362 . S
C154 H146 0.930 . S
C154 C153 1.362 . S
C154 C157 1.404 1_655 S
C155 H147 0.930 . S
C155 C156 1.355 . S
C155 C157 1.420 . S
C156 C155 1.355 . S
C156 C158 1.419 . S
C157 C152 1.425 1_455 S
C157 C154 1.404 1_455 S
C157 C155 1.420 . S
C158 H148 0.930 . S
C158 C156 1.419 . S
C158 C159 1.362 . S
C159 H149 0.930 . S
C159 C152 1.404 1_455 S
C159 C158 1.362 . S
H160 C166 0.930 . S
H161 C169 0.930 . S
H162 C170 0.930 . S
H163 C171 0.930 . S
H164 C174 0.930 . S
H165 C175 0.930 . S
C166 H160 0.930 . S
C166 C167 1.355 . S
C166 C168 1.415 1_545 S
C167 C166 1.355 . S
C167 C169 1.419 . S
C168 C166 1.415 1_565 S
C168 C173 1.425 1_565 S
C168 C175 1.409 . S
C169 H161 0.930 . S
C169 C167 1.419 . S
C169 C170 1.362 . S
C170 H162 0.930 . S
C170 C169 1.362 . S
C170 C173 1.409 . S
C171 H163 0.930 . S
C171 C172 1.355 . S
C171 C173 1.415 1_565 S
C172 C171 1.355 . S
C172 C174 1.419 . S
C173 C168 1.425 1_545 S
C173 C170 1.409 . S
C173 C171 1.415 1_545 S
C174 H164 0.930 . S
C174 C172 1.419 . S
C174 C175 1.362 . S
C175 H165 0.930 . S
C175 C168 1.409 . S
C175 C174 1.362 . S
H176 C182 0.930 . S
H177 C185 0.930 . S
H178 C186 0.930 . S
H179 C187 0.930 . S
H180 C190 0.930 . S
H181 C191 0.930 . S
C182 H176 0.930 . S
C182 C183 1.355 . S
C182 C184 1.415 . S
C183 C182 1.355 . S
C183 C185 1.419 . S
C184 C182 1.415 . S
C184 C189 1.425 . S
C184 C191 1.409 . S
C185 H177 0.930 . S
C185 C183 1.419 . S
C185 C186 1.362 . S
C186 H178 0.930 . S
C186 C185 1.362 . S
C186 C189 1.409 . S
C187 H179 0.930 . S
C187 C188 1.355 . S
C187 C189 1.415 . S
C188 C187 1.355 . S
C188 C190 1.419 . S
C189 C184 1.425 . S
C189 C186 1.409 . S
C189 C187 1.415 . S
C190 H180 0.930 . S
C190 C188 1.419 . S
C190 C191 1.362 . S
C191 H181 0.930 . S
C191 C184 1.409 . S
C191 C190 1.362 . S
H192 C198 0.930 . S
H193 C201 0.930 . S
H194 C202 0.930 . S
H195 C203 0.930 . S
H196 C206 0.930 . S
H197 C207 0.930 . S
C198 H192 0.930 . S
C198 C199 1.355 . S
C198 C200 1.415 . S
C199 C198 1.355 . S
C199 C201 1.419 . S
C200 C198 1.415 . S
C200 C205 1.425 . S
C200 C207 1.409 . S
C201 H193 0.930 . S
C201 C199 1.419 . S
C201 C202 1.362 . S
C202 H194 0.930 . S
C202 C201 1.362 . S
C202 C205 1.409 . S
C203 H195 0.930 . S
C203 C204 1.355 . S
C203 C205 1.415 . S
C204 C203 1.355 . S
C204 C206 1.419 . S
C205 C200 1.425 . S
C205 C202 1.409 . S
C205 C203 1.415 . S
C206 H196 0.930 . S
C206 C204 1.419 . S
C206 C207 1.362 . S
C207 H197 0.930 . S
C207 C200 1.409 . S
C207 C206 1.362 . S
H208 C214 0.930 1_545 S
H209 C217 0.930 . S
H210 C218 0.930 . S
H211 C219 0.930 . S
H212 C222 0.930 . S
H213 C223 0.930 . S
C214 H208 0.930 1_565 S
C214 C215 1.355 . S
C214 C216 1.415 . S
C215 C214 1.355 . S
C215 C217 1.419 . S
C216 C214 1.415 . S
C216 C221 1.425 . S
C216 C223 1.409 . S
C217 H209 0.930 . S
C217 C215 1.419 . S
C217 C218 1.362 . S
C218 H210 0.930 . S
C218 C217 1.362 . S
C218 C221 1.409 . S
C219 H211 0.930 . S
C219 C220 1.355 . S
C219 C221 1.415 . S
C220 C219 1.355 . S
C220 C222 1.419 . S
C221 C216 1.425 . S
C221 C218 1.409 . S
C221 C219 1.415 . S
C222 H212 0.930 . S
C222 C220 1.419 . S
C222 C223 1.362 . S
C223 H213 0.930 . S
C223 C216 1.409 . S
C223 C222 1.362 . S
H224 C230 0.930 . S
H225 C233 0.930 . S
H226 C234 0.930 . S
H227 C235 0.930 . S
H228 C238 0.930 . S
H229 C239 0.930 . S
C230 H224 0.930 . S
C230 C231 1.355 . S
C230 C232 1.415 . S
C231 C230 1.355 . S
C231 C233 1.419 . S
C232 C230 1.415 . S
C232 C237 1.425 . S
C232 C239 1.409 . S
C233 H225 0.930 . S
C233 C231 1.419 . S
C233 C234 1.362 . S
C234 H226 0.930 . S
C234 C233 1.362 . S
C234 C237 1.409 . S
C235 H227 0.930 . S
C235 C236 1.355 . S
C235 C237 1.415 . S
C236 C235 1.355 . S
C236 C238 1.419 . S
C237 C232 1.425 . S
C237 C234 1.409 . S
C237 C235 1.415 . S
C238 H228 0.930 . S
C238 C236 1.419 . S
C238 C239 1.362 . S
C239 H229 0.930 . S
C239 C232 1.409 . S
C239 C238 1.362 . S
H240 C246 0.930 . S
H241 C249 0.930 . S
H242 C250 0.930 . S
H243 C251 0.930 . S
H244 C254 0.930 . S
H245 C255 0.930 . S
C246 H240 0.930 . S
C246 C247 1.355 . S
C246 C248 1.415 . S
C247 C246 1.355 . S
C247 C249 1.419 . S
C248 C246 1.415 . S
C248 C253 1.425 1_556 S
C248 C255 1.409 . S
C249 H241 0.930 . S
C249 C247 1.419 . S
C249 C250 1.362 1_556 S
C250 H242 0.930 . S
C250 C249 1.362 1_554 S
C250 C253 1.409 . S
C251 H243 0.930 . S
C251 C252 1.355 . S
C251 C253 1.415 . S
C252 C251 1.355 . S
C252 C254 1.419 . S
C253 C248 1.425 1_554 S
C253 C250 1.409 . S
C253 C251 1.415 . S
C254 H244 0.930 . S
C254 C252 1.419 . S
C254 C255 1.362 1_554 S
C255 H245 0.930 . S
C255 C248 1.409 . S
C255 C254 1.362 1_556 S
H256 C262 0.930 . S
H257 C265 0.930 . S
H258 C266 0.924 1_554 S
H259 C267 0.930 . S
H260 C270 0.930 1_655 S
H261 C271 0.930 . S
C262 H256 0.930 . S
C262 C263 1.355 . S
C262 C264 1.434 . S
C263 C262 1.355 . S
C263 C265 1.419 . S
C264 C262 1.434 . S
C264 C269 1.416 1_556 S
C264 C271 1.400 1_556 S
C265 H257 0.930 . S
C265 C263 1.419 . S
C265 C266 1.375 . S
C266 H258 0.924 1_556 S
C266 C265 1.375 . S
C266 C269 1.402 1_556 S
C267 H259 0.930 . S
C267 C268 1.355 . S
C267 C269 1.415 . S
C268 C267 1.355 . S
C268 C270 1.419 . S
C269 C264 1.416 1_554 S
C269 C266 1.402 1_554 S
C269 C267 1.415 . S
C270 H260 0.930 1_455 S
C270 C268 1.419 . S
C270 C271 1.362 . S
C271 H261 0.930 . S
C271 C264 1.400 1_554 S
C271 C270 1.362 . S
H272 C278 0.930 . S
H273 C281 0.930 . S
H274 C282 0.930 . S
H275 C283 0.930 1_554 S
H276 C286 0.930 . S
H277 C287 0.930 . S
C278 H272 0.930 . S
C278 C279 1.355 1_556 S
C278 C280 1.415 . S
C279 C278 1.355 1_554 S
C279 C281 1.419 . S
C280 C278 1.415 . S
C280 C285 1.425 1_556 S
C280 C287 1.409 . S
C281 H273 0.930 . S
C281 C279 1.419 . S
C281 C282 1.362 . S
C282 H274 0.930 . S
C282 C281 1.362 . S
C282 C285 1.409 . S
C283 H275 0.930 1_556 S
C283 C284 1.355 . S
C283 C285 1.415 1_556 S
C284 C283 1.355 . S
C284 C286 1.419 . S
C285 C280 1.425 1_554 S
C285 C282 1.409 . S
C285 C283 1.415 1_554 S
C286 H276 0.930 . S
C286 C284 1.419 . S
C286 C287 1.362 . S
C287 H277 0.930 . S
C287 C280 1.409 . S
C287 C286 1.362 . S
H288 C294 0.930 . S
H289 C297 0.930 . S
H290 C298 0.930 . S
H291 C299 0.930 . S
H292 C302 0.935 1_455 S
H293 C303 0.930 . S
C294 H288 0.930 . S
C294 C295 1.355 . S
C294 C296 1.415 . S
C295 C294 1.355 . S
C295 C297 1.419 1_556 S
C296 C294 1.415 . S
C296 C301 1.425 1_556 S
C296 C303 1.409 . S
C297 H289 0.930 . S
C297 C295 1.419 1_554 S
C297 C298 1.362 . S
C298 H290 0.930 . S
C298 C297 1.362 . S
C298 C301 1.409 . S
C299 H291 0.930 . S
C299 C300 1.355 . S
C299 C301 1.415 . S
C300 C299 1.355 . S
C300 C302 1.419 . S
C301 C296 1.425 1_554 S
C301 C298 1.409 . S
C301 C299 1.415 . S
C302 H292 0.935 1_655 S
C302 C300 1.419 . S
C302 C303 1.362 1_554 S
C303 H293 0.930 . S
C303 C296 1.409 . S
C303 C302 1.362 1_556 S
H304 C310 0.930 . S
H305 C313 0.930 . S
H306 C314 0.930 . S
H307 C315 0.930 . S
H308 C318 0.930 . S
H309 C319 0.930 . S
C310 H304 0.930 . S
C310 C311 1.355 . S
C310 C312 1.415 . S
C311 C310 1.355 . S
C311 C313 1.419 . S
C312 C310 1.415 . S
C312 C317 1.425 . S
C312 C319 1.409 . S
C313 H305 0.930 . S
C313 C311 1.419 . S
C313 C314 1.362 . S
C314 H306 0.930 . S
C314 C313 1.362 . S
C314 C317 1.409 . S
C315 H307 0.930 . S
C315 C316 1.355 . S
C315 C317 1.415 . S
C316 C315 1.355 . S
C316 C318 1.419 . S
C317 C312 1.425 . S
C317 C314 1.409 . S
C317 C315 1.415 . S
C318 H308 0.930 . S
C318 C316 1.419 . S
C318 C319 1.362 . S
C319 H309 0.930 . S
C319 C312 1.409 . S
C319 C318 1.362 . S
H320 C326 0.930 . S
H321 C329 0.930 . S
H322 C330 0.930 . S
H323 C331 0.930 . S
H324 C334 0.930 . S
H325 C335 0.930 . S
C326 H320 0.930 . S
C326 C327 1.355 . S
C326 C328 1.415 . S
C327 C326 1.355 . S
C327 C329 1.419 . S
C328 C326 1.415 . S
C328 C333 1.425 . S
C328 C335 1.409 . S
C329 H321 0.930 . S
C329 C327 1.419 . S
C329 C330 1.362 . S
C330 H322 0.930 . S
C330 C329 1.362 . S
C330 C333 1.409 . S
C331 H323 0.930 . S
C331 C332 1.355 . S
C331 C333 1.415 . S
C332 C331 1.355 . S
C332 C334 1.419 . S
C333 C328 1.425 . S
C333 C330 1.409 . S
C333 C331 1.415 . S
C334 H324 0.930 . S
C334 C332 1.419 . S
C334 C335 1.362 . S
C335 H325 0.930 . S
C335 C328 1.409 . S
C335 C334 1.362 . S
H336 C342 0.930 . S
H337 C345 0.930 . S
H338 C346 0.930 . S
H339 C347 0.930 . S
H340 C350 0.930 . S
H341 C351 0.930 . S
C342 H336 0.930 . S
C342 C343 1.355 . S
C342 C344 1.415 . S
C343 C342 1.355 . S
C343 C345 1.419 . S
C344 C342 1.415 . S
C344 C349 1.425 . S
C344 C351 1.409 . S
C345 H337 0.930 . S
C345 C343 1.419 . S
C345 C346 1.362 . S
C346 H338 0.930 . S
C346 C345 1.362 . S
C346 C349 1.409 . S
C347 H339 0.930 . S
C347 C348 1.355 . S
C347 C349 1.415 . S
C348 C347 1.355 . S
C348 C350 1.419 . S
C349 C344 1.425 . S
C349 C346 1.409 . S
C349 C347 1.415 . S
C350 H340 0.930 . S
C350 C348 1.419 . S
C350 C351 1.362 . S
C351 H341 0.930 . S
C351 C344 1.409 . S
C351 C350 1.362 . S
H352 C358 0.930 . S
H353 C361 0.930 . S
H354 C362 0.930 . S
H355 C363 0.930 . S
H356 C366 0.930 . S
H357 C367 0.930 . S
C358 H352 0.930 . S
C358 C359 1.355 . S
C358 C360 1.415 . S
C359 C358 1.355 . S
C359 C361 1.419 . S
C360 C358 1.415 . S
C360 C365 1.425 . S
C360 C367 1.409 . S
C361 H353 0.930 . S
C361 C359 1.419 . S
C361 C362 1.362 . S
C362 H354 0.930 . S
C362 C361 1.362 . S
C362 C365 1.409 . S
C363 H355 0.930 . S
C363 C364 1.355 . S
C363 C365 1.415 . S
C364 C363 1.355 . S
C364 C366 1.419 . S
C365 C360 1.425 . S
C365 C362 1.409 . S
C365 C363 1.415 . S
C366 H356 0.930 . S
C366 C364 1.419 . S
C366 C367 1.362 . S
C367 H357 0.930 . S
C367 C360 1.409 . S
C367 C366 1.362 . S
C119 C39 1.508 . S
C124 C11 1.509 . S
C135 C53 1.582 . S
C140 C25 1.571 . S
C151 C67 1.561 . S
C156 C95 1.576 . S
C167 C81 1.480 . S
C172 C109 1.489 . S
C183 C23 1.179 1_545 S
C188 C5 1.180 . S
C199 C19 1.191 . S
C204 C28 1.224 1_455 S
C215 C51 1.175 1_565 S
C220 C33 1.125 . S
C231 C47 1.197 . S
C236 C0 1.222 1_655 S
C247 C98 1.221 1_545 S
C252 C61 1.154 . S
C263 C75 1.181 . S
C268 C65 1.179 1_455 S
C279 C89 1.197 . S
C284 C70 1.222 1_565 S
C295 C103 1.174 . S
C300 C93 1.157 1_655 S
C311 C9 1.673 . S
C316 C79 1.670 . S
C327 C84 1.664 . S
C332 C14 1.655 . S
C343 C37 1.652 . S
C348 C107 1.655 . S
C359 C42 1.665 . S
C364 C56 1.651 . S
