# Generated by pormake.
# Topology thp-x, (12)-cn, num edge types: 1
# Building blocks:
#     Node 0, Type 0, BuildingBlock: UKIBUN_clean_sbu_0, # of connection points: 12
#     Node 1, Type 0, BuildingBlock: UKIBUN_clean_sbu_0, # of connection points: 12
#     Node 2, Type 0, BuildingBlock: UKIBUN_clean_sbu_0, # of connection points: 12
#     Node 3, Type 0, BuildingBlock: UKIBUN_clean_sbu_0, # of connection points: 12
#     Node 4, Type 0, BuildingBlock: UKIBUN_clean_sbu_0, # of connection points: 12
#     Node 5, Type 0, BuildingBlock: UKIBUN_clean_sbu_0, # of connection points: 12
#     Node 6, Type 0, BuildingBlock: UKIBUN_clean_sbu_0, # of connection points: 12
#     Node 7, Type 0, BuildingBlock: UKIBUN_clean_sbu_0, # of connection points: 12
#     Node 8, Type 0, BuildingBlock: UKIBUN_clean_sbu_0, # of connection points: 12
#     Node 9, Type 0, BuildingBlock: UKIBUN_clean_sbu_0, # of connection points: 12
#     Node 10, Type 0, BuildingBlock: UKIBUN_clean_sbu_0, # of connection points: 12
#     Node 11, Type 0, BuildingBlock: UKIBUN_clean_sbu_0, # of connection points: 12
#     Edge 12, Type (0, 0), None
#     Edge 13, Type (0, 0), None
#     Edge 14, Type (0, 0), None
#     Edge 15, Type (0, 0), None
#     Edge 16, Type (0, 0), None
#     Edge 17, Type (0, 0), None
#     Edge 18, Type (0, 0), None
#     Edge 19, Type (0, 0), None
#     Edge 20, Type (0, 0), None
#     Edge 21, Type (0, 0), None
#     Edge 22, Type (0, 0), None
#     Edge 23, Type (0, 0), None
#     Edge 24, Type (0, 0), None
#     Edge 25, Type (0, 0), None
#     Edge 26, Type (0, 0), None
#     Edge 27, Type (0, 0), None
#     Edge 28, Type (0, 0), None
#     Edge 29, Type (0, 0), None
#     Edge 30, Type (0, 0), None
#     Edge 31, Type (0, 0), None
#     Edge 32, Type (0, 0), None
#     Edge 33, Type (0, 0), None
#     Edge 34, Type (0, 0), None
#     Edge 35, Type (0, 0), None
#     Edge 36, Type (0, 0), None
#     Edge 37, Type (0, 0), None
#     Edge 38, Type (0, 0), None
#     Edge 39, Type (0, 0), None
#     Edge 40, Type (0, 0), None
#     Edge 41, Type (0, 0), None
#     Edge 42, Type (0, 0), None
#     Edge 43, Type (0, 0), None
#     Edge 44, Type (0, 0), None
#     Edge 45, Type (0, 0), None
#     Edge 46, Type (0, 0), None
#     Edge 47, Type (0, 0), None
#     Edge 48, Type (0, 0), None
#     Edge 49, Type (0, 0), None
#     Edge 50, Type (0, 0), None
#     Edge 51, Type (0, 0), None
#     Edge 52, Type (0, 0), None
#     Edge 53, Type (0, 0), None
#     Edge 54, Type (0, 0), None
#     Edge 55, Type (0, 0), None
#     Edge 56, Type (0, 0), None
#     Edge 57, Type (0, 0), None
#     Edge 58, Type (0, 0), None
#     Edge 59, Type (0, 0), None
#     Edge 60, Type (0, 0), None
#     Edge 61, Type (0, 0), None
#     Edge 62, Type (0, 0), None
#     Edge 63, Type (0, 0), None
#     Edge 64, Type (0, 0), None
#     Edge 65, Type (0, 0), None
#     Edge 66, Type (0, 0), None
#     Edge 67, Type (0, 0), None
#     Edge 68, Type (0, 0), None
#     Edge 69, Type (0, 0), None
#     Edge 70, Type (0, 0), None
#     Edge 71, Type (0, 0), None
#     Edge 72, Type (0, 0), None
#     Edge 73, Type (0, 0), None
#     Edge 74, Type (0, 0), None
#     Edge 75, Type (0, 0), None
#     Edge 76, Type (0, 0), None
#     Edge 77, Type (0, 0), None
#     Edge 78, Type (0, 0), None
#     Edge 79, Type (0, 0), None
#     Edge 80, Type (0, 0), None
#     Edge 81, Type (0, 0), None
#     Edge 82, Type (0, 0), None
#     Edge 83, Type (0, 0), None
# Relax obj value: 0.242
# Max RMSD: 0.289
# Mean RMSD: 0.289
data_MOF--net-thp-x--node1-UKIBUN_clean_sbu_0--edge1-none
_symmetry_space_group_name_H-M    P1
_symmetry_Int_Tables_number       1
_symmetry_cell_setting            triclinic
loop_
_symmetry_equiv_pos_as_xyz
'x, y, z'
_cell_length_a     18.83529
_cell_length_b     18.835872
_cell_length_c     18.835329
_cell_angle_alpha  90.000553
_cell_angle_beta   90.000001
_cell_angle_gamma 90.000352
loop_
_atom_site_label
_atom_site_type_symbol
_atom_site_fract_x
_atom_site_fract_y
_atom_site_fract_z
_atom_type_partial_charge
C0 C 0.81347 0.2581 0.5079 0.0
C1 C 0.98695 0.41295 0.57287 0.0
O2 O 0.97256 0.20685 0.4601 0.0
O3 O 0.95687 0.32497 0.33742 0.0
O4 O 0.97756 0.20314 0.33792 0.0
O5 O 0.95316 0.31997 0.4596 0.0
Hf6 Hf 0.89972 0.25307 0.39074 0.0
O7 O 0.09439 0.22755 0.45961 0.0
Hf8 Hf 0.02377 0.27376 0.52702 0.0
O9 O 0.09068 0.22255 0.33743 0.0
Hf10 Hf 0.04446 0.14971 0.40678 0.0
O11 O 0.07498 0.34067 0.4601 0.0
Hf12 Hf 0.02378 0.27376 0.2705 0.0
Hf13 Hf 1.00308 0.39781 0.40678 0.0
O14 O 0.06999 0.34437 0.33791 0.0
Hf15 Hf 0.14783 0.29445 0.39074 0.0
C16 C 1.0081 0.48404 0.2896 0.0
C17 C 0.0606 0.13458 0.57287 0.0
C18 C 0.03945 0.06347 0.2896 0.0
C19 C 0.89384 0.09883 0.41786 0.0
O20 O 0.85168 0.15081 0.41723 0.0
O21 O 0.85203 0.35397 0.42278 0.0
C22 C 0.84886 0.40372 0.37967 0.0
O23 O 0.19586 0.39671 0.41724 0.0
O24 O 0.11838 0.26336 0.20954 0.0
O25 O 0.92918 0.28414 0.20953 0.0
O26 O 0.19554 0.19356 0.42276 0.0
O27 O 0.16433 0.2819 0.53888 0.0
O28 O 0.88321 0.26561 0.53887 0.0
O29 O 0.98757 0.4459 0.51328 0.0
O30 O 1.0 0.49197 0.35447 0.0
C31 C 0.1987 0.1438 0.37966 0.0
O32 O 0.04755 0.05555 0.35447 0.0
O33 O 0.05998 0.10162 0.51328 0.0
C34 C 0.1537 0.4487 0.41787 0.0
O35 O 0.242 0.2975 0.44303 0.0
O36 O 0.85159 0.23759 0.28426 0.0
O37 O 0.80555 0.25004 0.44303 0.0
O38 O 0.19596 0.30994 0.28427 0.0
O39 O 0.10396 0.44553 0.37475 0.0
O40 O 0.14671 0.10163 0.38034 0.0
C41 C 0.16301 0.31056 0.22468 0.0
O42 O 0.94358 0.102 0.37474 0.0
O43 O 1.01339 0.17919 0.58802 0.0
O44 O 0.90084 0.44589 0.38034 0.0
O45 O 0.03192 0.1332 0.25863 0.0
O46 O 1.01563 0.41431 0.25863 0.0
O47 O 0.03415 0.36833 0.58801 0.0
C48 C 0.23407 0.28942 0.50791 0.0
C49 C 0.88455 0.23695 0.22468 0.0
C50 C 0.31348 0.75809 1.00791 0.0
C51 C 0.48693 0.91294 0.07285 0.0
O52 O 0.47256 0.70684 0.9601 0.0
O53 O 0.45686 0.82495 0.83741 0.0
O54 O 0.47757 0.70313 0.83791 0.0
O55 O 0.45315 0.81995 0.9596 0.0
Hf56 Hf 0.39972 0.75305 0.89073 0.0
O57 O 0.59439 0.72754 0.95961 0.0
Hf58 Hf 0.52376 0.77375 0.02702 0.0
O59 O 0.59069 0.72254 0.83743 0.0
Hf60 Hf 0.54446 0.6497 0.90679 0.0
O61 O 0.57497 0.84066 0.9601 0.0
Hf62 Hf 0.52378 0.77374 0.7705 0.0
Hf63 Hf 0.50307 0.89779 0.90677 0.0
O64 O 0.56998 0.84436 0.83791 0.0
Hf65 Hf 0.64783 0.79444 0.89074 0.0
C66 C 0.50809 0.98404 0.78962 0.0
C67 C 0.56054 0.63455 0.07286 0.0
C68 C 0.53947 0.56345 0.78963 0.0
C69 C 0.39384 0.59882 0.91785 0.0
O70 O 0.35167 0.6508 0.91721 0.0
O71 O 0.35197 0.85394 0.92273 0.0
C72 C 0.34883 0.90369 0.87963 0.0
O73 O 0.69585 0.89671 0.91726 0.0
O74 O 0.61838 0.7634 0.70952 0.0
O75 O 0.42921 0.78406 0.70949 0.0
O76 O 0.69556 0.69356 0.92276 0.0
O77 O 0.66432 0.78188 0.03889 0.0
O78 O 0.38321 0.76563 0.03888 0.0
O79 O 0.48752 0.94588 1.01326 0.0
O80 O 0.50003 0.99196 0.85449 0.0
C81 C 0.6987 0.64379 0.87967 0.0
O82 O 0.54753 0.55553 0.85451 0.0
O83 O 0.55994 0.6016 1.01328 0.0
C84 C 0.65369 0.94869 0.91789 0.0
O85 O 0.74199 0.79753 0.94306 0.0
O86 O 0.35162 0.73752 0.78424 0.0
O87 O 0.30555 0.74997 0.94304 0.0
O88 O 0.69595 0.80996 0.78426 0.0
O89 O 0.60396 0.94551 0.87476 0.0
O90 O 0.64672 0.60162 0.88038 0.0
C91 C 0.663 0.8106 0.72468 0.0
O92 O 0.44358 0.602 0.87473 0.0
O93 O 0.51334 0.67917 0.088 0.0
O94 O 0.40082 0.94585 0.88032 0.0
O95 O 0.53195 0.63318 0.75866 0.0
O96 O 0.51561 0.9143 0.75865 0.0
O97 O 0.53416 0.86834 0.08798 0.0
C98 C 0.73405 0.78941 1.00793 0.0
C99 C 0.38458 0.73687 0.72466 0.0
C100 C 0.89384 0.94868 0.12963 0.0
C101 C 0.88455 0.81057 0.32285 0.0
O102 O 0.97256 0.84066 0.08743 0.0
O103 O 0.09068 0.82496 0.21009 0.0
O104 O 0.09439 0.81997 0.08791 0.0
O105 O 0.97756 0.84437 0.20961 0.0
Hf106 Hf 0.04446 0.8978 0.14074 0.0
O107 O 0.95315 0.72754 0.08792 0.0
Hf108 Hf 0.89972 0.79444 0.15679 0.0
O109 O 0.07498 0.70685 0.08742 0.0
Hf110 Hf 0.02377 0.77375 1.0205 0.0
O111 O 0.95687 0.72255 0.2101 0.0
Hf112 Hf 0.14783 0.75307 0.15678 0.0
Hf113 Hf 0.02378 0.77376 0.27702 0.0
O114 O 0.06999 0.70314 0.20961 0.0
Hf115 Hf 1.00308 0.64971 0.14074 0.0
C116 C 0.163 0.73693 0.32284 0.0
C117 C 0.81348 0.78939 0.03961 0.0
C118 C 0.23406 0.75811 0.03959 0.0
C119 C 0.06056 0.91294 0.97466 0.0
O120 O 0.05998 0.94589 0.03425 0.0
O121 O 0.04753 0.99197 0.19305 0.0
C122 C 0.03944 0.98404 0.25792 0.0
O123 O 1.00003 0.55554 0.19305 0.0
O124 O 0.19585 0.65082 0.13024 0.0
O125 O 0.19558 0.85396 0.1248 0.0
O126 O 0.98754 0.60161 0.03426 0.0
O127 O 0.85198 0.69355 0.1248 0.0
O128 O 0.85168 0.89669 0.13027 0.0
O129 O 0.92917 0.76336 0.33798 0.0
O130 O 0.11839 0.78415 0.33797 0.0
C131 C 0.98697 0.63456 0.97467 0.0
O132 O 0.16432 0.76563 1.00863 0.0
O133 O 0.88321 0.78188 1.00864 0.0
C134 C 1.00811 0.56347 0.25792 0.0
O135 O 0.90084 0.60164 0.16722 0.0
O136 O 0.14671 0.94587 0.1672 0.0
O137 O 0.94357 0.94553 0.17276 0.0
O138 O 0.10397 0.60199 0.17276 0.0
O139 O 1.01564 0.6332 0.28889 0.0
O140 O 0.03419 0.67916 0.95955 0.0
C141 C 0.1537 0.59883 0.12962 0.0
O142 O 1.01334 0.86834 0.95954 0.0
O143 O 0.80555 0.79749 0.10448 0.0
O144 O 0.03192 0.91431 0.28889 0.0
O145 O 0.24199 0.75003 0.10446 0.0
O146 O 0.19594 0.7375 0.26325 0.0
O147 O 0.85161 0.80998 0.26326 0.0
C148 C 0.84885 0.64379 0.16791 0.0
C149 C 0.1987 0.90371 0.1679 0.0
C150 C 0.41795 0.15366 0.44869 0.0
C151 C 0.22468 0.16303 0.31058 0.0
O152 O 0.46015 0.07494 0.34066 0.0
O153 O 0.33745 0.95683 0.32498 0.0
O154 O 0.45963 0.95313 0.31995 0.0
O155 O 0.33796 0.06995 0.34439 0.0
Hf156 Hf 0.40683 1.00304 0.3978 0.0
O157 O 0.45963 0.09436 0.22753 0.0
Hf158 Hf 0.39078 0.14778 0.29446 0.0
O159 O 0.4601 0.97253 0.20683 0.0
Hf160 Hf 0.52705 0.02374 0.27373 0.0
O161 O 0.33745 0.09066 0.22256 0.0
Hf162 Hf 0.39075 0.8997 0.25306 0.0
Hf163 Hf 0.27053 0.02375 0.27378 0.0
O164 O 0.33792 0.97754 0.20314 0.0
Hf165 Hf 0.40679 0.04444 0.1497 0.0
C166 C 0.22464 0.88448 0.237 0.0
C167 C 0.50794 0.23403 0.28939 0.0
C168 C 0.50792 0.81346 0.25807 0.0
C169 C 0.57291 0.98688 0.41291 0.0
O170 O 0.51333 0.98751 0.44587 0.0
O171 O 0.35454 1.0 0.49198 0.0
C172 C 0.28967 1.00807 0.48407 0.0
O173 O 0.35445 0.04761 0.05556 0.0
O174 O 0.41726 0.8517 0.1508 0.0
O175 O 0.42271 0.85189 0.35393 0.0
O176 O 0.51327 0.05994 0.10158 0.0
O177 O 0.42274 0.19556 0.19358 0.0
O178 O 0.41733 0.19582 0.39671 0.0
O179 O 0.20955 0.11833 0.26344 0.0
O180 O 0.20951 0.92919 0.28413 0.0
C181 C 0.57286 0.06052 0.13453 0.0
O182 O 0.5389 0.88319 0.2656 0.0
O183 O 0.53891 0.1643 0.28186 0.0
C184 C 0.28959 0.03949 0.06349 0.0
O185 O 0.38032 0.14671 0.10167 0.0
O186 O 0.38039 0.90079 0.44588 0.0
O187 O 0.37482 0.10393 0.44552 0.0
O188 O 0.37477 0.94362 0.10182 0.0
O189 O 0.25863 0.03192 0.13323 0.0
O190 O 0.58799 1.0133 0.17913 0.0
C191 C 0.41781 0.89381 0.09878 0.0
O192 O 0.58806 0.03408 0.36829 0.0
O193 O 0.44307 0.24196 0.2975 0.0
O194 O 0.25869 1.0156 0.41434 0.0
O195 O 0.44305 0.80554 0.24998 0.0
O196 O 0.28428 0.85162 0.23742 0.0
O197 O 0.28433 0.19587 0.31018 0.0
C198 C 0.37962 0.19869 0.14383 0.0
C199 C 0.37963 0.8488 0.40372 0.0
C200 C 0.28947 0.50795 0.23403 0.0
C201 C 0.13451 0.57287 0.06052 0.0
O202 O 0.34067 0.46009 0.07497 0.0
O203 O 0.22256 0.33741 0.09071 0.0
O204 O 0.34439 0.3379 0.07 0.0
O205 O 0.22756 0.4596 0.09439 0.0
Hf206 Hf 0.29447 0.39074 0.14783 0.0
O207 O 0.31996 0.45957 0.95314 0.0
Hf208 Hf 0.27376 0.52699 1.02375 0.0
O209 O 0.32497 0.33738 0.95687 0.0
Hf210 Hf 0.3978 0.40675 1.00307 0.0
O211 O 0.20685 0.46006 0.97256 0.0
Hf212 Hf 0.27377 0.27048 0.02381 0.0
Hf213 Hf 0.14972 0.40676 0.04448 0.0
O214 O 0.20315 0.33789 0.97759 0.0
Hf215 Hf 0.25306 0.39069 0.89973 0.0
C216 C 0.06349 0.28959 0.03948 0.0
C217 C 0.41301 0.57287 0.98696 0.0
C218 C 0.48407 0.28961 1.00813 0.0
C219 C 0.44872 0.41794 0.15366 0.0
O220 O 0.39674 0.4173 0.19583 0.0
O221 O 0.19365 0.42269 0.19576 0.0
C222 C 0.14382 0.37966 0.19876 0.0
O223 O 0.15079 0.41719 0.8517 0.0
O224 O 0.28408 0.20947 0.92923 0.0
O225 O 0.2634 0.20951 0.1184 0.0
O226 O 0.35396 0.42268 0.852 0.0
O227 O 0.26562 0.53882 0.88319 0.0
O228 O 0.28191 0.5389 0.1643 0.0
O229 O 0.10165 0.51323 0.06015 0.0
O230 O 0.05556 0.35446 0.04756 0.0
C231 C 0.40371 0.37957 0.84885 0.0
O232 O 0.49199 0.35449 1.00006 0.0
O233 O 0.44586 0.51322 0.98734 0.0
C234 C 0.0988 0.4179 0.89386 0.0
O235 O 0.25003 0.44296 0.80554 0.0
O236 O 0.31013 0.28429 0.19594 0.0
O237 O 0.2976 0.44309 0.24197 0.0
O238 O 0.23751 0.28421 0.85165 0.0
O239 O 0.1019 0.3748 0.94362 0.0
O240 O 0.44587 0.38024 0.90084 0.0
C241 C 0.23688 0.22463 0.88461 0.0
O242 O 0.44557 0.3748 0.10395 0.0
O243 O 0.36832 0.58799 0.03411 0.0
O244 O 0.1017 0.38028 0.14674 0.0
O245 O 0.41433 0.25864 1.01565 0.0
O246 O 0.13322 0.25862 0.03196 0.0
O247 O 0.17919 0.58798 1.01336 0.0
C248 C 0.25811 0.50784 0.81346 0.0
C249 C 0.31054 0.22464 0.1631 0.0
C250 C 0.5396 0.73404 0.25807 0.0
C251 C 0.47462 0.56061 0.4129 0.0
O252 O 0.58743 0.57496 0.20682 0.0
O253 O 0.71008 0.59067 0.32498 0.0
O254 O 0.70961 0.56996 0.20315 0.0
O255 O 0.5879 0.59437 0.31994 0.0
Hf256 Hf 0.65678 0.6478 0.25305 0.0
O257 O 0.5879 0.45313 0.22753 0.0
Hf258 Hf 0.52049 0.52376 0.27372 0.0
O259 O 0.71009 0.45685 0.22257 0.0
Hf260 Hf 0.64075 0.50305 0.14971 0.0
O261 O 0.58738 0.47256 0.34066 0.0
Hf262 Hf 0.777 0.52376 0.27379 0.0
Hf263 Hf 0.6407 0.54446 0.3978 0.0
O264 O 0.70958 0.47756 0.34439 0.0
Hf265 Hf 0.65675 0.39972 0.29446 0.0
C266 C 0.75785 0.53943 0.48408 0.0
C267 C 0.47464 0.48705 0.13444 0.0
C268 C 0.75796 0.50802 0.0635 0.0
C269 C 0.62968 0.65368 0.09876 0.0
O270 O 0.63026 0.69579 0.15079 0.0
O271 O 0.62483 0.69563 0.35392 0.0
C272 C 0.66791 0.69871 0.40371 0.0
O273 O 0.63019 0.35169 0.3967 0.0
O274 O 0.83799 0.42918 0.26345 0.0
O275 O 0.83801 0.61833 0.28413 0.0
O276 O 0.62483 0.35193 0.19358 0.0
O277 O 0.50863 0.3832 0.28185 0.0
O278 O 0.50863 0.6643 0.26559 0.0
O279 O 0.5342 0.55997 0.44587 0.0
O280 O 0.69297 0.54751 0.49199 0.0
C281 C 0.66795 0.34881 0.14384 0.0
O282 O 0.69309 0.49991 0.05557 0.0
O283 O 0.53429 0.48742 0.1016 0.0
C284 C 0.62959 0.39384 0.44869 0.0
O285 O 0.60447 0.30554 0.29748 0.0
O286 O 0.76324 0.69588 0.2374 0.0
O287 O 0.60447 0.74196 0.24998 0.0
O288 O 0.76321 0.35165 0.31022 0.0
O289 O 0.67272 0.44357 0.4455 0.0
O290 O 0.66727 0.40079 0.10168 0.0
C291 C 0.82286 0.38449 0.3106 0.0
O292 O 0.67272 0.60387 0.10178 0.0
O293 O 0.45953 0.5342 0.17913 0.0
O294 O 0.66714 0.64672 0.44587 0.0
O295 O 0.78891 0.51559 0.13324 0.0
O296 O 0.78883 0.5319 0.41435 0.0
O297 O 0.45947 0.51341 0.36828 0.0
C298 C 0.5396 0.31346 0.28938 0.0
C299 C 0.82289 0.66303 0.23699 0.0
C300 C 0.59877 0.12965 0.15368 0.0
C301 C 0.73704 0.32287 0.16312 0.0
O302 O 0.70684 0.08743 0.07498 0.0
O303 O 0.72257 0.21013 0.95688 0.0
O304 O 0.72756 0.08794 0.95315 0.0
O305 O 0.70315 0.20962 0.07001 0.0
Hf306 Hf 0.64972 0.14077 1.00308 0.0
O307 O 0.81997 0.08791 0.09439 0.0
Hf308 Hf 0.75307 0.15677 0.14783 0.0
O309 O 0.84068 0.08744 0.97257 0.0
Hf310 Hf 0.77376 1.02052 0.02376 0.0
O311 O 0.82498 0.21009 0.09072 0.0
Hf312 Hf 0.79447 0.15681 0.89974 0.0
Hf313 Hf 0.77378 0.27703 0.02382 0.0
O314 O 0.84439 0.20961 0.9776 0.0
Hf315 Hf 0.89781 0.14074 0.04449 0.0
C316 C 0.81066 0.32287 0.88461 0.0
C317 C 0.75805 0.03956 0.23404 0.0
C318 C 0.78943 0.03966 0.81346 0.0
C319 C 0.63451 0.97465 0.98699 0.0
O320 O 0.60166 0.0343 0.98736 0.0
O321 O 0.55557 0.19309 0.99993 0.0
C322 C 0.5635 0.25796 1.00808 0.0
O323 O 0.99198 0.19304 0.04757 0.0
O324 O 0.89674 0.13031 0.85171 0.0
O325 O 0.69358 0.1248 0.85201 0.0
O326 O 0.94587 0.03426 0.06013 0.0
O327 O 0.85389 0.12482 0.19577 0.0
O328 O 0.65079 0.13021 0.1958 0.0
O329 O 0.78418 0.33799 0.11842 0.0
O330 O 0.76347 0.33803 0.92924 0.0
C331 C 0.91301 0.97462 0.06052 0.0
O332 O 0.7819 1.00868 0.8832 0.0
O333 O 0.76562 1.00861 0.1643 0.0
C334 C 0.98406 0.25791 0.03949 0.0
O335 O 0.94584 0.1672 0.14674 0.0
O336 O 0.60166 0.16724 0.90083 0.0
O337 O 0.60178 0.1727 0.10389 0.0
O338 O 0.94563 0.17271 0.94362 0.0
O339 O 0.91433 0.28888 0.03196 0.0
O340 O 0.86831 0.95951 1.01337 0.0
C341 C 0.94873 0.1296 0.89386 0.0
O342 O 0.67919 0.95953 0.03414 0.0
O343 O 0.74992 0.10443 0.24198 0.0
O344 O 0.63323 0.28891 1.01566 0.0
O345 O 0.79752 0.10453 0.80555 0.0
O346 O 0.81002 0.26329 0.85165 0.0
O347 O 0.73743 0.26322 0.19596 0.0
C348 C 0.90373 0.16784 0.19877 0.0
C349 C 0.64383 0.16791 0.84886 0.0
C350 C 0.09881 0.62957 0.65367 0.0
C351 C 0.23696 0.8228 0.66304 0.0
O352 O 0.20687 0.5874 0.57496 0.0
O353 O 0.22256 0.71012 0.45687 0.0
O354 O 0.22756 0.58792 0.45314 0.0
O355 O 0.20317 0.70958 0.57001 0.0
Hf356 Hf 0.14973 0.64075 0.50308 0.0
O357 O 0.31999 0.58788 0.59438 0.0
Hf358 Hf 0.25308 0.65673 0.64784 0.0
O359 O 0.34068 0.58742 0.47253 0.0
Hf360 Hf 0.27377 0.52049 0.52374 0.0
O361 O 0.32499 0.71005 0.5907 0.0
Hf362 Hf 0.29445 0.6568 0.39972 0.0
Hf363 Hf 0.27379 0.777 0.52381 0.0
O364 O 0.34439 0.7096 0.47757 0.0
Hf365 Hf 0.39783 0.64071 0.54445 0.0
C366 C 0.31051 0.82291 0.38452 0.0
C367 C 0.25806 0.53951 0.73403 0.0
C368 C 0.28946 0.53962 0.31346 0.0
C369 C 0.13451 0.47464 0.48698 0.0
O370 O 0.10166 0.53428 0.48737 0.0
O371 O 0.05556 0.69305 0.50006 0.0
C372 C 0.06349 0.75792 0.50815 0.0
O373 O 0.49198 0.69305 0.54765 0.0
O374 O 0.39672 0.63036 0.35168 0.0
O375 O 0.19362 0.62482 0.35184 0.0
O376 O 0.44593 0.53422 0.5599 0.0
O377 O 0.3539 0.62475 0.69576 0.0
O378 O 0.15081 0.63019 0.69582 0.0
O379 O 0.28419 0.83792 0.61844 0.0
O380 O 0.26342 0.83806 0.42927 0.0
C381 C 0.41298 0.47464 0.56052 0.0
O382 O 0.28191 0.50864 0.38319 0.0
O383 O 0.26563 0.50857 0.66429 0.0
C384 C 0.48406 0.75792 0.53955 0.0
O385 O 0.44587 0.6671 0.64673 0.0
O386 O 0.10169 0.66728 0.40085 0.0
O387 O 0.10197 0.67271 0.60396 0.0
O388 O 0.44571 0.67277 0.44364 0.0
O389 O 0.41433 0.78889 0.53197 0.0
O390 O 0.36835 0.45951 0.51332 0.0
C391 C 0.44874 0.62975 0.39381 0.0
O392 O 0.1792 0.45952 0.53413 0.0
O393 O 0.24991 0.60437 0.74197 0.0
O394 O 0.13323 0.78888 0.51567 0.0
O395 O 0.29757 0.60449 0.30555 0.0
O396 O 0.31003 0.76328 0.35165 0.0
O397 O 0.23752 0.7632 0.69596 0.0
C398 C 0.40375 0.66775 0.69875 0.0
C399 C 0.1438 0.66785 0.34882 0.0
C400 C 0.91785 0.65369 0.94873 0.0
C401 C 0.72464 0.66302 0.81057 0.0
O402 O 0.96012 0.57497 0.84067 0.0
O403 O 0.83744 0.45684 0.825 0.0
O404 O 0.95961 0.45314 0.81997 0.0
O405 O 0.83792 0.56996 0.84439 0.0
Hf406 Hf 0.90681 0.50307 0.89782 0.0
O407 O 0.95959 0.59436 0.72753 0.0
Hf408 Hf 0.89074 0.64778 0.79446 0.0
O409 O 0.96007 0.47254 0.70684 0.0
Hf410 Hf 0.02701 0.52375 0.77373 0.0
O411 O 0.8374 0.59064 0.72258 0.0
Hf412 Hf 0.89073 0.3997 0.75309 0.0
Hf413 Hf 0.77049 0.52373 0.7738 0.0
O414 O 0.83789 0.47752 0.70316 0.0
Hf415 Hf 0.90674 0.54444 0.64971 0.0
C416 C 0.72467 0.3845 0.737 0.0
C417 C 1.00789 0.73405 0.78937 0.0
C418 C 1.00794 0.31347 0.75802 0.0
C419 C 0.07293 0.48705 0.913 0.0
O420 O 1.0133 0.48751 0.94588 0.0
O421 O 0.8545 0.49993 0.99198 0.0
C422 C 0.78962 0.50803 0.98407 0.0
O423 O 0.85438 0.54758 0.55557 0.0
O424 O 0.91721 0.35171 0.65079 0.0
O425 O 0.92277 0.35182 0.8539 0.0
O426 O 1.0132 0.56011 0.60162 0.0
O427 O 0.9227 0.69553 0.69356 0.0
O428 O 0.91731 0.6958 0.8967 0.0
O429 O 0.7095 0.61831 0.76345 0.0
O430 O 0.70953 0.42913 0.78419 0.0
C431 C 0.07286 0.56047 0.63446 0.0
O432 O 0.0389 0.38321 0.76559 0.0
O433 O 0.03887 0.66432 0.78186 0.0
C434 C 0.78952 0.53946 0.56351 0.0
O435 O 0.88021 0.64669 0.60168 0.0
O436 O 0.88042 0.40082 0.94589 0.0
O437 O 0.8748 0.60389 0.9457 0.0
O438 O 0.87477 0.44364 0.60176 0.0
O439 O 0.75857 0.5319 0.63325 0.0
O440 O 0.08796 0.51332 0.67914 0.0
C441 C 0.91781 0.39382 0.59876 0.0
O442 O 0.08806 0.53415 0.86826 0.0
O443 O 0.94302 0.74197 0.79745 0.0
O444 O 0.75864 0.51558 0.91435 0.0
O445 O 0.94307 0.30555 0.7499 0.0
O446 O 0.78426 0.35156 0.73763 0.0
O447 O 0.78428 0.69587 0.81014 0.0
C448 C 0.87957 0.69868 0.64384 0.0
C449 C 0.87978 0.3488 0.90376 0.0
C450 C 0.78946 1.00799 0.73403 0.0
C451 C 0.63455 0.07285 0.56052 0.0
O452 O 0.84067 0.96011 0.57496 0.0
O453 O 0.72256 0.83745 0.5907 0.0
O454 O 0.84438 0.83792 0.57001 0.0
O455 O 0.72755 0.95962 0.59438 0.0
Hf456 Hf 0.79447 0.89078 0.64783 0.0
O457 O 0.81998 0.95958 0.45314 0.0
Hf458 Hf 0.77376 0.02702 0.52374 0.0
O459 O 0.82499 0.83739 0.45686 0.0
Hf460 Hf 0.89781 0.90677 0.50307 0.0
O461 O 0.70686 0.96007 0.47254 0.0
Hf462 Hf 0.77376 0.77051 0.52381 0.0
Hf463 Hf 0.64972 0.90678 0.54445 0.0
O464 O 0.70315 0.8379 0.47757 0.0
Hf465 Hf 0.75309 0.8907 0.39972 0.0
C466 C 0.56349 0.78958 0.53954 0.0
C467 C 0.91302 0.07288 0.48697 0.0
C468 C 0.98406 0.78959 0.50815 0.0
C469 C 0.94873 0.91798 0.65366 0.0
O470 O 0.89673 0.91736 0.69581 0.0
O471 O 0.69365 0.92273 0.69578 0.0
C472 C 0.64381 0.87971 0.69876 0.0
O473 O 0.65082 0.91714 0.35169 0.0
O474 O 0.78412 0.70945 0.42927 0.0
O475 O 0.76335 0.70958 0.61843 0.0
O476 O 0.85392 0.92269 0.35183 0.0
O477 O 0.76562 0.03887 0.38319 0.0
O478 O 0.7819 0.03894 0.66429 0.0
O479 O 0.6016 1.01327 0.55992 0.0
O480 O 0.55557 0.85445 0.54764 0.0
C481 C 0.90375 0.87966 0.34881 0.0
O482 O 0.99198 0.85446 0.50005 0.0
O483 O 0.94587 1.01323 0.48735 0.0
C484 C 0.5988 0.91774 0.39381 0.0
O485 O 0.74997 0.94303 0.30556 0.0
O486 O 0.81016 0.78433 0.69594 0.0
O487 O 0.7976 0.94313 0.74197 0.0
O488 O 0.73752 0.78422 0.35164 0.0
O489 O 0.60184 0.87472 0.44365 0.0
O490 O 0.94585 0.88024 0.40084 0.0
C491 C 0.73703 0.72459 0.38452 0.0
O492 O 0.94559 0.87483 0.60395 0.0
O493 O 0.86834 0.088 0.53412 0.0
O494 O 0.6017 0.88035 0.64674 0.0
O495 O 0.91432 0.75863 0.51568 0.0
O496 O 0.63322 0.75862 0.53197 0.0
O497 O 0.67917 0.08798 0.51331 0.0
C498 C 0.75807 1.0079 0.31347 0.0
C499 C 0.81051 0.72468 0.66311 0.0
C500 C 0.0396 0.23404 0.75803 0.0
C501 C 0.9746 0.06046 0.91301 0.0
O502 O 0.08746 0.07498 0.70684 0.0
O503 O 0.2101 0.09066 0.825 0.0
O504 O 0.20963 0.06997 0.70316 0.0
O505 O 0.08792 0.09437 0.81998 0.0
Hf506 Hf 0.1568 0.14781 0.75309 0.0
O507 O 0.08792 0.95315 0.72752 0.0
Hf508 Hf 1.02051 0.02377 0.77373 0.0
O509 O 0.21011 0.95684 0.72256 0.0
Hf510 Hf 0.14078 1.00307 0.64971 0.0
O511 O 0.0874 0.97254 0.84066 0.0
Hf512 Hf 0.27703 0.02375 0.77379 0.0
Hf513 Hf 0.14072 0.04443 0.89781 0.0
O514 O 0.2096 0.97753 0.84438 0.0
Hf515 Hf 0.15677 0.89971 0.79445 0.0
C516 C 0.25792 0.03947 0.98406 0.0
C517 C 0.97467 0.98708 0.63444 0.0
C518 C 0.25799 1.00804 0.5635 0.0
C519 C 0.12974 0.15369 0.59877 0.0
O520 O 0.13033 0.1958 0.6508 0.0
O521 O 0.12476 0.19568 0.85391 0.0
C522 C 0.16776 0.19869 0.90377 0.0
O523 O 0.13024 0.8517 0.8967 0.0
O524 O 0.338 0.92916 0.76341 0.0
O525 O 0.33801 0.11834 0.78417 0.0
O526 O 0.12483 0.85179 0.69362 0.0
O527 O 1.00861 0.88322 0.78185 0.0
O528 O 1.00863 0.16432 0.76559 0.0
O529 O 0.03423 0.05999 0.94588 0.0
O530 O 0.19305 0.04756 0.99197 0.0
C531 C 0.16788 0.84878 0.64382 0.0
O532 O 0.19313 0.99992 0.55556 0.0
O533 O 0.03432 0.98744 0.6016 0.0
C534 C 0.12968 0.89381 0.94873 0.0
O535 O 0.10443 0.80556 0.79757 0.0
O536 O 0.26328 0.19593 0.73762 0.0
O537 O 0.10447 0.24196 0.74992 0.0
O538 O 0.26322 0.85162 0.81013 0.0
O539 O 0.17273 0.94362 0.9457 0.0
O540 O 0.16731 0.90081 0.60171 0.0
C541 C 0.32287 0.88446 0.81054 0.0
O542 O 0.17277 0.10387 0.60178 0.0
O543 O 0.95957 0.03423 0.67913 0.0
O544 O 0.16713 0.14668 0.94588 0.0
O545 O 0.28894 1.0156 0.63324 0.0
O546 O 0.2889 0.03191 0.91433 0.0
O547 O 0.95946 1.01336 0.86827 0.0
C548 C 0.03956 0.81348 0.78942 0.0
C549 C 0.32287 0.16298 0.73699 0.0
C550 C 0.39386 0.44874 0.62966 0.0
C551 C 0.38447 0.31049 0.82288 0.0
O552 O 0.47256 0.34066 0.58744 0.0
O553 O 0.59069 0.32495 0.71011 0.0
O554 O 0.59439 0.31996 0.58792 0.0
O555 O 0.47756 0.34436 0.70962 0.0
Hf556 Hf 0.54447 0.39779 0.64076 0.0
O557 O 0.45315 0.22753 0.58792 0.0
Hf558 Hf 0.39972 0.29444 0.65678 0.0
O559 O 0.57498 0.20684 0.58743 0.0
Hf560 Hf 0.52377 0.27375 0.52051 0.0
O561 O 0.45685 0.22254 0.7101 0.0
Hf562 Hf 0.64782 0.25305 0.65678 0.0
Hf563 Hf 0.52377 0.27374 0.77703 0.0
O564 O 0.56999 0.20313 0.70961 0.0
Hf565 Hf 0.50307 0.1497 0.64075 0.0
C566 C 0.66307 0.23699 0.82288 0.0
C567 C 0.3135 0.28945 0.53957 0.0
C568 C 0.73405 0.25805 0.53957 0.0
C569 C 0.56049 0.41303 0.47465 0.0
O570 O 0.56014 0.44587 0.5343 0.0
O571 O 0.54764 0.49193 0.6931 0.0
C572 C 0.5395 0.48401 0.75797 0.0
O573 O 0.49991 0.05555 0.69308 0.0
O574 O 0.6958 0.15078 0.63023 0.0
O575 O 0.69579 0.35386 0.62486 0.0
O576 O 0.48742 0.10162 0.53428 0.0
O577 O 0.35176 0.19364 0.62485 0.0
O578 O 0.35175 0.39671 0.63025 0.0
O579 O 0.42918 0.26336 0.83799 0.0
O580 O 0.61837 0.28412 0.838 0.0
C581 C 0.48705 0.13448 0.47464 0.0
O582 O 0.66432 0.26564 0.50861 0.0
O583 O 0.38323 0.28187 0.50861 0.0
C584 C 0.50805 0.06347 0.75795 0.0
O585 O 0.40081 0.10169 0.66724 0.0
O586 O 0.64673 0.4458 0.66725 0.0
O587 O 0.44367 0.44575 0.6727 0.0
O588 O 0.60388 0.10176 0.6727 0.0
O589 O 0.51563 0.1332 0.78891 0.0
O590 O 0.5342 0.17917 0.45954 0.0
C591 C 0.65368 0.09875 0.62965 0.0
O592 O 0.51334 0.36834 0.45956 0.0
O593 O 0.30558 0.2976 0.60444 0.0
O594 O 0.53192 0.41429 0.78893 0.0
O595 O 0.74197 0.24989 0.60443 0.0
O596 O 0.69591 0.23737 0.76324 0.0
O597 O 0.35162 0.31011 0.76324 0.0
C598 C 0.34878 0.1438 0.66787 0.0
C599 C 0.69876 0.40369 0.66789 0.0
loop_
_geom_bond_atom_site_label_1
_geom_bond_atom_site_label_2
_geom_bond_distance
_geom_bond_site_symmetry_2
_ccdc_geom_bond_type
C0 O28 1.281 . S
C0 O37 1.281 . S
C1 O29 1.281 . S
C1 O47 1.281 . S
O2 Hf6 2.202 . S
O2 Hf8 2.202 1_655 S
O2 Hf10 2.202 1_655 S
O3 Hf6 2.202 . S
O3 Hf12 2.202 1_655 S
O3 Hf13 2.202 . S
O4 Hf6 2.072 . S
O4 Hf10 2.072 1_655 S
O4 Hf12 2.072 1_655 S
O5 Hf6 2.072 . S
O5 Hf8 2.072 1_655 S
O5 Hf13 2.072 . S
Hf6 O2 2.202 . S
Hf6 O3 2.202 . S
Hf6 O4 2.072 . S
Hf6 O5 2.072 . S
Hf6 O20 2.209 . S
Hf6 O21 2.209 . S
Hf6 O36 2.209 . S
Hf6 O37 2.209 . S
O7 Hf8 2.072 . S
O7 Hf10 2.072 . S
O7 Hf15 2.072 . S
Hf8 O2 2.202 1_455 S
Hf8 O5 2.072 1_455 S
Hf8 O7 2.072 . S
Hf8 O11 2.202 . S
Hf8 O27 2.209 . S
Hf8 O28 2.209 1_455 S
Hf8 O43 2.209 . S
Hf8 O47 2.209 1_455 S
O9 Hf10 2.202 . S
O9 Hf12 2.202 . S
O9 Hf15 2.202 . S
Hf10 O2 2.202 1_455 S
Hf10 O4 2.072 1_455 S
Hf10 O7 2.072 . S
Hf10 O9 2.202 . S
Hf10 O32 2.209 . S
Hf10 O33 2.209 . S
Hf10 O40 2.209 . S
Hf10 O42 2.209 1_455 S
O11 Hf8 2.202 . S
O11 Hf13 2.202 1_455 S
O11 Hf15 2.202 . S
Hf12 O3 2.202 1_455 S
Hf12 O4 2.072 1_455 S
Hf12 O9 2.202 . S
Hf12 O14 2.072 . S
Hf12 O24 2.209 . S
Hf12 O25 2.209 1_455 S
Hf12 O45 2.209 . S
Hf12 O46 2.209 1_455 S
Hf13 O3 2.202 . S
Hf13 O5 2.072 . S
Hf13 O11 2.202 1_655 S
Hf13 O14 2.072 1_655 S
Hf13 O29 2.209 . S
Hf13 O30 2.209 . S
Hf13 O39 2.209 1_655 S
Hf13 O44 2.209 . S
O14 Hf12 2.072 . S
O14 Hf13 2.072 1_455 S
O14 Hf15 2.072 . S
Hf15 O7 2.072 . S
Hf15 O9 2.202 . S
Hf15 O11 2.202 . S
Hf15 O14 2.072 . S
Hf15 O23 2.209 . S
Hf15 O26 2.209 . S
Hf15 O35 2.209 . S
Hf15 O38 2.209 . S
C16 O30 1.281 . S
C16 O46 1.281 . S
C17 O33 1.281 . S
C17 O43 1.281 . S
C18 O32 1.281 . S
C18 O45 1.281 . S
C19 O20 1.281 . S
C19 O42 1.281 . S
O20 Hf6 2.209 . S
O20 C19 1.281 . S
O21 Hf6 2.209 . S
O21 C22 1.281 . S
C22 O21 1.281 . S
C22 O44 1.281 . S
O23 Hf15 2.209 . S
O23 C34 1.281 . S
O24 Hf12 2.209 . S
O24 C41 1.281 . S
O25 Hf12 2.209 1_655 S
O25 C49 1.281 . S
O26 Hf15 2.209 . S
O26 C31 1.281 . S
O27 Hf8 2.209 . S
O27 C48 1.281 . S
O28 C0 1.281 . S
O28 Hf8 2.209 1_655 S
O29 C1 1.281 . S
O29 Hf13 2.209 . S
O30 Hf13 2.209 . S
O30 C16 1.281 . S
C31 O26 1.281 . S
C31 O40 1.281 . S
O32 Hf10 2.209 . S
O32 C18 1.281 . S
O33 Hf10 2.209 . S
O33 C17 1.281 . S
C34 O23 1.281 . S
C34 O39 1.281 . S
O35 Hf15 2.209 . S
O35 C48 1.281 . S
O36 Hf6 2.209 . S
O36 C49 1.281 . S
O37 C0 1.281 . S
O37 Hf6 2.209 . S
O38 Hf15 2.209 . S
O38 C41 1.281 . S
O39 Hf13 2.209 1_455 S
O39 C34 1.281 . S
O40 Hf10 2.209 . S
O40 C31 1.281 . S
C41 O24 1.281 . S
C41 O38 1.281 . S
O42 Hf10 2.209 1_655 S
O42 C19 1.281 . S
O43 Hf8 2.209 . S
O43 C17 1.281 . S
O44 Hf13 2.209 . S
O44 C22 1.281 . S
O45 Hf12 2.209 . S
O45 C18 1.281 . S
O46 Hf12 2.209 1_655 S
O46 C16 1.281 . S
O47 C1 1.281 . S
O47 Hf8 2.209 1_655 S
C48 O27 1.281 . S
C48 O35 1.281 . S
C49 O25 1.281 . S
C49 O36 1.281 . S
C50 O78 1.281 . S
C50 O87 1.281 1_554 S
C51 O79 1.281 1_554 S
C51 O97 1.281 . S
O52 Hf56 2.202 . S
O52 Hf58 2.204 . S
O52 Hf60 2.202 . S
O53 Hf56 2.202 . S
O53 Hf62 2.202 . S
O53 Hf63 2.202 . S
O54 Hf56 2.072 . S
O54 Hf60 2.072 . S
O54 Hf62 2.072 . S
O55 Hf56 2.072 . S
O55 Hf58 2.075 . S
O55 Hf63 2.072 . S
Hf56 O52 2.202 . S
Hf56 O53 2.202 . S
Hf56 O54 2.072 . S
Hf56 O55 2.072 . S
Hf56 O70 2.209 . S
Hf56 O71 2.209 . S
Hf56 O86 2.209 . S
Hf56 O87 2.209 . S
O57 Hf58 2.075 . S
O57 Hf60 2.072 . S
O57 Hf65 2.072 . S
Hf58 O52 2.204 . S
Hf58 O55 2.075 . S
Hf58 O57 2.075 . S
Hf58 O61 2.204 . S
Hf58 O77 2.207 1_556 S
Hf58 O78 2.207 1_556 S
Hf58 O93 2.207 1_556 S
Hf58 O97 2.207 1_556 S
O59 Hf60 2.202 . S
O59 Hf62 2.202 . S
O59 Hf65 2.202 . S
Hf60 O52 2.202 . S
Hf60 O54 2.072 . S
Hf60 O57 2.072 . S
Hf60 O59 2.202 . S
Hf60 O82 2.209 . S
Hf60 O83 2.209 . S
Hf60 O90 2.209 . S
Hf60 O92 2.209 . S
O61 Hf58 2.204 . S
O61 Hf63 2.202 . S
O61 Hf65 2.202 . S
Hf62 O53 2.202 . S
Hf62 O54 2.072 . S
Hf62 O59 2.202 . S
Hf62 O64 2.072 . S
Hf62 O74 2.209 . S
Hf62 O75 2.209 . S
Hf62 O95 2.209 . S
Hf62 O96 2.209 . S
Hf63 O53 2.202 . S
Hf63 O55 2.072 . S
Hf63 O61 2.202 . S
Hf63 O64 2.072 . S
Hf63 O79 2.209 . S
Hf63 O80 2.209 . S
Hf63 O89 2.209 . S
Hf63 O94 2.209 . S
O64 Hf62 2.072 . S
O64 Hf63 2.072 . S
O64 Hf65 2.072 . S
Hf65 O57 2.072 . S
Hf65 O59 2.202 . S
Hf65 O61 2.202 . S
Hf65 O64 2.072 . S
Hf65 O73 2.209 . S
Hf65 O76 2.209 . S
Hf65 O85 2.209 . S
Hf65 O88 2.209 . S
C66 O80 1.281 . S
C66 O96 1.281 . S
C67 O83 1.281 1_554 S
C67 O93 1.281 . S
C68 O82 1.281 . S
C68 O95 1.281 . S
C69 O70 1.281 . S
C69 O92 1.281 . S
O70 Hf56 2.209 . S
O70 C69 1.281 . S
O71 Hf56 2.209 . S
O71 C72 1.281 . S
C72 O71 1.281 . S
C72 O94 1.281 . S
O73 Hf65 2.209 . S
O73 C84 1.281 . S
O74 Hf62 2.209 . S
O74 C91 1.281 . S
O75 Hf62 2.209 . S
O75 C99 1.281 . S
O76 Hf65 2.209 . S
O76 C81 1.281 . S
O77 Hf58 2.207 1_554 S
O77 C98 1.281 . S
O78 C50 1.281 . S
O78 Hf58 2.207 1_554 S
O79 C51 1.281 1_556 S
O79 Hf63 2.209 . S
O80 Hf63 2.209 . S
O80 C66 1.281 . S
C81 O76 1.281 . S
C81 O90 1.281 . S
O82 Hf60 2.209 . S
O82 C68 1.281 . S
O83 Hf60 2.209 . S
O83 C67 1.281 1_556 S
C84 O73 1.281 . S
C84 O89 1.281 . S
O85 Hf65 2.209 . S
O85 C98 1.281 1_556 S
O86 Hf56 2.209 . S
O86 C99 1.281 . S
O87 C50 1.281 1_556 S
O87 Hf56 2.209 . S
O88 Hf65 2.209 . S
O88 C91 1.281 . S
O89 Hf63 2.209 . S
O89 C84 1.281 . S
O90 Hf60 2.209 . S
O90 C81 1.281 . S
C91 O74 1.281 . S
C91 O88 1.281 . S
O92 Hf60 2.209 . S
O92 C69 1.281 . S
O93 Hf58 2.207 1_554 S
O93 C67 1.281 . S
O94 Hf63 2.209 . S
O94 C72 1.281 . S
O95 Hf62 2.209 . S
O95 C68 1.281 . S
O96 Hf62 2.209 . S
O96 C66 1.281 . S
O97 C51 1.281 . S
O97 Hf58 2.207 1_554 S
C98 O77 1.281 . S
C98 O85 1.281 1_554 S
C99 O75 1.281 . S
C99 O86 1.281 . S
C100 O128 1.281 . S
C100 O137 1.281 . S
C101 O129 1.281 . S
C101 O147 1.281 . S
O102 Hf106 2.202 1_655 S
O102 Hf108 2.202 . S
O102 Hf110 2.204 1_655 S
O103 Hf106 2.202 . S
O103 Hf112 2.202 . S
O103 Hf113 2.202 . S
O104 Hf106 2.072 . S
O104 Hf110 2.075 . S
O104 Hf112 2.072 . S
O105 Hf106 2.072 1_655 S
O105 Hf108 2.072 . S
O105 Hf113 2.072 1_655 S
Hf106 O102 2.202 1_455 S
Hf106 O103 2.202 . S
Hf106 O104 2.072 . S
Hf106 O105 2.072 1_455 S
Hf106 O120 2.209 . S
Hf106 O121 2.209 . S
Hf106 O136 2.209 . S
Hf106 O137 2.209 1_455 S
O107 Hf108 2.072 . S
O107 Hf110 2.075 1_655 S
O107 Hf115 2.072 . S
Hf108 O102 2.202 . S
Hf108 O105 2.072 . S
Hf108 O107 2.072 . S
Hf108 O111 2.202 . S
Hf108 O127 2.209 . S
Hf108 O128 2.209 . S
Hf108 O143 2.209 . S
Hf108 O147 2.209 . S
O109 Hf110 2.204 . S
O109 Hf112 2.202 . S
O109 Hf115 2.202 1_455 S
Hf110 O102 2.204 1_455 S
Hf110 O104 2.075 . S
Hf110 O107 2.075 1_455 S
Hf110 O109 2.204 . S
Hf110 O132 2.207 1_554 S
Hf110 O133 2.207 1_454 S
Hf110 O140 2.207 1_454 S
Hf110 O142 2.207 1_554 S
O111 Hf108 2.202 . S
O111 Hf113 2.202 1_655 S
O111 Hf115 2.202 . S
Hf112 O103 2.202 . S
Hf112 O104 2.072 . S
Hf112 O109 2.202 . S
Hf112 O114 2.072 . S
Hf112 O124 2.209 . S
Hf112 O125 2.209 . S
Hf112 O145 2.209 . S
Hf112 O146 2.209 . S
Hf113 O103 2.202 . S
Hf113 O105 2.072 1_455 S
Hf113 O111 2.202 1_455 S
Hf113 O114 2.072 . S
Hf113 O129 2.209 1_455 S
Hf113 O130 2.209 . S
Hf113 O139 2.209 1_455 S
Hf113 O144 2.209 . S
O114 Hf112 2.072 . S
O114 Hf113 2.072 . S
O114 Hf115 2.072 1_455 S
Hf115 O107 2.072 . S
Hf115 O109 2.202 1_655 S
Hf115 O111 2.202 . S
Hf115 O114 2.072 1_655 S
Hf115 O123 2.209 . S
Hf115 O126 2.209 . S
Hf115 O135 2.209 . S
Hf115 O138 2.209 1_655 S
C116 O130 1.281 . S
C116 O146 1.281 . S
C117 O133 1.281 . S
C117 O143 1.281 1_556 S
C118 O132 1.281 . S
C118 O145 1.281 1_556 S
C119 O120 1.281 1_556 S
C119 O142 1.281 . S
O120 Hf106 2.209 . S
O120 C119 1.281 1_554 S
O121 Hf106 2.209 . S
O121 C122 1.281 . S
C122 O121 1.281 . S
C122 O144 1.281 . S
O123 Hf115 2.209 . S
O123 C134 1.281 . S
O124 Hf112 2.209 . S
O124 C141 1.281 . S
O125 Hf112 2.209 . S
O125 C149 1.281 . S
O126 Hf115 2.209 . S
O126 C131 1.281 1_554 S
O127 Hf108 2.209 . S
O127 C148 1.281 . S
O128 C100 1.281 . S
O128 Hf108 2.209 . S
O129 C101 1.281 . S
O129 Hf113 2.209 1_655 S
O130 Hf113 2.209 . S
O130 C116 1.281 . S
C131 O126 1.281 1_556 S
C131 O140 1.281 . S
O132 Hf110 2.207 1_556 S
O132 C118 1.281 . S
O133 Hf110 2.207 1_656 S
O133 C117 1.281 . S
C134 O123 1.281 . S
C134 O139 1.281 . S
O135 Hf115 2.209 . S
O135 C148 1.281 . S
O136 Hf106 2.209 . S
O136 C149 1.281 . S
O137 C100 1.281 . S
O137 Hf106 2.209 1_655 S
O138 Hf115 2.209 1_455 S
O138 C141 1.281 . S
O139 Hf113 2.209 1_655 S
O139 C134 1.281 . S
O140 Hf110 2.207 1_656 S
O140 C131 1.281 . S
C141 O124 1.281 . S
C141 O138 1.281 . S
O142 Hf110 2.207 1_556 S
O142 C119 1.281 . S
O143 Hf108 2.209 . S
O143 C117 1.281 1_554 S
O144 Hf113 2.209 . S
O144 C122 1.281 . S
O145 Hf112 2.209 . S
O145 C118 1.281 1_554 S
O146 Hf112 2.209 . S
O146 C116 1.281 . S
O147 C101 1.281 . S
O147 Hf108 2.209 . S
C148 O127 1.281 . S
C148 O135 1.281 . S
C149 O125 1.281 . S
C149 O136 1.281 . S
C150 O178 1.281 . S
C150 O187 1.281 . S
C151 O179 1.281 . S
C151 O197 1.281 . S
O152 Hf156 2.202 1_545 S
O152 Hf158 2.202 . S
O152 Hf160 2.202 . S
O153 Hf156 2.202 . S
O153 Hf162 2.202 . S
O153 Hf163 2.202 1_565 S
O154 Hf156 2.072 . S
O154 Hf160 2.072 1_565 S
O154 Hf162 2.072 . S
O155 Hf156 2.072 1_545 S
O155 Hf158 2.072 . S
O155 Hf163 2.072 . S
Hf156 O152 2.202 1_565 S
Hf156 O153 2.202 . S
Hf156 O154 2.072 . S
Hf156 O155 2.072 1_565 S
Hf156 O170 2.209 . S
Hf156 O171 2.209 . S
Hf156 O186 2.209 . S
Hf156 O187 2.209 1_565 S
O157 Hf158 2.072 . S
O157 Hf160 2.072 . S
O157 Hf165 2.072 . S
Hf158 O152 2.202 . S
Hf158 O155 2.072 . S
Hf158 O157 2.072 . S
Hf158 O161 2.202 . S
Hf158 O177 2.209 . S
Hf158 O178 2.209 . S
Hf158 O193 2.209 . S
Hf158 O197 2.209 . S
O159 Hf160 2.202 1_565 S
O159 Hf162 2.202 . S
O159 Hf165 2.202 1_565 S
Hf160 O152 2.202 . S
Hf160 O154 2.072 1_545 S
Hf160 O157 2.072 . S
Hf160 O159 2.202 1_545 S
Hf160 O182 2.209 1_545 S
Hf160 O183 2.209 . S
Hf160 O190 2.209 . S
Hf160 O192 2.209 1_545 S
O161 Hf158 2.202 . S
O161 Hf163 2.202 . S
O161 Hf165 2.202 . S
Hf162 O153 2.202 . S
Hf162 O154 2.072 . S
Hf162 O159 2.202 . S
Hf162 O164 2.072 . S
Hf162 O174 2.209 . S
Hf162 O175 2.209 . S
Hf162 O195 2.209 . S
Hf162 O196 2.209 . S
Hf163 O153 2.202 1_545 S
Hf163 O155 2.072 . S
Hf163 O161 2.202 . S
Hf163 O164 2.072 1_545 S
Hf163 O179 2.209 . S
Hf163 O180 2.209 1_545 S
Hf163 O189 2.209 . S
Hf163 O194 2.209 1_545 S
O164 Hf162 2.072 . S
O164 Hf163 2.072 1_565 S
O164 Hf165 2.072 1_565 S
Hf165 O157 2.072 . S
Hf165 O159 2.202 1_545 S
Hf165 O161 2.202 . S
Hf165 O164 2.072 1_545 S
Hf165 O173 2.209 . S
Hf165 O176 2.209 . S
Hf165 O185 2.209 . S
Hf165 O188 2.209 1_545 S
C166 O180 1.281 . S
C166 O196 1.281 . S
C167 O183 1.281 . S
C167 O193 1.281 . S
C168 O182 1.281 . S
C168 O195 1.281 . S
C169 O170 1.281 . S
C169 O192 1.281 . S
O170 Hf156 2.209 . S
O170 C169 1.281 . S
O171 Hf156 2.209 . S
O171 C172 1.281 . S
C172 O171 1.281 . S
C172 O194 1.281 . S
O173 Hf165 2.209 . S
O173 C184 1.281 . S
O174 Hf162 2.209 . S
O174 C191 1.281 . S
O175 Hf162 2.209 . S
O175 C199 1.281 . S
O176 Hf165 2.209 . S
O176 C181 1.281 . S
O177 Hf158 2.209 . S
O177 C198 1.281 . S
O178 C150 1.281 . S
O178 Hf158 2.209 . S
O179 C151 1.281 . S
O179 Hf163 2.209 . S
O180 Hf163 2.209 1_565 S
O180 C166 1.281 . S
C181 O176 1.281 . S
C181 O190 1.281 . S
O182 Hf160 2.209 1_565 S
O182 C168 1.281 . S
O183 Hf160 2.209 . S
O183 C167 1.281 . S
C184 O173 1.281 . S
C184 O189 1.281 . S
O185 Hf165 2.209 . S
O185 C198 1.281 . S
O186 Hf156 2.209 . S
O186 C199 1.281 . S
O187 C150 1.281 . S
O187 Hf156 2.209 1_545 S
O188 Hf165 2.209 1_565 S
O188 C191 1.281 . S
O189 Hf163 2.209 . S
O189 C184 1.281 . S
O190 Hf160 2.209 . S
O190 C181 1.281 . S
C191 O174 1.281 . S
C191 O188 1.281 . S
O192 Hf160 2.209 1_565 S
O192 C169 1.281 . S
O193 Hf158 2.209 . S
O193 C167 1.281 . S
O194 Hf163 2.209 1_565 S
O194 C172 1.281 . S
O195 Hf162 2.209 . S
O195 C168 1.281 . S
O196 Hf162 2.209 . S
O196 C166 1.281 . S
O197 C151 1.281 . S
O197 Hf158 2.209 . S
C198 O177 1.281 . S
C198 O185 1.281 . S
C199 O175 1.281 . S
C199 O186 1.281 . S
C200 O228 1.281 . S
C200 O237 1.281 . S
C201 O229 1.281 . S
C201 O247 1.281 . S
O202 Hf206 2.202 . S
O202 Hf208 2.202 . S
O202 Hf210 2.202 1_554 S
O203 Hf206 2.202 . S
O203 Hf212 2.202 . S
O203 Hf213 2.202 . S
O204 Hf206 2.072 . S
O204 Hf210 2.072 1_554 S
O204 Hf212 2.072 . S
O205 Hf206 2.072 . S
O205 Hf208 2.072 . S
O205 Hf213 2.072 . S
Hf206 O202 2.202 . S
Hf206 O203 2.202 . S
Hf206 O204 2.072 . S
Hf206 O205 2.072 . S
Hf206 O220 2.209 . S
Hf206 O221 2.209 . S
Hf206 O236 2.209 . S
Hf206 O237 2.209 . S
O207 Hf208 2.072 1_556 S
O207 Hf210 2.072 . S
O207 Hf215 2.072 . S
Hf208 O202 2.202 . S
Hf208 O205 2.072 . S
Hf208 O207 2.072 1_554 S
Hf208 O211 2.202 1_554 S
Hf208 O227 2.209 1_554 S
Hf208 O228 2.209 . S
Hf208 O243 2.209 1_554 S
Hf208 O247 2.209 . S
O209 Hf210 2.202 . S
O209 Hf212 2.202 1_556 S
O209 Hf215 2.202 . S
Hf210 O202 2.202 1_556 S
Hf210 O204 2.072 1_556 S
Hf210 O207 2.072 . S
Hf210 O209 2.202 . S
Hf210 O232 2.209 . S
Hf210 O233 2.209 . S
Hf210 O240 2.209 . S
Hf210 O242 2.209 1_556 S
O211 Hf208 2.202 1_556 S
O211 Hf213 2.202 1_556 S
O211 Hf215 2.202 . S
Hf212 O203 2.202 . S
Hf212 O204 2.072 . S
Hf212 O209 2.202 1_554 S
Hf212 O214 2.072 1_554 S
Hf212 O224 2.209 1_554 S
Hf212 O225 2.209 . S
Hf212 O245 2.209 1_554 S
Hf212 O246 2.209 . S
Hf213 O203 2.202 . S
Hf213 O205 2.072 . S
Hf213 O211 2.202 1_554 S
Hf213 O214 2.072 1_554 S
Hf213 O229 2.209 . S
Hf213 O230 2.209 . S
Hf213 O239 2.209 1_554 S
Hf213 O244 2.209 . S
O214 Hf212 2.072 1_556 S
O214 Hf213 2.072 1_556 S
O214 Hf215 2.072 . S
Hf215 O207 2.072 . S
Hf215 O209 2.202 . S
Hf215 O211 2.202 . S
Hf215 O214 2.072 . S
Hf215 O223 2.209 . S
Hf215 O226 2.209 . S
Hf215 O235 2.209 . S
Hf215 O238 2.209 . S
C216 O230 1.281 . S
C216 O246 1.281 . S
C217 O233 1.281 . S
C217 O243 1.281 . S
C218 O232 1.281 . S
C218 O245 1.281 . S
C219 O220 1.281 . S
C219 O242 1.281 . S
O220 Hf206 2.209 . S
O220 C219 1.281 . S
O221 Hf206 2.209 . S
O221 C222 1.281 . S
C222 O221 1.281 . S
C222 O244 1.281 . S
O223 Hf215 2.209 . S
O223 C234 1.281 . S
O224 Hf212 2.209 1_556 S
O224 C241 1.281 . S
O225 Hf212 2.209 . S
O225 C249 1.281 . S
O226 Hf215 2.209 . S
O226 C231 1.281 . S
O227 Hf208 2.209 1_556 S
O227 C248 1.281 . S
O228 C200 1.281 . S
O228 Hf208 2.209 . S
O229 C201 1.281 . S
O229 Hf213 2.209 . S
O230 Hf213 2.209 . S
O230 C216 1.281 . S
C231 O226 1.281 . S
C231 O240 1.281 . S
O232 Hf210 2.209 . S
O232 C218 1.281 . S
O233 Hf210 2.209 . S
O233 C217 1.281 . S
C234 O223 1.281 . S
C234 O239 1.281 . S
O235 Hf215 2.209 . S
O235 C248 1.281 . S
O236 Hf206 2.209 . S
O236 C249 1.281 . S
O237 C200 1.281 . S
O237 Hf206 2.209 . S
O238 Hf215 2.209 . S
O238 C241 1.281 . S
O239 Hf213 2.209 1_556 S
O239 C234 1.281 . S
O240 Hf210 2.209 . S
O240 C231 1.281 . S
C241 O224 1.281 . S
C241 O238 1.281 . S
O242 Hf210 2.209 1_554 S
O242 C219 1.281 . S
O243 Hf208 2.209 1_556 S
O243 C217 1.281 . S
O244 Hf213 2.209 . S
O244 C222 1.281 . S
O245 Hf212 2.209 1_556 S
O245 C218 1.281 . S
O246 Hf212 2.209 . S
O246 C216 1.281 . S
O247 C201 1.281 . S
O247 Hf208 2.209 . S
C248 O227 1.281 . S
C248 O235 1.281 . S
C249 O225 1.281 . S
C249 O236 1.281 . S
C250 O278 1.281 . S
C250 O287 1.281 . S
C251 O279 1.281 . S
C251 O297 1.281 . S
O252 Hf256 2.202 . S
O252 Hf258 2.202 . S
O252 Hf260 2.202 . S
O253 Hf256 2.202 . S
O253 Hf262 2.202 . S
O253 Hf263 2.202 . S
O254 Hf256 2.072 . S
O254 Hf260 2.072 . S
O254 Hf262 2.072 . S
O255 Hf256 2.072 . S
O255 Hf258 2.072 . S
O255 Hf263 2.072 . S
Hf256 O252 2.202 . S
Hf256 O253 2.202 . S
Hf256 O254 2.072 . S
Hf256 O255 2.072 . S
Hf256 O270 2.209 . S
Hf256 O271 2.209 . S
Hf256 O286 2.209 . S
Hf256 O287 2.209 . S
O257 Hf258 2.072 . S
O257 Hf260 2.072 . S
O257 Hf265 2.072 . S
Hf258 O252 2.202 . S
Hf258 O255 2.072 . S
Hf258 O257 2.072 . S
Hf258 O261 2.202 . S
Hf258 O277 2.209 . S
Hf258 O278 2.209 . S
Hf258 O293 2.209 . S
Hf258 O297 2.209 . S
O259 Hf260 2.202 . S
O259 Hf262 2.202 . S
O259 Hf265 2.202 . S
Hf260 O252 2.202 . S
Hf260 O254 2.072 . S
Hf260 O257 2.072 . S
Hf260 O259 2.202 . S
Hf260 O282 2.209 . S
Hf260 O283 2.209 . S
Hf260 O290 2.209 . S
Hf260 O292 2.209 . S
O261 Hf258 2.202 . S
O261 Hf263 2.202 . S
O261 Hf265 2.202 . S
Hf262 O253 2.202 . S
Hf262 O254 2.072 . S
Hf262 O259 2.202 . S
Hf262 O264 2.072 . S
Hf262 O274 2.209 . S
Hf262 O275 2.209 . S
Hf262 O295 2.209 . S
Hf262 O296 2.209 . S
Hf263 O253 2.202 . S
Hf263 O255 2.072 . S
Hf263 O261 2.202 . S
Hf263 O264 2.072 . S
Hf263 O279 2.209 . S
Hf263 O280 2.209 . S
Hf263 O289 2.209 . S
Hf263 O294 2.209 . S
O264 Hf262 2.072 . S
O264 Hf263 2.072 . S
O264 Hf265 2.072 . S
Hf265 O257 2.072 . S
Hf265 O259 2.202 . S
Hf265 O261 2.202 . S
Hf265 O264 2.072 . S
Hf265 O273 2.209 . S
Hf265 O276 2.209 . S
Hf265 O285 2.209 . S
Hf265 O288 2.209 . S
C266 O280 1.281 . S
C266 O296 1.281 . S
C267 O283 1.281 . S
C267 O293 1.281 . S
C268 O282 1.281 . S
C268 O295 1.281 . S
C269 O270 1.281 . S
C269 O292 1.281 . S
O270 Hf256 2.209 . S
O270 C269 1.281 . S
O271 Hf256 2.209 . S
O271 C272 1.281 . S
C272 O271 1.281 . S
C272 O294 1.281 . S
O273 Hf265 2.209 . S
O273 C284 1.281 . S
O274 Hf262 2.209 . S
O274 C291 1.281 . S
O275 Hf262 2.209 . S
O275 C299 1.281 . S
O276 Hf265 2.209 . S
O276 C281 1.281 . S
O277 Hf258 2.209 . S
O277 C298 1.281 . S
O278 C250 1.281 . S
O278 Hf258 2.209 . S
O279 C251 1.281 . S
O279 Hf263 2.209 . S
O280 Hf263 2.209 . S
O280 C266 1.281 . S
C281 O276 1.281 . S
C281 O290 1.281 . S
O282 Hf260 2.209 . S
O282 C268 1.281 . S
O283 Hf260 2.209 . S
O283 C267 1.281 . S
C284 O273 1.281 . S
C284 O289 1.281 . S
O285 Hf265 2.209 . S
O285 C298 1.281 . S
O286 Hf256 2.209 . S
O286 C299 1.281 . S
O287 C250 1.281 . S
O287 Hf256 2.209 . S
O288 Hf265 2.209 . S
O288 C291 1.281 . S
O289 Hf263 2.209 . S
O289 C284 1.281 . S
O290 Hf260 2.209 . S
O290 C281 1.281 . S
C291 O274 1.281 . S
C291 O288 1.281 . S
O292 Hf260 2.209 . S
O292 C269 1.281 . S
O293 Hf258 2.209 . S
O293 C267 1.281 . S
O294 Hf263 2.209 . S
O294 C272 1.281 . S
O295 Hf262 2.209 . S
O295 C268 1.281 . S
O296 Hf262 2.209 . S
O296 C266 1.281 . S
O297 C251 1.281 . S
O297 Hf258 2.209 . S
C298 O277 1.281 . S
C298 O285 1.281 . S
C299 O275 1.281 . S
C299 O286 1.281 . S
C300 O328 1.281 . S
C300 O337 1.281 . S
C301 O329 1.281 . S
C301 O347 1.281 . S
O302 Hf306 2.202 1_554 S
O302 Hf308 2.202 . S
O302 Hf310 2.204 . S
O303 Hf306 2.202 . S
O303 Hf312 2.202 . S
O303 Hf313 2.202 1_556 S
O304 Hf306 2.072 . S
O304 Hf310 2.075 1_556 S
O304 Hf312 2.072 . S
O305 Hf306 2.072 1_554 S
O305 Hf308 2.072 . S
O305 Hf313 2.072 . S
Hf306 O302 2.202 1_556 S
Hf306 O303 2.202 . S
Hf306 O304 2.072 . S
Hf306 O305 2.072 1_556 S
Hf306 O320 2.209 . S
Hf306 O321 2.209 . S
Hf306 O336 2.209 . S
Hf306 O337 2.209 1_556 S
O307 Hf308 2.072 . S
O307 Hf310 2.075 . S
O307 Hf315 2.072 . S
Hf308 O302 2.202 . S
Hf308 O305 2.072 . S
Hf308 O307 2.072 . S
Hf308 O311 2.202 . S
Hf308 O327 2.209 . S
Hf308 O328 2.209 . S
Hf308 O343 2.209 . S
Hf308 O347 2.209 . S
O309 Hf310 2.204 1_556 S
O309 Hf312 2.202 . S
O309 Hf315 2.202 1_556 S
Hf310 O302 2.204 . S
Hf310 O304 2.075 1_554 S
Hf310 O307 2.075 . S
Hf310 O309 2.204 1_554 S
Hf310 O332 2.207 1_544 S
Hf310 O333 2.207 1_545 S
Hf310 O340 2.207 1_545 S
Hf310 O342 2.207 1_544 S
O311 Hf308 2.202 . S
O311 Hf313 2.202 . S
O311 Hf315 2.202 . S
Hf312 O303 2.202 . S
Hf312 O304 2.072 . S
Hf312 O309 2.202 . S
Hf312 O314 2.072 . S
Hf312 O324 2.209 . S
Hf312 O325 2.209 . S
Hf312 O345 2.209 . S
Hf312 O346 2.209 . S
Hf313 O303 2.202 1_554 S
Hf313 O305 2.072 . S
Hf313 O311 2.202 . S
Hf313 O314 2.072 1_554 S
Hf313 O329 2.209 . S
Hf313 O330 2.209 1_554 S
Hf313 O339 2.209 . S
Hf313 O344 2.209 1_554 S
O314 Hf312 2.072 . S
O314 Hf313 2.072 1_556 S
O314 Hf315 2.072 1_556 S
Hf315 O307 2.072 . S
Hf315 O309 2.202 1_554 S
Hf315 O311 2.202 . S
Hf315 O314 2.072 1_554 S
Hf315 O323 2.209 . S
Hf315 O326 2.209 . S
Hf315 O335 2.209 . S
Hf315 O338 2.209 1_554 S
C316 O330 1.281 . S
C316 O346 1.281 . S
C317 O333 1.281 . S
C317 O343 1.281 1_565 S
C318 O332 1.281 . S
C318 O345 1.281 1_565 S
C319 O320 1.281 1_565 S
C319 O342 1.281 . S
O320 Hf306 2.209 . S
O320 C319 1.281 1_545 S
O321 Hf306 2.209 . S
O321 C322 1.281 . S
C322 O321 1.281 . S
C322 O344 1.281 . S
O323 Hf315 2.209 . S
O323 C334 1.281 . S
O324 Hf312 2.209 . S
O324 C341 1.281 . S
O325 Hf312 2.209 . S
O325 C349 1.281 . S
O326 Hf315 2.209 . S
O326 C331 1.281 1_545 S
O327 Hf308 2.209 . S
O327 C348 1.281 . S
O328 C300 1.281 . S
O328 Hf308 2.209 . S
O329 C301 1.281 . S
O329 Hf313 2.209 . S
O330 Hf313 2.209 1_556 S
O330 C316 1.281 . S
C331 O326 1.281 1_565 S
C331 O340 1.281 . S
O332 Hf310 2.207 1_566 S
O332 C318 1.281 . S
O333 Hf310 2.207 1_565 S
O333 C317 1.281 . S
C334 O323 1.281 . S
C334 O339 1.281 . S
O335 Hf315 2.209 . S
O335 C348 1.281 . S
O336 Hf306 2.209 . S
O336 C349 1.281 . S
O337 C300 1.281 . S
O337 Hf306 2.209 1_554 S
O338 Hf315 2.209 1_556 S
O338 C341 1.281 . S
O339 Hf313 2.209 . S
O339 C334 1.281 . S
O340 Hf310 2.207 1_565 S
O340 C331 1.281 . S
C341 O324 1.281 . S
C341 O338 1.281 . S
O342 Hf310 2.207 1_566 S
O342 C319 1.281 . S
O343 Hf308 2.209 . S
O343 C317 1.281 1_545 S
O344 Hf313 2.209 1_556 S
O344 C322 1.281 . S
O345 Hf312 2.209 . S
O345 C318 1.281 1_545 S
O346 Hf312 2.209 . S
O346 C316 1.281 . S
O347 C301 1.281 . S
O347 Hf308 2.209 . S
C348 O327 1.281 . S
C348 O335 1.281 . S
C349 O325 1.281 . S
C349 O336 1.281 . S
C350 O378 1.281 . S
C350 O387 1.281 . S
C351 O379 1.281 . S
C351 O397 1.281 . S
O352 Hf356 2.202 . S
O352 Hf358 2.202 . S
O352 Hf360 2.202 . S
O353 Hf356 2.202 . S
O353 Hf362 2.202 . S
O353 Hf363 2.202 . S
O354 Hf356 2.072 . S
O354 Hf360 2.072 . S
O354 Hf362 2.072 . S
O355 Hf356 2.072 . S
O355 Hf358 2.072 . S
O355 Hf363 2.072 . S
Hf356 O352 2.202 . S
Hf356 O353 2.202 . S
Hf356 O354 2.072 . S
Hf356 O355 2.072 . S
Hf356 O370 2.209 . S
Hf356 O371 2.209 . S
Hf356 O386 2.209 . S
Hf356 O387 2.209 . S
O357 Hf358 2.072 . S
O357 Hf360 2.072 . S
O357 Hf365 2.072 . S
Hf358 O352 2.202 . S
Hf358 O355 2.072 . S
Hf358 O357 2.072 . S
Hf358 O361 2.202 . S
Hf358 O377 2.209 . S
Hf358 O378 2.209 . S
Hf358 O393 2.209 . S
Hf358 O397 2.209 . S
O359 Hf360 2.202 . S
O359 Hf362 2.202 . S
O359 Hf365 2.202 . S
Hf360 O352 2.202 . S
Hf360 O354 2.072 . S
Hf360 O357 2.072 . S
Hf360 O359 2.202 . S
Hf360 O382 2.209 . S
Hf360 O383 2.209 . S
Hf360 O390 2.209 . S
Hf360 O392 2.209 . S
O361 Hf358 2.202 . S
O361 Hf363 2.202 . S
O361 Hf365 2.202 . S
Hf362 O353 2.202 . S
Hf362 O354 2.072 . S
Hf362 O359 2.202 . S
Hf362 O364 2.072 . S
Hf362 O374 2.209 . S
Hf362 O375 2.209 . S
Hf362 O395 2.209 . S
Hf362 O396 2.209 . S
Hf363 O353 2.202 . S
Hf363 O355 2.072 . S
Hf363 O361 2.202 . S
Hf363 O364 2.072 . S
Hf363 O379 2.209 . S
Hf363 O380 2.209 . S
Hf363 O389 2.209 . S
Hf363 O394 2.209 . S
O364 Hf362 2.072 . S
O364 Hf363 2.072 . S
O364 Hf365 2.072 . S
Hf365 O357 2.072 . S
Hf365 O359 2.202 . S
Hf365 O361 2.202 . S
Hf365 O364 2.072 . S
Hf365 O373 2.209 . S
Hf365 O376 2.209 . S
Hf365 O385 2.209 . S
Hf365 O388 2.209 . S
C366 O380 1.281 . S
C366 O396 1.281 . S
C367 O383 1.281 . S
C367 O393 1.281 . S
C368 O382 1.281 . S
C368 O395 1.281 . S
C369 O370 1.281 . S
C369 O392 1.281 . S
O370 Hf356 2.209 . S
O370 C369 1.281 . S
O371 Hf356 2.209 . S
O371 C372 1.281 . S
C372 O371 1.281 . S
C372 O394 1.281 . S
O373 Hf365 2.209 . S
O373 C384 1.281 . S
O374 Hf362 2.209 . S
O374 C391 1.281 . S
O375 Hf362 2.209 . S
O375 C399 1.281 . S
O376 Hf365 2.209 . S
O376 C381 1.281 . S
O377 Hf358 2.209 . S
O377 C398 1.281 . S
O378 C350 1.281 . S
O378 Hf358 2.209 . S
O379 C351 1.281 . S
O379 Hf363 2.209 . S
O380 Hf363 2.209 . S
O380 C366 1.281 . S
C381 O376 1.281 . S
C381 O390 1.281 . S
O382 Hf360 2.209 . S
O382 C368 1.281 . S
O383 Hf360 2.209 . S
O383 C367 1.281 . S
C384 O373 1.281 . S
C384 O389 1.281 . S
O385 Hf365 2.209 . S
O385 C398 1.281 . S
O386 Hf356 2.209 . S
O386 C399 1.281 . S
O387 C350 1.281 . S
O387 Hf356 2.209 . S
O388 Hf365 2.209 . S
O388 C391 1.281 . S
O389 Hf363 2.209 . S
O389 C384 1.281 . S
O390 Hf360 2.209 . S
O390 C381 1.281 . S
C391 O374 1.281 . S
C391 O388 1.281 . S
O392 Hf360 2.209 . S
O392 C369 1.281 . S
O393 Hf358 2.209 . S
O393 C367 1.281 . S
O394 Hf363 2.209 . S
O394 C372 1.281 . S
O395 Hf362 2.209 . S
O395 C368 1.281 . S
O396 Hf362 2.209 . S
O396 C366 1.281 . S
O397 C351 1.281 . S
O397 Hf358 2.209 . S
C398 O377 1.281 . S
C398 O385 1.281 . S
C399 O375 1.281 . S
C399 O386 1.281 . S
C400 O428 1.281 . S
C400 O437 1.281 . S
C401 O429 1.281 . S
C401 O447 1.281 . S
O402 Hf406 2.202 . S
O402 Hf408 2.202 . S
O402 Hf410 2.204 . S
O403 Hf406 2.202 . S
O403 Hf412 2.202 . S
O403 Hf413 2.202 . S
O404 Hf406 2.072 . S
O404 Hf410 2.075 . S
O404 Hf412 2.072 . S
O405 Hf406 2.072 . S
O405 Hf408 2.072 . S
O405 Hf413 2.072 . S
Hf406 O402 2.202 . S
Hf406 O403 2.202 . S
Hf406 O404 2.072 . S
Hf406 O405 2.072 . S
Hf406 O420 2.209 . S
Hf406 O421 2.209 . S
Hf406 O436 2.209 . S
Hf406 O437 2.209 . S
O407 Hf408 2.072 . S
O407 Hf410 2.075 . S
O407 Hf415 2.072 . S
Hf408 O402 2.202 . S
Hf408 O405 2.072 . S
Hf408 O407 2.072 . S
Hf408 O411 2.202 . S
Hf408 O427 2.209 . S
Hf408 O428 2.209 . S
Hf408 O443 2.209 . S
Hf408 O447 2.209 . S
O409 Hf410 2.204 . S
O409 Hf412 2.202 . S
O409 Hf415 2.202 . S
Hf410 O402 2.204 . S
Hf410 O404 2.075 . S
Hf410 O407 2.075 . S
Hf410 O409 2.204 . S
Hf410 O432 2.207 1_655 S
Hf410 O433 2.207 1_655 S
Hf410 O440 2.207 1_655 S
Hf410 O442 2.207 1_655 S
O411 Hf408 2.202 . S
O411 Hf413 2.202 . S
O411 Hf415 2.202 . S
Hf412 O403 2.202 . S
Hf412 O404 2.072 . S
Hf412 O409 2.202 . S
Hf412 O414 2.072 . S
Hf412 O424 2.209 . S
Hf412 O425 2.209 . S
Hf412 O445 2.209 . S
Hf412 O446 2.209 . S
Hf413 O403 2.202 . S
Hf413 O405 2.072 . S
Hf413 O411 2.202 . S
Hf413 O414 2.072 . S
Hf413 O429 2.209 . S
Hf413 O430 2.209 . S
Hf413 O439 2.209 . S
Hf413 O444 2.209 . S
O414 Hf412 2.072 . S
O414 Hf413 2.072 . S
O414 Hf415 2.072 . S
Hf415 O407 2.072 . S
Hf415 O409 2.202 . S
Hf415 O411 2.202 . S
Hf415 O414 2.072 . S
Hf415 O423 2.209 . S
Hf415 O426 2.209 . S
Hf415 O435 2.209 . S
Hf415 O438 2.209 . S
C416 O430 1.281 . S
C416 O446 1.281 . S
C417 O433 1.281 . S
C417 O443 1.281 1_455 S
C418 O432 1.281 . S
C418 O445 1.281 1_455 S
C419 O420 1.281 1_455 S
C419 O442 1.281 . S
O420 Hf406 2.209 . S
O420 C419 1.281 1_655 S
O421 Hf406 2.209 . S
O421 C422 1.281 . S
C422 O421 1.281 . S
C422 O444 1.281 . S
O423 Hf415 2.209 . S
O423 C434 1.281 . S
O424 Hf412 2.209 . S
O424 C441 1.281 . S
O425 Hf412 2.209 . S
O425 C449 1.281 . S
O426 Hf415 2.209 . S
O426 C431 1.281 1_655 S
O427 Hf408 2.209 . S
O427 C448 1.281 . S
O428 C400 1.281 . S
O428 Hf408 2.209 . S
O429 C401 1.281 . S
O429 Hf413 2.209 . S
O430 Hf413 2.209 . S
O430 C416 1.281 . S
C431 O426 1.281 1_455 S
C431 O440 1.281 . S
O432 Hf410 2.207 1_455 S
O432 C418 1.281 . S
O433 Hf410 2.207 1_455 S
O433 C417 1.281 . S
C434 O423 1.281 . S
C434 O439 1.281 . S
O435 Hf415 2.209 . S
O435 C448 1.281 . S
O436 Hf406 2.209 . S
O436 C449 1.281 . S
O437 C400 1.281 . S
O437 Hf406 2.209 . S
O438 Hf415 2.209 . S
O438 C441 1.281 . S
O439 Hf413 2.209 . S
O439 C434 1.281 . S
O440 Hf410 2.207 1_455 S
O440 C431 1.281 . S
C441 O424 1.281 . S
C441 O438 1.281 . S
O442 Hf410 2.207 1_455 S
O442 C419 1.281 . S
O443 Hf408 2.209 . S
O443 C417 1.281 1_655 S
O444 Hf413 2.209 . S
O444 C422 1.281 . S
O445 Hf412 2.209 . S
O445 C418 1.281 1_655 S
O446 Hf412 2.209 . S
O446 C416 1.281 . S
O447 C401 1.281 . S
O447 Hf408 2.209 . S
C448 O427 1.281 . S
C448 O435 1.281 . S
C449 O425 1.281 . S
C449 O436 1.281 . S
C450 O478 1.281 . S
C450 O487 1.281 1_545 S
C451 O479 1.281 1_545 S
C451 O497 1.281 . S
O452 Hf456 2.202 . S
O452 Hf458 2.204 . S
O452 Hf460 2.202 . S
O453 Hf456 2.202 . S
O453 Hf462 2.202 . S
O453 Hf463 2.202 . S
O454 Hf456 2.072 . S
O454 Hf460 2.072 . S
O454 Hf462 2.072 . S
O455 Hf456 2.072 . S
O455 Hf458 2.075 . S
O455 Hf463 2.072 . S
Hf456 O452 2.202 . S
Hf456 O453 2.202 . S
Hf456 O454 2.072 . S
Hf456 O455 2.072 . S
Hf456 O470 2.209 . S
Hf456 O471 2.209 . S
Hf456 O486 2.209 . S
Hf456 O487 2.209 . S
O457 Hf458 2.075 . S
O457 Hf460 2.072 . S
O457 Hf465 2.072 . S
Hf458 O452 2.204 . S
Hf458 O455 2.075 . S
Hf458 O457 2.075 . S
Hf458 O461 2.204 . S
Hf458 O477 2.207 1_565 S
Hf458 O478 2.207 1_565 S
Hf458 O493 2.207 1_565 S
Hf458 O497 2.207 1_565 S
O459 Hf460 2.202 . S
O459 Hf462 2.202 . S
O459 Hf465 2.202 . S
Hf460 O452 2.202 . S
Hf460 O454 2.072 . S
Hf460 O457 2.072 . S
Hf460 O459 2.202 . S
Hf460 O482 2.209 . S
Hf460 O483 2.209 . S
Hf460 O490 2.209 . S
Hf460 O492 2.209 . S
O461 Hf458 2.204 . S
O461 Hf463 2.202 . S
O461 Hf465 2.202 . S
Hf462 O453 2.202 . S
Hf462 O454 2.072 . S
Hf462 O459 2.202 . S
Hf462 O464 2.072 . S
Hf462 O474 2.209 . S
Hf462 O475 2.209 . S
Hf462 O495 2.209 . S
Hf462 O496 2.209 . S
Hf463 O453 2.202 . S
Hf463 O455 2.072 . S
Hf463 O461 2.202 . S
Hf463 O464 2.072 . S
Hf463 O479 2.209 . S
Hf463 O480 2.209 . S
Hf463 O489 2.209 . S
Hf463 O494 2.209 . S
O464 Hf462 2.072 . S
O464 Hf463 2.072 . S
O464 Hf465 2.072 . S
Hf465 O457 2.072 . S
Hf465 O459 2.202 . S
Hf465 O461 2.202 . S
Hf465 O464 2.072 . S
Hf465 O473 2.209 . S
Hf465 O476 2.209 . S
Hf465 O485 2.209 . S
Hf465 O488 2.209 . S
C466 O480 1.281 . S
C466 O496 1.281 . S
C467 O483 1.281 1_545 S
C467 O493 1.281 . S
C468 O482 1.281 . S
C468 O495 1.281 . S
C469 O470 1.281 . S
C469 O492 1.281 . S
O470 Hf456 2.209 . S
O470 C469 1.281 . S
O471 Hf456 2.209 . S
O471 C472 1.281 . S
C472 O471 1.281 . S
C472 O494 1.281 . S
O473 Hf465 2.209 . S
O473 C484 1.281 . S
O474 Hf462 2.209 . S
O474 C491 1.281 . S
O475 Hf462 2.209 . S
O475 C499 1.281 . S
O476 Hf465 2.209 . S
O476 C481 1.281 . S
O477 Hf458 2.207 1_545 S
O477 C498 1.281 . S
O478 C450 1.281 . S
O478 Hf458 2.207 1_545 S
O479 C451 1.281 1_565 S
O479 Hf463 2.209 . S
O480 Hf463 2.209 . S
O480 C466 1.281 . S
C481 O476 1.281 . S
C481 O490 1.281 . S
O482 Hf460 2.209 . S
O482 C468 1.281 . S
O483 Hf460 2.209 . S
O483 C467 1.281 1_565 S
C484 O473 1.281 . S
C484 O489 1.281 . S
O485 Hf465 2.209 . S
O485 C498 1.281 1_565 S
O486 Hf456 2.209 . S
O486 C499 1.281 . S
O487 C450 1.281 1_565 S
O487 Hf456 2.209 . S
O488 Hf465 2.209 . S
O488 C491 1.281 . S
O489 Hf463 2.209 . S
O489 C484 1.281 . S
O490 Hf460 2.209 . S
O490 C481 1.281 . S
C491 O474 1.281 . S
C491 O488 1.281 . S
O492 Hf460 2.209 . S
O492 C469 1.281 . S
O493 Hf458 2.207 1_545 S
O493 C467 1.281 . S
O494 Hf463 2.209 . S
O494 C472 1.281 . S
O495 Hf462 2.209 . S
O495 C468 1.281 . S
O496 Hf462 2.209 . S
O496 C466 1.281 . S
O497 C451 1.281 . S
O497 Hf458 2.207 1_545 S
C498 O477 1.281 . S
C498 O485 1.281 1_545 S
C499 O475 1.281 . S
C499 O486 1.281 . S
C500 O528 1.281 . S
C500 O537 1.281 1_655 S
C501 O529 1.281 1_655 S
C501 O547 1.281 . S
O502 Hf506 2.202 . S
O502 Hf508 2.204 . S
O502 Hf510 2.202 1_545 S
O503 Hf506 2.202 . S
O503 Hf512 2.202 . S
O503 Hf513 2.202 . S
O504 Hf506 2.072 . S
O504 Hf510 2.072 1_545 S
O504 Hf512 2.072 . S
O505 Hf506 2.072 . S
O505 Hf508 2.075 . S
O505 Hf513 2.072 . S
Hf506 O502 2.202 . S
Hf506 O503 2.202 . S
Hf506 O504 2.072 . S
Hf506 O505 2.072 . S
Hf506 O520 2.209 . S
Hf506 O521 2.209 . S
Hf506 O536 2.209 . S
Hf506 O537 2.209 . S
O507 Hf508 2.075 1_565 S
O507 Hf510 2.072 . S
O507 Hf515 2.072 . S
Hf508 O502 2.204 . S
Hf508 O505 2.075 . S
Hf508 O507 2.075 1_545 S
Hf508 O511 2.204 1_545 S
Hf508 O527 2.207 1_445 S
Hf508 O528 2.207 1_455 S
Hf508 O543 2.207 1_445 S
Hf508 O547 2.207 1_455 S
O509 Hf510 2.202 . S
O509 Hf512 2.202 1_565 S
O509 Hf515 2.202 . S
Hf510 O502 2.202 1_565 S
Hf510 O504 2.072 1_565 S
Hf510 O507 2.072 . S
Hf510 O509 2.202 . S
Hf510 O532 2.209 . S
Hf510 O533 2.209 . S
Hf510 O540 2.209 . S
Hf510 O542 2.209 1_565 S
O511 Hf508 2.204 1_565 S
O511 Hf513 2.202 1_565 S
O511 Hf515 2.202 . S
Hf512 O503 2.202 . S
Hf512 O504 2.072 . S
Hf512 O509 2.202 1_545 S
Hf512 O514 2.072 1_545 S
Hf512 O524 2.209 1_545 S
Hf512 O525 2.209 . S
Hf512 O545 2.209 1_545 S
Hf512 O546 2.209 . S
Hf513 O503 2.202 . S
Hf513 O505 2.072 . S
Hf513 O511 2.202 1_545 S
Hf513 O514 2.072 1_545 S
Hf513 O529 2.209 . S
Hf513 O530 2.209 . S
Hf513 O539 2.209 1_545 S
Hf513 O544 2.209 . S
O514 Hf512 2.072 1_565 S
O514 Hf513 2.072 1_565 S
O514 Hf515 2.072 . S
Hf515 O507 2.072 . S
Hf515 O509 2.202 . S
Hf515 O511 2.202 . S
Hf515 O514 2.072 . S
Hf515 O523 2.209 . S
Hf515 O526 2.209 . S
Hf515 O535 2.209 . S
Hf515 O538 2.209 . S
C516 O530 1.281 . S
C516 O546 1.281 . S
C517 O533 1.281 1_655 S
C517 O543 1.281 . S
C518 O532 1.281 . S
C518 O545 1.281 . S
C519 O520 1.281 . S
C519 O542 1.281 . S
O520 Hf506 2.209 . S
O520 C519 1.281 . S
O521 Hf506 2.209 . S
O521 C522 1.281 . S
C522 O521 1.281 . S
C522 O544 1.281 . S
O523 Hf515 2.209 . S
O523 C534 1.281 . S
O524 Hf512 2.209 1_565 S
O524 C541 1.281 . S
O525 Hf512 2.209 . S
O525 C549 1.281 . S
O526 Hf515 2.209 . S
O526 C531 1.281 . S
O527 Hf508 2.207 1_665 S
O527 C548 1.281 . S
O528 C500 1.281 . S
O528 Hf508 2.207 1_655 S
O529 C501 1.281 1_455 S
O529 Hf513 2.209 . S
O530 Hf513 2.209 . S
O530 C516 1.281 . S
C531 O526 1.281 . S
C531 O540 1.281 . S
O532 Hf510 2.209 . S
O532 C518 1.281 . S
O533 Hf510 2.209 . S
O533 C517 1.281 1_455 S
C534 O523 1.281 . S
C534 O539 1.281 . S
O535 Hf515 2.209 . S
O535 C548 1.281 1_455 S
O536 Hf506 2.209 . S
O536 C549 1.281 . S
O537 C500 1.281 1_455 S
O537 Hf506 2.209 . S
O538 Hf515 2.209 . S
O538 C541 1.281 . S
O539 Hf513 2.209 1_565 S
O539 C534 1.281 . S
O540 Hf510 2.209 . S
O540 C531 1.281 . S
C541 O524 1.281 . S
C541 O538 1.281 . S
O542 Hf510 2.209 1_545 S
O542 C519 1.281 . S
O543 Hf508 2.207 1_665 S
O543 C517 1.281 . S
O544 Hf513 2.209 . S
O544 C522 1.281 . S
O545 Hf512 2.209 1_565 S
O545 C518 1.281 . S
O546 Hf512 2.209 . S
O546 C516 1.281 . S
O547 C501 1.281 . S
O547 Hf508 2.207 1_655 S
C548 O527 1.281 . S
C548 O535 1.281 1_655 S
C549 O525 1.281 . S
C549 O536 1.281 . S
C550 O578 1.281 . S
C550 O587 1.281 . S
C551 O579 1.281 . S
C551 O597 1.281 . S
O552 Hf556 2.202 . S
O552 Hf558 2.202 . S
O552 Hf560 2.202 . S
O553 Hf556 2.202 . S
O553 Hf562 2.202 . S
O553 Hf563 2.202 . S
O554 Hf556 2.072 . S
O554 Hf560 2.072 . S
O554 Hf562 2.072 . S
O555 Hf556 2.072 . S
O555 Hf558 2.072 . S
O555 Hf563 2.072 . S
Hf556 O552 2.202 . S
Hf556 O553 2.202 . S
Hf556 O554 2.072 . S
Hf556 O555 2.072 . S
Hf556 O570 2.209 . S
Hf556 O571 2.209 . S
Hf556 O586 2.209 . S
Hf556 O587 2.209 . S
O557 Hf558 2.072 . S
O557 Hf560 2.072 . S
O557 Hf565 2.072 . S
Hf558 O552 2.202 . S
Hf558 O555 2.072 . S
Hf558 O557 2.072 . S
Hf558 O561 2.202 . S
Hf558 O577 2.209 . S
Hf558 O578 2.209 . S
Hf558 O593 2.209 . S
Hf558 O597 2.209 . S
O559 Hf560 2.202 . S
O559 Hf562 2.202 . S
O559 Hf565 2.202 . S
Hf560 O552 2.202 . S
Hf560 O554 2.072 . S
Hf560 O557 2.072 . S
Hf560 O559 2.202 . S
Hf560 O582 2.209 . S
Hf560 O583 2.209 . S
Hf560 O590 2.209 . S
Hf560 O592 2.209 . S
O561 Hf558 2.202 . S
O561 Hf563 2.202 . S
O561 Hf565 2.202 . S
Hf562 O553 2.202 . S
Hf562 O554 2.072 . S
Hf562 O559 2.202 . S
Hf562 O564 2.072 . S
Hf562 O574 2.209 . S
Hf562 O575 2.209 . S
Hf562 O595 2.209 . S
Hf562 O596 2.209 . S
Hf563 O553 2.202 . S
Hf563 O555 2.072 . S
Hf563 O561 2.202 . S
Hf563 O564 2.072 . S
Hf563 O579 2.209 . S
Hf563 O580 2.209 . S
Hf563 O589 2.209 . S
Hf563 O594 2.209 . S
O564 Hf562 2.072 . S
O564 Hf563 2.072 . S
O564 Hf565 2.072 . S
Hf565 O557 2.072 . S
Hf565 O559 2.202 . S
Hf565 O561 2.202 . S
Hf565 O564 2.072 . S
Hf565 O573 2.209 . S
Hf565 O576 2.209 . S
Hf565 O585 2.209 . S
Hf565 O588 2.209 . S
C566 O580 1.281 . S
C566 O596 1.281 . S
C567 O583 1.281 . S
C567 O593 1.281 . S
C568 O582 1.281 . S
C568 O595 1.281 . S
C569 O570 1.281 . S
C569 O592 1.281 . S
O570 Hf556 2.209 . S
O570 C569 1.281 . S
O571 Hf556 2.209 . S
O571 C572 1.281 . S
C572 O571 1.281 . S
C572 O594 1.281 . S
O573 Hf565 2.209 . S
O573 C584 1.281 . S
O574 Hf562 2.209 . S
O574 C591 1.281 . S
O575 Hf562 2.209 . S
O575 C599 1.281 . S
O576 Hf565 2.209 . S
O576 C581 1.281 . S
O577 Hf558 2.209 . S
O577 C598 1.281 . S
O578 C550 1.281 . S
O578 Hf558 2.209 . S
O579 C551 1.281 . S
O579 Hf563 2.209 . S
O580 Hf563 2.209 . S
O580 C566 1.281 . S
C581 O576 1.281 . S
C581 O590 1.281 . S
O582 Hf560 2.209 . S
O582 C568 1.281 . S
O583 Hf560 2.209 . S
O583 C567 1.281 . S
C584 O573 1.281 . S
C584 O589 1.281 . S
O585 Hf565 2.209 . S
O585 C598 1.281 . S
O586 Hf556 2.209 . S
O586 C599 1.281 . S
O587 C550 1.281 . S
O587 Hf556 2.209 . S
O588 Hf565 2.209 . S
O588 C591 1.281 . S
O589 Hf563 2.209 . S
O589 C584 1.281 . S
O590 Hf560 2.209 . S
O590 C581 1.281 . S
C591 O574 1.281 . S
C591 O588 1.281 . S
O592 Hf560 2.209 . S
O592 C569 1.281 . S
O593 Hf558 2.209 . S
O593 C567 1.281 . S
O594 Hf563 2.209 . S
O594 C572 1.281 . S
O595 Hf562 2.209 . S
O595 C568 1.281 . S
O596 Hf562 2.209 . S
O596 C566 1.281 . S
O597 C551 1.281 . S
O597 Hf558 2.209 . S
C598 O577 1.281 . S
C598 O585 1.281 . S
C599 O575 1.281 . S
C599 O586 1.281 . S
C222 C41 2.029 . S
C269 C67 2.029 . S
C49 C348 2.028 . S
C191 C51 2.028 . S
C399 C116 2.029 . S
C131 C400 2.031 . S
C101 C481 2.028 . S
C534 C119 2.026 . S
C31 C151 2.029 . S
C69 C217 2.031 . S
C291 C22 2.029 . S
C84 C319 2.031 . S
C149 C166 2.028 . S
C201 C141 2.027 . S
C299 C148 2.029 . S
C331 C100 2.026 . S
C249 C198 2.029 . S
C366 C199 2.029 . S
C419 C234 2.028 . S
C272 C491 2.029 . S
C391 C251 2.029 . S
C531 C351 2.029 . S
C431 C350 2.029 . S
C517 C469 2.031 . S
C472 C91 2.029 . S
C17 C519 2.027 . S
C99 C398 2.029 . S
C1 C441 2.031 . S
C349 C566 2.029 . S
C581 C150 2.029 . S
C231 C551 2.029 . S
C284 C569 2.029 . S
C401 C81 2.029 . S
C19 C467 2.028 . S
C541 C72 2.028 . S
C369 C34 2.029 . S
C599 C416 2.029 . S
C591 C451 2.029 . S
C549 C598 2.029 . S
C381 C550 2.029 . S
C499 C448 2.029 . S
C316 C449 2.028 . S
C169 C484 2.031 . S
C522 C241 2.028 . S
C341 C501 2.026 . S
C281 C301 2.029 . S
C300 C181 2.027 . S
C267 C219 2.029 . S
C134 C16 3.913 . S
C98 C117 3.915 1_554 S
C18 C122 3.913 1_545 S
C50 C118 3.911 1_554 S
C172 C518 3.913 . S
C248 C367 3.915 . S
C434 C266 3.913 . S
C318 C450 3.915 1_565 S
C184 C516 3.913 1_554 S
C368 C200 3.911 . S
C268 C422 3.913 1_554 S
C317 C498 3.911 1_565 S
C322 C218 3.913 . S
C466 C384 3.913 . S
C418 C500 3.911 1_455 S
C250 C168 3.915 . S
C468 C372 3.913 1_655 S
C548 C417 3.915 1_655 S
C584 C66 3.913 1_545 S
C48 C567 3.911 . S
C68 C572 3.913 . S
C568 C0 3.915 . S
C216 C334 3.913 1_455 S
C167 C298 3.911 . S
