# Generated by pormake.
# Topology son, (6)-cn, num edge types: 1
# Building blocks:
#     Node 0, Type 0, BuildingBlock: JUFBIX_clean_sbu_0, # of connection points: 6
#     Node 1, Type 0, BuildingBlock: JUFBIX_clean_sbu_0, # of connection points: 6
#     Node 2, Type 0, BuildingBlock: JUFBIX_clean_sbu_0, # of connection points: 6
#     Node 3, Type 0, BuildingBlock: JUFBIX_clean_sbu_0, # of connection points: 6
#     Node 4, Type 0, BuildingBlock: JUFBIX_clean_sbu_0, # of connection points: 6
#     Node 5, Type 0, BuildingBlock: JUFBIX_clean_sbu_0, # of connection points: 6
#     Node 6, Type 0, BuildingBlock: JUFBIX_clean_sbu_0, # of connection points: 6
#     Node 7, Type 0, BuildingBlock: JUFBIX_clean_sbu_0, # of connection points: 6
#     Node 8, Type 0, BuildingBlock: JUFBIX_clean_sbu_0, # of connection points: 6
#     Node 9, Type 0, BuildingBlock: JUFBIX_clean_sbu_0, # of connection points: 6
#     Node 10, Type 0, BuildingBlock: JUFBIX_clean_sbu_0, # of connection points: 6
#     Node 11, Type 0, BuildingBlock: JUFBIX_clean_sbu_0, # of connection points: 6
#     Node 12, Type 0, BuildingBlock: JUFBIX_clean_sbu_0, # of connection points: 6
#     Node 13, Type 0, BuildingBlock: JUFBIX_clean_sbu_0, # of connection points: 6
#     Node 14, Type 0, BuildingBlock: JUFBIX_clean_sbu_0, # of connection points: 6
#     Node 15, Type 0, BuildingBlock: JUFBIX_clean_sbu_0, # of connection points: 6
#     Node 16, Type 0, BuildingBlock: JUFBIX_clean_sbu_0, # of connection points: 6
#     Node 17, Type 0, BuildingBlock: JUFBIX_clean_sbu_0, # of connection points: 6
#     Node 18, Type 0, BuildingBlock: JUFBIX_clean_sbu_0, # of connection points: 6
#     Node 19, Type 0, BuildingBlock: JUFBIX_clean_sbu_0, # of connection points: 6
#     Node 20, Type 0, BuildingBlock: JUFBIX_clean_sbu_0, # of connection points: 6
#     Node 21, Type 0, BuildingBlock: JUFBIX_clean_sbu_0, # of connection points: 6
#     Node 22, Type 0, BuildingBlock: JUFBIX_clean_sbu_0, # of connection points: 6
#     Node 23, Type 0, BuildingBlock: JUFBIX_clean_sbu_0, # of connection points: 6
#     Node 24, Type 0, BuildingBlock: JUFBIX_clean_sbu_0, # of connection points: 6
#     Node 25, Type 0, BuildingBlock: JUFBIX_clean_sbu_0, # of connection points: 6
#     Node 26, Type 0, BuildingBlock: JUFBIX_clean_sbu_0, # of connection points: 6
#     Node 27, Type 0, BuildingBlock: JUFBIX_clean_sbu_0, # of connection points: 6
#     Node 28, Type 0, BuildingBlock: JUFBIX_clean_sbu_0, # of connection points: 6
#     Node 29, Type 0, BuildingBlock: JUFBIX_clean_sbu_0, # of connection points: 6
#     Node 30, Type 0, BuildingBlock: JUFBIX_clean_sbu_0, # of connection points: 6
#     Node 31, Type 0, BuildingBlock: JUFBIX_clean_sbu_0, # of connection points: 6
#     Edge 32, Type (0, 0), BuildingBlock: XIVTED_clean_linker_0, # of connection points: 2
#     Edge 33, Type (0, 0), BuildingBlock: XIVTED_clean_linker_0, # of connection points: 2
#     Edge 34, Type (0, 0), BuildingBlock: XIVTED_clean_linker_0, # of connection points: 2
#     Edge 35, Type (0, 0), BuildingBlock: XIVTED_clean_linker_0, # of connection points: 2
#     Edge 36, Type (0, 0), BuildingBlock: XIVTED_clean_linker_0, # of connection points: 2
#     Edge 37, Type (0, 0), BuildingBlock: XIVTED_clean_linker_0, # of connection points: 2
#     Edge 38, Type (0, 0), BuildingBlock: XIVTED_clean_linker_0, # of connection points: 2
#     Edge 39, Type (0, 0), BuildingBlock: XIVTED_clean_linker_0, # of connection points: 2
#     Edge 40, Type (0, 0), BuildingBlock: XIVTED_clean_linker_0, # of connection points: 2
#     Edge 41, Type (0, 0), BuildingBlock: XIVTED_clean_linker_0, # of connection points: 2
#     Edge 42, Type (0, 0), BuildingBlock: XIVTED_clean_linker_0, # of connection points: 2
#     Edge 43, Type (0, 0), BuildingBlock: XIVTED_clean_linker_0, # of connection points: 2
#     Edge 44, Type (0, 0), BuildingBlock: XIVTED_clean_linker_0, # of connection points: 2
#     Edge 45, Type (0, 0), BuildingBlock: XIVTED_clean_linker_0, # of connection points: 2
#     Edge 46, Type (0, 0), BuildingBlock: XIVTED_clean_linker_0, # of connection points: 2
#     Edge 47, Type (0, 0), BuildingBlock: XIVTED_clean_linker_0, # of connection points: 2
#     Edge 48, Type (0, 0), BuildingBlock: XIVTED_clean_linker_0, # of connection points: 2
#     Edge 49, Type (0, 0), BuildingBlock: XIVTED_clean_linker_0, # of connection points: 2
#     Edge 50, Type (0, 0), BuildingBlock: XIVTED_clean_linker_0, # of connection points: 2
#     Edge 51, Type (0, 0), BuildingBlock: XIVTED_clean_linker_0, # of connection points: 2
#     Edge 52, Type (0, 0), BuildingBlock: XIVTED_clean_linker_0, # of connection points: 2
#     Edge 53, Type (0, 0), BuildingBlock: XIVTED_clean_linker_0, # of connection points: 2
#     Edge 54, Type (0, 0), BuildingBlock: XIVTED_clean_linker_0, # of connection points: 2
#     Edge 55, Type (0, 0), BuildingBlock: XIVTED_clean_linker_0, # of connection points: 2
#     Edge 56, Type (0, 0), BuildingBlock: XIVTED_clean_linker_0, # of connection points: 2
#     Edge 57, Type (0, 0), BuildingBlock: XIVTED_clean_linker_0, # of connection points: 2
#     Edge 58, Type (0, 0), BuildingBlock: XIVTED_clean_linker_0, # of connection points: 2
#     Edge 59, Type (0, 0), BuildingBlock: XIVTED_clean_linker_0, # of connection points: 2
#     Edge 60, Type (0, 0), BuildingBlock: XIVTED_clean_linker_0, # of connection points: 2
#     Edge 61, Type (0, 0), BuildingBlock: XIVTED_clean_linker_0, # of connection points: 2
#     Edge 62, Type (0, 0), BuildingBlock: XIVTED_clean_linker_0, # of connection points: 2
#     Edge 63, Type (0, 0), BuildingBlock: XIVTED_clean_linker_0, # of connection points: 2
#     Edge 64, Type (0, 0), BuildingBlock: XIVTED_clean_linker_0, # of connection points: 2
#     Edge 65, Type (0, 0), BuildingBlock: XIVTED_clean_linker_0, # of connection points: 2
#     Edge 66, Type (0, 0), BuildingBlock: XIVTED_clean_linker_0, # of connection points: 2
#     Edge 67, Type (0, 0), BuildingBlock: XIVTED_clean_linker_0, # of connection points: 2
#     Edge 68, Type (0, 0), BuildingBlock: XIVTED_clean_linker_0, # of connection points: 2
#     Edge 69, Type (0, 0), BuildingBlock: XIVTED_clean_linker_0, # of connection points: 2
#     Edge 70, Type (0, 0), BuildingBlock: XIVTED_clean_linker_0, # of connection points: 2
#     Edge 71, Type (0, 0), BuildingBlock: XIVTED_clean_linker_0, # of connection points: 2
#     Edge 72, Type (0, 0), BuildingBlock: XIVTED_clean_linker_0, # of connection points: 2
#     Edge 73, Type (0, 0), BuildingBlock: XIVTED_clean_linker_0, # of connection points: 2
#     Edge 74, Type (0, 0), BuildingBlock: XIVTED_clean_linker_0, # of connection points: 2
#     Edge 75, Type (0, 0), BuildingBlock: XIVTED_clean_linker_0, # of connection points: 2
#     Edge 76, Type (0, 0), BuildingBlock: XIVTED_clean_linker_0, # of connection points: 2
#     Edge 77, Type (0, 0), BuildingBlock: XIVTED_clean_linker_0, # of connection points: 2
#     Edge 78, Type (0, 0), BuildingBlock: XIVTED_clean_linker_0, # of connection points: 2
#     Edge 79, Type (0, 0), BuildingBlock: XIVTED_clean_linker_0, # of connection points: 2
#     Edge 80, Type (0, 0), BuildingBlock: XIVTED_clean_linker_0, # of connection points: 2
#     Edge 81, Type (0, 0), BuildingBlock: XIVTED_clean_linker_0, # of connection points: 2
#     Edge 82, Type (0, 0), BuildingBlock: XIVTED_clean_linker_0, # of connection points: 2
#     Edge 83, Type (0, 0), BuildingBlock: XIVTED_clean_linker_0, # of connection points: 2
#     Edge 84, Type (0, 0), BuildingBlock: XIVTED_clean_linker_0, # of connection points: 2
#     Edge 85, Type (0, 0), BuildingBlock: XIVTED_clean_linker_0, # of connection points: 2
#     Edge 86, Type (0, 0), BuildingBlock: XIVTED_clean_linker_0, # of connection points: 2
#     Edge 87, Type (0, 0), BuildingBlock: XIVTED_clean_linker_0, # of connection points: 2
#     Edge 88, Type (0, 0), BuildingBlock: XIVTED_clean_linker_0, # of connection points: 2
#     Edge 89, Type (0, 0), BuildingBlock: XIVTED_clean_linker_0, # of connection points: 2
#     Edge 90, Type (0, 0), BuildingBlock: XIVTED_clean_linker_0, # of connection points: 2
#     Edge 91, Type (0, 0), BuildingBlock: XIVTED_clean_linker_0, # of connection points: 2
#     Edge 92, Type (0, 0), BuildingBlock: XIVTED_clean_linker_0, # of connection points: 2
#     Edge 93, Type (0, 0), BuildingBlock: XIVTED_clean_linker_0, # of connection points: 2
#     Edge 94, Type (0, 0), BuildingBlock: XIVTED_clean_linker_0, # of connection points: 2
#     Edge 95, Type (0, 0), BuildingBlock: XIVTED_clean_linker_0, # of connection points: 2
#     Edge 96, Type (0, 0), BuildingBlock: XIVTED_clean_linker_0, # of connection points: 2
#     Edge 97, Type (0, 0), BuildingBlock: XIVTED_clean_linker_0, # of connection points: 2
#     Edge 98, Type (0, 0), BuildingBlock: XIVTED_clean_linker_0, # of connection points: 2
#     Edge 99, Type (0, 0), BuildingBlock: XIVTED_clean_linker_0, # of connection points: 2
#     Edge 100, Type (0, 0), BuildingBlock: XIVTED_clean_linker_0, # of connection points: 2
#     Edge 101, Type (0, 0), BuildingBlock: XIVTED_clean_linker_0, # of connection points: 2
#     Edge 102, Type (0, 0), BuildingBlock: XIVTED_clean_linker_0, # of connection points: 2
#     Edge 103, Type (0, 0), BuildingBlock: XIVTED_clean_linker_0, # of connection points: 2
#     Edge 104, Type (0, 0), BuildingBlock: XIVTED_clean_linker_0, # of connection points: 2
#     Edge 105, Type (0, 0), BuildingBlock: XIVTED_clean_linker_0, # of connection points: 2
#     Edge 106, Type (0, 0), BuildingBlock: XIVTED_clean_linker_0, # of connection points: 2
#     Edge 107, Type (0, 0), BuildingBlock: XIVTED_clean_linker_0, # of connection points: 2
#     Edge 108, Type (0, 0), BuildingBlock: XIVTED_clean_linker_0, # of connection points: 2
#     Edge 109, Type (0, 0), BuildingBlock: XIVTED_clean_linker_0, # of connection points: 2
#     Edge 110, Type (0, 0), BuildingBlock: XIVTED_clean_linker_0, # of connection points: 2
#     Edge 111, Type (0, 0), BuildingBlock: XIVTED_clean_linker_0, # of connection points: 2
#     Edge 112, Type (0, 0), BuildingBlock: XIVTED_clean_linker_0, # of connection points: 2
#     Edge 113, Type (0, 0), BuildingBlock: XIVTED_clean_linker_0, # of connection points: 2
#     Edge 114, Type (0, 0), BuildingBlock: XIVTED_clean_linker_0, # of connection points: 2
#     Edge 115, Type (0, 0), BuildingBlock: XIVTED_clean_linker_0, # of connection points: 2
#     Edge 116, Type (0, 0), BuildingBlock: XIVTED_clean_linker_0, # of connection points: 2
#     Edge 117, Type (0, 0), BuildingBlock: XIVTED_clean_linker_0, # of connection points: 2
#     Edge 118, Type (0, 0), BuildingBlock: XIVTED_clean_linker_0, # of connection points: 2
#     Edge 119, Type (0, 0), BuildingBlock: XIVTED_clean_linker_0, # of connection points: 2
#     Edge 120, Type (0, 0), BuildingBlock: XIVTED_clean_linker_0, # of connection points: 2
#     Edge 121, Type (0, 0), BuildingBlock: XIVTED_clean_linker_0, # of connection points: 2
#     Edge 122, Type (0, 0), BuildingBlock: XIVTED_clean_linker_0, # of connection points: 2
#     Edge 123, Type (0, 0), BuildingBlock: XIVTED_clean_linker_0, # of connection points: 2
#     Edge 124, Type (0, 0), BuildingBlock: XIVTED_clean_linker_0, # of connection points: 2
#     Edge 125, Type (0, 0), BuildingBlock: XIVTED_clean_linker_0, # of connection points: 2
#     Edge 126, Type (0, 0), BuildingBlock: XIVTED_clean_linker_0, # of connection points: 2
#     Edge 127, Type (0, 0), BuildingBlock: XIVTED_clean_linker_0, # of connection points: 2
# Relax obj value: 0.052
# Max RMSD: 0.095
# Mean RMSD: 0.095
data_MOF--net-son--node1-JUFBIX_clean_sbu_0--edge1-XIVTED_clean_linker_0
_symmetry_space_group_name_H-M    P1
_symmetry_Int_Tables_number       1
_symmetry_cell_setting            triclinic
loop_
_symmetry_equiv_pos_as_xyz
'x, y, z'
_cell_length_a     156.37117
_cell_length_b     58.296064
_cell_length_c     14.510044
_cell_angle_alpha  90.012032
_cell_angle_beta   89.998608
_cell_angle_gamma 90.031421
loop_
_atom_site_label
_atom_site_type_symbol
_atom_site_fract_x
_atom_site_fract_y
_atom_site_fract_z
_atom_type_partial_charge
Co0 Co 0.33777 0.2549 0.19097 0.0
C1 C 0.32979 0.21315 0.14589 0.0
Co2 Co 0.32329 0.25571 0.18765 0.0
C3 C 0.35632 0.25831 0.24867 0.0
C4 C 0.3542 0.24393 0.11509 0.0
N5 N 0.34998 0.25285 0.18776 0.0
N6 N 0.36429 0.25333 0.21571 0.0
C7 C 0.36285 0.24424 0.13167 0.0
H8 H 0.35512 0.26584 0.3156 0.0
H9 H 0.35116 0.23726 0.05372 0.0
C10 C 0.33126 0.29722 0.23657 0.0
N11 N 0.31109 0.25764 0.1887 0.0
C12 C 0.30508 0.25272 0.12342 0.0
C13 C 0.30651 0.26585 0.26008 0.0
N14 N 0.29695 0.25743 0.15194 0.0
C15 C 0.29794 0.26572 0.23814 0.0
C16 C 0.33052 0.24425 0.35482 0.0
O17 O 0.33825 0.28624 0.22574 0.0
O18 O 0.32414 0.28715 0.22208 0.0
O19 O 0.32352 0.24735 0.31194 0.0
O20 O 0.33763 0.24656 0.3136 0.0
O21 O 0.32281 0.22426 0.15451 0.0
H22 H 0.30924 0.27201 0.32396 0.0
H23 H 0.30665 0.24585 0.05623 0.0
O24 O 0.3369 0.22344 0.15732 0.0
O25 O 0.33753 0.2634 0.06679 0.0
O26 O 0.32345 0.26395 0.06494 0.0
C27 C 0.33054 0.26642 0.02381 0.0
H28 H 0.3677 0.23765 0.08556 0.0
H29 H 0.29286 0.27192 0.28214 0.0
Co30 Co 0.94918 1.00061 0.18806 0.0
C31 C 0.95731 0.04218 0.14306 0.0
Co32 Co 0.96365 0.99948 0.18504 0.0
C33 C 0.93064 0.99743 0.24524 0.0
C34 C 0.9328 0.01213 0.1123 0.0
N35 N 0.93699 0.00297 0.18463 0.0
N36 N 0.92269 1.0026 0.21245 0.0
C37 C 0.92414 0.01189 0.12881 0.0
H38 H 0.93183 0.98968 0.31179 0.0
H39 H 0.93586 0.01888 0.05119 0.0
C40 C 0.95549 0.95816 0.2339 0.0
N41 N 0.97585 0.99716 0.18648 0.0
C42 C 0.98192 1.0014 0.12097 0.0
C43 C 0.98035 0.98899 0.25854 0.0
N44 N 0.98998 0.99601 0.14964 0.0
C45 C 0.9889 0.98834 0.23662 0.0
C46 C 0.95644 0.01114 0.35207 0.0
O47 O 0.94857 0.96935 0.22273 0.0
O48 O 0.96266 0.96801 0.21967 0.0
O49 O 0.96343 0.00789 0.30929 0.0
O50 O 0.94932 0.00896 0.31074 0.0
O51 O 0.96426 0.03096 0.15176 0.0
H52 H 0.97756 0.98347 0.32308 0.0
H53 H 0.98041 0.00775 0.05281 0.0
O54 O 0.95017 0.032 0.15446 0.0
O55 O 0.9494 0.9921 0.06393 0.0
O56 O 0.96349 0.9912 0.06229 0.0
C57 C 0.95639 0.98891 0.02104 0.0
H58 H 0.91931 0.01864 0.08294 0.0
H59 H 0.99395 0.98264 0.28222 0.0
Co60 Co 0.33766 1.00036 0.03021 0.0
C61 C 0.32952 0.04192 0.07569 0.0
Co62 Co 0.32319 0.99917 0.03494 0.0
C63 C 0.35622 0.99684 0.97294 0.0
C64 C 0.35405 0.01233 0.1044 0.0
N65 N 0.34986 1.00277 0.03282 0.0
N66 N 0.36417 1.00217 0.00552 0.0
C67 C 0.3627 0.01196 0.0882 0.0
H68 H 0.35504 0.98867 0.90716 0.0
H69 H 0.35098 0.0194 0.16489 0.0
C70 C 0.33129 0.95785 -0.01442 0.0
N71 N 0.311 0.99681 0.03452 0.0
C72 C 0.30499 1.00135 0.10022 0.0
C73 C 0.30644 0.98844 0.96325 0.0
N74 N 0.2969 0.99598 0.07247 0.0
C75 C 0.2979 0.98797 -0.01414 0.0
C76 C 0.33026 0.01077 0.86705 0.0
O77 O 0.33824 0.96899 -0.00421 0.0
O78 O 0.32415 0.96778 0.00052 0.0
O79 O 0.32331 0.00753 0.91068 0.0
O80 O 0.33742 0.00859 0.90751 0.0
O81 O 0.32259 0.03055 0.06805 0.0
H82 H 0.30917 0.9827 0.89875 0.0
H83 H 0.30656 0.00797 0.16782 0.0
O84 O 0.33667 0.03187 0.06351 0.0
O85 O 0.33754 0.99195 0.15438 0.0
O86 O 0.32346 0.99094 0.15768 0.0
C87 C 0.3306 0.98873 0.1981 0.0
H88 H 0.36753 0.01893 0.13364 0.0
H89 H 0.29281 0.98221 0.94092 0.0
Co90 Co 0.94914 0.25486 0.02893 0.0
C91 C 0.95735 0.21343 0.07366 0.0
Co92 Co 0.96361 0.25631 0.03253 0.0
C93 C 0.93063 0.25805 0.97059 0.0
C94 C 0.9327 0.24307 0.10314 0.0
N95 N 0.93695 0.25239 0.03145 0.0
N96 N 0.92265 0.25278 0.00257 0.0
C97 C 0.92406 0.24331 0.08599 0.0
H98 H 0.93186 0.26596 0.90442 0.0
H99 H 0.93572 0.23622 0.16427 0.0
C100 C 0.95544 0.29751 0.98389 0.0
N101 N 0.9758 0.25867 0.03207 0.0
C102 C 0.98181 0.25353 0.09711 0.0
C103 C 0.98038 0.26733 0.96151 0.0
N104 N 0.98993 0.25854 0.06922 0.0
C105 C 0.98894 0.26724 0.9837 0.0
C106 C 0.95651 0.24461 0.86518 0.0
O107 O 0.94852 0.28622 -0.00536 0.0
O108 O 0.96261 0.28773 -0.00176 0.0
O109 O 0.96348 0.24798 0.90821 0.0
O110 O 0.94937 0.24663 0.90623 0.0
O111 O 0.96425 0.2249 0.0655 0.0
H112 H 0.97765 0.27369 0.89798 0.0
H113 H 0.98023 0.24626 0.1636 0.0
O114 O 0.95017 0.22337 0.0621 0.0
O115 O 0.94929 0.26325 0.15321 0.0
O116 O 0.96337 0.26452 0.15523 0.0
C117 C 0.95625 0.26661 0.19628 0.0
H118 H 0.91919 0.23645 0.13127 0.0
H119 H 0.99402 0.27372 0.94033 0.0
Co120 Co 0.71387 0.7507 0.7807 0.0
C121 C 0.70584 0.70921 0.73202 0.0
Co122 Co 0.69939 0.75151 0.77772 0.0
C123 C 0.73213 0.75276 0.84445 0.0
C124 C 0.73057 0.74052 0.7066 0.0
N125 N 0.72606 0.74857 0.77887 0.0
N126 N 0.74019 0.74747 0.81565 0.0
C127 C 0.73913 0.7399 0.7285 0.0
H128 H 0.73062 0.759 0.91279 0.0
H129 H 0.72779 0.73504 0.64199 0.0
C130 C 0.70744 0.79325 0.82256 0.0
N131 N 0.6872 0.75366 0.78171 0.0
C132 C 0.68081 0.74782 0.72198 0.0
C133 C 0.68304 0.76294 0.85404 0.0
N134 N 0.67287 0.75294 0.75535 0.0
C135 C 0.67438 0.7625 0.83841 0.0
C136 C 0.70666 0.74 0.94471 0.0
O137 O 0.71441 0.78213 0.81386 0.0
O138 O 0.70032 0.78297 0.81125 0.0
O139 O 0.69967 0.74303 0.90184 0.0
O140 O 0.71376 0.74244 0.90344 0.0
O141 O 0.69886 0.72019 0.74307 0.0
H142 H 0.68613 0.7699 0.91459 0.0
H143 H 0.68196 0.7399 0.65568 0.0
O144 O 0.71296 0.71929 0.74626 0.0
O145 O 0.7136 0.75909 0.65643 0.0
O146 O 0.69948 0.75984 0.65506 0.0
C147 C 0.70659 0.76218 0.61369 0.0
H148 H 0.74418 0.73428 0.68283 0.0
H149 H 0.66956 0.76928 0.88448 0.0
Co150 Co 0.07307 0.0062 0.78346 0.0
C151 C 0.08108 0.04771 0.73465 0.0
Co152 Co 0.08755 0.0054 0.7803 0.0
C153 C 0.0548 0.0041 0.84751 0.0
C154 C 0.05635 0.0163 0.70963 0.0
N155 N 0.06086 0.00829 0.78189 0.0
N156 N 0.04673 0.00935 0.81872 0.0
C157 C 0.04779 0.0169 0.73155 0.0
H158 H 0.05632 0.99788 0.91586 0.0
H159 H 0.05913 0.02178 0.64498 0.0
C160 C 0.07951 0.96364 0.82522 0.0
N161 N 0.09975 0.00327 0.78396 0.0
C162 C 0.10612 0.00892 0.72366 0.0
C163 C 0.10394 0.99414 0.8564 0.0
N164 N 0.11406 0.00384 0.75677 0.0
C165 C 0.11259 0.99449 0.84028 0.0
C166 C 0.0803 0.01692 0.9474 0.0
O167 O 0.07254 0.97476 0.81661 0.0
O168 O 0.08663 0.97394 0.81386 0.0
O169 O 0.08728 0.01389 0.90446 0.0
O170 O 0.0732 0.01446 0.90621 0.0
O171 O 0.08806 0.03674 0.74561 0.0
H172 H 0.10087 0.98732 0.91733 0.0
H173 H 0.10494 0.01667 0.65709 0.0
O174 O 0.07396 0.03764 0.74901 0.0
O175 O 0.07332 0.99781 0.65915 0.0
O176 O 0.08744 0.99706 0.65766 0.0
C177 C 0.08033 0.99472 0.61635 0.0
H178 H 0.04274 0.02248 0.68585 0.0
H179 H 0.11742 0.98778 0.88632 0.0
Co180 Co 0.71363 0.00742 0.93321 0.0
C181 C 0.70535 0.0485 0.9824 0.0
Co182 Co 0.69916 0.00577 0.938 0.0
C183 C 0.73183 0.00537 0.86776 0.0
C184 C 0.73036 0.0188 0.00389 0.0
N185 N 0.72581 0.01009 0.93317 0.0
N186 N 0.73992 0.01096 0.89514 0.0
C187 C 0.7389 0.0193 0.98123 0.0
H188 H 0.73028 0.99843 0.80065 0.0
H189 H 0.72762 0.02471 0.06808 0.0
C190 C 0.70745 0.96447 0.89259 0.0
N191 N 0.68697 0.00301 0.93594 0.0
C192 C 0.68063 0.00869 -0.00349 0.0
C193 C 0.68276 0.99346 0.8645 0.0
N194 N 0.67268 0.00321 0.96455 0.0
C195 C 0.67412 0.99358 0.88149 0.0
C196 C 0.70614 0.01758 0.77008 0.0
O197 O 0.71434 0.97602 0.90016 0.0
O198 O 0.70026 0.97432 0.90481 0.0
O199 O 0.69922 0.01414 0.81382 0.0
O200 O 0.71329 0.01561 0.81046 0.0
O201 O 0.69845 0.03708 0.97222 0.0
H202 H 0.68581 0.98655 0.8036 0.0
H203 H 0.68183 0.01679 0.06239 0.0
O204 O 0.71254 0.03885 0.9676 0.0
O205 O 0.71358 0.99909 0.05745 0.0
O206 O 0.69948 0.99757 0.06075 0.0
C207 C 0.70665 0.99563 0.10114 0.0
H208 H 0.74398 0.02529 0.02583 0.0
H209 H 0.66927 0.98654 0.83634 0.0
Co210 Co 0.07327 0.74943 0.93508 0.0
C211 C 0.08152 0.70833 0.98447 0.0
Co212 Co 0.08774 0.75102 0.93988 0.0
C213 C 0.05508 0.75138 0.86932 0.0
C214 C 0.05653 0.73826 0.00595 0.0
N215 N 0.06109 0.74682 0.935 0.0
N216 N 0.04698 0.74585 0.89677 0.0
C217 C 0.04799 0.73772 0.98318 0.0
H218 H 0.05664 0.75815 0.80197 0.0
H219 H 0.05926 0.73249 0.07038 0.0
C220 C 0.07948 0.79237 0.89443 0.0
N221 N 0.09992 0.75369 0.93792 0.0
C222 C 0.10624 0.74788 -0.0015 0.0
C223 C 0.10416 0.76325 0.86669 0.0
N224 N 0.11421 0.75331 0.96678 0.0
C225 C 0.1128 0.76303 0.88385 0.0
C226 C 0.08076 0.7392 0.77194 0.0
O227 O 0.07259 0.78084 0.90197 0.0
O228 O 0.08666 0.78248 0.90665 0.0
O229 O 0.08768 0.74263 0.81569 0.0
O230 O 0.07361 0.74121 0.81233 0.0
O231 O 0.08842 0.7197 0.97418 0.0
H232 H 0.10113 0.77024 0.80583 0.0
H233 H 0.10502 0.73974 0.06421 0.0
O234 O 0.07433 0.71801 0.96957 0.0
O235 O 0.07332 0.75779 0.05933 0.0
O236 O 0.08743 0.75924 0.06262 0.0
C237 C 0.08026 0.76121 0.10303 0.0
H238 H 0.04291 0.73183 0.0279 0.0
H239 H 0.11766 0.77006 0.83889 0.0
Co240 Co 0.33773 0.7545 0.69194 0.0
C241 C 0.32951 0.71309 0.64662 0.0
Co242 Co 0.32327 0.75597 0.6874 0.0
C243 C 0.35622 0.75758 0.75055 0.0
C244 C 0.35416 0.74256 0.61802 0.0
N245 N 0.34991 0.75193 0.68961 0.0
N246 N 0.36419 0.75226 0.71874 0.0
C247 C 0.36279 0.74276 0.63533 0.0
H248 H 0.35499 0.76553 0.81663 0.0
H249 H 0.35114 0.7357 0.55685 0.0
C250 C 0.3315 0.79714 0.73659 0.0
N251 N 0.31109 0.75845 0.68797 0.0
C252 C 0.30503 0.75337 0.62347 0.0
C253 C 0.30658 0.76715 0.75896 0.0
N254 N 0.29694 0.75842 0.65224 0.0
C255 C 0.29801 0.76712 0.73764 0.0
C256 C 0.33031 0.74426 0.85521 0.0
O257 O 0.3384 0.7858 0.72625 0.0
O258 O 0.32432 0.78741 0.7218 0.0
O259 O 0.32336 0.74763 0.81162 0.0
O260 O 0.33747 0.74627 0.81468 0.0
O261 O 0.3226 0.72454 0.65435 0.0
H262 H 0.30937 0.77349 0.82228 0.0
H263 H 0.30653 0.74606 0.55683 0.0
O264 O 0.33668 0.72305 0.65868 0.0
O265 O 0.33763 0.7629 0.56778 0.0
O266 O 0.32355 0.76417 0.56464 0.0
C267 C 0.3307 0.76625 0.52415 0.0
H268 H 0.36766 0.73585 0.59018 0.0
H269 H 0.29297 0.77361 0.78152 0.0
Co270 Co 0.94951 0.50076 0.69004 0.0
C271 C 0.9576 0.54238 0.64534 0.0
Co272 Co 0.96398 0.49966 0.68668 0.0
C273 C 0.93101 0.49741 0.74801 0.0
C274 C 0.93308 0.51212 0.61497 0.0
N275 N 0.93732 0.50299 0.68705 0.0
N276 N 0.92303 0.50254 0.71573 0.0
C277 C 0.92444 0.51184 0.632 0.0
H278 H 0.93224 0.48968 0.81452 0.0
H279 H 0.93611 0.51891 0.55371 0.0
C280 C 0.95592 0.45828 0.73531 0.0
N281 N 0.97616 0.49755 0.68752 0.0
C282 C 0.98216 0.50252 0.62216 0.0
C283 C 0.98076 0.4892 0.75857 0.0
N284 N 0.99029 0.4977 0.6503 0.0
C285 C 0.98932 0.48931 0.73634 0.0
C286 C 0.9568 0.51122 0.85392 0.0
O287 O 0.94896 0.46938 0.72449 0.0
O288 O 0.96306 0.46824 0.72097 0.0
O289 O 0.9638 0.508 0.81099 0.0
O290 O 0.94968 0.50903 0.81274 0.0
O291 O 0.96454 0.53109 0.65367 0.0
H292 H 0.97803 0.483 0.82242 0.0
H293 H 0.98058 0.5095 0.55522 0.0
O294 O 0.95045 0.53225 0.65677 0.0
O295 O 0.94971 0.49233 0.56582 0.0
O296 O 0.96379 0.49143 0.56396 0.0
C297 C 0.95668 0.48915 0.52282 0.0
H298 H 0.91957 0.51858 0.58645 0.0
H299 H 0.99441 0.48303 0.78001 0.0
Co300 Co 0.33796 0.50026 0.533 0.0
C301 C 0.32988 0.54184 0.57782 0.0
Co302 Co 0.32349 0.49913 0.53609 0.0
C303 C 0.35648 0.4969 0.47534 0.0
C304 C 0.3544 0.51163 0.60834 0.0
N305 N 0.35016 0.50251 0.5362 0.0
N306 N 0.36446 0.50202 0.50772 0.0
C307 C 0.36305 0.51133 0.59143 0.0
H308 H 0.35526 0.48917 0.40883 0.0
H309 H 0.35137 0.51842 0.66958 0.0
C310 C 0.33159 0.45778 0.48739 0.0
N311 N 0.31129 0.49698 0.53474 0.0
C312 C 0.30521 0.5021 0.59913 0.0
C313 C 0.30677 0.48847 0.46339 0.0
N314 N 0.29711 0.49725 0.56997 0.0
C315 C 0.29819 0.48865 0.48439 0.0
C316 C 0.3307 0.51073 0.36903 0.0
O317 O 0.33852 0.46896 0.49844 0.0
O318 O 0.32442 0.46766 0.50164 0.0
O319 O 0.3237 0.50748 0.41184 0.0
O320 O 0.33782 0.50856 0.41031 0.0
O321 O 0.32293 0.53059 0.5692 0.0
H322 H 0.30956 0.48215 0.40007 0.0
H323 H 0.30672 0.50926 0.66602 0.0
O324 O 0.33702 0.53169 0.56648 0.0
O325 O 0.33773 0.4918 0.65716 0.0
O326 O 0.32365 0.4909 0.65882 0.0
C327 C 0.33075 0.48861 0.70005 0.0
H328 H 0.36791 0.51806 0.63708 0.0
H329 H 0.29314 0.4823 0.44018 0.0
Co330 Co 0.94917 0.75537 0.53126 0.0
C331 C 0.95718 0.71364 0.57625 0.0
Co332 Co 0.96364 0.75624 0.53459 0.0
C333 C 0.93061 0.7589 0.47409 0.0
C334 C 0.93275 0.74413 0.60691 0.0
N335 N 0.93696 0.75325 0.53455 0.0
N336 N 0.92265 0.75384 0.50705 0.0
C337 C 0.9241 0.7445 0.59061 0.0
H338 H 0.9318 0.76664 0.40754 0.0
H339 H 0.93581 0.73731 0.66792 0.0
C340 C 0.95566 0.79772 0.4857 0.0
N341 N 0.97584 0.75829 0.53352 0.0
C342 C 0.98186 0.75383 0.59932 0.0
C343 C 0.98041 0.76643 0.46189 0.0
N344 N 0.98996 0.75903 0.5713 0.0
C345 C 0.98896 0.76684 0.4844 0.0
C346 C 0.95642 0.74474 0.3674 0.0
O347 O 0.94867 0.78672 0.49656 0.0
O348 O 0.96277 0.78766 0.50016 0.0
O349 O 0.96342 0.74786 0.41028 0.0
O350 O 0.9493 0.74704 0.40862 0.0
O351 O 0.96415 0.72481 0.56772 0.0
H352 H 0.97769 0.77208 0.39726 0.0
H353 H 0.98028 0.74743 0.66723 0.0
O354 O 0.95006 0.72389 0.56481 0.0
O355 O 0.9494 0.76386 0.65544 0.0
O356 O 0.96348 0.76449 0.65732 0.0
C357 C 0.95638 0.76691 0.69845 0.0
H358 H 0.91925 0.7378 0.63656 0.0
H359 H 0.99406 0.77244 0.43924 0.0
Co360 Co 0.71354 0.25105 0.27616 0.0
C361 C 0.70544 0.20976 0.226 0.0
Co362 Co 0.69905 0.25224 0.27067 0.0
C363 C 0.73177 0.25292 0.34251 0.0
C364 C 0.7303 0.24029 0.20512 0.0
N365 N 0.72575 0.24865 0.27652 0.0
N366 N 0.73986 0.24738 0.31476 0.0
C367 C 0.73883 0.23957 0.22789 0.0
H368 H 0.73023 0.25941 0.41036 0.0
H369 H 0.72756 0.2347 0.14045 0.0
C370 C 0.70718 0.29371 0.31738 0.0
N371 N 0.68682 0.25476 0.27209 0.0
C372 C 0.68057 0.25091 0.20812 0.0
C373 C 0.6825 0.26231 0.34658 0.0
N374 N 0.67257 0.25548 0.24108 0.0
C375 C 0.67388 0.26266 0.32821 0.0
C376 C 0.70605 0.24045 0.4389 0.0
O377 O 0.71412 0.28244 0.30944 0.0
O378 O 0.70003 0.28362 0.30491 0.0
O379 O 0.69912 0.24362 0.39489 0.0
O380 O 0.71321 0.24281 0.39883 0.0
O381 O 0.69848 0.22092 0.23549 0.0
H382 H 0.68544 0.26763 0.41057 0.0
H383 H 0.68185 0.2448 0.13904 0.0
O384 O 0.71257 0.21966 0.24165 0.0
O385 O 0.71349 0.25943 0.1518 0.0
O386 O 0.69939 0.26066 0.14816 0.0
C387 C 0.70656 0.26274 0.10791 0.0
H388 H 0.74391 0.23373 0.18294 0.0
H389 H 0.66895 0.26836 0.37529 0.0
Co390 Co 0.0734 0.50615 0.28283 0.0
C391 C 0.08137 0.54766 0.234 0.0
Co392 Co 0.08788 0.50531 0.27941 0.0
C393 C 0.05522 0.50315 0.34754 0.0
C394 C 0.05661 0.51635 0.21093 0.0
N395 N 0.06121 0.5081 0.28207 0.0
N396 N 0.04709 0.50787 0.31938 0.0
C397 C 0.04805 0.5162 0.2332 0.0
H398 H 0.05682 0.49625 0.4146 0.0
H399 H 0.05932 0.52252 0.14699 0.0
C400 C 0.07988 0.46357 0.32438 0.0
N401 N 0.10008 0.50324 0.28222 0.0
C402 C 0.10637 0.50869 0.2208 0.0
C403 C 0.10435 0.49435 0.35459 0.0
N404 N 0.11436 0.50371 0.25308 0.0
C405 C 0.11299 0.49465 0.33728 0.0
C406 C 0.08069 0.51682 0.44665 0.0
O407 O 0.07292 0.47471 0.31588 0.0
O408 O 0.087 0.47383 0.31294 0.0
O409 O 0.08767 0.51378 0.40362 0.0
O410 O 0.07358 0.51439 0.40555 0.0
O411 O 0.08836 0.53667 0.24475 0.0
H412 H 0.10135 0.48769 0.41621 0.0
H413 H 0.10512 0.51619 0.15395 0.0
O414 O 0.07426 0.53758 0.24849 0.0
O415 O 0.0736 0.49781 0.15852 0.0
O416 O 0.08771 0.49698 0.15674 0.0
C417 C 0.08059 0.49468 0.11558 0.0
H418 H 0.04295 0.5224 0.18947 0.0
H419 H 0.11787 0.48806 0.38298 0.0
Co420 Co 0.71394 0.5076 0.43213 0.0
C421 C 0.70568 0.5487 0.48146 0.0
Co422 Co 0.69949 0.50609 0.43637 0.0
C423 C 0.73219 0.50581 0.36798 0.0
C424 C 0.73059 0.51881 0.50466 0.0
N425 N 0.72611 0.51024 0.43311 0.0
N426 N 0.74024 0.51145 0.39637 0.0
C427 C 0.73914 0.5195 0.48278 0.0
H428 H 0.7307 0.4991 0.30031 0.0
H429 H 0.72779 0.52452 0.56884 0.0
C430 C 0.70774 0.46476 0.39081 0.0
N431 N 0.68733 0.5034 0.43368 0.0
C432 C 0.68101 0.50894 0.49468 0.0
C433 C 0.6831 0.49401 0.36201 0.0
N434 N 0.67305 0.50352 0.46286 0.0
C435 C 0.67446 0.49408 0.37936 0.0
C436 C 0.70654 0.51792 0.26874 0.0
O437 O 0.71465 0.47621 0.39883 0.0
O438 O 0.70057 0.4747 0.40286 0.0
O439 O 0.6996 0.51455 0.3123 0.0
O440 O 0.71368 0.51585 0.30934 0.0
O441 O 0.69878 0.53735 0.47091 0.0
H442 H 0.68613 0.48722 0.3008 0.0
H443 H 0.68224 0.51686 0.56084 0.0
O444 O 0.71287 0.539 0.46675 0.0
O445 O 0.71383 0.49919 0.55631 0.0
O446 O 0.69973 0.4978 0.55909 0.0
C447 C 0.70688 0.49578 0.59975 0.0
H448 H 0.74417 0.52545 0.52803 0.0
H449 H 0.6696 0.48712 0.3342 0.0
Co450 Co 0.07314 0.24949 0.43494 0.0
C451 C 0.08128 0.20825 0.4837 0.0
Co452 Co 0.0876 0.25084 0.43839 0.0
C453 C 0.05494 0.25234 0.37038 0.0
C454 C 0.05636 0.23862 0.50609 0.0
N455 N 0.06095 0.24722 0.43545 0.0
N456 N 0.04682 0.24739 0.39832 0.0
C457 C 0.0478 0.23873 0.48392 0.0
H458 H 0.05652 0.25957 0.30381 0.0
H459 H 0.05909 0.23227 0.56966 0.0
C460 C 0.07946 0.29231 0.39359 0.0
N461 N 0.09979 0.25322 0.43584 0.0
C462 C 0.10609 0.24761 0.49697 0.0
C463 C 0.10405 0.26244 0.36408 0.0
N464 N 0.11407 0.25281 0.46512 0.0
C465 C 0.11269 0.26219 0.38147 0.0
C466 C 0.08048 0.23911 0.27113 0.0
O467 O 0.07254 0.28093 0.40187 0.0
O468 O 0.08662 0.28228 0.40511 0.0
O469 O 0.08745 0.24241 0.31416 0.0
O470 O 0.07337 0.24126 0.31222 0.0
O471 O 0.0882 0.21952 0.47279 0.0
H472 H 0.10105 0.26925 0.30277 0.0
H473 H 0.10483 0.2398 0.56327 0.0
O474 O 0.0741 0.21804 0.46936 0.0
O475 O 0.07327 0.25783 0.55923 0.0
O476 O 0.08739 0.2591 0.5611 0.0
C477 C 0.08026 0.26117 0.60222 0.0
H478 H 0.04272 0.23229 0.52735 0.0
H479 H 0.11757 0.269 0.33622 0.0
Co480 Co 0.83735 0.25545 0.68956 0.0
C481 C 0.82908 0.2141 0.64407 0.0
Co482 Co 0.82288 0.25702 0.68467 0.0
C483 C 0.85586 0.2584 0.74859 0.0
C484 C 0.85378 0.24329 0.61625 0.0
N485 N 0.84954 0.25275 0.68769 0.0
N486 N 0.86383 0.25299 0.71686 0.0
C487 C 0.86242 0.24344 0.63358 0.0
H488 H 0.85464 0.26641 0.81456 0.0
H489 H 0.85076 0.23643 0.55513 0.0
C490 C 0.83116 0.29813 0.73408 0.0
N491 N 0.81068 0.25969 0.68463 0.0
C492 C 0.80462 0.25533 0.61905 0.0
C493 C 0.80617 0.26824 0.75592 0.0
N494 N 0.79656 0.261 0.64694 0.0
C495 C 0.79762 0.26899 0.73349 0.0
C496 C 0.82986 0.24526 0.85265 0.0
O497 O 0.83805 0.28673 0.72385 0.0
O498 O 0.82396 0.28847 0.71916 0.0
O499 O 0.82292 0.24867 0.80894 0.0
O500 O 0.83703 0.24723 0.81227 0.0
O501 O 0.82218 0.22557 0.65158 0.0
H502 H 0.80894 0.27391 0.82033 0.0
H503 H 0.80614 0.24864 0.55142 0.0
O504 O 0.83626 0.22403 0.6563 0.0
O505 O 0.8373 0.26384 0.56538 0.0
O506 O 0.82322 0.26521 0.56193 0.0
C507 C 0.83038 0.26724 0.5216 0.0
H508 H 0.86728 0.23647 0.58849 0.0
H509 H 0.79258 0.27495 0.77849 0.0
Co510 Co 0.44924 0.99922 0.69014 0.0
C511 C 0.45724 0.04099 0.64453 0.0
Co512 Co 0.46371 0.99843 0.68552 0.0
C513 C 0.43068 0.99583 0.74781 0.0
C514 C 0.43284 0.01052 0.61489 0.0
N515 N 0.43704 1.0014 0.6873 0.0
N516 N 0.42273 1.00094 0.71481 0.0
C517 C 0.42419 0.01023 0.6312 0.0
H518 H 0.43186 0.9881 0.81443 0.0
H519 H 0.4359 0.01729 0.55381 0.0
C520 C 0.45574 0.95691 0.73517 0.0
N521 N 0.47591 0.99634 0.68604 0.0
C522 C 0.48192 1.00066 0.62003 0.0
C523 C 0.48048 0.98827 0.75781 0.0
N524 N 0.49002 0.99542 0.64808 0.0
C525 C 0.48902 0.98776 0.73519 0.0
C526 C 0.45659 0.0099 0.85334 0.0
O527 O 0.44874 0.96788 0.72488 0.0
O528 O 0.46284 0.96699 0.72004 0.0
O529 O 0.46356 0.00681 0.80978 0.0
O530 O 0.44945 0.00756 0.81281 0.0
O531 O 0.46422 0.02987 0.6524 0.0
H532 H 0.47775 0.98273 0.8226 0.0
H533 H 0.48036 0.00696 0.55196 0.0
O534 O 0.45014 0.03069 0.65653 0.0
O535 O 0.44941 0.99072 0.566 0.0
O536 O 0.46349 0.99018 0.56275 0.0
C537 C 0.45635 0.98773 0.52229 0.0
H538 H 0.41935 0.01694 0.58521 0.0
H539 H 0.49411 0.98217 0.78038 0.0
Co540 Co 0.8378 1.00133 0.53161 0.0
C541 C 0.82962 0.04281 0.57646 0.0
Co542 Co 0.82333 1.00001 0.53482 0.0
C543 C 0.85633 0.99803 0.47434 0.0
C544 C 0.85418 0.01321 0.60645 0.0
N545 N 0.84998 0.0038 0.53465 0.0
N546 N 0.86428 0.00332 0.50681 0.0
C547 C 0.86283 0.01292 0.58992 0.0
H548 H 0.85514 0.99002 0.40828 0.0
H549 H 0.85113 0.02014 0.66725 0.0
C550 C 0.83152 0.95878 0.48605 0.0
N551 N 0.81114 0.99761 0.53393 0.0
C552 C 0.80511 1.00226 0.59936 0.0
C553 C 0.80659 0.98911 0.4628 0.0
N554 N 0.79702 0.99683 0.57161 0.0
C555 C 0.79804 0.98867 0.48525 0.0
C556 C 0.83049 0.0117 0.3677 0.0
O557 O 0.83843 0.97004 0.49709 0.0
O558 O 0.82434 0.96856 0.50032 0.0
O559 O 0.8235 0.00837 0.41056 0.0
O560 O 0.83761 0.00962 0.40893 0.0
O561 O 0.82269 0.03146 0.56795 0.0
H562 H 0.80934 0.98327 0.39853 0.0
H563 H 0.80666 0.00901 0.6668 0.0
O564 O 0.83678 0.03275 0.56505 0.0
O565 O 0.83762 0.99288 0.65575 0.0
O566 O 0.82354 0.99178 0.65758 0.0
C567 C 0.83065 0.98959 0.69873 0.0
H568 H 0.86768 0.01981 0.63541 0.0
H569 H 0.79296 0.98282 0.44038 0.0
Co570 Co 0.44921 0.25391 0.53646 0.0
C571 C 0.45734 0.21236 0.58099 0.0
Co572 Co 0.46368 0.25521 0.54055 0.0
C573 C 0.43068 0.2574 0.47816 0.0
C574 C 0.43278 0.24198 0.60986 0.0
N575 N 0.43701 0.25151 0.53851 0.0
N576 N 0.42271 0.25207 0.51023 0.0
C577 C 0.42413 0.24232 0.59307 0.0
H578 H 0.43189 0.26553 0.41239 0.0
H579 H 0.43581 0.23493 0.67056 0.0
C580 C 0.45557 0.29652 0.49182 0.0
N581 N 0.47586 0.25741 0.54105 0.0
C582 C 0.48184 0.25136 0.60521 0.0
C583 C 0.48048 0.2669 0.47259 0.0
N584 N 0.48998 0.25664 0.57887 0.0
C585 C 0.48903 0.26646 0.49521 0.0
C586 C 0.45663 0.24367 0.37291 0.0
O587 O 0.44863 0.28528 0.50229 0.0
O588 O 0.46273 0.28669 0.50648 0.0
O589 O 0.4636 0.24698 0.41616 0.0
O590 O 0.44949 0.24572 0.41375 0.0
O591 O 0.46425 0.22378 0.57317 0.0
H592 H 0.47778 0.27405 0.41027 0.0
H593 H 0.48022 0.24325 0.66997 0.0
O594 O 0.45018 0.22239 0.56942 0.0
O595 O 0.44931 0.26225 0.66078 0.0
O596 O 0.46339 0.26334 0.66324 0.0
C597 C 0.45627 0.26553 0.70406 0.0
H598 H 0.41928 0.23535 0.63822 0.0
H599 H 0.49413 0.27345 0.45335 0.0
Co600 Co 0.21399 0.74984 0.28287 0.0
C601 C 0.20595 0.70843 0.23354 0.0
Co602 Co 0.19952 0.75088 0.2782 0.0
C603 C 0.23224 0.75273 0.34679 0.0
C604 C 0.23071 0.73918 0.21087 0.0
N605 N 0.22618 0.74767 0.28214 0.0
N606 N 0.24034 0.74785 0.31785 0.0
C607 C 0.23928 0.7393 0.23217 0.0
H608 H 0.23072 0.75986 0.41369 0.0
H609 H 0.22793 0.73289 0.14742 0.0
C610 C 0.2076 0.79252 0.32369 0.0
N611 N 0.18732 0.75313 0.28074 0.0
C612 C 0.18101 0.74757 0.21967 0.0
C613 C 0.18307 0.76222 0.35286 0.0
N614 N 0.17303 0.75267 0.25193 0.0
C615 C 0.17443 0.76194 0.33576 0.0
C616 C 0.20661 0.73931 0.44605 0.0
O617 O 0.21454 0.78124 0.31592 0.0
O618 O 0.20046 0.78239 0.31162 0.0
O619 O 0.19967 0.74244 0.40237 0.0
O620 O 0.21375 0.74163 0.4056 0.0
O621 O 0.19898 0.7195 0.24368 0.0
H622 H 0.18609 0.76897 0.41424 0.0
H623 H 0.18225 0.73987 0.15312 0.0
O624 O 0.21308 0.71843 0.24854 0.0
O625 O 0.21385 0.75819 0.15861 0.0
O626 O 0.19974 0.75914 0.15551 0.0
C627 C 0.2069 0.76136 0.11501 0.0
H628 H 0.24434 0.73295 0.1881 0.0
H629 H 0.16956 0.76864 0.38133 0.0
Co630 Co 0.57277 0.0061 0.27523 0.0
C631 C 0.58096 0.04741 0.22664 0.0
Co632 Co 0.58724 0.0046 0.27207 0.0
C633 C 0.55456 0.00411 0.34029 0.0
C634 C 0.55604 0.01669 0.20285 0.0
N635 N 0.56059 0.00844 0.27442 0.0
N636 N 0.54648 0.0095 0.31237 0.0
C637 C 0.5475 0.0173 0.22546 0.0
H638 H 0.55612 0.99766 0.40819 0.0
H639 H 0.55878 0.02229 0.13821 0.0
C640 C 0.57905 0.96305 0.31691 0.0
N641 N 0.59943 1.00223 0.27508 0.0
C642 C 0.60577 0.00797 0.21462 0.0
C643 C 0.60365 0.99292 0.34695 0.0
N644 N 0.61374 1.00276 0.24702 0.0
C645 C 0.6123 0.99324 0.3303 0.0
C646 C 0.58009 0.01641 0.43919 0.0
O647 O 0.57215 0.97452 0.30852 0.0
O648 O 0.58623 0.97306 0.30534 0.0
O649 O 0.58706 0.013 0.39626 0.0
O650 O 0.57298 0.01435 0.39799 0.0
O651 O 0.58785 0.036 0.23775 0.0
H652 H 0.60061 0.98601 0.40787 0.0
H653 H 0.60457 0.01589 0.14845 0.0
O654 O 0.57376 0.0377 0.24063 0.0
O655 O 0.57294 0.99773 0.15096 0.0
O656 O 0.58705 0.99637 0.14937 0.0
C657 C 0.57993 0.99434 0.10812 0.0
H658 H 0.54242 0.02303 0.18039 0.0
H659 H 0.61715 0.9864 0.37581 0.0
Co660 Co 0.21358 0.00634 0.43537 0.0
C661 C 0.20558 0.04779 0.48501 0.0
Co662 Co 0.19911 0.00544 0.44001 0.0
C663 C 0.23178 0.00401 0.36999 0.0
C664 C 0.23035 0.01671 0.5073 0.0
N665 N 0.22577 0.0085 0.43584 0.0
N666 N 0.23988 0.00926 0.39783 0.0
C667 C 0.23889 0.01714 0.48465 0.0
H668 H 0.2302 0.99753 0.3022 0.0
H669 H 0.22763 0.02239 0.57193 0.0
C670 C 0.20713 0.96374 0.39424 0.0
N671 N 0.1869 0.00321 0.43736 0.0
C672 C 0.18055 0.00893 0.49774 0.0
C673 C 0.18269 0.99395 0.36527 0.0
N674 N 0.17259 0.00376 0.46499 0.0
C675 C 0.17404 0.99429 0.38166 0.0
C676 C 0.2062 0.01699 0.27219 0.0
O677 O 0.2141 0.97493 0.40216 0.0
O678 O 0.20001 0.97396 0.40636 0.0
O679 O 0.19926 0.01392 0.31589 0.0
O680 O 0.21334 0.01459 0.31262 0.0
O681 O 0.1986 0.03678 0.47475 0.0
H682 H 0.18574 0.98707 0.30434 0.0
H683 H 0.18174 0.0168 0.56407 0.0
O684 O 0.2127 0.03776 0.46992 0.0
O685 O 0.21344 0.99796 0.55961 0.0
O686 O 0.19932 0.99711 0.56268 0.0
C687 C 0.20648 0.99483 0.60319 0.0
H688 H 0.24399 0.02279 0.52969 0.0
H689 H 0.1692 0.9875 0.3359 0.0
Co690 Co 0.57318 0.74878 0.44118 0.0
C691 C 0.58134 0.70735 0.49041 0.0
Co692 Co 0.58765 0.75005 0.44526 0.0
C693 C 0.55492 0.75154 0.37774 0.0
C694 C 0.55647 0.73795 0.51353 0.0
N695 N 0.56099 0.74648 0.44226 0.0
N696 N 0.54683 0.74662 0.40673 0.0
C697 C 0.54789 0.73805 0.49234 0.0
H698 H 0.55643 0.75871 0.31089 0.0
H699 H 0.55926 0.73167 0.57693 0.0
C700 C 0.57951 0.79171 0.39986 0.0
N701 N 0.59984 0.75249 0.44181 0.0
C702 C 0.60624 0.74681 0.5016 0.0
C703 C 0.60398 0.76186 0.36952 0.0
N704 N 0.61417 0.7521 0.46828 0.0
C705 C 0.61265 0.76162 0.38521 0.0
C706 C 0.58051 0.73834 0.2777 0.0
O707 O 0.57258 0.78036 0.40798 0.0
O708 O 0.58665 0.78159 0.41177 0.0
O709 O 0.58746 0.74159 0.32115 0.0
O710 O 0.57338 0.74056 0.31839 0.0
O711 O 0.58826 0.71865 0.47978 0.0
H712 H 0.60088 0.76874 0.30891 0.0
H713 H 0.60511 0.73886 0.56788 0.0
O714 O 0.57417 0.71717 0.47579 0.0
O715 O 0.57336 0.75714 0.56537 0.0
O716 O 0.58747 0.75833 0.56799 0.0
C717 C 0.58032 0.76043 0.60874 0.0
H718 H 0.54285 0.73167 0.53645 0.0
H719 H 0.61745 0.76849 0.33916 0.0
Co720 Co 0.83763 0.75578 0.18971 0.0
C721 C 0.82946 0.71424 0.14399 0.0
Co722 Co 0.82316 0.75699 0.18486 0.0
C723 C 0.85619 0.75906 0.24741 0.0
C724 C 0.85402 0.74388 0.11537 0.0
N725 N 0.84983 0.75332 0.18717 0.0
N726 N 0.86414 0.75374 0.21486 0.0
C727 C 0.86267 0.74413 0.13181 0.0
H728 H 0.85501 0.76709 0.31346 0.0
H729 H 0.85096 0.73694 0.0546 0.0
C730 C 0.83129 0.79829 0.2345 0.0
N731 N 0.81097 0.75942 0.18537 0.0
C732 C 0.80493 0.75518 0.11961 0.0
C733 C 0.80645 0.76768 0.25713 0.0
N734 N 0.79686 0.76066 0.14783 0.0
C735 C 0.79791 0.76839 0.23477 0.0
C736 C 0.83022 0.74535 0.3528 0.0
O737 O 0.83824 0.78714 0.22431 0.0
O738 O 0.82415 0.78837 0.2194 0.0
O739 O 0.82327 0.74859 0.30912 0.0
O740 O 0.83738 0.74751 0.31238 0.0
O741 O 0.82253 0.7256 0.15163 0.0
H742 H 0.80922 0.77322 0.32177 0.0
H743 H 0.80646 0.74876 0.0516 0.0
O744 O 0.83662 0.72428 0.15624 0.0
O745 O 0.83752 0.76423 0.06554 0.0
O746 O 0.82344 0.76523 0.06215 0.0
C747 C 0.83059 0.76745 0.02178 0.0
H748 H 0.8675 0.7372 0.08626 0.0
H749 H 0.79285 0.77416 0.28005 0.0
Co750 Co 0.4498 0.49965 0.19598 0.0
C751 C 0.45794 0.54121 0.15032 0.0
Co752 Co 0.46427 0.49842 0.19116 0.0
C753 C 0.43128 0.49648 0.25462 0.0
C754 C 0.43336 0.5113 0.12179 0.0
N755 N 0.4376 0.50206 0.19366 0.0
N756 N 0.4233 0.50172 0.22251 0.0
C757 C 0.42472 0.51109 0.13892 0.0
H758 H 0.4325 0.48866 0.32096 0.0
H759 H 0.43638 0.51809 0.06055 0.0
C760 C 0.45615 0.45711 0.24076 0.0
N761 N 0.47646 0.49612 0.19157 0.0
C762 C 0.48251 0.50098 0.1266 0.0
C763 C 0.481 0.48775 0.26301 0.0
N764 N 0.49062 0.49612 0.15551 0.0
C765 C 0.48957 0.48777 0.2415 0.0
C766 C 0.45721 0.51008 0.35909 0.0
O767 O 0.44921 0.46829 0.23053 0.0
O768 O 0.4633 0.46699 0.22568 0.0
O769 O 0.46416 0.5068 0.31543 0.0
O770 O 0.45005 0.50793 0.31865 0.0
O771 O 0.46487 0.52984 0.15799 0.0
H772 H 0.47824 0.48162 0.32675 0.0
H773 H 0.481 0.50798 0.05949 0.0
O774 O 0.45079 0.53115 0.16253 0.0
O775 O 0.44991 0.49121 0.07179 0.0
O776 O 0.46399 0.49019 0.06843 0.0
C777 C 0.45685 0.48798 0.02803 0.0
H778 H 0.41986 0.51791 0.09351 0.0
H779 H 0.49463 0.4815 0.28565 0.0
Co780 Co 0.83778 0.50127 0.02735 0.0
C781 C 0.82976 0.54301 0.07291 0.0
Co782 Co 0.82331 0.50043 0.0317 0.0
C783 C 0.85628 0.49777 0.96931 0.0
C784 C 0.85422 0.51257 0.10226 0.0
N785 N 0.84997 0.50344 0.03021 0.0
N786 N 0.86426 0.50286 0.00159 0.0
C787 C 0.86286 0.51221 0.08526 0.0
H788 H 0.85504 0.49002 0.90287 0.0
H789 H 0.85121 0.51939 0.16349 0.0
C790 C 0.8313 0.45892 0.98238 0.0
N791 N 0.81112 0.49825 0.03061 0.0
C792 C 0.80506 0.50259 0.09608 0.0
C793 C 0.80661 0.49003 0.95867 0.0
N794 N 0.797 0.49721 0.06749 0.0
C795 C 0.79806 0.48944 0.98063 0.0
C796 C 0.83045 0.5119 0.86402 0.0
O797 O 0.83828 0.46991 -0.0073 0.0
O798 O 0.82419 0.469 -0.00274 0.0
O799 O 0.82349 0.5088 0.90749 0.0
O800 O 0.83759 0.50958 0.90466 0.0
O801 O 0.82279 0.53185 0.06486 0.0
H802 H 0.80939 0.48442 0.89421 0.0
H803 H 0.80658 0.50899 0.16416 0.0
O804 O 0.83688 0.53275 0.06095 0.0
O805 O 0.8376 0.4928 0.15145 0.0
O806 O 0.82351 0.49218 0.15449 0.0
C807 C 0.83064 0.48976 0.19504 0.0
H808 H 0.86774 0.51893 0.13079 0.0
H809 H 0.793 0.48372 0.9352 0.0
Co810 Co 0.44937 0.75397 0.03299 0.0
C811 C 0.45748 0.71245 0.07859 0.0
Co812 Co 0.46384 0.75525 0.03743 0.0
C813 C 0.43089 0.75726 0.97425 0.0
C814 C 0.43292 0.74239 0.10709 0.0
N815 N 0.43718 0.7516 0.03533 0.0
N816 N 0.4229 0.75209 0.00614 0.0
C817 C 0.42428 0.74269 0.08974 0.0
H818 H 0.43215 0.76509 0.908 0.0
H819 H 0.43592 0.73556 0.1684 0.0
C820 C 0.4557 0.79652 -0.01207 0.0
N821 N 0.47603 0.75755 0.03693 0.0
C822 C 0.48209 0.75246 0.10152 0.0
C823 C 0.48056 0.76613 0.96583 0.0
N824 N 0.49019 0.7574 0.0727 0.0
C825 C 0.48914 0.76603 -0.01283 0.0
C826 C 0.45677 0.74358 0.86967 0.0
O827 O 0.44878 0.78525 -0.00158 0.0
O828 O 0.46287 0.78674 0.00281 0.0
O829 O 0.46373 0.74688 0.91321 0.0
O830 O 0.44962 0.74567 0.91027 0.0
O831 O 0.46442 0.72377 0.07061 0.0
H832 H 0.47779 0.77244 0.90243 0.0
H833 H 0.48058 0.74525 0.16827 0.0
O834 O 0.45034 0.72255 0.06656 0.0
O835 O 0.44949 0.76245 0.1571 0.0
O836 O 0.46357 0.76349 0.1602 0.0
C837 C 0.45643 0.76571 0.20071 0.0
H838 H 0.41939 0.73591 0.13501 0.0
H839 H 0.49419 0.77244 0.9432 0.0
Co840 Co 0.21367 0.24953 0.78613 0.0
C841 C 0.20552 0.20827 0.73659 0.0
Co842 Co 0.19921 0.25081 0.78146 0.0
C843 C 0.23187 0.25224 0.85144 0.0
C844 C 0.23045 0.23868 0.71544 0.0
N845 N 0.22587 0.24721 0.78621 0.0
N846 N 0.24 0.2473 0.82342 0.0
C847 C 0.23901 0.23874 0.73766 0.0
H848 H 0.2303 0.2594 0.91814 0.0
H849 H 0.22773 0.23241 0.65171 0.0
C850 C 0.20733 0.29231 0.82712 0.0
N851 N 0.18702 0.25323 0.78336 0.0
C852 C 0.18073 0.2476 0.72211 0.0
C853 C 0.18274 0.26248 0.85499 0.0
N854 N 0.17274 0.25282 0.75378 0.0
C855 C 0.17411 0.26223 0.83741 0.0
C856 C 0.20622 0.23911 0.9493 0.0
O857 O 0.21427 0.281 0.81928 0.0
O858 O 0.20019 0.28222 0.81499 0.0
O859 O 0.19929 0.24236 0.90559 0.0
O860 O 0.21337 0.24131 0.90889 0.0
O861 O 0.19861 0.21954 0.74692 0.0
H862 H 0.18574 0.2693 0.91637 0.0
H863 H 0.18199 0.23975 0.65589 0.0
O864 O 0.2127 0.21805 0.75156 0.0
O865 O 0.21361 0.25787 0.66191 0.0
O866 O 0.1995 0.2591 0.65875 0.0
C867 C 0.20666 0.26119 0.61828 0.0
H868 H 0.24409 0.23234 0.69413 0.0
H869 H 0.16922 0.26904 0.88254 0.0
Co870 Co 0.57357 0.50392 0.78418 0.0
C871 C 0.58138 0.54561 0.73405 0.0
Co872 Co 0.58803 0.50318 0.77975 0.0
C873 C 0.55532 0.50079 0.84879 0.0
C874 C 0.55678 0.5135 0.71152 0.0
N875 N 0.56135 0.50558 0.78352 0.0
N876 N 0.54719 0.50528 0.81951 0.0
C877 C 0.54821 0.5133 0.73297 0.0
H878 H 0.55686 0.49418 0.91644 0.0
H879 H 0.55952 0.5195 0.64747 0.0
C880 C 0.5802 0.46125 0.82626 0.0
N881 N 0.60022 0.50149 0.78225 0.0
C882 C 0.60646 0.50718 0.72068 0.0
C883 C 0.60455 0.49273 0.85447 0.0
N884 N 0.61448 0.50247 0.7527 0.0
C885 C 0.61318 0.49333 0.83691 0.0
C886 C 0.58088 0.51475 0.94744 0.0
O887 O 0.57323 0.47242 0.81792 0.0
O888 O 0.58731 0.47154 0.81394 0.0
O889 O 0.58784 0.51175 0.90385 0.0
O890 O 0.57376 0.51227 0.90687 0.0
O891 O 0.58838 0.53468 0.74455 0.0
H892 H 0.60159 0.48597 0.91618 0.0
H893 H 0.60515 0.51467 0.65392 0.0
O894 O 0.57429 0.53543 0.74917 0.0
O895 O 0.57375 0.49544 0.66 0.0
O896 O 0.58786 0.49478 0.6571 0.0
C897 C 0.58072 0.49239 0.61648 0.0
H898 H 0.54313 0.51927 0.68838 0.0
H899 H 0.61811 0.48691 0.88241 0.0
Co900 Co 0.21405 0.50644 0.9367 0.0
C901 C 0.20585 0.54764 -0.01483 0.0
Co902 Co 0.19958 0.50502 0.93994 0.0
C903 C 0.23232 0.50364 0.87358 0.0
C904 C 0.23075 0.51745 0.009 0.0
N905 N 0.22624 0.50879 0.93788 0.0
N906 N 0.24041 0.50861 0.90257 0.0
C907 C 0.23933 0.51733 -0.01206 0.0
H908 H 0.23083 0.49635 0.8069 0.0
H909 H 0.22796 0.52382 0.0722 0.0
C910 C 0.20778 0.46357 0.89537 0.0
N911 N 0.1874 0.50256 0.93697 0.0
C912 C 0.18108 0.50825 -0.00226 0.0
C913 C 0.18316 0.49323 0.86526 0.0
N914 N 0.17311 0.50298 0.96574 0.0
C915 C 0.17451 0.49348 0.88236 0.0
C916 C 0.20675 0.51675 0.7728 0.0
O917 O 0.21469 0.475 0.9037 0.0
O918 O 0.20061 0.47357 0.90677 0.0
O919 O 0.19977 0.51341 0.81573 0.0
O920 O 0.21386 0.51464 0.81397 0.0
O921 O 0.19895 0.53634 0.9742 0.0
H922 H 0.18618 0.48635 0.80419 0.0
H923 H 0.18231 0.51618 0.06389 0.0
O924 O 0.21304 0.53788 0.97103 0.0
O925 O 0.21387 0.4981 0.06098 0.0
O926 O 0.19976 0.49679 0.06264 0.0
C927 C 0.20689 0.49474 0.10386 0.0
H928 H 0.24437 0.52378 0.03198 0.0
H929 H 0.16965 0.4866 0.83707 0.0
Co930 Co 0.57284 0.2526 0.93993 0.0
C931 C 0.58344 0.20938 -0.00973 0.0
Co932 Co 0.58781 0.24489 0.95478 0.0
C933 C 0.55481 0.24907 0.8786 0.0
C934 C 0.55696 0.23187 0.00659 0.0
N935 N 0.56106 0.2439 0.94075 0.0
N936 N 0.54698 0.24091 0.90341 0.0
C937 C 0.5484 0.23002 0.98412 0.0
H938 H 0.55598 0.25913 0.8172 0.0
H939 H 0.55999 0.22503 0.06769 0.0
C940 C 0.57701 0.29006 0.90755 0.0
N941 N 0.59883 0.25847 0.94715 0.0
C942 C 0.6057 0.25265 -0.00026 0.0
C943 C 0.60204 0.27306 0.88394 0.0
N944 N 0.61307 0.263 0.97218 0.0
C945 C 0.6107 0.27594 0.89929 0.0
C946 C 0.58094 0.23885 0.78004 0.0
O947 O 0.56968 0.2812 0.90935 0.0
O948 O 0.5835 0.2772 0.92377 0.0
O949 O 0.58785 0.23796 0.82745 0.0
O950 O 0.57382 0.24467 0.81614 0.0
O951 O 0.57741 0.22277 0.97284 0.0
H952 H 0.59839 0.28059 0.82832 0.0
H953 H 0.60533 0.24025 0.0551 0.0
O954 O 0.57664 0.22142 0.97386 0.0
O955 O 0.5728 0.2605 0.06706 0.0
O956 O 0.58684 0.25331 0.07795 0.0
C957 C 0.57976 0.25983 0.1138 0.0
H958 H 0.54362 0.22113 0.02444 0.0
H959 H 0.61493 0.28665 0.85883 0.0
H960 H 0.24271 0.24995 0.01028 0.0
H961 H 0.29422 0.25507 0.96502 0.0
H962 H 0.25609 0.25027 0.75033 0.0
H963 H 0.28085 0.25435 0.22504 0.0
H964 H 0.28038 0.25298 0.88529 0.0
H965 H 0.25655 0.2521 0.09004 0.0
C966 C 0.24851 0.25059 0.96969 0.0
C967 C 0.24811 0.24972 0.87281 0.0
C968 C 0.28048 0.25329 0.95989 0.0
C969 C 0.26414 0.25202 0.96451 0.0
C970 C 0.28843 0.25436 0.00564 0.0
C971 C 0.28884 0.25509 0.10254 0.0
C972 C 0.2728 0.25287 0.01085 0.0
C973 C 0.28098 0.25427 0.15058 0.0
C974 C 0.25646 0.25169 0.01546 0.0
C975 C 0.25596 0.25046 0.82478 0.0
N976 N 0.27337 0.25325 0.1046 0.0
N977 N 0.26358 0.25152 0.87077 0.0
H978 H 0.03196 0.03291 0.78314 0.0
H979 H 1.00475 0.97241 0.18509 0.0
H980 H 0.04264 0.9829 0.96945 0.0
H981 H 0.99409 0.02255 -0.00079 0.0
H982 H 0.0185 0.97602 0.10743 0.0
H983 H 1.01822 0.02932 0.86089 0.0
C984 C 0.03146 0.02101 0.84002 0.0
C985 C 0.0386 0.008 0.86843 0.0
C986 C 1.01317 0.98628 0.08345 0.0
C987 C 0.0226 0.00402 0.95978 0.0
C988 C 1.00525 0.98434 0.12833 0.0
C989 C 0.99811 0.99739 0.10002 0.0
C990 C 1.01412 1.00138 0.00875 0.0
C991 C 0.9993 0.01206 0.02392 0.0
C992 C 0.02354 0.01908 0.88495 0.0
C993 C 0.03742 0.99337 0.94467 0.0
N994 N 1.00711 0.01369 0.98148 0.0
N995 N 0.02961 0.99174 -0.01286 0.0
H996 H 0.24366 0.98254 0.24719 0.0
H997 H 0.2931 0.02281 0.22277 0.0
H998 H 0.25485 0.03212 0.43214 0.0
H999 H 0.28193 0.97308 0.03828 0.0
H1000 H 0.27923 0.02621 0.30111 0.0
H1001 H 0.25753 0.97916 0.16876 0.0
C1002 C 0.24897 0.99279 0.27136 0.0
C1003 C 0.24797 0.0075 0.34757 0.0
C1004 C 0.27982 0.01457 0.24332 0.0
C1005 C 0.26405 0.00357 0.25768 0.0
C1006 C 0.28779 0.01253 0.19867 0.0
C1007 C 0.2888 0.99777 0.12263 0.0
C1008 C 0.27272 1.00173 0.21241 0.0
C1009 C 0.28155 0.98504 0.09501 0.0
C1010 C 0.25695 0.99076 0.22667 0.0
C1011 C 0.25523 0.0202 0.37528 0.0
N1012 N 0.27389 0.98733 0.13945 0.0
N1013 N 0.26288 0.01792 0.33079 0.0
H1014 H 0.04413 0.25059 0.21156 0.0
H1015 H 0.99261 0.25528 0.25596 0.0
H1016 H 0.0307 0.25 0.47124 0.0
H1017 H 1.00604 0.25597 -0.00372 0.0
H1018 H 1.00644 0.25289 0.33586 0.0
H1019 H 0.03031 0.25298 0.13165 0.0
C1020 C 0.03833 0.25108 0.25208 0.0
C1021 C 0.03871 0.24989 0.34891 0.0
C1022 C 1.00636 0.25358 0.26131 0.0
C1023 C 0.02269 0.25245 0.25699 0.0
C1024 C 0.99842 0.25481 0.21544 0.0
C1025 C 0.99803 0.25603 0.11861 0.0
C1026 C 1.01405 0.25347 0.21051 0.0
C1027 C 1.0059 0.25551 0.07071 0.0
C1028 C 0.03039 0.25231 0.2062 0.0
C1029 C 0.03085 0.25044 0.39681 0.0
N1030 N 1.0135 0.25431 0.11679 0.0
N1031 N 0.02324 0.25163 0.35072 0.0
H1032 H 0.75495 0.72381 0.78035 0.0
H1033 H 0.78213 0.78451 0.18207 0.0
H1034 H 0.74428 0.77399 0.96613 0.0
H1035 H 0.79278 0.73395 -0.0022 0.0
H1036 H 0.76841 0.78093 0.10399 0.0
H1037 H 0.76869 0.72736 0.85833 0.0
C1038 C 0.75545 0.73574 0.83717 0.0
C1039 C 0.74832 0.74881 0.86538 0.0
C1040 C 0.77372 0.77057 0.08046 0.0
C1041 C 0.76431 0.75275 0.95695 0.0
C1042 C 0.78163 0.77249 0.12557 0.0
C1043 C 0.78875 0.75932 0.09785 0.0
C1044 C 0.77277 0.75536 0.00609 0.0
C1045 C 0.78757 0.74454 0.02205 0.0
C1046 C 0.76336 0.73764 0.88222 0.0
C1047 C 0.7495 0.76348 0.94151 0.0
N1048 N 0.77977 0.74293 0.97935 0.0
N1049 N 0.7573 0.76508 0.98409 0.0
H1050 H 0.79319 0.024 0.72086 0.0
H1051 H 0.74376 0.98361 0.74642 0.0
H1052 H 0.78206 0.97385 0.53798 0.0
H1053 H 0.75488 0.03405 0.9282 0.0
H1054 H 0.75765 0.98 0.66852 0.0
H1055 H 0.7793 0.02757 0.79877 0.0
C1056 C 0.78789 0.01366 0.69703 0.0
C1057 C 0.78892 0.99873 0.62154 0.0
C1058 C 0.75705 0.99185 0.72562 0.0
C1059 C 0.77281 1.00288 0.71088 0.0
C1060 C 0.74906 0.99401 0.77002 0.0
C1061 C 0.74802 0.00903 0.84519 0.0
C1062 C 0.76413 0.00483 0.75589 0.0
C1063 C 0.75527 0.02189 0.87217 0.0
C1064 C 0.7799 0.0158 0.74143 0.0
C1065 C 0.78166 0.98593 0.59427 0.0
N1066 N 0.76293 0.01948 0.828 0.0
N1067 N 0.774 0.98832 0.63847 0.0
H1068 H 0.99374 0.73243 0.72224 0.0
H1069 H 0.04318 0.77276 0.7467 0.0
H1070 H 1.00494 0.78182 0.53662 0.0
H1071 H 0.03202 0.72289 0.93061 0.0
H1072 H 0.0293 0.77614 0.66833 0.0
H1073 H 1.00761 0.72909 0.80066 0.0
C1074 C 0.99905 0.74265 0.69791 0.0
C1075 C 0.99805 0.75729 0.62152 0.0
C1076 C 0.0299 0.76448 0.72601 0.0
C1077 C 1.01413 0.75341 0.71144 0.0
C1078 C 0.03787 0.76244 0.77068 0.0
C1079 C 0.03889 0.74765 0.84658 0.0
C1080 C 0.02281 0.75159 0.75674 0.0
C1081 C 0.03164 0.73488 0.87401 0.0
C1082 C 1.00703 0.74064 0.74261 0.0
C1083 C 1.00532 0.76995 0.59364 0.0
N1084 N 0.02399 0.73717 0.82957 0.0
N1085 N 1.01297 0.7677 0.63815 0.0
H1086 H 0.25629 0.7516 0.24232 0.0
H1087 H 0.28099 0.75486 0.7279 0.0
H1088 H 0.24331 0.74996 0.50451 0.0
H1089 H 0.29396 0.75612 0.46566 0.0
H1090 H 0.26729 0.75304 0.64781 0.0
H1091 H 0.26998 0.7534 0.32246 0.0
C1092 C 0.25626 0.7515 0.31684 0.0
C1093 C 0.24849 0.75037 0.36611 0.0
C1094 C 0.27311 0.75372 0.60751 0.0
C1095 C 0.26443 0.75269 0.45949 0.0
C1096 C 0.28101 0.75487 0.65338 0.0
C1097 C 0.28878 0.7559 0.60406 0.0
C1098 C 0.27284 0.75356 0.51076 0.0
C1099 C 0.28823 0.75528 0.50718 0.0
C1100 C 0.26416 0.75264 0.36274 0.0
C1101 C 0.24904 0.75089 0.46301 0.0
N1102 N 0.28044 0.75425 0.46406 0.0
N1103 N 0.25683 0.75192 0.50617 0.0
H1104 H 0.99293 0.50013 0.46334 0.0
H1105 H 0.04445 0.50555 0.50639 0.0
H1106 H 1.0064 0.50078 0.72279 0.0
H1107 H 0.03098 0.50469 0.24699 0.0
H1108 H 0.03064 0.50341 0.58677 0.0
H1109 H 1.00675 0.50227 0.38303 0.0
C1110 C 0.99875 0.50084 0.50371 0.0
C1111 C 0.99838 0.50008 0.60061 0.0
C1112 C 0.03071 0.5037 0.51217 0.0
C1113 C 1.01438 0.50236 0.50826 0.0
C1114 C 0.03864 0.5048 0.46604 0.0
C1115 C 0.039 0.5055 0.36913 0.0
C1116 C 0.02301 0.50323 0.46155 0.0
C1117 C 0.03113 0.50463 0.32144 0.0
C1118 C 1.00667 0.50193 0.45762 0.0
C1119 C 1.00625 0.50089 0.64834 0.0
N1120 N 0.02354 0.50358 0.36777 0.0
N1121 N 1.01384 0.50195 0.60204 0.0
H1122 H 0.28118 0.50092 0.49389 0.0
H1123 H 0.25635 0.50504 0.97871 0.0
H1124 H 0.29409 0.49964 0.75652 0.0
H1125 H 0.24344 0.50609 0.71608 0.0
H1126 H 0.27006 0.50303 0.89905 0.0
H1127 H 0.26747 0.50292 0.57358 0.0
C1128 C 0.28118 0.50094 0.56842 0.0
C1129 C 0.28894 0.49985 0.61793 0.0
C1130 C 0.26425 0.5037 0.85856 0.0
C1131 C 0.27298 0.50241 0.7108 0.0
C1132 C 0.25635 0.50497 0.90419 0.0
C1133 C 0.24859 0.50599 0.85466 0.0
C1134 C 0.26455 0.50342 0.76182 0.0
C1135 C 0.24917 0.50525 0.75779 0.0
C1136 C 0.27328 0.5022 0.61405 0.0
C1137 C 0.28836 0.50052 0.71481 0.0
N1138 N 0.25696 0.50411 0.71491 0.0
N1139 N 0.28057 0.50166 0.7577 0.0
H1140 H 0.78185 0.28507 0.68013 0.0
H1141 H 0.75455 0.22323 0.28199 0.0
H1142 H 0.79241 0.23385 0.49829 0.0
H1143 H 0.74397 0.27441 0.46388 0.0
H1144 H 0.76828 0.22687 0.36004 0.0
H1145 H 0.76811 0.28137 0.60242 0.0
C1146 C 0.78133 0.27288 0.62425 0.0
C1147 C 0.78844 0.25957 0.59711 0.0
C1148 C 0.76298 0.23735 0.38307 0.0
C1149 C 0.77243 0.25546 0.50575 0.0
C1150 C 0.75507 0.23539 0.33796 0.0
C1151 C 0.74796 0.24873 0.36498 0.0
C1152 C 0.76395 0.25276 0.45672 0.0
C1153 C 0.74917 0.26369 0.44016 0.0
C1154 C 0.77341 0.27089 0.57933 0.0
C1155 C 0.78722 0.24456 0.52209 0.0
N1156 N 0.75697 0.26534 0.48283 0.0
N1157 N 0.77941 0.24288 0.47959 0.0
H1158 H 0.75494 0.53548 0.42995 0.0
H1159 H 0.78229 0.47322 0.03371 0.0
H1160 H 0.74439 0.48413 0.24846 0.0
H1161 H 0.79288 0.52431 0.21611 0.0
H1162 H 0.76853 0.47701 0.11102 0.0
H1163 H 0.76871 0.53164 0.35287 0.0
C1164 C 0.75548 0.52324 0.37428 0.0
C1165 C 0.74837 0.50993 0.34701 0.0
C1166 C 0.77384 0.48744 0.13432 0.0
C1167 C 0.76439 0.50565 0.25645 0.0
C1168 C 0.78176 0.48539 0.08965 0.0
C1169 C 0.78887 0.49866 0.1171 0.0
C1170 C 0.77287 0.50287 0.20789 0.0
C1171 C 0.78767 0.51365 0.19215 0.0
C1172 C 0.76341 0.52116 0.32974 0.0
C1173 C 0.74959 0.49484 0.27229 0.0
N1174 N 0.77986 0.51538 0.23438 0.0
N1175 N 0.75741 0.49309 0.23015 0.0
H1176 H 0.50484 0.97194 0.682 0.0
H1177 H 0.53167 0.03306 0.27865 0.0
H1178 H 0.49396 0.02209 0.49757 0.0
H1179 H 0.54252 0.98277 0.46263 0.0
H1180 H 0.51799 0.02929 0.35756 0.0
H1181 H 0.51852 0.97572 0.60309 0.0
C1182 C 0.50528 0.98391 0.62529 0.0
C1183 C 0.49811 0.9969 0.59775 0.0
C1184 C 0.52334 0.01903 0.38084 0.0
C1185 C 0.51403 1.0011 0.50506 0.0
C1186 C 0.53122 0.02106 0.33525 0.0
C1187 C 0.53839 0.00802 0.36266 0.0
C1188 C 0.52246 0.00384 0.45535 0.0
C1189 C 0.53727 0.99326 0.43859 0.0
C1190 C 0.51316 0.98595 0.5797 0.0
C1191 C 0.49922 0.01163 0.52169 0.0
N1192 N 0.5295 0.99154 0.48174 0.0
N1193 N 0.50699 0.01336 0.47855 0.0
H1194 H 0.49259 0.24886 0.76394 0.0
H1195 H 0.5441 0.25038 0.72085 0.0
H1196 H 0.50618 0.25662 0.50703 0.0
H1197 H 0.53086 0.23722 0.9762 0.0
H1198 H 0.53025 0.25379 0.64295 0.0
H1199 H 0.50639 0.24494 0.84359 0.0
C1200 C 0.49841 0.24966 0.72388 0.0
C1201 C 0.49807 0.25332 0.62795 0.0
C1202 C 0.53036 0.25013 0.71609 0.0
C1203 C 0.51406 0.24902 0.71979 0.0
C1204 C 0.53832 0.2483 0.76095 0.0
C1205 C 0.53878 0.2434 0.85584 0.0
C1206 C 0.5227 0.2472 0.76592 0.0
C1207 C 0.53094 0.24069 0.90304 0.0
C1208 C 0.50633 0.24752 0.76971 0.0
C1209 C 0.50597 0.2543 0.58085 0.0
N1210 N 0.5233 0.24264 0.85794 0.0
N1211 N 0.51355 0.25225 0.6269 0.0
H1212 H 0.50614 0.75372 -0.00296 0.0
H1213 H 0.53088 0.75027 0.48246 0.0
H1214 H 0.49318 0.75515 0.25933 0.0
H1215 H 0.54383 0.74886 0.22012 0.0
H1216 H 0.51718 0.75213 0.40247 0.0
H1217 H 0.51983 0.75185 0.07707 0.0
C1218 C 0.50612 0.75376 0.07157 0.0
C1219 C 0.49835 0.75485 0.12089 0.0
C1220 C 0.523 0.75141 0.36213 0.0
C1221 C 0.5143 0.75245 0.21415 0.0
C1222 C 0.53089 0.75023 0.40794 0.0
C1223 C 0.53866 0.74915 0.35859 0.0
C1224 C 0.52271 0.75154 0.26537 0.0
C1225 C 0.5381 0.74974 0.2617 0.0
C1226 C 0.51402 0.75257 0.1174 0.0
C1227 C 0.49891 0.75426 0.21778 0.0
N1228 N 0.53031 0.7508 0.21863 0.0
N1229 N 0.5067 0.75319 0.26088 0.0
H1230 H 0.53124 0.50073 0.74465 0.0
H1231 H 0.50657 0.5003 0.23064 0.0
H1232 H 0.54424 0.50439 0.00641 0.0
H1233 H 0.49358 0.49742 0.96871 0.0
H1234 H 0.52026 0.50179 0.15028 0.0
H1235 H 0.51756 0.49931 0.82508 0.0
C1236 C 0.53127 0.50135 0.81913 0.0
C1237 C 0.53904 0.50294 0.86816 0.0
C1238 C 0.51443 0.50083 0.1101 0.0
C1239 C 0.52311 0.50105 0.96193 0.0
C1240 C 0.50654 0.49987 0.15613 0.0
C1241 C 0.49877 0.49848 0.10701 0.0
C1242 C 0.51471 0.50042 0.01336 0.0
C1243 C 0.49932 0.49856 0.01009 0.0
C1244 C 0.52338 0.50043 0.86521 0.0
C1245 C 0.5385 0.50309 0.96509 0.0
N1246 N 0.5071 0.4994 0.96681 0.0
N1247 N 0.53072 0.50225 0.00842 0.0
H1248 H 0.40728 0.25599 0.59675 0.0
H1249 H 0.37971 0.25797 0.12966 0.0
H1250 H 0.41868 0.25547 0.32618 0.0
H1251 H 0.36833 0.25518 0.40007 0.0
H1252 H 0.39386 0.25927 0.20014 0.0
H1253 H 0.39314 0.25789 0.52644 0.0
C1254 C 0.40685 0.25621 0.52236 0.0
C1255 C 0.41431 0.25523 0.46775 0.0
C1256 C 0.38829 0.25843 0.24435 0.0
C1257 C 0.39786 0.25771 0.38584 0.0
C1258 C 0.38014 0.25756 0.20404 0.0
C1259 C 0.37269 0.25613 0.25853 0.0
C1260 C 0.38915 0.25791 0.34065 0.0
C1261 C 0.37381 0.2563 0.35482 0.0
C1262 C 0.39871 0.25742 0.48215 0.0
C1263 C 0.4132 0.25621 0.37153 0.0
N1264 N 0.38184 0.25701 0.3925 0.0
N1265 N 0.40517 0.25725 0.33392 0.0
H1266 H 0.87971 0.99933 0.59334 0.0
H1267 H 0.90726 0.99831 0.12619 0.0
H1268 H 0.86831 1.00026 0.32275 0.0
H1269 H 0.91866 1.00029 0.39668 0.0
H1270 H 0.89312 0.99688 0.19665 0.0
H1271 H 0.89385 0.99755 0.523 0.0
C1272 C 0.88014 0.99922 0.51895 0.0
C1273 C 0.87268 1.00027 0.46433 0.0
C1274 C 0.89869 0.99757 0.24088 0.0
C1275 C 0.88913 0.99794 0.3824 0.0
C1276 C 0.90683 0.99851 0.20058 0.0
C1277 C 0.91429 0.99975 0.25512 0.0
C1278 C 0.89784 0.99783 0.3372 0.0
C1279 C 0.91318 0.99933 0.3514 0.0
C1280 C 0.88828 0.99809 0.47872 0.0
C1281 C 0.8738 0.99945 0.36809 0.0
N1282 N 0.90514 0.99855 0.38908 0.0
N1283 N 0.88183 0.99848 0.33048 0.0
H1284 H 0.40736 0.99628 0.62782 0.0
H1285 H 0.37954 0.99818 0.09312 0.0
H1286 H 0.41861 0.99893 0.89891 0.0
H1287 H 0.3683 0.99875 0.82179 0.0
H1288 H 0.39372 0.99623 0.02376 0.0
H1289 H 0.39317 0.99494 0.69743 0.0
C1290 C 0.40689 0.99664 0.70217 0.0
C1291 C 0.41431 0.99805 0.75712 0.0
C1292 C 0.38818 0.99672 0.97911 0.0
C1293 C 0.39781 0.99623 0.83823 0.0
C1294 C 0.38001 0.99796 0.01876 0.0
C1295 C 0.37258 0.99897 0.96364 0.0
C1296 C 0.38909 0.99643 0.88285 0.0
C1297 C 0.37375 0.99799 0.8675 0.0
C1298 C 0.39872 0.99576 0.74199 0.0
C1299 C 0.41315 0.99783 0.85334 0.0
N1300 N 0.38181 0.99693 0.83044 0.0
N1301 N 0.40509 0.9971 0.89054 0.0
H1302 H 0.86767 0.25614 0.90122 0.0
H1303 H 0.91882 0.25587 0.81821 0.0
H1304 H 0.87938 0.25642 0.63217 0.0
H1305 H 0.90711 0.25638 0.08731 0.0
H1306 H 0.90448 0.25787 0.74875 0.0
H1307 H 0.882 0.25803 0.97073 0.0
C1308 C 0.8732 0.25677 0.85659 0.0
C1309 C 0.8722 0.25584 0.76029 0.0
C1310 C 0.90506 0.2576 0.82309 0.0
C1311 C 0.88878 0.25786 0.83987 0.0
C1312 C 0.91328 0.25658 0.86287 0.0
C1313 C 0.91429 0.25568 0.95917 0.0
C1314 C 0.89771 0.25783 0.87963 0.0
C1315 C 0.90676 0.25653 0.01292 0.0
C1316 C 0.88143 0.25773 0.89639 0.0
C1317 C 0.87973 0.2566 0.70656 0.0
N1318 N 0.89887 0.25746 0.97272 0.0
N1319 N 0.88762 0.25747 0.74678 0.0
H1320 H 0.62949 0.74786 0.38001 0.0
H1321 H 0.65755 0.7485 0.84364 0.0
H1322 H 0.61839 0.74953 0.65195 0.0
H1323 H 0.66866 0.75008 0.5717 0.0
H1324 H 0.64334 0.74663 0.77503 0.0
H1325 H 0.64372 0.74641 0.44863 0.0
C1326 C 0.63 0.74798 0.45435 0.0
C1327 C 0.62261 0.74915 0.50986 0.0
C1328 C 0.64886 0.74733 0.73007 0.0
C1329 C 0.63915 0.74721 0.58978 0.0
C1330 C 0.65705 0.74852 0.76931 0.0
C1331 C 0.66444 0.74978 0.7138 0.0
C1332 C 0.6479 0.74734 0.63387 0.0
C1333 C 0.66322 0.74911 0.61768 0.0
C1334 C 0.6382 0.74704 0.49358 0.0
C1335 C 0.62383 0.74862 0.60597 0.0
N1336 N 0.65515 0.74808 0.58105 0.0
N1337 N 0.6319 0.74784 0.6426 0.0
H1338 H 0.12945 0.00815 0.84385 0.0
H1339 H 0.15721 0.00813 0.37801 0.0
H1340 H 0.11818 0.00639 0.57275 0.0
H1341 H 0.1685 0.00638 0.64904 0.0
H1342 H 0.14304 0.00975 0.44778 0.0
H1343 H 0.14363 0.00975 0.77413 0.0
C1344 C 0.12991 0.00803 0.76948 0.0
C1345 C 0.12248 0.0068 0.71455 0.0
C1346 C 0.14859 0.00907 0.49228 0.0
C1347 C 0.13897 0.00893 0.63334 0.0
C1348 C 0.15675 0.00802 0.45238 0.0
C1349 C 0.16419 0.00678 0.50728 0.0
C1350 C 0.1477 0.00893 0.58856 0.0
C1351 C 0.16303 0.00734 0.6035 0.0
C1352 C 0.13808 0.00906 0.72961 0.0
C1353 C 0.12364 0.00734 0.61833 0.0
N1354 N 0.15498 0.00823 0.64079 0.0
N1355 N 0.13169 0.00822 0.58108 0.0
H1356 H 0.66877 0.00641 0.14869 0.0
H1357 H 0.61766 0.00588 0.06291 0.0
H1358 H 0.65717 0.00662 0.87906 0.0
H1359 H 0.62923 0.0065 0.33267 0.0
H1360 H 0.63203 0.00798 -0.00574 0.0
H1361 H 0.6544 0.00828 0.21747 0.0
C1362 C 0.66325 0.00703 0.10379 0.0
C1363 C 0.66429 0.00608 0.00755 0.0
C1364 C 0.63142 0.00771 0.06857 0.0
C1365 C 0.64768 0.00807 0.08625 0.0
C1366 C 0.62317 0.00663 0.10788 0.0
C1367 C 0.62212 0.00573 0.20412 0.0
C1368 C 0.63874 0.00799 0.12553 0.0
C1369 C 0.62962 0.00665 0.2583 0.0
C1370 C 0.65501 0.00797 0.14316 0.0
C1371 C 0.65679 0.00682 0.95342 0.0
N1372 N 0.63753 0.00763 0.21855 0.0
N1373 N 0.64888 0.00767 -0.00677 0.0
H1374 H 0.11806 0.74967 0.15092 0.0
H1375 H 0.16919 0.75018 0.06746 0.0
H1376 H 0.12974 0.75003 0.88174 0.0
H1377 H 0.1575 0.74866 0.33658 0.0
H1378 H 0.15485 0.74836 -0.00201 0.0
H1379 H 0.1324 0.74753 0.22018 0.0
C1380 C 0.12359 0.74913 0.1062 0.0
C1381 C 0.12258 0.75031 0.00996 0.0
C1382 C 0.15543 0.74837 0.07234 0.0
C1383 C 0.13916 0.74802 0.08925 0.0
C1384 C 0.16366 0.74929 0.1121 0.0
C1385 C 0.16467 0.74985 0.20844 0.0
C1386 C 0.14809 0.74792 0.12892 0.0
C1387 C 0.15714 0.74877 0.2622 0.0
C1388 C 0.13182 0.74803 0.14586 0.0
C1389 C 0.13011 0.74966 0.95611 0.0
N1390 N 0.14925 0.74795 0.22201 0.0
N1391 N 0.13799 0.74865 -0.0038 0.0
H1392 H 0.36798 0.75543 0.90314 0.0
H1393 H 0.41913 0.75499 0.82165 0.0
H1394 H 0.37976 0.75569 0.6344 0.0
H1395 H 0.40735 0.75592 0.09037 0.0
H1396 H 0.40482 0.75701 0.75169 0.0
H1397 H 0.38229 0.75737 0.97303 0.0
C1398 C 0.37353 0.75607 0.85865 0.0
C1399 C 0.37255 0.75512 0.76233 0.0
C1400 C 0.40537 0.75682 0.82606 0.0
C1401 C 0.3891 0.75719 0.84235 0.0
C1402 C 0.41358 0.7558 0.86611 0.0
C1403 C 0.41456 0.75501 0.96246 0.0
C1404 C 0.39801 0.75716 0.88238 0.0
C1405 C 0.40702 0.75598 0.01597 0.0
C1406 C 0.38174 0.75706 0.89868 0.0
C1407 C 0.38009 0.75589 0.70879 0.0
N1408 N 0.39914 0.75691 0.97551 0.0
N1409 N 0.38797 0.75678 0.74923 0.0
H1410 H 0.91921 0.49976 0.90015 0.0
H1411 H 0.86808 0.49992 0.81721 0.0
H1412 H 0.9075 0.49878 0.63111 0.0
H1413 H 0.87979 0.49905 0.08629 0.0
H1414 H 0.88241 0.49787 0.74771 0.0
H1415 H 0.90488 0.49787 0.96971 0.0
C1416 C 0.91367 0.49897 0.85554 0.0
C1417 C 0.91467 0.49971 0.75921 0.0
C1418 C 0.88184 0.49808 0.82205 0.0
C1419 C 0.8981 0.49771 0.83883 0.0
C1420 C 0.87362 0.49912 0.86185 0.0
C1421 C 0.87262 0.49994 0.95817 0.0
C1422 C 0.88918 0.49776 0.87859 0.0
C1423 C 0.88014 0.49898 0.01191 0.0
C1424 C 0.90545 0.49802 0.89536 0.0
C1425 C 0.90714 0.49876 0.70549 0.0
N1426 N 0.88803 0.49804 0.97169 0.0
N1427 N 0.89926 0.49792 0.74574 0.0
H1428 H 0.36832 0.49908 0.32336 0.0
H1429 H 0.41945 0.49884 0.40691 0.0
H1430 H 0.37999 0.49832 0.5926 0.0
H1431 H 0.40777 0.4981 0.13774 0.0
H1432 H 0.40511 0.497 0.4763 0.0
H1433 H 0.38266 0.49708 0.25405 0.0
C1434 C 0.37385 0.49832 0.36808 0.0
C1435 C 0.37283 0.49915 0.46439 0.0
C1436 C 0.40569 0.49719 0.40195 0.0
C1437 C 0.38941 0.49701 0.38502 0.0
C1438 C 0.41392 0.49812 0.36223 0.0
C1439 C 0.41493 0.4989 0.26592 0.0
C1440 C 0.39835 0.49695 0.34535 0.0
C1441 C 0.4074 0.49804 0.21212 0.0
C1442 C 0.38207 0.4973 0.32839 0.0
C1443 C 0.38035 0.49823 0.51822 0.0
N1444 N 0.39951 0.4972 0.25227 0.0
N1445 N 0.38824 0.49731 0.47809 0.0
H1446 H 0.87954 0.75775 0.12784 0.0
H1447 H 0.90726 0.75836 0.59389 0.0
H1448 H 0.86823 0.7567 0.39883 0.0
H1449 H 0.91856 0.75621 0.32294 0.0
H1450 H 0.89309 0.75996 0.52401 0.0
H1451 H 0.89371 0.75939 0.19765 0.0
C1452 C 0.87999 0.7578 0.20221 0.0
C1453 C 0.87255 0.75675 0.2571 0.0
C1454 C 0.89865 0.75919 0.47955 0.0
C1455 C 0.88904 0.75892 0.33842 0.0
C1456 C 0.90681 0.75816 0.51952 0.0
C1457 C 0.91424 0.75682 0.46468 0.0
C1458 C 0.89776 0.75894 0.38327 0.0
C1459 C 0.91309 0.75725 0.36844 0.0
C1460 C 0.88815 0.75885 0.24213 0.0
C1461 C 0.8737 0.75751 0.3533 0.0
N1462 N 0.90505 0.75813 0.3311 0.0
N1463 N 0.88175 0.7584 0.39062 0.0
H1464 H 0.66861 0.2616 0.0582 0.0
H1465 H 0.61774 0.2485 0.14456 0.0
H1466 H 0.65727 0.24593 0.32145 0.0
H1467 H 0.6284 0.27123 0.88605 0.0
H1468 H 0.63226 0.24487 0.20632 0.0
H1469 H 0.65416 0.26236 -0.01032 0.0
C1470 C 0.66312 0.25808 0.10144 0.0
C1471 C 0.66423 0.25389 0.19621 0.0
C1472 C 0.63144 0.25064 0.13596 0.0
C1473 C 0.64758 0.25485 0.11816 0.0
C1474 C 0.6231 0.25262 0.10033 0.0
C1475 C 0.62171 0.26031 0.0096 0.0
C1476 C 0.63857 0.25621 0.08083 0.0
C1477 C 0.62904 0.26556 0.95662 0.0
C1478 C 0.65484 0.25868 0.06243 0.0
C1479 C 0.65679 0.24962 0.24859 0.0
N1480 N 0.63708 0.26341 -0.00723 0.0
N1481 N 0.64887 0.25024 0.20922 0.0
H1482 H 0.11815 0.5059 0.06839 0.0
H1483 H 0.1693 0.50648 0.15005 0.0
H1484 H 0.12992 0.50783 0.33704 0.0
H1485 H 0.15754 0.5062 0.8812 0.0
H1486 H 0.15498 0.5086 0.21974 0.0
H1487 H 0.13246 0.50763 -0.00165 0.0
C1488 C 0.12369 0.50686 0.11281 0.0
C1489 C 0.12271 0.50644 0.2092 0.0
C1490 C 0.15554 0.50812 0.1454 0.0
C1491 C 0.13926 0.50826 0.12902 0.0
C1492 C 0.16375 0.50703 0.10548 0.0
C1493 C 0.16474 0.50589 0.00919 0.0
C1494 C 0.14818 0.50815 0.08903 0.0
C1495 C 0.1572 0.50654 0.95558 0.0
C1496 C 0.1319 0.50773 0.07272 0.0
C1497 C 0.13025 0.50761 0.26265 0.0
N1498 N 0.14932 0.50753 -0.00406 0.0
N1499 N 0.13813 0.50836 0.22215 0.0
H1500 H 0.66932 0.5068 0.6473 0.0
H1501 H 0.61817 0.50481 0.56792 0.0
H1502 H 0.65746 0.50649 0.37898 0.0
H1503 H 0.63004 0.50714 0.83606 0.0
H1504 H 0.63244 0.50703 0.49724 0.0
H1505 H 0.65503 0.50853 0.71768 0.0
C1506 C 0.66376 0.50727 0.603 0.0
C1507 C 0.6647 0.50622 0.50667 0.0
C1508 C 0.63192 0.50711 0.57163 0.0
C1509 C 0.64818 0.50804 0.58724 0.0
C1510 C 0.62373 0.50596 0.61209 0.0
C1511 C 0.6228 0.5055 0.70851 0.0
C1512 C 0.63929 0.50789 0.62762 0.0
C1513 C 0.63035 0.50693 0.76165 0.0
C1514 C 0.65556 0.50814 0.6433 0.0
C1515 C 0.65715 0.50676 0.45338 0.0
N1516 N 0.6382 0.50795 0.7208 0.0
N1517 N 0.64928 0.50753 0.49409 0.0
H1518 H 0.169 0.24989 0.56919 0.0
H1519 H 0.11783 0.24981 0.64965 0.0
H1520 H 0.15717 0.24912 0.83765 0.0
H1521 H 0.12965 0.24924 0.38112 0.0
H1522 H 0.13213 0.24785 0.71982 0.0
H1523 H 0.15469 0.24794 0.49893 0.0
C1524 C 0.16344 0.24914 0.61354 0.0
C1525 C 0.1644 0.24995 0.7099 0.0
C1526 C 0.13159 0.2481 0.64545 0.0
C1527 C 0.14786 0.24787 0.62947 0.0
C1528 C 0.12338 0.2491 0.60526 0.0
C1529 C 0.12242 0.24997 0.50891 0.0
C1530 C 0.13896 0.24788 0.58926 0.0
C1531 C 0.12997 0.24912 0.45552 0.0
C1532 C 0.15524 0.24815 0.57331 0.0
C1533 C 0.15685 0.24904 0.76325 0.0
N1534 N 0.13784 0.24822 0.49612 0.0
N1535 N 0.14898 0.24815 0.72262 0.0
H1536 H 0.34421 0.23891 0.46827 0.0
H1537 H 0.31685 0.2718 0.91041 0.0
H1538 H 0.31669 0.24611 0.4682 0.0
H1539 H 0.34438 0.26467 0.91046 0.0
H1540 H 0.31673 0.26414 0.74589 0.0
H1541 H 0.34433 0.24668 0.63273 0.0
C1542 C 0.33818 0.24168 0.50329 0.0
C1543 C 0.33044 0.24239 0.45475 0.0
C1544 C 0.3228 0.26445 0.7818 0.0
C1545 C 0.33056 0.25177 0.6412 0.0
C1546 C 0.32288 0.26908 0.87537 0.0
C1547 C 0.33062 0.26834 0.92391 0.0
C1548 C 0.33051 0.25908 0.73737 0.0
C1549 C 0.33826 0.26505 0.87549 0.0
C1550 C 0.33826 0.24636 0.59681 0.0
C1551 C 0.3228 0.24574 0.50315 0.0
N1552 N 0.338 0.26018 0.78455 0.0
N1553 N 0.32307 0.25066 0.59404 0.0
H1554 H 0.94273 0.01649 0.46548 0.0
H1555 H 0.97007 0.98345 0.90757 0.0
H1556 H 0.97026 0.00929 0.46553 0.0
H1557 H 0.94255 0.99079 0.90771 0.0
H1558 H 0.9702 0.99115 0.74307 0.0
H1559 H 0.94261 0.00873 0.62993 0.0
C1560 C 0.94877 0.01373 0.50052 0.0
C1561 C 0.9565 0.013 0.45201 0.0
C1562 C 0.96413 0.99088 0.779 0.0
C1563 C 0.95638 0.00363 0.63846 0.0
C1564 C 0.96404 0.98623 0.87256 0.0
C1565 C 0.95631 0.98701 0.92112 0.0
C1566 C 0.95643 0.99631 0.73461 0.0
C1567 C 0.94867 0.99037 0.87272 0.0
C1568 C 0.94868 0.00904 0.59404 0.0
C1569 C 0.96414 0.00966 0.50045 0.0
N1570 N 0.94893 0.99526 0.78181 0.0
N1571 N 0.96388 0.00474 0.59133 0.0
H1572 H 0.34462 0.98924 0.30923 0.0
H1573 H 0.31625 0.01033 0.75579 0.0
H1574 H 0.31701 0.98469 0.31368 0.0
H1575 H 0.34386 0.01474 0.75153 0.0
H1576 H 0.31637 1.00264 0.59126 0.0
H1577 H 0.3445 0.99693 0.47378 0.0
C1578 C 0.33855 0.98939 0.34524 0.0
C1579 C 0.3308 0.98686 0.29798 0.0
C1580 C 0.32239 0.00549 0.62627 0.0
C1581 C 0.33062 0.99614 0.48448 0.0
C1582 C 0.32233 0.01015 0.71984 0.0
C1583 C 0.33007 0.01263 0.76715 0.0
C1584 C 0.33026 0.00336 0.58066 0.0
C1585 C 0.33775 0.01252 0.71754 0.0
C1586 C 0.33848 0.99405 0.43881 0.0
C1587 C 0.32312 0.98694 0.34765 0.0
N1588 N 0.33766 0.00757 0.62666 0.0
N1589 N 0.32321 0.99188 0.43852 0.0
H1590 H 0.96989 0.27303 0.3096 0.0
H1591 H 0.94288 0.23817 0.75177 0.0
H1592 H 0.94244 0.26382 0.30962 0.0
H1593 H 0.97032 0.2475 0.75188 0.0
H1594 H 0.94268 0.24586 0.58729 0.0
H1595 H 0.97009 0.26539 0.47412 0.0
C1596 C 0.96388 0.26985 0.34466 0.0
C1597 C 0.95616 0.26852 0.29616 0.0
C1598 C 0.94875 0.24603 0.62322 0.0
C1599 C 0.95637 0.2593 0.48266 0.0
C1600 C 0.94888 0.24139 0.71675 0.0
C1601 C 0.9566 0.24273 0.76529 0.0
C1602 C 0.95639 0.25201 0.57882 0.0
C1603 C 0.96421 0.24664 0.7169 0.0
C1604 C 0.96402 0.26524 0.43822 0.0
C1605 C 0.94855 0.26467 0.34458 0.0
N1606 N 0.96389 0.2515 0.62599 0.0
N1607 N 0.94886 0.25983 0.43552 0.0
H1608 H 0.72037 0.73495 0.05822 0.0
H1609 H 0.69287 0.76711 0.50024 0.0
H1610 H 0.69282 0.74146 0.05794 0.0
H1611 H 0.72042 0.76078 0.50029 0.0
H1612 H 0.69278 0.75937 0.33576 0.0
H1613 H 0.72045 0.74265 0.22274 0.0
C1614 C 0.71432 0.73755 0.09321 0.0
C1615 C 0.70659 0.7381 0.04461 0.0
C1616 C 0.69885 0.75987 0.37168 0.0
C1617 C 0.70666 0.7474 0.23112 0.0
C1618 C 0.69891 0.76454 0.46523 0.0
C1619 C 0.70665 0.76405 0.51376 0.0
C1620 C 0.70657 0.75471 0.32728 0.0
C1621 C 0.7143 0.76095 0.46534 0.0
C1622 C 0.71438 0.7422 0.18676 0.0
C1623 C 0.69893 0.74123 0.09296 0.0
N1624 N 0.71406 0.75605 0.37444 0.0
N1625 N 0.69917 0.74612 0.18388 0.0
H1626 H 0.0666 0.02212 0.06094 0.0
H1627 H 0.09405 0.98966 0.50293 0.0
H1628 H 0.09414 0.0153 0.06064 0.0
H1629 H 0.0665 0.99626 0.50293 0.0
H1630 H 0.09415 0.9974 0.33847 0.0
H1631 H 0.06651 0.01442 0.22544 0.0
C1632 C 0.07264 0.01945 0.09592 0.0
C1633 C 0.08037 0.01881 0.04732 0.0
C1634 C 0.08808 0.99696 0.37437 0.0
C1635 C 0.08029 0.00952 0.23381 0.0
C1636 C 0.08801 0.99228 0.4679 0.0
C1637 C 0.08027 0.99285 0.51642 0.0
C1638 C 0.08036 1.0022 0.32996 0.0
C1639 C 0.07262 0.99602 0.46799 0.0
C1640 C 0.07257 0.0148 0.18947 0.0
C1641 C 0.08802 0.0156 0.09566 0.0
N1642 N 0.07287 1.00093 0.3771 0.0
N1643 N 0.08778 0.01071 0.18658 0.0
H1644 H 0.69213 0.01642 0.65887 0.0
H1645 H 0.72065 0.99677 0.21239 0.0
H1646 H 0.71971 0.02227 0.6546 0.0
H1647 H 0.69308 0.99096 0.21662 0.0
H1648 H 0.72048 0.00442 0.37694 0.0
H1649 H 0.69231 0.00876 0.49431 0.0
C1650 C 0.69821 0.01656 0.62289 0.0
C1651 C 0.70594 0.01945 0.6702 0.0
C1652 C 0.71448 1.00128 0.34192 0.0
C1653 C 0.70619 0.0102 0.48371 0.0
C1654 C 0.71458 0.99663 0.24835 0.0
C1655 C 0.70685 0.99377 0.20102 0.0
C1656 C 0.7066 0.003 0.38753 0.0
C1657 C 0.69917 0.99348 0.25063 0.0
C1658 C 0.69831 0.01191 0.52932 0.0
C1659 C 0.71361 0.01974 0.62059 0.0
N1660 N 0.69923 0.99842 0.34151 0.0
N1661 N 0.71356 0.01479 0.52971 0.0
H1662 H 0.06626 0.76011 0.21433 0.0
H1663 H 0.09477 0.7403 0.66072 0.0
H1664 H 0.09383 0.76578 0.2185 0.0
H1665 H 0.06719 0.73454 0.65645 0.0
H1666 H 0.0946 0.74794 0.49616 0.0
H1667 H 0.06643 0.75241 0.37884 0.0
C1668 C 0.07233 0.7602 0.25027 0.0
C1669 C 0.08006 0.76305 0.20293 0.0
C1670 C 0.0886 0.74481 0.53117 0.0
C1671 C 0.08031 0.75375 0.38939 0.0
C1672 C 0.08869 0.74017 0.62474 0.0
C1673 C 0.08096 0.73732 0.67206 0.0
C1674 C 0.08072 0.74655 0.48555 0.0
C1675 C 0.07329 0.73705 0.62244 0.0
C1676 C 0.07243 0.75553 0.34382 0.0
C1677 C 0.08774 0.76327 0.25251 0.0
N1678 N 0.07335 0.74198 0.53156 0.0
N1679 N 0.08768 0.75831 0.34336 0.0
H1680 H 0.3163 0.7449 0.96645 0.0
H1681 H 0.34471 0.76569 0.41293 0.0
H1682 H 0.3439 0.74016 0.97071 0.0
H1683 H 0.31711 0.77042 0.40868 0.0
H1684 H 0.34458 0.75807 0.24834 0.0
H1685 H 0.31643 0.75262 0.13095 0.0
C1686 C 0.32237 0.74502 0.00241 0.0
C1687 C 0.33012 0.74242 0.9551 0.0
C1688 C 0.33856 0.76097 0.28336 0.0
C1689 C 0.33032 0.75174 0.14156 0.0
C1690 C 0.33864 0.7656 0.37696 0.0
C1691 C 0.33089 0.76815 0.42428 0.0
C1692 C 0.33069 0.75895 0.23774 0.0
C1693 C 0.32321 0.76815 0.37466 0.0
C1694 C 0.32245 0.7497 0.09596 0.0
C1695 C 0.3378 0.74246 0.00471 0.0
N1696 N 0.3233 0.76323 0.28376 0.0
N1697 N 0.33771 0.74743 0.09556 0.0
H1698 H 0.97036 0.48337 0.40946 0.0
H1699 H 0.94313 0.51696 0.96732 0.0
H1700 H 0.94286 0.49129 0.40951 0.0
H1701 H 0.97063 0.509 0.96727 0.0
H1702 H 0.94298 0.50924 0.13179 0.0
H1703 H 0.97051 0.49102 0.24494 0.0
C1704 C 0.96433 0.48627 0.37441 0.0
C1705 C 0.9566 0.48723 0.42294 0.0
C1706 C 0.94905 0.50938 0.09587 0.0
C1707 C 0.95675 0.49647 0.23643 0.0
C1708 C 0.94915 0.51404 0.00235 0.0
C1709 C 0.95688 0.51309 0.95382 0.0
C1710 C 0.95673 0.50377 0.14028 0.0
C1711 C 0.96451 0.50955 0.00223 0.0
C1712 C 0.96443 0.49089 0.28085 0.0
C1713 C 0.94897 0.49074 0.37453 0.0
N1714 N 0.96423 0.50466 0.09312 0.0
N1715 N 0.94925 0.49559 0.2836 0.0
H1716 H 0.31705 0.48312 0.81344 0.0
H1717 H 0.34439 0.51619 0.2556 0.0
H1718 H 0.34458 0.4905 0.81339 0.0
H1719 H 0.31687 0.50878 0.25567 0.0
H1720 H 0.34452 0.50847 0.09112 0.0
H1721 H 0.31693 0.49078 0.97797 0.0
C1722 C 0.32309 0.4859 0.84848 0.0
C1723 C 0.33082 0.48671 0.79995 0.0
C1724 C 0.33845 0.50872 0.12704 0.0
C1725 C 0.3307 0.49597 -0.01353 0.0
C1726 C 0.33836 0.51339 0.22058 0.0
C1727 C 0.33063 0.5126 0.26911 0.0
C1728 C 0.33075 0.50327 0.08264 0.0
C1729 C 0.32299 0.5092 0.22071 0.0
C1730 C 0.323 0.49053 0.94204 0.0
C1731 C 0.33846 0.49007 0.84836 0.0
N1732 N 0.32325 0.50431 0.1298 0.0
N1733 N 0.3382 0.49494 0.93929 0.0
H1734 H 0.97007 0.77243 0.81192 0.0
H1735 H 0.94272 0.73932 0.25398 0.0
H1736 H 0.94255 0.76501 0.81173 0.0
H1737 H 0.97025 0.74663 0.25398 0.0
H1738 H 0.9426 0.74707 0.08953 0.0
H1739 H 0.97019 0.76474 0.97643 0.0
C1740 C 0.96403 0.76963 0.84693 0.0
C1741 C 0.9563 0.76882 0.79836 0.0
C1742 C 0.94867 0.74679 0.12543 0.0
C1743 C 0.95642 0.75954 0.98486 0.0
C1744 C 0.94875 0.74211 0.21895 0.0
C1745 C 0.95649 0.74287 0.26747 0.0
C1746 C 0.95637 0.75222 0.08102 0.0
C1747 C 0.96413 0.74624 0.21904 0.0
C1748 C 0.96412 0.76499 0.94048 0.0
C1749 C 0.94866 0.76544 0.84674 0.0
N1750 N 0.96386 0.75115 0.12816 0.0
N1751 N 0.94892 0.76057 0.93766 0.0
H1752 H 0.69204 0.2414 0.5502 0.0
H1753 H 0.72056 0.26135 -0.00336 0.0
H1754 H 0.71961 0.2357 0.55445 0.0
H1755 H 0.693 0.26729 -0.00776 0.0
H1756 H 0.72038 0.2534 0.83229 0.0
H1757 H 0.69221 0.24898 0.71488 0.0
C1758 C 0.69811 0.24128 0.58617 0.0
C1759 C 0.70584 0.23848 0.53881 0.0
C1760 C 0.71438 0.25664 0.86722 0.0
C1761 C 0.70609 0.24763 0.72546 0.0
C1762 C 0.71449 0.26146 0.96068 0.0
C1763 C 0.70676 0.26446 0.00794 0.0
C1764 C 0.7065 0.25488 0.82162 0.0
C1765 C 0.69909 0.26468 0.9583 0.0
C1766 C 0.69821 0.24588 0.67983 0.0
C1767 C 0.71352 0.23819 0.58847 0.0
N1768 N 0.69914 0.25958 0.86754 0.0
N1769 N 0.71346 0.24309 0.67939 0.0
H1770 H 0.09427 0.4891 0.00215 0.0
H1771 H 0.067 0.52243 0.56 0.0
H1772 H 0.06677 0.49677 0.00221 0.0
H1773 H 0.09451 0.51485 0.56002 0.0
H1774 H 0.06686 0.51476 0.72451 0.0
H1775 H 0.09442 0.49684 0.8377 0.0
C1776 C 0.08825 0.49196 0.96713 0.0
C1777 C 0.08051 0.49282 0.01566 0.0
C1778 C 0.07293 0.51497 0.68861 0.0
C1779 C 0.08066 0.50216 0.82921 0.0
C1780 C 0.07303 0.5196 0.59506 0.0
C1781 C 0.08076 0.51874 0.54655 0.0
C1782 C 0.08062 0.50948 0.73306 0.0
C1783 C 0.0884 0.51532 0.59498 0.0
C1784 C 0.08834 0.49664 0.87361 0.0
C1785 C 0.07288 0.49629 0.96726 0.0
N1786 N 0.08812 0.51046 0.68591 0.0
N1787 N 0.07316 0.50119 0.87636 0.0
H1788 H 0.69253 0.51751 0.15751 0.0
H1789 H 0.72088 0.49603 0.71114 0.0
H1790 H 0.72014 0.52178 0.15316 0.0
H1791 H 0.69326 0.49198 0.71517 0.0
H1792 H 0.72077 0.50371 0.87567 0.0
H1793 H 0.69264 0.50977 -0.00699 0.0
C1794 C 0.6986 0.51729 0.12153 0.0
C1795 C 0.70635 0.51976 0.16882 0.0
C1796 C 0.71474 0.50095 0.84062 0.0
C1797 C 0.70652 0.51041 0.98236 0.0
C1798 C 0.7148 0.49629 0.74705 0.0
C1799 C 0.70705 0.4939 0.69966 0.0
C1800 C 0.70688 0.50317 0.88618 0.0
C1801 C 0.69937 0.49411 0.74922 0.0
C1802 C 0.69866 0.51259 0.02798 0.0
C1803 C 0.71403 0.51958 0.11919 0.0
N1804 N 0.69947 0.49906 0.84011 0.0
N1805 N 0.71393 0.5146 0.02833 0.0
H1806 H 0.09391 0.26737 0.7156 0.0
H1807 H 0.06683 0.23289 0.15781 0.0
H1808 H 0.06645 0.25848 0.71558 0.0
H1809 H 0.09429 0.24169 0.15777 0.0
H1810 H 0.06664 0.24053 -0.00671 0.0
H1811 H 0.09409 0.25965 0.88007 0.0
C1812 C 0.0879 0.26424 0.75064 0.0
C1813 C 0.08017 0.26304 0.70212 0.0
C1814 C 0.07272 0.24059 0.02919 0.0
C1815 C 0.08037 0.25372 0.88857 0.0
C1816 C 0.07284 0.23598 0.12275 0.0
C1817 C 0.08057 0.23719 0.17125 0.0
C1818 C 0.08037 0.24642 0.98473 0.0
C1819 C 0.08818 0.24094 0.12281 0.0
C1820 C 0.08802 0.25958 0.84416 0.0
C1821 C 0.07256 0.25924 0.75053 0.0
N1822 N 0.08788 0.24578 0.03188 0.0
N1823 N 0.07286 0.25436 0.84143 0.0
H1824 H 0.81586 0.24637 0.96398 0.0
H1825 H 0.84438 0.26609 0.4104 0.0
H1826 H 0.84343 0.24066 0.96809 0.0
H1827 H 0.81682 0.27196 0.40609 0.0
H1828 H 0.84421 0.25845 0.24583 0.0
H1829 H 0.81604 0.25406 0.12851 0.0
C1830 C 0.82193 0.24627 -0.0001 0.0
C1831 C 0.82966 0.24341 0.95255 0.0
C1832 C 0.83821 0.26161 0.28083 0.0
C1833 C 0.82992 0.2527 0.13903 0.0
C1834 C 0.83831 0.26625 0.37442 0.0
C1835 C 0.83058 0.26912 0.42172 0.0
C1836 C 0.83033 0.2599 0.2352 0.0
C1837 C 0.82291 0.26943 0.37209 0.0
C1838 C 0.82204 0.25093 0.09346 0.0
C1839 C 0.83734 0.24317 0.00212 0.0
N1840 N 0.82296 0.26449 0.28121 0.0
N1841 N 0.83729 0.24813 0.09298 0.0
H1842 H 0.44234 0.98774 0.41111 0.0
H1843 H 0.4706 0.01004 0.96466 0.0
H1844 H 0.46997 0.98426 0.40666 0.0
H1845 H 0.44297 0.01334 0.96887 0.0
H1846 H 0.47052 1.00235 0.12918 0.0
H1847 H 0.44242 0.9955 0.24662 0.0
C1848 C 0.44841 0.98813 0.37511 0.0
C1849 C 0.45617 0.98588 0.42237 0.0
C1850 C 0.46448 0.00495 0.09417 0.0
C1851 C 0.45631 0.99525 0.23593 0.0
C1852 C 0.46453 0.00961 0.0006 0.0
C1853 C 0.45677 0.01179 0.95326 0.0
C1854 C 0.45663 1.0025 0.13976 0.0
C1855 C 0.44909 0.01137 0.00287 0.0
C1856 C 0.44846 0.99284 0.28157 0.0
C1857 C 0.46385 0.98628 0.37271 0.0
N1858 N 0.44921 0.00642 0.09374 0.0
N1859 N 0.46373 0.99126 0.28187 0.0
H1860 H 0.81699 0.98361 0.81213 0.0
H1861 H 0.84416 0.01758 0.25435 0.0
H1862 H 0.84447 0.99197 0.81203 0.0
H1863 H 0.81667 0.00934 0.25425 0.0
H1864 H 0.84433 0.00985 0.08988 0.0
H1865 H 0.81683 0.99127 0.97666 0.0
C1866 C 0.823 0.98661 0.84716 0.0
C1867 C 0.83073 0.98769 0.79862 0.0
C1868 C 0.83826 0.00993 0.12576 0.0
C1869 C 0.83057 0.99693 -0.01486 0.0
C1870 C 0.83814 0.0146 0.2193 0.0
C1871 C 0.83041 0.01357 0.26778 0.0
C1872 C 0.83058 0.00424 0.08131 0.0
C1873 C 0.82279 0.00995 0.21933 0.0
C1874 C 0.8229 0.99123 0.94073 0.0
C1875 C 0.83836 0.99132 0.84702 0.0
N1876 N 0.82308 0.00506 0.12843 0.0
N1877 N 0.83807 0.99617 0.93796 0.0
H1878 H 0.46986 0.27252 0.81728 0.0
H1879 H 0.44305 0.23666 0.25948 0.0
H1880 H 0.44247 0.26227 0.81735 0.0
H1881 H 0.47043 0.2472 0.25971 0.0
H1882 H 0.4428 0.24436 0.09501 0.0
H1883 H 0.4701 0.26498 0.98186 0.0
C1884 C 0.46388 0.26913 0.85238 0.0
C1885 C 0.45616 0.26749 0.80389 0.0
C1886 C 0.44887 0.24479 0.13096 0.0
C1887 C 0.45642 0.25837 -0.00957 0.0
C1888 C 0.44903 0.24015 0.22448 0.0
C1889 C 0.45674 0.24181 0.27303 0.0
C1890 C 0.45648 0.2511 0.0866 0.0
C1891 C 0.46432 0.24606 0.2247 0.0
C1892 C 0.46403 0.26458 0.94596 0.0
C1893 C 0.44857 0.26338 0.85232 0.0
N1894 N 0.46399 0.25091 0.13379 0.0
N1895 N 0.44891 0.2586 0.94329 0.0
H1896 H 0.22091 0.76115 0.00379 0.0
H1897 H 0.1926 0.73947 0.55722 0.0
H1898 H 0.19329 0.76504 -0.00055 0.0
H1899 H 0.22022 0.73555 0.5616 0.0
H1900 H 0.19269 0.74711 0.7218 0.0
H1901 H 0.22081 0.75341 0.83929 0.0
C1902 C 0.21483 0.76084 0.96781 0.0
C1903 C 0.20708 0.7632 0.0151 0.0
C1904 C 0.19872 0.74438 0.68681 0.0
C1905 C 0.20692 0.75387 0.82865 0.0
C1906 C 0.19867 0.73974 0.59322 0.0
C1907 C 0.20643 0.73742 0.54593 0.0
C1908 C 0.20658 0.74664 0.73246 0.0
C1909 C 0.2141 0.73765 0.59558 0.0
C1910 C 0.21478 0.75615 0.87427 0.0
C1911 C 0.1994 0.76293 0.96547 0.0
N1912 N 0.21399 0.74257 0.68647 0.0
N1913 N 0.19951 0.75796 0.87462 0.0
H1914 H 0.56644 0.02245 0.55262 0.0
H1915 H 0.5936 0.98848 -0.00522 0.0
H1916 H 0.59392 0.01403 0.55247 0.0
H1917 H 0.56612 0.99671 -0.00532 0.0
H1918 H 0.59377 0.99623 0.83034 0.0
H1919 H 0.56628 0.01483 0.71718 0.0
C1920 C 0.57246 0.01944 0.58764 0.0
C1921 C 0.58018 0.01833 0.53908 0.0
C1922 C 0.5877 0.99615 0.86622 0.0
C1923 C 0.58002 0.00913 0.72562 0.0
C1924 C 0.58759 0.99147 0.95973 0.0
C1925 C 0.57985 0.99249 0.0082 0.0
C1926 C 0.58003 1.00183 0.82178 0.0
C1927 C 0.57223 0.99611 0.95976 0.0
C1928 C 0.57235 0.01485 0.68122 0.0
C1929 C 0.58781 0.0147 0.58747 0.0
N1930 N 0.57253 1.00101 0.86888 0.0
N1931 N 0.58752 0.00987 0.67841 0.0
H1932 H 0.22048 0.99494 0.7145 0.0
H1933 H 0.19219 0.01685 0.16099 0.0
H1934 H 0.19286 0.99125 0.71873 0.0
H1935 H 0.21981 0.02068 0.1566 0.0
H1936 H 0.19228 0.00916 -0.00356 0.0
H1937 H 0.22039 1.00269 0.879 0.0
C1938 C 0.21441 0.99529 0.75045 0.0
C1939 C 0.20665 0.99299 0.70312 0.0
C1940 C 0.19831 0.01188 0.03142 0.0
C1941 C 0.2065 1.00233 0.88959 0.0
C1942 C 0.19826 0.01655 0.12499 0.0
C1943 C 0.20602 0.01887 0.17228 0.0
C1944 C 0.20617 0.00958 -0.01423 0.0
C1945 C 0.21369 0.01859 0.12263 0.0
C1946 C 0.21436 0.99999 0.844 0.0
C1947 C 0.19897 0.99332 0.75273 0.0
N1948 N 0.21358 0.01364 0.03175 0.0
N1949 N 0.19908 0.99829 0.84358 0.0
H1950 H 0.56632 0.76066 0.72002 0.0
H1951 H 0.59452 0.73804 0.16646 0.0
H1952 H 0.59395 0.76363 0.72427 0.0
H1953 H 0.56688 0.73504 0.16218 0.0
H1954 H 0.59446 0.74567 0.0019 0.0
H1955 H 0.56638 0.7529 0.88448 0.0
C1956 C 0.57239 0.76014 0.75597 0.0
C1957 C 0.58015 0.76225 0.70866 0.0
C1958 C 0.58842 0.74315 0.0369 0.0
C1959 C 0.58027 0.7529 0.89509 0.0
C1960 C 0.58845 0.73852 0.13049 0.0
C1961 C 0.58068 0.73645 0.1778 0.0
C1962 C 0.58057 0.74566 -0.00873 0.0
C1963 C 0.57301 0.73693 0.12817 0.0
C1964 C 0.57242 0.75544 0.8495 0.0
C1965 C 0.58783 0.76172 0.75826 0.0
N1966 N 0.57314 0.74184 0.03728 0.0
N1967 N 0.5877 0.75674 0.8491 0.0
H1968 H 0.81621 0.74592 0.46405 0.0
H1969 H 0.8446 0.76683 0.91064 0.0
H1970 H 0.84382 0.74129 0.46837 0.0
H1971 H 0.817 0.77162 0.90615 0.0
H1972 H 0.84448 0.75915 0.7461 0.0
H1973 H 0.81634 0.75365 0.62855 0.0
C1974 C 0.82229 0.74606 0.50001 0.0
C1975 C 0.83003 0.7435 0.45271 0.0
C1976 C 0.83846 0.76208 0.78105 0.0
C1977 C 0.83023 0.75282 0.63919 0.0
C1978 C 0.83853 0.76674 0.87462 0.0
C1979 C 0.83078 0.76933 0.92188 0.0
C1980 C 0.83059 0.76005 0.73537 0.0
C1981 C 0.82311 0.76932 0.87219 0.0
C1982 C 0.82236 0.75075 0.59357 0.0
C1983 C 0.83771 0.74357 0.50235 0.0
N1984 N 0.8232 0.76437 0.78132 0.0
N1985 N 0.83762 0.74854 0.5932 0.0
H1986 H 0.44283 0.48859 0.91686 0.0
H1987 H 0.47122 0.50956 0.47034 0.0
H1988 H 0.47043 0.48391 0.91241 0.0
H1989 H 0.44362 0.51415 0.47462 0.0
H1990 H 0.4711 0.50188 0.63487 0.0
H1991 H 0.44295 0.49631 0.75235 0.0
C1992 C 0.4489 0.48871 0.88086 0.0
C1993 C 0.45665 0.48614 0.92812 0.0
C1994 C 0.46508 0.50476 0.59987 0.0
C1995 C 0.45684 0.49546 0.74166 0.0
C1996 C 0.46515 0.50942 0.5063 0.0
C1997 C 0.4574 0.51195 0.45899 0.0
C1998 C 0.45721 0.50269 0.64549 0.0
C1999 C 0.44973 0.51189 0.50862 0.0
C2000 C 0.44898 0.4934 0.78731 0.0
C2001 C 0.46433 0.48619 0.87846 0.0
N2002 N 0.44981 0.50694 0.59949 0.0
N2003 N 0.46424 0.49116 0.78761 0.0
H2004 H 0.84465 0.48948 0.30623 0.0
H2005 H 0.81645 0.51221 0.75269 0.0
H2006 H 0.81702 0.48646 0.31062 0.0
H2007 H 0.84409 0.51506 0.74852 0.0
H2008 H 0.81651 0.50446 0.58821 0.0
H2009 H 0.8446 0.49716 0.47079 0.0
C2010 C 0.83858 0.48997 0.34223 0.0
C2011 C 0.83082 0.48787 0.29494 0.0
C2012 C 0.82256 0.50697 0.62322 0.0
C2013 C 0.83071 0.49714 0.48146 0.0
C2014 C 0.82252 0.51167 0.71676 0.0
C2015 C 0.83029 0.51374 0.7641 0.0
C2016 C 0.8304 0.50439 0.57764 0.0
C2017 C 0.83796 0.51318 0.71451 0.0
C2018 C 0.83855 0.49462 0.43581 0.0
C2019 C 0.82314 0.48836 0.3446 0.0
N2020 N 0.83783 0.50821 0.62366 0.0
N2021 N 0.82328 0.4933 0.43548 0.0
H2022 H 0.47077 0.74399 0.75832 0.0
H2023 H 0.44243 0.76546 0.31198 0.0
H2024 H 0.44316 0.73985 0.75416 0.0
H2025 H 0.47004 0.76963 0.31619 0.0
H2026 H 0.44253 0.75786 0.47658 0.0
H2027 H 0.47066 0.75181 0.5939 0.0
C2028 C 0.4647 0.74426 0.7224 0.0
C2029 C 0.45695 0.7418 0.76973 0.0
C2030 C 0.44856 0.76064 0.44155 0.0
C2031 C 0.45677 0.75122 0.58334 0.0
C2032 C 0.4485 0.76525 0.34794 0.0
C2033 C 0.45625 0.76763 0.3006 0.0
C2034 C 0.45642 0.75846 0.48717 0.0
C2035 C 0.46393 0.76748 0.35022 0.0
C2036 C 0.46463 0.749 0.6289 0.0
C2037 C 0.44927 0.74203 0.72016 0.0
N2038 N 0.46383 0.76258 0.44113 0.0
N2039 N 0.44937 0.74705 0.62935 0.0
H2040 H 0.19221 0.2398 0.0606 0.0
H2041 H 0.22066 0.26045 0.50693 0.0
H2042 H 0.21981 0.23486 0.06475 0.0
H2043 H 0.19307 0.26537 0.50282 0.0
H2044 H 0.22052 0.25272 0.34243 0.0
H2045 H 0.19236 0.24745 0.22517 0.0
C2046 C 0.19829 0.23985 0.09655 0.0
C2047 C 0.20603 0.23723 0.0492 0.0
C2048 C 0.2145 0.25569 0.37746 0.0
C2049 C 0.20624 0.24647 0.23572 0.0
C2050 C 0.21459 0.26038 0.47101 0.0
C2051 C 0.20685 0.26302 0.51837 0.0
C2052 C 0.20663 0.25369 0.3319 0.0
C2053 C 0.19917 0.26303 0.4688 0.0
C2054 C 0.19837 0.2445 0.19014 0.0
C2055 C 0.21371 0.23719 0.09878 0.0
N2056 N 0.19924 0.25805 0.37794 0.0
N2057 N 0.21363 0.24213 0.18967 0.0
H2058 H 0.56671 0.492 0.50513 0.0
H2059 H 0.59489 0.51518 0.05874 0.0
H2060 H 0.59435 0.4894 0.50086 0.0
H2061 H 0.56725 0.51784 0.06304 0.0
H2062 H 0.59484 0.50746 0.22326 0.0
H2063 H 0.56676 0.49982 0.34069 0.0
C2064 C 0.57278 0.49261 0.46919 0.0
C2065 C 0.58055 0.49058 0.51651 0.0
C2066 C 0.58879 0.50993 0.18827 0.0
C2067 C 0.58065 0.50001 0.33007 0.0
C2068 C 0.58882 0.51461 0.09471 0.0
C2069 C 0.58105 0.51662 0.04739 0.0
C2070 C 0.58095 0.50729 0.2339 0.0
C2071 C 0.57338 0.51601 0.09703 0.0
C2072 C 0.57281 0.49735 0.37567 0.0
C2073 C 0.58822 0.49123 0.46688 0.0
N2074 N 0.57351 0.51105 0.18789 0.0
N2075 N 0.58809 0.49624 0.37606 0.0
H2076 H 0.19322 0.48884 0.21724 0.0
H2077 H 0.22041 0.52273 0.65942 0.0
H2078 H 0.22071 0.49713 0.2172 0.0
H2079 H 0.19292 0.51443 0.65951 0.0
H2080 H 0.22056 0.51511 0.49487 0.0
H2081 H 0.19306 0.49654 0.38172 0.0
C2082 C 0.19924 0.49183 0.25227 0.0
C2083 C 0.20697 0.49288 0.20375 0.0
C2084 C 0.21449 0.51515 0.53081 0.0
C2085 C 0.2068 0.50218 0.39022 0.0
C2086 C 0.21439 0.51975 0.62439 0.0
C2087 C 0.20666 0.51867 0.67293 0.0
C2088 C 0.20682 0.50947 0.48639 0.0
C2089 C 0.19903 0.51507 0.62453 0.0
C2090 C 0.19913 0.49649 0.34581 0.0
C2091 C 0.21459 0.49651 0.25216 0.0
N2092 N 0.19932 0.51024 0.53358 0.0
N2093 N 0.2143 0.50139 0.34307 0.0
H2094 H 0.59301 0.27104 0.22485 0.0
H2095 H 0.56788 0.22756 0.66697 0.0
H2096 H 0.56609 0.25428 0.22668 0.0
H2097 H 0.59458 0.24658 0.66882 0.0
H2098 H 0.56729 0.23564 0.50285 0.0
H2099 H 0.59359 0.26399 0.38985 0.0
C2100 C 0.58718 0.26639 0.26075 0.0
C2101 C 0.57953 0.26275 0.21287 0.0
C2102 C 0.57331 0.23783 0.53887 0.0
C2103 C 0.58019 0.25413 0.39936 0.0
C2104 C 0.57367 0.23295 0.632 0.0
C2105 C 0.58126 0.23679 0.68067 0.0
C2106 C 0.58059 0.24663 0.49513 0.0
C2107 C 0.58861 0.2435 0.6331 0.0
C2108 C 0.58753 0.26213 0.35442 0.0
C2109 C 0.57212 0.25708 0.26164 0.0
N2110 N 0.58806 0.24859 0.54244 0.0
N2111 N 0.57267 0.25252 0.35271 0.0
H2112 H 0.3456 0.43127 0.44699 0.0
H2113 H 0.31753 0.3249 0.27148 0.0
H2114 H 0.318 0.42974 0.44987 0.0
H2115 H 0.34514 0.32414 0.27941 0.0
H2116 H 0.31768 0.36371 0.33372 0.0
H2117 H 0.34566 0.39229 0.3844 0.0
C2118 C 0.33956 0.42271 0.43494 0.0
C2119 C 0.33178 0.43381 0.45385 0.0
C2120 C 0.32372 0.35511 0.32174 0.0
C2121 C 0.33181 0.38926 0.3816 0.0
C2122 C 0.32364 0.33293 0.28587 0.0
C2123 C 0.33134 0.32121 0.27006 0.0
C2124 C 0.33155 0.36576 0.34211 0.0
C2125 C 0.33905 0.33252 0.29036 0.0
C2126 C 0.3396 0.40047 0.399 0.0
C2127 C 0.32415 0.42188 0.43654 0.0
N2128 N 0.33896 0.35417 0.32544 0.0
N2129 N 0.32435 0.40031 0.40128 0.0
H2130 H 0.9694 0.82538 0.45114 0.0
H2131 H 0.94144 0.93171 0.2742 0.0
H2132 H 0.9418 0.82462 0.44235 0.0
H2133 H 0.96905 0.93009 0.27188 0.0
H2134 H 0.94134 0.89276 0.33707 0.0
H2135 H 0.96929 0.86417 0.38869 0.0
C2136 C 0.9633 0.83341 0.43652 0.0
C2137 C 0.95559 0.82169 0.45215 0.0
C2138 C 0.94742 0.90092 0.32253 0.0
C2139 C 0.95543 0.86622 0.37984 0.0
C2140 C 0.94748 0.92314 0.28643 0.0
C2141 C 0.95527 0.9342 0.26759 0.0
C2142 C 0.95519 0.88969 0.34017 0.0
C2143 C 0.96289 0.92226 0.28514 0.0
C2144 C 0.96325 0.85557 0.40053 0.0
C2145 C 0.9479 0.833 0.43155 0.0
N2146 N 0.96266 0.90071 0.32056 0.0
N2147 N 0.94801 0.85463 0.39635 0.0
H2148 H 0.31758 0.93001 0.9519 0.0
H2149 H 0.34557 0.82349 0.77739 0.0
H2150 H 0.34518 0.93106 0.94207 0.0
H2151 H 0.31797 0.82538 0.77308 0.0
H2152 H 0.34568 0.86254 0.83953 0.0
H2153 H 0.31773 0.89118 0.89014 0.0
C2154 C 0.32369 0.92204 0.93718 0.0
C2155 C 0.33138 0.93385 0.95232 0.0
C2156 C 0.33961 0.85441 0.82469 0.0
C2157 C 0.33159 0.88925 0.8808 0.0
C2158 C 0.33954 0.83214 0.78904 0.0
C2159 C 0.33174 0.82113 0.76986 0.0
C2160 C 0.33183 0.86573 0.84157 0.0
C2161 C 0.32413 0.83316 0.78662 0.0
C2162 C 0.32376 0.89984 0.90157 0.0
C2163 C 0.33909 0.9226 0.93163 0.0
N2164 N 0.32437 0.85475 0.82164 0.0
N2165 N 0.339 0.90092 0.89682 0.0
H2166 H 0.96959 0.43041 0.77006 0.0
H2167 H 0.9414 0.32397 0.94279 0.0
H2168 H 0.94198 0.43149 0.7777 0.0
H2169 H 0.96901 0.32567 0.94775 0.0
H2170 H 0.94136 0.36303 0.88076 0.0
H2171 H 0.96937 0.39156 0.83171 0.0
C2172 C 0.96346 0.42245 0.78427 0.0
C2173 C 0.95579 0.43427 0.76854 0.0
C2174 C 0.94742 0.35486 0.89572 0.0
C2175 C 0.9555 0.38965 0.83994 0.0
C2176 C 0.94745 0.33258 0.93132 0.0
C2177 C 0.95522 0.32151 0.95064 0.0
C2178 C 0.95522 0.36613 0.87907 0.0
C2179 C 0.96286 0.33349 0.93409 0.0
C2180 C 0.96335 0.40024 0.81982 0.0
C2181 C 0.94806 0.42303 0.78861 0.0
N2182 N 0.96266 0.35509 0.89914 0.0
N2183 N 0.94811 0.40135 0.82337 0.0
H2184 H 0.71957 0.68162 0.69683 0.0
H2185 H 0.69161 0.57493 0.52288 0.0
H2186 H 0.69196 0.68224 0.68951 0.0
H2187 H 0.71921 0.577 0.51775 0.0
H2188 H 0.69149 0.61393 0.5854 0.0
H2189 H 0.71944 0.64283 0.63461 0.0
C2190 C 0.71347 0.67357 0.68258 0.0
C2191 C 0.70576 0.68524 0.69855 0.0
C2192 C 0.69757 0.60585 0.5703 0.0
C2193 C 0.70557 0.6407 0.62652 0.0
C2194 C 0.69764 0.5836 0.53442 0.0
C2195 C 0.70543 0.57266 0.51492 0.0
C2196 C 0.70534 0.61721 0.58705 0.0
C2197 C 0.71305 0.58473 0.53156 0.0
C2198 C 0.7134 0.65139 0.64671 0.0
C2199 C 0.69806 0.67389 0.67842 0.0
N2200 N 0.7128 0.6063 0.56679 0.0
N2201 N 0.69816 0.65224 0.64334 0.0
H2202 H 0.06735 0.07534 0.69968 0.0
H2203 H 0.09533 0.18189 0.52445 0.0
H2204 H 0.09495 0.07468 0.69179 0.0
H2205 H 0.06773 0.18005 0.52081 0.0
H2206 H 0.09543 0.1429 0.58706 0.0
H2207 H 0.06748 0.11414 0.63739 0.0
C2208 C 0.07345 0.08339 0.68529 0.0
C2209 C 0.08116 0.0717 0.70113 0.0
C2210 C 0.08936 0.15102 0.57227 0.0
C2211 C 0.08134 0.11624 0.629 0.0
C2212 C 0.0893 0.17326 0.53633 0.0
C2213 C 0.08151 0.18428 0.5172 0.0
C2214 C 0.08158 0.13973 0.58947 0.0
C2215 C 0.07389 0.17227 0.5343 0.0
C2216 C 0.07351 0.10556 0.64938 0.0
C2217 C 0.08886 0.08304 0.68082 0.0
N2218 N 0.07412 0.15071 0.56958 0.0
N2219 N 0.08875 0.10468 0.6457 0.0
H2220 H 0.69125 0.0748 0.02249 0.0
H2221 H 0.71916 0.18191 0.19365 0.0
H2222 H 0.71885 0.0769 0.01853 0.0
H2223 H 0.69156 0.18284 0.1825 0.0
H2224 H 0.71903 0.14292 0.13346 0.0
H2225 H 0.69111 0.11399 0.08327 0.0
C2226 C 0.69728 0.08352 0.03396 0.0
C2227 C 0.70508 0.07253 0.01523 0.0
C2228 C 0.71299 0.1516 0.14423 0.0
C2229 C 0.70495 0.11729 0.08534 0.0
C2230 C 0.71306 0.17389 0.17893 0.0
C2231 C 0.70535 0.18571 0.19324 0.0
C2232 C 0.70517 0.14092 0.12357 0.0
C2233 C 0.69765 0.17438 0.17262 0.0
C2234 C 0.69719 0.10587 0.06882 0.0
C2235 C 0.71269 0.08465 0.03173 0.0
N2236 N 0.69776 0.15261 0.13874 0.0
N2237 N 0.71243 0.10632 0.06596 0.0
H2238 H 0.09559 0.68209 0.02599 0.0
H2239 H 0.06764 0.57527 0.1991 0.0
H2240 H 0.06799 0.67998 0.02051 0.0
H2241 H 0.09524 0.57467 0.19155 0.0
H2242 H 0.06776 0.61411 0.13722 0.0
H2243 H 0.0957 0.64307 0.08828 0.0
C2244 C 0.08956 0.6734 0.03741 0.0
C2245 C 0.08177 0.68434 0.01785 0.0
C2246 C 0.0738 0.60553 0.14918 0.0
C2247 C 0.08186 0.63976 0.08974 0.0
C2248 C 0.07374 0.58334 0.18486 0.0
C2249 C 0.08144 0.57166 0.20067 0.0
C2250 C 0.08162 0.61625 0.12903 0.0
C2251 C 0.08915 0.58303 0.18058 0.0
C2252 C 0.08963 0.65114 0.07316 0.0
C2253 C 0.07415 0.67225 0.03434 0.0
N2254 N 0.08904 0.60469 0.1457 0.0
N2255 N 0.07439 0.65068 0.06946 0.0
H2256 H 0.81752 0.43135 0.94852 0.0
H2257 H 0.84527 0.32431 0.77483 0.0
H2258 H 0.84512 0.43184 0.93925 0.0
H2259 H 0.81767 0.32654 0.77063 0.0
H2260 H 0.84545 0.36336 0.8368 0.0
H2261 H 0.81757 0.39248 0.88699 0.0
C2262 C 0.8236 0.42325 0.93397 0.0
C2263 C 0.83133 0.43491 0.94919 0.0
C2264 C 0.83936 0.35531 0.82203 0.0
C2265 C 0.83142 0.39028 0.87796 0.0
C2266 C 0.83925 0.33303 0.78647 0.0
C2267 C 0.83144 0.32212 0.76735 0.0
C2268 C 0.83161 0.36674 0.83888 0.0
C2269 C 0.82385 0.33425 0.78412 0.0
C2270 C 0.82362 0.40103 0.89849 0.0
C2271 C 0.83901 0.4235 0.92872 0.0
N2272 N 0.82413 0.35585 0.81905 0.0
N2273 N 0.83886 0.40181 0.89405 0.0
H2274 H 0.46951 0.92935 0.76952 0.0
H2275 H 0.44164 0.82285 0.94734 0.0
H2276 H 0.44191 0.92991 0.77914 0.0
H2277 H 0.46925 0.82472 0.95011 0.0
H2278 H 0.44152 0.86177 0.8843 0.0
H2279 H 0.46943 0.89059 0.83229 0.0
C2280 C 0.46342 0.92129 0.78438 0.0
C2281 C 0.4557 0.93294 0.76889 0.0
C2282 C 0.4476 0.85368 0.89899 0.0
C2283 C 0.45558 0.88844 0.84157 0.0
C2284 C 0.44768 0.83147 0.93518 0.0
C2285 C 0.45547 0.82048 0.9542 0.0
C2286 C 0.45537 0.86498 0.8814 0.0
C2287 C 0.46308 0.83249 0.93673 0.0
C2288 C 0.46339 0.89913 0.82057 0.0
C2289 C 0.44801 0.92158 0.78982 0.0
N2290 N 0.46284 0.85403 0.90119 0.0
N2291 N 0.44815 0.89997 0.82518 0.0
H2292 H 0.81759 0.82614 0.26776 0.0
H2293 H 0.84558 0.93237 0.44587 0.0
H2294 H 0.84518 0.82502 0.279 0.0
H2295 H 0.81797 0.93063 0.44813 0.0
H2296 H 0.84569 0.8934 0.38304 0.0
H2297 H 0.81774 0.86492 0.33013 0.0
C2298 C 0.8237 0.83409 0.28291 0.0
C2299 C 0.83139 0.82227 0.268 0.0
C2300 C 0.83961 0.90154 0.39758 0.0
C2301 C 0.8316 0.86681 0.34024 0.0
C2302 C 0.83954 0.92378 0.43364 0.0
C2303 C 0.83175 0.93481 0.45244 0.0
C2304 C 0.83184 0.89028 0.37992 0.0
C2305 C 0.82413 0.92283 0.43491 0.0
C2306 C 0.82377 0.85625 0.31887 0.0
C2307 C 0.8391 0.83349 0.28925 0.0
N2308 N 0.82437 0.90128 0.39951 0.0
N2309 N 0.839 0.85513 0.32441 0.0
H2310 H 0.44156 0.32308 0.45058 0.0
H2311 H 0.46981 0.42914 0.27509 0.0
H2312 H 0.46917 0.32457 0.45516 0.0
H2313 H 0.44221 0.43046 0.28421 0.0
H2314 H 0.46957 0.39034 0.33736 0.0
H2315 H 0.44155 0.36207 0.3879 0.0
C2316 C 0.44762 0.33163 0.43891 0.0
C2317 C 0.45538 0.32052 0.45833 0.0
C2318 C 0.46356 0.39906 0.32565 0.0
C2319 C 0.45541 0.36507 0.38595 0.0
C2320 C 0.46368 0.42124 0.28974 0.0
C2321 C 0.45601 0.43312 0.27426 0.0
C2322 C 0.45571 0.38856 0.34637 0.0
C2323 C 0.44828 0.42195 0.29491 0.0
C2324 C 0.44761 0.35388 0.40292 0.0
C2325 C 0.46303 0.33243 0.44147 0.0
N2326 N 0.44833 0.40031 0.33 0.0
N2327 N 0.46284 0.35399 0.40613 0.0
H2328 H 0.19177 0.574 0.02499 0.0
H2329 H 0.21968 0.68068 0.20029 0.0
H2330 H 0.21938 0.57589 0.02257 0.0
H2331 H 0.19208 0.68152 0.18982 0.0
H2332 H 0.21957 0.64182 0.13872 0.0
H2333 H 0.19164 0.61306 0.08698 0.0
C2334 C 0.1978 0.58265 0.03702 0.0
C2335 C 0.2056 0.57164 0.01841 0.0
C2336 C 0.21353 0.65045 0.14997 0.0
C2337 C 0.20549 0.61626 0.08995 0.0
C2338 C 0.21358 0.67266 0.18547 0.0
C2339 C 0.20587 0.68442 0.20037 0.0
C2340 C 0.20571 0.63979 0.12907 0.0
C2341 C 0.19818 0.67311 0.17955 0.0
C2342 C 0.19772 0.60493 0.0726 0.0
C2343 C 0.21321 0.58367 0.03566 0.0
N2344 N 0.19829 0.65142 0.14486 0.0
N2345 N 0.21296 0.60527 0.07058 0.0
H2346 H 0.59514 0.07337 0.18821 0.0
H2347 H 0.56862 0.18418 0.02654 0.0
H2348 H 0.56756 0.07644 0.18982 0.0
H2349 H 0.59616 0.18025 0.02698 0.0
H2350 H 0.568 0.14475 0.08517 0.0
H2351 H 0.59556 0.11259 0.12939 0.0
C2352 C 0.58917 0.08231 0.17657 0.0
C2353 C 0.5813 0.07155 0.19421 0.0
C2354 C 0.57417 0.15249 0.07221 0.0
C2355 C 0.58174 0.11658 0.12613 0.0
C2356 C 0.57453 0.17498 0.03852 0.0
C2357 C 0.58249 0.18541 0.02169 0.0
C2358 C 0.5818 0.14042 0.08925 0.0
C2359 C 0.58992 0.17275 0.03885 0.0
C2360 C 0.58941 0.10473 0.14273 0.0
C2361 C 0.57377 0.08404 0.17743 0.0
N2362 N 0.58941 0.15096 0.07171 0.0
N2363 N 0.57418 0.10585 0.14427 0.0
H2364 H 0.21935 0.07543 0.51913 0.0
H2365 H 0.19146 0.18192 0.69586 0.0
H2366 H 0.19175 0.07473 0.52878 0.0
H2367 H 0.21907 0.18009 0.6992 0.0
H2368 H 0.19134 0.14297 0.63308 0.0
H2369 H 0.21926 0.11423 0.58157 0.0
C2370 C 0.21325 0.08347 0.53394 0.0
C2371 C 0.20554 0.07177 0.51857 0.0
C2372 C 0.19742 0.15108 0.64783 0.0
C2373 C 0.2054 0.11631 0.59084 0.0
C2374 C 0.1975 0.17331 0.68387 0.0
C2375 C 0.20529 0.18431 0.70298 0.0
C2376 C 0.20519 0.13978 0.63049 0.0
C2377 C 0.21291 0.1723 0.68575 0.0
C2378 C 0.21322 0.10564 0.56993 0.0
C2379 C 0.19785 0.0831 0.5394 0.0
N2380 N 0.21266 0.15075 0.65035 0.0
N2381 N 0.19798 0.10473 0.57457 0.0
H2382 H 0.56758 0.57318 0.69935 0.0
H2383 H 0.5954 0.6808 0.52977 0.0
H2384 H 0.59518 0.57296 0.69161 0.0
H2385 H 0.5678 0.67895 0.52742 0.0
H2386 H 0.59554 0.64158 0.59003 0.0
H2387 H 0.56763 0.61221 0.639 0.0
C2388 C 0.57367 0.58135 0.68536 0.0
C2389 C 0.5814 0.5697 0.70082 0.0
C2390 C 0.58946 0.64974 0.57609 0.0
C2391 C 0.58149 0.61459 0.63092 0.0
C2392 C 0.58937 0.67214 0.5415 0.0
C2393 C 0.58158 0.68324 0.52329 0.0
C2394 C 0.58169 0.63832 0.59292 0.0
C2395 C 0.57397 0.67112 0.54017 0.0
C2396 C 0.57369 0.60368 0.65058 0.0
C2397 C 0.58907 0.58125 0.68097 0.0
N2398 N 0.57422 0.64939 0.57411 0.0
N2399 N 0.58892 0.60303 0.64703 0.0
H2400 H 0.34349 0.18468 0.12286 0.0
H2401 H 0.31547 0.06983 0.09433 0.0
H2402 H 0.31589 0.18443 0.13313 0.0
H2403 H 0.34308 0.07122 0.09195 0.0
H2404 H 0.31538 0.11166 0.10871 0.0
H2405 H 0.34334 0.14306 0.10823 0.0
C2406 C 0.33739 0.17589 0.12146 0.0
C2407 C 0.32969 0.1881 0.12943 0.0
C2408 C 0.32146 0.10278 0.10534 0.0
C2409 C 0.32948 0.14026 0.1134 0.0
C2410 C 0.32152 0.07889 0.0975 0.0
C2411 C 0.3293 0.06697 0.09179 0.0
C2412 C 0.32924 0.11484 0.10735 0.0
C2413 C 0.33693 0.07964 0.09601 0.0
C2414 C 0.33731 0.15207 0.11342 0.0
C2415 C 0.32198 0.17573 0.12713 0.0
N2416 N 0.3367 0.10285 0.10323 0.0
N2417 N 0.32207 0.15247 0.11962 0.0
H2418 H 0.97146 0.18573 0.09174 0.0
H2419 H 0.94363 0.07056 0.118 0.0
H2420 H 0.94386 0.18391 0.09014 0.0
H2421 H 0.97121 0.07098 0.13209 0.0
H2422 H 0.94375 0.11215 0.10352 0.0
H2423 H 0.97165 0.14387 0.10581 0.0
C2424 C 0.96544 0.17657 0.09501 0.0
C2425 C 0.95763 0.18837 0.08961 0.0
C2426 C 0.94979 0.10319 0.10952 0.0
C2427 C 0.9578 0.14049 0.10478 0.0
C2428 C 0.94973 0.07938 0.11748 0.0
C2429 C 0.95743 0.06722 0.12651 0.0
C2430 C 0.9576 0.11507 0.11062 0.0
C2431 C 0.96513 0.07965 0.12525 0.0
C2432 C 0.96556 0.15267 0.10269 0.0
C2433 C 0.95003 0.17558 0.09396 0.0
N2434 N 0.96502 0.10292 0.11778 0.0
N2435 N 0.95032 0.15238 0.10098 0.0
H2436 H 0.72158 0.93677 0.87472 0.0
H2437 H 0.69373 0.82163 0.84619 0.0
H2438 H 0.69397 0.93497 0.87544 0.0
H2439 H 0.72133 0.82205 0.83466 0.0
H2440 H 0.69385 0.86323 0.86071 0.0
H2441 H 0.72176 0.89492 0.86033 0.0
C2442 C 0.71556 0.92762 0.87118 0.0
C2443 C 0.70774 0.93942 0.87645 0.0
C2444 C 0.69989 0.85427 0.85527 0.0
C2445 C 0.70791 0.89155 0.8609 0.0
C2446 C 0.69983 0.83045 0.84729 0.0
C2447 C 0.70754 0.8183 0.83899 0.0
C2448 C 0.7077 0.86614 0.85492 0.0
C2449 C 0.71524 0.83072 0.84093 0.0
C2450 C 0.71567 0.90372 0.86333 0.0
C2451 C 0.70015 0.92664 0.87176 0.0
N2452 N 0.71512 0.85398 0.8484 0.0
N2453 N 0.70043 0.90344 0.86457 0.0
H2454 H 0.09323 0.93524 0.84855 0.0
H2455 H 0.06537 0.8201 0.87653 0.0
H2456 H 0.06563 0.93483 0.83742 0.0
H2457 H 0.09298 0.82185 0.8776 0.0
H2458 H 0.0652 0.86196 0.86239 0.0
H2459 H 0.09312 0.89363 0.86288 0.0
C2460 C 0.08713 0.92642 0.8497 0.0
C2461 C 0.07943 0.93858 0.84156 0.0
C2462 C 0.07129 0.85315 0.86541 0.0
C2463 C 0.07926 0.89073 0.85728 0.0
C2464 C 0.07139 0.82925 0.87311 0.0
C2465 C 0.0792 0.81743 0.87841 0.0
C2466 C 0.07905 0.86531 0.86314 0.0
C2467 C 0.0868 0.83019 0.87389 0.0
C2468 C 0.08707 0.9026 0.85757 0.0
C2469 C 0.07173 0.92616 0.84356 0.0
N2470 N 0.08653 0.8534 0.86682 0.0
N2471 N 0.07184 0.90289 0.85092 0.0
H2472 H 0.31543 0.68513 0.6295 0.0
H2473 H 0.34352 0.57049 0.60123 0.0
H2474 H 0.34304 0.68383 0.62905 0.0
H2475 H 0.31593 0.57038 0.58991 0.0
H2476 H 0.34332 0.61209 0.61546 0.0
H2477 H 0.31534 0.64326 0.61546 0.0
C2478 C 0.32147 0.67608 0.62576 0.0
C2479 C 0.32926 0.68803 0.63061 0.0
C2480 C 0.3373 0.60301 0.61012 0.0
C2481 C 0.32919 0.64015 0.61549 0.0
C2482 C 0.3374 0.5792 0.60231 0.0
C2483 C 0.32973 0.56689 0.59415 0.0
C2484 C 0.32945 0.61474 0.60974 0.0
C2485 C 0.322 0.57916 0.59607 0.0
C2486 C 0.32141 0.65218 0.61812 0.0
C2487 C 0.33688 0.67539 0.6257 0.0
N2488 N 0.32206 0.60244 0.60338 0.0
N2489 N 0.33665 0.65218 0.61873 0.0
H2490 H 0.94349 0.68501 0.59831 0.0
H2491 H 0.97163 0.57046 0.62811 0.0
H2492 H 0.9711 0.68507 0.58964 0.0
H2493 H 0.94401 0.57153 0.62799 0.0
H2494 H 0.97168 0.61231 0.61401 0.0
H2495 H 0.94368 0.64339 0.61265 0.0
C2496 C 0.94961 0.67629 0.60001 0.0
C2497 C 0.95729 0.68859 0.59256 0.0
C2498 C 0.96561 0.60335 0.61676 0.0
C2499 C 0.95755 0.64074 0.60826 0.0
C2500 C 0.96558 0.57946 0.62444 0.0
C2501 C 0.9578 0.56744 0.62937 0.0
C2502 C 0.95782 0.61533 0.61414 0.0
C2503 C 0.95016 0.58003 0.62453 0.0
C2504 C 0.94971 0.65247 0.60787 0.0
C2505 C 0.96502 0.6763 0.59522 0.0
N2506 N 0.95037 0.60324 0.6175 0.0
N2507 N 0.96495 0.65304 0.60256 0.0
H2508 H 0.7218 0.43674 0.37453 0.0
H2509 H 0.69354 0.32242 0.33963 0.0
H2510 H 0.69418 0.43566 0.37121 0.0
H2511 H 0.72115 0.32208 0.33227 0.0
H2512 H 0.6938 0.36399 0.35515 0.0
H2513 H 0.72184 0.39488 0.35946 0.0
C2514 C 0.71575 0.42774 0.36995 0.0
C2515 C 0.70797 0.43974 0.3743 0.0
C2516 C 0.69982 0.35487 0.3504 0.0
C2517 C 0.70798 0.3919 0.35797 0.0
C2518 C 0.69968 0.33107 0.34184 0.0
C2519 C 0.70734 0.31872 0.33439 0.0
C2520 C 0.70768 0.36651 0.35147 0.0
C2521 C 0.71509 0.33091 0.3378 0.0
C2522 C 0.71578 0.40385 0.36173 0.0
C2523 C 0.70033 0.42717 0.3683 0.0
N2524 N 0.71506 0.35416 0.3458 0.0
N2525 N 0.70054 0.40398 0.36075 0.0
H2526 H 0.06541 0.32034 0.37699 0.0
H2527 H 0.09356 0.43494 0.34621 0.0
H2528 H 0.09303 0.32151 0.37541 0.0
H2529 H 0.06595 0.43499 0.33794 0.0
H2530 H 0.09336 0.39332 0.36054 0.0
H2531 H 0.06536 0.36219 0.36282 0.0
C2532 C 0.07146 0.32935 0.37298 0.0
C2533 C 0.07924 0.31737 0.37754 0.0
C2534 C 0.08734 0.4024 0.35586 0.0
C2535 C 0.07921 0.36525 0.36224 0.0
C2536 C 0.08744 0.42622 0.348 0.0
C2537 C 0.07976 0.43851 0.34067 0.0
C2538 C 0.07949 0.39066 0.35636 0.0
C2539 C 0.07203 0.42622 0.34343 0.0
C2540 C 0.07142 0.35326 0.36526 0.0
C2541 C 0.08687 0.32998 0.37228 0.0
N2542 N 0.07209 0.40296 0.35077 0.0
N2543 N 0.08666 0.35319 0.36522 0.0
H2544 H 0.84322 0.07161 0.5998 0.0
H2545 H 0.81501 0.18605 0.62764 0.0
H2546 H 0.81563 0.07121 0.58842 0.0
H2547 H 0.84262 0.1849 0.62607 0.0
H2548 H 0.81494 0.14416 0.61394 0.0
H2549 H 0.84296 0.1132 0.61373 0.0
C2550 C 0.83709 0.08025 0.60081 0.0
C2551 C 0.82943 0.06786 0.5927 0.0
C2552 C 0.82101 0.15312 0.61627 0.0
C2553 C 0.82909 0.11572 0.60794 0.0
C2554 C 0.82105 0.17704 0.62371 0.0
C2555 C 0.82883 0.18903 0.62816 0.0
C2556 C 0.8288 0.14113 0.61345 0.0
C2557 C 0.83647 0.17642 0.62304 0.0
C2558 C 0.83695 0.10407 0.60844 0.0
C2559 C 0.82169 0.08006 0.59453 0.0
N2560 N 0.83625 0.15321 0.61628 0.0
N2561 N 0.82171 0.10334 0.60167 0.0
H2562 H 0.47142 0.18452 0.59798 0.0
H2563 H 0.44352 0.06941 0.62246 0.0
H2564 H 0.44381 0.18293 0.59689 0.0
H2565 H 0.47112 0.06979 0.63215 0.0
H2566 H 0.44363 0.11106 0.60945 0.0
H2567 H 0.47155 0.14264 0.61047 0.0
C2568 C 0.46539 0.1754 0.60107 0.0
C2569 C 0.45759 0.18728 0.59626 0.0
C2570 C 0.44967 0.10207 0.61414 0.0
C2571 C 0.45771 0.13937 0.60961 0.0
C2572 C 0.44962 0.07824 0.62124 0.0
C2573 C 0.45732 0.06605 0.62862 0.0
C2574 C 0.45749 0.11394 0.61447 0.0
C2575 C 0.46502 0.07847 0.62658 0.0
C2576 C 0.46547 0.15149 0.60781 0.0
C2577 C 0.44997 0.17454 0.6003 0.0
N2578 N 0.46491 0.10175 0.62001 0.0
N2579 N 0.45023 0.15132 0.60644 0.0
H2580 H 0.19344 0.9351 0.37248 0.0
H2581 H 0.22161 0.82062 0.34176 0.0
H2582 H 0.22105 0.9352 0.38019 0.0
H2583 H 0.194 0.82164 0.34066 0.0
H2584 H 0.22164 0.86245 0.35625 0.0
H2585 H 0.19364 0.89348 0.3578 0.0
C2586 C 0.19956 0.92639 0.37051 0.0
C2587 C 0.20725 0.9387 0.37777 0.0
C2588 C 0.21558 0.85349 0.35314 0.0
C2589 C 0.20751 0.89085 0.36167 0.0
C2590 C 0.21556 0.8296 0.34523 0.0
C2591 C 0.20779 0.81758 0.33984 0.0
C2592 C 0.20779 0.86545 0.35554 0.0
C2593 C 0.20014 0.83014 0.34445 0.0
C2594 C 0.19966 0.90257 0.36243 0.0
C2595 C 0.21497 0.92642 0.37475 0.0
N2596 N 0.20034 0.85336 0.35174 0.0
N2597 N 0.2149 0.90316 0.36723 0.0
H2598 H 0.59315 0.82051 0.37709 0.0
H2599 H 0.56499 0.93498 0.3352 0.0
H2600 H 0.56555 0.82024 0.38456 0.0
H2601 H 0.5926 0.93378 0.33622 0.0
H2602 H 0.56492 0.89317 0.35315 0.0
H2603 H 0.59292 0.86205 0.35915 0.0
C2604 C 0.58702 0.82916 0.37448 0.0
C2605 C 0.57935 0.81679 0.3825 0.0
C2606 C 0.57098 0.90209 0.34971 0.0
C2607 C 0.57905 0.86465 0.36249 0.0
C2608 C 0.57103 0.92598 0.33977 0.0
C2609 C 0.57881 0.93797 0.33408 0.0
C2610 C 0.57877 0.89008 0.35385 0.0
C2611 C 0.58644 0.92534 0.34018 0.0
C2612 C 0.5869 0.85296 0.36448 0.0
C2613 C 0.57162 0.82904 0.37857 0.0
N2614 N 0.58622 0.90216 0.34946 0.0
N2615 N 0.57166 0.85229 0.36908 0.0
H2616 H 0.81541 0.68626 0.12578 0.0
H2617 H 0.84346 0.57157 0.09508 0.0
H2618 H 0.84302 0.685 0.12696 0.0
H2619 H 0.81586 0.57164 0.08662 0.0
H2620 H 0.8433 0.61318 0.10988 0.0
H2621 H 0.81533 0.64442 0.11113 0.0
C2622 C 0.82146 0.67723 0.12229 0.0
C2623 C 0.82924 0.68918 0.12775 0.0
C2624 C 0.83727 0.60413 0.10505 0.0
C2625 C 0.82918 0.64131 0.11187 0.0
C2626 C 0.83735 0.58032 0.09691 0.0
C2627 C 0.82966 0.56806 0.0894 0.0
C2628 C 0.82944 0.6159 0.10565 0.0
C2629 C 0.82195 0.58038 0.09225 0.0
C2630 C 0.8214 0.65333 0.11429 0.0
C2631 C 0.83687 0.67655 0.12311 0.0
N2632 N 0.82203 0.60364 0.09985 0.0
N2633 N 0.83664 0.65334 0.11574 0.0
H2634 H 0.47198 0.56924 0.13205 0.0
H2635 H 0.44384 0.68376 0.10168 0.0
H2636 H 0.44437 0.57041 0.13324 0.0
H2637 H 0.47144 0.68394 0.09154 0.0
H2638 H 0.44405 0.64217 0.11665 0.0
H2639 H 0.47204 0.61108 0.11721 0.0
C2640 C 0.46593 0.57825 0.12853 0.0
C2641 C 0.45816 0.56627 0.13404 0.0
C2642 C 0.45007 0.65126 0.11141 0.0
C2643 C 0.45819 0.61414 0.11795 0.0
C2644 C 0.44996 0.67508 0.10316 0.0
C2645 C 0.45763 0.6874 0.09515 0.0
C2646 C 0.45792 0.63956 0.11161 0.0
C2647 C 0.46536 0.67515 0.09759 0.0
C2648 C 0.46598 0.60215 0.12042 0.0
C2649 C 0.45052 0.57888 0.12936 0.0
N2650 N 0.46531 0.65188 0.10531 0.0
N2651 N 0.45074 0.60208 0.12189 0.0
H2652 H 0.1937 0.321 0.84973 0.0
H2653 H 0.22185 0.43559 0.87922 0.0
H2654 H 0.2213 0.32082 0.83998 0.0
H2655 H 0.19423 0.43433 0.87704 0.0
H2656 H 0.22192 0.39372 0.86536 0.0
H2657 H 0.19393 0.36259 0.86383 0.0
C2658 C 0.19982 0.32969 0.85113 0.0
C2659 C 0.2075 0.31736 0.84343 0.0
C2660 C 0.21586 0.40264 0.8676 0.0
C2661 C 0.2078 0.36521 0.85888 0.0
C2662 C 0.2158 0.42655 0.87514 0.0
C2663 C 0.20802 0.43851 0.87945 0.0
C2664 C 0.20807 0.39063 0.86454 0.0
C2665 C 0.20039 0.42588 0.87411 0.0
C2666 C 0.19994 0.3535 0.85886 0.0
C2667 C 0.21523 0.32962 0.84577 0.0
N2668 N 0.20061 0.40267 0.86725 0.0
N2669 N 0.21518 0.3529 0.85299 0.0
H2670 H 0.56428 0.32008 0.86533 0.0
H2671 H 0.59383 0.43214 0.85214 0.0
H2672 H 0.59148 0.31742 0.91557 0.0
H2673 H 0.56624 0.43308 0.84008 0.0
H2674 H 0.59338 0.39038 0.87119 0.0
H2675 H 0.56521 0.36142 0.84885 0.0
C2676 C 0.57048 0.32817 0.87259 0.0
C2677 C 0.57782 0.31514 0.89206 0.0
C2678 C 0.58743 0.39976 0.86477 0.0
C2679 C 0.57891 0.36295 0.87344 0.0
C2680 C 0.58767 0.42361 0.85402 0.0
C2681 C 0.58005 0.4362 0.84432 0.0
C2682 C 0.57952 0.38836 0.86526 0.0
C2683 C 0.57228 0.42418 0.84728 0.0
C2684 C 0.571 0.35189 0.8634 0.0
C2685 C 0.58566 0.32673 0.90034 0.0
N2686 N 0.57222 0.40099 0.85705 0.0
N2687 N 0.58601 0.35001 0.89108 0.0
loop_
_geom_bond_atom_site_label_1
_geom_bond_atom_site_label_2
_geom_bond_distance
_geom_bond_site_symmetry_2
_ccdc_geom_bond_type
Co0 N5 2.057 . S
Co0 O17 2.021 . S
Co0 O20 2.062 . S
Co0 O24 2.117 . S
Co0 O25 2.020 . S
C1 O21 1.259 . S
C1 O24 1.258 . S
Co2 N11 2.057 . S
Co2 O18 2.117 . S
Co2 O19 2.020 . S
Co2 O21 2.021 . S
Co2 O26 2.062 . S
C3 N5 1.316 . S
C3 N6 1.347 . S
C3 H8 0.931 . S
C4 N5 1.375 . S
C4 C7 1.350 . S
C4 H9 0.930 . S
N5 Co0 2.057 . S
N5 C3 1.316 . S
N5 C4 1.375 . S
N6 C3 1.347 . S
N6 C7 1.373 . S
C7 C4 1.350 . S
C7 N6 1.373 . S
C7 H28 0.931 . S
H8 C3 0.931 . S
H9 C4 0.930 . S
C10 O17 1.259 . S
C10 O18 1.258 . S
N11 Co2 2.057 . S
N11 C12 1.316 . S
N11 C13 1.375 . S
C12 N11 1.316 . S
C12 N14 1.347 . S
C12 H23 0.931 . S
C13 N11 1.375 . S
C13 C15 1.350 . S
C13 H22 0.930 . S
N14 C12 1.347 . S
N14 C15 1.373 . S
C15 C13 1.350 . S
C15 N14 1.373 . S
C15 H29 0.931 . S
C16 O19 1.256 . S
C16 O20 1.255 . S
O17 Co0 2.021 . S
O17 C10 1.259 . S
O18 Co2 2.117 . S
O18 C10 1.258 . S
O19 Co2 2.020 . S
O19 C16 1.256 . S
O20 Co0 2.062 . S
O20 C16 1.255 . S
O21 C1 1.259 . S
O21 Co2 2.021 . S
H22 C13 0.930 . S
H23 C12 0.931 . S
O24 Co0 2.117 . S
O24 C1 1.258 . S
O25 Co0 2.020 . S
O25 C27 1.256 . S
O26 Co2 2.062 . S
O26 C27 1.255 . S
C27 O25 1.256 . S
C27 O26 1.255 . S
H28 C7 0.931 . S
H29 C15 0.931 . S
Co30 N35 2.057 1_565 S
Co30 O47 2.021 . S
Co30 O50 2.061 1_565 S
Co30 O54 2.117 1_565 S
Co30 O55 2.020 . S
C31 O51 1.259 . S
C31 O54 1.258 . S
Co32 N41 2.057 1_545 S
Co32 O48 2.117 1_545 S
Co32 O49 2.020 . S
Co32 O51 2.021 . S
Co32 O56 2.062 1_545 S
C33 N35 1.316 1_565 S
C33 N36 1.347 1_565 S
C33 H38 0.931 . S
C34 N35 1.375 . S
C34 C37 1.350 . S
C34 H39 0.930 . S
N35 Co30 2.057 1_545 S
N35 C33 1.316 1_545 S
N35 C34 1.375 . S
N36 C33 1.347 1_545 S
N36 C37 1.373 . S
C37 C34 1.350 . S
C37 N36 1.373 . S
C37 H58 0.931 . S
H38 C33 0.931 . S
H39 C34 0.930 . S
C40 O47 1.259 . S
C40 O48 1.258 . S
N41 Co32 2.057 1_565 S
N41 C42 1.316 1_565 S
N41 C43 1.375 . S
C42 N41 1.316 1_545 S
C42 N44 1.347 1_545 S
C42 H53 0.931 . S
C43 N41 1.375 . S
C43 C45 1.350 . S
C43 H52 0.930 . S
N44 C42 1.347 1_565 S
N44 C45 1.373 . S
C45 C43 1.350 . S
C45 N44 1.373 . S
C45 H59 0.931 . S
C46 O49 1.256 . S
C46 O50 1.255 . S
O47 Co30 2.021 . S
O47 C40 1.259 . S
O48 Co32 2.117 1_565 S
O48 C40 1.258 . S
O49 Co32 2.020 . S
O49 C46 1.256 . S
O50 Co30 2.061 1_545 S
O50 C46 1.255 . S
O51 C31 1.259 . S
O51 Co32 2.021 . S
H52 C43 0.930 . S
H53 C42 0.931 . S
O54 Co30 2.117 1_545 S
O54 C31 1.258 . S
O55 Co30 2.020 . S
O55 C57 1.256 . S
O56 Co32 2.062 1_565 S
O56 C57 1.255 . S
C57 O55 1.256 . S
C57 O56 1.255 . S
H58 C37 0.931 . S
H59 C45 0.931 . S
Co60 N65 2.057 1_565 S
Co60 O77 2.021 . S
Co60 O80 2.062 1_564 S
Co60 O84 2.117 1_565 S
Co60 O85 2.020 . S
C61 O81 1.259 . S
C61 O84 1.258 . S
Co62 N71 2.057 1_545 S
Co62 O78 2.117 1_545 S
Co62 O79 2.020 1_554 S
Co62 O81 2.021 . S
Co62 O86 2.062 1_545 S
C63 N65 1.316 1_566 S
C63 N66 1.347 1_565 S
C63 H68 0.931 . S
C64 N65 1.375 . S
C64 C67 1.350 1_554 S
C64 H69 0.930 . S
N65 Co60 2.057 1_545 S
N65 C63 1.316 1_544 S
N65 C64 1.375 . S
N66 C63 1.347 1_545 S
N66 C67 1.373 . S
C67 C64 1.350 1_556 S
C67 N66 1.373 . S
C67 H88 0.931 . S
H68 C63 0.931 . S
H69 C64 0.930 . S
C70 O77 1.259 . S
C70 O78 1.258 . S
N71 Co62 2.057 1_565 S
N71 C72 1.316 1_565 S
N71 C73 1.375 . S
C72 N71 1.316 1_545 S
C72 N74 1.347 1_545 S
C72 H83 0.931 . S
C73 N71 1.375 . S
C73 C75 1.350 . S
C73 H82 0.930 . S
N74 C72 1.347 1_565 S
N74 C75 1.373 . S
C75 C73 1.350 . S
C75 N74 1.373 . S
C75 H89 0.931 . S
C76 O79 1.256 . S
C76 O80 1.255 . S
O77 Co60 2.021 . S
O77 C70 1.259 . S
O78 Co62 2.117 1_565 S
O78 C70 1.258 . S
O79 Co62 2.020 1_556 S
O79 C76 1.256 . S
O80 Co60 2.062 1_546 S
O80 C76 1.255 . S
O81 C61 1.259 . S
O81 Co62 2.021 . S
H82 C73 0.930 . S
H83 C72 0.931 . S
O84 Co60 2.117 1_545 S
O84 C61 1.258 . S
O85 Co60 2.020 . S
O85 C87 1.256 . S
O86 Co62 2.062 1_565 S
O86 C87 1.255 . S
C87 O85 1.256 . S
C87 O86 1.255 . S
H88 C67 0.931 . S
H89 C75 0.931 . S
Co90 N95 2.057 . S
Co90 O107 2.021 . S
Co90 O110 2.062 1_554 S
Co90 O114 2.117 . S
Co90 O115 2.020 . S
C91 O111 1.259 . S
C91 O114 1.258 . S
Co92 N101 2.057 . S
Co92 O108 2.117 . S
Co92 O109 2.020 1_554 S
Co92 O111 2.021 . S
Co92 O116 2.062 . S
C93 N95 1.316 1_556 S
C93 N96 1.347 . S
C93 H98 0.931 . S
C94 N95 1.375 . S
C94 C97 1.350 1_554 S
C94 H99 0.930 . S
N95 Co90 2.057 . S
N95 C93 1.316 1_554 S
N95 C94 1.375 . S
N96 C93 1.347 . S
N96 C97 1.373 . S
C97 C94 1.350 1_556 S
C97 N96 1.373 . S
C97 H118 0.931 . S
H98 C93 0.931 . S
H99 C94 0.930 . S
C100 O107 1.259 . S
C100 O108 1.258 . S
N101 Co92 2.057 . S
N101 C102 1.316 . S
N101 C103 1.375 . S
C102 N101 1.316 . S
C102 N104 1.347 . S
C102 H113 0.931 . S
C103 N101 1.375 . S
C103 C105 1.350 . S
C103 H112 0.930 . S
N104 C102 1.347 . S
N104 C105 1.373 . S
C105 C103 1.350 . S
C105 N104 1.373 . S
C105 H119 0.931 . S
C106 O109 1.256 . S
C106 O110 1.255 . S
O107 Co90 2.021 . S
O107 C100 1.259 . S
O108 Co92 2.117 . S
O108 C100 1.258 . S
O109 Co92 2.020 1_556 S
O109 C106 1.256 . S
O110 Co90 2.062 1_556 S
O110 C106 1.255 . S
O111 C91 1.259 . S
O111 Co92 2.021 . S
H112 C103 0.930 . S
H113 C102 0.931 . S
O114 Co90 2.117 . S
O114 C91 1.258 . S
O115 Co90 2.020 . S
O115 C117 1.256 . S
O116 Co92 2.062 . S
O116 C117 1.255 . S
C117 O115 1.256 . S
C117 O116 1.255 . S
H118 C97 0.931 . S
H119 C105 0.931 . S
Co120 N125 2.057 . S
Co120 O137 2.021 . S
Co120 O140 2.062 . S
Co120 O144 2.117 . S
Co120 O145 2.020 . S
C121 O141 1.259 . S
C121 O144 1.258 . S
Co122 N131 2.057 . S
Co122 O138 2.117 . S
Co122 O139 2.020 . S
Co122 O141 2.021 . S
Co122 O146 2.062 . S
C123 N125 1.316 . S
C123 N126 1.347 . S
C123 H128 0.931 . S
C124 N125 1.375 . S
C124 C127 1.350 . S
C124 H129 0.930 . S
N125 Co120 2.057 . S
N125 C123 1.316 . S
N125 C124 1.375 . S
N126 C123 1.347 . S
N126 C127 1.373 . S
C127 C124 1.350 . S
C127 N126 1.373 . S
C127 H148 0.931 . S
H128 C123 0.931 . S
H129 C124 0.930 . S
C130 O137 1.259 . S
C130 O138 1.258 . S
N131 Co122 2.057 . S
N131 C132 1.316 . S
N131 C133 1.375 . S
C132 N131 1.316 . S
C132 N134 1.347 . S
C132 H143 0.931 . S
C133 N131 1.375 . S
C133 C135 1.350 . S
C133 H142 0.930 . S
N134 C132 1.347 . S
N134 C135 1.373 . S
C135 C133 1.350 . S
C135 N134 1.373 . S
C135 H149 0.931 . S
C136 O139 1.256 . S
C136 O140 1.255 . S
O137 Co120 2.021 . S
O137 C130 1.259 . S
O138 Co122 2.117 . S
O138 C130 1.258 . S
O139 Co122 2.020 . S
O139 C136 1.256 . S
O140 Co120 2.062 . S
O140 C136 1.255 . S
O141 C121 1.259 . S
O141 Co122 2.021 . S
H142 C133 0.930 . S
H143 C132 0.931 . S
O144 Co120 2.117 . S
O144 C121 1.258 . S
O145 Co120 2.020 . S
O145 C147 1.256 . S
O146 Co122 2.062 . S
O146 C147 1.255 . S
C147 O145 1.256 . S
C147 O146 1.255 . S
H148 C127 0.931 . S
H149 C135 0.931 . S
Co150 N155 2.057 1_565 S
Co150 O167 2.021 . S
Co150 O170 2.062 1_565 S
Co150 O174 2.117 1_565 S
Co150 O175 2.020 . S
C151 O171 1.259 . S
C151 O174 1.258 . S
Co152 N161 2.057 1_545 S
Co152 O168 2.117 1_545 S
Co152 O169 2.020 . S
Co152 O171 2.021 . S
Co152 O176 2.061 1_545 S
C153 N155 1.316 1_565 S
C153 N156 1.347 1_565 S
C153 H158 0.931 . S
C154 N155 1.375 . S
C154 C157 1.350 . S
C154 H159 0.930 . S
N155 Co150 2.057 1_545 S
N155 C153 1.316 1_545 S
N155 C154 1.375 . S
N156 C153 1.347 1_545 S
N156 C157 1.373 . S
C157 C154 1.350 . S
C157 N156 1.373 . S
C157 H178 0.931 . S
H158 C153 0.931 . S
H159 C154 0.930 . S
C160 O167 1.259 . S
C160 O168 1.258 . S
N161 Co152 2.057 1_565 S
N161 C162 1.316 1_565 S
N161 C163 1.375 . S
C162 N161 1.316 1_545 S
C162 N164 1.347 1_545 S
C162 H173 0.931 . S
C163 N161 1.375 . S
C163 C165 1.350 . S
C163 H172 0.930 . S
N164 C162 1.347 1_565 S
N164 C165 1.373 . S
C165 C163 1.350 . S
C165 N164 1.373 . S
C165 H179 0.931 . S
C166 O169 1.256 . S
C166 O170 1.255 . S
O167 Co150 2.021 . S
O167 C160 1.259 . S
O168 Co152 2.117 1_565 S
O168 C160 1.258 . S
O169 Co152 2.020 . S
O169 C166 1.256 . S
O170 Co150 2.062 1_545 S
O170 C166 1.255 . S
O171 C151 1.259 . S
O171 Co152 2.021 . S
H172 C163 0.930 . S
H173 C162 0.931 . S
O174 Co150 2.117 1_545 S
O174 C151 1.258 . S
O175 Co150 2.020 . S
O175 C177 1.256 . S
O176 Co152 2.061 1_565 S
O176 C177 1.255 . S
C177 O175 1.256 . S
C177 O176 1.255 . S
H178 C157 0.931 . S
H179 C165 0.931 . S
Co180 N185 2.057 1_565 S
Co180 O197 2.021 . S
Co180 O200 2.062 1_565 S
Co180 O204 2.117 1_565 S
Co180 O205 2.020 1_556 S
C181 O201 1.259 . S
C181 O204 1.258 . S
Co182 N191 2.057 1_545 S
Co182 O198 2.117 1_545 S
Co182 O199 2.020 . S
Co182 O201 2.021 . S
Co182 O206 2.062 1_546 S
C183 N185 1.316 1_565 S
C183 N186 1.347 1_565 S
C183 H188 0.931 . S
C184 N185 1.375 . S
C184 C187 1.350 . S
C184 H189 0.930 . S
N185 Co180 2.057 1_545 S
N185 C183 1.316 1_545 S
N185 C184 1.375 . S
N186 C183 1.347 1_545 S
N186 C187 1.373 . S
C187 C184 1.350 . S
C187 N186 1.373 . S
C187 H208 0.931 . S
H188 C183 0.931 . S
H189 C184 0.930 . S
C190 O197 1.259 . S
C190 O198 1.258 . S
N191 Co182 2.057 1_565 S
N191 C192 1.316 1_566 S
N191 C193 1.375 . S
C192 N191 1.316 1_544 S
C192 N194 1.347 1_545 S
C192 H203 0.931 . S
C193 N191 1.375 . S
C193 C195 1.350 1_556 S
C193 H202 0.930 . S
N194 C192 1.347 1_565 S
N194 C195 1.373 . S
C195 C193 1.350 1_554 S
C195 N194 1.373 . S
C195 H209 0.931 . S
C196 O199 1.256 . S
C196 O200 1.255 . S
O197 Co180 2.021 . S
O197 C190 1.259 . S
O198 Co182 2.117 1_565 S
O198 C190 1.258 . S
O199 Co182 2.020 . S
O199 C196 1.256 . S
O200 Co180 2.062 1_545 S
O200 C196 1.255 . S
O201 C181 1.259 . S
O201 Co182 2.021 . S
H202 C193 0.930 . S
H203 C192 0.931 . S
O204 Co180 2.117 1_545 S
O204 C181 1.258 . S
O205 Co180 2.020 1_554 S
O205 C207 1.256 . S
O206 Co182 2.062 1_564 S
O206 C207 1.255 . S
C207 O205 1.256 . S
C207 O206 1.255 . S
H208 C187 0.931 . S
H209 C195 0.931 . S
Co210 N215 2.057 . S
Co210 O227 2.021 . S
Co210 O230 2.062 . S
Co210 O234 2.117 . S
Co210 O235 2.020 1_556 S
C211 O231 1.259 . S
C211 O234 1.258 . S
Co212 N221 2.057 . S
Co212 O228 2.117 . S
Co212 O229 2.020 . S
Co212 O231 2.021 . S
Co212 O236 2.062 1_556 S
C213 N215 1.316 . S
C213 N216 1.347 . S
C213 H218 0.931 . S
C214 N215 1.375 . S
C214 C217 1.350 . S
C214 H219 0.930 . S
N215 Co210 2.057 . S
N215 C213 1.316 . S
N215 C214 1.375 . S
N216 C213 1.347 . S
N216 C217 1.373 . S
C217 C214 1.350 . S
C217 N216 1.373 . S
C217 H238 0.931 . S
H218 C213 0.931 . S
H219 C214 0.930 . S
C220 O227 1.259 . S
C220 O228 1.258 . S
N221 Co212 2.057 . S
N221 C222 1.316 1_556 S
N221 C223 1.375 . S
C222 N221 1.316 1_554 S
C222 N224 1.347 . S
C222 H233 0.931 . S
C223 N221 1.375 . S
C223 C225 1.350 1_556 S
C223 H232 0.930 . S
N224 C222 1.347 . S
N224 C225 1.373 . S
C225 C223 1.350 1_554 S
C225 N224 1.373 . S
C225 H239 0.931 . S
C226 O229 1.256 . S
C226 O230 1.255 . S
O227 Co210 2.021 . S
O227 C220 1.259 . S
O228 Co212 2.117 . S
O228 C220 1.258 . S
O229 Co212 2.020 . S
O229 C226 1.256 . S
O230 Co210 2.062 . S
O230 C226 1.255 . S
O231 C211 1.259 . S
O231 Co212 2.021 . S
H232 C223 0.930 . S
H233 C222 0.931 . S
O234 Co210 2.117 . S
O234 C211 1.258 . S
O235 Co210 2.020 1_554 S
O235 C237 1.256 . S
O236 Co212 2.062 1_554 S
O236 C237 1.255 . S
C237 O235 1.256 . S
C237 O236 1.255 . S
H238 C217 0.931 . S
H239 C225 0.931 . S
Co240 N245 2.057 . S
Co240 O257 2.021 . S
Co240 O260 2.062 . S
Co240 O264 2.117 . S
Co240 O265 2.020 . S
C241 O261 1.259 . S
C241 O264 1.258 . S
Co242 N251 2.057 . S
Co242 O258 2.117 . S
Co242 O259 2.020 . S
Co242 O261 2.021 . S
Co242 O266 2.062 . S
C243 N245 1.316 . S
C243 N246 1.347 . S
C243 H248 0.931 . S
C244 N245 1.375 . S
C244 C247 1.350 . S
C244 H249 0.930 . S
N245 Co240 2.057 . S
N245 C243 1.316 . S
N245 C244 1.375 . S
N246 C243 1.347 . S
N246 C247 1.373 . S
C247 C244 1.350 . S
C247 N246 1.373 . S
C247 H268 0.931 . S
H248 C243 0.931 . S
H249 C244 0.930 . S
C250 O257 1.259 . S
C250 O258 1.258 . S
N251 Co242 2.057 . S
N251 C252 1.316 . S
N251 C253 1.375 . S
C252 N251 1.316 . S
C252 N254 1.347 . S
C252 H263 0.931 . S
C253 N251 1.375 . S
C253 C255 1.350 . S
C253 H262 0.930 . S
N254 C252 1.347 . S
N254 C255 1.373 . S
C255 C253 1.350 . S
C255 N254 1.373 . S
C255 H269 0.931 . S
C256 O259 1.256 . S
C256 O260 1.255 . S
O257 Co240 2.021 . S
O257 C250 1.259 . S
O258 Co242 2.117 . S
O258 C250 1.258 . S
O259 Co242 2.020 . S
O259 C256 1.256 . S
O260 Co240 2.062 . S
O260 C256 1.255 . S
O261 C241 1.259 . S
O261 Co242 2.021 . S
H262 C253 0.930 . S
H263 C252 0.931 . S
O264 Co240 2.117 . S
O264 C241 1.258 . S
O265 Co240 2.020 . S
O265 C267 1.256 . S
O266 Co242 2.062 . S
O266 C267 1.255 . S
C267 O265 1.256 . S
C267 O266 1.255 . S
H268 C247 0.931 . S
H269 C255 0.931 . S
Co270 N275 2.057 . S
Co270 O287 2.021 . S
Co270 O290 2.062 . S
Co270 O294 2.117 . S
Co270 O295 2.020 . S
C271 O291 1.259 . S
C271 O294 1.258 . S
Co272 N281 2.057 . S
Co272 O288 2.117 . S
Co272 O289 2.020 . S
Co272 O291 2.021 . S
Co272 O296 2.062 . S
C273 N275 1.316 . S
C273 N276 1.347 . S
C273 H278 0.931 . S
C274 N275 1.375 . S
C274 C277 1.350 . S
C274 H279 0.930 . S
N275 Co270 2.057 . S
N275 C273 1.316 . S
N275 C274 1.375 . S
N276 C273 1.347 . S
N276 C277 1.373 . S
C277 C274 1.350 . S
C277 N276 1.373 . S
C277 H298 0.931 . S
H278 C273 0.931 . S
H279 C274 0.930 . S
C280 O287 1.259 . S
C280 O288 1.258 . S
N281 Co272 2.057 . S
N281 C282 1.316 . S
N281 C283 1.375 . S
C282 N281 1.316 . S
C282 N284 1.347 . S
C282 H293 0.931 . S
C283 N281 1.375 . S
C283 C285 1.350 . S
C283 H292 0.930 . S
N284 C282 1.347 . S
N284 C285 1.373 . S
C285 C283 1.350 . S
C285 N284 1.373 . S
C285 H299 0.931 . S
C286 O289 1.256 . S
C286 O290 1.255 . S
O287 Co270 2.021 . S
O287 C280 1.259 . S
O288 Co272 2.117 . S
O288 C280 1.258 . S
O289 Co272 2.020 . S
O289 C286 1.256 . S
O290 Co270 2.062 . S
O290 C286 1.255 . S
O291 C271 1.259 . S
O291 Co272 2.021 . S
H292 C283 0.930 . S
H293 C282 0.931 . S
O294 Co270 2.117 . S
O294 C271 1.258 . S
O295 Co270 2.020 . S
O295 C297 1.256 . S
O296 Co272 2.062 . S
O296 C297 1.255 . S
C297 O295 1.256 . S
C297 O296 1.255 . S
H298 C277 0.931 . S
H299 C285 0.931 . S
Co300 N305 2.057 . S
Co300 O317 2.021 . S
Co300 O320 2.062 . S
Co300 O324 2.117 . S
Co300 O325 2.020 . S
C301 O321 1.259 . S
C301 O324 1.258 . S
Co302 N311 2.057 . S
Co302 O318 2.117 . S
Co302 O319 2.020 . S
Co302 O321 2.021 . S
Co302 O326 2.062 . S
C303 N305 1.316 . S
C303 N306 1.347 . S
C303 H308 0.931 . S
C304 N305 1.375 . S
C304 C307 1.350 . S
C304 H309 0.930 . S
N305 Co300 2.057 . S
N305 C303 1.316 . S
N305 C304 1.375 . S
N306 C303 1.347 . S
N306 C307 1.373 . S
C307 C304 1.350 . S
C307 N306 1.373 . S
C307 H328 0.931 . S
H308 C303 0.931 . S
H309 C304 0.930 . S
C310 O317 1.259 . S
C310 O318 1.258 . S
N311 Co302 2.057 . S
N311 C312 1.316 . S
N311 C313 1.375 . S
C312 N311 1.316 . S
C312 N314 1.347 . S
C312 H323 0.931 . S
C313 N311 1.375 . S
C313 C315 1.350 . S
C313 H322 0.930 . S
N314 C312 1.347 . S
N314 C315 1.373 . S
C315 C313 1.350 . S
C315 N314 1.373 . S
C315 H329 0.931 . S
C316 O319 1.256 . S
C316 O320 1.255 . S
O317 Co300 2.021 . S
O317 C310 1.259 . S
O318 Co302 2.117 . S
O318 C310 1.258 . S
O319 Co302 2.020 . S
O319 C316 1.256 . S
O320 Co300 2.062 . S
O320 C316 1.255 . S
O321 C301 1.259 . S
O321 Co302 2.021 . S
H322 C313 0.930 . S
H323 C312 0.931 . S
O324 Co300 2.117 . S
O324 C301 1.258 . S
O325 Co300 2.020 . S
O325 C327 1.256 . S
O326 Co302 2.062 . S
O326 C327 1.255 . S
C327 O325 1.256 . S
C327 O326 1.255 . S
H328 C307 0.931 . S
H329 C315 0.931 . S
Co330 N335 2.057 . S
Co330 O347 2.021 . S
Co330 O350 2.062 . S
Co330 O354 2.117 . S
Co330 O355 2.020 . S
C331 O351 1.259 . S
C331 O354 1.258 . S
Co332 N341 2.057 . S
Co332 O348 2.117 . S
Co332 O349 2.020 . S
Co332 O351 2.021 . S
Co332 O356 2.062 . S
C333 N335 1.316 . S
C333 N336 1.347 . S
C333 H338 0.931 . S
C334 N335 1.375 . S
C334 C337 1.350 . S
C334 H339 0.930 . S
N335 Co330 2.057 . S
N335 C333 1.316 . S
N335 C334 1.375 . S
N336 C333 1.347 . S
N336 C337 1.373 . S
C337 C334 1.350 . S
C337 N336 1.373 . S
C337 H358 0.931 . S
H338 C333 0.931 . S
H339 C334 0.930 . S
C340 O347 1.259 . S
C340 O348 1.258 . S
N341 Co332 2.057 . S
N341 C342 1.316 . S
N341 C343 1.375 . S
C342 N341 1.316 . S
C342 N344 1.347 . S
C342 H353 0.931 . S
C343 N341 1.375 . S
C343 C345 1.350 . S
C343 H352 0.930 . S
N344 C342 1.347 . S
N344 C345 1.373 . S
C345 C343 1.350 . S
C345 N344 1.373 . S
C345 H359 0.931 . S
C346 O349 1.256 . S
C346 O350 1.255 . S
O347 Co330 2.021 . S
O347 C340 1.259 . S
O348 Co332 2.117 . S
O348 C340 1.258 . S
O349 Co332 2.020 . S
O349 C346 1.256 . S
O350 Co330 2.062 . S
O350 C346 1.255 . S
O351 C331 1.259 . S
O351 Co332 2.021 . S
H352 C343 0.930 . S
H353 C342 0.931 . S
O354 Co330 2.117 . S
O354 C331 1.258 . S
O355 Co330 2.020 . S
O355 C357 1.256 . S
O356 Co332 2.062 . S
O356 C357 1.255 . S
C357 O355 1.256 . S
C357 O356 1.255 . S
H358 C337 0.931 . S
H359 C345 0.931 . S
Co360 N365 2.057 . S
Co360 O377 2.021 . S
Co360 O380 2.062 . S
Co360 O384 2.117 . S
Co360 O385 2.020 . S
C361 O381 1.259 . S
C361 O384 1.258 . S
Co362 N371 2.057 . S
Co362 O378 2.117 . S
Co362 O379 2.020 . S
Co362 O381 2.021 . S
Co362 O386 2.062 . S
C363 N365 1.316 . S
C363 N366 1.347 . S
C363 H368 0.931 . S
C364 N365 1.375 . S
C364 C367 1.350 . S
C364 H369 0.930 . S
N365 Co360 2.057 . S
N365 C363 1.316 . S
N365 C364 1.375 . S
N366 C363 1.347 . S
N366 C367 1.373 . S
C367 C364 1.350 . S
C367 N366 1.373 . S
C367 H388 0.931 . S
H368 C363 0.931 . S
H369 C364 0.930 . S
C370 O377 1.259 . S
C370 O378 1.258 . S
N371 Co362 2.057 . S
N371 C372 1.316 . S
N371 C373 1.375 . S
C372 N371 1.316 . S
C372 N374 1.347 . S
C372 H383 0.931 . S
C373 N371 1.375 . S
C373 C375 1.350 . S
C373 H382 0.930 . S
N374 C372 1.347 . S
N374 C375 1.373 . S
C375 C373 1.350 . S
C375 N374 1.373 . S
C375 H389 0.931 . S
C376 O379 1.256 . S
C376 O380 1.255 . S
O377 Co360 2.021 . S
O377 C370 1.259 . S
O378 Co362 2.117 . S
O378 C370 1.258 . S
O379 Co362 2.020 . S
O379 C376 1.256 . S
O380 Co360 2.062 . S
O380 C376 1.255 . S
O381 C361 1.259 . S
O381 Co362 2.021 . S
H382 C373 0.930 . S
H383 C372 0.931 . S
O384 Co360 2.117 . S
O384 C361 1.258 . S
O385 Co360 2.020 . S
O385 C387 1.256 . S
O386 Co362 2.062 . S
O386 C387 1.255 . S
C387 O385 1.256 . S
C387 O386 1.255 . S
H388 C367 0.931 . S
H389 C375 0.931 . S
Co390 N395 2.057 . S
Co390 O407 2.021 . S
Co390 O410 2.062 . S
Co390 O414 2.117 . S
Co390 O415 2.020 . S
C391 O411 1.259 . S
C391 O414 1.258 . S
Co392 N401 2.057 . S
Co392 O408 2.117 . S
Co392 O409 2.020 . S
Co392 O411 2.021 . S
Co392 O416 2.062 . S
C393 N395 1.316 . S
C393 N396 1.347 . S
C393 H398 0.931 . S
C394 N395 1.375 . S
C394 C397 1.350 . S
C394 H399 0.930 . S
N395 Co390 2.057 . S
N395 C393 1.316 . S
N395 C394 1.375 . S
N396 C393 1.347 . S
N396 C397 1.373 . S
C397 C394 1.350 . S
C397 N396 1.373 . S
C397 H418 0.931 . S
H398 C393 0.931 . S
H399 C394 0.930 . S
C400 O407 1.259 . S
C400 O408 1.258 . S
N401 Co392 2.057 . S
N401 C402 1.316 . S
N401 C403 1.375 . S
C402 N401 1.316 . S
C402 N404 1.347 . S
C402 H413 0.931 . S
C403 N401 1.375 . S
C403 C405 1.350 . S
C403 H412 0.930 . S
N404 C402 1.347 . S
N404 C405 1.373 . S
C405 C403 1.350 . S
C405 N404 1.373 . S
C405 H419 0.931 . S
C406 O409 1.256 . S
C406 O410 1.255 . S
O407 Co390 2.021 . S
O407 C400 1.259 . S
O408 Co392 2.117 . S
O408 C400 1.258 . S
O409 Co392 2.020 . S
O409 C406 1.256 . S
O410 Co390 2.062 . S
O410 C406 1.255 . S
O411 C391 1.259 . S
O411 Co392 2.021 . S
H412 C403 0.930 . S
H413 C402 0.931 . S
O414 Co390 2.117 . S
O414 C391 1.258 . S
O415 Co390 2.020 . S
O415 C417 1.256 . S
O416 Co392 2.062 . S
O416 C417 1.255 . S
C417 O415 1.256 . S
C417 O416 1.255 . S
H418 C397 0.931 . S
H419 C405 0.931 . S
Co420 N425 2.057 . S
Co420 O437 2.021 . S
Co420 O440 2.062 . S
Co420 O444 2.117 . S
Co420 O445 2.020 . S
C421 O441 1.259 . S
C421 O444 1.258 . S
Co422 N431 2.057 . S
Co422 O438 2.117 . S
Co422 O439 2.020 . S
Co422 O441 2.021 . S
Co422 O446 2.062 . S
C423 N425 1.316 . S
C423 N426 1.347 . S
C423 H428 0.931 . S
C424 N425 1.375 . S
C424 C427 1.350 . S
C424 H429 0.930 . S
N425 Co420 2.057 . S
N425 C423 1.316 . S
N425 C424 1.375 . S
N426 C423 1.347 . S
N426 C427 1.373 . S
C427 C424 1.350 . S
C427 N426 1.373 . S
C427 H448 0.931 . S
H428 C423 0.931 . S
H429 C424 0.930 . S
C430 O437 1.259 . S
C430 O438 1.258 . S
N431 Co422 2.057 . S
N431 C432 1.316 . S
N431 C433 1.375 . S
C432 N431 1.316 . S
C432 N434 1.347 . S
C432 H443 0.931 . S
C433 N431 1.375 . S
C433 C435 1.350 . S
C433 H442 0.930 . S
N434 C432 1.347 . S
N434 C435 1.373 . S
C435 C433 1.350 . S
C435 N434 1.373 . S
C435 H449 0.931 . S
C436 O439 1.256 . S
C436 O440 1.255 . S
O437 Co420 2.021 . S
O437 C430 1.259 . S
O438 Co422 2.117 . S
O438 C430 1.258 . S
O439 Co422 2.020 . S
O439 C436 1.256 . S
O440 Co420 2.062 . S
O440 C436 1.255 . S
O441 C421 1.259 . S
O441 Co422 2.021 . S
H442 C433 0.930 . S
H443 C432 0.931 . S
O444 Co420 2.117 . S
O444 C421 1.258 . S
O445 Co420 2.020 . S
O445 C447 1.256 . S
O446 Co422 2.062 . S
O446 C447 1.255 . S
C447 O445 1.256 . S
C447 O446 1.255 . S
H448 C427 0.931 . S
H449 C435 0.931 . S
Co450 N455 2.057 . S
Co450 O467 2.021 . S
Co450 O470 2.062 . S
Co450 O474 2.117 . S
Co450 O475 2.020 . S
C451 O471 1.259 . S
C451 O474 1.258 . S
Co452 N461 2.057 . S
Co452 O468 2.117 . S
Co452 O469 2.020 . S
Co452 O471 2.021 . S
Co452 O476 2.062 . S
C453 N455 1.316 . S
C453 N456 1.347 . S
C453 H458 0.931 . S
C454 N455 1.375 . S
C454 C457 1.350 . S
C454 H459 0.930 . S
N455 Co450 2.057 . S
N455 C453 1.316 . S
N455 C454 1.375 . S
N456 C453 1.347 . S
N456 C457 1.373 . S
C457 C454 1.350 . S
C457 N456 1.373 . S
C457 H478 0.931 . S
H458 C453 0.931 . S
H459 C454 0.930 . S
C460 O467 1.259 . S
C460 O468 1.258 . S
N461 Co452 2.057 . S
N461 C462 1.316 . S
N461 C463 1.375 . S
C462 N461 1.316 . S
C462 N464 1.347 . S
C462 H473 0.931 . S
C463 N461 1.375 . S
C463 C465 1.350 . S
C463 H472 0.930 . S
N464 C462 1.347 . S
N464 C465 1.373 . S
C465 C463 1.350 . S
C465 N464 1.373 . S
C465 H479 0.931 . S
C466 O469 1.256 . S
C466 O470 1.255 . S
O467 Co450 2.021 . S
O467 C460 1.259 . S
O468 Co452 2.117 . S
O468 C460 1.258 . S
O469 Co452 2.020 . S
O469 C466 1.256 . S
O470 Co450 2.062 . S
O470 C466 1.255 . S
O471 C451 1.259 . S
O471 Co452 2.021 . S
H472 C463 0.930 . S
H473 C462 0.931 . S
O474 Co450 2.117 . S
O474 C451 1.258 . S
O475 Co450 2.020 . S
O475 C477 1.256 . S
O476 Co452 2.062 . S
O476 C477 1.255 . S
C477 O475 1.256 . S
C477 O476 1.255 . S
H478 C457 0.931 . S
H479 C465 0.931 . S
Co480 N485 2.057 . S
Co480 O497 2.021 . S
Co480 O500 2.062 . S
Co480 O504 2.117 . S
Co480 O505 2.020 . S
C481 O501 1.259 . S
C481 O504 1.258 . S
Co482 N491 2.057 . S
Co482 O498 2.117 . S
Co482 O499 2.020 . S
Co482 O501 2.021 . S
Co482 O506 2.062 . S
C483 N485 1.316 . S
C483 N486 1.347 . S
C483 H488 0.931 . S
C484 N485 1.375 . S
C484 C487 1.350 . S
C484 H489 0.930 . S
N485 Co480 2.057 . S
N485 C483 1.316 . S
N485 C484 1.375 . S
N486 C483 1.347 . S
N486 C487 1.373 . S
C487 C484 1.350 . S
C487 N486 1.373 . S
C487 H508 0.931 . S
H488 C483 0.931 . S
H489 C484 0.930 . S
C490 O497 1.259 . S
C490 O498 1.258 . S
N491 Co482 2.057 . S
N491 C492 1.316 . S
N491 C493 1.375 . S
C492 N491 1.316 . S
C492 N494 1.347 . S
C492 H503 0.931 . S
C493 N491 1.375 . S
C493 C495 1.350 . S
C493 H502 0.930 . S
N494 C492 1.347 . S
N494 C495 1.373 . S
C495 C493 1.350 . S
C495 N494 1.373 . S
C495 H509 0.931 . S
C496 O499 1.256 . S
C496 O500 1.255 . S
O497 Co480 2.021 . S
O497 C490 1.259 . S
O498 Co482 2.117 . S
O498 C490 1.258 . S
O499 Co482 2.020 . S
O499 C496 1.256 . S
O500 Co480 2.062 . S
O500 C496 1.255 . S
O501 C481 1.259 . S
O501 Co482 2.021 . S
H502 C493 0.930 . S
H503 C492 0.931 . S
O504 Co480 2.117 . S
O504 C481 1.258 . S
O505 Co480 2.020 . S
O505 C507 1.256 . S
O506 Co482 2.062 . S
O506 C507 1.255 . S
C507 O505 1.256 . S
C507 O506 1.255 . S
H508 C487 0.931 . S
H509 C495 0.931 . S
Co510 N515 2.057 1_565 S
Co510 O527 2.021 . S
Co510 O530 2.062 1_565 S
Co510 O534 2.117 1_565 S
Co510 O535 2.020 . S
C511 O531 1.259 . S
C511 O534 1.258 . S
Co512 N521 2.057 1_545 S
Co512 O528 2.117 1_545 S
Co512 O529 2.020 . S
Co512 O531 2.021 . S
Co512 O536 2.062 1_545 S
C513 N515 1.316 1_565 S
C513 N516 1.347 1_565 S
C513 H518 0.931 . S
C514 N515 1.375 . S
C514 C517 1.350 . S
C514 H519 0.930 . S
N515 Co510 2.057 1_545 S
N515 C513 1.316 1_545 S
N515 C514 1.375 . S
N516 C513 1.347 1_545 S
N516 C517 1.373 . S
C517 C514 1.350 . S
C517 N516 1.373 . S
C517 H538 0.931 . S
H518 C513 0.931 . S
H519 C514 0.930 . S
C520 O527 1.259 . S
C520 O528 1.258 . S
N521 Co512 2.057 1_565 S
N521 C522 1.316 1_565 S
N521 C523 1.375 . S
C522 N521 1.316 1_545 S
C522 N524 1.347 1_545 S
C522 H533 0.931 . S
C523 N521 1.375 . S
C523 C525 1.350 . S
C523 H532 0.930 . S
N524 C522 1.347 1_565 S
N524 C525 1.373 . S
C525 C523 1.350 . S
C525 N524 1.373 . S
C525 H539 0.931 . S
C526 O529 1.256 . S
C526 O530 1.255 . S
O527 Co510 2.021 . S
O527 C520 1.259 . S
O528 Co512 2.117 1_565 S
O528 C520 1.258 . S
O529 Co512 2.020 . S
O529 C526 1.256 . S
O530 Co510 2.062 1_545 S
O530 C526 1.255 . S
O531 C511 1.259 . S
O531 Co512 2.021 . S
H532 C523 0.930 . S
H533 C522 0.931 . S
O534 Co510 2.117 1_545 S
O534 C511 1.258 . S
O535 Co510 2.020 . S
O535 C537 1.256 . S
O536 Co512 2.062 1_565 S
O536 C537 1.255 . S
C537 O535 1.256 . S
C537 O536 1.255 . S
H538 C517 0.931 . S
H539 C525 0.931 . S
Co540 N545 2.057 1_565 S
Co540 O557 2.021 . S
Co540 O560 2.061 1_565 S
Co540 O564 2.117 1_565 S
Co540 O565 2.020 . S
C541 O561 1.259 . S
C541 O564 1.258 . S
Co542 N551 2.057 1_545 S
Co542 O558 2.117 1_545 S
Co542 O559 2.020 . S
Co542 O561 2.021 . S
Co542 O566 2.062 1_545 S
C543 N545 1.316 1_565 S
C543 N546 1.347 1_565 S
C543 H548 0.931 . S
C544 N545 1.375 . S
C544 C547 1.350 . S
C544 H549 0.930 . S
N545 Co540 2.057 1_545 S
N545 C543 1.316 1_545 S
N545 C544 1.375 . S
N546 C543 1.347 1_545 S
N546 C547 1.373 . S
C547 C544 1.350 . S
C547 N546 1.373 . S
C547 H568 0.931 . S
H548 C543 0.931 . S
H549 C544 0.930 . S
C550 O557 1.259 . S
C550 O558 1.258 . S
N551 Co542 2.057 1_565 S
N551 C552 1.316 1_565 S
N551 C553 1.375 . S
C552 N551 1.316 1_545 S
C552 N554 1.347 1_545 S
C552 H563 0.931 . S
C553 N551 1.375 . S
C553 C555 1.350 . S
C553 H562 0.930 . S
N554 C552 1.347 1_565 S
N554 C555 1.373 . S
C555 C553 1.350 . S
C555 N554 1.373 . S
C555 H569 0.931 . S
C556 O559 1.256 . S
C556 O560 1.255 . S
O557 Co540 2.021 . S
O557 C550 1.259 . S
O558 Co542 2.117 1_565 S
O558 C550 1.258 . S
O559 Co542 2.020 . S
O559 C556 1.256 . S
O560 Co540 2.061 1_545 S
O560 C556 1.255 . S
O561 C541 1.259 . S
O561 Co542 2.021 . S
H562 C553 0.930 . S
H563 C552 0.931 . S
O564 Co540 2.117 1_545 S
O564 C541 1.258 . S
O565 Co540 2.020 . S
O565 C567 1.256 . S
O566 Co542 2.062 1_565 S
O566 C567 1.255 . S
C567 O565 1.256 . S
C567 O566 1.255 . S
H568 C547 0.931 . S
H569 C555 0.931 . S
Co570 N575 2.057 . S
Co570 O587 2.021 . S
Co570 O590 2.062 . S
Co570 O594 2.117 . S
Co570 O595 2.020 . S
C571 O591 1.259 . S
C571 O594 1.258 . S
Co572 N581 2.057 . S
Co572 O588 2.117 . S
Co572 O589 2.020 . S
Co572 O591 2.021 . S
Co572 O596 2.062 . S
C573 N575 1.316 . S
C573 N576 1.347 . S
C573 H578 0.931 . S
C574 N575 1.375 . S
C574 C577 1.350 . S
C574 H579 0.930 . S
N575 Co570 2.057 . S
N575 C573 1.316 . S
N575 C574 1.375 . S
N576 C573 1.347 . S
N576 C577 1.373 . S
C577 C574 1.350 . S
C577 N576 1.373 . S
C577 H598 0.931 . S
H578 C573 0.931 . S
H579 C574 0.930 . S
C580 O587 1.259 . S
C580 O588 1.258 . S
N581 Co572 2.057 . S
N581 C582 1.316 . S
N581 C583 1.375 . S
C582 N581 1.316 . S
C582 N584 1.347 . S
C582 H593 0.931 . S
C583 N581 1.375 . S
C583 C585 1.350 . S
C583 H592 0.930 . S
N584 C582 1.347 . S
N584 C585 1.373 . S
C585 C583 1.350 . S
C585 N584 1.373 . S
C585 H599 0.931 . S
C586 O589 1.256 . S
C586 O590 1.255 . S
O587 Co570 2.021 . S
O587 C580 1.259 . S
O588 Co572 2.117 . S
O588 C580 1.258 . S
O589 Co572 2.020 . S
O589 C586 1.256 . S
O590 Co570 2.062 . S
O590 C586 1.255 . S
O591 C571 1.259 . S
O591 Co572 2.021 . S
H592 C583 0.930 . S
H593 C582 0.931 . S
O594 Co570 2.117 . S
O594 C571 1.258 . S
O595 Co570 2.020 . S
O595 C597 1.256 . S
O596 Co572 2.062 . S
O596 C597 1.255 . S
C597 O595 1.256 . S
C597 O596 1.255 . S
H598 C577 0.931 . S
H599 C585 0.931 . S
Co600 N605 2.057 . S
Co600 O617 2.021 . S
Co600 O620 2.062 . S
Co600 O624 2.117 . S
Co600 O625 2.020 . S
C601 O621 1.259 . S
C601 O624 1.258 . S
Co602 N611 2.057 . S
Co602 O618 2.117 . S
Co602 O619 2.020 . S
Co602 O621 2.021 . S
Co602 O626 2.062 . S
C603 N605 1.316 . S
C603 N606 1.347 . S
C603 H608 0.931 . S
C604 N605 1.375 . S
C604 C607 1.350 . S
C604 H609 0.930 . S
N605 Co600 2.057 . S
N605 C603 1.316 . S
N605 C604 1.375 . S
N606 C603 1.347 . S
N606 C607 1.373 . S
C607 C604 1.350 . S
C607 N606 1.373 . S
C607 H628 0.931 . S
H608 C603 0.931 . S
H609 C604 0.930 . S
C610 O617 1.259 . S
C610 O618 1.258 . S
N611 Co602 2.057 . S
N611 C612 1.316 . S
N611 C613 1.375 . S
C612 N611 1.316 . S
C612 N614 1.347 . S
C612 H623 0.931 . S
C613 N611 1.375 . S
C613 C615 1.350 . S
C613 H622 0.930 . S
N614 C612 1.347 . S
N614 C615 1.373 . S
C615 C613 1.350 . S
C615 N614 1.373 . S
C615 H629 0.931 . S
C616 O619 1.256 . S
C616 O620 1.255 . S
O617 Co600 2.021 . S
O617 C610 1.259 . S
O618 Co602 2.117 . S
O618 C610 1.258 . S
O619 Co602 2.020 . S
O619 C616 1.256 . S
O620 Co600 2.062 . S
O620 C616 1.255 . S
O621 C601 1.259 . S
O621 Co602 2.021 . S
H622 C613 0.930 . S
H623 C612 0.931 . S
O624 Co600 2.117 . S
O624 C601 1.258 . S
O625 Co600 2.020 . S
O625 C627 1.256 . S
O626 Co602 2.062 . S
O626 C627 1.255 . S
C627 O625 1.256 . S
C627 O626 1.255 . S
H628 C607 0.931 . S
H629 C615 0.931 . S
Co630 N635 2.057 1_565 S
Co630 O647 2.021 . S
Co630 O650 2.062 1_565 S
Co630 O654 2.117 1_565 S
Co630 O655 2.020 . S
C631 O651 1.259 . S
C631 O654 1.258 . S
Co632 N641 2.057 1_545 S
Co632 O648 2.117 1_545 S
Co632 O649 2.020 . S
Co632 O651 2.021 . S
Co632 O656 2.062 1_545 S
C633 N635 1.316 1_565 S
C633 N636 1.347 1_565 S
C633 H638 0.931 . S
C634 N635 1.375 . S
C634 C637 1.350 . S
C634 H639 0.930 . S
N635 Co630 2.057 1_545 S
N635 C633 1.316 1_545 S
N635 C634 1.375 . S
N636 C633 1.347 1_545 S
N636 C637 1.373 . S
C637 C634 1.350 . S
C637 N636 1.373 . S
C637 H658 0.931 . S
H638 C633 0.931 . S
H639 C634 0.930 . S
C640 O647 1.259 . S
C640 O648 1.258 . S
N641 Co632 2.057 1_565 S
N641 C642 1.316 1_565 S
N641 C643 1.375 . S
C642 N641 1.316 1_545 S
C642 N644 1.347 1_545 S
C642 H653 0.931 . S
C643 N641 1.375 . S
C643 C645 1.350 . S
C643 H652 0.930 . S
N644 C642 1.347 1_565 S
N644 C645 1.373 . S
C645 C643 1.350 . S
C645 N644 1.373 . S
C645 H659 0.931 . S
C646 O649 1.256 . S
C646 O650 1.255 . S
O647 Co630 2.021 . S
O647 C640 1.259 . S
O648 Co632 2.117 1_565 S
O648 C640 1.258 . S
O649 Co632 2.020 . S
O649 C646 1.256 . S
O650 Co630 2.062 1_545 S
O650 C646 1.255 . S
O651 C631 1.259 . S
O651 Co632 2.021 . S
H652 C643 0.930 . S
H653 C642 0.931 . S
O654 Co630 2.117 1_545 S
O654 C631 1.258 . S
O655 Co630 2.020 . S
O655 C657 1.256 . S
O656 Co632 2.062 1_565 S
O656 C657 1.255 . S
C657 O655 1.256 . S
C657 O656 1.255 . S
H658 C637 0.931 . S
H659 C645 0.931 . S
Co660 N665 2.057 1_565 S
Co660 O677 2.021 . S
Co660 O680 2.062 1_565 S
Co660 O684 2.117 1_565 S
Co660 O685 2.020 . S
C661 O681 1.259 . S
C661 O684 1.258 . S
Co662 N671 2.057 1_545 S
Co662 O678 2.117 1_545 S
Co662 O679 2.020 . S
Co662 O681 2.021 . S
Co662 O686 2.061 1_545 S
C663 N665 1.316 1_565 S
C663 N666 1.347 1_565 S
C663 H668 0.931 . S
C664 N665 1.375 . S
C664 C667 1.350 . S
C664 H669 0.930 . S
N665 Co660 2.057 1_545 S
N665 C663 1.316 1_545 S
N665 C664 1.375 . S
N666 C663 1.347 1_545 S
N666 C667 1.373 . S
C667 C664 1.350 . S
C667 N666 1.373 . S
C667 H688 0.931 . S
H668 C663 0.931 . S
H669 C664 0.930 . S
C670 O677 1.259 . S
C670 O678 1.258 . S
N671 Co662 2.057 1_565 S
N671 C672 1.316 1_565 S
N671 C673 1.375 . S
C672 N671 1.316 1_545 S
C672 N674 1.347 1_545 S
C672 H683 0.931 . S
C673 N671 1.375 . S
C673 C675 1.350 . S
C673 H682 0.930 . S
N674 C672 1.347 1_565 S
N674 C675 1.373 . S
C675 C673 1.350 . S
C675 N674 1.373 . S
C675 H689 0.931 . S
C676 O679 1.256 . S
C676 O680 1.255 . S
O677 Co660 2.021 . S
O677 C670 1.259 . S
O678 Co662 2.117 1_565 S
O678 C670 1.258 . S
O679 Co662 2.020 . S
O679 C676 1.256 . S
O680 Co660 2.062 1_545 S
O680 C676 1.255 . S
O681 C661 1.259 . S
O681 Co662 2.021 . S
H682 C673 0.930 . S
H683 C672 0.931 . S
O684 Co660 2.117 1_545 S
O684 C661 1.258 . S
O685 Co660 2.020 . S
O685 C687 1.256 . S
O686 Co662 2.061 1_565 S
O686 C687 1.255 . S
C687 O685 1.256 . S
C687 O686 1.255 . S
H688 C667 0.931 . S
H689 C675 0.931 . S
Co690 N695 2.057 . S
Co690 O707 2.021 . S
Co690 O710 2.062 . S
Co690 O714 2.117 . S
Co690 O715 2.020 . S
C691 O711 1.259 . S
C691 O714 1.258 . S
Co692 N701 2.057 . S
Co692 O708 2.117 . S
Co692 O709 2.020 . S
Co692 O711 2.021 . S
Co692 O716 2.062 . S
C693 N695 1.316 . S
C693 N696 1.347 . S
C693 H698 0.931 . S
C694 N695 1.375 . S
C694 C697 1.350 . S
C694 H699 0.930 . S
N695 Co690 2.057 . S
N695 C693 1.316 . S
N695 C694 1.375 . S
N696 C693 1.347 . S
N696 C697 1.373 . S
C697 C694 1.350 . S
C697 N696 1.373 . S
C697 H718 0.931 . S
H698 C693 0.931 . S
H699 C694 0.930 . S
C700 O707 1.259 . S
C700 O708 1.258 . S
N701 Co692 2.057 . S
N701 C702 1.316 . S
N701 C703 1.375 . S
C702 N701 1.316 . S
C702 N704 1.347 . S
C702 H713 0.931 . S
C703 N701 1.375 . S
C703 C705 1.350 . S
C703 H712 0.930 . S
N704 C702 1.347 . S
N704 C705 1.373 . S
C705 C703 1.350 . S
C705 N704 1.373 . S
C705 H719 0.931 . S
C706 O709 1.256 . S
C706 O710 1.255 . S
O707 Co690 2.021 . S
O707 C700 1.259 . S
O708 Co692 2.117 . S
O708 C700 1.258 . S
O709 Co692 2.020 . S
O709 C706 1.256 . S
O710 Co690 2.062 . S
O710 C706 1.255 . S
O711 C691 1.259 . S
O711 Co692 2.021 . S
H712 C703 0.930 . S
H713 C702 0.931 . S
O714 Co690 2.117 . S
O714 C691 1.258 . S
O715 Co690 2.020 . S
O715 C717 1.256 . S
O716 Co692 2.062 . S
O716 C717 1.255 . S
C717 O715 1.256 . S
C717 O716 1.255 . S
H718 C697 0.931 . S
H719 C705 0.931 . S
Co720 N725 2.057 . S
Co720 O737 2.021 . S
Co720 O740 2.062 . S
Co720 O744 2.117 . S
Co720 O745 2.020 . S
C721 O741 1.259 . S
C721 O744 1.258 . S
Co722 N731 2.057 . S
Co722 O738 2.117 . S
Co722 O739 2.020 . S
Co722 O741 2.021 . S
Co722 O746 2.062 . S
C723 N725 1.316 . S
C723 N726 1.347 . S
C723 H728 0.931 . S
C724 N725 1.375 . S
C724 C727 1.350 . S
C724 H729 0.930 . S
N725 Co720 2.057 . S
N725 C723 1.316 . S
N725 C724 1.375 . S
N726 C723 1.347 . S
N726 C727 1.373 . S
C727 C724 1.350 . S
C727 N726 1.373 . S
C727 H748 0.931 . S
H728 C723 0.931 . S
H729 C724 0.930 . S
C730 O737 1.259 . S
C730 O738 1.258 . S
N731 Co722 2.057 . S
N731 C732 1.316 . S
N731 C733 1.375 . S
C732 N731 1.316 . S
C732 N734 1.347 . S
C732 H743 0.931 . S
C733 N731 1.375 . S
C733 C735 1.350 . S
C733 H742 0.930 . S
N734 C732 1.347 . S
N734 C735 1.373 . S
C735 C733 1.350 . S
C735 N734 1.373 . S
C735 H749 0.931 . S
C736 O739 1.256 . S
C736 O740 1.255 . S
O737 Co720 2.021 . S
O737 C730 1.259 . S
O738 Co722 2.117 . S
O738 C730 1.258 . S
O739 Co722 2.020 . S
O739 C736 1.256 . S
O740 Co720 2.062 . S
O740 C736 1.255 . S
O741 C721 1.259 . S
O741 Co722 2.021 . S
H742 C733 0.930 . S
H743 C732 0.931 . S
O744 Co720 2.117 . S
O744 C721 1.258 . S
O745 Co720 2.020 . S
O745 C747 1.256 . S
O746 Co722 2.062 . S
O746 C747 1.255 . S
C747 O745 1.256 . S
C747 O746 1.255 . S
H748 C727 0.931 . S
H749 C735 0.931 . S
Co750 N755 2.057 . S
Co750 O767 2.021 . S
Co750 O770 2.062 . S
Co750 O774 2.117 . S
Co750 O775 2.020 . S
C751 O771 1.259 . S
C751 O774 1.258 . S
Co752 N761 2.057 . S
Co752 O768 2.117 . S
Co752 O769 2.020 . S
Co752 O771 2.021 . S
Co752 O776 2.062 . S
C753 N755 1.316 . S
C753 N756 1.347 . S
C753 H758 0.931 . S
C754 N755 1.375 . S
C754 C757 1.350 . S
C754 H759 0.930 . S
N755 Co750 2.057 . S
N755 C753 1.316 . S
N755 C754 1.375 . S
N756 C753 1.347 . S
N756 C757 1.373 . S
C757 C754 1.350 . S
C757 N756 1.373 . S
C757 H778 0.931 . S
H758 C753 0.931 . S
H759 C754 0.930 . S
C760 O767 1.259 . S
C760 O768 1.258 . S
N761 Co752 2.057 . S
N761 C762 1.316 . S
N761 C763 1.375 . S
C762 N761 1.316 . S
C762 N764 1.347 . S
C762 H773 0.931 . S
C763 N761 1.375 . S
C763 C765 1.350 . S
C763 H772 0.930 . S
N764 C762 1.347 . S
N764 C765 1.373 . S
C765 C763 1.350 . S
C765 N764 1.373 . S
C765 H779 0.931 . S
C766 O769 1.256 . S
C766 O770 1.255 . S
O767 Co750 2.021 . S
O767 C760 1.259 . S
O768 Co752 2.117 . S
O768 C760 1.258 . S
O769 Co752 2.020 . S
O769 C766 1.256 . S
O770 Co750 2.062 . S
O770 C766 1.255 . S
O771 C751 1.259 . S
O771 Co752 2.021 . S
H772 C763 0.930 . S
H773 C762 0.931 . S
O774 Co750 2.117 . S
O774 C751 1.258 . S
O775 Co750 2.020 . S
O775 C777 1.256 . S
O776 Co752 2.062 . S
O776 C777 1.255 . S
C777 O775 1.256 . S
C777 O776 1.255 . S
H778 C757 0.931 . S
H779 C765 0.931 . S
Co780 N785 2.057 . S
Co780 O797 2.021 . S
Co780 O800 2.062 1_554 S
Co780 O804 2.117 . S
Co780 O805 2.020 . S
C781 O801 1.259 . S
C781 O804 1.258 . S
Co782 N791 2.057 . S
Co782 O798 2.117 . S
Co782 O799 2.020 1_554 S
Co782 O801 2.021 . S
Co782 O806 2.062 . S
C783 N785 1.316 1_556 S
C783 N786 1.347 . S
C783 H788 0.931 . S
C784 N785 1.375 . S
C784 C787 1.350 1_554 S
C784 H789 0.930 . S
N785 Co780 2.057 . S
N785 C783 1.316 1_554 S
N785 C784 1.375 . S
N786 C783 1.347 . S
N786 C787 1.373 . S
C787 C784 1.350 1_556 S
C787 N786 1.373 . S
C787 H808 0.931 . S
H788 C783 0.931 . S
H789 C784 0.930 . S
C790 O797 1.259 . S
C790 O798 1.258 . S
N791 Co782 2.057 . S
N791 C792 1.316 . S
N791 C793 1.375 . S
C792 N791 1.316 . S
C792 N794 1.347 . S
C792 H803 0.931 . S
C793 N791 1.375 . S
C793 C795 1.350 . S
C793 H802 0.930 . S
N794 C792 1.347 . S
N794 C795 1.373 . S
C795 C793 1.350 . S
C795 N794 1.373 . S
C795 H809 0.931 . S
C796 O799 1.256 . S
C796 O800 1.255 . S
O797 Co780 2.021 . S
O797 C790 1.259 . S
O798 Co782 2.117 . S
O798 C790 1.258 . S
O799 Co782 2.020 1_556 S
O799 C796 1.256 . S
O800 Co780 2.062 1_556 S
O800 C796 1.255 . S
O801 C781 1.259 . S
O801 Co782 2.021 . S
H802 C793 0.930 . S
H803 C792 0.931 . S
O804 Co780 2.117 . S
O804 C781 1.258 . S
O805 Co780 2.020 . S
O805 C807 1.256 . S
O806 Co782 2.062 . S
O806 C807 1.255 . S
C807 O805 1.256 . S
C807 O806 1.255 . S
H808 C787 0.931 . S
H809 C795 0.931 . S
Co810 N815 2.057 . S
Co810 O827 2.021 . S
Co810 O830 2.062 1_554 S
Co810 O834 2.117 . S
Co810 O835 2.020 . S
C811 O831 1.259 . S
C811 O834 1.258 . S
Co812 N821 2.057 . S
Co812 O828 2.117 . S
Co812 O829 2.020 1_554 S
Co812 O831 2.021 . S
Co812 O836 2.062 . S
C813 N815 1.316 1_556 S
C813 N816 1.347 . S
C813 H818 0.931 . S
C814 N815 1.375 . S
C814 C817 1.350 1_554 S
C814 H819 0.930 . S
N815 Co810 2.057 . S
N815 C813 1.316 1_554 S
N815 C814 1.375 . S
N816 C813 1.347 . S
N816 C817 1.373 . S
C817 C814 1.350 1_556 S
C817 N816 1.373 . S
C817 H838 0.931 . S
H818 C813 0.931 . S
H819 C814 0.930 . S
C820 O827 1.259 . S
C820 O828 1.258 . S
N821 Co812 2.057 . S
N821 C822 1.316 . S
N821 C823 1.375 . S
C822 N821 1.316 . S
C822 N824 1.347 . S
C822 H833 0.931 . S
C823 N821 1.375 . S
C823 C825 1.350 . S
C823 H832 0.930 . S
N824 C822 1.347 . S
N824 C825 1.373 . S
C825 C823 1.350 . S
C825 N824 1.373 . S
C825 H839 0.931 . S
C826 O829 1.256 . S
C826 O830 1.255 . S
O827 Co810 2.021 . S
O827 C820 1.259 . S
O828 Co812 2.117 . S
O828 C820 1.258 . S
O829 Co812 2.020 1_556 S
O829 C826 1.256 . S
O830 Co810 2.062 1_556 S
O830 C826 1.255 . S
O831 C811 1.259 . S
O831 Co812 2.021 . S
H832 C823 0.930 . S
H833 C822 0.931 . S
O834 Co810 2.117 . S
O834 C811 1.258 . S
O835 Co810 2.020 . S
O835 C837 1.256 . S
O836 Co812 2.062 . S
O836 C837 1.255 . S
C837 O835 1.256 . S
C837 O836 1.255 . S
H838 C817 0.931 . S
H839 C825 0.931 . S
Co840 N845 2.057 . S
Co840 O857 2.021 . S
Co840 O860 2.062 . S
Co840 O864 2.117 . S
Co840 O865 2.020 . S
C841 O861 1.259 . S
C841 O864 1.258 . S
Co842 N851 2.057 . S
Co842 O858 2.117 . S
Co842 O859 2.020 . S
Co842 O861 2.021 . S
Co842 O866 2.062 . S
C843 N845 1.316 . S
C843 N846 1.347 . S
C843 H848 0.931 . S
C844 N845 1.375 . S
C844 C847 1.350 . S
C844 H849 0.930 . S
N845 Co840 2.057 . S
N845 C843 1.316 . S
N845 C844 1.375 . S
N846 C843 1.347 . S
N846 C847 1.373 . S
C847 C844 1.350 . S
C847 N846 1.373 . S
C847 H868 0.931 . S
H848 C843 0.931 . S
H849 C844 0.930 . S
C850 O857 1.259 . S
C850 O858 1.258 . S
N851 Co842 2.057 . S
N851 C852 1.316 . S
N851 C853 1.375 . S
C852 N851 1.316 . S
C852 N854 1.347 . S
C852 H863 0.931 . S
C853 N851 1.375 . S
C853 C855 1.350 . S
C853 H862 0.930 . S
N854 C852 1.347 . S
N854 C855 1.373 . S
C855 C853 1.350 . S
C855 N854 1.373 . S
C855 H869 0.931 . S
C856 O859 1.256 . S
C856 O860 1.255 . S
O857 Co840 2.021 . S
O857 C850 1.259 . S
O858 Co842 2.117 . S
O858 C850 1.258 . S
O859 Co842 2.020 . S
O859 C856 1.256 . S
O860 Co840 2.062 . S
O860 C856 1.255 . S
O861 C841 1.259 . S
O861 Co842 2.021 . S
H862 C853 0.930 . S
H863 C852 0.931 . S
O864 Co840 2.117 . S
O864 C841 1.258 . S
O865 Co840 2.020 . S
O865 C867 1.256 . S
O866 Co842 2.062 . S
O866 C867 1.255 . S
C867 O865 1.256 . S
C867 O866 1.255 . S
H868 C847 0.931 . S
H869 C855 0.931 . S
Co870 N875 2.057 . S
Co870 O887 2.021 . S
Co870 O890 2.062 . S
Co870 O894 2.117 . S
Co870 O895 2.020 . S
C871 O891 1.259 . S
C871 O894 1.258 . S
Co872 N881 2.057 . S
Co872 O888 2.117 . S
Co872 O889 2.020 . S
Co872 O891 2.021 . S
Co872 O896 2.062 . S
C873 N875 1.316 . S
C873 N876 1.347 . S
C873 H878 0.931 . S
C874 N875 1.375 . S
C874 C877 1.350 . S
C874 H879 0.930 . S
N875 Co870 2.057 . S
N875 C873 1.316 . S
N875 C874 1.375 . S
N876 C873 1.347 . S
N876 C877 1.373 . S
C877 C874 1.350 . S
C877 N876 1.373 . S
C877 H898 0.931 . S
H878 C873 0.931 . S
H879 C874 0.930 . S
C880 O887 1.259 . S
C880 O888 1.258 . S
N881 Co872 2.057 . S
N881 C882 1.316 . S
N881 C883 1.375 . S
C882 N881 1.316 . S
C882 N884 1.347 . S
C882 H893 0.931 . S
C883 N881 1.375 . S
C883 C885 1.350 . S
C883 H892 0.930 . S
N884 C882 1.347 . S
N884 C885 1.373 . S
C885 C883 1.350 . S
C885 N884 1.373 . S
C885 H899 0.931 . S
C886 O889 1.256 . S
C886 O890 1.255 . S
O887 Co870 2.021 . S
O887 C880 1.259 . S
O888 Co872 2.117 . S
O888 C880 1.258 . S
O889 Co872 2.020 . S
O889 C886 1.256 . S
O890 Co870 2.062 . S
O890 C886 1.255 . S
O891 C871 1.259 . S
O891 Co872 2.021 . S
H892 C883 0.930 . S
H893 C882 0.931 . S
O894 Co870 2.117 . S
O894 C871 1.258 . S
O895 Co870 2.020 . S
O895 C897 1.256 . S
O896 Co872 2.062 . S
O896 C897 1.255 . S
C897 O895 1.256 . S
C897 O896 1.255 . S
H898 C877 0.931 . S
H899 C885 0.931 . S
Co900 N905 2.057 . S
Co900 O917 2.021 . S
Co900 O920 2.062 . S
Co900 O924 2.117 . S
Co900 O925 2.020 1_556 S
C901 O921 1.259 . S
C901 O924 1.258 . S
Co902 N911 2.057 . S
Co902 O918 2.117 . S
Co902 O919 2.020 . S
Co902 O921 2.021 . S
Co902 O926 2.062 1_556 S
C903 N905 1.316 . S
C903 N906 1.347 . S
C903 H908 0.931 . S
C904 N905 1.375 . S
C904 C907 1.350 . S
C904 H909 0.930 . S
N905 Co900 2.057 . S
N905 C903 1.316 . S
N905 C904 1.375 . S
N906 C903 1.347 . S
N906 C907 1.373 . S
C907 C904 1.350 . S
C907 N906 1.373 . S
C907 H928 0.931 . S
H908 C903 0.931 . S
H909 C904 0.930 . S
C910 O917 1.259 . S
C910 O918 1.258 . S
N911 Co902 2.057 . S
N911 C912 1.316 1_556 S
N911 C913 1.375 . S
C912 N911 1.316 1_554 S
C912 N914 1.347 . S
C912 H923 0.931 . S
C913 N911 1.375 . S
C913 C915 1.350 1_556 S
C913 H922 0.930 . S
N914 C912 1.347 . S
N914 C915 1.373 . S
C915 C913 1.350 1_554 S
C915 N914 1.373 . S
C915 H929 0.931 . S
C916 O919 1.256 . S
C916 O920 1.255 . S
O917 Co900 2.021 . S
O917 C910 1.259 . S
O918 Co902 2.117 . S
O918 C910 1.258 . S
O919 Co902 2.020 . S
O919 C916 1.256 . S
O920 Co900 2.062 . S
O920 C916 1.255 . S
O921 C901 1.259 . S
O921 Co902 2.021 . S
H922 C913 0.930 . S
H923 C912 0.931 . S
O924 Co900 2.117 . S
O924 C901 1.258 . S
O925 Co900 2.020 1_554 S
O925 C927 1.256 . S
O926 Co902 2.062 1_554 S
O926 C927 1.255 . S
C927 O925 1.256 . S
C927 O926 1.255 . S
H928 C907 0.931 . S
H929 C915 0.931 . S
Co930 N935 2.057 . S
Co930 O947 2.021 . S
Co930 O950 2.062 . S
Co930 O954 2.117 . S
Co930 O955 2.020 1_556 S
C931 O951 1.259 . S
C931 O954 1.258 . S
Co932 N941 2.057 . S
Co932 O948 2.117 . S
Co932 O949 2.020 . S
Co932 O951 2.021 . S
Co932 O956 2.062 1_556 S
C933 N935 1.316 . S
C933 N936 1.347 . S
C933 H938 0.931 . S
C934 N935 1.375 . S
C934 C937 1.350 . S
C934 H939 0.930 . S
N935 Co930 2.057 . S
N935 C933 1.316 . S
N935 C934 1.375 . S
N936 C933 1.347 . S
N936 C937 1.373 . S
C937 C934 1.350 . S
C937 N936 1.373 . S
C937 H958 0.931 . S
H938 C933 0.931 . S
H939 C934 0.930 . S
C940 O947 1.259 . S
C940 O948 1.258 . S
N941 Co932 2.057 . S
N941 C942 1.316 1_556 S
N941 C943 1.375 . S
C942 N941 1.316 1_554 S
C942 N944 1.347 . S
C942 H953 0.931 . S
C943 N941 1.375 . S
C943 C945 1.350 1_556 S
C943 H952 0.930 . S
N944 C942 1.347 . S
N944 C945 1.373 . S
C945 C943 1.350 1_554 S
C945 N944 1.373 . S
C945 H959 0.931 . S
C946 O949 1.256 . S
C946 O950 1.255 . S
O947 Co930 2.021 . S
O947 C940 1.259 . S
O948 Co932 2.117 . S
O948 C940 1.258 . S
O949 Co932 2.020 . S
O949 C946 1.256 . S
O950 Co930 2.062 . S
O950 C946 1.255 . S
O951 C931 1.259 . S
O951 Co932 2.021 . S
H952 C943 0.930 . S
H953 C942 0.931 . S
O954 Co930 2.117 . S
O954 C931 1.258 . S
O955 Co930 2.020 1_554 S
O955 C957 1.256 . S
O956 Co932 2.062 1_554 S
O956 C957 1.255 . S
C957 O955 1.256 . S
C957 O956 1.255 . S
H958 C937 0.931 . S
H959 C945 0.931 . S
H960 C966 0.930 1_554 S
H961 C970 0.930 1_556 S
H962 C975 0.929 . S
H963 C973 0.929 . S
H964 C968 0.929 . S
H965 C974 0.929 . S
C966 H960 0.930 1_556 S
C966 C967 1.367 . S
C966 C974 1.378 1_556 S
C967 C966 1.367 . S
C967 C975 1.433 . S
C968 H964 0.929 . S
C968 C970 1.378 1_556 S
C968 C972 1.350 1_556 S
C969 C972 1.463 1_556 S
C969 C974 1.350 1_556 S
C969 N977 1.427 . S
C970 H961 0.930 1_554 S
C970 C968 1.378 1_554 S
C970 C971 1.367 . S
C971 C970 1.367 . S
C971 C973 1.433 . S
C972 C968 1.350 1_554 S
C972 C969 1.463 1_554 S
C972 N976 1.427 . S
C973 H963 0.929 . S
C973 C971 1.433 . S
C973 N976 1.384 . S
C974 H965 0.929 . S
C974 C966 1.378 1_554 S
C974 C969 1.350 1_554 S
C975 H962 0.929 . S
C975 C967 1.433 . S
C975 N977 1.384 . S
N976 C972 1.427 . S
N976 C973 1.384 . S
N977 C969 1.427 . S
N977 C975 1.384 . S
H978 C984 0.930 . S
H979 C988 0.930 . S
H980 C993 0.929 . S
H981 C991 0.929 . S
H982 C986 0.929 . S
H983 C992 0.929 . S
C984 H978 0.930 . S
C984 C985 1.362 . S
C984 C992 1.378 . S
C985 C984 1.362 . S
C985 C993 1.438 1_545 S
C986 H982 0.929 . S
C986 C988 1.378 . S
C986 C990 1.373 . S
C987 C990 1.461 1_446 S
C987 C992 1.373 . S
C987 N995 1.404 1_545 S
C988 H979 0.930 . S
C988 C986 1.378 . S
C988 C989 1.362 . S
C989 C988 1.362 . S
C989 C991 1.438 1_565 S
C990 C986 1.373 . S
C990 C987 1.461 1_664 S
C990 N994 1.404 1_565 S
C991 H981 0.929 . S
C991 C989 1.438 1_545 S
C991 N994 1.384 . S
C992 H983 0.929 . S
C992 C984 1.378 . S
C992 C987 1.373 . S
C993 H980 0.929 . S
C993 C985 1.438 1_565 S
C993 N995 1.384 . S
N994 C990 1.404 1_545 S
N994 C991 1.384 . S
N995 C987 1.404 1_565 S
N995 C993 1.384 . S
H996 C1002 0.930 . S
H997 C1006 0.930 . S
H998 C1011 0.929 . S
H999 C1009 0.929 . S
H1000 C1004 0.929 . S
H1001 C1010 0.929 . S
C1002 H996 0.930 . S
C1002 C1003 1.410 . S
C1002 C1010 1.378 . S
C1003 C1002 1.410 . S
C1003 C1011 1.389 1_565 S
C1004 H1000 0.929 . S
C1004 C1006 1.378 . S
C1004 C1008 1.382 . S
C1005 C1008 1.460 1_565 S
C1005 C1010 1.387 . S
C1005 N1013 1.391 1_565 S
C1006 H997 0.930 . S
C1006 C1004 1.378 . S
C1006 C1007 1.406 . S
C1007 C1006 1.406 . S
C1007 C1009 1.394 1_545 S
C1008 C1004 1.382 . S
C1008 C1005 1.460 1_545 S
C1008 N1012 1.395 1_545 S
C1009 H999 0.929 . S
C1009 C1007 1.394 1_565 S
C1009 N1012 1.384 . S
C1010 H1001 0.929 . S
C1010 C1002 1.378 . S
C1010 C1005 1.387 . S
C1011 H998 0.929 . S
C1011 C1003 1.389 1_545 S
C1011 N1013 1.384 . S
N1012 C1008 1.395 1_565 S
N1012 C1009 1.384 . S
N1013 C1005 1.391 1_545 S
N1013 C1011 1.384 . S
H1014 C1020 0.930 . S
H1015 C1024 0.930 . S
H1016 C1029 0.929 . S
H1017 C1027 0.929 . S
H1018 C1022 0.929 . S
H1019 C1028 0.929 . S
C1020 H1014 0.930 . S
C1020 C1021 1.367 . S
C1020 C1028 1.378 . S
C1021 C1020 1.367 . S
C1021 C1029 1.433 . S
C1022 H1018 0.929 . S
C1022 C1024 1.378 . S
C1022 C1026 1.350 . S
C1023 C1026 1.463 1_455 S
C1023 C1028 1.350 . S
C1023 N1031 1.427 . S
C1024 H1015 0.930 . S
C1024 C1022 1.378 . S
C1024 C1025 1.367 . S
C1025 C1024 1.367 . S
C1025 C1027 1.433 . S
C1026 C1022 1.350 . S
C1026 C1023 1.463 1_655 S
C1026 N1030 1.427 . S
C1027 H1017 0.929 . S
C1027 C1025 1.433 . S
C1027 N1030 1.384 . S
C1028 H1019 0.929 . S
C1028 C1020 1.378 . S
C1028 C1023 1.350 . S
C1029 H1016 0.929 . S
C1029 C1021 1.433 . S
C1029 N1031 1.384 . S
N1030 C1026 1.427 . S
N1030 C1027 1.384 . S
N1031 C1023 1.427 . S
N1031 C1029 1.384 . S
H1032 C1038 0.930 . S
H1033 C1042 0.930 . S
H1034 C1047 0.929 . S
H1035 C1045 0.929 . S
H1036 C1040 0.929 . S
H1037 C1046 0.929 . S
C1038 H1032 0.930 . S
C1038 C1039 1.367 . S
C1038 C1046 1.378 . S
C1039 C1038 1.367 . S
C1039 C1047 1.433 . S
C1040 H1036 0.929 . S
C1040 C1042 1.378 . S
C1040 C1044 1.350 . S
C1041 C1044 1.463 1_556 S
C1041 C1046 1.350 . S
C1041 N1049 1.427 . S
C1042 H1033 0.930 . S
C1042 C1040 1.378 . S
C1042 C1043 1.367 . S
C1043 C1042 1.367 . S
C1043 C1045 1.433 . S
C1044 C1040 1.350 . S
C1044 C1041 1.463 1_554 S
C1044 N1048 1.427 . S
C1045 H1035 0.929 . S
C1045 C1043 1.433 . S
C1045 N1048 1.384 . S
C1046 H1037 0.929 . S
C1046 C1038 1.378 . S
C1046 C1041 1.350 . S
C1047 H1034 0.929 . S
C1047 C1039 1.433 . S
C1047 N1049 1.384 . S
N1048 C1044 1.427 . S
N1048 C1045 1.384 . S
N1049 C1041 1.427 . S
N1049 C1047 1.384 . S
H1050 C1056 0.930 . S
H1051 C1060 0.930 . S
H1052 C1065 0.929 . S
H1053 C1063 0.929 . S
H1054 C1058 0.929 . S
H1055 C1064 0.929 . S
C1056 H1050 0.930 . S
C1056 C1057 1.410 . S
C1056 C1064 1.378 . S
C1057 C1056 1.410 . S
C1057 C1065 1.389 1_545 S
C1058 H1054 0.929 . S
C1058 C1060 1.378 . S
C1058 C1062 1.382 . S
C1059 C1062 1.460 1_545 S
C1059 C1064 1.386 . S
C1059 N1067 1.391 1_545 S
C1060 H1051 0.930 . S
C1060 C1058 1.378 . S
C1060 C1061 1.406 . S
C1061 C1060 1.406 . S
C1061 C1063 1.394 1_565 S
C1062 C1058 1.382 . S
C1062 C1059 1.460 1_565 S
C1062 N1066 1.395 1_565 S
C1063 H1053 0.929 . S
C1063 C1061 1.394 1_545 S
C1063 N1066 1.384 . S
C1064 H1055 0.929 . S
C1064 C1056 1.378 . S
C1064 C1059 1.386 . S
C1065 H1052 0.929 . S
C1065 C1057 1.389 1_565 S
C1065 N1067 1.384 . S
N1066 C1062 1.395 1_545 S
N1066 C1063 1.384 . S
N1067 C1059 1.391 1_565 S
N1067 C1065 1.384 . S
H1068 C1074 0.930 . S
H1069 C1078 0.930 . S
H1070 C1083 0.929 . S
H1071 C1081 0.929 . S
H1072 C1076 1.034 . S
H1073 C1082 1.033 . S
C1074 H1068 0.930 . S
C1074 C1075 1.367 . S
C1074 C1082 1.378 . S
C1075 C1074 1.367 . S
C1075 C1083 1.433 . S
C1076 H1072 1.034 . S
C1076 C1078 1.378 . S
C1076 C1080 1.350 . S
C1077 C1080 1.463 1_655 S
C1077 C1082 1.350 . S
C1077 N1085 1.427 . S
C1078 H1069 0.930 . S
C1078 C1076 1.378 . S
C1078 C1079 1.367 . S
C1079 C1078 1.367 . S
C1079 C1081 1.433 . S
C1080 C1076 1.350 . S
C1080 C1077 1.463 1_455 S
C1080 N1084 1.427 . S
C1081 H1071 0.929 . S
C1081 C1079 1.433 . S
C1081 N1084 1.384 . S
C1082 H1073 1.033 . S
C1082 C1074 1.378 . S
C1082 C1077 1.350 . S
C1083 H1070 0.929 . S
C1083 C1075 1.433 . S
C1083 N1085 1.384 . S
N1084 C1080 1.427 . S
N1084 C1081 1.384 . S
N1085 C1077 1.427 . S
N1085 C1083 1.384 . S
H1086 C1092 0.930 . S
H1087 C1096 0.930 . S
H1088 C1101 0.929 . S
H1089 C1099 0.929 . S
H1090 C1094 0.929 . S
H1091 C1100 0.929 . S
C1092 H1086 0.930 . S
C1092 C1093 1.367 . S
C1092 C1100 1.378 . S
C1093 C1092 1.367 . S
C1093 C1101 1.433 . S
C1094 H1090 0.929 . S
C1094 C1096 1.378 . S
C1094 C1098 1.350 . S
C1095 C1098 1.463 . S
C1095 C1100 1.350 . S
C1095 N1103 1.427 . S
C1096 H1087 0.930 . S
C1096 C1094 1.378 . S
C1096 C1097 1.367 . S
C1097 C1096 1.367 . S
C1097 C1099 1.433 . S
C1098 C1094 1.350 . S
C1098 C1095 1.463 . S
C1098 N1102 1.427 . S
C1099 H1089 0.929 . S
C1099 C1097 1.433 . S
C1099 N1102 1.384 . S
C1100 H1091 0.929 . S
C1100 C1092 1.378 . S
C1100 C1095 1.350 . S
C1101 H1088 0.929 . S
C1101 C1093 1.433 . S
C1101 N1103 1.384 . S
N1102 C1098 1.427 . S
N1102 C1099 1.384 . S
N1103 C1095 1.427 . S
N1103 C1101 1.384 . S
H1104 C1110 0.930 . S
H1105 C1114 0.930 . S
H1106 C1119 0.929 . S
H1107 C1117 0.929 . S
H1108 C1112 0.929 . S
H1109 C1118 0.929 . S
C1110 H1104 0.930 . S
C1110 C1111 1.367 . S
C1110 C1118 1.378 . S
C1111 C1110 1.367 . S
C1111 C1119 1.433 . S
C1112 H1108 0.929 . S
C1112 C1114 1.378 . S
C1112 C1116 1.350 . S
C1113 C1116 1.463 1_655 S
C1113 C1118 1.350 . S
C1113 N1121 1.427 . S
C1114 H1105 0.930 . S
C1114 C1112 1.378 . S
C1114 C1115 1.367 . S
C1115 C1114 1.367 . S
C1115 C1117 1.433 . S
C1116 C1112 1.350 . S
C1116 C1113 1.463 1_455 S
C1116 N1120 1.427 . S
C1117 H1107 0.929 . S
C1117 C1115 1.433 . S
C1117 N1120 1.384 . S
C1118 H1109 0.929 . S
C1118 C1110 1.378 . S
C1118 C1113 1.350 . S
C1119 H1106 0.929 . S
C1119 C1111 1.433 . S
C1119 N1121 1.384 . S
N1120 C1116 1.427 . S
N1120 C1117 1.384 . S
N1121 C1113 1.427 . S
N1121 C1119 1.384 . S
H1122 C1128 0.930 . S
H1123 C1132 0.930 . S
H1124 C1137 0.929 . S
H1125 C1135 0.929 . S
H1126 C1130 0.929 . S
H1127 C1136 0.929 . S
C1128 H1122 0.930 . S
C1128 C1129 1.367 . S
C1128 C1136 1.378 . S
C1129 C1128 1.367 . S
C1129 C1137 1.433 . S
C1130 H1126 0.929 . S
C1130 C1132 1.378 . S
C1130 C1134 1.350 . S
C1131 C1134 1.463 . S
C1131 C1136 1.350 . S
C1131 N1139 1.427 . S
C1132 H1123 0.930 . S
C1132 C1130 1.378 . S
C1132 C1133 1.367 . S
C1133 C1132 1.367 . S
C1133 C1135 1.433 . S
C1134 C1130 1.350 . S
C1134 C1131 1.463 . S
C1134 N1138 1.427 . S
C1135 H1125 0.929 . S
C1135 C1133 1.433 . S
C1135 N1138 1.384 . S
C1136 H1127 0.929 . S
C1136 C1128 1.378 . S
C1136 C1131 1.350 . S
C1137 H1124 0.929 . S
C1137 C1129 1.433 . S
C1137 N1139 1.384 . S
N1138 C1134 1.427 . S
N1138 C1135 1.384 . S
N1139 C1131 1.427 . S
N1139 C1137 1.384 . S
H1140 C1146 0.930 . S
H1141 C1150 0.930 . S
H1142 C1155 0.929 . S
H1143 C1153 0.929 . S
H1144 C1148 0.929 . S
H1145 C1154 0.929 . S
C1146 H1140 0.930 . S
C1146 C1147 1.367 . S
C1146 C1154 1.378 . S
C1147 C1146 1.367 . S
C1147 C1155 1.433 . S
C1148 H1144 0.929 . S
C1148 C1150 1.378 . S
C1148 C1152 1.350 . S
C1149 C1152 1.463 . S
C1149 C1154 1.350 . S
C1149 N1157 1.427 . S
C1150 H1141 0.930 . S
C1150 C1148 1.378 . S
C1150 C1151 1.367 . S
C1151 C1150 1.367 . S
C1151 C1153 1.433 . S
C1152 C1148 1.350 . S
C1152 C1149 1.463 . S
C1152 N1156 1.427 . S
C1153 H1143 0.929 . S
C1153 C1151 1.433 . S
C1153 N1156 1.384 . S
C1154 H1145 0.929 . S
C1154 C1146 1.378 . S
C1154 C1149 1.350 . S
C1155 H1142 0.929 . S
C1155 C1147 1.433 . S
C1155 N1157 1.384 . S
N1156 C1152 1.427 . S
N1156 C1153 1.384 . S
N1157 C1149 1.427 . S
N1157 C1155 1.384 . S
H1158 C1164 0.930 . S
H1159 C1168 0.930 . S
H1160 C1173 0.929 . S
H1161 C1171 0.929 . S
H1162 C1166 0.929 . S
H1163 C1172 0.929 . S
C1164 H1158 0.930 . S
C1164 C1165 1.367 . S
C1164 C1172 1.378 . S
C1165 C1164 1.367 . S
C1165 C1173 1.433 . S
C1166 H1162 0.929 . S
C1166 C1168 1.378 . S
C1166 C1170 1.350 . S
C1167 C1170 1.463 . S
C1167 C1172 1.350 . S
C1167 N1175 1.427 . S
C1168 H1159 0.930 . S
C1168 C1166 1.378 . S
C1168 C1169 1.367 . S
C1169 C1168 1.367 . S
C1169 C1171 1.433 . S
C1170 C1166 1.350 . S
C1170 C1167 1.463 . S
C1170 N1174 1.427 . S
C1171 H1161 0.929 . S
C1171 C1169 1.433 . S
C1171 N1174 1.384 . S
C1172 H1163 0.929 . S
C1172 C1164 1.378 . S
C1172 C1167 1.350 . S
C1173 H1160 0.929 . S
C1173 C1165 1.433 . S
C1173 N1175 1.384 . S
N1174 C1170 1.427 . S
N1174 C1171 1.384 . S
N1175 C1167 1.427 . S
N1175 C1173 1.384 . S
H1176 C1182 0.930 . S
H1177 C1186 0.930 . S
H1178 C1191 0.929 . S
H1179 C1189 0.929 . S
H1180 C1184 0.929 . S
H1181 C1190 0.929 . S
C1182 H1176 0.930 . S
C1182 C1183 1.363 . S
C1182 C1190 1.378 . S
C1183 C1182 1.363 . S
C1183 C1191 1.437 1_565 S
C1184 H1180 0.929 . S
C1184 C1186 1.378 . S
C1184 C1188 1.373 . S
C1185 C1188 1.461 1_565 S
C1185 C1190 1.373 . S
C1185 N1193 1.404 1_565 S
C1186 H1177 0.930 . S
C1186 C1184 1.378 . S
C1186 C1187 1.363 . S
C1187 C1186 1.363 . S
C1187 C1189 1.437 1_545 S
C1188 C1184 1.373 . S
C1188 C1185 1.461 1_545 S
C1188 N1192 1.404 1_545 S
C1189 H1179 0.929 . S
C1189 C1187 1.437 1_565 S
C1189 N1192 1.384 . S
C1190 H1181 0.929 . S
C1190 C1182 1.378 . S
C1190 C1185 1.373 . S
C1191 H1178 0.929 . S
C1191 C1183 1.437 1_545 S
C1191 N1193 1.384 . S
N1192 C1188 1.404 1_565 S
N1192 C1189 1.384 . S
N1193 C1185 1.404 1_545 S
N1193 C1191 1.384 . S
H1194 C1200 0.930 . S
H1195 C1204 0.930 . S
H1196 C1209 0.929 . S
H1197 C1207 0.929 . S
H1198 C1202 0.929 . S
H1199 C1208 0.929 . S
C1200 H1194 0.930 . S
C1200 C1201 1.367 . S
C1200 C1208 1.378 . S
C1201 C1200 1.367 . S
C1201 C1209 1.433 . S
C1202 H1198 0.929 . S
C1202 C1204 1.378 . S
C1202 C1206 1.350 . S
C1203 C1206 1.463 . S
C1203 C1208 1.350 . S
C1203 N1211 1.427 . S
C1204 H1195 0.930 . S
C1204 C1202 1.378 . S
C1204 C1205 1.367 . S
C1205 C1204 1.367 . S
C1205 C1207 1.433 . S
C1206 C1202 1.350 . S
C1206 C1203 1.463 . S
C1206 N1210 1.427 . S
C1207 H1197 0.929 . S
C1207 C1205 1.433 . S
C1207 N1210 1.384 . S
C1208 H1199 0.929 . S
C1208 C1200 1.378 . S
C1208 C1203 1.350 . S
C1209 H1196 0.929 . S
C1209 C1201 1.433 . S
C1209 N1211 1.384 . S
N1210 C1206 1.427 . S
N1210 C1207 1.384 . S
N1211 C1203 1.427 . S
N1211 C1209 1.384 . S
H1212 C1218 0.930 . S
H1213 C1222 0.930 . S
H1214 C1227 0.929 . S
H1215 C1225 0.929 . S
H1216 C1220 0.929 . S
H1217 C1226 0.929 . S
C1218 H1212 0.930 . S
C1218 C1219 1.367 . S
C1218 C1226 1.378 . S
C1219 C1218 1.367 . S
C1219 C1227 1.433 . S
C1220 H1216 0.929 . S
C1220 C1222 1.378 . S
C1220 C1224 1.350 . S
C1221 C1224 1.463 . S
C1221 C1226 1.350 . S
C1221 N1229 1.427 . S
C1222 H1213 0.930 . S
C1222 C1220 1.378 . S
C1222 C1223 1.367 . S
C1223 C1222 1.367 . S
C1223 C1225 1.433 . S
C1224 C1220 1.350 . S
C1224 C1221 1.463 . S
C1224 N1228 1.427 . S
C1225 H1215 0.929 . S
C1225 C1223 1.433 . S
C1225 N1228 1.384 . S
C1226 H1217 0.929 . S
C1226 C1218 1.378 . S
C1226 C1221 1.350 . S
C1227 H1214 0.929 . S
C1227 C1219 1.433 . S
C1227 N1229 1.384 . S
N1228 C1224 1.427 . S
N1228 C1225 1.384 . S
N1229 C1221 1.427 . S
N1229 C1227 1.384 . S
H1230 C1236 0.930 . S
H1231 C1240 0.930 . S
H1232 C1245 0.929 1_554 S
H1233 C1243 0.929 1_556 S
H1234 C1238 0.929 . S
H1235 C1244 0.929 . S
C1236 H1230 0.930 . S
C1236 C1237 1.367 . S
C1236 C1244 1.378 . S
C1237 C1236 1.367 . S
C1237 C1245 1.433 . S
C1238 H1234 0.929 . S
C1238 C1240 1.378 . S
C1238 C1242 1.350 . S
C1239 C1242 1.463 1_556 S
C1239 C1244 1.350 . S
C1239 N1247 1.427 1_556 S
C1240 H1231 0.930 . S
C1240 C1238 1.378 . S
C1240 C1241 1.367 . S
C1241 C1240 1.367 . S
C1241 C1243 1.433 . S
C1242 C1238 1.350 . S
C1242 C1239 1.463 1_554 S
C1242 N1246 1.427 1_554 S
C1243 H1233 0.929 1_554 S
C1243 C1241 1.433 . S
C1243 N1246 1.384 1_554 S
C1244 H1235 0.929 . S
C1244 C1236 1.378 . S
C1244 C1239 1.350 . S
C1245 H1232 0.929 1_556 S
C1245 C1237 1.433 . S
C1245 N1247 1.384 1_556 S
N1246 C1242 1.427 1_556 S
N1246 C1243 1.384 1_556 S
N1247 C1239 1.427 1_554 S
N1247 C1245 1.384 1_554 S
H1248 C1254 0.930 . S
H1249 C1258 0.930 . S
H1250 C1263 0.929 . S
H1251 C1261 0.929 . S
H1252 C1256 0.929 . S
H1253 C1262 0.929 . S
C1254 H1248 0.930 . S
C1254 C1255 1.367 . S
C1254 C1262 1.378 . S
C1255 C1254 1.367 . S
C1255 C1263 1.433 . S
C1256 H1252 0.929 . S
C1256 C1258 1.378 . S
C1256 C1260 1.350 . S
C1257 C1260 1.463 . S
C1257 C1262 1.350 . S
C1257 N1265 1.427 . S
C1258 H1249 0.930 . S
C1258 C1256 1.378 . S
C1258 C1259 1.367 . S
C1259 C1258 1.367 . S
C1259 C1261 1.433 . S
C1260 C1256 1.350 . S
C1260 C1257 1.463 . S
C1260 N1264 1.427 . S
C1261 H1251 0.929 . S
C1261 C1259 1.433 . S
C1261 N1264 1.384 . S
C1262 H1253 0.929 . S
C1262 C1254 1.378 . S
C1262 C1257 1.350 . S
C1263 H1250 0.929 . S
C1263 C1255 1.433 . S
C1263 N1265 1.384 . S
N1264 C1260 1.427 . S
N1264 C1261 1.384 . S
N1265 C1257 1.427 . S
N1265 C1263 1.384 . S
H1266 C1272 0.930 . S
H1267 C1276 0.930 . S
H1268 C1281 0.929 . S
H1269 C1279 0.929 . S
H1270 C1274 0.929 . S
H1271 C1280 0.929 . S
C1272 H1266 0.930 . S
C1272 C1273 1.367 . S
C1272 C1280 1.378 . S
C1273 C1272 1.367 . S
C1273 C1281 1.433 1_565 S
C1274 H1270 0.929 . S
C1274 C1276 1.378 . S
C1274 C1278 1.350 1_545 S
C1275 C1278 1.463 . S
C1275 C1280 1.350 . S
C1275 N1283 1.427 1_565 S
C1276 H1267 0.930 . S
C1276 C1274 1.378 . S
C1276 C1277 1.367 1_545 S
C1277 C1276 1.367 1_565 S
C1277 C1279 1.433 . S
C1278 C1274 1.350 1_565 S
C1278 C1275 1.463 . S
C1278 N1282 1.427 . S
C1279 H1269 0.929 . S
C1279 C1277 1.433 . S
C1279 N1282 1.384 . S
C1280 H1271 0.929 . S
C1280 C1272 1.378 . S
C1280 C1275 1.350 . S
C1281 H1268 0.929 . S
C1281 C1273 1.433 1_545 S
C1281 N1283 1.384 . S
N1282 C1278 1.427 . S
N1282 C1279 1.384 . S
N1283 C1275 1.427 1_545 S
N1283 C1281 1.384 . S
H1284 C1290 0.930 . S
H1285 C1294 0.939 1_545 S
H1286 C1299 0.929 1_545 S
H1287 C1297 0.929 . S
H1288 C1292 0.929 1_544 S
H1289 C1298 0.929 . S
C1290 H1284 0.930 . S
C1290 C1291 1.367 . S
C1290 C1298 1.378 . S
C1291 C1290 1.367 . S
C1291 C1299 1.433 . S
C1292 H1288 0.929 1_566 S
C1292 C1294 1.376 1_556 S
C1292 C1296 1.350 . S
C1293 C1296 1.463 . S
C1293 C1298 1.350 . S
C1293 N1301 1.427 . S
C1294 H1285 0.939 1_565 S
C1294 C1292 1.376 1_554 S
C1294 C1295 1.360 1_554 S
C1295 C1294 1.360 1_556 S
C1295 C1297 1.433 . S
C1296 C1292 1.350 . S
C1296 C1293 1.463 . S
C1296 N1300 1.427 . S
C1297 H1287 0.929 . S
C1297 C1295 1.433 . S
C1297 N1300 1.384 . S
C1298 H1289 0.929 . S
C1298 C1290 1.378 . S
C1298 C1293 1.350 . S
C1299 H1286 0.929 1_565 S
C1299 C1291 1.433 . S
C1299 N1301 1.384 . S
N1300 C1296 1.427 . S
N1300 C1297 1.384 . S
N1301 C1293 1.427 . S
N1301 C1299 1.384 . S
H1302 C1308 0.930 . S
H1303 C1312 0.930 . S
H1304 C1317 0.929 . S
H1305 C1315 0.929 1_554 S
H1306 C1310 0.929 . S
H1307 C1316 0.929 . S
C1308 H1302 0.930 . S
C1308 C1309 1.367 . S
C1308 C1316 1.378 . S
C1309 C1308 1.367 . S
C1309 C1317 1.433 . S
C1310 H1306 0.929 . S
C1310 C1312 1.378 . S
C1310 C1314 1.350 . S
C1311 C1314 1.463 . S
C1311 C1316 1.350 . S
C1311 N1319 1.427 . S
C1312 H1303 0.930 . S
C1312 C1310 1.378 . S
C1312 C1313 1.367 . S
C1313 C1312 1.367 . S
C1313 C1315 1.433 . S
C1314 C1310 1.350 . S
C1314 C1311 1.463 . S
C1314 N1318 1.427 . S
C1315 H1305 0.929 1_556 S
C1315 C1313 1.433 . S
C1315 N1318 1.384 . S
C1316 H1307 0.929 . S
C1316 C1308 1.378 . S
C1316 C1311 1.350 . S
C1317 H1304 0.929 . S
C1317 C1309 1.433 . S
C1317 N1319 1.384 . S
N1318 C1314 1.427 . S
N1318 C1315 1.384 . S
N1319 C1311 1.427 . S
N1319 C1317 1.384 . S
H1320 C1326 0.930 . S
H1321 C1330 0.930 . S
H1322 C1335 0.929 . S
H1323 C1333 0.929 . S
H1324 C1328 0.929 . S
H1325 C1334 0.929 . S
C1326 H1320 0.930 . S
C1326 C1327 1.367 . S
C1326 C1334 1.378 . S
C1327 C1326 1.367 . S
C1327 C1335 1.433 . S
C1328 H1324 0.929 . S
C1328 C1330 1.378 . S
C1328 C1332 1.350 . S
C1329 C1332 1.463 . S
C1329 C1334 1.350 . S
C1329 N1337 1.427 . S
C1330 H1321 0.930 . S
C1330 C1328 1.378 . S
C1330 C1331 1.367 . S
C1331 C1330 1.367 . S
C1331 C1333 1.433 . S
C1332 C1328 1.350 . S
C1332 C1329 1.463 . S
C1332 N1336 1.427 . S
C1333 H1323 0.929 . S
C1333 C1331 1.433 . S
C1333 N1336 1.384 . S
C1334 H1325 0.929 . S
C1334 C1326 1.378 . S
C1334 C1329 1.350 . S
C1335 H1322 0.929 . S
C1335 C1327 1.433 . S
C1335 N1337 1.384 . S
N1336 C1332 1.427 . S
N1336 C1333 1.384 . S
N1337 C1329 1.427 . S
N1337 C1335 1.384 . S
H1338 C1344 0.930 . S
H1339 C1348 0.930 . S
H1340 C1353 0.929 . S
H1341 C1351 0.929 . S
H1342 C1346 0.929 . S
H1343 C1352 0.929 . S
C1344 H1338 0.930 . S
C1344 C1345 1.367 1_565 S
C1344 C1352 1.378 . S
C1345 C1344 1.367 1_545 S
C1345 C1353 1.433 . S
C1346 H1342 0.929 . S
C1346 C1348 1.378 . S
C1346 C1350 1.350 . S
C1347 C1350 1.463 . S
C1347 C1352 1.350 1_545 S
C1347 N1355 1.427 . S
C1348 H1339 0.930 . S
C1348 C1346 1.378 . S
C1348 C1349 1.367 . S
C1349 C1348 1.367 . S
C1349 C1351 1.433 1_545 S
C1350 C1346 1.350 . S
C1350 C1347 1.463 . S
C1350 N1354 1.427 1_545 S
C1351 H1341 0.929 . S
C1351 C1349 1.433 1_565 S
C1351 N1354 1.384 . S
C1352 H1343 0.929 . S
C1352 C1344 1.378 . S
C1352 C1347 1.350 1_565 S
C1353 H1340 0.929 . S
C1353 C1345 1.433 . S
C1353 N1355 1.384 . S
N1354 C1350 1.427 1_565 S
N1354 C1351 1.384 . S
N1355 C1347 1.427 . S
N1355 C1353 1.384 . S
H1356 C1362 0.930 . S
H1357 C1366 0.930 . S
H1358 C1371 0.929 1_556 S
H1359 C1369 0.929 . S
H1360 C1364 0.929 . S
H1361 C1370 0.929 . S
C1362 H1356 0.930 . S
C1362 C1363 1.367 1_565 S
C1362 C1370 1.378 . S
C1363 C1362 1.367 1_545 S
C1363 C1371 1.433 . S
C1364 H1360 0.929 . S
C1364 C1366 1.378 . S
C1364 C1368 1.350 . S
C1365 C1368 1.463 . S
C1365 C1370 1.350 1_545 S
C1365 N1373 1.427 . S
C1366 H1357 0.930 . S
C1366 C1364 1.378 . S
C1366 C1367 1.367 . S
C1367 C1366 1.367 . S
C1367 C1369 1.433 1_545 S
C1368 C1364 1.350 . S
C1368 C1365 1.463 . S
C1368 N1372 1.427 1_545 S
C1369 H1359 0.929 . S
C1369 C1367 1.433 1_565 S
C1369 N1372 1.384 . S
C1370 H1361 0.929 . S
C1370 C1362 1.378 . S
C1370 C1365 1.350 1_565 S
C1371 H1358 0.929 1_554 S
C1371 C1363 1.433 . S
C1371 N1373 1.384 . S
N1372 C1368 1.427 1_565 S
N1372 C1369 1.384 . S
N1373 C1365 1.427 . S
N1373 C1371 1.384 . S
H1374 C1380 0.930 . S
H1375 C1384 0.930 . S
H1376 C1389 0.929 . S
H1377 C1387 0.929 . S
H1378 C1382 0.929 . S
H1379 C1388 0.929 . S
C1380 H1374 0.930 . S
C1380 C1381 1.367 . S
C1380 C1388 1.378 . S
C1381 C1380 1.367 . S
C1381 C1389 1.433 . S
C1382 H1378 0.929 . S
C1382 C1384 1.378 . S
C1382 C1386 1.350 . S
C1383 C1386 1.463 . S
C1383 C1388 1.350 . S
C1383 N1391 1.427 . S
C1384 H1375 0.930 . S
C1384 C1382 1.378 . S
C1384 C1385 1.367 . S
C1385 C1384 1.367 . S
C1385 C1387 1.433 . S
C1386 C1382 1.350 . S
C1386 C1383 1.463 . S
C1386 N1390 1.427 . S
C1387 H1377 0.929 . S
C1387 C1385 1.433 . S
C1387 N1390 1.384 . S
C1388 H1379 0.929 . S
C1388 C1380 1.378 . S
C1388 C1383 1.350 . S
C1389 H1376 0.929 . S
C1389 C1381 1.433 . S
C1389 N1391 1.384 . S
N1390 C1386 1.427 . S
N1390 C1387 1.384 . S
N1391 C1383 1.427 . S
N1391 C1389 1.384 . S
H1392 C1398 0.930 . S
H1393 C1402 0.930 . S
H1394 C1407 0.929 . S
H1395 C1405 0.929 1_554 S
H1396 C1400 0.929 . S
H1397 C1406 0.929 . S
C1398 H1392 0.930 . S
C1398 C1399 1.367 . S
C1398 C1406 1.378 . S
C1399 C1398 1.367 . S
C1399 C1407 1.433 . S
C1400 H1396 0.929 . S
C1400 C1402 1.378 . S
C1400 C1404 1.350 . S
C1401 C1404 1.463 . S
C1401 C1406 1.350 . S
C1401 N1409 1.427 . S
C1402 H1393 0.930 . S
C1402 C1400 1.378 . S
C1402 C1403 1.367 . S
C1403 C1402 1.367 . S
C1403 C1405 1.433 . S
C1404 C1400 1.350 . S
C1404 C1401 1.463 . S
C1404 N1408 1.427 . S
C1405 H1395 0.929 1_556 S
C1405 C1403 1.433 . S
C1405 N1408 1.384 . S
C1406 H1397 0.929 . S
C1406 C1398 1.378 . S
C1406 C1401 1.350 . S
C1407 H1394 0.929 . S
C1407 C1399 1.433 . S
C1407 N1409 1.384 . S
N1408 C1404 1.427 . S
N1408 C1405 1.384 . S
N1409 C1401 1.427 . S
N1409 C1407 1.384 . S
H1410 C1416 0.930 . S
H1411 C1420 0.930 . S
H1412 C1425 0.929 . S
H1413 C1423 0.929 1_554 S
H1414 C1418 0.929 . S
H1415 C1424 0.929 . S
C1416 H1410 0.930 . S
C1416 C1417 1.367 . S
C1416 C1424 1.378 . S
C1417 C1416 1.367 . S
C1417 C1425 1.433 . S
C1418 H1414 0.929 . S
C1418 C1420 1.378 . S
C1418 C1422 1.350 . S
C1419 C1422 1.463 . S
C1419 C1424 1.350 . S
C1419 N1427 1.427 . S
C1420 H1411 0.930 . S
C1420 C1418 1.378 . S
C1420 C1421 1.367 . S
C1421 C1420 1.367 . S
C1421 C1423 1.433 . S
C1422 C1418 1.350 . S
C1422 C1419 1.463 . S
C1422 N1426 1.427 . S
C1423 H1413 0.929 1_556 S
C1423 C1421 1.433 . S
C1423 N1426 1.384 . S
C1424 H1415 0.929 . S
C1424 C1416 1.378 . S
C1424 C1419 1.350 . S
C1425 H1412 0.929 . S
C1425 C1417 1.433 . S
C1425 N1427 1.384 . S
N1426 C1422 1.427 . S
N1426 C1423 1.384 . S
N1427 C1419 1.427 . S
N1427 C1425 1.384 . S
H1428 C1434 0.930 . S
H1429 C1438 0.930 . S
H1430 C1443 0.929 . S
H1431 C1441 0.929 . S
H1432 C1436 0.929 . S
H1433 C1442 0.929 . S
C1434 H1428 0.930 . S
C1434 C1435 1.367 . S
C1434 C1442 1.378 . S
C1435 C1434 1.367 . S
C1435 C1443 1.433 . S
C1436 H1432 0.929 . S
C1436 C1438 1.378 . S
C1436 C1440 1.350 . S
C1437 C1440 1.463 . S
C1437 C1442 1.350 . S
C1437 N1445 1.427 . S
C1438 H1429 0.930 . S
C1438 C1436 1.378 . S
C1438 C1439 1.367 . S
C1439 C1438 1.367 . S
C1439 C1441 1.433 . S
C1440 C1436 1.350 . S
C1440 C1437 1.463 . S
C1440 N1444 1.427 . S
C1441 H1431 0.929 . S
C1441 C1439 1.433 . S
C1441 N1444 1.384 . S
C1442 H1433 0.929 . S
C1442 C1434 1.378 . S
C1442 C1437 1.350 . S
C1443 H1430 0.929 . S
C1443 C1435 1.433 . S
C1443 N1445 1.384 . S
N1444 C1440 1.427 . S
N1444 C1441 1.384 . S
N1445 C1437 1.427 . S
N1445 C1443 1.384 . S
H1446 C1452 0.930 . S
H1447 C1456 0.930 . S
H1448 C1461 0.929 . S
H1449 C1459 0.929 . S
H1450 C1454 0.929 . S
H1451 C1460 0.929 . S
C1452 H1446 0.930 . S
C1452 C1453 1.367 . S
C1452 C1460 1.378 . S
C1453 C1452 1.367 . S
C1453 C1461 1.433 . S
C1454 H1450 0.929 . S
C1454 C1456 1.378 . S
C1454 C1458 1.350 . S
C1455 C1458 1.463 . S
C1455 C1460 1.350 . S
C1455 N1463 1.427 . S
C1456 H1447 0.930 . S
C1456 C1454 1.378 . S
C1456 C1457 1.367 . S
C1457 C1456 1.367 . S
C1457 C1459 1.433 . S
C1458 C1454 1.350 . S
C1458 C1455 1.463 . S
C1458 N1462 1.427 . S
C1459 H1449 0.929 . S
C1459 C1457 1.433 . S
C1459 N1462 1.384 . S
C1460 H1451 0.929 . S
C1460 C1452 1.378 . S
C1460 C1455 1.350 . S
C1461 H1448 0.929 . S
C1461 C1453 1.433 . S
C1461 N1463 1.384 . S
N1462 C1458 1.427 . S
N1462 C1459 1.384 . S
N1463 C1455 1.427 . S
N1463 C1461 1.384 . S
H1464 C1470 0.930 . S
H1465 C1474 0.930 . S
H1466 C1479 0.929 . S
H1467 C1477 0.929 . S
H1468 C1472 0.929 . S
H1469 C1478 0.929 . S
C1470 H1464 0.930 . S
C1470 C1471 1.367 . S
C1470 C1478 1.378 . S
C1471 C1470 1.367 . S
C1471 C1479 1.433 . S
C1472 H1468 0.929 . S
C1472 C1474 1.378 . S
C1472 C1476 1.350 . S
C1473 C1476 1.463 . S
C1473 C1478 1.350 . S
C1473 N1481 1.427 . S
C1474 H1465 0.930 . S
C1474 C1472 1.378 . S
C1474 C1475 1.367 . S
C1475 C1474 1.367 . S
C1475 C1477 1.433 . S
C1476 C1472 1.350 . S
C1476 C1473 1.463 . S
C1476 N1480 1.427 . S
C1477 H1467 0.929 . S
C1477 C1475 1.433 . S
C1477 N1480 1.384 . S
C1478 H1469 0.929 . S
C1478 C1470 1.378 . S
C1478 C1473 1.350 . S
C1479 H1466 0.929 . S
C1479 C1471 1.433 . S
C1479 N1481 1.384 . S
N1480 C1476 1.427 . S
N1480 C1477 1.384 . S
N1481 C1473 1.427 . S
N1481 C1479 1.384 . S
H1482 C1488 0.930 . S
H1483 C1492 0.930 . S
H1484 C1497 0.929 . S
H1485 C1495 0.929 . S
H1486 C1490 0.929 . S
H1487 C1496 0.929 . S
C1488 H1482 0.930 . S
C1488 C1489 1.367 . S
C1488 C1496 1.378 . S
C1489 C1488 1.367 . S
C1489 C1497 1.433 . S
C1490 H1486 0.929 . S
C1490 C1492 1.378 . S
C1490 C1494 1.350 . S
C1491 C1494 1.463 . S
C1491 C1496 1.350 . S
C1491 N1499 1.427 . S
C1492 H1483 0.930 . S
C1492 C1490 1.378 . S
C1492 C1493 1.367 . S
C1493 C1492 1.367 . S
C1493 C1495 1.433 . S
C1494 C1490 1.350 . S
C1494 C1491 1.463 . S
C1494 N1498 1.427 . S
C1495 H1485 0.929 . S
C1495 C1493 1.433 . S
C1495 N1498 1.384 . S
C1496 H1487 0.929 . S
C1496 C1488 1.378 . S
C1496 C1491 1.350 . S
C1497 H1484 0.929 . S
C1497 C1489 1.433 . S
C1497 N1499 1.384 . S
N1498 C1494 1.427 . S
N1498 C1495 1.384 . S
N1499 C1491 1.427 . S
N1499 C1497 1.384 . S
H1500 C1506 0.930 . S
H1501 C1510 0.930 . S
H1502 C1515 0.929 . S
H1503 C1513 0.929 . S
H1504 C1508 0.929 . S
H1505 C1514 0.929 . S
C1506 H1500 0.930 . S
C1506 C1507 1.367 . S
C1506 C1514 1.378 . S
C1507 C1506 1.367 . S
C1507 C1515 1.433 . S
C1508 H1504 0.929 . S
C1508 C1510 1.378 . S
C1508 C1512 1.350 . S
C1509 C1512 1.463 . S
C1509 C1514 1.350 . S
C1509 N1517 1.427 . S
C1510 H1501 0.930 . S
C1510 C1508 1.378 . S
C1510 C1511 1.367 . S
C1511 C1510 1.367 . S
C1511 C1513 1.433 . S
C1512 C1508 1.350 . S
C1512 C1509 1.463 . S
C1512 N1516 1.427 . S
C1513 H1503 0.929 . S
C1513 C1511 1.433 . S
C1513 N1516 1.384 . S
C1514 H1505 0.929 . S
C1514 C1506 1.378 . S
C1514 C1509 1.350 . S
C1515 H1502 0.929 . S
C1515 C1507 1.433 . S
C1515 N1517 1.384 . S
N1516 C1512 1.427 . S
N1516 C1513 1.384 . S
N1517 C1509 1.427 . S
N1517 C1515 1.384 . S
H1518 C1524 0.930 . S
H1519 C1528 0.930 . S
H1520 C1533 0.929 . S
H1521 C1531 0.929 . S
H1522 C1526 0.929 . S
H1523 C1532 0.929 . S
C1524 H1518 0.930 . S
C1524 C1525 1.367 . S
C1524 C1532 1.378 . S
C1525 C1524 1.367 . S
C1525 C1533 1.433 . S
C1526 H1522 0.929 . S
C1526 C1528 1.378 . S
C1526 C1530 1.350 . S
C1527 C1530 1.463 . S
C1527 C1532 1.350 . S
C1527 N1535 1.427 . S
C1528 H1519 0.930 . S
C1528 C1526 1.378 . S
C1528 C1529 1.367 . S
C1529 C1528 1.367 . S
C1529 C1531 1.433 . S
C1530 C1526 1.350 . S
C1530 C1527 1.463 . S
C1530 N1534 1.427 . S
C1531 H1521 0.929 . S
C1531 C1529 1.433 . S
C1531 N1534 1.384 . S
C1532 H1523 0.929 . S
C1532 C1524 1.378 . S
C1532 C1527 1.350 . S
C1533 H1520 0.929 . S
C1533 C1525 1.433 . S
C1533 N1535 1.384 . S
N1534 C1530 1.427 . S
N1534 C1531 1.384 . S
N1535 C1527 1.427 . S
N1535 C1533 1.384 . S
H1536 C1542 0.930 . S
H1537 C1546 0.930 . S
H1538 C1551 0.929 . S
H1539 C1549 0.929 . S
H1540 C1544 0.929 . S
H1541 C1550 0.929 . S
C1542 H1536 0.930 . S
C1542 C1543 1.367 . S
C1542 C1550 1.378 . S
C1543 C1542 1.367 . S
C1543 C1551 1.433 . S
C1544 H1540 0.929 . S
C1544 C1546 1.378 . S
C1544 C1548 1.350 . S
C1545 C1548 1.463 . S
C1545 C1550 1.350 . S
C1545 N1553 1.427 . S
C1546 H1537 0.930 . S
C1546 C1544 1.378 . S
C1546 C1547 1.367 . S
C1547 C1546 1.367 . S
C1547 C1549 1.433 . S
C1548 C1544 1.350 . S
C1548 C1545 1.463 . S
C1548 N1552 1.427 . S
C1549 H1539 0.929 . S
C1549 C1547 1.433 . S
C1549 N1552 1.384 . S
C1550 H1541 0.929 . S
C1550 C1542 1.378 . S
C1550 C1545 1.350 . S
C1551 H1538 0.929 . S
C1551 C1543 1.433 . S
C1551 N1553 1.384 . S
N1552 C1548 1.427 . S
N1552 C1549 1.384 . S
N1553 C1545 1.427 . S
N1553 C1551 1.384 . S
H1554 C1560 0.930 . S
H1555 C1564 0.930 . S
H1556 C1569 0.929 . S
H1557 C1567 0.929 . S
H1558 C1562 0.929 . S
H1559 C1568 0.929 . S
C1560 H1554 0.930 . S
C1560 C1561 1.367 . S
C1560 C1568 1.378 . S
C1561 C1560 1.367 . S
C1561 C1569 1.433 1_545 S
C1562 H1558 0.929 . S
C1562 C1564 1.378 . S
C1562 C1566 1.350 . S
C1563 C1566 1.463 1_545 S
C1563 C1568 1.350 . S
C1563 N1571 1.427 1_545 S
C1564 H1555 0.930 . S
C1564 C1562 1.378 . S
C1564 C1565 1.367 . S
C1565 C1564 1.367 . S
C1565 C1567 1.433 1_565 S
C1566 C1562 1.350 . S
C1566 C1563 1.463 1_565 S
C1566 N1570 1.427 1_565 S
C1567 H1557 0.929 . S
C1567 C1565 1.433 1_545 S
C1567 N1570 1.384 . S
C1568 H1559 0.929 . S
C1568 C1560 1.378 . S
C1568 C1563 1.350 . S
C1569 H1556 0.929 . S
C1569 C1561 1.433 1_565 S
C1569 N1571 1.384 . S
N1570 C1566 1.427 1_545 S
N1570 C1567 1.384 . S
N1571 C1563 1.427 1_565 S
N1571 C1569 1.384 . S
H1572 C1578 0.930 . S
H1573 C1582 0.930 . S
H1574 C1587 0.929 . S
H1575 C1585 0.929 . S
H1576 C1580 0.929 . S
H1577 C1586 0.929 . S
C1578 H1572 0.930 . S
C1578 C1579 1.367 1_545 S
C1578 C1586 1.378 . S
C1579 C1578 1.367 1_565 S
C1579 C1587 1.433 . S
C1580 H1576 0.929 . S
C1580 C1582 1.378 . S
C1580 C1584 1.358 . S
C1581 C1584 1.462 . S
C1581 C1586 1.309 1_565 S
C1581 N1589 1.474 . S
C1582 H1573 0.930 . S
C1582 C1580 1.378 . S
C1582 C1583 1.367 1_565 S
C1583 C1582 1.367 1_545 S
C1583 C1585 1.433 . S
C1584 C1580 1.358 . S
C1584 C1581 1.462 . S
C1584 N1588 1.419 1_565 S
C1585 H1575 0.929 . S
C1585 C1583 1.433 . S
C1585 N1588 1.384 . S
C1586 H1577 0.929 . S
C1586 C1578 1.378 . S
C1586 C1581 1.309 1_545 S
C1587 H1574 0.929 . S
C1587 C1579 1.433 . S
C1587 N1589 1.384 . S
N1588 C1584 1.419 1_545 S
N1588 C1585 1.384 . S
N1589 C1581 1.474 . S
N1589 C1587 1.384 . S
H1590 C1596 0.930 . S
H1591 C1600 0.930 . S
H1592 C1605 0.929 . S
H1593 C1603 0.929 . S
H1594 C1598 0.929 . S
H1595 C1604 0.929 . S
C1596 H1590 0.930 . S
C1596 C1597 1.367 . S
C1596 C1604 1.378 . S
C1597 C1596 1.367 . S
C1597 C1605 1.433 . S
C1598 H1594 0.929 . S
C1598 C1600 1.378 . S
C1598 C1602 1.350 . S
C1599 C1602 1.463 . S
C1599 C1604 1.350 . S
C1599 N1607 1.427 . S
C1600 H1591 0.930 . S
C1600 C1598 1.378 . S
C1600 C1601 1.367 . S
C1601 C1600 1.367 . S
C1601 C1603 1.433 . S
C1602 C1598 1.350 . S
C1602 C1599 1.463 . S
C1602 N1606 1.427 . S
C1603 H1593 0.929 . S
C1603 C1601 1.433 . S
C1603 N1606 1.384 . S
C1604 H1595 0.929 . S
C1604 C1596 1.378 . S
C1604 C1599 1.350 . S
C1605 H1592 0.929 . S
C1605 C1597 1.433 . S
C1605 N1607 1.384 . S
N1606 C1602 1.427 . S
N1606 C1603 1.384 . S
N1607 C1599 1.427 . S
N1607 C1605 1.384 . S
H1608 C1614 0.930 . S
H1609 C1618 0.930 . S
H1610 C1623 0.929 . S
H1611 C1621 0.929 . S
H1612 C1616 0.929 . S
H1613 C1622 0.929 . S
C1614 H1608 0.930 . S
C1614 C1615 1.367 . S
C1614 C1622 1.378 . S
C1615 C1614 1.367 . S
C1615 C1623 1.433 . S
C1616 H1612 0.929 . S
C1616 C1618 1.378 . S
C1616 C1620 1.350 . S
C1617 C1620 1.463 . S
C1617 C1622 1.350 . S
C1617 N1625 1.427 . S
C1618 H1609 0.930 . S
C1618 C1616 1.378 . S
C1618 C1619 1.367 . S
C1619 C1618 1.367 . S
C1619 C1621 1.433 . S
C1620 C1616 1.350 . S
C1620 C1617 1.463 . S
C1620 N1624 1.427 . S
C1621 H1611 0.929 . S
C1621 C1619 1.433 . S
C1621 N1624 1.384 . S
C1622 H1613 0.929 . S
C1622 C1614 1.378 . S
C1622 C1617 1.350 . S
C1623 H1610 0.929 . S
C1623 C1615 1.433 . S
C1623 N1625 1.384 . S
N1624 C1620 1.427 . S
N1624 C1621 1.384 . S
N1625 C1617 1.427 . S
N1625 C1623 1.384 . S
H1626 C1632 0.930 . S
H1627 C1636 0.930 . S
H1628 C1641 0.929 . S
H1629 C1639 0.929 . S
H1630 C1634 0.929 . S
H1631 C1640 0.929 . S
C1632 H1626 0.930 . S
C1632 C1633 1.367 . S
C1632 C1640 1.378 . S
C1633 C1632 1.367 . S
C1633 C1641 1.433 1_545 S
C1634 H1630 0.929 . S
C1634 C1636 1.378 . S
C1634 C1638 1.350 . S
C1635 C1638 1.463 1_545 S
C1635 C1640 1.350 . S
C1635 N1643 1.427 1_545 S
C1636 H1627 0.930 . S
C1636 C1634 1.378 . S
C1636 C1637 1.367 . S
C1637 C1636 1.367 . S
C1637 C1639 1.433 1_565 S
C1638 C1634 1.350 . S
C1638 C1635 1.463 1_565 S
C1638 N1642 1.427 1_565 S
C1639 H1629 0.929 . S
C1639 C1637 1.433 1_545 S
C1639 N1642 1.384 . S
C1640 H1631 0.929 . S
C1640 C1632 1.378 . S
C1640 C1635 1.350 . S
C1641 H1628 0.929 . S
C1641 C1633 1.433 1_565 S
C1641 N1643 1.384 . S
N1642 C1638 1.427 1_545 S
N1642 C1639 1.384 . S
N1643 C1635 1.427 1_565 S
N1643 C1641 1.384 . S
H1644 C1650 0.930 . S
H1645 C1654 0.930 . S
H1646 C1659 0.929 . S
H1647 C1657 0.929 . S
H1648 C1652 0.929 . S
H1649 C1658 0.929 . S
C1650 H1644 0.930 . S
C1650 C1651 1.367 1_565 S
C1650 C1658 1.378 . S
C1651 C1650 1.367 1_545 S
C1651 C1659 1.433 . S
C1652 H1648 0.929 . S
C1652 C1654 1.378 . S
C1652 C1656 1.351 . S
C1653 C1656 1.463 . S
C1653 C1658 1.350 1_545 S
C1653 N1661 1.427 . S
C1654 H1645 0.930 . S
C1654 C1652 1.378 . S
C1654 C1655 1.367 1_545 S
C1655 C1654 1.367 1_565 S
C1655 C1657 1.433 . S
C1656 C1652 1.351 . S
C1656 C1653 1.463 . S
C1656 N1660 1.426 1_545 S
C1657 H1647 0.929 . S
C1657 C1655 1.433 . S
C1657 N1660 1.384 . S
C1658 H1649 0.929 . S
C1658 C1650 1.378 . S
C1658 C1653 1.350 1_565 S
C1659 H1646 0.929 . S
C1659 C1651 1.433 . S
C1659 N1661 1.384 . S
N1660 C1656 1.426 1_565 S
N1660 C1657 1.384 . S
N1661 C1653 1.427 . S
N1661 C1659 1.384 . S
H1662 C1668 0.930 . S
H1663 C1672 0.930 . S
H1664 C1677 0.929 . S
H1665 C1675 0.929 . S
H1666 C1670 0.929 . S
H1667 C1676 0.929 . S
C1668 H1662 0.930 . S
C1668 C1669 1.367 . S
C1668 C1676 1.378 . S
C1669 C1668 1.367 . S
C1669 C1677 1.433 . S
C1670 H1666 0.929 . S
C1670 C1672 1.378 . S
C1670 C1674 1.350 . S
C1671 C1674 1.463 . S
C1671 C1676 1.350 . S
C1671 N1679 1.427 . S
C1672 H1663 0.930 . S
C1672 C1670 1.378 . S
C1672 C1673 1.367 . S
C1673 C1672 1.367 . S
C1673 C1675 1.433 . S
C1674 C1670 1.350 . S
C1674 C1671 1.463 . S
C1674 N1678 1.427 . S
C1675 H1665 0.929 . S
C1675 C1673 1.433 . S
C1675 N1678 1.384 . S
C1676 H1667 0.929 . S
C1676 C1668 1.378 . S
C1676 C1671 1.350 . S
C1677 H1664 0.929 . S
C1677 C1669 1.433 . S
C1677 N1679 1.384 . S
N1678 C1674 1.427 . S
N1678 C1675 1.384 . S
N1679 C1671 1.427 . S
N1679 C1677 1.384 . S
H1680 C1686 0.930 1_556 S
H1681 C1690 0.930 . S
H1682 C1695 0.929 1_556 S
H1683 C1693 0.929 . S
H1684 C1688 0.929 . S
H1685 C1694 0.929 . S
C1686 H1680 0.930 1_554 S
C1686 C1687 1.367 1_554 S
C1686 C1694 1.378 . S
C1687 C1686 1.367 1_556 S
C1687 C1695 1.433 1_556 S
C1688 H1684 0.929 . S
C1688 C1690 1.378 . S
C1688 C1692 1.350 . S
C1689 C1692 1.463 . S
C1689 C1694 1.350 . S
C1689 N1697 1.427 . S
C1690 H1681 0.930 . S
C1690 C1688 1.378 . S
C1690 C1691 1.367 . S
C1691 C1690 1.367 . S
C1691 C1693 1.433 . S
C1692 C1688 1.350 . S
C1692 C1689 1.463 . S
C1692 N1696 1.427 . S
C1693 H1683 0.929 . S
C1693 C1691 1.433 . S
C1693 N1696 1.384 . S
C1694 H1685 0.929 . S
C1694 C1686 1.378 . S
C1694 C1689 1.350 . S
C1695 H1682 0.929 1_554 S
C1695 C1687 1.433 1_554 S
C1695 N1697 1.384 . S
N1696 C1692 1.427 . S
N1696 C1693 1.384 . S
N1697 C1689 1.427 . S
N1697 C1695 1.384 . S
H1698 C1704 0.930 . S
H1699 C1708 0.930 . S
H1700 C1713 0.929 . S
H1701 C1711 0.929 1_556 S
H1702 C1706 0.929 . S
H1703 C1712 0.929 . S
C1704 H1698 0.930 . S
C1704 C1705 1.367 . S
C1704 C1712 1.378 . S
C1705 C1704 1.367 . S
C1705 C1713 1.433 . S
C1706 H1702 0.929 . S
C1706 C1708 1.378 . S
C1706 C1710 1.350 . S
C1707 C1710 1.463 . S
C1707 C1712 1.350 . S
C1707 N1715 1.427 . S
C1708 H1699 0.930 . S
C1708 C1706 1.378 . S
C1708 C1709 1.367 1_554 S
C1709 C1708 1.367 1_556 S
C1709 C1711 1.433 1_556 S
C1710 C1706 1.350 . S
C1710 C1707 1.463 . S
C1710 N1714 1.427 . S
C1711 H1701 0.929 1_554 S
C1711 C1709 1.433 1_554 S
C1711 N1714 1.384 . S
C1712 H1703 0.929 . S
C1712 C1704 1.378 . S
C1712 C1707 1.350 . S
C1713 H1700 0.929 . S
C1713 C1705 1.433 . S
C1713 N1715 1.384 . S
N1714 C1710 1.427 . S
N1714 C1711 1.384 . S
N1715 C1707 1.427 . S
N1715 C1713 1.384 . S
H1716 C1722 0.930 . S
H1717 C1726 0.930 . S
H1718 C1731 0.929 . S
H1719 C1729 0.929 . S
H1720 C1724 0.929 . S
H1721 C1730 0.929 . S
C1722 H1716 0.930 . S
C1722 C1723 1.367 . S
C1722 C1730 1.378 . S
C1723 C1722 1.367 . S
C1723 C1731 1.433 . S
C1724 H1720 0.929 . S
C1724 C1726 1.378 . S
C1724 C1728 1.350 . S
C1725 C1728 1.463 1_556 S
C1725 C1730 1.350 . S
C1725 N1733 1.427 . S
C1726 H1717 0.930 . S
C1726 C1724 1.378 . S
C1726 C1727 1.367 . S
C1727 C1726 1.367 . S
C1727 C1729 1.433 . S
C1728 C1724 1.350 . S
C1728 C1725 1.463 1_554 S
C1728 N1732 1.427 . S
C1729 H1719 0.929 . S
C1729 C1727 1.433 . S
C1729 N1732 1.384 . S
C1730 H1721 0.929 . S
C1730 C1722 1.378 . S
C1730 C1725 1.350 . S
C1731 H1718 0.929 . S
C1731 C1723 1.433 . S
C1731 N1733 1.384 . S
N1732 C1728 1.427 . S
N1732 C1729 1.384 . S
N1733 C1725 1.427 . S
N1733 C1731 1.384 . S
H1734 C1740 0.930 . S
H1735 C1744 0.930 . S
H1736 C1749 0.929 . S
H1737 C1747 0.929 . S
H1738 C1742 0.929 . S
H1739 C1748 0.929 . S
C1740 H1734 0.930 . S
C1740 C1741 1.367 . S
C1740 C1748 1.378 . S
C1741 C1740 1.367 . S
C1741 C1749 1.433 . S
C1742 H1738 0.929 . S
C1742 C1744 1.378 . S
C1742 C1746 1.350 . S
C1743 C1746 1.463 1_556 S
C1743 C1748 1.350 . S
C1743 N1751 1.427 . S
C1744 H1735 0.930 . S
C1744 C1742 1.378 . S
C1744 C1745 1.367 . S
C1745 C1744 1.367 . S
C1745 C1747 1.433 . S
C1746 C1742 1.350 . S
C1746 C1743 1.463 1_554 S
C1746 N1750 1.427 . S
C1747 H1737 0.929 . S
C1747 C1745 1.433 . S
C1747 N1750 1.384 . S
C1748 H1739 0.929 . S
C1748 C1740 1.378 . S
C1748 C1743 1.350 . S
C1749 H1736 0.929 . S
C1749 C1741 1.433 . S
C1749 N1751 1.384 . S
N1750 C1746 1.427 . S
N1750 C1747 1.384 . S
N1751 C1743 1.427 . S
N1751 C1749 1.384 . S
H1752 C1758 0.930 . S
H1753 C1762 0.930 1_554 S
H1754 C1767 0.929 . S
H1755 C1765 0.929 1_554 S
H1756 C1760 0.929 . S
H1757 C1766 0.929 . S
C1758 H1752 0.930 . S
C1758 C1759 1.367 . S
C1758 C1766 1.378 . S
C1759 C1758 1.367 . S
C1759 C1767 1.433 . S
C1760 H1756 0.929 . S
C1760 C1762 1.378 . S
C1760 C1764 1.350 . S
C1761 C1764 1.463 . S
C1761 C1766 1.350 . S
C1761 N1769 1.427 . S
C1762 H1753 0.930 1_556 S
C1762 C1760 1.378 . S
C1762 C1763 1.367 1_556 S
C1763 C1762 1.367 1_554 S
C1763 C1765 1.433 1_554 S
C1764 C1760 1.350 . S
C1764 C1761 1.463 . S
C1764 N1768 1.427 . S
C1765 H1755 0.929 1_556 S
C1765 C1763 1.433 1_556 S
C1765 N1768 1.384 . S
C1766 H1757 0.929 . S
C1766 C1758 1.378 . S
C1766 C1761 1.350 . S
C1767 H1754 0.929 . S
C1767 C1759 1.433 . S
C1767 N1769 1.384 . S
N1768 C1764 1.427 . S
N1768 C1765 1.384 . S
N1769 C1761 1.427 . S
N1769 C1767 1.384 . S
H1770 C1776 0.930 . S
H1771 C1780 0.930 . S
H1772 C1785 0.929 1_554 S
H1773 C1783 0.929 . S
H1774 C1778 0.929 . S
H1775 C1784 0.929 . S
C1776 H1770 0.930 . S
C1776 C1777 1.367 1_556 S
C1776 C1784 1.378 . S
C1777 C1776 1.367 1_554 S
C1777 C1785 1.433 1_554 S
C1778 H1774 0.929 . S
C1778 C1780 1.378 . S
C1778 C1782 1.350 . S
C1779 C1782 1.463 . S
C1779 C1784 1.350 . S
C1779 N1787 1.427 . S
C1780 H1771 0.930 . S
C1780 C1778 1.378 . S
C1780 C1781 1.367 . S
C1781 C1780 1.367 . S
C1781 C1783 1.433 . S
C1782 C1778 1.350 . S
C1782 C1779 1.463 . S
C1782 N1786 1.427 . S
C1783 H1773 0.929 . S
C1783 C1781 1.433 . S
C1783 N1786 1.384 . S
C1784 H1775 0.929 . S
C1784 C1776 1.378 . S
C1784 C1779 1.350 . S
C1785 H1772 0.929 1_556 S
C1785 C1777 1.433 1_556 S
C1785 N1787 1.384 . S
N1786 C1782 1.427 . S
N1786 C1783 1.384 . S
N1787 C1779 1.427 . S
N1787 C1785 1.384 . S
H1788 C1794 0.930 . S
H1789 C1798 0.930 . S
H1790 C1803 0.929 . S
H1791 C1801 0.929 . S
H1792 C1796 0.929 . S
H1793 C1802 0.929 . S
C1794 H1788 0.930 . S
C1794 C1795 1.367 . S
C1794 C1802 1.378 . S
C1795 C1794 1.367 . S
C1795 C1803 1.433 . S
C1796 H1792 0.929 . S
C1796 C1798 1.378 . S
C1796 C1800 1.350 . S
C1797 C1800 1.463 1_554 S
C1797 C1802 1.350 . S
C1797 N1805 1.427 . S
C1798 H1789 0.930 . S
C1798 C1796 1.378 . S
C1798 C1799 1.367 . S
C1799 C1798 1.367 . S
C1799 C1801 1.433 . S
C1800 C1796 1.350 . S
C1800 C1797 1.463 1_556 S
C1800 N1804 1.427 . S
C1801 H1791 0.929 . S
C1801 C1799 1.433 . S
C1801 N1804 1.384 . S
C1802 H1793 0.929 . S
C1802 C1794 1.378 . S
C1802 C1797 1.350 . S
C1803 H1790 0.929 . S
C1803 C1795 1.433 . S
C1803 N1805 1.384 . S
N1804 C1800 1.427 . S
N1804 C1801 1.384 . S
N1805 C1797 1.427 . S
N1805 C1803 1.384 . S
H1806 C1812 0.930 . S
H1807 C1816 0.930 . S
H1808 C1821 0.929 . S
H1809 C1819 0.929 . S
H1810 C1814 0.929 . S
H1811 C1820 0.929 . S
C1812 H1806 0.930 . S
C1812 C1813 1.367 . S
C1812 C1820 1.378 . S
C1813 C1812 1.367 . S
C1813 C1821 1.433 . S
C1814 H1810 0.929 . S
C1814 C1816 1.378 . S
C1814 C1818 1.350 . S
C1815 C1818 1.463 1_556 S
C1815 C1820 1.350 . S
C1815 N1823 1.427 . S
C1816 H1807 0.930 . S
C1816 C1814 1.378 . S
C1816 C1817 1.367 . S
C1817 C1816 1.367 . S
C1817 C1819 1.433 . S
C1818 C1814 1.350 . S
C1818 C1815 1.463 1_554 S
C1818 N1822 1.427 . S
C1819 H1809 0.929 . S
C1819 C1817 1.433 . S
C1819 N1822 1.384 . S
C1820 H1811 0.929 . S
C1820 C1812 1.378 . S
C1820 C1815 1.350 . S
C1821 H1808 0.929 . S
C1821 C1813 1.433 . S
C1821 N1823 1.384 . S
N1822 C1818 1.427 . S
N1822 C1819 1.384 . S
N1823 C1815 1.427 . S
N1823 C1821 1.384 . S
H1824 C1830 0.930 1_556 S
H1825 C1834 0.930 . S
H1826 C1839 0.931 . S
H1827 C1837 0.929 . S
H1828 C1832 0.929 . S
H1829 C1838 0.929 . S
C1830 H1824 0.930 1_554 S
C1830 C1831 1.367 1_554 S
C1830 C1838 1.378 . S
C1831 C1830 1.367 1_556 S
C1831 C1839 1.433 1_556 S
C1832 H1828 0.929 . S
C1832 C1834 1.378 . S
C1832 C1836 1.350 . S
C1833 C1836 1.463 . S
C1833 C1838 1.350 . S
C1833 N1841 1.427 . S
C1834 H1825 0.930 . S
C1834 C1832 1.378 . S
C1834 C1835 1.367 . S
C1835 C1834 1.367 . S
C1835 C1837 1.433 . S
C1836 C1832 1.350 . S
C1836 C1833 1.463 . S
C1836 N1840 1.427 . S
C1837 H1827 0.929 . S
C1837 C1835 1.433 . S
C1837 N1840 1.384 . S
C1838 H1829 0.929 . S
C1838 C1830 1.378 . S
C1838 C1833 1.350 . S
C1839 H1826 0.931 . S
C1839 C1831 1.433 1_554 S
C1839 N1841 1.384 . S
N1840 C1836 1.427 . S
N1840 C1837 1.384 . S
N1841 C1833 1.427 . S
N1841 C1839 1.384 . S
H1842 C1848 0.930 . S
H1843 C1852 0.930 1_556 S
H1844 C1857 0.929 . S
H1845 C1855 0.929 1_556 S
H1846 C1850 0.926 1_565 S
H1847 C1856 0.930 . S
C1848 H1842 0.930 . S
C1848 C1849 1.367 . S
C1848 C1856 1.378 . S
C1849 C1848 1.367 . S
C1849 C1857 1.433 . S
C1850 H1846 0.926 1_545 S
C1850 C1852 1.380 . S
C1850 C1854 1.350 . S
C1851 C1854 1.461 1_565 S
C1851 C1856 1.350 . S
C1851 N1859 1.427 . S
C1852 H1843 0.930 1_554 S
C1852 C1850 1.380 . S
C1852 C1853 1.367 1_554 S
C1853 C1852 1.367 1_556 S
C1853 C1855 1.433 1_556 S
C1854 C1850 1.350 . S
C1854 C1851 1.461 1_545 S
C1854 N1858 1.429 . S
C1855 H1845 0.929 1_554 S
C1855 C1853 1.433 1_554 S
C1855 N1858 1.384 . S
C1856 H1847 0.930 . S
C1856 C1848 1.378 . S
C1856 C1851 1.350 . S
C1857 H1844 0.929 . S
C1857 C1849 1.433 . S
C1857 N1859 1.384 . S
N1858 C1854 1.429 . S
N1858 C1855 1.384 . S
N1859 C1851 1.427 . S
N1859 C1857 1.384 . S
H1860 C1866 0.930 . S
H1861 C1870 0.930 . S
H1862 C1875 0.929 . S
H1863 C1873 0.929 . S
H1864 C1868 0.929 . S
H1865 C1874 0.929 . S
C1866 H1860 0.930 . S
C1866 C1867 1.367 1_545 S
C1866 C1874 1.378 . S
C1867 C1866 1.367 1_565 S
C1867 C1875 1.433 . S
C1868 H1864 0.929 . S
C1868 C1870 1.378 . S
C1868 C1872 1.352 1_565 S
C1869 C1872 1.463 1_566 S
C1869 C1874 1.350 1_565 S
C1869 N1877 1.427 . S
C1870 H1861 0.930 . S
C1870 C1868 1.378 . S
C1870 C1871 1.367 1_565 S
C1871 C1870 1.367 1_545 S
C1871 C1873 1.433 . S
C1872 C1868 1.352 1_545 S
C1872 C1869 1.463 1_544 S
C1872 N1876 1.425 . S
C1873 H1863 0.929 . S
C1873 C1871 1.433 . S
C1873 N1876 1.384 . S
C1874 H1865 0.929 . S
C1874 C1866 1.378 . S
C1874 C1869 1.350 1_545 S
C1875 H1862 0.929 . S
C1875 C1867 1.433 . S
C1875 N1877 1.384 . S
N1876 C1872 1.425 . S
N1876 C1873 1.384 . S
N1877 C1869 1.427 . S
N1877 C1875 1.384 . S
H1878 C1884 0.930 . S
H1879 C1888 0.930 . S
H1880 C1893 0.929 . S
H1881 C1891 0.929 . S
H1882 C1886 0.929 . S
H1883 C1892 0.929 . S
C1884 H1878 0.930 . S
C1884 C1885 1.367 . S
C1884 C1892 1.378 . S
C1885 C1884 1.367 . S
C1885 C1893 1.433 . S
C1886 H1882 0.929 . S
C1886 C1888 1.378 . S
C1886 C1890 1.350 . S
C1887 C1890 1.463 1_556 S
C1887 C1892 1.350 . S
C1887 N1895 1.427 . S
C1888 H1879 0.930 . S
C1888 C1886 1.378 . S
C1888 C1889 1.367 . S
C1889 C1888 1.367 . S
C1889 C1891 1.433 . S
C1890 C1886 1.350 . S
C1890 C1887 1.463 1_554 S
C1890 N1894 1.427 . S
C1891 H1881 0.929 . S
C1891 C1889 1.433 . S
C1891 N1894 1.384 . S
C1892 H1883 0.929 . S
C1892 C1884 1.378 . S
C1892 C1887 1.350 . S
C1893 H1880 0.929 . S
C1893 C1885 1.433 . S
C1893 N1895 1.384 . S
N1894 C1890 1.427 . S
N1894 C1891 1.384 . S
N1895 C1887 1.427 . S
N1895 C1893 1.384 . S
H1896 C1902 0.930 1_554 S
H1897 C1906 0.930 . S
H1898 C1911 0.929 . S
H1899 C1909 0.929 . S
H1900 C1904 0.929 . S
H1901 C1910 0.929 . S
C1902 H1896 0.930 1_556 S
C1902 C1903 1.367 1_556 S
C1902 C1910 1.378 . S
C1903 C1902 1.367 1_554 S
C1903 C1911 1.433 1_554 S
C1904 H1900 0.929 . S
C1904 C1906 1.378 . S
C1904 C1908 1.350 . S
C1905 C1908 1.463 . S
C1905 C1910 1.350 . S
C1905 N1913 1.427 . S
C1906 H1897 0.930 . S
C1906 C1904 1.378 . S
C1906 C1907 1.367 . S
C1907 C1906 1.367 . S
C1907 C1909 1.433 . S
C1908 C1904 1.350 . S
C1908 C1905 1.463 . S
C1908 N1912 1.427 . S
C1909 H1899 0.929 . S
C1909 C1907 1.433 . S
C1909 N1912 1.384 . S
C1910 H1901 0.929 . S
C1910 C1902 1.378 . S
C1910 C1905 1.350 . S
C1911 H1898 0.929 . S
C1911 C1903 1.433 1_556 S
C1911 N1913 1.384 . S
N1912 C1908 1.427 . S
N1912 C1909 1.384 . S
N1913 C1905 1.427 . S
N1913 C1911 1.384 . S
H1914 C1920 0.930 . S
H1915 C1924 0.930 . S
H1916 C1929 0.929 . S
H1917 C1927 0.929 1_554 S
H1918 C1922 0.929 . S
H1919 C1928 0.929 . S
C1920 H1914 0.930 . S
C1920 C1921 1.367 . S
C1920 C1928 1.378 . S
C1921 C1920 1.367 . S
C1921 C1929 1.433 1_545 S
C1922 H1918 0.929 . S
C1922 C1924 1.378 . S
C1922 C1926 1.350 . S
C1923 C1926 1.463 1_545 S
C1923 C1928 1.350 . S
C1923 N1931 1.427 1_545 S
C1924 H1915 0.930 . S
C1924 C1922 1.378 . S
C1924 C1925 1.367 1_556 S
C1925 C1924 1.367 1_554 S
C1925 C1927 1.433 1_564 S
C1926 C1922 1.350 . S
C1926 C1923 1.463 1_565 S
C1926 N1930 1.427 1_565 S
C1927 H1917 0.929 1_556 S
C1927 C1925 1.433 1_546 S
C1927 N1930 1.384 . S
C1928 H1919 0.929 . S
C1928 C1920 1.378 . S
C1928 C1923 1.350 . S
C1929 H1916 0.929 . S
C1929 C1921 1.433 1_565 S
C1929 N1931 1.384 . S
N1930 C1926 1.427 1_545 S
N1930 C1927 1.384 . S
N1931 C1923 1.427 1_565 S
N1931 C1929 1.384 . S
H1932 C1938 0.930 . S
H1933 C1942 0.930 . S
H1934 C1947 0.929 . S
H1935 C1945 0.929 . S
H1936 C1940 0.929 . S
H1937 C1946 0.929 . S
C1938 H1932 0.930 . S
C1938 C1939 1.367 1_545 S
C1938 C1946 1.378 . S
C1939 C1938 1.367 1_565 S
C1939 C1947 1.433 . S
C1940 H1936 0.929 . S
C1940 C1942 1.378 . S
C1940 C1944 1.314 1_565 S
C1941 C1944 1.462 1_556 S
C1941 C1946 1.351 . S
C1941 N1949 1.426 1_545 S
C1942 H1933 0.930 . S
C1942 C1940 1.378 . S
C1942 C1943 1.367 1_565 S
C1943 C1942 1.367 1_545 S
C1943 C1945 1.433 . S
C1944 C1940 1.314 1_545 S
C1944 C1941 1.462 1_554 S
C1944 N1948 1.469 . S
C1945 H1935 0.929 . S
C1945 C1943 1.433 . S
C1945 N1948 1.384 . S
C1946 H1937 0.929 . S
C1946 C1938 1.378 . S
C1946 C1941 1.351 . S
C1947 H1934 0.929 . S
C1947 C1939 1.433 . S
C1947 N1949 1.384 . S
N1948 C1944 1.469 . S
N1948 C1945 1.384 . S
N1949 C1941 1.426 1_565 S
N1949 C1947 1.384 . S
H1950 C1956 0.930 . S
H1951 C1960 0.930 . S
H1952 C1965 0.929 . S
H1953 C1963 0.929 . S
H1954 C1958 0.929 . S
H1955 C1964 0.929 . S
C1956 H1950 0.930 . S
C1956 C1957 1.367 . S
C1956 C1964 1.378 . S
C1957 C1956 1.367 . S
C1957 C1965 1.433 . S
C1958 H1954 0.929 . S
C1958 C1960 1.378 . S
C1958 C1962 1.350 . S
C1959 C1962 1.463 1_556 S
C1959 C1964 1.350 . S
C1959 N1967 1.427 . S
C1960 H1951 0.930 . S
C1960 C1958 1.378 . S
C1960 C1961 1.367 . S
C1961 C1960 1.367 . S
C1961 C1963 1.433 . S
C1962 C1958 1.350 . S
C1962 C1959 1.463 1_554 S
C1962 N1966 1.427 . S
C1963 H1953 0.929 . S
C1963 C1961 1.433 . S
C1963 N1966 1.384 . S
C1964 H1955 0.929 . S
C1964 C1956 1.378 . S
C1964 C1959 1.350 . S
C1965 H1952 0.929 . S
C1965 C1957 1.433 . S
C1965 N1967 1.384 . S
N1966 C1962 1.427 . S
N1966 C1963 1.384 . S
N1967 C1959 1.427 . S
N1967 C1965 1.384 . S
H1968 C1974 0.930 . S
H1969 C1978 0.930 . S
H1970 C1983 0.929 . S
H1971 C1981 0.929 . S
H1972 C1976 0.929 . S
H1973 C1982 0.929 . S
C1974 H1968 0.930 . S
C1974 C1975 1.367 . S
C1974 C1982 1.378 . S
C1975 C1974 1.367 . S
C1975 C1983 1.433 . S
C1976 H1972 0.929 . S
C1976 C1978 1.378 . S
C1976 C1980 1.350 . S
C1977 C1980 1.463 . S
C1977 C1982 1.350 . S
C1977 N1985 1.427 . S
C1978 H1969 0.930 . S
C1978 C1976 1.378 . S
C1978 C1979 1.367 . S
C1979 C1978 1.367 . S
C1979 C1981 1.433 . S
C1980 C1976 1.350 . S
C1980 C1977 1.463 . S
C1980 N1984 1.427 . S
C1981 H1971 0.929 . S
C1981 C1979 1.433 . S
C1981 N1984 1.384 . S
C1982 H1973 0.929 . S
C1982 C1974 1.378 . S
C1982 C1977 1.350 . S
C1983 H1970 0.929 . S
C1983 C1975 1.433 . S
C1983 N1985 1.384 . S
N1984 C1980 1.427 . S
N1984 C1981 1.384 . S
N1985 C1977 1.427 . S
N1985 C1983 1.384 . S
H1986 C1992 0.930 . S
H1987 C1996 0.930 . S
H1988 C2001 0.929 . S
H1989 C1999 0.929 . S
H1990 C1994 0.929 . S
H1991 C2000 0.929 . S
C1992 H1986 0.930 . S
C1992 C1993 1.367 . S
C1992 C2000 1.378 . S
C1993 C1992 1.367 . S
C1993 C2001 1.433 . S
C1994 H1990 0.929 . S
C1994 C1996 1.378 . S
C1994 C1998 1.350 . S
C1995 C1998 1.463 . S
C1995 C2000 1.350 . S
C1995 N2003 1.427 . S
C1996 H1987 0.930 . S
C1996 C1994 1.378 . S
C1996 C1997 1.367 . S
C1997 C1996 1.367 . S
C1997 C1999 1.433 . S
C1998 C1994 1.350 . S
C1998 C1995 1.463 . S
C1998 N2002 1.427 . S
C1999 H1989 0.929 . S
C1999 C1997 1.433 . S
C1999 N2002 1.384 . S
C2000 H1991 0.929 . S
C2000 C1992 1.378 . S
C2000 C1995 1.350 . S
C2001 H1988 0.929 . S
C2001 C1993 1.433 . S
C2001 N2003 1.384 . S
N2002 C1998 1.427 . S
N2002 C1999 1.384 . S
N2003 C1995 1.427 . S
N2003 C2001 1.384 . S
H2004 C2010 0.930 . S
H2005 C2014 0.930 . S
H2006 C2019 0.929 . S
H2007 C2017 0.929 . S
H2008 C2012 0.929 . S
H2009 C2018 0.929 . S
C2010 H2004 0.930 . S
C2010 C2011 1.367 . S
C2010 C2018 1.378 . S
C2011 C2010 1.367 . S
C2011 C2019 1.433 . S
C2012 H2008 0.929 . S
C2012 C2014 1.378 . S
C2012 C2016 1.350 . S
C2013 C2016 1.463 . S
C2013 C2018 1.350 . S
C2013 N2021 1.427 . S
C2014 H2005 0.930 . S
C2014 C2012 1.378 . S
C2014 C2015 1.367 . S
C2015 C2014 1.367 . S
C2015 C2017 1.433 . S
C2016 C2012 1.350 . S
C2016 C2013 1.463 . S
C2016 N2020 1.427 . S
C2017 H2007 0.929 . S
C2017 C2015 1.433 . S
C2017 N2020 1.384 . S
C2018 H2009 0.929 . S
C2018 C2010 1.378 . S
C2018 C2013 1.350 . S
C2019 H2006 0.929 . S
C2019 C2011 1.433 . S
C2019 N2021 1.384 . S
N2020 C2016 1.427 . S
N2020 C2017 1.384 . S
N2021 C2013 1.427 . S
N2021 C2019 1.384 . S
H2022 C2028 0.930 . S
H2023 C2032 0.930 . S
H2024 C2037 0.929 . S
H2025 C2035 0.929 . S
H2026 C2030 0.929 . S
H2027 C2036 0.929 . S
C2028 H2022 0.930 . S
C2028 C2029 1.367 . S
C2028 C2036 1.378 . S
C2029 C2028 1.367 . S
C2029 C2037 1.433 . S
C2030 H2026 0.929 . S
C2030 C2032 1.378 . S
C2030 C2034 1.350 . S
C2031 C2034 1.463 . S
C2031 C2036 1.350 . S
C2031 N2039 1.427 . S
C2032 H2023 0.930 . S
C2032 C2030 1.378 . S
C2032 C2033 1.367 . S
C2033 C2032 1.367 . S
C2033 C2035 1.433 . S
C2034 C2030 1.350 . S
C2034 C2031 1.463 . S
C2034 N2038 1.427 . S
C2035 H2025 0.929 . S
C2035 C2033 1.433 . S
C2035 N2038 1.384 . S
C2036 H2027 0.929 . S
C2036 C2028 1.378 . S
C2036 C2031 1.350 . S
C2037 H2024 0.929 . S
C2037 C2029 1.433 . S
C2037 N2039 1.384 . S
N2038 C2034 1.427 . S
N2038 C2035 1.384 . S
N2039 C2031 1.427 . S
N2039 C2037 1.384 . S
H2040 C2046 0.930 . S
H2041 C2050 0.930 . S
H2042 C2055 0.929 . S
H2043 C2053 0.929 . S
H2044 C2048 0.929 . S
H2045 C2054 0.929 . S
C2046 H2040 0.930 . S
C2046 C2047 1.367 . S
C2046 C2054 1.378 . S
C2047 C2046 1.367 . S
C2047 C2055 1.433 . S
C2048 H2044 0.929 . S
C2048 C2050 1.378 . S
C2048 C2052 1.350 . S
C2049 C2052 1.463 . S
C2049 C2054 1.350 . S
C2049 N2057 1.427 . S
C2050 H2041 0.930 . S
C2050 C2048 1.378 . S
C2050 C2051 1.367 . S
C2051 C2050 1.367 . S
C2051 C2053 1.433 . S
C2052 C2048 1.350 . S
C2052 C2049 1.463 . S
C2052 N2056 1.427 . S
C2053 H2043 0.929 . S
C2053 C2051 1.433 . S
C2053 N2056 1.384 . S
C2054 H2045 0.929 . S
C2054 C2046 1.378 . S
C2054 C2049 1.350 . S
C2055 H2042 0.929 . S
C2055 C2047 1.433 . S
C2055 N2057 1.384 . S
N2056 C2052 1.427 . S
N2056 C2053 1.384 . S
N2057 C2049 1.427 . S
N2057 C2055 1.384 . S
H2058 C2064 0.930 . S
H2059 C2068 0.930 . S
H2060 C2073 0.929 . S
H2061 C2071 0.929 . S
H2062 C2066 0.929 . S
H2063 C2072 0.929 . S
C2064 H2058 0.930 . S
C2064 C2065 1.367 . S
C2064 C2072 1.378 . S
C2065 C2064 1.367 . S
C2065 C2073 1.433 . S
C2066 H2062 0.929 . S
C2066 C2068 1.378 . S
C2066 C2070 1.350 . S
C2067 C2070 1.463 . S
C2067 C2072 1.350 . S
C2067 N2075 1.427 . S
C2068 H2059 0.930 . S
C2068 C2066 1.378 . S
C2068 C2069 1.367 . S
C2069 C2068 1.367 . S
C2069 C2071 1.433 . S
C2070 C2066 1.350 . S
C2070 C2067 1.463 . S
C2070 N2074 1.427 . S
C2071 H2061 0.929 . S
C2071 C2069 1.433 . S
C2071 N2074 1.384 . S
C2072 H2063 0.929 . S
C2072 C2064 1.378 . S
C2072 C2067 1.350 . S
C2073 H2060 0.929 . S
C2073 C2065 1.433 . S
C2073 N2075 1.384 . S
N2074 C2070 1.427 . S
N2074 C2071 1.384 . S
N2075 C2067 1.427 . S
N2075 C2073 1.384 . S
H2076 C2082 0.930 . S
H2077 C2086 0.930 . S
H2078 C2091 0.929 . S
H2079 C2089 0.929 . S
H2080 C2084 0.929 . S
H2081 C2090 0.929 . S
C2082 H2076 0.930 . S
C2082 C2083 1.367 . S
C2082 C2090 1.378 . S
C2083 C2082 1.367 . S
C2083 C2091 1.433 . S
C2084 H2080 0.929 . S
C2084 C2086 1.378 . S
C2084 C2088 1.350 . S
C2085 C2088 1.463 . S
C2085 C2090 1.350 . S
C2085 N2093 1.427 . S
C2086 H2077 0.930 . S
C2086 C2084 1.378 . S
C2086 C2087 1.367 . S
C2087 C2086 1.367 . S
C2087 C2089 1.433 . S
C2088 C2084 1.350 . S
C2088 C2085 1.463 . S
C2088 N2092 1.427 . S
C2089 H2079 0.929 . S
C2089 C2087 1.433 . S
C2089 N2092 1.384 . S
C2090 H2081 0.929 . S
C2090 C2082 1.378 . S
C2090 C2085 1.350 . S
C2091 H2078 0.929 . S
C2091 C2083 1.433 . S
C2091 N2093 1.384 . S
N2092 C2088 1.427 . S
N2092 C2089 1.384 . S
N2093 C2085 1.427 . S
N2093 C2091 1.384 . S
H2094 C2100 0.930 . S
H2095 C2104 0.930 . S
H2096 C2109 0.929 . S
H2097 C2107 0.929 . S
H2098 C2102 0.929 . S
H2099 C2108 0.929 . S
C2100 H2094 0.930 . S
C2100 C2101 1.367 . S
C2100 C2108 1.378 . S
C2101 C2100 1.367 . S
C2101 C2109 1.433 . S
C2102 H2098 0.929 . S
C2102 C2104 1.378 . S
C2102 C2106 1.350 . S
C2103 C2106 1.463 . S
C2103 C2108 1.350 . S
C2103 N2111 1.427 . S
C2104 H2095 0.930 . S
C2104 C2102 1.378 . S
C2104 C2105 1.367 . S
C2105 C2104 1.367 . S
C2105 C2107 1.433 . S
C2106 C2102 1.350 . S
C2106 C2103 1.463 . S
C2106 N2110 1.427 . S
C2107 H2097 0.929 . S
C2107 C2105 1.433 . S
C2107 N2110 1.384 . S
C2108 H2099 0.929 . S
C2108 C2100 1.378 . S
C2108 C2103 1.350 . S
C2109 H2096 0.929 . S
C2109 C2101 1.433 . S
C2109 N2111 1.384 . S
N2110 C2106 1.427 . S
N2110 C2107 1.384 . S
N2111 C2103 1.427 . S
N2111 C2109 1.384 . S
H2112 C2118 0.930 . S
H2113 C2122 0.930 . S
H2114 C2127 0.929 . S
H2115 C2125 0.929 . S
H2116 C2120 0.929 . S
H2117 C2126 0.929 . S
C2118 H2112 0.930 . S
C2118 C2119 1.367 . S
C2118 C2126 1.378 . S
C2119 C2118 1.367 . S
C2119 C2127 1.433 . S
C2120 H2116 0.929 . S
C2120 C2122 1.378 . S
C2120 C2124 1.350 . S
C2121 C2124 1.463 . S
C2121 C2126 1.350 . S
C2121 N2129 1.427 . S
C2122 H2113 0.930 . S
C2122 C2120 1.378 . S
C2122 C2123 1.367 . S
C2123 C2122 1.367 . S
C2123 C2125 1.433 . S
C2124 C2120 1.350 . S
C2124 C2121 1.463 . S
C2124 N2128 1.427 . S
C2125 H2115 0.929 . S
C2125 C2123 1.433 . S
C2125 N2128 1.384 . S
C2126 H2117 0.929 . S
C2126 C2118 1.378 . S
C2126 C2121 1.350 . S
C2127 H2114 0.929 . S
C2127 C2119 1.433 . S
C2127 N2129 1.384 . S
N2128 C2124 1.427 . S
N2128 C2125 1.384 . S
N2129 C2121 1.427 . S
N2129 C2127 1.384 . S
H2130 C2136 0.930 . S
H2131 C2140 0.930 . S
H2132 C2145 0.929 . S
H2133 C2143 0.929 . S
H2134 C2138 0.929 . S
H2135 C2144 0.929 . S
C2136 H2130 0.930 . S
C2136 C2137 1.367 . S
C2136 C2144 1.378 . S
C2137 C2136 1.367 . S
C2137 C2145 1.433 . S
C2138 H2134 0.929 . S
C2138 C2140 1.378 . S
C2138 C2142 1.350 . S
C2139 C2142 1.463 . S
C2139 C2144 1.350 . S
C2139 N2147 1.427 . S
C2140 H2131 0.930 . S
C2140 C2138 1.378 . S
C2140 C2141 1.367 . S
C2141 C2140 1.367 . S
C2141 C2143 1.433 . S
C2142 C2138 1.350 . S
C2142 C2139 1.463 . S
C2142 N2146 1.427 . S
C2143 H2133 0.929 . S
C2143 C2141 1.433 . S
C2143 N2146 1.384 . S
C2144 H2135 0.929 . S
C2144 C2136 1.378 . S
C2144 C2139 1.350 . S
C2145 H2132 0.929 . S
C2145 C2137 1.433 . S
C2145 N2147 1.384 . S
N2146 C2142 1.427 . S
N2146 C2143 1.384 . S
N2147 C2139 1.427 . S
N2147 C2145 1.384 . S
H2148 C2154 0.930 . S
H2149 C2158 0.930 . S
H2150 C2163 0.929 . S
H2151 C2161 0.929 . S
H2152 C2156 0.929 . S
H2153 C2162 0.929 1_554 S
C2154 H2148 0.930 . S
C2154 C2155 1.367 1_554 S
C2154 C2162 1.378 1_554 S
C2155 C2154 1.367 1_556 S
C2155 C2163 1.433 . S
C2156 H2152 0.929 . S
C2156 C2158 1.378 . S
C2156 C2160 1.350 . S
C2157 C2160 1.463 . S
C2157 C2162 1.350 . S
C2157 N2165 1.427 . S
C2158 H2149 0.930 . S
C2158 C2156 1.378 . S
C2158 C2159 1.367 . S
C2159 C2158 1.367 . S
C2159 C2161 1.433 . S
C2160 C2156 1.350 . S
C2160 C2157 1.463 . S
C2160 N2164 1.427 . S
C2161 H2151 0.929 . S
C2161 C2159 1.433 . S
C2161 N2164 1.384 . S
C2162 H2153 0.929 1_556 S
C2162 C2154 1.378 1_556 S
C2162 C2157 1.350 . S
C2163 H2150 0.929 . S
C2163 C2155 1.433 . S
C2163 N2165 1.384 . S
N2164 C2160 1.427 . S
N2164 C2161 1.384 . S
N2165 C2157 1.427 . S
N2165 C2163 1.384 . S
H2166 C2172 0.930 . S
H2167 C2176 0.930 . S
H2168 C2181 0.929 . S
H2169 C2179 0.929 . S
H2170 C2174 0.929 1_554 S
H2171 C2180 0.929 . S
C2172 H2166 0.930 . S
C2172 C2173 1.367 . S
C2172 C2180 1.378 . S
C2173 C2172 1.367 . S
C2173 C2181 1.433 . S
C2174 H2170 0.929 1_556 S
C2174 C2176 1.378 1_556 S
C2174 C2178 1.350 . S
C2175 C2178 1.463 . S
C2175 C2180 1.350 . S
C2175 N2183 1.427 . S
C2176 H2167 0.930 . S
C2176 C2174 1.378 1_554 S
C2176 C2177 1.367 1_554 S
C2177 C2176 1.367 1_556 S
C2177 C2179 1.433 . S
C2178 C2174 1.350 . S
C2178 C2175 1.463 . S
C2178 N2182 1.427 . S
C2179 H2169 0.929 . S
C2179 C2177 1.433 . S
C2179 N2182 1.384 . S
C2180 H2171 0.929 . S
C2180 C2172 1.378 . S
C2180 C2175 1.350 . S
C2181 H2168 0.929 . S
C2181 C2173 1.433 . S
C2181 N2183 1.384 . S
N2182 C2178 1.427 . S
N2182 C2179 1.384 . S
N2183 C2175 1.427 . S
N2183 C2181 1.384 . S
H2184 C2190 0.930 . S
H2185 C2194 0.930 . S
H2186 C2199 0.929 . S
H2187 C2197 0.929 . S
H2188 C2192 0.929 . S
H2189 C2198 0.929 . S
C2190 H2184 0.930 . S
C2190 C2191 1.367 . S
C2190 C2198 1.378 . S
C2191 C2190 1.367 . S
C2191 C2199 1.433 . S
C2192 H2188 0.929 . S
C2192 C2194 1.378 . S
C2192 C2196 1.350 . S
C2193 C2196 1.463 . S
C2193 C2198 1.350 . S
C2193 N2201 1.427 . S
C2194 H2185 0.930 . S
C2194 C2192 1.378 . S
C2194 C2195 1.367 . S
C2195 C2194 1.367 . S
C2195 C2197 1.433 . S
C2196 C2192 1.350 . S
C2196 C2193 1.463 . S
C2196 N2200 1.427 . S
C2197 H2187 0.929 . S
C2197 C2195 1.433 . S
C2197 N2200 1.384 . S
C2198 H2189 0.929 . S
C2198 C2190 1.378 . S
C2198 C2193 1.350 . S
C2199 H2186 0.929 . S
C2199 C2191 1.433 . S
C2199 N2201 1.384 . S
N2200 C2196 1.427 . S
N2200 C2197 1.384 . S
N2201 C2193 1.427 . S
N2201 C2199 1.384 . S
H2202 C2208 0.930 . S
H2203 C2212 0.930 . S
H2204 C2217 0.929 . S
H2205 C2215 0.929 . S
H2206 C2210 0.929 . S
H2207 C2216 0.929 . S
C2208 H2202 0.930 . S
C2208 C2209 1.367 . S
C2208 C2216 1.378 . S
C2209 C2208 1.367 . S
C2209 C2217 1.433 . S
C2210 H2206 0.929 . S
C2210 C2212 1.378 . S
C2210 C2214 1.350 . S
C2211 C2214 1.463 . S
C2211 C2216 1.350 . S
C2211 N2219 1.427 . S
C2212 H2203 0.930 . S
C2212 C2210 1.378 . S
C2212 C2213 1.367 . S
C2213 C2212 1.367 . S
C2213 C2215 1.433 . S
C2214 C2210 1.350 . S
C2214 C2211 1.463 . S
C2214 N2218 1.427 . S
C2215 H2205 0.929 . S
C2215 C2213 1.433 . S
C2215 N2218 1.384 . S
C2216 H2207 0.929 . S
C2216 C2208 1.378 . S
C2216 C2211 1.350 . S
C2217 H2204 0.929 . S
C2217 C2209 1.433 . S
C2217 N2219 1.384 . S
N2218 C2214 1.427 . S
N2218 C2215 1.384 . S
N2219 C2211 1.427 . S
N2219 C2217 1.384 . S
H2220 C2226 0.930 . S
H2221 C2230 0.930 . S
H2222 C2235 0.929 . S
H2223 C2233 0.929 . S
H2224 C2228 0.929 . S
H2225 C2234 0.929 1_556 S
C2226 H2220 0.930 . S
C2226 C2227 1.367 1_556 S
C2226 C2234 1.378 1_556 S
C2227 C2226 1.367 1_554 S
C2227 C2235 1.433 . S
C2228 H2224 0.929 . S
C2228 C2230 1.378 . S
C2228 C2232 1.350 . S
C2229 C2232 1.463 . S
C2229 C2234 1.350 . S
C2229 N2237 1.427 . S
C2230 H2221 0.930 . S
C2230 C2228 1.378 . S
C2230 C2231 1.367 . S
C2231 C2230 1.367 . S
C2231 C2233 1.433 . S
C2232 C2228 1.350 . S
C2232 C2229 1.463 . S
C2232 N2236 1.427 . S
C2233 H2223 0.929 . S
C2233 C2231 1.433 . S
C2233 N2236 1.384 . S
C2234 H2225 0.929 1_554 S
C2234 C2226 1.378 1_554 S
C2234 C2229 1.350 . S
C2235 H2222 0.929 . S
C2235 C2227 1.433 . S
C2235 N2237 1.384 . S
N2236 C2232 1.427 . S
N2236 C2233 1.384 . S
N2237 C2229 1.427 . S
N2237 C2235 1.384 . S
H2238 C2244 0.930 . S
H2239 C2248 0.930 . S
H2240 C2253 0.929 . S
H2241 C2251 0.929 . S
H2242 C2246 0.929 . S
H2243 C2252 0.929 . S
C2244 H2238 0.930 . S
C2244 C2245 1.367 . S
C2244 C2252 1.378 . S
C2245 C2244 1.367 . S
C2245 C2253 1.433 . S
C2246 H2242 0.929 . S
C2246 C2248 1.378 . S
C2246 C2250 1.350 . S
C2247 C2250 1.463 . S
C2247 C2252 1.350 . S
C2247 N2255 1.427 . S
C2248 H2239 0.930 . S
C2248 C2246 1.378 . S
C2248 C2249 1.367 . S
C2249 C2248 1.367 . S
C2249 C2251 1.433 . S
C2250 C2246 1.350 . S
C2250 C2247 1.463 . S
C2250 N2254 1.427 . S
C2251 H2241 0.929 . S
C2251 C2249 1.433 . S
C2251 N2254 1.384 . S
C2252 H2243 0.929 . S
C2252 C2244 1.378 . S
C2252 C2247 1.350 . S
C2253 H2240 0.929 . S
C2253 C2245 1.433 . S
C2253 N2255 1.384 . S
N2254 C2250 1.427 . S
N2254 C2251 1.384 . S
N2255 C2247 1.427 . S
N2255 C2253 1.384 . S
H2256 C2262 0.930 . S
H2257 C2266 0.930 . S
H2258 C2271 0.929 . S
H2259 C2269 0.929 . S
H2260 C2264 0.929 . S
H2261 C2270 0.929 . S
C2262 H2256 0.930 . S
C2262 C2263 1.367 1_554 S
C2262 C2270 1.378 1_554 S
C2263 C2262 1.367 1_556 S
C2263 C2271 1.433 . S
C2264 H2260 0.929 . S
C2264 C2266 1.378 . S
C2264 C2268 1.350 . S
C2265 C2268 1.463 . S
C2265 C2270 1.350 . S
C2265 N2273 1.427 . S
C2266 H2257 0.930 . S
C2266 C2264 1.378 . S
C2266 C2267 1.367 . S
C2267 C2266 1.367 . S
C2267 C2269 1.433 . S
C2268 C2264 1.350 . S
C2268 C2265 1.463 . S
C2268 N2272 1.427 . S
C2269 H2259 0.929 . S
C2269 C2267 1.433 . S
C2269 N2272 1.384 . S
C2270 H2261 0.929 . S
C2270 C2262 1.378 1_556 S
C2270 C2265 1.350 . S
C2271 H2258 0.929 . S
C2271 C2263 1.433 . S
C2271 N2273 1.384 . S
N2272 C2268 1.427 . S
N2272 C2269 1.384 . S
N2273 C2265 1.427 . S
N2273 C2271 1.384 . S
H2274 C2280 0.930 . S
H2275 C2284 0.930 . S
H2276 C2289 0.929 . S
H2277 C2287 0.929 . S
H2278 C2282 0.929 . S
H2279 C2288 0.929 . S
C2280 H2274 0.930 . S
C2280 C2281 1.367 . S
C2280 C2288 1.378 . S
C2281 C2280 1.367 . S
C2281 C2289 1.433 . S
C2282 H2278 0.929 . S
C2282 C2284 1.378 . S
C2282 C2286 1.350 . S
C2283 C2286 1.463 . S
C2283 C2288 1.350 . S
C2283 N2291 1.427 . S
C2284 H2275 0.930 . S
C2284 C2282 1.378 . S
C2284 C2285 1.367 . S
C2285 C2284 1.367 . S
C2285 C2287 1.433 1_556 S
C2286 C2282 1.350 . S
C2286 C2283 1.463 . S
C2286 N2290 1.427 . S
C2287 H2277 0.929 . S
C2287 C2285 1.433 1_554 S
C2287 N2290 1.384 1_554 S
C2288 H2279 0.929 . S
C2288 C2280 1.378 . S
C2288 C2283 1.350 . S
C2289 H2276 0.929 . S
C2289 C2281 1.433 . S
C2289 N2291 1.384 . S
N2290 C2286 1.427 . S
N2290 C2287 1.384 1_556 S
N2291 C2283 1.427 . S
N2291 C2289 1.384 . S
H2292 C2298 0.930 . S
H2293 C2302 0.930 . S
H2294 C2307 0.929 . S
H2295 C2305 0.929 . S
H2296 C2300 0.929 . S
H2297 C2306 0.929 . S
C2298 H2292 0.930 . S
C2298 C2299 1.367 . S
C2298 C2306 1.378 . S
C2299 C2298 1.367 . S
C2299 C2307 1.433 . S
C2300 H2296 0.929 . S
C2300 C2302 1.378 . S
C2300 C2304 1.350 . S
C2301 C2304 1.463 . S
C2301 C2306 1.350 . S
C2301 N2309 1.427 . S
C2302 H2293 0.930 . S
C2302 C2300 1.378 . S
C2302 C2303 1.367 . S
C2303 C2302 1.367 . S
C2303 C2305 1.433 . S
C2304 C2300 1.350 . S
C2304 C2301 1.463 . S
C2304 N2308 1.427 . S
C2305 H2295 0.929 . S
C2305 C2303 1.433 . S
C2305 N2308 1.384 . S
C2306 H2297 0.929 . S
C2306 C2298 1.378 . S
C2306 C2301 1.350 . S
C2307 H2294 0.929 . S
C2307 C2299 1.433 . S
C2307 N2309 1.384 . S
N2308 C2304 1.427 . S
N2308 C2305 1.384 . S
N2309 C2301 1.427 . S
N2309 C2307 1.384 . S
H2310 C2316 0.930 . S
H2311 C2320 0.930 . S
H2312 C2325 0.929 . S
H2313 C2323 0.929 . S
H2314 C2318 0.929 . S
H2315 C2324 0.929 . S
C2316 H2310 0.930 . S
C2316 C2317 1.367 . S
C2316 C2324 1.378 . S
C2317 C2316 1.367 . S
C2317 C2325 1.433 . S
C2318 H2314 0.929 . S
C2318 C2320 1.378 . S
C2318 C2322 1.350 . S
C2319 C2322 1.463 . S
C2319 C2324 1.350 . S
C2319 N2327 1.427 . S
C2320 H2311 0.930 . S
C2320 C2318 1.378 . S
C2320 C2321 1.367 . S
C2321 C2320 1.367 . S
C2321 C2323 1.433 . S
C2322 C2318 1.350 . S
C2322 C2319 1.463 . S
C2322 N2326 1.427 . S
C2323 H2313 0.929 . S
C2323 C2321 1.433 . S
C2323 N2326 1.384 . S
C2324 H2315 0.929 . S
C2324 C2316 1.378 . S
C2324 C2319 1.350 . S
C2325 H2312 0.929 . S
C2325 C2317 1.433 . S
C2325 N2327 1.384 . S
N2326 C2322 1.427 . S
N2326 C2323 1.384 . S
N2327 C2319 1.427 . S
N2327 C2325 1.384 . S
H2328 C2334 0.930 . S
H2329 C2338 0.930 . S
H2330 C2343 0.929 . S
H2331 C2341 0.929 . S
H2332 C2336 0.929 . S
H2333 C2342 0.929 . S
C2334 H2328 0.930 . S
C2334 C2335 1.367 . S
C2334 C2342 1.378 . S
C2335 C2334 1.367 . S
C2335 C2343 1.433 . S
C2336 H2332 0.929 . S
C2336 C2338 1.378 . S
C2336 C2340 1.350 . S
C2337 C2340 1.463 . S
C2337 C2342 1.350 . S
C2337 N2345 1.427 . S
C2338 H2329 0.930 . S
C2338 C2336 1.378 . S
C2338 C2339 1.367 . S
C2339 C2338 1.367 . S
C2339 C2341 1.433 . S
C2340 C2336 1.350 . S
C2340 C2337 1.463 . S
C2340 N2344 1.427 . S
C2341 H2331 0.929 . S
C2341 C2339 1.433 . S
C2341 N2344 1.384 . S
C2342 H2333 0.929 . S
C2342 C2334 1.378 . S
C2342 C2337 1.350 . S
C2343 H2330 0.929 . S
C2343 C2335 1.433 . S
C2343 N2345 1.384 . S
N2344 C2340 1.427 . S
N2344 C2341 1.384 . S
N2345 C2337 1.427 . S
N2345 C2343 1.384 . S
H2346 C2352 0.930 . S
H2347 C2356 0.930 . S
H2348 C2361 0.929 . S
H2349 C2359 0.929 . S
H2350 C2354 0.929 . S
H2351 C2360 0.929 . S
C2352 H2346 0.930 . S
C2352 C2353 1.367 . S
C2352 C2360 1.378 . S
C2353 C2352 1.367 . S
C2353 C2361 1.433 . S
C2354 H2350 0.929 . S
C2354 C2356 1.378 . S
C2354 C2358 1.350 . S
C2355 C2358 1.463 . S
C2355 C2360 1.350 . S
C2355 N2363 1.427 . S
C2356 H2347 0.930 . S
C2356 C2354 1.378 . S
C2356 C2357 1.367 . S
C2357 C2356 1.367 . S
C2357 C2359 1.433 1_554 S
C2358 C2354 1.350 . S
C2358 C2355 1.463 . S
C2358 N2362 1.427 . S
C2359 H2349 0.929 . S
C2359 C2357 1.433 1_556 S
C2359 N2362 1.384 1_556 S
C2360 H2351 0.929 . S
C2360 C2352 1.378 . S
C2360 C2355 1.350 . S
C2361 H2348 0.929 . S
C2361 C2353 1.433 . S
C2361 N2363 1.384 . S
N2362 C2358 1.427 . S
N2362 C2359 1.384 1_554 S
N2363 C2355 1.427 . S
N2363 C2361 1.384 . S
H2364 C2370 0.930 . S
H2365 C2374 0.930 . S
H2366 C2379 0.929 . S
H2367 C2377 0.929 . S
H2368 C2372 0.929 . S
H2369 C2378 0.929 . S
C2370 H2364 0.930 . S
C2370 C2371 1.367 . S
C2370 C2378 1.378 . S
C2371 C2370 1.367 . S
C2371 C2379 1.433 . S
C2372 H2368 0.929 . S
C2372 C2374 1.378 . S
C2372 C2376 1.350 . S
C2373 C2376 1.463 . S
C2373 C2378 1.350 . S
C2373 N2381 1.427 . S
C2374 H2365 0.930 . S
C2374 C2372 1.378 . S
C2374 C2375 1.367 . S
C2375 C2374 1.367 . S
C2375 C2377 1.433 . S
C2376 C2372 1.350 . S
C2376 C2373 1.463 . S
C2376 N2380 1.427 . S
C2377 H2367 0.929 . S
C2377 C2375 1.433 . S
C2377 N2380 1.384 . S
C2378 H2369 0.929 . S
C2378 C2370 1.378 . S
C2378 C2373 1.350 . S
C2379 H2366 0.929 . S
C2379 C2371 1.433 . S
C2379 N2381 1.384 . S
N2380 C2376 1.427 . S
N2380 C2377 1.384 . S
N2381 C2373 1.427 . S
N2381 C2379 1.384 . S
H2382 C2388 0.930 . S
H2383 C2392 0.930 . S
H2384 C2397 0.929 . S
H2385 C2395 0.929 . S
H2386 C2390 0.929 . S
H2387 C2396 0.929 . S
C2388 H2382 0.930 . S
C2388 C2389 1.367 . S
C2388 C2396 1.378 . S
C2389 C2388 1.367 . S
C2389 C2397 1.433 . S
C2390 H2386 0.929 . S
C2390 C2392 1.378 . S
C2390 C2394 1.350 . S
C2391 C2394 1.463 . S
C2391 C2396 1.350 . S
C2391 N2399 1.427 . S
C2392 H2383 0.930 . S
C2392 C2390 1.378 . S
C2392 C2393 1.367 . S
C2393 C2392 1.367 . S
C2393 C2395 1.433 . S
C2394 C2390 1.350 . S
C2394 C2391 1.463 . S
C2394 N2398 1.427 . S
C2395 H2385 0.929 . S
C2395 C2393 1.433 . S
C2395 N2398 1.384 . S
C2396 H2387 0.929 . S
C2396 C2388 1.378 . S
C2396 C2391 1.350 . S
C2397 H2384 0.929 . S
C2397 C2389 1.433 . S
C2397 N2399 1.384 . S
N2398 C2394 1.427 . S
N2398 C2395 1.384 . S
N2399 C2391 1.427 . S
N2399 C2397 1.384 . S
H2400 C2406 0.930 . S
H2401 C2410 0.930 . S
H2402 C2415 0.929 . S
H2403 C2413 0.929 . S
H2404 C2408 0.929 . S
H2405 C2414 0.929 . S
C2406 H2400 0.930 . S
C2406 C2407 1.367 . S
C2406 C2414 1.378 . S
C2407 C2406 1.367 . S
C2407 C2415 1.433 . S
C2408 H2404 0.929 . S
C2408 C2410 1.378 . S
C2408 C2412 1.350 . S
C2409 C2412 1.463 . S
C2409 C2414 1.350 . S
C2409 N2417 1.427 . S
C2410 H2401 0.930 . S
C2410 C2408 1.378 . S
C2410 C2411 1.367 . S
C2411 C2410 1.367 . S
C2411 C2413 1.433 . S
C2412 C2408 1.350 . S
C2412 C2409 1.463 . S
C2412 N2416 1.427 . S
C2413 H2403 0.929 . S
C2413 C2411 1.433 . S
C2413 N2416 1.384 . S
C2414 H2405 0.929 . S
C2414 C2406 1.378 . S
C2414 C2409 1.350 . S
C2415 H2402 0.929 . S
C2415 C2407 1.433 . S
C2415 N2417 1.384 . S
N2416 C2412 1.427 . S
N2416 C2413 1.384 . S
N2417 C2409 1.427 . S
N2417 C2415 1.384 . S
H2418 C2424 0.930 1_556 S
H2419 C2428 0.930 . S
H2420 C2433 0.929 . S
H2421 C2431 0.929 . S
H2422 C2426 0.929 . S
H2423 C2432 0.929 1_556 S
C2424 H2418 0.930 1_554 S
C2424 C2425 1.367 . S
C2424 C2432 1.378 . S
C2425 C2424 1.367 . S
C2425 C2433 1.433 . S
C2426 H2422 0.929 . S
C2426 C2428 1.378 . S
C2426 C2430 1.350 . S
C2427 C2430 1.463 . S
C2427 C2432 1.350 . S
C2427 N2435 1.427 . S
C2428 H2419 0.930 . S
C2428 C2426 1.378 . S
C2428 C2429 1.367 . S
C2429 C2428 1.367 . S
C2429 C2431 1.433 . S
C2430 C2426 1.350 . S
C2430 C2427 1.463 . S
C2430 N2434 1.427 . S
C2431 H2421 0.929 . S
C2431 C2429 1.433 . S
C2431 N2434 1.384 . S
C2432 H2423 0.929 1_554 S
C2432 C2424 1.378 . S
C2432 C2427 1.350 . S
C2433 H2420 0.929 . S
C2433 C2425 1.433 . S
C2433 N2435 1.384 . S
N2434 C2430 1.427 . S
N2434 C2431 1.384 . S
N2435 C2427 1.427 . S
N2435 C2433 1.384 . S
H2436 C2442 0.930 . S
H2437 C2446 0.930 . S
H2438 C2451 0.929 1_554 S
H2439 C2449 0.929 . S
H2440 C2444 0.929 . S
H2441 C2450 0.929 . S
C2442 H2436 0.930 . S
C2442 C2443 1.367 . S
C2442 C2450 1.378 . S
C2443 C2442 1.367 . S
C2443 C2451 1.433 . S
C2444 H2440 0.929 . S
C2444 C2446 1.378 . S
C2444 C2448 1.350 . S
C2445 C2448 1.463 . S
C2445 C2450 1.350 . S
C2445 N2453 1.427 . S
C2446 H2437 0.930 . S
C2446 C2444 1.378 . S
C2446 C2447 1.367 . S
C2447 C2446 1.367 . S
C2447 C2449 1.433 . S
C2448 C2444 1.350 . S
C2448 C2445 1.463 . S
C2448 N2452 1.427 . S
C2449 H2439 0.929 . S
C2449 C2447 1.433 . S
C2449 N2452 1.384 . S
C2450 H2441 0.929 . S
C2450 C2442 1.378 . S
C2450 C2445 1.350 . S
C2451 H2438 0.929 1_556 S
C2451 C2443 1.433 . S
C2451 N2453 1.384 . S
N2452 C2448 1.427 . S
N2452 C2449 1.384 . S
N2453 C2445 1.427 . S
N2453 C2451 1.384 . S
H2454 C2460 0.930 . S
H2455 C2464 0.930 1_554 S
H2456 C2469 0.929 . S
H2457 C2467 0.929 . S
H2458 C2462 0.929 1_554 S
H2459 C2468 0.929 . S
C2460 H2454 0.930 . S
C2460 C2461 1.367 . S
C2460 C2468 1.378 . S
C2461 C2460 1.367 . S
C2461 C2469 1.433 . S
C2462 H2458 0.929 1_556 S
C2462 C2464 1.378 . S
C2462 C2466 1.350 . S
C2463 C2466 1.463 . S
C2463 C2468 1.350 . S
C2463 N2471 1.427 . S
C2464 H2455 0.930 1_556 S
C2464 C2462 1.378 . S
C2464 C2465 1.367 . S
C2465 C2464 1.367 . S
C2465 C2467 1.433 . S
C2466 C2462 1.350 . S
C2466 C2463 1.463 . S
C2466 N2470 1.427 . S
C2467 H2457 0.929 . S
C2467 C2465 1.433 . S
C2467 N2470 1.384 . S
C2468 H2459 0.929 . S
C2468 C2460 1.378 . S
C2468 C2463 1.350 . S
C2469 H2456 0.929 . S
C2469 C2461 1.433 . S
C2469 N2471 1.384 . S
N2470 C2466 1.427 . S
N2470 C2467 1.384 . S
N2471 C2463 1.427 . S
N2471 C2469 1.384 . S
H2472 C2478 0.930 . S
H2473 C2482 0.930 . S
H2474 C2487 0.929 . S
H2475 C2485 0.929 . S
H2476 C2480 0.929 . S
H2477 C2486 0.929 . S
C2478 H2472 0.930 . S
C2478 C2479 1.367 . S
C2478 C2486 1.378 . S
C2479 C2478 1.367 . S
C2479 C2487 1.433 . S
C2480 H2476 0.929 . S
C2480 C2482 1.378 . S
C2480 C2484 1.350 . S
C2481 C2484 1.463 . S
C2481 C2486 1.350 . S
C2481 N2489 1.427 . S
C2482 H2473 0.930 . S
C2482 C2480 1.378 . S
C2482 C2483 1.367 . S
C2483 C2482 1.367 . S
C2483 C2485 1.433 . S
C2484 C2480 1.350 . S
C2484 C2481 1.463 . S
C2484 N2488 1.427 . S
C2485 H2475 0.929 . S
C2485 C2483 1.433 . S
C2485 N2488 1.384 . S
C2486 H2477 0.929 . S
C2486 C2478 1.378 . S
C2486 C2481 1.350 . S
C2487 H2474 0.929 . S
C2487 C2479 1.433 . S
C2487 N2489 1.384 . S
N2488 C2484 1.427 . S
N2488 C2485 1.384 . S
N2489 C2481 1.427 . S
N2489 C2487 1.384 . S
H2490 C2496 0.930 . S
H2491 C2500 0.930 . S
H2492 C2505 0.929 . S
H2493 C2503 0.929 . S
H2494 C2498 0.929 . S
H2495 C2504 0.929 . S
C2496 H2490 0.930 . S
C2496 C2497 1.367 . S
C2496 C2504 1.378 . S
C2497 C2496 1.367 . S
C2497 C2505 1.433 . S
C2498 H2494 0.929 . S
C2498 C2500 1.378 . S
C2498 C2502 1.350 . S
C2499 C2502 1.463 . S
C2499 C2504 1.350 . S
C2499 N2507 1.427 . S
C2500 H2491 0.930 . S
C2500 C2498 1.378 . S
C2500 C2501 1.367 . S
C2501 C2500 1.367 . S
C2501 C2503 1.433 . S
C2502 C2498 1.350 . S
C2502 C2499 1.463 . S
C2502 N2506 1.427 . S
C2503 H2493 0.929 . S
C2503 C2501 1.433 . S
C2503 N2506 1.384 . S
C2504 H2495 0.929 . S
C2504 C2496 1.378 . S
C2504 C2499 1.350 . S
C2505 H2492 0.929 . S
C2505 C2497 1.433 . S
C2505 N2507 1.384 . S
N2506 C2502 1.427 . S
N2506 C2503 1.384 . S
N2507 C2499 1.427 . S
N2507 C2505 1.384 . S
H2508 C2514 0.930 . S
H2509 C2518 0.930 . S
H2510 C2523 0.929 . S
H2511 C2521 0.929 . S
H2512 C2516 0.929 . S
H2513 C2522 0.929 . S
C2514 H2508 0.930 . S
C2514 C2515 1.367 . S
C2514 C2522 1.378 . S
C2515 C2514 1.367 . S
C2515 C2523 1.433 . S
C2516 H2512 0.929 . S
C2516 C2518 1.378 . S
C2516 C2520 1.350 . S
C2517 C2520 1.463 . S
C2517 C2522 1.350 . S
C2517 N2525 1.427 . S
C2518 H2509 0.930 . S
C2518 C2516 1.378 . S
C2518 C2519 1.367 . S
C2519 C2518 1.367 . S
C2519 C2521 1.433 . S
C2520 C2516 1.350 . S
C2520 C2517 1.463 . S
C2520 N2524 1.427 . S
C2521 H2511 0.929 . S
C2521 C2519 1.433 . S
C2521 N2524 1.384 . S
C2522 H2513 0.929 . S
C2522 C2514 1.378 . S
C2522 C2517 1.350 . S
C2523 H2510 0.929 . S
C2523 C2515 1.433 . S
C2523 N2525 1.384 . S
N2524 C2520 1.427 . S
N2524 C2521 1.384 . S
N2525 C2517 1.427 . S
N2525 C2523 1.384 . S
H2526 C2532 0.930 . S
H2527 C2536 0.930 . S
H2528 C2541 0.929 . S
H2529 C2539 0.929 . S
H2530 C2534 0.929 . S
H2531 C2540 0.929 . S
C2532 H2526 0.930 . S
C2532 C2533 1.367 . S
C2532 C2540 1.378 . S
C2533 C2532 1.367 . S
C2533 C2541 1.433 . S
C2534 H2530 0.929 . S
C2534 C2536 1.378 . S
C2534 C2538 1.350 . S
C2535 C2538 1.463 . S
C2535 C2540 1.350 . S
C2535 N2543 1.427 . S
C2536 H2527 0.930 . S
C2536 C2534 1.378 . S
C2536 C2537 1.367 . S
C2537 C2536 1.367 . S
C2537 C2539 1.433 . S
C2538 C2534 1.350 . S
C2538 C2535 1.463 . S
C2538 N2542 1.427 . S
C2539 H2529 0.929 . S
C2539 C2537 1.433 . S
C2539 N2542 1.384 . S
C2540 H2531 0.929 . S
C2540 C2532 1.378 . S
C2540 C2535 1.350 . S
C2541 H2528 0.929 . S
C2541 C2533 1.433 . S
C2541 N2543 1.384 . S
N2542 C2538 1.427 . S
N2542 C2539 1.384 . S
N2543 C2535 1.427 . S
N2543 C2541 1.384 . S
H2544 C2550 0.930 . S
H2545 C2554 0.930 . S
H2546 C2559 0.929 . S
H2547 C2557 0.929 . S
H2548 C2552 0.929 . S
H2549 C2558 0.929 . S
C2550 H2544 0.930 . S
C2550 C2551 1.367 . S
C2550 C2558 1.378 . S
C2551 C2550 1.367 . S
C2551 C2559 1.433 . S
C2552 H2548 0.929 . S
C2552 C2554 1.378 . S
C2552 C2556 1.350 . S
C2553 C2556 1.463 . S
C2553 C2558 1.350 . S
C2553 N2561 1.427 . S
C2554 H2545 0.930 . S
C2554 C2552 1.378 . S
C2554 C2555 1.367 . S
C2555 C2554 1.367 . S
C2555 C2557 1.433 . S
C2556 C2552 1.350 . S
C2556 C2553 1.463 . S
C2556 N2560 1.427 . S
C2557 H2547 0.929 . S
C2557 C2555 1.433 . S
C2557 N2560 1.384 . S
C2558 H2549 0.929 . S
C2558 C2550 1.378 . S
C2558 C2553 1.350 . S
C2559 H2546 0.929 . S
C2559 C2551 1.433 . S
C2559 N2561 1.384 . S
N2560 C2556 1.427 . S
N2560 C2557 1.384 . S
N2561 C2553 1.427 . S
N2561 C2559 1.384 . S
H2562 C2568 0.930 . S
H2563 C2572 0.930 . S
H2564 C2577 0.929 . S
H2565 C2575 0.929 . S
H2566 C2570 0.929 . S
H2567 C2576 0.929 . S
C2568 H2562 0.930 . S
C2568 C2569 1.367 . S
C2568 C2576 1.378 . S
C2569 C2568 1.367 . S
C2569 C2577 1.433 . S
C2570 H2566 0.929 . S
C2570 C2572 1.378 . S
C2570 C2574 1.350 . S
C2571 C2574 1.463 . S
C2571 C2576 1.350 . S
C2571 N2579 1.427 . S
C2572 H2563 0.930 . S
C2572 C2570 1.378 . S
C2572 C2573 1.367 . S
C2573 C2572 1.367 . S
C2573 C2575 1.433 . S
C2574 C2570 1.350 . S
C2574 C2571 1.463 . S
C2574 N2578 1.427 . S
C2575 H2565 0.929 . S
C2575 C2573 1.433 . S
C2575 N2578 1.384 . S
C2576 H2567 0.929 . S
C2576 C2568 1.378 . S
C2576 C2571 1.350 . S
C2577 H2564 0.929 . S
C2577 C2569 1.433 . S
C2577 N2579 1.384 . S
N2578 C2574 1.427 . S
N2578 C2575 1.384 . S
N2579 C2571 1.427 . S
N2579 C2577 1.384 . S
H2580 C2586 0.930 . S
H2581 C2590 0.930 . S
H2582 C2595 0.929 . S
H2583 C2593 0.929 . S
H2584 C2588 0.929 . S
H2585 C2594 0.929 . S
C2586 H2580 0.930 . S
C2586 C2587 1.367 . S
C2586 C2594 1.378 . S
C2587 C2586 1.367 . S
C2587 C2595 1.433 . S
C2588 H2584 0.929 . S
C2588 C2590 1.378 . S
C2588 C2592 1.350 . S
C2589 C2592 1.463 . S
C2589 C2594 1.350 . S
C2589 N2597 1.427 . S
C2590 H2581 0.930 . S
C2590 C2588 1.378 . S
C2590 C2591 1.367 . S
C2591 C2590 1.367 . S
C2591 C2593 1.433 . S
C2592 C2588 1.350 . S
C2592 C2589 1.463 . S
C2592 N2596 1.427 . S
C2593 H2583 0.929 . S
C2593 C2591 1.433 . S
C2593 N2596 1.384 . S
C2594 H2585 0.929 . S
C2594 C2586 1.378 . S
C2594 C2589 1.350 . S
C2595 H2582 0.929 . S
C2595 C2587 1.433 . S
C2595 N2597 1.384 . S
N2596 C2592 1.427 . S
N2596 C2593 1.384 . S
N2597 C2589 1.427 . S
N2597 C2595 1.384 . S
H2598 C2604 0.930 . S
H2599 C2608 0.930 . S
H2600 C2613 0.929 . S
H2601 C2611 0.929 . S
H2602 C2606 0.929 . S
H2603 C2612 0.929 . S
C2604 H2598 0.930 . S
C2604 C2605 1.367 . S
C2604 C2612 1.378 . S
C2605 C2604 1.367 . S
C2605 C2613 1.433 . S
C2606 H2602 0.929 . S
C2606 C2608 1.378 . S
C2606 C2610 1.350 . S
C2607 C2610 1.463 . S
C2607 C2612 1.350 . S
C2607 N2615 1.427 . S
C2608 H2599 0.930 . S
C2608 C2606 1.378 . S
C2608 C2609 1.367 . S
C2609 C2608 1.367 . S
C2609 C2611 1.433 . S
C2610 C2606 1.350 . S
C2610 C2607 1.463 . S
C2610 N2614 1.427 . S
C2611 H2601 0.929 . S
C2611 C2609 1.433 . S
C2611 N2614 1.384 . S
C2612 H2603 0.929 . S
C2612 C2604 1.378 . S
C2612 C2607 1.350 . S
C2613 H2600 0.929 . S
C2613 C2605 1.433 . S
C2613 N2615 1.384 . S
N2614 C2610 1.427 . S
N2614 C2611 1.384 . S
N2615 C2607 1.427 . S
N2615 C2613 1.384 . S
H2616 C2622 0.930 . S
H2617 C2626 0.930 1_556 S
H2618 C2631 0.929 . S
H2619 C2629 0.929 . S
H2620 C2624 0.929 1_556 S
H2621 C2630 0.929 . S
C2622 H2616 0.930 . S
C2622 C2623 1.367 . S
C2622 C2630 1.378 . S
C2623 C2622 1.367 . S
C2623 C2631 1.433 . S
C2624 H2620 0.929 1_554 S
C2624 C2626 1.378 . S
C2624 C2628 1.350 . S
C2625 C2628 1.463 . S
C2625 C2630 1.350 . S
C2625 N2633 1.427 . S
C2626 H2617 0.930 1_554 S
C2626 C2624 1.378 . S
C2626 C2627 1.367 . S
C2627 C2626 1.367 . S
C2627 C2629 1.433 . S
C2628 C2624 1.350 . S
C2628 C2625 1.463 . S
C2628 N2632 1.427 . S
C2629 H2619 0.929 . S
C2629 C2627 1.433 . S
C2629 N2632 1.384 . S
C2630 H2621 0.929 . S
C2630 C2622 1.378 . S
C2630 C2625 1.350 . S
C2631 H2618 0.929 . S
C2631 C2623 1.433 . S
C2631 N2633 1.384 . S
N2632 C2628 1.427 . S
N2632 C2629 1.384 . S
N2633 C2625 1.427 . S
N2633 C2631 1.384 . S
H2634 C2640 0.930 . S
H2635 C2644 0.930 1_556 S
H2636 C2649 0.929 . S
H2637 C2647 0.929 . S
H2638 C2642 0.929 1_556 S
H2639 C2648 0.929 . S
C2640 H2634 0.930 . S
C2640 C2641 1.367 . S
C2640 C2648 1.378 . S
C2641 C2640 1.367 . S
C2641 C2649 1.433 . S
C2642 H2638 0.929 1_554 S
C2642 C2644 1.378 . S
C2642 C2646 1.350 . S
C2643 C2646 1.463 . S
C2643 C2648 1.350 . S
C2643 N2651 1.427 . S
C2644 H2635 0.930 1_554 S
C2644 C2642 1.378 . S
C2644 C2645 1.367 . S
C2645 C2644 1.367 . S
C2645 C2647 1.433 . S
C2646 C2642 1.350 . S
C2646 C2643 1.463 . S
C2646 N2650 1.427 . S
C2647 H2637 0.929 . S
C2647 C2645 1.433 . S
C2647 N2650 1.384 . S
C2648 H2639 0.929 . S
C2648 C2640 1.378 . S
C2648 C2643 1.350 . S
C2649 H2636 0.929 . S
C2649 C2641 1.433 . S
C2649 N2651 1.384 . S
N2650 C2646 1.427 . S
N2650 C2647 1.384 . S
N2651 C2643 1.427 . S
N2651 C2649 1.384 . S
H2652 C2658 0.930 . S
H2653 C2662 0.930 1_554 S
H2654 C2667 0.929 . S
H2655 C2665 0.929 . S
H2656 C2660 0.929 1_554 S
H2657 C2666 0.929 . S
C2658 H2652 0.930 . S
C2658 C2659 1.367 . S
C2658 C2666 1.378 . S
C2659 C2658 1.367 . S
C2659 C2667 1.433 . S
C2660 H2656 0.929 1_556 S
C2660 C2662 1.378 . S
C2660 C2664 1.350 . S
C2661 C2664 1.463 . S
C2661 C2666 1.350 . S
C2661 N2669 1.427 . S
C2662 H2653 0.930 1_556 S
C2662 C2660 1.378 . S
C2662 C2663 1.367 . S
C2663 C2662 1.367 . S
C2663 C2665 1.433 . S
C2664 C2660 1.350 . S
C2664 C2661 1.463 . S
C2664 N2668 1.427 . S
C2665 H2655 0.929 . S
C2665 C2663 1.433 . S
C2665 N2668 1.384 . S
C2666 H2657 0.929 . S
C2666 C2658 1.378 . S
C2666 C2661 1.350 . S
C2667 H2654 0.929 . S
C2667 C2659 1.433 . S
C2667 N2669 1.384 . S
N2668 C2664 1.427 . S
N2668 C2665 1.384 . S
N2669 C2661 1.427 . S
N2669 C2667 1.384 . S
H2670 C2676 0.930 . S
H2671 C2680 0.930 . S
H2672 C2685 0.929 1_554 S
H2673 C2683 0.929 . S
H2674 C2678 0.929 . S
H2675 C2684 0.929 . S
C2676 H2670 0.930 . S
C2676 C2677 1.367 . S
C2676 C2684 1.378 . S
C2677 C2676 1.367 . S
C2677 C2685 1.433 . S
C2678 H2674 0.929 . S
C2678 C2680 1.378 . S
C2678 C2682 1.350 . S
C2679 C2682 1.463 . S
C2679 C2684 1.350 . S
C2679 N2687 1.427 . S
C2680 H2671 0.930 . S
C2680 C2678 1.378 . S
C2680 C2681 1.367 . S
C2681 C2680 1.367 . S
C2681 C2683 1.433 . S
C2682 C2678 1.350 . S
C2682 C2679 1.463 . S
C2682 N2686 1.427 . S
C2683 H2673 0.929 . S
C2683 C2681 1.433 . S
C2683 N2686 1.384 . S
C2684 H2675 0.929 . S
C2684 C2676 1.378 . S
C2684 C2679 1.350 . S
C2685 H2672 0.929 1_556 S
C2685 C2677 1.433 . S
C2685 N2687 1.384 . S
N2686 C2682 1.427 . S
N2686 C2683 1.384 . S
N2687 C2679 1.427 . S
N2687 C2685 1.384 . S
C967 N846 1.551 . S
C971 N14 1.551 . S
C985 N156 1.547 . S
C989 N44 1.547 . S
C1003 N666 1.550 1_565 S
C1007 N74 1.551 1_545 S
C1021 N456 1.553 . S
C1025 N104 1.553 . S
C1039 N126 1.548 . S
C1043 N734 1.548 . S
C1057 N554 1.550 1_545 S
C1061 N186 1.551 1_565 S
C1075 N344 1.556 . S
C1079 N216 1.556 . S
C1093 N606 1.554 . S
C1097 N254 1.554 . S
C1111 N284 1.556 . S
C1115 N396 1.556 . S
C1129 N314 1.551 . S
C1133 N906 1.551 . S
C1147 N494 1.548 . S
C1151 N366 1.548 . S
C1165 N426 1.549 . S
C1169 N794 1.549 . S
C1183 N524 1.548 . S
C1187 N636 1.548 . S
C1201 N584 1.554 . S
C1205 N936 1.554 . S
C1219 N824 1.553 . S
C1223 N696 1.553 . S
C1237 N876 1.552 . S
C1241 N764 1.552 . S
C1255 N576 1.465 . S
C1259 N6 1.472 . S
C1273 N546 1.471 1_565 S
C1277 N36 1.466 1_565 S
C1291 N516 1.468 1_565 S
C1295 N66 1.467 1_565 S
C1309 N486 1.472 . S
C1313 N96 1.477 . S
C1327 N704 1.472 . S
C1331 N134 1.465 . S
C1345 N164 1.465 1_545 S
C1349 N674 1.472 1_545 S
C1363 N194 1.469 1_545 S
C1367 N644 1.477 1_545 S
C1381 N224 1.475 . S
C1385 N614 1.466 . S
C1399 N246 1.477 . S
C1403 N816 1.471 . S
C1417 N276 1.477 . S
C1421 N786 1.471 . S
C1435 N306 1.467 . S
C1439 N756 1.476 . S
C1453 N726 1.466 . S
C1457 N336 1.469 . S
C1471 N374 1.477 . S
C1475 N944 1.468 . S
C1489 N404 1.467 . S
C1493 N914 1.477 . S
C1507 N434 1.469 . S
C1511 N884 1.478 . S
C1525 N854 1.477 . S
C1529 N464 1.467 . S
C1543 C16 1.034 . S
C1547 C27 1.034 1_556 S
C1561 C46 1.042 . S
C1565 C57 1.042 1_556 S
C1579 C87 1.034 . S
C1583 C76 1.034 . S
C1597 C117 1.042 . S
C1601 C106 1.042 . S
C1615 C136 1.042 1_554 S
C1619 C147 1.042 . S
C1633 C166 1.040 1_554 S
C1637 C177 1.040 . S
C1651 C196 1.036 . S
C1655 C207 1.036 . S
C1669 C237 1.034 . S
C1673 C226 1.034 . S
C1687 C256 1.036 . S
C1691 C267 1.036 . S
C1705 C297 1.042 . S
C1709 C286 1.042 . S
C1723 C327 1.034 . S
C1727 C316 1.034 . S
C1741 C357 1.042 . S
C1745 C346 1.042 . S
C1759 C376 1.036 . S
C1763 C387 1.036 . S
C1777 C417 1.042 . S
C1781 C406 1.042 . S
C1795 C436 1.034 . S
C1799 C447 1.034 . S
C1813 C477 1.041 . S
C1817 C466 1.041 . S
C1831 C496 1.035 . S
C1835 C507 1.035 . S
C1849 C537 1.040 . S
C1853 C526 1.040 . S
C1867 C567 1.034 . S
C1871 C556 1.034 . S
C1885 C597 1.042 . S
C1889 C586 1.042 . S
C1903 C627 1.034 . S
C1907 C616 1.034 . S
C1921 C646 1.041 . S
C1925 C657 1.041 . S
C1939 C687 1.034 . S
C1943 C676 1.034 . S
C1957 C717 1.034 . S
C1961 C706 1.034 . S
C1975 C736 1.035 . S
C1979 C747 1.035 1_556 S
C1993 C777 1.034 1_556 S
C1997 C766 1.034 . S
C2011 C807 1.042 . S
C2015 C796 1.042 . S
C2029 C826 1.034 . S
C2033 C837 1.034 . S
C2047 C856 1.036 1_554 S
C2051 C867 1.036 . S
C2065 C897 1.034 . S
C2069 C886 1.034 1_554 S
C2083 C927 1.042 . S
C2087 C916 1.042 . S
C2101 C957 1.042 . S
C2105 C946 1.042 . S
C2119 C310 1.618 . S
C2123 C10 1.621 . S
C2137 C340 1.622 . S
C2141 C40 1.620 . S
C2155 C70 1.622 1_556 S
C2159 C250 1.620 . S
C2173 C280 1.621 . S
C2177 C100 1.620 1_556 S
C2191 C121 1.617 . S
C2195 C421 1.615 . S
C2209 C151 1.616 . S
C2213 C451 1.616 . S
C2227 C181 1.621 1_554 S
C2231 C361 1.622 . S
C2245 C211 1.616 1_554 S
C2249 C391 1.619 . S
C2263 C790 1.622 1_556 S
C2267 C490 1.619 . S
C2281 C520 1.616 . S
C2285 C820 1.616 1_556 S
C2299 C730 1.621 . S
C2303 C550 1.617 . S
C2317 C580 1.615 . S
C2321 C760 1.617 . S
C2335 C901 1.617 1_554 S
C2339 C601 1.621 . S
C2353 C631 1.615 . S
C2357 C931 1.618 1_554 S
C2371 C661 1.619 . S
C2375 C841 1.616 . S
C2389 C871 1.617 . S
C2393 C691 1.615 . S
C2407 C1 1.448 . S
C2411 C61 1.444 . S
C2425 C91 1.446 . S
C2429 C31 1.447 . S
C2443 C190 1.445 . S
C2447 C130 1.447 . S
C2461 C160 1.447 . S
C2465 C220 1.446 . S
C2479 C241 1.444 . S
C2483 C301 1.447 . S
C2497 C331 1.447 . S
C2501 C271 1.445 . S
C2515 C430 1.444 . S
C2519 C370 1.447 . S
C2533 C460 1.445 . S
C2537 C400 1.447 . S
C2551 C541 1.447 . S
C2555 C481 1.445 . S
C2569 C571 1.445 . S
C2573 C511 1.448 . S
C2587 C670 1.447 . S
C2591 C610 1.446 . S
C2605 C700 1.447 . S
C2609 C640 1.446 . S
C2623 C721 1.446 . S
C2627 C781 1.447 . S
C2641 C751 1.446 . S
C2645 C811 1.447 . S
C2659 C850 1.447 . S
C2663 C910 1.445 . S
C2677 C940 1.445 . S
C2681 C880 1.447 . S
