# Generated by pormake.
# Topology ume, (4)-cn, num edge types: 1
# Building blocks:
#     Node 0, Type 0, BuildingBlock: NAWXER_clean_sbu_0, # of connection points: 4
#     Node 1, Type 0, BuildingBlock: NAWXER_clean_sbu_0, # of connection points: 4
#     Node 2, Type 0, BuildingBlock: NAWXER_clean_sbu_0, # of connection points: 4
#     Node 3, Type 0, BuildingBlock: NAWXER_clean_sbu_0, # of connection points: 4
#     Node 4, Type 0, BuildingBlock: NAWXER_clean_sbu_0, # of connection points: 4
#     Node 5, Type 0, BuildingBlock: NAWXER_clean_sbu_0, # of connection points: 4
#     Node 6, Type 0, BuildingBlock: NAWXER_clean_sbu_0, # of connection points: 4
#     Node 7, Type 0, BuildingBlock: NAWXER_clean_sbu_0, # of connection points: 4
#     Node 8, Type 0, BuildingBlock: NAWXER_clean_sbu_0, # of connection points: 4
#     Node 9, Type 0, BuildingBlock: NAWXER_clean_sbu_0, # of connection points: 4
#     Node 10, Type 0, BuildingBlock: NAWXER_clean_sbu_0, # of connection points: 4
#     Node 11, Type 0, BuildingBlock: NAWXER_clean_sbu_0, # of connection points: 4
#     Node 12, Type 0, BuildingBlock: NAWXER_clean_sbu_0, # of connection points: 4
#     Node 13, Type 0, BuildingBlock: NAWXER_clean_sbu_0, # of connection points: 4
#     Node 14, Type 0, BuildingBlock: NAWXER_clean_sbu_0, # of connection points: 4
#     Node 15, Type 0, BuildingBlock: NAWXER_clean_sbu_0, # of connection points: 4
#     Edge 16, Type (0, 0), BuildingBlock: XIVTED_clean_linker_0, # of connection points: 2
#     Edge 17, Type (0, 0), BuildingBlock: XIVTED_clean_linker_0, # of connection points: 2
#     Edge 18, Type (0, 0), BuildingBlock: XIVTED_clean_linker_0, # of connection points: 2
#     Edge 19, Type (0, 0), BuildingBlock: XIVTED_clean_linker_0, # of connection points: 2
#     Edge 20, Type (0, 0), BuildingBlock: XIVTED_clean_linker_0, # of connection points: 2
#     Edge 21, Type (0, 0), BuildingBlock: XIVTED_clean_linker_0, # of connection points: 2
#     Edge 22, Type (0, 0), BuildingBlock: XIVTED_clean_linker_0, # of connection points: 2
#     Edge 23, Type (0, 0), BuildingBlock: XIVTED_clean_linker_0, # of connection points: 2
#     Edge 24, Type (0, 0), BuildingBlock: XIVTED_clean_linker_0, # of connection points: 2
#     Edge 25, Type (0, 0), BuildingBlock: XIVTED_clean_linker_0, # of connection points: 2
#     Edge 26, Type (0, 0), BuildingBlock: XIVTED_clean_linker_0, # of connection points: 2
#     Edge 27, Type (0, 0), BuildingBlock: XIVTED_clean_linker_0, # of connection points: 2
#     Edge 28, Type (0, 0), BuildingBlock: XIVTED_clean_linker_0, # of connection points: 2
#     Edge 29, Type (0, 0), BuildingBlock: XIVTED_clean_linker_0, # of connection points: 2
#     Edge 30, Type (0, 0), BuildingBlock: XIVTED_clean_linker_0, # of connection points: 2
#     Edge 31, Type (0, 0), BuildingBlock: XIVTED_clean_linker_0, # of connection points: 2
#     Edge 32, Type (0, 0), BuildingBlock: XIVTED_clean_linker_0, # of connection points: 2
#     Edge 33, Type (0, 0), BuildingBlock: XIVTED_clean_linker_0, # of connection points: 2
#     Edge 34, Type (0, 0), BuildingBlock: XIVTED_clean_linker_0, # of connection points: 2
#     Edge 35, Type (0, 0), BuildingBlock: XIVTED_clean_linker_0, # of connection points: 2
#     Edge 36, Type (0, 0), BuildingBlock: XIVTED_clean_linker_0, # of connection points: 2
#     Edge 37, Type (0, 0), BuildingBlock: XIVTED_clean_linker_0, # of connection points: 2
#     Edge 38, Type (0, 0), BuildingBlock: XIVTED_clean_linker_0, # of connection points: 2
#     Edge 39, Type (0, 0), BuildingBlock: XIVTED_clean_linker_0, # of connection points: 2
#     Edge 40, Type (0, 0), BuildingBlock: XIVTED_clean_linker_0, # of connection points: 2
#     Edge 41, Type (0, 0), BuildingBlock: XIVTED_clean_linker_0, # of connection points: 2
#     Edge 42, Type (0, 0), BuildingBlock: XIVTED_clean_linker_0, # of connection points: 2
#     Edge 43, Type (0, 0), BuildingBlock: XIVTED_clean_linker_0, # of connection points: 2
#     Edge 44, Type (0, 0), BuildingBlock: XIVTED_clean_linker_0, # of connection points: 2
#     Edge 45, Type (0, 0), BuildingBlock: XIVTED_clean_linker_0, # of connection points: 2
#     Edge 46, Type (0, 0), BuildingBlock: XIVTED_clean_linker_0, # of connection points: 2
#     Edge 47, Type (0, 0), BuildingBlock: XIVTED_clean_linker_0, # of connection points: 2
# Relax obj value: 0.054
# Max RMSD: 0.243
# Mean RMSD: 0.243
data_MOF--net-ume--node1-NAWXER_clean_sbu_0--edge1-XIVTED_clean_linker_0
_symmetry_space_group_name_H-M    P1
_symmetry_Int_Tables_number       1
_symmetry_cell_setting            triclinic
loop_
_symmetry_equiv_pos_as_xyz
'x, y, z'
_cell_length_a     29.130854
_cell_length_b     29.136767
_cell_length_c     113.76717
_cell_angle_alpha  90.010195
_cell_angle_beta   90.035259
_cell_angle_gamma 90.315393
loop_
_atom_site_label
_atom_site_type_symbol
_atom_site_fract_x
_atom_site_fract_y
_atom_site_fract_z
_atom_type_partial_charge
C0 C 0.23665 0.08852 0.34167 0.0
C1 C 0.25637 0.11921 0.30006 0.0
O2 O 0.23694 0.12639 0.33618 0.0
Zn3 Zn 0.24223 0.10187 0.32067 0.0
O4 O 0.2385 0.05082 0.33583 0.0
Zn5 Zn 0.24364 0.03222 0.31728 0.0
O6 O 0.29745 -0.00374 0.31731 0.0
O7 O 0.30982 0.06951 0.32123 0.0
O8 O 0.2541 0.07575 0.3019 0.0
O9 O 0.25019 0.14667 0.30855 0.0
O10 O 0.1751 0.07075 0.3175 0.0
O11 O 0.18973 -0.00211 0.31412 0.0
C12 C 0.32511 0.02858 0.31977 0.0
C13 C 0.16086 0.02991 0.31515 0.0
C14 C 0.95747 0.82559 0.56943 0.0
C15 C 0.95519 0.66126 0.56467 0.0
O16 O 0.99012 0.79825 0.56724 0.0
Zn17 Zn 0.95396 0.74428 0.5668 0.0
O18 O 0.9163 0.80994 0.57052 0.0
Zn19 Zn 0.88356 0.74205 0.56977 0.0
O20 O 0.85818 0.73685 0.58532 0.0
O21 O 0.93383 0.73868 0.58512 0.0
O22 O 0.91455 0.67562 0.56693 0.0
O23 O 0.98766 0.69 0.56365 0.0
O24 O 0.91217 0.75637 0.55135 0.0
O25 O 0.84032 0.748 0.55705 0.0
C26 C 0.89598 0.73666 0.59088 0.0
C27 C 0.86908 0.75667 0.54897 0.0
C28 C 0.16029 0.45774 0.81978 0.0
C29 C 0.32441 0.4522 0.81535 0.0
O30 O 0.18876 0.48942 0.81737 0.0
Zn31 Zn 0.2417 0.45213 0.81741 0.0
O32 O 0.17456 0.41644 0.82121 0.0
Zn33 Zn 0.24117 0.38232 0.82071 0.0
O34 O 0.24567 0.35751 0.83622 0.0
O35 O 0.24622 0.43312 0.83592 0.0
O36 O 0.30907 0.41171 0.81764 0.0
O37 O 0.29646 0.48505 0.81438 0.0
O38 O 0.23095 0.40918 0.80196 0.0
O39 O 0.23237 0.33799 0.80849 0.0
C40 C 0.24701 0.39533 0.84174 0.0
C41 C 0.22761 0.36583 0.80003 0.0
C42 C 0.52602 0.66165 0.06933 0.0
C43 C 0.5296 0.82551 0.064 0.0
O44 O 0.49362 0.68908 0.06698 0.0
Zn45 Zn 0.53017 0.7427 0.06642 0.0
O46 O 0.56729 0.67704 0.07043 0.0
Zn47 Zn 0.60052 0.74458 0.06951 0.0
O48 O 0.6255 0.75048 0.08508 0.0
O49 O 0.54985 0.74908 0.08476 0.0
O50 O 0.57007 0.81098 0.06639 0.0
O51 O 0.49692 0.79698 0.06302 0.0
O52 O 0.57225 0.72958 0.05108 0.0
O53 O 0.64402 0.73771 0.0569 0.0
C54 C 0.5876 0.75117 0.09058 0.0
C55 C 0.6154 0.7289 0.04879 0.0
C56 C 0.23521 0.39776 0.93004 0.0
C57 C 0.25606 0.36963 0.97183 0.0
O58 O 0.2354 0.35989 0.93555 0.0
Zn59 Zn 0.24105 0.38486 0.9511 0.0
O60 O 0.2375 0.43552 0.93584 0.0
Zn61 Zn 0.24353 0.45511 0.95421 0.0
O62 O 0.29759 0.49115 0.95377 0.0
O63 O 0.30901 0.41741 0.95032 0.0
O64 O 0.25594 0.4128 0.96957 0.0
O65 O 0.24704 0.34122 0.9637 0.0
O66 O 0.17479 0.41588 0.95405 0.0
O67 O 0.18933 0.48884 0.9575 0.0
C68 C 0.32479 0.4585 0.95147 0.0
C69 C 0.16052 0.45645 0.95642 0.0
C70 C 0.58853 0.73801 0.17888 0.0
C71 C 0.61779 0.75664 0.22061 0.0
O72 O 0.62627 0.73875 0.18444 0.0
Zn73 Zn 0.60127 0.74313 0.19993 0.0
O74 O 0.55066 0.73907 0.18466 0.0
Zn75 Zn 0.53148 0.7433 0.20316 0.0
O76 O 0.49466 0.79652 0.20321 0.0
O77 O 0.56785 0.81021 0.19949 0.0
O78 O 0.57441 0.75375 0.21866 0.0
O79 O 0.64561 0.75135 0.21217 0.0
O80 O 0.5711 0.67542 0.2029 0.0
O81 O 0.49787 0.68881 0.2061 0.0
C82 C 0.52663 0.82478 0.2009 0.0
C83 C 0.53039 0.6605 0.20511 0.0
C84 C 0.22832 0.11472 0.47175 0.0
C85 C 0.24969 0.08664 0.42996 0.0
O86 O 0.23734 0.14322 0.46364 0.0
Zn87 Zn 0.24366 0.09962 0.45103 0.0
O88 O 0.22865 0.07156 0.46947 0.0
Zn89 Zn 0.24128 0.02931 0.45412 0.0
O90 O 0.2955 -0.00429 0.45746 0.0
O91 O 0.30992 0.06872 0.45406 0.0
O92 O 0.24743 0.0489 0.43577 0.0
O93 O 0.2494 0.12453 0.43547 0.0
O94 O 0.17581 0.06698 0.45019 0.0
O95 O 0.18724 -0.00678 0.45363 0.0
C96 C 0.32424 0.02817 0.45643 0.0
C97 C 0.16004 0.02588 0.45132 0.0
C98 C 0.95922 0.82383 0.70537 0.0
C99 C 0.95782 0.65981 0.70023 0.0
O100 O 0.99108 0.79467 0.70614 0.0
Zn101 Zn 0.95588 0.74097 0.70298 0.0
O102 O 0.91808 0.81006 0.70326 0.0
Zn103 Zn 0.88551 0.74397 0.70034 0.0
O104 O 0.84288 0.73794 0.71315 0.0
O105 O 0.9148 0.72837 0.71861 0.0
O106 O 0.9168 0.67565 0.69936 0.0
O107 O 0.99106 0.68697 0.70227 0.0
O108 O 0.93463 0.74723 0.68475 0.0
O109 O 0.85905 0.74999 0.68495 0.0
C110 C 0.87181 0.72842 0.72111 0.0
C111 C 0.89635 0.74985 0.67919 0.0
C112 C 0.82454 0.52599 0.81939 0.0
C113 C 0.66035 0.52752 0.81472 0.0
O114 O 0.79671 0.49341 0.81727 0.0
Zn115 Zn 0.74338 0.52958 0.81677 0.0
O116 O 0.8095 0.56727 0.82041 0.0
Zn117 Zn 0.74163 0.59975 0.81963 0.0
O118 O 0.73669 0.62587 0.83505 0.0
O119 O 0.73818 0.55025 0.83512 0.0
O120 O 0.67485 0.56834 0.81692 0.0
O121 O 0.68901 0.49533 0.8137 0.0
O122 O 0.75593 0.57114 0.80121 0.0
O123 O 0.74752 0.64284 0.80694 0.0
C124 C 0.7364 0.58843 0.84075 0.0
C125 C 0.75624 0.61425 0.79885 0.0
C126 C 0.40013 0.23512 0.09134 0.0
C127 C 0.37252 0.25733 0.04956 0.0
O128 O 0.36232 0.23568 0.08579 0.0
Zn129 Zn 0.38741 0.24172 0.07026 0.0
O130 O 0.43796 0.23734 0.08557 0.0
Zn131 Zn 0.45775 0.24377 0.06725 0.0
O132 O 0.49417 0.29744 0.06783 0.0
O133 O 0.42042 0.3094 0.07116 0.0
O134 O 0.41568 0.25676 0.05186 0.0
O135 O 0.34391 0.24846 0.05766 0.0
O136 O 0.418 0.17542 0.06707 0.0
O137 O 0.4912 0.18962 0.06386 0.0
C138 C 0.46167 0.32485 0.07009 0.0
C139 C 0.45854 0.16102 0.06473 0.0
C140 C 0.66018 0.95715 0.3191 0.0
C141 C 0.82446 0.95575 0.31456 0.0
O142 O 0.68785 0.98951 0.31668 0.0
Zn143 Zn 0.74166 0.9535 0.31659 0.0
O144 O 0.67545 0.91618 0.32047 0.0
Zn145 Zn 0.74292 0.88369 0.31982 0.0
O146 O 0.7481 0.85865 0.33529 0.0
O147 O 0.74673 0.93424 0.33509 0.0
O148 O 0.81013 0.91486 0.31681 0.0
O149 O 0.79566 0.98784 0.31356 0.0
O150 O 0.73132 0.91062 0.30111 0.0
O151 O 0.73489 0.8394 0.30755 0.0
C152 C 0.74847 0.89637 0.34086 0.0
C153 C 0.72895 0.86725 0.29913 0.0
C154 C 0.08899 0.25075 0.5913 0.0
C155 C 0.11584 0.23107 0.54944 0.0
O156 O 0.12662 0.25093 0.58568 0.0
Zn157 Zn 0.1011 0.24554 0.57019 0.0
O158 O 0.05099 0.24846 0.58559 0.0
Zn159 Zn 0.0308 0.24296 0.56725 0.0
O160 O -0.00515 0.18889 0.56765 0.0
O161 O 0.06874 0.17741 0.57089 0.0
O162 O 0.07271 0.23102 0.55176 0.0
O163 O 0.14444 0.23996 0.55754 0.0
O164 O 0.06987 0.31179 0.56732 0.0
O165 O -0.00322 0.2971 0.5641 0.0
C166 C 0.02761 0.16163 0.5698 0.0
C167 C 0.02915 0.32597 0.56507 0.0
C168 C 0.75471 0.86802 0.47095 0.0
C169 C 0.73432 0.89682 0.42915 0.0
O170 O 0.74585 0.83966 0.46279 0.0
Zn171 Zn 0.73996 0.88349 0.45023 0.0
O172 O 0.75463 0.91122 0.46871 0.0
Zn173 Zn 0.74256 0.95375 0.45337 0.0
O174 O 0.68847 0.98758 0.45667 0.0
O175 O 0.67381 0.91458 0.45329 0.0
O176 O 0.73666 0.93446 0.435 0.0
O177 O 0.73431 0.85886 0.43462 0.0
O178 O 0.808 0.91585 0.44955 0.0
O179 O 0.79671 0.98962 0.45301 0.0
C180 C 0.65963 0.95518 0.45567 0.0
C181 C 0.82387 0.95689 0.45074 0.0
C182 C 0.03059 0.16045 0.70613 0.0
C183 C 0.02732 0.3246 0.7014 0.0
O184 O -0.00187 0.18882 0.70718 0.0
Zn185 Zn 0.03165 0.24316 0.70401 0.0
O186 O 0.07119 0.17525 0.70374 0.0
Zn187 Zn 0.1015 0.24262 0.70057 0.0
O188 O 0.14615 0.25126 0.71276 0.0
O189 O 0.07507 0.25369 0.71934 0.0
O190 O 0.06831 0.30955 0.69992 0.0
O191 O -0.00476 0.29682 0.704 0.0
O192 O 0.0501 0.23793 0.68549 0.0
O193 O 0.12572 0.23746 0.68499 0.0
C194 C 0.11846 0.25657 0.72123 0.0
C195 C 0.08765 0.23654 0.67958 0.0
C196 C 0.66089 0.52821 0.95064 0.0
C197 C 0.82519 0.53004 0.95549 0.0
O198 O 0.68815 0.49552 0.95285 0.0
Zn199 Zn 0.74223 0.53148 0.95322 0.0
O200 O 0.67667 0.5693 0.94947 0.0
Zn201 Zn 0.74473 0.60175 0.95014 0.0
O202 O 0.75018 0.62664 0.93456 0.0
O203 O 0.74795 0.55103 0.93487 0.0
O204 O 0.81099 0.57067 0.95315 0.0
O205 O 0.79636 0.49764 0.95647 0.0
O206 O 0.73026 0.5738 0.96861 0.0
O207 O 0.73896 0.64542 0.96274 0.0
C208 C 0.75019 0.58875 0.92905 0.0
C209 C 0.73018 0.61697 0.97088 0.0
C210 C 0.45764 0.16046 0.2017 0.0
C211 C 0.45327 0.32473 0.206 0.0
O212 O 0.4894 0.1887 0.20422 0.0
Zn213 Zn 0.45244 0.24186 0.20412 0.0
O214 O 0.41648 0.175 0.20016 0.0
Zn215 Zn 0.38284 0.24193 0.20061 0.0
O216 O 0.35847 0.24636 0.18507 0.0
O217 O 0.43409 0.24632 0.18553 0.0
O218 O 0.41275 0.30969 0.20361 0.0
O219 O 0.48572 0.29648 0.20723 0.0
O220 O 0.40881 0.23098 0.21945 0.0
O221 O 0.33796 0.23352 0.2127 0.0
C222 C 0.39645 0.24732 0.17964 0.0
C223 C 0.36533 0.22802 0.22123 0.0
H224 H 0.86435 0.04 0.31173 0.0
H225 H 0.12112 0.94564 0.31221 0.0
H226 H 0.89758 0.89644 0.3154 0.0
H227 H 0.08769 0.08919 0.31577 0.0
H228 H 0.03955 0.92721 0.31134 0.0
H229 H 0.94596 0.05842 0.31116 0.0
C230 C 0.8888 0.01223 0.31236 0.0
C231 C 0.87402 0.96651 0.31365 0.0
C232 C 0.05001 0.96274 0.31229 0.0
C233 C 0.96777 0.98761 0.313 0.0
C234 C 0.09664 0.9734 0.31275 0.0
C235 C 0.11135 0.01913 0.3141 0.0
C236 C 0.01764 -0.00199 0.3131 0.0
C237 C 0.07794 0.05351 0.31476 0.0
C238 C 0.93545 0.02288 0.31206 0.0
C239 C 0.90739 0.93212 0.31442 0.0
N240 N 0.0326 0.04223 0.31426 0.0
N241 N 0.95275 0.9434 0.31409 0.0
H242 H 0.8941 0.58923 0.56528 0.0
H243 H 0.09014 0.39809 0.56538 0.0
H244 H 0.03865 0.62031 0.562 0.0
H245 H 0.9455 0.36671 0.56252 0.0
H246 H 0.07199 0.47988 0.5645 0.0
H247 H 0.91214 0.50736 0.56461 0.0
C248 C 0.92957 0.57887 0.56437 0.0
C249 C 0.9649 0.61167 0.56372 0.0
C250 C 0.04426 0.45505 0.564 0.0
C251 C 0.98583 0.51817 0.56302 0.0
C252 C 0.05461 0.40837 0.56452 0.0
C253 C 0.0193 0.37551 0.56405 0.0
C254 C -0.00174 0.46894 0.5631 0.0
C255 C 0.97386 0.39081 0.56292 0.0
C256 C 0.93987 0.53215 0.56398 0.0
C257 C 0.01027 0.59626 0.56254 0.0
N258 N 0.96464 0.4364 0.56255 0.0
N259 N 0.01944 0.55065 0.56229 0.0
H260 H 0.58844 0.58794 0.81507 0.0
H261 H 0.39594 0.39099 0.81619 0.0
H262 H 0.61922 0.44346 0.81254 0.0
H263 H 0.36625 0.53524 0.81225 0.0
H264 H 0.4781 0.40917 0.81531 0.0
H265 H 0.50655 0.56912 0.81451 0.0
C266 C 0.578 0.55231 0.81435 0.0
C267 C 0.61072 0.51726 0.81387 0.0
C268 C 0.4535 0.43676 0.81458 0.0
C269 C 0.51717 0.49541 0.81329 0.0
C270 C 0.40664 0.42638 0.81509 0.0
C271 C 0.37416 0.46161 0.81432 0.0
C272 C 0.46786 0.48269 0.81338 0.0
C273 C 0.39 0.50691 0.81289 0.0
C274 C 0.53126 0.54156 0.81401 0.0
C275 C 0.59521 0.47164 0.81293 0.0
N276 N 0.43566 0.51613 0.81253 0.0
N277 N 0.54957 0.46202 0.81273 0.0
H278 H 0.39689 0.08949 0.06481 0.0
H279 H 0.59127 0.89699 0.06452 0.0
H280 H 0.54175 0.11975 0.06191 0.0
H281 H 0.44652 0.86698 0.06111 0.0
H282 H 0.57389 0.97896 0.06378 0.0
H283 H 0.41431 0.00759 0.06368 0.0
C284 C 0.4323 0.07895 0.06388 0.0
C285 C 0.4679 0.1115 0.06349 0.0
C286 C 0.54598 0.95438 0.06312 0.0
C287 C 0.48811 0.01798 0.06226 0.0
C288 C 0.5559 0.90761 0.06356 0.0
C289 C 0.52031 0.87509 0.06292 0.0
C290 C 0.50014 0.9687 0.06213 0.0
C291 C 0.47508 0.89082 0.06165 0.0
C292 C 0.44223 0.03221 0.06322 0.0
C293 C 0.51318 0.09587 0.06227 0.0
N294 N 0.46628 0.93649 0.06137 0.0
N295 N 0.52199 0.05024 0.06176 0.0
H296 H 0.08853 0.39538 0.95575 0.0
H297 H 0.89723 0.59114 0.95524 0.0
H298 H 0.11955 0.5399 0.95912 0.0
H299 H 0.866 0.44654 0.95821 0.0
H300 H 0.97906 0.57314 0.9563 0.0
H301 H 0.00665 0.41339 0.95632 0.0
C302 C 0.07815 0.43085 0.95667 0.0
C303 C 0.11094 0.46617 0.95736 0.0
C304 C 0.95425 0.5454 0.95678 0.0
C305 C 0.01741 0.48706 0.95794 0.0
C306 C 0.90755 0.55566 0.95616 0.0
C307 C 0.87473 0.52031 0.95661 0.0
C308 C 0.96818 0.49945 0.95777 0.0
C309 C 0.89007 0.47493 0.95782 0.0
C310 C 0.03142 0.44112 0.957 0.0
C311 C 0.0955 0.51153 0.95855 0.0
N312 N 0.93567 0.4658 0.9583 0.0
N313 N 0.04988 0.52068 0.95873 0.0
H314 H 0.39283 0.39677 0.20477 0.0
H315 H 0.59094 0.58837 0.20477 0.0
H316 H 0.5368 0.36605 0.2089 0.0
H317 H 0.44655 0.61941 0.20753 0.0
H318 H 0.57192 0.50643 0.20565 0.0
H319 H 0.41181 0.47876 0.20516 0.0
C320 C 0.42834 0.40722 0.20581 0.0
C321 C 0.46323 0.37448 0.20679 0.0
C322 C 0.54447 0.53126 0.20611 0.0
C323 C 0.48525 0.46806 0.20716 0.0
C324 C 0.55533 0.578 0.2056 0.0
C325 C 0.52034 0.61082 0.20607 0.0
C326 C 0.49829 0.5173 0.207 0.0
C327 C 0.47472 0.59539 0.20714 0.0
C328 C 0.43918 0.454 0.20604 0.0
C329 C 0.50871 0.39002 0.20812 0.0
N330 N 0.46503 0.54981 0.20752 0.0
N331 N 0.51841 0.43563 0.2082 0.0
H332 H 0.39611 0.08941 0.45586 0.0
H333 H 0.58769 0.894 0.45542 0.0
H334 H 0.36536 0.94482 0.45919 0.0
H335 H 0.61875 0.03863 0.45844 0.0
H336 H 0.50586 0.91187 0.45648 0.0
H337 H 0.47802 0.07157 0.45651 0.0
C338 C 0.40655 0.05397 0.45678 0.0
C339 C 0.37383 0.01857 0.45744 0.0
C340 C 0.53063 0.93965 0.45698 0.0
C341 C 0.46739 -0.00212 0.45811 0.0
C342 C 0.57733 0.92946 0.45635 0.0
C343 C 0.61011 0.96486 0.45681 0.0
C344 C 0.51664 0.98558 0.45797 0.0
C345 C 0.59471 0.01021 0.45804 0.0
C346 C 0.4533 0.04379 0.45716 0.0
C347 C 0.38935 0.97325 0.45864 0.0
N348 N 0.5491 0.01928 0.45851 0.0
N349 N 0.43499 0.96419 0.45887 0.0
H350 H 0.94734 0.11954 0.70977 0.0
H351 H 0.04392 0.86369 0.70758 0.0
H352 H 0.09074 0.08816 0.70477 0.0
H353 H 0.89974 0.89659 0.70566 0.0
H354 H 0.06205 0.94541 0.70862 0.0
H355 H 0.93002 0.03777 0.7104 0.0
C356 C 0.97531 0.09546 0.70886 0.0
C357 C 0.02063 0.1108 0.70716 0.0
C358 C 0.02646 0.93476 0.708 0.0
C359 C 0.0008 0.01685 0.70787 0.0
C360 C 0.016 0.88808 0.70743 0.0
C361 C 0.97017 0.87323 0.7065 0.0
C362 C 0.99086 0.96694 0.70769 0.0
C363 C 0.93552 0.90646 0.70634 0.0
C364 C 0.96529 0.04871 0.70919 0.0
C365 C 0.05533 0.07789 0.70606 0.0
N366 N 0.9466 0.95178 0.70692 0.0
N367 N 0.04467 0.0324 0.70641 0.0
H368 H 0.58941 0.89579 0.32192 0.0
H369 H 0.39602 0.09001 0.32234 0.0
H370 H 0.61851 0.04083 0.31892 0.0
H371 H 0.36678 0.94493 0.31953 0.0
H372 H 0.47798 0.07261 0.32321 0.0
H373 H 0.50755 0.91323 0.32315 0.0
C374 C 0.57861 0.93128 0.32156 0.0
C375 C 0.61077 0.96688 0.32024 0.0
C376 C 0.45357 0.04461 0.32243 0.0
C377 C 0.51737 0.98706 0.32165 0.0
C378 C 0.40681 0.05452 0.32196 0.0
C379 C 0.37458 0.0189 0.32078 0.0
C380 C 0.46807 -0.00123 0.32178 0.0
C381 C 0.39046 0.97352 0.32035 0.0
C382 C 0.53191 0.94121 0.32225 0.0
C383 C 0.59488 0.01226 0.31986 0.0
N384 N 0.4361 0.96476 0.32083 0.0
N385 N 0.54929 0.02104 0.32054 0.0
H386 H 0.89584 0.89555 0.57203 0.0
H387 H 0.08948 0.09165 0.57209 0.0
H388 H 0.04109 0.86839 0.56941 0.0
H389 H 0.94409 0.11874 0.56992 0.0
H390 H 0.07244 0.00947 0.57303 0.0
H391 H 0.91299 0.97764 0.57318 0.0
C392 C 0.93132 0.90682 0.57174 0.0
C393 C 0.96706 0.87513 0.57055 0.0
C394 C 0.0443 0.03346 0.57238 0.0
C395 C 0.98692 0.96882 0.57186 0.0
C396 C 0.054 0.08034 0.57186 0.0
C397 C 0.01818 0.11204 0.57084 0.0
C398 C -0.00154 0.01828 0.57192 0.0
C399 C 0.97283 0.0955 0.57061 0.0
C400 C 0.94109 0.95366 0.57238 0.0
C401 C 0.01242 0.89163 0.57025 0.0
N402 N 0.96428 0.04975 0.57112 0.0
N403 N 0.02104 0.93736 0.57087 0.0
H404 H 0.12028 0.54228 0.81916 0.0
H405 H 0.8651 0.442 0.82041 0.0
H406 H 0.08825 0.39801 0.82265 0.0
H407 H 0.89631 0.58706 0.82097 0.0
H408 H 0.94678 0.42548 0.8215 0.0
H409 H 0.03857 0.55955 0.82008 0.0
C410 C 0.09606 0.5142 0.82015 0.0
C411 C 0.11108 0.46856 0.82076 0.0
C412 C 0.93583 0.46094 0.82144 0.0
C413 C 0.01749 0.48818 0.8218 0.0
C414 C 0.88916 0.47044 0.82078 0.0
C415 C 0.87389 0.51603 0.82053 0.0
C416 C 0.96761 0.49725 0.82176 0.0
C417 C 0.90662 0.55143 0.82113 0.0
C418 C 0.04941 0.52414 0.8207 0.0
C419 C 0.07819 0.43366 0.82211 0.0
N420 N 0.95204 0.54128 0.82164 0.0
N421 N 0.03288 0.44419 0.82252 0.0
H422 H 0.44206 0.61962 0.06967 0.0
H423 H 0.54556 0.36694 0.07068 0.0
H424 H 0.58718 0.59133 0.07196 0.0
H425 H 0.4003 0.3953 0.07215 0.0
H426 H 0.56143 0.44901 0.07164 0.0
H427 H 0.42606 0.53765 0.07104 0.0
C428 C 0.4706 0.59616 0.07049 0.0
C429 C 0.51608 0.61229 0.07062 0.0
C430 C 0.52608 0.43732 0.07181 0.0
C431 C 0.49794 0.51838 0.07218 0.0
C432 C 0.51696 0.39044 0.07124 0.0
C433 C 0.47148 0.37429 0.07125 0.0
C434 C 0.48948 0.46833 0.07232 0.0
C435 C 0.43585 0.40629 0.07208 0.0
C436 C 0.4614 0.54935 0.0713 0.0
C437 C 0.55162 0.58036 0.07179 0.0
N438 N 0.44562 0.45187 0.07251 0.0
N439 N 0.54179 0.53484 0.07245 0.0
H440 H 0.39456 0.39676 0.94869 0.0
H441 H 0.59094 0.59007 0.94833 0.0
H442 H 0.36774 0.54201 0.95147 0.0
H443 H 0.61794 0.44472 0.95059 0.0
H444 H 0.50872 0.57311 0.94747 0.0
H445 H 0.47665 0.41378 0.94739 0.0
C446 C 0.40591 0.43221 0.94899 0.0
C447 C 0.37432 0.468 0.95027 0.0
C448 C 0.5327 0.54496 0.94812 0.0
C449 C 0.468 0.48769 0.94878 0.0
C450 C 0.57961 0.55462 0.94859 0.0
C451 C 0.61129 0.51878 0.94961 0.0
C452 C 0.51748 0.49916 0.94864 0.0
C453 C 0.59471 0.47346 0.94989 0.0
C454 C 0.45275 0.44191 0.94826 0.0
C455 C 0.39091 0.51331 0.95057 0.0
N456 N 0.54893 0.46495 0.94944 0.0
N457 N 0.43663 0.52185 0.94986 0.0
H458 H 0.44224 0.86499 0.2008 0.0
H459 H 0.54208 0.12029 0.20207 0.0
H460 H 0.58702 0.89686 0.19895 0.0
H461 H 0.3976 0.08853 0.19892 0.0
H462 H 0.55922 0.03864 0.20094 0.0
H463 H 0.42526 0.94671 0.2001 0.0
C464 C 0.4705 0.88919 0.20022 0.0
C465 C 0.51617 0.87411 0.2 0.0
C466 C 0.52378 0.04951 0.20044 0.0
C467 C 0.49689 0.96779 0.19922 0.0
C468 C 0.51392 0.09613 0.20112 0.0
C469 C 0.46828 0.11122 0.20065 0.0
C470 C 0.48774 0.01766 0.19937 0.0
C471 C 0.43326 0.0784 0.19935 0.0
C472 C 0.46074 0.93587 0.19979 0.0
C473 C 0.55133 0.907 0.19917 0.0
N474 N 0.44372 0.03308 0.19881 0.0
N475 N 0.54095 0.95238 0.19888 0.0
H476 H 0.8936 0.89488 0.44831 0.0
H477 H 0.09038 0.08772 0.44855 0.0
H478 H 0.86702 0.04028 0.45072 0.0
H479 H 0.11698 0.94241 0.4513 0.0
H480 H 0.00826 0.07087 0.4473 0.0
H481 H 0.97583 0.91164 0.44735 0.0
C482 C 0.90503 0.93031 0.44859 0.0
C483 C 0.87347 0.96622 0.44968 0.0
C484 C 0.03212 0.04269 0.44815 0.0
C485 C 0.96728 0.9856 0.44858 0.0
C486 C 0.07898 0.05229 0.44885 0.0
C487 C 0.11051 0.01644 0.45011 0.0
C488 C 0.01678 -0.00306 0.44868 0.0
C489 C 0.09385 0.97115 0.45041 0.0
C490 C 0.95194 0.93985 0.44806 0.0
C491 C 0.89016 0.01149 0.44997 0.0
N492 N 0.04809 0.96271 0.44973 0.0
N493 N 0.93595 0.01988 0.44945 0.0
H494 H 0.08808 0.39491 0.69746 0.0
H495 H 0.8951 0.58941 0.69894 0.0
H496 H 0.94372 0.36649 0.70245 0.0
H497 H 0.04086 0.6174 0.69903 0.0
H498 H 0.91157 0.50719 0.69816 0.0
H499 H 0.07064 0.47659 0.69599 0.0
C500 C 0.05272 0.40582 0.69822 0.0
C501 C 0.01735 0.3739 0.70016 0.0
C502 C 0.93989 0.53141 0.69831 0.0
C503 C -0.00286 0.46719 0.69847 0.0
C504 C 0.93052 0.57829 0.69873 0.0
C505 C 0.96666 0.61023 0.69914 0.0
C506 C 0.9857 0.51653 0.69825 0.0
C507 C 0.01191 0.59397 0.69883 0.0
C508 C 0.04278 0.45244 0.69738 0.0
C509 C 0.97212 0.38996 0.70103 0.0
N510 N 0.02012 0.54825 0.69843 0.0
N511 N 0.96332 0.43552 0.7002 0.0
H512 H 0.23437 0.16227 0.35654 0.0
H513 H 0.24952 0.01177 0.41533 0.0
H514 H 0.23967 0.01421 0.35653 0.0
H515 H 0.24985 0.15995 0.41486 0.0
H516 H 0.24561 0.01162 0.39386 0.0
H517 H 0.23858 0.16166 0.37794 0.0
C518 C 0.2362 0.12956 0.36104 0.0
C519 C 0.23667 0.0882 0.3547 0.0
C520 C 0.24667 0.04416 0.39845 0.0
C521 C 0.24178 0.08731 0.3793 0.0
C522 C 0.24901 0.0443 0.41072 0.0
C523 C 0.25001 0.08596 0.41693 0.0
C524 C 0.24519 0.08598 0.39233 0.0
C525 C 0.24919 0.12699 0.41047 0.0
C526 C 0.23874 0.12926 0.37328 0.0
C527 C 0.23916 0.04693 0.36104 0.0
N528 N 0.2467 0.12595 0.39854 0.0
N529 N 0.24168 0.04753 0.37298 0.0
H530 H 0.97068 0.73665 0.60553 0.0
H531 H 0.82148 0.75186 0.66456 0.0
H532 H 0.82249 0.73736 0.60597 0.0
H533 H 0.9696 0.74766 0.66408 0.0
H534 H 0.82114 0.74785 0.6431 0.0
H535 H 0.97089 0.74084 0.62696 0.0
C536 C 0.93815 0.73746 0.61013 0.0
C537 C 0.89649 0.73665 0.60391 0.0
C538 C 0.85373 0.74791 0.64769 0.0
C539 C 0.89652 0.74177 0.62851 0.0
C540 C 0.85397 0.75034 0.65995 0.0
C541 C 0.89565 0.75009 0.66616 0.0
C542 C 0.89546 0.74519 0.64155 0.0
C543 C 0.93663 0.74797 0.65969 0.0
C544 C 0.93831 0.73996 0.62238 0.0
C545 C 0.85544 0.73786 0.61038 0.0
N546 N 0.93549 0.74552 0.64776 0.0
N547 N 0.8565 0.74047 0.62231 0.0
H548 H 0.24763 0.3215 0.8566 0.0
H549 H 0.23622 0.47252 0.91538 0.0
H550 H 0.24596 0.46966 0.8566 0.0
H551 H 0.23411 0.32435 0.91497 0.0
H552 H 0.23984 0.47248 0.89391 0.0
H553 H 0.24382 0.32223 0.87801 0.0
C554 C 0.24667 0.35425 0.8611 0.0
C555 C 0.24711 0.39561 0.85477 0.0
C556 C 0.23846 0.43998 0.89851 0.0
C557 C 0.24247 0.39665 0.87937 0.0
C558 C 0.23628 0.43997 0.91078 0.0
C559 C 0.23486 0.39836 0.91701 0.0
C560 C 0.23933 0.3981 0.8924 0.0
C561 C 0.23512 0.35727 0.91056 0.0
C562 C 0.24437 0.35462 0.87335 0.0
C563 C 0.24574 0.43694 0.86111 0.0
N564 N 0.23743 0.3582 0.89863 0.0
N565 N 0.24341 0.43641 0.87305 0.0
H566 H 0.51268 0.75132 0.10517 0.0
H567 H 0.66264 0.73702 0.1641 0.0
H568 H 0.66088 0.75144 0.10572 0.0
H569 H 0.51448 0.74038 0.16392 0.0
H570 H 0.66233 0.74144 0.1427 0.0
H571 H 0.51239 0.74759 0.12663 0.0
C572 C 0.54518 0.75082 0.10979 0.0
C573 C 0.58689 0.75168 0.10361 0.0
C574 C 0.62985 0.74114 0.14732 0.0
C575 C 0.58675 0.74706 0.12821 0.0
C576 C 0.62997 0.73848 0.15956 0.0
C577 C 0.58849 0.73832 0.16585 0.0
C578 C 0.58795 0.74367 0.14125 0.0
C579 C 0.54729 0.74035 0.15945 0.0
C580 C 0.54497 0.74857 0.12206 0.0
C581 C 0.62789 0.75086 0.1101 0.0
N582 N 0.54807 0.74301 0.14751 0.0
N583 N 0.62677 0.74848 0.12203 0.0
H584 H 0.73536 0.66307 0.85541 0.0
H585 H 0.74939 0.51383 0.91446 0.0
H586 H 0.73833 0.51495 0.85582 0.0
H587 H 0.75035 0.66199 0.9139 0.0
H588 H 0.74522 0.51347 0.89301 0.0
H589 H 0.73963 0.66323 0.87685 0.0
C590 C 0.73668 0.63053 0.86 0.0
C591 C 0.73649 0.58891 0.85378 0.0
C592 C 0.74647 0.54607 0.89758 0.0
C593 C 0.74167 0.58889 0.87838 0.0
C594 C 0.74896 0.54631 0.90984 0.0
C595 C 0.75023 0.58802 0.91602 0.0
C596 C 0.74512 0.58782 0.89142 0.0
C597 C 0.74949 0.62901 0.90953 0.0
C598 C 0.73926 0.63067 0.87226 0.0
C599 C 0.73836 0.54786 0.86023 0.0
N600 N 0.74688 0.62786 0.8976 0.0
N601 N 0.74094 0.5489 0.87216 0.0
H602 H 0.32294 0.24838 0.16466 0.0
H603 H 0.47475 0.23545 0.10607 0.0
H604 H 0.4711 0.24537 0.16487 0.0
H605 H 0.32654 0.23425 0.10634 0.0
H606 H 0.47447 0.23902 0.12755 0.0
H607 H 0.32401 0.24427 0.14327 0.0
C608 C 0.35577 0.24706 0.16021 0.0
C609 C 0.39702 0.24723 0.16661 0.0
C610 C 0.44202 0.23784 0.12291 0.0
C611 C 0.39845 0.24223 0.14201 0.0
C612 C 0.44213 0.23568 0.11064 0.0
C613 C 0.40058 0.23456 0.10437 0.0
C614 C 0.40006 0.23899 0.12898 0.0
C615 C 0.35941 0.23504 0.11078 0.0
C616 C 0.35633 0.24458 0.14797 0.0
C617 C 0.43846 0.24538 0.16032 0.0
N618 N 0.36022 0.23733 0.12271 0.0
N619 N 0.43812 0.2429 0.14838 0.0
H620 H 0.75019 0.82226 0.35563 0.0
H621 H 0.73519 0.97187 0.41459 0.0
H622 H 0.74582 0.97036 0.35582 0.0
H623 H 0.73404 0.82371 0.41397 0.0
H624 H 0.73945 0.97231 0.39313 0.0
H625 H 0.7458 0.82249 0.37704 0.0
C626 C 0.74853 0.8549 0.36017 0.0
C627 C 0.74837 0.89638 0.35389 0.0
C628 C 0.73814 0.93971 0.39769 0.0
C629 C 0.74305 0.89684 0.37849 0.0
C630 C 0.73559 0.93941 0.40995 0.0
C631 C 0.73425 0.89767 0.41612 0.0
C632 C 0.73948 0.89797 0.39152 0.0
C633 C 0.73496 0.85672 0.40961 0.0
C634 C 0.74588 0.85498 0.37242 0.0
C635 C 0.74609 0.93755 0.36029 0.0
N636 N 0.73764 0.85792 0.39769 0.0
N637 N 0.74345 0.93673 0.37223 0.0
H638 H 0.01258 0.23701 0.66496 0.0
H639 H 0.16314 0.25256 0.60613 0.0
H640 H 0.16078 0.23667 0.66446 0.0
H641 H 0.01497 0.24798 0.6062 0.0
H642 H 0.16262 0.24816 0.62755 0.0
H643 H 0.01243 0.24128 0.64349 0.0
C644 C 0.04509 0.23759 0.66035 0.0
C645 C 0.08676 0.23648 0.66655 0.0
C646 C 0.13018 0.24821 0.62289 0.0
C647 C 0.08682 0.24172 0.64195 0.0
C648 C 0.13045 0.25087 0.61064 0.0
C649 C 0.08902 0.25064 0.60433 0.0
C650 C 0.0882 0.2453 0.62892 0.0
C651 C 0.04775 0.24829 0.61069 0.0
C652 C 0.04497 0.24015 0.64808 0.0
C653 C 0.1278 0.23743 0.66008 0.0
N654 N 0.04839 0.24564 0.62263 0.0
N655 N 0.12677 0.2401 0.64816 0.0
H656 H 0.30029 0.19988 0.29527 0.0
H657 H 0.28529 0.18287 0.22597 0.0
H658 H 0.2437 0.07961 0.27839 0.0
H659 H 0.40422 0.24188 0.24295 0.0
H660 H 0.25724 0.15682 0.24517 0.0
H661 H 0.32638 0.22789 0.27607 0.0
C662 C 0.29291 0.1796 0.2875 0.0
C663 C 0.26974 0.13735 0.2884 0.0
C664 C 0.28936 0.17562 0.24466 0.0
C665 C 0.29903 0.16952 0.26648 0.0
C666 C 0.30526 0.19078 0.23375 0.0
C667 C 0.34715 0.21463 0.23289 0.0
C668 C 0.31492 0.18538 0.25481 0.0
C669 C 0.37183 0.22352 0.24324 0.0
C670 C 0.3081 0.19548 0.2766 0.0
C671 C 0.26153 0.11229 0.27807 0.0
N672 N 0.35514 0.20922 0.25381 0.0
N673 N 0.27583 0.12895 0.2675 0.0
H674 H 0.73183 0.78651 0.48152 0.0
H675 H 0.91385 0.81026 0.53295 0.0
H676 H 0.80981 0.91103 0.48698 0.0
H677 H 0.78739 0.73529 0.53823 0.0
H678 H 0.8845 0.83764 0.51403 0.0
H679 H 0.75928 0.75788 0.50058 0.0
C680 C 0.75455 0.80785 0.48675 0.0
C681 C 0.76842 0.85129 0.48271 0.0
C682 C 0.86332 0.81506 0.51933 0.0
C683 C 0.80068 0.81833 0.50426 0.0
C684 C 0.88013 0.79913 0.53007 0.0
C685 C 0.85298 0.77046 0.53716 0.0
C686 C 0.81948 0.80141 0.51554 0.0
C687 C 0.80934 0.75747 0.53304 0.0
C688 C 0.77009 0.79154 0.4976 0.0
C689 C 0.79795 0.87753 0.48981 0.0
N690 N 0.79401 0.77279 0.52244 0.0
N691 N 0.81355 0.86042 0.50018 0.0
H692 H 0.07818 0.2417 0.74268 0.0
H693 H 0.24276 0.40626 0.77859 0.0
H694 H 0.19835 0.30139 0.72648 0.0
H695 H 0.18267 0.28617 0.79472 0.0
H696 H 0.21793 0.37748 0.75926 0.0
H697 H 0.10698 0.26675 0.76197 0.0
C698 C 0.11063 0.25993 0.74319 0.0
C699 C 0.13606 0.26928 0.733 0.0
C700 C 0.21049 0.35745 0.76706 0.0
C701 C 0.16844 0.29884 0.75489 0.0
C702 C 0.22449 0.37385 0.77805 0.0
C703 C 0.21495 0.34843 0.78824 0.0
C704 C 0.18566 0.31608 0.76632 0.0
C705 C 0.19108 0.30664 0.78707 0.0
C706 C 0.12704 0.27406 0.75417 0.0
C707 C 0.17789 0.29311 0.73414 0.0
N708 N 0.17675 0.29202 0.77632 0.0
N709 N 0.19253 0.30758 0.74488 0.0
H710 H 0.75318 0.69836 0.9815 0.0
H711 H 0.57085 0.67491 0.03279 0.0
H712 H 0.67514 0.57385 0.98688 0.0
H713 H 0.69732 0.74982 0.03815 0.0
H714 H 0.60041 0.6472 0.01393 0.0
H715 H 0.72574 0.72691 1.00057 0.0
C716 C 0.73046 0.677 0.98672 0.0
C717 C 0.71655 0.6336 0.98265 0.0
C718 C 0.62155 0.66982 0.01923 0.0
C719 C 0.6843 0.66647 1.00421 0.0
C720 C 0.60462 0.68594 0.02994 0.0
C721 C 0.63171 0.71471 0.03703 0.0
C722 C 0.66544 0.68341 0.01547 0.0
C723 C 0.67542 0.72757 0.03295 0.0
C724 C 0.71492 0.69326 0.99757 0.0
C725 C 0.68701 0.60732 0.98974 0.0
N726 N 0.69085 0.71209 0.02238 0.0
N727 N 0.67142 0.62439 1.00011 0.0
H728 H 0.41684 0.31147 0.03356 0.0
H729 H 0.23341 0.28816 0.98243 0.0
H730 H 0.29065 0.23613 0.03892 0.0
H731 H 0.31155 0.41265 0.98778 0.0
H732 H 0.26142 0.25944 1.00143 0.0
H733 H 0.38696 0.33925 0.01472 0.0
C734 C 0.38307 0.30036 0.03071 0.0
C735 C 0.35614 0.27146 0.0378 0.0
C736 C 0.27214 0.29312 0.99843 0.0
C737 C 0.32206 0.30284 0.01628 0.0
C738 C 0.25627 0.30949 0.98763 0.0
C739 C 0.27003 0.35293 0.98357 0.0
C740 C 0.30294 0.31986 1.00505 0.0
C741 C 0.29978 0.37915 0.99063 0.0
C742 C 0.36596 0.31651 0.02002 0.0
C743 C 0.31243 0.25849 0.03373 0.0
N744 N 0.31569 0.36198 1.00096 0.0
N745 N 0.29682 0.27402 0.02318 0.0
H746 H 0.7425 0.90785 0.27765 0.0
H747 H 0.5776 0.74223 0.24213 0.0
H748 H 0.6844 0.78721 0.29398 0.0
H749 H 0.69749 0.80177 0.22576 0.0
H750 H 0.60669 0.7677 0.26137 0.0
H751 H 0.71684 0.87887 0.25841 0.0
C752 C 0.72449 0.87527 0.27717 0.0
C753 C 0.7158 0.84974 0.28739 0.0
C754 C 0.6266 0.7749 0.25354 0.0
C755 C 0.68549 0.81719 0.26557 0.0
C756 C 0.61003 0.76052 0.24259 0.0
C757 C 0.63533 0.76968 0.23236 0.0
C758 C 0.66799 0.79974 0.25419 0.0
C759 C 0.67713 0.79361 0.23345 0.0
C760 C 0.70999 0.85877 0.26623 0.0
C761 C 0.6922 0.80775 0.2863 0.0
N762 N 0.69191 0.80831 0.24415 0.0
N763 N 0.67736 0.79303 0.2756 0.0
H764 H 0.17408 0.07056 0.48775 0.0
H765 H 0.197 0.25423 0.53877 0.0
H766 H 0.24937 0.19674 0.48234 0.0
H767 H 0.07271 0.1757 0.53348 0.0
H768 H 0.22566 0.2264 0.51976 0.0
H769 H 0.14609 0.10059 0.50653 0.0
C770 C 0.18514 0.10436 0.49058 0.0
C771 C 0.2141 0.13123 0.48349 0.0
C772 C 0.19203 0.21557 0.52277 0.0
C773 C 0.18244 0.16551 0.50495 0.0
C774 C 0.17569 0.23134 0.53358 0.0
C775 C 0.13234 0.21739 0.53766 0.0
C776 C 0.16535 0.18467 0.51617 0.0
C777 C 0.10614 0.18761 0.53061 0.0
C778 C 0.16885 0.12157 0.50123 0.0
C779 C 0.22698 0.17499 0.48753 0.0
N780 N 0.12328 0.17179 0.52027 0.0
N781 N 0.21132 0.1907 0.49805 0.0
H782 H 0.91593 0.67333 0.73686 0.0
H783 H 0.73359 0.69532 0.78823 0.0
H784 H 0.7909 0.74979 0.73204 0.0
H785 H 0.81129 0.57146 0.78285 0.0
H786 H 0.76154 0.72436 0.76926 0.0
H787 H 0.88626 0.64477 0.75567 0.0
C788 C 0.88248 0.68454 0.73983 0.0
C789 C 0.85582 0.714 0.73289 0.0
C790 C 0.77218 0.69074 0.77223 0.0
C791 C 0.82193 0.68166 0.75437 0.0
C792 C 0.75633 0.67417 0.78303 0.0
C793 C 0.76999 0.63083 0.78707 0.0
C794 C 0.80287 0.6643 0.7656 0.0
C795 C 0.79959 0.60487 0.78 0.0
C796 C 0.86547 0.66793 0.75049 0.0
C797 C 0.8125 0.72704 0.73711 0.0
N798 N 0.81549 0.62223 0.76967 0.0
N799 N 0.79699 0.71104 0.74762 0.0
loop_
_geom_bond_atom_site_label_1
_geom_bond_atom_site_label_2
_geom_bond_distance
_geom_bond_site_symmetry_2
_ccdc_geom_bond_type
C0 O2 1.247 . S
C0 O4 1.258 . S
C1 O8 1.247 . S
C1 O9 1.258 . S
O2 C0 1.247 . S
O2 Zn3 2.028 . S
Zn3 O2 2.028 . S
Zn3 O7 2.035 . S
Zn3 O9 2.035 . S
Zn3 O10 2.028 . S
O4 C0 1.258 . S
O4 Zn5 2.035 . S
Zn5 O4 2.035 . S
Zn5 O6 2.028 . S
Zn5 O8 2.028 . S
Zn5 O11 2.035 . S
O6 Zn5 2.028 . S
O6 C12 1.247 . S
O7 Zn3 2.035 . S
O7 C12 1.258 . S
O8 C1 1.247 . S
O8 Zn5 2.028 . S
O9 C1 1.258 . S
O9 Zn3 2.035 . S
O10 Zn3 2.028 . S
O10 C13 1.247 . S
O11 Zn5 2.035 . S
O11 C13 1.258 . S
C12 O6 1.247 . S
C12 O7 1.258 . S
C13 O10 1.247 . S
C13 O11 1.258 . S
C14 O16 1.247 . S
C14 O18 1.258 . S
C15 O22 1.247 . S
C15 O23 1.258 . S
O16 C14 1.247 . S
O16 Zn17 2.028 . S
Zn17 O16 2.028 . S
Zn17 O21 2.035 . S
Zn17 O23 2.035 . S
Zn17 O24 2.028 . S
O18 C14 1.258 . S
O18 Zn19 2.035 . S
Zn19 O18 2.035 . S
Zn19 O20 2.028 . S
Zn19 O22 2.028 . S
Zn19 O25 2.035 . S
O20 Zn19 2.028 . S
O20 C26 1.247 . S
O21 Zn17 2.035 . S
O21 C26 1.258 . S
O22 C15 1.247 . S
O22 Zn19 2.028 . S
O23 C15 1.258 . S
O23 Zn17 2.035 . S
O24 Zn17 2.028 . S
O24 C27 1.247 . S
O25 Zn19 2.035 . S
O25 C27 1.258 . S
C26 O20 1.247 . S
C26 O21 1.258 . S
C27 O24 1.247 . S
C27 O25 1.258 . S
C28 O30 1.247 . S
C28 O32 1.258 . S
C29 O36 1.247 . S
C29 O37 1.258 . S
O30 C28 1.247 . S
O30 Zn31 2.028 . S
Zn31 O30 2.028 . S
Zn31 O35 2.035 . S
Zn31 O37 2.035 . S
Zn31 O38 2.028 . S
O32 C28 1.258 . S
O32 Zn33 2.035 . S
Zn33 O32 2.035 . S
Zn33 O34 2.028 . S
Zn33 O36 2.028 . S
Zn33 O39 2.035 . S
O34 Zn33 2.028 . S
O34 C40 1.247 . S
O35 Zn31 2.035 . S
O35 C40 1.258 . S
O36 C29 1.247 . S
O36 Zn33 2.028 . S
O37 C29 1.258 . S
O37 Zn31 2.035 . S
O38 Zn31 2.028 . S
O38 C41 1.247 . S
O39 Zn33 2.035 . S
O39 C41 1.258 . S
C40 O34 1.247 . S
C40 O35 1.258 . S
C41 O38 1.247 . S
C41 O39 1.258 . S
C42 O44 1.247 . S
C42 O46 1.258 . S
C43 O50 1.247 . S
C43 O51 1.258 . S
O44 C42 1.247 . S
O44 Zn45 2.028 . S
Zn45 O44 2.028 . S
Zn45 O49 2.035 . S
Zn45 O51 2.035 . S
Zn45 O52 2.028 . S
O46 C42 1.258 . S
O46 Zn47 2.035 . S
Zn47 O46 2.035 . S
Zn47 O48 2.028 . S
Zn47 O50 2.028 . S
Zn47 O53 2.035 . S
O48 Zn47 2.028 . S
O48 C54 1.247 . S
O49 Zn45 2.035 . S
O49 C54 1.258 . S
O50 C43 1.247 . S
O50 Zn47 2.028 . S
O51 C43 1.258 . S
O51 Zn45 2.035 . S
O52 Zn45 2.028 . S
O52 C55 1.247 . S
O53 Zn47 2.035 . S
O53 C55 1.258 . S
C54 O48 1.247 . S
C54 O49 1.258 . S
C55 O52 1.247 . S
C55 O53 1.258 . S
C56 O58 1.247 . S
C56 O60 1.258 . S
C57 O64 1.247 . S
C57 O65 1.258 . S
O58 C56 1.247 . S
O58 Zn59 2.028 . S
Zn59 O58 2.028 . S
Zn59 O63 2.035 . S
Zn59 O65 2.035 . S
Zn59 O66 2.028 . S
O60 C56 1.258 . S
O60 Zn61 2.035 . S
Zn61 O60 2.035 . S
Zn61 O62 2.028 . S
Zn61 O64 2.028 . S
Zn61 O67 2.035 . S
O62 Zn61 2.028 . S
O62 C68 1.247 . S
O63 Zn59 2.035 . S
O63 C68 1.258 . S
O64 C57 1.247 . S
O64 Zn61 2.028 . S
O65 C57 1.258 . S
O65 Zn59 2.035 . S
O66 Zn59 2.028 . S
O66 C69 1.247 . S
O67 Zn61 2.035 . S
O67 C69 1.258 . S
C68 O62 1.247 . S
C68 O63 1.258 . S
C69 O66 1.247 . S
C69 O67 1.258 . S
C70 O72 1.247 . S
C70 O74 1.258 . S
C71 O78 1.247 . S
C71 O79 1.258 . S
O72 C70 1.247 . S
O72 Zn73 2.028 . S
Zn73 O72 2.028 . S
Zn73 O77 2.035 . S
Zn73 O79 2.035 . S
Zn73 O80 2.028 . S
O74 C70 1.258 . S
O74 Zn75 2.035 . S
Zn75 O74 2.035 . S
Zn75 O76 2.028 . S
Zn75 O78 2.028 . S
Zn75 O81 2.035 . S
O76 Zn75 2.028 . S
O76 C82 1.247 . S
O77 Zn73 2.035 . S
O77 C82 1.258 . S
O78 C71 1.247 . S
O78 Zn75 2.028 . S
O79 C71 1.258 . S
O79 Zn73 2.035 . S
O80 Zn73 2.028 . S
O80 C83 1.247 . S
O81 Zn75 2.035 . S
O81 C83 1.258 . S
C82 O76 1.247 . S
C82 O77 1.258 . S
C83 O80 1.247 . S
C83 O81 1.258 . S
C84 O86 1.247 . S
C84 O88 1.258 . S
C85 O92 1.247 . S
C85 O93 1.258 . S
O86 C84 1.247 . S
O86 Zn87 2.028 . S
Zn87 O86 2.028 . S
Zn87 O91 2.035 . S
Zn87 O93 2.035 . S
Zn87 O94 2.028 . S
O88 C84 1.258 . S
O88 Zn89 2.035 . S
Zn89 O88 2.035 . S
Zn89 O90 2.028 . S
Zn89 O92 2.028 . S
Zn89 O95 2.035 . S
O90 Zn89 2.028 . S
O90 C96 1.247 . S
O91 Zn87 2.035 . S
O91 C96 1.258 . S
O92 C85 1.247 . S
O92 Zn89 2.028 . S
O93 C85 1.258 . S
O93 Zn87 2.035 . S
O94 Zn87 2.028 . S
O94 C97 1.247 . S
O95 Zn89 2.035 . S
O95 C97 1.258 . S
C96 O90 1.247 . S
C96 O91 1.258 . S
C97 O94 1.247 . S
C97 O95 1.258 . S
C98 O100 1.247 . S
C98 O102 1.258 . S
C99 O106 1.247 . S
C99 O107 1.258 . S
O100 C98 1.247 . S
O100 Zn101 2.028 . S
Zn101 O100 2.028 . S
Zn101 O105 2.035 . S
Zn101 O107 2.035 . S
Zn101 O108 2.028 . S
O102 C98 1.258 . S
O102 Zn103 2.035 . S
Zn103 O102 2.035 . S
Zn103 O104 2.028 . S
Zn103 O106 2.028 . S
Zn103 O109 2.035 . S
O104 Zn103 2.028 . S
O104 C110 1.247 . S
O105 Zn101 2.035 . S
O105 C110 1.258 . S
O106 C99 1.247 . S
O106 Zn103 2.028 . S
O107 C99 1.258 . S
O107 Zn101 2.035 . S
O108 Zn101 2.028 . S
O108 C111 1.247 . S
O109 Zn103 2.035 . S
O109 C111 1.258 . S
C110 O104 1.247 . S
C110 O105 1.258 . S
C111 O108 1.247 . S
C111 O109 1.258 . S
C112 O114 1.247 . S
C112 O116 1.258 . S
C113 O120 1.247 . S
C113 O121 1.258 . S
O114 C112 1.247 . S
O114 Zn115 2.028 . S
Zn115 O114 2.028 . S
Zn115 O119 2.035 . S
Zn115 O121 2.035 . S
Zn115 O122 2.028 . S
O116 C112 1.258 . S
O116 Zn117 2.035 . S
Zn117 O116 2.035 . S
Zn117 O118 2.028 . S
Zn117 O120 2.028 . S
Zn117 O123 2.035 . S
O118 Zn117 2.028 . S
O118 C124 1.247 . S
O119 Zn115 2.035 . S
O119 C124 1.258 . S
O120 C113 1.247 . S
O120 Zn117 2.028 . S
O121 C113 1.258 . S
O121 Zn115 2.035 . S
O122 Zn115 2.028 . S
O122 C125 1.247 . S
O123 Zn117 2.035 . S
O123 C125 1.258 . S
C124 O118 1.247 . S
C124 O119 1.258 . S
C125 O122 1.247 . S
C125 O123 1.258 . S
C126 O128 1.247 . S
C126 O130 1.258 . S
C127 O134 1.247 . S
C127 O135 1.258 . S
O128 C126 1.247 . S
O128 Zn129 2.028 . S
Zn129 O128 2.028 . S
Zn129 O133 2.035 . S
Zn129 O135 2.035 . S
Zn129 O136 2.028 . S
O130 C126 1.258 . S
O130 Zn131 2.035 . S
Zn131 O130 2.035 . S
Zn131 O132 2.028 . S
Zn131 O134 2.028 . S
Zn131 O137 2.035 . S
O132 Zn131 2.028 . S
O132 C138 1.247 . S
O133 Zn129 2.035 . S
O133 C138 1.258 . S
O134 C127 1.247 . S
O134 Zn131 2.028 . S
O135 C127 1.258 . S
O135 Zn129 2.035 . S
O136 Zn129 2.028 . S
O136 C139 1.247 . S
O137 Zn131 2.035 . S
O137 C139 1.258 . S
C138 O132 1.247 . S
C138 O133 1.258 . S
C139 O136 1.247 . S
C139 O137 1.258 . S
C140 O142 1.247 . S
C140 O144 1.258 . S
C141 O148 1.247 . S
C141 O149 1.258 . S
O142 C140 1.247 . S
O142 Zn143 2.028 . S
Zn143 O142 2.028 . S
Zn143 O147 2.035 . S
Zn143 O149 2.035 . S
Zn143 O150 2.028 . S
O144 C140 1.258 . S
O144 Zn145 2.035 . S
Zn145 O144 2.035 . S
Zn145 O146 2.028 . S
Zn145 O148 2.028 . S
Zn145 O151 2.035 . S
O146 Zn145 2.028 . S
O146 C152 1.247 . S
O147 Zn143 2.035 . S
O147 C152 1.258 . S
O148 C141 1.247 . S
O148 Zn145 2.028 . S
O149 C141 1.258 . S
O149 Zn143 2.035 . S
O150 Zn143 2.028 . S
O150 C153 1.247 . S
O151 Zn145 2.035 . S
O151 C153 1.258 . S
C152 O146 1.247 . S
C152 O147 1.258 . S
C153 O150 1.247 . S
C153 O151 1.258 . S
C154 O156 1.247 . S
C154 O158 1.258 . S
C155 O162 1.247 . S
C155 O163 1.258 . S
O156 C154 1.247 . S
O156 Zn157 2.028 . S
Zn157 O156 2.028 . S
Zn157 O161 2.035 . S
Zn157 O163 2.035 . S
Zn157 O164 2.028 . S
O158 C154 1.258 . S
O158 Zn159 2.035 . S
Zn159 O158 2.035 . S
Zn159 O160 2.028 . S
Zn159 O162 2.028 . S
Zn159 O165 2.035 . S
O160 Zn159 2.028 . S
O160 C166 1.247 . S
O161 Zn157 2.035 . S
O161 C166 1.258 . S
O162 C155 1.247 . S
O162 Zn159 2.028 . S
O163 C155 1.258 . S
O163 Zn157 2.035 . S
O164 Zn157 2.028 . S
O164 C167 1.247 . S
O165 Zn159 2.035 . S
O165 C167 1.258 . S
C166 O160 1.247 . S
C166 O161 1.258 . S
C167 O164 1.247 . S
C167 O165 1.258 . S
C168 O170 1.247 . S
C168 O172 1.258 . S
C169 O176 1.247 . S
C169 O177 1.258 . S
O170 C168 1.247 . S
O170 Zn171 2.028 . S
Zn171 O170 2.028 . S
Zn171 O175 2.035 . S
Zn171 O177 2.035 . S
Zn171 O178 2.028 . S
O172 C168 1.258 . S
O172 Zn173 2.035 . S
Zn173 O172 2.035 . S
Zn173 O174 2.028 . S
Zn173 O176 2.028 . S
Zn173 O179 2.035 . S
O174 Zn173 2.028 . S
O174 C180 1.247 . S
O175 Zn171 2.035 . S
O175 C180 1.258 . S
O176 C169 1.247 . S
O176 Zn173 2.028 . S
O177 C169 1.258 . S
O177 Zn171 2.035 . S
O178 Zn171 2.028 . S
O178 C181 1.247 . S
O179 Zn173 2.035 . S
O179 C181 1.258 . S
C180 O174 1.247 . S
C180 O175 1.258 . S
C181 O178 1.247 . S
C181 O179 1.258 . S
C182 O184 1.247 . S
C182 O186 1.258 . S
C183 O190 1.247 . S
C183 O191 1.258 . S
O184 C182 1.247 . S
O184 Zn185 2.028 . S
Zn185 O184 2.028 . S
Zn185 O189 2.035 . S
Zn185 O191 2.035 . S
Zn185 O192 2.028 . S
O186 C182 1.258 . S
O186 Zn187 2.035 . S
Zn187 O186 2.035 . S
Zn187 O188 2.028 . S
Zn187 O190 2.028 . S
Zn187 O193 2.035 . S
O188 Zn187 2.028 . S
O188 C194 1.247 . S
O189 Zn185 2.035 . S
O189 C194 1.258 . S
O190 C183 1.247 . S
O190 Zn187 2.028 . S
O191 C183 1.258 . S
O191 Zn185 2.035 . S
O192 Zn185 2.028 . S
O192 C195 1.247 . S
O193 Zn187 2.035 . S
O193 C195 1.258 . S
C194 O188 1.247 . S
C194 O189 1.258 . S
C195 O192 1.247 . S
C195 O193 1.258 . S
C196 O198 1.247 . S
C196 O200 1.258 . S
C197 O204 1.247 . S
C197 O205 1.258 . S
O198 C196 1.247 . S
O198 Zn199 2.028 . S
Zn199 O198 2.028 . S
Zn199 O203 2.035 . S
Zn199 O205 2.035 . S
Zn199 O206 2.028 . S
O200 C196 1.258 . S
O200 Zn201 2.035 . S
Zn201 O200 2.035 . S
Zn201 O202 2.028 . S
Zn201 O204 2.028 . S
Zn201 O207 2.035 . S
O202 Zn201 2.028 . S
O202 C208 1.247 . S
O203 Zn199 2.035 . S
O203 C208 1.258 . S
O204 C197 1.247 . S
O204 Zn201 2.028 . S
O205 C197 1.258 . S
O205 Zn199 2.035 . S
O206 Zn199 2.028 . S
O206 C209 1.247 . S
O207 Zn201 2.035 . S
O207 C209 1.258 . S
C208 O202 1.247 . S
C208 O203 1.258 . S
C209 O206 1.247 . S
C209 O207 1.258 . S
C210 O212 1.247 . S
C210 O214 1.258 . S
C211 O218 1.247 . S
C211 O219 1.258 . S
O212 C210 1.247 . S
O212 Zn213 2.028 . S
Zn213 O212 2.028 . S
Zn213 O217 2.035 . S
Zn213 O219 2.035 . S
Zn213 O220 2.028 . S
O214 C210 1.258 . S
O214 Zn215 2.035 . S
Zn215 O214 2.035 . S
Zn215 O216 2.028 . S
Zn215 O218 2.028 . S
Zn215 O221 2.035 . S
O216 Zn215 2.028 . S
O216 C222 1.247 . S
O217 Zn213 2.035 . S
O217 C222 1.258 . S
O218 C211 1.247 . S
O218 Zn215 2.028 . S
O219 C211 1.258 . S
O219 Zn213 2.035 . S
O220 Zn213 2.028 . S
O220 C223 1.247 . S
O221 Zn215 2.035 . S
O221 C223 1.258 . S
C222 O216 1.247 . S
C222 O217 1.258 . S
C223 O220 1.247 . S
C223 O221 1.258 . S
H224 C230 0.930 . S
H225 C234 0.930 . S
H226 C239 0.929 . S
H227 C237 0.929 . S
H228 C232 0.930 1_565 S
H229 C238 0.930 1_545 S
C230 H224 0.930 . S
C230 C231 1.367 . S
C230 C238 1.377 . S
C231 C230 1.367 . S
C231 C239 1.433 . S
C232 H228 0.930 1_545 S
C232 C234 1.377 . S
C232 C236 1.349 . S
C233 C236 1.463 1_665 S
C233 C238 1.349 . S
C233 N241 1.427 . S
C234 H225 0.930 . S
C234 C232 1.377 . S
C234 C235 1.367 . S
C235 C234 1.367 . S
C235 C237 1.433 . S
C236 C232 1.349 . S
C236 C233 1.463 1_445 S
C236 N240 1.427 . S
C237 H227 0.929 . S
C237 C235 1.433 . S
C237 N240 1.384 . S
C238 H229 0.930 1_565 S
C238 C230 1.377 . S
C238 C233 1.349 . S
C239 H226 0.929 . S
C239 C231 1.433 . S
C239 N241 1.384 . S
N240 C236 1.427 . S
N240 C237 1.384 . S
N241 C233 1.427 . S
N241 C239 1.384 . S
H242 C248 0.930 . S
H243 C252 0.930 . S
H244 C257 0.929 . S
H245 C255 0.929 . S
H246 C250 0.929 . S
H247 C256 0.929 . S
C248 H242 0.930 . S
C248 C249 1.367 . S
C248 C256 1.378 . S
C249 C248 1.367 . S
C249 C257 1.433 . S
C250 H246 0.929 . S
C250 C252 1.378 . S
C250 C254 1.350 . S
C251 C254 1.463 1_655 S
C251 C256 1.350 . S
C251 N259 1.427 1_655 S
C252 H243 0.930 . S
C252 C250 1.378 . S
C252 C253 1.367 . S
C253 C252 1.367 . S
C253 C255 1.433 . S
C254 C250 1.350 . S
C254 C251 1.463 1_455 S
C254 N258 1.427 1_455 S
C255 H245 0.929 . S
C255 C253 1.433 . S
C255 N258 1.384 1_455 S
C256 H247 0.929 . S
C256 C248 1.378 . S
C256 C251 1.350 . S
C257 H244 0.929 . S
C257 C249 1.433 . S
C257 N259 1.384 1_655 S
N258 C254 1.427 1_655 S
N258 C255 1.384 1_655 S
N259 C251 1.427 1_455 S
N259 C257 1.384 1_455 S
H260 C266 0.930 . S
H261 C270 0.930 . S
H262 C275 0.929 . S
H263 C273 0.929 . S
H264 C268 0.929 . S
H265 C274 0.929 . S
C266 H260 0.930 . S
C266 C267 1.367 . S
C266 C274 1.378 . S
C267 C266 1.367 . S
C267 C275 1.433 . S
C268 H264 0.929 . S
C268 C270 1.378 . S
C268 C272 1.350 . S
C269 C272 1.463 . S
C269 C274 1.350 . S
C269 N277 1.427 . S
C270 H261 0.930 . S
C270 C268 1.378 . S
C270 C271 1.367 . S
C271 C270 1.367 . S
C271 C273 1.433 . S
C272 C268 1.350 . S
C272 C269 1.463 . S
C272 N276 1.427 . S
C273 H263 0.929 . S
C273 C271 1.433 . S
C273 N276 1.384 . S
C274 H265 0.929 . S
C274 C266 1.378 . S
C274 C269 1.350 . S
C275 H262 0.929 . S
C275 C267 1.433 . S
C275 N277 1.384 . S
N276 C272 1.427 . S
N276 C273 1.384 . S
N277 C269 1.427 . S
N277 C275 1.384 . S
H278 C284 0.930 . S
H279 C288 0.930 . S
H280 C293 0.929 . S
H281 C291 0.929 . S
H282 C286 0.929 . S
H283 C292 0.929 . S
C284 H278 0.930 . S
C284 C285 1.367 . S
C284 C292 1.378 . S
C285 C284 1.367 . S
C285 C293 1.433 . S
C286 H282 0.929 . S
C286 C288 1.378 . S
C286 C290 1.350 . S
C287 C290 1.463 1_545 S
C287 C292 1.350 . S
C287 N295 1.427 . S
C288 H279 0.930 . S
C288 C286 1.378 . S
C288 C289 1.367 . S
C289 C288 1.367 . S
C289 C291 1.433 . S
C290 C286 1.350 . S
C290 C287 1.463 1_565 S
C290 N294 1.427 . S
C291 H281 0.929 . S
C291 C289 1.433 . S
C291 N294 1.384 . S
C292 H283 0.929 . S
C292 C284 1.378 . S
C292 C287 1.350 . S
C293 H280 0.929 . S
C293 C285 1.433 . S
C293 N295 1.384 . S
N294 C290 1.427 . S
N294 C291 1.384 . S
N295 C287 1.427 . S
N295 C293 1.384 . S
H296 C302 0.930 . S
H297 C306 0.930 . S
H298 C311 0.929 . S
H299 C309 0.929 . S
H300 C304 0.929 1_455 S
H301 C310 0.929 1_655 S
C302 H296 0.930 . S
C302 C303 1.367 . S
C302 C310 1.378 . S
C303 C302 1.367 . S
C303 C311 1.433 . S
C304 H300 0.929 1_655 S
C304 C306 1.378 . S
C304 C308 1.350 . S
C305 C308 1.463 1_455 S
C305 C310 1.350 . S
C305 N313 1.427 . S
C306 H297 0.930 . S
C306 C304 1.378 . S
C306 C307 1.367 . S
C307 C306 1.367 . S
C307 C309 1.433 . S
C308 C304 1.350 . S
C308 C305 1.463 1_655 S
C308 N312 1.427 . S
C309 H299 0.929 . S
C309 C307 1.433 . S
C309 N312 1.384 . S
C310 H301 0.929 1_455 S
C310 C302 1.378 . S
C310 C305 1.350 . S
C311 H298 0.929 . S
C311 C303 1.433 . S
C311 N313 1.384 . S
N312 C308 1.427 . S
N312 C309 1.384 . S
N313 C305 1.427 . S
N313 C311 1.384 . S
H314 C320 0.930 . S
H315 C324 0.930 . S
H316 C329 0.929 . S
H317 C327 0.929 . S
H318 C322 0.929 . S
H319 C328 0.929 . S
C320 H314 0.930 . S
C320 C321 1.367 . S
C320 C328 1.378 . S
C321 C320 1.367 . S
C321 C329 1.433 . S
C322 H318 0.929 . S
C322 C324 1.378 . S
C322 C326 1.350 . S
C323 C326 1.463 . S
C323 C328 1.350 . S
C323 N331 1.427 . S
C324 H315 0.930 . S
C324 C322 1.378 . S
C324 C325 1.367 . S
C325 C324 1.367 . S
C325 C327 1.433 . S
C326 C322 1.350 . S
C326 C323 1.463 . S
C326 N330 1.427 . S
C327 H317 0.929 . S
C327 C325 1.433 . S
C327 N330 1.384 . S
C328 H319 0.929 . S
C328 C320 1.378 . S
C328 C323 1.350 . S
C329 H316 0.929 . S
C329 C321 1.433 . S
C329 N331 1.384 . S
N330 C326 1.427 . S
N330 C327 1.384 . S
N331 C323 1.427 . S
N331 C329 1.384 . S
H332 C338 0.930 . S
H333 C342 0.930 . S
H334 C347 0.929 . S
H335 C345 0.929 . S
H336 C340 0.929 . S
H337 C346 0.929 . S
C338 H332 0.930 . S
C338 C339 1.367 . S
C338 C346 1.378 . S
C339 C338 1.367 . S
C339 C347 1.433 . S
C340 H336 0.929 . S
C340 C342 1.378 . S
C340 C344 1.350 . S
C341 C344 1.463 1_545 S
C341 C346 1.350 . S
C341 N349 1.427 1_545 S
C342 H333 0.930 . S
C342 C340 1.378 . S
C342 C343 1.367 . S
C343 C342 1.367 . S
C343 C345 1.433 . S
C344 C340 1.350 . S
C344 C341 1.463 1_565 S
C344 N348 1.427 1_565 S
C345 H335 0.929 . S
C345 C343 1.433 . S
C345 N348 1.384 1_565 S
C346 H337 0.929 . S
C346 C338 1.378 . S
C346 C341 1.350 . S
C347 H334 0.929 . S
C347 C339 1.433 . S
C347 N349 1.384 1_545 S
N348 C344 1.427 1_545 S
N348 C345 1.384 1_545 S
N349 C341 1.427 1_565 S
N349 C347 1.384 1_565 S
H350 C356 0.930 . S
H351 C360 0.930 . S
H352 C365 0.929 . S
H353 C363 0.929 . S
H354 C358 0.929 1_455 S
H355 C364 0.929 1_655 S
C356 H350 0.930 . S
C356 C357 1.367 . S
C356 C364 1.378 . S
C357 C356 1.367 . S
C357 C365 1.433 . S
C358 H354 0.929 1_655 S
C358 C360 1.378 . S
C358 C362 1.350 . S
C359 C362 1.463 1_445 S
C359 C364 1.350 . S
C359 N367 1.427 . S
C360 H351 0.930 . S
C360 C358 1.378 . S
C360 C361 1.367 . S
C361 C360 1.367 . S
C361 C363 1.433 . S
C362 C358 1.350 . S
C362 C359 1.463 1_665 S
C362 N366 1.427 . S
C363 H353 0.929 . S
C363 C361 1.433 . S
C363 N366 1.384 . S
C364 H355 0.929 1_455 S
C364 C356 1.378 . S
C364 C359 1.350 . S
C365 H352 0.929 . S
C365 C357 1.433 . S
C365 N367 1.384 . S
N366 C362 1.427 . S
N366 C363 1.384 . S
N367 C359 1.427 . S
N367 C365 1.384 . S
H368 C374 0.930 . S
H369 C378 0.930 . S
H370 C383 0.929 . S
H371 C381 0.929 . S
H372 C376 0.929 . S
H373 C382 0.929 . S
C374 H368 0.930 . S
C374 C375 1.367 . S
C374 C382 1.378 . S
C375 C374 1.367 . S
C375 C383 1.433 . S
C376 H372 0.929 . S
C376 C378 1.378 . S
C376 C380 1.350 . S
C377 C380 1.463 1_565 S
C377 C382 1.350 . S
C377 N385 1.427 . S
C378 H369 0.930 . S
C378 C376 1.378 . S
C378 C379 1.367 . S
C379 C378 1.367 . S
C379 C381 1.433 . S
C380 C376 1.350 . S
C380 C377 1.463 1_545 S
C380 N384 1.427 . S
C381 H371 0.929 . S
C381 C379 1.433 . S
C381 N384 1.384 . S
C382 H373 0.929 . S
C382 C374 1.378 . S
C382 C377 1.350 . S
C383 H370 0.929 . S
C383 C375 1.433 . S
C383 N385 1.384 . S
N384 C380 1.427 . S
N384 C381 1.384 . S
N385 C377 1.427 . S
N385 C383 1.384 . S
H386 C392 0.930 . S
H387 C396 0.930 . S
H388 C401 0.929 . S
H389 C399 0.929 . S
H390 C394 0.929 1_565 S
H391 C400 0.929 1_545 S
C392 H386 0.930 . S
C392 C393 1.367 . S
C392 C400 1.378 . S
C393 C392 1.367 . S
C393 C401 1.433 . S
C394 H390 0.929 1_545 S
C394 C396 1.378 . S
C394 C398 1.350 . S
C395 C398 1.463 1_665 S
C395 C400 1.350 . S
C395 N403 1.427 1_655 S
C396 H387 0.930 . S
C396 C394 1.378 . S
C396 C397 1.367 . S
C397 C396 1.367 . S
C397 C399 1.433 . S
C398 C394 1.350 . S
C398 C395 1.463 1_445 S
C398 N402 1.427 1_455 S
C399 H389 0.929 . S
C399 C397 1.433 . S
C399 N402 1.384 1_455 S
C400 H391 0.929 1_565 S
C400 C392 1.378 . S
C400 C395 1.350 . S
C401 H388 0.929 . S
C401 C393 1.433 . S
C401 N403 1.384 1_655 S
N402 C398 1.427 1_655 S
N402 C399 1.384 1_655 S
N403 C395 1.427 1_455 S
N403 C401 1.384 1_455 S
H404 C410 0.930 . S
H405 C414 0.930 . S
H406 C419 0.929 . S
H407 C417 0.929 . S
H408 C412 0.929 . S
H409 C418 0.929 . S
C410 H404 0.930 . S
C410 C411 1.367 . S
C410 C418 1.378 . S
C411 C410 1.367 . S
C411 C419 1.433 . S
C412 H408 0.929 . S
C412 C414 1.378 . S
C412 C416 1.350 . S
C413 C416 1.463 1_455 S
C413 C418 1.350 . S
C413 N421 1.427 . S
C414 H405 0.930 . S
C414 C412 1.378 . S
C414 C415 1.367 . S
C415 C414 1.367 . S
C415 C417 1.433 . S
C416 C412 1.350 . S
C416 C413 1.463 1_655 S
C416 N420 1.427 . S
C417 H407 0.929 . S
C417 C415 1.433 . S
C417 N420 1.384 . S
C418 H409 0.929 . S
C418 C410 1.378 . S
C418 C413 1.350 . S
C419 H406 0.929 . S
C419 C411 1.433 . S
C419 N421 1.384 . S
N420 C416 1.427 . S
N420 C417 1.384 . S
N421 C413 1.427 . S
N421 C419 1.384 . S
H422 C428 0.930 . S
H423 C432 0.930 . S
H424 C437 0.929 . S
H425 C435 0.929 . S
H426 C430 0.929 . S
H427 C436 0.929 . S
C428 H422 0.930 . S
C428 C429 1.367 . S
C428 C436 1.378 . S
C429 C428 1.367 . S
C429 C437 1.433 . S
C430 H426 0.929 . S
C430 C432 1.378 . S
C430 C434 1.350 . S
C431 C434 1.463 . S
C431 C436 1.350 . S
C431 N439 1.427 . S
C432 H423 0.930 . S
C432 C430 1.378 . S
C432 C433 1.367 . S
C433 C432 1.367 . S
C433 C435 1.433 . S
C434 C430 1.350 . S
C434 C431 1.463 . S
C434 N438 1.427 . S
C435 H425 0.929 . S
C435 C433 1.433 . S
C435 N438 1.384 . S
C436 H427 0.929 . S
C436 C428 1.378 . S
C436 C431 1.350 . S
C437 H424 0.929 . S
C437 C429 1.433 . S
C437 N439 1.384 . S
N438 C434 1.427 . S
N438 C435 1.384 . S
N439 C431 1.427 . S
N439 C437 1.384 . S
H440 C446 0.930 . S
H441 C450 0.930 . S
H442 C455 0.929 . S
H443 C453 0.929 . S
H444 C448 0.929 . S
H445 C454 0.929 . S
C446 H440 0.930 . S
C446 C447 1.367 . S
C446 C454 1.378 . S
C447 C446 1.367 . S
C447 C455 1.433 . S
C448 H444 0.929 . S
C448 C450 1.378 . S
C448 C452 1.350 . S
C449 C452 1.463 . S
C449 C454 1.350 . S
C449 N457 1.427 . S
C450 H441 0.930 . S
C450 C448 1.378 . S
C450 C451 1.367 . S
C451 C450 1.367 . S
C451 C453 1.433 . S
C452 C448 1.350 . S
C452 C449 1.463 . S
C452 N456 1.427 . S
C453 H443 0.929 . S
C453 C451 1.433 . S
C453 N456 1.384 . S
C454 H445 0.929 . S
C454 C446 1.378 . S
C454 C449 1.350 . S
C455 H442 0.929 . S
C455 C447 1.433 . S
C455 N457 1.384 . S
N456 C452 1.427 . S
N456 C453 1.384 . S
N457 C449 1.427 . S
N457 C455 1.384 . S
H458 C464 0.930 . S
H459 C468 0.930 . S
H460 C473 0.929 . S
H461 C471 0.929 . S
H462 C466 0.929 . S
H463 C472 0.929 . S
C464 H458 0.930 . S
C464 C465 1.367 . S
C464 C472 1.378 . S
C465 C464 1.367 . S
C465 C473 1.433 . S
C466 H462 0.929 . S
C466 C468 1.378 . S
C466 C470 1.350 . S
C467 C470 1.463 1_565 S
C467 C472 1.350 . S
C467 N475 1.427 . S
C468 H459 0.930 . S
C468 C466 1.378 . S
C468 C469 1.367 . S
C469 C468 1.367 . S
C469 C471 1.433 . S
C470 C466 1.350 . S
C470 C467 1.463 1_545 S
C470 N474 1.427 . S
C471 H461 0.929 . S
C471 C469 1.433 . S
C471 N474 1.384 . S
C472 H463 0.929 . S
C472 C464 1.378 . S
C472 C467 1.350 . S
C473 H460 0.929 . S
C473 C465 1.433 . S
C473 N475 1.384 . S
N474 C470 1.427 . S
N474 C471 1.384 . S
N475 C467 1.427 . S
N475 C473 1.384 . S
H476 C482 0.930 . S
H477 C486 0.930 . S
H478 C491 0.929 . S
H479 C489 0.929 . S
H480 C484 0.929 1_655 S
H481 C490 0.929 1_455 S
C482 H476 0.930 . S
C482 C483 1.367 . S
C482 C490 1.378 . S
C483 C482 1.367 . S
C483 C491 1.433 . S
C484 H480 0.929 1_455 S
C484 C486 1.378 . S
C484 C488 1.350 . S
C485 C488 1.463 1_665 S
C485 C490 1.350 . S
C485 N493 1.427 1_565 S
C486 H477 0.930 . S
C486 C484 1.378 . S
C486 C487 1.367 . S
C487 C486 1.367 . S
C487 C489 1.433 . S
C488 C484 1.350 . S
C488 C485 1.463 1_445 S
C488 N492 1.427 1_545 S
C489 H479 0.929 . S
C489 C487 1.433 . S
C489 N492 1.384 1_545 S
C490 H481 0.929 1_655 S
C490 C482 1.378 . S
C490 C485 1.350 . S
C491 H478 0.929 . S
C491 C483 1.433 . S
C491 N493 1.384 1_565 S
N492 C488 1.427 1_565 S
N492 C489 1.384 1_565 S
N493 C485 1.427 1_545 S
N493 C491 1.384 1_545 S
H494 C500 0.930 . S
H495 C504 0.930 . S
H496 C509 0.929 . S
H497 C507 0.929 . S
H498 C502 0.929 . S
H499 C508 0.929 . S
C500 H494 0.930 . S
C500 C501 1.367 . S
C500 C508 1.378 . S
C501 C500 1.367 . S
C501 C509 1.433 . S
C502 H498 0.929 . S
C502 C504 1.378 . S
C502 C506 1.350 . S
C503 C506 1.463 1_455 S
C503 C508 1.350 . S
C503 N511 1.425 1_455 S
C504 H495 0.930 . S
C504 C502 1.378 . S
C504 C505 1.367 . S
C505 C504 1.367 . S
C505 C507 1.433 . S
C506 C502 1.350 . S
C506 C503 1.463 1_655 S
C506 N510 1.425 1_655 S
C507 H497 0.929 . S
C507 C505 1.433 . S
C507 N510 1.380 1_655 S
C508 H499 0.929 . S
C508 C500 1.378 . S
C508 C503 1.350 . S
C509 H496 0.929 . S
C509 C501 1.433 . S
C509 N511 1.380 1_455 S
N510 C506 1.425 1_455 S
N510 C507 1.380 1_455 S
N511 C503 1.425 1_655 S
N511 C509 1.380 1_655 S
H512 C518 0.930 . S
H513 C522 0.930 . S
H514 C527 0.929 . S
H515 C525 0.929 . S
H516 C520 0.929 . S
H517 C526 0.929 . S
C518 H512 0.930 . S
C518 C519 1.367 . S
C518 C526 1.378 . S
C519 C518 1.367 . S
C519 C527 1.433 . S
C520 H516 0.929 . S
C520 C522 1.378 . S
C520 C524 1.350 . S
C521 C524 1.463 . S
C521 C526 1.350 . S
C521 N529 1.427 . S
C522 H513 0.930 . S
C522 C520 1.378 . S
C522 C523 1.367 . S
C523 C522 1.367 . S
C523 C525 1.433 . S
C524 C520 1.350 . S
C524 C521 1.463 . S
C524 N528 1.427 . S
C525 H515 0.929 . S
C525 C523 1.433 . S
C525 N528 1.384 . S
C526 H517 0.929 . S
C526 C518 1.378 . S
C526 C521 1.350 . S
C527 H514 0.929 . S
C527 C519 1.433 . S
C527 N529 1.384 . S
N528 C524 1.427 . S
N528 C525 1.384 . S
N529 C521 1.427 . S
N529 C527 1.384 . S
H530 C536 0.930 . S
H531 C540 0.930 . S
H532 C545 0.929 . S
H533 C543 0.929 . S
H534 C538 0.929 . S
H535 C544 0.929 . S
C536 H530 0.930 . S
C536 C537 1.367 . S
C536 C544 1.378 . S
C537 C536 1.367 . S
C537 C545 1.433 . S
C538 H534 0.929 . S
C538 C540 1.378 . S
C538 C542 1.350 . S
C539 C542 1.463 . S
C539 C544 1.350 . S
C539 N547 1.427 . S
C540 H531 0.930 . S
C540 C538 1.378 . S
C540 C541 1.367 . S
C541 C540 1.367 . S
C541 C543 1.433 . S
C542 C538 1.350 . S
C542 C539 1.463 . S
C542 N546 1.427 . S
C543 H533 0.929 . S
C543 C541 1.433 . S
C543 N546 1.384 . S
C544 H535 0.929 . S
C544 C536 1.378 . S
C544 C539 1.350 . S
C545 H532 0.929 . S
C545 C537 1.433 . S
C545 N547 1.384 . S
N546 C542 1.427 . S
N546 C543 1.384 . S
N547 C539 1.427 . S
N547 C545 1.384 . S
H548 C554 0.930 . S
H549 C558 0.930 . S
H550 C563 0.929 . S
H551 C561 0.929 . S
H552 C556 0.929 . S
H553 C562 0.929 . S
C554 H548 0.930 . S
C554 C555 1.367 . S
C554 C562 1.378 . S
C555 C554 1.367 . S
C555 C563 1.433 . S
C556 H552 0.929 . S
C556 C558 1.378 . S
C556 C560 1.350 . S
C557 C560 1.463 . S
C557 C562 1.350 . S
C557 N565 1.427 . S
C558 H549 0.930 . S
C558 C556 1.378 . S
C558 C559 1.367 . S
C559 C558 1.367 . S
C559 C561 1.433 . S
C560 C556 1.350 . S
C560 C557 1.463 . S
C560 N564 1.427 . S
C561 H551 0.929 . S
C561 C559 1.433 . S
C561 N564 1.384 . S
C562 H553 0.929 . S
C562 C554 1.378 . S
C562 C557 1.350 . S
C563 H550 0.929 . S
C563 C555 1.433 . S
C563 N565 1.384 . S
N564 C560 1.427 . S
N564 C561 1.384 . S
N565 C557 1.427 . S
N565 C563 1.384 . S
H566 C572 0.930 . S
H567 C576 0.930 . S
H568 C581 0.929 . S
H569 C579 0.929 . S
H570 C574 0.929 . S
H571 C580 0.929 . S
C572 H566 0.930 . S
C572 C573 1.367 . S
C572 C580 1.378 . S
C573 C572 1.367 . S
C573 C581 1.433 . S
C574 H570 0.929 . S
C574 C576 1.378 . S
C574 C578 1.350 . S
C575 C578 1.463 . S
C575 C580 1.350 . S
C575 N583 1.427 . S
C576 H567 0.930 . S
C576 C574 1.378 . S
C576 C577 1.367 . S
C577 C576 1.367 . S
C577 C579 1.433 . S
C578 C574 1.350 . S
C578 C575 1.463 . S
C578 N582 1.427 . S
C579 H569 0.929 . S
C579 C577 1.433 . S
C579 N582 1.384 . S
C580 H571 0.929 . S
C580 C572 1.378 . S
C580 C575 1.350 . S
C581 H568 0.929 . S
C581 C573 1.433 . S
C581 N583 1.384 . S
N582 C578 1.427 . S
N582 C579 1.384 . S
N583 C575 1.427 . S
N583 C581 1.384 . S
H584 C590 0.930 . S
H585 C594 0.930 . S
H586 C599 0.929 . S
H587 C597 0.929 . S
H588 C592 0.929 . S
H589 C598 0.929 . S
C590 H584 0.930 . S
C590 C591 1.367 . S
C590 C598 1.378 . S
C591 C590 1.367 . S
C591 C599 1.433 . S
C592 H588 0.929 . S
C592 C594 1.378 . S
C592 C596 1.350 . S
C593 C596 1.463 . S
C593 C598 1.350 . S
C593 N601 1.427 . S
C594 H585 0.930 . S
C594 C592 1.378 . S
C594 C595 1.367 . S
C595 C594 1.367 . S
C595 C597 1.433 . S
C596 C592 1.350 . S
C596 C593 1.463 . S
C596 N600 1.427 . S
C597 H587 0.929 . S
C597 C595 1.433 . S
C597 N600 1.384 . S
C598 H589 0.929 . S
C598 C590 1.378 . S
C598 C593 1.350 . S
C599 H586 0.929 . S
C599 C591 1.433 . S
C599 N601 1.384 . S
N600 C596 1.427 . S
N600 C597 1.384 . S
N601 C593 1.427 . S
N601 C599 1.384 . S
H602 C608 0.930 . S
H603 C612 0.930 . S
H604 C617 0.929 . S
H605 C615 0.929 . S
H606 C610 0.929 . S
H607 C616 0.929 . S
C608 H602 0.930 . S
C608 C609 1.367 . S
C608 C616 1.378 . S
C609 C608 1.367 . S
C609 C617 1.433 . S
C610 H606 0.929 . S
C610 C612 1.378 . S
C610 C614 1.350 . S
C611 C614 1.463 . S
C611 C616 1.350 . S
C611 N619 1.427 . S
C612 H603 0.930 . S
C612 C610 1.378 . S
C612 C613 1.367 . S
C613 C612 1.367 . S
C613 C615 1.433 . S
C614 C610 1.350 . S
C614 C611 1.463 . S
C614 N618 1.427 . S
C615 H605 0.929 . S
C615 C613 1.433 . S
C615 N618 1.384 . S
C616 H607 0.929 . S
C616 C608 1.378 . S
C616 C611 1.350 . S
C617 H604 0.929 . S
C617 C609 1.433 . S
C617 N619 1.384 . S
N618 C614 1.427 . S
N618 C615 1.384 . S
N619 C611 1.427 . S
N619 C617 1.384 . S
H620 C626 0.930 . S
H621 C630 0.930 . S
H622 C635 0.929 . S
H623 C633 0.929 . S
H624 C628 0.929 . S
H625 C634 0.929 . S
C626 H620 0.930 . S
C626 C627 1.367 . S
C626 C634 1.378 . S
C627 C626 1.367 . S
C627 C635 1.433 . S
C628 H624 0.929 . S
C628 C630 1.378 . S
C628 C632 1.350 . S
C629 C632 1.463 . S
C629 C634 1.350 . S
C629 N637 1.427 . S
C630 H621 0.930 . S
C630 C628 1.378 . S
C630 C631 1.367 . S
C631 C630 1.367 . S
C631 C633 1.433 . S
C632 C628 1.350 . S
C632 C629 1.463 . S
C632 N636 1.427 . S
C633 H623 0.929 . S
C633 C631 1.433 . S
C633 N636 1.384 . S
C634 H625 0.929 . S
C634 C626 1.378 . S
C634 C629 1.350 . S
C635 H622 0.929 . S
C635 C627 1.433 . S
C635 N637 1.384 . S
N636 C632 1.427 . S
N636 C633 1.384 . S
N637 C629 1.427 . S
N637 C635 1.384 . S
H638 C644 0.930 . S
H639 C648 0.930 . S
H640 C653 0.929 . S
H641 C651 0.929 . S
H642 C646 0.929 . S
H643 C652 0.929 . S
C644 H638 0.930 . S
C644 C645 1.367 . S
C644 C652 1.378 . S
C645 C644 1.367 . S
C645 C653 1.433 . S
C646 H642 0.929 . S
C646 C648 1.378 . S
C646 C650 1.350 . S
C647 C650 1.463 . S
C647 C652 1.350 . S
C647 N655 1.427 . S
C648 H639 0.930 . S
C648 C646 1.378 . S
C648 C649 1.367 . S
C649 C648 1.367 . S
C649 C651 1.433 . S
C650 C646 1.350 . S
C650 C647 1.463 . S
C650 N654 1.427 . S
C651 H641 0.929 . S
C651 C649 1.433 . S
C651 N654 1.384 . S
C652 H643 0.929 . S
C652 C644 1.378 . S
C652 C647 1.350 . S
C653 H640 0.929 . S
C653 C645 1.433 . S
C653 N655 1.384 . S
N654 C650 1.427 . S
N654 C651 1.384 . S
N655 C647 1.427 . S
N655 C653 1.384 . S
H656 C662 0.930 . S
H657 C666 0.930 . S
H658 C671 0.929 . S
H659 C669 0.929 . S
H660 C664 0.929 . S
H661 C670 0.929 . S
C662 H656 0.930 . S
C662 C663 1.367 . S
C662 C670 1.378 . S
C663 C662 1.367 . S
C663 C671 1.433 . S
C664 H660 0.929 . S
C664 C666 1.378 . S
C664 C668 1.350 . S
C665 C668 1.463 . S
C665 C670 1.350 . S
C665 N673 1.427 . S
C666 H657 0.930 . S
C666 C664 1.378 . S
C666 C667 1.367 . S
C667 C666 1.367 . S
C667 C669 1.433 . S
C668 C664 1.350 . S
C668 C665 1.463 . S
C668 N672 1.427 . S
C669 H659 0.929 . S
C669 C667 1.433 . S
C669 N672 1.384 . S
C670 H661 0.929 . S
C670 C662 1.378 . S
C670 C665 1.350 . S
C671 H658 0.929 . S
C671 C663 1.433 . S
C671 N673 1.384 . S
N672 C668 1.427 . S
N672 C669 1.384 . S
N673 C665 1.427 . S
N673 C671 1.384 . S
H674 C680 0.930 . S
H675 C684 0.930 . S
H676 C689 0.929 . S
H677 C687 0.929 . S
H678 C682 0.929 . S
H679 C688 0.929 . S
C680 H674 0.930 . S
C680 C681 1.367 . S
C680 C688 1.378 . S
C681 C680 1.367 . S
C681 C689 1.433 . S
C682 H678 0.929 . S
C682 C684 1.378 . S
C682 C686 1.350 . S
C683 C686 1.463 . S
C683 C688 1.350 . S
C683 N691 1.427 . S
C684 H675 0.930 . S
C684 C682 1.378 . S
C684 C685 1.367 . S
C685 C684 1.367 . S
C685 C687 1.433 . S
C686 C682 1.350 . S
C686 C683 1.463 . S
C686 N690 1.427 . S
C687 H677 0.929 . S
C687 C685 1.433 . S
C687 N690 1.384 . S
C688 H679 0.929 . S
C688 C680 1.378 . S
C688 C683 1.350 . S
C689 H676 0.929 . S
C689 C681 1.433 . S
C689 N691 1.384 . S
N690 C686 1.427 . S
N690 C687 1.384 . S
N691 C683 1.427 . S
N691 C689 1.384 . S
H692 C698 0.930 . S
H693 C702 0.930 . S
H694 C707 0.929 . S
H695 C705 0.929 . S
H696 C700 0.929 . S
H697 C706 0.929 . S
C698 H692 0.930 . S
C698 C699 1.367 . S
C698 C706 1.378 . S
C699 C698 1.367 . S
C699 C707 1.433 . S
C700 H696 0.929 . S
C700 C702 1.378 . S
C700 C704 1.350 . S
C701 C704 1.463 . S
C701 C706 1.350 . S
C701 N709 1.427 . S
C702 H693 0.930 . S
C702 C700 1.378 . S
C702 C703 1.367 . S
C703 C702 1.367 . S
C703 C705 1.433 . S
C704 C700 1.350 . S
C704 C701 1.463 . S
C704 N708 1.427 . S
C705 H695 0.929 . S
C705 C703 1.433 . S
C705 N708 1.384 . S
C706 H697 0.929 . S
C706 C698 1.378 . S
C706 C701 1.350 . S
C707 H694 0.929 . S
C707 C699 1.433 . S
C707 N709 1.384 . S
N708 C704 1.427 . S
N708 C705 1.384 . S
N709 C701 1.427 . S
N709 C707 1.384 . S
H710 C716 0.930 . S
H711 C720 0.930 . S
H712 C725 0.929 . S
H713 C723 0.929 . S
H714 C718 0.929 . S
H715 C724 0.929 . S
C716 H710 0.930 . S
C716 C717 1.367 . S
C716 C724 1.378 . S
C717 C716 1.367 . S
C717 C725 1.433 . S
C718 H714 0.929 . S
C718 C720 1.378 . S
C718 C722 1.350 . S
C719 C722 1.463 1_556 S
C719 C724 1.350 . S
C719 N727 1.427 . S
C720 H711 0.930 . S
C720 C718 1.378 . S
C720 C721 1.367 . S
C721 C720 1.367 . S
C721 C723 1.433 . S
C722 C718 1.350 . S
C722 C719 1.463 1_554 S
C722 N726 1.427 . S
C723 H713 0.929 . S
C723 C721 1.433 . S
C723 N726 1.384 . S
C724 H715 0.929 . S
C724 C716 1.378 . S
C724 C719 1.350 . S
C725 H712 0.929 . S
C725 C717 1.433 . S
C725 N727 1.384 . S
N726 C722 1.427 . S
N726 C723 1.384 . S
N727 C719 1.427 . S
N727 C725 1.384 . S
H728 C734 0.930 . S
H729 C738 0.930 . S
H730 C743 0.929 . S
H731 C741 0.929 . S
H732 C736 0.929 . S
H733 C742 0.929 . S
C734 H728 0.930 . S
C734 C735 1.367 . S
C734 C742 1.378 . S
C735 C734 1.367 . S
C735 C743 1.433 . S
C736 H732 0.929 . S
C736 C738 1.378 . S
C736 C740 1.350 . S
C737 C740 1.463 1_554 S
C737 C742 1.350 . S
C737 N745 1.427 . S
C738 H729 0.930 . S
C738 C736 1.378 . S
C738 C739 1.367 . S
C739 C738 1.367 . S
C739 C741 1.433 . S
C740 C736 1.350 . S
C740 C737 1.463 1_556 S
C740 N744 1.427 . S
C741 H731 0.929 . S
C741 C739 1.433 . S
C741 N744 1.384 . S
C742 H733 0.929 . S
C742 C734 1.378 . S
C742 C737 1.350 . S
C743 H730 0.929 . S
C743 C735 1.433 . S
C743 N745 1.384 . S
N744 C740 1.427 . S
N744 C741 1.384 . S
N745 C737 1.427 . S
N745 C743 1.384 . S
H746 C752 0.930 . S
H747 C756 0.930 . S
H748 C761 0.929 . S
H749 C759 0.929 . S
H750 C754 0.929 . S
H751 C760 0.929 . S
C752 H746 0.930 . S
C752 C753 1.367 . S
C752 C760 1.378 . S
C753 C752 1.367 . S
C753 C761 1.433 . S
C754 H750 0.929 . S
C754 C756 1.378 . S
C754 C758 1.350 . S
C755 C758 1.463 . S
C755 C760 1.350 . S
C755 N763 1.427 . S
C756 H747 0.930 . S
C756 C754 1.378 . S
C756 C757 1.367 . S
C757 C756 1.367 . S
C757 C759 1.433 . S
C758 C754 1.350 . S
C758 C755 1.463 . S
C758 N762 1.427 . S
C759 H749 0.929 . S
C759 C757 1.433 . S
C759 N762 1.384 . S
C760 H751 0.929 . S
C760 C752 1.378 . S
C760 C755 1.350 . S
C761 H748 0.929 . S
C761 C753 1.433 . S
C761 N763 1.384 . S
N762 C758 1.427 . S
N762 C759 1.384 . S
N763 C755 1.427 . S
N763 C761 1.384 . S
H764 C770 0.930 . S
H765 C774 0.930 . S
H766 C779 0.929 . S
H767 C777 0.929 . S
H768 C772 0.929 . S
H769 C778 0.929 . S
C770 H764 0.930 . S
C770 C771 1.367 . S
C770 C778 1.378 . S
C771 C770 1.367 . S
C771 C779 1.433 . S
C772 H768 0.929 . S
C772 C774 1.378 . S
C772 C776 1.350 . S
C773 C776 1.463 . S
C773 C778 1.350 . S
C773 N781 1.427 . S
C774 H765 0.930 . S
C774 C772 1.378 . S
C774 C775 1.367 . S
C775 C774 1.367 . S
C775 C777 1.433 . S
C776 C772 1.350 . S
C776 C773 1.463 . S
C776 N780 1.427 . S
C777 H767 0.929 . S
C777 C775 1.433 . S
C777 N780 1.384 . S
C778 H769 0.929 . S
C778 C770 1.378 . S
C778 C773 1.350 . S
C779 H766 0.929 . S
C779 C771 1.433 . S
C779 N781 1.384 . S
N780 C776 1.427 . S
N780 C777 1.384 . S
N781 C773 1.427 . S
N781 C779 1.384 . S
H782 C788 0.930 . S
H783 C792 0.930 . S
H784 C797 0.929 . S
H785 C795 0.929 . S
H786 C790 0.929 . S
H787 C796 0.929 . S
C788 H782 0.930 . S
C788 C789 1.367 . S
C788 C796 1.378 . S
C789 C788 1.367 . S
C789 C797 1.433 . S
C790 H786 0.929 . S
C790 C792 1.378 . S
C790 C794 1.350 . S
C791 C794 1.463 . S
C791 C796 1.350 . S
C791 N799 1.427 . S
C792 H783 0.930 . S
C792 C790 1.378 . S
C792 C793 1.367 . S
C793 C792 1.367 . S
C793 C795 1.433 . S
C794 C790 1.350 . S
C794 C791 1.463 . S
C794 N798 1.427 . S
C795 H785 0.929 . S
C795 C793 1.433 . S
C795 N798 1.384 . S
C796 H787 0.929 . S
C796 C788 1.378 . S
C796 C791 1.350 . S
C797 H784 0.929 . S
C797 C789 1.433 . S
C797 N799 1.384 . S
N798 C794 1.427 . S
N798 C795 1.384 . S
N799 C791 1.427 . S
N799 C797 1.384 . S
C231 C141 2.077 . S
C235 C13 2.078 . S
C249 C15 2.086 . S
C253 C167 2.085 . S
C267 C113 2.087 . S
C271 C29 2.087 . S
C285 C139 2.082 . S
C289 C43 2.083 . S
C303 C69 2.086 . S
C307 C197 2.086 . S
C321 C211 2.083 . S
C325 C83 2.081 . S
C339 C96 2.082 . S
C343 C180 2.081 . S
C357 C182 2.075 . S
C361 C98 2.076 . S
C375 C140 1.472 . S
C379 C12 1.470 . S
C393 C14 1.473 . S
C397 C166 1.471 . S
C411 C28 1.461 . S
C415 C112 1.463 . S
C429 C42 1.460 . S
C433 C138 1.461 . S
C447 C68 1.468 . S
C451 C196 1.466 . S
C465 C82 1.463 . S
C469 C210 1.461 . S
C483 C181 1.475 . S
C487 C97 1.476 . S
C501 C183 1.475 . S
C505 C99 1.473 . S
C519 C0 1.642 . S
C523 C85 1.646 . S
C537 C26 1.645 . S
C541 C111 1.643 . S
C555 C40 1.644 . S
C559 C56 1.646 . S
C573 C54 1.646 . S
C577 C70 1.644 . S
C591 C124 1.641 . S
C595 C208 1.644 . S
C609 C222 1.638 . S
C613 C126 1.640 . S
C627 C152 1.642 . S
C631 C169 1.646 . S
C645 C195 1.647 . S
C649 C154 1.643 . S
C663 C1 1.722 . S
C667 C223 1.722 . S
C681 C168 1.722 . S
C685 C27 1.725 . S
C699 C194 1.728 . S
C703 C41 1.729 . S
C717 C209 1.723 . S
C721 C55 1.725 . S
C735 C127 1.727 . S
C739 C57 1.725 . S
C753 C153 1.729 . S
C757 C71 1.729 . S
C771 C84 1.724 . S
C775 C155 1.724 . S
C789 C110 1.723 . S
C793 C125 1.723 . S
