# Generated by pormake.
# Topology rkf, (6)-cn, num edge types: 1
# Building blocks:
#     Node 0, Type 0, BuildingBlock: PAMTOO_clean_sbu_0, # of connection points: 6
#     Node 1, Type 0, BuildingBlock: PAMTOO_clean_sbu_0, # of connection points: 6
#     Node 2, Type 0, BuildingBlock: PAMTOO_clean_sbu_0, # of connection points: 6
#     Node 3, Type 0, BuildingBlock: PAMTOO_clean_sbu_0, # of connection points: 6
#     Node 4, Type 0, BuildingBlock: PAMTOO_clean_sbu_0, # of connection points: 6
#     Node 5, Type 0, BuildingBlock: PAMTOO_clean_sbu_0, # of connection points: 6
#     Edge 6, Type (0, 0), BuildingBlock: KIFKEQ_clean_linker_1, # of connection points: 2
#     Edge 7, Type (0, 0), BuildingBlock: KIFKEQ_clean_linker_1, # of connection points: 2
#     Edge 8, Type (0, 0), BuildingBlock: KIFKEQ_clean_linker_1, # of connection points: 2
#     Edge 9, Type (0, 0), BuildingBlock: KIFKEQ_clean_linker_1, # of connection points: 2
#     Edge 10, Type (0, 0), BuildingBlock: KIFKEQ_clean_linker_1, # of connection points: 2
#     Edge 11, Type (0, 0), BuildingBlock: KIFKEQ_clean_linker_1, # of connection points: 2
#     Edge 12, Type (0, 0), BuildingBlock: KIFKEQ_clean_linker_1, # of connection points: 2
#     Edge 13, Type (0, 0), BuildingBlock: KIFKEQ_clean_linker_1, # of connection points: 2
#     Edge 14, Type (0, 0), BuildingBlock: KIFKEQ_clean_linker_1, # of connection points: 2
#     Edge 15, Type (0, 0), BuildingBlock: KIFKEQ_clean_linker_1, # of connection points: 2
#     Edge 16, Type (0, 0), BuildingBlock: KIFKEQ_clean_linker_1, # of connection points: 2
#     Edge 17, Type (0, 0), BuildingBlock: KIFKEQ_clean_linker_1, # of connection points: 2
#     Edge 18, Type (0, 0), BuildingBlock: KIFKEQ_clean_linker_1, # of connection points: 2
#     Edge 19, Type (0, 0), BuildingBlock: KIFKEQ_clean_linker_1, # of connection points: 2
#     Edge 20, Type (0, 0), BuildingBlock: KIFKEQ_clean_linker_1, # of connection points: 2
#     Edge 21, Type (0, 0), BuildingBlock: KIFKEQ_clean_linker_1, # of connection points: 2
#     Edge 22, Type (0, 0), BuildingBlock: KIFKEQ_clean_linker_1, # of connection points: 2
#     Edge 23, Type (0, 0), BuildingBlock: KIFKEQ_clean_linker_1, # of connection points: 2
# Relax obj value: 0.791
# Max RMSD: 0.267
# Mean RMSD: 0.267
data_MOF--net-rkf--node1-PAMTOO_clean_sbu_0--edge1-KIFKEQ_clean_linker_1
_symmetry_space_group_name_H-M    P1
_symmetry_Int_Tables_number       1
_symmetry_cell_setting            triclinic
loop_
_symmetry_equiv_pos_as_xyz
'x, y, z'
_cell_length_a     26.57653
_cell_length_b     26.508744
_cell_length_c     44.094783
_cell_angle_alpha  89.771079
_cell_angle_beta   90.009604
_cell_angle_gamma 120.9501
loop_
_atom_site_label
_atom_site_type_symbol
_atom_site_fract_x
_atom_site_fract_y
_atom_site_fract_z
_atom_type_partial_charge
Dy0 Dy 0.20126 0.01056 0.18106 0.0
Dy1 Dy 0.25787 0.14388 0.15455 0.0
C2 C 0.121 0.04551 1.14426 0.0
O3 O 0.20223 0.00209 1.1296 0.0
O4 O 0.23363 0.09437 1.11005 0.0
O5 O 0.14405 0.92891 0.20442 0.0
O6 O 0.21731 0.93912 0.1773 0.0
O7 O 0.32987 0.12487 0.15892 0.0
O8 O 0.29106 0.065 0.19951 0.0
O9 O 0.24396 0.14962 0.2051 0.0
O10 O 0.19148 0.05426 0.22266 0.0
O11 O 0.33222 0.22092 1.13511 0.0
O12 O 0.25962 0.22614 0.15425 0.0
C13 C 0.21197 0.03738 1.10617 0.0
O14 O 0.12316 0.01159 0.1653 0.0
O15 O 0.16596 0.09773 1.13726 0.0
C16 C 0.18999 0.87607 0.21929 0.0
C17 C 0.21147 0.81351 0.26408 0.0
C18 C 0.21155 0.86534 0.27139 0.0
C19 C 0.20122 0.89647 0.24917 0.0
C20 C 0.19305 0.82652 0.21145 0.0
C21 C 0.20391 0.79553 0.23363 0.0
C22 C 0.17489 0.90559 0.19597 0.0
C23 C 0.33639 0.10012 0.18298 0.0
C24 C 0.2155 0.11135 0.22713 0.0
C25 C 0.31999 0.29945 1.11781 0.0
C26 C 0.34712 0.39527 1.07919 0.0
C27 C 0.37705 0.36463 1.07628 0.0
C28 C 0.3638 0.31732 1.0955 0.0
C29 C 0.29021 0.33017 1.12072 0.0
C30 C 0.30343 0.37736 1.10155 0.0
C31 C 0.31039 0.25429 1.14048 0.0
H32 H 0.21606 0.88021 0.2946 0.0
H33 H 0.20001 0.93528 0.25555 0.0
H34 H 0.18553 0.81089 0.18827 0.0
H35 H 0.20426 0.75637 0.22713 0.0
H36 H 0.41109 0.37758 1.05933 0.0
H37 H 0.38854 0.29542 1.09316 0.0
H38 H 0.25708 0.31823 1.1381 0.0
H39 H 0.27869 0.39925 1.10397 0.0
Dy40 Dy 0.21371 0.36037 0.49259 0.0
Dy41 Dy 0.17839 0.22794 0.50925 0.0
C42 C 0.08364 0.26096 0.48618 0.0
O43 O 0.16445 0.3388 0.53759 0.0
O44 O 0.18397 0.26922 0.55475 0.0
O45 O 0.20141 0.43441 0.49625 0.0
O46 O 0.27861 0.44465 0.47374 0.0
O47 O 0.27599 0.28225 0.50407 0.0
O48 O 0.28193 0.36383 0.52312 0.0
O49 O 0.16191 0.22482 0.45941 0.0
O50 O 0.2292 0.32103 0.44946 0.0
O51 O 0.17991 0.15055 0.49601 0.0
O52 O 0.14082 0.15176 0.53878 0.0
C53 C 0.1651 0.30568 0.5599 0.0
O54 O 0.12508 0.30831 0.47288 0.0
O55 O 0.09482 0.22857 0.50454 0.0
C56 C 0.23741 0.49985 0.4552 0.0
C57 C 0.19688 0.54387 0.4091 0.0
C58 C 0.21911 0.5072 0.40202 0.0
C59 C 0.23888 0.48515 0.42485 0.0
C60 C 0.21933 0.53979 0.46216 0.0
C61 C 0.19898 0.56152 0.43929 0.0
C62 C 0.24757 0.46878 0.47994 0.0
C63 C 0.30675 0.3336 0.51695 0.0
C64 C 0.19662 0.26578 0.44007 0.0
C65 C 0.1914 0.10058 0.53658 0.0
C66 C 0.25415 0.0556 0.56597 0.0
C67 C 0.27635 0.11655 0.56521 0.0
C68 C 0.24523 0.13889 0.55056 0.0
C69 C 0.16995 0.0401 0.53645 0.0
C70 C 0.20105 0.01771 0.55102 0.0
C71 C 0.15803 0.12351 0.52161 0.0
H72 H 0.21708 0.49172 0.3791 0.0
H73 H 0.25216 0.45407 0.41888 0.0
H74 H 0.21791 0.55164 0.48551 0.0
H75 H 0.18219 0.5897 0.44539 0.0
H76 H 0.31723 0.1468 0.57639 0.0
H77 H 0.26271 0.18592 0.55047 0.0
H78 H 0.12865 0.01008 0.52552 0.0
H79 H 0.18222 0.9705 0.55164 0.0
Dy80 Dy 0.00366 0.34012 0.84026 0.0
Dy81 Dy 0.89517 0.21412 0.821 0.0
C82 C 0.02478 0.23545 0.8341 0.0
O83 O 0.02632 0.32503 0.79286 0.0
O84 O 0.93384 0.25891 0.77581 0.0
O85 O 0.09375 0.41138 0.83937 0.0
O86 O 0.02703 0.42334 0.86059 0.0
O87 O 0.86253 0.27489 0.83195 0.0
O88 O 0.94191 0.35162 0.8113 0.0
O89 O 0.91198 0.2008 0.86921 0.0
O90 O 0.95226 0.29615 0.88412 0.0
O91 O 0.80976 0.14166 0.83358 0.0
O92 O 0.84801 0.14112 0.7904 0.0
C93 C -0.00953 0.29473 0.77048 0.0
O94 O 0.03853 0.28211 0.8503 0.0
O95 O -0.02536 0.20587 0.81945 0.0
C96 C 0.12351 0.4772 0.87995 0.0
C97 C 0.20801 0.52975 0.92594 0.0
C98 C 0.15228 0.4805 0.93229 0.0
C99 C 0.11047 0.4543 0.90946 0.0
C100 C 0.17792 0.52777 0.87373 0.0
C101 C 0.22004 0.55385 0.89656 0.0
C102 C 0.08292 0.44639 0.85497 0.0
C103 C 0.88752 0.32726 0.81986 0.0
C104 C 0.92441 0.23921 0.89091 0.0
C105 C 0.74552 0.09666 0.79287 0.0
C106 C 0.64177 0.05782 0.7596 0.0
C107 C 0.68346 0.1183 0.76184 0.0
C108 C 0.73506 0.1376 0.77838 0.0
C109 C 0.70268 0.03688 0.79229 0.0
C110 C 0.65119 0.01755 0.77582 0.0
C111 C 0.80162 0.11526 0.80769 0.0
H112 H 0.14207 0.46 0.95451 0.0
H113 H 0.06889 0.4149 0.91459 0.0
H114 H 0.18859 0.54584 0.85096 0.0
H115 H 0.26256 0.59163 0.89103 0.0
H116 H 0.67733 0.15038 0.74974 0.0
H117 H 0.76767 0.18414 0.77899 0.0
H118 H 0.7101 0.00487 0.80356 0.0
H119 H 0.62068 0.97063 0.7742 0.0
Dy120 Dy 0.71062 0.96353 0.15737 0.0
Dy121 Dy 0.81652 0.09705 0.17797 0.0
C122 C 0.83775 0.00527 1.14334 0.0
O123 O 0.72024 0.95565 0.20803 0.0
O124 O 0.80873 0.03977 0.21839 0.0
O125 O 0.68097 0.8798 1.13639 0.0
O126 O 0.61881 0.89539 0.16015 0.0
O127 O 0.73282 0.08483 0.19604 0.0
O128 O 0.67449 0.02235 0.15885 0.0
O129 O 0.79594 0.10701 1.12912 0.0
O130 O 0.74442 0.01132 1.11198 0.0
O131 O 0.84888 0.18957 0.17617 0.0
O132 O 0.90149 0.15807 0.19755 0.0
C133 C 0.76469 -0.01272 0.22653 0.0
O134 O 0.79446 0.96594 0.15973 0.0
O135 O 0.85408 0.06077 1.14577 0.0
C136 C 0.58376 0.82926 1.11896 0.0
C137 C 0.51466 0.76243 1.06961 0.0
C138 C 0.56011 0.82143 1.06555 0.0
C139 C 0.5942 0.85453 1.09001 0.0
C140 C 0.5359 0.77229 1.12369 0.0
C141 C 0.50134 0.73914 1.09922 0.0
C142 C 0.62606 0.85911 1.14346 0.0
C143 C 0.68368 0.0592 0.18076 0.0
C144 C 0.77488 0.06882 1.1066 0.0
C145 C 0.91539 0.25017 0.21336 0.0
C146 C 0.95074 0.3466 0.25228 0.0
C147 C 0.89336 0.29752 0.25397 0.0
C148 C 0.87573 0.24965 0.23456 0.0
C149 C -0.02747 0.2987 0.21176 0.0
C150 C -0.00988 0.34644 0.23103 0.0
C151 C 0.89704 0.20368 0.19072 0.0
H152 H 0.57262 0.84094 1.04316 0.0
H153 H 0.63094 0.89861 1.086 0.0
H154 H 0.52706 0.75236 1.14605 0.0
H155 H 0.46621 0.69432 1.10329 0.0
H156 H 0.86207 0.29636 0.27012 0.0
H157 H 0.8311 0.21268 0.23579 0.0
H158 H 0.00349 0.29995 0.19533 0.0
H159 H 0.03502 0.3828 0.22964 0.0
Dy160 Dy 0.70904 0.78766 0.50813 0.0
Dy161 Dy 0.82069 0.77682 0.4909 0.0
C162 C 0.82926 0.90058 0.49703 0.0
O163 O 0.72834 0.82087 0.45957 0.0
O164 O 0.78899 0.78736 0.4443 0.0
O165 O 0.65762 0.82954 0.50721 0.0
O166 O 0.62146 0.74222 0.52673 0.0
O167 O 0.74514 0.69268 0.5089 0.0
O168 O 0.68145 0.7056 0.48258 0.0
O169 O 0.83657 0.80234 0.53978 0.0
O170 O 0.74289 0.77479 0.554 0.0
O171 O 0.84379 0.71553 0.47436 0.0
O172 O 0.91213 0.80044 0.49193 0.0
C173 C 0.75784 0.81242 0.43802 0.0
O174 O 0.78666 0.87498 0.51688 0.0
O175 O 0.84798 0.87054 0.48198 0.0
C176 C 0.58616 0.80175 0.54536 0.0
C177 C 0.53576 0.8365 0.59064 0.0
C178 C 0.58029 0.82459 0.59787 0.0
C179 C 0.6054 0.8075 0.5754 0.0
C180 C 0.54113 0.8125 0.53808 0.0
C181 C 0.51617 0.82994 0.56053 0.0
C182 C 0.6132 0.78589 0.52118 0.0
C183 C 0.69553 0.66972 0.49445 0.0
C184 C 0.79742 0.78962 0.56121 0.0
C185 C 0.94156 0.74315 0.4632 0.0
C186 C 0.01064 0.71163 0.42916 0.0
C187 C 0.01214 0.71104 0.46098 0.0
C188 C -0.02217 0.7267 0.47783 0.0
C189 C 0.94103 0.74557 0.43153 0.0
C190 C -0.02438 0.73029 0.41463 0.0
C191 C 0.89904 0.749 0.4815 0.0
H192 H 0.59728 0.83054 0.62074 0.0
H193 H 0.64044 0.79975 0.58135 0.0
H194 H 0.52584 0.80819 0.51492 0.0
H195 H 0.48202 0.83882 0.55432 0.0
H196 H 0.03845 0.69687 0.47286 0.0
H197 H -0.02205 0.72384 0.50235 0.0
H198 H 0.91286 0.75776 0.41992 0.0
H199 H -0.02528 0.73288 0.39013 0.0
Dy200 Dy 0.03878 0.8076 0.83042 0.0
Dy201 Dy 0.93131 0.8245 0.84991 0.0
C202 C 0.05805 0.9338 0.83126 0.0
O203 O 0.06504 0.85139 0.87663 0.0
O204 O -0.02597 0.82592 0.8948 0.0
O205 O 0.13028 0.83418 0.82708 0.0
O206 O 0.06296 0.74713 0.81275 0.0
O207 O 0.89684 0.72855 0.84364 0.0
O208 O -0.021 0.73348 0.86085 0.0
O209 O 0.94242 0.84483 0.80004 0.0
O210 O -0.01851 0.78846 0.78809 0.0
O211 O 0.84751 0.81304 0.83731 0.0
O212 O 0.88518 0.84957 0.88098 0.0
C213 C 0.0309 0.84846 0.89923 0.0
O214 O 0.0689 0.89872 0.81551 0.0
O215 O 0.01086 0.91424 0.84823 0.0
C216 C 0.15157 0.79463 0.78502 0.0
C217 C 0.2184 0.82615 0.73127 0.0
C218 C 0.15819 0.80695 0.73043 0.0
C219 C 0.12521 0.7916 0.75703 0.0
C220 C 0.21088 0.81114 0.78594 0.0
C221 C 0.24418 0.82694 0.75925 0.0
C222 C 0.11904 0.78604 0.81335 0.0
C223 C 0.92303 0.70245 0.85493 0.0
C224 C 0.9528 0.81498 0.77984 0.0
C225 C 0.7812 0.78851 0.87808 0.0
C226 C 0.6702 0.71596 0.90528 0.0
C227 C 0.67492 0.72671 0.87387 0.0
C228 C 0.72988 0.76279 0.86044 0.0
C229 C 0.77663 0.77675 0.90933 0.0
C230 C 0.72188 0.74109 0.92274 0.0
C231 C 0.83875 0.82847 0.86384 0.0
H232 H 0.13715 0.80716 0.70944 0.0
H233 H 0.07968 0.77974 0.75581 0.0
H234 H 0.23194 0.81394 0.80743 0.0
H235 H 0.29041 0.84159 0.76059 0.0
H236 H 0.63615 0.70801 0.85974 0.0
H237 H 0.73219 0.77125 0.83627 0.0
H238 H 0.81518 0.79602 0.92364 0.0
H239 H 0.72013 0.73531 0.94712 0.0
H240 H 0.80738 0.8929 1.1269 0.0
H241 H 0.90061 0.07264 1.09479 0.0
H242 H 0.85706 0.86803 1.08841 0.0
H243 H 0.94887 0.04661 1.05694 0.0
H244 H 0.02123 0.93898 0.15056 0.0
H245 H 0.9386 0.89385 1.11742 0.0
H246 H 0.02903 0.03851 1.05385 0.0
H247 H 0.11269 0.08403 1.08783 0.0
C248 C 0.8387 0.92713 1.11189 0.0
C249 C 0.85658 -0.01352 1.11652 0.0
C250 C 0.86591 0.91271 1.08921 0.0
C251 C 0.91655 0.95875 1.07523 0.0
C252 C 0.91754 0.01209 1.07178 0.0
C253 C 0.89106 0.02771 1.09409 0.0
C254 C 0.02335 0.96171 1.12969 0.0
C255 C 0.07111 0.01788 1.12323 0.0
C256 C -0.02395 0.93504 1.10999 0.0
C257 C -0.02593 0.96545 1.08406 0.0
C258 C 0.02673 0.01602 1.07481 0.0
C259 C 0.07424 0.04296 1.09464 0.0
H260 H 0.91652 0.97007 0.45741 0.0
H261 H 0.77883 0.96436 0.51228 0.0
H262 H 0.9478 0.06974 0.44231 0.0
H263 H 0.80925 0.06413 0.49647 0.0
H264 H -0.00607 0.23187 0.52443 0.0
H265 H 0.89773 0.14739 0.51568 0.0
H266 H 0.93956 0.15079 0.42068 0.0
H267 H 0.03668 0.23624 0.42981 0.0
C268 C 0.89253 -0.01006 0.46597 0.0
C269 C 0.84714 0.9605 0.4871 0.0
C270 C 0.90936 0.04669 0.45667 0.0
C271 C 0.88104 0.07516 0.46832 0.0
C272 C 0.83213 0.04354 0.48731 0.0
C273 C 0.81562 -0.01311 0.49682 0.0
C274 C -0.019 0.21686 0.50134 0.0
C275 C 0.02264 0.23799 0.47802 0.0
C276 C 0.92554 0.16845 0.49613 0.0
C277 C 0.913 0.14015 0.46786 0.0
C278 C 0.94942 0.17059 0.44299 0.0
C279 C 0.005 0.21948 0.44817 0.0
H280 H 0.12455 0.00389 0.78401 0.0
H281 H 0.08878 0.00552 0.87931 0.0
H282 H 0.16784 0.11065 0.78182 0.0
H283 H 0.13029 0.11041 0.87733 0.0
H284 H 0.11705 0.25733 0.87097 0.0
H285 H 0.17747 0.21249 0.8667 0.0
H286 H 0.09231 0.13363 0.78167 0.0
H287 H 0.03404 0.1788 0.78579 0.0
C288 C 0.12796 0.02747 0.80466 0.0
C289 C 0.10032 -0.00298 0.83136 0.0
C290 C 0.15313 0.08851 0.80354 0.0
C291 C 0.1491 0.11848 0.82891 0.0
C292 C 0.13264 0.08896 0.857 0.0
C293 C 0.10753 0.02836 0.85808 0.0
C294 C 0.11257 0.23141 0.85112 0.0
C295 C 0.06854 0.21818 0.82966 0.0
C296 C 0.14761 0.20642 0.84845 0.0
C297 C 0.13822 0.16751 0.82449 0.0
C298 C 0.10057 0.16246 0.80074 0.0
C299 C 0.06569 0.18709 0.80347 0.0
H300 H 0.3627 0.39729 1.01807 0.0
H301 H 0.35505 0.50041 1.09157 0.0
H302 H 0.35613 0.46219 0.98173 0.0
H303 H 0.34832 0.56602 1.05493 0.0
H304 H 0.32073 0.55571 0.91733 0.0
H305 H 0.38432 0.55336 0.95637 0.0
H306 H 0.2632 0.54208 1.02527 0.0
H307 H 0.20142 0.54719 0.98643 0.0
C308 C 0.3618 0.43516 1.02647 0.0
C309 C 0.35771 0.44279 1.05765 0.0
C310 C 0.35829 0.47278 1.00557 0.0
C311 C 0.35047 0.51873 1.01543 0.0
C312 C 0.35289 0.53015 1.04666 0.0
C313 C 0.35651 0.4925 1.06759 0.0
C314 C 0.3092 0.55568 0.94089 0.0
C315 C 0.25506 0.54946 0.94888 0.0
C316 C 0.34545 0.55386 0.96325 0.0
C317 C 0.32766 0.54516 0.9938 0.0
C318 C 0.27812 0.54819 1.00197 0.0
C319 C 0.24217 0.55041 0.97966 0.0
H320 H 0.22434 0.57411 0.34942 0.0
H321 H 0.08993 0.53376 0.41627 0.0
H322 H 0.15259 0.54686 0.30933 0.0
H323 H 0.01838 0.50895 0.37601 0.0
H324 H 0.02067 0.46486 0.24091 0.0
H325 H 0.0749 0.5417 0.27839 0.0
H326 H -0.01754 0.4158 0.3502 0.0
H327 H 0.92886 0.33976 0.31301 0.0
C328 C 0.17998 0.56198 0.35545 0.0
C329 C 0.16219 0.55352 0.38594 0.0
C330 C 0.13872 0.54671 0.33243 0.0
C331 C 0.07915 0.52337 0.3396 0.0
C332 C 0.06364 0.52503 0.36989 0.0
C333 C 0.10489 0.53985 0.39296 0.0
C334 C 0.01106 0.45413 0.26474 0.0
C335 C 0.97173 0.3959 0.27407 0.0
C336 C 0.04184 0.49822 0.28617 0.0
C337 C 0.03387 0.48475 0.31729 0.0
C338 C -0.01044 0.42807 0.32645 0.0
C339 C 0.95885 0.3841 0.30505 0.0
H340 H 0.52775 0.96558 0.76415 0.0
H341 H 0.65022 0.09846 0.70195 0.0
H342 H 0.46718 0.90821 0.72138 0.0
H343 H 0.59079 0.04181 0.65974 0.0
H344 H 0.50564 0.79933 0.64914 0.0
H345 H 0.49993 0.85588 0.69058 0.0
H346 H 0.5095 -0.01522 0.62673 0.0
H347 H 0.51775 0.92894 0.58521 0.0
C348 C 0.54063 0.98355 0.74147 0.0
C349 C 0.59484 0.03544 0.73634 0.0
C350 C 0.50591 0.95076 0.71698 0.0
C351 C 0.52523 0.96927 0.68709 0.0
C352 C 0.57445 0.02576 0.68237 0.0
C353 C 0.60896 0.05852 0.70678 0.0
C354 C 0.50506 0.83899 0.64391 0.0
C355 C 0.5143 0.86082 0.61412 0.0
C356 C 0.5008 0.87113 0.66766 0.0
C357 C 0.50578 0.92585 0.66206 0.0
C358 C 0.50681 0.94345 0.63182 0.0
C359 C 0.51131 0.91131 0.60802 0.0
H360 H 0.48479 0.64694 1.06381 0.0
H361 H 0.48731 0.78871 1.01388 0.0
H362 H 0.48248 0.59951 1.01677 0.0
H363 H 0.49121 0.74489 0.96697 0.0
H364 H 0.57056 0.71911 0.89196 0.0
H365 H 0.48971 0.69391 0.92638 0.0
H366 H 0.56099 0.62067 0.98918 0.0
H367 H 0.63708 0.64007 0.95348 0.0
C368 C 0.48329 0.66748 1.04284 0.0
C369 C 0.48987 0.72363 1.04264 0.0
C370 C 0.48305 0.64059 1.01562 0.0
C371 C 0.49146 0.67023 0.98781 0.0
C372 C 0.48672 0.72085 0.98764 0.0
C373 C 0.48535 0.7469 1.01481 0.0
C374 C 0.56736 0.69519 0.91253 0.0
C375 C 0.61218 0.68451 0.92078 0.0
C376 C 0.52126 0.68148 0.93262 0.0
C377 C 0.52052 0.65904 0.96176 0.0
C378 C 0.55995 0.63946 0.96756 0.0
C379 C 0.60485 0.65161 0.94716 0.0
H380 H 0.12257 0.73497 0.4403 0.0
H381 H -0.02109 0.64708 0.37724 0.0
H382 H 0.18744 0.72711 0.40428 0.0
H383 H 0.04366 0.64351 0.34049 0.0
H384 H 0.14625 0.69271 0.26647 0.0
H385 H 0.11021 0.63578 0.31255 0.0
H386 H 0.23162 0.7888 0.3645 0.0
H387 H 0.27094 0.84383 0.31822 0.0
C388 C 0.10449 0.71295 0.41897 0.0
C389 C 0.04637 0.69454 0.41088 0.0
C390 C 0.14188 0.70881 0.39814 0.0
C391 C 0.12227 0.68804 0.36858 0.0
C392 C 0.06174 0.66129 0.36254 0.0
C393 C 0.02431 0.66443 0.3835 0.0
C394 C 0.16764 0.71344 0.28755 0.0
C395 C 0.20887 0.77409 0.28889 0.0
C396 C 0.14636 0.68066 0.31424 0.0
C397 C 0.16438 0.70859 0.34258 0.0
C398 C 0.21441 0.76564 0.34337 0.0
C399 C 0.23672 0.79796 0.31665 0.0
H400 H 0.32554 0.92764 0.72705 0.0
H401 H 0.19276 0.78635 0.67295 0.0
H402 H 0.36585 -0.01218 0.68163 0.0
H403 H 0.23053 0.84731 0.62797 0.0
H404 H 0.29754 0.08912 0.62293 0.0
H405 H 0.31839 0.03374 0.6591 0.0
H406 H 0.29449 0.90933 0.58921 0.0
H407 H 0.27244 0.96504 0.55282 0.0
C408 C 0.30622 0.90854 0.70534 0.0
C409 C 0.25453 0.85309 0.70367 0.0
C410 C 0.32902 0.94332 0.67929 0.0
C411 C 0.29997 0.92348 0.65133 0.0
C412 C 0.25388 0.86462 0.64907 0.0
C413 C 0.23158 0.82968 0.675 0.0
C414 C 0.29889 0.05126 0.61492 0.0
C415 C 0.28192 0.03065 0.58521 0.0
C416 C 0.31124 0.0194 0.63573 0.0
C417 C 0.307 0.96618 0.62729 0.0
C418 C 0.29676 0.94934 0.59664 0.0
C419 C 0.284 0.98113 0.57582 0.0
H420 H 0.35912 0.0405 0.22588 0.0
H421 H 0.4426 0.17395 0.15619 0.0
H422 H 0.44919 0.03872 0.2321 0.0
H423 H 0.53316 0.1722 0.16287 0.0
H424 H 0.69502 0.1629 0.1994 0.0
H425 H 0.61496 0.18301 0.20632 0.0
H426 H 0.48846 0.00176 0.18561 0.0
H427 H 0.56754 0.98216 0.17794 0.0
C428 C 0.39704 0.07046 0.21238 0.0
C429 C 0.39354 0.1066 0.1901 0.0
C430 C 0.44853 0.0695 0.21609 0.0
C431 C 0.49755 0.10518 0.19789 0.0
C432 C 0.49579 0.14469 0.17729 0.0
C433 C 0.44393 0.14524 0.1733 0.0
C434 C 0.64996 0.12746 0.19675 0.0
C435 C 0.63704 0.07115 0.18799 0.0
C436 C 0.60454 0.13896 0.20062 0.0
C437 C 0.54602 0.09374 0.19665 0.0
C438 C 0.53333 0.03706 0.1891 0.0
C439 C 0.57847 0.026 0.18452 0.0
H440 H 0.37706 0.4128 0.55904 0.0
H441 H 0.38108 0.3242 0.47797 0.0
H442 H 0.48245 0.48163 0.55456 0.0
H443 H 0.48669 0.39425 0.47305 0.0
H444 H 0.61173 0.60393 0.45341 0.0
H445 H 0.52556 0.50642 0.46128 0.0
H446 H 0.58935 0.49767 0.55003 0.0
H447 H 0.67686 0.59514 0.54176 0.0
C448 C 0.40097 0.40695 0.54084 0.0
C449 C 0.37112 0.36367 0.51873 0.0
C450 C 0.46128 0.4461 0.53836 0.0
C451 C 0.49247 0.44333 0.51336 0.0
C452 C 0.46348 0.39711 0.49253 0.0
C453 C 0.40323 0.35703 0.49541 0.0
C454 C 0.60818 0.58037 0.4742 0.0
C455 C 0.65048 0.60695 0.49707 0.0
C456 C 0.55916 0.52444 0.47862 0.0
C457 C 0.55096 0.49464 0.50626 0.0
C458 C 0.59495 0.51977 0.52849 0.0
C459 C 0.64487 0.57533 0.52375 0.0
H460 H 0.83194 0.3364 0.86947 0.0
H461 H 0.89281 0.40727 0.77975 0.0
H462 H 0.82 0.42003 0.88133 0.0
H463 H 0.87906 0.4895 0.79119 0.0
H464 H 0.94731 0.63408 0.89091 0.0
H465 H 0.9144 0.53032 0.88349 0.0
H466 H 0.80313 0.52177 0.80997 0.0
H467 H 0.83478 0.62536 0.81791 0.0
C468 C 0.84004 0.36835 0.85186 0.0
C469 C 0.86322 0.36567 0.8237 0.0
C470 C 0.83355 0.41623 0.8587 0.0
C471 C 0.84868 0.46104 0.83717 0.0
C472 C 0.86648 0.4552 0.80806 0.0
C473 C 0.87442 0.40828 0.80152 0.0
C474 C 0.91438 0.60952 0.87383 0.0
C475 C 0.89386 0.63773 0.85487 0.0
C476 C 0.89529 0.55011 0.86971 0.0
C477 C 0.85631 0.51826 0.84615 0.0
C478 C 0.83302 0.54545 0.82836 0.0
C479 C 0.85108 0.60459 0.83297 0.0
H480 H 0.25242 0.22572 0.24392 0.0
H481 H 0.17159 0.05064 0.28146 0.0
H482 H 0.2478 0.26396 0.29337 0.0
H483 H 0.16856 0.08893 0.33123 0.0
H484 H 0.12152 0.16009 0.41307 0.0
H485 H 0.12547 0.12476 0.36302 0.0
H486 H 0.28214 0.29104 0.34296 0.0
H487 H 0.27683 0.32716 0.39332 0.0
C488 C 0.23378 0.19509 0.26272 0.0
C489 C 0.21216 0.13457 0.25812 0.0
C490 C 0.23151 0.21737 0.29148 0.0
C491 C 0.20768 0.18023 0.31711 0.0
C492 C 0.18631 0.11962 0.31245 0.0
C493 C 0.18834 0.09732 0.28363 0.0
C494 C 0.15694 0.18961 0.39809 0.0
C495 C 0.19892 0.2469 0.40781 0.0
C496 C 0.15955 0.16883 0.36908 0.0
C497 C 0.20458 0.20408 0.34824 0.0
C498 C 0.24622 0.26199 0.35776 0.0
C499 C 0.24336 0.28301 0.38692 0.0
H500 H 0.18387 0.2678 0.61492 0.0
H501 H 0.09027 0.34491 0.57551 0.0
H502 H 0.14224 0.26647 0.66471 0.0
H503 H 0.04765 0.34244 0.62524 0.0
H504 H 0.9341 0.26478 0.71463 0.0
H505 H -0.02377 0.26917 0.66436 0.0
H506 H 0.14635 0.33582 0.70499 0.0
H507 H 0.10474 0.33258 0.75491 0.0
C508 C 0.15453 0.28466 0.61678 0.0
C509 C 0.14107 0.30685 0.59087 0.0
C510 C 0.13062 0.28401 0.64551 0.0
C511 C 0.09119 0.30426 0.64937 0.0
C512 C 0.07737 0.32605 0.6234 0.0
C513 C 0.10232 0.3279 0.59477 0.0
C514 C -0.01943 0.28077 0.71287 0.0
C515 C 0.01576 0.2987 0.73916 0.0
C516 C 0.00491 0.28347 0.68391 0.0
C517 C 0.06502 0.30279 0.68026 0.0
C518 C 0.09996 0.3203 0.70662 0.0
C519 C 0.07597 0.31883 0.7354 0.0
H520 H 0.84576 0.12578 0.90854 0.0
H521 H 0.9536 0.2987 0.94641 0.0
H522 H 0.80814 0.08592 0.95843 0.0
H523 H 0.91814 0.25829 0.99722 0.0
H524 H 0.8147 0.18141 1.08537 0.0
H525 H 0.84958 0.22235 1.03495 0.0
H526 H 0.81487 0.05266 1.00444 0.0
H527 H 0.77719 0.01154 1.05457 0.0
C528 C 0.86229 0.15557 0.92762 0.0
C529 C 0.90331 0.21595 0.92287 0.0
C530 C 0.84071 0.13225 0.95676 0.0
C531 C 0.85957 0.16787 0.98295 0.0
C532 C 0.90101 0.22855 0.97818 0.0
C533 C 0.92208 0.25212 0.94877 0.0
C534 C 0.81368 0.15247 1.0678 0.0
C535 C 0.79199 0.09254 1.07444 0.0
C536 C 0.83467 0.17638 1.03858 0.0
C537 C 0.83596 0.14176 1.01459 0.0
C538 C 0.81404 0.08157 1.0214 0.0
C539 C 0.79218 0.05748 1.05053 0.0
H540 H 0.70752 0.87082 0.24475 0.0
H541 H 0.82272 0.0454 0.27918 0.0
H542 H 0.70791 0.82909 0.29441 0.0
H543 H 0.82165 0.0036 0.32919 0.0
H544 H 0.74497 0.90569 0.42254 0.0
H545 H 0.74876 0.94778 0.37251 0.0
H546 H 0.77784 0.81782 0.33125 0.0
H547 H 0.77578 0.77652 0.38169 0.0
C548 C 0.73285 0.90056 0.26288 0.0
C549 C 0.76504 0.9619 0.2575 0.0
C550 C 0.73332 0.87639 0.2915 0.0
C551 C 0.76477 0.91256 0.31625 0.0
C552 C 0.79657 0.97397 0.31097 0.0
C553 C 0.79735 -0.00191 0.2821 0.0
C554 C 0.75207 0.88573 0.40288 0.0
C555 C 0.75959 0.837 0.40657 0.0
C556 C 0.75469 0.91038 0.37401 0.0
C557 C 0.76351 0.88656 0.34738 0.0
C558 C 0.77058 0.83747 0.35098 0.0
C559 C 0.76955 0.81372 0.38005 0.0
H560 H 0.73891 0.77913 0.61605 0.0
H561 H 0.90217 0.80486 0.58122 0.0
H562 H 0.77446 0.7834 0.66805 0.0
H563 H 0.93743 0.80957 0.63247 0.0
H564 H 0.97035 0.76484 0.72851 0.0
H565 H 0.93083 0.75644 0.67735 0.0
H566 H 0.84199 0.84558 0.70678 0.0
H567 H 0.88099 0.85345 0.75776 0.0
C568 C 0.78226 0.78568 0.61929 0.0
C569 C 0.81719 0.79164 0.59386 0.0
C570 C 0.80304 0.78846 0.64932 0.0
C571 C 0.8593 0.79667 0.65511 0.0
C572 C 0.89372 0.80226 0.62957 0.0
C573 C 0.87331 0.79999 0.59979 0.0
C574 C 0.94248 0.78277 0.72415 0.0
C575 C 0.92955 0.81012 0.74776 0.0
C576 C 0.91975 0.77818 0.69453 0.0
C577 C 0.88267 0.8003 0.68726 0.0
C578 C 0.86948 0.82719 0.71102 0.0
C579 C 0.89255 0.83219 0.74051 0.0
H580 H -0.02318 0.83132 0.95536 0.0
H581 H 0.14715 0.92661 0.91289 0.0
H582 H 0.02113 0.87641 1.00418 0.0
H583 H 0.19121 0.97231 0.96151 0.0
H584 H 0.23791 0.08984 1.04892 0.0
H585 H 0.19526 0.04457 0.99978 0.0
H586 H 0.08808 0.87711 1.04416 0.0
H587 H 0.13121 0.92181 1.09291 0.0
C588 C 0.02375 0.86167 0.95633 0.0
C589 C 0.05806 0.87447 0.92981 0.0
C590 C 0.04938 0.88763 0.98451 0.0
C591 C 0.1102 0.92848 0.98724 0.0
C592 C 0.14435 0.94163 0.96063 0.0
C593 C 0.11893 0.91481 0.9326 0.0
C594 C 0.20581 0.04321 1.04822 0.0
C595 C 0.18916 0.00977 1.07527 0.0
C596 C 0.18117 0.01705 1.01988 0.0
C597 C 0.13777 0.95672 1.01755 0.0
C598 C 0.12088 0.92356 1.04467 0.0
C599 C 0.14634 0.94935 1.07282 0.0
loop_
_geom_bond_atom_site_label_1
_geom_bond_atom_site_label_2
_geom_bond_distance
_geom_bond_site_symmetry_2
_ccdc_geom_bond_type
Dy0 O3 2.307 1_554 S
Dy0 O5 2.395 . S
Dy0 O6 2.379 . S
Dy0 O8 2.339 . S
Dy0 O10 2.298 1_565 S
Dy0 O14 2.275 . S
Dy0 C22 2.738 . S
Dy1 O4 2.324 . S
Dy1 O7 2.261 1_556 S
Dy1 O9 2.263 1_556 S
Dy1 O11 2.430 . S
Dy1 O12 2.417 . S
Dy1 O15 2.333 1_556 S
Dy1 C31 2.779 . S
C2 O14 1.254 1_545 S
C2 O15 1.257 . S
O3 Dy0 2.307 1_556 S
O3 C13 1.266 . S
O4 Dy1 2.324 . S
O4 C13 1.236 1_545 S
O5 Dy0 2.395 . S
O5 C22 1.255 . S
O6 Dy0 2.379 . S
O6 C22 1.249 . S
O7 Dy1 2.261 1_554 S
O7 C23 1.254 . S
O8 Dy0 2.339 . S
O8 C23 1.257 1_565 S
O9 Dy1 2.263 1_554 S
O9 C24 1.266 . S
O10 Dy0 2.298 1_545 S
O10 C24 1.236 . S
O11 Dy1 2.430 . S
O11 C31 1.255 . S
O12 Dy1 2.417 . S
O12 C31 1.249 . S
C13 O3 1.266 . S
C13 O4 1.236 1_565 S
O14 Dy0 2.275 . S
O14 C2 1.254 1_565 S
O15 Dy1 2.333 1_554 S
O15 C2 1.257 . S
C16 C19 1.344 . S
C16 C20 1.328 . S
C16 C22 1.516 . S
C17 C18 1.304 . S
C17 C21 1.323 . S
C18 C17 1.304 . S
C18 C19 1.371 . S
C18 H32 0.930 . S
C19 C16 1.344 . S
C19 C18 1.371 . S
C19 H33 0.931 . S
C20 C16 1.328 . S
C20 C21 1.433 . S
C20 H34 0.931 . S
C21 C17 1.323 . S
C21 C20 1.433 . S
C21 H35 0.933 . S
C22 Dy0 2.738 . S
C22 O5 1.255 . S
C22 O6 1.249 . S
C22 C16 1.516 . S
C23 O7 1.254 . S
C23 O8 1.257 1_545 S
C24 O9 1.266 . S
C24 O10 1.236 . S
C25 C28 1.344 . S
C25 C29 1.328 . S
C25 C31 1.516 . S
C26 C27 1.304 . S
C26 C30 1.323 . S
C27 C26 1.304 . S
C27 C28 1.371 . S
C27 H36 0.930 . S
C28 C25 1.344 . S
C28 C27 1.371 . S
C28 H37 0.931 . S
C29 C25 1.328 . S
C29 C30 1.433 . S
C29 H38 0.931 . S
C30 C26 1.323 . S
C30 C29 1.433 . S
C30 H39 0.933 . S
C31 Dy1 2.779 . S
C31 O11 1.255 . S
C31 O12 1.249 . S
C31 C25 1.516 . S
H32 C18 0.930 . S
H33 C19 0.931 . S
H34 C20 0.931 . S
H35 C21 0.933 . S
H36 C27 0.930 . S
H37 C28 0.931 . S
H38 C29 0.931 . S
H39 C30 0.933 . S
Dy40 O43 2.307 . S
Dy40 O45 2.395 . S
Dy40 O46 2.379 . S
Dy40 O48 2.339 . S
Dy40 O50 2.298 . S
Dy40 O54 2.275 . S
Dy40 C62 2.738 . S
Dy41 O44 2.298 . S
Dy41 O47 2.275 . S
Dy41 O49 2.307 . S
Dy41 O51 2.395 . S
Dy41 O52 2.379 . S
Dy41 O55 2.339 . S
Dy41 C71 2.738 . S
C42 O54 1.254 . S
C42 O55 1.257 . S
O43 Dy40 2.307 . S
O43 C53 1.266 . S
O44 Dy41 2.298 . S
O44 C53 1.236 . S
O45 Dy40 2.395 . S
O45 C62 1.255 . S
O46 Dy40 2.379 . S
O46 C62 1.249 . S
O47 Dy41 2.275 . S
O47 C63 1.254 . S
O48 Dy40 2.339 . S
O48 C63 1.257 . S
O49 Dy41 2.307 . S
O49 C64 1.266 . S
O50 Dy40 2.298 . S
O50 C64 1.236 . S
O51 Dy41 2.395 . S
O51 C71 1.255 . S
O52 Dy41 2.379 . S
O52 C71 1.249 . S
C53 O43 1.266 . S
C53 O44 1.236 . S
O54 Dy40 2.275 . S
O54 C42 1.254 . S
O55 Dy41 2.339 . S
O55 C42 1.257 . S
C56 C59 1.344 . S
C56 C60 1.328 . S
C56 C62 1.516 . S
C57 C58 1.304 . S
C57 C61 1.323 . S
C58 C57 1.304 . S
C58 C59 1.371 . S
C58 H72 0.930 . S
C59 C56 1.344 . S
C59 C58 1.371 . S
C59 H73 0.931 . S
C60 C56 1.328 . S
C60 C61 1.433 . S
C60 H74 0.931 . S
C61 C57 1.323 . S
C61 C60 1.433 . S
C61 H75 0.933 . S
C62 Dy40 2.738 . S
C62 O45 1.255 . S
C62 O46 1.249 . S
C62 C56 1.516 . S
C63 O47 1.254 . S
C63 O48 1.257 . S
C64 O49 1.266 . S
C64 O50 1.236 . S
C65 C68 1.344 . S
C65 C69 1.328 . S
C65 C71 1.516 . S
C66 C67 1.304 . S
C66 C70 1.323 . S
C67 C66 1.304 . S
C67 C68 1.371 . S
C67 H76 0.930 . S
C68 C65 1.344 . S
C68 C67 1.371 . S
C68 H77 0.931 . S
C69 C65 1.328 . S
C69 C70 1.433 . S
C69 H78 0.931 . S
C70 C66 1.323 . S
C70 C69 1.433 . S
C70 H79 0.933 . S
C71 Dy41 2.738 . S
C71 O51 1.255 . S
C71 O52 1.249 . S
C71 C65 1.516 . S
H72 C58 0.930 . S
H73 C59 0.931 . S
H74 C60 0.931 . S
H75 C61 0.933 . S
H76 C67 0.930 . S
H77 C68 0.931 . S
H78 C69 0.931 . S
H79 C70 0.933 . S
Dy80 O83 2.307 . S
Dy80 O85 2.395 . S
Dy80 O86 2.379 . S
Dy80 O88 2.339 . S
Dy80 O90 2.298 . S
Dy80 O94 2.275 . S
Dy80 C102 2.738 . S
Dy81 O84 2.298 1_655 S
Dy81 O87 2.275 1_655 S
Dy81 O89 2.307 . S
Dy81 O91 2.395 . S
Dy81 O92 2.379 . S
Dy81 O95 2.339 1_655 S
Dy81 C111 2.738 . S
C82 O94 1.254 . S
C82 O95 1.257 . S
O83 Dy80 2.307 . S
O83 C93 1.266 . S
O84 Dy81 2.298 1_455 S
O84 C93 1.236 . S
O85 Dy80 2.395 . S
O85 C102 1.255 . S
O86 Dy80 2.379 . S
O86 C102 1.249 . S
O87 Dy81 2.275 1_455 S
O87 C103 1.254 . S
O88 Dy80 2.339 . S
O88 C103 1.257 . S
O89 Dy81 2.307 . S
O89 C104 1.266 . S
O90 Dy80 2.298 . S
O90 C104 1.236 1_455 S
O91 Dy81 2.395 . S
O91 C111 1.255 . S
O92 Dy81 2.379 . S
O92 C111 1.249 . S
C93 O83 1.266 . S
C93 O84 1.236 . S
O94 Dy80 2.275 . S
O94 C82 1.254 . S
O95 Dy81 2.339 1_455 S
O95 C82 1.257 . S
C96 C99 1.344 . S
C96 C100 1.328 . S
C96 C102 1.516 . S
C97 C98 1.304 . S
C97 C101 1.323 . S
C98 C97 1.304 . S
C98 C99 1.371 . S
C98 H112 0.930 . S
C99 C96 1.344 . S
C99 C98 1.371 . S
C99 H113 0.931 . S
C100 C96 1.328 . S
C100 C101 1.433 . S
C100 H114 0.931 . S
C101 C97 1.323 . S
C101 C100 1.433 . S
C101 H115 0.933 . S
C102 Dy80 2.738 . S
C102 O85 1.255 . S
C102 O86 1.249 . S
C102 C96 1.516 . S
C103 O87 1.254 . S
C103 O88 1.257 . S
C104 O89 1.266 . S
C104 O90 1.236 1_655 S
C105 C108 1.344 . S
C105 C109 1.328 . S
C105 C111 1.516 . S
C106 C107 1.304 . S
C106 C110 1.323 . S
C107 C106 1.304 . S
C107 C108 1.371 . S
C107 H116 0.930 . S
C108 C105 1.344 . S
C108 C107 1.371 . S
C108 H117 0.931 . S
C109 C105 1.328 . S
C109 C110 1.433 . S
C109 H118 0.931 . S
C110 C106 1.323 . S
C110 C109 1.433 . S
C110 H119 0.933 . S
C111 Dy81 2.738 . S
C111 O91 1.255 . S
C111 O92 1.249 . S
C111 C105 1.516 . S
H112 C98 0.930 . S
H113 C99 0.931 . S
H114 C100 0.931 . S
H115 C101 0.933 . S
H116 C107 0.930 . S
H117 C108 0.931 . S
H118 C109 0.931 . S
H119 C110 0.933 . S
Dy120 O123 2.307 1_556 S
Dy120 O125 2.395 . S
Dy120 O126 2.379 . S
Dy120 O128 2.339 1_556 S
Dy120 O130 2.298 1_565 S
Dy120 O134 2.275 1_556 S
Dy120 C142 2.738 . S
Dy121 O124 2.298 . S
Dy121 O127 2.275 . S
Dy121 O129 2.307 1_554 S
Dy121 O131 2.395 . S
Dy121 O132 2.379 . S
Dy121 O135 2.339 . S
Dy121 C151 2.738 . S
C122 O134 1.254 1_545 S
C122 O135 1.257 . S
O123 Dy120 2.307 1_554 S
O123 C133 1.266 . S
O124 Dy121 2.298 . S
O124 C133 1.236 1_545 S
O125 Dy120 2.395 . S
O125 C142 1.255 . S
O126 Dy120 2.379 . S
O126 C142 1.249 . S
O127 Dy121 2.275 . S
O127 C143 1.254 . S
O128 Dy120 2.339 1_554 S
O128 C143 1.257 1_565 S
O129 Dy121 2.307 1_556 S
O129 C144 1.266 . S
O130 Dy120 2.298 1_545 S
O130 C144 1.236 . S
O131 Dy121 2.395 . S
O131 C151 1.255 . S
O132 Dy121 2.379 . S
O132 C151 1.249 . S
C133 O123 1.266 . S
C133 O124 1.236 1_565 S
O134 Dy120 2.275 1_554 S
O134 C122 1.254 1_565 S
O135 Dy121 2.339 . S
O135 C122 1.257 . S
C136 C139 1.344 . S
C136 C140 1.328 . S
C136 C142 1.516 . S
C137 C138 1.304 . S
C137 C141 1.323 . S
C138 C137 1.304 . S
C138 C139 1.371 . S
C138 H152 0.930 . S
C139 C136 1.344 . S
C139 C138 1.371 . S
C139 H153 0.931 . S
C140 C136 1.328 . S
C140 C141 1.433 . S
C140 H154 0.931 . S
C141 C137 1.323 . S
C141 C140 1.433 . S
C141 H155 0.933 . S
C142 Dy120 2.738 . S
C142 O125 1.255 . S
C142 O126 1.249 . S
C142 C136 1.516 . S
C143 O127 1.254 . S
C143 O128 1.257 1_545 S
C144 O129 1.266 . S
C144 O130 1.236 . S
C145 C148 1.344 . S
C145 C149 1.328 . S
C145 C151 1.516 . S
C146 C147 1.304 . S
C146 C150 1.323 . S
C147 C146 1.304 . S
C147 C148 1.371 . S
C147 H156 0.930 . S
C148 C145 1.344 . S
C148 C147 1.371 . S
C148 H157 0.931 . S
C149 C145 1.328 . S
C149 C150 1.433 . S
C149 H158 0.931 . S
C150 C146 1.323 . S
C150 C149 1.433 . S
C150 H159 0.933 . S
C151 Dy121 2.738 . S
C151 O131 1.255 . S
C151 O132 1.249 . S
C151 C145 1.516 . S
H152 C138 0.930 . S
H153 C139 0.931 . S
H154 C140 0.931 . S
H155 C141 0.933 . S
H156 C147 0.930 . S
H157 C148 0.931 . S
H158 C149 0.931 . S
H159 C150 0.933 . S
Dy160 O163 2.307 . S
Dy160 O165 2.395 . S
Dy160 O166 2.379 . S
Dy160 O168 2.339 . S
Dy160 O170 2.298 . S
Dy160 O174 2.275 . S
Dy160 C182 2.738 . S
Dy161 O164 2.298 . S
Dy161 O167 2.275 . S
Dy161 O169 2.307 . S
Dy161 O171 2.395 . S
Dy161 O172 2.379 . S
Dy161 O175 2.339 . S
Dy161 C191 2.738 . S
C162 O174 1.254 . S
C162 O175 1.257 . S
O163 Dy160 2.307 . S
O163 C173 1.266 . S
O164 Dy161 2.298 . S
O164 C173 1.236 . S
O165 Dy160 2.395 . S
O165 C182 1.255 . S
O166 Dy160 2.379 . S
O166 C182 1.249 . S
O167 Dy161 2.275 . S
O167 C183 1.254 . S
O168 Dy160 2.339 . S
O168 C183 1.257 . S
O169 Dy161 2.307 . S
O169 C184 1.266 . S
O170 Dy160 2.298 . S
O170 C184 1.236 . S
O171 Dy161 2.395 . S
O171 C191 1.255 . S
O172 Dy161 2.379 . S
O172 C191 1.249 . S
C173 O163 1.266 . S
C173 O164 1.236 . S
O174 Dy160 2.275 . S
O174 C162 1.254 . S
O175 Dy161 2.339 . S
O175 C162 1.257 . S
C176 C179 1.344 . S
C176 C180 1.328 . S
C176 C182 1.516 . S
C177 C178 1.304 . S
C177 C181 1.323 . S
C178 C177 1.304 . S
C178 C179 1.371 . S
C178 H192 0.930 1_565 S
C179 C176 1.344 . S
C179 C178 1.371 . S
C179 H193 0.931 . S
C180 C176 1.328 . S
C180 C181 1.433 . S
C180 H194 0.931 . S
C181 C177 1.323 . S
C181 C180 1.433 . S
C181 H195 0.933 . S
C182 Dy160 2.738 . S
C182 O165 1.255 . S
C182 O166 1.249 . S
C182 C176 1.516 . S
C183 O167 1.254 . S
C183 O168 1.257 . S
C184 O169 1.266 . S
C184 O170 1.236 . S
C185 C188 1.344 . S
C185 C189 1.328 . S
C185 C191 1.516 . S
C186 C187 1.304 . S
C186 C190 1.323 . S
C187 C186 1.304 . S
C187 C188 1.371 . S
C187 H196 0.930 . S
C188 C185 1.344 . S
C188 C187 1.371 . S
C188 H197 0.931 . S
C189 C185 1.328 . S
C189 C190 1.433 . S
C189 H198 0.931 . S
C190 C186 1.323 . S
C190 C189 1.433 . S
C190 H199 0.933 . S
C191 Dy161 2.738 . S
C191 O171 1.255 . S
C191 O172 1.249 . S
C191 C185 1.516 . S
H192 C178 0.930 1_545 S
H193 C179 0.931 . S
H194 C180 0.931 . S
H195 C181 0.933 . S
H196 C187 0.930 . S
H197 C188 0.931 . S
H198 C189 0.931 . S
H199 C190 0.933 . S
Dy200 O203 2.307 . S
Dy200 O205 2.395 . S
Dy200 O206 2.379 . S
Dy200 O208 2.339 . S
Dy200 O210 2.298 . S
Dy200 O214 2.275 . S
Dy200 C222 2.738 . S
Dy201 O204 2.298 1_655 S
Dy201 O207 2.275 1_655 S
Dy201 O209 2.307 . S
Dy201 O211 2.395 . S
Dy201 O212 2.379 . S
Dy201 O215 2.339 1_655 S
Dy201 C231 2.738 . S
C202 O214 1.254 . S
C202 O215 1.257 . S
O203 Dy200 2.307 . S
O203 C213 1.266 . S
O204 Dy201 2.298 1_455 S
O204 C213 1.236 . S
O205 Dy200 2.395 . S
O205 C222 1.255 . S
O206 Dy200 2.379 . S
O206 C222 1.249 . S
O207 Dy201 2.275 1_455 S
O207 C223 1.254 . S
O208 Dy200 2.339 . S
O208 C223 1.257 . S
O209 Dy201 2.307 . S
O209 C224 1.266 . S
O210 Dy200 2.298 . S
O210 C224 1.236 1_455 S
O211 Dy201 2.395 . S
O211 C231 1.255 . S
O212 Dy201 2.379 . S
O212 C231 1.249 . S
C213 O203 1.266 . S
C213 O204 1.236 . S
O214 Dy200 2.275 . S
O214 C202 1.254 . S
O215 Dy201 2.339 1_455 S
O215 C202 1.257 . S
C216 C219 1.344 . S
C216 C220 1.328 . S
C216 C222 1.516 . S
C217 C218 1.304 . S
C217 C221 1.323 . S
C218 C217 1.304 . S
C218 C219 1.371 . S
C218 H232 0.930 1_565 S
C219 C216 1.344 . S
C219 C218 1.371 . S
C219 H233 0.931 . S
C220 C216 1.328 . S
C220 C221 1.433 . S
C220 H234 0.931 . S
C221 C217 1.323 . S
C221 C220 1.433 . S
C221 H235 0.933 . S
C222 Dy200 2.738 . S
C222 O205 1.255 . S
C222 O206 1.249 . S
C222 C216 1.516 . S
C223 O207 1.254 . S
C223 O208 1.257 . S
C224 O209 1.266 . S
C224 O210 1.236 1_655 S
C225 C228 1.344 . S
C225 C229 1.328 . S
C225 C231 1.516 . S
C226 C227 1.304 . S
C226 C230 1.323 . S
C227 C226 1.304 . S
C227 C228 1.371 . S
C227 H236 0.930 . S
C228 C225 1.344 . S
C228 C227 1.371 . S
C228 H237 0.931 . S
C229 C225 1.328 . S
C229 C230 1.433 . S
C229 H238 0.931 . S
C230 C226 1.323 . S
C230 C229 1.433 . S
C230 H239 0.933 . S
C231 Dy201 2.738 . S
C231 O211 1.255 . S
C231 O212 1.249 . S
C231 C225 1.516 . S
H232 C218 0.930 1_545 S
H233 C219 0.931 . S
H234 C220 0.931 . S
H235 C221 0.933 . S
H236 C227 0.930 . S
H237 C228 0.931 . S
H238 C229 0.931 . S
H239 C230 0.933 . S
H240 C248 0.950 . S
H241 C253 0.950 . S
H242 C250 0.950 . S
H243 C252 0.950 . S
H244 C254 0.950 . S
H245 C256 0.950 . S
H246 C258 0.950 1_655 S
H247 C259 0.950 . S
C248 H240 0.950 . S
C248 C249 1.386 1_565 S
C248 C250 1.391 . S
C249 C248 1.386 1_545 S
C249 C253 1.393 . S
C250 H242 0.950 . S
C250 C248 1.391 . S
C250 C251 1.400 1_565 S
C251 C250 1.400 1_545 S
C251 C252 1.398 . S
C251 C257 1.491 1_655 S
C252 H243 0.950 . S
C252 C251 1.398 . S
C252 C253 1.391 . S
C253 H241 0.950 . S
C253 C249 1.393 . S
C253 C252 1.391 . S
C254 H244 0.950 . S
C254 C255 1.386 . S
C254 C256 1.391 . S
C255 C254 1.386 . S
C255 C259 1.393 1_545 S
C256 H245 0.950 . S
C256 C254 1.391 . S
C256 C257 1.400 . S
C257 C251 1.491 1_455 S
C257 C256 1.400 . S
C257 C258 1.398 1_545 S
C258 H246 0.950 1_455 S
C258 C257 1.398 1_565 S
C258 C259 1.391 . S
C259 H247 0.950 . S
C259 C255 1.393 1_565 S
C259 C258 1.391 . S
H260 C268 0.950 . S
H261 C273 0.950 1_565 S
H262 C270 0.950 . S
H263 C272 0.950 . S
H264 C274 0.950 . S
H265 C276 0.965 . S
H266 C278 0.950 . S
H267 C279 0.950 . S
C268 H260 0.950 . S
C268 C269 1.386 . S
C268 C270 1.391 1_565 S
C269 C268 1.386 . S
C269 C273 1.393 1_565 S
C270 H262 0.950 . S
C270 C268 1.391 1_545 S
C270 C271 1.400 . S
C271 C270 1.400 . S
C271 C272 1.398 . S
C271 C277 1.491 1_655 S
C272 H263 0.950 . S
C272 C271 1.398 . S
C272 C273 1.391 . S
C273 H261 0.950 1_545 S
C273 C269 1.393 1_545 S
C273 C272 1.391 . S
C274 H264 0.950 . S
C274 C275 1.386 . S
C274 C276 1.391 . S
C275 C274 1.386 . S
C275 C279 1.393 . S
C276 H265 0.965 . S
C276 C274 1.391 . S
C276 C277 1.400 . S
C277 C271 1.491 1_455 S
C277 C276 1.400 . S
C277 C278 1.398 . S
C278 H266 0.950 . S
C278 C277 1.398 . S
C278 C279 1.391 . S
C279 H267 0.950 . S
C279 C275 1.393 . S
C279 C278 1.391 . S
H280 C288 0.950 . S
H281 C293 0.950 . S
H282 C290 0.950 . S
H283 C292 0.950 . S
H284 C294 0.950 . S
H285 C296 0.950 . S
H286 C298 0.950 . S
H287 C299 0.950 . S
C288 H280 0.950 . S
C288 C289 1.386 . S
C288 C290 1.391 1_565 S
C289 C288 1.386 . S
C289 C293 1.393 . S
C290 H282 0.950 . S
C290 C288 1.391 1_545 S
C290 C291 1.400 . S
C291 C290 1.400 . S
C291 C292 1.398 . S
C291 C297 1.491 . S
C292 H283 0.950 . S
C292 C291 1.398 . S
C292 C293 1.391 1_545 S
C293 H281 0.950 . S
C293 C289 1.393 . S
C293 C292 1.391 1_565 S
C294 H284 0.950 . S
C294 C295 1.386 . S
C294 C296 1.391 . S
C295 C294 1.386 . S
C295 C299 1.393 . S
C296 H285 0.950 . S
C296 C294 1.391 . S
C296 C297 1.400 . S
C297 C291 1.491 . S
C297 C296 1.400 . S
C297 C298 1.398 . S
C298 H286 0.950 . S
C298 C297 1.398 . S
C298 C299 1.391 . S
C299 H287 0.950 . S
C299 C295 1.393 . S
C299 C298 1.391 . S
H300 C308 0.950 . S
H301 C313 0.950 . S
H302 C310 0.950 . S
H303 C312 0.950 . S
H304 C314 0.950 . S
H305 C316 0.950 . S
H306 C318 0.950 . S
H307 C319 0.950 . S
C308 H300 0.950 . S
C308 C309 1.386 . S
C308 C310 1.391 . S
C309 C308 1.386 . S
C309 C313 1.393 . S
C310 H302 0.950 . S
C310 C308 1.391 . S
C310 C311 1.400 . S
C311 C310 1.400 . S
C311 C312 1.398 . S
C311 C317 1.491 . S
C312 H303 0.950 . S
C312 C311 1.398 . S
C312 C313 1.391 . S
C313 H301 0.950 . S
C313 C309 1.393 . S
C313 C312 1.391 . S
C314 H304 0.950 . S
C314 C315 1.386 . S
C314 C316 1.391 . S
C315 C314 1.386 . S
C315 C319 1.393 . S
C316 H305 0.950 . S
C316 C314 1.391 . S
C316 C317 1.400 . S
C317 C311 1.491 . S
C317 C316 1.400 . S
C317 C318 1.398 . S
C318 H306 0.950 . S
C318 C317 1.398 . S
C318 C319 1.391 . S
C319 H307 0.950 . S
C319 C315 1.393 . S
C319 C318 1.391 . S
H320 C328 0.950 . S
H321 C333 0.950 . S
H322 C330 0.950 . S
H323 C332 0.950 . S
H324 C334 0.950 . S
H325 C336 0.950 . S
H326 C338 0.950 . S
H327 C339 0.950 . S
C328 H320 0.950 . S
C328 C329 1.386 . S
C328 C330 1.391 . S
C329 C328 1.386 . S
C329 C333 1.393 . S
C330 H322 0.950 . S
C330 C328 1.391 . S
C330 C331 1.400 1_455 S
C331 C330 1.400 1_655 S
C331 C332 1.398 . S
C331 C337 1.491 . S
C332 H323 0.950 . S
C332 C331 1.398 . S
C332 C333 1.391 1_655 S
C333 H321 0.950 . S
C333 C329 1.393 . S
C333 C332 1.391 1_455 S
C334 H324 0.950 . S
C334 C335 1.386 . S
C334 C336 1.391 . S
C335 C334 1.386 . S
C335 C339 1.393 . S
C336 H325 0.950 . S
C336 C334 1.391 . S
C336 C337 1.400 . S
C337 C331 1.491 . S
C337 C336 1.400 . S
C337 C338 1.398 . S
C338 H326 0.950 . S
C338 C337 1.398 . S
C338 C339 1.391 . S
C339 H327 0.950 . S
C339 C335 1.393 . S
C339 C338 1.391 . S
H340 C348 0.950 . S
H341 C353 0.950 . S
H342 C350 0.950 . S
H343 C352 0.950 . S
H344 C354 0.950 . S
H345 C356 0.950 . S
H346 C358 0.950 . S
H347 C359 0.950 1_565 S
C348 H340 0.950 . S
C348 C349 1.386 . S
C348 C350 1.391 . S
C349 C348 1.386 . S
C349 C353 1.393 . S
C350 H342 0.950 . S
C350 C348 1.391 . S
C350 C351 1.400 . S
C351 C350 1.400 . S
C351 C352 1.398 . S
C351 C357 1.491 . S
C352 H343 0.950 . S
C352 C351 1.398 . S
C352 C353 1.391 . S
C353 H341 0.950 . S
C353 C349 1.393 . S
C353 C352 1.391 . S
C354 H344 0.950 . S
C354 C355 1.386 . S
C354 C356 1.391 1_565 S
C355 C354 1.386 . S
C355 C359 1.393 1_565 S
C356 H345 0.950 . S
C356 C354 1.391 1_545 S
C356 C357 1.400 . S
C357 C351 1.491 . S
C357 C356 1.400 . S
C357 C358 1.398 . S
C358 H346 0.950 . S
C358 C357 1.398 . S
C358 C359 1.391 . S
C359 H347 0.950 1_545 S
C359 C355 1.393 1_545 S
C359 C358 1.391 . S
H360 C368 0.950 . S
H361 C373 0.950 . S
H362 C370 0.950 . S
H363 C372 0.950 . S
H364 C374 0.950 . S
H365 C376 0.950 . S
H366 C378 0.950 . S
H367 C379 0.950 . S
C368 H360 0.950 . S
C368 C369 1.386 . S
C368 C370 1.391 . S
C369 C368 1.386 . S
C369 C373 1.393 . S
C370 H362 0.950 . S
C370 C368 1.391 . S
C370 C371 1.400 . S
C371 C370 1.400 . S
C371 C372 1.398 . S
C371 C377 1.491 . S
C372 H363 0.950 . S
C372 C371 1.398 . S
C372 C373 1.391 . S
C373 H361 0.950 . S
C373 C369 1.393 . S
C373 C372 1.391 . S
C374 H364 0.950 . S
C374 C375 1.386 . S
C374 C376 1.391 . S
C375 C374 1.386 . S
C375 C379 1.393 . S
C376 H365 0.950 . S
C376 C374 1.391 . S
C376 C377 1.400 . S
C377 C371 1.491 . S
C377 C376 1.400 . S
C377 C378 1.398 . S
C378 H366 0.950 . S
C378 C377 1.398 . S
C378 C379 1.391 . S
C379 H367 0.950 . S
C379 C375 1.393 . S
C379 C378 1.391 . S
H380 C388 0.950 . S
H381 C393 0.950 . S
H382 C390 0.950 . S
H383 C392 0.950 . S
H384 C394 0.950 . S
H385 C396 0.950 . S
H386 C398 0.950 . S
H387 C399 0.950 . S
C388 H380 0.950 . S
C388 C389 1.386 . S
C388 C390 1.391 . S
C389 C388 1.386 . S
C389 C393 1.393 . S
C390 H382 0.950 . S
C390 C388 1.391 . S
C390 C391 1.400 . S
C391 C390 1.400 . S
C391 C392 1.398 . S
C391 C397 1.491 . S
C392 H383 0.950 . S
C392 C391 1.398 . S
C392 C393 1.391 . S
C393 H381 0.950 . S
C393 C389 1.393 . S
C393 C392 1.391 . S
C394 H384 0.950 . S
C394 C395 1.386 . S
C394 C396 1.391 1_455 S
C395 C394 1.386 . S
C395 C399 1.393 . S
C396 H385 0.950 . S
C396 C394 1.391 1_655 S
C396 C397 1.400 . S
C397 C391 1.491 . S
C397 C396 1.400 . S
C397 C398 1.398 1_655 S
C398 H386 0.950 . S
C398 C397 1.398 1_455 S
C398 C399 1.391 . S
C399 H387 0.950 . S
C399 C395 1.393 . S
C399 C398 1.391 . S
H400 C408 0.950 . S
H401 C413 0.950 . S
H402 C410 0.950 . S
H403 C412 0.950 . S
H404 C414 0.950 . S
H405 C416 0.950 . S
H406 C418 0.950 . S
H407 C419 0.950 . S
C408 H400 0.950 . S
C408 C409 1.386 1_545 S
C408 C410 1.391 . S
C409 C408 1.386 1_565 S
C409 C413 1.393 . S
C410 H402 0.950 . S
C410 C408 1.391 . S
C410 C411 1.400 . S
C411 C410 1.400 . S
C411 C412 1.398 . S
C411 C417 1.491 . S
C412 H403 0.950 . S
C412 C411 1.398 . S
C412 C413 1.391 1_545 S
C413 H401 0.950 . S
C413 C409 1.393 . S
C413 C412 1.391 1_565 S
C414 H404 0.950 . S
C414 C415 1.386 . S
C414 C416 1.391 . S
C415 C414 1.386 . S
C415 C419 1.393 . S
C416 H405 0.950 . S
C416 C414 1.391 . S
C416 C417 1.400 . S
C417 C411 1.491 . S
C417 C416 1.400 . S
C417 C418 1.398 . S
C418 H406 0.950 . S
C418 C417 1.398 . S
C418 C419 1.391 . S
C419 H407 0.950 . S
C419 C415 1.393 . S
C419 C418 1.391 . S
H420 C428 0.950 1_565 S
H421 C433 0.950 . S
H422 C430 0.950 1_565 S
H423 C432 0.950 . S
H424 C434 0.950 . S
H425 C436 0.950 . S
H426 C438 0.950 1_565 S
H427 C439 0.950 1_565 S
C428 H420 0.950 1_545 S
C428 C429 1.386 1_556 S
C428 C430 1.391 . S
C429 C428 1.386 1_554 S
C429 C433 1.393 . S
C430 H422 0.950 1_545 S
C430 C428 1.391 . S
C430 C431 1.400 1_556 S
C431 C430 1.400 1_554 S
C431 C432 1.398 . S
C431 C437 1.491 . S
C432 H423 0.950 . S
C432 C431 1.398 . S
C432 C433 1.391 . S
C433 H421 0.950 . S
C433 C429 1.393 . S
C433 C432 1.391 . S
C434 H424 0.950 . S
C434 C435 1.386 . S
C434 C436 1.391 . S
C435 C434 1.386 . S
C435 C439 1.393 1_554 S
C436 H425 0.950 . S
C436 C434 1.391 . S
C436 C437 1.400 . S
C437 C431 1.491 . S
C437 C436 1.400 . S
C437 C438 1.398 1_554 S
C438 H426 0.950 1_545 S
C438 C437 1.398 1_556 S
C438 C439 1.391 . S
C439 H427 0.950 1_545 S
C439 C435 1.393 1_556 S
C439 C438 1.391 . S
H440 C448 0.950 . S
H441 C453 0.950 . S
H442 C450 0.950 . S
H443 C452 0.950 . S
H444 C454 0.950 . S
H445 C456 0.950 . S
H446 C458 0.950 . S
H447 C459 0.950 . S
C448 H440 0.950 . S
C448 C449 1.386 . S
C448 C450 1.391 . S
C449 C448 1.386 . S
C449 C453 1.393 . S
C450 H442 0.950 . S
C450 C448 1.391 . S
C450 C451 1.400 . S
C451 C450 1.400 . S
C451 C452 1.398 . S
C451 C457 1.491 . S
C452 H443 0.950 . S
C452 C451 1.398 . S
C452 C453 1.391 . S
C453 H441 0.950 . S
C453 C449 1.393 . S
C453 C452 1.391 . S
C454 H444 0.950 . S
C454 C455 1.386 . S
C454 C456 1.391 . S
C455 C454 1.386 . S
C455 C459 1.393 . S
C456 H445 0.950 . S
C456 C454 1.391 . S
C456 C457 1.400 . S
C457 C451 1.491 . S
C457 C456 1.400 . S
C457 C458 1.398 . S
C458 H446 0.950 . S
C458 C457 1.398 . S
C458 C459 1.391 . S
C459 H447 0.950 . S
C459 C455 1.393 . S
C459 C458 1.391 . S
H460 C468 0.950 1_655 S
H461 C473 0.950 . S
H462 C470 0.950 1_655 S
H463 C472 0.950 . S
H464 C474 0.950 . S
H465 C476 0.950 . S
H466 C478 0.950 . S
H467 C479 0.950 . S
C468 H460 0.950 1_455 S
C468 C469 1.386 . S
C468 C470 1.391 . S
C469 C468 1.386 . S
C469 C473 1.393 . S
C470 H462 0.950 1_455 S
C470 C468 1.391 . S
C470 C471 1.400 . S
C471 C470 1.400 . S
C471 C472 1.398 . S
C471 C477 1.491 . S
C472 H463 0.950 . S
C472 C471 1.398 . S
C472 C473 1.391 . S
C473 H461 0.950 . S
C473 C469 1.393 . S
C473 C472 1.391 . S
C474 H464 0.950 . S
C474 C475 1.386 . S
C474 C476 1.391 . S
C475 C474 1.386 . S
C475 C479 1.393 1_455 S
C476 H465 0.950 . S
C476 C474 1.391 . S
C476 C477 1.400 . S
C477 C471 1.491 . S
C477 C476 1.400 . S
C477 C478 1.398 1_455 S
C478 H466 0.950 . S
C478 C477 1.398 1_655 S
C478 C479 1.391 . S
C479 H467 0.950 . S
C479 C475 1.393 1_655 S
C479 C478 1.391 . S
H480 C488 0.950 . S
H481 C493 0.950 . S
H482 C490 0.950 . S
H483 C492 0.950 . S
H484 C494 0.950 . S
H485 C496 0.950 . S
H486 C498 0.950 . S
H487 C499 0.950 . S
C488 H480 0.950 . S
C488 C489 1.386 . S
C488 C490 1.391 . S
C489 C488 1.386 . S
C489 C493 1.393 . S
C490 H482 0.950 . S
C490 C488 1.391 . S
C490 C491 1.400 . S
C491 C490 1.400 . S
C491 C492 1.398 . S
C491 C497 1.491 . S
C492 H483 0.950 . S
C492 C491 1.398 . S
C492 C493 1.391 . S
C493 H481 0.950 . S
C493 C489 1.393 . S
C493 C492 1.391 . S
C494 H484 0.950 . S
C494 C495 1.386 . S
C494 C496 1.391 . S
C495 C494 1.386 . S
C495 C499 1.393 . S
C496 H485 0.950 . S
C496 C494 1.391 . S
C496 C497 1.400 . S
C497 C491 1.491 . S
C497 C496 1.400 . S
C497 C498 1.398 . S
C498 H486 0.950 . S
C498 C497 1.398 . S
C498 C499 1.391 . S
C499 H487 0.950 . S
C499 C495 1.393 . S
C499 C498 1.391 . S
H500 C508 0.950 . S
H501 C513 0.950 . S
H502 C510 0.950 . S
H503 C512 0.950 . S
H504 C514 0.950 . S
H505 C516 0.950 . S
H506 C518 0.950 . S
H507 C519 0.950 . S
C508 H500 0.950 . S
C508 C509 1.386 . S
C508 C510 1.391 . S
C509 C508 1.386 . S
C509 C513 1.393 . S
C510 H502 0.950 . S
C510 C508 1.391 . S
C510 C511 1.400 . S
C511 C510 1.400 . S
C511 C512 1.398 . S
C511 C517 1.491 . S
C512 H503 0.950 . S
C512 C511 1.398 . S
C512 C513 1.391 . S
C513 H501 0.950 . S
C513 C509 1.393 . S
C513 C512 1.391 . S
C514 H504 0.950 . S
C514 C515 1.386 . S
C514 C516 1.391 . S
C515 C514 1.386 . S
C515 C519 1.393 . S
C516 H505 0.950 . S
C516 C514 1.391 . S
C516 C517 1.400 . S
C517 C511 1.491 . S
C517 C516 1.400 . S
C517 C518 1.398 . S
C518 H506 0.950 . S
C518 C517 1.398 . S
C518 C519 1.391 . S
C519 H507 0.950 . S
C519 C515 1.393 . S
C519 C518 1.391 . S
H520 C528 0.950 . S
H521 C533 0.950 . S
H522 C530 0.950 . S
H523 C532 0.950 . S
H524 C534 0.950 . S
H525 C536 0.950 . S
H526 C538 0.950 . S
H527 C539 0.950 . S
C528 H520 0.950 . S
C528 C529 1.386 . S
C528 C530 1.391 . S
C529 C528 1.386 . S
C529 C533 1.393 . S
C530 H522 0.950 . S
C530 C528 1.391 . S
C530 C531 1.400 . S
C531 C530 1.400 . S
C531 C532 1.398 . S
C531 C537 1.491 . S
C532 H523 0.950 . S
C532 C531 1.398 . S
C532 C533 1.391 . S
C533 H521 0.950 . S
C533 C529 1.393 . S
C533 C532 1.391 . S
C534 H524 0.950 . S
C534 C535 1.386 . S
C534 C536 1.391 . S
C535 C534 1.386 . S
C535 C539 1.393 . S
C536 H525 0.950 . S
C536 C534 1.391 . S
C536 C537 1.400 . S
C537 C531 1.491 . S
C537 C536 1.400 . S
C537 C538 1.398 . S
C538 H526 0.950 . S
C538 C537 1.398 . S
C538 C539 1.391 . S
C539 H527 0.950 . S
C539 C535 1.393 . S
C539 C538 1.391 . S
H540 C548 0.950 . S
H541 C553 0.950 . S
H542 C550 0.950 . S
H543 C552 0.950 . S
H544 C554 0.950 . S
H545 C556 0.950 . S
H546 C558 0.950 . S
H547 C559 0.950 . S
C548 H540 0.950 . S
C548 C549 1.386 . S
C548 C550 1.391 . S
C549 C548 1.386 . S
C549 C553 1.393 . S
C550 H542 0.950 . S
C550 C548 1.391 . S
C550 C551 1.400 . S
C551 C550 1.400 . S
C551 C552 1.398 . S
C551 C557 1.491 . S
C552 H543 0.950 . S
C552 C551 1.398 . S
C552 C553 1.391 . S
C553 H541 0.950 . S
C553 C549 1.393 . S
C553 C552 1.391 . S
C554 H544 0.950 . S
C554 C555 1.386 . S
C554 C556 1.391 . S
C555 C554 1.386 . S
C555 C559 1.393 . S
C556 H545 0.950 . S
C556 C554 1.391 . S
C556 C557 1.400 . S
C557 C551 1.491 . S
C557 C556 1.400 . S
C557 C558 1.398 . S
C558 H546 0.950 . S
C558 C557 1.398 . S
C558 C559 1.391 . S
C559 H547 0.950 . S
C559 C555 1.393 . S
C559 C558 1.391 . S
H560 C568 0.950 . S
H561 C573 0.950 . S
H562 C570 0.950 . S
H563 C572 0.950 . S
H564 C574 0.950 1_455 S
H565 C576 0.950 . S
H566 C578 0.950 . S
H567 C579 0.950 . S
C568 H560 0.950 . S
C568 C569 1.386 . S
C568 C570 1.391 . S
C569 C568 1.386 . S
C569 C573 1.393 . S
C570 H562 0.950 . S
C570 C568 1.391 . S
C570 C571 1.400 . S
C571 C570 1.400 . S
C571 C572 1.398 . S
C571 C577 1.491 . S
C572 H563 0.950 . S
C572 C571 1.398 . S
C572 C573 1.391 . S
C573 H561 0.950 . S
C573 C569 1.393 . S
C573 C572 1.391 . S
C574 H564 0.950 1_655 S
C574 C575 1.386 . S
C574 C576 1.391 . S
C575 C574 1.386 . S
C575 C579 1.393 . S
C576 H565 0.950 . S
C576 C574 1.391 . S
C576 C577 1.400 . S
C577 C571 1.491 . S
C577 C576 1.400 . S
C577 C578 1.398 . S
C578 H566 0.950 . S
C578 C577 1.398 . S
C578 C579 1.391 . S
C579 H567 0.950 . S
C579 C575 1.393 . S
C579 C578 1.391 . S
H580 C588 0.950 . S
H581 C593 0.950 . S
H582 C590 0.950 . S
H583 C592 0.950 . S
H584 C594 0.950 . S
H585 C596 0.950 . S
H586 C598 0.950 . S
H587 C599 0.950 . S
C588 H580 0.950 . S
C588 C589 1.386 . S
C588 C590 1.391 . S
C589 C588 1.386 . S
C589 C593 1.393 . S
C590 H582 0.950 . S
C590 C588 1.391 . S
C590 C591 1.400 . S
C591 C590 1.400 . S
C591 C592 1.398 . S
C591 C597 1.491 . S
C592 H583 0.950 . S
C592 C591 1.398 . S
C592 C593 1.391 . S
C593 H581 0.950 . S
C593 C589 1.393 . S
C593 C592 1.391 . S
C594 H584 0.950 . S
C594 C595 1.386 . S
C594 C596 1.391 . S
C595 C594 1.386 . S
C595 C599 1.393 . S
C596 H585 0.950 . S
C596 C594 1.391 . S
C596 C597 1.400 . S
C597 C591 1.491 . S
C597 C596 1.400 . S
C597 C598 1.398 . S
C598 H586 0.950 . S
C598 C597 1.398 . S
C598 C599 1.391 . S
C599 H587 0.950 . S
C599 C595 1.393 . S
C599 C598 1.391 . S
C249 C122 0.476 . S
C255 C2 0.487 . S
C269 C162 0.450 . S
C275 C42 0.401 . S
C289 C202 0.413 . S
C295 C82 0.469 . S
C309 C26 0.653 . S
C315 C97 0.651 . S
C329 C57 0.647 . S
C335 C146 0.664 . S
C349 C106 0.705 . S
C355 C177 0.732 . S
C369 C137 0.712 . S
C375 C226 0.640 . S
C389 C186 0.704 . S
C395 C17 0.680 . S
C409 C217 0.737 . S
C415 C66 0.687 . S
C429 C23 0.506 . S
C435 C143 0.465 . S
C449 C63 0.517 . S
C455 C183 0.469 . S
C469 C103 0.439 . S
C475 C223 0.463 . S
C489 C24 4.134 . S
C495 C64 4.135 . S
C509 C53 3.861 . S
C515 C93 3.855 . S
C529 C104 4.132 . S
C535 C144 4.132 . S
C549 C133 3.856 . S
C555 C173 3.860 . S
C569 C184 4.134 . S
C575 C224 4.133 . S
C589 C213 3.864 . S
C595 C13 3.859 . S
