# Generated by pormake.
# Topology rac, (4)-cn, num edge types: 1
# Building blocks:
#     Node 0, Type 0, BuildingBlock: TATPOV_clean_sbu_0, # of connection points: 4
#     Node 1, Type 0, BuildingBlock: TATPOV_clean_sbu_0, # of connection points: 4
#     Node 2, Type 0, BuildingBlock: TATPOV_clean_sbu_0, # of connection points: 4
#     Node 3, Type 0, BuildingBlock: TATPOV_clean_sbu_0, # of connection points: 4
#     Node 4, Type 0, BuildingBlock: TATPOV_clean_sbu_0, # of connection points: 4
#     Node 5, Type 0, BuildingBlock: TATPOV_clean_sbu_0, # of connection points: 4
#     Node 6, Type 0, BuildingBlock: TATPOV_clean_sbu_0, # of connection points: 4
#     Node 7, Type 0, BuildingBlock: TATPOV_clean_sbu_0, # of connection points: 4
#     Edge 8, Type (0, 0), BuildingBlock: OJICUG_clean_linker_0, # of connection points: 2
#     Edge 9, Type (0, 0), BuildingBlock: OJICUG_clean_linker_0, # of connection points: 2
#     Edge 10, Type (0, 0), BuildingBlock: OJICUG_clean_linker_0, # of connection points: 2
#     Edge 11, Type (0, 0), BuildingBlock: OJICUG_clean_linker_0, # of connection points: 2
#     Edge 12, Type (0, 0), BuildingBlock: OJICUG_clean_linker_0, # of connection points: 2
#     Edge 13, Type (0, 0), BuildingBlock: OJICUG_clean_linker_0, # of connection points: 2
#     Edge 14, Type (0, 0), BuildingBlock: OJICUG_clean_linker_0, # of connection points: 2
#     Edge 15, Type (0, 0), BuildingBlock: OJICUG_clean_linker_0, # of connection points: 2
#     Edge 16, Type (0, 0), BuildingBlock: OJICUG_clean_linker_0, # of connection points: 2
#     Edge 17, Type (0, 0), BuildingBlock: OJICUG_clean_linker_0, # of connection points: 2
#     Edge 18, Type (0, 0), BuildingBlock: OJICUG_clean_linker_0, # of connection points: 2
#     Edge 19, Type (0, 0), BuildingBlock: OJICUG_clean_linker_0, # of connection points: 2
#     Edge 20, Type (0, 0), BuildingBlock: OJICUG_clean_linker_0, # of connection points: 2
#     Edge 21, Type (0, 0), BuildingBlock: OJICUG_clean_linker_0, # of connection points: 2
#     Edge 22, Type (0, 0), BuildingBlock: OJICUG_clean_linker_0, # of connection points: 2
#     Edge 23, Type (0, 0), BuildingBlock: OJICUG_clean_linker_0, # of connection points: 2
# Relax obj value: 0.264
# Max RMSD: 0.122
# Mean RMSD: 0.122
data_MOF--net-rac--node1-TATPOV_clean_sbu_0--edge1-OJICUG_clean_linker_0
_symmetry_space_group_name_H-M    P1
_symmetry_Int_Tables_number       1
_symmetry_cell_setting            triclinic
loop_
_symmetry_equiv_pos_as_xyz
'x, y, z'
_cell_length_a     28.94575
_cell_length_b     15.686856
_cell_length_c     31.925597
_cell_angle_alpha  90.002388
_cell_angle_beta   89.955335
_cell_angle_gamma 90.035344
loop_
_atom_site_label
_atom_site_type_symbol
_atom_site_fract_x
_atom_site_fract_y
_atom_site_fract_z
_atom_type_partial_charge
Zn0 Zn 0.32714 0.22681 0.0137 0.0
Zn1 Zn 0.33301 0.23055 0.08876 0.0
O2 O 0.38288 0.30816 0.05952 0.0
O3 O 0.38559 0.28082 0.99216 0.0
O4 O 0.35446 0.20333 0.14742 0.0
O5 O 0.29958 0.11262 0.99975 0.0
O6 O 0.29327 0.12646 0.06789 0.0
C7 C 0.39955 0.32406 0.02323 0.0
C8 C 0.26592 0.34437 0.0628 0.0
O9 O 0.28393 0.316 0.09616 0.0
O10 O 0.27869 0.31611 0.02739 0.0
C11 C 0.36256 0.26408 0.17278 0.0
O12 O 0.35992 0.34296 0.15913 0.0
C13 C 0.28203 0.08803 0.03406 0.0
Zn14 Zn 0.07328 0.7332 0.01366 0.0
Zn15 Zn 0.06727 0.72948 0.08873 0.0
O16 O 0.01743 0.65192 0.05948 0.0
O17 O 0.01485 0.67926 0.99212 0.0
O18 O 0.04571 0.75671 0.14739 0.0
O19 O 0.1009 0.84736 0.99973 0.0
O20 O 0.10706 0.83355 0.06787 0.0
C21 C 0.00082 0.63604 0.02318 0.0
C22 C 0.13437 0.61558 0.06278 0.0
O23 O 0.11631 0.64399 0.09614 0.0
O24 O 0.12167 0.64383 0.02737 0.0
C25 C 0.03755 0.69597 0.17275 0.0
O26 O 0.04017 0.61709 0.15908 0.0
C27 C 0.11838 0.87196 0.03405 0.0
Zn28 Zn 0.32678 0.23317 0.50971 0.0
Zn29 Zn 0.33263 0.22987 0.43456 0.0
O30 O 0.38268 0.15264 0.46359 0.0
O31 O 0.38542 0.17958 0.53099 0.0
O32 O 0.35401 0.25744 0.37589 0.0
O33 O 0.29893 0.34712 0.52375 0.0
O34 O 0.2928 0.33363 0.45558 0.0
C35 C 0.39943 0.13667 0.49982 0.0
C36 C 0.26581 0.11522 0.46058 0.0
O37 O 0.28369 0.14402 0.42721 0.0
O38 O 0.27856 0.1434 0.496 0.0
C39 C 0.36242 0.19682 0.35053 0.0
O40 O 0.3601 0.11791 0.36419 0.0
C41 C 0.28145 0.37182 0.48946 0.0
Zn42 Zn 0.07278 0.72654 0.50968 0.0
Zn43 Zn 0.06702 0.72998 0.43454 0.0
O44 O 0.01704 0.80751 0.46355 0.0
O45 O 0.01427 0.78076 0.53096 0.0
O46 O 0.04571 0.70251 0.37586 0.0
O47 O 0.10024 0.6123 0.52371 0.0
O48 O 0.10663 0.62599 0.45557 0.0
C49 C 0.00031 0.82364 0.49979 0.0
C50 C 0.13422 0.8438 0.46055 0.0
O51 O 0.11615 0.81546 0.42718 0.0
O52 O 0.12138 0.81564 0.49596 0.0
C53 C 0.03743 0.76317 0.3505 0.0
O54 O 0.03983 0.84207 0.36417 0.0
C55 C 0.11781 0.58764 0.48943 0.0
Zn56 Zn 0.5716 0.7365 1.0097 0.0
Zn57 Zn 0.56799 0.72897 0.93268 0.0
O58 O 0.51431 0.65864 0.96 0.0
O59 O 0.51007 0.68774 0.02711 0.0
O60 O 0.55513 0.74186 0.8709 0.0
O61 O 0.59875 0.85303 0.01959 0.0
O62 O 0.60592 0.83609 0.95167 0.0
C63 C 0.4959 0.6454 0.99582 0.0
C64 C 0.63368 0.61518 0.96713 0.0
O65 O 0.61669 0.64207 0.93305 0.0
O66 O 0.62015 0.6451 1.00193 0.0
C67 C 0.51674 0.73465 0.85189 0.0
O68 O 0.47871 0.72226 0.87353 0.0
C69 C 0.61655 0.87626 0.98514 0.0
Zn70 Zn 0.82823 0.22491 1.00967 0.0
Zn71 Zn 0.8319 0.23225 0.93265 0.0
O72 O 0.88575 0.30204 0.95995 0.0
O73 O 0.88997 0.27272 0.02704 0.0
O74 O 0.8448 0.21907 0.87087 0.0
O75 O 0.80052 0.10883 0.01961 0.0
O76 O 0.79362 0.12554 0.95167 0.0
C77 C 0.90422 0.31503 0.99575 0.0
C78 C 0.76675 0.34716 0.96711 0.0
O79 O 0.78351 0.31975 0.93301 0.0
O80 O 0.78019 0.31719 1.0019 0.0
C81 C 0.88314 0.22695 0.85177 0.0
O82 O 0.92109 0.24032 0.87333 0.0
C83 C 0.78277 0.08562 0.98517 0.0
Zn84 Zn 0.5717 0.72473 0.51277 0.0
Zn85 Zn 0.56786 0.73132 0.58964 0.0
O86 O 0.51446 0.80209 0.56222 0.0
O87 O 0.51031 0.77347 0.49506 0.0
O88 O 0.55422 0.71592 0.6512 0.0
O89 O 0.5993 0.60884 0.50216 0.0
O90 O 0.60626 0.62515 0.57012 0.0
C91 C 0.49614 0.81564 0.52642 0.0
C92 C 0.63332 0.84627 0.5562 0.0
O93 O 0.61638 0.81874 0.59022 0.0
O94 O 0.61992 0.81657 0.52133 0.0
C95 C 0.51681 0.7328 0.67041 0.0
O96 O 0.48052 0.75799 0.64907 0.0
C97 C 0.61709 0.58545 0.53655 0.0
Zn98 Zn 0.8282 0.23599 0.51271 0.0
Zn99 Zn 0.83195 0.22937 0.58959 0.0
O100 O 0.88534 0.15846 0.56217 0.0
O101 O 0.88954 0.18695 0.49499 0.0
O102 O 0.84551 0.24465 0.65115 0.0
O103 O 0.80079 0.35203 0.50213 0.0
O104 O 0.7937 0.33569 0.57009 0.0
C105 C 0.90368 0.14482 0.52635 0.0
C106 C 0.76634 0.11477 0.55616 0.0
O107 O 0.78333 0.14214 0.59017 0.0
O108 O 0.77979 0.14445 0.52128 0.0
C109 C 0.88302 0.22851 0.6703 0.0
O110 O 0.91948 0.20425 0.64888 0.0
C111 C 0.78297 0.37546 0.53653 0.0
C112 C 0.2207 0.00378 0.07194 0.0
C113 C 0.242 0.02797 0.03409 0.0
H114 H 0.16476 0.93767 0.10172 0.0
C115 C 0.22087 0.0035 0.99624 0.0
H116 H 0.23551 0.02233 0.10173 0.0
C117 C 0.17962 0.95648 0.99624 0.0
C118 C 0.15841 0.93201 0.03409 0.0
H119 H 0.23571 0.02199 0.96645 0.0
H120 H 0.16483 0.93798 0.96644 0.0
C121 C 0.17963 0.95622 0.07194 0.0
C122 C 0.17893 0.50312 0.52729 0.0
C123 C 0.15782 0.5276 0.48943 0.0
H124 H 0.23494 0.43763 0.5571 0.0
C125 C 0.17913 0.50345 0.45159 0.0
H126 H 0.16407 0.52158 0.55708 0.0
C127 C 0.2202 0.45598 0.4516 0.0
C128 C 0.2414 0.43176 0.48945 0.0
H129 H 0.16435 0.522 0.4218 0.0
H130 H 0.23508 0.4375 0.42181 0.0
C131 C 0.22017 0.45615 0.5273 0.0
C132 C 0.67855 0.95878 0.02282 0.0
C133 C 0.65706 0.93527 0.98498 0.0
H134 H 0.73552 0.02132 0.05265 0.0
C135 C 0.67878 0.95825 0.94713 0.0
H136 H 0.66347 0.94106 0.05263 0.0
C137 C 0.72057 0.00372 0.94714 0.0
C138 C 0.74217 0.02681 0.985 0.0
H139 H 0.66374 0.94027 0.91736 0.0
H140 H 0.73572 0.02157 0.91737 0.0
C141 C 0.72053 0.0035 0.02283 0.0
C142 C 0.67914 0.50301 0.49881 0.0
C143 C 0.6576 0.5265 0.53665 0.0
H144 H 0.73606 0.44017 0.46899 0.0
C145 C 0.67917 0.50332 0.5745 0.0
H146 H 0.66416 0.52088 0.469 0.0
C147 C 0.72086 0.45765 0.57449 0.0
C148 C 0.74249 0.43448 0.53664 0.0
H149 H 0.66409 0.52126 0.60428 0.0
H150 H 0.73588 0.43967 0.60427 0.0
C151 C 0.72102 0.45802 0.4988 0.0
C152 C 0.36978 0.31445 0.24702 0.0
C153 C 0.36872 0.24684 0.2181 0.0
H154 H 0.36881 0.35185 0.31151 0.0
C155 C 0.37003 0.16273 0.23322 0.0
H156 H 0.36902 0.38005 0.23646 0.0
C157 C 0.37011 0.14658 0.2763 0.0
C158 C 0.36864 0.21417 0.30523 0.0
H159 H 0.36953 0.10917 0.21181 0.0
H160 H 0.36961 0.08097 0.28686 0.0
C161 C 0.36962 0.2983 0.2901 0.0
C162 C 0.0299 0.81345 0.27628 0.0
C163 C 0.03127 0.74585 0.3052 0.0
H164 H 0.03061 0.85088 0.21179 0.0
C165 C 0.03025 0.66173 0.29006 0.0
H166 H 0.03043 0.87906 0.28685 0.0
C167 C 0.03016 0.64559 0.24698 0.0
C168 C 0.03131 0.71321 0.21806 0.0
H169 H 0.03099 0.60817 0.31147 0.0
H170 H 0.03089 0.57999 0.23642 0.0
C171 C 0.03004 0.79732 0.2332 0.0
C172 C 0.47423 0.73988 0.78311 0.0
C173 C 0.51598 0.73444 0.80546 0.0
H174 H 0.44162 0.74401 0.72277 0.0
C175 C 0.55756 0.72687 0.78299 0.0
H176 H 0.44162 0.74559 0.79952 0.0
C177 C 0.5575 0.72471 0.73931 0.0
C178 C 0.51592 0.73113 0.71684 0.0
H179 H 0.59034 0.72194 0.79914 0.0
H180 H 0.59029 0.71913 0.72317 0.0
C181 C 0.47423 0.73885 0.73918 0.0
C182 C 0.84228 0.23551 0.73926 0.0
C183 C 0.8839 0.23011 0.71672 0.0
H184 H 0.80943 0.23759 0.79914 0.0
C185 C 0.92565 0.22339 0.73901 0.0
H186 H 0.80945 0.24028 0.72317 0.0
C187 C 0.92566 0.22244 0.78294 0.0
C188 C 0.88388 0.22693 0.80534 0.0
H189 H -0.04171 0.21902 0.72255 0.0
H190 H -0.04168 0.21756 0.79929 0.0
C191 C 0.84225 0.23342 0.78294 0.0
C192 C 0.43818 0.43108 0.97568 0.0
C193 C 0.42659 0.40404 0.0164 0.0
H194 H 0.4675 0.52889 0.93705 0.0
C195 C 0.43539 0.46004 0.04997 0.0
H196 H 0.43124 0.39064 0.94892 0.0
C197 C 0.45545 0.54029 0.04308 0.0
C198 C 0.46738 0.56709 1.00239 0.0
H199 H 0.42628 0.44237 0.08172 0.0
H200 H 0.46252 0.58058 0.06987 0.0
C201 C 0.45826 0.51133 0.96878 0.0
C202 C -0.0351 0.50008 0.04991 0.0
C203 C -0.02624 0.5561 0.01635 0.0
H204 H 0.93764 0.3796 0.06979 0.0
C205 C -0.0378 0.52911 0.97563 0.0
H206 H -0.02601 0.5177 0.08166 0.0
C207 C 0.94206 0.44893 0.96872 0.0
C208 C 0.93286 0.39317 1.00232 0.0
H209 H -0.03081 0.56957 0.94887 0.0
H210 H 0.93284 0.43143 0.93699 0.0
C211 C 0.94478 0.41989 0.04301 0.0
C212 C 0.45575 0.9211 0.47941 0.0
C213 C 0.46762 0.89394 0.52002 0.0
H214 H 0.4265 0.01923 0.44102 0.0
C215 C 0.45838 0.94929 0.55377 0.0
H216 H 0.46291 0.88114 0.45251 0.0
C217 C 0.4382 0.02948 0.54709 0.0
C218 C 0.42662 0.05686 0.50644 0.0
H219 H 0.46757 0.93145 0.58546 0.0
H220 H 0.43115 0.06958 0.57395 0.0
C221 C 0.43558 0.00129 0.47272 0.0
C222 C 0.94139 0.01118 0.55372 0.0
C223 C 0.93218 0.06649 0.51996 0.0
H224 H -0.03143 0.89091 0.57393 0.0
C225 C 0.94409 0.03925 0.47934 0.0
H226 H 0.93217 0.02909 0.58541 0.0
C227 C -0.03575 0.95904 0.47267 0.0
C228 C -0.02684 0.90351 0.5064 0.0
H229 H 0.93695 0.07917 0.45244 0.0
H230 H -0.02665 0.94103 0.44097 0.0
C231 C -0.03844 0.93098 0.54705 0.0
C232 C 0.18429 0.5135 0.10218 0.0
C233 C 0.16852 0.54718 0.06405 0.0
H234 H 0.22802 0.42145 0.13184 0.0
C235 C 0.18457 0.51318 0.02614 0.0
H236 H 0.17222 0.53867 0.13183 0.0
C237 C 0.2157 0.4466 0.02614 0.0
C238 C 0.23174 0.41273 0.06406 0.0
H239 H 0.17294 0.53751 0.99619 0.0
H240 H 0.22734 0.42218 0.9962 0.0
C241 C 0.21595 0.44651 0.10219 0.0
C242 C 0.21619 0.01177 0.49721 0.0
C243 C 0.23179 0.04653 0.45931 0.0
H244 H 0.17373 0.92016 0.52714 0.0
C245 C 0.21563 0.01346 0.42117 0.0
H246 H 0.22815 0.03556 0.52716 0.0
C247 C 0.18396 0.94643 0.42116 0.0
C248 C 0.16853 0.912 0.45928 0.0
H249 H 0.22737 0.03921 0.39153 0.0
H250 H 0.17154 0.92191 0.39151 0.0
C251 C 0.18504 0.94514 0.49719 0.0
C252 C 0.68464 0.51469 1.0047 0.0
C253 C 0.66816 0.54752 0.9667 0.0
H254 H 0.72868 0.42496 0.03453 0.0
C255 C 0.68413 0.51396 0.92863 0.0
H256 H 0.67281 0.53933 0.03454 0.0
C257 C 0.71622 0.44816 0.92862 0.0
C258 C 0.73254 0.41528 0.96669 0.0
H259 H 0.67184 0.53826 0.8989 0.0
H260 H 0.72816 0.4232 0.89889 0.0
C261 C 0.71653 0.44899 1.00469 0.0
C262 C 0.68381 0.94748 0.5948 0.0
C263 C 0.66762 0.91435 0.55672 0.0
H264 H 0.72809 0.03799 0.62451 0.0
C265 C 0.68376 0.94789 0.51873 0.0
H266 H 0.67176 0.92264 0.62453 0.0
C267 C 0.71561 0.01369 0.51872 0.0
C268 C 0.73195 0.04686 0.5567 0.0
H269 H 0.67174 0.92367 0.48888 0.0
H270 H 0.72751 0.03816 0.48886 0.0
C271 C 0.71589 0.01343 0.59479 0.0
loop_
_geom_bond_atom_site_label_1
_geom_bond_atom_site_label_2
_geom_bond_distance
_geom_bond_site_symmetry_2
_ccdc_geom_bond_type
Zn0 O3 2.031 1_556 S
Zn0 O5 2.049 . S
Zn0 O10 2.067 1_556 S
Zn1 O2 1.962 . S
Zn1 O4 1.986 . S
Zn1 O6 1.996 . S
Zn1 O9 1.943 . S
O2 Zn1 1.962 . S
O2 C7 1.254 . S
O3 Zn0 2.031 1_554 S
O3 C7 1.269 . S
O4 Zn1 1.986 . S
O4 C11 1.262 . S
O5 Zn0 2.049 . S
O5 C13 1.260 1_556 S
O6 Zn1 1.996 . S
O6 C13 1.257 . S
C7 O2 1.254 . S
C7 O3 1.269 . S
C8 O9 1.249 . S
C8 O10 1.270 . S
O9 Zn1 1.943 . S
O9 C8 1.249 . S
O10 Zn0 2.067 1_554 S
O10 C8 1.270 . S
C11 O4 1.262 . S
C11 O12 1.232 . S
O12 C11 1.232 . S
C13 O5 1.260 1_554 S
C13 O6 1.257 . S
Zn14 O17 2.031 1_556 S
Zn14 O19 2.049 . S
Zn14 O24 2.067 1_556 S
Zn15 O16 1.962 . S
Zn15 O18 1.986 . S
Zn15 O20 1.996 . S
Zn15 O23 1.943 . S
O16 Zn15 1.962 . S
O16 C21 1.254 . S
O17 Zn14 2.031 1_554 S
O17 C21 1.269 . S
O18 Zn15 1.986 . S
O18 C25 1.262 . S
O19 Zn14 2.049 . S
O19 C27 1.260 1_556 S
O20 Zn15 1.996 . S
O20 C27 1.257 . S
C21 O16 1.254 . S
C21 O17 1.269 . S
C22 O23 1.249 . S
C22 O24 1.270 . S
O23 Zn15 1.943 . S
O23 C22 1.249 . S
O24 Zn14 2.067 1_554 S
O24 C22 1.270 . S
C25 O18 1.262 . S
C25 O26 1.232 . S
O26 C25 1.232 . S
C27 O19 1.260 1_554 S
C27 O20 1.257 . S
Zn28 O31 2.031 . S
Zn28 O33 2.049 . S
Zn28 O38 2.067 . S
Zn29 O30 1.962 . S
Zn29 O32 1.986 . S
Zn29 O34 1.996 . S
Zn29 O37 1.943 . S
O30 Zn29 1.962 . S
O30 C35 1.254 . S
O31 Zn28 2.031 . S
O31 C35 1.269 . S
O32 Zn29 1.986 . S
O32 C39 1.262 . S
O33 Zn28 2.049 . S
O33 C41 1.260 . S
O34 Zn29 1.996 . S
O34 C41 1.257 . S
C35 O30 1.254 . S
C35 O31 1.269 . S
C36 O37 1.249 . S
C36 O38 1.270 . S
O37 Zn29 1.943 . S
O37 C36 1.249 . S
O38 Zn28 2.067 . S
O38 C36 1.270 . S
C39 O32 1.262 . S
C39 O40 1.232 . S
O40 C39 1.232 . S
C41 O33 1.260 . S
C41 O34 1.257 . S
Zn42 O45 2.031 . S
Zn42 O47 2.049 . S
Zn42 O52 2.067 . S
Zn43 O44 1.962 . S
Zn43 O46 1.986 . S
Zn43 O48 1.996 . S
Zn43 O51 1.943 . S
O44 Zn43 1.962 . S
O44 C49 1.254 . S
O45 Zn42 2.031 . S
O45 C49 1.269 . S
O46 Zn43 1.986 . S
O46 C53 1.262 . S
O47 Zn42 2.049 . S
O47 C55 1.260 . S
O48 Zn43 1.996 . S
O48 C55 1.257 . S
C49 O44 1.254 . S
C49 O45 1.269 . S
C50 O51 1.249 . S
C50 O52 1.270 . S
O51 Zn43 1.943 . S
O51 C50 1.249 . S
O52 Zn42 2.067 . S
O52 C50 1.270 . S
C53 O46 1.262 . S
C53 O54 1.232 . S
O54 C53 1.232 . S
C55 O47 1.260 . S
C55 O48 1.257 . S
Zn56 O59 2.031 1_554 S
Zn56 O61 2.049 . S
Zn56 O66 2.067 1_554 S
Zn57 O58 1.962 . S
Zn57 O60 1.986 . S
Zn57 O62 1.996 . S
Zn57 O65 1.943 . S
O58 Zn57 1.962 . S
O58 C63 1.254 . S
O59 Zn56 2.031 1_556 S
O59 C63 1.269 . S
O60 Zn57 1.986 . S
O60 C67 1.262 . S
O61 Zn56 2.049 . S
O61 C69 1.260 1_554 S
O62 Zn57 1.996 . S
O62 C69 1.257 . S
C63 O58 1.254 . S
C63 O59 1.269 . S
C64 O65 1.249 . S
C64 O66 1.270 . S
O65 Zn57 1.943 . S
O65 C64 1.249 . S
O66 Zn56 2.067 1_556 S
O66 C64 1.270 . S
C67 O60 1.262 . S
C67 O68 1.232 . S
O68 C67 1.232 . S
C69 O61 1.260 1_556 S
C69 O62 1.257 . S
Zn70 O73 2.031 1_554 S
Zn70 O75 2.049 . S
Zn70 O80 2.067 1_554 S
Zn71 O72 1.962 . S
Zn71 O74 1.986 . S
Zn71 O76 1.996 . S
Zn71 O79 1.943 . S
O72 Zn71 1.962 . S
O72 C77 1.254 . S
O73 Zn70 2.031 1_556 S
O73 C77 1.269 . S
O74 Zn71 1.986 . S
O74 C81 1.262 . S
O75 Zn70 2.049 . S
O75 C83 1.260 1_554 S
O76 Zn71 1.996 . S
O76 C83 1.257 . S
C77 O72 1.254 . S
C77 O73 1.269 . S
C78 O79 1.249 . S
C78 O80 1.270 . S
O79 Zn71 1.943 . S
O79 C78 1.249 . S
O80 Zn70 2.067 1_556 S
O80 C78 1.270 . S
C81 O74 1.262 . S
C81 O82 1.232 . S
O82 C81 1.232 . S
C83 O75 1.260 1_556 S
C83 O76 1.257 . S
Zn84 O87 2.031 . S
Zn84 O89 2.049 . S
Zn84 O94 2.067 . S
Zn85 O86 1.962 . S
Zn85 O88 1.986 . S
Zn85 O90 1.996 . S
Zn85 O93 1.943 . S
O86 Zn85 1.962 . S
O86 C91 1.254 . S
O87 Zn84 2.031 . S
O87 C91 1.269 . S
O88 Zn85 1.986 . S
O88 C95 1.262 . S
O89 Zn84 2.049 . S
O89 C97 1.260 . S
O90 Zn85 1.996 . S
O90 C97 1.257 . S
C91 O86 1.254 . S
C91 O87 1.269 . S
C92 O93 1.249 . S
C92 O94 1.270 . S
O93 Zn85 1.943 . S
O93 C92 1.249 . S
O94 Zn84 2.067 . S
O94 C92 1.270 . S
C95 O88 1.262 . S
C95 O96 1.232 . S
O96 C95 1.232 . S
C97 O89 1.260 . S
C97 O90 1.257 . S
Zn98 O101 2.031 . S
Zn98 O103 2.049 . S
Zn98 O108 2.067 . S
Zn99 O100 1.962 . S
Zn99 O102 1.986 . S
Zn99 O104 1.996 . S
Zn99 O107 1.943 . S
O100 Zn99 1.962 . S
O100 C105 1.254 . S
O101 Zn98 2.031 . S
O101 C105 1.269 . S
O102 Zn99 1.986 . S
O102 C109 1.262 . S
O103 Zn98 2.049 . S
O103 C111 1.260 . S
O104 Zn99 1.996 . S
O104 C111 1.257 . S
C105 O100 1.254 . S
C105 O101 1.269 . S
C106 O107 1.249 . S
C106 O108 1.270 . S
O107 Zn99 1.943 . S
O107 C106 1.249 . S
O108 Zn98 2.067 . S
O108 C106 1.270 . S
C109 O102 1.262 . S
C109 O110 1.232 . S
O110 C109 1.232 . S
C111 O103 1.260 . S
C111 O104 1.257 . S
C112 C113 1.387 . S
C112 H116 0.950 . S
C112 C121 1.390 1_545 S
C113 C112 1.387 . S
C113 C115 1.387 . S
H114 C121 0.950 . S
C115 C113 1.387 . S
C115 C117 1.390 1_545 S
C115 H119 0.950 1_554 S
H116 C112 0.950 . S
C117 C115 1.390 1_565 S
C117 C118 1.387 . S
C117 H120 0.950 1_554 S
C118 C117 1.387 . S
C118 C121 1.387 . S
H119 C115 0.950 1_556 S
H120 C117 0.950 1_556 S
C121 C112 1.390 1_565 S
C121 H114 0.950 . S
C121 C118 1.387 . S
C122 C123 1.387 . S
C122 H126 0.950 . S
C122 C131 1.390 . S
C123 C122 1.387 . S
C123 C125 1.387 . S
H124 C131 0.950 . S
C125 C123 1.387 . S
C125 C127 1.390 . S
C125 H129 0.950 . S
H126 C122 0.950 . S
C127 C125 1.390 . S
C127 C128 1.387 . S
C127 H130 0.950 . S
C128 C127 1.387 . S
C128 C131 1.387 . S
H129 C125 0.950 . S
H130 C127 0.950 . S
C131 C122 1.390 . S
C131 H124 0.950 . S
C131 C128 1.387 . S
C132 C133 1.387 . S
C132 H136 0.950 1_556 S
C132 C141 1.390 1_565 S
C133 C132 1.387 . S
C133 C135 1.387 . S
H134 C141 0.950 1_554 S
C135 C133 1.387 . S
C135 C137 1.390 1_565 S
C135 H139 0.950 . S
H136 C132 0.950 1_554 S
C137 C135 1.390 1_545 S
C137 C138 1.387 . S
C137 H140 0.950 . S
C138 C137 1.387 . S
C138 C141 1.387 . S
H139 C135 0.950 . S
H140 C137 0.950 . S
C141 C132 1.390 1_545 S
C141 H134 0.950 1_556 S
C141 C138 1.387 . S
C142 C143 1.387 . S
C142 H146 0.950 . S
C142 C151 1.390 . S
C143 C142 1.387 . S
C143 C145 1.387 . S
H144 C151 0.950 . S
C145 C143 1.387 . S
C145 C147 1.390 . S
C145 H149 0.950 . S
H146 C142 0.950 . S
C147 C145 1.390 . S
C147 C148 1.387 . S
C147 H150 0.950 . S
C148 C147 1.387 . S
C148 C151 1.387 . S
H149 C145 0.950 . S
H150 C147 0.950 . S
C151 C142 1.390 . S
C151 H144 0.950 . S
C151 C148 1.387 . S
C152 C153 1.387 . S
C152 H156 0.950 . S
C152 C161 1.390 . S
C153 C152 1.387 . S
C153 C155 1.387 . S
H154 C161 0.950 . S
C155 C153 1.387 . S
C155 C157 1.390 . S
C155 H159 0.950 . S
H156 C152 0.950 . S
C157 C155 1.390 . S
C157 C158 1.387 . S
C157 H160 0.950 . S
C158 C157 1.387 . S
C158 C161 1.387 . S
H159 C155 0.950 . S
H160 C157 0.950 . S
C161 C152 1.390 . S
C161 H154 0.950 . S
C161 C158 1.387 . S
C162 C163 1.387 . S
C162 H166 0.950 . S
C162 C171 1.390 . S
C163 C162 1.387 . S
C163 C165 1.387 . S
H164 C171 0.950 . S
C165 C163 1.387 . S
C165 C167 1.390 . S
C165 H169 0.950 . S
H166 C162 0.950 . S
C167 C165 1.390 . S
C167 C168 1.387 . S
C167 H170 0.950 . S
C168 C167 1.387 . S
C168 C171 1.387 . S
H169 C165 0.950 . S
H170 C167 0.950 . S
C171 C162 1.390 . S
C171 H164 0.950 . S
C171 C168 1.387 . S
C172 C173 1.387 . S
C172 H176 0.950 . S
C172 C181 1.390 . S
C173 C172 1.387 . S
C173 C175 1.387 . S
H174 C181 0.950 . S
C175 C173 1.387 . S
C175 C177 1.390 . S
C175 H179 0.950 . S
H176 C172 0.950 . S
C177 C175 1.390 . S
C177 C178 1.387 . S
C177 H180 0.950 . S
C178 C177 1.387 . S
C178 C181 1.387 . S
H179 C175 0.950 . S
H180 C177 0.950 . S
C181 C172 1.390 . S
C181 H174 0.950 . S
C181 C178 1.387 . S
C182 C183 1.387 . S
C182 H186 0.950 . S
C182 C191 1.390 . S
C183 C182 1.387 . S
C183 C185 1.387 . S
H184 C191 0.950 . S
C185 C183 1.387 . S
C185 C187 1.390 . S
C185 H189 0.950 . S
H186 C182 0.950 . S
C187 C185 1.390 . S
C187 C188 1.387 . S
C187 H190 0.950 . S
C188 C187 1.387 . S
C188 C191 1.387 . S
H189 C185 0.950 . S
H190 C187 0.950 . S
C191 C182 1.390 . S
C191 H184 0.950 . S
C191 C188 1.387 . S
C192 C193 1.387 1_556 S
C192 H196 0.950 . S
C192 C201 1.390 . S
C193 C192 1.387 1_554 S
C193 C195 1.387 . S
H194 C201 0.950 . S
C195 C193 1.387 . S
C195 C197 1.390 . S
C195 H199 0.950 . S
H196 C192 0.950 . S
C197 C195 1.390 . S
C197 C198 1.387 1_554 S
C197 H200 0.950 . S
C198 C197 1.387 1_556 S
C198 C201 1.387 . S
H199 C195 0.950 . S
H200 C197 0.950 . S
C201 C192 1.390 . S
C201 H194 0.950 . S
C201 C198 1.387 . S
C202 C203 1.387 . S
C202 H206 0.950 . S
C202 C211 1.390 . S
C203 C202 1.387 . S
C203 C205 1.387 1_454 S
H204 C211 0.950 . S
C205 C203 1.387 1_656 S
C205 C207 1.390 . S
C205 H209 0.950 . S
H206 C202 0.950 . S
C207 C205 1.390 . S
C207 C208 1.387 . S
C207 H210 0.950 . S
C208 C207 1.387 . S
C208 C211 1.387 1_656 S
H209 C205 0.950 . S
H210 C207 0.950 . S
C211 C202 1.390 . S
C211 H204 0.950 . S
C211 C208 1.387 1_454 S
C212 C213 1.387 . S
C212 H216 0.950 . S
C212 C221 1.390 1_565 S
C213 C212 1.387 . S
C213 C215 1.387 . S
H214 C221 0.950 . S
C215 C213 1.387 . S
C215 C217 1.390 1_565 S
C215 H219 0.950 . S
H216 C212 0.950 . S
C217 C215 1.390 1_545 S
C217 C218 1.387 . S
C217 H220 0.950 . S
C218 C217 1.387 . S
C218 C221 1.387 . S
H219 C215 0.950 . S
H220 C217 0.950 . S
C221 C212 1.390 1_545 S
C221 H214 0.950 . S
C221 C218 1.387 . S
C222 C223 1.387 . S
C222 H226 0.950 . S
C222 C231 1.390 1_545 S
C223 C222 1.387 . S
C223 C225 1.387 1_655 S
H224 C231 0.950 . S
C225 C223 1.387 1_455 S
C225 C227 1.390 1_545 S
C225 H229 0.950 . S
H226 C222 0.950 . S
C227 C225 1.390 1_565 S
C227 C228 1.387 . S
C227 H230 0.950 . S
C228 C227 1.387 . S
C228 C231 1.387 1_455 S
H229 C225 0.950 . S
H230 C227 0.950 . S
C231 C222 1.390 1_565 S
C231 H224 0.950 . S
C231 C228 1.387 1_655 S
C232 C233 1.387 . S
C232 H236 0.950 . S
C232 C241 1.390 . S
C233 C232 1.387 . S
C233 C235 1.387 . S
H234 C241 0.950 . S
C235 C233 1.387 . S
C235 C237 1.390 . S
C235 H239 0.950 1_554 S
H236 C232 0.950 . S
C237 C235 1.390 . S
C237 C238 1.387 . S
C237 H240 0.950 1_554 S
C238 C237 1.387 . S
C238 C241 1.387 . S
H239 C235 0.950 1_556 S
H240 C237 0.950 1_556 S
C241 C232 1.390 . S
C241 H234 0.950 . S
C241 C238 1.387 . S
C242 C243 1.387 . S
C242 H246 0.950 . S
C242 C251 1.390 1_545 S
C243 C242 1.387 . S
C243 C245 1.387 . S
H244 C251 0.950 . S
C245 C243 1.387 . S
C245 C247 1.390 1_545 S
C245 H249 0.950 . S
H246 C242 0.950 . S
C247 C245 1.390 1_565 S
C247 C248 1.387 . S
C247 H250 0.950 . S
C248 C247 1.387 . S
C248 C251 1.387 . S
H249 C245 0.950 . S
H250 C247 0.950 . S
C251 C242 1.390 1_565 S
C251 H244 0.950 . S
C251 C248 1.387 . S
C252 C253 1.387 . S
C252 H256 0.950 1_556 S
C252 C261 1.390 . S
C253 C252 1.387 . S
C253 C255 1.387 . S
H254 C261 0.950 1_554 S
C255 C253 1.387 . S
C255 C257 1.390 . S
C255 H259 0.950 . S
H256 C252 0.950 1_554 S
C257 C255 1.390 . S
C257 C258 1.387 . S
C257 H260 0.950 . S
C258 C257 1.387 . S
C258 C261 1.387 . S
H259 C255 0.950 . S
H260 C257 0.950 . S
C261 C252 1.390 . S
C261 H254 0.950 1_556 S
C261 C258 1.387 . S
C262 C263 1.387 . S
C262 H266 0.950 . S
C262 C271 1.390 1_565 S
C263 C262 1.387 . S
C263 C265 1.387 . S
H264 C271 0.950 . S
C265 C263 1.387 . S
C265 C267 1.390 1_565 S
C265 H269 0.950 . S
H266 C262 0.950 . S
C267 C265 1.390 1_545 S
C267 C268 1.387 . S
C267 H270 0.950 . S
C268 C267 1.387 . S
C268 C271 1.387 . S
H269 C265 0.950 . S
H270 C267 0.950 . S
C271 C262 1.390 1_545 S
C271 H264 0.950 . S
C271 C268 1.387 . S
C113 C13 1.461 . S
C118 C27 1.461 . S
C123 C55 1.457 . S
C128 C41 1.457 . S
C133 C69 1.461 . S
C138 C83 1.461 . S
C143 C97 1.461 . S
C148 C111 1.461 . S
C153 C11 1.579 . S
C158 C39 1.579 . S
C163 C53 1.580 . S
C168 C25 1.580 . S
C173 C67 1.579 . S
C178 C95 1.579 . S
C183 C109 1.581 . S
C188 C81 1.581 . S
C193 C7 1.592 . S
C198 C63 1.592 . S
C203 C21 1.588 . S
C208 C77 1.588 . S
C213 C91 1.588 . S
C218 C35 1.588 . S
C223 C105 1.591 . S
C228 C49 1.591 . S
C233 C22 1.128 . S
C238 C8 1.128 . S
C243 C36 1.131 . S
C248 C50 1.131 . S
C253 C64 1.128 . S
C258 C78 1.128 . S
C263 C92 1.131 . S
C268 C106 1.131 . S
