# Generated by pormake.
# Topology snz, (6)-cn, num edge types: 1
# Building blocks:
#     Node 0, Type 0, BuildingBlock: VOLQOD_clean_sbu_1, # of connection points: 6
#     Node 1, Type 0, BuildingBlock: VOLQOD_clean_sbu_1, # of connection points: 6
#     Node 2, Type 0, BuildingBlock: VOLQOD_clean_sbu_1, # of connection points: 6
#     Node 3, Type 0, BuildingBlock: VOLQOD_clean_sbu_1, # of connection points: 6
#     Node 4, Type 0, BuildingBlock: VOLQOD_clean_sbu_1, # of connection points: 6
#     Node 5, Type 0, BuildingBlock: VOLQOD_clean_sbu_1, # of connection points: 6
#     Node 6, Type 0, BuildingBlock: VOLQOD_clean_sbu_1, # of connection points: 6
#     Node 7, Type 0, BuildingBlock: VOLQOD_clean_sbu_1, # of connection points: 6
#     Node 8, Type 0, BuildingBlock: VOLQOD_clean_sbu_1, # of connection points: 6
#     Edge 9, Type (0, 0), BuildingBlock: TEMPAE_clean_linker_10, # of connection points: 2
#     Edge 10, Type (0, 0), BuildingBlock: TEMPAE_clean_linker_10, # of connection points: 2
#     Edge 11, Type (0, 0), BuildingBlock: TEMPAE_clean_linker_10, # of connection points: 2
#     Edge 12, Type (0, 0), BuildingBlock: TEMPAE_clean_linker_10, # of connection points: 2
#     Edge 13, Type (0, 0), BuildingBlock: TEMPAE_clean_linker_10, # of connection points: 2
#     Edge 14, Type (0, 0), BuildingBlock: TEMPAE_clean_linker_10, # of connection points: 2
#     Edge 15, Type (0, 0), BuildingBlock: TEMPAE_clean_linker_10, # of connection points: 2
#     Edge 16, Type (0, 0), BuildingBlock: TEMPAE_clean_linker_10, # of connection points: 2
#     Edge 17, Type (0, 0), BuildingBlock: TEMPAE_clean_linker_10, # of connection points: 2
#     Edge 18, Type (0, 0), BuildingBlock: TEMPAE_clean_linker_10, # of connection points: 2
#     Edge 19, Type (0, 0), BuildingBlock: TEMPAE_clean_linker_10, # of connection points: 2
#     Edge 20, Type (0, 0), BuildingBlock: TEMPAE_clean_linker_10, # of connection points: 2
#     Edge 21, Type (0, 0), BuildingBlock: TEMPAE_clean_linker_10, # of connection points: 2
#     Edge 22, Type (0, 0), BuildingBlock: TEMPAE_clean_linker_10, # of connection points: 2
#     Edge 23, Type (0, 0), BuildingBlock: TEMPAE_clean_linker_10, # of connection points: 2
#     Edge 24, Type (0, 0), BuildingBlock: TEMPAE_clean_linker_10, # of connection points: 2
#     Edge 25, Type (0, 0), BuildingBlock: TEMPAE_clean_linker_10, # of connection points: 2
#     Edge 26, Type (0, 0), BuildingBlock: TEMPAE_clean_linker_10, # of connection points: 2
#     Edge 27, Type (0, 0), BuildingBlock: TEMPAE_clean_linker_10, # of connection points: 2
#     Edge 28, Type (0, 0), BuildingBlock: TEMPAE_clean_linker_10, # of connection points: 2
#     Edge 29, Type (0, 0), BuildingBlock: TEMPAE_clean_linker_10, # of connection points: 2
#     Edge 30, Type (0, 0), BuildingBlock: TEMPAE_clean_linker_10, # of connection points: 2
#     Edge 31, Type (0, 0), BuildingBlock: TEMPAE_clean_linker_10, # of connection points: 2
#     Edge 32, Type (0, 0), BuildingBlock: TEMPAE_clean_linker_10, # of connection points: 2
#     Edge 33, Type (0, 0), BuildingBlock: TEMPAE_clean_linker_10, # of connection points: 2
#     Edge 34, Type (0, 0), BuildingBlock: TEMPAE_clean_linker_10, # of connection points: 2
#     Edge 35, Type (0, 0), BuildingBlock: TEMPAE_clean_linker_10, # of connection points: 2
# Relax obj value: 0.409
# Max RMSD: 0.302
# Mean RMSD: 0.293
data_MOF--net-snz--node1-VOLQOD_clean_sbu_1--edge1-TEMPAE_clean_linker_10
_symmetry_space_group_name_H-M    P1
_symmetry_Int_Tables_number       1
_symmetry_cell_setting            triclinic
loop_
_symmetry_equiv_pos_as_xyz
'x, y, z'
_cell_length_a     53.330161
_cell_length_b     53.255225
_cell_length_c     15.527073
_cell_angle_alpha  90.002346
_cell_angle_beta   90.024182
_cell_angle_gamma 119.91148
loop_
_atom_site_label
_atom_site_type_symbol
_atom_site_fract_x
_atom_site_fract_y
_atom_site_fract_z
_atom_type_partial_charge
O0 O 0.10011 0.54487 0.92945 0.0
Zn1 Zn 0.09275 0.57258 0.8582 0.0
O2 O 0.05332 0.56327 0.87299 0.0
Zn3 Zn 0.03093 0.54401 0.77651 0.0
Zn4 Zn 0.03426 0.53868 0.96839 0.0
Zn5 Zn 0.05443 0.5993 0.89124 0.0
O6 O 0.00307 0.55801 0.759 0.0
O7 O 0.01866 0.59775 0.83935 0.0
O8 O 0.10141 0.57419 0.73032 0.0
O9 O 0.05673 0.5529 0.67569 0.0
O10 O 0.00638 0.50157 0.7967 0.0
O11 O -0.00337 0.50351 0.93467 0.0
O12 O 0.03001 0.56034 0.06713 0.0
O13 O 0.11696 0.61234 0.90718 0.0
O14 O 0.05707 0.60513 0.01861 0.0
O15 O 0.09263 0.63203 0.85202 0.0
C16 C 0.08513 0.5284 0.99144 0.0
C17 C 0.00017 0.57878 0.78801 0.0
C18 C 0.99099 0.48992 0.86332 0.0
C19 C 0.08404 0.56512 0.6664 0.0
C20 C 0.04529 0.58743 0.08037 0.0
C21 C 0.11466 0.63464 0.89242 0.0
O22 O 0.06043 0.52497 0.011 0.0
O23 O 0.51015 0.58961 0.18411 0.0
Zn24 Zn 0.48626 0.55283 0.11843 0.0
O25 O 0.50056 0.52651 0.13512 0.0
Zn26 Zn 0.49353 0.50673 0.02836 0.0
Zn27 Zn 0.54075 0.54896 0.16272 0.0
Zn28 Zn 0.47933 0.49833 0.22031 0.0
O29 O 0.47262 0.46424 0.04391 0.0
O30 O 0.4704 0.45811 0.1856 0.0
O31 O 0.49276 0.5637 0.99339 0.0
O32 O 0.47248 0.51879 0.94662 0.0
O33 O 0.53114 0.51648 0.97584 0.0
O34 O 0.56497 0.54295 0.07257 0.0
O35 O 0.54689 0.54116 0.28582 0.0
O36 O 0.44388 0.53244 0.14925 0.0
O37 O 0.50173 0.51118 0.33001 0.0
O38 O 0.44096 0.49615 0.22844 0.0
C39 C 0.53769 0.60321 0.18833 0.0
C40 C 0.46665 0.44794 0.10943 0.0
C41 C 0.55744 0.52997 -0.00011 0.0
C42 C 0.4831 0.54564 0.93169 0.0
C43 C 0.52862 0.5275 0.3454 0.0
C44 C 0.42934 0.50974 0.19485 0.0
O45 O 0.55225 0.59098 0.16859 0.0
O46 O 0.43258 0.93935 0.1263 0.0
Zn47 Zn 0.46593 0.95669 0.04001 0.0
O48 O 0.48746 -0.0015 0.05258 0.0
Zn49 Zn 0.48717 0.0185 0.95338 0.0
Zn50 Zn 0.47588 0.01307 0.14735 0.0
Zn51 Zn 0.52582 0.00797 0.07561 0.0
O52 O 0.52669 0.05253 0.93231 0.0
O53 O 0.55388 0.04728 0.031 0.0
O54 O 0.45536 0.94684 0.91376 0.0
O55 O 0.4754 0.99111 0.85607 0.0
O56 O 0.46036 0.03381 0.96774 0.0
O57 O 0.46223 0.04072 0.10931 0.0
O58 O 0.50553 0.02786 0.24238 0.0
O59 O 0.49225 0.94019 0.06231 0.0
O60 O 0.52783 0.00415 0.20231 0.0
O61 O 0.53356 0.97859 0.0231 0.0
C62 C 0.42753 0.95196 0.18849 0.0
C63 C 0.55087 0.06168 0.97036 0.0
C64 C 0.45461 0.04402 0.03411 0.0
C65 C 0.46258 0.96368 0.84866 0.0
C66 C 0.51934 0.01478 0.26113 0.0
C67 C 0.51847 0.95154 0.03761 0.0
O68 O 0.4425 0.97919 0.19969 0.0
O69 O 0.78097 0.94763 0.35286 0.0
Zn70 Zn 0.7617 0.90843 0.2931 0.0
O71 O 0.72047 0.89101 0.30369 0.0
Zn72 Zn 0.70571 0.86334 0.39216 0.0
Zn73 Zn 0.71511 0.92255 0.32837 0.0
Zn74 Zn 0.70049 0.87191 0.20273 0.0
O75 O 0.66788 0.82859 0.35899 0.0
O76 O 0.67817 0.82902 0.22013 0.0
O77 O 0.77382 0.87994 0.33545 0.0
O78 O 0.73291 0.84836 0.40148 0.0
O79 O 0.70494 0.88256 0.50186 0.0
O80 O 0.71371 0.92584 0.45576 0.0
O81 O 0.67956 0.9179 0.27088 0.0
O82 O 0.77052 0.91688 0.16747 0.0
O83 O 0.67058 0.88307 0.17645 0.0
O84 O 0.72863 0.88525 0.10588 0.0
C85 C 0.77425 0.96657 0.33001 0.0
C86 C 0.66312 0.81588 0.28622 0.0
C87 C 0.70952 0.90808 0.51628 0.0
C88 C 0.75852 0.85631 0.37645 0.0
C89 C 0.66445 0.90116 0.2099 0.0
C90 C 0.7552 0.90474 0.10109 0.0
O91 O 0.75027 0.95888 0.29239 0.0
O92 O 0.09539 0.81438 0.55243 0.0
Zn93 Zn 0.13222 0.84149 0.49443 0.0
O94 O 0.1596 0.82848 0.50722 0.0
Zn95 Zn 0.1884 0.84934 0.59311 0.0
Zn96 Zn 0.13798 0.78752 0.5313 0.0
Zn97 Zn 0.17918 0.83725 0.40012 0.0
O98 O 0.22923 0.86046 0.55413 0.0
O99 O 0.22106 0.86082 0.41417 0.0
O100 O 0.14823 0.88094 0.54788 0.0
O101 O 0.18716 0.88575 0.61689 0.0
O102 O 0.17626 0.82581 0.70113 0.0
O103 O 0.14304 0.78155 0.65814 0.0
O104 O 0.14714 0.7651 0.44143 0.0
O105 O 0.1221 0.83894 0.36751 0.0
O106 O 0.17211 0.80051 0.34711 0.0
O107 O 0.1663 0.85703 0.31685 0.0
C108 C 0.08219 0.78688 0.54831 0.0
C109 C 0.23834 0.86659 0.47682 0.0
C110 C 0.15786 0.79947 0.71755 0.0
C111 C 0.17025 0.89526 0.59618 0.0
C112 C 0.16026 0.77403 0.36928 0.0
C113 C 0.1397 0.84827 0.30459 0.0
O114 O 0.09529 0.7734 0.52613 0.0
O115 O 0.13643 0.26481 0.32294 0.0
Zn116 Zn 0.1188 0.28774 0.27589 0.0
O117 O 0.14716 0.32814 0.28612 0.0
Zn118 Zn 0.13932 0.34789 0.37513 0.0
Zn119 Zn 0.18139 0.32829 0.31456 0.0
Zn120 Zn 0.15435 0.34909 0.18354 0.0
O121 O 0.13918 0.38355 0.32798 0.0
O122 O 0.13431 0.37186 0.18866 0.0
O123 O 0.08354 0.27876 0.34731 0.0
O124 O 0.09976 0.32051 0.41784 0.0
O125 O 0.16425 0.3538 0.47969 0.0
O126 O 0.18096 0.32489 0.43983 0.0
O127 O 0.21551 0.365 0.27782 0.0
O128 O 0.11095 0.27729 0.14998 0.0
O129 O 0.19704 0.37824 0.17027 0.0
O130 O 0.13941 0.32047 0.08893 0.0
C131 C 0.16159 0.26888 0.30625 0.0
C132 C 0.13329 0.387 0.25058 0.0
C133 C 0.17459 0.33741 0.49811 0.0
C134 C 0.08029 0.29438 0.4037 0.0
C135 C 0.21829 0.38236 0.21756 0.0
C136 C 0.12215 0.29325 0.08395 0.0
O137 O 0.18064 0.29263 0.27269 0.0
O138 O 0.3534 0.22736 0.89718 0.0
Zn139 Zn 0.33562 0.19137 0.82666 0.0
O140 O 0.29449 0.17084 0.84202 0.0
Zn141 Zn 0.28241 0.1406 0.92541 0.0
Zn142 Zn 0.28347 0.19909 0.87206 0.0
Zn143 Zn 0.27966 0.15365 0.73306 0.0
O144 O 0.24859 0.1025 0.88404 0.0
O145 O 0.25218 0.11184 0.74402 0.0
O146 O 0.3519 0.16638 0.86504 0.0
O147 O 0.31558 0.1335 0.94467 0.0
O148 O 0.27425 0.15505 0.03475 0.0
O149 O 0.2683 0.19189 0.99358 0.0
O150 O 0.25693 0.20076 0.78111 0.0
O151 O 0.34296 0.20314 0.70145 0.0
O152 O 0.25812 0.1714 0.68122 0.0
O153 O 0.31156 0.15989 0.65272 0.0
C154 C 0.34426 0.24511 0.90736 0.0
C155 C 0.24073 0.09441 0.80658 0.0
C156 C 0.26879 0.17525 0.05186 0.0
C157 C 0.34128 0.14455 0.91543 0.0
C158 C 0.25 0.18892 0.70675 0.0
C159 C 0.33187 0.18554 0.63895 0.0
O160 O 0.31865 0.23854 0.88567 0.0
O161 O 0.75541 0.21558 0.71726 0.0
Zn162 Zn 0.79526 0.2366 0.66643 0.0
O163 O 0.8128 0.21305 0.68103 0.0
Zn164 Zn 0.84059 0.22584 0.77076 0.0
Zn165 Zn 0.78206 0.17517 0.7026 0.0
Zn166 Zn 0.83261 0.21303 0.58187 0.0
O167 O 0.87778 0.22759 0.73126 0.0
O168 O 0.87467 0.23952 0.59614 0.0
O169 O 0.82038 0.27557 0.72257 0.0
O170 O 0.85071 0.26647 0.7969 0.0
O171 O 0.82243 0.20248 0.87732 0.0
O172 O 0.77851 0.17044 0.82958 0.0
O173 O 0.78963 0.14528 0.6477 0.0
O174 O 0.78872 0.23927 0.5398 0.0
O175 O 0.82714 0.1734 0.56433 0.0
O176 O 0.8162 0.22299 0.48213 0.0
C177 C 0.7368 0.18957 0.69754 0.0
C178 C 0.88945 0.23824 0.65859 0.0
C179 C 0.79646 0.18245 0.89071 0.0
C180 C 0.84164 0.28357 0.77437 0.0
C181 C 0.80927 0.14856 0.59451 0.0
C182 C 0.7988 0.23268 0.47479 0.0
O183 O 0.74469 0.17235 0.66695 0.0
O184 O 0.80285 0.57478 0.59952 0.0
Zn185 Zn 0.77473 0.58644 0.55312 0.0
O186 O 0.78991 0.62672 0.57408 0.0
Zn187 Zn 0.7567 0.63027 0.5904 0.0
Zn188 Zn 0.81346 0.63859 0.67336 0.0
Zn189 Zn 0.81153 0.64952 0.47996 0.0
O190 O 0.76311 0.66777 0.54103 0.0
O191 O 0.8029 0.68185 0.46289 0.0
O192 O 0.73528 0.56562 0.60782 0.0
O193 O 0.72231 0.59464 0.54527 0.0
O194 O 0.74911 0.62899 0.71591 0.0
O195 O 0.79216 0.64228 0.77356 0.0
O196 O 0.85178 0.67362 0.64883 0.0
O197 O 0.76895 0.58021 0.42663 0.0
O198 O 0.8536 0.66777 0.50733 0.0
O199 O 0.79923 0.62437 0.37532 0.0
C200 C 0.82028 0.58576 0.6628 0.0
C201 C 0.78304 0.68614 0.49218 0.0
C202 C 0.76573 0.63548 0.78069 0.0
C203 C 0.71561 0.57148 0.58686 0.0
C204 C 0.86602 0.67883 0.5788 0.0
C205 C 0.7811 0.59756 0.3642 0.0
O206 O 0.82413 0.60859 0.70076 0.0
C207 C 0.10732 0.60295 0.55636 0.0
C208 C 0.09488 0.57367 0.57869 0.0
C209 C 0.10596 0.61102 0.47123 0.0
C210 C 0.09235 0.58917 0.40804 0.0
C211 C 0.0835 0.55999 0.42853 0.0
C212 C 0.08445 0.55251 0.51435 0.0
C213 C 0.11574 0.64234 0.45168 0.0
C214 C 0.06987 0.53615 0.36207 0.0
C215 C 0.04228 0.59066 0.23903 0.0
C216 C 0.05894 0.59596 0.16495 0.0
C217 C 0.05401 0.59106 0.32014 0.0
C218 C 0.08254 0.59553 0.32591 0.0
C219 C 0.09983 0.60225 0.2513 0.0
C220 C 0.0879 0.60282 0.17156 0.0
C221 C 0.03509 0.58436 0.39881 0.0
C222 C 0.13 0.6065 0.25467 0.0
H223 H 0.11497 0.61921 0.6068 0.0
H224 H 0.07466 0.52986 0.53229 0.0
H225 H 0.12633 0.64874 0.38773 0.0
H226 H 0.0966 0.64536 0.4501 0.0
H227 H 0.13095 0.65708 0.50139 0.0
H228 H 0.06892 0.51588 0.3845 0.0
H229 H 0.04746 0.53139 0.34873 0.0
H230 H 0.08204 0.5429 0.30056 0.0
H231 H 0.01976 0.58484 0.23309 0.0
H232 H 0.10049 0.60628 0.1134 0.0
H233 H 0.04705 0.59998 0.45121 0.0
H234 H 0.02887 0.56238 0.42279 0.0
H235 H 0.01503 0.58508 0.38481 0.0
H236 H 0.14327 0.62336 0.30272 0.0
H237 H 0.141 0.61282 0.19117 0.0
H238 H 0.12903 0.58611 0.2755 0.0
C239 C 0.47777 0.54544 0.77337 0.0
C240 C 0.49546 0.55543 0.84605 0.0
C241 C 0.48978 0.54713 0.69189 0.0
C242 C 0.51994 0.55768 0.68444 0.0
C243 C 0.53804 0.56954 0.75724 0.0
C244 C 0.52554 0.56863 0.83723 0.0
C245 C 0.46987 0.53551 0.61496 0.0
C246 C 0.57004 0.58027 0.7539 0.0
C247 C 0.52907 0.51705 0.50077 0.0
C248 C 0.53662 0.53725 0.4344 0.0
C249 C 0.52723 0.52477 0.58585 0.0
C250 C 0.53133 0.55271 0.60305 0.0
C251 C 0.54157 0.57391 0.53739 0.0
C252 C 0.54461 0.566 0.45368 0.0
C253 C 0.5182 0.50221 0.65577 0.0
C254 C 0.54611 0.60387 0.55308 0.0
H255 H 0.45448 0.53494 0.78094 0.0
H256 H 0.53911 0.57568 0.89428 0.0
H257 H 0.47925 0.55034 0.55911 0.0
H258 H 0.46716 0.5142 0.59611 0.0
H259 H 0.44815 0.5326 0.62895 0.0
H260 H 0.58189 0.59754 0.80248 0.0
H261 H 0.57358 0.56197 0.76974 0.0
H262 H 0.57937 0.58866 0.68942 0.0
H263 H 0.52289 0.49483 0.48539 0.0
H264 H 0.55012 0.58149 0.40167 0.0
H265 H 0.49505 0.49365 0.67155 0.0
H266 H 0.53095 0.51192 0.71527 0.0
H267 H 0.52106 0.48377 0.63565 0.0
H268 H 0.52475 0.60254 0.5594 0.0
H269 H 0.55812 0.61894 0.49946 0.0
H270 H 0.5581 0.61303 0.614 0.0
C271 C 0.49022 0.95431 0.74197 0.0
C272 C 0.46411 0.95302 0.76344 0.0
C273 C 0.50011 0.95913 0.65679 0.0
C274 C 0.48284 0.96165 0.5921 0.0
C275 C 0.45446 0.95568 0.612 0.0
C276 C 0.44566 0.95222 0.69836 0.0
C277 C 0.53051 0.96543 0.63857 0.0
C278 C 0.43468 0.95626 0.54365 0.0
C279 C 0.51691 0.01934 0.42 0.0
C280 C 0.51598 0.00297 0.34858 0.0
C281 C 0.50769 0.00627 0.50094 0.0
C282 C 0.49619 0.97593 0.50933 0.0
C283 C 0.49615 0.95949 0.43789 0.0
C284 C 0.50646 0.97334 0.35851 0.0
C285 C 0.50901 0.02474 0.57656 0.0
C286 C 0.48319 0.92704 0.44306 0.0
H287 H 0.50461 0.95535 0.79308 0.0
H288 H 0.42559 0.9515 0.71544 0.0
H289 H 0.53153 0.95535 0.57716 0.0
H290 H 0.54494 0.98919 0.63223 0.0
H291 H 0.53897 0.95757 0.6912 0.0
H292 H 0.41181 0.94485 0.5655 0.0
H293 H 0.44108 0.97907 0.52888 0.0
H294 H 0.4363 0.94601 0.48328 0.0
H295 H 0.52402 0.04215 0.41192 0.0
H296 H 0.50503 0.96044 0.30266 0.0
H297 H 0.51915 0.02046 0.63289 0.0
H298 H 0.48677 0.01918 0.59547 0.0
H299 H 0.52146 0.04825 0.56148 0.0
H300 H 0.48885 0.92045 0.5045 0.0
H301 H 0.49035 0.91856 0.38869 0.0
H302 H 0.45926 0.91664 0.44038 0.0
C303 C 0.70134 0.90237 0.67339 0.0
C304 C 0.71744 0.91926 0.60381 0.0
C305 C 0.713 0.90858 0.75642 0.0
C306 C 0.74201 0.93108 0.76838 0.0
C307 C 0.75748 0.94959 0.69912 0.0
C308 C 0.74458 0.94384 0.6176 0.0
C309 C 0.69504 0.88957 0.83005 0.0
C310 C 0.78807 0.97443 0.70821 0.0
C311 C 0.76097 0.94277 0.00266 0.0
C312 C 0.76472 0.91894 0.01801 0.0
C313 C 0.7564 0.94932 0.91893 0.0
C314 C 0.75658 0.93206 0.85023 0.0
C315 C 0.7652 0.91117 0.86467 0.0
C316 C 0.76832 0.90417 0.94935 0.0
C317 C 0.74783 0.97209 0.90546 0.0
C318 C 0.76783 0.89395 0.7916 0.0
H319 H 0.68027 0.8835 0.66216 0.0
H320 H 0.75697 0.95695 0.56319 0.0
H321 H 0.70239 0.87401 0.84668 0.0
H322 H 0.69765 0.9028 0.88816 0.0
H323 H 0.67169 0.87701 0.81328 0.0
H324 H 0.78757 0.99501 0.70983 0.0
H325 H 0.79908 0.97318 0.76728 0.0
H326 H 0.80119 0.97539 0.65146 0.0
H327 H 0.75803 0.95396 0.05673 0.0
H328 H 0.77117 0.88572 0.96196 0.0
H329 H 0.72454 0.96141 0.88829 0.0
H330 H 0.76025 0.98653 0.85131 0.0
H331 H 0.75149 0.98547 0.96404 0.0
H332 H 0.74594 0.87663 0.77201 0.0
H333 H 0.78063 0.88359 0.8107 0.0
H334 H 0.7782 0.90805 0.73483 0.0
C335 C 0.11909 0.78846 0.82207 0.0
C336 C 0.14705 0.79323 0.8066 0.0
C337 C 0.11124 0.79367 0.90359 0.0
C338 C 0.13146 0.80261 0.97186 0.0
C339 C 0.15848 0.80403 0.95872 0.0
C340 C 0.16629 0.80011 0.87549 0.0
C341 C 0.08252 0.79244 0.91421 0.0
C342 C 0.17995 0.81175 0.03129 0.0
C343 C 0.14187 0.85631 0.14672 0.0
C344 C 0.12901 0.83799 0.21721 0.0
C345 C 0.13998 0.84484 0.06403 0.0
C346 C 0.12641 0.81436 0.05304 0.0
C347 C 0.1113 0.79591 0.12302 0.0
C348 C 0.11241 0.80804 0.20402 0.0
C349 C 0.15443 0.86541 0.98983 0.0
C350 C 0.0962 0.76338 0.1167 0.0
H351 H 0.10441 0.78373 0.76824 0.0
H352 H 0.18797 0.80403 0.8633 0.0
H353 H 0.08628 0.8147 0.92427 0.0
H354 H 0.06834 0.78294 0.85701 0.0
H355 H 0.071 0.77952 0.97179 0.0
H356 H 0.19806 0.80814 0.01345 0.0
H357 H 0.18919 0.83491 0.04853 0.0
H358 H 0.16902 0.79875 0.08948 0.0
H359 H 0.15485 0.87948 0.15717 0.0
H360 H 0.10285 0.79379 0.25896 0.0
H361 H 0.14082 0.85754 0.93102 0.0
H362 H 0.17541 0.86672 0.97527 0.0
H363 H 0.15867 0.88759 0.00487 0.0
H364 H 0.09224 0.7554 0.04945 0.0
H365 H 0.07515 0.75361 0.15107 0.0
H366 H 0.10963 0.75571 0.14969 0.0
C367 C 0.15788 0.29509 0.59356 0.0
C368 C 0.17 0.32521 0.58493 0.0
C369 C 0.1469 0.28141 0.67248 0.0
C370 C 0.14922 0.29848 0.74473 0.0
C371 C 0.16337 0.32913 0.73766 0.0
C372 C 0.17301 0.34212 0.65698 0.0
C373 C 0.1311 0.24872 0.67685 0.0
C374 C 0.16725 0.34815 0.81454 0.0
C375 C 0.10184 0.28064 0.93802 0.0
C376 C 0.12044 0.2802 0.00046 0.0
C377 C 0.10898 0.28226 0.85065 0.0
C378 C 0.13582 0.28473 0.82744 0.0
C379 C 0.15257 0.28033 0.88975 0.0
C380 C 0.14431 0.27765 0.97611 0.0
C381 C 0.08981 0.2853 0.78482 0.0
C382 C 0.18147 0.28315 0.86805 0.0
H383 H 0.15504 0.28189 0.53717 0.0
H384 H 0.18226 0.36533 0.64975 0.0
H385 H 0.13883 0.24119 0.73199 0.0
H386 H 0.10769 0.24056 0.68712 0.0
H387 H 0.13367 0.23887 0.61683 0.0
H388 H 0.1816 0.3715 0.79999 0.0
H389 H 0.14592 0.34488 0.83518 0.0
H390 H 0.17657 0.34222 0.86954 0.0
H391 H 0.08348 0.28279 0.95762 0.0
H392 H 0.15873 0.2776 0.0254 0.0
H393 H 0.0893 0.27418 0.72386 0.0
H394 H 0.09848 0.30858 0.77005 0.0
H395 H 0.06734 0.27631 0.80902 0.0
H396 H 0.18113 0.27369 0.80421 0.0
H397 H 0.18817 0.27256 0.91742 0.0
H398 H 0.1981 0.30648 0.86575 0.0
C399 C 0.33835 0.18509 0.48121 0.0
C400 C 0.33232 0.19698 0.553 0.0
C401 C 0.32948 0.18823 0.39882 0.0
C402 C 0.31293 0.20223 0.38949 0.0
C403 C 0.30854 0.2159 0.46128 0.0
C404 C 0.31882 0.21357 0.54219 0.0
C405 C 0.33571 0.17443 0.32302 0.0
C406 C 0.29043 0.23029 0.45451 0.0
C407 C 0.2972 0.21275 0.15895 0.0
C408 C 0.27332 0.1854 0.14133 0.0
C409 C 0.3096 0.21953 0.24131 0.0
C410 C 0.29702 0.19878 0.30784 0.0
C411 C 0.27079 0.17257 0.29249 0.0
C412 C 0.25966 0.16582 0.20855 0.0
C413 C 0.33791 0.24736 0.25365 0.0
C414 C 0.25585 0.15051 0.36295 0.0
H415 H 0.34844 0.17193 0.49022 0.0
H416 H 0.31358 0.22214 0.59849 0.0
H417 H 0.31569 0.1543 0.3044 0.0
H418 H 0.34282 0.18919 0.26663 0.0
H419 H 0.35266 0.16878 0.33821 0.0
H420 H 0.28977 0.2407 0.51584 0.0
H421 H 0.2988 0.24686 0.40284 0.0
H422 H 0.26803 0.21381 0.43674 0.0
H423 H 0.30814 0.22766 0.10628 0.0
H424 H 0.24136 0.14462 0.1945 0.0
H425 H 0.35595 0.2427 0.24799 0.0
H426 H 0.33934 0.2568 0.31831 0.0
H427 H 0.34109 0.26372 0.204 0.0
H428 H 0.26794 0.13893 0.37552 0.0
H429 H 0.2333 0.13426 0.34504 0.0
H430 H 0.25543 0.16125 0.42371 0.0
C431 C 0.76106 0.20073 0.37545 0.0
C432 C 0.78473 0.22826 0.39148 0.0
C433 C 0.7548 0.18966 0.29164 0.0
C434 C 0.77222 0.2071 0.2232 0.0
C435 C 0.79321 0.23652 0.23825 0.0
C436 C 0.79976 0.24661 0.32313 0.0
C437 C 0.73252 0.15815 0.27888 0.0
C438 C 0.81125 0.2562 0.16601 0.0
C439 C 0.80107 0.17954 0.04857 0.0
C440 C 0.78505 0.17977 0.97787 0.0
C441 C 0.79496 0.18559 0.13108 0.0
C442 C 0.77334 0.19347 0.14147 0.0
C443 C 0.75573 0.19166 0.07108 0.0
C444 C 0.76148 0.18423 0.98997 0.0
C445 C 0.81328 0.1859 0.20576 0.0
C446 C 0.73294 0.20045 0.07899 0.0
H447 H 0.7498 0.18652 0.42925 0.0
H448 H 0.81822 0.2678 0.33628 0.0
H449 H 0.72124 0.15442 0.2162 0.0
H450 H 0.74354 0.14514 0.27946 0.0
H451 H 0.71618 0.15009 0.33136 0.0
H452 H 0.82196 0.27937 0.18521 0.0
H453 H 0.8283 0.25101 0.14805 0.0
H454 H 0.79776 0.25297 0.10811 0.0
H455 H 0.81928 0.17613 0.0386 0.0
H456 H 0.74937 0.18481 0.93458 0.0
H457 H 0.79956 0.17508 0.2628 0.0
H458 H 0.82883 0.20863 0.22393 0.0
H459 H 0.82574 0.17492 0.18957 0.0
H460 H 0.72044 0.19219 0.13951 0.0
H461 H 0.7177 0.19261 0.02364 0.0
H462 H 0.74367 0.22445 0.08073 0.0
C463 C 0.78709 0.59334 0.20873 0.0
C464 C 0.76887 0.58883 0.27841 0.0
C465 C 0.77809 0.59464 0.1252 0.0
C466 C 0.75087 0.59282 0.11288 0.0
C467 C 0.73137 0.58553 0.18234 0.0
C468 C 0.74057 0.5832 0.26484 0.0
C469 C 0.79892 0.60098 0.05155 0.0
C470 C 0.70239 0.58375 0.17214 0.0
C471 C 0.76303 0.64481 0.93491 0.0
C472 C 0.7527 0.62587 0.8651 0.0
C473 C 0.75886 0.63392 0.01879 0.0
C474 C 0.74561 0.60356 0.03126 0.0
C475 C 0.73283 0.58442 0.9612 0.0
C476 C 0.73597 0.59596 0.87849 0.0
C477 C 0.77168 0.65494 0.09286 0.0
C478 C 0.71869 0.552 0.97219 0.0
H479 H 0.80899 0.59775 0.22019 0.0
H480 H 0.72674 0.58012 0.31975 0.0
H481 H 0.78747 0.58757 0.99453 0.0
H482 H 0.80864 0.62407 0.03266 0.0
H483 H 0.8167 0.59682 0.06939 0.0
H484 H 0.68709 0.57022 0.22348 0.0
H485 H 0.7054 0.60589 0.17719 0.0
H486 H 0.69255 0.57485 0.10847 0.0
H487 H 0.77608 0.66793 0.9236 0.0
H488 H 0.7282 0.58149 0.82344 0.0
H489 H 0.79235 0.65643 0.1129 0.0
H490 H 0.75689 0.64737 0.14914 0.0
H491 H 0.77615 0.67699 0.07479 0.0
H492 H 0.73385 0.5463 0.00386 0.0
H493 H 0.71186 0.54036 0.90972 0.0
H494 H 0.69943 0.54414 0.01426 0.0
C495 C 0.10655 0.40432 0.16182 0.0
C496 C 0.12589 0.40941 0.22941 0.0
C497 C 0.10153 0.42617 0.13219 0.0
C498 C 0.11665 0.45399 0.17019 0.0
C499 C 0.13562 0.45911 0.24029 0.0
C500 C 0.13985 0.43654 0.26977 0.0
C501 C 0.08053 0.41962 0.05874 0.0
C502 C 0.15227 0.48862 0.28162 0.0
C503 C 0.12017 0.51067 0.01651 0.0
C504 C 0.0961 0.51261 0.04312 0.0
C505 C 0.12861 0.49326 0.06165 0.0
C506 C 0.1125 0.47747 0.13458 0.0
C507 C 0.08949 0.48096 0.16511 0.0
C508 C 0.0816 0.49853 0.11912 0.0
C509 C 0.15362 0.49036 0.02819 0.0
C510 C 0.07184 0.46457 0.24276 0.0
H511 H 0.09559 0.38321 0.13115 0.0
H512 H 0.15504 0.44048 0.32153 0.0
H513 H 0.06372 0.42507 0.07744 0.0
H514 H 0.09213 0.43315 0.0021 0.0
H515 H 0.06963 0.39649 0.03907 0.0
H516 H 0.16398 0.48831 0.34044 0.0
H517 H 0.16826 0.50412 0.23501 0.0
H518 H 0.13754 0.49691 0.29887 0.0
H519 H 0.13173 0.52183 0.95867 0.0
H520 H 0.06339 0.50046 0.14156 0.0
H521 H 0.14525 0.46867 -0.00152 0.0
H522 H 0.16818 0.49211 0.08175 0.0
H523 H 0.16641 0.50707 0.97905 0.0
H524 H 0.05723 0.47257 0.26465 0.0
H525 H 0.08614 0.4663 0.29702 0.0
H526 H 0.05844 0.44126 0.22636 0.0
C527 C 0.53888 0.64973 0.22301 0.0
C528 C 0.55335 0.63392 0.215 0.0
C529 C 0.55415 0.67942 0.24229 0.0
C530 C 0.58448 0.69343 0.25389 0.0
C531 C 0.59898 0.67732 0.24971 0.0
C532 C 0.58323 0.64776 0.23025 0.0
C533 C 0.53804 0.696 0.24676 0.0
C534 C 0.63133 0.69152 0.26231 0.0
C535 C 0.63251 0.77223 0.19697 0.0
C536 C 0.64065 0.78509 0.27856 0.0
C537 C 0.6131 0.74256 0.18816 0.0
C538 C 0.60165 0.72532 0.2628 0.0
C539 C 0.60876 0.7383 0.34531 0.0
C540 C 0.6282 0.76813 0.35226 0.0
C541 C 0.60586 0.72947 0.09898 0.0
C542 C 0.59689 0.72049 0.42621 0.0
H543 H 0.51577 0.63914 0.21186 0.0
H544 H 0.59454 0.63562 0.22544 0.0
H545 H 0.54387 0.70923 0.30636 0.0
H546 H 0.54436 0.71114 0.19143 0.0
H547 H 0.51421 0.68144 0.24517 0.0
H548 H 0.63894 0.67553 0.26316 0.0
H549 H 0.6426 0.70717 0.20943 0.0
H550 H 0.63781 0.70385 0.32362 0.0
H551 H 0.64178 0.78526 0.13967 0.0
H552 H 0.63433 0.77794 0.41554 0.0
H553 H 0.58208 0.71633 0.09054 0.0
H554 H 0.6148 0.71476 0.09038 0.0
H555 H 0.61479 0.7462 0.04758 0.0
H556 H 0.57309 0.70632 0.42134 0.0
H557 H 0.60193 0.73425 0.4846 0.0
H558 H 0.60632 0.70619 0.43433 0.0
C559 C 0.40123 0.94963 0.32307 0.0
C560 C 0.4036 0.93549 0.24966 0.0
C561 C 0.37662 0.93664 0.37509 0.0
C562 C 0.35405 0.90859 0.35432 0.0
C563 C 0.35752 0.89301 0.28574 0.0
C564 C 0.38231 0.90674 0.23365 0.0
C565 C 0.37348 0.95419 0.44646 0.0
C566 C 0.33391 0.86286 0.26248 0.0
C567 C 0.28773 0.87281 0.4993 0.0
C568 C 0.2692 0.87993 0.45525 0.0
C569 C 0.31574 0.88202 0.46768 0.0
C570 C 0.32499 0.89862 0.39098 0.0
C571 C 0.30662 0.90675 0.34873 0.0
C572 C 0.27906 0.89737 0.38157 0.0
C573 C 0.335 0.87326 0.51435 0.0
C574 C 0.31579 0.9249 0.26759 0.0
H575 H 0.41798 0.97159 0.33769 0.0
H576 H 0.38424 0.89551 0.17806 0.0
H577 H 0.35747 0.96066 0.42709 0.0
H578 H 0.36527 0.94108 0.50602 0.0
H579 H 0.39421 0.97418 0.46111 0.0
H580 H 0.34191 0.85181 0.21903 0.0
H581 H 0.32467 0.84951 0.32119 0.0
H582 H 0.31616 0.86415 0.2292 0.0
H583 H 0.27995 0.85909 0.55584 0.0
H584 H 0.26479 0.90312 0.34798 0.0
H585 H 0.35652 0.89249 0.5269 0.0
H586 H 0.33856 0.85827 0.47326 0.0
H587 H 0.32551 0.86232 0.57653 0.0
H588 H 0.33582 0.94583 0.27961 0.0
H589 H 0.29889 0.92953 0.24352 0.0
H590 H 0.32063 0.91351 0.21606 0.0
C591 C 0.42444 0.05735 0.94409 0.0
C592 C 0.43863 0.05978 0.02237 0.0
C593 C 0.4092 0.07206 0.93055 0.0
C594 C 0.40836 0.08989 -0.0034 0.0
C595 C 0.42273 0.09263 0.07568 0.0
C596 C 0.43759 0.07735 0.08791 0.0
C597 C 0.3938 0.06832 0.8457 0.0
C598 C 0.42243 0.11173 0.14706 0.0
C599 C 0.38857 0.14538 0.92103 0.0
C600 C 0.35894 0.1314 0.9402 0.0
C601 C 0.40526 0.13261 0.94222 0.0
C602 C 0.39188 0.10515 0.98266 0.0
C603 C 0.36215 0.09122 0.00381 0.0
C604 C 0.34606 0.10457 0.98263 0.0
C605 C 0.437 0.14814 0.9193 0.0
C606 C 0.3471 0.06174 0.04607 0.0
H607 H 0.42497 0.04366 0.89329 0.0
H608 H 0.44864 0.0794 0.14836 0.0
H609 H 0.37034 0.05947 0.85703 0.0
H610 H 0.40214 0.08963 0.81364 0.0
H611 H 0.39656 0.05355 0.80112 0.0
H612 H 0.43513 0.11193 0.20404 0.0
H613 H 0.43145 0.13426 0.12336 0.0
H614 H 0.39985 0.10415 0.16764 0.0
H615 H 0.39874 0.16622 0.88897 0.0
H616 H 0.32317 0.09361 -0.00228 0.0
H617 H 0.44104 0.13568 0.86935 0.0
H618 H 0.45014 0.1496 0.97649 0.0
H619 H 0.44459 0.17034 0.89444 0.0
H620 H 0.34736 0.04547 0.00198 0.0
H621 H 0.32427 0.05464 0.06283 0.0
H622 H 0.35872 0.06195 0.10557 0.0
C623 C 0.85231 0.33506 0.77066 0.0
C624 C 0.85804 0.31396 0.80408 0.0
C625 C 0.87086 0.36454 0.78841 0.0
C626 C 0.89568 0.37291 0.84003 0.0
C627 C 0.90034 0.3516 0.87899 0.0
C628 C 0.88137 0.32238 0.86092 0.0
C629 C 0.86496 0.38675 0.74727 0.0
C630 C 0.9266 0.35966 0.93435 0.0
C631 C 0.96414 0.44258 0.78764 0.0
C632 C 0.96606 0.46031 0.85691 0.0
C633 C 0.94092 0.41429 0.78059 0.0
C634 C 0.91887 0.40362 0.84377 0.0
C635 C 0.92021 0.42162 0.9127 0.0
C636 C 0.944 0.44976 0.91892 0.0
C637 C 0.94043 0.39557 0.7067 0.0
C638 C 0.8968 0.411 0.98036 0.0
H639 H 0.83414 0.32872 0.72752 0.0
H640 H 0.88574 0.30623 0.88831 0.0
H641 H 0.86831 0.40384 0.79429 0.0
H642 H 0.88031 0.39743 0.69336 0.0
H643 H 0.84258 0.37682 0.72145 0.0
H644 H 0.92536 0.34056 0.96736 0.0
H645 H 0.9463 0.3697 0.89349 0.0
H646 H 0.92921 0.37583 0.98372 0.0
H647 H 0.98114 0.45062 0.73958 0.0
H648 H 0.94524 0.46353 0.97205 0.0
H649 H 0.92 0.38729 0.6698 0.0
H650 H 0.94124 0.37651 0.73209 0.0
H651 H 0.95888 0.40746 0.66181 0.0
H652 H 0.87526 0.40202 0.94941 0.0
H653 H 0.89985 0.42847 0.02558 0.0
H654 H 0.89668 0.39324 0.01798 0.0
C655 C 0.68196 0.53618 0.69602 0.0
C656 C 0.68741 0.55678 0.63162 0.0
C657 C 0.65872 0.52759 0.7532 0.0
C658 C 0.64086 0.54015 0.746 0.0
C659 C 0.64484 0.55905 0.6768 0.0
C660 C 0.66786 0.56686 0.61984 0.0
C661 C 0.65408 0.50621 0.82379 0.0
C662 C 0.62603 0.5726 0.66613 0.0
C663 C 0.57068 0.51186 0.86937 0.0
C664 C 0.57937 0.53105 0.93962 0.0
C665 C 0.59061 0.51386 0.80722 0.0
C666 C 0.61985 0.53579 0.81497 0.0
C667 C 0.62893 0.55473 0.8869 0.0
C668 C 0.60857 0.552 0.94876 0.0
C669 C 0.58013 0.49304 0.73214 0.0
C670 C 0.66004 0.57832 0.89739 0.0
H671 H 0.69673 0.52796 0.70489 0.0
H672 H 0.6716 0.5824 0.56934 0.0
H673 H 0.65676 0.51659 0.88767 0.0
H674 H 0.63164 0.48767 0.82083 0.0
H675 H 0.66936 0.4978 0.81914 0.0
H676 H 0.63209 0.58698 0.60889 0.0
H677 H 0.60309 0.55544 0.65932 0.0
H678 H 0.62783 0.58554 0.72421 0.0
H679 H 0.54812 0.49543 0.86213 0.0
H680 H 0.61539 0.56688 0.00275 0.0
H681 H 0.59502 0.48455 0.71978 0.0
H682 H 0.57967 0.50454 0.67315 0.0
H683 H 0.55802 0.47448 0.74308 0.0
H684 H 0.67417 0.56859 0.89879 0.0
H685 H 0.66368 0.59107 0.95736 0.0
H686 H 0.66676 0.59328 0.84148 0.0
C687 C 0.85011 0.57699 0.76766 0.0
C688 C 0.84108 0.57614 0.6825 0.0
C689 C 0.87499 0.57538 0.78608 0.0
C690 C 0.89163 0.5739 0.71736 0.0
C691 C 0.88188 0.57177 0.6314 0.0
C692 C 0.85638 0.57248 0.61508 0.0
C693 C 0.88418 0.57666 0.87873 0.0
C694 C 0.89936 0.57073 0.5564 0.0
C695 C 0.97171 0.60383 0.76081 0.0
C696 C 0.97288 0.57828 0.76892 0.0
C697 C 0.94538 0.60276 0.74254 0.0
C698 C 0.9197 0.57549 0.7352 0.0
C699 C 0.92079 0.54969 0.74512 0.0
C700 C 0.94743 0.55141 0.76065 0.0
C701 C 0.94504 0.63073 0.73049 0.0
C702 C 0.89378 0.52027 0.74047 0.0
H703 H 0.83832 0.58009 0.8196 0.0
H704 H 0.84971 0.57251 0.5491 0.0
H705 H 0.88915 0.55913 0.89205 0.0
H706 H 0.90419 0.59758 0.89099 0.0
H707 H 0.86726 0.57462 0.92456 0.0
H708 H 0.88806 0.56769 0.49388 0.0
H709 H 0.9204 0.59125 0.55368 0.0
H710 H 0.90415 0.55287 0.56494 0.0
H711 H 0.99141 0.62457 0.76718 0.0
H712 H 0.94823 0.53158 0.7684 0.0
H713 H 0.93113 0.63265 0.78009 0.0
H714 H 0.93567 0.6308 0.66673 0.0
H715 H 0.96703 0.65004 0.73494 0.0
H716 H 0.87787 0.51884 0.78908 0.0
H717 H 0.89831 0.50232 0.7519 0.0
H718 H 0.88347 0.51714 0.67632 0.0
C719 C 0.45678 0.40674 0.01392 0.0
C720 C 0.45351 0.41655 0.09464 0.0
C721 C 0.44067 0.37748 0.9917 0.0
C722 C 0.42083 0.35756 0.0518 0.0
C723 C 0.41891 0.36692 0.13567 0.0
C724 C 0.43539 0.39647 0.15629 0.0
C725 C 0.44349 0.3683 0.90178 0.0
C726 C 0.39814 0.3461 0.20154 0.0
C727 C 0.35569 0.29511 0.94681 0.0
C728 C 0.36336 0.27349 0.94764 0.0
C729 C 0.37378 0.32227 0.98364 0.0
C730 C 0.40003 0.32781 0.02282 0.0
C731 C 0.40743 0.30579 0.02668 0.0
C732 C 0.38905 0.27887 0.98856 0.0
C733 C 0.36528 0.34537 0.9779 0.0
C734 C 0.43511 0.31091 0.06887 0.0
H735 H 0.47115 0.42216 0.96654 0.0
H736 H 0.43287 0.404 0.21882 0.0
H737 H 0.44668 0.34927 0.90415 0.0
H738 H 0.42324 0.36177 0.86534 0.0
H739 H 0.4618 0.38594 0.86576 0.0
H740 H 0.40247 0.35575 0.26708 0.0
H741 H 0.37569 0.33996 0.18324 0.0
H742 H 0.39938 0.32592 0.20354 0.0
H743 H 0.33579 0.29104 0.91582 0.0
H744 H 0.39488 0.26209 0.99066 0.0
H745 H 0.38111 0.36353 0.9373 0.0
H746 H 0.36568 0.3543 0.04275 0.0
H747 H 0.34337 0.33703 0.9498 0.0
H748 H 0.43628 0.29071 0.074 0.0
H749 H 0.43711 0.32009 0.13431 0.0
H750 H 0.45393 0.32694 0.03087 0.0
C751 C 0.69851 0.19241 0.78244 0.0
C752 C 0.70634 0.17759 0.72327 0.0
C753 C 0.6712 0.17852 0.8216 0.0
C754 C 0.65158 0.14925 0.80109 0.0
C755 C 0.65841 0.13516 0.73559 0.0
C756 C 0.68572 0.14958 0.69721 0.0
C757 C 0.66433 0.19442 0.88968 0.0
C758 C 0.63792 0.10397 0.71137 0.0
C759 C 0.60413 0.09524 0.96788 0.0
C760 C 0.57653 0.08801 0.93801 0.0
C761 C 0.62897 0.11686 0.92743 0.0
C762 C 0.62606 0.13176 0.85608 0.0
C763 C 0.59839 0.12647 0.83071 0.0
C764 C 0.57384 0.10445 0.87172 0.0
C765 C 0.65821 0.12201 0.95669 0.0
C766 C 0.59457 0.14257 0.75652 0.0
H767 H 0.71427 0.21419 0.80233 0.0
H768 H 0.69148 0.13823 0.6503 0.0
H769 H 0.64145 0.18914 0.88519 0.0
H770 H 0.66754 0.18762 0.95438 0.0
H771 H 0.67859 0.21826 0.88435 0.0
H772 H 0.64537 0.09717 0.65371 0.0
H773 H 0.63607 0.08966 0.76592 0.0
H774 H 0.616 0.10055 0.69829 0.0
H775 H 0.60641 0.08292 0.01978 0.0
H776 H 0.55256 0.09934 0.84926 0.0
H777 H 0.67344 0.14549 0.96553 0.0
H778 H 0.66745 0.11411 0.90657 0.0
H779 H 0.65691 0.1107 0.01807 0.0
H780 H 0.61128 0.16586 0.75815 0.0
H781 H 0.57282 0.1406 0.75709 0.0
H782 H 0.59706 0.1335 0.69489 0.0
C783 C 0.55954 0.94502 0.99381 0.0
C784 C 0.53333 0.93455 0.03817 0.0
C785 C 0.57797 0.93402 0.01077 0.0
C786 C 0.56988 0.91213 0.07373 0.0
C787 C 0.54199 0.89916 0.11116 0.0
C788 C 0.52389 0.91055 0.09271 0.0
C789 C 0.60737 0.94811 0.96842 0.0
C790 C 0.53246 0.87542 0.17748 0.0
C791 C 0.62209 0.88444 0.1105 0.0
C792 C 0.63928 0.90275 0.17725 0.0
C793 C 0.59864 0.88642 0.07767 0.0
C794 C 0.59249 0.9073 0.11219 0.0
C795 C 0.60931 0.92533 0.18091 0.0
C796 C 0.63247 0.92281 0.21262 0.0
C797 C 0.58101 0.86677 0.00474 0.0
C798 C 0.60335 0.94791 0.21954 0.0
H799 H 0.56656 0.96318 0.95002 0.0
H800 H 0.50348 0.90221 0.12647 0.0
H801 H 0.62396 0.96276 0.01529 0.0
H802 H 0.61311 0.93163 0.94838 0.0
H803 H 0.60835 0.96108 0.91114 0.0
H804 H 0.50861 0.86362 0.18619 0.0
H805 H 0.53942 0.85968 0.15922 0.0
H806 H 0.54266 0.88507 0.24029 0.0
H807 H 0.62711 0.86873 0.08311 0.0
H808 H 0.64551 0.93691 0.26449 0.0
H809 H 0.58531 0.87965 0.94488 0.0
H810 H 0.55755 0.85673 0.01863 0.0
H811 H 0.58623 0.84931 0.99273 0.0
H812 H 0.60642 0.96419 0.1699 0.0
H813 H 0.61778 0.95938 0.27488 0.0
H814 H 0.58059 0.93766 0.24183 0.0
C815 C 0.13688 0.72504 0.30089 0.0
C816 C 0.15999 0.7535 0.30486 0.0
C817 C 0.13375 0.70729 0.23014 0.0
C818 C 0.15452 0.71815 0.1629 0.0
C819 C 0.17878 0.74627 0.16926 0.0
C820 C 0.18115 0.76367 0.23996 0.0
C821 C 0.10766 0.67731 0.22572 0.0
C822 C 0.20158 0.75838 0.09969 0.0
C823 C 0.14983 0.66018 0.01172 0.0
C824 C 0.13146 0.66049 0.94724 0.0
C825 C 0.15905 0.68004 0.08009 0.0
C826 C 0.14976 0.70067 0.08368 0.0
C827 C 0.1338 0.70295 0.01417 0.0
C828 C 0.12489 0.68288 0.94671 0.0
C829 C 0.17716 0.67779 0.15116 0.0
C830 C 0.12354 0.72466 0.01439 0.0
H831 H 0.12042 0.71717 0.35059 0.0
H832 H 0.1992 0.78565 0.24313 0.0
H833 H 0.09443 0.67545 0.16831 0.0
H834 H 0.11486 0.66121 0.21852 0.0
H835 H 0.09383 0.67179 0.28405 0.0
H836 H 0.21888 0.78092 0.11363 0.0
H837 H 0.21162 0.74459 0.09268 0.0
H838 H 0.19152 0.7581 0.03685 0.0
H839 H 0.15542 0.64321 0.01221 0.0
H840 H 0.111 0.68354 0.89683 0.0
H841 H 0.16466 0.6714 0.21213 0.0
H842 H 0.19671 0.69917 0.16243 0.0
H843 H 0.18404 0.66173 0.13624 0.0
H844 H 0.10338 0.71561 0.05294 0.0
H845 H 0.11861 0.72899 0.9483 0.0
H846 H 0.13972 0.74547 0.04372 0.0
C847 C 0.38114 0.46636 0.21605 0.0
C848 C 0.39756 0.49614 0.1992 0.0
C849 C 0.351 0.45184 0.21265 0.0
C850 C 0.33674 0.46758 0.19394 0.0
C851 C 0.35303 0.49777 0.17837 0.0
C852 C 0.38342 0.51171 0.18015 0.0
C853 C 0.33445 0.41951 0.22863 0.0
C854 C 0.33838 0.51521 0.16021 0.0
C855 C 0.25995 0.41602 0.12595 0.0
C856 C 0.24658 0.40844 0.20659 0.0
C857 C 0.28915 0.43756 0.11903 0.0
C858 C 0.30471 0.45197 0.19441 0.0
C859 C 0.29018 0.44641 0.27432 0.0
C860 C 0.26134 0.42431 0.27966 0.0
C861 C 0.30399 0.44265 0.03286 0.0
C862 C 0.30577 0.46177 0.35577 0.0
H863 H 0.39187 0.45405 0.22948 0.0
H864 H 0.39607 0.53472 0.16681 0.0
H865 H 0.32084 0.41471 0.28705 0.0
H866 H 0.31979 0.40822 0.17368 0.0
H867 H 0.34896 0.41034 0.23771 0.0
H868 H 0.35418 0.5385 0.14943 0.0
H869 H 0.32437 0.50654 0.10249 0.0
H870 H 0.32419 0.5133 0.21502 0.0
H871 H 0.24828 0.40369 0.06958 0.0
H872 H 0.25062 0.41864 0.3418 0.0
H873 H 0.31689 0.43152 0.03168 0.0
H874 H 0.31909 0.46606 0.02208 0.0
H875 H 0.28818 0.43411 0.97897 0.0
H876 H 0.31914 0.4525 0.37883 0.0
H877 H 0.29042 0.45932 0.40781 0.0
H878 H 0.32049 0.48518 0.34365 0.0
C879 C 0.79787 0.72945 0.39851 0.0
C880 C 0.784 0.71368 0.47284 0.0
C881 C 0.79825 0.75536 0.37899 0.0
C882 C 0.78492 0.76587 0.43612 0.0
C883 C 0.7721 0.7507 0.51324 0.0
C884 C 0.7715 0.7246 0.53016 0.0
C885 C 0.81161 0.77068 0.29542 0.0
C886 C 0.758 0.76145 0.57636 0.0
C887 C 0.79448 0.84137 0.41951 0.0
C888 C 0.76792 0.83481 0.38304 0.0
C889 C 0.80105 0.81923 0.43455 0.0
C890 C 0.78076 0.79035 0.41065 0.0
C891 C 0.75475 0.7842 0.36889 0.0
C892 C 0.74855 0.80648 0.35647 0.0
C893 C 0.82882 0.8264 0.48015 0.0
C894 C 0.73274 0.75384 0.34099 0.0
H895 H 0.80767 0.72108 0.35427 0.0
H896 H 0.76125 0.71274 0.58855 0.0
H897 H 0.82637 0.79414 0.30677 0.0
H898 H 0.82387 0.76157 0.26289 0.0
H899 H 0.79432 0.76862 0.25126 0.0
H900 H 0.75206 0.74902 0.63762 0.0
H901 H 0.7727 0.78468 0.59116 0.0
H902 H 0.73807 0.75948 0.54739 0.0
H903 H 0.80933 0.86337 0.43996 0.0
H904 H 0.72815 0.80164 0.32713 0.0
H905 H 0.84007 0.81651 0.44621 0.0
H906 H 0.8238 0.81718 0.54614 0.0
H907 H 0.84373 0.85014 0.48512 0.0
H908 H 0.74331 0.74411 0.30273 0.0
H909 H 0.71504 0.75333 0.30186 0.0
H910 H 0.723 0.74 0.39858 0.0
C911 C 0.21219 0.05576 0.69995 0.0
C912 C 0.22066 0.06364 0.7859 0.0
C913 C 0.19928 0.02689 0.67356 0.0
C914 C 0.19407 0.00526 0.73505 0.0
C915 C 0.19961 0.01263 0.82338 0.0
C916 C 0.2131 0.04189 0.84789 0.0
C917 C 0.19395 0.02003 0.57858 0.0
C918 C 0.19344 0.98992 0.89102 0.0
C919 C 0.15317 0.92826 0.65053 0.0
C920 C 0.17601 0.92321 0.63196 0.0
C921 C 0.15851 0.95445 0.68802 0.0
C922 C 0.18738 0.97621 0.70468 0.0
C923 C 0.21048 0.97113 0.68602 0.0
C924 C 0.20445 0.94452 0.65087 0.0
C925 C 0.13339 0.95891 0.7093 0.0
C926 C 0.24165 0.99408 0.70104 0.0
H927 H 0.2174 0.07237 0.65174 0.0
H928 H 0.21924 0.04776 0.9146 0.0
H929 H 0.20995 0.01429 0.55357 0.0
H930 H 0.17213 0.00113 0.56752 0.0
H931 H 0.19597 0.03865 0.54071 0.0
H932 H 0.19336 -0.00196 0.95688 0.0
H933 H 0.17228 0.97016 0.87898 0.0
H934 H 0.21035 0.98361 0.88841 0.0
H935 H 0.1311 0.91152 0.6372 0.0
H936 H 0.22209 0.94059 0.63649 0.0
H937 H 0.13416 0.97633 0.66829 0.0
H938 H 0.13485 0.96597 0.77726 0.0
H939 H 0.11219 0.93892 0.69936 0.0
H940 H 0.24698 0.01362 0.66222 0.0
H941 H 0.25699 0.98651 0.68364 0.0
H942 H 0.24503 0.00071 0.7697 0.0
C943 C 0.93506 0.26883 0.58033 0.0
C944 C 0.91996 0.24738 0.64217 0.0
C945 C 0.96243 0.27501 0.55247 0.0
C946 C 0.97487 0.2591 0.58676 0.0
C947 C 0.96037 0.23835 0.65238 0.0
C948 C 0.93296 0.2328 0.67981 0.0
C949 C 0.9775 0.29779 0.48371 0.0
C950 C 0.97306 0.22104 0.69031 0.0
C951 C 0.02804 0.25828 0.42814 0.0
C952 C 0.05381 0.28221 0.45644 0.0
C953 C 0.00225 0.2489 0.47422 0.0
C954 C 0.0025 0.26376 0.55022 0.0
C955 C 0.02891 0.28635 0.58271 0.0
C956 C 0.05425 0.2954 0.53518 0.0
C957 C 0.97444 0.22445 0.43833 0.0
C958 C 0.03015 0.30239 0.66428 0.0
H959 H 0.92507 0.2803 0.5519 0.0
H960 H 0.92114 0.21605 0.72725 0.0
H961 H -0.00049 0.31412 0.50552 0.0
H962 H 0.97994 0.28757 0.42443 0.0
H963 H 0.96544 0.30915 0.46707 0.0
H964 H 0.96125 0.209 0.74894 0.0
H965 H 0.97194 0.20518 0.64192 0.0
H966 H -0.0038 0.23533 0.70684 0.0
H967 H 0.02772 0.24778 0.36801 0.0
H968 H 0.07433 0.3134 0.55874 0.0
H969 H 0.96107 0.23329 0.41206 0.0
H970 H 0.96172 0.20885 0.48991 0.0
H971 H 0.97841 0.21263 0.38599 0.0
H972 H 0.02112 0.31683 0.65153 0.0
H973 H 0.05265 0.31584 0.6883 0.0
H974 H 0.01688 0.28705 0.71571 0.0
C975 C 0.22281 0.18073 0.56908 0.0
C976 C 0.2333 0.19637 0.64618 0.0
C977 C 0.20899 0.18875 0.50724 0.0
C978 C 0.20575 0.21312 0.52266 0.0
C979 C 0.21554 0.22855 0.60128 0.0
C980 C 0.22914 0.21992 0.6623 0.0
C981 C 0.19894 0.17178 0.42425 0.0
C982 C 0.21256 0.25482 0.61958 0.0
C983 C 0.19999 0.25675 0.33949 0.0
C984 C 0.17105 0.24986 0.34654 0.0
C985 C 0.21137 0.24404 0.39413 0.0
C986 C 0.19316 0.22338 0.45571 0.0
C987 C 0.16333 0.21436 0.45772 0.0
C988 C 0.1526 0.22779 0.40318 0.0
C989 C 0.24313 0.25362 0.3876 0.0
C990 C 0.14311 0.19165 0.52062 0.0
H991 H 0.22582 0.16241 0.55607 0.0
H992 H 0.23725 0.23215 0.72152 0.0
H993 H 0.1774 0.16828 0.40493 0.0
H994 H 0.21442 0.18418 0.37209 0.0
H995 H 0.1977 0.15038 0.42953 0.0
H996 H 0.22052 0.26391 0.68479 0.0
H997 H 0.22498 0.27189 0.57106 0.0
H998 H 0.18959 0.24916 0.61413 0.0
H999 H 0.21425 0.27337 0.29467 0.0
H1000 H 0.1301 0.22208 0.40843 0.0
H1001 H 0.24548 0.23624 0.35608 0.0
H1002 H 0.25324 0.25763 0.45231 0.0
H1003 H 0.25522 0.27364 0.34857 0.0
H1004 H 0.14492 0.17184 0.51479 0.0
H1005 H 0.12019 0.18571 0.5102 0.0
H1006 H 0.1493 0.19978 0.58748 0.0
C1007 C 0.78584 0.01766 0.32201 0.0
C1008 C 0.79084 -0.00324 0.36058 0.0
C1009 C 0.79457 0.04422 0.36217 0.0
C1010 C 0.80902 0.05018 0.44235 0.0
C1011 C 0.81691 0.03051 0.47709 0.0
C1012 C 0.80757 0.00379 0.43583 0.0
C1013 C 0.78595 0.06473 0.32244 0.0
C1014 C 0.83349 0.03692 0.56054 0.0
C1015 C 0.83485 0.12687 0.51607 0.0
C1016 C 0.81108 0.12311 0.56506 0.0
C1017 C 0.83567 0.10305 0.48091 0.0
C1018 C 0.81197 0.0749 0.49408 0.0
C1019 C 0.78875 0.07083 0.54779 0.0
C1020 C 0.78865 0.09501 0.58293 0.0
C1021 C 0.86109 0.10827 0.42552 0.0
C1022 C 0.76309 0.04105 0.56372 0.0
H1023 H 0.77336 0.01248 0.26295 0.0
H1024 H 0.81164 0.98776 0.46562 0.0
H1025 H 0.76923 0.06549 0.36311 0.0
H1026 H 0.80477 0.087 0.31944 0.0
H1027 H 0.77707 0.05803 0.25639 0.0
H1028 H 0.84043 0.02084 0.57453 0.0
H1029 H 0.85291 0.05884 0.55831 0.0
H1030 H 0.81982 0.03686 0.61441 0.0
H1031 H 0.85258 0.14851 0.50321 0.0
H1032 H 0.77037 0.09191 0.62146 0.0
H1033 H 0.85534 0.10795 0.3567 0.0
H1034 H 0.8668 0.09109 0.43507 0.0
H1035 H 0.88043 0.12965 0.43937 0.0
H1036 H 0.751 0.03227 0.50266 0.0
H1037 H 0.74803 0.04137 0.61253 0.0
H1038 H 0.77042 0.02595 0.58584 0.0
C1039 C 0.91259 0.69898 0.65881 0.0
C1040 C 0.89778 0.69615 0.58153 0.0
C1041 C 0.94285 0.71331 0.66079 0.0
C1042 C 0.95848 0.72535 0.58393 0.0
C1043 C 0.94366 0.72301 0.50609 0.0
C1044 C 0.91342 0.70827 0.50575 0.0
C1045 C 0.95808 0.71503 0.74448 0.0
C1046 C 0.95975 0.73582 0.42301 0.0
C1047 C 0.03629 0.78544 0.58883 0.0
C1048 C 0.05083 0.77061 0.56551 0.0
C1049 C 0.00622 0.77075 0.59827 0.0
C1050 C 0.99041 0.74051 0.58429 0.0
C1051 C 0.00499 0.72516 0.56469 0.0
C1052 C 0.03512 0.74043 0.55531 0.0
C1053 C 0.99129 0.78774 0.61971 0.0
C1054 C 0.98874 0.69283 0.54972 0.0
H1055 H 0.90053 0.68927 0.71733 0.0
H1056 H 0.902 0.70612 0.44598 0.0
H1057 H 0.97113 0.70418 0.73723 0.0
H1058 H 0.97325 0.73799 0.76126 0.0
H1059 H 0.9427 0.70469 0.79868 0.0
H1060 H 0.94493 0.73251 0.36843 0.0
H1061 H 0.97474 0.75941 0.43102 0.0
H1062 H 0.97305 0.72583 0.40619 0.0
H1063 H 0.04832 0.80876 0.5977 0.0
H1064 H 0.0462 0.7288 0.53785 0.0
H1065 H 0.97675 0.77799 0.67588 0.0
H1066 H 0.97765 0.78689 0.56452 0.0
H1067 H 0.00689 0.81081 0.63438 0.0
H1068 H 0.97183 0.68166 0.59945 0.0
H1069 H 0.00334 0.68355 0.55004 0.0
H1070 H 0.9777 0.68815 0.48632 0.0
loop_
_geom_bond_atom_site_label_1
_geom_bond_atom_site_label_2
_geom_bond_distance
_geom_bond_site_symmetry_2
_ccdc_geom_bond_type
O0 Zn1 1.953 . S
O0 C16 1.225 1_556 S
Zn1 O0 1.953 . S
Zn1 O2 1.949 1_556 S
Zn1 O8 1.919 . S
Zn1 O13 1.924 1_556 S
O2 Zn1 1.949 1_554 S
O2 Zn3 1.923 1_454 S
O2 Zn4 1.950 . S
O2 Zn5 1.945 . S
Zn3 O2 1.923 1_656 S
Zn3 O6 1.933 . S
Zn3 O9 1.941 . S
Zn3 O10 1.965 . S
Zn4 O2 1.950 . S
Zn4 O11 1.938 1_455 S
Zn4 O12 1.906 1_455 S
Zn4 O22 1.953 . S
Zn5 O2 1.945 . S
Zn5 O7 1.932 1_455 S
Zn5 O14 1.977 1_455 S
Zn5 O15 1.910 . S
O6 Zn3 1.933 . S
O6 C17 1.226 . S
O7 Zn5 1.932 1_655 S
O7 C17 1.307 1_554 S
O8 Zn1 1.919 . S
O8 C19 1.253 . S
O9 Zn3 1.941 . S
O9 C19 1.283 1_655 S
O10 Zn3 1.965 . S
O10 C18 1.303 . S
O11 Zn4 1.938 1_655 S
O11 C18 1.247 1_554 S
O12 Zn4 1.906 1_655 S
O12 C20 1.304 . S
O13 Zn1 1.924 1_554 S
O13 C21 1.311 . S
O14 Zn5 1.977 1_655 S
O14 C20 1.272 . S
O15 Zn5 1.910 . S
O15 C21 1.231 . S
C16 O0 1.225 1_554 S
C16 O22 1.298 . S
C17 O6 1.226 . S
C17 O7 1.307 1_556 S
C18 O10 1.303 . S
C18 O11 1.247 1_556 S
C19 O8 1.253 . S
C19 O9 1.283 1_455 S
C20 O12 1.304 . S
C20 O14 1.272 . S
C21 O13 1.311 . S
C21 O15 1.231 . S
O22 Zn4 1.953 . S
O22 C16 1.298 . S
O23 Zn24 1.953 . S
O23 C39 1.225 1_556 S
Zn24 O23 1.953 . S
Zn24 O25 1.949 1_556 S
Zn24 O31 1.919 . S
Zn24 O36 1.924 1_556 S
O25 Zn24 1.949 1_554 S
O25 Zn26 1.923 1_554 S
O25 Zn27 1.950 . S
O25 Zn28 1.945 . S
Zn26 O25 1.923 1_556 S
Zn26 O29 1.933 . S
Zn26 O32 1.941 . S
Zn26 O33 1.965 . S
Zn27 O25 1.950 . S
Zn27 O34 1.938 . S
Zn27 O35 1.906 . S
Zn27 O45 1.953 . S
Zn28 O25 1.945 . S
Zn28 O30 1.932 . S
Zn28 O37 1.977 . S
Zn28 O38 1.910 . S
O29 Zn26 1.933 . S
O29 C40 1.226 . S
O30 Zn28 1.932 . S
O30 C40 1.307 1_554 S
O31 Zn24 1.919 . S
O31 C42 1.253 . S
O32 Zn26 1.941 . S
O32 C42 1.283 . S
O33 Zn26 1.965 . S
O33 C41 1.303 . S
O34 Zn27 1.938 . S
O34 C41 1.247 1_554 S
O35 Zn27 1.906 . S
O35 C43 1.304 . S
O36 Zn24 1.924 1_554 S
O36 C44 1.311 . S
O37 Zn28 1.977 . S
O37 C43 1.272 . S
O38 Zn28 1.910 . S
O38 C44 1.231 . S
C39 O23 1.225 1_554 S
C39 O45 1.298 . S
C40 O29 1.226 . S
C40 O30 1.307 1_556 S
C41 O33 1.303 . S
C41 O34 1.247 1_556 S
C42 O31 1.253 . S
C42 O32 1.283 . S
C43 O35 1.304 . S
C43 O37 1.272 . S
C44 O36 1.311 . S
C44 O38 1.231 . S
O45 Zn27 1.953 . S
O45 C39 1.298 . S
O46 Zn47 1.953 . S
O46 C62 1.225 1_556 S
Zn47 O46 1.953 . S
Zn47 O48 1.949 1_566 S
Zn47 O54 1.919 . S
Zn47 O59 1.924 1_556 S
O48 Zn47 1.949 1_544 S
O48 Zn49 1.923 1_554 S
O48 Zn50 1.950 . S
O48 Zn51 1.945 . S
Zn49 O48 1.923 1_556 S
Zn49 O52 1.933 . S
Zn49 O55 1.941 . S
Zn49 O56 1.965 . S
Zn50 O48 1.950 . S
Zn50 O57 1.938 . S
Zn50 O58 1.906 . S
Zn50 O68 1.953 1_545 S
Zn51 O48 1.945 . S
Zn51 O53 1.932 . S
Zn51 O60 1.977 . S
Zn51 O61 1.910 1_545 S
O52 Zn49 1.933 . S
O52 C63 1.226 . S
O53 Zn51 1.932 . S
O53 C63 1.307 1_554 S
O54 Zn47 1.919 . S
O54 C65 1.253 1_565 S
O55 Zn49 1.941 . S
O55 C65 1.283 . S
O56 Zn49 1.965 . S
O56 C64 1.303 . S
O57 Zn50 1.938 . S
O57 C64 1.247 1_554 S
O58 Zn50 1.906 . S
O58 C66 1.304 . S
O59 Zn47 1.924 1_554 S
O59 C67 1.311 . S
O60 Zn51 1.977 . S
O60 C66 1.272 . S
O61 Zn51 1.910 1_565 S
O61 C67 1.231 . S
C62 O46 1.225 1_554 S
C62 O68 1.298 . S
C63 O52 1.226 . S
C63 O53 1.307 1_556 S
C64 O56 1.303 . S
C64 O57 1.247 1_556 S
C65 O54 1.253 1_545 S
C65 O55 1.283 . S
C66 O58 1.304 . S
C66 O60 1.272 . S
C67 O59 1.311 . S
C67 O61 1.231 . S
O68 Zn50 1.953 1_565 S
O68 C62 1.298 . S
O69 Zn70 1.953 . S
O69 C85 1.225 . S
Zn70 O69 1.953 . S
Zn70 O71 1.949 . S
Zn70 O77 1.919 . S
Zn70 O82 1.924 . S
O71 Zn70 1.949 . S
O71 Zn72 1.923 . S
O71 Zn73 1.950 . S
O71 Zn74 1.945 . S
Zn72 O71 1.923 . S
Zn72 O75 1.933 . S
Zn72 O78 1.941 . S
Zn72 O79 1.965 . S
Zn73 O71 1.950 . S
Zn73 O80 1.938 . S
Zn73 O81 1.906 . S
Zn73 O91 1.953 . S
Zn74 O71 1.945 . S
Zn74 O76 1.932 . S
Zn74 O83 1.977 . S
Zn74 O84 1.910 . S
O75 Zn72 1.933 . S
O75 C86 1.226 . S
O76 Zn74 1.932 . S
O76 C86 1.307 . S
O77 Zn70 1.919 . S
O77 C88 1.253 . S
O78 Zn72 1.941 . S
O78 C88 1.283 . S
O79 Zn72 1.965 . S
O79 C87 1.303 . S
O80 Zn73 1.938 . S
O80 C87 1.247 . S
O81 Zn73 1.906 . S
O81 C89 1.304 . S
O82 Zn70 1.924 . S
O82 C90 1.311 . S
O83 Zn74 1.977 . S
O83 C89 1.272 . S
O84 Zn74 1.910 . S
O84 C90 1.231 . S
C85 O69 1.225 . S
C85 O91 1.298 . S
C86 O75 1.226 . S
C86 O76 1.307 . S
C87 O79 1.303 . S
C87 O80 1.247 . S
C88 O77 1.253 . S
C88 O78 1.283 . S
C89 O81 1.304 . S
C89 O83 1.272 . S
C90 O82 1.311 . S
C90 O84 1.231 . S
O91 Zn73 1.953 . S
O91 C85 1.298 . S
O92 Zn93 1.953 . S
O92 C108 1.225 . S
Zn93 O92 1.953 . S
Zn93 O94 1.949 . S
Zn93 O100 1.919 . S
Zn93 O105 1.924 . S
O94 Zn93 1.949 . S
O94 Zn95 1.923 . S
O94 Zn96 1.950 . S
O94 Zn97 1.945 . S
Zn95 O94 1.923 . S
Zn95 O98 1.933 . S
Zn95 O101 1.941 . S
Zn95 O102 1.965 . S
Zn96 O94 1.950 . S
Zn96 O103 1.938 . S
Zn96 O104 1.906 . S
Zn96 O114 1.953 . S
Zn97 O94 1.945 . S
Zn97 O99 1.932 . S
Zn97 O106 1.977 . S
Zn97 O107 1.910 . S
O98 Zn95 1.933 . S
O98 C109 1.226 . S
O99 Zn97 1.932 . S
O99 C109 1.307 . S
O100 Zn93 1.919 . S
O100 C111 1.253 . S
O101 Zn95 1.941 . S
O101 C111 1.283 . S
O102 Zn95 1.965 . S
O102 C110 1.303 . S
O103 Zn96 1.938 . S
O103 C110 1.247 . S
O104 Zn96 1.906 . S
O104 C112 1.304 . S
O105 Zn93 1.924 . S
O105 C113 1.311 . S
O106 Zn97 1.977 . S
O106 C112 1.272 . S
O107 Zn97 1.910 . S
O107 C113 1.231 . S
C108 O92 1.225 . S
C108 O114 1.298 . S
C109 O98 1.226 . S
C109 O99 1.307 . S
C110 O102 1.303 . S
C110 O103 1.247 . S
C111 O100 1.253 . S
C111 O101 1.283 . S
C112 O104 1.304 . S
C112 O106 1.272 . S
C113 O105 1.311 . S
C113 O107 1.231 . S
O114 Zn96 1.953 . S
O114 C108 1.298 . S
O115 Zn116 1.953 . S
O115 C131 1.225 . S
Zn116 O115 1.953 . S
Zn116 O117 1.949 . S
Zn116 O123 1.919 . S
Zn116 O128 1.924 . S
O117 Zn116 1.949 . S
O117 Zn118 1.923 . S
O117 Zn119 1.950 . S
O117 Zn120 1.945 . S
Zn118 O117 1.923 . S
Zn118 O121 1.933 . S
Zn118 O124 1.941 . S
Zn118 O125 1.965 . S
Zn119 O117 1.950 . S
Zn119 O126 1.938 . S
Zn119 O127 1.906 . S
Zn119 O137 1.953 . S
Zn120 O117 1.945 . S
Zn120 O122 1.932 . S
Zn120 O129 1.977 . S
Zn120 O130 1.910 . S
O121 Zn118 1.933 . S
O121 C132 1.226 . S
O122 Zn120 1.932 . S
O122 C132 1.307 . S
O123 Zn116 1.919 . S
O123 C134 1.253 . S
O124 Zn118 1.941 . S
O124 C134 1.283 . S
O125 Zn118 1.965 . S
O125 C133 1.303 . S
O126 Zn119 1.938 . S
O126 C133 1.247 . S
O127 Zn119 1.906 . S
O127 C135 1.304 . S
O128 Zn116 1.924 . S
O128 C136 1.311 . S
O129 Zn120 1.977 . S
O129 C135 1.272 . S
O130 Zn120 1.910 . S
O130 C136 1.231 . S
C131 O115 1.225 . S
C131 O137 1.298 . S
C132 O121 1.226 . S
C132 O122 1.307 . S
C133 O125 1.303 . S
C133 O126 1.247 . S
C134 O123 1.253 . S
C134 O124 1.283 . S
C135 O127 1.304 . S
C135 O129 1.272 . S
C136 O128 1.311 . S
C136 O130 1.231 . S
O137 Zn119 1.953 . S
O137 C131 1.298 . S
O138 Zn139 1.953 . S
O138 C154 1.225 . S
Zn139 O138 1.953 . S
Zn139 O140 1.949 . S
Zn139 O146 1.919 . S
Zn139 O151 1.924 . S
O140 Zn139 1.949 . S
O140 Zn141 1.923 . S
O140 Zn142 1.950 . S
O140 Zn143 1.945 . S
Zn141 O140 1.923 . S
Zn141 O144 1.933 . S
Zn141 O147 1.941 . S
Zn141 O148 1.965 . S
Zn142 O140 1.950 . S
Zn142 O149 1.938 . S
Zn142 O150 1.906 . S
Zn142 O160 1.953 . S
Zn143 O140 1.945 . S
Zn143 O145 1.932 . S
Zn143 O152 1.977 . S
Zn143 O153 1.910 . S
O144 Zn141 1.933 . S
O144 C155 1.226 . S
O145 Zn143 1.932 . S
O145 C155 1.307 . S
O146 Zn139 1.919 . S
O146 C157 1.253 . S
O147 Zn141 1.941 . S
O147 C157 1.283 . S
O148 Zn141 1.965 . S
O148 C156 1.303 . S
O149 Zn142 1.938 . S
O149 C156 1.247 . S
O150 Zn142 1.906 . S
O150 C158 1.304 . S
O151 Zn139 1.924 . S
O151 C159 1.311 . S
O152 Zn143 1.977 . S
O152 C158 1.272 . S
O153 Zn143 1.910 . S
O153 C159 1.231 . S
C154 O138 1.225 . S
C154 O160 1.298 . S
C155 O144 1.226 . S
C155 O145 1.307 . S
C156 O148 1.303 . S
C156 O149 1.247 . S
C157 O146 1.253 . S
C157 O147 1.283 . S
C158 O150 1.304 . S
C158 O152 1.272 . S
C159 O151 1.311 . S
C159 O153 1.231 . S
O160 Zn142 1.953 . S
O160 C154 1.298 . S
O161 Zn162 1.953 . S
O161 C177 1.225 . S
Zn162 O161 1.953 . S
Zn162 O163 1.949 . S
Zn162 O169 1.919 . S
Zn162 O174 1.924 . S
O163 Zn162 1.949 . S
O163 Zn164 1.923 . S
O163 Zn165 1.950 . S
O163 Zn166 1.945 . S
Zn164 O163 1.923 . S
Zn164 O167 1.933 . S
Zn164 O170 1.941 . S
Zn164 O171 1.965 . S
Zn165 O163 1.950 . S
Zn165 O172 1.938 . S
Zn165 O173 1.906 . S
Zn165 O183 1.953 . S
Zn166 O163 1.945 . S
Zn166 O168 1.932 . S
Zn166 O175 1.977 . S
Zn166 O176 1.910 . S
O167 Zn164 1.933 . S
O167 C178 1.226 . S
O168 Zn166 1.932 . S
O168 C178 1.307 . S
O169 Zn162 1.919 . S
O169 C180 1.253 . S
O170 Zn164 1.941 . S
O170 C180 1.283 . S
O171 Zn164 1.965 . S
O171 C179 1.303 . S
O172 Zn165 1.938 . S
O172 C179 1.247 . S
O173 Zn165 1.906 . S
O173 C181 1.304 . S
O174 Zn162 1.924 . S
O174 C182 1.311 . S
O175 Zn166 1.977 . S
O175 C181 1.272 . S
O176 Zn166 1.910 . S
O176 C182 1.231 . S
C177 O161 1.225 . S
C177 O183 1.298 . S
C178 O167 1.226 . S
C178 O168 1.307 . S
C179 O171 1.303 . S
C179 O172 1.247 . S
C180 O169 1.253 . S
C180 O170 1.283 . S
C181 O173 1.304 . S
C181 O175 1.272 . S
C182 O174 1.311 . S
C182 O176 1.231 . S
O183 Zn165 1.953 . S
O183 C177 1.298 . S
O184 Zn185 1.953 . S
O184 C200 1.225 . S
Zn185 O184 1.953 . S
Zn185 O186 1.949 . S
Zn185 O192 1.919 . S
Zn185 O197 1.924 . S
O186 Zn185 1.949 . S
O186 Zn187 1.923 . S
O186 Zn188 1.950 . S
O186 Zn189 1.945 . S
Zn187 O186 1.923 . S
Zn187 O190 1.933 . S
Zn187 O193 1.941 . S
Zn187 O194 1.965 . S
Zn188 O186 1.950 . S
Zn188 O195 1.938 . S
Zn188 O196 1.906 . S
Zn188 O206 1.953 . S
Zn189 O186 1.945 . S
Zn189 O191 1.932 . S
Zn189 O198 1.977 . S
Zn189 O199 1.910 . S
O190 Zn187 1.933 . S
O190 C201 1.226 . S
O191 Zn189 1.932 . S
O191 C201 1.307 . S
O192 Zn185 1.919 . S
O192 C203 1.253 . S
O193 Zn187 1.941 . S
O193 C203 1.283 . S
O194 Zn187 1.965 . S
O194 C202 1.303 . S
O195 Zn188 1.938 . S
O195 C202 1.247 . S
O196 Zn188 1.906 . S
O196 C204 1.304 . S
O197 Zn185 1.924 . S
O197 C205 1.311 . S
O198 Zn189 1.977 . S
O198 C204 1.272 . S
O199 Zn189 1.910 . S
O199 C205 1.231 . S
C200 O184 1.225 . S
C200 O206 1.298 . S
C201 O190 1.226 . S
C201 O191 1.307 . S
C202 O194 1.303 . S
C202 O195 1.247 . S
C203 O192 1.253 . S
C203 O193 1.283 . S
C204 O196 1.304 . S
C204 O198 1.272 . S
C205 O197 1.311 . S
C205 O199 1.231 . S
O206 Zn188 1.953 . S
O206 C200 1.298 . S
C207 C208 1.391 . S
C207 C209 1.394 . S
C207 H223 0.931 . S
C208 C207 1.391 . S
C208 C212 1.376 . S
C209 C207 1.394 . S
C209 C210 1.369 . S
C209 C213 1.531 1_455 S
C210 C209 1.369 . S
C210 C211 1.410 . S
C210 C218 1.493 1_455 S
C211 C210 1.410 . S
C211 C212 1.392 . S
C211 C214 1.511 . S
C212 C208 1.376 . S
C212 C211 1.392 . S
C212 H224 0.929 . S
C213 C209 1.531 1_655 S
C213 H225 0.960 1_655 S
C213 H226 0.962 . S
C213 H227 0.960 1_655 S
C214 C211 1.511 . S
C214 H228 0.961 . S
C214 H229 0.961 . S
C214 H230 0.961 . S
C215 C216 1.370 . S
C215 C217 1.363 . S
C215 H231 0.931 . S
C216 C215 1.370 . S
C216 C220 1.408 1_655 S
C217 C215 1.363 . S
C217 C218 1.397 . S
C217 C221 1.524 . S
C218 C210 1.493 1_655 S
C218 C217 1.397 . S
C218 C219 1.388 1_655 S
C219 C218 1.388 1_455 S
C219 C220 1.404 . S
C219 C222 1.539 . S
C220 C216 1.408 1_455 S
C220 C219 1.404 . S
C220 H232 0.930 . S
C221 C217 1.524 . S
C221 H233 0.956 . S
C221 H234 0.961 . S
C221 H235 0.961 . S
C222 C219 1.539 . S
C222 H236 0.958 . S
C222 H237 0.961 . S
C222 H238 0.960 . S
H223 C207 0.931 . S
H224 C212 0.929 . S
H225 C213 0.960 1_455 S
H226 C213 0.962 . S
H227 C213 0.960 1_455 S
H228 C214 0.961 . S
H229 C214 0.961 . S
H230 C214 0.961 . S
H231 C215 0.931 . S
H232 C220 0.930 . S
H233 C221 0.956 . S
H234 C221 0.961 . S
H235 C221 0.961 . S
H236 C222 0.958 . S
H237 C222 0.961 . S
H238 C222 0.960 . S
C239 C240 1.391 . S
C239 C241 1.394 . S
C239 H255 0.931 . S
C240 C239 1.391 . S
C240 C244 1.376 . S
C241 C239 1.394 . S
C241 C242 1.369 . S
C241 C245 1.531 . S
C242 C241 1.369 . S
C242 C243 1.410 . S
C242 C250 1.503 . S
C243 C242 1.410 . S
C243 C244 1.392 . S
C243 C246 1.511 . S
C244 C240 1.376 . S
C244 C243 1.392 . S
C244 H256 0.929 . S
C245 C241 1.531 . S
C245 H257 0.960 . S
C245 H258 0.962 . S
C245 H259 0.960 . S
C246 C243 1.511 . S
C246 H260 0.961 . S
C246 H261 0.961 . S
C246 H262 0.961 . S
C247 C248 1.370 . S
C247 C249 1.363 . S
C247 H263 0.931 . S
C248 C247 1.370 . S
C248 C252 1.408 . S
C249 C247 1.363 . S
C249 C250 1.370 . S
C249 C253 1.524 . S
C250 C242 1.503 . S
C250 C249 1.370 . S
C250 C251 1.403 . S
C251 C250 1.403 . S
C251 C252 1.404 . S
C251 C254 1.539 . S
C252 C248 1.408 . S
C252 C251 1.404 . S
C252 H264 0.930 . S
C253 C249 1.524 . S
C253 H265 0.956 . S
C253 H266 0.961 . S
C253 H267 0.961 . S
C254 C251 1.539 . S
C254 H268 0.958 . S
C254 H269 0.961 . S
C254 H270 0.960 . S
H255 C239 0.931 . S
H256 C244 0.929 . S
H257 C245 0.960 . S
H258 C245 0.962 . S
H259 C245 0.960 . S
H260 C246 0.961 . S
H261 C246 0.961 . S
H262 C246 0.961 . S
H263 C247 0.931 . S
H264 C252 0.930 . S
H265 C253 0.956 . S
H266 C253 0.961 . S
H267 C253 0.961 . S
H268 C254 0.958 . S
H269 C254 0.961 . S
H270 C254 0.960 . S
C271 C272 1.391 1_565 S
C271 C273 1.394 1_565 S
C271 H287 0.931 . S
C272 C271 1.391 1_545 S
C272 C276 1.376 . S
C273 C271 1.394 1_545 S
C273 C274 1.369 . S
C273 C277 1.530 . S
C274 C273 1.369 . S
C274 C275 1.410 . S
C274 C282 1.503 . S
C275 C274 1.410 . S
C275 C276 1.392 . S
C275 C278 1.511 . S
C276 C272 1.376 . S
C276 C275 1.392 . S
C276 H288 0.929 . S
C277 C273 1.530 . S
C277 H289 0.960 1_545 S
C277 H290 0.961 . S
C277 H291 0.961 1_545 S
C278 C275 1.511 . S
C278 H292 0.961 . S
C278 H293 0.961 . S
C278 H294 0.961 . S
C279 C280 1.370 . S
C279 C281 1.363 . S
C279 H295 0.931 . S
C280 C279 1.370 . S
C280 C284 1.408 . S
C281 C279 1.363 . S
C281 C282 1.370 . S
C281 C285 1.524 . S
C282 C274 1.503 . S
C282 C281 1.370 . S
C282 C283 1.403 . S
C283 C282 1.403 . S
C283 C284 1.404 . S
C283 C286 1.539 1_545 S
C284 C280 1.408 . S
C284 C283 1.404 . S
C284 H296 0.930 . S
C285 C281 1.524 . S
C285 H297 0.956 . S
C285 H298 0.961 . S
C285 H299 0.961 . S
C286 C283 1.539 1_565 S
C286 H300 0.958 . S
C286 H301 0.961 . S
C286 H302 0.960 . S
H287 C271 0.931 . S
H288 C276 0.929 . S
H289 C277 0.960 1_565 S
H290 C277 0.961 . S
H291 C277 0.961 1_565 S
H292 C278 0.961 . S
H293 C278 0.961 . S
H294 C278 0.961 . S
H295 C279 0.931 . S
H296 C284 0.930 . S
H297 C285 0.956 . S
H298 C285 0.961 . S
H299 C285 0.961 . S
H300 C286 0.958 . S
H301 C286 0.961 . S
H302 C286 0.960 . S
C303 C304 1.391 . S
C303 C305 1.394 . S
C303 H319 0.931 . S
C304 C303 1.391 . S
C304 C308 1.376 . S
C305 C303 1.394 . S
C305 C306 1.369 . S
C305 C309 1.531 . S
C306 C305 1.369 . S
C306 C307 1.410 . S
C306 C314 1.503 . S
C307 C306 1.410 . S
C307 C308 1.392 . S
C307 C310 1.511 . S
C308 C304 1.376 . S
C308 C307 1.392 . S
C308 H320 0.929 . S
C309 C305 1.531 . S
C309 H321 0.960 . S
C309 H322 0.962 . S
C309 H323 0.960 . S
C310 C307 1.511 . S
C310 H324 0.961 . S
C310 H325 0.961 . S
C310 H326 0.961 . S
C311 C312 1.370 . S
C311 C313 1.363 1_554 S
C311 H327 0.931 . S
C312 C311 1.370 . S
C312 C316 1.408 . S
C313 C311 1.363 1_556 S
C313 C314 1.370 . S
C313 C317 1.524 . S
C314 C306 1.503 . S
C314 C313 1.370 . S
C314 C315 1.403 . S
C315 C314 1.403 . S
C315 C316 1.404 1_556 S
C315 C318 1.539 . S
C316 C312 1.408 . S
C316 C315 1.404 1_554 S
C316 H328 0.930 . S
C317 C313 1.524 . S
C317 H329 0.956 . S
C317 H330 0.961 . S
C317 H331 0.961 . S
C318 C315 1.539 . S
C318 H332 0.958 . S
C318 H333 0.961 . S
C318 H334 0.960 . S
H319 C303 0.931 . S
H320 C308 0.929 . S
H321 C309 0.960 . S
H322 C309 0.962 . S
H323 C309 0.960 . S
H324 C310 0.961 . S
H325 C310 0.961 . S
H326 C310 0.961 . S
H327 C311 0.931 . S
H328 C316 0.930 . S
H329 C317 0.956 . S
H330 C317 0.961 . S
H331 C317 0.961 . S
H332 C318 0.958 . S
H333 C318 0.961 . S
H334 C318 0.960 . S
C335 C336 1.391 . S
C335 C337 1.394 . S
C335 H351 0.931 . S
C336 C335 1.391 . S
C336 C340 1.376 . S
C337 C335 1.394 . S
C337 C338 1.369 . S
C337 C341 1.531 . S
C338 C337 1.369 . S
C338 C339 1.410 . S
C338 C346 1.503 . S
C339 C338 1.410 . S
C339 C340 1.392 . S
C339 C342 1.511 . S
C340 C336 1.376 . S
C340 C339 1.392 . S
C340 H352 0.929 . S
C341 C337 1.531 . S
C341 H353 0.960 . S
C341 H354 0.962 . S
C341 H355 0.960 . S
C342 C339 1.511 . S
C342 H356 0.961 . S
C342 H357 0.961 . S
C342 H358 0.961 . S
C343 C344 1.370 . S
C343 C345 1.363 1_554 S
C343 H359 0.931 . S
C344 C343 1.370 . S
C344 C348 1.408 . S
C345 C343 1.363 1_556 S
C345 C346 1.370 . S
C345 C349 1.524 . S
C346 C338 1.503 . S
C346 C345 1.370 . S
C346 C347 1.403 1_556 S
C347 C346 1.403 1_554 S
C347 C348 1.404 . S
C347 C350 1.539 1_554 S
C348 C344 1.408 . S
C348 C347 1.404 . S
C348 H360 0.930 . S
C349 C345 1.524 . S
C349 H361 0.956 . S
C349 H362 0.961 . S
C349 H363 0.961 . S
C350 C347 1.539 1_556 S
C350 H364 0.958 . S
C350 H365 0.961 1_556 S
C350 H366 0.960 . S
H351 C335 0.931 . S
H352 C340 0.929 . S
H353 C341 0.960 . S
H354 C341 0.962 . S
H355 C341 0.960 . S
H356 C342 0.961 . S
H357 C342 0.961 . S
H358 C342 0.961 . S
H359 C343 0.931 . S
H360 C348 0.930 . S
H361 C349 0.956 . S
H362 C349 0.961 . S
H363 C349 0.961 . S
H364 C350 0.958 . S
H365 C350 0.961 1_554 S
H366 C350 0.960 . S
C367 C368 1.391 . S
C367 C369 1.394 . S
C367 H383 0.931 . S
C368 C367 1.391 . S
C368 C372 1.376 . S
C369 C367 1.394 . S
C369 C370 1.369 . S
C369 C373 1.531 . S
C370 C369 1.369 . S
C370 C371 1.410 . S
C370 C378 1.503 . S
C371 C370 1.410 . S
C371 C372 1.392 . S
C371 C374 1.511 . S
C372 C368 1.376 . S
C372 C371 1.392 . S
C372 H384 0.929 . S
C373 C369 1.531 . S
C373 H385 0.960 . S
C373 H386 0.962 . S
C373 H387 0.960 . S
C374 C371 1.511 . S
C374 H388 0.961 . S
C374 H389 0.961 . S
C374 H390 0.961 . S
C375 C376 1.370 . S
C375 C377 1.363 1_554 S
C375 H391 0.931 . S
C376 C375 1.370 . S
C376 C380 1.408 . S
C377 C375 1.363 1_556 S
C377 C378 1.370 . S
C377 C381 1.524 . S
C378 C370 1.503 . S
C378 C377 1.370 . S
C378 C379 1.403 . S
C379 C378 1.403 . S
C379 C380 1.404 1_556 S
C379 C382 1.539 . S
C380 C376 1.408 . S
C380 C379 1.404 1_554 S
C380 H392 0.930 . S
C381 C377 1.524 . S
C381 H393 0.956 . S
C381 H394 0.961 . S
C381 H395 0.961 . S
C382 C379 1.539 . S
C382 H396 0.958 . S
C382 H397 0.961 . S
C382 H398 0.960 . S
H383 C367 0.931 . S
H384 C372 0.929 . S
H385 C373 0.960 . S
H386 C373 0.962 . S
H387 C373 0.960 . S
H388 C374 0.961 . S
H389 C374 0.961 . S
H390 C374 0.961 . S
H391 C375 0.931 . S
H392 C380 0.930 . S
H393 C381 0.956 . S
H394 C381 0.961 . S
H395 C381 0.961 . S
H396 C382 0.958 . S
H397 C382 0.961 . S
H398 C382 0.960 . S
C399 C400 1.391 . S
C399 C401 1.394 . S
C399 H415 0.931 . S
C400 C399 1.391 . S
C400 C404 1.376 . S
C401 C399 1.394 . S
C401 C402 1.369 . S
C401 C405 1.531 . S
C402 C401 1.369 . S
C402 C403 1.410 . S
C402 C410 1.503 . S
C403 C402 1.410 . S
C403 C404 1.392 . S
C403 C406 1.511 . S
C404 C400 1.376 . S
C404 C403 1.392 . S
C404 H416 0.929 . S
C405 C401 1.531 . S
C405 H417 0.960 . S
C405 H418 0.962 . S
C405 H419 0.960 . S
C406 C403 1.511 . S
C406 H420 0.961 . S
C406 H421 0.961 . S
C406 H422 0.961 . S
C407 C408 1.373 . S
C407 C409 1.363 . S
C407 H423 0.931 1_554 S
C408 C407 1.373 . S
C408 C412 1.414 . S
C409 C407 1.363 . S
C409 C410 1.370 . S
C409 C413 1.524 . S
C410 C402 1.503 . S
C410 C409 1.370 . S
C410 C411 1.403 . S
C411 C410 1.403 . S
C411 C412 1.404 . S
C411 C414 1.539 . S
C412 C408 1.414 . S
C412 C411 1.404 . S
C412 H424 0.930 . S
C413 C409 1.524 . S
C413 H425 0.956 . S
C413 H426 0.961 . S
C413 H427 0.961 . S
C414 C411 1.539 . S
C414 H428 0.958 . S
C414 H429 0.961 . S
C414 H430 0.960 . S
H415 C399 0.931 . S
H416 C404 0.929 . S
H417 C405 0.960 . S
H418 C405 0.962 . S
H419 C405 0.960 . S
H420 C406 0.961 . S
H421 C406 0.961 . S
H422 C406 0.961 . S
H423 C407 0.931 1_556 S
H424 C412 0.930 . S
H425 C413 0.956 . S
H426 C413 0.961 . S
H427 C413 0.961 . S
H428 C414 0.958 . S
H429 C414 0.961 . S
H430 C414 0.960 . S
C431 C432 1.391 . S
C431 C433 1.394 . S
C431 H447 0.931 . S
C432 C431 1.391 . S
C432 C436 1.376 . S
C433 C431 1.394 . S
C433 C434 1.369 . S
C433 C437 1.531 . S
C434 C433 1.369 . S
C434 C435 1.410 . S
C434 C442 1.503 . S
C435 C434 1.410 . S
C435 C436 1.392 . S
C435 C438 1.511 . S
C436 C432 1.376 . S
C436 C435 1.392 . S
C436 H448 0.929 . S
C437 C433 1.531 . S
C437 H449 0.960 . S
C437 H450 0.962 . S
C437 H451 0.960 . S
C438 C435 1.511 . S
C438 H452 0.961 . S
C438 H453 0.961 . S
C438 H454 0.961 . S
C439 C440 1.365 1_554 S
C439 C441 1.363 . S
C439 H455 0.931 . S
C440 C439 1.365 1_556 S
C440 C444 1.406 1_556 S
C441 C439 1.363 . S
C441 C442 1.370 . S
C441 C445 1.524 . S
C442 C434 1.503 . S
C442 C441 1.370 . S
C442 C443 1.403 . S
C443 C442 1.403 . S
C443 C444 1.404 . S
C443 C446 1.539 . S
C444 C440 1.406 1_554 S
C444 C443 1.404 . S
C444 H456 0.930 1_554 S
C445 C441 1.524 . S
C445 H457 0.956 . S
C445 H458 0.961 . S
C445 H459 0.961 . S
C446 C443 1.539 . S
C446 H460 0.958 . S
C446 H461 0.961 . S
C446 H462 0.960 . S
H447 C431 0.931 . S
H448 C436 0.929 . S
H449 C437 0.960 . S
H450 C437 0.962 . S
H451 C437 0.960 . S
H452 C438 0.961 . S
H453 C438 0.961 . S
H454 C438 0.961 . S
H455 C439 0.931 . S
H456 C444 0.930 1_556 S
H457 C445 0.956 . S
H458 C445 0.961 . S
H459 C445 0.961 . S
H460 C446 0.958 . S
H461 C446 0.961 . S
H462 C446 0.960 . S
C463 C464 1.391 . S
C463 C465 1.394 . S
C463 H479 0.931 . S
C464 C463 1.391 . S
C464 C468 1.376 . S
C465 C463 1.394 . S
C465 C466 1.369 . S
C465 C469 1.531 . S
C466 C465 1.369 . S
C466 C467 1.410 . S
C466 C474 1.503 . S
C467 C466 1.410 . S
C467 C468 1.392 . S
C467 C470 1.511 . S
C468 C464 1.376 . S
C468 C467 1.392 . S
C468 H480 0.929 . S
C469 C465 1.531 . S
C469 H481 0.960 . S
C469 H482 0.962 . S
C469 H483 0.960 . S
C470 C467 1.511 . S
C470 H484 0.961 . S
C470 H485 0.961 . S
C470 H486 0.961 . S
C471 C472 1.367 1_554 S
C471 C473 1.363 . S
C471 H487 0.931 . S
C472 C471 1.367 1_556 S
C472 C476 1.407 1_556 S
C473 C471 1.363 . S
C473 C474 1.370 . S
C473 C477 1.524 . S
C474 C466 1.503 . S
C474 C473 1.370 . S
C474 C475 1.403 . S
C475 C474 1.403 . S
C475 C476 1.404 . S
C475 C478 1.539 . S
C476 C472 1.407 1_554 S
C476 C475 1.404 . S
C476 H488 0.930 1_554 S
C477 C473 1.524 . S
C477 H489 0.956 . S
C477 H490 0.961 . S
C477 H491 0.961 . S
C478 C475 1.539 . S
C478 H492 0.958 . S
C478 H493 0.961 . S
C478 H494 0.960 . S
H479 C463 0.931 . S
H480 C468 0.929 . S
H481 C469 0.960 . S
H482 C469 0.962 . S
H483 C469 0.960 . S
H484 C470 0.961 . S
H485 C470 0.961 . S
H486 C470 0.961 . S
H487 C471 0.931 . S
H488 C476 0.930 1_556 S
H489 C477 0.956 . S
H490 C477 0.961 . S
H491 C477 0.961 . S
H492 C478 0.958 . S
H493 C478 0.961 . S
H494 C478 0.960 . S
C495 C496 1.391 . S
C495 C497 1.394 . S
C495 H511 0.931 . S
C496 C495 1.391 . S
C496 C500 1.376 . S
C497 C495 1.394 . S
C497 C498 1.369 . S
C497 C501 1.531 . S
C498 C497 1.369 . S
C498 C499 1.410 . S
C498 C506 1.503 . S
C499 C498 1.410 . S
C499 C500 1.392 . S
C499 C502 1.511 . S
C500 C496 1.376 . S
C500 C499 1.392 . S
C500 H512 0.929 . S
C501 C497 1.531 . S
C501 H513 0.960 . S
C501 H514 0.962 . S
C501 H515 0.960 . S
C502 C499 1.511 . S
C502 H516 0.961 . S
C502 H517 0.961 . S
C502 H518 0.961 . S
C503 C504 1.370 . S
C503 C505 1.363 . S
C503 H519 0.931 . S
C504 C503 1.370 . S
C504 C508 1.408 . S
C505 C503 1.363 . S
C505 C506 1.370 . S
C505 C509 1.524 . S
C506 C498 1.503 . S
C506 C505 1.370 . S
C506 C507 1.403 . S
C507 C506 1.403 . S
C507 C508 1.404 . S
C507 C510 1.539 . S
C508 C504 1.408 . S
C508 C507 1.404 . S
C508 H520 0.930 . S
C509 C505 1.524 . S
C509 H521 0.956 . S
C509 H522 0.961 . S
C509 H523 0.961 . S
C510 C507 1.539 . S
C510 H524 0.958 . S
C510 H525 0.961 . S
C510 H526 0.960 . S
H511 C495 0.931 . S
H512 C500 0.929 . S
H513 C501 0.960 . S
H514 C501 0.962 . S
H515 C501 0.960 . S
H516 C502 0.961 . S
H517 C502 0.961 . S
H518 C502 0.961 . S
H519 C503 0.931 . S
H520 C508 0.930 . S
H521 C509 0.956 . S
H522 C509 0.961 . S
H523 C509 0.961 . S
H524 C510 0.958 . S
H525 C510 0.961 . S
H526 C510 0.960 . S
C527 C528 1.391 . S
C527 C529 1.394 . S
C527 H543 0.931 . S
C528 C527 1.391 . S
C528 C532 1.376 . S
C529 C527 1.394 . S
C529 C530 1.369 . S
C529 C533 1.531 . S
C530 C529 1.369 . S
C530 C531 1.410 . S
C530 C538 1.503 . S
C531 C530 1.410 . S
C531 C532 1.392 . S
C531 C534 1.511 . S
C532 C528 1.376 . S
C532 C531 1.392 . S
C532 H544 0.929 . S
C533 C529 1.531 . S
C533 H545 0.960 . S
C533 H546 0.962 . S
C533 H547 0.960 . S
C534 C531 1.511 . S
C534 H548 0.961 . S
C534 H549 0.961 . S
C534 H550 0.961 . S
C535 C536 1.370 . S
C535 C537 1.363 . S
C535 H551 0.931 . S
C536 C535 1.370 . S
C536 C540 1.408 . S
C537 C535 1.363 . S
C537 C538 1.370 . S
C537 C541 1.524 . S
C538 C530 1.503 . S
C538 C537 1.370 . S
C538 C539 1.403 . S
C539 C538 1.403 . S
C539 C540 1.404 . S
C539 C542 1.539 . S
C540 C536 1.408 . S
C540 C539 1.404 . S
C540 H552 0.930 . S
C541 C537 1.524 . S
C541 H553 0.956 . S
C541 H554 0.961 . S
C541 H555 0.961 . S
C542 C539 1.539 . S
C542 H556 0.958 . S
C542 H557 0.961 . S
C542 H558 0.960 . S
H543 C527 0.931 . S
H544 C532 0.929 . S
H545 C533 0.960 . S
H546 C533 0.962 . S
H547 C533 0.960 . S
H548 C534 0.961 . S
H549 C534 0.961 . S
H550 C534 0.961 . S
H551 C535 0.931 . S
H552 C540 0.930 . S
H553 C541 0.956 . S
H554 C541 0.961 . S
H555 C541 0.961 . S
H556 C542 0.958 . S
H557 C542 0.961 . S
H558 C542 0.960 . S
C559 C560 1.391 . S
C559 C561 1.394 . S
C559 H575 0.931 . S
C560 C559 1.391 . S
C560 C564 1.376 . S
C561 C559 1.394 . S
C561 C562 1.369 . S
C561 C565 1.531 . S
C562 C561 1.369 . S
C562 C563 1.410 . S
C562 C570 1.503 . S
C563 C562 1.410 . S
C563 C564 1.392 . S
C563 C566 1.511 . S
C564 C560 1.376 . S
C564 C563 1.392 . S
C564 H576 0.929 . S
C565 C561 1.531 . S
C565 H577 0.960 . S
C565 H578 0.962 . S
C565 H579 0.960 . S
C566 C563 1.511 . S
C566 H580 0.961 . S
C566 H581 0.961 . S
C566 H582 0.961 . S
C567 C568 1.370 . S
C567 C569 1.363 . S
C567 H583 0.931 . S
C568 C567 1.370 . S
C568 C572 1.408 . S
C569 C567 1.363 . S
C569 C570 1.370 . S
C569 C573 1.524 . S
C570 C562 1.503 . S
C570 C569 1.370 . S
C570 C571 1.403 . S
C571 C570 1.403 . S
C571 C572 1.404 . S
C571 C574 1.539 . S
C572 C568 1.408 . S
C572 C571 1.404 . S
C572 H584 0.930 . S
C573 C569 1.524 . S
C573 H585 0.956 . S
C573 H586 0.961 . S
C573 H587 0.961 . S
C574 C571 1.539 . S
C574 H588 0.958 . S
C574 H589 0.961 . S
C574 H590 0.960 . S
H575 C559 0.931 . S
H576 C564 0.929 . S
H577 C565 0.960 . S
H578 C565 0.962 . S
H579 C565 0.960 . S
H580 C566 0.961 . S
H581 C566 0.961 . S
H582 C566 0.961 . S
H583 C567 0.931 . S
H584 C572 0.930 . S
H585 C573 0.956 . S
H586 C573 0.961 . S
H587 C573 0.961 . S
H588 C574 0.958 . S
H589 C574 0.961 . S
H590 C574 0.960 . S
C591 C592 1.391 . S
C591 C593 1.394 . S
C591 H607 0.931 . S
C592 C591 1.391 . S
C592 C596 1.376 1_556 S
C593 C591 1.394 . S
C593 C594 1.369 . S
C593 C597 1.531 . S
C594 C593 1.369 . S
C594 C595 1.410 . S
C594 C602 1.503 . S
C595 C594 1.410 . S
C595 C596 1.392 1_556 S
C595 C598 1.511 1_556 S
C596 C592 1.376 1_554 S
C596 C595 1.392 1_554 S
C596 H608 0.929 . S
C597 C593 1.531 . S
C597 H609 0.960 . S
C597 H610 0.962 . S
C597 H611 0.960 . S
C598 C595 1.511 1_554 S
C598 H612 0.961 . S
C598 H613 0.961 1_554 S
C598 H614 0.963 . S
C599 C600 1.370 . S
C599 C601 1.363 . S
C599 H615 0.931 . S
C600 C599 1.370 . S
C600 C604 1.408 . S
C601 C599 1.363 . S
C601 C602 1.370 . S
C601 C605 1.524 . S
C602 C594 1.503 . S
C602 C601 1.370 . S
C602 C603 1.403 . S
C603 C602 1.403 . S
C603 C604 1.404 . S
C603 C606 1.539 . S
C604 C600 1.408 . S
C604 C603 1.404 . S
C604 H616 0.930 . S
C605 C601 1.524 . S
C605 H617 0.956 . S
C605 H618 0.961 . S
C605 H619 0.961 . S
C606 C603 1.539 . S
C606 H620 0.958 . S
C606 H621 0.961 . S
C606 H622 0.960 . S
H607 C591 0.931 . S
H608 C596 0.929 . S
H609 C597 0.960 . S
H610 C597 0.962 . S
H611 C597 0.960 . S
H612 C598 0.961 . S
H613 C598 0.961 1_556 S
H614 C598 0.963 . S
H615 C599 0.931 . S
H616 C604 0.930 . S
H617 C605 0.956 . S
H618 C605 0.961 . S
H619 C605 0.961 . S
H620 C606 0.958 . S
H621 C606 0.961 . S
H622 C606 0.960 . S
C623 C624 1.391 . S
C623 C625 1.394 . S
C623 H639 0.931 . S
C624 C623 1.391 . S
C624 C628 1.376 . S
C625 C623 1.394 . S
C625 C626 1.369 . S
C625 C629 1.531 . S
C626 C625 1.369 . S
C626 C627 1.410 . S
C626 C634 1.503 . S
C627 C626 1.410 . S
C627 C628 1.392 . S
C627 C630 1.511 . S
C628 C624 1.376 . S
C628 C627 1.392 . S
C628 H640 0.929 . S
C629 C625 1.531 . S
C629 H641 0.960 . S
C629 H642 0.962 . S
C629 H643 0.960 . S
C630 C627 1.511 . S
C630 H644 0.961 . S
C630 H645 0.961 . S
C630 H646 0.961 . S
C631 C632 1.370 . S
C631 C633 1.363 . S
C631 H647 0.931 . S
C632 C631 1.370 . S
C632 C636 1.408 1_556 S
C633 C631 1.363 . S
C633 C634 1.370 . S
C633 C637 1.524 . S
C634 C626 1.503 . S
C634 C633 1.370 . S
C634 C635 1.403 . S
C635 C634 1.403 . S
C635 C636 1.404 1_556 S
C635 C638 1.539 1_556 S
C636 C632 1.408 1_554 S
C636 C635 1.404 1_554 S
C636 H648 0.930 . S
C637 C633 1.524 . S
C637 H649 0.956 . S
C637 H650 0.961 . S
C637 H651 0.961 . S
C638 C635 1.539 1_554 S
C638 H652 0.958 . S
C638 H653 0.961 . S
C638 H654 0.960 . S
H639 C623 0.931 . S
H640 C628 0.929 . S
H641 C629 0.960 . S
H642 C629 0.962 . S
H643 C629 0.960 . S
H644 C630 0.961 . S
H645 C630 0.961 . S
H646 C630 0.961 . S
H647 C631 0.931 . S
H648 C636 0.930 . S
H649 C637 0.956 . S
H650 C637 0.961 . S
H651 C637 0.961 . S
H652 C638 0.958 . S
H653 C638 0.961 . S
H654 C638 0.960 . S
C655 C656 1.391 . S
C655 C657 1.394 . S
C655 H671 0.931 . S
C656 C655 1.391 . S
C656 C660 1.376 . S
C657 C655 1.394 . S
C657 C658 1.369 . S
C657 C661 1.532 1_556 S
C658 C657 1.369 . S
C658 C659 1.410 . S
C658 C666 1.503 . S
C659 C658 1.410 . S
C659 C660 1.392 . S
C659 C662 1.511 . S
C660 C656 1.376 . S
C660 C659 1.392 . S
C660 H672 0.929 . S
C661 C657 1.532 1_554 S
C661 H673 0.960 . S
C661 H674 0.961 . S
C661 H675 0.960 . S
C662 C659 1.511 . S
C662 H676 0.961 . S
C662 H677 0.961 . S
C662 H678 0.961 . S
C663 C664 1.370 . S
C663 C665 1.363 . S
C663 H679 0.931 . S
C664 C663 1.370 . S
C664 C668 1.408 . S
C665 C663 1.363 . S
C665 C666 1.370 . S
C665 C669 1.524 . S
C666 C658 1.503 . S
C666 C665 1.370 . S
C666 C667 1.403 . S
C667 C666 1.403 . S
C667 C668 1.404 . S
C667 C670 1.539 . S
C668 C664 1.408 . S
C668 C667 1.404 . S
C668 H680 0.930 . S
C669 C665 1.524 . S
C669 H681 0.956 . S
C669 H682 0.961 . S
C669 H683 0.961 . S
C670 C667 1.539 . S
C670 H684 0.958 . S
C670 H685 0.961 . S
C670 H686 0.960 . S
H671 C655 0.931 . S
H672 C660 0.929 . S
H673 C661 0.960 . S
H674 C661 0.961 . S
H675 C661 0.960 . S
H676 C662 0.961 . S
H677 C662 0.961 . S
H678 C662 0.961 . S
H679 C663 0.931 . S
H680 C668 0.930 . S
H681 C669 0.956 . S
H682 C669 0.961 . S
H683 C669 0.961 . S
H684 C670 0.958 . S
H685 C670 0.961 . S
H686 C670 0.960 . S
C687 C688 1.391 . S
C687 C689 1.394 . S
C687 H703 0.931 . S
C688 C687 1.391 . S
C688 C692 1.376 . S
C689 C687 1.394 . S
C689 C690 1.369 . S
C689 C693 1.531 . S
C690 C689 1.369 . S
C690 C691 1.410 . S
C690 C698 1.503 . S
C691 C690 1.410 . S
C691 C692 1.392 . S
C691 C694 1.511 . S
C692 C688 1.376 . S
C692 C691 1.392 . S
C692 H704 0.929 . S
C693 C689 1.531 . S
C693 H705 0.960 1_556 S
C693 H706 0.962 . S
C693 H707 0.960 1_556 S
C694 C691 1.511 . S
C694 H708 0.961 . S
C694 H709 0.961 . S
C694 H710 0.961 . S
C695 C696 1.370 . S
C695 C697 1.363 . S
C695 H711 0.931 . S
C696 C695 1.370 . S
C696 C700 1.408 . S
C697 C695 1.363 . S
C697 C698 1.370 . S
C697 C701 1.524 . S
C698 C690 1.503 . S
C698 C697 1.370 . S
C698 C699 1.403 . S
C699 C698 1.403 . S
C699 C700 1.404 . S
C699 C702 1.539 . S
C700 C696 1.408 . S
C700 C699 1.404 . S
C700 H712 0.930 1_556 S
C701 C697 1.524 . S
C701 H713 0.956 . S
C701 H714 0.961 . S
C701 H715 0.961 . S
C702 C699 1.539 . S
C702 H716 0.958 1_556 S
C702 H717 0.961 . S
C702 H718 0.960 . S
H703 C687 0.931 . S
H704 C692 0.929 . S
H705 C693 0.960 1_554 S
H706 C693 0.962 . S
H707 C693 0.960 1_554 S
H708 C694 0.961 . S
H709 C694 0.961 . S
H710 C694 0.961 . S
H711 C695 0.931 . S
H712 C700 0.930 1_554 S
H713 C701 0.956 . S
H714 C701 0.961 . S
H715 C701 0.961 . S
H716 C702 0.958 1_554 S
H717 C702 0.961 . S
H718 C702 0.960 . S
C719 C720 1.391 . S
C719 C721 1.394 . S
C719 H735 0.931 . S
C720 C719 1.391 . S
C720 C724 1.376 . S
C721 C719 1.394 . S
C721 C722 1.369 . S
C721 C725 1.531 . S
C722 C721 1.369 . S
C722 C723 1.410 . S
C722 C730 1.503 . S
C723 C722 1.410 . S
C723 C724 1.392 . S
C723 C726 1.511 . S
C724 C720 1.376 . S
C724 C723 1.392 . S
C724 H736 0.929 . S
C725 C721 1.531 . S
C725 H737 0.960 . S
C725 H738 0.962 . S
C725 H739 0.960 . S
C726 C723 1.511 . S
C726 H740 0.961 . S
C726 H741 0.961 . S
C726 H742 0.961 . S
C727 C728 1.370 . S
C727 C729 1.363 . S
C727 H743 0.931 . S
C728 C727 1.370 . S
C728 C732 1.408 . S
C729 C727 1.363 . S
C729 C730 1.370 . S
C729 C733 1.524 . S
C730 C722 1.503 . S
C730 C729 1.370 . S
C730 C731 1.403 . S
C731 C730 1.403 . S
C731 C732 1.404 . S
C731 C734 1.539 1_556 S
C732 C728 1.408 . S
C732 C731 1.404 . S
C732 H744 0.930 . S
C733 C729 1.524 . S
C733 H745 0.956 . S
C733 H746 0.961 . S
C733 H747 0.961 . S
C734 C731 1.539 1_554 S
C734 H748 0.958 . S
C734 H749 0.961 . S
C734 H750 0.960 . S
H735 C719 0.931 . S
H736 C724 0.929 . S
H737 C725 0.960 . S
H738 C725 0.962 . S
H739 C725 0.960 . S
H740 C726 0.961 . S
H741 C726 0.961 . S
H742 C726 0.961 . S
H743 C727 0.931 . S
H744 C732 0.930 . S
H745 C733 0.956 . S
H746 C733 0.961 . S
H747 C733 0.961 . S
H748 C734 0.958 . S
H749 C734 0.961 . S
H750 C734 0.960 . S
C751 C752 1.391 . S
C751 C753 1.394 . S
C751 H767 0.931 . S
C752 C751 1.391 . S
C752 C756 1.376 . S
C753 C751 1.394 . S
C753 C754 1.369 . S
C753 C757 1.531 . S
C754 C753 1.369 . S
C754 C755 1.410 . S
C754 C762 1.503 . S
C755 C754 1.410 . S
C755 C756 1.392 . S
C755 C758 1.511 . S
C756 C752 1.376 . S
C756 C755 1.392 . S
C756 H768 0.929 . S
C757 C753 1.531 . S
C757 H769 0.960 1_556 S
C757 H770 0.962 . S
C757 H771 0.960 1_556 S
C758 C755 1.511 . S
C758 H772 0.961 . S
C758 H773 0.961 . S
C758 H774 0.961 . S
C759 C760 1.370 . S
C759 C761 1.363 . S
C759 H775 0.931 . S
C760 C759 1.370 . S
C760 C764 1.408 . S
C761 C759 1.363 . S
C761 C762 1.370 . S
C761 C765 1.524 . S
C762 C754 1.503 . S
C762 C761 1.370 . S
C762 C763 1.403 . S
C763 C762 1.403 . S
C763 C764 1.404 . S
C763 C766 1.539 . S
C764 C760 1.408 . S
C764 C763 1.404 . S
C764 H776 0.930 1_556 S
C765 C761 1.524 . S
C765 H777 0.956 . S
C765 H778 0.961 . S
C765 H779 0.961 . S
C766 C763 1.539 . S
C766 H780 0.958 1_556 S
C766 H781 0.961 . S
C766 H782 0.960 . S
H767 C751 0.931 . S
H768 C756 0.929 . S
H769 C757 0.960 1_554 S
H770 C757 0.962 . S
H771 C757 0.960 1_554 S
H772 C758 0.961 . S
H773 C758 0.961 . S
H774 C758 0.961 . S
H775 C759 0.931 . S
H776 C764 0.930 1_554 S
H777 C765 0.956 . S
H778 C765 0.961 . S
H779 C765 0.961 . S
H780 C766 0.958 1_554 S
H781 C766 0.961 . S
H782 C766 0.960 . S
C783 C784 1.391 . S
C783 C785 1.394 . S
C783 H799 0.931 . S
C784 C783 1.391 . S
C784 C788 1.376 . S
C785 C783 1.394 . S
C785 C786 1.369 . S
C785 C789 1.531 . S
C786 C785 1.369 . S
C786 C787 1.410 . S
C786 C794 1.503 . S
C787 C786 1.410 . S
C787 C788 1.392 . S
C787 C790 1.511 . S
C788 C784 1.376 . S
C788 C787 1.392 . S
C788 H800 0.929 . S
C789 C785 1.531 . S
C789 H801 0.960 . S
C789 H802 0.962 . S
C789 H803 0.960 . S
C790 C787 1.511 . S
C790 H804 0.961 . S
C790 H805 0.961 . S
C790 H806 0.961 . S
C791 C792 1.370 . S
C791 C793 1.363 . S
C791 H807 0.931 . S
C792 C791 1.370 . S
C792 C796 1.408 . S
C793 C791 1.363 . S
C793 C794 1.370 . S
C793 C797 1.524 . S
C794 C786 1.503 . S
C794 C793 1.370 . S
C794 C795 1.403 . S
C795 C794 1.403 . S
C795 C796 1.404 . S
C795 C798 1.539 . S
C796 C792 1.408 . S
C796 C795 1.404 . S
C796 H808 0.930 . S
C797 C793 1.524 . S
C797 H809 0.956 . S
C797 H810 0.961 . S
C797 H811 0.961 . S
C798 C795 1.539 . S
C798 H812 0.958 . S
C798 H813 0.961 . S
C798 H814 0.960 . S
H799 C783 0.931 . S
H800 C788 0.929 . S
H801 C789 0.960 . S
H802 C789 0.962 . S
H803 C789 0.960 . S
H804 C790 0.961 . S
H805 C790 0.961 . S
H806 C790 0.961 . S
H807 C791 0.931 . S
H808 C796 0.930 . S
H809 C797 0.956 . S
H810 C797 0.961 . S
H811 C797 0.961 . S
H812 C798 0.958 . S
H813 C798 0.961 . S
H814 C798 0.960 . S
C815 C816 1.391 . S
C815 C817 1.394 . S
C815 H831 0.931 . S
C816 C815 1.391 . S
C816 C820 1.376 . S
C817 C815 1.394 . S
C817 C818 1.369 . S
C817 C821 1.531 . S
C818 C817 1.369 . S
C818 C819 1.410 . S
C818 C826 1.503 . S
C819 C818 1.410 . S
C819 C820 1.392 . S
C819 C822 1.511 . S
C820 C816 1.376 . S
C820 C819 1.392 . S
C820 H832 0.929 . S
C821 C817 1.531 . S
C821 H833 0.960 . S
C821 H834 0.962 . S
C821 H835 0.960 . S
C822 C819 1.511 . S
C822 H836 0.961 . S
C822 H837 0.961 . S
C822 H838 0.961 . S
C823 C824 1.370 . S
C823 C825 1.363 . S
C823 H839 0.931 . S
C824 C823 1.370 . S
C824 C828 1.408 . S
C825 C823 1.363 . S
C825 C826 1.370 . S
C825 C829 1.524 . S
C826 C818 1.503 . S
C826 C825 1.370 . S
C826 C827 1.403 . S
C827 C826 1.403 . S
C827 C828 1.404 . S
C827 C830 1.539 . S
C828 C824 1.408 . S
C828 C827 1.404 . S
C828 H840 0.930 1_554 S
C829 C825 1.524 . S
C829 H841 0.956 . S
C829 H842 0.961 . S
C829 H843 0.961 . S
C830 C827 1.539 . S
C830 H844 0.958 1_554 S
C830 H845 0.961 1_554 S
C830 H846 0.960 . S
H831 C815 0.931 . S
H832 C820 0.929 . S
H833 C821 0.960 . S
H834 C821 0.962 . S
H835 C821 0.960 . S
H836 C822 0.961 . S
H837 C822 0.961 . S
H838 C822 0.961 . S
H839 C823 0.931 . S
H840 C828 0.930 1_556 S
H841 C829 0.956 . S
H842 C829 0.961 . S
H843 C829 0.961 . S
H844 C830 0.958 1_556 S
H845 C830 0.961 1_556 S
H846 C830 0.960 . S
C847 C848 1.391 . S
C847 C849 1.394 . S
C847 H863 0.931 . S
C848 C847 1.391 . S
C848 C852 1.376 . S
C849 C847 1.394 . S
C849 C850 1.369 . S
C849 C853 1.531 . S
C850 C849 1.369 . S
C850 C851 1.410 . S
C850 C858 1.503 . S
C851 C850 1.410 . S
C851 C852 1.392 . S
C851 C854 1.511 . S
C852 C848 1.376 . S
C852 C851 1.392 . S
C852 H864 0.929 . S
C853 C849 1.531 . S
C853 H865 0.960 . S
C853 H866 0.962 . S
C853 H867 0.960 . S
C854 C851 1.511 . S
C854 H868 0.961 . S
C854 H869 0.961 . S
C854 H870 0.961 . S
C855 C856 1.370 . S
C855 C857 1.363 . S
C855 H871 0.931 . S
C856 C855 1.370 . S
C856 C860 1.408 . S
C857 C855 1.363 . S
C857 C858 1.370 . S
C857 C861 1.524 . S
C858 C850 1.503 . S
C858 C857 1.370 . S
C858 C859 1.403 . S
C859 C858 1.403 . S
C859 C860 1.404 . S
C859 C862 1.539 . S
C860 C856 1.408 . S
C860 C859 1.404 . S
C860 H872 0.930 . S
C861 C857 1.524 . S
C861 H873 0.956 . S
C861 H874 0.961 . S
C861 H875 0.961 . S
C862 C859 1.539 . S
C862 H876 0.958 . S
C862 H877 0.961 . S
C862 H878 0.960 . S
H863 C847 0.931 . S
H864 C852 0.929 . S
H865 C853 0.960 . S
H866 C853 0.962 . S
H867 C853 0.960 . S
H868 C854 0.961 . S
H869 C854 0.961 . S
H870 C854 0.961 . S
H871 C855 0.931 . S
H872 C860 0.930 . S
H873 C861 0.956 . S
H874 C861 0.961 . S
H875 C861 0.961 . S
H876 C862 0.958 . S
H877 C862 0.961 . S
H878 C862 0.960 . S
C879 C880 1.391 . S
C879 C881 1.394 . S
C879 H895 0.931 . S
C880 C879 1.391 . S
C880 C884 1.376 . S
C881 C879 1.394 . S
C881 C882 1.369 . S
C881 C885 1.531 . S
C882 C881 1.369 . S
C882 C883 1.410 . S
C882 C890 1.503 . S
C883 C882 1.410 . S
C883 C884 1.392 . S
C883 C886 1.511 . S
C884 C880 1.376 . S
C884 C883 1.392 . S
C884 H896 0.929 . S
C885 C881 1.531 . S
C885 H897 0.960 . S
C885 H898 0.962 . S
C885 H899 0.960 . S
C886 C883 1.511 . S
C886 H900 0.961 . S
C886 H901 0.961 . S
C886 H902 0.961 . S
C887 C888 1.370 . S
C887 C889 1.363 . S
C887 H903 0.931 . S
C888 C887 1.370 . S
C888 C892 1.408 . S
C889 C887 1.363 . S
C889 C890 1.370 . S
C889 C893 1.524 . S
C890 C882 1.503 . S
C890 C889 1.370 . S
C890 C891 1.403 . S
C891 C890 1.403 . S
C891 C892 1.404 . S
C891 C894 1.539 . S
C892 C888 1.408 . S
C892 C891 1.404 . S
C892 H904 0.930 . S
C893 C889 1.524 . S
C893 H905 0.956 . S
C893 H906 0.961 . S
C893 H907 0.961 . S
C894 C891 1.539 . S
C894 H908 0.958 . S
C894 H909 0.961 . S
C894 H910 0.960 . S
H895 C879 0.931 . S
H896 C884 0.929 . S
H897 C885 0.960 . S
H898 C885 0.962 . S
H899 C885 0.960 . S
H900 C886 0.961 . S
H901 C886 0.961 . S
H902 C886 0.961 . S
H903 C887 0.931 . S
H904 C892 0.930 . S
H905 C893 0.956 . S
H906 C893 0.961 . S
H907 C893 0.961 . S
H908 C894 0.958 . S
H909 C894 0.961 . S
H910 C894 0.960 . S
C911 C912 1.391 . S
C911 C913 1.394 . S
C911 H927 0.931 . S
C912 C911 1.391 . S
C912 C916 1.376 . S
C913 C911 1.394 . S
C913 C914 1.369 . S
C913 C917 1.531 . S
C914 C913 1.369 . S
C914 C915 1.410 . S
C914 C922 1.503 . S
C915 C914 1.410 . S
C915 C916 1.392 . S
C915 C918 1.511 . S
C916 C912 1.376 . S
C916 C915 1.392 . S
C916 H928 0.929 . S
C917 C913 1.531 . S
C917 H929 0.960 . S
C917 H930 0.962 . S
C917 H931 0.960 . S
C918 C915 1.511 . S
C918 H932 0.961 . S
C918 H933 0.961 . S
C918 H934 0.961 . S
C919 C920 1.370 . S
C919 C921 1.363 . S
C919 H935 0.931 . S
C920 C919 1.370 . S
C920 C924 1.408 . S
C921 C919 1.363 . S
C921 C922 1.370 1_565 S
C921 C925 1.524 . S
C922 C914 1.503 . S
C922 C921 1.370 1_545 S
C922 C923 1.412 . S
C923 C922 1.412 . S
C923 C924 1.388 1_545 S
C923 C926 1.544 . S
C924 C920 1.408 . S
C924 C923 1.388 1_565 S
C924 H936 0.930 . S
C925 C921 1.524 . S
C925 H937 0.956 1_565 S
C925 H938 0.961 1_565 S
C925 H939 0.961 . S
C926 C923 1.544 . S
C926 H940 0.958 . S
C926 H941 0.961 . S
C926 H942 0.960 . S
H927 C911 0.931 . S
H928 C916 0.929 . S
H929 C917 0.960 . S
H930 C917 0.962 . S
H931 C917 0.960 . S
H932 C918 0.961 . S
H933 C918 0.961 . S
H934 C918 0.961 . S
H935 C919 0.931 . S
H936 C924 0.930 . S
H937 C925 0.956 1_545 S
H938 C925 0.961 1_545 S
H939 C925 0.961 . S
H940 C926 0.958 . S
H941 C926 0.961 . S
H942 C926 0.960 . S
C943 C944 1.391 . S
C943 C945 1.394 . S
C943 H959 0.931 . S
C944 C943 1.391 . S
C944 C948 1.376 . S
C945 C943 1.394 . S
C945 C946 1.369 . S
C945 C949 1.531 . S
C946 C945 1.369 . S
C946 C947 1.410 . S
C946 C954 1.503 1_655 S
C947 C946 1.410 . S
C947 C948 1.392 . S
C947 C950 1.511 1_655 S
C948 C944 1.376 . S
C948 C947 1.392 . S
C948 H960 0.929 . S
C949 C945 1.531 . S
C949 H961 0.960 . S
C949 H962 0.962 . S
C949 H963 0.960 . S
C950 C947 1.511 1_455 S
C950 H964 0.961 . S
C950 H965 0.961 . S
C950 H966 0.961 . S
C951 C952 1.370 . S
C951 C953 1.363 . S
C951 H967 0.931 . S
C952 C951 1.370 . S
C952 C956 1.408 . S
C953 C951 1.363 . S
C953 C954 1.370 . S
C953 C957 1.539 . S
C954 C946 1.503 1_455 S
C954 C953 1.370 . S
C954 C955 1.403 . S
C955 C954 1.403 . S
C955 C956 1.404 . S
C955 C958 1.539 . S
C956 C952 1.408 . S
C956 C955 1.404 . S
C956 H968 0.930 . S
C957 C953 1.539 . S
C957 H969 0.915 1_455 S
C957 H970 0.960 1_455 S
C957 H971 0.990 . S
C958 C955 1.539 . S
C958 H972 0.958 . S
C958 H973 0.961 . S
C958 H974 0.960 . S
H959 C943 0.931 . S
H960 C948 0.929 . S
H961 C949 0.960 . S
H962 C949 0.962 . S
H963 C949 0.960 . S
H964 C950 0.961 . S
H965 C950 0.961 . S
H966 C950 0.961 . S
H967 C951 0.931 . S
H968 C956 0.930 . S
H969 C957 0.915 1_655 S
H970 C957 0.960 1_655 S
H971 C957 0.990 . S
H972 C958 0.958 . S
H973 C958 0.961 . S
H974 C958 0.960 . S
C975 C976 1.391 . S
C975 C977 1.394 . S
C975 H991 0.931 . S
C976 C975 1.391 . S
C976 C980 1.376 . S
C977 C975 1.394 . S
C977 C978 1.369 . S
C977 C981 1.531 . S
C978 C977 1.369 . S
C978 C979 1.410 . S
C978 C986 1.503 . S
C979 C978 1.410 . S
C979 C980 1.392 . S
C979 C982 1.511 . S
C980 C976 1.376 . S
C980 C979 1.392 . S
C980 H992 0.929 . S
C981 C977 1.531 . S
C981 H993 0.960 . S
C981 H994 0.962 . S
C981 H995 0.960 . S
C982 C979 1.511 . S
C982 H996 0.961 . S
C982 H997 0.961 . S
C982 H998 0.961 . S
C983 C984 1.370 . S
C983 C985 1.363 . S
C983 H999 0.931 . S
C984 C983 1.370 . S
C984 C988 1.408 . S
C985 C983 1.363 . S
C985 C986 1.370 . S
C985 C989 1.524 . S
C986 C978 1.503 . S
C986 C985 1.370 . S
C986 C987 1.403 . S
C987 C986 1.403 . S
C987 C988 1.404 . S
C987 C990 1.539 . S
C988 C984 1.408 . S
C988 C987 1.404 . S
C988 H1000 0.930 . S
C989 C985 1.524 . S
C989 H1001 0.956 . S
C989 H1002 0.961 . S
C989 H1003 0.961 . S
C990 C987 1.539 . S
C990 H1004 0.958 . S
C990 H1005 0.961 . S
C990 H1006 0.960 . S
H991 C975 0.931 . S
H992 C980 0.929 . S
H993 C981 0.960 . S
H994 C981 0.962 . S
H995 C981 0.960 . S
H996 C982 0.961 . S
H997 C982 0.961 . S
H998 C982 0.961 . S
H999 C983 0.931 . S
H1000 C988 0.930 . S
H1001 C989 0.956 . S
H1002 C989 0.961 . S
H1003 C989 0.961 . S
H1004 C990 0.958 . S
H1005 C990 0.961 . S
H1006 C990 0.960 . S
C1007 C1008 1.391 . S
C1007 C1009 1.394 1_565 S
C1007 H1023 0.931 . S
C1008 C1007 1.391 . S
C1008 C1012 1.376 . S
C1009 C1007 1.394 1_545 S
C1009 C1010 1.369 . S
C1009 C1013 1.531 . S
C1010 C1009 1.369 . S
C1010 C1011 1.410 1_545 S
C1010 C1018 1.503 . S
C1011 C1010 1.410 1_565 S
C1011 C1012 1.392 . S
C1011 C1014 1.511 . S
C1012 C1008 1.376 . S
C1012 C1011 1.392 . S
C1012 H1024 0.929 . S
C1013 C1009 1.531 . S
C1013 H1025 0.960 . S
C1013 H1026 0.962 . S
C1013 H1027 0.960 . S
C1014 C1011 1.511 . S
C1014 H1028 0.961 . S
C1014 H1029 0.961 1_565 S
C1014 H1030 0.961 . S
C1015 C1016 1.370 . S
C1015 C1017 1.363 . S
C1015 H1031 0.931 . S
C1016 C1015 1.370 . S
C1016 C1020 1.408 . S
C1017 C1015 1.363 . S
C1017 C1018 1.370 . S
C1017 C1021 1.524 . S
C1018 C1010 1.503 . S
C1018 C1017 1.370 . S
C1018 C1019 1.403 . S
C1019 C1018 1.403 . S
C1019 C1020 1.404 . S
C1019 C1022 1.539 . S
C1020 C1016 1.408 . S
C1020 C1019 1.404 . S
C1020 H1032 0.930 . S
C1021 C1017 1.524 . S
C1021 H1033 0.956 . S
C1021 H1034 0.961 . S
C1021 H1035 0.961 . S
C1022 C1019 1.539 . S
C1022 H1036 0.958 . S
C1022 H1037 0.961 . S
C1022 H1038 0.960 . S
H1023 C1007 0.931 . S
H1024 C1012 0.929 . S
H1025 C1013 0.960 . S
H1026 C1013 0.962 . S
H1027 C1013 0.960 . S
H1028 C1014 0.961 . S
H1029 C1014 0.961 1_545 S
H1030 C1014 0.961 . S
H1031 C1015 0.931 . S
H1032 C1020 0.930 . S
H1033 C1021 0.956 . S
H1034 C1021 0.961 . S
H1035 C1021 0.961 . S
H1036 C1022 0.958 . S
H1037 C1022 0.961 . S
H1038 C1022 0.960 . S
C1039 C1040 1.391 . S
C1039 C1041 1.394 . S
C1039 H1055 0.931 . S
C1040 C1039 1.391 . S
C1040 C1044 1.376 . S
C1041 C1039 1.394 . S
C1041 C1042 1.369 . S
C1041 C1045 1.531 . S
C1042 C1041 1.369 . S
C1042 C1043 1.410 . S
C1042 C1050 1.503 1_655 S
C1043 C1042 1.410 . S
C1043 C1044 1.392 . S
C1043 C1046 1.511 . S
C1044 C1040 1.376 . S
C1044 C1043 1.392 . S
C1044 H1056 0.929 . S
C1045 C1041 1.531 . S
C1045 H1057 0.960 1_655 S
C1045 H1058 0.962 1_655 S
C1045 H1059 0.960 . S
C1046 C1043 1.511 . S
C1046 H1060 0.961 . S
C1046 H1061 0.961 . S
C1046 H1062 0.961 . S
C1047 C1048 1.370 . S
C1047 C1049 1.363 . S
C1047 H1063 0.931 . S
C1048 C1047 1.370 . S
C1048 C1052 1.408 . S
C1049 C1047 1.363 . S
C1049 C1050 1.370 . S
C1049 C1053 1.524 . S
C1050 C1042 1.503 1_455 S
C1050 C1049 1.370 . S
C1050 C1051 1.403 . S
C1051 C1050 1.403 . S
C1051 C1052 1.404 . S
C1051 C1054 1.539 1_455 S
C1052 C1048 1.408 . S
C1052 C1051 1.404 . S
C1052 H1064 0.930 . S
C1053 C1049 1.524 . S
C1053 H1065 0.956 . S
C1053 H1066 0.961 . S
C1053 H1067 0.961 . S
C1054 C1051 1.539 1_655 S
C1054 H1068 0.958 . S
C1054 H1069 0.961 . S
C1054 H1070 0.960 . S
H1055 C1039 0.931 . S
H1056 C1044 0.929 . S
H1057 C1045 0.960 1_455 S
H1058 C1045 0.962 1_455 S
H1059 C1045 0.960 . S
H1060 C1046 0.961 . S
H1061 C1046 0.961 . S
H1062 C1046 0.961 . S
H1063 C1047 0.931 . S
H1064 C1052 0.930 . S
H1065 C1053 0.956 . S
H1066 C1053 0.961 . S
H1067 C1053 0.961 . S
H1068 C1054 0.958 . S
H1069 C1054 0.961 . S
H1070 C1054 0.960 . S
C208 C19 1.046 . S
C216 C20 0.919 . S
C240 C42 1.013 . S
C248 C43 0.925 . S
C272 C65 1.027 . S
C280 C66 0.920 . S
C304 C87 1.070 . S
C312 C90 1.004 . S
C336 C110 1.080 . S
C344 C113 0.970 . S
C368 C133 1.074 . S
C376 C136 1.022 . S
C400 C159 0.909 . S
C408 C156 1.032 1_554 S
C432 C182 1.021 . S
C440 C179 1.048 . S
C464 C205 0.961 . S
C472 C202 1.043 . S
C496 C132 1.458 . S
C504 C16 1.443 . S
C528 C39 1.414 . S
C536 C86 1.454 . S
C560 C62 1.451 . S
C568 C109 1.446 . S
C592 C64 1.218 . S
C600 C157 1.187 . S
C624 C180 1.143 . S
C632 C18 1.202 . S
C656 C203 1.182 . S
C664 C41 1.211 . S
C688 C200 1.015 . S
C696 C17 1.016 . S
C720 C40 1.027 . S
C728 C154 0.994 . S
C752 C177 1.014 . S
C760 C63 1.016 . S
C784 C67 1.157 . S
C792 C89 1.193 . S
C816 C112 1.175 . S
C824 C21 1.188 . S
C848 C44 1.149 . S
C856 C135 1.189 . S
C880 C201 1.308 . S
C888 C88 1.256 . S
C912 C155 1.278 . S
C920 C111 1.281 . S
C944 C178 1.297 . S
C952 C134 1.262 . S
C976 C158 1.090 . S
C984 C131 1.104 . S
C1008 C85 1.077 . S
C1016 C181 1.028 . S
C1040 C204 0.981 . S
C1048 C108 1.103 . S
