# Generated by pormake.
# Topology wmy, (6)-cn, num edge types: 1
# Building blocks:
#     Node 0, Type 0, BuildingBlock: VOLQOD_clean_sbu_1, # of connection points: 6
#     Node 1, Type 0, BuildingBlock: VOLQOD_clean_sbu_1, # of connection points: 6
#     Node 2, Type 0, BuildingBlock: VOLQOD_clean_sbu_1, # of connection points: 6
#     Node 3, Type 0, BuildingBlock: VOLQOD_clean_sbu_1, # of connection points: 6
#     Node 4, Type 0, BuildingBlock: VOLQOD_clean_sbu_1, # of connection points: 6
#     Node 5, Type 0, BuildingBlock: VOLQOD_clean_sbu_1, # of connection points: 6
#     Node 6, Type 0, BuildingBlock: VOLQOD_clean_sbu_1, # of connection points: 6
#     Node 7, Type 0, BuildingBlock: VOLQOD_clean_sbu_1, # of connection points: 6
#     Node 8, Type 0, BuildingBlock: VOLQOD_clean_sbu_1, # of connection points: 6
#     Node 9, Type 0, BuildingBlock: VOLQOD_clean_sbu_1, # of connection points: 6
#     Node 10, Type 0, BuildingBlock: VOLQOD_clean_sbu_1, # of connection points: 6
#     Node 11, Type 0, BuildingBlock: VOLQOD_clean_sbu_1, # of connection points: 6
#     Node 12, Type 0, BuildingBlock: VOLQOD_clean_sbu_1, # of connection points: 6
#     Node 13, Type 0, BuildingBlock: VOLQOD_clean_sbu_1, # of connection points: 6
#     Node 14, Type 0, BuildingBlock: VOLQOD_clean_sbu_1, # of connection points: 6
#     Node 15, Type 0, BuildingBlock: VOLQOD_clean_sbu_1, # of connection points: 6
#     Node 16, Type 0, BuildingBlock: VOLQOD_clean_sbu_1, # of connection points: 6
#     Node 17, Type 0, BuildingBlock: VOLQOD_clean_sbu_1, # of connection points: 6
#     Node 18, Type 0, BuildingBlock: VOLQOD_clean_sbu_1, # of connection points: 6
#     Node 19, Type 0, BuildingBlock: VOLQOD_clean_sbu_1, # of connection points: 6
#     Node 20, Type 0, BuildingBlock: VOLQOD_clean_sbu_1, # of connection points: 6
#     Node 21, Type 0, BuildingBlock: VOLQOD_clean_sbu_1, # of connection points: 6
#     Node 22, Type 0, BuildingBlock: VOLQOD_clean_sbu_1, # of connection points: 6
#     Node 23, Type 0, BuildingBlock: VOLQOD_clean_sbu_1, # of connection points: 6
#     Node 24, Type 0, BuildingBlock: VOLQOD_clean_sbu_1, # of connection points: 6
#     Node 25, Type 0, BuildingBlock: VOLQOD_clean_sbu_1, # of connection points: 6
#     Node 26, Type 0, BuildingBlock: VOLQOD_clean_sbu_1, # of connection points: 6
#     Node 27, Type 0, BuildingBlock: VOLQOD_clean_sbu_1, # of connection points: 6
#     Node 28, Type 0, BuildingBlock: VOLQOD_clean_sbu_1, # of connection points: 6
#     Node 29, Type 0, BuildingBlock: VOLQOD_clean_sbu_1, # of connection points: 6
#     Node 30, Type 0, BuildingBlock: VOLQOD_clean_sbu_1, # of connection points: 6
#     Node 31, Type 0, BuildingBlock: VOLQOD_clean_sbu_1, # of connection points: 6
#     Node 32, Type 0, BuildingBlock: VOLQOD_clean_sbu_1, # of connection points: 6
#     Node 33, Type 0, BuildingBlock: VOLQOD_clean_sbu_1, # of connection points: 6
#     Node 34, Type 0, BuildingBlock: VOLQOD_clean_sbu_1, # of connection points: 6
#     Node 35, Type 0, BuildingBlock: VOLQOD_clean_sbu_1, # of connection points: 6
#     Edge 36, Type (0, 0), BuildingBlock: OJICUG_clean_linker_0, # of connection points: 2
#     Edge 37, Type (0, 0), BuildingBlock: OJICUG_clean_linker_0, # of connection points: 2
#     Edge 38, Type (0, 0), BuildingBlock: OJICUG_clean_linker_0, # of connection points: 2
#     Edge 39, Type (0, 0), BuildingBlock: OJICUG_clean_linker_0, # of connection points: 2
#     Edge 40, Type (0, 0), BuildingBlock: OJICUG_clean_linker_0, # of connection points: 2
#     Edge 41, Type (0, 0), BuildingBlock: OJICUG_clean_linker_0, # of connection points: 2
#     Edge 42, Type (0, 0), BuildingBlock: OJICUG_clean_linker_0, # of connection points: 2
#     Edge 43, Type (0, 0), BuildingBlock: OJICUG_clean_linker_0, # of connection points: 2
#     Edge 44, Type (0, 0), BuildingBlock: OJICUG_clean_linker_0, # of connection points: 2
#     Edge 45, Type (0, 0), BuildingBlock: OJICUG_clean_linker_0, # of connection points: 2
#     Edge 46, Type (0, 0), BuildingBlock: OJICUG_clean_linker_0, # of connection points: 2
#     Edge 47, Type (0, 0), BuildingBlock: OJICUG_clean_linker_0, # of connection points: 2
#     Edge 48, Type (0, 0), BuildingBlock: OJICUG_clean_linker_0, # of connection points: 2
#     Edge 49, Type (0, 0), BuildingBlock: OJICUG_clean_linker_0, # of connection points: 2
#     Edge 50, Type (0, 0), BuildingBlock: OJICUG_clean_linker_0, # of connection points: 2
#     Edge 51, Type (0, 0), BuildingBlock: OJICUG_clean_linker_0, # of connection points: 2
#     Edge 52, Type (0, 0), BuildingBlock: OJICUG_clean_linker_0, # of connection points: 2
#     Edge 53, Type (0, 0), BuildingBlock: OJICUG_clean_linker_0, # of connection points: 2
#     Edge 54, Type (0, 0), BuildingBlock: OJICUG_clean_linker_0, # of connection points: 2
#     Edge 55, Type (0, 0), BuildingBlock: OJICUG_clean_linker_0, # of connection points: 2
#     Edge 56, Type (0, 0), BuildingBlock: OJICUG_clean_linker_0, # of connection points: 2
#     Edge 57, Type (0, 0), BuildingBlock: OJICUG_clean_linker_0, # of connection points: 2
#     Edge 58, Type (0, 0), BuildingBlock: OJICUG_clean_linker_0, # of connection points: 2
#     Edge 59, Type (0, 0), BuildingBlock: OJICUG_clean_linker_0, # of connection points: 2
#     Edge 60, Type (0, 0), BuildingBlock: OJICUG_clean_linker_0, # of connection points: 2
#     Edge 61, Type (0, 0), BuildingBlock: OJICUG_clean_linker_0, # of connection points: 2
#     Edge 62, Type (0, 0), BuildingBlock: OJICUG_clean_linker_0, # of connection points: 2
#     Edge 63, Type (0, 0), BuildingBlock: OJICUG_clean_linker_0, # of connection points: 2
#     Edge 64, Type (0, 0), BuildingBlock: OJICUG_clean_linker_0, # of connection points: 2
#     Edge 65, Type (0, 0), BuildingBlock: OJICUG_clean_linker_0, # of connection points: 2
#     Edge 66, Type (0, 0), BuildingBlock: OJICUG_clean_linker_0, # of connection points: 2
#     Edge 67, Type (0, 0), BuildingBlock: OJICUG_clean_linker_0, # of connection points: 2
#     Edge 68, Type (0, 0), BuildingBlock: OJICUG_clean_linker_0, # of connection points: 2
#     Edge 69, Type (0, 0), BuildingBlock: OJICUG_clean_linker_0, # of connection points: 2
#     Edge 70, Type (0, 0), BuildingBlock: OJICUG_clean_linker_0, # of connection points: 2
#     Edge 71, Type (0, 0), BuildingBlock: OJICUG_clean_linker_0, # of connection points: 2
#     Edge 72, Type (0, 0), BuildingBlock: OJICUG_clean_linker_0, # of connection points: 2
#     Edge 73, Type (0, 0), BuildingBlock: OJICUG_clean_linker_0, # of connection points: 2
#     Edge 74, Type (0, 0), BuildingBlock: OJICUG_clean_linker_0, # of connection points: 2
#     Edge 75, Type (0, 0), BuildingBlock: OJICUG_clean_linker_0, # of connection points: 2
#     Edge 76, Type (0, 0), BuildingBlock: OJICUG_clean_linker_0, # of connection points: 2
#     Edge 77, Type (0, 0), BuildingBlock: OJICUG_clean_linker_0, # of connection points: 2
#     Edge 78, Type (0, 0), BuildingBlock: OJICUG_clean_linker_0, # of connection points: 2
#     Edge 79, Type (0, 0), BuildingBlock: OJICUG_clean_linker_0, # of connection points: 2
#     Edge 80, Type (0, 0), BuildingBlock: OJICUG_clean_linker_0, # of connection points: 2
#     Edge 81, Type (0, 0), BuildingBlock: OJICUG_clean_linker_0, # of connection points: 2
#     Edge 82, Type (0, 0), BuildingBlock: OJICUG_clean_linker_0, # of connection points: 2
#     Edge 83, Type (0, 0), BuildingBlock: OJICUG_clean_linker_0, # of connection points: 2
#     Edge 84, Type (0, 0), BuildingBlock: OJICUG_clean_linker_0, # of connection points: 2
#     Edge 85, Type (0, 0), BuildingBlock: OJICUG_clean_linker_0, # of connection points: 2
#     Edge 86, Type (0, 0), BuildingBlock: OJICUG_clean_linker_0, # of connection points: 2
#     Edge 87, Type (0, 0), BuildingBlock: OJICUG_clean_linker_0, # of connection points: 2
#     Edge 88, Type (0, 0), BuildingBlock: OJICUG_clean_linker_0, # of connection points: 2
#     Edge 89, Type (0, 0), BuildingBlock: OJICUG_clean_linker_0, # of connection points: 2
#     Edge 90, Type (0, 0), BuildingBlock: OJICUG_clean_linker_0, # of connection points: 2
#     Edge 91, Type (0, 0), BuildingBlock: OJICUG_clean_linker_0, # of connection points: 2
#     Edge 92, Type (0, 0), BuildingBlock: OJICUG_clean_linker_0, # of connection points: 2
#     Edge 93, Type (0, 0), BuildingBlock: OJICUG_clean_linker_0, # of connection points: 2
#     Edge 94, Type (0, 0), BuildingBlock: OJICUG_clean_linker_0, # of connection points: 2
#     Edge 95, Type (0, 0), BuildingBlock: OJICUG_clean_linker_0, # of connection points: 2
#     Edge 96, Type (0, 0), BuildingBlock: OJICUG_clean_linker_0, # of connection points: 2
#     Edge 97, Type (0, 0), BuildingBlock: OJICUG_clean_linker_0, # of connection points: 2
#     Edge 98, Type (0, 0), BuildingBlock: OJICUG_clean_linker_0, # of connection points: 2
#     Edge 99, Type (0, 0), BuildingBlock: OJICUG_clean_linker_0, # of connection points: 2
#     Edge 100, Type (0, 0), BuildingBlock: OJICUG_clean_linker_0, # of connection points: 2
#     Edge 101, Type (0, 0), BuildingBlock: OJICUG_clean_linker_0, # of connection points: 2
#     Edge 102, Type (0, 0), BuildingBlock: OJICUG_clean_linker_0, # of connection points: 2
#     Edge 103, Type (0, 0), BuildingBlock: OJICUG_clean_linker_0, # of connection points: 2
#     Edge 104, Type (0, 0), BuildingBlock: OJICUG_clean_linker_0, # of connection points: 2
#     Edge 105, Type (0, 0), BuildingBlock: OJICUG_clean_linker_0, # of connection points: 2
#     Edge 106, Type (0, 0), BuildingBlock: OJICUG_clean_linker_0, # of connection points: 2
#     Edge 107, Type (0, 0), BuildingBlock: OJICUG_clean_linker_0, # of connection points: 2
#     Edge 108, Type (0, 0), BuildingBlock: OJICUG_clean_linker_0, # of connection points: 2
#     Edge 109, Type (0, 0), BuildingBlock: OJICUG_clean_linker_0, # of connection points: 2
#     Edge 110, Type (0, 0), BuildingBlock: OJICUG_clean_linker_0, # of connection points: 2
#     Edge 111, Type (0, 0), BuildingBlock: OJICUG_clean_linker_0, # of connection points: 2
#     Edge 112, Type (0, 0), BuildingBlock: OJICUG_clean_linker_0, # of connection points: 2
#     Edge 113, Type (0, 0), BuildingBlock: OJICUG_clean_linker_0, # of connection points: 2
#     Edge 114, Type (0, 0), BuildingBlock: OJICUG_clean_linker_0, # of connection points: 2
#     Edge 115, Type (0, 0), BuildingBlock: OJICUG_clean_linker_0, # of connection points: 2
#     Edge 116, Type (0, 0), BuildingBlock: OJICUG_clean_linker_0, # of connection points: 2
#     Edge 117, Type (0, 0), BuildingBlock: OJICUG_clean_linker_0, # of connection points: 2
#     Edge 118, Type (0, 0), BuildingBlock: OJICUG_clean_linker_0, # of connection points: 2
#     Edge 119, Type (0, 0), BuildingBlock: OJICUG_clean_linker_0, # of connection points: 2
#     Edge 120, Type (0, 0), BuildingBlock: OJICUG_clean_linker_0, # of connection points: 2
#     Edge 121, Type (0, 0), BuildingBlock: OJICUG_clean_linker_0, # of connection points: 2
#     Edge 122, Type (0, 0), BuildingBlock: OJICUG_clean_linker_0, # of connection points: 2
#     Edge 123, Type (0, 0), BuildingBlock: OJICUG_clean_linker_0, # of connection points: 2
#     Edge 124, Type (0, 0), BuildingBlock: OJICUG_clean_linker_0, # of connection points: 2
#     Edge 125, Type (0, 0), BuildingBlock: OJICUG_clean_linker_0, # of connection points: 2
#     Edge 126, Type (0, 0), BuildingBlock: OJICUG_clean_linker_0, # of connection points: 2
#     Edge 127, Type (0, 0), BuildingBlock: OJICUG_clean_linker_0, # of connection points: 2
#     Edge 128, Type (0, 0), BuildingBlock: OJICUG_clean_linker_0, # of connection points: 2
#     Edge 129, Type (0, 0), BuildingBlock: OJICUG_clean_linker_0, # of connection points: 2
#     Edge 130, Type (0, 0), BuildingBlock: OJICUG_clean_linker_0, # of connection points: 2
#     Edge 131, Type (0, 0), BuildingBlock: OJICUG_clean_linker_0, # of connection points: 2
#     Edge 132, Type (0, 0), BuildingBlock: OJICUG_clean_linker_0, # of connection points: 2
#     Edge 133, Type (0, 0), BuildingBlock: OJICUG_clean_linker_0, # of connection points: 2
#     Edge 134, Type (0, 0), BuildingBlock: OJICUG_clean_linker_0, # of connection points: 2
#     Edge 135, Type (0, 0), BuildingBlock: OJICUG_clean_linker_0, # of connection points: 2
#     Edge 136, Type (0, 0), BuildingBlock: OJICUG_clean_linker_0, # of connection points: 2
#     Edge 137, Type (0, 0), BuildingBlock: OJICUG_clean_linker_0, # of connection points: 2
#     Edge 138, Type (0, 0), BuildingBlock: OJICUG_clean_linker_0, # of connection points: 2
#     Edge 139, Type (0, 0), BuildingBlock: OJICUG_clean_linker_0, # of connection points: 2
#     Edge 140, Type (0, 0), BuildingBlock: OJICUG_clean_linker_0, # of connection points: 2
#     Edge 141, Type (0, 0), BuildingBlock: OJICUG_clean_linker_0, # of connection points: 2
#     Edge 142, Type (0, 0), BuildingBlock: OJICUG_clean_linker_0, # of connection points: 2
#     Edge 143, Type (0, 0), BuildingBlock: OJICUG_clean_linker_0, # of connection points: 2
# Relax obj value: 0.747
# Max RMSD: 0.311
# Mean RMSD: 0.311
data_MOF--net-wmy--node1-VOLQOD_clean_sbu_1--edge1-OJICUG_clean_linker_0
_symmetry_space_group_name_H-M    P1
_symmetry_Int_Tables_number       1
_symmetry_cell_setting            triclinic
loop_
_symmetry_equiv_pos_as_xyz
'x, y, z'
_cell_length_a     43.088888
_cell_length_b     43.088069
_cell_length_c     41.026722
_cell_angle_alpha  90.095059
_cell_angle_beta   89.849584
_cell_angle_gamma 120.12603
loop_
_atom_site_label
_atom_site_type_symbol
_atom_site_fract_x
_atom_site_fract_y
_atom_site_fract_z
_atom_type_partial_charge
O0 O -0.00232 0.16841 0.18552 0.0
Zn1 Zn 0.00728 0.17462 0.13688 0.0
O2 O 0.96402 0.14723 0.11376 0.0
Zn3 Zn 0.96641 0.11854 0.07939 0.0
Zn4 Zn 0.92493 0.11849 0.14204 0.0
Zn5 Zn 0.95338 0.17822 0.09042 0.0
O6 O -0.01997 0.14342 0.03505 0.0
O7 O -0.01467 0.19483 0.05093 0.0
O8 O 0.0417 0.15667 0.12462 0.0
O9 O 0.00817 0.11356 0.08902 0.0
O10 O 0.923 0.06884 0.0814 0.0
O11 O 0.91012 0.06722 0.13429 0.0
O12 O 0.88132 0.12001 0.1268 0.0
O13 O 0.02363 0.22621 0.12521 0.0
O14 O 0.90082 0.14657 0.07888 0.0
O15 O 0.97134 0.22353 0.11548 0.0
C16 C 0.96942 0.15162 0.20293 0.0
C17 C -0.00812 0.17676 0.03045 0.0
C18 C 0.90649 0.05148 0.10704 0.0
C19 C 0.03662 0.13087 0.10572 0.0
C20 C 0.87555 0.12325 0.09682 0.0
C21 C 0.00518 0.24164 0.12051 0.0
O22 O 0.93865 0.1321 0.18981 0.0
O23 O 0.79208 0.82156 0.18512 0.0
Zn24 Zn 0.78593 0.82498 0.13655 0.0
O25 O 0.81321 0.80909 0.11325 0.0
Zn26 Zn 0.84202 0.84032 0.07896 0.0
Zn27 Zn 0.84184 0.79868 0.14137 0.0
Zn28 Zn 0.78205 0.76742 0.08981 0.0
O29 O 0.81711 0.82918 0.03467 0.0
O30 O 0.76564 0.78294 0.05049 0.0
O31 O 0.80404 0.87742 0.12454 0.0
O32 O 0.84717 0.88712 0.08887 0.0
O33 O 0.89169 0.84665 0.08079 0.0
O34 O 0.8932 0.83516 0.13358 0.0
O35 O 0.84002 0.75341 0.12588 0.0
O36 O 0.73432 0.78983 0.12482 0.0
O37 O 0.81348 0.74638 0.07804 0.0
O38 O 0.7366 0.74004 0.11479 0.0
C39 C 0.80884 0.81013 0.20244 0.0
C40 C 0.78375 0.80767 0.03009 0.0
C41 C 0.90899 0.84742 0.10636 0.0
C42 C 0.82989 0.89823 0.1057 0.0
C43 C 0.83676 0.74442 0.09586 0.0
C44 C 0.71867 0.7559 0.11992 0.0
O45 O 0.8283 0.79886 0.18921 0.0
O46 O 0.13896 0.96355 0.18437 0.0
Zn47 Zn 0.13556 0.95386 0.13575 0.0
O48 O 0.15154 -0.00291 0.11254 0.0
Zn49 Zn 0.12031 -0.00531 0.0784 0.0
Zn50 Zn 0.16212 0.03625 0.14078 0.0
Zn51 Zn 0.19313 0.00764 0.0889 0.0
O52 O 0.13141 0.98111 0.03393 0.0
O53 O 0.17745 0.97566 0.04948 0.0
O54 O 0.08306 0.91938 0.12374 0.0
O55 O 0.07348 0.95286 0.08827 0.0
O56 O 0.11404 0.03804 0.08055 0.0
O57 O 0.12572 0.05111 0.13333 0.0
O58 O 0.20741 0.07978 0.12523 0.0
O59 O 0.17075 0.93746 0.12403 0.0
O60 O 0.21419 0.0602 0.07723 0.0
O61 O 0.22053 -0.01038 0.11365 0.0
C62 C 0.15059 -0.00816 0.20173 0.0
C63 C 0.15277 0.96917 0.02915 0.0
C64 C 0.11339 0.05461 0.10622 0.0
C65 C 0.0623 0.92441 0.10499 0.0
C66 C 0.21624 0.08548 0.09517 0.0
C67 C 0.20468 0.95584 0.11904 0.0
O68 O 0.16203 0.0226 0.18854 0.0
O69 O 0.16063 0.00641 0.36055 0.0
Zn70 Zn 0.16666 0.01603 0.4092 0.0
O71 O 0.13906 0.97273 0.43233 0.0
Zn72 Zn 0.11023 0.9751 0.4666 0.0
Zn73 Zn 0.1103 0.93368 0.40409 0.0
Zn74 Zn 0.16987 0.96197 0.45581 0.0
O75 O 0.13493 -0.01129 0.51098 0.0
O76 O 0.18633 -0.00615 0.49528 0.0
O77 O 0.1486 0.05044 0.42129 0.0
O78 O 0.10533 0.01687 0.45683 0.0
O79 O 0.06051 0.9317 0.46459 0.0
O80 O 0.05903 0.91904 0.41168 0.0
O81 O 0.11146 0.88992 0.41954 0.0
O82 O 0.21821 0.03234 0.42125 0.0
O83 O 0.13807 0.90941 0.4674 0.0
O84 O 0.21538 0.97998 0.43097 0.0
C85 C 0.14374 0.97816 0.34317 0.0
C86 C 0.16822 0.00046 0.51568 0.0
C87 C 0.04321 0.91531 0.43892 0.0
C88 C 0.12271 0.04533 0.44011 0.0
C89 C 0.11469 0.88417 0.44952 0.0
C90 C 0.23359 0.01387 0.42617 0.0
O91 O 0.12408 0.94741 0.35634 0.0
O92 O 0.95495 0.14754 0.36175 0.0
Zn93 Zn 0.94528 0.14403 0.4104 0.0
O94 O -0.01144 0.15992 0.43347 0.0
Zn95 Zn -0.01382 0.12862 0.46756 0.0
Zn96 Zn 0.02768 0.17045 0.40517 0.0
Zn97 Zn -0.00082 0.2015 0.45712 0.0
O98 O 0.9725 0.13958 0.51205 0.0
O99 O 0.96727 0.18579 0.4966 0.0
O100 O 0.91085 0.09146 0.42237 0.0
O101 O 0.94441 0.0818 0.45767 0.0
O102 O 0.02959 0.12243 0.46534 0.0
O103 O 0.04244 0.13395 0.4125 0.0
O104 O 0.07133 0.21561 0.42072 0.0
O105 O 0.92885 0.17917 0.42245 0.0
O106 O 0.05173 0.22252 0.46868 0.0
O107 O -0.01892 0.22894 0.43254 0.0
C108 C -0.01679 0.15906 0.34433 0.0
C109 C 0.96067 0.16102 0.51688 0.0
C110 C 0.04607 0.12172 0.43962 0.0
C111 C 0.91595 0.07065 0.44103 0.0
C112 C 0.07701 0.2245 0.45075 0.0
C113 C 0.94724 0.21309 0.42749 0.0
O114 O 0.01398 0.1704 0.35745 0.0
O115 O 0.81305 0.80019 0.36121 0.0
Zn116 Zn 0.81659 0.79415 0.4098 0.0
O117 O 0.80075 0.82151 0.43305 0.0
Zn118 Zn 0.83198 0.85036 0.46725 0.0
Zn119 Zn 0.79045 0.85021 0.4049 0.0
Zn120 Zn 0.75906 0.79042 0.45657 0.0
O121 O 0.82089 0.82547 0.51158 0.0
O122 O 0.77451 0.77405 0.49595 0.0
O123 O 0.86912 0.81242 0.42164 0.0
O124 O 0.87879 0.85556 0.45723 0.0
O125 O 0.83827 0.90002 0.46536 0.0
O126 O 0.82705 0.90155 0.41251 0.0
O127 O 0.74532 0.84868 0.42051 0.0
O128 O 0.78149 0.74255 0.42189 0.0
O129 O 0.73809 0.82192 0.46832 0.0
O130 O 0.73168 0.74487 0.43179 0.0
C131 C 0.8017 0.81702 0.34388 0.0
C132 C 0.79928 0.79214 0.51627 0.0
C133 C 0.83917 0.91734 0.43973 0.0
C134 C 0.88992 0.83832 0.4404 0.0
C135 C 0.73625 0.84531 0.45052 0.0
C136 C 0.74756 0.72691 0.4269 0.0
O137 O 0.79055 0.83658 0.35709 0.0
O138 O 0.95403 0.80005 0.86084 0.0
Zn139 Zn 0.94448 0.794 0.9095 0.0
O140 O -0.01219 0.82154 0.93252 0.0
Zn141 Zn -0.01453 0.85032 0.96684 0.0
Zn142 Zn 0.02684 0.85033 0.9042 0.0
Zn143 Zn -0.00142 0.79066 0.9559 0.0
O144 O 0.97185 0.8255 1.0112 0.0
O145 O 0.96677 0.77415 0.99545 0.0
O146 O 0.91013 0.8121 0.92167 0.0
O147 O 0.94374 0.85531 0.95716 0.0
O148 O 0.0289 0.90002 0.96479 0.0
O149 O 0.04155 0.9016 0.91185 0.0
O150 O 0.07058 0.84904 0.91944 0.0
O151 O 0.92813 0.74244 0.92154 0.0
O152 O 0.05117 0.82239 0.96735 0.0
O153 O -0.01951 0.7452 0.93104 0.0
C154 C -0.01774 0.81695 0.84339 0.0
C155 C 0.96014 0.7922 1.01588 0.0
C156 C 0.0453 0.91736 0.93911 0.0
C157 C 0.91527 0.83799 0.94049 0.0
C158 C 0.07639 0.84578 0.9494 0.0
C159 C 0.9466 0.72702 0.92633 0.0
O160 O 0.01303 0.83661 0.85648 0.0
O161 O 0.16035 0.14753 0.86119 0.0
Zn162 Zn 0.16637 0.144 0.90979 0.0
O163 O 0.13896 0.15981 0.93302 0.0
Zn164 Zn 0.11008 0.12854 0.96726 0.0
Zn165 Zn 0.11029 0.17014 0.90488 0.0
Zn166 Zn 0.17003 0.20149 0.9565 0.0
O167 O 0.13496 0.1396 1.01156 0.0
O168 O 0.18637 0.18601 0.99586 0.0
O169 O 0.14812 0.09147 0.9217 0.0
O170 O 0.1049 0.08174 0.95728 0.0
O171 O 0.06042 0.12226 0.96542 0.0
O172 O 0.05894 0.13359 0.91259 0.0
O173 O 0.11192 0.21533 0.92039 0.0
O174 O 0.21796 0.17911 0.92185 0.0
O175 O 0.13854 0.22248 0.96822 0.0
O176 O 0.2156 0.2289 0.93168 0.0
C177 C 0.14349 0.15884 0.84386 0.0
C178 C 0.16829 0.1612 1.0162 0.0
C179 C 0.04313 0.12142 0.93982 0.0
C180 C 0.12219 0.07064 0.94047 0.0
C181 C 0.11521 0.22437 0.95039 0.0
C182 C 0.23358 0.21303 0.92685 0.0
O183 O 0.12391 0.16997 0.85708 0.0
O184 O 0.81294 0.00573 0.86197 0.0
Zn185 Zn 0.81645 0.01535 0.91063 0.0
O186 O 0.80056 0.97206 0.93374 0.0
Zn187 Zn 0.83183 0.97442 0.96783 0.0
Zn188 Zn 0.79011 0.93297 0.90546 0.0
Zn189 Zn 0.75894 0.96136 0.95742 0.0
O190 O 0.82079 -0.012 1.01232 0.0
O191 O 0.77457 -0.00679 0.99689 0.0
O192 O 0.86901 0.04979 0.92255 0.0
O193 O 0.87865 0.01624 0.95792 0.0
O194 O 0.8381 0.93106 0.96564 0.0
O195 O 0.82661 0.91822 0.91281 0.0
O196 O 0.74492 0.8893 0.921 0.0
O197 O 0.78127 0.03173 0.92271 0.0
O198 O 0.73796 0.90878 0.96899 0.0
O199 O 0.73151 0.97947 0.93286 0.0
C200 C 0.80146 0.97747 0.84459 0.0
C201 C 0.79932 -0.00021 1.01717 0.0
C202 C 0.83885 0.9146 0.93993 0.0
C203 C 0.88981 0.04471 0.94123 0.0
C204 C 0.73602 0.88355 0.95104 0.0
C205 C 0.74734 0.01332 0.92779 0.0
O206 O 0.79018 0.94671 0.85774 0.0
O207 O 0.79181 0.96285 0.6858 0.0
Zn208 Zn 0.78558 0.95317 0.63719 0.0
O209 O 0.81301 -0.00361 0.61395 0.0
Zn210 Zn 0.84176 -0.00601 0.57962 0.0
Zn211 Zn 0.84173 0.03553 0.64214 0.0
Zn212 Zn 0.78208 0.00701 0.59051 0.0
O213 O 0.817 0.98038 0.53526 0.0
O214 O 0.76553 0.975 0.55109 0.0
O215 O 0.8035 0.9187 0.625 0.0
O216 O 0.84666 0.9522 0.58935 0.0
O217 O 0.89148 0.03737 0.58158 0.0
O218 O 0.893 0.05028 0.63444 0.0
O219 O 0.84031 0.07914 0.62669 0.0
O220 O 0.73399 0.93684 0.62553 0.0
O221 O 0.81378 0.05955 0.57882 0.0
O222 O 0.73672 -0.01088 0.61554 0.0
C223 C 0.80859 -0.00886 0.70315 0.0
C224 C 0.78367 0.96849 0.53064 0.0
C225 C 0.90879 0.05387 0.6072 0.0
C226 C 0.82931 0.92376 0.6061 0.0
C227 C 0.83711 0.08484 0.59669 0.0
C228 C 0.71857 0.9553 0.6207 0.0
O229 O 0.82808 0.0219 0.68994 0.0
O230 O -0.00329 0.82154 0.68458 0.0
Zn231 Zn 0.00641 0.82493 0.63597 0.0
O232 O 0.96319 0.80896 0.61282 0.0
Zn233 Zn 0.96559 0.84021 0.57867 0.0
Zn234 Zn 0.92401 0.79834 0.64109 0.0
Zn235 Zn 0.95269 0.7674 0.58921 0.0
O236 O -0.02077 0.82917 0.53419 0.0
O237 O -0.01529 0.78315 0.54977 0.0
O238 O 0.0409 0.87742 0.62389 0.0
O239 O 0.0074 0.88705 0.58849 0.0
O240 O 0.92221 0.84645 0.58087 0.0
O241 O 0.90917 0.83475 0.63367 0.0
O242 O 0.88048 0.75309 0.62554 0.0
O243 O 0.02283 0.78976 0.62428 0.0
O244 O 0.90015 0.74633 0.57757 0.0
O245 O 0.97067 0.73998 0.61396 0.0
C246 C 0.96842 0.80989 0.70199 0.0
C247 C -0.00879 0.80784 0.52943 0.0
C248 C 0.90565 0.84708 0.60656 0.0
C249 C 0.03585 0.8982 0.60516 0.0
C250 C 0.87483 0.74426 0.5955 0.0
C251 C 0.00445 0.75582 0.61933 0.0
O252 O 0.93764 0.79841 0.68885 0.0
O253 O 0.1387 0.16826 0.68512 0.0
Zn254 Zn 0.13527 0.17446 0.63656 0.0
O255 O 0.15121 0.14724 0.61322 0.0
Zn256 Zn 0.12002 0.11848 0.57896 0.0
Zn257 Zn 0.16162 0.11859 0.64133 0.0
Zn258 Zn 0.19288 0.17845 0.58974 0.0
O259 O 0.1312 0.14343 0.53465 0.0
O260 O 0.17741 0.19491 0.55042 0.0
O261 O 0.08283 0.15633 0.62462 0.0
O262 O 0.0732 0.1133 0.58891 0.0
O263 O 0.11371 0.06882 0.58082 0.0
O264 O 0.12511 0.06726 0.63362 0.0
O265 O 0.20685 0.12035 0.62573 0.0
O266 O 0.17041 0.22608 0.62483 0.0
O267 O 0.21392 0.14703 0.57791 0.0
O268 O 0.22023 0.22385 0.61472 0.0
C269 C 0.15019 0.15154 0.70242 0.0
C270 C 0.15271 0.1768 0.53004 0.0
C271 C 0.11289 0.0515 0.60641 0.0
C272 C 0.06206 0.13052 0.60577 0.0
C273 C 0.21585 0.12369 0.5957 0.0
C274 C 0.20435 0.24175 0.61991 0.0
O275 O 0.1615 0.13213 0.68918 0.0
O276 O 0.66451 0.50235 0.52031 0.0
Zn277 Zn 0.67417 0.50835 0.47166 0.0
O278 O 0.63088 0.48079 0.44858 0.0
Zn279 Zn 0.63325 0.45195 0.41434 0.0
Zn280 Zn 0.59178 0.45208 0.47687 0.0
Zn281 Zn 0.6202 0.51167 0.4251 0.0
O282 O 0.64695 0.4767 0.36995 0.0
O283 O 0.65209 0.52811 0.38559 0.0
O284 O 0.70854 0.49022 0.45961 0.0
O285 O 0.67497 0.44698 0.42412 0.0
O286 O 0.58981 0.40224 0.41643 0.0
O287 O 0.57701 0.40078 0.46931 0.0
O288 O 0.54812 0.45345 0.46151 0.0
O289 O 0.69056 0.55992 0.45956 0.0
O290 O 0.56764 0.47998 0.41358 0.0
O291 O 0.63822 0.55714 0.44991 0.0
C292 C 0.63624 0.48549 0.53772 0.0
C293 C 0.65872 0.51001 0.36522 0.0
C294 C 0.57334 0.38495 0.4421 0.0
C295 C 0.70342 0.46432 0.44082 0.0
C296 C 0.54237 0.45666 0.43153 0.0
C297 C 0.6721 0.57532 0.45468 0.0
O298 O 0.6055 0.46585 0.52459 0.0
O299 O 0.45813 0.15462 0.52019 0.0
Zn300 Zn 0.45222 0.15827 0.47158 0.0
O301 O 0.47965 0.14248 0.44837 0.0
Zn302 Zn 0.50858 0.17375 0.41415 0.0
Zn303 Zn 0.50829 0.13212 0.47652 0.0
Zn304 Zn 0.44861 0.10082 0.42484 0.0
O305 O 0.48379 0.16271 0.36981 0.0
O306 O 0.43233 0.11633 0.38545 0.0
O307 O 0.47053 0.21084 0.45972 0.0
O308 O 0.51373 0.22054 0.42412 0.0
O309 O 0.55824 0.18006 0.41607 0.0
O310 O 0.55966 0.16871 0.46891 0.0
O311 O 0.50671 0.08697 0.46098 0.0
O312 O 0.40065 0.12319 0.45943 0.0
O313 O 0.48011 0.07983 0.41315 0.0
O314 O 0.403 0.0734 0.44961 0.0
C315 C 0.47494 0.14325 0.53753 0.0
C316 C 0.45047 0.14112 0.36512 0.0
C317 C 0.57551 0.18089 0.44169 0.0
C318 C 0.49646 0.23166 0.44094 0.0
C319 C 0.50343 0.07795 0.43097 0.0
C320 C 0.38502 0.08927 0.45441 0.0
O321 O 0.49455 0.13215 0.52431 0.0
O322 O 0.80582 0.29664 0.51944 0.0
Zn323 Zn 0.80223 0.28695 0.47081 0.0
O324 O 0.81811 0.33023 0.44767 0.0
Zn325 Zn 0.78682 0.32784 0.4136 0.0
Zn326 Zn 0.82861 0.36935 0.47592 0.0
Zn327 Zn 0.85971 0.34087 0.42399 0.0
O328 O 0.79782 0.31419 0.36912 0.0
O329 O 0.84405 0.30899 0.38454 0.0
O330 O 0.74964 0.25252 0.45896 0.0
O331 O 0.74 0.28604 0.42357 0.0
O332 O 0.78058 0.37122 0.41577 0.0
O333 O 0.79212 0.38412 0.46858 0.0
O334 O 0.8738 0.41299 0.46034 0.0
O335 O 0.83736 0.27052 0.45871 0.0
O336 O 0.88073 0.39343 0.41238 0.0
O337 O 0.88713 0.32278 0.44858 0.0
C338 C 0.81733 0.32491 0.53682 0.0
C339 C 0.8193 0.30239 0.36427 0.0
C340 C 0.77986 0.38771 0.44147 0.0
C341 C 0.72884 0.2576 0.44029 0.0
C342 C 0.88271 0.4187 0.4303 0.0
C343 C 0.87129 0.28893 0.45363 0.0
O344 O 0.8286 0.35566 0.52365 0.0
O345 O 0.82705 0.33951 0.69561 0.0
Zn346 Zn 0.83303 0.34915 0.74425 0.0
O347 O 0.80546 0.30586 0.76739 0.0
Zn348 Zn 0.77664 0.30825 0.80166 0.0
Zn349 Zn 0.77674 0.26678 0.73916 0.0
Zn350 Zn 0.83633 0.29515 0.79084 0.0
O351 O 0.80141 0.32194 0.84601 0.0
O352 O 0.8528 0.32704 0.83029 0.0
O353 O 0.81492 0.38353 0.75629 0.0
O354 O 0.77168 0.34998 0.79185 0.0
O355 O 0.72694 0.26482 0.79968 0.0
O356 O 0.72545 0.25205 0.74679 0.0
O357 O 0.77806 0.22309 0.75456 0.0
O358 O 0.88457 0.36551 0.7563 0.0
O359 O 0.80462 0.24259 0.80244 0.0
O360 O 0.88179 0.31316 0.76595 0.0
C361 C 0.8102 0.31125 0.67824 0.0
C362 C 0.83471 0.33369 0.85069 0.0
C363 C 0.70964 0.24837 0.77403 0.0
C364 C 0.78903 0.37842 0.7751 0.0
C365 C 0.78128 0.21733 0.78455 0.0
C366 C 0.89997 0.34705 0.76116 0.0
O367 O 0.79053 0.2805 0.69141 0.0
O368 O 0.6215 0.48088 0.69653 0.0
Zn369 Zn 0.61177 0.4773 0.74517 0.0
O370 O 0.65503 0.4932 0.76828 0.0
Zn371 Zn 0.65263 0.46191 0.80239 0.0
Zn372 Zn 0.69418 0.50374 0.74 0.0
Zn373 Zn 0.66564 0.53478 0.79191 0.0
O374 O 0.63901 0.47293 0.84688 0.0
O375 O 0.63373 0.5191 0.83141 0.0
O376 O 0.57733 0.42472 0.75712 0.0
O377 O 0.61083 0.4151 0.79253 0.0
O378 O 0.696 0.45565 0.80018 0.0
O379 O 0.70896 0.46725 0.74736 0.0
O380 O 0.73778 0.54894 0.75552 0.0
O381 O 0.59534 0.51243 0.75717 0.0
O382 O 0.71819 0.55582 0.80349 0.0
O383 O 0.64755 0.56221 0.7673 0.0
C384 C 0.64979 0.49245 0.67913 0.0
C385 C 0.62717 0.49436 0.85171 0.0
C386 C 0.71252 0.45496 0.77448 0.0
C387 C 0.58239 0.40393 0.77584 0.0
C388 C 0.74347 0.55782 0.78555 0.0
C389 C 0.61371 0.54636 0.7622 0.0
O390 O 0.68054 0.50375 0.69228 0.0
O391 O 0.47941 0.13343 0.69629 0.0
Zn392 Zn 0.48301 0.12741 0.74488 0.0
O393 O 0.46718 0.15477 0.76815 0.0
Zn394 Zn 0.49845 0.18367 0.80231 0.0
Zn395 Zn 0.45675 0.18338 0.74 0.0
Zn396 Zn 0.42554 0.12367 0.79175 0.0
O397 O 0.48741 0.15886 0.84669 0.0
O398 O 0.44111 0.10736 0.8311 0.0
O399 O 0.53554 0.14565 0.7567 0.0
O400 O 0.54524 0.18882 0.79228 0.0
O401 O 0.50476 0.23334 0.80035 0.0
O402 O 0.49329 0.23475 0.74756 0.0
O403 O 0.41156 0.1817 0.75563 0.0
O404 O 0.4479 0.0758 0.75693 0.0
O405 O 0.40454 0.15513 0.8035 0.0
O406 O 0.39812 0.07812 0.76698 0.0
C407 C 0.46797 0.15019 0.67897 0.0
C408 C 0.46588 0.12551 0.8514 0.0
C409 C 0.50554 0.2506 0.77473 0.0
C410 C 0.55635 0.17156 0.77546 0.0
C411 C 0.40259 0.17843 0.78567 0.0
C412 C 0.41398 0.06016 0.76198 0.0
O413 O 0.45678 0.16971 0.6922 0.0
O414 O 0.62095 0.13332 0.19586 0.0
Zn415 Zn 0.61133 0.12728 0.24451 0.0
O416 O 0.65462 0.15481 0.26758 0.0
Zn417 Zn 0.65226 0.18364 0.30183 0.0
Zn418 Zn 0.69371 0.18352 0.23928 0.0
Zn419 Zn 0.66529 0.12392 0.29105 0.0
O420 O 0.63859 0.15889 0.34623 0.0
O421 O 0.6334 0.10746 0.33056 0.0
O422 O 0.57695 0.14537 0.25661 0.0
O423 O 0.61053 0.18861 0.29208 0.0
O424 O 0.6957 0.23335 0.29974 0.0
O425 O 0.70848 0.23481 0.24685 0.0
O426 O 0.73737 0.18214 0.25463 0.0
O427 O 0.59495 0.07571 0.25652 0.0
O428 O 0.71785 0.1556 0.30256 0.0
O429 O 0.64728 0.07847 0.2662 0.0
C430 C 0.64921 0.15015 0.17843 0.0
C431 C 0.62679 0.12557 0.35095 0.0
C432 C 0.71216 0.25064 0.27406 0.0
C433 C 0.58207 0.17127 0.2754 0.0
C434 C 0.74312 0.17892 0.28461 0.0
C435 C 0.61341 0.0603 0.26137 0.0
O436 O 0.67997 0.16977 0.19155 0.0
O437 O 0.82715 0.48091 0.19592 0.0
Zn438 Zn 0.83316 0.47729 0.24451 0.0
O439 O 0.80578 0.49311 0.26779 0.0
Zn440 Zn 0.77689 0.46183 0.30202 0.0
Zn441 Zn 0.77715 0.50352 0.23968 0.0
Zn442 Zn 0.83687 0.53475 0.29131 0.0
O443 O 0.8017 0.47289 0.34636 0.0
O444 O 0.85318 0.51921 0.33067 0.0
O445 O 0.81489 0.42474 0.2564 0.0
O446 O 0.77174 0.41505 0.29205 0.0
O447 O 0.72721 0.45551 0.30013 0.0
O448 O 0.72578 0.46699 0.24733 0.0
O449 O 0.77886 0.54872 0.25523 0.0
O450 O 0.88476 0.51238 0.25655 0.0
O451 O 0.80542 0.55576 0.30306 0.0
O452 O 0.88242 0.56216 0.26647 0.0
C453 C 0.81036 0.49233 0.17862 0.0
C454 C 0.83504 0.49444 0.35102 0.0
C455 C 0.70994 0.45474 0.27454 0.0
C456 C 0.789 0.40393 0.27521 0.0
C457 C 0.78212 0.5577 0.28524 0.0
C458 C 0.90039 0.5463 0.26156 0.0
O459 O 0.79081 0.50347 0.19187 0.0
O460 O 0.47964 0.33888 0.19675 0.0
Zn461 Zn 0.48323 0.34857 0.24538 0.0
O462 O 0.46735 0.3053 0.26852 0.0
Zn463 Zn 0.49863 0.3077 0.3026 0.0
Zn464 Zn 0.45683 0.26618 0.24027 0.0
Zn465 Zn 0.42575 0.29466 0.29219 0.0
O466 O 0.48761 0.32134 0.34708 0.0
O467 O 0.44141 0.32656 0.33164 0.0
O468 O 0.53582 0.38301 0.25725 0.0
O469 O 0.54545 0.34949 0.29265 0.0
O470 O 0.50487 0.26432 0.30043 0.0
O471 O 0.49333 0.25141 0.24762 0.0
O472 O 0.41164 0.22255 0.25585 0.0
O473 O 0.44809 0.36498 0.25744 0.0
O474 O 0.40472 0.2421 0.30382 0.0
O475 O 0.39832 0.31274 0.26758 0.0
C476 C 0.46809 0.31061 0.17938 0.0
C477 C 0.46615 0.33315 0.35191 0.0
C478 C 0.50559 0.24783 0.27474 0.0
C479 C 0.55661 0.37794 0.27593 0.0
C480 C 0.40274 0.21684 0.28589 0.0
C481 C 0.41416 0.34658 0.26249 0.0
O482 O 0.45682 0.27986 0.19254 0.0
O483 O 0.45799 0.29599 1.02058 0.0
Zn484 Zn 0.45199 0.28634 0.97194 0.0
O485 O 0.47957 0.32964 0.9488 0.0
Zn486 Zn 0.5084 0.32725 0.91454 0.0
Zn487 Zn 0.5083 0.36872 0.97703 0.0
Zn488 Zn 0.44871 0.34035 0.92535 0.0
O489 O 0.48364 0.31355 0.87019 0.0
O490 O 0.43225 0.30847 0.88588 0.0
O491 O 0.47011 0.25197 0.95992 0.0
O492 O 0.51336 0.28552 0.92436 0.0
O493 O 0.55812 0.37069 0.91652 0.0
O494 O 0.55959 0.38346 0.9694 0.0
O495 O 0.50698 0.41242 0.96163 0.0
O496 O 0.40043 0.26998 0.95988 0.0
O497 O 0.48042 0.39291 0.91375 0.0
O498 O 0.40323 0.32233 0.95021 0.0
C499 C 0.47488 0.32426 0.03795 0.0
C500 C 0.45034 0.30182 0.86549 0.0
C501 C 0.57541 0.38714 0.94217 0.0
C502 C 0.49601 0.25708 0.94111 0.0
C503 C 0.50375 0.41817 0.93164 0.0
C504 C 0.38504 0.28844 0.95498 0.0
O505 O 0.49455 0.355 0.02478 0.0
O506 O 0.66371 0.15467 1.0196 0.0
Zn507 Zn 0.67338 0.15825 0.97095 0.0
O508 O 0.63008 0.14237 0.9479 0.0
Zn509 Zn 0.63245 0.17365 0.9138 0.0
Zn510 Zn 0.59098 0.13189 0.97622 0.0
Zn511 Zn 0.61942 0.10076 0.92427 0.0
O512 O 0.64605 0.16263 0.8693 0.0
O513 O 0.65127 0.11642 0.88475 0.0
O514 O 0.7078 0.21084 0.95899 0.0
O515 O 0.67426 0.22047 0.92364 0.0
O516 O 0.58908 0.1799 0.91604 0.0
O517 O 0.57625 0.16843 0.96889 0.0
O518 O 0.54731 0.08674 0.96071 0.0
O519 O 0.68979 0.12311 0.95887 0.0
O520 O 0.56686 0.07976 0.91274 0.0
O521 O 0.63755 0.07333 0.94883 0.0
C522 C 0.63545 0.14314 0.03703 0.0
C523 C 0.65785 0.14117 0.86445 0.0
C524 C 0.57263 0.18065 0.94176 0.0
C525 C 0.70272 0.23163 0.9403 0.0
C526 C 0.5416 0.07782 0.93068 0.0
C527 C 0.6714 0.08919 0.95384 0.0
O528 O 0.60469 0.13187 1.02393 0.0
O529 O 0.80575 0.5022 1.01986 0.0
Zn530 Zn 0.80209 0.50819 0.97127 0.0
O531 O 0.8179 0.48081 0.948 0.0
Zn532 Zn 0.78661 0.4519 0.91385 0.0
Zn533 Zn 0.82833 0.45218 0.97613 0.0
Zn534 Zn 0.85953 0.51189 0.92439 0.0
O535 O 0.79762 0.47671 0.86948 0.0
O536 O 0.84397 0.52819 0.88504 0.0
O537 O 0.74953 0.48991 0.95949 0.0
O538 O 0.73982 0.44674 0.9239 0.0
O539 O 0.7803 0.40223 0.91579 0.0
O540 O 0.79178 0.40081 0.96858 0.0
O541 O 0.87351 0.45386 0.9605 0.0
O542 O 0.83718 0.5598 0.95913 0.0
O543 O 0.88053 0.48043 0.91263 0.0
O544 O 0.88696 0.55746 0.94913 0.0
C545 C 0.81718 0.48542 0.03716 0.0
C546 C 0.81918 0.51005 0.86475 0.0
C547 C 0.77953 0.38497 0.94141 0.0
C548 C 0.72871 0.464 0.94074 0.0
C549 C 0.88247 0.45713 0.93047 0.0
C550 C 0.8711 0.57543 0.95406 0.0
O551 O 0.82832 0.46587 1.02392 0.0
O552 O 0.33099 0.83534 0.85445 0.0
Zn553 Zn 0.34054 0.84145 0.80579 0.0
O554 O 0.29723 0.81393 0.78275 0.0
Zn555 Zn 0.29957 0.78514 0.74845 0.0
Zn556 Zn 0.25819 0.78519 0.81107 0.0
Zn557 Zn 0.28651 0.84483 0.75935 0.0
O558 O 0.31322 0.80995 0.70408 0.0
O559 O 0.31838 0.86134 0.71982 0.0
O560 O 0.37491 0.82339 0.7936 0.0
O561 O 0.3413 0.78014 0.75814 0.0
O562 O 0.25612 0.73545 0.75051 0.0
O563 O 0.24345 0.73391 0.80343 0.0
O564 O 0.21447 0.7865 0.79577 0.0
O565 O 0.35689 0.89302 0.79385 0.0
O566 O 0.23394 0.81312 0.74786 0.0
O567 O 0.30455 0.89027 0.78423 0.0
C568 C 0.30276 0.81847 0.8719 0.0
C569 C 0.32499 0.84326 0.69939 0.0
C570 C 0.23971 0.71813 0.77619 0.0
C571 C 0.36977 0.79749 0.7748 0.0
C572 C 0.20869 0.78975 0.7658 0.0
C573 C 0.33843 0.90844 0.78905 0.0
O574 O 0.27198 0.79888 0.85881 0.0
O575 O 0.12486 0.48806 0.8543 0.0
Zn576 Zn 0.11876 0.49155 0.80571 0.0
O577 O 0.14613 0.47572 0.78244 0.0
Zn578 Zn 0.17498 0.50697 0.74817 0.0
Zn579 Zn 0.1748 0.46537 0.81055 0.0
Zn580 Zn 0.11504 0.43405 0.75895 0.0
O581 O 0.15012 0.49588 0.70387 0.0
O582 O 0.09867 0.44954 0.7196 0.0
O583 O 0.13696 0.54405 0.79376 0.0
O584 O 0.18013 0.55376 0.75813 0.0
O585 O 0.22466 0.51329 0.75002 0.0
O586 O 0.22614 0.50192 0.80284 0.0
O587 O 0.17316 0.42019 0.79502 0.0
O588 O 0.06716 0.45641 0.79376 0.0
O589 O 0.14654 0.41307 0.7472 0.0
O590 O 0.0695 0.40663 0.78382 0.0
C591 C 0.1417 0.47671 0.87162 0.0
C592 C 0.11678 0.47431 0.69924 0.0
C593 C 0.24195 0.51411 0.77561 0.0
C594 C 0.16285 0.56486 0.77494 0.0
C595 C 0.16987 0.41118 0.76501 0.0
C596 C 0.05153 0.42249 0.78876 0.0
O597 O 0.16122 0.46553 0.85838 0.0
O598 O 0.47207 0.62982 0.85348 0.0
Zn599 Zn 0.46859 0.6202 0.80484 0.0
O600 O 0.4845 0.66349 0.78172 0.0
Zn601 Zn 0.45326 0.6611 0.74761 0.0
Zn602 Zn 0.49493 0.70257 0.80999 0.0
Zn603 Zn 0.52614 0.67418 0.75809 0.0
O604 O 0.46435 0.64751 0.70315 0.0
O605 O 0.51055 0.64231 0.71863 0.0
O606 O 0.41604 0.58576 0.79289 0.0
O607 O 0.40644 0.6193 0.7575 0.0
O608 O 0.44701 0.70447 0.74976 0.0
O609 O 0.45842 0.7173 0.80259 0.0
O610 O 0.54012 0.74624 0.79447 0.0
O611 O 0.50377 0.60382 0.79283 0.0
O612 O 0.54713 0.72675 0.7465 0.0
O613 O 0.55355 0.65608 0.78272 0.0
C614 C 0.48355 0.65808 0.87087 0.0
C615 C 0.48582 0.63572 0.69833 0.0
C616 C 0.44623 0.72092 0.77546 0.0
C617 C 0.39527 0.59083 0.7742 0.0
C618 C 0.54906 0.75199 0.76443 0.0
C619 C 0.5377 0.62223 0.7878 0.0
O620 O 0.49485 0.68884 0.85773 0.0
O621 O 0.49338 0.6726 0.02966 0.0
Zn622 Zn 0.49963 0.68225 0.07827 0.0
O623 O 0.47223 0.63901 0.1015 0.0
Zn624 Zn 0.4435 0.64142 0.13586 0.0
Zn625 Zn 0.4435 0.59989 0.07331 0.0
Zn626 Zn 0.5032 0.62841 0.12489 0.0
O627 O 0.46834 0.65508 0.18018 0.0
O628 O 0.51977 0.6604 0.1643 0.0
O629 O 0.48168 0.71669 0.09047 0.0
O630 O 0.43854 0.68318 0.12613 0.0
O631 O 0.39379 0.59802 0.13394 0.0
O632 O 0.39223 0.58509 0.08108 0.0
O633 O 0.445 0.55629 0.08868 0.0
O634 O 0.55123 0.69861 0.0899 0.0
O635 O 0.47153 0.57586 0.13656 0.0
O636 O 0.54853 0.64633 0.09981 0.0
C637 C 0.47656 0.64432 1.0123 0.0
C638 C 0.50167 0.66695 0.18477 0.0
C639 C 0.37646 0.5815 0.10833 0.0
C640 C 0.45587 0.71162 0.10937 0.0
C641 C 0.44821 0.55057 0.11868 0.0
C642 C 0.56666 0.68016 0.09469 0.0
O643 O 0.45707 0.61355 0.0255 0.0
O644 O 0.28846 0.81386 0.03072 0.0
Zn645 Zn 0.27881 0.81052 0.07934 0.0
O646 O 0.32205 0.8265 0.10247 0.0
Zn647 Zn 0.31965 0.79528 0.13665 0.0
Zn648 Zn 0.36118 0.837 0.07417 0.0
Zn649 Zn 0.33263 0.86811 0.12603 0.0
O650 O 0.30609 0.80641 0.18112 0.0
O651 O 0.30066 0.85245 0.1655 0.0
O652 O 0.24431 0.75806 0.09148 0.0
O653 O 0.2778 0.74845 0.12689 0.0
O654 O 0.36299 0.78899 0.13445 0.0
O655 O 0.37595 0.80053 0.08162 0.0
O656 O 0.40478 0.88222 0.08967 0.0
O657 O 0.26245 0.84574 0.09101 0.0
O658 O 0.38518 0.88912 0.13763 0.0
O659 O 0.31462 0.89552 0.10128 0.0
C660 C 0.31673 0.82546 1.01329 0.0
C661 C 0.29416 0.82778 0.18587 0.0
C662 C 0.3795 0.78827 0.10876 0.0
C663 C 0.24934 0.7373 0.11024 0.0
C664 C 0.41046 0.8911 0.11971 0.0
C665 C 0.28084 0.87968 0.09593 0.0
O666 O 0.34751 0.83692 0.02641 0.0
O667 O 0.14657 0.46726 0.03036 0.0
Zn668 Zn 0.14998 0.46105 0.07893 0.0
O669 O 0.13405 0.48826 0.10227 0.0
Zn670 Zn 0.16525 0.51704 0.13652 0.0
Zn671 Zn 0.1236 0.51688 0.07416 0.0
Zn672 Zn 0.0924 0.45706 0.12578 0.0
O673 O 0.15409 0.49212 0.18085 0.0
O674 O 0.10792 0.44062 0.16508 0.0
O675 O 0.20242 0.47915 0.09089 0.0
O676 O 0.21207 0.52221 0.12657 0.0
O677 O 0.17156 0.5667 0.13465 0.0
O678 O 0.16007 0.56822 0.08187 0.0
O679 O 0.07834 0.51505 0.08976 0.0
O680 O 0.11483 0.40941 0.09064 0.0
O681 O 0.07136 0.48848 0.13761 0.0
O682 O 0.06503 0.41166 0.10081 0.0
C683 C 0.13506 0.48397 1.01306 0.0
C684 C 0.13262 0.45874 0.18545 0.0
C685 C 0.17232 0.58401 0.10907 0.0
C686 C 0.2232 0.50497 0.10973 0.0
C687 C 0.06939 0.51177 0.11979 0.0
C688 C 0.0809 0.39375 0.09558 0.0
O689 O 0.12373 0.50336 0.02632 0.0
O690 O 0.28759 0.4671 0.5299 0.0
Zn691 Zn 0.27795 0.46087 0.57853 0.0
O692 O 0.32119 0.48826 0.60168 0.0
Zn693 Zn 0.31879 0.51698 0.63602 0.0
Zn694 Zn 0.36031 0.51697 0.57342 0.0
Zn695 Zn 0.33179 0.45728 0.62506 0.0
O696 O 0.30513 0.49211 0.68037 0.0
O697 O 0.2998 0.44068 0.66452 0.0
O698 O 0.24352 0.47882 0.59077 0.0
O699 O 0.27704 0.52195 0.62635 0.0
O700 O 0.36222 0.56667 0.63401 0.0
O701 O 0.37514 0.56825 0.58114 0.0
O702 O 0.4039 0.51544 0.58872 0.0
O703 O 0.2616 0.40928 0.5902 0.0
O704 O 0.38434 0.48892 0.63665 0.0
O705 O 0.31388 0.41197 0.60001 0.0
C706 C 0.31587 0.48389 0.5125 0.0
C707 C 0.29324 0.45877 0.68498 0.0
C708 C 0.37875 0.58401 0.60838 0.0
C709 C 0.24859 0.50463 0.60965 0.0
C710 C 0.40963 0.51223 0.61871 0.0
C711 C 0.28005 0.39385 0.59494 0.0
O712 O 0.34663 0.50338 0.52564 0.0
O713 O 0.49321 0.81391 0.53016 0.0
Zn714 Zn 0.49933 0.81049 0.57874 0.0
O715 O 0.47203 0.82638 0.60202 0.0
Zn716 Zn 0.44322 0.79517 0.63632 0.0
Zn717 Zn 0.44339 0.83674 0.57388 0.0
Zn718 Zn 0.50317 0.86805 0.62547 0.0
O719 O 0.46807 0.80632 0.68063 0.0
O720 O 0.51956 0.85256 0.66482 0.0
O721 O 0.48123 0.75806 0.59078 0.0
O722 O 0.43809 0.74837 0.62643 0.0
O723 O 0.39355 0.78882 0.63445 0.0
O724 O 0.39205 0.80022 0.58163 0.0
O725 O 0.44511 0.88197 0.58939 0.0
O726 O 0.55093 0.84565 0.59051 0.0
O727 O 0.47169 0.88905 0.63722 0.0
O728 O 0.54864 0.89545 0.60052 0.0
C729 C 0.47645 0.82533 0.51283 0.0
C730 C 0.50144 0.82783 0.68522 0.0
C731 C 0.37625 0.78801 0.60886 0.0
C732 C 0.45537 0.73726 0.60963 0.0
C733 C 0.44838 0.89097 0.6194 0.0
C734 C 0.56657 0.87959 0.59541 0.0
O735 O 0.45699 0.83659 0.52604 0.0
O736 O 0.14636 0.67196 0.53085 0.0
Zn737 Zn 0.14972 0.68164 0.57946 0.0
O738 O 0.13371 0.63841 0.60268 0.0
Zn739 Zn 0.16491 0.64082 0.63684 0.0
Zn740 Zn 0.12316 0.59926 0.57446 0.0
Zn741 Zn 0.0921 0.62787 0.62628 0.0
O742 O 0.15378 0.65443 0.68129 0.0
O743 O 0.10774 0.65985 0.6657 0.0
O744 O 0.2022 0.71612 0.59149 0.0
O745 O 0.21176 0.68264 0.62698 0.0
O746 O 0.17117 0.59746 0.63473 0.0
O747 O 0.15956 0.58442 0.58194 0.0
O748 O 0.07788 0.55571 0.59 0.0
O749 O 0.11453 0.69806 0.59114 0.0
O750 O 0.07103 0.57532 0.63796 0.0
O751 O 0.06473 0.64589 0.60149 0.0
C752 C 0.13476 0.64367 0.51349 0.0
C753 C 0.13241 0.66636 0.68604 0.0
C754 C 0.17185 0.58091 0.60907 0.0
C755 C 0.22295 0.71108 0.61025 0.0
C756 C 0.069 0.55003 0.62005 0.0
C757 C 0.08059 0.67968 0.59611 0.0
O758 O 0.1233 0.6129 0.52668 0.0
O759 O 0.12493 0.62921 0.35467 0.0
Zn760 Zn 0.11889 0.61963 0.30603 0.0
O761 O 0.14645 0.66293 0.28291 0.0
Zn762 Zn 0.17524 0.66056 0.2486 0.0
Zn763 Zn 0.17521 0.70198 0.31115 0.0
Zn764 Zn 0.11559 0.67368 0.2595 0.0
O765 O 0.15046 0.64692 0.20427 0.0
O766 O 0.09909 0.64181 0.22003 0.0
O767 O 0.13696 0.58524 0.29391 0.0
O768 O 0.1802 0.61882 0.25835 0.0
O769 O 0.22495 0.70398 0.25058 0.0
O770 O 0.22647 0.71665 0.30349 0.0
O771 O 0.17397 0.74572 0.29578 0.0
O772 O 0.06734 0.6033 0.29404 0.0
O773 O 0.14735 0.72625 0.24792 0.0
O774 O 0.07013 0.65566 0.2844 0.0
C775 C 0.14182 0.65746 0.37206 0.0
C776 C 0.11716 0.63517 0.19961 0.0
C777 C 0.24226 0.72038 0.27623 0.0
C778 C 0.16284 0.59036 0.27508 0.0
C779 C 0.17072 0.75149 0.2658 0.0
C780 C 0.05194 0.62177 0.2892 0.0
O781 O 0.16147 0.68821 0.35891 0.0
O782 O 0.33043 0.48807 0.35369 0.0
Zn783 Zn 0.34011 0.49153 0.30505 0.0
O784 O 0.29685 0.47562 0.28194 0.0
Zn785 Zn 0.29926 0.50689 0.24781 0.0
Zn786 Zn 0.25773 0.46514 0.31023 0.0
Zn787 Zn 0.28622 0.43401 0.25834 0.0
O788 O 0.31289 0.49585 0.20334 0.0
O789 O 0.31813 0.44967 0.21885 0.0
O790 O 0.37457 0.54407 0.29303 0.0
O791 O 0.34107 0.55371 0.25765 0.0
O792 O 0.25589 0.51315 0.24999 0.0
O793 O 0.24298 0.50164 0.30282 0.0
O794 O 0.21409 0.41996 0.29472 0.0
O795 O 0.35651 0.45636 0.2931 0.0
O796 O 0.23366 0.41301 0.24676 0.0
O797 O 0.3043 0.40659 0.28297 0.0
C798 C 0.30216 0.47657 0.37109 0.0
C799 C 0.32472 0.4744 0.19853 0.0
C800 C 0.23939 0.51388 0.27569 0.0
C801 C 0.36952 0.56486 0.27432 0.0
C802 C 0.20839 0.41106 0.26469 0.0
C803 C 0.33813 0.42244 0.28808 0.0
O804 O 0.27141 0.46523 0.35796 0.0
O805 O 0.47231 0.83523 0.35404 0.0
Zn806 Zn 0.46883 0.84133 0.30545 0.0
O807 O 0.48469 0.81398 0.28221 0.0
Zn808 Zn 0.45347 0.78513 0.248 0.0
Zn809 Zn 0.49504 0.78532 0.31036 0.0
Zn810 Zn 0.52637 0.84509 0.25866 0.0
O811 O 0.46456 0.80998 0.20365 0.0
O812 O 0.51087 0.86144 0.2193 0.0
O813 O 0.41634 0.82311 0.29356 0.0
O814 O 0.40666 0.77995 0.25799 0.0
O815 O 0.44717 0.73547 0.24992 0.0
O816 O 0.45847 0.73397 0.30274 0.0
O817 O 0.5402 0.78692 0.29476 0.0
O818 O 0.50396 0.89293 0.29346 0.0
O819 O 0.54735 0.81359 0.24692 0.0
O820 O 0.55376 0.89062 0.28346 0.0
C821 C 0.48368 0.81844 0.37139 0.0
C822 C 0.48612 0.84333 0.19897 0.0
C823 C 0.44632 0.71817 0.27554 0.0
C824 C 0.39554 0.79722 0.27479 0.0
C825 C 0.54923 0.79024 0.26474 0.0
C826 C 0.53789 0.90858 0.28845 0.0
O827 O 0.4949 0.79893 0.35818 0.0
C828 C 0.0557 0.22145 1.01924 0.0
C829 C 0.02169 0.19627 1.00711 0.0
H830 H 0.11248 0.25057 1.01061 0.0
C831 C 0.01831 0.18673 0.97413 0.0
H832 H 0.05899 0.22919 0.04471 0.0
C833 C 0.04886 0.20034 0.95415 0.0
C834 C 0.0835 0.22214 0.96728 0.0
H835 H -0.00765 0.16753 0.96422 0.0
H836 H 0.04548 0.19087 0.92924 0.0
C837 C 0.08636 0.23388 0.99968 0.0
C838 C 0.73926 0.82699 1.01949 0.0
C839 C 0.76427 0.81811 1.00704 0.0
H840 H 0.71024 0.85467 1.01136 0.0
C841 C 0.77361 0.82426 0.97401 0.0
H842 H 0.73168 0.82253 0.04501 0.0
C843 C 0.75997 0.84122 0.95429 0.0
C844 C 0.73833 0.85409 0.96773 0.0
H845 H 0.79267 0.81745 0.96385 0.0
H846 H 0.76927 0.84728 0.92932 0.0
C847 C 0.72681 0.84524 1.0002 0.0
C848 C 0.13341 0.90536 1.01793 0.0
C849 C 0.14224 0.93936 1.00582 0.0
H850 H 0.1056 0.84859 1.00938 0.0
C851 C 0.13591 0.94271 0.97292 0.0
H852 H 0.13799 0.90209 0.04334 0.0
C853 C 0.11882 0.91216 0.953 0.0
C854 C 0.10599 0.87753 0.96614 0.0
H855 H 0.14266 0.96866 0.96303 0.0
H856 H 0.11262 0.91552 0.92816 0.0
C857 C 0.11501 0.87469 0.99845 0.0
C858 C 0.21286 0.06428 0.5268 0.0
C859 C 0.18769 0.03025 0.53898 0.0
H860 H 0.24198 0.12104 0.5354 0.0
C861 C 0.17819 0.02682 0.57198 0.0
H862 H 0.22057 0.06759 0.50132 0.0
C863 C 0.19181 0.05734 0.59195 0.0
C864 C 0.2136 0.09201 0.57879 0.0
H865 H 0.159 0.00085 0.58192 0.0
H866 H 0.18238 0.05393 0.61689 0.0
C867 C 0.2253 0.09491 0.54635 0.0
C868 C 0.9035 0.12726 0.59305 0.0
C869 C 0.86889 0.11438 0.57987 0.0
H870 H 0.96002 0.15109 0.58306 0.0
C871 C 0.86612 0.12327 0.5475 0.0
H872 H 0.90681 0.12116 0.61794 0.0
C873 C 0.89682 0.14159 0.52801 0.0
C874 C 0.93079 0.15049 0.54017 0.0
H875 H 0.84003 0.11381 0.53655 0.0
H876 H 0.8936 0.14609 0.50256 0.0
C877 C 0.93409 0.14428 0.57312 0.0
C878 C 0.8367 0.73513 0.54629 0.0
C879 C 0.84541 0.74657 0.57876 0.0
H880 H 0.8142 0.74012 0.50142 0.0
C881 C 0.83248 0.76817 0.59217 0.0
H882 H 0.84619 0.71859 0.53516 0.0
C883 C 0.81561 0.78187 0.5724 0.0
C884 C 0.80962 0.77263 0.53936 0.0
H885 H 0.83843 0.7774 0.61715 0.0
H886 H 0.80876 0.80089 0.58253 0.0
C887 C 0.81854 0.74764 0.52694 0.0
C888 C 0.86565 0.73501 0.04657 0.0
C889 C 0.86849 0.74669 0.07899 0.0
H890 H 0.89306 0.7398 1.00155 0.0
C891 C 0.90312 0.76846 0.09215 0.0
H892 H 0.83955 0.71833 0.03562 0.0
C893 C 0.93368 0.78212 0.07219 0.0
C894 C 0.93032 0.77266 0.0392 0.0
H895 H 0.90647 0.77787 0.11708 0.0
H896 H 0.95963 0.80131 0.08212 0.0
C897 C 0.89632 0.74748 0.02703 0.0
C898 C 0.17861 0.14475 0.07227 0.0
C899 C 0.18781 0.15079 0.03921 0.0
H900 H 0.18311 0.12184 0.11697 0.0
C901 C 0.21277 0.14188 0.02669 0.0
H902 H 0.1596 0.1516 0.08247 0.0
C903 C 0.22529 0.12367 0.04597 0.0
C904 C 0.21389 0.11491 0.07847 0.0
H905 H 0.22027 0.14627 1.00116 0.0
H906 H 0.24181 0.1142 0.03477 0.0
C907 C 0.19232 0.12783 0.09197 0.0
C908 C 0.81605 0.0263 0.07338 0.0
C909 C 0.80981 0.02963 0.04045 0.0
H910 H 0.83924 0.05353 0.11815 0.0
C911 C 0.81868 0.06361 0.02829 0.0
H912 H 0.80926 0.00035 0.08331 0.0
C913 C 0.83703 0.09429 0.04775 0.0
C914 C 0.84597 0.09149 0.08009 0.0
H915 H 0.81415 0.06685 1.00286 0.0
H916 H 0.84647 0.12039 0.03679 0.0
C917 C 0.8331 0.05686 0.09328 0.0
C918 C 0.7603 0.91166 0.45433 0.0
C919 C 0.73846 0.87698 0.46744 0.0
H920 H 0.79309 0.96815 0.46443 0.0
C921 C 0.72667 0.87405 0.49985 0.0
H922 H 0.76981 0.9151 0.42942 0.0
C923 C 0.73905 0.90466 0.51942 0.0
C924 C 0.76425 0.93871 0.5073 0.0
H925 H 0.70995 0.84791 0.51076 0.0
H926 H 0.73125 0.90132 0.54488 0.0
C927 C 0.77387 0.94216 0.47433 0.0
C928 C 0.05505 0.82727 0.51819 0.0
C929 C 0.02106 0.81841 0.50609 0.0
H930 H 0.11183 0.85506 0.50959 0.0
C931 C 0.01773 0.82471 0.47317 0.0
H932 H 0.0583 0.82271 0.54362 0.0
C933 C 0.0483 0.84177 0.45322 0.0
C934 C 0.08292 0.85461 0.46634 0.0
H935 H -0.00821 0.81794 0.46329 0.0
H936 H 0.04496 0.84794 0.42836 0.0
C937 C 0.08573 0.84564 0.49868 0.0
C938 C 0.13342 0.22129 0.5193 0.0
C939 C 0.14233 0.19628 0.50692 0.0
H940 H 0.10576 0.25031 0.51105 0.0
C941 C 0.13627 0.18694 0.4739 0.0
H942 H 0.13781 0.22887 0.5448 0.0
C943 C 0.11936 0.20059 0.45412 0.0
C944 C 0.10646 0.22223 0.46749 0.0
H945 H 0.1431 0.16789 0.4638 0.0
H946 H 0.11336 0.19129 0.42916 0.0
C947 C 0.11522 0.23375 0.49994 0.0
C948 C 0.6852 0.52001 0.30892 0.0
C949 C 0.68856 0.52949 0.34191 0.0
H950 H 0.7124 0.52424 0.26403 0.0
C951 C 0.72256 0.55465 0.35408 0.0
H952 H 0.65924 0.50083 0.29899 0.0
C953 C 0.75323 0.56711 0.33454 0.0
C954 C 0.75039 0.55543 0.30213 0.0
H955 H 0.72582 0.56235 0.37956 0.0
H956 H 0.77934 0.58379 0.34549 0.0
C957 C 0.71576 0.53366 0.28896 0.0
C958 C 0.40596 0.16037 0.35443 0.0
C959 C 0.431 0.15152 0.34202 0.0
H960 H 0.3769 0.18801 0.34621 0.0
C961 C 0.44035 0.15762 0.30899 0.0
H962 H 0.39836 0.15594 0.37994 0.0
C963 C 0.42669 0.17453 0.28923 0.0
C964 C 0.40503 0.18739 0.30262 0.0
H965 H 0.45943 0.15082 0.29887 0.0
H966 H 0.43601 0.18056 0.26426 0.0
C967 C 0.39349 0.17858 0.33509 0.0
C968 C 0.78554 0.24531 0.28816 0.0
C969 C 0.77269 0.21069 0.30134 0.0
H970 H 0.80934 0.30182 0.29812 0.0
C971 C 0.78164 0.2079 0.33369 0.0
H972 H 0.7794 0.24863 0.26328 0.0
C973 C 0.79997 0.23858 0.35315 0.0
C974 C 0.80881 0.27256 0.34098 0.0
H975 H 0.77222 0.1818 0.34465 0.0
H976 H 0.80449 0.23534 0.37858 0.0
C977 C 0.80257 0.27588 0.30805 0.0
C978 C 0.85842 0.39076 0.92685 0.0
C979 C 0.88019 0.42539 0.91361 0.0
H980 H 0.82559 0.33424 0.91693 0.0
C981 C 0.89184 0.42821 0.88117 0.0
H982 H 0.84903 0.38742 0.9518 0.0
C983 C 0.87936 0.39753 0.86168 0.0
C984 C 0.85421 0.36353 0.87393 0.0
H985 H 0.90851 0.45432 0.87017 0.0
H986 H 0.88704 0.40078 0.83619 0.0
C987 C 0.84476 0.36019 0.90694 0.0
C988 C 0.5327 0.45671 0.88251 0.0
C989 C 0.53552 0.44774 0.91484 0.0
H990 H 0.56011 0.47958 0.83755 0.0
C991 C 0.57014 0.46057 0.92795 0.0
H992 H 0.5066 0.4473 0.8716 0.0
C993 C 0.6007 0.47759 0.90799 0.0
C994 C 0.59735 0.48386 0.87506 0.0
H995 H 0.57349 0.45441 0.95282 0.0
H996 H 0.62664 0.48435 0.91786 0.0
C997 C 0.56337 0.47504 0.86298 0.0
C998 C 0.4824 0.11545 0.90753 0.0
C999 C 0.4763 0.10608 0.87452 0.0
H1000 H 0.50533 0.11112 0.95227 0.0
C1001 C 0.48517 0.08104 0.86215 0.0
H1002 H 0.47559 0.13452 0.91763 0.0
C1003 C 0.50337 0.06858 0.88151 0.0
C1004 C 0.51217 0.08012 0.91395 0.0
H1005 H 0.48075 0.07342 0.83666 0.0
H1006 H 0.5128 0.05198 0.87041 0.0
C1007 C 0.4993 0.10179 0.92732 0.0
C1008 C 0.56979 0.10202 0.42723 0.0
C1009 C 0.53515 0.08019 0.41409 0.0
H1010 H 0.6263 0.13485 0.41717 0.0
C1011 C 0.53231 0.06847 0.38169 0.0
H1012 H 0.57316 0.11147 0.45215 0.0
C1013 C 0.56297 0.08091 0.36214 0.0
C1014 C 0.59698 0.1061 0.37428 0.0
H1015 H 0.5062 0.05176 0.37076 0.0
H1016 H 0.5597 0.07316 0.33668 0.0
C1017 C 0.60034 0.11564 0.40726 0.0
C1018 C 0.89198 0.45696 0.3811 0.0
C1019 C 0.88043 0.44814 0.41356 0.0
H1020 H 0.88715 0.47959 0.33623 0.0
C1021 C 0.85876 0.46101 0.42693 0.0
H1022 H 0.90858 0.44752 0.36999 0.0
C1023 C 0.84511 0.47792 0.40715 0.0
C1024 C 0.85448 0.48403 0.37413 0.0
H1025 H 0.84944 0.45498 0.4519 0.0
H1026 H 0.82604 0.48473 0.41726 0.0
C1027 C 0.87953 0.47517 0.36174 0.0
C1028 C 0.50385 0.42767 0.38246 0.0
C1029 C 0.5128 0.42488 0.4148 0.0
H1030 H 0.48099 0.40021 0.33757 0.0
C1031 C 0.49994 0.39027 0.428 0.0
H1032 H 0.51328 0.45376 0.37149 0.0
C1033 C 0.4829 0.35969 0.40812 0.0
C1034 C 0.47666 0.363 0.37519 0.0
H1035 H 0.50608 0.38695 0.45288 0.0
H1036 H 0.47612 0.33376 0.41806 0.0
C1037 C 0.48551 0.39698 0.36301 0.0
C1038 C 0.42665 0.24479 0.78931 0.0
C1039 C 0.40487 0.21015 0.80253 0.0
H1040 H 0.45949 0.3013 0.79925 0.0
C1041 C 0.39321 0.20732 0.83496 0.0
H1042 H 0.43605 0.24814 0.76436 0.0
C1043 C 0.40568 0.23799 0.85447 0.0
C1044 C 0.43084 0.27199 0.84223 0.0
H1045 H 0.37652 0.18121 0.84595 0.0
H1046 H 0.39799 0.23472 0.87996 0.0
C1047 C 0.44031 0.27535 0.80923 0.0
C1048 C 0.72165 0.16047 0.8532 0.0
C1049 C 0.68767 0.15165 0.8411 0.0
H1050 H 0.77842 0.1882 0.8446 0.0
C1051 C 0.68434 0.15792 0.80818 0.0
H1052 H 0.72489 0.15593 0.87863 0.0
C1053 C 0.7149 0.17494 0.78822 0.0
C1054 C 0.74952 0.18776 0.80134 0.0
H1055 H 0.6584 0.15116 0.7983 0.0
H1056 H 0.71156 0.1811 0.76335 0.0
C1057 C 0.75233 0.1788 0.83368 0.0
C1058 C 0.78578 0.53385 0.78888 0.0
C1059 C 0.77289 0.5555 0.80227 0.0
H1060 H 0.8095 0.50113 0.79852 0.0
C1061 C 0.78167 0.567 0.83473 0.0
H1062 H 0.77977 0.52457 0.76391 0.0
C1063 C 0.79987 0.55452 0.85406 0.0
C1064 C 0.80876 0.52951 0.84166 0.0
H1065 H 0.77223 0.58358 0.84585 0.0
H1066 H 0.80428 0.5621 0.87957 0.0
C1067 C 0.80268 0.52018 0.80864 0.0
C1068 C 0.35146 0.85327 0.64309 0.0
C1069 C 0.35482 0.86277 0.67608 0.0
H1070 H 0.37865 0.85748 0.5982 0.0
C1071 C 0.38882 0.88794 0.68824 0.0
H1072 H 0.3255 0.83408 0.63317 0.0
C1073 C 0.41949 0.90039 0.6687 0.0
C1074 C 0.41665 0.8887 0.63628 0.0
H1075 H 0.39208 0.89565 0.71371 0.0
H1076 H 0.4456 0.91708 0.67964 0.0
C1077 C 0.38202 0.86691 0.62313 0.0
C1078 C 0.09292 0.50768 0.62338 0.0
C1079 C 0.07131 0.52059 0.6368 0.0
H1080 H 0.12562 0.48392 0.63298 0.0
C1081 C 0.05984 0.51183 0.66928 0.0
H1082 H 0.10218 0.51367 0.59839 0.0
C1083 C 0.07231 0.49362 0.68861 0.0
C1084 C 0.0973 0.48471 0.67617 0.0
H1085 H 0.04329 0.5213 0.68043 0.0
H1086 H 0.06476 0.48923 0.71414 0.0
C1087 C 0.10658 0.49076 0.64313 0.0
C1088 C 0.46915 0.60919 0.64212 0.0
C1089 C 0.47535 0.60587 0.67506 0.0
H1090 H 0.446 0.58193 0.59735 0.0
C1091 C 0.46645 0.57189 0.68726 0.0
H1092 H 0.47596 0.63512 0.63217 0.0
C1093 C 0.44811 0.54119 0.6678 0.0
C1094 C 0.43921 0.54399 0.63545 0.0
H1095 H 0.47094 0.56866 0.7127 0.0
H1096 H 0.43865 0.5151 0.67879 0.0
C1097 C 0.45211 0.57861 0.62224 0.0
C1098 C 0.54631 0.73079 0.19589 0.0
C1099 C 0.52114 0.69676 0.20807 0.0
H1100 H 0.57541 0.78755 0.20447 0.0
C1101 C 0.5116 0.69336 0.24106 0.0
H1102 H 0.55405 0.73409 0.17041 0.0
C1103 C 0.5252 0.72389 0.26102 0.0
C1104 C 0.547 0.75855 0.24785 0.0
H1105 H 0.49241 0.66738 0.251 0.0
H1106 H 0.51574 0.72049 0.28595 0.0
C1107 C 0.55872 0.76143 0.21543 0.0
C1108 C 0.19967 0.79005 0.21667 0.0
C1109 C 0.20249 0.78107 0.249 0.0
H1110 H 0.22707 0.81296 0.17172 0.0
C1111 C 0.23712 0.7939 0.2621 0.0
H1112 H 0.17356 0.78063 0.20576 0.0
C1113 C 0.26767 0.81096 0.24214 0.0
C1114 C 0.26433 0.81726 0.20922 0.0
H1115 H 0.24047 0.78773 0.28696 0.0
H1116 H 0.29362 0.81772 0.25201 0.0
C1117 C 0.23034 0.80841 0.19714 0.0
C1118 C 0.17018 0.40184 0.21551 0.0
C1119 C 0.17896 0.41336 0.24796 0.0
H1120 H 0.14755 0.40669 0.17067 0.0
C1121 C 0.16606 0.435 0.26134 0.0
H1122 H 0.17963 0.38527 0.2044 0.0
C1123 C 0.14914 0.44864 0.24157 0.0
C1124 C 0.14305 0.43929 0.20856 0.0
H1125 H 0.17207 0.4443 0.2863 0.0
H1126 H 0.1423 0.46769 0.25168 0.0
C1127 C 0.15195 0.41428 0.19617 0.0
C1128 C 0.22939 0.41413 0.69615 0.0
C1129 C 0.26341 0.43929 0.7083 0.0
H1130 H 0.17262 0.38504 0.70476 0.0
C1131 C 0.26678 0.44881 0.74129 0.0
H1132 H 0.22612 0.40642 0.67068 0.0
C1133 C 0.23622 0.4352 0.76126 0.0
C1134 C 0.20158 0.41342 0.74811 0.0
H1135 H 0.29274 0.46799 0.75121 0.0
H1136 H 0.2396 0.44464 0.78618 0.0
C1137 C 0.19873 0.40172 0.7157 0.0
C1138 C 0.54592 0.80855 0.69592 0.0
C1139 C 0.52089 0.81742 0.70832 0.0
H1140 H 0.57494 0.78087 0.70413 0.0
C1141 C 0.51149 0.81126 0.74134 0.0
H1142 H 0.55355 0.813 0.67041 0.0
C1143 C 0.52511 0.79431 0.7611 0.0
C1144 C 0.54678 0.78145 0.74771 0.0
H1145 H 0.49242 0.81806 0.75145 0.0
H1146 H 0.51577 0.78825 0.78606 0.0
C1147 C 0.55835 0.7903 0.71525 0.0
C1148 C 0.15177 0.73017 0.69724 0.0
C1149 C 0.14291 0.69618 0.70936 0.0
H1150 H 0.17956 0.78695 0.70578 0.0
C1151 C 0.14918 0.69282 0.74228 0.0
H1152 H 0.14723 0.73344 0.67182 0.0
C1153 C 0.16624 0.72337 0.7622 0.0
C1154 C 0.1791 0.75801 0.74905 0.0
H1155 H 0.1424 0.66687 0.75218 0.0
H1156 H 0.1724 0.72001 0.78706 0.0
C1157 C 0.17013 0.76084 0.71672 0.0
C1158 C 0.09339 0.57813 0.12343 0.0
C1159 C 0.07166 0.54349 0.13667 0.0
H1160 H 0.12619 0.63465 0.13335 0.0
C1161 C 0.06005 0.54065 0.16912 0.0
H1162 H 0.10276 0.58149 0.09847 0.0
C1163 C 0.07252 0.57133 0.18862 0.0
C1164 C 0.09764 0.60534 0.17637 0.0
H1165 H 0.04341 0.51455 0.18013 0.0
H1166 H 0.06487 0.56807 0.21412 0.0
C1167 C 0.10705 0.60869 0.14335 0.0
C1168 C 0.41924 0.51211 0.16785 0.0
C1169 C 0.41644 0.52102 0.13549 0.0
H1170 H 0.39179 0.48929 0.2128 0.0
C1171 C 0.38182 0.50813 0.12234 0.0
H1172 H 0.44533 0.52156 0.17879 0.0
C1173 C 0.35125 0.49111 0.14228 0.0
C1174 C 0.35457 0.4849 0.17522 0.0
H1175 H 0.3785 0.51424 0.09745 0.0
H1176 H 0.32531 0.4843 0.13236 0.0
C1177 C 0.38855 0.49378 0.18736 0.0
C1178 C 0.45277 0.86714 0.12307 0.0
C1179 C 0.43988 0.88879 0.13644 0.0
H1180 H 0.47649 0.83442 0.13273 0.0
C1181 C 0.44865 0.90029 0.1689 0.0
H1182 H 0.44678 0.85786 0.0981 0.0
C1183 C 0.46684 0.88781 0.18825 0.0
C1184 C 0.47573 0.8628 0.17586 0.0
H1185 H 0.4392 0.91686 0.18002 0.0
H1186 H 0.47123 0.89539 0.21376 0.0
C1187 C 0.46967 0.85348 0.14284 0.0
C1188 C 0.08119 0.11813 0.13203 0.0
C1189 C 0.06235 0.11799 0.10422 0.0
H1190 H 0.1119 0.09767 0.15461 0.0
C1191 C 0.06372 0.10017 0.07597 0.0
H1192 H 0.08044 0.1316 0.15409 0.0
C1193 C 0.0814 0.0806 0.07622 0.0
C1194 C 0.0979 0.07831 0.10482 0.0
H1195 H 0.04972 0.10007 0.05402 0.0
H1196 H 0.08094 0.06621 0.05438 0.0
C1197 C 0.09874 0.09829 0.13237 0.0
C1198 C 0.86073 0.95621 0.07624 0.0
C1199 C 0.84286 0.93689 0.10442 0.0
H1200 H 0.89482 0.00757 0.0549 0.0
C1201 C 0.84276 0.95551 0.13239 0.0
H1202 H 0.86081 0.94237 0.05418 0.0
C1203 C 0.86267 -0.00704 0.13293 0.0
C1204 C 0.88271 0.01223 0.10543 0.0
H1205 H 0.82924 0.94119 0.1544 0.0
H1206 H 0.86332 0.00669 0.15528 0.0
C1207 C 0.88038 -0.00647 0.07669 0.0
C1208 C 0.96702 0.87947 0.07602 0.0
C1209 C 0.94825 0.86296 0.10472 0.0
H1210 H 0.01824 0.91123 0.05354 0.0
C1211 C 0.96746 0.86216 0.13215 0.0
H1212 H 0.95304 0.8799 0.05428 0.0
C1213 C 0.00492 0.87977 0.13159 0.0
C1214 C 0.02361 0.89863 0.10368 0.0
H1215 H 0.95368 0.84899 0.15445 0.0
H1216 H 0.01918 0.88055 0.15356 0.0
C1217 C 0.00435 0.89721 0.07556 0.0
C1218 C 0.08975 0.1071 0.41333 0.0
C1219 C 0.06988 0.10634 0.44097 0.0
H1220 H 0.12306 0.08883 0.39155 0.0
C1221 C 0.07241 0.09006 0.46963 0.0
H1222 H 0.08893 0.12009 0.39104 0.0
C1223 C 0.09211 0.07251 0.46988 0.0
C1224 C 0.10981 0.07105 0.44156 0.0
H1225 H 0.05812 0.08967 0.49153 0.0
H1226 H 0.09218 0.05866 0.49189 0.0
C1227 C 0.1097 0.08967 0.41367 0.0
C1228 C 0.87149 0.01327 0.4144 0.0
C1229 C 0.89019 0.03195 0.44232 0.0
H1230 H 0.84088 0.96205 0.39154 0.0
C1231 C 0.88871 0.01267 0.47048 0.0
H1232 H 0.87233 0.02756 0.3924 0.0
C1233 C 0.87104 0.97534 0.47003 0.0
C1234 C 0.85467 0.95659 0.44133 0.0
H1235 H 0.90263 0.02654 0.49251 0.0
H1236 H 0.87141 0.96135 0.4918 0.0
C1237 C 0.85395 0.97582 0.41385 0.0
C1238 C -0.01527 0.87155 0.41298 0.0
C1239 C 0.00396 0.89147 0.44052 0.0
H1240 H 0.933 0.83809 0.39154 0.0
C1241 C -0.0148 0.88894 0.4693 0.0
H1242 H -0.0015 0.87236 0.3906 0.0
C1243 C 0.94789 0.86916 0.46979 0.0
C1244 C 0.92861 0.85139 0.44159 0.0
H1245 H -0.0008 0.90327 0.49112 0.0
H1246 H 0.93401 0.86908 0.49189 0.0
C1247 C 0.94729 0.85151 0.41357 0.0
C1248 C 0.88819 0.8687 0.97021 0.0
C1249 C 0.88959 0.85093 0.94194 0.0
H1250 H 0.87104 0.90273 0.99181 0.0
C1251 C 0.87091 0.85097 0.91408 0.0
H1252 H 0.90208 0.86869 0.9922 0.0
C1253 C 0.85347 0.87091 0.91372 0.0
C1254 C 0.85427 0.89083 0.94132 0.0
H1255 H 0.8717 0.83755 0.892 0.0
H1256 H 0.84042 0.87166 0.89145 0.0
C1257 C 0.87062 0.88839 0.96994 0.0
C1258 C 0.09135 0.01266 0.96991 0.0
C1259 C 0.10915 0.03196 0.9417 0.0
H1260 H 0.05724 0.96131 0.99128 0.0
C1261 C 0.1091 0.01332 0.91369 0.0
H1262 H 0.09138 0.02651 0.992 0.0
C1263 C 0.08909 0.97587 0.91314 0.0
C1264 C 0.06913 0.95662 0.94068 0.0
H1265 H 0.12255 0.02764 0.89166 0.0
H1266 H 0.08832 0.96213 0.89077 0.0
C1267 C 0.07161 0.97533 0.96945 0.0
C1268 C 0.94776 0.07191 0.97064 0.0
C1269 C 0.92851 0.07047 0.9425 0.0
H1270 H -0.00094 0.08916 0.99194 0.0
C1271 C 0.94722 0.08919 0.91455 0.0
H1272 H 0.93386 0.05799 0.99269 0.0
C1273 C -0.01533 0.10671 0.91399 0.0
C1274 C 0.00387 0.10595 0.94145 0.0
H1275 H 0.93296 0.08837 0.89257 0.0
H1276 H -0.00154 0.11978 0.89165 0.0
C1277 C -0.01491 0.08957 0.97017 0.0
C1278 C 0.87952 0.87893 0.57656 0.0
C1279 C 0.8819 0.86252 0.60518 0.0
H1280 H 0.85994 0.91052 0.55433 0.0
C1281 C 0.86197 0.86173 0.63279 0.0
H1282 H 0.89385 0.87936 0.55468 0.0
C1283 C 0.84211 0.87925 0.63246 0.0
C1284 C 0.84216 0.898 0.60461 0.0
H1285 H 0.86267 0.84863 0.65506 0.0
H1286 H 0.8287 0.88004 0.65456 0.0
C1287 C 0.8599 0.89658 0.57631 0.0
C1288 C 0.06308 0.95617 0.57569 0.0
C1289 C 0.06165 0.93689 0.60382 0.0
H1290 H 0.08042 0.00751 0.55437 0.0
C1291 C 0.0805 0.95555 0.6317 0.0
H1292 H 0.04906 0.94231 0.55369 0.0
C1293 C 0.09812 -0.007 0.63223 0.0
C1294 C 0.09735 0.01224 0.60479 0.0
H1295 H 0.07971 0.94126 0.65367 0.0
H1296 H 0.11129 0.00676 0.65452 0.0
C1297 C 0.08084 -0.0065 0.57612 0.0
C1298 C 0.96678 0.08001 0.57684 0.0
C1299 C 0.94805 0.07765 0.60558 0.0
H1300 H 0.01797 0.09963 0.55429 0.0
C1301 C 0.96729 0.09765 0.63307 0.0
H1302 H 0.95277 0.06561 0.55505 0.0
C1303 C 0.00474 0.11758 0.6325 0.0
C1304 C 0.02339 0.11752 0.60453 0.0
H1305 H 0.95353 0.09698 0.65542 0.0
H1306 H 0.01903 0.13107 0.6545 0.0
C1307 C 0.0041 0.09968 0.57636 0.0
C1308 C 0.74814 0.41396 0.41142 0.0
C1309 C 0.76444 0.41148 0.44007 0.0
H1310 H 0.71671 0.43367 0.38913 0.0
C1311 C 0.76519 0.43138 0.46767 0.0
H1312 H 0.74775 0.39964 0.38955 0.0
C1313 C 0.74774 0.45132 0.46729 0.0
C1314 C 0.72911 0.45138 0.4394 0.0
H1315 H 0.7782 0.43061 0.48995 0.0
H1316 H 0.74691 0.46471 0.48937 0.0
C1317 C 0.73057 0.43364 0.41113 0.0
C1318 C 0.52729 0.28961 0.41143 0.0
C1319 C 0.50949 0.27034 0.43966 0.0
H1320 H 0.56138 0.34091 0.39 0.0
C1321 C 0.50956 0.28902 0.46764 0.0
H1322 H 0.52724 0.27572 0.38936 0.0
C1323 C 0.52956 0.32647 0.46815 0.0
C1324 C 0.5495 0.34569 0.44058 0.0
H1325 H 0.49612 0.27474 0.48969 0.0
H1326 H 0.53033 0.34025 0.4905 0.0
C1327 C 0.54702 0.32693 0.41185 0.0
C1328 C 0.67088 0.23036 0.41089 0.0
C1329 C 0.69013 0.23186 0.43905 0.0
H1330 H 0.61959 0.21307 0.38957 0.0
C1331 C 0.67141 0.2132 0.46702 0.0
H1332 H 0.68478 0.24424 0.38882 0.0
C1333 C 0.63396 0.19568 0.46758 0.0
C1334 C 0.61476 0.19638 0.4401 0.0
H1335 H 0.68568 0.21406 0.48901 0.0
H1336 H 0.62017 0.18265 0.48993 0.0
C1337 C 0.63355 0.21271 0.41136 0.0
C1338 C 0.75836 0.40558 0.8048 0.0
C1339 C 0.77611 0.40413 0.77652 0.0
H1340 H 0.72438 0.42278 0.8264 0.0
C1341 C 0.77608 0.42279 0.74862 0.0
H1342 H 0.75837 0.3917 0.82681 0.0
C1343 C 0.75617 0.44027 0.74825 0.0
C1344 C 0.73627 0.43951 0.77586 0.0
H1345 H 0.78949 0.42197 0.72653 0.0
H1346 H 0.75543 0.4533 0.72596 0.0
C1347 C 0.73871 0.42318 0.80452 0.0
C1348 C 0.52033 0.30906 0.74878 0.0
C1349 C 0.52106 0.28986 0.77627 0.0
H1350 H 0.53873 0.36077 0.72726 0.0
C1351 C 0.53746 0.30866 0.80495 0.0
H1352 H 0.50725 0.29526 0.72647 0.0
C1353 C 0.55515 0.34598 0.80535 0.0
C1354 C 0.55662 0.36523 0.77717 0.0
H1355 H 0.53784 0.29469 0.82675 0.0
H1356 H 0.56908 0.35989 0.82737 0.0
C1357 C 0.53789 0.34651 0.74927 0.0
C1358 C 0.6137 0.18463 0.74867 0.0
C1359 C 0.59503 0.18458 0.77667 0.0
H1360 H 0.66492 0.20538 0.72573 0.0
C1361 C 0.61431 0.20236 0.80486 0.0
H1362 H 0.59941 0.17119 0.72665 0.0
C1363 C 0.65163 0.22208 0.80439 0.0
C1364 C 0.67038 0.22455 0.77562 0.0
H1365 H 0.60043 0.20233 0.82695 0.0
H1366 H 0.66563 0.23644 0.8262 0.0
C1367 C 0.65115 0.20461 0.7481 0.0
C1368 C 0.55494 0.20197 0.30508 0.0
C1369 C 0.55638 0.1842 0.27682 0.0
H1370 H 0.53776 0.23597 0.32665 0.0
C1371 C 0.53771 0.18422 0.24894 0.0
H1372 H 0.56882 0.20196 0.32708 0.0
C1373 C 0.52026 0.20415 0.24856 0.0
C1374 C 0.52102 0.22407 0.27614 0.0
H1375 H 0.53853 0.17081 0.22687 0.0
H1376 H 0.50722 0.20488 0.22628 0.0
C1377 C 0.53736 0.22163 0.30479 0.0
C1378 C 0.7582 0.34599 0.30472 0.0
C1379 C 0.77597 0.36525 0.27649 0.0
H1380 H 0.72412 0.29468 0.32616 0.0
C1381 C 0.77591 0.34657 0.24851 0.0
H1382 H 0.75825 0.35987 0.3268 0.0
C1383 C 0.75592 0.30911 0.24801 0.0
C1384 C 0.73599 0.2899 0.27558 0.0
H1385 H 0.78934 0.36085 0.22646 0.0
H1386 H 0.75514 0.29534 0.22566 0.0
C1387 C 0.73847 0.30866 0.30432 0.0
C1388 C 0.6519 0.42284 0.30487 0.0
C1389 C 0.67068 0.43923 0.27615 0.0
H1390 H 0.60067 0.39124 0.32739 0.0
C1391 C 0.65148 0.43996 0.24868 0.0
H1392 H 0.66587 0.42246 0.32664 0.0
C1393 C 0.61403 0.42241 0.24924 0.0
C1394 C 0.59532 0.40369 0.27719 0.0
H1395 H 0.66527 0.45304 0.22634 0.0
H1396 H 0.59976 0.42158 0.22725 0.0
C1397 C 0.61457 0.40516 0.30534 0.0
C1398 C 0.54635 0.21234 0.91171 0.0
C1399 C 0.54885 0.19607 0.94039 0.0
H1400 H 0.5266 0.24373 0.88939 0.0
C1401 C 0.52899 0.19535 0.96801 0.0
H1402 H 0.56064 0.2127 0.88982 0.0
C1403 C 0.50904 0.21279 0.96764 0.0
C1404 C 0.50895 0.23139 0.93972 0.0
H1405 H 0.52978 0.18237 0.99032 0.0
H1406 H 0.49567 0.21365 0.98974 0.0
C1407 C 0.52666 0.2299 0.91142 0.0
C1408 C 0.72992 0.28958 0.91079 0.0
C1409 C 0.72847 0.27034 0.93896 0.0
H1410 H 0.74721 0.34087 0.8894 0.0
C1411 C 0.74721 0.28906 0.96686 0.0
H1412 H 0.71599 0.27567 0.88878 0.0
C1413 C 0.76476 0.32651 0.96736 0.0
C1414 C 0.76402 0.34571 0.93987 0.0
H1415 H 0.74639 0.2748 0.98887 0.0
H1416 H 0.77786 0.34031 0.98965 0.0
C1417 C 0.7476 0.32691 0.91119 0.0
C1418 C 0.67075 0.43319 0.91134 0.0
C1419 C 0.69002 0.45096 0.93953 0.0
H1420 H 0.61944 0.39911 0.88999 0.0
C1421 C 0.67135 0.45089 0.96754 0.0
H1422 H 0.68463 0.43324 0.88924 0.0
C1423 C 0.6339 0.43089 0.96811 0.0
C1424 C 0.61467 0.41096 0.94058 0.0
H1425 H 0.68564 0.46431 0.98956 0.0
H1426 H 0.62013 0.43011 0.99048 0.0
C1427 C 0.63343 0.41345 0.91181 0.0
C1428 C 0.4316 0.76463 0.80161 0.0
C1429 C 0.4308 0.74469 0.77404 0.0
H1430 H 0.41336 0.798 0.82329 0.0
C1431 C 0.41445 0.7471 0.7454 0.0
H1432 H 0.44466 0.76392 0.82389 0.0
C1433 C 0.39686 0.76677 0.74511 0.0
C1434 C 0.39546 0.78456 0.77336 0.0
H1435 H 0.41402 0.73273 0.72355 0.0
H1436 H 0.38296 0.76675 0.72312 0.0
C1437 C 0.41415 0.78457 0.80123 0.0
C1438 C 0.19364 0.62282 0.74545 0.0
C1439 C 0.17586 0.60354 0.77368 0.0
H1440 H 0.22774 0.67414 0.72404 0.0
C1441 C 0.17592 0.6222 0.80167 0.0
H1442 H 0.1936 0.60894 0.72337 0.0
C1443 C 0.19592 0.65965 0.80219 0.0
C1444 C 0.21586 0.67888 0.77464 0.0
H1445 H 0.16248 0.6079 0.82371 0.0
H1446 H 0.19669 0.67341 0.82455 0.0
C1447 C 0.21338 0.66014 0.74588 0.0
C1448 C 0.33731 0.56365 0.74479 0.0
C1449 C 0.35656 0.56508 0.77293 0.0
H1450 H 0.28601 0.5464 0.7235 0.0
C1451 C 0.33785 0.54635 0.80087 0.0
H1452 H 0.35121 0.57759 0.72274 0.0
C1453 C 0.3004 0.52882 0.80144 0.0
C1454 C 0.2812 0.52959 0.77398 0.0
H1455 H 0.35212 0.54715 0.82285 0.0
H1456 H 0.28662 0.51573 0.82377 0.0
C1457 C 0.29998 0.54599 0.74526 0.0
C1458 C 0.40559 0.7564 0.13881 0.0
C1459 C 0.40322 0.7728 0.11016 0.0
H1460 H 0.42515 0.72483 0.16108 0.0
C1461 C 0.42317 0.77359 0.08257 0.0
H1462 H 0.39123 0.75598 0.16067 0.0
C1463 C 0.44304 0.75608 0.08295 0.0
C1464 C 0.44298 0.73734 0.11082 0.0
H1465 H 0.42249 0.78668 0.0603 0.0
H1466 H 0.45648 0.75529 0.06087 0.0
C1467 C 0.4252 0.73877 0.13909 0.0
C1468 C 0.22213 0.67935 0.13975 0.0
C1469 C 0.22353 0.69861 0.11161 0.0
H1470 H 0.20482 0.62803 0.16108 0.0
C1471 C 0.20467 0.67993 0.08374 0.0
H1472 H 0.23616 0.69323 0.16173 0.0
C1473 C 0.18705 0.64248 0.08323 0.0
C1474 C 0.18786 0.62326 0.11067 0.0
H1475 H 0.20544 0.69421 0.06177 0.0
H1476 H 0.17387 0.62871 0.06095 0.0
C1477 C 0.20437 0.64202 0.13933 0.0
C1478 C 0.28051 0.51781 0.08305 0.0
C1479 C 0.26186 0.51793 0.111 0.0
H1480 H 0.33171 0.53834 0.06014 0.0
C1481 C 0.28114 0.53579 0.13916 0.0
H1482 H 0.26621 0.5043 0.06105 0.0
C1483 C 0.31847 0.55542 0.13869 0.0
C1484 C 0.3372 0.55773 0.10996 0.0
H1485 H 0.26728 0.53588 0.16122 0.0
H1486 H 0.33248 0.56985 0.16047 0.0
C1487 C 0.31796 0.5377 0.08248 0.0
C1488 C 0.22147 0.53531 0.63937 0.0
C1489 C 0.22286 0.5175 0.61113 0.0
H1490 H 0.20425 0.56929 0.66094 0.0
C1491 C 0.20404 0.51736 0.58331 0.0
H1492 H 0.23546 0.53542 0.66134 0.0
C1493 C 0.1865 0.5372 0.58294 0.0
C1494 C 0.18733 0.55719 0.61049 0.0
H1495 H 0.2048 0.5039 0.56125 0.0
H1496 H 0.17335 0.53783 0.56069 0.0
C1497 C 0.2038 0.5549 0.6391 0.0
C1498 C 0.42454 0.6793 0.63912 0.0
C1499 C 0.44241 0.6986 0.61093 0.0
H1500 H 0.39044 0.62796 0.66049 0.0
C1501 C 0.44251 0.67996 0.58298 0.0
H1502 H 0.42447 0.69316 0.66117 0.0
C1503 C 0.42259 0.64251 0.58245 0.0
C1504 C 0.40255 0.62326 0.60996 0.0
H1505 H 0.45602 0.69426 0.56096 0.0
H1506 H 0.42193 0.62876 0.56012 0.0
C1507 C 0.40488 0.64198 0.63869 0.0
C1508 C 0.31822 0.75601 0.6392 0.0
C1509 C 0.337 0.77247 0.6105 0.0
H1510 H 0.26701 0.7243 0.6617 0.0
C1511 C 0.31778 0.77324 0.58305 0.0
H1512 H 0.33221 0.7556 0.66096 0.0
C1513 C 0.28033 0.75565 0.58362 0.0
C1514 C 0.26164 0.73685 0.61154 0.0
H1515 H 0.33156 0.78638 0.56073 0.0
H1516 H 0.26606 0.75486 0.56164 0.0
C1517 C 0.2809 0.73828 0.63967 0.0
C1518 C 0.2132 0.54565 0.24564 0.0
C1519 C 0.21563 0.5293 0.27429 0.0
H1520 H 0.19353 0.57713 0.22336 0.0
C1521 C 0.1957 0.52851 0.3019 0.0
H1522 H 0.22754 0.54606 0.22377 0.0
C1523 C 0.17577 0.54597 0.30152 0.0
C1524 C 0.17576 0.56466 0.27364 0.0
H1525 H 0.19643 0.51546 0.32418 0.0
H1526 H 0.16235 0.54677 0.32361 0.0
C1527 C 0.19353 0.56323 0.24536 0.0
C1528 C 0.41445 0.66015 0.24526 0.0
C1529 C 0.43083 0.67892 0.27396 0.0
H1530 H 0.38285 0.60894 0.22281 0.0
C1531 C 0.43155 0.6597 0.30144 0.0
H1532 H 0.41408 0.67413 0.22348 0.0
C1533 C 0.414 0.62225 0.30091 0.0
C1534 C 0.39529 0.60356 0.273 0.0
H1535 H 0.44462 0.67348 0.32375 0.0
H1536 H 0.41316 0.60798 0.32292 0.0
C1537 C 0.39677 0.62283 0.24483 0.0
C1538 C 0.30027 0.74667 0.24586 0.0
C1539 C 0.28152 0.74421 0.27463 0.0
H1540 H 0.35146 0.76642 0.22329 0.0
C1541 C 0.30075 0.76416 0.30214 0.0
H1542 H 0.28627 0.7323 0.22405 0.0
C1543 C 0.33819 0.78415 0.30157 0.0
C1544 C 0.35686 0.78419 0.27357 0.0
H1545 H 0.28698 0.7634 0.32451 0.0
H1546 H 0.35248 0.7976 0.32358 0.0
C1547 C 0.33759 0.76639 0.24538 0.0
C1548 C 0.01034 0.17352 0.28797 0.0
C1549 C -0.0202 0.15819 0.30814 0.0
H1550 H 0.0311 0.18372 0.23928 0.0
C1551 C 0.94572 0.14125 0.29331 0.0
H1552 H 0.037 0.18682 0.29843 0.0
C1553 C 0.94228 0.13926 0.25929 0.0
C1554 C 0.97283 0.15439 0.23913 0.0
H1555 H 0.92152 0.12907 0.30798 0.0
H1556 H 0.91563 0.12574 0.24883 0.0
C1557 C 0.00691 0.17176 0.25395 0.0
C1558 C 0.81929 0.79709 0.29276 0.0
C1559 C 0.80251 0.81436 0.30767 0.0
H1560 H 0.8346 0.78228 0.2482 0.0
C1561 C 0.78727 0.82956 0.28759 0.0
H1562 H 0.83141 0.78509 0.30737 0.0
C1563 C 0.78894 0.82774 0.25356 0.0
C1564 C 0.80615 0.8109 0.23865 0.0
H1565 H 0.77409 0.84302 0.29812 0.0
H1566 H 0.77705 0.83997 0.23895 0.0
C1567 C 0.8212 0.79551 0.25874 0.0
C1568 C 0.16383 0.01562 0.29206 0.0
C1569 C 0.14643 0.98155 0.30696 0.0
H1570 H 0.17873 0.04567 0.24751 0.0
C1571 C 0.13109 0.95099 0.28686 0.0
H1572 H 0.17594 0.03982 0.30668 0.0
C1573 C 0.13289 0.95439 0.25284 0.0
C1574 C 0.14985 -0.01154 0.23794 0.0
H1575 H 0.11753 0.92434 0.29738 0.0
H1576 H 0.12055 0.93019 0.23822 0.0
C1577 C 0.1654 0.01903 0.25803 0.0
C1578 C 0.00591 0.8277 0.753 0.0
C1579 C 0.97183 0.81069 0.73819 0.0
H1580 H 0.03602 0.84315 0.79747 0.0
C1581 C 0.94129 0.79516 0.75836 0.0
H1582 H 0.0301 0.84003 0.73833 0.0
C1583 C 0.94473 0.79679 0.79238 0.0
C1584 C -0.02118 0.81424 0.80719 0.0
H1585 H 0.91463 0.7818 0.7479 0.0
H1586 H 0.92055 0.78469 0.80706 0.0
C1587 C 0.00936 0.82956 0.78702 0.0
C1588 C 0.16492 0.13926 0.75871 0.0
C1589 C 0.14946 0.15426 0.73863 0.0
H1590 H 0.17542 0.12913 0.80734 0.0
C1591 C 0.13262 0.17146 0.75355 0.0
H1592 H 0.17815 0.12587 0.74817 0.0
C1593 C 0.13085 0.17318 0.78757 0.0
C1594 C 0.14611 0.15799 0.80765 0.0
H1595 H 0.12035 0.18331 0.73895 0.0
H1596 H 0.11739 0.18634 0.7981 0.0
C1597 C 0.16339 0.14122 0.79273 0.0
C1598 C 0.81912 0.01493 0.79348 0.0
C1599 C 0.80225 0.98087 0.80838 0.0
H1600 H 0.8345 0.04498 0.74893 0.0
C1601 C 0.7869 0.9503 0.78829 0.0
H1602 H 0.83132 0.03914 0.8081 0.0
C1603 C 0.78857 0.9537 0.75426 0.0
C1604 C 0.80588 -0.01224 0.73936 0.0
H1605 H 0.77365 0.92365 0.79881 0.0
H1606 H 0.7766 0.92949 0.73965 0.0
C1607 C 0.82102 0.01833 0.75945 0.0
C1608 C 0.67703 0.5072 0.62281 0.0
C1609 C 0.64644 0.49173 0.64293 0.0
H1610 H 0.69787 0.51763 0.57415 0.0
C1611 C 0.61239 0.47482 0.62806 0.0
H1612 H 0.70367 0.52049 0.63332 0.0
C1613 C 0.60902 0.47297 0.59404 0.0
C1614 C 0.6396 0.48822 0.57392 0.0
H1615 H 0.58817 0.46254 0.6427 0.0
H1616 H 0.58238 0.45945 0.58354 0.0
C1617 C 0.67366 0.50559 0.58879 0.0
C1618 C 0.45333 0.16258 0.6227 0.0
C1619 C 0.4687 0.14748 0.64276 0.0
H1620 H 0.44297 0.17289 0.57407 0.0
C1621 C 0.48552 0.13027 0.62783 0.0
H1622 H 0.44011 0.17598 0.63325 0.0
C1623 C 0.48737 0.12866 0.5938 0.0
C1624 C 0.47221 0.14397 0.57373 0.0
H1625 H 0.49773 0.11836 0.64242 0.0
H1626 H 0.50083 0.1155 0.58325 0.0
C1627 C 0.45494 0.16072 0.58867 0.0
C1628 C 0.79965 0.28746 0.58792 0.0
C1629 C 0.81657 0.32153 0.57302 0.0
H1630 H 0.78422 0.25742 0.63247 0.0
C1631 C 0.83201 0.3521 0.59311 0.0
H1632 H 0.78739 0.26326 0.5733 0.0
C1633 C 0.83035 0.3487 0.62714 0.0
C1634 C 0.81297 0.31463 0.64204 0.0
H1635 H 0.8453 0.37874 0.58259 0.0
H1636 H 0.84236 0.3729 0.64175 0.0
C1637 C 0.79775 0.28406 0.62194 0.0
C1638 C 0.67293 0.16077 0.08806 0.0
C1639 C 0.63886 0.14388 0.07323 0.0
H1640 H 0.70301 0.17614 0.13255 0.0
C1641 C 0.6083 0.12845 0.09339 0.0
H1642 H 0.69713 0.17302 0.07339 0.0
C1643 C 0.61172 0.13007 0.1274 0.0
C1644 C 0.6458 0.14742 0.14224 0.0
H1645 H 0.58165 0.11518 0.08292 0.0
H1646 H 0.58753 0.11806 0.14207 0.0
C1647 C 0.67635 0.16263 0.12208 0.0
C1648 C 0.83027 0.47483 0.12743 0.0
C1649 C 0.81304 0.49161 0.14241 0.0
H1650 H 0.84503 0.45956 0.08282 0.0
C1651 C 0.7979 0.50696 0.12238 0.0
H1652 H 0.84223 0.46263 0.142 0.0
C1653 C 0.79971 0.50536 0.08835 0.0
C1654 C 0.81649 0.48812 0.07337 0.0
H1655 H 0.78448 0.52015 0.13296 0.0
H1656 H 0.78751 0.51731 0.07378 0.0
C1657 C 0.83185 0.47299 0.0934 0.0
C1658 C 0.48747 0.35144 0.09425 0.0
C1659 C 0.47219 0.32087 0.07416 0.0
H1660 H 0.49797 0.37225 0.14289 0.0
C1661 C 0.45483 0.28681 0.08906 0.0
H1662 H 0.50098 0.37809 0.08372 0.0
C1663 C 0.45327 0.28341 0.12309 0.0
C1664 C 0.46877 0.31398 0.14318 0.0
H1665 H 0.44277 0.2626 0.07445 0.0
H1666 H 0.43999 0.25676 0.13362 0.0
C1667 C 0.48566 0.34805 0.12827 0.0
C1668 C 0.27571 0.80586 0.92829 0.0
C1669 C 0.30623 0.82115 0.9081 0.0
H1670 H 0.25501 0.7954 0.977 0.0
C1671 C 0.34033 0.83854 0.92289 0.0
H1672 H 0.24904 0.79231 0.91786 0.0
C1673 C 0.34381 0.84015 0.9569 0.0
C1674 C 0.31328 0.82466 0.9771 0.0
H1675 H 0.3645 0.85061 0.90819 0.0
H1676 H 0.37048 0.85347 0.96734 0.0
C1677 C 0.27918 0.8077 0.9623 0.0
C1678 C 0.15261 0.46406 0.96192 0.0
C1679 C 0.13578 0.48127 0.97686 0.0
H1680 H 0.16781 0.44918 0.91734 0.0
C1681 C 0.12033 0.49628 0.9568 0.0
H1682 H 0.16488 0.4522 0.9765 0.0
C1683 C 0.12185 0.49434 0.92277 0.0
C1684 C 0.1391 0.47756 0.90783 0.0
H1685 H 0.1071 0.50967 0.96735 0.0
H1686 H 0.10981 0.50643 0.90818 0.0
C1687 C 0.15436 0.46235 0.92789 0.0
C1688 C 0.46404 0.61716 0.95598 0.0
C1689 C 0.47922 0.64772 0.9761 0.0
H1690 H 0.45369 0.59639 0.90733 0.0
C1691 C 0.49652 0.68179 0.96121 0.0
H1692 H 0.45057 0.59051 0.9665 0.0
C1693 C 0.49815 0.68522 0.92719 0.0
C1694 C 0.48277 0.65466 0.90708 0.0
H1695 H 0.50851 0.70599 0.97584 0.0
H1696 H 0.5114 0.71187 0.91668 0.0
C1697 C 0.46591 0.62059 0.92196 0.0
C1698 C 0.275 0.46209 0.42744 0.0
C1699 C 0.30556 0.47742 0.40729 0.0
H1700 H 0.25421 0.45186 0.47612 0.0
C1701 C 0.33963 0.49433 0.42214 0.0
H1702 H 0.24835 0.44882 0.41697 0.0
C1703 C 0.34304 0.49628 0.45616 0.0
C1704 C 0.31248 0.48115 0.4763 0.0
H1705 H 0.36383 0.50651 0.40748 0.0
H1706 H 0.36969 0.50977 0.46663 0.0
C1707 C 0.27841 0.46382 0.46146 0.0
C1708 C 0.49811 0.80592 0.4277 0.0
C1709 C 0.48284 0.82109 0.40759 0.0
H1710 H 0.50832 0.79554 0.47634 0.0
C1711 C 0.46603 0.83833 0.42249 0.0
H1712 H 0.51131 0.79249 0.41718 0.0
C1713 C 0.4641 0.83992 0.45651 0.0
C1714 C 0.47917 0.82455 0.47662 0.0
H1715 H 0.45389 0.8503 0.40787 0.0
H1716 H 0.45067 0.85313 0.46703 0.0
C1717 C 0.49642 0.80775 0.46172 0.0
C1718 C 0.15441 0.68458 0.42839 0.0
C1719 C 0.1391 0.65403 0.40827 0.0
H1720 H 0.16486 0.70535 0.47704 0.0
C1721 C 0.12168 0.61995 0.42315 0.0
H1722 H 0.16798 0.71124 0.41788 0.0
C1723 C 0.12006 0.61652 0.45717 0.0
C1724 C 0.13556 0.64707 0.47729 0.0
H1725 H 0.1096 0.59576 0.40851 0.0
H1726 H 0.10671 0.58987 0.46768 0.0
C1727 C 0.15254 0.68115 0.46241 0.0
C1728 C 0.02347 0.33587 0.10458 0.0
C1729 C 0.06092 0.35457 0.10051 0.0
H1730 H -0.02366 0.28541 0.11452 0.0
C1731 C 0.07977 0.33601 0.10406 0.0
H1732 H 0.00823 0.34951 0.10224 0.0
C1733 C 0.06168 0.29965 0.11169 0.0
C1734 C 0.02423 0.28083 0.1156 0.0
H1735 H 0.10869 0.34965 0.10148 0.0
H1736 H 0.07712 0.28621 0.11398 0.0
C1737 C 0.00525 0.29926 0.1119 0.0
C1738 C 0.66081 0.69846 0.11096 0.0
C1739 C 0.67951 0.73593 0.11488 0.0
H1740 H 0.61038 0.65131 0.10107 0.0
C1741 C 0.66099 0.75479 0.11107 0.0
H1742 H 0.67443 0.68322 0.11349 0.0
C1743 C 0.62466 0.73669 0.10336 0.0
C1744 C 0.60584 0.69922 0.09962 0.0
H1745 H 0.67464 0.78371 0.11352 0.0
H1746 H 0.61126 0.75213 0.10088 0.0
C1747 C 0.62423 0.68024 0.10356 0.0
C1748 C 0.26226 0.9556 0.11091 0.0
C1749 C 0.22475 0.9367 0.1145 0.0
H1750 H 0.30957 0.95243 0.10185 0.0
C1751 C 0.20597 0.89921 0.11098 0.0
H1752 H 0.27745 -0.01546 0.11326 0.0
C1753 C 0.2242 0.88099 0.10385 0.0
C1754 C 0.26171 0.89976 0.10043 0.0
H1755 H 0.17702 0.88383 0.11319 0.0
H1756 H 0.20881 0.85205 0.10155 0.0
C1757 C 0.28061 0.93726 0.10411 0.0
C1758 C 0.29096 0.01386 0.43617 0.0
C1759 C 0.27266 0.03289 0.43184 0.0
H1760 H 0.34086 0.01668 0.44715 0.0
C1761 C 0.29141 0.07031 0.43597 0.0
H1762 H 0.27717 -0.01504 0.4334 0.0
C1763 C 0.32755 0.0883 0.44445 0.0
C1764 C 0.34596 0.06939 0.44865 0.0
H1765 H 0.27808 0.0858 0.43321 0.0
H1766 H 0.34115 0.1172 0.44716 0.0
C1767 C 0.32734 0.03197 0.44434 0.0
C1768 C 0.94703 0.27053 0.43677 0.0
C1769 C 0.9281 0.23307 0.43272 0.0
H1770 H 0.94397 0.31768 0.44696 0.0
C1771 C 0.89064 0.21425 0.43659 0.0
H1772 H 0.97595 0.28575 0.43419 0.0
C1773 C 0.87249 0.23237 0.4445 0.0
C1774 C 0.89129 0.26982 0.44839 0.0
H1775 H 0.87524 0.18533 0.43404 0.0
H1776 H 0.84357 0.21695 0.44702 0.0
C1777 C 0.92876 0.28877 0.44437 0.0
C1778 C 0.74656 0.66935 0.43651 0.0
C1779 C 0.72766 0.68781 0.43252 0.0
H1780 H 0.74402 0.6198 0.44746 0.0
C1781 C 0.69024 0.66918 0.4369 0.0
H1782 H 0.77545 0.68295 0.43372 0.0
C1783 C 0.67212 0.63275 0.44495 0.0
C1784 C 0.69114 0.61442 0.44909 0.0
H1785 H 0.67497 0.68274 0.43424 0.0
H1786 H 0.64323 0.61896 0.44779 0.0
C1787 C 0.72855 0.63317 0.44487 0.0
C1788 C 0.87213 0.63301 0.94452 0.0
C1789 C 0.89101 0.61453 0.94845 0.0
H1790 H 0.87468 0.68258 0.93364 0.0
C1791 C 0.92842 0.63313 0.94402 0.0
H1792 H 0.84324 0.61942 0.94735 0.0
C1793 C 0.94656 0.66957 0.93598 0.0
C1794 C 0.92755 0.68793 0.93191 0.0
H1795 H 0.94369 0.61956 0.94662 0.0
H1796 H 0.97544 0.68334 0.9331 0.0
C1797 C 0.89014 0.6692 0.93618 0.0
C1798 C 0.32765 0.28844 0.94509 0.0
C1799 C 0.34596 0.26941 0.94932 0.0
H1800 H 0.27771 0.28561 0.93421 0.0
C1801 C 0.32723 0.232 0.9451 0.0
H1802 H 0.34142 0.31732 0.94793 0.0
C1803 C 0.29109 0.21401 0.93664 0.0
C1804 C 0.27265 0.23292 0.93255 0.0
H1805 H 0.34059 0.21653 0.94777 0.0
H1806 H 0.2775 0.18513 0.93386 0.0
C1807 C 0.29126 0.27033 0.93694 0.0
C1808 C 0.6716 0.03174 0.94461 0.0
C1809 C 0.69053 0.0692 0.94862 0.0
H1810 H 0.67466 -0.01543 0.93447 0.0
C1811 C 0.72799 0.08801 0.94475 0.0
H1812 H 0.64268 0.01651 0.9472 0.0
C1813 C 0.74614 0.06989 0.93687 0.0
C1814 C 0.72734 0.03243 0.93301 0.0
H1815 H 0.74339 0.11693 0.94727 0.0
H1816 H 0.77506 0.0853 0.93433 0.0
C1817 C 0.68987 0.01349 0.93704 0.0
C1818 C 0.66054 0.89877 0.61212 0.0
C1819 C 0.6794 0.93624 0.61576 0.0
H1820 H 0.61055 0.85174 0.60203 0.0
C1821 C 0.66102 0.95524 0.61173 0.0
H1822 H 0.67393 0.88331 0.61469 0.0
C1823 C 0.62445 0.93702 0.60432 0.0
C1824 C 0.60573 0.89955 0.60048 0.0
H1825 H 0.6749 0.98418 0.61414 0.0
H1826 H 0.61085 0.95227 0.6017 0.0
C1827 C 0.62422 0.88067 0.6044 0.0
C1828 C 0.00468 0.69826 0.61113 0.0
C1829 C 0.02358 0.73576 0.61478 0.0
H1830 H 0.00784 0.65097 0.60198 0.0
C1831 C 0.06108 0.75453 0.6113 0.0
H1832 H 0.97573 0.68308 0.61345 0.0
C1833 C 0.0793 0.73631 0.60413 0.0
C1834 C 0.06053 0.69881 0.60064 0.0
H1835 H 0.07648 0.78347 0.61356 0.0
H1836 H 0.10825 0.7517 0.60186 0.0
C1837 C 0.02302 0.67991 0.6043 0.0
C1838 C 0.27999 0.33625 0.60362 0.0
C1839 C 0.261 0.35466 0.59984 0.0
H1840 H 0.27702 0.28602 0.61336 0.0
C1841 C 0.22354 0.33583 0.60368 0.0
H1842 H 0.30891 0.35011 0.60106 0.0
C1843 C 0.20545 0.29947 0.61133 0.0
C1844 C 0.22431 0.28093 0.61496 0.0
H1845 H 0.2081 0.34925 0.60133 0.0
H1846 H 0.17653 0.28581 0.61385 0.0
C1847 C 0.26178 0.29964 0.61096 0.0
C1848 C -0.00617 0.36518 0.77879 0.0
C1849 C 0.01244 0.40258 0.78322 0.0
H1850 H 0.94364 0.31818 0.76789 0.0
C1851 C -0.00604 0.42147 0.77933 0.0
H1852 H 0.00741 0.34991 0.78137 0.0
C1853 C 0.95778 0.40347 0.77101 0.0
C1854 C 0.93906 0.36608 0.76673 0.0
H1855 H 0.00753 0.45035 0.78217 0.0
H1856 H 0.94439 0.41894 0.76849 0.0
C1857 C 0.95741 0.34706 0.77078 0.0
C1858 C 0.5952 0.62207 0.77874 0.0
C1859 C 0.55773 0.60313 0.78269 0.0
H1860 H 0.64242 0.61903 0.76877 0.0
C1861 C 0.53894 0.56567 0.77886 0.0
H1862 H 0.6104 0.65099 0.7813 0.0
C1863 C 0.55711 0.54753 0.77109 0.0
C1864 C 0.59458 0.56635 0.76731 0.0
H1865 H 0.51001 0.55025 0.78133 0.0
H1866 H 0.54171 0.51862 0.76859 0.0
C1867 C 0.61349 0.60381 0.77129 0.0
C1868 C 0.35663 0.00241 0.77175 0.0
C1869 C 0.39406 0.02104 0.76744 0.0
H1870 H 0.30958 0.95213 0.7824 0.0
C1871 C 0.41294 0.00255 0.77132 0.0
H1872 H 0.34137 0.01599 0.76918 0.0
C1873 C 0.3949 0.96632 0.7795 0.0
C1874 C 0.35748 0.94756 0.78364 0.0
H1875 H 0.44183 0.01616 0.76859 0.0
H1876 H 0.41036 0.95293 0.78202 0.0
C1877 C 0.33847 0.96593 0.77962 0.0
C1878 C 0.61338 0.00282 0.27081 0.0
C1879 C 0.59437 0.02118 0.2668 0.0
H1880 H 0.6105 0.95276 0.28125 0.0
C1881 C 0.55695 0.00241 0.27096 0.0
H1882 H 0.64228 0.01662 0.26801 0.0
C1883 C 0.53893 0.96618 0.27914 0.0
C1884 C 0.55781 0.9477 0.283 0.0
H1885 H 0.54149 0.0158 0.26845 0.0
H1886 H 0.51003 0.95258 0.28189 0.0
C1887 C 0.59524 0.96634 0.27868 0.0
C1888 C -0.00588 0.56532 0.27947 0.0
C1889 C 0.01285 0.60273 0.28365 0.0
H1890 H 0.94435 0.51842 0.26839 0.0
C1891 C -0.00548 0.62175 0.2795 0.0
H1892 H 0.00749 0.54985 0.28208 0.0
C1893 C 0.9581 0.60362 0.27148 0.0
C1894 C 0.93948 0.5662 0.26714 0.0
H1895 H 0.0083 0.65064 0.28231 0.0
H1896 H 0.94453 0.61889 0.26882 0.0
C1897 C 0.95794 0.54731 0.27114 0.0
C1898 C 0.33836 0.36498 0.27898 0.0
C1899 C 0.35727 0.40244 0.28299 0.0
H1900 H 0.34145 0.31782 0.26895 0.0
C1901 C 0.39475 0.42126 0.27925 0.0
H1902 H 0.30943 0.34976 0.28147 0.0
C1903 C 0.41292 0.40313 0.27148 0.0
C1904 C 0.39414 0.36568 0.26762 0.0
H1905 H 0.41015 0.45018 0.28178 0.0
H1906 H 0.44185 0.41855 0.26904 0.0
C1907 C 0.35665 0.34673 0.27153 0.0
loop_
_geom_bond_atom_site_label_1
_geom_bond_atom_site_label_2
_geom_bond_distance
_geom_bond_site_symmetry_2
_ccdc_geom_bond_type
O0 Zn1 1.953 . S
O0 C16 1.225 . S
Zn1 O0 1.953 . S
Zn1 O2 1.949 . S
Zn1 O8 1.919 . S
Zn1 O13 1.924 . S
O2 Zn1 1.949 . S
O2 Zn3 1.923 . S
O2 Zn4 1.950 1_455 S
O2 Zn5 1.945 . S
Zn3 O2 1.923 . S
Zn3 O6 1.933 . S
Zn3 O9 1.941 . S
Zn3 O10 1.965 1_455 S
Zn4 O2 1.950 1_655 S
Zn4 O11 1.938 . S
Zn4 O12 1.906 . S
Zn4 O22 1.953 . S
Zn5 O2 1.945 . S
Zn5 O7 1.932 . S
Zn5 O14 1.977 . S
Zn5 O15 1.910 . S
O6 Zn3 1.933 . S
O6 C17 1.226 . S
O7 Zn5 1.932 . S
O7 C17 1.307 . S
O8 Zn1 1.919 . S
O8 C19 1.253 . S
O9 Zn3 1.941 . S
O9 C19 1.283 . S
O10 Zn3 1.965 1_655 S
O10 C18 1.303 . S
O11 Zn4 1.938 . S
O11 C18 1.247 . S
O12 Zn4 1.906 . S
O12 C20 1.304 . S
O13 Zn1 1.924 . S
O13 C21 1.311 . S
O14 Zn5 1.977 . S
O14 C20 1.272 1_455 S
O15 Zn5 1.910 . S
O15 C21 1.231 . S
C16 O0 1.225 . S
C16 O22 1.298 1_455 S
C17 O6 1.226 . S
C17 O7 1.307 . S
C18 O10 1.303 . S
C18 O11 1.247 . S
C19 O8 1.253 . S
C19 O9 1.283 . S
C20 O12 1.304 . S
C20 O14 1.272 1_655 S
C21 O13 1.311 . S
C21 O15 1.231 . S
O22 Zn4 1.953 . S
O22 C16 1.298 1_655 S
O23 Zn24 1.953 . S
O23 C39 1.225 . S
Zn24 O23 1.953 . S
Zn24 O25 1.949 . S
Zn24 O31 1.919 . S
Zn24 O36 1.924 . S
O25 Zn24 1.949 . S
O25 Zn26 1.923 . S
O25 Zn27 1.950 . S
O25 Zn28 1.945 . S
Zn26 O25 1.923 . S
Zn26 O29 1.933 . S
Zn26 O32 1.941 . S
Zn26 O33 1.965 . S
Zn27 O25 1.950 . S
Zn27 O34 1.938 . S
Zn27 O35 1.906 . S
Zn27 O45 1.953 . S
Zn28 O25 1.945 . S
Zn28 O30 1.932 . S
Zn28 O37 1.977 . S
Zn28 O38 1.910 . S
O29 Zn26 1.933 . S
O29 C40 1.226 . S
O30 Zn28 1.932 . S
O30 C40 1.307 . S
O31 Zn24 1.919 . S
O31 C42 1.253 . S
O32 Zn26 1.941 . S
O32 C42 1.283 . S
O33 Zn26 1.965 . S
O33 C41 1.303 . S
O34 Zn27 1.938 . S
O34 C41 1.247 . S
O35 Zn27 1.906 . S
O35 C43 1.304 . S
O36 Zn24 1.924 . S
O36 C44 1.311 . S
O37 Zn28 1.977 . S
O37 C43 1.272 . S
O38 Zn28 1.910 . S
O38 C44 1.231 . S
C39 O23 1.225 . S
C39 O45 1.298 . S
C40 O29 1.226 . S
C40 O30 1.307 . S
C41 O33 1.303 . S
C41 O34 1.247 . S
C42 O31 1.253 . S
C42 O32 1.283 . S
C43 O35 1.304 . S
C43 O37 1.272 . S
C44 O36 1.311 . S
C44 O38 1.231 . S
O45 Zn27 1.953 . S
O45 C39 1.298 . S
O46 Zn47 1.953 . S
O46 C62 1.225 . S
Zn47 O46 1.953 . S
Zn47 O48 1.949 . S
Zn47 O54 1.919 . S
Zn47 O59 1.924 . S
O48 Zn47 1.949 . S
O48 Zn49 1.923 . S
O48 Zn50 1.950 1_565 S
O48 Zn51 1.945 . S
Zn49 O48 1.923 . S
Zn49 O52 1.933 . S
Zn49 O55 1.941 . S
Zn49 O56 1.965 1_565 S
Zn50 O48 1.950 1_545 S
Zn50 O57 1.938 . S
Zn50 O58 1.906 . S
Zn50 O68 1.953 . S
Zn51 O48 1.945 . S
Zn51 O53 1.932 . S
Zn51 O60 1.977 . S
Zn51 O61 1.910 . S
O52 Zn49 1.933 . S
O52 C63 1.226 . S
O53 Zn51 1.932 . S
O53 C63 1.307 . S
O54 Zn47 1.919 . S
O54 C65 1.253 . S
O55 Zn49 1.941 . S
O55 C65 1.283 . S
O56 Zn49 1.965 1_545 S
O56 C64 1.303 . S
O57 Zn50 1.938 . S
O57 C64 1.247 . S
O58 Zn50 1.906 . S
O58 C66 1.304 . S
O59 Zn47 1.924 . S
O59 C67 1.311 . S
O60 Zn51 1.977 . S
O60 C66 1.272 1_565 S
O61 Zn51 1.910 . S
O61 C67 1.231 . S
C62 O46 1.225 . S
C62 O68 1.298 1_565 S
C63 O52 1.226 . S
C63 O53 1.307 . S
C64 O56 1.303 . S
C64 O57 1.247 . S
C65 O54 1.253 . S
C65 O55 1.283 . S
C66 O58 1.304 . S
C66 O60 1.272 1_545 S
C67 O59 1.311 . S
C67 O61 1.231 . S
O68 Zn50 1.953 . S
O68 C62 1.298 1_545 S
O69 Zn70 1.953 . S
O69 C85 1.225 . S
Zn70 O69 1.953 . S
Zn70 O71 1.949 . S
Zn70 O77 1.919 . S
Zn70 O82 1.924 . S
O71 Zn70 1.949 . S
O71 Zn72 1.923 . S
O71 Zn73 1.950 1_545 S
O71 Zn74 1.945 . S
Zn72 O71 1.923 . S
Zn72 O75 1.933 . S
Zn72 O78 1.941 . S
Zn72 O79 1.965 1_545 S
Zn73 O71 1.950 1_565 S
Zn73 O80 1.938 . S
Zn73 O81 1.906 . S
Zn73 O91 1.953 . S
Zn74 O71 1.945 . S
Zn74 O76 1.932 . S
Zn74 O83 1.977 . S
Zn74 O84 1.910 . S
O75 Zn72 1.933 . S
O75 C86 1.226 . S
O76 Zn74 1.932 . S
O76 C86 1.307 . S
O77 Zn70 1.919 . S
O77 C88 1.253 . S
O78 Zn72 1.941 . S
O78 C88 1.283 . S
O79 Zn72 1.965 1_565 S
O79 C87 1.303 . S
O80 Zn73 1.938 . S
O80 C87 1.247 . S
O81 Zn73 1.906 . S
O81 C89 1.304 . S
O82 Zn70 1.924 . S
O82 C90 1.311 . S
O83 Zn74 1.977 . S
O83 C89 1.272 1_545 S
O84 Zn74 1.910 . S
O84 C90 1.231 . S
C85 O69 1.225 . S
C85 O91 1.298 1_545 S
C86 O75 1.226 . S
C86 O76 1.307 . S
C87 O79 1.303 . S
C87 O80 1.247 . S
C88 O77 1.253 . S
C88 O78 1.283 . S
C89 O81 1.304 . S
C89 O83 1.272 1_565 S
C90 O82 1.311 . S
C90 O84 1.231 . S
O91 Zn73 1.953 . S
O91 C85 1.298 1_565 S
O92 Zn93 1.953 . S
O92 C108 1.225 . S
Zn93 O92 1.953 . S
Zn93 O94 1.949 . S
Zn93 O100 1.919 . S
Zn93 O105 1.924 . S
O94 Zn93 1.949 . S
O94 Zn95 1.923 . S
O94 Zn96 1.950 1_655 S
O94 Zn97 1.945 . S
Zn95 O94 1.923 . S
Zn95 O98 1.933 . S
Zn95 O101 1.941 . S
Zn95 O102 1.965 1_655 S
Zn96 O94 1.950 1_455 S
Zn96 O103 1.938 . S
Zn96 O104 1.906 . S
Zn96 O114 1.953 . S
Zn97 O94 1.945 . S
Zn97 O99 1.932 . S
Zn97 O106 1.977 . S
Zn97 O107 1.910 . S
O98 Zn95 1.933 . S
O98 C109 1.226 . S
O99 Zn97 1.932 . S
O99 C109 1.307 . S
O100 Zn93 1.919 . S
O100 C111 1.253 . S
O101 Zn95 1.941 . S
O101 C111 1.283 . S
O102 Zn95 1.965 1_455 S
O102 C110 1.303 . S
O103 Zn96 1.938 . S
O103 C110 1.247 . S
O104 Zn96 1.906 . S
O104 C112 1.304 . S
O105 Zn93 1.924 . S
O105 C113 1.311 . S
O106 Zn97 1.977 . S
O106 C112 1.272 1_655 S
O107 Zn97 1.910 . S
O107 C113 1.231 . S
C108 O92 1.225 . S
C108 O114 1.298 1_655 S
C109 O98 1.226 . S
C109 O99 1.307 . S
C110 O102 1.303 . S
C110 O103 1.247 . S
C111 O100 1.253 . S
C111 O101 1.283 . S
C112 O104 1.304 . S
C112 O106 1.272 1_455 S
C113 O105 1.311 . S
C113 O107 1.231 . S
O114 Zn96 1.953 . S
O114 C108 1.298 1_455 S
O115 Zn116 1.953 . S
O115 C131 1.225 . S
Zn116 O115 1.953 . S
Zn116 O117 1.949 . S
Zn116 O123 1.919 . S
Zn116 O128 1.924 . S
O117 Zn116 1.949 . S
O117 Zn118 1.923 . S
O117 Zn119 1.950 . S
O117 Zn120 1.945 . S
Zn118 O117 1.923 . S
Zn118 O121 1.933 . S
Zn118 O124 1.941 . S
Zn118 O125 1.965 . S
Zn119 O117 1.950 . S
Zn119 O126 1.938 . S
Zn119 O127 1.906 . S
Zn119 O137 1.953 . S
Zn120 O117 1.945 . S
Zn120 O122 1.932 . S
Zn120 O129 1.977 . S
Zn120 O130 1.910 . S
O121 Zn118 1.933 . S
O121 C132 1.226 . S
O122 Zn120 1.932 . S
O122 C132 1.307 . S
O123 Zn116 1.919 . S
O123 C134 1.253 . S
O124 Zn118 1.941 . S
O124 C134 1.283 . S
O125 Zn118 1.965 . S
O125 C133 1.303 . S
O126 Zn119 1.938 . S
O126 C133 1.247 . S
O127 Zn119 1.906 . S
O127 C135 1.304 . S
O128 Zn116 1.924 . S
O128 C136 1.311 . S
O129 Zn120 1.977 . S
O129 C135 1.272 . S
O130 Zn120 1.910 . S
O130 C136 1.231 . S
C131 O115 1.225 . S
C131 O137 1.298 . S
C132 O121 1.226 . S
C132 O122 1.307 . S
C133 O125 1.303 . S
C133 O126 1.247 . S
C134 O123 1.253 . S
C134 O124 1.283 . S
C135 O127 1.304 . S
C135 O129 1.272 . S
C136 O128 1.311 . S
C136 O130 1.231 . S
O137 Zn119 1.953 . S
O137 C131 1.298 . S
O138 Zn139 1.953 . S
O138 C154 1.225 . S
Zn139 O138 1.953 . S
Zn139 O140 1.949 . S
Zn139 O146 1.919 . S
Zn139 O151 1.924 . S
O140 Zn139 1.949 . S
O140 Zn141 1.923 . S
O140 Zn142 1.950 1_655 S
O140 Zn143 1.945 . S
Zn141 O140 1.923 . S
Zn141 O144 1.933 . S
Zn141 O147 1.941 . S
Zn141 O148 1.965 1_655 S
Zn142 O140 1.950 1_455 S
Zn142 O149 1.938 . S
Zn142 O150 1.906 . S
Zn142 O160 1.953 . S
Zn143 O140 1.945 . S
Zn143 O145 1.932 . S
Zn143 O152 1.977 . S
Zn143 O153 1.910 . S
O144 Zn141 1.933 . S
O144 C155 1.226 . S
O145 Zn143 1.932 . S
O145 C155 1.307 . S
O146 Zn139 1.919 . S
O146 C157 1.253 . S
O147 Zn141 1.941 . S
O147 C157 1.283 . S
O148 Zn141 1.965 1_455 S
O148 C156 1.303 . S
O149 Zn142 1.938 . S
O149 C156 1.247 . S
O150 Zn142 1.906 . S
O150 C158 1.304 . S
O151 Zn139 1.924 . S
O151 C159 1.311 . S
O152 Zn143 1.977 . S
O152 C158 1.272 1_655 S
O153 Zn143 1.910 . S
O153 C159 1.231 . S
C154 O138 1.225 . S
C154 O160 1.298 1_655 S
C155 O144 1.226 . S
C155 O145 1.307 . S
C156 O148 1.303 . S
C156 O149 1.247 . S
C157 O146 1.253 . S
C157 O147 1.283 . S
C158 O150 1.304 . S
C158 O152 1.272 1_455 S
C159 O151 1.311 . S
C159 O153 1.231 . S
O160 Zn142 1.953 . S
O160 C154 1.298 1_455 S
O161 Zn162 1.953 . S
O161 C177 1.225 . S
Zn162 O161 1.953 . S
Zn162 O163 1.949 . S
Zn162 O169 1.919 . S
Zn162 O174 1.924 . S
O163 Zn162 1.949 . S
O163 Zn164 1.923 . S
O163 Zn165 1.950 . S
O163 Zn166 1.945 . S
Zn164 O163 1.923 . S
Zn164 O167 1.933 . S
Zn164 O170 1.941 . S
Zn164 O171 1.965 . S
Zn165 O163 1.950 . S
Zn165 O172 1.938 . S
Zn165 O173 1.906 . S
Zn165 O183 1.953 . S
Zn166 O163 1.945 . S
Zn166 O168 1.932 . S
Zn166 O175 1.977 . S
Zn166 O176 1.910 . S
O167 Zn164 1.933 . S
O167 C178 1.226 . S
O168 Zn166 1.932 . S
O168 C178 1.307 . S
O169 Zn162 1.919 . S
O169 C180 1.253 . S
O170 Zn164 1.941 . S
O170 C180 1.283 . S
O171 Zn164 1.965 . S
O171 C179 1.303 . S
O172 Zn165 1.938 . S
O172 C179 1.247 . S
O173 Zn165 1.906 . S
O173 C181 1.304 . S
O174 Zn162 1.924 . S
O174 C182 1.311 . S
O175 Zn166 1.977 . S
O175 C181 1.272 . S
O176 Zn166 1.910 . S
O176 C182 1.231 . S
C177 O161 1.225 . S
C177 O183 1.298 . S
C178 O167 1.226 . S
C178 O168 1.307 . S
C179 O171 1.303 . S
C179 O172 1.247 . S
C180 O169 1.253 . S
C180 O170 1.283 . S
C181 O173 1.304 . S
C181 O175 1.272 . S
C182 O174 1.311 . S
C182 O176 1.231 . S
O183 Zn165 1.953 . S
O183 C177 1.298 . S
O184 Zn185 1.953 . S
O184 C200 1.225 . S
Zn185 O184 1.953 . S
Zn185 O186 1.949 . S
Zn185 O192 1.919 . S
Zn185 O197 1.924 . S
O186 Zn185 1.949 . S
O186 Zn187 1.923 . S
O186 Zn188 1.950 1_545 S
O186 Zn189 1.945 . S
Zn187 O186 1.923 . S
Zn187 O190 1.933 . S
Zn187 O193 1.941 . S
Zn187 O194 1.965 1_545 S
Zn188 O186 1.950 1_565 S
Zn188 O195 1.938 . S
Zn188 O196 1.906 . S
Zn188 O206 1.953 . S
Zn189 O186 1.945 . S
Zn189 O191 1.932 . S
Zn189 O198 1.977 . S
Zn189 O199 1.910 . S
O190 Zn187 1.933 . S
O190 C201 1.226 . S
O191 Zn189 1.932 . S
O191 C201 1.307 . S
O192 Zn185 1.919 . S
O192 C203 1.253 . S
O193 Zn187 1.941 . S
O193 C203 1.283 . S
O194 Zn187 1.965 1_565 S
O194 C202 1.303 . S
O195 Zn188 1.938 . S
O195 C202 1.247 . S
O196 Zn188 1.906 . S
O196 C204 1.304 . S
O197 Zn185 1.924 . S
O197 C205 1.311 . S
O198 Zn189 1.977 . S
O198 C204 1.272 1_545 S
O199 Zn189 1.910 . S
O199 C205 1.231 . S
C200 O184 1.225 . S
C200 O206 1.298 1_545 S
C201 O190 1.226 . S
C201 O191 1.307 . S
C202 O194 1.303 . S
C202 O195 1.247 . S
C203 O192 1.253 . S
C203 O193 1.283 . S
C204 O196 1.304 . S
C204 O198 1.272 1_565 S
C205 O197 1.311 . S
C205 O199 1.231 . S
O206 Zn188 1.953 . S
O206 C200 1.298 1_565 S
O207 Zn208 1.953 . S
O207 C223 1.225 . S
Zn208 O207 1.953 . S
Zn208 O209 1.949 . S
Zn208 O215 1.919 . S
Zn208 O220 1.924 . S
O209 Zn208 1.949 . S
O209 Zn210 1.923 . S
O209 Zn211 1.950 1_565 S
O209 Zn212 1.945 . S
Zn210 O209 1.923 . S
Zn210 O213 1.933 . S
Zn210 O216 1.941 . S
Zn210 O217 1.965 1_565 S
Zn211 O209 1.950 1_545 S
Zn211 O218 1.938 . S
Zn211 O219 1.906 . S
Zn211 O229 1.953 . S
Zn212 O209 1.945 . S
Zn212 O214 1.932 . S
Zn212 O221 1.977 . S
Zn212 O222 1.910 . S
O213 Zn210 1.933 . S
O213 C224 1.226 . S
O214 Zn212 1.932 . S
O214 C224 1.307 . S
O215 Zn208 1.919 . S
O215 C226 1.253 . S
O216 Zn210 1.941 . S
O216 C226 1.283 . S
O217 Zn210 1.965 1_545 S
O217 C225 1.303 . S
O218 Zn211 1.938 . S
O218 C225 1.247 . S
O219 Zn211 1.906 . S
O219 C227 1.304 . S
O220 Zn208 1.924 . S
O220 C228 1.311 . S
O221 Zn212 1.977 . S
O221 C227 1.272 1_565 S
O222 Zn212 1.910 . S
O222 C228 1.231 . S
C223 O207 1.225 . S
C223 O229 1.298 1_565 S
C224 O213 1.226 . S
C224 O214 1.307 . S
C225 O217 1.303 . S
C225 O218 1.247 . S
C226 O215 1.253 . S
C226 O216 1.283 . S
C227 O219 1.304 . S
C227 O221 1.272 1_545 S
C228 O220 1.311 . S
C228 O222 1.231 . S
O229 Zn211 1.953 . S
O229 C223 1.298 1_545 S
O230 Zn231 1.953 . S
O230 C246 1.225 . S
Zn231 O230 1.953 . S
Zn231 O232 1.949 . S
Zn231 O238 1.919 . S
Zn231 O243 1.924 . S
O232 Zn231 1.949 . S
O232 Zn233 1.923 . S
O232 Zn234 1.950 1_455 S
O232 Zn235 1.945 . S
Zn233 O232 1.923 . S
Zn233 O236 1.933 . S
Zn233 O239 1.941 . S
Zn233 O240 1.965 1_455 S
Zn234 O232 1.950 1_655 S
Zn234 O241 1.938 . S
Zn234 O242 1.906 . S
Zn234 O252 1.953 . S
Zn235 O232 1.945 . S
Zn235 O237 1.932 . S
Zn235 O244 1.977 . S
Zn235 O245 1.910 . S
O236 Zn233 1.933 . S
O236 C247 1.226 . S
O237 Zn235 1.932 . S
O237 C247 1.307 . S
O238 Zn231 1.919 . S
O238 C249 1.253 . S
O239 Zn233 1.941 . S
O239 C249 1.283 . S
O240 Zn233 1.965 1_655 S
O240 C248 1.303 . S
O241 Zn234 1.938 . S
O241 C248 1.247 . S
O242 Zn234 1.906 . S
O242 C250 1.304 . S
O243 Zn231 1.924 . S
O243 C251 1.311 . S
O244 Zn235 1.977 . S
O244 C250 1.272 1_455 S
O245 Zn235 1.910 . S
O245 C251 1.231 . S
C246 O230 1.225 . S
C246 O252 1.298 1_455 S
C247 O236 1.226 . S
C247 O237 1.307 . S
C248 O240 1.303 . S
C248 O241 1.247 . S
C249 O238 1.253 . S
C249 O239 1.283 . S
C250 O242 1.304 . S
C250 O244 1.272 1_655 S
C251 O243 1.311 . S
C251 O245 1.231 . S
O252 Zn234 1.953 . S
O252 C246 1.298 1_655 S
O253 Zn254 1.953 . S
O253 C269 1.225 . S
Zn254 O253 1.953 . S
Zn254 O255 1.949 . S
Zn254 O261 1.919 . S
Zn254 O266 1.924 . S
O255 Zn254 1.949 . S
O255 Zn256 1.923 . S
O255 Zn257 1.950 . S
O255 Zn258 1.945 . S
Zn256 O255 1.923 . S
Zn256 O259 1.933 . S
Zn256 O262 1.941 . S
Zn256 O263 1.965 . S
Zn257 O255 1.950 . S
Zn257 O264 1.938 . S
Zn257 O265 1.906 . S
Zn257 O275 1.953 . S
Zn258 O255 1.945 . S
Zn258 O260 1.932 . S
Zn258 O267 1.977 . S
Zn258 O268 1.910 . S
O259 Zn256 1.933 . S
O259 C270 1.226 . S
O260 Zn258 1.932 . S
O260 C270 1.307 . S
O261 Zn254 1.919 . S
O261 C272 1.253 . S
O262 Zn256 1.941 . S
O262 C272 1.283 . S
O263 Zn256 1.965 . S
O263 C271 1.303 . S
O264 Zn257 1.938 . S
O264 C271 1.247 . S
O265 Zn257 1.906 . S
O265 C273 1.304 . S
O266 Zn254 1.924 . S
O266 C274 1.311 . S
O267 Zn258 1.977 . S
O267 C273 1.272 . S
O268 Zn258 1.910 . S
O268 C274 1.231 . S
C269 O253 1.225 . S
C269 O275 1.298 . S
C270 O259 1.226 . S
C270 O260 1.307 . S
C271 O263 1.303 . S
C271 O264 1.247 . S
C272 O261 1.253 . S
C272 O262 1.283 . S
C273 O265 1.304 . S
C273 O267 1.272 . S
C274 O266 1.311 . S
C274 O268 1.231 . S
O275 Zn257 1.953 . S
O275 C269 1.298 . S
O276 Zn277 1.953 . S
O276 C292 1.225 . S
Zn277 O276 1.953 . S
Zn277 O278 1.949 . S
Zn277 O284 1.919 . S
Zn277 O289 1.924 . S
O278 Zn277 1.949 . S
O278 Zn279 1.923 . S
O278 Zn280 1.950 . S
O278 Zn281 1.945 . S
Zn279 O278 1.923 . S
Zn279 O282 1.933 . S
Zn279 O285 1.941 . S
Zn279 O286 1.965 . S
Zn280 O278 1.950 . S
Zn280 O287 1.938 . S
Zn280 O288 1.906 . S
Zn280 O298 1.953 . S
Zn281 O278 1.945 . S
Zn281 O283 1.932 . S
Zn281 O290 1.977 . S
Zn281 O291 1.910 . S
O282 Zn279 1.933 . S
O282 C293 1.226 . S
O283 Zn281 1.932 . S
O283 C293 1.307 . S
O284 Zn277 1.919 . S
O284 C295 1.253 . S
O285 Zn279 1.941 . S
O285 C295 1.283 . S
O286 Zn279 1.965 . S
O286 C294 1.303 . S
O287 Zn280 1.938 . S
O287 C294 1.247 . S
O288 Zn280 1.906 . S
O288 C296 1.304 . S
O289 Zn277 1.924 . S
O289 C297 1.311 . S
O290 Zn281 1.977 . S
O290 C296 1.272 . S
O291 Zn281 1.910 . S
O291 C297 1.231 . S
C292 O276 1.225 . S
C292 O298 1.298 . S
C293 O282 1.226 . S
C293 O283 1.307 . S
C294 O286 1.303 . S
C294 O287 1.247 . S
C295 O284 1.253 . S
C295 O285 1.283 . S
C296 O288 1.304 . S
C296 O290 1.272 . S
C297 O289 1.311 . S
C297 O291 1.231 . S
O298 Zn280 1.953 . S
O298 C292 1.298 . S
O299 Zn300 1.953 . S
O299 C315 1.225 . S
Zn300 O299 1.953 . S
Zn300 O301 1.949 . S
Zn300 O307 1.919 . S
Zn300 O312 1.924 . S
O301 Zn300 1.949 . S
O301 Zn302 1.923 . S
O301 Zn303 1.950 . S
O301 Zn304 1.945 . S
Zn302 O301 1.923 . S
Zn302 O305 1.933 . S
Zn302 O308 1.941 . S
Zn302 O309 1.965 . S
Zn303 O301 1.950 . S
Zn303 O310 1.938 . S
Zn303 O311 1.906 . S
Zn303 O321 1.953 . S
Zn304 O301 1.945 . S
Zn304 O306 1.932 . S
Zn304 O313 1.977 . S
Zn304 O314 1.910 . S
O305 Zn302 1.933 . S
O305 C316 1.226 . S
O306 Zn304 1.932 . S
O306 C316 1.307 . S
O307 Zn300 1.919 . S
O307 C318 1.253 . S
O308 Zn302 1.941 . S
O308 C318 1.283 . S
O309 Zn302 1.965 . S
O309 C317 1.303 . S
O310 Zn303 1.938 . S
O310 C317 1.247 . S
O311 Zn303 1.906 . S
O311 C319 1.304 . S
O312 Zn300 1.924 . S
O312 C320 1.311 . S
O313 Zn304 1.977 . S
O313 C319 1.272 . S
O314 Zn304 1.910 . S
O314 C320 1.231 . S
C315 O299 1.225 . S
C315 O321 1.298 . S
C316 O305 1.226 . S
C316 O306 1.307 . S
C317 O309 1.303 . S
C317 O310 1.247 . S
C318 O307 1.253 . S
C318 O308 1.283 . S
C319 O311 1.304 . S
C319 O313 1.272 . S
C320 O312 1.311 . S
C320 O314 1.231 . S
O321 Zn303 1.953 . S
O321 C315 1.298 . S
O322 Zn323 1.953 . S
O322 C338 1.225 . S
Zn323 O322 1.953 . S
Zn323 O324 1.949 . S
Zn323 O330 1.919 . S
Zn323 O335 1.924 . S
O324 Zn323 1.949 . S
O324 Zn325 1.923 . S
O324 Zn326 1.950 . S
O324 Zn327 1.945 . S
Zn325 O324 1.923 . S
Zn325 O328 1.933 . S
Zn325 O331 1.941 . S
Zn325 O332 1.965 . S
Zn326 O324 1.950 . S
Zn326 O333 1.938 . S
Zn326 O334 1.906 . S
Zn326 O344 1.953 . S
Zn327 O324 1.945 . S
Zn327 O329 1.932 . S
Zn327 O336 1.977 . S
Zn327 O337 1.910 . S
O328 Zn325 1.933 . S
O328 C339 1.226 . S
O329 Zn327 1.932 . S
O329 C339 1.307 . S
O330 Zn323 1.919 . S
O330 C341 1.253 . S
O331 Zn325 1.941 . S
O331 C341 1.283 . S
O332 Zn325 1.965 . S
O332 C340 1.303 . S
O333 Zn326 1.938 . S
O333 C340 1.247 . S
O334 Zn326 1.906 . S
O334 C342 1.304 . S
O335 Zn323 1.924 . S
O335 C343 1.311 . S
O336 Zn327 1.977 . S
O336 C342 1.272 . S
O337 Zn327 1.910 . S
O337 C343 1.231 . S
C338 O322 1.225 . S
C338 O344 1.298 . S
C339 O328 1.226 . S
C339 O329 1.307 . S
C340 O332 1.303 . S
C340 O333 1.247 . S
C341 O330 1.253 . S
C341 O331 1.283 . S
C342 O334 1.304 . S
C342 O336 1.272 . S
C343 O335 1.311 . S
C343 O337 1.231 . S
O344 Zn326 1.953 . S
O344 C338 1.298 . S
O345 Zn346 1.953 . S
O345 C361 1.225 . S
Zn346 O345 1.953 . S
Zn346 O347 1.949 . S
Zn346 O353 1.919 . S
Zn346 O358 1.924 . S
O347 Zn346 1.949 . S
O347 Zn348 1.923 . S
O347 Zn349 1.950 . S
O347 Zn350 1.945 . S
Zn348 O347 1.923 . S
Zn348 O351 1.933 . S
Zn348 O354 1.941 . S
Zn348 O355 1.965 . S
Zn349 O347 1.950 . S
Zn349 O356 1.938 . S
Zn349 O357 1.906 . S
Zn349 O367 1.953 . S
Zn350 O347 1.945 . S
Zn350 O352 1.932 . S
Zn350 O359 1.977 . S
Zn350 O360 1.910 . S
O351 Zn348 1.933 . S
O351 C362 1.226 . S
O352 Zn350 1.932 . S
O352 C362 1.307 . S
O353 Zn346 1.919 . S
O353 C364 1.253 . S
O354 Zn348 1.941 . S
O354 C364 1.283 . S
O355 Zn348 1.965 . S
O355 C363 1.303 . S
O356 Zn349 1.938 . S
O356 C363 1.247 . S
O357 Zn349 1.906 . S
O357 C365 1.304 . S
O358 Zn346 1.924 . S
O358 C366 1.311 . S
O359 Zn350 1.977 . S
O359 C365 1.272 . S
O360 Zn350 1.910 . S
O360 C366 1.231 . S
C361 O345 1.225 . S
C361 O367 1.298 . S
C362 O351 1.226 . S
C362 O352 1.307 . S
C363 O355 1.303 . S
C363 O356 1.247 . S
C364 O353 1.253 . S
C364 O354 1.283 . S
C365 O357 1.304 . S
C365 O359 1.272 . S
C366 O358 1.311 . S
C366 O360 1.231 . S
O367 Zn349 1.953 . S
O367 C361 1.298 . S
O368 Zn369 1.953 . S
O368 C384 1.225 . S
Zn369 O368 1.953 . S
Zn369 O370 1.949 . S
Zn369 O376 1.919 . S
Zn369 O381 1.924 . S
O370 Zn369 1.949 . S
O370 Zn371 1.923 . S
O370 Zn372 1.950 . S
O370 Zn373 1.945 . S
Zn371 O370 1.923 . S
Zn371 O374 1.933 . S
Zn371 O377 1.941 . S
Zn371 O378 1.965 . S
Zn372 O370 1.950 . S
Zn372 O379 1.938 . S
Zn372 O380 1.906 . S
Zn372 O390 1.953 . S
Zn373 O370 1.945 . S
Zn373 O375 1.932 . S
Zn373 O382 1.977 . S
Zn373 O383 1.910 . S
O374 Zn371 1.933 . S
O374 C385 1.226 . S
O375 Zn373 1.932 . S
O375 C385 1.307 . S
O376 Zn369 1.919 . S
O376 C387 1.253 . S
O377 Zn371 1.941 . S
O377 C387 1.283 . S
O378 Zn371 1.965 . S
O378 C386 1.303 . S
O379 Zn372 1.938 . S
O379 C386 1.247 . S
O380 Zn372 1.906 . S
O380 C388 1.304 . S
O381 Zn369 1.924 . S
O381 C389 1.311 . S
O382 Zn373 1.977 . S
O382 C388 1.272 . S
O383 Zn373 1.910 . S
O383 C389 1.231 . S
C384 O368 1.225 . S
C384 O390 1.298 . S
C385 O374 1.226 . S
C385 O375 1.307 . S
C386 O378 1.303 . S
C386 O379 1.247 . S
C387 O376 1.253 . S
C387 O377 1.283 . S
C388 O380 1.304 . S
C388 O382 1.272 . S
C389 O381 1.311 . S
C389 O383 1.231 . S
O390 Zn372 1.953 . S
O390 C384 1.298 . S
O391 Zn392 1.953 . S
O391 C407 1.225 . S
Zn392 O391 1.953 . S
Zn392 O393 1.949 . S
Zn392 O399 1.919 . S
Zn392 O404 1.924 . S
O393 Zn392 1.949 . S
O393 Zn394 1.923 . S
O393 Zn395 1.950 . S
O393 Zn396 1.945 . S
Zn394 O393 1.923 . S
Zn394 O397 1.933 . S
Zn394 O400 1.941 . S
Zn394 O401 1.965 . S
Zn395 O393 1.950 . S
Zn395 O402 1.938 . S
Zn395 O403 1.906 . S
Zn395 O413 1.953 . S
Zn396 O393 1.945 . S
Zn396 O398 1.932 . S
Zn396 O405 1.977 . S
Zn396 O406 1.910 . S
O397 Zn394 1.933 . S
O397 C408 1.226 . S
O398 Zn396 1.932 . S
O398 C408 1.307 . S
O399 Zn392 1.919 . S
O399 C410 1.253 . S
O400 Zn394 1.941 . S
O400 C410 1.283 . S
O401 Zn394 1.965 . S
O401 C409 1.303 . S
O402 Zn395 1.938 . S
O402 C409 1.247 . S
O403 Zn395 1.906 . S
O403 C411 1.304 . S
O404 Zn392 1.924 . S
O404 C412 1.311 . S
O405 Zn396 1.977 . S
O405 C411 1.272 . S
O406 Zn396 1.910 . S
O406 C412 1.231 . S
C407 O391 1.225 . S
C407 O413 1.298 . S
C408 O397 1.226 . S
C408 O398 1.307 . S
C409 O401 1.303 . S
C409 O402 1.247 . S
C410 O399 1.253 . S
C410 O400 1.283 . S
C411 O403 1.304 . S
C411 O405 1.272 . S
C412 O404 1.311 . S
C412 O406 1.231 . S
O413 Zn395 1.953 . S
O413 C407 1.298 . S
O414 Zn415 1.953 . S
O414 C430 1.225 . S
Zn415 O414 1.953 . S
Zn415 O416 1.949 . S
Zn415 O422 1.919 . S
Zn415 O427 1.924 . S
O416 Zn415 1.949 . S
O416 Zn417 1.923 . S
O416 Zn418 1.950 . S
O416 Zn419 1.945 . S
Zn417 O416 1.923 . S
Zn417 O420 1.933 . S
Zn417 O423 1.941 . S
Zn417 O424 1.965 . S
Zn418 O416 1.950 . S
Zn418 O425 1.938 . S
Zn418 O426 1.906 . S
Zn418 O436 1.953 . S
Zn419 O416 1.945 . S
Zn419 O421 1.932 . S
Zn419 O428 1.977 . S
Zn419 O429 1.910 . S
O420 Zn417 1.933 . S
O420 C431 1.226 . S
O421 Zn419 1.932 . S
O421 C431 1.307 . S
O422 Zn415 1.919 . S
O422 C433 1.253 . S
O423 Zn417 1.941 . S
O423 C433 1.283 . S
O424 Zn417 1.965 . S
O424 C432 1.303 . S
O425 Zn418 1.938 . S
O425 C432 1.247 . S
O426 Zn418 1.906 . S
O426 C434 1.304 . S
O427 Zn415 1.924 . S
O427 C435 1.311 . S
O428 Zn419 1.977 . S
O428 C434 1.272 . S
O429 Zn419 1.910 . S
O429 C435 1.231 . S
C430 O414 1.225 . S
C430 O436 1.298 . S
C431 O420 1.226 . S
C431 O421 1.307 . S
C432 O424 1.303 . S
C432 O425 1.247 . S
C433 O422 1.253 . S
C433 O423 1.283 . S
C434 O426 1.304 . S
C434 O428 1.272 . S
C435 O427 1.311 . S
C435 O429 1.231 . S
O436 Zn418 1.953 . S
O436 C430 1.298 . S
O437 Zn438 1.953 . S
O437 C453 1.225 . S
Zn438 O437 1.953 . S
Zn438 O439 1.949 . S
Zn438 O445 1.919 . S
Zn438 O450 1.924 . S
O439 Zn438 1.949 . S
O439 Zn440 1.923 . S
O439 Zn441 1.950 . S
O439 Zn442 1.945 . S
Zn440 O439 1.923 . S
Zn440 O443 1.933 . S
Zn440 O446 1.941 . S
Zn440 O447 1.965 . S
Zn441 O439 1.950 . S
Zn441 O448 1.938 . S
Zn441 O449 1.906 . S
Zn441 O459 1.953 . S
Zn442 O439 1.945 . S
Zn442 O444 1.932 . S
Zn442 O451 1.977 . S
Zn442 O452 1.910 . S
O443 Zn440 1.933 . S
O443 C454 1.226 . S
O444 Zn442 1.932 . S
O444 C454 1.307 . S
O445 Zn438 1.919 . S
O445 C456 1.253 . S
O446 Zn440 1.941 . S
O446 C456 1.283 . S
O447 Zn440 1.965 . S
O447 C455 1.303 . S
O448 Zn441 1.938 . S
O448 C455 1.247 . S
O449 Zn441 1.906 . S
O449 C457 1.304 . S
O450 Zn438 1.924 . S
O450 C458 1.311 . S
O451 Zn442 1.977 . S
O451 C457 1.272 . S
O452 Zn442 1.910 . S
O452 C458 1.231 . S
C453 O437 1.225 . S
C453 O459 1.298 . S
C454 O443 1.226 . S
C454 O444 1.307 . S
C455 O447 1.303 . S
C455 O448 1.247 . S
C456 O445 1.253 . S
C456 O446 1.283 . S
C457 O449 1.304 . S
C457 O451 1.272 . S
C458 O450 1.311 . S
C458 O452 1.231 . S
O459 Zn441 1.953 . S
O459 C453 1.298 . S
O460 Zn461 1.953 . S
O460 C476 1.225 . S
Zn461 O460 1.953 . S
Zn461 O462 1.949 . S
Zn461 O468 1.919 . S
Zn461 O473 1.924 . S
O462 Zn461 1.949 . S
O462 Zn463 1.923 . S
O462 Zn464 1.950 . S
O462 Zn465 1.945 . S
Zn463 O462 1.923 . S
Zn463 O466 1.933 . S
Zn463 O469 1.941 . S
Zn463 O470 1.965 . S
Zn464 O462 1.950 . S
Zn464 O471 1.938 . S
Zn464 O472 1.906 . S
Zn464 O482 1.953 . S
Zn465 O462 1.945 . S
Zn465 O467 1.932 . S
Zn465 O474 1.977 . S
Zn465 O475 1.910 . S
O466 Zn463 1.933 . S
O466 C477 1.226 . S
O467 Zn465 1.932 . S
O467 C477 1.307 . S
O468 Zn461 1.919 . S
O468 C479 1.253 . S
O469 Zn463 1.941 . S
O469 C479 1.283 . S
O470 Zn463 1.965 . S
O470 C478 1.303 . S
O471 Zn464 1.938 . S
O471 C478 1.247 . S
O472 Zn464 1.906 . S
O472 C480 1.304 . S
O473 Zn461 1.924 . S
O473 C481 1.311 . S
O474 Zn465 1.977 . S
O474 C480 1.272 . S
O475 Zn465 1.910 . S
O475 C481 1.231 . S
C476 O460 1.225 . S
C476 O482 1.298 . S
C477 O466 1.226 . S
C477 O467 1.307 . S
C478 O470 1.303 . S
C478 O471 1.247 . S
C479 O468 1.253 . S
C479 O469 1.283 . S
C480 O472 1.304 . S
C480 O474 1.272 . S
C481 O473 1.311 . S
C481 O475 1.231 . S
O482 Zn464 1.953 . S
O482 C476 1.298 . S
O483 Zn484 1.953 1_554 S
O483 C499 1.225 . S
Zn484 O483 1.953 1_556 S
Zn484 O485 1.949 . S
Zn484 O491 1.919 . S
Zn484 O496 1.924 . S
O485 Zn484 1.949 . S
O485 Zn486 1.923 . S
O485 Zn487 1.950 . S
O485 Zn488 1.945 . S
Zn486 O485 1.923 . S
Zn486 O489 1.933 . S
Zn486 O492 1.941 . S
Zn486 O493 1.965 . S
Zn487 O485 1.950 . S
Zn487 O494 1.938 . S
Zn487 O495 1.906 . S
Zn487 O505 1.953 . S
Zn488 O485 1.945 . S
Zn488 O490 1.932 . S
Zn488 O497 1.977 . S
Zn488 O498 1.910 . S
O489 Zn486 1.933 . S
O489 C500 1.226 . S
O490 Zn488 1.932 . S
O490 C500 1.307 . S
O491 Zn484 1.919 . S
O491 C502 1.253 . S
O492 Zn486 1.941 . S
O492 C502 1.283 . S
O493 Zn486 1.965 . S
O493 C501 1.303 . S
O494 Zn487 1.938 . S
O494 C501 1.247 . S
O495 Zn487 1.906 . S
O495 C503 1.304 . S
O496 Zn484 1.924 . S
O496 C504 1.311 . S
O497 Zn488 1.977 . S
O497 C503 1.272 . S
O498 Zn488 1.910 . S
O498 C504 1.231 . S
C499 O483 1.225 . S
C499 O505 1.298 1_554 S
C500 O489 1.226 . S
C500 O490 1.307 . S
C501 O493 1.303 . S
C501 O494 1.247 . S
C502 O491 1.253 . S
C502 O492 1.283 . S
C503 O495 1.304 . S
C503 O497 1.272 . S
C504 O496 1.311 . S
C504 O498 1.231 . S
O505 Zn487 1.953 . S
O505 C499 1.298 1_556 S
O506 Zn507 1.953 1_554 S
O506 C522 1.225 . S
Zn507 O506 1.953 1_556 S
Zn507 O508 1.949 . S
Zn507 O514 1.919 . S
Zn507 O519 1.924 . S
O508 Zn507 1.949 . S
O508 Zn509 1.923 . S
O508 Zn510 1.950 . S
O508 Zn511 1.945 . S
Zn509 O508 1.923 . S
Zn509 O512 1.933 . S
Zn509 O515 1.941 . S
Zn509 O516 1.965 . S
Zn510 O508 1.950 . S
Zn510 O517 1.938 . S
Zn510 O518 1.906 . S
Zn510 O528 1.953 . S
Zn511 O508 1.945 . S
Zn511 O513 1.932 . S
Zn511 O520 1.977 . S
Zn511 O521 1.910 . S
O512 Zn509 1.933 . S
O512 C523 1.226 . S
O513 Zn511 1.932 . S
O513 C523 1.307 . S
O514 Zn507 1.919 . S
O514 C525 1.253 . S
O515 Zn509 1.941 . S
O515 C525 1.283 . S
O516 Zn509 1.965 . S
O516 C524 1.303 . S
O517 Zn510 1.938 . S
O517 C524 1.247 . S
O518 Zn510 1.906 . S
O518 C526 1.304 . S
O519 Zn507 1.924 . S
O519 C527 1.311 . S
O520 Zn511 1.977 . S
O520 C526 1.272 . S
O521 Zn511 1.910 . S
O521 C527 1.231 . S
C522 O506 1.225 . S
C522 O528 1.298 1_554 S
C523 O512 1.226 . S
C523 O513 1.307 . S
C524 O516 1.303 . S
C524 O517 1.247 . S
C525 O514 1.253 . S
C525 O515 1.283 . S
C526 O518 1.304 . S
C526 O520 1.272 . S
C527 O519 1.311 . S
C527 O521 1.231 . S
O528 Zn510 1.953 . S
O528 C522 1.298 1_556 S
O529 Zn530 1.953 1_554 S
O529 C545 1.225 . S
Zn530 O529 1.953 1_556 S
Zn530 O531 1.949 . S
Zn530 O537 1.919 . S
Zn530 O542 1.924 . S
O531 Zn530 1.949 . S
O531 Zn532 1.923 . S
O531 Zn533 1.950 . S
O531 Zn534 1.945 . S
Zn532 O531 1.923 . S
Zn532 O535 1.933 . S
Zn532 O538 1.941 . S
Zn532 O539 1.965 . S
Zn533 O531 1.950 . S
Zn533 O540 1.938 . S
Zn533 O541 1.906 . S
Zn533 O551 1.953 . S
Zn534 O531 1.945 . S
Zn534 O536 1.932 . S
Zn534 O543 1.977 . S
Zn534 O544 1.910 . S
O535 Zn532 1.933 . S
O535 C546 1.226 . S
O536 Zn534 1.932 . S
O536 C546 1.307 . S
O537 Zn530 1.919 . S
O537 C548 1.253 . S
O538 Zn532 1.941 . S
O538 C548 1.283 . S
O539 Zn532 1.965 . S
O539 C547 1.303 . S
O540 Zn533 1.938 . S
O540 C547 1.247 . S
O541 Zn533 1.906 . S
O541 C549 1.304 . S
O542 Zn530 1.924 . S
O542 C550 1.311 . S
O543 Zn534 1.977 . S
O543 C549 1.272 . S
O544 Zn534 1.910 . S
O544 C550 1.231 . S
C545 O529 1.225 . S
C545 O551 1.298 1_554 S
C546 O535 1.226 . S
C546 O536 1.307 . S
C547 O539 1.303 . S
C547 O540 1.247 . S
C548 O537 1.253 . S
C548 O538 1.283 . S
C549 O541 1.304 . S
C549 O543 1.272 . S
C550 O542 1.311 . S
C550 O544 1.231 . S
O551 Zn533 1.953 . S
O551 C545 1.298 1_556 S
O552 Zn553 1.953 . S
O552 C568 1.225 . S
Zn553 O552 1.953 . S
Zn553 O554 1.949 . S
Zn553 O560 1.919 . S
Zn553 O565 1.924 . S
O554 Zn553 1.949 . S
O554 Zn555 1.923 . S
O554 Zn556 1.950 . S
O554 Zn557 1.945 . S
Zn555 O554 1.923 . S
Zn555 O558 1.933 . S
Zn555 O561 1.941 . S
Zn555 O562 1.965 . S
Zn556 O554 1.950 . S
Zn556 O563 1.938 . S
Zn556 O564 1.906 . S
Zn556 O574 1.953 . S
Zn557 O554 1.945 . S
Zn557 O559 1.932 . S
Zn557 O566 1.977 . S
Zn557 O567 1.910 . S
O558 Zn555 1.933 . S
O558 C569 1.226 . S
O559 Zn557 1.932 . S
O559 C569 1.307 . S
O560 Zn553 1.919 . S
O560 C571 1.253 . S
O561 Zn555 1.941 . S
O561 C571 1.283 . S
O562 Zn555 1.965 . S
O562 C570 1.303 . S
O563 Zn556 1.938 . S
O563 C570 1.247 . S
O564 Zn556 1.906 . S
O564 C572 1.304 . S
O565 Zn553 1.924 . S
O565 C573 1.311 . S
O566 Zn557 1.977 . S
O566 C572 1.272 . S
O567 Zn557 1.910 . S
O567 C573 1.231 . S
C568 O552 1.225 . S
C568 O574 1.298 . S
C569 O558 1.226 . S
C569 O559 1.307 . S
C570 O562 1.303 . S
C570 O563 1.247 . S
C571 O560 1.253 . S
C571 O561 1.283 . S
C572 O564 1.304 . S
C572 O566 1.272 . S
C573 O565 1.311 . S
C573 O567 1.231 . S
O574 Zn556 1.953 . S
O574 C568 1.298 . S
O575 Zn576 1.953 . S
O575 C591 1.225 . S
Zn576 O575 1.953 . S
Zn576 O577 1.949 . S
Zn576 O583 1.919 . S
Zn576 O588 1.924 . S
O577 Zn576 1.949 . S
O577 Zn578 1.923 . S
O577 Zn579 1.950 . S
O577 Zn580 1.945 . S
Zn578 O577 1.923 . S
Zn578 O581 1.933 . S
Zn578 O584 1.941 . S
Zn578 O585 1.965 . S
Zn579 O577 1.950 . S
Zn579 O586 1.938 . S
Zn579 O587 1.906 . S
Zn579 O597 1.953 . S
Zn580 O577 1.945 . S
Zn580 O582 1.932 . S
Zn580 O589 1.977 . S
Zn580 O590 1.910 . S
O581 Zn578 1.933 . S
O581 C592 1.226 . S
O582 Zn580 1.932 . S
O582 C592 1.307 . S
O583 Zn576 1.919 . S
O583 C594 1.253 . S
O584 Zn578 1.941 . S
O584 C594 1.283 . S
O585 Zn578 1.965 . S
O585 C593 1.303 . S
O586 Zn579 1.938 . S
O586 C593 1.247 . S
O587 Zn579 1.906 . S
O587 C595 1.304 . S
O588 Zn576 1.924 . S
O588 C596 1.311 . S
O589 Zn580 1.977 . S
O589 C595 1.272 . S
O590 Zn580 1.910 . S
O590 C596 1.231 . S
C591 O575 1.225 . S
C591 O597 1.298 . S
C592 O581 1.226 . S
C592 O582 1.307 . S
C593 O585 1.303 . S
C593 O586 1.247 . S
C594 O583 1.253 . S
C594 O584 1.283 . S
C595 O587 1.304 . S
C595 O589 1.272 . S
C596 O588 1.311 . S
C596 O590 1.231 . S
O597 Zn579 1.953 . S
O597 C591 1.298 . S
O598 Zn599 1.953 . S
O598 C614 1.225 . S
Zn599 O598 1.953 . S
Zn599 O600 1.949 . S
Zn599 O606 1.919 . S
Zn599 O611 1.924 . S
O600 Zn599 1.949 . S
O600 Zn601 1.923 . S
O600 Zn602 1.950 . S
O600 Zn603 1.945 . S
Zn601 O600 1.923 . S
Zn601 O604 1.933 . S
Zn601 O607 1.941 . S
Zn601 O608 1.965 . S
Zn602 O600 1.950 . S
Zn602 O609 1.938 . S
Zn602 O610 1.906 . S
Zn602 O620 1.953 . S
Zn603 O600 1.945 . S
Zn603 O605 1.932 . S
Zn603 O612 1.977 . S
Zn603 O613 1.910 . S
O604 Zn601 1.933 . S
O604 C615 1.226 . S
O605 Zn603 1.932 . S
O605 C615 1.307 . S
O606 Zn599 1.919 . S
O606 C617 1.253 . S
O607 Zn601 1.941 . S
O607 C617 1.283 . S
O608 Zn601 1.965 . S
O608 C616 1.303 . S
O609 Zn602 1.938 . S
O609 C616 1.247 . S
O610 Zn602 1.906 . S
O610 C618 1.304 . S
O611 Zn599 1.924 . S
O611 C619 1.311 . S
O612 Zn603 1.977 . S
O612 C618 1.272 . S
O613 Zn603 1.910 . S
O613 C619 1.231 . S
C614 O598 1.225 . S
C614 O620 1.298 . S
C615 O604 1.226 . S
C615 O605 1.307 . S
C616 O608 1.303 . S
C616 O609 1.247 . S
C617 O606 1.253 . S
C617 O607 1.283 . S
C618 O610 1.304 . S
C618 O612 1.272 . S
C619 O611 1.311 . S
C619 O613 1.231 . S
O620 Zn602 1.953 . S
O620 C614 1.298 . S
O621 Zn622 1.953 1_556 S
O621 C637 1.225 . S
Zn622 O621 1.953 1_554 S
Zn622 O623 1.949 . S
Zn622 O629 1.919 . S
Zn622 O634 1.924 . S
O623 Zn622 1.949 . S
O623 Zn624 1.923 . S
O623 Zn625 1.950 . S
O623 Zn626 1.945 . S
Zn624 O623 1.923 . S
Zn624 O627 1.933 . S
Zn624 O630 1.941 . S
Zn624 O631 1.965 . S
Zn625 O623 1.950 . S
Zn625 O632 1.938 . S
Zn625 O633 1.906 . S
Zn625 O643 1.953 . S
Zn626 O623 1.945 . S
Zn626 O628 1.932 . S
Zn626 O635 1.977 . S
Zn626 O636 1.910 . S
O627 Zn624 1.933 . S
O627 C638 1.226 . S
O628 Zn626 1.932 . S
O628 C638 1.307 . S
O629 Zn622 1.919 . S
O629 C640 1.253 . S
O630 Zn624 1.941 . S
O630 C640 1.283 . S
O631 Zn624 1.965 . S
O631 C639 1.303 . S
O632 Zn625 1.938 . S
O632 C639 1.247 . S
O633 Zn625 1.906 . S
O633 C641 1.304 . S
O634 Zn622 1.924 . S
O634 C642 1.311 . S
O635 Zn626 1.977 . S
O635 C641 1.272 . S
O636 Zn626 1.910 . S
O636 C642 1.231 . S
C637 O621 1.225 . S
C637 O643 1.298 1_556 S
C638 O627 1.226 . S
C638 O628 1.307 . S
C639 O631 1.303 . S
C639 O632 1.247 . S
C640 O629 1.253 . S
C640 O630 1.283 . S
C641 O633 1.304 . S
C641 O635 1.272 . S
C642 O634 1.311 . S
C642 O636 1.231 . S
O643 Zn625 1.953 . S
O643 C637 1.298 1_554 S
O644 Zn645 1.953 1_556 S
O644 C660 1.225 . S
Zn645 O644 1.953 1_554 S
Zn645 O646 1.949 . S
Zn645 O652 1.919 . S
Zn645 O657 1.924 . S
O646 Zn645 1.949 . S
O646 Zn647 1.923 . S
O646 Zn648 1.950 . S
O646 Zn649 1.945 . S
Zn647 O646 1.923 . S
Zn647 O650 1.933 . S
Zn647 O653 1.941 . S
Zn647 O654 1.965 . S
Zn648 O646 1.950 . S
Zn648 O655 1.938 . S
Zn648 O656 1.906 . S
Zn648 O666 1.953 . S
Zn649 O646 1.945 . S
Zn649 O651 1.932 . S
Zn649 O658 1.977 . S
Zn649 O659 1.910 . S
O650 Zn647 1.933 . S
O650 C661 1.226 . S
O651 Zn649 1.932 . S
O651 C661 1.307 . S
O652 Zn645 1.919 . S
O652 C663 1.253 . S
O653 Zn647 1.941 . S
O653 C663 1.283 . S
O654 Zn647 1.965 . S
O654 C662 1.303 . S
O655 Zn648 1.938 . S
O655 C662 1.247 . S
O656 Zn648 1.906 . S
O656 C664 1.304 . S
O657 Zn645 1.924 . S
O657 C665 1.311 . S
O658 Zn649 1.977 . S
O658 C664 1.272 . S
O659 Zn649 1.910 . S
O659 C665 1.231 . S
C660 O644 1.225 . S
C660 O666 1.298 1_556 S
C661 O650 1.226 . S
C661 O651 1.307 . S
C662 O654 1.303 . S
C662 O655 1.247 . S
C663 O652 1.253 . S
C663 O653 1.283 . S
C664 O656 1.304 . S
C664 O658 1.272 . S
C665 O657 1.311 . S
C665 O659 1.231 . S
O666 Zn648 1.953 . S
O666 C660 1.298 1_554 S
O667 Zn668 1.953 1_556 S
O667 C683 1.225 . S
Zn668 O667 1.953 1_554 S
Zn668 O669 1.949 . S
Zn668 O675 1.919 . S
Zn668 O680 1.924 . S
O669 Zn668 1.949 . S
O669 Zn670 1.923 . S
O669 Zn671 1.950 . S
O669 Zn672 1.945 . S
Zn670 O669 1.923 . S
Zn670 O673 1.933 . S
Zn670 O676 1.941 . S
Zn670 O677 1.965 . S
Zn671 O669 1.950 . S
Zn671 O678 1.938 . S
Zn671 O679 1.906 . S
Zn671 O689 1.953 . S
Zn672 O669 1.945 . S
Zn672 O674 1.932 . S
Zn672 O681 1.977 . S
Zn672 O682 1.910 . S
O673 Zn670 1.933 . S
O673 C684 1.226 . S
O674 Zn672 1.932 . S
O674 C684 1.307 . S
O675 Zn668 1.919 . S
O675 C686 1.253 . S
O676 Zn670 1.941 . S
O676 C686 1.283 . S
O677 Zn670 1.965 . S
O677 C685 1.303 . S
O678 Zn671 1.938 . S
O678 C685 1.247 . S
O679 Zn671 1.906 . S
O679 C687 1.304 . S
O680 Zn668 1.924 . S
O680 C688 1.311 . S
O681 Zn672 1.977 . S
O681 C687 1.272 . S
O682 Zn672 1.910 . S
O682 C688 1.231 . S
C683 O667 1.225 . S
C683 O689 1.298 1_556 S
C684 O673 1.226 . S
C684 O674 1.307 . S
C685 O677 1.303 . S
C685 O678 1.247 . S
C686 O675 1.253 . S
C686 O676 1.283 . S
C687 O679 1.304 . S
C687 O681 1.272 . S
C688 O680 1.311 . S
C688 O682 1.231 . S
O689 Zn671 1.953 . S
O689 C683 1.298 1_554 S
O690 Zn691 1.953 . S
O690 C706 1.225 . S
Zn691 O690 1.953 . S
Zn691 O692 1.949 . S
Zn691 O698 1.919 . S
Zn691 O703 1.924 . S
O692 Zn691 1.949 . S
O692 Zn693 1.923 . S
O692 Zn694 1.950 . S
O692 Zn695 1.945 . S
Zn693 O692 1.923 . S
Zn693 O696 1.933 . S
Zn693 O699 1.941 . S
Zn693 O700 1.965 . S
Zn694 O692 1.950 . S
Zn694 O701 1.938 . S
Zn694 O702 1.906 . S
Zn694 O712 1.953 . S
Zn695 O692 1.945 . S
Zn695 O697 1.932 . S
Zn695 O704 1.977 . S
Zn695 O705 1.910 . S
O696 Zn693 1.933 . S
O696 C707 1.226 . S
O697 Zn695 1.932 . S
O697 C707 1.307 . S
O698 Zn691 1.919 . S
O698 C709 1.253 . S
O699 Zn693 1.941 . S
O699 C709 1.283 . S
O700 Zn693 1.965 . S
O700 C708 1.303 . S
O701 Zn694 1.938 . S
O701 C708 1.247 . S
O702 Zn694 1.906 . S
O702 C710 1.304 . S
O703 Zn691 1.924 . S
O703 C711 1.311 . S
O704 Zn695 1.977 . S
O704 C710 1.272 . S
O705 Zn695 1.910 . S
O705 C711 1.231 . S
C706 O690 1.225 . S
C706 O712 1.298 . S
C707 O696 1.226 . S
C707 O697 1.307 . S
C708 O700 1.303 . S
C708 O701 1.247 . S
C709 O698 1.253 . S
C709 O699 1.283 . S
C710 O702 1.304 . S
C710 O704 1.272 . S
C711 O703 1.311 . S
C711 O705 1.231 . S
O712 Zn694 1.953 . S
O712 C706 1.298 . S
O713 Zn714 1.953 . S
O713 C729 1.225 . S
Zn714 O713 1.953 . S
Zn714 O715 1.949 . S
Zn714 O721 1.919 . S
Zn714 O726 1.924 . S
O715 Zn714 1.949 . S
O715 Zn716 1.923 . S
O715 Zn717 1.950 . S
O715 Zn718 1.945 . S
Zn716 O715 1.923 . S
Zn716 O719 1.933 . S
Zn716 O722 1.941 . S
Zn716 O723 1.965 . S
Zn717 O715 1.950 . S
Zn717 O724 1.938 . S
Zn717 O725 1.906 . S
Zn717 O735 1.953 . S
Zn718 O715 1.945 . S
Zn718 O720 1.932 . S
Zn718 O727 1.977 . S
Zn718 O728 1.910 . S
O719 Zn716 1.933 . S
O719 C730 1.226 . S
O720 Zn718 1.932 . S
O720 C730 1.307 . S
O721 Zn714 1.919 . S
O721 C732 1.253 . S
O722 Zn716 1.941 . S
O722 C732 1.283 . S
O723 Zn716 1.965 . S
O723 C731 1.303 . S
O724 Zn717 1.938 . S
O724 C731 1.247 . S
O725 Zn717 1.906 . S
O725 C733 1.304 . S
O726 Zn714 1.924 . S
O726 C734 1.311 . S
O727 Zn718 1.977 . S
O727 C733 1.272 . S
O728 Zn718 1.910 . S
O728 C734 1.231 . S
C729 O713 1.225 . S
C729 O735 1.298 . S
C730 O719 1.226 . S
C730 O720 1.307 . S
C731 O723 1.303 . S
C731 O724 1.247 . S
C732 O721 1.253 . S
C732 O722 1.283 . S
C733 O725 1.304 . S
C733 O727 1.272 . S
C734 O726 1.311 . S
C734 O728 1.231 . S
O735 Zn717 1.953 . S
O735 C729 1.298 . S
O736 Zn737 1.953 . S
O736 C752 1.225 . S
Zn737 O736 1.953 . S
Zn737 O738 1.949 . S
Zn737 O744 1.919 . S
Zn737 O749 1.924 . S
O738 Zn737 1.949 . S
O738 Zn739 1.923 . S
O738 Zn740 1.950 . S
O738 Zn741 1.945 . S
Zn739 O738 1.923 . S
Zn739 O742 1.933 . S
Zn739 O745 1.941 . S
Zn739 O746 1.965 . S
Zn740 O738 1.950 . S
Zn740 O747 1.938 . S
Zn740 O748 1.906 . S
Zn740 O758 1.953 . S
Zn741 O738 1.945 . S
Zn741 O743 1.932 . S
Zn741 O750 1.977 . S
Zn741 O751 1.910 . S
O742 Zn739 1.933 . S
O742 C753 1.226 . S
O743 Zn741 1.932 . S
O743 C753 1.307 . S
O744 Zn737 1.919 . S
O744 C755 1.253 . S
O745 Zn739 1.941 . S
O745 C755 1.283 . S
O746 Zn739 1.965 . S
O746 C754 1.303 . S
O747 Zn740 1.938 . S
O747 C754 1.247 . S
O748 Zn740 1.906 . S
O748 C756 1.304 . S
O749 Zn737 1.924 . S
O749 C757 1.311 . S
O750 Zn741 1.977 . S
O750 C756 1.272 . S
O751 Zn741 1.910 . S
O751 C757 1.231 . S
C752 O736 1.225 . S
C752 O758 1.298 . S
C753 O742 1.226 . S
C753 O743 1.307 . S
C754 O746 1.303 . S
C754 O747 1.247 . S
C755 O744 1.253 . S
C755 O745 1.283 . S
C756 O748 1.304 . S
C756 O750 1.272 . S
C757 O749 1.311 . S
C757 O751 1.231 . S
O758 Zn740 1.953 . S
O758 C752 1.298 . S
O759 Zn760 1.953 . S
O759 C775 1.225 . S
Zn760 O759 1.953 . S
Zn760 O761 1.949 . S
Zn760 O767 1.919 . S
Zn760 O772 1.924 . S
O761 Zn760 1.949 . S
O761 Zn762 1.923 . S
O761 Zn763 1.950 . S
O761 Zn764 1.945 . S
Zn762 O761 1.923 . S
Zn762 O765 1.933 . S
Zn762 O768 1.941 . S
Zn762 O769 1.965 . S
Zn763 O761 1.950 . S
Zn763 O770 1.938 . S
Zn763 O771 1.906 . S
Zn763 O781 1.953 . S
Zn764 O761 1.945 . S
Zn764 O766 1.932 . S
Zn764 O773 1.977 . S
Zn764 O774 1.910 . S
O765 Zn762 1.933 . S
O765 C776 1.226 . S
O766 Zn764 1.932 . S
O766 C776 1.307 . S
O767 Zn760 1.919 . S
O767 C778 1.253 . S
O768 Zn762 1.941 . S
O768 C778 1.283 . S
O769 Zn762 1.965 . S
O769 C777 1.303 . S
O770 Zn763 1.938 . S
O770 C777 1.247 . S
O771 Zn763 1.906 . S
O771 C779 1.304 . S
O772 Zn760 1.924 . S
O772 C780 1.311 . S
O773 Zn764 1.977 . S
O773 C779 1.272 . S
O774 Zn764 1.910 . S
O774 C780 1.231 . S
C775 O759 1.225 . S
C775 O781 1.298 . S
C776 O765 1.226 . S
C776 O766 1.307 . S
C777 O769 1.303 . S
C777 O770 1.247 . S
C778 O767 1.253 . S
C778 O768 1.283 . S
C779 O771 1.304 . S
C779 O773 1.272 . S
C780 O772 1.311 . S
C780 O774 1.231 . S
O781 Zn763 1.953 . S
O781 C775 1.298 . S
O782 Zn783 1.953 . S
O782 C798 1.225 . S
Zn783 O782 1.953 . S
Zn783 O784 1.949 . S
Zn783 O790 1.919 . S
Zn783 O795 1.924 . S
O784 Zn783 1.949 . S
O784 Zn785 1.923 . S
O784 Zn786 1.950 . S
O784 Zn787 1.945 . S
Zn785 O784 1.923 . S
Zn785 O788 1.933 . S
Zn785 O791 1.941 . S
Zn785 O792 1.965 . S
Zn786 O784 1.950 . S
Zn786 O793 1.938 . S
Zn786 O794 1.906 . S
Zn786 O804 1.953 . S
Zn787 O784 1.945 . S
Zn787 O789 1.932 . S
Zn787 O796 1.977 . S
Zn787 O797 1.910 . S
O788 Zn785 1.933 . S
O788 C799 1.226 . S
O789 Zn787 1.932 . S
O789 C799 1.307 . S
O790 Zn783 1.919 . S
O790 C801 1.253 . S
O791 Zn785 1.941 . S
O791 C801 1.283 . S
O792 Zn785 1.965 . S
O792 C800 1.303 . S
O793 Zn786 1.938 . S
O793 C800 1.247 . S
O794 Zn786 1.906 . S
O794 C802 1.304 . S
O795 Zn783 1.924 . S
O795 C803 1.311 . S
O796 Zn787 1.977 . S
O796 C802 1.272 . S
O797 Zn787 1.910 . S
O797 C803 1.231 . S
C798 O782 1.225 . S
C798 O804 1.298 . S
C799 O788 1.226 . S
C799 O789 1.307 . S
C800 O792 1.303 . S
C800 O793 1.247 . S
C801 O790 1.253 . S
C801 O791 1.283 . S
C802 O794 1.304 . S
C802 O796 1.272 . S
C803 O795 1.311 . S
C803 O797 1.231 . S
O804 Zn786 1.953 . S
O804 C798 1.298 . S
O805 Zn806 1.953 . S
O805 C821 1.225 . S
Zn806 O805 1.953 . S
Zn806 O807 1.949 . S
Zn806 O813 1.919 . S
Zn806 O818 1.924 . S
O807 Zn806 1.949 . S
O807 Zn808 1.923 . S
O807 Zn809 1.950 . S
O807 Zn810 1.945 . S
Zn808 O807 1.923 . S
Zn808 O811 1.933 . S
Zn808 O814 1.941 . S
Zn808 O815 1.965 . S
Zn809 O807 1.950 . S
Zn809 O816 1.938 . S
Zn809 O817 1.906 . S
Zn809 O827 1.953 . S
Zn810 O807 1.945 . S
Zn810 O812 1.932 . S
Zn810 O819 1.977 . S
Zn810 O820 1.910 . S
O811 Zn808 1.933 . S
O811 C822 1.226 . S
O812 Zn810 1.932 . S
O812 C822 1.307 . S
O813 Zn806 1.919 . S
O813 C824 1.253 . S
O814 Zn808 1.941 . S
O814 C824 1.283 . S
O815 Zn808 1.965 . S
O815 C823 1.303 . S
O816 Zn809 1.938 . S
O816 C823 1.247 . S
O817 Zn809 1.906 . S
O817 C825 1.304 . S
O818 Zn806 1.924 . S
O818 C826 1.311 . S
O819 Zn810 1.977 . S
O819 C825 1.272 . S
O820 Zn810 1.910 . S
O820 C826 1.231 . S
C821 O805 1.225 . S
C821 O827 1.298 . S
C822 O811 1.226 . S
C822 O812 1.307 . S
C823 O815 1.303 . S
C823 O816 1.247 . S
C824 O813 1.253 . S
C824 O814 1.283 . S
C825 O817 1.304 . S
C825 O819 1.272 . S
C826 O818 1.311 . S
C826 O820 1.231 . S
O827 Zn809 1.953 . S
O827 C821 1.298 . S
C828 C829 1.387 . S
C828 H832 0.950 . S
C828 C837 1.411 . S
C829 C828 1.387 . S
C829 C831 1.387 1_554 S
H830 C837 0.964 . S
C831 C829 1.387 1_556 S
C831 C833 1.390 . S
C831 H835 0.950 . S
H832 C828 0.950 . S
C833 C831 1.390 . S
C833 C834 1.387 . S
C833 H836 0.950 . S
C834 C833 1.387 . S
C834 C837 1.353 1_556 S
H835 C831 0.950 . S
H836 C833 0.950 . S
C837 C828 1.411 . S
C837 H830 0.964 . S
C837 C834 1.353 1_554 S
C838 C839 1.385 1_556 S
C838 H842 0.946 1_556 S
C838 C847 1.396 . S
C839 C838 1.385 1_554 S
C839 C841 1.387 1_554 S
H840 C847 0.950 . S
C841 C839 1.387 1_556 S
C841 C843 1.390 . S
C841 H845 0.950 . S
H842 C838 0.946 1_554 S
C843 C841 1.390 . S
C843 C844 1.387 . S
C843 H846 0.950 1_565 S
C844 C843 1.387 . S
C844 C847 1.387 . S
H845 C841 0.950 . S
H846 C843 0.950 1_545 S
C847 C838 1.396 . S
C847 H840 0.950 . S
C847 C844 1.387 . S
C848 C849 1.387 1_556 S
C848 H852 0.950 . S
C848 C857 1.390 . S
C849 C848 1.387 1_554 S
C849 C851 1.387 . S
H850 C857 0.950 1_655 S
C851 C849 1.387 . S
C851 C853 1.390 1_554 S
C851 H855 0.950 . S
H852 C848 0.950 . S
C853 C851 1.390 1_556 S
C853 C854 1.387 . S
C853 H856 0.950 . S
C854 C853 1.387 . S
C854 C857 1.387 . S
H855 C851 0.950 . S
H856 C853 0.950 . S
C857 C848 1.390 . S
C857 H850 0.950 1_455 S
C857 C854 1.387 . S
C858 C859 1.387 . S
C858 H862 0.950 . S
C858 C867 1.390 . S
C859 C858 1.387 . S
C859 C861 1.387 . S
H860 C867 0.950 . S
C861 C859 1.387 . S
C861 C863 1.390 . S
C861 H865 0.950 . S
H862 C858 0.950 . S
C863 C861 1.390 . S
C863 C864 1.387 . S
C863 H866 0.950 . S
C864 C863 1.387 . S
C864 C867 1.387 . S
H865 C861 0.950 . S
H866 C863 0.950 . S
C867 C858 1.390 . S
C867 H860 0.950 . S
C867 C864 1.387 . S
C868 C869 1.387 . S
C868 H872 0.950 . S
C868 C877 1.390 . S
C869 C868 1.387 . S
C869 C871 1.387 . S
H870 C877 0.950 . S
C871 C869 1.387 . S
C871 C873 1.390 . S
C871 H875 0.950 1_545 S
H872 C868 0.950 . S
C873 C871 1.390 . S
C873 C874 1.387 . S
C873 H876 0.950 . S
C874 C873 1.387 . S
C874 C877 1.387 . S
H875 C871 0.950 1_565 S
H876 C873 0.950 . S
C877 C868 1.390 . S
C877 H870 0.950 . S
C877 C874 1.387 . S
C878 C879 1.387 . S
C878 H882 0.950 . S
C878 C887 1.390 . S
C879 C878 1.387 . S
C879 C881 1.387 . S
H880 C887 0.950 . S
C881 C879 1.387 . S
C881 C883 1.390 . S
C881 H885 0.950 . S
H882 C878 0.950 . S
C883 C881 1.390 . S
C883 C884 1.387 . S
C883 H886 0.950 . S
C884 C883 1.387 . S
C884 C887 1.387 . S
H885 C881 0.950 . S
H886 C883 0.950 . S
C887 C878 1.390 . S
C887 H880 0.950 . S
C887 C884 1.387 . S
C888 C889 1.387 . S
C888 H892 0.950 . S
C888 C897 1.390 . S
C889 C888 1.387 . S
C889 C891 1.387 . S
H890 C897 0.950 . S
C891 C889 1.387 . S
C891 C893 1.390 1_554 S
C891 H895 0.950 . S
H892 C888 0.950 . S
C893 C891 1.390 1_556 S
C893 C894 1.387 . S
C893 H896 0.950 . S
C894 C893 1.387 . S
C894 C897 1.387 1_556 S
H895 C891 0.950 . S
H896 C893 0.950 . S
C897 C888 1.390 . S
C897 H890 0.950 . S
C897 C894 1.387 1_554 S
C898 C899 1.387 1_554 S
C898 H902 0.950 . S
C898 C907 1.390 . S
C899 C898 1.387 1_556 S
C899 C901 1.387 . S
H900 C907 0.950 . S
C901 C899 1.387 . S
C901 C903 1.406 . S
C901 H905 0.950 . S
H902 C898 0.950 . S
C903 C901 1.406 . S
C903 C904 1.361 1_556 S
C903 H906 0.960 . S
C904 C903 1.361 1_554 S
C904 C907 1.387 . S
H905 C901 0.950 . S
H906 C903 0.960 . S
C907 C898 1.390 . S
C907 H900 0.950 . S
C907 C904 1.387 . S
C908 C909 1.387 . S
C908 H912 0.950 . S
C908 C917 1.390 1_556 S
C909 C908 1.387 . S
C909 C911 1.387 1_556 S
H910 C917 0.950 . S
C911 C909 1.387 1_554 S
C911 C913 1.390 . S
C911 H915 0.950 . S
H912 C908 0.950 . S
C913 C911 1.390 . S
C913 C914 1.387 . S
C913 H916 0.950 1_655 S
C914 C913 1.387 . S
C914 C917 1.387 . S
H915 C911 0.950 . S
H916 C913 0.950 1_455 S
C917 C908 1.390 1_554 S
C917 H910 0.950 . S
C917 C914 1.387 . S
C918 C919 1.387 . S
C918 H922 0.950 . S
C918 C927 1.390 . S
C919 C918 1.387 . S
C919 C921 1.387 . S
H920 C927 0.950 . S
C921 C919 1.387 . S
C921 C923 1.390 . S
C921 H925 0.950 . S
H922 C918 0.950 . S
C923 C921 1.390 . S
C923 C924 1.387 . S
C923 H926 0.950 . S
C924 C923 1.387 . S
C924 C927 1.387 . S
H925 C921 0.950 . S
H926 C923 0.950 . S
C927 C918 1.390 . S
C927 H920 0.950 . S
C927 C924 1.387 . S
C928 C929 1.387 . S
C928 H932 0.950 . S
C928 C937 1.390 . S
C929 C928 1.387 . S
C929 C931 1.387 . S
H930 C937 0.962 . S
C931 C929 1.387 . S
C931 C933 1.390 . S
C931 H935 0.950 . S
H932 C928 0.950 . S
C933 C931 1.390 . S
C933 C934 1.387 . S
C933 H936 0.950 . S
C934 C933 1.387 . S
C934 C937 1.387 . S
H935 C931 0.950 . S
H936 C933 0.950 . S
C937 C928 1.390 . S
C937 H930 0.962 . S
C937 C934 1.387 . S
C938 C939 1.387 . S
C938 H942 0.950 . S
C938 C947 1.390 . S
C939 C938 1.387 . S
C939 C941 1.387 . S
H940 C947 0.950 . S
C941 C939 1.387 . S
C941 C943 1.390 . S
C941 H945 0.950 . S
H942 C938 0.950 . S
C943 C941 1.390 . S
C943 C944 1.387 . S
C943 H946 0.950 . S
C944 C943 1.387 . S
C944 C947 1.387 . S
H945 C941 0.950 . S
H946 C943 0.950 . S
C947 C938 1.390 . S
C947 H940 0.950 . S
C947 C944 1.387 . S
C948 C949 1.387 . S
C948 H952 0.950 . S
C948 C957 1.390 . S
C949 C948 1.387 . S
C949 C951 1.387 . S
H950 C957 0.950 . S
C951 C949 1.387 . S
C951 C953 1.390 . S
C951 H955 0.950 . S
H952 C948 0.950 . S
C953 C951 1.390 . S
C953 C954 1.387 . S
C953 H956 0.950 . S
C954 C953 1.387 . S
C954 C957 1.387 . S
H955 C951 0.950 . S
H956 C953 0.950 . S
C957 C948 1.390 . S
C957 H950 0.950 . S
C957 C954 1.387 . S
C958 C959 1.387 . S
C958 H962 0.950 . S
C958 C967 1.390 . S
C959 C958 1.387 . S
C959 C961 1.387 . S
H960 C967 0.950 . S
C961 C959 1.387 . S
C961 C963 1.390 . S
C961 H965 0.950 . S
H962 C958 0.950 . S
C963 C961 1.390 . S
C963 C964 1.387 . S
C963 H966 0.950 . S
C964 C963 1.387 . S
C964 C967 1.387 . S
H965 C961 0.950 . S
H966 C963 0.950 . S
C967 C958 1.390 . S
C967 H960 0.950 . S
C967 C964 1.387 . S
C968 C969 1.387 . S
C968 H972 0.950 . S
C968 C977 1.390 . S
C969 C968 1.387 . S
C969 C971 1.387 . S
H970 C977 0.950 . S
C971 C969 1.387 . S
C971 C973 1.390 . S
C971 H975 0.950 . S
H972 C968 0.950 . S
C973 C971 1.390 . S
C973 C974 1.387 . S
C973 H976 0.950 . S
C974 C973 1.387 . S
C974 C977 1.387 . S
H975 C971 0.950 . S
H976 C973 0.950 . S
C977 C968 1.390 . S
C977 H970 0.950 . S
C977 C974 1.387 . S
C978 C979 1.387 . S
C978 H982 0.950 . S
C978 C987 1.390 . S
C979 C978 1.387 . S
C979 C981 1.387 . S
H980 C987 0.950 . S
C981 C979 1.387 . S
C981 C983 1.390 . S
C981 H985 0.950 . S
H982 C978 0.950 . S
C983 C981 1.390 . S
C983 C984 1.387 . S
C983 H986 0.950 . S
C984 C983 1.387 . S
C984 C987 1.387 . S
H985 C981 0.950 . S
H986 C983 0.950 . S
C987 C978 1.390 . S
C987 H980 0.950 . S
C987 C984 1.387 . S
C988 C989 1.387 . S
C988 H992 0.950 . S
C988 C997 1.390 . S
C989 C988 1.387 . S
C989 C991 1.387 . S
H990 C997 0.950 . S
C991 C989 1.387 . S
C991 C993 1.390 . S
C991 H995 0.950 . S
H992 C988 0.950 . S
C993 C991 1.390 . S
C993 C994 1.387 . S
C993 H996 0.950 . S
C994 C993 1.387 . S
C994 C997 1.387 . S
H995 C991 0.950 . S
H996 C993 0.950 . S
C997 C988 1.390 . S
C997 H990 0.950 . S
C997 C994 1.387 . S
C998 C999 1.387 . S
C998 H1002 0.950 . S
C998 C1007 1.390 . S
C999 C998 1.387 . S
C999 C1001 1.387 . S
H1000 C1007 0.950 . S
C1001 C999 1.387 . S
C1001 C1003 1.390 . S
C1001 H1005 0.950 . S
H1002 C998 0.950 . S
C1003 C1001 1.390 . S
C1003 C1004 1.387 . S
C1003 H1006 0.950 . S
C1004 C1003 1.387 . S
C1004 C1007 1.387 . S
H1005 C1001 0.950 . S
H1006 C1003 0.950 . S
C1007 C998 1.390 . S
C1007 H1000 0.950 . S
C1007 C1004 1.387 . S
C1008 C1009 1.387 . S
C1008 H1012 0.950 . S
C1008 C1017 1.390 . S
C1009 C1008 1.387 . S
C1009 C1011 1.387 . S
H1010 C1017 0.950 . S
C1011 C1009 1.387 . S
C1011 C1013 1.390 . S
C1011 H1015 0.950 . S
H1012 C1008 0.950 . S
C1013 C1011 1.390 . S
C1013 C1014 1.387 . S
C1013 H1016 0.950 . S
C1014 C1013 1.387 . S
C1014 C1017 1.387 . S
H1015 C1011 0.950 . S
H1016 C1013 0.950 . S
C1017 C1008 1.390 . S
C1017 H1010 0.950 . S
C1017 C1014 1.387 . S
C1018 C1019 1.387 . S
C1018 H1022 0.950 . S
C1018 C1027 1.390 . S
C1019 C1018 1.387 . S
C1019 C1021 1.387 . S
H1020 C1027 0.950 . S
C1021 C1019 1.387 . S
C1021 C1023 1.390 . S
C1021 H1025 0.950 . S
H1022 C1018 0.950 . S
C1023 C1021 1.390 . S
C1023 C1024 1.387 . S
C1023 H1026 0.950 . S
C1024 C1023 1.387 . S
C1024 C1027 1.387 . S
H1025 C1021 0.950 . S
H1026 C1023 0.950 . S
C1027 C1018 1.390 . S
C1027 H1020 0.950 . S
C1027 C1024 1.387 . S
C1028 C1029 1.387 . S
C1028 H1032 0.950 . S
C1028 C1037 1.390 . S
C1029 C1028 1.387 . S
C1029 C1031 1.387 . S
H1030 C1037 0.950 . S
C1031 C1029 1.387 . S
C1031 C1033 1.390 . S
C1031 H1035 0.950 . S
H1032 C1028 0.950 . S
C1033 C1031 1.390 . S
C1033 C1034 1.387 . S
C1033 H1036 0.950 . S
C1034 C1033 1.387 . S
C1034 C1037 1.387 . S
H1035 C1031 0.950 . S
H1036 C1033 0.950 . S
C1037 C1028 1.390 . S
C1037 H1030 0.950 . S
C1037 C1034 1.387 . S
C1038 C1039 1.387 . S
C1038 H1042 0.950 . S
C1038 C1047 1.390 . S
C1039 C1038 1.387 . S
C1039 C1041 1.387 . S
H1040 C1047 0.950 . S
C1041 C1039 1.387 . S
C1041 C1043 1.390 . S
C1041 H1045 0.950 . S
H1042 C1038 0.950 . S
C1043 C1041 1.390 . S
C1043 C1044 1.387 . S
C1043 H1046 0.950 . S
C1044 C1043 1.387 . S
C1044 C1047 1.387 . S
H1045 C1041 0.950 . S
H1046 C1043 0.950 . S
C1047 C1038 1.390 . S
C1047 H1040 0.950 . S
C1047 C1044 1.387 . S
C1048 C1049 1.387 . S
C1048 H1052 0.950 . S
C1048 C1057 1.390 . S
C1049 C1048 1.387 . S
C1049 C1051 1.387 . S
H1050 C1057 0.950 . S
C1051 C1049 1.387 . S
C1051 C1053 1.390 . S
C1051 H1055 0.950 . S
H1052 C1048 0.950 . S
C1053 C1051 1.390 . S
C1053 C1054 1.387 . S
C1053 H1056 0.950 . S
C1054 C1053 1.387 . S
C1054 C1057 1.387 . S
H1055 C1051 0.950 . S
H1056 C1053 0.950 . S
C1057 C1048 1.390 . S
C1057 H1050 0.950 . S
C1057 C1054 1.387 . S
C1058 C1059 1.387 . S
C1058 H1062 0.950 . S
C1058 C1067 1.390 . S
C1059 C1058 1.387 . S
C1059 C1061 1.387 . S
H1060 C1067 0.950 . S
C1061 C1059 1.387 . S
C1061 C1063 1.390 . S
C1061 H1065 0.950 . S
H1062 C1058 0.950 . S
C1063 C1061 1.390 . S
C1063 C1064 1.387 . S
C1063 H1066 0.950 . S
C1064 C1063 1.387 . S
C1064 C1067 1.387 . S
H1065 C1061 0.950 . S
H1066 C1063 0.950 . S
C1067 C1058 1.390 . S
C1067 H1060 0.950 . S
C1067 C1064 1.387 . S
C1068 C1069 1.387 . S
C1068 H1072 0.950 . S
C1068 C1077 1.390 . S
C1069 C1068 1.387 . S
C1069 C1071 1.387 . S
H1070 C1077 0.950 . S
C1071 C1069 1.387 . S
C1071 C1073 1.390 . S
C1071 H1075 0.950 . S
H1072 C1068 0.950 . S
C1073 C1071 1.390 . S
C1073 C1074 1.387 . S
C1073 H1076 0.950 . S
C1074 C1073 1.387 . S
C1074 C1077 1.387 . S
H1075 C1071 0.950 . S
H1076 C1073 0.950 . S
C1077 C1068 1.390 . S
C1077 H1070 0.950 . S
C1077 C1074 1.387 . S
C1078 C1079 1.387 . S
C1078 H1082 0.950 . S
C1078 C1087 1.390 . S
C1079 C1078 1.387 . S
C1079 C1081 1.387 . S
H1080 C1087 0.950 . S
C1081 C1079 1.387 . S
C1081 C1083 1.390 . S
C1081 H1085 0.950 . S
H1082 C1078 0.950 . S
C1083 C1081 1.390 . S
C1083 C1084 1.387 . S
C1083 H1086 0.950 . S
C1084 C1083 1.387 . S
C1084 C1087 1.387 . S
H1085 C1081 0.950 . S
H1086 C1083 0.950 . S
C1087 C1078 1.390 . S
C1087 H1080 0.950 . S
C1087 C1084 1.387 . S
C1088 C1089 1.387 . S
C1088 H1092 0.950 . S
C1088 C1097 1.390 . S
C1089 C1088 1.387 . S
C1089 C1091 1.387 . S
H1090 C1097 0.950 . S
C1091 C1089 1.387 . S
C1091 C1093 1.390 . S
C1091 H1095 0.950 . S
H1092 C1088 0.950 . S
C1093 C1091 1.390 . S
C1093 C1094 1.387 . S
C1093 H1096 0.950 . S
C1094 C1093 1.387 . S
C1094 C1097 1.387 . S
H1095 C1091 0.950 . S
H1096 C1093 0.950 . S
C1097 C1088 1.390 . S
C1097 H1090 0.950 . S
C1097 C1094 1.387 . S
C1098 C1099 1.387 . S
C1098 H1102 0.950 . S
C1098 C1107 1.390 . S
C1099 C1098 1.387 . S
C1099 C1101 1.387 . S
H1100 C1107 0.950 . S
C1101 C1099 1.387 . S
C1101 C1103 1.390 . S
C1101 H1105 0.950 . S
H1102 C1098 0.950 . S
C1103 C1101 1.390 . S
C1103 C1104 1.387 . S
C1103 H1106 0.950 . S
C1104 C1103 1.387 . S
C1104 C1107 1.387 . S
H1105 C1101 0.950 . S
H1106 C1103 0.950 . S
C1107 C1098 1.390 . S
C1107 H1100 0.950 . S
C1107 C1104 1.387 . S
C1108 C1109 1.387 . S
C1108 H1112 0.950 . S
C1108 C1117 1.390 . S
C1109 C1108 1.387 . S
C1109 C1111 1.387 . S
H1110 C1117 0.950 . S
C1111 C1109 1.387 . S
C1111 C1113 1.390 . S
C1111 H1115 0.950 . S
H1112 C1108 0.950 . S
C1113 C1111 1.390 . S
C1113 C1114 1.387 . S
C1113 H1116 0.950 . S
C1114 C1113 1.387 . S
C1114 C1117 1.387 . S
H1115 C1111 0.950 . S
H1116 C1113 0.950 . S
C1117 C1108 1.390 . S
C1117 H1110 0.950 . S
C1117 C1114 1.387 . S
C1118 C1119 1.387 . S
C1118 H1122 0.950 . S
C1118 C1127 1.390 . S
C1119 C1118 1.387 . S
C1119 C1121 1.387 . S
H1120 C1127 0.950 . S
C1121 C1119 1.387 . S
C1121 C1123 1.390 . S
C1121 H1125 0.950 . S
H1122 C1118 0.950 . S
C1123 C1121 1.390 . S
C1123 C1124 1.387 . S
C1123 H1126 0.950 . S
C1124 C1123 1.387 . S
C1124 C1127 1.387 . S
H1125 C1121 0.950 . S
H1126 C1123 0.950 . S
C1127 C1118 1.390 . S
C1127 H1120 0.950 . S
C1127 C1124 1.387 . S
C1128 C1129 1.387 . S
C1128 H1132 0.950 . S
C1128 C1137 1.390 . S
C1129 C1128 1.387 . S
C1129 C1131 1.387 . S
H1130 C1137 0.950 . S
C1131 C1129 1.387 . S
C1131 C1133 1.390 . S
C1131 H1135 0.950 . S
H1132 C1128 0.950 . S
C1133 C1131 1.390 . S
C1133 C1134 1.387 . S
C1133 H1136 0.950 . S
C1134 C1133 1.387 . S
C1134 C1137 1.387 . S
H1135 C1131 0.950 . S
H1136 C1133 0.950 . S
C1137 C1128 1.390 . S
C1137 H1130 0.950 . S
C1137 C1134 1.387 . S
C1138 C1139 1.387 . S
C1138 H1142 0.950 . S
C1138 C1147 1.390 . S
C1139 C1138 1.387 . S
C1139 C1141 1.387 . S
H1140 C1147 0.950 . S
C1141 C1139 1.387 . S
C1141 C1143 1.390 . S
C1141 H1145 0.950 . S
H1142 C1138 0.950 . S
C1143 C1141 1.390 . S
C1143 C1144 1.387 . S
C1143 H1146 0.950 . S
C1144 C1143 1.387 . S
C1144 C1147 1.387 . S
H1145 C1141 0.950 . S
H1146 C1143 0.950 . S
C1147 C1138 1.390 . S
C1147 H1140 0.950 . S
C1147 C1144 1.387 . S
C1148 C1149 1.387 . S
C1148 H1152 0.950 . S
C1148 C1157 1.390 . S
C1149 C1148 1.387 . S
C1149 C1151 1.387 . S
H1150 C1157 0.950 . S
C1151 C1149 1.387 . S
C1151 C1153 1.390 . S
C1151 H1155 0.950 . S
H1152 C1148 0.950 . S
C1153 C1151 1.390 . S
C1153 C1154 1.387 . S
C1153 H1156 0.950 . S
C1154 C1153 1.387 . S
C1154 C1157 1.387 . S
H1155 C1151 0.950 . S
H1156 C1153 0.950 . S
C1157 C1148 1.390 . S
C1157 H1150 0.950 . S
C1157 C1154 1.387 . S
C1158 C1159 1.387 . S
C1158 H1162 0.950 . S
C1158 C1167 1.390 . S
C1159 C1158 1.387 . S
C1159 C1161 1.387 . S
H1160 C1167 0.950 . S
C1161 C1159 1.387 . S
C1161 C1163 1.390 . S
C1161 H1165 0.950 . S
H1162 C1158 0.950 . S
C1163 C1161 1.390 . S
C1163 C1164 1.387 . S
C1163 H1166 0.950 . S
C1164 C1163 1.387 . S
C1164 C1167 1.387 . S
H1165 C1161 0.950 . S
H1166 C1163 0.950 . S
C1167 C1158 1.390 . S
C1167 H1160 0.950 . S
C1167 C1164 1.387 . S
C1168 C1169 1.387 . S
C1168 H1172 0.950 . S
C1168 C1177 1.390 . S
C1169 C1168 1.387 . S
C1169 C1171 1.387 . S
H1170 C1177 0.950 . S
C1171 C1169 1.387 . S
C1171 C1173 1.390 . S
C1171 H1175 0.950 . S
H1172 C1168 0.950 . S
C1173 C1171 1.390 . S
C1173 C1174 1.387 . S
C1173 H1176 0.950 . S
C1174 C1173 1.387 . S
C1174 C1177 1.387 . S
H1175 C1171 0.950 . S
H1176 C1173 0.950 . S
C1177 C1168 1.390 . S
C1177 H1170 0.950 . S
C1177 C1174 1.387 . S
C1178 C1179 1.387 . S
C1178 H1182 0.950 . S
C1178 C1187 1.390 . S
C1179 C1178 1.387 . S
C1179 C1181 1.387 . S
H1180 C1187 0.950 . S
C1181 C1179 1.387 . S
C1181 C1183 1.390 . S
C1181 H1185 0.950 . S
H1182 C1178 0.950 . S
C1183 C1181 1.390 . S
C1183 C1184 1.387 . S
C1183 H1186 0.950 . S
C1184 C1183 1.387 . S
C1184 C1187 1.387 . S
H1185 C1181 0.950 . S
H1186 C1183 0.950 . S
C1187 C1178 1.390 . S
C1187 H1180 0.950 . S
C1187 C1184 1.387 . S
C1188 C1189 1.387 . S
C1188 H1192 0.950 . S
C1188 C1197 1.390 . S
C1189 C1188 1.387 . S
C1189 C1191 1.387 . S
H1190 C1197 0.950 . S
C1191 C1189 1.387 . S
C1191 C1193 1.390 . S
C1191 H1195 0.950 . S
H1192 C1188 0.950 . S
C1193 C1191 1.390 . S
C1193 C1194 1.387 . S
C1193 H1196 0.950 . S
C1194 C1193 1.387 . S
C1194 C1197 1.387 . S
H1195 C1191 0.950 . S
H1196 C1193 0.950 . S
C1197 C1188 1.390 . S
C1197 H1190 0.950 . S
C1197 C1194 1.387 . S
C1198 C1199 1.387 . S
C1198 H1202 0.950 . S
C1198 C1207 1.390 1_565 S
C1199 C1198 1.387 . S
C1199 C1201 1.387 1_565 S
H1200 C1207 0.950 . S
C1201 C1199 1.387 1_545 S
C1201 C1203 1.390 . S
C1201 H1205 0.950 . S
H1202 C1198 0.950 . S
C1203 C1201 1.390 . S
C1203 C1204 1.387 . S
C1203 H1206 0.950 . S
C1204 C1203 1.387 . S
C1204 C1207 1.387 . S
H1205 C1201 0.950 . S
H1206 C1203 0.950 . S
C1207 C1198 1.390 1_545 S
C1207 H1200 0.950 . S
C1207 C1204 1.387 . S
C1208 C1209 1.387 . S
C1208 H1212 0.950 . S
C1208 C1217 1.385 1_655 S
C1209 C1208 1.387 . S
C1209 C1211 1.387 . S
H1210 C1217 0.953 . S
C1211 C1209 1.387 . S
C1211 C1213 1.390 . S
C1211 H1215 0.950 . S
H1212 C1208 0.950 . S
C1213 C1211 1.390 . S
C1213 C1214 1.387 1_655 S
C1213 H1216 0.950 1_655 S
C1214 C1213 1.387 1_455 S
C1214 C1217 1.390 . S
H1215 C1211 0.950 . S
H1216 C1213 0.950 1_455 S
C1217 C1208 1.385 1_455 S
C1217 H1210 0.953 . S
C1217 C1214 1.390 . S
C1218 C1219 1.387 . S
C1218 H1222 0.950 . S
C1218 C1227 1.390 . S
C1219 C1218 1.387 . S
C1219 C1221 1.387 . S
H1220 C1227 0.950 . S
C1221 C1219 1.387 . S
C1221 C1223 1.390 . S
C1221 H1225 0.950 . S
H1222 C1218 0.950 . S
C1223 C1221 1.390 . S
C1223 C1224 1.387 . S
C1223 H1226 0.950 . S
C1224 C1223 1.387 . S
C1224 C1227 1.387 . S
H1225 C1221 0.950 . S
H1226 C1223 0.950 . S
C1227 C1218 1.390 . S
C1227 H1220 0.950 . S
C1227 C1224 1.387 . S
C1228 C1229 1.387 1_565 S
C1228 H1232 0.950 1_565 S
C1228 C1237 1.390 . S
C1229 C1228 1.387 1_545 S
C1229 C1231 1.394 . S
H1230 C1237 0.950 . S
C1231 C1229 1.394 . S
C1231 C1233 1.374 1_545 S
C1231 H1235 0.959 . S
H1232 C1228 0.950 1_545 S
C1233 C1231 1.374 1_565 S
C1233 C1234 1.387 . S
C1233 H1236 0.950 . S
C1234 C1233 1.387 . S
C1234 C1237 1.387 . S
H1235 C1231 0.959 . S
H1236 C1233 0.950 . S
C1237 C1228 1.390 . S
C1237 H1230 0.950 . S
C1237 C1234 1.387 . S
C1238 C1239 1.387 . S
C1238 H1242 0.950 . S
C1238 C1247 1.390 . S
C1239 C1238 1.387 . S
C1239 C1241 1.387 . S
H1240 C1247 0.950 . S
C1241 C1239 1.387 . S
C1241 C1243 1.390 1_455 S
C1241 H1245 0.950 . S
H1242 C1238 0.950 . S
C1243 C1241 1.390 1_655 S
C1243 C1244 1.387 . S
C1243 H1246 0.950 . S
C1244 C1243 1.387 . S
C1244 C1247 1.387 1_655 S
H1245 C1241 0.950 . S
H1246 C1243 0.950 . S
C1247 C1238 1.390 . S
C1247 H1240 0.950 . S
C1247 C1244 1.387 1_455 S
C1248 C1249 1.387 . S
C1248 H1252 0.950 . S
C1248 C1257 1.390 . S
C1249 C1248 1.387 . S
C1249 C1251 1.387 . S
H1250 C1257 0.950 . S
C1251 C1249 1.387 . S
C1251 C1253 1.390 . S
C1251 H1255 0.950 . S
H1252 C1248 0.950 . S
C1253 C1251 1.390 . S
C1253 C1254 1.387 . S
C1253 H1256 0.950 . S
C1254 C1253 1.387 . S
C1254 C1257 1.387 . S
H1255 C1251 0.950 . S
H1256 C1253 0.950 . S
C1257 C1248 1.390 . S
C1257 H1250 0.950 . S
C1257 C1254 1.387 . S
C1258 C1259 1.387 . S
C1258 H1262 0.950 . S
C1258 C1267 1.390 1_545 S
C1259 C1258 1.387 . S
C1259 C1261 1.387 1_545 S
H1260 C1267 0.950 . S
C1261 C1259 1.387 1_565 S
C1261 C1263 1.390 . S
C1261 H1265 0.951 . S
H1262 C1258 0.950 . S
C1263 C1261 1.390 . S
C1263 C1264 1.387 . S
C1263 H1266 0.950 . S
C1264 C1263 1.387 . S
C1264 C1267 1.387 . S
H1265 C1261 0.951 . S
H1266 C1263 0.950 . S
C1267 C1258 1.390 1_565 S
C1267 H1260 0.950 . S
C1267 C1264 1.387 . S
C1268 C1269 1.387 1_455 S
C1268 H1272 0.950 . S
C1268 C1277 1.390 . S
C1269 C1268 1.387 1_655 S
C1269 C1271 1.387 . S
H1270 C1277 0.950 . S
C1271 C1269 1.387 . S
C1271 C1273 1.390 1_655 S
C1271 H1275 0.950 . S
H1272 C1268 0.950 . S
C1273 C1271 1.390 1_455 S
C1273 C1274 1.387 . S
C1273 H1276 0.950 . S
C1274 C1273 1.387 . S
C1274 C1277 1.387 . S
H1275 C1271 0.950 . S
H1276 C1273 0.950 . S
C1277 C1268 1.390 . S
C1277 H1270 0.950 . S
C1277 C1274 1.387 . S
C1278 C1279 1.387 . S
C1278 H1282 0.950 . S
C1278 C1287 1.390 . S
C1279 C1278 1.387 . S
C1279 C1281 1.387 . S
H1280 C1287 0.950 . S
C1281 C1279 1.387 . S
C1281 C1283 1.390 . S
C1281 H1285 0.950 . S
H1282 C1278 0.950 . S
C1283 C1281 1.390 . S
C1283 C1284 1.387 . S
C1283 H1286 0.950 . S
C1284 C1283 1.387 . S
C1284 C1287 1.387 . S
H1285 C1281 0.950 . S
H1286 C1283 0.950 . S
C1287 C1278 1.390 . S
C1287 H1280 0.950 . S
C1287 C1284 1.387 . S
C1288 C1289 1.387 . S
C1288 H1292 0.950 . S
C1288 C1297 1.390 1_565 S
C1289 C1288 1.387 . S
C1289 C1291 1.387 1_565 S
H1290 C1297 0.950 . S
C1291 C1289 1.387 1_545 S
C1291 C1293 1.390 . S
C1291 H1295 0.963 . S
H1292 C1288 0.950 . S
C1293 C1291 1.390 . S
C1293 C1294 1.387 . S
C1293 H1296 0.950 . S
C1294 C1293 1.387 . S
C1294 C1297 1.387 . S
H1295 C1291 0.963 . S
H1296 C1293 0.950 . S
C1297 C1288 1.390 1_545 S
C1297 H1290 0.950 . S
C1297 C1294 1.387 . S
C1298 C1299 1.387 . S
C1298 H1302 0.950 . S
C1298 C1307 1.390 1_655 S
C1299 C1298 1.387 . S
C1299 C1301 1.387 . S
H1300 C1307 0.950 . S
C1301 C1299 1.387 . S
C1301 C1303 1.390 . S
C1301 H1305 0.950 . S
H1302 C1298 0.950 . S
C1303 C1301 1.390 . S
C1303 C1304 1.387 1_655 S
C1303 H1306 0.950 . S
C1304 C1303 1.387 1_455 S
C1304 C1307 1.387 . S
H1305 C1301 0.950 . S
H1306 C1303 0.950 . S
C1307 C1298 1.390 1_455 S
C1307 H1300 0.950 . S
C1307 C1304 1.387 . S
C1308 C1309 1.387 . S
C1308 H1312 0.950 . S
C1308 C1317 1.390 . S
C1309 C1308 1.387 . S
C1309 C1311 1.387 . S
H1310 C1317 0.950 . S
C1311 C1309 1.387 . S
C1311 C1313 1.390 . S
C1311 H1315 0.950 . S
H1312 C1308 0.950 . S
C1313 C1311 1.390 . S
C1313 C1314 1.387 . S
C1313 H1316 0.950 . S
C1314 C1313 1.387 . S
C1314 C1317 1.387 . S
H1315 C1311 0.950 . S
H1316 C1313 0.950 . S
C1317 C1308 1.390 . S
C1317 H1310 0.950 . S
C1317 C1314 1.387 . S
C1318 C1319 1.387 . S
C1318 H1322 0.950 . S
C1318 C1327 1.390 . S
C1319 C1318 1.387 . S
C1319 C1321 1.387 . S
H1320 C1327 0.950 . S
C1321 C1319 1.387 . S
C1321 C1323 1.390 . S
C1321 H1325 0.950 . S
H1322 C1318 0.950 . S
C1323 C1321 1.390 . S
C1323 C1324 1.387 . S
C1323 H1326 0.950 . S
C1324 C1323 1.387 . S
C1324 C1327 1.387 . S
H1325 C1321 0.950 . S
H1326 C1323 0.950 . S
C1327 C1318 1.390 . S
C1327 H1320 0.950 . S
C1327 C1324 1.387 . S
C1328 C1329 1.387 . S
C1328 H1332 0.950 . S
C1328 C1337 1.390 . S
C1329 C1328 1.387 . S
C1329 C1331 1.387 . S
H1330 C1337 0.950 . S
C1331 C1329 1.387 . S
C1331 C1333 1.390 . S
C1331 H1335 0.950 . S
H1332 C1328 0.950 . S
C1333 C1331 1.390 . S
C1333 C1334 1.387 . S
C1333 H1336 0.950 . S
C1334 C1333 1.387 . S
C1334 C1337 1.387 . S
H1335 C1331 0.950 . S
H1336 C1333 0.950 . S
C1337 C1328 1.390 . S
C1337 H1330 0.950 . S
C1337 C1334 1.387 . S
C1338 C1339 1.387 . S
C1338 H1342 0.950 . S
C1338 C1347 1.390 . S
C1339 C1338 1.387 . S
C1339 C1341 1.387 . S
H1340 C1347 0.950 . S
C1341 C1339 1.387 . S
C1341 C1343 1.390 . S
C1341 H1345 0.950 . S
H1342 C1338 0.950 . S
C1343 C1341 1.390 . S
C1343 C1344 1.387 . S
C1343 H1346 0.950 . S
C1344 C1343 1.387 . S
C1344 C1347 1.387 . S
H1345 C1341 0.950 . S
H1346 C1343 0.950 . S
C1347 C1338 1.390 . S
C1347 H1340 0.950 . S
C1347 C1344 1.387 . S
C1348 C1349 1.387 . S
C1348 H1352 0.950 . S
C1348 C1357 1.390 . S
C1349 C1348 1.387 . S
C1349 C1351 1.387 . S
H1350 C1357 0.950 . S
C1351 C1349 1.387 . S
C1351 C1353 1.390 . S
C1351 H1355 0.950 . S
H1352 C1348 0.950 . S
C1353 C1351 1.390 . S
C1353 C1354 1.387 . S
C1353 H1356 0.950 . S
C1354 C1353 1.387 . S
C1354 C1357 1.387 . S
H1355 C1351 0.950 . S
H1356 C1353 0.950 . S
C1357 C1348 1.390 . S
C1357 H1350 0.950 . S
C1357 C1354 1.387 . S
C1358 C1359 1.387 . S
C1358 H1362 0.950 . S
C1358 C1367 1.390 . S
C1359 C1358 1.387 . S
C1359 C1361 1.387 . S
H1360 C1367 0.950 . S
C1361 C1359 1.387 . S
C1361 C1363 1.390 . S
C1361 H1365 0.950 . S
H1362 C1358 0.950 . S
C1363 C1361 1.390 . S
C1363 C1364 1.387 . S
C1363 H1366 0.950 . S
C1364 C1363 1.387 . S
C1364 C1367 1.387 . S
H1365 C1361 0.950 . S
H1366 C1363 0.950 . S
C1367 C1358 1.390 . S
C1367 H1360 0.950 . S
C1367 C1364 1.387 . S
C1368 C1369 1.387 . S
C1368 H1372 0.950 . S
C1368 C1377 1.390 . S
C1369 C1368 1.387 . S
C1369 C1371 1.387 . S
H1370 C1377 0.950 . S
C1371 C1369 1.387 . S
C1371 C1373 1.390 . S
C1371 H1375 0.950 . S
H1372 C1368 0.950 . S
C1373 C1371 1.390 . S
C1373 C1374 1.387 . S
C1373 H1376 0.950 . S
C1374 C1373 1.387 . S
C1374 C1377 1.387 . S
H1375 C1371 0.950 . S
H1376 C1373 0.950 . S
C1377 C1368 1.390 . S
C1377 H1370 0.950 . S
C1377 C1374 1.387 . S
C1378 C1379 1.387 . S
C1378 H1382 0.950 . S
C1378 C1387 1.390 . S
C1379 C1378 1.387 . S
C1379 C1381 1.387 . S
H1380 C1387 0.950 . S
C1381 C1379 1.387 . S
C1381 C1383 1.390 . S
C1381 H1385 0.950 . S
H1382 C1378 0.950 . S
C1383 C1381 1.390 . S
C1383 C1384 1.387 . S
C1383 H1386 0.950 . S
C1384 C1383 1.387 . S
C1384 C1387 1.387 . S
H1385 C1381 0.950 . S
H1386 C1383 0.950 . S
C1387 C1378 1.390 . S
C1387 H1380 0.950 . S
C1387 C1384 1.387 . S
C1388 C1389 1.387 . S
C1388 H1392 0.950 . S
C1388 C1397 1.390 . S
C1389 C1388 1.387 . S
C1389 C1391 1.387 . S
H1390 C1397 0.950 . S
C1391 C1389 1.387 . S
C1391 C1393 1.390 . S
C1391 H1395 0.950 . S
H1392 C1388 0.950 . S
C1393 C1391 1.390 . S
C1393 C1394 1.387 . S
C1393 H1396 0.950 . S
C1394 C1393 1.387 . S
C1394 C1397 1.387 . S
H1395 C1391 0.950 . S
H1396 C1393 0.950 . S
C1397 C1388 1.390 . S
C1397 H1390 0.950 . S
C1397 C1394 1.387 . S
C1398 C1399 1.387 . S
C1398 H1402 0.950 . S
C1398 C1407 1.390 . S
C1399 C1398 1.387 . S
C1399 C1401 1.387 . S
H1400 C1407 0.950 . S
C1401 C1399 1.387 . S
C1401 C1403 1.390 . S
C1401 H1405 0.950 . S
H1402 C1398 0.950 . S
C1403 C1401 1.390 . S
C1403 C1404 1.387 . S
C1403 H1406 0.950 . S
C1404 C1403 1.387 . S
C1404 C1407 1.387 . S
H1405 C1401 0.950 . S
H1406 C1403 0.950 . S
C1407 C1398 1.390 . S
C1407 H1400 0.950 . S
C1407 C1404 1.387 . S
C1408 C1409 1.387 . S
C1408 H1412 0.950 . S
C1408 C1417 1.390 . S
C1409 C1408 1.387 . S
C1409 C1411 1.387 . S
H1410 C1417 0.950 . S
C1411 C1409 1.387 . S
C1411 C1413 1.390 . S
C1411 H1415 0.950 1_556 S
H1412 C1408 0.950 . S
C1413 C1411 1.390 . S
C1413 C1414 1.387 . S
C1413 H1416 0.950 1_556 S
C1414 C1413 1.387 . S
C1414 C1417 1.387 . S
H1415 C1411 0.950 1_554 S
H1416 C1413 0.950 1_554 S
C1417 C1408 1.390 . S
C1417 H1410 0.950 . S
C1417 C1414 1.387 . S
C1418 C1419 1.387 . S
C1418 H1422 0.950 . S
C1418 C1427 1.390 . S
C1419 C1418 1.387 . S
C1419 C1421 1.387 . S
H1420 C1427 0.950 . S
C1421 C1419 1.387 . S
C1421 C1423 1.390 . S
C1421 H1425 0.950 1_556 S
H1422 C1418 0.950 . S
C1423 C1421 1.390 . S
C1423 C1424 1.387 . S
C1423 H1426 0.950 1_556 S
C1424 C1423 1.387 . S
C1424 C1427 1.387 . S
H1425 C1421 0.950 1_554 S
H1426 C1423 0.950 1_554 S
C1427 C1418 1.390 . S
C1427 H1420 0.950 . S
C1427 C1424 1.387 . S
C1428 C1429 1.387 . S
C1428 H1432 0.950 . S
C1428 C1437 1.390 . S
C1429 C1428 1.387 . S
C1429 C1431 1.387 . S
H1430 C1437 0.950 . S
C1431 C1429 1.387 . S
C1431 C1433 1.390 . S
C1431 H1435 0.950 . S
H1432 C1428 0.950 . S
C1433 C1431 1.390 . S
C1433 C1434 1.387 . S
C1433 H1436 0.950 . S
C1434 C1433 1.387 . S
C1434 C1437 1.387 . S
H1435 C1431 0.950 . S
H1436 C1433 0.950 . S
C1437 C1428 1.390 . S
C1437 H1430 0.950 . S
C1437 C1434 1.387 . S
C1438 C1439 1.387 . S
C1438 H1442 0.950 . S
C1438 C1447 1.390 . S
C1439 C1438 1.387 . S
C1439 C1441 1.387 . S
H1440 C1447 0.950 . S
C1441 C1439 1.387 . S
C1441 C1443 1.390 . S
C1441 H1445 0.950 . S
H1442 C1438 0.950 . S
C1443 C1441 1.390 . S
C1443 C1444 1.387 . S
C1443 H1446 0.950 . S
C1444 C1443 1.387 . S
C1444 C1447 1.387 . S
H1445 C1441 0.950 . S
H1446 C1443 0.950 . S
C1447 C1438 1.390 . S
C1447 H1440 0.950 . S
C1447 C1444 1.387 . S
C1448 C1449 1.387 . S
C1448 H1452 0.950 . S
C1448 C1457 1.390 . S
C1449 C1448 1.387 . S
C1449 C1451 1.387 . S
H1450 C1457 0.950 . S
C1451 C1449 1.387 . S
C1451 C1453 1.390 . S
C1451 H1455 0.950 . S
H1452 C1448 0.950 . S
C1453 C1451 1.390 . S
C1453 C1454 1.387 . S
C1453 H1456 0.950 . S
C1454 C1453 1.387 . S
C1454 C1457 1.387 . S
H1455 C1451 0.950 . S
H1456 C1453 0.950 . S
C1457 C1448 1.390 . S
C1457 H1450 0.950 . S
C1457 C1454 1.387 . S
C1458 C1459 1.387 . S
C1458 H1462 0.950 . S
C1458 C1467 1.390 . S
C1459 C1458 1.387 . S
C1459 C1461 1.387 . S
H1460 C1467 0.950 . S
C1461 C1459 1.387 . S
C1461 C1463 1.390 . S
C1461 H1465 0.949 1_554 S
H1462 C1458 0.950 . S
C1463 C1461 1.390 . S
C1463 C1464 1.387 . S
C1463 H1466 0.950 1_554 S
C1464 C1463 1.387 . S
C1464 C1467 1.387 . S
H1465 C1461 0.949 1_556 S
H1466 C1463 0.950 1_556 S
C1467 C1458 1.390 . S
C1467 H1460 0.950 . S
C1467 C1464 1.387 . S
C1468 C1469 1.387 . S
C1468 H1472 0.950 . S
C1468 C1477 1.390 . S
C1469 C1468 1.387 . S
C1469 C1471 1.387 . S
H1470 C1477 0.950 . S
C1471 C1469 1.387 . S
C1471 C1473 1.390 . S
C1471 H1475 0.950 1_554 S
H1472 C1468 0.950 . S
C1473 C1471 1.390 . S
C1473 C1474 1.387 . S
C1473 H1476 0.950 1_554 S
C1474 C1473 1.387 . S
C1474 C1477 1.387 . S
H1475 C1471 0.950 1_556 S
H1476 C1473 0.950 1_556 S
C1477 C1468 1.390 . S
C1477 H1470 0.950 . S
C1477 C1474 1.387 . S
C1478 C1479 1.387 . S
C1478 H1482 0.950 . S
C1478 C1487 1.390 . S
C1479 C1478 1.387 . S
C1479 C1481 1.387 . S
H1480 C1487 0.950 . S
C1481 C1479 1.387 . S
C1481 C1483 1.390 . S
C1481 H1485 0.950 1_554 S
H1482 C1478 0.950 . S
C1483 C1481 1.390 . S
C1483 C1484 1.387 . S
C1483 H1486 0.950 1_554 S
C1484 C1483 1.387 . S
C1484 C1487 1.387 . S
H1485 C1481 0.950 1_556 S
H1486 C1483 0.950 1_556 S
C1487 C1478 1.390 . S
C1487 H1480 0.950 . S
C1487 C1484 1.387 . S
C1488 C1489 1.387 . S
C1488 H1492 0.950 . S
C1488 C1497 1.390 . S
C1489 C1488 1.387 . S
C1489 C1491 1.387 . S
H1490 C1497 0.950 . S
C1491 C1489 1.387 . S
C1491 C1493 1.390 . S
C1491 H1495 0.950 . S
H1492 C1488 0.950 . S
C1493 C1491 1.390 . S
C1493 C1494 1.387 . S
C1493 H1496 0.950 . S
C1494 C1493 1.387 . S
C1494 C1497 1.387 . S
H1495 C1491 0.950 . S
H1496 C1493 0.950 . S
C1497 C1488 1.390 . S
C1497 H1490 0.950 . S
C1497 C1494 1.387 . S
C1498 C1499 1.387 . S
C1498 H1502 0.950 . S
C1498 C1507 1.390 . S
C1499 C1498 1.387 . S
C1499 C1501 1.387 . S
H1500 C1507 0.950 . S
C1501 C1499 1.387 . S
C1501 C1503 1.390 . S
C1501 H1505 0.950 . S
H1502 C1498 0.950 . S
C1503 C1501 1.390 . S
C1503 C1504 1.387 . S
C1503 H1506 0.950 . S
C1504 C1503 1.387 . S
C1504 C1507 1.387 . S
H1505 C1501 0.950 . S
H1506 C1503 0.950 . S
C1507 C1498 1.390 . S
C1507 H1500 0.950 . S
C1507 C1504 1.387 . S
C1508 C1509 1.387 . S
C1508 H1512 0.950 . S
C1508 C1517 1.390 . S
C1509 C1508 1.387 . S
C1509 C1511 1.387 . S
H1510 C1517 0.950 . S
C1511 C1509 1.387 . S
C1511 C1513 1.390 . S
C1511 H1515 0.950 . S
H1512 C1508 0.950 . S
C1513 C1511 1.390 . S
C1513 C1514 1.387 . S
C1513 H1516 0.950 . S
C1514 C1513 1.387 . S
C1514 C1517 1.387 . S
H1515 C1511 0.950 . S
H1516 C1513 0.950 . S
C1517 C1508 1.390 . S
C1517 H1510 0.950 . S
C1517 C1514 1.387 . S
C1518 C1519 1.387 . S
C1518 H1522 0.950 . S
C1518 C1527 1.390 . S
C1519 C1518 1.387 . S
C1519 C1521 1.387 . S
H1520 C1527 0.950 . S
C1521 C1519 1.387 . S
C1521 C1523 1.390 . S
C1521 H1525 0.950 . S
H1522 C1518 0.950 . S
C1523 C1521 1.390 . S
C1523 C1524 1.387 . S
C1523 H1526 0.950 . S
C1524 C1523 1.387 . S
C1524 C1527 1.387 . S
H1525 C1521 0.950 . S
H1526 C1523 0.950 . S
C1527 C1518 1.390 . S
C1527 H1520 0.950 . S
C1527 C1524 1.387 . S
C1528 C1529 1.387 . S
C1528 H1532 0.950 . S
C1528 C1537 1.390 . S
C1529 C1528 1.387 . S
C1529 C1531 1.387 . S
H1530 C1537 0.950 . S
C1531 C1529 1.387 . S
C1531 C1533 1.390 . S
C1531 H1535 0.950 . S
H1532 C1528 0.950 . S
C1533 C1531 1.390 . S
C1533 C1534 1.387 . S
C1533 H1536 0.950 . S
C1534 C1533 1.387 . S
C1534 C1537 1.387 . S
H1535 C1531 0.950 . S
H1536 C1533 0.950 . S
C1537 C1528 1.390 . S
C1537 H1530 0.950 . S
C1537 C1534 1.387 . S
C1538 C1539 1.387 . S
C1538 H1542 0.950 . S
C1538 C1547 1.390 . S
C1539 C1538 1.387 . S
C1539 C1541 1.387 . S
H1540 C1547 0.950 . S
C1541 C1539 1.387 . S
C1541 C1543 1.390 . S
C1541 H1545 0.950 . S
H1542 C1538 0.950 . S
C1543 C1541 1.390 . S
C1543 C1544 1.387 . S
C1543 H1546 0.950 . S
C1544 C1543 1.387 . S
C1544 C1547 1.387 . S
H1545 C1541 0.950 . S
H1546 C1543 0.950 . S
C1547 C1538 1.390 . S
C1547 H1540 0.950 . S
C1547 C1544 1.387 . S
C1548 C1549 1.387 . S
C1548 H1552 0.950 . S
C1548 C1557 1.390 . S
C1549 C1548 1.387 . S
C1549 C1551 1.387 1_455 S
H1550 C1557 0.950 . S
C1551 C1549 1.387 1_655 S
C1551 C1553 1.390 . S
C1551 H1555 0.950 . S
H1552 C1548 0.950 . S
C1553 C1551 1.390 . S
C1553 C1554 1.387 . S
C1553 H1556 0.950 . S
C1554 C1553 1.387 . S
C1554 C1557 1.387 1_655 S
H1555 C1551 0.950 . S
H1556 C1553 0.950 . S
C1557 C1548 1.390 . S
C1557 H1550 0.950 . S
C1557 C1554 1.387 1_455 S
C1558 C1559 1.387 . S
C1558 H1562 0.950 . S
C1558 C1567 1.390 . S
C1559 C1558 1.387 . S
C1559 C1561 1.387 . S
H1560 C1567 0.950 . S
C1561 C1559 1.387 . S
C1561 C1563 1.390 . S
C1561 H1565 0.950 . S
H1562 C1558 0.950 . S
C1563 C1561 1.390 . S
C1563 C1564 1.387 . S
C1563 H1566 0.950 . S
C1564 C1563 1.387 . S
C1564 C1567 1.387 . S
H1565 C1561 0.950 . S
H1566 C1563 0.950 . S
C1567 C1558 1.390 . S
C1567 H1560 0.950 . S
C1567 C1564 1.387 . S
C1568 C1569 1.387 . S
C1568 H1572 0.950 . S
C1568 C1577 1.390 1_565 S
C1569 C1568 1.387 . S
C1569 C1571 1.387 . S
H1570 C1577 0.950 . S
C1571 C1569 1.387 . S
C1571 C1573 1.390 1_565 S
C1571 H1575 0.950 . S
H1572 C1568 0.950 . S
C1573 C1571 1.390 1_545 S
C1573 C1574 1.387 . S
C1573 H1576 0.950 . S
C1574 C1573 1.387 . S
C1574 C1577 1.387 . S
H1575 C1571 0.950 . S
H1576 C1573 0.950 . S
C1577 C1568 1.390 1_545 S
C1577 H1570 0.950 . S
C1577 C1574 1.387 . S
C1578 C1579 1.387 1_455 S
C1578 H1582 0.950 . S
C1578 C1587 1.390 . S
C1579 C1578 1.387 1_655 S
C1579 C1581 1.387 . S
H1580 C1587 0.950 . S
C1581 C1579 1.387 . S
C1581 C1583 1.390 . S
C1581 H1585 0.950 . S
H1582 C1578 0.950 . S
C1583 C1581 1.390 . S
C1583 C1584 1.387 1_655 S
C1583 H1586 0.950 . S
C1584 C1583 1.387 1_455 S
C1584 C1587 1.387 . S
H1585 C1581 0.950 . S
H1586 C1583 0.950 . S
C1587 C1578 1.390 . S
C1587 H1580 0.950 . S
C1587 C1584 1.387 . S
C1588 C1589 1.387 . S
C1588 H1592 0.950 . S
C1588 C1597 1.390 . S
C1589 C1588 1.387 . S
C1589 C1591 1.387 . S
H1590 C1597 0.950 . S
C1591 C1589 1.387 . S
C1591 C1593 1.390 . S
C1591 H1595 0.950 . S
H1592 C1588 0.950 . S
C1593 C1591 1.390 . S
C1593 C1594 1.387 . S
C1593 H1596 0.950 . S
C1594 C1593 1.387 . S
C1594 C1597 1.387 . S
H1595 C1591 0.950 . S
H1596 C1593 0.950 . S
C1597 C1588 1.390 . S
C1597 H1590 0.950 . S
C1597 C1594 1.387 . S
C1598 C1599 1.387 . S
C1598 H1602 0.950 . S
C1598 C1607 1.390 1_565 S
C1599 C1598 1.387 . S
C1599 C1601 1.387 . S
H1600 C1607 0.950 . S
C1601 C1599 1.387 . S
C1601 C1603 1.390 1_565 S
C1601 H1605 0.950 . S
H1602 C1598 0.950 . S
C1603 C1601 1.390 1_545 S
C1603 C1604 1.387 . S
C1603 H1606 0.950 . S
C1604 C1603 1.387 . S
C1604 C1607 1.387 . S
H1605 C1601 0.950 . S
H1606 C1603 0.950 . S
C1607 C1598 1.390 1_545 S
C1607 H1600 0.950 . S
C1607 C1604 1.387 . S
C1608 C1609 1.387 . S
C1608 H1612 0.950 . S
C1608 C1617 1.390 . S
C1609 C1608 1.387 . S
C1609 C1611 1.387 . S
H1610 C1617 0.950 . S
C1611 C1609 1.387 . S
C1611 C1613 1.390 . S
C1611 H1615 0.950 . S
H1612 C1608 0.950 . S
C1613 C1611 1.390 . S
C1613 C1614 1.387 . S
C1613 H1616 0.950 . S
C1614 C1613 1.387 . S
C1614 C1617 1.387 . S
H1615 C1611 0.950 . S
H1616 C1613 0.950 . S
C1617 C1608 1.390 . S
C1617 H1610 0.950 . S
C1617 C1614 1.387 . S
C1618 C1619 1.387 . S
C1618 H1622 0.950 . S
C1618 C1627 1.390 . S
C1619 C1618 1.387 . S
C1619 C1621 1.387 . S
H1620 C1627 0.950 . S
C1621 C1619 1.387 . S
C1621 C1623 1.390 . S
C1621 H1625 0.950 . S
H1622 C1618 0.950 . S
C1623 C1621 1.390 . S
C1623 C1624 1.387 . S
C1623 H1626 0.950 . S
C1624 C1623 1.387 . S
C1624 C1627 1.387 . S
H1625 C1621 0.950 . S
H1626 C1623 0.950 . S
C1627 C1618 1.390 . S
C1627 H1620 0.950 . S
C1627 C1624 1.387 . S
C1628 C1629 1.387 . S
C1628 H1632 0.950 . S
C1628 C1637 1.390 . S
C1629 C1628 1.387 . S
C1629 C1631 1.387 . S
H1630 C1637 0.950 . S
C1631 C1629 1.387 . S
C1631 C1633 1.390 . S
C1631 H1635 0.950 . S
H1632 C1628 0.950 . S
C1633 C1631 1.390 . S
C1633 C1634 1.387 . S
C1633 H1636 0.950 . S
C1634 C1633 1.387 . S
C1634 C1637 1.387 . S
H1635 C1631 0.950 . S
H1636 C1633 0.950 . S
C1637 C1628 1.390 . S
C1637 H1630 0.950 . S
C1637 C1634 1.387 . S
C1638 C1639 1.387 . S
C1638 H1642 0.950 . S
C1638 C1647 1.390 . S
C1639 C1638 1.387 . S
C1639 C1641 1.387 . S
H1640 C1647 0.950 . S
C1641 C1639 1.387 . S
C1641 C1643 1.390 . S
C1641 H1645 0.950 . S
H1642 C1638 0.950 . S
C1643 C1641 1.390 . S
C1643 C1644 1.387 . S
C1643 H1646 0.950 . S
C1644 C1643 1.387 . S
C1644 C1647 1.387 . S
H1645 C1641 0.950 . S
H1646 C1643 0.950 . S
C1647 C1638 1.390 . S
C1647 H1640 0.950 . S
C1647 C1644 1.387 . S
C1648 C1649 1.387 . S
C1648 H1652 0.950 . S
C1648 C1657 1.390 . S
C1649 C1648 1.387 . S
C1649 C1651 1.387 . S
H1650 C1657 0.950 . S
C1651 C1649 1.387 . S
C1651 C1653 1.390 . S
C1651 H1655 0.950 . S
H1652 C1648 0.950 . S
C1653 C1651 1.390 . S
C1653 C1654 1.387 . S
C1653 H1656 0.950 . S
C1654 C1653 1.387 . S
C1654 C1657 1.387 . S
H1655 C1651 0.950 . S
H1656 C1653 0.950 . S
C1657 C1648 1.390 . S
C1657 H1650 0.950 . S
C1657 C1654 1.387 . S
C1658 C1659 1.387 . S
C1658 H1662 0.950 . S
C1658 C1667 1.390 . S
C1659 C1658 1.387 . S
C1659 C1661 1.387 . S
H1660 C1667 0.950 . S
C1661 C1659 1.387 . S
C1661 C1663 1.390 . S
C1661 H1665 0.950 . S
H1662 C1658 0.950 . S
C1663 C1661 1.390 . S
C1663 C1664 1.387 . S
C1663 H1666 0.950 . S
C1664 C1663 1.387 . S
C1664 C1667 1.387 . S
H1665 C1661 0.950 . S
H1666 C1663 0.950 . S
C1667 C1658 1.390 . S
C1667 H1660 0.950 . S
C1667 C1664 1.387 . S
C1668 C1669 1.387 . S
C1668 H1672 0.950 . S
C1668 C1677 1.390 . S
C1669 C1668 1.387 . S
C1669 C1671 1.387 . S
H1670 C1677 0.950 . S
C1671 C1669 1.387 . S
C1671 C1673 1.390 . S
C1671 H1675 0.950 . S
H1672 C1668 0.950 . S
C1673 C1671 1.390 . S
C1673 C1674 1.387 . S
C1673 H1676 0.950 . S
C1674 C1673 1.387 . S
C1674 C1677 1.387 . S
H1675 C1671 0.950 . S
H1676 C1673 0.950 . S
C1677 C1668 1.390 . S
C1677 H1670 0.950 . S
C1677 C1674 1.387 . S
C1678 C1679 1.387 . S
C1678 H1682 0.950 . S
C1678 C1687 1.390 . S
C1679 C1678 1.387 . S
C1679 C1681 1.387 . S
H1680 C1687 0.950 . S
C1681 C1679 1.387 . S
C1681 C1683 1.390 . S
C1681 H1685 0.950 . S
H1682 C1678 0.950 . S
C1683 C1681 1.390 . S
C1683 C1684 1.387 . S
C1683 H1686 0.950 . S
C1684 C1683 1.387 . S
C1684 C1687 1.387 . S
H1685 C1681 0.950 . S
H1686 C1683 0.950 . S
C1687 C1678 1.390 . S
C1687 H1680 0.950 . S
C1687 C1684 1.387 . S
C1688 C1689 1.387 . S
C1688 H1692 0.950 . S
C1688 C1697 1.390 . S
C1689 C1688 1.387 . S
C1689 C1691 1.387 . S
H1690 C1697 0.950 . S
C1691 C1689 1.387 . S
C1691 C1693 1.390 . S
C1691 H1695 0.950 . S
H1692 C1688 0.950 . S
C1693 C1691 1.390 . S
C1693 C1694 1.387 . S
C1693 H1696 0.950 . S
C1694 C1693 1.387 . S
C1694 C1697 1.387 . S
H1695 C1691 0.950 . S
H1696 C1693 0.950 . S
C1697 C1688 1.390 . S
C1697 H1690 0.950 . S
C1697 C1694 1.387 . S
C1698 C1699 1.387 . S
C1698 H1702 0.950 . S
C1698 C1707 1.390 . S
C1699 C1698 1.387 . S
C1699 C1701 1.387 . S
H1700 C1707 0.950 . S
C1701 C1699 1.387 . S
C1701 C1703 1.390 . S
C1701 H1705 0.950 . S
H1702 C1698 0.950 . S
C1703 C1701 1.390 . S
C1703 C1704 1.387 . S
C1703 H1706 0.950 . S
C1704 C1703 1.387 . S
C1704 C1707 1.387 . S
H1705 C1701 0.950 . S
H1706 C1703 0.950 . S
C1707 C1698 1.390 . S
C1707 H1700 0.950 . S
C1707 C1704 1.387 . S
C1708 C1709 1.387 . S
C1708 H1712 0.950 . S
C1708 C1717 1.390 . S
C1709 C1708 1.387 . S
C1709 C1711 1.387 . S
H1710 C1717 0.950 . S
C1711 C1709 1.387 . S
C1711 C1713 1.390 . S
C1711 H1715 0.950 . S
H1712 C1708 0.950 . S
C1713 C1711 1.390 . S
C1713 C1714 1.387 . S
C1713 H1716 0.950 . S
C1714 C1713 1.387 . S
C1714 C1717 1.387 . S
H1715 C1711 0.950 . S
H1716 C1713 0.950 . S
C1717 C1708 1.390 . S
C1717 H1710 0.950 . S
C1717 C1714 1.387 . S
C1718 C1719 1.387 . S
C1718 H1722 0.950 . S
C1718 C1727 1.390 . S
C1719 C1718 1.387 . S
C1719 C1721 1.387 . S
H1720 C1727 0.950 . S
C1721 C1719 1.387 . S
C1721 C1723 1.390 . S
C1721 H1725 0.950 . S
H1722 C1718 0.950 . S
C1723 C1721 1.390 . S
C1723 C1724 1.387 . S
C1723 H1726 0.950 . S
C1724 C1723 1.387 . S
C1724 C1727 1.387 . S
H1725 C1721 0.950 . S
H1726 C1723 0.950 . S
C1727 C1718 1.390 . S
C1727 H1720 0.950 . S
C1727 C1724 1.387 . S
C1728 C1729 1.387 . S
C1728 H1732 0.950 . S
C1728 C1737 1.390 . S
C1729 C1728 1.387 . S
C1729 C1731 1.387 . S
H1730 C1737 0.950 . S
C1731 C1729 1.387 . S
C1731 C1733 1.390 . S
C1731 H1735 0.950 . S
H1732 C1728 0.950 . S
C1733 C1731 1.390 . S
C1733 C1734 1.387 . S
C1733 H1736 0.950 . S
C1734 C1733 1.387 . S
C1734 C1737 1.387 . S
H1735 C1731 0.950 . S
H1736 C1733 0.950 . S
C1737 C1728 1.390 . S
C1737 H1730 0.950 . S
C1737 C1734 1.387 . S
C1738 C1739 1.387 . S
C1738 H1742 0.950 . S
C1738 C1747 1.390 . S
C1739 C1738 1.387 . S
C1739 C1741 1.387 . S
H1740 C1747 0.950 . S
C1741 C1739 1.387 . S
C1741 C1743 1.390 . S
C1741 H1745 0.950 . S
H1742 C1738 0.950 . S
C1743 C1741 1.390 . S
C1743 C1744 1.387 . S
C1743 H1746 0.950 . S
C1744 C1743 1.387 . S
C1744 C1747 1.387 . S
H1745 C1741 0.950 . S
H1746 C1743 0.950 . S
C1747 C1738 1.390 . S
C1747 H1740 0.950 . S
C1747 C1744 1.387 . S
C1748 C1749 1.387 . S
C1748 H1752 0.950 . S
C1748 C1757 1.390 . S
C1749 C1748 1.387 . S
C1749 C1751 1.387 . S
H1750 C1757 0.950 . S
C1751 C1749 1.387 . S
C1751 C1753 1.390 . S
C1751 H1755 0.950 . S
H1752 C1748 0.950 . S
C1753 C1751 1.390 . S
C1753 C1754 1.387 . S
C1753 H1756 0.950 . S
C1754 C1753 1.387 . S
C1754 C1757 1.387 . S
H1755 C1751 0.950 . S
H1756 C1753 0.950 . S
C1757 C1748 1.390 . S
C1757 H1750 0.950 . S
C1757 C1754 1.387 . S
C1758 C1759 1.387 . S
C1758 H1762 0.950 . S
C1758 C1767 1.390 . S
C1759 C1758 1.387 . S
C1759 C1761 1.387 . S
H1760 C1767 0.950 . S
C1761 C1759 1.387 . S
C1761 C1763 1.390 . S
C1761 H1765 0.950 . S
H1762 C1758 0.950 . S
C1763 C1761 1.390 . S
C1763 C1764 1.387 . S
C1763 H1766 0.950 . S
C1764 C1763 1.387 . S
C1764 C1767 1.387 . S
H1765 C1761 0.950 . S
H1766 C1763 0.950 . S
C1767 C1758 1.390 . S
C1767 H1760 0.950 . S
C1767 C1764 1.387 . S
C1768 C1769 1.387 . S
C1768 H1772 0.950 . S
C1768 C1777 1.390 . S
C1769 C1768 1.387 . S
C1769 C1771 1.387 . S
H1770 C1777 0.950 . S
C1771 C1769 1.387 . S
C1771 C1773 1.390 . S
C1771 H1775 0.950 . S
H1772 C1768 0.950 . S
C1773 C1771 1.390 . S
C1773 C1774 1.387 . S
C1773 H1776 0.950 . S
C1774 C1773 1.387 . S
C1774 C1777 1.387 . S
H1775 C1771 0.950 . S
H1776 C1773 0.950 . S
C1777 C1768 1.390 . S
C1777 H1770 0.950 . S
C1777 C1774 1.387 . S
C1778 C1779 1.387 . S
C1778 H1782 0.950 . S
C1778 C1787 1.390 . S
C1779 C1778 1.387 . S
C1779 C1781 1.387 . S
H1780 C1787 0.950 . S
C1781 C1779 1.387 . S
C1781 C1783 1.390 . S
C1781 H1785 0.950 . S
H1782 C1778 0.950 . S
C1783 C1781 1.390 . S
C1783 C1784 1.387 . S
C1783 H1786 0.950 . S
C1784 C1783 1.387 . S
C1784 C1787 1.387 . S
H1785 C1781 0.950 . S
H1786 C1783 0.950 . S
C1787 C1778 1.390 . S
C1787 H1780 0.950 . S
C1787 C1784 1.387 . S
C1788 C1789 1.387 . S
C1788 H1792 0.950 . S
C1788 C1797 1.390 . S
C1789 C1788 1.387 . S
C1789 C1791 1.387 . S
H1790 C1797 0.950 . S
C1791 C1789 1.387 . S
C1791 C1793 1.390 . S
C1791 H1795 0.950 . S
H1792 C1788 0.950 . S
C1793 C1791 1.390 . S
C1793 C1794 1.387 . S
C1793 H1796 0.950 . S
C1794 C1793 1.387 . S
C1794 C1797 1.387 . S
H1795 C1791 0.950 . S
H1796 C1793 0.950 . S
C1797 C1788 1.390 . S
C1797 H1790 0.950 . S
C1797 C1794 1.387 . S
C1798 C1799 1.387 . S
C1798 H1802 0.950 . S
C1798 C1807 1.390 . S
C1799 C1798 1.387 . S
C1799 C1801 1.387 . S
H1800 C1807 0.950 . S
C1801 C1799 1.387 . S
C1801 C1803 1.390 . S
C1801 H1805 0.950 . S
H1802 C1798 0.950 . S
C1803 C1801 1.390 . S
C1803 C1804 1.387 . S
C1803 H1806 0.950 . S
C1804 C1803 1.387 . S
C1804 C1807 1.387 . S
H1805 C1801 0.950 . S
H1806 C1803 0.950 . S
C1807 C1798 1.390 . S
C1807 H1800 0.950 . S
C1807 C1804 1.387 . S
C1808 C1809 1.387 . S
C1808 H1812 0.950 . S
C1808 C1817 1.390 . S
C1809 C1808 1.387 . S
C1809 C1811 1.387 . S
H1810 C1817 0.950 . S
C1811 C1809 1.387 . S
C1811 C1813 1.390 . S
C1811 H1815 0.950 . S
H1812 C1808 0.950 . S
C1813 C1811 1.390 . S
C1813 C1814 1.387 . S
C1813 H1816 0.950 . S
C1814 C1813 1.387 . S
C1814 C1817 1.387 . S
H1815 C1811 0.950 . S
H1816 C1813 0.950 . S
C1817 C1808 1.390 . S
C1817 H1810 0.950 . S
C1817 C1814 1.387 . S
C1818 C1819 1.387 . S
C1818 H1822 0.950 . S
C1818 C1827 1.390 . S
C1819 C1818 1.387 . S
C1819 C1821 1.387 . S
H1820 C1827 0.950 . S
C1821 C1819 1.387 . S
C1821 C1823 1.390 . S
C1821 H1825 0.950 . S
H1822 C1818 0.950 . S
C1823 C1821 1.390 . S
C1823 C1824 1.387 . S
C1823 H1826 0.950 . S
C1824 C1823 1.387 . S
C1824 C1827 1.387 . S
H1825 C1821 0.950 . S
H1826 C1823 0.950 . S
C1827 C1818 1.390 . S
C1827 H1820 0.950 . S
C1827 C1824 1.387 . S
C1828 C1829 1.387 . S
C1828 H1832 0.950 . S
C1828 C1837 1.390 . S
C1829 C1828 1.387 . S
C1829 C1831 1.387 . S
H1830 C1837 0.950 . S
C1831 C1829 1.387 . S
C1831 C1833 1.390 . S
C1831 H1835 0.950 . S
H1832 C1828 0.950 . S
C1833 C1831 1.390 . S
C1833 C1834 1.387 . S
C1833 H1836 0.950 . S
C1834 C1833 1.387 . S
C1834 C1837 1.387 . S
H1835 C1831 0.950 . S
H1836 C1833 0.950 . S
C1837 C1828 1.390 . S
C1837 H1830 0.950 . S
C1837 C1834 1.387 . S
C1838 C1839 1.387 . S
C1838 H1842 0.950 . S
C1838 C1847 1.390 . S
C1839 C1838 1.387 . S
C1839 C1841 1.387 . S
H1840 C1847 0.950 . S
C1841 C1839 1.387 . S
C1841 C1843 1.390 . S
C1841 H1845 0.950 . S
H1842 C1838 0.950 . S
C1843 C1841 1.390 . S
C1843 C1844 1.387 . S
C1843 H1846 0.950 . S
C1844 C1843 1.387 . S
C1844 C1847 1.387 . S
H1845 C1841 0.950 . S
H1846 C1843 0.950 . S
C1847 C1838 1.390 . S
C1847 H1840 0.950 . S
C1847 C1844 1.387 . S
C1848 C1849 1.387 . S
C1848 H1852 0.950 . S
C1848 C1857 1.390 1_455 S
C1849 C1848 1.387 . S
C1849 C1851 1.387 . S
H1850 C1857 0.950 . S
C1851 C1849 1.387 . S
C1851 C1853 1.390 1_455 S
C1851 H1855 0.950 . S
H1852 C1848 0.950 . S
C1853 C1851 1.390 1_655 S
C1853 C1854 1.387 . S
C1853 H1856 0.950 . S
C1854 C1853 1.387 . S
C1854 C1857 1.387 . S
H1855 C1851 0.950 . S
H1856 C1853 0.950 . S
C1857 C1848 1.390 1_655 S
C1857 H1850 0.950 . S
C1857 C1854 1.387 . S
C1858 C1859 1.387 . S
C1858 H1862 0.950 . S
C1858 C1867 1.390 . S
C1859 C1858 1.387 . S
C1859 C1861 1.387 . S
H1860 C1867 0.950 . S
C1861 C1859 1.387 . S
C1861 C1863 1.390 . S
C1861 H1865 0.950 . S
H1862 C1858 0.950 . S
C1863 C1861 1.390 . S
C1863 C1864 1.387 . S
C1863 H1866 0.950 . S
C1864 C1863 1.387 . S
C1864 C1867 1.387 . S
H1865 C1861 0.950 . S
H1866 C1863 0.950 . S
C1867 C1858 1.390 . S
C1867 H1860 0.950 . S
C1867 C1864 1.387 . S
C1868 C1869 1.387 . S
C1868 H1872 0.950 . S
C1868 C1877 1.390 1_545 S
C1869 C1868 1.387 . S
C1869 C1871 1.387 . S
H1870 C1877 0.950 . S
C1871 C1869 1.387 . S
C1871 C1873 1.390 1_545 S
C1871 H1875 0.950 . S
H1872 C1868 0.950 . S
C1873 C1871 1.390 1_565 S
C1873 C1874 1.387 . S
C1873 H1876 0.950 . S
C1874 C1873 1.387 . S
C1874 C1877 1.387 . S
H1875 C1871 0.950 . S
H1876 C1873 0.950 . S
C1877 C1868 1.390 1_565 S
C1877 H1870 0.950 . S
C1877 C1874 1.387 . S
C1878 C1879 1.387 . S
C1878 H1882 0.950 . S
C1878 C1887 1.390 1_545 S
C1879 C1878 1.387 . S
C1879 C1881 1.387 . S
H1880 C1887 0.950 . S
C1881 C1879 1.387 . S
C1881 C1883 1.390 1_545 S
C1881 H1885 0.950 . S
H1882 C1878 0.950 . S
C1883 C1881 1.390 1_565 S
C1883 C1884 1.387 . S
C1883 H1886 0.950 . S
C1884 C1883 1.387 . S
C1884 C1887 1.387 . S
H1885 C1881 0.950 . S
H1886 C1883 0.950 . S
C1887 C1878 1.390 1_565 S
C1887 H1880 0.950 . S
C1887 C1884 1.387 . S
C1888 C1889 1.387 1_655 S
C1888 H1892 0.950 . S
C1888 C1897 1.390 . S
C1889 C1888 1.387 1_455 S
C1889 C1891 1.387 . S
H1890 C1897 0.950 . S
C1891 C1889 1.387 . S
C1891 C1893 1.390 . S
C1891 H1895 0.950 . S
H1892 C1888 0.950 . S
C1893 C1891 1.390 . S
C1893 C1894 1.387 1_455 S
C1893 H1896 0.950 . S
C1894 C1893 1.387 1_655 S
C1894 C1897 1.387 . S
H1895 C1891 0.950 . S
H1896 C1893 0.950 . S
C1897 C1888 1.390 . S
C1897 H1890 0.950 . S
C1897 C1894 1.387 . S
C1898 C1899 1.387 . S
C1898 H1902 0.950 . S
C1898 C1907 1.390 . S
C1899 C1898 1.387 . S
C1899 C1901 1.387 . S
H1900 C1907 0.950 . S
C1901 C1899 1.387 . S
C1901 C1903 1.390 . S
C1901 H1905 0.950 . S
H1902 C1898 0.950 . S
C1903 C1901 1.390 . S
C1903 C1904 1.387 . S
C1903 H1906 0.950 . S
C1904 C1903 1.387 . S
C1904 C1907 1.387 . S
H1905 C1901 0.950 . S
H1906 C1903 0.950 . S
C1907 C1898 1.390 . S
C1907 H1900 0.950 . S
C1907 C1904 1.387 . S
C829 C17 1.583 . S
C834 C181 1.423 . S
C839 C40 1.585 . S
C844 C204 1.427 . S
C849 C63 1.582 . S
C854 C158 1.424 . S
C859 C86 1.582 . S
C864 C273 1.423 . S
C869 C227 1.428 . S
C874 C109 1.585 . S
C879 C250 1.424 . S
C884 C132 1.583 . S
C889 C43 1.426 . S
C894 C155 1.584 . S
C899 C178 1.583 . S
C904 C66 1.423 . S
C909 C201 1.582 . S
C914 C20 1.424 . S
C919 C135 1.423 . S
C924 C224 1.582 . S
C929 C247 1.585 . S
C934 C89 1.428 . S
C939 C270 1.585 . S
C944 C112 1.427 . S
C949 C293 1.584 . S
C954 C457 1.427 . S
C959 C316 1.582 . S
C964 C480 1.423 . S
C969 C434 1.426 . S
C974 C339 1.584 . S
C979 C549 1.427 . S
C984 C362 1.585 . S
C989 C503 1.422 . S
C994 C385 1.582 . S
C999 C408 1.584 . S
C1004 C526 1.426 . S
C1009 C319 1.425 . S
C1014 C431 1.584 . S
C1019 C342 1.426 . S
C1024 C454 1.584 . S
C1029 C296 1.426 . S
C1034 C477 1.584 . S
C1039 C411 1.423 . S
C1044 C500 1.582 . S
C1049 C523 1.584 . S
C1054 C365 1.427 . S
C1059 C388 1.425 . S
C1064 C546 1.584 . S
C1069 C569 1.584 . S
C1074 C733 1.426 . S
C1079 C756 1.428 . S
C1084 C592 1.585 . S
C1089 C615 1.585 . S
C1094 C710 1.428 . S
C1099 C638 1.582 . S
C1104 C825 1.424 . S
C1109 C779 1.422 . S
C1114 C661 1.582 . S
C1119 C802 1.425 . S
C1124 C684 1.583 . S
C1129 C707 1.584 . S
C1134 C595 1.426 . S
C1139 C730 1.585 . S
C1144 C618 1.428 . S
C1149 C753 1.584 . S
C1154 C572 1.426 . S
C1159 C687 1.424 . S
C1164 C776 1.583 . S
C1169 C641 1.424 . S
C1174 C799 1.583 . S
C1179 C664 1.424 . S
C1184 C822 1.583 . S
C1189 C19 1.291 . S
C1194 C64 1.456 . S
C1199 C42 1.284 . S
C1204 C18 1.453 . S
C1209 C41 1.453 . S
C1214 C65 1.284 . S
C1219 C110 1.456 . S
C1224 C88 1.291 . S
C1229 C111 1.291 . S
C1234 C133 1.456 . S
C1239 C87 1.456 . S
C1244 C134 1.290 . S
C1249 C157 1.287 . S
C1254 C202 1.456 . S
C1259 C180 1.291 . S
C1264 C156 1.456 . S
C1269 C203 1.289 . S
C1274 C179 1.454 . S
C1279 C248 1.455 . S
C1284 C226 1.290 . S
C1289 C249 1.291 . S
C1294 C271 1.456 . S
C1299 C225 1.457 . S
C1304 C272 1.290 . S
C1309 C340 1.454 . S
C1314 C295 1.284 . S
C1319 C318 1.285 . S
C1324 C294 1.453 . S
C1329 C341 1.285 . S
C1334 C317 1.454 . S
C1339 C364 1.284 . S
C1344 C386 1.453 . S
C1349 C409 1.456 . S
C1354 C387 1.291 . S
C1359 C410 1.284 . S
C1364 C363 1.454 . S
C1369 C433 1.291 . S
C1374 C478 1.456 . S
C1379 C456 1.291 . S
C1384 C432 1.456 . S
C1389 C455 1.455 . S
C1394 C479 1.285 . S
C1399 C524 1.454 . S
C1404 C502 1.289 . S
C1409 C525 1.291 . S
C1414 C547 1.456 . S
C1419 C548 1.291 . S
C1424 C501 1.456 . S
C1429 C616 1.456 . S
C1434 C571 1.289 . S
C1439 C594 1.284 . S
C1444 C570 1.453 . S
C1449 C617 1.285 . S
C1454 C593 1.455 . S
C1459 C662 1.454 . S
C1464 C640 1.285 . S
C1469 C663 1.284 . S
C1474 C685 1.453 . S
C1479 C686 1.284 . S
C1484 C639 1.454 . S
C1489 C709 1.291 . S
C1494 C754 1.456 . S
C1499 C732 1.291 . S
C1504 C708 1.456 . S
C1509 C731 1.455 . S
C1514 C755 1.286 . S
C1519 C800 1.455 . S
C1524 C778 1.290 . S
C1529 C823 1.456 . S
C1534 C801 1.291 . S
C1539 C777 1.455 . S
C1544 C824 1.290 . S
C1549 C108 1.693 1_455 S
C1554 C16 1.692 1_655 S
C1559 C131 1.692 . S
C1564 C39 1.693 . S
C1569 C85 1.693 1_565 S
C1574 C62 1.692 1_545 S
C1579 C246 1.693 1_655 S
C1584 C154 1.692 1_455 S
C1589 C269 1.692 . S
C1594 C177 1.693 . S
C1599 C200 1.695 1_565 S
C1604 C223 1.695 1_545 S
C1609 C384 1.693 . S
C1614 C292 1.692 . S
C1619 C407 1.695 . S
C1624 C315 1.694 . S
C1629 C338 1.695 . S
C1634 C361 1.695 . S
C1639 C522 1.695 . S
C1644 C430 1.694 . S
C1649 C453 1.693 . S
C1654 C545 1.692 . S
C1659 C499 1.692 . S
C1664 C476 1.692 . S
C1669 C568 1.695 . S
C1674 C660 1.694 . S
C1679 C683 1.692 . S
C1684 C591 1.693 . S
C1689 C637 1.693 . S
C1694 C614 1.692 . S
C1699 C798 1.693 . S
C1704 C706 1.695 . S
C1709 C821 1.692 . S
C1714 C729 1.693 . S
C1719 C775 1.695 . S
C1724 C752 1.695 . S
C1729 C688 1.357 . S
C1734 C21 1.357 . S
C1739 C44 1.358 . S
C1744 C642 1.357 . S
C1749 C67 1.358 . S
C1754 C665 1.359 . S
C1759 C90 1.357 . S
C1764 C320 1.357 . S
C1769 C113 1.358 . S
C1774 C343 1.358 . S
C1779 C136 1.363 . S
C1784 C297 1.363 . S
C1789 C550 1.357 . S
C1794 C159 1.357 . S
C1799 C504 1.362 . S
C1804 C182 1.362 . S
C1809 C527 1.362 . S
C1814 C205 1.362 . S
C1819 C228 1.358 . S
C1824 C734 1.359 . S
C1829 C251 1.362 . S
C1834 C757 1.361 . S
C1839 C711 1.363 . S
C1844 C274 1.363 . S
C1849 C596 1.358 . S
C1854 C366 1.357 . S
C1859 C619 1.358 . S
C1864 C389 1.359 . S
C1869 C412 1.357 . S
C1874 C573 1.357 . S
C1879 C435 1.363 . S
C1884 C826 1.363 . S
C1889 C780 1.357 . S
C1894 C458 1.358 . S
C1899 C803 1.361 . S
C1904 C481 1.362 . S
