# Generated by pormake.
# Topology unx, (4)-cn, num edge types: 1
# Building blocks:
#     Node 0, Type 0, BuildingBlock: GALJAG_clean_sbu_0, # of connection points: 4
#     Node 1, Type 0, BuildingBlock: GALJAG_clean_sbu_0, # of connection points: 4
#     Node 2, Type 0, BuildingBlock: GALJAG_clean_sbu_0, # of connection points: 4
#     Node 3, Type 0, BuildingBlock: GALJAG_clean_sbu_0, # of connection points: 4
#     Node 4, Type 0, BuildingBlock: GALJAG_clean_sbu_0, # of connection points: 4
#     Node 5, Type 0, BuildingBlock: GALJAG_clean_sbu_0, # of connection points: 4
#     Node 6, Type 0, BuildingBlock: GALJAG_clean_sbu_0, # of connection points: 4
#     Node 7, Type 0, BuildingBlock: GALJAG_clean_sbu_0, # of connection points: 4
#     Node 8, Type 0, BuildingBlock: GALJAG_clean_sbu_0, # of connection points: 4
#     Node 9, Type 0, BuildingBlock: GALJAG_clean_sbu_0, # of connection points: 4
#     Node 10, Type 0, BuildingBlock: GALJAG_clean_sbu_0, # of connection points: 4
#     Node 11, Type 0, BuildingBlock: GALJAG_clean_sbu_0, # of connection points: 4
#     Node 12, Type 0, BuildingBlock: GALJAG_clean_sbu_0, # of connection points: 4
#     Node 13, Type 0, BuildingBlock: GALJAG_clean_sbu_0, # of connection points: 4
#     Node 14, Type 0, BuildingBlock: GALJAG_clean_sbu_0, # of connection points: 4
#     Node 15, Type 0, BuildingBlock: GALJAG_clean_sbu_0, # of connection points: 4
#     Node 16, Type 0, BuildingBlock: GALJAG_clean_sbu_0, # of connection points: 4
#     Node 17, Type 0, BuildingBlock: GALJAG_clean_sbu_0, # of connection points: 4
#     Node 18, Type 0, BuildingBlock: GALJAG_clean_sbu_0, # of connection points: 4
#     Node 19, Type 0, BuildingBlock: GALJAG_clean_sbu_0, # of connection points: 4
#     Node 20, Type 0, BuildingBlock: GALJAG_clean_sbu_0, # of connection points: 4
#     Node 21, Type 0, BuildingBlock: GALJAG_clean_sbu_0, # of connection points: 4
#     Node 22, Type 0, BuildingBlock: GALJAG_clean_sbu_0, # of connection points: 4
#     Node 23, Type 0, BuildingBlock: GALJAG_clean_sbu_0, # of connection points: 4
#     Node 24, Type 0, BuildingBlock: GALJAG_clean_sbu_0, # of connection points: 4
#     Node 25, Type 0, BuildingBlock: GALJAG_clean_sbu_0, # of connection points: 4
#     Node 26, Type 0, BuildingBlock: GALJAG_clean_sbu_0, # of connection points: 4
#     Node 27, Type 0, BuildingBlock: GALJAG_clean_sbu_0, # of connection points: 4
#     Node 28, Type 0, BuildingBlock: GALJAG_clean_sbu_0, # of connection points: 4
#     Node 29, Type 0, BuildingBlock: GALJAG_clean_sbu_0, # of connection points: 4
#     Node 30, Type 0, BuildingBlock: GALJAG_clean_sbu_0, # of connection points: 4
#     Node 31, Type 0, BuildingBlock: GALJAG_clean_sbu_0, # of connection points: 4
#     Node 32, Type 0, BuildingBlock: GALJAG_clean_sbu_0, # of connection points: 4
#     Node 33, Type 0, BuildingBlock: GALJAG_clean_sbu_0, # of connection points: 4
#     Node 34, Type 0, BuildingBlock: GALJAG_clean_sbu_0, # of connection points: 4
#     Node 35, Type 0, BuildingBlock: GALJAG_clean_sbu_0, # of connection points: 4
#     Node 36, Type 0, BuildingBlock: GALJAG_clean_sbu_0, # of connection points: 4
#     Node 37, Type 0, BuildingBlock: GALJAG_clean_sbu_0, # of connection points: 4
#     Node 38, Type 0, BuildingBlock: GALJAG_clean_sbu_0, # of connection points: 4
#     Node 39, Type 0, BuildingBlock: GALJAG_clean_sbu_0, # of connection points: 4
#     Node 40, Type 0, BuildingBlock: GALJAG_clean_sbu_0, # of connection points: 4
#     Node 41, Type 0, BuildingBlock: GALJAG_clean_sbu_0, # of connection points: 4
#     Node 42, Type 0, BuildingBlock: GALJAG_clean_sbu_0, # of connection points: 4
#     Node 43, Type 0, BuildingBlock: GALJAG_clean_sbu_0, # of connection points: 4
#     Node 44, Type 0, BuildingBlock: GALJAG_clean_sbu_0, # of connection points: 4
#     Node 45, Type 0, BuildingBlock: GALJAG_clean_sbu_0, # of connection points: 4
#     Node 46, Type 0, BuildingBlock: GALJAG_clean_sbu_0, # of connection points: 4
#     Node 47, Type 0, BuildingBlock: GALJAG_clean_sbu_0, # of connection points: 4
#     Edge 48, Type (0, 0), BuildingBlock: KIFKEQ_clean_linker_1, # of connection points: 2
#     Edge 49, Type (0, 0), BuildingBlock: KIFKEQ_clean_linker_1, # of connection points: 2
#     Edge 50, Type (0, 0), BuildingBlock: KIFKEQ_clean_linker_1, # of connection points: 2
#     Edge 51, Type (0, 0), BuildingBlock: KIFKEQ_clean_linker_1, # of connection points: 2
#     Edge 52, Type (0, 0), BuildingBlock: KIFKEQ_clean_linker_1, # of connection points: 2
#     Edge 53, Type (0, 0), BuildingBlock: KIFKEQ_clean_linker_1, # of connection points: 2
#     Edge 54, Type (0, 0), BuildingBlock: KIFKEQ_clean_linker_1, # of connection points: 2
#     Edge 55, Type (0, 0), BuildingBlock: KIFKEQ_clean_linker_1, # of connection points: 2
#     Edge 56, Type (0, 0), BuildingBlock: KIFKEQ_clean_linker_1, # of connection points: 2
#     Edge 57, Type (0, 0), BuildingBlock: KIFKEQ_clean_linker_1, # of connection points: 2
#     Edge 58, Type (0, 0), BuildingBlock: KIFKEQ_clean_linker_1, # of connection points: 2
#     Edge 59, Type (0, 0), BuildingBlock: KIFKEQ_clean_linker_1, # of connection points: 2
#     Edge 60, Type (0, 0), BuildingBlock: KIFKEQ_clean_linker_1, # of connection points: 2
#     Edge 61, Type (0, 0), BuildingBlock: KIFKEQ_clean_linker_1, # of connection points: 2
#     Edge 62, Type (0, 0), BuildingBlock: KIFKEQ_clean_linker_1, # of connection points: 2
#     Edge 63, Type (0, 0), BuildingBlock: KIFKEQ_clean_linker_1, # of connection points: 2
#     Edge 64, Type (0, 0), BuildingBlock: KIFKEQ_clean_linker_1, # of connection points: 2
#     Edge 65, Type (0, 0), BuildingBlock: KIFKEQ_clean_linker_1, # of connection points: 2
#     Edge 66, Type (0, 0), BuildingBlock: KIFKEQ_clean_linker_1, # of connection points: 2
#     Edge 67, Type (0, 0), BuildingBlock: KIFKEQ_clean_linker_1, # of connection points: 2
#     Edge 68, Type (0, 0), BuildingBlock: KIFKEQ_clean_linker_1, # of connection points: 2
#     Edge 69, Type (0, 0), BuildingBlock: KIFKEQ_clean_linker_1, # of connection points: 2
#     Edge 70, Type (0, 0), BuildingBlock: KIFKEQ_clean_linker_1, # of connection points: 2
#     Edge 71, Type (0, 0), BuildingBlock: KIFKEQ_clean_linker_1, # of connection points: 2
#     Edge 72, Type (0, 0), BuildingBlock: KIFKEQ_clean_linker_1, # of connection points: 2
#     Edge 73, Type (0, 0), BuildingBlock: KIFKEQ_clean_linker_1, # of connection points: 2
#     Edge 74, Type (0, 0), BuildingBlock: KIFKEQ_clean_linker_1, # of connection points: 2
#     Edge 75, Type (0, 0), BuildingBlock: KIFKEQ_clean_linker_1, # of connection points: 2
#     Edge 76, Type (0, 0), BuildingBlock: KIFKEQ_clean_linker_1, # of connection points: 2
#     Edge 77, Type (0, 0), BuildingBlock: KIFKEQ_clean_linker_1, # of connection points: 2
#     Edge 78, Type (0, 0), BuildingBlock: KIFKEQ_clean_linker_1, # of connection points: 2
#     Edge 79, Type (0, 0), BuildingBlock: KIFKEQ_clean_linker_1, # of connection points: 2
#     Edge 80, Type (0, 0), BuildingBlock: KIFKEQ_clean_linker_1, # of connection points: 2
#     Edge 81, Type (0, 0), BuildingBlock: KIFKEQ_clean_linker_1, # of connection points: 2
#     Edge 82, Type (0, 0), BuildingBlock: KIFKEQ_clean_linker_1, # of connection points: 2
#     Edge 83, Type (0, 0), BuildingBlock: KIFKEQ_clean_linker_1, # of connection points: 2
#     Edge 84, Type (0, 0), BuildingBlock: KIFKEQ_clean_linker_1, # of connection points: 2
#     Edge 85, Type (0, 0), BuildingBlock: KIFKEQ_clean_linker_1, # of connection points: 2
#     Edge 86, Type (0, 0), BuildingBlock: KIFKEQ_clean_linker_1, # of connection points: 2
#     Edge 87, Type (0, 0), BuildingBlock: KIFKEQ_clean_linker_1, # of connection points: 2
#     Edge 88, Type (0, 0), BuildingBlock: KIFKEQ_clean_linker_1, # of connection points: 2
#     Edge 89, Type (0, 0), BuildingBlock: KIFKEQ_clean_linker_1, # of connection points: 2
#     Edge 90, Type (0, 0), BuildingBlock: KIFKEQ_clean_linker_1, # of connection points: 2
#     Edge 91, Type (0, 0), BuildingBlock: KIFKEQ_clean_linker_1, # of connection points: 2
#     Edge 92, Type (0, 0), BuildingBlock: KIFKEQ_clean_linker_1, # of connection points: 2
#     Edge 93, Type (0, 0), BuildingBlock: KIFKEQ_clean_linker_1, # of connection points: 2
#     Edge 94, Type (0, 0), BuildingBlock: KIFKEQ_clean_linker_1, # of connection points: 2
#     Edge 95, Type (0, 0), BuildingBlock: KIFKEQ_clean_linker_1, # of connection points: 2
#     Edge 96, Type (0, 0), BuildingBlock: KIFKEQ_clean_linker_1, # of connection points: 2
#     Edge 97, Type (0, 0), BuildingBlock: KIFKEQ_clean_linker_1, # of connection points: 2
#     Edge 98, Type (0, 0), BuildingBlock: KIFKEQ_clean_linker_1, # of connection points: 2
#     Edge 99, Type (0, 0), BuildingBlock: KIFKEQ_clean_linker_1, # of connection points: 2
#     Edge 100, Type (0, 0), BuildingBlock: KIFKEQ_clean_linker_1, # of connection points: 2
#     Edge 101, Type (0, 0), BuildingBlock: KIFKEQ_clean_linker_1, # of connection points: 2
#     Edge 102, Type (0, 0), BuildingBlock: KIFKEQ_clean_linker_1, # of connection points: 2
#     Edge 103, Type (0, 0), BuildingBlock: KIFKEQ_clean_linker_1, # of connection points: 2
#     Edge 104, Type (0, 0), BuildingBlock: KIFKEQ_clean_linker_1, # of connection points: 2
#     Edge 105, Type (0, 0), BuildingBlock: KIFKEQ_clean_linker_1, # of connection points: 2
#     Edge 106, Type (0, 0), BuildingBlock: KIFKEQ_clean_linker_1, # of connection points: 2
#     Edge 107, Type (0, 0), BuildingBlock: KIFKEQ_clean_linker_1, # of connection points: 2
#     Edge 108, Type (0, 0), BuildingBlock: KIFKEQ_clean_linker_1, # of connection points: 2
#     Edge 109, Type (0, 0), BuildingBlock: KIFKEQ_clean_linker_1, # of connection points: 2
#     Edge 110, Type (0, 0), BuildingBlock: KIFKEQ_clean_linker_1, # of connection points: 2
#     Edge 111, Type (0, 0), BuildingBlock: KIFKEQ_clean_linker_1, # of connection points: 2
#     Edge 112, Type (0, 0), BuildingBlock: KIFKEQ_clean_linker_1, # of connection points: 2
#     Edge 113, Type (0, 0), BuildingBlock: KIFKEQ_clean_linker_1, # of connection points: 2
#     Edge 114, Type (0, 0), BuildingBlock: KIFKEQ_clean_linker_1, # of connection points: 2
#     Edge 115, Type (0, 0), BuildingBlock: KIFKEQ_clean_linker_1, # of connection points: 2
#     Edge 116, Type (0, 0), BuildingBlock: KIFKEQ_clean_linker_1, # of connection points: 2
#     Edge 117, Type (0, 0), BuildingBlock: KIFKEQ_clean_linker_1, # of connection points: 2
#     Edge 118, Type (0, 0), BuildingBlock: KIFKEQ_clean_linker_1, # of connection points: 2
#     Edge 119, Type (0, 0), BuildingBlock: KIFKEQ_clean_linker_1, # of connection points: 2
#     Edge 120, Type (0, 0), BuildingBlock: KIFKEQ_clean_linker_1, # of connection points: 2
#     Edge 121, Type (0, 0), BuildingBlock: KIFKEQ_clean_linker_1, # of connection points: 2
#     Edge 122, Type (0, 0), BuildingBlock: KIFKEQ_clean_linker_1, # of connection points: 2
#     Edge 123, Type (0, 0), BuildingBlock: KIFKEQ_clean_linker_1, # of connection points: 2
#     Edge 124, Type (0, 0), BuildingBlock: KIFKEQ_clean_linker_1, # of connection points: 2
#     Edge 125, Type (0, 0), BuildingBlock: KIFKEQ_clean_linker_1, # of connection points: 2
#     Edge 126, Type (0, 0), BuildingBlock: KIFKEQ_clean_linker_1, # of connection points: 2
#     Edge 127, Type (0, 0), BuildingBlock: KIFKEQ_clean_linker_1, # of connection points: 2
#     Edge 128, Type (0, 0), BuildingBlock: KIFKEQ_clean_linker_1, # of connection points: 2
#     Edge 129, Type (0, 0), BuildingBlock: KIFKEQ_clean_linker_1, # of connection points: 2
#     Edge 130, Type (0, 0), BuildingBlock: KIFKEQ_clean_linker_1, # of connection points: 2
#     Edge 131, Type (0, 0), BuildingBlock: KIFKEQ_clean_linker_1, # of connection points: 2
#     Edge 132, Type (0, 0), BuildingBlock: KIFKEQ_clean_linker_1, # of connection points: 2
#     Edge 133, Type (0, 0), BuildingBlock: KIFKEQ_clean_linker_1, # of connection points: 2
#     Edge 134, Type (0, 0), BuildingBlock: KIFKEQ_clean_linker_1, # of connection points: 2
#     Edge 135, Type (0, 0), BuildingBlock: KIFKEQ_clean_linker_1, # of connection points: 2
#     Edge 136, Type (0, 0), BuildingBlock: KIFKEQ_clean_linker_1, # of connection points: 2
#     Edge 137, Type (0, 0), BuildingBlock: KIFKEQ_clean_linker_1, # of connection points: 2
#     Edge 138, Type (0, 0), BuildingBlock: KIFKEQ_clean_linker_1, # of connection points: 2
#     Edge 139, Type (0, 0), BuildingBlock: KIFKEQ_clean_linker_1, # of connection points: 2
#     Edge 140, Type (0, 0), BuildingBlock: KIFKEQ_clean_linker_1, # of connection points: 2
#     Edge 141, Type (0, 0), BuildingBlock: KIFKEQ_clean_linker_1, # of connection points: 2
#     Edge 142, Type (0, 0), BuildingBlock: KIFKEQ_clean_linker_1, # of connection points: 2
#     Edge 143, Type (0, 0), BuildingBlock: KIFKEQ_clean_linker_1, # of connection points: 2
# Relax obj value: 0.526
# Max RMSD: 0.259
# Mean RMSD: 0.214
data_MOF--net-unx--node1-GALJAG_clean_sbu_0--edge1-KIFKEQ_clean_linker_1
_symmetry_space_group_name_H-M    P1
_symmetry_Int_Tables_number       1
_symmetry_cell_setting            triclinic
loop_
_symmetry_equiv_pos_as_xyz
'x, y, z'
_cell_length_a     55.593568
_cell_length_b     55.755505
_cell_length_c     55.049572
_cell_angle_alpha  89.887787
_cell_angle_beta   90.095138
_cell_angle_gamma 90.391375
loop_
_atom_site_label
_atom_site_type_symbol
_atom_site_fract_x
_atom_site_fract_y
_atom_site_fract_z
_atom_type_partial_charge
In0 In 0.21595 0.58242 0.22551 0.0
O1 O 0.24364 0.61132 0.23606 0.0
O2 O 0.2439 0.57784 0.25494 0.0
C3 C 0.19012 0.59724 0.1869 0.0
C4 C 0.24332 0.55314 0.19906 0.0
C5 C 0.18029 0.57862 0.25826 0.0
O6 O 0.20305 0.61171 0.19909 0.0
O7 O 0.19012 0.57591 0.19455 0.0
O8 O 0.19151 0.56046 0.25053 0.0
O9 O 0.18779 0.59853 0.25014 0.0
C10 C 0.25397 0.59798 0.25155 0.0
O11 O 0.22568 0.54493 0.21117 0.0
O12 O 0.24672 0.57546 0.20062 0.0
In13 In 0.63474 0.30914 0.46758 0.0
O14 O 0.59949 0.31055 0.44597 0.0
O15 O 0.62817 0.28898 0.43272 0.0
C16 C 0.62763 0.34846 0.49535 0.0
C17 C 0.63581 0.26606 0.49038 0.0
C18 C 0.67227 0.32991 0.44446 0.0
O19 O 0.61213 0.34155 0.48001 0.0
O20 O 0.64501 0.33432 0.49817 0.0
O21 O 0.67431 0.32121 0.46554 0.0
O22 O 0.65188 0.32706 0.43488 0.0
C23 C 0.60704 0.29657 0.42956 0.0
O24 O 0.65321 0.2745 0.47836 0.0
O25 O 0.6182 0.28011 0.49241 0.0
In26 In 0.95229 0.89569 0.65594 0.0
O27 O 0.93246 0.88569 0.69087 0.0
O28 O 0.93203 0.92218 0.67888 0.0
C29 C 0.96876 0.8576 0.6321 0.0
C30 C 0.91376 0.899 0.62735 0.0
C31 C 0.99627 0.91418 0.66399 0.0
O32 O 0.96124 0.85579 0.65381 0.0
O33 O 0.96792 0.8784 0.62302 0.0
O34 O 0.98175 0.92369 0.64903 0.0
O35 O 0.98766 0.89687 0.67617 0.0
C36 C 0.92372 0.90652 0.69337 0.0
O37 O 0.93077 0.91427 0.62552 0.0
O38 O 0.91683 0.88245 0.64266 0.0
In39 In 0.34111 0.06248 0.90417 0.0
O40 O 0.37784 0.07989 0.89546 0.0
O41 O 0.34618 0.09279 0.87786 0.0
C42 C 0.34605 0.02236 0.93087 0.0
C43 C 0.31835 0.09538 0.93106 0.0
C44 C 0.33385 0.03775 0.8635 0.0
O45 O 0.36327 0.03721 0.92826 0.0
O46 O 0.32615 0.02904 0.92203 0.0
O47 O 0.31741 0.05104 0.87189 0.0
O48 O 0.35314 0.03722 0.87555 0.0
C49 C 0.36866 0.0945 0.88038 0.0
O50 O 0.30759 0.08349 0.91465 0.0
O51 O 0.33972 0.08889 0.93529 0.0
In52 In 0.05133 0.39715 0.84253 0.0
O53 O 0.04042 0.35787 0.84696 0.0
O54 O 0.03628 0.38163 0.87706 0.0
C55 C 0.07989 0.39954 0.80325 0.0
C56 C 0.00772 0.41634 0.83459 0.0
C57 C 0.08956 0.40513 0.87088 0.0
O58 O 0.0707 0.38 0.8106 0.0
O59 O 0.07211 0.41806 0.81383 0.0
O60 O 0.07383 0.42131 0.86807 0.0
O61 O 0.08537 0.38556 0.86027 0.0
C62 C 0.03393 0.36062 0.86884 0.0
O63 O 0.02302 0.42621 0.84852 0.0
O64 O 0.01542 0.39836 0.82309 0.0
In65 In 0.84316 0.44258 0.08706 0.0
O66 O 0.8334 0.46353 0.12082 0.0
O67 O 0.8696 0.46547 0.10645 0.0
C68 C 0.81999 0.40841 0.06296 0.0
C69 C 0.84041 0.48038 0.05781 0.0
C70 C 0.86312 0.40897 0.11434 0.0
O71 O 0.8095 0.42065 0.07933 0.0
O72 O 0.84123 0.41513 0.05762 0.0
O73 O 0.8744 0.41816 0.09633 0.0
O74 O 0.84201 0.41677 0.11797 0.0
C75 C 0.8548 0.47186 0.12273 0.0
O76 O 0.85851 0.46646 0.05739 0.0
O77 O 0.82317 0.47384 0.07151 0.0
In78 In 0.79206 0.06795 0.28056 0.0
O79 O 0.78678 0.09052 0.31489 0.0
O80 O 0.82222 0.08674 0.30124 0.0
C81 C 0.7481 0.0801 0.26348 0.0
C82 C 0.82444 0.06674 0.24388 0.0
C83 C 0.78475 0.02894 0.30906 0.0
O84 O 0.7619 0.09543 0.27332 0.0
O85 O 0.75717 0.05959 0.26099 0.0
O86 O 0.77072 0.03466 0.29207 0.0
O87 O 0.80383 0.0412 0.30969 0.0
C88 C 0.80896 0.09455 0.31795 0.0
O89 O 0.81704 0.048 0.25451 0.0
O90 O 0.81438 0.08577 0.25071 0.0
In91 In 0.13701 0.18038 0.52428 0.0
O92 O 0.17662 0.17281 0.5343 0.0
O93 O 0.14882 0.14837 0.54521 0.0
C94 C 0.13622 0.22302 0.50096 0.0
C95 C 0.13016 0.14453 0.49212 0.0
C96 C 0.11515 0.19296 0.56589 0.0
O97 O 0.15554 0.21359 0.5084 0.0
O98 O 0.11754 0.21038 0.50424 0.0
O99 O 0.10406 0.1819 0.54914 0.0
O100 O 0.13691 0.1978 0.56134 0.0
C101 C 0.17102 0.15299 0.54423 0.0
O102 O 0.11425 0.14987 0.50762 0.0
O103 O 0.14751 0.15923 0.49095 0.0
In104 In 0.15543 0.93409 0.40978 0.0
O105 O 0.19065 0.91364 0.41364 0.0
O106 O 0.16202 0.90627 0.43869 0.0
C107 C 0.1484 0.96328 0.37241 0.0
C108 C 0.13104 0.90004 0.3863 0.0
C109 C 0.15448 0.97219 0.43922 0.0
O110 O 0.16896 0.95387 0.37593 0.0
O111 O 0.13218 0.95755 0.38747 0.0
O112 O 0.13742 0.95685 0.43906 0.0
O113 O 0.17272 0.96663 0.42665 0.0
C114 C 0.18256 0.90045 0.4307 0.0
O115 O 0.12139 0.91142 0.40378 0.0
O116 O 0.15237 0.90614 0.38109 0.0
In117 In 0.28917 0.42734 0.71875 0.0
O118 O 0.27664 0.46262 0.70099 0.0
O119 O 0.26049 0.4292 0.6906 0.0
C120 C 0.32469 0.43433 0.7511 0.0
C121 C 0.25076 0.41373 0.745 0.0
C122 C 0.31779 0.4106 0.68346 0.0
O123 O 0.31449 0.45161 0.74025 0.0
O124 O 0.31577 0.41383 0.74679 0.0
O125 O 0.30379 0.39672 0.6952 0.0
O126 O 0.31723 0.43231 0.68978 0.0
C127 C 0.26127 0.45165 0.68793 0.0
O128 O 0.26187 0.39918 0.73139 0.0
O129 O 0.26034 0.43433 0.74677 0.0
In130 In 0.84626 0.69011 0.96681 0.0
O131 O 0.88092 0.68093 0.94689 0.0
O132 O 0.85736 0.70645 0.93076 0.0
C133 C 0.8514 0.65095 0.99527 0.0
C134 C 0.84906 0.73381 0.98829 0.0
C135 C 0.807 0.67107 0.94478 0.0
O136 O 0.86767 0.65768 0.98071 0.0
O137 O 0.83389 0.66511 0.99694 0.0
O138 O 0.80706 0.67662 0.96699 0.0
O139 O 0.8258 0.67702 0.93355 0.0
C140 C 0.8766 0.69467 0.92908 0.0
O141 O 0.83188 0.7275 0.97472 0.0
O142 O 0.86424 0.71757 0.9923 0.0
In143 In 0.54648 0.12005 0.1747 0.0
O144 O 0.56678 0.12751 0.21017 0.0
O145 O 0.56926 0.0928 0.19384 0.0
C146 C 0.52521 0.15643 0.1522 0.0
C147 C 0.58391 0.12562 0.14507 0.0
C148 C 0.50429 0.0979 0.18186 0.0
O149 O 0.53385 0.15893 0.17351 0.0
O150 O 0.52702 0.13569 0.14311 0.0
O151 O 0.51921 0.09068 0.16604 0.0
O152 O 0.51179 0.1148 0.19535 0.0
C153 C 0.57683 0.10708 0.21004 0.0
O154 O 0.57114 0.10657 0.14424 0.0
O155 O 0.57736 0.1411 0.16037 0.0
In156 In 0.54205 0.30505 0.98286 0.0
O157 O 0.58253 0.30857 0.9761 0.0
O158 O 0.56504 0.27567 0.96683 0.0
C159 C 0.53366 0.34083 0.01474 0.0
C160 C 0.52282 0.31173 0.93826 0.0
C161 C 0.53199 0.27235 0.01739 0.0
O162 O 0.5544 0.3364 0.00657 0.0
O163 O 0.51693 0.32937 0.00433 0.0
O164 O 0.51682 0.27748 0.00104 0.0
O165 O 0.55212 0.28263 0.01523 0.0
C166 C 0.58444 0.28756 0.96765 0.0
O167 O 0.51504 0.29604 0.95293 0.0
O168 O 0.53911 0.32523 0.94678 0.0
In169 In 0.02709 0.7673 0.22984 0.0
O170 O 0.99901 0.74648 0.25201 0.0
O171 O 0.03546 0.73469 0.2527 0.0
C172 C 0.00911 0.80731 0.21007 0.0
C173 C 0.05141 0.79157 0.26411 0.0
C174 C 0.03578 0.74545 0.18721 0.0
O175 O 0.99582 0.79316 0.22229 0.0
O176 O 0.03072 0.80091 0.20791 0.0
O177 O 0.0526 0.75308 0.2008 0.0
O178 O 0.01485 0.74749 0.19595 0.0
C179 C 0.01442 0.73233 0.26109 0.0
O180 O 0.06226 0.78136 0.24673 0.0
O181 O 0.0288 0.78956 0.26376 0.0
In182 In 0.42577 0.34297 0.49249 0.0
O183 O 0.39097 0.32672 0.47727 0.0
O184 O 0.39712 0.36464 0.4746 0.0
C185 C 0.45145 0.3135 0.52062 0.0
C186 C 0.4517 0.35082 0.45201 0.0
C187 C 0.40831 0.36173 0.53338 0.0
O188 O 0.43366 0.306 0.50816 0.0
O189 O 0.45777 0.33499 0.51638 0.0
O190 O 0.42258 0.37391 0.52003 0.0
O191 O 0.40283 0.34115 0.52553 0.0
C192 C 0.38316 0.34709 0.47063 0.0
O193 O 0.44971 0.36667 0.46844 0.0
O194 O 0.44202 0.33076 0.45698 0.0
In195 In 0.97679 0.63014 0.73896 0.0
O196 O 0.97105 0.58952 0.74085 0.0
O197 O 0.94318 0.61114 0.72596 0.0
C198 C 0.01229 0.63345 0.7726 0.0
C199 C 0.98722 0.64056 0.69195 0.0
C200 C 0.94665 0.65336 0.76901 0.0
O201 O 0.00356 0.61349 0.76602 0.0
O202 O 0.00523 0.65107 0.76012 0.0
O203 O 0.96074 0.66476 0.75505 0.0
O204 O 0.94697 0.63096 0.76645 0.0
C205 C 0.94998 0.59042 0.73204 0.0
O206 O 0.9714 0.65143 0.70402 0.0
O207 O 0.99916 0.62549 0.7041 0.0
In208 In 0.09555 0.66297 0.98702 0.0
O209 O 0.09683 0.63237 0.01528 0.0
O210 O 0.12181 0.66181 0.01753 0.0
C211 C 0.07076 0.65862 0.94534 0.0
C212 C 0.07054 0.69173 0.01629 0.0
C213 C 0.13741 0.65693 0.96472 0.0
O214 O 0.07095 0.64193 0.96114 0.0
O215 O 0.08146 0.67779 0.95161 0.0
O216 O 0.13099 0.67752 0.97218 0.0
O217 O 0.12235 0.64009 0.96805 0.0
C218 C 0.11424 0.64236 0.02661 0.0
O219 O 0.08875 0.69935 0.00455 0.0
O220 O 0.0637 0.67067 0.01093 0.0
In221 In 0.4786 0.86147 0.25974 0.0
O222 O 0.47223 0.90193 0.25991 0.0
O223 O 0.444 0.87862 0.27182 0.0
C224 C 0.51569 0.85895 0.22818 0.0
C225 C 0.48774 0.85042 0.30685 0.0
C226 C 0.45082 0.83978 0.22607 0.0
O227 O 0.50673 0.87878 0.23451 0.0
O228 O 0.50809 0.84113 0.24017 0.0
O229 O 0.46257 0.82761 0.24145 0.0
O230 O 0.45188 0.86211 0.2292 0.0
C231 C 0.45078 0.89987 0.2675 0.0
O232 O 0.47223 0.83942 0.29419 0.0
O233 O 0.49995 0.86582 0.29523 0.0
In234 In 0.48418 0.23009 0.73332 0.0
O235 O 0.51557 0.20387 0.72895 0.0
O236 O 0.48387 0.19903 0.70745 0.0
C237 C 0.49554 0.26386 0.76639 0.0
C238 C 0.47767 0.25398 0.69132 0.0
C239 C 0.45772 0.20341 0.76419 0.0
O240 O 0.5114 0.25057 0.75691 0.0
O241 O 0.47462 0.26119 0.75775 0.0
O242 O 0.44793 0.21515 0.74709 0.0
O243 O 0.48031 0.20524 0.76527 0.0
C244 C 0.50448 0.19153 0.7131 0.0
O245 O 0.46021 0.24535 0.70339 0.0
O246 O 0.49807 0.25185 0.70131 0.0
In247 In 0.53588 0.36433 0.24149 0.0
O248 O 0.52967 0.38537 0.27634 0.0
O249 O 0.50023 0.36506 0.26265 0.0
C250 C 0.57244 0.39551 0.23522 0.0
C251 C 0.549 0.32504 0.26656 0.0
C252 C 0.52239 0.35833 0.19441 0.0
O253 O 0.55116 0.40238 0.23915 0.0
O254 O 0.57509 0.37305 0.23441 0.0
O255 O 0.53513 0.34361 0.20599 0.0
O256 O 0.51467 0.37549 0.20712 0.0
C257 C 0.50863 0.37755 0.27992 0.0
O258 O 0.52765 0.32832 0.25956 0.0
O259 O 0.56395 0.34042 0.25892 0.0
In260 In 0.21227 0.97707 0.65875 0.0
O261 O 0.21681 0.9943 0.62147 0.0
O262 O 0.22843 0.0141 0.65245 0.0
C263 C 0.17483 0.9466 0.65291 0.0
C264 C 0.25487 0.95427 0.66238 0.0
C265 C 0.18524 0.00207 0.68989 0.0
O266 O 0.18234 0.96001 0.63596 0.0
O267 O 0.18806 0.94647 0.6716 0.0
O268 O 0.20352 0.99066 0.69734 0.0
O269 O 0.18194 0.00167 0.66724 0.0
C270 C 0.22586 0.01353 0.62968 0.0
O271 O 0.24591 0.9658 0.67991 0.0
O272 O 0.24166 0.95308 0.64375 0.0
In273 In 0.83465 0.9481 0.01138 0.0
O274 O 0.85847 0.92085 0.99278 0.0
O275 O 0.85709 0.9197 0.03122 0.0
C276 C 0.81904 0.96769 0.96954 0.0
C277 C 0.7967 0.92155 0.02563 0.0
C278 C 0.8492 0.98998 0.03137 0.0
O279 O 0.84013 0.95975 0.97205 0.0
O280 O 0.80584 0.96554 0.98805 0.0
O281 O 0.83068 0.97877 0.0384 0.0
O282 O 0.8617 0.97881 0.01605 0.0
C283 C 0.86401 0.9097 0.01191 0.0
O284 O 0.80808 0.93483 0.04039 0.0
O285 O 0.80397 0.92257 0.00395 0.0
In286 In 0.9712 0.52561 0.31069 0.0
O287 O 0.94509 0.52588 0.34291 0.0
O288 O 0.94704 0.5569 0.32072 0.0
C289 C 0.98862 0.4807 0.31361 0.0
C290 C 0.94334 0.52019 0.27097 0.0
C291 C 0.01317 0.5501 0.3133 0.0
O292 O 0.97615 0.48983 0.33038 0.0
O293 O 0.99241 0.49428 0.29563 0.0
O294 O 0.99917 0.55128 0.2953 0.0
O295 O 0.00538 0.53759 0.3308 0.0
C296 C 0.93639 0.54613 0.33779 0.0
O297 O 0.95963 0.53603 0.2722 0.0
O298 O 0.94171 0.50681 0.28937 0.0
In299 In 0.24696 0.68254 0.46118 0.0
O300 O 0.242 0.71521 0.43585 0.0
O301 O 0.22597 0.71581 0.47091 0.0
C302 C 0.27633 0.65161 0.43867 0.0
C303 C 0.27978 0.69716 0.49381 0.0
C304 C 0.21007 0.65088 0.46257 0.0
O305 O 0.26804 0.66988 0.42773 0.0
O306 O 0.26972 0.64932 0.46049 0.0
O307 O 0.22184 0.65671 0.48139 0.0
O308 O 0.21572 0.66246 0.44365 0.0
C309 C 0.23034 0.72705 0.45148 0.0
O310 O 0.2587 0.69131 0.50035 0.0
O311 O 0.28396 0.6954 0.4714 0.0
In312 In 0.03318 0.02509 0.18866 0.0
O313 O 0.00549 0.05006 0.20537 0.0
O314 O -0.00023 0.03895 0.16891 0.0
C315 C 0.06218 0.01888 0.22724 0.0
C316 C 0.01315 0.98105 0.18641 0.0
C317 C 0.07004 0.04202 0.16152 0.0
O318 O 0.04794 0.03644 0.22584 0.0
O319 O 0.06093 0.00433 0.20979 0.0
O320 O 0.06035 0.0218 0.15788 0.0
O321 O 0.05901 0.05491 0.1766 0.0
C322 C 0.99175 0.0501 0.18709 0.0
O323 O 0.02199 0.9913 0.16788 0.0
O324 O 0.01433 0.99313 0.20575 0.0
In325 In 0.73731 0.8066 0.52133 0.0
O326 O 0.71553 0.83335 0.4987 0.0
O327 O 0.70777 0.82983 0.53648 0.0
C328 C 0.7692 0.78263 0.49444 0.0
C329 C 0.77002 0.83385 0.54464 0.0
C330 C 0.71295 0.76601 0.53127 0.0
O331 O 0.75559 0.79815 0.48471 0.0
O332 O 0.76675 0.78003 0.51705 0.0
O333 O 0.72497 0.77715 0.54731 0.0
O334 O 0.71177 0.77643 0.51086 0.0
C335 C 0.70356 0.84069 0.51679 0.0
O336 O 0.75748 0.81819 0.55563 0.0
O337 O 0.76588 0.83566 0.52216 0.0
In338 In 0.79269 0.47938 0.84465 0.0
O339 O 0.8028 0.48873 0.80505 0.0
O340 O 0.82135 0.50576 0.83429 0.0
C341 C 0.75034 0.45543 0.84251 0.0
C342 C 0.83024 0.44989 0.8521 0.0
C343 C 0.77791 0.5174 0.87051 0.0
O344 O 0.75934 0.46603 0.82429 0.0
O345 O 0.76336 0.4558 0.86135 0.0
O346 O 0.78942 0.50029 0.88011 0.0
O347 O 0.77362 0.51501 0.8481 0.0
C348 C 0.81969 0.50266 0.81169 0.0
O349 O 0.82326 0.46449 0.86813 0.0
O350 O 0.81642 0.44815 0.83396 0.0
In351 In 0.33053 0.55458 0.99954 0.0
O352 O 0.33705 0.54394 0.03902 0.0
O353 O 0.30183 0.53912 0.02453 0.0
C354 C 0.35998 0.59343 0.99723 0.0
C355 C 0.34351 0.5116 0.98117 0.0
C356 C 0.29254 0.57948 0.9833 0.0
O357 O 0.35321 0.584 0.0169 0.0
O358 O 0.35425 0.58157 0.97855 0.0
O359 O 0.30455 0.5661 0.96937 0.0
O360 O 0.29919 0.57937 0.00522 0.0
C361 C 0.31567 0.53698 0.0426 0.0
O362 O 0.3255 0.52307 0.97362 0.0
O363 O 0.35633 0.52286 0.99633 0.0
In364 In 0.25805 0.31065 0.97961 0.0
O365 O 0.24553 0.29945 0.01806 0.0
O366 O 0.2202 0.29982 0.98896 0.0
C367 C 0.29503 0.34214 0.98332 0.0
C368 C 0.27425 0.26648 0.9681 0.0
C369 C 0.23001 0.34067 0.95413 0.0
O370 O 0.28165 0.33698 0.00119 0.0
O371 O 0.29078 0.33012 0.96438 0.0
O372 O 0.2392 0.32218 0.94458 0.0
O373 O 0.23518 0.34385 0.97625 0.0
C374 C 0.22411 0.29576 0.01109 0.0
O375 O 0.26274 0.27925 0.95311 0.0
O376 O 0.27859 0.27652 0.98817 0.0
In377 In 0.29335 0.02178 0.1667 0.0
O378 O 0.25705 0.02381 0.18579 0.0
O379 O 0.26305 0.04724 0.15586 0.0
C380 C 0.32162 0.9964 0.19668 0.0
C381 C 0.2837 0.98808 0.13312 0.0
C382 C 0.32853 0.05515 0.16465 0.0
O383 O 0.30418 0.00846 0.20492 0.0
O384 O 0.32336 0.99624 0.17387 0.0
O385 O 0.32212 0.04311 0.14625 0.0
O386 O 0.31519 0.05242 0.18302 0.0
C387 C 0.24841 0.03928 0.17148 0.0
O388 O 0.29229 0.00844 0.12752 0.0
O389 O 0.27963 0.98511 0.15547 0.0
In390 In 0.67682 0.05441 0.50156 0.0
O391 O 0.65131 0.08072 0.48371 0.0
O392 O 0.6506 0.07852 0.52221 0.0
C393 C 0.69975 0.03907 0.46132 0.0
C394 C 0.7113 0.08184 0.52199 0.0
C395 C 0.65968 0.01127 0.51619 0.0
O396 O 0.67943 0.049 0.46053 0.0
O397 O 0.70875 0.03747 0.48229 0.0
O398 O 0.67431 0.02345 0.52877 0.0
O399 O 0.65198 0.02193 0.49754 0.0
C400 C 0.64352 0.08937 0.50334 0.0
O401 O 0.70535 0.06172 0.53087 0.0
O402 O 0.70045 0.08755 0.50275 0.0
In403 In 0.54102 0.46957 0.80294 0.0
O404 O 0.55566 0.46153 0.76516 0.0
O405 O 0.5739 0.48769 0.78667 0.0
C406 C 0.49785 0.44743 0.7982 0.0
C407 C 0.574 0.44675 0.83043 0.0
C408 C 0.52393 0.51441 0.8081 0.0
O409 O 0.51215 0.4508 0.78074 0.0
O410 O 0.50615 0.45342 0.81872 0.0
O411 O 0.53036 0.50201 0.82622 0.0
O412 O 0.52651 0.50428 0.78785 0.0
C413 C 0.57314 0.47604 0.76706 0.0
O414 O 0.56549 0.4669 0.83621 0.0
O415 O 0.56361 0.43693 0.81258 0.0
In416 In 0.5314 0.72735 0.7703 0.0
O417 O 0.55772 0.74212 0.79865 0.0
O418 O 0.52009 0.74758 0.80404 0.0
C419 C 0.55307 0.70111 0.736 0.0
C420 C 0.51381 0.68795 0.79185 0.0
C421 C 0.51873 0.76189 0.73868 0.0
O422 O 0.56522 0.71211 0.75214 0.0
O423 O 0.53058 0.70354 0.73749 0.0
O424 O 0.50323 0.74818 0.74855 0.0
O425 O 0.54001 0.7593 0.74639 0.0
C426 C 0.5412 0.74979 0.81245 0.0
O427 O 0.50022 0.7016 0.77951 0.0
O428 O 0.5355 0.69462 0.79333 0.0
In429 In 0.03299 0.19411 0.02332 0.0
O430 O 0.00395 0.20167 0.05141 0.0
O431 O 0.02804 0.17314 0.05887 0.0
C432 C 0.02673 0.2302 0.99166 0.0
C433 C 0.07568 0.20955 0.0407 0.0
C434 C 0.02403 0.16144 0.98805 0.0
O435 O 0.01126 0.22564 0.00791 0.0
O436 O 0.04522 0.21728 0.99231 0.0
O437 O 0.04439 0.16367 0.99807 0.0
O438 O 0.00757 0.17322 0.99821 0.0
C439 C 0.01103 0.18607 0.06642 0.0
O440 O 0.07306 0.18882 0.03166 0.0
O441 O 0.05677 0.22194 0.04129 0.0
In442 In 0.90265 0.16886 0.5148 0.0
O443 O 0.90115 0.13708 0.4877 0.0
O444 O 0.87392 0.16386 0.48695 0.0
C445 C 0.93128 0.16144 0.55362 0.0
C446 C 0.92437 0.19916 0.48366 0.0
C447 C 0.86169 0.16771 0.54011 0.0
O448 O 0.92667 0.14504 0.5383 0.0
O449 O 0.92282 0.18183 0.54829 0.0
O450 O 0.86901 0.18683 0.52986 0.0
O451 O 0.87557 0.14995 0.53832 0.0
C452 C 0.88212 0.14499 0.47772 0.0
O453 O 0.90682 0.20556 0.49676 0.0
O454 O 0.93244 0.1785 0.48831 0.0
In455 In 0.03127 0.14228 0.75866 0.0
O456 O 0.03126 0.1783 0.73845 0.0
O457 O 0.06407 0.1593 0.74087 0.0
C458 C 0.01959 0.14939 0.8062 0.0
C459 C 0.99913 0.13492 0.72221 0.0
C460 C 0.0623 0.10562 0.76223 0.0
O461 O 0.03412 0.16258 0.79467 0.0
O462 O 0.00952 0.13351 0.79335 0.0
O463 O 0.04007 0.10229 0.7584 0.0
O464 O 0.06854 0.12729 0.7647 0.0
C465 C 0.05293 0.1768 0.73187 0.0
O466 O 0.0172 0.12175 0.72562 0.0
O467 O 0.99585 0.15034 0.73868 0.0
In468 In 0.46788 0.8001 0.52331 0.0
O469 O 0.49072 0.76884 0.50912 0.0
O470 O 0.4575 0.77696 0.49172 0.0
C471 C 0.48748 0.80893 0.56744 0.0
C472 C 0.47763 0.83296 0.48837 0.0
C473 C 0.42476 0.78346 0.53816 0.0
O474 O 0.49583 0.79356 0.55294 0.0
O475 O 0.47037 0.82119 0.55893 0.0
O476 O 0.42736 0.80437 0.52946 0.0
O477 O 0.44391 0.77155 0.53985 0.0
C478 C 0.47609 0.76419 0.49209 0.0
O479 O 0.45698 0.83053 0.49767 0.0
O480 O 0.49386 0.82127 0.4991 0.0
In481 In 0.6001 0.83226 0.01442 0.0
O482 O 0.57497 0.85212 0.04036 0.0
O483 O 0.58612 0.81656 0.04962 0.0
C484 C 0.61707 0.85585 0.97566 0.0
C485 C 0.642 0.83899 0.03695 0.0
C486 C 0.57655 0.80271 0.98417 0.0
O487 O 0.59921 0.86399 0.98749 0.0
O488 O 0.626 0.83674 0.98394 0.0
O489 O 0.59516 0.79597 0.99569 0.0
O490 O 0.56862 0.82306 0.99025 0.0
C491 C 0.57504 0.83531 0.05601 0.0
O492 O 0.63598 0.81845 0.02879 0.0
O493 O 0.6266 0.85538 0.03413 0.0
In494 In 0.71915 0.5134 0.33458 0.0
O495 O 0.70402 0.51513 0.29583 0.0
O496 O 0.71544 0.48144 0.30922 0.0
C497 C 0.76086 0.53886 0.33871 0.0
C498 C 0.67595 0.53453 0.34182 0.0
C499 C 0.72631 0.47548 0.36393 0.0
O500 O 0.75396 0.52944 0.31911 0.0
O501 O 0.74616 0.5366 0.35595 0.0
O502 O 0.71515 0.49395 0.37091 0.0
O503 O 0.73412 0.47649 0.34241 0.0
C504 C 0.70554 0.49287 0.29222 0.0
O505 O 0.68264 0.51632 0.35359 0.0
O506 O 0.69178 0.5432 0.32786 0.0
In507 In 0.17997 0.43748 0.48372 0.0
O508 O 0.18536 0.46833 0.45682 0.0
O509 O 0.1542 0.46906 0.47887 0.0
C510 C 0.22002 0.413 0.47278 0.0
C511 C 0.19202 0.45546 0.52752 0.0
C512 C 0.15043 0.39917 0.47708 0.0
O513 O 0.2105 0.42744 0.4579 0.0
O514 O 0.20964 0.4115 0.49311 0.0
O515 O 0.1531 0.4093 0.49737 0.0
O516 O 0.1607 0.40983 0.45968 0.0
C517 C 0.16716 0.47992 0.46356 0.0
O518 O 0.17147 0.4466 0.52322 0.0
O519 O 0.20642 0.45496 0.50985 0.0
In520 In 0.46394 0.97634 0.69581 0.0
O521 O 0.47193 0.00919 0.6718 0.0
O522 O 0.485 0.00879 0.70824 0.0
C523 C 0.43154 0.95022 0.67063 0.0
C524 C 0.50602 0.95341 0.70171 0.0
C525 C 0.43065 0.98725 0.72929 0.0
O526 O 0.44047 0.96949 0.6623 0.0
O527 O 0.44142 0.94278 0.68985 0.0
O528 O 0.44718 0.97233 0.73345 0.0
O529 O 0.43172 0.99736 0.70883 0.0
C530 C 0.48362 0.01991 0.68834 0.0
O531 O 0.49161 0.95741 0.71892 0.0
O532 O 0.49827 0.9592 0.68088 0.0
In533 In 0.76508 0.18991 0.02124 0.0
O534 O 0.74458 0.18851 0.05723 0.0
O535 O 0.73684 0.16199 0.03046 0.0
C536 C 0.77902 0.23512 0.03186 0.0
C537 C 0.80164 0.15783 0.02167 0.0
C538 C 0.73546 0.20114 0.98365 0.0
O539 O 0.76489 0.22328 0.0454 0.0
O540 O 0.78694 0.2237 0.01378 0.0
O541 O 0.75518 0.21183 0.9872 0.0
O542 O 0.73192 0.18357 0.99757 0.0
C543 C 0.73229 0.17024 0.05125 0.0
O544 O 0.7899 0.16259 0.00263 0.0
O545 O 0.79587 0.17022 0.03978 0.0
In546 In 0.96666 0.27209 0.26798 0.0
O547 O 0.9739 0.30122 0.29551 0.0
O548 O 0.00113 0.29521 0.26913 0.0
C549 C 0.9771 0.23728 0.23559 0.0
C550 C 0.95375 0.25152 0.31048 0.0
C551 C 0.94138 0.30056 0.2377 0.0
O552 O 0.99339 0.24898 0.24662 0.0
O553 O 0.95596 0.24207 0.24226 0.0
O554 O 0.93099 0.28532 0.25124 0.0
O555 O 0.96389 0.30142 0.23993 0.0
C556 C 0.99398 0.30752 0.28698 0.0
O557 O 0.94022 0.26573 0.29896 0.0
O558 O 0.97321 0.24645 0.29979 0.0
In559 In 0.96643 0.69206 0.47712 0.0
O560 O 0.98838 0.72348 0.49291 0.0
O561 O 0.95475 0.71407 0.50898 0.0
C562 C 0.98623 0.68535 0.43284 0.0
C563 C 0.97736 0.65876 0.51111 0.0
C564 C 0.92262 0.70591 0.46191 0.0
O565 O 0.99338 0.70152 0.44725 0.0
O566 O 0.97036 0.67146 0.44148 0.0
O567 O 0.92669 0.68471 0.46905 0.0
O568 O 0.94071 0.71973 0.4621 0.0
C569 C 0.97321 0.72728 0.5096 0.0
O570 O 0.95652 0.66081 0.50219 0.0
O571 O 0.99321 0.67124 0.50051 0.0
In572 In 0.7149 0.93488 0.78237 0.0
O573 O 0.68826 0.95882 0.76249 0.0
O574 O 0.68831 0.92145 0.75406 0.0
C575 C 0.74199 0.96005 0.81332 0.0
C576 C 0.68886 0.91511 0.81843 0.0
C577 C 0.75395 0.9254 0.75551 0.0
O578 O 0.72575 0.9703 0.80088 0.0
O579 O 0.74397 0.93775 0.81007 0.0
O580 O 0.74266 0.90888 0.76671 0.0
O581 O 0.74419 0.94582 0.75626 0.0
C582 C 0.67859 0.94166 0.75088 0.0
O583 O 0.70239 0.90243 0.80511 0.0
O584 O 0.68842 0.9371 0.81305 0.0
In585 In 0.36745 0.81751 0.01961 0.0
O586 O 0.38878 0.8446 0.99655 0.0
O587 O 0.35242 0.83686 0.98691 0.0
C588 C 0.39404 0.80719 0.05898 0.0
C589 C 0.33877 0.84872 0.04211 0.0
C590 C 0.36376 0.77269 0.00168 0.0
O591 O 0.40296 0.81791 0.04072 0.0
O592 O 0.37218 0.8013 0.05687 0.0
O593 O 0.34678 0.78278 0.01297 0.0
O594 O 0.38202 0.78587 0.99797 0.0
C595 C 0.37067 0.85014 0.98373 0.0
O596 O 0.33004 0.82971 0.03283 0.0
O597 O 0.36134 0.85063 0.04114 0.0
In598 In 0.45687 0.59629 0.34424 0.0
O599 O 0.46651 0.63588 0.3488 0.0
O600 O 0.47254 0.61193 0.37849 0.0
C601 C 0.42484 0.6073 0.3091 0.0
C602 C 0.4992 0.57553 0.33247 0.0
C603 C 0.42145 0.57771 0.37227 0.0
O604 O 0.43172 0.62237 0.32481 0.0
O605 O 0.43605 0.58765 0.30963 0.0
O606 O 0.42518 0.57049 0.35092 0.0
O607 O 0.43734 0.59184 0.38024 0.0
C608 C 0.47382 0.63312 0.37044 0.0
O609 O 0.48413 0.56547 0.34637 0.0
O610 O 0.49195 0.5948 0.32306 0.0
In611 In 0.6481 0.55791 0.58448 0.0
O612 O 0.62564 0.53337 0.55968 0.0
O613 O 0.66336 0.52684 0.56374 0.0
C614 C 0.6241 0.58956 0.61156 0.0
C615 C 0.6557 0.53034 0.62313 0.0
C616 C 0.66887 0.59265 0.55813 0.0
O617 O 0.61296 0.57602 0.59666 0.0
O618 O 0.64657 0.58673 0.61246 0.0
O619 O 0.68073 0.58008 0.57316 0.0
O620 O 0.6473 0.58593 0.55483 0.0
C621 C 0.64336 0.51979 0.5552 0.0
O622 O 0.67231 0.54387 0.61501 0.0
O623 O 0.63596 0.53095 0.61177 0.0
H624 H 0.34237 0.52668 0.08292 0.0
H625 H 0.26931 0.5289 0.05633 0.0
H626 H 0.3275 0.51943 0.124 0.0
H627 H 0.25439 0.52266 0.09732 0.0
H628 H 0.22884 0.51476 0.17153 0.0
H629 H 0.24897 0.50072 0.13464 0.0
H630 H 0.30941 0.54741 0.15054 0.0
H631 H 0.28961 0.56075 0.18714 0.0
C632 C 0.32315 0.52529 0.08582 0.0
C633 C 0.30697 0.52887 0.06657 0.0
C634 C 0.31461 0.52114 0.10933 0.0
C635 C 0.28974 0.52084 0.11408 0.0
C636 C 0.27365 0.52253 0.09441 0.0
C637 C 0.2822 0.52641 0.07088 0.0
C638 C 0.24686 0.52113 0.16755 0.0
C639 C 0.25761 0.53903 0.18186 0.0
C640 C 0.25829 0.51332 0.14634 0.0
C641 C 0.28062 0.52327 0.13934 0.0
C642 C 0.29234 0.53919 0.15528 0.0
C643 C 0.28092 0.54701 0.17626 0.0
H644 H 0.7048 0.3586 0.46771 0.0
H645 H 0.679 0.33854 0.39656 0.0
H646 H 0.72602 0.39308 0.44994 0.0
H647 H 0.70028 0.37261 0.37881 0.0
H648 H 0.74426 0.43228 0.35008 0.0
H649 H 0.73963 0.39395 0.37111 0.0
H650 H 0.70623 0.43005 0.4315 0.0
H651 H 0.71085 0.46841 0.4105 0.0
C652 C 0.70448 0.36102 0.44818 0.0
C653 C 0.69024 0.34605 0.43345 0.0
C654 C 0.71642 0.38083 0.43806 0.0
C655 C 0.71464 0.38561 0.41304 0.0
C656 C 0.70217 0.3693 0.39811 0.0
C657 C 0.68992 0.34982 0.40826 0.0
C658 C 0.73644 0.43212 0.3681 0.0
C659 C 0.72758 0.45328 0.37853 0.0
C660 C 0.73379 0.41017 0.3801 0.0
C661 C 0.72244 0.40901 0.40284 0.0
C662 C 0.71526 0.43042 0.41407 0.0
C663 C 0.71774 0.45237 0.40198 0.0
H664 H 0.90797 0.89622 0.57825 0.0
H665 H 0.86929 0.90149 0.6458 0.0
H666 H 0.87073 0.88436 0.55752 0.0
H667 H 0.83192 0.89065 0.62521 0.0
H668 H 0.78541 0.83079 0.59163 0.0
H669 H 0.81855 0.85261 0.61049 0.0
H670 H 0.83018 0.89202 0.54378 0.0
H671 H 0.79734 0.86963 0.52473 0.0
C672 C 0.89123 0.89592 0.58836 0.0
C673 C 0.89127 0.8998 0.61348 0.0
C674 C 0.86993 0.88903 0.57657 0.0
C675 C 0.84841 0.88605 0.58983 0.0
C676 C 0.84827 0.89215 0.61458 0.0
C677 C 0.86954 0.89869 0.62633 0.0
C678 C 0.79489 0.84426 0.58109 0.0
C679 C 0.78886 0.84839 0.5567 0.0
C680 C 0.8138 0.85695 0.59193 0.0
C681 C 0.82704 0.87418 0.57867 0.0
C682 C 0.82055 0.87873 0.55443 0.0
C683 C 0.80167 0.86596 0.54357 0.0
H684 H 0.42716 0.97247 0.77632 0.0
H685 H 0.38932 0.01186 0.72067 0.0
H686 H 0.39514 0.981 0.80495 0.0
H687 H 0.35666 0.01971 0.74906 0.0
H688 H 0.33202 0.06009 0.82015 0.0
H689 H 0.35094 0.0445 0.78365 0.0
H690 H 0.35478 0.97431 0.81699 0.0
H691 H 0.33705 0.99054 0.85391 0.0
C692 C 0.41181 0.98271 0.77016 0.0
C693 C 0.41088 0.9918 0.74643 0.0
C694 C 0.39323 0.98734 0.78645 0.0
C695 C 0.37313 0.00093 0.77928 0.0
C696 C 0.37193 0.00939 0.75525 0.0
C697 C 0.39066 0.00494 0.73902 0.0
C698 C 0.33571 0.04106 0.81907 0.0
C699 C 0.33315 0.02643 0.83962 0.0
C700 C 0.34676 0.03209 0.79822 0.0
C701 C 0.35511 0.00829 0.79769 0.0
C702 C 0.34927 0.9929 0.81711 0.0
C703 C 0.33869 0.00201 0.83808 0.0
H704 H 0.2068 0.37972 0.97211 0.0
H705 H 0.21437 0.33703 0.90721 0.0
H706 H 0.17546 0.40327 0.95236 0.0
H707 H 0.18287 0.3603 0.88759 0.0
H708 H 0.1335 0.40912 0.85131 0.0
H709 H 0.17127 0.39922 0.87157 0.0
H710 H 0.13379 0.39465 0.94017 0.0
H711 H 0.09617 0.40515 0.91975 0.0
C712 C 0.20196 0.37555 0.95351 0.0
C713 C 0.21292 0.35641 0.94123 0.0
C714 C 0.18396 0.389 0.94225 0.0
C715 C 0.17663 0.38368 0.91843 0.0
C716 C 0.18832 0.36515 0.90584 0.0
C717 C 0.20627 0.35166 0.91712 0.0
C718 C 0.13368 0.40715 0.87091 0.0
C719 C 0.11219 0.40823 0.88414 0.0
C720 C 0.15518 0.40112 0.88245 0.0
C721 C 0.15545 0.39569 0.90739 0.0
C722 C 0.13425 0.39888 0.92097 0.0
C723 C 0.11272 0.40504 0.90937 0.0
H724 H 0.89635 0.49715 0.12621 0.0
H725 H 0.83257 0.47791 0.1667 0.0
H726 H 0.91466 0.51323 0.16274 0.0
H727 H 0.85078 0.49468 0.20353 0.0
H728 H 0.90874 0.48615 0.2643 0.0
H729 H 0.88347 0.48002 0.22874 0.0
H730 H 0.9154 0.54251 0.19477 0.0
H731 H 0.94124 0.54825 0.23027 0.0
C732 C 0.886 0.49691 0.14287 0.0
C733 C 0.86319 0.48596 0.14373 0.0
C734 C 0.89644 0.50632 0.16381 0.0
C735 C 0.8843 0.505 0.18613 0.0
C736 C 0.86073 0.4956 0.18665 0.0
C737 C 0.85022 0.48619 0.16557 0.0
C738 C 0.91027 0.49867 0.2493 0.0
C739 C 0.92721 0.51746 0.24987 0.0
C740 C 0.89556 0.49534 0.22903 0.0
C741 C 0.8974 0.51078 0.2089 0.0
C742 C 0.91374 0.53014 0.20988 0.0
C743 C 0.92854 0.53343 0.23017 0.0
H744 H 0.74187 0.01422 0.45913 0.0
H745 H 0.68532 0.04329 0.41423 0.0
H746 H 0.76319 0.00107 0.42281 0.0
H747 H 0.70681 0.03089 0.37802 0.0
H748 H 0.80643 0.02574 0.35333 0.0
H749 H 0.78528 0.02109 0.39153 0.0
H750 H 0.72117 0.99911 0.35278 0.0
H751 H 0.74222 0.00467 0.31436 0.0
C752 C 0.73396 0.01771 0.44149 0.0
C753 C 0.71208 0.03003 0.43947 0.0
C754 C 0.74616 0.01016 0.42069 0.0
C755 C 0.73676 0.01486 0.39744 0.0
C756 C 0.71442 0.02648 0.39558 0.0
C757 C 0.7022 0.03391 0.41635 0.0
C758 C 0.78813 0.01895 0.35295 0.0
C759 C 0.77579 0.0162 0.33082 0.0
C760 C 0.77592 0.0163 0.37496 0.0
C761 C 0.75125 0.01053 0.37519 0.0
C762 C 0.73996 0.00437 0.35316 0.0
C763 C 0.75212 0.00723 0.33113 0.0
H764 H 0.16742 0.10646 0.53394 0.0
H765 H 0.21312 0.15784 0.57047 0.0
H766 H 0.19023 0.07382 0.55104 0.0
H767 H 0.2367 0.12467 0.58784 0.0
H768 H 0.23086 0.05987 0.64445 0.0
H769 H 0.22653 0.09552 0.61932 0.0
H770 H 0.22606 0.05124 0.55495 0.0
H771 H 0.22919 0.01546 0.5803 0.0
C772 C 0.18284 0.11069 0.54529 0.0
C773 C 0.18838 0.13451 0.55127 0.0
C774 C 0.19617 0.09196 0.55489 0.0
C775 C 0.21533 0.09654 0.57092 0.0
C776 C 0.22192 0.12057 0.57567 0.0
C777 C 0.20858 0.13951 0.56571 0.0
C778 C 0.23047 0.05781 0.62488 0.0
C779 C 0.22968 0.0349 0.61431 0.0
C780 C 0.2282 0.07831 0.61043 0.0
C781 C 0.22537 0.07621 0.58513 0.0
C782 C 0.22754 0.05341 0.57445 0.0
C783 C 0.22938 0.03291 0.58893 0.0
H784 H 0.09956 0.18001 0.71737 0.0
H785 H 0.0277 0.2015 0.69748 0.0
H786 H 0.11367 0.19029 0.67684 0.0
H787 H 0.04186 0.21197 0.65678 0.0
H788 H 0.13615 0.21623 0.60396 0.0
H789 H 0.12069 0.22035 0.64514 0.0
H790 H 0.05464 0.18515 0.62343 0.0
H791 H 0.07 0.18131 0.58209 0.0
C792 C 0.08696 0.18777 0.70459 0.0
C793 C 0.06253 0.18984 0.71056 0.0
C794 C 0.09504 0.19368 0.68131 0.0
C795 C 0.0788 0.20163 0.66345 0.0
C796 C 0.05472 0.20557 0.67005 0.0
C797 C 0.04668 0.19986 0.69346 0.0
C798 C 0.11816 0.20971 0.60787 0.0
C799 C 0.10438 0.19818 0.58985 0.0
C800 C 0.10934 0.21205 0.63149 0.0
C801 C 0.08652 0.20294 0.63763 0.0
C802 C 0.0722 0.1926 0.61925 0.0
C803 C 0.08105 0.19023 0.59559 0.0
H804 H 0.05513 0.23718 0.95247 0.0
H805 H 0.99115 0.26394 0.98738 0.0
H806 H 0.05135 0.26727 0.92092 0.0
H807 H 0.98722 0.29432 0.9553 0.0
H808 H 0.01757 0.36343 0.91521 0.0
H809 H 0.01108 0.33048 0.94356 0.0
H810 H 0.02602 0.27969 0.88646 0.0
H811 H 0.03294 0.31279 0.85808 0.0
C812 C 0.04014 0.24945 0.95332 0.0
C813 C 0.02355 0.24839 0.97252 0.0
C814 C 0.0378 0.26651 0.93504 0.0
C815 C 0.01888 0.28302 0.93552 0.0
C816 C 0.00201 0.28181 0.95453 0.0
C817 C 0.00426 0.2645 0.97285 0.0
C818 C 0.01907 0.34521 0.90859 0.0
C819 C 0.02617 0.34063 0.88456 0.0
C820 C 0.01514 0.32635 0.9248 0.0
C821 C 0.0183 0.30255 0.91728 0.0
C822 C 0.02381 0.29792 0.89281 0.0
C823 C 0.0277 0.31682 0.87656 0.0
H824 H 0.84296 0.3898 0.15499 0.0
H825 H 0.90752 0.38804 0.11147 0.0
H826 H 0.86118 0.36278 0.18429 0.0
H827 H 0.92561 0.36028 0.14055 0.0
H828 H 0.89417 0.29821 0.223 0.0
H829 H 0.87478 0.32257 0.1916 0.0
H830 H 0.94124 0.3619 0.18108 0.0
H831 H 0.96057 0.33729 0.21173 0.0
C832 C 0.86099 0.38338 0.15151 0.0
C833 C 0.87389 0.39117 0.13098 0.0
C834 C 0.87136 0.36773 0.16828 0.0
C835 C 0.8949 0.3594 0.16488 0.0
C836 C 0.90758 0.36668 0.14394 0.0
C837 C 0.8972 0.38246 0.12719 0.0
C838 C 0.90452 0.31211 0.21398 0.0
C839 C 0.92885 0.31583 0.2198 0.0
C840 C 0.89346 0.32609 0.19602 0.0
C841 C 0.90652 0.34409 0.18365 0.0
C842 C 0.93077 0.34788 0.18979 0.0
C843 C 0.9418 0.3339 0.20757 0.0
H844 H 0.89963 0.11081 0.44625 0.0
H845 H 0.83871 0.15666 0.45933 0.0
H846 H 0.88148 0.09821 0.40758 0.0
H847 H 0.82117 0.14486 0.4209 0.0
H848 H 0.78504 0.10328 0.3602 0.0
H849 H 0.80243 0.1127 0.39973 0.0
H850 H 0.87331 0.11513 0.36763 0.0
H851 H 0.85591 0.10501 0.3282 0.0
C852 C 0.8823 0.11795 0.44102 0.0
C853 C 0.87063 0.13471 0.4558 0.0
C854 C 0.87202 0.11099 0.41878 0.0
C855 C 0.84989 0.12064 0.41104 0.0
C856 C 0.83803 0.13682 0.42632 0.0
C857 C 0.84821 0.1437 0.44837 0.0
C858 C 0.80429 0.10617 0.36153 0.0
C859 C 0.81907 0.10361 0.34106 0.0
C860 C 0.8143 0.11149 0.38421 0.0
C861 C 0.83933 0.11454 0.38693 0.0
C862 C 0.85404 0.11245 0.36631 0.0
C863 C 0.84403 0.107 0.34364 0.0
H864 H 0.08273 0.89503 0.37757 0.0
H865 H 0.15167 0.86346 0.36216 0.0
H866 H 0.06363 0.86754 0.34872 0.0
H867 H 0.1327 0.83527 0.33437 0.0
H868 H 0.09724 0.80987 0.26413 0.0
H869 H 0.11598 0.83483 0.29534 0.0
H870 H 0.05202 0.82801 0.33953 0.0
H871 H 0.03306 0.80413 0.30784 0.0
C872 C 0.09365 0.88182 0.36843 0.0
C873 C 0.11862 0.88144 0.3719 0.0
C874 C 0.08278 0.86601 0.35191 0.0
C875 C 0.09666 0.8493 0.33889 0.0
C876 C 0.1215 0.84828 0.34346 0.0
C877 C 0.13236 0.86429 0.35959 0.0
C878 C 0.08732 0.81365 0.28059 0.0
C879 C 0.0637 0.8052 0.28351 0.0
C880 C 0.09805 0.82785 0.29858 0.0
C881 C 0.08551 0.83356 0.32006 0.0
C882 C 0.06207 0.82448 0.32311 0.0
C883 C 0.05126 0.81062 0.305 0.0
H884 H 0.39614 0.3338 0.57142 0.0
H885 H 0.39845 0.40773 0.54819 0.0
H886 H 0.37645 0.34534 0.60887 0.0
H887 H 0.37753 0.41944 0.58545 0.0
H888 H 0.35498 0.43514 0.66301 0.0
H889 H 0.37916 0.42379 0.62812 0.0
H890 H 0.33854 0.35762 0.62218 0.0
H891 H 0.3151 0.36865 0.65782 0.0
C892 C 0.39236 0.35261 0.57439 0.0
C893 C 0.39863 0.3699 0.55686 0.0
C894 C 0.38086 0.35922 0.5958 0.0
C895 C 0.37491 0.38327 0.60011 0.0
C896 C 0.38196 0.40074 0.58287 0.0
C897 C 0.3939 0.39411 0.5615 0.0
C898 C 0.35138 0.41806 0.65435 0.0
C899 C 0.33317 0.40273 0.66315 0.0
C900 C 0.36512 0.41164 0.63419 0.0
C901 C 0.36083 0.38983 0.62215 0.0
C902 C 0.34271 0.37439 0.63118 0.0
C903 C 0.32915 0.3807 0.65157 0.0
H904 H 0.95051 0.69941 0.78672 0.0
H905 H 0.91467 0.63135 0.7986 0.0
H906 H 0.93542 0.71362 0.82617 0.0
H907 H 0.9003 0.64533 0.83772 0.0
H908 H 0.912 0.66344 0.91694 0.0
H909 H 0.92903 0.65725 0.8766 0.0
H910 H 0.88973 0.71808 0.8493 0.0
H911 H 0.87232 0.72423 0.88969 0.0
C912 C 0.93902 0.68774 0.79744 0.0
C913 C 0.9339 0.66423 0.78969 0.0
C914 C 0.93057 0.6958 0.81998 0.0
C915 C 0.91723 0.6803 0.83502 0.0
C916 C 0.91097 0.6574 0.82658 0.0
C917 C 0.91907 0.6495 0.80411 0.0
C918 C 0.90742 0.67586 0.90253 0.0
C919 C 0.89064 0.69414 0.90637 0.0
C920 C 0.91709 0.67226 0.87947 0.0
C921 C 0.91041 0.68707 0.85995 0.0
C922 C 0.89511 0.7065 0.86414 0.0
C923 C 0.88516 0.70993 0.88719 0.0
H924 H 0.56157 0.26287 0.05524 0.0
H925 H 0.49014 0.24788 0.0279 0.0
H926 H 0.55348 0.2385 0.0908 0.0
H927 H 0.48185 0.22338 0.06405 0.0
H928 H 0.49956 0.1538 0.11039 0.0
H929 H 0.49642 0.18474 0.07943 0.0
H930 H 0.52988 0.23571 0.12814 0.0
H931 H 0.53351 0.2044 0.1591 0.0
C932 C 0.54404 0.25441 0.05688 0.0
C933 C 0.52657 0.25706 0.03863 0.0
C934 C 0.53928 0.24071 0.0775 0.0
C935 C 0.51691 0.22923 0.08043 0.0
C936 C 0.49926 0.23203 0.06228 0.0
C937 C 0.50402 0.24593 0.04158 0.0
C938 C 0.50564 0.1718 0.11475 0.0
C939 C 0.5172 0.17663 0.13695 0.0
C940 C 0.5037 0.18957 0.09702 0.0
C941 C 0.51334 0.21253 0.10115 0.0
C942 C 0.52272 0.218 0.1243 0.0
C943 C 0.52461 0.20017 0.1421 0.0
H944 H 0.971 0.83468 0.22504 0.0
H945 H 0.03037 0.83334 0.17463 0.0
H946 H 0.96448 0.87712 0.21537 0.0
H947 H 0.02432 0.87534 0.16536 0.0
H948 H 0.00992 0.95042 0.14772 0.0
H949 H 0.00092 0.90748 0.14897 0.0
H950 H 0.98801 0.9123 0.22621 0.0
H951 H 0.99628 0.95513 0.22477 0.0
C952 C 0.9822 0.84328 0.21144 0.0
C953 C 0.00136 0.83088 0.2008 0.0
C954 C 0.97862 0.86759 0.20604 0.0
C955 C 0.99405 0.87974 0.18978 0.0
C956 C 0.01192 0.86663 0.17777 0.0
C957 C 0.01555 0.84253 0.18325 0.0
C958 C 0.00465 0.94236 0.16483 0.0
C959 C 0.0042 0.95603 0.18621 0.0
C960 C 0.99955 0.91776 0.16558 0.0
C961 C 0.99403 0.90636 0.18775 0.0
C962 C 0.99196 0.92045 0.20878 0.0
C963 C 0.99695 0.94502 0.208 0.0
H964 H 0.36671 0.38618 0.44682 0.0
H965 H 0.34371 0.31783 0.47594 0.0
H966 H 0.32509 0.39819 0.44214 0.0
H967 H 0.30167 0.32973 0.47086 0.0
H968 H 0.24159 0.37983 0.50154 0.0
H969 H 0.27928 0.35922 0.49445 0.0
H970 H 0.28533 0.39351 0.42423 0.0
H971 H 0.24757 0.41458 0.43159 0.0
C972 C 0.35267 0.37342 0.45153 0.0
C973 C 0.35839 0.35123 0.46208 0.0
C974 C 0.32877 0.38026 0.44869 0.0
C975 C 0.31005 0.36506 0.45645 0.0
C976 C 0.31575 0.34197 0.46507 0.0
C977 C 0.33977 0.33507 0.46779 0.0
C978 C 0.25081 0.3828 0.48447 0.0
C979 C 0.24184 0.39909 0.46727 0.0
C980 C 0.2723 0.37073 0.48027 0.0
C981 C 0.28532 0.37469 0.45876 0.0
C982 C 0.27579 0.39023 0.44107 0.0
C983 C 0.25421 0.4023 0.44527 0.0
H984 H 0.86198 0.52253 0.82498 0.0
H985 H 0.81997 0.50417 0.76147 0.0
H986 H 0.8942 0.53714 0.79938 0.0
H987 H 0.85273 0.51947 0.7354 0.0
H988 H 0.904 0.58878 0.71483 0.0
H989 H 0.872 0.56232 0.72941 0.0
H990 H 0.92433 0.52061 0.7688 0.0
H991 H 0.95638 0.54718 0.75443 0.0
C992 C 0.85957 0.52167 0.80546 0.0
C993 C 0.83832 0.51236 0.79522 0.0
C994 C 0.87825 0.52975 0.79078 0.0
C995 C 0.87616 0.52901 0.76541 0.0
C996 C 0.85483 0.51998 0.75495 0.0
C997 C 0.83611 0.5114 0.7698 0.0
C998 C 0.9088 0.57345 0.72588 0.0
C999 C 0.9326 0.57036 0.73399 0.0
C1000 C 0.89045 0.55823 0.73412 0.0
C1001 C 0.89567 0.53978 0.75061 0.0
C1002 C 0.91984 0.53498 0.75635 0.0
C1003 C 0.93819 0.55013 0.74806 0.0
H1004 H 0.27049 0.5797 0.93865 0.0
H1005 H 0.2696 0.6137 0.00909 0.0
H1006 H 0.23569 0.60366 0.9263 0.0
H1007 H 0.23508 0.63725 0.99697 0.0
H1008 H 0.17815 0.68374 0.97189 0.0
H1009 H 0.21937 0.66881 0.97011 0.0
H1010 H 0.19327 0.60228 0.93937 0.0
H1011 H 0.15238 0.61731 0.9408 0.0
C1012 C 0.26301 0.59242 0.95137 0.0
C1013 C 0.2725 0.59461 0.97493 0.0
C1014 C 0.24318 0.60615 0.9443 0.0
C1015 C 0.23273 0.62244 0.96061 0.0
C1016 C 0.24294 0.62523 0.98379 0.0
C1017 C 0.26254 0.61145 0.99088 0.0
C1018 C 0.18138 0.66633 0.96388 0.0
C1019 C 0.1621 0.65148 0.95691 0.0
C1020 C 0.20492 0.6577 0.96303 0.0
C1021 C 0.20948 0.63417 0.95509 0.0
C1022 C 0.19041 0.62047 0.94557 0.0
C1023 C 0.16693 0.62904 0.94651 0.0
H1024 H 0.40413 0.89907 0.2826 0.0
H1025 H 0.45778 0.9452 0.24982 0.0
H1026 H 0.37271 0.92696 0.27048 0.0
H1027 H 0.42632 0.97325 0.23798 0.0
H1028 H 0.36476 0.98071 0.1815 0.0
H1029 H 0.39666 0.96287 0.20515 0.0
H1030 H 0.35372 0.96899 0.27013 0.0
H1031 H 0.32125 0.98742 0.24608 0.0
C1032 C 0.40931 0.91557 0.27354 0.0
C1033 C 0.43335 0.91972 0.26665 0.0
C1034 C 0.39129 0.93161 0.26673 0.0
C1035 C 0.39704 0.952 0.25288 0.0
C1036 C 0.42138 0.95742 0.24833 0.0
C1037 C 0.4394 0.94142 0.25518 0.0
C1038 C 0.36199 0.97837 0.20084 0.0
C1039 C 0.34038 0.98527 0.21191 0.0
C1040 C 0.38049 0.96844 0.21447 0.0
C1041 C 0.37786 0.96488 0.23955 0.0
C1042 C 0.35624 0.97172 0.25081 0.0
C1043 C 0.33769 0.98212 0.2371 0.0
H1044 H 0.47472 0.18488 0.80639 0.0
H1045 H 0.41073 0.18817 0.76198 0.0
H1046 H 0.45371 0.15973 0.83563 0.0
H1047 H 0.3898 0.16203 0.79081 0.0
H1048 H 0.41689 0.09407 0.86985 0.0
H1049 H 0.43833 0.12061 0.84171 0.0
H1050 H 0.37304 0.16081 0.8301 0.0
H1051 H 0.35165 0.13377 0.85728 0.0
C1052 C 0.45613 0.18008 0.80281 0.0
C1053 C 0.44434 0.1885 0.78188 0.0
C1054 C 0.44412 0.16548 0.81953 0.0
C1055 C 0.42005 0.15867 0.81564 0.0
C1056 C 0.40822 0.16718 0.79466 0.0
C1057 C 0.42021 0.18207 0.77803 0.0
C1058 C 0.40728 0.10873 0.86141 0.0
C1059 C 0.38264 0.1118 0.86566 0.0
C1060 C 0.41952 0.12399 0.8453 0.0
C1061 C 0.40737 0.1428 0.83338 0.0
C1062 C 0.38287 0.14623 0.8384 0.0
C1063 C 0.37065 0.13084 0.85419 0.0
H1064 H 0.59336 0.3104 0.28087 0.0
H1065 H 0.51806 0.30524 0.29942 0.0
H1066 H 0.60406 0.29568 0.32106 0.0
H1067 H 0.52877 0.29049 0.33981 0.0
H1068 H 0.56466 0.31625 0.4142 0.0
H1069 H 0.54771 0.31424 0.3733 0.0
H1070 H 0.60282 0.26409 0.3525 0.0
H1071 H 0.61989 0.26628 0.39324 0.0
C1072 C 0.57908 0.30522 0.29323 0.0
C1073 C 0.55492 0.30912 0.28709 0.0
C1074 C 0.58518 0.29676 0.31629 0.0
C1075 C 0.56724 0.29225 0.33373 0.0
C1076 C 0.54297 0.29409 0.32682 0.0
C1077 C 0.53685 0.30229 0.30361 0.0
C1078 C 0.57276 0.30435 0.40107 0.0
C1079 C 0.59381 0.29177 0.40678 0.0
C1080 C 0.56299 0.30306 0.37766 0.0
C1081 C 0.57412 0.28918 0.3596 0.0
C1082 C 0.59406 0.27517 0.36594 0.0
C1083 C 0.60379 0.27643 0.38929 0.0
H1084 H 0.72983 0.99733 0.84323 0.0
H1085 H 0.7874 0.94902 0.8253 0.0
H1086 H 0.75124 0.00891 0.88051 0.0
H1087 H 0.80845 0.96002 0.86216 0.0
H1088 H 0.84478 0.9785 0.92876 0.0
H1089 H 0.82885 0.98731 0.88841 0.0
H1090 H 0.75659 0.98547 0.91729 0.0
H1091 H 0.7726 0.97761 0.95763 0.0
C1092 C 0.74741 0.98986 0.84687 0.0
C1093 C 0.75691 0.9721 0.83172 0.0
C1094 C 0.75957 0.99629 0.86825 0.0
C1095 C 0.78141 0.98516 0.87451 0.0
C1096 C 0.79183 0.96916 0.85794 0.0
C1097 C 0.77967 0.96267 0.83685 0.0
C1098 C 0.82554 0.98053 0.92653 0.0
C1099 C 0.80988 0.97685 0.94617 0.0
C1100 C 0.81641 0.98558 0.90344 0.0
C1101 C 0.79142 0.9867 0.89951 0.0
C1102 C 0.77593 0.98495 0.91962 0.0
C1103 C 0.78509 0.98016 0.94274 0.0
H1104 H 0.41038 0.58446 0.41981 0.0
H1105 H 0.3783 0.57166 0.34951 0.0
H1106 H 0.37158 0.59739 0.43538 0.0
H1107 H 0.33941 0.5848 0.36505 0.0
H1108 H 0.2953 0.65236 0.39263 0.0
H1109 H 0.32739 0.62694 0.3768 0.0
H1110 H 0.32875 0.58759 0.44443 0.0
H1111 H 0.29687 0.61291 0.46023 0.0
C1112 C 0.39481 0.58347 0.40798 0.0
C1113 C 0.39737 0.57704 0.38349 0.0
C1114 C 0.37257 0.59097 0.41685 0.0
C1115 C 0.35253 0.59248 0.40131 0.0
C1116 C 0.35462 0.5841 0.37735 0.0
C1117 C 0.37682 0.57622 0.36857 0.0
C1118 C 0.30221 0.63805 0.40394 0.0
C1119 C 0.29376 0.63483 0.42775 0.0
C1120 C 0.32045 0.62337 0.39484 0.0
C1121 C 0.33064 0.60531 0.40944 0.0
C1122 C 0.3214 0.60147 0.43284 0.0
C1123 C 0.30313 0.616 0.44186 0.0
H1124 H 0.09278 0.98167 0.23358 0.0
H1125 H 0.07053 0.04837 0.26611 0.0
H1126 H 0.11921 0.9741 0.26784 0.0
H1127 H 0.09767 0.04112 0.30032 0.0
H1128 H 0.11207 0.99487 0.36966 0.0
H1129 H 0.09569 0.01319 0.33339 0.0
H1130 H 0.15458 0.98484 0.2913 0.0
H1131 H 0.17078 0.96583 0.32803 0.0
C1132 C 0.09379 0.9949 0.24795 0.0
C1133 C 0.07926 0.0154 0.24743 0.0
C1134 C 0.10924 0.99071 0.26745 0.0
C1135 C 0.11058 0.00699 0.28685 0.0
C1136 C 0.09684 0.02809 0.28577 0.0
C1137 C 0.08127 0.03224 0.26625 0.0
C1138 C 0.12184 0.99296 0.35276 0.0
C1139 C 0.14243 0.97859 0.35149 0.0
C1140 C 0.11255 0.00368 0.33196 0.0
C1141 C 0.12364 0.00023 0.30936 0.0
C1142 C 0.14543 0.98748 0.30843 0.0
C1143 C 0.15482 0.97677 0.32941 0.0
H1144 H 0.75425 0.55654 0.85309 0.0
H1145 H 0.78901 0.52891 0.91745 0.0
H1146 H 0.75112 0.59585 0.87218 0.0
H1147 H 0.78624 0.56825 0.93638 0.0
H1148 H 0.77838 0.63912 0.96907 0.0
H1149 H 0.76232 0.60172 0.95233 0.0
H1150 H 0.7832 0.62477 0.88035 0.0
H1151 H 0.79898 0.662 0.89704 0.0
C1152 C 0.76081 0.55874 0.8715 0.0
C1153 C 0.77223 0.53975 0.88365 0.0
C1154 C 0.75904 0.58127 0.88241 0.0
C1155 C 0.76862 0.58527 0.9057 0.0
C1156 C 0.77843 0.56577 0.91852 0.0
C1157 C 0.78021 0.54323 0.9076 0.0
C1158 C 0.77854 0.63662 0.94955 0.0
C1159 C 0.79013 0.65333 0.93434 0.0
C1160 C 0.76961 0.61508 0.94001 0.0
C1161 C 0.7719 0.61007 0.91509 0.0
C1162 C 0.78104 0.62803 0.89961 0.0
C1163 C 0.79013 0.64942 0.90917 0.0
H1164 H 0.78594 0.73937 0.50744 0.0
H1165 H 0.79341 0.79402 0.45228 0.0
H1166 H 0.82057 0.71868 0.49155 0.0
H1167 H 0.82846 0.77289 0.4358 0.0
H1168 H 0.90957 0.75184 0.45175 0.0
H1169 H 0.86912 0.76812 0.45182 0.0
H1170 H 0.8398 0.69657 0.45989 0.0
H1171 H 0.88048 0.68034 0.46063 0.0
C1172 C 0.79475 0.74666 0.49148 0.0
C1173 C 0.78725 0.76845 0.48128 0.0
C1174 C 0.81452 0.73463 0.48216 0.0
C1175 C 0.82743 0.74413 0.46242 0.0
C1176 C 0.819 0.76522 0.45117 0.0
C1177 C 0.79891 0.77724 0.46047 0.0
C1178 C 0.89447 0.73951 0.45301 0.0
C1179 C 0.89819 0.71486 0.45674 0.0
C1180 C 0.87122 0.74885 0.45282 0.0
C1181 C 0.8512 0.7337 0.45625 0.0
C1182 C 0.85489 0.70878 0.45771 0.0
C1183 C 0.87817 0.69945 0.45807 0.0
H1184 H 0.08438 0.25198 0.06341 0.0
H1185 H 0.1204 0.19112 0.03194 0.0
H1186 H 0.12258 0.27356 0.06572 0.0
H1187 H 0.15867 0.2129 0.034 0.0
H1188 H 0.22622 0.25729 0.04188 0.0
H1189 H 0.19138 0.23491 0.05796 0.0
H1190 H 0.14406 0.28932 0.02941 0.0
H1191 H 0.17853 0.31111 0.01326 0.0
C1192 C 0.10056 0.24299 0.05751 0.0
C1193 C 0.09935 0.22004 0.04706 0.0
C1194 C 0.12242 0.25536 0.05885 0.0
C1195 C 0.14354 0.24507 0.04972 0.0
C1196 C 0.14272 0.22126 0.04132 0.0
C1197 C 0.12078 0.20883 0.04 0.0
C1198 C 0.20838 0.26478 0.03995 0.0
C1199 C 0.20489 0.28589 0.0265 0.0
C1200 C 0.18849 0.25192 0.0489 0.0
C1201 C 0.165 0.26034 0.0449 0.0
C1202 C 0.16189 0.28248 0.0331 0.0
C1203 C 0.18161 0.29497 0.0238 0.0
H1204 H 0.82181 0.1856 0.51878 0.0
H1205 H 0.84544 0.13975 0.57712 0.0
H1206 H 0.78216 0.16746 0.52043 0.0
H1207 H 0.8051 0.12267 0.58039 0.0
H1208 H 0.75176 0.0686 0.54634 0.0
H1209 H 0.78537 0.09429 0.55785 0.0
H1210 H 0.74523 0.1566 0.53461 0.0
H1211 H 0.71255 0.1304 0.52139 0.0
C1212 C 0.81806 0.17255 0.53291 0.0
C1213 C 0.83662 0.16389 0.54767 0.0
C1214 C 0.79521 0.16199 0.5339 0.0
C1215 C 0.79038 0.14294 0.55012 0.0
C1216 C 0.8083 0.13657 0.567 0.0
C1217 C 0.83133 0.14665 0.56549 0.0
C1218 C 0.75013 0.08782 0.54404 0.0
C1219 C 0.72988 0.09754 0.53263 0.0
C1220 C 0.76931 0.10271 0.55085 0.0
C1221 C 0.76835 0.12773 0.54696 0.0
C1222 C 0.74709 0.13746 0.53725 0.0
C1223 C 0.72825 0.12248 0.5298 0.0
H1224 H 0.5357 0.66267 0.82738 0.0
H1225 H 0.47598 0.65958 0.77725 0.0
H1226 H 0.53131 0.62014 0.83555 0.0
H1227 H 0.47114 0.61667 0.78582 0.0
H1228 H 0.50705 0.54217 0.77141 0.0
H1229 H 0.49702 0.5844 0.77267 0.0
H1230 H 0.50989 0.58519 0.85012 0.0
H1231 H 0.52052 0.54267 0.8487 0.0
C1232 C 0.52109 0.65298 0.81869 0.0
C1233 C 0.50643 0.66429 0.80137 0.0
C1234 C 0.51845 0.62857 0.82352 0.0
C1235 C 0.50111 0.61487 0.81105 0.0
C1236 C 0.48494 0.62669 0.79541 0.0
C1237 C 0.48755 0.65126 0.79064 0.0
C1238 C 0.50743 0.55124 0.7888 0.0
C1239 C 0.51499 0.53923 0.8099 0.0
C1240 C 0.50136 0.57544 0.78957 0.0
C1241 C 0.5027 0.58826 0.81149 0.0
C1242 C 0.50892 0.57588 0.8329 0.0
C1243 C 0.515 0.55155 0.83211 0.0
H1244 H 0.4534 0.79361 0.20829 0.0
H1245 H 0.42542 0.86407 0.1923 0.0
H1246 H 0.44237 0.78053 0.16694 0.0
H1247 H 0.41528 0.85122 0.1514 0.0
H1248 H 0.43423 0.83127 0.07401 0.0
H1249 H 0.44877 0.83475 0.11584 0.0
H1250 H 0.39655 0.78201 0.13908 0.0
H1251 H 0.38162 0.77872 0.09731 0.0
C1252 C 0.44453 0.8061 0.1962 0.0
C1253 C 0.44035 0.82987 0.20351 0.0
C1254 C 0.43846 0.79869 0.17258 0.0
C1255 C 0.42854 0.81512 0.15604 0.0
C1256 C 0.42334 0.83842 0.16377 0.0
C1257 C 0.42899 0.84566 0.18726 0.0
C1258 C 0.42635 0.81988 0.08787 0.0
C1259 C 0.40664 0.80495 0.08249 0.0
C1260 C 0.43463 0.8219 0.11176 0.0
C1261 C 0.42362 0.8087 0.13052 0.0
C1262 C 0.40534 0.79223 0.12484 0.0
C1263 C 0.3968 0.79046 0.101 0.0
H1264 H 0.38019 0.8019 0.52846 0.0
H1265 H 0.41575 0.73926 0.55715 0.0
H1266 H 0.34234 0.77937 0.52648 0.0
H1267 H 0.37799 0.71688 0.55522 0.0
H1268 H 0.3261 0.68396 0.49514 0.0
H1269 H 0.35923 0.70499 0.51492 0.0
H1270 H 0.30896 0.75392 0.54777 0.0
H1271 H 0.27547 0.7322 0.52816 0.0
C1272 C 0.37976 0.78359 0.53507 0.0
C1273 C 0.401 0.7722 0.5425 0.0
C1274 C 0.35806 0.77073 0.53407 0.0
C1275 C 0.35734 0.74629 0.54042 0.0
C1276 C 0.37812 0.73562 0.54998 0.0
C1277 C 0.39973 0.74846 0.55105 0.0
C1278 C 0.32209 0.69868 0.50728 0.0
C1279 C 0.29838 0.70645 0.51032 0.0
C1280 C 0.34102 0.7107 0.51866 0.0
C1281 C 0.33666 0.73111 0.53288 0.0
C1282 C 0.31276 0.73821 0.53692 0.0
C1283 C 0.29366 0.72573 0.52591 0.0
H1284 H 0.77326 0.91915 0.06945 0.0
H1285 H 0.77518 0.88754 0.99791 0.0
H1286 H 0.73843 0.89385 0.07967 0.0
H1287 H 0.74062 0.86268 0.0079 0.0
H1288 H 0.6834 0.81383 0.02943 0.0
H1289 H 0.72433 0.82989 0.03279 0.0
H1290 H 0.69651 0.89444 0.06536 0.0
H1291 H 0.65593 0.87827 0.06238 0.0
C1292 C 0.76639 0.90667 0.05603 0.0
C1293 C 0.77667 0.90555 0.03279 0.0
C1294 C 0.74653 0.89218 0.06188 0.0
C1295 C 0.73684 0.87618 0.04463 0.0
C1296 C 0.74787 0.87445 0.02177 0.0
C1297 C 0.7675 0.88898 0.01591 0.0
C1298 C 0.68618 0.83103 0.03813 0.0
C1299 C 0.66653 0.84501 0.04524 0.0
C1300 C 0.70956 0.84032 0.03988 0.0
C1301 C 0.71358 0.86364 0.04888 0.0
C1302 C 0.69409 0.87643 0.05839 0.0
C1303 C 0.67078 0.86721 0.05654 0.0
H1304 H 0.64842 0.48298 0.63013 0.0
H1305 H 0.66353 0.54919 0.66755 0.0
H1306 H 0.63489 0.46474 0.66806 0.0
H1307 H 0.64855 0.5318 0.70522 0.0
H1308 H 0.57007 0.46183 0.71993 0.0
H1309 H 0.59812 0.47062 0.68733 0.0
H1310 H 0.64591 0.50564 0.73849 0.0
H1311 H 0.61702 0.49778 0.77091 0.0
C1312 C 0.6497 0.49327 0.64677 0.0
C1313 C 0.65704 0.51734 0.64616 0.0
C1314 C 0.64155 0.48303 0.66841 0.0
C1315 C 0.63979 0.49701 0.68958 0.0
C1316 C 0.64964 0.52038 0.68939 0.0
C1317 C 0.65837 0.53041 0.66781 0.0
C1318 C 0.58667 0.4712 0.72421 0.0
C1319 C 0.59121 0.47945 0.7478 0.0
C1320 C 0.60299 0.47602 0.70557 0.0
C1321 C 0.62443 0.48888 0.71019 0.0
C1322 C 0.62946 0.49606 0.73415 0.0
C1323 C 0.61292 0.49154 0.75273 0.0
H1324 H 0.27236 0.94139 0.14276 0.0
H1325 H 0.29135 0.98952 0.08416 0.0
H1326 H 0.27905 0.90712 0.1163 0.0
H1327 H 0.29736 0.95521 0.05745 0.0
H1328 H 0.35245 0.89487 0.04362 0.0
H1329 H 0.33164 0.92845 0.06121 0.0
H1330 H 0.27138 0.88232 0.07905 0.0
H1331 H 0.29272 0.84803 0.06108 0.0
C1332 C 0.27721 0.94467 0.12399 0.0
C1333 C 0.28194 0.96809 0.11565 0.0
C1334 C 0.28085 0.925 0.10877 0.0
C1335 C 0.28918 0.92846 0.08494 0.0
C1336 C 0.2914 0.952 0.07591 0.0
C1337 C 0.28793 0.97165 0.09117 0.0
C1338 C 0.33467 0.89181 0.05111 0.0
C1339 C 0.32433 0.86877 0.05137 0.0
C1340 C 0.32255 0.9112 0.06089 0.0
C1341 C 0.29976 0.90813 0.07139 0.0
C1342 C 0.28895 0.88518 0.07105 0.0
C1343 C 0.30109 0.86562 0.06083 0.0
H1344 H 0.21689 0.43791 0.67435 0.0
H1345 H 0.27247 0.49 0.65865 0.0
H1346 H 0.19705 0.44725 0.63641 0.0
H1347 H 0.2522 0.5 0.62033 0.0
H1348 H 0.237 0.46819 0.54245 0.0
H1349 H 0.25021 0.47656 0.58368 0.0
H1350 H 0.17653 0.47211 0.60843 0.0
H1351 H 0.16348 0.46275 0.56714 0.0
C1352 C 0.22436 0.45206 0.66307 0.0
C1353 C 0.24633 0.46302 0.66916 0.0
C1354 C 0.21288 0.45758 0.64132 0.0
C1355 C 0.2232 0.47414 0.62505 0.0
C1356 C 0.24401 0.48686 0.6323 0.0
C1357 C 0.25549 0.48137 0.6543 0.0
C1358 C 0.22358 0.46939 0.55663 0.0
C1359 C 0.19929 0.46426 0.55172 0.0
C1360 C 0.23111 0.47449 0.58028 0.0
C1361 C 0.21447 0.47476 0.5995 0.0
C1362 C 0.18988 0.47158 0.59414 0.0
C1363 C 0.18239 0.46621 0.57051 0.0
H1364 H 0.61061 0.09325 0.1188 0.0
H1365 H 0.60594 0.16821 0.1378 0.0
H1366 H 0.64848 0.10148 0.09727 0.0
H1367 H 0.64292 0.17645 0.11617 0.0
H1368 H 0.72019 0.18287 0.09749 0.0
H1369 H 0.68523 0.16938 0.12061 0.0
H1370 H 0.66458 0.12246 0.06164 0.0
H1371 H 0.69997 0.1354 0.03888 0.0
C1372 C 0.61752 0.11144 0.11814 0.0
C1373 C 0.60546 0.13003 0.13008 0.0
C1374 C 0.63917 0.11617 0.10589 0.0
C1375 C 0.64894 0.13956 0.10541 0.0
C1376 C 0.63633 0.15813 0.11678 0.0
C1377 C 0.61496 0.15341 0.12901 0.0
C1378 C 0.70835 0.16945 0.08963 0.0
C1379 C 0.71265 0.16038 0.06633 0.0
C1380 C 0.68825 0.16181 0.10278 0.0
C1381 C 0.6719 0.14512 0.09278 0.0
C1382 C 0.67686 0.13522 0.06991 0.0
C1383 C 0.69707 0.14275 0.05683 0.0
H1384 H 0.59191 0.24596 0.94303 0.0
H1385 H 0.62954 0.30456 0.97783 0.0
H1386 H 0.62987 0.22509 0.93738 0.0
H1387 H 0.66741 0.28337 0.97309 0.0
H1388 H 0.73475 0.24475 0.96073 0.0
H1389 H 0.69883 0.26684 0.94877 0.0
H1390 H 0.65513 0.20437 0.96478 0.0
H1391 H 0.69091 0.18229 0.97589 0.0
C1392 C 0.60837 0.25449 0.94924 0.0
C1393 C 0.60775 0.27673 0.96117 0.0
C1394 C 0.63012 0.2425 0.94608 0.0
C1395 C 0.65173 0.25234 0.95506 0.0
C1396 C 0.65123 0.2753 0.96567 0.0
C1397 C 0.62947 0.28742 0.96859 0.0
C1398 C 0.71755 0.2355 0.96079 0.0
C1399 C 0.7156 0.21188 0.96955 0.0
C1400 C 0.69692 0.24826 0.95423 0.0
C1401 C 0.67398 0.23761 0.95632 0.0
C1402 C 0.67242 0.21322 0.9628 0.0
C1403 C 0.693 0.20049 0.96926 0.0
H1404 H 0.61805 0.38551 0.22062 0.0
H1405 H 0.57357 0.44297 0.24709 0.0
H1406 H 0.65361 0.41104 0.22468 0.0
H1407 H 0.6091 0.46822 0.25207 0.0
H1408 H 0.70571 0.44526 0.28193 0.0
H1409 H 0.67488 0.42334 0.25994 0.0
H1410 H 0.64311 0.49023 0.23694 0.0
H1411 H 0.6738 0.51224 0.25975 0.0
C1412 C 0.61586 0.40373 0.22701 0.0
C1413 C 0.59313 0.41216 0.23393 0.0
C1414 C 0.63623 0.41834 0.22939 0.0
C1415 C 0.63433 0.44158 0.23905 0.0
C1416 C 0.6113 0.45053 0.24434 0.0
C1417 C 0.59089 0.43599 0.24169 0.0
C1418 C 0.69261 0.45532 0.27155 0.0
C1419 C 0.6919 0.48044 0.27292 0.0
C1420 C 0.67491 0.44273 0.2588 0.0
C1421 C 0.65616 0.45501 0.24703 0.0
C1422 C 0.65698 0.48023 0.24627 0.0
C1423 C 0.67471 0.49285 0.25913 0.0
H1424 H 0.50024 0.17331 0.66773 0.0
H1425 H 0.5249 0.15631 0.73996 0.0
H1426 H 0.50239 0.13113 0.65652 0.0
H1427 H 0.52531 0.11398 0.72971 0.0
H1428 H 0.52363 0.03788 0.70999 0.0
H1429 H 0.53708 0.07952 0.71093 0.0
H1430 H 0.47801 0.09866 0.66347 0.0
H1431 H 0.46597 0.05673 0.66125 0.0
C1432 C 0.50668 0.16049 0.68102 0.0
C1433 C 0.51242 0.1679 0.70466 0.0
C1434 C 0.50755 0.13624 0.67476 0.0
C1435 C 0.51332 0.11881 0.69233 0.0
C1436 C 0.52095 0.12665 0.71548 0.0
C1437 C 0.52075 0.15101 0.72148 0.0
C1438 C 0.51396 0.05103 0.69932 0.0
C1439 C 0.49368 0.04426 0.68569 0.0
C1440 C 0.52151 0.07497 0.70001 0.0
C1441 C 0.50846 0.09281 0.68769 0.0
C1442 C 0.48887 0.08562 0.67298 0.0
C1443 C 0.48176 0.06154 0.67177 0.0
H1444 H 0.97072 0.4441 0.34105 0.0
H1445 H 0.02403 0.46036 0.28649 0.0
H1446 H 0.97928 0.40169 0.33717 0.0
H1447 H 0.03392 0.41793 0.28354 0.0
H1448 H 0.01343 0.34127 0.25727 0.0
H1449 H 0.01775 0.38366 0.2666 0.0
H1450 H 0.00296 0.36851 0.34229 0.0
H1451 H 0.99689 0.32634 0.33228 0.0
C1452 C 0.98478 0.4386 0.3287 0.0
C1453 C 0.9965 0.45546 0.31388 0.0
C1454 C 0.98992 0.41419 0.32656 0.0
C1455 C 0.0073 0.40608 0.30989 0.0
C1456 C 0.02005 0.42328 0.29616 0.0
C1457 C 0.01452 0.44766 0.29795 0.0
C1458 C 0.01196 0.34696 0.27602 0.0
C1459 C 0.00471 0.33067 0.29404 0.0
C1460 C 0.01439 0.37136 0.28146 0.0
C1461 C 0.01009 0.37984 0.30519 0.0
C1462 C 0.00553 0.36291 0.32367 0.0
C1463 C 0.00246 0.33865 0.31806 0.0
H1464 H 0.19095 0.01795 0.73707 0.0
H1465 H 0.13928 0.01187 0.67868 0.0
H1466 H 0.16082 0.03917 0.76165 0.0
H1467 H 0.10966 0.03258 0.70283 0.0
H1468 H 0.05436 0.05844 0.75141 0.0
H1469 H 0.08463 0.02903 0.73994 0.0
H1470 H 0.14098 0.07999 0.75701 0.0
H1471 H 0.11079 0.10925 0.7688 0.0
C1472 C 0.17316 0.02092 0.72965 0.0
C1473 C 0.16752 0.01359 0.70591 0.0
C1474 C 0.15597 0.03299 0.74364 0.0
C1475 C 0.13282 0.03733 0.73422 0.0
C1476 C 0.12714 0.02915 0.71081 0.0
C1477 C 0.14427 0.01756 0.69683 0.0
C1478 C 0.07321 0.06312 0.75335 0.0
C1479 C 0.08022 0.08627 0.76052 0.0
C1480 C 0.09053 0.04632 0.74675 0.0
C1481 C 0.11514 0.05238 0.74721 0.0
C1482 C 0.12218 0.07477 0.75654 0.0
C1483 C 0.10486 0.09159 0.76312 0.0
H1484 H 0.6607 0.94039 0.84936 0.0
H1485 H 0.68729 0.86902 0.836 0.0
H1486 H 0.64215 0.92672 0.88691 0.0
H1487 H 0.66803 0.85506 0.87339 0.0
H1488 H 0.65989 0.84632 0.95484 0.0
H1489 H 0.67515 0.86009 0.91601 0.0
H1490 H 0.61109 0.90238 0.90551 0.0
H1491 H 0.59594 0.88883 0.94512 0.0
C1492 C 0.66229 0.92165 0.85428 0.0
C1493 C 0.67566 0.9058 0.83982 0.0
C1494 C 0.65149 0.91379 0.87578 0.0
C1495 C 0.65374 0.88985 0.88334 0.0
C1496 C 0.66633 0.87376 0.86835 0.0
C1497 C 0.67724 0.88167 0.84684 0.0
C1498 C 0.64905 0.85867 0.94435 0.0
C1499 C 0.62667 0.86649 0.95302 0.0
C1500 C 0.65772 0.86637 0.92191 0.0
C1501 C 0.6442 0.88201 0.90737 0.0
C1502 C 0.622 0.89036 0.91628 0.0
C1503 C 0.61333 0.88268 0.93896 0.0
H1504 H 0.48952 0.6307 0.41717 0.0
H1505 H 0.47445 0.68089 0.3593 0.0
H1506 H 0.49498 0.66384 0.44539 0.0
H1507 H 0.48044 0.71418 0.38751 0.0
H1508 H 0.51225 0.73086 0.48946 0.0
H1509 H 0.5176 0.70035 0.45783 0.0
H1510 H 0.4543 0.72648 0.42088 0.0
H1511 H 0.44917 0.75668 0.45191 0.0
C1512 C 0.4879 0.64886 0.41036 0.0
C1513 C 0.48112 0.65325 0.38616 0.0
C1514 C 0.49123 0.66785 0.42651 0.0
C1515 C 0.48785 0.69157 0.41873 0.0
C1516 C 0.48277 0.69601 0.39408 0.0
C1517 C 0.47942 0.677 0.37792 0.0
C1518 C 0.49965 0.73007 0.47446 0.0
C1519 C 0.48021 0.74596 0.47323 0.0
C1520 C 0.50269 0.71269 0.45639 0.0
C1521 C 0.48647 0.71117 0.43678 0.0
C1522 C 0.46739 0.72746 0.43545 0.0
C1523 C 0.46428 0.7446 0.45345 0.0
H1524 H 0.577 0.59107 0.62663 0.0
H1525 H 0.64524 0.62797 0.63266 0.0
H1526 H 0.55983 0.61845 0.65661 0.0
H1527 H 0.6281 0.65578 0.6616 0.0
H1528 H 0.59911 0.68401 0.7332 0.0
H1529 H 0.61547 0.65728 0.70235 0.0
H1530 H 0.54738 0.65824 0.66427 0.0
H1531 H 0.53092 0.68404 0.69556 0.0
C1532 C 0.58816 0.60529 0.63405 0.0
C1533 C 0.61244 0.6073 0.62747 0.0
C1534 C 0.57838 0.62102 0.65119 0.0
C1535 C 0.59266 0.63924 0.66181 0.0
C1536 C 0.61671 0.64165 0.65439 0.0
C1537 C 0.62649 0.62581 0.6376 0.0
C1538 C 0.58774 0.67854 0.71817 0.0
C1539 C 0.56377 0.68607 0.71682 0.0
C1540 C 0.59709 0.6633 0.70039 0.0
C1541 C 0.58274 0.65551 0.68072 0.0
C1542 C 0.55885 0.66343 0.67931 0.0
C1543 C 0.54946 0.67841 0.69718 0.0
H1544 H 0.94363 0.73508 0.5477 0.0
H1545 H 0.01056 0.75923 0.51586 0.0
H1546 H 0.94789 0.76452 0.57973 0.0
H1547 H 0.01507 0.7888 0.54852 0.0
H1548 H 0.98875 0.85894 0.58723 0.0
H1549 H 0.99424 0.82567 0.55946 0.0
H1550 H 0.97109 0.77618 0.61538 0.0
H1551 H 0.96503 0.80979 0.64318 0.0
C1552 C 0.95939 0.74661 0.54765 0.0
C1553 C 0.97665 0.74505 0.52912 0.0
C1554 C 0.96199 0.7633 0.56625 0.0
C1555 C 0.9819 0.77889 0.56679 0.0
C1556 C 0.99947 0.77707 0.5485 0.0
C1557 C 0.99689 0.76022 0.52982 0.0
C1558 C 0.9852 0.84092 0.59377 0.0
C1559 C 0.97605 0.83695 0.61723 0.0
C1560 C 0.98857 0.82182 0.57788 0.0
C1561 C 0.98284 0.79833 0.58512 0.0
C1562 C 0.97528 0.79417 0.60918 0.0
C1563 C 0.97193 0.81335 0.62513 0.0
H1564 H 0.09557 0.60935 0.05904 0.0
H1565 H 0.15692 0.65552 0.0461 0.0
H1566 H 0.11218 0.59873 0.09898 0.0
H1567 H 0.17362 0.64466 0.08525 0.0
H1568 H 0.18649 0.64166 0.16579 0.0
H1569 H 0.16666 0.65173 0.1275 0.0
H1570 H 0.14476 0.57772 0.11888 0.0
H1571 H 0.16394 0.56787 0.15738 0.0
C1572 C 0.11272 0.61691 0.06456 0.0
C1573 C 0.12486 0.63333 0.04951 0.0
C1574 C 0.12224 0.61091 0.08742 0.0
C1575 C 0.14408 0.62117 0.09554 0.0
C1576 C 0.15647 0.63693 0.07998 0.0
C1577 C 0.14697 0.64297 0.05737 0.0
C1578 C 0.17725 0.62763 0.1558 0.0
C1579 C 0.1769 0.60398 0.16455 0.0
C1580 C 0.16601 0.63332 0.13377 0.0
C1581 C 0.15429 0.61546 0.11992 0.0
C1582 C 0.15339 0.59196 0.1291 0.0
C1583 C 0.16454 0.5863 0.15114 0.0
H1584 H 0.28258 0.63782 0.24396 0.0
H1585 H 0.28042 0.56973 0.28152 0.0
H1586 H 0.32504 0.64274 0.25553 0.0
H1587 H 0.32251 0.57458 0.29273 0.0
H1588 H 0.40246 0.57407 0.28059 0.0
H1589 H 0.36079 0.57446 0.26679 0.0
H1590 H 0.35272 0.64636 0.2943 0.0
H1591 H 0.39458 0.64599 0.30837 0.0
C1592 C 0.291 0.62414 0.25501 0.0
C1593 C 0.27813 0.60334 0.26173 0.0
C1594 C 0.3153 0.62693 0.26154 0.0
C1595 C 0.32718 0.60881 0.27459 0.0
C1596 C 0.31397 0.5886 0.28222 0.0
C1597 C 0.28976 0.58595 0.27597 0.0
C1598 C 0.39205 0.59021 0.2832 0.0
C1599 C 0.40184 0.60996 0.29568 0.0
C1600 C 0.36809 0.59033 0.2755 0.0
C1601 C 0.35339 0.61028 0.27987 0.0
C1602 C 0.36362 0.63073 0.29074 0.0
C1603 C 0.38761 0.63053 0.2987 0.0
H1604 H 0.59017 0.37969 0.50358 0.0
H1605 H 0.66731 0.37337 0.50821 0.0
H1606 H 0.59314 0.42125 0.51781 0.0
H1607 H 0.67068 0.4148 0.52019 0.0
H1608 H 0.67219 0.48193 0.5633 0.0
H1609 H 0.66676 0.4409 0.55068 0.0
H1610 H 0.60313 0.46094 0.5102 0.0
H1611 H 0.60775 0.5022 0.52491 0.0
C1612 C 0.60772 0.3872 0.50771 0.0
C1613 C 0.62843 0.37311 0.50536 0.0
C1614 C 0.60953 0.41115 0.51554 0.0
C1615 C 0.63218 0.42171 0.52052 0.0
C1616 C 0.6528 0.40746 0.51757 0.0
C1617 C 0.65091 0.38351 0.51052 0.0
C1618 C 0.65715 0.47769 0.55149 0.0
C1619 C 0.6406 0.49541 0.54481 0.0
C1620 C 0.65404 0.45398 0.54404 0.0
C1621 C 0.63467 0.44724 0.52894 0.0
C1622 C 0.61814 0.46515 0.52202 0.0
C1623 C 0.62091 0.48892 0.53016 0.0
H1624 H 0.9006 0.87657 0.7257 0.0
H1625 H 0.8951 0.94565 0.69067 0.0
H1626 H 0.8599 0.88109 0.74173 0.0
H1627 H 0.85434 0.94953 0.70504 0.0
H1628 H 0.78676 0.9605 0.74709 0.0
H1629 H 0.82862 0.95653 0.73609 0.0
H1630 H 0.81936 0.87959 0.73091 0.0
H1631 H 0.77748 0.88368 0.74377 0.0
C1632 C 0.89084 0.89287 0.72173 0.0
C1633 C 0.90123 0.91084 0.7071 0.0
C1634 C 0.8673 0.89531 0.73055 0.0
C1635 C 0.85344 0.9156 0.72459 0.0
C1636 C 0.8643 0.93383 0.71057 0.0
C1637 C 0.88787 0.9316 0.70221 0.0
C1638 C 0.79356 0.94272 0.74337 0.0
C1639 C 0.77869 0.92242 0.74601 0.0
C1640 C 0.81771 0.9404 0.73696 0.0
C1641 C 0.82768 0.91772 0.73234 0.0
C1642 C 0.81263 0.89735 0.73468 0.0
C1643 C 0.78847 0.89967 0.7417 0.0
H1644 H 0.31854 0.98365 0.91992 0.0
H1645 H 0.38231 0.00429 0.95963 0.0
H1646 H 0.32602 0.94194 0.92898 0.0
H1647 H 0.38902 0.96231 0.97059 0.0
H1648 H 0.40636 0.88294 0.97266 0.0
H1649 H 0.40102 0.92438 0.95914 0.0
H1650 H 0.32399 0.91281 0.95715 0.0
H1651 H 0.32962 0.87152 0.96868 0.0
C1652 C 0.33387 0.97927 0.93123 0.0
C1653 C 0.34965 0.99734 0.93933 0.0
C1654 C 0.33819 0.95518 0.93656 0.0
C1655 C 0.35808 0.94833 0.9508 0.0
C1656 C 0.37373 0.96658 0.95924 0.0
C1657 C 0.36972 0.99076 0.9533 0.0
C1658 C 0.3884 0.88918 0.96858 0.0
C1659 C 0.36848 0.87378 0.97145 0.0
C1660 C 0.38523 0.91312 0.96124 0.0
C1661 C 0.362 0.92239 0.9571 0.0
C1662 C 0.34223 0.9066 0.9595 0.0
C1663 C 0.34546 0.88268 0.96622 0.0
H1664 H 0.10799 0.36181 0.78974 0.0
H1665 H 0.10336 0.43896 0.78539 0.0
H1666 H 0.14953 0.36376 0.77575 0.0
H1667 H 0.14462 0.44092 0.77062 0.0
H1668 H 0.22545 0.44046 0.77734 0.0
H1669 H 0.18332 0.43607 0.7885 0.0
H1670 H 0.17793 0.37235 0.74419 0.0
H1671 H 0.22045 0.37642 0.73365 0.0
C1672 C 0.11558 0.37915 0.78503 0.0
C1673 C 0.10237 0.40025 0.78878 0.0
C1674 C 0.13949 0.38028 0.77708 0.0
C1675 C 0.15071 0.40254 0.77255 0.0
C1676 C 0.13685 0.42349 0.77462 0.0
C1677 C 0.11303 0.42237 0.78272 0.0
C1678 C 0.21538 0.42529 0.77029 0.0
C1679 C 0.22633 0.40877 0.75466 0.0
C1680 C 0.19108 0.42295 0.7764 0.0
C1681 C 0.17696 0.40413 0.76686 0.0
C1682 C 0.18819 0.38704 0.75194 0.0
C1683 C 0.21261 0.38931 0.74595 0.0
H1684 H 0.81137 0.51784 0.06819 0.0
H1685 H 0.87106 0.49778 0.02271 0.0
H1686 H 0.815 0.55893 0.05449 0.0
H1687 H 0.87383 0.53892 0.00748 0.0
H1688 H 0.88854 0.61939 0.00223 0.0
H1689 H 0.88572 0.57795 0.01667 0.0
H1690 H 0.80865 0.58561 0.02391 0.0
H1691 H 0.8119 0.62707 0.01122 0.0
C1692 C 0.8249 0.52211 0.0547 0.0
C1693 C 0.84083 0.50449 0.04643 0.0
C1694 C 0.82698 0.54581 0.04671 0.0
C1695 C 0.84472 0.55257 0.02974 0.0
C1696 C 0.86024 0.53468 0.0209 0.0
C1697 C 0.85847 0.51097 0.02934 0.0
C1698 C 0.87113 0.61222 0.0074 0.0
C1699 C 0.85053 0.62659 0.00601 0.0
C1700 C 0.86939 0.58834 0.01535 0.0
C1701 C 0.84692 0.57814 0.02154 0.0
C1702 C 0.82638 0.59273 0.02 0.0
C1703 C 0.82822 0.61664 0.01264 0.0
H1704 H 0.7125 0.047 0.26051 0.0
H1705 H 0.72556 0.12314 0.25467 0.0
H1706 H 0.6701 0.05309 0.25277 0.0
H1707 H 0.68299 0.12934 0.24511 0.0
H1708 H 0.60182 0.13622 0.24184 0.0
H1709 H 0.64256 0.12992 0.25742 0.0
H1710 H 0.64413 0.06085 0.22182 0.0
H1711 H 0.60347 0.06659 0.20777 0.0
C1712 C 0.70631 0.06509 0.25711 0.0
C1713 C 0.72244 0.08456 0.25782 0.0
C1714 C 0.68188 0.06862 0.25256 0.0
C1715 C 0.67285 0.09171 0.24788 0.0
C1716 C 0.68904 0.11131 0.24888 0.0
C1717 C 0.71354 0.10778 0.25406 0.0
C1718 C 0.6107 0.11942 0.23802 0.0
C1719 C 0.5993 0.10188 0.22365 0.0
C1720 C 0.63424 0.11593 0.24661 0.0
C1721 C 0.647 0.09492 0.2408 0.0
C1722 C 0.63504 0.07709 0.2272 0.0
C1723 C 0.61154 0.08042 0.21898 0.0
H1724 H 0.17027 0.12382 0.47428 0.0
H1725 H 0.09499 0.10966 0.48729 0.0
H1726 H 0.17636 0.08238 0.4638 0.0
H1727 H 0.10055 0.06796 0.47476 0.0
H1728 H 0.12174 0.98882 0.47274 0.0
H1729 H 0.11516 0.0305 0.48479 0.0
H1730 H 0.17231 0.05301 0.43637 0.0
H1731 H 0.17987 0.01171 0.42616 0.0
C1732 C 0.15474 0.11197 0.47405 0.0
C1733 C 0.13205 0.12022 0.48132 0.0
C1734 C 0.15823 0.08796 0.46794 0.0
C1735 C 0.13898 0.07138 0.46817 0.0
C1736 C 0.116 0.07987 0.47472 0.0
C1737 C 0.11265 0.10392 0.4815 0.0
C1738 C 0.13318 0.00275 0.46519 0.0
C1739 C 0.15161 0.99687 0.44885 0.0
C1740 C 0.12919 0.02676 0.47177 0.0
C1741 C 0.14316 0.04554 0.46168 0.0
C1742 C 0.16152 0.03937 0.44525 0.0
C1743 C 0.16587 0.01548 0.43925 0.0
H1744 H 0.09688 0.25187 0.49777 0.0
H1745 H 0.17333 0.25083 0.48418 0.0
H1746 H 0.09605 0.29473 0.48804 0.0
H1747 H 0.17236 0.29355 0.47396 0.0
H1748 H 0.15934 0.36702 0.44099 0.0
H1749 H 0.15326 0.32356 0.44275 0.0
H1750 H 0.11595 0.33106 0.51095 0.0
H1751 H 0.12246 0.37449 0.5095 0.0
C1752 C 0.1134 0.26067 0.4922 0.0
C1753 C 0.1352 0.248 0.49178 0.0
C1754 C 0.11292 0.28521 0.48674 0.0
C1755 C 0.13412 0.29745 0.48024 0.0
C1756 C 0.1557 0.28452 0.47869 0.0
C1757 C 0.15628 0.2601 0.48462 0.0
C1758 C 0.14922 0.35949 0.45601 0.0
C1759 C 0.14139 0.37418 0.47514 0.0
C1760 C 0.14595 0.33459 0.4571 0.0
C1761 C 0.13432 0.32394 0.47707 0.0
C1762 C 0.12488 0.33879 0.49528 0.0
C1763 C 0.12858 0.36365 0.49444 0.0
H1764 H 0.98568 0.45398 0.85747 0.0
H1765 H 0.97091 0.3915 0.81359 0.0
H1766 H 0.94253 0.46035 0.86237 0.0
H1767 H 0.92806 0.39704 0.81937 0.0
H1768 H 0.85209 0.42687 0.81468 0.0
H1769 H 0.89475 0.41983 0.80943 0.0
H1770 H 0.90809 0.44521 0.88242 0.0
H1771 H 0.86524 0.45337 0.88716 0.0
C1772 C 0.97322 0.44174 0.8487 0.0
C1773 C 0.98176 0.42236 0.83499 0.0
C1774 C 0.94844 0.44514 0.85181 0.0
C1775 C 0.93159 0.42907 0.84152 0.0
C1776 C 0.94028 0.41002 0.82735 0.0
C1777 C 0.96498 0.40681 0.82401 0.0
C1778 C 0.86402 0.43051 0.82983 0.0
C1779 C 0.85519 0.44063 0.85138 0.0
C1780 C 0.88863 0.42648 0.8268 0.0
C1781 C 0.90513 0.43216 0.84538 0.0
C1782 C 0.89609 0.44114 0.86746 0.0
C1783 C 0.87144 0.44544 0.87037 0.0
H1784 H 0.7774 0.38613 0.07496 0.0
H1785 H 0.8414 0.37775 0.03153 0.0
H1786 H 0.7657 0.34475 0.0659 0.0
H1787 H 0.83046 0.33644 0.02341 0.0
H1788 H 0.76988 0.2625 0.072 0.0
H1789 H 0.77734 0.30541 0.0771 0.0
H1790 H 0.80523 0.30917 0.00388 0.0
H1791 H 0.79885 0.26623 0.99938 0.0
C1792 C 0.78876 0.37559 0.06316 0.0
C1793 C 0.81033 0.38523 0.05399 0.0
C1794 C 0.78225 0.35175 0.05824 0.0
C1795 C 0.79727 0.33701 0.04417 0.0
C1796 C 0.81823 0.34716 0.03408 0.0
C1797 C 0.82459 0.37095 0.0388 0.0
C1798 C 0.77777 0.27253 0.05711 0.0
C1799 C 0.78409 0.26096 0.03543 0.0
C1800 C 0.78178 0.29721 0.05988 0.0
C1801 C 0.7919 0.31092 0.0409 0.0
C1802 C 0.79785 0.29924 0.01909 0.0
C1803 C 0.79417 0.27457 0.01648 0.0
H1804 H 0.8469 0.02839 0.22318 0.0
H1805 H 0.85105 0.1055 0.22954 0.0
H1806 H 0.88643 0.02822 0.20376 0.0
H1807 H 0.89072 0.10523 0.21046 0.0
H1808 H 0.95384 0.03693 0.15842 0.0
H1809 H 0.91112 0.04342 0.16671 0.0
H1810 H 0.93007 0.08783 0.22805 0.0
H1811 H 0.97269 0.08102 0.22006 0.0
C1812 C 0.856 0.04533 0.21992 0.0
C1813 C 0.84592 0.06693 0.22799 0.0
C1814 C 0.87859 0.04525 0.20874 0.0
C1815 C 0.8917 0.06672 0.20575 0.0
C1816 C 0.88107 0.08843 0.21267 0.0
C1817 C 0.85831 0.08856 0.22347 0.0
C1818 C 0.94888 0.04861 0.17326 0.0
C1819 C 0.96659 0.05842 0.18866 0.0
C1820 C 0.92444 0.05216 0.1781 0.0
C1821 C 0.91729 0.066 0.19809 0.0
C1822 C 0.93505 0.07721 0.21241 0.0
C1823 C 0.95945 0.0733 0.20786 0.0
H1824 H 0.16581 0.86781 0.46343 0.0
H1825 H 0.22306 0.87952 0.41178 0.0
H1826 H 0.17798 0.82644 0.46823 0.0
H1827 H 0.23607 0.83804 0.41734 0.0
H1828 H 0.21415 0.75713 0.48645 0.0
H1829 H 0.20609 0.79972 0.48345 0.0
H1830 H 0.22415 0.79818 0.40711 0.0
H1831 H 0.23336 0.75541 0.41055 0.0
C1832 C 0.18147 0.86173 0.45359 0.0
C1833 C 0.19346 0.87705 0.43724 0.0
C1834 C 0.18853 0.83787 0.45636 0.0
C1835 C 0.20798 0.82862 0.44307 0.0
C1836 C 0.22072 0.84431 0.42755 0.0
C1837 C 0.21351 0.86823 0.42463 0.0
C1838 C 0.21631 0.76581 0.46896 0.0
C1839 C 0.22417 0.75278 0.44867 0.0
C1840 C 0.21161 0.79034 0.46721 0.0
C1841 C 0.21428 0.8026 0.445 0.0
C1842 C 0.22219 0.78953 0.42463 0.0
C1843 C 0.22721 0.76493 0.42648 0.0
H1844 H 0.34696 0.40187 0.78079 0.0
H1845 H 0.35523 0.47272 0.7499 0.0
H1846 H 0.38871 0.40351 0.79534 0.0
H1847 H 0.39697 0.47398 0.76394 0.0
H1848 H 0.4749 0.44385 0.7548 0.0
H1849 H 0.43173 0.44124 0.74749 0.0
H1850 H 0.41901 0.43506 0.8245 0.0
H1851 H 0.46256 0.43837 0.8321 0.0
C1852 C 0.3575 0.41798 0.77759 0.0
C1853 C 0.34784 0.43715 0.76415 0.0
C1854 C 0.38133 0.41887 0.78591 0.0
C1855 C 0.39598 0.43876 0.78052 0.0
C1856 C 0.38598 0.45841 0.7682 0.0
C1857 C 0.36207 0.45773 0.76031 0.0
C1858 C 0.46303 0.44156 0.77023 0.0
C1859 C 0.47218 0.44137 0.79405 0.0
C1860 C 0.43831 0.44026 0.76601 0.0
C1861 C 0.42215 0.43828 0.78546 0.0
C1862 C 0.4312 0.43669 0.80924 0.0
C1863 C 0.45605 0.43847 0.81354 0.0
H1864 H 0.82417 0.77272 0.97289 0.0
H1865 H 0.88283 0.7521 0.01991 0.0
H1866 H 0.83343 0.81485 0.98033 0.0
H1867 H 0.89175 0.79468 0.02776 0.0
H1868 H 0.87503 0.88351 0.97188 0.0
H1869 H 0.87365 0.83995 0.96861 0.0
H1870 H 0.8666 0.83394 0.04638 0.0
H1871 H 0.86757 0.87779 0.0498 0.0
C1872 C 0.8388 0.77716 0.98514 0.0
C1873 C 0.85281 0.75907 0.99576 0.0
C1874 C 0.84421 0.80129 0.98922 0.0
C1875 C 0.86351 0.80794 0.00431 0.0
C1876 C 0.87686 0.78995 0.01595 0.0
C1877 C 0.8717 0.76567 0.0115 0.0
C1878 C 0.87395 0.87297 0.98841 0.0
C1879 C 0.87111 0.88415 0.01108 0.0
C1880 C 0.87299 0.84803 0.98648 0.0
C1881 C 0.86956 0.8337 0.0072 0.0
C1882 C 0.86919 0.84465 0.03014 0.0
C1883 C 0.86987 0.86973 0.03208 0.0
H1884 H 0.35041 0.07268 0.20532 0.0
H1885 H 0.36195 0.06139 0.12867 0.0
H1886 H 0.39283 0.08214 0.21061 0.0
H1887 H 0.40436 0.0718 0.13371 0.0
H1888 H 0.48284 0.06283 0.15439 0.0
H1889 H 0.43986 0.05457 0.15018 0.0
H1890 H 0.42471 0.10918 0.20353 0.0
H1891 H 0.46759 0.11668 0.20836 0.0
C1892 C 0.36187 0.07293 0.18943 0.0
C1893 C 0.35275 0.06629 0.16656 0.0
C1894 C 0.38631 0.07832 0.19247 0.0
C1895 C 0.40226 0.07741 0.17267 0.0
C1896 C 0.39281 0.07209 0.14952 0.0
C1897 C 0.36838 0.0665 0.14652 0.0
C1898 C 0.47032 0.07273 0.16553 0.0
C1899 C 0.47866 0.09032 0.18178 0.0
C1900 C 0.44562 0.06828 0.16286 0.0
C1901 C 0.42864 0.08145 0.17624 0.0
C1902 C 0.43713 0.09852 0.19305 0.0
C1903 C 0.4618 0.10282 0.19584 0.0
H1904 H 0.49117 0.34955 0.0383 0.0
H1905 H 0.56823 0.35621 0.04638 0.0
H1906 H 0.48626 0.35659 0.08196 0.0
H1907 H 0.56323 0.36281 0.08986 0.0
H1908 H 0.54491 0.3276 0.16397 0.0
H1909 H 0.54642 0.32888 0.11982 0.0
H1910 H 0.49683 0.38803 0.11926 0.0
H1911 H 0.49565 0.38719 0.16398 0.0
C1912 C 0.50699 0.35331 0.0492 0.0
C1913 C 0.53011 0.35215 0.03885 0.0
C1914 C 0.50415 0.35725 0.0742 0.0
C1915 C 0.52439 0.3598 0.08929 0.0
C1916 C 0.54734 0.36059 0.07864 0.0
C1917 C 0.55017 0.35701 0.05368 0.0
C1918 C 0.53409 0.34077 0.15455 0.0
C1919 C 0.52019 0.35733 0.16755 0.0
C1920 C 0.53515 0.34162 0.12923 0.0
C1921 C 0.52206 0.35881 0.11617 0.0
C1922 C 0.50721 0.3747 0.12895 0.0
C1923 C 0.50647 0.37414 0.15448 0.0
H1924 H 0.00207 0.73215 0.15365 0.0
H1925 H 0.07869 0.74112 0.16327 0.0
H1926 H 0.00826 0.72236 0.11101 0.0
H1927 H 0.08501 0.7307 0.1207 0.0
H1928 H 0.08872 0.73174 0.03888 0.0
H1929 H 0.07931 0.74567 0.07982 0.0
H1930 H 0.02369 0.69146 0.08553 0.0
H1931 H 0.03268 0.67804 0.04458 0.0
C1932 C 0.02029 0.73172 0.14673 0.0
C1933 C 0.0399 0.7373 0.16191 0.0
C1934 C 0.02385 0.7261 0.12224 0.0
C1935 C 0.04713 0.72587 0.11226 0.0
C1936 C 0.06678 0.73116 0.12758 0.0
C1937 C 0.0632 0.73683 0.15209 0.0
C1938 C 0.07404 0.72326 0.04864 0.0
C1939 C 0.06146 0.70378 0.03843 0.0
C1940 C 0.06888 0.731 0.07227 0.0
C1941 C 0.05099 0.71945 0.08622 0.0
C1942 C 0.03749 0.7009 0.07539 0.0
C1943 C 0.04264 0.69319 0.05181 0.0
H1944 H 0.52481 0.40141 0.32013 0.0
H1945 H 0.46786 0.35437 0.29544 0.0
H1946 H 0.51156 0.39594 0.362 0.0
H1947 H 0.45429 0.34922 0.33731 0.0
H1948 H 0.45718 0.31959 0.4144 0.0
H1949 H 0.46941 0.32847 0.37289 0.0
H1950 H 0.48029 0.40283 0.39209 0.0
H1951 H 0.46837 0.3938 0.43393 0.0
C1952 C 0.50906 0.39038 0.32357 0.0
C1953 C 0.4974 0.37832 0.30439 0.0
C1954 C 0.50147 0.38721 0.34763 0.0
C1955 C 0.48206 0.37184 0.35315 0.0
C1956 C 0.46963 0.3608 0.33381 0.0
C1957 C 0.47719 0.36401 0.30973 0.0
C1958 C 0.46241 0.33781 0.40988 0.0
C1959 C 0.46181 0.35598 0.42754 0.0
C1960 C 0.46916 0.34297 0.38594 0.0
C1961 C 0.47548 0.36646 0.37895 0.0
C1962 C 0.4756 0.38453 0.39681 0.0
C1963 C 0.4688 0.37935 0.42082 0.0
H1964 H 0.01968 0.65613 0.53664 0.0
H1965 H 0.94377 0.64003 0.542 0.0
H1966 H 0.02396 0.65015 0.58051 0.0
H1967 H 0.94808 0.63425 0.5857 0.0
H1968 H 0.95788 0.66597 0.66201 0.0
H1969 H 0.95705 0.666 0.61778 0.0
H1970 H 0.0192 0.62008 0.61646 0.0
H1971 H 0.01992 0.61979 0.66109 0.0
C1972 C 0.00406 0.6506 0.54702 0.0
C1973 C 0.98135 0.64869 0.53579 0.0
C1974 C 0.00651 0.64727 0.57218 0.0
C1975 C 0.98626 0.64222 0.58661 0.0
C1976 C 0.96394 0.63857 0.57511 0.0
C1977 C 0.96153 0.64163 0.54999 0.0
C1978 C 0.97155 0.65605 0.65237 0.0
C1979 C 0.98896 0.64287 0.66512 0.0
C1980 C 0.97091 0.65587 0.62699 0.0
C1981 C 0.98781 0.64272 0.61363 0.0
C1982 C 0.00588 0.6303 0.62628 0.0
C1983 C 0.00633 0.6302 0.6518 0.0
H1984 H 0.02275 0.6756 0.79524 0.0
H1985 H 0.02914 0.59898 0.80399 0.0
H1986 H 0.03602 0.68151 0.83675 0.0
H1987 H 0.04377 0.60486 0.84547 0.0
H1988 H 0.07808 0.68787 0.90644 0.0
H1989 H 0.06704 0.68111 0.86438 0.0
H1990 H 0.03122 0.61502 0.88481 0.0
H1991 H 0.04357 0.62133 0.92699 0.0
C1992 C 0.0277 0.65999 0.80582 0.0
C1993 C 0.02498 0.6368 0.79617 0.0
C1994 C 0.03538 0.66338 0.8298 0.0
C1995 C 0.04095 0.64369 0.84483 0.0
C1996 C 0.0392 0.62049 0.83477 0.0
C1997 C 0.03117 0.61709 0.81081 0.0
C1998 C 0.06767 0.67197 0.90203 0.0
C1999 C 0.06157 0.65523 0.92017 0.0
C2000 C 0.06123 0.66808 0.87778 0.0
C2001 C 0.04811 0.64749 0.87087 0.0
C2002 C 0.04168 0.63088 0.88917 0.0
C2003 C 0.04847 0.63463 0.91347 0.0
H2004 H 0.44319 0.84892 0.45692 0.0
H2005 H 0.51964 0.83687 0.4626 0.0
H2006 H 0.44717 0.8541 0.4131 0.0
H2007 H 0.52359 0.84214 0.41865 0.0
H2008 H 0.52 0.87126 0.33839 0.0
H2009 H 0.51875 0.87077 0.38293 0.0
H2010 H 0.45651 0.82414 0.38047 0.0
H2011 H 0.4578 0.82451 0.3362 0.0
C2012 C 0.46097 0.84804 0.44895 0.0
C2013 C 0.48108 0.84241 0.46333 0.0
C2014 C 0.46319 0.85071 0.42375 0.0
C2015 C 0.48563 0.84806 0.41231 0.0
C2016 C 0.50606 0.84425 0.42688 0.0
C2017 C 0.50379 0.84134 0.4521 0.0
C2018 C 0.50625 0.86066 0.34739 0.0
C2019 C 0.48902 0.8479 0.33372 0.0
C2020 C 0.50551 0.86043 0.37289 0.0
C2021 C 0.4873 0.84773 0.38525 0.0
C2022 C 0.47048 0.83449 0.37153 0.0
C2023 C 0.4714 0.83449 0.34613 0.0
H2024 H 0.54697 0.33283 0.90058 0.0
H2025 H 0.48453 0.28926 0.91689 0.0
H2026 H 0.54031 0.32631 0.8571 0.0
H2027 H 0.47774 0.28302 0.87352 0.0
H2028 H 0.46246 0.28773 0.79346 0.0
H2029 H 0.46782 0.30437 0.83407 0.0
H2030 H 0.54362 0.28847 0.83097 0.0
H2031 H 0.53827 0.27158 0.79028 0.0
C2032 C 0.53149 0.32236 0.89487 0.0
C2033 C 0.51627 0.31154 0.91216 0.0
C2034 C 0.52781 0.31849 0.86999 0.0
C2035 C 0.50858 0.30408 0.86189 0.0
C2036 C 0.4926 0.29438 0.87916 0.0
C2037 C 0.49651 0.29792 0.90402 0.0
C2038 C 0.48039 0.28824 0.80117 0.0
C2039 C 0.49993 0.27818 0.78867 0.0
C2040 C 0.4834 0.29765 0.82452 0.0
C2041 C 0.50607 0.29752 0.83581 0.0
C2042 C 0.52594 0.28894 0.82269 0.0
C2043 C 0.52288 0.27924 0.7994 0.0
H2044 H 0.40361 0.9658 0.63278 0.0
H2045 H 0.40401 0.91623 0.69319 0.0
H2046 H 0.36007 0.96072 0.62913 0.0
H2047 H 0.36051 0.91144 0.68967 0.0
H2048 H 0.28118 0.93952 0.62344 0.0
H2049 H 0.32447 0.93212 0.622 0.0
H2050 H 0.32904 0.94322 0.69945 0.0
H2051 H 0.28584 0.95092 0.70089 0.0
C2052 C 0.39456 0.95318 0.64471 0.0
C2053 C 0.40728 0.9416 0.66339 0.0
C2054 C 0.36959 0.95032 0.64267 0.0
C2055 C 0.35684 0.936 0.65941 0.0
C2056 C 0.36982 0.92285 0.67675 0.0
C2057 C 0.3948 0.92545 0.67858 0.0
C2058 C 0.29134 0.9399 0.64025 0.0
C2059 C 0.28011 0.94588 0.6623 0.0
C2060 C 0.31614 0.93578 0.63936 0.0
C2061 C 0.33015 0.93713 0.66057 0.0
C2062 C 0.31868 0.94181 0.68282 0.0
C2063 C 0.29395 0.9463 0.68365 0.0
H2064 H 0.82288 0.14068 0.06277 0.0
H2065 H 0.81591 0.12705 0.98587 0.0
H2066 H 0.84193 0.10172 0.06826 0.0
H2067 H 0.83507 0.08811 0.99137 0.0
H2068 H 0.87679 0.0216 0.00553 0.0
H2069 H 0.87219 0.06515 0.00445 0.0
H2070 H 0.8226 0.06084 0.06459 0.0
H2071 H 0.82701 0.01737 0.06554 0.0
C2072 C 0.82597 0.12964 0.04693 0.0
C2073 C 0.81766 0.13683 0.0239 0.0
C2074 C 0.8368 0.10729 0.05012 0.0
C2075 C 0.83982 0.09178 0.03031 0.0
C2076 C 0.83317 0.09974 0.00698 0.0
C2077 C 0.82211 0.12202 0.00382 0.0
C2078 C 0.86556 0.03003 0.01907 0.0
C2079 C 0.8521 0.01605 0.03552 0.0
C2080 C 0.86277 0.05495 0.01828 0.0
C2081 C 0.84681 0.06637 0.03421 0.0
C2082 C 0.83513 0.0526 0.05214 0.0
C2083 C 0.83764 0.02767 0.0527 0.0
H2084 H 0.90735 0.52383 0.3711 0.0
H2085 H 0.91014 0.58426 0.32195 0.0
H2086 H 0.86391 0.52868 0.37489 0.0
H2087 H 0.86671 0.58898 0.32566 0.0
H2088 H 0.785 0.54635 0.38135 0.0
H2089 H 0.82806 0.55457 0.38635 0.0
H2090 H 0.83561 0.5603 0.3085 0.0
H2091 H 0.79279 0.55185 0.30351 0.0
C2092 C 0.89884 0.53867 0.3618 0.0
C2093 C 0.91216 0.55345 0.34599 0.0
C2094 C 0.87393 0.54145 0.36396 0.0
C2095 C 0.86186 0.55896 0.35023 0.0
C2096 C 0.8755 0.57512 0.33619 0.0
C2097 C 0.90041 0.57249 0.33422 0.0
C2098 C 0.79577 0.54995 0.36536 0.0
C2099 C 0.78557 0.54835 0.34201 0.0
C2100 C 0.82043 0.55453 0.36823 0.0
C2101 C 0.83522 0.55803 0.34784 0.0
C2102 C 0.82466 0.55795 0.3246 0.0
C2103 C 0.80014 0.553 0.32171 0.0
H2104 H 0.19036 0.5063 0.42887 0.0
H2105 H 0.13915 0.51232 0.4874 0.0
H2106 H 0.19383 0.54989 0.42703 0.0
H2107 H 0.14276 0.55602 0.48566 0.0
H2108 H 0.19547 0.62235 0.50034 0.0
H2109 H 0.17815 0.58209 0.49756 0.0
H2110 H 0.17344 0.58932 0.41961 0.0
H2111 H 0.19067 0.62963 0.42237 0.0
C2112 C 0.1793 0.51696 0.44085 0.0
C2113 C 0.16458 0.50585 0.45834 0.0
C2114 C 0.18125 0.54197 0.43978 0.0
C2115 C 0.16875 0.55641 0.45638 0.0
C2116 C 0.15279 0.54535 0.4728 0.0
C2117 C 0.15059 0.52032 0.47364 0.0
C2118 C 0.19009 0.61563 0.48269 0.0
C2119 C 0.19462 0.62912 0.46158 0.0
C2120 C 0.18011 0.59256 0.48108 0.0
C2121 C 0.17465 0.58242 0.45832 0.0
C2122 C 0.17769 0.59655 0.43737 0.0
C2123 C 0.18743 0.61971 0.43899 0.0
H2124 H 0.09673 0.08271 0.17009 0.0
H2125 H 0.10144 0.0113 0.1402 0.0
H2126 H 0.1408 0.08534 0.17118 0.0
H2127 H 0.14523 0.01386 0.1419 0.0
H2128 H 0.21223 0.0149 0.19399 0.0
H2129 H 0.16906 0.0188 0.18699 0.0
H2130 H 0.182 0.07894 0.1393 0.0
H2131 H 0.22557 0.07472 0.14575 0.0
C2132 C 0.10711 0.06793 0.163 0.0
C2133 C 0.09556 0.04673 0.1552 0.0
C2134 C 0.1323 0.06942 0.16375 0.0
C2135 C 0.14625 0.04964 0.15701 0.0
C2136 C 0.13478 0.02925 0.14741 0.0
C2137 C 0.1097 0.0279 0.14627 0.0
C2138 C 0.20594 0.02922 0.18231 0.0
C2139 C 0.22232 0.04449 0.1704 0.0
C2140 C 0.18125 0.0313 0.17816 0.0
C2141 C 0.17235 0.04896 0.16239 0.0
C2142 C 0.18852 0.06512 0.15146 0.0
C2143 C 0.21336 0.06274 0.15523 0.0
H2144 H 0.63761 0.97948 0.48559 0.0
H2145 H 0.67581 0.98374 0.55384 0.0
H2146 H 0.64173 0.9359 0.48594 0.0
H2147 H 0.67999 0.94027 0.55414 0.0
H2148 H 0.67852 0.86051 0.55415 0.0
H2149 H 0.66075 0.90034 0.5556 0.0
H2150 H 0.67793 0.91085 0.47983 0.0
H2151 H 0.69557 0.87089 0.47833 0.0
C2152 C 0.64626 0.97107 0.50103 0.0
C2153 C 0.65655 0.98508 0.51962 0.0
C2154 C 0.64881 0.94611 0.5011 0.0
C2155 C 0.66147 0.93463 0.51988 0.0
C2156 C 0.67001 0.9485 0.53945 0.0
C2157 C 0.66764 0.97346 0.53929 0.0
C2158 C 0.67803 0.87109 0.53764 0.0
C2159 C 0.68867 0.86263 0.51616 0.0
C2160 C 0.66795 0.89398 0.53853 0.0
C2161 C 0.66815 0.90889 0.51793 0.0
C2162 C 0.6773 0.89976 0.496 0.0
C2163 C 0.68749 0.87688 0.49513 0.0
H2164 H 0.72318 0.44301 0.88196 0.0
H2165 H 0.7205 0.44805 0.80372 0.0
H2166 H 0.67996 0.43447 0.88288 0.0
H2167 H 0.67741 0.4393 0.80464 0.0
H2168 H 0.60228 0.41204 0.81074 0.0
H2169 H 0.64571 0.4082 0.81577 0.0
H2170 H 0.64442 0.46123 0.87275 0.0
H2171 H 0.601 0.46527 0.86761 0.0
C2172 C 0.71348 0.44175 0.86492 0.0
C2173 C 0.72523 0.4463 0.84275 0.0
C2174 C 0.68872 0.43697 0.86549 0.0
C2175 C 0.67527 0.43625 0.84386 0.0
C2176 C 0.68731 0.43947 0.82161 0.0
C2177 C 0.71198 0.44459 0.82107 0.0
C2178 C 0.6111 0.42229 0.82492 0.0
C2179 C 0.59819 0.43912 0.83865 0.0
C2180 C 0.63603 0.42024 0.82762 0.0
C2181 C 0.64853 0.43467 0.84438 0.0
C2182 C 0.6353 0.44981 0.85971 0.0
C2183 C 0.61039 0.4521 0.8568 0.0
H2184 H 0.3067 0.37194 0.02111 0.0
H2185 H 0.31879 0.36118 0.94443 0.0
H2186 H 0.32563 0.41153 0.01829 0.0
H2187 H 0.33754 0.4008 0.94163 0.0
H2188 H 0.36858 0.47938 0.00852 0.0
H2189 H 0.36346 0.43576 0.00845 0.0
H2190 H 0.31736 0.44116 0.94552 0.0
H2191 H 0.32224 0.48468 0.94576 0.0
C2192 C 0.31397 0.37774 0.00381 0.0
C2193 C 0.31106 0.3635 0.98298 0.0
C2194 C 0.32488 0.40041 0.0022 0.0
C2195 C 0.33287 0.40937 0.97967 0.0
C2196 C 0.33135 0.39447 0.95917 0.0
C2197 C 0.32071 0.37172 0.96084 0.0
C2198 C 0.35799 0.47118 0.9942 0.0
C2199 C 0.34573 0.48546 0.97718 0.0
C2200 C 0.35489 0.44623 0.99432 0.0
C2201 C 0.33984 0.43506 0.97713 0.0
C2202 C 0.3292 0.4492 0.95892 0.0
C2203 C 0.33198 0.47415 0.95904 0.0
H2204 H 0.36708 0.62374 0.03524 0.0
H2205 H 0.36921 0.62111 0.95684 0.0
H2206 H 0.36907 0.66738 0.03372 0.0
H2207 H 0.37168 0.66509 0.95547 0.0
H2208 H 0.33179 0.73927 0.01812 0.0
H2209 H 0.33499 0.69574 0.01566 0.0
H2210 H 0.39897 0.703 0.97197 0.0
H2211 H 0.39612 0.74687 0.9748 0.0
C2212 C 0.36869 0.63241 0.01768 0.0
C2213 C 0.36781 0.61891 0.99615 0.0
C2214 C 0.36962 0.65743 0.01684 0.0
C2215 C 0.37008 0.66957 0.99447 0.0
C2216 C 0.37124 0.65613 0.97294 0.0
C2217 C 0.36996 0.63098 0.97376 0.0
C2218 C 0.34636 0.73168 0.00767 0.0
C2219 C 0.36374 0.74655 0.99671 0.0
C2220 C 0.34829 0.70674 0.00644 0.0
C2221 C 0.36741 0.69605 0.99391 0.0
C2222 C 0.38411 0.71082 0.98181 0.0
C2223 C 0.38242 0.73588 0.9834 0.0
H2224 H 0.6453 0.62405 0.52861 0.0
H2225 H 0.71145 0.61521 0.56878 0.0
H2226 H 0.65524 0.6661 0.52165 0.0
H2227 H 0.7217 0.65723 0.56135 0.0
H2228 H 0.71663 0.73819 0.57203 0.0
H2229 H 0.70718 0.69556 0.57599 0.0
H2230 H 0.68168 0.6944 0.50182 0.0
H2231 H 0.69064 0.73711 0.49807 0.0
C2232 C 0.66229 0.63093 0.53541 0.0
C2233 C 0.67755 0.61629 0.54933 0.0
C2234 C 0.66798 0.65509 0.53144 0.0
C2235 C 0.68908 0.66519 0.54129 0.0
C2236 C 0.70502 0.65017 0.55399 0.0
C2237 C 0.69933 0.62598 0.55796 0.0
C2238 C 0.70867 0.7289 0.5567 0.0
C2239 C 0.7043 0.74106 0.53478 0.0
C2240 C 0.70356 0.70438 0.55884 0.0
C2241 C 0.69398 0.69143 0.53911 0.0
C2242 C 0.68894 0.7038 0.51742 0.0
C2243 C 0.69404 0.72832 0.51528 0.0
H2244 H 0.26778 0.24058 0.9263 0.0
H2245 H 0.29411 0.23472 0.99988 0.0
H2246 H 0.27643 0.19818 0.9197 0.0
H2247 H 0.30204 0.1923 0.99363 0.0
H2248 H 0.34003 0.1256 0.96332 0.0
H2249 H 0.32876 0.16653 0.97285 0.0
H2250 H 0.26388 0.15814 0.93026 0.0
H2251 H 0.27564 0.11722 0.92011 0.0
C2252 C 0.27542 0.23023 0.94105 0.0
C2253 C 0.28045 0.24106 0.96353 0.0
C2254 C 0.28013 0.20584 0.93739 0.0
C2255 C 0.28986 0.19169 0.95617 0.0
C2256 C 0.29485 0.20263 0.97864 0.0
C2257 C 0.29027 0.22699 0.98224 0.0
C2258 C 0.32311 0.13229 0.95637 0.0
C2259 C 0.30877 0.11814 0.9409 0.0
C2260 C 0.31661 0.15584 0.96186 0.0
C2261 C 0.29552 0.16585 0.9521 0.0
C2262 C 0.28051 0.15122 0.93768 0.0
C2263 C 0.28707 0.12763 0.93213 0.0
H2264 H 0.66949 0.23208 0.48192 0.0
H2265 H 0.59967 0.24201 0.51467 0.0
H2266 H 0.66545 0.18885 0.48727 0.0
H2267 H 0.59599 0.19831 0.52046 0.0
H2268 H 0.63415 0.11701 0.54342 0.0
H2269 H 0.62902 0.16071 0.54363 0.0
H2270 H 0.62616 0.16087 0.46539 0.0
H2271 H 0.63083 0.11741 0.46499 0.0
C2272 C 0.65348 0.22511 0.49073 0.0
C2273 C 0.63484 0.24049 0.49777 0.0
C2274 C 0.65116 0.20035 0.49366 0.0
C2275 C 0.63032 0.19039 0.50401 0.0
C2276 C 0.61219 0.20569 0.51238 0.0
C2277 C 0.61436 0.2306 0.50913 0.0
C2278 C 0.63145 0.12624 0.52631 0.0
C2279 C 0.63312 0.11376 0.50416 0.0
C2280 C 0.6286 0.15123 0.52648 0.0
C2281 C 0.6275 0.164 0.50452 0.0
C2282 C 0.62709 0.15133 0.48253 0.0
C2283 C 0.62967 0.12644 0.48235 0.0
H2284 H 0.53823 0.81515 0.9561 0.0
H2285 H 0.59631 0.76431 0.96044 0.0
H2286 H 0.52949 0.80222 0.91491 0.0
H2287 H 0.58709 0.75073 0.91924 0.0
H2288 H 0.58454 0.7552 0.83581 0.0
H2289 H 0.59143 0.76555 0.87839 0.0
H2290 H 0.51473 0.77159 0.88914 0.0
H2291 H 0.508 0.76202 0.84656 0.0
C2292 C 0.54873 0.8007 0.9485 0.0
C2293 C 0.56798 0.79079 0.96162 0.0
C2294 C 0.54371 0.79325 0.92477 0.0
C2295 C 0.55775 0.77559 0.91348 0.0
C2296 C 0.57621 0.76473 0.92711 0.0
C2297 C 0.58126 0.77224 0.95091 0.0
C2298 C 0.5692 0.75901 0.84723 0.0
C2299 C 0.54574 0.75798 0.83771 0.0
C2300 C 0.57311 0.76464 0.87175 0.0
C2301 C 0.55364 0.76927 0.88739 0.0
C2302 C 0.53021 0.76843 0.8777 0.0
C2303 C 0.52633 0.76292 0.85321 0.0
H2304 H 0.0466 0.17588 0.83767 0.0
H2305 H 0.98795 0.12476 0.83567 0.0
H2306 H 0.04646 0.17443 0.88192 0.0
H2307 H 0.98761 0.1236 0.8803 0.0
H2308 H 0.98267 0.15708 0.96108 0.0
H2309 H 0.97993 0.15246 0.91691 0.0
H2310 H 0.05668 0.14213 0.91345 0.0
H2311 H 0.05945 0.14646 0.95746 0.0
C2312 C 0.03346 0.16454 0.84667 0.0
C2313 C 0.01728 0.15044 0.83309 0.0
C2314 C 0.03355 0.16353 0.87206 0.0
C2315 C 0.01727 0.14863 0.88461 0.0
C2316 C 0.00043 0.13519 0.87113 0.0
C2317 C 0.00058 0.13591 0.8456 0.0
C2318 C 0.99885 0.15305 0.95099 0.0
C2319 C 0.0213 0.15221 0.96285 0.0
C2320 C 0.99727 0.15051 0.92566 0.0
C2321 C 0.01815 0.1474 0.91167 0.0
C2322 C 0.04032 0.14492 0.92371 0.0
C2323 C 0.04186 0.14713 0.949 0.0
H2324 H 0.52716 0.81702 0.20595 0.0
H2325 H 0.53281 0.89377 0.19713 0.0
H2326 H 0.54078 0.81135 0.16459 0.0
H2327 H 0.54776 0.88817 0.15581 0.0
H2328 H 0.54729 0.87168 0.07437 0.0
H2329 H 0.535 0.87762 0.11653 0.0
H2330 H 0.57178 0.81251 0.13693 0.0
H2331 H 0.5828 0.80608 0.09484 0.0
C2332 C 0.53205 0.83273 0.1954 0.0
C2333 C 0.52897 0.85586 0.20497 0.0
C2334 C 0.53991 0.82948 0.17151 0.0
C2335 C 0.5453 0.84928 0.15649 0.0
C2336 C 0.54331 0.87245 0.1665 0.0
C2337 C 0.53511 0.8757 0.19038 0.0
C2338 C 0.55241 0.8585 0.08787 0.0
C2339 C 0.56579 0.83829 0.08115 0.0
C2340 C 0.54566 0.86205 0.11217 0.0
C2341 C 0.55242 0.84563 0.13045 0.0
C2342 C 0.56576 0.82538 0.12353 0.0
C2343 C 0.57217 0.82169 0.09927 0.0
H2344 H 0.89646 0.22899 0.45671 0.0
H2345 H 0.96658 0.19647 0.4585 0.0
H2346 H 0.90313 0.2416 0.41506 0.0
H2347 H 0.97428 0.21061 0.41731 0.0
H2348 H 0.97161 0.21289 0.33516 0.0
H2349 H 0.96539 0.20244 0.37769 0.0
H2350 H 0.92053 0.26502 0.38625 0.0
H2351 H 0.92542 0.27414 0.34338 0.0
C2352 C 0.91373 0.22535 0.44846 0.0
C2353 C 0.93102 0.2118 0.46092 0.0
C2354 C 0.91763 0.23259 0.42441 0.0
C2355 C 0.93919 0.22693 0.41229 0.0
C2356 C 0.95712 0.21471 0.4255 0.0
C2357 C 0.95293 0.20695 0.44935 0.0
C2358 C 0.96015 0.22414 0.34615 0.0
C2359 C 0.94878 0.24414 0.33587 0.0
C2360 C 0.95683 0.21841 0.37072 0.0
C2361 C 0.94257 0.23293 0.38588 0.0
C2362 C 0.93125 0.253 0.37538 0.0
C2363 C 0.93408 0.25833 0.35068 0.0
H2364 H 0.00736 0.10735 0.68214 0.0
H2365 H 0.96249 0.16461 0.70832 0.0
H2366 H 0.99167 0.1132 0.64123 0.0
H2367 H 0.94619 0.17005 0.6675 0.0
H2368 H 0.94406 0.1939 0.58852 0.0
H2369 H 0.95901 0.18591 0.62934 0.0
H2370 H 0.95824 0.10988 0.61426 0.0
H2371 H 0.94391 0.11803 0.57312 0.0
C2372 C 0.99368 0.12081 0.67928 0.0
C2373 C 0.98618 0.1355 0.69856 0.0
C2374 C 0.98466 0.12419 0.65575 0.0
C2375 C 0.96784 0.14233 0.65083 0.0
C2376 C 0.95952 0.15627 0.6704 0.0
C2377 C 0.96861 0.15293 0.69393 0.0
C2378 C 0.94736 0.17549 0.59381 0.0
C2379 C 0.94286 0.15662 0.57749 0.0
C2380 C 0.95566 0.17086 0.61738 0.0
C2381 C 0.95957 0.14719 0.62538 0.0
C2382 C 0.95562 0.12834 0.60879 0.0
C2383 C 0.94741 0.13301 0.58515 0.0
H2384 H 0.48732 0.32734 0.55153 0.0
H2385 H 0.43388 0.27185 0.54049 0.0
H2386 H 0.49442 0.31265 0.59254 0.0
H2387 H 0.44138 0.25673 0.58145 0.0
H2388 H 0.51305 0.26983 0.66079 0.0
H2389 H 0.50931 0.28127 0.61819 0.0
H2390 H 0.4324 0.27029 0.62217 0.0
H2391 H 0.43628 0.25829 0.66467 0.0
C2392 C 0.47758 0.31154 0.5576 0.0
C2393 C 0.45998 0.30082 0.54271 0.0
C2394 C 0.48163 0.30312 0.5812 0.0
C2395 C 0.46819 0.28373 0.59054 0.0
C2396 C 0.45167 0.27205 0.57507 0.0
C2397 C 0.44763 0.28048 0.55142 0.0
C2398 C 0.49531 0.27005 0.65263 0.0
C2399 C 0.47494 0.26324 0.66617 0.0
C2400 C 0.49316 0.2766 0.62816 0.0
C2401 C 0.47058 0.27653 0.61659 0.0
C2402 C 0.45015 0.27009 0.6303 0.0
C2403 C 0.45232 0.2635 0.65477 0.0
H2404 H 0.47538 0.76829 0.71568 0.0
H2405 H 0.55059 0.78776 0.71143 0.0
H2406 H 0.4689 0.7853 0.67521 0.0
H2407 H 0.5441 0.80459 0.67105 0.0
H2408 H 0.46279 0.82873 0.60528 0.0
H2409 H 0.47026 0.82276 0.64873 0.0
H2410 H 0.53471 0.78345 0.63181 0.0
H2411 H 0.52715 0.7892 0.58852 0.0
C2412 C 0.49039 0.77674 0.7064 0.0
C2413 C 0.51352 0.77651 0.71674 0.0
C2414 C 0.48667 0.78651 0.68321 0.0
C2415 C 0.50606 0.79605 0.66981 0.0
C2416 C 0.52887 0.79711 0.68078 0.0
C2417 C 0.53253 0.78758 0.70401 0.0
C2418 C 0.47885 0.81931 0.61087 0.0
C2419 C 0.49439 0.80942 0.59347 0.0
C2420 C 0.483 0.81572 0.63574 0.0
C2421 C 0.503 0.80254 0.64372 0.0
C2422 C 0.51925 0.79387 0.6263 0.0
C2423 C 0.51491 0.79712 0.60147 0.0
H2424 H 0.5194 0.53353 0.34834 0.0
H2425 H 0.53671 0.60094 0.31365 0.0
H2426 H 0.56213 0.5238 0.35014 0.0
H2427 H 0.57923 0.59205 0.31664 0.0
H2428 H 0.65409 0.56196 0.30743 0.0
H2429 H 0.61143 0.57015 0.30309 0.0
H2430 H 0.59756 0.53315 0.37084 0.0
H2431 H 0.64024 0.52382 0.37428 0.0
C2432 C 0.53234 0.54618 0.34093 0.0
C2433 C 0.52465 0.56793 0.33074 0.0
C2434 C 0.55691 0.54079 0.34227 0.0
C2435 C 0.57442 0.55722 0.33381 0.0
C2436 C 0.5665 0.5787 0.32305 0.0
C2437 C 0.54199 0.58387 0.32136 0.0
C2438 C 0.64195 0.55586 0.32155 0.0
C2439 C 0.65056 0.54239 0.34128 0.0
C2440 C 0.61738 0.56055 0.3191 0.0
C2441 C 0.60074 0.55228 0.33655 0.0
C2442 C 0.60958 0.53938 0.35669 0.0
C2443 C 0.63414 0.53432 0.3589 0.0
H2444 H 0.54177 0.94424 0.66854 0.0
H2445 H 0.52794 0.94923 0.74559 0.0
H2446 H 0.5851 0.94104 0.677 0.0
H2447 H 0.57092 0.94668 0.75376 0.0
H2448 H 0.64733 0.97895 0.75328 0.0
H2449 H 0.6057 0.97952 0.739 0.0
H2450 H 0.61518 0.91037 0.70553 0.0
H2451 H 0.65686 0.90943 0.7203 0.0
C2452 C 0.54789 0.94421 0.68723 0.0
C2453 C 0.53143 0.94704 0.70639 0.0
C2454 C 0.57263 0.94249 0.69202 0.0
C2455 C 0.58122 0.94402 0.71598 0.0
C2456 C 0.5647 0.94577 0.73511 0.0
C2457 C 0.54008 0.94704 0.7304 0.0
C2458 C 0.64077 0.9641 0.74243 0.0
C2459 C 0.65533 0.9441 0.73801 0.0
C2460 C 0.61691 0.96438 0.73439 0.0
C2461 C 0.6073 0.94489 0.7214 0.0
C2462 C 0.62226 0.92559 0.71551 0.0
C2463 C 0.64605 0.9251 0.72395 0.0
H2464 H 0.15995 0.53816 0.2779 0.0
H2465 H 0.15059 0.6148 0.27204 0.0
H2466 H 0.12035 0.53455 0.29685 0.0
H2467 H 0.11106 0.61115 0.29095 0.0
H2468 H 0.05175 0.53654 0.34081 0.0
H2469 H 0.09418 0.54566 0.33279 0.0
H2470 H 0.07322 0.59283 0.27426 0.0
H2471 H 0.03103 0.58363 0.28215 0.0
C2472 C 0.14966 0.55427 0.28112 0.0
C2473 C 0.15829 0.57672 0.27327 0.0
C2474 C 0.12704 0.55223 0.29208 0.0
C2475 C 0.11253 0.57256 0.29522 0.0
C2476 C 0.12174 0.59515 0.28855 0.0
C2477 C 0.14442 0.59722 0.27779 0.0
C2478 C 0.05623 0.54934 0.32667 0.0
C2479 C 0.03812 0.55932 0.31203 0.0
C2480 C 0.0805 0.55439 0.32196 0.0
C2481 C 0.08702 0.56982 0.3028 0.0
C2482 C 0.06879 0.58102 0.28927 0.0
C2483 C 0.04461 0.5757 0.29374 0.0
H2484 H 0.15092 0.92712 0.69146 0.0
H2485 H 0.14177 0.94615 0.61597 0.0
H2486 H 0.10789 0.92018 0.69512 0.0
H2487 H 0.09867 0.93823 0.61928 0.0
H2488 H 0.02026 0.9498 0.63927 0.0
H2489 H 0.06373 0.9557 0.63628 0.0
H2490 H 0.07469 0.89607 0.68529 0.0
H2491 H 0.03143 0.89094 0.689 0.0
C2492 C 0.1398 0.92912 0.67541 0.0
C2493 C 0.14983 0.93714 0.6534 0.0
C2494 C 0.11501 0.92518 0.67752 0.0
C2495 C 0.09957 0.92892 0.65759 0.0
C2496 C 0.10983 0.93573 0.63521 0.0
C2497 C 0.13463 0.93989 0.63317 0.0
C2498 C 0.03199 0.93826 0.64972 0.0
C2499 C 0.02236 0.92 0.66446 0.0
C2500 C 0.05696 0.94139 0.64774 0.0
C2501 C 0.07291 0.92618 0.6603 0.0
C2502 C 0.06313 0.90832 0.67552 0.0
C2503 C 0.03822 0.90536 0.67766 0.0
H2504 H 0.97176 0.20817 0.08544 0.0
H2505 H 0.03288 0.16509 0.10558 0.0
H2506 H 0.96298 0.21506 0.12822 0.0
H2507 H 0.02413 0.17207 0.14856 0.0
H2508 H 0.02053 0.22705 0.2145 0.0
H2509 H 0.02711 0.20903 0.17461 0.0
H2510 H 0.95077 0.19624 0.16731 0.0
H2511 H 0.94417 0.21424 0.20707 0.0
C2512 C 0.98298 0.19969 0.09903 0.0
C2513 C 0.00302 0.18611 0.0921 0.0
C2514 C 0.97793 0.2036 0.12359 0.0
C2515 C 0.99296 0.19424 0.14184 0.0
C2516 C 0.01235 0.1797 0.13494 0.0
C2517 C 0.01722 0.17553 0.11032 0.0
C2518 C 0.00523 0.21986 0.20464 0.0
C2519 C 0.98182 0.22226 0.2139 0.0
C2520 C 0.00899 0.20948 0.18179 0.0
C2521 C 0.98942 0.20143 0.16765 0.0
C2522 C 0.96618 0.20256 0.17759 0.0
C2523 C 0.96244 0.21276 0.20046 0.0
H2524 H 0.04692 0.70735 0.28802 0.0
H2525 H 0.97148 0.72513 0.28466 0.0
H2526 H 0.04129 0.6909 0.32872 0.0
H2527 H 0.96585 0.7083 0.3254 0.0
H2528 H 0.02439 0.70795 0.41139 0.0
H2529 H 0.03131 0.71369 0.36793 0.0
H2530 H 0.9691 0.66978 0.35181 0.0
H2531 H 0.96239 0.66367 0.39535 0.0
C2532 C 0.02898 0.70718 0.29568 0.0
C2533 C 0.00965 0.71771 0.28313 0.0
C2534 C 0.02583 0.69788 0.31908 0.0
C2535 C 0.00321 0.69853 0.33033 0.0
C2536 C 0.98349 0.70746 0.31713 0.0
C2537 C 0.98671 0.71709 0.2938 0.0
C2538 C 0.01254 0.69905 0.39857 0.0
C2539 C 0.99288 0.68534 0.40679 0.0
C2540 C 0.01651 0.7023 0.37368 0.0
C2541 C 0.00066 0.69226 0.35648 0.0
C2542 C 0.98151 0.67782 0.36467 0.0
C2543 C 0.97781 0.67419 0.38958 0.0
loop_
_geom_bond_atom_site_label_1
_geom_bond_atom_site_label_2
_geom_bond_distance
_geom_bond_site_symmetry_2
_ccdc_geom_bond_type
In0 O1 2.294 . S
In0 O2 2.326 . S
In0 O6 2.266 . S
In0 O7 2.326 . S
In0 O8 2.266 . S
In0 O9 2.326 . S
In0 O11 2.294 . S
In0 O12 2.326 . S
O1 In0 2.294 . S
O1 C10 1.240 . S
O2 In0 2.326 . S
O2 C10 1.252 . S
C3 O6 1.252 . S
C3 O7 1.260 . S
C4 O11 1.240 . S
C4 O12 1.252 . S
C5 O8 1.252 . S
C5 O9 1.260 . S
O6 In0 2.266 . S
O6 C3 1.252 . S
O7 In0 2.326 . S
O7 C3 1.260 . S
O8 In0 2.266 . S
O8 C5 1.252 . S
O9 In0 2.326 . S
O9 C5 1.260 . S
C10 O1 1.240 . S
C10 O2 1.252 . S
O11 In0 2.294 . S
O11 C4 1.240 . S
O12 In0 2.326 . S
O12 C4 1.252 . S
In13 O14 2.294 . S
In13 O15 2.326 . S
In13 O19 2.266 . S
In13 O20 2.326 . S
In13 O21 2.266 . S
In13 O22 2.326 . S
In13 O24 2.294 . S
In13 O25 2.326 . S
O14 In13 2.294 . S
O14 C23 1.240 . S
O15 In13 2.326 . S
O15 C23 1.252 . S
C16 O19 1.252 . S
C16 O20 1.260 . S
C17 O24 1.240 . S
C17 O25 1.252 . S
C18 O21 1.252 . S
C18 O22 1.260 . S
O19 In13 2.266 . S
O19 C16 1.252 . S
O20 In13 2.326 . S
O20 C16 1.260 . S
O21 In13 2.266 . S
O21 C18 1.252 . S
O22 In13 2.326 . S
O22 C18 1.260 . S
C23 O14 1.240 . S
C23 O15 1.252 . S
O24 In13 2.294 . S
O24 C17 1.240 . S
O25 In13 2.326 . S
O25 C17 1.252 . S
In26 O27 2.294 . S
In26 O28 2.326 . S
In26 O32 2.266 . S
In26 O33 2.326 . S
In26 O34 2.266 . S
In26 O35 2.326 . S
In26 O37 2.294 . S
In26 O38 2.326 . S
O27 In26 2.294 . S
O27 C36 1.240 . S
O28 In26 2.326 . S
O28 C36 1.252 . S
C29 O32 1.252 . S
C29 O33 1.260 . S
C30 O37 1.240 . S
C30 O38 1.252 . S
C31 O34 1.252 . S
C31 O35 1.260 . S
O32 In26 2.266 . S
O32 C29 1.252 . S
O33 In26 2.326 . S
O33 C29 1.260 . S
O34 In26 2.266 . S
O34 C31 1.252 . S
O35 In26 2.326 . S
O35 C31 1.260 . S
C36 O27 1.240 . S
C36 O28 1.252 . S
O37 In26 2.294 . S
O37 C30 1.240 . S
O38 In26 2.326 . S
O38 C30 1.252 . S
In39 O40 2.294 . S
In39 O41 2.326 . S
In39 O45 2.266 . S
In39 O46 2.326 . S
In39 O47 2.266 . S
In39 O48 2.326 . S
In39 O50 2.294 . S
In39 O51 2.326 . S
O40 In39 2.294 . S
O40 C49 1.240 . S
O41 In39 2.326 . S
O41 C49 1.252 . S
C42 O45 1.252 . S
C42 O46 1.260 . S
C43 O50 1.240 . S
C43 O51 1.252 . S
C44 O47 1.252 . S
C44 O48 1.260 . S
O45 In39 2.266 . S
O45 C42 1.252 . S
O46 In39 2.326 . S
O46 C42 1.260 . S
O47 In39 2.266 . S
O47 C44 1.252 . S
O48 In39 2.326 . S
O48 C44 1.260 . S
C49 O40 1.240 . S
C49 O41 1.252 . S
O50 In39 2.294 . S
O50 C43 1.240 . S
O51 In39 2.326 . S
O51 C43 1.252 . S
In52 O53 2.294 . S
In52 O54 2.326 . S
In52 O58 2.266 . S
In52 O59 2.326 . S
In52 O60 2.266 . S
In52 O61 2.326 . S
In52 O63 2.294 . S
In52 O64 2.326 . S
O53 In52 2.294 . S
O53 C62 1.240 . S
O54 In52 2.326 . S
O54 C62 1.252 . S
C55 O58 1.252 . S
C55 O59 1.260 . S
C56 O63 1.240 . S
C56 O64 1.252 . S
C57 O60 1.252 . S
C57 O61 1.260 . S
O58 In52 2.266 . S
O58 C55 1.252 . S
O59 In52 2.326 . S
O59 C55 1.260 . S
O60 In52 2.266 . S
O60 C57 1.252 . S
O61 In52 2.326 . S
O61 C57 1.260 . S
C62 O53 1.240 . S
C62 O54 1.252 . S
O63 In52 2.294 . S
O63 C56 1.240 . S
O64 In52 2.326 . S
O64 C56 1.252 . S
In65 O66 2.294 . S
In65 O67 2.326 . S
In65 O71 2.266 . S
In65 O72 2.326 . S
In65 O73 2.266 . S
In65 O74 2.326 . S
In65 O76 2.294 . S
In65 O77 2.326 . S
O66 In65 2.294 . S
O66 C75 1.240 . S
O67 In65 2.326 . S
O67 C75 1.252 . S
C68 O71 1.252 . S
C68 O72 1.260 . S
C69 O76 1.240 . S
C69 O77 1.252 . S
C70 O73 1.252 . S
C70 O74 1.260 . S
O71 In65 2.266 . S
O71 C68 1.252 . S
O72 In65 2.326 . S
O72 C68 1.260 . S
O73 In65 2.266 . S
O73 C70 1.252 . S
O74 In65 2.326 . S
O74 C70 1.260 . S
C75 O66 1.240 . S
C75 O67 1.252 . S
O76 In65 2.294 . S
O76 C69 1.240 . S
O77 In65 2.326 . S
O77 C69 1.252 . S
In78 O79 2.294 . S
In78 O80 2.326 . S
In78 O84 2.266 . S
In78 O85 2.326 . S
In78 O86 2.266 1_545 S
In78 O87 2.326 . S
In78 O89 2.294 1_545 S
In78 O90 2.326 . S
O79 In78 2.294 . S
O79 C88 1.240 . S
O80 In78 2.326 . S
O80 C88 1.252 . S
C81 O84 1.252 . S
C81 O85 1.260 . S
C82 O89 1.240 1_545 S
C82 O90 1.252 . S
C83 O86 1.252 1_545 S
C83 O87 1.260 . S
O84 In78 2.266 . S
O84 C81 1.252 . S
O85 In78 2.326 . S
O85 C81 1.260 . S
O86 In78 2.266 1_565 S
O86 C83 1.252 1_565 S
O87 In78 2.326 . S
O87 C83 1.260 . S
C88 O79 1.240 . S
C88 O80 1.252 . S
O89 In78 2.294 1_565 S
O89 C82 1.240 1_565 S
O90 In78 2.326 . S
O90 C82 1.252 . S
In91 O92 2.294 . S
In91 O93 2.326 . S
In91 O97 2.266 . S
In91 O98 2.326 . S
In91 O99 2.266 . S
In91 O100 2.326 . S
In91 O102 2.294 . S
In91 O103 2.326 . S
O92 In91 2.294 . S
O92 C101 1.240 . S
O93 In91 2.326 . S
O93 C101 1.252 . S
C94 O97 1.252 . S
C94 O98 1.260 . S
C95 O102 1.240 . S
C95 O103 1.252 . S
C96 O99 1.252 . S
C96 O100 1.260 . S
O97 In91 2.266 . S
O97 C94 1.252 . S
O98 In91 2.326 . S
O98 C94 1.260 . S
O99 In91 2.266 . S
O99 C96 1.252 . S
O100 In91 2.326 . S
O100 C96 1.260 . S
C101 O92 1.240 . S
C101 O93 1.252 . S
O102 In91 2.294 . S
O102 C95 1.240 . S
O103 In91 2.326 . S
O103 C95 1.252 . S
In104 O105 2.294 . S
In104 O106 2.326 . S
In104 O110 2.266 . S
In104 O111 2.326 . S
In104 O112 2.266 . S
In104 O113 2.326 . S
In104 O115 2.294 . S
In104 O116 2.326 . S
O105 In104 2.294 . S
O105 C114 1.240 . S
O106 In104 2.326 . S
O106 C114 1.252 . S
C107 O110 1.252 . S
C107 O111 1.260 . S
C108 O115 1.240 . S
C108 O116 1.252 . S
C109 O112 1.252 . S
C109 O113 1.260 . S
O110 In104 2.266 . S
O110 C107 1.252 . S
O111 In104 2.326 . S
O111 C107 1.260 . S
O112 In104 2.266 . S
O112 C109 1.252 . S
O113 In104 2.326 . S
O113 C109 1.260 . S
C114 O105 1.240 . S
C114 O106 1.252 . S
O115 In104 2.294 . S
O115 C108 1.240 . S
O116 In104 2.326 . S
O116 C108 1.252 . S
In117 O118 2.294 . S
In117 O119 2.326 . S
In117 O123 2.266 . S
In117 O124 2.326 . S
In117 O125 2.266 . S
In117 O126 2.326 . S
In117 O128 2.294 . S
In117 O129 2.326 . S
O118 In117 2.294 . S
O118 C127 1.240 . S
O119 In117 2.326 . S
O119 C127 1.252 . S
C120 O123 1.252 . S
C120 O124 1.260 . S
C121 O128 1.240 . S
C121 O129 1.252 . S
C122 O125 1.252 . S
C122 O126 1.260 . S
O123 In117 2.266 . S
O123 C120 1.252 . S
O124 In117 2.326 . S
O124 C120 1.260 . S
O125 In117 2.266 . S
O125 C122 1.252 . S
O126 In117 2.326 . S
O126 C122 1.260 . S
C127 O118 1.240 . S
C127 O119 1.252 . S
O128 In117 2.294 . S
O128 C121 1.240 . S
O129 In117 2.326 . S
O129 C121 1.252 . S
In130 O131 2.294 . S
In130 O132 2.326 . S
In130 O136 2.266 . S
In130 O137 2.326 . S
In130 O138 2.266 . S
In130 O139 2.326 . S
In130 O141 2.294 . S
In130 O142 2.326 . S
O131 In130 2.294 . S
O131 C140 1.240 . S
O132 In130 2.326 . S
O132 C140 1.252 . S
C133 O136 1.266 . S
C133 O137 1.279 . S
C134 O141 1.240 . S
C134 O142 1.252 . S
C135 O138 1.252 . S
C135 O139 1.260 . S
O136 In130 2.266 . S
O136 C133 1.266 . S
O137 In130 2.326 . S
O137 C133 1.279 . S
O138 In130 2.266 . S
O138 C135 1.252 . S
O139 In130 2.326 . S
O139 C135 1.260 . S
C140 O131 1.240 . S
C140 O132 1.252 . S
O141 In130 2.294 . S
O141 C134 1.240 . S
O142 In130 2.326 . S
O142 C134 1.252 . S
In143 O144 2.294 . S
In143 O145 2.326 . S
In143 O149 2.266 . S
In143 O150 2.326 . S
In143 O151 2.266 . S
In143 O152 2.326 . S
In143 O154 2.294 . S
In143 O155 2.326 . S
O144 In143 2.294 . S
O144 C153 1.240 . S
O145 In143 2.326 . S
O145 C153 1.252 . S
C146 O149 1.252 . S
C146 O150 1.260 . S
C147 O154 1.240 . S
C147 O155 1.252 . S
C148 O151 1.252 . S
C148 O152 1.260 . S
O149 In143 2.266 . S
O149 C146 1.252 . S
O150 In143 2.326 . S
O150 C146 1.260 . S
O151 In143 2.266 . S
O151 C148 1.252 . S
O152 In143 2.326 . S
O152 C148 1.260 . S
C153 O144 1.240 . S
C153 O145 1.252 . S
O154 In143 2.294 . S
O154 C147 1.240 . S
O155 In143 2.326 . S
O155 C147 1.252 . S
In156 O157 2.294 . S
In156 O158 2.326 . S
In156 O162 2.266 . S
In156 O163 2.326 . S
In156 O164 2.266 . S
In156 O165 2.326 . S
In156 O167 2.294 . S
In156 O168 2.326 . S
O157 In156 2.294 . S
O157 C166 1.240 . S
O158 In156 2.326 . S
O158 C166 1.252 . S
C159 O162 1.252 . S
C159 O163 1.260 . S
C160 O167 1.228 1_556 S
C160 O168 1.242 1_556 S
C161 O164 1.252 . S
C161 O165 1.260 . S
O162 In156 2.266 . S
O162 C159 1.252 . S
O163 In156 2.326 . S
O163 C159 1.260 . S
O164 In156 2.266 . S
O164 C161 1.252 . S
O165 In156 2.326 . S
O165 C161 1.260 . S
C166 O157 1.240 . S
C166 O158 1.252 . S
O167 In156 2.294 . S
O167 C160 1.228 1_554 S
O168 In156 2.326 . S
O168 C160 1.242 1_554 S
In169 O170 2.293 1_455 S
In169 O171 2.326 1_455 S
In169 O175 2.266 1_455 S
In169 O176 2.326 . S
In169 O177 2.267 . S
In169 O178 2.325 1_455 S
In169 O180 2.295 . S
In169 O181 2.326 . S
O170 In169 2.293 1_655 S
O170 C179 1.240 . S
O171 In169 2.326 1_655 S
O171 C179 1.257 . S
C172 O175 1.252 . S
C172 O176 1.260 1_655 S
C173 O180 1.240 . S
C173 O181 1.252 . S
C174 O177 1.252 . S
C174 O178 1.260 1_455 S
O175 In169 2.266 1_655 S
O175 C172 1.252 . S
O176 In169 2.326 . S
O176 C172 1.260 1_455 S
O177 In169 2.267 . S
O177 C174 1.252 . S
O178 In169 2.325 1_655 S
O178 C174 1.260 1_655 S
C179 O170 1.240 . S
C179 O171 1.257 . S
O180 In169 2.295 . S
O180 C173 1.240 . S
O181 In169 2.326 . S
O181 C173 1.252 . S
In182 O183 2.294 . S
In182 O184 2.326 . S
In182 O188 2.266 . S
In182 O189 2.326 . S
In182 O190 2.266 . S
In182 O191 2.326 . S
In182 O193 2.294 . S
In182 O194 2.326 . S
O183 In182 2.294 . S
O183 C192 1.240 . S
O184 In182 2.326 . S
O184 C192 1.252 . S
C185 O188 1.252 . S
C185 O189 1.260 . S
C186 O193 1.240 . S
C186 O194 1.252 . S
C187 O190 1.252 . S
C187 O191 1.260 . S
O188 In182 2.266 . S
O188 C185 1.252 . S
O189 In182 2.326 . S
O189 C185 1.260 . S
O190 In182 2.266 . S
O190 C187 1.252 . S
O191 In182 2.326 . S
O191 C187 1.260 . S
C192 O183 1.240 . S
C192 O184 1.252 . S
O193 In182 2.294 . S
O193 C186 1.240 . S
O194 In182 2.326 . S
O194 C186 1.252 . S
In195 O196 2.294 . S
In195 O197 2.326 . S
In195 O201 2.266 1_655 S
In195 O202 2.326 1_655 S
In195 O203 2.266 . S
In195 O204 2.326 . S
In195 O206 2.294 . S
In195 O207 2.326 1_655 S
O196 In195 2.294 . S
O196 C205 1.240 . S
O197 In195 2.326 . S
O197 C205 1.252 . S
C198 O201 1.252 . S
C198 O202 1.260 . S
C199 O206 1.240 1_455 S
C199 O207 1.252 . S
C200 O203 1.252 . S
C200 O204 1.260 . S
O201 In195 2.266 1_455 S
O201 C198 1.252 . S
O202 In195 2.326 1_455 S
O202 C198 1.260 . S
O203 In195 2.266 . S
O203 C200 1.252 . S
O204 In195 2.326 . S
O204 C200 1.260 . S
C205 O196 1.240 . S
C205 O197 1.252 . S
O206 In195 2.294 . S
O206 C199 1.240 1_655 S
O207 In195 2.326 1_455 S
O207 C199 1.252 . S
In208 O209 2.294 . S
In208 O210 2.326 . S
In208 O214 2.266 . S
In208 O215 2.326 . S
In208 O216 2.266 . S
In208 O217 2.326 . S
In208 O219 2.294 . S
In208 O220 2.326 . S
O209 In208 2.294 . S
O209 C218 1.240 . S
O210 In208 2.326 . S
O210 C218 1.252 . S
C211 O214 1.252 . S
C211 O215 1.260 . S
C212 O219 1.240 . S
C212 O220 1.252 . S
C213 O216 1.252 . S
C213 O217 1.260 . S
O214 In208 2.266 . S
O214 C211 1.252 . S
O215 In208 2.326 . S
O215 C211 1.260 . S
O216 In208 2.266 . S
O216 C213 1.252 . S
O217 In208 2.326 . S
O217 C213 1.260 . S
C218 O209 1.240 . S
C218 O210 1.252 . S
O219 In208 2.294 . S
O219 C212 1.240 . S
O220 In208 2.326 . S
O220 C212 1.252 . S
In221 O222 2.294 . S
In221 O223 2.326 . S
In221 O227 2.266 . S
In221 O228 2.326 . S
In221 O229 2.266 . S
In221 O230 2.326 . S
In221 O232 2.294 . S
In221 O233 2.326 . S
O222 In221 2.294 . S
O222 C231 1.240 . S
O223 In221 2.326 . S
O223 C231 1.252 . S
C224 O227 1.252 . S
C224 O228 1.260 . S
C225 O232 1.240 . S
C225 O233 1.252 . S
C226 O229 1.252 . S
C226 O230 1.260 . S
O227 In221 2.266 . S
O227 C224 1.252 . S
O228 In221 2.326 . S
O228 C224 1.260 . S
O229 In221 2.266 . S
O229 C226 1.252 . S
O230 In221 2.326 . S
O230 C226 1.260 . S
C231 O222 1.240 . S
C231 O223 1.252 . S
O232 In221 2.294 . S
O232 C225 1.240 . S
O233 In221 2.326 . S
O233 C225 1.252 . S
In234 O235 2.294 . S
In234 O236 2.326 . S
In234 O240 2.266 . S
In234 O241 2.326 . S
In234 O242 2.266 . S
In234 O243 2.326 . S
In234 O245 2.294 . S
In234 O246 2.326 . S
O235 In234 2.294 . S
O235 C244 1.240 . S
O236 In234 2.326 . S
O236 C244 1.252 . S
C237 O240 1.252 . S
C237 O241 1.260 . S
C238 O245 1.240 . S
C238 O246 1.252 . S
C239 O242 1.252 . S
C239 O243 1.260 . S
O240 In234 2.266 . S
O240 C237 1.252 . S
O241 In234 2.326 . S
O241 C237 1.260 . S
O242 In234 2.266 . S
O242 C239 1.252 . S
O243 In234 2.326 . S
O243 C239 1.260 . S
C244 O235 1.240 . S
C244 O236 1.252 . S
O245 In234 2.294 . S
O245 C238 1.240 . S
O246 In234 2.326 . S
O246 C238 1.252 . S
In247 O248 2.294 . S
In247 O249 2.326 . S
In247 O253 2.266 . S
In247 O254 2.326 . S
In247 O255 2.266 . S
In247 O256 2.326 . S
In247 O258 2.294 . S
In247 O259 2.326 . S
O248 In247 2.294 . S
O248 C257 1.240 . S
O249 In247 2.326 . S
O249 C257 1.252 . S
C250 O253 1.252 . S
C250 O254 1.260 . S
C251 O258 1.240 . S
C251 O259 1.252 . S
C252 O255 1.252 . S
C252 O256 1.260 . S
O253 In247 2.266 . S
O253 C250 1.252 . S
O254 In247 2.326 . S
O254 C250 1.260 . S
O255 In247 2.266 . S
O255 C252 1.252 . S
O256 In247 2.326 . S
O256 C252 1.260 . S
C257 O248 1.240 . S
C257 O249 1.252 . S
O258 In247 2.294 . S
O258 C251 1.240 . S
O259 In247 2.326 . S
O259 C251 1.252 . S
In260 O261 2.294 . S
In260 O262 2.327 . S
In260 O266 2.266 1_545 S
In260 O267 2.325 1_545 S
In260 O268 2.266 . S
In260 O269 2.326 . S
In260 O271 2.294 1_545 S
In260 O272 2.326 1_545 S
O261 In260 2.294 . S
O261 C270 1.240 . S
O262 In260 2.327 . S
O262 C270 1.252 . S
C263 O266 1.252 . S
C263 O267 1.260 . S
C264 O271 1.239 . S
C264 O272 1.252 . S
C265 O268 1.252 . S
C265 O269 1.260 . S
O266 In260 2.266 1_565 S
O266 C263 1.252 . S
O267 In260 2.325 1_565 S
O267 C263 1.260 . S
O268 In260 2.266 . S
O268 C265 1.252 . S
O269 In260 2.326 . S
O269 C265 1.260 . S
C270 O261 1.240 . S
C270 O262 1.252 . S
O271 In260 2.294 1_565 S
O271 C264 1.239 . S
O272 In260 2.326 1_565 S
O272 C264 1.252 . S
In273 O274 2.294 . S
In273 O275 2.327 1_556 S
In273 O279 2.265 . S
In273 O280 2.325 . S
In273 O281 2.267 1_556 S
In273 O282 2.326 1_556 S
In273 O284 2.295 1_556 S
In273 O285 2.326 . S
O274 In273 2.294 . S
O274 C283 1.240 1_556 S
O275 In273 2.327 1_554 S
O275 C283 1.252 . S
C276 O279 1.252 . S
C276 O280 1.260 . S
C277 O284 1.240 . S
C277 O285 1.252 1_554 S
C278 O281 1.252 . S
C278 O282 1.260 . S
O279 In273 2.265 . S
O279 C276 1.252 . S
O280 In273 2.325 . S
O280 C276 1.260 . S
O281 In273 2.267 1_554 S
O281 C278 1.252 . S
O282 In273 2.326 1_554 S
O282 C278 1.260 . S
C283 O274 1.240 1_554 S
C283 O275 1.252 . S
O284 In273 2.295 1_554 S
O284 C277 1.240 . S
O285 In273 2.326 . S
O285 C277 1.252 1_556 S
In286 O287 2.294 . S
In286 O288 2.326 . S
In286 O292 2.266 . S
In286 O293 2.326 . S
In286 O294 2.266 . S
In286 O295 2.326 . S
In286 O297 2.294 . S
In286 O298 2.326 . S
O287 In286 2.294 . S
O287 C296 1.240 . S
O288 In286 2.326 . S
O288 C296 1.252 . S
C289 O292 1.252 . S
C289 O293 1.260 . S
C290 O297 1.240 . S
C290 O298 1.252 . S
C291 O294 1.252 . S
C291 O295 1.260 . S
O292 In286 2.266 . S
O292 C289 1.252 . S
O293 In286 2.326 . S
O293 C289 1.260 . S
O294 In286 2.266 . S
O294 C291 1.252 . S
O295 In286 2.326 . S
O295 C291 1.260 . S
C296 O287 1.240 . S
C296 O288 1.252 . S
O297 In286 2.294 . S
O297 C290 1.240 . S
O298 In286 2.326 . S
O298 C290 1.252 . S
In299 O300 2.294 . S
In299 O301 2.326 . S
In299 O305 2.266 . S
In299 O306 2.326 . S
In299 O307 2.266 . S
In299 O308 2.326 . S
In299 O310 2.294 . S
In299 O311 2.326 . S
O300 In299 2.294 . S
O300 C309 1.240 . S
O301 In299 2.326 . S
O301 C309 1.252 . S
C302 O305 1.252 . S
C302 O306 1.260 . S
C303 O310 1.240 . S
C303 O311 1.252 . S
C304 O307 1.252 . S
C304 O308 1.260 . S
O305 In299 2.266 . S
O305 C302 1.252 . S
O306 In299 2.326 . S
O306 C302 1.260 . S
O307 In299 2.266 . S
O307 C304 1.252 . S
O308 In299 2.326 . S
O308 C304 1.260 . S
C309 O300 1.240 . S
C309 O301 1.252 . S
O310 In299 2.294 . S
O310 C303 1.240 . S
O311 In299 2.326 . S
O311 C303 1.252 . S
In312 O313 2.293 1_565 S
In312 O314 2.326 1_565 S
In312 O318 2.266 1_565 S
In312 O319 2.326 . S
In312 O320 2.266 1_565 S
In312 O321 2.325 1_565 S
In312 O323 2.295 . S
In312 O324 2.327 . S
O313 In312 2.293 1_545 S
O313 C322 1.240 . S
O314 In312 2.326 1_545 S
O314 C322 1.252 . S
C315 O318 1.252 1_565 S
C315 O319 1.260 . S
C316 O323 1.240 . S
C316 O324 1.252 . S
C317 O320 1.252 . S
C317 O321 1.260 . S
O318 In312 2.266 1_545 S
O318 C315 1.252 1_545 S
O319 In312 2.326 . S
O319 C315 1.260 . S
O320 In312 2.266 1_545 S
O320 C317 1.252 . S
O321 In312 2.325 1_545 S
O321 C317 1.260 . S
C322 O313 1.240 . S
C322 O314 1.252 . S
O323 In312 2.295 . S
O323 C316 1.240 . S
O324 In312 2.327 . S
O324 C316 1.252 . S
In325 O326 2.294 . S
In325 O327 2.326 . S
In325 O331 2.266 . S
In325 O332 2.326 . S
In325 O333 2.266 . S
In325 O334 2.326 . S
In325 O336 2.294 . S
In325 O337 2.326 . S
O326 In325 2.294 . S
O326 C335 1.240 . S
O327 In325 2.326 . S
O327 C335 1.252 . S
C328 O331 1.252 . S
C328 O332 1.260 . S
C329 O336 1.240 . S
C329 O337 1.252 . S
C330 O333 1.252 . S
C330 O334 1.260 . S
O331 In325 2.266 . S
O331 C328 1.252 . S
O332 In325 2.326 . S
O332 C328 1.260 . S
O333 In325 2.266 . S
O333 C330 1.252 . S
O334 In325 2.326 . S
O334 C330 1.260 . S
C335 O326 1.240 . S
C335 O327 1.252 . S
O336 In325 2.294 . S
O336 C329 1.240 . S
O337 In325 2.326 . S
O337 C329 1.252 . S
In338 O339 2.294 . S
In338 O340 2.326 . S
In338 O344 2.266 . S
In338 O345 2.326 . S
In338 O346 2.266 . S
In338 O347 2.326 . S
In338 O349 2.294 . S
In338 O350 2.326 . S
O339 In338 2.294 . S
O339 C348 1.240 . S
O340 In338 2.326 . S
O340 C348 1.252 . S
C341 O344 1.252 . S
C341 O345 1.260 . S
C342 O349 1.240 . S
C342 O350 1.252 . S
C343 O346 1.252 . S
C343 O347 1.260 . S
O344 In338 2.266 . S
O344 C341 1.252 . S
O345 In338 2.326 . S
O345 C341 1.260 . S
O346 In338 2.266 . S
O346 C343 1.252 . S
O347 In338 2.326 . S
O347 C343 1.260 . S
C348 O339 1.240 . S
C348 O340 1.252 . S
O349 In338 2.294 . S
O349 C342 1.240 . S
O350 In338 2.326 . S
O350 C342 1.252 . S
In351 O352 2.295 . S
In351 O353 2.327 . S
In351 O357 2.266 . S
In351 O358 2.324 1_554 S
In351 O359 2.265 1_554 S
In351 O360 2.326 . S
In351 O362 2.293 1_554 S
In351 O363 2.326 1_554 S
O352 In351 2.295 . S
O352 C361 1.240 . S
O353 In351 2.327 . S
O353 C361 1.252 . S
C354 O357 1.252 1_556 S
C354 O358 1.260 . S
C355 O362 1.240 . S
C355 O363 1.252 . S
C356 O359 1.252 . S
C356 O360 1.260 1_556 S
O357 In351 2.266 . S
O357 C354 1.252 1_554 S
O358 In351 2.324 1_556 S
O358 C354 1.260 . S
O359 In351 2.265 1_556 S
O359 C356 1.252 . S
O360 In351 2.326 . S
O360 C356 1.260 1_554 S
C361 O352 1.240 . S
C361 O353 1.252 . S
O362 In351 2.293 1_556 S
O362 C355 1.240 . S
O363 In351 2.326 1_556 S
O363 C355 1.252 . S
In364 O365 2.295 1_556 S
In364 O366 2.326 . S
In364 O370 2.267 1_556 S
In364 O371 2.325 . S
In364 O372 2.265 . S
In364 O373 2.325 . S
In364 O375 2.293 . S
In364 O376 2.327 1_556 S
O365 In364 2.295 1_554 S
O365 C374 1.240 . S
O366 In364 2.326 . S
O366 C374 1.252 1_556 S
C367 O370 1.252 . S
C367 O371 1.260 1_554 S
C368 O375 1.275 . S
C368 O376 1.216 1_556 S
C369 O372 1.252 . S
C369 O373 1.260 . S
O370 In364 2.267 1_554 S
O370 C367 1.252 . S
O371 In364 2.325 . S
O371 C367 1.260 1_556 S
O372 In364 2.265 . S
O372 C369 1.252 . S
O373 In364 2.325 . S
O373 C369 1.260 . S
C374 O365 1.240 . S
C374 O366 1.252 1_554 S
O375 In364 2.293 . S
O375 C368 1.275 . S
O376 In364 2.327 1_554 S
O376 C368 1.216 1_554 S
In377 O378 2.294 . S
In377 O379 2.326 1_565 S
In377 O383 2.266 . S
In377 O384 2.326 . S
In377 O385 2.266 1_565 S
In377 O386 2.325 1_565 S
In377 O388 2.294 . S
In377 O389 2.327 . S
O378 In377 2.294 . S
O378 C387 1.237 1_565 S
O379 In377 2.326 1_545 S
O379 C387 1.252 . S
C380 O383 1.252 . S
C380 O384 1.260 . S
C381 O388 1.240 . S
C381 O389 1.252 . S
C382 O385 1.252 . S
C382 O386 1.260 . S
O383 In377 2.266 . S
O383 C380 1.252 . S
O384 In377 2.326 . S
O384 C380 1.260 . S
O385 In377 2.266 1_545 S
O385 C382 1.252 . S
O386 In377 2.325 1_545 S
O386 C382 1.260 . S
C387 O378 1.237 1_545 S
C387 O379 1.252 . S
O388 In377 2.294 . S
O388 C381 1.240 . S
O389 In377 2.327 . S
O389 C381 1.252 . S
In390 O391 2.294 . S
In390 O392 2.326 . S
In390 O396 2.266 . S
In390 O397 2.326 . S
In390 O398 2.266 . S
In390 O399 2.326 . S
In390 O401 2.294 . S
In390 O402 2.326 . S
O391 In390 2.294 . S
O391 C400 1.240 . S
O392 In390 2.326 . S
O392 C400 1.252 . S
C393 O396 1.252 . S
C393 O397 1.260 . S
C394 O401 1.240 . S
C394 O402 1.252 . S
C395 O398 1.252 . S
C395 O399 1.260 . S
O396 In390 2.266 . S
O396 C393 1.252 . S
O397 In390 2.326 . S
O397 C393 1.260 . S
O398 In390 2.266 . S
O398 C395 1.252 . S
O399 In390 2.326 . S
O399 C395 1.260 . S
C400 O391 1.240 . S
C400 O392 1.252 . S
O401 In390 2.294 . S
O401 C394 1.240 . S
O402 In390 2.326 . S
O402 C394 1.252 . S
In403 O404 2.294 . S
In403 O405 2.326 . S
In403 O409 2.266 . S
In403 O410 2.326 . S
In403 O411 2.266 . S
In403 O412 2.326 . S
In403 O414 2.294 . S
In403 O415 2.326 . S
O404 In403 2.294 . S
O404 C413 1.240 . S
O405 In403 2.326 . S
O405 C413 1.252 . S
C406 O409 1.252 . S
C406 O410 1.260 . S
C407 O414 1.240 . S
C407 O415 1.252 . S
C408 O411 1.252 . S
C408 O412 1.260 . S
O409 In403 2.266 . S
O409 C406 1.252 . S
O410 In403 2.326 . S
O410 C406 1.260 . S
O411 In403 2.266 . S
O411 C408 1.252 . S
O412 In403 2.326 . S
O412 C408 1.260 . S
C413 O404 1.240 . S
C413 O405 1.252 . S
O414 In403 2.294 . S
O414 C407 1.240 . S
O415 In403 2.326 . S
O415 C407 1.252 . S
In416 O417 2.294 . S
In416 O418 2.326 . S
In416 O422 2.266 . S
In416 O423 2.326 . S
In416 O424 2.266 . S
In416 O425 2.326 . S
In416 O427 2.294 . S
In416 O428 2.326 . S
O417 In416 2.294 . S
O417 C426 1.240 . S
O418 In416 2.326 . S
O418 C426 1.252 . S
C419 O422 1.252 . S
C419 O423 1.260 . S
C420 O427 1.240 . S
C420 O428 1.252 . S
C421 O424 1.252 . S
C421 O425 1.260 . S
O422 In416 2.266 . S
O422 C419 1.252 . S
O423 In416 2.326 . S
O423 C419 1.260 . S
O424 In416 2.266 . S
O424 C421 1.252 . S
O425 In416 2.326 . S
O425 C421 1.260 . S
C426 O417 1.240 . S
C426 O418 1.252 . S
O427 In416 2.294 . S
O427 C420 1.240 . S
O428 In416 2.326 . S
O428 C420 1.252 . S
In429 O430 2.294 1_455 S
In429 O431 2.326 . S
In429 O435 2.266 . S
In429 O436 2.326 . S
In429 O437 2.266 . S
In429 O438 2.326 1_455 S
In429 O440 2.294 . S
In429 O441 2.326 . S
O430 In429 2.294 1_655 S
O430 C439 1.240 1_556 S
O431 In429 2.326 . S
O431 C439 1.252 1_456 S
C432 O435 1.252 . S
C432 O436 1.260 . S
C433 O440 1.240 . S
C433 O441 1.252 . S
C434 O437 1.252 1_655 S
C434 O438 1.260 . S
O435 In429 2.266 . S
O435 C432 1.252 . S
O436 In429 2.326 . S
O436 C432 1.260 . S
O437 In429 2.266 . S
O437 C434 1.252 1_455 S
O438 In429 2.326 1_655 S
O438 C434 1.260 . S
C439 O430 1.240 1_554 S
C439 O431 1.252 1_654 S
O440 In429 2.294 . S
O440 C433 1.240 . S
O441 In429 2.326 . S
O441 C433 1.252 . S
In442 O443 2.294 . S
In442 O444 2.326 . S
In442 O448 2.266 . S
In442 O449 2.326 . S
In442 O450 2.266 . S
In442 O451 2.326 . S
In442 O453 2.294 . S
In442 O454 2.326 . S
O443 In442 2.294 . S
O443 C452 1.240 . S
O444 In442 2.326 . S
O444 C452 1.252 . S
C445 O448 1.252 . S
C445 O449 1.260 . S
C446 O453 1.240 . S
C446 O454 1.252 . S
C447 O450 1.252 . S
C447 O451 1.260 . S
O448 In442 2.266 . S
O448 C445 1.252 . S
O449 In442 2.326 . S
O449 C445 1.260 . S
O450 In442 2.266 . S
O450 C447 1.252 . S
O451 In442 2.326 . S
O451 C447 1.260 . S
C452 O443 1.240 . S
C452 O444 1.252 . S
O453 In442 2.294 . S
O453 C446 1.240 . S
O454 In442 2.326 . S
O454 C446 1.252 . S
In455 O456 2.294 . S
In455 O457 2.326 . S
In455 O461 2.266 . S
In455 O462 2.326 1_455 S
In455 O463 2.266 . S
In455 O464 2.326 . S
In455 O466 2.294 1_455 S
In455 O467 2.326 1_455 S
O456 In455 2.294 . S
O456 C465 1.240 . S
O457 In455 2.326 . S
O457 C465 1.252 . S
C458 O461 1.252 1_655 S
C458 O462 1.260 . S
C459 O466 1.240 . S
C459 O467 1.252 . S
C460 O463 1.252 . S
C460 O464 1.260 . S
O461 In455 2.266 . S
O461 C458 1.252 1_455 S
O462 In455 2.326 1_655 S
O462 C458 1.260 . S
O463 In455 2.266 . S
O463 C460 1.252 . S
O464 In455 2.326 . S
O464 C460 1.260 . S
C465 O456 1.240 . S
C465 O457 1.252 . S
O466 In455 2.294 1_655 S
O466 C459 1.240 . S
O467 In455 2.326 1_655 S
O467 C459 1.252 . S
In468 O469 2.294 . S
In468 O470 2.326 . S
In468 O474 2.266 . S
In468 O475 2.326 . S
In468 O476 2.266 . S
In468 O477 2.326 . S
In468 O479 2.294 . S
In468 O480 2.326 . S
O469 In468 2.294 . S
O469 C478 1.240 . S
O470 In468 2.326 . S
O470 C478 1.252 . S
C471 O474 1.252 . S
C471 O475 1.260 . S
C472 O479 1.240 . S
C472 O480 1.252 . S
C473 O476 1.252 . S
C473 O477 1.260 . S
O474 In468 2.266 . S
O474 C471 1.252 . S
O475 In468 2.326 . S
O475 C471 1.260 . S
O476 In468 2.266 . S
O476 C473 1.252 . S
O477 In468 2.326 . S
O477 C473 1.260 . S
C478 O469 1.240 . S
C478 O470 1.252 . S
O479 In468 2.294 . S
O479 C472 1.240 . S
O480 In468 2.326 . S
O480 C472 1.252 . S
In481 O482 2.294 . S
In481 O483 2.326 . S
In481 O487 2.266 . S
In481 O488 2.326 . S
In481 O489 2.266 . S
In481 O490 2.326 . S
In481 O492 2.294 . S
In481 O493 2.326 . S
O482 In481 2.294 . S
O482 C491 1.240 . S
O483 In481 2.326 . S
O483 C491 1.252 . S
C484 O487 1.252 . S
C484 O488 1.260 . S
C485 O492 1.240 . S
C485 O493 1.252 . S
C486 O489 1.252 . S
C486 O490 1.260 . S
O487 In481 2.266 . S
O487 C484 1.252 . S
O488 In481 2.326 . S
O488 C484 1.260 . S
O489 In481 2.266 . S
O489 C486 1.252 . S
O490 In481 2.326 . S
O490 C486 1.260 . S
C491 O482 1.240 . S
C491 O483 1.252 . S
O492 In481 2.294 . S
O492 C485 1.240 . S
O493 In481 2.326 . S
O493 C485 1.252 . S
In494 O495 2.294 . S
In494 O496 2.326 . S
In494 O500 2.266 . S
In494 O501 2.326 . S
In494 O502 2.266 . S
In494 O503 2.326 . S
In494 O505 2.294 . S
In494 O506 2.326 . S
O495 In494 2.294 . S
O495 C504 1.240 . S
O496 In494 2.326 . S
O496 C504 1.252 . S
C497 O500 1.252 . S
C497 O501 1.260 . S
C498 O505 1.240 . S
C498 O506 1.252 . S
C499 O502 1.252 . S
C499 O503 1.260 . S
O500 In494 2.266 . S
O500 C497 1.252 . S
O501 In494 2.326 . S
O501 C497 1.260 . S
O502 In494 2.266 . S
O502 C499 1.252 . S
O503 In494 2.326 . S
O503 C499 1.260 . S
C504 O495 1.240 . S
C504 O496 1.252 . S
O505 In494 2.294 . S
O505 C498 1.240 . S
O506 In494 2.326 . S
O506 C498 1.252 . S
In507 O508 2.294 . S
In507 O509 2.326 . S
In507 O513 2.266 . S
In507 O514 2.326 . S
In507 O515 2.266 . S
In507 O516 2.326 . S
In507 O518 2.294 . S
In507 O519 2.326 . S
O508 In507 2.294 . S
O508 C517 1.240 . S
O509 In507 2.326 . S
O509 C517 1.252 . S
C510 O513 1.252 . S
C510 O514 1.260 . S
C511 O518 1.240 . S
C511 O519 1.252 . S
C512 O515 1.252 . S
C512 O516 1.260 . S
O513 In507 2.266 . S
O513 C510 1.252 . S
O514 In507 2.326 . S
O514 C510 1.260 . S
O515 In507 2.266 . S
O515 C512 1.252 . S
O516 In507 2.326 . S
O516 C512 1.260 . S
C517 O508 1.240 . S
C517 O509 1.252 . S
O518 In507 2.294 . S
O518 C511 1.240 . S
O519 In507 2.326 . S
O519 C511 1.252 . S
In520 O521 2.295 . S
In520 O522 2.327 . S
In520 O526 2.266 1_545 S
In520 O527 2.325 1_545 S
In520 O528 2.266 1_545 S
In520 O529 2.326 . S
In520 O531 2.293 1_545 S
In520 O532 2.326 1_545 S
O521 In520 2.295 . S
O521 C530 1.240 . S
O522 In520 2.327 . S
O522 C530 1.252 . S
C523 O526 1.252 . S
C523 O527 1.260 . S
C524 O531 1.240 . S
C524 O532 1.252 . S
C525 O528 1.252 1_545 S
C525 O529 1.260 . S
O526 In520 2.266 1_565 S
O526 C523 1.252 . S
O527 In520 2.325 1_565 S
O527 C523 1.260 . S
O528 In520 2.266 1_565 S
O528 C525 1.252 1_565 S
O529 In520 2.326 . S
O529 C525 1.260 . S
C530 O521 1.240 . S
C530 O522 1.252 . S
O531 In520 2.293 1_565 S
O531 C524 1.240 . S
O532 In520 2.326 1_565 S
O532 C524 1.252 . S
In533 O534 2.295 . S
In533 O535 2.327 . S
In533 O539 2.267 . S
In533 O540 2.325 1_554 S
In533 O541 2.265 1_554 S
In533 O542 2.326 . S
In533 O544 2.293 1_554 S
In533 O545 2.326 . S
O534 In533 2.295 . S
O534 C543 1.240 . S
O535 In533 2.327 . S
O535 C543 1.252 . S
C536 O539 1.292 . S
C536 O540 1.218 1_554 S
C537 O544 1.240 . S
C537 O545 1.252 1_556 S
C538 O541 1.252 . S
C538 O542 1.260 1_556 S
O539 In533 2.267 . S
O539 C536 1.292 . S
O540 In533 2.325 1_556 S
O540 C536 1.218 1_556 S
O541 In533 2.265 1_556 S
O541 C538 1.252 . S
O542 In533 2.326 . S
O542 C538 1.260 1_554 S
C543 O534 1.240 . S
C543 O535 1.252 . S
O544 In533 2.293 1_556 S
O544 C537 1.240 . S
O545 In533 2.326 . S
O545 C537 1.252 1_554 S
In546 O547 2.294 1_655 S
In546 O548 2.326 . S
In546 O552 2.267 1_655 S
In546 O553 2.325 1_655 S
In546 O554 2.266 . S
In546 O555 2.325 . S
In546 O557 2.294 . S
In546 O558 2.327 1_655 S
O547 In546 2.294 1_455 S
O547 C556 1.240 . S
O548 In546 2.326 . S
O548 C556 1.252 1_655 S
C549 O552 1.252 . S
C549 O553 1.267 . S
C550 O557 1.240 . S
C550 O558 1.252 1_655 S
C551 O554 1.252 . S
C551 O555 1.260 . S
O552 In546 2.267 1_455 S
O552 C549 1.252 . S
O553 In546 2.325 1_455 S
O553 C549 1.267 . S
O554 In546 2.266 . S
O554 C551 1.252 . S
O555 In546 2.325 . S
O555 C551 1.260 . S
C556 O547 1.240 . S
C556 O548 1.252 1_455 S
O557 In546 2.294 . S
O557 C550 1.240 . S
O558 In546 2.327 1_455 S
O558 C550 1.252 1_455 S
In559 O560 2.294 1_655 S
In559 O561 2.326 . S
In559 O565 2.266 1_655 S
In559 O566 2.326 . S
In559 O567 2.266 . S
In559 O568 2.326 . S
In559 O570 2.294 . S
In559 O571 2.326 1_655 S
O560 In559 2.294 1_455 S
O560 C569 1.240 1_455 S
O561 In559 2.326 . S
O561 C569 1.252 . S
C562 O565 1.252 . S
C562 O566 1.260 1_455 S
C563 O570 1.240 1_455 S
C563 O571 1.252 . S
C564 O567 1.252 . S
C564 O568 1.260 . S
O565 In559 2.266 1_455 S
O565 C562 1.252 . S
O566 In559 2.326 . S
O566 C562 1.260 1_655 S
O567 In559 2.266 . S
O567 C564 1.252 . S
O568 In559 2.326 . S
O568 C564 1.260 . S
C569 O560 1.240 1_655 S
C569 O561 1.252 . S
O570 In559 2.294 . S
O570 C563 1.240 1_655 S
O571 In559 2.326 1_455 S
O571 C563 1.252 . S
In572 O573 2.294 1_565 S
In572 O574 2.326 . S
In572 O578 2.266 1_565 S
In572 O579 2.326 . S
In572 O580 2.266 . S
In572 O581 2.326 . S
In572 O583 2.294 . S
In572 O584 2.326 . S
O573 In572 2.294 1_545 S
O573 C582 1.240 1_545 S
O574 In572 2.326 . S
O574 C582 1.252 . S
C575 O578 1.252 1_565 S
C575 O579 1.260 . S
C576 O583 1.240 . S
C576 O584 1.252 . S
C577 O580 1.252 . S
C577 O581 1.260 . S
O578 In572 2.266 1_545 S
O578 C575 1.252 1_545 S
O579 In572 2.326 . S
O579 C575 1.260 . S
O580 In572 2.266 . S
O580 C577 1.252 . S
O581 In572 2.326 . S
O581 C577 1.260 . S
C582 O573 1.240 1_565 S
C582 O574 1.252 . S
O583 In572 2.294 . S
O583 C576 1.240 . S
O584 In572 2.326 . S
O584 C576 1.252 . S
In585 O586 2.294 . S
In585 O587 2.326 . S
In585 O591 2.266 . S
In585 O592 2.326 . S
In585 O593 2.266 . S
In585 O594 2.326 . S
In585 O596 2.294 . S
In585 O597 2.326 . S
O586 In585 2.294 . S
O586 C595 1.240 1_554 S
O587 In585 2.326 . S
O587 C595 1.252 1_554 S
C588 O591 1.252 . S
C588 O592 1.260 . S
C589 O596 1.240 . S
C589 O597 1.252 . S
C590 O593 1.252 . S
C590 O594 1.260 . S
O591 In585 2.266 . S
O591 C588 1.252 . S
O592 In585 2.326 . S
O592 C588 1.260 . S
O593 In585 2.266 . S
O593 C590 1.252 . S
O594 In585 2.326 . S
O594 C590 1.260 . S
C595 O586 1.240 1_556 S
C595 O587 1.252 1_556 S
O596 In585 2.294 . S
O596 C589 1.240 . S
O597 In585 2.326 . S
O597 C589 1.252 . S
In598 O599 2.294 . S
In598 O600 2.326 . S
In598 O604 2.266 . S
In598 O605 2.326 . S
In598 O606 2.266 . S
In598 O607 2.326 . S
In598 O609 2.294 . S
In598 O610 2.326 . S
O599 In598 2.294 . S
O599 C608 1.240 . S
O600 In598 2.326 . S
O600 C608 1.252 . S
C601 O604 1.252 . S
C601 O605 1.260 . S
C602 O609 1.240 . S
C602 O610 1.252 . S
C603 O606 1.252 . S
C603 O607 1.260 . S
O604 In598 2.266 . S
O604 C601 1.252 . S
O605 In598 2.326 . S
O605 C601 1.260 . S
O606 In598 2.266 . S
O606 C603 1.252 . S
O607 In598 2.326 . S
O607 C603 1.260 . S
C608 O599 1.240 . S
C608 O600 1.252 . S
O609 In598 2.294 . S
O609 C602 1.240 . S
O610 In598 2.326 . S
O610 C602 1.252 . S
In611 O612 2.294 . S
In611 O613 2.326 . S
In611 O617 2.266 . S
In611 O618 2.326 . S
In611 O619 2.266 . S
In611 O620 2.326 . S
In611 O622 2.294 . S
In611 O623 2.326 . S
O612 In611 2.294 . S
O612 C621 1.240 . S
O613 In611 2.326 . S
O613 C621 1.252 . S
C614 O617 1.252 . S
C614 O618 1.260 . S
C615 O622 1.240 . S
C615 O623 1.252 . S
C616 O619 1.252 . S
C616 O620 1.260 . S
O617 In611 2.266 . S
O617 C614 1.252 . S
O618 In611 2.326 . S
O618 C614 1.260 . S
O619 In611 2.266 . S
O619 C616 1.252 . S
O620 In611 2.326 . S
O620 C616 1.260 . S
C621 O612 1.240 . S
C621 O613 1.252 . S
O622 In611 2.294 . S
O622 C615 1.240 . S
O623 In611 2.326 . S
O623 C615 1.252 . S
H624 C632 0.950 . S
H625 C637 0.950 . S
H626 C634 0.950 . S
H627 C636 0.950 . S
H628 C638 0.950 . S
H629 C640 0.950 . S
H630 C642 0.950 . S
H631 C643 0.950 . S
C632 H624 0.950 . S
C632 C633 1.386 . S
C632 C634 1.391 . S
C633 C632 1.386 . S
C633 C637 1.393 . S
C634 H626 0.950 . S
C634 C632 1.391 . S
C634 C635 1.400 . S
C635 C634 1.400 . S
C635 C636 1.398 . S
C635 C641 1.491 . S
C636 H627 0.950 . S
C636 C635 1.398 . S
C636 C637 1.391 . S
C637 H625 0.950 . S
C637 C633 1.393 . S
C637 C636 1.391 . S
C638 H628 0.950 . S
C638 C639 1.386 . S
C638 C640 1.391 . S
C639 C638 1.386 . S
C639 C643 1.393 . S
C640 H629 0.950 . S
C640 C638 1.391 . S
C640 C641 1.400 . S
C641 C635 1.491 . S
C641 C640 1.400 . S
C641 C642 1.398 . S
C642 H630 0.950 . S
C642 C641 1.398 . S
C642 C643 1.391 . S
C643 H631 0.950 . S
C643 C639 1.393 . S
C643 C642 1.391 . S
H644 C652 0.950 . S
H645 C657 0.950 . S
H646 C654 0.950 . S
H647 C656 0.950 . S
H648 C658 0.950 . S
H649 C660 0.950 . S
H650 C662 0.950 . S
H651 C663 0.950 . S
C652 H644 0.950 . S
C652 C653 1.386 . S
C652 C654 1.391 . S
C653 C652 1.386 . S
C653 C657 1.393 . S
C654 H646 0.950 . S
C654 C652 1.391 . S
C654 C655 1.400 . S
C655 C654 1.400 . S
C655 C656 1.398 . S
C655 C661 1.491 . S
C656 H647 0.950 . S
C656 C655 1.398 . S
C656 C657 1.391 . S
C657 H645 0.950 . S
C657 C653 1.393 . S
C657 C656 1.391 . S
C658 H648 0.950 . S
C658 C659 1.386 . S
C658 C660 1.391 . S
C659 C658 1.386 . S
C659 C663 1.393 . S
C660 H649 0.950 . S
C660 C658 1.391 . S
C660 C661 1.400 . S
C661 C655 1.491 . S
C661 C660 1.400 . S
C661 C662 1.398 . S
C662 H650 0.950 . S
C662 C661 1.398 . S
C662 C663 1.391 . S
C663 H651 0.950 . S
C663 C659 1.393 . S
C663 C662 1.391 . S
H664 C672 0.950 . S
H665 C677 0.950 . S
H666 C674 0.950 . S
H667 C676 0.950 . S
H668 C678 0.950 . S
H669 C680 0.950 . S
H670 C682 0.950 . S
H671 C683 0.950 . S
C672 H664 0.950 . S
C672 C673 1.386 . S
C672 C674 1.391 . S
C673 C672 1.386 . S
C673 C677 1.393 . S
C674 H666 0.950 . S
C674 C672 1.391 . S
C674 C675 1.400 . S
C675 C674 1.400 . S
C675 C676 1.398 . S
C675 C681 1.491 . S
C676 H667 0.950 . S
C676 C675 1.398 . S
C676 C677 1.391 . S
C677 H665 0.950 . S
C677 C673 1.393 . S
C677 C676 1.391 . S
C678 H668 0.950 . S
C678 C679 1.386 . S
C678 C680 1.391 . S
C679 C678 1.386 . S
C679 C683 1.393 . S
C680 H669 0.950 . S
C680 C678 1.391 . S
C680 C681 1.400 . S
C681 C675 1.491 . S
C681 C680 1.400 . S
C681 C682 1.398 . S
C682 H670 0.950 . S
C682 C681 1.398 . S
C682 C683 1.391 . S
C683 H671 0.950 . S
C683 C679 1.393 . S
C683 C682 1.391 . S
H684 C692 0.929 1_565 S
H685 C697 0.950 . S
H686 C694 0.950 . S
H687 C696 0.950 . S
H688 C698 0.950 . S
H689 C700 0.950 . S
H690 C702 0.950 . S
H691 C703 0.950 . S
C692 H684 0.929 1_545 S
C692 C693 1.396 . S
C692 C694 1.403 . S
C693 C692 1.396 . S
C693 C697 1.393 . S
C694 H686 0.950 . S
C694 C692 1.403 . S
C694 C695 1.400 . S
C695 C694 1.400 . S
C695 C696 1.398 . S
C695 C701 1.491 . S
C696 H687 0.950 . S
C696 C695 1.398 . S
C696 C697 1.391 . S
C697 H685 0.950 . S
C697 C693 1.393 . S
C697 C696 1.391 . S
C698 H688 0.950 . S
C698 C699 1.386 . S
C698 C700 1.391 . S
C699 C698 1.386 . S
C699 C703 1.393 . S
C700 H689 0.950 . S
C700 C698 1.391 . S
C700 C701 1.400 . S
C701 C695 1.491 . S
C701 C700 1.400 . S
C701 C702 1.398 . S
C702 H690 0.950 . S
C702 C701 1.398 . S
C702 C703 1.391 . S
C703 H691 0.950 . S
C703 C699 1.393 . S
C703 C702 1.391 . S
H704 C712 0.950 . S
H705 C717 0.950 . S
H706 C714 0.950 . S
H707 C716 0.950 . S
H708 C718 0.950 . S
H709 C720 0.950 . S
H710 C722 0.950 . S
H711 C723 0.950 . S
C712 H704 0.950 . S
C712 C713 1.386 . S
C712 C714 1.391 . S
C713 C712 1.386 . S
C713 C717 1.393 . S
C714 H706 0.950 . S
C714 C712 1.391 . S
C714 C715 1.400 . S
C715 C714 1.400 . S
C715 C716 1.398 . S
C715 C721 1.491 . S
C716 H707 0.950 . S
C716 C715 1.398 . S
C716 C717 1.391 . S
C717 H705 0.950 . S
C717 C713 1.393 . S
C717 C716 1.391 . S
C718 H708 0.950 . S
C718 C719 1.386 . S
C718 C720 1.391 . S
C719 C718 1.386 . S
C719 C723 1.393 . S
C720 H709 0.950 . S
C720 C718 1.391 . S
C720 C721 1.400 . S
C721 C715 1.491 . S
C721 C720 1.400 . S
C721 C722 1.398 . S
C722 H710 0.950 . S
C722 C721 1.398 . S
C722 C723 1.391 . S
C723 H711 0.950 . S
C723 C719 1.393 . S
C723 C722 1.391 . S
H724 C732 0.950 . S
H725 C737 0.950 . S
H726 C734 0.950 . S
H727 C736 0.950 . S
H728 C738 0.950 . S
H729 C740 0.950 . S
H730 C742 0.950 . S
H731 C743 0.950 . S
C732 H724 0.950 . S
C732 C733 1.386 . S
C732 C734 1.391 . S
C733 C732 1.386 . S
C733 C737 1.393 . S
C734 H726 0.950 . S
C734 C732 1.391 . S
C734 C735 1.400 . S
C735 C734 1.400 . S
C735 C736 1.398 . S
C735 C741 1.491 . S
C736 H727 0.950 . S
C736 C735 1.398 . S
C736 C737 1.391 . S
C737 H725 0.950 . S
C737 C733 1.393 . S
C737 C736 1.391 . S
C738 H728 0.950 . S
C738 C739 1.386 . S
C738 C740 1.391 . S
C739 C738 1.386 . S
C739 C743 1.393 . S
C740 H729 0.950 . S
C740 C738 1.391 . S
C740 C741 1.400 . S
C741 C735 1.491 . S
C741 C740 1.400 . S
C741 C742 1.398 . S
C742 H730 0.950 . S
C742 C741 1.398 . S
C742 C743 1.391 . S
C743 H731 0.950 . S
C743 C739 1.393 . S
C743 C742 1.391 . S
H744 C752 0.950 . S
H745 C757 0.950 . S
H746 C754 0.950 . S
H747 C756 0.950 . S
H748 C758 0.950 . S
H749 C760 0.950 . S
H750 C762 0.950 1_565 S
H751 C763 0.950 . S
C752 H744 0.950 . S
C752 C753 1.386 . S
C752 C754 1.391 . S
C753 C752 1.386 . S
C753 C757 1.393 . S
C754 H746 0.950 . S
C754 C752 1.391 . S
C754 C755 1.400 . S
C755 C754 1.400 . S
C755 C756 1.398 . S
C755 C761 1.491 . S
C756 H747 0.950 . S
C756 C755 1.398 . S
C756 C757 1.391 . S
C757 H745 0.950 . S
C757 C753 1.393 . S
C757 C756 1.391 . S
C758 H748 0.950 . S
C758 C759 1.386 . S
C758 C760 1.391 . S
C759 C758 1.386 . S
C759 C763 1.393 1_545 S
C760 H749 0.950 . S
C760 C758 1.391 . S
C760 C761 1.400 . S
C761 C755 1.491 . S
C761 C760 1.400 . S
C761 C762 1.398 . S
C762 H750 0.950 1_545 S
C762 C761 1.398 . S
C762 C763 1.391 1_545 S
C763 H751 0.950 . S
C763 C759 1.393 1_565 S
C763 C762 1.391 1_565 S
H764 C772 0.950 . S
H765 C777 0.950 . S
H766 C774 0.950 . S
H767 C776 0.950 . S
H768 C778 0.950 . S
H769 C780 0.950 . S
H770 C782 0.950 . S
H771 C783 0.950 . S
C772 H764 0.950 . S
C772 C773 1.386 . S
C772 C774 1.391 . S
C773 C772 1.386 . S
C773 C777 1.393 . S
C774 H766 0.950 . S
C774 C772 1.391 . S
C774 C775 1.400 . S
C775 C774 1.400 . S
C775 C776 1.398 . S
C775 C781 1.491 . S
C776 H767 0.950 . S
C776 C775 1.398 . S
C776 C777 1.391 . S
C777 H765 0.950 . S
C777 C773 1.393 . S
C777 C776 1.391 . S
C778 H768 0.950 . S
C778 C779 1.386 . S
C778 C780 1.391 . S
C779 C778 1.386 . S
C779 C783 1.393 . S
C780 H769 0.950 . S
C780 C778 1.391 . S
C780 C781 1.400 . S
C781 C775 1.491 . S
C781 C780 1.400 . S
C781 C782 1.398 . S
C782 H770 0.950 . S
C782 C781 1.398 . S
C782 C783 1.391 . S
C783 H771 0.950 . S
C783 C779 1.393 . S
C783 C782 1.391 . S
H784 C792 0.950 . S
H785 C797 0.950 . S
H786 C794 0.950 . S
H787 C796 0.950 . S
H788 C798 0.950 . S
H789 C800 0.950 . S
H790 C802 0.950 . S
H791 C803 0.950 . S
C792 H784 0.950 . S
C792 C793 1.386 . S
C792 C794 1.391 . S
C793 C792 1.386 . S
C793 C797 1.393 . S
C794 H786 0.950 . S
C794 C792 1.391 . S
C794 C795 1.400 . S
C795 C794 1.400 . S
C795 C796 1.398 . S
C795 C801 1.491 . S
C796 H787 0.950 . S
C796 C795 1.398 . S
C796 C797 1.391 . S
C797 H785 0.950 . S
C797 C793 1.393 . S
C797 C796 1.391 . S
C798 H788 0.950 . S
C798 C799 1.386 . S
C798 C800 1.391 . S
C799 C798 1.386 . S
C799 C803 1.393 . S
C800 H789 0.950 . S
C800 C798 1.391 . S
C800 C801 1.400 . S
C801 C795 1.491 . S
C801 C800 1.400 . S
C801 C802 1.398 . S
C802 H790 0.950 . S
C802 C801 1.398 . S
C802 C803 1.391 . S
C803 H791 0.950 . S
C803 C799 1.393 . S
C803 C802 1.391 . S
H804 C812 0.950 . S
H805 C817 0.950 . S
H806 C814 0.950 . S
H807 C816 0.950 . S
H808 C818 0.950 . S
H809 C820 0.950 . S
H810 C822 0.950 . S
H811 C823 0.950 . S
C812 H804 0.950 . S
C812 C813 1.386 . S
C812 C814 1.391 . S
C813 C812 1.386 . S
C813 C817 1.393 . S
C814 H806 0.950 . S
C814 C812 1.391 . S
C814 C815 1.400 . S
C815 C814 1.400 . S
C815 C816 1.398 . S
C815 C821 1.491 . S
C816 H807 0.950 . S
C816 C815 1.398 . S
C816 C817 1.391 . S
C817 H805 0.950 . S
C817 C813 1.393 . S
C817 C816 1.391 . S
C818 H808 0.950 . S
C818 C819 1.386 . S
C818 C820 1.391 . S
C819 C818 1.386 . S
C819 C823 1.393 . S
C820 H809 0.950 . S
C820 C818 1.391 . S
C820 C821 1.400 . S
C821 C815 1.491 . S
C821 C820 1.400 . S
C821 C822 1.398 . S
C822 H810 0.950 . S
C822 C821 1.398 . S
C822 C823 1.391 . S
C823 H811 0.950 . S
C823 C819 1.393 . S
C823 C822 1.391 . S
H824 C832 0.950 . S
H825 C837 0.950 . S
H826 C834 0.950 . S
H827 C836 0.950 . S
H828 C838 0.950 . S
H829 C840 0.950 . S
H830 C842 0.950 . S
H831 C843 0.950 . S
C832 H824 0.950 . S
C832 C833 1.386 . S
C832 C834 1.391 . S
C833 C832 1.386 . S
C833 C837 1.393 . S
C834 H826 0.950 . S
C834 C832 1.391 . S
C834 C835 1.400 . S
C835 C834 1.400 . S
C835 C836 1.398 . S
C835 C841 1.491 . S
C836 H827 0.950 . S
C836 C835 1.398 . S
C836 C837 1.391 . S
C837 H825 0.950 . S
C837 C833 1.393 . S
C837 C836 1.391 . S
C838 H828 0.950 . S
C838 C839 1.386 . S
C838 C840 1.391 . S
C839 C838 1.386 . S
C839 C843 1.393 . S
C840 H829 0.950 . S
C840 C838 1.391 . S
C840 C841 1.400 . S
C841 C835 1.491 . S
C841 C840 1.400 . S
C841 C842 1.398 . S
C842 H830 0.950 . S
C842 C841 1.398 . S
C842 C843 1.391 . S
C843 H831 0.950 . S
C843 C839 1.393 . S
C843 C842 1.391 . S
H844 C852 0.950 . S
H845 C857 0.950 . S
H846 C854 0.950 . S
H847 C856 0.950 . S
H848 C858 0.950 . S
H849 C860 0.950 . S
H850 C862 0.950 . S
H851 C863 0.950 . S
C852 H844 0.950 . S
C852 C853 1.386 . S
C852 C854 1.391 . S
C853 C852 1.386 . S
C853 C857 1.393 . S
C854 H846 0.950 . S
C854 C852 1.391 . S
C854 C855 1.400 . S
C855 C854 1.400 . S
C855 C856 1.398 . S
C855 C861 1.491 . S
C856 H847 0.950 . S
C856 C855 1.398 . S
C856 C857 1.391 . S
C857 H845 0.950 . S
C857 C853 1.393 . S
C857 C856 1.391 . S
C858 H848 0.950 . S
C858 C859 1.386 . S
C858 C860 1.391 . S
C859 C858 1.386 . S
C859 C863 1.393 . S
C860 H849 0.950 . S
C860 C858 1.391 . S
C860 C861 1.400 . S
C861 C855 1.491 . S
C861 C860 1.400 . S
C861 C862 1.398 . S
C862 H850 0.950 . S
C862 C861 1.398 . S
C862 C863 1.391 . S
C863 H851 0.950 . S
C863 C859 1.393 . S
C863 C862 1.391 . S
H864 C872 0.950 . S
H865 C877 0.950 . S
H866 C874 0.950 . S
H867 C876 0.950 . S
H868 C878 0.950 . S
H869 C880 0.950 . S
H870 C882 0.950 . S
H871 C883 0.950 . S
C872 H864 0.950 . S
C872 C873 1.386 . S
C872 C874 1.391 . S
C873 C872 1.386 . S
C873 C877 1.393 . S
C874 H866 0.950 . S
C874 C872 1.391 . S
C874 C875 1.400 . S
C875 C874 1.400 . S
C875 C876 1.398 . S
C875 C881 1.491 . S
C876 H867 0.950 . S
C876 C875 1.398 . S
C876 C877 1.391 . S
C877 H865 0.950 . S
C877 C873 1.393 . S
C877 C876 1.391 . S
C878 H868 0.950 . S
C878 C879 1.386 . S
C878 C880 1.391 . S
C879 C878 1.386 . S
C879 C883 1.393 . S
C880 H869 0.950 . S
C880 C878 1.391 . S
C880 C881 1.400 . S
C881 C875 1.491 . S
C881 C880 1.400 . S
C881 C882 1.398 . S
C882 H870 0.950 . S
C882 C881 1.398 . S
C882 C883 1.391 . S
C883 H871 0.950 . S
C883 C879 1.393 . S
C883 C882 1.391 . S
H884 C892 0.950 . S
H885 C897 0.950 . S
H886 C894 0.950 . S
H887 C896 0.950 . S
H888 C898 0.950 . S
H889 C900 0.950 . S
H890 C902 0.950 . S
H891 C903 0.950 . S
C892 H884 0.950 . S
C892 C893 1.386 . S
C892 C894 1.391 . S
C893 C892 1.386 . S
C893 C897 1.393 . S
C894 H886 0.950 . S
C894 C892 1.391 . S
C894 C895 1.400 . S
C895 C894 1.400 . S
C895 C896 1.398 . S
C895 C901 1.491 . S
C896 H887 0.950 . S
C896 C895 1.398 . S
C896 C897 1.391 . S
C897 H885 0.950 . S
C897 C893 1.393 . S
C897 C896 1.391 . S
C898 H888 0.950 . S
C898 C899 1.386 . S
C898 C900 1.391 . S
C899 C898 1.386 . S
C899 C903 1.393 . S
C900 H889 0.950 . S
C900 C898 1.391 . S
C900 C901 1.400 . S
C901 C895 1.491 . S
C901 C900 1.400 . S
C901 C902 1.398 . S
C902 H890 0.950 . S
C902 C901 1.398 . S
C902 C903 1.391 . S
C903 H891 0.950 . S
C903 C899 1.393 . S
C903 C902 1.391 . S
H904 C912 0.950 . S
H905 C917 0.950 . S
H906 C914 0.950 . S
H907 C916 0.950 . S
H908 C918 0.950 . S
H909 C920 0.950 . S
H910 C922 0.950 . S
H911 C923 0.950 . S
C912 H904 0.950 . S
C912 C913 1.386 . S
C912 C914 1.391 . S
C913 C912 1.386 . S
C913 C917 1.393 . S
C914 H906 0.950 . S
C914 C912 1.391 . S
C914 C915 1.400 . S
C915 C914 1.400 . S
C915 C916 1.398 . S
C915 C921 1.491 . S
C916 H907 0.950 . S
C916 C915 1.398 . S
C916 C917 1.391 . S
C917 H905 0.950 . S
C917 C913 1.393 . S
C917 C916 1.391 . S
C918 H908 0.950 . S
C918 C919 1.386 . S
C918 C920 1.391 . S
C919 C918 1.386 . S
C919 C923 1.393 . S
C920 H909 0.950 . S
C920 C918 1.391 . S
C920 C921 1.400 . S
C921 C915 1.491 . S
C921 C920 1.400 . S
C921 C922 1.398 . S
C922 H910 0.950 . S
C922 C921 1.398 . S
C922 C923 1.391 . S
C923 H911 0.950 . S
C923 C919 1.393 . S
C923 C922 1.391 . S
H924 C932 0.950 . S
H925 C937 0.950 . S
H926 C934 0.950 . S
H927 C936 0.950 . S
H928 C938 0.950 . S
H929 C940 0.950 . S
H930 C942 0.950 . S
H931 C943 0.950 . S
C932 H924 0.950 . S
C932 C933 1.386 . S
C932 C934 1.391 . S
C933 C932 1.386 . S
C933 C937 1.393 . S
C934 H926 0.950 . S
C934 C932 1.391 . S
C934 C935 1.400 . S
C935 C934 1.400 . S
C935 C936 1.398 . S
C935 C941 1.491 . S
C936 H927 0.950 . S
C936 C935 1.398 . S
C936 C937 1.391 . S
C937 H925 0.950 . S
C937 C933 1.393 . S
C937 C936 1.391 . S
C938 H928 0.950 . S
C938 C939 1.386 . S
C938 C940 1.391 . S
C939 C938 1.386 . S
C939 C943 1.393 . S
C940 H929 0.950 . S
C940 C938 1.391 . S
C940 C941 1.400 . S
C941 C935 1.491 . S
C941 C940 1.400 . S
C941 C942 1.398 . S
C942 H930 0.950 . S
C942 C941 1.398 . S
C942 C943 1.391 . S
C943 H931 0.950 . S
C943 C939 1.393 . S
C943 C942 1.391 . S
H944 C952 0.950 . S
H945 C957 0.950 . S
H946 C954 0.952 . S
H947 C956 0.950 . S
H948 C958 0.950 . S
H949 C960 0.950 . S
H950 C962 0.950 . S
H951 C963 0.950 . S
C952 H944 0.950 . S
C952 C953 1.386 . S
C952 C954 1.384 1_655 S
C953 C952 1.386 . S
C953 C957 1.393 . S
C954 H946 0.952 . S
C954 C952 1.384 1_455 S
C954 C955 1.406 . S
C955 C954 1.406 . S
C955 C956 1.398 . S
C955 C961 1.491 . S
C956 H947 0.950 . S
C956 C955 1.398 . S
C956 C957 1.391 1_455 S
C957 H945 0.950 . S
C957 C953 1.393 . S
C957 C956 1.391 1_655 S
C958 H948 0.950 . S
C958 C959 1.386 . S
C958 C960 1.391 . S
C959 C958 1.386 . S
C959 C963 1.393 . S
C960 H949 0.950 . S
C960 C958 1.391 . S
C960 C961 1.400 . S
C961 C955 1.491 . S
C961 C960 1.400 . S
C961 C962 1.398 . S
C962 H950 0.950 . S
C962 C961 1.398 . S
C962 C963 1.391 . S
C963 H951 0.950 . S
C963 C959 1.393 . S
C963 C962 1.391 . S
H964 C972 0.950 . S
H965 C977 0.950 . S
H966 C974 0.950 . S
H967 C976 0.950 . S
H968 C978 0.950 . S
H969 C980 0.950 . S
H970 C982 0.950 . S
H971 C983 0.950 . S
C972 H964 0.950 . S
C972 C973 1.386 . S
C972 C974 1.391 . S
C973 C972 1.386 . S
C973 C977 1.393 . S
C974 H966 0.950 . S
C974 C972 1.391 . S
C974 C975 1.400 . S
C975 C974 1.400 . S
C975 C976 1.398 . S
C975 C981 1.491 . S
C976 H967 0.950 . S
C976 C975 1.398 . S
C976 C977 1.391 . S
C977 H965 0.950 . S
C977 C973 1.393 . S
C977 C976 1.391 . S
C978 H968 0.950 . S
C978 C979 1.386 . S
C978 C980 1.391 . S
C979 C978 1.386 . S
C979 C983 1.393 . S
C980 H969 0.950 . S
C980 C978 1.391 . S
C980 C981 1.400 . S
C981 C975 1.491 . S
C981 C980 1.400 . S
C981 C982 1.398 . S
C982 H970 0.950 . S
C982 C981 1.398 . S
C982 C983 1.391 . S
C983 H971 0.950 . S
C983 C979 1.393 . S
C983 C982 1.391 . S
H984 C992 0.950 . S
H985 C997 0.950 . S
H986 C994 0.950 . S
H987 C996 0.950 . S
H988 C998 0.950 . S
H989 C1000 0.950 . S
H990 C1002 0.950 . S
H991 C1003 0.950 . S
C992 H984 0.950 . S
C992 C993 1.386 . S
C992 C994 1.391 . S
C993 C992 1.386 . S
C993 C997 1.393 . S
C994 H986 0.950 . S
C994 C992 1.391 . S
C994 C995 1.400 . S
C995 C994 1.400 . S
C995 C996 1.398 . S
C995 C1001 1.491 . S
C996 H987 0.950 . S
C996 C995 1.398 . S
C996 C997 1.391 . S
C997 H985 0.950 . S
C997 C993 1.393 . S
C997 C996 1.391 . S
C998 H988 0.950 . S
C998 C999 1.386 . S
C998 C1000 1.391 . S
C999 C998 1.386 . S
C999 C1003 1.393 . S
C1000 H989 0.950 . S
C1000 C998 1.391 . S
C1000 C1001 1.400 . S
C1001 C995 1.491 . S
C1001 C1000 1.400 . S
C1001 C1002 1.398 . S
C1002 H990 0.950 . S
C1002 C1001 1.398 . S
C1002 C1003 1.391 . S
C1003 H991 0.950 . S
C1003 C999 1.393 . S
C1003 C1002 1.391 . S
H1004 C1012 0.950 . S
H1005 C1017 0.950 . S
H1006 C1014 0.950 . S
H1007 C1016 0.950 . S
H1008 C1018 0.950 . S
H1009 C1020 0.950 . S
H1010 C1022 0.950 . S
H1011 C1023 0.949 . S
C1012 H1004 0.950 . S
C1012 C1013 1.386 . S
C1012 C1014 1.391 . S
C1013 C1012 1.386 . S
C1013 C1017 1.393 1_556 S
C1014 H1006 0.950 . S
C1014 C1012 1.391 . S
C1014 C1015 1.367 1_556 S
C1015 C1014 1.367 1_554 S
C1015 C1016 1.421 . S
C1015 C1021 1.502 . S
C1016 H1007 0.950 . S
C1016 C1015 1.421 . S
C1016 C1017 1.391 . S
C1017 H1005 0.950 . S
C1017 C1013 1.393 1_554 S
C1017 C1016 1.391 . S
C1018 H1008 0.950 . S
C1018 C1019 1.386 . S
C1018 C1020 1.391 . S
C1019 C1018 1.386 . S
C1019 C1023 1.394 1_554 S
C1020 H1009 0.950 . S
C1020 C1018 1.391 . S
C1020 C1021 1.400 . S
C1021 C1015 1.502 . S
C1021 C1020 1.400 . S
C1021 C1022 1.398 1_554 S
C1022 H1010 0.950 . S
C1022 C1021 1.398 1_556 S
C1022 C1023 1.390 . S
C1023 H1011 0.949 . S
C1023 C1019 1.394 1_556 S
C1023 C1022 1.390 . S
H1024 C1032 0.950 . S
H1025 C1037 0.950 . S
H1026 C1034 0.950 . S
H1027 C1036 0.950 . S
H1028 C1038 0.950 . S
H1029 C1040 0.950 . S
H1030 C1042 0.950 . S
H1031 C1043 0.950 . S
C1032 H1024 0.950 . S
C1032 C1033 1.386 . S
C1032 C1034 1.391 . S
C1033 C1032 1.386 . S
C1033 C1037 1.393 . S
C1034 H1026 0.950 . S
C1034 C1032 1.391 . S
C1034 C1035 1.400 . S
C1035 C1034 1.400 . S
C1035 C1036 1.398 . S
C1035 C1041 1.491 . S
C1036 H1027 0.950 . S
C1036 C1035 1.398 . S
C1036 C1037 1.391 . S
C1037 H1025 0.950 . S
C1037 C1033 1.393 . S
C1037 C1036 1.391 . S
C1038 H1028 0.950 . S
C1038 C1039 1.386 . S
C1038 C1040 1.391 . S
C1039 C1038 1.386 . S
C1039 C1043 1.393 . S
C1040 H1029 0.950 . S
C1040 C1038 1.391 . S
C1040 C1041 1.400 . S
C1041 C1035 1.491 . S
C1041 C1040 1.400 . S
C1041 C1042 1.398 . S
C1042 H1030 0.950 . S
C1042 C1041 1.398 . S
C1042 C1043 1.391 . S
C1043 H1031 0.950 . S
C1043 C1039 1.393 . S
C1043 C1042 1.391 . S
H1044 C1052 0.950 . S
H1045 C1057 0.950 . S
H1046 C1054 0.950 . S
H1047 C1056 0.950 . S
H1048 C1058 0.950 . S
H1049 C1060 0.950 . S
H1050 C1062 0.950 . S
H1051 C1063 0.950 . S
C1052 H1044 0.950 . S
C1052 C1053 1.386 . S
C1052 C1054 1.391 . S
C1053 C1052 1.386 . S
C1053 C1057 1.393 . S
C1054 H1046 0.950 . S
C1054 C1052 1.391 . S
C1054 C1055 1.400 . S
C1055 C1054 1.400 . S
C1055 C1056 1.398 . S
C1055 C1061 1.491 . S
C1056 H1047 0.950 . S
C1056 C1055 1.398 . S
C1056 C1057 1.391 . S
C1057 H1045 0.950 . S
C1057 C1053 1.393 . S
C1057 C1056 1.391 . S
C1058 H1048 0.950 . S
C1058 C1059 1.386 . S
C1058 C1060 1.391 . S
C1059 C1058 1.386 . S
C1059 C1063 1.393 . S
C1060 H1049 0.950 . S
C1060 C1058 1.391 . S
C1060 C1061 1.400 . S
C1061 C1055 1.491 . S
C1061 C1060 1.400 . S
C1061 C1062 1.398 . S
C1062 H1050 0.950 . S
C1062 C1061 1.398 . S
C1062 C1063 1.391 . S
C1063 H1051 0.950 . S
C1063 C1059 1.393 . S
C1063 C1062 1.391 . S
H1064 C1072 0.950 . S
H1065 C1077 0.950 . S
H1066 C1074 0.950 . S
H1067 C1076 0.950 . S
H1068 C1078 0.950 . S
H1069 C1080 0.950 . S
H1070 C1082 0.950 . S
H1071 C1083 0.950 . S
C1072 H1064 0.950 . S
C1072 C1073 1.386 . S
C1072 C1074 1.391 . S
C1073 C1072 1.386 . S
C1073 C1077 1.393 . S
C1074 H1066 0.950 . S
C1074 C1072 1.391 . S
C1074 C1075 1.400 . S
C1075 C1074 1.400 . S
C1075 C1076 1.398 . S
C1075 C1081 1.491 . S
C1076 H1067 0.950 . S
C1076 C1075 1.398 . S
C1076 C1077 1.391 . S
C1077 H1065 0.950 . S
C1077 C1073 1.393 . S
C1077 C1076 1.391 . S
C1078 H1068 0.950 . S
C1078 C1079 1.386 . S
C1078 C1080 1.391 . S
C1079 C1078 1.386 . S
C1079 C1083 1.393 . S
C1080 H1069 0.950 . S
C1080 C1078 1.391 . S
C1080 C1081 1.400 . S
C1081 C1075 1.491 . S
C1081 C1080 1.400 . S
C1081 C1082 1.398 . S
C1082 H1070 0.950 . S
C1082 C1081 1.398 . S
C1082 C1083 1.391 . S
C1083 H1071 0.950 . S
C1083 C1079 1.393 . S
C1083 C1082 1.391 . S
H1084 C1092 0.950 . S
H1085 C1097 0.950 . S
H1086 C1094 0.950 1_545 S
H1087 C1096 0.950 . S
H1088 C1098 0.950 . S
H1089 C1100 0.950 . S
H1090 C1102 0.950 . S
H1091 C1103 0.950 . S
C1092 H1084 0.950 . S
C1092 C1093 1.386 1_545 S
C1092 C1094 1.391 1_545 S
C1093 C1092 1.386 1_565 S
C1093 C1097 1.393 . S
C1094 H1086 0.950 1_565 S
C1094 C1092 1.391 1_565 S
C1094 C1095 1.400 . S
C1095 C1094 1.400 . S
C1095 C1096 1.398 . S
C1095 C1101 1.491 . S
C1096 H1087 0.950 . S
C1096 C1095 1.398 . S
C1096 C1097 1.391 . S
C1097 H1085 0.950 . S
C1097 C1093 1.393 . S
C1097 C1096 1.391 . S
C1098 H1088 0.950 . S
C1098 C1099 1.386 . S
C1098 C1100 1.391 . S
C1099 C1098 1.386 . S
C1099 C1103 1.393 . S
C1100 H1089 0.950 . S
C1100 C1098 1.391 . S
C1100 C1101 1.400 . S
C1101 C1095 1.491 . S
C1101 C1100 1.400 . S
C1101 C1102 1.398 . S
C1102 H1090 0.950 . S
C1102 C1101 1.398 . S
C1102 C1103 1.391 . S
C1103 H1091 0.950 . S
C1103 C1099 1.393 . S
C1103 C1102 1.391 . S
H1104 C1112 0.950 . S
H1105 C1117 0.950 . S
H1106 C1114 0.950 . S
H1107 C1116 0.950 . S
H1108 C1118 0.950 . S
H1109 C1120 0.950 . S
H1110 C1122 0.950 . S
H1111 C1123 0.950 . S
C1112 H1104 0.950 . S
C1112 C1113 1.386 . S
C1112 C1114 1.391 . S
C1113 C1112 1.386 . S
C1113 C1117 1.393 . S
C1114 H1106 0.950 . S
C1114 C1112 1.391 . S
C1114 C1115 1.400 . S
C1115 C1114 1.400 . S
C1115 C1116 1.398 . S
C1115 C1121 1.491 . S
C1116 H1107 0.950 . S
C1116 C1115 1.398 . S
C1116 C1117 1.391 . S
C1117 H1105 0.950 . S
C1117 C1113 1.393 . S
C1117 C1116 1.391 . S
C1118 H1108 0.950 . S
C1118 C1119 1.386 . S
C1118 C1120 1.391 . S
C1119 C1118 1.386 . S
C1119 C1123 1.393 . S
C1120 H1109 0.950 . S
C1120 C1118 1.391 . S
C1120 C1121 1.400 . S
C1121 C1115 1.491 . S
C1121 C1120 1.400 . S
C1121 C1122 1.398 . S
C1122 H1110 0.950 . S
C1122 C1121 1.398 . S
C1122 C1123 1.391 . S
C1123 H1111 0.950 . S
C1123 C1119 1.393 . S
C1123 C1122 1.391 . S
H1124 C1132 0.950 . S
H1125 C1137 0.950 . S
H1126 C1134 0.950 . S
H1127 C1136 0.939 1_545 S
H1128 C1138 0.950 . S
H1129 C1140 0.950 . S
H1130 C1142 0.950 . S
H1131 C1143 0.950 . S
C1132 H1124 0.950 . S
C1132 C1133 1.386 . S
C1132 C1134 1.391 . S
C1133 C1132 1.386 . S
C1133 C1137 1.393 1_565 S
C1134 H1126 0.950 . S
C1134 C1132 1.391 . S
C1134 C1135 1.400 . S
C1135 C1134 1.400 . S
C1135 C1136 1.416 . S
C1135 C1141 1.491 . S
C1136 H1127 0.939 1_565 S
C1136 C1135 1.416 . S
C1136 C1137 1.384 1_565 S
C1137 H1125 0.950 . S
C1137 C1133 1.393 1_545 S
C1137 C1136 1.384 1_545 S
C1138 H1128 0.950 . S
C1138 C1139 1.386 . S
C1138 C1140 1.391 . S
C1139 C1138 1.386 . S
C1139 C1143 1.393 . S
C1140 H1129 0.950 . S
C1140 C1138 1.391 . S
C1140 C1141 1.400 . S
C1141 C1135 1.491 . S
C1141 C1140 1.400 . S
C1141 C1142 1.398 . S
C1142 H1130 0.950 . S
C1142 C1141 1.398 . S
C1142 C1143 1.391 . S
C1143 H1131 0.950 . S
C1143 C1139 1.393 . S
C1143 C1142 1.391 . S
H1144 C1152 0.950 . S
H1145 C1157 0.950 . S
H1146 C1154 0.950 . S
H1147 C1156 0.950 . S
H1148 C1158 0.950 . S
H1149 C1160 0.950 . S
H1150 C1162 0.950 . S
H1151 C1163 0.950 . S
C1152 H1144 0.950 . S
C1152 C1153 1.386 . S
C1152 C1154 1.391 . S
C1153 C1152 1.386 . S
C1153 C1157 1.393 . S
C1154 H1146 0.950 . S
C1154 C1152 1.391 . S
C1154 C1155 1.400 . S
C1155 C1154 1.400 . S
C1155 C1156 1.398 . S
C1155 C1161 1.491 . S
C1156 H1147 0.950 . S
C1156 C1155 1.398 . S
C1156 C1157 1.391 . S
C1157 H1145 0.950 . S
C1157 C1153 1.393 . S
C1157 C1156 1.391 . S
C1158 H1148 0.950 . S
C1158 C1159 1.386 . S
C1158 C1160 1.391 . S
C1159 C1158 1.386 . S
C1159 C1163 1.393 . S
C1160 H1149 0.950 . S
C1160 C1158 1.391 . S
C1160 C1161 1.400 . S
C1161 C1155 1.491 . S
C1161 C1160 1.400 . S
C1161 C1162 1.398 . S
C1162 H1150 0.950 . S
C1162 C1161 1.398 . S
C1162 C1163 1.391 . S
C1163 H1151 0.950 . S
C1163 C1159 1.393 . S
C1163 C1162 1.391 . S
H1164 C1172 0.950 . S
H1165 C1177 0.950 . S
H1166 C1174 0.950 . S
H1167 C1176 0.950 . S
H1168 C1178 0.950 . S
H1169 C1180 0.950 . S
H1170 C1182 0.950 . S
H1171 C1183 0.950 . S
C1172 H1164 0.950 . S
C1172 C1173 1.386 . S
C1172 C1174 1.391 . S
C1173 C1172 1.386 . S
C1173 C1177 1.393 . S
C1174 H1166 0.950 . S
C1174 C1172 1.391 . S
C1174 C1175 1.400 . S
C1175 C1174 1.400 . S
C1175 C1176 1.398 . S
C1175 C1181 1.491 . S
C1176 H1167 0.950 . S
C1176 C1175 1.398 . S
C1176 C1177 1.391 . S
C1177 H1165 0.950 . S
C1177 C1173 1.393 . S
C1177 C1176 1.391 . S
C1178 H1168 0.950 . S
C1178 C1179 1.386 . S
C1178 C1180 1.391 . S
C1179 C1178 1.386 . S
C1179 C1183 1.393 . S
C1180 H1169 0.950 . S
C1180 C1178 1.391 . S
C1180 C1181 1.400 . S
C1181 C1175 1.491 . S
C1181 C1180 1.400 . S
C1181 C1182 1.398 . S
C1182 H1170 0.950 . S
C1182 C1181 1.398 . S
C1182 C1183 1.391 . S
C1183 H1171 0.950 . S
C1183 C1179 1.393 . S
C1183 C1182 1.391 . S
H1184 C1192 0.950 . S
H1185 C1197 0.950 . S
H1186 C1194 0.950 . S
H1187 C1196 0.950 . S
H1188 C1198 0.950 1_556 S
H1189 C1200 0.950 . S
H1190 C1202 0.950 . S
H1191 C1203 0.950 . S
C1192 H1184 0.950 . S
C1192 C1193 1.386 1_554 S
C1192 C1194 1.391 . S
C1193 C1192 1.386 1_556 S
C1193 C1197 1.393 . S
C1194 H1186 0.950 . S
C1194 C1192 1.391 . S
C1194 C1195 1.400 . S
C1195 C1194 1.400 . S
C1195 C1196 1.398 1_554 S
C1195 C1201 1.491 . S
C1196 H1187 0.950 . S
C1196 C1195 1.398 1_556 S
C1196 C1197 1.391 . S
C1197 H1185 0.950 . S
C1197 C1193 1.393 . S
C1197 C1196 1.391 . S
C1198 H1188 0.950 1_554 S
C1198 C1199 1.386 . S
C1198 C1200 1.391 1_554 S
C1199 C1198 1.386 . S
C1199 C1203 1.393 . S
C1200 H1189 0.950 . S
C1200 C1198 1.391 1_556 S
C1200 C1201 1.400 1_556 S
C1201 C1195 1.491 . S
C1201 C1200 1.400 1_554 S
C1201 C1202 1.398 . S
C1202 H1190 0.950 . S
C1202 C1201 1.398 . S
C1202 C1203 1.391 . S
C1203 H1191 0.950 . S
C1203 C1199 1.393 . S
C1203 C1202 1.391 . S
H1204 C1212 0.950 . S
H1205 C1217 0.950 . S
H1206 C1214 0.950 . S
H1207 C1216 0.950 . S
H1208 C1218 0.950 . S
H1209 C1220 0.950 . S
H1210 C1222 0.950 . S
H1211 C1223 0.950 . S
C1212 H1204 0.950 . S
C1212 C1213 1.386 . S
C1212 C1214 1.391 . S
C1213 C1212 1.386 . S
C1213 C1217 1.393 . S
C1214 H1206 0.950 . S
C1214 C1212 1.391 . S
C1214 C1215 1.400 . S
C1215 C1214 1.400 . S
C1215 C1216 1.398 . S
C1215 C1221 1.491 . S
C1216 H1207 0.950 . S
C1216 C1215 1.398 . S
C1216 C1217 1.391 . S
C1217 H1205 0.950 . S
C1217 C1213 1.393 . S
C1217 C1216 1.391 . S
C1218 H1208 0.950 . S
C1218 C1219 1.386 . S
C1218 C1220 1.391 . S
C1219 C1218 1.386 . S
C1219 C1223 1.393 . S
C1220 H1209 0.950 . S
C1220 C1218 1.391 . S
C1220 C1221 1.400 . S
C1221 C1215 1.491 . S
C1221 C1220 1.400 . S
C1221 C1222 1.398 . S
C1222 H1210 0.950 . S
C1222 C1221 1.398 . S
C1222 C1223 1.391 . S
C1223 H1211 0.950 . S
C1223 C1219 1.393 . S
C1223 C1222 1.391 . S
H1224 C1232 0.950 . S
H1225 C1237 0.950 . S
H1226 C1234 0.950 . S
H1227 C1236 0.950 . S
H1228 C1238 0.950 . S
H1229 C1240 0.950 . S
H1230 C1242 0.950 . S
H1231 C1243 0.950 . S
C1232 H1224 0.950 . S
C1232 C1233 1.386 . S
C1232 C1234 1.391 . S
C1233 C1232 1.386 . S
C1233 C1237 1.393 . S
C1234 H1226 0.950 . S
C1234 C1232 1.391 . S
C1234 C1235 1.400 . S
C1235 C1234 1.400 . S
C1235 C1236 1.398 . S
C1235 C1241 1.491 . S
C1236 H1227 0.950 . S
C1236 C1235 1.398 . S
C1236 C1237 1.391 . S
C1237 H1225 0.950 . S
C1237 C1233 1.393 . S
C1237 C1236 1.391 . S
C1238 H1228 0.950 . S
C1238 C1239 1.386 . S
C1238 C1240 1.391 . S
C1239 C1238 1.386 . S
C1239 C1243 1.393 . S
C1240 H1229 0.950 . S
C1240 C1238 1.391 . S
C1240 C1241 1.400 . S
C1241 C1235 1.491 . S
C1241 C1240 1.400 . S
C1241 C1242 1.398 . S
C1242 H1230 0.950 . S
C1242 C1241 1.398 . S
C1242 C1243 1.391 . S
C1243 H1231 0.950 . S
C1243 C1239 1.393 . S
C1243 C1242 1.391 . S
H1244 C1252 0.950 . S
H1245 C1257 0.950 . S
H1246 C1254 0.950 . S
H1247 C1256 0.950 . S
H1248 C1258 0.950 . S
H1249 C1260 0.950 . S
H1250 C1262 0.950 . S
H1251 C1263 0.950 . S
C1252 H1244 0.950 . S
C1252 C1253 1.386 . S
C1252 C1254 1.391 . S
C1253 C1252 1.386 . S
C1253 C1257 1.393 . S
C1254 H1246 0.950 . S
C1254 C1252 1.391 . S
C1254 C1255 1.400 . S
C1255 C1254 1.400 . S
C1255 C1256 1.398 . S
C1255 C1261 1.491 . S
C1256 H1247 0.950 . S
C1256 C1255 1.398 . S
C1256 C1257 1.391 . S
C1257 H1245 0.950 . S
C1257 C1253 1.393 . S
C1257 C1256 1.391 . S
C1258 H1248 0.950 . S
C1258 C1259 1.386 . S
C1258 C1260 1.391 . S
C1259 C1258 1.386 . S
C1259 C1263 1.393 . S
C1260 H1249 0.950 . S
C1260 C1258 1.391 . S
C1260 C1261 1.400 . S
C1261 C1255 1.491 . S
C1261 C1260 1.400 . S
C1261 C1262 1.398 . S
C1262 H1250 0.950 . S
C1262 C1261 1.398 . S
C1262 C1263 1.391 . S
C1263 H1251 0.950 . S
C1263 C1259 1.393 . S
C1263 C1262 1.391 . S
H1264 C1272 0.950 . S
H1265 C1277 0.950 . S
H1266 C1274 0.950 . S
H1267 C1276 0.950 . S
H1268 C1278 0.950 . S
H1269 C1280 0.950 . S
H1270 C1282 0.950 . S
H1271 C1283 0.950 . S
C1272 H1264 0.950 . S
C1272 C1273 1.386 . S
C1272 C1274 1.391 . S
C1273 C1272 1.386 . S
C1273 C1277 1.393 . S
C1274 H1266 0.950 . S
C1274 C1272 1.391 . S
C1274 C1275 1.400 . S
C1275 C1274 1.400 . S
C1275 C1276 1.398 . S
C1275 C1281 1.491 . S
C1276 H1267 0.950 . S
C1276 C1275 1.398 . S
C1276 C1277 1.391 . S
C1277 H1265 0.950 . S
C1277 C1273 1.393 . S
C1277 C1276 1.391 . S
C1278 H1268 0.950 . S
C1278 C1279 1.386 . S
C1278 C1280 1.391 . S
C1279 C1278 1.386 . S
C1279 C1283 1.393 . S
C1280 H1269 0.950 . S
C1280 C1278 1.391 . S
C1280 C1281 1.400 . S
C1281 C1275 1.491 . S
C1281 C1280 1.400 . S
C1281 C1282 1.398 . S
C1282 H1270 0.950 . S
C1282 C1281 1.398 . S
C1282 C1283 1.391 . S
C1283 H1271 0.950 . S
C1283 C1279 1.393 . S
C1283 C1282 1.391 . S
H1284 C1292 0.950 . S
H1285 C1297 0.950 . S
H1286 C1294 0.950 . S
H1287 C1296 0.950 . S
H1288 C1298 0.950 . S
H1289 C1300 0.950 . S
H1290 C1302 0.946 1_554 S
H1291 C1303 0.951 1_554 S
C1292 H1284 0.950 . S
C1292 C1293 1.386 . S
C1292 C1294 1.391 . S
C1293 C1292 1.386 . S
C1293 C1297 1.393 1_554 S
C1294 H1286 0.950 . S
C1294 C1292 1.391 . S
C1294 C1295 1.390 1_554 S
C1295 C1294 1.390 1_556 S
C1295 C1296 1.404 . S
C1295 C1301 1.496 . S
C1296 H1287 0.950 . S
C1296 C1295 1.404 . S
C1296 C1297 1.391 . S
C1297 H1285 0.950 . S
C1297 C1293 1.393 1_556 S
C1297 C1296 1.391 . S
C1298 H1288 0.950 . S
C1298 C1299 1.386 . S
C1298 C1300 1.391 . S
C1299 C1298 1.386 . S
C1299 C1303 1.393 . S
C1300 H1289 0.950 . S
C1300 C1298 1.391 . S
C1300 C1301 1.400 . S
C1301 C1295 1.496 . S
C1301 C1300 1.400 . S
C1301 C1302 1.401 . S
C1302 H1290 0.946 1_556 S
C1302 C1301 1.401 . S
C1302 C1303 1.392 . S
C1303 H1291 0.951 1_556 S
C1303 C1299 1.393 . S
C1303 C1302 1.392 . S
H1304 C1312 0.950 . S
H1305 C1317 0.950 . S
H1306 C1314 0.950 . S
H1307 C1316 0.950 . S
H1308 C1318 0.950 . S
H1309 C1320 0.950 . S
H1310 C1322 0.950 . S
H1311 C1323 0.950 . S
C1312 H1304 0.950 . S
C1312 C1313 1.386 . S
C1312 C1314 1.391 . S
C1313 C1312 1.386 . S
C1313 C1317 1.393 . S
C1314 H1306 0.950 . S
C1314 C1312 1.391 . S
C1314 C1315 1.400 . S
C1315 C1314 1.400 . S
C1315 C1316 1.398 . S
C1315 C1321 1.491 . S
C1316 H1307 0.950 . S
C1316 C1315 1.398 . S
C1316 C1317 1.391 . S
C1317 H1305 0.950 . S
C1317 C1313 1.393 . S
C1317 C1316 1.391 . S
C1318 H1308 0.950 . S
C1318 C1319 1.386 . S
C1318 C1320 1.391 . S
C1319 C1318 1.386 . S
C1319 C1323 1.393 . S
C1320 H1309 0.950 . S
C1320 C1318 1.391 . S
C1320 C1321 1.400 . S
C1321 C1315 1.491 . S
C1321 C1320 1.400 . S
C1321 C1322 1.398 . S
C1322 H1310 0.950 . S
C1322 C1321 1.398 . S
C1322 C1323 1.391 . S
C1323 H1311 0.950 . S
C1323 C1319 1.393 . S
C1323 C1322 1.391 . S
H1324 C1332 0.950 . S
H1325 C1337 0.950 . S
H1326 C1334 0.950 . S
H1327 C1336 0.950 . S
H1328 C1338 0.950 . S
H1329 C1340 0.950 . S
H1330 C1342 0.950 . S
H1331 C1343 0.950 . S
C1332 H1324 0.950 . S
C1332 C1333 1.386 . S
C1332 C1334 1.391 . S
C1333 C1332 1.386 . S
C1333 C1337 1.393 . S
C1334 H1326 0.950 . S
C1334 C1332 1.391 . S
C1334 C1335 1.400 . S
C1335 C1334 1.400 . S
C1335 C1336 1.398 . S
C1335 C1341 1.491 . S
C1336 H1327 0.950 . S
C1336 C1335 1.398 . S
C1336 C1337 1.391 . S
C1337 H1325 0.950 . S
C1337 C1333 1.393 . S
C1337 C1336 1.391 . S
C1338 H1328 0.950 . S
C1338 C1339 1.386 . S
C1338 C1340 1.391 . S
C1339 C1338 1.386 . S
C1339 C1343 1.393 . S
C1340 H1329 0.950 . S
C1340 C1338 1.391 . S
C1340 C1341 1.400 . S
C1341 C1335 1.491 . S
C1341 C1340 1.400 . S
C1341 C1342 1.398 . S
C1342 H1330 0.950 . S
C1342 C1341 1.398 . S
C1342 C1343 1.391 . S
C1343 H1331 0.950 . S
C1343 C1339 1.393 . S
C1343 C1342 1.391 . S
H1344 C1352 0.950 . S
H1345 C1357 0.950 . S
H1346 C1354 0.950 . S
H1347 C1356 0.950 . S
H1348 C1358 0.950 . S
H1349 C1360 0.950 . S
H1350 C1362 0.950 . S
H1351 C1363 0.950 . S
C1352 H1344 0.950 . S
C1352 C1353 1.386 . S
C1352 C1354 1.391 . S
C1353 C1352 1.386 . S
C1353 C1357 1.393 . S
C1354 H1346 0.950 . S
C1354 C1352 1.391 . S
C1354 C1355 1.400 . S
C1355 C1354 1.400 . S
C1355 C1356 1.398 . S
C1355 C1361 1.491 . S
C1356 H1347 0.950 . S
C1356 C1355 1.398 . S
C1356 C1357 1.391 . S
C1357 H1345 0.950 . S
C1357 C1353 1.393 . S
C1357 C1356 1.391 . S
C1358 H1348 0.950 . S
C1358 C1359 1.386 . S
C1358 C1360 1.391 . S
C1359 C1358 1.386 . S
C1359 C1363 1.393 . S
C1360 H1349 0.950 . S
C1360 C1358 1.391 . S
C1360 C1361 1.400 . S
C1361 C1355 1.491 . S
C1361 C1360 1.400 . S
C1361 C1362 1.398 . S
C1362 H1350 0.950 . S
C1362 C1361 1.398 . S
C1362 C1363 1.391 . S
C1363 H1351 0.950 . S
C1363 C1359 1.393 . S
C1363 C1362 1.391 . S
H1364 C1372 0.950 . S
H1365 C1377 0.950 . S
H1366 C1374 0.950 . S
H1367 C1376 0.950 . S
H1368 C1378 0.950 . S
H1369 C1380 0.950 . S
H1370 C1382 0.950 . S
H1371 C1383 0.950 . S
C1372 H1364 0.950 . S
C1372 C1373 1.386 . S
C1372 C1374 1.391 . S
C1373 C1372 1.386 . S
C1373 C1377 1.393 . S
C1374 H1366 0.950 . S
C1374 C1372 1.391 . S
C1374 C1375 1.400 . S
C1375 C1374 1.400 . S
C1375 C1376 1.398 . S
C1375 C1381 1.491 . S
C1376 H1367 0.950 . S
C1376 C1375 1.398 . S
C1376 C1377 1.391 . S
C1377 H1365 0.950 . S
C1377 C1373 1.393 . S
C1377 C1376 1.391 . S
C1378 H1368 0.950 . S
C1378 C1379 1.386 . S
C1378 C1380 1.391 . S
C1379 C1378 1.386 . S
C1379 C1383 1.393 . S
C1380 H1369 0.950 . S
C1380 C1378 1.391 . S
C1380 C1381 1.400 . S
C1381 C1375 1.491 . S
C1381 C1380 1.400 . S
C1381 C1382 1.398 . S
C1382 H1370 0.950 . S
C1382 C1381 1.398 . S
C1382 C1383 1.391 . S
C1383 H1371 0.950 . S
C1383 C1379 1.393 . S
C1383 C1382 1.391 . S
H1384 C1392 0.950 . S
H1385 C1397 0.950 . S
H1386 C1394 0.950 . S
H1387 C1396 0.950 . S
H1388 C1398 0.950 . S
H1389 C1400 0.953 . S
H1390 C1402 0.950 . S
H1391 C1403 0.950 . S
C1392 H1384 0.950 . S
C1392 C1393 1.386 . S
C1392 C1394 1.391 1_554 S
C1393 C1392 1.386 . S
C1393 C1397 1.393 . S
C1394 H1386 0.950 . S
C1394 C1392 1.391 1_556 S
C1394 C1395 1.403 . S
C1395 C1394 1.403 . S
C1395 C1396 1.387 1_556 S
C1395 C1401 1.500 . S
C1396 H1387 0.950 . S
C1396 C1395 1.387 1_554 S
C1396 C1397 1.391 . S
C1397 H1385 0.950 . S
C1397 C1393 1.393 . S
C1397 C1396 1.391 . S
C1398 H1388 0.950 . S
C1398 C1399 1.386 . S
C1398 C1400 1.391 . S
C1399 C1398 1.386 . S
C1399 C1403 1.393 . S
C1400 H1389 0.953 . S
C1400 C1398 1.391 . S
C1400 C1401 1.400 . S
C1401 C1395 1.500 . S
C1401 C1400 1.400 . S
C1401 C1402 1.398 . S
C1402 H1390 0.950 . S
C1402 C1401 1.398 . S
C1402 C1403 1.391 . S
C1403 H1391 0.950 . S
C1403 C1399 1.393 . S
C1403 C1402 1.391 . S
H1404 C1412 0.950 . S
H1405 C1417 0.950 . S
H1406 C1414 0.950 . S
H1407 C1416 0.950 . S
H1408 C1418 0.950 . S
H1409 C1420 0.950 . S
H1410 C1422 0.950 . S
H1411 C1423 0.950 . S
C1412 H1404 0.950 . S
C1412 C1413 1.386 . S
C1412 C1414 1.391 . S
C1413 C1412 1.386 . S
C1413 C1417 1.393 . S
C1414 H1406 0.950 . S
C1414 C1412 1.391 . S
C1414 C1415 1.400 . S
C1415 C1414 1.400 . S
C1415 C1416 1.398 . S
C1415 C1421 1.491 . S
C1416 H1407 0.950 . S
C1416 C1415 1.398 . S
C1416 C1417 1.391 . S
C1417 H1405 0.950 . S
C1417 C1413 1.393 . S
C1417 C1416 1.391 . S
C1418 H1408 0.950 . S
C1418 C1419 1.386 . S
C1418 C1420 1.391 . S
C1419 C1418 1.386 . S
C1419 C1423 1.393 . S
C1420 H1409 0.950 . S
C1420 C1418 1.391 . S
C1420 C1421 1.400 . S
C1421 C1415 1.491 . S
C1421 C1420 1.400 . S
C1421 C1422 1.398 . S
C1422 H1410 0.950 . S
C1422 C1421 1.398 . S
C1422 C1423 1.391 . S
C1423 H1411 0.950 . S
C1423 C1419 1.393 . S
C1423 C1422 1.391 . S
H1424 C1432 0.950 . S
H1425 C1437 0.950 . S
H1426 C1434 0.950 . S
H1427 C1436 0.950 . S
H1428 C1438 0.950 . S
H1429 C1440 0.950 . S
H1430 C1442 0.950 . S
H1431 C1443 0.950 . S
C1432 H1424 0.950 . S
C1432 C1433 1.386 . S
C1432 C1434 1.391 . S
C1433 C1432 1.386 . S
C1433 C1437 1.393 . S
C1434 H1426 0.950 . S
C1434 C1432 1.391 . S
C1434 C1435 1.400 . S
C1435 C1434 1.400 . S
C1435 C1436 1.398 . S
C1435 C1441 1.491 . S
C1436 H1427 0.950 . S
C1436 C1435 1.398 . S
C1436 C1437 1.391 . S
C1437 H1425 0.950 . S
C1437 C1433 1.393 . S
C1437 C1436 1.391 . S
C1438 H1428 0.950 . S
C1438 C1439 1.386 . S
C1438 C1440 1.391 . S
C1439 C1438 1.386 . S
C1439 C1443 1.393 . S
C1440 H1429 0.950 . S
C1440 C1438 1.391 . S
C1440 C1441 1.400 . S
C1441 C1435 1.491 . S
C1441 C1440 1.400 . S
C1441 C1442 1.398 . S
C1442 H1430 0.950 . S
C1442 C1441 1.398 . S
C1442 C1443 1.391 . S
C1443 H1431 0.950 . S
C1443 C1439 1.393 . S
C1443 C1442 1.391 . S
H1444 C1452 0.950 . S
H1445 C1457 0.950 . S
H1446 C1454 0.950 . S
H1447 C1456 0.950 1_455 S
H1448 C1458 0.950 . S
H1449 C1460 0.950 . S
H1450 C1462 0.950 . S
H1451 C1463 0.950 . S
C1452 H1444 0.950 . S
C1452 C1453 1.386 . S
C1452 C1454 1.391 . S
C1453 C1452 1.386 . S
C1453 C1457 1.393 . S
C1454 H1446 0.950 . S
C1454 C1452 1.391 . S
C1454 C1455 1.400 . S
C1455 C1454 1.400 . S
C1455 C1456 1.398 . S
C1455 C1461 1.491 . S
C1456 H1447 0.950 1_655 S
C1456 C1455 1.398 . S
C1456 C1457 1.391 . S
C1457 H1445 0.950 . S
C1457 C1453 1.393 . S
C1457 C1456 1.391 . S
C1458 H1448 0.950 . S
C1458 C1459 1.386 . S
C1458 C1460 1.391 . S
C1459 C1458 1.386 . S
C1459 C1463 1.393 1_455 S
C1460 H1449 0.950 . S
C1460 C1458 1.391 . S
C1460 C1461 1.400 1_455 S
C1461 C1455 1.491 . S
C1461 C1460 1.400 1_655 S
C1461 C1462 1.398 . S
C1462 H1450 0.950 . S
C1462 C1461 1.398 . S
C1462 C1463 1.391 . S
C1463 H1451 0.950 . S
C1463 C1459 1.393 1_655 S
C1463 C1462 1.391 . S
H1464 C1472 0.950 . S
H1465 C1477 0.950 . S
H1466 C1474 0.950 . S
H1467 C1476 0.950 . S
H1468 C1478 0.950 . S
H1469 C1480 0.950 . S
H1470 C1482 0.950 . S
H1471 C1483 0.950 . S
C1472 H1464 0.950 . S
C1472 C1473 1.386 . S
C1472 C1474 1.391 . S
C1473 C1472 1.386 . S
C1473 C1477 1.393 . S
C1474 H1466 0.950 . S
C1474 C1472 1.391 . S
C1474 C1475 1.400 . S
C1475 C1474 1.400 . S
C1475 C1476 1.398 . S
C1475 C1481 1.491 . S
C1476 H1467 0.950 . S
C1476 C1475 1.398 . S
C1476 C1477 1.391 . S
C1477 H1465 0.950 . S
C1477 C1473 1.393 . S
C1477 C1476 1.391 . S
C1478 H1468 0.950 . S
C1478 C1479 1.386 . S
C1478 C1480 1.391 . S
C1479 C1478 1.386 . S
C1479 C1483 1.393 . S
C1480 H1469 0.950 . S
C1480 C1478 1.391 . S
C1480 C1481 1.400 . S
C1481 C1475 1.491 . S
C1481 C1480 1.400 . S
C1481 C1482 1.398 . S
C1482 H1470 0.950 . S
C1482 C1481 1.398 . S
C1482 C1483 1.391 . S
C1483 H1471 0.950 . S
C1483 C1479 1.393 . S
C1483 C1482 1.391 . S
H1484 C1492 0.950 . S
H1485 C1497 0.950 . S
H1486 C1494 0.950 . S
H1487 C1496 0.950 . S
H1488 C1498 0.950 . S
H1489 C1500 0.950 . S
H1490 C1502 0.950 . S
H1491 C1503 0.950 . S
C1492 H1484 0.950 . S
C1492 C1493 1.386 . S
C1492 C1494 1.391 . S
C1493 C1492 1.386 . S
C1493 C1497 1.393 . S
C1494 H1486 0.950 . S
C1494 C1492 1.391 . S
C1494 C1495 1.400 . S
C1495 C1494 1.400 . S
C1495 C1496 1.398 . S
C1495 C1501 1.491 . S
C1496 H1487 0.950 . S
C1496 C1495 1.398 . S
C1496 C1497 1.391 . S
C1497 H1485 0.950 . S
C1497 C1493 1.393 . S
C1497 C1496 1.391 . S
C1498 H1488 0.950 . S
C1498 C1499 1.386 . S
C1498 C1500 1.391 . S
C1499 C1498 1.386 . S
C1499 C1503 1.393 . S
C1500 H1489 0.950 . S
C1500 C1498 1.391 . S
C1500 C1501 1.400 . S
C1501 C1495 1.491 . S
C1501 C1500 1.400 . S
C1501 C1502 1.398 . S
C1502 H1490 0.950 . S
C1502 C1501 1.398 . S
C1502 C1503 1.391 . S
C1503 H1491 0.950 . S
C1503 C1499 1.393 . S
C1503 C1502 1.391 . S
H1504 C1512 0.950 . S
H1505 C1517 0.950 . S
H1506 C1514 0.950 . S
H1507 C1516 0.950 . S
H1508 C1518 0.950 . S
H1509 C1520 0.950 . S
H1510 C1522 0.950 . S
H1511 C1523 0.950 . S
C1512 H1504 0.950 . S
C1512 C1513 1.386 . S
C1512 C1514 1.391 . S
C1513 C1512 1.386 . S
C1513 C1517 1.393 . S
C1514 H1506 0.950 . S
C1514 C1512 1.391 . S
C1514 C1515 1.400 . S
C1515 C1514 1.400 . S
C1515 C1516 1.398 . S
C1515 C1521 1.491 . S
C1516 H1507 0.950 . S
C1516 C1515 1.398 . S
C1516 C1517 1.391 . S
C1517 H1505 0.950 . S
C1517 C1513 1.393 . S
C1517 C1516 1.391 . S
C1518 H1508 0.950 . S
C1518 C1519 1.386 . S
C1518 C1520 1.391 . S
C1519 C1518 1.386 . S
C1519 C1523 1.393 . S
C1520 H1509 0.950 . S
C1520 C1518 1.391 . S
C1520 C1521 1.400 . S
C1521 C1515 1.491 . S
C1521 C1520 1.400 . S
C1521 C1522 1.398 . S
C1522 H1510 0.950 . S
C1522 C1521 1.398 . S
C1522 C1523 1.391 . S
C1523 H1511 0.950 . S
C1523 C1519 1.393 . S
C1523 C1522 1.391 . S
H1524 C1532 0.950 . S
H1525 C1537 0.950 . S
H1526 C1534 0.950 . S
H1527 C1536 0.950 . S
H1528 C1538 0.950 . S
H1529 C1540 0.950 . S
H1530 C1542 0.950 . S
H1531 C1543 0.950 . S
C1532 H1524 0.950 . S
C1532 C1533 1.386 . S
C1532 C1534 1.391 . S
C1533 C1532 1.386 . S
C1533 C1537 1.393 . S
C1534 H1526 0.950 . S
C1534 C1532 1.391 . S
C1534 C1535 1.400 . S
C1535 C1534 1.400 . S
C1535 C1536 1.398 . S
C1535 C1541 1.491 . S
C1536 H1527 0.950 . S
C1536 C1535 1.398 . S
C1536 C1537 1.391 . S
C1537 H1525 0.950 . S
C1537 C1533 1.393 . S
C1537 C1536 1.391 . S
C1538 H1528 0.950 . S
C1538 C1539 1.386 . S
C1538 C1540 1.391 . S
C1539 C1538 1.386 . S
C1539 C1543 1.393 . S
C1540 H1529 0.950 . S
C1540 C1538 1.391 . S
C1540 C1541 1.400 . S
C1541 C1535 1.491 . S
C1541 C1540 1.400 . S
C1541 C1542 1.398 . S
C1542 H1530 0.950 . S
C1542 C1541 1.398 . S
C1542 C1543 1.391 . S
C1543 H1531 0.950 . S
C1543 C1539 1.393 . S
C1543 C1542 1.391 . S
H1544 C1552 0.948 1_455 S
H1545 C1557 0.950 . S
H1546 C1554 0.950 . S
H1547 C1556 0.950 . S
H1548 C1558 0.950 . S
H1549 C1560 0.950 . S
H1550 C1562 0.950 . S
H1551 C1563 0.950 . S
C1552 H1544 0.948 1_655 S
C1552 C1553 1.386 . S
C1552 C1554 1.391 . S
C1553 C1552 1.386 . S
C1553 C1557 1.393 . S
C1554 H1546 0.950 . S
C1554 C1552 1.391 . S
C1554 C1555 1.400 . S
C1555 C1554 1.400 . S
C1555 C1556 1.398 . S
C1555 C1561 1.491 . S
C1556 H1547 0.950 . S
C1556 C1555 1.398 . S
C1556 C1557 1.391 . S
C1557 H1545 0.950 . S
C1557 C1553 1.393 . S
C1557 C1556 1.391 . S
C1558 H1548 0.950 . S
C1558 C1559 1.386 . S
C1558 C1560 1.391 . S
C1559 C1558 1.386 . S
C1559 C1563 1.393 . S
C1560 H1549 0.950 . S
C1560 C1558 1.391 . S
C1560 C1561 1.400 . S
C1561 C1555 1.491 . S
C1561 C1560 1.400 . S
C1561 C1562 1.398 . S
C1562 H1550 0.950 . S
C1562 C1561 1.398 . S
C1562 C1563 1.391 . S
C1563 H1551 0.950 . S
C1563 C1559 1.393 . S
C1563 C1562 1.391 . S
H1564 C1572 0.950 . S
H1565 C1577 0.950 . S
H1566 C1574 0.950 . S
H1567 C1576 0.950 . S
H1568 C1578 0.950 . S
H1569 C1580 0.950 . S
H1570 C1582 0.950 . S
H1571 C1583 0.950 . S
C1572 H1564 0.950 . S
C1572 C1573 1.386 . S
C1572 C1574 1.391 . S
C1573 C1572 1.386 . S
C1573 C1577 1.393 . S
C1574 H1566 0.950 . S
C1574 C1572 1.391 . S
C1574 C1575 1.400 . S
C1575 C1574 1.400 . S
C1575 C1576 1.398 . S
C1575 C1581 1.491 . S
C1576 H1567 0.950 . S
C1576 C1575 1.398 . S
C1576 C1577 1.391 . S
C1577 H1565 0.950 . S
C1577 C1573 1.393 . S
C1577 C1576 1.391 . S
C1578 H1568 0.950 . S
C1578 C1579 1.386 . S
C1578 C1580 1.391 . S
C1579 C1578 1.386 . S
C1579 C1583 1.393 . S
C1580 H1569 0.950 . S
C1580 C1578 1.391 . S
C1580 C1581 1.400 . S
C1581 C1575 1.491 . S
C1581 C1580 1.400 . S
C1581 C1582 1.398 . S
C1582 H1570 0.950 . S
C1582 C1581 1.398 . S
C1582 C1583 1.391 . S
C1583 H1571 0.950 . S
C1583 C1579 1.393 . S
C1583 C1582 1.391 . S
H1584 C1592 0.950 . S
H1585 C1597 0.950 . S
H1586 C1594 0.950 . S
H1587 C1596 0.950 . S
H1588 C1598 0.950 . S
H1589 C1600 0.950 . S
H1590 C1602 0.950 . S
H1591 C1603 0.950 . S
C1592 H1584 0.950 . S
C1592 C1593 1.386 . S
C1592 C1594 1.391 . S
C1593 C1592 1.386 . S
C1593 C1597 1.393 . S
C1594 H1586 0.950 . S
C1594 C1592 1.391 . S
C1594 C1595 1.400 . S
C1595 C1594 1.400 . S
C1595 C1596 1.398 . S
C1595 C1601 1.491 . S
C1596 H1587 0.950 . S
C1596 C1595 1.398 . S
C1596 C1597 1.391 . S
C1597 H1585 0.950 . S
C1597 C1593 1.393 . S
C1597 C1596 1.391 . S
C1598 H1588 0.950 . S
C1598 C1599 1.386 . S
C1598 C1600 1.391 . S
C1599 C1598 1.386 . S
C1599 C1603 1.393 . S
C1600 H1589 0.950 . S
C1600 C1598 1.391 . S
C1600 C1601 1.400 . S
C1601 C1595 1.491 . S
C1601 C1600 1.400 . S
C1601 C1602 1.398 . S
C1602 H1590 0.950 . S
C1602 C1601 1.398 . S
C1602 C1603 1.391 . S
C1603 H1591 0.950 . S
C1603 C1599 1.393 . S
C1603 C1602 1.391 . S
H1604 C1612 0.950 . S
H1605 C1617 0.950 . S
H1606 C1614 0.950 . S
H1607 C1616 0.950 . S
H1608 C1618 0.950 . S
H1609 C1620 0.950 . S
H1610 C1622 0.950 . S
H1611 C1623 0.950 . S
C1612 H1604 0.950 . S
C1612 C1613 1.386 . S
C1612 C1614 1.391 . S
C1613 C1612 1.386 . S
C1613 C1617 1.393 . S
C1614 H1606 0.950 . S
C1614 C1612 1.391 . S
C1614 C1615 1.400 . S
C1615 C1614 1.400 . S
C1615 C1616 1.398 . S
C1615 C1621 1.491 . S
C1616 H1607 0.950 . S
C1616 C1615 1.398 . S
C1616 C1617 1.391 . S
C1617 H1605 0.950 . S
C1617 C1613 1.393 . S
C1617 C1616 1.391 . S
C1618 H1608 0.950 . S
C1618 C1619 1.386 . S
C1618 C1620 1.391 . S
C1619 C1618 1.386 . S
C1619 C1623 1.393 . S
C1620 H1609 0.950 . S
C1620 C1618 1.391 . S
C1620 C1621 1.400 . S
C1621 C1615 1.491 . S
C1621 C1620 1.400 . S
C1621 C1622 1.398 . S
C1622 H1610 0.950 . S
C1622 C1621 1.398 . S
C1622 C1623 1.391 . S
C1623 H1611 0.950 . S
C1623 C1619 1.393 . S
C1623 C1622 1.391 . S
H1624 C1632 0.950 . S
H1625 C1637 0.950 . S
H1626 C1634 0.950 . S
H1627 C1636 0.950 . S
H1628 C1638 0.950 . S
H1629 C1640 0.950 . S
H1630 C1642 0.950 . S
H1631 C1643 0.950 . S
C1632 H1624 0.950 . S
C1632 C1633 1.386 . S
C1632 C1634 1.391 . S
C1633 C1632 1.386 . S
C1633 C1637 1.393 . S
C1634 H1626 0.950 . S
C1634 C1632 1.391 . S
C1634 C1635 1.400 . S
C1635 C1634 1.400 . S
C1635 C1636 1.398 . S
C1635 C1641 1.491 . S
C1636 H1627 0.950 . S
C1636 C1635 1.398 . S
C1636 C1637 1.391 . S
C1637 H1625 0.950 . S
C1637 C1633 1.393 . S
C1637 C1636 1.391 . S
C1638 H1628 0.950 . S
C1638 C1639 1.386 . S
C1638 C1640 1.391 . S
C1639 C1638 1.386 . S
C1639 C1643 1.393 . S
C1640 H1629 0.950 . S
C1640 C1638 1.391 . S
C1640 C1641 1.400 . S
C1641 C1635 1.491 . S
C1641 C1640 1.400 . S
C1641 C1642 1.398 . S
C1642 H1630 0.950 . S
C1642 C1641 1.398 . S
C1642 C1643 1.391 . S
C1643 H1631 0.950 . S
C1643 C1639 1.393 . S
C1643 C1642 1.391 . S
H1644 C1652 0.950 . S
H1645 C1657 0.950 . S
H1646 C1654 0.950 . S
H1647 C1656 0.950 . S
H1648 C1658 0.950 . S
H1649 C1660 0.950 . S
H1650 C1662 0.950 . S
H1651 C1663 0.975 . S
C1652 H1644 0.950 . S
C1652 C1653 1.386 . S
C1652 C1654 1.391 1_545 S
C1653 C1652 1.386 . S
C1653 C1657 1.393 . S
C1654 H1646 0.950 . S
C1654 C1652 1.391 1_565 S
C1654 C1655 1.400 . S
C1655 C1654 1.400 . S
C1655 C1656 1.398 . S
C1655 C1661 1.491 . S
C1656 H1647 0.950 . S
C1656 C1655 1.398 . S
C1656 C1657 1.391 1_565 S
C1657 H1645 0.950 . S
C1657 C1653 1.393 . S
C1657 C1656 1.391 1_545 S
C1658 H1648 0.950 . S
C1658 C1659 1.386 . S
C1658 C1660 1.391 . S
C1659 C1658 1.386 . S
C1659 C1663 1.393 . S
C1660 H1649 0.950 . S
C1660 C1658 1.391 . S
C1660 C1661 1.400 . S
C1661 C1655 1.491 . S
C1661 C1660 1.400 . S
C1661 C1662 1.398 . S
C1662 H1650 0.950 . S
C1662 C1661 1.398 . S
C1662 C1663 1.391 . S
C1663 H1651 0.975 . S
C1663 C1659 1.393 . S
C1663 C1662 1.391 . S
H1664 C1672 0.950 . S
H1665 C1677 0.950 . S
H1666 C1674 0.950 . S
H1667 C1676 0.950 . S
H1668 C1678 0.950 . S
H1669 C1680 0.950 . S
H1670 C1682 0.950 . S
H1671 C1683 0.950 . S
C1672 H1664 0.950 . S
C1672 C1673 1.386 . S
C1672 C1674 1.391 . S
C1673 C1672 1.386 . S
C1673 C1677 1.393 . S
C1674 H1666 0.950 . S
C1674 C1672 1.391 . S
C1674 C1675 1.400 . S
C1675 C1674 1.400 . S
C1675 C1676 1.398 . S
C1675 C1681 1.491 . S
C1676 H1667 0.950 . S
C1676 C1675 1.398 . S
C1676 C1677 1.391 . S
C1677 H1665 0.950 . S
C1677 C1673 1.393 . S
C1677 C1676 1.391 . S
C1678 H1668 0.950 . S
C1678 C1679 1.386 . S
C1678 C1680 1.391 . S
C1679 C1678 1.386 . S
C1679 C1683 1.393 . S
C1680 H1669 0.950 . S
C1680 C1678 1.391 . S
C1680 C1681 1.400 . S
C1681 C1675 1.491 . S
C1681 C1680 1.400 . S
C1681 C1682 1.398 . S
C1682 H1670 0.950 . S
C1682 C1681 1.398 . S
C1682 C1683 1.391 . S
C1683 H1671 0.950 . S
C1683 C1679 1.393 . S
C1683 C1682 1.391 . S
H1684 C1692 0.950 . S
H1685 C1697 0.950 . S
H1686 C1694 0.950 . S
H1687 C1696 0.950 . S
H1688 C1698 0.950 . S
H1689 C1700 0.950 . S
H1690 C1702 0.950 . S
H1691 C1703 0.950 . S
C1692 H1684 0.950 . S
C1692 C1693 1.386 . S
C1692 C1694 1.391 . S
C1693 C1692 1.386 . S
C1693 C1697 1.393 . S
C1694 H1686 0.950 . S
C1694 C1692 1.391 . S
C1694 C1695 1.400 . S
C1695 C1694 1.400 . S
C1695 C1696 1.398 . S
C1695 C1701 1.491 . S
C1696 H1687 0.950 . S
C1696 C1695 1.398 . S
C1696 C1697 1.391 . S
C1697 H1685 0.950 . S
C1697 C1693 1.393 . S
C1697 C1696 1.391 . S
C1698 H1688 0.950 . S
C1698 C1699 1.386 . S
C1698 C1700 1.391 . S
C1699 C1698 1.386 . S
C1699 C1703 1.393 . S
C1700 H1689 0.950 . S
C1700 C1698 1.391 . S
C1700 C1701 1.400 . S
C1701 C1695 1.491 . S
C1701 C1700 1.400 . S
C1701 C1702 1.398 . S
C1702 H1690 0.950 . S
C1702 C1701 1.398 . S
C1702 C1703 1.391 . S
C1703 H1691 0.950 . S
C1703 C1699 1.393 . S
C1703 C1702 1.391 . S
H1704 C1712 0.950 . S
H1705 C1717 0.950 . S
H1706 C1714 0.950 . S
H1707 C1716 0.950 . S
H1708 C1718 0.950 . S
H1709 C1720 0.950 . S
H1710 C1722 0.950 . S
H1711 C1723 0.950 . S
C1712 H1704 0.950 . S
C1712 C1713 1.386 . S
C1712 C1714 1.391 . S
C1713 C1712 1.386 . S
C1713 C1717 1.393 . S
C1714 H1706 0.950 . S
C1714 C1712 1.391 . S
C1714 C1715 1.400 . S
C1715 C1714 1.400 . S
C1715 C1716 1.398 . S
C1715 C1721 1.491 . S
C1716 H1707 0.950 . S
C1716 C1715 1.398 . S
C1716 C1717 1.391 . S
C1717 H1705 0.950 . S
C1717 C1713 1.393 . S
C1717 C1716 1.391 . S
C1718 H1708 0.950 . S
C1718 C1719 1.386 . S
C1718 C1720 1.391 . S
C1719 C1718 1.386 . S
C1719 C1723 1.393 . S
C1720 H1709 0.950 . S
C1720 C1718 1.391 . S
C1720 C1721 1.400 . S
C1721 C1715 1.491 . S
C1721 C1720 1.400 . S
C1721 C1722 1.398 . S
C1722 H1710 0.950 . S
C1722 C1721 1.398 . S
C1722 C1723 1.391 . S
C1723 H1711 0.950 . S
C1723 C1719 1.393 . S
C1723 C1722 1.391 . S
H1724 C1732 0.950 . S
H1725 C1737 0.950 . S
H1726 C1734 0.950 . S
H1727 C1736 0.950 . S
H1728 C1738 0.950 . S
H1729 C1740 0.950 . S
H1730 C1742 0.950 . S
H1731 C1743 0.950 . S
C1732 H1724 0.950 . S
C1732 C1733 1.386 . S
C1732 C1734 1.391 . S
C1733 C1732 1.386 . S
C1733 C1737 1.393 . S
C1734 H1726 0.950 . S
C1734 C1732 1.391 . S
C1734 C1735 1.400 . S
C1735 C1734 1.400 . S
C1735 C1736 1.398 . S
C1735 C1741 1.491 . S
C1736 H1727 0.950 . S
C1736 C1735 1.398 . S
C1736 C1737 1.391 . S
C1737 H1725 0.950 . S
C1737 C1733 1.393 . S
C1737 C1736 1.391 . S
C1738 H1728 0.950 . S
C1738 C1739 1.386 . S
C1738 C1740 1.391 1_565 S
C1739 C1738 1.386 . S
C1739 C1743 1.393 . S
C1740 H1729 0.950 . S
C1740 C1738 1.391 1_545 S
C1740 C1741 1.400 . S
C1741 C1735 1.491 . S
C1741 C1740 1.400 . S
C1741 C1742 1.398 . S
C1742 H1730 0.950 . S
C1742 C1741 1.398 . S
C1742 C1743 1.391 1_545 S
C1743 H1731 0.950 . S
C1743 C1739 1.393 . S
C1743 C1742 1.391 1_565 S
H1744 C1752 0.950 . S
H1745 C1757 0.950 . S
H1746 C1754 0.950 . S
H1747 C1756 0.950 . S
H1748 C1758 0.950 . S
H1749 C1760 0.950 . S
H1750 C1762 0.950 . S
H1751 C1763 0.950 . S
C1752 H1744 0.950 . S
C1752 C1753 1.386 . S
C1752 C1754 1.391 . S
C1753 C1752 1.386 . S
C1753 C1757 1.393 . S
C1754 H1746 0.950 . S
C1754 C1752 1.391 . S
C1754 C1755 1.400 . S
C1755 C1754 1.400 . S
C1755 C1756 1.398 . S
C1755 C1761 1.491 . S
C1756 H1747 0.950 . S
C1756 C1755 1.398 . S
C1756 C1757 1.391 . S
C1757 H1745 0.950 . S
C1757 C1753 1.393 . S
C1757 C1756 1.391 . S
C1758 H1748 0.950 . S
C1758 C1759 1.386 . S
C1758 C1760 1.391 . S
C1759 C1758 1.386 . S
C1759 C1763 1.393 . S
C1760 H1749 0.950 . S
C1760 C1758 1.391 . S
C1760 C1761 1.400 . S
C1761 C1755 1.491 . S
C1761 C1760 1.400 . S
C1761 C1762 1.398 . S
C1762 H1750 0.950 . S
C1762 C1761 1.398 . S
C1762 C1763 1.391 . S
C1763 H1751 0.950 . S
C1763 C1759 1.393 . S
C1763 C1762 1.391 . S
H1764 C1772 0.950 . S
H1765 C1777 0.950 . S
H1766 C1774 0.950 . S
H1767 C1776 0.950 . S
H1768 C1778 0.950 . S
H1769 C1780 0.950 . S
H1770 C1782 0.950 . S
H1771 C1783 0.950 . S
C1772 H1764 0.950 . S
C1772 C1773 1.386 . S
C1772 C1774 1.391 1_455 S
C1773 C1772 1.386 . S
C1773 C1777 1.393 . S
C1774 H1766 0.950 . S
C1774 C1772 1.391 1_655 S
C1774 C1775 1.400 . S
C1775 C1774 1.400 . S
C1775 C1776 1.398 . S
C1775 C1781 1.491 . S
C1776 H1767 0.950 . S
C1776 C1775 1.398 . S
C1776 C1777 1.391 1_655 S
C1777 H1765 0.950 . S
C1777 C1773 1.393 . S
C1777 C1776 1.391 1_455 S
C1778 H1768 0.950 . S
C1778 C1779 1.386 . S
C1778 C1780 1.391 . S
C1779 C1778 1.386 . S
C1779 C1783 1.393 . S
C1780 H1769 0.950 . S
C1780 C1778 1.391 . S
C1780 C1781 1.400 . S
C1781 C1775 1.491 . S
C1781 C1780 1.400 . S
C1781 C1782 1.398 . S
C1782 H1770 0.950 . S
C1782 C1781 1.398 . S
C1782 C1783 1.391 . S
C1783 H1771 0.950 . S
C1783 C1779 1.393 . S
C1783 C1782 1.391 . S
H1784 C1792 0.950 . S
H1785 C1797 0.950 . S
H1786 C1794 0.950 . S
H1787 C1796 0.950 . S
H1788 C1798 0.950 . S
H1789 C1800 0.950 . S
H1790 C1802 0.950 . S
H1791 C1803 0.950 1_556 S
C1792 H1784 0.950 . S
C1792 C1793 1.386 . S
C1792 C1794 1.391 . S
C1793 C1792 1.386 . S
C1793 C1797 1.393 . S
C1794 H1786 0.950 . S
C1794 C1792 1.391 . S
C1794 C1795 1.400 . S
C1795 C1794 1.400 . S
C1795 C1796 1.398 . S
C1795 C1801 1.491 . S
C1796 H1787 0.950 . S
C1796 C1795 1.398 . S
C1796 C1797 1.391 . S
C1797 H1785 0.950 . S
C1797 C1793 1.393 . S
C1797 C1796 1.391 . S
C1798 H1788 0.950 . S
C1798 C1799 1.386 . S
C1798 C1800 1.391 . S
C1799 C1798 1.386 . S
C1799 C1803 1.393 . S
C1800 H1789 0.950 . S
C1800 C1798 1.391 . S
C1800 C1801 1.400 . S
C1801 C1795 1.491 . S
C1801 C1800 1.400 . S
C1801 C1802 1.398 . S
C1802 H1790 0.950 . S
C1802 C1801 1.398 . S
C1802 C1803 1.391 . S
C1803 H1791 0.950 1_554 S
C1803 C1799 1.393 . S
C1803 C1802 1.391 . S
H1804 C1812 0.954 . S
H1805 C1817 0.950 . S
H1806 C1814 0.950 1_565 S
H1807 C1816 0.950 . S
H1808 C1818 0.950 . S
H1809 C1820 0.950 . S
H1810 C1822 0.950 . S
H1811 C1823 0.950 1_455 S
C1812 H1804 0.954 . S
C1812 C1813 1.383 1_565 S
C1812 C1814 1.389 1_565 S
C1813 C1812 1.383 1_545 S
C1813 C1817 1.393 . S
C1814 H1806 0.950 1_545 S
C1814 C1812 1.389 1_545 S
C1814 C1815 1.400 . S
C1815 C1814 1.400 . S
C1815 C1816 1.398 . S
C1815 C1821 1.491 . S
C1816 H1807 0.950 . S
C1816 C1815 1.398 . S
C1816 C1817 1.391 . S
C1817 H1805 0.950 . S
C1817 C1813 1.393 . S
C1817 C1816 1.391 . S
C1818 H1808 0.950 . S
C1818 C1819 1.390 1_655 S
C1818 C1820 1.391 . S
C1819 C1818 1.390 1_455 S
C1819 C1823 1.393 1_455 S
C1820 H1809 0.950 . S
C1820 C1818 1.391 . S
C1820 C1821 1.400 . S
C1821 C1815 1.491 . S
C1821 C1820 1.400 . S
C1821 C1822 1.398 . S
C1822 H1810 0.950 . S
C1822 C1821 1.398 . S
C1822 C1823 1.391 . S
C1823 H1811 0.950 1_655 S
C1823 C1819 1.393 1_655 S
C1823 C1822 1.391 . S
H1824 C1832 0.950 . S
H1825 C1837 0.950 . S
H1826 C1834 0.950 . S
H1827 C1836 0.950 . S
H1828 C1838 0.950 . S
H1829 C1840 0.950 . S
H1830 C1842 0.950 . S
H1831 C1843 0.950 . S
C1832 H1824 0.950 . S
C1832 C1833 1.386 . S
C1832 C1834 1.391 . S
C1833 C1832 1.386 . S
C1833 C1837 1.393 . S
C1834 H1826 0.950 . S
C1834 C1832 1.391 . S
C1834 C1835 1.400 . S
C1835 C1834 1.400 . S
C1835 C1836 1.398 . S
C1835 C1841 1.491 . S
C1836 H1827 0.950 . S
C1836 C1835 1.398 . S
C1836 C1837 1.391 . S
C1837 H1825 0.950 . S
C1837 C1833 1.393 . S
C1837 C1836 1.391 . S
C1838 H1828 0.950 . S
C1838 C1839 1.386 . S
C1838 C1840 1.391 . S
C1839 C1838 1.386 . S
C1839 C1843 1.393 . S
C1840 H1829 0.950 . S
C1840 C1838 1.391 . S
C1840 C1841 1.400 . S
C1841 C1835 1.491 . S
C1841 C1840 1.400 . S
C1841 C1842 1.398 . S
C1842 H1830 0.950 . S
C1842 C1841 1.398 . S
C1842 C1843 1.391 . S
C1843 H1831 0.950 . S
C1843 C1839 1.393 . S
C1843 C1842 1.391 . S
H1844 C1852 0.950 . S
H1845 C1857 0.950 . S
H1846 C1854 0.950 . S
H1847 C1856 0.950 . S
H1848 C1858 0.950 . S
H1849 C1860 0.950 . S
H1850 C1862 0.950 . S
H1851 C1863 0.950 . S
C1852 H1844 0.950 . S
C1852 C1853 1.386 . S
C1852 C1854 1.391 . S
C1853 C1852 1.386 . S
C1853 C1857 1.393 . S
C1854 H1846 0.950 . S
C1854 C1852 1.391 . S
C1854 C1855 1.400 . S
C1855 C1854 1.400 . S
C1855 C1856 1.398 . S
C1855 C1861 1.491 . S
C1856 H1847 0.950 . S
C1856 C1855 1.398 . S
C1856 C1857 1.391 . S
C1857 H1845 0.950 . S
C1857 C1853 1.393 . S
C1857 C1856 1.391 . S
C1858 H1848 0.950 . S
C1858 C1859 1.386 . S
C1858 C1860 1.391 . S
C1859 C1858 1.386 . S
C1859 C1863 1.393 . S
C1860 H1849 0.950 . S
C1860 C1858 1.391 . S
C1860 C1861 1.400 . S
C1861 C1855 1.491 . S
C1861 C1860 1.400 . S
C1861 C1862 1.398 . S
C1862 H1850 0.950 . S
C1862 C1861 1.398 . S
C1862 C1863 1.391 . S
C1863 H1851 0.950 . S
C1863 C1859 1.393 . S
C1863 C1862 1.391 . S
H1864 C1872 0.950 . S
H1865 C1877 0.950 . S
H1866 C1874 0.950 . S
H1867 C1876 0.950 . S
H1868 C1878 0.951 . S
H1869 C1880 0.950 . S
H1870 C1882 0.950 . S
H1871 C1883 0.950 . S
C1872 H1864 0.950 . S
C1872 C1873 1.386 1_554 S
C1872 C1874 1.391 . S
C1873 C1872 1.386 1_556 S
C1873 C1877 1.393 . S
C1874 H1866 0.950 . S
C1874 C1872 1.391 . S
C1874 C1875 1.400 1_554 S
C1875 C1874 1.400 1_556 S
C1875 C1876 1.398 . S
C1875 C1881 1.491 1_556 S
C1876 H1867 0.950 . S
C1876 C1875 1.398 . S
C1876 C1877 1.391 . S
C1877 H1865 0.950 . S
C1877 C1873 1.393 . S
C1877 C1876 1.391 . S
C1878 H1868 0.951 . S
C1878 C1879 1.383 1_556 S
C1878 C1880 1.392 . S
C1879 C1878 1.383 1_554 S
C1879 C1883 1.393 . S
C1880 H1869 0.950 . S
C1880 C1878 1.392 . S
C1880 C1881 1.400 1_556 S
C1881 C1875 1.491 1_554 S
C1881 C1880 1.400 1_554 S
C1881 C1882 1.398 . S
C1882 H1870 0.950 . S
C1882 C1881 1.398 . S
C1882 C1883 1.391 . S
C1883 H1871 0.950 . S
C1883 C1879 1.393 . S
C1883 C1882 1.391 . S
H1884 C1892 0.950 . S
H1885 C1897 0.950 . S
H1886 C1894 0.950 . S
H1887 C1896 0.950 . S
H1888 C1898 0.950 . S
H1889 C1900 0.950 . S
H1890 C1902 0.950 . S
H1891 C1903 0.950 . S
C1892 H1884 0.950 . S
C1892 C1893 1.386 . S
C1892 C1894 1.391 . S
C1893 C1892 1.386 . S
C1893 C1897 1.393 . S
C1894 H1886 0.950 . S
C1894 C1892 1.391 . S
C1894 C1895 1.400 . S
C1895 C1894 1.400 . S
C1895 C1896 1.398 . S
C1895 C1901 1.491 . S
C1896 H1887 0.950 . S
C1896 C1895 1.398 . S
C1896 C1897 1.391 . S
C1897 H1885 0.950 . S
C1897 C1893 1.393 . S
C1897 C1896 1.391 . S
C1898 H1888 0.950 . S
C1898 C1899 1.386 . S
C1898 C1900 1.391 . S
C1899 C1898 1.386 . S
C1899 C1903 1.393 . S
C1900 H1889 0.950 . S
C1900 C1898 1.391 . S
C1900 C1901 1.400 . S
C1901 C1895 1.491 . S
C1901 C1900 1.400 . S
C1901 C1902 1.398 . S
C1902 H1890 0.950 . S
C1902 C1901 1.398 . S
C1902 C1903 1.391 . S
C1903 H1891 0.950 . S
C1903 C1899 1.393 . S
C1903 C1902 1.391 . S
H1904 C1912 0.950 . S
H1905 C1917 0.950 . S
H1906 C1914 0.950 . S
H1907 C1916 0.950 . S
H1908 C1918 0.950 . S
H1909 C1920 0.950 . S
H1910 C1922 0.950 . S
H1911 C1923 0.950 . S
C1912 H1904 0.950 . S
C1912 C1913 1.386 . S
C1912 C1914 1.391 . S
C1913 C1912 1.386 . S
C1913 C1917 1.393 . S
C1914 H1906 0.950 . S
C1914 C1912 1.391 . S
C1914 C1915 1.400 . S
C1915 C1914 1.400 . S
C1915 C1916 1.398 . S
C1915 C1921 1.491 . S
C1916 H1907 0.950 . S
C1916 C1915 1.398 . S
C1916 C1917 1.391 . S
C1917 H1905 0.950 . S
C1917 C1913 1.393 . S
C1917 C1916 1.391 . S
C1918 H1908 0.950 . S
C1918 C1919 1.386 . S
C1918 C1920 1.391 . S
C1919 C1918 1.386 . S
C1919 C1923 1.393 . S
C1920 H1909 0.950 . S
C1920 C1918 1.391 . S
C1920 C1921 1.400 . S
C1921 C1915 1.491 . S
C1921 C1920 1.400 . S
C1921 C1922 1.398 . S
C1922 H1910 0.950 . S
C1922 C1921 1.398 . S
C1922 C1923 1.391 . S
C1923 H1911 0.950 . S
C1923 C1919 1.393 . S
C1923 C1922 1.391 . S
H1924 C1932 0.950 . S
H1925 C1937 0.950 . S
H1926 C1934 0.952 1_655 S
H1927 C1936 0.950 . S
H1928 C1938 0.950 . S
H1929 C1940 0.950 . S
H1930 C1942 0.950 . S
H1931 C1943 0.950 . S
C1932 H1924 0.950 . S
C1932 C1933 1.386 1_655 S
C1932 C1934 1.391 1_655 S
C1933 C1932 1.386 1_455 S
C1933 C1937 1.393 . S
C1934 H1926 0.952 1_455 S
C1934 C1932 1.391 1_455 S
C1934 C1935 1.400 . S
C1935 C1934 1.400 . S
C1935 C1936 1.398 . S
C1935 C1941 1.491 . S
C1936 H1927 0.950 . S
C1936 C1935 1.398 . S
C1936 C1937 1.391 . S
C1937 H1925 0.950 . S
C1937 C1933 1.393 . S
C1937 C1936 1.391 . S
C1938 H1928 0.950 . S
C1938 C1939 1.386 . S
C1938 C1940 1.391 . S
C1939 C1938 1.386 . S
C1939 C1943 1.393 . S
C1940 H1929 0.950 . S
C1940 C1938 1.391 . S
C1940 C1941 1.400 . S
C1941 C1935 1.491 . S
C1941 C1940 1.400 . S
C1941 C1942 1.398 . S
C1942 H1930 0.950 . S
C1942 C1941 1.398 . S
C1942 C1943 1.391 . S
C1943 H1931 0.950 . S
C1943 C1939 1.393 . S
C1943 C1942 1.391 . S
H1944 C1952 0.950 . S
H1945 C1957 0.950 . S
H1946 C1954 0.950 . S
H1947 C1956 0.950 . S
H1948 C1958 0.950 . S
H1949 C1960 0.950 . S
H1950 C1962 0.950 . S
H1951 C1963 0.950 . S
C1952 H1944 0.950 . S
C1952 C1953 1.386 . S
C1952 C1954 1.391 . S
C1953 C1952 1.386 . S
C1953 C1957 1.393 . S
C1954 H1946 0.950 . S
C1954 C1952 1.391 . S
C1954 C1955 1.400 . S
C1955 C1954 1.400 . S
C1955 C1956 1.398 . S
C1955 C1961 1.491 . S
C1956 H1947 0.950 . S
C1956 C1955 1.398 . S
C1956 C1957 1.391 . S
C1957 H1945 0.950 . S
C1957 C1953 1.393 . S
C1957 C1956 1.391 . S
C1958 H1948 0.950 . S
C1958 C1959 1.386 . S
C1958 C1960 1.391 . S
C1959 C1958 1.386 . S
C1959 C1963 1.393 . S
C1960 H1949 0.950 . S
C1960 C1958 1.391 . S
C1960 C1961 1.400 . S
C1961 C1955 1.491 . S
C1961 C1960 1.400 . S
C1961 C1962 1.398 . S
C1962 H1950 0.950 . S
C1962 C1961 1.398 . S
C1962 C1963 1.391 . S
C1963 H1951 0.950 . S
C1963 C1959 1.393 . S
C1963 C1962 1.391 . S
H1964 C1972 0.950 . S
H1965 C1977 0.950 . S
H1966 C1974 0.950 . S
H1967 C1976 0.950 . S
H1968 C1978 0.950 . S
H1969 C1980 0.950 . S
H1970 C1982 0.950 . S
H1971 C1983 0.950 . S
C1972 H1964 0.950 . S
C1972 C1973 1.386 . S
C1972 C1974 1.391 . S
C1973 C1972 1.386 . S
C1973 C1977 1.393 1_455 S
C1974 H1966 0.950 . S
C1974 C1972 1.391 . S
C1974 C1975 1.400 . S
C1975 C1974 1.400 . S
C1975 C1976 1.398 1_455 S
C1975 C1981 1.491 . S
C1976 H1967 0.950 . S
C1976 C1975 1.398 1_655 S
C1976 C1977 1.391 . S
C1977 H1965 0.950 . S
C1977 C1973 1.393 1_655 S
C1977 C1976 1.391 . S
C1978 H1968 0.950 . S
C1978 C1979 1.386 1_655 S
C1978 C1980 1.391 . S
C1979 C1978 1.386 1_455 S
C1979 C1983 1.393 . S
C1980 H1969 0.950 . S
C1980 C1978 1.391 . S
C1980 C1981 1.400 1_655 S
C1981 C1975 1.491 . S
C1981 C1980 1.400 1_455 S
C1981 C1982 1.398 . S
C1982 H1970 0.950 . S
C1982 C1981 1.398 . S
C1982 C1983 1.391 . S
C1983 H1971 0.950 . S
C1983 C1979 1.393 . S
C1983 C1982 1.391 . S
H1984 C1992 0.950 . S
H1985 C1997 0.950 . S
H1986 C1994 0.950 . S
H1987 C1996 0.950 . S
H1988 C1998 0.950 . S
H1989 C2000 0.950 . S
H1990 C2002 0.950 . S
H1991 C2003 0.950 . S
C1992 H1984 0.950 . S
C1992 C1993 1.386 . S
C1992 C1994 1.391 . S
C1993 C1992 1.386 . S
C1993 C1997 1.393 . S
C1994 H1986 0.950 . S
C1994 C1992 1.391 . S
C1994 C1995 1.400 . S
C1995 C1994 1.400 . S
C1995 C1996 1.398 . S
C1995 C2001 1.491 . S
C1996 H1987 0.950 . S
C1996 C1995 1.398 . S
C1996 C1997 1.391 . S
C1997 H1985 0.950 . S
C1997 C1993 1.393 . S
C1997 C1996 1.391 . S
C1998 H1988 0.950 . S
C1998 C1999 1.386 . S
C1998 C2000 1.391 . S
C1999 C1998 1.386 . S
C1999 C2003 1.393 . S
C2000 H1989 0.950 . S
C2000 C1998 1.391 . S
C2000 C2001 1.400 . S
C2001 C1995 1.491 . S
C2001 C2000 1.400 . S
C2001 C2002 1.398 . S
C2002 H1990 0.950 . S
C2002 C2001 1.398 . S
C2002 C2003 1.391 . S
C2003 H1991 0.950 . S
C2003 C1999 1.393 . S
C2003 C2002 1.391 . S
H2004 C2012 0.950 . S
H2005 C2017 0.950 . S
H2006 C2014 0.950 . S
H2007 C2016 0.950 . S
H2008 C2018 0.950 . S
H2009 C2020 0.950 . S
H2010 C2022 0.950 . S
H2011 C2023 0.950 . S
C2012 H2004 0.950 . S
C2012 C2013 1.386 . S
C2012 C2014 1.391 . S
C2013 C2012 1.386 . S
C2013 C2017 1.393 . S
C2014 H2006 0.950 . S
C2014 C2012 1.391 . S
C2014 C2015 1.400 . S
C2015 C2014 1.400 . S
C2015 C2016 1.398 . S
C2015 C2021 1.491 . S
C2016 H2007 0.950 . S
C2016 C2015 1.398 . S
C2016 C2017 1.391 . S
C2017 H2005 0.950 . S
C2017 C2013 1.393 . S
C2017 C2016 1.391 . S
C2018 H2008 0.950 . S
C2018 C2019 1.386 . S
C2018 C2020 1.391 . S
C2019 C2018 1.386 . S
C2019 C2023 1.393 . S
C2020 H2009 0.950 . S
C2020 C2018 1.391 . S
C2020 C2021 1.400 . S
C2021 C2015 1.491 . S
C2021 C2020 1.400 . S
C2021 C2022 1.398 . S
C2022 H2010 0.950 . S
C2022 C2021 1.398 . S
C2022 C2023 1.391 . S
C2023 H2011 0.950 . S
C2023 C2019 1.393 . S
C2023 C2022 1.391 . S
H2024 C2032 0.950 . S
H2025 C2037 0.950 . S
H2026 C2034 0.950 . S
H2027 C2036 0.950 . S
H2028 C2038 0.950 . S
H2029 C2040 0.950 . S
H2030 C2042 0.950 . S
H2031 C2043 0.950 . S
C2032 H2024 0.950 . S
C2032 C2033 1.386 . S
C2032 C2034 1.391 . S
C2033 C2032 1.386 . S
C2033 C2037 1.393 . S
C2034 H2026 0.950 . S
C2034 C2032 1.391 . S
C2034 C2035 1.400 . S
C2035 C2034 1.400 . S
C2035 C2036 1.398 . S
C2035 C2041 1.491 . S
C2036 H2027 0.950 . S
C2036 C2035 1.398 . S
C2036 C2037 1.391 . S
C2037 H2025 0.950 . S
C2037 C2033 1.393 . S
C2037 C2036 1.391 . S
C2038 H2028 0.950 . S
C2038 C2039 1.386 . S
C2038 C2040 1.391 . S
C2039 C2038 1.386 . S
C2039 C2043 1.393 . S
C2040 H2029 0.950 . S
C2040 C2038 1.391 . S
C2040 C2041 1.400 . S
C2041 C2035 1.491 . S
C2041 C2040 1.400 . S
C2041 C2042 1.398 . S
C2042 H2030 0.950 . S
C2042 C2041 1.398 . S
C2042 C2043 1.391 . S
C2043 H2031 0.950 . S
C2043 C2039 1.393 . S
C2043 C2042 1.391 . S
H2044 C2052 0.950 1_545 S
H2045 C2057 0.950 . S
H2046 C2054 0.950 1_545 S
H2047 C2056 0.950 . S
H2048 C2058 0.950 . S
H2049 C2060 0.950 . S
H2050 C2062 0.950 1_545 S
H2051 C2063 0.950 1_545 S
C2052 H2044 0.950 1_565 S
C2052 C2053 1.386 . S
C2052 C2054 1.391 . S
C2053 C2052 1.386 . S
C2053 C2057 1.393 . S
C2054 H2046 0.950 1_565 S
C2054 C2052 1.391 . S
C2054 C2055 1.400 . S
C2055 C2054 1.400 . S
C2055 C2056 1.398 . S
C2055 C2061 1.491 . S
C2056 H2047 0.950 . S
C2056 C2055 1.398 . S
C2056 C2057 1.391 . S
C2057 H2045 0.950 . S
C2057 C2053 1.393 . S
C2057 C2056 1.391 . S
C2058 H2048 0.950 . S
C2058 C2059 1.386 . S
C2058 C2060 1.391 . S
C2059 C2058 1.386 . S
C2059 C2063 1.393 . S
C2060 H2049 0.950 . S
C2060 C2058 1.391 . S
C2060 C2061 1.400 . S
C2061 C2055 1.491 . S
C2061 C2060 1.400 . S
C2061 C2062 1.398 . S
C2062 H2050 0.950 1_565 S
C2062 C2061 1.398 . S
C2062 C2063 1.391 . S
C2063 H2051 0.950 1_565 S
C2063 C2059 1.393 . S
C2063 C2062 1.391 . S
H2064 C2072 0.950 . S
H2065 C2077 0.950 . S
H2066 C2074 0.950 . S
H2067 C2076 0.950 . S
H2068 C2078 0.950 . S
H2069 C2080 0.950 . S
H2070 C2082 0.950 . S
H2071 C2083 0.950 . S
C2072 H2064 0.950 . S
C2072 C2073 1.386 1_554 S
C2072 C2074 1.391 . S
C2073 C2072 1.386 1_556 S
C2073 C2077 1.393 . S
C2074 H2066 0.950 . S
C2074 C2072 1.391 . S
C2074 C2075 1.400 1_554 S
C2075 C2074 1.400 1_556 S
C2075 C2076 1.398 . S
C2075 C2081 1.491 1_556 S
C2076 H2067 0.950 . S
C2076 C2075 1.398 . S
C2076 C2077 1.391 . S
C2077 H2065 0.950 . S
C2077 C2073 1.393 . S
C2077 C2076 1.391 . S
C2078 H2068 0.950 . S
C2078 C2079 1.386 1_556 S
C2078 C2080 1.391 1_565 S
C2079 C2078 1.386 1_554 S
C2079 C2083 1.393 1_565 S
C2080 H2069 0.950 . S
C2080 C2078 1.391 1_545 S
C2080 C2081 1.400 1_556 S
C2081 C2075 1.491 1_554 S
C2081 C2080 1.400 1_554 S
C2081 C2082 1.398 . S
C2082 H2070 0.950 . S
C2082 C2081 1.398 . S
C2082 C2083 1.391 . S
C2083 H2071 0.950 . S
C2083 C2079 1.393 1_545 S
C2083 C2082 1.391 . S
H2084 C2092 0.950 . S
H2085 C2097 0.950 . S
H2086 C2094 0.950 . S
H2087 C2096 0.950 . S
H2088 C2098 0.950 . S
H2089 C2100 0.950 . S
H2090 C2102 0.950 . S
H2091 C2103 0.950 . S
C2092 H2084 0.950 . S
C2092 C2093 1.386 . S
C2092 C2094 1.391 . S
C2093 C2092 1.386 . S
C2093 C2097 1.393 . S
C2094 H2086 0.950 . S
C2094 C2092 1.391 . S
C2094 C2095 1.400 . S
C2095 C2094 1.400 . S
C2095 C2096 1.398 . S
C2095 C2101 1.491 . S
C2096 H2087 0.950 . S
C2096 C2095 1.398 . S
C2096 C2097 1.391 . S
C2097 H2085 0.950 . S
C2097 C2093 1.393 . S
C2097 C2096 1.391 . S
C2098 H2088 0.950 . S
C2098 C2099 1.386 . S
C2098 C2100 1.391 . S
C2099 C2098 1.386 . S
C2099 C2103 1.393 . S
C2100 H2089 0.950 . S
C2100 C2098 1.391 . S
C2100 C2101 1.400 . S
C2101 C2095 1.491 . S
C2101 C2100 1.400 . S
C2101 C2102 1.398 . S
C2102 H2090 0.950 . S
C2102 C2101 1.398 . S
C2102 C2103 1.391 . S
C2103 H2091 0.950 . S
C2103 C2099 1.393 . S
C2103 C2102 1.391 . S
H2104 C2112 0.950 . S
H2105 C2117 0.950 . S
H2106 C2114 0.950 . S
H2107 C2116 0.950 . S
H2108 C2118 0.950 . S
H2109 C2120 0.950 . S
H2110 C2122 0.950 . S
H2111 C2123 0.950 . S
C2112 H2104 0.950 . S
C2112 C2113 1.386 . S
C2112 C2114 1.391 . S
C2113 C2112 1.386 . S
C2113 C2117 1.393 . S
C2114 H2106 0.950 . S
C2114 C2112 1.391 . S
C2114 C2115 1.400 . S
C2115 C2114 1.400 . S
C2115 C2116 1.398 . S
C2115 C2121 1.491 . S
C2116 H2107 0.950 . S
C2116 C2115 1.398 . S
C2116 C2117 1.391 . S
C2117 H2105 0.950 . S
C2117 C2113 1.393 . S
C2117 C2116 1.391 . S
C2118 H2108 0.950 . S
C2118 C2119 1.386 . S
C2118 C2120 1.391 . S
C2119 C2118 1.386 . S
C2119 C2123 1.393 . S
C2120 H2109 0.950 . S
C2120 C2118 1.391 . S
C2120 C2121 1.400 . S
C2121 C2115 1.491 . S
C2121 C2120 1.400 . S
C2121 C2122 1.398 . S
C2122 H2110 0.950 . S
C2122 C2121 1.398 . S
C2122 C2123 1.391 . S
C2123 H2111 0.950 . S
C2123 C2119 1.393 . S
C2123 C2122 1.391 . S
H2124 C2132 0.950 . S
H2125 C2137 0.950 1_565 S
H2126 C2134 0.950 . S
H2127 C2136 0.950 1_565 S
H2128 C2138 0.950 1_565 S
H2129 C2140 0.950 1_565 S
H2130 C2142 0.950 . S
H2131 C2143 0.950 . S
C2132 H2124 0.950 . S
C2132 C2133 1.386 . S
C2132 C2134 1.391 . S
C2133 C2132 1.386 . S
C2133 C2137 1.393 . S
C2134 H2126 0.950 . S
C2134 C2132 1.391 . S
C2134 C2135 1.400 . S
C2135 C2134 1.400 . S
C2135 C2136 1.398 . S
C2135 C2141 1.491 . S
C2136 H2127 0.950 1_545 S
C2136 C2135 1.398 . S
C2136 C2137 1.391 . S
C2137 H2125 0.950 1_545 S
C2137 C2133 1.393 . S
C2137 C2136 1.391 . S
C2138 H2128 0.950 1_545 S
C2138 C2139 1.386 . S
C2138 C2140 1.391 . S
C2139 C2138 1.386 . S
C2139 C2143 1.393 . S
C2140 H2129 0.950 1_545 S
C2140 C2138 1.391 . S
C2140 C2141 1.400 . S
C2141 C2135 1.491 . S
C2141 C2140 1.400 . S
C2141 C2142 1.398 . S
C2142 H2130 0.950 . S
C2142 C2141 1.398 . S
C2142 C2143 1.391 . S
C2143 H2131 0.950 . S
C2143 C2139 1.393 . S
C2143 C2142 1.391 . S
H2144 C2152 0.950 . S
H2145 C2157 0.950 . S
H2146 C2154 0.950 . S
H2147 C2156 0.950 . S
H2148 C2158 0.950 . S
H2149 C2160 0.950 . S
H2150 C2162 0.950 . S
H2151 C2163 0.950 . S
C2152 H2144 0.950 . S
C2152 C2153 1.386 . S
C2152 C2154 1.391 1_545 S
C2153 C2152 1.386 . S
C2153 C2157 1.393 1_545 S
C2154 H2146 0.950 . S
C2154 C2152 1.391 1_565 S
C2154 C2155 1.400 . S
C2155 C2154 1.400 . S
C2155 C2156 1.398 . S
C2155 C2161 1.491 . S
C2156 H2147 0.950 . S
C2156 C2155 1.398 . S
C2156 C2157 1.391 . S
C2157 H2145 0.950 . S
C2157 C2153 1.393 1_565 S
C2157 C2156 1.391 . S
C2158 H2148 0.950 . S
C2158 C2159 1.386 . S
C2158 C2160 1.391 . S
C2159 C2158 1.386 . S
C2159 C2163 1.393 . S
C2160 H2149 0.950 . S
C2160 C2158 1.391 . S
C2160 C2161 1.400 . S
C2161 C2155 1.491 . S
C2161 C2160 1.400 . S
C2161 C2162 1.398 . S
C2162 H2150 0.950 . S
C2162 C2161 1.398 . S
C2162 C2163 1.391 . S
C2163 H2151 0.950 . S
C2163 C2159 1.393 . S
C2163 C2162 1.391 . S
H2164 C2172 0.950 . S
H2165 C2177 0.950 . S
H2166 C2174 0.950 . S
H2167 C2176 0.950 . S
H2168 C2178 0.950 . S
H2169 C2180 0.950 . S
H2170 C2182 0.950 . S
H2171 C2183 0.950 . S
C2172 H2164 0.950 . S
C2172 C2173 1.386 . S
C2172 C2174 1.391 . S
C2173 C2172 1.386 . S
C2173 C2177 1.393 . S
C2174 H2166 0.950 . S
C2174 C2172 1.391 . S
C2174 C2175 1.400 . S
C2175 C2174 1.400 . S
C2175 C2176 1.398 . S
C2175 C2181 1.491 . S
C2176 H2167 0.950 . S
C2176 C2175 1.398 . S
C2176 C2177 1.391 . S
C2177 H2165 0.950 . S
C2177 C2173 1.393 . S
C2177 C2176 1.391 . S
C2178 H2168 0.950 . S
C2178 C2179 1.386 . S
C2178 C2180 1.391 . S
C2179 C2178 1.386 . S
C2179 C2183 1.393 . S
C2180 H2169 0.950 . S
C2180 C2178 1.391 . S
C2180 C2181 1.400 . S
C2181 C2175 1.491 . S
C2181 C2180 1.400 . S
C2181 C2182 1.398 . S
C2182 H2170 0.950 . S
C2182 C2181 1.398 . S
C2182 C2183 1.391 . S
C2183 H2171 0.950 . S
C2183 C2179 1.393 . S
C2183 C2182 1.391 . S
H2184 C2192 0.950 . S
H2185 C2197 0.950 . S
H2186 C2194 0.950 . S
H2187 C2196 0.950 . S
H2188 C2198 0.950 . S
H2189 C2200 0.950 . S
H2190 C2202 0.950 . S
H2191 C2203 0.950 1_554 S
C2192 H2184 0.950 . S
C2192 C2193 1.386 . S
C2192 C2194 1.391 . S
C2193 C2192 1.386 . S
C2193 C2197 1.393 1_554 S
C2194 H2186 0.950 . S
C2194 C2192 1.391 . S
C2194 C2195 1.400 . S
C2195 C2194 1.400 . S
C2195 C2196 1.398 1_554 S
C2195 C2201 1.491 1_554 S
C2196 H2187 0.950 . S
C2196 C2195 1.398 1_556 S
C2196 C2197 1.391 . S
C2197 H2185 0.950 . S
C2197 C2193 1.393 1_556 S
C2197 C2196 1.391 . S
C2198 H2188 0.950 . S
C2198 C2199 1.386 . S
C2198 C2200 1.391 . S
C2199 C2198 1.386 . S
C2199 C2203 1.393 . S
C2200 H2189 0.950 . S
C2200 C2198 1.391 . S
C2200 C2201 1.400 . S
C2201 C2195 1.491 1_556 S
C2201 C2200 1.400 . S
C2201 C2202 1.398 1_556 S
C2202 H2190 0.950 . S
C2202 C2201 1.398 1_554 S
C2202 C2203 1.391 1_554 S
C2203 H2191 0.950 1_556 S
C2203 C2199 1.393 . S
C2203 C2202 1.391 1_556 S
H2204 C2212 0.950 . S
H2205 C2217 0.950 . S
H2206 C2214 0.950 . S
H2207 C2216 0.950 . S
H2208 C2218 0.948 1_556 S
H2209 C2220 0.950 . S
H2210 C2222 0.950 . S
H2211 C2223 0.950 . S
C2212 H2204 0.950 . S
C2212 C2213 1.386 . S
C2212 C2214 1.391 . S
C2213 C2212 1.386 . S
C2213 C2217 1.393 . S
C2214 H2206 0.950 . S
C2214 C2212 1.391 . S
C2214 C2215 1.400 . S
C2215 C2214 1.400 . S
C2215 C2216 1.398 . S
C2215 C2221 1.491 . S
C2216 H2207 0.950 . S
C2216 C2215 1.398 . S
C2216 C2217 1.391 . S
C2217 H2205 0.950 . S
C2217 C2213 1.393 . S
C2217 C2216 1.391 . S
C2218 H2208 0.948 1_554 S
C2218 C2219 1.397 . S
C2218 C2220 1.384 1_554 S
C2219 C2218 1.397 . S
C2219 C2223 1.393 . S
C2220 H2209 0.950 . S
C2220 C2218 1.384 1_556 S
C2220 C2221 1.400 . S
C2221 C2215 1.491 . S
C2221 C2220 1.400 . S
C2221 C2222 1.398 1_556 S
C2222 H2210 0.950 . S
C2222 C2221 1.398 1_554 S
C2222 C2223 1.391 . S
C2223 H2211 0.950 . S
C2223 C2219 1.393 . S
C2223 C2222 1.391 . S
H2224 C2232 0.950 . S
H2225 C2237 0.950 . S
H2226 C2234 0.950 . S
H2227 C2236 0.950 . S
H2228 C2238 0.950 . S
H2229 C2240 0.950 . S
H2230 C2242 0.950 . S
H2231 C2243 0.950 . S
C2232 H2224 0.950 . S
C2232 C2233 1.386 . S
C2232 C2234 1.391 . S
C2233 C2232 1.386 . S
C2233 C2237 1.393 . S
C2234 H2226 0.950 . S
C2234 C2232 1.391 . S
C2234 C2235 1.400 . S
C2235 C2234 1.400 . S
C2235 C2236 1.398 . S
C2235 C2241 1.491 . S
C2236 H2227 0.950 . S
C2236 C2235 1.398 . S
C2236 C2237 1.391 . S
C2237 H2225 0.950 . S
C2237 C2233 1.393 . S
C2237 C2236 1.391 . S
C2238 H2228 0.950 . S
C2238 C2239 1.386 . S
C2238 C2240 1.391 . S
C2239 C2238 1.386 . S
C2239 C2243 1.393 . S
C2240 H2229 0.950 . S
C2240 C2238 1.391 . S
C2240 C2241 1.400 . S
C2241 C2235 1.491 . S
C2241 C2240 1.400 . S
C2241 C2242 1.398 . S
C2242 H2230 0.950 . S
C2242 C2241 1.398 . S
C2242 C2243 1.391 . S
C2243 H2231 0.950 . S
C2243 C2239 1.393 . S
C2243 C2242 1.391 . S
H2244 C2252 0.950 . S
H2245 C2257 0.950 . S
H2246 C2254 0.950 . S
H2247 C2256 0.950 1_554 S
H2248 C2258 0.950 . S
H2249 C2260 0.950 . S
H2250 C2262 0.950 . S
H2251 C2263 0.950 . S
C2252 H2244 0.950 . S
C2252 C2253 1.386 . S
C2252 C2254 1.391 . S
C2253 C2252 1.386 . S
C2253 C2257 1.393 1_556 S
C2254 H2246 0.950 . S
C2254 C2252 1.391 . S
C2254 C2255 1.400 . S
C2255 C2254 1.400 . S
C2255 C2256 1.398 . S
C2255 C2261 1.491 . S
C2256 H2247 0.950 1_556 S
C2256 C2255 1.398 . S
C2256 C2257 1.391 1_556 S
C2257 H2245 0.950 . S
C2257 C2253 1.393 1_554 S
C2257 C2256 1.391 1_554 S
C2258 H2248 0.950 . S
C2258 C2259 1.386 . S
C2258 C2260 1.391 . S
C2259 C2258 1.386 . S
C2259 C2263 1.393 . S
C2260 H2249 0.950 . S
C2260 C2258 1.391 . S
C2260 C2261 1.400 . S
C2261 C2255 1.491 . S
C2261 C2260 1.400 . S
C2261 C2262 1.398 . S
C2262 H2250 0.950 . S
C2262 C2261 1.398 . S
C2262 C2263 1.391 . S
C2263 H2251 0.950 . S
C2263 C2259 1.393 . S
C2263 C2262 1.391 . S
H2264 C2272 0.950 . S
H2265 C2277 0.950 . S
H2266 C2274 0.950 . S
H2267 C2276 0.950 . S
H2268 C2278 0.950 . S
H2269 C2280 0.950 . S
H2270 C2282 0.950 . S
H2271 C2283 0.950 . S
C2272 H2264 0.950 . S
C2272 C2273 1.386 . S
C2272 C2274 1.391 . S
C2273 C2272 1.386 . S
C2273 C2277 1.393 . S
C2274 H2266 0.950 . S
C2274 C2272 1.391 . S
C2274 C2275 1.400 . S
C2275 C2274 1.400 . S
C2275 C2276 1.398 . S
C2275 C2281 1.491 . S
C2276 H2267 0.950 . S
C2276 C2275 1.398 . S
C2276 C2277 1.391 . S
C2277 H2265 0.950 . S
C2277 C2273 1.393 . S
C2277 C2276 1.391 . S
C2278 H2268 0.950 . S
C2278 C2279 1.386 . S
C2278 C2280 1.391 . S
C2279 C2278 1.386 . S
C2279 C2283 1.393 . S
C2280 H2269 0.950 . S
C2280 C2278 1.391 . S
C2280 C2281 1.400 . S
C2281 C2275 1.491 . S
C2281 C2280 1.400 . S
C2281 C2282 1.398 . S
C2282 H2270 0.950 . S
C2282 C2281 1.398 . S
C2282 C2283 1.391 . S
C2283 H2271 0.950 . S
C2283 C2279 1.393 . S
C2283 C2282 1.391 . S
H2284 C2292 0.950 . S
H2285 C2297 0.950 . S
H2286 C2294 0.950 . S
H2287 C2296 0.950 . S
H2288 C2298 0.950 . S
H2289 C2300 0.950 . S
H2290 C2302 0.950 . S
H2291 C2303 0.950 . S
C2292 H2284 0.950 . S
C2292 C2293 1.386 . S
C2292 C2294 1.391 . S
C2293 C2292 1.386 . S
C2293 C2297 1.393 . S
C2294 H2286 0.950 . S
C2294 C2292 1.391 . S
C2294 C2295 1.400 . S
C2295 C2294 1.400 . S
C2295 C2296 1.398 . S
C2295 C2301 1.491 . S
C2296 H2287 0.950 . S
C2296 C2295 1.398 . S
C2296 C2297 1.391 . S
C2297 H2285 0.950 . S
C2297 C2293 1.393 . S
C2297 C2296 1.391 . S
C2298 H2288 0.950 . S
C2298 C2299 1.386 . S
C2298 C2300 1.391 . S
C2299 C2298 1.386 . S
C2299 C2303 1.393 . S
C2300 H2289 0.950 . S
C2300 C2298 1.391 . S
C2300 C2301 1.400 . S
C2301 C2295 1.491 . S
C2301 C2300 1.400 . S
C2301 C2302 1.398 . S
C2302 H2290 0.950 . S
C2302 C2301 1.398 . S
C2302 C2303 1.391 . S
C2303 H2291 0.950 . S
C2303 C2299 1.393 . S
C2303 C2302 1.391 . S
H2304 C2312 0.950 . S
H2305 C2317 0.950 . S
H2306 C2314 0.950 . S
H2307 C2316 0.950 . S
H2308 C2318 0.950 . S
H2309 C2320 0.950 . S
H2310 C2322 0.950 . S
H2311 C2323 0.950 . S
C2312 H2304 0.950 . S
C2312 C2313 1.386 1_455 S
C2312 C2314 1.391 . S
C2313 C2312 1.386 1_655 S
C2313 C2317 1.393 . S
C2314 H2306 0.950 . S
C2314 C2312 1.391 . S
C2314 C2315 1.400 1_455 S
C2315 C2314 1.400 1_655 S
C2315 C2316 1.398 . S
C2315 C2321 1.491 . S
C2316 H2307 0.950 . S
C2316 C2315 1.398 . S
C2316 C2317 1.391 . S
C2317 H2305 0.950 . S
C2317 C2313 1.393 . S
C2317 C2316 1.391 . S
C2318 H2308 0.950 . S
C2318 C2319 1.386 . S
C2318 C2320 1.391 . S
C2319 C2318 1.386 . S
C2319 C2323 1.393 1_655 S
C2320 H2309 0.950 . S
C2320 C2318 1.391 . S
C2320 C2321 1.400 . S
C2321 C2315 1.491 . S
C2321 C2320 1.400 . S
C2321 C2322 1.398 1_655 S
C2322 H2310 0.950 . S
C2322 C2321 1.398 1_455 S
C2322 C2323 1.391 . S
C2323 H2311 0.950 . S
C2323 C2319 1.393 1_455 S
C2323 C2322 1.391 . S
H2324 C2332 0.950 . S
H2325 C2337 0.950 . S
H2326 C2334 0.950 . S
H2327 C2336 0.950 . S
H2328 C2338 0.950 . S
H2329 C2340 0.950 . S
H2330 C2342 0.950 . S
H2331 C2343 0.950 . S
C2332 H2324 0.950 . S
C2332 C2333 1.386 . S
C2332 C2334 1.391 . S
C2333 C2332 1.386 . S
C2333 C2337 1.393 . S
C2334 H2326 0.950 . S
C2334 C2332 1.391 . S
C2334 C2335 1.400 . S
C2335 C2334 1.400 . S
C2335 C2336 1.398 . S
C2335 C2341 1.491 . S
C2336 H2327 0.950 . S
C2336 C2335 1.398 . S
C2336 C2337 1.391 . S
C2337 H2325 0.950 . S
C2337 C2333 1.393 . S
C2337 C2336 1.391 . S
C2338 H2328 0.950 . S
C2338 C2339 1.386 . S
C2338 C2340 1.391 . S
C2339 C2338 1.386 . S
C2339 C2343 1.393 . S
C2340 H2329 0.950 . S
C2340 C2338 1.391 . S
C2340 C2341 1.400 . S
C2341 C2335 1.491 . S
C2341 C2340 1.400 . S
C2341 C2342 1.398 . S
C2342 H2330 0.950 . S
C2342 C2341 1.398 . S
C2342 C2343 1.391 . S
C2343 H2331 0.950 . S
C2343 C2339 1.393 . S
C2343 C2342 1.391 . S
H2344 C2352 0.950 . S
H2345 C2357 0.950 . S
H2346 C2354 0.950 . S
H2347 C2356 0.950 . S
H2348 C2358 0.950 1_455 S
H2349 C2360 0.950 . S
H2350 C2362 0.950 . S
H2351 C2363 0.950 . S
C2352 H2344 0.950 . S
C2352 C2353 1.386 . S
C2352 C2354 1.391 . S
C2353 C2352 1.386 . S
C2353 C2357 1.393 . S
C2354 H2346 0.950 . S
C2354 C2352 1.391 . S
C2354 C2355 1.400 . S
C2355 C2354 1.400 . S
C2355 C2356 1.398 . S
C2355 C2361 1.491 . S
C2356 H2347 0.950 . S
C2356 C2355 1.398 . S
C2356 C2357 1.391 . S
C2357 H2345 0.950 . S
C2357 C2353 1.393 . S
C2357 C2356 1.391 . S
C2358 H2348 0.950 1_655 S
C2358 C2359 1.386 . S
C2358 C2360 1.391 . S
C2359 C2358 1.386 . S
C2359 C2363 1.393 . S
C2360 H2349 0.950 . S
C2360 C2358 1.391 . S
C2360 C2361 1.400 . S
C2361 C2355 1.491 . S
C2361 C2360 1.400 . S
C2361 C2362 1.398 . S
C2362 H2350 0.950 . S
C2362 C2361 1.398 . S
C2362 C2363 1.391 . S
C2363 H2351 0.950 . S
C2363 C2359 1.393 . S
C2363 C2362 1.391 . S
H2364 C2372 0.950 . S
H2365 C2377 0.950 . S
H2366 C2374 0.950 . S
H2367 C2376 0.950 . S
H2368 C2378 0.950 . S
H2369 C2380 0.950 . S
H2370 C2382 0.950 . S
H2371 C2383 0.950 . S
C2372 H2364 0.950 . S
C2372 C2373 1.386 . S
C2372 C2374 1.391 . S
C2373 C2372 1.386 . S
C2373 C2377 1.393 . S
C2374 H2366 0.950 . S
C2374 C2372 1.391 . S
C2374 C2375 1.400 . S
C2375 C2374 1.400 . S
C2375 C2376 1.398 . S
C2375 C2381 1.491 . S
C2376 H2367 0.950 . S
C2376 C2375 1.398 . S
C2376 C2377 1.391 . S
C2377 H2365 0.950 . S
C2377 C2373 1.393 . S
C2377 C2376 1.391 . S
C2378 H2368 0.950 . S
C2378 C2379 1.386 . S
C2378 C2380 1.391 . S
C2379 C2378 1.386 . S
C2379 C2383 1.393 . S
C2380 H2369 0.950 . S
C2380 C2378 1.391 . S
C2380 C2381 1.400 . S
C2381 C2375 1.491 . S
C2381 C2380 1.400 . S
C2381 C2382 1.398 . S
C2382 H2370 0.950 . S
C2382 C2381 1.398 . S
C2382 C2383 1.391 . S
C2383 H2371 0.950 . S
C2383 C2379 1.393 . S
C2383 C2382 1.391 . S
H2384 C2392 0.950 . S
H2385 C2397 0.950 . S
H2386 C2394 0.950 . S
H2387 C2396 0.950 . S
H2388 C2398 0.950 . S
H2389 C2400 0.950 . S
H2390 C2402 0.950 . S
H2391 C2403 0.950 . S
C2392 H2384 0.950 . S
C2392 C2393 1.386 . S
C2392 C2394 1.391 . S
C2393 C2392 1.386 . S
C2393 C2397 1.393 . S
C2394 H2386 0.950 . S
C2394 C2392 1.391 . S
C2394 C2395 1.400 . S
C2395 C2394 1.400 . S
C2395 C2396 1.398 . S
C2395 C2401 1.491 . S
C2396 H2387 0.950 . S
C2396 C2395 1.398 . S
C2396 C2397 1.391 . S
C2397 H2385 0.950 . S
C2397 C2393 1.393 . S
C2397 C2396 1.391 . S
C2398 H2388 0.950 . S
C2398 C2399 1.386 . S
C2398 C2400 1.391 . S
C2399 C2398 1.386 . S
C2399 C2403 1.393 . S
C2400 H2389 0.950 . S
C2400 C2398 1.391 . S
C2400 C2401 1.400 . S
C2401 C2395 1.491 . S
C2401 C2400 1.400 . S
C2401 C2402 1.398 . S
C2402 H2390 0.950 . S
C2402 C2401 1.398 . S
C2402 C2403 1.391 . S
C2403 H2391 0.950 . S
C2403 C2399 1.393 . S
C2403 C2402 1.391 . S
H2404 C2412 0.950 . S
H2405 C2417 0.950 . S
H2406 C2414 0.950 . S
H2407 C2416 0.950 . S
H2408 C2418 0.950 . S
H2409 C2420 0.950 . S
H2410 C2422 0.950 . S
H2411 C2423 0.950 . S
C2412 H2404 0.950 . S
C2412 C2413 1.386 . S
C2412 C2414 1.391 . S
C2413 C2412 1.386 . S
C2413 C2417 1.393 . S
C2414 H2406 0.950 . S
C2414 C2412 1.391 . S
C2414 C2415 1.400 . S
C2415 C2414 1.400 . S
C2415 C2416 1.398 . S
C2415 C2421 1.491 . S
C2416 H2407 0.950 . S
C2416 C2415 1.398 . S
C2416 C2417 1.391 . S
C2417 H2405 0.950 . S
C2417 C2413 1.393 . S
C2417 C2416 1.391 . S
C2418 H2408 0.950 . S
C2418 C2419 1.386 . S
C2418 C2420 1.391 . S
C2419 C2418 1.386 . S
C2419 C2423 1.393 . S
C2420 H2409 0.950 . S
C2420 C2418 1.391 . S
C2420 C2421 1.400 . S
C2421 C2415 1.491 . S
C2421 C2420 1.400 . S
C2421 C2422 1.398 . S
C2422 H2410 0.950 . S
C2422 C2421 1.398 . S
C2422 C2423 1.391 . S
C2423 H2411 0.950 . S
C2423 C2419 1.393 . S
C2423 C2422 1.391 . S
H2424 C2432 0.950 . S
H2425 C2437 0.950 . S
H2426 C2434 0.950 . S
H2427 C2436 0.950 . S
H2428 C2438 0.950 . S
H2429 C2440 0.950 . S
H2430 C2442 0.950 . S
H2431 C2443 0.950 . S
C2432 H2424 0.950 . S
C2432 C2433 1.386 . S
C2432 C2434 1.391 . S
C2433 C2432 1.386 . S
C2433 C2437 1.393 . S
C2434 H2426 0.950 . S
C2434 C2432 1.391 . S
C2434 C2435 1.400 . S
C2435 C2434 1.400 . S
C2435 C2436 1.398 . S
C2435 C2441 1.491 . S
C2436 H2427 0.950 . S
C2436 C2435 1.398 . S
C2436 C2437 1.391 . S
C2437 H2425 0.950 . S
C2437 C2433 1.393 . S
C2437 C2436 1.391 . S
C2438 H2428 0.950 . S
C2438 C2439 1.386 . S
C2438 C2440 1.391 . S
C2439 C2438 1.386 . S
C2439 C2443 1.393 . S
C2440 H2429 0.950 . S
C2440 C2438 1.391 . S
C2440 C2441 1.400 . S
C2441 C2435 1.491 . S
C2441 C2440 1.400 . S
C2441 C2442 1.398 . S
C2442 H2430 0.950 . S
C2442 C2441 1.398 . S
C2442 C2443 1.391 . S
C2443 H2431 0.950 . S
C2443 C2439 1.393 . S
C2443 C2442 1.391 . S
H2444 C2452 0.950 . S
H2445 C2457 0.950 . S
H2446 C2454 0.950 . S
H2447 C2456 0.950 . S
H2448 C2458 0.950 . S
H2449 C2460 0.950 . S
H2450 C2462 0.950 . S
H2451 C2463 0.950 . S
C2452 H2444 0.950 . S
C2452 C2453 1.386 . S
C2452 C2454 1.391 . S
C2453 C2452 1.386 . S
C2453 C2457 1.393 . S
C2454 H2446 0.950 . S
C2454 C2452 1.391 . S
C2454 C2455 1.400 . S
C2455 C2454 1.400 . S
C2455 C2456 1.398 . S
C2455 C2461 1.491 . S
C2456 H2447 0.950 . S
C2456 C2455 1.398 . S
C2456 C2457 1.391 . S
C2457 H2445 0.950 . S
C2457 C2453 1.393 . S
C2457 C2456 1.391 . S
C2458 H2448 0.950 . S
C2458 C2459 1.386 . S
C2458 C2460 1.391 . S
C2459 C2458 1.386 . S
C2459 C2463 1.393 . S
C2460 H2449 0.950 . S
C2460 C2458 1.391 . S
C2460 C2461 1.400 . S
C2461 C2455 1.491 . S
C2461 C2460 1.400 . S
C2461 C2462 1.398 . S
C2462 H2450 0.950 . S
C2462 C2461 1.398 . S
C2462 C2463 1.391 . S
C2463 H2451 0.950 . S
C2463 C2459 1.393 . S
C2463 C2462 1.391 . S
H2464 C2472 0.950 . S
H2465 C2477 0.950 . S
H2466 C2474 0.950 . S
H2467 C2476 0.950 . S
H2468 C2478 0.950 . S
H2469 C2480 0.950 . S
H2470 C2482 0.950 . S
H2471 C2483 0.950 1_655 S
C2472 H2464 0.950 . S
C2472 C2473 1.386 . S
C2472 C2474 1.391 . S
C2473 C2472 1.386 . S
C2473 C2477 1.393 . S
C2474 H2466 0.950 . S
C2474 C2472 1.391 . S
C2474 C2475 1.400 . S
C2475 C2474 1.400 . S
C2475 C2476 1.398 . S
C2475 C2481 1.491 . S
C2476 H2467 0.950 . S
C2476 C2475 1.398 . S
C2476 C2477 1.391 . S
C2477 H2465 0.950 . S
C2477 C2473 1.393 . S
C2477 C2476 1.391 . S
C2478 H2468 0.950 . S
C2478 C2479 1.415 . S
C2478 C2480 1.391 . S
C2479 C2478 1.415 . S
C2479 C2483 1.397 . S
C2480 H2469 0.950 . S
C2480 C2478 1.391 . S
C2480 C2481 1.400 . S
C2481 C2475 1.491 . S
C2481 C2480 1.400 . S
C2481 C2482 1.398 . S
C2482 H2470 0.950 . S
C2482 C2481 1.398 . S
C2482 C2483 1.391 . S
C2483 H2471 0.950 1_455 S
C2483 C2479 1.397 . S
C2483 C2482 1.391 . S
H2484 C2492 0.950 . S
H2485 C2497 0.950 . S
H2486 C2494 0.950 . S
H2487 C2496 0.950 . S
H2488 C2498 0.950 1_655 S
H2489 C2500 0.950 . S
H2490 C2502 0.950 . S
H2491 C2503 0.950 . S
C2492 H2484 0.950 . S
C2492 C2493 1.386 . S
C2492 C2494 1.391 . S
C2493 C2492 1.386 . S
C2493 C2497 1.393 . S
C2494 H2486 0.950 . S
C2494 C2492 1.391 . S
C2494 C2495 1.400 . S
C2495 C2494 1.400 . S
C2495 C2496 1.398 . S
C2495 C2501 1.491 . S
C2496 H2487 0.950 . S
C2496 C2495 1.398 . S
C2496 C2497 1.391 . S
C2497 H2485 0.950 . S
C2497 C2493 1.393 . S
C2497 C2496 1.391 . S
C2498 H2488 0.950 1_455 S
C2498 C2499 1.386 1_455 S
C2498 C2500 1.391 . S
C2499 C2498 1.386 1_655 S
C2499 C2503 1.393 . S
C2500 H2489 0.950 . S
C2500 C2498 1.391 . S
C2500 C2501 1.400 . S
C2501 C2495 1.491 . S
C2501 C2500 1.400 . S
C2501 C2502 1.398 . S
C2502 H2490 0.950 . S
C2502 C2501 1.398 . S
C2502 C2503 1.391 1_455 S
C2503 H2491 0.950 . S
C2503 C2499 1.393 . S
C2503 C2502 1.391 1_655 S
H2504 C2512 0.950 . S
H2505 C2517 0.950 . S
H2506 C2514 0.950 . S
H2507 C2516 0.950 . S
H2508 C2518 0.950 . S
H2509 C2520 0.950 . S
H2510 C2522 0.950 . S
H2511 C2523 0.950 1_655 S
C2512 H2504 0.950 . S
C2512 C2513 1.386 . S
C2512 C2514 1.391 . S
C2513 C2512 1.386 . S
C2513 C2517 1.393 1_655 S
C2514 H2506 0.950 . S
C2514 C2512 1.391 . S
C2514 C2515 1.400 1_655 S
C2515 C2514 1.400 1_455 S
C2515 C2516 1.398 . S
C2515 C2521 1.491 . S
C2516 H2507 0.950 . S
C2516 C2515 1.398 . S
C2516 C2517 1.391 . S
C2517 H2505 0.950 . S
C2517 C2513 1.393 1_455 S
C2517 C2516 1.391 . S
C2518 H2508 0.950 . S
C2518 C2519 1.386 . S
C2518 C2520 1.391 . S
C2519 C2518 1.386 . S
C2519 C2523 1.393 . S
C2520 H2509 0.950 . S
C2520 C2518 1.391 . S
C2520 C2521 1.400 . S
C2521 C2515 1.491 . S
C2521 C2520 1.400 . S
C2521 C2522 1.398 1_455 S
C2522 H2510 0.950 . S
C2522 C2521 1.398 1_655 S
C2522 C2523 1.391 1_655 S
C2523 H2511 0.950 1_455 S
C2523 C2519 1.393 . S
C2523 C2522 1.391 1_455 S
H2524 C2532 0.950 . S
H2525 C2537 0.950 1_455 S
H2526 C2534 0.950 . S
H2527 C2536 0.950 . S
H2528 C2538 0.950 . S
H2529 C2540 0.950 . S
H2530 C2542 0.950 . S
H2531 C2543 0.950 . S
C2532 H2524 0.950 . S
C2532 C2533 1.386 . S
C2532 C2534 1.391 . S
C2533 C2532 1.386 . S
C2533 C2537 1.393 . S
C2534 H2526 0.950 . S
C2534 C2532 1.391 . S
C2534 C2535 1.400 . S
C2535 C2534 1.400 . S
C2535 C2536 1.398 1_655 S
C2535 C2541 1.491 . S
C2536 H2527 0.950 . S
C2536 C2535 1.398 1_455 S
C2536 C2537 1.391 1_455 S
C2537 H2525 0.950 1_655 S
C2537 C2533 1.393 . S
C2537 C2536 1.391 1_655 S
C2538 H2528 0.950 . S
C2538 C2539 1.386 . S
C2538 C2540 1.391 . S
C2539 C2538 1.386 . S
C2539 C2543 1.393 1_455 S
C2540 H2529 0.950 . S
C2540 C2538 1.391 . S
C2540 C2541 1.400 1_455 S
C2541 C2535 1.491 . S
C2541 C2540 1.400 1_655 S
C2541 C2542 1.398 . S
C2542 H2530 0.950 . S
C2542 C2541 1.398 . S
C2542 C2543 1.391 . S
C2543 H2531 0.950 . S
C2543 C2539 1.393 1_655 S
C2543 C2542 1.391 . S
C633 C361 0.905 . S
C639 C4 0.905 . S
C653 C18 0.970 . S
C659 C499 0.976 . S
C673 C30 0.746 . S
C679 C329 0.772 . S
C693 C525 0.614 . S
C699 C44 0.676 . S
C713 C369 0.816 . S
C719 C57 0.785 . S
C733 C75 0.691 . S
C739 C290 0.700 . S
C753 C393 0.930 . S
C759 C83 0.897 . S
C773 C101 0.917 . S
C779 C270 0.917 . S
C793 C465 0.957 . S
C799 C96 0.948 . S
C813 C432 0.704 . S
C819 C62 0.695 . S
C833 C70 0.781 . S
C839 C551 0.785 . S
C853 C452 0.867 . S
C859 C88 0.888 . S
C873 C108 0.768 . S
C879 C173 0.791 . S
C893 C187 0.831 . S
C899 C122 0.812 . S
C913 C200 0.871 . S
C919 C140 0.904 . S
C933 C161 0.785 . S
C939 C146 0.774 . S
C953 C172 0.966 . S
C959 C316 1.018 . S
C973 C192 0.850 . S
C979 C510 0.827 . S
C993 C348 1.025 . S
C999 C205 1.020 . S
C1013 C356 0.823 . S
C1019 C213 0.809 . S
C1033 C231 1.032 . S
C1039 C380 1.001 . S
C1053 C239 0.803 . S
C1059 C49 0.813 . S
C1073 C251 0.894 . S
C1079 C23 0.926 . S
C1093 C575 0.840 . S
C1099 C276 0.880 . S
C1113 C603 0.757 . S
C1119 C302 0.765 . S
C1133 C315 0.627 . S
C1139 C107 0.624 . S
C1153 C343 1.007 . S
C1159 C135 0.956 . S
C1173 C328 1.117 . S
C1179 C564 1.158 . S
C1193 C433 1.138 . S
C1199 C374 1.079 . S
C1213 C447 0.749 . S
C1219 C394 0.793 . S
C1233 C420 1.078 . S
C1239 C408 1.083 . S
C1253 C226 0.920 . S
C1259 C588 0.935 . S
C1273 C473 1.156 . S
C1279 C303 1.144 . S
C1293 C277 0.780 . S
C1299 C485 0.762 . S
C1313 C615 0.672 . S
C1319 C413 0.666 . S
C1333 C381 0.927 . S
C1339 C589 0.891 . S
C1353 C127 0.925 . S
C1359 C511 0.919 . S
C1373 C147 0.809 . S
C1379 C543 0.819 . S
C1393 C166 1.120 . S
C1399 C538 1.051 . S
C1413 C250 1.019 . S
C1419 C504 1.011 . S
C1433 C244 1.002 . S
C1439 C530 0.990 . S
C1453 C289 1.068 . S
C1459 C556 1.063 . S
C1473 C265 1.019 . S
C1479 C460 1.039 . S
C1493 C576 0.918 . S
C1499 C484 0.899 . S
C1513 C608 0.688 . S
C1519 C478 0.655 . S
C1533 C614 0.785 . S
C1539 C419 0.805 . S
C1553 C569 0.773 . S
C1559 C29 0.752 . S
C1573 C218 0.826 . S
C1579 C3 0.848 . S
C1593 C10 1.522 . S
C1599 C601 1.533 . S
C1613 C16 1.442 . S
C1619 C621 1.476 . S
C1633 C36 1.535 . S
C1639 C577 1.539 . S
C1653 C42 1.517 . S
C1659 C595 1.454 . S
C1673 C55 1.551 . S
C1679 C121 1.541 . S
C1693 C69 1.432 . S
C1699 C133 1.372 1_554 S
C1713 C81 1.533 . S
C1719 C153 1.533 . S
C1733 C95 1.461 . S
C1739 C109 1.517 . S
C1753 C94 1.871 . S
C1759 C512 1.697 . S
C1773 C56 1.503 . S
C1779 C342 1.418 . S
C1793 C68 1.679 . S
C1799 C536 1.654 . S
C1813 C82 1.953 . S
C1819 C322 1.822 . S
C1833 C114 1.665 . S
C1839 C309 1.626 . S
C1853 C120 1.945 . S
C1859 C406 1.839 . S
C1873 C134 1.901 . S
C1879 C283 1.683 . S
C1893 C382 1.411 . S
C1899 C148 1.502 . S
C1913 C159 1.485 . S
C1919 C252 1.615 . S
C1933 C174 1.556 . S
C1939 C212 1.554 . S
C1953 C257 1.327 . S
C1959 C186 1.378 . S
C1973 C563 1.451 . S
C1979 C199 1.591 . S
C1993 C198 1.359 . S
C1999 C211 1.429 1_556 S
C2013 C472 1.563 . S
C2019 C225 1.727 . S
C2033 C160 1.751 . S
C2039 C237 1.774 . S
C2053 C523 1.843 . S
C2059 C264 1.948 . S
C2073 C537 1.990 . S
C2079 C278 1.919 . S
C2093 C296 1.763 . S
C2099 C497 1.932 . S
C2113 C517 1.951 . S
C2119 C304 2.047 . S
C2133 C317 1.824 . S
C2139 C387 1.949 . S
C2153 C395 1.938 . S
C2159 C335 2.042 . S
C2173 C341 1.953 . S
C2179 C407 1.804 . S
C2193 C367 1.976 . S
C2199 C355 1.858 . S
C2213 C354 1.674 . S
C2219 C590 1.832 . S
C2233 C616 1.693 . S
C2239 C330 1.664 . S
C2253 C368 1.602 . S
C2259 C43 1.632 . S
C2273 C17 1.935 . S
C2279 C400 1.711 . S
C2293 C486 1.553 . S
C2299 C426 1.546 . S
C2313 C458 1.733 . S
C2319 C434 1.584 . S
C2333 C224 1.340 . S
C2339 C491 1.409 1_554 S
C2353 C446 1.576 . S
C2359 C550 1.559 . S
C2373 C459 1.317 . S
C2379 C445 1.395 . S
C2393 C185 1.616 . S
C2399 C238 1.607 . S
C2413 C421 1.806 . S
C2419 C471 1.757 . S
C2433 C602 1.516 . S
C2439 C498 1.429 . S
C2453 C524 1.763 . S
C2459 C582 1.889 . S
C2473 C5 1.939 . S
C2479 C291 1.796 1_455 S
C2493 C263 1.406 . S
C2499 C31 1.498 . S
C2513 C439 1.782 . S
C2519 C549 1.824 . S
C2533 C179 1.725 . S
C2539 C562 1.707 . S
