# Generated by pormake.
# Topology vbk, (5)-cn, num edge types: 1
# Building blocks:
#     Node 0, Type 0, BuildingBlock: XOMCOT_clean_sbu_1, # of connection points: 5
#     Node 1, Type 0, BuildingBlock: XOMCOT_clean_sbu_1, # of connection points: 5
#     Node 2, Type 0, BuildingBlock: XOMCOT_clean_sbu_1, # of connection points: 5
#     Node 3, Type 0, BuildingBlock: XOMCOT_clean_sbu_1, # of connection points: 5
#     Node 4, Type 0, BuildingBlock: XOMCOT_clean_sbu_1, # of connection points: 5
#     Node 5, Type 0, BuildingBlock: XOMCOT_clean_sbu_1, # of connection points: 5
#     Node 6, Type 0, BuildingBlock: XOMCOT_clean_sbu_1, # of connection points: 5
#     Node 7, Type 0, BuildingBlock: XOMCOT_clean_sbu_1, # of connection points: 5
#     Node 8, Type 0, BuildingBlock: XOMCOT_clean_sbu_1, # of connection points: 5
#     Node 9, Type 0, BuildingBlock: XOMCOT_clean_sbu_1, # of connection points: 5
#     Node 10, Type 0, BuildingBlock: XOMCOT_clean_sbu_1, # of connection points: 5
#     Node 11, Type 0, BuildingBlock: XOMCOT_clean_sbu_1, # of connection points: 5
#     Node 12, Type 0, BuildingBlock: XOMCOT_clean_sbu_1, # of connection points: 5
#     Node 13, Type 0, BuildingBlock: XOMCOT_clean_sbu_1, # of connection points: 5
#     Node 14, Type 0, BuildingBlock: XOMCOT_clean_sbu_1, # of connection points: 5
#     Node 15, Type 0, BuildingBlock: XOMCOT_clean_sbu_1, # of connection points: 5
#     Edge 16, Type (0, 0), BuildingBlock: TEMPAE_clean_linker_10, # of connection points: 2
#     Edge 17, Type (0, 0), BuildingBlock: TEMPAE_clean_linker_10, # of connection points: 2
#     Edge 18, Type (0, 0), BuildingBlock: TEMPAE_clean_linker_10, # of connection points: 2
#     Edge 19, Type (0, 0), BuildingBlock: TEMPAE_clean_linker_10, # of connection points: 2
#     Edge 20, Type (0, 0), BuildingBlock: TEMPAE_clean_linker_10, # of connection points: 2
#     Edge 21, Type (0, 0), BuildingBlock: TEMPAE_clean_linker_10, # of connection points: 2
#     Edge 22, Type (0, 0), BuildingBlock: TEMPAE_clean_linker_10, # of connection points: 2
#     Edge 23, Type (0, 0), BuildingBlock: TEMPAE_clean_linker_10, # of connection points: 2
#     Edge 24, Type (0, 0), BuildingBlock: TEMPAE_clean_linker_10, # of connection points: 2
#     Edge 25, Type (0, 0), BuildingBlock: TEMPAE_clean_linker_10, # of connection points: 2
#     Edge 26, Type (0, 0), BuildingBlock: TEMPAE_clean_linker_10, # of connection points: 2
#     Edge 27, Type (0, 0), BuildingBlock: TEMPAE_clean_linker_10, # of connection points: 2
#     Edge 28, Type (0, 0), BuildingBlock: TEMPAE_clean_linker_10, # of connection points: 2
#     Edge 29, Type (0, 0), BuildingBlock: TEMPAE_clean_linker_10, # of connection points: 2
#     Edge 30, Type (0, 0), BuildingBlock: TEMPAE_clean_linker_10, # of connection points: 2
#     Edge 31, Type (0, 0), BuildingBlock: TEMPAE_clean_linker_10, # of connection points: 2
#     Edge 32, Type (0, 0), BuildingBlock: TEMPAE_clean_linker_10, # of connection points: 2
#     Edge 33, Type (0, 0), BuildingBlock: TEMPAE_clean_linker_10, # of connection points: 2
#     Edge 34, Type (0, 0), BuildingBlock: TEMPAE_clean_linker_10, # of connection points: 2
#     Edge 35, Type (0, 0), BuildingBlock: TEMPAE_clean_linker_10, # of connection points: 2
#     Edge 36, Type (0, 0), BuildingBlock: TEMPAE_clean_linker_10, # of connection points: 2
#     Edge 37, Type (0, 0), BuildingBlock: TEMPAE_clean_linker_10, # of connection points: 2
#     Edge 38, Type (0, 0), BuildingBlock: TEMPAE_clean_linker_10, # of connection points: 2
#     Edge 39, Type (0, 0), BuildingBlock: TEMPAE_clean_linker_10, # of connection points: 2
#     Edge 40, Type (0, 0), BuildingBlock: TEMPAE_clean_linker_10, # of connection points: 2
#     Edge 41, Type (0, 0), BuildingBlock: TEMPAE_clean_linker_10, # of connection points: 2
#     Edge 42, Type (0, 0), BuildingBlock: TEMPAE_clean_linker_10, # of connection points: 2
#     Edge 43, Type (0, 0), BuildingBlock: TEMPAE_clean_linker_10, # of connection points: 2
#     Edge 44, Type (0, 0), BuildingBlock: TEMPAE_clean_linker_10, # of connection points: 2
#     Edge 45, Type (0, 0), BuildingBlock: TEMPAE_clean_linker_10, # of connection points: 2
#     Edge 46, Type (0, 0), BuildingBlock: TEMPAE_clean_linker_10, # of connection points: 2
#     Edge 47, Type (0, 0), BuildingBlock: TEMPAE_clean_linker_10, # of connection points: 2
#     Edge 48, Type (0, 0), BuildingBlock: TEMPAE_clean_linker_10, # of connection points: 2
#     Edge 49, Type (0, 0), BuildingBlock: TEMPAE_clean_linker_10, # of connection points: 2
#     Edge 50, Type (0, 0), BuildingBlock: TEMPAE_clean_linker_10, # of connection points: 2
#     Edge 51, Type (0, 0), BuildingBlock: TEMPAE_clean_linker_10, # of connection points: 2
#     Edge 52, Type (0, 0), BuildingBlock: TEMPAE_clean_linker_10, # of connection points: 2
#     Edge 53, Type (0, 0), BuildingBlock: TEMPAE_clean_linker_10, # of connection points: 2
#     Edge 54, Type (0, 0), BuildingBlock: TEMPAE_clean_linker_10, # of connection points: 2
#     Edge 55, Type (0, 0), BuildingBlock: TEMPAE_clean_linker_10, # of connection points: 2
# Relax obj value: 0.083
# Max RMSD: 0.146
# Mean RMSD: 0.146
data_MOF--net-vbk--node1-XOMCOT_clean_sbu_1--edge1-TEMPAE_clean_linker_10
_symmetry_space_group_name_H-M    P1
_symmetry_Int_Tables_number       1
_symmetry_cell_setting            triclinic
loop_
_symmetry_equiv_pos_as_xyz
'x, y, z'
_cell_length_a     68.473311
_cell_length_b     47.328037
_cell_length_c     27.31106
_cell_angle_alpha  90.036934
_cell_angle_beta   90.088408
_cell_angle_gamma 89.970674
loop_
_atom_site_label
_atom_site_type_symbol
_atom_site_fract_x
_atom_site_fract_y
_atom_site_fract_z
_atom_type_partial_charge
C0 C 0.11698 0.19197 0.1016 0.0
C1 C 0.09701 0.19257 0.09898 0.0
N2 N 0.09035 0.16582 0.09961 0.0
N3 N 0.12321 0.16496 0.10334 0.0
C4 C 0.10655 0.14934 0.10278 0.0
H5 H 0.12647 0.21022 0.10193 0.0
Co6 Co 0.15023 0.15694 0.106 0.0
C7 C 0.15368 0.10593 0.04158 0.0
O8 O 0.16597 0.12006 0.01427 0.0
N9 N 0.17826 0.14976 0.11028 0.0
C10 C 0.21023 0.14783 0.09292 0.0
C11 C 0.19179 0.15153 0.07417 0.0
C12 C 0.18937 0.14523 0.15107 0.0
N13 N 0.20878 0.14407 0.14147 0.0
O14 O 0.14684 0.14404 0.17179 0.0
H15 H 0.18887 0.15678 0.03643 0.0
H16 H 0.18353 0.14318 0.18756 0.0
O17 O 0.14574 0.11811 0.07861 0.0
C18 C 0.14845 0.16718 0.19563 0.0
O19 O 0.15303 0.19032 0.17174 0.0
N20 N 0.15286 0.17436 0.04468 0.0
C21 C 0.14945 0.21589 0.97269 0.0
C22 C 0.13977 0.18987 0.96752 0.0
C23 C 0.14138 0.16947 0.00456 0.0
C24 C 0.1627 0.19927 0.04931 0.0
C25 C 0.16142 0.22009 0.01358 0.0
H26 H 0.13225 0.15086 0.00286 0.0
H27 H 0.17063 0.20379 0.08267 0.0
H28 H 0.10629 0.12648 0.10396 0.0
H29 H 0.08799 0.21135 0.0974 0.0
H30 H 0.22377 0.14937 0.07268 0.0
H31 H 0.13007 0.18611 0.93685 0.0
H32 H 0.16915 0.23982 0.01894 0.0
C33 C 0.41882 0.81914 0.62172 0.0
C34 C 0.43869 0.817 0.62649 0.0
N35 N 0.44637 0.84321 0.62656 0.0
N36 N 0.41371 0.84658 0.61851 0.0
C37 C 0.43087 0.86088 0.62145 0.0
H38 H 0.40861 0.80172 0.62065 0.0
Co39 Co 0.38722 0.85757 0.61547 0.0
C40 C 0.39397 0.90661 0.5449 0.0
O41 O 0.38781 0.89238 0.50671 0.0
N42 N 0.36017 0.86825 0.61461 0.0
C43 C 0.33086 0.88564 0.595 0.0
C44 C 0.3499 0.88218 0.57989 0.0
C45 C 0.34672 0.86315 0.65009 0.0
N46 N 0.32882 0.87369 0.63942 0.0
O47 O 0.38956 0.87191 0.68079 0.0
H48 H 0.35558 0.8891 0.54522 0.0
H49 H 0.34991 0.85199 0.68346 0.0
O50 O 0.39428 0.89524 0.5876 0.0
C51 C 0.38717 0.84986 0.70695 0.0
O52 O 0.38307 0.82582 0.68513 0.0
N53 N 0.38492 0.83913 0.55414 0.0
C54 C 0.38569 0.79645 0.48331 0.0
C55 C 0.4 0.81758 0.48377 0.0
C56 C 0.39965 0.83831 0.52027 0.0
C57 C 0.37064 0.81898 0.55315 0.0
C58 C 0.37071 0.79756 0.518 0.0
H59 H 0.41187 0.85269 0.52305 0.0
H60 H 0.35992 0.81801 0.58207 0.0
H61 H 0.43193 0.88369 0.62092 0.0
H62 H 0.4469 0.79751 0.62907 0.0
H63 H 0.31934 0.89577 0.57428 0.0
H64 H 0.41204 0.817 0.45812 0.0
H65 H 0.35954 0.78137 0.51908 0.0
C66 C 0.11663 0.81541 0.86752 0.0
C67 C 0.09673 0.81429 0.86332 0.0
N68 N 0.0896 0.84079 0.86563 0.0
N69 N 0.12236 0.84248 0.8727 0.0
C70 C 0.1055 0.85762 0.87166 0.0
H71 H 0.12644 0.7975 0.8667 0.0
Co72 Co 0.14921 0.85107 0.8759 0.0
C73 C 0.14996 0.90026 0.9449 0.0
O74 O 0.16129 0.88526 0.97357 0.0
N75 N 0.17715 0.85893 0.87733 0.0
C76 C 0.20866 0.86129 0.89949 0.0
C77 C 0.18986 0.8568 0.91531 0.0
C78 C 0.18907 0.86464 0.83862 0.0
N79 N 0.2082 0.86596 0.85105 0.0
O80 O 0.14752 0.86533 0.81038 0.0
H81 H 0.18612 0.85078 0.95223 0.0
H82 H 0.18407 0.86744 0.80151 0.0
O83 O 0.14363 0.88928 0.90484 0.0
C84 C 0.15027 0.84287 0.78528 0.0
O85 O 0.15484 0.81941 0.80829 0.0
N86 N 0.15021 0.8323 0.93652 0.0
C87 C 0.14614 0.7902 0.00748 0.0
C88 C 0.13548 0.81551 0.01091 0.0
C89 C 0.1374 0.83611 0.97433 0.0
C90 C 0.16071 0.80788 0.93309 0.0
C91 C 0.15913 0.78681 0.96839 0.0
H92 H 0.12775 0.85418 0.9747 0.0
H93 H 0.16967 0.80406 0.90119 0.0
H94 H 0.10491 0.88043 0.8742 0.0
H95 H 0.08811 0.79524 0.85946 0.0
H96 H 0.22177 0.85964 0.92152 0.0
H97 H 0.12496 0.81863 0.03998 0.0
H98 H 0.1676 0.76762 0.96428 0.0
C99 C 0.41816 0.20008 0.38489 0.0
C100 C 0.43814 0.20202 0.38664 0.0
N101 N 0.44564 0.17572 0.38771 0.0
N102 N 0.41282 0.17266 0.38534 0.0
C103 C 0.42997 0.15818 0.38635 0.0
H104 H 0.40803 0.21763 0.38442 0.0
Co105 Co 0.38625 0.16167 0.386 0.0
C106 C 0.39265 0.11192 0.45535 0.0
O107 O 0.38624 0.12581 0.4936 0.0
N108 N 0.35919 0.15073 0.38505 0.0
C109 C 0.32989 0.13349 0.40483 0.0
C110 C 0.3488 0.13763 0.42042 0.0
C111 C 0.34591 0.15467 0.34862 0.0
N112 N 0.32802 0.14418 0.35941 0.0
O113 O 0.38914 0.14838 0.32002 0.0
H114 H 0.35429 0.13191 0.45598 0.0
H115 H 0.3492 0.165 0.31456 0.0
O116 O 0.39319 0.12366 0.41295 0.0
C117 C 0.38672 0.17095 0.29507 0.0
O118 O 0.38232 0.19444 0.31823 0.0
N119 N 0.38335 0.17946 0.44781 0.0
C120 C 0.38337 0.22215 0.51871 0.0
C121 C 0.39768 0.20098 0.51929 0.0
C122 C 0.3977 0.18022 0.4828 0.0
C123 C 0.36903 0.19958 0.44789 0.0
C124 C 0.36871 0.22095 0.48307 0.0
H125 H 0.40998 0.16589 0.48083 0.0
H126 H 0.35863 0.20064 0.41817 0.0
H127 H 0.43095 0.13537 0.38739 0.0
H128 H 0.44655 0.22138 0.38699 0.0
H129 H 0.31831 0.12385 0.42594 0.0
H130 H 0.4095 0.20159 0.54568 0.0
H131 H 0.35752 0.23712 0.48118 0.0
C132 C 0.91753 0.82006 0.92059 0.0
C133 C 0.93745 0.81748 0.91922 0.0
N134 N 0.94503 0.84104 0.89916 0.0
N135 N 0.91217 0.84538 0.90227 0.0
C136 C 0.9293 0.85724 0.88766 0.0
H137 H 0.90759 0.80408 0.93375 0.0
Co138 Co 0.88565 0.85739 0.89583 0.0
C139 C 0.90489 0.90798 0.94761 0.0
O140 O 0.92023 0.89375 0.96262 0.0
N141 N 0.85926 0.86869 0.88848 0.0
C142 C 0.83061 0.8895 0.90182 0.0
C143 C 0.84926 0.88557 0.91937 0.0
C144 C 0.84616 0.86214 0.85287 0.0
N145 N 0.82862 0.87483 0.85979 0.0
O146 O 0.8909 0.86931 0.83026 0.0
H147 H 0.8551 0.8943 0.95293 0.0
H148 H 0.84945 0.8485 0.82224 0.0
O149 O 0.89147 0.89558 0.92278 0.0
C150 C 0.89032 0.846 0.80673 0.0
O151 O 0.88682 0.82256 0.83092 0.0
N152 N 0.87968 0.84178 0.95714 0.0
C153 C 0.87769 0.80113 0.03067 0.0
C154 C 0.88667 0.82735 0.03952 0.0
C155 C 0.88754 0.84755 0.00202 0.0
C156 C 0.86921 0.81765 0.94985 0.0
C157 C 0.86806 0.79701 0.98601 0.0
H158 H 0.89568 0.86658 0.00837 0.0
H159 H 0.86323 0.81317 0.91401 0.0
H160 H 0.93022 0.87776 0.87034 0.0
H161 H 0.94569 0.79931 0.93154 0.0
H162 H 0.81929 0.90193 0.91916 0.0
H163 H 0.89417 0.8314 0.07376 0.0
H164 H 0.86065 0.77732 0.97804 0.0
C165 C 0.61732 0.20319 0.37733 0.0
C166 C 0.59735 0.2038 0.37338 0.0
N167 N 0.59057 0.17721 0.3775 0.0
N168 N 0.62336 0.17634 0.38376 0.0
C169 C 0.60665 0.16085 0.38406 0.0
H170 H 0.62694 0.22126 0.37524 0.0
Co171 Co 0.65021 0.16751 0.38633 0.0
C172 C 0.64937 0.1179 0.45498 0.0
O173 O 0.6595 0.13212 0.48744 0.0
N174 N 0.67796 0.15898 0.38732 0.0
C175 C 0.7092 0.15324 0.40989 0.0
C176 C 0.69042 0.15799 0.42592 0.0
C177 C 0.68994 0.15481 0.3482 0.0
N178 N 0.70889 0.15148 0.36085 0.0
O179 O 0.64824 0.15331 0.32086 0.0
H180 H 0.68653 0.16206 0.46352 0.0
H181 H 0.68512 0.1543 0.31069 0.0
O182 O 0.64454 0.12951 0.41427 0.0
C183 C 0.65087 0.17566 0.2955 0.0
O184 O 0.65542 0.19923 0.31823 0.0
N185 N 0.65162 0.18613 0.4472 0.0
C186 C 0.64869 0.22828 0.51864 0.0
C187 C 0.63712 0.20382 0.52135 0.0
C188 C 0.63848 0.18323 0.48453 0.0
C189 C 0.66305 0.20969 0.44455 0.0
C190 C 0.66199 0.23078 0.48005 0.0
H191 H 0.62819 0.16591 0.48438 0.0
H192 H 0.6723 0.21296 0.413 0.0
H193 H 0.60629 0.13809 0.38772 0.0
H194 H 0.58844 0.22246 0.36815 0.0
H195 H 0.72223 0.1526 0.4324 0.0
H196 H 0.62633 0.20143 0.54999 0.0
H197 H 0.67111 0.24936 0.47643 0.0
C198 C 0.91977 0.19696 0.12473 0.0
C199 C 0.93977 0.19702 0.12746 0.0
N200 N 0.9462 0.17022 0.1235 0.0
N201 N 0.91334 0.17025 0.11914 0.0
C202 C 0.92984 0.15429 0.11819 0.0
H203 H 0.91041 0.21533 0.12673 0.0
Co204 Co 0.88638 0.16211 0.11703 0.0
C205 C 0.88678 0.11232 0.04861 0.0
O206 O 0.8769 0.12664 0.01581 0.0
N207 N 0.85855 0.15425 0.11635 0.0
C208 C 0.82723 0.14908 0.09404 0.0
C209 C 0.84607 0.15309 0.07781 0.0
C210 C 0.84655 0.1509 0.15561 0.0
N211 N 0.82755 0.14795 0.14313 0.0
O212 O 0.88827 0.14807 0.18264 0.0
H213 H 0.84998 0.15662 0.04007 0.0
H214 H 0.85139 0.1507 0.19306 0.0
O215 O 0.89159 0.12394 0.08933 0.0
C216 C 0.88614 0.17062 0.20784 0.0
O217 O 0.88207 0.19431 0.18494 0.0
N218 N 0.88503 0.18058 0.0561 0.0
C219 C 0.88806 0.22256 0.98455 0.0
C220 C 0.8995 0.19796 0.98176 0.0
C221 C 0.8981 0.17745 0.01865 0.0
C222 C 0.87375 0.20429 0.05885 0.0
C223 C 0.87484 0.22529 0.02328 0.0
H224 H 0.90829 0.15999 0.01872 0.0
H225 H 0.86458 0.20775 0.0905 0.0
H226 H 0.92987 0.13151 0.11465 0.0
H227 H 0.94894 0.21552 0.13146 0.0
H228 H 0.81419 0.14855 0.07159 0.0
H229 H 0.91021 0.19539 0.95296 0.0
H230 H 0.86581 0.24398 0.02694 0.0
C231 C 0.61962 0.82499 0.58093 0.0
C232 C 0.59973 0.82164 0.58109 0.0
N233 N 0.59156 0.84467 0.60159 0.0
N234 N 0.62431 0.85035 0.60028 0.0
C235 C 0.60685 0.86135 0.61441 0.0
H236 H 0.63002 0.80954 0.56796 0.0
Co237 Co 0.65043 0.86325 0.60954 0.0
C238 C 0.63113 0.91377 0.55713 0.0
O239 O 0.61579 0.89956 0.54213 0.0
N240 N 0.67655 0.87529 0.62001 0.0
C241 C 0.70552 0.89539 0.60838 0.0
C242 C 0.68681 0.89264 0.59062 0.0
C243 C 0.68952 0.86747 0.65518 0.0
N244 N 0.70738 0.87942 0.64906 0.0
O245 O 0.6437 0.87473 0.6743 0.0
H246 H 0.68124 0.90212 0.55745 0.0
H247 H 0.68609 0.85254 0.68381 0.0
O248 O 0.64451 0.90138 0.58215 0.0
C249 C 0.64504 0.85143 0.69755 0.0
O250 O 0.65044 0.8286 0.67371 0.0
N251 N 0.6577 0.84813 0.54871 0.0
C252 C 0.66164 0.80743 0.47556 0.0
C253 C 0.65111 0.83245 0.46678 0.0
C254 C 0.64934 0.85273 0.504 0.0
C255 C 0.66945 0.82525 0.55604 0.0
C256 C 0.67175 0.8048 0.51991 0.0
H257 H 0.63993 0.87054 0.49796 0.0
H258 H 0.67568 0.82144 0.59182 0.0
H259 H 0.60538 0.88159 0.63253 0.0
H260 H 0.59192 0.80331 0.56775 0.0
H261 H 0.71682 0.90827 0.59215 0.0
H262 H 0.64309 0.83541 0.43296 0.0
H263 H 0.68045 0.78624 0.52787 0.0
C264 C 0.61796 0.70037 0.13044 0.0
C265 C 0.59805 0.69968 0.13497 0.0
N266 N 0.59187 0.67322 0.12571 0.0
N267 N 0.6246 0.67448 0.11846 0.0
C268 C 0.60828 0.65824 0.11539 0.0
H269 H 0.62712 0.7187 0.13594 0.0
Co270 Co 0.65164 0.66835 0.11341 0.0
C271 C 0.65637 0.61713 0.05174 0.0
O272 O 0.67038 0.63029 0.0283 0.0
N273 N 0.67992 0.66332 0.11022 0.0
C274 C 0.71136 0.67085 0.09172 0.0
C275 C 0.69241 0.67297 0.07551 0.0
C276 C 0.69215 0.6545 0.14665 0.0
N277 N 0.71119 0.65935 0.13656 0.0
O278 O 0.65154 0.65464 0.1792 0.0
H279 H 0.68827 0.68193 0.04069 0.0
H280 H 0.68733 0.64627 0.18146 0.0
O281 O 0.64721 0.62993 0.08617 0.0
C282 C 0.65538 0.67702 0.20349 0.0
O283 O 0.65951 0.70033 0.17962 0.0
N284 N 0.65091 0.68621 0.0524 0.0
C285 C 0.64442 0.72587 0.97854 0.0
C286 C 0.63758 0.69797 0.97357 0.0
C287 C 0.64065 0.67848 0.0116 0.0
C288 C 0.65757 0.71319 0.05745 0.0
C289 C 0.65479 0.73313 0.02085 0.0
H290 H 0.63385 0.65793 0.00939 0.0
H291 H 0.66472 0.7195 0.09102 0.0
H292 H 0.60842 0.63589 0.107 0.0
H293 H 0.58876 0.71743 0.14408 0.0
H294 H 0.72428 0.67816 0.07272 0.0
H295 H 0.62914 0.69173 0.9418 0.0
H296 H 0.66044 0.7543 0.02615 0.0
C297 C 0.91732 0.3205 0.61387 0.0
C298 C 0.9373 0.31911 0.61131 0.0
N299 N 0.94443 0.34562 0.61059 0.0
N300 N 0.91163 0.34778 0.61427 0.0
C301 C 0.92856 0.36272 0.61298 0.0
H302 H 0.90744 0.30268 0.61432 0.0
Co303 Co 0.88495 0.35812 0.61508 0.0
C304 C 0.88971 0.40762 0.54478 0.0
O305 O 0.88187 0.39331 0.50858 0.0
N306 N 0.85771 0.36814 0.61797 0.0
C307 C 0.82828 0.38688 0.60435 0.0
C308 C 0.8473 0.38559 0.58872 0.0
C309 C 0.8443 0.35901 0.65117 0.0
N310 N 0.82625 0.37009 0.64376 0.0
O311 O 0.88829 0.37145 0.68074 0.0
H312 H 0.85278 0.39704 0.55783 0.0
H313 H 0.84759 0.34411 0.67991 0.0
O314 O 0.89139 0.39632 0.5874 0.0
C315 C 0.8865 0.34873 0.70555 0.0
O316 O 0.88253 0.32507 0.6824 0.0
N317 N 0.88167 0.34038 0.55337 0.0
C318 C 0.88212 0.29778 0.48242 0.0
C319 C 0.89602 0.31947 0.48148 0.0
C320 C 0.89582 0.34022 0.51792 0.0
C321 C 0.86765 0.31987 0.55343 0.0
C322 C 0.86756 0.29849 0.51823 0.0
H323 H 0.90781 0.35506 0.51948 0.0
H324 H 0.85741 0.3184 0.58331 0.0
H325 H 0.92923 0.38557 0.61252 0.0
H326 H 0.94597 0.29999 0.61017 0.0
H327 H 0.81694 0.39983 0.58827 0.0
H328 H 0.90774 0.3193 0.45487 0.0
H329 H 0.85667 0.28193 0.52032 0.0
C330 C 0.61549 0.3253 0.89188 0.0
C331 C 0.59553 0.32374 0.89412 0.0
N332 N 0.58825 0.35017 0.89333 0.0
N333 N 0.62105 0.35262 0.89031 0.0
C334 C 0.60404 0.36741 0.89045 0.0
H335 H 0.62546 0.30756 0.89213 0.0
Co336 Co 0.64769 0.36312 0.8882 0.0
C337 C 0.64448 0.41149 0.9611 0.0
O338 O 0.6535 0.39616 0.99417 0.0
N339 N 0.67491 0.37324 0.88361 0.0
C340 C 0.70415 0.39369 0.89145 0.0
C341 C 0.68555 0.392 0.90984 0.0
C342 C 0.68783 0.36365 0.84953 0.0
N343 N 0.70564 0.37599 0.85316 0.0
O344 O 0.64377 0.37709 0.82304 0.0
H345 H 0.68053 0.40444 0.94006 0.0
H346 H 0.6842 0.34826 0.8218 0.0
O347 O 0.64142 0.40112 0.91815 0.0
C348 C 0.64515 0.35444 0.79775 0.0
O349 O 0.64879 0.33053 0.8204 0.0
N350 N 0.65163 0.34467 0.94906 0.0
C351 C 0.65216 0.30184 0.01954 0.0
C352 C 0.63817 0.32341 0.02165 0.0
C353 C 0.63788 0.34428 0.98548 0.0
C354 C 0.66571 0.32424 0.94769 0.0
C355 C 0.6663 0.30275 0.98263 0.0
H356 H 0.62589 0.35915 0.98506 0.0
H357 H 0.67564 0.323 0.91713 0.0
H358 H 0.60324 0.39024 0.88933 0.0
H359 H 0.58695 0.30455 0.89577 0.0
H360 H 0.71569 0.40712 0.90532 0.0
H361 H 0.62679 0.32311 0.04913 0.0
H362 H 0.67725 0.28632 0.97963 0.0
C363 C 0.91825 0.69966 0.42303 0.0
C364 C 0.93819 0.7019 0.42248 0.0
N365 N 0.94565 0.67869 0.40101 0.0
N366 N 0.91279 0.67483 0.40285 0.0
C367 C 0.9299 0.66299 0.38797 0.0
H368 H 0.90839 0.71553 0.43699 0.0
Co369 Co 0.88624 0.66316 0.39482 0.0
C370 C 0.90487 0.61306 0.44842 0.0
O371 O 0.91988 0.62779 0.46401 0.0
N372 N 0.85988 0.65231 0.38595 0.0
C373 C 0.83016 0.63497 0.39977 0.0
C374 C 0.8489 0.63737 0.41776 0.0
C375 C 0.84744 0.65871 0.34887 0.0
N376 N 0.82927 0.6483 0.35629 0.0
O377 O 0.89203 0.651 0.32952 0.0
H378 H 0.85411 0.62914 0.45233 0.0
H379 H 0.85138 0.67159 0.3178 0.0
O380 O 0.89158 0.62497 0.42243 0.0
C381 C 0.89224 0.67427 0.30586 0.0
O382 O 0.88902 0.69792 0.32977 0.0
N383 N 0.87975 0.67904 0.4557 0.0
C384 C 0.87699 0.71965 0.52929 0.0
C385 C 0.88552 0.69318 0.53883 0.0
C386 C 0.88674 0.67299 0.50135 0.0
C387 C 0.86968 0.70344 0.44751 0.0
C388 C 0.86813 0.72403 0.48371 0.0
H389 H 0.89441 0.65366 0.50856 0.0
H390 H 0.8643 0.70808 0.41114 0.0
H391 H 0.93079 0.64278 0.36952 0.0
H392 H 0.94656 0.71956 0.43642 0.0
H393 H 0.81812 0.6241 0.4172 0.0
H394 H 0.89241 0.68884 0.57376 0.0
H395 H 0.861 0.74386 0.47515 0.0
C396 C 0.41686 0.32131 0.87717 0.0
C397 C 0.43683 0.32049 0.87335 0.0
N398 N 0.4437 0.3471 0.87604 0.0
N399 N 0.41095 0.34832 0.88216 0.0
C400 C 0.42769 0.36368 0.88158 0.0
H401 H 0.40718 0.30327 0.87638 0.0
Co402 Co 0.38426 0.35817 0.88503 0.0
C403 C 0.39041 0.4078 0.95479 0.0
O404 O 0.38449 0.3936 0.99317 0.0
N405 N 0.35702 0.36792 0.88589 0.0
C406 C 0.3276 0.38499 0.90518 0.0
C407 C 0.34665 0.38171 0.92054 0.0
C408 C 0.34362 0.36264 0.85028 0.0
N409 N 0.32567 0.37302 0.86072 0.0
O410 O 0.38618 0.37202 0.81921 0.0
H411 H 0.35228 0.38879 0.95522 0.0
H412 H 0.34688 0.35159 0.81687 0.0
O413 O 0.39076 0.39625 0.91221 0.0
C414 C 0.38402 0.3496 0.7937 0.0
O415 O 0.38029 0.32571 0.81631 0.0
N416 N 0.38243 0.34001 0.94668 0.0
C417 C 0.38396 0.29763 0.01794 0.0
C418 C 0.39796 0.31919 0.01719 0.0
C419 C 0.39723 0.33978 0.98048 0.0
C420 C 0.36845 0.31943 0.94795 0.0
C421 C 0.3689 0.29816 0.98332 0.0
H422 H 0.40921 0.35455 0.97758 0.0
H423 H 0.35769 0.31799 0.91909 0.0
H424 H 0.42814 0.38648 0.88423 0.0
H425 H 0.44568 0.30166 0.86951 0.0
H426 H 0.31601 0.3951 0.92565 0.0
H427 H 0.41005 0.3191 0.04281 0.0
H428 H 0.35795 0.28164 0.98245 0.0
C429 C 0.11923 0.69729 0.37626 0.0
C430 C 0.09937 0.70093 0.374 0.0
N431 N 0.09078 0.6753 0.37324 0.0
N432 N 0.12338 0.66948 0.37741 0.0
C433 C 0.10573 0.65649 0.37554 0.0
H434 H 0.13006 0.71391 0.37626 0.0
Co435 Co 0.14914 0.65593 0.37457 0.0
C436 C 0.14919 0.60853 0.44533 0.0
O437 O 0.16418 0.6213 0.46577 0.0
N438 N 0.1756 0.64235 0.36818 0.0
C439 C 0.19996 0.61249 0.35084 0.0
C440 C 0.18098 0.61483 0.36628 0.0
C441 C 0.19163 0.65611 0.35071 0.0
N442 N 0.20671 0.63845 0.34063 0.0
O443 O 0.14391 0.64176 0.31045 0.0
H444 H 0.17133 0.59703 0.37095 0.0
H445 H 0.19188 0.67834 0.34189 0.0
O446 O 0.1412 0.61971 0.40729 0.0
C447 C 0.1491 0.66295 0.28462 0.0
O448 O 0.15603 0.68544 0.30687 0.0
N449 N 0.1542 0.67427 0.435 0.0
C450 C 0.15444 0.71606 0.5076 0.0
C451 C 0.14217 0.69247 0.51166 0.0
C452 C 0.14196 0.67211 0.47444 0.0
C453 C 0.16662 0.69671 0.43158 0.0
C454 C 0.16709 0.71766 0.46752 0.0
H455 H 0.13085 0.65592 0.47549 0.0
H456 H 0.17486 0.70013 0.39868 0.0
H457 H 0.10391 0.63379 0.37416 0.0
H458 H 0.09183 0.72103 0.37305 0.0
H459 H 0.2076 0.59291 0.34343 0.0
H460 H 0.13183 0.69082 0.54149 0.0
H461 H 0.17663 0.73571 0.46275 0.0
C462 C 0.42081 0.69939 0.11878 0.0
C463 C 0.44079 0.70042 0.11684 0.0
N464 N 0.4477 0.67385 0.11326 0.0
N465 N 0.41485 0.67228 0.11618 0.0
C466 C 0.43164 0.65704 0.11348 0.0
H467 H 0.4111 0.71738 0.12078 0.0
Co468 Co 0.38803 0.66303 0.11463 0.0
C469 C 0.39268 0.61349 0.04392 0.0
O470 O 0.38659 0.62804 0.00604 0.0
N471 N 0.36069 0.65403 0.11448 0.0
C472 C 0.33059 0.64126 0.09212 0.0
C473 C 0.34972 0.64376 0.07736 0.0
C474 C 0.34759 0.65785 0.15122 0.0
N475 N 0.32918 0.6501 0.13887 0.0
O476 O 0.39032 0.64869 0.18015 0.0
H477 H 0.35495 0.63928 0.04105 0.0
H478 H 0.35137 0.66633 0.18644 0.0
O479 O 0.39377 0.62493 0.08652 0.0
C480 C 0.38871 0.67094 0.20634 0.0
O481 O 0.38511 0.69512 0.18449 0.0
N482 N 0.38587 0.68167 0.05357 0.0
C483 C 0.3871 0.72459 0.98338 0.0
C484 C 0.40069 0.70243 0.98227 0.0
C485 C 0.40011 0.68153 0.01843 0.0
C486 C 0.37235 0.70291 0.05427 0.0
C487 C 0.37261 0.72438 0.01938 0.0
H488 H 0.41184 0.66625 0.01993 0.0
H489 H 0.36214 0.70459 0.08424 0.0
H490 H 0.43208 0.63425 0.11027 0.0
H491 H 0.44962 0.71939 0.118 0.0
H492 H 0.31858 0.63419 0.06943 0.0
H493 H 0.41238 0.70225 0.95559 0.0
H494 H 0.36198 0.74129 0.02167 0.0
C495 C 0.11536 0.31872 0.61271 0.0
C496 C 0.09542 0.31848 0.61664 0.0
N497 N 0.08894 0.34532 0.61488 0.0
N498 N 0.12168 0.34557 0.60853 0.0
C499 C 0.10517 0.36147 0.60967 0.0
H500 H 0.1248 0.3004 0.61383 0.0
Co501 Co 0.1486 0.35362 0.60863 0.0
C502 C 0.15123 0.40396 0.54298 0.0
O503 O 0.16338 0.3897 0.51538 0.0
N504 N 0.17661 0.36096 0.61066 0.0
C505 C 0.20847 0.3627 0.59211 0.0
C506 C 0.18993 0.35855 0.57417 0.0
C507 C 0.18791 0.36644 0.65072 0.0
N508 N 0.20725 0.36742 0.64047 0.0
O509 O 0.14589 0.36732 0.67407 0.0
H510 H 0.18675 0.3527 0.53679 0.0
H511 H 0.18229 0.3693 0.68726 0.0
O512 O 0.1437 0.39202 0.58068 0.0
C513 C 0.14808 0.34459 0.69867 0.0
O514 O 0.153 0.32132 0.67553 0.0
N515 N 0.1505 0.33552 0.54766 0.0
C516 C 0.14729 0.29419 0.47502 0.0
C517 C 0.13726 0.32 0.47063 0.0
C518 C 0.13874 0.34026 0.50801 0.0
C519 C 0.16045 0.31068 0.55195 0.0
C520 C 0.15929 0.28998 0.51588 0.0
H521 H 0.1295 0.35876 0.50667 0.0
H522 H 0.1686 0.30625 0.58501 0.0
H523 H 0.10507 0.38433 0.60854 0.0
H524 H 0.08631 0.29993 0.62069 0.0
H525 H 0.22192 0.36084 0.57155 0.0
H526 H 0.12748 0.32378 0.4401 0.0
H527 H 0.16728 0.27042 0.52075 0.0
C528 C 0.24225 0.12831 0.16191 0.0
C529 C 0.22502 0.14235 0.17544 0.0
C530 C 0.25884 0.12826 0.19245 0.0
C531 C 0.25842 0.14303 0.2376 0.0
C532 C 0.24099 0.15708 0.25172 0.0
C533 C 0.22446 0.15634 0.22075 0.0
C534 C 0.2769 0.1126 0.17609 0.0
C535 C 0.23989 0.17332 0.2992 0.0
C536 C 0.29613 0.12332 0.3353 0.0
C537 C 0.31057 0.14411 0.32901 0.0
C538 C 0.27912 0.12285 0.3062 0.0
C539 C 0.27626 0.14375 0.26977 0.0
C540 C 0.29073 0.16487 0.26326 0.0
C541 C 0.30768 0.16474 0.29273 0.0
C542 C 0.26431 0.09967 0.31403 0.0
C543 C 0.28829 0.18769 0.22516 0.0
H544 H 0.24274 0.11731 0.12713 0.0
H545 H 0.21133 0.16758 0.23115 0.0
H546 H 0.28923 0.12761 0.17194 0.0
H547 H 0.28125 0.0969 0.20424 0.0
H548 H 0.2747 0.10143 0.14072 0.0
H549 H 0.22587 0.18491 0.30314 0.0
H550 H 0.24147 0.15856 0.3305 0.0
H551 H 0.25207 0.18872 0.30152 0.0
H552 H 0.29826 0.107 0.36252 0.0
H553 H 0.31854 0.1811 0.28774 0.0
H554 H 0.26257 0.08719 0.27989 0.0
H555 H 0.24986 0.10896 0.32276 0.0
H556 H 0.26856 0.08512 0.34411 0.0
H557 H 0.28711 0.17807 0.18823 0.0
H558 H 0.30068 0.20285 0.22509 0.0
H559 H 0.27456 0.19953 0.2319 0.0
C560 C 0.22519 0.85518 0.77312 0.0
C561 C 0.22497 0.86845 0.81908 0.0
C562 C 0.242 0.85564 0.74335 0.0
C563 C 0.25893 0.87028 0.75931 0.0
C564 C 0.25864 0.88415 0.80535 0.0
C565 C 0.24178 0.88283 0.83476 0.0
C566 C 0.24162 0.84026 0.69493 0.0
C567 C 0.2762 0.90027 0.82371 0.0
C568 C 0.30869 0.85138 0.70456 0.0
C569 C 0.3113 0.8727 0.66935 0.0
C570 C 0.29176 0.85028 0.73381 0.0
C571 C 0.27697 0.87102 0.72809 0.0
C572 C 0.27952 0.8926 0.69274 0.0
C573 C 0.29656 0.89315 0.66389 0.0
C574 C 0.28961 0.8267 0.77062 0.0
C575 C 0.26429 0.9153 0.68563 0.0
H576 H 0.21241 0.84361 0.76115 0.0
H577 H 0.24167 0.8932 0.87013 0.0
H578 H 0.24134 0.85587 0.66465 0.0
H579 H 0.25496 0.8272 0.69037 0.0
H580 H 0.22865 0.82633 0.69137 0.0
H581 H 0.2735 0.91048 0.85971 0.0
H582 H 0.28887 0.8858 0.82739 0.0
H583 H 0.28032 0.91683 0.7969 0.0
H584 H 0.31976 0.83524 0.70886 0.0
H585 H 0.29845 0.90997 0.6375 0.0
H586 H 0.27629 0.81424 0.76231 0.0
H587 H 0.28781 0.83561 0.80792 0.0
H588 H 0.3024 0.81225 0.77078 0.0
H589 H 0.25015 0.90556 0.67514 0.0
H590 H 0.26849 0.93078 0.65696 0.0
H591 H 0.26192 0.92681 0.72053 0.0
C592 C 0.72391 0.86562 0.72699 0.0
C593 C 0.72491 0.87586 0.67871 0.0
C594 C 0.74079 0.86331 0.75649 0.0
C595 C 0.75921 0.87171 0.73774 0.0
C596 C 0.7604 0.88147 0.68884 0.0
C597 C 0.74338 0.88321 0.66002 0.0
C598 C 0.73883 0.85248 0.80821 0.0
C599 C 0.77963 0.89083 0.66722 0.0
C600 C 0.79847 0.89686 0.82715 0.0
C601 C 0.81138 0.87379 0.82885 0.0
C602 C 0.78151 0.89633 0.79802 0.0
C603 C 0.77705 0.872 0.7699 0.0
C604 C 0.78998 0.84856 0.77142 0.0
C605 C 0.80703 0.84981 0.80054 0.0
C606 C 0.76845 0.92205 0.7969 0.0
C607 C 0.78577 0.8221 0.74244 0.0
H608 H 0.70989 0.85995 0.7423 0.0
H609 H 0.74466 0.89051 0.62266 0.0
H610 H 0.74943 0.83515 0.81483 0.0
H611 H 0.74228 0.86967 0.83446 0.0
H612 H 0.72389 0.84457 0.81605 0.0
H613 H 0.77826 0.89701 0.62813 0.0
H614 H 0.78538 0.90914 0.68814 0.0
H615 H 0.79057 0.87363 0.67015 0.0
H616 H 0.80182 0.91568 0.84809 0.0
H617 H 0.81678 0.8318 0.80184 0.0
H618 H 0.75346 0.91626 0.80853 0.0
H619 H 0.76742 0.93028 0.75895 0.0
H620 H 0.77386 0.93924 0.82109 0.0
H621 H 0.77128 0.81352 0.75288 0.0
H622 H 0.79699 0.80548 0.74833 0.0
H623 H 0.78513 0.82711 0.7028 0.0
C624 C 0.74141 0.13189 0.34044 0.0
C625 C 0.72561 0.14953 0.32868 0.0
C626 C 0.75806 0.13046 0.31027 0.0
C627 C 0.75925 0.14768 0.26789 0.0
C628 C 0.74336 0.16569 0.25608 0.0
C629 C 0.72666 0.16608 0.28618 0.0
C630 C 0.77439 0.11048 0.32375 0.0
C631 C 0.7441 0.18494 0.21208 0.0
C632 C 0.81 0.1643 0.21709 0.0
C633 C 0.81083 0.147 0.17542 0.0
C634 C 0.79331 0.16491 0.2472 0.0
C635 C 0.77719 0.14714 0.2363 0.0
C636 C 0.77815 0.12916 0.1948 0.0
C637 C 0.79481 0.12962 0.16455 0.0
C638 C 0.79283 0.18494 0.29021 0.0
C639 C 0.76158 0.1094 0.18235 0.0
H640 H 0.7406 0.11898 0.37312 0.0
H641 H 0.71464 0.18008 0.27736 0.0
H642 H 0.77756 0.09614 0.29259 0.0
H643 H 0.78791 0.12259 0.33145 0.0
H644 H 0.77083 0.0975 0.35642 0.0
H645 H 0.73147 0.19965 0.2107 0.0
H646 H 0.75776 0.19755 0.21251 0.0
H647 H 0.74416 0.17213 0.17806 0.0
H648 H 0.82221 0.1781 0.2252 0.0
H649 H 0.79544 0.11613 0.13251 0.0
H650 H 0.79268 0.17273 0.32486 0.0
H651 H 0.77931 0.19787 0.28923 0.0
H652 H 0.80563 0.19936 0.29078 0.0
H653 H 0.75823 0.09572 0.21424 0.0
H654 H 0.76497 0.09574 0.15038 0.0
H655 H 0.74821 0.12175 0.17402 0.0
C656 C 0.73253 0.63235 0.19289 0.0
C657 C 0.72761 0.65776 0.16971 0.0
C658 C 0.74924 0.63041 0.22305 0.0
C659 C 0.76093 0.65472 0.23153 0.0
C660 C 0.75558 0.68063 0.20919 0.0
C661 C 0.73921 0.68169 0.17802 0.0
C662 C 0.75462 0.60222 0.24503 0.0
C663 C 0.7671 0.70731 0.21838 0.0
C664 C 0.79374 0.65526 0.34497 0.0
C665 C 0.81233 0.65075 0.32484 0.0
C666 C 0.77698 0.65696 0.3151 0.0
C667 C 0.7787 0.65318 0.26377 0.0
C668 C 0.79746 0.64841 0.2433 0.0
C669 C 0.81405 0.64771 0.27395 0.0
C670 C 0.75746 0.66308 0.33846 0.0
C671 C 0.80001 0.64372 0.18901 0.0
H672 H 0.7236 0.61385 0.18618 0.0
H673 H 0.73526 0.70141 0.16043 0.0
H674 H 0.76958 0.59619 0.2334 0.0
H675 H 0.75474 0.60371 0.28555 0.0
H676 H 0.74433 0.58521 0.23402 0.0
H677 H 0.76051 0.72599 0.20012 0.0
H678 H 0.76799 0.71153 0.2583 0.0
H679 H 0.78226 0.70471 0.20486 0.0
H680 H 0.79237 0.6579 0.38422 0.0
H681 H 0.82836 0.64396 0.25832 0.0
H682 H 0.74726 0.6453 0.33168 0.0
H683 H 0.75088 0.68222 0.32174 0.0
H684 H 0.75867 0.66642 0.37862 0.0
H685 H 0.79009 0.6267 0.17624 0.0
H686 H 0.81525 0.63792 0.17938 0.0
H687 H 0.79603 0.66321 0.1688 0.0
C688 C 0.80943 0.35775 0.7217 0.0
C689 C 0.80858 0.36617 0.6724 0.0
C690 C 0.79242 0.35633 0.75071 0.0
C691 C 0.77406 0.36376 0.73029 0.0
C692 C 0.77301 0.37115 0.68014 0.0
C693 C 0.79016 0.37207 0.6519 0.0
C694 C 0.79425 0.34804 0.80386 0.0
C695 C 0.75382 0.37925 0.65666 0.0
C696 C 0.72636 0.34697 0.79767 0.0
C697 C 0.72251 0.37263 0.82164 0.0
C698 C 0.74315 0.34356 0.76825 0.0
C699 C 0.75632 0.36643 0.76216 0.0
C700 C 0.75233 0.39244 0.78579 0.0
C701 C 0.7356 0.39518 0.81511 0.0
C702 C 0.74689 0.31542 0.74403 0.0
C703 C 0.76571 0.41758 0.77984 0.0
H704 H 0.82344 0.35318 0.73825 0.0
H705 H 0.7891 0.37787 0.61368 0.0
H706 H 0.7923 0.36703 0.82721 0.0
H707 H 0.78271 0.33268 0.814 0.0
H708 H 0.80873 0.3386 0.81217 0.0
H709 H 0.75518 0.38248 0.61652 0.0
H710 H 0.74267 0.36272 0.6634 0.0
H711 H 0.74835 0.39912 0.67333 0.0
H712 H 0.71645 0.32939 0.80267 0.0
H713 H 0.73261 0.41528 0.83251 0.0
H714 H 0.7612 0.30693 0.7562 0.0
H715 H 0.74766 0.3181 0.70373 0.0
H716 H 0.73536 0.29967 0.75256 0.0
H717 H 0.78064 0.41211 0.79252 0.0
H718 H 0.76058 0.43632 0.80068 0.0
H719 H 0.76677 0.42338 0.74057 0.0
C720 C 0.24076 0.38352 0.65989 0.0
C721 C 0.22353 0.36977 0.67418 0.0
C722 C 0.25722 0.38449 0.69081 0.0
C723 C 0.25667 0.37093 0.73707 0.0
C724 C 0.23927 0.35708 0.75179 0.0
C725 C 0.22288 0.35692 0.72044 0.0
C726 C 0.27528 0.39987 0.67376 0.0
C727 C 0.23805 0.34206 0.80041 0.0
C728 C 0.30561 0.35072 0.79529 0.0
C729 C 0.30827 0.37219 0.83023 0.0
C730 C 0.28886 0.34989 0.76521 0.0
C731 C 0.27435 0.37113 0.76972 0.0
C732 C 0.27695 0.39285 0.80486 0.0
C733 C 0.29377 0.39307 0.83465 0.0
C734 C 0.28668 0.32618 0.72861 0.0
C735 C 0.26206 0.41616 0.81055 0.0
H736 H 0.24131 0.39363 0.62434 0.0
H737 H 0.20975 0.34588 0.73144 0.0
H738 H 0.27942 0.41633 0.7008 0.0
H739 H 0.2877 0.38489 0.67113 0.0
H740 H 0.27318 0.41008 0.63752 0.0
H741 H 0.2242 0.3301 0.80451 0.0
H742 H 0.25046 0.32715 0.80459 0.0
H743 H 0.2391 0.35768 0.83059 0.0
H744 H 0.31652 0.33427 0.7918 0.0
H745 H 0.29574 0.41002 0.86083 0.0
H746 H 0.28568 0.33492 0.69102 0.0
H747 H 0.27294 0.31445 0.73569 0.0
H748 H 0.2991 0.31108 0.72998 0.0
H749 H 0.26044 0.42774 0.77547 0.0
H750 H 0.26615 0.43148 0.83964 0.0
H751 H 0.24759 0.40704 0.81958 0.0
C752 C 0.22628 0.6652 0.27969 0.0
C753 C 0.22503 0.64447 0.3163 0.0
C754 C 0.24347 0.66857 0.2518 0.0
C755 C 0.25985 0.65092 0.26086 0.0
C756 C 0.25888 0.6308 0.29917 0.0
C757 C 0.24154 0.62782 0.3262 0.0
C758 C 0.24381 0.69022 0.2113 0.0
C759 C 0.27592 0.61161 0.31047 0.0
C760 C 0.2955 0.63393 0.15762 0.0
C761 C 0.31169 0.651 0.16899 0.0
C762 C 0.2785 0.63422 0.18651 0.0
C763 C 0.27749 0.65191 0.22831 0.0
C764 C 0.29367 0.66937 0.23996 0.0
C765 C 0.31051 0.66873 0.21025 0.0
C766 C 0.26171 0.61511 0.17272 0.0
C767 C 0.29329 0.68849 0.28419 0.0
H768 H 0.21356 0.67793 0.27134 0.0
H769 H 0.24074 0.61199 0.35476 0.0
H770 H 0.25684 0.70398 0.21499 0.0
H771 H 0.24487 0.67938 0.17538 0.0
H772 H 0.23051 0.70369 0.21119 0.0
H773 H 0.27333 0.59843 0.34348 0.0
H774 H 0.27864 0.59739 0.2789 0.0
H775 H 0.28937 0.62423 0.3163 0.0
H776 H 0.29619 0.6198 0.12652 0.0
H777 H 0.32268 0.68233 0.21935 0.0
H778 H 0.2481 0.62764 0.16866 0.0
H779 H 0.25918 0.59947 0.20229 0.0
H780 H 0.26441 0.60351 0.13801 0.0
H781 H 0.28028 0.70245 0.2828 0.0
H782 H 0.30659 0.70184 0.28693 0.0
H783 H 0.29211 0.6756 0.31797 0.0
C784 C 0.97985 0.17646 0.15388 0.0
C785 C 0.96651 0.16165 0.12444 0.0
C786 C 1.00006 0.1718 0.15035 0.0
C787 C 1.00733 0.15179 0.11634 0.0
C788 C 0.99388 0.13544 0.08864 0.0
C789 C 0.97361 0.14052 0.09309 0.0
C790 C 1.01368 0.18959 0.18109 0.0
C791 C 1.00092 0.11375 0.05225 0.0
C792 C 0.0571 0.1735 0.068 0.0
C793 C 0.06993 0.15801 0.09776 0.0
C794 C 0.03677 0.17022 0.07148 0.0
C795 C 0.02886 0.15098 0.10585 0.0
C796 C 0.04177 0.13387 0.13382 0.0
C797 C 0.06219 0.13754 0.12936 0.0
C798 C 0.02375 0.18879 0.04049 0.0
C799 C 0.03404 0.11297 0.17063 0.0
H800 H 0.97445 0.19241 0.1789 0.0
H801 H 0.9634 0.12902 0.0702 0.0
H802 H 0.02454 0.17603 0.2 0.0
H803 H 0.02187 0.20431 0.15708 0.0
H804 H 1.00575 0.20222 0.20901 0.0
H805 H 0.9889 0.09978 0.03954 0.0
H806 H 1.00718 0.12465 0.01994 0.0
H807 H 1.01264 0.10053 0.06845 0.0
H808 H 0.06304 0.18906 0.04304 0.0
H809 H 0.07203 0.1256 0.15258 0.0
H810 H 1.01613 0.20429 0.06426 0.0
H811 H 1.0124 0.17593 0.02193 0.0
H812 H 0.03208 0.2006 0.01226 0.0
H813 H 0.02833 0.12453 0.20294 0.0
H814 H 0.04556 0.09811 0.18325 0.0
H815 H 0.02177 0.10064 0.15488 0.0
C816 C 0.55761 0.83752 0.57332 0.0
C817 C 0.57078 0.85004 0.60629 0.0
C818 C 0.53733 0.84051 0.57874 0.0
C819 C 0.52977 0.85671 0.61799 0.0
C820 C 0.54294 0.87051 0.65027 0.0
C821 C 0.56329 0.867 0.64409 0.0
C822 C 0.52396 0.8254 0.5433 0.0
C823 C 0.53554 0.88818 0.69232 0.0
C824 C 0.47522 0.87256 0.60499 0.0
C825 C 0.46698 0.84976 0.63047 0.0
C826 C 0.49567 0.87629 0.60306 0.0
C827 C 0.50817 0.85675 0.62714 0.0
C828 C 0.4998 0.83484 0.65546 0.0
C829 C 0.47941 0.8317 0.65685 0.0
C830 C 0.50392 0.90017 0.57301 0.0
C831 C 0.5124 0.81355 0.68195 0.0
H832 H 0.56316 0.82504 0.54316 0.0
H833 H 0.57328 0.8768 0.66975 0.0
H834 H 0.51538 0.80914 0.56312 0.0
H835 H 0.51342 0.8405 0.52696 0.0
H836 H 0.53211 0.81487 0.51324 0.0
H837 H 0.54744 0.90036 0.71024 0.0
H838 H 0.52415 0.90313 0.67947 0.0
H839 H 0.52871 0.87427 0.7201 0.0
H840 H 0.46575 0.88663 0.58457 0.0
H841 H 0.47317 0.81446 0.67766 0.0
H842 H 0.51032 0.89158 0.5388 0.0
H843 H 0.5158 0.91105 0.59326 0.0
H844 H 0.49256 0.91592 0.56301 0.0
H845 H 0.52025 0.8003 0.65482 0.0
H846 H 0.50371 0.79944 0.70602 0.0
H847 H 0.52357 0.82444 0.70455 0.0
C848 C 0.9726 0.86541 0.85704 0.0
C849 C 0.96568 0.84724 0.8938 0.0
C850 C 0.99284 0.86961 0.84996 0.0
C851 C 1.0065 0.8552 0.8801 0.0
C852 C 0.99953 0.83784 0.91848 0.0
C853 C 0.97935 0.83428 0.92499 0.0
C854 C 0.9996 0.88865 0.8091 0.0
C855 C 1.01341 0.82198 0.95162 0.0
C856 C 0.05629 0.83123 0.8353 0.0
C857 C 0.06908 0.84815 0.86287 0.0
C858 C 0.03595 0.83455 0.83822 0.0
C859 C 0.02798 0.8556 0.86916 0.0
C860 C 0.04081 0.87424 0.89423 0.0
C861 C 0.06123 0.87027 0.89088 0.0
C862 C 0.02299 0.81416 0.81067 0.0
C863 C 0.03299 0.89733 0.92685 0.0
H864 H 0.96225 0.87563 0.83282 0.0
H865 H 0.97428 0.82094 0.95451 0.0
H866 H 1.01127 0.90305 0.82223 0.0
H867 H 1.00587 0.87567 0.77917 0.0
H868 H 0.98745 0.90149 0.79382 0.0
H869 H 1.00569 0.81049 0.98129 0.0
H870 H 0.02188 0.80644 0.92981 0.0
H871 H 0.02402 0.83678 0.96851 0.0
H872 H 0.06222 0.81457 0.81253 0.0
H873 H 0.07097 0.88349 0.91217 0.0
H874 H 1.01161 0.82577 0.78991 0.0
H875 H 1.01541 0.80015 0.83709 0.0
H876 H 0.03137 0.80075 0.78472 0.0
H877 H 0.02074 0.90857 0.90872 0.0
H878 H 0.04447 0.9129 0.93675 0.0
H879 H 0.02724 0.88787 0.96107 0.0
C880 C 0.56214 0.14986 0.40809 0.0
C881 C 0.5702 0.16921 0.37491 0.0
C882 C 0.54172 0.14578 0.4108 0.0
C883 C 0.52911 0.16122 0.37927 0.0
C884 C 0.53739 0.17928 0.34354 0.0
C885 C 0.55772 0.18312 0.34201 0.0
C886 C 0.5336 0.12628 0.44937 0.0
C887 C 0.5247 0.19592 0.30865 0.0
C888 C 0.47438 0.14695 0.36298 0.0
C889 C 0.46623 0.16894 0.39072 0.0
C890 C 0.49484 0.14311 0.36065 0.0
C891 C 0.5074 0.16153 0.38705 0.0
C892 C 0.49907 0.18262 0.41738 0.0
C893 C 0.4787 0.1861 0.41864 0.0
C894 C 0.50302 0.12037 0.32786 0.0
C895 C 0.51172 0.20257 0.44672 0.0
H896 H 0.57171 0.13914 0.43369 0.0
H897 H 0.56391 0.19776 0.3158 0.0
H898 H 0.5268 0.13902 0.47892 0.0
H899 H 0.52204 0.11256 0.43368 0.0
H900 H 0.54512 0.11274 0.46586 0.0
H901 H 0.53339 0.20668 0.27984 0.0
H902 H 0.51389 0.18186 0.2907 0.0
H903 H 0.51644 0.21219 0.32931 0.0
H904 H 0.46482 0.13368 0.34123 0.0
H905 H 0.47247 0.20282 0.4408 0.0
H906 H 0.51465 0.10836 0.34705 0.0
H907 H 0.50973 0.13025 0.29514 0.0
H908 H 0.49155 0.10538 0.3154 0.0
H909 H 0.52256 0.19054 0.4686 0.0
H910 H 0.50302 0.21604 0.47189 0.0
H911 H 0.51996 0.21653 0.42149 0.0
C912 C 0.47579 0.64261 0.13337 0.0
C913 C 0.4681 0.66625 0.10908 0.0
C914 C 0.49616 0.63781 0.13516 0.0
C915 C 0.50909 0.65705 0.11194 0.0
C916 C 0.5012 0.67985 0.08476 0.0
C917 C 0.48092 0.68413 0.08373 0.0
C918 C 0.50388 0.6131 0.16418 0.0
C919 C 0.51425 0.70083 0.05901 0.0
C920 C 0.5591 0.67577 0.1623 0.0
C921 C 0.5717 0.66421 0.12711 0.0
C922 C 0.53881 0.67183 0.15967 0.0
C923 C 0.53072 0.65591 0.12068 0.0
C924 C 0.54346 0.64241 0.08698 0.0
C925 C 0.56385 0.64669 0.09063 0.0
C926 C 0.52597 0.68644 0.19681 0.0
C927 C 0.53553 0.62499 0.04521 0.0
H928 H 0.46598 0.62872 0.15303 0.0
H929 H 0.47505 0.70208 0.064 0.0
H930 H 0.51567 0.60214 0.14381 0.0
H931 H 0.51024 0.62086 0.19906 0.0
H932 H 0.49219 0.59763 0.17291 0.0
H933 H 0.50584 0.71586 0.03592 0.0
H934 H 0.52262 0.71312 0.08657 0.0
H935 H 0.52497 0.68965 0.03552 0.0
H936 H 0.56515 0.68891 0.19108 0.0
H937 H 0.57351 0.63772 0.06334 0.0
H938 H 0.51508 0.67147 0.2119 0.0
H939 H 0.51781 0.70382 0.17874 0.0
H940 H 0.53453 0.69551 0.22763 0.0
H941 H 0.52364 0.61092 0.058 0.0
H942 H 0.54708 0.61194 0.02777 0.0
H943 H 0.52926 0.63924 0.01703 0.0
C944 C 0.06044 0.37346 0.58701 0.0
C945 C 0.06871 0.35371 0.61916 0.0
C946 C 0.04001 0.37763 0.58533 0.0
C947 C 0.02766 0.36185 0.61685 0.0
C948 C 0.0362 0.34347 0.65178 0.0
C949 C 0.05653 0.33956 0.6523 0.0
C950 C 0.03159 0.39751 0.54769 0.0
C951 C 0.02379 0.32644 0.68662 0.0
C952 C 0.97294 0.37489 0.63508 0.0
C953 C 0.96488 0.35298 0.60696 0.0
C954 C 0.99336 0.37918 0.63684 0.0
C955 C 1.00594 0.3613 0.6095 0.0
C956 C 0.99767 0.34035 0.57874 0.0
C957 C 0.97735 0.33642 0.57804 0.0
C958 C 1.00149 0.40178 0.67005 0.0
C959 C 1.01035 0.32095 0.54845 0.0
H960 H 0.06981 0.38435 0.56126 0.0
H961 H 0.06293 0.32459 0.67768 0.0
H962 H 0.02483 0.38507 0.51768 0.0
H963 H 0.01996 0.41082 0.56404 0.0
H964 H 0.04294 0.41147 0.53166 0.0
H965 H 0.0327 0.31558 0.71497 0.0
H966 H 1.01299 0.34024 0.70515 0.0
H967 H 1.01552 0.31023 0.6658 0.0
H968 H 0.96338 0.38769 0.65758 0.0
H969 H 0.97116 0.31979 0.55559 0.0
H970 H 1.01301 0.41404 0.65107 0.0
H971 H 1.00832 0.39172 0.70253 0.0
H972 H 0.98997 0.41655 0.68289 0.0
H973 H 0.02096 0.33341 0.52668 0.0
H974 H 1.00165 0.30759 0.52308 0.0
H975 H 0.01886 0.30688 0.57301 0.0
C976 C 0.4769 0.33998 0.84365 0.0
C977 C 0.46408 0.35503 0.87403 0.0
C978 C 0.49718 0.34417 0.84593 0.0
C979 C 0.50502 0.36382 0.87982 0.0
C980 C 0.49208 0.38033 0.90864 0.0
C981 C 0.47173 0.37582 0.90525 0.0
C982 C 0.51027 0.32632 0.81396 0.0
C983 C 0.49975 0.40153 0.94514 0.0
C984 C 0.55517 0.34127 0.92479 0.0
C985 C 0.56773 0.35726 0.89524 0.0
C986 C 0.53482 0.34454 0.92222 0.0
C987 C 0.52663 0.36419 0.88888 0.0
C988 C 0.53928 0.38158 0.86084 0.0
C989 C 0.55972 0.37799 0.86452 0.0
C990 C 0.52205 0.32574 0.95332 0.0
C991 C 0.53123 0.40279 0.8249 0.0
H992 H 0.47103 0.32425 0.81884 0.0
H993 H 0.4619 0.38745 0.92889 0.0
H994 H 0.52111 0.33977 0.79485 0.0
H995 H 0.51851 0.31114 0.83708 0.0
H996 H 0.5019 0.31418 0.78613 0.0
H997 H 0.48801 0.41553 0.95927 0.0
H998 H 0.50641 0.39019 0.97655 0.0
H999 H 0.51132 0.41477 0.92842 0.0
H1000 H 0.56133 0.32553 0.94912 0.0
H1001 H 0.56937 0.39029 0.84148 0.0
H1002 H 0.51412 0.31058 0.9295 0.0
H1003 H 0.51095 0.33851 0.97293 0.0
H1004 H 0.53063 0.31356 0.98067 0.0
H1005 H 0.52492 0.39147 0.793 0.0
H1006 H 0.54269 0.41745 0.81145 0.0
H1007 H 0.51932 0.41531 0.84182 0.0
C1008 C 0.97965 0.68291 0.43036 0.0
C1009 C 0.96626 0.67228 0.39597 0.0
C1010 C 0.99986 0.67939 0.42449 0.0
C1011 C 1.00711 0.66464 0.38322 0.0
C1012 C 0.99368 0.65262 0.34946 0.0
C1013 C 0.9734 0.65656 0.35623 0.0
C1014 C 1.01349 0.69252 0.46162 0.0
C1015 C 1.00076 0.63654 0.3052 0.0
C1016 C 0.05773 0.68969 0.34662 0.0
C1017 C 0.06996 0.67007 0.3701 0.0
C1018 C 0.03731 0.6872 0.34823 0.0
C1019 C 0.02868 0.66437 0.37377 0.0
C1020 C 0.04092 0.64347 0.39498 0.0
C1021 C 0.06142 0.64656 0.39291 0.0
C1022 C 0.02496 0.70996 0.32483 0.0
C1023 C 0.03239 0.61863 0.42208 0.0
H1024 H 0.9743 0.6944 0.4619 0.0
H1025 H 0.9632 0.64824 0.32952 0.0
H1026 H 0.0239 0.67648 0.47566 0.0
H1027 H 0.0222 0.70943 0.4439 0.0
H1028 H 1.00554 0.70185 0.49316 0.0
H1029 H 0.98866 0.62545 0.28604 0.0
H1030 H 1.0077 0.65139 0.2791 0.0
H1031 H 1.01199 0.6208 0.31595 0.0
H1032 H 0.06416 0.70751 0.32775 0.0
H1033 H 0.07071 0.63127 0.41106 0.0
H1034 H 1.0173 0.72214 0.35375 0.0
H1035 H 1.01363 0.70041 0.30094 0.0
H1036 H 0.0338 0.72488 0.30265 0.0
H1037 H 0.02611 0.62597 0.4573 0.0
H1038 H 0.04354 0.60221 0.43002 0.0
H1039 H 0.02036 0.60894 0.40062 0.0
C1040 C 0.16387 0.06126 0.00041 0.0
C1041 C 0.14994 0.07576 0.02862 0.0
C1042 C 0.16117 0.03303 0.98623 0.0
C1043 C 0.14388 0.01862 -0.00027 0.0
C1044 C 0.12952 0.0332 0.02755 0.0
C1045 C 0.1328 0.06152 0.04215 0.0
C1046 C 0.17716 0.01839 0.95776 0.0
C1047 C 0.11075 0.01881 0.04203 0.0
C1048 C 0.13688 0.94964 0.92818 0.0
C1049 C 0.14552 0.92997 0.95999 0.0
C1050 C 0.13499 0.97838 0.94177 0.0
C1051 C 0.142 0.98771 0.98807 0.0
C1052 C 0.14974 0.96759 0.02111 0.0
C1053 C 0.15131 0.93918 0.00682 0.0
C1054 C 0.12635 0.99901 0.90568 0.0
C1055 C 0.15758 0.9763 0.07061 0.0
H1056 H 0.17724 0.07191 0.98994 0.0
H1057 H 0.12187 0.0726 0.06346 0.0
H1058 H 0.18292 1.00031 0.97925 0.0
H1059 H 0.17124 0.00977 0.923 0.0
H1060 H 0.18949 0.03275 0.949 0.0
H1061 H 0.10043 0.03353 0.06031 0.0
H1062 H 0.10354 0.00971 0.00921 0.0
H1063 H 0.11394 1.00107 0.06731 0.0
H1064 H 0.13222 0.94284 0.89211 0.0
H1065 H 0.15776 0.92426 0.03223 0.0
H1066 H 0.13811 0.0125 0.89049 0.0
H1067 H 0.11573 0.01315 0.92415 0.0
H1068 H 0.1189 0.98811 0.87482 0.0
H1069 H 0.17086 0.98943 0.06563 0.0
H1070 H 0.16145 0.95785 0.0938 0.0
H1071 H 0.14671 0.98935 0.09045 0.0
C1072 C 0.41101 0.94541 0.50085 0.0
C1073 C 0.39808 0.93699 0.53779 0.0
C1074 C 0.41254 0.97392 0.48678 0.0
C1075 C 0.40023 0.99436 0.50876 0.0
C1076 C 0.38743 0.98597 0.54694 0.0
C1077 C 0.38671 0.95741 0.56146 0.0
C1078 C 0.4269 0.98198 0.44731 0.0
C1079 C 0.37373 1.00687 0.57068 0.0
C1080 C 0.40974 0.07358 0.50052 0.0
C1081 C 0.39729 0.08167 0.46224 0.0
C1082 C 0.41162 0.04508 0.51437 0.0
C1083 C 0.40015 0.02425 0.49066 0.0
C1084 C 0.3879 0.0323 0.45102 0.0
C1085 C 0.38682 0.0609 0.43685 0.0
C1086 C 0.42538 0.03745 0.55554 0.0
C1087 C 0.37511 0.01095 0.42536 0.0
H1088 H 0.41965 0.92951 0.48218 0.0
H1089 H 0.37637 0.95077 0.5892 0.0
H1090 H 0.41889 0.98837 0.41377 0.0
H1091 H 0.43579 1.00035 0.45922 0.0
H1092 H 0.43687 0.96428 0.43783 0.0
H1093 H 0.36492 0.99713 0.60035 0.0
H1094 H 0.38208 0.02483 0.58622 0.0
H1095 H 0.36364 0.01563 0.5427 0.0
H1096 H 0.4177 0.08972 0.52047 0.0
H1097 H 0.37685 0.06725 0.40799 0.0
H1098 H 0.43478 0.0194 0.5447 0.0
H1099 H 0.41687 0.03074 0.58804 0.0
H1100 H 0.43486 0.05546 0.56629 0.0
H1101 H 0.38407 0.99325 0.41115 0.0
H1102 H 0.36682 0.02039 0.39442 0.0
H1103 H 0.36455 1.00188 0.45185 0.0
C1104 C 0.8846 0.95176 0.96136 0.0
C1105 C 0.90278 0.93808 0.96282 0.0
C1106 C 0.88249 0.97981 0.97791 0.0
C1107 C 0.89902 0.99485 0.99532 0.0
C1108 C 0.91744 0.98126 0.99626 0.0
C1109 C 0.91905 0.95305 0.98049 0.0
C1110 C 0.86253 0.99334 0.97681 0.0
C1111 C 0.93554 0.99664 0.01328 0.0
C1112 C 0.89582 0.07507 0.9883 0.0
C1113 C 0.89197 0.08262 0.03703 0.0
C1114 C 0.89872 0.04677 0.97465 0.0
C1115 C 0.8972 0.0252 0.01034 0.0
C1116 C 0.89365 0.03271 0.05989 0.0
C1117 C 0.89133 0.06141 0.07278 0.0
C1118 C 0.90306 0.03993 0.92174 0.0
C1119 C 0.8916 0.01038 0.09893 0.0
H1120 H 0.87194 0.94044 0.94796 0.0
H1121 H 0.9332 0.94279 0.98154 0.0
H1122 H 0.85873 1.00143 0.01373 0.0
H1123 H 0.86259 0.01167 0.95153 0.0
H1124 H 0.85098 0.97837 0.96475 0.0
H1125 H 0.94876 0.98306 0.01205 0.0
H1126 H 0.93806 0.01546 0.98991 0.0
H1127 H 0.93354 1.00432 0.05132 0.0
H1128 H 0.89644 0.09143 0.96056 0.0
H1129 H 0.88813 0.06712 0.11036 0.0
H1130 H 0.89094 0.02732 0.90594 0.0
H1131 H 0.91651 0.02694 0.91913 0.0
H1132 H 0.90501 0.05924 0.89916 0.0
H1133 H 0.87904 0.99645 0.09006 0.0
H1134 H 0.88928 0.01963 0.13585 0.0
H1135 H 0.90483 0.99687 0.09999 0.0
C1136 C 0.64414 0.06702 0.4311 0.0
C1137 C 0.64403 0.08828 0.46685 0.0
C1138 C 0.64174 0.03837 0.44416 0.0
C1139 C 0.63866 0.03094 0.49394 0.0
C1140 C 0.63767 0.05257 0.52968 0.0
C1141 C 0.64061 0.08082 0.51582 0.0
C1142 C 0.64323 0.01597 0.40502 0.0
C1143 C 0.63385 0.04585 0.58287 0.0
C1144 C 0.61682 0.959 0.52525 0.0
C1145 C 0.6332 0.94388 0.54194 0.0
C1146 C 0.61838 0.9872 0.50941 0.0
C1147 C 0.63686 1.00062 0.50914 0.0
C1148 C 0.65349 0.98542 0.52556 0.0
C1149 C 0.65142 0.95743 0.54234 0.0
C1150 C 0.60018 1.00276 0.49362 0.0
C1151 C 0.67352 0.99873 0.52529 0.0
H1152 H 0.647 0.07265 0.39331 0.0
H1153 H 0.64041 0.0972 0.5436 0.0
H1154 H 0.65581 1.0019 0.413 0.0
H1155 H 0.62992 1.00262 0.40492 0.0
H1156 H 0.64517 0.02516 0.36792 0.0
H1157 H 0.63222 0.06521 0.60554 0.0
H1158 H 0.62039 0.03299 0.5864 0.0
H1159 H 0.64609 0.03316 0.59791 0.0
H1160 H 0.60263 0.94886 0.52505 0.0
H1161 H 0.66417 0.94604 0.55504 0.0
H1162 H 0.60178 0.01033 0.45542 0.0
H1163 H 0.59801 0.02165 0.51708 0.0
H1164 H 0.5869 0.98934 0.49586 0.0
H1165 H 0.67696 1.00675 0.48811 0.0
H1166 H 0.68512 0.98365 0.53655 0.0
H1167 H 0.67382 0.01709 0.55055 0.0
C1168 C 0.63305 0.57581 0.04487 0.0
C1169 C 0.6516 0.58758 0.03719 0.0
C1170 C 0.62876 0.54795 0.02957 0.0
C1171 C 0.64352 0.53123 0.0073 0.0
C1172 C 0.66222 0.54317 0.99945 0.0
C1173 C 0.66592 0.57114 0.01392 0.0
C1174 C 0.60852 0.53632 0.03763 0.0
C1175 C 0.6786 0.52609 0.97714 0.0
C1176 C 0.64467 0.45141 0.021 0.0
C1177 C 0.64102 0.44192 0.97301 0.0
C1178 C 0.64456 0.48024 0.03299 0.0
C1179 C 0.64031 0.50049 0.99643 0.0
C1180 C 0.63528 0.49108 0.94861 0.0
C1181 C 0.63582 0.4619 0.93733 0.0
C1182 C 0.65026 0.48904 0.08426 0.0
C1183 C 0.6302 0.5119 0.90882 0.0
H1184 H 0.62183 0.58847 0.06224 0.0
H1185 H 0.68033 0.57998 0.00794 0.0
H1186 H 0.60279 0.52704 0.00314 0.0
H1187 H 0.60904 0.51913 0.06517 0.0
H1188 H 0.59817 0.55278 0.05061 0.0
H1189 H 0.69214 0.53869 0.97229 0.0
H1190 H 0.68198 0.50772 0.00093 0.0
H1191 H 0.67408 0.51768 0.94095 0.0
H1192 H 0.64844 0.4363 0.04928 0.0
H1193 H 0.63285 0.4549 0.90027 0.0
H1194 H 0.63925 0.50371 0.09974 0.0
H1195 H 0.6644 0.50049 0.08316 0.0
H1196 H 0.65181 0.47071 0.10934 0.0
H1197 H 0.6198 0.528 0.92271 0.0
H1198 H 0.62368 0.50134 0.87633 0.0
H1199 H 0.64359 0.52317 0.89704 0.0
C1200 C 0.89989 0.44601 0.48807 0.0
C1201 C 0.89454 0.43775 0.53554 0.0
C1202 C 0.90209 0.47459 0.47557 0.0
C1203 C 0.89853 0.49572 0.51116 0.0
C1204 C 0.89361 0.48754 0.55962 0.0
C1205 C 0.89183 0.4586 0.57138 0.0
C1206 C 0.9078 0.48217 0.42381 0.0
C1207 C 0.88955 0.50939 0.59855 0.0
C1208 C 0.91909 0.56905 0.48511 0.0
C1209 C 0.90299 0.58305 0.46429 0.0
C1210 C 0.91776 0.5409 0.50121 0.0
C1211 C 0.89981 0.52627 0.49705 0.0
C1212 C 0.88341 0.54036 0.47661 0.0
C1213 C 0.88523 0.56847 0.46016 0.0
C1214 C 0.93571 0.52664 0.52184 0.0
C1215 C 0.86395 0.52564 0.47181 0.0
H1216 H 0.90209 0.42998 0.46022 0.0
H1217 H 0.88747 0.45237 0.60795 0.0
H1218 H 0.89582 0.4942 0.40606 0.0
H1219 H 0.92089 0.49597 0.42409 0.0
H1220 H 0.91101 0.46322 0.40118 0.0
H1221 H 0.88656 0.49968 0.63479 0.0
H1222 H 0.90215 0.52395 0.60222 0.0
H1223 H 0.87674 0.52232 0.58767 0.0
H1224 H 0.93292 0.58002 0.48839 0.0
H1225 H 0.87267 0.57909 0.44448 0.0
H1226 H 0.93973 0.50831 0.49859 0.0
H1227 H 0.93264 0.51839 0.55905 0.0
H1228 H 0.94842 0.54115 0.52397 0.0
H1229 H 0.8653 0.50743 0.44643 0.0
H1230 H 0.85235 0.53995 0.45782 0.0
H1231 H 0.85934 0.51717 0.50786 0.0
C1232 C 0.40808 0.44639 0.998 0.0
C1233 C 0.39474 0.43813 0.96175 0.0
C1234 C 0.41003 0.4749 0.01178 0.0
C1235 C 0.39773 0.49554 0.99023 0.0
C1236 C 0.38449 0.48729 0.95278 0.0
C1237 C 0.38335 0.45871 0.93852 0.0
C1238 C 0.42483 0.48277 0.05046 0.0
C1239 C 0.37081 0.50841 0.92953 0.0
C1240 C 0.38601 0.56267 0.0624 0.0
C1241 C 0.39653 0.58305 0.03635 0.0
C1242 C 0.38647 0.53403 0.04825 0.0
C1243 C 0.39819 0.52551 0.00797 0.0
C1244 C 0.40971 0.54592 0.98348 0.0
C1245 C 0.40843 0.57449 0.99733 0.0
C1246 C 0.37363 0.51314 0.07474 0.0
C1247 C 0.42294 0.53775 0.94163 0.0
H1248 H 0.41675 0.43037 0.01631 0.0
H1249 H 0.37271 0.4522 0.91131 0.0
H1250 H 0.43383 0.50085 0.03787 0.0
H1251 H 0.4172 0.48954 0.08428 0.0
H1252 H 0.43466 0.46487 0.05969 0.0
H1253 H 0.3616 0.49876 0.90046 0.0
H1254 H 0.36109 0.51754 0.95795 0.0
H1255 H 0.37921 0.5261 0.91335 0.0
H1256 H 0.37648 0.56939 0.09189 0.0
H1257 H 0.41646 0.59033 0.97694 0.0
H1258 H 0.38249 0.49529 0.08881 0.0
H1259 H 0.36276 0.5042 0.04883 0.0
H1260 H 0.36571 0.52295 0.1059 0.0
H1261 H 0.43227 0.51957 0.95222 0.0
H1262 H 0.43249 0.55549 0.93004 0.0
H1263 H 0.41403 0.53103 0.90975 0.0
C1264 C 0.15228 0.56996 0.50727 0.0
C1265 C 0.14389 0.57978 0.46344 0.0
C1266 C 0.15032 0.54175 0.5223 0.0
C1267 C 0.1395 0.52257 0.49318 0.0
C1268 C 0.12979 0.53275 0.45069 0.0
C1269 C 0.13216 0.56122 0.43618 0.0
C1270 C 0.16107 0.53205 0.56764 0.0
C1271 C 0.11782 0.5132 0.41902 0.0
C1272 C 0.15925 0.44751 0.49552 0.0
C1273 C 0.14713 0.434 0.52976 0.0
C1274 C 0.15648 0.47589 0.48245 0.0
C1275 C 0.14098 0.49149 0.50349 0.0
C1276 C 0.12827 0.47788 0.5371 0.0
C1277 C 0.13159 0.44935 0.55022 0.0
C1278 C 0.17066 0.48944 0.44718 0.0
C1279 C 0.11137 0.49358 0.55975 0.0
H1280 H 0.16115 0.58412 0.52918 0.0
H1281 H 0.1255 0.56856 0.40246 0.0
H1282 H 0.15124 0.51973 0.59177 0.0
H1283 H 0.17329 0.51795 0.55689 0.0
H1284 H 0.16716 0.55001 0.58895 0.0
H1285 H 0.10859 0.52501 0.39253 0.0
H1286 H 0.1277 0.49906 0.39816 0.0
H1287 H 0.10829 0.49963 0.44194 0.0
H1288 H 0.17135 0.43604 0.47945 0.0
H1289 H 0.12204 0.4391 0.57635 0.0
H1290 H 0.17861 0.50682 0.46583 0.0
H1291 H 0.16266 0.49883 0.41582 0.0
H1292 H 0.18154 0.47416 0.43273 0.0
H1293 H 0.11697 0.51024 0.58466 0.0
H1294 H 0.10164 0.47936 0.58095 0.0
H1295 H 0.10265 0.50425 0.5309 0.0
C1296 C 0.12708 0.33278 0.76815 0.0
C1297 C 0.1452 0.34248 0.75159 0.0
C1298 C 0.12573 0.31629 0.81075 0.0
C1299 C 0.14298 0.30931 0.83679 0.0
C1300 C 0.16089 0.32214 0.82346 0.0
C1301 C 0.16177 0.33854 0.78078 0.0
C1302 C 0.10626 0.30363 0.82428 0.0
C1303 C 0.17965 0.31569 0.85033 0.0
C1304 C 0.14248 0.26682 0.95486 0.0
C1305 C 0.14634 0.2394 0.93757 0.0
C1306 C 0.14072 0.28973 0.92251 0.0
C1307 C 0.14304 0.28515 0.87171 0.0
C1308 C 0.14641 0.25738 0.85396 0.0
C1309 C 0.14788 0.23481 0.88712 0.0
C1310 C 0.13687 0.31888 0.94276 0.0
C1311 C 0.14905 0.25161 0.79997 0.0
H1312 H 0.11433 0.33531 0.74489 0.0
H1313 H 0.17585 0.34556 0.76741 0.0
H1314 H 0.10563 0.28147 0.81106 0.0
H1315 H 0.10428 0.30328 0.86458 0.0
H1316 H 0.09394 0.31546 0.80746 0.0
H1317 H 0.19089 0.33211 0.84339 0.0
H1318 H 0.17723 0.31411 0.89037 0.0
H1319 H 0.18543 0.29508 0.83745 0.0
H1320 H 0.14094 0.27036 0.99389 0.0
H1321 H 0.15091 0.21369 0.87372 0.0
H1322 H 0.12428 0.32871 0.92362 0.0
H1323 H 0.14975 0.33258 0.93624 0.0
H1324 H 0.13381 0.31852 0.9827 0.0
H1325 H 0.13616 0.2593 0.77921 0.0
H1326 H 0.15106 0.22876 0.79206 0.0
H1327 H 0.162 0.26324 0.78623 0.0
C1328 C 0.38829 0.77711 0.3985 0.0
C1329 C 0.38707 0.77232 0.44891 0.0
C1330 C 0.38923 0.75445 0.36543 0.0
C1331 C 0.38947 0.7263 0.38336 0.0
C1332 C 0.38877 0.72139 0.43442 0.0
C1333 C 0.38733 0.74449 0.46662 0.0
C1334 C 0.38964 0.76066 0.31119 0.0
C1335 C 0.38952 0.69182 0.45497 0.0
C1336 C 0.37203 0.67641 0.28504 0.0
C1337 C 0.38951 0.67127 0.25999 0.0
C1338 C 0.37188 0.69207 0.32864 0.0
C1339 C 0.38973 0.70235 0.34789 0.0
C1340 C 0.40758 0.6936 0.3265 0.0
C1341 C 0.40725 0.67836 0.2823 0.0
C1342 C 0.35244 0.70083 0.34987 0.0
C1343 C 0.42697 0.70323 0.34679 0.0
H1344 H 0.38807 0.79864 0.38493 0.0
H1345 H 0.38665 0.74085 0.50577 0.0
H1346 H 0.40314 0.75192 0.2947 0.0
H1347 H 0.37706 0.75029 0.29286 0.0
H1348 H 0.38904 0.78368 0.30331 0.0
H1349 H 0.38995 0.69168 0.49563 0.0
H1350 H 0.37655 0.67969 0.44268 0.0
H1351 H 0.40261 0.6806 0.44095 0.0
H1352 H 0.35827 0.67117 0.26774 0.0
H1353 H 0.42077 0.67483 0.26255 0.0
H1354 H 0.34917 0.72285 0.33852 0.0
H1355 H 0.35277 0.70035 0.39044 0.0
H1356 H 0.34038 0.68703 0.33683 0.0
H1357 H 0.42979 0.72528 0.33497 0.0
H1358 H 0.43915 0.68977 0.3334 0.0
H1359 H 0.42691 0.70291 0.38741 0.0
C1360 C 0.14355 0.77209 0.09344 0.0
C1361 C 0.14332 0.76679 0.04303 0.0
C1362 C 0.14258 0.74981 0.12731 0.0
C1363 C 0.1411 0.72154 0.11032 0.0
C1364 C 0.13995 0.71618 0.05946 0.0
C1365 C 0.14118 0.73885 0.02641 0.0
C1366 C 0.14393 0.75648 0.1813 0.0
C1367 C 0.138 0.68648 0.03991 0.0
C1368 C 0.1626 0.67149 0.20335 0.0
C1369 C 0.14616 0.66517 0.23165 0.0
C1370 C 0.16096 0.68773 0.16065 0.0
C1371 C 0.14236 0.6978 0.14606 0.0
C1372 C 0.12546 0.68846 0.17126 0.0
C1373 C 0.12758 0.67226 0.21411 0.0
C1374 C 0.17938 0.69696 0.1349 0.0
C1375 C 0.10533 0.69821 0.15639 0.0
H1376 H 0.14524 0.79361 0.1064 0.0
H1377 H 0.14063 0.73469 0.9874 0.0
H1378 H 0.13134 0.74716 0.20103 0.0
H1379 H 0.1574 0.74693 0.19679 0.0
H1380 H 0.14422 0.77957 0.18856 0.0
H1381 H 0.13505 0.68613 -9e-05 0.0
H1382 H 0.15169 0.67461 0.047 0.0
H1383 H 0.12605 0.67516 0.05902 0.0
H1384 H 0.177 0.66645 0.21759 0.0
H1385 H 0.11491 0.66795 0.23669 0.0
H1386 H 0.18236 0.71945 0.1437 0.0
H1387 H 0.17769 0.69528 0.09463 0.0
H1388 H 0.19224 0.68422 0.14632 0.0
H1389 H 0.10302 0.72015 0.1695 0.0
H1390 H 0.09377 0.68462 0.17244 0.0
H1391 H 0.10372 0.69829 0.11597 0.0
C1392 C 0.40258 0.3426 0.71778 0.0
C1393 C 0.3847 0.34871 0.7401 0.0
C1394 C 0.40327 0.32697 0.67402 0.0
C1395 C 0.38564 0.31691 0.65305 0.0
C1396 C 0.36754 0.32615 0.67232 0.0
C1397 C 0.36732 0.34214 0.71554 0.0
C1398 C 0.42288 0.31837 0.65382 0.0
C1399 C 0.34835 0.316 0.65143 0.0
C1400 C 0.38404 0.27422 0.53488 0.0
C1401 C 0.38446 0.24645 0.55288 0.0
C1402 C 0.38503 0.2975 0.56679 0.0
C1403 C 0.38601 0.29283 0.61789 0.0
C1404 C 0.38655 0.26475 0.63613 0.0
C1405 C 0.38599 0.24192 0.60333 0.0
C1406 C 0.38493 0.32702 0.54591 0.0
C1407 C 0.38733 0.25878 0.69043 0.0
H1408 H 0.41603 0.34721 0.73726 0.0
H1409 H 0.35347 0.34655 0.73309 0.0
H1410 H 0.42636 0.29659 0.66609 0.0
H1411 H 0.42272 0.31838 0.6132 0.0
H1412 H 0.43469 0.33263 0.66683 0.0
H1413 H 0.33582 0.32863 0.66522 0.0
H1414 H 0.34843 0.31693 0.61088 0.0
H1415 H 0.34604 0.29362 0.6621 0.0
H1416 H 0.38316 0.27771 0.49571 0.0
H1417 H 0.38629 0.22046 0.61717 0.0
H1418 H 0.39768 0.33905 0.5599 0.0
H1419 H 0.37162 0.3384 0.55795 0.0
H1420 H 0.38536 0.32702 0.50525 0.0
H1421 H 0.40057 0.26852 0.70668 0.0
H1422 H 0.38754 0.23579 0.69857 0.0
H1423 H 0.37446 0.26833 0.70877 0.0
C1424 C 0.8767 0.67433 0.22475 0.0
C1425 C 0.89384 0.67635 0.2525 0.0
C1426 C 0.87429 0.69051 0.18203 0.0
C1427 C 0.88961 0.70852 0.16653 0.0
C1428 C 0.9079 0.70736 0.19072 0.0
C1429 C 0.90973 0.69145 0.23381 0.0
C1430 C 0.85456 0.69092 0.15732 0.0
C1431 C 0.92483 0.72555 0.17473 0.0
C1432 C 0.88569 0.75049 0.04812 0.0
C1433 C 0.8799 0.77718 0.06542 0.0
C1434 C 0.88866 0.72776 0.08033 0.0
C1435 C 0.88564 0.73175 0.13105 0.0
C1436 C 0.87948 0.75855 0.14863 0.0
C1437 C 0.87684 0.78099 0.11564 0.0
C1438 C 0.89549 0.69973 0.06024 0.0
C1439 C 0.87589 0.76362 0.20248 0.0
H1440 H 0.86435 0.6628 0.23935 0.0
H1441 H 0.9229 0.69332 0.25573 0.0
H1442 H 0.84656 0.71025 0.16864 0.0
H1443 H 0.85609 0.69154 0.11692 0.0
H1444 H 0.84562 0.67226 0.16755 0.0
H1445 H 0.93882 0.71839 0.19125 0.0
H1446 H 0.92631 0.72541 0.13429 0.0
H1447 H 0.92218 0.7477 0.18629 0.0
H1448 H 0.8884 0.74756 0.00934 0.0
H1449 H 0.87228 0.80152 0.12906 0.0
H1450 H 0.88572 0.6825 0.0727 0.0
H1451 H 0.91032 0.69496 0.07444 0.0
H1452 H 0.89599 0.69957 0.01959 0.0
H1453 H 0.86518 0.74806 0.21664 0.0
H1454 H 0.87029 0.78524 0.20991 0.0
H1455 H 0.88967 0.76063 0.22327 0.0
C1456 C 0.64462 0.27985 0.53754 0.0
C1457 C 0.64632 0.25186 0.55416 0.0
C1458 C 0.64309 0.30252 0.57059 0.0
C1459 C 0.64354 0.29713 0.62151 0.0
C1460 C 0.64497 0.26885 0.63846 0.0
C1461 C 0.64618 0.24657 0.60458 0.0
C1462 C 0.64119 0.33223 0.55107 0.0
C1463 C 0.64567 0.26215 0.6925 0.0
C1464 C 0.66106 0.34833 0.71836 0.0
C1465 C 0.64375 0.35319 0.74425 0.0
C1466 C 0.66105 0.33212 0.67529 0.0
C1467 C 0.64322 0.32082 0.65763 0.0
C1468 C 0.62544 0.32885 0.68023 0.0
C1469 C 0.62594 0.3448 0.72366 0.0
C1470 C 0.68038 0.32422 0.65252 0.0
C1471 C 0.60606 0.31789 0.66199 0.0
H1472 H 0.64442 0.28399 0.4985 0.0
H1473 H 0.64756 0.22501 0.61752 0.0
H1474 H 0.6282 0.34269 0.56721 0.0
H1475 H 0.65415 0.34484 0.56188 0.0
H1476 H 0.63985 0.33271 0.51053 0.0
H1477 H 0.64672 0.23909 0.69965 0.0
H1478 H 0.65845 0.27272 0.70957 0.0
H1479 H 0.63239 0.27038 0.71083 0.0
H1480 H 0.67487 0.35435 0.73479 0.0
H1481 H 0.61259 0.34798 0.74428 0.0
H1482 H 0.67959 0.3254 0.61203 0.0
H1483 H 0.68401 0.30209 0.66242 0.0
H1484 H 0.69242 0.33809 0.66547 0.0
H1485 H 0.60543 0.31825 0.6214 0.0
H1486 H 0.59367 0.33044 0.67671 0.0
H1487 H 0.60422 0.29564 0.67389 0.0
C1488 C 0.89017 0.24058 0.89849 0.0
C1489 C 0.89038 0.246 0.94886 0.0
C1490 C 0.89094 0.26281 0.86448 0.0
C1491 C 0.89227 0.29114 0.88127 0.0
C1492 C 0.89326 0.29664 0.93212 0.0
C1493 C 0.89216 0.27402 0.96532 0.0
C1494 C 0.88971 0.25601 0.81052 0.0
C1495 C 0.89502 0.32641 0.95144 0.0
C1496 C 0.90711 0.33947 0.77744 0.0
C1497 C 0.88878 0.34698 0.75879 0.0
C1498 C 0.90871 0.32356 0.82074 0.0
C1499 C 0.89151 0.31477 0.8452 0.0
C1500 C 0.87316 0.32524 0.82948 0.0
C1501 C 0.87204 0.34125 0.78634 0.0
C1502 C 0.92861 0.31351 0.8369 0.0
C1503 C 0.85442 0.31665 0.85439 0.0
H1504 H 0.88874 0.21899 0.8857 0.0
H1505 H 0.89263 0.27825 0.00432 0.0
H1506 H 0.87644 0.26589 0.79458 0.0
H1507 H 0.90251 0.26489 0.79106 0.0
H1508 H 0.88914 0.2329 0.80347 0.0
H1509 H 0.8973 0.32694 0.99171 0.0
H1510 H 0.90736 0.33745 0.93344 0.0
H1511 H 0.88155 0.33843 0.94268 0.0
H1512 H 0.92003 0.34332 0.75548 0.0
H1513 H 0.85784 0.34655 0.77131 0.0
H1514 H 0.93077 0.29137 0.82465 0.0
H1515 H 0.92989 0.31386 0.87739 0.0
H1516 H 0.94045 0.32665 0.82101 0.0
H1517 H 0.85047 0.29493 0.84269 0.0
H1518 H 0.8422 0.33102 0.84462 0.0
H1519 H 0.85611 0.3165 0.89476 0.0
C1520 C 0.65846 0.75544 0.45929 0.0
C1521 C 0.6607 0.78306 0.44112 0.0
C1522 C 0.6572 0.73211 0.42766 0.0
C1523 C 0.65804 0.73647 0.37654 0.0
C1524 C 0.66021 0.76428 0.3579 0.0
C1525 C 0.66151 0.78721 0.3904 0.0
C1526 C 0.65484 0.70287 0.44889 0.0
C1527 C 0.66115 0.76983 0.30349 0.0
C1528 C 0.6729 0.6832 0.28077 0.0
C1529 C 0.65506 0.67882 0.25689 0.0
C1530 C 0.67391 0.6997 0.3234 0.0
C1531 C 0.65664 0.71222 0.34194 0.0
C1532 C 0.63833 0.70485 0.32132 0.0
C1533 C 0.63777 0.68813 0.27886 0.0
C1534 C 0.6937 0.70651 0.34471 0.0
C1535 C 0.61954 0.71747 0.34014 0.0
H1536 H 0.65735 0.75204 0.49843 0.0
H1537 H 0.66334 0.8084 0.3761 0.0
H1538 H 0.6409 0.69346 0.43611 0.0
H1539 H 0.66678 0.68892 0.43588 0.0
H1540 H 0.65492 0.70299 0.48957 0.0
H1541 H 0.66275 0.79266 0.29495 0.0
H1542 H 0.67368 0.75827 0.28729 0.0
H1543 H 0.64769 0.7619 0.28546 0.0
H1544 H 0.6863 0.67649 0.26309 0.0
H1545 H 0.62403 0.68529 0.25962 0.0
H1546 H 0.69323 0.7065 0.3853 0.0
H1547 H 0.69816 0.72798 0.3328 0.0
H1548 H 0.70503 0.69126 0.33238 0.0
H1549 H 0.61929 0.71771 0.38073 0.0
H1550 H 0.60657 0.70571 0.32662 0.0
H1551 H 0.61837 0.73968 0.32742 0.0
C1552 C 0.63475 0.77514 0.95517 0.0
C1553 C 0.64056 0.74786 0.94092 0.0
C1554 C 0.63303 0.79708 0.92088 0.0
C1555 C 0.63728 0.79166 0.87114 0.0
C1556 C 0.6424 0.7639 0.85622 0.0
C1557 C 0.64391 0.7423 0.8913 0.0
C1558 C 0.62728 0.82623 0.93812 0.0
C1559 C 0.647 0.75721 0.8034 0.0
C1560 C 0.62271 0.83677 0.76277 0.0
C1561 C 0.64079 0.84823 0.74969 0.0
C1562 C 0.62078 0.82029 0.80524 0.0
C1563 C 0.63744 0.81506 0.83468 0.0
C1564 C 0.65518 0.82925 0.82433 0.0
C1565 C 0.65663 0.84569 0.78176 0.0
C1566 C 0.60152 0.80599 0.81532 0.0
C1567 C 0.67328 0.8245 0.85489 0.0
H1568 H 0.6318 0.77942 0.99345 0.0
H1569 H 0.64848 0.72133 0.88017 0.0
H1570 H 0.6398 0.84087 0.93372 0.0
H1571 H 0.61512 0.83459 0.9155 0.0
H1572 H 0.62275 0.82639 0.97717 0.0
H1573 H 0.64999 0.73438 0.79751 0.0
H1574 H 0.63462 0.76355 0.77955 0.0
H1575 H 0.65997 0.76945 0.79156 0.0
H1576 H 0.6106 0.83818 0.7372 0.0
H1577 H 0.67073 0.85403 0.77092 0.0
H1578 H 0.59822 0.80601 0.85507 0.0
H1579 H 0.60233 0.78363 0.8032 0.0
H1580 H 0.5893 0.81637 0.79542 0.0
H1581 H 0.6698 0.82563 0.89449 0.0
H1582 H 0.68488 0.84019 0.84657 0.0
H1583 H 0.67914 0.80307 0.84737 0.0
C1584 C 0.86896 0.17762 0.28541 0.0
C1585 C 0.88654 0.1716 0.26145 0.0
C1586 C 0.86875 0.19317 0.32906 0.0
C1587 C 0.88662 0.20288 0.34903 0.0
C1588 C 0.90449 0.19348 0.32855 0.0
C1589 C 0.90423 0.17804 0.28456 0.0
C1590 C 0.8493 0.20245 0.34946 0.0
C1591 C 0.92387 0.20261 0.34954 0.0
C1592 C 0.8853 0.27791 0.39809 0.0
C1593 C 0.88365 0.27345 0.44851 0.0
C1594 C 0.88649 0.25504 0.36553 0.0
C1595 C 0.88644 0.22702 0.38401 0.0
C1596 C 0.88529 0.22242 0.43509 0.0
C1597 C 0.88371 0.24572 0.46675 0.0
C1598 C 0.8874 0.26091 0.3112 0.0
C1599 C 0.88559 0.19295 0.45616 0.0
H1600 H 0.85525 0.17317 0.26723 0.0
H1601 H 0.91783 0.17388 0.26554 0.0
H1602 H 0.84956 0.20339 0.39001 0.0
H1603 H 0.84588 0.22395 0.33568 0.0
H1604 H 0.83736 0.18803 0.33784 0.0
H1605 H 0.93595 0.18873 0.33688 0.0
H1606 H 0.92708 0.22452 0.33754 0.0
H1607 H 0.92353 0.2025 0.39015 0.0
H1608 H 0.88524 0.29934 0.38406 0.0
H1609 H 0.88273 0.2423 0.50592 0.0
H1610 H 0.87475 0.25094 0.29253 0.0
H1611 H 0.90085 0.25153 0.29546 0.0
H1612 H 0.8873 0.28388 0.3029 0.0
H1613 H 0.8725 0.18113 0.44374 0.0
H1614 H 0.88584 0.19305 0.49683 0.0
H1615 H 0.89857 0.18129 0.44269 0.0
C1616 C 0.63248 0.18233 0.21898 0.0
C1617 C 0.65031 0.17651 0.24191 0.0
C1618 C 0.63192 0.19751 0.17476 0.0
C1619 C 0.64962 0.20725 0.15386 0.0
C1620 C 0.66766 0.19811 0.1737 0.0
C1621 C 0.66775 0.18284 0.21762 0.0
C1622 C 0.61237 0.20606 0.154 0.0
C1623 C 0.68694 0.20773 0.15279 0.0
C1624 C 0.65149 0.24975 0.03566 0.0
C1625 C 0.65124 0.27754 0.05366 0.0
C1626 C 0.65039 0.22651 0.06757 0.0
C1627 C 0.64939 0.23126 0.11865 0.0
C1628 C 0.64906 0.25934 0.1369 0.0
C1629 C 0.6498 0.28211 0.10413 0.0
C1630 C 0.65042 0.19697 0.04675 0.0
C1631 C 0.64829 0.26537 0.1912 0.0
H1632 H 0.61898 0.17791 0.23827 0.0
H1633 H 0.68156 0.17882 0.23576 0.0
H1634 H 0.60893 0.22795 0.16577 0.0
H1635 H 0.61261 0.20575 0.11338 0.0
H1636 H 0.60051 0.19196 0.16706 0.0
H1637 H 0.69909 0.1937 0.1645 0.0
H1638 H 0.68654 0.20836 0.11224 0.0
H1639 H 0.69011 0.22942 0.16609 0.0
H1640 H 0.65229 0.24621 0.99649 0.0
H1641 H 0.64964 0.30358 0.118 0.0
H1642 H 0.63757 0.18507 0.06038 0.0
H1643 H 0.66364 0.18547 0.05923 0.0
H1644 H 0.65014 0.19691 0.00608 0.0
H1645 H 0.63503 0.2557 0.20736 0.0
H1646 H 0.64813 0.28838 0.19931 0.0
H1647 H 0.66114 0.2558 0.20964 0.0
C1648 C 0.8845 0.77036 0.54788 0.0
C1649 C 0.87887 0.74347 0.56453 0.0
C1650 C 0.88718 0.79294 0.58059 0.0
C1651 C 0.88415 0.78857 0.6312 0.0
C1652 C 0.87821 0.76157 0.64816 0.0
C1653 C 0.87574 0.73933 0.61465 0.0
C1654 C 0.89369 0.82126 0.56114 0.0
C1655 C 0.87469 0.75607 0.7019 0.0
C1656 C 0.9078 0.82916 0.73438 0.0
C1657 C 0.89173 0.84373 0.75339 0.0
C1658 C 0.90613 0.81327 0.6912 0.0
C1659 C 0.88782 0.81166 0.66716 0.0
C1660 C 0.87223 0.82907 0.68312 0.0
C1661 C 0.87444 0.8451 0.72609 0.0
C1662 C 0.92328 0.79558 0.6749 0.0
C1663 C 0.85249 0.82818 0.6585 0.0
H1664 H 0.8873 0.7736 0.50924 0.0
H1665 H 0.87128 0.71868 0.62764 0.0
H1666 H 0.88365 0.83815 0.57379 0.0
H1667 H 0.90842 0.82636 0.57565 0.0
H1668 H 0.89428 0.82167 0.5205 0.0
H1669 H 0.86947 0.73422 0.7089 0.0
H1670 H 0.8884 0.75944 0.72281 0.0
H1671 H 0.86369 0.77115 0.7163 0.0
H1672 H 0.92106 0.8277 0.75607 0.0
H1673 H 0.86191 0.85607 0.74116 0.0
H1674 H 0.92476 0.79595 0.63447 0.0
H1675 H 0.92088 0.77331 0.68605 0.0
H1676 H 0.93718 0.80298 0.69156 0.0
H1677 H 0.85402 0.82803 0.61808 0.0
H1678 H 0.84322 0.84642 0.66933 0.0
H1679 H 0.84484 0.80846 0.66919 0.0
C1680 C 0.38704 0.27868 0.10296 0.0
C1681 C 0.38572 0.27368 0.0526 0.0
C1682 C 0.3881 0.25615 0.13627 0.0
C1683 C 0.38834 0.22793 0.11865 0.0
C1684 C 0.38763 0.22281 0.06762 0.0
C1685 C 0.38608 0.24577 0.03519 0.0
C1686 C 0.38851 0.26258 0.19045 0.0
C1687 C 0.3884 0.19316 0.04738 0.0
C1688 C 0.40553 0.1794 0.21984 0.0
C1689 C 0.38768 0.17235 0.24148 0.0
C1690 C 0.40609 0.19499 0.17604 0.0
C1691 C 0.38835 0.20409 0.15433 0.0
C1692 C 0.37038 0.19406 0.17306 0.0
C1693 C 0.3703 0.17813 0.21631 0.0
C1694 C 0.4256 0.20445 0.15642 0.0
C1695 C 0.35108 0.2032 0.15141 0.0
H1696 H 0.38673 0.30026 0.11632 0.0
H1697 H 0.38534 0.24195 0.99609 0.0
H1698 H 0.3758 0.25255 0.20867 0.0
H1699 H 0.40191 0.25362 0.20725 0.0
H1700 H 0.38813 0.28564 0.19809 0.0
H1701 H 0.38911 0.19288 0.00675 0.0
H1702 H 0.40132 0.18184 0.06217 0.0
H1703 H 0.37527 0.18123 0.05906 0.0
H1704 H 0.41897 0.17544 0.23978 0.0
H1705 H 0.35646 0.17302 0.23327 0.0
H1706 H 0.42847 0.22647 0.16843 0.0
H1707 H 0.42568 0.20419 0.1158 0.0
H1708 H 0.43767 0.19087 0.17008 0.0
H1709 H 0.34825 0.22556 0.16148 0.0
H1710 H 0.33875 0.19016 0.16512 0.0
H1711 H 0.35137 0.20194 0.11089 0.0
C1712 C 0.13138 0.83239 0.71105 0.0
C1713 C 0.14901 0.84142 0.73177 0.0
C1714 C 0.13122 0.81658 0.66745 0.0
C1715 C 0.14917 0.80948 0.64472 0.0
C1716 C 0.16672 0.82165 0.66234 0.0
C1717 C 0.1664 0.83745 0.70582 0.0
C1718 C 0.1121 0.80474 0.64919 0.0
C1719 C 0.18623 0.8151 0.63934 0.0
C1720 C 0.15328 0.73506 0.59315 0.0
C1721 C 0.15295 0.73998 0.54264 0.0
C1722 C 0.15203 0.75756 0.62657 0.0
C1723 C 0.15003 0.78564 0.60904 0.0
C1724 C 0.14935 0.79067 0.55802 0.0
C1725 C 0.15097 0.7678 0.52541 0.0
C1726 C 0.15312 0.75127 0.68072 0.0
C1727 C 0.147 0.82019 0.53797 0.0
H1728 H 0.11797 0.83491 0.73169 0.0
H1729 H 0.18009 0.84394 0.72227 0.0
H1730 H 0.11143 0.80524 0.60861 0.0
H1731 H 0.1108 0.78236 0.66083 0.0
H1732 H 0.09943 0.8166 0.66412 0.0
H1733 H 0.197 0.83204 0.6472 0.0
H1734 H 0.19191 0.79505 0.65491 0.0
H1735 H 0.18504 0.81246 0.59911 0.0
H1736 H 0.15487 0.71362 0.6065 0.0
H1737 H 0.15042 0.77162 0.4863 0.0
H1738 H 0.1397 0.7589 0.69921 0.0
H1739 H 0.16568 0.76264 0.69724 0.0
H1740 H 0.15479 0.72833 0.68831 0.0
H1741 H 0.13364 0.83009 0.55322 0.0
H1742 H 0.14603 0.82044 0.49737 0.0
H1743 H 0.15956 0.83344 0.5494 0.0
C1744 C 0.37101 0.8432 0.78577 0.0
C1745 C 0.38821 0.84954 0.76047 0.0
C1746 C 0.37154 0.82771 0.82946 0.0
C1747 C 0.38979 0.81871 0.84831 0.0
C1748 C 0.40726 0.82862 0.82652 0.0
C1749 C 0.40626 0.84381 0.78238 0.0
C1750 C 0.35251 0.81775 0.85132 0.0
C1751 C 0.42702 0.82023 0.84623 0.0
C1752 C 0.38865 0.77657 0.96685 0.0
C1753 C 0.38867 0.74873 0.94908 0.0
C1754 C 0.38972 0.7997 0.93473 0.0
C1755 C 0.39041 0.7948 0.88368 0.0
C1756 C 0.39069 0.76666 0.86567 0.0
C1757 C 0.39002 0.74398 0.89866 0.0
C1758 C 0.38987 0.8293 0.95533 0.0
C1759 C 0.3912 0.76047 0.81141 0.0
H1760 H 0.35704 0.84733 0.76846 0.0
H1761 H 0.41957 0.84826 0.76231 0.0
H1762 H 0.35014 0.79527 0.8413 0.0
H1763 H 0.35288 0.81906 0.89183 0.0
H1764 H 0.33988 0.83024 0.83767 0.0
H1765 H 0.4387 0.83449 0.83267 0.0
H1766 H 0.42712 0.82043 0.88685 0.0
H1767 H 0.43049 0.79841 0.8341 0.0
H1768 H 0.38792 0.78024 0.006 0.0
H1769 H 0.39 0.72246 0.88498 0.0
H1770 H 0.37627 0.84045 0.94469 0.0
H1771 H 0.40227 0.84146 0.9399 0.0
H1772 H 0.39104 0.82945 0.99591 0.0
H1773 H 0.3782 0.76985 0.79333 0.0
H1774 H 0.39143 0.73744 0.8035 0.0
H1775 H 0.40431 0.77023 0.79469 0.0
C1776 C 0.12744 0.1786 0.26562 0.0
C1777 C 0.14572 0.16978 0.24862 0.0
C1778 C 0.12582 0.19486 0.30852 0.0
C1779 C 0.14296 0.20258 0.3344 0.0
C1780 C 0.16116 0.1909 0.3203 0.0
C1781 C 0.1623 0.17469 0.27737 0.0
C1782 C 0.10608 0.20634 0.3228 0.0
C1783 C 0.17982 0.19825 0.34687 0.0
C1784 C 0.14597 0.27651 0.38851 0.0
C1785 C 0.1447 0.27104 0.43876 0.0
C1786 C 0.145 0.25441 0.35421 0.0
C1787 C 0.14246 0.22619 0.37055 0.0
C1788 C 0.14044 0.22069 0.42117 0.0
C1789 C 0.14167 0.24315 0.45467 0.0
C1790 C 0.14729 0.2612 0.3005 0.0
C1791 C 0.13747 0.19102 0.43998 0.0
H1792 H 0.11467 0.17541 0.24268 0.0
H1793 H 0.17651 0.16847 0.26362 0.0
H1794 H 0.10419 0.20606 0.36313 0.0
H1795 H 0.10487 0.22863 0.31055 0.0
H1796 H 0.09402 0.19412 0.30566 0.0
H1797 H 0.19168 0.18301 0.3383 0.0
H1798 H 0.18466 0.21963 0.33544 0.0
H1799 H 0.1776 0.19865 0.38707 0.0
H1800 H 0.14838 0.29798 0.37611 0.0
H1801 H 0.14034 0.23888 0.49351 0.0
H1802 H 0.13459 0.25307 0.27957 0.0
H1803 H 0.16053 0.25059 0.28596 0.0
H1804 H 0.1486 0.28427 0.29371 0.0
H1805 H 0.12504 0.18085 0.42073 0.0
H1806 H 0.13463 0.19055 0.48001 0.0
H1807 H 0.15066 0.17814 0.43231 0.0
loop_
_geom_bond_atom_site_label_1
_geom_bond_atom_site_label_2
_geom_bond_distance
_geom_bond_site_symmetry_2
_ccdc_geom_bond_type
C0 C1 1.351 . S
C0 N3 1.368 . S
C0 H5 0.931 . S
C1 C0 1.351 . S
C1 N2 1.373 . S
C1 H29 0.930 . S
N2 C1 1.373 . S
N2 C4 1.340 . S
N3 C0 1.368 . S
N3 C4 1.321 . S
N3 Co6 2.135 . S
C4 N2 1.340 . S
C4 N3 1.321 . S
C4 H28 0.930 . S
H5 C0 0.931 . S
Co6 N3 2.135 . S
Co6 N9 2.121 . S
Co6 O14 2.055 . S
Co6 O17 2.039 . S
Co6 N20 2.140 . S
C7 O8 1.227 . S
C7 O17 1.265 . S
O8 C7 1.227 . S
N9 Co6 2.121 . S
N9 C11 1.375 . S
N9 C12 1.313 . S
C10 C11 1.338 . S
C10 N13 1.377 . S
C10 H30 0.930 . S
C11 N9 1.375 . S
C11 C10 1.338 . S
C11 H15 0.931 . S
C12 N9 1.313 . S
C12 N13 1.344 . S
C12 H16 0.930 . S
N13 C10 1.377 . S
N13 C12 1.344 . S
O14 Co6 2.055 . S
O14 C18 1.253 . S
H15 C11 0.931 . S
H16 C12 0.930 . S
O17 Co6 2.039 . S
O17 C7 1.265 . S
C18 O14 1.253 . S
C18 O19 1.227 . S
O19 C18 1.227 . S
N20 Co6 2.140 . S
N20 C23 1.346 . S
N20 C24 1.345 . S
C21 C22 1.387 . S
C21 C25 1.391 1_556 S
C22 C21 1.387 . S
C22 C23 1.369 1_556 S
C22 H31 0.929 . S
C23 N20 1.346 . S
C23 C22 1.369 1_554 S
C23 H26 0.928 . S
C24 N20 1.345 . S
C24 C25 1.371 . S
C24 H27 0.931 . S
C25 C21 1.391 1_554 S
C25 C24 1.371 . S
C25 H32 0.930 . S
H26 C23 0.928 . S
H27 C24 0.931 . S
H28 C4 0.930 . S
H29 C1 0.930 . S
H30 C10 0.930 . S
H31 C22 0.929 . S
H32 C25 0.930 . S
C33 C34 1.351 . S
C33 N36 1.368 . S
C33 H38 0.931 . S
C34 C33 1.351 . S
C34 N35 1.373 . S
C34 H62 0.930 . S
N35 C34 1.373 . S
N35 C37 1.340 . S
N36 C33 1.368 . S
N36 C37 1.321 . S
N36 Co39 2.135 . S
C37 N35 1.340 . S
C37 N36 1.321 . S
C37 H61 0.930 . S
H38 C33 0.931 . S
Co39 N36 2.135 . S
Co39 N42 2.121 . S
Co39 O47 2.055 . S
Co39 O50 2.039 . S
Co39 N53 2.140 . S
C40 O41 1.227 . S
C40 O50 1.265 . S
O41 C40 1.227 . S
N42 Co39 2.121 . S
N42 C44 1.375 . S
N42 C45 1.313 . S
C43 C44 1.338 . S
C43 N46 1.377 . S
C43 H63 0.930 . S
C44 N42 1.375 . S
C44 C43 1.338 . S
C44 H48 0.931 . S
C45 N42 1.313 . S
C45 N46 1.344 . S
C45 H49 0.930 . S
N46 C43 1.377 . S
N46 C45 1.344 . S
O47 Co39 2.055 . S
O47 C51 1.253 . S
H48 C44 0.931 . S
H49 C45 0.930 . S
O50 Co39 2.039 . S
O50 C40 1.265 . S
C51 O47 1.253 . S
C51 O52 1.227 . S
O52 C51 1.227 . S
N53 Co39 2.140 . S
N53 C56 1.346 . S
N53 C57 1.345 . S
C54 C55 1.387 . S
C54 C58 1.391 . S
C55 C54 1.387 . S
C55 C56 1.369 . S
C55 H64 0.929 . S
C56 N53 1.346 . S
C56 C55 1.369 . S
C56 H59 0.928 . S
C57 N53 1.345 . S
C57 C58 1.371 . S
C57 H60 0.931 . S
C58 C54 1.391 . S
C58 C57 1.371 . S
C58 H65 0.930 . S
H59 C56 0.928 . S
H60 C57 0.931 . S
H61 C37 0.930 . S
H62 C34 0.930 . S
H63 C43 0.930 . S
H64 C55 0.929 . S
H65 C58 0.930 . S
C66 C67 1.351 . S
C66 N69 1.368 . S
C66 H71 0.931 . S
C67 C66 1.351 . S
C67 N68 1.373 . S
C67 H95 0.930 . S
N68 C67 1.373 . S
N68 C70 1.340 . S
N69 C66 1.368 . S
N69 C70 1.321 . S
N69 Co72 2.135 . S
C70 N68 1.340 . S
C70 N69 1.321 . S
C70 H94 0.930 . S
H71 C66 0.931 . S
Co72 N69 2.135 . S
Co72 N75 2.121 . S
Co72 O80 2.055 . S
Co72 O83 2.039 . S
Co72 N86 2.140 . S
C73 O74 1.227 . S
C73 O83 1.265 . S
O74 C73 1.227 . S
N75 Co72 2.121 . S
N75 C77 1.375 . S
N75 C78 1.313 . S
C76 C77 1.338 . S
C76 N79 1.377 . S
C76 H96 0.930 . S
C77 N75 1.375 . S
C77 C76 1.338 . S
C77 H81 0.931 . S
C78 N75 1.313 . S
C78 N79 1.344 . S
C78 H82 0.930 . S
N79 C76 1.377 . S
N79 C78 1.344 . S
O80 Co72 2.055 . S
O80 C84 1.253 . S
H81 C77 0.931 . S
H82 C78 0.930 . S
O83 Co72 2.039 . S
O83 C73 1.265 . S
C84 O80 1.253 . S
C84 O85 1.227 . S
O85 C84 1.227 . S
N86 Co72 2.140 . S
N86 C89 1.346 . S
N86 C90 1.345 . S
C87 C88 1.387 . S
C87 C91 1.391 1_554 S
C88 C87 1.387 . S
C88 C89 1.369 1_554 S
C88 H97 0.929 . S
C89 N86 1.346 . S
C89 C88 1.369 1_556 S
C89 H92 0.928 . S
C90 N86 1.345 . S
C90 C91 1.371 . S
C90 H93 0.931 . S
C91 C87 1.391 1_556 S
C91 C90 1.371 . S
C91 H98 0.930 . S
H92 C89 0.928 . S
H93 C90 0.931 . S
H94 C70 0.930 . S
H95 C67 0.930 . S
H96 C76 0.930 . S
H97 C88 0.929 . S
H98 C91 0.930 . S
C99 C100 1.351 . S
C99 N102 1.368 . S
C99 H104 0.931 . S
C100 C99 1.351 . S
C100 N101 1.373 . S
C100 H128 0.930 . S
N101 C100 1.373 . S
N101 C103 1.340 . S
N102 C99 1.368 . S
N102 C103 1.321 . S
N102 Co105 2.135 . S
C103 N101 1.340 . S
C103 N102 1.321 . S
C103 H127 0.930 . S
H104 C99 0.931 . S
Co105 N102 2.135 . S
Co105 N108 2.121 . S
Co105 O113 2.055 . S
Co105 O116 2.039 . S
Co105 N119 2.140 . S
C106 O107 1.227 . S
C106 O116 1.265 . S
O107 C106 1.227 . S
N108 Co105 2.121 . S
N108 C110 1.375 . S
N108 C111 1.313 . S
C109 C110 1.338 . S
C109 N112 1.377 . S
C109 H129 0.930 . S
C110 N108 1.375 . S
C110 C109 1.338 . S
C110 H114 0.931 . S
C111 N108 1.313 . S
C111 N112 1.344 . S
C111 H115 0.930 . S
N112 C109 1.377 . S
N112 C111 1.344 . S
O113 Co105 2.055 . S
O113 C117 1.253 . S
H114 C110 0.931 . S
H115 C111 0.930 . S
O116 Co105 2.039 . S
O116 C106 1.265 . S
C117 O113 1.253 . S
C117 O118 1.227 . S
O118 C117 1.227 . S
N119 Co105 2.140 . S
N119 C122 1.346 . S
N119 C123 1.345 . S
C120 C121 1.387 . S
C120 C124 1.391 . S
C121 C120 1.387 . S
C121 C122 1.369 . S
C121 H130 0.929 . S
C122 N119 1.346 . S
C122 C121 1.369 . S
C122 H125 0.928 . S
C123 N119 1.345 . S
C123 C124 1.371 . S
C123 H126 0.931 . S
C124 C120 1.391 . S
C124 C123 1.371 . S
C124 H131 0.930 . S
H125 C122 0.928 . S
H126 C123 0.931 . S
H127 C103 0.930 . S
H128 C100 0.930 . S
H129 C109 0.930 . S
H130 C121 0.929 . S
H131 C124 0.930 . S
C132 C133 1.351 . S
C132 N135 1.368 . S
C132 H137 0.931 . S
C133 C132 1.351 . S
C133 N134 1.373 . S
C133 H161 0.930 . S
N134 C133 1.373 . S
N134 C136 1.340 . S
N135 C132 1.368 . S
N135 C136 1.321 . S
N135 Co138 2.135 . S
C136 N134 1.340 . S
C136 N135 1.321 . S
C136 H160 0.930 . S
H137 C132 0.931 . S
Co138 N135 2.135 . S
Co138 N141 2.121 . S
Co138 O146 2.055 . S
Co138 O149 2.039 . S
Co138 N152 2.140 . S
C139 O140 1.227 . S
C139 O149 1.265 . S
O140 C139 1.227 . S
N141 Co138 2.121 . S
N141 C143 1.375 . S
N141 C144 1.313 . S
C142 C143 1.338 . S
C142 N145 1.377 . S
C142 H162 0.930 . S
C143 N141 1.375 . S
C143 C142 1.338 . S
C143 H147 0.931 . S
C144 N141 1.313 . S
C144 N145 1.344 . S
C144 H148 0.930 . S
N145 C142 1.377 . S
N145 C144 1.344 . S
O146 Co138 2.055 . S
O146 C150 1.253 . S
H147 C143 0.931 . S
H148 C144 0.930 . S
O149 Co138 2.039 . S
O149 C139 1.265 . S
C150 O146 1.253 . S
C150 O151 1.227 . S
O151 C150 1.227 . S
N152 Co138 2.140 . S
N152 C155 1.346 . S
N152 C156 1.345 . S
C153 C154 1.387 . S
C153 C157 1.391 1_554 S
C154 C153 1.387 . S
C154 C155 1.369 1_554 S
C154 H163 0.929 . S
C155 N152 1.346 . S
C155 C154 1.369 1_556 S
C155 H158 0.928 . S
C156 N152 1.345 . S
C156 C157 1.371 . S
C156 H159 0.931 . S
C157 C153 1.391 1_556 S
C157 C156 1.371 . S
C157 H164 0.930 . S
H158 C155 0.928 . S
H159 C156 0.931 . S
H160 C136 0.930 . S
H161 C133 0.930 . S
H162 C142 0.930 . S
H163 C154 0.929 . S
H164 C157 0.930 . S
C165 C166 1.351 . S
C165 N168 1.368 . S
C165 H170 0.931 . S
C166 C165 1.351 . S
C166 N167 1.373 . S
C166 H194 0.930 . S
N167 C166 1.373 . S
N167 C169 1.340 . S
N168 C165 1.368 . S
N168 C169 1.321 . S
N168 Co171 2.135 . S
C169 N167 1.340 . S
C169 N168 1.321 . S
C169 H193 0.930 . S
H170 C165 0.931 . S
Co171 N168 2.135 . S
Co171 N174 2.121 . S
Co171 O179 2.055 . S
Co171 O182 2.039 . S
Co171 N185 2.140 . S
C172 O173 1.227 . S
C172 O182 1.265 . S
O173 C172 1.227 . S
N174 Co171 2.121 . S
N174 C176 1.375 . S
N174 C177 1.313 . S
C175 C176 1.338 . S
C175 N178 1.377 . S
C175 H195 0.930 . S
C176 N174 1.375 . S
C176 C175 1.338 . S
C176 H180 0.931 . S
C177 N174 1.313 . S
C177 N178 1.344 . S
C177 H181 0.930 . S
N178 C175 1.377 . S
N178 C177 1.344 . S
O179 Co171 2.055 . S
O179 C183 1.253 . S
H180 C176 0.931 . S
H181 C177 0.930 . S
O182 Co171 2.039 . S
O182 C172 1.265 . S
C183 O179 1.253 . S
C183 O184 1.227 . S
O184 C183 1.227 . S
N185 Co171 2.140 . S
N185 C188 1.346 . S
N185 C189 1.345 . S
C186 C187 1.387 . S
C186 C190 1.391 . S
C187 C186 1.387 . S
C187 C188 1.369 . S
C187 H196 0.929 . S
C188 N185 1.346 . S
C188 C187 1.369 . S
C188 H191 0.928 . S
C189 N185 1.345 . S
C189 C190 1.371 . S
C189 H192 0.931 . S
C190 C186 1.391 . S
C190 C189 1.371 . S
C190 H197 0.930 . S
H191 C188 0.928 . S
H192 C189 0.931 . S
H193 C169 0.930 . S
H194 C166 0.930 . S
H195 C175 0.930 . S
H196 C187 0.929 . S
H197 C190 0.930 . S
C198 C199 1.351 . S
C198 N201 1.368 . S
C198 H203 0.931 . S
C199 C198 1.351 . S
C199 N200 1.373 . S
C199 H227 0.930 . S
N200 C199 1.373 . S
N200 C202 1.340 . S
N201 C198 1.368 . S
N201 C202 1.321 . S
N201 Co204 2.135 . S
C202 N200 1.340 . S
C202 N201 1.321 . S
C202 H226 0.930 . S
H203 C198 0.931 . S
Co204 N201 2.135 . S
Co204 N207 2.121 . S
Co204 O212 2.055 . S
Co204 O215 2.039 . S
Co204 N218 2.140 . S
C205 O206 1.227 . S
C205 O215 1.265 . S
O206 C205 1.227 . S
N207 Co204 2.121 . S
N207 C209 1.375 . S
N207 C210 1.313 . S
C208 C209 1.338 . S
C208 N211 1.377 . S
C208 H228 0.930 . S
C209 N207 1.375 . S
C209 C208 1.338 . S
C209 H213 0.931 . S
C210 N207 1.313 . S
C210 N211 1.344 . S
C210 H214 0.930 . S
N211 C208 1.377 . S
N211 C210 1.344 . S
O212 Co204 2.055 . S
O212 C216 1.253 . S
H213 C209 0.931 . S
H214 C210 0.930 . S
O215 Co204 2.039 . S
O215 C205 1.265 . S
C216 O212 1.253 . S
C216 O217 1.227 . S
O217 C216 1.227 . S
N218 Co204 2.140 . S
N218 C221 1.346 . S
N218 C222 1.345 . S
C219 C220 1.387 . S
C219 C223 1.391 1_556 S
C220 C219 1.387 . S
C220 C221 1.369 1_556 S
C220 H229 0.929 . S
C221 N218 1.346 . S
C221 C220 1.369 1_554 S
C221 H224 0.928 . S
C222 N218 1.345 . S
C222 C223 1.371 . S
C222 H225 0.931 . S
C223 C219 1.391 1_554 S
C223 C222 1.371 . S
C223 H230 0.930 . S
H224 C221 0.928 . S
H225 C222 0.931 . S
H226 C202 0.930 . S
H227 C199 0.930 . S
H228 C208 0.930 . S
H229 C220 0.929 . S
H230 C223 0.930 . S
C231 C232 1.351 . S
C231 N234 1.368 . S
C231 H236 0.931 . S
C232 C231 1.351 . S
C232 N233 1.373 . S
C232 H260 0.930 . S
N233 C232 1.373 . S
N233 C235 1.340 . S
N234 C231 1.368 . S
N234 C235 1.321 . S
N234 Co237 2.135 . S
C235 N233 1.340 . S
C235 N234 1.321 . S
C235 H259 0.930 . S
H236 C231 0.931 . S
Co237 N234 2.135 . S
Co237 N240 2.121 . S
Co237 O245 2.055 . S
Co237 O248 2.039 . S
Co237 N251 2.140 . S
C238 O239 1.227 . S
C238 O248 1.265 . S
O239 C238 1.227 . S
N240 Co237 2.121 . S
N240 C242 1.375 . S
N240 C243 1.313 . S
C241 C242 1.338 . S
C241 N244 1.377 . S
C241 H261 0.930 . S
C242 N240 1.375 . S
C242 C241 1.338 . S
C242 H246 0.931 . S
C243 N240 1.313 . S
C243 N244 1.344 . S
C243 H247 0.930 . S
N244 C241 1.377 . S
N244 C243 1.344 . S
O245 Co237 2.055 . S
O245 C249 1.253 . S
H246 C242 0.931 . S
H247 C243 0.930 . S
O248 Co237 2.039 . S
O248 C238 1.265 . S
C249 O245 1.253 . S
C249 O250 1.227 . S
O250 C249 1.227 . S
N251 Co237 2.140 . S
N251 C254 1.346 . S
N251 C255 1.345 . S
C252 C253 1.387 . S
C252 C256 1.391 . S
C253 C252 1.387 . S
C253 C254 1.369 . S
C253 H262 0.929 . S
C254 N251 1.346 . S
C254 C253 1.369 . S
C254 H257 0.928 . S
C255 N251 1.345 . S
C255 C256 1.371 . S
C255 H258 0.931 . S
C256 C252 1.391 . S
C256 C255 1.371 . S
C256 H263 0.930 . S
H257 C254 0.928 . S
H258 C255 0.931 . S
H259 C235 0.930 . S
H260 C232 0.930 . S
H261 C241 0.930 . S
H262 C253 0.929 . S
H263 C256 0.930 . S
C264 C265 1.351 . S
C264 N267 1.368 . S
C264 H269 0.931 . S
C265 C264 1.351 . S
C265 N266 1.373 . S
C265 H293 0.930 . S
N266 C265 1.373 . S
N266 C268 1.340 . S
N267 C264 1.368 . S
N267 C268 1.321 . S
N267 Co270 2.135 . S
C268 N266 1.340 . S
C268 N267 1.321 . S
C268 H292 0.930 . S
H269 C264 0.931 . S
Co270 N267 2.135 . S
Co270 N273 2.121 . S
Co270 O278 2.055 . S
Co270 O281 2.039 . S
Co270 N284 2.140 . S
C271 O272 1.227 . S
C271 O281 1.265 . S
O272 C271 1.227 . S
N273 Co270 2.121 . S
N273 C275 1.375 . S
N273 C276 1.313 . S
C274 C275 1.338 . S
C274 N277 1.377 . S
C274 H294 0.930 . S
C275 N273 1.375 . S
C275 C274 1.338 . S
C275 H279 0.931 . S
C276 N273 1.313 . S
C276 N277 1.344 . S
C276 H280 0.930 . S
N277 C274 1.377 . S
N277 C276 1.344 . S
O278 Co270 2.055 . S
O278 C282 1.253 . S
H279 C275 0.931 . S
H280 C276 0.930 . S
O281 Co270 2.039 . S
O281 C271 1.265 . S
C282 O278 1.253 . S
C282 O283 1.227 . S
O283 C282 1.227 . S
N284 Co270 2.140 . S
N284 C287 1.346 . S
N284 C288 1.345 . S
C285 C286 1.387 . S
C285 C289 1.391 1_556 S
C286 C285 1.387 . S
C286 C287 1.369 1_556 S
C286 H295 0.929 . S
C287 N284 1.346 . S
C287 C286 1.369 1_554 S
C287 H290 0.928 . S
C288 N284 1.345 . S
C288 C289 1.371 . S
C288 H291 0.931 . S
C289 C285 1.391 1_554 S
C289 C288 1.371 . S
C289 H296 0.930 . S
H290 C287 0.928 . S
H291 C288 0.931 . S
H292 C268 0.930 . S
H293 C265 0.930 . S
H294 C274 0.930 . S
H295 C286 0.929 . S
H296 C289 0.930 . S
C297 C298 1.351 . S
C297 N300 1.368 . S
C297 H302 0.931 . S
C298 C297 1.351 . S
C298 N299 1.373 . S
C298 H326 0.930 . S
N299 C298 1.373 . S
N299 C301 1.340 . S
N300 C297 1.368 . S
N300 C301 1.321 . S
N300 Co303 2.135 . S
C301 N299 1.340 . S
C301 N300 1.321 . S
C301 H325 0.930 . S
H302 C297 0.931 . S
Co303 N300 2.135 . S
Co303 N306 2.121 . S
Co303 O311 2.055 . S
Co303 O314 2.039 . S
Co303 N317 2.140 . S
C304 O305 1.227 . S
C304 O314 1.265 . S
O305 C304 1.227 . S
N306 Co303 2.121 . S
N306 C308 1.375 . S
N306 C309 1.313 . S
C307 C308 1.338 . S
C307 N310 1.377 . S
C307 H327 0.930 . S
C308 N306 1.375 . S
C308 C307 1.338 . S
C308 H312 0.931 . S
C309 N306 1.313 . S
C309 N310 1.344 . S
C309 H313 0.930 . S
N310 C307 1.377 . S
N310 C309 1.344 . S
O311 Co303 2.055 . S
O311 C315 1.253 . S
H312 C308 0.931 . S
H313 C309 0.930 . S
O314 Co303 2.039 . S
O314 C304 1.265 . S
C315 O311 1.253 . S
C315 O316 1.227 . S
O316 C315 1.227 . S
N317 Co303 2.140 . S
N317 C320 1.346 . S
N317 C321 1.345 . S
C318 C319 1.387 . S
C318 C322 1.391 . S
C319 C318 1.387 . S
C319 C320 1.369 . S
C319 H328 0.929 . S
C320 N317 1.346 . S
C320 C319 1.369 . S
C320 H323 0.928 . S
C321 N317 1.345 . S
C321 C322 1.371 . S
C321 H324 0.931 . S
C322 C318 1.391 . S
C322 C321 1.371 . S
C322 H329 0.930 . S
H323 C320 0.928 . S
H324 C321 0.931 . S
H325 C301 0.930 . S
H326 C298 0.930 . S
H327 C307 0.930 . S
H328 C319 0.929 . S
H329 C322 0.930 . S
C330 C331 1.351 . S
C330 N333 1.368 . S
C330 H335 0.931 . S
C331 C330 1.351 . S
C331 N332 1.373 . S
C331 H359 0.930 . S
N332 C331 1.373 . S
N332 C334 1.340 . S
N333 C330 1.368 . S
N333 C334 1.321 . S
N333 Co336 2.135 . S
C334 N332 1.340 . S
C334 N333 1.321 . S
C334 H358 0.930 . S
H335 C330 0.931 . S
Co336 N333 2.135 . S
Co336 N339 2.121 . S
Co336 O344 2.055 . S
Co336 O347 2.039 . S
Co336 N350 2.140 . S
C337 O338 1.227 . S
C337 O347 1.265 . S
O338 C337 1.227 . S
N339 Co336 2.121 . S
N339 C341 1.375 . S
N339 C342 1.313 . S
C340 C341 1.338 . S
C340 N343 1.377 . S
C340 H360 0.930 . S
C341 N339 1.375 . S
C341 C340 1.338 . S
C341 H345 0.931 . S
C342 N339 1.313 . S
C342 N343 1.344 . S
C342 H346 0.930 . S
N343 C340 1.377 . S
N343 C342 1.344 . S
O344 Co336 2.055 . S
O344 C348 1.253 . S
H345 C341 0.931 . S
H346 C342 0.930 . S
O347 Co336 2.039 . S
O347 C337 1.265 . S
C348 O344 1.253 . S
C348 O349 1.227 . S
O349 C348 1.227 . S
N350 Co336 2.140 . S
N350 C353 1.346 . S
N350 C354 1.345 . S
C351 C352 1.387 . S
C351 C355 1.391 1_554 S
C352 C351 1.387 . S
C352 C353 1.369 1_554 S
C352 H361 0.929 . S
C353 N350 1.346 . S
C353 C352 1.369 1_556 S
C353 H356 0.928 . S
C354 N350 1.345 . S
C354 C355 1.371 . S
C354 H357 0.931 . S
C355 C351 1.391 1_556 S
C355 C354 1.371 . S
C355 H362 0.930 . S
H356 C353 0.928 . S
H357 C354 0.931 . S
H358 C334 0.930 . S
H359 C331 0.930 . S
H360 C340 0.930 . S
H361 C352 0.929 . S
H362 C355 0.930 . S
C363 C364 1.351 . S
C363 N366 1.368 . S
C363 H368 0.931 . S
C364 C363 1.351 . S
C364 N365 1.373 . S
C364 H392 0.930 . S
N365 C364 1.373 . S
N365 C367 1.340 . S
N366 C363 1.368 . S
N366 C367 1.321 . S
N366 Co369 2.135 . S
C367 N365 1.340 . S
C367 N366 1.321 . S
C367 H391 0.930 . S
H368 C363 0.931 . S
Co369 N366 2.135 . S
Co369 N372 2.121 . S
Co369 O377 2.055 . S
Co369 O380 2.039 . S
Co369 N383 2.140 . S
C370 O371 1.227 . S
C370 O380 1.265 . S
O371 C370 1.227 . S
N372 Co369 2.121 . S
N372 C374 1.375 . S
N372 C375 1.313 . S
C373 C374 1.338 . S
C373 N376 1.377 . S
C373 H393 0.930 . S
C374 N372 1.375 . S
C374 C373 1.338 . S
C374 H378 0.931 . S
C375 N372 1.313 . S
C375 N376 1.344 . S
C375 H379 0.930 . S
N376 C373 1.377 . S
N376 C375 1.344 . S
O377 Co369 2.055 . S
O377 C381 1.253 . S
H378 C374 0.931 . S
H379 C375 0.930 . S
O380 Co369 2.039 . S
O380 C370 1.265 . S
C381 O377 1.253 . S
C381 O382 1.227 . S
O382 C381 1.227 . S
N383 Co369 2.140 . S
N383 C386 1.346 . S
N383 C387 1.345 . S
C384 C385 1.387 . S
C384 C388 1.391 . S
C385 C384 1.387 . S
C385 C386 1.369 . S
C385 H394 0.929 . S
C386 N383 1.346 . S
C386 C385 1.369 . S
C386 H389 0.928 . S
C387 N383 1.345 . S
C387 C388 1.371 . S
C387 H390 0.931 . S
C388 C384 1.391 . S
C388 C387 1.371 . S
C388 H395 0.930 . S
H389 C386 0.928 . S
H390 C387 0.931 . S
H391 C367 0.930 . S
H392 C364 0.930 . S
H393 C373 0.930 . S
H394 C385 0.929 . S
H395 C388 0.930 . S
C396 C397 1.351 . S
C396 N399 1.368 . S
C396 H401 0.931 . S
C397 C396 1.351 . S
C397 N398 1.373 . S
C397 H425 0.930 . S
N398 C397 1.373 . S
N398 C400 1.340 . S
N399 C396 1.368 . S
N399 C400 1.321 . S
N399 Co402 2.135 . S
C400 N398 1.340 . S
C400 N399 1.321 . S
C400 H424 0.930 . S
H401 C396 0.931 . S
Co402 N399 2.135 . S
Co402 N405 2.121 . S
Co402 O410 2.055 . S
Co402 O413 2.039 . S
Co402 N416 2.140 . S
C403 O404 1.227 . S
C403 O413 1.265 . S
O404 C403 1.227 . S
N405 Co402 2.121 . S
N405 C407 1.375 . S
N405 C408 1.313 . S
C406 C407 1.338 . S
C406 N409 1.377 . S
C406 H426 0.930 . S
C407 N405 1.375 . S
C407 C406 1.338 . S
C407 H411 0.931 . S
C408 N405 1.313 . S
C408 N409 1.344 . S
C408 H412 0.930 . S
N409 C406 1.377 . S
N409 C408 1.344 . S
O410 Co402 2.055 . S
O410 C414 1.253 . S
H411 C407 0.931 . S
H412 C408 0.930 . S
O413 Co402 2.039 . S
O413 C403 1.265 . S
C414 O410 1.253 . S
C414 O415 1.227 . S
O415 C414 1.227 . S
N416 Co402 2.140 . S
N416 C419 1.346 . S
N416 C420 1.345 . S
C417 C418 1.387 . S
C417 C421 1.391 1_554 S
C418 C417 1.387 . S
C418 C419 1.369 1_554 S
C418 H427 0.929 . S
C419 N416 1.346 . S
C419 C418 1.369 1_556 S
C419 H422 0.928 . S
C420 N416 1.345 . S
C420 C421 1.371 . S
C420 H423 0.931 . S
C421 C417 1.391 1_556 S
C421 C420 1.371 . S
C421 H428 0.930 . S
H422 C419 0.928 . S
H423 C420 0.931 . S
H424 C400 0.930 . S
H425 C397 0.930 . S
H426 C406 0.930 . S
H427 C418 0.929 . S
H428 C421 0.930 . S
C429 C430 1.351 . S
C429 N432 1.368 . S
C429 H434 0.931 . S
C430 C429 1.351 . S
C430 N431 1.373 . S
C430 H458 0.930 . S
N431 C430 1.373 . S
N431 C433 1.340 . S
N432 C429 1.368 . S
N432 C433 1.321 . S
N432 Co435 2.135 . S
C433 N431 1.340 . S
C433 N432 1.321 . S
C433 H457 0.930 . S
H434 C429 0.931 . S
Co435 N432 2.135 . S
Co435 N438 2.121 . S
Co435 O443 2.055 . S
Co435 O446 2.039 . S
Co435 N449 2.140 . S
C436 O437 1.227 . S
C436 O446 1.265 . S
O437 C436 1.227 . S
N438 Co435 2.121 . S
N438 C440 1.375 . S
N438 C441 1.313 . S
C439 C440 1.338 . S
C439 N442 1.377 . S
C439 H459 0.930 . S
C440 N438 1.375 . S
C440 C439 1.338 . S
C440 H444 0.931 . S
C441 N438 1.313 . S
C441 N442 1.344 . S
C441 H445 0.930 . S
N442 C439 1.377 . S
N442 C441 1.344 . S
O443 Co435 2.055 . S
O443 C447 1.253 . S
H444 C440 0.931 . S
H445 C441 0.930 . S
O446 Co435 2.039 . S
O446 C436 1.265 . S
C447 O443 1.253 . S
C447 O448 1.227 . S
O448 C447 1.227 . S
N449 Co435 2.140 . S
N449 C452 1.346 . S
N449 C453 1.345 . S
C450 C451 1.387 . S
C450 C454 1.391 . S
C451 C450 1.387 . S
C451 C452 1.369 . S
C451 H460 0.929 . S
C452 N449 1.346 . S
C452 C451 1.369 . S
C452 H455 0.928 . S
C453 N449 1.345 . S
C453 C454 1.371 . S
C453 H456 0.931 . S
C454 C450 1.391 . S
C454 C453 1.371 . S
C454 H461 0.930 . S
H455 C452 0.928 . S
H456 C453 0.931 . S
H457 C433 0.930 . S
H458 C430 0.930 . S
H459 C439 0.930 . S
H460 C451 0.929 . S
H461 C454 0.930 . S
C462 C463 1.351 . S
C462 N465 1.368 . S
C462 H467 0.931 . S
C463 C462 1.351 . S
C463 N464 1.373 . S
C463 H491 0.930 . S
N464 C463 1.373 . S
N464 C466 1.340 . S
N465 C462 1.368 . S
N465 C466 1.321 . S
N465 Co468 2.135 . S
C466 N464 1.340 . S
C466 N465 1.321 . S
C466 H490 0.930 . S
H467 C462 0.931 . S
Co468 N465 2.135 . S
Co468 N471 2.121 . S
Co468 O476 2.055 . S
Co468 O479 2.039 . S
Co468 N482 2.140 . S
C469 O470 1.227 . S
C469 O479 1.265 . S
O470 C469 1.227 . S
N471 Co468 2.121 . S
N471 C473 1.375 . S
N471 C474 1.313 . S
C472 C473 1.338 . S
C472 N475 1.377 . S
C472 H492 0.930 . S
C473 N471 1.375 . S
C473 C472 1.338 . S
C473 H477 0.931 . S
C474 N471 1.313 . S
C474 N475 1.344 . S
C474 H478 0.930 . S
N475 C472 1.377 . S
N475 C474 1.344 . S
O476 Co468 2.055 . S
O476 C480 1.253 . S
H477 C473 0.931 . S
H478 C474 0.930 . S
O479 Co468 2.039 . S
O479 C469 1.265 . S
C480 O476 1.253 . S
C480 O481 1.227 . S
O481 C480 1.227 . S
N482 Co468 2.140 . S
N482 C485 1.346 . S
N482 C486 1.345 . S
C483 C484 1.387 . S
C483 C487 1.391 1_556 S
C484 C483 1.387 . S
C484 C485 1.369 1_556 S
C484 H493 0.929 . S
C485 N482 1.346 . S
C485 C484 1.369 1_554 S
C485 H488 0.928 . S
C486 N482 1.345 . S
C486 C487 1.371 . S
C486 H489 0.931 . S
C487 C483 1.391 1_554 S
C487 C486 1.371 . S
C487 H494 0.930 . S
H488 C485 0.928 . S
H489 C486 0.931 . S
H490 C466 0.930 . S
H491 C463 0.930 . S
H492 C472 0.930 . S
H493 C484 0.929 . S
H494 C487 0.930 . S
C495 C496 1.351 . S
C495 N498 1.368 . S
C495 H500 0.931 . S
C496 C495 1.351 . S
C496 N497 1.373 . S
C496 H524 0.930 . S
N497 C496 1.373 . S
N497 C499 1.340 . S
N498 C495 1.368 . S
N498 C499 1.321 . S
N498 Co501 2.135 . S
C499 N497 1.340 . S
C499 N498 1.321 . S
C499 H523 0.930 . S
H500 C495 0.931 . S
Co501 N498 2.135 . S
Co501 N504 2.121 . S
Co501 O509 2.055 . S
Co501 O512 2.039 . S
Co501 N515 2.140 . S
C502 O503 1.227 . S
C502 O512 1.265 . S
O503 C502 1.227 . S
N504 Co501 2.121 . S
N504 C506 1.375 . S
N504 C507 1.313 . S
C505 C506 1.338 . S
C505 N508 1.377 . S
C505 H525 0.930 . S
C506 N504 1.375 . S
C506 C505 1.338 . S
C506 H510 0.931 . S
C507 N504 1.313 . S
C507 N508 1.344 . S
C507 H511 0.930 . S
N508 C505 1.377 . S
N508 C507 1.344 . S
O509 Co501 2.055 . S
O509 C513 1.253 . S
H510 C506 0.931 . S
H511 C507 0.930 . S
O512 Co501 2.039 . S
O512 C502 1.265 . S
C513 O509 1.253 . S
C513 O514 1.227 . S
O514 C513 1.227 . S
N515 Co501 2.140 . S
N515 C518 1.346 . S
N515 C519 1.345 . S
C516 C517 1.387 . S
C516 C520 1.391 . S
C517 C516 1.387 . S
C517 C518 1.369 . S
C517 H526 0.929 . S
C518 N515 1.346 . S
C518 C517 1.369 . S
C518 H521 0.928 . S
C519 N515 1.345 . S
C519 C520 1.371 . S
C519 H522 0.931 . S
C520 C516 1.391 . S
C520 C519 1.371 . S
C520 H527 0.930 . S
H521 C518 0.928 . S
H522 C519 0.931 . S
H523 C499 0.930 . S
H524 C496 0.930 . S
H525 C505 0.930 . S
H526 C517 0.929 . S
H527 C520 0.930 . S
C528 C529 1.391 . S
C528 C530 1.394 . S
C528 H544 0.931 . S
C529 C528 1.391 . S
C529 C533 1.376 . S
C530 C528 1.394 . S
C530 C531 1.369 . S
C530 C534 1.531 . S
C531 C530 1.369 . S
C531 C532 1.410 . S
C531 C539 1.503 . S
C532 C531 1.410 . S
C532 C533 1.392 . S
C532 C535 1.511 . S
C533 C529 1.376 . S
C533 C532 1.392 . S
C533 H545 0.929 . S
C534 C530 1.531 . S
C534 H546 0.960 . S
C534 H547 0.962 . S
C534 H548 0.960 . S
C535 C532 1.511 . S
C535 H549 0.961 . S
C535 H550 0.961 . S
C535 H551 0.961 . S
C536 C537 1.370 . S
C536 C538 1.363 . S
C536 H552 0.931 . S
C537 C536 1.370 . S
C537 C541 1.408 . S
C538 C536 1.363 . S
C538 C539 1.370 . S
C538 C542 1.524 . S
C539 C531 1.503 . S
C539 C538 1.370 . S
C539 C540 1.403 . S
C540 C539 1.403 . S
C540 C541 1.404 . S
C540 C543 1.539 . S
C541 C537 1.408 . S
C541 C540 1.404 . S
C541 H553 0.930 . S
C542 C538 1.524 . S
C542 H554 0.956 . S
C542 H555 0.961 . S
C542 H556 0.961 . S
C543 C540 1.539 . S
C543 H557 0.958 . S
C543 H558 0.961 . S
C543 H559 0.960 . S
H544 C528 0.931 . S
H545 C533 0.929 . S
H546 C534 0.960 . S
H547 C534 0.962 . S
H548 C534 0.960 . S
H549 C535 0.961 . S
H550 C535 0.961 . S
H551 C535 0.961 . S
H552 C536 0.931 . S
H553 C541 0.930 . S
H554 C542 0.956 . S
H555 C542 0.961 . S
H556 C542 0.961 . S
H557 C543 0.958 . S
H558 C543 0.961 . S
H559 C543 0.960 . S
C560 C561 1.391 . S
C560 C562 1.394 . S
C560 H576 0.931 . S
C561 C560 1.391 . S
C561 C565 1.376 . S
C562 C560 1.394 . S
C562 C563 1.369 . S
C562 C566 1.531 . S
C563 C562 1.369 . S
C563 C564 1.410 . S
C563 C571 1.503 . S
C564 C563 1.410 . S
C564 C565 1.392 . S
C564 C567 1.511 . S
C565 C561 1.376 . S
C565 C564 1.392 . S
C565 H577 0.929 . S
C566 C562 1.531 . S
C566 H578 0.960 . S
C566 H579 0.962 . S
C566 H580 0.960 . S
C567 C564 1.511 . S
C567 H581 0.961 . S
C567 H582 0.961 . S
C567 H583 0.961 . S
C568 C569 1.370 . S
C568 C570 1.363 . S
C568 H584 0.931 . S
C569 C568 1.370 . S
C569 C573 1.408 . S
C570 C568 1.363 . S
C570 C571 1.370 . S
C570 C574 1.524 . S
C571 C563 1.503 . S
C571 C570 1.370 . S
C571 C572 1.403 . S
C572 C571 1.403 . S
C572 C573 1.404 . S
C572 C575 1.539 . S
C573 C569 1.408 . S
C573 C572 1.404 . S
C573 H585 0.930 . S
C574 C570 1.524 . S
C574 H586 0.956 . S
C574 H587 0.961 . S
C574 H588 0.961 . S
C575 C572 1.539 . S
C575 H589 0.958 . S
C575 H590 0.961 . S
C575 H591 0.960 . S
H576 C560 0.931 . S
H577 C565 0.929 . S
H578 C566 0.960 . S
H579 C566 0.962 . S
H580 C566 0.960 . S
H581 C567 0.961 . S
H582 C567 0.961 . S
H583 C567 0.961 . S
H584 C568 0.931 . S
H585 C573 0.930 . S
H586 C574 0.956 . S
H587 C574 0.961 . S
H588 C574 0.961 . S
H589 C575 0.958 . S
H590 C575 0.961 . S
H591 C575 0.960 . S
C592 C593 1.391 . S
C592 C594 1.394 . S
C592 H608 0.931 . S
C593 C592 1.391 . S
C593 C597 1.376 . S
C594 C592 1.394 . S
C594 C595 1.369 . S
C594 C598 1.531 . S
C595 C594 1.369 . S
C595 C596 1.410 . S
C595 C603 1.503 . S
C596 C595 1.410 . S
C596 C597 1.392 . S
C596 C599 1.511 . S
C597 C593 1.376 . S
C597 C596 1.392 . S
C597 H609 0.929 . S
C598 C594 1.531 . S
C598 H610 0.960 . S
C598 H611 0.962 . S
C598 H612 0.960 . S
C599 C596 1.511 . S
C599 H613 0.961 . S
C599 H614 0.961 . S
C599 H615 0.961 . S
C600 C601 1.370 . S
C600 C602 1.363 . S
C600 H616 0.931 . S
C601 C600 1.370 . S
C601 C605 1.408 . S
C602 C600 1.363 . S
C602 C603 1.370 . S
C602 C606 1.524 . S
C603 C595 1.503 . S
C603 C602 1.370 . S
C603 C604 1.403 . S
C604 C603 1.403 . S
C604 C605 1.404 . S
C604 C607 1.539 . S
C605 C601 1.408 . S
C605 C604 1.404 . S
C605 H617 0.930 . S
C606 C602 1.524 . S
C606 H618 0.956 . S
C606 H619 0.961 . S
C606 H620 0.961 . S
C607 C604 1.539 . S
C607 H621 0.958 . S
C607 H622 0.961 . S
C607 H623 0.960 . S
H608 C592 0.931 . S
H609 C597 0.929 . S
H610 C598 0.960 . S
H611 C598 0.962 . S
H612 C598 0.960 . S
H613 C599 0.961 . S
H614 C599 0.961 . S
H615 C599 0.961 . S
H616 C600 0.931 . S
H617 C605 0.930 . S
H618 C606 0.956 . S
H619 C606 0.961 . S
H620 C606 0.961 . S
H621 C607 0.958 . S
H622 C607 0.961 . S
H623 C607 0.960 . S
C624 C625 1.391 . S
C624 C626 1.394 . S
C624 H640 0.931 . S
C625 C624 1.391 . S
C625 C629 1.376 . S
C626 C624 1.394 . S
C626 C627 1.369 . S
C626 C630 1.531 . S
C627 C626 1.369 . S
C627 C628 1.410 . S
C627 C635 1.503 . S
C628 C627 1.410 . S
C628 C629 1.392 . S
C628 C631 1.511 . S
C629 C625 1.376 . S
C629 C628 1.392 . S
C629 H641 0.929 . S
C630 C626 1.531 . S
C630 H642 0.960 . S
C630 H643 0.962 . S
C630 H644 0.960 . S
C631 C628 1.511 . S
C631 H645 0.961 . S
C631 H646 0.961 . S
C631 H647 0.961 . S
C632 C633 1.370 . S
C632 C634 1.363 . S
C632 H648 0.931 . S
C633 C632 1.370 . S
C633 C637 1.408 . S
C634 C632 1.363 . S
C634 C635 1.370 . S
C634 C638 1.524 . S
C635 C627 1.503 . S
C635 C634 1.370 . S
C635 C636 1.403 . S
C636 C635 1.403 . S
C636 C637 1.404 . S
C636 C639 1.539 . S
C637 C633 1.408 . S
C637 C636 1.404 . S
C637 H649 0.930 . S
C638 C634 1.524 . S
C638 H650 0.956 . S
C638 H651 0.961 . S
C638 H652 0.961 . S
C639 C636 1.539 . S
C639 H653 0.958 . S
C639 H654 0.961 . S
C639 H655 0.960 . S
H640 C624 0.931 . S
H641 C629 0.929 . S
H642 C630 0.960 . S
H643 C630 0.962 . S
H644 C630 0.960 . S
H645 C631 0.961 . S
H646 C631 0.961 . S
H647 C631 0.961 . S
H648 C632 0.931 . S
H649 C637 0.930 . S
H650 C638 0.956 . S
H651 C638 0.961 . S
H652 C638 0.961 . S
H653 C639 0.958 . S
H654 C639 0.961 . S
H655 C639 0.960 . S
C656 C657 1.391 . S
C656 C658 1.394 . S
C656 H672 0.931 . S
C657 C656 1.391 . S
C657 C661 1.376 . S
C658 C656 1.394 . S
C658 C659 1.369 . S
C658 C662 1.531 . S
C659 C658 1.369 . S
C659 C660 1.410 . S
C659 C667 1.503 . S
C660 C659 1.410 . S
C660 C661 1.392 . S
C660 C663 1.511 . S
C661 C657 1.376 . S
C661 C660 1.392 . S
C661 H673 0.929 . S
C662 C658 1.531 . S
C662 H674 0.960 . S
C662 H675 0.962 . S
C662 H676 0.960 . S
C663 C660 1.511 . S
C663 H677 0.961 . S
C663 H678 0.961 . S
C663 H679 0.961 . S
C664 C665 1.370 . S
C664 C666 1.363 . S
C664 H680 0.931 . S
C665 C664 1.370 . S
C665 C669 1.408 . S
C666 C664 1.363 . S
C666 C667 1.370 . S
C666 C670 1.524 . S
C667 C659 1.503 . S
C667 C666 1.370 . S
C667 C668 1.403 . S
C668 C667 1.403 . S
C668 C669 1.404 . S
C668 C671 1.539 . S
C669 C665 1.408 . S
C669 C668 1.404 . S
C669 H681 0.930 . S
C670 C666 1.524 . S
C670 H682 0.956 . S
C670 H683 0.961 . S
C670 H684 0.961 . S
C671 C668 1.539 . S
C671 H685 0.958 . S
C671 H686 0.961 . S
C671 H687 0.960 . S
H672 C656 0.931 . S
H673 C661 0.929 . S
H674 C662 0.960 . S
H675 C662 0.962 . S
H676 C662 0.960 . S
H677 C663 0.961 . S
H678 C663 0.961 . S
H679 C663 0.961 . S
H680 C664 0.931 . S
H681 C669 0.930 . S
H682 C670 0.956 . S
H683 C670 0.961 . S
H684 C670 0.961 . S
H685 C671 0.958 . S
H686 C671 0.961 . S
H687 C671 0.960 . S
C688 C689 1.391 . S
C688 C690 1.394 . S
C688 H704 0.931 . S
C689 C688 1.391 . S
C689 C693 1.376 . S
C690 C688 1.394 . S
C690 C691 1.369 . S
C690 C694 1.531 . S
C691 C690 1.369 . S
C691 C692 1.410 . S
C691 C699 1.503 . S
C692 C691 1.410 . S
C692 C693 1.392 . S
C692 C695 1.511 . S
C693 C689 1.376 . S
C693 C692 1.392 . S
C693 H705 0.929 . S
C694 C690 1.531 . S
C694 H706 0.960 . S
C694 H707 0.962 . S
C694 H708 0.960 . S
C695 C692 1.511 . S
C695 H709 0.961 . S
C695 H710 0.961 . S
C695 H711 0.961 . S
C696 C697 1.370 . S
C696 C698 1.363 . S
C696 H712 0.931 . S
C697 C696 1.370 . S
C697 C701 1.408 . S
C698 C696 1.363 . S
C698 C699 1.370 . S
C698 C702 1.524 . S
C699 C691 1.503 . S
C699 C698 1.370 . S
C699 C700 1.403 . S
C700 C699 1.403 . S
C700 C701 1.404 . S
C700 C703 1.539 . S
C701 C697 1.408 . S
C701 C700 1.404 . S
C701 H713 0.930 . S
C702 C698 1.524 . S
C702 H714 0.956 . S
C702 H715 0.961 . S
C702 H716 0.961 . S
C703 C700 1.539 . S
C703 H717 0.958 . S
C703 H718 0.961 . S
C703 H719 0.960 . S
H704 C688 0.931 . S
H705 C693 0.929 . S
H706 C694 0.960 . S
H707 C694 0.962 . S
H708 C694 0.960 . S
H709 C695 0.961 . S
H710 C695 0.961 . S
H711 C695 0.961 . S
H712 C696 0.931 . S
H713 C701 0.930 . S
H714 C702 0.956 . S
H715 C702 0.961 . S
H716 C702 0.961 . S
H717 C703 0.958 . S
H718 C703 0.961 . S
H719 C703 0.960 . S
C720 C721 1.391 . S
C720 C722 1.394 . S
C720 H736 0.931 . S
C721 C720 1.391 . S
C721 C725 1.376 . S
C722 C720 1.394 . S
C722 C723 1.369 . S
C722 C726 1.531 . S
C723 C722 1.369 . S
C723 C724 1.410 . S
C723 C731 1.503 . S
C724 C723 1.410 . S
C724 C725 1.392 . S
C724 C727 1.511 . S
C725 C721 1.376 . S
C725 C724 1.392 . S
C725 H737 0.929 . S
C726 C722 1.531 . S
C726 H738 0.960 . S
C726 H739 0.962 . S
C726 H740 0.960 . S
C727 C724 1.511 . S
C727 H741 0.961 . S
C727 H742 0.961 . S
C727 H743 0.961 . S
C728 C729 1.370 . S
C728 C730 1.363 . S
C728 H744 0.931 . S
C729 C728 1.370 . S
C729 C733 1.408 . S
C730 C728 1.363 . S
C730 C731 1.370 . S
C730 C734 1.524 . S
C731 C723 1.503 . S
C731 C730 1.370 . S
C731 C732 1.403 . S
C732 C731 1.403 . S
C732 C733 1.404 . S
C732 C735 1.539 . S
C733 C729 1.408 . S
C733 C732 1.404 . S
C733 H745 0.930 . S
C734 C730 1.524 . S
C734 H746 0.956 . S
C734 H747 0.961 . S
C734 H748 0.961 . S
C735 C732 1.539 . S
C735 H749 0.958 . S
C735 H750 0.961 . S
C735 H751 0.960 . S
H736 C720 0.931 . S
H737 C725 0.929 . S
H738 C726 0.960 . S
H739 C726 0.962 . S
H740 C726 0.960 . S
H741 C727 0.961 . S
H742 C727 0.961 . S
H743 C727 0.961 . S
H744 C728 0.931 . S
H745 C733 0.930 . S
H746 C734 0.956 . S
H747 C734 0.961 . S
H748 C734 0.961 . S
H749 C735 0.958 . S
H750 C735 0.961 . S
H751 C735 0.960 . S
C752 C753 1.391 . S
C752 C754 1.394 . S
C752 H768 0.931 . S
C753 C752 1.391 . S
C753 C757 1.376 . S
C754 C752 1.394 . S
C754 C755 1.369 . S
C754 C758 1.531 . S
C755 C754 1.369 . S
C755 C756 1.410 . S
C755 C763 1.503 . S
C756 C755 1.410 . S
C756 C757 1.392 . S
C756 C759 1.511 . S
C757 C753 1.376 . S
C757 C756 1.392 . S
C757 H769 0.929 . S
C758 C754 1.531 . S
C758 H770 0.960 . S
C758 H771 0.962 . S
C758 H772 0.960 . S
C759 C756 1.511 . S
C759 H773 0.961 . S
C759 H774 0.961 . S
C759 H775 0.961 . S
C760 C761 1.370 . S
C760 C762 1.363 . S
C760 H776 0.931 . S
C761 C760 1.370 . S
C761 C765 1.408 . S
C762 C760 1.363 . S
C762 C763 1.370 . S
C762 C766 1.524 . S
C763 C755 1.503 . S
C763 C762 1.370 . S
C763 C764 1.403 . S
C764 C763 1.403 . S
C764 C765 1.404 . S
C764 C767 1.539 . S
C765 C761 1.408 . S
C765 C764 1.404 . S
C765 H777 0.930 . S
C766 C762 1.524 . S
C766 H778 0.956 . S
C766 H779 0.961 . S
C766 H780 0.961 . S
C767 C764 1.539 . S
C767 H781 0.958 . S
C767 H782 0.961 . S
C767 H783 0.960 . S
H768 C752 0.931 . S
H769 C757 0.929 . S
H770 C758 0.960 . S
H771 C758 0.962 . S
H772 C758 0.960 . S
H773 C759 0.961 . S
H774 C759 0.961 . S
H775 C759 0.961 . S
H776 C760 0.931 . S
H777 C765 0.930 . S
H778 C766 0.956 . S
H779 C766 0.961 . S
H780 C766 0.961 . S
H781 C767 0.958 . S
H782 C767 0.961 . S
H783 C767 0.960 . S
C784 C785 1.391 . S
C784 C786 1.394 . S
C784 H800 0.931 . S
C785 C784 1.391 . S
C785 C789 1.376 . S
C786 C784 1.394 . S
C786 C787 1.369 . S
C786 C790 1.531 . S
C787 C786 1.369 . S
C787 C788 1.410 . S
C787 C795 1.503 1_655 S
C788 C787 1.410 . S
C788 C789 1.392 . S
C788 C791 1.511 . S
C789 C785 1.376 . S
C789 C788 1.392 . S
C789 H801 0.929 . S
C790 C786 1.531 . S
C790 H802 0.960 1_655 S
C790 H803 0.962 . S
C790 H804 0.960 . S
C791 C788 1.511 . S
C791 H805 0.961 . S
C791 H806 0.961 1_655 S
C791 H807 0.961 . S
C792 C793 1.370 . S
C792 C794 1.363 . S
C792 H808 0.931 . S
C793 C792 1.370 . S
C793 C797 1.408 . S
C794 C792 1.363 . S
C794 C795 1.370 . S
C794 C798 1.524 . S
C795 C787 1.503 1_455 S
C795 C794 1.370 . S
C795 C796 1.403 . S
C796 C795 1.403 . S
C796 C797 1.404 . S
C796 C799 1.539 . S
C797 C793 1.408 . S
C797 C796 1.404 . S
C797 H809 0.930 . S
C798 C794 1.524 . S
C798 H810 0.983 . S
C798 H811 0.961 1_454 S
C798 H812 0.961 1_554 S
C799 C796 1.539 . S
C799 H813 0.958 . S
C799 H814 0.961 . S
C799 H815 0.969 . S
H800 C784 0.931 . S
H801 C789 0.929 . S
H802 C790 0.960 1_455 S
H803 C790 0.962 . S
H804 C790 0.960 . S
H805 C791 0.961 . S
H806 C791 0.961 1_455 S
H807 C791 0.961 . S
H808 C792 0.931 . S
H809 C797 0.930 . S
H810 C798 0.983 . S
H811 C798 0.961 1_656 S
H812 C798 0.961 1_556 S
H813 C799 0.958 . S
H814 C799 0.961 . S
H815 C799 0.969 . S
C816 C817 1.391 . S
C816 C818 1.394 . S
C816 H832 0.931 . S
C817 C816 1.391 . S
C817 C821 1.376 . S
C818 C816 1.394 . S
C818 C819 1.369 . S
C818 C822 1.531 . S
C819 C818 1.369 . S
C819 C820 1.410 . S
C819 C827 1.503 . S
C820 C819 1.410 . S
C820 C821 1.392 . S
C820 C823 1.511 . S
C821 C817 1.376 . S
C821 C820 1.392 . S
C821 H833 0.929 . S
C822 C818 1.531 . S
C822 H834 0.960 . S
C822 H835 0.962 . S
C822 H836 0.960 . S
C823 C820 1.511 . S
C823 H837 0.961 . S
C823 H838 0.961 . S
C823 H839 0.961 . S
C824 C825 1.370 . S
C824 C826 1.363 . S
C824 H840 0.931 . S
C825 C824 1.370 . S
C825 C829 1.408 . S
C826 C824 1.363 . S
C826 C827 1.370 . S
C826 C830 1.524 . S
C827 C819 1.503 . S
C827 C826 1.370 . S
C827 C828 1.403 . S
C828 C827 1.403 . S
C828 C829 1.404 . S
C828 C831 1.539 . S
C829 C825 1.408 . S
C829 C828 1.404 . S
C829 H841 0.930 . S
C830 C826 1.524 . S
C830 H842 0.956 . S
C830 H843 0.961 . S
C830 H844 0.961 . S
C831 C828 1.539 . S
C831 H845 0.958 . S
C831 H846 0.961 . S
C831 H847 0.960 . S
H832 C816 0.931 . S
H833 C821 0.929 . S
H834 C822 0.960 . S
H835 C822 0.962 . S
H836 C822 0.960 . S
H837 C823 0.961 . S
H838 C823 0.961 . S
H839 C823 0.961 . S
H840 C824 0.931 . S
H841 C829 0.930 . S
H842 C830 0.956 . S
H843 C830 0.961 . S
H844 C830 0.961 . S
H845 C831 0.958 . S
H846 C831 0.961 . S
H847 C831 0.960 . S
C848 C849 1.391 . S
C848 C850 1.394 . S
C848 H864 0.931 . S
C849 C848 1.391 . S
C849 C853 1.376 . S
C850 C848 1.394 . S
C850 C851 1.369 . S
C850 C854 1.531 . S
C851 C850 1.369 . S
C851 C852 1.410 . S
C851 C859 1.503 1_655 S
C852 C851 1.410 . S
C852 C853 1.392 . S
C852 C855 1.511 1_556 S
C853 C849 1.376 . S
C853 C852 1.392 . S
C853 H865 0.929 . S
C854 C850 1.531 . S
C854 H866 0.960 1_655 S
C854 H867 0.962 . S
C854 H868 0.960 . S
C855 C852 1.511 1_554 S
C855 H869 0.961 . S
C855 H870 0.961 1_655 S
C855 H871 0.961 . S
C856 C857 1.370 . S
C856 C858 1.363 . S
C856 H872 0.931 . S
C857 C856 1.370 . S
C857 C861 1.408 . S
C858 C856 1.363 . S
C858 C859 1.370 . S
C858 C862 1.524 . S
C859 C851 1.503 1_455 S
C859 C858 1.370 . S
C859 C860 1.403 . S
C860 C859 1.403 . S
C860 C861 1.404 . S
C860 C863 1.539 . S
C861 C857 1.408 . S
C861 C860 1.404 . S
C861 H873 0.930 . S
C862 C858 1.524 . S
C862 H874 0.983 . S
C862 H875 0.961 1_455 S
C862 H876 0.961 . S
C863 C860 1.539 . S
C863 H877 0.958 . S
C863 H878 0.961 . S
C863 H879 0.969 . S
H864 C848 0.931 . S
H865 C853 0.929 . S
H866 C854 0.960 1_455 S
H867 C854 0.962 . S
H868 C854 0.960 . S
H869 C855 0.961 . S
H870 C855 0.961 1_455 S
H871 C855 0.961 . S
H872 C856 0.931 . S
H873 C861 0.930 . S
H874 C862 0.983 . S
H875 C862 0.961 1_655 S
H876 C862 0.961 . S
H877 C863 0.958 . S
H878 C863 0.961 . S
H879 C863 0.969 . S
C880 C881 1.391 . S
C880 C882 1.394 . S
C880 H896 0.931 . S
C881 C880 1.391 . S
C881 C885 1.376 . S
C882 C880 1.394 . S
C882 C883 1.369 . S
C882 C886 1.531 . S
C883 C882 1.369 . S
C883 C884 1.410 . S
C883 C891 1.503 . S
C884 C883 1.410 . S
C884 C885 1.392 . S
C884 C887 1.511 . S
C885 C881 1.376 . S
C885 C884 1.392 . S
C885 H897 0.929 . S
C886 C882 1.531 . S
C886 H898 0.960 . S
C886 H899 0.962 . S
C886 H900 0.960 . S
C887 C884 1.511 . S
C887 H901 0.961 . S
C887 H902 0.961 . S
C887 H903 0.961 . S
C888 C889 1.370 . S
C888 C890 1.363 . S
C888 H904 0.931 . S
C889 C888 1.370 . S
C889 C893 1.408 . S
C890 C888 1.363 . S
C890 C891 1.370 . S
C890 C894 1.524 . S
C891 C883 1.503 . S
C891 C890 1.370 . S
C891 C892 1.403 . S
C892 C891 1.403 . S
C892 C893 1.404 . S
C892 C895 1.539 . S
C893 C889 1.408 . S
C893 C892 1.404 . S
C893 H905 0.930 . S
C894 C890 1.524 . S
C894 H906 0.956 . S
C894 H907 0.961 . S
C894 H908 0.961 . S
C895 C892 1.539 . S
C895 H909 0.958 . S
C895 H910 0.961 . S
C895 H911 0.960 . S
H896 C880 0.931 . S
H897 C885 0.929 . S
H898 C886 0.960 . S
H899 C886 0.962 . S
H900 C886 0.960 . S
H901 C887 0.961 . S
H902 C887 0.961 . S
H903 C887 0.961 . S
H904 C888 0.931 . S
H905 C893 0.930 . S
H906 C894 0.956 . S
H907 C894 0.961 . S
H908 C894 0.961 . S
H909 C895 0.958 . S
H910 C895 0.961 . S
H911 C895 0.960 . S
C912 C913 1.391 . S
C912 C914 1.394 . S
C912 H928 0.931 . S
C913 C912 1.391 . S
C913 C917 1.376 . S
C914 C912 1.394 . S
C914 C915 1.369 . S
C914 C918 1.531 . S
C915 C914 1.369 . S
C915 C916 1.410 . S
C915 C923 1.503 . S
C916 C915 1.410 . S
C916 C917 1.392 . S
C916 C919 1.511 . S
C917 C913 1.376 . S
C917 C916 1.392 . S
C917 H929 0.929 . S
C918 C914 1.531 . S
C918 H930 0.960 . S
C918 H931 0.962 . S
C918 H932 0.960 . S
C919 C916 1.511 . S
C919 H933 0.961 . S
C919 H934 0.961 . S
C919 H935 0.961 . S
C920 C921 1.370 . S
C920 C922 1.363 . S
C920 H936 0.931 . S
C921 C920 1.370 . S
C921 C925 1.408 . S
C922 C920 1.363 . S
C922 C923 1.370 . S
C922 C926 1.524 . S
C923 C915 1.503 . S
C923 C922 1.370 . S
C923 C924 1.403 . S
C924 C923 1.403 . S
C924 C925 1.404 . S
C924 C927 1.539 1_554 S
C925 C921 1.408 . S
C925 C924 1.404 . S
C925 H937 0.930 . S
C926 C922 1.524 . S
C926 H938 0.956 . S
C926 H939 0.961 . S
C926 H940 0.961 . S
C927 C924 1.539 1_556 S
C927 H941 0.958 . S
C927 H942 0.961 . S
C927 H943 0.960 . S
H928 C912 0.931 . S
H929 C917 0.929 . S
H930 C918 0.960 . S
H931 C918 0.962 . S
H932 C918 0.960 . S
H933 C919 0.961 . S
H934 C919 0.961 . S
H935 C919 0.961 . S
H936 C920 0.931 . S
H937 C925 0.930 . S
H938 C926 0.956 . S
H939 C926 0.961 . S
H940 C926 0.961 . S
H941 C927 0.958 . S
H942 C927 0.961 . S
H943 C927 0.960 . S
C944 C945 1.391 . S
C944 C946 1.394 . S
C944 H960 0.931 . S
C945 C944 1.391 . S
C945 C949 1.376 . S
C946 C944 1.394 . S
C946 C947 1.369 . S
C946 C950 1.531 . S
C947 C946 1.369 . S
C947 C948 1.410 . S
C947 C955 1.503 1_455 S
C948 C947 1.410 . S
C948 C949 1.392 . S
C948 C951 1.511 . S
C949 C945 1.376 . S
C949 C948 1.392 . S
C949 H961 0.929 . S
C950 C946 1.531 . S
C950 H962 0.960 1_455 S
C950 H963 0.962 . S
C950 H964 0.960 . S
C951 C948 1.511 . S
C951 H965 0.961 . S
C951 H966 0.961 1_455 S
C951 H967 0.961 . S
C952 C953 1.370 . S
C952 C954 1.363 . S
C952 H968 0.931 . S
C953 C952 1.370 . S
C953 C957 1.408 . S
C954 C952 1.363 . S
C954 C955 1.370 . S
C954 C958 1.524 . S
C955 C947 1.503 1_655 S
C955 C954 1.370 . S
C955 C956 1.403 . S
C956 C955 1.403 . S
C956 C957 1.404 . S
C956 C959 1.539 . S
C957 C953 1.408 . S
C957 C956 1.404 . S
C957 H969 0.930 . S
C958 C954 1.524 . S
C958 H970 0.983 . S
C958 H971 0.961 1_655 S
C958 H972 0.961 . S
C959 C956 1.539 . S
C959 H973 0.958 . S
C959 H974 0.961 . S
C959 H975 0.969 . S
H960 C944 0.931 . S
H961 C949 0.929 . S
H962 C950 0.960 1_655 S
H963 C950 0.962 . S
H964 C950 0.960 . S
H965 C951 0.961 . S
H966 C951 0.961 1_655 S
H967 C951 0.961 . S
H968 C952 0.931 . S
H969 C957 0.930 . S
H970 C958 0.983 . S
H971 C958 0.961 1_455 S
H972 C958 0.961 . S
H973 C959 0.958 . S
H974 C959 0.961 . S
H975 C959 0.969 . S
C976 C977 1.391 . S
C976 C978 1.394 . S
C976 H992 0.931 . S
C977 C976 1.391 . S
C977 C981 1.376 . S
C978 C976 1.394 . S
C978 C979 1.369 . S
C978 C982 1.531 . S
C979 C978 1.369 . S
C979 C980 1.410 . S
C979 C987 1.503 . S
C980 C979 1.410 . S
C980 C981 1.392 . S
C980 C983 1.511 . S
C981 C977 1.376 . S
C981 C980 1.392 . S
C981 H993 0.929 . S
C982 C978 1.531 . S
C982 H994 0.960 . S
C982 H995 0.962 . S
C982 H996 0.960 . S
C983 C980 1.511 . S
C983 H997 0.961 . S
C983 H998 0.961 . S
C983 H999 0.961 . S
C984 C985 1.370 . S
C984 C986 1.363 . S
C984 H1000 0.931 . S
C985 C984 1.370 . S
C985 C989 1.408 . S
C986 C984 1.363 . S
C986 C987 1.370 . S
C986 C990 1.524 . S
C987 C979 1.503 . S
C987 C986 1.370 . S
C987 C988 1.403 . S
C988 C987 1.403 . S
C988 C989 1.404 . S
C988 C991 1.539 . S
C989 C985 1.408 . S
C989 C988 1.404 . S
C989 H1001 0.930 . S
C990 C986 1.524 . S
C990 H1002 0.956 . S
C990 H1003 0.961 1_556 S
C990 H1004 0.961 1_556 S
C991 C988 1.539 . S
C991 H1005 0.958 . S
C991 H1006 0.961 . S
C991 H1007 0.960 . S
H992 C976 0.931 . S
H993 C981 0.929 . S
H994 C982 0.960 . S
H995 C982 0.962 . S
H996 C982 0.960 . S
H997 C983 0.961 . S
H998 C983 0.961 . S
H999 C983 0.961 . S
H1000 C984 0.931 . S
H1001 C989 0.930 . S
H1002 C990 0.956 . S
H1003 C990 0.961 1_554 S
H1004 C990 0.961 1_554 S
H1005 C991 0.958 . S
H1006 C991 0.961 . S
H1007 C991 0.960 . S
C1008 C1009 1.391 . S
C1008 C1010 1.394 . S
C1008 H1024 0.931 . S
C1009 C1008 1.391 . S
C1009 C1013 1.376 . S
C1010 C1008 1.394 . S
C1010 C1011 1.369 . S
C1010 C1014 1.531 . S
C1011 C1010 1.369 . S
C1011 C1012 1.410 . S
C1011 C1019 1.503 1_655 S
C1012 C1011 1.410 . S
C1012 C1013 1.392 . S
C1012 C1015 1.511 . S
C1013 C1009 1.376 . S
C1013 C1012 1.392 . S
C1013 H1025 0.929 . S
C1014 C1010 1.531 . S
C1014 H1026 0.960 1_655 S
C1014 H1027 0.962 . S
C1014 H1028 0.960 . S
C1015 C1012 1.511 . S
C1015 H1029 0.961 . S
C1015 H1030 0.961 1_655 S
C1015 H1031 0.961 . S
C1016 C1017 1.370 . S
C1016 C1018 1.363 . S
C1016 H1032 0.931 . S
C1017 C1016 1.370 . S
C1017 C1021 1.408 . S
C1018 C1016 1.363 . S
C1018 C1019 1.370 . S
C1018 C1022 1.524 . S
C1019 C1011 1.503 1_455 S
C1019 C1018 1.370 . S
C1019 C1020 1.403 . S
C1020 C1019 1.403 . S
C1020 C1021 1.404 . S
C1020 C1023 1.539 . S
C1021 C1017 1.408 . S
C1021 C1020 1.404 . S
C1021 H1033 0.930 . S
C1022 C1018 1.524 . S
C1022 H1034 0.983 . S
C1022 H1035 0.961 1_455 S
C1022 H1036 0.961 . S
C1023 C1020 1.539 . S
C1023 H1037 0.958 . S
C1023 H1038 0.961 . S
C1023 H1039 0.969 . S
H1024 C1008 0.931 . S
H1025 C1013 0.929 . S
H1026 C1014 0.960 1_455 S
H1027 C1014 0.962 . S
H1028 C1014 0.960 . S
H1029 C1015 0.961 . S
H1030 C1015 0.961 1_455 S
H1031 C1015 0.961 . S
H1032 C1016 0.931 . S
H1033 C1021 0.930 . S
H1034 C1022 0.983 . S
H1035 C1022 0.961 1_655 S
H1036 C1022 0.961 . S
H1037 C1023 0.958 . S
H1038 C1023 0.961 . S
H1039 C1023 0.969 . S
C1040 C1041 1.391 . S
C1040 C1042 1.394 . S
C1040 H1056 0.931 . S
C1041 C1040 1.391 . S
C1041 C1045 1.376 . S
C1042 C1040 1.394 . S
C1042 C1043 1.369 . S
C1042 C1046 1.531 1_545 S
C1043 C1042 1.369 . S
C1043 C1044 1.410 . S
C1043 C1051 1.503 1_544 S
C1044 C1043 1.410 . S
C1044 C1045 1.392 . S
C1044 C1047 1.511 1_554 S
C1045 C1041 1.376 . S
C1045 C1044 1.392 . S
C1045 H1057 0.929 . S
C1046 C1042 1.531 1_565 S
C1046 H1058 0.960 . S
C1046 H1059 0.962 . S
C1046 H1060 0.960 . S
C1047 C1044 1.511 1_556 S
C1047 H1061 0.961 . S
C1047 H1062 0.961 . S
C1047 H1063 0.961 . S
C1048 C1049 1.370 . S
C1048 C1050 1.363 . S
C1048 H1064 0.931 . S
C1049 C1048 1.370 . S
C1049 C1053 1.408 . S
C1050 C1048 1.363 . S
C1050 C1051 1.370 . S
C1050 C1054 1.524 1_565 S
C1051 C1043 1.503 1_566 S
C1051 C1050 1.370 . S
C1051 C1052 1.403 1_556 S
C1052 C1051 1.403 1_554 S
C1052 C1053 1.404 1_554 S
C1052 C1055 1.539 . S
C1053 C1049 1.408 . S
C1053 C1052 1.404 1_556 S
C1053 H1065 0.930 . S
C1054 C1050 1.524 1_545 S
C1054 H1066 0.956 . S
C1054 H1067 0.961 . S
C1054 H1068 0.961 . S
C1055 C1052 1.539 . S
C1055 H1069 0.958 . S
C1055 H1070 0.961 . S
C1055 H1071 0.960 . S
H1056 C1040 0.931 . S
H1057 C1045 0.929 . S
H1058 C1046 0.960 . S
H1059 C1046 0.962 . S
H1060 C1046 0.960 . S
H1061 C1047 0.961 . S
H1062 C1047 0.961 . S
H1063 C1047 0.961 . S
H1064 C1048 0.931 . S
H1065 C1053 0.930 . S
H1066 C1054 0.956 . S
H1067 C1054 0.961 . S
H1068 C1054 0.961 . S
H1069 C1055 0.958 . S
H1070 C1055 0.961 . S
H1071 C1055 0.960 . S
C1072 C1073 1.391 . S
C1072 C1074 1.394 . S
C1072 H1088 0.931 . S
C1073 C1072 1.391 . S
C1073 C1077 1.376 . S
C1074 C1072 1.394 . S
C1074 C1075 1.369 . S
C1074 C1078 1.531 . S
C1075 C1074 1.369 . S
C1075 C1076 1.410 . S
C1075 C1083 1.503 1_565 S
C1076 C1075 1.410 . S
C1076 C1077 1.392 . S
C1076 C1079 1.511 . S
C1077 C1073 1.376 . S
C1077 C1076 1.392 . S
C1077 H1089 0.929 . S
C1078 C1074 1.531 . S
C1078 H1090 0.960 . S
C1078 H1091 0.962 . S
C1078 H1092 0.960 . S
C1079 C1076 1.511 . S
C1079 H1093 0.961 . S
C1079 H1094 0.961 1_565 S
C1079 H1095 0.961 . S
C1080 C1081 1.370 . S
C1080 C1082 1.363 . S
C1080 H1096 0.931 . S
C1081 C1080 1.370 . S
C1081 C1085 1.408 . S
C1082 C1080 1.363 . S
C1082 C1083 1.370 . S
C1082 C1086 1.524 . S
C1083 C1075 1.503 1_545 S
C1083 C1082 1.370 . S
C1083 C1084 1.403 . S
C1084 C1083 1.403 . S
C1084 C1085 1.404 . S
C1084 C1087 1.539 1_545 S
C1085 C1081 1.408 . S
C1085 C1084 1.404 . S
C1085 H1097 0.930 . S
C1086 C1082 1.524 . S
C1086 H1098 0.956 . S
C1086 H1099 0.961 . S
C1086 H1100 0.961 . S
C1087 C1084 1.539 1_565 S
C1087 H1101 0.958 . S
C1087 H1102 0.961 . S
C1087 H1103 0.960 . S
H1088 C1072 0.931 . S
H1089 C1077 0.929 . S
H1090 C1078 0.960 . S
H1091 C1078 0.962 . S
H1092 C1078 0.960 . S
H1093 C1079 0.961 . S
H1094 C1079 0.961 1_545 S
H1095 C1079 0.961 . S
H1096 C1080 0.931 . S
H1097 C1085 0.930 . S
H1098 C1086 0.956 . S
H1099 C1086 0.961 . S
H1100 C1086 0.961 . S
H1101 C1087 0.958 . S
H1102 C1087 0.961 . S
H1103 C1087 0.960 . S
C1104 C1105 1.391 . S
C1104 C1106 1.394 . S
C1104 H1120 0.931 . S
C1105 C1104 1.391 . S
C1105 C1109 1.376 . S
C1106 C1104 1.394 . S
C1106 C1107 1.369 . S
C1106 C1110 1.531 1_565 S
C1107 C1106 1.369 . S
C1107 C1108 1.410 1_556 S
C1107 C1115 1.503 1_566 S
C1108 C1107 1.410 1_554 S
C1108 C1109 1.392 1_554 S
C1108 C1111 1.511 . S
C1109 C1105 1.376 . S
C1109 C1108 1.392 1_556 S
C1109 H1121 0.929 1_556 S
C1110 C1106 1.531 1_545 S
C1110 H1122 0.960 . S
C1110 H1123 0.962 . S
C1110 H1124 0.960 . S
C1111 C1108 1.511 . S
C1111 H1125 0.961 . S
C1111 H1126 0.961 . S
C1111 H1127 0.961 . S
C1112 C1113 1.370 . S
C1112 C1114 1.363 . S
C1112 H1128 0.931 . S
C1113 C1112 1.370 . S
C1113 C1117 1.408 . S
C1114 C1112 1.363 . S
C1114 C1115 1.370 . S
C1114 C1118 1.524 . S
C1115 C1107 1.503 1_544 S
C1115 C1114 1.370 . S
C1115 C1116 1.403 . S
C1116 C1115 1.403 . S
C1116 C1117 1.404 . S
C1116 C1119 1.539 . S
C1117 C1113 1.408 . S
C1117 C1116 1.404 . S
C1117 H1129 0.930 . S
C1118 C1114 1.524 . S
C1118 H1130 0.956 1_554 S
C1118 H1131 0.961 1_545 S
C1118 H1132 0.961 . S
C1119 C1116 1.539 . S
C1119 H1133 0.958 1_554 S
C1119 H1134 0.961 . S
C1119 H1135 0.960 1_545 S
H1120 C1104 0.931 . S
H1121 C1109 0.929 1_554 S
H1122 C1110 0.960 . S
H1123 C1110 0.962 . S
H1124 C1110 0.960 . S
H1125 C1111 0.961 . S
H1126 C1111 0.961 . S
H1127 C1111 0.961 . S
H1128 C1112 0.931 . S
H1129 C1117 0.930 . S
H1130 C1118 0.956 1_556 S
H1131 C1118 0.961 1_565 S
H1132 C1118 0.961 . S
H1133 C1119 0.958 1_556 S
H1134 C1119 0.961 . S
H1135 C1119 0.960 1_565 S
C1136 C1137 1.391 . S
C1136 C1138 1.394 . S
C1136 H1152 0.931 . S
C1137 C1136 1.391 . S
C1137 C1141 1.376 . S
C1138 C1136 1.394 . S
C1138 C1139 1.369 . S
C1138 C1142 1.542 . S
C1139 C1138 1.369 . S
C1139 C1140 1.410 . S
C1139 C1147 1.503 1_545 S
C1140 C1139 1.410 . S
C1140 C1141 1.392 . S
C1140 C1143 1.511 . S
C1141 C1137 1.376 . S
C1141 C1140 1.392 . S
C1141 H1153 0.929 . S
C1142 C1138 1.542 . S
C1142 H1154 0.942 1_545 S
C1142 H1155 0.965 . S
C1142 H1156 0.964 . S
C1143 C1140 1.511 . S
C1143 H1157 0.961 . S
C1143 H1158 0.961 . S
C1143 H1159 0.961 . S
C1144 C1145 1.370 . S
C1144 C1146 1.363 . S
C1144 H1160 0.931 . S
C1145 C1144 1.370 . S
C1145 C1149 1.408 . S
C1146 C1144 1.363 . S
C1146 C1147 1.370 . S
C1146 C1150 1.524 1_565 S
C1147 C1139 1.503 1_565 S
C1147 C1146 1.370 . S
C1147 C1148 1.403 . S
C1148 C1147 1.403 . S
C1148 C1149 1.404 . S
C1148 C1151 1.539 . S
C1149 C1145 1.408 . S
C1149 C1148 1.404 . S
C1149 H1161 0.930 . S
C1150 C1146 1.524 1_545 S
C1150 H1162 0.956 . S
C1150 H1163 0.961 . S
C1150 H1164 0.961 . S
C1151 C1148 1.539 . S
C1151 H1165 0.958 . S
C1151 H1166 0.961 . S
C1151 H1167 0.960 . S
H1152 C1136 0.931 . S
H1153 C1141 0.929 . S
H1154 C1142 0.942 1_565 S
H1155 C1142 0.965 . S
H1156 C1142 0.964 . S
H1157 C1143 0.961 . S
H1158 C1143 0.961 . S
H1159 C1143 0.961 . S
H1160 C1144 0.931 . S
H1161 C1149 0.930 . S
H1162 C1150 0.956 . S
H1163 C1150 0.961 . S
H1164 C1150 0.961 . S
H1165 C1151 0.958 . S
H1166 C1151 0.961 . S
H1167 C1151 0.960 . S
C1168 C1169 1.391 . S
C1168 C1170 1.394 . S
C1168 H1184 0.931 . S
C1169 C1168 1.391 . S
C1169 C1173 1.376 . S
C1170 C1168 1.394 . S
C1170 C1171 1.369 . S
C1170 C1174 1.531 1_554 S
C1171 C1170 1.369 . S
C1171 C1172 1.410 . S
C1171 C1179 1.503 1_554 S
C1172 C1171 1.410 . S
C1172 C1173 1.392 . S
C1172 C1175 1.511 . S
C1173 C1169 1.376 . S
C1173 C1172 1.392 . S
C1173 H1185 0.929 . S
C1174 C1170 1.531 1_556 S
C1174 H1186 0.960 . S
C1174 H1187 0.962 1_556 S
C1174 H1188 0.960 . S
C1175 C1172 1.511 . S
C1175 H1189 0.961 . S
C1175 H1190 0.961 . S
C1175 H1191 0.961 1_554 S
C1176 C1177 1.370 . S
C1176 C1178 1.363 1_556 S
C1176 H1192 0.931 1_556 S
C1177 C1176 1.370 . S
C1177 C1181 1.408 . S
C1178 C1176 1.363 1_554 S
C1178 C1179 1.370 1_554 S
C1178 C1182 1.524 . S
C1179 C1171 1.503 1_556 S
C1179 C1178 1.370 1_556 S
C1179 C1180 1.403 . S
C1180 C1179 1.403 . S
C1180 C1181 1.404 . S
C1180 C1183 1.539 . S
C1181 C1177 1.408 . S
C1181 C1180 1.404 . S
C1181 H1193 0.930 . S
C1182 C1178 1.524 . S
C1182 H1194 0.956 . S
C1182 H1195 0.961 . S
C1182 H1196 0.961 . S
C1183 C1180 1.539 . S
C1183 H1197 0.958 . S
C1183 H1198 0.961 . S
C1183 H1199 0.960 . S
H1184 C1168 0.931 . S
H1185 C1173 0.929 . S
H1186 C1174 0.960 . S
H1187 C1174 0.962 1_554 S
H1188 C1174 0.960 . S
H1189 C1175 0.961 . S
H1190 C1175 0.961 . S
H1191 C1175 0.961 1_556 S
H1192 C1176 0.931 1_554 S
H1193 C1181 0.930 . S
H1194 C1182 0.956 . S
H1195 C1182 0.961 . S
H1196 C1182 0.961 . S
H1197 C1183 0.958 . S
H1198 C1183 0.961 . S
H1199 C1183 0.960 . S
C1200 C1201 1.391 . S
C1200 C1202 1.394 . S
C1200 H1216 0.931 . S
C1201 C1200 1.391 . S
C1201 C1205 1.376 . S
C1202 C1200 1.394 . S
C1202 C1203 1.369 . S
C1202 C1206 1.531 . S
C1203 C1202 1.369 . S
C1203 C1204 1.410 . S
C1203 C1211 1.503 . S
C1204 C1203 1.410 . S
C1204 C1205 1.392 . S
C1204 C1207 1.511 . S
C1205 C1201 1.376 . S
C1205 C1204 1.392 . S
C1205 H1217 0.929 . S
C1206 C1202 1.531 . S
C1206 H1218 0.960 . S
C1206 H1219 0.962 . S
C1206 H1220 0.960 . S
C1207 C1204 1.511 . S
C1207 H1221 0.961 . S
C1207 H1222 0.961 . S
C1207 H1223 0.961 . S
C1208 C1209 1.370 . S
C1208 C1210 1.363 . S
C1208 H1224 0.931 . S
C1209 C1208 1.370 . S
C1209 C1213 1.408 . S
C1210 C1208 1.363 . S
C1210 C1211 1.370 . S
C1210 C1214 1.524 . S
C1211 C1203 1.503 . S
C1211 C1210 1.370 . S
C1211 C1212 1.403 . S
C1212 C1211 1.403 . S
C1212 C1213 1.404 . S
C1212 C1215 1.539 . S
C1213 C1209 1.408 . S
C1213 C1212 1.404 . S
C1213 H1225 0.930 . S
C1214 C1210 1.524 . S
C1214 H1226 0.956 . S
C1214 H1227 0.961 . S
C1214 H1228 0.961 . S
C1215 C1212 1.539 . S
C1215 H1229 0.958 . S
C1215 H1230 0.961 . S
C1215 H1231 0.960 . S
H1216 C1200 0.931 . S
H1217 C1205 0.929 . S
H1218 C1206 0.960 . S
H1219 C1206 0.962 . S
H1220 C1206 0.960 . S
H1221 C1207 0.961 . S
H1222 C1207 0.961 . S
H1223 C1207 0.961 . S
H1224 C1208 0.931 . S
H1225 C1213 0.930 . S
H1226 C1214 0.956 . S
H1227 C1214 0.961 . S
H1228 C1214 0.961 . S
H1229 C1215 0.958 . S
H1230 C1215 0.961 . S
H1231 C1215 0.960 . S
C1232 C1233 1.391 . S
C1232 C1234 1.394 . S
C1232 H1248 0.931 . S
C1233 C1232 1.391 . S
C1233 C1237 1.376 . S
C1234 C1232 1.394 . S
C1234 C1235 1.369 . S
C1234 C1238 1.531 1_556 S
C1235 C1234 1.369 . S
C1235 C1236 1.410 . S
C1235 C1243 1.503 1_556 S
C1236 C1235 1.410 . S
C1236 C1237 1.392 . S
C1236 C1239 1.511 . S
C1237 C1233 1.376 . S
C1237 C1236 1.392 . S
C1237 H1249 0.929 . S
C1238 C1234 1.531 1_554 S
C1238 H1250 0.960 . S
C1238 H1251 0.962 . S
C1238 H1252 0.960 . S
C1239 C1236 1.511 . S
C1239 H1253 0.961 . S
C1239 H1254 0.961 . S
C1239 H1255 0.961 . S
C1240 C1241 1.370 . S
C1240 C1242 1.363 . S
C1240 H1256 0.931 . S
C1241 C1240 1.370 . S
C1241 C1245 1.408 . S
C1242 C1240 1.363 . S
C1242 C1243 1.370 . S
C1242 C1246 1.524 . S
C1243 C1235 1.503 1_554 S
C1243 C1242 1.370 . S
C1243 C1244 1.403 1_554 S
C1244 C1243 1.403 1_556 S
C1244 C1245 1.404 1_556 S
C1244 C1247 1.539 . S
C1245 C1241 1.408 . S
C1245 C1244 1.404 1_554 S
C1245 H1257 0.930 . S
C1246 C1242 1.524 . S
C1246 H1258 0.956 . S
C1246 H1259 0.961 . S
C1246 H1260 0.961 . S
C1247 C1244 1.539 . S
C1247 H1261 0.958 . S
C1247 H1262 0.961 . S
C1247 H1263 0.960 . S
H1248 C1232 0.931 . S
H1249 C1237 0.929 . S
H1250 C1238 0.960 . S
H1251 C1238 0.962 . S
H1252 C1238 0.960 . S
H1253 C1239 0.961 . S
H1254 C1239 0.961 . S
H1255 C1239 0.961 . S
H1256 C1240 0.931 . S
H1257 C1245 0.930 . S
H1258 C1246 0.956 . S
H1259 C1246 0.961 . S
H1260 C1246 0.961 . S
H1261 C1247 0.958 . S
H1262 C1247 0.961 . S
H1263 C1247 0.960 . S
C1264 C1265 1.391 . S
C1264 C1266 1.394 . S
C1264 H1280 0.931 . S
C1265 C1264 1.391 . S
C1265 C1269 1.376 . S
C1266 C1264 1.394 . S
C1266 C1267 1.369 . S
C1266 C1270 1.531 . S
C1267 C1266 1.369 . S
C1267 C1268 1.410 . S
C1267 C1275 1.503 . S
C1268 C1267 1.410 . S
C1268 C1269 1.392 . S
C1268 C1271 1.511 . S
C1269 C1265 1.376 . S
C1269 C1268 1.392 . S
C1269 H1281 0.929 . S
C1270 C1266 1.531 . S
C1270 H1282 0.960 . S
C1270 H1283 0.962 . S
C1270 H1284 0.960 . S
C1271 C1268 1.511 . S
C1271 H1285 0.961 . S
C1271 H1286 0.961 . S
C1271 H1287 0.961 . S
C1272 C1273 1.370 . S
C1272 C1274 1.363 . S
C1272 H1288 0.931 . S
C1273 C1272 1.370 . S
C1273 C1277 1.408 . S
C1274 C1272 1.363 . S
C1274 C1275 1.370 . S
C1274 C1278 1.524 . S
C1275 C1267 1.503 . S
C1275 C1274 1.370 . S
C1275 C1276 1.403 . S
C1276 C1275 1.403 . S
C1276 C1277 1.404 . S
C1276 C1279 1.539 . S
C1277 C1273 1.408 . S
C1277 C1276 1.404 . S
C1277 H1289 0.930 . S
C1278 C1274 1.524 . S
C1278 H1290 0.956 . S
C1278 H1291 0.961 . S
C1278 H1292 0.961 . S
C1279 C1276 1.539 . S
C1279 H1293 0.958 . S
C1279 H1294 0.961 . S
C1279 H1295 0.960 . S
H1280 C1264 0.931 . S
H1281 C1269 0.929 . S
H1282 C1270 0.960 . S
H1283 C1270 0.962 . S
H1284 C1270 0.960 . S
H1285 C1271 0.961 . S
H1286 C1271 0.961 . S
H1287 C1271 0.961 . S
H1288 C1272 0.931 . S
H1289 C1277 0.930 . S
H1290 C1278 0.956 . S
H1291 C1278 0.961 . S
H1292 C1278 0.961 . S
H1293 C1279 0.958 . S
H1294 C1279 0.961 . S
H1295 C1279 0.960 . S
C1296 C1297 1.391 . S
C1296 C1298 1.394 . S
C1296 H1312 0.931 . S
C1297 C1296 1.391 . S
C1297 C1301 1.376 . S
C1298 C1296 1.394 . S
C1298 C1299 1.369 . S
C1298 C1302 1.531 . S
C1299 C1298 1.369 . S
C1299 C1300 1.410 . S
C1299 C1307 1.503 . S
C1300 C1299 1.410 . S
C1300 C1301 1.392 . S
C1300 C1303 1.511 . S
C1301 C1297 1.376 . S
C1301 C1300 1.392 . S
C1301 H1313 0.929 . S
C1302 C1298 1.531 . S
C1302 H1314 0.960 . S
C1302 H1315 0.962 . S
C1302 H1316 0.960 . S
C1303 C1300 1.511 . S
C1303 H1317 0.961 . S
C1303 H1318 0.961 . S
C1303 H1319 0.961 . S
C1304 C1305 1.370 . S
C1304 C1306 1.363 . S
C1304 H1320 0.931 . S
C1305 C1304 1.370 . S
C1305 C1309 1.408 . S
C1306 C1304 1.363 . S
C1306 C1307 1.370 . S
C1306 C1310 1.524 . S
C1307 C1299 1.503 . S
C1307 C1306 1.370 . S
C1307 C1308 1.403 . S
C1308 C1307 1.403 . S
C1308 C1309 1.404 . S
C1308 C1311 1.539 . S
C1309 C1305 1.408 . S
C1309 C1308 1.404 . S
C1309 H1321 0.930 . S
C1310 C1306 1.524 . S
C1310 H1322 0.956 . S
C1310 H1323 0.961 . S
C1310 H1324 0.961 . S
C1311 C1308 1.539 . S
C1311 H1325 0.958 . S
C1311 H1326 0.961 . S
C1311 H1327 0.960 . S
H1312 C1296 0.931 . S
H1313 C1301 0.929 . S
H1314 C1302 0.960 . S
H1315 C1302 0.962 . S
H1316 C1302 0.960 . S
H1317 C1303 0.961 . S
H1318 C1303 0.961 . S
H1319 C1303 0.961 . S
H1320 C1304 0.931 . S
H1321 C1309 0.930 . S
H1322 C1310 0.956 . S
H1323 C1310 0.961 . S
H1324 C1310 0.961 . S
H1325 C1311 0.958 . S
H1326 C1311 0.961 . S
H1327 C1311 0.960 . S
C1328 C1329 1.391 . S
C1328 C1330 1.394 . S
C1328 H1344 0.931 . S
C1329 C1328 1.391 . S
C1329 C1333 1.376 . S
C1330 C1328 1.394 . S
C1330 C1331 1.369 . S
C1330 C1334 1.531 . S
C1331 C1330 1.369 . S
C1331 C1332 1.410 . S
C1331 C1339 1.503 . S
C1332 C1331 1.410 . S
C1332 C1333 1.392 . S
C1332 C1335 1.511 . S
C1333 C1329 1.376 . S
C1333 C1332 1.392 . S
C1333 H1345 0.929 . S
C1334 C1330 1.531 . S
C1334 H1346 0.960 . S
C1334 H1347 0.962 . S
C1334 H1348 0.960 . S
C1335 C1332 1.511 . S
C1335 H1349 0.961 . S
C1335 H1350 0.961 . S
C1335 H1351 0.961 . S
C1336 C1337 1.370 . S
C1336 C1338 1.363 . S
C1336 H1352 0.931 . S
C1337 C1336 1.370 . S
C1337 C1341 1.408 . S
C1338 C1336 1.363 . S
C1338 C1339 1.370 . S
C1338 C1342 1.524 . S
C1339 C1331 1.503 . S
C1339 C1338 1.370 . S
C1339 C1340 1.403 . S
C1340 C1339 1.403 . S
C1340 C1341 1.404 . S
C1340 C1343 1.539 . S
C1341 C1337 1.408 . S
C1341 C1340 1.404 . S
C1341 H1353 0.930 . S
C1342 C1338 1.524 . S
C1342 H1354 0.956 . S
C1342 H1355 0.961 . S
C1342 H1356 0.961 . S
C1343 C1340 1.539 . S
C1343 H1357 0.958 . S
C1343 H1358 0.961 . S
C1343 H1359 0.960 . S
H1344 C1328 0.931 . S
H1345 C1333 0.929 . S
H1346 C1334 0.960 . S
H1347 C1334 0.962 . S
H1348 C1334 0.960 . S
H1349 C1335 0.961 . S
H1350 C1335 0.961 . S
H1351 C1335 0.961 . S
H1352 C1336 0.931 . S
H1353 C1341 0.930 . S
H1354 C1342 0.956 . S
H1355 C1342 0.961 . S
H1356 C1342 0.961 . S
H1357 C1343 0.958 . S
H1358 C1343 0.961 . S
H1359 C1343 0.960 . S
C1360 C1361 1.391 . S
C1360 C1362 1.394 . S
C1360 H1376 0.931 . S
C1361 C1360 1.391 . S
C1361 C1365 1.376 . S
C1362 C1360 1.394 . S
C1362 C1363 1.369 . S
C1362 C1366 1.531 . S
C1363 C1362 1.369 . S
C1363 C1364 1.410 . S
C1363 C1371 1.503 . S
C1364 C1363 1.410 . S
C1364 C1365 1.392 . S
C1364 C1367 1.511 . S
C1365 C1361 1.376 . S
C1365 C1364 1.392 . S
C1365 H1377 0.929 . S
C1366 C1362 1.531 . S
C1366 H1378 0.960 . S
C1366 H1379 0.962 . S
C1366 H1380 0.960 . S
C1367 C1364 1.511 . S
C1367 H1381 0.961 . S
C1367 H1382 0.961 . S
C1367 H1383 0.961 . S
C1368 C1369 1.370 . S
C1368 C1370 1.363 . S
C1368 H1384 0.931 . S
C1369 C1368 1.370 . S
C1369 C1373 1.408 . S
C1370 C1368 1.363 . S
C1370 C1371 1.370 . S
C1370 C1374 1.524 . S
C1371 C1363 1.503 . S
C1371 C1370 1.370 . S
C1371 C1372 1.403 . S
C1372 C1371 1.403 . S
C1372 C1373 1.404 . S
C1372 C1375 1.539 . S
C1373 C1369 1.408 . S
C1373 C1372 1.404 . S
C1373 H1385 0.930 . S
C1374 C1370 1.524 . S
C1374 H1386 0.956 . S
C1374 H1387 0.961 . S
C1374 H1388 0.961 . S
C1375 C1372 1.539 . S
C1375 H1389 0.958 . S
C1375 H1390 0.961 . S
C1375 H1391 0.960 . S
H1376 C1360 0.931 . S
H1377 C1365 0.929 . S
H1378 C1366 0.960 . S
H1379 C1366 0.962 . S
H1380 C1366 0.960 . S
H1381 C1367 0.961 . S
H1382 C1367 0.961 . S
H1383 C1367 0.961 . S
H1384 C1368 0.931 . S
H1385 C1373 0.930 . S
H1386 C1374 0.956 . S
H1387 C1374 0.961 . S
H1388 C1374 0.961 . S
H1389 C1375 0.958 . S
H1390 C1375 0.961 . S
H1391 C1375 0.960 . S
C1392 C1393 1.391 . S
C1392 C1394 1.394 . S
C1392 H1408 0.931 . S
C1393 C1392 1.391 . S
C1393 C1397 1.376 . S
C1394 C1392 1.394 . S
C1394 C1395 1.369 . S
C1394 C1398 1.531 . S
C1395 C1394 1.369 . S
C1395 C1396 1.410 . S
C1395 C1403 1.503 . S
C1396 C1395 1.410 . S
C1396 C1397 1.392 . S
C1396 C1399 1.511 . S
C1397 C1393 1.376 . S
C1397 C1396 1.392 . S
C1397 H1409 0.929 . S
C1398 C1394 1.531 . S
C1398 H1410 0.960 . S
C1398 H1411 0.962 . S
C1398 H1412 0.960 . S
C1399 C1396 1.511 . S
C1399 H1413 0.961 . S
C1399 H1414 0.961 . S
C1399 H1415 0.961 . S
C1400 C1401 1.370 . S
C1400 C1402 1.363 . S
C1400 H1416 0.931 . S
C1401 C1400 1.370 . S
C1401 C1405 1.408 . S
C1402 C1400 1.363 . S
C1402 C1403 1.370 . S
C1402 C1406 1.524 . S
C1403 C1395 1.503 . S
C1403 C1402 1.370 . S
C1403 C1404 1.403 . S
C1404 C1403 1.403 . S
C1404 C1405 1.404 . S
C1404 C1407 1.539 . S
C1405 C1401 1.408 . S
C1405 C1404 1.404 . S
C1405 H1417 0.930 . S
C1406 C1402 1.524 . S
C1406 H1418 0.956 . S
C1406 H1419 0.961 . S
C1406 H1420 0.961 . S
C1407 C1404 1.539 . S
C1407 H1421 0.958 . S
C1407 H1422 0.961 . S
C1407 H1423 0.960 . S
H1408 C1392 0.931 . S
H1409 C1397 0.929 . S
H1410 C1398 0.960 . S
H1411 C1398 0.962 . S
H1412 C1398 0.960 . S
H1413 C1399 0.961 . S
H1414 C1399 0.961 . S
H1415 C1399 0.961 . S
H1416 C1400 0.931 . S
H1417 C1405 0.930 . S
H1418 C1406 0.956 . S
H1419 C1406 0.961 . S
H1420 C1406 0.961 . S
H1421 C1407 0.958 . S
H1422 C1407 0.961 . S
H1423 C1407 0.960 . S
C1424 C1425 1.391 . S
C1424 C1426 1.394 . S
C1424 H1440 0.931 . S
C1425 C1424 1.391 . S
C1425 C1429 1.376 . S
C1426 C1424 1.394 . S
C1426 C1427 1.369 . S
C1426 C1430 1.531 . S
C1427 C1426 1.369 . S
C1427 C1428 1.410 . S
C1427 C1435 1.503 . S
C1428 C1427 1.410 . S
C1428 C1429 1.392 . S
C1428 C1431 1.511 . S
C1429 C1425 1.376 . S
C1429 C1428 1.392 . S
C1429 H1441 0.929 . S
C1430 C1426 1.531 . S
C1430 H1442 0.960 . S
C1430 H1443 0.962 . S
C1430 H1444 0.960 . S
C1431 C1428 1.511 . S
C1431 H1445 0.961 . S
C1431 H1446 0.961 . S
C1431 H1447 0.961 . S
C1432 C1433 1.370 . S
C1432 C1434 1.363 . S
C1432 H1448 0.931 . S
C1433 C1432 1.370 . S
C1433 C1437 1.408 . S
C1434 C1432 1.363 . S
C1434 C1435 1.370 . S
C1434 C1438 1.524 . S
C1435 C1427 1.503 . S
C1435 C1434 1.370 . S
C1435 C1436 1.403 . S
C1436 C1435 1.403 . S
C1436 C1437 1.404 . S
C1436 C1439 1.539 . S
C1437 C1433 1.408 . S
C1437 C1436 1.404 . S
C1437 H1449 0.930 . S
C1438 C1434 1.524 . S
C1438 H1450 0.956 . S
C1438 H1451 0.961 . S
C1438 H1452 0.961 . S
C1439 C1436 1.539 . S
C1439 H1453 0.958 . S
C1439 H1454 0.961 . S
C1439 H1455 0.960 . S
H1440 C1424 0.931 . S
H1441 C1429 0.929 . S
H1442 C1430 0.960 . S
H1443 C1430 0.962 . S
H1444 C1430 0.960 . S
H1445 C1431 0.961 . S
H1446 C1431 0.961 . S
H1447 C1431 0.961 . S
H1448 C1432 0.931 . S
H1449 C1437 0.930 . S
H1450 C1438 0.956 . S
H1451 C1438 0.961 . S
H1452 C1438 0.961 . S
H1453 C1439 0.958 . S
H1454 C1439 0.961 . S
H1455 C1439 0.960 . S
C1456 C1457 1.391 . S
C1456 C1458 1.394 . S
C1456 H1472 0.931 . S
C1457 C1456 1.391 . S
C1457 C1461 1.376 . S
C1458 C1456 1.394 . S
C1458 C1459 1.369 . S
C1458 C1462 1.531 . S
C1459 C1458 1.369 . S
C1459 C1460 1.410 . S
C1459 C1467 1.503 . S
C1460 C1459 1.410 . S
C1460 C1461 1.392 . S
C1460 C1463 1.511 . S
C1461 C1457 1.376 . S
C1461 C1460 1.392 . S
C1461 H1473 0.929 . S
C1462 C1458 1.531 . S
C1462 H1474 0.960 . S
C1462 H1475 0.962 . S
C1462 H1476 0.960 . S
C1463 C1460 1.511 . S
C1463 H1477 0.961 . S
C1463 H1478 0.961 . S
C1463 H1479 0.961 . S
C1464 C1465 1.370 . S
C1464 C1466 1.363 . S
C1464 H1480 0.931 . S
C1465 C1464 1.370 . S
C1465 C1469 1.408 . S
C1466 C1464 1.363 . S
C1466 C1467 1.370 . S
C1466 C1470 1.524 . S
C1467 C1459 1.503 . S
C1467 C1466 1.370 . S
C1467 C1468 1.403 . S
C1468 C1467 1.403 . S
C1468 C1469 1.404 . S
C1468 C1471 1.539 . S
C1469 C1465 1.408 . S
C1469 C1468 1.404 . S
C1469 H1481 0.930 . S
C1470 C1466 1.524 . S
C1470 H1482 0.956 . S
C1470 H1483 0.961 . S
C1470 H1484 0.961 . S
C1471 C1468 1.539 . S
C1471 H1485 0.958 . S
C1471 H1486 0.961 . S
C1471 H1487 0.960 . S
H1472 C1456 0.931 . S
H1473 C1461 0.929 . S
H1474 C1462 0.960 . S
H1475 C1462 0.962 . S
H1476 C1462 0.960 . S
H1477 C1463 0.961 . S
H1478 C1463 0.961 . S
H1479 C1463 0.961 . S
H1480 C1464 0.931 . S
H1481 C1469 0.930 . S
H1482 C1470 0.956 . S
H1483 C1470 0.961 . S
H1484 C1470 0.961 . S
H1485 C1471 0.958 . S
H1486 C1471 0.961 . S
H1487 C1471 0.960 . S
C1488 C1489 1.391 . S
C1488 C1490 1.394 . S
C1488 H1504 0.931 . S
C1489 C1488 1.391 . S
C1489 C1493 1.376 . S
C1490 C1488 1.394 . S
C1490 C1491 1.369 . S
C1490 C1494 1.531 . S
C1491 C1490 1.369 . S
C1491 C1492 1.410 . S
C1491 C1499 1.503 . S
C1492 C1491 1.410 . S
C1492 C1493 1.392 . S
C1492 C1495 1.511 . S
C1493 C1489 1.376 . S
C1493 C1492 1.392 . S
C1493 H1505 0.929 . S
C1494 C1490 1.531 . S
C1494 H1506 0.960 . S
C1494 H1507 0.962 . S
C1494 H1508 0.960 . S
C1495 C1492 1.511 . S
C1495 H1509 0.961 . S
C1495 H1510 0.961 . S
C1495 H1511 0.961 . S
C1496 C1497 1.370 . S
C1496 C1498 1.363 . S
C1496 H1512 0.931 . S
C1497 C1496 1.370 . S
C1497 C1501 1.408 . S
C1498 C1496 1.363 . S
C1498 C1499 1.370 . S
C1498 C1502 1.524 . S
C1499 C1491 1.503 . S
C1499 C1498 1.370 . S
C1499 C1500 1.403 . S
C1500 C1499 1.403 . S
C1500 C1501 1.404 . S
C1500 C1503 1.539 . S
C1501 C1497 1.408 . S
C1501 C1500 1.404 . S
C1501 H1513 0.930 . S
C1502 C1498 1.524 . S
C1502 H1514 0.956 . S
C1502 H1515 0.961 . S
C1502 H1516 0.961 . S
C1503 C1500 1.539 . S
C1503 H1517 0.958 . S
C1503 H1518 0.961 . S
C1503 H1519 0.960 . S
H1504 C1488 0.931 . S
H1505 C1493 0.929 . S
H1506 C1494 0.960 . S
H1507 C1494 0.962 . S
H1508 C1494 0.960 . S
H1509 C1495 0.961 . S
H1510 C1495 0.961 . S
H1511 C1495 0.961 . S
H1512 C1496 0.931 . S
H1513 C1501 0.930 . S
H1514 C1502 0.956 . S
H1515 C1502 0.961 . S
H1516 C1502 0.961 . S
H1517 C1503 0.958 . S
H1518 C1503 0.961 . S
H1519 C1503 0.960 . S
C1520 C1521 1.391 . S
C1520 C1522 1.394 . S
C1520 H1536 0.931 . S
C1521 C1520 1.391 . S
C1521 C1525 1.376 . S
C1522 C1520 1.394 . S
C1522 C1523 1.369 . S
C1522 C1526 1.531 . S
C1523 C1522 1.369 . S
C1523 C1524 1.410 . S
C1523 C1531 1.503 . S
C1524 C1523 1.410 . S
C1524 C1525 1.392 . S
C1524 C1527 1.511 . S
C1525 C1521 1.376 . S
C1525 C1524 1.392 . S
C1525 H1537 0.929 . S
C1526 C1522 1.531 . S
C1526 H1538 0.960 . S
C1526 H1539 0.962 . S
C1526 H1540 0.960 . S
C1527 C1524 1.511 . S
C1527 H1541 0.961 . S
C1527 H1542 0.961 . S
C1527 H1543 0.961 . S
C1528 C1529 1.370 . S
C1528 C1530 1.363 . S
C1528 H1544 0.931 . S
C1529 C1528 1.370 . S
C1529 C1533 1.408 . S
C1530 C1528 1.363 . S
C1530 C1531 1.370 . S
C1530 C1534 1.524 . S
C1531 C1523 1.503 . S
C1531 C1530 1.370 . S
C1531 C1532 1.403 . S
C1532 C1531 1.403 . S
C1532 C1533 1.404 . S
C1532 C1535 1.539 . S
C1533 C1529 1.408 . S
C1533 C1532 1.404 . S
C1533 H1545 0.930 . S
C1534 C1530 1.524 . S
C1534 H1546 0.956 . S
C1534 H1547 0.961 . S
C1534 H1548 0.961 . S
C1535 C1532 1.539 . S
C1535 H1549 0.958 . S
C1535 H1550 0.961 . S
C1535 H1551 0.960 . S
H1536 C1520 0.931 . S
H1537 C1525 0.929 . S
H1538 C1526 0.960 . S
H1539 C1526 0.962 . S
H1540 C1526 0.960 . S
H1541 C1527 0.961 . S
H1542 C1527 0.961 . S
H1543 C1527 0.961 . S
H1544 C1528 0.931 . S
H1545 C1533 0.930 . S
H1546 C1534 0.956 . S
H1547 C1534 0.961 . S
H1548 C1534 0.961 . S
H1549 C1535 0.958 . S
H1550 C1535 0.961 . S
H1551 C1535 0.960 . S
C1552 C1553 1.391 . S
C1552 C1554 1.394 . S
C1552 H1568 0.931 . S
C1553 C1552 1.391 . S
C1553 C1557 1.376 . S
C1554 C1552 1.394 . S
C1554 C1555 1.369 . S
C1554 C1558 1.531 . S
C1555 C1554 1.369 . S
C1555 C1556 1.410 . S
C1555 C1563 1.503 . S
C1556 C1555 1.410 . S
C1556 C1557 1.392 . S
C1556 C1559 1.511 . S
C1557 C1553 1.376 . S
C1557 C1556 1.392 . S
C1557 H1569 0.929 . S
C1558 C1554 1.531 . S
C1558 H1570 0.960 . S
C1558 H1571 0.962 . S
C1558 H1572 0.960 . S
C1559 C1556 1.511 . S
C1559 H1573 0.961 . S
C1559 H1574 0.961 . S
C1559 H1575 0.961 . S
C1560 C1561 1.370 . S
C1560 C1562 1.363 . S
C1560 H1576 0.931 . S
C1561 C1560 1.370 . S
C1561 C1565 1.408 . S
C1562 C1560 1.363 . S
C1562 C1563 1.370 . S
C1562 C1566 1.524 . S
C1563 C1555 1.503 . S
C1563 C1562 1.370 . S
C1563 C1564 1.403 . S
C1564 C1563 1.403 . S
C1564 C1565 1.404 . S
C1564 C1567 1.539 . S
C1565 C1561 1.408 . S
C1565 C1564 1.404 . S
C1565 H1577 0.930 . S
C1566 C1562 1.524 . S
C1566 H1578 0.956 . S
C1566 H1579 0.961 . S
C1566 H1580 0.961 . S
C1567 C1564 1.539 . S
C1567 H1581 0.958 . S
C1567 H1582 0.961 . S
C1567 H1583 0.960 . S
H1568 C1552 0.931 . S
H1569 C1557 0.929 . S
H1570 C1558 0.960 . S
H1571 C1558 0.962 . S
H1572 C1558 0.960 . S
H1573 C1559 0.961 . S
H1574 C1559 0.961 . S
H1575 C1559 0.961 . S
H1576 C1560 0.931 . S
H1577 C1565 0.930 . S
H1578 C1566 0.956 . S
H1579 C1566 0.961 . S
H1580 C1566 0.961 . S
H1581 C1567 0.958 . S
H1582 C1567 0.961 . S
H1583 C1567 0.960 . S
C1584 C1585 1.391 . S
C1584 C1586 1.394 . S
C1584 H1600 0.931 . S
C1585 C1584 1.391 . S
C1585 C1589 1.376 . S
C1586 C1584 1.394 . S
C1586 C1587 1.369 . S
C1586 C1590 1.531 . S
C1587 C1586 1.369 . S
C1587 C1588 1.410 . S
C1587 C1595 1.503 . S
C1588 C1587 1.410 . S
C1588 C1589 1.392 . S
C1588 C1591 1.511 . S
C1589 C1585 1.376 . S
C1589 C1588 1.392 . S
C1589 H1601 0.929 . S
C1590 C1586 1.531 . S
C1590 H1602 0.960 . S
C1590 H1603 0.962 . S
C1590 H1604 0.960 . S
C1591 C1588 1.511 . S
C1591 H1605 0.961 . S
C1591 H1606 0.961 . S
C1591 H1607 0.961 . S
C1592 C1593 1.370 . S
C1592 C1594 1.363 . S
C1592 H1608 0.931 . S
C1593 C1592 1.370 . S
C1593 C1597 1.408 . S
C1594 C1592 1.363 . S
C1594 C1595 1.370 . S
C1594 C1598 1.524 . S
C1595 C1587 1.503 . S
C1595 C1594 1.370 . S
C1595 C1596 1.403 . S
C1596 C1595 1.403 . S
C1596 C1597 1.404 . S
C1596 C1599 1.539 . S
C1597 C1593 1.408 . S
C1597 C1596 1.404 . S
C1597 H1609 0.930 . S
C1598 C1594 1.524 . S
C1598 H1610 0.956 . S
C1598 H1611 0.961 . S
C1598 H1612 0.961 . S
C1599 C1596 1.539 . S
C1599 H1613 0.958 . S
C1599 H1614 0.961 . S
C1599 H1615 0.960 . S
H1600 C1584 0.931 . S
H1601 C1589 0.929 . S
H1602 C1590 0.960 . S
H1603 C1590 0.962 . S
H1604 C1590 0.960 . S
H1605 C1591 0.961 . S
H1606 C1591 0.961 . S
H1607 C1591 0.961 . S
H1608 C1592 0.931 . S
H1609 C1597 0.930 . S
H1610 C1598 0.956 . S
H1611 C1598 0.961 . S
H1612 C1598 0.961 . S
H1613 C1599 0.958 . S
H1614 C1599 0.961 . S
H1615 C1599 0.960 . S
C1616 C1617 1.391 . S
C1616 C1618 1.394 . S
C1616 H1632 0.931 . S
C1617 C1616 1.391 . S
C1617 C1621 1.376 . S
C1618 C1616 1.394 . S
C1618 C1619 1.369 . S
C1618 C1622 1.531 . S
C1619 C1618 1.369 . S
C1619 C1620 1.410 . S
C1619 C1627 1.503 . S
C1620 C1619 1.410 . S
C1620 C1621 1.392 . S
C1620 C1623 1.511 . S
C1621 C1617 1.376 . S
C1621 C1620 1.392 . S
C1621 H1633 0.929 . S
C1622 C1618 1.531 . S
C1622 H1634 0.960 . S
C1622 H1635 0.962 . S
C1622 H1636 0.960 . S
C1623 C1620 1.511 . S
C1623 H1637 0.961 . S
C1623 H1638 0.961 . S
C1623 H1639 0.961 . S
C1624 C1625 1.370 . S
C1624 C1626 1.363 . S
C1624 H1640 0.931 . S
C1625 C1624 1.370 . S
C1625 C1629 1.408 . S
C1626 C1624 1.363 . S
C1626 C1627 1.370 . S
C1626 C1630 1.524 . S
C1627 C1619 1.503 . S
C1627 C1626 1.370 . S
C1627 C1628 1.403 . S
C1628 C1627 1.403 . S
C1628 C1629 1.404 . S
C1628 C1631 1.539 . S
C1629 C1625 1.408 . S
C1629 C1628 1.404 . S
C1629 H1641 0.930 . S
C1630 C1626 1.524 . S
C1630 H1642 0.956 . S
C1630 H1643 0.961 . S
C1630 H1644 0.961 . S
C1631 C1628 1.539 . S
C1631 H1645 0.958 . S
C1631 H1646 0.961 . S
C1631 H1647 0.960 . S
H1632 C1616 0.931 . S
H1633 C1621 0.929 . S
H1634 C1622 0.960 . S
H1635 C1622 0.962 . S
H1636 C1622 0.960 . S
H1637 C1623 0.961 . S
H1638 C1623 0.961 . S
H1639 C1623 0.961 . S
H1640 C1624 0.931 . S
H1641 C1629 0.930 . S
H1642 C1630 0.956 . S
H1643 C1630 0.961 . S
H1644 C1630 0.961 . S
H1645 C1631 0.958 . S
H1646 C1631 0.961 . S
H1647 C1631 0.960 . S
C1648 C1649 1.391 . S
C1648 C1650 1.394 . S
C1648 H1664 0.931 . S
C1649 C1648 1.391 . S
C1649 C1653 1.376 . S
C1650 C1648 1.394 . S
C1650 C1651 1.369 . S
C1650 C1654 1.531 . S
C1651 C1650 1.369 . S
C1651 C1652 1.410 . S
C1651 C1659 1.503 . S
C1652 C1651 1.410 . S
C1652 C1653 1.392 . S
C1652 C1655 1.511 . S
C1653 C1649 1.376 . S
C1653 C1652 1.392 . S
C1653 H1665 0.929 . S
C1654 C1650 1.531 . S
C1654 H1666 0.960 . S
C1654 H1667 0.962 . S
C1654 H1668 0.960 . S
C1655 C1652 1.511 . S
C1655 H1669 0.961 . S
C1655 H1670 0.961 . S
C1655 H1671 0.961 . S
C1656 C1657 1.370 . S
C1656 C1658 1.363 . S
C1656 H1672 0.931 . S
C1657 C1656 1.370 . S
C1657 C1661 1.408 . S
C1658 C1656 1.363 . S
C1658 C1659 1.370 . S
C1658 C1662 1.524 . S
C1659 C1651 1.503 . S
C1659 C1658 1.370 . S
C1659 C1660 1.403 . S
C1660 C1659 1.403 . S
C1660 C1661 1.404 . S
C1660 C1663 1.539 . S
C1661 C1657 1.408 . S
C1661 C1660 1.404 . S
C1661 H1673 0.930 . S
C1662 C1658 1.524 . S
C1662 H1674 0.956 . S
C1662 H1675 0.961 . S
C1662 H1676 0.961 . S
C1663 C1660 1.539 . S
C1663 H1677 0.958 . S
C1663 H1678 0.961 . S
C1663 H1679 0.960 . S
H1664 C1648 0.931 . S
H1665 C1653 0.929 . S
H1666 C1654 0.960 . S
H1667 C1654 0.962 . S
H1668 C1654 0.960 . S
H1669 C1655 0.961 . S
H1670 C1655 0.961 . S
H1671 C1655 0.961 . S
H1672 C1656 0.931 . S
H1673 C1661 0.930 . S
H1674 C1662 0.956 . S
H1675 C1662 0.961 . S
H1676 C1662 0.961 . S
H1677 C1663 0.958 . S
H1678 C1663 0.961 . S
H1679 C1663 0.960 . S
C1680 C1681 1.391 . S
C1680 C1682 1.394 . S
C1680 H1696 0.931 . S
C1681 C1680 1.391 . S
C1681 C1685 1.376 . S
C1682 C1680 1.394 . S
C1682 C1683 1.369 . S
C1682 C1686 1.531 . S
C1683 C1682 1.369 . S
C1683 C1684 1.410 . S
C1683 C1691 1.503 . S
C1684 C1683 1.410 . S
C1684 C1685 1.392 . S
C1684 C1687 1.511 . S
C1685 C1681 1.376 . S
C1685 C1684 1.392 . S
C1685 H1697 0.929 . S
C1686 C1682 1.531 . S
C1686 H1698 0.960 . S
C1686 H1699 0.962 . S
C1686 H1700 0.960 . S
C1687 C1684 1.511 . S
C1687 H1701 0.961 . S
C1687 H1702 0.961 . S
C1687 H1703 0.961 . S
C1688 C1689 1.370 . S
C1688 C1690 1.363 . S
C1688 H1704 0.931 . S
C1689 C1688 1.370 . S
C1689 C1693 1.408 . S
C1690 C1688 1.363 . S
C1690 C1691 1.370 . S
C1690 C1694 1.524 . S
C1691 C1683 1.503 . S
C1691 C1690 1.370 . S
C1691 C1692 1.403 . S
C1692 C1691 1.403 . S
C1692 C1693 1.404 . S
C1692 C1695 1.539 . S
C1693 C1689 1.408 . S
C1693 C1692 1.404 . S
C1693 H1705 0.930 . S
C1694 C1690 1.524 . S
C1694 H1706 0.956 . S
C1694 H1707 0.961 . S
C1694 H1708 0.961 . S
C1695 C1692 1.539 . S
C1695 H1709 0.958 . S
C1695 H1710 0.961 . S
C1695 H1711 0.960 . S
H1696 C1680 0.931 . S
H1697 C1685 0.929 . S
H1698 C1686 0.960 . S
H1699 C1686 0.962 . S
H1700 C1686 0.960 . S
H1701 C1687 0.961 . S
H1702 C1687 0.961 . S
H1703 C1687 0.961 . S
H1704 C1688 0.931 . S
H1705 C1693 0.930 . S
H1706 C1694 0.956 . S
H1707 C1694 0.961 . S
H1708 C1694 0.961 . S
H1709 C1695 0.958 . S
H1710 C1695 0.961 . S
H1711 C1695 0.960 . S
C1712 C1713 1.391 . S
C1712 C1714 1.394 . S
C1712 H1728 0.931 . S
C1713 C1712 1.391 . S
C1713 C1717 1.376 . S
C1714 C1712 1.394 . S
C1714 C1715 1.369 . S
C1714 C1718 1.531 . S
C1715 C1714 1.369 . S
C1715 C1716 1.410 . S
C1715 C1723 1.503 . S
C1716 C1715 1.410 . S
C1716 C1717 1.392 . S
C1716 C1719 1.511 . S
C1717 C1713 1.376 . S
C1717 C1716 1.392 . S
C1717 H1729 0.929 . S
C1718 C1714 1.531 . S
C1718 H1730 0.960 . S
C1718 H1731 0.962 . S
C1718 H1732 0.960 . S
C1719 C1716 1.511 . S
C1719 H1733 0.961 . S
C1719 H1734 0.961 . S
C1719 H1735 0.961 . S
C1720 C1721 1.370 . S
C1720 C1722 1.363 . S
C1720 H1736 0.931 . S
C1721 C1720 1.370 . S
C1721 C1725 1.408 . S
C1722 C1720 1.363 . S
C1722 C1723 1.370 . S
C1722 C1726 1.524 . S
C1723 C1715 1.503 . S
C1723 C1722 1.370 . S
C1723 C1724 1.403 . S
C1724 C1723 1.403 . S
C1724 C1725 1.404 . S
C1724 C1727 1.539 . S
C1725 C1721 1.408 . S
C1725 C1724 1.404 . S
C1725 H1737 0.930 . S
C1726 C1722 1.524 . S
C1726 H1738 0.956 . S
C1726 H1739 0.961 . S
C1726 H1740 0.961 . S
C1727 C1724 1.539 . S
C1727 H1741 0.958 . S
C1727 H1742 0.961 . S
C1727 H1743 0.960 . S
H1728 C1712 0.931 . S
H1729 C1717 0.929 . S
H1730 C1718 0.960 . S
H1731 C1718 0.962 . S
H1732 C1718 0.960 . S
H1733 C1719 0.961 . S
H1734 C1719 0.961 . S
H1735 C1719 0.961 . S
H1736 C1720 0.931 . S
H1737 C1725 0.930 . S
H1738 C1726 0.956 . S
H1739 C1726 0.961 . S
H1740 C1726 0.961 . S
H1741 C1727 0.958 . S
H1742 C1727 0.961 . S
H1743 C1727 0.960 . S
C1744 C1745 1.391 . S
C1744 C1746 1.394 . S
C1744 H1760 0.931 . S
C1745 C1744 1.391 . S
C1745 C1749 1.376 . S
C1746 C1744 1.394 . S
C1746 C1747 1.369 . S
C1746 C1750 1.531 . S
C1747 C1746 1.369 . S
C1747 C1748 1.410 . S
C1747 C1755 1.503 . S
C1748 C1747 1.410 . S
C1748 C1749 1.392 . S
C1748 C1751 1.511 . S
C1749 C1745 1.376 . S
C1749 C1748 1.392 . S
C1749 H1761 0.929 . S
C1750 C1746 1.531 . S
C1750 H1762 0.960 . S
C1750 H1763 0.962 . S
C1750 H1764 0.960 . S
C1751 C1748 1.511 . S
C1751 H1765 0.961 . S
C1751 H1766 0.961 . S
C1751 H1767 0.961 . S
C1752 C1753 1.370 . S
C1752 C1754 1.363 . S
C1752 H1768 0.931 . S
C1753 C1752 1.370 . S
C1753 C1757 1.408 . S
C1754 C1752 1.363 . S
C1754 C1755 1.370 . S
C1754 C1758 1.524 . S
C1755 C1747 1.503 . S
C1755 C1754 1.370 . S
C1755 C1756 1.403 . S
C1756 C1755 1.403 . S
C1756 C1757 1.404 . S
C1756 C1759 1.539 . S
C1757 C1753 1.408 . S
C1757 C1756 1.404 . S
C1757 H1769 0.930 . S
C1758 C1754 1.524 . S
C1758 H1770 0.956 . S
C1758 H1771 0.961 . S
C1758 H1772 0.961 . S
C1759 C1756 1.539 . S
C1759 H1773 0.958 . S
C1759 H1774 0.961 . S
C1759 H1775 0.960 . S
H1760 C1744 0.931 . S
H1761 C1749 0.929 . S
H1762 C1750 0.960 . S
H1763 C1750 0.962 . S
H1764 C1750 0.960 . S
H1765 C1751 0.961 . S
H1766 C1751 0.961 . S
H1767 C1751 0.961 . S
H1768 C1752 0.931 . S
H1769 C1757 0.930 . S
H1770 C1758 0.956 . S
H1771 C1758 0.961 . S
H1772 C1758 0.961 . S
H1773 C1759 0.958 . S
H1774 C1759 0.961 . S
H1775 C1759 0.960 . S
C1776 C1777 1.391 . S
C1776 C1778 1.394 . S
C1776 H1792 0.931 . S
C1777 C1776 1.391 . S
C1777 C1781 1.376 . S
C1778 C1776 1.394 . S
C1778 C1779 1.369 . S
C1778 C1782 1.531 . S
C1779 C1778 1.369 . S
C1779 C1780 1.410 . S
C1779 C1787 1.503 . S
C1780 C1779 1.410 . S
C1780 C1781 1.392 . S
C1780 C1783 1.511 . S
C1781 C1777 1.376 . S
C1781 C1780 1.392 . S
C1781 H1793 0.929 . S
C1782 C1778 1.531 . S
C1782 H1794 0.960 . S
C1782 H1795 0.962 . S
C1782 H1796 0.960 . S
C1783 C1780 1.511 . S
C1783 H1797 0.961 . S
C1783 H1798 0.961 . S
C1783 H1799 0.961 . S
C1784 C1785 1.370 . S
C1784 C1786 1.363 . S
C1784 H1800 0.931 . S
C1785 C1784 1.370 . S
C1785 C1789 1.408 . S
C1786 C1784 1.363 . S
C1786 C1787 1.370 . S
C1786 C1790 1.524 . S
C1787 C1779 1.503 . S
C1787 C1786 1.370 . S
C1787 C1788 1.403 . S
C1788 C1787 1.403 . S
C1788 C1789 1.404 . S
C1788 C1791 1.539 . S
C1789 C1785 1.408 . S
C1789 C1788 1.404 . S
C1789 H1801 0.930 . S
C1790 C1786 1.524 . S
C1790 H1802 0.956 . S
C1790 H1803 0.961 . S
C1790 H1804 0.961 . S
C1791 C1788 1.539 . S
C1791 H1805 0.958 . S
C1791 H1806 0.961 . S
C1791 H1807 0.960 . S
H1792 C1776 0.931 . S
H1793 C1781 0.929 . S
H1794 C1782 0.960 . S
H1795 C1782 0.962 . S
H1796 C1782 0.960 . S
H1797 C1783 0.961 . S
H1798 C1783 0.961 . S
H1799 C1783 0.961 . S
H1800 C1784 0.931 . S
H1801 C1789 0.930 . S
H1802 C1790 0.956 . S
H1803 C1790 0.961 . S
H1804 C1790 0.961 . S
H1805 C1791 0.958 . S
H1806 C1791 0.961 . S
H1807 C1791 0.960 . S
C529 N13 1.752 . S
C537 N112 1.744 . S
C561 N79 1.724 . S
C569 N46 1.733 . S
C593 N244 1.755 . S
C601 N145 1.745 . S
C625 N178 1.718 . S
C633 N211 1.735 . S
C657 N277 1.733 . S
C665 N376 1.735 . S
C689 N310 1.718 . S
C697 N343 1.734 . S
C721 N508 1.720 . S
C729 N409 1.734 . S
C753 N442 1.753 . S
C761 N475 1.748 . S
C785 N200 1.554 . S
C793 N2 1.569 . S
C817 N233 1.549 . S
C825 N35 1.564 . S
C849 N134 1.594 . S
C857 N68 1.585 . S
C881 N167 1.588 . S
C889 N101 1.579 . S
C913 N464 1.598 . S
C921 N266 1.585 . S
C945 N497 1.580 . S
C953 N299 1.576 . S
C977 N398 1.558 . S
C985 N332 1.571 . S
C1009 N365 1.602 . S
C1017 N431 1.588 . S
C1041 C7 1.561 . S
C1049 C73 1.540 . S
C1073 C40 1.523 . S
C1081 C106 1.558 . S
C1105 C139 1.551 . S
C1113 C205 1.551 . S
C1137 C172 1.569 . S
C1145 C238 1.541 . S
C1169 C271 1.521 . S
C1177 C337 1.559 . S
C1201 C304 1.520 . S
C1209 C370 1.558 . S
C1233 C403 1.562 . S
C1241 C469 1.539 . S
C1265 C436 1.541 . S
C1273 C502 1.545 . S
C1297 C513 1.103 . S
C1305 C21 1.125 . S
C1329 C54 1.114 . S
C1337 C480 1.112 . S
C1361 C87 1.116 . S
C1369 C447 1.111 . S
C1393 C414 1.090 . S
C1401 C120 1.126 . S
C1425 C381 1.102 . S
C1433 C153 1.118 . S
C1457 C186 1.127 . S
C1465 C348 1.105 . S
C1489 C219 1.117 . S
C1497 C315 1.122 . S
C1521 C252 1.119 . S
C1529 C282 1.107 . S
C1553 C285 1.110 . S
C1561 C249 1.122 . S
C1585 C216 1.119 . S
C1593 C318 1.121 . S
C1617 C183 1.093 . S
C1625 C351 1.126 . S
C1649 C384 1.119 . S
C1657 C150 1.118 . S
C1681 C417 1.105 . S
C1689 C117 1.124 . S
C1713 C84 1.119 . S
C1721 C450 1.123 . S
C1745 C51 1.092 . S
C1753 C483 1.122 . S
C1777 C18 1.130 . S
C1785 C516 1.119 . S
