# Generated by pormake.
# Topology wni, (7)-cn, num edge types: 1
# Building blocks:
#     Node 0, Type 0, BuildingBlock: HICVOG_clean_sbu_0, # of connection points: 7
#     Node 1, Type 0, BuildingBlock: HICVOG_clean_sbu_0, # of connection points: 7
#     Node 2, Type 0, BuildingBlock: HICVOG_clean_sbu_0, # of connection points: 7
#     Node 3, Type 0, BuildingBlock: HICVOG_clean_sbu_0, # of connection points: 7
#     Node 4, Type 0, BuildingBlock: HICVOG_clean_sbu_0, # of connection points: 7
#     Node 5, Type 0, BuildingBlock: HICVOG_clean_sbu_0, # of connection points: 7
#     Edge 6, Type (0, 0), BuildingBlock: EZIPEK_clean_linker_0, # of connection points: 2
#     Edge 7, Type (0, 0), BuildingBlock: EZIPEK_clean_linker_0, # of connection points: 2
#     Edge 8, Type (0, 0), BuildingBlock: EZIPEK_clean_linker_0, # of connection points: 2
#     Edge 9, Type (0, 0), BuildingBlock: EZIPEK_clean_linker_0, # of connection points: 2
#     Edge 10, Type (0, 0), BuildingBlock: EZIPEK_clean_linker_0, # of connection points: 2
#     Edge 11, Type (0, 0), BuildingBlock: EZIPEK_clean_linker_0, # of connection points: 2
#     Edge 12, Type (0, 0), BuildingBlock: EZIPEK_clean_linker_0, # of connection points: 2
#     Edge 13, Type (0, 0), BuildingBlock: EZIPEK_clean_linker_0, # of connection points: 2
#     Edge 14, Type (0, 0), BuildingBlock: EZIPEK_clean_linker_0, # of connection points: 2
#     Edge 15, Type (0, 0), BuildingBlock: EZIPEK_clean_linker_0, # of connection points: 2
#     Edge 16, Type (0, 0), BuildingBlock: EZIPEK_clean_linker_0, # of connection points: 2
#     Edge 17, Type (0, 0), BuildingBlock: EZIPEK_clean_linker_0, # of connection points: 2
#     Edge 18, Type (0, 0), BuildingBlock: EZIPEK_clean_linker_0, # of connection points: 2
#     Edge 19, Type (0, 0), BuildingBlock: EZIPEK_clean_linker_0, # of connection points: 2
#     Edge 20, Type (0, 0), BuildingBlock: EZIPEK_clean_linker_0, # of connection points: 2
#     Edge 21, Type (0, 0), BuildingBlock: EZIPEK_clean_linker_0, # of connection points: 2
#     Edge 22, Type (0, 0), BuildingBlock: EZIPEK_clean_linker_0, # of connection points: 2
#     Edge 23, Type (0, 0), BuildingBlock: EZIPEK_clean_linker_0, # of connection points: 2
#     Edge 24, Type (0, 0), BuildingBlock: EZIPEK_clean_linker_0, # of connection points: 2
#     Edge 25, Type (0, 0), BuildingBlock: EZIPEK_clean_linker_0, # of connection points: 2
#     Edge 26, Type (0, 0), BuildingBlock: EZIPEK_clean_linker_0, # of connection points: 2
# Relax obj value: 0.333
# Max RMSD: 0.178
# Mean RMSD: 0.178
data_MOF--net-wni--node1-HICVOG_clean_sbu_0--edge1-EZIPEK_clean_linker_0
_symmetry_space_group_name_H-M    P1
_symmetry_Int_Tables_number       1
_symmetry_cell_setting            triclinic
loop_
_symmetry_equiv_pos_as_xyz
'x, y, z'
_cell_length_a     19.753713
_cell_length_b     19.908683
_cell_length_c     22.590537
_cell_angle_alpha  89.405035
_cell_angle_beta   90.107527
_cell_angle_gamma 119.27446
loop_
_atom_site_label
_atom_site_type_symbol
_atom_site_fract_x
_atom_site_fract_y
_atom_site_fract_z
_atom_type_partial_charge
Zn0 Zn 0.10451 0.44916 0.23611 0.0
C1 C 1.07178 0.49263 1.06615 0.0
N2 N 1.01428 0.50466 1.08764 0.0
C3 C 1.01877 0.50026 0.14752 0.0
N4 N 1.07773 0.48541 0.16228 0.0
N5 N 0.11147 0.48229 0.11213 0.0
C6 C 0.2191 0.34338 0.11287 0.0
O7 O 0.17504 0.3282 0.15987 0.0
O8 O 1.04506 0.46093 0.31071 0.0
Zn9 Zn 0.21783 0.49232 0.11089 0.0
N10 N 1.05864 0.33877 0.23012 0.0
C11 C 0.96958 0.21497 0.19265 0.0
C12 C 1.01521 0.29478 0.18436 0.0
C13 C 1.05972 0.30638 0.28258 0.0
N14 N 0.9652 0.18354 0.24733 0.0
C15 C 1.00937 0.22788 0.29262 0.0
O16 O 0.2939 0.5266 0.18381 0.0
C17 C 0.28841 0.5213 0.24012 0.0
O18 O 0.22096 0.49331 0.26334 0.0
H19 H 1.01335 0.32143 0.14293 0.0
H20 H 1.09234 0.34362 0.31869 0.0
C21 C 0.32411 0.57322 1.0234 0.0
C22 C 0.37209 0.63684 0.98857 0.0
C23 C 0.3012 0.69841 1.01737 0.0
C24 C 0.25739 0.63713 1.05601 0.0
N25 N 0.26938 0.57547 1.05722 0.0
N26 N 0.35938 0.69798 0.98565 0.0
H27 H 0.33524 0.52533 1.02825 0.0
C28 C 1.08223 0.50688 0.35271 0.0
O29 O 1.04042 0.45893 0.31185 0.0
O30 O 0.23225 0.40205 1.08116 0.0
H31 H 0.21527 0.6391 1.08535 0.0
H32 H 0.93408 0.17918 0.15697 0.0
H33 H 0.29198 0.74764 1.01512 0.0
Zn34 Zn 0.67846 0.73922 0.77371 0.0
C35 C 0.67851 0.53822 0.81635 0.0
N36 N 0.68008 0.52986 0.75732 0.0
C37 C 0.69128 0.5966 0.73219 0.0
N38 N 0.69435 0.64577 0.77648 0.0
N39 N 0.68904 0.61045 0.82825 0.0
C40 C 0.59286 0.54209 0.98307 0.0
O41 O 0.56923 0.48093 1.01733 0.0
O42 O 0.77093 0.84948 0.75807 0.0
Zn43 Zn 0.70247 0.6641 0.90511 0.0
N44 N 0.60473 0.71333 0.71249 0.0
C45 C 0.49467 0.63035 0.65514 0.0
C46 C 0.55062 0.64057 0.69729 0.0
C47 C 0.60378 0.77521 0.6894 0.0
N48 N 0.4913 0.69291 0.63411 0.0
C49 C 0.54455 0.76492 0.6512 0.0
O50 O 0.64992 0.73264 0.9258 0.0
C51 C 0.62511 0.77258 0.89811 0.0
O52 O 0.62866 0.77458 0.84166 0.0
H53 H 0.54978 0.59117 0.71828 0.0
H54 H 0.64504 0.83197 0.70509 0.0
C55 C 0.82122 0.78127 0.96747 0.0
C56 C 0.88545 0.80915 1.00547 0.0
C57 C 0.94216 0.75772 0.93978 0.0
C58 C 0.87465 0.725 0.90561 0.0
N59 N 0.81281 0.73201 0.92359 0.0
N60 N 0.94449 0.79571 0.99019 0.0
H61 H 0.77391 0.79157 0.97629 0.0
C62 C 0.8421 0.8897 0.77283 0.0
O63 O 0.87746 0.85524 0.7974 0.0
O64 O 0.66165 0.57519 0.96293 0.0
H65 H 0.87131 0.69276 0.86657 0.0
H66 H 0.45197 0.57307 0.64171 0.0
H67 H 0.99097 0.75011 0.92778 0.0
Zn68 Zn 0.50133 1.05008 0.57497 0.0
C69 C 0.56674 0.08342 0.39854 0.0
N70 N 0.63489 0.14138 0.41956 0.0
C71 C 0.62643 0.13872 0.4795 0.0
N72 N 0.55359 0.08028 0.49498 0.0
N73 N 0.51696 1.04518 0.44516 0.0
C74 C 0.27146 0.96568 0.41873 0.0
O75 O 0.30566 1.04061 0.42539 0.0
O76 O 0.58416 0.105 0.63662 0.0
Zn77 Zn 0.4174 0.9408 0.44645 0.0
N78 N 0.42854 0.08859 0.58587 0.0
C79 C 0.35062 0.14262 0.55302 0.0
C80 C 0.40705 0.12108 0.54176 0.0
C81 C 0.39646 0.07765 0.64083 0.0
N82 N 0.31751 0.13019 0.60773 0.0
C83 C 0.33937 0.09842 0.65229 0.0
O84 O 0.37965 0.8669 0.52045 0.0
C85 C 0.3885 0.86817 0.57631 0.0
O86 O 0.43484 0.93253 0.60004 0.0
H87 H 0.43284 0.12943 0.49823 0.0
H88 H 0.41463 1.05195 0.67531 0.0
C89 C 0.37629 0.81426 0.37558 0.0
C90 C 0.38714 0.75761 0.34858 0.0
C91 C 0.52304 0.83547 0.35812 0.0
C92 C 0.51161 0.88953 0.38873 0.0
N93 N 0.43862 0.87882 0.39497 0.0
N94 N 0.46032 0.76987 0.33944 0.0
H95 H 0.31854 0.80461 0.38538 0.0
C96 C 0.611 0.07005 0.66767 0.0
O97 O 0.66511 0.10786 0.70701 0.0
O98 O 0.31089 0.93076 0.42377 0.0
H99 H 0.55972 0.93741 0.40979 0.0
H100 H 0.33251 0.16807 0.51823 0.0
H101 H 0.58093 0.84372 0.35216 0.0
Zn102 Zn 0.53728 0.17004 1.0887 0.0
C103 C 0.54954 0.97502 1.05102 0.0
N104 N 0.55377 0.96914 0.11096 0.0
C105 C 0.54189 1.02596 0.13337 0.0
N106 N 0.53144 0.0663 1.08764 0.0
N107 N 0.53474 1.03392 1.03708 0.0
C108 C 0.5838 1.03812 0.85855 0.0
O109 O 0.59683 0.99589 0.82099 0.0
O110 O 0.44071 0.17799 0.11297 0.0
Zn111 Zn 0.51048 0.06633 0.95947 0.0
N112 N 0.61659 0.2243 0.14388 0.0
C113 C 0.74013 0.26302 0.18642 0.0
C114 C 0.67969 0.21446 0.1494 0.0
C115 C 0.61282 0.28226 0.17084 0.0
N116 N 0.73761 0.32323 0.21211 0.0
C117 C 0.67542 0.33412 0.20421 0.0
O118 O 0.56462 0.185 0.93541 0.0
C119 C 0.58366 0.24864 0.96132 0.0
O120 O 0.57599 0.24765 1.0173 0.0
H121 H 0.68397 0.1711 0.12396 0.0
H122 H 0.56414 0.29161 0.16202 0.0
C123 C 0.37867 1.049 0.90143 0.0
C124 C 0.30201 1.03243 0.89239 0.0
C125 C 0.27103 0.98208 0.99018 0.0
C126 C 0.34791 0.99851 0.99878 0.0
N127 N 0.40042 1.03271 0.95428 0.0
N128 N 0.24973 0.99949 0.93729 0.0
H129 H 0.42118 0.07514 0.86659 0.0
C130 C 0.39866 0.18343 1.07211 0.0
O131 O 0.40583 0.16328 1.01842 0.0
O132 O 0.52896 1.00653 0.8957 0.0
H133 H 0.36587 0.98597 1.0408 0.0
H134 H 0.79025 0.25524 0.19204 0.0
H135 H 0.22872 0.95591 1.02538 0.0
Zn136 Zn 0.99207 0.37324 0.75381 0.0
C137 C 0.18919 0.58249 0.72368 0.0
N138 N 0.19197 0.58685 0.78362 0.0
C139 C 0.13349 0.51809 0.80316 0.0
N140 N 1.09516 0.47177 0.75578 0.0
N141 N 0.12932 0.51177 0.70658 0.0
C142 C 0.11523 0.61374 0.59362 0.0
O143 O 1.07482 0.59661 0.64312 0.0
O144 O 0.98778 0.27292 0.78669 0.0
Zn145 Zn 1.08626 0.46996 0.62554 0.0
N146 N 0.93103 0.39916 0.80186 0.0
C147 C 0.88215 0.48195 0.83039 0.0
C148 C 0.93751 0.47032 0.80092 0.0
C149 C 0.87037 0.33877 0.82769 0.0
N150 N 0.81941 0.4204 0.85488 0.0
C151 C 0.81214 0.34894 0.85313 0.0
O152 O 0.96339 0.40905 0.60454 0.0
C153 C 0.90728 0.34826 0.62782 0.0
O154 O 0.91624 0.32927 0.68017 0.0
H155 H 0.98289 0.51626 0.7753 0.0
H156 H 0.8641 0.28188 0.82327 0.0
C157 C 1.07578 0.35318 0.55441 0.0
C158 C 1.10201 0.3171 0.51501 0.0
C159 C 0.22127 0.37149 0.56761 0.0
C160 C 0.19489 0.40935 0.60492 0.0
N161 N 0.12411 0.40287 0.59527 0.0
N162 N 0.17524 0.32816 0.5227 0.0
H163 H 1.01879 0.34601 0.55028 0.0
C164 C 0.98957 0.22669 0.74862 0.0
O165 O 1.01133 0.25231 0.6943 0.0
O166 O 0.13022 0.56355 0.57265 0.0
H167 H 0.23077 0.44371 0.64034 0.0
H168 H 0.88659 0.53829 0.83065 0.0
H169 H 0.27842 0.37774 0.5735 0.0
Zn170 Zn 0.69759 0.64613 0.29886 0.0
C171 C 0.63683 0.61591 0.47144 0.0
N172 N 0.5648 0.59981 0.45315 0.0
C173 C 0.56897 0.60072 0.39287 0.0
N174 N 0.6422 0.61753 0.37534 0.0
N175 N 0.68352 0.62583 0.42377 0.0
C176 C 0.93475 0.77551 0.38662 0.0
O177 O 0.9111 0.75134 0.33276 0.0
O178 O 0.61459 0.6218 0.23741 0.0
Zn179 Zn 0.78871 0.63585 0.41996 0.0
N180 N 0.7669 0.7565 0.2993 0.0
C181 C 0.83413 0.88228 0.34061 0.0
C182 C 0.78156 0.80331 0.34666 0.0
C183 C 0.80328 0.78518 0.24707 0.0
N184 N 0.86839 0.91149 0.28718 0.0
C185 C 0.85433 0.86435 0.24021 0.0
O186 O 0.82516 0.5882 0.35284 0.0
C187 C 0.81607 0.58065 0.29702 0.0
O188 O 0.769 0.5992 0.27261 0.0
H189 H 0.75315 0.77986 0.38862 0.0
H190 H 0.78999 0.74651 0.21017 0.0
C191 C 0.8486 0.61563 0.51987 0.0
C192 C 0.88685 0.57859 0.54211 0.0
C193 C 0.78163 0.45868 0.51338 0.0
C194 C 0.75041 0.49778 0.48213 0.0
N195 N 0.78711 0.57583 0.48475 0.0
N196 N 0.852 0.50029 0.53963 0.0
H197 H 0.87742 0.67772 0.51898 0.0
C198 C 0.58417 0.55871 0.2098 0.0
O199 O 0.52007 0.53693 0.17961 0.0
O200 O 0.8868 0.7445 0.42951 0.0
H201 H 0.70251 0.46739 0.45202 0.0
H202 H 0.8463 0.92023 0.37783 0.0
H203 H 0.75538 0.39693 0.51031 0.0
C204 C 0.49925 0.63355 0.3083 0.0
C205 C 0.49794 0.58091 0.35243 0.0
C206 C 0.36005 0.49057 0.32354 0.0
C207 C 0.36098 0.54306 0.27928 0.0
N208 N 0.43497 0.66435 0.22804 0.0
N209 N 0.42125 0.46203 0.40627 0.0
C210 C 0.43203 0.61419 0.27109 0.0
C211 C 0.42627 0.51092 0.36146 0.0
N212 N 0.564 0.70449 0.30424 0.0
N213 N 0.29796 0.41763 0.32628 0.0
H214 H 0.4694 0.46647 0.42853 0.0
H215 H 0.36887 0.41847 0.42308 0.0
H216 H 0.24974 0.39823 0.29891 0.0
H217 H 0.29666 0.37305 0.35157 0.0
H218 H 0.57124 0.74785 0.27471 0.0
H219 H 0.61115 0.72181 0.33258 0.0
H220 H 0.48543 0.71255 0.21366 0.0
H221 H 0.38612 0.65752 0.20533 0.0
C222 C 0.53268 0.82774 0.92724 0.0
C223 C 0.60522 0.8282 0.93271 0.0
C224 C 0.64324 0.93048 1.00928 0.0
C225 C 0.5691 0.92689 1.00713 0.0
N226 N 0.44267 0.87068 0.96321 0.0
N227 N 0.73823 0.90424 0.96165 0.0
C228 C 0.51401 0.87539 0.9653 0.0
C229 C 0.66247 0.88566 0.96969 0.0
N230 N 0.48174 0.78192 0.88515 0.0
N231 N 0.69776 0.98021 1.04763 0.0
H232 H 0.75554 0.88081 0.9277 0.0
H233 H 0.78501 0.9495 0.98258 0.0
H234 H 0.69217 1.02319 1.06913 0.0
H235 H 0.74812 0.97853 1.05856 0.0
H236 H 0.42912 0.77939 0.87558 0.0
H237 H 0.49315 0.74673 0.85786 0.0
H238 H 0.3985 0.83649 0.93429 0.0
H239 H 0.42686 0.90173 0.9915 0.0
C240 C 0.29456 0.79525 0.66375 0.0
C241 C 0.33938 0.79442 0.61444 0.0
C242 C 0.29332 0.65584 0.64081 0.0
C243 C 0.24053 0.6546 0.68427 0.0
N244 N 0.18039 0.72368 0.7248 0.0
N245 N 0.37644 0.71782 0.55475 0.0
C246 C 0.23942 0.72487 0.69286 0.0
C247 C 0.33584 0.72226 0.60194 0.0
N248 N 0.30245 0.86324 0.68314 0.0
N249 N 0.30743 0.59555 0.63994 0.0
H250 H 0.4138 0.76547 0.52912 0.0
H251 H 0.37149 0.6664 0.53992 0.0
H252 H 0.29009 0.55657 0.67527 0.0
H253 H 0.3426 0.58882 0.60915 0.0
H254 H 0.28298 0.8682 0.72483 0.0
H255 H 0.33161 0.91484 0.65977 0.0
H256 H 0.16987 0.76999 0.72582 0.0
H257 H 0.13519 0.67313 0.7421 0.0
C258 C 0.5832 0.39757 0.84597 0.0
C259 C 0.65296 0.4673 0.8585 0.0
C260 C 0.67636 0.39509 0.94077 0.0
C261 C 0.60871 0.32438 0.92564 0.0
N262 N 0.50173 0.25976 0.85837 0.0
N263 N 0.77107 0.52746 0.91366 0.0
C264 C 0.56393 0.32645 0.8766 0.0
C265 C 0.7003 0.46453 0.90537 0.0
N266 N 0.53134 0.3999 0.80697 0.0
N267 N 0.72 0.3955 0.98791 0.0
H268 H 0.79002 0.57537 0.8864 0.0
H269 H 0.81309 0.53037 0.94291 0.0
H270 H 0.7102 0.34577 1.01067 0.0
H271 H 0.76513 0.44514 1.00574 0.0
H272 H 0.47483 0.35525 0.80265 0.0
H273 H 0.54056 0.44949 0.78426 0.0
H274 H 0.47814 0.25343 0.81621 0.0
H275 H 0.47579 0.2099 0.88413 0.0
C276 C 0.69428 0.24566 0.56052 0.0
C277 C 0.69559 0.18985 0.52156 0.0
C278 C 0.83171 0.23387 0.55645 0.0
C279 C 0.83327 0.29379 0.59158 0.0
N280 N 0.75925 0.34671 0.63502 0.0
N281 N 0.7726 0.13842 0.4796 0.0
C282 C 0.76227 0.29653 0.59576 0.0
C283 C 0.76705 0.18782 0.51809 0.0
N284 N 0.62897 0.25283 0.56146 0.0
N285 N 0.88875 0.21474 0.56436 0.0
H286 H 0.72444 0.09409 0.45941 0.0
H287 H 0.82503 0.14171 0.46761 0.0
H288 H 0.93162 0.2405 0.59632 0.0
H289 H 0.88816 0.16697 0.54551 0.0
H290 H 0.62372 0.29513 0.58422 0.0
H291 H 0.57993 0.21763 0.53663 0.0
H292 H 0.70918 0.34879 0.64557 0.0
H293 H 0.80726 0.3847 0.65975 0.0
C294 C 0.97229 0.59341 0.18348 0.0
C295 C 0.96957 0.52065 0.18959 0.0
C296 C 0.87165 0.48941 0.27061 0.0
C297 C 0.86803 0.55868 0.25948 0.0
N298 N 0.91348 0.67403 0.19932 0.0
N299 N 0.90941 0.39601 0.23611 0.0
C300 C 0.91741 0.60923 0.2138 0.0
C301 C 0.91736 0.46799 0.23271 0.0
N302 N 1.03207 0.65068 0.15208 0.0
N303 N 0.82997 0.44284 0.31687 0.0
H304 H 0.93892 0.37823 0.20773 0.0
H305 H 0.87236 0.35301 0.26528 0.0
H306 H 0.79104 0.45219 0.34176 0.0
H307 H 0.83631 0.39692 0.33256 0.0
H308 H 1.04335 0.70752 0.15068 0.0
H309 H 1.07673 0.6439 0.13387 0.0
H310 H 0.9383 0.70642 0.16102 0.0
H311 H 0.88181 0.6935 0.22336 0.0
C312 C 0.3411 0.26715 1.03673 0.0
C313 C 0.35035 0.22204 1.08241 0.0
C314 C 0.28487 0.26755 0.15011 0.0
C315 C 0.26218 0.29939 0.10199 0.0
N316 N 0.25393 0.30774 0.99541 0.0
N317 N 0.30923 0.16444 0.17985 0.0
C318 C 0.28539 0.29224 1.04397 0.0
C319 C 0.31523 0.21726 0.13821 0.0
N320 N 0.3889 0.29172 0.98834 0.0
N321 N 0.284 0.28945 0.20704 0.0
H322 H 0.32543 0.12279 0.17179 0.0
H323 H 0.27911 0.15625 0.21954 0.0
H324 H 0.27408 0.33455 0.21788 0.0
H325 H 0.30525 0.27108 0.24233 0.0
H326 H 0.38661 0.32892 0.95654 0.0
H327 H 0.43781 0.28512 0.98429 0.0
H328 H 0.26602 0.29794 0.95242 0.0
H329 H 0.20888 0.32065 0.99816 0.0
C330 C 0.88952 0.09221 0.72048 0.0
C331 C 0.94929 0.14104 0.75965 0.0
C332 C 0.93012 1.0251 0.81417 0.0
C333 C 0.88146 0.97672 0.76794 0.0
N334 N 0.82921 0.97089 0.66978 0.0
N335 N 1.03273 0.15258 0.84126 0.0
C336 C 0.86527 1.01223 0.71902 0.0
C337 C 0.97154 0.1071 0.80581 0.0
N338 N 0.85251 0.12133 0.68654 0.0
N339 N 0.93293 0.99403 0.86772 0.0
H340 H 1.06334 0.21243 0.8369 0.0
H341 H 1.05665 0.1303 0.87157 0.0
H342 H 0.8986 0.93592 0.87839 0.0
H343 H 0.96197 1.02747 0.90415 0.0
H344 H 0.80376 0.0866 0.66139 0.0
H345 H 0.864 0.17812 0.68984 0.0
H346 H 0.82231 0.99624 0.63128 0.0
H347 H 0.81466 0.91356 0.66463 0.0
C348 C 1.05088 0.88955 0.43477 0.0
C349 C 1.0205 0.82431 0.39746 0.0
C350 C 0.15395 0.85883 0.36846 0.0
C351 C 0.18485 0.9192 0.41034 0.0
N352 N 0.15933 0.97694 0.49514 0.0
N353 N 1.04651 0.73427 0.34465 0.0
C354 C 0.13242 0.93067 0.44677 0.0
C355 C 1.073 0.80536 0.36879 0.0
N356 N 1.00265 0.91372 0.45772 0.0
N357 N 0.20121 0.85341 0.3269 0.0
H358 H 0.98903 0.69049 0.34801 0.0
H359 H 1.08366 0.71561 0.32846 0.0
H360 H 0.26012 0.8933 0.32303 0.0
H361 H 0.18004 0.81441 0.29217 0.0
H362 H 1.02294 0.96546 0.48021 0.0
H363 H 0.94312 0.8857 0.4496 0.0
H364 H 0.12276 0.98137 0.52616 0.0
H365 H 0.21721 1.00373 0.50818 0.0
C366 C 1.06295 0.2069 0.44403 0.0
C367 C 1.05317 0.26928 0.46455 0.0
C368 C 0.95731 0.23844 0.38617 0.0
C369 C 0.99174 0.20237 0.35487 0.0
N370 N 1.06951 0.1406 0.35633 0.0
N371 N 0.99684 0.35266 0.442 0.0
C372 C 1.04086 0.18118 0.38511 0.0
C373 C 0.99962 0.28618 0.4336 0.0
N374 N 1.0919 0.17201 0.48044 0.0
N375 N 0.8932 0.23836 0.3637 0.0
H376 H 1.03908 0.39979 0.4646 0.0
H377 H 0.95982 0.36627 0.41819 0.0
H378 H 0.86573 0.20698 0.32588 0.0
H379 H 0.86425 0.26261 0.38594 0.0
H380 H 1.0961 0.12394 0.46785 0.0
H381 H 1.10223 0.18513 0.52528 0.0
H382 H 0.11236 0.13029 0.37412 0.0
H383 H 1.05146 0.12015 0.31354 0.0
C384 C 0.81492 0.83181 1.09115 0.0
C385 C 0.88589 0.84605 1.06373 0.0
C386 C 0.95095 0.90625 0.15674 0.0
C387 C 0.87931 0.89458 0.17945 0.0
N388 N 0.75574 0.88317 0.1566 0.0
N389 N 1.02645 0.92632 1.06738 0.0
C390 C 0.81807 0.8758 0.14013 0.0
C391 C 0.95617 0.89314 1.09526 0.0
N392 N 0.74658 0.76691 1.08053 0.0
N393 N 1.01214 0.92632 0.19384 0.0
H394 H 1.03185 0.92535 1.02157 0.0
H395 H 1.07793 0.96338 1.08894 0.0
H396 H 1.00916 0.93792 0.23846 0.0
H397 H 1.06345 0.92798 0.18048 0.0
H398 H 0.69632 0.75548 0.10336 0.0
H399 H 0.74352 0.7198 1.05843 0.0
H400 H 0.70801 0.86707 0.12886 0.0
H401 H 0.75605 0.91089 0.19572 0.0
C402 C 0.24372 0.98796 0.79206 0.0
C403 C 0.27937 1.04833 0.83322 0.0
C404 C 0.32258 0.14394 0.75264 0.0
C405 C 0.30233 0.0833 0.71204 0.0
N406 N 0.21302 0.95204 0.6888 0.0
N407 N 0.32424 0.18058 0.85595 0.0
C408 C 0.25249 1.00638 0.73047 0.0
C409 C 0.30863 0.12568 0.81432 0.0
N410 N 0.20489 0.91352 0.81205 0.0
N411 N 0.35572 0.21803 0.73209 0.0
H412 H 0.31255 0.16634 0.9008 0.0
H413 H 0.3451 0.23866 0.84666 0.0
H414 H 0.36761 0.23234 0.68738 0.0
H415 H 0.3681 0.26504 0.75834 0.0
H416 H 0.18066 0.86587 0.78479 0.0
H417 H 0.19642 0.89913 0.85694 0.0
H418 H 0.17033 0.89621 0.6991 0.0
H419 H 0.21874 0.96534 0.6436 0.0
C420 C 0.44656 0.5978 0.92349 0.0
C421 C 0.44605 0.64307 0.97092 0.0
C422 C 0.54417 0.62635 1.02287 0.0
C423 C 0.54449 0.57929 0.97655 0.0
N424 N 0.50729 0.53131 0.87765 0.0
N425 N 0.51125 0.72247 1.05438 0.0
C426 C 0.49987 0.56931 0.92469 0.0
C427 C 0.50187 0.66584 1.01615 0.0
N428 N 0.39271 0.57864 0.87965 0.0
N429 N 0.58011 0.62944 1.07497 0.0
H430 H 0.47897 0.75095 1.05098 0.0
H431 H 0.55622 0.7465 1.08503 0.0
H432 H 0.61225 0.60147 1.08168 0.0
H433 H 0.57286 0.65493 0.1127 0.0
H434 H 0.38341 0.53873 0.84684 0.0
H435 H 0.35563 0.60212 0.87757 0.0
H436 H 0.48251 0.52847 0.8364 0.0
H437 H 0.54238 0.50613 0.87974 0.0
C438 C 0.5224 0.93178 0.69373 0.0
C439 C 0.5832 0.98769 0.65802 0.0
C440 C 0.58318 0.88584 0.59884 0.0
C441 C 0.53415 0.83169 0.64112 0.0
N442 N 0.45448 0.79951 0.72864 0.0
N443 N 0.67928 1.01835 0.58185 0.0
C444 C 0.50213 0.85353 0.68826 0.0
C445 C 0.61503 0.96492 0.61126 0.0
N446 N 0.48078 0.95303 0.72951 0.0
N447 N 0.60166 0.86106 0.54843 0.0
H448 H 0.70704 0.07598 0.59369 0.0
H449 H 0.70967 1.0043 0.5513 0.0
H450 H 0.57865 0.80247 0.53971 0.0
H451 H 0.63286 0.89772 0.51348 0.0
H452 H 0.43284 0.91463 0.75442 0.0
H453 H 0.48956 1.00884 0.72892 0.0
H454 H 0.4362 0.81293 0.76775 0.0
H455 H 0.43518 0.74086 0.72355 0.0
C456 C 0.1862 0.6239 0.30118 0.0
C457 C 0.16452 0.56366 0.34363 0.0
C458 C 0.2979 0.62173 0.37936 0.0
C459 C 0.31863 0.68248 0.33767 0.0
N460 N 0.29126 0.72963 0.24769 0.0
N461 N 0.20253 0.49232 0.40964 0.0
C462 C 0.26552 0.67898 0.29438 0.0
C463 C 0.22128 0.55865 0.37892 0.0
N464 N 0.1308 0.63177 0.27062 0.0
N465 N 0.35056 0.62549 0.42035 0.0
H466 H 0.14803 0.44365 0.40671 0.0
H467 H 0.24268 0.48217 0.43224 0.0
H468 H 0.40811 0.66948 0.42075 0.0
H469 H 0.33671 0.58643 0.45528 0.0
H470 H 0.14309 0.67843 0.24285 0.0
H471 H 1.07172 0.59621 0.27816 0.0
H472 H 0.25667 0.72583 0.21163 0.0
H473 H 0.34974 0.7706 0.2424 0.0
C474 C 0.70722 0.46646 0.17712 0.0
C475 C 0.67718 0.40602 0.2197 0.0
C476 C 0.58876 0.44755 0.25761 0.0
C477 C 0.61795 0.50778 0.21479 0.0
N478 N 0.71991 0.58879 0.14632 0.0
N479 N 0.60865 0.35182 0.31043 0.0
C480 C 0.6814 0.52134 0.17772 0.0
C481 C 0.62501 0.40178 0.2639 0.0
N482 N 0.75828 0.46961 0.13499 0.0
N483 N 0.52406 0.43153 0.28974 0.0
H484 H 0.63525 0.31778 0.31483 0.0
H485 H 0.57537 0.34976 0.34683 0.0
H486 H 0.49386 0.4616 0.28345 0.0
H487 H 0.49629 0.38429 0.31824 0.0
H488 H 0.77553 0.50714 0.09878 0.0
H489 H 0.78179 0.43276 0.1354 0.0
H490 H 0.77083 0.60509 0.1226 0.0
H491 H 0.70602 0.63277 0.14963 0.0
C492 C 0.74171 0.23038 0.91122 0.0
C493 C 0.7392 0.27934 0.86673 0.0
C494 C 0.624 0.17192 0.82457 0.0
C495 C 0.63669 0.12116 0.86148 0.0
N496 N 0.71295 0.10076 0.93556 0.0
N497 N 0.67993 0.29811 0.77896 0.0
C498 C 0.69655 0.14996 0.90422 0.0
C499 C 0.68028 0.25081 0.82309 0.0
N500 N 0.7896 0.26142 0.95867 0.0
N501 N 0.55664 0.14546 0.79347 0.0
H502 H 0.71767 0.35729 0.77796 0.0
H503 H 0.64426 0.27795 0.74195 0.0
H504 H 0.51163 0.08925 0.79822 0.0
H505 H 0.54171 0.18077 0.76887 0.0
H506 H 0.78968 0.22895 0.99511 0.0
H507 H 0.82349 0.32093 0.9637 0.0
H508 H 0.76014 0.11901 0.96398 0.0
H509 H 0.68388 1.04173 0.9281 0.0
C510 C 1.09726 0.65685 0.50036 0.0
C511 C 0.12568 0.68082 0.55729 0.0
C512 C 1.01042 0.68375 0.5848 0.0
C513 C 0.97132 0.62456 0.54259 0.0
N514 N 0.97994 0.58163 0.44344 0.0
N515 N 0.13667 0.79506 0.6007 0.0
C516 C 1.01528 0.61981 0.49387 0.0
C517 C 1.09224 0.7211 0.58379 0.0
N518 N 0.14734 0.66816 0.45543 0.0
N519 N 0.97168 0.70246 0.6254 0.0
H520 H 0.19668 0.82331 0.59452 0.0
H521 H 0.11192 0.82823 0.61413 0.0
H522 H 0.91122 0.67456 0.62783 0.0
H523 H 1.00098 0.7431 0.65815 0.0
H524 H 0.13002 0.65816 0.41142 0.0
H525 H 0.20695 0.69348 0.46334 0.0
H526 H 1.01014 0.57476 0.40852 0.0
H527 H 0.92042 0.55751 0.43646 0.0
C528 C 1.09767 0.5599 0.90068 0.0
C529 C 0.11034 0.50465 0.86973 0.0
C530 C 1.09623 0.43849 0.96783 0.0
C531 C 1.09083 0.49812 0.99896 0.0
N532 N 1.10301 0.62458 0.99226 0.0
N533 N 0.13141 0.39579 0.87743 0.0
C534 C 1.09588 0.56088 0.96435 0.0
C535 C 0.11197 0.44501 0.90448 0.0
N536 N 1.08395 0.61074 0.86909 0.0
N537 N 1.08313 0.37359 0.9982 0.0
H538 H 0.14128 0.39764 0.83195 0.0
H539 H 0.14294 0.35689 0.90038 0.0
H540 H 1.07222 0.36679 1.04357 0.0
H541 H 1.07709 0.32429 0.97784 0.0
H542 H 1.06425 0.64558 0.88796 0.0
H543 H 1.08306 0.6115 0.82325 0.0
H544 H 0.11709 0.67608 0.97034 0.0
H545 H 0.10428 0.62969 1.03801 0.0
C546 C 0.65951 0.5392 0.62522 0.0
C547 C 0.68826 0.60522 0.66313 0.0
C548 C 0.69731 0.68173 0.57149 0.0
C549 C 0.65749 0.61354 0.53699 0.0
N550 N 0.58859 0.47502 0.5367 0.0
N551 N 0.76788 0.74253 0.66171 0.0
C552 C 0.63436 0.5419 0.56595 0.0
C553 C 0.71591 0.67764 0.63327 0.0
N554 N 0.6666 0.47669 0.64157 0.0
N555 N 0.71443 0.75075 0.54603 0.0
H556 H 0.78831 0.74069 0.7039 0.0
H557 H 0.79906 0.79564 0.64052 0.0
H558 H 0.70349 0.75606 0.5015 0.0
H559 H 0.73382 0.80133 0.56991 0.0
H560 H 0.65009 0.42923 0.61445 0.0
H561 H 0.70395 0.4786 0.6748 0.0
H562 H 0.56175 0.42139 0.55791 0.0
H563 H 0.57301 0.47354 0.49242 0.0
C564 C 0.48681 1.04696 0.23352 0.0
C565 C 0.54754 1.04368 0.20119 0.0
C566 C 0.61216 1.0533 0.29903 0.0
C567 C 0.55511 0.06309 0.3311 0.0
N568 N 0.44313 0.08037 0.32442 0.0
N569 N 0.67637 1.05922 0.20604 0.0
C570 C 0.49365 0.06255 0.29691 0.0
C571 C 0.61204 1.05078 0.23507 0.0
N572 N 0.42053 1.03217 0.20422 0.0
N573 N 0.66585 1.04284 0.32985 0.0
H574 H 0.68036 1.05948 0.16022 0.0
H575 H 0.72913 0.07511 0.22678 0.0
H576 H 0.6678 1.04261 0.37573 0.0
H577 H 0.70243 1.02533 0.31054 0.0
H578 H 0.37044 1.02452 0.22539 0.0
H579 H 0.41347 1.0214 0.15893 0.0
H580 H 0.4025 0.08994 0.30196 0.0
H581 H 0.44604 0.09163 0.36959 0.0
loop_
_geom_bond_atom_site_label_1
_geom_bond_atom_site_label_2
_geom_bond_distance
_geom_bond_site_symmetry_2
_ccdc_geom_bond_type
Zn0 N4 2.020 . S
Zn0 O8 2.019 . S
Zn0 N10 2.119 . S
Zn0 O18 1.975 . S
C1 N2 1.334 1_455 S
C1 N5 1.336 . S
N2 C1 1.334 1_655 S
N2 C3 1.334 1_655 S
C3 N2 1.334 1_455 S
C3 N4 1.336 . S
N4 Zn0 2.020 . S
N4 C3 1.336 . S
N4 N5 1.354 . S
N5 C1 1.336 . S
N5 N4 1.354 . S
N5 Zn9 2.020 . S
C6 O7 1.244 1_556 S
C6 O30 1.257 . S
O7 C6 1.244 1_554 S
O8 Zn0 2.019 . S
O8 C28 1.257 . S
Zn9 N5 2.020 . S
Zn9 O16 1.975 . S
Zn9 N25 2.119 1_554 S
Zn9 O30 2.019 1_554 S
N10 Zn0 2.119 . S
N10 C12 1.334 . S
N10 C13 1.328 . S
C11 C12 1.391 . S
C11 N14 1.329 . S
C11 H32 0.930 . S
C12 N10 1.334 . S
C12 C11 1.391 . S
C12 H19 0.930 . S
C13 N10 1.328 . S
C13 C15 1.392 . S
C13 H20 0.930 . S
N14 C11 1.329 . S
N14 C15 1.331 . S
C15 C13 1.392 . S
C15 N14 1.331 . S
O16 Zn9 1.975 . S
O16 C17 1.252 . S
C17 O16 1.252 . S
C17 O18 1.252 . S
O18 Zn0 1.975 . S
O18 C17 1.252 . S
H19 C12 0.930 . S
H20 C13 0.930 . S
C21 C22 1.392 . S
C21 N25 1.328 . S
C21 H27 0.930 . S
C22 C21 1.392 . S
C22 N26 1.331 . S
C23 C24 1.391 1_556 S
C23 N26 1.329 . S
C23 H33 0.928 1_556 S
C24 C23 1.391 1_554 S
C24 N25 1.334 1_554 S
C24 H31 0.930 . S
N25 Zn9 2.119 1_556 S
N25 C21 1.328 . S
N25 C24 1.334 1_556 S
N26 C22 1.331 . S
N26 C23 1.329 . S
H27 C21 0.930 . S
C28 O8 1.257 . S
C28 O29 1.244 . S
O29 C28 1.244 . S
O30 C6 1.257 . S
O30 Zn9 2.019 1_556 S
H31 C24 0.930 . S
H32 C11 0.930 . S
H33 C23 0.928 1_554 S
Zn34 N38 2.020 . S
Zn34 O42 2.019 . S
Zn34 N44 2.119 . S
Zn34 O52 1.975 . S
C35 N36 1.334 . S
C35 N39 1.336 . S
N36 C35 1.334 . S
N36 C37 1.334 . S
C37 N36 1.334 . S
C37 N38 1.336 . S
N38 Zn34 2.020 . S
N38 C37 1.336 . S
N38 N39 1.354 . S
N39 C35 1.336 . S
N39 N38 1.354 . S
N39 Zn43 2.020 . S
C40 O41 1.244 . S
C40 O64 1.257 . S
O41 C40 1.244 . S
O42 Zn34 2.019 . S
O42 C62 1.257 . S
Zn43 N39 2.020 . S
Zn43 O50 1.975 . S
Zn43 N59 2.119 . S
Zn43 O64 2.019 . S
N44 Zn34 2.119 . S
N44 C46 1.334 . S
N44 C47 1.328 . S
C45 C46 1.391 . S
C45 N48 1.329 . S
C45 H66 0.930 . S
C46 N44 1.334 . S
C46 C45 1.391 . S
C46 H53 0.930 . S
C47 N44 1.328 . S
C47 C49 1.392 . S
C47 H54 0.930 . S
N48 C45 1.329 . S
N48 C49 1.331 . S
C49 C47 1.392 . S
C49 N48 1.331 . S
O50 Zn43 1.975 . S
O50 C51 1.252 . S
C51 O50 1.252 . S
C51 O52 1.252 . S
O52 Zn34 1.975 . S
O52 C51 1.252 . S
H53 C46 0.930 . S
H54 C47 0.930 . S
C55 C56 1.392 . S
C55 N59 1.328 . S
C55 H61 0.930 . S
C56 C55 1.392 . S
C56 N60 1.331 . S
C57 C58 1.391 . S
C57 N60 1.329 . S
C57 H67 0.930 . S
C58 C57 1.391 . S
C58 N59 1.334 . S
C58 H65 0.930 . S
N59 Zn43 2.119 . S
N59 C55 1.328 . S
N59 C58 1.334 . S
N60 C56 1.331 . S
N60 C57 1.329 . S
H61 C55 0.930 . S
C62 O42 1.257 . S
C62 O63 1.244 . S
O63 C62 1.244 . S
O64 C40 1.257 . S
O64 Zn43 2.019 . S
H65 C58 0.930 . S
H66 C45 0.930 . S
H67 C57 0.930 . S
Zn68 N72 2.020 . S
Zn68 O76 2.019 . S
Zn68 N78 2.119 . S
Zn68 O86 1.975 . S
C69 N70 1.334 1_565 S
C69 N73 1.336 . S
N70 C69 1.334 1_545 S
N70 C71 1.334 1_545 S
C71 N70 1.334 1_565 S
C71 N72 1.336 . S
N72 Zn68 2.020 . S
N72 C71 1.336 . S
N72 N73 1.354 . S
N73 C69 1.336 . S
N73 N72 1.354 . S
N73 Zn77 2.020 . S
C74 O75 1.244 . S
C74 O98 1.257 . S
O75 C74 1.244 . S
O76 Zn68 2.019 . S
O76 C96 1.257 . S
Zn77 N73 2.020 . S
Zn77 O84 1.975 . S
Zn77 N93 2.119 . S
Zn77 O98 2.019 . S
N78 Zn68 2.119 . S
N78 C80 1.334 . S
N78 C81 1.328 . S
C79 C80 1.391 . S
C79 N82 1.329 . S
C79 H100 0.930 . S
C80 N78 1.334 . S
C80 C79 1.391 . S
C80 H87 0.930 . S
C81 N78 1.328 . S
C81 C83 1.392 . S
C81 H88 0.930 . S
N82 C79 1.329 . S
N82 C83 1.331 . S
C83 C81 1.392 . S
C83 N82 1.331 . S
O84 Zn77 1.975 . S
O84 C85 1.252 . S
C85 O84 1.252 . S
C85 O86 1.252 . S
O86 Zn68 1.975 . S
O86 C85 1.252 . S
H87 C80 0.930 . S
H88 C81 0.930 . S
C89 C90 1.392 . S
C89 N93 1.328 . S
C89 H95 0.930 . S
C90 C89 1.392 . S
C90 N94 1.331 . S
C91 C92 1.391 . S
C91 N94 1.329 . S
C91 H101 0.930 . S
C92 C91 1.391 . S
C92 N93 1.334 . S
C92 H99 0.930 . S
N93 Zn77 2.119 . S
N93 C89 1.328 . S
N93 C92 1.334 . S
N94 C90 1.331 . S
N94 C91 1.329 . S
H95 C89 0.930 . S
C96 O76 1.257 . S
C96 O97 1.244 . S
O97 C96 1.244 . S
O98 C74 1.257 . S
O98 Zn77 2.019 . S
H99 C92 0.930 . S
H100 C79 0.930 . S
H101 C91 0.930 . S
Zn102 N106 2.020 . S
Zn102 O110 2.019 1_556 S
Zn102 N112 2.119 1_556 S
Zn102 O120 1.975 . S
C103 N104 1.334 1_545 S
C103 N107 1.336 . S
N104 C103 1.334 1_565 S
N104 C105 1.334 1_565 S
C105 N104 1.334 1_545 S
C105 N106 1.336 . S
N106 Zn102 2.020 . S
N106 C105 1.336 . S
N106 N107 1.354 . S
N107 C103 1.336 . S
N107 N106 1.354 . S
N107 Zn111 2.020 . S
C108 O109 1.244 . S
C108 O132 1.257 . S
O109 C108 1.244 . S
O110 Zn102 2.019 1_554 S
O110 C130 1.257 . S
Zn111 N107 2.020 . S
Zn111 O118 1.975 . S
Zn111 N127 2.119 . S
Zn111 O132 2.019 . S
N112 Zn102 2.119 1_554 S
N112 C114 1.334 1_554 S
N112 C115 1.328 . S
C113 C114 1.391 1_554 S
C113 N116 1.329 . S
C113 H134 0.928 1_554 S
C114 N112 1.334 1_556 S
C114 C113 1.391 1_556 S
C114 H121 0.930 . S
C115 N112 1.328 . S
C115 C117 1.392 . S
C115 H122 0.930 . S
N116 C113 1.329 . S
N116 C117 1.331 . S
C117 C115 1.392 . S
C117 N116 1.331 . S
O118 Zn111 1.975 . S
O118 C119 1.252 . S
C119 O118 1.252 . S
C119 O120 1.252 . S
O120 Zn102 1.975 . S
O120 C119 1.252 . S
H121 C114 0.930 . S
H122 C115 0.930 . S
C123 C124 1.392 . S
C123 N127 1.328 . S
C123 H129 0.930 . S
C124 C123 1.392 . S
C124 N128 1.331 . S
C125 C126 1.391 . S
C125 N128 1.329 . S
C125 H135 0.930 . S
C126 C125 1.391 . S
C126 N127 1.334 . S
C126 H133 0.930 . S
N127 Zn111 2.119 . S
N127 C123 1.328 . S
N127 C126 1.334 . S
N128 C124 1.331 . S
N128 C125 1.329 . S
H129 C123 0.930 . S
C130 O110 1.257 . S
C130 O131 1.244 1_554 S
O131 C130 1.244 1_556 S
O132 C108 1.257 . S
O132 Zn111 2.019 . S
H133 C126 0.930 . S
H134 C113 0.928 1_556 S
H135 C125 0.930 . S
Zn136 N140 2.020 . S
Zn136 O144 2.019 . S
Zn136 N146 2.119 . S
Zn136 O154 1.975 . S
C137 N138 1.334 1_655 S
C137 N141 1.336 . S
N138 C137 1.334 1_455 S
N138 C139 1.334 1_455 S
C139 N138 1.334 1_655 S
C139 N140 1.336 . S
N140 Zn136 2.020 . S
N140 C139 1.336 . S
N140 N141 1.354 . S
N141 C137 1.336 . S
N141 N140 1.354 . S
N141 Zn145 2.020 . S
C142 O143 1.244 . S
C142 O166 1.257 . S
O143 C142 1.244 . S
O144 Zn136 2.019 . S
O144 C164 1.257 . S
Zn145 N141 2.020 . S
Zn145 O152 1.975 . S
Zn145 N161 2.119 . S
Zn145 O166 2.019 . S
N146 Zn136 2.119 . S
N146 C148 1.334 . S
N146 C149 1.328 . S
C147 C148 1.391 . S
C147 N150 1.329 . S
C147 H168 0.930 . S
C148 N146 1.334 . S
C148 C147 1.391 . S
C148 H155 0.930 . S
C149 N146 1.328 . S
C149 C151 1.392 . S
C149 H156 0.930 . S
N150 C147 1.329 . S
N150 C151 1.331 . S
C151 C149 1.392 . S
C151 N150 1.331 . S
O152 Zn145 1.975 . S
O152 C153 1.252 . S
C153 O152 1.252 . S
C153 O154 1.252 . S
O154 Zn136 1.975 . S
O154 C153 1.252 . S
H155 C148 0.930 . S
H156 C149 0.930 . S
C157 C158 1.392 . S
C157 N161 1.328 . S
C157 H163 0.930 . S
C158 C157 1.392 . S
C158 N162 1.331 . S
C159 C160 1.391 . S
C159 N162 1.329 . S
C159 H169 0.930 . S
C160 C159 1.391 . S
C160 N161 1.334 . S
C160 H167 0.930 . S
N161 Zn145 2.119 . S
N161 C157 1.328 . S
N161 C160 1.334 . S
N162 C158 1.331 . S
N162 C159 1.329 . S
H163 C157 0.930 . S
C164 O144 1.257 . S
C164 O165 1.244 . S
O165 C164 1.244 . S
O166 C142 1.257 . S
O166 Zn145 2.019 . S
H167 C160 0.930 . S
H168 C147 0.930 . S
H169 C159 0.930 . S
Zn170 N174 2.020 . S
Zn170 O178 2.019 . S
Zn170 N180 2.119 . S
Zn170 O188 1.975 . S
C171 N172 1.334 . S
C171 N175 1.336 . S
N172 C171 1.334 . S
N172 C173 1.334 . S
C173 N172 1.334 . S
C173 N174 1.336 . S
N174 Zn170 2.020 . S
N174 C173 1.336 . S
N174 N175 1.354 . S
N175 C171 1.336 . S
N175 N174 1.354 . S
N175 Zn179 2.020 . S
C176 O177 1.244 . S
C176 O200 1.257 . S
O177 C176 1.244 . S
O178 Zn170 2.019 . S
O178 C198 1.257 . S
Zn179 N175 2.020 . S
Zn179 O186 1.975 . S
Zn179 N195 2.119 . S
Zn179 O200 2.019 . S
N180 Zn170 2.119 . S
N180 C182 1.334 . S
N180 C183 1.328 . S
C181 C182 1.391 . S
C181 N184 1.329 . S
C181 H202 0.930 . S
C182 N180 1.334 . S
C182 C181 1.391 . S
C182 H189 0.930 . S
C183 N180 1.328 . S
C183 C185 1.392 . S
C183 H190 0.930 . S
N184 C181 1.329 . S
N184 C185 1.331 . S
C185 C183 1.392 . S
C185 N184 1.331 . S
O186 Zn179 1.975 . S
O186 C187 1.252 . S
C187 O186 1.252 . S
C187 O188 1.252 . S
O188 Zn170 1.975 . S
O188 C187 1.252 . S
H189 C182 0.930 . S
H190 C183 0.930 . S
C191 C192 1.392 . S
C191 N195 1.328 . S
C191 H197 0.930 . S
C192 C191 1.392 . S
C192 N196 1.331 . S
C193 C194 1.391 . S
C193 N196 1.329 . S
C193 H203 0.930 . S
C194 C193 1.391 . S
C194 N195 1.334 . S
C194 H201 0.930 . S
N195 Zn179 2.119 . S
N195 C191 1.328 . S
N195 C194 1.334 . S
N196 C192 1.331 . S
N196 C193 1.329 . S
H197 C191 0.930 . S
C198 O178 1.257 . S
C198 O199 1.244 . S
O199 C198 1.244 . S
O200 C176 1.257 . S
O200 Zn179 2.019 . S
H201 C194 0.930 . S
H202 C181 0.930 . S
H203 C193 0.930 . S
C204 C205 1.363 . S
C204 C210 1.379 . S
C204 N212 1.356 . S
C205 C204 1.363 . S
C205 C211 1.363 . S
C206 C207 1.363 . S
C206 C211 1.379 . S
C206 N213 1.356 . S
C207 C206 1.363 . S
C207 C210 1.363 . S
N208 C210 1.356 . S
N208 H220 0.984 . S
N208 H221 0.985 . S
N209 C211 1.356 . S
N209 H214 0.984 . S
N209 H215 0.985 . S
C210 C204 1.379 . S
C210 C207 1.363 . S
C210 N208 1.356 . S
C211 C205 1.363 . S
C211 C206 1.379 . S
C211 N209 1.356 . S
N212 C204 1.356 . S
N212 H218 0.984 . S
N212 H219 0.984 . S
N213 C206 1.356 . S
N213 H216 0.984 . S
N213 H217 0.985 . S
H214 N209 0.984 . S
H215 N209 0.985 . S
H216 N213 0.984 . S
H217 N213 0.985 . S
H218 N212 0.984 . S
H219 N212 0.984 . S
H220 N208 0.984 . S
H221 N208 0.985 . S
C222 C223 1.363 . S
C222 C228 1.379 . S
C222 N230 1.356 . S
C223 C222 1.363 . S
C223 C229 1.363 . S
C224 C225 1.363 . S
C224 C229 1.379 . S
C224 N231 1.356 1_565 S
C225 C224 1.363 . S
C225 C228 1.363 . S
N226 C228 1.356 . S
N226 H238 0.984 . S
N226 H239 0.985 . S
N227 C229 1.356 . S
N227 H232 0.984 . S
N227 H233 0.985 1_565 S
C228 C222 1.379 . S
C228 C225 1.363 . S
C228 N226 1.356 . S
C229 C223 1.363 . S
C229 C224 1.379 . S
C229 N227 1.356 . S
N230 C222 1.356 . S
N230 H236 0.984 . S
N230 H237 0.984 . S
N231 C224 1.356 1_545 S
N231 H234 0.984 . S
N231 H235 0.985 . S
H232 N227 0.984 . S
H233 N227 0.985 1_545 S
H234 N231 0.984 . S
H235 N231 0.985 . S
H236 N230 0.984 . S
H237 N230 0.984 . S
H238 N226 0.984 . S
H239 N226 0.985 . S
C240 C241 1.363 . S
C240 C246 1.379 . S
C240 N248 1.356 . S
C241 C240 1.363 . S
C241 C247 1.363 . S
C242 C243 1.363 . S
C242 C247 1.379 . S
C242 N249 1.356 1_455 S
C243 C242 1.363 . S
C243 C246 1.363 . S
N244 C246 1.356 . S
N244 H256 0.984 . S
N244 H257 0.985 . S
N245 C247 1.356 . S
N245 H250 0.984 . S
N245 H251 0.985 . S
C246 C240 1.379 . S
C246 C243 1.363 . S
C246 N244 1.356 . S
C247 C241 1.363 . S
C247 C242 1.379 . S
C247 N245 1.356 . S
N248 C240 1.356 . S
N248 H254 0.984 . S
N248 H255 0.984 . S
N249 C242 1.356 1_655 S
N249 H252 0.984 . S
N249 H253 0.985 . S
H250 N245 0.984 . S
H251 N245 0.985 . S
H252 N249 0.984 . S
H253 N249 0.985 . S
H254 N248 0.984 . S
H255 N248 0.984 . S
H256 N244 0.984 . S
H257 N244 0.985 . S
C258 C259 1.363 . S
C258 C264 1.379 . S
C258 N266 1.356 . S
C259 C258 1.363 . S
C259 C265 1.363 . S
C260 C261 1.363 . S
C260 C265 1.379 . S
C260 N267 1.356 . S
C261 C260 1.363 . S
C261 C264 1.363 . S
N262 C264 1.356 . S
N262 H274 0.984 . S
N262 H275 0.985 . S
N263 C265 1.356 . S
N263 H268 0.984 . S
N263 H269 0.985 . S
C264 C258 1.379 . S
C264 C261 1.363 . S
C264 N262 1.356 . S
C265 C259 1.363 . S
C265 C260 1.379 . S
C265 N263 1.356 . S
N266 C258 1.356 . S
N266 H272 0.984 . S
N266 H273 0.984 . S
N267 C260 1.356 . S
N267 H270 0.984 . S
N267 H271 0.985 . S
H268 N263 0.984 . S
H269 N263 0.985 . S
H270 N267 0.984 . S
H271 N267 0.985 . S
H272 N266 0.984 . S
H273 N266 0.984 . S
H274 N262 0.984 . S
H275 N262 0.985 . S
C276 C277 1.363 . S
C276 C282 1.379 . S
C276 N284 1.356 . S
C277 C276 1.363 . S
C277 C283 1.363 . S
C278 C279 1.363 . S
C278 C283 1.379 . S
C278 N285 1.356 . S
C279 C278 1.363 . S
C279 C282 1.363 . S
N280 C282 1.356 . S
N280 H292 0.984 . S
N280 H293 0.985 . S
N281 C283 1.356 . S
N281 H286 0.984 . S
N281 H287 0.985 . S
C282 C276 1.379 . S
C282 C279 1.363 . S
C282 N280 1.356 . S
C283 C277 1.363 . S
C283 C278 1.379 . S
C283 N281 1.356 . S
N284 C276 1.356 . S
N284 H290 0.984 . S
N284 H291 0.984 . S
N285 C278 1.356 . S
N285 H288 0.984 . S
N285 H289 0.985 . S
H286 N281 0.984 . S
H287 N281 0.985 . S
H288 N285 0.984 . S
H289 N285 0.985 . S
H290 N284 0.984 . S
H291 N284 0.984 . S
H292 N280 0.984 . S
H293 N280 0.985 . S
C294 C295 1.363 . S
C294 C300 1.379 . S
C294 N302 1.356 1_655 S
C295 C294 1.363 . S
C295 C301 1.363 . S
C296 C297 1.363 . S
C296 C301 1.379 . S
C296 N303 1.356 . S
C297 C296 1.363 . S
C297 C300 1.363 . S
N298 C300 1.356 . S
N298 H310 0.984 . S
N298 H311 0.985 . S
N299 C301 1.356 . S
N299 H304 0.984 . S
N299 H305 0.985 . S
C300 C294 1.379 . S
C300 C297 1.363 . S
C300 N298 1.356 . S
C301 C295 1.363 . S
C301 C296 1.379 . S
C301 N299 1.356 . S
N302 C294 1.356 1_455 S
N302 H308 0.984 . S
N302 H309 0.984 . S
N303 C296 1.356 . S
N303 H306 0.984 . S
N303 H307 0.985 . S
H304 N299 0.984 . S
H305 N299 0.985 . S
H306 N303 0.984 . S
H307 N303 0.985 . S
H308 N302 0.984 . S
H309 N302 0.984 . S
H310 N298 0.984 . S
H311 N298 0.985 . S
C312 C313 1.363 1_556 S
C312 C318 1.379 . S
C312 N320 1.356 . S
C313 C312 1.363 1_554 S
C313 C319 1.363 . S
C314 C315 1.363 1_554 S
C314 C319 1.379 . S
C314 N321 1.356 . S
C315 C314 1.363 1_556 S
C315 C318 1.363 . S
N316 C318 1.356 . S
N316 H328 0.984 . S
N316 H329 0.985 . S
N317 C319 1.356 . S
N317 H322 0.984 . S
N317 H323 0.985 . S
C318 C312 1.379 . S
C318 C315 1.363 . S
C318 N316 1.356 . S
C319 C313 1.363 . S
C319 C314 1.379 . S
C319 N317 1.356 . S
N320 C312 1.356 . S
N320 H326 0.984 . S
N320 H327 0.984 . S
N321 C314 1.356 . S
N321 H324 0.984 . S
N321 H325 0.985 . S
H322 N317 0.984 . S
H323 N317 0.985 . S
H324 N321 0.984 . S
H325 N321 0.985 . S
H326 N320 0.984 . S
H327 N320 0.984 . S
H328 N316 0.984 . S
H329 N316 0.985 . S
C330 C331 1.363 . S
C330 C336 1.379 1_545 S
C330 N338 1.356 . S
C331 C330 1.363 . S
C331 C337 1.363 . S
C332 C333 1.363 . S
C332 C337 1.379 1_565 S
C332 N339 1.356 . S
C333 C332 1.363 . S
C333 C336 1.363 . S
N334 C336 1.356 . S
N334 H346 0.984 . S
N334 H347 0.985 . S
N335 C337 1.356 . S
N335 H340 0.984 . S
N335 H341 0.985 . S
C336 C330 1.379 1_565 S
C336 C333 1.363 . S
C336 N334 1.356 . S
C337 C331 1.363 . S
C337 C332 1.379 1_545 S
C337 N335 1.356 . S
N338 C330 1.356 . S
N338 H344 0.984 . S
N338 H345 0.984 . S
N339 C332 1.356 . S
N339 H342 0.984 . S
N339 H343 0.985 . S
H340 N335 0.984 . S
H341 N335 0.985 . S
H342 N339 0.984 . S
H343 N339 0.985 . S
H344 N338 0.984 . S
H345 N338 0.984 . S
H346 N334 0.984 . S
H347 N334 0.985 . S
C348 C349 1.363 . S
C348 C354 1.379 1_655 S
C348 N356 1.356 . S
C349 C348 1.363 . S
C349 C355 1.363 . S
C350 C351 1.363 . S
C350 C355 1.379 1_455 S
C350 N357 1.356 . S
C351 C350 1.363 . S
C351 C354 1.363 . S
N352 C354 1.356 . S
N352 H364 0.984 . S
N352 H365 0.985 . S
N353 C355 1.356 . S
N353 H358 0.984 . S
N353 H359 0.985 . S
C354 C348 1.379 1_455 S
C354 C351 1.363 . S
C354 N352 1.356 . S
C355 C349 1.363 . S
C355 C350 1.379 1_655 S
C355 N353 1.356 . S
N356 C348 1.356 . S
N356 H362 0.984 . S
N356 H363 0.984 . S
N357 C350 1.356 . S
N357 H360 0.984 . S
N357 H361 0.985 . S
H358 N353 0.984 . S
H359 N353 0.985 . S
H360 N357 0.984 . S
H361 N357 0.985 . S
H362 N356 0.984 . S
H363 N356 0.984 . S
H364 N352 0.984 . S
H365 N352 0.985 . S
C366 C367 1.363 1_455 S
C366 C372 1.379 . S
C366 N374 1.356 . S
C367 C366 1.363 1_655 S
C367 C373 1.363 . S
C368 C369 1.363 1_655 S
C368 C373 1.379 . S
C368 N375 1.356 . S
C369 C368 1.363 1_455 S
C369 C372 1.363 . S
N370 C372 1.356 . S
N370 H382 0.984 . S
N370 H383 0.985 . S
N371 C373 1.356 . S
N371 H376 0.984 . S
N371 H377 0.985 . S
C372 C366 1.379 . S
C372 C369 1.363 . S
C372 N370 1.356 . S
C373 C367 1.363 . S
C373 C368 1.379 . S
C373 N371 1.356 . S
N374 C366 1.356 . S
N374 H380 0.984 . S
N374 H381 0.984 . S
N375 C368 1.356 . S
N375 H378 0.984 . S
N375 H379 0.985 . S
H376 N371 0.984 . S
H377 N371 0.985 . S
H378 N375 0.984 . S
H379 N375 0.985 . S
H380 N374 0.984 . S
H381 N374 0.984 . S
H382 N370 0.984 . S
H383 N370 0.985 . S
C384 C385 1.363 . S
C384 C390 1.379 1_556 S
C384 N392 1.356 . S
C385 C384 1.363 . S
C385 C391 1.363 . S
C386 C387 1.363 . S
C386 C391 1.379 1_554 S
C386 N393 1.356 . S
C387 C386 1.363 . S
C387 C390 1.363 . S
N388 C390 1.356 . S
N388 H400 0.984 . S
N388 H401 0.985 . S
N389 C391 1.356 . S
N389 H394 0.984 . S
N389 H395 0.985 . S
C390 C384 1.379 1_554 S
C390 C387 1.363 . S
C390 N388 1.356 . S
C391 C385 1.363 . S
C391 C386 1.379 1_556 S
C391 N389 1.356 . S
N392 C384 1.356 . S
N392 H398 0.984 . S
N392 H399 0.984 . S
N393 C386 1.356 . S
N393 H396 0.984 . S
N393 H397 0.985 . S
H394 N389 0.984 . S
H395 N389 0.985 . S
H396 N393 0.984 . S
H397 N393 0.985 . S
H398 N392 0.984 . S
H399 N392 0.984 . S
H400 N388 0.984 . S
H401 N388 0.985 . S
C402 C403 1.363 1_565 S
C402 C408 1.379 . S
C402 N410 1.356 . S
C403 C402 1.363 1_545 S
C403 C409 1.363 . S
C404 C405 1.363 1_545 S
C404 C409 1.379 . S
C404 N411 1.356 . S
C405 C404 1.363 1_565 S
C405 C408 1.363 . S
N406 C408 1.356 . S
N406 H418 0.984 . S
N406 H419 0.985 . S
N407 C409 1.356 . S
N407 H412 0.984 . S
N407 H413 0.985 . S
C408 C402 1.379 . S
C408 C405 1.363 . S
C408 N406 1.356 . S
C409 C403 1.363 . S
C409 C404 1.379 . S
C409 N407 1.356 . S
N410 C402 1.356 . S
N410 H416 0.984 . S
N410 H417 0.984 . S
N411 C404 1.356 . S
N411 H414 0.984 . S
N411 H415 0.985 . S
H412 N407 0.984 . S
H413 N407 0.985 . S
H414 N411 0.984 . S
H415 N411 0.985 . S
H416 N410 0.984 . S
H417 N410 0.984 . S
H418 N406 0.984 . S
H419 N406 0.985 . S
C420 C421 1.363 . S
C420 C426 1.379 . S
C420 N428 1.356 . S
C421 C420 1.363 . S
C421 C427 1.363 . S
C422 C423 1.363 . S
C422 C427 1.379 . S
C422 N429 1.356 . S
C423 C422 1.363 . S
C423 C426 1.363 . S
N424 C426 1.356 . S
N424 H436 0.984 . S
N424 H437 0.985 . S
N425 C427 1.356 . S
N425 H430 0.984 . S
N425 H431 0.985 . S
C426 C420 1.379 . S
C426 C423 1.363 . S
C426 N424 1.356 . S
C427 C421 1.363 . S
C427 C422 1.379 . S
C427 N425 1.356 . S
N428 C420 1.356 . S
N428 H434 0.984 . S
N428 H435 0.984 . S
N429 C422 1.356 . S
N429 H432 0.984 . S
N429 H433 0.985 . S
H430 N425 0.984 . S
H431 N425 0.985 . S
H432 N429 0.984 . S
H433 N429 0.985 . S
H434 N428 0.984 . S
H435 N428 0.984 . S
H436 N424 0.984 . S
H437 N424 0.985 . S
C438 C439 1.363 . S
C438 C444 1.379 . S
C438 N446 1.356 . S
C439 C438 1.363 . S
C439 C445 1.363 . S
C440 C441 1.363 . S
C440 C445 1.379 . S
C440 N447 1.356 . S
C441 C440 1.363 . S
C441 C444 1.363 . S
N442 C444 1.356 . S
N442 H454 0.984 . S
N442 H455 0.985 . S
N443 C445 1.356 . S
N443 H448 0.984 . S
N443 H449 0.985 . S
C444 C438 1.379 . S
C444 C441 1.363 . S
C444 N442 1.356 . S
C445 C439 1.363 . S
C445 C440 1.379 . S
C445 N443 1.356 . S
N446 C438 1.356 . S
N446 H452 0.984 . S
N446 H453 0.984 . S
N447 C440 1.356 . S
N447 H450 0.984 . S
N447 H451 0.985 . S
H448 N443 0.984 . S
H449 N443 0.985 . S
H450 N447 0.984 . S
H451 N447 0.985 . S
H452 N446 0.984 . S
H453 N446 0.984 . S
H454 N442 0.984 . S
H455 N442 0.985 . S
C456 C457 1.363 . S
C456 C462 1.379 . S
C456 N464 1.356 . S
C457 C456 1.363 . S
C457 C463 1.363 . S
C458 C459 1.363 . S
C458 C463 1.379 . S
C458 N465 1.356 . S
C459 C458 1.363 . S
C459 C462 1.363 . S
N460 C462 1.356 . S
N460 H472 0.984 . S
N460 H473 0.985 . S
N461 C463 1.356 . S
N461 H466 0.984 . S
N461 H467 0.985 . S
C462 C456 1.379 . S
C462 C459 1.363 . S
C462 N460 1.356 . S
C463 C457 1.363 . S
C463 C458 1.379 . S
C463 N461 1.356 . S
N464 C456 1.356 . S
N464 H470 0.984 . S
N464 H471 0.984 . S
N465 C458 1.356 . S
N465 H468 0.984 . S
N465 H469 0.985 . S
H466 N461 0.984 . S
H467 N461 0.985 . S
H468 N465 0.984 . S
H469 N465 0.985 . S
H470 N464 0.984 . S
H471 N464 0.984 . S
H472 N460 0.984 . S
H473 N460 0.985 . S
C474 C475 1.363 . S
C474 C480 1.379 . S
C474 N482 1.356 . S
C475 C474 1.363 . S
C475 C481 1.363 . S
C476 C477 1.363 . S
C476 C481 1.379 . S
C476 N483 1.356 . S
C477 C476 1.363 . S
C477 C480 1.363 . S
N478 C480 1.356 . S
N478 H490 0.984 . S
N478 H491 0.985 . S
N479 C481 1.356 . S
N479 H484 0.984 . S
N479 H485 0.985 . S
C480 C474 1.379 . S
C480 C477 1.363 . S
C480 N478 1.356 . S
C481 C475 1.363 . S
C481 C476 1.379 . S
C481 N479 1.356 . S
N482 C474 1.356 . S
N482 H488 0.984 . S
N482 H489 0.984 . S
N483 C476 1.356 . S
N483 H486 0.984 . S
N483 H487 0.985 . S
H484 N479 0.984 . S
H485 N479 0.985 . S
H486 N483 0.984 . S
H487 N483 0.985 . S
H488 N482 0.984 . S
H489 N482 0.984 . S
H490 N478 0.984 . S
H491 N478 0.985 . S
C492 C493 1.363 . S
C492 C498 1.379 . S
C492 N500 1.356 . S
C493 C492 1.363 . S
C493 C499 1.363 . S
C494 C495 1.363 . S
C494 C499 1.379 . S
C494 N501 1.356 . S
C495 C494 1.363 . S
C495 C498 1.363 . S
N496 C498 1.356 . S
N496 H508 0.984 . S
N496 H509 0.985 . S
N497 C499 1.356 . S
N497 H502 0.984 . S
N497 H503 0.985 . S
C498 C492 1.379 . S
C498 C495 1.363 . S
C498 N496 1.356 . S
C499 C493 1.363 . S
C499 C494 1.379 . S
C499 N497 1.356 . S
N500 C492 1.356 . S
N500 H506 0.984 . S
N500 H507 0.984 . S
N501 C494 1.356 . S
N501 H504 0.984 . S
N501 H505 0.985 . S
H502 N497 0.984 . S
H503 N497 0.985 . S
H504 N501 0.984 . S
H505 N501 0.985 . S
H506 N500 0.984 . S
H507 N500 0.984 . S
H508 N496 0.984 . S
H509 N496 0.985 . S
C510 C511 1.363 . S
C510 C516 1.379 . S
C510 N518 1.356 . S
C511 C510 1.363 . S
C511 C517 1.363 . S
C512 C513 1.363 . S
C512 C517 1.379 . S
C512 N519 1.356 . S
C513 C512 1.363 . S
C513 C516 1.363 . S
N514 C516 1.356 . S
N514 H526 0.984 . S
N514 H527 0.985 . S
N515 C517 1.356 . S
N515 H520 0.984 . S
N515 H521 0.985 . S
C516 C510 1.379 . S
C516 C513 1.363 . S
C516 N514 1.356 . S
C517 C511 1.363 . S
C517 C512 1.379 . S
C517 N515 1.356 . S
N518 C510 1.356 . S
N518 H524 0.984 . S
N518 H525 0.984 . S
N519 C512 1.356 . S
N519 H522 0.984 . S
N519 H523 0.985 . S
H520 N515 0.984 . S
H521 N515 0.985 . S
H522 N519 0.984 . S
H523 N519 0.985 . S
H524 N518 0.984 . S
H525 N518 0.984 . S
H526 N514 0.984 . S
H527 N514 0.985 . S
C528 C529 1.363 1_455 S
C528 C534 1.379 . S
C528 N536 1.356 . S
C529 C528 1.363 1_655 S
C529 C535 1.363 . S
C530 C531 1.363 1_655 S
C530 C535 1.379 . S
C530 N537 1.356 . S
C531 C530 1.363 1_455 S
C531 C534 1.363 . S
N532 C534 1.356 . S
N532 H544 0.984 . S
N532 H545 0.985 . S
N533 C535 1.356 . S
N533 H538 0.984 . S
N533 H539 0.985 . S
C534 C528 1.379 . S
C534 C531 1.363 . S
C534 N532 1.356 . S
C535 C529 1.363 . S
C535 C530 1.379 . S
C535 N533 1.356 . S
N536 C528 1.356 . S
N536 H542 0.984 . S
N536 H543 0.984 . S
N537 C530 1.356 . S
N537 H540 0.984 . S
N537 H541 0.985 . S
H538 N533 0.984 . S
H539 N533 0.985 . S
H540 N537 0.984 . S
H541 N537 0.985 . S
H542 N536 0.984 . S
H543 N536 0.984 . S
H544 N532 0.984 . S
H545 N532 0.985 . S
C546 C547 1.363 . S
C546 C552 1.379 . S
C546 N554 1.356 . S
C547 C546 1.363 . S
C547 C553 1.363 . S
C548 C549 1.363 . S
C548 C553 1.379 . S
C548 N555 1.356 . S
C549 C548 1.363 . S
C549 C552 1.363 . S
N550 C552 1.356 . S
N550 H562 0.984 . S
N550 H563 0.985 . S
N551 C553 1.356 . S
N551 H556 0.984 . S
N551 H557 0.985 . S
C552 C546 1.379 . S
C552 C549 1.363 . S
C552 N550 1.356 . S
C553 C547 1.363 . S
C553 C548 1.379 . S
C553 N551 1.356 . S
N554 C546 1.356 . S
N554 H560 0.984 . S
N554 H561 0.984 . S
N555 C548 1.356 . S
N555 H558 0.984 . S
N555 H559 0.985 . S
H556 N551 0.984 . S
H557 N551 0.985 . S
H558 N555 0.984 . S
H559 N555 0.985 . S
H560 N554 0.984 . S
H561 N554 0.984 . S
H562 N550 0.984 . S
H563 N550 0.985 . S
C564 C565 1.363 1_565 S
C564 C570 1.379 . S
C564 N572 1.356 . S
C565 C564 1.363 1_545 S
C565 C571 1.363 . S
C566 C567 1.363 1_545 S
C566 C571 1.379 . S
C566 N573 1.356 . S
C567 C566 1.363 1_565 S
C567 C570 1.363 . S
N568 C570 1.356 . S
N568 H580 0.984 . S
N568 H581 0.985 . S
N569 C571 1.356 . S
N569 H574 0.984 . S
N569 H575 0.985 . S
C570 C564 1.379 . S
C570 C567 1.363 . S
C570 N568 1.356 . S
C571 C565 1.363 . S
C571 C566 1.379 . S
C571 N569 1.356 . S
N572 C564 1.356 . S
N572 H578 0.984 . S
N572 H579 0.984 . S
N573 C566 1.356 . S
N573 H576 0.984 . S
N573 H577 0.985 . S
H574 N569 0.984 . S
H575 N569 0.985 . S
H576 N573 0.984 . S
H577 N573 0.985 . S
H578 N572 0.984 . S
H579 N572 0.984 . S
H580 N568 0.984 . S
H581 N568 0.985 . S
C205 C173 2.697 . S
C207 C17 2.687 . S
C223 C51 2.687 . S
C225 C103 2.697 1_565 S
C241 C85 2.687 . S
C243 C137 2.697 1_455 S
C259 C35 2.697 . S
C261 C119 2.687 . S
C277 C71 2.697 1_545 S
C279 C153 2.687 . S
C295 C3 2.697 1_655 S
C297 C187 2.687 . S
C313 C130 0.896 . S
C315 C6 0.896 . S
C331 C164 0.896 . S
C333 C62 0.896 . S
C349 C176 0.896 . S
C351 C74 0.896 . S
C367 C158 0.664 . S
C369 C15 0.664 . S
C385 C56 0.664 . S
C387 C185 0.664 . S
C403 C124 0.664 . S
C405 C83 0.664 . S
C421 C22 0.506 . S
C423 C40 0.448 . S
C439 C96 0.448 . S
C441 C49 0.506 . S
C457 C28 0.448 . S
C459 C90 0.506 . S
C475 C117 0.506 . S
C477 C198 0.448 . S
C493 C151 0.506 . S
C495 C108 0.448 . S
C511 C142 0.448 . S
C513 C192 0.506 . S
C529 C139 3.288 . S
C531 C1 3.288 1_556 S
C547 C37 3.288 . S
C549 C171 3.288 . S
C565 C105 3.288 1_554 S
C567 C69 3.288 . S
