# Generated by pormake.
# Topology umj, (4)-cn, num edge types: 1
# Building blocks:
#     Node 0, Type 0, BuildingBlock: ESEHIV_clean_sbu_0, # of connection points: 4
#     Node 1, Type 0, BuildingBlock: ESEHIV_clean_sbu_0, # of connection points: 4
#     Node 2, Type 0, BuildingBlock: ESEHIV_clean_sbu_0, # of connection points: 4
#     Node 3, Type 0, BuildingBlock: ESEHIV_clean_sbu_0, # of connection points: 4
#     Node 4, Type 0, BuildingBlock: ESEHIV_clean_sbu_0, # of connection points: 4
#     Node 5, Type 0, BuildingBlock: ESEHIV_clean_sbu_0, # of connection points: 4
#     Node 6, Type 0, BuildingBlock: ESEHIV_clean_sbu_0, # of connection points: 4
#     Node 7, Type 0, BuildingBlock: ESEHIV_clean_sbu_0, # of connection points: 4
#     Node 8, Type 0, BuildingBlock: ESEHIV_clean_sbu_0, # of connection points: 4
#     Node 9, Type 0, BuildingBlock: ESEHIV_clean_sbu_0, # of connection points: 4
#     Node 10, Type 0, BuildingBlock: ESEHIV_clean_sbu_0, # of connection points: 4
#     Node 11, Type 0, BuildingBlock: ESEHIV_clean_sbu_0, # of connection points: 4
#     Edge 12, Type (0, 0), BuildingBlock: AJUNOK_clean_linker_0, # of connection points: 2
#     Edge 13, Type (0, 0), BuildingBlock: AJUNOK_clean_linker_0, # of connection points: 2
#     Edge 14, Type (0, 0), BuildingBlock: AJUNOK_clean_linker_0, # of connection points: 2
#     Edge 15, Type (0, 0), BuildingBlock: AJUNOK_clean_linker_0, # of connection points: 2
#     Edge 16, Type (0, 0), BuildingBlock: AJUNOK_clean_linker_0, # of connection points: 2
#     Edge 17, Type (0, 0), BuildingBlock: AJUNOK_clean_linker_0, # of connection points: 2
#     Edge 18, Type (0, 0), BuildingBlock: AJUNOK_clean_linker_0, # of connection points: 2
#     Edge 19, Type (0, 0), BuildingBlock: AJUNOK_clean_linker_0, # of connection points: 2
#     Edge 20, Type (0, 0), BuildingBlock: AJUNOK_clean_linker_0, # of connection points: 2
#     Edge 21, Type (0, 0), BuildingBlock: AJUNOK_clean_linker_0, # of connection points: 2
#     Edge 22, Type (0, 0), BuildingBlock: AJUNOK_clean_linker_0, # of connection points: 2
#     Edge 23, Type (0, 0), BuildingBlock: AJUNOK_clean_linker_0, # of connection points: 2
#     Edge 24, Type (0, 0), BuildingBlock: AJUNOK_clean_linker_0, # of connection points: 2
#     Edge 25, Type (0, 0), BuildingBlock: AJUNOK_clean_linker_0, # of connection points: 2
#     Edge 26, Type (0, 0), BuildingBlock: AJUNOK_clean_linker_0, # of connection points: 2
#     Edge 27, Type (0, 0), BuildingBlock: AJUNOK_clean_linker_0, # of connection points: 2
#     Edge 28, Type (0, 0), BuildingBlock: AJUNOK_clean_linker_0, # of connection points: 2
#     Edge 29, Type (0, 0), BuildingBlock: AJUNOK_clean_linker_0, # of connection points: 2
#     Edge 30, Type (0, 0), BuildingBlock: AJUNOK_clean_linker_0, # of connection points: 2
#     Edge 31, Type (0, 0), BuildingBlock: AJUNOK_clean_linker_0, # of connection points: 2
#     Edge 32, Type (0, 0), BuildingBlock: AJUNOK_clean_linker_0, # of connection points: 2
#     Edge 33, Type (0, 0), BuildingBlock: AJUNOK_clean_linker_0, # of connection points: 2
#     Edge 34, Type (0, 0), BuildingBlock: AJUNOK_clean_linker_0, # of connection points: 2
#     Edge 35, Type (0, 0), BuildingBlock: AJUNOK_clean_linker_0, # of connection points: 2
# Relax obj value: 0.040
# Max RMSD: 0.104
# Mean RMSD: 0.087
data_MOF--net-umj--node1-ESEHIV_clean_sbu_0--edge1-AJUNOK_clean_linker_0
_symmetry_space_group_name_H-M    P1
_symmetry_Int_Tables_number       1
_symmetry_cell_setting            triclinic
loop_
_symmetry_equiv_pos_as_xyz
'x, y, z'
_cell_length_a     21.511825
_cell_length_b     26.130084
_cell_length_c     65.381654
_cell_angle_alpha  90.321949
_cell_angle_beta   91.136344
_cell_angle_gamma 114.08567
loop_
_atom_site_label
_atom_site_type_symbol
_atom_site_fract_x
_atom_site_fract_y
_atom_site_fract_z
_atom_type_partial_charge
Cu0 Cu 0.12481 0.31108 0.11206 0.0
N1 N 0.06808 0.23577 0.10777 0.0
N2 N 0.04681 0.14512 0.10384 0.0
C3 C 0.0905 0.19837 0.10036 0.0
C4 C 0.99468 0.14915 0.11386 0.0
C5 C 1.00801 0.20521 0.1163 0.0
O6 O 0.1897 0.32986 0.09017 0.0
C7 C 0.16208 0.35017 0.15365 0.0
O8 O 0.15732 0.39639 0.14781 0.0
H9 H 0.14117 0.21017 0.09452 0.0
H10 H 0.97918 0.22234 0.1253 0.0
N11 N 0.07915 0.35801 0.10946 0.0
N12 N 0.06546 0.43791 0.10673 0.0
C13 C 0.11035 0.41412 0.10805 0.0
C14 C 1.01201 0.34544 0.10834 0.0
C15 C 1.00336 0.39476 0.10664 0.0
C16 C 0.16295 0.32723 0.07237 0.0
O17 O 0.09738 0.31497 0.07087 0.0
H18 H 0.16514 0.43717 0.10872 0.0
H19 H 0.97219 0.30356 0.10868 0.0
O20 O 0.15939 0.31392 0.14013 0.0
H21 H 0.95243 0.11427 0.12021 0.0
H22 H 0.9551 0.39837 0.10533 0.0
Cu23 Cu 0.85349 0.11772 0.43272 0.0
N24 N 0.8638 0.13059 0.46095 0.0
N25 N 0.85215 0.108 0.49409 0.0
C26 C 0.82505 0.09463 0.47495 0.0
C27 C 0.91051 0.15424 0.49192 0.0
C28 C 0.91752 0.168 0.47152 0.0
O29 O 0.75623 0.07625 0.42648 0.0
C30 C 0.97501 0.10768 0.42573 0.0
O31 O 0.9979 0.16147 0.43003 0.0
H32 H 0.7797 0.05763 0.47097 0.0
H33 H 0.96126 0.20039 0.46476 0.0
N34 N 0.88386 0.18292 0.41722 0.0
N35 N 0.9099 0.23275 0.38863 0.0
C36 C 0.87766 0.18161 0.39672 0.0
C37 C 0.92087 0.23712 0.42238 0.0
C38 C 0.93727 0.26809 0.40465 0.0
C39 C 0.71816 0.10293 0.4278 0.0
O40 O 0.74656 0.15639 0.43292 0.0
H41 H 0.8518 0.14337 0.38783 0.0
H42 H 0.93627 0.25287 0.43781 0.0
O43 O 0.91073 0.07839 0.42575 0.0
H44 H 0.94831 0.17433 0.50388 0.0
H45 H 0.96677 0.31284 0.40362 0.0
Cu46 Cu 0.78514 0.7948 0.78974 0.0
N47 N 0.87497 0.84195 0.78358 0.0
N48 N 0.96733 0.92201 0.78036 0.0
C49 C 0.9049 0.89706 0.78832 0.0
C50 C 0.97787 0.88077 0.77056 0.0
C51 C 0.92095 0.83136 0.77267 0.0
O52 O 0.72306 0.81179 0.77181 0.0
C53 C 0.81277 0.78315 0.83017 0.0
O54 O 0.85368 0.76494 0.82093 0.0
H55 H 0.88062 0.9188 0.79704 0.0
H56 H 0.91339 0.79108 0.76624 0.0
N57 N 0.76191 0.71997 0.7828 0.0
N58 N 0.68335 0.63257 0.77751 0.0
C59 C 0.70562 0.67843 0.78986 0.0
C60 C 0.77573 0.69974 0.7653 0.0
C61 C 0.7278 0.64574 0.7621 0.0
C62 C 0.73701 0.85744 0.76239 0.0
O63 O 0.78531 0.90377 0.76969 0.0
H64 H 0.67767 0.68399 0.80265 0.0
H65 H 0.81189 0.72454 0.75422 0.0
O66 O 0.77495 0.7995 0.81913 0.0
H67 H 1.02214 0.88631 0.76174 0.0
H68 H 0.72177 0.62083 0.74833 0.0
Cu69 Cu 0.05812 0.79047 0.10839 0.0
N70 N 0.10337 0.86633 0.10277 0.0
N71 N 0.11497 0.95467 0.09893 0.0
C72 C 0.07766 0.90417 0.1069 0.0
C73 C 0.16714 0.94854 0.08964 0.0
C74 C 0.15961 0.89374 0.09196 0.0
O75 O 0.99474 0.75684 0.0857 0.0
C76 C 1.00679 0.74111 0.14636 0.0
O77 O 1.00016 0.69462 0.13702 0.0
H78 H 1.03043 0.89397 0.11481 0.0
H79 H 0.19158 0.87484 0.08571 0.0
N80 N 0.11407 0.75174 0.10807 0.0
N81 N 0.13344 0.67414 0.10755 0.0
C82 C 0.08922 0.69701 0.10298 0.0
C83 C 0.17718 0.76453 0.11583 0.0
C84 C 0.18944 0.71639 0.11543 0.0
C85 C 0.95599 0.77673 0.0772 0.0
O86 O 0.94487 0.81684 0.08643 0.0
H87 H 1.03745 0.67333 0.09745 0.0
H88 H 0.20992 0.80471 0.12254 0.0
O89 O 1.02265 0.78543 0.13593 0.0
H90 H 0.20762 0.98103 0.08167 0.0
H91 H 0.23369 0.71184 0.12182 0.0
Cu92 Cu 0.28684 0.98702 0.42317 0.0
N93 N 0.27696 0.96684 0.45076 0.0
N94 N 0.28231 0.98061 0.4847 0.0
C95 C 0.29204 1.00476 0.46618 0.0
C96 C 0.25959 0.92505 0.48079 0.0
C97 C 0.25626 0.91665 0.45981 0.0
O98 O 0.38493 1.02653 0.41912 0.0
C99 C 0.16941 1.00431 0.42188 0.0
O100 O 0.14644 0.95078 0.42624 0.0
H101 H 0.31072 0.04948 0.46381 0.0
H102 H 0.23964 0.8768 0.45184 0.0
N103 N 0.25112 0.9272 0.40419 0.0
N104 N 0.20476 0.88277 0.37463 0.0
C105 C 0.22568 0.93123 0.38553 0.0
C106 C 0.24607 0.87421 0.40517 0.0
C107 C 0.21708 0.84663 0.38702 0.0
C108 C 0.42035 0.99787 0.42176 0.0
O109 O 0.3886 0.94478 0.42642 0.0
H110 H 0.22138 0.96887 0.38028 0.0
H111 H 0.26273 0.85683 0.41803 0.0
O112 O 0.23331 1.03124 0.41938 0.0
H113 H 0.24527 0.89272 0.49223 0.0
H114 H 0.20651 0.80348 0.38316 0.0
Cu115 Cu 0.31563 0.28401 0.78773 0.0
N116 N 0.22455 0.2399 0.78104 0.0
N117 N 0.13364 0.15831 0.77771 0.0
C118 C 0.19121 0.18824 0.78855 0.0
C119 C 0.12938 0.1932 0.76314 0.0
C120 C 0.18603 0.2435 0.76511 0.0
O121 O 0.37025 0.2647 0.76835 0.0
C122 C 0.29397 0.29003 0.82848 0.0
O123 O 0.25244 0.30988 0.82015 0.0
H124 H 0.21164 0.17163 0.80083 0.0
H125 H 0.20078 0.27826 0.75469 0.0
N126 N 0.34322 0.36034 0.78379 0.0
N127 N 0.42113 0.44746 0.77957 0.0
C128 C 0.40959 0.39478 0.78494 0.0
C129 C 0.31071 0.39229 0.77776 0.0
C130 C 0.35898 0.44656 0.7753 0.0
C131 C 0.35402 0.21602 0.76068 0.0
O132 O 0.30774 0.17276 0.76957 0.0
H133 H 0.44876 0.38091 0.7895 0.0
H134 H 0.25641 0.37707 0.77486 0.0
O135 O 0.32963 0.27437 0.81666 0.0
H136 H 0.09106 0.18164 0.75096 0.0
H137 H 0.34942 0.48204 0.77015 0.0
Cu138 Cu 0.75561 0.96622 0.62673 0.0
N139 N 0.75056 0.94828 0.59895 0.0
N140 N 0.77029 0.97278 0.56618 0.0
C141 C 0.75382 0.98608 0.58467 0.0
C142 C 0.77532 0.92335 0.56884 0.0
C143 C 0.76372 0.90856 0.58915 0.0
O144 O 0.69711 1.00586 0.63045 0.0
C145 C 0.88956 0.98179 0.6328 0.0
O146 O 0.85979 0.9271 0.63023 0.0
H147 H 0.74804 1.02433 0.58825 0.0
H148 H 0.7701 0.874 0.59652 0.0
N149 N 0.72422 0.90582 0.64451 0.0
N150 N 0.69952 0.86574 0.67517 0.0
C151 C 0.73582 0.91268 0.66482 0.0
C152 C 0.67907 0.85241 0.64168 0.0
C153 C 0.66366 0.8275 0.66062 0.0
C154 C 0.63382 0.97633 0.62693 0.0
O155 O 0.61478 0.92402 0.62087 0.0
H156 H 0.7692 0.95222 0.67187 0.0
H157 H 0.65631 0.83387 0.62707 0.0
O158 O 0.85232 1.00934 0.63281 0.0
H159 H 0.79146 0.9017 0.55734 0.0
H160 H 0.62637 0.78552 0.66339 0.0
Cu161 Cu 0.82418 0.78271 0.96052 0.0
N162 N 0.86148 0.85886 0.96777 0.0
N163 N 0.94794 0.94314 0.97196 0.0
C164 C 0.92028 0.89616 0.96023 0.0
C165 C 0.90365 0.93575 0.98716 0.0
C166 C 0.8508 0.8835 0.98467 0.0
O167 O 0.86112 0.74616 0.98 0.0
C168 C 0.80804 0.7956 0.9195 0.0
O169 O 0.77112 0.81981 0.9275 0.0
H170 H 0.94454 0.88707 0.94721 0.0
H171 H 0.8111 0.86322 0.99545 0.0
N172 N 0.73106 0.74435 0.9643 0.0
N173 N 0.64097 0.66245 0.96757 0.0
C174 C 0.69857 0.6912 0.9574 0.0
C175 C 0.69226 0.75008 0.97927 0.0
C176 C 0.63648 0.69968 0.98126 0.0
C177 C 0.9182 0.77074 0.98931 0.0
O178 O 0.96549 0.81494 0.98118 0.0
H179 H 0.7207 0.67253 0.9465 0.0
H180 H 0.707 0.78579 0.98955 0.0
O181 O 0.8393 0.77543 0.93161 0.0
H182 H 0.91169 0.96414 1.00004 0.0
H183 H 0.59981 0.68984 0.99331 0.0
Cu184 Cu 0.94206 0.76537 0.27147 0.0
N185 N 0.88795 0.80595 0.27429 0.0
N186 N 0.85666 0.87812 0.27347 0.0
C187 C 0.90926 0.86227 0.27423 0.0
C188 C 0.80017 0.82958 0.27283 0.0
C189 C 0.81957 0.78541 0.27335 0.0
O190 O 1.01218 0.78801 0.29314 0.0
C191 C 1.01347 0.75843 0.23552 0.0
O192 O 0.04514 0.73561 0.24727 0.0
H193 H 0.96232 0.89102 0.27398 0.0
H194 H 0.78617 0.74139 0.27195 0.0
N195 N 0.8907 0.68805 0.27489 0.0
N196 N 0.86223 0.59529 0.2743 0.0
C197 C 0.90092 0.6453 0.26608 0.0
C198 C 0.84331 0.66398 0.28905 0.0
C199 C 0.82535 0.60687 0.28863 0.0
C200 C 0.06225 0.83532 0.29569 0.0
O201 O 0.07355 0.87387 0.28175 0.0
H202 H 0.93813 0.6507 0.25452 0.0
H203 H 0.82491 0.68666 0.29947 0.0
O204 O 0.97338 0.77715 0.24349 0.0
H205 H 0.74846 0.82585 0.27081 0.0
H206 H 0.78862 0.57645 0.29833 0.0
Cu207 Cu 0.31738 0.09174 0.62403 0.0
N208 N 0.32569 0.11072 0.59638 0.0
N209 N 0.32373 0.09563 0.56256 0.0
C210 C 0.31636 0.07278 0.58131 0.0
C211 C 0.33742 0.15027 0.56603 0.0
C212 C 0.3388 0.15952 0.58694 0.0
O213 O 0.37066 0.04766 0.62819 0.0
C214 C 0.18664 0.08382 0.62887 0.0
O215 O 0.21942 0.13746 0.62513 0.0
H216 H 0.30234 1.02875 0.58415 0.0
H217 H 0.34786 0.19874 0.59464 0.0
N218 N 0.35362 0.15144 0.6428 0.0
N219 N 0.38176 0.19037 0.6741 0.0
C220 C 0.34262 0.14438 0.66297 0.0
C221 C 0.40082 0.20418 0.6409 0.0
C222 C 0.4179 0.22848 0.66021 0.0
C223 C 0.43432 0.07439 0.6253 0.0
O224 O 0.45677 0.12705 0.61981 0.0
H225 H 0.30661 0.10569 0.66927 0.0
H226 H 0.42329 0.22285 0.62666 0.0
O227 O 0.22039 0.05339 0.62927 0.0
H228 H 0.3459 0.18134 0.55431 0.0
H229 H 0.45556 0.27028 0.6638 0.0
Cu230 Cu 0.31569 0.28966 0.95847 0.0
N231 N 0.28926 0.21336 0.96316 0.0
N232 N 0.21259 0.12544 0.96738 0.0
C233 C 0.22319 0.1778 0.96176 0.0
C234 C 0.27498 0.12808 0.97258 0.0
C235 C 0.32234 0.18257 0.96998 0.0
O236 O 0.27111 0.31413 0.97959 0.0
C237 C 0.32226 0.27898 0.91728 0.0
O238 O 0.36564 0.25919 0.92429 0.0
H239 H 0.18328 0.19066 0.95701 0.0
H240 H 0.37631 0.19869 0.97347 0.0
N241 N 0.40768 0.3375 0.96154 0.0
N242 N 0.49288 0.42239 0.9654 0.0
C243 C 0.4275 0.39302 0.95941 0.0
C244 C 0.46291 0.33089 0.96878 0.0
C245 C 0.51588 0.38341 0.97104 0.0
C246 C 0.29573 0.31309 0.99745 0.0
O247 O 0.34504 0.29592 0.99925 0.0
H248 H 0.39349 0.41131 0.95392 0.0
H249 H 0.46394 0.29135 0.97303 0.0
O250 O 0.29087 0.296 0.93018 0.0
H251 H 0.28543 0.09389 0.97866 0.0
H252 H 0.56639 0.39233 0.9772 0.0
Cu253 Cu 0.95266 0.26839 0.26139 0.0
N254 N 0.89994 0.19123 0.25692 0.0
N255 N 0.86489 0.09824 0.25961 0.0
C256 C 0.91651 0.14893 0.26299 0.0
C257 C 0.81373 0.10886 0.2512 0.0
C258 C 0.8354 0.16619 0.2496 0.0
O259 O 0.97053 0.27753 0.29076 0.0
C260 C 0.04932 0.26565 0.23205 0.0
O261 O 1.01571 0.211 0.23244 0.0
H262 H 0.9648 0.15525 0.27027 0.0
H263 H 0.80538 0.18803 0.24406 0.0
N264 N 0.90486 0.31211 0.25421 0.0
N265 N 0.87449 0.38464 0.25402 0.0
C266 C 0.90809 0.35843 0.26426 0.0
C267 C 0.86877 0.30932 0.23688 0.0
C268 C 0.84989 0.35388 0.23674 0.0
C269 C 0.91653 0.26191 0.30115 0.0
O270 O 0.85758 0.24413 0.29124 0.0
H271 H 0.93753 0.37408 0.27829 0.0
H272 H 0.85907 0.27829 0.22483 0.0
O273 O 1.03371 0.29596 0.24452 0.0
H274 H 0.76412 0.0774 0.24664 0.0
H275 H 0.82134 0.3635 0.22467 0.0
C276 C 0.10465 0.25634 0.19971 0.0
C277 C 0.09378 0.29133 0.21439 0.0
C278 C 0.13253 0.27684 0.18069 0.0
C279 C 0.15067 0.33327 0.17548 0.0
H280 H 0.08786 0.21187 0.20237 0.0
H281 H 0.13554 0.24717 0.16954 0.0
S282 S 0.146 0.44495 0.21005 0.0
N283 N 0.11341 0.38722 0.22357 0.0
N284 N 0.16585 0.42574 0.18789 0.0
C285 C 0.14645 0.3699 0.19078 0.0
C286 C 0.11804 0.34898 0.2102 0.0
C287 C 0.79531 1.01614 0.51098 0.0
C288 C 0.82913 0.07506 0.51234 0.0
C289 C 0.77581 0.98322 0.52857 0.0
C290 C 0.78902 1.00773 0.54827 0.0
H291 H 0.78518 0.99503 0.49622 0.0
H292 H 0.75022 0.93813 0.52674 0.0
S293 S 0.87607 0.16031 0.5603 0.0
N294 N 0.87306 0.15653 0.53508 0.0
N295 N 0.8398 0.09493 0.56805 0.0
C296 C 0.82264 0.06666 0.54986 0.0
C297 C 0.8419 0.10017 0.53195 0.0
C298 C 0.77312 0.80933 0.86291 0.0
C299 C 0.81216 0.78519 0.85296 0.0
C300 C 0.77254 0.8125 0.88433 0.0
C301 C 0.81082 0.79154 0.89682 0.0
H302 H 0.74286 0.82625 0.8541 0.0
H303 H 0.74152 0.83164 0.8911 0.0
S304 S 0.92117 0.72347 0.87852 0.0
N305 N 0.89 0.73932 0.8574 0.0
N306 N 0.88861 0.74536 0.89757 0.0
C307 C 0.84992 0.76706 0.88712 0.0
C308 C 0.85066 0.76387 0.86526 0.0
C309 C 0.99911 0.78877 0.17914 0.0
C310 C 1.00699 0.74405 0.16911 0.0
C311 C 1.00231 0.7936 0.2006 0.0
C312 C 1.01521 0.75471 0.21287 0.0
H313 H 0.98992 0.82014 0.17036 0.0
H314 H 0.9948 0.82823 0.20763 0.0
S315 S 1.04012 0.63006 0.19428 0.0
N316 N 1.02827 0.65996 0.17327 0.0
N317 N 1.03533 0.6697 0.21341 0.0
C318 C 1.02386 0.71013 0.20306 0.0
C319 C 1.01938 0.70459 0.18125 0.0
C320 C 0.28661 0.08333 0.52604 0.0
C321 C 0.31517 0.06695 0.54301 0.0
C322 C 0.27605 0.05497 0.5071 0.0
C323 C 0.2933 1.00892 0.50436 0.0
H324 H 0.27114 0.11772 0.52752 0.0
H325 H 0.25318 0.06863 0.49456 0.0
S326 S 0.37648 0.95306 0.54312 0.0
N327 N 0.36556 1.00432 0.55522 0.0
N328 N 0.34468 0.95075 0.51977 0.0
C329 C 0.32302 0.99273 0.52104 0.0
C330 C 0.33423 1.0218 0.54029 0.0
C331 C 0.34358 0.26582 0.86011 0.0
C332 C 0.29917 0.28697 0.85116 0.0
C333 C 0.35008 0.26324 0.88142 0.0
C334 C 0.31251 0.28174 0.89478 0.0
H335 H 0.37393 0.25122 0.85062 0.0
H336 H 0.38533 0.2467 0.88741 0.0
S337 S 0.18818 0.34019 0.87923 0.0
N338 N 0.21608 0.32638 0.85745 0.0
N339 N 0.22863 0.32148 0.89742 0.0
C340 C 0.26753 0.30269 0.88607 0.0
C341 C 0.2608 0.30532 0.86432 0.0
C342 C 0.16743 0.32414 0.03418 0.0
C343 C 0.20141 0.33134 0.05338 0.0
C344 C 0.19923 0.32113 1.01598 0.0
C345 C 0.26626 0.32504 1.01625 0.0
H346 H 0.11486 0.31892 0.03316 0.0
H347 H 0.17003 0.31325 1.00173 0.0
S348 S 0.38106 0.35193 0.06205 0.0
N349 N 0.30828 0.34787 0.07121 0.0
N350 N 0.36829 0.34254 0.03707 0.0
C351 C 0.30224 0.33556 0.03518 0.0
C352 C 0.26983 0.33866 0.05372 0.0
C353 C 0.85393 0.22079 0.35485 0.0
C354 C 0.91306 0.24513 0.36718 0.0
C355 C 0.8559 0.22781 0.33367 0.0
C356 C 0.91742 0.25881 0.32382 0.0
H357 H 0.80572 0.19562 0.36169 0.0
H358 H 0.80867 0.20746 0.32494 0.0
S359 S 0.08682 0.33172 0.34946 0.0
N360 N 1.0348 0.30228 0.36834 0.0
N361 N 1.03909 0.31522 0.32829 0.0
C362 C 0.97705 0.28417 0.33604 0.0
C363 C 0.97472 0.2775 0.35778 0.0
C364 C 0.72002 0.90536 0.73115 0.0
C365 C 0.71384 0.85555 0.74072 0.0
C366 C 0.71194 0.90751 0.70989 0.0
C367 C 0.69842 0.86017 0.69719 0.0
H368 H 0.73353 0.9436 0.74009 0.0
H369 H 0.71812 0.94717 0.70332 0.0
S370 S 0.6738 0.71842 0.71472 0.0
N371 N 0.68875 0.75645 0.73594 0.0
N372 N 0.67621 0.7612 0.69598 0.0
C373 C 0.68888 0.80935 0.70664 0.0
C374 C 0.69599 0.80689 0.72838 0.0
C375 C 0.99065 0.76394 0.042 0.0
C376 C 0.9403 0.76609 0.05504 0.0
C377 C 0.98224 0.76315 1.02063 0.0
C378 C 0.92221 0.76242 1.01157 0.0
H379 H 1.03862 0.76608 0.04832 0.0
H380 H 1.02364 0.76457 1.01115 0.0
S381 S 0.77336 0.76418 0.03891 0.0
N382 N 0.82782 0.76593 0.05736 0.0
N383 N 0.81036 0.76167 1.01726 0.0
C384 C 0.87008 0.76172 1.02445 0.0
C385 C 0.87956 0.76429 0.04618 0.0
C386 C 0.08575 0.80714 0.33074 0.0
C387 C 0.10316 0.84774 0.31526 0.0
C388 C 0.11988 0.81855 0.34987 0.0
C389 C 0.17276 0.87112 0.35445 0.0
H390 H 0.04444 0.7663 0.32826 0.0
H391 H 0.10343 0.78638 0.36136 0.0
S392 S 0.2431 0.99034 0.31888 0.0
N393 N 0.18038 0.94182 0.30561 0.0
N394 N 0.24458 0.96279 0.34145 0.0
C395 C 0.19226 0.91157 0.33899 0.0
C396 C 0.15759 0.89998 0.31946 0.0
C397 C 0.39487 0.24986 0.70484 0.0
C398 C 0.38351 0.19738 0.6961 0.0
C399 C 0.38968 0.25633 0.72598 0.0
C400 C 0.37246 0.21046 0.73925 0.0
H401 H 0.40482 0.28572 0.69518 0.0
H402 H 0.3957 0.29707 0.73175 0.0
S403 S 0.34979 0.06646 0.72466 0.0
N404 N 0.36416 0.10056 0.70286 0.0
N405 N 0.35193 0.11234 0.74242 0.0
C406 C 0.36508 0.15857 0.7309 0.0
C407 C 0.37114 0.1521 0.70939 0.0
C408 C 0.15847 0.5931 0.09798 0.0
C409 C 0.11742 0.61509 0.10794 0.0
C410 C 0.14079 0.53503 0.09741 0.0
C411 C 0.08171 0.4972 0.10693 0.0
H412 H 0.20362 0.62091 0.09027 0.0
H413 H 0.17313 0.51954 0.08929 0.0
S414 S 0.96248 0.53534 0.13722 0.0
N415 N 1.01844 0.59557 0.12875 0.0
N416 N 0.98592 0.48703 0.12813 0.0
C417 C 1.04155 0.51919 0.11744 0.0
C418 C 0.05931 0.57801 0.11786 0.0
C419 C 0.60381 0.10734 0.42461 0.0
C420 C 0.64266 0.07491 0.4246 0.0
C421 C 0.53231 0.08245 0.42296 0.0
C422 C 0.49633 1.02395 0.42138 0.0
H423 H 0.62866 0.15254 0.42622 0.0
H424 H 0.50507 0.10931 0.42354 0.0
S425 S 0.57349 0.92 0.41909 0.0
N426 N 0.63934 0.98106 0.42171 0.0
N427 N 0.50547 0.93426 0.41866 0.0
C428 C 0.53457 0.99105 0.42069 0.0
C429 C 0.60745 1.01647 0.42227 0.0
C430 C 0.49571 0.54779 0.78489 0.0
C431 C 0.48671 0.49393 0.77828 0.0
C432 C 0.56013 0.59273 0.78484 0.0
C433 C 0.61789 0.58553 0.77803 0.0
H434 H 0.45285 0.55496 0.79048 0.0
H435 H 0.56442 0.63355 0.78991 0.0
S436 S 0.62069 0.45335 0.75815 0.0
N437 N 0.54028 0.43653 0.76374 0.0
N438 N 0.66139 0.52048 0.76422 0.0
C439 C 0.60926 0.53203 0.7711 0.0
C440 C 0.54376 0.48637 0.7711 0.0
C441 C 0.55399 0.08189 0.62726 0.0
C442 C 0.48345 0.04787 0.62736 0.0
C443 C 0.60235 0.05866 0.62782 0.0
C444 C 0.58224 1.00038 0.6283 0.0
H445 H 0.57234 0.12707 0.62649 0.0
H446 H 0.65581 0.08662 0.62727 0.0
S447 S 0.40414 0.89275 0.63025 0.0
N448 N 0.39622 0.9529 0.6291 0.0
N449 N 0.48679 0.90903 0.63008 0.0
C450 C 0.51193 0.96584 0.62904 0.0
C451 C 0.46266 0.9896 0.62861 0.0
C452 C 0.59894 0.50786 0.96219 0.0
C453 C 0.5292 0.4827 0.9664 0.0
C454 C 0.63481 0.56634 0.96249 0.0
C455 C 0.60247 0.60227 0.96704 0.0
H456 H 0.62586 0.48211 0.95839 0.0
H457 H 0.68865 0.58334 0.9594 0.0
S458 S 0.42105 0.5575 0.98018 0.0
N459 N 0.42977 0.49829 0.9764 0.0
N460 N 0.49656 0.60805 0.9761 0.0
C461 C 0.53285 0.57763 0.9715 0.0
C462 C 0.49637 0.51799 0.97134 0.0
C463 C 0.87139 0.52751 0.2492 0.0
C464 C 0.86399 0.54173 0.26954 0.0
C465 C 0.87402 0.47602 0.24424 0.0
C466 C 0.87045 0.43697 0.25944 0.0
H467 H 0.87465 0.5563 0.23701 0.0
H468 H 0.88007 0.46711 0.22839 0.0
S469 S 0.85249 0.4543 0.31507 0.0
N470 N 0.85459 0.51283 0.30504 0.0
N471 N 0.85877 0.41609 0.29568 0.0
C472 C 0.86337 0.45077 0.27984 0.0
C473 C 0.8602 0.50302 0.28488 0.0
C474 C 0.04854 0.05845 0.11805 0.0
C475 C 0.06167 0.09635 0.10187 0.0
C476 C 0.06694 1.01289 0.11702 0.0
C477 C 0.09893 1.0032 0.09974 0.0
H478 H 1.02542 0.06487 0.13183 0.0
H479 H 0.05679 0.98538 0.13 0.0
S480 S 0.13909 0.08785 0.05253 0.0
N481 N 0.10555 0.12008 0.0677 0.0
N482 N 0.13905 1.03377 0.06551 0.0
C483 C 0.11129 0.04034 0.08328 0.0
C484 C 0.09286 0.087 0.08441 0.0
C485 C 1.0035 1.02362 0.42435 0.0
C486 C 1.02443 0.08184 0.42269 0.0
C487 C 0.05066 0.99918 0.42359 0.0
C488 C 0.12084 1.03179 0.42104 0.0
H489 H 0.95055 0.99675 0.42686 0.0
H490 H 1.03175 0.95423 0.4254 0.0
S491 S 0.20126 0.18576 0.41396 0.0
N492 N 0.11979 0.17127 0.41691 0.0
N493 N 0.20801 0.12521 0.41553 0.0
C494 C 0.1421 0.08982 0.41854 0.0
C495 C 0.09408 0.11482 0.41936 0.0
C496 C 1.02131 0.07804 0.77679 0.0
C497 C 0.09255 0.09892 0.77895 0.0
C498 C 0.98059 1.02027 0.77765 0.0
C499 C 1.00981 0.98126 0.78031 0.0
H500 H 0.99703 0.10669 0.77454 0.0
H501 H 0.92593 1.0059 0.77578 0.0
S502 S 0.19388 1.0141 0.78618 0.0
N503 N 0.19056 0.07572 0.7835 0.0
N504 N 0.11402 0.96751 0.78515 0.0
C505 C 0.0809 1.00155 0.78239 0.0
C506 C 0.12227 0.06028 0.78173 0.0
C507 C 1.00354 0.97685 0.63383 0.0
C508 C 0.96542 1.00983 0.63366 0.0
C509 C 0.07483 1.00106 0.63278 0.0
C510 C 0.11138 0.05941 0.63147 0.0
H511 H 0.97815 0.93158 0.63439 0.0
H512 H 0.10125 0.97356 0.63256 0.0
S513 S 1.03659 0.16515 0.63189 0.0
N514 N 0.97022 0.10435 0.6331 0.0
N515 N 0.10391 0.15004 0.6312 0.0
C516 C 0.07413 0.09315 0.63196 0.0
C517 C 1.00138 0.06838 0.63305 0.0
C518 C 1.02502 0.04333 0.9756 0.0
C519 C 1.01494 0.98809 0.97058 0.0
C520 C 0.08963 0.0877 0.97464 0.0
C521 C 0.1471 0.07861 0.96881 0.0
H522 H 0.98236 0.05236 0.98013 0.0
H523 H 0.0947 0.12948 0.97867 0.0
S524 S 0.14897 0.9414 0.95505 0.0
N525 N 0.06876 0.92639 0.96039 0.0
N526 N 0.18973 1.00994 0.9582 0.0
C527 C 0.138 1.02347 0.96403 0.0
C528 C 0.07208 0.97823 0.96495 0.0
C529 C 0.91496 0.9759 0.26122 0.0
C530 C 0.86007 0.93444 0.27126 0.0
C531 C 0.91709 1.02975 0.25788 0.0
C532 C 0.86406 0.04402 0.2642 0.0
H533 H 0.95578 0.96633 0.25539 0.0
H534 H 0.95946 0.05997 0.24976 0.0
S535 S 0.71368 0.95444 0.29344 0.0
N536 N 0.75508 0.91436 0.28939 0.0
N537 N 0.75834 1.01466 0.2824 0.0
C538 C 0.8101 1.00391 0.27475 0.0
C539 C 0.80829 0.94941 0.27845 0.0
loop_
_geom_bond_atom_site_label_1
_geom_bond_atom_site_label_2
_geom_bond_distance
_geom_bond_site_symmetry_2
_ccdc_geom_bond_type
Cu0 N1 1.999 . S
Cu0 O6 1.974 . S
Cu0 N11 1.985 . S
Cu0 O20 1.959 . S
N1 Cu0 1.999 . S
N1 C3 1.263 . S
N1 C5 1.389 . S
N2 C3 1.358 . S
N2 C4 1.400 . S
C3 N1 1.263 . S
C3 N2 1.358 . S
C3 H9 0.930 1_655 S
C4 N2 1.400 . S
C4 C5 1.351 . S
C4 H21 0.930 . S
C5 N1 1.389 . S
C5 C4 1.351 . S
C5 H10 0.930 . S
O6 Cu0 1.974 . S
O6 C16 1.282 1_655 S
C7 O8 1.261 1_655 S
C7 O20 1.251 . S
O8 C7 1.261 1_455 S
H9 C3 0.930 1_455 S
H10 C5 0.930 . S
N11 Cu0 1.985 . S
N11 C13 1.335 . S
N11 C14 1.390 1_655 S
N12 C13 1.345 . S
N12 C15 1.336 1_655 S
C13 N11 1.335 . S
C13 N12 1.345 . S
C13 H18 0.930 . S
C14 N11 1.390 1_455 S
C14 C15 1.346 . S
C14 H19 0.930 . S
C15 N12 1.336 1_455 S
C15 C14 1.346 . S
C15 H22 0.929 . S
C16 O6 1.282 1_455 S
C16 O17 1.216 . S
O17 C16 1.216 . S
H18 C13 0.930 . S
H19 C14 0.930 . S
O20 Cu0 1.959 . S
O20 C7 1.251 . S
H21 C4 0.930 . S
H22 C15 0.929 . S
Cu23 N24 1.999 . S
Cu23 O29 1.974 . S
Cu23 N34 1.985 . S
Cu23 O43 1.959 . S
N24 Cu23 1.999 . S
N24 C26 1.263 . S
N24 C28 1.389 . S
N25 C26 1.358 . S
N25 C27 1.400 . S
C26 N24 1.263 . S
C26 N25 1.358 . S
C26 H32 0.932 . S
C27 N25 1.400 . S
C27 C28 1.351 . S
C27 H44 0.930 . S
C28 N24 1.389 . S
C28 C27 1.351 . S
C28 H33 0.930 . S
O29 Cu23 1.974 . S
O29 C39 1.282 . S
C30 O31 1.261 1_545 S
C30 O43 1.251 . S
O31 C30 1.261 1_565 S
H32 C26 0.932 . S
H33 C28 0.930 . S
N34 Cu23 1.985 . S
N34 C36 1.335 . S
N34 C37 1.390 . S
N35 C36 1.345 . S
N35 C38 1.336 . S
C36 N34 1.335 . S
C36 N35 1.345 . S
C36 H41 0.930 . S
C37 N34 1.390 . S
C37 C38 1.346 . S
C37 H42 0.930 . S
C38 N35 1.336 . S
C38 C37 1.346 . S
C38 H45 0.929 . S
C39 O29 1.282 . S
C39 O40 1.216 1_545 S
O40 C39 1.216 1_565 S
H41 C36 0.930 . S
H42 C37 0.930 . S
O43 Cu23 1.959 . S
O43 C30 1.251 . S
H44 C27 0.930 . S
H45 C38 0.929 . S
Cu46 N47 1.999 . S
Cu46 O52 1.974 . S
Cu46 N57 1.985 . S
Cu46 O66 1.959 . S
N47 Cu46 1.999 . S
N47 C49 1.263 . S
N47 C51 1.389 . S
N48 C49 1.358 . S
N48 C50 1.400 . S
C49 N47 1.263 . S
C49 N48 1.358 . S
C49 H55 0.930 . S
C50 N48 1.400 . S
C50 C51 1.351 . S
C50 H67 0.930 . S
C51 N47 1.389 . S
C51 C50 1.351 . S
C51 H56 0.930 . S
O52 Cu46 1.974 . S
O52 C62 1.282 . S
C53 O54 1.261 . S
C53 O66 1.251 . S
O54 C53 1.261 . S
H55 C49 0.930 . S
H56 C51 0.930 . S
N57 Cu46 1.985 . S
N57 C59 1.335 . S
N57 C60 1.390 . S
N58 C59 1.345 . S
N58 C61 1.336 . S
C59 N57 1.335 . S
C59 N58 1.345 . S
C59 H64 0.930 . S
C60 N57 1.390 . S
C60 C61 1.346 . S
C60 H65 0.930 . S
C61 N58 1.336 . S
C61 C60 1.346 . S
C61 H68 0.929 . S
C62 O52 1.282 . S
C62 O63 1.216 . S
O63 C62 1.216 . S
H64 C59 0.930 . S
H65 C60 0.930 . S
O66 Cu46 1.959 . S
O66 C53 1.251 . S
H67 C50 0.930 . S
H68 C61 0.929 . S
Cu69 N70 1.999 . S
Cu69 O75 1.974 . S
Cu69 N80 1.985 . S
Cu69 O89 1.959 . S
N70 Cu69 1.999 . S
N70 C72 1.263 . S
N70 C74 1.389 . S
N71 C72 1.358 . S
N71 C73 1.400 . S
C72 N70 1.263 . S
C72 N71 1.358 . S
C72 H78 0.930 1_455 S
C73 N71 1.400 . S
C73 C74 1.351 . S
C73 H90 0.930 . S
C74 N70 1.389 . S
C74 C73 1.351 . S
C74 H79 0.930 . S
O75 Cu69 1.974 . S
O75 C85 1.282 1_455 S
C76 O77 1.261 1_455 S
C76 O89 1.251 . S
O77 C76 1.261 1_655 S
H78 C72 0.930 1_655 S
H79 C74 0.930 . S
N80 Cu69 1.985 . S
N80 C82 1.335 . S
N80 C83 1.390 1_455 S
N81 C82 1.345 . S
N81 C84 1.336 1_455 S
C82 N80 1.335 . S
C82 N81 1.345 . S
C82 H87 0.930 . S
C83 N80 1.390 1_655 S
C83 C84 1.346 . S
C83 H88 0.930 . S
C84 N81 1.336 1_655 S
C84 C83 1.346 . S
C84 H91 0.929 . S
C85 O75 1.282 1_655 S
C85 O86 1.216 . S
O86 C85 1.216 . S
H87 C82 0.930 . S
H88 C83 0.930 . S
O89 Cu69 1.959 . S
O89 C76 1.251 . S
H90 C73 0.930 . S
H91 C84 0.929 . S
Cu92 N93 1.999 . S
Cu92 O98 1.974 . S
Cu92 N103 1.985 . S
Cu92 O112 1.959 . S
N93 Cu92 1.999 . S
N93 C95 1.263 . S
N93 C97 1.389 . S
N94 C95 1.358 . S
N94 C96 1.400 . S
C95 N93 1.263 . S
C95 N94 1.358 . S
C95 H101 0.932 . S
C96 N94 1.400 . S
C96 C97 1.351 . S
C96 H113 0.930 . S
C97 N93 1.389 . S
C97 C96 1.351 . S
C97 H102 0.930 . S
O98 Cu92 1.974 . S
O98 C108 1.282 . S
C99 O100 1.261 1_565 S
C99 O112 1.251 . S
O100 C99 1.261 1_545 S
H101 C95 0.932 . S
H102 C97 0.930 . S
N103 Cu92 1.985 . S
N103 C105 1.335 . S
N103 C106 1.390 . S
N104 C105 1.345 . S
N104 C107 1.336 . S
C105 N103 1.335 . S
C105 N104 1.345 . S
C105 H110 0.930 . S
C106 N103 1.390 . S
C106 C107 1.346 . S
C106 H111 0.930 . S
C107 N104 1.336 . S
C107 C106 1.346 . S
C107 H114 0.929 . S
C108 O98 1.282 . S
C108 O109 1.216 1_565 S
O109 C108 1.216 1_545 S
H110 C105 0.930 . S
H111 C106 0.930 . S
O112 Cu92 1.959 . S
O112 C99 1.251 . S
H113 C96 0.930 . S
H114 C107 0.929 . S
Cu115 N116 1.999 . S
Cu115 O121 1.974 . S
Cu115 N126 1.985 . S
Cu115 O135 1.959 . S
N116 Cu115 1.999 . S
N116 C118 1.263 . S
N116 C120 1.389 . S
N117 C118 1.358 . S
N117 C119 1.400 . S
C118 N116 1.263 . S
C118 N117 1.358 . S
C118 H124 0.930 . S
C119 N117 1.400 . S
C119 C120 1.351 . S
C119 H136 0.930 . S
C120 N116 1.389 . S
C120 C119 1.351 . S
C120 H125 0.930 . S
O121 Cu115 1.974 . S
O121 C131 1.282 . S
C122 O123 1.261 . S
C122 O135 1.251 . S
O123 C122 1.261 . S
H124 C118 0.930 . S
H125 C120 0.930 . S
N126 Cu115 1.985 . S
N126 C128 1.335 . S
N126 C129 1.390 . S
N127 C128 1.345 . S
N127 C130 1.336 . S
C128 N126 1.335 . S
C128 N127 1.345 . S
C128 H133 0.930 . S
C129 N126 1.390 . S
C129 C130 1.346 . S
C129 H134 0.930 . S
C130 N127 1.336 . S
C130 C129 1.346 . S
C130 H137 0.929 . S
C131 O121 1.282 . S
C131 O132 1.216 . S
O132 C131 1.216 . S
H133 C128 0.930 . S
H134 C129 0.930 . S
O135 Cu115 1.959 . S
O135 C122 1.251 . S
H136 C119 0.930 . S
H137 C130 0.929 . S
Cu138 N139 1.999 . S
Cu138 O144 1.974 . S
Cu138 N149 1.985 . S
Cu138 O158 1.959 . S
N139 Cu138 1.999 . S
N139 C141 1.263 . S
N139 C143 1.389 . S
N140 C141 1.358 . S
N140 C142 1.400 . S
C141 N139 1.263 . S
C141 N140 1.358 . S
C141 H147 0.942 . S
C142 N140 1.400 . S
C142 C143 1.351 . S
C142 H159 0.930 . S
C143 N139 1.389 . S
C143 C142 1.351 . S
C143 H148 0.930 . S
O144 Cu138 1.974 . S
O144 C154 1.282 . S
C145 O146 1.261 1_565 S
C145 O158 1.251 . S
O146 C145 1.261 1_545 S
H147 C141 0.942 . S
H148 C143 0.930 . S
N149 Cu138 1.985 . S
N149 C151 1.335 . S
N149 C152 1.390 . S
N150 C151 1.345 . S
N150 C153 1.336 . S
C151 N149 1.335 . S
C151 N150 1.345 . S
C151 H156 0.930 . S
C152 N149 1.390 . S
C152 C153 1.346 . S
C152 H157 0.930 . S
C153 N150 1.336 . S
C153 C152 1.346 . S
C153 H160 0.929 . S
C154 O144 1.282 . S
C154 O155 1.216 1_565 S
O155 C154 1.216 1_545 S
H156 C151 0.930 . S
H157 C152 0.930 . S
O158 Cu138 1.959 . S
O158 C145 1.251 . S
H159 C142 0.930 . S
H160 C153 0.929 . S
Cu161 N162 1.999 . S
Cu161 O167 1.974 . S
Cu161 N172 1.985 . S
Cu161 O181 1.959 . S
N162 Cu161 1.999 . S
N162 C164 1.263 . S
N162 C166 1.389 . S
N163 C164 1.358 . S
N163 C165 1.400 . S
C164 N162 1.263 . S
C164 N163 1.358 . S
C164 H170 0.930 . S
C165 N163 1.400 . S
C165 C166 1.351 . S
C165 H182 0.930 . S
C166 N162 1.389 . S
C166 C165 1.351 . S
C166 H171 0.930 . S
O167 Cu161 1.974 . S
O167 C177 1.282 . S
C168 O169 1.261 . S
C168 O181 1.251 . S
O169 C168 1.261 . S
H170 C164 0.930 . S
H171 C166 0.930 . S
N172 Cu161 1.985 . S
N172 C174 1.335 . S
N172 C175 1.390 . S
N173 C174 1.345 . S
N173 C176 1.336 . S
C174 N172 1.335 . S
C174 N173 1.345 . S
C174 H179 0.930 . S
C175 N172 1.390 . S
C175 C176 1.346 . S
C175 H180 0.930 . S
C176 N173 1.336 . S
C176 C175 1.346 . S
C176 H183 0.929 . S
C177 O167 1.282 . S
C177 O178 1.216 . S
O178 C177 1.216 . S
H179 C174 0.930 . S
H180 C175 0.930 . S
O181 Cu161 1.959 . S
O181 C168 1.251 . S
H182 C165 0.930 . S
H183 C176 0.929 . S
Cu184 N185 1.999 . S
Cu184 O190 1.974 1_655 S
Cu184 N195 1.985 1_655 S
Cu184 O204 1.959 . S
N185 Cu184 1.999 . S
N185 C187 1.263 1_655 S
N185 C189 1.389 . S
N186 C187 1.358 1_655 S
N186 C188 1.400 . S
C187 N185 1.263 1_455 S
C187 N186 1.358 1_455 S
C187 H193 0.930 . S
C188 N186 1.400 . S
C188 C189 1.351 . S
C188 H205 0.930 . S
C189 N185 1.389 . S
C189 C188 1.351 . S
C189 H194 0.930 . S
O190 Cu184 1.974 1_455 S
O190 C200 1.282 . S
C191 O192 1.261 . S
C191 O204 1.251 1_455 S
O192 C191 1.261 . S
H193 C187 0.930 . S
H194 C189 0.930 . S
N195 Cu184 1.985 1_455 S
N195 C197 1.335 1_455 S
N195 C198 1.390 . S
N196 C197 1.345 1_455 S
N196 C199 1.336 . S
C197 N195 1.335 1_655 S
C197 N196 1.345 1_655 S
C197 H202 0.930 . S
C198 N195 1.390 . S
C198 C199 1.346 . S
C198 H203 0.930 . S
C199 N196 1.336 . S
C199 C198 1.346 . S
C199 H206 0.929 . S
C200 O190 1.282 . S
C200 O201 1.216 . S
O201 C200 1.216 . S
H202 C197 0.930 . S
H203 C198 0.930 . S
O204 Cu184 1.959 . S
O204 C191 1.251 1_655 S
H205 C188 0.930 . S
H206 C199 0.929 . S
Cu207 N208 1.999 . S
Cu207 O213 1.974 . S
Cu207 N218 1.985 . S
Cu207 O227 1.959 . S
N208 Cu207 1.999 . S
N208 C210 1.263 . S
N208 C212 1.389 . S
N209 C210 1.358 . S
N209 C211 1.400 . S
C210 N208 1.263 . S
C210 N209 1.358 . S
C210 H216 0.941 . S
C211 N209 1.400 . S
C211 C212 1.351 . S
C211 H228 0.930 . S
C212 N208 1.389 . S
C212 C211 1.351 . S
C212 H217 0.930 . S
O213 Cu207 1.974 . S
O213 C223 1.282 . S
C214 O215 1.261 1_545 S
C214 O227 1.251 . S
O215 C214 1.261 1_565 S
H216 C210 0.941 . S
H217 C212 0.930 . S
N218 Cu207 1.985 . S
N218 C220 1.335 . S
N218 C221 1.390 . S
N219 C220 1.345 . S
N219 C222 1.336 . S
C220 N218 1.335 . S
C220 N219 1.345 . S
C220 H225 0.930 . S
C221 N218 1.390 . S
C221 C222 1.346 . S
C221 H226 0.930 . S
C222 N219 1.336 . S
C222 C221 1.346 . S
C222 H229 0.929 . S
C223 O213 1.282 . S
C223 O224 1.216 1_545 S
O224 C223 1.216 1_565 S
H225 C220 0.930 . S
H226 C221 0.930 . S
O227 Cu207 1.959 . S
O227 C214 1.251 . S
H228 C211 0.930 . S
H229 C222 0.929 . S
Cu230 N231 1.999 . S
Cu230 O236 1.974 . S
Cu230 N241 1.985 . S
Cu230 O250 1.959 . S
N231 Cu230 1.999 . S
N231 C233 1.263 . S
N231 C235 1.389 . S
N232 C233 1.358 . S
N232 C234 1.400 . S
C233 N231 1.263 . S
C233 N232 1.358 . S
C233 H239 0.930 . S
C234 N232 1.400 . S
C234 C235 1.351 . S
C234 H251 0.930 . S
C235 N231 1.389 . S
C235 C234 1.351 . S
C235 H240 0.930 . S
O236 Cu230 1.974 . S
O236 C246 1.282 . S
C237 O238 1.261 . S
C237 O250 1.251 . S
O238 C237 1.261 . S
H239 C233 0.930 . S
H240 C235 0.930 . S
N241 Cu230 1.985 . S
N241 C243 1.335 . S
N241 C244 1.390 . S
N242 C243 1.345 . S
N242 C245 1.336 . S
C243 N241 1.335 . S
C243 N242 1.345 . S
C243 H248 0.930 . S
C244 N241 1.390 . S
C244 C245 1.346 . S
C244 H249 0.930 . S
C245 N242 1.336 . S
C245 C244 1.346 . S
C245 H252 0.929 . S
C246 O236 1.282 . S
C246 O247 1.216 . S
O247 C246 1.216 . S
H248 C243 0.930 . S
H249 C244 0.930 . S
O250 Cu230 1.959 . S
O250 C237 1.251 . S
H251 C234 0.930 . S
H252 C245 0.929 . S
Cu253 N254 1.999 . S
Cu253 O259 1.974 1_455 S
Cu253 N264 1.985 1_455 S
Cu253 O273 1.959 . S
N254 Cu253 1.999 . S
N254 C256 1.263 1_455 S
N254 C258 1.389 . S
N255 C256 1.358 1_455 S
N255 C257 1.400 . S
C256 N254 1.263 1_655 S
C256 N255 1.358 1_655 S
C256 H262 0.930 . S
C257 N255 1.400 . S
C257 C258 1.351 . S
C257 H274 0.930 . S
C258 N254 1.389 . S
C258 C257 1.351 . S
C258 H263 0.930 . S
O259 Cu253 1.974 1_655 S
O259 C269 1.282 . S
C260 O261 1.261 . S
C260 O273 1.251 1_655 S
O261 C260 1.261 . S
H262 C256 0.930 . S
H263 C258 0.930 . S
N264 Cu253 1.985 1_655 S
N264 C266 1.335 1_655 S
N264 C267 1.390 . S
N265 C266 1.345 1_655 S
N265 C268 1.336 . S
C266 N264 1.335 1_455 S
C266 N265 1.345 1_455 S
C266 H271 0.930 . S
C267 N264 1.390 . S
C267 C268 1.346 . S
C267 H272 0.930 . S
C268 N265 1.336 . S
C268 C267 1.346 . S
C268 H275 0.929 . S
C269 O259 1.282 . S
C269 O270 1.216 . S
O270 C269 1.216 . S
H271 C266 0.930 . S
H272 C267 0.930 . S
O273 Cu253 1.959 . S
O273 C260 1.251 1_455 S
H274 C257 0.930 . S
H275 C268 0.929 . S
C276 C277 1.369 . S
C276 C278 1.419 . S
C276 H280 0.930 . S
C277 C276 1.369 . S
C277 C286 1.429 1_655 S
C278 C276 1.419 . S
C278 C279 1.363 . S
C278 H281 0.929 . S
C279 C278 1.363 . S
C279 C285 1.428 1_655 S
H280 C276 0.930 . S
H281 C278 0.929 . S
S282 N283 1.613 . S
S282 N284 1.610 . S
N283 S282 1.613 . S
N283 C286 1.350 . S
N284 S282 1.610 . S
N284 C285 1.351 . S
C285 C279 1.428 1_455 S
C285 N284 1.351 . S
C285 C286 1.434 . S
C286 C277 1.429 1_455 S
C286 N283 1.350 . S
C286 C285 1.434 . S
C287 C288 1.369 1_565 S
C287 C289 1.419 . S
C287 H291 0.930 . S
C288 C287 1.369 1_545 S
C288 C297 1.429 . S
C289 C287 1.419 . S
C289 C290 1.369 . S
C289 H292 0.929 . S
C290 C289 1.369 . S
C290 C296 1.423 1_565 S
H291 C287 0.930 . S
H292 C289 0.929 . S
S293 N294 1.613 . S
S293 N295 1.610 . S
N294 S293 1.613 . S
N294 C297 1.350 . S
N295 S293 1.610 . S
N295 C296 1.351 . S
C296 C290 1.423 1_545 S
C296 N295 1.351 . S
C296 C297 1.434 . S
C297 C288 1.429 . S
C297 N294 1.350 . S
C297 C296 1.434 . S
C298 C299 1.369 . S
C298 C300 1.419 . S
C298 H302 0.930 . S
C299 C298 1.369 . S
C299 C308 1.429 . S
C300 C298 1.419 . S
C300 C301 1.363 . S
C300 H303 0.929 . S
C301 C300 1.363 . S
C301 C307 1.428 . S
H302 C298 0.930 . S
H303 C300 0.929 . S
S304 N305 1.613 . S
S304 N306 1.610 . S
N305 S304 1.613 . S
N305 C308 1.350 . S
N306 S304 1.610 . S
N306 C307 1.351 . S
C307 C301 1.428 . S
C307 N306 1.351 . S
C307 C308 1.434 . S
C308 C299 1.429 . S
C308 N305 1.350 . S
C308 C307 1.434 . S
C309 C310 1.369 . S
C309 C311 1.419 1_455 S
C309 H313 0.930 1_455 S
C310 C309 1.369 . S
C310 C319 1.429 . S
C311 C309 1.419 1_655 S
C311 C312 1.363 1_655 S
C311 H314 0.929 . S
C312 C311 1.363 1_455 S
C312 C318 1.428 . S
H313 C309 0.930 1_655 S
H314 C311 0.929 . S
S315 N316 1.613 . S
S315 N317 1.610 . S
N316 S315 1.613 . S
N316 C319 1.350 . S
N317 S315 1.610 . S
N317 C318 1.351 . S
C318 C312 1.428 . S
C318 N317 1.351 . S
C318 C319 1.434 . S
C319 C310 1.429 . S
C319 N316 1.350 . S
C319 C318 1.434 . S
C320 C321 1.369 . S
C320 C322 1.419 . S
C320 H324 0.930 . S
C321 C320 1.369 . S
C321 C330 1.428 1_545 S
C322 C320 1.419 . S
C322 C323 1.363 1_545 S
C322 H325 0.929 . S
C323 C322 1.363 1_565 S
C323 C329 1.428 . S
H324 C320 0.930 . S
H325 C322 0.929 . S
S326 N327 1.613 . S
S326 N328 1.610 . S
N327 S326 1.613 . S
N327 C330 1.350 . S
N328 S326 1.610 . S
N328 C329 1.351 . S
C329 C323 1.428 . S
C329 N328 1.351 . S
C329 C330 1.434 . S
C330 C321 1.428 1_565 S
C330 N327 1.350 . S
C330 C329 1.434 . S
C331 C332 1.369 . S
C331 C333 1.419 . S
C331 H335 0.930 . S
C332 C331 1.369 . S
C332 C341 1.429 . S
C333 C331 1.419 . S
C333 C334 1.363 . S
C333 H336 0.929 . S
C334 C333 1.363 . S
C334 C340 1.428 . S
H335 C331 0.930 . S
H336 C333 0.929 . S
S337 N338 1.613 . S
S337 N339 1.610 . S
N338 S337 1.613 . S
N338 C341 1.350 . S
N339 S337 1.610 . S
N339 C340 1.351 . S
C340 C334 1.428 . S
C340 N339 1.351 . S
C340 C341 1.434 . S
C341 C332 1.429 . S
C341 N338 1.350 . S
C341 C340 1.434 . S
C342 C343 1.369 . S
C342 C344 1.419 1_554 S
C342 H346 0.930 . S
C343 C342 1.369 . S
C343 C352 1.429 . S
C344 C342 1.419 1_556 S
C344 C345 1.363 . S
C344 H347 0.929 . S
C345 C344 1.363 . S
C345 C351 1.428 . S
H346 C342 0.930 . S
H347 C344 0.929 . S
S348 N349 1.613 1_556 S
S348 N350 1.610 . S
N349 S348 1.613 1_554 S
N349 C352 1.350 . S
N350 S348 1.610 . S
N350 C351 1.351 . S
C351 C345 1.428 . S
C351 N350 1.351 . S
C351 C352 1.434 1_556 S
C352 C343 1.429 . S
C352 N349 1.350 . S
C352 C351 1.434 1_554 S
C353 C354 1.369 . S
C353 C355 1.419 . S
C353 H357 0.930 . S
C354 C353 1.369 . S
C354 C363 1.429 . S
C355 C353 1.419 . S
C355 C356 1.363 . S
C355 H358 0.929 . S
C356 C355 1.363 . S
C356 C362 1.428 . S
H357 C353 0.930 . S
H358 C355 0.929 . S
S359 N360 1.613 . S
S359 N361 1.610 . S
N360 S359 1.613 . S
N360 C363 1.350 . S
N361 S359 1.610 . S
N361 C362 1.351 . S
C362 C356 1.428 . S
C362 N361 1.351 . S
C362 C363 1.434 . S
C363 C354 1.429 . S
C363 N360 1.350 . S
C363 C362 1.434 . S
C364 C365 1.369 . S
C364 C366 1.419 . S
C364 H368 0.930 . S
C365 C364 1.369 . S
C365 C374 1.429 . S
C366 C364 1.419 . S
C366 C367 1.363 . S
C366 H369 0.929 . S
C367 C366 1.363 . S
C367 C373 1.428 . S
H368 C364 0.930 . S
H369 C366 0.929 . S
S370 N371 1.613 . S
S370 N372 1.610 . S
N371 S370 1.613 . S
N371 C374 1.350 . S
N372 S370 1.610 . S
N372 C373 1.351 . S
C373 C367 1.428 . S
C373 N372 1.351 . S
C373 C374 1.434 . S
C374 C365 1.429 . S
C374 N371 1.350 . S
C374 C373 1.434 . S
C375 C376 1.369 1_556 S
C375 C377 1.419 . S
C375 H379 0.930 . S
C376 C375 1.369 1_554 S
C376 C385 1.429 . S
C377 C375 1.419 . S
C377 C378 1.363 . S
C377 H380 0.929 . S
C378 C377 1.363 . S
C378 C384 1.428 1_556 S
H379 C375 0.930 . S
H380 C377 0.929 . S
S381 N382 1.613 . S
S381 N383 1.610 . S
N382 S381 1.613 . S
N382 C385 1.350 . S
N383 S381 1.610 . S
N383 C384 1.351 . S
C384 C378 1.428 1_554 S
C384 N383 1.351 . S
C384 C385 1.434 . S
C385 C376 1.429 . S
C385 N382 1.350 . S
C385 C384 1.434 . S
C386 C387 1.369 . S
C386 C388 1.419 . S
C386 H390 0.930 . S
C387 C386 1.369 . S
C387 C396 1.429 . S
C388 C386 1.419 . S
C388 C389 1.363 . S
C388 H391 0.929 . S
C389 C388 1.363 . S
C389 C395 1.428 . S
H390 C386 0.930 . S
H391 C388 0.929 . S
S392 N393 1.613 . S
S392 N394 1.610 . S
N393 S392 1.613 . S
N393 C396 1.350 . S
N394 S392 1.610 . S
N394 C395 1.351 . S
C395 C389 1.428 . S
C395 N394 1.351 . S
C395 C396 1.434 . S
C396 C387 1.429 . S
C396 N393 1.350 . S
C396 C395 1.434 . S
C397 C398 1.369 . S
C397 C399 1.419 . S
C397 H401 0.930 . S
C398 C397 1.369 . S
C398 C407 1.429 . S
C399 C397 1.419 . S
C399 C400 1.363 . S
C399 H402 0.929 . S
C400 C399 1.363 . S
C400 C406 1.428 . S
H401 C397 0.930 . S
H402 C399 0.929 . S
S403 N404 1.613 . S
S403 N405 1.610 . S
N404 S403 1.613 . S
N404 C407 1.350 . S
N405 S403 1.610 . S
N405 C406 1.351 . S
C406 C400 1.428 . S
C406 N405 1.351 . S
C406 C407 1.434 . S
C407 C398 1.429 . S
C407 N404 1.350 . S
C407 C406 1.434 . S
C408 C409 1.369 . S
C408 C410 1.419 . S
C408 H412 0.930 . S
C409 C408 1.369 . S
C409 C418 1.429 1_455 S
C410 C408 1.419 . S
C410 C411 1.363 1_455 S
C410 H413 0.929 . S
C411 C410 1.363 1_655 S
C411 C417 1.428 . S
H412 C408 0.930 . S
H413 C410 0.929 . S
S414 N415 1.613 . S
S414 N416 1.610 . S
N415 S414 1.613 . S
N415 C418 1.350 . S
N416 S414 1.610 . S
N416 C417 1.351 . S
C417 C411 1.428 . S
C417 N416 1.351 . S
C417 C418 1.434 . S
C418 C409 1.429 1_655 S
C418 N415 1.350 . S
C418 C417 1.434 . S
C419 C420 1.369 . S
C419 C421 1.419 1_545 S
C419 H423 0.930 . S
C420 C419 1.369 . S
C420 C429 1.429 . S
C421 C419 1.419 1_565 S
C421 C422 1.363 . S
C421 H424 0.929 . S
C422 C421 1.363 . S
C422 C428 1.428 . S
H423 C419 0.930 . S
H424 C421 0.929 . S
S425 N426 1.613 . S
S425 N427 1.610 1_545 S
N426 S425 1.613 . S
N426 C429 1.350 . S
N427 S425 1.610 1_565 S
N427 C428 1.351 . S
C428 C422 1.428 . S
C428 N427 1.351 . S
C428 C429 1.434 1_565 S
C429 C420 1.429 . S
C429 N426 1.350 . S
C429 C428 1.434 1_545 S
C430 C431 1.369 . S
C430 C432 1.419 . S
C430 H434 0.930 . S
C431 C430 1.369 . S
C431 C440 1.429 . S
C432 C430 1.419 . S
C432 C433 1.363 . S
C432 H435 0.929 . S
C433 C432 1.363 . S
C433 C439 1.428 . S
H434 C430 0.930 . S
H435 C432 0.929 . S
S436 N437 1.613 . S
S436 N438 1.610 . S
N437 S436 1.613 . S
N437 C440 1.350 . S
N438 S436 1.610 . S
N438 C439 1.351 . S
C439 C433 1.428 . S
C439 N438 1.351 . S
C439 C440 1.434 . S
C440 C431 1.429 . S
C440 N437 1.350 . S
C440 C439 1.434 . S
C441 C442 1.369 1_565 S
C441 C443 1.419 . S
C441 H445 0.930 . S
C442 C441 1.369 1_545 S
C442 C451 1.429 . S
C443 C441 1.419 . S
C443 C444 1.363 . S
C443 H446 0.929 . S
C444 C443 1.363 . S
C444 C450 1.428 1_565 S
H445 C441 0.930 . S
H446 C443 0.929 . S
S447 N448 1.613 . S
S447 N449 1.610 . S
N448 S447 1.613 . S
N448 C451 1.350 . S
N449 S447 1.610 . S
N449 C450 1.351 . S
C450 C444 1.428 1_545 S
C450 N449 1.351 . S
C450 C451 1.434 . S
C451 C442 1.429 . S
C451 N448 1.350 . S
C451 C450 1.434 . S
C452 C453 1.369 . S
C452 C454 1.419 . S
C452 H456 0.930 . S
C453 C452 1.369 . S
C453 C462 1.429 . S
C454 C452 1.419 . S
C454 C455 1.363 . S
C454 H457 0.929 . S
C455 C454 1.363 . S
C455 C461 1.428 . S
H456 C452 0.930 . S
H457 C454 0.929 . S
S458 N459 1.613 . S
S458 N460 1.610 . S
N459 S458 1.613 . S
N459 C462 1.350 . S
N460 S458 1.610 . S
N460 C461 1.351 . S
C461 C455 1.428 . S
C461 N460 1.351 . S
C461 C462 1.434 . S
C462 C453 1.429 . S
C462 N459 1.350 . S
C462 C461 1.434 . S
C463 C464 1.369 . S
C463 C465 1.419 . S
C463 H467 0.930 . S
C464 C463 1.369 . S
C464 C473 1.429 1_655 S
C465 C463 1.419 . S
C465 C466 1.363 1_655 S
C465 H468 0.929 . S
C466 C465 1.363 1_455 S
C466 C472 1.428 . S
H467 C463 0.930 . S
H468 C465 0.929 . S
S469 N470 1.613 . S
S469 N471 1.610 . S
N470 S469 1.613 . S
N470 C473 1.350 . S
N471 S469 1.610 . S
N471 C472 1.351 . S
C472 C466 1.428 . S
C472 N471 1.351 . S
C472 C473 1.434 . S
C473 C464 1.429 1_455 S
C473 N470 1.350 . S
C473 C472 1.434 . S
C474 C475 1.369 . S
C474 C476 1.419 1_545 S
C474 H478 0.930 . S
C475 C474 1.369 . S
C475 C484 1.429 1_655 S
C476 C474 1.419 1_565 S
C476 C477 1.363 1_655 S
C476 H479 0.929 . S
C477 C476 1.363 1_455 S
C477 C483 1.428 . S
H478 C474 0.930 . S
H479 C476 0.929 . S
S480 N481 1.613 . S
S480 N482 1.610 1_545 S
N481 S480 1.613 . S
N481 C484 1.350 . S
N482 S480 1.610 1_565 S
N482 C483 1.351 . S
C483 C477 1.428 . S
C483 N482 1.351 . S
C483 C484 1.434 1_565 S
C484 C475 1.429 1_455 S
C484 N481 1.350 . S
C484 C483 1.434 1_545 S
C485 C486 1.369 . S
C485 C487 1.419 1_655 S
C485 H489 0.930 . S
C486 C485 1.369 . S
C486 C495 1.429 1_545 S
C487 C485 1.419 1_455 S
C487 C488 1.363 1_545 S
C487 H490 0.929 . S
C488 C487 1.363 1_565 S
C488 C494 1.428 . S
H489 C485 0.930 . S
H490 C487 0.929 . S
S491 N492 1.613 . S
S491 N493 1.610 1_655 S
N492 S491 1.613 . S
N492 C495 1.350 . S
N493 S491 1.610 1_455 S
N493 C494 1.351 . S
C494 C488 1.428 . S
C494 N493 1.351 . S
C494 C495 1.434 1_455 S
C495 C486 1.429 1_565 S
C495 N492 1.350 . S
C495 C494 1.434 1_655 S
C496 C497 1.369 . S
C496 C498 1.419 1_445 S
C496 H500 0.930 . S
C497 C496 1.369 . S
C497 C506 1.429 . S
C498 C496 1.419 1_665 S
C498 C499 1.363 . S
C498 H501 0.929 . S
C499 C498 1.363 . S
C499 C505 1.428 . S
H500 C496 0.930 . S
H501 C498 0.929 . S
S502 N503 1.613 1_565 S
S502 N504 1.610 1_455 S
N503 S502 1.613 1_545 S
N503 C506 1.350 . S
N504 S502 1.610 1_655 S
N504 C505 1.351 . S
C505 C499 1.428 . S
C505 N504 1.351 . S
C505 C506 1.434 1_665 S
C506 C497 1.429 . S
C506 N503 1.350 . S
C506 C505 1.434 1_445 S
C507 C508 1.369 1_545 S
C507 C509 1.419 1_655 S
C507 H511 0.930 . S
C508 C507 1.369 1_565 S
C508 C517 1.429 . S
C509 C507 1.419 1_455 S
C509 C510 1.363 . S
C509 H512 0.929 . S
C510 C509 1.363 . S
C510 C516 1.428 1_545 S
H511 C507 0.930 . S
H512 C509 0.929 . S
S513 N514 1.613 . S
S513 N515 1.610 1_655 S
N514 S513 1.613 . S
N514 C517 1.350 . S
N515 S513 1.610 1_455 S
N515 C516 1.351 . S
C516 C510 1.428 1_565 S
C516 N515 1.351 . S
C516 C517 1.434 1_455 S
C517 C508 1.429 . S
C517 N514 1.350 . S
C517 C516 1.434 1_655 S
C518 C519 1.369 . S
C518 C520 1.419 1_665 S
C518 H522 0.930 . S
C519 C518 1.369 . S
C519 C528 1.433 . S
C520 C518 1.419 1_445 S
C520 C521 1.363 . S
C520 H523 0.929 . S
C521 C520 1.363 . S
C521 C527 1.428 . S
H522 C518 0.930 . S
H523 C520 0.929 . S
S524 N525 1.613 . S
S524 N526 1.610 1_565 S
N525 S524 1.613 . S
N525 C528 1.348 1_455 S
N526 S524 1.610 1_545 S
N526 C527 1.351 . S
C527 C521 1.428 . S
C527 N526 1.351 . S
C527 C528 1.431 1_445 S
C528 C519 1.433 . S
C528 N525 1.348 1_655 S
C528 C527 1.431 1_665 S
C529 C530 1.369 1_455 S
C529 C531 1.419 1_565 S
C529 H533 0.930 . S
C530 C529 1.369 1_655 S
C530 C539 1.429 . S
C531 C529 1.419 1_545 S
C531 C532 1.363 . S
C531 H534 0.929 . S
C532 C531 1.363 . S
C532 C538 1.428 1_455 S
H533 C529 0.930 . S
H534 C531 0.929 . S
S535 N536 1.613 . S
S535 N537 1.610 1_565 S
N536 S535 1.613 . S
N536 C539 1.350 . S
N537 S535 1.610 1_545 S
N537 C538 1.351 . S
C538 C532 1.428 1_655 S
C538 N537 1.351 . S
C538 C539 1.434 1_545 S
C539 C530 1.429 . S
C539 N536 1.350 . S
C539 C538 1.434 1_565 S
C277 C260 1.637 . S
C279 C7 1.634 . S
C288 N25 1.516 . S
C290 N140 1.527 . S
C299 C53 1.637 . S
C301 C168 1.633 . S
C310 C76 1.635 . S
C312 C191 1.635 . S
C321 N209 1.524 . S
C323 N94 1.516 . S
C332 C122 1.633 . S
C334 C237 1.636 . S
C343 C16 1.586 . S
C345 C246 1.584 . S
C354 N35 1.582 . S
C356 C269 1.569 . S
C365 C62 1.572 . S
C367 N150 1.581 . S
C376 C85 1.579 . S
C378 C177 1.586 . S
C387 C200 1.570 . S
C389 N104 1.585 . S
C398 N219 1.586 . S
C400 C131 1.571 . S
C409 N81 1.459 . S
C411 N12 1.461 . S
C420 C39 1.522 . S
C422 C108 1.523 . S
C431 N127 1.478 . S
C433 N58 1.480 . S
C442 C223 1.524 . S
C444 C154 1.519 . S
C453 N242 1.460 . S
C455 N173 1.461 . S
C464 N196 1.477 1_655 S
C466 N265 1.480 1_455 S
C475 N2 1.484 . S
C477 N71 1.483 . S
C486 C30 1.691 . S
C488 C99 1.693 . S
C497 N117 1.416 . S
C499 N48 1.415 . S
C508 C145 1.693 . S
C510 C214 1.691 . S
C519 N163 1.483 . S
C521 N232 1.479 . S
C530 N186 1.409 . S
C532 N255 1.413 . S
