# Generated by pormake.
# Topology cab, (5)-cn, num edge types: 1
# Building blocks:
#     Node 0, Type 0, BuildingBlock: BEQFEK_clean_sbu_0, # of connection points: 5
#     Node 1, Type 0, BuildingBlock: BEQFEK_clean_sbu_0, # of connection points: 5
#     Node 2, Type 0, BuildingBlock: BEQFEK_clean_sbu_0, # of connection points: 5
#     Node 3, Type 0, BuildingBlock: BEQFEK_clean_sbu_0, # of connection points: 5
#     Node 4, Type 0, BuildingBlock: BEQFEK_clean_sbu_0, # of connection points: 5
#     Node 5, Type 0, BuildingBlock: BEQFEK_clean_sbu_0, # of connection points: 5
#     Edge 6, Type (0, 0), BuildingBlock: KIFKEQ_clean_linker_1, # of connection points: 2
#     Edge 7, Type (0, 0), BuildingBlock: KIFKEQ_clean_linker_1, # of connection points: 2
#     Edge 8, Type (0, 0), BuildingBlock: KIFKEQ_clean_linker_1, # of connection points: 2
#     Edge 9, Type (0, 0), BuildingBlock: KIFKEQ_clean_linker_1, # of connection points: 2
#     Edge 10, Type (0, 0), BuildingBlock: KIFKEQ_clean_linker_1, # of connection points: 2
#     Edge 11, Type (0, 0), BuildingBlock: KIFKEQ_clean_linker_1, # of connection points: 2
#     Edge 12, Type (0, 0), BuildingBlock: KIFKEQ_clean_linker_1, # of connection points: 2
#     Edge 13, Type (0, 0), BuildingBlock: KIFKEQ_clean_linker_1, # of connection points: 2
#     Edge 14, Type (0, 0), BuildingBlock: KIFKEQ_clean_linker_1, # of connection points: 2
#     Edge 15, Type (0, 0), BuildingBlock: KIFKEQ_clean_linker_1, # of connection points: 2
#     Edge 16, Type (0, 0), BuildingBlock: KIFKEQ_clean_linker_1, # of connection points: 2
#     Edge 17, Type (0, 0), BuildingBlock: KIFKEQ_clean_linker_1, # of connection points: 2
#     Edge 18, Type (0, 0), BuildingBlock: KIFKEQ_clean_linker_1, # of connection points: 2
#     Edge 19, Type (0, 0), BuildingBlock: KIFKEQ_clean_linker_1, # of connection points: 2
#     Edge 20, Type (0, 0), BuildingBlock: KIFKEQ_clean_linker_1, # of connection points: 2
# Relax obj value: 1.246
# Max RMSD: 0.228
# Mean RMSD: 0.211
data_MOF--net-cab--node1-BEQFEK_clean_sbu_0--edge1-KIFKEQ_clean_linker_1
_symmetry_space_group_name_H-M    P1
_symmetry_Int_Tables_number       1
_symmetry_cell_setting            triclinic
loop_
_symmetry_equiv_pos_as_xyz
'x, y, z'
_cell_length_a     31.71299
_cell_length_b     30.951016
_cell_length_c     32.472846
_cell_angle_alpha  112.51501
_cell_angle_beta   96.805011
_cell_angle_gamma 130.30024
loop_
_atom_site_label
_atom_site_type_symbol
_atom_site_fract_x
_atom_site_fract_y
_atom_site_fract_z
_atom_type_partial_charge
Co0 Co 0.396 0.53404 0.69917 0.0
Co1 Co 0.26847 0.48975 0.66248 0.0
C2 C 0.27102 0.38784 0.60723 0.0
O3 O 0.33181 0.4339 0.6355 0.0
O4 O 0.24365 0.4043 0.61547 0.0
C5 C 0.48547 0.533 0.70789 0.0
O6 O 0.43616 0.46947 0.69508 0.0
C7 C 0.16101 0.42815 0.57812 0.0
C8 C 0.09699 0.41402 0.60771 0.0
C9 C 0.10065 0.39872 0.56305 0.0
N10 N 0.19203 0.46004 0.62927 0.0
N11 N 0.15385 0.45205 0.64704 0.0
C12 C 0.18485 0.41628 0.54298 0.0
H13 H 0.23515 0.44654 0.56581 0.0
H14 H 0.18401 0.43371 0.51915 0.0
H15 H 0.15265 0.35854 0.51592 0.0
C16 C 0.43828 0.63947 0.68073 0.0
N17 N 0.39418 0.58675 0.68348 0.0
N18 N 0.34161 0.56898 0.66829 0.0
C19 C 0.35134 0.61102 0.65656 0.0
C20 C 0.41259 0.65634 0.66302 0.0
C21 C 0.50292 0.67093 0.69267 0.0
H22 H 0.52841 0.68831 0.73184 0.0
H23 H 0.49597 0.62966 0.66369 0.0
H24 H 0.53341 0.71739 0.69205 0.0
O25 O 0.37331 0.53097 0.75383 0.0
O26 O 0.29299 0.51318 0.7322 0.0
H27 H 0.26627 0.58144 0.64821 0.0
H28 H 0.32251 0.65519 0.64711 0.0
C29 C 0.30067 0.60327 0.63475 0.0
H30 H 0.27419 0.56717 0.59154 0.0
H31 H 0.16499 0.46879 0.68508 0.0
O32 O 0.48128 0.57357 0.71754 0.0
C33 C 0.31566 0.49467 0.74372 0.0
Co34 Co 0.11979 0.02367 0.72304 0.0
Co35 Co 0.99163 0.97197 0.71003 0.0
C36 C 0.11808 0.11154 0.80493 0.0
O37 O 0.14565 0.10064 0.78607 0.0
O38 O 0.05689 0.06415 0.78068 0.0
C39 C 0.22105 0.06639 0.78866 0.0
O40 O 0.17974 0.04054 0.80427 0.0
C41 C 0.89845 0.93321 0.74148 0.0
C42 C 0.81097 0.87333 0.67218 0.0
C43 C 0.83543 0.89761 0.72356 0.0
N44 N 0.91071 0.93063 0.70294 0.0
N45 N 0.85835 0.89496 0.66153 0.0
C46 C 0.94506 0.96386 0.79274 0.0
H47 H 0.97934 0.96387 0.78889 0.0
H48 H 0.91904 0.93296 0.8072 0.0
H49 H 0.97359 0.01988 0.82181 0.0
C50 C 0.04561 0.88463 0.7028 0.0
N51 N 0.04995 0.93223 0.70601 0.0
N52 N 0.9967 0.91084 0.70154 0.0
C53 C 0.9573 0.84919 0.69589 0.0
C54 C 0.98787 0.83162 0.69821 0.0
C55 C 0.09564 0.88897 0.70389 0.0
H56 H 0.12367 0.91911 0.68964 0.0
H57 H 0.12929 0.91602 0.74421 0.0
H58 H 0.07208 0.83457 0.67925 0.0
O59 O 0.09726 0.03034 0.66838 0.0
O60 O 0.01025 0.00067 0.66328 0.0
H61 H 0.86843 0.81427 0.67057 0.0
H62 H 0.86148 0.75349 0.67301 0.0
C63 C 0.89375 0.81067 0.69283 0.0
H64 H 0.90208 0.83429 0.73274 0.0
H65 H 0.85471 0.88475 0.62595 0.0
O66 O 0.20342 0.05904 0.74694 0.0
C67 C 0.05399 0.0243 0.65138 0.0
Co68 Co 0.60773 0.42933 0.23794 0.0
Co69 Co 0.64149 0.46199 0.34862 0.0
C70 C 0.50697 0.36864 0.26716 0.0
O71 O 0.52438 0.3769 0.235 0.0
O72 O 0.54733 0.39876 0.31241 0.0
C73 C 0.55291 0.4088 0.14601 0.0
O74 O 0.52587 0.42003 0.16844 0.0
C75 C 0.64856 0.5076 0.44973 0.0
C76 C 0.73284 0.54094 0.49833 0.0
C77 C 0.6863 0.5357 0.49969 0.0
N78 N 0.67247 0.49797 0.42052 0.0
N79 N 0.72286 0.51801 0.44984 0.0
C80 C 0.5872 0.48372 0.42812 0.0
H81 H 0.58707 0.50058 0.40354 0.0
H82 H 0.57947 0.5039 0.45881 0.0
H83 H 0.546 0.42471 0.40286 0.0
C84 C 0.69748 0.58387 0.30299 0.0
N85 N 0.67323 0.52566 0.29792 0.0
N86 N 0.68795 0.5396 0.34415 0.0
C87 C 0.72242 0.60753 0.37991 0.0
C88 C 0.72743 0.63718 0.35494 0.0
C89 C 0.68001 0.5833 0.25777 0.0
H90 H 0.6787 0.551 0.22567 0.0
H91 H 0.63165 0.55994 0.24378 0.0
H92 H 0.71554 0.63807 0.26921 0.0
O93 O 0.62715 0.3808 0.23814 0.0
O94 O 0.64831 0.39942 0.31439 0.0
H95 H 0.76512 0.63192 0.45307 0.0
H96 H 0.77472 0.69852 0.45873 0.0
C97 C 0.74114 0.6404 0.43591 0.0
H98 H 0.6973 0.61517 0.43857 0.0
H99 H 0.75036 0.51586 0.43669 0.0
O100 O 0.59298 0.41494 0.1705 0.0
C101 C 0.64051 0.37077 0.26937 0.0
Co102 Co 0.42099 0.79196 0.34194 0.0
Co103 Co 0.38902 0.71136 0.22683 0.0
C104 C 0.29392 0.63351 0.25218 0.0
O105 O 0.33035 0.69223 0.29698 0.0
O106 O 0.31279 0.62948 0.22007 0.0
C107 C 0.42863 0.76695 0.4104 0.0
O108 O 0.41278 0.71854 0.36696 0.0
C109 C 0.34211 0.61088 0.11916 0.0
C110 C 0.42672 0.67614 0.11147 0.0
C111 C 0.36533 0.60733 0.08602 0.0
N112 N 0.38758 0.67871 0.16247 0.0
N113 N 0.43741 0.71785 0.157 0.0
C114 C 0.28154 0.54918 0.11292 0.0
H115 H 0.29461 0.54163 0.14057 0.0
H116 H 0.24839 0.49887 0.07293 0.0
H117 H 0.2558 0.56062 0.12205 0.0
C118 C 0.53836 0.83078 0.36332 0.0
N119 N 0.48208 0.79972 0.32979 0.0
N120 N 0.46535 0.75935 0.28189 0.0
C121 C 0.5082 0.75966 0.28331 0.0
C122 C 0.55664 0.8057 0.33518 0.0
C123 C 0.57394 0.88387 0.42124 0.0
H124 H 0.5638 0.91357 0.43068 0.0
H125 H 0.55758 0.85595 0.4391 0.0
H126 H 0.62681 0.9217 0.43834 0.0
O127 O 0.41238 0.84061 0.32371 0.0
O128 O 0.38035 0.77337 0.2404 0.0
H129 H 0.5243 0.73426 0.22052 0.0
H130 H 0.51336 0.6894 0.2479 0.0
C131 C 0.49678 0.70783 0.23685 0.0
H132 H 0.44463 0.66068 0.20642 0.0
H133 H 0.48048 0.77214 0.18586 0.0
O134 O 0.44027 0.81615 0.41305 0.0
C135 C 0.38959 0.82004 0.27698 0.0
Co136 Co 0.73167 0.06603 0.09132 0.0
Co137 Co 0.63964 0.9286 0.08592 0.0
C138 C 0.7692 0.06552 0.18082 0.0
O139 O 0.77836 0.09438 0.15865 0.0
O140 O 0.71784 0.99935 0.15688 0.0
C141 C 0.83098 0.20894 0.13509 0.0
O142 O 0.81258 0.21037 0.16931 0.0
C143 C 0.6075 0.81635 0.08296 0.0
C144 C 0.50099 0.72359 0.03389 0.0
C145 C 0.55565 0.74448 0.05996 0.0
N146 N 0.58498 0.83756 0.07184 0.0
N147 N 0.52105 0.78223 0.04333 0.0
C148 C 0.67778 0.86172 0.1082 0.0
H149 H 0.69955 0.8921 0.15111 0.0
H150 H 0.70357 0.90025 0.09934 0.0
H151 H 0.68462 0.829 0.09486 0.0
C152 C 0.70612 0.97135 0.99412 0.0
N153 N 0.6985 0.98346 0.03534 0.0
N154 N 0.65998 0.9248 0.03161 0.0
C155 C 0.64239 0.87306 0.98725 0.0
C156 C 0.67063 0.90099 0.96205 0.0
C157 C 0.74881 0.02746 0.98701 0.0
H158 H 0.73355 0.05132 0.98779 0.0
H159 H 0.79938 0.07049 0.02003 0.0
H160 H 0.74728 0.00583 0.94987 0.0
O161 O 0.66187 0.0514 0.08996 0.0
O162 O 0.59934 0.95954 0.09303 0.0
H163 H 0.55426 0.77567 0.96876 0.0
H164 H 0.58629 0.76412 0.9288 0.0
C165 C 0.59911 0.79822 0.96873 0.0
H166 H 0.62408 0.79816 0.9956 0.0
H167 H 0.49144 0.7834 0.0276 0.0
O168 O 0.79771 0.14895 0.0929 0.0
C169 C 0.61366 0.00893 0.09318 0.0
Co170 Co 0.01308 0.84678 0.18485 0.0
Co171 Co 0.98026 0.76867 0.06933 0.0
C172 C 0.06686 0.92292 0.13656 0.0
O173 O 0.06079 0.92036 0.1738 0.0
O174 O 0.03703 0.86709 0.09206 0.0
C175 C 0.02198 0.93692 0.26403 0.0
O176 O 0.0004 0.93542 0.22577 0.0
C177 C 0.93783 0.71729 0.96077 0.0
C178 C 0.93119 0.63472 0.92728 0.0
C179 C 0.92622 0.67052 0.91584 0.0
N180 N 0.94875 0.7092 0.99698 0.0
N181 N 0.94359 0.65885 0.97641 0.0
C182 C 0.94723 0.77537 0.97165 0.0
H183 H 0.93911 0.79144 0.00371 0.0
H184 H 0.91386 0.75811 0.93643 0.0
H185 H 0.99759 0.82226 0.98357 0.0
C186 C 0.8698 0.73858 0.13026 0.0
N187 N 0.92449 0.76589 0.13047 0.0
N188 N 0.91085 0.73421 0.082 0.0
C189 C 0.8471 0.68639 0.0495 0.0
C190 C 0.81881 0.68803 0.07882 0.0
C191 C 0.86833 0.76751 0.17834 0.0
H192 H 0.907 0.78903 0.21232 0.0
H193 H 0.87559 0.81058 0.18583 0.0
H194 H 0.82135 0.72583 0.17386 0.0
O195 O 0.05742 0.82315 0.1891 0.0
O196 O 0.03831 0.77359 0.10836 0.0
H197 H 0.82802 0.61758 0.97716 0.0
H198 H 0.76105 0.60122 0.97246 0.0
C199 C 0.8145 0.64314 0.99133 0.0
H200 H 0.83094 0.67864 0.97999 0.0
H201 H 0.95185 0.64359 0.9968 0.0
O202 O 0.02743 0.89747 0.25473 0.0
C203 C 0.06562 0.79643 0.15505 0.0
H204 H 0.36996 0.64869 0.40169 0.0
H205 H 0.4935 0.87137 0.51615 0.0
H206 H 0.37804 0.63563 0.46983 0.0
H207 H 0.50281 0.85836 0.58599 0.0
H208 H 0.42714 0.76003 0.67792 0.0
H209 H 0.43761 0.79661 0.62129 0.0
H210 H 0.46062 0.67301 0.53767 0.0
H211 H 0.44534 0.63271 0.59121 0.0
C212 C 0.39936 0.69525 0.44168 0.0
C213 C 0.4318 0.76135 0.4536 0.0
C214 C 0.40436 0.6878 0.48091 0.0
C215 C 0.44253 0.74638 0.5335 0.0
C216 C 0.4734 0.81236 0.54576 0.0
C217 C 0.46804 0.81982 0.50595 0.0
C218 C 0.43448 0.74092 0.64736 0.0
C219 C 0.43371 0.69208 0.63797 0.0
C220 C 0.44139 0.76263 0.61548 0.0
C221 C 0.44829 0.73625 0.57417 0.0
C222 C 0.45361 0.69278 0.56826 0.0
C223 C 0.44573 0.67038 0.59941 0.0
H224 H 0.78565 0.02902 0.2413 0.0
H225 H 0.85811 0.20877 0.24814 0.0
H226 H 0.8633 0.10966 0.33501 0.0
H227 H 0.9319 0.28758 0.3408 0.0
H228 H 0.10748 0.42443 0.49169 0.0
H229 H 0.02767 0.34117 0.39951 0.0
H230 H 0.89213 0.18517 0.42102 0.0
H231 H 0.97523 0.26782 0.51336 0.0
C232 C 0.81793 0.08552 0.26275 0.0
C233 C 0.81638 0.11251 0.23706 0.0
C234 C 0.86196 0.13168 0.31652 0.0
C235 C 0.90447 0.20548 0.34564 0.0
C236 C 0.9015 0.23164 0.31975 0.0
C237 C 0.85873 0.18609 0.2663 0.0
C238 C 0.06103 0.37193 0.47653 0.0
C239 C 0.0481 0.35173 0.50917 0.0
C240 C 0.01461 0.3244 0.42374 0.0
C241 C 0.95317 0.25592 0.4024 0.0
C242 C 0.93926 0.23684 0.43577 0.0
C243 C 0.98637 0.28443 0.48876 0.0
H244 H 0.31072 0.33355 0.56737 0.0
H245 H 0.1394 0.27452 0.54758 0.0
H246 H 0.24319 0.21495 0.48812 0.0
H247 H 0.07238 0.15635 0.46919 0.0
H248 H 0.0039 0.01594 0.29483 0.0
H249 H 0.06005 0.11803 0.38266 0.0
H250 H 0.156 0.08374 0.4436 0.0
H251 H 0.09988 0.98126 0.35513 0.0
C252 C 0.25871 0.29504 0.54663 0.0
C253 C 0.23062 0.31399 0.56312 0.0
C254 C 0.21999 0.22696 0.50147 0.0
C255 C 0.15256 0.1767 0.47214 0.0
C256 C 0.12429 0.19439 0.49047 0.0
C257 C 0.16283 0.2622 0.53542 0.0
C258 C 0.03611 0.02934 0.32699 0.0
C259 C 0.04789 0.99097 0.31801 0.0
C260 C 0.06805 0.08766 0.37742 0.0
C261 C 0.11276 0.10916 0.42001 0.0
C262 C 0.12232 0.06878 0.41141 0.0
C263 C 0.08984 0.00988 0.36085 0.0
H264 H 0.67139 0.61696 0.54044 0.0
H265 H 0.68479 0.49632 0.56191 0.0
H266 H 0.6401 0.62964 0.60525 0.0
H267 H 0.6564 0.51157 0.62887 0.0
H268 H 0.4908 0.44346 0.66145 0.0
H269 H 0.55681 0.4586 0.62379 0.0
H270 H 0.66224 0.67425 0.69221 0.0
H271 H 0.59434 0.65807 0.72885 0.0
C272 C 0.668 0.59358 0.55946 0.0
C273 C 0.67749 0.55292 0.54464 0.0
C274 C 0.65124 0.6019 0.59735 0.0
C275 C 0.64444 0.57043 0.62175 0.0
C276 C 0.65957 0.53497 0.60996 0.0
C277 C 0.67614 0.5265 0.57186 0.0
C278 C 0.52907 0.49479 0.66964 0.0
C279 C 0.53631 0.54904 0.69716 0.0
C280 C 0.56734 0.50367 0.64815 0.0
C281 C 0.61419 0.56727 0.65403 0.0
C282 C 0.62548 0.62392 0.68575 0.0
C283 C 0.58686 0.61485 0.70701 0.0
H284 H 0.84184 0.64732 0.84797 0.0
H285 H 0.00925 0.69639 0.88281 0.0
H286 H 0.85267 0.66951 0.78301 0.0
H287 H 0.02039 0.71889 0.81812 0.0
H288 H 0.0721 0.88318 0.78825 0.0
H289 H 0.0512 0.82546 0.82912 0.0
H290 H 0.857 0.63259 0.69589 0.0
H291 H 0.87965 0.68938 0.65283 0.0
C292 C 0.88018 0.66162 0.84093 0.0
C293 C 0.9254 0.67143 0.87073 0.0
C294 C 0.88598 0.67353 0.80349 0.0
C295 C 0.93754 0.69617 0.79582 0.0
C296 C 0.98031 0.70159 0.82342 0.0
C297 C 0.97393 0.68869 0.86028 0.0
C298 C 0.0259 0.82748 0.76648 0.0
C299 C 0.97742 0.79089 0.71738 0.0
C300 C 0.01378 0.79455 0.79012 0.0
C301 C 0.95244 0.72472 0.76573 0.0
C302 C 0.90461 0.68669 0.71556 0.0
C303 C 0.9174 0.71927 0.69119 0.0
H304 H 0.48581 0.40997 0.08656 0.0
H305 H 0.56213 0.33327 0.07841 0.0
H306 H 0.42429 0.33511 0.99153 0.0
H307 H 0.49972 0.25759 0.98316 0.0
H308 H 0.2727 0.0517 0.8463 0.0
H309 H 0.37481 0.14911 0.92965 0.0
H310 H 0.42345 0.29966 0.90466 0.0
H311 H 0.32149 0.20136 0.82031 0.0
C312 C 0.49079 0.37858 0.06451 0.0
C313 C 0.52795 0.37665 0.0899 0.0
C314 C 0.45597 0.33614 0.01007 0.0
C315 C 0.45698 0.29023 0.98001 0.0
C316 C 0.49803 0.29239 0.00546 0.0
C317 C 0.53373 0.33577 0.05997 0.0
C318 C 0.30682 0.10521 0.85744 0.0
C319 C 0.28969 0.1192 0.82699 0.0
C320 C 0.36524 0.16105 0.90516 0.0
C321 C 0.40675 0.232 0.92378 0.0
C322 C 0.39223 0.24542 0.89115 0.0
C323 C 0.33428 0.1892 0.84273 0.0
H324 H 0.24974 0.22964 0.85934 0.0
H325 H 0.07752 0.15866 0.85463 0.0
H326 H 0.31365 0.35258 0.92471 0.0
H327 H 0.14201 0.28163 0.92137 0.0
H328 H 0.25322 0.50609 0.99346 0.0
H329 H 0.19593 0.38608 0.92651 0.0
H330 H 0.35635 0.43933 0.013 0.0
H331 H 0.41396 0.55994 0.07888 0.0
C332 C 0.22563 0.24005 0.87298 0.0
C333 C 0.15825 0.18419 0.85131 0.0
C334 C 0.26243 0.31072 0.91054 0.0
C335 C 0.23281 0.32718 0.92757 0.0
C336 C 0.16606 0.27099 0.908 0.0
C337 C 0.12917 0.20033 0.87023 0.0
C338 C 0.2766 0.49229 0.99714 0.0
C339 C 0.33763 0.54155 0.04088 0.0
C340 C 0.24357 0.42344 0.95942 0.0
C341 C 0.27088 0.40251 0.96501 0.0
C342 C 0.33389 0.45359 0.00741 0.0
C343 C 0.36705 0.52267 0.04499 0.0
H344 H 0.73925 0.87797 0.95628 0.0
H345 H 0.60835 0.85752 0.86565 0.0
H346 H 0.76903 0.86239 0.89022 0.0
H347 H 0.63728 0.84071 0.79889 0.0
H348 H 0.70574 0.78336 0.68432 0.0
H349 H 0.65001 0.76344 0.73342 0.0
H350 H 0.83088 0.96576 0.87596 0.0
H351 H 0.88499 0.98849 0.82727 0.0
C352 C 0.71472 0.86678 0.921 0.0
C353 C 0.67152 0.86859 0.91562 0.0
C354 C 0.73193 0.85832 0.88346 0.0
C355 C 0.70572 0.85095 0.83986 0.0
C356 C 0.65775 0.84583 0.83201 0.0
C357 C 0.64114 0.85524 0.86999 0.0
C358 C 0.7334 0.82363 0.72612 0.0
C359 C 0.80056 0.88615 0.75222 0.0
C360 C 0.70161 0.81185 0.75411 0.0
C361 C 0.73684 0.86176 0.80861 0.0
C362 C 0.80318 0.92519 0.83419 0.0
C363 C 0.83436 0.93779 0.80625 0.0
H364 H 0.80006 0.7575 0.3597 0.0
H365 H 0.64503 0.62419 0.38195 0.0
H366 H 0.7789 0.82358 0.37005 0.0
H367 H 0.62322 0.68784 0.39143 0.0
H368 H 0.58799 0.80343 0.41587 0.0
H369 H 0.653 0.7909 0.43856 0.0
H370 H 0.69506 0.79828 0.318 0.0
H371 H 0.63538 0.81894 0.29924 0.0
C372 C 0.76268 0.74369 0.36811 0.0
C373 C 0.72472 0.68656 0.37072 0.0
C374 C 0.75023 0.78101 0.3737 0.0
C375 C 0.69948 0.7614 0.38181 0.0
C376 C 0.66382 0.70614 0.3867 0.0
C377 C 0.67626 0.66932 0.38122 0.0
C378 C 0.61369 0.80621 0.39595 0.0
C379 C 0.60589 0.81153 0.35532 0.0
C380 C 0.65013 0.79753 0.4083 0.0
C381 C 0.67767 0.79126 0.37905 0.0
C382 C 0.67452 0.80269 0.34137 0.0
C383 C 0.63946 0.81346 0.33003 0.0
H384 H 0.44856 0.32275 0.31918 0.0
H385 H 0.40679 0.29486 0.17388 0.0
H386 H 0.33392 0.22232 0.28402 0.0
H387 H 0.29127 0.19439 0.13878 0.0
H388 H 0.12233 0.95643 0.0795 0.0
H389 H 0.22388 0.07445 0.11071 0.0
H390 H 0.2277 0.16844 0.25181 0.0
H391 H 0.12696 0.05016 0.22121 0.0
C392 C 0.41494 0.29654 0.28024 0.0
C393 C 0.43716 0.3165 0.24925 0.0
C394 C 0.34885 0.23889 0.26003 0.0
C395 C 0.30325 0.19981 0.20833 0.0
C396 C 0.32518 0.22271 0.17847 0.0
C397 C 0.39143 0.28049 0.19872 0.0
C398 C 0.14381 0.00235 0.11649 0.0
C399 C 0.11738 0.9938 0.14839 0.0
C400 C 0.20207 0.07024 0.13439 0.0
C401 C 0.23469 0.13086 0.18433 0.0
C402 C 0.20463 0.12268 0.21376 0.0
C403 C 0.14669 0.05487 0.19605 0.0
H404 H 0.8807 0.23074 0.07248 0.0
H405 H 0.929 0.33357 0.23268 0.0
H406 H 0.99215 0.33428 0.10014 0.0
H407 H 0.04037 0.43461 0.26064 0.0
H408 H 0.22495 0.6339 0.2942 0.0
H409 H 0.11175 0.53407 0.26345 0.0
H410 H 0.09702 0.39142 0.14274 0.0
H411 H 0.21003 0.49272 0.17204 0.0
C412 C 0.91505 0.27564 0.11354 0.0
C413 C 0.89601 0.27417 0.15035 0.0
C414 C 0.97914 0.33464 0.12953 0.0
C415 C 0.02573 0.3929 0.18276 0.0
C416 C 0.00596 0.39162 0.21926 0.0
C417 C 0.94186 0.33335 0.20321 0.0
C418 C 0.19771 0.58115 0.26132 0.0
C419 C 0.22653 0.57113 0.23571 0.0
C420 C 0.13261 0.52366 0.24367 0.0
C421 C 0.09485 0.45428 0.20057 0.0
C422 C 0.12408 0.44415 0.1754 0.0
C423 C 0.18909 0.50207 0.19252 0.0
H424 H 0.72266 0.6146 0.09918 0.0
H425 H 0.77799 0.70976 0.01971 0.0
H426 H 0.63512 0.59995 0.08558 0.0
H427 H 0.68942 0.69203 0.00392 0.0
H428 H 0.52303 0.64619 0.96946 0.0
H429 H 0.56728 0.60359 0.96215 0.0
H430 H 0.64887 0.70151 0.12685 0.0
H431 H 0.60504 0.74441 0.13393 0.0
C432 C 0.71533 0.63109 0.078 0.0
C433 C 0.7577 0.66437 0.06125 0.0
C434 C 0.66502 0.62214 0.06984 0.0
C435 C 0.65544 0.64479 0.04367 0.0
C436 C 0.69485 0.67297 0.02348 0.0
C437 C 0.74568 0.68312 0.0325 0.0
C438 C 0.54767 0.6554 0.00342 0.0
C439 C 0.5608 0.69834 0.05223 0.0
C440 C 0.57345 0.63164 0.99937 0.0
C441 C 0.61211 0.64996 0.04404 0.0
C442 C 0.61889 0.68611 0.0917 0.0
C443 C 0.59383 0.71063 0.09583 0.0
H444 H 0.00591 0.07167 0.64819 0.0
H445 H 0.13605 0.0761 0.61484 0.0
H446 H 0.06359 0.18033 0.65817 0.0
H447 H 0.19209 0.18354 0.62205 0.0
H448 H 0.3426 0.42648 0.74294 0.0
H449 H 0.267 0.3001 0.69956 0.0
H450 H 0.10726 0.25967 0.6381 0.0
H451 H 0.18284 0.38674 0.68391 0.0
C452 C 0.04486 0.09374 0.64034 0.0
C453 C 0.0678 0.06649 0.63262 0.0
C454 C 0.07831 0.15668 0.6462 0.0
C455 C 0.1345 0.19275 0.64323 0.0
C456 C 0.1508 0.15894 0.62697 0.0
C457 C 0.11797 0.09658 0.62197 0.0
C458 C 0.29137 0.39071 0.7202 0.0
C459 C 0.26908 0.41717 0.71725 0.0
C460 C 0.24781 0.31776 0.69446 0.0
C461 C 0.18065 0.26901 0.66473 0.0
C462 C 0.15843 0.2954 0.66102 0.0
C463 C 0.20194 0.36853 0.68744 0.0
H464 H 0.61176 0.04464 0.18229 0.0
H465 H 0.55984 0.02935 0.04453 0.0
H466 H 0.61476 0.13086 0.22819 0.0
H467 H 0.55857 0.11194 0.08885 0.0
H468 H 0.67124 0.33852 0.19803 0.0
H469 H 0.64797 0.23628 0.15218 0.0
H470 H 0.57308 0.17352 0.24499 0.0
H471 H 0.59941 0.27856 0.29265 0.0
C472 C 0.59705 0.05647 0.16087 0.0
C473 C 0.58554 0.03058 0.10998 0.0
C474 C 0.59942 0.10653 0.18733 0.0
C475 C 0.5893 0.13046 0.16286 0.0
C476 C 0.56921 0.0969 0.10959 0.0
C477 C 0.56834 0.04826 0.08365 0.0
C478 C 0.65083 0.30353 0.20923 0.0
C479 C 0.6373 0.31655 0.24894 0.0
C480 C 0.63629 0.24405 0.1823 0.0
C481 C 0.6066 0.19508 0.19363 0.0
C482 C 0.59564 0.20982 0.23503 0.0
C483 C 0.61118 0.27027 0.26263 0.0
H484 H 0.13293 0.79913 0.10917 0.0
H485 H 0.11154 0.80802 0.24013 0.0
H486 H 0.22261 0.82125 0.14167 0.0
H487 H 0.19895 0.82588 0.27127 0.0
H488 H 0.32304 0.77126 0.1792 0.0
H489 H 0.24733 0.76871 0.15029 0.0
H490 H 0.31086 0.90578 0.31063 0.0
H491 H 0.38453 0.90476 0.33959 0.0
C492 C 0.14649 0.8042 0.14436 0.0
C493 C 0.11474 0.80118 0.17184 0.0
C494 C 0.19815 0.81704 0.16313 0.0
C495 C 0.21859 0.82569 0.20934 0.0
C496 C 0.18586 0.8213 0.23628 0.0
C497 C 0.13498 0.8099 0.21803 0.0
C498 C 0.32207 0.8022 0.20858 0.0
C499 C 0.35922 0.83716 0.26177 0.0
C500 C 0.27842 0.80087 0.19187 0.0
C501 C 0.27158 0.83571 0.22794 0.0
C502 C 0.31316 0.87631 0.28154 0.0
C503 C 0.3563 0.87676 0.29828 0.0
loop_
_geom_bond_atom_site_label_1
_geom_bond_atom_site_label_2
_geom_bond_distance
_geom_bond_site_symmetry_2
_ccdc_geom_bond_type
Co0 O3 1.970 . S
Co0 N17 1.989 . S
Co0 O25 1.967 . S
Co0 O32 1.920 . S
Co1 O4 1.966 . S
Co1 N10 2.022 . S
Co1 N18 1.993 . S
Co1 O26 1.941 . S
C2 O3 1.258 . S
C2 O4 1.263 . S
O3 Co0 1.970 . S
O3 C2 1.258 . S
O4 Co1 1.966 . S
O4 C2 1.263 . S
C5 O6 1.235 . S
C5 O32 1.289 . S
O6 C5 1.235 . S
C7 C9 1.400 . S
C7 N10 1.351 . S
C7 C12 1.501 . S
C8 C9 1.387 . S
C8 N11 1.341 . S
C9 C7 1.400 . S
C9 C8 1.387 . S
N10 Co1 2.022 . S
N10 C7 1.351 . S
N10 N11 1.365 . S
N11 C8 1.341 . S
N11 N10 1.365 . S
N11 H31 0.862 . S
C12 C7 1.501 . S
C12 H13 0.961 . S
C12 H14 0.961 . S
C12 H15 0.960 . S
H13 C12 0.961 . S
H14 C12 0.961 . S
H15 C12 0.960 . S
C16 N17 1.342 . S
C16 C20 1.401 . S
C16 C21 1.499 . S
N17 Co0 1.989 . S
N17 C16 1.342 . S
N17 N18 1.388 . S
N18 Co1 1.993 . S
N18 N17 1.388 . S
N18 C19 1.346 . S
C19 N18 1.346 . S
C19 C20 1.396 . S
C19 C29 1.510 . S
C20 C16 1.401 . S
C20 C19 1.396 . S
C21 C16 1.499 . S
C21 H22 0.959 . S
C21 H23 0.960 . S
C21 H24 0.961 . S
H22 C21 0.959 . S
H23 C21 0.960 . S
H24 C21 0.961 . S
O25 Co0 1.967 . S
O25 C33 1.258 . S
O26 Co1 1.941 . S
O26 C33 1.266 . S
H27 C29 0.959 . S
H28 C29 0.961 . S
C29 C19 1.510 . S
C29 H27 0.959 . S
C29 H28 0.961 . S
C29 H30 0.960 . S
H30 C29 0.960 . S
H31 N11 0.862 . S
O32 Co0 1.920 . S
O32 C5 1.289 . S
C33 O25 1.258 . S
C33 O26 1.266 . S
Co34 O37 1.970 . S
Co34 N51 1.989 1_545 S
Co34 O59 1.967 . S
Co34 O66 1.920 . S
Co35 O38 1.966 1_565 S
Co35 N44 2.022 1_455 S
Co35 N52 1.993 . S
Co35 O60 1.941 . S
C36 O37 1.258 . S
C36 O38 1.263 . S
O37 Co34 1.970 . S
O37 C36 1.258 . S
O38 Co35 1.966 1_545 S
O38 C36 1.263 . S
C39 O40 1.235 . S
C39 O66 1.289 . S
O40 C39 1.235 . S
C41 C43 1.400 . S
C41 N44 1.351 . S
C41 C46 1.501 1_565 S
C42 C43 1.387 . S
C42 N45 1.341 . S
C43 C41 1.400 . S
C43 C42 1.387 . S
N44 Co35 2.022 1_655 S
N44 C41 1.351 . S
N44 N45 1.365 . S
N45 C42 1.341 . S
N45 N44 1.365 . S
N45 H65 0.862 . S
C46 C41 1.501 1_545 S
C46 H47 0.961 . S
C46 H48 0.961 . S
C46 H49 0.960 . S
H47 C46 0.961 . S
H48 C46 0.961 . S
H49 C46 0.960 . S
C50 N51 1.342 . S
C50 C54 1.401 . S
C50 C55 1.499 . S
N51 Co34 1.989 1_565 S
N51 C50 1.342 . S
N51 N52 1.388 . S
N52 Co35 1.993 . S
N52 N51 1.388 . S
N52 C53 1.346 1_455 S
C53 N52 1.346 1_655 S
C53 C54 1.396 1_655 S
C53 C63 1.510 . S
C54 C50 1.401 . S
C54 C53 1.396 1_455 S
C55 C50 1.499 . S
C55 H56 0.959 . S
C55 H57 0.960 . S
C55 H58 0.961 . S
H56 C55 0.959 . S
H57 C55 0.960 . S
H58 C55 0.961 . S
O59 Co34 1.967 . S
O59 C67 1.258 . S
O60 Co35 1.941 . S
O60 C67 1.266 1_565 S
H61 C63 0.959 . S
H62 C63 0.961 . S
C63 C53 1.510 . S
C63 H61 0.959 . S
C63 H62 0.961 . S
C63 H64 0.960 . S
H64 C63 0.960 . S
H65 N45 0.862 . S
O66 Co34 1.920 . S
O66 C39 1.289 . S
C67 O59 1.258 . S
C67 O60 1.266 1_545 S
Co68 O71 1.970 . S
Co68 N85 1.989 . S
Co68 O93 1.967 . S
Co68 O100 1.920 . S
Co69 O72 1.966 . S
Co69 N78 2.022 . S
Co69 N86 1.993 . S
Co69 O94 1.941 . S
C70 O71 1.258 . S
C70 O72 1.263 . S
O71 Co68 1.970 . S
O71 C70 1.258 . S
O72 Co69 1.966 . S
O72 C70 1.263 . S
C73 O74 1.235 . S
C73 O100 1.289 . S
O74 C73 1.235 . S
C75 C77 1.400 . S
C75 N78 1.351 . S
C75 C80 1.501 . S
C76 C77 1.387 . S
C76 N79 1.341 . S
C77 C75 1.400 . S
C77 C76 1.387 . S
N78 Co69 2.022 . S
N78 C75 1.351 . S
N78 N79 1.365 . S
N79 C76 1.341 . S
N79 N78 1.365 . S
N79 H99 0.862 . S
C80 C75 1.501 . S
C80 H81 0.961 . S
C80 H82 0.961 . S
C80 H83 0.960 . S
H81 C80 0.961 . S
H82 C80 0.961 . S
H83 C80 0.960 . S
C84 N85 1.342 . S
C84 C88 1.401 . S
C84 C89 1.499 . S
N85 Co68 1.989 . S
N85 C84 1.342 . S
N85 N86 1.388 . S
N86 Co69 1.993 . S
N86 N85 1.388 . S
N86 C87 1.346 . S
C87 N86 1.346 . S
C87 C88 1.396 . S
C87 C97 1.510 . S
C88 C84 1.401 . S
C88 C87 1.396 . S
C89 C84 1.499 . S
C89 H90 0.959 . S
C89 H91 0.960 . S
C89 H92 0.961 . S
H90 C89 0.959 . S
H91 C89 0.960 . S
H92 C89 0.961 . S
O93 Co68 1.967 . S
O93 C101 1.258 . S
O94 Co69 1.941 . S
O94 C101 1.266 . S
H95 C97 0.959 . S
H96 C97 0.961 . S
C97 C87 1.510 . S
C97 H95 0.959 . S
C97 H96 0.961 . S
C97 H98 0.960 . S
H98 C97 0.960 . S
H99 N79 0.862 . S
O100 Co68 1.920 . S
O100 C73 1.289 . S
C101 O93 1.258 . S
C101 O94 1.266 . S
Co102 O105 1.970 . S
Co102 N119 1.989 . S
Co102 O127 1.967 . S
Co102 O134 1.920 . S
Co103 O106 1.966 . S
Co103 N112 2.022 . S
Co103 N120 1.993 . S
Co103 O128 1.941 . S
C104 O105 1.258 . S
C104 O106 1.263 . S
O105 Co102 1.970 . S
O105 C104 1.258 . S
O106 Co103 1.966 . S
O106 C104 1.263 . S
C107 O108 1.235 . S
C107 O134 1.289 . S
O108 C107 1.235 . S
C109 C111 1.400 . S
C109 N112 1.351 . S
C109 C114 1.501 . S
C110 C111 1.387 . S
C110 N113 1.341 . S
C111 C109 1.400 . S
C111 C110 1.387 . S
N112 Co103 2.022 . S
N112 C109 1.351 . S
N112 N113 1.365 . S
N113 C110 1.341 . S
N113 N112 1.365 . S
N113 H133 0.862 . S
C114 C109 1.501 . S
C114 H115 0.961 . S
C114 H116 0.961 . S
C114 H117 0.960 . S
H115 C114 0.961 . S
H116 C114 0.961 . S
H117 C114 0.960 . S
C118 N119 1.342 . S
C118 C122 1.401 . S
C118 C123 1.499 . S
N119 Co102 1.989 . S
N119 C118 1.342 . S
N119 N120 1.388 . S
N120 Co103 1.993 . S
N120 N119 1.388 . S
N120 C121 1.346 . S
C121 N120 1.346 . S
C121 C122 1.396 . S
C121 C131 1.510 . S
C122 C118 1.401 . S
C122 C121 1.396 . S
C123 C118 1.499 . S
C123 H124 0.959 . S
C123 H125 0.960 . S
C123 H126 0.961 . S
H124 C123 0.959 . S
H125 C123 0.960 . S
H126 C123 0.961 . S
O127 Co102 1.967 . S
O127 C135 1.258 . S
O128 Co103 1.941 . S
O128 C135 1.266 . S
H129 C131 0.959 . S
H130 C131 0.961 . S
C131 C121 1.510 . S
C131 H129 0.959 . S
C131 H130 0.961 . S
C131 H132 0.960 . S
H132 C131 0.960 . S
H133 N113 0.862 . S
O134 Co102 1.920 . S
O134 C107 1.289 . S
C135 O127 1.258 . S
C135 O128 1.266 . S
Co136 O139 1.970 . S
Co136 N153 1.989 . S
Co136 O161 1.967 . S
Co136 O168 1.920 . S
Co137 O140 1.966 1_565 S
Co137 N146 2.022 . S
Co137 N154 1.993 . S
Co137 O162 1.941 . S
C138 O139 1.258 . S
C138 O140 1.263 . S
O139 Co136 1.970 . S
O139 C138 1.258 . S
O140 Co137 1.966 1_545 S
O140 C138 1.263 . S
C141 O142 1.235 . S
C141 O168 1.289 . S
O142 C141 1.235 . S
C143 C145 1.400 . S
C143 N146 1.351 . S
C143 C148 1.501 . S
C144 C145 1.387 1_556 S
C144 N147 1.341 . S
C145 C143 1.400 . S
C145 C144 1.387 1_554 S
N146 Co137 2.022 . S
N146 C143 1.351 . S
N146 N147 1.365 1_554 S
N147 C144 1.341 . S
N147 N146 1.365 1_556 S
N147 H167 0.862 . S
C148 C143 1.501 . S
C148 H149 0.961 . S
C148 H150 0.961 . S
C148 H151 0.960 . S
H149 C148 0.961 . S
H150 C148 0.961 . S
H151 C148 0.960 . S
C152 N153 1.342 1_556 S
C152 C156 1.401 1_545 S
C152 C157 1.499 . S
N153 Co136 1.989 . S
N153 C152 1.342 1_554 S
N153 N154 1.388 1_545 S
N154 Co137 1.993 . S
N154 N153 1.388 1_565 S
N154 C155 1.346 1_554 S
C155 N154 1.346 1_556 S
C155 C156 1.396 . S
C155 C165 1.510 . S
C156 C152 1.401 1_565 S
C156 C155 1.396 . S
C157 C152 1.499 . S
C157 H158 0.959 1_556 S
C157 H159 0.960 . S
C157 H160 0.961 . S
H158 C157 0.959 1_554 S
H159 C157 0.960 . S
H160 C157 0.961 . S
O161 Co136 1.967 . S
O161 C169 1.258 . S
O162 Co137 1.941 . S
O162 C169 1.266 1_565 S
H163 C165 0.959 . S
H164 C165 0.961 . S
C165 C155 1.510 . S
C165 H163 0.959 . S
C165 H164 0.961 . S
C165 H166 0.960 . S
H166 C165 0.960 . S
H167 N147 0.862 . S
O168 Co136 1.920 . S
O168 C141 1.289 . S
C169 O161 1.258 . S
C169 O162 1.266 1_545 S
Co170 O173 1.970 . S
Co170 N187 1.989 1_455 S
Co170 O195 1.967 . S
Co170 O202 1.920 . S
Co171 O174 1.966 1_655 S
Co171 N180 2.022 . S
Co171 N188 1.993 . S
Co171 O196 1.941 . S
C172 O173 1.258 . S
C172 O174 1.263 . S
O173 Co170 1.970 . S
O173 C172 1.258 . S
O174 Co171 1.966 1_455 S
O174 C172 1.263 . S
C175 O176 1.235 . S
C175 O202 1.289 . S
O176 C175 1.235 . S
C177 C179 1.400 1_554 S
C177 N180 1.351 . S
C177 C182 1.501 1_655 S
C178 C179 1.387 . S
C178 N181 1.341 . S
C179 C177 1.400 1_556 S
C179 C178 1.387 . S
N180 Co171 2.022 . S
N180 C177 1.351 . S
N180 N181 1.365 1_554 S
N181 C178 1.341 . S
N181 N180 1.365 1_556 S
N181 H201 0.862 . S
C182 C177 1.501 1_455 S
C182 H183 0.961 . S
C182 H184 0.961 . S
C182 H185 0.960 . S
H183 C182 0.961 . S
H184 C182 0.961 . S
H185 C182 0.960 . S
C186 N187 1.342 . S
C186 C190 1.401 . S
C186 C191 1.499 . S
N187 Co170 1.989 1_655 S
N187 C186 1.342 . S
N187 N188 1.388 . S
N188 Co171 1.993 . S
N188 N187 1.388 . S
N188 C189 1.346 . S
C189 N188 1.346 . S
C189 C190 1.396 . S
C189 C199 1.510 . S
C190 C186 1.401 . S
C190 C189 1.396 . S
C191 C186 1.499 . S
C191 H192 0.959 . S
C191 H193 0.960 . S
C191 H194 0.961 . S
H192 C191 0.959 . S
H193 C191 0.960 . S
H194 C191 0.961 . S
O195 Co170 1.967 . S
O195 C203 1.258 . S
O196 Co171 1.941 . S
O196 C203 1.266 1_655 S
H197 C199 0.959 . S
H198 C199 0.961 . S
C199 C189 1.510 . S
C199 H197 0.959 . S
C199 H198 0.961 . S
C199 H200 0.960 . S
H200 C199 0.960 . S
H201 N181 0.862 . S
O202 Co170 1.920 . S
O202 C175 1.289 . S
C203 O195 1.258 . S
C203 O196 1.266 1_455 S
H204 C212 0.950 . S
H205 C217 0.950 . S
H206 C214 0.950 . S
H207 C216 0.950 . S
H208 C218 0.950 . S
H209 C220 0.950 . S
H210 C222 0.950 . S
H211 C223 0.950 . S
C212 H204 0.950 . S
C212 C213 1.386 . S
C212 C214 1.391 . S
C213 C212 1.386 . S
C213 C217 1.393 . S
C214 H206 0.950 . S
C214 C212 1.391 . S
C214 C215 1.400 . S
C215 C214 1.400 . S
C215 C216 1.398 . S
C215 C221 1.491 . S
C216 H207 0.950 . S
C216 C215 1.398 . S
C216 C217 1.391 . S
C217 H205 0.950 . S
C217 C213 1.393 . S
C217 C216 1.391 . S
C218 H208 0.950 . S
C218 C219 1.386 . S
C218 C220 1.391 . S
C219 C218 1.386 . S
C219 C223 1.393 . S
C220 H209 0.950 . S
C220 C218 1.391 . S
C220 C221 1.400 . S
C221 C215 1.491 . S
C221 C220 1.400 . S
C221 C222 1.398 . S
C222 H210 0.950 . S
C222 C221 1.398 . S
C222 C223 1.391 . S
C223 H211 0.950 . S
C223 C219 1.393 . S
C223 C222 1.391 . S
H224 C232 0.950 . S
H225 C237 0.950 . S
H226 C234 0.950 . S
H227 C236 0.950 . S
H228 C238 0.950 . S
H229 C240 0.950 . S
H230 C242 0.950 . S
H231 C243 0.950 . S
C232 H224 0.950 . S
C232 C233 1.386 . S
C232 C234 1.391 . S
C233 C232 1.386 . S
C233 C237 1.393 . S
C234 H226 0.950 . S
C234 C232 1.391 . S
C234 C235 1.400 . S
C235 C234 1.400 . S
C235 C236 1.398 . S
C235 C241 1.491 . S
C236 H227 0.950 . S
C236 C235 1.398 . S
C236 C237 1.391 . S
C237 H225 0.950 . S
C237 C233 1.393 . S
C237 C236 1.391 . S
C238 H228 0.950 . S
C238 C239 1.386 . S
C238 C240 1.391 . S
C239 C238 1.386 . S
C239 C243 1.393 . S
C240 H229 0.950 . S
C240 C238 1.391 . S
C240 C241 1.400 . S
C241 C235 1.491 . S
C241 C240 1.400 . S
C241 C242 1.398 . S
C242 H230 0.950 . S
C242 C241 1.398 . S
C242 C243 1.391 . S
C243 H231 0.950 . S
C243 C239 1.393 . S
C243 C242 1.391 . S
H244 C252 0.950 . S
H245 C257 0.950 . S
H246 C254 0.950 . S
H247 C256 0.950 . S
H248 C258 0.950 1_655 S
H249 C260 0.950 . S
H250 C262 0.950 . S
H251 C263 0.950 . S
C252 H244 0.950 . S
C252 C253 1.386 . S
C252 C254 1.391 . S
C253 C252 1.386 . S
C253 C257 1.393 . S
C254 H246 0.950 . S
C254 C252 1.391 . S
C254 C255 1.400 . S
C255 C254 1.400 . S
C255 C256 1.398 . S
C255 C261 1.491 . S
C256 H247 0.950 . S
C256 C255 1.398 . S
C256 C257 1.391 . S
C257 H245 0.950 . S
C257 C253 1.393 . S
C257 C256 1.391 . S
C258 H248 0.950 1_455 S
C258 C259 1.386 . S
C258 C260 1.391 1_565 S
C259 C258 1.386 . S
C259 C263 1.393 1_565 S
C260 H249 0.950 . S
C260 C258 1.391 1_545 S
C260 C261 1.400 . S
C261 C255 1.491 . S
C261 C260 1.400 . S
C261 C262 1.398 . S
C262 H250 0.950 . S
C262 C261 1.398 . S
C262 C263 1.391 . S
C263 H251 0.950 . S
C263 C259 1.393 1_545 S
C263 C262 1.391 . S
H264 C272 0.950 . S
H265 C277 0.950 . S
H266 C274 0.950 . S
H267 C276 0.950 . S
H268 C278 0.950 . S
H269 C280 0.950 . S
H270 C282 0.950 . S
H271 C283 0.950 . S
C272 H264 0.950 . S
C272 C273 1.386 . S
C272 C274 1.391 . S
C273 C272 1.386 . S
C273 C277 1.393 . S
C274 H266 0.950 . S
C274 C272 1.391 . S
C274 C275 1.400 . S
C275 C274 1.400 . S
C275 C276 1.398 . S
C275 C281 1.491 . S
C276 H267 0.950 . S
C276 C275 1.398 . S
C276 C277 1.391 . S
C277 H265 0.950 . S
C277 C273 1.393 . S
C277 C276 1.391 . S
C278 H268 0.950 . S
C278 C279 1.386 . S
C278 C280 1.391 . S
C279 C278 1.386 . S
C279 C283 1.393 . S
C280 H269 0.950 . S
C280 C278 1.391 . S
C280 C281 1.400 . S
C281 C275 1.491 . S
C281 C280 1.400 . S
C281 C282 1.398 . S
C282 H270 0.950 . S
C282 C281 1.398 . S
C282 C283 1.391 . S
C283 H271 0.950 . S
C283 C279 1.393 . S
C283 C282 1.391 . S
H284 C292 0.950 . S
H285 C297 0.950 . S
H286 C294 0.950 . S
H287 C296 0.950 . S
H288 C298 0.950 . S
H289 C300 0.950 . S
H290 C302 0.950 . S
H291 C303 0.950 . S
C292 H284 0.950 . S
C292 C293 1.386 . S
C292 C294 1.391 . S
C293 C292 1.386 . S
C293 C297 1.393 1_655 S
C294 H286 0.950 . S
C294 C292 1.391 . S
C294 C295 1.400 . S
C295 C294 1.400 . S
C295 C296 1.398 1_655 S
C295 C301 1.491 . S
C296 H287 0.950 . S
C296 C295 1.398 1_455 S
C296 C297 1.391 . S
C297 H285 0.950 . S
C297 C293 1.393 1_455 S
C297 C296 1.391 . S
C298 H288 0.950 . S
C298 C299 1.386 1_455 S
C298 C300 1.391 . S
C299 C298 1.386 1_655 S
C299 C303 1.393 . S
C300 H289 0.950 . S
C300 C298 1.391 . S
C300 C301 1.400 1_455 S
C301 C295 1.491 . S
C301 C300 1.400 1_655 S
C301 C302 1.398 . S
C302 H290 0.950 . S
C302 C301 1.398 . S
C302 C303 1.391 . S
C303 H291 0.950 . S
C303 C299 1.393 . S
C303 C302 1.391 . S
H304 C312 0.950 . S
H305 C317 0.950 . S
H306 C314 0.950 . S
H307 C316 0.950 . S
H308 C318 0.950 . S
H309 C320 0.950 . S
H310 C322 0.950 . S
H311 C323 0.950 . S
C312 H304 0.950 . S
C312 C313 1.386 . S
C312 C314 1.391 . S
C313 C312 1.386 . S
C313 C317 1.393 . S
C314 H306 0.950 . S
C314 C312 1.391 . S
C314 C315 1.400 . S
C315 C314 1.400 . S
C315 C316 1.398 . S
C315 C321 1.491 1_554 S
C316 H307 0.950 . S
C316 C315 1.398 . S
C316 C317 1.391 . S
C317 H305 0.950 . S
C317 C313 1.393 . S
C317 C316 1.391 . S
C318 H308 0.950 . S
C318 C319 1.386 . S
C318 C320 1.391 . S
C319 C318 1.386 . S
C319 C323 1.393 . S
C320 H309 0.950 . S
C320 C318 1.391 . S
C320 C321 1.400 . S
C321 C315 1.491 1_556 S
C321 C320 1.400 . S
C321 C322 1.398 . S
C322 H310 0.950 . S
C322 C321 1.398 . S
C322 C323 1.391 . S
C323 H311 0.950 . S
C323 C319 1.393 . S
C323 C322 1.391 . S
H324 C332 0.950 . S
H325 C337 0.950 . S
H326 C334 0.950 . S
H327 C336 0.950 . S
H328 C338 0.950 1_554 S
H329 C340 0.950 . S
H330 C342 0.950 . S
H331 C343 0.950 . S
C332 H324 0.950 . S
C332 C333 1.386 . S
C332 C334 1.391 . S
C333 C332 1.386 . S
C333 C337 1.393 . S
C334 H326 0.950 . S
C334 C332 1.391 . S
C334 C335 1.400 . S
C335 C334 1.400 . S
C335 C336 1.398 . S
C335 C341 1.491 . S
C336 H327 0.950 . S
C336 C335 1.398 . S
C336 C337 1.391 . S
C337 H325 0.950 . S
C337 C333 1.393 . S
C337 C336 1.391 . S
C338 H328 0.950 1_556 S
C338 C339 1.386 1_556 S
C338 C340 1.391 . S
C339 C338 1.386 1_554 S
C339 C343 1.393 . S
C340 H329 0.950 . S
C340 C338 1.391 . S
C340 C341 1.400 . S
C341 C335 1.491 . S
C341 C340 1.400 . S
C341 C342 1.398 . S
C342 H330 0.950 . S
C342 C341 1.398 . S
C342 C343 1.391 1_556 S
C343 H331 0.950 . S
C343 C339 1.393 . S
C343 C342 1.391 1_554 S
H344 C352 0.950 1_545 S
H345 C357 0.950 . S
H346 C354 0.950 1_545 S
H347 C356 0.950 . S
H348 C358 0.950 . S
H349 C360 0.950 . S
H350 C362 0.950 1_545 S
H351 C363 0.950 . S
C352 H344 0.950 1_565 S
C352 C353 1.386 . S
C352 C354 1.391 . S
C353 C352 1.386 . S
C353 C357 1.393 . S
C354 H346 0.950 1_565 S
C354 C352 1.391 . S
C354 C355 1.400 . S
C355 C354 1.400 . S
C355 C356 1.398 . S
C355 C361 1.491 . S
C356 H347 0.950 . S
C356 C355 1.398 . S
C356 C357 1.391 . S
C357 H345 0.950 . S
C357 C353 1.393 . S
C357 C356 1.391 . S
C358 H348 0.950 . S
C358 C359 1.386 . S
C358 C360 1.391 . S
C359 C358 1.386 . S
C359 C363 1.393 . S
C360 H349 0.950 . S
C360 C358 1.391 . S
C360 C361 1.400 . S
C361 C355 1.491 . S
C361 C360 1.400 . S
C361 C362 1.398 . S
C362 H350 0.950 1_565 S
C362 C361 1.398 . S
C362 C363 1.391 . S
C363 H351 0.950 . S
C363 C359 1.393 . S
C363 C362 1.391 . S
H364 C372 0.950 . S
H365 C377 0.950 . S
H366 C374 0.950 . S
H367 C376 0.950 . S
H368 C378 0.950 . S
H369 C380 0.950 . S
H370 C382 0.950 . S
H371 C383 0.950 . S
C372 H364 0.950 . S
C372 C373 1.386 . S
C372 C374 1.391 . S
C373 C372 1.386 . S
C373 C377 1.393 . S
C374 H366 0.950 . S
C374 C372 1.391 . S
C374 C375 1.400 . S
C375 C374 1.400 . S
C375 C376 1.398 . S
C375 C381 1.491 . S
C376 H367 0.950 . S
C376 C375 1.398 . S
C376 C377 1.391 . S
C377 H365 0.950 . S
C377 C373 1.393 . S
C377 C376 1.391 . S
C378 H368 0.950 . S
C378 C379 1.386 . S
C378 C380 1.391 . S
C379 C378 1.386 . S
C379 C383 1.393 . S
C380 H369 0.950 . S
C380 C378 1.391 . S
C380 C381 1.400 . S
C381 C375 1.491 . S
C381 C380 1.400 . S
C381 C382 1.398 . S
C382 H370 0.950 . S
C382 C381 1.398 . S
C382 C383 1.391 . S
C383 H371 0.950 . S
C383 C379 1.393 . S
C383 C382 1.391 . S
H384 C392 0.950 . S
H385 C397 0.950 . S
H386 C394 0.950 . S
H387 C396 0.950 . S
H388 C398 0.950 . S
H389 C400 0.950 . S
H390 C402 0.950 . S
H391 C403 0.950 . S
C392 H384 0.950 . S
C392 C393 1.386 . S
C392 C394 1.391 . S
C393 C392 1.386 . S
C393 C397 1.393 . S
C394 H386 0.950 . S
C394 C392 1.391 . S
C394 C395 1.400 . S
C395 C394 1.400 . S
C395 C396 1.398 . S
C395 C401 1.491 . S
C396 H387 0.950 . S
C396 C395 1.398 . S
C396 C397 1.391 . S
C397 H385 0.950 . S
C397 C393 1.393 . S
C397 C396 1.391 . S
C398 H388 0.950 . S
C398 C399 1.386 . S
C398 C400 1.391 1_565 S
C399 C398 1.386 . S
C399 C403 1.393 1_565 S
C400 H389 0.950 . S
C400 C398 1.391 1_545 S
C400 C401 1.400 . S
C401 C395 1.491 . S
C401 C400 1.400 . S
C401 C402 1.398 . S
C402 H390 0.950 . S
C402 C401 1.398 . S
C402 C403 1.391 . S
C403 H391 0.950 . S
C403 C399 1.393 1_545 S
C403 C402 1.391 . S
H404 C412 0.950 . S
H405 C417 0.950 . S
H406 C414 0.950 . S
H407 C416 0.950 . S
H408 C418 0.950 . S
H409 C420 0.950 . S
H410 C422 0.950 . S
H411 C423 0.950 . S
C412 H404 0.950 . S
C412 C413 1.386 . S
C412 C414 1.391 . S
C413 C412 1.386 . S
C413 C417 1.393 . S
C414 H406 0.950 . S
C414 C412 1.391 . S
C414 C415 1.400 . S
C415 C414 1.400 . S
C415 C416 1.398 . S
C415 C421 1.491 1_655 S
C416 H407 0.950 . S
C416 C415 1.398 . S
C416 C417 1.391 . S
C417 H405 0.950 . S
C417 C413 1.393 . S
C417 C416 1.391 . S
C418 H408 0.950 . S
C418 C419 1.386 . S
C418 C420 1.391 . S
C419 C418 1.386 . S
C419 C423 1.393 . S
C420 H409 0.950 . S
C420 C418 1.391 . S
C420 C421 1.400 . S
C421 C415 1.491 1_455 S
C421 C420 1.400 . S
C421 C422 1.398 . S
C422 H410 0.950 . S
C422 C421 1.398 . S
C422 C423 1.391 . S
C423 H411 0.950 . S
C423 C419 1.393 . S
C423 C422 1.391 . S
H424 C432 0.950 . S
H425 C437 0.950 . S
H426 C434 0.950 . S
H427 C436 0.950 . S
H428 C438 0.950 . S
H429 C440 0.950 . S
H430 C442 0.950 . S
H431 C443 0.950 . S
C432 H424 0.950 . S
C432 C433 1.386 . S
C432 C434 1.391 . S
C433 C432 1.386 . S
C433 C437 1.393 . S
C434 H426 0.950 . S
C434 C432 1.391 . S
C434 C435 1.400 . S
C435 C434 1.400 . S
C435 C436 1.398 . S
C435 C441 1.491 . S
C436 H427 0.950 . S
C436 C435 1.398 . S
C436 C437 1.391 . S
C437 H425 0.950 . S
C437 C433 1.393 . S
C437 C436 1.391 . S
C438 H428 0.950 . S
C438 C439 1.386 . S
C438 C440 1.391 . S
C439 C438 1.386 . S
C439 C443 1.393 . S
C440 H429 0.950 . S
C440 C438 1.391 . S
C440 C441 1.400 . S
C441 C435 1.491 . S
C441 C440 1.400 . S
C441 C442 1.398 . S
C442 H430 0.950 . S
C442 C441 1.398 . S
C442 C443 1.391 . S
C443 H431 0.950 . S
C443 C439 1.393 . S
C443 C442 1.391 . S
H444 C452 0.950 . S
H445 C457 0.950 . S
H446 C454 0.950 . S
H447 C456 0.950 . S
H448 C458 0.950 . S
H449 C460 0.950 . S
H450 C462 0.950 . S
H451 C463 0.950 . S
C452 H444 0.950 . S
C452 C453 1.386 . S
C452 C454 1.391 . S
C453 C452 1.386 . S
C453 C457 1.393 . S
C454 H446 0.950 . S
C454 C452 1.391 . S
C454 C455 1.400 . S
C455 C454 1.400 . S
C455 C456 1.398 . S
C455 C461 1.491 . S
C456 H447 0.950 . S
C456 C455 1.398 . S
C456 C457 1.391 . S
C457 H445 0.950 . S
C457 C453 1.393 . S
C457 C456 1.391 . S
C458 H448 0.950 . S
C458 C459 1.386 . S
C458 C460 1.391 . S
C459 C458 1.386 . S
C459 C463 1.393 . S
C460 H449 0.950 . S
C460 C458 1.391 . S
C460 C461 1.400 . S
C461 C455 1.491 . S
C461 C460 1.400 . S
C461 C462 1.398 . S
C462 H450 0.950 . S
C462 C461 1.398 . S
C462 C463 1.391 . S
C463 H451 0.950 . S
C463 C459 1.393 . S
C463 C462 1.391 . S
H464 C472 0.950 . S
H465 C477 0.950 . S
H466 C474 0.950 . S
H467 C476 0.950 . S
H468 C478 0.950 . S
H469 C480 0.950 . S
H470 C482 0.950 . S
H471 C483 0.950 . S
C472 H464 0.950 . S
C472 C473 1.386 . S
C472 C474 1.391 . S
C473 C472 1.386 . S
C473 C477 1.393 . S
C474 H466 0.950 . S
C474 C472 1.391 . S
C474 C475 1.400 . S
C475 C474 1.400 . S
C475 C476 1.398 . S
C475 C481 1.491 . S
C476 H467 0.950 . S
C476 C475 1.398 . S
C476 C477 1.391 . S
C477 H465 0.950 . S
C477 C473 1.393 . S
C477 C476 1.391 . S
C478 H468 0.950 . S
C478 C479 1.386 . S
C478 C480 1.391 . S
C479 C478 1.386 . S
C479 C483 1.393 . S
C480 H469 0.950 . S
C480 C478 1.391 . S
C480 C481 1.400 . S
C481 C475 1.491 . S
C481 C480 1.400 . S
C481 C482 1.398 . S
C482 H470 0.950 . S
C482 C481 1.398 . S
C482 C483 1.391 . S
C483 H471 0.950 . S
C483 C479 1.393 . S
C483 C482 1.391 . S
H484 C492 0.950 . S
H485 C497 0.950 . S
H486 C494 0.950 . S
H487 C496 0.950 . S
H488 C498 0.950 . S
H489 C500 0.950 . S
H490 C502 0.950 . S
H491 C503 0.950 . S
C492 H484 0.950 . S
C492 C493 1.386 . S
C492 C494 1.391 . S
C493 C492 1.386 . S
C493 C497 1.393 . S
C494 H486 0.950 . S
C494 C492 1.391 . S
C494 C495 1.400 . S
C495 C494 1.400 . S
C495 C496 1.398 . S
C495 C501 1.491 . S
C496 H487 0.950 . S
C496 C495 1.398 . S
C496 C497 1.391 . S
C497 H485 0.950 . S
C497 C493 1.393 . S
C497 C496 1.391 . S
C498 H488 0.950 . S
C498 C499 1.386 . S
C498 C500 1.391 . S
C499 C498 1.386 . S
C499 C503 1.393 . S
C500 H489 0.950 . S
C500 C498 1.391 . S
C500 C501 1.400 . S
C501 C495 1.491 . S
C501 C500 1.400 . S
C501 C502 1.398 . S
C502 H490 0.950 . S
C502 C501 1.398 . S
C502 C503 1.391 . S
C503 H491 0.950 . S
C503 C499 1.393 . S
C503 C502 1.391 . S
C213 C107 1.427 . S
C219 C20 1.477 . S
C233 C138 1.481 . S
C239 C9 1.471 1_655 S
C253 C2 1.434 . S
C259 C175 1.191 . S
C273 C77 1.370 . S
C279 C5 1.282 . S
C293 C179 1.250 . S
C299 C54 1.184 1_655 S
C313 C73 1.155 . S
C319 C39 0.996 . S
C333 C36 1.160 . S
C339 C111 1.142 . S
C353 C156 1.397 . S
C359 C43 1.426 . S
C373 C88 1.450 . S
C379 C122 1.492 . S
C393 C70 1.588 . S
C399 C172 1.622 . S
C413 C141 1.091 . S
C419 C104 1.213 . S
C433 C190 1.626 . S
C439 C145 1.596 . S
C453 C67 1.705 . S
C459 C33 1.702 . S
C473 C169 1.622 . S
C479 C101 1.615 . S
C493 C203 1.326 . S
C499 C135 1.312 . S
