# Generated by pormake.
# Topology sxb, (6)-cn, num edge types: 1
# Building blocks:
#     Node 0, Type 0, BuildingBlock: UKALOJ_clean_sbu_0, # of connection points: 6
#     Node 1, Type 0, BuildingBlock: UKALOJ_clean_sbu_0, # of connection points: 6
#     Node 2, Type 0, BuildingBlock: UKALOJ_clean_sbu_0, # of connection points: 6
#     Node 3, Type 0, BuildingBlock: UKALOJ_clean_sbu_0, # of connection points: 6
#     Edge 4, Type (0, 0), BuildingBlock: TEMPAE_clean_linker_10, # of connection points: 2
#     Edge 5, Type (0, 0), BuildingBlock: TEMPAE_clean_linker_10, # of connection points: 2
#     Edge 6, Type (0, 0), BuildingBlock: TEMPAE_clean_linker_10, # of connection points: 2
#     Edge 7, Type (0, 0), BuildingBlock: TEMPAE_clean_linker_10, # of connection points: 2
#     Edge 8, Type (0, 0), BuildingBlock: TEMPAE_clean_linker_10, # of connection points: 2
#     Edge 9, Type (0, 0), BuildingBlock: TEMPAE_clean_linker_10, # of connection points: 2
#     Edge 10, Type (0, 0), BuildingBlock: TEMPAE_clean_linker_10, # of connection points: 2
#     Edge 11, Type (0, 0), BuildingBlock: TEMPAE_clean_linker_10, # of connection points: 2
#     Edge 12, Type (0, 0), BuildingBlock: TEMPAE_clean_linker_10, # of connection points: 2
#     Edge 13, Type (0, 0), BuildingBlock: TEMPAE_clean_linker_10, # of connection points: 2
#     Edge 14, Type (0, 0), BuildingBlock: TEMPAE_clean_linker_10, # of connection points: 2
#     Edge 15, Type (0, 0), BuildingBlock: TEMPAE_clean_linker_10, # of connection points: 2
# Relax obj value: 0.093
# Max RMSD: 0.145
# Mean RMSD: 0.145
data_MOF--net-sxb--node1-UKALOJ_clean_sbu_0--edge1-TEMPAE_clean_linker_10
_symmetry_space_group_name_H-M    P1
_symmetry_Int_Tables_number       1
_symmetry_cell_setting            triclinic
loop_
_symmetry_equiv_pos_as_xyz
'x, y, z'
_cell_length_a     15.066814
_cell_length_b     27.08519
_cell_length_c     40.898856
_cell_angle_alpha  98.774465
_cell_angle_beta   89.940629
_cell_angle_gamma 89.949248
loop_
_atom_site_label
_atom_site_type_symbol
_atom_site_fract_x
_atom_site_fract_y
_atom_site_fract_z
_atom_type_partial_charge
Zn0 Zn 0.94965 0.04802 0.06209 0.0
O1 O -0.0013 0.97556 0.0661 0.0
C2 C 0.12232 0.06556 0.03721 0.0
Zn3 Zn 0.94818 0.0275 1.00707 0.0
C4 C 0.01131 0.94342 0.04042 0.0
O5 O -0.00951 0.95402 1.01218 0.0
C6 C 0.88795 0.13233 0.02894 0.0
O7 O 0.81722 0.00552 1.00428 0.0
O8 O 0.81673 0.0224 0.05859 0.0
N9 N -0.03579 0.0097 0.95675 0.0
C10 C 0.91909 0.01903 0.92979 0.0
C11 C 0.03834 0.98116 0.91278 0.0
N12 N 0.03772 0.98579 0.94597 0.0
N13 N -0.03529 0.00163 0.9018 0.0
C14 C -0.02298 0.05231 0.1387 0.0
C15 C 0.86429 0.09553 0.15697 0.0
N16 N 0.93337 0.06476 0.11231 0.0
N17 N 0.86358 0.09166 0.12381 0.0
N18 N 0.9345 0.07104 0.16718 0.0
H19 H 0.0484 0.98337 0.13454 0.0
H20 H 0.10463 0.03573 0.15839 0.0
H21 H 0.10008 0.02943 0.11383 0.0
C22 C 0.06277 0.02386 0.13629 0.0
C23 C 0.8325 0.04657 0.93103 0.0
H24 H 0.81597 0.06451 0.95638 0.0
H25 H 0.77864 0.01972 0.92272 0.0
H26 H 0.8344 0.075 0.91417 0.0
O27 O 0.90507 0.10132 1.0031 0.0
O28 O 0.90277 0.12036 0.05727 0.0
C29 C 0.77585 0.00869 0.03154 0.0
O30 O 0.08089 0.07319 0.06454 0.0
O31 O 0.08119 0.04925 1.0107 0.0
Zn32 Zn -0.02789 0.03308 0.56167 0.0
O33 O 0.83841 0.05678 0.56085 0.0
C34 C 0.90549 0.93426 0.53351 0.0
Zn35 Zn -0.02978 0.02609 0.5065 0.0
C36 C 0.79802 0.05888 0.53378 0.0
O37 O 0.84001 0.05024 0.50657 0.0
C38 C 0.14446 0.0008 0.53384 0.0
O39 O 0.01909 0.09939 0.50666 0.0
O40 O 0.02058 0.10696 0.56085 0.0
N41 N -0.02902 0.01093 0.45575 0.0
C42 C -0.03419 0.03947 0.4315 0.0
C43 C -0.02616 0.96359 0.40818 0.0
N44 N -0.02398 0.96386 0.44112 0.0
N45 N -0.03223 0.01059 0.40156 0.0
C46 C 0.92884 0.02916 0.63652 0.0
C47 C 0.01683 0.08507 0.66014 0.0
N48 N -0.02617 0.04748 0.61244 0.0
N49 N 0.02823 0.08224 0.62727 0.0
N50 N 0.95479 0.05218 0.66665 0.0
H51 H 0.81738 0.99672 0.60827 0.0
H52 H 0.81118 0.99357 0.6521 0.0
H53 H 0.88607 0.95325 0.62594 0.0
C54 C 0.85623 0.99115 0.63044 0.0
C55 C 0.95456 0.09505 0.43712 0.0
H56 H 0.90984 0.10655 0.45849 0.0
H57 H 0.92714 0.10836 0.41484 0.0
H58 H 0.02024 0.11283 0.44272 0.0
O59 O 0.10219 0.00234 0.50718 0.0
O60 O 0.10452 0.00963 0.56144 0.0
C61 C 0.03707 0.12495 0.53454 0.0
O62 O 0.92624 0.95883 0.56143 0.0
O63 O 0.91964 0.95307 0.50737 0.0
Zn64 Zn 0.45464 0.54322 0.06383 0.0
O65 O 0.49808 0.46804 0.06187 0.0
C66 C 0.63096 0.56908 0.04209 0.0
Zn67 Zn 0.45996 0.53841 1.00909 0.0
C68 C 0.51811 0.44376 0.03372 0.0
O69 O 0.50611 0.46394 1.00799 0.0
C70 C 0.39521 0.63746 0.03857 0.0
O71 O 0.32742 0.5141 1.00481 0.0
O72 O 0.32321 0.51999 0.05893 0.0
N73 N 0.47724 0.53002 0.95906 0.0
C74 C 0.43108 0.54235 0.93318 0.0
C75 C 0.55137 0.50781 0.91436 0.0
N76 N 0.55178 0.50864 0.94721 0.0
N77 N 0.47658 0.52866 0.90441 0.0
C78 C 0.4803 0.53352 0.13866 0.0
C79 C 0.3784 0.58255 0.16053 0.0
N80 N 0.44007 0.553 0.11406 0.0
N81 N 0.37717 0.58355 0.12778 0.0
N82 N 0.44264 0.55163 0.16809 0.0
H83 H 0.51713 0.45723 0.12428 0.0
H84 H 0.58658 0.48954 0.15596 0.0
H85 H 0.59727 0.5014 0.11381 0.0
C86 C 0.54986 0.49348 0.13311 0.0
C87 C 0.34173 0.56691 0.9368 0.0
H88 H 0.31341 0.56614 0.96162 0.0
H89 H 0.29529 0.54798 0.91789 0.0
H90 H 0.34851 0.60675 0.93382 0.0
O91 O 0.41504 0.61294 1.0105 0.0
O92 O 0.40874 0.61797 0.06452 0.0
C93 C 0.28416 0.51142 0.03118 0.0
O94 O 0.58801 0.56604 0.06841 0.0
O95 O 0.59158 0.56186 1.01441 0.0
Zn96 Zn 0.46921 0.5399 0.56089 0.0
O97 O 0.33825 0.56525 0.56158 0.0
C98 C 0.4096 0.43546 0.53918 0.0
Zn99 Zn 0.47235 0.52015 0.50611 0.0
C100 C 0.29719 0.55727 0.53424 0.0
O101 O 0.33863 0.5405 0.50784 0.0
C102 C 0.64428 0.50138 0.53222 0.0
O103 O 0.51402 0.59437 0.50214 0.0
O104 O 0.51641 0.6121 0.55631 0.0
N105 N 0.46307 0.50087 0.45593 0.0
C106 C 0.50332 0.51741 0.4302 0.0
C107 C 0.4126 0.46035 0.41021 0.0
N108 N 0.40704 0.46532 0.4434 0.0
N109 N 0.47256 0.49263 0.40129 0.0
C110 C 0.43273 0.54779 0.6372 0.0
C111 C 0.54969 0.5862 0.65588 0.0
N112 N 0.48106 0.55714 0.611 0.0
N113 N 0.55343 0.58105 0.62275 0.0
N114 N 0.47485 0.56563 0.66594 0.0
H115 H 0.31254 0.52537 0.61006 0.0
H116 H 0.29886 0.53957 0.65426 0.0
H117 H 0.35251 0.48235 0.63553 0.0
C118 C 0.34385 0.52265 0.63412 0.0
C119 C 0.57588 0.5556 0.4334 0.0
H120 H 0.61795 0.55219 0.45516 0.0
H121 H 0.54593 0.59348 0.43687 0.0
H122 H 0.61792 0.55116 0.41085 0.0
O123 O 0.60382 0.4992 0.50489 0.0
O124 O 0.60235 0.51431 0.55915 0.0
C125 C 0.53083 0.62497 0.5282 0.0
O126 O 0.41971 0.46755 0.56502 0.0
O127 O 0.43183 0.44652 0.51122 0.0
C128 C 0.35652 0.71672 0.01715 0.0
C129 C 0.34507 0.68486 0.04077 0.0
C130 C 0.30339 0.7596 0.01767 0.0
C131 C 0.23554 0.76999 0.04184 0.0
C132 C 0.2236 0.73766 0.06562 0.0
C133 C 0.27937 0.69599 0.06511 0.0
C134 C 0.32095 0.79402 0.99265 0.0
C135 C 0.15005 0.74616 0.09098 0.0
C136 C 0.13879 0.90091 0.06287 0.0
C137 C 0.0633 0.89779 0.04265 0.0
C138 C 0.19641 0.85999 0.06233 0.0
C139 C 0.1761 0.8142 0.04208 0.0
C140 C 0.09848 0.81052 0.02226 0.0
C141 C 0.04401 0.85274 0.02224 0.0
C142 C 0.28004 0.86616 0.08284 0.0
C143 C 0.07358 0.76213 1.00081 0.0
H144 H 0.40726 0.70816 0.99831 0.0
H145 H 0.26905 0.67085 0.08302 0.0
H146 H 0.25826 0.80479 0.98141 0.0
H147 H 0.35237 0.82871 1.00536 0.0
H148 H 0.3661 0.77688 0.97258 0.0
H149 H 0.14939 0.71741 0.10766 0.0
H150 H 0.15722 0.78347 0.10623 0.0
H151 H 0.0849 0.74557 0.07827 0.0
H152 H 0.15503 0.93617 0.07803 0.0
H153 H -0.01386 0.85054 1.00635 0.0
H154 H 0.33876 0.85596 0.06682 0.0
H155 H 0.27862 0.84058 0.10159 0.0
H156 H 0.28869 0.90503 0.09576 0.0
H157 H 0.12591 0.75139 0.98195 0.0
H158 H 0.00927 0.76484 0.98794 0.0
H159 H 0.06896 0.73169 1.01609 0.0
C160 C 0.55829 0.3653 0.05607 0.0
C161 C 0.56507 0.39518 0.03106 0.0
C162 C 0.60849 0.32118 0.0547 0.0
C163 C 0.66911 0.30763 0.0283 0.0
C164 C 0.67572 0.33759 1.00292 0.0
C165 C 0.62265 0.38048 1.00433 0.0
C166 C 0.5973 0.28932 0.08167 0.0
C167 C 0.74099 0.32525 0.97479 0.0
C168 C 0.86265 0.22405 0.04449 0.0
C169 C 0.83724 0.17814 0.02649 0.0
C170 C 0.80956 0.26682 0.04461 0.0
C171 C 0.72729 0.26285 0.02758 0.0
C172 C 0.70102 0.21618 1.00972 0.0
C173 C 0.75721 0.1746 1.00889 0.0
C174 C 0.84136 0.31618 0.06304 0.0
C175 C 0.61243 0.20976 0.99237 0.0
H176 H 0.51376 0.37643 0.07672 0.0
H177 H 0.62915 0.40375 0.98512 0.0
H178 H 0.58238 0.25019 0.07065 0.0
H179 H 0.66003 0.28877 0.09577 0.0
H180 H 0.54329 0.3032 0.09921 0.0
H181 H 0.73992 0.35325 0.95757 0.0
H182 H 0.80922 0.32347 0.98476 0.0
H183 H 0.72588 0.288 0.96058 0.0
H184 H 0.92419 0.22646 0.05836 0.0
H185 H 0.7366 0.13863 0.9957 0.0
H186 H 0.79441 0.32998 0.08329 0.0
H187 H 0.84326 0.34447 0.04609 0.0
H188 H 0.90849 0.31338 0.07382 0.0
H189 H 0.55816 0.22065 1.0104 0.0
H190 H 0.60101 0.17066 0.98033 0.0
H191 H 0.60817 0.23466 0.97328 0.0
C192 C 0.07388 0.20476 0.51363 0.0
C193 C 0.0882 0.17181 0.53634 0.0
C194 C 0.12613 0.24795 0.51434 0.0
C195 C 0.1961 0.25743 0.53766 0.0
C196 C 0.21178 0.22351 0.56016 0.0
C197 C 0.15667 0.18163 0.55961 0.0
C198 C 0.1054 0.28371 0.49048 0.0
C199 C 0.28791 0.23087 0.58439 0.0
C200 C 0.38078 0.3451 0.51892 0.0
C201 C 0.36049 0.38868 0.54074 0.0
C202 C 0.32871 0.30185 0.51799 0.0
C203 C 0.25289 0.30279 0.53865 0.0
C204 C 0.23174 0.34704 0.56049 0.0
C205 C 0.28671 0.38916 0.56169 0.0
C206 C 0.35532 0.25513 0.49507 0.0
C207 C 0.14982 0.35033 0.582 0.0
H208 H 0.02117 0.197 0.49554 0.0
H209 H 0.16926 0.15545 0.57666 0.0
H210 H 0.07586 0.31819 0.50436 0.0
H211 H 0.16669 0.29459 0.47833 0.0
H212 H 0.05768 0.26764 0.47105 0.0
H213 H 0.29303 0.20008 0.5994 0.0
H214 H 0.35134 0.23311 0.57088 0.0
H215 H 0.27964 0.26665 0.60135 0.0
H216 H 0.43757 0.34486 0.50259 0.0
H217 H 0.26963 0.42328 0.57799 0.0
H218 H 0.29788 0.23924 0.48009 0.0
H219 H 0.37798 0.22664 0.51001 0.0
H220 H 0.40992 0.26206 0.47807 0.0
H221 H 0.09017 0.34082 0.56642 0.0
H222 H 0.1405 0.38816 0.59647 0.0
H223 H 0.1542 0.32283 0.59945 0.0
C224 C 0.87302 0.85089 0.55036 0.0
C225 C 0.85208 0.88829 0.53151 0.0
C226 C 0.81985 0.80787 0.54876 0.0
C227 C 0.742 0.80346 0.529 0.0
C228 C 0.71973 0.84193 0.5106 0.0
C229 C 0.77596 0.88337 0.5116 0.0
C230 C 0.84709 0.76707 0.56806 0.0
C231 C 0.6357 0.83979 0.49032 0.0
C232 C 0.64167 0.67482 0.50182 0.0
C233 C 0.5773 0.67251 0.5263 0.0
C234 C 0.69586 0.71714 0.50243 0.0
C235 C 0.68368 0.75871 0.52762 0.0
C236 C 0.61625 0.7573 0.55163 0.0
C237 C 0.56491 0.71386 0.55102 0.0
C238 C 0.76822 0.71666 0.47681 0.0
C239 C 0.59912 0.80142 0.57823 0.0
H240 H 0.93165 0.85496 0.56588 0.0
H241 H 0.75876 0.91294 0.49758 0.0
H242 H 0.79528 0.76204 0.58654 0.0
H243 H 0.85343 0.73106 0.55115 0.0
H244 H 0.91116 0.77532 0.58117 0.0
H245 H 0.62639 0.87372 0.47847 0.0
H246 H 0.63705 0.80663 0.47072 0.0
H247 H 0.57731 0.83579 0.50627 0.0
H248 H 0.65271 0.64255 0.48308 0.0
H249 H 0.51533 0.71206 0.57004 0.0
H250 H 0.83384 0.72103 0.48922 0.0
H251 H 0.75977 0.74861 0.46306 0.0
H252 H 0.76872 0.68153 0.45879 0.0
H253 H 0.65825 0.80854 0.59439 0.0
H254 H 0.54097 0.7954 0.59387 0.0
H255 H 0.58738 0.83554 0.56688 0.0
C256 C 0.24822 0.00882 0.02659 0.0
C257 C 0.21783 0.0574 0.03742 0.0
C258 C 0.33826 0.99735 0.02705 0.0
C259 C 0.39936 0.0359 0.03775 0.0
C260 C 0.369 0.08521 0.04897 0.0
C261 C 0.27752 0.09529 0.04924 0.0
C262 C 0.36779 0.94414 1.01577 0.0
C263 C 0.43314 0.12725 0.05997 0.0
C264 C 0.63237 0.00248 0.06079 0.0
C265 C 0.67852 0.007 0.03164 0.0
C266 C 0.54064 0.01072 0.06296 0.0
C267 C 0.49522 0.02481 0.03557 0.0
C268 C 0.54103 0.02781 1.00575 0.0
C269 C 0.63214 0.01823 1.00402 0.0
C270 C 0.49286 0.00579 0.09478 0.0
C271 C 0.49454 0.04309 0.97613 0.0
H272 H 0.20092 0.97946 0.01813 0.0
H273 H 0.25291 0.13262 0.0579 0.0
H274 H 0.41016 0.9423 0.99342 0.0
H275 H 0.40828 0.93069 0.03528 0.0
H276 H 0.31074 0.91837 1.00985 0.0
H277 H 0.39865 0.16318 0.06849 0.0
H278 H 0.47528 0.11789 0.08039 0.0
H279 H 0.47807 0.13232 0.03922 0.0
H280 H 0.66838 0.99391 0.08217 0.0
H281 H 0.66784 0.02246 0.98158 0.0
H282 H 0.4358 0.97988 0.08972 0.0
H283 H 0.46582 0.04262 0.10597 0.0
H284 H 0.5371 0.99182 0.11307 0.0
H285 H 0.53994 0.04322 0.95471 0.0
H286 H 0.46606 0.08109 0.98284 0.0
H287 H 0.43871 0.01729 0.96836 0.0
C288 C 0.30018 0.97522 0.54388 0.0
C289 C 0.24001 0.00872 0.5334 0.0
C290 C 0.39146 0.98586 0.54445 0.0
C291 C 0.42114 0.03176 0.53557 0.0
C292 C 0.35954 0.0661 0.52591 0.0
C293 C 0.26973 0.05373 0.52448 0.0
C294 C 0.4561 0.94797 0.55411 0.0
C295 C 0.38818 0.11595 0.5172 0.0
C296 C 0.65236 0.07487 0.56251 0.0
C297 C 0.70048 0.06026 0.5333 0.0
C298 C 0.56048 0.06705 0.56346 0.0
C299 C 0.51693 0.043 0.53475 0.0
C300 C 0.56473 0.02966 0.50496 0.0
C301 C 0.65579 0.0391 0.50449 0.0
C302 C 0.51055 0.08312 0.59534 0.0
C303 C 0.52045 0.00348 0.47395 0.0
H304 H 0.27605 0.94078 0.55114 0.0
H305 H 0.22199 0.07989 0.51705 0.0
H306 H 0.50332 0.93635 0.53351 0.0
H307 H 0.49574 0.96489 0.57578 0.0
H308 H 0.42219 0.91417 0.5603 0.0
H309 H 0.33097 0.13857 0.51083 0.0
H310 H 0.42418 0.13757 0.53832 0.0
H311 H 0.43452 0.11028 0.49586 0.0
H312 H 0.68688 0.09109 0.58483 0.0
H313 H 0.69279 0.02714 0.48191 0.0
H314 H 0.48407 0.0498 0.60479 0.0
H315 H 0.45298 0.10681 0.59091 0.0
H316 H 0.55319 0.1043 0.61474 0.0
H317 H 0.49232 0.96735 0.47865 0.0
H318 H 0.56719 0.99603 0.45274 0.0
H319 H 0.46462 0.02637 0.46687 0.0
C320 C 0.75508 0.5113 0.03146 0.0
C321 C 0.72627 0.5603 0.04175 0.0
C322 C 0.84522 0.49972 0.02936 0.0
C323 C 0.90773 0.53842 0.03748 0.0
C324 C 0.87893 0.58821 0.04814 0.0
C325 C 0.78756 0.59864 0.05034 0.0
C326 C 0.87334 0.44623 0.01817 0.0
C327 C 0.94455 0.63026 0.05685 0.0
C328 C 0.14052 0.5044 0.05987 0.0
C329 C 0.18671 0.50852 0.03062 0.0
C330 C 0.04914 0.51324 0.06226 0.0
C331 C 0.00331 0.52648 0.03474 0.0
C332 C 0.04847 0.5279 1.00456 0.0
C333 C 0.13988 0.5186 1.00279 0.0
C334 C 0.00238 0.51035 0.09461 0.0
C335 C 0.00103 0.5414 0.97462 0.0
H336 H 0.70655 0.48193 0.02492 0.0
H337 H 0.76417 0.63646 0.0582 0.0
H338 H 0.91784 0.43345 0.03679 0.0
H339 H 0.81579 0.42047 1.01423 0.0
H340 H 0.91116 0.44348 0.99468 0.0
H341 H 0.91129 0.66673 0.06488 0.0
H342 H -0.01111 0.62209 0.077 0.0
H343 H -0.01286 0.63356 0.03514 0.0
H344 H 0.17645 0.49639 0.08141 0.0
H345 H 0.17529 0.52198 0.98016 0.0
H346 H 0.94511 0.48443 0.09049 0.0
H347 H -0.02417 0.54768 0.10501 0.0
H348 H 0.04711 0.49749 0.11319 0.0
H349 H 0.94344 0.5163 0.96826 0.0
H350 H 0.04521 0.53895 0.95267 0.0
H351 H -0.02512 0.58008 0.98028 0.0
C352 C 0.14173 0.58712 0.54521 0.0
C353 C 0.20193 0.54878 0.53477 0.0
C354 C 0.05056 0.57667 0.5459 0.0
C355 C 0.02109 0.52664 0.53713 0.0
C356 C 0.08281 0.48776 0.52792 0.0
C357 C 0.17253 0.49951 0.52638 0.0
C358 C -0.01423 0.61905 0.55525 0.0
C359 C 0.05428 0.43386 0.5194 0.0
C360 C 0.78757 0.49721 0.56204 0.0
C361 C 0.74166 0.4989 0.53245 0.0
C362 C 0.87952 0.50473 0.56377 0.0
C363 C 0.9254 0.5152 0.53543 0.0
C364 C 0.87995 0.51495 0.5052 0.0
C365 C 0.78866 0.50613 0.50397 0.0
C366 C 0.92698 0.50315 0.59609 0.0
C367 C 0.92698 0.52619 0.47451 0.0
H368 H 0.1657 0.625 0.55209 0.0
H369 H 0.22037 0.4699 0.51908 0.0
H370 H 0.94034 0.62162 0.53423 0.0
H371 H 0.94424 0.61184 0.57642 0.0
H372 H 0.01966 0.65559 0.56203 0.0
H373 H 0.11182 0.40811 0.51453 0.0
H374 H 0.01463 0.4227 0.53994 0.0
H375 H 0.0114 0.42917 0.49711 0.0
H376 H 0.75128 0.49154 0.58407 0.0
H377 H 0.75343 0.50781 0.48107 0.0
H378 H 0.95258 0.54086 0.60597 0.0
H379 H -0.01503 0.47763 0.59216 0.0
H380 H 0.88286 0.49059 0.61499 0.0
H381 H 0.95631 0.56418 0.47935 0.0
H382 H 0.88174 0.52422 0.45291 0.0
H383 H -0.01776 0.49942 0.46795 0.0
C384 C 0.03579 0.05011 0.35752 0.0
C385 C -0.0354 0.02465 0.36921 0.0
C386 C 0.03729 0.05966 0.3247 0.0
C387 C -0.03524 0.04432 0.30353 0.0
C388 C 0.89148 0.01986 0.31576 0.0
C389 C 0.89305 0.00963 0.34836 0.0
C390 C 0.11745 0.08472 0.31238 0.0
C391 C 0.8118 0.00406 0.29434 0.0
C392 C 0.92564 0.10402 0.22658 0.0
C393 C 0.95185 0.06585 0.20123 0.0
C394 C 0.93121 0.09802 0.26 0.0
C395 C -0.03447 0.05301 0.26843 0.0
C396 C -0.00491 0.01495 0.2431 0.0
C397 C -0.01388 0.02138 0.20981 0.0
C398 C 0.89679 0.139 0.28615 0.0
C399 C 0.03337 0.96666 0.25109 0.0
H400 H 0.09137 0.06096 0.37384 0.0
H401 H 0.83846 0.98979 0.35773 0.0
H402 H 0.14875 0.05935 0.29169 0.0
H403 H 0.09725 0.11902 0.30258 0.0
H404 H 0.16774 0.09491 0.3321 0.0
H405 H 0.75823 0.98815 0.30823 0.0
H406 H 0.78472 0.03651 0.28398 0.0
H407 H 0.83176 0.9756 0.27317 0.0
H408 H 0.89836 0.1383 0.22014 0.0
H409 H 0.00265 0.99068 0.19067 0.0
H410 H 0.94852 0.15024 0.30509 0.0
H411 H 0.83926 0.12499 0.299 0.0
H412 H 0.87554 0.17256 0.27561 0.0
H413 H 0.08533 0.97442 0.2704 0.0
H414 H 0.06277 0.94343 0.22898 0.0
H415 H -0.01951 0.9447 0.26109 0.0
C416 C 0.86575 0.00315 0.85333 0.0
C417 C 0.95006 0.00871 0.86795 0.0
C418 C 0.8532 0.00924 0.82005 0.0
C419 C 0.92702 0.0201 0.80087 0.0
C420 C 0.01233 0.02504 0.81545 0.0
C421 C 0.02259 0.01943 0.84872 0.0
C422 C 0.76125 0.00386 0.80537 0.0
C423 C 0.0931 0.03626 0.79592 0.0
C424 C 0.9355 0.99421 0.70702 0.0
C425 C 0.93109 0.0427 0.69918 0.0
C426 C 0.92858 0.98576 0.74 0.0
C427 C 0.91647 0.02684 0.76559 0.0
C428 C 0.9063 0.07549 0.75742 0.0
C429 C 0.91477 0.08286 0.72434 0.0
C430 C 0.94093 0.9334 0.74762 0.0
C431 C 0.89211 0.12022 0.78382 0.0
H432 H 0.81001 0.99299 0.86756 0.0
H433 H 0.08786 0.02364 0.85989 0.0
H434 H 0.74293 0.03822 0.79523 0.0
H435 H 0.75997 0.97248 0.78449 0.0
H436 H 0.71039 0.99692 0.82381 0.0
H437 H 0.15502 0.03776 0.81077 0.0
H438 H 0.10106 0.00728 0.77382 0.0
H439 H 0.08451 0.07266 0.78702 0.0
H440 H 0.94992 0.96334 0.68761 0.0
H441 H 0.91159 0.12031 0.71812 0.0
H442 H 0.88955 0.92451 0.76526 0.0
H443 H 0.0065 0.93051 0.75952 0.0
H444 H 0.93799 0.90501 0.72497 0.0
H445 H 0.8395 0.11242 0.80133 0.0
H446 H 0.87337 0.1541 0.77315 0.0
H447 H 0.95413 0.12828 0.79825 0.0
C448 C 0.48216 0.54944 0.35997 0.0
C449 C 0.48881 0.50119 0.36804 0.0
C450 C 0.48466 0.5574 0.32688 0.0
C451 C 0.49445 0.51602 0.3014 0.0
C452 C 0.50557 0.46747 0.3096 0.0
C453 C 0.50157 0.4606 0.34288 0.0
C454 C 0.47118 0.60965 0.31916 0.0
C455 C 0.51734 0.42253 0.28318 0.0
C456 C 0.38599 0.52715 0.21934 0.0
C457 C 0.45812 0.53925 0.20051 0.0
C458 C 0.39727 0.51895 0.25206 0.0
C459 C 0.48311 0.52284 0.26627 0.0
C460 C 0.55659 0.53456 0.24724 0.0
C461 C 0.54295 0.54333 0.21462 0.0
C462 C 0.31694 0.50715 0.2716 0.0
C463 C 0.64905 0.53877 0.26154 0.0
H464 H 0.47009 0.58059 0.37944 0.0
H465 H 0.50631 0.42333 0.34933 0.0
H466 H 0.52278 0.61883 0.30169 0.0
H467 H 0.40586 0.61202 0.30697 0.0
H468 H 0.47307 0.63818 0.34175 0.0
H469 H 0.53547 0.38848 0.29376 0.0
H470 H 0.45464 0.41514 0.26909 0.0
H471 H 0.56956 0.42978 0.26536 0.0
H472 H 0.32036 0.52468 0.20838 0.0
H473 H 0.59803 0.55462 0.20042 0.0
H474 H 0.30855 0.53617 0.29367 0.0
H475 H 0.32636 0.47088 0.28059 0.0
H476 H 0.25497 0.50522 0.25676 0.0
H477 H 0.65201 0.5704 0.28222 0.0
H478 H 0.69975 0.54483 0.24281 0.0
H479 H 0.66624 0.50437 0.27182 0.0
C480 C 0.40223 0.52501 0.70989 0.0
C481 C 0.45374 0.56357 0.70025 0.0
C482 C 0.38995 0.52106 0.74346 0.0
C483 C 0.43528 0.55421 0.76791 0.0
C484 C 0.48655 0.59344 0.75853 0.0
C485 C 0.49328 0.59827 0.72501 0.0
C486 C 0.33158 0.47996 0.75259 0.0
C487 C 0.53925 0.62838 0.7836 0.0
C488 C 0.39523 0.56642 0.86059 0.0
C489 C 0.45821 0.5329 0.87007 0.0
C490 C 0.38263 0.57125 0.82715 0.0
C491 C 0.43819 0.54454 0.80271 0.0
C492 C 0.50194 0.51093 0.81188 0.0
C493 C 0.50947 0.50468 0.8451 0.0
C494 C 0.3114 0.60605 0.81816 0.0
C495 C 0.56519 0.48307 0.78685 0.0
H496 H 0.37448 0.49634 0.69164 0.0
H497 H 0.53325 0.62822 0.71801 0.0
H498 H 0.37347 0.44906 0.75885 0.0
H499 H 0.29055 0.49389 0.77464 0.0
H500 H 0.28692 0.46458 0.73194 0.0
H501 H 0.57464 0.65753 0.77227 0.0
H502 H 0.49507 0.64709 0.80338 0.0
H503 H 0.58897 0.60668 0.79554 0.0
H504 H 0.3571 0.59035 0.87873 0.0
H505 H 0.55824 0.47847 0.85162 0.0
H506 H 0.27548 0.58893 0.79556 0.0
H507 H 0.34211 0.64115 0.81285 0.0
H508 H 0.26257 0.61572 0.8385 0.0
H509 H 0.52771 0.45889 0.76732 0.0
H510 H 0.6127 0.45934 0.79825 0.0
H511 H 0.6036 0.51005 0.77458 0.0
loop_
_geom_bond_atom_site_label_1
_geom_bond_atom_site_label_2
_geom_bond_distance
_geom_bond_site_symmetry_2
_ccdc_geom_bond_type
Zn0 O1 2.055 1_645 S
Zn0 O8 2.046 1_545 S
Zn0 N16 2.036 . S
Zn0 O28 2.053 . S
Zn0 O30 2.066 1_655 S
O1 Zn0 2.055 1_465 S
O1 C4 1.259 . S
C2 O30 1.256 . S
C2 O31 1.244 1_554 S
Zn3 O5 2.061 . S
Zn3 O7 2.057 1_455 S
Zn3 N9 2.035 . S
Zn3 O27 2.052 1_465 S
Zn3 O31 2.050 1_565 S
C4 O1 1.259 . S
C4 O5 1.254 1_554 S
O5 Zn3 2.061 . S
O5 C4 1.254 1_556 S
C6 O27 1.256 1_554 S
C6 O28 1.244 . S
O7 Zn3 2.057 1_655 S
O7 C29 1.259 1_556 S
O8 Zn0 2.046 1_565 S
O8 C29 1.254 . S
N9 Zn3 2.035 . S
N9 C10 1.298 1_465 S
N9 N12 1.398 . S
C10 N9 1.298 1_645 S
C10 N13 1.367 1_655 S
C10 C23 1.481 . S
C11 N12 1.299 1_545 S
C11 N13 1.379 . S
N12 N9 1.398 . S
N12 C11 1.299 1_565 S
N13 C10 1.367 1_455 S
N13 C11 1.379 . S
C14 N16 1.298 1_455 S
C14 N18 1.367 . S
C14 C22 1.481 1_545 S
C15 N17 1.299 . S
C15 N18 1.379 1_655 S
N16 Zn0 2.036 . S
N16 C14 1.298 1_655 S
N16 N17 1.398 . S
N17 C15 1.299 . S
N17 N16 1.398 . S
N18 C14 1.367 . S
N18 C15 1.379 1_455 S
H19 C22 0.980 . S
H20 C22 0.981 . S
H21 C22 0.981 . S
C22 C14 1.481 1_565 S
C22 H19 0.980 . S
C22 H20 0.981 . S
C22 H21 0.981 . S
C23 C10 1.481 . S
C23 H24 0.980 . S
C23 H25 0.981 . S
C23 H26 0.981 . S
H24 C23 0.980 . S
H25 C23 0.981 . S
H26 C23 0.981 . S
O27 Zn3 2.052 1_645 S
O27 C6 1.256 1_556 S
O28 Zn0 2.053 . S
O28 C6 1.244 . S
C29 O7 1.259 1_554 S
C29 O8 1.254 . S
O30 Zn0 2.066 1_455 S
O30 C2 1.256 . S
O31 C2 1.244 1_556 S
O31 Zn3 2.050 1_545 S
Zn32 O33 2.055 1_455 S
Zn32 O40 2.046 . S
Zn32 N48 2.036 . S
Zn32 O60 2.053 . S
Zn32 O62 2.066 1_445 S
O33 Zn32 2.055 1_655 S
O33 C36 1.259 . S
C34 O62 1.256 . S
C34 O63 1.244 . S
Zn35 O37 2.046 . S
Zn35 O39 2.055 1_655 S
Zn35 N41 2.036 . S
Zn35 O59 2.066 1_655 S
Zn35 O63 2.053 1_545 S
C36 O33 1.259 . S
C36 O37 1.254 . S
O37 Zn35 2.046 . S
O37 C36 1.254 . S
C38 O59 1.256 . S
C38 O60 1.244 . S
O39 Zn35 2.055 1_455 S
O39 C61 1.259 . S
O40 Zn32 2.046 . S
O40 C61 1.254 . S
N41 Zn35 2.036 . S
N41 C42 1.298 1_655 S
N41 N44 1.398 1_545 S
C42 N41 1.298 1_455 S
C42 N45 1.367 . S
C42 C55 1.481 . S
C43 N44 1.299 . S
C43 N45 1.379 1_665 S
N44 N41 1.398 1_565 S
N44 C43 1.299 . S
N45 C42 1.367 . S
N45 C43 1.379 1_445 S
C46 N48 1.298 1_655 S
C46 N50 1.367 1_655 S
C46 C54 1.481 . S
C47 N49 1.299 . S
C47 N50 1.379 . S
N48 Zn32 2.036 . S
N48 C46 1.298 1_455 S
N48 N49 1.398 . S
N49 C47 1.299 . S
N49 N48 1.398 . S
N50 C46 1.367 1_455 S
N50 C47 1.379 . S
H51 C54 0.980 . S
H52 C54 0.981 . S
H53 C54 0.981 . S
C54 C46 1.481 . S
C54 H51 0.980 . S
C54 H52 0.981 . S
C54 H53 0.981 . S
C55 C42 1.481 . S
C55 H56 0.980 . S
C55 H57 0.981 . S
C55 H58 0.981 . S
H56 C55 0.980 . S
H57 C55 0.981 . S
H58 C55 0.981 . S
O59 Zn35 2.066 1_455 S
O59 C38 1.256 . S
O60 Zn32 2.053 . S
O60 C38 1.244 . S
C61 O39 1.259 . S
C61 O40 1.254 . S
O62 Zn32 2.066 1_665 S
O62 C34 1.256 . S
O63 C34 1.244 . S
O63 Zn35 2.053 1_565 S
Zn64 O65 2.055 . S
Zn64 O72 2.046 . S
Zn64 N80 2.036 . S
Zn64 O92 2.053 . S
Zn64 O94 2.066 . S
O65 Zn64 2.055 . S
O65 C68 1.259 . S
C66 O94 1.256 . S
C66 O95 1.244 1_554 S
Zn67 O69 2.046 . S
Zn67 O71 2.055 . S
Zn67 N73 2.036 . S
Zn67 O91 2.066 . S
Zn67 O95 2.053 . S
C68 O65 1.259 . S
C68 O69 1.254 1_554 S
O69 Zn67 2.046 . S
O69 C68 1.254 1_556 S
C70 O91 1.256 1_554 S
C70 O92 1.244 . S
O71 Zn67 2.055 . S
O71 C93 1.259 1_556 S
O72 Zn64 2.046 . S
O72 C93 1.254 . S
N73 Zn67 2.036 . S
N73 C74 1.298 . S
N73 N76 1.398 . S
C74 N73 1.298 . S
C74 N77 1.367 . S
C74 C87 1.481 . S
C75 N76 1.299 . S
C75 N77 1.379 . S
N76 N73 1.398 . S
N76 C75 1.299 . S
N77 C74 1.367 . S
N77 C75 1.379 . S
C78 N80 1.298 . S
C78 N82 1.367 . S
C78 C86 1.481 . S
C79 N81 1.299 . S
C79 N82 1.379 . S
N80 Zn64 2.036 . S
N80 C78 1.298 . S
N80 N81 1.398 . S
N81 C79 1.299 . S
N81 N80 1.398 . S
N82 C78 1.367 . S
N82 C79 1.379 . S
H83 C86 0.980 . S
H84 C86 0.981 . S
H85 C86 0.981 . S
C86 C78 1.481 . S
C86 H83 0.980 . S
C86 H84 0.981 . S
C86 H85 0.981 . S
C87 C74 1.481 . S
C87 H88 0.980 . S
C87 H89 0.981 . S
C87 H90 0.981 . S
H88 C87 0.980 . S
H89 C87 0.981 . S
H90 C87 0.981 . S
O91 Zn67 2.066 . S
O91 C70 1.256 1_556 S
O92 Zn64 2.053 . S
O92 C70 1.244 . S
C93 O71 1.259 1_554 S
C93 O72 1.254 . S
O94 Zn64 2.066 . S
O94 C66 1.256 . S
O95 C66 1.244 1_556 S
O95 Zn67 2.053 . S
Zn96 O97 2.055 . S
Zn96 O104 2.046 . S
Zn96 N112 2.036 . S
Zn96 O124 2.053 . S
Zn96 O126 2.066 . S
O97 Zn96 2.055 . S
O97 C100 1.259 . S
C98 O126 1.256 . S
C98 O127 1.244 . S
Zn99 O101 2.046 . S
Zn99 O103 2.055 . S
Zn99 N105 2.036 . S
Zn99 O123 2.066 . S
Zn99 O127 2.053 . S
C100 O97 1.259 . S
C100 O101 1.254 . S
O101 Zn99 2.046 . S
O101 C100 1.254 . S
C102 O123 1.256 . S
C102 O124 1.244 . S
O103 Zn99 2.055 . S
O103 C125 1.259 . S
O104 Zn96 2.046 . S
O104 C125 1.254 . S
N105 Zn99 2.036 . S
N105 C106 1.298 . S
N105 N108 1.398 . S
C106 N105 1.298 . S
C106 N109 1.367 . S
C106 C119 1.481 . S
C107 N108 1.299 . S
C107 N109 1.379 . S
N108 N105 1.398 . S
N108 C107 1.299 . S
N109 C106 1.367 . S
N109 C107 1.379 . S
C110 N112 1.298 . S
C110 N114 1.367 . S
C110 C118 1.481 . S
C111 N113 1.299 . S
C111 N114 1.379 . S
N112 Zn96 2.036 . S
N112 C110 1.298 . S
N112 N113 1.398 . S
N113 C111 1.299 . S
N113 N112 1.398 . S
N114 C110 1.367 . S
N114 C111 1.379 . S
H115 C118 0.980 . S
H116 C118 0.981 . S
H117 C118 0.981 . S
C118 C110 1.481 . S
C118 H115 0.980 . S
C118 H116 0.981 . S
C118 H117 0.981 . S
C119 C106 1.481 . S
C119 H120 0.980 . S
C119 H121 0.981 . S
C119 H122 0.981 . S
H120 C119 0.980 . S
H121 C119 0.981 . S
H122 C119 0.981 . S
O123 Zn99 2.066 . S
O123 C102 1.256 . S
O124 Zn96 2.053 . S
O124 C102 1.244 . S
C125 O103 1.259 . S
C125 O104 1.254 . S
O126 Zn96 2.066 . S
O126 C98 1.256 . S
O127 C98 1.244 . S
O127 Zn99 2.053 . S
C128 C129 1.391 . S
C128 C130 1.394 . S
C128 H144 0.930 1_554 S
C129 C128 1.391 . S
C129 C133 1.376 . S
C130 C128 1.394 . S
C130 C131 1.369 . S
C130 C134 1.531 1_554 S
C131 C130 1.369 . S
C131 C132 1.410 . S
C131 C139 1.503 . S
C132 C131 1.410 . S
C132 C133 1.392 . S
C132 C135 1.511 . S
C133 C129 1.376 . S
C133 C132 1.392 . S
C133 H145 0.929 . S
C134 C130 1.531 1_556 S
C134 H146 0.960 . S
C134 H147 0.962 1_556 S
C134 H148 0.960 . S
C135 C132 1.511 . S
C135 H149 0.961 . S
C135 H150 0.961 . S
C135 H151 0.959 . S
C136 C137 1.370 . S
C136 C138 1.363 . S
C136 H152 0.931 . S
C137 C136 1.370 . S
C137 C141 1.408 1_554 S
C138 C136 1.363 . S
C138 C139 1.370 . S
C138 C142 1.524 . S
C139 C131 1.503 . S
C139 C138 1.370 . S
C139 C140 1.403 1_554 S
C140 C139 1.403 1_556 S
C140 C141 1.404 . S
C140 C143 1.539 . S
C141 C137 1.408 1_556 S
C141 C140 1.404 . S
C141 H153 0.930 . S
C142 C138 1.524 . S
C142 H154 0.956 . S
C142 H155 0.961 . S
C142 H156 0.961 . S
C143 C140 1.539 . S
C143 H157 0.958 . S
C143 H158 0.961 . S
C143 H159 0.960 . S
H144 C128 0.930 1_556 S
H145 C133 0.929 . S
H146 C134 0.960 . S
H147 C134 0.962 1_554 S
H148 C134 0.960 . S
H149 C135 0.961 . S
H150 C135 0.961 . S
H151 C135 0.959 . S
H152 C136 0.931 . S
H153 C141 0.930 . S
H154 C142 0.956 . S
H155 C142 0.961 . S
H156 C142 0.961 . S
H157 C143 0.958 . S
H158 C143 0.961 . S
H159 C143 0.960 . S
C160 C161 1.391 . S
C160 C162 1.394 . S
C160 H176 0.931 . S
C161 C160 1.391 . S
C161 C165 1.376 1_554 S
C162 C160 1.394 . S
C162 C163 1.369 . S
C162 C166 1.531 . S
C163 C162 1.369 . S
C163 C164 1.410 1_554 S
C163 C171 1.503 . S
C164 C163 1.410 1_556 S
C164 C165 1.392 . S
C164 C167 1.511 . S
C165 C161 1.376 1_556 S
C165 C164 1.392 . S
C165 H177 0.929 . S
C166 C162 1.531 . S
C166 H178 0.960 . S
C166 H179 0.962 . S
C166 H180 0.960 . S
C167 C164 1.511 . S
C167 H181 0.961 . S
C167 H182 0.961 . S
C167 H183 0.961 . S
C168 C169 1.370 . S
C168 C170 1.363 . S
C168 H184 0.931 . S
C169 C168 1.370 . S
C169 C173 1.408 . S
C170 C168 1.363 . S
C170 C171 1.370 . S
C170 C174 1.524 . S
C171 C163 1.503 . S
C171 C170 1.370 . S
C171 C172 1.403 . S
C172 C171 1.403 . S
C172 C173 1.404 . S
C172 C175 1.539 1_554 S
C173 C169 1.408 . S
C173 C172 1.404 . S
C173 H185 0.930 1_554 S
C174 C170 1.524 . S
C174 H186 0.956 . S
C174 H187 0.961 . S
C174 H188 0.961 . S
C175 C172 1.539 1_556 S
C175 H189 0.958 1_556 S
C175 H190 0.961 . S
C175 H191 0.960 . S
H176 C160 0.931 . S
H177 C165 0.929 . S
H178 C166 0.960 . S
H179 C166 0.962 . S
H180 C166 0.960 . S
H181 C167 0.961 . S
H182 C167 0.961 . S
H183 C167 0.961 . S
H184 C168 0.931 . S
H185 C173 0.930 1_556 S
H186 C174 0.956 . S
H187 C174 0.961 . S
H188 C174 0.961 . S
H189 C175 0.958 1_554 S
H190 C175 0.961 . S
H191 C175 0.960 . S
C192 C193 1.391 . S
C192 C194 1.394 . S
C192 H208 0.931 . S
C193 C192 1.391 . S
C193 C197 1.376 . S
C194 C192 1.394 . S
C194 C195 1.369 . S
C194 C198 1.531 . S
C195 C194 1.369 . S
C195 C196 1.410 . S
C195 C203 1.503 . S
C196 C195 1.410 . S
C196 C197 1.392 . S
C196 C199 1.511 . S
C197 C193 1.376 . S
C197 C196 1.392 . S
C197 H209 0.929 . S
C198 C194 1.531 . S
C198 H210 0.960 . S
C198 H211 0.962 . S
C198 H212 0.960 . S
C199 C196 1.511 . S
C199 H213 0.961 . S
C199 H214 0.961 . S
C199 H215 0.961 . S
C200 C201 1.370 . S
C200 C202 1.363 . S
C200 H216 0.931 . S
C201 C200 1.370 . S
C201 C205 1.408 . S
C202 C200 1.363 . S
C202 C203 1.370 . S
C202 C206 1.524 . S
C203 C195 1.503 . S
C203 C202 1.370 . S
C203 C204 1.403 . S
C204 C203 1.403 . S
C204 C205 1.404 . S
C204 C207 1.539 . S
C205 C201 1.408 . S
C205 C204 1.404 . S
C205 H217 0.930 . S
C206 C202 1.524 . S
C206 H218 0.956 . S
C206 H219 0.961 . S
C206 H220 0.961 . S
C207 C204 1.539 . S
C207 H221 0.958 . S
C207 H222 0.961 . S
C207 H223 0.960 . S
H208 C192 0.931 . S
H209 C197 0.929 . S
H210 C198 0.960 . S
H211 C198 0.962 . S
H212 C198 0.960 . S
H213 C199 0.961 . S
H214 C199 0.961 . S
H215 C199 0.961 . S
H216 C200 0.931 . S
H217 C205 0.930 . S
H218 C206 0.956 . S
H219 C206 0.961 . S
H220 C206 0.961 . S
H221 C207 0.958 . S
H222 C207 0.961 . S
H223 C207 0.960 . S
C224 C225 1.391 . S
C224 C226 1.394 . S
C224 H240 0.931 . S
C225 C224 1.391 . S
C225 C229 1.376 . S
C226 C224 1.394 . S
C226 C227 1.369 . S
C226 C230 1.531 . S
C227 C226 1.369 . S
C227 C228 1.410 . S
C227 C235 1.503 . S
C228 C227 1.410 . S
C228 C229 1.392 . S
C228 C231 1.511 . S
C229 C225 1.376 . S
C229 C228 1.392 . S
C229 H241 0.929 . S
C230 C226 1.531 . S
C230 H242 0.960 . S
C230 H243 0.962 . S
C230 H244 0.960 . S
C231 C228 1.511 . S
C231 H245 0.961 . S
C231 H246 0.961 . S
C231 H247 0.961 . S
C232 C233 1.370 . S
C232 C234 1.363 . S
C232 H248 0.931 . S
C233 C232 1.370 . S
C233 C237 1.408 . S
C234 C232 1.363 . S
C234 C235 1.370 . S
C234 C238 1.524 . S
C235 C227 1.503 . S
C235 C234 1.370 . S
C235 C236 1.403 . S
C236 C235 1.403 . S
C236 C237 1.404 . S
C236 C239 1.539 . S
C237 C233 1.408 . S
C237 C236 1.404 . S
C237 H249 0.930 . S
C238 C234 1.524 . S
C238 H250 0.956 . S
C238 H251 0.961 . S
C238 H252 0.961 . S
C239 C236 1.539 . S
C239 H253 0.958 . S
C239 H254 0.961 . S
C239 H255 0.960 . S
H240 C224 0.931 . S
H241 C229 0.929 . S
H242 C230 0.960 . S
H243 C230 0.962 . S
H244 C230 0.960 . S
H245 C231 0.961 . S
H246 C231 0.961 . S
H247 C231 0.961 . S
H248 C232 0.931 . S
H249 C237 0.930 . S
H250 C238 0.956 . S
H251 C238 0.961 . S
H252 C238 0.961 . S
H253 C239 0.958 . S
H254 C239 0.961 . S
H255 C239 0.960 . S
C256 C257 1.391 1_556 S
C256 C258 1.394 . S
C256 H272 0.931 . S
C257 C256 1.391 1_554 S
C257 C261 1.376 . S
C258 C256 1.394 . S
C258 C259 1.369 1_556 S
C258 C262 1.531 1_545 S
C259 C258 1.369 1_554 S
C259 C260 1.410 . S
C259 C267 1.503 . S
C260 C259 1.410 . S
C260 C261 1.392 . S
C260 C263 1.511 . S
C261 C257 1.376 . S
C261 C260 1.392 . S
C261 H273 0.929 . S
C262 C258 1.531 1_565 S
C262 H274 0.960 1_565 S
C262 H275 0.962 . S
C262 H276 0.960 . S
C263 C260 1.511 . S
C263 H277 0.961 . S
C263 H278 0.961 . S
C263 H279 0.961 . S
C264 C265 1.370 . S
C264 C266 1.363 . S
C264 H280 0.931 . S
C265 C264 1.370 . S
C265 C269 1.408 1_565 S
C266 C264 1.363 . S
C266 C267 1.370 1_565 S
C266 C270 1.524 . S
C267 C259 1.503 . S
C267 C266 1.370 1_545 S
C267 C268 1.403 . S
C268 C267 1.403 . S
C268 C269 1.404 . S
C268 C271 1.539 . S
C269 C265 1.408 1_545 S
C269 C268 1.404 . S
C269 H281 0.930 . S
C270 C266 1.524 . S
C270 H282 0.956 . S
C270 H283 0.961 . S
C270 H284 0.961 . S
C271 C268 1.539 . S
C271 H285 0.958 1_554 S
C271 H286 0.961 . S
C271 H287 0.960 . S
H272 C256 0.931 . S
H273 C261 0.929 . S
H274 C262 0.960 1_545 S
H275 C262 0.962 . S
H276 C262 0.960 . S
H277 C263 0.961 . S
H278 C263 0.961 . S
H279 C263 0.961 . S
H280 C264 0.931 . S
H281 C269 0.930 . S
H282 C270 0.956 . S
H283 C270 0.961 . S
H284 C270 0.961 . S
H285 C271 0.958 1_556 S
H286 C271 0.961 . S
H287 C271 0.960 . S
C288 C289 1.391 . S
C288 C290 1.394 . S
C288 H304 0.931 1_545 S
C289 C288 1.391 . S
C289 C293 1.376 . S
C290 C288 1.394 . S
C290 C291 1.369 . S
C290 C294 1.531 1_545 S
C291 C290 1.369 . S
C291 C292 1.410 . S
C291 C299 1.503 . S
C292 C291 1.410 . S
C292 C293 1.392 . S
C292 C295 1.511 . S
C293 C289 1.376 . S
C293 C292 1.392 . S
C293 H305 0.929 . S
C294 C290 1.531 1_565 S
C294 H306 0.960 . S
C294 H307 0.962 1_565 S
C294 H308 0.960 . S
C295 C292 1.511 . S
C295 H309 0.961 . S
C295 H310 0.961 . S
C295 H311 0.961 . S
C296 C297 1.370 . S
C296 C298 1.363 . S
C296 H312 0.931 . S
C297 C296 1.370 . S
C297 C301 1.408 . S
C298 C296 1.363 . S
C298 C299 1.370 . S
C298 C302 1.524 . S
C299 C291 1.503 . S
C299 C298 1.370 . S
C299 C300 1.403 . S
C300 C299 1.403 . S
C300 C301 1.404 . S
C300 C303 1.539 1_545 S
C301 C297 1.408 . S
C301 C300 1.404 . S
C301 H313 0.930 . S
C302 C298 1.524 . S
C302 H314 0.956 . S
C302 H315 0.961 . S
C302 H316 0.961 . S
C303 C300 1.539 1_565 S
C303 H317 0.958 . S
C303 H318 0.961 . S
C303 H319 0.960 . S
H304 C288 0.931 1_565 S
H305 C293 0.929 . S
H306 C294 0.960 . S
H307 C294 0.962 1_545 S
H308 C294 0.960 . S
H309 C295 0.961 . S
H310 C295 0.961 . S
H311 C295 0.961 . S
H312 C296 0.931 . S
H313 C301 0.930 . S
H314 C302 0.956 . S
H315 C302 0.961 . S
H316 C302 0.961 . S
H317 C303 0.958 . S
H318 C303 0.961 . S
H319 C303 0.960 . S
C320 C321 1.391 . S
C320 C322 1.394 . S
C320 H336 0.931 . S
C321 C320 1.391 . S
C321 C325 1.376 . S
C322 C320 1.394 . S
C322 C323 1.369 . S
C322 C326 1.531 1_554 S
C323 C322 1.369 . S
C323 C324 1.410 . S
C323 C331 1.503 1_655 S
C324 C323 1.410 . S
C324 C325 1.392 . S
C324 C327 1.511 . S
C325 C321 1.376 . S
C325 C324 1.392 . S
C325 H337 0.929 . S
C326 C322 1.531 1_556 S
C326 H338 0.960 . S
C326 H339 0.962 1_556 S
C326 H340 0.960 . S
C327 C324 1.511 . S
C327 H341 0.961 . S
C327 H342 0.961 1_655 S
C327 H343 0.961 . S
C328 C329 1.370 . S
C328 C330 1.363 . S
C328 H344 0.931 . S
C329 C328 1.370 . S
C329 C333 1.408 1_554 S
C330 C328 1.363 . S
C330 C331 1.370 . S
C330 C334 1.524 . S
C331 C323 1.503 1_455 S
C331 C330 1.370 . S
C331 C332 1.403 1_554 S
C332 C331 1.403 1_556 S
C332 C333 1.404 . S
C332 C335 1.539 . S
C333 C329 1.408 1_556 S
C333 C332 1.404 . S
C333 H345 0.930 . S
C334 C330 1.524 . S
C334 H346 0.956 1_455 S
C334 H347 0.961 1_455 S
C334 H348 0.961 . S
C335 C332 1.539 . S
C335 H349 0.958 . S
C335 H350 0.961 . S
C335 H351 0.960 1_455 S
H336 C320 0.931 . S
H337 C325 0.929 . S
H338 C326 0.960 . S
H339 C326 0.962 1_554 S
H340 C326 0.960 . S
H341 C327 0.961 . S
H342 C327 0.961 1_455 S
H343 C327 0.961 . S
H344 C328 0.931 . S
H345 C333 0.930 . S
H346 C334 0.956 1_655 S
H347 C334 0.961 1_655 S
H348 C334 0.961 . S
H349 C335 0.958 . S
H350 C335 0.961 . S
H351 C335 0.960 1_655 S
C352 C353 1.391 . S
C352 C354 1.394 . S
C352 H368 0.931 . S
C353 C352 1.391 . S
C353 C357 1.376 . S
C354 C352 1.394 . S
C354 C355 1.369 . S
C354 C358 1.531 . S
C355 C354 1.369 . S
C355 C356 1.410 . S
C355 C363 1.503 1_455 S
C356 C355 1.410 . S
C356 C357 1.392 . S
C356 C359 1.511 . S
C357 C353 1.376 . S
C357 C356 1.392 . S
C357 H369 0.929 . S
C358 C354 1.531 . S
C358 H370 0.960 1_455 S
C358 H371 0.962 1_455 S
C358 H372 0.960 . S
C359 C356 1.511 . S
C359 H373 0.961 . S
C359 H374 0.961 . S
C359 H375 0.961 . S
C360 C361 1.370 . S
C360 C362 1.363 . S
C360 H376 0.931 . S
C361 C360 1.370 . S
C361 C365 1.408 . S
C362 C360 1.363 . S
C362 C363 1.370 . S
C362 C366 1.524 . S
C363 C355 1.503 1_655 S
C363 C362 1.370 . S
C363 C364 1.403 . S
C364 C363 1.403 . S
C364 C365 1.404 . S
C364 C367 1.539 . S
C365 C361 1.408 . S
C365 C364 1.404 . S
C365 H377 0.930 . S
C366 C362 1.524 . S
C366 H378 0.956 . S
C366 H379 0.961 1_655 S
C366 H380 0.961 . S
C367 C364 1.539 . S
C367 H381 0.958 . S
C367 H382 0.961 . S
C367 H383 0.960 . S
H368 C352 0.931 . S
H369 C357 0.929 . S
H370 C358 0.960 1_655 S
H371 C358 0.962 1_655 S
H372 C358 0.960 . S
H373 C359 0.961 . S
H374 C359 0.961 . S
H375 C359 0.961 . S
H376 C360 0.931 . S
H377 C365 0.930 . S
H378 C366 0.956 . S
H379 C366 0.961 1_455 S
H380 C366 0.961 . S
H381 C367 0.958 . S
H382 C367 0.961 . S
H383 C367 0.960 . S
C384 C385 1.391 . S
C384 C386 1.394 . S
C384 H400 0.931 1_545 S
C385 C384 1.391 . S
C385 C389 1.376 1_455 S
C386 C384 1.394 . S
C386 C387 1.369 . S
C386 C390 1.531 1_545 S
C387 C386 1.369 . S
C387 C388 1.410 1_455 S
C387 C395 1.503 . S
C388 C387 1.410 1_655 S
C388 C389 1.392 . S
C388 C391 1.511 . S
C389 C385 1.376 1_655 S
C389 C388 1.392 . S
C389 H401 0.929 . S
C390 C386 1.531 1_565 S
C390 H402 0.960 . S
C390 H403 0.962 1_565 S
C390 H404 0.960 . S
C391 C388 1.511 . S
C391 H405 0.961 . S
C391 H406 0.961 . S
C391 H407 0.961 . S
C392 C393 1.370 . S
C392 C394 1.363 . S
C392 H408 0.931 . S
C393 C392 1.370 . S
C393 C397 1.408 1_545 S
C394 C392 1.363 . S
C394 C395 1.370 . S
C394 C398 1.524 . S
C395 C387 1.503 . S
C395 C394 1.370 . S
C395 C396 1.403 1_545 S
C396 C395 1.403 1_565 S
C396 C397 1.404 . S
C396 C399 1.539 1_455 S
C397 C393 1.408 1_565 S
C397 C396 1.404 . S
C397 H409 0.930 1_455 S
C398 C394 1.524 . S
C398 H410 0.956 . S
C398 H411 0.961 . S
C398 H412 0.961 . S
C399 C396 1.539 1_655 S
C399 H413 0.958 1_655 S
C399 H414 0.961 . S
C399 H415 0.960 . S
H400 C384 0.931 1_565 S
H401 C389 0.929 . S
H402 C390 0.960 . S
H403 C390 0.962 1_545 S
H404 C390 0.960 . S
H405 C391 0.961 . S
H406 C391 0.961 . S
H407 C391 0.961 . S
H408 C392 0.931 . S
H409 C397 0.930 1_655 S
H410 C398 0.956 . S
H411 C398 0.961 . S
H412 C398 0.961 . S
H413 C399 0.958 1_455 S
H414 C399 0.961 . S
H415 C399 0.960 . S
C416 C417 1.391 . S
C416 C418 1.394 . S
C416 H432 0.931 . S
C417 C416 1.391 . S
C417 C421 1.376 1_655 S
C418 C416 1.394 . S
C418 C419 1.369 . S
C418 C422 1.531 . S
C419 C418 1.369 . S
C419 C420 1.410 1_655 S
C419 C427 1.503 . S
C420 C419 1.410 1_455 S
C420 C421 1.392 . S
C420 C423 1.511 . S
C421 C417 1.376 1_455 S
C421 C420 1.392 . S
C421 H433 0.929 . S
C422 C418 1.531 . S
C422 H434 0.960 . S
C422 H435 0.962 . S
C422 H436 0.960 . S
C423 C420 1.511 . S
C423 H437 0.961 . S
C423 H438 0.961 . S
C423 H439 0.961 . S
C424 C425 1.370 1_565 S
C424 C426 1.363 . S
C424 H440 0.931 . S
C425 C424 1.370 1_545 S
C425 C429 1.408 . S
C426 C424 1.363 . S
C426 C427 1.370 1_565 S
C426 C430 1.524 . S
C427 C419 1.503 . S
C427 C426 1.370 1_545 S
C427 C428 1.403 . S
C428 C427 1.403 . S
C428 C429 1.404 . S
C428 C431 1.539 . S
C429 C425 1.408 . S
C429 C428 1.404 . S
C429 H441 0.930 . S
C430 C426 1.524 . S
C430 H442 0.956 . S
C430 H443 0.961 1_655 S
C430 H444 0.961 . S
C431 C428 1.539 . S
C431 H445 0.958 . S
C431 H446 0.961 1_655 S
C431 H447 0.960 1_655 S
H432 C416 0.931 . S
H433 C421 0.929 . S
H434 C422 0.960 . S
H435 C422 0.962 . S
H436 C422 0.960 . S
H437 C423 0.961 . S
H438 C423 0.961 . S
H439 C423 0.961 . S
H440 C424 0.931 . S
H441 C429 0.930 . S
H442 C430 0.956 . S
H443 C430 0.961 1_455 S
H444 C430 0.961 . S
H445 C431 0.958 . S
H446 C431 0.961 1_455 S
H447 C431 0.960 1_455 S
C448 C449 1.391 . S
C448 C450 1.394 . S
C448 H464 0.931 . S
C449 C448 1.391 . S
C449 C453 1.376 . S
C450 C448 1.394 . S
C450 C451 1.369 . S
C450 C454 1.531 . S
C451 C450 1.369 . S
C451 C452 1.410 . S
C451 C459 1.503 . S
C452 C451 1.410 . S
C452 C453 1.392 . S
C452 C455 1.511 . S
C453 C449 1.376 . S
C453 C452 1.392 . S
C453 H465 0.929 . S
C454 C450 1.531 . S
C454 H466 0.960 . S
C454 H467 0.962 . S
C454 H468 0.960 . S
C455 C452 1.511 . S
C455 H469 0.961 . S
C455 H470 0.961 . S
C455 H471 0.961 . S
C456 C457 1.370 . S
C456 C458 1.363 . S
C456 H472 0.931 . S
C457 C456 1.370 . S
C457 C461 1.408 . S
C458 C456 1.363 . S
C458 C459 1.370 . S
C458 C462 1.524 . S
C459 C451 1.503 . S
C459 C458 1.370 . S
C459 C460 1.403 . S
C460 C459 1.403 . S
C460 C461 1.404 . S
C460 C463 1.539 . S
C461 C457 1.408 . S
C461 C460 1.404 . S
C461 H473 0.930 . S
C462 C458 1.524 . S
C462 H474 0.956 . S
C462 H475 0.961 . S
C462 H476 0.961 . S
C463 C460 1.539 . S
C463 H477 0.958 . S
C463 H478 0.961 . S
C463 H479 0.960 . S
H464 C448 0.931 . S
H465 C453 0.929 . S
H466 C454 0.960 . S
H467 C454 0.962 . S
H468 C454 0.960 . S
H469 C455 0.961 . S
H470 C455 0.961 . S
H471 C455 0.961 . S
H472 C456 0.931 . S
H473 C461 0.930 . S
H474 C462 0.956 . S
H475 C462 0.961 . S
H476 C462 0.961 . S
H477 C463 0.958 . S
H478 C463 0.961 . S
H479 C463 0.960 . S
C480 C481 1.391 . S
C480 C482 1.394 . S
C480 H496 0.931 . S
C481 C480 1.391 . S
C481 C485 1.376 . S
C482 C480 1.394 . S
C482 C483 1.369 . S
C482 C486 1.531 . S
C483 C482 1.369 . S
C483 C484 1.410 . S
C483 C491 1.503 . S
C484 C483 1.410 . S
C484 C485 1.392 . S
C484 C487 1.511 . S
C485 C481 1.376 . S
C485 C484 1.392 . S
C485 H497 0.929 . S
C486 C482 1.531 . S
C486 H498 0.960 . S
C486 H499 0.962 . S
C486 H500 0.960 . S
C487 C484 1.511 . S
C487 H501 0.961 . S
C487 H502 0.961 . S
C487 H503 0.961 . S
C488 C489 1.370 . S
C488 C490 1.363 . S
C488 H504 0.931 . S
C489 C488 1.370 . S
C489 C493 1.408 . S
C490 C488 1.363 . S
C490 C491 1.370 . S
C490 C494 1.524 . S
C491 C483 1.503 . S
C491 C490 1.370 . S
C491 C492 1.403 . S
C492 C491 1.403 . S
C492 C493 1.404 . S
C492 C495 1.539 . S
C493 C489 1.408 . S
C493 C492 1.404 . S
C493 H505 0.930 . S
C494 C490 1.524 . S
C494 H506 0.956 . S
C494 H507 0.961 . S
C494 H508 0.961 . S
C495 C492 1.539 . S
C495 H509 0.958 . S
C495 H510 0.961 . S
C495 H511 0.960 . S
H496 C480 0.931 . S
H497 C485 0.929 . S
H498 C486 0.960 . S
H499 C486 0.962 . S
H500 C486 0.960 . S
H501 C487 0.961 . S
H502 C487 0.961 . S
H503 C487 0.961 . S
H504 C488 0.931 . S
H505 C493 0.930 . S
H506 C494 0.956 . S
H507 C494 0.961 . S
H508 C494 0.961 . S
H509 C495 0.958 . S
H510 C495 0.961 . S
H511 C495 0.960 . S
C129 C70 1.551 . S
C137 C4 1.571 . S
C161 C68 1.573 . S
C169 C6 1.557 . S
C193 C61 1.573 . S
C201 C98 1.557 . S
C225 C34 1.547 . S
C233 C125 1.572 . S
C257 C2 0.931 . S
C265 C29 0.909 . S
C289 C38 0.935 . S
C297 C36 0.907 . S
C321 C66 0.909 . S
C329 C93 0.916 . S
C353 C100 0.911 . S
C361 C102 0.911 . S
C385 N45 1.453 . S
C393 N18 1.473 . S
C417 N13 1.467 1_655 S
C425 N50 1.448 1_655 S
C449 N109 1.500 . S
C457 N82 1.489 . S
C481 N114 1.452 . S
C489 N77 1.445 . S
