# Generated by pormake.
# Topology wfe, (8)-cn, num edge types: 1
# Building blocks:
#     Node 0, Type 0, BuildingBlock: TAGTUT_clean_sbu_1, # of connection points: 8
#     Node 1, Type 0, BuildingBlock: TAGTUT_clean_sbu_1, # of connection points: 8
#     Node 2, Type 0, BuildingBlock: TAGTUT_clean_sbu_1, # of connection points: 8
#     Node 3, Type 0, BuildingBlock: TAGTUT_clean_sbu_1, # of connection points: 8
#     Node 4, Type 0, BuildingBlock: TAGTUT_clean_sbu_1, # of connection points: 8
#     Node 5, Type 0, BuildingBlock: TAGTUT_clean_sbu_1, # of connection points: 8
#     Node 6, Type 0, BuildingBlock: TAGTUT_clean_sbu_1, # of connection points: 8
#     Node 7, Type 0, BuildingBlock: TAGTUT_clean_sbu_1, # of connection points: 8
#     Edge 8, Type (0, 0), BuildingBlock: XIVTED_clean_linker_0, # of connection points: 2
#     Edge 9, Type (0, 0), BuildingBlock: XIVTED_clean_linker_0, # of connection points: 2
#     Edge 10, Type (0, 0), BuildingBlock: XIVTED_clean_linker_0, # of connection points: 2
#     Edge 11, Type (0, 0), BuildingBlock: XIVTED_clean_linker_0, # of connection points: 2
#     Edge 12, Type (0, 0), BuildingBlock: XIVTED_clean_linker_0, # of connection points: 2
#     Edge 13, Type (0, 0), BuildingBlock: XIVTED_clean_linker_0, # of connection points: 2
#     Edge 14, Type (0, 0), BuildingBlock: XIVTED_clean_linker_0, # of connection points: 2
#     Edge 15, Type (0, 0), BuildingBlock: XIVTED_clean_linker_0, # of connection points: 2
#     Edge 16, Type (0, 0), BuildingBlock: XIVTED_clean_linker_0, # of connection points: 2
#     Edge 17, Type (0, 0), BuildingBlock: XIVTED_clean_linker_0, # of connection points: 2
#     Edge 18, Type (0, 0), BuildingBlock: XIVTED_clean_linker_0, # of connection points: 2
#     Edge 19, Type (0, 0), BuildingBlock: XIVTED_clean_linker_0, # of connection points: 2
#     Edge 20, Type (0, 0), BuildingBlock: XIVTED_clean_linker_0, # of connection points: 2
#     Edge 21, Type (0, 0), BuildingBlock: XIVTED_clean_linker_0, # of connection points: 2
#     Edge 22, Type (0, 0), BuildingBlock: XIVTED_clean_linker_0, # of connection points: 2
#     Edge 23, Type (0, 0), BuildingBlock: XIVTED_clean_linker_0, # of connection points: 2
#     Edge 24, Type (0, 0), BuildingBlock: XIVTED_clean_linker_0, # of connection points: 2
#     Edge 25, Type (0, 0), BuildingBlock: XIVTED_clean_linker_0, # of connection points: 2
#     Edge 26, Type (0, 0), BuildingBlock: XIVTED_clean_linker_0, # of connection points: 2
#     Edge 27, Type (0, 0), BuildingBlock: XIVTED_clean_linker_0, # of connection points: 2
#     Edge 28, Type (0, 0), BuildingBlock: XIVTED_clean_linker_0, # of connection points: 2
#     Edge 29, Type (0, 0), BuildingBlock: XIVTED_clean_linker_0, # of connection points: 2
#     Edge 30, Type (0, 0), BuildingBlock: XIVTED_clean_linker_0, # of connection points: 2
#     Edge 31, Type (0, 0), BuildingBlock: XIVTED_clean_linker_0, # of connection points: 2
#     Edge 32, Type (0, 0), BuildingBlock: XIVTED_clean_linker_0, # of connection points: 2
#     Edge 33, Type (0, 0), BuildingBlock: XIVTED_clean_linker_0, # of connection points: 2
#     Edge 34, Type (0, 0), BuildingBlock: XIVTED_clean_linker_0, # of connection points: 2
#     Edge 35, Type (0, 0), BuildingBlock: XIVTED_clean_linker_0, # of connection points: 2
#     Edge 36, Type (0, 0), BuildingBlock: XIVTED_clean_linker_0, # of connection points: 2
#     Edge 37, Type (0, 0), BuildingBlock: XIVTED_clean_linker_0, # of connection points: 2
#     Edge 38, Type (0, 0), BuildingBlock: XIVTED_clean_linker_0, # of connection points: 2
#     Edge 39, Type (0, 0), BuildingBlock: XIVTED_clean_linker_0, # of connection points: 2
# Relax obj value: 0.277
# Max RMSD: 0.306
# Mean RMSD: 0.306
data_MOF--net-wfe--node1-TAGTUT_clean_sbu_1--edge1-XIVTED_clean_linker_0
_symmetry_space_group_name_H-M    P1
_symmetry_Int_Tables_number       1
_symmetry_cell_setting            triclinic
loop_
_symmetry_equiv_pos_as_xyz
'x, y, z'
_cell_length_a     37.547364
_cell_length_b     37.523999
_cell_length_c     24.867392
_cell_angle_alpha  89.910617
_cell_angle_beta   89.99745
_cell_angle_gamma 90.110063
loop_
_atom_site_label
_atom_site_type_symbol
_atom_site_fract_x
_atom_site_fract_y
_atom_site_fract_z
_atom_type_partial_charge
C0 C 0.50705 0.38408 0.09721 0.0
C1 C 0.4532 0.31931 0.20781 0.0
C2 C 0.59888 0.31562 0.29201 0.0
Mg3 Mg 0.50013 0.30236 0.10428 0.0
O4 O 0.53455 0.30597 0.15809 0.0
Mg5 Mg 0.53891 0.34615 0.21004 0.0
Mg6 Mg 0.56335 0.26934 0.19332 0.0
O7 O 0.59483 0.23344 0.22747 0.0
Mg8 Mg 0.64102 0.25179 0.2352 0.0
Mg9 Mg 0.59254 0.19458 0.17101 0.0
C10 C 0.54986 0.23532 0.06845 0.0
C11 C 0.51376 0.20158 0.22663 0.0
O12 O 0.5162 0.38388 0.14675 0.0
O13 O 0.50297 0.35537 0.07013 0.0
O14 O 0.48067 0.33191 0.23263 0.0
O15 O 0.45493 0.30563 0.16026 0.0
O16 O 0.52632 0.25884 0.05523 0.0
O17 O 0.56056 0.23301 0.11745 0.0
C18 C 0.61047 0.33495 0.14701 0.0
O19 O 0.60768 0.30142 0.15537 0.0
O20 O 0.5929 0.3573 0.17501 0.0
O21 O 0.62597 0.16332 0.23536 0.0
O22 O 0.6623 0.20519 0.27069 0.0
O23 O 0.64203 0.21037 0.12214 0.0
C24 C 0.65093 0.17309 0.26782 0.0
O25 O 0.66308 0.26048 0.15739 0.0
O26 O 0.62769 0.2982 0.28315 0.0
C27 C 0.66084 0.23853 0.11869 0.0
O28 O 0.56898 0.30732 0.26858 0.0
O29 O 0.51586 0.23581 0.22609 0.0
O30 O 0.5397 0.18183 0.2113 0.0
C31 C 0.62513 0.03289 0.59515 0.0
C32 C 0.68309 0.97397 0.70853 0.0
C33 C 0.70828 0.11381 0.79601 0.0
Mg34 Mg 0.70569 0.01678 0.60484 0.0
O35 O 0.70517 0.05477 0.65339 0.0
Mg36 Mg 0.667 0.0631 0.70728 0.0
Mg37 Mg 0.74671 0.07328 0.69287 0.0
O38 O 0.78901 0.09354 0.73002 0.0
Mg39 Mg 0.78473 0.14119 0.75165 0.0
Mg40 Mg 0.82692 0.0845 0.67293 0.0
C41 C 0.77961 0.05383 0.56894 0.0
C42 C 0.80075 0.00733 0.71986 0.0
O43 O 0.62615 0.0457 0.64291 0.0
O44 O 0.65324 0.02267 0.5704 0.0
O45 O 0.67179 1.00295 0.73056 0.0
O46 O 0.69885 0.97354 0.66256 0.0
O47 O 0.75307 0.03386 0.55538 0.0
O48 O 0.78186 0.06606 0.61705 0.0
C49 C 0.69387 0.13464 0.64986 0.0
O50 O 0.72605 0.12609 0.66155 0.0
O51 O 0.66719 0.11865 0.67128 0.0
O52 O 0.86687 0.10372 0.73854 0.0
O53 O 0.83502 0.14161 0.79032 0.0
O54 O 0.82512 0.14014 0.6341 0.0
C55 C 0.86386 0.12513 0.77862 0.0
O56 O 0.79009 0.17531 0.68285 0.0
O57 O 0.73323 0.13741 0.79407 0.0
C58 C 0.80977 0.16985 0.64189 0.0
O59 O 0.71014 0.08448 0.76812 0.0
O60 O 0.76802 0.01751 0.72073 0.0
O61 O 0.82609 0.02809 0.70532 0.0
C62 C 0.99468 0.12301 0.09418 0.0
C63 C 0.05324 0.18525 0.2018 0.0
C64 C 0.91012 0.19508 0.29459 0.0
Mg65 Mg 0.00438 0.2044 0.10128 0.0
O66 O 0.97099 0.20168 0.15655 0.0
Mg67 Mg 0.96658 0.16165 0.20894 0.0
Mg68 Mg 0.94513 0.23969 0.19349 0.0
O69 O 0.9166 0.27733 0.22936 0.0
Mg70 Mg 0.86982 0.26145 0.24061 0.0
Mg71 Mg 0.91926 0.31583 0.17185 0.0
C72 C 0.9571 0.27322 0.06745 0.0
C73 C 0.99889 0.30501 0.2232 0.0
O74 O 0.98614 0.12318 0.14401 0.0
O75 O 0.99953 0.15174 0.06732 0.0
O76 O 0.02623 0.17314 0.22836 0.0
O77 O 0.05044 0.19959 0.15478 0.0
O78 O 0.97927 0.24879 0.05298 0.0
O79 O 0.94768 0.27577 0.11704 0.0
C80 C 0.89453 0.17649 0.1495 0.0
O81 O 0.898 0.20977 0.15935 0.0
O82 O 0.91113 0.15324 0.17734 0.0
O83 O 0.88898 0.34948 0.23654 0.0
O84 O 0.85202 0.30959 0.27568 0.0
O85 O 0.86786 0.30224 0.12646 0.0
C86 C 0.86436 0.34122 0.27049 0.0
O87 O 0.8453 0.25355 0.16431 0.0
O88 O 0.88215 0.21427 0.28804 0.0
C89 C 0.84769 0.27499 0.12487 0.0
O90 O 0.93968 0.2018 0.26905 0.0
O91 O 0.99509 0.2709 0.22317 0.0
O92 O 0.97373 0.32605 0.20876 0.0
C93 C 0.88275 0.47645 0.59455 0.0
C94 C 0.82346 0.53511 0.70776 0.0
C95 C 0.79881 0.39557 0.79532 0.0
Mg96 Mg 0.80213 0.49239 0.60401 0.0
O97 O 0.80271 0.45404 0.65205 0.0
Mg98 Mg 0.84053 0.4461 0.70669 0.0
Mg99 Mg 0.76094 0.43587 0.69149 0.0
O100 O 0.7184 0.41593 0.72847 0.0
Mg101 Mg 0.72259 0.36816 0.75011 0.0
Mg102 Mg 0.6809 0.42491 0.67056 0.0
C103 C 0.72858 0.45568 0.56718 0.0
C104 C 0.70696 0.50218 0.71676 0.0
O105 O 0.88173 0.46347 0.64231 0.0
O106 O 0.85465 0.48685 0.56992 0.0
O107 O 0.83529 0.50625 0.72964 0.0
O108 O 0.80782 0.53543 0.66174 0.0
O109 O 0.7551 0.47581 0.55414 0.0
O110 O 0.72623 0.44297 0.61506 0.0
C111 C 0.81383 0.37489 0.64918 0.0
O112 O 0.78164 0.38265 0.662 0.0
O113 O 0.84045 0.39033 0.67162 0.0
O114 O 0.64065 0.40591 0.73587 0.0
O115 O 0.67197 0.3677 0.78802 0.0
O116 O 0.68305 0.36939 0.63207 0.0
C117 C 0.64333 0.38444 0.77602 0.0
O118 O 0.71816 0.33427 0.68091 0.0
O119 O 0.77386 0.37199 0.7933 0.0
C120 C 0.6987 0.33982 0.63972 0.0
O121 O 0.79711 0.42486 0.76718 0.0
O122 O 0.73966 0.49191 0.71813 0.0
O123 O 0.68164 0.4814 0.70232 0.0
C124 C 0.36547 0.84943 0.76335 0.0
C125 C 0.34359 0.79273 0.91203 0.0
C126 C 0.45968 0.77391 0.96046 0.0
Mg127 Mg 0.36361 0.77005 0.79833 0.0
O128 O 0.41161 0.78246 0.80553 0.0
Mg129 Mg 0.42009 0.82136 0.86081 0.0
Mg130 Mg 0.43979 0.7426 0.83625 0.0
O131 O 0.46566 0.70285 0.86876 0.0
Mg132 Mg 0.50335 0.70509 0.91739 0.0
Mg133 Mg 0.4598 0.66581 0.81216 0.0
C134 C 0.39852 0.70202 0.73838 0.0
C135 C 0.38714 0.67798 0.87541 0.0
O136 O 0.39106 0.85655 0.79631 0.0
O137 O 0.35046 0.81882 0.76069 0.0
O138 O 0.36896 0.81495 0.90934 0.0
O139 O 0.33855 0.76912 0.87602 0.0
O140 O 0.37155 0.72161 0.75042 0.0
O141 O 0.42991 0.70777 0.75895 0.0
C142 C 0.4966 0.80539 0.80331 0.0
O143 O 0.49056 0.77165 0.80294 0.0
O144 O 0.47351 0.82767 0.82033 0.0
O145 O 0.48252 0.62488 0.87152 0.0
O146 O 0.50086 0.65121 0.94772 0.0
O147 O 0.51842 0.6784 0.78729 0.0
C148 C 0.49411 0.62328 0.9199 0.0
O149 O 0.54644 0.70334 0.85856 0.0
O150 O 0.48202 0.74868 0.97077 0.0
C151 C 0.54676 0.6902 0.81074 0.0
O152 O 0.44691 0.77753 0.91286 0.0
O153 O 0.39261 0.71189 0.87393 0.0
O154 O 0.40584 0.65631 0.84771 0.0
C155 C 0.15995 0.87002 0.24689 0.0
C156 C 0.20514 0.8422 0.4026 0.0
C157 C 0.23119 0.95614 0.457 0.0
Mg158 Mg 0.23635 0.86089 0.29235 0.0
O159 O 0.22809 0.90974 0.30057 0.0
Mg160 Mg 0.1865 0.92167 0.34916 0.0
Mg161 Mg 0.2678 0.93478 0.33747 0.0
O162 O 0.30724 0.95753 0.37645 0.0
Mg163 Mg 0.30324 0.99725 0.42129 0.0
Mg164 Mg 0.34586 0.95014 0.3229 0.0
C165 C 0.3103 0.89108 0.24365 0.0
C166 C 0.32574 0.87822 0.38452 0.0
O167 O 0.153 0.89546 0.28007 0.0
O168 O 0.1894 0.85289 0.24699 0.0
O169 O 0.18634 0.87013 0.39863 0.0
O170 O 0.22951 0.83477 0.36869 0.0
O171 O 0.28813 0.86537 0.25165 0.0
O172 O 0.30561 0.92238 0.26491 0.0
C173 C 0.21311 0.99583 0.29279 0.0
O174 O 0.24572 0.9873 0.30101 0.0
O175 O 0.18734 0.97508 0.30531 0.0
O176 O 0.38465 0.97298 0.38576 0.0
O177 O 0.35611 0.9969 0.45632 0.0
O178 O 0.33613 0.00837 0.29496 0.0
C179 C 0.38485 0.98769 0.43225 0.0
O180 O 0.30659 0.03854 0.35967 0.0
O181 O 0.25708 0.97692 0.47066 0.0
C182 C 0.32259 0.03729 0.31393 0.0
O183 O 0.22868 0.94499 0.40831 0.0
O184 O 0.29246 0.88546 0.37783 0.0
O185 O 0.35028 0.89599 0.3607 0.0
C186 C 0.13193 0.6531 0.74936 0.0
C187 C 0.1653 0.70883 0.89262 0.0
C188 C 0.04913 0.73107 0.95522 0.0
Mg189 Mg 0.13995 0.73251 0.78138 0.0
O190 O 0.09195 0.72324 0.79634 0.0
Mg191 Mg 0.084 0.68449 0.85232 0.0
Mg192 Mg 0.06726 0.7639 0.83093 0.0
O193 O 0.04468 0.80418 0.8676 0.0
Mg194 Mg 0.00702 0.80162 0.91652 0.0
Mg195 Mg 0.05046 0.84191 0.81191 0.0
C196 C 0.10682 0.80431 0.73011 0.0
C197 C 0.12447 0.82399 0.86932 0.0
O198 O 0.10844 0.6474 0.78619 0.0
O199 O 0.14729 0.68324 0.74235 0.0
O200 O 0.13741 0.68979 0.89552 0.0
O201 O 0.17069 0.7305 0.85393 0.0
O202 O 0.13287 0.78248 0.73671 0.0
O203 O 0.07647 0.79989 0.75459 0.0
C204 C 0.0065 0.70452 0.80135 0.0
O205 O 0.01414 0.73795 0.80103 0.0
O206 O 0.02886 0.68089 0.81655 0.0
O207 O 0.0302 0.88217 0.8743 0.0
O208 O 0.0103 0.8548 0.94889 0.0
O209 O 0.99102 0.832 0.78898 0.0
C210 C 0.0182 0.88309 0.92252 0.0
O211 O 0.96331 0.80509 0.85895 0.0
O212 O 0.02766 0.75655 0.96781 0.0
C213 C 0.96275 0.81973 0.81208 0.0
O214 O 0.06103 0.72846 0.90698 0.0
O215 O 0.1173 0.79057 0.86473 0.0
O216 O 0.10572 0.84783 0.84581 0.0
C217 C 0.34987 0.63911 0.25161 0.0
C218 C 0.29543 0.67239 0.39776 0.0
C219 C 0.27424 0.55466 0.4595 0.0
Mg220 Mg 0.27119 0.64706 0.28679 0.0
O221 O 0.28052 0.599 0.30127 0.0
Mg222 Mg 0.31976 0.59114 0.35621 0.0
Mg223 Mg 0.24025 0.57362 0.33617 0.0
O224 O 0.20036 0.5504 0.3736 0.0
Mg225 Mg 0.20437 0.51139 0.42016 0.0
Mg226 Mg 0.16266 0.55569 0.31785 0.0
C227 C 0.19922 0.61349 0.23663 0.0
C228 C 0.1797 0.62944 0.37605 0.0
O229 O 0.35599 0.61583 0.28867 0.0
O230 O 0.31979 0.65465 0.24581 0.0
O231 O 0.31463 0.64462 0.40021 0.0
O232 O 0.27355 0.67763 0.35941 0.0
O233 O 0.22101 0.63964 0.24337 0.0
O234 O 0.20398 0.58289 0.26031 0.0
C235 C 0.29968 0.51331 0.30512 0.0
O236 O 0.26627 0.52078 0.30541 0.0
O237 O 0.32322 0.53601 0.31984 0.0
O238 O 0.12289 0.53336 0.38051 0.0
O239 O 0.15107 0.51156 0.45311 0.0
O240 O 0.17409 0.49718 0.29324 0.0
C241 C 0.12245 0.51969 0.42784 0.0
O242 O 0.20274 0.46874 0.36068 0.0
O243 O 0.24929 0.53229 0.47149 0.0
C244 C 0.18773 0.46887 0.31415 0.0
O245 O 0.27628 0.56759 0.41174 0.0
O246 O 0.21318 0.62316 0.37025 0.0
O247 O 0.15597 0.61057 0.35241 0.0
H248 H 0.71661 0.15992 0.3087 0.0
H249 H 0.63083 0.15442 0.60115 0.0
H250 H 0.60481 0.1414 0.33622 0.0
H251 H 0.74317 0.14171 0.5715 0.0
H252 H 0.62072 0.15519 0.50377 0.0
H253 H 0.7276 0.1529 0.40488 0.0
C254 C 0.69466 0.15257 0.33477 0.0
C255 C 0.65981 0.15113 0.31467 0.0
C256 C 0.64768 0.15293 0.51883 0.0
C257 C 0.67167 0.14539 0.42486 0.0
C258 C 0.65356 0.15326 0.57438 0.0
C259 C 0.68814 0.1487 0.59487 0.0
C260 C 0.67661 0.14821 0.48371 0.0
C261 C 0.71637 0.14666 0.55795 0.0
C262 C 0.70075 0.14941 0.38982 0.0
C263 C 0.63212 0.14234 0.35018 0.0
N264 N 0.70999 0.14607 0.50439 0.0
N265 N 0.63847 0.14076 0.40394 0.0
H266 H 0.88554 0.07165 0.84334 0.0
H267 H 0.89355 0.22202 0.06385 0.0
H268 H 0.9007 0.18328 0.8102 0.0
H269 H 0.88775 0.11 0.10403 0.0
H270 H 0.90185 0.2067 0.97081 0.0
H271 H 0.89867 0.08266 0.93821 0.0
C272 C 0.89381 0.09811 0.85556 0.0
C273 C 0.89149 0.12681 0.81961 0.0
C274 C 0.89863 0.18533 0.99974 0.0
C275 C 0.90463 0.13986 0.92742 0.0
C276 C 0.89295 0.19408 0.05313 0.0
C277 C 0.88924 0.16727 0.0923 0.0
C278 C 0.90053 0.14943 0.98464 0.0
C279 C 0.88992 0.13158 0.07525 0.0
C280 C 0.90043 0.10455 0.9099 0.0
C281 C 0.90195 0.1606 0.83714 0.0
N282 N 0.8955 0.12366 0.02258 0.0
N283 N 0.90705 0.16646 0.89028 0.0
H284 H 0.91141 0.37208 0.33804 0.0
H285 H 0.76528 0.37752 0.56907 0.0
H286 H 0.7991 0.35936 0.30809 0.0
H287 H 0.87602 0.35459 0.59887 0.0
H288 H 0.77692 0.37895 0.47354 0.0
H289 H 0.89868 0.38028 0.4338 0.0
C290 C 0.88391 0.37304 0.3512 0.0
C291 C 0.8562 0.36489 0.31545 0.0
C292 C 0.79861 0.37285 0.50075 0.0
C293 C 0.84167 0.3726 0.42444 0.0
C294 C 0.79173 0.37079 0.55548 0.0
C295 C 0.81933 0.3645 0.59243 0.0
C296 C 0.83361 0.36928 0.48235 0.0
C297 C 0.85375 0.35885 0.57199 0.0
C298 C 0.87676 0.37668 0.40599 0.0
C299 C 0.82112 0.36565 0.33458 0.0
N300 N 0.86 0.36172 0.51824 0.0
N301 N 0.81485 0.36865 0.38808 0.0
H302 H 0.6179 0.40259 0.10545 0.0
H303 H 0.60437 0.32754 0.8074 0.0
H304 H 0.61414 0.29155 0.0595 0.0
H305 H 0.62416 0.43829 0.84136 0.0
H306 H 0.59028 0.31769 0.90185 0.0
H307 H 0.61004 0.41899 1.01067 0.0
C308 C 0.61654 0.3817 0.07549 0.0
C309 C 0.61739 0.34562 0.09077 0.0
C310 C 0.59666 0.34446 0.88857 0.0
C311 C 0.60677 0.36416 0.98309 0.0
C312 C 0.60378 0.35019 0.8344 0.0
C313 C 0.61583 0.38358 0.81725 0.0
C314 C 0.60245 0.37224 0.92542 0.0
C315 C 0.61506 0.41208 0.85357 0.0
C316 C 0.61132 0.39108 0.02165 0.0
C317 C 0.61454 0.31972 0.05018 0.0
N318 N 0.60981 0.40556 0.90671 0.0
N319 N 0.60921 0.32953 0.99852 0.0
H320 H 0.41585 0.8792 0.69937 0.0
H321 H 0.28361 0.84244 0.45535 0.0
H322 H 0.30239 0.8659 0.71629 0.0
H323 H 0.39191 0.87668 0.43212 0.0
H324 H 0.29269 0.8451 0.5529 0.0
H325 H 0.40865 0.8809 0.60171 0.0
C326 C 0.38919 0.87864 0.68268 0.0
C327 C 0.35969 0.87173 0.71573 0.0
C328 C 0.31453 0.85166 0.52631 0.0
C329 C 0.35151 0.87166 0.60458 0.0
C330 C 0.30947 0.84949 0.47089 0.0
C331 C 0.33614 0.86112 0.43577 0.0
C332 C 0.34697 0.8646 0.54649 0.0
C333 C 0.36996 0.8686 0.45763 0.0
C334 C 0.38521 0.87854 0.62684 0.0
C335 C 0.32582 0.87088 0.69199 0.0
N336 N 0.37419 0.8711 0.51173 0.0
N337 N 0.32272 0.86968 0.63771 0.0
H338 H 0.13703 0.92208 0.17952 0.0
H339 H 0.15895 0.78229 0.94195 0.0
H340 H 0.13977 0.80809 0.20025 0.0
H341 H 0.13031 0.89161 0.91178 0.0
H342 H 0.15882 0.79452 0.03804 0.0
H343 H 0.13383 0.91366 0.08193 0.0
C344 C 0.13501 0.89527 0.16368 0.0
C345 C 0.13894 0.86568 0.19772 0.0
C346 C 0.15328 0.81598 1.01032 0.0
C347 C 0.13736 0.85596 0.08685 0.0
C348 C 0.15399 0.80914 0.9554 0.0
C349 C 0.14312 0.83532 0.91885 0.0
C350 C 0.14285 0.84967 0.02877 0.0
C351 C 0.13786 0.87013 0.93855 0.0
C352 C 0.13418 0.8905 0.10796 0.0
C353 C 0.1369 0.83155 0.17519 0.0
N354 N 0.13698 0.87616 0.99243 0.0
N355 N 0.13713 0.82761 0.12106 0.0
H356 H 0.07933 0.62967 0.68432 0.0
H357 H 0.22208 0.65748 0.45332 0.0
H358 H 0.19286 0.62619 0.70793 0.0
H359 H 0.11192 0.63596 0.41793 0.0
H360 H 0.20932 0.65158 0.54872 0.0
H361 H 0.08872 0.62873 0.58701 0.0
C362 C 0.10617 0.62647 0.66906 0.0
C363 C 0.13547 0.62883 0.70386 0.0
C364 C 0.18776 0.64877 0.52017 0.0
C365 C 0.14642 0.62969 0.5935 0.0
C366 C 0.19495 0.65302 0.46573 0.0
C367 C 0.16861 0.6458 0.42744 0.0
C368 C 0.15353 0.63843 0.53657 0.0
C369 C 0.13349 0.64073 0.44593 0.0
C370 C 0.11155 0.62706 0.61349 0.0
C371 C 0.16964 0.62485 0.68216 0.0
N372 N 0.12707 0.6363 0.49932 0.0
N373 N 0.1743 0.62672 0.6282 0.0
H374 H 0.37817 0.58512 0.19303 0.0
H375 H 0.33956 0.70931 0.9437 0.0
H376 H 0.37046 0.69956 0.20097 0.0
H377 H 0.39974 0.61276 0.92146 0.0
H378 H 0.33876 0.69729 0.04107 0.0
H379 H 0.38319 0.58926 0.09479 0.0
C380 C 0.37957 0.61122 0.1744 0.0
C381 C 0.37337 0.64208 0.20483 0.0
C382 C 0.352 0.67896 0.01435 0.0
C383 C 0.37686 0.64671 0.09347 0.0
C384 C 0.35187 0.68539 0.95915 0.0
C385 C 0.37114 0.66316 0.9249 0.0
C386 C 0.37123 0.65004 0.03503 0.0
C387 C 0.38533 0.63137 0.94653 0.0
C388 C 0.38146 0.61346 0.11833 0.0
C389 C 0.37489 0.67516 0.17873 0.0
N390 N 0.38593 0.62617 1.00059 0.0
N391 N 0.37532 0.67658 0.12432 0.0
H392 H 0.50744 0.44939 0.1449 0.0
H393 H 0.4885 0.55834 0.87083 0.0
H394 H 0.49904 0.39883 0.98938 0.0
H395 H 0.50744 0.60706 0.02556 0.0
H396 H 0.49098 0.4998 0.91316 0.0
H397 H 0.50531 0.50727 0.10147 0.0
C398 C 0.50501 0.4504 0.10152 0.0
C399 C 0.50342 0.4191 0.07071 0.0
C400 C 0.49472 0.52329 0.9378 0.0
C401 C 0.50112 0.48567 0.02064 0.0
C402 C 0.49333 0.55677 0.91371 0.0
C403 C 0.49773 0.58774 0.94475 0.0
C404 C 0.50038 0.52069 0.99337 0.0
C405 C 0.50399 0.58397 1.00003 0.0
C406 C 0.50389 0.48358 0.07675 0.0
C407 C 0.50017 0.42224 0.01471 0.0
N408 N 0.50499 0.55103 0.0226 0.0
N409 N 0.49919 0.45502 0.9914 0.0
H410 H 0.61045 0.00495 0.49563 0.0
H411 H 0.39874 0.01942 0.52983 0.0
H412 H 0.55949 0.05033 0.63538 0.0
H413 H 0.45086 0.97215 0.3925 0.0
H414 H 0.45726 0.03202 0.56885 0.0
H415 H 0.55189 0.99452 0.45613 0.0
C416 C 0.587 0.0129 0.51794 0.0
C417 C 0.58998 0.02842 0.56904 0.0
C418 C 0.4558 0.01888 0.53017 0.0
C419 C 0.52274 0.01634 0.52411 0.0
C420 C 0.4224 0.01162 0.50793 0.0
C421 C 0.41978 0.99471 0.45777 0.0
C422 C 0.48677 0.0092 0.50203 0.0
C423 C 0.45143 0.98524 0.43124 0.0
C424 C 0.55352 0.00685 0.4954 0.0
C425 C 0.55856 0.03819 0.59595 0.0
N426 N 0.48352 0.99264 0.45366 0.0
N427 N 0.52627 0.03188 0.57324 0.0
H428 H 0.00824 0.10928 0.98753 0.0
H429 H 0.99894 0.89762 0.02661 0.0
H430 H 0.98834 0.05711 0.13969 0.0
H431 H 0.02765 0.94877 0.87689 0.0
H432 H 0.99262 0.95624 0.06784 0.0
H433 H 0.01324 0.05076 0.94504 0.0
C434 C 0.00503 0.0856 0.01202 0.0
C435 C 0.99805 0.08815 0.06729 0.0
C436 C 1.00029 0.9546 0.02594 0.0
C437 C 1.00357 0.02126 0.01902 0.0
C438 C 0.00386 0.92113 1.00237 0.0
C439 C 0.01387 0.91823 0.94824 0.0
C440 C 0.0067 0.98538 0.99513 0.0
C441 C 0.01995 0.94967 0.91881 0.0
C442 C 0.00784 0.05222 0.98776 0.0
C443 C 0.99385 0.05653 0.09697 0.0
N444 N 0.01626 0.98193 0.94265 0.0
N445 N 0.9967 0.02445 0.07246 0.0
H446 H 0.8969 0.50225 0.49343 0.0
H447 H 0.10874 0.49097 0.52755 0.0
H448 H 0.94872 0.46066 0.63531 0.0
H449 H 0.05621 0.5325 0.38621 0.0
H450 H 0.05044 0.4789 0.56744 0.0
H451 H 0.95522 0.51211 0.45273 0.0
C452 C 0.92049 0.49505 0.51599 0.0
C453 C 0.91781 0.48073 0.56802 0.0
C454 C 0.05172 0.49064 0.52768 0.0
C455 C 0.98479 0.49213 0.52165 0.0
C456 C 0.08502 0.49759 0.50489 0.0
C457 C 0.08748 0.51277 0.45339 0.0
C458 C 0.02064 0.49891 0.49879 0.0
C459 C 0.05574 0.52078 0.426 0.0
C460 C 0.95383 0.50074 0.49273 0.0
C461 C 0.94941 0.47183 0.59517 0.0
N462 N 0.02371 0.51374 0.44902 0.0
N463 N 0.98156 0.47779 0.57174 0.0
H464 H 0.68456 0.30276 0.08238 0.0
H465 H 0.82273 0.21084 0.09103 0.0
H466 H 0.68021 0.19175 0.03848 0.0
H467 H 0.82908 0.32116 0.04338 0.0
H468 H 0.77936 0.20045 0.02117 0.0
H469 H 0.72953 0.3125 0.01463 0.0
C470 C 0.69289 0.28039 0.05803 0.0
C471 C 0.68094 0.2458 0.06915 0.0
C472 C 0.7905 0.22699 0.02483 0.0
C473 C 0.73543 0.2561 0.99617 0.0
C474 C 0.81505 0.23295 0.06555 0.0
C475 C 0.82724 0.26753 0.07579 0.0
C476 C 0.77486 0.25653 0.99929 0.0
C477 C 0.81819 0.29457 0.03935 0.0
C478 C 0.71846 0.28595 0.0186 0.0
C479 C 0.69099 0.21838 0.03412 0.0
N480 N 0.79141 0.28885 1.00362 0.0
N481 N 0.71879 0.22379 1.00005 0.0
H482 H 0.68274 0.26907 0.64433 0.0
H483 H 0.79621 0.15988 0.53489 0.0
H484 H 0.71692 0.35095 0.53464 0.0
H485 H 0.82349 0.24099 0.64989 0.0
H486 H 0.76045 0.20378 0.48518 0.0
H487 H 0.71349 0.22509 0.58971 0.0
C488 C 0.69575 0.27759 0.60759 0.0
C489 C 0.69978 0.31377 0.59588 0.0
C490 C 0.7763 0.2124 0.51917 0.0
C491 C 0.73774 0.26447 0.53721 0.0
C492 C 0.79623 0.18739 0.54803 0.0
C493 C 0.80968 0.19661 0.59878 0.0
C494 C 0.77229 0.2467 0.54044 0.0
C495 C 0.81145 0.23263 0.61238 0.0
C496 C 0.71318 0.25252 0.576 0.0
C497 C 0.71604 0.32336 0.5472 0.0
N498 N 0.79225 0.25651 0.58369 0.0
N499 N 0.73697 0.29921 0.52156 0.0
H500 H 0.28006 0.82638 0.92494 0.0
H501 H 0.15286 0.72529 0.99776 0.0
H502 H 0.35523 0.75968 1.00763 0.0
H503 H 0.23502 0.691 0.88875 0.0
H504 H 0.19919 0.74907 0.05835 0.0
H505 H 0.23272 0.8026 0.98158 0.0
C506 C 0.28674 0.80764 0.95655 0.0
C507 C 0.32072 0.79275 0.9595 0.0
C508 C 0.20685 0.73467 0.02251 0.0
C509 C 0.26667 0.76317 0.01951 0.0
C510 C 0.18069 0.72122 0.98797 0.0
C511 C 0.19061 0.70823 0.93726 0.0
C512 C 0.24247 0.73397 1.00589 0.0
C513 C 0.22658 0.70241 0.92663 0.0
C514 C 0.25983 0.79425 0.98954 0.0
C515 C 0.32843 0.76964 1.002 0.0
N516 N 0.25139 0.7159 0.96041 0.0
N517 N 0.30111 0.75394 0.02897 0.0
H518 H 0.17502 0.77636 0.4114 0.0
H519 H 0.27773 0.65841 0.50207 0.0
H520 H 0.22789 0.8575 0.50379 0.0
H521 H 0.3124 0.74271 0.39669 0.0
H522 H 0.24763 0.7029 0.55877 0.0
H523 H 0.19778 0.73155 0.47318 0.0
C524 C 0.19029 0.78484 0.44609 0.0
C525 C 0.20181 0.82008 0.45084 0.0
C526 C 0.26375 0.71166 0.52514 0.0
C527 C 0.23114 0.76896 0.51667 0.0
C528 C 0.28069 0.68646 0.4926 0.0
C529 C 0.29522 0.6972 0.44317 0.0
C530 C 0.26305 0.7473 0.50832 0.0
C531 C 0.2998 0.73351 0.43336 0.0
C532 C 0.20315 0.75933 0.48192 0.0
C533 C 0.22049 0.82993 0.49721 0.0
N534 N 0.28318 0.75743 0.46535 0.0
N535 N 0.23657 0.80415 0.52697 0.0
H536 H 0.55475 0.24877 0.95989 0.0
H537 H 0.68222 0.08179 0.88865 0.0
H538 H 0.58564 0.17048 0.07782 0.0
H539 H 0.6647 0.1711 0.78328 0.0
H540 H 0.64059 0.10849 0.95413 0.0
H541 H 0.58828 0.21595 0.8916 0.0
C542 C 0.5681 0.22438 0.97151 0.0
C543 C 0.56711 0.21269 0.02535 0.0
C544 C 0.64528 0.12191 0.91621 0.0
C545 C 0.60637 0.17453 0.94619 0.0
C546 C 0.66867 0.10633 0.87836 0.0
C547 C 0.67645 0.12368 0.82952 0.0
C548 C 0.62932 0.1552 0.90535 0.0
C549 C 0.65907 0.1563 0.81974 0.0
C550 C 0.5876 0.20569 0.9323 0.0
C551 C 0.58569 0.18097 0.03733 0.0
N552 N 0.63659 0.17085 0.85695 0.0
N553 N 0.60444 0.16317 0.99839 0.0
H554 H 0.84716 0.08273 0.58276 0.0
H555 H 0.86916 0.13752 0.27199 0.0
H556 H 0.77299 0.05305 0.45843 0.0
H557 H 0.93328 0.18273 0.39805 0.0
H558 H 0.84139 0.09745 0.33759 0.0
H559 H 0.8849 0.11126 0.51499 0.0
C560 C 0.83867 0.08207 0.54136 0.0
C561 C 0.80615 0.06586 0.52708 0.0
C562 C 0.8622 0.1154 0.35093 0.0
C563 C 0.85026 0.09811 0.44802 0.0
C564 C 0.87862 0.13789 0.31315 0.0
C565 C 0.90451 0.16291 0.32898 0.0
C566 C 0.87121 0.11799 0.40567 0.0
C567 C 0.91436 0.16318 0.38356 0.0
C568 C 0.86052 0.09827 0.50239 0.0
C569 C 0.79764 0.06507 0.4719 0.0
N570 N 0.89753 0.14141 0.41988 0.0
N571 N 0.81928 0.08109 0.43476 0.0
H572 H 0.84419 0.34037 0.77808 0.0
H573 H 0.92324 0.33883 0.07913 0.0
H574 H 0.82334 0.42444 0.89108 0.0
H575 H 0.95045 0.2612 0.95857 0.0
H576 H 0.88916 0.37206 1.0113 0.0
H577 H 0.88598 0.31356 0.84209 0.0
C578 C 0.84928 0.35387 0.8158 0.0
C579 C 0.83082 0.3854 0.82825 0.0
C580 C 0.90282 0.34792 0.9995 0.0
C581 C 0.87796 0.35361 0.90387 0.0
C582 C 0.92227 0.3287 0.0385 0.0
C583 C 0.93983 0.29671 0.02528 0.0
C584 C 0.90053 0.33525 0.9463 0.0
C585 C 0.93774 0.28567 0.97118 0.0
C586 C 0.87293 0.33825 0.85279 0.0
C587 C 0.83766 0.4008 0.87886 0.0
N588 N 0.91839 0.30457 0.93423 0.0
N589 N 0.8603 0.38468 0.91479 0.0
H590 H 0.73584 0.45874 0.45719 0.0
H591 H 0.5739 0.32582 0.39499 0.0
H592 H 0.66137 0.42525 0.57909 0.0
H593 H 0.6391 0.37422 0.27269 0.0
H594 H 0.60109 0.3657 0.46216 0.0
H595 H 0.69756 0.43177 0.38882 0.0
C596 C 0.71123 0.44615 0.46981 0.0
C597 C 0.70241 0.44398 0.52472 0.0
C598 C 0.60873 0.36836 0.42036 0.0
C599 C 0.65817 0.41212 0.44571 0.0
C600 C 0.59265 0.34597 0.38178 0.0
C601 C 0.60346 0.34723 0.32769 0.0
C602 C 0.6363 0.39186 0.40499 0.0
C603 C 0.62929 0.37284 0.3136 0.0
C604 C 0.68936 0.43048 0.43052 0.0
C605 C 0.67008 0.42688 0.53786 0.0
N606 N 0.64501 0.39365 0.3518 0.0
N607 N 0.64947 0.41137 0.49899 0.0
H608 H 0.45828 0.75873 0.06838 0.0
H609 H 0.33576 0.92603 0.15304 0.0
H610 H 0.42817 0.84095 0.95622 0.0
H611 H 0.35396 0.83376 0.25231 0.0
H612 H 0.37682 0.9011 0.0852 0.0
H613 H 0.42788 0.79127 0.13999 0.0
C614 C 0.44577 0.78392 0.05875 0.0
C615 C 0.44569 0.79672 1.00555 0.0
C616 C 0.37237 0.88665 0.12232 0.0
C617 C 0.41006 0.83446 0.08833 0.0
C618 C 0.3493 0.90118 0.16145 0.0
C619 C 0.34168 0.88224 0.20895 0.0
C620 C 0.38816 0.85301 0.13082 0.0
C621 C 0.35923 0.84951 0.21665 0.0
C622 C 0.42806 0.80246 0.09982 0.0
C623 C 0.4285 0.82953 0.99612 0.0
N624 N 0.38133 0.83602 0.17825 0.0
N625 N 0.41131 0.84708 0.03679 0.0
H626 H 0.15759 0.85402 0.74968 0.0
H627 H 0.16323 0.92751 0.4456 0.0
H628 H 0.07876 0.82511 0.63192 0.0
H629 H 0.24211 0.95153 0.56604 0.0
H630 H 0.12825 0.89537 0.51388 0.0
H631 H 0.18398 0.89579 0.68538 0.0
C632 C 0.14505 0.85738 0.71075 0.0
C633 C 0.11529 0.83653 0.69689 0.0
C634 C 0.15304 0.90794 0.52551 0.0
C635 C 0.14664 0.88365 0.62119 0.0
C636 C 0.17322 0.9262 0.48634 0.0
C637 C 0.20619 0.94192 0.49941 0.0
C638 C 0.16562 0.90545 0.57873 0.0
C639 C 0.21697 0.94005 0.55359 0.0
C640 C 0.16047 0.88098 0.67362 0.0
C641 C 0.10103 0.84126 0.64501 0.0
N642 N 0.19705 0.92203 0.59076 0.0
N643 N 0.11699 0.86397 0.60898 0.0
H644 H 0.17029 0.57433 0.15224 0.0
H645 H 0.07824 0.66348 0.945 0.0
H646 H 0.15803 0.67277 0.23895 0.0
H647 H 0.05346 0.74281 0.06418 0.0
H648 H 0.1098 0.62904 0.01326 0.0
H649 H 0.12885 0.59675 0.08346 0.0
C650 C 0.15818 0.60026 0.15754 0.0
C651 C 0.16767 0.62155 0.20174 0.0
C652 C 0.09695 0.65353 0.02519 0.0
C653 C 0.12106 0.64845 0.12166 0.0
C654 C 0.07906 0.67357 0.98565 0.0
C655 C 0.06321 0.7065 0.9982 0.0
C656 C 0.09921 0.66633 0.07835 0.0
C657 C 0.06492 0.71759 0.05221 0.0
C658 C 0.13495 0.61352 0.11754 0.0
C659 C 0.15156 0.65532 0.20569 0.0
N660 N 0.08282 0.6979 0.08974 0.0
N661 N 0.12944 0.66764 0.1664 0.0
H662 H 0.42841 0.68388 0.64012 0.0
H663 H 0.26386 0.55369 0.56884 0.0
H664 H 0.34712 0.652 0.75245 0.0
H665 H 0.34029 0.58803 0.45029 0.0
H666 H 0.29885 0.58363 0.63835 0.0
H667 H 0.40201 0.64338 0.57269 0.0
C668 C 0.40586 0.66743 0.6513 0.0
C669 C 0.39039 0.671 0.70252 0.0
C670 C 0.30823 0.58451 0.59719 0.0
C671 C 0.35919 0.62528 0.62487 0.0
C672 C 0.28827 0.56708 0.55728 0.0
C673 C 0.29865 0.56848 0.50294 0.0
C674 C 0.3392 0.60369 0.58335 0.0
C675 C 0.33059 0.58675 0.49111 0.0
C676 C 0.39041 0.64467 0.61249 0.0
C677 C 0.36028 0.64985 0.71384 0.0
N678 N 0.34948 0.60374 0.53065 0.0
N679 N 0.34571 0.62827 0.67559 0.0
H680 H 0.45619 0.22401 0.28841 0.0
H681 H 0.34666 0.04813 0.21139 0.0
H682 H 0.49197 0.13861 0.18572 0.0
H683 H 0.32835 0.10336 0.36094 0.0
H684 H 0.38741 0.09549 0.1842 0.0
H685 H 0.39935 0.19158 0.30148 0.0
C686 C 0.45213 0.19862 0.26869 0.0
C687 C 0.47919 0.18362 0.23694 0.0
C688 C 0.37385 0.09766 0.22251 0.0
C689 C 0.41425 0.14751 0.24972 0.0
C690 C 0.35026 0.07078 0.23782 0.0
C691 C 0.33473 0.0712 0.28912 0.0
C692 C 0.38217 0.12513 0.25876 0.0
C693 C 0.34011 0.10162 0.32129 0.0
C694 C 0.41974 0.1803 0.27588 0.0
C695 C 0.47234 0.15089 0.2116 0.0
N696 N 0.36415 0.127 0.3062 0.0
N697 N 0.44071 0.13412 0.21846 0.0
H698 H 0.79199 0.96547 0.8106 0.0
H699 H 0.94654 0.83894 0.70847 0.0
H700 H 0.83345 0.96462 0.64912 0.0
H701 H 0.90003 0.82964 0.86653 0.0
H702 H 0.89656 0.87616 0.68101 0.0
H703 H 0.82253 0.90843 0.8279 0.0
C704 C 0.80658 0.95268 0.77841 0.0
C705 C 0.8105 0.96967 0.72853 0.0
C706 C 0.89678 0.86541 0.72143 0.0
C707 C 0.84579 0.90517 0.7479 0.0
C708 C 0.92529 0.84385 0.73698 0.0
C709 C 0.92787 0.83148 0.7901 0.0
C710 C 0.87093 0.87538 0.75952 0.0
C711 C 0.89935 0.83869 0.8252 0.0
C712 C 0.82419 0.92029 0.78826 0.0
C713 C 0.83004 0.95237 0.68827 0.0
N714 N 0.87256 0.8609 0.80974 0.0
N715 N 0.84726 0.92142 0.69899 0.0
H716 H 0.16838 0.45546 0.21009 0.0
H717 H 0.05281 0.28458 0.29343 0.0
H718 H 0.17988 0.40409 0.36446 0.0
H719 H 0.026 0.36213 0.17183 0.0
H720 H 0.10989 0.31622 0.30808 0.0
H721 H 0.12926 0.40713 0.18149 0.0
C722 C 0.16364 0.43343 0.23741 0.0
C723 C 0.17679 0.43435 0.29019 0.0
C724 C 0.09153 0.3259 0.27785 0.0
C725 C 0.13104 0.37939 0.25824 0.0
C726 C 0.05904 0.30798 0.26965 0.0
C727 C 0.03433 0.32129 0.23233 0.0
C728 C 0.09948 0.35656 0.24734 0.0
C729 C 0.04383 0.35143 0.20202 0.0
C730 C 0.14096 0.40599 0.22127 0.0
C731 C 0.17001 0.40475 0.32357 0.0
N732 N 0.07545 0.36796 0.21025 0.0
N733 N 0.1468 0.37888 0.30758 0.0
H734 H 0.56234 0.67198 0.70649 0.0
H735 H 0.71796 0.54513 0.8057 0.0
H736 H 0.61011 0.68048 0.86377 0.0
H737 H 0.67233 0.5441 0.64679 0.0
H738 H 0.68806 0.60251 0.82285 0.0
H739 H 0.61194 0.63466 0.67803 0.0
C740 C 0.58378 0.66691 0.73462 0.0
C741 C 0.58159 0.67899 0.78788 0.0
C742 C 0.68532 0.59013 0.78377 0.0
C743 C 0.63811 0.63496 0.75614 0.0
C744 C 0.70254 0.55753 0.774 0.0
C745 C 0.69724 0.5399 0.725 0.0
C746 C 0.6628 0.60487 0.74416 0.0
C747 C 0.67675 0.55679 0.68533 0.0
C748 C 0.61207 0.64526 0.7185 0.0
C749 C 0.61042 0.6716 0.82238 0.0
N750 N 0.66 0.58799 0.69595 0.0
N751 N 0.63697 0.64931 0.80639 0.0
H752 H 0.66109 0.95977 0.81143 0.0
H753 H 0.54222 0.79471 0.71662 0.0
H754 H 0.67292 0.91052 0.6558 0.0
H755 H 0.53277 0.84921 0.86836 0.0
H756 H 0.5978 0.82823 0.69894 0.0
H757 H 0.62331 0.91023 0.83944 0.0
C758 C 0.65649 0.93809 0.78356 0.0
C759 C 0.66985 0.93968 0.73096 0.0
C760 C 0.5838 0.83232 0.73648 0.0
C761 C 0.62538 0.88316 0.76212 0.0
C762 C 0.55222 0.81315 0.74651 0.0
C763 C 0.53271 0.81977 0.79351 0.0
C764 C 0.59578 0.85781 0.77407 0.0
C765 C 0.54671 0.84385 0.83111 0.0
C766 C 0.63463 0.90982 0.79939 0.0
C767 C 0.66308 0.91057 0.69672 0.0
N768 N 0.57707 0.8621 0.82042 0.0
N769 N 0.64065 0.88392 0.71243 0.0
H770 H 0.22305 0.05803 0.34655 0.0
H771 H 0.07662 0.16975 0.30413 0.0
H772 H 0.17948 0.01487 0.20022 0.0
H773 H 0.11008 0.16935 0.13813 0.0
H774 H 0.127 0.13082 0.32619 0.0
H775 H 0.19297 0.11502 0.3274 0.0
C776 C 0.20822 0.06105 0.30945 0.0
C777 C 0.2038 0.03201 0.2746 0.0
C778 C 0.12398 0.14036 0.28532 0.0
C779 C 0.1695 0.09648 0.25279 0.0
C780 C 0.09528 0.16263 0.27271 0.0
C781 C 0.08898 0.17286 0.21918 0.0
C782 C 0.14586 0.12746 0.24386 0.0
C783 C 0.11387 0.16236 0.17998 0.0
C784 C 0.19083 0.09331 0.29893 0.0
C785 C 0.18368 0.03682 0.22774 0.0
N786 N 0.14045 0.13927 0.19277 0.0
N787 N 0.16723 0.06847 0.21816 0.0
H788 H 0.96302 0.71278 0.71218 0.0
H789 H 0.8455 0.54925 0.81067 0.0
H790 H 0.9672 0.66665 0.8708 0.0
H791 H 0.83115 0.59918 0.65576 0.0
H792 H 0.88154 0.59997 0.83891 0.0
H793 H 0.90744 0.6794 0.69512 0.0
C794 C 0.95168 0.69641 0.74377 0.0
C795 C 0.9697 0.692 0.79265 0.0
C796 C 0.86998 0.60027 0.79902 0.0
C797 C 0.90687 0.65373 0.77367 0.0
C798 C 0.84916 0.5713 0.78302 0.0
C799 C 0.83568 0.56959 0.73051 0.0
C800 C 0.87809 0.62749 0.76193 0.0
C801 C 0.84118 0.59917 0.69657 0.0
C802 C 0.92013 0.67725 0.73408 0.0
C803 C 0.95421 0.67035 0.83229 0.0
N804 N 0.86267 0.62649 0.71237 0.0
N805 N 0.92403 0.65177 0.82175 0.0
H806 H 0.3909 0.32902 0.15162 0.0
H807 H 0.27194 0.4618 0.23605 0.0
H808 H 0.43549 0.33758 0.31095 0.0
H809 H 0.35594 0.48081 0.35089 0.0
H810 H 0.29845 0.40303 0.21646 0.0
H811 H 0.34326 0.36951 0.17794 0.0
C812 C 0.38984 0.33806 0.19293 0.0
C813 C 0.41783 0.3304 0.22879 0.0
C814 C 0.31101 0.42014 0.24587 0.0
C815 C 0.36332 0.37726 0.25912 0.0
C816 C 0.2958 0.45358 0.25714 0.0
C817 C 0.31236 0.47664 0.29395 0.0
C818 C 0.34252 0.40975 0.2725 0.0
C819 C 0.34281 0.46443 0.32102 0.0
C820 C 0.36254 0.36149 0.2079 0.0
C821 C 0.41494 0.34319 0.2816 0.0
N822 N 0.35681 0.43208 0.30968 0.0
N823 N 0.38883 0.36664 0.29466 0.0
loop_
_geom_bond_atom_site_label_1
_geom_bond_atom_site_label_2
_geom_bond_distance
_geom_bond_site_symmetry_2
_ccdc_geom_bond_type
C0 O12 1.241 . S
C0 O13 1.280 . S
C1 O14 1.277 . S
C1 O15 1.245 . S
C2 O26 1.247 . S
C2 O28 1.289 . S
Mg3 O4 1.926 . S
Mg3 O13 1.984 . S
Mg3 O15 1.988 . S
Mg3 O16 2.061 . S
O4 Mg3 1.926 . S
O4 Mg5 1.986 . S
O4 Mg6 1.917 . S
Mg5 O4 1.986 . S
Mg5 O12 2.042 . S
Mg5 O14 2.041 . S
Mg5 O20 2.038 . S
Mg5 O28 2.238 . S
Mg6 O4 1.917 . S
Mg6 O7 1.917 . S
Mg6 O17 2.106 . S
Mg6 O19 2.079 . S
Mg6 O28 2.106 . S
Mg6 O29 2.079 . S
O7 Mg6 1.917 . S
O7 Mg8 1.926 . S
O7 Mg9 1.986 . S
Mg8 O7 1.926 . S
Mg8 O22 1.984 . S
Mg8 O25 1.988 . S
Mg8 O26 2.061 . S
Mg9 O7 1.986 . S
Mg9 O17 2.238 . S
Mg9 O21 2.042 . S
Mg9 O23 2.041 . S
Mg9 O30 2.038 . S
C10 O16 1.247 . S
C10 O17 1.289 . S
C11 O29 1.245 . S
C11 O30 1.274 . S
O12 C0 1.241 . S
O12 Mg5 2.042 . S
O13 C0 1.280 . S
O13 Mg3 1.984 . S
O14 C1 1.277 . S
O14 Mg5 2.041 . S
O15 C1 1.245 . S
O15 Mg3 1.988 . S
O16 Mg3 2.061 . S
O16 C10 1.247 . S
O17 Mg6 2.106 . S
O17 Mg9 2.238 . S
O17 C10 1.289 . S
C18 O19 1.245 . S
C18 O20 1.274 . S
O19 Mg6 2.079 . S
O19 C18 1.245 . S
O20 Mg5 2.038 . S
O20 C18 1.274 . S
O21 Mg9 2.042 . S
O21 C24 1.241 . S
O22 Mg8 1.984 . S
O22 C24 1.280 . S
O23 Mg9 2.041 . S
O23 C27 1.277 . S
C24 O21 1.241 . S
C24 O22 1.280 . S
O25 Mg8 1.988 . S
O25 C27 1.245 . S
O26 C2 1.247 . S
O26 Mg8 2.061 . S
C27 O23 1.277 . S
C27 O25 1.245 . S
O28 C2 1.289 . S
O28 Mg5 2.238 . S
O28 Mg6 2.106 . S
O29 Mg6 2.079 . S
O29 C11 1.245 . S
O30 Mg9 2.038 . S
O30 C11 1.274 . S
C31 O43 1.241 . S
C31 O44 1.280 1_545 S
C32 O45 1.277 . S
C32 O46 1.245 . S
C33 O57 1.247 . S
C33 O59 1.289 . S
Mg34 O35 1.926 1_565 S
Mg34 O44 1.984 . S
Mg34 O46 1.988 . S
Mg34 O47 2.061 1_565 S
O35 Mg34 1.926 1_545 S
O35 Mg36 1.986 . S
O35 Mg37 1.917 . S
Mg36 O35 1.986 . S
Mg36 O43 2.042 . S
Mg36 O45 2.041 1_545 S
Mg36 O51 2.038 . S
Mg36 O59 2.238 . S
Mg37 O35 1.917 . S
Mg37 O38 1.917 . S
Mg37 O48 2.106 . S
Mg37 O50 2.079 . S
Mg37 O59 2.106 . S
Mg37 O60 2.079 . S
O38 Mg37 1.917 . S
O38 Mg39 1.926 . S
O38 Mg40 1.986 . S
Mg39 O38 1.926 . S
Mg39 O53 1.984 . S
Mg39 O56 1.988 . S
Mg39 O57 2.061 . S
Mg40 O38 1.986 . S
Mg40 O48 2.238 . S
Mg40 O52 2.042 . S
Mg40 O54 2.041 . S
Mg40 O61 2.038 . S
C41 O47 1.247 . S
C41 O48 1.289 . S
C42 O60 1.245 . S
C42 O61 1.274 . S
O43 C31 1.241 . S
O43 Mg36 2.042 . S
O44 C31 1.280 1_565 S
O44 Mg34 1.984 . S
O45 C32 1.277 . S
O45 Mg36 2.041 1_565 S
O46 C32 1.245 . S
O46 Mg34 1.988 . S
O47 Mg34 2.061 1_545 S
O47 C41 1.247 . S
O48 Mg37 2.106 . S
O48 Mg40 2.238 . S
O48 C41 1.289 . S
C49 O50 1.245 . S
C49 O51 1.274 . S
O50 Mg37 2.079 . S
O50 C49 1.245 . S
O51 Mg36 2.038 . S
O51 C49 1.274 . S
O52 Mg40 2.042 . S
O52 C55 1.241 . S
O53 Mg39 1.984 . S
O53 C55 1.280 . S
O54 Mg40 2.041 . S
O54 C58 1.277 . S
C55 O52 1.241 . S
C55 O53 1.280 . S
O56 Mg39 1.988 . S
O56 C58 1.245 . S
O57 C33 1.247 . S
O57 Mg39 2.061 . S
C58 O54 1.277 . S
C58 O56 1.245 . S
O59 C33 1.289 . S
O59 Mg36 2.238 . S
O59 Mg37 2.106 . S
O60 Mg37 2.079 . S
O60 C42 1.245 . S
O61 Mg40 2.038 . S
O61 C42 1.274 . S
C62 O74 1.241 . S
C62 O75 1.280 1_655 S
C63 O76 1.277 . S
C63 O77 1.245 . S
C64 O88 1.247 . S
C64 O90 1.289 . S
Mg65 O66 1.926 1_455 S
Mg65 O75 1.984 . S
Mg65 O77 1.988 . S
Mg65 O78 2.061 1_455 S
O66 Mg65 1.926 1_655 S
O66 Mg67 1.986 . S
O66 Mg68 1.917 . S
Mg67 O66 1.986 . S
Mg67 O74 2.042 . S
Mg67 O76 2.041 1_655 S
Mg67 O82 2.038 . S
Mg67 O90 2.238 . S
Mg68 O66 1.917 . S
Mg68 O69 1.917 . S
Mg68 O79 2.106 . S
Mg68 O81 2.079 . S
Mg68 O90 2.106 . S
Mg68 O91 2.079 . S
O69 Mg68 1.917 . S
O69 Mg70 1.926 . S
O69 Mg71 1.986 . S
Mg70 O69 1.926 . S
Mg70 O84 1.984 . S
Mg70 O87 1.988 . S
Mg70 O88 2.061 . S
Mg71 O69 1.986 . S
Mg71 O79 2.238 . S
Mg71 O83 2.042 . S
Mg71 O85 2.041 . S
Mg71 O92 2.038 . S
C72 O78 1.247 . S
C72 O79 1.289 . S
C73 O91 1.245 . S
C73 O92 1.274 . S
O74 C62 1.241 . S
O74 Mg67 2.042 . S
O75 C62 1.280 1_455 S
O75 Mg65 1.984 . S
O76 C63 1.277 . S
O76 Mg67 2.041 1_455 S
O77 C63 1.245 . S
O77 Mg65 1.988 . S
O78 Mg65 2.061 1_655 S
O78 C72 1.247 . S
O79 Mg68 2.106 . S
O79 Mg71 2.238 . S
O79 C72 1.289 . S
C80 O81 1.245 . S
C80 O82 1.274 . S
O81 Mg68 2.079 . S
O81 C80 1.245 . S
O82 Mg67 2.038 . S
O82 C80 1.274 . S
O83 Mg71 2.042 . S
O83 C86 1.241 . S
O84 Mg70 1.984 . S
O84 C86 1.280 . S
O85 Mg71 2.041 . S
O85 C89 1.277 . S
C86 O83 1.241 . S
C86 O84 1.280 . S
O87 Mg70 1.988 . S
O87 C89 1.245 . S
O88 C64 1.247 . S
O88 Mg70 2.061 . S
C89 O85 1.277 . S
C89 O87 1.245 . S
O90 C64 1.289 . S
O90 Mg67 2.238 . S
O90 Mg68 2.106 . S
O91 Mg68 2.079 . S
O91 C73 1.245 . S
O92 Mg71 2.038 . S
O92 C73 1.274 . S
C93 O105 1.241 . S
C93 O106 1.280 . S
C94 O107 1.277 . S
C94 O108 1.245 . S
C95 O119 1.247 . S
C95 O121 1.289 . S
Mg96 O97 1.926 . S
Mg96 O106 1.984 . S
Mg96 O108 1.988 . S
Mg96 O109 2.061 . S
O97 Mg96 1.926 . S
O97 Mg98 1.986 . S
O97 Mg99 1.917 . S
Mg98 O97 1.986 . S
Mg98 O105 2.042 . S
Mg98 O107 2.041 . S
Mg98 O113 2.038 . S
Mg98 O121 2.238 . S
Mg99 O97 1.917 . S
Mg99 O100 1.917 . S
Mg99 O110 2.106 . S
Mg99 O112 2.079 . S
Mg99 O121 2.106 . S
Mg99 O122 2.079 . S
O100 Mg99 1.917 . S
O100 Mg101 1.926 . S
O100 Mg102 1.986 . S
Mg101 O100 1.926 . S
Mg101 O115 1.984 . S
Mg101 O118 1.988 . S
Mg101 O119 2.061 . S
Mg102 O100 1.986 . S
Mg102 O110 2.238 . S
Mg102 O114 2.042 . S
Mg102 O116 2.041 . S
Mg102 O123 2.038 . S
C103 O109 1.247 . S
C103 O110 1.289 . S
C104 O122 1.245 . S
C104 O123 1.274 . S
O105 C93 1.241 . S
O105 Mg98 2.042 . S
O106 C93 1.280 . S
O106 Mg96 1.984 . S
O107 C94 1.277 . S
O107 Mg98 2.041 . S
O108 C94 1.245 . S
O108 Mg96 1.988 . S
O109 Mg96 2.061 . S
O109 C103 1.247 . S
O110 Mg99 2.106 . S
O110 Mg102 2.238 . S
O110 C103 1.289 . S
C111 O112 1.245 . S
C111 O113 1.274 . S
O112 Mg99 2.079 . S
O112 C111 1.245 . S
O113 Mg98 2.038 . S
O113 C111 1.274 . S
O114 Mg102 2.042 . S
O114 C117 1.241 . S
O115 Mg101 1.984 . S
O115 C117 1.280 . S
O116 Mg102 2.041 . S
O116 C120 1.277 . S
C117 O114 1.241 . S
C117 O115 1.280 . S
O118 Mg101 1.988 . S
O118 C120 1.245 . S
O119 C95 1.247 . S
O119 Mg101 2.061 . S
C120 O116 1.277 . S
C120 O118 1.245 . S
O121 C95 1.289 . S
O121 Mg98 2.238 . S
O121 Mg99 2.106 . S
O122 Mg99 2.079 . S
O122 C104 1.245 . S
O123 Mg102 2.038 . S
O123 C104 1.274 . S
C124 O136 1.241 . S
C124 O137 1.280 . S
C125 O138 1.277 . S
C125 O139 1.245 . S
C126 O150 1.247 . S
C126 O152 1.289 . S
Mg127 O128 1.926 . S
Mg127 O137 1.984 . S
Mg127 O139 1.988 . S
Mg127 O140 2.061 . S
O128 Mg127 1.926 . S
O128 Mg129 1.986 . S
O128 Mg130 1.917 . S
Mg129 O128 1.986 . S
Mg129 O136 2.042 . S
Mg129 O138 2.041 . S
Mg129 O144 2.038 . S
Mg129 O152 2.238 . S
Mg130 O128 1.917 . S
Mg130 O131 1.917 . S
Mg130 O141 2.106 . S
Mg130 O143 2.079 . S
Mg130 O152 2.106 . S
Mg130 O153 2.079 . S
O131 Mg130 1.917 . S
O131 Mg132 1.926 . S
O131 Mg133 1.986 . S
Mg132 O131 1.926 . S
Mg132 O146 1.984 . S
Mg132 O149 1.988 . S
Mg132 O150 2.061 . S
Mg133 O131 1.986 . S
Mg133 O141 2.238 . S
Mg133 O145 2.042 . S
Mg133 O147 2.041 . S
Mg133 O154 2.038 . S
C134 O140 1.247 . S
C134 O141 1.289 . S
C135 O153 1.245 . S
C135 O154 1.274 . S
O136 C124 1.241 . S
O136 Mg129 2.042 . S
O137 C124 1.280 . S
O137 Mg127 1.984 . S
O138 C125 1.277 . S
O138 Mg129 2.041 . S
O139 C125 1.245 . S
O139 Mg127 1.988 . S
O140 Mg127 2.061 . S
O140 C134 1.247 . S
O141 Mg130 2.106 . S
O141 Mg133 2.238 . S
O141 C134 1.289 . S
C142 O143 1.245 . S
C142 O144 1.274 . S
O143 Mg130 2.079 . S
O143 C142 1.245 . S
O144 Mg129 2.038 . S
O144 C142 1.274 . S
O145 Mg133 2.042 . S
O145 C148 1.241 . S
O146 Mg132 1.984 . S
O146 C148 1.280 . S
O147 Mg133 2.041 . S
O147 C151 1.277 . S
C148 O145 1.241 . S
C148 O146 1.280 . S
O149 Mg132 1.988 . S
O149 C151 1.245 . S
O150 C126 1.247 . S
O150 Mg132 2.061 . S
C151 O147 1.277 . S
C151 O149 1.245 . S
O152 C126 1.289 . S
O152 Mg129 2.238 . S
O152 Mg130 2.106 . S
O153 Mg130 2.079 . S
O153 C135 1.245 . S
O154 Mg133 2.038 . S
O154 C135 1.274 . S
C155 O167 1.241 . S
C155 O168 1.280 . S
C156 O169 1.277 . S
C156 O170 1.245 . S
C157 O181 1.247 . S
C157 O183 1.289 . S
Mg158 O159 1.926 . S
Mg158 O168 1.984 . S
Mg158 O170 1.988 . S
Mg158 O171 2.061 . S
O159 Mg158 1.926 . S
O159 Mg160 1.986 . S
O159 Mg161 1.917 . S
Mg160 O159 1.986 . S
Mg160 O167 2.042 . S
Mg160 O169 2.041 . S
Mg160 O175 2.038 . S
Mg160 O183 2.238 . S
Mg161 O159 1.917 . S
Mg161 O162 1.917 . S
Mg161 O172 2.106 . S
Mg161 O174 2.079 . S
Mg161 O183 2.106 . S
Mg161 O184 2.079 . S
O162 Mg161 1.917 . S
O162 Mg163 1.926 1_565 S
O162 Mg164 1.986 . S
Mg163 O162 1.926 1_545 S
Mg163 O177 1.984 . S
Mg163 O180 1.988 . S
Mg163 O181 2.061 1_545 S
Mg164 O162 1.986 . S
Mg164 O172 2.238 . S
Mg164 O176 2.042 . S
Mg164 O178 2.041 1_565 S
Mg164 O185 2.038 . S
C165 O171 1.247 . S
C165 O172 1.289 . S
C166 O184 1.245 . S
C166 O185 1.274 . S
O167 C155 1.241 . S
O167 Mg160 2.042 . S
O168 C155 1.280 . S
O168 Mg158 1.984 . S
O169 C156 1.277 . S
O169 Mg160 2.041 . S
O170 C156 1.245 . S
O170 Mg158 1.988 . S
O171 Mg158 2.061 . S
O171 C165 1.247 . S
O172 Mg161 2.106 . S
O172 Mg164 2.238 . S
O172 C165 1.289 . S
C173 O174 1.245 . S
C173 O175 1.274 . S
O174 Mg161 2.079 . S
O174 C173 1.245 . S
O175 Mg160 2.038 . S
O175 C173 1.274 . S
O176 Mg164 2.042 . S
O176 C179 1.241 . S
O177 Mg163 1.984 . S
O177 C179 1.280 1_545 S
O178 Mg164 2.041 1_545 S
O178 C182 1.277 . S
C179 O176 1.241 . S
C179 O177 1.280 1_565 S
O180 Mg163 1.988 . S
O180 C182 1.245 . S
O181 C157 1.247 . S
O181 Mg163 2.061 1_565 S
C182 O178 1.277 . S
C182 O180 1.245 . S
O183 C157 1.289 . S
O183 Mg160 2.238 . S
O183 Mg161 2.106 . S
O184 Mg161 2.079 . S
O184 C166 1.245 . S
O185 Mg164 2.038 . S
O185 C166 1.274 . S
C186 O198 1.241 . S
C186 O199 1.280 . S
C187 O200 1.277 . S
C187 O201 1.245 . S
C188 O212 1.247 . S
C188 O214 1.289 . S
Mg189 O190 1.926 . S
Mg189 O199 1.984 . S
Mg189 O201 1.988 . S
Mg189 O202 2.061 . S
O190 Mg189 1.926 . S
O190 Mg191 1.986 . S
O190 Mg192 1.917 . S
Mg191 O190 1.986 . S
Mg191 O198 2.042 . S
Mg191 O200 2.041 . S
Mg191 O206 2.038 . S
Mg191 O214 2.238 . S
Mg192 O190 1.917 . S
Mg192 O193 1.917 . S
Mg192 O203 2.106 . S
Mg192 O205 2.079 . S
Mg192 O214 2.106 . S
Mg192 O215 2.079 . S
O193 Mg192 1.917 . S
O193 Mg194 1.926 1_455 S
O193 Mg195 1.986 . S
Mg194 O193 1.926 1_655 S
Mg194 O208 1.984 . S
Mg194 O211 1.988 . S
Mg194 O212 2.061 1_655 S
Mg195 O193 1.986 . S
Mg195 O203 2.238 . S
Mg195 O207 2.042 . S
Mg195 O209 2.041 1_455 S
Mg195 O216 2.038 . S
C196 O202 1.247 . S
C196 O203 1.289 . S
C197 O215 1.245 . S
C197 O216 1.274 . S
O198 C186 1.241 . S
O198 Mg191 2.042 . S
O199 C186 1.280 . S
O199 Mg189 1.984 . S
O200 C187 1.277 . S
O200 Mg191 2.041 . S
O201 C187 1.245 . S
O201 Mg189 1.988 . S
O202 Mg189 2.061 . S
O202 C196 1.247 . S
O203 Mg192 2.106 . S
O203 Mg195 2.238 . S
O203 C196 1.289 . S
C204 O205 1.245 . S
C204 O206 1.274 . S
O205 Mg192 2.079 . S
O205 C204 1.245 . S
O206 Mg191 2.038 . S
O206 C204 1.274 . S
O207 Mg195 2.042 . S
O207 C210 1.241 . S
O208 Mg194 1.984 . S
O208 C210 1.280 1_655 S
O209 Mg195 2.041 1_655 S
O209 C213 1.277 . S
C210 O207 1.241 . S
C210 O208 1.280 1_455 S
O211 Mg194 1.988 . S
O211 C213 1.245 . S
O212 C188 1.247 . S
O212 Mg194 2.061 1_455 S
C213 O209 1.277 . S
C213 O211 1.245 . S
O214 C188 1.289 . S
O214 Mg191 2.238 . S
O214 Mg192 2.106 . S
O215 Mg192 2.079 . S
O215 C197 1.245 . S
O216 Mg195 2.038 . S
O216 C197 1.274 . S
C217 O229 1.241 . S
C217 O230 1.280 . S
C218 O231 1.277 . S
C218 O232 1.245 . S
C219 O243 1.247 . S
C219 O245 1.289 . S
Mg220 O221 1.926 . S
Mg220 O230 1.984 . S
Mg220 O232 1.988 . S
Mg220 O233 2.061 . S
O221 Mg220 1.926 . S
O221 Mg222 1.986 . S
O221 Mg223 1.917 . S
Mg222 O221 1.986 . S
Mg222 O229 2.042 . S
Mg222 O231 2.041 . S
Mg222 O237 2.038 . S
Mg222 O245 2.238 . S
Mg223 O221 1.917 . S
Mg223 O224 1.917 . S
Mg223 O234 2.106 . S
Mg223 O236 2.079 . S
Mg223 O245 2.106 . S
Mg223 O246 2.079 . S
O224 Mg223 1.917 . S
O224 Mg225 1.926 . S
O224 Mg226 1.986 . S
Mg225 O224 1.926 . S
Mg225 O239 1.984 . S
Mg225 O242 1.988 . S
Mg225 O243 2.061 . S
Mg226 O224 1.986 . S
Mg226 O234 2.238 . S
Mg226 O238 2.042 . S
Mg226 O240 2.041 . S
Mg226 O247 2.038 . S
C227 O233 1.247 . S
C227 O234 1.289 . S
C228 O246 1.245 . S
C228 O247 1.274 . S
O229 C217 1.241 . S
O229 Mg222 2.042 . S
O230 C217 1.280 . S
O230 Mg220 1.984 . S
O231 C218 1.277 . S
O231 Mg222 2.041 . S
O232 C218 1.245 . S
O232 Mg220 1.988 . S
O233 Mg220 2.061 . S
O233 C227 1.247 . S
O234 Mg223 2.106 . S
O234 Mg226 2.238 . S
O234 C227 1.289 . S
C235 O236 1.245 . S
C235 O237 1.274 . S
O236 Mg223 2.079 . S
O236 C235 1.245 . S
O237 Mg222 2.038 . S
O237 C235 1.274 . S
O238 Mg226 2.042 . S
O238 C241 1.241 . S
O239 Mg225 1.984 . S
O239 C241 1.280 . S
O240 Mg226 2.041 . S
O240 C244 1.277 . S
C241 O238 1.241 . S
C241 O239 1.280 . S
O242 Mg225 1.988 . S
O242 C244 1.245 . S
O243 C219 1.247 . S
O243 Mg225 2.061 . S
C244 O240 1.277 . S
C244 O242 1.245 . S
O245 C219 1.289 . S
O245 Mg222 2.238 . S
O245 Mg223 2.106 . S
O246 Mg223 2.079 . S
O246 C228 1.245 . S
O247 Mg226 2.038 . S
O247 C228 1.274 . S
H248 C254 0.930 . S
H249 C258 0.930 . S
H250 C263 0.929 . S
H251 C261 0.929 . S
H252 C256 0.929 . S
H253 C262 0.929 . S
C254 H248 0.930 . S
C254 C255 1.367 . S
C254 C262 1.378 . S
C255 C254 1.367 . S
C255 C263 1.433 . S
C256 H252 0.929 . S
C256 C258 1.378 . S
C256 C260 1.350 . S
C257 C260 1.463 . S
C257 C262 1.350 . S
C257 N265 1.427 . S
C258 H249 0.930 . S
C258 C256 1.378 . S
C258 C259 1.367 . S
C259 C258 1.367 . S
C259 C261 1.433 . S
C260 C256 1.350 . S
C260 C257 1.463 . S
C260 N264 1.427 . S
C261 H251 0.929 . S
C261 C259 1.433 . S
C261 N264 1.384 . S
C262 H253 0.929 . S
C262 C254 1.378 . S
C262 C257 1.350 . S
C263 H250 0.929 . S
C263 C255 1.433 . S
C263 N265 1.384 . S
N264 C260 1.427 . S
N264 C261 1.384 . S
N265 C257 1.427 . S
N265 C263 1.384 . S
H266 C272 0.930 . S
H267 C276 0.930 . S
H268 C281 0.929 . S
H269 C279 0.929 . S
H270 C274 0.929 1_556 S
H271 C280 0.929 . S
C272 H266 0.930 . S
C272 C273 1.367 . S
C272 C280 1.378 . S
C273 C272 1.367 . S
C273 C281 1.433 . S
C274 H270 0.929 1_554 S
C274 C276 1.378 . S
C274 C278 1.350 1_554 S
C275 C278 1.463 . S
C275 C280 1.350 . S
C275 N283 1.427 . S
C276 H267 0.930 . S
C276 C274 1.378 . S
C276 C277 1.367 . S
C277 C276 1.367 . S
C277 C279 1.433 . S
C278 C274 1.350 1_556 S
C278 C275 1.463 . S
C278 N282 1.427 1_556 S
C279 H269 0.929 . S
C279 C277 1.433 . S
C279 N282 1.384 . S
C280 H271 0.929 . S
C280 C272 1.378 . S
C280 C275 1.350 . S
C281 H268 0.929 . S
C281 C273 1.433 . S
C281 N283 1.384 . S
N282 C278 1.427 1_554 S
N282 C279 1.384 . S
N283 C275 1.427 . S
N283 C281 1.384 . S
H284 C290 0.930 . S
H285 C294 0.930 . S
H286 C299 0.929 . S
H287 C297 0.929 . S
H288 C292 0.929 . S
H289 C298 0.929 . S
C290 H284 0.930 . S
C290 C291 1.367 . S
C290 C298 1.378 . S
C291 C290 1.367 . S
C291 C299 1.433 . S
C292 H288 0.929 . S
C292 C294 1.378 . S
C292 C296 1.350 . S
C293 C296 1.463 . S
C293 C298 1.350 . S
C293 N301 1.427 . S
C294 H285 0.930 . S
C294 C292 1.378 . S
C294 C295 1.367 . S
C295 C294 1.367 . S
C295 C297 1.433 . S
C296 C292 1.350 . S
C296 C293 1.463 . S
C296 N300 1.427 . S
C297 H287 0.929 . S
C297 C295 1.433 . S
C297 N300 1.384 . S
C298 H289 0.929 . S
C298 C290 1.378 . S
C298 C293 1.350 . S
C299 H286 0.929 . S
C299 C291 1.433 . S
C299 N301 1.384 . S
N300 C296 1.427 . S
N300 C297 1.384 . S
N301 C293 1.427 . S
N301 C299 1.384 . S
H302 C308 0.930 . S
H303 C312 0.930 . S
H304 C317 0.929 . S
H305 C315 0.929 . S
H306 C310 0.929 . S
H307 C316 0.929 . S
C308 H302 0.930 . S
C308 C309 1.367 . S
C308 C316 1.378 . S
C309 C308 1.367 . S
C309 C317 1.433 . S
C310 H306 0.929 . S
C310 C312 1.378 . S
C310 C314 1.350 . S
C311 C314 1.463 . S
C311 C316 1.350 1_556 S
C311 N319 1.427 . S
C312 H303 0.930 . S
C312 C310 1.378 . S
C312 C313 1.367 . S
C313 C312 1.367 . S
C313 C315 1.433 . S
C314 C310 1.350 . S
C314 C311 1.463 . S
C314 N318 1.427 . S
C315 H305 0.929 . S
C315 C313 1.433 . S
C315 N318 1.384 . S
C316 H307 0.929 . S
C316 C308 1.378 . S
C316 C311 1.350 1_554 S
C317 H304 0.929 . S
C317 C309 1.433 . S
C317 N319 1.384 1_554 S
N318 C314 1.427 . S
N318 C315 1.384 . S
N319 C311 1.427 . S
N319 C317 1.384 1_556 S
H320 C326 0.930 . S
H321 C330 0.930 . S
H322 C335 0.929 . S
H323 C333 0.929 . S
H324 C328 0.929 . S
H325 C334 0.929 . S
C326 H320 0.930 . S
C326 C327 1.367 . S
C326 C334 1.378 . S
C327 C326 1.367 . S
C327 C335 1.433 . S
C328 H324 0.929 . S
C328 C330 1.378 . S
C328 C332 1.350 . S
C329 C332 1.463 . S
C329 C334 1.350 . S
C329 N337 1.427 . S
C330 H321 0.930 . S
C330 C328 1.378 . S
C330 C331 1.367 . S
C331 C330 1.367 . S
C331 C333 1.433 . S
C332 C328 1.350 . S
C332 C329 1.463 . S
C332 N336 1.427 . S
C333 H323 0.929 . S
C333 C331 1.433 . S
C333 N336 1.384 . S
C334 H325 0.929 . S
C334 C326 1.378 . S
C334 C329 1.350 . S
C335 H322 0.929 . S
C335 C327 1.433 . S
C335 N337 1.384 . S
N336 C332 1.427 . S
N336 C333 1.384 . S
N337 C329 1.427 . S
N337 C335 1.384 . S
H338 C344 0.930 . S
H339 C348 0.930 . S
H340 C353 0.929 . S
H341 C351 0.929 . S
H342 C346 0.929 . S
H343 C352 0.929 . S
C344 H338 0.930 . S
C344 C345 1.367 . S
C344 C352 1.378 . S
C345 C344 1.367 . S
C345 C353 1.433 . S
C346 H342 0.929 . S
C346 C348 1.378 1_554 S
C346 C350 1.350 . S
C347 C350 1.463 . S
C347 C352 1.350 . S
C347 N355 1.427 . S
C348 H339 0.930 . S
C348 C346 1.378 1_556 S
C348 C349 1.367 . S
C349 C348 1.367 . S
C349 C351 1.433 . S
C350 C346 1.350 . S
C350 C347 1.463 . S
C350 N354 1.427 1_554 S
C351 H341 0.929 . S
C351 C349 1.433 . S
C351 N354 1.384 . S
C352 H343 0.929 . S
C352 C344 1.378 . S
C352 C347 1.350 . S
C353 H340 0.929 . S
C353 C345 1.433 . S
C353 N355 1.384 . S
N354 C350 1.427 1_556 S
N354 C351 1.384 . S
N355 C347 1.427 . S
N355 C353 1.384 . S
H356 C362 0.930 . S
H357 C366 0.930 . S
H358 C371 0.929 . S
H359 C369 0.929 . S
H360 C364 0.929 . S
H361 C370 0.929 . S
C362 H356 0.930 . S
C362 C363 1.367 . S
C362 C370 1.378 . S
C363 C362 1.367 . S
C363 C371 1.433 . S
C364 H360 0.929 . S
C364 C366 1.378 . S
C364 C368 1.350 . S
C365 C368 1.463 . S
C365 C370 1.350 . S
C365 N373 1.427 . S
C366 H357 0.930 . S
C366 C364 1.378 . S
C366 C367 1.367 . S
C367 C366 1.367 . S
C367 C369 1.433 . S
C368 C364 1.350 . S
C368 C365 1.463 . S
C368 N372 1.427 . S
C369 H359 0.929 . S
C369 C367 1.433 . S
C369 N372 1.384 . S
C370 H361 0.929 . S
C370 C362 1.378 . S
C370 C365 1.350 . S
C371 H358 0.929 . S
C371 C363 1.433 . S
C371 N373 1.384 . S
N372 C368 1.427 . S
N372 C369 1.384 . S
N373 C365 1.427 . S
N373 C371 1.384 . S
H374 C380 0.930 . S
H375 C384 0.930 . S
H376 C389 0.929 . S
H377 C387 0.929 . S
H378 C382 0.929 1_554 S
H379 C388 0.929 . S
C380 H374 0.930 . S
C380 C381 1.367 . S
C380 C388 1.378 . S
C381 C380 1.367 . S
C381 C389 1.433 . S
C382 H378 0.929 1_556 S
C382 C384 1.378 . S
C382 C386 1.350 1_556 S
C383 C386 1.463 . S
C383 C388 1.350 . S
C383 N391 1.427 . S
C384 H375 0.930 . S
C384 C382 1.378 . S
C384 C385 1.367 . S
C385 C384 1.367 . S
C385 C387 1.433 . S
C386 C382 1.350 1_554 S
C386 C383 1.463 . S
C386 N390 1.427 1_554 S
C387 H377 0.929 . S
C387 C385 1.433 . S
C387 N390 1.384 . S
C388 H379 0.929 . S
C388 C380 1.378 . S
C388 C383 1.350 . S
C389 H376 0.929 . S
C389 C381 1.433 . S
C389 N391 1.384 . S
N390 C386 1.427 1_556 S
N390 C387 1.384 . S
N391 C383 1.427 . S
N391 C389 1.384 . S
H392 C398 0.930 . S
H393 C402 0.930 . S
H394 C407 0.929 . S
H395 C405 0.929 . S
H396 C400 0.929 . S
H397 C406 0.929 . S
C398 H392 0.930 . S
C398 C399 1.367 . S
C398 C406 1.378 . S
C399 C398 1.367 . S
C399 C407 1.433 1_554 S
C400 H396 0.929 . S
C400 C402 1.378 . S
C400 C404 1.350 . S
C401 C404 1.463 1_554 S
C401 C406 1.350 . S
C401 N409 1.427 1_554 S
C402 H393 0.930 . S
C402 C400 1.378 . S
C402 C403 1.367 . S
C403 C402 1.367 . S
C403 C405 1.433 1_556 S
C404 C400 1.350 . S
C404 C401 1.463 1_556 S
C404 N408 1.427 1_556 S
C405 H395 0.929 . S
C405 C403 1.433 1_554 S
C405 N408 1.384 . S
C406 H397 0.929 . S
C406 C398 1.378 . S
C406 C401 1.350 . S
C407 H394 0.929 . S
C407 C399 1.433 1_556 S
C407 N409 1.384 . S
N408 C404 1.427 1_554 S
N408 C405 1.384 . S
N409 C401 1.427 1_556 S
N409 C407 1.384 . S
H410 C416 0.930 . S
H411 C420 0.930 . S
H412 C425 0.929 . S
H413 C423 0.929 . S
H414 C418 0.929 . S
H415 C424 0.929 . S
C416 H410 0.930 . S
C416 C417 1.367 1_565 S
C416 C424 1.378 . S
C417 C416 1.367 1_545 S
C417 C425 1.433 . S
C418 H414 0.929 . S
C418 C420 1.378 . S
C418 C422 1.349 1_545 S
C419 C422 1.462 1_545 S
C419 C424 1.349 1_545 S
C419 N427 1.428 . S
C420 H411 0.930 . S
C420 C418 1.378 . S
C420 C421 1.367 1_545 S
C421 C420 1.367 1_565 S
C421 C423 1.433 . S
C422 C418 1.349 1_565 S
C422 C419 1.462 1_565 S
C422 N426 1.428 . S
C423 H413 0.929 . S
C423 C421 1.433 . S
C423 N426 1.384 . S
C424 H415 0.929 . S
C424 C416 1.378 . S
C424 C419 1.349 1_565 S
C425 H412 0.929 . S
C425 C417 1.433 . S
C425 N427 1.384 . S
N426 C422 1.428 . S
N426 C423 1.384 . S
N427 C419 1.428 . S
N427 C425 1.384 . S
H428 C434 0.930 . S
H429 C438 0.930 . S
H430 C443 0.929 . S
H431 C441 0.929 . S
H432 C436 0.929 . S
H433 C442 0.929 . S
C434 H428 0.930 . S
C434 C435 1.367 1_456 S
C434 C442 1.378 . S
C435 C434 1.367 1_654 S
C435 C443 1.433 . S
C436 H432 0.929 . S
C436 C438 1.378 . S
C436 C440 1.345 1_654 S
C437 C440 1.462 1_644 S
C437 C442 1.345 1_654 S
C437 N445 1.433 . S
C438 H429 0.930 . S
C438 C436 1.378 . S
C438 C439 1.367 1_654 S
C439 C438 1.367 1_456 S
C439 C441 1.433 . S
C440 C436 1.345 1_456 S
C440 C437 1.462 1_466 S
C440 N444 1.433 . S
C441 H431 0.929 . S
C441 C439 1.433 . S
C441 N444 1.384 . S
C442 H433 0.929 . S
C442 C434 1.378 . S
C442 C437 1.345 1_456 S
C443 H430 0.929 . S
C443 C435 1.433 . S
C443 N445 1.384 . S
N444 C440 1.433 . S
N444 C441 1.384 . S
N445 C437 1.433 . S
N445 C443 1.384 . S
H446 C452 0.930 . S
H447 C456 0.930 . S
H448 C461 0.929 . S
H449 C459 0.929 . S
H450 C454 0.929 . S
H451 C460 0.929 . S
C452 H446 0.930 . S
C452 C453 1.367 . S
C452 C460 1.378 . S
C453 C452 1.367 . S
C453 C461 1.433 . S
C454 H450 0.929 . S
C454 C456 1.378 . S
C454 C458 1.350 . S
C455 C458 1.463 1_655 S
C455 C460 1.350 . S
C455 N463 1.427 . S
C456 H447 0.930 . S
C456 C454 1.378 . S
C456 C457 1.367 . S
C457 C456 1.367 . S
C457 C459 1.433 . S
C458 C454 1.350 . S
C458 C455 1.463 1_455 S
C458 N462 1.427 . S
C459 H449 0.929 . S
C459 C457 1.433 . S
C459 N462 1.384 . S
C460 H451 0.929 . S
C460 C452 1.378 . S
C460 C455 1.350 . S
C461 H448 0.929 . S
C461 C453 1.433 . S
C461 N463 1.384 . S
N462 C458 1.427 . S
N462 C459 1.384 . S
N463 C455 1.427 . S
N463 C461 1.384 . S
H464 C470 0.930 . S
H465 C474 0.930 . S
H466 C479 0.929 . S
H467 C477 0.929 . S
H468 C472 0.929 . S
H469 C478 0.929 . S
C470 H464 0.930 . S
C470 C471 1.367 . S
C470 C478 1.378 . S
C471 C470 1.367 . S
C471 C479 1.433 . S
C472 H468 0.929 . S
C472 C474 1.378 . S
C472 C476 1.350 . S
C473 C476 1.463 . S
C473 C478 1.350 . S
C473 N481 1.427 . S
C474 H465 0.930 . S
C474 C472 1.378 . S
C474 C475 1.367 . S
C475 C474 1.367 . S
C475 C477 1.433 . S
C476 C472 1.350 . S
C476 C473 1.463 . S
C476 N480 1.427 . S
C477 H467 0.929 . S
C477 C475 1.433 . S
C477 N480 1.384 . S
C478 H469 0.929 . S
C478 C470 1.378 . S
C478 C473 1.350 . S
C479 H466 0.929 . S
C479 C471 1.433 . S
C479 N481 1.384 . S
N480 C476 1.427 . S
N480 C477 1.384 . S
N481 C473 1.427 . S
N481 C479 1.384 . S
H482 C488 0.930 . S
H483 C492 0.930 . S
H484 C497 0.929 . S
H485 C495 0.929 . S
H486 C490 0.929 . S
H487 C496 0.929 . S
C488 H482 0.930 . S
C488 C489 1.367 . S
C488 C496 1.378 . S
C489 C488 1.367 . S
C489 C497 1.433 . S
C490 H486 0.929 . S
C490 C492 1.378 . S
C490 C494 1.350 . S
C491 C494 1.463 . S
C491 C496 1.350 . S
C491 N499 1.427 . S
C492 H483 0.930 . S
C492 C490 1.378 . S
C492 C493 1.367 . S
C493 C492 1.367 . S
C493 C495 1.433 . S
C494 C490 1.350 . S
C494 C491 1.463 . S
C494 N498 1.427 . S
C495 H485 0.929 . S
C495 C493 1.433 . S
C495 N498 1.384 . S
C496 H487 0.929 . S
C496 C488 1.378 . S
C496 C491 1.350 . S
C497 H484 0.929 . S
C497 C489 1.433 . S
C497 N499 1.384 . S
N498 C494 1.427 . S
N498 C495 1.384 . S
N499 C491 1.427 . S
N499 C497 1.384 . S
H500 C506 0.930 . S
H501 C510 0.930 . S
H502 C515 0.929 . S
H503 C513 0.929 . S
H504 C508 0.929 . S
H505 C514 0.929 . S
C506 H500 0.930 . S
C506 C507 1.367 . S
C506 C514 1.378 . S
C507 C506 1.367 . S
C507 C515 1.433 . S
C508 H504 0.929 . S
C508 C510 1.378 . S
C508 C512 1.350 . S
C509 C512 1.463 . S
C509 C514 1.350 . S
C509 N517 1.427 . S
C510 H501 0.930 . S
C510 C508 1.378 . S
C510 C511 1.367 . S
C511 C510 1.367 . S
C511 C513 1.433 . S
C512 C508 1.350 . S
C512 C509 1.463 . S
C512 N516 1.427 . S
C513 H503 0.929 . S
C513 C511 1.433 . S
C513 N516 1.384 . S
C514 H505 0.929 . S
C514 C506 1.378 . S
C514 C509 1.350 . S
C515 H502 0.929 . S
C515 C507 1.433 . S
C515 N517 1.384 . S
N516 C512 1.427 . S
N516 C513 1.384 . S
N517 C509 1.427 . S
N517 C515 1.384 . S
H518 C524 0.930 . S
H519 C528 0.930 . S
H520 C533 0.929 . S
H521 C531 0.929 . S
H522 C526 0.929 . S
H523 C532 0.929 . S
C524 H518 0.930 . S
C524 C525 1.367 . S
C524 C532 1.378 . S
C525 C524 1.367 . S
C525 C533 1.433 . S
C526 H522 0.929 . S
C526 C528 1.378 . S
C526 C530 1.350 . S
C527 C530 1.463 . S
C527 C532 1.350 . S
C527 N535 1.427 . S
C528 H519 0.930 . S
C528 C526 1.378 . S
C528 C529 1.367 . S
C529 C528 1.367 . S
C529 C531 1.433 . S
C530 C526 1.350 . S
C530 C527 1.463 . S
C530 N534 1.427 . S
C531 H521 0.929 . S
C531 C529 1.433 . S
C531 N534 1.384 . S
C532 H523 0.929 . S
C532 C524 1.378 . S
C532 C527 1.350 . S
C533 H520 0.929 . S
C533 C525 1.433 . S
C533 N535 1.384 . S
N534 C530 1.427 . S
N534 C531 1.384 . S
N535 C527 1.427 . S
N535 C533 1.384 . S
H536 C542 0.930 . S
H537 C546 0.930 . S
H538 C551 0.929 . S
H539 C549 0.929 . S
H540 C544 0.929 . S
H541 C550 0.929 . S
C542 H536 0.930 . S
C542 C543 1.367 1_556 S
C542 C550 1.378 . S
C543 C542 1.367 1_554 S
C543 C551 1.433 . S
C544 H540 0.929 . S
C544 C546 1.378 . S
C544 C548 1.350 . S
C545 C548 1.463 . S
C545 C550 1.350 . S
C545 N553 1.427 . S
C546 H537 0.930 . S
C546 C544 1.378 . S
C546 C547 1.367 . S
C547 C546 1.367 . S
C547 C549 1.433 . S
C548 C544 1.350 . S
C548 C545 1.463 . S
C548 N552 1.427 . S
C549 H539 0.929 . S
C549 C547 1.433 . S
C549 N552 1.384 . S
C550 H541 0.929 . S
C550 C542 1.378 . S
C550 C545 1.350 . S
C551 H538 0.929 . S
C551 C543 1.433 . S
C551 N553 1.384 1_554 S
N552 C548 1.427 . S
N552 C549 1.384 . S
N553 C545 1.427 . S
N553 C551 1.384 1_556 S
H554 C560 0.930 . S
H555 C564 0.930 . S
H556 C569 0.929 . S
H557 C567 0.929 . S
H558 C562 0.929 . S
H559 C568 0.929 . S
C560 H554 0.930 . S
C560 C561 1.367 . S
C560 C568 1.378 . S
C561 C560 1.367 . S
C561 C569 1.433 . S
C562 H558 0.929 . S
C562 C564 1.378 . S
C562 C566 1.350 . S
C563 C566 1.463 . S
C563 C568 1.350 . S
C563 N571 1.427 . S
C564 H555 0.930 . S
C564 C562 1.378 . S
C564 C565 1.367 . S
C565 C564 1.367 . S
C565 C567 1.433 . S
C566 C562 1.350 . S
C566 C563 1.463 . S
C566 N570 1.427 . S
C567 H557 0.929 . S
C567 C565 1.433 . S
C567 N570 1.384 . S
C568 H559 0.929 . S
C568 C560 1.378 . S
C568 C563 1.350 . S
C569 H556 0.929 . S
C569 C561 1.433 . S
C569 N571 1.384 . S
N570 C566 1.427 . S
N570 C567 1.384 . S
N571 C563 1.427 . S
N571 C569 1.384 . S
H572 C578 0.930 . S
H573 C582 0.930 . S
H574 C587 0.929 . S
H575 C585 0.929 . S
H576 C580 0.929 . S
H577 C586 0.929 . S
C578 H572 0.930 . S
C578 C579 1.367 . S
C578 C586 1.378 . S
C579 C578 1.367 . S
C579 C587 1.433 . S
C580 H576 0.929 . S
C580 C582 1.378 1_556 S
C580 C584 1.350 . S
C581 C584 1.463 . S
C581 C586 1.350 . S
C581 N589 1.427 . S
C582 H573 0.930 . S
C582 C580 1.378 1_554 S
C582 C583 1.367 . S
C583 C582 1.367 . S
C583 C585 1.433 1_554 S
C584 C580 1.350 . S
C584 C581 1.463 . S
C584 N588 1.427 . S
C585 H575 0.929 . S
C585 C583 1.433 1_556 S
C585 N588 1.384 . S
C586 H577 0.929 . S
C586 C578 1.378 . S
C586 C581 1.350 . S
C587 H574 0.929 . S
C587 C579 1.433 . S
C587 N589 1.384 . S
N588 C584 1.427 . S
N588 C585 1.384 . S
N589 C581 1.427 . S
N589 C587 1.384 . S
H590 C596 0.930 . S
H591 C600 0.930 . S
H592 C605 0.929 . S
H593 C603 0.929 . S
H594 C598 0.929 . S
H595 C604 0.929 . S
C596 H590 0.930 . S
C596 C597 1.367 . S
C596 C604 1.378 . S
C597 C596 1.367 . S
C597 C605 1.433 . S
C598 H594 0.929 . S
C598 C600 1.378 . S
C598 C602 1.350 . S
C599 C602 1.463 . S
C599 C604 1.350 . S
C599 N607 1.427 . S
C600 H591 0.930 . S
C600 C598 1.378 . S
C600 C601 1.367 . S
C601 C600 1.367 . S
C601 C603 1.433 . S
C602 C598 1.350 . S
C602 C599 1.463 . S
C602 N606 1.427 . S
C603 H593 0.929 . S
C603 C601 1.433 . S
C603 N606 1.384 . S
C604 H595 0.929 . S
C604 C596 1.378 . S
C604 C599 1.350 . S
C605 H592 0.929 . S
C605 C597 1.433 . S
C605 N607 1.384 . S
N606 C602 1.427 . S
N606 C603 1.384 . S
N607 C599 1.427 . S
N607 C605 1.384 . S
H608 C614 0.930 . S
H609 C618 0.930 . S
H610 C623 0.929 . S
H611 C621 0.929 . S
H612 C616 0.929 . S
H613 C622 0.929 . S
C614 H608 0.930 . S
C614 C615 1.367 1_554 S
C614 C622 1.378 . S
C615 C614 1.367 1_556 S
C615 C623 1.433 . S
C616 H612 0.929 . S
C616 C618 1.378 . S
C616 C620 1.350 . S
C617 C620 1.463 . S
C617 C622 1.350 . S
C617 N625 1.427 . S
C618 H609 0.930 . S
C618 C616 1.378 . S
C618 C619 1.367 . S
C619 C618 1.367 . S
C619 C621 1.433 . S
C620 C616 1.350 . S
C620 C617 1.463 . S
C620 N624 1.427 . S
C621 H611 0.929 . S
C621 C619 1.433 . S
C621 N624 1.384 . S
C622 H613 0.929 . S
C622 C614 1.378 . S
C622 C617 1.350 . S
C623 H610 0.929 . S
C623 C615 1.433 . S
C623 N625 1.384 1_556 S
N624 C620 1.427 . S
N624 C621 1.384 . S
N625 C617 1.427 . S
N625 C623 1.384 1_554 S
H626 C632 0.930 . S
H627 C636 0.930 . S
H628 C641 0.929 . S
H629 C639 0.929 . S
H630 C634 0.929 . S
H631 C640 0.929 . S
C632 H626 0.930 . S
C632 C633 1.367 . S
C632 C640 1.378 . S
C633 C632 1.367 . S
C633 C641 1.433 . S
C634 H630 0.929 . S
C634 C636 1.378 . S
C634 C638 1.350 . S
C635 C638 1.463 . S
C635 C640 1.350 . S
C635 N643 1.427 . S
C636 H627 0.930 . S
C636 C634 1.378 . S
C636 C637 1.367 . S
C637 C636 1.367 . S
C637 C639 1.433 . S
C638 C634 1.350 . S
C638 C635 1.463 . S
C638 N642 1.427 . S
C639 H629 0.929 . S
C639 C637 1.433 . S
C639 N642 1.384 . S
C640 H631 0.929 . S
C640 C632 1.378 . S
C640 C635 1.350 . S
C641 H628 0.929 . S
C641 C633 1.433 . S
C641 N643 1.384 . S
N642 C638 1.427 . S
N642 C639 1.384 . S
N643 C635 1.427 . S
N643 C641 1.384 . S
H644 C650 0.930 . S
H645 C654 0.930 . S
H646 C659 0.929 . S
H647 C657 0.929 . S
H648 C652 0.929 . S
H649 C658 0.929 . S
C650 H644 0.930 . S
C650 C651 1.367 . S
C650 C658 1.378 . S
C651 C650 1.367 . S
C651 C659 1.433 . S
C652 H648 0.929 . S
C652 C654 1.378 1_554 S
C652 C656 1.350 . S
C653 C656 1.463 . S
C653 C658 1.350 . S
C653 N661 1.427 . S
C654 H645 0.930 . S
C654 C652 1.378 1_556 S
C654 C655 1.367 . S
C655 C654 1.367 . S
C655 C657 1.433 1_556 S
C656 C652 1.350 . S
C656 C653 1.463 . S
C656 N660 1.427 . S
C657 H647 0.929 . S
C657 C655 1.433 1_554 S
C657 N660 1.384 . S
C658 H649 0.929 . S
C658 C650 1.378 . S
C658 C653 1.350 . S
C659 H646 0.929 . S
C659 C651 1.433 . S
C659 N661 1.384 . S
N660 C656 1.427 . S
N660 C657 1.384 . S
N661 C653 1.427 . S
N661 C659 1.384 . S
H662 C668 0.930 . S
H663 C672 0.930 . S
H664 C677 0.929 . S
H665 C675 0.929 . S
H666 C670 0.929 . S
H667 C676 0.929 . S
C668 H662 0.930 . S
C668 C669 1.367 . S
C668 C676 1.378 . S
C669 C668 1.367 . S
C669 C677 1.433 . S
C670 H666 0.929 . S
C670 C672 1.378 . S
C670 C674 1.350 . S
C671 C674 1.463 . S
C671 C676 1.350 . S
C671 N679 1.427 . S
C672 H663 0.930 . S
C672 C670 1.378 . S
C672 C673 1.367 . S
C673 C672 1.367 . S
C673 C675 1.433 . S
C674 C670 1.350 . S
C674 C671 1.463 . S
C674 N678 1.427 . S
C675 H665 0.929 . S
C675 C673 1.433 . S
C675 N678 1.384 . S
C676 H667 0.929 . S
C676 C668 1.378 . S
C676 C671 1.350 . S
C677 H664 0.929 . S
C677 C669 1.433 . S
C677 N679 1.384 . S
N678 C674 1.427 . S
N678 C675 1.384 . S
N679 C671 1.427 . S
N679 C677 1.384 . S
H680 C686 0.930 . S
H681 C690 0.930 . S
H682 C695 0.929 . S
H683 C693 0.929 . S
H684 C688 0.929 . S
H685 C694 0.929 . S
C686 H680 0.930 . S
C686 C687 1.367 . S
C686 C694 1.378 . S
C687 C686 1.367 . S
C687 C695 1.433 . S
C688 H684 0.929 . S
C688 C690 1.378 . S
C688 C692 1.350 . S
C689 C692 1.463 . S
C689 C694 1.350 . S
C689 N697 1.427 . S
C690 H681 0.930 . S
C690 C688 1.378 . S
C690 C691 1.367 . S
C691 C690 1.367 . S
C691 C693 1.433 . S
C692 C688 1.350 . S
C692 C689 1.463 . S
C692 N696 1.427 . S
C693 H683 0.929 . S
C693 C691 1.433 . S
C693 N696 1.384 . S
C694 H685 0.929 . S
C694 C686 1.378 . S
C694 C689 1.350 . S
C695 H682 0.929 . S
C695 C687 1.433 . S
C695 N697 1.384 . S
N696 C692 1.427 . S
N696 C693 1.384 . S
N697 C689 1.427 . S
N697 C695 1.384 . S
H698 C704 0.930 . S
H699 C708 0.930 . S
H700 C713 0.929 . S
H701 C711 0.929 . S
H702 C706 0.929 . S
H703 C712 0.929 . S
C704 H698 0.930 . S
C704 C705 1.367 . S
C704 C712 1.378 . S
C705 C704 1.367 . S
C705 C713 1.433 . S
C706 H702 0.929 . S
C706 C708 1.378 . S
C706 C710 1.350 . S
C707 C710 1.463 . S
C707 C712 1.350 . S
C707 N715 1.427 . S
C708 H699 0.930 . S
C708 C706 1.378 . S
C708 C709 1.367 . S
C709 C708 1.367 . S
C709 C711 1.433 . S
C710 C706 1.350 . S
C710 C707 1.463 . S
C710 N714 1.427 . S
C711 H701 0.929 . S
C711 C709 1.433 . S
C711 N714 1.384 . S
C712 H703 0.929 . S
C712 C704 1.378 . S
C712 C707 1.350 . S
C713 H700 0.929 . S
C713 C705 1.433 . S
C713 N715 1.384 . S
N714 C710 1.427 . S
N714 C711 1.384 . S
N715 C707 1.427 . S
N715 C713 1.384 . S
H716 C722 0.930 . S
H717 C726 0.930 . S
H718 C731 0.929 . S
H719 C729 0.925 1_655 S
H720 C724 0.929 . S
H721 C730 0.929 . S
C722 H716 0.930 . S
C722 C723 1.367 . S
C722 C730 1.378 . S
C723 C722 1.367 . S
C723 C731 1.433 . S
C724 H720 0.929 . S
C724 C726 1.378 . S
C724 C728 1.350 . S
C725 C728 1.463 . S
C725 C730 1.350 . S
C725 N733 1.427 . S
C726 H717 0.930 . S
C726 C724 1.378 . S
C726 C727 1.367 . S
C727 C726 1.367 . S
C727 C729 1.433 . S
C728 C724 1.350 . S
C728 C725 1.463 . S
C728 N732 1.427 . S
C729 H719 0.925 1_455 S
C729 C727 1.433 . S
C729 N732 1.384 . S
C730 H721 0.929 . S
C730 C722 1.378 . S
C730 C725 1.350 . S
C731 H718 0.929 . S
C731 C723 1.433 . S
C731 N733 1.384 . S
N732 C728 1.427 . S
N732 C729 1.384 . S
N733 C725 1.427 . S
N733 C731 1.384 . S
H734 C740 0.930 . S
H735 C744 0.930 . S
H736 C749 0.929 . S
H737 C747 0.929 . S
H738 C742 0.929 . S
H739 C748 0.929 . S
C740 H734 0.930 . S
C740 C741 1.367 . S
C740 C748 1.378 . S
C741 C740 1.367 . S
C741 C749 1.433 . S
C742 H738 0.929 . S
C742 C744 1.378 . S
C742 C746 1.350 . S
C743 C746 1.463 . S
C743 C748 1.350 . S
C743 N751 1.427 . S
C744 H735 0.930 . S
C744 C742 1.378 . S
C744 C745 1.367 . S
C745 C744 1.367 . S
C745 C747 1.433 . S
C746 C742 1.350 . S
C746 C743 1.463 . S
C746 N750 1.427 . S
C747 H737 0.929 . S
C747 C745 1.433 . S
C747 N750 1.384 . S
C748 H739 0.929 . S
C748 C740 1.378 . S
C748 C743 1.350 . S
C749 H736 0.929 . S
C749 C741 1.433 . S
C749 N751 1.384 . S
N750 C746 1.427 . S
N750 C747 1.384 . S
N751 C743 1.427 . S
N751 C749 1.384 . S
H752 C758 0.930 . S
H753 C762 0.930 . S
H754 C767 0.929 . S
H755 C765 0.929 . S
H756 C760 0.929 . S
H757 C766 0.929 . S
C758 H752 0.930 . S
C758 C759 1.367 . S
C758 C766 1.378 . S
C759 C758 1.367 . S
C759 C767 1.433 . S
C760 H756 0.929 . S
C760 C762 1.378 . S
C760 C764 1.350 . S
C761 C764 1.463 . S
C761 C766 1.350 . S
C761 N769 1.427 . S
C762 H753 0.930 . S
C762 C760 1.378 . S
C762 C763 1.367 . S
C763 C762 1.367 . S
C763 C765 1.433 . S
C764 C760 1.350 . S
C764 C761 1.463 . S
C764 N768 1.427 . S
C765 H755 0.929 . S
C765 C763 1.433 . S
C765 N768 1.384 . S
C766 H757 0.929 . S
C766 C758 1.378 . S
C766 C761 1.350 . S
C767 H754 0.929 . S
C767 C759 1.433 . S
C767 N769 1.384 . S
N768 C764 1.427 . S
N768 C765 1.384 . S
N769 C761 1.427 . S
N769 C767 1.384 . S
H770 C776 0.930 . S
H771 C780 0.930 . S
H772 C785 0.929 1_565 S
H773 C783 0.929 . S
H774 C778 0.929 . S
H775 C784 0.929 . S
C776 H770 0.930 . S
C776 C777 1.367 . S
C776 C784 1.378 . S
C777 C776 1.367 . S
C777 C785 1.433 . S
C778 H774 0.929 . S
C778 C780 1.378 . S
C778 C782 1.350 . S
C779 C782 1.463 . S
C779 C784 1.350 . S
C779 N787 1.427 . S
C780 H771 0.930 . S
C780 C778 1.378 . S
C780 C781 1.367 . S
C781 C780 1.367 . S
C781 C783 1.433 . S
C782 C778 1.350 . S
C782 C779 1.463 . S
C782 N786 1.427 . S
C783 H773 0.929 . S
C783 C781 1.433 . S
C783 N786 1.384 . S
C784 H775 0.929 . S
C784 C776 1.378 . S
C784 C779 1.350 . S
C785 H772 0.929 1_545 S
C785 C777 1.433 . S
C785 N787 1.384 . S
N786 C782 1.427 . S
N786 C783 1.384 . S
N787 C779 1.427 . S
N787 C785 1.384 . S
H788 C794 0.930 . S
H789 C798 0.930 . S
H790 C803 0.929 . S
H791 C801 0.929 . S
H792 C796 0.929 . S
H793 C802 0.929 . S
C794 H788 0.930 . S
C794 C795 1.367 . S
C794 C802 1.378 . S
C795 C794 1.367 . S
C795 C803 1.433 . S
C796 H792 0.929 . S
C796 C798 1.378 . S
C796 C800 1.350 . S
C797 C800 1.463 . S
C797 C802 1.350 . S
C797 N805 1.427 . S
C798 H789 0.930 . S
C798 C796 1.378 . S
C798 C799 1.367 . S
C799 C798 1.367 . S
C799 C801 1.433 . S
C800 C796 1.350 . S
C800 C797 1.463 . S
C800 N804 1.427 . S
C801 H791 0.929 . S
C801 C799 1.433 . S
C801 N804 1.384 . S
C802 H793 0.929 . S
C802 C794 1.378 . S
C802 C797 1.350 . S
C803 H790 0.929 . S
C803 C795 1.433 . S
C803 N805 1.384 . S
N804 C800 1.427 . S
N804 C801 1.384 . S
N805 C797 1.427 . S
N805 C803 1.384 . S
H806 C812 0.930 . S
H807 C816 0.930 . S
H808 C821 0.929 . S
H809 C819 0.929 . S
H810 C814 0.929 . S
H811 C820 0.929 . S
C812 H806 0.930 . S
C812 C813 1.367 . S
C812 C820 1.378 . S
C813 C812 1.367 . S
C813 C821 1.433 . S
C814 H810 0.929 . S
C814 C816 1.378 . S
C814 C818 1.350 . S
C815 C818 1.463 . S
C815 C820 1.350 . S
C815 N823 1.427 . S
C816 H807 0.930 . S
C816 C814 1.378 . S
C816 C817 1.367 . S
C817 C816 1.367 . S
C817 C819 1.433 . S
C818 C814 1.350 . S
C818 C815 1.463 . S
C818 N822 1.427 . S
C819 H809 0.929 . S
C819 C817 1.433 . S
C819 N822 1.384 . S
C820 H811 0.929 . S
C820 C812 1.378 . S
C820 C815 1.350 . S
C821 H808 0.929 . S
C821 C813 1.433 . S
C821 N823 1.384 . S
N822 C818 1.427 . S
N822 C819 1.384 . S
N823 C815 1.427 . S
N823 C821 1.384 . S
C255 C24 1.334 . S
C259 C49 1.311 . S
C273 C55 1.346 . S
C277 C80 1.320 . S
C291 C86 1.339 . S
C295 C111 1.307 . S
C309 C18 1.321 . S
C313 C117 1.338 . S
C327 C124 1.344 . S
C331 C166 1.312 . S
C345 C155 1.343 . S
C349 C197 1.309 . S
C363 C186 1.345 . S
C367 C228 1.322 . S
C381 C217 1.346 . S
C385 C135 1.320 . S
C399 C0 1.318 . S
C403 C148 1.318 . S
C417 C31 1.334 . S
C421 C179 1.334 . S
C435 C62 1.338 . S
C439 C210 1.338 . S
C453 C93 1.339 . S
C457 C241 1.339 . S
C471 C27 0.556 . S
C475 C89 0.526 . S
C489 C120 0.527 . S
C493 C58 0.575 . S
C507 C125 0.523 . S
C511 C187 0.564 . S
C525 C156 0.531 . S
C529 C218 0.577 . S
C543 C10 2.442 . S
C547 C33 2.138 . S
C561 C41 2.442 . S
C565 C64 2.146 . S
C579 C95 2.143 . S
C583 C72 2.442 . S
C597 C103 2.443 . S
C601 C2 2.145 . S
C615 C126 2.443 . S
C619 C165 2.143 . S
C633 C196 2.134 . S
C637 C157 2.440 . S
C651 C227 2.133 . S
C655 C188 2.441 . S
C669 C134 2.147 . S
C673 C219 2.444 . S
C687 C11 1.531 . S
C691 C182 1.553 . S
C705 C42 1.531 1_565 S
C709 C213 1.557 . S
C723 C244 1.555 . S
C727 C73 1.531 1_455 S
C741 C151 1.560 . S
C745 C104 1.519 . S
C759 C32 1.556 . S
C763 C142 1.531 . S
C777 C173 1.526 1_545 S
C781 C63 1.546 . S
C795 C204 1.525 1_655 S
C799 C94 1.561 . S
C813 C1 1.555 . S
C817 C235 1.513 . S
