# Generated by pormake.
# Topology oof, (8)-cn, num edge types: 1
# Building blocks:
#     Node 0, Type 0, BuildingBlock: AJUNOK_clean_sbu_0, # of connection points: 8
#     Node 1, Type 0, BuildingBlock: AJUNOK_clean_sbu_0, # of connection points: 8
#     Node 2, Type 0, BuildingBlock: AJUNOK_clean_sbu_0, # of connection points: 8
#     Node 3, Type 0, BuildingBlock: AJUNOK_clean_sbu_0, # of connection points: 8
#     Edge 4, Type (0, 0), BuildingBlock: FUNLAD_clean_linker_0, # of connection points: 2
#     Edge 5, Type (0, 0), BuildingBlock: FUNLAD_clean_linker_0, # of connection points: 2
#     Edge 6, Type (0, 0), BuildingBlock: FUNLAD_clean_linker_0, # of connection points: 2
#     Edge 7, Type (0, 0), BuildingBlock: FUNLAD_clean_linker_0, # of connection points: 2
#     Edge 8, Type (0, 0), BuildingBlock: FUNLAD_clean_linker_0, # of connection points: 2
#     Edge 9, Type (0, 0), BuildingBlock: FUNLAD_clean_linker_0, # of connection points: 2
#     Edge 10, Type (0, 0), BuildingBlock: FUNLAD_clean_linker_0, # of connection points: 2
#     Edge 11, Type (0, 0), BuildingBlock: FUNLAD_clean_linker_0, # of connection points: 2
#     Edge 12, Type (0, 0), BuildingBlock: FUNLAD_clean_linker_0, # of connection points: 2
#     Edge 13, Type (0, 0), BuildingBlock: FUNLAD_clean_linker_0, # of connection points: 2
#     Edge 14, Type (0, 0), BuildingBlock: FUNLAD_clean_linker_0, # of connection points: 2
#     Edge 15, Type (0, 0), BuildingBlock: FUNLAD_clean_linker_0, # of connection points: 2
#     Edge 16, Type (0, 0), BuildingBlock: FUNLAD_clean_linker_0, # of connection points: 2
#     Edge 17, Type (0, 0), BuildingBlock: FUNLAD_clean_linker_0, # of connection points: 2
#     Edge 18, Type (0, 0), BuildingBlock: FUNLAD_clean_linker_0, # of connection points: 2
#     Edge 19, Type (0, 0), BuildingBlock: FUNLAD_clean_linker_0, # of connection points: 2
# Relax obj value: 0.072
# Max RMSD: 0.165
# Mean RMSD: 0.164
data_MOF--net-oof--node1-AJUNOK_clean_sbu_0--edge1-FUNLAD_clean_linker_0
_symmetry_space_group_name_H-M    P1
_symmetry_Int_Tables_number       1
_symmetry_cell_setting            triclinic
loop_
_symmetry_equiv_pos_as_xyz
'x, y, z'
_cell_length_a     15.996252
_cell_length_b     73.059366
_cell_length_c     23.662782
_cell_angle_alpha  101.76668
_cell_angle_beta   92.966442
_cell_angle_gamma 83.505879
loop_
_atom_site_label
_atom_site_type_symbol
_atom_site_fract_x
_atom_site_fract_y
_atom_site_fract_z
_atom_type_partial_charge
Cd0 Cd 0.93095 0.09914 0.20569 0.0
Cd1 Cd 0.97472 0.15479 0.31695 0.0
C2 C 0.00068 0.10054 0.08334 0.0
N3 N 0.93804 0.1094 0.11887 0.0
C4 C 0.88129 0.12658 0.04723 0.0
C5 C 0.94465 0.11736 0.00922 0.0
C6 C 0.00563 0.10444 0.02841 0.0
C7 C 0.87921 0.12238 0.10229 0.0
H8 H 0.04554 0.08997 0.09702 0.0
H9 H 0.8296 0.1291 0.13123 0.0
C10 C 0.8202 0.13557 0.29536 0.0
C11 C 0.92187 0.14748 0.43674 0.0
C12 C 0.92456 0.14089 0.48801 0.0
C13 C 0.98272 0.12565 0.49536 0.0
C14 C 0.03524 0.1169 0.44971 0.0
C15 C 0.02918 0.12375 0.39833 0.0
N16 N 0.97331 0.13886 0.39306 0.0
H17 H 0.88094 0.16 0.43266 0.0
H18 H 0.07135 0.11749 0.36378 0.0
C19 C 0.85457 0.17633 0.23701 0.0
N20 N 0.92864 0.16511 0.232 0.0
C21 C 0.9454 0.17087 0.13732 0.0
C22 C 0.86908 0.18264 0.14186 0.0
C23 C 0.82317 0.18509 0.1922 0.0
C24 C 0.97411 0.16208 0.18326 0.0
H25 H 0.82104 0.17904 0.27683 0.0
H26 H 0.03357 0.15332 0.18067 0.0
C27 C 0.1171 0.11521 0.23585 0.0
C28 C 0.87913 0.06433 0.15375 0.0
N29 N 0.96364 0.08656 0.28896 0.0
C30 C 0.03948 0.07625 0.2922 0.0
C31 C 0.055 0.06496 0.3334 0.0
C32 C -0.00842 0.06408 0.37134 0.0
C33 C 0.91555 0.07564 0.36903 0.0
C34 C 0.90264 0.0867 0.32701 0.0
C35 C 0.03959 0.18642 0.38543 0.0
O36 O 0.88207 0.12837 0.26444 0.0
O37 O 0.82685 0.15128 0.32814 0.0
O38 O 0.07991 0.1299 0.26698 0.0
O39 O 0.07613 0.10241 0.20693 0.0
O40 O 0.82231 0.07818 0.16384 0.0
O41 O 0.95496 0.06729 0.16647 0.0
O42 O 0.08676 0.17157 0.36596 0.0
O43 O 0.96254 0.18701 0.37001 0.0
H44 H 0.08639 0.0758 0.26059 0.0
H45 H 0.84204 0.09442 0.32263 0.0
H46 H 0.83333 0.13674 0.03426 0.0
H47 H 0.05463 0.09676 0.00033 0.0
H48 H 0.88442 0.14826 0.52276 0.0
H49 H 0.08126 0.10517 0.45416 0.0
H50 H 0.98263 0.16868 0.09911 0.0
H51 H 0.76514 0.19438 0.19799 0.0
H52 H 0.11486 0.05643 0.33395 0.0
H53 H 0.86439 0.07523 0.39683 0.0
Cd54 Cd 0.02404 0.84079 0.69486 0.0
Cd55 Cd 0.05542 0.89942 0.79982 0.0
C56 C 0.08724 0.85631 0.58424 0.0
N57 N 0.01823 0.85228 0.60883 0.0
C58 C 0.93282 0.85661 0.52563 0.0
C59 C 0.00367 0.85997 0.49815 0.0
C60 C 0.08126 0.86024 0.52878 0.0
C61 C 0.94167 0.85272 0.5811 0.0
H62 H 0.14793 0.85577 0.6061 0.0
H63 H 0.8879 0.84931 0.60118 0.0
C64 C 0.90877 0.87845 0.76842 0.0
C65 C 0.97823 0.8897 0.91487 0.0
C66 C 0.97882 0.88402 0.9677 0.0
C67 C 0.05448 0.87646 0.99044 0.0
C68 C 0.12736 0.8739 0.95793 0.0
C69 C 0.12345 0.87931 0.90438 0.0
N70 N 0.04994 0.8873 0.88431 0.0
H71 H 0.92094 0.89672 0.89988 0.0
H72 H 0.17979 0.87779 0.87973 0.0
C73 C 0.95221 0.92 0.70691 0.0
N74 N 0.02622 0.90927 0.71248 0.0
C75 C 0.08261 0.9193 0.63362 0.0
C76 C 0.00903 0.93154 0.62952 0.0
C77 C 0.94199 0.93117 0.66524 0.0
C78 C 0.0901 0.9083 0.67593 0.0
H79 H 0.90337 0.92105 0.73765 0.0
H80 H 0.14925 0.90014 0.68255 0.0
C81 C 0.19757 0.85847 0.72369 0.0
C82 C 0.92692 0.81229 0.64128 0.0
N83 N 0.06647 0.82631 0.77338 0.0
C84 C 0.14709 0.81863 0.78018 0.0
C85 C 0.16846 0.80844 0.82355 0.0
C86 C 0.10607 0.80565 0.85953 0.0
C87 C 0.02366 0.81396 0.85233 0.0
C88 C 0.00526 0.82431 0.80881 0.0
C89 C 0.11561 0.93394 0.84952 0.0
O90 O 0.97817 0.87087 0.748 0.0
O91 O 0.90579 0.89505 0.7972 0.0
O92 O 0.14926 0.87235 0.7495 0.0
O93 O 0.16843 0.84378 0.69532 0.0
O94 O 0.89473 0.82597 0.67886 0.0
O95 O 0.00454 0.81178 0.63108 0.0
O96 O 0.16727 0.91918 0.84181 0.0
O97 O 0.03872 0.93215 0.83671 0.0
H98 H 0.19477 0.81958 0.75068 0.0
H99 H 0.94141 0.83015 0.80179 0.0
H100 H 0.87147 0.85654 0.50402 0.0
H101 H 0.13779 0.86256 0.50913 0.0
H102 H 0.92171 0.88649 0.99207 0.0
H103 H 0.18694 0.86816 0.97437 0.0
H104 H 0.13621 0.91925 0.60745 0.0
H105 H 0.88375 0.94017 0.66307 0.0
H106 H 0.2324 0.80196 0.82678 0.0
H107 H 0.97365 0.81214 0.8792 0.0
Cd108 Cd 0.44707 0.597 0.20443 0.0
Cd109 Cd 0.44884 0.65501 0.31721 0.0
C110 C 0.53015 0.59732 0.08588 0.0
N111 N 0.47548 0.6083 0.12383 0.0
C112 C 0.43728 0.62881 0.05789 0.0
C113 C 0.49056 0.61721 0.0167 0.0
C114 C 0.53934 0.60164 0.03204 0.0
C115 C 0.43041 0.624 0.11154 0.0
H116 H 0.56413 0.58477 0.09666 0.0
H117 H 0.38619 0.63223 0.14228 0.0
C118 C 0.3123 0.63109 0.28074 0.0
C119 C 0.39481 0.64792 0.43574 0.0
C120 C 0.3995 0.64258 0.48905 0.0
C121 C 0.46508 0.62937 0.50113 0.0
C122 C 0.52195 0.62095 0.45771 0.0
C123 C 0.51509 0.62681 0.40473 0.0
N124 N 0.45304 0.64032 0.39548 0.0
H125 H 0.34693 0.6588 0.42734 0.0
H126 H 0.56141 0.62123 0.37223 0.0
C127 C 0.32617 0.6737 0.22637 0.0
N128 N 0.40726 0.66668 0.23462 0.0
C129 C 0.45075 0.67866 0.15536 0.0
C130 C 0.36815 0.68676 0.14741 0.0
C131 C 0.305 0.68367 0.18243 0.0
C132 C 0.469 0.66862 0.19956 0.0
H133 H 0.27851 0.67249 0.2557 0.0
H134 H 0.53315 0.66309 0.20771 0.0
C135 C 0.60374 0.61838 0.23943 0.0
C136 C 0.36633 0.56814 0.13441 0.0
N137 N 0.47246 0.5821 0.28251 0.0
C138 C 0.55102 0.5775 0.3038 0.0
C139 C 0.56244 0.56571 0.34392 0.0
C140 C 0.49246 0.55848 0.36122 0.0
C141 C 0.41196 0.56422 0.34061 0.0
C142 C 0.40338 0.57613 0.30109 0.0
C143 C 0.51556 0.68757 0.37883 0.0
O144 O 0.38442 0.62496 0.26238 0.0
O145 O 0.30332 0.64708 0.31382 0.0
O146 O 0.54206 0.62908 0.26318 0.0
O147 O 0.59204 0.60218 0.21072 0.0
O148 O 0.32607 0.58439 0.1475 0.0
O149 O 0.44046 0.56569 0.15534 0.0
O150 O 0.56076 0.67464 0.34633 0.0
O151 O 0.43844 0.6854 0.38216 0.0
H152 H 0.60525 0.5822 0.28788 0.0
H153 H 0.34194 0.57989 0.28292 0.0
H154 H 0.39796 0.64085 0.04772 0.0
H155 H 0.58218 0.59251 0.00201 0.0
H156 H 0.35408 0.64922 0.52134 0.0
H157 H 0.57364 0.61079 0.46576 0.0
H158 H 0.50111 0.68061 0.12898 0.0
H159 H 0.24081 0.68991 0.17838 0.0
H160 H 0.62553 0.56145 0.35864 0.0
H161 H 0.35653 0.55902 0.35342 0.0
Cd162 Cd 0.53803 0.3363 0.68546 0.0
Cd163 Cd 0.54793 0.39437 0.80018 0.0
C164 C 0.63444 0.34806 0.58151 0.0
N165 N 0.5592 0.34993 0.60736 0.0
C166 C 0.48936 0.36286 0.53031 0.0
C167 C 0.56527 0.3601 0.50093 0.0
C168 C 0.63903 0.35331 0.52835 0.0
C169 C 0.48783 0.35763 0.58376 0.0
H170 H 0.69021 0.34162 0.60036 0.0
H171 H 0.42866 0.35869 0.60494 0.0
C172 C 0.39945 0.37616 0.74274 0.0
C173 C 0.44718 0.38412 0.90106 0.0
C174 C 0.43682 0.3804 0.95561 0.0
C175 C 0.50647 0.37312 0.98577 0.0
C176 C 0.58381 0.36833 0.95793 0.0
C177 C 0.59129 0.37223 0.90313 0.0
N178 N 0.52401 0.38046 0.87679 0.0
H179 H 0.39518 0.39111 0.87999 0.0
H180 H 0.65205 0.36992 0.88332 0.0
C181 C 0.47545 0.42593 0.7341 0.0
N182 N 0.52223 0.40899 0.72195 0.0
C183 C 0.54914 0.41359 0.62766 0.0
C184 C 0.50473 0.43162 0.64042 0.0
C185 C 0.46564 0.4375 0.69376 0.0
C186 C 0.55777 0.40245 0.6697 0.0
H187 H 0.44834 0.43074 0.77616 0.0
H188 H 0.59555 0.38899 0.66161 0.0
C189 C 0.69287 0.35516 0.73681 0.0
C190 C 0.44995 0.30916 0.6143 0.0
N191 N 0.57209 0.32036 0.76074 0.0
C192 C 0.63495 0.30616 0.74833 0.0
C193 C 0.66495 0.29577 0.78965 0.0
C194 C 0.6289 0.29978 0.84407 0.0
C195 C 0.56256 0.31425 0.85569 0.0
C196 C 0.53531 0.3246 0.81308 0.0
C197 C 0.60227 0.42635 0.87235 0.0
O198 O 0.46779 0.36553 0.7371 0.0
O199 O 0.40094 0.39248 0.77332 0.0
O200 O 0.62641 0.36562 0.75237 0.0
O201 O 0.68596 0.33922 0.7047 0.0
O202 O 0.41257 0.32405 0.64354 0.0
O203 O 0.52953 0.30644 0.61967 0.0
O204 O 0.65248 0.41681 0.83466 0.0
O205 O 0.53147 0.42056 0.87594 0.0
H206 H 0.6625 0.30303 0.7062 0.0
H207 H 0.4854 0.33601 0.82177 0.0
H208 H 0.4308 0.36786 0.51072 0.0
H209 H 0.69919 0.35127 0.50775 0.0
H210 H 0.37582 0.38403 0.97509 0.0
H211 H 0.63935 0.36286 0.97976 0.0
H212 H 0.5803 0.40859 0.58699 0.0
H213 H 0.42976 0.45116 0.70484 0.0
H214 H 0.71546 0.28456 0.77899 0.0
H215 H 0.53339 0.31769 0.89737 0.0
C216 C 0.01996 0.12097 0.92194 0.0
C217 C 0.94432 0.12001 0.94851 0.0
C218 C 0.02038 0.12169 0.86328 0.0
C219 C 0.94499 0.12135 0.82981 0.0
C220 C 0.86925 0.12102 0.85692 0.0
C221 C 0.86885 0.12029 0.91546 0.0
C222 C 0.94174 0.1217 0.76705 0.0
C223 C 0.00746 0.116 0.73181 0.0
C224 C 0.00147 0.11642 0.66904 0.0
C225 C 0.07418 0.11825 0.64058 0.0
C226 C 0.06928 0.12014 0.58275 0.0
C227 C -0.00851 0.12018 0.5524 0.0
H228 H 0.86804 0.11288 0.65648 0.0
C229 C 0.91981 0.11722 0.57966 0.0
C230 C 0.92476 0.1152 0.63718 0.0
H231 H 0.85938 0.11694 0.55677 0.0
H232 H 0.07899 0.12111 0.94653 0.0
H233 H 0.07971 0.12265 0.84471 0.0
H234 H 0.81015 0.12089 0.83236 0.0
H235 H 0.80964 0.11934 0.93434 0.0
H236 H 0.8814 0.12658 0.74925 0.0
H237 H 0.06836 0.11133 0.7493 0.0
H238 H 0.13432 0.11895 0.66377 0.0
H239 H 0.12539 0.12253 0.56271 0.0
C240 C 0.04416 0.87468 0.41764 0.0
C241 C -0.00189 0.86193 0.43672 0.0
C242 C 0.04295 0.87562 0.35918 0.0
C243 C -0.00417 0.86373 0.31842 0.0
C244 C 0.94785 0.85142 0.33775 0.0
C245 C 0.94933 0.85043 0.39613 0.0
C246 C -0.00628 0.86407 0.25575 0.0
C247 C 0.05795 0.869 0.22936 0.0
C248 C 0.0571 0.8698 0.16695 0.0
C249 C 0.11541 0.88016 0.14839 0.0
C250 C 0.11618 0.88179 0.09065 0.0
C251 C 0.05845 0.87311 0.05013 0.0
H252 H 0.95683 0.85191 0.13747 0.0
C253 C 0.00118 0.86239 0.06803 0.0
C254 C 0.00092 0.86058 0.12577 0.0
H255 H 0.95653 0.85544 0.0373 0.0
H256 H 0.08093 0.88401 0.44796 0.0
H257 H 0.07815 0.88583 0.34639 0.0
H258 H 0.91045 0.84223 0.3074 0.0
H259 H 0.91389 0.84027 0.40915 0.0
H260 H 0.93788 0.85973 0.23101 0.0
H261 H 0.11387 0.87304 0.25471 0.0
H262 H 0.1596 0.88736 0.17892 0.0
H263 H 0.16024 0.89034 0.07802 0.0
C264 C 0.49088 0.60492 0.90994 0.0
C265 C 0.4903 0.62032 0.95663 0.0
C266 C 0.4877 0.60762 0.85315 0.0
C267 C 0.48419 0.62583 0.84162 0.0
C268 C 0.48289 0.64124 0.88825 0.0
C269 C 0.48615 0.63853 0.94519 0.0
C270 C 0.47781 0.62939 0.78184 0.0
C271 C 0.50362 0.6165 0.7349 0.0
C272 C 0.49572 0.62009 0.67507 0.0
C273 C 0.49852 0.60472 0.62815 0.0
C274 C 0.48979 0.60757 0.5713 0.0
C275 C 0.47766 0.62589 0.56053 0.0
H276 H 0.48817 0.65067 0.69802 0.0
C277 C 0.47724 0.64122 0.6072 0.0
C278 C 0.4868 0.6384 0.66375 0.0
H279 H 0.47029 0.65549 0.59989 0.0
H280 H 0.49144 0.59074 0.91719 0.0
H281 H 0.4855 0.5954 0.81873 0.0
H282 H 0.47946 0.65544 0.88063 0.0
H283 H 0.48571 0.65068 0.98019 0.0
H284 H 0.45068 0.6433 0.77708 0.0
H285 H 0.53064 0.60259 0.73983 0.0
H286 H 0.50633 0.59045 0.6355 0.0
H287 H 0.49076 0.59552 0.53591 0.0
C288 C 0.54301 0.35727 0.06998 0.0
C289 C 0.50059 0.37227 0.04762 0.0
C290 C 0.54187 0.35722 0.12897 0.0
C291 C 0.49878 0.37228 0.16704 0.0
C292 C 0.45437 0.38697 0.14442 0.0
C293 C 0.45565 0.38705 0.08548 0.0
C294 C 0.49775 0.37297 0.23024 0.0
C295 C 0.56086 0.36462 0.25899 0.0
C296 C 0.56095 0.36441 0.32166 0.0
C297 C 0.61268 0.35014 0.34178 0.0
C298 C 0.6148 0.34899 0.3999 0.0
C299 C 0.56599 0.36228 0.43984 0.0
H300 H 0.47381 0.38949 0.34817 0.0
C301 C 0.51515 0.37685 0.42007 0.0
C302 C 0.51268 0.37794 0.36156 0.0
H303 H 0.47756 0.38745 0.44984 0.0
H304 H 0.57692 0.34553 0.04181 0.0
H305 H 0.5741 0.34525 0.14429 0.0
H306 H 0.42015 0.39867 0.17262 0.0
H307 H 0.42326 0.39898 0.06991 0.0
H308 H 0.44402 0.38085 0.25336 0.0
H309 H 0.61481 0.35703 0.23541 0.0
H310 H 0.65057 0.33955 0.31213 0.0
H311 H 0.65324 0.33733 0.41316 0.0
C312 C 0.72599 0.11177 0.25036 0.0
C313 C 0.74821 0.12522 0.29809 0.0
C314 C 0.65753 0.10179 0.25248 0.0
C315 C 0.60774 0.10586 0.30172 0.0
C316 C 0.63339 0.11852 0.35078 0.0
C317 C 0.70302 0.12821 0.34893 0.0
C318 C 0.522 0.10006 0.30026 0.0
C319 C 0.4752 0.09748 0.25102 0.0
C320 C 0.38277 0.10117 0.25024 0.0
C321 C 0.33683 0.09252 0.20218 0.0
C322 C 0.25059 0.09749 0.19675 0.0
C323 C 0.20913 0.11146 0.23889 0.0
H324 H 0.37566 0.12277 0.32875 0.0
C325 C 0.25529 0.12037 0.28657 0.0
C326 C 0.3414 0.11525 0.29232 0.0
H327 H 0.22475 0.13108 0.31988 0.0
H328 H 0.75998 0.10953 0.21083 0.0
H329 H 0.64193 0.09158 0.21457 0.0
H330 H 0.59661 0.12178 0.38943 0.0
H331 H 0.72058 0.13826 0.38684 0.0
H332 H 0.49129 0.10187 0.34126 0.0
H333 H 0.50414 0.09524 0.20939 0.0
H334 H 0.36785 0.08198 0.16861 0.0
H335 H 0.21636 0.09037 0.1595 0.0
C336 C 0.78932 0.86564 0.70997 0.0
C337 C 0.83622 0.86794 0.76177 0.0
C338 C 0.71716 0.85637 0.70456 0.0
C339 C 0.69108 0.84932 0.75137 0.0
C340 C 0.7418 0.85075 0.80197 0.0
C341 C 0.81365 0.86016 0.80734 0.0
C342 C 0.60476 0.84419 0.75386 0.0
C343 C 0.55101 0.84232 0.70812 0.0
C344 C 0.45982 0.84721 0.71528 0.0
C345 C 0.41477 0.85643 0.67486 0.0
C346 C 0.32914 0.86204 0.68098 0.0
C347 C 0.2879 0.85844 0.72754 0.0
H348 H 0.45073 0.83667 0.79416 0.0
C349 C 0.33264 0.84974 0.76895 0.0
C350 C 0.41825 0.84405 0.76282 0.0
H351 H 0.30031 0.84632 0.804 0.0
H352 H 0.8066 0.87168 0.67461 0.0
H353 H 0.68012 0.856 0.66497 0.0
H354 H 0.72328 0.84551 0.83863 0.0
H355 H 0.85063 0.86169 0.8474 0.0
H356 H 0.58106 0.84549 0.79683 0.0
H357 H 0.57384 0.8406 0.66482 0.0
H358 H 0.44578 0.85917 0.63826 0.0
H359 H 0.29433 0.8683 0.64789 0.0
C360 C 0.74511 0.61711 0.28344 0.0
C361 C 0.68787 0.62407 0.24438 0.0
C362 C 0.83092 0.61657 0.27581 0.0
C363 C 0.85973 0.62275 0.2285 0.0
C364 C 0.80227 0.63155 0.19321 0.0
C365 C 0.71615 0.63202 0.20074 0.0
C366 C 0.94947 0.61999 0.21553 0.0
C367 C -0.00103 0.60465 0.22447 0.0
C368 C 0.0898 0.60552 0.23103 0.0
C369 C 0.12735 0.60463 0.28535 0.0
C370 C 0.20271 0.61238 0.30127 0.0
C371 C 0.24163 0.62038 0.26205 0.0
H372 H 0.10519 0.61235 0.14752 0.0
C373 C 0.20958 0.61915 0.2054 0.0
C374 C 0.13337 0.61176 0.18984 0.0
H375 H 0.24042 0.62505 0.17457 0.0
H376 H 0.72357 0.6109 0.3172 0.0
H377 H 0.87446 0.61062 0.3055 0.0
H378 H 0.82375 0.63688 0.15758 0.0
H379 H 0.67195 0.63726 0.16998 0.0
H380 H 0.97616 0.63134 0.20164 0.0
H381 H 0.97261 0.59339 0.23899 0.0
H382 H 0.09426 0.59978 0.31741 0.0
H383 H 0.22835 0.61297 0.34483 0.0
C384 C 0.84456 0.34878 0.75524 0.0
C385 C 0.77529 0.3618 0.74918 0.0
C386 C 0.92517 0.35336 0.75014 0.0
C387 C 0.93676 0.37089 0.73782 0.0
C388 C 0.86831 0.38473 0.73906 0.0
C389 C 0.78724 0.38017 0.74468 0.0
C390 C 0.01924 0.37438 0.72062 0.0
C391 C 0.06787 0.36082 0.68632 0.0
C392 C 0.15739 0.36259 0.68264 0.0
C393 C 0.21542 0.34871 0.69944 0.0
C394 C 0.29721 0.35271 0.71592 0.0
C395 C 0.32167 0.37033 0.71365 0.0
H396 H 0.14018 0.39019 0.66086 0.0
C397 C 0.26633 0.38336 0.69041 0.0
C398 C 0.18427 0.37947 0.67474 0.0
H399 H 0.28497 0.39696 0.68783 0.0
H400 H 0.83605 0.33469 0.76027 0.0
H401 H 0.97798 0.34285 0.75264 0.0
H402 H 0.87682 0.3985 0.73129 0.0
H403 H 0.73396 0.3904 0.74031 0.0
H404 H 0.04118 0.38803 0.73789 0.0
H405 H 0.04579 0.34715 0.66958 0.0
H406 H 0.19521 0.33561 0.70578 0.0
H407 H 0.33881 0.34271 0.73501 0.0
C408 C 0.41592 0.27649 0.58052 0.0
C409 C 0.40153 0.29549 0.57725 0.0
C410 C 0.3599 0.26405 0.55288 0.0
C411 C 0.28997 0.27053 0.52108 0.0
C412 C 0.28035 0.28917 0.51362 0.0
C413 C 0.33509 0.30171 0.5425 0.0
C414 C 0.22553 0.25814 0.49655 0.0
C415 C 0.19984 0.24596 0.5257 0.0
C416 C 0.14775 0.23133 0.49701 0.0
C417 C 0.17402 0.21273 0.50135 0.0
C418 C 0.13765 0.19807 0.46526 0.0
C419 C 0.0727 0.20193 0.42596 0.0
H420 H 0.05677 0.24964 0.45754 0.0
C421 C 0.04094 0.22058 0.42538 0.0
C422 C 0.07899 0.23528 0.46042 0.0
H423 H -0.01029 0.22376 0.39595 0.0
H424 H 0.46746 0.27151 0.60694 0.0
H425 H 0.37021 0.2495 0.55738 0.0
H426 H 0.22802 0.29424 0.488 0.0
H427 H 0.32435 0.31636 0.53897 0.0
H428 H 0.19929 0.25901 0.45375 0.0
H429 H 0.22654 0.24509 0.56839 0.0
H430 H 0.22634 0.20951 0.52992 0.0
H431 H 0.16134 0.18372 0.4673 0.0
C432 C 0.60788 0.27826 0.9109 0.0
C433 C 0.66128 0.28856 0.88746 0.0
C434 C 0.64123 0.26557 0.94542 0.0
C435 C 0.72859 0.26312 0.95734 0.0
C436 C 0.78093 0.27426 0.93646 0.0
C437 C 0.74781 0.2867 0.90135 0.0
C438 C 0.7675 0.24918 0.99134 0.0
C439 C 0.73531 0.23296 0.99216 0.0
C440 C 0.77375 0.21895 0.02615 0.0
C441 C 0.72158 0.2071 0.04386 0.0
C442 C 0.75356 0.19462 0.07917 0.0
C443 C 0.83885 0.19352 0.09691 0.0
H444 H 0.90323 0.22549 0.0268 0.0
C445 C 0.89242 0.20451 0.07637 0.0
C446 C 0.86024 0.21713 0.04135 0.0
H447 H 0.95843 0.20394 0.0894 0.0
H448 H 0.54092 0.27949 0.90073 0.0
H449 H 0.59851 0.25771 0.96243 0.0
H450 H 0.84815 0.27288 0.94571 0.0
H451 H 0.7901 0.29461 0.88402 0.0
H452 H 0.82601 0.25224 0.01485 0.0
H453 H 0.67688 0.22997 0.9684 0.0
H454 H 0.65511 0.20794 0.03201 0.0
H455 H 0.71103 0.18616 0.09389 0.0
C456 C 0.62819 0.709 0.39613 0.0
C457 C 0.55213 0.7041 0.41254 0.0
C458 C 0.66596 0.72399 0.42964 0.0
C459 C 0.62821 0.73442 0.48036 0.0
C460 C 0.55202 0.72949 0.49668 0.0
C461 C 0.51372 0.71457 0.46272 0.0
C462 C 0.66963 0.74966 0.51877 0.0
C463 C 0.72368 0.75959 0.49922 0.0
C464 C 0.77415 0.77305 0.53763 0.0
C465 C 0.85355 0.77541 0.5195 0.0
C466 C 0.90406 0.78776 0.55422 0.0
C467 C 0.87525 0.79834 0.60727 0.0
H468 H 0.68344 0.78239 0.60562 0.0
C469 C 0.79538 0.7962 0.62541 0.0
C470 C 0.74523 0.78356 0.59097 0.0
H471 H 0.77156 0.80435 0.66597 0.0
H472 H 0.65914 0.7011 0.35767 0.0
H473 H 0.7261 0.72687 0.4165 0.0
H474 H 0.52233 0.73712 0.53595 0.0
H475 H 0.4554 0.7109 0.47658 0.0
H476 H 0.65678 0.75231 0.5645 0.0
H477 H 0.73572 0.75704 0.4534 0.0
H478 H 0.87694 0.76755 0.47845 0.0
H479 H 0.96496 0.78933 0.5388 0.0
C480 C 0.27372 0.69979 0.07389 0.0
C481 C 0.34891 0.69995 0.1073 0.0
C482 C 0.25077 0.71368 0.04157 0.0
C483 C 0.3024 0.72812 0.04241 0.0
C484 C 0.37939 0.72774 0.07361 0.0
C485 C 0.40232 0.71386 0.10593 0.0
C486 C 0.27847 0.74369 0.01105 0.0
C487 C 0.19791 0.74981 0.99953 0.0
C488 C 0.1736 0.76518 0.96742 0.0
C489 C 0.09595 0.76547 0.93698 0.0
C490 C 0.07252 0.77905 0.90366 0.0
C491 C 0.12612 0.79275 0.90047 0.0
H492 H 0.28418 0.78019 0.99126 0.0
C493 C 0.20206 0.79303 0.93313 0.0
C494 C 0.2255 0.77943 0.96646 0.0
H495 H 0.24383 0.80365 0.93241 0.0
H496 H 0.23212 0.68903 0.07325 0.0
H497 H 0.19269 0.713 0.01607 0.0
H498 H 0.42078 0.73856 0.07446 0.0
H499 H 0.4603 0.71448 0.13167 0.0
H500 H 0.32932 0.7505 0.99834 0.0
H501 H 0.14718 0.743 0.01245 0.0
H502 H 0.05437 0.75478 0.93747 0.0
H503 H 0.01395 0.77835 0.8786 0.0
C504 C 0.85812 0.04336 0.06167 0.0
C505 C 0.8637 0.04576 0.12192 0.0
C506 C 0.89751 0.02711 0.02787 0.0
C507 C 0.94079 0.01312 0.05442 0.0
C508 C 0.93267 0.01412 0.11358 0.0
C509 C 0.89448 0.0305 0.14743 0.0
C510 C 0.00147 -0.00141 0.02247 0.0
C511 C 0.05548 0.00272 0.98626 0.0
C512 C 0.10567 0.98748 0.94847 0.0
C513 C 0.09103 0.98548 0.88886 0.0
C514 C 0.10676 0.96785 0.85336 0.0
C515 C 0.1393 0.95238 0.87734 0.0
H516 H 0.16386 0.97428 0.01686 0.0
C517 C 0.16827 0.95518 0.93501 0.0
C518 C 0.15077 0.97276 0.97085 0.0
H519 H 0.19344 0.94335 0.95407 0.0
H520 H 0.83498 0.05504 0.04132 0.0
H521 H 0.90028 0.02619 0.98171 0.0
H522 H 0.96405 0.00322 0.13447 0.0
H523 H 0.89985 0.03223 0.19403 0.0
H524 H 0.00342 0.98436 0.0301 0.0
H525 H 0.05324 0.01689 0.97821 0.0
H526 H 0.05699 -0.00321 0.87096 0.0
H527 H 0.08415 0.96585 0.80876 0.0
C528 C 0.03768 0.0315 0.38752 0.0
C529 C 0.00123 0.0499 0.40894 0.0
C530 C 0.0409 0.01764 0.42074 0.0
C531 C 0.00704 0.02181 0.47621 0.0
C532 C 0.97327 0.04036 0.49834 0.0
C533 C 0.96999 0.05423 0.46505 0.0
C534 C 0.0064 0.00737 0.5125 0.0
C535 C 0.01095 0.98867 0.49101 0.0
C536 C 0.00833 0.97425 0.52714 0.0
C537 C 0.04158 0.95563 0.50536 0.0
C538 C 0.04072 0.94167 0.53792 0.0
C539 C 0.00564 0.94596 0.59289 0.0
H540 H 0.94282 0.99241 0.59952 0.0
C541 C 0.97068 0.9645 0.61417 0.0
C542 C 0.97165 0.97845 0.58169 0.0
H543 H 0.94394 0.96839 0.65661 0.0
H544 H 0.06186 0.02762 0.34431 0.0
H545 H 0.0702 0.00376 0.4026 0.0
H546 H 0.94782 0.04408 0.54121 0.0
H547 H 0.94257 0.06833 0.48315 0.0
H548 H 3e-05 0.01254 0.55858 0.0
H549 H 0.01745 0.98347 0.44497 0.0
H550 H 0.06928 0.95191 0.46319 0.0
H551 H 0.06742 0.9275 0.52001 0.0
C552 C 0.33508 0.53557 0.10332 0.0
C553 C 0.33716 0.55325 0.08954 0.0
C554 C 0.35488 0.51939 0.06179 0.0
C555 C 0.37802 0.52089 0.00659 0.0
C556 C 0.36614 0.5384 0.99023 0.0
C557 C 0.34566 0.55464 0.03185 0.0
C558 C 0.43004 0.50524 0.97114 0.0
C559 C 0.49844 0.49696 0.9953 0.0
C560 C 0.55017 0.48032 0.96444 0.0
C561 C 0.57962 0.46612 0.99462 0.0
C562 C 0.61102 0.44845 0.96454 0.0
C563 C 0.61541 0.44506 0.90429 0.0
H564 H 0.54455 0.48858 0.88117 0.0
C565 C 0.59748 0.46 0.87514 0.0
C566 C 0.5642 0.47759 0.90505 0.0
H567 H 0.59917 0.45751 0.82843 0.0
H568 H 0.32894 0.53428 0.14771 0.0
H569 H 0.36145 0.50587 0.07461 0.0
H570 H 0.38276 0.53975 0.94756 0.0
H571 H 0.34856 0.56823 0.02072 0.0
H572 H 0.41453 0.50119 0.92538 0.0
H573 H 0.51252 0.50148 0.04119 0.0
H574 H 0.57054 0.46808 0.04063 0.0
H575 H 0.62305 0.43696 0.98749 0.0
C576 C 0.52016 0.46359 0.62279 0.0
C577 C 0.50393 0.44493 0.60073 0.0
C578 C 0.51783 0.4765 0.58658 0.0
C579 C 0.49973 0.47101 0.52712 0.0
C580 C 0.48338 0.45233 0.50505 0.0
C581 C 0.48619 0.43935 0.54138 0.0
C582 C 0.4928 0.48461 0.48768 0.0
C583 C 0.53174 0.50051 0.49821 0.0
C584 C 0.52206 0.51495 0.46124 0.0
C585 C 0.56049 0.53165 0.48008 0.0
C586 C 0.55165 0.54583 0.4477 0.0
C587 C 0.50341 0.54366 0.39603 0.0
H588 H 0.44543 0.50018 0.39121 0.0
C589 C 0.46587 0.52696 0.3767 0.0
C590 C 0.47524 0.51274 0.40862 0.0
H591 H 0.42976 0.5248 0.3363 0.0
H592 H 0.53467 0.46825 0.66834 0.0
H593 H 0.52816 0.49084 0.60587 0.0
H594 H 0.46823 0.44778 0.45954 0.0
H595 H 0.47281 0.42508 0.52334 0.0
H596 H 0.45429 0.48107 0.44887 0.0
H597 H 0.57285 0.50329 0.53623 0.0
H598 H 0.59703 0.53383 0.5203 0.0
H599 H 0.58129 0.5586 0.46345 0.0
loop_
_geom_bond_atom_site_label_1
_geom_bond_atom_site_label_2
_geom_bond_distance
_geom_bond_site_symmetry_2
_ccdc_geom_bond_type
Cd0 N3 2.334 1_455 S
Cd0 N29 2.304 . S
Cd0 O36 2.268 1_455 S
Cd0 O39 2.273 . S
Cd0 O40 2.417 1_455 S
Cd0 O41 2.330 . S
Cd1 N16 2.304 1_655 S
Cd1 N20 2.334 . S
Cd1 O37 2.273 . S
Cd1 O38 2.268 1_655 S
Cd1 O42 2.417 1_655 S
Cd1 O43 2.330 . S
C2 N3 1.332 1_455 S
C2 C6 1.381 . S
C2 H8 0.931 . S
N3 Cd0 2.334 1_655 S
N3 C2 1.332 1_655 S
N3 C7 1.328 . S
C4 C5 1.396 . S
C4 C7 1.378 . S
C4 H46 0.931 . S
C5 C4 1.396 . S
C5 C6 1.382 1_655 S
C6 C2 1.381 . S
C6 C5 1.382 1_455 S
C6 H47 0.930 . S
C7 N3 1.328 . S
C7 C4 1.378 . S
C7 H9 0.930 . S
H8 C2 0.931 . S
H9 C7 0.930 . S
C10 O36 1.238 . S
C10 O37 1.253 . S
C11 C12 1.379 . S
C11 N16 1.337 1_655 S
C11 H17 0.929 . S
C12 C11 1.379 . S
C12 C13 1.380 1_655 S
C12 H48 0.929 . S
C13 C12 1.380 1_455 S
C13 C14 1.399 . S
C14 C13 1.399 . S
C14 C15 1.376 . S
C14 H49 0.931 . S
C15 C14 1.376 . S
C15 N16 1.338 . S
C15 H18 0.930 . S
N16 Cd1 2.304 1_455 S
N16 C11 1.337 1_455 S
N16 C15 1.338 . S
H17 C11 0.929 . S
H18 C15 0.930 . S
C19 N20 1.332 . S
C19 C23 1.381 . S
C19 H25 0.931 . S
N20 Cd1 2.334 . S
N20 C19 1.332 . S
N20 C24 1.328 1_655 S
C21 C22 1.396 1_455 S
C21 C24 1.378 . S
C21 H50 0.931 . S
C22 C21 1.396 1_655 S
C22 C23 1.382 . S
C23 C19 1.381 . S
C23 C22 1.382 . S
C23 H51 0.930 . S
C24 N20 1.328 1_455 S
C24 C21 1.378 . S
C24 H26 0.930 . S
H25 C19 0.931 . S
H26 C24 0.930 . S
C27 O38 1.238 . S
C27 O39 1.253 . S
C28 O40 1.239 . S
C28 O41 1.230 1_655 S
N29 Cd0 2.304 . S
N29 C30 1.337 . S
N29 C34 1.338 1_455 S
C30 N29 1.337 . S
C30 C31 1.379 . S
C30 H44 0.929 . S
C31 C30 1.379 . S
C31 C32 1.380 . S
C31 H52 0.929 . S
C32 C31 1.380 . S
C32 C33 1.399 1_455 S
C33 C32 1.399 1_655 S
C33 C34 1.376 . S
C33 H53 0.931 . S
C34 N29 1.338 1_655 S
C34 C33 1.376 . S
C34 H45 0.930 . S
C35 O42 1.239 . S
C35 O43 1.230 1_455 S
O36 Cd0 2.268 1_655 S
O36 C10 1.238 . S
O37 Cd1 2.273 . S
O37 C10 1.253 . S
O38 Cd1 2.268 1_455 S
O38 C27 1.238 . S
O39 Cd0 2.273 . S
O39 C27 1.253 . S
O40 Cd0 2.417 1_655 S
O40 C28 1.239 . S
O41 Cd0 2.330 . S
O41 C28 1.230 1_455 S
O42 Cd1 2.417 1_455 S
O42 C35 1.239 . S
O43 Cd1 2.330 . S
O43 C35 1.230 1_655 S
H44 C30 0.929 . S
H45 C34 0.930 . S
H46 C4 0.931 . S
H47 C6 0.930 . S
H48 C12 0.929 . S
H49 C14 0.931 . S
H50 C21 0.931 . S
H51 C23 0.930 . S
H52 C31 0.929 . S
H53 C33 0.931 . S
Cd54 N57 2.334 . S
Cd54 N83 2.304 . S
Cd54 O90 2.268 1_455 S
Cd54 O93 2.273 . S
Cd54 O94 2.417 1_455 S
Cd54 O95 2.330 . S
Cd55 N70 2.304 . S
Cd55 N74 2.334 . S
Cd55 O91 2.273 1_455 S
Cd55 O92 2.268 . S
Cd55 O96 2.417 . S
Cd55 O97 2.330 1_455 S
C56 N57 1.332 . S
C56 C60 1.381 . S
C56 H62 0.931 . S
N57 Cd54 2.334 . S
N57 C56 1.332 . S
N57 C61 1.328 1_455 S
C58 C59 1.396 1_655 S
C58 C61 1.378 . S
C58 H100 0.931 . S
C59 C58 1.396 1_455 S
C59 C60 1.382 . S
C60 C56 1.381 . S
C60 C59 1.382 . S
C60 H101 0.930 . S
C61 N57 1.328 1_655 S
C61 C58 1.378 . S
C61 H63 0.930 . S
H62 C56 0.931 . S
H63 C61 0.930 . S
C64 O90 1.238 . S
C64 O91 1.253 . S
C65 C66 1.379 . S
C65 N70 1.337 1_655 S
C65 H71 0.929 . S
C66 C65 1.379 . S
C66 C67 1.380 1_655 S
C66 H102 0.929 . S
C67 C66 1.380 1_455 S
C67 C68 1.399 . S
C68 C67 1.399 . S
C68 C69 1.376 . S
C68 H103 0.931 . S
C69 C68 1.376 . S
C69 N70 1.338 . S
C69 H72 0.930 . S
N70 Cd55 2.304 . S
N70 C65 1.337 1_455 S
N70 C69 1.338 . S
H71 C65 0.929 . S
H72 C69 0.930 . S
C73 N74 1.332 1_655 S
C73 C77 1.381 . S
C73 H79 0.931 . S
N74 Cd55 2.334 . S
N74 C73 1.332 1_455 S
N74 C78 1.328 . S
C75 C76 1.396 1_455 S
C75 C78 1.378 . S
C75 H104 0.931 . S
C76 C75 1.396 1_655 S
C76 C77 1.382 . S
C77 C73 1.381 . S
C77 C76 1.382 . S
C77 H105 0.930 . S
C78 N74 1.328 . S
C78 C75 1.378 . S
C78 H80 0.930 . S
H79 C73 0.931 . S
H80 C78 0.930 . S
C81 O92 1.238 . S
C81 O93 1.253 . S
C82 O94 1.239 . S
C82 O95 1.230 1_655 S
N83 Cd54 2.304 . S
N83 C84 1.337 . S
N83 C88 1.338 1_455 S
C84 N83 1.337 . S
C84 C85 1.379 . S
C84 H98 0.929 . S
C85 C84 1.379 . S
C85 C86 1.380 . S
C85 H106 0.929 . S
C86 C85 1.380 . S
C86 C87 1.399 1_455 S
C87 C86 1.399 1_655 S
C87 C88 1.376 . S
C87 H107 0.931 . S
C88 N83 1.338 1_655 S
C88 C87 1.376 . S
C88 H99 0.930 . S
C89 O96 1.239 . S
C89 O97 1.230 1_455 S
O90 Cd54 2.268 1_655 S
O90 C64 1.238 . S
O91 Cd55 2.273 1_655 S
O91 C64 1.253 . S
O92 Cd55 2.268 . S
O92 C81 1.238 . S
O93 Cd54 2.273 . S
O93 C81 1.253 . S
O94 Cd54 2.417 1_655 S
O94 C82 1.239 . S
O95 Cd54 2.330 . S
O95 C82 1.230 1_455 S
O96 Cd55 2.417 . S
O96 C89 1.239 . S
O97 Cd55 2.330 1_655 S
O97 C89 1.230 1_655 S
H98 C84 0.929 . S
H99 C88 0.930 . S
H100 C58 0.931 . S
H101 C60 0.930 . S
H102 C66 0.929 . S
H103 C68 0.931 . S
H104 C75 0.931 . S
H105 C77 0.930 . S
H106 C85 0.929 . S
H107 C87 0.931 . S
Cd108 N111 2.334 . S
Cd108 N137 2.304 . S
Cd108 O144 2.268 . S
Cd108 O147 2.273 . S
Cd108 O148 2.417 . S
Cd108 O149 2.330 . S
Cd109 N124 2.304 . S
Cd109 N128 2.334 . S
Cd109 O145 2.273 . S
Cd109 O146 2.268 . S
Cd109 O150 2.417 . S
Cd109 O151 2.330 . S
C110 N111 1.332 . S
C110 C114 1.381 . S
C110 H116 0.931 . S
N111 Cd108 2.334 . S
N111 C110 1.332 . S
N111 C115 1.328 . S
C112 C113 1.396 . S
C112 C115 1.378 . S
C112 H154 0.931 . S
C113 C112 1.396 . S
C113 C114 1.382 . S
C114 C110 1.381 . S
C114 C113 1.382 . S
C114 H155 0.930 . S
C115 N111 1.328 . S
C115 C112 1.378 . S
C115 H117 0.930 . S
H116 C110 0.931 . S
H117 C115 0.930 . S
C118 O144 1.238 . S
C118 O145 1.253 . S
C119 C120 1.379 . S
C119 N124 1.337 . S
C119 H125 0.929 . S
C120 C119 1.379 . S
C120 C121 1.380 . S
C120 H156 0.929 . S
C121 C120 1.380 . S
C121 C122 1.399 . S
C122 C121 1.399 . S
C122 C123 1.376 . S
C122 H157 0.931 . S
C123 C122 1.376 . S
C123 N124 1.338 . S
C123 H126 0.930 . S
N124 Cd109 2.304 . S
N124 C119 1.337 . S
N124 C123 1.338 . S
H125 C119 0.929 . S
H126 C123 0.930 . S
C127 N128 1.332 . S
C127 C131 1.381 . S
C127 H133 0.931 . S
N128 Cd109 2.334 . S
N128 C127 1.332 . S
N128 C132 1.328 . S
C129 C130 1.396 . S
C129 C132 1.378 . S
C129 H158 0.931 . S
C130 C129 1.396 . S
C130 C131 1.382 . S
C131 C127 1.381 . S
C131 C130 1.382 . S
C131 H159 0.930 . S
C132 N128 1.328 . S
C132 C129 1.378 . S
C132 H134 0.930 . S
H133 C127 0.931 . S
H134 C132 0.930 . S
C135 O146 1.238 . S
C135 O147 1.253 . S
C136 O148 1.239 . S
C136 O149 1.230 . S
N137 Cd108 2.304 . S
N137 C138 1.337 . S
N137 C142 1.338 . S
C138 N137 1.337 . S
C138 C139 1.379 . S
C138 H152 0.929 . S
C139 C138 1.379 . S
C139 C140 1.380 . S
C139 H160 0.929 . S
C140 C139 1.380 . S
C140 C141 1.399 . S
C141 C140 1.399 . S
C141 C142 1.376 . S
C141 H161 0.931 . S
C142 N137 1.338 . S
C142 C141 1.376 . S
C142 H153 0.930 . S
C143 O150 1.239 . S
C143 O151 1.230 . S
O144 Cd108 2.268 . S
O144 C118 1.238 . S
O145 Cd109 2.273 . S
O145 C118 1.253 . S
O146 Cd109 2.268 . S
O146 C135 1.238 . S
O147 Cd108 2.273 . S
O147 C135 1.253 . S
O148 Cd108 2.417 . S
O148 C136 1.239 . S
O149 Cd108 2.330 . S
O149 C136 1.230 . S
O150 Cd109 2.417 . S
O150 C143 1.239 . S
O151 Cd109 2.330 . S
O151 C143 1.230 . S
H152 C138 0.929 . S
H153 C142 0.930 . S
H154 C112 0.931 . S
H155 C114 0.930 . S
H156 C120 0.929 . S
H157 C122 0.931 . S
H158 C129 0.931 . S
H159 C131 0.930 . S
H160 C139 0.929 . S
H161 C141 0.931 . S
Cd162 N165 2.334 . S
Cd162 N191 2.304 . S
Cd162 O198 2.268 . S
Cd162 O201 2.273 . S
Cd162 O202 2.417 . S
Cd162 O203 2.330 . S
Cd163 N178 2.304 . S
Cd163 N182 2.334 . S
Cd163 O199 2.273 . S
Cd163 O200 2.268 . S
Cd163 O204 2.417 . S
Cd163 O205 2.330 . S
C164 N165 1.332 . S
C164 C168 1.381 . S
C164 H170 0.931 . S
N165 Cd162 2.334 . S
N165 C164 1.332 . S
N165 C169 1.328 . S
C166 C167 1.396 . S
C166 C169 1.378 . S
C166 H208 0.931 . S
C167 C166 1.396 . S
C167 C168 1.382 . S
C168 C164 1.381 . S
C168 C167 1.382 . S
C168 H209 0.930 . S
C169 N165 1.328 . S
C169 C166 1.378 . S
C169 H171 0.930 . S
H170 C164 0.931 . S
H171 C169 0.930 . S
C172 O198 1.238 . S
C172 O199 1.253 . S
C173 C174 1.379 . S
C173 N178 1.337 . S
C173 H179 0.929 . S
C174 C173 1.379 . S
C174 C175 1.380 . S
C174 H210 0.929 . S
C175 C174 1.380 . S
C175 C176 1.399 . S
C176 C175 1.399 . S
C176 C177 1.376 . S
C176 H211 0.931 . S
C177 C176 1.376 . S
C177 N178 1.338 . S
C177 H180 0.930 . S
N178 Cd163 2.304 . S
N178 C173 1.337 . S
N178 C177 1.338 . S
H179 C173 0.929 . S
H180 C177 0.930 . S
C181 N182 1.332 . S
C181 C185 1.381 . S
C181 H187 0.931 . S
N182 Cd163 2.334 . S
N182 C181 1.332 . S
N182 C186 1.328 . S
C183 C184 1.396 . S
C183 C186 1.378 . S
C183 H212 0.931 . S
C184 C183 1.396 . S
C184 C185 1.382 . S
C185 C181 1.381 . S
C185 C184 1.382 . S
C185 H213 0.930 . S
C186 N182 1.328 . S
C186 C183 1.378 . S
C186 H188 0.930 . S
H187 C181 0.931 . S
H188 C186 0.930 . S
C189 O200 1.238 . S
C189 O201 1.253 . S
C190 O202 1.239 . S
C190 O203 1.230 . S
N191 Cd162 2.304 . S
N191 C192 1.337 . S
N191 C196 1.338 . S
C192 N191 1.337 . S
C192 C193 1.379 . S
C192 H206 0.929 . S
C193 C192 1.379 . S
C193 C194 1.380 . S
C193 H214 0.929 . S
C194 C193 1.380 . S
C194 C195 1.399 . S
C195 C194 1.399 . S
C195 C196 1.376 . S
C195 H215 0.931 . S
C196 N191 1.338 . S
C196 C195 1.376 . S
C196 H207 0.930 . S
C197 O204 1.239 . S
C197 O205 1.230 . S
O198 Cd162 2.268 . S
O198 C172 1.238 . S
O199 Cd163 2.273 . S
O199 C172 1.253 . S
O200 Cd163 2.268 . S
O200 C189 1.238 . S
O201 Cd162 2.273 . S
O201 C189 1.253 . S
O202 Cd162 2.417 . S
O202 C190 1.239 . S
O203 Cd162 2.330 . S
O203 C190 1.230 . S
O204 Cd163 2.417 . S
O204 C197 1.239 . S
O205 Cd163 2.330 . S
O205 C197 1.230 . S
H206 C192 0.929 . S
H207 C196 0.930 . S
H208 C166 0.931 . S
H209 C168 0.930 . S
H210 C174 0.929 . S
H211 C176 0.931 . S
H212 C183 0.931 . S
H213 C185 0.930 . S
H214 C193 0.929 . S
H215 C195 0.931 . S
C216 C217 1.386 1_455 S
C216 C218 1.383 . S
C216 H232 0.951 . S
C217 C216 1.386 1_655 S
C217 C221 1.383 . S
C218 C216 1.383 . S
C218 C219 1.402 1_455 S
C218 H233 0.951 . S
C219 C218 1.402 1_655 S
C219 C220 1.375 . S
C219 C222 1.481 . S
C220 C219 1.375 . S
C220 C221 1.367 . S
C220 H234 0.951 . S
C221 C217 1.383 . S
C221 C220 1.367 . S
C221 H235 0.950 . S
C222 C219 1.481 . S
C222 C223 1.297 1_655 S
C222 H236 0.950 . S
C223 C222 1.297 1_455 S
C223 C224 1.479 . S
C223 H237 0.950 . S
C224 C223 1.479 . S
C224 C225 1.375 . S
C224 C230 1.404 1_455 S
C225 C224 1.375 . S
C225 C226 1.369 . S
C225 H238 0.950 . S
C226 C225 1.369 . S
C226 C227 1.392 . S
C226 H239 0.951 . S
C227 C226 1.392 . S
C227 C229 1.384 1_455 S
H228 C230 0.949 . S
C229 C227 1.384 1_655 S
C229 C230 1.385 . S
C229 H231 0.950 . S
C230 C224 1.404 1_655 S
C230 H228 0.949 . S
C230 C229 1.385 . S
H231 C229 0.950 . S
H232 C216 0.951 . S
H233 C218 0.951 . S
H234 C220 0.951 . S
H235 C221 0.950 . S
H236 C222 0.950 . S
H237 C223 0.950 . S
H238 C225 0.950 . S
H239 C226 0.951 . S
C240 C241 1.386 . S
C240 C242 1.383 . S
C240 H256 0.951 . S
C241 C240 1.386 . S
C241 C245 1.383 1_455 S
C242 C240 1.383 . S
C242 C243 1.402 . S
C242 H257 0.951 . S
C243 C242 1.402 . S
C243 C244 1.375 . S
C243 C246 1.481 . S
C244 C243 1.375 . S
C244 C245 1.367 1_455 S
C244 H258 0.951 1_455 S
C245 C241 1.383 1_655 S
C245 C244 1.367 1_655 S
C245 H259 0.950 . S
C246 C243 1.481 . S
C246 C247 1.297 . S
C246 H260 0.950 . S
C247 C246 1.297 . S
C247 C248 1.479 . S
C247 H261 0.950 . S
C248 C247 1.479 . S
C248 C249 1.375 . S
C248 C254 1.404 . S
C249 C248 1.375 . S
C249 C250 1.369 . S
C249 H262 0.950 . S
C250 C249 1.369 . S
C250 C251 1.392 . S
C250 H263 0.951 . S
C251 C250 1.392 . S
C251 C253 1.384 . S
H252 C254 0.949 . S
C253 C251 1.384 . S
C253 C254 1.385 . S
C253 H255 0.950 . S
C254 C248 1.404 . S
C254 H252 0.949 . S
C254 C253 1.385 . S
H255 C253 0.950 . S
H256 C240 0.951 . S
H257 C242 0.951 . S
H258 C244 0.951 1_655 S
H259 C245 0.950 . S
H260 C246 0.950 . S
H261 C247 0.950 . S
H262 C249 0.950 . S
H263 C250 0.951 . S
C264 C265 1.386 . S
C264 C266 1.383 . S
C264 H280 0.951 . S
C265 C264 1.386 . S
C265 C269 1.383 . S
C266 C264 1.383 . S
C266 C267 1.402 . S
C266 H281 0.951 . S
C267 C266 1.402 . S
C267 C268 1.375 . S
C267 C270 1.481 . S
C268 C267 1.375 . S
C268 C269 1.367 . S
C268 H282 0.951 . S
C269 C265 1.383 . S
C269 C268 1.367 . S
C269 H283 0.950 . S
C270 C267 1.481 . S
C270 C271 1.297 . S
C270 H284 0.950 . S
C271 C270 1.297 . S
C271 C272 1.479 . S
C271 H285 0.950 . S
C272 C271 1.479 . S
C272 C273 1.375 . S
C272 C278 1.404 . S
C273 C272 1.375 . S
C273 C274 1.369 . S
C273 H286 0.950 . S
C274 C273 1.369 . S
C274 C275 1.392 . S
C274 H287 0.951 . S
C275 C274 1.392 . S
C275 C277 1.384 . S
H276 C278 0.949 . S
C277 C275 1.384 . S
C277 C278 1.385 . S
C277 H279 0.950 . S
C278 C272 1.404 . S
C278 H276 0.949 . S
C278 C277 1.385 . S
H279 C277 0.950 . S
H280 C264 0.951 . S
H281 C266 0.951 . S
H282 C268 0.951 . S
H283 C269 0.950 . S
H284 C270 0.950 . S
H285 C271 0.950 . S
H286 C273 0.950 . S
H287 C274 0.951 . S
C288 C289 1.386 . S
C288 C290 1.383 . S
C288 H304 0.951 . S
C289 C288 1.386 . S
C289 C293 1.383 . S
C290 C288 1.383 . S
C290 C291 1.402 . S
C290 H305 0.951 . S
C291 C290 1.402 . S
C291 C292 1.375 . S
C291 C294 1.481 . S
C292 C291 1.375 . S
C292 C293 1.367 . S
C292 H306 0.951 . S
C293 C289 1.383 . S
C293 C292 1.367 . S
C293 H307 0.950 . S
C294 C291 1.481 . S
C294 C295 1.297 . S
C294 H308 0.950 . S
C295 C294 1.297 . S
C295 C296 1.479 . S
C295 H309 0.950 . S
C296 C295 1.479 . S
C296 C297 1.375 . S
C296 C302 1.404 . S
C297 C296 1.375 . S
C297 C298 1.369 . S
C297 H310 0.950 . S
C298 C297 1.369 . S
C298 C299 1.392 . S
C298 H311 0.951 . S
C299 C298 1.392 . S
C299 C301 1.384 . S
H300 C302 0.949 . S
C301 C299 1.384 . S
C301 C302 1.385 . S
C301 H303 0.950 . S
C302 C296 1.404 . S
C302 H300 0.949 . S
C302 C301 1.385 . S
H303 C301 0.950 . S
H304 C288 0.951 . S
H305 C290 0.951 . S
H306 C292 0.951 . S
H307 C293 0.950 . S
H308 C294 0.950 . S
H309 C295 0.950 . S
H310 C297 0.950 . S
H311 C298 0.951 . S
C312 C313 1.386 . S
C312 C314 1.383 . S
C312 H328 0.951 . S
C313 C312 1.386 . S
C313 C317 1.383 . S
C314 C312 1.383 . S
C314 C315 1.402 . S
C314 H329 0.951 . S
C315 C314 1.402 . S
C315 C316 1.375 . S
C315 C318 1.481 . S
C316 C315 1.375 . S
C316 C317 1.367 . S
C316 H330 0.951 . S
C317 C313 1.383 . S
C317 C316 1.367 . S
C317 H331 0.950 . S
C318 C315 1.481 . S
C318 C319 1.297 . S
C318 H332 0.950 . S
C319 C318 1.297 . S
C319 C320 1.479 . S
C319 H333 0.950 . S
C320 C319 1.479 . S
C320 C321 1.375 . S
C320 C326 1.404 . S
C321 C320 1.375 . S
C321 C322 1.369 . S
C321 H334 0.950 . S
C322 C321 1.369 . S
C322 C323 1.392 . S
C322 H335 0.951 . S
C323 C322 1.392 . S
C323 C325 1.384 . S
H324 C326 0.949 . S
C325 C323 1.384 . S
C325 C326 1.385 . S
C325 H327 0.950 . S
C326 C320 1.404 . S
C326 H324 0.949 . S
C326 C325 1.385 . S
H327 C325 0.950 . S
H328 C312 0.951 . S
H329 C314 0.951 . S
H330 C316 0.951 . S
H331 C317 0.950 . S
H332 C318 0.950 . S
H333 C319 0.950 . S
H334 C321 0.950 . S
H335 C322 0.951 . S
C336 C337 1.386 . S
C336 C338 1.383 . S
C336 H352 0.951 . S
C337 C336 1.386 . S
C337 C341 1.383 . S
C338 C336 1.383 . S
C338 C339 1.402 . S
C338 H353 0.951 . S
C339 C338 1.402 . S
C339 C340 1.375 . S
C339 C342 1.481 . S
C340 C339 1.375 . S
C340 C341 1.367 . S
C340 H354 0.951 . S
C341 C337 1.383 . S
C341 C340 1.367 . S
C341 H355 0.950 . S
C342 C339 1.481 . S
C342 C343 1.297 . S
C342 H356 0.950 . S
C343 C342 1.297 . S
C343 C344 1.479 . S
C343 H357 0.950 . S
C344 C343 1.479 . S
C344 C345 1.375 . S
C344 C350 1.404 . S
C345 C344 1.375 . S
C345 C346 1.369 . S
C345 H358 0.950 . S
C346 C345 1.369 . S
C346 C347 1.392 . S
C346 H359 0.951 . S
C347 C346 1.392 . S
C347 C349 1.384 . S
H348 C350 0.949 . S
C349 C347 1.384 . S
C349 C350 1.385 . S
C349 H351 0.950 . S
C350 C344 1.404 . S
C350 H348 0.949 . S
C350 C349 1.385 . S
H351 C349 0.950 . S
H352 C336 0.951 . S
H353 C338 0.951 . S
H354 C340 0.951 . S
H355 C341 0.950 . S
H356 C342 0.950 . S
H357 C343 0.950 . S
H358 C345 0.950 . S
H359 C346 0.951 . S
C360 C361 1.386 . S
C360 C362 1.383 . S
C360 H376 0.951 . S
C361 C360 1.386 . S
C361 C365 1.383 . S
C362 C360 1.383 . S
C362 C363 1.402 . S
C362 H377 0.951 . S
C363 C362 1.402 . S
C363 C364 1.375 . S
C363 C366 1.481 . S
C364 C363 1.375 . S
C364 C365 1.367 . S
C364 H378 0.951 . S
C365 C361 1.383 . S
C365 C364 1.367 . S
C365 H379 0.950 . S
C366 C363 1.481 . S
C366 C367 1.297 1_655 S
C366 H380 0.950 . S
C367 C366 1.297 1_455 S
C367 C368 1.479 . S
C367 H381 0.950 . S
C368 C367 1.479 . S
C368 C369 1.375 . S
C368 C374 1.404 . S
C369 C368 1.375 . S
C369 C370 1.369 . S
C369 H382 0.950 . S
C370 C369 1.369 . S
C370 C371 1.392 . S
C370 H383 0.951 . S
C371 C370 1.392 . S
C371 C373 1.384 . S
H372 C374 0.949 . S
C373 C371 1.384 . S
C373 C374 1.385 . S
C373 H375 0.950 . S
C374 C368 1.404 . S
C374 H372 0.949 . S
C374 C373 1.385 . S
H375 C373 0.950 . S
H376 C360 0.951 . S
H377 C362 0.951 . S
H378 C364 0.951 . S
H379 C365 0.950 . S
H380 C366 0.950 . S
H381 C367 0.950 . S
H382 C369 0.950 . S
H383 C370 0.951 . S
C384 C385 1.386 . S
C384 C386 1.383 . S
C384 H400 0.951 . S
C385 C384 1.386 . S
C385 C389 1.383 . S
C386 C384 1.383 . S
C386 C387 1.402 . S
C386 H401 0.951 . S
C387 C386 1.402 . S
C387 C388 1.375 . S
C387 C390 1.481 . S
C388 C387 1.375 . S
C388 C389 1.367 . S
C388 H402 0.951 . S
C389 C385 1.383 . S
C389 C388 1.367 . S
C389 H403 0.950 . S
C390 C387 1.481 . S
C390 C391 1.297 1_655 S
C390 H404 0.950 1_655 S
C391 C390 1.297 1_455 S
C391 C392 1.479 . S
C391 H405 0.950 . S
C392 C391 1.479 . S
C392 C393 1.375 . S
C392 C398 1.404 . S
C393 C392 1.375 . S
C393 C394 1.369 . S
C393 H406 0.950 . S
C394 C393 1.369 . S
C394 C395 1.392 . S
C394 H407 0.951 . S
C395 C394 1.392 . S
C395 C397 1.384 . S
H396 C398 0.949 . S
C397 C395 1.384 . S
C397 C398 1.385 . S
C397 H399 0.950 . S
C398 C392 1.404 . S
C398 H396 0.949 . S
C398 C397 1.385 . S
H399 C397 0.950 . S
H400 C384 0.951 . S
H401 C386 0.951 . S
H402 C388 0.951 . S
H403 C389 0.950 . S
H404 C390 0.950 1_455 S
H405 C391 0.950 . S
H406 C393 0.950 . S
H407 C394 0.951 . S
C408 C409 1.386 . S
C408 C410 1.383 . S
C408 H424 0.951 . S
C409 C408 1.386 . S
C409 C413 1.383 . S
C410 C408 1.383 . S
C410 C411 1.402 . S
C410 H425 0.951 . S
C411 C410 1.402 . S
C411 C412 1.375 . S
C411 C414 1.481 . S
C412 C411 1.375 . S
C412 C413 1.367 . S
C412 H426 0.951 . S
C413 C409 1.383 . S
C413 C412 1.367 . S
C413 H427 0.950 . S
C414 C411 1.481 . S
C414 C415 1.297 . S
C414 H428 0.950 . S
C415 C414 1.297 . S
C415 C416 1.479 . S
C415 H429 0.950 . S
C416 C415 1.479 . S
C416 C417 1.375 . S
C416 C422 1.404 . S
C417 C416 1.375 . S
C417 C418 1.369 . S
C417 H430 0.950 . S
C418 C417 1.369 . S
C418 C419 1.392 . S
C418 H431 0.951 . S
C419 C418 1.392 . S
C419 C421 1.384 . S
H420 C422 0.949 . S
C421 C419 1.384 . S
C421 C422 1.385 . S
C421 H423 0.950 . S
C422 C416 1.404 . S
C422 H420 0.949 . S
C422 C421 1.385 . S
H423 C421 0.950 . S
H424 C408 0.951 . S
H425 C410 0.951 . S
H426 C412 0.951 . S
H427 C413 0.950 . S
H428 C414 0.950 . S
H429 C415 0.950 . S
H430 C417 0.950 . S
H431 C418 0.951 . S
C432 C433 1.386 . S
C432 C434 1.383 . S
C432 H448 0.951 . S
C433 C432 1.386 . S
C433 C437 1.383 . S
C434 C432 1.383 . S
C434 C435 1.402 . S
C434 H449 0.951 . S
C435 C434 1.402 . S
C435 C436 1.375 . S
C435 C438 1.481 . S
C436 C435 1.375 . S
C436 C437 1.367 . S
C436 H450 0.951 . S
C437 C433 1.383 . S
C437 C436 1.367 . S
C437 H451 0.950 . S
C438 C435 1.481 . S
C438 C439 1.297 . S
C438 H452 0.950 . S
C439 C438 1.297 . S
C439 C440 1.479 1_556 S
C439 H453 0.950 . S
C440 C439 1.479 1_554 S
C440 C441 1.375 . S
C440 C446 1.402 1_554 S
C441 C440 1.375 . S
C441 C442 1.369 . S
C441 H454 0.950 . S
C442 C441 1.369 . S
C442 C443 1.392 . S
C442 H455 0.951 . S
C443 C442 1.392 . S
C443 C445 1.384 . S
H444 C446 0.957 . S
C445 C443 1.384 . S
C445 C446 1.379 1_554 S
C445 H447 0.950 . S
C446 C440 1.402 1_556 S
C446 H444 0.957 . S
C446 C445 1.379 1_556 S
H447 C445 0.950 . S
H448 C432 0.951 . S
H449 C434 0.951 . S
H450 C436 0.951 . S
H451 C437 0.950 . S
H452 C438 0.950 . S
H453 C439 0.950 . S
H454 C441 0.950 . S
H455 C442 0.951 . S
C456 C457 1.386 . S
C456 C458 1.383 . S
C456 H472 0.951 . S
C457 C456 1.386 . S
C457 C461 1.383 . S
C458 C456 1.383 . S
C458 C459 1.402 . S
C458 H473 0.951 . S
C459 C458 1.402 . S
C459 C460 1.375 . S
C459 C462 1.481 . S
C460 C459 1.375 . S
C460 C461 1.367 . S
C460 H474 0.951 . S
C461 C457 1.383 . S
C461 C460 1.367 . S
C461 H475 0.950 . S
C462 C459 1.481 . S
C462 C463 1.297 . S
C462 H476 0.950 . S
C463 C462 1.297 . S
C463 C464 1.479 . S
C463 H477 0.950 . S
C464 C463 1.479 . S
C464 C465 1.375 . S
C464 C470 1.404 . S
C465 C464 1.375 . S
C465 C466 1.369 . S
C465 H478 0.950 . S
C466 C465 1.369 . S
C466 C467 1.392 . S
C466 H479 0.951 . S
C467 C466 1.392 . S
C467 C469 1.384 . S
H468 C470 0.949 . S
C469 C467 1.384 . S
C469 C470 1.385 . S
C469 H471 0.950 . S
C470 C464 1.404 . S
C470 H468 0.949 . S
C470 C469 1.385 . S
H471 C469 0.950 . S
H472 C456 0.951 . S
H473 C458 0.951 . S
H474 C460 0.951 . S
H475 C461 0.950 . S
H476 C462 0.950 . S
H477 C463 0.950 . S
H478 C465 0.950 . S
H479 C466 0.951 . S
C480 C481 1.386 . S
C480 C482 1.383 . S
C480 H496 0.951 . S
C481 C480 1.386 . S
C481 C485 1.383 . S
C482 C480 1.383 . S
C482 C483 1.402 . S
C482 H497 0.951 . S
C483 C482 1.402 . S
C483 C484 1.375 . S
C483 C486 1.481 . S
C484 C483 1.375 . S
C484 C485 1.367 . S
C484 H498 0.951 . S
C485 C481 1.383 . S
C485 C484 1.367 . S
C485 H499 0.950 . S
C486 C483 1.481 . S
C486 C487 1.297 . S
C486 H500 0.950 . S
C487 C486 1.297 . S
C487 C488 1.479 1_554 S
C487 H501 0.950 . S
C488 C487 1.479 1_556 S
C488 C489 1.375 . S
C488 C494 1.403 . S
C489 C488 1.375 . S
C489 C490 1.369 . S
C489 H502 0.950 . S
C490 C489 1.369 . S
C490 C491 1.392 . S
C490 H503 0.951 . S
C491 C490 1.392 . S
C491 C493 1.384 . S
H492 C494 0.939 1_554 S
C493 C491 1.384 . S
C493 C494 1.395 . S
C493 H495 0.950 . S
C494 C488 1.403 . S
C494 H492 0.939 1_556 S
C494 C493 1.395 . S
H495 C493 0.950 . S
H496 C480 0.951 . S
H497 C482 0.951 . S
H498 C484 0.951 . S
H499 C485 0.950 . S
H500 C486 0.950 . S
H501 C487 0.950 . S
H502 C489 0.950 . S
H503 C490 0.951 . S
C504 C505 1.386 . S
C504 C506 1.383 . S
C504 H520 0.951 . S
C505 C504 1.386 . S
C505 C509 1.383 1_655 S
C506 C504 1.383 . S
C506 C507 1.402 1_655 S
C506 H521 0.951 1_554 S
C507 C506 1.402 1_455 S
C507 C508 1.375 . S
C507 C510 1.481 . S
C508 C507 1.375 . S
C508 C509 1.367 . S
C508 H522 0.951 . S
C509 C505 1.383 1_455 S
C509 C508 1.367 . S
C509 H523 0.950 . S
C510 C507 1.481 . S
C510 C511 1.297 1_544 S
C510 H524 0.950 1_545 S
C511 C510 1.297 1_566 S
C511 C512 1.479 . S
C511 H525 0.950 1_465 S
C512 C511 1.479 . S
C512 C513 1.375 1_455 S
C512 C518 1.404 . S
C513 C512 1.375 1_655 S
C513 C514 1.369 1_655 S
C513 H526 0.950 . S
C514 C513 1.369 1_455 S
C514 C515 1.392 . S
C514 H527 0.951 1_455 S
C515 C514 1.392 . S
C515 C517 1.384 . S
H516 C518 0.949 . S
C517 C515 1.384 . S
C517 C518 1.385 . S
C517 H519 0.950 . S
C518 C512 1.404 . S
C518 H516 0.949 . S
C518 C517 1.385 . S
H519 C517 0.950 . S
H520 C504 0.951 . S
H521 C506 0.951 1_556 S
H522 C508 0.951 . S
H523 C509 0.950 . S
H524 C510 0.950 1_565 S
H525 C511 0.950 1_645 S
H526 C513 0.950 . S
H527 C514 0.951 1_655 S
C528 C529 1.386 . S
C528 C530 1.383 . S
C528 H544 0.951 . S
C529 C528 1.386 . S
C529 C533 1.383 1_455 S
C530 C528 1.383 . S
C530 C531 1.402 . S
C530 H545 0.951 . S
C531 C530 1.402 . S
C531 C532 1.375 1_455 S
C531 C534 1.481 . S
C532 C531 1.375 1_655 S
C532 C533 1.367 . S
C532 H546 0.951 . S
C533 C529 1.383 1_655 S
C533 C532 1.367 . S
C533 H547 0.950 . S
C534 C531 1.481 . S
C534 C535 1.297 1_545 S
C534 H548 0.950 1_455 S
C535 C534 1.297 1_565 S
C535 C536 1.479 . S
C535 H549 0.950 . S
C536 C535 1.479 . S
C536 C537 1.375 . S
C536 C542 1.404 1_455 S
C537 C536 1.375 . S
C537 C538 1.369 . S
C537 H550 0.950 . S
C538 C537 1.369 . S
C538 C539 1.392 1_455 S
C538 H551 0.951 . S
C539 C538 1.392 1_655 S
C539 C541 1.384 . S
H540 C542 0.949 . S
C541 C539 1.384 . S
C541 C542 1.385 . S
C541 H543 0.950 . S
C542 C536 1.404 1_655 S
C542 H540 0.949 . S
C542 C541 1.385 . S
H543 C541 0.950 . S
H544 C528 0.951 . S
H545 C530 0.951 . S
H546 C532 0.951 . S
H547 C533 0.950 . S
H548 C534 0.950 1_655 S
H549 C535 0.950 . S
H550 C537 0.950 . S
H551 C538 0.951 . S
C552 C553 1.386 . S
C552 C554 1.383 . S
C552 H568 0.951 . S
C553 C552 1.386 . S
C553 C557 1.383 . S
C554 C552 1.383 . S
C554 C555 1.402 . S
C554 H569 0.951 . S
C555 C554 1.402 . S
C555 C556 1.375 . S
C555 C558 1.481 1_554 S
C556 C555 1.375 . S
C556 C557 1.367 . S
C556 H570 0.951 1_554 S
C557 C553 1.383 . S
C557 C556 1.367 . S
C557 H571 0.950 . S
C558 C555 1.481 1_556 S
C558 C559 1.297 . S
C558 H572 0.950 . S
C559 C558 1.297 . S
C559 C560 1.479 . S
C559 H573 0.950 1_556 S
C560 C559 1.479 . S
C560 C561 1.375 . S
C560 C566 1.404 . S
C561 C560 1.375 . S
C561 C562 1.369 . S
C561 H574 0.950 . S
C562 C561 1.369 . S
C562 C563 1.392 . S
C562 H575 0.951 . S
C563 C562 1.392 . S
C563 C565 1.384 . S
H564 C566 0.949 . S
C565 C563 1.384 . S
C565 C566 1.385 . S
C565 H567 0.950 . S
C566 C560 1.404 . S
C566 H564 0.949 . S
C566 C565 1.385 . S
H567 C565 0.950 . S
H568 C552 0.951 . S
H569 C554 0.951 . S
H570 C556 0.951 1_556 S
H571 C557 0.950 . S
H572 C558 0.950 . S
H573 C559 0.950 1_554 S
H574 C561 0.950 . S
H575 C562 0.951 . S
C576 C577 1.386 . S
C576 C578 1.383 . S
C576 H592 0.951 . S
C577 C576 1.386 . S
C577 C581 1.383 . S
C578 C576 1.383 . S
C578 C579 1.402 . S
C578 H593 0.951 . S
C579 C578 1.402 . S
C579 C580 1.375 . S
C579 C582 1.481 . S
C580 C579 1.375 . S
C580 C581 1.367 . S
C580 H594 0.951 . S
C581 C577 1.383 . S
C581 C580 1.367 . S
C581 H595 0.950 . S
C582 C579 1.481 . S
C582 C583 1.297 . S
C582 H596 0.950 . S
C583 C582 1.297 . S
C583 C584 1.479 . S
C583 H597 0.950 . S
C584 C583 1.479 . S
C584 C585 1.375 . S
C584 C590 1.404 . S
C585 C584 1.375 . S
C585 C586 1.369 . S
C585 H598 0.950 . S
C586 C585 1.369 . S
C586 C587 1.392 . S
C586 H599 0.951 . S
C587 C586 1.392 . S
C587 C589 1.384 . S
H588 C590 0.949 . S
C589 C587 1.384 . S
C589 C590 1.385 . S
C589 H591 0.950 . S
C590 C584 1.404 . S
C590 H588 0.949 . S
C590 C589 1.385 . S
H591 C589 0.950 . S
H592 C576 0.951 . S
H593 C578 0.951 . S
H594 C580 0.951 . S
H595 C581 0.950 . S
H596 C582 0.950 . S
H597 C583 0.950 . S
H598 C585 0.950 . S
H599 C586 0.951 . S
C217 C5 1.903 1_556 S
C227 C13 1.948 . S
C241 C59 1.898 . S
C251 C67 1.928 1_554 S
C265 C113 1.942 1_556 S
C275 C121 1.901 . S
C289 C175 1.900 1_554 S
C299 C167 1.918 . S
C313 C10 0.577 . S
C323 C27 0.565 . S
C337 C64 0.601 . S
C347 C81 0.543 . S
C361 C135 0.568 . S
C371 C118 0.637 . S
C385 C189 0.586 . S
C395 C172 0.630 . S
C409 C190 1.457 . S
C419 C35 1.521 . S
C433 C194 2.223 . S
C443 C22 2.250 . S
C457 C143 1.509 . S
C467 C82 1.431 . S
C481 C130 2.226 . S
C491 C86 2.271 . S
C505 C28 0.408 . S
C515 C89 0.527 . S
C529 C32 2.050 . S
C539 C76 1.995 . S
C553 C136 0.475 . S
C563 C197 0.381 . S
C577 C184 2.049 . S
C587 C140 2.020 . S
