# Generated by pormake.
# Topology reo, (8)-cn, num edge types: 1
# Building blocks:
#     Node 0, Type 0, BuildingBlock: VETTIZ_charged_sbu_0, # of connection points: 8
#     Node 1, Type 0, BuildingBlock: VETTIZ_charged_sbu_0, # of connection points: 8
#     Node 2, Type 0, BuildingBlock: VETTIZ_charged_sbu_0, # of connection points: 8
#     Edge 3, Type (0, 0), BuildingBlock: CIFDUS_clean_linker_0, # of connection points: 2
#     Edge 4, Type (0, 0), BuildingBlock: CIFDUS_clean_linker_0, # of connection points: 2
#     Edge 5, Type (0, 0), BuildingBlock: CIFDUS_clean_linker_0, # of connection points: 2
#     Edge 6, Type (0, 0), BuildingBlock: CIFDUS_clean_linker_0, # of connection points: 2
#     Edge 7, Type (0, 0), BuildingBlock: CIFDUS_clean_linker_0, # of connection points: 2
#     Edge 8, Type (0, 0), BuildingBlock: CIFDUS_clean_linker_0, # of connection points: 2
#     Edge 9, Type (0, 0), BuildingBlock: CIFDUS_clean_linker_0, # of connection points: 2
#     Edge 10, Type (0, 0), BuildingBlock: CIFDUS_clean_linker_0, # of connection points: 2
#     Edge 11, Type (0, 0), BuildingBlock: CIFDUS_clean_linker_0, # of connection points: 2
#     Edge 12, Type (0, 0), BuildingBlock: CIFDUS_clean_linker_0, # of connection points: 2
#     Edge 13, Type (0, 0), BuildingBlock: CIFDUS_clean_linker_0, # of connection points: 2
#     Edge 14, Type (0, 0), BuildingBlock: CIFDUS_clean_linker_0, # of connection points: 2
# Relax obj value: 0.145
# Max RMSD: 0.165
# Mean RMSD: 0.165
data_MOF--net-reo--node1-VETTIZ_charged_sbu_0--edge1-CIFDUS_clean_linker_0
_symmetry_space_group_name_H-M    P1
_symmetry_Int_Tables_number       1
_symmetry_cell_setting            triclinic
loop_
_symmetry_equiv_pos_as_xyz
'x, y, z'
_cell_length_a     21.329266
_cell_length_b     21.362637
_cell_length_c     21.386513
_cell_angle_alpha  89.369757
_cell_angle_beta   89.872815
_cell_angle_gamma 89.807195
loop_
_atom_site_label
_atom_site_type_symbol
_atom_site_fract_x
_atom_site_fract_y
_atom_site_fract_z
_atom_type_partial_charge
Fe0 Fe -0.00041 0.00466 0.42097 0.0
O1 O 0.9343 0.0059 0.48853 0.0
Fe2 Fe 0.11916 0.91703 0.4914 0.0
Fe3 Fe 0.87386 0.07512 0.49834 0.0
O4 O 0.0576 0.98517 0.49184 0.0
O5 O 0.05725 0.98433 0.49803 0.0
O6 O 0.93404 0.00538 0.4953 0.0
Fe7 Fe 0.99297 0.98799 0.56582 0.0
C8 C 0.9784 0.1414 0.42373 0.0
O9 O 0.9273 0.02467 0.35594 0.0
O10 O 0.83908 0.03654 0.418 0.0
O11 O 0.97478 0.89447 0.55994 0.0
O12 O 0.07241 0.85773 0.55215 0.0
O13 O 0.07883 0.87205 0.4175 0.0
O14 O 0.9825 0.91171 0.40489 0.0
O15 O 0.83221 0.01656 0.56226 0.0
O16 O 0.9151 0.99274 0.62749 0.0
C17 C 0.02376 0.86986 0.39499 0.0
O18 O 0.06534 0.97071 0.63132 0.0
O19 O 0.15371 0.959 0.56982 0.0
O20 O 0.01808 0.09772 0.43114 0.0
O21 O 0.92116 0.1356 0.43941 0.0
C22 C 0.8666 0.02689 0.36467 0.0
C23 C 0.85516 -0.00359 0.61495 0.0
C24 C 0.9709 0.12077 0.59247 0.0
O25 O 0.91399 0.11705 0.57545 0.0
O26 O 0.01168 0.08126 0.57546 0.0
C27 C 0.01511 0.85135 0.56768 0.0
O28 O 0.16015 0.97445 0.42559 0.0
O29 O 0.07804 0.00192 0.36044 0.0
C30 C 0.12601 0.96904 0.62289 0.0
C31 C 0.13775 -0.00369 0.37328 0.0
Fe32 Fe 0.42288 -0.00087 5e-05 0.0
O33 O 0.4898 0.93345 0.00448 0.0
Fe34 Fe 0.49732 0.11849 0.91641 0.0
Fe35 Fe 0.49454 0.8713 0.07268 0.0
O36 O 0.49528 0.05645 0.98456 0.0
O37 O 0.50194 0.05618 0.98441 0.0
O38 O 0.49651 0.93316 0.00426 0.0
Fe39 Fe 0.56891 0.99058 0.98901 0.0
C40 C 0.41904 0.97569 0.13622 0.0
O41 O 0.35589 0.92763 0.01592 0.0
O42 O 0.41645 0.83837 0.02815 0.0
O43 O 0.56338 0.97385 0.89532 0.0
O44 O 0.55952 0.07197 0.8593 0.0
O45 O 0.42407 0.07965 0.86828 0.0
O46 O 0.41113 0.98297 0.90657 0.0
O47 O 0.56162 0.83002 0.01774 0.0
O48 O 0.62869 0.91172 0.99448 0.0
C49 C 0.40206 0.02459 0.86469 0.0
O50 O 0.63581 0.06217 0.97362 0.0
O51 O 0.57503 0.15128 0.9613 0.0
O52 O 0.42905 0.01608 0.09359 0.0
O53 O 0.43271 0.9181 0.12992 0.0
C54 C 0.36372 0.86688 0.01701 0.0
C55 C 0.61498 0.8522 -0.00153 0.0
C56 C 0.59009 0.96519 0.12419 0.0
O57 O 0.56819 0.91006 0.12063 0.0
O58 O 0.5803 0.00682 0.08251 0.0
C59 C 0.57363 0.01448 0.85293 0.0
O60 O 0.42996 0.15971 0.97122 0.0
O61 O 0.36307 0.07796 -0.00527 0.0
C62 C 0.62775 0.12289 0.97274 0.0
C63 C 0.37663 0.13749 0.99053 0.0
Fe64 Fe 0.00016 0.42209 2e-05 0.0
O65 O 0.98713 0.49499 0.05636 0.0
Fe66 Fe 0.06977 0.49241 0.86936 0.0
Fe67 Fe 0.92028 0.49723 0.11949 0.0
O68 O 0.00325 0.48809 0.93299 0.0
O69 O 0.00312 0.49464 0.93261 0.0
O70 O 0.98675 0.50169 0.05587 0.0
Fe71 Fe 0.98855 0.56762 0.98872 0.0
C72 C 0.86605 0.40124 0.02905 0.0
O73 O -0.00327 0.36316 0.08006 0.0
O74 O 0.97709 0.43125 0.16092 0.0
O75 O 0.0826 0.58046 0.00266 0.0
O76 O 0.11802 0.56701 0.90552 0.0
O77 O 0.12899 0.43197 0.91619 0.0
O78 O 0.09472 0.42682 0.01461 0.0
O79 O 0.96501 0.5758 0.14946 0.0
O80 O 0.97396 0.63548 0.0591 0.0
C81 C 0.13662 0.41766 0.97354 0.0
O82 O 0.99119 0.62619 0.9085 0.0
O83 O 0.01279 0.55838 0.82777 0.0
O84 O 0.90592 0.4116 0.9861 0.0
O85 O 0.87177 0.42281 0.08383 0.0
C86 C 0.99492 0.37746 0.13935 0.0
C87 C 0.97433 0.62836 0.11995 0.0
C88 C 0.85271 0.57052 0.01509 0.0
O89 O 0.861 0.55774 0.0727 0.0
O90 O 0.89429 0.56043 0.97398 0.0
C91 C 0.12295 0.58997 0.95989 0.0
O92 O 0.02561 0.41314 0.83878 0.0
O93 O 0.01236 0.35454 0.9296 0.0
C94 C 0.99412 0.61198 0.84924 0.0
C95 C 0.01414 0.36125 0.8688 0.0
H96 H 0.97896 0.38634 0.26456 0.0
H97 H 0.04174 0.25811 0.12238 0.0
H98 H 0.05248 0.17532 0.20196 0.0
H99 H 0.03168 0.13687 0.30959 0.0
H100 H 0.95794 0.26399 0.44679 0.0
H101 H 0.96489 0.35063 0.37134 0.0
C102 C 0.99572 0.34062 0.2505 0.0
C103 C 0.00874 0.32843 0.18712 0.0
C104 C -0.00015 0.29317 0.29582 0.0
C105 C 0.03069 0.26871 0.17058 0.0
C106 C 0.03684 0.22138 0.21608 0.0
C107 C 0.0189 0.18403 0.32318 0.0
C108 C 0.99504 0.1948 0.38352 0.0
C109 C 0.01993 0.23272 0.27853 0.0
C110 C 0.97691 0.25529 0.40063 0.0
C111 C 0.98049 0.30447 0.35745 0.0
H112 H 0.7504 0.97889 0.36877 0.0
H113 H 0.88695 0.05562 0.24037 0.0
H114 H 0.8109 0.04813 0.15461 0.0
H115 H 0.70473 0.01953 0.11691 0.0
H116 H 0.57247 0.93716 0.24624 0.0
H117 H 0.64736 0.94851 0.33169 0.0
C118 C 0.76368 0.99415 0.32204 0.0
C119 C 0.82404 0.01821 0.31095 0.0
C120 C 0.72014 0.98944 0.27353 0.0
C121 C 0.84084 0.03666 0.24996 0.0
C122 C 0.79723 0.03282 0.20115 0.0
C123 C 0.69229 0.00508 0.16411 0.0
C124 C 0.63307 0.97852 0.17594 0.0
C125 C 0.73655 0.00964 0.21254 0.0
C126 C 0.61766 0.95825 0.23658 0.0
C127 C 0.6605 0.96441 0.28519 0.0
H128 H 0.97589 0.8779 0.27742 0.0
H129 H 0.04596 0.74773 0.41634 0.0
H130 H 0.03972 0.66248 0.34162 0.0
H131 H 0.01799 0.62589 0.23742 0.0
H132 H 0.94986 0.75332 0.09493 0.0
H133 H 0.95379 0.83973 0.1699 0.0
C134 C 0.98845 0.8305 0.29129 0.0
C135 C 0.01029 0.81837 0.35232 0.0
C136 C 0.98668 0.782 0.24727 0.0
C137 C 0.02832 0.75752 0.36974 0.0
C138 C 0.02527 0.70907 0.32698 0.0
C139 C 0.00382 0.67252 0.22244 0.0
C140 C 0.98324 0.68309 0.16077 0.0
C141 C 0.00532 0.721 0.2656 0.0
C142 C 0.96627 0.74406 0.14204 0.0
C143 C 0.96788 0.79321 0.18507 0.0
H144 H 0.30481 0.02975 0.13127 0.0
H145 H 0.44363 0.95595 0.25863 0.0
H146 H 0.36959 0.96501 0.34561 0.0
H147 H 0.26348 0.98092 0.38183 0.0
H148 H 0.11916 0.04334 0.25373 0.0
H149 H 0.19769 0.05255 0.17026 0.0
C150 C 0.31901 0.01735 0.17851 0.0
C151 C 0.37939 0.99287 0.18932 0.0
C152 C 0.27511 0.01967 0.22751 0.0
C153 C 0.39739 0.97533 0.24993 0.0
C154 C 0.35503 0.98016 0.29932 0.0
C155 C 0.24867 -0.00282 0.33596 0.0
C156 C 0.18497 0.01042 0.32402 0.0
C157 C 0.29329 0.00019 0.28814 0.0
C158 C 0.1676 0.03209 0.26419 0.0
C159 C 0.21249 0.03729 0.21644 0.0
H160 H 0.95814 0.85358 0.68029 0.0
H161 H 0.03947 0.72954 0.54445 0.0
H162 H 0.03184 0.64198 0.61872 0.0
H163 H 0.01473 0.60476 0.72458 0.0
H164 H 0.94399 0.73003 0.86574 0.0
H165 H 0.93437 0.81348 0.78673 0.0
C166 C 0.97249 0.80687 0.66669 0.0
C167 C -0.00129 0.79728 0.60711 0.0
C168 C 0.97094 0.75766 0.71076 0.0
C169 C 0.01876 0.73736 0.59003 0.0
C170 C 0.01476 0.68764 0.63255 0.0
C171 C -0.00359 0.64995 0.73848 0.0
C172 C 0.98081 0.66114 0.80146 0.0
C173 C 0.99294 0.69783 0.69356 0.0
C174 C 0.95702 0.72021 0.81785 0.0
C175 C 0.95151 0.76792 0.77268 0.0
H176 H 0.28633 0.97292 0.87145 0.0
H177 H 0.42166 0.05106 0.74271 0.0
H178 H 0.34694 0.0418 0.65685 0.0
H179 H 0.24319 0.01467 0.61936 0.0
H180 H 0.10398 0.94164 0.74708 0.0
H181 H 0.17969 0.94722 0.83323 0.0
C182 C 0.29947 0.98681 0.82427 0.0
C183 C 0.35946 0.01159 0.81269 0.0
C184 C 0.25537 0.98351 0.77564 0.0
C185 C 0.37584 0.03123 0.7521 0.0
C186 C 0.3331 0.02633 0.70329 0.0
C187 C 0.22924 -0.00014 0.66604 0.0
C188 C 0.16822 0.97743 0.67684 0.0
C189 C 0.27266 0.00322 0.71471 0.0
C190 C 0.1506 0.95946 0.73774 0.0
C191 C 0.19401 0.96213 0.78677 0.0
H192 H 0.0807 0.32735 0.76806 0.0
H193 H 0.92065 0.27467 0.87975 0.0
H194 H 0.89188 0.19569 0.80257 0.0
H195 H 0.90932 0.14661 0.69962 0.0
H196 H 0.07332 0.19547 0.59177 0.0
H197 H 0.10355 0.27183 0.67078 0.0
C198 C 0.03999 0.29788 0.77578 0.0
C199 C 0.00259 0.30661 0.82916 0.0
C200 C 0.02409 0.25293 0.7314 0.0
C201 C 0.95033 0.26812 0.83925 0.0
C202 C 0.93359 0.22358 0.7948 0.0
C203 C 0.95144 0.17439 0.69354 0.0
C204 C 0.9885 0.16692 0.63966 0.0
C205 C 0.96943 0.21656 0.74006 0.0
C206 C 0.04393 0.20137 0.6327 0.0
C207 C 0.06122 0.2447 0.67784 0.0
H208 H 0.68946 0.9638 0.8584 0.0
H209 H 0.54861 0.03214 0.73033 0.0
H210 H 0.62277 0.02392 0.64336 0.0
H211 H 0.72914 0.00976 0.60697 0.0
H212 H 0.87517 0.95259 0.73546 0.0
H213 H 0.79715 0.94326 0.81943 0.0
C214 C 0.67491 0.9752 0.81103 0.0
C215 C 0.61381 -0.00222 0.8 0.0
C216 C 0.71881 0.97335 0.76196 0.0
C217 C 0.59535 0.01413 0.73921 0.0
C218 C 0.63779 0.00979 0.68982 0.0
C219 C 0.74444 0.99464 0.65305 0.0
C220 C 0.80844 0.98278 0.66487 0.0
C221 C 0.70003 0.99145 0.7011 0.0
C222 C 0.82648 0.96268 0.72504 0.0
C223 C 0.78187 0.95741 0.77307 0.0
H224 H 0.1349 0.30423 0.02994 0.0
H225 H 0.25826 0.4425 0.94878 0.0
H226 H 0.34597 0.36862 0.95463 0.0
H227 H 0.38332 0.26258 0.97013 0.0
H228 H 0.25876 0.11919 0.0411 0.0
H229 H 0.17532 0.19748 0.05226 0.0
C230 C 0.18153 0.3184 0.01529 0.0
C231 C 0.1909 0.37857 0.98963 0.0
C232 C 0.23079 0.27457 0.01581 0.0
C233 C 0.25067 0.39646 0.96915 0.0
C234 C 0.30045 0.35415 0.97208 0.0
C235 C 0.33827 0.24801 0.98874 0.0
C236 C 0.32727 0.18463 0.00398 0.0
C237 C 0.29044 0.29259 0.99328 0.0
C238 C 0.26842 0.16739 0.02828 0.0
C239 C 0.22073 0.21217 0.03471 0.0
H240 H 0.11619 0.70459 0.01313 0.0
H241 H 0.24425 0.57423 0.92761 0.0
H242 H 0.32929 0.65011 0.93561 0.0
H243 H 0.36667 0.75293 0.96548 0.0
H244 H 0.2396 0.88714 0.04647 0.0
H245 H 0.15381 0.81094 0.04012 0.0
C246 C 0.16304 0.6928 -0.00281 0.0
C247 C 0.17466 0.63377 0.97084 0.0
C248 C 0.21118 0.73757 -2e-05 0.0
C249 C 0.23479 0.61924 0.94861 0.0
C250 C 0.28314 0.66265 0.95284 0.0
C251 C 0.32014 0.7657 0.98168 0.0
C252 C 0.30948 0.82536 0.00681 0.0
C253 C 0.27172 0.72194 0.97801 0.0
C254 C 0.2488 0.84159 0.02659 0.0
C255 C 0.20002 0.79785 0.02351 0.0
H256 H 0.62303 0.23844 0.0204 0.0
H257 H 0.75294 0.10144 0.94874 0.0
H258 H 0.83855 0.17772 0.95626 0.0
H259 H 0.87522 0.2846 0.9822 0.0
H260 H 0.74375 0.4186 0.05592 0.0
H261 H 0.65902 0.3423 0.04763 0.0
C262 C 0.67009 0.22504 0.00639 0.0
C263 C 0.68165 0.16459 0.98356 0.0
C264 C 0.71828 0.26888 0.0104 0.0
C265 C 0.74303 0.14762 0.96677 0.0
C266 C 0.79172 0.19136 0.97054 0.0
C267 C 0.82762 0.29713 -0.00506 0.0
C268 C 0.81482 0.35724 0.01799 0.0
C269 C 0.77964 0.25239 0.99158 0.0
C270 C 0.75394 0.37274 0.03717 0.0
C271 C 0.70582 0.32912 0.0328 0.0
H272 H 0.85616 0.68457 0.96051 0.0
H273 H 0.7306 0.54598 0.03755 0.0
H274 H 0.64341 0.62046 0.03114 0.0
H275 H 0.60701 0.72687 0.01643 0.0
H276 H 0.73372 0.87052 0.94996 0.0
H277 H 0.81682 0.79185 0.93902 0.0
C278 C 0.80917 0.67051 0.97411 0.0
C279 C 0.79896 0.61006 -0.00129 0.0
C280 C 0.76022 0.71462 0.97333 0.0
C281 C 0.73878 0.59224 0.01794 0.0
C282 C 0.68931 0.63488 0.01469 0.0
C283 C 0.65247 0.74145 -0.00113 0.0
C284 C 0.66417 0.80497 0.98488 0.0
C285 C 0.70008 0.69665 0.99452 0.0
C286 C 0.72352 0.82219 0.96182 0.0
C287 C 0.77102 0.77721 0.95553 0.0
loop_
_geom_bond_atom_site_label_1
_geom_bond_atom_site_label_2
_geom_bond_distance
_geom_bond_site_symmetry_2
_ccdc_geom_bond_type
Fe0 O1 1.895 . S
Fe0 O4 1.706 1_645 S
Fe0 O9 2.077 1_545 S
Fe0 O14 1.918 1_545 S
Fe0 O20 2.094 1_655 S
Fe0 O29 1.938 1_655 S
O1 Fe0 1.895 . S
O1 Fe3 1.715 . S
Fe2 O4 1.886 . S
Fe2 O5 1.715 . S
Fe2 O12 1.935 . S
Fe2 O13 2.077 . S
Fe2 O19 1.935 . S
Fe2 O28 2.077 . S
Fe3 O1 1.715 . S
Fe3 O6 1.886 . S
Fe3 O10 1.935 . S
Fe3 O15 2.077 . S
Fe3 O21 1.935 . S
Fe3 O25 2.077 . S
O4 Fe0 1.706 1_465 S
O4 Fe2 1.886 . S
O5 Fe2 1.715 . S
O5 Fe7 1.893 . S
O6 Fe3 1.886 . S
O6 Fe7 1.708 1_645 S
Fe7 O5 1.893 . S
Fe7 O6 1.708 1_465 S
Fe7 O11 2.090 1_455 S
Fe7 O16 1.938 1_455 S
Fe7 O18 2.077 1_565 S
Fe7 O26 1.922 1_565 S
C8 O20 1.381 1_655 S
C8 O21 1.421 . S
O9 Fe0 2.077 1_565 S
O9 C22 1.381 1_565 S
O10 Fe3 1.935 . S
O10 C22 1.421 . S
O11 Fe7 2.090 1_655 S
O11 C27 1.381 1_655 S
O12 Fe2 1.935 . S
O12 C27 1.421 . S
O13 Fe2 2.077 . S
O13 C17 1.381 . S
O14 Fe0 1.918 1_565 S
O14 C17 1.421 1_655 S
O15 Fe3 2.077 . S
O15 C23 1.381 . S
O16 Fe7 1.938 1_655 S
O16 C23 1.421 1_565 S
C17 O13 1.381 . S
C17 O14 1.421 1_455 S
O18 Fe7 2.077 1_545 S
O18 C30 1.381 1_545 S
O19 Fe2 1.935 . S
O19 C30 1.421 . S
O20 Fe0 2.094 1_455 S
O20 C8 1.381 1_455 S
O21 Fe3 1.935 . S
O21 C8 1.421 . S
C22 O9 1.381 1_545 S
C22 O10 1.421 . S
C23 O15 1.381 . S
C23 O16 1.421 1_545 S
C24 O25 1.381 . S
C24 O26 1.421 1_655 S
O25 Fe3 2.077 . S
O25 C24 1.381 . S
O26 Fe7 1.922 1_545 S
O26 C24 1.421 1_455 S
C27 O11 1.381 1_455 S
C27 O12 1.421 . S
O28 Fe2 2.077 . S
O28 C31 1.381 . S
O29 Fe0 1.938 1_455 S
O29 C31 1.421 1_545 S
C30 O18 1.381 1_565 S
C30 O19 1.421 . S
C31 O28 1.381 . S
C31 O29 1.421 1_565 S
Fe32 O33 1.895 . S
Fe32 O36 1.706 1_564 S
Fe32 O41 2.077 1_554 S
Fe32 O46 1.918 1_554 S
Fe32 O52 2.094 1_565 S
Fe32 O61 1.938 1_565 S
O33 Fe32 1.895 . S
O33 Fe35 1.715 . S
Fe34 O36 1.886 . S
Fe34 O37 1.715 . S
Fe34 O44 1.935 . S
Fe34 O45 2.077 . S
Fe34 O51 1.935 . S
Fe34 O60 2.077 . S
Fe35 O33 1.715 . S
Fe35 O38 1.886 . S
Fe35 O42 1.935 . S
Fe35 O47 2.077 . S
Fe35 O53 1.935 . S
Fe35 O57 2.077 . S
O36 Fe32 1.706 1_546 S
O36 Fe34 1.886 . S
O37 Fe34 1.715 . S
O37 Fe39 1.893 . S
O38 Fe35 1.886 . S
O38 Fe39 1.708 1_564 S
Fe39 O37 1.893 . S
Fe39 O38 1.708 1_546 S
Fe39 O43 2.090 1_545 S
Fe39 O48 1.938 1_545 S
Fe39 O50 2.077 1_556 S
Fe39 O58 1.922 1_556 S
C40 O52 1.381 1_565 S
C40 O53 1.421 . S
O41 Fe32 2.077 1_556 S
O41 C54 1.381 1_556 S
O42 Fe35 1.935 . S
O42 C54 1.421 . S
O43 Fe39 2.090 1_565 S
O43 C59 1.381 1_565 S
O44 Fe34 1.935 . S
O44 C59 1.421 . S
O45 Fe34 2.077 . S
O45 C49 1.381 . S
O46 Fe32 1.918 1_556 S
O46 C49 1.421 1_565 S
O47 Fe35 2.077 . S
O47 C55 1.381 . S
O48 Fe39 1.938 1_565 S
O48 C55 1.421 1_556 S
C49 O45 1.381 . S
C49 O46 1.421 1_545 S
O50 Fe39 2.077 1_554 S
O50 C62 1.381 1_554 S
O51 Fe34 1.935 . S
O51 C62 1.421 . S
O52 Fe32 2.094 1_545 S
O52 C40 1.381 1_545 S
O53 Fe35 1.935 . S
O53 C40 1.421 . S
C54 O41 1.381 1_554 S
C54 O42 1.421 . S
C55 O47 1.381 . S
C55 O48 1.421 1_554 S
C56 O57 1.381 . S
C56 O58 1.421 1_565 S
O57 Fe35 2.077 . S
O57 C56 1.381 . S
O58 Fe39 1.922 1_554 S
O58 C56 1.421 1_545 S
C59 O43 1.381 1_545 S
C59 O44 1.421 . S
O60 Fe34 2.077 . S
O60 C63 1.381 . S
O61 Fe32 1.938 1_545 S
O61 C63 1.421 1_554 S
C62 O50 1.381 1_556 S
C62 O51 1.421 . S
C63 O60 1.381 . S
C63 O61 1.421 1_556 S
Fe64 O65 1.895 . S
Fe64 O68 1.706 1_654 S
Fe64 O73 2.094 1_655 S
Fe64 O78 1.938 1_655 S
Fe64 O84 2.077 1_554 S
Fe64 O93 1.918 1_554 S
O65 Fe64 1.895 . S
O65 Fe67 1.715 . S
Fe66 O68 1.886 . S
Fe66 O69 1.715 . S
Fe66 O76 1.935 . S
Fe66 O77 2.077 . S
Fe66 O83 1.935 . S
Fe66 O92 2.077 . S
Fe67 O65 1.715 . S
Fe67 O70 1.886 . S
Fe67 O74 1.935 . S
Fe67 O79 2.077 . S
Fe67 O85 1.935 . S
Fe67 O89 2.077 . S
O68 Fe64 1.706 1_456 S
O68 Fe66 1.886 . S
O69 Fe66 1.715 . S
O69 Fe71 1.893 . S
O70 Fe67 1.886 . S
O70 Fe71 1.708 1_654 S
Fe71 O69 1.893 . S
Fe71 O70 1.708 1_456 S
Fe71 O75 2.077 1_556 S
Fe71 O80 1.922 1_556 S
Fe71 O82 2.090 1_455 S
Fe71 O90 1.938 1_455 S
C72 O84 1.381 1_554 S
C72 O85 1.421 . S
O73 Fe64 2.094 1_455 S
O73 C86 1.381 1_455 S
O74 Fe67 1.935 . S
O74 C86 1.421 . S
O75 Fe71 2.077 1_554 S
O75 C91 1.381 1_554 S
O76 Fe66 1.935 . S
O76 C91 1.421 . S
O77 Fe66 2.077 . S
O77 C81 1.381 . S
O78 Fe64 1.938 1_455 S
O78 C81 1.421 1_554 S
O79 Fe67 2.077 . S
O79 C87 1.381 . S
O80 Fe71 1.922 1_554 S
O80 C87 1.421 1_455 S
C81 O77 1.381 . S
C81 O78 1.421 1_556 S
O82 Fe71 2.090 1_655 S
O82 C94 1.381 1_655 S
O83 Fe66 1.935 . S
O83 C94 1.421 . S
O84 Fe64 2.077 1_556 S
O84 C72 1.381 1_556 S
O85 Fe67 1.935 . S
O85 C72 1.421 . S
C86 O73 1.381 1_655 S
C86 O74 1.421 . S
C87 O79 1.381 . S
C87 O80 1.421 1_655 S
C88 O89 1.381 . S
C88 O90 1.421 1_554 S
O89 Fe67 2.077 . S
O89 C88 1.381 . S
O90 Fe71 1.938 1_655 S
O90 C88 1.421 1_556 S
C91 O75 1.381 1_556 S
C91 O76 1.421 . S
O92 Fe66 2.077 . S
O92 C95 1.381 . S
O93 Fe64 1.918 1_556 S
O93 C95 1.421 1_655 S
C94 O82 1.381 1_455 S
C94 O83 1.421 . S
C95 O92 1.381 . S
C95 O93 1.421 1_455 S
H96 C102 0.930 . S
H97 C105 0.930 . S
H98 C106 0.930 . S
H99 C107 0.930 . S
H100 C110 0.930 . S
H101 C111 0.930 . S
C102 H96 0.930 . S
C102 C103 1.355 1_655 S
C102 C104 1.415 . S
C103 C102 1.355 1_455 S
C103 C105 1.419 . S
C104 C102 1.415 . S
C104 C109 1.425 1_655 S
C104 C111 1.409 . S
C105 H97 0.930 . S
C105 C103 1.419 . S
C105 C106 1.362 . S
C106 H98 0.930 . S
C106 C105 1.362 . S
C106 C109 1.409 . S
C107 H99 0.930 . S
C107 C108 1.355 1_455 S
C107 C109 1.415 . S
C108 C107 1.355 1_655 S
C108 C110 1.419 . S
C109 C104 1.425 1_455 S
C109 C106 1.409 . S
C109 C107 1.415 . S
C110 H100 0.930 . S
C110 C108 1.419 . S
C110 C111 1.362 . S
C111 H101 0.930 . S
C111 C104 1.409 . S
C111 C110 1.362 . S
H112 C118 0.930 . S
H113 C121 0.930 . S
H114 C122 0.930 . S
H115 C123 0.930 . S
H116 C126 0.930 . S
H117 C127 0.930 . S
C118 H112 0.930 . S
C118 C119 1.355 1_565 S
C118 C120 1.415 . S
C119 C118 1.355 1_545 S
C119 C121 1.419 . S
C120 C118 1.415 . S
C120 C125 1.425 1_565 S
C120 C127 1.409 . S
C121 H113 0.930 . S
C121 C119 1.419 . S
C121 C122 1.362 . S
C122 H114 0.930 . S
C122 C121 1.362 . S
C122 C125 1.409 . S
C123 H115 0.930 . S
C123 C124 1.355 1_545 S
C123 C125 1.415 . S
C124 C123 1.355 1_565 S
C124 C126 1.419 . S
C125 C120 1.425 1_545 S
C125 C122 1.409 . S
C125 C123 1.415 . S
C126 H116 0.930 . S
C126 C124 1.419 . S
C126 C127 1.362 . S
C127 H117 0.930 . S
C127 C120 1.409 . S
C127 C126 1.362 . S
H128 C134 0.930 . S
H129 C137 0.930 . S
H130 C138 0.930 . S
H131 C139 0.930 . S
H132 C142 0.930 . S
H133 C143 0.930 . S
C134 H128 0.930 . S
C134 C135 1.355 1_655 S
C134 C136 1.415 . S
C135 C134 1.355 1_455 S
C135 C137 1.419 . S
C136 C134 1.415 . S
C136 C141 1.425 1_655 S
C136 C143 1.409 . S
C137 H129 0.930 . S
C137 C135 1.419 . S
C137 C138 1.362 . S
C138 H130 0.930 . S
C138 C137 1.362 . S
C138 C141 1.409 . S
C139 H131 0.930 . S
C139 C140 1.355 1_455 S
C139 C141 1.415 . S
C140 C139 1.355 1_655 S
C140 C142 1.419 . S
C141 C136 1.425 1_455 S
C141 C138 1.409 . S
C141 C139 1.415 . S
C142 H132 0.930 . S
C142 C140 1.419 . S
C142 C143 1.362 . S
C143 H133 0.930 . S
C143 C136 1.409 . S
C143 C142 1.362 . S
H144 C150 0.930 . S
H145 C153 0.930 . S
H146 C154 0.930 . S
H147 C155 0.930 . S
H148 C158 0.930 . S
H149 C159 0.930 . S
C150 H144 0.930 . S
C150 C151 1.355 1_545 S
C150 C152 1.415 . S
C151 C150 1.355 1_565 S
C151 C153 1.419 . S
C152 C150 1.415 . S
C152 C157 1.425 1_545 S
C152 C159 1.409 . S
C153 H145 0.930 . S
C153 C151 1.419 . S
C153 C154 1.362 . S
C154 H146 0.930 . S
C154 C153 1.362 . S
C154 C157 1.409 . S
C155 H147 0.930 . S
C155 C156 1.355 . S
C155 C157 1.415 . S
C156 C155 1.355 . S
C156 C158 1.419 1_565 S
C157 C152 1.425 1_565 S
C157 C154 1.409 . S
C157 C155 1.415 . S
C158 H148 0.930 . S
C158 C156 1.419 1_545 S
C158 C159 1.362 . S
C159 H149 0.930 . S
C159 C152 1.409 . S
C159 C158 1.362 . S
H160 C166 0.930 . S
H161 C169 0.930 . S
H162 C170 0.930 . S
H163 C171 0.930 . S
H164 C174 0.930 . S
H165 C175 0.930 . S
C166 H160 0.930 . S
C166 C167 1.355 1_655 S
C166 C168 1.415 . S
C167 C166 1.355 1_455 S
C167 C169 1.419 . S
C168 C166 1.415 . S
C168 C173 1.425 1_655 S
C168 C175 1.409 . S
C169 H161 0.930 . S
C169 C167 1.419 . S
C169 C170 1.362 . S
C170 H162 0.930 . S
C170 C169 1.362 . S
C170 C173 1.409 . S
C171 H163 0.930 . S
C171 C172 1.355 1_455 S
C171 C173 1.415 . S
C172 C171 1.355 1_655 S
C172 C174 1.419 . S
C173 C168 1.425 1_455 S
C173 C170 1.409 . S
C173 C171 1.415 . S
C174 H164 0.930 . S
C174 C172 1.419 . S
C174 C175 1.362 . S
C175 H165 0.930 . S
C175 C168 1.409 . S
C175 C174 1.362 . S
H176 C182 0.930 . S
H177 C185 0.930 . S
H178 C186 0.930 . S
H179 C187 0.930 . S
H180 C190 0.930 . S
H181 C191 0.930 . S
C182 H176 0.930 . S
C182 C183 1.355 1_545 S
C182 C184 1.415 . S
C183 C182 1.355 1_565 S
C183 C185 1.419 . S
C184 C182 1.415 . S
C184 C189 1.425 1_545 S
C184 C191 1.409 . S
C185 H177 0.930 . S
C185 C183 1.419 . S
C185 C186 1.362 . S
C186 H178 0.930 . S
C186 C185 1.362 . S
C186 C189 1.409 . S
C187 H179 0.930 . S
C187 C188 1.355 1_565 S
C187 C189 1.415 . S
C188 C187 1.355 1_545 S
C188 C190 1.419 . S
C189 C184 1.425 1_565 S
C189 C186 1.409 . S
C189 C187 1.415 . S
C190 H180 0.930 . S
C190 C188 1.419 . S
C190 C191 1.362 . S
C191 H181 0.930 . S
C191 C184 1.409 . S
C191 C190 1.362 . S
H192 C198 0.930 . S
H193 C201 0.930 . S
H194 C202 0.930 . S
H195 C203 0.930 . S
H196 C206 0.930 . S
H197 C207 0.930 . S
C198 H192 0.930 . S
C198 C199 1.355 1_655 S
C198 C200 1.415 . S
C199 C198 1.355 1_455 S
C199 C201 1.419 . S
C200 C198 1.415 . S
C200 C205 1.425 1_655 S
C200 C207 1.409 . S
C201 H193 0.930 . S
C201 C199 1.419 . S
C201 C202 1.362 . S
C202 H194 0.930 . S
C202 C201 1.362 . S
C202 C205 1.409 . S
C203 H195 0.930 . S
C203 C204 1.355 1_455 S
C203 C205 1.415 . S
C204 C203 1.355 1_655 S
C204 C206 1.419 . S
C205 C200 1.425 1_455 S
C205 C202 1.409 . S
C205 C203 1.415 . S
C206 H196 0.930 . S
C206 C204 1.419 . S
C206 C207 1.362 . S
C207 H197 0.930 . S
C207 C200 1.409 . S
C207 C206 1.362 . S
H208 C214 0.930 . S
H209 C217 0.930 . S
H210 C218 0.930 . S
H211 C219 0.930 . S
H212 C222 0.930 . S
H213 C223 0.930 . S
C214 H208 0.930 . S
C214 C215 1.355 1_565 S
C214 C216 1.415 . S
C215 C214 1.355 1_545 S
C215 C217 1.419 . S
C216 C214 1.415 . S
C216 C221 1.425 1_565 S
C216 C223 1.409 . S
C217 H209 0.930 . S
C217 C215 1.419 . S
C217 C218 1.362 . S
C218 H210 0.930 . S
C218 C217 1.362 . S
C218 C221 1.409 . S
C219 H211 0.930 . S
C219 C220 1.355 1_545 S
C219 C221 1.415 . S
C220 C219 1.355 1_565 S
C220 C222 1.419 . S
C221 C216 1.425 1_545 S
C221 C218 1.409 . S
C221 C219 1.415 . S
C222 H212 0.930 . S
C222 C220 1.419 . S
C222 C223 1.362 . S
C223 H213 0.930 . S
C223 C216 1.409 . S
C223 C222 1.362 . S
H224 C230 0.930 . S
H225 C233 0.930 . S
H226 C234 0.930 . S
H227 C235 0.930 . S
H228 C238 0.930 . S
H229 C239 0.930 . S
C230 H224 0.930 . S
C230 C231 1.355 1_554 S
C230 C232 1.415 . S
C231 C230 1.355 1_556 S
C231 C233 1.419 . S
C232 C230 1.415 . S
C232 C237 1.425 1_554 S
C232 C239 1.409 . S
C233 H225 0.930 . S
C233 C231 1.419 . S
C233 C234 1.362 . S
C234 H226 0.930 . S
C234 C233 1.362 . S
C234 C237 1.409 . S
C235 H227 0.930 . S
C235 C236 1.355 1_556 S
C235 C237 1.415 . S
C236 C235 1.355 1_554 S
C236 C238 1.419 . S
C237 C232 1.425 1_556 S
C237 C234 1.409 . S
C237 C235 1.415 . S
C238 H228 0.930 . S
C238 C236 1.419 . S
C238 C239 1.362 . S
C239 H229 0.930 . S
C239 C232 1.409 . S
C239 C238 1.362 . S
H240 C246 0.930 . S
H241 C249 0.930 . S
H242 C250 0.930 . S
H243 C251 0.930 . S
H244 C254 0.930 . S
H245 C255 0.930 . S
C246 H240 0.930 . S
C246 C247 1.355 1_554 S
C246 C248 1.415 . S
C247 C246 1.355 1_556 S
C247 C249 1.419 . S
C248 C246 1.415 . S
C248 C253 1.425 1_554 S
C248 C255 1.409 . S
C249 H241 0.930 . S
C249 C247 1.419 . S
C249 C250 1.362 . S
C250 H242 0.930 . S
C250 C249 1.362 . S
C250 C253 1.409 . S
C251 H243 0.930 . S
C251 C252 1.355 1_556 S
C251 C253 1.415 . S
C252 C251 1.355 1_554 S
C252 C254 1.419 . S
C253 C248 1.425 1_556 S
C253 C250 1.409 . S
C253 C251 1.415 . S
C254 H244 0.930 . S
C254 C252 1.419 . S
C254 C255 1.362 . S
C255 H245 0.930 . S
C255 C248 1.409 . S
C255 C254 1.362 . S
H256 C262 0.930 . S
H257 C265 0.930 . S
H258 C266 0.930 . S
H259 C267 0.930 . S
H260 C270 0.930 . S
H261 C271 0.930 . S
C262 H256 0.930 . S
C262 C263 1.355 1_554 S
C262 C264 1.415 . S
C263 C262 1.355 1_556 S
C263 C265 1.419 . S
C264 C262 1.415 . S
C264 C269 1.425 1_554 S
C264 C271 1.409 . S
C265 H257 0.930 . S
C265 C263 1.419 . S
C265 C266 1.362 . S
C266 H258 0.930 . S
C266 C265 1.362 . S
C266 C269 1.409 . S
C267 H259 0.930 . S
C267 C268 1.355 1_556 S
C267 C269 1.415 . S
C268 C267 1.355 1_554 S
C268 C270 1.419 . S
C269 C264 1.425 1_556 S
C269 C266 1.409 . S
C269 C267 1.415 . S
C270 H260 0.930 . S
C270 C268 1.419 . S
C270 C271 1.362 . S
C271 H261 0.930 . S
C271 C264 1.409 . S
C271 C270 1.362 . S
H272 C278 0.930 . S
H273 C281 0.930 . S
H274 C282 0.930 . S
H275 C283 0.930 . S
H276 C286 0.930 . S
H277 C287 0.930 . S
C278 H272 0.930 . S
C278 C279 1.355 1_556 S
C278 C280 1.415 . S
C279 C278 1.355 1_554 S
C279 C281 1.419 . S
C280 C278 1.415 . S
C280 C285 1.425 1_556 S
C280 C287 1.409 . S
C281 H273 0.930 . S
C281 C279 1.419 . S
C281 C282 1.362 . S
C282 H274 0.930 . S
C282 C281 1.362 . S
C282 C285 1.409 . S
C283 H275 0.930 . S
C283 C284 1.355 1_554 S
C283 C285 1.415 . S
C284 C283 1.355 1_556 S
C284 C286 1.419 . S
C285 C280 1.425 1_554 S
C285 C282 1.409 . S
C285 C283 1.415 . S
C286 H276 0.930 . S
C286 C284 1.419 . S
C286 C287 1.362 . S
C287 H277 0.930 . S
C287 C280 1.409 . S
C287 C286 1.362 . S
C103 C86 1.246 1_455 S
C108 C8 1.158 . S
C119 C22 1.136 . S
C124 C56 1.117 . S
C135 C17 1.126 . S
C140 C87 1.128 . S
C151 C40 1.226 . S
C156 C31 1.156 . S
C167 C27 1.200 . S
C172 C94 1.211 1_655 S
C183 C49 1.209 1_565 S
C188 C30 1.163 1_545 S
C199 C95 1.173 . S
C204 C24 1.107 . S
C215 C59 1.157 . S
C220 C23 1.247 1_565 S
C231 C81 1.167 . S
C236 C63 1.220 1_554 S
C247 C91 1.145 . S
C252 C54 1.120 . S
C263 C62 1.120 . S
C268 C72 1.158 . S
C279 C88 1.189 . S
C284 C55 1.205 1_556 S
