# Generated by pormake.
# Topology lcy-a, (4)-cn, num edge types: 1
# Building blocks:
#     Node 0, Type 0, BuildingBlock: NAHDIM_clean_sbu_0, # of connection points: 4
#     Node 1, Type 0, BuildingBlock: NAHDIM_clean_sbu_0, # of connection points: 4
#     Node 2, Type 0, BuildingBlock: NAHDIM_clean_sbu_0, # of connection points: 4
#     Node 3, Type 0, BuildingBlock: NAHDIM_clean_sbu_0, # of connection points: 4
#     Node 4, Type 0, BuildingBlock: NAHDIM_clean_sbu_0, # of connection points: 4
#     Node 5, Type 0, BuildingBlock: NAHDIM_clean_sbu_0, # of connection points: 4
#     Node 6, Type 0, BuildingBlock: NAHDIM_clean_sbu_0, # of connection points: 4
#     Node 7, Type 0, BuildingBlock: NAHDIM_clean_sbu_0, # of connection points: 4
#     Node 8, Type 0, BuildingBlock: NAHDIM_clean_sbu_0, # of connection points: 4
#     Node 9, Type 0, BuildingBlock: NAHDIM_clean_sbu_0, # of connection points: 4
#     Node 10, Type 0, BuildingBlock: NAHDIM_clean_sbu_0, # of connection points: 4
#     Node 11, Type 0, BuildingBlock: NAHDIM_clean_sbu_0, # of connection points: 4
#     Node 12, Type 0, BuildingBlock: NAHDIM_clean_sbu_0, # of connection points: 4
#     Node 13, Type 0, BuildingBlock: NAHDIM_clean_sbu_0, # of connection points: 4
#     Node 14, Type 0, BuildingBlock: NAHDIM_clean_sbu_0, # of connection points: 4
#     Node 15, Type 0, BuildingBlock: NAHDIM_clean_sbu_0, # of connection points: 4
#     Node 16, Type 0, BuildingBlock: NAHDIM_clean_sbu_0, # of connection points: 4
#     Node 17, Type 0, BuildingBlock: NAHDIM_clean_sbu_0, # of connection points: 4
#     Node 18, Type 0, BuildingBlock: NAHDIM_clean_sbu_0, # of connection points: 4
#     Node 19, Type 0, BuildingBlock: NAHDIM_clean_sbu_0, # of connection points: 4
#     Node 20, Type 0, BuildingBlock: NAHDIM_clean_sbu_0, # of connection points: 4
#     Node 21, Type 0, BuildingBlock: NAHDIM_clean_sbu_0, # of connection points: 4
#     Node 22, Type 0, BuildingBlock: NAHDIM_clean_sbu_0, # of connection points: 4
#     Node 23, Type 0, BuildingBlock: NAHDIM_clean_sbu_0, # of connection points: 4
#     Edge 24, Type (0, 0), BuildingBlock: OJICUG_clean_linker_0, # of connection points: 2
#     Edge 25, Type (0, 0), BuildingBlock: OJICUG_clean_linker_0, # of connection points: 2
#     Edge 26, Type (0, 0), BuildingBlock: OJICUG_clean_linker_0, # of connection points: 2
#     Edge 27, Type (0, 0), BuildingBlock: OJICUG_clean_linker_0, # of connection points: 2
#     Edge 28, Type (0, 0), BuildingBlock: OJICUG_clean_linker_0, # of connection points: 2
#     Edge 29, Type (0, 0), BuildingBlock: OJICUG_clean_linker_0, # of connection points: 2
#     Edge 30, Type (0, 0), BuildingBlock: OJICUG_clean_linker_0, # of connection points: 2
#     Edge 31, Type (0, 0), BuildingBlock: OJICUG_clean_linker_0, # of connection points: 2
#     Edge 32, Type (0, 0), BuildingBlock: OJICUG_clean_linker_0, # of connection points: 2
#     Edge 33, Type (0, 0), BuildingBlock: OJICUG_clean_linker_0, # of connection points: 2
#     Edge 34, Type (0, 0), BuildingBlock: OJICUG_clean_linker_0, # of connection points: 2
#     Edge 35, Type (0, 0), BuildingBlock: OJICUG_clean_linker_0, # of connection points: 2
#     Edge 36, Type (0, 0), BuildingBlock: OJICUG_clean_linker_0, # of connection points: 2
#     Edge 37, Type (0, 0), BuildingBlock: OJICUG_clean_linker_0, # of connection points: 2
#     Edge 38, Type (0, 0), BuildingBlock: OJICUG_clean_linker_0, # of connection points: 2
#     Edge 39, Type (0, 0), BuildingBlock: OJICUG_clean_linker_0, # of connection points: 2
#     Edge 40, Type (0, 0), BuildingBlock: OJICUG_clean_linker_0, # of connection points: 2
#     Edge 41, Type (0, 0), BuildingBlock: OJICUG_clean_linker_0, # of connection points: 2
#     Edge 42, Type (0, 0), BuildingBlock: OJICUG_clean_linker_0, # of connection points: 2
#     Edge 43, Type (0, 0), BuildingBlock: OJICUG_clean_linker_0, # of connection points: 2
#     Edge 44, Type (0, 0), BuildingBlock: OJICUG_clean_linker_0, # of connection points: 2
#     Edge 45, Type (0, 0), BuildingBlock: OJICUG_clean_linker_0, # of connection points: 2
#     Edge 46, Type (0, 0), BuildingBlock: OJICUG_clean_linker_0, # of connection points: 2
#     Edge 47, Type (0, 0), BuildingBlock: OJICUG_clean_linker_0, # of connection points: 2
#     Edge 48, Type (0, 0), BuildingBlock: OJICUG_clean_linker_0, # of connection points: 2
#     Edge 49, Type (0, 0), BuildingBlock: OJICUG_clean_linker_0, # of connection points: 2
#     Edge 50, Type (0, 0), BuildingBlock: OJICUG_clean_linker_0, # of connection points: 2
#     Edge 51, Type (0, 0), BuildingBlock: OJICUG_clean_linker_0, # of connection points: 2
#     Edge 52, Type (0, 0), BuildingBlock: OJICUG_clean_linker_0, # of connection points: 2
#     Edge 53, Type (0, 0), BuildingBlock: OJICUG_clean_linker_0, # of connection points: 2
#     Edge 54, Type (0, 0), BuildingBlock: OJICUG_clean_linker_0, # of connection points: 2
#     Edge 55, Type (0, 0), BuildingBlock: OJICUG_clean_linker_0, # of connection points: 2
#     Edge 56, Type (0, 0), BuildingBlock: OJICUG_clean_linker_0, # of connection points: 2
#     Edge 57, Type (0, 0), BuildingBlock: OJICUG_clean_linker_0, # of connection points: 2
#     Edge 58, Type (0, 0), BuildingBlock: OJICUG_clean_linker_0, # of connection points: 2
#     Edge 59, Type (0, 0), BuildingBlock: OJICUG_clean_linker_0, # of connection points: 2
#     Edge 60, Type (0, 0), BuildingBlock: OJICUG_clean_linker_0, # of connection points: 2
#     Edge 61, Type (0, 0), BuildingBlock: OJICUG_clean_linker_0, # of connection points: 2
#     Edge 62, Type (0, 0), BuildingBlock: OJICUG_clean_linker_0, # of connection points: 2
#     Edge 63, Type (0, 0), BuildingBlock: OJICUG_clean_linker_0, # of connection points: 2
#     Edge 64, Type (0, 0), BuildingBlock: OJICUG_clean_linker_0, # of connection points: 2
#     Edge 65, Type (0, 0), BuildingBlock: OJICUG_clean_linker_0, # of connection points: 2
#     Edge 66, Type (0, 0), BuildingBlock: OJICUG_clean_linker_0, # of connection points: 2
#     Edge 67, Type (0, 0), BuildingBlock: OJICUG_clean_linker_0, # of connection points: 2
#     Edge 68, Type (0, 0), BuildingBlock: OJICUG_clean_linker_0, # of connection points: 2
#     Edge 69, Type (0, 0), BuildingBlock: OJICUG_clean_linker_0, # of connection points: 2
#     Edge 70, Type (0, 0), BuildingBlock: OJICUG_clean_linker_0, # of connection points: 2
#     Edge 71, Type (0, 0), BuildingBlock: OJICUG_clean_linker_0, # of connection points: 2
# Relax obj value: 0.392
# Max RMSD: 0.215
# Mean RMSD: 0.215
data_MOF--net-lcy-a--node1-NAHDIM_clean_sbu_0--edge1-OJICUG_clean_linker_0
_symmetry_space_group_name_H-M    P1
_symmetry_Int_Tables_number       1
_symmetry_cell_setting            triclinic
loop_
_symmetry_equiv_pos_as_xyz
'x, y, z'
_cell_length_a     41.898294
_cell_length_b     41.740526
_cell_length_c     41.680336
_cell_angle_alpha  90.183821
_cell_angle_beta   90.412103
_cell_angle_gamma 89.754092
loop_
_atom_site_label
_atom_site_type_symbol
_atom_site_fract_x
_atom_site_fract_y
_atom_site_fract_z
_atom_type_partial_charge
C0 C 0.18558 0.26765 0.52487 0.0
O1 O 0.21538 0.25788 0.52673 0.0
O2 O 0.23556 0.27401 0.4603 0.0
Zn3 Zn 0.21256 0.31104 0.4807 0.0
O4 O 0.24322 0.34072 0.50308 0.0
C5 C 0.17631 0.31831 0.42337 0.0
O6 O 0.17164 0.28765 0.42856 0.0
O7 O 0.17899 0.29258 0.50869 0.0
C8 C 0.26109 0.35616 0.48412 0.0
O9 O 0.25846 0.35084 0.45312 0.0
C10 C 0.26277 0.26253 0.46756 0.0
O11 O 0.27951 0.27557 0.49091 0.0
O12 O 0.19184 0.33449 0.44405 0.0
C13 C 0.96353 0.87812 0.68302 0.0
O14 O 0.95492 0.87208 0.65327 0.0
O15 O 0.97061 0.96965 0.66068 0.0
Zn16 Zn 0.93483 0.93992 0.67101 0.0
O17 O 0.90117 0.96494 0.69476 0.0
C18 C 0.93373 0.92579 0.60402 0.0
O19 O 0.96476 0.92806 0.60819 0.0
O20 O 0.95494 0.90426 0.69611 0.0
C21 C 0.89204 0.98955 0.67921 0.0
O22 O 0.90529 -0.0045 0.65138 0.0
C23 C 0.98525 0.98775 0.68035 0.0
O24 O 0.97665 0.98842 0.7106 0.0
O25 O 0.91577 0.92685 0.62845 0.0
C26 C 0.29468 0.73274 0.00026 0.0
O27 O 0.26555 0.72893 0.011 0.0
O28 O 0.24816 0.73474 0.91858 0.0
Zn29 Zn 0.2707 0.70023 0.94356 0.0
O30 O 0.23757 0.67395 0.96608 0.0
C31 C 0.29539 0.64247 0.91174 0.0
O32 O 0.2869 0.62746 0.93793 0.0
O33 O 0.30219 0.72105 0.97314 0.0
C34 C 0.24271 0.65495 0.98933 0.0
O35 O 0.27156 0.65278 0.00173 0.0
C36 C 0.22942 0.75557 0.93044 0.0
O37 O 0.22407 0.75558 0.96145 0.0
O38 O 0.29228 0.67275 0.91026 0.0
C39 C 0.49999 0.05021 0.25243 0.0
O40 O 0.49577 0.02025 0.26088 0.0
O41 O 0.5094 0.99046 0.19352 0.0
Zn42 Zn 0.54311 0.02089 0.209 0.0
O43 O 0.57463 -0.0025 0.23703 0.0
C44 C 0.55044 0.04572 0.14523 0.0
O45 O 0.51915 0.04735 0.14677 0.0
O46 O 0.52088 0.05674 0.23151 0.0
C47 C 0.59219 0.97777 0.2219 0.0
O48 O 0.58807 0.97457 0.19077 0.0
C49 C 0.50124 0.96479 0.20749 0.0
O50 O 0.51564 0.95634 0.23428 0.0
O51 O 0.56608 0.03667 0.16983 0.0
C52 C 0.69473 0.23154 0.47235 0.0
O53 O 0.72445 0.24066 0.46873 0.0
O54 O 0.74227 0.23398 0.54589 0.0
Zn55 Zn 0.72331 0.19613 0.52293 0.0
O56 O 0.75741 0.17242 0.49907 0.0
C57 C 0.69529 0.17767 0.58262 0.0
O58 O 0.68994 0.20865 0.58474 0.0
O59 O 0.68825 0.21119 0.49392 0.0
C60 C 0.75186 0.144 0.48969 0.0
O61 O 0.72323 0.13201 0.49377 0.0
C62 C 0.76786 0.24797 0.53792 0.0
O63 O 0.78315 0.23829 0.51222 0.0
O64 O 0.70742 0.16646 0.55707 0.0
C65 C -0.00567 0.42993 0.79005 0.0
O66 O 0.9844 0.44885 0.81316 0.0
O67 O 0.02165 0.50299 0.8114 0.0
Zn68 Zn 0.05061 0.46671 0.79958 0.0
O69 O 0.08405 0.4819 0.76874 0.0
C70 C 0.05649 0.4528 0.86678 0.0
O71 O 0.02537 0.45637 0.86529 0.0
O72 O 0.023 0.43216 0.7804 0.0
C73 C 0.11212 0.4703 0.77056 0.0
O74 O 0.11807 0.44727 0.79119 0.0
C75 C 0.01098 0.52577 0.79427 0.0
O76 O 0.02036 0.52874 0.76443 0.0
O77 O 0.07244 0.45388 0.841 0.0
C78 C 0.78296 0.76037 0.99111 0.0
O79 O 0.75467 0.74869 0.98418 0.0
O80 O 0.72297 0.75739 0.04928 0.0
Zn81 Zn 0.74752 0.79644 0.03674 0.0
O82 O 0.71887 0.82734 0.01393 0.0
C83 C 0.77471 0.79995 0.09947 0.0
O84 O 0.77899 0.76918 0.09421 0.0
O85 O 0.78531 0.78282 0.01157 0.0
C86 C 0.72733 0.85619 0.00972 0.0
O87 O 0.75637 0.86489 0.01795 0.0
C88 C 0.69807 0.74704 0.03518 0.0
O89 O 0.68684 0.76227 0.00995 0.0
O90 O 0.76236 0.81711 0.07751 0.0
C91 C 0.44982 0.55103 0.22522 0.0
O92 O 0.45573 0.52068 0.21922 0.0
O93 O 0.45061 0.49755 0.28658 0.0
Zn94 Zn 0.41215 0.52305 0.27295 0.0
O95 O 0.37907 0.49553 0.2514 0.0
C96 C 0.41315 0.55375 0.33383 0.0
O97 O 0.44303 0.55807 0.32557 0.0
O98 O 0.42862 0.55826 0.24566 0.0
C99 C 0.36352 0.47767 0.27027 0.0
O100 O 0.3709 0.47786 0.30097 0.0
C101 C 0.46128 0.47136 0.27529 0.0
O102 O 0.44563 0.45671 0.25213 0.0
O103 O 0.39409 0.541 0.31373 0.0
C104 C 0.41054 0.14799 0.29132 0.0
O105 O 0.41232 0.17647 0.27816 0.0
O106 O 0.33103 0.19454 0.29456 0.0
Zn107 Zn 0.36619 0.18313 0.3258 0.0
O108 O 0.39867 0.21838 0.32726 0.0
C109 C 0.31775 0.17897 0.37383 0.0
O110 O 0.29985 0.17101 0.34908 0.0
O111 O 0.38999 0.14331 0.3131 0.0
C112 C 0.39923 0.24012 0.34864 0.0
O113 O 0.37642 0.24142 0.37005 0.0
C114 C 0.33474 0.21332 0.27097 0.0
O115 O 0.36337 0.22432 0.26483 0.0
O116 O 0.34769 0.18126 0.37006 0.0
C117 C 0.08476 0.17716 0.54467 0.0
O118 O 0.05606 0.18411 0.5338 0.0
O119 O 0.04055 0.10189 0.51648 0.0
Zn120 Zn 0.05121 0.12155 0.55944 0.0
O121 O 0.01384 0.14758 0.57553 0.0
C122 C 0.05675 0.08621 0.62002 0.0
O123 O 0.05935 0.11434 0.63392 0.0
O124 O 0.08981 0.14973 0.55689 0.0
C125 C 0.01841 0.16871 0.5971 0.0
O126 O 0.04756 0.17388 0.60765 0.0
C127 C 0.02146 0.11389 0.4959 0.0
O128 O 0.00897 0.14229 0.50133 0.0
O129 O 0.05621 0.08446 0.58957 0.0
C130 C 0.06073 0.80003 0.74298 0.0
O131 O 0.05934 0.76868 0.74049 0.0
O132 O 0.1221 0.74409 0.76377 0.0
Zn133 Zn 0.10587 0.78156 0.78904 0.0
O134 O 0.07578 0.7633 0.82121 0.0
C135 C 0.14029 0.80944 0.84194 0.0
O136 O 0.11151 0.81549 0.85273 0.0
O137 O 0.08131 0.81248 0.76175 0.0
C138 C 0.05068 0.77767 0.83045 0.0
O139 O 0.04371 0.80612 0.81889 0.0
C140 C 0.14752 0.74469 0.74736 0.0
O141 O 0.16273 0.77192 0.744 0.0
O142 O 0.14336 0.79934 0.81332 0.0
C143 C 0.38095 0.82202 0.06097 0.0
O144 O 0.37627 0.83313 0.09009 0.0
O145 O 0.45213 0.89075 0.0272 0.0
Zn146 Zn 0.44038 0.85923 0.0612 0.0
O147 O 0.47899 0.83266 0.07317 0.0
C148 C 0.43416 0.87597 0.1284 0.0
O149 O 0.43912 0.84529 0.13333 0.0
O150 O 0.4053 0.83082 0.04538 0.0
C151 C 0.47479 0.8049 0.08475 0.0
O152 O 0.44567 0.79352 0.08635 0.0
C153 C 0.46837 0.88419 0.00242 0.0
O154 O 0.47743 0.85445 -0.00274 0.0
O155 O 0.42971 0.88581 0.09988 0.0
C156 C 0.90481 0.34504 0.72792 0.0
O157 O 0.88135 0.33249 0.74433 0.0
O158 O 0.85637 0.27756 0.71038 0.0
Zn159 Zn 0.88694 0.29831 0.67994 0.0
O160 O 0.92036 0.26646 0.66744 0.0
C161 C 0.83309 0.31232 0.63956 0.0
O162 O 0.81849 0.31492 0.66725 0.0
O163 O 0.90997 0.33538 0.69952 0.0
C164 C 0.91439 0.24437 0.64727 0.0
O165 O 0.88532 0.24152 0.63562 0.0
C166 C 0.86472 0.25622 0.73045 0.0
O167 O 0.89502 0.24832 0.73299 0.0
O168 O 0.86323 0.309 0.6394 0.0
C169 C 0.89613 0.68937 0.95852 0.0
O170 O 0.92339 0.69686 0.97234 0.0
O171 O 0.95298 0.62161 0.96902 0.0
Zn172 Zn 0.93781 0.64608 0.93027 0.0
O173 O 0.96962 0.67983 0.91808 0.0
C174 C 0.94281 0.62127 0.8652 0.0
O175 O 0.94533 0.6515 0.85704 0.0
O176 O 0.89544 0.66631 0.9386 0.0
C177 C 0.96086 0.70542 0.90401 0.0
O178 O 0.93032 0.71066 0.89887 0.0
C179 C 0.97337 0.63167 0.98934 0.0
O180 O 0.98466 0.66083 0.98653 0.0
O181 O 0.93677 0.61421 0.89419 0.0
C182 C 0.54511 0.64592 0.19915 0.0
O183 O 0.53985 0.67581 0.20756 0.0
O184 O 0.62617 0.68936 0.21628 0.0
Zn185 Zn 0.6 0.67595 0.17785 0.0
O186 O 0.57075 0.71125 0.16308 0.0
C187 C 0.61969 0.66891 0.11288 0.0
O188 O 0.58872 0.66846 0.10768 0.0
O189 O 0.57171 0.6385 0.18658 0.0
C190 C 0.57782 0.73525 0.14591 0.0
O191 O 0.60778 0.74054 0.13858 0.0
C192 C 0.61682 0.70906 0.23757 0.0
O193 O 0.58756 0.72041 0.23602 0.0
O194 O 0.62996 0.66804 0.14161 0.0
C195 C 0.59135 0.30291 0.41518 0.0
O196 O 0.56194 0.29526 0.42256 0.0
O197 O 0.55221 0.38949 0.42751 0.0
Zn198 Zn 0.55839 0.35746 0.39201 0.0
O199 O 0.51849 0.33125 0.38907 0.0
C200 C 0.55972 0.411 0.34936 0.0
O201 O 0.56899 0.42644 0.37529 0.0
O202 O 0.59643 0.32917 0.40074 0.0
C203 C 0.51322 0.31584 0.36327 0.0
O204 O 0.53458 0.31652 0.34035 0.0
C205 C 0.53973 0.38189 0.45409 0.0
O206 O 0.53299 0.35169 0.45955 0.0
O207 O 0.55913 0.38061 0.3499 0.0
C208 C 0.15383 0.3846 0.20147 0.0
O209 O 0.14048 0.38314 0.22984 0.0
O210 O 0.18238 0.34413 0.2731 0.0
Zn211 Zn 0.20749 0.35401 0.23338 0.0
O212 O 0.24048 0.38641 0.24585 0.0
C213 C 0.22673 0.28751 0.23194 0.0
O214 O 0.19985 0.28329 0.24738 0.0
O215 O 0.18126 0.37221 0.1974 0.0
C216 C 0.25931 0.39863 0.22557 0.0
O217 O 0.25627 0.39101 0.1951 0.0
C218 C 0.17889 0.36523 0.29486 0.0
O219 O 0.18847 0.39463 0.28937 0.0
O220 O 0.23299 0.3151 0.2209 0.0
C221 C 0.69155 0.07743 0.78983 0.0
O222 O 0.68537 0.06967 0.75987 0.0
O223 O 0.72116 0.12108 0.72249 0.0
Zn224 Zn 0.7462 0.10512 0.76077 0.0
O225 O 0.77507 0.06875 0.74735 0.0
C226 C 0.76697 0.16989 0.76974 0.0
O227 O 0.73727 0.17615 0.76146 0.0
O228 O 0.7169 0.09277 0.79639 0.0
C229 C 0.7949 0.07646 0.72578 0.0
O230 O 0.79388 0.1057 0.71421 0.0
C231 C 0.71534 0.10487 0.69728 0.0
O232 O 0.72412 0.07464 0.69601 0.0
O233 O 0.77542 0.14093 0.7738 0.0
C234 C 0.10379 0.47137 0.10601 0.0
O235 O 0.07424 0.48197 0.10662 0.0
O236 O 0.09858 0.48922 0.0106 0.0
Zn237 Zn 0.11178 0.51317 0.05038 0.0
O238 O 0.14938 0.5413 0.04078 0.0
C239 C 0.04723 0.53558 0.05282 0.0
O240 O 0.04136 0.50591 0.04405 0.0
O241 O 0.12289 0.48195 0.08506 0.0
C242 C 0.14389 0.56485 0.02225 0.0
O243 O 0.11512 0.56835 0.00995 0.0
C244 C 0.11676 0.48104 0.98771 0.0
O245 O 0.14742 0.48729 0.98967 0.0
O246 O 0.07552 0.54305 0.06093 0.0
C247 C 0.7932 0.86081 0.32053 0.0
O248 O 0.80428 0.83583 0.30485 0.0
O249 O 0.75837 0.8312 0.24815 0.0
Zn250 Zn 0.73439 0.84768 0.28621 0.0
O251 O 0.70435 0.88089 0.26891 0.0
C252 C 0.71448 0.7833 0.2968 0.0
O253 O 0.74378 0.77707 0.28755 0.0
O254 O 0.76394 0.86849 0.31766 0.0
C255 C 0.68556 0.89772 0.28586 0.0
O256 O 0.68589 0.89443 0.3172 0.0
C257 C 0.76768 0.85067 0.22687 0.0
O258 O 0.76404 0.88157 0.2318 0.0
O259 O 0.70677 0.8122 0.30265 0.0
C260 C 0.38192 0.55034 0.56316 0.0
O261 O 0.38375 0.56791 0.53716 0.0
O262 O 0.40647 0.52788 0.48365 0.0
Zn263 Zn 0.40109 0.49825 0.52119 0.0
O264 O 0.36604 0.46764 0.50959 0.0
C265 C 0.46717 0.48054 0.51427 0.0
O266 O 0.46973 0.51012 0.50396 0.0
O267 O 0.38951 0.52088 0.56186 0.0
C268 C 0.35214 0.44981 0.52975 0.0
O269 O 0.36008 0.45174 0.56025 0.0
C270 C 0.38292 0.5352 0.4657 0.0
O271 O 0.35416 0.52605 0.47392 0.0
O272 O 0.44064 0.47129 0.52544 0.0
C273 C 0.30991 0.59502 0.67165 0.0
O274 O 0.30047 0.62495 0.67437 0.0
O275 O 0.29032 0.59592 0.7662 0.0
Zn276 Zn 0.26776 0.58439 0.72519 0.0
O277 O 0.23857 0.54686 0.73246 0.0
C278 C 0.21642 0.6268 0.73216 0.0
O279 O 0.21049 0.60536 0.75431 0.0
O280 O 0.29905 0.57412 0.69072 0.0
C281 C 0.21407 0.5426 0.7148 0.0
O282 O 0.20922 0.56159 0.69015 0.0
C283 C 0.29177 0.578 0.79074 0.0
O284 O 0.28041 0.54875 0.78892 0.0
O285 O 0.24079 0.62309 0.7145 0.0
C286 C 0.61462 0.02852 0.89251 0.0
O287 O 0.59795 0.00243 0.88721 0.0
O288 O 0.59174 0.03408 -0.00293 0.0
Zn289 Zn 0.60413 0.00989 0.95702 0.0
O290 O 0.63964 0.97893 0.96757 0.0
C291 C 0.53855 0.98933 0.95307 0.0
O292 O 0.53289 0.01773 0.96552 0.0
O293 O 0.61907 0.03788 0.92122 0.0
C294 C 0.63227 0.95201 0.97953 0.0
O295 O 0.60221 0.94598 0.98577 0.0
C296 C 0.60974 0.03563 0.0217 0.0
O297 O 0.63898 0.02432 0.01999 0.0
O298 O 0.56671 0.98253 0.94423 0.0
C299 C 0.8772 0.94646 0.38932 0.0
O300 O 0.90016 0.93496 0.40761 0.0
O301 O 0.90032 0.97881 0.46386 0.0
Zn302 Zn 0.88634 0.00485 0.42588 0.0
O303 O 0.85018 0.03371 0.43922 0.0
C304 C 0.95132 0.02438 0.4208 0.0
O305 O 0.95654 -0.00585 0.4279 0.0
O306 O 0.86958 0.97588 0.39151 0.0
C307 C 0.85559 0.06154 0.4504 0.0
O308 O 0.88524 0.07109 0.45401 0.0
C309 C 0.8813 0.96484 0.48278 0.0
O310 O 0.8504 0.96687 0.47756 0.0
O311 O 0.92308 0.03308 0.41363 0.0
C312 C 0.10335 0.23235 0.53223 0.0
C313 C 0.11036 0.20122 0.54294 0.0
H314 H 0.12153 0.27805 0.51886 0.0
C315 C 0.14197 0.19332 0.55122 0.0
H316 H 0.07914 0.23935 0.52611 0.0
C317 C 0.16637 0.21564 0.54716 0.0
C318 C 0.15953 0.24623 0.53481 0.0
H319 H 0.14804 0.1696 0.55987 0.0
H320 H 0.1907 0.20844 0.55248 0.0
C321 C 0.12765 0.25464 0.52828 0.0
C322 C 0.00541 0.86947 0.72506 0.0
C323 C 0.98726 0.85743 0.69925 0.0
H324 H 0.04336 0.86104 0.75861 0.0
C325 C -0.0063 0.82645 0.68769 0.0
H326 H 0.00125 0.8934 0.7343 0.0
C327 C 0.01777 0.80783 0.70178 0.0
C328 C 0.0362 0.82009 0.72726 0.0
H329 H 0.98019 0.81661 0.66774 0.0
H330 H 0.0221 0.78392 0.69254 0.0
C331 C 0.0298 0.85109 0.73875 0.0
C332 C 0.3092 0.76866 0.04649 0.0
C333 C 0.31745 0.75374 0.01739 0.0
H334 H 0.32285 0.8021 0.08323 0.0
C335 C 0.34706 0.76069 0.00352 0.0
H336 H 0.28653 0.76379 0.05777 0.0
C337 C 0.36757 0.78273 0.01785 0.0
C338 C 0.35911 0.79823 0.04655 0.0
H339 H 0.35422 0.74962 0.98114 0.0
H340 H 0.39005 0.78773 0.00624 0.0
C341 C 0.32992 0.79066 0.06102 0.0
C342 C 0.48023 0.10664 0.25171 0.0
C343 C 0.47815 0.07547 0.26402 0.0
H344 H 0.46037 0.15375 0.25042 0.0
C345 C 0.45382 0.0683 0.28589 0.0
H346 H 0.49864 0.11295 0.23476 0.0
C347 C 0.43171 0.0918 0.29489 0.0
C348 C 0.43353 0.1228 0.28206 0.0
H349 H 0.45156 0.04445 0.29576 0.0
H350 H 0.41311 0.08561 0.31166 0.0
C351 C 0.45813 0.13001 0.26056 0.0
C352 C 0.67499 0.27429 0.43508 0.0
C353 C 0.66871 0.24754 0.45441 0.0
H354 H 0.65542 0.31287 0.40737 0.0
C355 C 0.63699 0.23764 0.45834 0.0
H356 H 0.69921 0.28245 0.4315 0.0
C357 C 0.61197 0.255 0.44449 0.0
C358 C 0.61812 0.28269 0.4265 0.0
H359 H 0.63136 0.21699 0.47289 0.0
H360 H 0.58775 0.2472 0.44876 0.0
C361 C 0.64991 0.29175 0.42128 0.0
C362 C 0.95684 0.37407 0.72916 0.0
C363 C 0.92724 0.36754 0.74339 0.0
H364 H 0.00152 0.39848 0.73302 0.0
C365 C 0.92005 0.38146 0.77318 0.0
H366 H 0.9632 0.3635 0.7063 0.0
C367 C 0.94198 0.40161 0.78839 0.0
C368 C 0.97167 0.40789 0.7743 0.0
H369 H 0.89748 0.3768 0.78476 0.0
H370 H 0.9357 0.41212 0.81131 0.0
C371 C 0.97893 0.39389 0.74456 0.0
C372 C 0.81003 0.71685 0.95999 0.0
C373 C 0.81208 0.74411 0.97975 0.0
H374 H 0.83511 0.67797 0.93781 0.0
C375 C 0.84213 0.75403 0.99106 0.0
H376 H 0.7872 0.70863 0.9509 0.0
C377 C 0.86942 0.73635 0.98385 0.0
C378 C 0.86727 0.70849 0.96502 0.0
H379 H 0.84455 0.77497 0.00629 0.0
H380 H 0.89214 0.74434 -0.00658 0.0
C381 C 0.83743 0.69922 0.95262 0.0
C382 C 0.49074 0.63078 0.21744 0.0
C383 C 0.5199 0.62182 0.20352 0.0
H384 H 0.44539 0.61553 0.23461 0.0
C385 C 0.5245 0.5899 0.19381 0.0
H386 H 0.48629 0.65529 0.22482 0.0
C387 C 0.50084 0.5671 0.19918 0.0
C388 C 0.47226 0.57582 0.21445 0.0
H389 H 0.54658 0.58238 0.18266 0.0
H390 H 0.5055 0.54244 0.19246 0.0
C391 C 0.46718 0.60803 0.22286 0.0
C392 C 0.10916 0.41857 0.1797 0.0
C393 C 0.13936 0.40432 0.17577 0.0
H394 H 0.07406 0.45095 0.16059 0.0
C395 C 0.15682 0.411 0.14795 0.0
H396 H 0.09511 0.41383 0.20085 0.0
C397 C 0.14496 0.43242 0.12518 0.0
C398 C 0.11522 0.44745 0.12952 0.0
H399 H 0.18015 0.40044 0.14413 0.0
H400 H 0.15936 0.43748 0.10433 0.0
C401 C 0.09713 0.43985 0.15668 0.0
C402 C 0.65611 0.0662 0.87226 0.0
C403 C 0.63183 0.04389 0.8659 0.0
H404 H 0.69417 0.09416 0.85323 0.0
C405 C 0.62599 0.03437 0.83404 0.0
H406 H 0.66121 0.07401 0.89656 0.0
C407 C 0.64483 0.04599 0.80919 0.0
C408 C 0.67004 0.06717 0.81574 0.0
H409 H 0.60736 0.01732 0.82835 0.0
H410 H 0.64018 0.03765 0.78498 0.0
C411 C 0.67511 0.07762 0.84744 0.0
C412 C 0.84575 0.87205 0.34754 0.0
C413 C 0.81507 0.88227 0.33821 0.0
H414 H 0.88966 0.88442 0.37123 0.0
C415 C 0.80562 0.91392 0.34477 0.0
H416 H 0.85369 0.8478 0.34263 0.0
C417 C 0.82632 0.93493 0.36036 0.0
C418 C 0.85678 0.92467 0.37029 0.0
H419 H 0.78227 0.92267 0.33757 0.0
H420 H 0.81807 0.95909 0.36524 0.0
C421 C 0.86635 0.89301 0.36376 0.0
C422 C 0.34369 0.55371 0.6448 0.0
C423 C 0.33126 0.58501 0.64541 0.0
H424 H 0.36982 0.51841 0.61864 0.0
C425 C 0.33812 0.60585 0.61999 0.0
H426 H 0.33912 0.53716 0.66418 0.0
C427 C 0.35575 0.59504 0.59369 0.0
C428 C 0.36694 0.56326 0.59249 0.0
H429 H 0.32899 0.63016 0.61986 0.0
H430 H 0.35974 0.61128 0.57392 0.0
C431 C 0.3614 0.54299 0.61869 0.0
C432 C 0.32259 0.42213 0.48549 0.0
C433 C 0.32828 0.4262 0.51851 0.0
H434 H 0.29716 0.39683 0.44887 0.0
C435 C 0.31148 0.40712 0.54035 0.0
H436 H 0.33512 0.43638 0.46798 0.0
C437 C 0.28949 0.38437 0.52932 0.0
C438 C 0.28408 0.38017 0.49625 0.0
H439 H 0.31533 0.4097 0.56595 0.0
H440 H 0.27691 0.36997 0.54667 0.0
C441 C 0.30084 0.39934 0.4745 0.0
C442 C 0.86089 0.04043 0.67587 0.0
C443 C 0.86701 0.01131 0.69161 0.0
H444 H 0.83349 0.0836 0.67429 0.0
C445 C 0.84883 0.00338 0.71866 0.0
H446 H 0.87443 0.04731 0.65497 0.0
C447 C 0.82497 0.02426 0.72966 0.0
C448 C 0.81915 0.05352 0.71398 0.0
H449 H 0.85292 0.98104 0.73121 0.0
H450 H 0.81136 0.01765 0.75061 0.0
C451 C 0.83737 0.0613 0.68699 0.0
C452 C 0.22356 0.60779 0.021 0.0
C453 C 0.21713 0.63295 -0.00047 0.0
H454 H 0.20553 0.56631 0.0449 0.0
C455 C 0.1863 0.63588 0.98632 0.0
H456 H 0.24709 0.60481 0.03152 0.0
C457 C 0.1626 0.61386 -0.0061 0.0
C458 C 0.16913 0.58831 0.01484 0.0
H459 H 0.1805 0.65501 0.96974 0.0
H460 H 0.1392 0.61675 0.98305 0.0
C461 C 0.19979 0.58564 0.02854 0.0
C462 C 0.61877 0.95801 0.27237 0.0
C463 C 0.6166 0.9583 0.23869 0.0
H464 H 0.64232 0.93855 0.31384 0.0
C465 C 0.63784 0.93932 0.22085 0.0
H466 H 0.60273 0.97241 0.28676 0.0
C467 C 0.6605 0.92017 0.23626 0.0
C468 C 0.66239 0.91936 0.26992 0.0
H469 H 0.63692 0.93909 0.19488 0.0
H470 H 0.67629 0.90566 0.22167 0.0
C471 C 0.64143 0.93863 0.28786 0.0
C472 C 0.80968 0.13482 0.47791 0.0
C473 C 0.77809 0.1236 0.47759 0.0
H474 H 0.8589 0.12398 0.46978 0.0
C475 C 0.7721 0.09208 0.46732 0.0
H476 H 0.81512 0.15897 0.48573 0.0
C477 C 0.79722 0.072 0.45815 0.0
C478 C 0.82887 0.083 0.45919 0.0
H479 H 0.74803 0.08271 0.46678 0.0
H480 H 0.79184 0.04773 0.45067 0.0
C481 C 0.8348 0.11471 0.46889 0.0
C482 C 0.19515 0.49753 0.74905 0.0
C483 C 0.1887 0.52068 0.72546 0.0
H484 H 0.17602 0.46303 0.78139 0.0
C485 C 0.15714 0.52481 0.71453 0.0
H486 H 0.21926 0.49372 0.75784 0.0
C487 C 0.13227 0.50754 0.72833 0.0
C488 C 0.13857 0.48547 0.75298 0.0
H489 H 0.15139 0.54251 0.69641 0.0
H490 H 0.10803 0.51218 0.72035 0.0
C491 C 0.17036 0.47992 0.76249 0.0
C492 C 0.6479 0.89573 0.99215 0.0
C493 C 0.65693 0.92744 0.98587 0.0
H494 H 0.66304 0.84829 0.00398 0.0
C495 C 0.68952 0.93527 0.98584 0.0
H496 H 0.62299 0.88888 0.99207 0.0
C497 C 0.71258 0.91196 -0.00712 0.0
C498 C 0.70345 0.88035 -0.00033 0.0
H499 H 0.69718 0.95952 0.981 0.0
H500 H 0.73749 0.91879 -0.00662 0.0
C501 C 0.6709 0.8724 -0.00122 0.0
C502 C 0.29155 0.42342 0.26965 0.0
C503 C 0.28555 0.41959 0.23666 0.0
H504 H 0.32093 0.44447 0.30601 0.0
C505 C 0.30534 0.43521 0.21461 0.0
H506 H 0.27682 0.41166 0.28729 0.0
C507 C 0.33069 0.45423 0.22541 0.0
C508 C 0.33683 0.45773 0.25844 0.0
H509 H 0.30132 0.43272 0.18903 0.0
H510 H 0.34558 0.46598 0.20791 0.0
C511 C 0.31696 0.44215 0.2804 0.0
C512 C 0.4788 0.2785 0.33151 0.0
C513 C 0.48342 0.29754 0.35898 0.0
H514 H 0.44846 0.24562 0.30658 0.0
C515 C 0.45935 0.29887 0.38226 0.0
H516 H 0.49683 0.2771 0.31306 0.0
C517 C 0.43147 0.28099 0.37844 0.0
C518 C 0.42724 0.26131 0.35136 0.0
H519 H 0.46212 0.31351 0.4036 0.0
H520 H 0.41359 0.28207 0.39706 0.0
C521 C 0.45104 0.26051 0.32777 0.0
C522 C -0.00309 0.20986 0.63481 0.0
C523 C -0.00854 0.18729 0.61033 0.0
H524 H 0.97688 0.24531 0.66583 0.0
C525 C 0.96019 0.18279 0.59879 0.0
H526 H 0.02068 0.21381 0.64436 0.0
C527 C 0.93495 0.2009 0.61119 0.0
C528 C 0.94054 0.22381 0.63535 0.0
H529 H 0.95522 0.16549 0.58 0.0
H530 H 0.91117 0.19721 0.60155 0.0
C531 C 0.97174 0.22788 0.6472 0.0
C532 C 0.9754 0.75497 0.87406 0.0
C533 C 0.98478 0.72623 0.88891 0.0
H534 H 0.98905 0.79404 0.84405 0.0
C535 C 0.01672 0.71613 0.88672 0.0
H536 H 0.95098 0.76345 0.8755 0.0
C537 C 0.03839 0.73347 0.8685 0.0
C538 C 0.02864 0.7614 0.8524 0.0
H539 H 0.02472 0.69413 0.89796 0.0
H540 H 0.0626 0.72452 0.8664 0.0
C541 C -0.00281 0.7725 0.85607 0.0
C542 C 0.51999 0.74415 0.13442 0.0
C543 C 0.55178 0.75413 0.13096 0.0
H544 H 0.47106 0.75195 0.1222 0.0
C545 C 0.55822 0.78098 0.11184 0.0
H546 H 0.51413 0.72346 0.14882 0.0
C547 C 0.53328 0.7975 0.09654 0.0
C548 C 0.50155 0.78721 0.09984 0.0
H549 H 0.58248 0.78915 0.1086 0.0
H550 H 0.53886 0.81821 0.08206 0.0
C551 C 0.49523 0.76037 0.11893 0.0
C552 C 0.16141 0.31195 0.36551 0.0
C553 C 0.16983 0.33205 0.3913 0.0
H554 H 0.1574 0.3068 0.31455 0.0
C555 C 0.17602 0.36454 0.38527 0.0
H556 H 0.15624 0.28686 0.36935 0.0
C557 C 0.17645 0.37603 0.35384 0.0
C558 C 0.17098 0.35518 0.32784 0.0
H559 H 0.18224 0.38072 0.40468 0.0
H560 H 0.18311 0.40075 0.3499 0.0
C561 C 0.16209 0.32338 0.33406 0.0
C562 C 0.87379 0.94176 0.53765 0.0
C563 C 0.89405 0.94954 0.51215 0.0
H564 H 0.87045 0.92775 0.58688 0.0
C565 C 0.92711 0.94495 0.5159 0.0
H566 H 0.84819 0.94483 0.53541 0.0
C567 C 0.93984 0.93492 0.54523 0.0
C568 C 0.9198 0.9295 0.57153 0.0
H569 H 0.94334 0.9503 0.49654 0.0
H570 H 0.96553 0.93307 0.5477 0.0
C571 C 0.88656 0.93191 0.56713 0.0
C572 C 0.30904 0.62466 0.82419 0.0
C573 C 0.29988 0.59235 0.82224 0.0
H574 H 0.31525 0.66581 0.85419 0.0
C575 C 0.29459 0.57536 0.85076 0.0
H576 H 0.31372 0.63836 0.80272 0.0
C577 C 0.29557 0.59115 0.8804 0.0
C578 C 0.30176 0.62421 0.88198 0.0
H579 H 0.28779 0.55036 0.85012 0.0
H580 H 0.28945 0.57788 0.90176 0.0
C581 C 0.30992 0.64044 0.85374 0.0
C582 C 0.54893 0.05446 0.0858 0.0
C583 C 0.56672 0.04893 0.11397 0.0
H584 H 0.54863 0.05499 0.03449 0.0
C585 C 0.59972 0.04325 0.11153 0.0
H586 H 0.52351 0.05914 0.08682 0.0
C587 C 0.61417 0.0409 0.08147 0.0
C588 C 0.59592 0.04417 0.05323 0.0
H589 H 0.61419 0.03911 0.13277 0.0
H590 H 0.63934 0.03499 0.08042 0.0
C591 C 0.56337 0.0521 0.05575 0.0
C592 C 0.70153 0.12457 0.60986 0.0
C593 C 0.69386 0.15736 0.6116 0.0
H594 H 0.71395 0.08202 0.6357 0.0
C595 C 0.68879 0.17137 0.64184 0.0
H596 H 0.70533 0.11298 0.5869 0.0
C597 C 0.69392 0.15368 0.6698 0.0
C598 C 0.70398 0.12155 0.66808 0.0
H599 H 0.68265 0.19651 0.64405 0.0
H600 H 0.69145 0.16565 0.69276 0.0
C601 C 0.70644 0.1068 0.63785 0.0
C602 C 0.06958 0.46232 0.95593 0.0
C603 C 0.10251 0.46851 0.95763 0.0
H604 H 0.02934 0.45195 0.92597 0.0
C605 C 0.12087 0.46522 0.92972 0.0
H606 H 0.05476 0.46427 0.97704 0.0
C607 C 0.10622 0.45807 0.9003 0.0
C608 C 0.07294 0.45409 0.89829 0.0
H609 H 0.14633 0.46962 0.93028 0.0
H610 H 0.12077 0.45725 0.87893 0.0
C611 C 0.05497 0.45518 0.9266 0.0
C612 C 0.78071 0.80546 0.18967 0.0
C613 C 0.77605 0.83845 0.19472 0.0
H614 H 0.78444 0.76739 0.15542 0.0
C615 C 0.77549 0.85909 0.16816 0.0
H616 H 0.78151 0.78899 0.2097 0.0
C617 C 0.77685 0.84668 0.13705 0.0
C618 C 0.77917 0.81345 0.13196 0.0
H619 H 0.77209 0.88465 0.17125 0.0
H620 H 0.77467 0.86301 0.117 0.0
C621 C 0.78242 0.79308 0.15856 0.0
C622 C 0.3648 0.54576 0.40941 0.0
C623 C 0.38885 0.5474 0.43303 0.0
H624 H 0.35359 0.54675 0.35926 0.0
C625 C 0.41974 0.55662 0.42404 0.0
H626 H 0.34069 0.53896 0.41556 0.0
C627 C 0.42708 0.5613 0.39177 0.0
C628 C 0.40374 0.55658 0.36786 0.0
H629 H 0.43872 0.55847 0.44173 0.0
H630 H 0.45155 0.56654 0.38549 0.0
C631 C 0.37221 0.55018 0.3771 0.0
C632 C 0.30889 0.22901 0.44891 0.0
C633 C 0.2762 0.23648 0.44764 0.0
H634 H 0.34779 0.20427 0.42674 0.0
C635 C 0.25666 0.22053 0.42522 0.0
H636 H 0.3245 0.24066 0.46614 0.0
C637 C 0.2699 0.19951 0.40283 0.0
C638 C 0.30301 0.19418 0.40224 0.0
H639 H 0.23125 0.22533 0.42399 0.0
H640 H 0.25438 0.18903 0.38479 0.0
C641 C 0.3222 0.20806 0.42637 0.0
C642 C 0.02192 0.00535 0.63722 0.0
C643 C 0.00927 0.0102 0.66797 0.0
H644 H 0.04785 0.02528 0.59827 0.0
C645 C 0.01745 0.03805 0.6851 0.0
H646 H 0.01655 0.98382 0.62367 0.0
C647 C 0.03546 0.062 0.67044 0.0
C648 C 0.0456 0.05832 0.63853 0.0
H649 H 0.00826 0.04227 0.70897 0.0
H650 H 0.03954 0.08418 0.68336 0.0
C651 C 0.04001 0.02909 0.6227 0.0
C652 C 0.21728 0.777 0.8758 0.0
C653 C 0.21032 0.77614 0.90871 0.0
H654 H 0.20094 0.78925 0.82875 0.0
C655 C 0.18304 0.79225 0.91988 0.0
H656 H 0.23845 0.76535 0.8665 0.0
C657 C 0.16144 0.80603 0.89816 0.0
C658 C 0.16682 0.80395 0.86495 0.0
H659 H 0.17724 0.79238 0.94516 0.0
H660 H 0.13949 0.81622 0.90733 0.0
C661 C 0.19581 0.79088 0.85414 0.0
C662 C 0.47596 0.9109 0.20069 0.0
C663 C 0.4783 0.94315 0.19151 0.0
H664 H 0.4594 0.86408 0.18803 0.0
C665 C 0.46065 0.95394 0.16484 0.0
H666 H 0.48898 0.90197 0.22137 0.0
C667 C 0.44347 0.93236 0.14594 0.0
C668 C 0.44384 0.89949 0.15317 0.0
H669 H 0.46143 0.97881 0.15756 0.0
H670 H 0.43177 0.94117 0.12444 0.0
C671 C 0.45887 0.88921 0.18164 0.0
C672 C 0.81478 0.27992 0.55697 0.0
C673 C 0.78271 0.27101 0.56046 0.0
H674 H 0.85595 0.30066 0.57926 0.0
C675 C 0.766 0.28139 0.58775 0.0
H676 H 0.82822 0.27261 0.53607 0.0
C677 C 0.78182 0.29767 0.61243 0.0
C678 C 0.81471 0.30368 0.61038 0.0
H679 H 0.7411 0.27537 0.59091 0.0
H680 H 0.76872 0.30347 0.63401 0.0
C681 C 0.83066 0.29607 0.58174 0.0
C682 C 0.97293 0.541 0.83722 0.0
C683 C 0.98907 0.54922 0.80902 0.0
H684 H 0.94479 0.5571 0.87657 0.0
C685 C 0.98573 0.58035 0.79677 0.0
H686 H 0.97454 0.51698 0.84691 0.0
C687 C 0.96864 0.60356 0.81394 0.0
C688 C 0.9545 0.59584 0.84345 0.0
H689 H -0.00227 0.58723 0.77493 0.0
H690 H 0.96801 0.62788 0.80497 0.0
C691 C 0.9557 0.56399 0.85415 0.0
C692 C 0.67405 0.68393 0.09452 0.0
C693 C 0.64126 0.68111 0.08789 0.0
H694 H 0.71784 0.70695 0.08281 0.0
C695 C 0.62868 0.69563 0.06011 0.0
H696 H 0.68457 0.67269 0.11549 0.0
C697 C 0.64781 0.71543 0.04135 0.0
C698 C 0.67976 0.72095 0.05011 0.0
H699 H 0.60353 0.6938 0.05423 0.0
H700 H 0.63697 0.72808 0.02139 0.0
C701 C 0.6931 0.70371 0.07586 0.0
C702 C 0.49863 0.42499 0.28384 0.0
C703 C 0.49033 0.45709 0.28971 0.0
H704 H 0.52784 0.38517 0.29776 0.0
C705 C 0.50898 0.47514 0.31129 0.0
H706 H 0.48497 0.41059 0.26705 0.0
C707 C 0.53372 0.46074 0.32863 0.0
C708 C 0.54018 0.4279 0.32496 0.0
H709 H 0.50361 0.50015 0.31585 0.0
H710 H 0.54637 0.47493 0.34637 0.0
C711 C 0.52334 0.4105 0.30134 0.0
C712 C 0.30985 0.25249 0.23283 0.0
C713 C 0.30637 0.22741 0.25491 0.0
H714 H 0.28712 0.29094 0.20762 0.0
C715 C 0.27549 0.21867 0.26447 0.0
H716 H 0.33325 0.25956 0.22464 0.0
C717 C 0.24898 0.23663 0.25463 0.0
C718 C 0.25285 0.26371 0.23512 0.0
H719 H 0.27192 0.19916 0.28113 0.0
H720 H 0.22579 0.23053 0.26412 0.0
C721 C 0.28334 0.27047 0.22302 0.0
C722 C 0.82409 0.18726 0.77176 0.0
C723 C 0.79172 0.19482 0.76651 0.0
H724 H 0.87269 0.20096 0.76474 0.0
C725 C 0.78373 0.22495 0.75376 0.0
H726 H 0.83105 0.16434 0.78178 0.0
C727 C 0.80761 0.24585 0.74383 0.0
C728 C 0.83996 0.23713 0.74662 0.0
H729 H 0.75904 0.23165 0.74962 0.0
H730 H 0.80064 0.26815 0.73248 0.0
C731 C 0.84799 0.20826 0.76197 0.0
C732 C 0.97726 0.57697 0.01347 0.0
C733 C 0.98825 0.60872 0.01202 0.0
H734 H 0.98701 0.52891 0.02826 0.0
C735 C 0.01578 0.61712 0.02949 0.0
H736 H 0.95582 0.56979 0.00071 0.0
C737 C 0.03366 0.59362 0.04543 0.0
C738 C 0.02432 0.56129 0.04413 0.0
H739 H 0.02468 0.64144 0.0292 0.0
H740 H 0.05592 0.60052 0.05682 0.0
C741 C -0.0049 0.5535 0.0294 0.0
C742 C 0.69627 0.73059 0.27489 0.0
C743 C 0.68887 0.75983 0.28996 0.0
H744 H 0.67914 0.69136 0.24661 0.0
C745 C 0.65661 0.76884 0.29285 0.0
H746 H 0.7208 0.7227 0.27256 0.0
C747 C 0.63265 0.75085 0.27786 0.0
C748 C 0.64053 0.72354 0.25973 0.0
H749 H 0.65 0.79104 0.30464 0.0
H750 H 0.60831 0.75963 0.27867 0.0
C751 C 0.67234 0.71266 0.25986 0.0
C752 C 0.51549 0.46397 0.48344 0.0
C753 C 0.49132 0.45624 0.50526 0.0
H754 H 0.55006 0.44636 0.45018 0.0
C755 C 0.48743 0.42407 0.51429 0.0
H756 H 0.51933 0.48854 0.47617 0.0
C757 C 0.50514 0.39985 0.49944 0.0
C758 C 0.52694 0.40737 0.47517 0.0
H759 H 0.46927 0.41735 0.53134 0.0
H760 H 0.50013 0.37517 0.50546 0.0
C761 C 0.53306 0.43975 0.46845 0.0
C762 C 0.16625 0.65632 0.7442 0.0
C763 C 0.19676 0.65615 0.73055 0.0
H764 H 0.1264 0.68429 0.75945 0.0
C765 C 0.20922 0.68484 0.71845 0.0
H766 H 0.15589 0.63446 0.75335 0.0
C767 C 0.1924 0.71365 0.72225 0.0
C768 C 0.16275 0.71409 0.73785 0.0
H769 H 0.23269 0.68534 0.70774 0.0
H770 H 0.20329 0.7357 0.71427 0.0
C771 C 0.14932 0.68492 0.74761 0.0
C772 C 0.4712 0.94236 0.9888 0.0
C773 C 0.48157 0.91074 0.98329 0.0
H774 H 0.48072 -0.00776 0.98282 0.0
C775 C 0.50721 0.90538 0.96241 0.0
H776 H 0.45115 0.94728 0.00435 0.0
C777 C 0.52419 0.93124 0.94999 0.0
C778 C 0.51577 0.96288 0.95822 0.0
H779 H 0.51556 0.8813 0.95739 0.0
H780 H 0.54521 0.92631 0.9358 0.0
C781 C 0.48809 0.96819 0.97632 0.0
C782 C 0.00265 0.03964 0.44758 0.0
C783 C 0.97436 0.04899 0.43184 0.0
H784 H 0.04005 0.05301 0.48003 0.0
C785 C 0.96552 0.08156 0.43231 0.0
H786 H 0.01042 0.01486 0.44738 0.0
C787 C 0.98245 0.10348 0.45124 0.0
C788 C 0.0086 0.09325 0.46991 0.0
H789 H 0.9441 0.08972 0.42007 0.0
H790 H 0.97366 0.12786 0.45292 0.0
C791 C 0.0196 0.06155 0.46645 0.0
loop_
_geom_bond_atom_site_label_1
_geom_bond_atom_site_label_2
_geom_bond_distance
_geom_bond_site_symmetry_2
_ccdc_geom_bond_type
C0 O1 1.160 . S
C0 O7 1.185 . S
O1 C0 1.160 . S
O2 Zn3 1.899 . S
O2 C10 1.284 . S
Zn3 O2 1.899 . S
Zn3 O4 2.032 . S
Zn3 O7 2.086 . S
Zn3 O12 1.977 . S
O4 Zn3 2.032 . S
O4 C8 1.278 . S
C5 O6 1.203 . S
C5 O12 1.267 . S
O6 C5 1.203 . S
O7 C0 1.185 . S
O7 Zn3 2.086 . S
C8 O4 1.278 . S
C8 O9 1.211 . S
O9 C8 1.211 . S
C10 O2 1.284 . S
C10 O11 1.273 . S
O11 C10 1.273 . S
O12 Zn3 1.977 . S
O12 C5 1.267 . S
C13 O14 1.160 1_655 S
C13 O20 1.185 . S
O14 C13 1.160 1_455 S
O15 Zn16 1.899 . S
O15 C23 1.304 . S
Zn16 O15 1.899 . S
Zn16 O17 2.032 . S
Zn16 O20 2.086 . S
Zn16 O25 1.977 . S
O17 Zn16 2.032 . S
O17 C21 1.278 . S
C18 O19 1.203 . S
C18 O25 1.267 . S
O19 C18 1.203 . S
O20 C13 1.185 . S
O20 Zn16 2.086 . S
C21 O17 1.278 . S
C21 O22 1.211 . S
O22 C21 1.211 . S
C23 O15 1.304 . S
C23 O24 1.263 1_565 S
O24 C23 1.263 1_545 S
O25 Zn16 1.977 . S
O25 C18 1.267 . S
C26 O27 1.160 . S
C26 O33 1.185 . S
O27 C26 1.160 . S
O28 Zn29 1.899 . S
O28 C36 1.284 . S
Zn29 O28 1.899 . S
Zn29 O30 2.032 . S
Zn29 O33 2.086 . S
Zn29 O38 1.977 . S
O30 Zn29 2.032 . S
O30 C34 1.278 . S
C31 O32 1.203 . S
C31 O38 1.267 . S
O32 C31 1.203 . S
O33 C26 1.185 . S
O33 Zn29 2.086 . S
C34 O30 1.278 . S
C34 O35 1.211 . S
O35 C34 1.211 . S
C36 O28 1.284 . S
C36 O37 1.273 . S
O37 C36 1.273 . S
O38 Zn29 1.977 . S
O38 C31 1.267 . S
C39 O40 1.160 . S
C39 O46 1.185 . S
O40 C39 1.160 . S
O41 Zn42 1.899 . S
O41 C49 1.304 . S
Zn42 O41 1.899 . S
Zn42 O43 2.032 . S
Zn42 O46 2.086 . S
Zn42 O51 1.977 . S
O43 Zn42 2.032 . S
O43 C47 1.278 . S
C44 O45 1.203 . S
C44 O51 1.267 . S
O45 C44 1.203 . S
O46 C39 1.185 . S
O46 Zn42 2.086 . S
C47 O43 1.278 . S
C47 O48 1.211 . S
O48 C47 1.211 . S
C49 O41 1.304 . S
C49 O50 1.263 1_545 S
O50 C49 1.263 1_565 S
O51 Zn42 1.977 . S
O51 C44 1.267 . S
C52 O53 1.160 . S
C52 O59 1.185 . S
O53 C52 1.160 . S
O54 Zn55 1.899 . S
O54 C62 1.284 . S
Zn55 O54 1.899 . S
Zn55 O56 2.032 . S
Zn55 O59 2.086 . S
Zn55 O64 1.977 . S
O56 Zn55 2.032 . S
O56 C60 1.278 . S
C57 O58 1.203 . S
C57 O64 1.267 . S
O58 C57 1.203 . S
O59 C52 1.185 . S
O59 Zn55 2.086 . S
C60 O56 1.278 . S
C60 O61 1.211 . S
O61 C60 1.211 . S
C62 O54 1.284 . S
C62 O63 1.273 . S
O63 C62 1.273 . S
O64 Zn55 1.977 . S
O64 C57 1.267 . S
C65 O66 1.160 1_455 S
C65 O72 1.185 . S
O66 C65 1.160 1_655 S
O67 Zn68 1.899 . S
O67 C75 1.284 . S
Zn68 O67 1.899 . S
Zn68 O69 2.032 . S
Zn68 O72 2.086 . S
Zn68 O77 1.977 . S
O69 Zn68 2.032 . S
O69 C73 1.278 . S
C70 O71 1.203 . S
C70 O77 1.267 . S
O71 C70 1.203 . S
O72 C65 1.185 . S
O72 Zn68 2.086 . S
C73 O69 1.278 . S
C73 O74 1.211 . S
O74 C73 1.211 . S
C75 O67 1.284 . S
C75 O76 1.273 . S
O76 C75 1.273 . S
O77 Zn68 1.977 . S
O77 C70 1.267 . S
C78 O79 1.160 . S
C78 O85 1.185 . S
O79 C78 1.160 . S
O80 Zn81 1.899 . S
O80 C88 1.284 . S
Zn81 O80 1.899 . S
Zn81 O82 2.032 . S
Zn81 O85 2.086 . S
Zn81 O90 1.977 . S
O82 Zn81 2.032 . S
O82 C86 1.278 . S
C83 O84 1.203 . S
C83 O90 1.267 . S
O84 C83 1.203 . S
O85 C78 1.185 . S
O85 Zn81 2.086 . S
C86 O82 1.278 . S
C86 O87 1.211 . S
O87 C86 1.211 . S
C88 O80 1.284 . S
C88 O89 1.273 . S
O89 C88 1.273 . S
O90 Zn81 1.977 . S
O90 C83 1.267 . S
C91 O92 1.160 . S
C91 O98 1.185 . S
O92 C91 1.160 . S
O93 Zn94 1.899 . S
O93 C101 1.284 . S
Zn94 O93 1.899 . S
Zn94 O95 2.032 . S
Zn94 O98 2.086 . S
Zn94 O103 1.977 . S
O95 Zn94 2.032 . S
O95 C99 1.278 . S
C96 O97 1.203 . S
C96 O103 1.267 . S
O97 C96 1.203 . S
O98 C91 1.185 . S
O98 Zn94 2.086 . S
C99 O95 1.278 . S
C99 O100 1.211 . S
O100 C99 1.211 . S
C101 O93 1.284 . S
C101 O102 1.273 . S
O102 C101 1.273 . S
O103 Zn94 1.977 . S
O103 C96 1.267 . S
C104 O105 1.160 . S
C104 O111 1.185 . S
O105 C104 1.160 . S
O106 Zn107 1.899 . S
O106 C114 1.284 . S
Zn107 O106 1.899 . S
Zn107 O108 2.032 . S
Zn107 O111 2.086 . S
Zn107 O116 1.977 . S
O108 Zn107 2.032 . S
O108 C112 1.278 . S
C109 O110 1.203 . S
C109 O116 1.267 . S
O110 C109 1.203 . S
O111 C104 1.185 . S
O111 Zn107 2.086 . S
C112 O108 1.278 . S
C112 O113 1.211 . S
O113 C112 1.211 . S
C114 O106 1.284 . S
C114 O115 1.273 . S
O115 C114 1.273 . S
O116 Zn107 1.977 . S
O116 C109 1.267 . S
C117 O118 1.160 . S
C117 O124 1.185 . S
O118 C117 1.160 . S
O119 Zn120 1.899 . S
O119 C127 1.304 . S
Zn120 O119 1.899 . S
Zn120 O121 2.032 . S
Zn120 O124 2.086 . S
Zn120 O129 1.977 . S
O121 Zn120 2.032 . S
O121 C125 1.278 . S
C122 O123 1.203 . S
C122 O129 1.267 . S
O123 C122 1.203 . S
O124 C117 1.185 . S
O124 Zn120 2.086 . S
C125 O121 1.278 . S
C125 O126 1.211 . S
O126 C125 1.211 . S
C127 O119 1.304 . S
C127 O128 1.263 1_455 S
O128 C127 1.263 1_655 S
O129 Zn120 1.977 . S
O129 C122 1.267 . S
C130 O131 1.160 . S
C130 O137 1.185 . S
O131 C130 1.160 . S
O132 Zn133 1.899 . S
O132 C140 1.284 . S
Zn133 O132 1.899 . S
Zn133 O134 2.032 . S
Zn133 O137 2.086 . S
Zn133 O142 1.977 . S
O134 Zn133 2.032 . S
O134 C138 1.278 . S
C135 O136 1.203 . S
C135 O142 1.267 . S
O136 C135 1.203 . S
O137 C130 1.185 . S
O137 Zn133 2.086 . S
C138 O134 1.278 . S
C138 O139 1.211 . S
O139 C138 1.211 . S
C140 O132 1.284 . S
C140 O141 1.273 . S
O141 C140 1.273 . S
O142 Zn133 1.977 . S
O142 C135 1.267 . S
C143 O144 1.160 1_554 S
C143 O150 1.185 . S
O144 C143 1.160 1_556 S
O145 Zn146 1.899 . S
O145 C153 1.284 . S
Zn146 O145 1.899 . S
Zn146 O147 2.032 . S
Zn146 O150 2.086 . S
Zn146 O155 1.977 . S
O147 Zn146 2.032 . S
O147 C151 1.278 . S
C148 O149 1.203 . S
C148 O155 1.267 . S
O149 C148 1.203 . S
O150 C143 1.185 . S
O150 Zn146 2.086 . S
C151 O147 1.278 . S
C151 O152 1.211 . S
O152 C151 1.211 . S
C153 O145 1.284 . S
C153 O154 1.273 . S
O154 C153 1.273 . S
O155 Zn146 1.977 . S
O155 C148 1.267 . S
C156 O157 1.160 . S
C156 O163 1.185 . S
O157 C156 1.160 . S
O158 Zn159 1.899 . S
O158 C166 1.284 . S
Zn159 O158 1.899 . S
Zn159 O160 2.032 . S
Zn159 O163 2.086 . S
Zn159 O168 1.977 . S
O160 Zn159 2.032 . S
O160 C164 1.278 . S
C161 O162 1.203 . S
C161 O168 1.267 . S
O162 C161 1.203 . S
O163 C156 1.185 . S
O163 Zn159 2.086 . S
C164 O160 1.278 . S
C164 O165 1.211 . S
O165 C164 1.211 . S
C166 O158 1.284 . S
C166 O167 1.273 . S
O167 C166 1.273 . S
O168 Zn159 1.977 . S
O168 C161 1.267 . S
C169 O170 1.160 1_556 S
C169 O176 1.185 . S
O170 C169 1.160 1_554 S
O171 Zn172 1.899 . S
O171 C179 1.304 . S
Zn172 O171 1.899 . S
Zn172 O173 2.032 . S
Zn172 O176 2.086 . S
Zn172 O181 1.977 . S
O173 Zn172 2.032 . S
O173 C177 1.278 . S
C174 O175 1.203 . S
C174 O181 1.267 . S
O175 C174 1.203 . S
O176 C169 1.185 . S
O176 Zn172 2.086 . S
C177 O173 1.278 . S
C177 O178 1.211 . S
O178 C177 1.211 . S
C179 O171 1.304 . S
C179 O180 1.263 1_655 S
O180 C179 1.263 1_455 S
O181 Zn172 1.977 . S
O181 C174 1.267 . S
C182 O183 1.160 . S
C182 O189 1.185 . S
O183 C182 1.160 . S
O184 Zn185 1.899 . S
O184 C192 1.284 . S
Zn185 O184 1.899 . S
Zn185 O186 2.032 . S
Zn185 O189 2.086 . S
Zn185 O194 1.977 . S
O186 Zn185 2.032 . S
O186 C190 1.278 . S
C187 O188 1.203 . S
C187 O194 1.267 . S
O188 C187 1.203 . S
O189 C182 1.185 . S
O189 Zn185 2.086 . S
C190 O186 1.278 . S
C190 O191 1.211 . S
O191 C190 1.211 . S
C192 O184 1.284 . S
C192 O193 1.273 . S
O193 C192 1.273 . S
O194 Zn185 1.977 . S
O194 C187 1.267 . S
C195 O196 1.160 . S
C195 O202 1.185 . S
O196 C195 1.160 . S
O197 Zn198 1.899 . S
O197 C205 1.284 . S
Zn198 O197 1.899 . S
Zn198 O199 2.032 . S
Zn198 O202 2.086 . S
Zn198 O207 1.977 . S
O199 Zn198 2.032 . S
O199 C203 1.278 . S
C200 O201 1.203 . S
C200 O207 1.267 . S
O201 C200 1.203 . S
O202 C195 1.185 . S
O202 Zn198 2.086 . S
C203 O199 1.278 . S
C203 O204 1.211 . S
O204 C203 1.211 . S
C205 O197 1.284 . S
C205 O206 1.273 . S
O206 C205 1.273 . S
O207 Zn198 1.977 . S
O207 C200 1.267 . S
C208 O209 1.160 . S
C208 O215 1.185 . S
O209 C208 1.160 . S
O210 Zn211 1.899 . S
O210 C218 1.284 . S
Zn211 O210 1.899 . S
Zn211 O212 2.032 . S
Zn211 O215 2.086 . S
Zn211 O220 1.977 . S
O212 Zn211 2.032 . S
O212 C216 1.278 . S
C213 O214 1.203 . S
C213 O220 1.267 . S
O214 C213 1.203 . S
O215 C208 1.185 . S
O215 Zn211 2.086 . S
C216 O212 1.278 . S
C216 O217 1.211 . S
O217 C216 1.211 . S
C218 O210 1.284 . S
C218 O219 1.273 . S
O219 C218 1.273 . S
O220 Zn211 1.977 . S
O220 C213 1.267 . S
C221 O222 1.160 . S
C221 O228 1.185 . S
O222 C221 1.160 . S
O223 Zn224 1.899 . S
O223 C231 1.284 . S
Zn224 O223 1.899 . S
Zn224 O225 2.032 . S
Zn224 O228 2.086 . S
Zn224 O233 1.977 . S
O225 Zn224 2.032 . S
O225 C229 1.278 . S
C226 O227 1.203 . S
C226 O233 1.267 . S
O227 C226 1.203 . S
O228 C221 1.185 . S
O228 Zn224 2.086 . S
C229 O225 1.278 . S
C229 O230 1.211 . S
O230 C229 1.211 . S
C231 O223 1.284 . S
C231 O232 1.273 . S
O232 C231 1.273 . S
O233 Zn224 1.977 . S
O233 C226 1.267 . S
C234 O235 1.160 . S
C234 O241 1.185 . S
O235 C234 1.160 . S
O236 Zn237 1.899 . S
O236 C244 1.304 . S
Zn237 O236 1.899 . S
Zn237 O238 2.032 . S
Zn237 O241 2.086 . S
Zn237 O246 1.977 . S
O238 Zn237 2.032 . S
O238 C242 1.278 . S
C239 O240 1.203 . S
C239 O246 1.267 . S
O240 C239 1.203 . S
O241 C234 1.185 . S
O241 Zn237 2.086 . S
C242 O238 1.278 . S
C242 O243 1.211 . S
O243 C242 1.211 . S
C244 O236 1.304 . S
C244 O245 1.263 1_554 S
O245 C244 1.263 1_556 S
O246 Zn237 1.977 . S
O246 C239 1.267 . S
C247 O248 1.160 . S
C247 O254 1.185 . S
O248 C247 1.160 . S
O249 Zn250 1.899 . S
O249 C257 1.284 . S
Zn250 O249 1.899 . S
Zn250 O251 2.032 . S
Zn250 O254 2.086 . S
Zn250 O259 1.977 . S
O251 Zn250 2.032 . S
O251 C255 1.278 . S
C252 O253 1.203 . S
C252 O259 1.267 . S
O253 C252 1.203 . S
O254 C247 1.185 . S
O254 Zn250 2.086 . S
C255 O251 1.278 . S
C255 O256 1.211 . S
O256 C255 1.211 . S
C257 O249 1.284 . S
C257 O258 1.273 . S
O258 C257 1.273 . S
O259 Zn250 1.977 . S
O259 C252 1.267 . S
C260 O261 1.160 . S
C260 O267 1.185 . S
O261 C260 1.160 . S
O262 Zn263 1.899 . S
O262 C270 1.284 . S
Zn263 O262 1.899 . S
Zn263 O264 2.032 . S
Zn263 O267 2.086 . S
Zn263 O272 1.977 . S
O264 Zn263 2.032 . S
O264 C268 1.278 . S
C265 O266 1.203 . S
C265 O272 1.267 . S
O266 C265 1.203 . S
O267 C260 1.185 . S
O267 Zn263 2.086 . S
C268 O264 1.278 . S
C268 O269 1.211 . S
O269 C268 1.211 . S
C270 O262 1.284 . S
C270 O271 1.273 . S
O271 C270 1.273 . S
O272 Zn263 1.977 . S
O272 C265 1.267 . S
C273 O274 1.160 . S
C273 O280 1.185 . S
O274 C273 1.160 . S
O275 Zn276 1.899 . S
O275 C283 1.284 . S
Zn276 O275 1.899 . S
Zn276 O277 2.032 . S
Zn276 O280 2.086 . S
Zn276 O285 1.977 . S
O277 Zn276 2.032 . S
O277 C281 1.278 . S
C278 O279 1.203 . S
C278 O285 1.267 . S
O279 C278 1.203 . S
O280 C273 1.185 . S
O280 Zn276 2.086 . S
C281 O277 1.278 . S
C281 O282 1.211 . S
O282 C281 1.211 . S
C283 O275 1.284 . S
C283 O284 1.273 . S
O284 C283 1.273 . S
O285 Zn276 1.977 . S
O285 C278 1.267 . S
C286 O287 1.160 1_565 S
C286 O293 1.185 . S
O287 C286 1.160 1_545 S
O288 Zn289 1.899 . S
O288 C296 1.304 . S
Zn289 O288 1.899 . S
Zn289 O290 2.032 . S
Zn289 O293 2.086 . S
Zn289 O298 1.977 . S
O290 Zn289 2.032 . S
O290 C294 1.278 . S
C291 O292 1.203 . S
C291 O298 1.267 . S
O292 C291 1.203 . S
O293 C286 1.185 . S
O293 Zn289 2.086 . S
C294 O290 1.278 . S
C294 O295 1.211 . S
O295 C294 1.211 . S
C296 O288 1.304 . S
C296 O297 1.263 1_556 S
O297 C296 1.263 1_554 S
O298 Zn289 1.977 . S
O298 C291 1.267 . S
C299 O300 1.160 1_545 S
C299 O306 1.185 . S
O300 C299 1.160 1_565 S
O301 Zn302 1.899 . S
O301 C309 1.284 . S
Zn302 O301 1.899 . S
Zn302 O303 2.032 . S
Zn302 O306 2.086 . S
Zn302 O311 1.977 . S
O303 Zn302 2.032 . S
O303 C307 1.278 . S
C304 O305 1.203 . S
C304 O311 1.267 . S
O305 C304 1.203 . S
O306 C299 1.185 . S
O306 Zn302 2.086 . S
C307 O303 1.278 . S
C307 O308 1.211 . S
O308 C307 1.211 . S
C309 O301 1.284 . S
C309 O310 1.273 . S
O310 C309 1.273 . S
O311 Zn302 1.977 . S
O311 C304 1.267 . S
C312 C313 1.387 . S
C312 H316 0.950 . S
C312 C321 1.390 . S
C313 C312 1.387 . S
C313 C315 1.387 . S
H314 C321 0.950 . S
C315 C313 1.387 . S
C315 C317 1.390 . S
C315 H319 0.950 . S
H316 C312 0.950 . S
C317 C315 1.390 . S
C317 C318 1.387 . S
C317 H320 0.950 . S
C318 C317 1.387 . S
C318 C321 1.387 . S
H319 C315 0.950 . S
H320 C317 0.950 . S
C321 C312 1.390 . S
C321 H314 0.950 . S
C321 C318 1.387 . S
C322 C323 1.387 . S
C322 H326 0.950 . S
C322 C331 1.390 . S
C323 C322 1.387 . S
C323 C325 1.387 . S
H324 C331 0.950 . S
C325 C323 1.387 . S
C325 C327 1.390 . S
C325 H329 0.950 . S
H326 C322 0.950 . S
C327 C325 1.390 . S
C327 C328 1.387 . S
C327 H330 0.950 . S
C328 C327 1.387 . S
C328 C331 1.387 . S
H329 C325 0.950 . S
H330 C327 0.950 . S
C331 C322 1.390 . S
C331 H324 0.950 . S
C331 C328 1.387 . S
C332 C333 1.387 . S
C332 H336 0.950 . S
C332 C341 1.390 1_556 S
C333 C332 1.387 . S
C333 C335 1.387 . S
H334 C341 0.950 . S
C335 C333 1.387 . S
C335 C337 1.390 . S
C335 H339 0.950 . S
H336 C332 0.950 . S
C337 C335 1.390 . S
C337 C338 1.387 . S
C337 H340 0.950 . S
C338 C337 1.387 . S
C338 C341 1.387 1_556 S
H339 C335 0.950 . S
H340 C337 0.950 . S
C341 C332 1.390 1_554 S
C341 H334 0.950 . S
C341 C338 1.387 1_554 S
C342 C343 1.387 . S
C342 H346 0.950 . S
C342 C351 1.390 . S
C343 C342 1.387 . S
C343 C345 1.387 . S
H344 C351 0.950 . S
C345 C343 1.387 . S
C345 C347 1.390 . S
C345 H349 0.950 . S
H346 C342 0.950 . S
C347 C345 1.390 . S
C347 C348 1.387 . S
C347 H350 0.950 . S
C348 C347 1.387 . S
C348 C351 1.387 . S
H349 C345 0.950 . S
H350 C347 0.950 . S
C351 C342 1.390 . S
C351 H344 0.950 . S
C351 C348 1.387 . S
C352 C353 1.387 . S
C352 H356 0.950 . S
C352 C361 1.390 . S
C353 C352 1.387 . S
C353 C355 1.387 . S
H354 C361 0.950 . S
C355 C353 1.387 . S
C355 C357 1.390 . S
C355 H359 0.950 . S
H356 C352 0.950 . S
C357 C355 1.390 . S
C357 C358 1.387 . S
C357 H360 0.950 . S
C358 C357 1.387 . S
C358 C361 1.387 . S
H359 C355 0.950 . S
H360 C357 0.950 . S
C361 C352 1.390 . S
C361 H354 0.950 . S
C361 C358 1.387 . S
C362 C363 1.387 . S
C362 H366 0.950 . S
C362 C371 1.390 . S
C363 C362 1.387 . S
C363 C365 1.387 . S
H364 C371 0.950 . S
C365 C363 1.387 . S
C365 C367 1.390 . S
C365 H369 0.950 . S
H366 C362 0.950 . S
C367 C365 1.390 . S
C367 C368 1.387 . S
C367 H370 0.950 . S
C368 C367 1.387 . S
C368 C371 1.387 . S
H369 C365 0.950 . S
H370 C367 0.950 . S
C371 C362 1.390 . S
C371 H364 0.950 . S
C371 C368 1.387 . S
C372 C373 1.387 . S
C372 H376 0.950 . S
C372 C381 1.390 1_554 S
C373 C372 1.387 . S
C373 C375 1.387 . S
H374 C381 0.950 . S
C375 C373 1.387 . S
C375 C377 1.390 . S
C375 H379 0.950 . S
H376 C372 0.950 . S
C377 C375 1.390 . S
C377 C378 1.387 . S
C377 H380 0.950 . S
C378 C377 1.387 . S
C378 C381 1.387 1_554 S
H379 C375 0.950 . S
H380 C377 0.950 . S
C381 C372 1.390 1_556 S
C381 H374 0.950 . S
C381 C378 1.387 1_556 S
C382 C383 1.387 . S
C382 H386 0.950 . S
C382 C391 1.390 . S
C383 C382 1.387 . S
C383 C385 1.387 . S
H384 C391 0.950 . S
C385 C383 1.387 . S
C385 C387 1.390 . S
C385 H389 0.950 . S
H386 C382 0.950 . S
C387 C385 1.390 . S
C387 C388 1.387 . S
C387 H390 0.950 . S
C388 C387 1.387 . S
C388 C391 1.387 . S
H389 C385 0.950 . S
H390 C387 0.950 . S
C391 C382 1.390 . S
C391 H384 0.950 . S
C391 C388 1.387 . S
C392 C393 1.387 . S
C392 H396 0.950 . S
C392 C401 1.390 . S
C393 C392 1.387 . S
C393 C395 1.387 . S
H394 C401 0.950 . S
C395 C393 1.387 . S
C395 C397 1.390 . S
C395 H399 0.950 . S
H396 C392 0.950 . S
C397 C395 1.390 . S
C397 C398 1.387 . S
C397 H400 0.950 . S
C398 C397 1.387 . S
C398 C401 1.387 . S
H399 C395 0.950 . S
H400 C397 0.950 . S
C401 C392 1.390 . S
C401 H394 0.950 . S
C401 C398 1.387 . S
C402 C403 1.387 . S
C402 H406 0.941 1_545 S
C402 C411 1.390 . S
C403 C402 1.387 . S
C403 C405 1.387 . S
H404 C411 0.950 . S
C405 C403 1.387 . S
C405 C407 1.390 . S
C405 H409 0.950 . S
H406 C402 0.941 1_565 S
C407 C405 1.390 . S
C407 C408 1.387 . S
C407 H410 0.950 . S
C408 C407 1.387 . S
C408 C411 1.387 . S
H409 C405 0.950 . S
H410 C407 0.950 . S
C411 C402 1.390 . S
C411 H404 0.950 . S
C411 C408 1.387 . S
C412 C413 1.387 . S
C412 H416 0.950 . S
C412 C421 1.390 . S
C413 C412 1.387 . S
C413 C415 1.387 . S
H414 C421 0.950 . S
C415 C413 1.387 . S
C415 C417 1.390 . S
C415 H419 0.950 . S
H416 C412 0.950 . S
C417 C415 1.390 . S
C417 C418 1.387 . S
C417 H420 0.951 1_565 S
C418 C417 1.387 . S
C418 C421 1.387 . S
H419 C415 0.950 . S
H420 C417 0.951 1_545 S
C421 C412 1.390 . S
C421 H414 0.950 . S
C421 C418 1.387 . S
C422 C423 1.387 . S
C422 H426 0.950 . S
C422 C431 1.390 . S
C423 C422 1.387 . S
C423 C425 1.387 . S
H424 C431 0.950 . S
C425 C423 1.387 . S
C425 C427 1.390 . S
C425 H429 0.950 . S
H426 C422 0.950 . S
C427 C425 1.390 . S
C427 C428 1.387 . S
C427 H430 0.950 . S
C428 C427 1.387 . S
C428 C431 1.387 . S
H429 C425 0.950 . S
H430 C427 0.950 . S
C431 C422 1.390 . S
C431 H424 0.950 . S
C431 C428 1.387 . S
C432 C433 1.387 . S
C432 H436 0.950 . S
C432 C441 1.390 . S
C433 C432 1.387 . S
C433 C435 1.387 . S
H434 C441 0.950 . S
C435 C433 1.387 . S
C435 C437 1.390 . S
C435 H439 0.950 . S
H436 C432 0.950 . S
C437 C435 1.390 . S
C437 C438 1.387 . S
C437 H440 0.950 . S
C438 C437 1.387 . S
C438 C441 1.387 . S
H439 C435 0.950 . S
H440 C437 0.950 . S
C441 C432 1.390 . S
C441 H434 0.950 . S
C441 C438 1.387 . S
C442 C443 1.387 1_545 S
C442 H446 0.950 . S
C442 C451 1.390 . S
C443 C442 1.387 1_565 S
C443 C445 1.387 . S
H444 C451 0.950 . S
C445 C443 1.387 . S
C445 C447 1.390 1_565 S
C445 H449 0.950 . S
H446 C442 0.950 . S
C447 C445 1.390 1_545 S
C447 C448 1.387 . S
C447 H450 0.950 . S
C448 C447 1.387 . S
C448 C451 1.387 . S
H449 C445 0.950 . S
H450 C447 0.950 . S
C451 C442 1.390 . S
C451 H444 0.950 . S
C451 C448 1.387 . S
C452 C453 1.387 . S
C452 H456 0.950 . S
C452 C461 1.390 1_556 S
C453 C452 1.387 . S
C453 C455 1.387 . S
H454 C461 0.950 . S
C455 C453 1.387 . S
C455 C457 1.390 . S
C455 H459 0.950 . S
H456 C452 0.950 . S
C457 C455 1.390 . S
C457 C458 1.387 1_556 S
C457 H460 0.950 . S
C458 C457 1.387 1_554 S
C458 C461 1.387 . S
H459 C455 0.950 . S
H460 C457 0.950 . S
C461 C452 1.390 1_554 S
C461 H454 0.950 . S
C461 C458 1.387 . S
C462 C463 1.387 . S
C462 H466 0.950 . S
C462 C471 1.390 1_545 S
C463 C462 1.387 . S
C463 C465 1.387 1_545 S
H464 C471 0.950 . S
C465 C463 1.387 1_565 S
C465 C467 1.390 . S
C465 H469 0.950 . S
H466 C462 0.950 . S
C467 C465 1.390 . S
C467 C468 1.387 . S
C467 H470 0.950 . S
C468 C467 1.387 . S
C468 C471 1.387 . S
H469 C465 0.950 . S
H470 C467 0.950 . S
C471 C462 1.390 1_565 S
C471 H464 0.950 . S
C471 C468 1.387 . S
C472 C473 1.387 . S
C472 H476 0.950 . S
C472 C481 1.390 . S
C473 C472 1.387 . S
C473 C475 1.387 . S
H474 C481 0.950 . S
C475 C473 1.387 . S
C475 C477 1.390 . S
C475 H479 0.950 . S
H476 C472 0.950 . S
C477 C475 1.390 . S
C477 C478 1.387 . S
C477 H480 0.950 . S
C478 C477 1.387 . S
C478 C481 1.387 . S
H479 C475 0.950 . S
H480 C477 0.950 . S
C481 C472 1.390 . S
C481 H474 0.950 . S
C481 C478 1.387 . S
C482 C483 1.387 . S
C482 H486 0.950 . S
C482 C491 1.390 . S
C483 C482 1.387 . S
C483 C485 1.387 . S
H484 C491 0.950 . S
C485 C483 1.387 . S
C485 C487 1.390 . S
C485 H489 0.950 . S
H486 C482 0.950 . S
C487 C485 1.390 . S
C487 C488 1.387 . S
C487 H490 0.950 . S
C488 C487 1.387 . S
C488 C491 1.387 . S
H489 C485 0.950 . S
H490 C487 0.950 . S
C491 C482 1.390 . S
C491 H484 0.950 . S
C491 C488 1.387 . S
C492 C493 1.387 . S
C492 H496 0.950 . S
C492 C501 1.390 1_556 S
C493 C492 1.387 . S
C493 C495 1.387 1_556 S
H494 C501 0.950 . S
C495 C493 1.387 1_554 S
C495 C497 1.390 . S
C495 H499 0.950 . S
H496 C492 0.950 . S
C497 C495 1.390 . S
C497 C498 1.387 . S
C497 H500 0.950 . S
C498 C497 1.387 . S
C498 C501 1.387 . S
H499 C495 0.950 . S
H500 C497 0.950 . S
C501 C492 1.390 1_554 S
C501 H494 0.950 . S
C501 C498 1.387 . S
C502 C503 1.387 . S
C502 H506 0.950 . S
C502 C511 1.390 . S
C503 C502 1.387 . S
C503 C505 1.387 . S
H504 C511 0.950 . S
C505 C503 1.387 . S
C505 C507 1.390 . S
C505 H509 0.950 . S
H506 C502 0.950 . S
C507 C505 1.390 . S
C507 C508 1.387 . S
C507 H510 0.950 . S
C508 C507 1.387 . S
C508 C511 1.387 . S
H509 C505 0.950 . S
H510 C507 0.950 . S
C511 C502 1.390 . S
C511 H504 0.950 . S
C511 C508 1.387 . S
C512 C513 1.387 . S
C512 H516 0.950 . S
C512 C521 1.390 . S
C513 C512 1.387 . S
C513 C515 1.387 . S
H514 C521 0.950 . S
C515 C513 1.387 . S
C515 C517 1.390 . S
C515 H519 0.950 . S
H516 C512 0.950 . S
C517 C515 1.390 . S
C517 C518 1.387 . S
C517 H520 0.950 . S
C518 C517 1.387 . S
C518 C521 1.387 . S
H519 C515 0.950 . S
H520 C517 0.950 . S
C521 C512 1.390 . S
C521 H514 0.950 . S
C521 C518 1.387 . S
C522 C523 1.387 . S
C522 H526 0.950 . S
C522 C531 1.390 1_455 S
C523 C522 1.387 . S
C523 C525 1.387 1_455 S
H524 C531 0.950 1_455 S
C525 C523 1.387 1_655 S
C525 C527 1.390 . S
C525 H529 0.950 . S
H526 C522 0.950 . S
C527 C525 1.390 . S
C527 C528 1.387 . S
C527 H530 0.950 . S
C528 C527 1.387 . S
C528 C531 1.387 . S
H529 C525 0.950 . S
H530 C527 0.950 . S
C531 C522 1.390 1_655 S
C531 H524 0.950 1_655 S
C531 C528 1.387 . S
C532 C533 1.387 . S
C532 H536 0.950 . S
C532 C541 1.390 1_655 S
C533 C532 1.387 . S
C533 C535 1.387 1_655 S
H534 C541 0.950 . S
C535 C533 1.387 1_455 S
C535 C537 1.390 . S
C535 H539 0.950 . S
H536 C532 0.950 . S
C537 C535 1.390 . S
C537 C538 1.387 . S
C537 H540 0.950 . S
C538 C537 1.387 . S
C538 C541 1.387 . S
H539 C535 0.950 . S
H540 C537 0.950 . S
C541 C532 1.390 1_455 S
C541 H534 0.950 . S
C541 C538 1.387 . S
C542 C543 1.387 . S
C542 H546 0.950 . S
C542 C551 1.390 . S
C543 C542 1.387 . S
C543 C545 1.387 . S
H544 C551 0.950 . S
C545 C543 1.387 . S
C545 C547 1.390 . S
C545 H549 0.950 . S
H546 C542 0.950 . S
C547 C545 1.390 . S
C547 C548 1.387 . S
C547 H550 0.950 . S
C548 C547 1.387 . S
C548 C551 1.387 . S
H549 C545 0.950 . S
H550 C547 0.950 . S
C551 C542 1.390 . S
C551 H544 0.950 . S
C551 C548 1.387 . S
C552 C553 1.387 . S
C552 H556 0.950 . S
C552 C561 1.390 . S
C553 C552 1.387 . S
C553 C555 1.387 . S
H554 C561 0.950 . S
C555 C553 1.387 . S
C555 C557 1.390 . S
C555 H559 0.950 . S
H556 C552 0.950 . S
C557 C555 1.390 . S
C557 C558 1.387 . S
C557 H560 0.950 . S
C558 C557 1.387 . S
C558 C561 1.387 . S
H559 C555 0.950 . S
H560 C557 0.950 . S
C561 C552 1.390 . S
C561 H554 0.950 . S
C561 C558 1.387 . S
C562 C563 1.387 . S
C562 H566 0.950 . S
C562 C571 1.390 . S
C563 C562 1.387 . S
C563 C565 1.387 . S
H564 C571 0.950 . S
C565 C563 1.387 . S
C565 C567 1.390 . S
C565 H569 0.950 . S
H566 C562 0.950 . S
C567 C565 1.390 . S
C567 C568 1.387 . S
C567 H570 0.950 . S
C568 C567 1.387 . S
C568 C571 1.387 . S
H569 C565 0.950 . S
H570 C567 0.950 . S
C571 C562 1.390 . S
C571 H564 0.950 . S
C571 C568 1.387 . S
C572 C573 1.387 . S
C572 H576 0.950 . S
C572 C581 1.390 . S
C573 C572 1.387 . S
C573 C575 1.387 . S
H574 C581 0.950 . S
C575 C573 1.387 . S
C575 C577 1.390 . S
C575 H579 0.950 . S
H576 C572 0.950 . S
C577 C575 1.390 . S
C577 C578 1.387 . S
C577 H580 0.950 . S
C578 C577 1.387 . S
C578 C581 1.387 . S
H579 C575 0.950 . S
H580 C577 0.950 . S
C581 C572 1.390 . S
C581 H574 0.950 . S
C581 C578 1.387 . S
C582 C583 1.387 . S
C582 H586 0.950 . S
C582 C591 1.390 . S
C583 C582 1.387 . S
C583 C585 1.387 . S
H584 C591 0.924 1_556 S
C585 C583 1.387 . S
C585 C587 1.390 . S
C585 H589 0.950 . S
H586 C582 0.950 . S
C587 C585 1.390 . S
C587 C588 1.387 . S
C587 H590 0.950 . S
C588 C587 1.387 . S
C588 C591 1.387 . S
H589 C585 0.950 . S
H590 C587 0.950 . S
C591 C582 1.390 . S
C591 H584 0.924 1_554 S
C591 C588 1.387 . S
C592 C593 1.387 . S
C592 H596 0.950 . S
C592 C601 1.390 . S
C593 C592 1.387 . S
C593 C595 1.387 . S
H594 C601 0.950 . S
C595 C593 1.387 . S
C595 C597 1.390 . S
C595 H599 0.950 . S
H596 C592 0.950 . S
C597 C595 1.390 . S
C597 C598 1.387 . S
C597 H600 0.950 . S
C598 C597 1.387 . S
C598 C601 1.387 . S
H599 C595 0.950 . S
H600 C597 0.950 . S
C601 C592 1.390 . S
C601 H594 0.950 . S
C601 C598 1.387 . S
C602 C603 1.387 . S
C602 H606 0.950 1_556 S
C602 C611 1.390 . S
C603 C602 1.387 . S
C603 C605 1.387 . S
H604 C611 0.950 . S
C605 C603 1.387 . S
C605 C607 1.390 . S
C605 H609 0.950 . S
H606 C602 0.950 1_554 S
C607 C605 1.390 . S
C607 C608 1.387 . S
C607 H610 0.950 . S
C608 C607 1.387 . S
C608 C611 1.387 . S
H609 C605 0.950 . S
H610 C607 0.950 . S
C611 C602 1.390 . S
C611 H604 0.950 . S
C611 C608 1.387 . S
C612 C613 1.387 . S
C612 H616 0.950 . S
C612 C621 1.390 . S
C613 C612 1.387 . S
C613 C615 1.387 . S
H614 C621 0.950 . S
C615 C613 1.387 . S
C615 C617 1.390 . S
C615 H619 0.950 . S
H616 C612 0.950 . S
C617 C615 1.390 . S
C617 C618 1.387 . S
C617 H620 0.950 . S
C618 C617 1.387 . S
C618 C621 1.387 . S
H619 C615 0.950 . S
H620 C617 0.950 . S
C621 C612 1.390 . S
C621 H614 0.950 . S
C621 C618 1.387 . S
C622 C623 1.387 . S
C622 H626 0.950 . S
C622 C631 1.390 . S
C623 C622 1.387 . S
C623 C625 1.387 . S
H624 C631 0.950 . S
C625 C623 1.387 . S
C625 C627 1.390 . S
C625 H629 0.950 . S
H626 C622 0.950 . S
C627 C625 1.390 . S
C627 C628 1.387 . S
C627 H630 0.950 . S
C628 C627 1.387 . S
C628 C631 1.387 . S
H629 C625 0.950 . S
H630 C627 0.950 . S
C631 C622 1.390 . S
C631 H624 0.950 . S
C631 C628 1.387 . S
C632 C633 1.387 . S
C632 H636 0.950 . S
C632 C641 1.390 . S
C633 C632 1.387 . S
C633 C635 1.387 . S
H634 C641 0.950 . S
C635 C633 1.387 . S
C635 C637 1.390 . S
C635 H639 0.950 . S
H636 C632 0.950 . S
C637 C635 1.390 . S
C637 C638 1.387 . S
C637 H640 0.950 . S
C638 C637 1.387 . S
C638 C641 1.387 . S
H639 C635 0.950 . S
H640 C637 0.950 . S
C641 C632 1.390 . S
C641 H634 0.950 . S
C641 C638 1.387 . S
C642 C643 1.387 . S
C642 H646 0.950 . S
C642 C651 1.390 . S
C643 C642 1.387 . S
C643 C645 1.387 . S
H644 C651 0.950 . S
C645 C643 1.387 . S
C645 C647 1.390 . S
C645 H649 0.950 . S
H646 C642 0.950 . S
C647 C645 1.390 . S
C647 C648 1.387 . S
C647 H650 0.950 . S
C648 C647 1.387 . S
C648 C651 1.387 . S
H649 C645 0.950 . S
H650 C647 0.950 . S
C651 C642 1.390 . S
C651 H644 0.950 . S
C651 C648 1.387 . S
C652 C653 1.387 . S
C652 H656 0.950 . S
C652 C661 1.390 . S
C653 C652 1.387 . S
C653 C655 1.387 . S
H654 C661 0.950 . S
C655 C653 1.387 . S
C655 C657 1.390 . S
C655 H659 0.950 . S
H656 C652 0.950 . S
C657 C655 1.390 . S
C657 C658 1.387 . S
C657 H660 0.950 . S
C658 C657 1.387 . S
C658 C661 1.387 . S
H659 C655 0.950 . S
H660 C657 0.950 . S
C661 C652 1.390 . S
C661 H654 0.950 . S
C661 C658 1.387 . S
C662 C663 1.387 . S
C662 H666 0.950 . S
C662 C671 1.390 . S
C663 C662 1.387 . S
C663 C665 1.387 . S
H664 C671 0.950 . S
C665 C663 1.387 . S
C665 C667 1.390 . S
C665 H669 0.950 . S
H666 C662 0.950 . S
C667 C665 1.390 . S
C667 C668 1.387 . S
C667 H670 0.950 . S
C668 C667 1.387 . S
C668 C671 1.387 . S
H669 C665 0.950 . S
H670 C667 0.950 . S
C671 C662 1.390 . S
C671 H664 0.950 . S
C671 C668 1.387 . S
C672 C673 1.387 . S
C672 H676 0.950 . S
C672 C681 1.390 . S
C673 C672 1.387 . S
C673 C675 1.387 . S
H674 C681 0.950 . S
C675 C673 1.387 . S
C675 C677 1.390 . S
C675 H679 0.950 . S
H676 C672 0.950 . S
C677 C675 1.390 . S
C677 C678 1.387 . S
C677 H680 0.950 . S
C678 C677 1.387 . S
C678 C681 1.387 . S
H679 C675 0.950 . S
H680 C677 0.950 . S
C681 C672 1.390 . S
C681 H674 0.950 . S
C681 C678 1.387 . S
C682 C683 1.387 . S
C682 H686 0.950 . S
C682 C691 1.390 . S
C683 C682 1.387 . S
C683 C685 1.387 . S
H684 C691 0.950 . S
C685 C683 1.387 . S
C685 C687 1.390 . S
C685 H689 0.950 . S
H686 C682 0.950 . S
C687 C685 1.390 . S
C687 C688 1.387 . S
C687 H690 0.950 . S
C688 C687 1.387 . S
C688 C691 1.387 . S
H689 C685 0.950 . S
H690 C687 0.950 . S
C691 C682 1.390 . S
C691 H684 0.950 . S
C691 C688 1.387 . S
C692 C693 1.387 . S
C692 H696 0.950 . S
C692 C701 1.390 . S
C693 C692 1.387 . S
C693 C695 1.387 . S
H694 C701 0.950 . S
C695 C693 1.387 . S
C695 C697 1.390 . S
C695 H699 0.950 . S
H696 C692 0.950 . S
C697 C695 1.390 . S
C697 C698 1.387 . S
C697 H700 0.950 . S
C698 C697 1.387 . S
C698 C701 1.387 . S
H699 C695 0.950 . S
H700 C697 0.950 . S
C701 C692 1.390 . S
C701 H694 0.950 . S
C701 C698 1.387 . S
C702 C703 1.387 . S
C702 H706 0.950 . S
C702 C711 1.390 . S
C703 C702 1.387 . S
C703 C705 1.387 . S
H704 C711 0.950 . S
C705 C703 1.387 . S
C705 C707 1.390 . S
C705 H709 0.950 . S
H706 C702 0.950 . S
C707 C705 1.390 . S
C707 C708 1.387 . S
C707 H710 0.950 . S
C708 C707 1.387 . S
C708 C711 1.387 . S
H709 C705 0.950 . S
H710 C707 0.950 . S
C711 C702 1.390 . S
C711 H704 0.950 . S
C711 C708 1.387 . S
C712 C713 1.387 . S
C712 H716 0.950 . S
C712 C721 1.390 . S
C713 C712 1.387 . S
C713 C715 1.387 . S
H714 C721 0.950 . S
C715 C713 1.387 . S
C715 C717 1.390 . S
C715 H719 0.950 . S
H716 C712 0.950 . S
C717 C715 1.390 . S
C717 C718 1.387 . S
C717 H720 0.950 . S
C718 C717 1.387 . S
C718 C721 1.387 . S
H719 C715 0.950 . S
H720 C717 0.950 . S
C721 C712 1.390 . S
C721 H714 0.950 . S
C721 C718 1.387 . S
C722 C723 1.387 . S
C722 H726 0.950 . S
C722 C731 1.390 . S
C723 C722 1.387 . S
C723 C725 1.387 . S
H724 C731 0.950 . S
C725 C723 1.387 . S
C725 C727 1.390 . S
C725 H729 0.950 . S
H726 C722 0.950 . S
C727 C725 1.390 . S
C727 C728 1.387 . S
C727 H730 0.950 . S
C728 C727 1.387 . S
C728 C731 1.387 . S
H729 C725 0.950 . S
H730 C727 0.950 . S
C731 C722 1.390 . S
C731 H724 0.950 . S
C731 C728 1.387 . S
C732 C733 1.387 . S
C732 H736 0.950 . S
C732 C741 1.390 . S
C733 C732 1.387 . S
C733 C735 1.387 . S
H734 C741 0.950 . S
C735 C733 1.387 . S
C735 C737 1.390 . S
C735 H739 0.950 . S
H736 C732 0.950 . S
C737 C735 1.390 . S
C737 C738 1.387 . S
C737 H740 0.950 . S
C738 C737 1.387 . S
C738 C741 1.387 . S
H739 C735 0.950 . S
H740 C737 0.950 . S
C741 C732 1.390 . S
C741 H734 0.950 . S
C741 C738 1.387 . S
C742 C743 1.387 . S
C742 H746 0.950 . S
C742 C751 1.390 . S
C743 C742 1.387 . S
C743 C745 1.387 . S
H744 C751 0.950 . S
C745 C743 1.387 . S
C745 C747 1.390 . S
C745 H749 0.950 . S
H746 C742 0.950 . S
C747 C745 1.390 . S
C747 C748 1.387 . S
C747 H750 0.950 . S
C748 C747 1.387 . S
C748 C751 1.387 . S
H749 C745 0.950 . S
H750 C747 0.950 . S
C751 C742 1.390 . S
C751 H744 0.950 . S
C751 C748 1.387 . S
C752 C753 1.387 . S
C752 H756 0.950 . S
C752 C761 1.390 . S
C753 C752 1.387 . S
C753 C755 1.387 . S
H754 C761 0.950 . S
C755 C753 1.387 . S
C755 C757 1.390 . S
C755 H759 0.950 . S
H756 C752 0.950 . S
C757 C755 1.390 . S
C757 C758 1.387 . S
C757 H760 0.950 . S
C758 C757 1.387 . S
C758 C761 1.387 . S
H759 C755 0.950 . S
H760 C757 0.950 . S
C761 C752 1.390 . S
C761 H754 0.950 . S
C761 C758 1.387 . S
C762 C763 1.387 . S
C762 H766 0.950 . S
C762 C771 1.390 . S
C763 C762 1.387 . S
C763 C765 1.387 . S
H764 C771 0.950 . S
C765 C763 1.387 . S
C765 C767 1.390 . S
C765 H769 0.950 . S
H766 C762 0.950 . S
C767 C765 1.390 . S
C767 C768 1.387 . S
C767 H770 0.950 . S
C768 C767 1.387 . S
C768 C771 1.387 . S
H769 C765 0.950 . S
H770 C767 0.950 . S
C771 C762 1.390 . S
C771 H764 0.950 . S
C771 C768 1.387 . S
C772 C773 1.387 . S
C772 H776 0.950 1_556 S
C772 C781 1.390 . S
C773 C772 1.387 . S
C773 C775 1.387 . S
H774 C781 0.950 . S
C775 C773 1.387 . S
C775 C777 1.390 . S
C775 H779 0.950 . S
H776 C772 0.950 1_554 S
C777 C775 1.390 . S
C777 C778 1.387 . S
C777 H780 0.950 . S
C778 C777 1.387 . S
C778 C781 1.387 . S
H779 C775 0.950 . S
H780 C777 0.950 . S
C781 C772 1.390 . S
C781 H774 0.950 . S
C781 C778 1.387 . S
C782 C783 1.387 . S
C782 H786 0.950 . S
C782 C791 1.390 . S
C783 C782 1.387 . S
C783 C785 1.387 . S
H784 C791 0.950 . S
C785 C783 1.387 . S
C785 C787 1.390 . S
C785 H789 0.950 . S
H786 C782 0.950 . S
C787 C785 1.390 . S
C787 C788 1.387 . S
C787 H790 0.950 . S
C788 C787 1.387 . S
C788 C791 1.387 . S
H789 C785 0.950 . S
H790 C787 0.950 . S
C791 C782 1.390 . S
C791 H784 0.950 . S
C791 C788 1.387 . S
C313 C117 1.296 . S
C318 C0 1.298 . S
C323 C13 1.300 1_455 S
C328 C130 1.298 . S
C333 C26 1.296 . S
C338 C143 1.296 1_556 S
C343 C39 1.300 . S
C348 C104 1.299 . S
C353 C52 1.300 . S
C358 C195 1.301 . S
C363 C156 1.299 . S
C368 C65 1.298 1_655 S
C373 C78 1.296 . S
C378 C169 1.296 1_554 S
C383 C182 1.297 . S
C388 C91 1.299 . S
C393 C208 1.300 . S
C398 C234 1.298 . S
C403 C286 1.299 1_545 S
C408 C221 1.298 . S
C413 C247 1.300 . S
C418 C299 1.298 1_565 S
C423 C273 1.299 . S
C428 C260 1.298 . S
C433 C268 1.546 . S
C438 C8 1.545 . S
C443 C21 1.545 . S
C448 C229 1.546 . S
C453 C34 1.544 . S
C458 C242 1.546 . S
C463 C47 1.546 . S
C468 C255 1.544 . S
C473 C60 1.546 . S
C478 C307 1.544 . S
C483 C281 1.547 . S
C488 C73 1.544 . S
C493 C294 1.544 . S
C498 C86 1.546 . S
C503 C216 1.546 . S
C508 C99 1.546 . S
C513 C203 1.544 . S
C518 C112 1.545 . S
C523 C125 1.544 . S
C528 C164 1.546 . S
C533 C177 1.544 . S
C538 C138 1.547 . S
C543 C190 1.547 . S
C548 C151 1.545 . S
C553 C5 1.023 . S
C558 C218 1.247 . S
C563 C309 1.246 1_565 S
C568 C18 1.031 . S
C573 C283 1.247 . S
C578 C31 1.023 . S
C583 C44 1.023 . S
C588 C296 1.235 1_544 S
C593 C57 1.030 . S
C598 C231 1.246 . S
C603 C244 1.235 1_556 S
C608 C70 1.023 . S
C613 C257 1.247 . S
C618 C83 1.023 . S
C623 C270 1.247 . S
C628 C96 1.029 . S
C633 C10 1.246 . S
C638 C109 1.030 . S
C643 C23 1.236 1_445 S
C648 C122 1.024 . S
C653 C36 1.247 . S
C658 C135 1.023 . S
C663 C49 1.234 1_565 S
C668 C148 1.031 . S
C673 C62 1.246 . S
C678 C161 1.031 . S
C683 C75 1.247 1_655 S
C688 C174 1.023 . S
C693 C187 1.024 . S
C698 C88 1.247 . S
C703 C101 1.246 . S
C708 C200 1.031 . S
C713 C114 1.245 . S
C718 C213 1.029 . S
C723 C226 1.031 . S
C728 C166 1.246 . S
C733 C179 1.235 1_454 S
C738 C239 1.023 . S
C743 C252 1.023 . S
C748 C192 1.246 . S
C753 C265 1.023 . S
C758 C205 1.247 . S
C763 C278 1.025 . S
C768 C140 1.247 . S
C773 C153 1.247 1_556 S
C778 C291 1.025 . S
C783 C304 1.025 . S
C788 C127 1.236 1_655 S
