# Generated by pormake.
# Topology ukk, (4)-cn, num edge types: 1
# Building blocks:
#     Node 0, Type 0, BuildingBlock: CEKHIL_clean_sbu_0, # of connection points: 4
#     Node 1, Type 0, BuildingBlock: CEKHIL_clean_sbu_0, # of connection points: 4
#     Node 2, Type 0, BuildingBlock: CEKHIL_clean_sbu_0, # of connection points: 4
#     Node 3, Type 0, BuildingBlock: CEKHIL_clean_sbu_0, # of connection points: 4
#     Node 4, Type 0, BuildingBlock: CEKHIL_clean_sbu_0, # of connection points: 4
#     Node 5, Type 0, BuildingBlock: CEKHIL_clean_sbu_0, # of connection points: 4
#     Node 6, Type 0, BuildingBlock: CEKHIL_clean_sbu_0, # of connection points: 4
#     Node 7, Type 0, BuildingBlock: CEKHIL_clean_sbu_0, # of connection points: 4
#     Node 8, Type 0, BuildingBlock: CEKHIL_clean_sbu_0, # of connection points: 4
#     Node 9, Type 0, BuildingBlock: CEKHIL_clean_sbu_0, # of connection points: 4
#     Node 10, Type 0, BuildingBlock: CEKHIL_clean_sbu_0, # of connection points: 4
#     Node 11, Type 0, BuildingBlock: CEKHIL_clean_sbu_0, # of connection points: 4
#     Node 12, Type 0, BuildingBlock: CEKHIL_clean_sbu_0, # of connection points: 4
#     Node 13, Type 0, BuildingBlock: CEKHIL_clean_sbu_0, # of connection points: 4
#     Node 14, Type 0, BuildingBlock: CEKHIL_clean_sbu_0, # of connection points: 4
#     Node 15, Type 0, BuildingBlock: CEKHIL_clean_sbu_0, # of connection points: 4
#     Edge 16, Type (0, 0), BuildingBlock: UVAHIK_clean_linker_0, # of connection points: 2
#     Edge 17, Type (0, 0), BuildingBlock: UVAHIK_clean_linker_0, # of connection points: 2
#     Edge 18, Type (0, 0), BuildingBlock: UVAHIK_clean_linker_0, # of connection points: 2
#     Edge 19, Type (0, 0), BuildingBlock: UVAHIK_clean_linker_0, # of connection points: 2
#     Edge 20, Type (0, 0), BuildingBlock: UVAHIK_clean_linker_0, # of connection points: 2
#     Edge 21, Type (0, 0), BuildingBlock: UVAHIK_clean_linker_0, # of connection points: 2
#     Edge 22, Type (0, 0), BuildingBlock: UVAHIK_clean_linker_0, # of connection points: 2
#     Edge 23, Type (0, 0), BuildingBlock: UVAHIK_clean_linker_0, # of connection points: 2
#     Edge 24, Type (0, 0), BuildingBlock: UVAHIK_clean_linker_0, # of connection points: 2
#     Edge 25, Type (0, 0), BuildingBlock: UVAHIK_clean_linker_0, # of connection points: 2
#     Edge 26, Type (0, 0), BuildingBlock: UVAHIK_clean_linker_0, # of connection points: 2
#     Edge 27, Type (0, 0), BuildingBlock: UVAHIK_clean_linker_0, # of connection points: 2
#     Edge 28, Type (0, 0), BuildingBlock: UVAHIK_clean_linker_0, # of connection points: 2
#     Edge 29, Type (0, 0), BuildingBlock: UVAHIK_clean_linker_0, # of connection points: 2
#     Edge 30, Type (0, 0), BuildingBlock: UVAHIK_clean_linker_0, # of connection points: 2
#     Edge 31, Type (0, 0), BuildingBlock: UVAHIK_clean_linker_0, # of connection points: 2
#     Edge 32, Type (0, 0), BuildingBlock: UVAHIK_clean_linker_0, # of connection points: 2
#     Edge 33, Type (0, 0), BuildingBlock: UVAHIK_clean_linker_0, # of connection points: 2
#     Edge 34, Type (0, 0), BuildingBlock: UVAHIK_clean_linker_0, # of connection points: 2
#     Edge 35, Type (0, 0), BuildingBlock: UVAHIK_clean_linker_0, # of connection points: 2
#     Edge 36, Type (0, 0), BuildingBlock: UVAHIK_clean_linker_0, # of connection points: 2
#     Edge 37, Type (0, 0), BuildingBlock: UVAHIK_clean_linker_0, # of connection points: 2
#     Edge 38, Type (0, 0), BuildingBlock: UVAHIK_clean_linker_0, # of connection points: 2
#     Edge 39, Type (0, 0), BuildingBlock: UVAHIK_clean_linker_0, # of connection points: 2
#     Edge 40, Type (0, 0), BuildingBlock: UVAHIK_clean_linker_0, # of connection points: 2
#     Edge 41, Type (0, 0), BuildingBlock: UVAHIK_clean_linker_0, # of connection points: 2
#     Edge 42, Type (0, 0), BuildingBlock: UVAHIK_clean_linker_0, # of connection points: 2
#     Edge 43, Type (0, 0), BuildingBlock: UVAHIK_clean_linker_0, # of connection points: 2
#     Edge 44, Type (0, 0), BuildingBlock: UVAHIK_clean_linker_0, # of connection points: 2
#     Edge 45, Type (0, 0), BuildingBlock: UVAHIK_clean_linker_0, # of connection points: 2
#     Edge 46, Type (0, 0), BuildingBlock: UVAHIK_clean_linker_0, # of connection points: 2
#     Edge 47, Type (0, 0), BuildingBlock: UVAHIK_clean_linker_0, # of connection points: 2
# Relax obj value: 0.120
# Max RMSD: 0.296
# Mean RMSD: 0.296
data_MOF--net-ukk--node1-CEKHIL_clean_sbu_0--edge1-UVAHIK_clean_linker_0
_symmetry_space_group_name_H-M    P1
_symmetry_Int_Tables_number       1
_symmetry_cell_setting            triclinic
loop_
_symmetry_equiv_pos_as_xyz
'x, y, z'
_cell_length_a     69.46314
_cell_length_b     69.51962
_cell_length_c     20.464379
_cell_angle_alpha  90.014877
_cell_angle_beta   89.972155
_cell_angle_gamma 90.014697
loop_
_atom_site_label
_atom_site_type_symbol
_atom_site_fract_x
_atom_site_fract_y
_atom_site_fract_z
_atom_type_partial_charge
Co0 Co 0.34858 0.11119 0.17722 0.0
O1 O 0.32166 0.11634 0.16651 0.0
O2 O 0.3429 0.11494 0.08572 0.0
C3 C 0.34528 0.08598 0.24456 0.0
O4 O 0.37732 0.10574 0.1701 0.0
Co5 Co 0.36698 0.11691 0.31347 0.0
O6 O 0.38889 0.10307 0.27243 0.0
C7 C 0.35846 0.15072 0.2332 0.0
C8 C 0.32516 0.11744 0.10434 0.0
C9 C 0.3908 0.10152 0.21071 0.0
O10 O 0.35387 0.13928 0.18664 0.0
O11 O 0.36269 0.14491 0.29083 0.0
O12 O 0.34345 0.08394 0.18185 0.0
O13 O 0.34691 0.10351 0.26552 0.0
Co14 Co 0.10724 0.6467 0.81458 0.0
O15 O 0.10315 0.67375 0.82739 0.0
O16 O 0.1088 0.65271 0.90651 0.0
C17 C 0.08275 0.64134 0.74595 0.0
O18 O 0.11141 0.61772 0.82016 0.0
Co19 Co 0.11929 0.63166 0.67868 0.0
O20 O 0.11282 0.60631 0.71747 0.0
C21 C 0.14838 0.65015 0.76114 0.0
C22 C 0.1056 0.67045 0.88926 0.0
C23 C 0.11168 0.60371 0.77902 0.0
O24 O 0.13563 0.65128 0.80635 0.0
O25 O 0.14464 0.64368 0.70393 0.0
O26 O 0.07985 0.64211 0.80856 0.0
O27 O 0.09979 0.64616 0.72598 0.0
Co28 Co 0.64982 0.88613 0.15821 0.0
O29 O 0.67698 0.88528 0.14122 0.0
O30 O 0.65421 0.88285 0.06574 0.0
C31 C 0.65031 0.91169 0.22497 0.0
O32 O 0.62045 0.88698 0.15712 0.0
Co33 Co 0.63434 0.87836 0.29727 0.0
O34 O 0.61059 0.89012 0.26124 0.0
C35 C 0.64711 0.84578 0.21703 0.0
C36 C 0.67245 0.88307 0.08013 0.0
C37 C 0.60735 0.89047 0.2 0.0
O38 O 0.64964 0.85754 0.16956 0.0
O39 O 0.64175 0.85112 0.27412 0.0
O40 O 0.65054 0.91391 0.16195 0.0
O41 O 0.65181 0.89415 0.24586 0.0
Co42 Co 0.88769 0.35588 0.83324 0.0
O43 O 0.88496 0.32863 0.84506 0.0
O44 O 0.88465 0.35019 0.92494 0.0
C45 C 0.91282 0.3548 0.76463 0.0
O46 O 0.89056 0.38492 0.83967 0.0
Co47 Co 0.87981 0.37367 0.69777 0.0
O48 O 0.89107 0.39715 0.73801 0.0
C49 C 0.84718 0.36181 0.77879 0.0
C50 C 0.88348 0.33226 0.90708 0.0
C51 C 0.89282 0.39903 0.7997 0.0
O52 O 0.85914 0.35857 0.82511 0.0
O53 O 0.85242 0.36643 0.72087 0.0
O54 O 0.91531 0.35328 0.82728 0.0
O55 O 0.89511 0.35474 0.7446 0.0
Co56 Co 0.35155 0.38973 0.07827 0.0
O57 O 0.32411 0.38863 0.08807 0.0
O58 O 0.34501 0.38795 0.16984 0.0
C59 C 0.35213 0.41421 0.00706 0.0
O60 O 0.38081 0.39116 0.0866 0.0
Co61 Co 0.36987 0.38 0.94464 0.0
O62 O 0.39319 0.39138 0.98502 0.0
C63 C 0.35634 0.34851 0.02851 0.0
C64 C 0.32716 0.3877 0.15053 0.0
C65 C 0.39501 0.39316 0.04668 0.0
O66 O 0.35263 0.36101 0.07281 0.0
O67 O 0.36235 0.35308 0.97138 0.0
O68 O 0.35045 0.41739 0.0693 0.0
O69 O 0.35134 0.39637 0.98895 0.0
Co70 Co 0.38537 0.64359 0.92014 0.0
O71 O 0.38698 0.67105 0.91247 0.0
O72 O 0.38355 0.6508 0.82944 0.0
C73 C 0.41003 0.6394 0.98886 0.0
O74 O 0.3838 0.61455 0.90929 0.0
Co75 Co 0.37417 0.62562 0.0527 0.0
O76 O 0.38289 0.60149 0.00976 0.0
C77 C 0.344 0.64288 0.97214 0.0
C78 C 0.38502 0.66846 0.84999 0.0
C79 C 0.38448 0.59997 0.94789 0.0
O80 O 0.3567 0.64534 0.92747 0.0
O81 O 0.34809 0.63645 0.02909 0.0
O82 O 0.41302 0.64145 0.92665 0.0
O83 O 0.39257 0.64235 0.00889 0.0
Co84 Co 0.64676 0.60845 0.08483 0.0
O85 O 0.67367 0.60636 0.10464 0.0
O86 O 0.65076 0.61294 0.17682 0.0
C87 C 0.64406 0.58194 0.02347 0.0
O88 O 0.61755 0.61103 0.08301 0.0
Co89 Co 0.63328 0.61548 0.94322 0.0
O90 O 0.60836 0.60624 0.97901 0.0
C91 C 0.6482 0.64801 0.01912 0.0
C92 C 0.66897 0.61039 0.16453 0.0
C93 C 0.60458 0.60756 0.03977 0.0
O94 O 0.65003 0.63663 0.06801 0.0
O95 O 0.64229 0.64244 0.96296 0.0
O96 O 0.64377 0.58082 0.08684 0.0
O97 O 0.64839 0.59861 0.99918 0.0
Co98 Co 0.60966 0.35131 0.91538 0.0
O99 O 0.60744 0.32394 0.90622 0.0
O100 O 0.6138 0.34419 0.82531 0.0
C101 C 0.58325 0.35628 0.97593 0.0
O102 O 0.61233 0.38038 0.90619 0.0
Co103 Co 0.6174 0.36885 0.05121 0.0
O104 O 0.60898 0.39282 0.00694 0.0
C105 C 0.64965 0.35187 0.97915 0.0
C106 C 0.61118 0.32655 0.8447 0.0
C107 C 0.60977 0.39471 0.94504 0.0
O108 O 0.63796 0.34864 0.93195 0.0
O109 O 0.6443 0.3592 0.03362 0.0
O110 O 0.58203 0.35433 0.91295 0.0
O111 O 0.59994 0.35257 0.00144 0.0
Co112 Co 0.84971 0.61332 0.68809 0.0
O113 O 0.82211 0.61555 0.68466 0.0
O114 O 0.84172 0.61788 0.59947 0.0
C115 C 0.85089 0.58691 0.75091 0.0
O116 O 0.8786 0.61116 0.6714 0.0
Co117 Co 0.87209 0.61817 0.81732 0.0
O118 O 0.89293 0.6053 0.76771 0.0
C119 C 0.85894 0.65263 0.74729 0.0
C120 C 0.82423 0.61809 0.62217 0.0
C121 C 0.89325 0.606 0.7056 0.0
O122 O 0.85197 0.64171 0.70268 0.0
O123 O 0.86738 0.64628 0.79852 0.0
O124 O 0.84772 0.58559 0.68854 0.0
O125 O 0.85128 0.60419 0.77479 0.0
Co126 Co 0.6092 0.14026 0.33617 0.0
O127 O 0.60634 0.16762 0.34543 0.0
O128 O 0.61344 0.14747 0.4259 0.0
C129 C 0.58281 0.13464 0.2765 0.0
O130 O 0.61265 0.11131 0.34599 0.0
Co131 Co 0.61688 0.12228 0.20088 0.0
O132 O 0.60944 0.09817 0.24628 0.0
C133 C 0.64902 0.14013 0.27138 0.0
C134 C 0.61035 0.16505 0.4068 0.0
C135 C 0.61049 0.09667 0.30823 0.0
O136 O 0.63737 0.14361 0.31853 0.0
O137 O 0.64372 0.13221 0.21782 0.0
O138 O 0.58167 0.13655 0.33949 0.0
O139 O 0.59936 0.13858 0.25038 0.0
Co140 Co 0.14482 0.38862 0.67673 0.0
O141 O 0.17196 0.3916 0.66315 0.0
O142 O 0.15049 0.3873 0.58438 0.0
C143 C 0.1412 0.41303 0.74713 0.0
O144 O 0.11566 0.38553 0.6724 0.0
Co145 Co 0.13039 0.37641 0.8129 0.0
O146 O 0.10456 0.38005 0.77401 0.0
C147 C 0.14702 0.3471 0.72721 0.0
C148 C 0.16841 0.38966 0.60127 0.0
C149 C 0.10181 0.3827 0.7131 0.0
O150 O 0.14815 0.36001 0.68263 0.0
O151 O 0.14146 0.35084 0.7855 0.0
O152 O 0.14168 0.41614 0.68464 0.0
O153 O 0.14522 0.39569 0.76592 0.0
Co154 Co 0.38624 0.85073 0.32683 0.0
O155 O 0.38949 0.82368 0.34138 0.0
O156 O 0.3814 0.84493 0.41748 0.0
C157 C 0.41305 0.85575 0.26865 0.0
O158 O 0.38234 0.87977 0.33047 0.0
Co159 Co 0.37924 0.86598 0.18761 0.0
O160 O 0.38695 0.8907 0.22838 0.0
C161 C 0.34692 0.84878 0.25865 0.0
C162 C 0.38497 0.82714 0.40182 0.0
C163 C 0.3853 0.89353 0.28965 0.0
O164 O 0.35827 0.84649 0.30742 0.0
O165 O 0.35244 0.85589 0.20404 0.0
O166 O 0.41364 0.85497 0.33199 0.0
O167 O 0.3968 0.85105 0.24176 0.0
Co168 Co 0.85529 0.88344 0.56084 0.0
O169 O 0.82764 0.88409 0.5654 0.0
O170 O 0.84709 0.8785 0.64917 0.0
C171 C 0.85942 0.91038 0.50242 0.0
O172 O 0.8843 0.8824 0.57601 0.0
Co173 Co 0.87616 0.87785 0.42918 0.0
O174 O 0.89865 0.88742 0.47911 0.0
C175 C 0.86045 0.84402 0.49637 0.0
C176 C 0.82961 0.88034 0.62721 0.0
C177 C 0.89926 0.88616 0.54117 0.0
O178 O 0.85451 0.85513 0.54216 0.0
O179 O 0.86925 0.8501 0.44543 0.0
O180 O 0.85661 0.91117 0.56506 0.0
O181 O 0.85743 0.8936 0.47551 0.0
Co182 Co 0.88657 0.14791 0.41857 0.0
O183 O 0.8852 0.1754 0.4118 0.0
O184 O 0.88272 0.15516 0.32845 0.0
C185 C 0.91256 0.14665 0.48342 0.0
O186 O 0.88791 0.11876 0.40703 0.0
Co187 Co 0.87942 0.12848 0.55198 0.0
O188 O 0.89146 0.10617 0.50755 0.0
C189 C 0.8463 0.14241 0.47702 0.0
C190 C 0.88273 0.17283 0.34955 0.0
C191 C 0.89175 0.10464 0.44554 0.0
O192 O 0.85802 0.14681 0.43097 0.0
O193 O 0.85183 0.1355 0.53189 0.0
O194 O 0.91437 0.14899 0.42077 0.0
O195 O 0.89511 0.14732 0.50599 0.0
Co196 Co 0.14379 0.10879 0.5802 0.0
O197 O 0.17119 0.10966 0.59171 0.0
O198 O 0.14974 0.11153 0.67177 0.0
C199 C 0.14316 0.08367 0.51165 0.0
O200 O 0.11455 0.10784 0.58706 0.0
Co201 Co 0.12629 0.11779 0.44527 0.0
O202 O 0.10236 0.1075 0.48535 0.0
C203 C 0.14048 0.14965 0.52571 0.0
C204 C 0.1677 0.11151 0.65372 0.0
C205 C 0.10037 0.10604 0.54708 0.0
O206 O 0.14315 0.13746 0.57178 0.0
O207 O 0.13508 0.1447 0.46827 0.0
O208 O 0.14452 0.08106 0.5743 0.0
O209 O 0.14435 0.10132 0.49161 0.0
Co210 Co 0.10968 0.85249 0.41698 0.0
O211 O 0.10654 0.8252 0.40672 0.0
O212 O 0.11149 0.8458 0.32572 0.0
C213 C 0.0849 0.85746 0.48487 0.0
O214 O 0.11277 0.88154 0.40829 0.0
Co215 Co 0.12063 0.86975 0.55048 0.0
O216 O 0.11154 0.89398 0.50947 0.0
C217 C 0.15086 0.85188 0.4707 0.0
C218 C 0.1088 0.82812 0.34452 0.0
C219 C 0.11112 0.89591 0.44757 0.0
O220 O 0.13823 0.84901 0.42604 0.0
O221 O 0.14678 0.85937 0.52617 0.0
O222 O 0.08217 0.85613 0.42227 0.0
O223 O 0.10208 0.85346 0.50553 0.0
C224 C 0.37402 0.91966 0.36515 0.0
C225 C 0.38562 0.91362 0.31272 0.0
C226 C 0.37151 0.93933 0.37769 0.0
C227 C 0.37253 0.98395 0.39776 0.0
H228 H 0.35977 0.0076 0.23168 0.0
C229 C 0.36085 0.0659 0.33136 0.0
C230 C 0.34585 0.06885 0.28647 0.0
C231 C 0.36487 0.04725 0.35387 0.0
C232 C 0.36322 0.0012 0.27852 0.0
H233 H 0.40546 0.92308 0.23752 0.0
H234 H 0.40134 0.95721 0.25997 0.0
H235 H 0.37097 0.97464 0.234 0.0
H236 H 0.32176 0.05557 0.23685 0.0
H237 H 0.32836 0.02335 0.27747 0.0
H238 H 0.36452 0.01099 0.44169 0.0
C239 C 0.39377 0.94689 0.29022 0.0
C240 C 0.36987 0.98239 0.2798 0.0
C241 C 0.3961 0.92738 0.2773 0.0
C242 C 0.33352 0.05356 0.27097 0.0
C243 C 0.33731 0.03515 0.2941 0.0
C244 C 0.36601 0.00308 0.39636 0.0
C245 C 0.38071 0.9531 0.33824 0.0
C246 C 0.37457 0.9735 0.33924 0.0
C247 C 0.35373 0.03162 0.33213 0.0
C248 C 0.36105 0.0117 0.3366 0.0
H249 H 0.36585 0.9093 0.39335 0.0
H250 H 0.36135 0.94373 0.41495 0.0
H251 H 0.37603 0.97737 0.44422 0.0
H252 H 0.3705 0.07752 0.34412 0.0
H253 H 0.37761 0.04484 0.38324 0.0
C254 C 0.05609 0.64477 0.66571 0.0
C255 C 0.06803 0.63291 0.7034 0.0
C256 C 0.03863 0.63765 0.64134 0.0
C257 C 0.00333 0.60279 0.69682 0.0
H258 H 0.97427 0.61796 0.54367 0.0
C259 C 0.92351 0.5875 0.69257 0.0
C260 C 0.91197 0.60306 0.67376 0.0
C261 C 0.94294 0.587 0.67546 0.0
C262 C 0.9822 0.61361 0.58672 0.0
H263 H 0.0721 0.60417 0.74142 0.0
H264 H 0.04226 0.59147 0.69653 0.0
H265 H 0.0088 0.62508 0.5497 0.0
H266 H 0.91109 0.62965 0.61898 0.0
H267 H 0.94531 0.6294 0.59178 0.0
H268 H 0.977 0.59245 0.73619 0.0
C269 C 0.04602 0.60631 0.68661 0.0
C270 C 0.00197 0.61764 0.59002 0.0
C271 C 0.06322 0.6135 0.71172 0.0
C272 C 0.91976 0.61743 0.63354 0.0
C273 C 0.93938 0.61722 0.61788 0.0
C274 C 0.98371 0.59893 0.6938 0.0
C275 C 0.03301 0.61857 0.65448 0.0
C276 C 0.01268 0.61246 0.64558 0.0
C277 C 0.9514 0.60244 0.64135 0.0
C278 C 0.97275 0.60449 0.63922 0.0
H279 H 0.05945 0.65989 0.65979 0.0
H280 H 0.02888 0.64749 0.61714 0.0
H281 H 0.01096 0.59906 0.74118 0.0
H282 H 0.9177 0.57619 0.72326 0.0
H283 H 0.95158 0.57504 0.69247 0.0
C284 C 0.65558 0.94621 0.2478 0.0
C285 C 0.64828 0.92842 0.26844 0.0
C286 C 0.65197 0.96281 0.28375 0.0
C287 C 0.64756 0.9951 0.38201 0.0
H288 H 0.59293 0.00651 0.38038 0.0
C289 C 0.62118 0.07297 0.39305 0.0
C290 C 0.61054 0.07713 0.33639 0.0
C291 C 0.62387 0.05387 0.41272 0.0
C292 C 0.60821 0.00344 0.38254 0.0
H293 H 0.63207 0.91376 0.34397 0.0
H294 H 0.62489 0.94329 0.40592 0.0
H295 H 0.60384 0.97337 0.36488 0.0
H296 H 0.59294 0.0649 0.25947 0.0
H297 H 0.59748 0.03173 0.29387 0.0
H298 H 0.65205 0.02529 0.3945 0.0
C299 C 0.63377 0.94417 0.3625 0.0
C300 C 0.61444 0.98448 0.37417 0.0
C301 C 0.63786 0.92735 0.32719 0.0
C302 C 0.60139 0.06207 0.30291 0.0
C303 C 0.60383 0.04308 0.32309 0.0
C304 C 0.64134 0.01401 0.39099 0.0
C305 C 0.64062 0.96206 0.34045 0.0
C306 C 0.63419 0.98035 0.3702 0.0
C307 C 0.61566 0.03871 0.37676 0.0
C308 C 0.62164 0.0185 0.38764 0.0
H309 H 0.66372 0.94737 0.20279 0.0
H310 H 0.65719 0.97644 0.26508 0.0
H311 H 0.66287 0.99223 0.37935 0.0
H312 H 0.62837 0.08434 0.4198 0.0
H313 H 0.63303 0.05089 0.45434 0.0
C314 C 0.07572 0.3898 0.63069 0.0
C315 C 0.0819 0.38072 0.68848 0.0
C316 C 0.05672 0.38741 0.60861 0.0
C317 C 0.01681 0.35405 0.61242 0.0
H318 H 0.98108 0.39604 0.64122 0.0
C319 C 0.94568 0.34433 0.73652 0.0
C320 C 0.92955 0.35547 0.72069 0.0
C321 C 0.9629 0.3467 0.70281 0.0
C322 C 0.99081 0.38428 0.63059 0.0
H323 H 0.07323 0.36167 0.76724 0.0
H324 H 0.04054 0.35721 0.72796 0.0
H325 H 0.0157 0.40253 0.63667 0.0
H326 H 0.91832 0.3773 0.65566 0.0
H327 H 0.94903 0.38202 0.59728 0.0
H328 H 0.99219 0.33556 0.61125 0.0
C329 C 0.05023 0.36631 0.70021 0.0
C330 C 0.01062 0.38801 0.62809 0.0
C331 C 0.0689 0.36902 0.72295 0.0
C332 C 0.93061 0.36848 0.66833 0.0
C333 C 0.94812 0.3712 0.63524 0.0
C334 C 0.99708 0.35033 0.61443 0.0
C335 C 0.04396 0.37546 0.64305 0.0
C336 C 0.02375 0.37275 0.62281 0.0
C337 C 0.96453 0.36055 0.65313 0.0
C338 C 0.98399 0.36524 0.62778 0.0
H339 H 0.08545 0.39889 0.60323 0.0
H340 H 0.05205 0.3947 0.56462 0.0
H341 H 0.02672 0.34208 0.60812 0.0
H342 H 0.94518 0.3342 0.77674 0.0
H343 H 0.97531 0.33848 0.71864 0.0
C344 C 0.36797 0.42984 0.91049 0.0
C345 C 0.35445 0.43037 0.9615 0.0
C346 C 0.37253 0.44672 0.87628 0.0
C347 C 0.38943 0.48803 0.87537 0.0
H348 H 0.3514 0.52688 0.83273 0.0
C349 C 0.39403 0.56556 0.95819 0.0
C350 C 0.38635 0.58046 0.92 0.0
C351 C 0.39359 0.54661 0.93595 0.0
C352 C 0.36233 0.51617 0.84264 0.0
H353 H 0.33401 0.44821 0.0135 0.0
H354 H 0.3414 0.47734 0.9528 0.0
H355 H 0.34184 0.49317 0.83872 0.0
H356 H 0.3732 0.58742 0.8269 0.0
H357 H 0.37197 0.55403 0.78854 0.0
H358 H 0.40957 0.51122 0.88459 0.0
C359 C 0.34865 0.46412 0.9393 0.0
C360 C 0.35683 0.49688 0.8463 0.0
C361 C 0.34452 0.4475 0.97441 0.0
C362 C 0.37919 0.57619 0.85742 0.0
C363 C 0.37846 0.55712 0.8355 0.0
C364 C 0.39491 0.50735 0.87223 0.0
C365 C 0.36315 0.4641 0.89148 0.0
C366 C 0.37009 0.4828 0.86618 0.0
C367 C 0.38524 0.5421 0.87531 0.0
C368 C 0.38116 0.5217 0.85931 0.0
H369 H 0.37583 0.41676 0.89993 0.0
H370 H 0.38383 0.4464 0.83981 0.0
H371 H 0.39993 0.47748 0.89107 0.0
H372 H 0.39985 0.56845 0.00633 0.0
H373 H 0.39871 0.53536 0.96816 0.0
C374 C 0.43622 0.64344 0.0706 0.0
C375 C 0.4253 0.63139 0.03 0.0
C376 C 0.45443 0.63751 0.09228 0.0
C377 C 0.49257 0.6093 0.02222 0.0
H378 H 0.5206 0.61742 0.18361 0.0
C379 C 0.57237 0.59251 0.02903 0.0
C380 C 0.5843 0.60603 0.05969 0.0
C381 C 0.55258 0.59266 0.04011 0.0
C382 C 0.51297 0.61517 0.13813 0.0
H383 H 0.42388 0.60339 0.9841 0.0
H384 H 0.45514 0.59278 0.02363 0.0
H385 H 0.4857 0.62312 0.18028 0.0
H386 H 0.58526 0.62964 0.12855 0.0
H387 H 0.5504 0.63063 0.14563 0.0
H388 H 0.51945 0.60246 0.97845 0.0
C389 C 0.4499 0.60681 0.03833 0.0
C390 C 0.49302 0.61835 0.13642 0.0
C391 C 0.43192 0.6128 0.01623 0.0
C392 C 0.57627 0.61907 0.10444 0.0
C393 C 0.55632 0.61955 0.11437 0.0
C394 C 0.51235 0.60637 0.02366 0.0
C395 C 0.4618 0.61951 0.07322 0.0
C396 C 0.48266 0.61534 0.07837 0.0
C397 C 0.54417 0.60674 0.08052 0.0
C398 C 0.52287 0.60917 0.08154 0.0
H399 H 0.43147 0.65798 0.08067 0.0
H400 H 0.46336 0.64762 0.11882 0.0
H401 H 0.48509 0.60743 0.9762 0.0
H402 H 0.57832 0.5821 0.99516 0.0
H403 H 0.54379 0.58215 0.01495 0.0
C404 C 0.61924 0.4197 0.86254 0.0
C405 C 0.60869 0.41438 0.91832 0.0
C406 C 0.62036 0.43907 0.84385 0.0
C407 C 0.59882 0.48725 0.87413 0.0
H408 H 0.65157 0.50552 0.87411 0.0
C409 C 0.62301 0.55356 0.00903 0.0
C410 C 0.63719 0.56577 0.9834 0.0
C411 C 0.61727 0.53724 0.97487 0.0
C412 C 0.63674 0.50072 0.87201 0.0
H413 H 0.58992 0.42474 0.99525 0.0
H414 H 0.59168 0.45827 0.9626 0.0
H415 H 0.64504 0.47129 0.85949 0.0
H416 H 0.65605 0.57106 0.9011 0.0
H417 H 0.64648 0.54171 0.84174 0.0
H418 H 0.59064 0.51648 0.89192 0.0
C419 C 0.59915 0.44767 0.93318 0.0
C420 C 0.63299 0.4811 0.86363 0.0
C421 C 0.59829 0.42848 0.95237 0.0
C422 C 0.6451 0.56177 0.92171 0.0
C423 C 0.63964 0.54507 0.88794 0.0
C424 C 0.60257 0.50681 0.88265 0.0
C425 C 0.61061 0.45328 0.87987 0.0
C426 C 0.61406 0.47407 0.86839 0.0
C427 C 0.62581 0.53256 0.91471 0.0
C428 C 0.62162 0.51355 0.88535 0.0
H429 H 0.62743 0.40908 0.83553 0.0
H430 H 0.62929 0.44301 0.80255 0.0
H431 H 0.58406 0.48227 0.87676 0.0
H432 H 0.61654 0.55647 0.05622 0.0
H433 H 0.60678 0.52776 0.99721 0.0
C434 C 0.42058 0.38721 0.13092 0.0
C435 C 0.4147 0.39593 0.07225 0.0
C436 C 0.44013 0.38671 0.14786 0.0
C437 C 0.4882 0.40678 0.10408 0.0
H438 H 0.50626 0.35439 0.12574 0.0
C439 C 0.55512 0.378 0.98157 0.0
C440 C 0.56712 0.36468 0.01293 0.0
C441 C 0.53864 0.38487 0.01239 0.0
C442 C 0.50153 0.36919 0.12161 0.0
H443 H 0.42432 0.41222 0.98811 0.0
H444 H 0.45815 0.41159 0.01774 0.0
H445 H 0.47209 0.3616 0.13907 0.0
H446 H 0.57184 0.34853 0.10192 0.0
H447 H 0.54226 0.36014 0.15572 0.0
H448 H 0.51743 0.41408 0.08191 0.0
C449 C 0.44785 0.40508 0.05079 0.0
C450 C 0.48194 0.37334 0.12925 0.0
C451 C 0.42846 0.40533 0.03347 0.0
C452 C 0.56275 0.35883 0.0769 0.0
C453 C 0.54588 0.36541 0.10747 0.0
C454 C 0.50774 0.40263 0.09632 0.0
C455 C 0.45402 0.39524 0.10701 0.0
C456 C 0.47495 0.392 0.11719 0.0
C457 C 0.53357 0.37834 0.075 0.0
C458 C 0.51442 0.38362 0.1017 0.0
H459 H 0.41026 0.37977 0.16155 0.0
H460 H 0.44447 0.37908 0.19159 0.0
H461 H 0.4833 0.42136 0.09572 0.0
H462 H 0.55829 0.38287 0.93242 0.0
H463 H 0.52934 0.39459 0.98568 0.0
C464 C 0.88808 0.42347 0.88821 0.0
C465 C 0.89523 0.4187 0.82599 0.0
C466 C 0.88664 0.44273 0.90742 0.0
C467 C 0.90019 0.49284 0.86413 0.0
H468 H 0.84639 0.5042 0.89696 0.0
C469 C 0.84671 0.55201 0.76978 0.0
C470 C 0.85489 0.56951 0.78959 0.0
C471 C 0.85219 0.53484 0.79935 0.0
C472 C 0.86155 0.50127 0.88944 0.0
H473 H 0.9082 0.43016 0.73782 0.0
H474 H 0.90589 0.46366 0.77154 0.0
H475 H 0.85775 0.47106 0.90376 0.0
H476 H 0.87459 0.583 0.8577 0.0
H477 H 0.88499 0.55252 0.90775 0.0
H478 H 0.90362 0.52301 0.84561 0.0
C479 C 0.90129 0.4526 0.8054 0.0
C480 C 0.86809 0.48233 0.89357 0.0
C481 C 0.90247 0.4334 0.78583 0.0
C482 C 0.86811 0.56966 0.84153 0.0
C483 C 0.87405 0.5523 0.87006 0.0
C484 C 0.89369 0.51186 0.86085 0.0
C485 C 0.89264 0.45751 0.86522 0.0
C486 C 0.88727 0.47781 0.87789 0.0
C487 C 0.86629 0.53474 0.84843 0.0
C488 C 0.87412 0.51606 0.87044 0.0
H489 H 0.88239 0.41245 0.92028 0.0
H490 H 0.88 0.44613 0.95391 0.0
H491 H 0.91507 0.48975 0.85217 0.0
H492 H 0.83643 0.55153 0.73 0.0
H493 H 0.84616 0.52149 0.78125 0.0
C494 C 0.55711 0.13467 0.19101 0.0
C495 C 0.56712 0.12516 0.24092 0.0
C496 C 0.53944 0.12737 0.16888 0.0
C497 C 0.50015 0.09923 0.23928 0.0
H498 H 0.47621 0.10391 0.06898 0.0
C499 C 0.42102 0.08265 0.21788 0.0
C500 C 0.41016 0.09686 0.18628 0.0
C501 C 0.44082 0.08144 0.2076 0.0
C502 C 0.48273 0.1025 0.11679 0.0
H503 H 0.56783 0.09992 0.30268 0.0
H504 H 0.53772 0.08667 0.26201 0.0
H505 H 0.5107 0.11074 0.08141 0.0
H506 H 0.41098 0.11995 0.11545 0.0
H507 H 0.44582 0.11846 0.09944 0.0
H508 H 0.47247 0.09193 0.27589 0.0
C509 C 0.54294 0.10003 0.24133 0.0
C510 C 0.50245 0.10642 0.12386 0.0
C511 C 0.56025 0.10751 0.26429 0.0
C512 C 0.41911 0.1088 0.14005 0.0
C513 C 0.43907 0.1079 0.13088 0.0
C514 C 0.48062 0.0954 0.23233 0.0
C515 C 0.53179 0.11038 0.19608 0.0
C516 C 0.51133 0.1049 0.18542 0.0
C517 C 0.45027 0.09484 0.16718 0.0
C518 C 0.47156 0.09708 0.17122 0.0
H519 H 0.56217 0.14839 0.17278 0.0
H520 H 0.53118 0.13571 0.1341 0.0
H521 H 0.50631 0.09848 0.28784 0.0
H522 H 0.41434 0.07317 0.25332 0.0
H523 H 0.44891 0.07078 0.23472 0.0
C524 C 0.11653 0.57896 0.86721 0.0
C525 C 0.11086 0.58367 0.80322 0.0
C526 C 0.11719 0.5597 0.88734 0.0
C527 C 0.10073 0.51058 0.84265 0.0
H528 H 0.15044 0.49392 0.90734 0.0
C529 C 0.15172 0.44455 0.78879 0.0
C530 C 0.13871 0.4292 0.7923 0.0
C531 C 0.14737 0.46212 0.818 0.0
C532 C 0.13636 0.49834 0.89029 0.0
H533 H 0.10043 0.572 0.71147 0.0
H534 H 0.10154 0.53866 0.74639 0.0
H535 H 0.14292 0.5282 0.90319 0.0
H536 H 0.11141 0.41957 0.83114 0.0
H537 H 0.10352 0.45062 0.88213 0.0
H538 H 0.09468 0.48088 0.82512 0.0
C539 C 0.10547 0.54973 0.78118 0.0
C540 C 0.132 0.51797 0.88832 0.0
C541 C 0.10505 0.56886 0.76089 0.0
C542 C 0.12175 0.43122 0.82883 0.0
C543 C 0.11722 0.44898 0.85745 0.0
C544 C 0.10506 0.49097 0.84479 0.0
C545 C 0.11184 0.54488 0.8442 0.0
C546 C 0.11451 0.52431 0.86148 0.0
C547 C 0.1297 0.46482 0.85024 0.0
C548 C 0.12328 0.4847 0.86564 0.0
H549 H 0.12108 0.59007 0.90095 0.0
H550 H 0.12214 0.55636 0.93622 0.0
H551 H 0.08701 0.51505 0.82263 0.0
H552 H 0.16477 0.44329 0.76005 0.0
H553 H 0.15719 0.47403 0.81058 0.0
C554 C 0.4364 0.88211 0.25499 0.0
C555 C 0.4291 0.86451 0.23274 0.0
C556 C 0.4541 0.88882 0.23277 0.0
C557 C 0.49494 0.88094 0.11855 0.0
H558 H 0.52453 0.89485 0.27204 0.0
C559 C 0.57869 0.88075 0.13397 0.0
C560 C 0.58725 0.89325 0.17931 0.0
C561 C 0.55863 0.88048 0.12642 0.0
C562 C 0.5165 0.89148 0.22816 0.0
H563 H 0.43371 0.84061 0.16693 0.0
H564 H 0.46533 0.85203 0.12925 0.0
H565 H 0.49055 0.88857 0.28255 0.0
H566 H 0.58211 0.91662 0.24695 0.0
H567 H 0.54736 0.91694 0.23139 0.0
H568 H 0.52138 0.88347 0.06463 0.0
C569 C 0.45713 0.86087 0.16278 0.0
C570 C 0.49691 0.88782 0.23427 0.0
C571 C 0.43909 0.85431 0.18428 0.0
C572 C 0.57576 0.90668 0.21229 0.0
C573 C 0.55586 0.90672 0.2037 0.0
C574 C 0.51472 0.88472 0.11229 0.0
C575 C 0.46517 0.87777 0.18924 0.0
C576 C 0.48585 0.88251 0.17974 0.0
C577 C 0.54694 0.89293 0.16347 0.0
C578 C 0.52572 0.89004 0.16722 0.0
H579 H 0.42883 0.89025 0.29218 0.0
H580 H 0.45967 0.90213 0.25281 0.0
H581 H 0.48678 0.87683 0.07568 0.0
H582 H 0.58731 0.87019 0.10824 0.0
H583 H 0.55227 0.86965 0.0951 0.0
C584 C 0.85761 0.93676 0.41967 0.0
C585 C 0.86782 0.92696 0.46848 0.0
C586 C 0.86376 0.955 0.39899 0.0
C587 C 0.89054 0.99537 0.47021 0.0
H588 H 0.88439 0.01964 0.30095 0.0
C589 C 0.90942 0.07376 0.44606 0.0
C590 C 0.8949 0.08525 0.41896 0.0
C591 C 0.90957 0.05398 0.43517 0.0
C592 C 0.8862 0.013 0.34841 0.0
H593 H 0.89305 0.92747 0.53036 0.0
H594 H 0.90445 0.95851 0.49178 0.0
H595 H 0.87817 0.98501 0.31291 0.0
H596 H 0.87005 0.08555 0.35525 0.0
H597 H 0.86987 0.05066 0.33773 0.0
H598 H 0.89796 0.02305 0.50664 0.0
C599 C 0.89136 0.95267 0.47091 0.0
C600 C 0.88261 0.99322 0.35528 0.0
C601 C 0.88498 0.9348 0.49253 0.0
C602 C 0.88146 0.07692 0.37624 0.0
C603 C 0.88138 0.05697 0.36626 0.0
C604 C 0.89414 0.01493 0.46336 0.0
C605 C 0.88031 0.96347 0.42654 0.0
C606 C 0.8848 0.98419 0.41641 0.0
C607 C 0.89488 0.04521 0.39842 0.0
C608 C 0.89206 0.02404 0.40253 0.0
H609 H 0.84421 0.93097 0.40107 0.0
H610 H 0.85489 0.96295 0.3649 0.0
H611 H 0.89172 0.98913 0.51854 0.0
H612 H 0.92001 0.07994 0.47881 0.0
H613 H 0.92048 0.04537 0.45916 0.0
C614 C 0.9293 0.1304 0.57726 0.0
C615 C 0.92966 0.14322 0.52422 0.0
C616 C 0.94653 0.12497 0.60789 0.0
C617 C 0.99746 0.13834 0.62921 0.0
H618 H 0.00958 0.08457 0.60018 0.0
C619 C 0.06595 0.09652 0.53365 0.0
C620 C 0.08058 0.10427 0.57304 0.0
C621 C 0.0467 0.09796 0.55247 0.0
C622 C 0.00633 0.09954 0.60984 0.0
H623 H 0.94786 0.16147 0.46462 0.0
H624 H 0.97764 0.15262 0.51931 0.0
H625 H 0.97624 0.09561 0.59062 0.0
H626 H 0.08663 0.11846 0.66515 0.0
H627 H 0.0528 0.12135 0.69745 0.0
H628 H 0.02763 0.1426 0.64404 0.0
C629 C 0.96424 0.14653 0.53684 0.0
C630 C 0.98725 0.10582 0.60487 0.0
C631 C 0.94721 0.1515 0.50528 0.0
C632 C 0.07566 0.11235 0.63379 0.0
C633 C 0.05632 0.11407 0.65219 0.0
C634 C 0.01647 0.13204 0.63495 0.0
C635 C 0.96417 0.13282 0.58717 0.0
C636 C 0.98283 0.12544 0.61137 0.0
C637 C 0.04163 0.10741 0.61071 0.0
C638 C 0.02122 0.11275 0.62216 0.0
H639 H 0.91592 0.12382 0.59268 0.0
H640 H 0.94618 0.11431 0.64648 0.0
H641 H 0.99438 0.15355 0.63446 0.0
H642 H 0.06933 0.09009 0.4868 0.0
H643 H 0.03572 0.09286 0.51913 0.0
C644 C 0.10169 0.93034 0.45861 0.0
C645 C 0.10994 0.91562 0.42088 0.0
C646 C 0.10266 0.94943 0.43804 0.0
C647 C 0.13538 0.98048 0.35231 0.0
H648 H 0.0968 0.01887 0.39448 0.0
C649 C 0.12805 0.06709 0.41555 0.0
C650 C 0.1412 0.06708 0.46762 0.0
C651 C 0.12394 0.04992 0.3823 0.0
C652 C 0.10761 0.0084 0.38065 0.0
H653 H 0.12475 0.90919 0.33019 0.0
H654 H 0.12686 0.94283 0.2948 0.0
H655 H 0.08754 0.98505 0.38626 0.0
H656 H 0.16141 0.04983 0.52277 0.0
H657 H 0.15479 0.0202 0.46384 0.0
H658 H 0.1557 0.00366 0.35165 0.0
C659 C 0.11954 0.93948 0.34012 0.0
C660 C 0.10234 0.98903 0.37652 0.0
C661 C 0.11829 0.92027 0.36031 0.0
C662 C 0.15118 0.05014 0.48282 0.0
C663 C 0.14748 0.03322 0.44872 0.0
C664 C 0.14067 -0.00018 0.35696 0.0
C665 C 0.1121 0.95429 0.37958 0.0
C666 C 0.11636 0.9748 0.3656 0.0
C667 C 0.13339 0.03275 0.39959 0.0
C668 C 0.12701 0.01382 0.37446 0.0
H669 H 0.09498 0.92717 0.5052 0.0
H670 H 0.09701 0.9605 0.46998 0.0
H671 H 0.14652 0.96986 0.34401 0.0
H672 H 0.12013 0.08001 0.4033 0.0
H673 H 0.11295 0.04987 0.34476 0.0
C674 C 0.92297 0.87768 0.62914 0.0
C675 C 0.91822 0.88825 0.57288 0.0
C676 C 0.94196 0.87751 0.65236 0.0
C677 C 0.98974 0.9013 0.63309 0.0
H678 H 0.0099 0.84931 0.63309 0.0
C679 C 0.0577 0.87966 0.50336 0.0
C680 C 0.06961 0.86502 0.52735 0.0
C681 C 0.04139 0.88528 0.53795 0.0
C682 C 0.00457 0.86393 0.63536 0.0
H683 H 0.92906 0.90813 0.50008 0.0
H684 H 0.9619 0.90798 0.54043 0.0
H685 H 0.97533 0.85449 0.64276 0.0
H686 H 0.07458 0.84534 0.60751 0.0
H687 H 0.04531 0.85475 0.66768 0.0
H688 H 0.01888 0.91063 0.62022 0.0
C689 C 0.95117 0.89977 0.56682 0.0
C690 C 0.98473 0.86692 0.64087 0.0
C691 C 0.93237 0.8997 0.54316 0.0
C692 C 0.06554 0.85671 0.58831 0.0
C693 C 0.04886 0.86205 0.6225 0.0
C694 C 0.00955 0.89832 0.62744 0.0
C695 C 0.95634 0.88823 0.6204 0.0
C696 C 0.97705 0.88557 0.6358 0.0
C697 C 0.03643 0.87613 0.5968 0.0
C698 C 0.01702 0.87955 0.6246 0.0
H699 H 0.9123 0.86873 0.65295 0.0
H700 H 0.94553 0.86852 0.69382 0.0
H701 H 0.98425 0.91586 0.63038 0.0
H702 H 0.06066 0.88635 0.45659 0.0
H703 H 0.032 0.89597 0.51633 0.0
C704 C 0.36048 0.3132 0.00451 0.0
C705 C 0.35447 0.32796 0.04682 0.0
C706 C 0.36011 0.294 0.02508 0.0
C707 C 0.3618 0.26488 0.17451 0.0
H708 H 0.34323 0.22376 0.06337 0.0
C709 C 0.35517 0.1857 0.26315 0.0
C710 C 0.35932 0.17138 0.2169 0.0
C711 C 0.35438 0.20507 0.24415 0.0
C712 C 0.34871 0.23504 0.09479 0.0
H713 H 0.34256 0.33392 0.14308 0.0
H714 H 0.34198 0.3006 0.17835 0.0
H715 H 0.34193 0.25686 0.02462 0.0
H716 H 0.36711 0.16612 0.11574 0.0
H717 H 0.36643 0.19961 0.08347 0.0
H718 H 0.36895 0.24308 0.24422 0.0
C719 C 0.34725 0.3039 0.12979 0.0
C720 C 0.34791 0.254 0.07252 0.0
C721 C 0.34752 0.323 0.10925 0.0
C722 C 0.36349 0.17681 0.15229 0.0
C723 C 0.36297 0.19603 0.13362 0.0
C724 C 0.36277 0.24589 0.19661 0.0
C725 C 0.35381 0.28923 0.08838 0.0
C726 C 0.35449 0.2691 0.11206 0.0
C727 C 0.35799 0.21039 0.17879 0.0
C728 C 0.35636 0.23071 0.15682 0.0
H729 H 0.36591 0.31649 0.95617 0.0
H730 H 0.36531 0.28294 0.9922 0.0
H731 H 0.36716 0.27625 0.2058 0.0
H732 H 0.35185 0.18189 0.31323 0.0
H733 H 0.35042 0.21577 0.28017 0.0
C734 C 0.17248 0.66254 0.84157 0.0
C735 C 0.16847 0.65512 0.77897 0.0
C736 C 0.19141 0.66465 0.86297 0.0
C737 C 0.24194 0.66733 0.81169 0.0
H738 H 0.25219 0.64196 0.97692 0.0
C739 C 0.3185 0.64669 0.88773 0.0
C740 C 0.32374 0.64677 0.95409 0.0
C741 C 0.29955 0.65003 0.86883 0.0
C742 C 0.2496 0.64947 0.93143 0.0
H743 H 0.18138 0.64532 0.68831 0.0
H744 H 0.21459 0.64921 0.72583 0.0
H745 H 0.21924 0.64452 0.93742 0.0
H746 H 0.31314 0.65066 0.05277 0.0
H747 H 0.2799 0.65717 0.01964 0.0
H748 H 0.27221 0.67249 0.8057 0.0
C749 C 0.20294 0.65327 0.75822 0.0
C750 C 0.2307 0.65086 0.90866 0.0
C751 C 0.18393 0.65102 0.73681 0.0
C752 C 0.30952 0.65042 0.00131 0.0
C753 C 0.29048 0.65407 0.98222 0.0
C754 C 0.26083 0.6662 0.83488 0.0
C755 C 0.20681 0.65957 0.8222 0.0
C756 C 0.22673 0.65951 0.84808 0.0
C757 C 0.28526 0.65386 0.91563 0.0
C758 C 0.26497 0.65688 0.89441 0.0
H759 H 0.16097 0.66613 0.8752 0.0
H760 H 0.19401 0.66985 0.9121 0.0
H761 H 0.23923 0.67429 0.76524 0.0
H762 H 0.32902 0.64365 0.84999 0.0
H763 H 0.29608 0.64917 0.81734 0.0
C764 C 0.66213 0.81981 0.15055 0.0
C765 C 0.65016 0.82516 0.20289 0.0
C766 C 0.66369 0.80062 0.13169 0.0
C767 C 0.65367 0.75057 0.18387 0.0
H768 H 0.65499 0.74091 0.99715 0.0
C769 C 0.6636 0.67415 0.08409 0.0
C770 C 0.65193 0.66864 0.03117 0.0
C771 C 0.66498 0.6934 0.10255 0.0
C772 C 0.6545 0.74333 0.0494 0.0
H773 H 0.63092 0.8145 0.27795 0.0
H774 H 0.63328 0.78084 0.24403 0.0
H775 H 0.65371 0.77383 0.03715 0.0
H776 H 0.63322 0.6791 0.95432 0.0
H777 H 0.63533 0.7128 0.98726 0.0
H778 H 0.65365 0.72005 0.19604 0.0
C779 C 0.6417 0.79151 0.21816 0.0
C780 C 0.65403 0.76223 0.07246 0.0
C781 C 0.64031 0.81078 0.2376 0.0
C782 C 0.6424 0.68293 0.99506 0.0
C783 C 0.64363 0.70224 0.01402 0.0
C784 C 0.65402 0.73166 0.16079 0.0
C785 C 0.65314 0.78628 0.16412 0.0
C786 C 0.65366 0.7661 0.13999 0.0
C787 C 0.65457 0.70763 0.06902 0.0
C788 C 0.65448 0.7278 0.09326 0.0
H789 H 0.67016 0.83054 0.12343 0.0
H790 H 0.67306 0.79708 0.09111 0.0
H791 H 0.65354 0.753 0.23614 0.0
H792 H 0.67132 0.66348 0.11241 0.0
H793 H 0.67396 0.69708 0.14396 0.0
C794 C 0.68471 0.35631 0.00681 0.0
C795 C 0.67039 0.34845 0.96626 0.0
C796 C 0.70409 0.35563 0.988 0.0
C797 C 0.73319 0.35426 0.83932 0.0
H798 H 0.77568 0.34299 0.95562 0.0
C799 C 0.8127 0.35415 0.75105 0.0
C800 C 0.82655 0.36068 0.79577 0.0
C801 C 0.79354 0.35158 0.77094 0.0
C802 C 0.764 0.34644 0.92262 0.0
H803 H 0.66543 0.33243 0.87653 0.0
H804 H 0.69907 0.33135 0.84421 0.0
H805 H 0.74272 0.33985 0.99518 0.0
H806 H 0.83109 0.37068 0.89498 0.0
H807 H 0.79785 0.36707 0.92857 0.0
H808 H 0.75432 0.36146 0.76734 0.0
C809 C 0.69529 0.33833 0.88979 0.0
C810 C 0.74513 0.34454 0.94536 0.0
C811 C 0.67601 0.33891 0.90861 0.0
C812 C 0.82078 0.3653 0.85967 0.0
C813 C 0.80171 0.36306 0.87914 0.0
C814 C 0.75206 0.3564 0.81677 0.0
C815 C 0.70946 0.34715 0.92828 0.0
C816 C 0.72953 0.3485 0.90402 0.0
C817 C 0.78788 0.35579 0.8356 0.0
C818 C 0.76773 0.35267 0.85829 0.0
H819 H 0.6809 0.36375 0.05147 0.0
H820 H 0.71476 0.36256 0.01862 0.0
H821 H 0.72142 0.35764 0.80656 0.0
H822 H 0.81681 0.35039 0.7016 0.0
H823 H 0.78331 0.34583 0.73613 0.0
C824 C 0.84081 0.68163 0.71277 0.0
C825 C 0.85802 0.67344 0.73514 0.0
C826 C 0.84053 0.70041 0.68884 0.0
C827 C 0.87058 0.74494 0.66995 0.0
H828 H 0.83543 0.75406 0.52586 0.0
C829 C 0.87411 0.81083 0.49547 0.0
C830 C 0.85851 0.82318 0.50755 0.0
C831 C 0.87384 0.79195 0.51916 0.0
C832 C 0.84534 0.75161 0.56588 0.0
H833 H 0.88837 0.67836 0.7516 0.0
H834 H 0.88825 0.71089 0.70695 0.0
H835 H 0.83556 0.72285 0.58003 0.0
H836 H 0.83001 0.82531 0.55007 0.0
H837 H 0.8292 0.79195 0.58857 0.0
H838 H 0.88079 0.77366 0.65306 0.0
C839 C 0.87472 0.70321 0.70986 0.0
C840 C 0.84528 0.73384 0.59773 0.0
C841 C 0.87486 0.68455 0.73556 0.0
C842 C 0.84216 0.81601 0.53988 0.0
C843 C 0.84171 0.79701 0.56198 0.0
C844 C 0.87092 0.76255 0.637 0.0
C845 C 0.85763 0.71123 0.68455 0.0
C846 C 0.85776 0.73028 0.65076 0.0
C847 C 0.85777 0.78507 0.55357 0.0
C848 C 0.85822 0.76602 0.58511 0.0
H849 H 0.82764 0.67326 0.71211 0.0
H850 H 0.82694 0.70622 0.67213 0.0
H851 H 0.88018 0.74298 0.71104 0.0
H852 H 0.88697 0.81611 0.4715 0.0
H853 H 0.88637 0.78288 0.51228 0.0
C854 C 0.81148 0.13393 0.4955 0.0
C855 C 0.82555 0.1449 0.46314 0.0
C856 C 0.79221 0.13473 0.47536 0.0
C857 C 0.76316 0.14694 0.3297 0.0
H858 H 0.72023 0.14539 0.45051 0.0
C859 C 0.67506 0.15614 0.33537 0.0
C860 C 0.66967 0.14403 0.28341 0.0
C861 C 0.69425 0.15748 0.3548 0.0
C862 C 0.73207 0.14602 0.4161 0.0
H863 H 0.83024 0.16625 0.38732 0.0
H864 H 0.79681 0.16791 0.35352 0.0
H865 H 0.75304 0.14563 0.49276 0.0
H866 H 0.6804 0.12463 0.20887 0.0
H867 H 0.71403 0.12691 0.24307 0.0
H868 H 0.74219 0.14763 0.25308 0.0
C869 C 0.80065 0.15824 0.3929 0.0
C870 C 0.75087 0.14591 0.44037 0.0
C871 C 0.81982 0.15736 0.41265 0.0
C872 C 0.68409 0.13413 0.24889 0.0
C873 C 0.70335 0.13543 0.26859 0.0
C874 C 0.74436 0.14704 0.30545 0.0
C875 C 0.78669 0.14658 0.42279 0.0
C876 C 0.76664 0.14646 0.39746 0.0
C877 C 0.70855 0.14671 0.32295 0.0
C878 C 0.72859 0.14666 0.34836 0.0
H879 H 0.81548 0.12415 0.5344 0.0
H880 H 0.7818 0.12552 0.49931 0.0
H881 H 0.77499 0.14707 0.29522 0.0
H882 H 0.66435 0.16417 0.36254 0.0
H883 H 0.69783 0.1667 0.39571 0.0
C884 C 0.1556 0.32265 0.64226 0.0
C885 C 0.15088 0.3269 0.70766 0.0
C886 C 0.15699 0.30365 0.62092 0.0
C887 C 0.16337 0.25369 0.67386 0.0
H888 H 0.1332 0.24129 0.51994 0.0
C889 C 0.14463 0.17578 0.60806 0.0
C890 C 0.14336 0.17023 0.54207 0.0
C891 C 0.14728 0.19498 0.62525 0.0
C892 C 0.14201 0.24451 0.56219 0.0
H893 H 0.14494 0.31432 0.80257 0.0
H894 H 0.14762 0.28099 0.76513 0.0
H895 H 0.13537 0.27454 0.55696 0.0
H896 H 0.14405 0.18064 0.44229 0.0
H897 H 0.14917 0.21435 0.47235 0.0
H898 H 0.17022 0.22376 0.679 0.0
C899 C 0.15012 0.29252 0.73054 0.0
C900 C 0.14318 0.26357 0.58357 0.0
C901 C 0.14854 0.3116 0.75192 0.0
C902 C 0.14488 0.18445 0.49353 0.0
C903 C 0.14775 0.20376 0.51085 0.0
C904 C 0.16241 0.23466 0.65206 0.0
C905 C 0.1539 0.28839 0.66447 0.0
C906 C 0.15364 0.2683 0.64013 0.0
C907 C 0.14897 0.20925 0.57705 0.0
C908 C 0.15143 0.22975 0.5966 0.0
H909 H 0.15767 0.33401 0.6067 0.0
H910 H 0.16021 0.30088 0.56998 0.0
H911 H 0.17176 0.25698 0.71705 0.0
H912 H 0.14331 0.16531 0.64698 0.0
H913 H 0.14763 0.19864 0.67668 0.0
C914 C 0.17536 0.83553 0.40047 0.0
C915 C 0.17115 0.84738 0.45436 0.0
C916 C 0.1943 0.83308 0.37928 0.0
C917 C 0.24537 0.84018 0.42686 0.0
H918 H 0.2535 0.84144 0.23931 0.0
C919 C 0.31182 0.85428 0.236 0.0
C920 C 0.32634 0.84429 0.26952 0.0
C921 C 0.29255 0.85247 0.25529 0.0
C922 C 0.2515 0.84115 0.29178 0.0
H923 H 0.18368 0.86537 0.52974 0.0
H924 H 0.21678 0.86134 0.49214 0.0
H925 H 0.22088 0.84282 0.28277 0.0
H926 H 0.33194 0.82341 0.34596 0.0
H927 H 0.29843 0.8198 0.37803 0.0
H928 H 0.27599 0.83933 0.43604 0.0
C929 C 0.20542 0.85374 0.4667 0.0
C930 C 0.23277 0.84169 0.31677 0.0
C931 C 0.18643 0.85608 0.48827 0.0
C932 C 0.3211 0.83151 0.3197 0.0
C933 C 0.30189 0.82956 0.33848 0.0
C934 C 0.26409 0.83971 0.4019 0.0
C935 C 0.20953 0.84252 0.41108 0.0
C936 C 0.22947 0.84129 0.38466 0.0
C937 C 0.28744 0.84049 0.30806 0.0
C938 C 0.26741 0.84025 0.33404 0.0
H939 H 0.16396 0.82841 0.37367 0.0
H940 H 0.19697 0.82396 0.33733 0.0
H941 H 0.24338 0.83967 0.47932 0.0
H942 H 0.31543 0.86432 0.19742 0.0
H943 H 0.28181 0.86118 0.23093 0.0
C944 C 0.20276 0.11321 0.67938 0.0
C945 C 0.18356 0.1139 0.70091 0.0
C946 C 0.21787 0.1156 0.72347 0.0
C947 C 0.2294 0.11147 0.898 0.0
H948 H 0.27498 0.14048 0.84983 0.0
C949 C 0.29063 0.12404 0.08051 0.0
C950 C 0.30936 0.12056 0.05742 0.0
C951 C 0.27525 0.12537 0.03709 0.0
C952 C 0.26239 0.13225 0.86374 0.0
H953 H 0.1651 0.11785 0.7853 0.0
H954 H 0.19155 0.12218 0.86249 0.0
H955 H 0.24783 0.1387 0.77423 0.0
H956 H 0.32682 0.11651 0.97068 0.0
H957 H 0.2998 0.11865 0.8945 0.0
H958 H 0.24397 0.10484 0.98711 0.0
C959 C 0.1949 0.11955 0.81156 0.0
C960 C 0.24686 0.13121 0.82052 0.0
C961 C 0.17976 0.11713 0.76739 0.0
C962 C 0.31253 0.11917 0.98982 0.0
C963 C 0.29708 0.12049 0.94625 0.0
C964 C 0.24489 0.11253 0.94118 0.0
C965 C 0.21412 0.11876 0.79006 0.0
C966 C 0.23026 0.12068 0.83702 0.0
C967 C 0.27823 0.12323 0.96963 0.0
C968 C 0.26159 0.12283 0.92439 0.0
H969 H 0.20615 0.11072 0.62841 0.0
H970 H 0.23251 0.11461 0.70552 0.0
H971 H 0.21697 0.10298 0.91172 0.0
H972 H 0.28776 0.12538 0.13234 0.0
H973 H 0.26094 0.12786 0.05645 0.0
C974 C 0.10795 0.79291 0.32066 0.0
C975 C 0.10855 0.81196 0.29777 0.0
C976 C 0.10777 0.77754 0.27681 0.0
C977 C 0.09524 0.765 0.10834 0.0
H978 H 0.12816 0.72077 0.1374 0.0
C979 C 0.10412 0.70546 0.91542 0.0
C980 C 0.10543 0.68634 0.93711 0.0
C981 C 0.10444 0.72064 0.95999 0.0
C982 C 0.11868 0.73288 0.12906 0.0
H983 H 0.10949 0.82987 0.2111 0.0
H984 H 0.10905 0.80293 0.13429 0.0
H985 H 0.12899 0.74767 0.21395 0.0
H986 H 0.108 0.66809 0.02251 0.0
H987 H 0.10814 0.69462 0.10074 0.0
H988 H 0.08471 0.75021 0.02406 0.0
C989 C 0.10864 0.79994 0.18622 0.0
C990 C 0.11921 0.74831 0.17279 0.0
C991 C 0.10898 0.81534 0.23014 0.0
C992 C 0.10698 0.68268 0.00438 0.0
C993 C 0.1072 0.6979 0.04911 0.0
C994 C 0.09461 0.74954 0.06487 0.0
C995 C 0.10805 0.78089 0.20916 0.0
C996 C 0.10754 0.76454 0.16273 0.0
C997 C 0.10597 0.71706 0.02738 0.0
C998 C 0.10637 0.73332 0.07454 0.0
H999 H 0.10764 0.78985 0.37254 0.0
H1000 H 0.10712 0.76301 0.29585 0.0
H1001 H 0.08587 0.77721 0.09995 0.0
H1002 H 0.10306 0.70876 0.86382 0.0
H1003 H 0.10381 0.73522 0.94143 0.0
C1004 C 0.70689 0.87908 0.0487 0.0
C1005 C 0.68751 0.88066 0.02992 0.0
C1006 C 0.7213 0.87696 0.0018 0.0
C1007 C 0.73218 0.88715 0.8307 0.0
H1008 H 0.77473 0.85203 0.85943 0.0
C1009 C 0.79401 0.87911 0.64444 0.0
C1010 C 0.81272 0.87828 0.67038 0.0
C1011 C 0.77799 0.87758 0.68535 0.0
C1012 C 0.76303 0.86201 0.85095 0.0
H1013 H 0.66796 0.88108 0.94737 0.0
H1014 H 0.69327 0.87748 0.86501 0.0
H1015 H 0.74785 0.85256 0.93617 0.0
H1016 H 0.82934 0.875 0.75933 0.0
H1017 H 0.8014 0.87271 0.83094 0.0
H1018 H 0.74753 0.89696 0.74647 0.0
C1019 C 0.69726 0.87795 0.91615 0.0
C1020 C 0.74762 0.86228 0.89479 0.0
C1021 C 0.68279 0.87995 0.96323 0.0
C1022 C 0.8151 0.87567 0.73791 0.0
C1023 C 0.79908 0.87421 0.77887 0.0
C1024 C 0.74763 0.88694 0.78697 0.0
C1025 C 0.71666 0.87646 0.93505 0.0
C1026 C 0.73218 0.87504 0.88561 0.0
C1027 C 0.78033 0.87526 0.7531 0.0
C1028 C 0.76335 0.87456 0.79711 0.0
H1029 H 0.71099 0.87955 0.09974 0.0
H1030 H 0.73613 0.87612 0.01781 0.0
H1031 H 0.72058 0.89729 0.8228 0.0
H1032 H 0.79172 0.88098 0.59248 0.0
H1033 H 0.76376 0.87818 0.66385 0.0
C1034 C 0.87914 0.20809 0.33119 0.0
C1035 C 0.88004 0.18938 0.30541 0.0
C1036 C 0.87719 0.22392 0.28994 0.0
C1037 C 0.86337 0.23841 0.12271 0.0
H1038 H 0.89642 0.28217 0.15821 0.0
C1039 C 0.87916 0.29747 0.93288 0.0
C1040 C 0.8806 0.31658 0.95465 0.0
C1041 C 0.87698 0.28246 0.97749 0.0
C1042 C 0.88686 0.27022 0.14819 0.0
H1043 H 0.87913 0.17251 0.21635 0.0
H1044 H 0.876 0.20028 0.14391 0.0
H1045 H 0.89653 0.25482 0.23232 0.0
H1046 H 0.88041 0.33505 0.04003 0.0
H1047 H 0.87654 0.30877 0.11822 0.0
H1048 H 0.85396 0.25376 0.03784 0.0
C1049 C 0.8766 0.20266 0.19617 0.0
C1050 C 0.88693 0.25452 0.19063 0.0
C1051 C 0.87853 0.18678 0.23757 0.0
C1052 C 0.87946 0.32044 0.02188 0.0
C1053 C 0.87731 0.3054 0.0666 0.0
C1054 C 0.8633 0.25413 0.08018 0.0
C1055 C 0.87613 0.22142 0.22194 0.0
C1056 C 0.87532 0.23838 0.17808 0.0
C1057 C 0.87622 0.28624 0.04486 0.0
C1058 C 0.8752 0.27012 0.09217 0.0
H1059 H 0.88008 0.21056 0.38336 0.0
H1060 H 0.87654 0.23816 0.31136 0.0
H1061 H 0.85404 0.22631 0.11229 0.0
H1062 H 0.87995 0.29402 0.88132 0.0
H1063 H 0.87644 0.26784 0.95924 0.0
C1064 C 0.20339 0.39112 0.57478 0.0
C1065 C 0.18426 0.38944 0.55326 0.0
C1066 C 0.21859 0.3903 0.53038 0.0
C1067 C 0.23055 0.39704 0.35739 0.0
H1068 H 0.27593 0.36719 0.4013 0.0
C1069 C 0.29199 0.38518 0.17325 0.0
C1070 C 0.31092 0.38663 0.19688 0.0
C1071 C 0.27644 0.38476 0.21635 0.0
C1072 C 0.26345 0.37575 0.38865 0.0
H1073 H 0.16601 0.38571 0.46829 0.0
H1074 H 0.19269 0.3843 0.3903 0.0
H1075 H 0.24872 0.36799 0.47664 0.0
H1076 H 0.32846 0.38853 0.28421 0.0
H1077 H 0.30122 0.38807 0.35979 0.0
H1078 H 0.24532 0.40499 0.2698 0.0
C1079 C 0.19586 0.38635 0.44165 0.0
C1080 C 0.24786 0.37618 0.43172 0.0
C1081 C 0.18061 0.3871 0.48624 0.0
C1082 C 0.31402 0.38739 0.26462 0.0
C1083 C 0.29843 0.38702 0.30785 0.0
C1084 C 0.24616 0.39665 0.31441 0.0
C1085 C 0.21501 0.38783 0.4634 0.0
C1086 C 0.23129 0.38689 0.41666 0.0
C1087 C 0.27946 0.38584 0.28412 0.0
C1088 C 0.26281 0.38605 0.32962 0.0
H1089 H 0.20669 0.39298 0.62613 0.0
H1090 H 0.23317 0.39179 0.54849 0.0
H1091 H 0.21808 0.40563 0.34491 0.0
H1092 H 0.28912 0.38443 0.12128 0.0
H1093 H 0.26204 0.38349 0.19653 0.0
C1094 C 0.38045 0.81526 0.51631 0.0
C1095 C 0.38356 0.81139 0.44978 0.0
C1096 C 0.37926 0.80019 0.56133 0.0
C1097 C 0.36963 0.74828 0.57405 0.0
H1098 H 0.39993 0.75136 0.73277 0.0
C1099 C 0.38372 0.68217 0.73706 0.0
C1100 C 0.38394 0.68497 0.80497 0.0
C1101 C 0.3826 0.69792 0.69482 0.0
C1102 C 0.39114 0.75037 0.6892 0.0
H1103 H 0.38759 0.78875 0.37798 0.0
H1104 H 0.3855 0.76253 0.45647 0.0
H1105 H 0.39938 0.77856 0.65771 0.0
H1106 H 0.38279 0.70637 0.88209 0.0
H1107 H 0.38047 0.73376 0.80858 0.0
H1108 H 0.36134 0.72012 0.60541 0.0
C1109 C 0.38389 0.77717 0.47381 0.0
C1110 C 0.39085 0.76595 0.64623 0.0
C1111 C 0.38523 0.7922 0.42899 0.0
C1112 C 0.38284 0.70377 0.8299 0.0
C1113 C 0.38159 0.71948 0.78776 0.0
C1114 C 0.36981 0.73273 0.61721 0.0
C1115 C 0.38098 0.781 0.54043 0.0
C1116 C 0.38027 0.76497 0.58792 0.0
C1117 C 0.38155 0.71675 0.71972 0.0
C1118 C 0.38073 0.73353 0.67496 0.0
H1119 H 0.37905 0.82991 0.53366 0.0
H1120 H 0.37687 0.80352 0.6124 0.0
H1121 H 0.36113 0.74725 0.5298 0.0
H1122 H 0.38457 0.66784 0.71649 0.0
H1123 H 0.38288 0.69533 0.64264 0.0
C1124 C 0.70339 0.6123 0.19807 0.0
C1125 C 0.68383 0.61273 0.21535 0.0
C1126 C 0.71759 0.61506 0.24526 0.0
C1127 C 0.72702 0.61068 0.41992 0.0
H1128 H 0.77096 0.64315 0.38062 0.0
C1129 C 0.78879 0.62157 0.60455 0.0
C1130 C 0.80749 0.62055 0.57866 0.0
C1131 C 0.77287 0.6229 0.56309 0.0
C1132 C 0.75885 0.63394 0.39217 0.0
H1133 H 0.66375 0.61632 0.29562 0.0
H1134 H 0.68871 0.62097 0.37859 0.0
H1135 H 0.74449 0.64088 0.30273 0.0
H1136 H 0.82427 0.62053 0.48927 0.0
H1137 H 0.79654 0.62247 0.41694 0.0
H1138 H 0.74159 0.60325 0.5084 0.0
C1139 C 0.69298 0.61849 0.32838 0.0
C1140 C 0.7437 0.63267 0.34764 0.0
C1141 C 0.67873 0.61587 0.28094 0.0
C1142 C 0.81002 0.62131 0.51066 0.0
C1143 C 0.79412 0.62257 0.46922 0.0
C1144 C 0.74224 0.61185 0.46434 0.0
C1145 C 0.71254 0.61821 0.31084 0.0
C1146 C 0.72779 0.62079 0.3606 0.0
C1147 C 0.77535 0.62318 0.49491 0.0
C1148 C 0.75847 0.62326 0.45047 0.0
H1149 H 0.70779 0.60993 0.14791 0.0
H1150 H 0.73256 0.61448 0.23052 0.0
H1151 H 0.71501 0.60128 0.43087 0.0
H1152 H 0.7864 0.62115 0.65684 0.0
H1153 H 0.75862 0.62364 0.58444 0.0
C1154 C 0.61081 0.2004 0.42851 0.0
C1155 C 0.61173 0.18146 0.45227 0.0
C1156 C 0.61215 0.21598 0.4713 0.0
C1157 C 0.60373 0.22928 0.64151 0.0
H1158 H 0.6354 0.27366 0.60095 0.0
C1159 C 0.61278 0.29124 0.82441 0.0
C1160 C 0.61266 0.31007 0.79958 0.0
C1161 C 0.61391 0.27551 0.78231 0.0
C1162 C 0.62631 0.26147 0.61261 0.0
H1163 H 0.61495 0.16395 0.53928 0.0
H1164 H 0.6171 0.19124 0.61422 0.0
H1165 H 0.63509 0.24613 0.52678 0.0
H1166 H 0.61386 0.32725 0.71132 0.0
H1167 H 0.61531 0.29971 0.63737 0.0
H1168 H 0.59456 0.24463 0.72635 0.0
C1169 C 0.61529 0.19399 0.56248 0.0
C1170 C 0.62619 0.2457 0.57025 0.0
C1171 C 0.61411 0.17839 0.51961 0.0
C1172 C 0.61392 0.31288 0.73179 0.0
C1173 C 0.61489 0.2971 0.68951 0.0
C1174 C 0.60373 0.24507 0.68355 0.0
C1175 C 0.61427 0.21293 0.53873 0.0
C1176 C 0.61487 0.22947 0.58429 0.0
C1177 C 0.61475 0.27822 0.71432 0.0
C1178 C 0.61501 0.26137 0.66964 0.0
H1179 H 0.60906 0.20321 0.3768 0.0
H1180 H 0.61114 0.23042 0.45174 0.0
H1181 H 0.59464 0.21707 0.65302 0.0
H1182 H 0.61206 0.28862 0.87653 0.0
H1183 H 0.61419 0.2612 0.80319 0.0
loop_
_geom_bond_atom_site_label_1
_geom_bond_atom_site_label_2
_geom_bond_distance
_geom_bond_site_symmetry_2
_ccdc_geom_bond_type
Co0 O1 2.216 . S
Co0 O2 2.091 . S
Co0 O4 2.004 . S
Co0 O10 2.021 . S
Co0 O12 2.137 . S
Co0 O13 2.244 . S
O1 Co0 2.216 . S
O1 C8 1.247 . S
O2 Co0 2.091 . S
O2 C8 1.261 . S
C3 O12 1.247 . S
C3 O13 1.272 . S
O4 Co0 2.004 . S
O4 C9 1.259 . S
Co5 O6 2.061 . S
Co5 O11 2.052 . S
Co5 O13 2.135 . S
O6 Co5 2.061 . S
O6 C9 1.235 . S
C7 O10 1.238 . S
C7 O11 1.241 . S
C8 O1 1.247 . S
C8 O2 1.261 . S
C9 O4 1.259 . S
C9 O6 1.235 . S
O10 Co0 2.021 . S
O10 C7 1.238 . S
O11 Co5 2.052 . S
O11 C7 1.241 . S
O12 Co0 2.137 . S
O12 C3 1.247 . S
O13 Co0 2.244 . S
O13 C3 1.272 . S
O13 Co5 2.135 . S
Co14 O15 2.216 . S
Co14 O16 2.091 . S
Co14 O18 2.004 . S
Co14 O24 2.021 . S
Co14 O26 2.137 . S
Co14 O27 2.244 . S
O15 Co14 2.216 . S
O15 C22 1.247 . S
O16 Co14 2.091 . S
O16 C22 1.261 . S
C17 O26 1.247 . S
C17 O27 1.272 . S
O18 Co14 2.004 . S
O18 C23 1.259 . S
Co19 O20 2.061 . S
Co19 O25 2.052 . S
Co19 O27 2.135 . S
O20 Co19 2.061 . S
O20 C23 1.235 . S
C21 O24 1.238 . S
C21 O25 1.241 . S
C22 O15 1.247 . S
C22 O16 1.261 . S
C23 O18 1.259 . S
C23 O20 1.235 . S
O24 Co14 2.021 . S
O24 C21 1.238 . S
O25 Co19 2.052 . S
O25 C21 1.241 . S
O26 Co14 2.137 . S
O26 C17 1.247 . S
O27 Co14 2.244 . S
O27 C17 1.272 . S
O27 Co19 2.135 . S
Co28 O29 2.216 . S
Co28 O30 2.091 . S
Co28 O32 2.004 . S
Co28 O38 2.021 . S
Co28 O40 2.137 . S
Co28 O41 2.244 . S
O29 Co28 2.216 . S
O29 C36 1.247 . S
O30 Co28 2.091 . S
O30 C36 1.261 . S
C31 O40 1.247 . S
C31 O41 1.272 . S
O32 Co28 2.004 . S
O32 C37 1.259 . S
Co33 O34 2.061 . S
Co33 O39 2.052 . S
Co33 O41 2.135 . S
O34 Co33 2.061 . S
O34 C37 1.235 . S
C35 O38 1.238 . S
C35 O39 1.241 . S
C36 O29 1.247 . S
C36 O30 1.261 . S
C37 O32 1.259 . S
C37 O34 1.235 . S
O38 Co28 2.021 . S
O38 C35 1.238 . S
O39 Co33 2.052 . S
O39 C35 1.241 . S
O40 Co28 2.137 . S
O40 C31 1.247 . S
O41 Co28 2.244 . S
O41 C31 1.272 . S
O41 Co33 2.135 . S
Co42 O43 2.216 . S
Co42 O44 2.091 . S
Co42 O46 2.004 . S
Co42 O52 2.021 . S
Co42 O54 2.137 . S
Co42 O55 2.244 . S
O43 Co42 2.216 . S
O43 C50 1.247 . S
O44 Co42 2.091 . S
O44 C50 1.261 . S
C45 O54 1.247 . S
C45 O55 1.272 . S
O46 Co42 2.004 . S
O46 C51 1.259 . S
Co47 O48 2.061 . S
Co47 O53 2.052 . S
Co47 O55 2.135 . S
O48 Co47 2.061 . S
O48 C51 1.235 . S
C49 O52 1.238 . S
C49 O53 1.241 . S
C50 O43 1.247 . S
C50 O44 1.261 . S
C51 O46 1.259 . S
C51 O48 1.235 . S
O52 Co42 2.021 . S
O52 C49 1.238 . S
O53 Co47 2.052 . S
O53 C49 1.241 . S
O54 Co42 2.137 . S
O54 C45 1.247 . S
O55 Co42 2.244 . S
O55 C45 1.272 . S
O55 Co47 2.135 . S
Co56 O57 2.216 . S
Co56 O58 2.091 . S
Co56 O60 2.004 . S
Co56 O66 2.021 . S
Co56 O68 2.137 . S
Co56 O69 2.244 . S
O57 Co56 2.216 . S
O57 C64 1.247 . S
O58 Co56 2.091 . S
O58 C64 1.261 . S
C59 O68 1.247 . S
C59 O69 1.272 . S
O60 Co56 2.004 . S
O60 C65 1.259 . S
Co61 O62 2.061 1_556 S
Co61 O67 2.052 . S
Co61 O69 2.135 1_556 S
O62 Co61 2.061 1_554 S
O62 C65 1.235 . S
C63 O66 1.238 . S
C63 O67 1.241 1_554 S
C64 O57 1.247 . S
C64 O58 1.261 . S
C65 O60 1.259 . S
C65 O62 1.235 . S
O66 Co56 2.021 . S
O66 C63 1.238 . S
O67 Co61 2.052 . S
O67 C63 1.241 1_556 S
O68 Co56 2.137 . S
O68 C59 1.247 . S
O69 Co56 2.244 . S
O69 C59 1.272 . S
O69 Co61 2.135 1_554 S
Co70 O71 2.216 . S
Co70 O72 2.091 . S
Co70 O74 2.004 . S
Co70 O80 2.021 . S
Co70 O82 2.137 . S
Co70 O83 2.244 . S
O71 Co70 2.216 . S
O71 C78 1.247 . S
O72 Co70 2.091 . S
O72 C78 1.261 . S
C73 O82 1.247 . S
C73 O83 1.272 . S
O74 Co70 2.004 . S
O74 C79 1.259 . S
Co75 O76 2.061 1_554 S
Co75 O81 2.052 . S
Co75 O83 2.135 1_554 S
O76 Co75 2.061 1_556 S
O76 C79 1.235 . S
C77 O80 1.238 . S
C77 O81 1.241 1_556 S
C78 O71 1.247 . S
C78 O72 1.261 . S
C79 O74 1.259 . S
C79 O76 1.235 . S
O80 Co70 2.021 . S
O80 C77 1.238 . S
O81 Co75 2.052 . S
O81 C77 1.241 1_554 S
O82 Co70 2.137 . S
O82 C73 1.247 . S
O83 Co70 2.244 . S
O83 C73 1.272 . S
O83 Co75 2.135 1_556 S
Co84 O85 2.216 . S
Co84 O86 2.091 . S
Co84 O88 2.004 . S
Co84 O94 2.021 . S
Co84 O96 2.137 . S
Co84 O97 2.244 . S
O85 Co84 2.216 . S
O85 C92 1.247 . S
O86 Co84 2.091 . S
O86 C92 1.261 . S
C87 O96 1.247 . S
C87 O97 1.272 . S
O88 Co84 2.004 . S
O88 C93 1.259 . S
Co89 O90 2.061 1_556 S
Co89 O95 2.052 . S
Co89 O97 2.135 1_556 S
O90 Co89 2.061 1_554 S
O90 C93 1.235 . S
C91 O94 1.238 . S
C91 O95 1.241 1_554 S
C92 O85 1.247 . S
C92 O86 1.261 . S
C93 O88 1.259 . S
C93 O90 1.235 . S
O94 Co84 2.021 . S
O94 C91 1.238 . S
O95 Co89 2.052 . S
O95 C91 1.241 1_556 S
O96 Co84 2.137 . S
O96 C87 1.247 . S
O97 Co84 2.244 . S
O97 C87 1.272 . S
O97 Co89 2.135 1_554 S
Co98 O99 2.216 . S
Co98 O100 2.091 . S
Co98 O102 2.004 . S
Co98 O108 2.021 . S
Co98 O110 2.137 . S
Co98 O111 2.244 . S
O99 Co98 2.216 . S
O99 C106 1.247 . S
O100 Co98 2.091 . S
O100 C106 1.261 . S
C101 O110 1.247 . S
C101 O111 1.272 . S
O102 Co98 2.004 . S
O102 C107 1.259 . S
Co103 O104 2.061 1_554 S
Co103 O109 2.052 . S
Co103 O111 2.135 1_554 S
O104 Co103 2.061 1_556 S
O104 C107 1.235 . S
C105 O108 1.238 . S
C105 O109 1.241 1_556 S
C106 O99 1.247 . S
C106 O100 1.261 . S
C107 O102 1.259 . S
C107 O104 1.235 . S
O108 Co98 2.021 . S
O108 C105 1.238 . S
O109 Co103 2.052 . S
O109 C105 1.241 1_554 S
O110 Co98 2.137 . S
O110 C101 1.247 . S
O111 Co98 2.244 . S
O111 C101 1.272 . S
O111 Co103 2.135 1_556 S
Co112 O113 2.216 . S
Co112 O114 2.091 . S
Co112 O116 2.004 . S
Co112 O122 2.021 . S
Co112 O124 2.137 . S
Co112 O125 2.244 . S
O113 Co112 2.216 . S
O113 C120 1.247 . S
O114 Co112 2.091 . S
O114 C120 1.261 . S
C115 O124 1.247 . S
C115 O125 1.272 . S
O116 Co112 2.004 . S
O116 C121 1.259 . S
Co117 O118 2.061 . S
Co117 O123 2.052 . S
Co117 O125 2.135 . S
O118 Co117 2.061 . S
O118 C121 1.235 . S
C119 O122 1.238 . S
C119 O123 1.241 . S
C120 O113 1.247 . S
C120 O114 1.261 . S
C121 O116 1.259 . S
C121 O118 1.235 . S
O122 Co112 2.021 . S
O122 C119 1.238 . S
O123 Co117 2.052 . S
O123 C119 1.241 . S
O124 Co112 2.137 . S
O124 C115 1.247 . S
O125 Co112 2.244 . S
O125 C115 1.272 . S
O125 Co117 2.135 . S
Co126 O127 2.216 . S
Co126 O128 2.091 . S
Co126 O130 2.004 . S
Co126 O136 2.021 . S
Co126 O138 2.137 . S
Co126 O139 2.244 . S
O127 Co126 2.216 . S
O127 C134 1.247 . S
O128 Co126 2.091 . S
O128 C134 1.261 . S
C129 O138 1.247 . S
C129 O139 1.272 . S
O130 Co126 2.004 . S
O130 C135 1.259 . S
Co131 O132 2.061 . S
Co131 O137 2.052 . S
Co131 O139 2.135 . S
O132 Co131 2.061 . S
O132 C135 1.235 . S
C133 O136 1.238 . S
C133 O137 1.241 . S
C134 O127 1.247 . S
C134 O128 1.261 . S
C135 O130 1.259 . S
C135 O132 1.235 . S
O136 Co126 2.021 . S
O136 C133 1.238 . S
O137 Co131 2.052 . S
O137 C133 1.241 . S
O138 Co126 2.137 . S
O138 C129 1.247 . S
O139 Co126 2.244 . S
O139 C129 1.272 . S
O139 Co131 2.135 . S
Co140 O141 2.216 . S
Co140 O142 2.091 . S
Co140 O144 2.004 . S
Co140 O150 2.021 . S
Co140 O152 2.137 . S
Co140 O153 2.244 . S
O141 Co140 2.216 . S
O141 C148 1.247 . S
O142 Co140 2.091 . S
O142 C148 1.261 . S
C143 O152 1.247 . S
C143 O153 1.272 . S
O144 Co140 2.004 . S
O144 C149 1.259 . S
Co145 O146 2.061 . S
Co145 O151 2.052 . S
Co145 O153 2.135 . S
O146 Co145 2.061 . S
O146 C149 1.235 . S
C147 O150 1.238 . S
C147 O151 1.241 . S
C148 O141 1.247 . S
C148 O142 1.261 . S
C149 O144 1.259 . S
C149 O146 1.235 . S
O150 Co140 2.021 . S
O150 C147 1.238 . S
O151 Co145 2.052 . S
O151 C147 1.241 . S
O152 Co140 2.137 . S
O152 C143 1.247 . S
O153 Co140 2.244 . S
O153 C143 1.272 . S
O153 Co145 2.135 . S
Co154 O155 2.216 . S
Co154 O156 2.091 . S
Co154 O158 2.004 . S
Co154 O164 2.021 . S
Co154 O166 2.137 . S
Co154 O167 2.244 . S
O155 Co154 2.216 . S
O155 C162 1.247 . S
O156 Co154 2.091 . S
O156 C162 1.261 . S
C157 O166 1.247 . S
C157 O167 1.272 . S
O158 Co154 2.004 . S
O158 C163 1.259 . S
Co159 O160 2.061 . S
Co159 O165 2.052 . S
Co159 O167 2.135 . S
O160 Co159 2.061 . S
O160 C163 1.235 . S
C161 O164 1.238 . S
C161 O165 1.241 . S
C162 O155 1.247 . S
C162 O156 1.261 . S
C163 O158 1.259 . S
C163 O160 1.235 . S
O164 Co154 2.021 . S
O164 C161 1.238 . S
O165 Co159 2.052 . S
O165 C161 1.241 . S
O166 Co154 2.137 . S
O166 C157 1.247 . S
O167 Co154 2.244 . S
O167 C157 1.272 . S
O167 Co159 2.135 . S
Co168 O169 2.216 . S
Co168 O170 2.091 . S
Co168 O172 2.004 . S
Co168 O178 2.021 . S
Co168 O180 2.137 . S
Co168 O181 2.244 . S
O169 Co168 2.216 . S
O169 C176 1.247 . S
O170 Co168 2.091 . S
O170 C176 1.261 . S
C171 O180 1.247 . S
C171 O181 1.272 . S
O172 Co168 2.004 . S
O172 C177 1.259 . S
Co173 O174 2.061 . S
Co173 O179 2.052 . S
Co173 O181 2.135 . S
O174 Co173 2.061 . S
O174 C177 1.235 . S
C175 O178 1.238 . S
C175 O179 1.241 . S
C176 O169 1.247 . S
C176 O170 1.261 . S
C177 O172 1.259 . S
C177 O174 1.235 . S
O178 Co168 2.021 . S
O178 C175 1.238 . S
O179 Co173 2.052 . S
O179 C175 1.241 . S
O180 Co168 2.137 . S
O180 C171 1.247 . S
O181 Co168 2.244 . S
O181 C171 1.272 . S
O181 Co173 2.135 . S
Co182 O183 2.216 . S
Co182 O184 2.091 . S
Co182 O186 2.004 . S
Co182 O192 2.021 . S
Co182 O194 2.137 . S
Co182 O195 2.244 . S
O183 Co182 2.216 . S
O183 C190 1.247 . S
O184 Co182 2.091 . S
O184 C190 1.261 . S
C185 O194 1.247 . S
C185 O195 1.272 . S
O186 Co182 2.004 . S
O186 C191 1.259 . S
Co187 O188 2.061 . S
Co187 O193 2.052 . S
Co187 O195 2.135 . S
O188 Co187 2.061 . S
O188 C191 1.235 . S
C189 O192 1.238 . S
C189 O193 1.241 . S
C190 O183 1.247 . S
C190 O184 1.261 . S
C191 O186 1.259 . S
C191 O188 1.235 . S
O192 Co182 2.021 . S
O192 C189 1.238 . S
O193 Co187 2.052 . S
O193 C189 1.241 . S
O194 Co182 2.137 . S
O194 C185 1.247 . S
O195 Co182 2.244 . S
O195 C185 1.272 . S
O195 Co187 2.135 . S
Co196 O197 2.216 . S
Co196 O198 2.091 . S
Co196 O200 2.004 . S
Co196 O206 2.021 . S
Co196 O208 2.137 . S
Co196 O209 2.244 . S
O197 Co196 2.216 . S
O197 C204 1.247 . S
O198 Co196 2.091 . S
O198 C204 1.261 . S
C199 O208 1.247 . S
C199 O209 1.272 . S
O200 Co196 2.004 . S
O200 C205 1.259 . S
Co201 O202 2.061 . S
Co201 O207 2.052 . S
Co201 O209 2.135 . S
O202 Co201 2.061 . S
O202 C205 1.235 . S
C203 O206 1.238 . S
C203 O207 1.241 . S
C204 O197 1.247 . S
C204 O198 1.261 . S
C205 O200 1.259 . S
C205 O202 1.235 . S
O206 Co196 2.021 . S
O206 C203 1.238 . S
O207 Co201 2.052 . S
O207 C203 1.241 . S
O208 Co196 2.137 . S
O208 C199 1.247 . S
O209 Co196 2.244 . S
O209 C199 1.272 . S
O209 Co201 2.135 . S
Co210 O211 2.216 . S
Co210 O212 2.091 . S
Co210 O214 2.004 . S
Co210 O220 2.021 . S
Co210 O222 2.137 . S
Co210 O223 2.244 . S
O211 Co210 2.216 . S
O211 C218 1.247 . S
O212 Co210 2.091 . S
O212 C218 1.261 . S
C213 O222 1.247 . S
C213 O223 1.272 . S
O214 Co210 2.004 . S
O214 C219 1.259 . S
Co215 O216 2.061 . S
Co215 O221 2.052 . S
Co215 O223 2.135 . S
O216 Co215 2.061 . S
O216 C219 1.235 . S
C217 O220 1.238 . S
C217 O221 1.241 . S
C218 O211 1.247 . S
C218 O212 1.261 . S
C219 O214 1.259 . S
C219 O216 1.235 . S
O220 Co210 2.021 . S
O220 C217 1.238 . S
O221 Co215 2.052 . S
O221 C217 1.241 . S
O222 Co210 2.137 . S
O222 C213 1.247 . S
O223 Co210 2.244 . S
O223 C213 1.272 . S
O223 Co215 2.135 . S
C224 C225 1.349 . S
C224 C226 1.327 . S
C224 H249 0.950 . S
C225 C224 1.349 . S
C225 C241 1.349 . S
C226 C224 1.327 . S
C226 C245 1.429 . S
C226 H250 0.950 . S
C227 C244 1.574 1_565 S
C227 C246 1.368 . S
C227 H251 0.949 . S
H228 C232 0.949 . S
C229 C230 1.349 . S
C229 C231 1.327 . S
C229 H252 0.950 . S
C230 C229 1.349 . S
C230 C242 1.349 . S
C231 C229 1.327 . S
C231 C247 1.429 . S
C231 H253 0.950 . S
C232 H228 0.949 . S
C232 C240 1.574 1_545 S
C232 C248 1.368 . S
H233 C241 0.950 . S
H234 C239 0.950 . S
H235 C240 0.949 . S
H236 C242 0.950 . S
H237 C243 0.950 . S
H238 C244 0.949 . S
C239 H234 0.950 . S
C239 C241 1.327 . S
C239 C245 1.429 . S
C240 C232 1.574 1_565 S
C240 H235 0.949 . S
C240 C246 1.368 . S
C241 C225 1.349 . S
C241 H233 0.950 . S
C241 C239 1.327 . S
C242 C230 1.349 . S
C242 H236 0.950 . S
C242 C243 1.327 . S
C243 H237 0.950 . S
C243 C242 1.327 . S
C243 C247 1.429 . S
C244 C227 1.574 1_545 S
C244 H238 0.949 . S
C244 C248 1.368 . S
C245 C226 1.429 . S
C245 C239 1.429 . S
C245 C246 1.523 . S
C246 C227 1.368 . S
C246 C240 1.368 . S
C246 C245 1.523 . S
C247 C231 1.429 . S
C247 C243 1.429 . S
C247 C248 1.523 . S
C248 C232 1.368 . S
C248 C244 1.368 . S
C248 C247 1.523 . S
H249 C224 0.950 . S
H250 C226 0.950 . S
H251 C227 0.949 . S
H252 C229 0.950 . S
H253 C231 0.950 . S
C254 C255 1.349 . S
C254 C256 1.327 . S
C254 H279 0.950 . S
C255 C254 1.349 . S
C255 C271 1.349 . S
C256 C254 1.327 . S
C256 C275 1.429 . S
C256 H280 0.950 . S
C257 C274 1.574 1_455 S
C257 C276 1.368 . S
C257 H281 0.949 . S
H258 C262 0.949 . S
C259 C260 1.349 . S
C259 C261 1.327 . S
C259 H282 0.950 . S
C260 C259 1.349 . S
C260 C272 1.349 . S
C261 C259 1.327 . S
C261 C277 1.429 . S
C261 H283 0.950 . S
C262 H258 0.949 . S
C262 C270 1.574 1_655 S
C262 C278 1.368 . S
H263 C271 0.950 . S
H264 C269 0.950 . S
H265 C270 0.949 . S
H266 C272 0.950 . S
H267 C273 0.950 . S
H268 C274 0.949 . S
C269 H264 0.950 . S
C269 C271 1.327 . S
C269 C275 1.429 . S
C270 C262 1.574 1_455 S
C270 H265 0.949 . S
C270 C276 1.368 . S
C271 C255 1.349 . S
C271 H263 0.950 . S
C271 C269 1.327 . S
C272 C260 1.349 . S
C272 H266 0.950 . S
C272 C273 1.327 . S
C273 H267 0.950 . S
C273 C272 1.327 . S
C273 C277 1.429 . S
C274 C257 1.574 1_655 S
C274 H268 0.949 . S
C274 C278 1.368 . S
C275 C256 1.429 . S
C275 C269 1.429 . S
C275 C276 1.523 . S
C276 C257 1.368 . S
C276 C270 1.368 . S
C276 C275 1.523 . S
C277 C261 1.429 . S
C277 C273 1.429 . S
C277 C278 1.523 . S
C278 C262 1.368 . S
C278 C274 1.368 . S
C278 C277 1.523 . S
H279 C254 0.950 . S
H280 C256 0.950 . S
H281 C257 0.949 . S
H282 C259 0.950 . S
H283 C261 0.950 . S
C284 C285 1.349 . S
C284 C286 1.327 . S
C284 H309 0.950 . S
C285 C284 1.349 . S
C285 C301 1.349 . S
C286 C284 1.327 . S
C286 C305 1.429 . S
C286 H310 0.950 . S
C287 C304 1.574 1_565 S
C287 C306 1.368 . S
C287 H311 0.949 . S
H288 C292 0.949 . S
C289 C290 1.349 . S
C289 C291 1.327 . S
C289 H312 0.950 . S
C290 C289 1.349 . S
C290 C302 1.349 . S
C291 C289 1.327 . S
C291 C307 1.429 . S
C291 H313 0.950 . S
C292 H288 0.949 . S
C292 C300 1.574 1_545 S
C292 C308 1.368 . S
H293 C301 0.950 . S
H294 C299 0.950 . S
H295 C300 0.949 . S
H296 C302 0.950 . S
H297 C303 0.950 . S
H298 C304 0.949 . S
C299 H294 0.950 . S
C299 C301 1.327 . S
C299 C305 1.429 . S
C300 C292 1.574 1_565 S
C300 H295 0.949 . S
C300 C306 1.368 . S
C301 C285 1.349 . S
C301 H293 0.950 . S
C301 C299 1.327 . S
C302 C290 1.349 . S
C302 H296 0.950 . S
C302 C303 1.327 . S
C303 H297 0.950 . S
C303 C302 1.327 . S
C303 C307 1.429 . S
C304 C287 1.574 1_545 S
C304 H298 0.949 . S
C304 C308 1.368 . S
C305 C286 1.429 . S
C305 C299 1.429 . S
C305 C306 1.523 . S
C306 C287 1.368 . S
C306 C300 1.368 . S
C306 C305 1.523 . S
C307 C291 1.429 . S
C307 C303 1.429 . S
C307 C308 1.523 . S
C308 C292 1.368 . S
C308 C304 1.368 . S
C308 C307 1.523 . S
H309 C284 0.950 . S
H310 C286 0.950 . S
H311 C287 0.949 . S
H312 C289 0.950 . S
H313 C291 0.950 . S
C314 C315 1.349 . S
C314 C316 1.327 . S
C314 H339 0.950 . S
C315 C314 1.349 . S
C315 C331 1.349 . S
C316 C314 1.327 . S
C316 C335 1.429 . S
C316 H340 0.950 . S
C317 C334 1.574 1_455 S
C317 C336 1.368 . S
C317 H341 0.949 . S
H318 C322 0.949 . S
C319 C320 1.349 . S
C319 C321 1.327 . S
C319 H342 0.950 . S
C320 C319 1.349 . S
C320 C332 1.349 . S
C321 C319 1.327 . S
C321 C337 1.429 . S
C321 H343 0.950 . S
C322 H318 0.949 . S
C322 C330 1.574 1_655 S
C322 C338 1.368 . S
H323 C331 0.950 . S
H324 C329 0.950 . S
H325 C330 0.949 . S
H326 C332 0.950 . S
H327 C333 0.950 . S
H328 C334 0.949 . S
C329 H324 0.950 . S
C329 C331 1.327 . S
C329 C335 1.429 . S
C330 C322 1.574 1_455 S
C330 H325 0.949 . S
C330 C336 1.368 . S
C331 C315 1.349 . S
C331 H323 0.950 . S
C331 C329 1.327 . S
C332 C320 1.349 . S
C332 H326 0.950 . S
C332 C333 1.327 . S
C333 H327 0.950 . S
C333 C332 1.327 . S
C333 C337 1.429 . S
C334 C317 1.574 1_655 S
C334 H328 0.949 . S
C334 C338 1.368 . S
C335 C316 1.429 . S
C335 C329 1.429 . S
C335 C336 1.523 . S
C336 C317 1.368 . S
C336 C330 1.368 . S
C336 C335 1.523 . S
C337 C321 1.429 . S
C337 C333 1.429 . S
C337 C338 1.523 . S
C338 C322 1.368 . S
C338 C334 1.368 . S
C338 C337 1.523 . S
H339 C314 0.950 . S
H340 C316 0.950 . S
H341 C317 0.949 . S
H342 C319 0.950 . S
H343 C321 0.950 . S
C344 C345 1.349 1_556 S
C344 C346 1.327 . S
C344 H369 0.950 . S
C345 C344 1.349 1_554 S
C345 C361 1.349 . S
C346 C344 1.327 . S
C346 C365 1.429 . S
C346 H370 0.950 . S
C347 C364 1.574 . S
C347 C366 1.368 1_554 S
C347 H371 0.949 . S
H348 C352 0.949 . S
C349 C350 1.349 . S
C349 C351 1.327 . S
C349 H372 0.950 . S
C350 C349 1.349 . S
C350 C362 1.349 . S
C351 C349 1.327 . S
C351 C367 1.429 . S
C351 H373 0.950 1_556 S
C352 H348 0.949 . S
C352 C360 1.574 . S
C352 C368 1.368 . S
H353 C361 0.950 . S
H354 C359 0.950 . S
H355 C360 0.949 . S
H356 C362 0.950 . S
H357 C363 0.950 . S
H358 C364 0.949 . S
C359 H354 0.950 . S
C359 C361 1.327 . S
C359 C365 1.429 1_554 S
C360 C352 1.574 . S
C360 H355 0.949 . S
C360 C366 1.368 . S
C361 C345 1.349 . S
C361 H353 0.950 . S
C361 C359 1.327 . S
C362 C350 1.349 . S
C362 H356 0.950 . S
C362 C363 1.327 . S
C363 H357 0.950 . S
C363 C362 1.327 . S
C363 C367 1.429 . S
C364 C347 1.574 . S
C364 H358 0.949 . S
C364 C368 1.368 1_554 S
C365 C346 1.429 . S
C365 C359 1.429 1_556 S
C365 C366 1.523 . S
C366 C347 1.368 1_556 S
C366 C360 1.368 . S
C366 C365 1.523 . S
C367 C351 1.429 . S
C367 C363 1.429 . S
C367 C368 1.523 . S
C368 C352 1.368 . S
C368 C364 1.368 1_556 S
C368 C367 1.523 . S
H369 C344 0.950 . S
H370 C346 0.950 . S
H371 C347 0.949 . S
H372 C349 0.950 . S
H373 C351 0.950 1_554 S
C374 C375 1.349 1_554 S
C374 C376 1.327 . S
C374 H399 0.950 . S
C375 C374 1.349 1_556 S
C375 C391 1.349 . S
C376 C374 1.327 . S
C376 C395 1.429 . S
C376 H400 0.950 . S
C377 C394 1.574 . S
C377 C396 1.368 1_556 S
C377 H401 0.949 . S
H378 C382 0.949 . S
C379 C380 1.349 . S
C379 C381 1.327 . S
C379 H402 0.950 . S
C380 C379 1.349 . S
C380 C392 1.349 . S
C381 C379 1.327 . S
C381 C397 1.429 . S
C381 H403 0.950 1_554 S
C382 H378 0.949 . S
C382 C390 1.574 . S
C382 C398 1.368 . S
H383 C391 0.950 . S
H384 C389 0.950 . S
H385 C390 0.949 . S
H386 C392 0.950 . S
H387 C393 0.950 . S
H388 C394 0.949 . S
C389 H384 0.950 . S
C389 C391 1.327 . S
C389 C395 1.429 1_556 S
C390 C382 1.574 . S
C390 H385 0.949 . S
C390 C396 1.368 . S
C391 C375 1.349 . S
C391 H383 0.950 . S
C391 C389 1.327 . S
C392 C380 1.349 . S
C392 H386 0.950 . S
C392 C393 1.327 . S
C393 H387 0.950 . S
C393 C392 1.327 . S
C393 C397 1.429 . S
C394 C377 1.574 . S
C394 H388 0.949 . S
C394 C398 1.368 1_556 S
C395 C376 1.429 . S
C395 C389 1.429 1_554 S
C395 C396 1.523 . S
C396 C377 1.368 1_554 S
C396 C390 1.368 . S
C396 C395 1.523 . S
C397 C381 1.429 . S
C397 C393 1.429 . S
C397 C398 1.523 . S
C398 C382 1.368 . S
C398 C394 1.368 1_554 S
C398 C397 1.523 . S
H399 C374 0.950 . S
H400 C376 0.950 . S
H401 C377 0.949 . S
H402 C379 0.950 . S
H403 C381 0.950 1_556 S
C404 C405 1.349 . S
C404 C406 1.327 . S
C404 H429 0.950 . S
C405 C404 1.349 . S
C405 C421 1.349 . S
C406 C404 1.327 . S
C406 C425 1.429 . S
C406 H430 0.950 1_556 S
C407 C424 1.574 . S
C407 C426 1.368 . S
C407 H431 0.949 . S
H408 C412 0.949 . S
C409 C410 1.349 1_556 S
C409 C411 1.327 . S
C409 H432 0.950 . S
C410 C409 1.349 1_554 S
C410 C422 1.349 . S
C411 C409 1.327 . S
C411 C427 1.429 . S
C411 H433 0.950 . S
C412 H408 0.949 . S
C412 C420 1.574 1_554 S
C412 C428 1.368 1_554 S
H413 C421 0.950 . S
H414 C419 0.950 . S
H415 C420 0.949 1_554 S
H416 C422 0.950 . S
H417 C423 0.950 . S
H418 C424 0.949 . S
C419 H414 0.950 . S
C419 C421 1.327 . S
C419 C425 1.429 . S
C420 C412 1.574 1_556 S
C420 H415 0.949 1_556 S
C420 C426 1.368 . S
C421 C405 1.349 . S
C421 H413 0.950 . S
C421 C419 1.327 . S
C422 C410 1.349 . S
C422 H416 0.950 . S
C422 C423 1.327 . S
C423 H417 0.950 . S
C423 C422 1.327 . S
C423 C427 1.429 1_554 S
C424 C407 1.574 . S
C424 H418 0.949 . S
C424 C428 1.368 . S
C425 C406 1.429 . S
C425 C419 1.429 . S
C425 C426 1.523 . S
C426 C407 1.368 . S
C426 C420 1.368 . S
C426 C425 1.523 . S
C427 C411 1.429 . S
C427 C423 1.429 1_556 S
C427 C428 1.523 . S
C428 C412 1.368 1_556 S
C428 C424 1.368 . S
C428 C427 1.523 . S
H429 C404 0.950 . S
H430 C406 0.950 1_554 S
H431 C407 0.949 . S
H432 C409 0.950 . S
H433 C411 0.950 . S
C434 C435 1.349 . S
C434 C436 1.327 . S
C434 H459 0.950 . S
C435 C434 1.349 . S
C435 C451 1.349 . S
C436 C434 1.327 . S
C436 C455 1.429 . S
C436 H460 0.950 . S
C437 C454 1.574 . S
C437 C456 1.368 1_556 S
C437 H461 0.949 . S
H438 C442 0.949 . S
C439 C440 1.349 . S
C439 C441 1.327 . S
C439 H462 0.950 . S
C440 C439 1.349 . S
C440 C452 1.349 1_556 S
C441 C439 1.327 . S
C441 C457 1.429 1_556 S
C441 H463 0.950 . S
C442 H438 0.949 . S
C442 C450 1.574 . S
C442 C458 1.368 . S
H443 C451 0.950 . S
H444 C449 0.950 1_556 S
H445 C450 0.949 . S
H446 C452 0.950 . S
H447 C453 0.950 . S
H448 C454 0.949 . S
C449 H444 0.950 1_554 S
C449 C451 1.327 . S
C449 C455 1.429 . S
C450 C442 1.574 . S
C450 H445 0.949 . S
C450 C456 1.368 . S
C451 C435 1.349 . S
C451 H443 0.950 . S
C451 C449 1.327 . S
C452 C440 1.349 1_554 S
C452 H446 0.950 . S
C452 C453 1.327 . S
C453 H447 0.950 . S
C453 C452 1.327 . S
C453 C457 1.429 . S
C454 C437 1.574 . S
C454 H448 0.949 . S
C454 C458 1.368 1_556 S
C455 C436 1.429 . S
C455 C449 1.429 . S
C455 C456 1.523 . S
C456 C437 1.368 1_554 S
C456 C450 1.368 . S
C456 C455 1.523 . S
C457 C441 1.429 1_554 S
C457 C453 1.429 . S
C457 C458 1.523 . S
C458 C442 1.368 . S
C458 C454 1.368 1_554 S
C458 C457 1.523 . S
H459 C434 0.950 . S
H460 C436 0.950 . S
H461 C437 0.949 . S
H462 C439 0.950 . S
H463 C441 0.950 . S
C464 C465 1.349 . S
C464 C466 1.327 . S
C464 H489 0.950 . S
C465 C464 1.349 . S
C465 C481 1.349 . S
C466 C464 1.327 . S
C466 C485 1.429 . S
C466 H490 0.950 . S
C467 C484 1.574 . S
C467 C486 1.368 . S
C467 H491 0.949 . S
H468 C472 0.949 . S
C469 C470 1.349 . S
C469 C471 1.327 . S
C469 H492 0.950 . S
C470 C469 1.349 . S
C470 C482 1.349 . S
C471 C469 1.327 . S
C471 C487 1.429 . S
C471 H493 0.950 . S
C472 H468 0.949 . S
C472 C480 1.574 . S
C472 C488 1.368 . S
H473 C481 0.950 . S
H474 C479 0.950 . S
H475 C480 0.949 . S
H476 C482 0.950 . S
H477 C483 0.950 . S
H478 C484 0.949 . S
C479 H474 0.950 . S
C479 C481 1.327 . S
C479 C485 1.429 . S
C480 C472 1.574 . S
C480 H475 0.949 . S
C480 C486 1.368 . S
C481 C465 1.349 . S
C481 H473 0.950 . S
C481 C479 1.327 . S
C482 C470 1.349 . S
C482 H476 0.950 . S
C482 C483 1.327 . S
C483 H477 0.950 . S
C483 C482 1.327 . S
C483 C487 1.429 . S
C484 C467 1.574 . S
C484 H478 0.949 . S
C484 C488 1.368 . S
C485 C466 1.429 . S
C485 C479 1.429 . S
C485 C486 1.523 . S
C486 C467 1.368 . S
C486 C480 1.368 . S
C486 C485 1.523 . S
C487 C471 1.429 . S
C487 C483 1.429 . S
C487 C488 1.523 . S
C488 C472 1.368 . S
C488 C484 1.368 . S
C488 C487 1.523 . S
H489 C464 0.950 . S
H490 C466 0.950 . S
H491 C467 0.949 . S
H492 C469 0.950 . S
H493 C471 0.950 . S
C494 C495 1.349 . S
C494 C496 1.327 . S
C494 H519 0.950 . S
C495 C494 1.349 . S
C495 C511 1.349 . S
C496 C494 1.327 . S
C496 C515 1.429 . S
C496 H520 0.950 . S
C497 C514 1.574 . S
C497 C516 1.368 . S
C497 H521 0.949 . S
H498 C502 0.949 . S
C499 C500 1.349 . S
C499 C501 1.327 . S
C499 H522 0.950 . S
C500 C499 1.349 . S
C500 C512 1.349 . S
C501 C499 1.327 . S
C501 C517 1.429 . S
C501 H523 0.950 . S
C502 H498 0.949 . S
C502 C510 1.574 . S
C502 C518 1.368 . S
H503 C511 0.950 . S
H504 C509 0.950 . S
H505 C510 0.949 . S
H506 C512 0.950 . S
H507 C513 0.950 . S
H508 C514 0.949 . S
C509 H504 0.950 . S
C509 C511 1.327 . S
C509 C515 1.429 . S
C510 C502 1.574 . S
C510 H505 0.949 . S
C510 C516 1.368 . S
C511 C495 1.349 . S
C511 H503 0.950 . S
C511 C509 1.327 . S
C512 C500 1.349 . S
C512 H506 0.950 . S
C512 C513 1.327 . S
C513 H507 0.950 . S
C513 C512 1.327 . S
C513 C517 1.429 . S
C514 C497 1.574 . S
C514 H508 0.949 . S
C514 C518 1.368 . S
C515 C496 1.429 . S
C515 C509 1.429 . S
C515 C516 1.523 . S
C516 C497 1.368 . S
C516 C510 1.368 . S
C516 C515 1.523 . S
C517 C501 1.429 . S
C517 C513 1.429 . S
C517 C518 1.523 . S
C518 C502 1.368 . S
C518 C514 1.368 . S
C518 C517 1.523 . S
H519 C494 0.950 . S
H520 C496 0.950 . S
H521 C497 0.949 . S
H522 C499 0.950 . S
H523 C501 0.950 . S
C524 C525 1.349 . S
C524 C526 1.327 . S
C524 H549 0.950 . S
C525 C524 1.349 . S
C525 C541 1.349 . S
C526 C524 1.327 . S
C526 C545 1.429 . S
C526 H550 0.950 . S
C527 C544 1.574 . S
C527 C546 1.368 . S
C527 H551 0.949 . S
H528 C532 0.949 . S
C529 C530 1.349 . S
C529 C531 1.327 . S
C529 H552 0.950 . S
C530 C529 1.349 . S
C530 C542 1.349 . S
C531 C529 1.327 . S
C531 C547 1.429 . S
C531 H553 0.950 . S
C532 H528 0.949 . S
C532 C540 1.574 . S
C532 C548 1.368 . S
H533 C541 0.950 . S
H534 C539 0.950 . S
H535 C540 0.949 . S
H536 C542 0.950 . S
H537 C543 0.950 . S
H538 C544 0.949 . S
C539 H534 0.950 . S
C539 C541 1.327 . S
C539 C545 1.429 . S
C540 C532 1.574 . S
C540 H535 0.949 . S
C540 C546 1.368 . S
C541 C525 1.349 . S
C541 H533 0.950 . S
C541 C539 1.327 . S
C542 C530 1.349 . S
C542 H536 0.950 . S
C542 C543 1.327 . S
C543 H537 0.950 . S
C543 C542 1.327 . S
C543 C547 1.429 . S
C544 C527 1.574 . S
C544 H538 0.949 . S
C544 C548 1.368 . S
C545 C526 1.429 . S
C545 C539 1.429 . S
C545 C546 1.523 . S
C546 C527 1.368 . S
C546 C540 1.368 . S
C546 C545 1.523 . S
C547 C531 1.429 . S
C547 C543 1.429 . S
C547 C548 1.523 . S
C548 C532 1.368 . S
C548 C544 1.368 . S
C548 C547 1.523 . S
H549 C524 0.950 . S
H550 C526 0.950 . S
H551 C527 0.949 . S
H552 C529 0.950 . S
H553 C531 0.950 . S
C554 C555 1.349 . S
C554 C556 1.327 . S
C554 H579 0.950 . S
C555 C554 1.349 . S
C555 C571 1.349 . S
C556 C554 1.327 . S
C556 C575 1.429 . S
C556 H580 0.950 . S
C557 C574 1.574 . S
C557 C576 1.368 . S
C557 H581 0.949 . S
H558 C562 0.949 . S
C559 C560 1.349 . S
C559 C561 1.327 . S
C559 H582 0.950 . S
C560 C559 1.349 . S
C560 C572 1.349 . S
C561 C559 1.327 . S
C561 C577 1.429 . S
C561 H583 0.950 . S
C562 H558 0.949 . S
C562 C570 1.574 . S
C562 C578 1.368 . S
H563 C571 0.950 . S
H564 C569 0.950 . S
H565 C570 0.949 . S
H566 C572 0.950 . S
H567 C573 0.950 . S
H568 C574 0.949 . S
C569 H564 0.950 . S
C569 C571 1.327 . S
C569 C575 1.429 . S
C570 C562 1.574 . S
C570 H565 0.949 . S
C570 C576 1.368 . S
C571 C555 1.349 . S
C571 H563 0.950 . S
C571 C569 1.327 . S
C572 C560 1.349 . S
C572 H566 0.950 . S
C572 C573 1.327 . S
C573 H567 0.950 . S
C573 C572 1.327 . S
C573 C577 1.429 . S
C574 C557 1.574 . S
C574 H568 0.949 . S
C574 C578 1.368 . S
C575 C556 1.429 . S
C575 C569 1.429 . S
C575 C576 1.523 . S
C576 C557 1.368 . S
C576 C570 1.368 . S
C576 C575 1.523 . S
C577 C561 1.429 . S
C577 C573 1.429 . S
C577 C578 1.523 . S
C578 C562 1.368 . S
C578 C574 1.368 . S
C578 C577 1.523 . S
H579 C554 0.950 . S
H580 C556 0.950 . S
H581 C557 0.949 . S
H582 C559 0.950 . S
H583 C561 0.950 . S
C584 C585 1.349 . S
C584 C586 1.327 . S
C584 H609 0.950 . S
C585 C584 1.349 . S
C585 C601 1.349 . S
C586 C584 1.327 . S
C586 C605 1.429 . S
C586 H610 0.950 . S
C587 C604 1.574 1_565 S
C587 C606 1.368 . S
C587 H611 0.949 . S
H588 C592 0.949 . S
C589 C590 1.349 . S
C589 C591 1.327 . S
C589 H612 0.950 . S
C590 C589 1.349 . S
C590 C602 1.349 . S
C591 C589 1.327 . S
C591 C607 1.429 . S
C591 H613 0.950 . S
C592 H588 0.949 . S
C592 C600 1.574 1_545 S
C592 C608 1.368 . S
H593 C601 0.950 . S
H594 C599 0.950 . S
H595 C600 0.949 . S
H596 C602 0.950 . S
H597 C603 0.950 . S
H598 C604 0.949 . S
C599 H594 0.950 . S
C599 C601 1.327 . S
C599 C605 1.429 . S
C600 C592 1.574 1_565 S
C600 H595 0.949 . S
C600 C606 1.368 . S
C601 C585 1.349 . S
C601 H593 0.950 . S
C601 C599 1.327 . S
C602 C590 1.349 . S
C602 H596 0.950 . S
C602 C603 1.327 . S
C603 H597 0.950 . S
C603 C602 1.327 . S
C603 C607 1.429 . S
C604 C587 1.574 1_545 S
C604 H598 0.949 . S
C604 C608 1.368 . S
C605 C586 1.429 . S
C605 C599 1.429 . S
C605 C606 1.523 . S
C606 C587 1.368 . S
C606 C600 1.368 . S
C606 C605 1.523 . S
C607 C591 1.429 . S
C607 C603 1.429 . S
C607 C608 1.523 . S
C608 C592 1.368 . S
C608 C604 1.368 . S
C608 C607 1.523 . S
H609 C584 0.950 . S
H610 C586 0.950 . S
H611 C587 0.949 . S
H612 C589 0.950 . S
H613 C591 0.950 . S
C614 C615 1.349 . S
C614 C616 1.327 . S
C614 H639 0.950 . S
C615 C614 1.349 . S
C615 C631 1.349 . S
C616 C614 1.327 . S
C616 C635 1.429 . S
C616 H640 0.950 . S
C617 C634 1.574 1_655 S
C617 C636 1.368 . S
C617 H641 0.949 . S
H618 C622 0.949 . S
C619 C620 1.349 . S
C619 C621 1.327 . S
C619 H642 0.950 . S
C620 C619 1.349 . S
C620 C632 1.349 . S
C621 C619 1.327 . S
C621 C637 1.429 . S
C621 H643 0.950 . S
C622 H618 0.949 . S
C622 C630 1.574 1_455 S
C622 C638 1.368 . S
H623 C631 0.950 . S
H624 C629 0.950 . S
H625 C630 0.949 . S
H626 C632 0.950 . S
H627 C633 0.950 . S
H628 C634 0.949 . S
C629 H624 0.950 . S
C629 C631 1.327 . S
C629 C635 1.429 . S
C630 C622 1.574 1_655 S
C630 H625 0.949 . S
C630 C636 1.368 . S
C631 C615 1.349 . S
C631 H623 0.950 . S
C631 C629 1.327 . S
C632 C620 1.349 . S
C632 H626 0.950 . S
C632 C633 1.327 . S
C633 H627 0.950 . S
C633 C632 1.327 . S
C633 C637 1.429 . S
C634 C617 1.574 1_455 S
C634 H628 0.949 . S
C634 C638 1.368 . S
C635 C616 1.429 . S
C635 C629 1.429 . S
C635 C636 1.523 . S
C636 C617 1.368 . S
C636 C630 1.368 . S
C636 C635 1.523 . S
C637 C621 1.429 . S
C637 C633 1.429 . S
C637 C638 1.523 . S
C638 C622 1.368 . S
C638 C634 1.368 . S
C638 C637 1.523 . S
H639 C614 0.950 . S
H640 C616 0.950 . S
H641 C617 0.949 . S
H642 C619 0.950 . S
H643 C621 0.950 . S
C644 C645 1.349 . S
C644 C646 1.327 . S
C644 H669 0.950 . S
C645 C644 1.349 . S
C645 C661 1.349 . S
C646 C644 1.327 . S
C646 C665 1.429 . S
C646 H670 0.950 . S
C647 C664 1.574 1_565 S
C647 C666 1.368 . S
C647 H671 0.949 . S
H648 C652 0.949 . S
C649 C650 1.349 . S
C649 C651 1.327 . S
C649 H672 0.950 . S
C650 C649 1.349 . S
C650 C662 1.349 . S
C651 C649 1.327 . S
C651 C667 1.429 . S
C651 H673 0.950 . S
C652 H648 0.949 . S
C652 C660 1.574 1_545 S
C652 C668 1.368 . S
H653 C661 0.950 . S
H654 C659 0.950 . S
H655 C660 0.949 . S
H656 C662 0.950 . S
H657 C663 0.950 . S
H658 C664 0.949 . S
C659 H654 0.950 . S
C659 C661 1.327 . S
C659 C665 1.429 . S
C660 C652 1.574 1_565 S
C660 H655 0.949 . S
C660 C666 1.368 . S
C661 C645 1.349 . S
C661 H653 0.950 . S
C661 C659 1.327 . S
C662 C650 1.349 . S
C662 H656 0.950 . S
C662 C663 1.327 . S
C663 H657 0.950 . S
C663 C662 1.327 . S
C663 C667 1.429 . S
C664 C647 1.574 1_545 S
C664 H658 0.949 . S
C664 C668 1.368 . S
C665 C646 1.429 . S
C665 C659 1.429 . S
C665 C666 1.523 . S
C666 C647 1.368 . S
C666 C660 1.368 . S
C666 C665 1.523 . S
C667 C651 1.429 . S
C667 C663 1.429 . S
C667 C668 1.523 . S
C668 C652 1.368 . S
C668 C664 1.368 . S
C668 C667 1.523 . S
H669 C644 0.950 . S
H670 C646 0.950 . S
H671 C647 0.949 . S
H672 C649 0.950 . S
H673 C651 0.950 . S
C674 C675 1.349 . S
C674 C676 1.327 . S
C674 H699 0.950 . S
C675 C674 1.349 . S
C675 C691 1.349 . S
C676 C674 1.327 . S
C676 C695 1.429 . S
C676 H700 0.950 . S
C677 C694 1.574 1_655 S
C677 C696 1.368 . S
C677 H701 0.949 . S
H678 C682 0.949 . S
C679 C680 1.349 . S
C679 C681 1.327 . S
C679 H702 0.950 . S
C680 C679 1.349 . S
C680 C692 1.349 . S
C681 C679 1.327 . S
C681 C697 1.429 . S
C681 H703 0.950 . S
C682 H678 0.949 . S
C682 C690 1.574 1_455 S
C682 C698 1.368 . S
H683 C691 0.950 . S
H684 C689 0.950 . S
H685 C690 0.949 . S
H686 C692 0.950 . S
H687 C693 0.950 . S
H688 C694 0.949 . S
C689 H684 0.950 . S
C689 C691 1.327 . S
C689 C695 1.429 . S
C690 C682 1.574 1_655 S
C690 H685 0.949 . S
C690 C696 1.368 . S
C691 C675 1.349 . S
C691 H683 0.950 . S
C691 C689 1.327 . S
C692 C680 1.349 . S
C692 H686 0.950 . S
C692 C693 1.327 . S
C693 H687 0.950 . S
C693 C692 1.327 . S
C693 C697 1.429 . S
C694 C677 1.574 1_455 S
C694 H688 0.949 . S
C694 C698 1.368 . S
C695 C676 1.429 . S
C695 C689 1.429 . S
C695 C696 1.523 . S
C696 C677 1.368 . S
C696 C690 1.368 . S
C696 C695 1.523 . S
C697 C681 1.429 . S
C697 C693 1.429 . S
C697 C698 1.523 . S
C698 C682 1.368 . S
C698 C694 1.368 . S
C698 C697 1.523 . S
H699 C674 0.950 . S
H700 C676 0.950 . S
H701 C677 0.949 . S
H702 C679 0.950 . S
H703 C681 0.950 . S
C704 C705 1.349 . S
C704 C706 1.327 . S
C704 H729 0.950 1_554 S
C705 C704 1.349 . S
C705 C721 1.349 . S
C706 C704 1.327 . S
C706 C725 1.429 . S
C706 H730 0.950 . S
C707 C724 1.574 . S
C707 C726 1.368 . S
C707 H731 0.949 . S
H708 C712 0.949 . S
C709 C710 1.349 . S
C709 C711 1.327 . S
C709 H732 0.950 . S
C710 C709 1.349 . S
C710 C722 1.349 . S
C711 C709 1.327 . S
C711 C727 1.429 . S
C711 H733 0.950 . S
C712 H708 0.949 . S
C712 C720 1.574 . S
C712 C728 1.368 . S
H713 C721 0.950 . S
H714 C719 0.950 . S
H715 C720 0.949 . S
H716 C722 0.950 . S
H717 C723 0.950 . S
H718 C724 0.949 . S
C719 H714 0.950 . S
C719 C721 1.327 . S
C719 C725 1.429 . S
C720 C712 1.574 . S
C720 H715 0.949 . S
C720 C726 1.368 . S
C721 C705 1.349 . S
C721 H713 0.950 . S
C721 C719 1.327 . S
C722 C710 1.349 . S
C722 H716 0.950 . S
C722 C723 1.327 . S
C723 H717 0.950 . S
C723 C722 1.327 . S
C723 C727 1.429 . S
C724 C707 1.574 . S
C724 H718 0.949 . S
C724 C728 1.368 . S
C725 C706 1.429 . S
C725 C719 1.429 . S
C725 C726 1.523 . S
C726 C707 1.368 . S
C726 C720 1.368 . S
C726 C725 1.523 . S
C727 C711 1.429 . S
C727 C723 1.429 . S
C727 C728 1.523 . S
C728 C712 1.368 . S
C728 C724 1.368 . S
C728 C727 1.523 . S
H729 C704 0.950 1_556 S
H730 C706 0.950 . S
H731 C707 0.949 . S
H732 C709 0.950 . S
H733 C711 0.950 . S
C734 C735 1.349 . S
C734 C736 1.327 . S
C734 H759 0.950 . S
C735 C734 1.349 . S
C735 C751 1.349 . S
C736 C734 1.327 . S
C736 C755 1.429 . S
C736 H760 0.950 . S
C737 C754 1.574 . S
C737 C756 1.368 . S
C737 H761 0.949 . S
H738 C742 0.949 . S
C739 C740 1.349 . S
C739 C741 1.327 . S
C739 H762 0.950 . S
C740 C739 1.349 . S
C740 C752 1.349 . S
C741 C739 1.327 . S
C741 C757 1.429 . S
C741 H763 0.950 . S
C742 H738 0.949 . S
C742 C750 1.574 . S
C742 C758 1.368 . S
H743 C751 0.950 . S
H744 C749 0.950 . S
H745 C750 0.949 . S
H746 C752 0.950 1_554 S
H747 C753 0.950 . S
H748 C754 0.949 . S
C749 H744 0.950 . S
C749 C751 1.327 . S
C749 C755 1.429 . S
C750 C742 1.574 . S
C750 H745 0.949 . S
C750 C756 1.368 . S
C751 C735 1.349 . S
C751 H743 0.950 . S
C751 C749 1.327 . S
C752 C740 1.349 . S
C752 H746 0.950 1_556 S
C752 C753 1.327 . S
C753 H747 0.950 . S
C753 C752 1.327 . S
C753 C757 1.429 . S
C754 C737 1.574 . S
C754 H748 0.949 . S
C754 C758 1.368 . S
C755 C736 1.429 . S
C755 C749 1.429 . S
C755 C756 1.523 . S
C756 C737 1.368 . S
C756 C750 1.368 . S
C756 C755 1.523 . S
C757 C741 1.429 . S
C757 C753 1.429 . S
C757 C758 1.523 . S
C758 C742 1.368 . S
C758 C754 1.368 . S
C758 C757 1.523 . S
H759 C734 0.950 . S
H760 C736 0.950 . S
H761 C737 0.949 . S
H762 C739 0.950 . S
H763 C741 0.950 . S
C764 C765 1.349 . S
C764 C766 1.327 . S
C764 H789 0.950 . S
C765 C764 1.349 . S
C765 C781 1.349 . S
C766 C764 1.327 . S
C766 C785 1.429 . S
C766 H790 0.950 . S
C767 C784 1.574 . S
C767 C786 1.368 . S
C767 H791 0.949 . S
H768 C772 0.949 . S
C769 C770 1.349 . S
C769 C771 1.327 . S
C769 H792 0.950 . S
C770 C769 1.349 . S
C770 C782 1.349 . S
C771 C769 1.327 . S
C771 C787 1.429 . S
C771 H793 0.950 . S
C772 H768 0.949 . S
C772 C780 1.574 . S
C772 C788 1.368 . S
H773 C781 0.950 . S
H774 C779 0.950 . S
H775 C780 0.949 . S
H776 C782 0.950 1_556 S
H777 C783 0.950 1_556 S
H778 C784 0.949 . S
C779 H774 0.950 . S
C779 C781 1.327 . S
C779 C785 1.429 . S
C780 C772 1.574 . S
C780 H775 0.949 . S
C780 C786 1.368 . S
C781 C765 1.349 . S
C781 H773 0.950 . S
C781 C779 1.327 . S
C782 C770 1.349 . S
C782 H776 0.950 1_554 S
C782 C783 1.327 . S
C783 H777 0.950 1_554 S
C783 C782 1.327 . S
C783 C787 1.429 . S
C784 C767 1.574 . S
C784 H778 0.949 . S
C784 C788 1.368 . S
C785 C766 1.429 . S
C785 C779 1.429 . S
C785 C786 1.523 . S
C786 C767 1.368 . S
C786 C780 1.368 . S
C786 C785 1.523 . S
C787 C771 1.429 . S
C787 C783 1.429 . S
C787 C788 1.523 . S
C788 C772 1.368 . S
C788 C784 1.368 . S
C788 C787 1.523 . S
H789 C764 0.950 . S
H790 C766 0.950 . S
H791 C767 0.949 . S
H792 C769 0.950 . S
H793 C771 0.950 . S
C794 C795 1.349 . S
C794 C796 1.327 . S
C794 H819 0.950 . S
C795 C794 1.349 . S
C795 C811 1.349 . S
C796 C794 1.327 . S
C796 C815 1.429 . S
C796 H820 0.950 . S
C797 C814 1.574 . S
C797 C816 1.368 . S
C797 H821 0.949 . S
H798 C802 0.949 . S
C799 C800 1.349 . S
C799 C801 1.327 . S
C799 H822 0.950 . S
C800 C799 1.349 . S
C800 C812 1.349 . S
C801 C799 1.327 . S
C801 C817 1.429 . S
C801 H823 0.950 . S
C802 H798 0.949 . S
C802 C810 1.574 . S
C802 C818 1.368 . S
H803 C811 0.950 . S
H804 C809 0.950 . S
H805 C810 0.949 . S
H806 C812 0.950 . S
H807 C813 0.950 . S
H808 C814 0.949 . S
C809 H804 0.950 . S
C809 C811 1.327 . S
C809 C815 1.429 . S
C810 C802 1.574 . S
C810 H805 0.949 . S
C810 C816 1.368 . S
C811 C795 1.349 . S
C811 H803 0.950 . S
C811 C809 1.327 . S
C812 C800 1.349 . S
C812 H806 0.950 . S
C812 C813 1.327 . S
C813 H807 0.950 . S
C813 C812 1.327 . S
C813 C817 1.429 . S
C814 C797 1.574 . S
C814 H808 0.949 . S
C814 C818 1.368 . S
C815 C796 1.429 . S
C815 C809 1.429 . S
C815 C816 1.523 . S
C816 C797 1.368 . S
C816 C810 1.368 . S
C816 C815 1.523 . S
C817 C801 1.429 . S
C817 C813 1.429 . S
C817 C818 1.523 . S
C818 C802 1.368 . S
C818 C814 1.368 . S
C818 C817 1.523 . S
H819 C794 0.950 . S
H820 C796 0.950 . S
H821 C797 0.949 . S
H822 C799 0.950 . S
H823 C801 0.950 . S
C824 C825 1.349 . S
C824 C826 1.327 . S
C824 H849 0.950 . S
C825 C824 1.349 . S
C825 C841 1.349 . S
C826 C824 1.327 . S
C826 C845 1.429 . S
C826 H850 0.950 . S
C827 C844 1.574 . S
C827 C846 1.368 . S
C827 H851 0.949 . S
H828 C832 0.949 . S
C829 C830 1.349 . S
C829 C831 1.327 . S
C829 H852 0.950 . S
C830 C829 1.349 . S
C830 C842 1.349 . S
C831 C829 1.327 . S
C831 C847 1.429 . S
C831 H853 0.950 . S
C832 H828 0.949 . S
C832 C840 1.574 . S
C832 C848 1.368 . S
H833 C841 0.950 . S
H834 C839 0.950 . S
H835 C840 0.949 . S
H836 C842 0.950 . S
H837 C843 0.950 . S
H838 C844 0.949 . S
C839 H834 0.950 . S
C839 C841 1.327 . S
C839 C845 1.429 . S
C840 C832 1.574 . S
C840 H835 0.949 . S
C840 C846 1.368 . S
C841 C825 1.349 . S
C841 H833 0.950 . S
C841 C839 1.327 . S
C842 C830 1.349 . S
C842 H836 0.950 . S
C842 C843 1.327 . S
C843 H837 0.950 . S
C843 C842 1.327 . S
C843 C847 1.429 . S
C844 C827 1.574 . S
C844 H838 0.949 . S
C844 C848 1.368 . S
C845 C826 1.429 . S
C845 C839 1.429 . S
C845 C846 1.523 . S
C846 C827 1.368 . S
C846 C840 1.368 . S
C846 C845 1.523 . S
C847 C831 1.429 . S
C847 C843 1.429 . S
C847 C848 1.523 . S
C848 C832 1.368 . S
C848 C844 1.368 . S
C848 C847 1.523 . S
H849 C824 0.950 . S
H850 C826 0.950 . S
H851 C827 0.949 . S
H852 C829 0.950 . S
H853 C831 0.950 . S
C854 C855 1.349 . S
C854 C856 1.327 . S
C854 H879 0.950 . S
C855 C854 1.349 . S
C855 C871 1.349 . S
C856 C854 1.327 . S
C856 C875 1.429 . S
C856 H880 0.950 . S
C857 C874 1.574 . S
C857 C876 1.368 . S
C857 H881 0.949 . S
H858 C862 0.949 . S
C859 C860 1.349 . S
C859 C861 1.327 . S
C859 H882 0.950 . S
C860 C859 1.349 . S
C860 C872 1.349 . S
C861 C859 1.327 . S
C861 C877 1.429 . S
C861 H883 0.950 . S
C862 H858 0.949 . S
C862 C870 1.574 . S
C862 C878 1.368 . S
H863 C871 0.950 . S
H864 C869 0.950 . S
H865 C870 0.949 . S
H866 C872 0.950 . S
H867 C873 0.950 . S
H868 C874 0.949 . S
C869 H864 0.950 . S
C869 C871 1.327 . S
C869 C875 1.429 . S
C870 C862 1.574 . S
C870 H865 0.949 . S
C870 C876 1.368 . S
C871 C855 1.349 . S
C871 H863 0.950 . S
C871 C869 1.327 . S
C872 C860 1.349 . S
C872 H866 0.950 . S
C872 C873 1.327 . S
C873 H867 0.950 . S
C873 C872 1.327 . S
C873 C877 1.429 . S
C874 C857 1.574 . S
C874 H868 0.949 . S
C874 C878 1.368 . S
C875 C856 1.429 . S
C875 C869 1.429 . S
C875 C876 1.523 . S
C876 C857 1.368 . S
C876 C870 1.368 . S
C876 C875 1.523 . S
C877 C861 1.429 . S
C877 C873 1.429 . S
C877 C878 1.523 . S
C878 C862 1.368 . S
C878 C874 1.368 . S
C878 C877 1.523 . S
H879 C854 0.950 . S
H880 C856 0.950 . S
H881 C857 0.949 . S
H882 C859 0.950 . S
H883 C861 0.950 . S
C884 C885 1.349 . S
C884 C886 1.327 . S
C884 H909 0.950 . S
C885 C884 1.349 . S
C885 C901 1.349 . S
C886 C884 1.327 . S
C886 C905 1.429 . S
C886 H910 0.950 . S
C887 C904 1.574 . S
C887 C906 1.368 . S
C887 H911 0.949 . S
H888 C892 0.949 . S
C889 C890 1.349 . S
C889 C891 1.327 . S
C889 H912 0.950 . S
C890 C889 1.349 . S
C890 C902 1.349 . S
C891 C889 1.327 . S
C891 C907 1.429 . S
C891 H913 0.950 . S
C892 H888 0.949 . S
C892 C900 1.574 . S
C892 C908 1.368 . S
H893 C901 0.950 . S
H894 C899 0.950 . S
H895 C900 0.949 . S
H896 C902 0.950 . S
H897 C903 0.950 . S
H898 C904 0.949 . S
C899 H894 0.950 . S
C899 C901 1.327 . S
C899 C905 1.429 . S
C900 C892 1.574 . S
C900 H895 0.949 . S
C900 C906 1.368 . S
C901 C885 1.349 . S
C901 H893 0.950 . S
C901 C899 1.327 . S
C902 C890 1.349 . S
C902 H896 0.950 . S
C902 C903 1.327 . S
C903 H897 0.950 . S
C903 C902 1.327 . S
C903 C907 1.429 . S
C904 C887 1.574 . S
C904 H898 0.949 . S
C904 C908 1.368 . S
C905 C886 1.429 . S
C905 C899 1.429 . S
C905 C906 1.523 . S
C906 C887 1.368 . S
C906 C900 1.368 . S
C906 C905 1.523 . S
C907 C891 1.429 . S
C907 C903 1.429 . S
C907 C908 1.523 . S
C908 C892 1.368 . S
C908 C904 1.368 . S
C908 C907 1.523 . S
H909 C884 0.950 . S
H910 C886 0.950 . S
H911 C887 0.949 . S
H912 C889 0.950 . S
H913 C891 0.950 . S
C914 C915 1.349 . S
C914 C916 1.327 . S
C914 H939 0.950 . S
C915 C914 1.349 . S
C915 C931 1.349 . S
C916 C914 1.327 . S
C916 C935 1.429 . S
C916 H940 0.950 . S
C917 C934 1.574 . S
C917 C936 1.368 . S
C917 H941 0.949 . S
H918 C922 0.949 . S
C919 C920 1.349 . S
C919 C921 1.327 . S
C919 H942 0.950 . S
C920 C919 1.349 . S
C920 C932 1.349 . S
C921 C919 1.327 . S
C921 C937 1.429 . S
C921 H943 0.950 . S
C922 H918 0.949 . S
C922 C930 1.574 . S
C922 C938 1.368 . S
H923 C931 0.950 . S
H924 C929 0.950 . S
H925 C930 0.949 . S
H926 C932 0.950 . S
H927 C933 0.950 . S
H928 C934 0.949 . S
C929 H924 0.950 . S
C929 C931 1.327 . S
C929 C935 1.429 . S
C930 C922 1.574 . S
C930 H925 0.949 . S
C930 C936 1.368 . S
C931 C915 1.349 . S
C931 H923 0.950 . S
C931 C929 1.327 . S
C932 C920 1.349 . S
C932 H926 0.950 . S
C932 C933 1.327 . S
C933 H927 0.950 . S
C933 C932 1.327 . S
C933 C937 1.429 . S
C934 C917 1.574 . S
C934 H928 0.949 . S
C934 C938 1.368 . S
C935 C916 1.429 . S
C935 C929 1.429 . S
C935 C936 1.523 . S
C936 C917 1.368 . S
C936 C930 1.368 . S
C936 C935 1.523 . S
C937 C921 1.429 . S
C937 C933 1.429 . S
C937 C938 1.523 . S
C938 C922 1.368 . S
C938 C934 1.368 . S
C938 C937 1.523 . S
H939 C914 0.950 . S
H940 C916 0.950 . S
H941 C917 0.949 . S
H942 C919 0.950 . S
H943 C921 0.950 . S
C944 C945 1.349 . S
C944 C946 1.327 . S
C944 H969 0.950 . S
C945 C944 1.349 . S
C945 C961 1.349 . S
C946 C944 1.327 . S
C946 C965 1.429 . S
C946 H970 0.950 . S
C947 C964 1.574 . S
C947 C966 1.368 . S
C947 H971 0.949 . S
H948 C952 0.949 . S
C949 C950 1.349 . S
C949 C951 1.327 1_554 S
C949 H972 0.950 . S
C950 C949 1.349 . S
C950 C962 1.349 1_554 S
C951 C949 1.327 1_556 S
C951 C967 1.429 . S
C951 H973 0.946 1_556 S
C952 H948 0.949 . S
C952 C960 1.574 . S
C952 C968 1.368 . S
H953 C961 0.950 . S
H954 C959 0.950 . S
H955 C960 0.949 . S
H956 C962 0.950 . S
H957 C963 0.950 . S
H958 C964 0.949 . S
C959 H954 0.950 . S
C959 C961 1.327 . S
C959 C965 1.429 . S
C960 C952 1.574 . S
C960 H955 0.949 . S
C960 C966 1.368 . S
C961 C945 1.349 . S
C961 H953 0.950 . S
C961 C959 1.327 . S
C962 C950 1.349 1_556 S
C962 H956 0.950 . S
C962 C963 1.327 . S
C963 H957 0.950 . S
C963 C962 1.327 . S
C963 C967 1.429 . S
C964 C947 1.574 . S
C964 H958 0.949 . S
C964 C968 1.368 . S
C965 C946 1.429 . S
C965 C959 1.429 . S
C965 C966 1.523 . S
C966 C947 1.368 . S
C966 C960 1.368 . S
C966 C965 1.523 . S
C967 C951 1.429 . S
C967 C963 1.429 . S
C967 C968 1.523 . S
C968 C952 1.368 . S
C968 C964 1.368 . S
C968 C967 1.523 . S
H969 C944 0.950 . S
H970 C946 0.950 . S
H971 C947 0.949 . S
H972 C949 0.950 . S
H973 C951 0.946 1_554 S
C974 C975 1.349 . S
C974 C976 1.327 . S
C974 H999 0.950 . S
C975 C974 1.349 . S
C975 C991 1.349 . S
C976 C974 1.327 . S
C976 C995 1.429 . S
C976 H1000 0.950 . S
C977 C994 1.574 . S
C977 C996 1.368 . S
C977 H1001 0.949 . S
H978 C982 0.949 . S
C979 C980 1.349 . S
C979 C981 1.327 . S
C979 H1002 0.950 . S
C980 C979 1.349 . S
C980 C992 1.349 1_556 S
C981 C979 1.327 . S
C981 C997 1.429 1_556 S
C981 H1003 0.950 . S
C982 H978 0.949 . S
C982 C990 1.574 . S
C982 C998 1.368 . S
H983 C991 0.950 . S
H984 C989 0.950 . S
H985 C990 0.949 . S
H986 C992 0.950 . S
H987 C993 0.950 . S
H988 C994 0.949 . S
C989 H984 0.950 . S
C989 C991 1.327 . S
C989 C995 1.429 . S
C990 C982 1.574 . S
C990 H985 0.949 . S
C990 C996 1.368 . S
C991 C975 1.349 . S
C991 H983 0.950 . S
C991 C989 1.327 . S
C992 C980 1.349 1_554 S
C992 H986 0.950 . S
C992 C993 1.327 . S
C993 H987 0.950 . S
C993 C992 1.327 . S
C993 C997 1.429 . S
C994 C977 1.574 . S
C994 H988 0.949 . S
C994 C998 1.368 . S
C995 C976 1.429 . S
C995 C989 1.429 . S
C995 C996 1.523 . S
C996 C977 1.368 . S
C996 C990 1.368 . S
C996 C995 1.523 . S
C997 C981 1.429 1_554 S
C997 C993 1.429 . S
C997 C998 1.523 . S
C998 C982 1.368 . S
C998 C994 1.368 . S
C998 C997 1.523 . S
H999 C974 0.950 . S
H1000 C976 0.950 . S
H1001 C977 0.949 . S
H1002 C979 0.950 . S
H1003 C981 0.950 . S
C1004 C1005 1.349 . S
C1004 C1006 1.327 1_554 S
C1004 H1029 0.950 . S
C1005 C1004 1.349 . S
C1005 C1021 1.349 1_554 S
C1006 C1004 1.327 1_556 S
C1006 C1025 1.429 . S
C1006 H1030 0.946 1_556 S
C1007 C1024 1.574 . S
C1007 C1026 1.368 . S
C1007 H1031 0.949 . S
H1008 C1012 0.949 . S
C1009 C1010 1.349 . S
C1009 C1011 1.327 . S
C1009 H1032 0.950 . S
C1010 C1009 1.349 . S
C1010 C1022 1.349 . S
C1011 C1009 1.327 . S
C1011 C1027 1.429 . S
C1011 H1033 0.950 . S
C1012 H1008 0.949 . S
C1012 C1020 1.574 . S
C1012 C1028 1.368 . S
H1013 C1021 0.950 . S
H1014 C1019 0.950 . S
H1015 C1020 0.949 . S
H1016 C1022 0.950 . S
H1017 C1023 0.950 . S
H1018 C1024 0.949 . S
C1019 H1014 0.950 . S
C1019 C1021 1.327 . S
C1019 C1025 1.429 . S
C1020 C1012 1.574 . S
C1020 H1015 0.949 . S
C1020 C1026 1.368 . S
C1021 C1005 1.349 1_556 S
C1021 H1013 0.950 . S
C1021 C1019 1.327 . S
C1022 C1010 1.349 . S
C1022 H1016 0.950 . S
C1022 C1023 1.327 . S
C1023 H1017 0.950 . S
C1023 C1022 1.327 . S
C1023 C1027 1.429 . S
C1024 C1007 1.574 . S
C1024 H1018 0.949 . S
C1024 C1028 1.368 . S
C1025 C1006 1.429 . S
C1025 C1019 1.429 . S
C1025 C1026 1.523 . S
C1026 C1007 1.368 . S
C1026 C1020 1.368 . S
C1026 C1025 1.523 . S
C1027 C1011 1.429 . S
C1027 C1023 1.429 . S
C1027 C1028 1.523 . S
C1028 C1012 1.368 . S
C1028 C1024 1.368 . S
C1028 C1027 1.523 . S
H1029 C1004 0.950 . S
H1030 C1006 0.946 1_554 S
H1031 C1007 0.949 . S
H1032 C1009 0.950 . S
H1033 C1011 0.950 . S
C1034 C1035 1.349 . S
C1034 C1036 1.327 . S
C1034 H1059 0.950 . S
C1035 C1034 1.349 . S
C1035 C1051 1.349 . S
C1036 C1034 1.327 . S
C1036 C1055 1.429 . S
C1036 H1060 0.950 . S
C1037 C1054 1.574 . S
C1037 C1056 1.368 . S
C1037 H1061 0.949 . S
H1038 C1042 0.949 . S
C1039 C1040 1.349 . S
C1039 C1041 1.327 1_556 S
C1039 H1062 0.950 . S
C1040 C1039 1.349 . S
C1040 C1052 1.349 1_556 S
C1041 C1039 1.327 1_554 S
C1041 C1057 1.429 . S
C1041 H1063 0.950 1_554 S
C1042 H1038 0.949 . S
C1042 C1050 1.574 . S
C1042 C1058 1.368 . S
H1043 C1051 0.950 . S
H1044 C1049 0.950 . S
H1045 C1050 0.949 . S
H1046 C1052 0.950 . S
H1047 C1053 0.950 . S
H1048 C1054 0.949 . S
C1049 H1044 0.950 . S
C1049 C1051 1.327 . S
C1049 C1055 1.429 . S
C1050 C1042 1.574 . S
C1050 H1045 0.949 . S
C1050 C1056 1.368 . S
C1051 C1035 1.349 . S
C1051 H1043 0.950 . S
C1051 C1049 1.327 . S
C1052 C1040 1.349 1_554 S
C1052 H1046 0.950 . S
C1052 C1053 1.327 . S
C1053 H1047 0.950 . S
C1053 C1052 1.327 . S
C1053 C1057 1.429 . S
C1054 C1037 1.574 . S
C1054 H1048 0.949 . S
C1054 C1058 1.368 . S
C1055 C1036 1.429 . S
C1055 C1049 1.429 . S
C1055 C1056 1.523 . S
C1056 C1037 1.368 . S
C1056 C1050 1.368 . S
C1056 C1055 1.523 . S
C1057 C1041 1.429 . S
C1057 C1053 1.429 . S
C1057 C1058 1.523 . S
C1058 C1042 1.368 . S
C1058 C1054 1.368 . S
C1058 C1057 1.523 . S
H1059 C1034 0.950 . S
H1060 C1036 0.950 . S
H1061 C1037 0.949 . S
H1062 C1039 0.950 . S
H1063 C1041 0.950 1_556 S
C1064 C1065 1.349 . S
C1064 C1066 1.327 . S
C1064 H1089 0.950 . S
C1065 C1064 1.349 . S
C1065 C1081 1.349 . S
C1066 C1064 1.327 . S
C1066 C1085 1.429 . S
C1066 H1090 0.950 . S
C1067 C1084 1.574 . S
C1067 C1086 1.368 . S
C1067 H1091 0.949 . S
H1068 C1072 0.949 . S
C1069 C1070 1.349 . S
C1069 C1071 1.327 . S
C1069 H1092 0.950 . S
C1070 C1069 1.349 . S
C1070 C1082 1.349 . S
C1071 C1069 1.327 . S
C1071 C1087 1.429 . S
C1071 H1093 0.950 . S
C1072 H1068 0.949 . S
C1072 C1080 1.574 . S
C1072 C1088 1.368 . S
H1073 C1081 0.950 . S
H1074 C1079 0.950 . S
H1075 C1080 0.949 . S
H1076 C1082 0.950 . S
H1077 C1083 0.950 . S
H1078 C1084 0.949 . S
C1079 H1074 0.950 . S
C1079 C1081 1.327 . S
C1079 C1085 1.429 . S
C1080 C1072 1.574 . S
C1080 H1075 0.949 . S
C1080 C1086 1.368 . S
C1081 C1065 1.349 . S
C1081 H1073 0.950 . S
C1081 C1079 1.327 . S
C1082 C1070 1.349 . S
C1082 H1076 0.950 . S
C1082 C1083 1.327 . S
C1083 H1077 0.950 . S
C1083 C1082 1.327 . S
C1083 C1087 1.429 . S
C1084 C1067 1.574 . S
C1084 H1078 0.949 . S
C1084 C1088 1.368 . S
C1085 C1066 1.429 . S
C1085 C1079 1.429 . S
C1085 C1086 1.523 . S
C1086 C1067 1.368 . S
C1086 C1080 1.368 . S
C1086 C1085 1.523 . S
C1087 C1071 1.429 . S
C1087 C1083 1.429 . S
C1087 C1088 1.523 . S
C1088 C1072 1.368 . S
C1088 C1084 1.368 . S
C1088 C1087 1.523 . S
H1089 C1064 0.950 . S
H1090 C1066 0.950 . S
H1091 C1067 0.949 . S
H1092 C1069 0.950 . S
H1093 C1071 0.950 . S
C1094 C1095 1.349 . S
C1094 C1096 1.327 . S
C1094 H1119 0.950 . S
C1095 C1094 1.349 . S
C1095 C1111 1.349 . S
C1096 C1094 1.327 . S
C1096 C1115 1.429 . S
C1096 H1120 0.950 . S
C1097 C1114 1.574 . S
C1097 C1116 1.368 . S
C1097 H1121 0.949 . S
H1098 C1102 0.949 . S
C1099 C1100 1.349 . S
C1099 C1101 1.327 . S
C1099 H1122 0.950 . S
C1100 C1099 1.349 . S
C1100 C1112 1.349 . S
C1101 C1099 1.327 . S
C1101 C1117 1.429 . S
C1101 H1123 0.950 . S
C1102 H1098 0.949 . S
C1102 C1110 1.574 . S
C1102 C1118 1.368 . S
H1103 C1111 0.950 . S
H1104 C1109 0.950 . S
H1105 C1110 0.949 . S
H1106 C1112 0.950 . S
H1107 C1113 0.950 . S
H1108 C1114 0.949 . S
C1109 H1104 0.950 . S
C1109 C1111 1.327 . S
C1109 C1115 1.429 . S
C1110 C1102 1.574 . S
C1110 H1105 0.949 . S
C1110 C1116 1.368 . S
C1111 C1095 1.349 . S
C1111 H1103 0.950 . S
C1111 C1109 1.327 . S
C1112 C1100 1.349 . S
C1112 H1106 0.950 . S
C1112 C1113 1.327 . S
C1113 H1107 0.950 . S
C1113 C1112 1.327 . S
C1113 C1117 1.429 . S
C1114 C1097 1.574 . S
C1114 H1108 0.949 . S
C1114 C1118 1.368 . S
C1115 C1096 1.429 . S
C1115 C1109 1.429 . S
C1115 C1116 1.523 . S
C1116 C1097 1.368 . S
C1116 C1110 1.368 . S
C1116 C1115 1.523 . S
C1117 C1101 1.429 . S
C1117 C1113 1.429 . S
C1117 C1118 1.523 . S
C1118 C1102 1.368 . S
C1118 C1114 1.368 . S
C1118 C1117 1.523 . S
H1119 C1094 0.950 . S
H1120 C1096 0.950 . S
H1121 C1097 0.949 . S
H1122 C1099 0.950 . S
H1123 C1101 0.950 . S
C1124 C1125 1.349 . S
C1124 C1126 1.327 . S
C1124 H1149 0.950 . S
C1125 C1124 1.349 . S
C1125 C1141 1.349 . S
C1126 C1124 1.327 . S
C1126 C1145 1.429 . S
C1126 H1150 0.950 . S
C1127 C1144 1.574 . S
C1127 C1146 1.368 . S
C1127 H1151 0.949 . S
H1128 C1132 0.949 . S
C1129 C1130 1.349 . S
C1129 C1131 1.327 . S
C1129 H1152 0.950 . S
C1130 C1129 1.349 . S
C1130 C1142 1.349 . S
C1131 C1129 1.327 . S
C1131 C1147 1.429 . S
C1131 H1153 0.950 . S
C1132 H1128 0.949 . S
C1132 C1140 1.574 . S
C1132 C1148 1.368 . S
H1133 C1141 0.950 . S
H1134 C1139 0.950 . S
H1135 C1140 0.949 . S
H1136 C1142 0.950 . S
H1137 C1143 0.950 . S
H1138 C1144 0.949 . S
C1139 H1134 0.950 . S
C1139 C1141 1.327 . S
C1139 C1145 1.429 . S
C1140 C1132 1.574 . S
C1140 H1135 0.949 . S
C1140 C1146 1.368 . S
C1141 C1125 1.349 . S
C1141 H1133 0.950 . S
C1141 C1139 1.327 . S
C1142 C1130 1.349 . S
C1142 H1136 0.950 . S
C1142 C1143 1.327 . S
C1143 H1137 0.950 . S
C1143 C1142 1.327 . S
C1143 C1147 1.429 . S
C1144 C1127 1.574 . S
C1144 H1138 0.949 . S
C1144 C1148 1.368 . S
C1145 C1126 1.429 . S
C1145 C1139 1.429 . S
C1145 C1146 1.523 . S
C1146 C1127 1.368 . S
C1146 C1140 1.368 . S
C1146 C1145 1.523 . S
C1147 C1131 1.429 . S
C1147 C1143 1.429 . S
C1147 C1148 1.523 . S
C1148 C1132 1.368 . S
C1148 C1144 1.368 . S
C1148 C1147 1.523 . S
H1149 C1124 0.950 . S
H1150 C1126 0.950 . S
H1151 C1127 0.949 . S
H1152 C1129 0.950 . S
H1153 C1131 0.950 . S
C1154 C1155 1.349 . S
C1154 C1156 1.327 . S
C1154 H1179 0.950 . S
C1155 C1154 1.349 . S
C1155 C1171 1.349 . S
C1156 C1154 1.327 . S
C1156 C1175 1.429 . S
C1156 H1180 0.950 . S
C1157 C1174 1.574 . S
C1157 C1176 1.368 . S
C1157 H1181 0.949 . S
H1158 C1162 0.949 . S
C1159 C1160 1.349 . S
C1159 C1161 1.327 . S
C1159 H1182 0.950 . S
C1160 C1159 1.349 . S
C1160 C1172 1.349 . S
C1161 C1159 1.327 . S
C1161 C1177 1.429 . S
C1161 H1183 0.950 . S
C1162 H1158 0.949 . S
C1162 C1170 1.574 . S
C1162 C1178 1.368 . S
H1163 C1171 0.950 . S
H1164 C1169 0.950 . S
H1165 C1170 0.949 . S
H1166 C1172 0.950 . S
H1167 C1173 0.950 . S
H1168 C1174 0.949 . S
C1169 H1164 0.950 . S
C1169 C1171 1.327 . S
C1169 C1175 1.429 . S
C1170 C1162 1.574 . S
C1170 H1165 0.949 . S
C1170 C1176 1.368 . S
C1171 C1155 1.349 . S
C1171 H1163 0.950 . S
C1171 C1169 1.327 . S
C1172 C1160 1.349 . S
C1172 H1166 0.950 . S
C1172 C1173 1.327 . S
C1173 H1167 0.950 . S
C1173 C1172 1.327 . S
C1173 C1177 1.429 . S
C1174 C1157 1.574 . S
C1174 H1168 0.949 . S
C1174 C1178 1.368 . S
C1175 C1156 1.429 . S
C1175 C1169 1.429 . S
C1175 C1176 1.523 . S
C1176 C1157 1.368 . S
C1176 C1170 1.368 . S
C1176 C1175 1.523 . S
C1177 C1161 1.429 . S
C1177 C1173 1.429 . S
C1177 C1178 1.523 . S
C1178 C1162 1.368 . S
C1178 C1174 1.368 . S
C1178 C1177 1.523 . S
H1179 C1154 0.950 . S
H1180 C1156 0.950 . S
H1181 C1157 0.949 . S
H1182 C1159 0.950 . S
H1183 C1161 0.950 . S
C225 C163 1.170 . S
C230 C3 1.167 . S
C255 C17 1.167 . S
C260 C121 1.170 . S
C285 C31 1.167 . S
C290 C135 1.170 . S
C315 C149 1.170 . S
C320 C45 1.167 . S
C345 C59 1.167 . S
C350 C79 1.170 . S
C375 C73 1.167 . S
C380 C93 1.170 . S
C405 C107 1.170 . S
C410 C87 1.167 . S
C435 C65 1.170 . S
C440 C101 1.167 . S
C465 C51 1.170 . S
C470 C115 1.167 . S
C495 C129 1.167 . S
C500 C9 1.170 . S
C525 C23 1.170 . S
C530 C143 1.167 . S
C555 C157 1.167 . S
C560 C37 1.170 . S
C585 C171 1.167 . S
C590 C191 1.170 . S
C615 C185 1.167 . S
C620 C205 1.170 . S
C645 C219 1.170 . S
C650 C199 1.167 . S
C675 C177 1.170 . S
C680 C213 1.167 . S
C705 C63 1.028 . S
C710 C7 1.028 . S
C735 C21 1.028 . S
C740 C77 1.028 . S
C765 C35 1.028 . S
C770 C91 1.028 . S
C795 C105 1.028 . S
C800 C49 1.028 . S
C825 C119 1.028 . S
C830 C175 1.028 . S
C855 C189 1.028 . S
C860 C133 1.028 . S
C885 C147 1.028 . S
C890 C203 1.028 . S
C915 C217 1.028 . S
C920 C161 1.028 . S
C945 C204 1.323 . S
C950 C8 1.323 . S
C975 C218 1.323 . S
C980 C22 1.323 . S
C1005 C36 1.323 . S
C1010 C176 1.323 . S
C1035 C190 1.323 . S
C1040 C50 1.323 . S
C1065 C148 1.323 . S
C1070 C64 1.323 . S
C1095 C162 1.323 . S
C1100 C78 1.323 . S
C1125 C92 1.323 . S
C1130 C120 1.323 . S
C1155 C134 1.323 . S
C1160 C106 1.323 . S
