# Generated by pormake.
# Topology fnv, (5)-cn, num edge types: 1
# Building blocks:
#     Node 0, Type 0, BuildingBlock: BEQFEK_clean_sbu_0, # of connection points: 5
#     Node 1, Type 0, BuildingBlock: BEQFEK_clean_sbu_0, # of connection points: 5
#     Node 2, Type 0, BuildingBlock: BEQFEK_clean_sbu_0, # of connection points: 5
#     Node 3, Type 0, BuildingBlock: BEQFEK_clean_sbu_0, # of connection points: 5
#     Node 4, Type 0, BuildingBlock: BEQFEK_clean_sbu_0, # of connection points: 5
#     Node 5, Type 0, BuildingBlock: BEQFEK_clean_sbu_0, # of connection points: 5
#     Edge 6, Type (0, 0), BuildingBlock: ZUJKAS_clean_linker_0, # of connection points: 2
#     Edge 7, Type (0, 0), BuildingBlock: ZUJKAS_clean_linker_0, # of connection points: 2
#     Edge 8, Type (0, 0), BuildingBlock: ZUJKAS_clean_linker_0, # of connection points: 2
#     Edge 9, Type (0, 0), BuildingBlock: ZUJKAS_clean_linker_0, # of connection points: 2
#     Edge 10, Type (0, 0), BuildingBlock: ZUJKAS_clean_linker_0, # of connection points: 2
#     Edge 11, Type (0, 0), BuildingBlock: ZUJKAS_clean_linker_0, # of connection points: 2
#     Edge 12, Type (0, 0), BuildingBlock: ZUJKAS_clean_linker_0, # of connection points: 2
#     Edge 13, Type (0, 0), BuildingBlock: ZUJKAS_clean_linker_0, # of connection points: 2
#     Edge 14, Type (0, 0), BuildingBlock: ZUJKAS_clean_linker_0, # of connection points: 2
#     Edge 15, Type (0, 0), BuildingBlock: ZUJKAS_clean_linker_0, # of connection points: 2
#     Edge 16, Type (0, 0), BuildingBlock: ZUJKAS_clean_linker_0, # of connection points: 2
#     Edge 17, Type (0, 0), BuildingBlock: ZUJKAS_clean_linker_0, # of connection points: 2
#     Edge 18, Type (0, 0), BuildingBlock: ZUJKAS_clean_linker_0, # of connection points: 2
#     Edge 19, Type (0, 0), BuildingBlock: ZUJKAS_clean_linker_0, # of connection points: 2
#     Edge 20, Type (0, 0), BuildingBlock: ZUJKAS_clean_linker_0, # of connection points: 2
# Relax obj value: 0.494
# Max RMSD: 0.268
# Mean RMSD: 0.268
data_MOF--net-fnv--node1-BEQFEK_clean_sbu_0--edge1-ZUJKAS_clean_linker_0
_symmetry_space_group_name_H-M    P1
_symmetry_Int_Tables_number       1
_symmetry_cell_setting            triclinic
loop_
_symmetry_equiv_pos_as_xyz
'x, y, z'
_cell_length_a     44.026087
_cell_length_b     43.957969
_cell_length_c     36.592328
_cell_angle_alpha  90.125984
_cell_angle_beta   89.789445
_cell_angle_gamma 120.03316
loop_
_atom_site_label
_atom_site_type_symbol
_atom_site_fract_x
_atom_site_fract_y
_atom_site_fract_z
_atom_type_partial_charge
Co0 Co 0.25561 0.37286 0.98959 0.0
Co1 Co 0.25145 0.42428 0.04548 0.0
C2 C 0.2624 0.44227 0.96724 0.0
O3 O 0.26224 0.41378 0.96053 0.0
O4 O 0.25759 0.44988 -0.00052 0.0
C5 C 0.2249 0.32996 0.92901 0.0
O6 O 0.20834 0.34787 0.92838 0.0
C7 C 0.23621 0.47387 0.08314 0.0
C8 C 0.24939 0.46907 0.14027 0.0
C9 C 0.23871 0.48741 0.11798 0.0
N10 N 0.24555 0.44914 0.08471 0.0
N11 N 0.25322 0.44624 0.11894 0.0
C12 C 0.22319 0.48255 0.04924 0.0
H13 H 0.20981 0.45907 0.03138 0.0
H14 H 0.20471 0.49199 0.05603 0.0
H15 H 0.24584 0.50348 0.03403 0.0
C16 C 0.18778 0.32355 0.02468 0.0
N17 N 0.2163 0.35566 0.02083 0.0
N18 N 0.21358 0.37774 0.04302 0.0
C19 C 0.1828 0.36068 0.061 0.0
C20 C 0.1655 0.32572 0.05001 0.0
C21 C 0.18291 0.29093 0.00635 0.0
H22 H 0.2086 0.29245 0.00232 0.0
H23 H 0.17044 0.28817 0.97933 0.0
H24 H 0.16561 0.26728 0.02284 0.0
O25 O 0.29914 0.38731 0.0174 0.0
O26 O 0.29604 0.42524 0.05521 0.0
H27 H 0.18255 0.38229 0.11325 0.0
H28 H 0.14066 0.36218 0.09025 0.0
C29 C 0.16947 0.37817 0.08637 0.0
H30 H 0.17596 0.40418 0.07529 0.0
H31 H 0.26164 0.42907 0.12759 0.0
O32 O 0.2476 0.33647 0.9537 0.0
C33 C 0.3121 0.41 0.04294 0.0
Co34 Co 0.87048 0.25454 0.31179 0.0
Co35 Co 0.82414 0.25303 0.37733 0.0
C36 C 0.80621 0.26002 0.3003 0.0
O37 O 0.83281 0.25917 0.28797 0.0
O38 O 0.79954 0.25747 0.33436 0.0
C39 C 0.881 0.22861 0.2447 0.0
O40 O 0.84721 0.21642 0.24074 0.0
C41 C 0.76154 0.23377 0.42034 0.0
C42 C 0.78334 0.25817 0.47384 0.0
C43 C 0.75226 0.24018 0.4545 0.0
N44 N 0.79649 0.24789 0.41926 0.0
N45 N 0.80942 0.26216 0.45142 0.0
C46 C 0.73769 0.21368 0.38945 0.0
H47 H 0.74974 0.20167 0.37225 0.0
H48 H 0.71186 0.19293 0.39994 0.0
H49 H 0.73345 0.2319 0.37223 0.0
C50 C 0.85534 0.18701 0.34583 0.0
N51 N 0.8524 0.21609 0.34464 0.0
N52 N 0.83275 0.21543 0.37213 0.0
C53 C 0.82253 0.18603 0.39172 0.0
C54 C 0.83637 0.16697 0.37559 0.0
C55 C 0.87401 0.17763 0.31763 0.0
H56 H 0.90095 0.20005 0.31354 0.0
H57 H 0.8597 0.17216 0.2914 0.0
H58 H 0.87538 0.15398 0.32526 0.0
O59 O 0.90214 0.29977 0.33692 0.0
O60 O 0.86837 0.29748 0.38329 0.0
H61 H 0.80004 0.15462 0.44059 0.0
H62 H 0.77409 0.17102 0.41912 0.0
C63 C 0.80111 0.17723 0.42602 0.0
H64 H 0.81263 0.20029 0.44452 0.0
H65 H 0.83612 0.27562 0.45765 0.0
O66 O 0.89653 0.24646 0.27296 0.0
C67 C 0.89705 0.31328 0.36552 0.0
Co68 Co 0.61417 0.875 0.64316 0.0
Co69 Co 0.56307 0.81747 0.69781 0.0
C70 C 0.54708 0.81024 0.61924 0.0
O71 O 0.57466 0.83967 0.6134 0.0
O72 O 0.53935 0.79713 0.65118 0.0
C73 C 0.6608 0.89067 0.58469 0.0
O74 O 0.64686 0.85634 0.5848 0.0
C75 C 0.51026 0.7544 0.7367 0.0
C76 C 0.52387 0.7707 0.79432 0.0
C77 C 0.50028 0.74335 0.77245 0.0
N78 N 0.53879 0.78666 0.73747 0.0
N79 N 0.54672 0.79627 0.77196 0.0
C80 C 0.4907 0.73697 0.70248 0.0
H81 H 0.48413 0.75508 0.68806 0.0
H82 H 0.50778 0.73174 0.68425 0.0
H83 H 0.46594 0.71218 0.70794 0.0
C84 C 0.66511 0.86023 0.68029 0.0
N85 N 0.63233 0.85432 0.67489 0.0
N86 N 0.6104 0.8283 0.69601 0.0
C87 C 0.62827 0.81571 0.71423 0.0
C88 C 0.66344 0.83564 0.70488 0.0
C89 C 0.6975 0.889 0.66267 0.0
H90 H 0.69455 0.91226 0.65775 0.0
H91 H 0.7019 0.87946 0.63621 0.0
H92 H 0.72095 0.8968 0.67989 0.0
O93 O 0.59754 0.90244 0.67073 0.0
O94 O 0.5596 0.86004 0.70722 0.0
H95 H 0.60931 0.79665 0.7679 0.0
H96 H 0.62898 0.77434 0.74565 0.0
C97 C 0.61226 0.78626 0.74131 0.0
H98 H 0.58597 0.76575 0.73184 0.0
H99 H 0.56734 0.82062 0.78022 0.0
O100 O 0.65046 0.90503 0.60799 0.0
C101 C 0.57411 0.89154 0.69559 0.0
Co102 Co 0.73939 0.61871 0.98642 0.0
Co103 Co 0.74141 0.56745 0.0442 0.0
C104 C 0.73161 0.54848 0.96579 0.0
O105 O 0.73229 0.57707 0.95817 0.0
O106 O 0.73594 0.54135 -0.0016 0.0
C107 C 0.76347 0.65873 0.9208 0.0
O108 O 0.77023 0.63411 0.91041 0.0
C109 C 0.74546 0.51278 0.0863 0.0
C110 C 0.74394 0.5296 0.14296 0.0
C111 C 0.74465 0.50341 0.12258 0.0
N112 N 0.74549 0.54334 0.08529 0.0
N113 N 0.74467 0.55329 0.11922 0.0
C114 C 0.74143 0.4911 0.05316 0.0
H115 H 0.76354 0.50647 0.03406 0.0
H116 H 0.74026 0.46599 0.05992 0.0
H117 H 0.71674 0.48503 0.03914 0.0
C118 C 0.80677 0.66727 0.02146 0.0
N119 N 0.77804 0.63531 0.01812 0.0
N120 N 0.77994 0.61359 0.04138 0.0
C121 C 0.81044 0.63086 0.05973 0.0
C122 C 0.82829 0.66548 0.04777 0.0
C123 C 0.81222 0.69941 0.00174 0.0
H124 H 0.78726 0.69983 0.00114 0.0
H125 H 0.82049 0.69871 0.97323 0.0
H126 H 0.83258 0.7238 0.01508 0.0
O127 O 0.69551 0.60541 0.01349 0.0
O128 O 0.6973 0.56779 0.05247 0.0
H129 H 0.81198 0.61404 0.11403 0.0
H130 H 0.85209 0.62888 0.08866 0.0
C131 C 0.82304 0.61413 0.08672 0.0
H132 H 0.81414 0.58661 0.07865 0.0
H133 H 0.74358 0.57578 0.12612 0.0
O134 O 0.74903 0.65644 0.95157 0.0
C135 C 0.68188 0.58326 0.03941 0.0
Co136 Co 0.11174 0.73954 0.31838 0.0
Co137 Co 0.16333 0.74068 0.37757 0.0
C138 C 0.1727 0.73004 0.29896 0.0
O139 O 0.14626 0.73274 0.29012 0.0
O140 O 0.18228 0.73264 0.33207 0.0
C141 C 0.10184 0.77141 0.25721 0.0
O142 O 0.13628 0.78745 0.25685 0.0
C143 C 0.22798 0.75795 0.41792 0.0
C144 C 0.20578 0.73355 0.47141 0.0
C145 C 0.23694 0.75078 0.45192 0.0
N146 N 0.19312 0.7453 0.41744 0.0
N147 N 0.18014 0.73121 0.44967 0.0
C148 C 0.25176 0.77462 0.38575 0.0
H149 H 0.23685 0.77211 0.36069 0.0
H150 H 0.26886 0.80312 0.39098 0.0
H151 H 0.26868 0.76285 0.38149 0.0
C152 C 0.13021 0.807 0.3545 0.0
N153 N 0.13337 0.77823 0.35058 0.0
N154 N 0.15653 0.77968 0.37415 0.0
C155 C 0.16954 0.80982 0.39323 0.0
C156 C 0.15317 0.82807 0.38144 0.0
C157 C 0.10381 0.81294 0.33496 0.0
H158 H 0.07946 0.78757 0.3301 0.0
H159 H 0.11486 0.8257 0.30828 0.0
H160 H 0.09728 0.83038 0.35101 0.0
O161 O 0.08101 0.69528 0.34494 0.0
O162 O 0.11831 0.69728 0.38688 0.0
H163 H 0.18767 0.80539 0.44596 0.0
H164 H 0.20992 0.84964 0.42777 0.0
C165 C 0.19827 0.82142 0.42082 0.0
H166 H 0.21923 0.81704 0.40981 0.0
H167 H 0.15352 0.71876 0.45635 0.0
O168 O 0.08496 0.74878 0.28188 0.0
C169 C 0.0881 0.68185 0.37213 0.0
Co170 Co 0.37205 0.1171 0.64939 0.0
Co171 Co 0.42268 0.16843 0.70873 0.0
C172 C 0.44306 0.17862 0.63063 0.0
O173 O 0.41418 0.15155 0.62201 0.0
O174 O 0.44979 0.18899 0.6636 0.0
C175 C 0.33117 0.10744 0.58703 0.0
O176 O 0.35133 0.14173 0.58499 0.0
C177 C 0.47215 0.23176 0.74839 0.0
C178 C 0.46847 0.21144 0.80438 0.0
C179 C 0.48626 0.24145 0.78318 0.0
N180 N 0.44766 0.19753 0.74895 0.0
N181 N 0.44543 0.18555 0.78251 0.0
C182 C 0.4801 0.2548 0.71556 0.0
H183 H 0.45655 0.2448 0.69794 0.0
H184 H 0.48877 0.28227 0.72378 0.0
H185 H 0.50136 0.2545 0.69952 0.0
C186 C 0.32327 0.13522 0.68606 0.0
N187 N 0.35529 0.13882 0.68173 0.0
N188 N 0.3769 0.16157 0.70576 0.0
C189 C 0.35955 0.17381 0.72568 0.0
C190 C 0.32494 0.15737 0.7139 0.0
C191 C 0.29104 0.10886 0.6662 0.0
H192 H 0.2919 0.08437 0.66159 0.0
H193 H 0.28985 0.11985 0.63934 0.0
H194 H 0.26691 0.10246 0.68181 0.0
O195 O 0.38425 0.08554 0.67594 0.0
O196 O 0.42118 0.12327 0.71675 0.0
H197 H 0.38004 0.18947 0.77957 0.0
H198 H 0.35983 0.21331 0.76145 0.0
C199 C 0.3762 0.20142 0.75462 0.0
H200 H 0.40226 0.22241 0.74511 0.0
H201 H 0.42862 0.15954 0.7903 0.0
O202 O 0.33582 0.09077 0.61271 0.0
C203 C 0.40547 0.09275 0.70248 0.0
H204 H 0.64286 0.53195 0.08902 0.0
H205 H 0.57975 0.50348 0.09853 0.0
H206 H 0.57485 0.57891 0.02727 0.0
H207 H 0.63812 0.60708 0.01649 0.0
H208 H 0.53167 0.52079 0.12233 0.0
H209 H 0.51372 0.4865 0.97487 0.0
H210 H 0.55588 0.50548 -0.00311 0.0
H211 H 0.53829 0.53291 0.98338 0.0
C212 C 0.62857 0.54295 0.07574 0.0
C213 C 0.64546 0.57135 0.05128 0.0
C214 C 0.59243 0.52662 0.08133 0.0
C215 C 0.57255 0.53848 0.06279 0.0
C216 C 0.5897 0.56879 0.04102 0.0
H217 H 0.3525 0.46699 0.08577 0.0
H218 H 0.41544 0.49511 0.09516 0.0
C219 C 0.62587 0.58499 0.03509 0.0
C220 C 0.5338 0.51723 0.06376 0.0
H221 H 0.46249 0.47131 0.00909 0.0
C222 C 0.51646 0.5099 0.09762 0.0
C223 C 0.51418 0.50223 0.03157 0.0
C224 C 0.53143 0.50682 -0.00534 0.0
C225 C 0.47985 0.48854 0.10007 0.0
C226 C 0.46012 0.47488 0.06767 0.0
C227 C 0.4776 0.48179 0.03393 0.0
C228 C 0.42126 0.45476 0.06744 0.0
C229 C 0.46283 0.48037 0.13734 0.0
C230 C 0.40337 0.42249 0.04888 0.0
C231 C 0.36729 0.40659 0.04274 0.0
C232 C 0.34848 0.42267 0.05519 0.0
C233 C 0.36611 0.45378 0.07586 0.0
C234 C 0.40219 0.46985 0.08155 0.0
H235 H 0.4814 0.48202 0.1588 0.0
H236 H 0.4548 0.49996 0.14413 0.0
H237 H 0.43921 0.45377 0.13819 0.0
H238 H 0.41761 0.41038 0.03773 0.0
H239 H 0.35449 0.38258 0.02687 0.0
H240 H 0.02804 0.63387 0.33733 0.0
H241 H -0.00526 0.57072 0.34855 0.0
H242 H 0.05825 0.58379 0.44321 0.0
H243 H 0.09211 0.64695 0.43194 0.0
H244 H 0.05803 0.53678 0.39477 0.0
H245 H 0.92182 0.50598 0.42187 0.0
H246 H 0.93951 0.53147 0.38105 0.0
H247 H 0.95879 0.55011 0.42462 0.0
C248 C 0.0343 0.62352 0.36117 0.0
C249 C 0.06296 0.64543 0.38353 0.0
C250 C 0.01514 0.58736 0.36761 0.0
C251 C 0.02397 0.5726 0.39678 0.0
C252 C 0.05105 0.59469 0.42053 0.0
H253 H 0.89962 0.34625 0.42962 0.0
H254 H 0.93432 0.40903 0.44257 0.0
C255 C 0.07032 0.63079 0.41405 0.0
C256 C 0.00787 0.534 0.39974 0.0
H257 H 0.92919 0.45779 0.40218 0.0
C258 C 0.02988 0.51948 0.39699 0.0
C259 C 0.97125 0.51151 0.40301 0.0
C260 C 0.94651 0.52557 0.40819 0.0
C261 C 0.01608 0.48301 0.39579 0.0
C262 C 0.97932 0.46058 0.39671 0.0
C263 C 0.95741 0.47506 0.40113 0.0
C264 C 0.96272 0.42216 0.39132 0.0
C265 C 0.04099 0.46889 0.39329 0.0
C266 C 0.96794 0.4086 0.35861 0.0
C267 C 0.9483 0.37262 0.35118 0.0
C268 C 0.92275 0.34974 0.37614 0.0
C269 C 0.91895 0.3632 0.4097 0.0
C270 C 0.93871 0.39908 0.41717 0.0
H271 H 0.0672 0.48789 0.4045 0.0
H272 H 0.03061 0.44362 0.40821 0.0
H273 H 0.04455 0.46428 0.36416 0.0
H274 H 0.98586 0.42603 0.33798 0.0
H275 H 0.95168 0.36314 0.325 0.0
H276 H 0.60116 0.96179 0.68247 0.0
H277 H 0.57295 -0.00348 0.69502 0.0
H278 H 0.48688 0.90703 0.74773 0.0
H279 H 0.51533 0.87259 0.7365 0.0
H280 H 0.51224 0.9815 0.66586 0.0
H281 H 0.49984 0.98389 0.81622 0.0
H282 H 0.52843 0.97096 0.79427 0.0
H283 H 0.48224 0.94007 0.79895 0.0
C284 C 0.57668 0.94979 0.69756 0.0
C285 C 0.56041 0.91437 0.70826 0.0
C286 C 0.56057 0.96965 0.7047 0.0
C287 C 0.5279 0.95445 0.72252 0.0
C288 C 0.51243 0.9196 0.73471 0.0
H289 H 0.37956 0.02512 0.67813 0.0
H290 H 0.4059 0.98817 0.6872 0.0
C291 C 0.52869 0.89985 0.72798 0.0
C292 C 0.50804 0.97342 0.72413 0.0
H293 H 0.46302 -0.00136 0.78113 0.0
C294 C 0.50175 0.98549 0.69114 0.0
C295 C 0.49441 0.97867 0.75712 0.0
C296 C 0.50187 0.96802 0.79368 0.0
C297 C 0.48204 0.00245 0.69009 0.0
C298 C 0.46719 0.00644 0.72284 0.0
C299 C 0.47382 0.99483 0.75598 0.0
C300 C 0.44682 0.02487 0.72322 0.0
C301 C 0.47808 0.01669 0.65398 0.0
C302 C 0.45957 0.05644 0.7426 0.0
C303 C 0.4443 0.07734 0.73795 0.0
C304 C 0.41612 0.06711 0.7136 0.0
C305 C 0.40153 0.03401 0.69666 0.0
C306 C 0.41666 0.01295 0.70164 0.0
H307 H 0.49816 0.01928 0.63379 0.0
H308 H 0.45186 -0.00158 0.64242 0.0
H309 H 0.4803 0.04282 0.65753 0.0
H310 H 0.48264 0.06593 0.75966 0.0
H311 H 0.45601 0.1025 0.75177 0.0
H312 H 0.15902 0.72074 0.22554 0.0
H313 H 0.17612 0.68865 0.1834 0.0
H314 H 0.23966 0.67994 0.26756 0.0
H315 H 0.22349 0.71259 0.30958 0.0
H316 H 0.26819 0.68774 0.19708 0.0
H317 H 0.12772 0.58278 0.20405 0.0
H318 H 0.13606 0.62457 0.18701 0.0
H319 H 0.14595 0.62058 0.23375 0.0
C320 C 0.17734 0.71278 0.23482 0.0
C321 C 0.18922 0.71846 0.27119 0.0
C322 C 0.18696 0.69436 0.21073 0.0
C323 C 0.20833 0.68116 0.22278 0.0
C324 C 0.22288 0.68969 0.25788 0.0
H325 H 0.21153 0.4931 0.18248 0.0
H326 H 0.20494 0.54226 0.20393 0.0
C327 C 0.21351 0.7083 0.2819 0.0
C328 C 0.21211 0.65493 0.20098 0.0
H329 H 0.16598 0.56979 0.17201 0.0
C330 C 0.24587 0.66209 0.19107 0.0
C331 C 0.18285 0.62134 0.19382 0.0
C332 C 0.1461 0.61158 0.20541 0.0
C333 C 0.25128 0.63617 0.17497 0.0
C334 C 0.22204 0.60253 0.16823 0.0
C335 C 0.18823 0.59573 0.17714 0.0
C336 C 0.22605 0.57308 0.15467 0.0
C337 C 0.28827 0.64444 0.16689 0.0
C338 C 0.23988 0.57415 0.11983 0.0
C339 C 0.24378 0.54617 0.10761 0.0
C340 C 0.2334 0.51651 0.12987 0.0
C341 C 0.21951 0.51554 0.1647 0.0
C342 C 0.21568 0.54351 0.17691 0.0
H343 H 0.3081 0.66917 0.18027 0.0
H344 H 0.29234 0.6227 0.17614 0.0
H345 H 0.2929 0.64748 0.13695 0.0
H346 H 0.24776 0.59665 0.10218 0.0
H347 H 0.25568 0.54825 0.08115 0.0
H348 H 0.51038 0.23238 0.64016 0.0
H349 H 0.5599 0.24813 0.5994 0.0
H350 H 0.48992 0.17665 0.5179 0.0
H351 H 0.44006 0.16041 0.55862 0.0
H352 H 0.54077 0.16163 0.54044 0.0
H353 H 0.60116 0.30251 0.50447 0.0
H354 H 0.59245 0.2944 0.5525 0.0
H355 H 0.5565 0.27686 0.52076 0.0
C356 C 0.50527 0.2208 0.61315 0.0
C357 C 0.47129 0.19471 0.60292 0.0
C358 C 0.53367 0.23001 0.58976 0.0
C359 C 0.52852 0.21357 0.55565 0.0
C360 C 0.49435 0.18964 0.54415 0.0
H361 H 0.7047 0.24966 0.41577 0.0
H362 H 0.64849 0.24149 0.43724 0.0
C363 C 0.46591 0.18042 0.5675 0.0
C364 C 0.55898 0.21697 0.53504 0.0
H365 H 0.63817 0.27686 0.49884 0.0
C366 C 0.56181 0.18674 0.53077 0.0
C367 C 0.58629 0.24971 0.52244 0.0
C368 C 0.58387 0.28267 0.52493 0.0
C369 C 0.59195 0.18861 0.51563 0.0
C370 C 0.62003 0.22163 0.50489 0.0
C371 C 0.61664 0.25165 0.50759 0.0
C372 C 0.6535 0.22557 0.49171 0.0
C373 C 0.59373 0.15537 0.51165 0.0
C374 C 0.6749 0.2195 0.5154 0.0
C375 C 0.7069 0.22385 0.50312 0.0
C376 C 0.71774 0.234 0.4669 0.0
C377 C 0.69639 0.24041 0.44337 0.0
C378 C 0.66451 0.23626 0.45571 0.0
H379 H 0.56727 0.13154 0.51289 0.0
H380 H 0.60645 0.15526 0.48542 0.0
H381 H 0.60967 0.15385 0.53425 0.0
H382 H 0.667 0.2118 0.5435 0.0
H383 H 0.72317 0.21927 0.52189 0.0
H384 H 0.47839 0.67667 0.74861 0.0
H385 H 0.42868 0.622 0.77162 0.0
H386 H 0.40649 0.68103 0.85102 0.0
H387 H 0.45547 0.7358 0.82733 0.0
H388 H 0.42212 0.59734 0.84151 0.0
H389 H 0.30946 0.61541 0.80835 0.0
H390 H 0.35217 0.64139 0.78753 0.0
H391 H 0.34376 0.65194 0.8326 0.0
C392 C 0.46226 0.67797 0.77029 0.0
C393 C 0.47007 0.71039 0.78563 0.0
C394 C 0.43408 0.6468 0.78353 0.0
C395 C 0.41339 0.64759 0.81236 0.0
C396 C 0.42146 0.67995 0.82801 0.0
H397 H 0.27509 0.50972 0.97329 0.0
H398 H 0.3068 0.55729 0.9296 0.0
C399 C 0.44963 0.71112 0.81477 0.0
C400 C 0.38543 0.61447 0.82838 0.0
H401 H 0.29881 0.57075 0.8525 0.0
C402 C 0.39503 0.59118 0.84337 0.0
C403 C 0.35018 0.60668 0.8308 0.0
C404 C 0.33814 0.63001 0.81365 0.0
C405 C 0.37064 0.56102 0.8622 0.0
C406 C 0.33559 0.5537 0.86551 0.0
C407 C 0.3257 0.57647 0.84971 0.0
C408 C 0.3099 0.52399 0.88792 0.0
C409 C 0.38295 0.53806 0.87986 0.0
C410 C 0.29959 0.48934 0.87802 0.0
C411 C 0.28156 0.46205 0.90296 0.0
C412 C 0.27357 0.46909 0.93815 0.0
C413 C 0.28108 0.5034 0.94658 0.0
C414 C 0.29917 0.53066 0.92163 0.0
H415 H 0.41202 0.55084 0.88028 0.0
H416 H 0.37304 0.53149 0.90837 0.0
H417 H 0.37252 0.51311 0.86434 0.0
H418 H 0.30727 0.48373 0.85183 0.0
H419 H 0.27577 0.43585 0.89539 0.0
H420 H 0.74547 0.26047 0.31511 0.0
H421 H 0.72018 0.28893 0.27923 0.0
H422 H 0.79648 0.31097 0.19409 0.0
H423 H 0.82128 0.28172 0.22926 0.0
H424 H 0.76084 0.35784 0.2667 0.0
H425 H 0.7114 0.29019 0.13435 0.0
H426 H 0.71901 0.2693 0.17293 0.0
H427 H 0.75485 0.29851 0.14376 0.0
C428 C 0.75614 0.27028 0.28825 0.0
C429 C 0.78575 0.26929 0.27535 0.0
C430 C 0.74159 0.28651 0.26773 0.0
C431 C 0.7564 0.30202 0.23398 0.0
C432 C 0.78415 0.29859 0.21972 0.0
H433 H 0.78542 0.47516 0.10474 0.0
H434 H 0.78303 0.42284 0.13127 0.0
C435 C 0.79852 0.28207 0.24008 0.0
C436 C 0.74751 0.32716 0.21723 0.0
H437 H 0.72751 0.35151 0.13642 0.0
C438 C 0.75279 0.35606 0.23842 0.0
C439 C 0.73745 0.32497 0.18026 0.0
C440 C 0.73002 0.29386 0.15663 0.0
C441 C 0.74991 0.38368 0.22324 0.0
C442 C 0.74085 0.38201 0.18599 0.0
C443 C 0.73448 0.35264 0.16499 0.0
C444 C 0.74001 0.4116 0.168 0.0
C445 C 0.75831 0.41521 0.24676 0.0
C446 C 0.71636 0.42223 0.17967 0.0
C447 C 0.71785 0.45213 0.16472 0.0
C448 C 0.74252 0.47133 0.13741 0.0
C449 C 0.76573 0.4603 0.12527 0.0
C450 C 0.7644 0.43053 0.14038 0.0
H451 H 0.77214 0.41566 0.27227 0.0
H452 H 0.7749 0.44003 0.23159 0.0
H453 H 0.73355 0.41442 0.25456 0.0
H454 H 0.69712 0.40769 0.20069 0.0
H455 H 0.69968 0.46022 0.17441 0.0
H456 H 0.24742 0.70682 0.49518 0.0
H457 H 0.30326 0.71341 0.51548 0.0
H458 H 0.35899 0.81075 0.4557 0.0
H459 H 0.30351 0.80564 0.43753 0.0
H460 H 0.35879 0.71771 0.4769 0.0
H461 H 0.39965 0.83976 0.55653 0.0
H462 H 0.35582 0.81335 0.53893 0.0
H463 H 0.39077 0.84352 0.50947 0.0
C464 C 0.27159 0.72979 0.4866 0.0
C465 C 0.27098 0.75537 0.46411 0.0
C466 C 0.30343 0.73333 0.49794 0.0
C467 C 0.33521 0.76261 0.48718 0.0
C468 C 0.33473 0.78809 0.46458 0.0
H469 H 0.54928 0.8372 0.55143 0.0
H470 H 0.49917 0.821 0.51163 0.0
C471 C 0.30289 0.78477 0.45359 0.0
C472 C 0.36882 0.76689 0.50042 0.0
H473 H 0.44151 0.82148 0.54991 0.0
C474 C 0.37696 0.74041 0.49281 0.0
C475 C 0.3923 0.79645 0.52135 0.0
C476 C 0.3841 0.82471 0.53239 0.0
C477 C 0.40813 0.74283 0.50557 0.0
C478 C 0.43153 0.77244 0.52628 0.0
C479 C 0.4236 0.79905 0.53349 0.0
C480 C 0.46324 0.77566 0.54347 0.0
C481 C 0.4159 0.71385 0.49698 0.0
C482 C 0.45987 0.75441 0.57348 0.0
C483 C 0.48844 0.76367 0.59647 0.0
C484 C 0.52062 0.7945 0.5899 0.0
C485 C 0.52479 0.81351 0.55757 0.0
C486 C 0.49619 0.80429 0.5347 0.0
H487 H 0.39927 0.69679 0.47439 0.0
H488 H 0.44395 0.72494 0.48944 0.0
H489 H 0.41071 0.69727 0.52164 0.0
H490 H 0.43451 0.73237 0.58083 0.0
H491 H 0.48448 0.74814 0.62079 0.0
H492 H 0.5461 0.28755 0.74591 0.0
H493 H 0.59443 0.34325 0.76808 0.0
H494 H 0.54231 0.32645 0.8723 0.0
H495 H 0.49316 0.27133 0.84979 0.0
H496 H 0.56784 0.39391 0.84438 0.0
H497 H 0.66961 0.35427 0.84138 0.0
H498 H 0.64688 0.3492 0.79911 0.0
H499 H 0.62332 0.32291 0.83792 0.0
C500 C 0.54447 0.29609 0.77322 0.0
C501 C 0.51541 0.27551 0.79585 0.0
C502 C 0.57246 0.32761 0.78607 0.0
C503 C 0.57204 0.33875 0.82189 0.0
C504 C 0.54309 0.31824 0.84454 0.0
H505 H 0.71829 0.48091 0.97347 0.0
H506 H 0.68432 0.43214 0.93199 0.0
C507 C 0.51511 0.28679 0.8317 0.0
C508 C 0.60141 0.37201 0.83595 0.0
H509 H 0.68784 0.41237 0.86001 0.0
C510 C 0.59418 0.39814 0.84753 0.0
C511 C 0.63561 0.37718 0.84014 0.0
C512 C 0.64443 0.34936 0.82929 0.0
C513 C 0.61998 0.42903 0.86414 0.0
C514 C 0.65422 0.43424 0.86846 0.0
C515 C 0.6617 0.40843 0.85615 0.0
C516 C 0.68119 0.46449 0.88938 0.0
C517 C 0.60985 0.45498 0.87852 0.0
C518 C 0.69249 0.49904 0.87819 0.0
C519 C 0.7116 0.52704 0.90208 0.0
C520 C 0.7199 0.52085 0.9374 0.0
C521 C 0.71182 0.4866 0.94681 0.0
C522 C 0.69248 0.45863 0.92304 0.0
H523 H 0.58093 0.44362 0.87954 0.0
H524 H 0.6205 0.46399 0.9064 0.0
H525 H 0.62091 0.47828 0.86033 0.0
H526 H 0.68473 0.50413 0.85188 0.0
H527 H 0.71792 0.55318 0.89366 0.0
H528 H 0.30566 0.15458 0.78477 0.0
H529 H 0.26249 0.16845 0.80944 0.0
H530 H 0.23517 0.18252 0.70004 0.0
H531 H 0.27956 0.16983 0.67532 0.0
H532 H 0.25284 0.23827 0.74072 0.0
H533 H 0.15833 0.12387 0.82026 0.0
H534 H 0.20163 0.13315 0.83174 0.0
H535 H 0.18592 0.12063 0.78556 0.0
C536 C 0.29011 0.16024 0.76605 0.0
C537 C 0.29609 0.1617 0.72832 0.0
C538 C 0.26495 0.16745 0.78006 0.0
C539 C 0.24502 0.17577 0.75653 0.0
C540 C 0.2499 0.17565 0.71862 0.0
H541 H 0.18208 0.31286 0.86926 0.0
H542 H 0.17265 0.26939 0.82191 0.0
C543 C 0.27524 0.16853 0.70458 0.0
C544 C 0.22437 0.19074 0.77221 0.0
H545 H 0.1754 0.18228 0.84781 0.0
C546 C 0.23468 0.22561 0.76318 0.0
C547 C 0.20026 0.17403 0.80109 0.0
C548 C 0.18566 0.13569 0.80985 0.0
C549 C 0.22548 0.24568 0.78548 0.0
C550 C 0.2053 0.23018 0.81726 0.0
C551 C 0.19131 0.19415 0.82364 0.0
C552 C 0.2057 0.25234 0.8477 0.0
C553 C 0.24063 0.28424 0.77719 0.0
C554 C 0.22664 0.25627 0.8781 0.0
C555 C 0.23222 0.281 0.90492 0.0
C556 C 0.21687 0.3022 0.90182 0.0
C557 C 0.19452 0.29708 0.87217 0.0
C558 C 0.189 0.27227 0.84519 0.0
H559 H 0.25689 0.29238 0.75194 0.0
H560 H 0.21905 0.29009 0.77369 0.0
H561 H 0.25712 0.30035 0.80034 0.0
H562 H 0.23987 0.24117 0.88033 0.0
H563 H 0.24924 0.28403 0.92762 0.0
H564 H 0.85956 0.19945 0.17676 0.0
H565 H 0.89437 0.1893 0.13093 0.0
H566 H 0.98097 0.22837 0.20641 0.0
H567 H 0.94665 0.23831 0.25202 0.0
H568 H 0.95492 0.24307 0.10349 0.0
H569 H 0.98378 0.14526 0.16201 0.0
H570 H 0.94705 0.14972 0.1772 0.0
H571 H 0.99018 0.17726 0.19609 0.0
C572 C 0.88583 0.20528 0.18371 0.0
C573 C 0.90057 0.22006 0.21778 0.0
C574 C 0.90552 0.19923 0.15764 0.0
C575 C 0.93992 0.20733 0.16559 0.0
C576 C 0.95411 0.22091 0.20007 0.0
H577 H 0.14095 0.30772 0.11926 0.0
H578 H 0.08071 0.26651 0.1381 0.0
C579 C 0.93464 0.22716 0.22593 0.0
C580 C 0.96354 0.20773 0.13664 0.0
H581 H 0.03227 0.19332 0.12683 0.0
C582 C 0.97106 0.23113 0.10752 0.0
C583 C 0.98416 0.19172 0.14175 0.0
C584 C 0.97554 0.16428 0.17078 0.0
C585 C 0.00163 0.24281 0.08663 0.0
C586 C 0.02467 0.2301 0.09491 0.0
C587 C 0.01475 0.20333 0.12091 0.0
C588 C 0.06166 0.24956 0.08307 0.0
C589 C 0.0109 0.27145 0.05875 0.0
C590 C 0.07101 0.25281 0.04602 0.0
C591 C 0.1053 0.27684 0.03524 0.0
C592 C 0.13054 0.29756 0.06145 0.0
C593 C 0.12168 0.29247 0.0986 0.0
C594 C 0.08747 0.26869 0.10934 0.0
H595 H 0.99141 0.28045 0.05803 0.0
H596 H 0.03709 0.29442 0.06479 0.0
H597 H 0.01209 0.26156 0.03117 0.0
H598 H 0.0515 0.23796 0.02543 0.0
H599 H 0.11166 0.28036 0.00637 0.0
H600 H 0.77343 0.10865 0.38509 0.0
H601 H 0.76165 0.05278 0.41109 0.0
H602 H 0.87286 0.08993 0.41467 0.0
H603 H 0.8847 0.147 0.39048 0.0
H604 H 0.77604 0.0009 0.39404 0.0
H605 H 0.8467 0.07103 0.52096 0.0
H606 H 0.83815 0.09371 0.48509 0.0
H607 H 0.87096 0.08123 0.47887 0.0
C608 C 0.79529 0.10474 0.39125 0.0
C609 C 0.82987 0.13201 0.38643 0.0
C610 C 0.78861 0.07276 0.4057 0.0
C611 C 0.81642 0.06735 0.41528 0.0
C612 C 0.85107 0.09378 0.40806 0.0
H613 H 0.69835 0.87077 0.54059 0.0
H614 H 0.74607 0.9082 0.49841 0.0
C615 C 0.85778 0.12616 0.39404 0.0
C616 C 0.80817 0.0357 0.4368 0.0
H617 H 0.80453 0.01209 0.52603 0.0
C618 C 0.78304 0.00292 0.4227 0.0
C619 C 0.81786 0.03849 0.47403 0.0
C620 C 0.84479 0.07293 0.49087 0.0
C621 C 0.76367 0.97414 0.44586 0.0
C622 C 0.77056 0.97828 0.48377 0.0
C623 C 0.79919 0.00939 0.49692 0.0
C624 C 0.7438 0.95522 0.51058 0.0
C625 C 0.73351 0.94099 0.43025 0.0
C626 C 0.72734 0.96948 0.53177 0.0
C627 C 0.70055 0.94847 0.55592 0.0
C628 C 0.68944 0.91261 0.5592 0.0
C629 C 0.70617 0.89829 0.53828 0.0
C630 C 0.73337 0.91956 0.51422 0.0
H631 H 0.73043 0.94302 0.40038 0.0
H632 H 0.73794 0.91861 0.43509 0.0
H633 H 0.70862 0.935 0.44406 0.0
H634 H 0.73485 -0.00307 0.52915 0.0
H635 H 0.68823 0.96029 0.57164 0.0
H636 H 0.6755 0.78182 0.69418 0.0
H637 H 0.71673 0.77051 0.72809 0.0
H638 H 0.75759 0.87058 0.78252 0.0
H639 H 0.71587 0.88166 0.74888 0.0
H640 H 0.79434 0.80931 0.74635 0.0
H641 H 0.70189 0.79118 0.86019 0.0
H642 H 0.6911 0.79357 0.81321 0.0
H643 H 0.72292 0.83253 0.83646 0.0
C644 C 0.694 0.80171 0.71268 0.0
C645 C 0.69255 0.83229 0.71954 0.0
C646 C 0.71767 0.79545 0.7317 0.0
C647 C 0.73995 0.81969 0.7578 0.0
C648 C 0.74055 0.85168 0.76238 0.0
H649 H 0.7825 0.72506 0.94214 0.0
H650 H 0.79134 0.7739 0.90342 0.0
C651 C 0.71678 0.85791 0.74335 0.0
C652 C 0.75655 0.80797 0.78481 0.0
H653 H 0.7402 0.77016 0.86886 0.0
C654 C 0.78325 0.80146 0.77354 0.0
C655 C 0.74197 0.79796 0.82019 0.0
C656 C 0.71278 0.80392 0.83341 0.0
C657 C 0.79464 0.78353 0.79634 0.0
C658 C 0.77803 0.77103 0.8306 0.0
C659 C 0.753 0.77973 0.84263 0.0
C660 C 0.78226 0.74522 0.85265 0.0
C661 C 0.82371 0.77754 0.78311 0.0
C662 C 0.77552 0.71323 0.83694 0.0
C663 C 0.77132 0.68552 0.85905 0.0
C664 C 0.77263 0.68909 0.89718 0.0
C665 C 0.78098 0.72154 0.91279 0.0
C666 C 0.78623 0.74952 0.89068 0.0
H667 H 0.8426 0.79978 0.76579 0.0
H668 H 0.83816 0.77433 0.8062 0.0
H669 H 0.81235 0.75347 0.766 0.0
H670 H 0.77122 0.70879 0.80784 0.0
H671 H 0.76483 0.66067 0.84646 0.0
H672 H 0.84805 0.68524 0.11777 0.0
H673 H 0.90586 0.72957 0.13957 0.0
H674 H 0.94274 0.75501 0.02823 0.0
H675 H 0.88476 0.70979 0.00635 0.0
H676 H 0.9833 0.73909 0.0691 0.0
H677 H 0.96299 0.83546 0.14493 0.0
H678 H 0.92955 0.79209 0.15765 0.0
H679 H 0.9322 0.80656 0.11104 0.0
C680 C 0.86843 0.70059 0.09802 0.0
C681 C 0.86231 0.69415 0.06054 0.0
C682 C 0.90122 0.72634 0.11039 0.0
C683 C 0.92834 0.74621 0.08545 0.0
C684 C 0.92195 0.74041 0.04784 0.0
H685 H 0.12872 0.81286 0.19638 0.0
H686 H 0.09558 0.82192 0.14799 0.0
C687 C 0.88902 0.7146 0.03544 0.0
C688 C 0.96432 0.76829 0.09943 0.0
H689 H 0.00577 0.82082 0.1724 0.0
C690 C 0.98905 0.75818 0.09066 0.0
C691 C 0.97198 0.79363 0.12701 0.0
C692 C 0.94782 0.80781 0.13534 0.0
C693 C 0.01878 0.76872 0.11242 0.0
C694 C 0.02371 0.79007 0.1433 0.0
C695 C 0.00157 0.80403 0.14895 0.0
C696 C 0.04518 0.7903 0.17418 0.0
C697 C 0.04232 0.75361 0.10482 0.0
C698 C 0.02777 0.77041 0.20517 0.0
C699 C 0.04639 0.76507 0.23256 0.0
C700 C 0.08285 0.77961 0.22949 0.0
C701 C 0.10056 0.80106 0.19928 0.0
C702 C 0.08178 0.80634 0.17169 0.0
H703 H 0.03418 0.73664 0.08011 0.0
H704 H 0.06968 0.77526 0.10074 0.0
H705 H 0.04212 0.73779 0.12855 0.0
H706 H -0.00054 0.75769 0.20741 0.0
H707 H 0.03204 0.74879 0.25568 0.0
H708 H 0.16467 0.88429 0.33994 0.0
H709 H 0.18069 0.94332 0.36163 0.0
H710 H 0.1723 0.90805 0.47313 0.0
H711 H 0.15469 0.84886 0.45158 0.0
H712 H 0.14876 0.95631 0.4635 0.0
H713 H 0.28027 0.00289 0.39972 0.0
H714 H 0.24244 0.98381 0.37055 0.0
H715 H 0.24842 0.95675 0.40312 0.0
C716 C 0.1655 0.88909 0.36906 0.0
C717 C 0.15923 0.86246 0.39423 0.0
C718 C 0.17479 0.92275 0.38136 0.0
C719 C 0.17829 0.93013 0.41892 0.0
C720 C 0.16983 0.90289 0.444 0.0
H721 H 0.27622 0.04088 0.59281 0.0
H722 H 0.23298 0.00695 0.5463 0.0
C723 C 0.16023 0.86927 0.43174 0.0
C724 C 0.19476 0.96651 0.43275 0.0
H725 H 0.27616 0.03752 0.44523 0.0
C726 C 0.17639 0.97465 0.45875 0.0
C727 C 0.23068 0.99062 0.42607 0.0
C728 C 0.25181 0.98324 0.3985 0.0
C729 C 0.1939 0.00448 0.48096 0.0
C730 C 0.23057 0.02627 0.47713 0.0
C731 C 0.24804 0.02051 0.4482 0.0
C732 C 0.25231 0.04946 0.50701 0.0
C733 C 0.1735 0.01107 0.51 0.0
C734 C 0.27765 0.08462 0.50029 0.0
C735 C 0.30269 0.10409 0.5269 0.0
C736 C 0.30303 0.08836 0.5602 0.0
C737 C 0.2768 0.05359 0.56728 0.0
C738 C 0.2517 0.03434 0.54092 0.0
H739 H 0.14621 0.00185 0.50086 0.0
H740 H 0.17202 -0.0039 0.53498 0.0
H741 H 0.1862 0.03939 0.51714 0.0
H742 H 0.27884 0.09651 0.47404 0.0
H743 H 0.32259 0.13091 0.5208 0.0
loop_
_geom_bond_atom_site_label_1
_geom_bond_atom_site_label_2
_geom_bond_distance
_geom_bond_site_symmetry_2
_ccdc_geom_bond_type
Co0 O3 1.970 . S
Co0 N17 1.989 1_556 S
Co0 O25 1.967 1_556 S
Co0 O32 1.920 . S
Co1 O4 1.966 1_554 S
Co1 N10 2.022 . S
Co1 N18 1.993 . S
Co1 O26 1.941 . S
C2 O3 1.258 . S
C2 O4 1.263 . S
O3 Co0 1.970 . S
O3 C2 1.258 . S
O4 Co1 1.966 1_556 S
O4 C2 1.263 . S
C5 O6 1.235 . S
C5 O32 1.289 . S
O6 C5 1.235 . S
C7 C9 1.400 . S
C7 N10 1.351 . S
C7 C12 1.501 . S
C8 C9 1.387 . S
C8 N11 1.341 . S
C9 C7 1.400 . S
C9 C8 1.387 . S
N10 Co1 2.022 . S
N10 C7 1.351 . S
N10 N11 1.365 . S
N11 C8 1.341 . S
N11 N10 1.365 . S
N11 H31 0.862 . S
C12 C7 1.501 . S
C12 H13 0.961 . S
C12 H14 0.961 . S
C12 H15 0.960 . S
H13 C12 0.961 . S
H14 C12 0.961 . S
H15 C12 0.960 . S
C16 N17 1.342 . S
C16 C20 1.401 . S
C16 C21 1.499 . S
N17 Co0 1.989 1_554 S
N17 C16 1.342 . S
N17 N18 1.388 . S
N18 Co1 1.993 . S
N18 N17 1.388 . S
N18 C19 1.346 . S
C19 N18 1.346 . S
C19 C20 1.396 . S
C19 C29 1.510 . S
C20 C16 1.401 . S
C20 C19 1.396 . S
C21 C16 1.499 . S
C21 H22 0.959 1_554 S
C21 H23 0.967 . S
C21 H24 0.961 . S
H22 C21 0.959 1_556 S
H23 C21 0.967 . S
H24 C21 0.961 . S
O25 Co0 1.967 1_554 S
O25 C33 1.258 . S
O26 Co1 1.941 . S
O26 C33 1.266 . S
H27 C29 0.959 . S
H28 C29 0.961 . S
C29 C19 1.510 . S
C29 H27 0.959 . S
C29 H28 0.961 . S
C29 H30 0.960 . S
H30 C29 0.960 . S
H31 N11 0.862 . S
O32 Co0 1.920 . S
O32 C5 1.289 . S
C33 O25 1.258 . S
C33 O26 1.266 . S
Co34 O37 1.970 . S
Co34 N51 1.989 . S
Co34 O59 1.967 . S
Co34 O66 1.920 . S
Co35 O38 1.966 . S
Co35 N44 2.022 . S
Co35 N52 1.993 . S
Co35 O60 1.941 . S
C36 O37 1.258 . S
C36 O38 1.263 . S
O37 Co34 1.970 . S
O37 C36 1.258 . S
O38 Co35 1.966 . S
O38 C36 1.263 . S
C39 O40 1.235 . S
C39 O66 1.289 . S
O40 C39 1.235 . S
C41 C43 1.400 . S
C41 N44 1.351 . S
C41 C46 1.501 . S
C42 C43 1.387 . S
C42 N45 1.341 . S
C43 C41 1.400 . S
C43 C42 1.387 . S
N44 Co35 2.022 . S
N44 C41 1.351 . S
N44 N45 1.365 . S
N45 C42 1.341 . S
N45 N44 1.365 . S
N45 H65 0.862 . S
C46 C41 1.501 . S
C46 H47 0.961 . S
C46 H48 0.961 . S
C46 H49 0.960 . S
H47 C46 0.961 . S
H48 C46 0.961 . S
H49 C46 0.960 . S
C50 N51 1.342 . S
C50 C54 1.401 . S
C50 C55 1.499 . S
N51 Co34 1.989 . S
N51 C50 1.342 . S
N51 N52 1.388 . S
N52 Co35 1.993 . S
N52 N51 1.388 . S
N52 C53 1.346 . S
C53 N52 1.346 . S
C53 C54 1.396 . S
C53 C63 1.510 . S
C54 C50 1.401 . S
C54 C53 1.396 . S
C55 C50 1.499 . S
C55 H56 0.959 . S
C55 H57 0.960 . S
C55 H58 0.961 . S
H56 C55 0.959 . S
H57 C55 0.960 . S
H58 C55 0.961 . S
O59 Co34 1.967 . S
O59 C67 1.258 . S
O60 Co35 1.941 . S
O60 C67 1.266 . S
H61 C63 0.959 . S
H62 C63 0.961 . S
C63 C53 1.510 . S
C63 H61 0.959 . S
C63 H62 0.961 . S
C63 H64 0.960 . S
H64 C63 0.960 . S
H65 N45 0.862 . S
O66 Co34 1.920 . S
O66 C39 1.289 . S
C67 O59 1.258 . S
C67 O60 1.266 . S
Co68 O71 1.970 . S
Co68 N85 1.989 . S
Co68 O93 1.967 . S
Co68 O100 1.920 . S
Co69 O72 1.966 . S
Co69 N78 2.022 . S
Co69 N86 1.993 . S
Co69 O94 1.941 . S
C70 O71 1.258 . S
C70 O72 1.263 . S
O71 Co68 1.970 . S
O71 C70 1.258 . S
O72 Co69 1.966 . S
O72 C70 1.263 . S
C73 O74 1.235 . S
C73 O100 1.289 . S
O74 C73 1.235 . S
C75 C77 1.400 . S
C75 N78 1.351 . S
C75 C80 1.501 . S
C76 C77 1.387 . S
C76 N79 1.341 . S
C77 C75 1.400 . S
C77 C76 1.387 . S
N78 Co69 2.022 . S
N78 C75 1.351 . S
N78 N79 1.365 . S
N79 C76 1.341 . S
N79 N78 1.365 . S
N79 H99 0.862 . S
C80 C75 1.501 . S
C80 H81 0.961 . S
C80 H82 0.961 . S
C80 H83 0.960 . S
H81 C80 0.961 . S
H82 C80 0.961 . S
H83 C80 0.960 . S
C84 N85 1.342 . S
C84 C88 1.401 . S
C84 C89 1.499 . S
N85 Co68 1.989 . S
N85 C84 1.342 . S
N85 N86 1.388 . S
N86 Co69 1.993 . S
N86 N85 1.388 . S
N86 C87 1.346 . S
C87 N86 1.346 . S
C87 C88 1.396 . S
C87 C97 1.510 . S
C88 C84 1.401 . S
C88 C87 1.396 . S
C89 C84 1.499 . S
C89 H90 0.959 . S
C89 H91 0.960 . S
C89 H92 0.961 . S
H90 C89 0.959 . S
H91 C89 0.960 . S
H92 C89 0.961 . S
O93 Co68 1.967 . S
O93 C101 1.258 . S
O94 Co69 1.941 . S
O94 C101 1.266 . S
H95 C97 0.959 . S
H96 C97 0.961 . S
C97 C87 1.510 . S
C97 H95 0.959 . S
C97 H96 0.961 . S
C97 H98 0.960 . S
H98 C97 0.960 . S
H99 N79 0.862 . S
O100 Co68 1.920 . S
O100 C73 1.289 . S
C101 O93 1.258 . S
C101 O94 1.266 . S
Co102 O105 1.970 . S
Co102 N119 1.989 1_556 S
Co102 O127 1.967 1_556 S
Co102 O134 1.920 . S
Co103 O106 1.966 1_554 S
Co103 N112 2.022 . S
Co103 N120 1.993 . S
Co103 O128 1.941 . S
C104 O105 1.258 . S
C104 O106 1.263 . S
O105 Co102 1.970 . S
O105 C104 1.258 . S
O106 Co103 1.966 1_556 S
O106 C104 1.263 . S
C107 O108 1.235 . S
C107 O134 1.289 . S
O108 C107 1.235 . S
C109 C111 1.400 . S
C109 N112 1.351 . S
C109 C114 1.501 . S
C110 C111 1.387 . S
C110 N113 1.341 . S
C111 C109 1.400 . S
C111 C110 1.387 . S
N112 Co103 2.022 . S
N112 C109 1.351 . S
N112 N113 1.365 . S
N113 C110 1.341 . S
N113 N112 1.365 . S
N113 H133 0.862 . S
C114 C109 1.501 . S
C114 H115 0.961 . S
C114 H116 0.961 . S
C114 H117 0.960 . S
H115 C114 0.961 . S
H116 C114 0.961 . S
H117 C114 0.960 . S
C118 N119 1.342 . S
C118 C122 1.401 . S
C118 C123 1.499 . S
N119 Co102 1.989 1_554 S
N119 C118 1.342 . S
N119 N120 1.388 . S
N120 Co103 1.993 . S
N120 N119 1.388 . S
N120 C121 1.346 . S
C121 N120 1.346 . S
C121 C122 1.396 . S
C121 C131 1.510 . S
C122 C118 1.401 . S
C122 C121 1.396 . S
C123 C118 1.499 . S
C123 H124 0.959 1_554 S
C123 H125 0.967 . S
C123 H126 0.961 . S
H124 C123 0.959 1_556 S
H125 C123 0.967 . S
H126 C123 0.961 . S
O127 Co102 1.967 1_554 S
O127 C135 1.258 . S
O128 Co103 1.941 . S
O128 C135 1.266 . S
H129 C131 0.959 . S
H130 C131 0.961 . S
C131 C121 1.510 . S
C131 H129 0.959 . S
C131 H130 0.961 . S
C131 H132 0.960 . S
H132 C131 0.960 . S
H133 N113 0.862 . S
O134 Co102 1.920 . S
O134 C107 1.289 . S
C135 O127 1.258 . S
C135 O128 1.266 . S
Co136 O139 1.970 . S
Co136 N153 1.989 . S
Co136 O161 1.967 . S
Co136 O168 1.920 . S
Co137 O140 1.966 . S
Co137 N146 2.022 . S
Co137 N154 1.993 . S
Co137 O162 1.941 . S
C138 O139 1.258 . S
C138 O140 1.263 . S
O139 Co136 1.970 . S
O139 C138 1.258 . S
O140 Co137 1.966 . S
O140 C138 1.263 . S
C141 O142 1.235 . S
C141 O168 1.289 . S
O142 C141 1.235 . S
C143 C145 1.400 . S
C143 N146 1.351 . S
C143 C148 1.501 . S
C144 C145 1.387 . S
C144 N147 1.341 . S
C145 C143 1.400 . S
C145 C144 1.387 . S
N146 Co137 2.022 . S
N146 C143 1.351 . S
N146 N147 1.365 . S
N147 C144 1.341 . S
N147 N146 1.365 . S
N147 H167 0.862 . S
C148 C143 1.501 . S
C148 H149 0.961 . S
C148 H150 0.961 . S
C148 H151 0.960 . S
H149 C148 0.961 . S
H150 C148 0.961 . S
H151 C148 0.960 . S
C152 N153 1.342 . S
C152 C156 1.401 . S
C152 C157 1.499 . S
N153 Co136 1.989 . S
N153 C152 1.342 . S
N153 N154 1.388 . S
N154 Co137 1.993 . S
N154 N153 1.388 . S
N154 C155 1.346 . S
C155 N154 1.346 . S
C155 C156 1.396 . S
C155 C165 1.510 . S
C156 C152 1.401 . S
C156 C155 1.396 . S
C157 C152 1.499 . S
C157 H158 0.959 . S
C157 H159 0.960 . S
C157 H160 0.961 . S
H158 C157 0.959 . S
H159 C157 0.960 . S
H160 C157 0.961 . S
O161 Co136 1.967 . S
O161 C169 1.258 . S
O162 Co137 1.941 . S
O162 C169 1.266 . S
H163 C165 0.959 . S
H164 C165 0.961 . S
C165 C155 1.510 . S
C165 H163 0.959 . S
C165 H164 0.961 . S
C165 H166 0.960 . S
H166 C165 0.960 . S
H167 N147 0.862 . S
O168 Co136 1.920 . S
O168 C141 1.289 . S
C169 O161 1.258 . S
C169 O162 1.266 . S
Co170 O173 1.970 . S
Co170 N187 1.989 . S
Co170 O195 1.967 . S
Co170 O202 1.920 . S
Co171 O174 1.966 . S
Co171 N180 2.022 . S
Co171 N188 1.993 . S
Co171 O196 1.941 . S
C172 O173 1.258 . S
C172 O174 1.263 . S
O173 Co170 1.970 . S
O173 C172 1.258 . S
O174 Co171 1.966 . S
O174 C172 1.263 . S
C175 O176 1.235 . S
C175 O202 1.289 . S
O176 C175 1.235 . S
C177 C179 1.400 . S
C177 N180 1.351 . S
C177 C182 1.501 . S
C178 C179 1.387 . S
C178 N181 1.341 . S
C179 C177 1.400 . S
C179 C178 1.387 . S
N180 Co171 2.022 . S
N180 C177 1.351 . S
N180 N181 1.365 . S
N181 C178 1.341 . S
N181 N180 1.365 . S
N181 H201 0.862 . S
C182 C177 1.501 . S
C182 H183 0.961 . S
C182 H184 0.961 . S
C182 H185 0.960 . S
H183 C182 0.961 . S
H184 C182 0.961 . S
H185 C182 0.960 . S
C186 N187 1.342 . S
C186 C190 1.401 . S
C186 C191 1.499 . S
N187 Co170 1.989 . S
N187 C186 1.342 . S
N187 N188 1.388 . S
N188 Co171 1.993 . S
N188 N187 1.388 . S
N188 C189 1.346 . S
C189 N188 1.346 . S
C189 C190 1.396 . S
C189 C199 1.510 . S
C190 C186 1.401 . S
C190 C189 1.396 . S
C191 C186 1.499 . S
C191 H192 0.959 . S
C191 H193 0.960 . S
C191 H194 0.961 . S
H192 C191 0.959 . S
H193 C191 0.960 . S
H194 C191 0.961 . S
O195 Co170 1.967 . S
O195 C203 1.258 . S
O196 Co171 1.941 . S
O196 C203 1.266 . S
H197 C199 0.959 . S
H198 C199 0.961 . S
C199 C189 1.510 . S
C199 H197 0.959 . S
C199 H198 0.961 . S
C199 H200 0.960 . S
H200 C199 0.960 . S
H201 N181 0.862 . S
O202 Co170 1.920 . S
O202 C175 1.289 . S
C203 O195 1.258 . S
C203 O196 1.266 . S
H204 C212 0.929 . S
H205 C214 0.930 . S
H206 C216 0.930 . S
H207 C219 0.929 . S
H208 C222 0.930 . S
H209 C224 0.960 . S
H210 C224 0.960 . S
H211 C224 0.960 . S
C212 H204 0.929 . S
C212 C213 1.377 . S
C212 C214 1.384 . S
C213 C212 1.377 . S
C213 C219 1.390 . S
C214 H205 0.930 . S
C214 C212 1.384 . S
C214 C215 1.372 . S
C215 C214 1.372 . S
C215 C216 1.400 . S
C215 C220 1.490 . S
C216 H206 0.930 . S
C216 C215 1.400 . S
C216 C219 1.386 . S
H217 C233 0.930 . S
H218 C234 0.931 . S
C219 H207 0.929 . S
C219 C213 1.390 . S
C219 C216 1.386 . S
C220 C215 1.490 . S
C220 C222 1.395 . S
C220 C223 1.403 . S
H221 C227 0.931 1_556 S
C222 H208 0.930 . S
C222 C220 1.395 . S
C222 C225 1.403 . S
C223 C220 1.403 . S
C223 C224 1.524 1_554 S
C223 C227 1.400 . S
C224 H209 0.960 . S
C224 H210 0.960 . S
C224 H211 0.960 . S
C224 C223 1.524 1_556 S
C225 C222 1.403 . S
C225 C226 1.392 . S
C225 C229 1.495 . S
C226 C225 1.392 . S
C226 C227 1.385 . S
C226 C228 1.478 . S
C227 H221 0.931 1_554 S
C227 C223 1.400 . S
C227 C226 1.385 . S
C228 C226 1.478 . S
C228 C230 1.381 . S
C228 C234 1.383 . S
C229 C225 1.495 . S
C229 H235 0.959 . S
C229 H236 0.961 . S
C229 H237 0.960 . S
C230 C228 1.381 . S
C230 C231 1.394 . S
C230 H238 0.930 . S
C231 C230 1.394 . S
C231 C232 1.383 . S
C231 H239 0.929 . S
C232 C231 1.383 . S
C232 C233 1.377 . S
C233 H217 0.930 . S
C233 C232 1.377 . S
C233 C234 1.379 . S
C234 H218 0.931 . S
C234 C228 1.383 . S
C234 C233 1.379 . S
H235 C229 0.959 . S
H236 C229 0.961 . S
H237 C229 0.960 . S
H238 C230 0.930 . S
H239 C231 0.929 . S
H240 C248 0.929 . S
H241 C250 0.930 . S
H242 C252 0.930 . S
H243 C255 0.929 . S
H244 C258 0.930 . S
H245 C260 0.960 . S
H246 C260 0.960 . S
H247 C260 0.960 1_455 S
C248 H240 0.929 . S
C248 C249 1.377 . S
C248 C250 1.384 . S
C249 C248 1.377 . S
C249 C255 1.390 . S
C250 H241 0.930 . S
C250 C248 1.384 . S
C250 C251 1.372 . S
C251 C250 1.372 . S
C251 C252 1.400 . S
C251 C256 1.490 . S
C252 H242 0.930 . S
C252 C251 1.400 . S
C252 C255 1.386 . S
H253 C269 0.930 . S
H254 C270 0.931 . S
C255 H243 0.929 . S
C255 C249 1.390 . S
C255 C252 1.386 . S
C256 C251 1.490 . S
C256 C258 1.395 . S
C256 C259 1.395 1_455 S
H257 C263 0.930 . S
C258 H244 0.930 . S
C258 C256 1.395 . S
C258 C261 1.403 1_455 S
C259 C256 1.395 1_655 S
C259 C260 1.532 . S
C259 C263 1.400 . S
C260 H245 0.960 . S
C260 H246 0.960 . S
C260 H247 0.960 1_655 S
C260 C259 1.532 . S
C261 C258 1.403 1_655 S
C261 C262 1.395 . S
C261 C265 1.483 1_655 S
C262 C261 1.395 . S
C262 C263 1.385 . S
C262 C264 1.478 . S
C263 H257 0.930 . S
C263 C259 1.400 . S
C263 C262 1.385 . S
C264 C262 1.478 . S
C264 C266 1.381 . S
C264 C270 1.383 . S
C265 C261 1.483 1_455 S
C265 H271 0.968 . S
C265 H272 0.991 . S
C265 H273 0.932 1_455 S
C266 C264 1.381 . S
C266 C267 1.394 . S
C266 H274 0.930 . S
C267 C266 1.394 . S
C267 C268 1.383 . S
C267 H275 0.929 . S
C268 C267 1.383 . S
C268 C269 1.377 . S
C269 H253 0.930 . S
C269 C268 1.377 . S
C269 C270 1.379 . S
C270 H254 0.931 . S
C270 C264 1.383 . S
C270 C269 1.379 . S
H271 C265 0.968 . S
H272 C265 0.991 . S
H273 C265 0.932 1_655 S
H274 C266 0.930 . S
H275 C267 0.929 . S
H276 C284 0.929 . S
H277 C286 0.930 . S
H278 C288 0.930 . S
H279 C291 0.929 . S
H280 C294 0.930 . S
H281 C296 0.960 . S
H282 C296 0.960 . S
H283 C296 0.960 . S
C284 H276 0.929 . S
C284 C285 1.377 . S
C284 C286 1.384 . S
C285 C284 1.377 . S
C285 C291 1.390 . S
C286 H277 0.930 . S
C286 C284 1.384 . S
C286 C287 1.372 . S
C287 C286 1.372 . S
C287 C288 1.400 . S
C287 C292 1.490 . S
C288 H278 0.930 . S
C288 C287 1.400 . S
C288 C291 1.386 . S
H289 C305 0.930 . S
H290 C306 0.931 . S
C291 H279 0.929 . S
C291 C285 1.390 . S
C291 C288 1.386 . S
C292 C287 1.490 . S
C292 C294 1.395 1_565 S
C292 C295 1.403 . S
H293 C299 0.930 . S
C294 H280 0.930 . S
C294 C292 1.395 1_545 S
C294 C297 1.403 . S
C295 C292 1.403 . S
C295 C296 1.524 . S
C295 C299 1.400 . S
C296 H281 0.960 . S
C296 H282 0.960 . S
C296 H283 0.960 . S
C296 C295 1.524 . S
C297 C294 1.403 . S
C297 C298 1.392 . S
C297 C301 1.495 . S
C298 C297 1.392 . S
C298 C299 1.385 1_545 S
C298 C300 1.478 . S
C299 H293 0.930 . S
C299 C295 1.400 . S
C299 C298 1.385 1_565 S
C300 C298 1.478 . S
C300 C302 1.381 . S
C300 C306 1.383 . S
C301 C297 1.495 . S
C301 H307 0.959 . S
C301 H308 0.961 . S
C301 H309 0.960 . S
C302 C300 1.381 . S
C302 C303 1.394 . S
C302 H310 0.930 . S
C303 C302 1.394 . S
C303 C304 1.383 . S
C303 H311 0.929 . S
C304 C303 1.383 . S
C304 C305 1.377 . S
C305 H289 0.930 . S
C305 C304 1.377 . S
C305 C306 1.379 . S
C306 H290 0.931 . S
C306 C300 1.383 . S
C306 C305 1.379 . S
H307 C301 0.959 . S
H308 C301 0.961 . S
H309 C301 0.960 . S
H310 C302 0.930 . S
H311 C303 0.929 . S
H312 C320 0.929 . S
H313 C322 0.930 . S
H314 C324 0.930 . S
H315 C327 0.929 . S
H316 C330 0.930 . S
H317 C332 0.960 . S
H318 C332 0.960 . S
H319 C332 0.960 . S
C320 H312 0.929 . S
C320 C321 1.377 . S
C320 C322 1.384 . S
C321 C320 1.377 . S
C321 C327 1.390 . S
C322 H313 0.930 . S
C322 C320 1.384 . S
C322 C323 1.372 . S
C323 C322 1.372 . S
C323 C324 1.400 . S
C323 C328 1.490 . S
C324 H314 0.930 . S
C324 C323 1.400 . S
C324 C327 1.386 . S
H325 C341 0.930 . S
H326 C342 0.931 . S
C327 H315 0.929 . S
C327 C321 1.390 . S
C327 C324 1.386 . S
C328 C323 1.490 . S
C328 C330 1.395 . S
C328 C331 1.403 . S
H329 C335 0.930 . S
C330 H316 0.930 . S
C330 C328 1.395 . S
C330 C333 1.403 . S
C331 C328 1.403 . S
C331 C332 1.524 . S
C331 C335 1.400 . S
C332 H317 0.960 . S
C332 H318 0.960 . S
C332 H319 0.960 . S
C332 C331 1.524 . S
C333 C330 1.403 . S
C333 C334 1.392 . S
C333 C337 1.495 . S
C334 C333 1.392 . S
C334 C335 1.385 . S
C334 C336 1.478 . S
C335 H329 0.930 . S
C335 C331 1.400 . S
C335 C334 1.385 . S
C336 C334 1.478 . S
C336 C338 1.381 . S
C336 C342 1.383 . S
C337 C333 1.495 . S
C337 H343 0.959 . S
C337 H344 0.961 . S
C337 H345 0.960 . S
C338 C336 1.381 . S
C338 C339 1.394 . S
C338 H346 0.930 . S
C339 C338 1.394 . S
C339 C340 1.383 . S
C339 H347 0.929 . S
C340 C339 1.383 . S
C340 C341 1.377 . S
C341 H325 0.930 . S
C341 C340 1.377 . S
C341 C342 1.379 . S
C342 H326 0.931 . S
C342 C336 1.383 . S
C342 C341 1.379 . S
H343 C337 0.959 . S
H344 C337 0.961 . S
H345 C337 0.960 . S
H346 C338 0.930 . S
H347 C339 0.929 . S
H348 C356 0.929 . S
H349 C358 0.930 . S
H350 C360 0.930 . S
H351 C363 0.929 . S
H352 C366 0.930 . S
H353 C368 0.960 . S
H354 C368 0.960 . S
H355 C368 0.960 . S
C356 H348 0.929 . S
C356 C357 1.377 . S
C356 C358 1.384 . S
C357 C356 1.377 . S
C357 C363 1.390 . S
C358 H349 0.930 . S
C358 C356 1.384 . S
C358 C359 1.372 . S
C359 C358 1.372 . S
C359 C360 1.400 . S
C359 C364 1.490 . S
C360 H350 0.930 . S
C360 C359 1.400 . S
C360 C363 1.386 . S
H361 C377 0.930 . S
H362 C378 0.931 . S
C363 H351 0.929 . S
C363 C357 1.390 . S
C363 C360 1.386 . S
C364 C359 1.490 . S
C364 C366 1.395 . S
C364 C367 1.403 . S
H365 C371 0.930 . S
C366 H352 0.930 . S
C366 C364 1.395 . S
C366 C369 1.403 . S
C367 C364 1.403 . S
C367 C368 1.524 . S
C367 C371 1.400 . S
C368 H353 0.960 . S
C368 H354 0.960 . S
C368 H355 0.960 . S
C368 C367 1.524 . S
C369 C366 1.403 . S
C369 C370 1.392 . S
C369 C373 1.495 . S
C370 C369 1.392 . S
C370 C371 1.385 . S
C370 C372 1.478 . S
C371 H365 0.930 . S
C371 C367 1.400 . S
C371 C370 1.385 . S
C372 C370 1.478 . S
C372 C374 1.381 . S
C372 C378 1.383 . S
C373 C369 1.495 . S
C373 H379 0.959 . S
C373 H380 0.961 . S
C373 H381 0.960 . S
C374 C372 1.381 . S
C374 C375 1.394 . S
C374 H382 0.930 . S
C375 C374 1.394 . S
C375 C376 1.383 . S
C375 H383 0.929 . S
C376 C375 1.383 . S
C376 C377 1.377 . S
C377 H361 0.930 . S
C377 C376 1.377 . S
C377 C378 1.379 . S
C378 H362 0.931 . S
C378 C372 1.383 . S
C378 C377 1.379 . S
H379 C373 0.959 . S
H380 C373 0.961 . S
H381 C373 0.960 . S
H382 C374 0.930 . S
H383 C375 0.929 . S
H384 C392 0.929 . S
H385 C394 0.930 . S
H386 C396 0.930 . S
H387 C399 0.929 . S
H388 C402 0.930 . S
H389 C404 0.960 . S
H390 C404 0.960 . S
H391 C404 0.960 . S
C392 H384 0.929 . S
C392 C393 1.377 . S
C392 C394 1.384 . S
C393 C392 1.377 . S
C393 C399 1.390 . S
C394 H385 0.930 . S
C394 C392 1.384 . S
C394 C395 1.372 . S
C395 C394 1.372 . S
C395 C396 1.400 . S
C395 C400 1.490 . S
C396 H386 0.930 . S
C396 C395 1.400 . S
C396 C399 1.386 . S
H397 C413 0.930 . S
H398 C414 0.931 . S
C399 H387 0.929 . S
C399 C393 1.390 . S
C399 C396 1.386 . S
C400 C395 1.490 . S
C400 C402 1.395 . S
C400 C403 1.403 . S
H401 C407 0.930 . S
C402 H388 0.930 . S
C402 C400 1.395 . S
C402 C405 1.403 . S
C403 C400 1.403 . S
C403 C404 1.524 . S
C403 C407 1.400 . S
C404 H389 0.960 . S
C404 H390 0.960 . S
C404 H391 0.960 . S
C404 C403 1.524 . S
C405 C402 1.403 . S
C405 C406 1.392 . S
C405 C409 1.495 . S
C406 C405 1.392 . S
C406 C407 1.385 . S
C406 C408 1.478 . S
C407 H401 0.930 . S
C407 C403 1.400 . S
C407 C406 1.385 . S
C408 C406 1.478 . S
C408 C410 1.381 . S
C408 C414 1.383 . S
C409 C405 1.495 . S
C409 H415 0.959 . S
C409 H416 0.961 . S
C409 H417 0.960 . S
C410 C408 1.381 . S
C410 C411 1.394 . S
C410 H418 0.930 . S
C411 C410 1.394 . S
C411 C412 1.383 . S
C411 H419 0.929 . S
C412 C411 1.383 . S
C412 C413 1.377 . S
C413 H397 0.930 . S
C413 C412 1.377 . S
C413 C414 1.379 . S
C414 H398 0.931 . S
C414 C408 1.383 . S
C414 C413 1.379 . S
H415 C409 0.959 . S
H416 C409 0.961 . S
H417 C409 0.960 . S
H418 C410 0.930 . S
H419 C411 0.929 . S
H420 C428 0.929 . S
H421 C430 0.930 . S
H422 C432 0.930 . S
H423 C435 0.929 . S
H424 C438 0.930 . S
H425 C440 0.960 . S
H426 C440 0.960 . S
H427 C440 0.960 . S
C428 H420 0.929 . S
C428 C429 1.377 . S
C428 C430 1.384 . S
C429 C428 1.377 . S
C429 C435 1.390 . S
C430 H421 0.930 . S
C430 C428 1.384 . S
C430 C431 1.372 . S
C431 C430 1.372 . S
C431 C432 1.400 . S
C431 C436 1.490 . S
C432 H422 0.930 . S
C432 C431 1.400 . S
C432 C435 1.386 . S
H433 C449 0.930 . S
H434 C450 0.931 . S
C435 H423 0.929 . S
C435 C429 1.390 . S
C435 C432 1.386 . S
C436 C431 1.490 . S
C436 C438 1.395 . S
C436 C439 1.403 . S
H437 C443 0.930 . S
C438 H424 0.930 . S
C438 C436 1.395 . S
C438 C441 1.403 . S
C439 C436 1.403 . S
C439 C440 1.524 . S
C439 C443 1.400 . S
C440 H425 0.960 . S
C440 H426 0.960 . S
C440 H427 0.960 . S
C440 C439 1.524 . S
C441 C438 1.403 . S
C441 C442 1.392 . S
C441 C445 1.495 . S
C442 C441 1.392 . S
C442 C443 1.385 . S
C442 C444 1.478 . S
C443 H437 0.930 . S
C443 C439 1.400 . S
C443 C442 1.385 . S
C444 C442 1.478 . S
C444 C446 1.381 . S
C444 C450 1.383 . S
C445 C441 1.495 . S
C445 H451 0.959 . S
C445 H452 0.961 . S
C445 H453 0.960 . S
C446 C444 1.381 . S
C446 C447 1.394 . S
C446 H454 0.930 . S
C447 C446 1.394 . S
C447 C448 1.383 . S
C447 H455 0.929 . S
C448 C447 1.383 . S
C448 C449 1.377 . S
C449 H433 0.930 . S
C449 C448 1.377 . S
C449 C450 1.379 . S
C450 H434 0.931 . S
C450 C444 1.383 . S
C450 C449 1.379 . S
H451 C445 0.959 . S
H452 C445 0.961 . S
H453 C445 0.960 . S
H454 C446 0.930 . S
H455 C447 0.929 . S
H456 C464 0.929 . S
H457 C466 0.930 . S
H458 C468 0.930 . S
H459 C471 0.929 . S
H460 C474 0.930 . S
H461 C476 0.960 . S
H462 C476 0.960 . S
H463 C476 0.960 . S
C464 H456 0.929 . S
C464 C465 1.377 . S
C464 C466 1.384 . S
C465 C464 1.377 . S
C465 C471 1.390 . S
C466 H457 0.930 . S
C466 C464 1.384 . S
C466 C467 1.372 . S
C467 C466 1.372 . S
C467 C468 1.400 . S
C467 C472 1.490 . S
C468 H458 0.930 . S
C468 C467 1.400 . S
C468 C471 1.386 . S
H469 C485 0.930 . S
H470 C486 0.931 . S
C471 H459 0.929 . S
C471 C465 1.390 . S
C471 C468 1.386 . S
C472 C467 1.490 . S
C472 C474 1.395 . S
C472 C475 1.403 . S
H473 C479 0.930 . S
C474 H460 0.930 . S
C474 C472 1.395 . S
C474 C477 1.403 . S
C475 C472 1.403 . S
C475 C476 1.524 . S
C475 C479 1.400 . S
C476 H461 0.960 . S
C476 H462 0.960 . S
C476 H463 0.960 . S
C476 C475 1.524 . S
C477 C474 1.403 . S
C477 C478 1.392 . S
C477 C481 1.495 . S
C478 C477 1.392 . S
C478 C479 1.385 . S
C478 C480 1.478 . S
C479 H473 0.930 . S
C479 C475 1.400 . S
C479 C478 1.385 . S
C480 C478 1.478 . S
C480 C482 1.381 . S
C480 C486 1.383 . S
C481 C477 1.495 . S
C481 H487 0.959 . S
C481 H488 0.961 . S
C481 H489 0.960 . S
C482 C480 1.381 . S
C482 C483 1.394 . S
C482 H490 0.930 . S
C483 C482 1.394 . S
C483 C484 1.383 . S
C483 H491 0.929 . S
C484 C483 1.383 . S
C484 C485 1.377 . S
C485 H469 0.930 . S
C485 C484 1.377 . S
C485 C486 1.379 . S
C486 H470 0.931 . S
C486 C480 1.383 . S
C486 C485 1.379 . S
H487 C481 0.959 . S
H488 C481 0.961 . S
H489 C481 0.960 . S
H490 C482 0.930 . S
H491 C483 0.929 . S
H492 C500 0.929 . S
H493 C502 0.930 . S
H494 C504 0.930 . S
H495 C507 0.929 . S
H496 C510 0.930 . S
H497 C512 0.960 . S
H498 C512 0.960 . S
H499 C512 0.960 . S
C500 H492 0.929 . S
C500 C501 1.377 . S
C500 C502 1.384 . S
C501 C500 1.377 . S
C501 C507 1.390 . S
C502 H493 0.930 . S
C502 C500 1.384 . S
C502 C503 1.372 . S
C503 C502 1.372 . S
C503 C504 1.400 . S
C503 C508 1.490 . S
C504 H494 0.930 . S
C504 C503 1.400 . S
C504 C507 1.386 . S
H505 C521 0.930 . S
H506 C522 0.931 . S
C507 H495 0.929 . S
C507 C501 1.390 . S
C507 C504 1.386 . S
C508 C503 1.490 . S
C508 C510 1.395 . S
C508 C511 1.403 . S
H509 C515 0.930 . S
C510 H496 0.930 . S
C510 C508 1.395 . S
C510 C513 1.403 . S
C511 C508 1.403 . S
C511 C512 1.524 . S
C511 C515 1.400 . S
C512 H497 0.960 . S
C512 H498 0.960 . S
C512 H499 0.960 . S
C512 C511 1.524 . S
C513 C510 1.403 . S
C513 C514 1.392 . S
C513 C517 1.495 . S
C514 C513 1.392 . S
C514 C515 1.385 . S
C514 C516 1.478 . S
C515 H509 0.930 . S
C515 C511 1.400 . S
C515 C514 1.385 . S
C516 C514 1.478 . S
C516 C518 1.381 . S
C516 C522 1.383 . S
C517 C513 1.495 . S
C517 H523 0.959 . S
C517 H524 0.961 . S
C517 H525 0.960 . S
C518 C516 1.381 . S
C518 C519 1.394 . S
C518 H526 0.930 . S
C519 C518 1.394 . S
C519 C520 1.383 . S
C519 H527 0.929 . S
C520 C519 1.383 . S
C520 C521 1.377 . S
C521 H505 0.930 . S
C521 C520 1.377 . S
C521 C522 1.379 . S
C522 H506 0.931 . S
C522 C516 1.383 . S
C522 C521 1.379 . S
H523 C517 0.959 . S
H524 C517 0.961 . S
H525 C517 0.960 . S
H526 C518 0.930 . S
H527 C519 0.929 . S
H528 C536 0.929 . S
H529 C538 0.930 . S
H530 C540 0.930 . S
H531 C543 0.929 . S
H532 C546 0.930 . S
H533 C548 0.960 . S
H534 C548 0.960 . S
H535 C548 0.960 . S
C536 H528 0.929 . S
C536 C537 1.377 . S
C536 C538 1.384 . S
C537 C536 1.377 . S
C537 C543 1.390 . S
C538 H529 0.930 . S
C538 C536 1.384 . S
C538 C539 1.372 . S
C539 C538 1.372 . S
C539 C540 1.400 . S
C539 C544 1.490 . S
C540 H530 0.930 . S
C540 C539 1.400 . S
C540 C543 1.386 . S
H541 C557 0.930 . S
H542 C558 0.931 . S
C543 H531 0.929 . S
C543 C537 1.390 . S
C543 C540 1.386 . S
C544 C539 1.490 . S
C544 C546 1.395 . S
C544 C547 1.403 . S
H545 C551 0.930 . S
C546 H532 0.930 . S
C546 C544 1.395 . S
C546 C549 1.403 . S
C547 C544 1.403 . S
C547 C548 1.524 . S
C547 C551 1.400 . S
C548 H533 0.960 . S
C548 H534 0.960 . S
C548 H535 0.960 . S
C548 C547 1.524 . S
C549 C546 1.403 . S
C549 C550 1.392 . S
C549 C553 1.495 . S
C550 C549 1.392 . S
C550 C551 1.385 . S
C550 C552 1.478 . S
C551 H545 0.930 . S
C551 C547 1.400 . S
C551 C550 1.385 . S
C552 C550 1.478 . S
C552 C554 1.381 . S
C552 C558 1.383 . S
C553 C549 1.495 . S
C553 H559 0.959 . S
C553 H560 0.961 . S
C553 H561 0.960 . S
C554 C552 1.381 . S
C554 C555 1.394 . S
C554 H562 0.930 . S
C555 C554 1.394 . S
C555 C556 1.383 . S
C555 H563 0.929 . S
C556 C555 1.383 . S
C556 C557 1.377 . S
C557 H541 0.930 . S
C557 C556 1.377 . S
C557 C558 1.379 . S
C558 H542 0.931 . S
C558 C552 1.383 . S
C558 C557 1.379 . S
H559 C553 0.959 . S
H560 C553 0.961 . S
H561 C553 0.960 . S
H562 C554 0.930 . S
H563 C555 0.929 . S
H564 C572 0.929 . S
H565 C574 0.930 . S
H566 C576 0.930 1_455 S
H567 C579 0.929 . S
H568 C582 0.930 1_655 S
H569 C584 0.960 . S
H570 C584 0.960 . S
H571 C584 0.960 . S
C572 H564 0.929 . S
C572 C573 1.377 . S
C572 C574 1.384 . S
C573 C572 1.377 . S
C573 C579 1.390 . S
C574 H565 0.930 . S
C574 C572 1.384 . S
C574 C575 1.372 . S
C575 C574 1.372 . S
C575 C576 1.400 . S
C575 C580 1.490 1_655 S
C576 H566 0.930 1_655 S
C576 C575 1.400 . S
C576 C579 1.386 . S
H577 C593 0.930 . S
H578 C594 0.931 . S
C579 H567 0.929 . S
C579 C573 1.390 . S
C579 C576 1.386 . S
C580 C575 1.490 1_455 S
C580 C582 1.395 . S
C580 C583 1.403 . S
H581 C587 0.930 . S
C582 H568 0.930 1_455 S
C582 C580 1.395 . S
C582 C585 1.403 . S
C583 C580 1.403 . S
C583 C584 1.524 . S
C583 C587 1.400 . S
C584 H569 0.960 . S
C584 H570 0.960 . S
C584 H571 0.960 . S
C584 C583 1.524 . S
C585 C582 1.403 . S
C585 C586 1.392 . S
C585 C589 1.495 . S
C586 C585 1.392 . S
C586 C587 1.385 . S
C586 C588 1.478 . S
C587 H581 0.930 . S
C587 C583 1.400 . S
C587 C586 1.385 . S
C588 C586 1.478 . S
C588 C590 1.381 . S
C588 C594 1.383 . S
C589 C585 1.495 . S
C589 H595 0.959 . S
C589 H596 0.961 . S
C589 H597 0.960 . S
C590 C588 1.381 . S
C590 C591 1.394 . S
C590 H598 0.930 . S
C591 C590 1.394 . S
C591 C592 1.383 . S
C591 H599 0.929 . S
C592 C591 1.383 . S
C592 C593 1.377 . S
C593 H577 0.930 . S
C593 C592 1.377 . S
C593 C594 1.379 . S
C594 H578 0.931 . S
C594 C588 1.383 . S
C594 C593 1.379 . S
H595 C589 0.959 . S
H596 C589 0.961 . S
H597 C589 0.960 . S
H598 C590 0.930 . S
H599 C591 0.929 . S
H600 C608 0.929 . S
H601 C610 0.930 . S
H602 C612 0.930 . S
H603 C615 0.929 . S
H604 C618 0.930 . S
H605 C620 0.960 . S
H606 C620 0.960 . S
H607 C620 0.960 . S
C608 H600 0.929 . S
C608 C609 1.377 . S
C608 C610 1.384 . S
C609 C608 1.377 . S
C609 C615 1.390 . S
C610 H601 0.930 . S
C610 C608 1.384 . S
C610 C611 1.372 . S
C611 C610 1.372 . S
C611 C612 1.400 . S
C611 C616 1.490 . S
C612 H602 0.930 . S
C612 C611 1.400 . S
C612 C615 1.386 . S
H613 C629 0.930 . S
H614 C630 0.931 . S
C615 H603 0.929 . S
C615 C609 1.390 . S
C615 C612 1.386 . S
C616 C611 1.490 . S
C616 C618 1.395 . S
C616 C619 1.403 . S
H617 C623 0.930 . S
C618 H604 0.930 . S
C618 C616 1.395 . S
C618 C621 1.403 . S
C619 C616 1.403 . S
C619 C620 1.524 . S
C619 C623 1.400 . S
C620 H605 0.960 . S
C620 H606 0.960 . S
C620 H607 0.960 . S
C620 C619 1.524 . S
C621 C618 1.403 . S
C621 C622 1.392 . S
C621 C625 1.495 1_545 S
C622 C621 1.392 . S
C622 C623 1.385 . S
C622 C624 1.478 1_545 S
C623 H617 0.930 . S
C623 C619 1.400 . S
C623 C622 1.385 . S
C624 C622 1.478 1_565 S
C624 C626 1.381 . S
C624 C630 1.383 . S
C625 C621 1.495 1_565 S
C625 H631 0.959 1_565 S
C625 H632 0.961 . S
C625 H633 0.960 . S
C626 C624 1.381 . S
C626 C627 1.394 . S
C626 H634 0.930 . S
C627 C626 1.394 . S
C627 C628 1.383 . S
C627 H635 0.929 . S
C628 C627 1.383 . S
C628 C629 1.377 . S
C629 H613 0.930 . S
C629 C628 1.377 . S
C629 C630 1.379 . S
C630 H614 0.931 . S
C630 C624 1.383 . S
C630 C629 1.379 . S
H631 C625 0.959 1_545 S
H632 C625 0.961 . S
H633 C625 0.960 . S
H634 C626 0.930 . S
H635 C627 0.929 . S
H636 C644 0.929 . S
H637 C646 0.930 . S
H638 C648 0.930 . S
H639 C651 0.929 . S
H640 C654 0.930 . S
H641 C656 0.960 . S
H642 C656 0.960 . S
H643 C656 0.960 . S
C644 H636 0.929 . S
C644 C645 1.377 . S
C644 C646 1.384 . S
C645 C644 1.377 . S
C645 C651 1.390 . S
C646 H637 0.930 . S
C646 C644 1.384 . S
C646 C647 1.372 . S
C647 C646 1.372 . S
C647 C648 1.400 . S
C647 C652 1.490 . S
C648 H638 0.930 . S
C648 C647 1.400 . S
C648 C651 1.386 . S
H649 C665 0.930 . S
H650 C666 0.931 . S
C651 H639 0.929 . S
C651 C645 1.390 . S
C651 C648 1.386 . S
C652 C647 1.490 . S
C652 C654 1.395 . S
C652 C655 1.403 . S
H653 C659 0.930 . S
C654 H640 0.930 . S
C654 C652 1.395 . S
C654 C657 1.403 . S
C655 C652 1.403 . S
C655 C656 1.524 . S
C655 C659 1.400 . S
C656 H641 0.960 . S
C656 H642 0.960 . S
C656 H643 0.960 . S
C656 C655 1.524 . S
C657 C654 1.403 . S
C657 C658 1.392 . S
C657 C661 1.495 . S
C658 C657 1.392 . S
C658 C659 1.385 . S
C658 C660 1.478 . S
C659 H653 0.930 . S
C659 C655 1.400 . S
C659 C658 1.385 . S
C660 C658 1.478 . S
C660 C662 1.381 . S
C660 C666 1.383 . S
C661 C657 1.495 . S
C661 H667 0.959 . S
C661 H668 0.961 . S
C661 H669 0.960 . S
C662 C660 1.381 . S
C662 C663 1.394 . S
C662 H670 0.930 . S
C663 C662 1.394 . S
C663 C664 1.383 . S
C663 H671 0.929 . S
C664 C663 1.383 . S
C664 C665 1.377 . S
C665 H649 0.930 . S
C665 C664 1.377 . S
C665 C666 1.379 . S
C666 H650 0.931 . S
C666 C660 1.383 . S
C666 C665 1.379 . S
H667 C661 0.959 . S
H668 C661 0.961 . S
H669 C661 0.960 . S
H670 C662 0.930 . S
H671 C663 0.929 . S
H672 C680 0.929 . S
H673 C682 0.930 . S
H674 C684 0.930 . S
H675 C687 0.929 . S
H676 C690 0.930 . S
H677 C692 0.960 . S
H678 C692 0.960 . S
H679 C692 0.960 . S
C680 H672 0.929 . S
C680 C681 1.377 . S
C680 C682 1.384 . S
C681 C680 1.377 . S
C681 C687 1.390 . S
C682 H673 0.930 . S
C682 C680 1.384 . S
C682 C683 1.372 . S
C683 C682 1.372 . S
C683 C684 1.400 . S
C683 C688 1.490 . S
C684 H674 0.930 . S
C684 C683 1.400 . S
C684 C687 1.386 . S
H685 C701 0.930 . S
H686 C702 0.931 . S
C687 H675 0.929 . S
C687 C681 1.390 . S
C687 C684 1.386 . S
C688 C683 1.490 . S
C688 C690 1.395 . S
C688 C691 1.403 . S
H689 C695 0.930 . S
C690 H676 0.930 . S
C690 C688 1.395 . S
C690 C693 1.403 . S
C691 C688 1.403 . S
C691 C692 1.524 . S
C691 C695 1.400 . S
C692 H677 0.960 . S
C692 H678 0.960 . S
C692 H679 0.960 . S
C692 C691 1.524 . S
C693 C690 1.403 . S
C693 C694 1.392 . S
C693 C697 1.495 . S
C694 C693 1.392 . S
C694 C695 1.385 . S
C694 C696 1.478 1_655 S
C695 H689 0.930 . S
C695 C691 1.400 . S
C695 C694 1.385 . S
C696 C694 1.478 1_455 S
C696 C698 1.381 . S
C696 C702 1.383 . S
C697 C693 1.495 . S
C697 H703 0.959 . S
C697 H704 0.961 . S
C697 H705 0.960 . S
C698 C696 1.381 . S
C698 C699 1.394 . S
C698 H706 0.930 1_455 S
C699 C698 1.394 . S
C699 C700 1.383 . S
C699 H707 0.929 . S
C700 C699 1.383 . S
C700 C701 1.377 . S
C701 H685 0.930 . S
C701 C700 1.377 . S
C701 C702 1.379 . S
C702 H686 0.931 . S
C702 C696 1.383 . S
C702 C701 1.379 . S
H703 C697 0.959 . S
H704 C697 0.961 . S
H705 C697 0.960 . S
H706 C698 0.930 1_655 S
H707 C699 0.929 . S
H708 C716 0.929 . S
H709 C718 0.930 . S
H710 C720 0.930 . S
H711 C723 0.929 . S
H712 C726 0.930 . S
H713 C728 0.960 . S
H714 C728 0.960 . S
H715 C728 0.960 . S
C716 H708 0.929 . S
C716 C717 1.377 . S
C716 C718 1.384 . S
C717 C716 1.377 . S
C717 C723 1.390 . S
C718 H709 0.930 . S
C718 C716 1.384 . S
C718 C719 1.372 . S
C719 C718 1.372 . S
C719 C720 1.400 . S
C719 C724 1.490 . S
C720 H710 0.930 . S
C720 C719 1.400 . S
C720 C723 1.386 . S
H721 C737 0.930 . S
H722 C738 0.931 1_565 S
C723 H711 0.929 . S
C723 C717 1.390 . S
C723 C720 1.386 . S
C724 C719 1.490 . S
C724 C726 1.395 . S
C724 C727 1.403 . S
H725 C731 0.930 . S
C726 H712 0.930 . S
C726 C724 1.395 . S
C726 C729 1.403 . S
C727 C724 1.403 . S
C727 C728 1.524 . S
C727 C731 1.400 . S
C728 H713 0.960 . S
C728 H714 0.960 . S
C728 H715 0.960 . S
C728 C727 1.524 . S
C729 C726 1.403 . S
C729 C730 1.392 . S
C729 C733 1.518 . S
C730 C729 1.392 . S
C730 C731 1.385 . S
C730 C732 1.478 1_565 S
C731 H725 0.930 . S
C731 C727 1.400 . S
C731 C730 1.385 . S
C732 C730 1.478 1_545 S
C732 C734 1.381 . S
C732 C738 1.383 . S
C733 C729 1.518 . S
C733 H739 0.958 . S
C733 H740 0.962 . S
C733 H741 0.941 1_565 S
C734 C732 1.381 . S
C734 C735 1.394 . S
C734 H742 0.930 . S
C735 C734 1.394 . S
C735 C736 1.383 . S
C735 H743 0.929 . S
C736 C735 1.383 . S
C736 C737 1.377 . S
C737 H721 0.930 . S
C737 C736 1.377 . S
C737 C738 1.379 . S
C738 H722 0.931 1_545 S
C738 C732 1.383 . S
C738 C737 1.379 . S
H739 C733 0.958 . S
H740 C733 0.962 . S
H741 C733 0.941 1_545 S
H742 C734 0.930 . S
H743 C735 0.929 . S
C213 C135 0.966 . S
C232 C33 1.000 . S
C249 C169 0.980 . S
C268 C67 0.961 . S
C285 C101 0.979 . S
C304 C203 0.934 . S
C321 C138 0.903 . S
C340 C9 0.851 . S
C357 C172 0.899 . S
C376 C43 0.888 . S
C393 C77 0.896 . S
C412 C2 0.871 . S
C429 C36 0.905 . S
C448 C111 0.840 . S
C465 C145 0.877 . S
C484 C70 0.925 . S
C501 C179 0.885 . S
C520 C104 0.899 . S
C537 C190 0.679 . S
C556 C5 0.649 . S
C573 C39 0.679 . S
C592 C20 0.651 . S
C609 C54 0.678 . S
C628 C73 0.650 . S
C645 C88 0.672 . S
C664 C107 0.670 . S
C681 C122 0.688 . S
C700 C141 0.654 . S
C717 C156 0.677 . S
C736 C175 0.697 . S
