# Generated by pormake.
# Topology wni, (7)-cn, num edge types: 1
# Building blocks:
#     Node 0, Type 0, BuildingBlock: NUHQUE_clean_sbu_2, # of connection points: 7
#     Node 1, Type 0, BuildingBlock: NUHQUE_clean_sbu_2, # of connection points: 7
#     Node 2, Type 0, BuildingBlock: NUHQUE_clean_sbu_2, # of connection points: 7
#     Node 3, Type 0, BuildingBlock: NUHQUE_clean_sbu_2, # of connection points: 7
#     Node 4, Type 0, BuildingBlock: NUHQUE_clean_sbu_2, # of connection points: 7
#     Node 5, Type 0, BuildingBlock: NUHQUE_clean_sbu_2, # of connection points: 7
#     Edge 6, Type (0, 0), BuildingBlock: OJICUG_clean_linker_0, # of connection points: 2
#     Edge 7, Type (0, 0), BuildingBlock: OJICUG_clean_linker_0, # of connection points: 2
#     Edge 8, Type (0, 0), BuildingBlock: OJICUG_clean_linker_0, # of connection points: 2
#     Edge 9, Type (0, 0), BuildingBlock: OJICUG_clean_linker_0, # of connection points: 2
#     Edge 10, Type (0, 0), BuildingBlock: OJICUG_clean_linker_0, # of connection points: 2
#     Edge 11, Type (0, 0), BuildingBlock: OJICUG_clean_linker_0, # of connection points: 2
#     Edge 12, Type (0, 0), BuildingBlock: OJICUG_clean_linker_0, # of connection points: 2
#     Edge 13, Type (0, 0), BuildingBlock: OJICUG_clean_linker_0, # of connection points: 2
#     Edge 14, Type (0, 0), BuildingBlock: OJICUG_clean_linker_0, # of connection points: 2
#     Edge 15, Type (0, 0), BuildingBlock: OJICUG_clean_linker_0, # of connection points: 2
#     Edge 16, Type (0, 0), BuildingBlock: OJICUG_clean_linker_0, # of connection points: 2
#     Edge 17, Type (0, 0), BuildingBlock: OJICUG_clean_linker_0, # of connection points: 2
#     Edge 18, Type (0, 0), BuildingBlock: OJICUG_clean_linker_0, # of connection points: 2
#     Edge 19, Type (0, 0), BuildingBlock: OJICUG_clean_linker_0, # of connection points: 2
#     Edge 20, Type (0, 0), BuildingBlock: OJICUG_clean_linker_0, # of connection points: 2
#     Edge 21, Type (0, 0), BuildingBlock: OJICUG_clean_linker_0, # of connection points: 2
#     Edge 22, Type (0, 0), BuildingBlock: OJICUG_clean_linker_0, # of connection points: 2
#     Edge 23, Type (0, 0), BuildingBlock: OJICUG_clean_linker_0, # of connection points: 2
#     Edge 24, Type (0, 0), BuildingBlock: OJICUG_clean_linker_0, # of connection points: 2
#     Edge 25, Type (0, 0), BuildingBlock: OJICUG_clean_linker_0, # of connection points: 2
#     Edge 26, Type (0, 0), BuildingBlock: OJICUG_clean_linker_0, # of connection points: 2
# Relax obj value: 0.291
# Max RMSD: 0.308
# Mean RMSD: 0.308
data_MOF--net-wni--node1-NUHQUE_clean_sbu_2--edge1-OJICUG_clean_linker_0
_symmetry_space_group_name_H-M    P1
_symmetry_Int_Tables_number       1
_symmetry_cell_setting            triclinic
loop_
_symmetry_equiv_pos_as_xyz
'x, y, z'
_cell_length_a     26.910235
_cell_length_b     26.868499
_cell_length_c     23.713437
_cell_angle_alpha  89.967924
_cell_angle_beta   89.863994
_cell_angle_gamma 119.8655
loop_
_atom_site_label
_atom_site_type_symbol
_atom_site_fract_x
_atom_site_fract_y
_atom_site_fract_z
_atom_type_partial_charge
O0 O 0.37715 0.57343 0.01998 0.0
Tb1 Tb 0.33095 0.50325 0.07854 0.0
Eu2 Eu 0.20552 0.40319 0.13598 0.0
C3 C 0.37717 0.56693 0.9651 0.0
O4 O 0.34414 0.51628 0.94259 0.0
C5 C 0.28029 0.37487 0.05809 0.0
O6 O 0.13684 0.34951 0.20037 0.0
C7 C 0.15549 0.41565 0.04791 0.0
C8 C 0.14534 0.3559 0.25524 0.0
O9 O 0.19701 0.39138 0.27412 0.0
C10 C 0.2649 0.53461 0.16514 0.0
C11 C 0.1205 0.44055 0.0298 0.0
C12 C 0.11035 0.44119 0.97218 0.0
C13 C 0.075 0.4618 0.95257 0.0
C14 C 0.04995 0.48231 0.99113 0.0
C15 C 0.06095 0.48367 0.04932 0.0
C16 C 0.09664 0.46253 0.06841 0.0
O17 O 0.28952 0.42232 0.03283 0.0
O18 O 0.25877 0.36349 0.10954 0.0
O19 O 0.4175 0.51854 0.09269 0.0
O20 O 0.36068 0.49639 0.16263 0.0
C21 C 0.41231 0.50981 0.14676 0.0
O22 O 0.24517 0.48365 0.18823 0.0
O23 O 0.28653 0.5454 0.11383 0.0
O24 O 0.13104 0.37071 0.08131 0.0
O25 O 0.20866 0.45191 0.06136 0.0
H26 H 0.12879 0.42406 0.94254 0.0
H27 H 1.02124 0.49651 0.97552 0.0
H28 H 0.1059 0.46297 0.11291 0.0
O29 O 0.51172 0.82792 0.6863 0.0
Tb30 Tb 0.58153 0.85096 0.74456 0.0
Eu31 Eu 0.67993 0.82499 0.80545 0.0
C32 C 0.51902 0.8385 0.63196 0.0
O33 O 0.57047 0.86026 0.60977 0.0
C34 C 0.71003 0.92613 0.72412 0.0
O35 O 0.72397 0.80798 0.87852 0.0
C36 C 0.67099 0.76104 0.71968 0.0
C37 C 0.69736 0.75563 0.89973 0.0
O38 O 0.6487 0.71793 0.87658 0.0
C39 C 0.54779 0.75514 0.83233 0.0
C40 C 0.649 0.70184 0.70055 0.0
C41 C 0.6536 0.69281 0.64326 0.0
C42 C 0.63546 0.63751 0.62242 0.0
C43 C 0.61187 0.59097 0.66017 0.0
C44 C 0.60511 0.59895 0.7178 0.0
C45 C 0.62383 0.65498 0.73765 0.0
O46 O 0.66264 0.88787 0.69921 0.0
O47 O 0.72067 0.91707 0.77624 0.0
O48 O 0.56769 0.9233 0.75983 0.0
O49 O 0.58949 0.88733 0.82881 0.0
C50 C 0.57667 0.92624 0.81382 0.0
O51 O 0.59808 0.78765 0.85561 0.0
O52 O 0.53789 0.76476 0.78032 0.0
O53 O 0.71513 0.78276 0.75401 0.0
O54 O 0.63286 0.7762 0.73183 0.0
H55 H 0.67117 0.72932 0.61486 0.0
H56 H 0.60039 0.54862 0.64488 0.0
H57 H 0.61874 0.66229 0.78159 0.0
O58 O 0.26539 0.71738 0.34504 0.0
Tb59 Tb 0.23734 0.7557 0.40879 0.0
Eu60 Eu 0.25351 0.87169 0.47709 0.0
C61 C 0.24364 0.70485 0.29408 0.0
O62 O 0.20825 0.72218 0.27733 0.0
C63 C 0.15567 0.80276 0.39049 0.0
O64 O 0.2637 0.92629 0.55381 0.0
C65 C 0.32154 0.9348 0.397 0.0
C66 C 0.315 0.95171 0.57687 0.0
O67 O 0.35507 0.94453 0.55289 0.0
C68 C 0.32751 0.81393 0.50103 0.0
C69 C 0.38066 0.9709 0.37694 0.0
C70 C 0.38855 0.97707 0.31866 0.0
C71 C 0.443 1.01158 0.29524 0.0
C72 C 0.49043 0.03783 0.3313 0.0
C73 C 0.48392 0.03259 0.39044 0.0
C74 C 0.42812 0.99876 0.41307 0.0
O75 O 0.19514 0.79558 0.36486 0.0
O76 O 0.16321 0.82094 0.44323 0.0
O77 O 0.18011 0.66403 0.42057 0.0
O78 O 0.18729 0.72082 0.48655 0.0
C79 C 0.16285 0.66724 0.47088 0.0
O80 O 0.29102 0.82615 0.52528 0.0
O81 O 0.32161 0.79939 0.44764 0.0
O82 O 0.30147 0.95511 0.4358 0.0
O83 O 0.30291 0.87968 0.40164 0.0
H84 H 0.35161 0.95475 0.29137 0.0
H85 H 0.53256 0.06319 0.31295 0.0
H86 H 0.42126 0.9946 0.45821 0.0
O87 O 0.58286 0.35019 0.98704 0.0
Tb88 Tb 0.51662 0.31254 0.92352 0.0
Eu89 Eu 0.41431 0.18856 0.86508 0.0
C90 C 0.57386 0.36461 0.03736 0.0
O91 O 0.52154 0.35008 0.05316 0.0
C92 C 0.38861 0.2646 0.94458 0.0
O93 O 0.36495 0.12715 0.79393 0.0
C94 C 0.42555 0.13609 0.9518 0.0
C95 C 0.38263 0.09122 0.77948 0.0
O96 O 0.42385 0.09185 0.80935 0.0
C97 C 0.54562 0.24658 0.83334 0.0
C98 C 0.44895 0.1006 0.97301 0.0
C99 C 0.44712 0.09179 0.03113 0.0
C100 C 0.46847 0.05843 0.05486 0.0
C101 C 0.49365 0.03533 0.01933 0.0
C102 C 0.49588 0.04335 0.96042 0.0
C103 C 0.47349 0.0767 0.93764 0.0
O104 O 0.43575 0.27296 0.96956 0.0
O105 O 0.37682 0.24337 0.89309 0.0
O106 O 0.54937 0.40403 0.91307 0.0
O107 O 0.50186 0.34789 0.846 0.0
C108 C 0.52981 0.40127 0.86252 0.0
O109 O 0.49404 0.22567 0.81198 0.0
O110 O 0.55871 0.2705 0.88345 0.0
O111 O 0.38083 0.11218 0.91822 0.0
O112 O 0.46281 0.18925 0.9384 0.0
H113 H 0.42916 0.11154 0.05801 0.0
H114 H 0.51088 1.01035 0.03779 0.0
H115 H 0.47439 0.08355 0.89277 0.0
O116 O 0.73691 0.24983 0.66534 0.0
Tb117 Tb 0.77274 0.22536 0.59592 0.0
Eu118 Eu 0.89436 0.24737 0.53258 0.0
C119 C 0.70582 0.21109 0.70341 0.0
O120 O 0.70153 0.16022 0.70107 0.0
C121 C 0.82077 0.14385 0.61001 0.0
O122 O 0.96186 0.26152 0.46704 0.0
C123 C 0.94627 0.30947 0.62024 0.0
C124 C 0.95341 0.26152 0.41231 0.0
O125 O 0.90224 0.24816 0.39393 0.0
C126 C 0.8352 0.32064 0.50661 0.0
C127 C 0.9807 0.36939 0.63815 0.0
C128 C 0.99131 0.38038 0.69568 0.0
C129 C 1.02571 0.43649 0.71508 0.0
C130 C 0.04949 0.48199 0.6764 0.0
C131 C 1.03796 0.4721 0.61831 0.0
C132 C 1.00313 0.41513 0.59945 0.0
O133 O 0.81367 0.18261 0.63689 0.0
O134 O 0.8413 0.15428 0.55821 0.0
O135 O 0.68261 0.16056 0.58453 0.0
O136 O 0.73795 0.18712 0.51336 0.0
C137 C 0.68559 0.15385 0.53076 0.0
O138 O 0.85342 0.28848 0.48261 0.0
O139 O 0.81591 0.31118 0.55886 0.0
O140 O 0.97036 0.28988 0.58527 0.0
O141 O 0.89251 0.29169 0.60867 0.0
H142 H 0.97381 0.34491 0.72541 0.0
H143 H 0.07751 0.52504 0.69184 0.0
H144 H 0.99336 0.40613 0.55506 0.0
O145 O 0.8306 0.49865 0.32377 0.0
Tb146 Tb 0.85741 0.56351 0.25858 0.0
Eu147 Eu 0.83907 0.66217 0.19148 0.0
C148 C 0.85296 0.50895 0.37451 0.0
O149 O 0.88847 0.56196 0.39009 0.0
C150 C 0.93935 0.69251 0.27486 0.0
O151 O 0.8245 0.70614 0.11667 0.0
C152 C 0.7746 0.65604 0.27581 0.0
C153 C 0.7722 0.68015 0.09575 0.0
O154 O 0.73356 0.63263 0.12039 0.0
C155 C 0.76576 0.53053 0.16747 0.0
C156 C 0.71631 0.63231 0.29838 0.0
C157 C 0.71048 0.63169 0.3569 0.0
C158 C 0.65657 0.61031 0.38222 0.0
C159 C 0.60773 0.5868 0.34774 0.0
C160 C 0.61236 0.58691 0.28841 0.0
C161 C 0.66752 0.61028 0.264 0.0
O162 O 0.90068 0.6461 0.30136 0.0
O163 O 0.93053 0.70247 0.22226 0.0
O164 O 0.91424 0.52853 0.24624 0.0
O165 O 0.90699 0.57846 0.18055 0.0
C166 C 0.9314 0.54913 0.19595 0.0
O167 O 0.80117 0.57937 0.14289 0.0
O168 O 0.77256 0.52207 0.22069 0.0
O169 O 0.79253 0.69668 0.23737 0.0
O170 O 0.79305 0.61974 0.2681 0.0
H171 H 0.74857 0.64815 0.38286 0.0
H172 H 0.56603 0.56921 0.36736 0.0
H173 H 0.67291 0.61224 0.21868 0.0
C174 C 0.55682 0.53913 0.19963 0.0
C175 C 0.55972 0.5642 0.25263 0.0
H176 H 0.50777 0.50252 0.1244 0.0
C177 C 0.51172 0.56786 0.27107 0.0
H178 H 0.592 0.53424 0.18411 0.0
C179 C 0.46255 0.54699 0.23792 0.0
C180 C 0.4608 0.52391 0.18461 0.0
H181 H 0.51228 0.58838 0.31048 0.0
H182 H 0.42693 0.55152 0.25291 0.0
C183 C 0.50822 0.52009 0.16564 0.0
C184 C 0.53698 0.93554 0.90503 0.0
C185 C 0.56175 0.95932 0.85282 0.0
H186 H 0.49332 0.94054 0.97762 0.0
C187 C 0.56633 1.01154 0.83611 0.0
H188 H 0.53178 0.89457 0.91819 0.0
C189 C 0.54649 0.03973 0.87145 0.0
C190 C 0.51975 1.01514 0.92332 0.0
H191 H 0.58516 1.03049 0.79571 0.0
H192 H 0.55208 0.08063 0.85788 0.0
C193 C 0.51522 0.96242 0.93932 0.0
C194 C 0.11463 0.56214 0.48947 0.0
C195 C 0.12613 0.61697 0.50629 0.0
H196 H 0.07912 0.47383 0.5118 0.0
C197 C 0.10477 0.62333 0.55807 0.0
H198 H 0.1307 0.55609 0.44964 0.0
C199 C 0.07385 0.57583 0.59328 0.0
C200 C 0.0647 0.52118 0.5779 0.0
H201 H 0.11259 0.6651 0.57169 0.0
H202 H 0.05789 0.58221 0.63299 0.0
C203 C 0.08461 0.51483 0.525 0.0
C204 C 0.60335 0.5547 0.81182 0.0
C205 C 0.5811 0.54896 0.7571 0.0
H206 H 0.60387 0.51245 0.88806 0.0
C207 C 0.53804 0.49428 0.73918 0.0
H208 H 0.63689 0.59575 0.82705 0.0
C209 C 0.52001 0.44618 0.77391 0.0
C210 C 0.54394 0.45198 0.82758 0.0
H211 H 0.51883 0.48838 0.69788 0.0
H212 H 0.48815 0.40441 0.75842 0.0
C213 C 0.58468 0.50679 0.84675 0.0
C214 C 0.53861 0.04129 0.48037 0.0
C215 C 0.53561 0.06346 0.42739 0.0
H216 H 0.58856 0.05299 0.55493 0.0
C217 C 0.58338 0.11541 0.40922 0.0
H218 H 0.50346 1.00126 0.49588 0.0
C219 C 0.63299 0.14303 0.44174 0.0
C220 C 0.63537 0.12105 0.49446 0.0
H221 H 0.5826 0.13577 0.37013 0.0
H222 H 0.66872 0.18293 0.42656 0.0
C223 C 0.58766 0.07039 0.51396 0.0
C224 C 1.01234 0.47749 0.142 0.0
C225 C 1.03272 0.50459 0.08952 0.0
H226 H 0.96476 0.47085 0.21682 0.0
C227 C 1.02263 0.54954 0.07428 0.0
H228 H 1.01854 0.44234 0.15505 0.0
C229 C 0.99051 0.56488 0.10922 0.0
C230 C 0.9688 0.53641 0.16061 0.0
H231 H 1.03886 0.57247 0.03489 0.0
H232 H 0.98214 0.59855 0.09575 0.0
C233 C 0.98106 0.49351 0.17728 0.0
C234 C 0.32514 0.3081 0.9425 0.0
C235 C 0.35271 0.28436 0.97344 0.0
H236 H 0.28104 0.3561 0.94538 0.0
C237 C 0.35087 0.28532 0.03274 0.0
H238 H 0.32626 0.30839 0.89683 0.0
C239 C 0.32376 0.31134 0.06058 0.0
C240 C 0.29944 0.33832 0.02958 0.0
H241 H 0.37183 0.26731 0.05765 0.0
H242 H 0.32479 0.31325 0.10622 0.0
C243 C 0.29948 0.33556 0.97031 0.0
C244 C 0.80323 0.0853 0.69733 0.0
C245 C 0.8017 0.08803 0.63813 0.0
H246 H 0.77678 1.03173 0.77102 0.0
C247 C 0.77531 0.03673 0.6073 0.0
H248 H 0.82331 0.12429 0.72215 0.0
C249 C 0.74753 0.98379 0.63539 0.0
C250 C 0.74696 0.98118 0.69473 0.0
H251 H 0.77305 0.03759 0.56173 0.0
H252 H 0.7249 0.9449 0.6107 0.0
C253 C 0.77678 0.03237 0.72534 0.0
C254 C 1.04603 0.75684 0.27329 0.0
C255 C 0.99441 0.72969 0.30377 0.0
H256 H 0.13782 0.80097 0.27711 0.0
C257 C 0.9964 0.73265 0.36305 0.0
H258 H 1.04585 0.75488 0.22766 0.0
C259 C 0.04896 0.76006 0.39138 0.0
C260 C 0.1006 0.78375 0.361 0.0
H261 H 0.95721 0.71209 0.38766 0.0
H262 H 0.04908 0.75963 0.43706 0.0
C263 C 0.09863 0.78297 0.30165 0.0
C264 C 0.05909 0.30723 0.39175 0.0
C265 C 1.00233 0.28123 0.37206 0.0
H266 H 0.1485 0.3511 0.37064 0.0
C267 C 0.99307 0.27718 0.31344 0.0
H268 H 0.06795 0.31127 0.43655 0.0
C269 C 1.03935 0.29968 0.27555 0.0
C270 C 0.09616 0.32734 0.29528 0.0
H271 H 0.94998 0.25739 0.2967 0.0
H272 H 1.03053 0.29674 0.23076 0.0
C273 C 0.10539 0.33022 0.35387 0.0
C274 C 0.77265 0.77452 0.97426 0.0
C275 C 0.71898 0.7382 0.94944 0.0
H276 H 0.83233 0.78481 0.03998 0.0
C277 C 0.68442 0.68335 0.97282 0.0
H278 H 0.80038 0.817 0.95723 0.0
C279 C 0.70231 0.66533 0.0198 0.0
C280 C 0.75566 0.70125 0.04502 0.0
H281 H 0.64287 0.65395 0.95508 0.0
H282 H 0.67391 0.62272 0.03628 0.0
C283 C 0.79099 0.75607 0.02154 0.0
C284 C 0.39274 1.02778 0.70961 0.0
C285 C 0.36192 0.05418 0.72851 0.0
H286 H 0.40214 0.97551 0.64783 0.0
C287 C 0.31346 0.04526 0.69774 0.0
H288 H 0.43034 0.03353 0.73191 0.0
C289 C 0.29662 1.01075 0.64891 0.0
C290 C 0.32867 0.98564 0.62974 0.0
H291 H 0.28877 0.06495 0.71125 0.0
H292 H 0.25949 1.00479 0.62561 0.0
C293 C 0.37663 0.99445 0.66097 0.0
C294 C 0.46494 0.66298 0.95653 0.0
C295 C 0.41871 0.61579 0.9303 0.0
H296 H 0.54191 0.7434 0.94615 0.0
C297 C 0.41428 0.61531 0.87123 0.0
H298 H 0.46989 0.66463 1.00192 0.0
C299 C 0.45554 0.66122 0.83911 0.0
C300 C 0.50235 0.70772 0.86553 0.0
H301 H 0.37914 0.5795 0.84989 0.0
H302 H 0.45145 0.6597 0.79362 0.0
C303 C 0.50647 0.70812 0.92452 0.0
C304 C 0.37436 0.8189 0.59298 0.0
C305 C 0.37602 0.81823 0.53386 0.0
H306 H 0.41777 0.825 0.67005 0.0
C307 C 0.42483 0.82313 0.5068 0.0
H308 H 0.33737 0.8152 0.61505 0.0
C309 C 0.47154 0.82955 0.53844 0.0
C310 C 0.4697 0.83013 0.59763 0.0
H311 H 0.4274 0.82311 0.46121 0.0
H312 H 0.50897 0.83404 0.51663 0.0
C313 C 0.42044 0.8243 0.62449 0.0
C314 C 0.25263 0.621 0.1697 0.0
C315 C 0.26187 0.57996 0.1972 0.0
H316 H 0.2385 0.69256 0.17908 0.0
C317 C 0.26703 0.58168 0.25607 0.0
H318 H 0.24818 0.62026 0.12427 0.0
C319 C 0.26305 0.62367 0.28704 0.0
C320 C 0.25227 0.66387 0.25991 0.0
H321 H 0.27434 0.55063 0.27822 0.0
H322 H 0.26673 0.62353 0.33252 0.0
C323 C 0.24698 0.66217 0.20094 0.0
C324 C 0.67633 0.44052 0.04569 0.0
C325 C 0.62349 0.40417 0.07199 0.0
H326 H 0.76236 0.50965 0.05532 0.0
C327 C 0.61817 0.40856 0.13046 0.0
H328 H 0.68158 0.4386 1.00058 0.0
C329 C 0.66502 0.44862 0.16202 0.0
C330 C 0.71729 0.48588 0.13528 0.0
H331 H 0.57786 0.38123 0.15169 0.0
H332 H 0.65987 0.45159 0.207 0.0
C333 C 0.7225 0.48145 0.0769 0.0
C334 C 0.68176 0.27582 0.75865 0.0
C335 C 0.66729 0.22042 0.74057 0.0
H336 H 0.6544 0.32736 0.80396 0.0
C337 C 0.6134 0.17388 0.75476 0.0
H338 H 0.72305 0.31236 0.74808 0.0
C339 C 0.57386 0.18279 0.78465 0.0
C340 C 0.58809 0.23801 0.80246 0.0
H341 H 0.60092 0.13077 0.74102 0.0
H342 H 0.53226 0.14642 0.79413 0.0
C343 C 0.64269 0.2844 0.79037 0.0
C344 C 0.84785 0.41943 0.50053 0.0
C345 C 0.83681 0.36813 0.47406 0.0
H346 H 0.86267 0.50517 0.48944 0.0
C347 C 0.82883 0.36286 0.41551 0.0
H348 H 0.85448 0.42453 0.54568 0.0
C349 C 0.83204 0.40807 0.3838 0.0
C350 C 0.8448 0.46012 0.40977 0.0
H351 H 0.82004 0.32367 0.39416 0.0
H352 H 0.82628 0.40279 0.33857 0.0
C353 C 0.85266 0.46547 0.46845 0.0
C354 C 0.99348 0.4246 0.81541 0.0
C355 C 1.03832 0.44692 0.7758 0.0
H356 H 0.97022 0.41264 0.9029 0.0
C357 C 0.09527 0.47671 0.79457 0.0
H358 H 0.94924 0.40159 0.80171 0.0
C359 C 0.10723 0.48245 0.8522 0.0
C360 C 0.06239 0.45931 0.89181 0.0
H361 H 0.13047 0.49391 0.76467 0.0
H362 H 0.15148 0.50444 0.8659 0.0
C363 C 1.00542 0.43116 0.87302 0.0
C364 C 0.60006 0.57981 0.53296 0.0
C365 C 0.64177 0.62879 0.56141 0.0
H366 H 0.57268 0.53447 0.45483 0.0
C367 C 0.68913 0.67028 0.53076 0.0
H368 H 0.5627 0.54714 0.555 0.0
C369 C 0.69374 0.66404 0.473 0.0
C370 C 0.6519 0.61537 0.44431 0.0
H371 H 0.72281 0.70799 0.55126 0.0
H372 H 0.7298 0.69819 0.45075 0.0
C373 C 0.6053 0.57296 0.47519 0.0
C374 C 0.41344 0.03829 0.14539 0.0
C375 C 0.46249 0.04618 0.11643 0.0
H376 H 0.36996 1.02363 0.22397 0.0
C377 C 0.50494 0.04157 0.14668 0.0
H378 H 0.37916 0.04021 0.12352 0.0
C379 C 0.4983 1.02918 0.20435 0.0
C380 C 0.44964 1.02234 0.2334 0.0
H381 H 0.54366 0.04804 0.12607 0.0
H382 H 0.53132 1.02484 0.22599 0.0
C383 C 0.4075 1.02739 0.2031 0.0
loop_
_geom_bond_atom_site_label_1
_geom_bond_atom_site_label_2
_geom_bond_distance
_geom_bond_site_symmetry_2
_ccdc_geom_bond_type
O0 Tb1 2.292 1_556 S
O0 C3 1.255 . S
Tb1 O0 2.292 1_554 S
Tb1 O17 2.326 . S
Tb1 O19 2.500 . S
Tb1 O20 2.473 . S
Tb1 O23 2.324 . S
Eu2 O6 2.292 . S
Eu2 C7 2.852 . S
Eu2 O18 2.324 . S
Eu2 O22 2.326 . S
Eu2 O24 2.500 . S
Eu2 O25 2.473 . S
C3 O0 1.255 . S
C3 O4 1.247 . S
O4 C3 1.247 . S
C5 O17 1.242 . S
C5 O18 1.258 . S
O6 Eu2 2.292 . S
O6 C8 1.255 . S
C7 Eu2 2.852 . S
C7 C11 1.503 . S
C7 O24 1.273 . S
C7 O25 1.257 . S
C8 O6 1.255 . S
C8 O9 1.247 . S
O9 C8 1.247 . S
C10 O22 1.242 . S
C10 O23 1.258 . S
C11 C7 1.503 . S
C11 C12 1.379 1_554 S
C11 C16 1.411 . S
C12 C11 1.379 1_556 S
C12 C13 1.404 . S
C12 H26 0.929 . S
C13 C12 1.404 . S
C13 C14 1.389 1_455 S
C14 C13 1.389 1_655 S
C14 C15 1.399 1_556 S
C14 H27 0.931 . S
C15 C14 1.399 1_554 S
C15 C16 1.374 1_655 S
C16 C11 1.411 . S
C16 C15 1.374 1_455 S
C16 H28 0.926 1_455 S
O17 Tb1 2.326 . S
O17 C5 1.242 . S
O18 Eu2 2.324 . S
O18 C5 1.258 . S
O19 Tb1 2.500 . S
O19 C21 1.273 . S
O20 Tb1 2.473 . S
O20 C21 1.257 . S
C21 O19 1.273 . S
C21 O20 1.257 . S
O22 Eu2 2.326 . S
O22 C10 1.242 . S
O23 Tb1 2.324 . S
O23 C10 1.258 . S
O24 Eu2 2.500 . S
O24 C7 1.273 . S
O25 Eu2 2.473 . S
O25 C7 1.257 . S
H26 C12 0.929 . S
H27 C14 0.931 . S
H28 C16 0.926 1_655 S
O29 Tb30 2.292 . S
O29 C32 1.255 . S
Tb30 O29 2.292 . S
Tb30 O46 2.326 . S
Tb30 O48 2.500 . S
Tb30 O49 2.473 . S
Tb30 O52 2.324 . S
Eu31 O35 2.292 . S
Eu31 C36 2.852 . S
Eu31 O47 2.324 . S
Eu31 O51 2.326 . S
Eu31 O53 2.500 . S
Eu31 O54 2.473 . S
C32 O29 1.255 . S
C32 O33 1.247 . S
O33 C32 1.247 . S
C34 O46 1.242 . S
C34 O47 1.258 . S
O35 Eu31 2.292 . S
O35 C37 1.255 . S
C36 Eu31 2.852 . S
C36 C40 1.503 . S
C36 O53 1.273 . S
C36 O54 1.257 . S
C37 O35 1.255 . S
C37 O38 1.247 . S
O38 C37 1.247 . S
C39 O51 1.242 . S
C39 O52 1.258 . S
C40 C36 1.503 . S
C40 C41 1.379 . S
C40 C45 1.392 . S
C41 C40 1.379 . S
C41 C42 1.404 . S
C41 H55 0.929 . S
C42 C41 1.404 . S
C42 C43 1.389 . S
C43 C42 1.389 . S
C43 C44 1.399 . S
C43 H56 0.931 . S
C44 C43 1.399 . S
C44 C45 1.390 . S
C45 C40 1.392 . S
C45 C44 1.390 . S
C45 H57 0.929 . S
O46 Tb30 2.326 . S
O46 C34 1.242 . S
O47 Eu31 2.324 . S
O47 C34 1.258 . S
O48 Tb30 2.500 . S
O48 C50 1.273 . S
O49 Tb30 2.473 . S
O49 C50 1.257 . S
C50 O48 1.273 . S
C50 O49 1.257 . S
O51 Eu31 2.326 . S
O51 C39 1.242 . S
O52 Tb30 2.324 . S
O52 C39 1.258 . S
O53 Eu31 2.500 . S
O53 C36 1.273 . S
O54 Eu31 2.473 . S
O54 C36 1.257 . S
H55 C41 0.929 . S
H56 C43 0.931 . S
H57 C45 0.929 . S
O58 Tb59 2.292 . S
O58 C61 1.255 . S
Tb59 O58 2.292 . S
Tb59 O75 2.326 . S
Tb59 O77 2.500 . S
Tb59 O78 2.473 . S
Tb59 O81 2.324 . S
Eu60 O64 2.292 . S
Eu60 C65 2.852 . S
Eu60 O76 2.324 . S
Eu60 O80 2.326 . S
Eu60 O82 2.500 . S
Eu60 O83 2.473 . S
C61 O58 1.255 . S
C61 O62 1.247 . S
O62 C61 1.247 . S
C63 O75 1.242 . S
C63 O76 1.258 . S
O64 Eu60 2.292 . S
O64 C66 1.255 . S
C65 Eu60 2.852 . S
C65 C69 1.503 . S
C65 O82 1.273 . S
C65 O83 1.257 . S
C66 O64 1.255 . S
C66 O67 1.247 . S
O67 C66 1.247 . S
C68 O80 1.242 . S
C68 O81 1.258 . S
C69 C65 1.503 . S
C69 C70 1.379 . S
C69 C74 1.402 . S
C70 C69 1.379 . S
C70 C71 1.404 . S
C70 H84 0.929 . S
C71 C70 1.404 . S
C71 C72 1.389 1_565 S
C72 C71 1.389 1_545 S
C72 C73 1.399 . S
C72 H85 0.931 . S
C73 C72 1.399 . S
C73 C74 1.386 1_545 S
C74 C69 1.402 . S
C74 C73 1.386 1_565 S
C74 H86 0.922 1_565 S
O75 Tb59 2.326 . S
O75 C63 1.242 . S
O76 Eu60 2.324 . S
O76 C63 1.258 . S
O77 Tb59 2.500 . S
O77 C79 1.273 . S
O78 Tb59 2.473 . S
O78 C79 1.257 . S
C79 O77 1.273 . S
C79 O78 1.257 . S
O80 Eu60 2.326 . S
O80 C68 1.242 . S
O81 Tb59 2.324 . S
O81 C68 1.258 . S
O82 Eu60 2.500 . S
O82 C65 1.273 . S
O83 Eu60 2.473 . S
O83 C65 1.257 . S
H84 C70 0.929 . S
H85 C72 0.931 . S
H86 C74 0.922 1_545 S
O87 Tb88 2.292 1_554 S
O87 C90 1.255 . S
Tb88 O87 2.292 1_556 S
Tb88 O104 2.326 . S
Tb88 O106 2.500 . S
Tb88 O107 2.473 . S
Tb88 O110 2.324 . S
Eu89 O93 2.292 . S
Eu89 C94 2.852 . S
Eu89 O105 2.324 . S
Eu89 O109 2.326 . S
Eu89 O111 2.500 . S
Eu89 O112 2.473 . S
C90 O87 1.255 . S
C90 O91 1.247 . S
O91 C90 1.247 . S
C92 O104 1.242 . S
C92 O105 1.258 . S
O93 Eu89 2.292 . S
O93 C95 1.255 . S
C94 Eu89 2.852 . S
C94 C98 1.503 . S
C94 O111 1.273 . S
C94 O112 1.257 . S
C95 O93 1.255 . S
C95 O96 1.247 . S
O96 C95 1.247 . S
C97 O109 1.242 . S
C97 O110 1.258 . S
C98 C94 1.503 . S
C98 C99 1.379 1_556 S
C98 C103 1.411 . S
C99 C98 1.379 1_554 S
C99 C100 1.404 . S
C99 H113 0.929 . S
C100 C99 1.404 . S
C100 C101 1.389 1_545 S
C101 C100 1.389 1_565 S
C101 C102 1.399 1_554 S
C101 H114 0.931 . S
C102 C101 1.399 1_556 S
C102 C103 1.374 1_565 S
C103 C98 1.411 . S
C103 C102 1.374 1_545 S
C103 H115 0.926 1_545 S
O104 Tb88 2.326 . S
O104 C92 1.242 . S
O105 Eu89 2.324 . S
O105 C92 1.258 . S
O106 Tb88 2.500 . S
O106 C108 1.273 . S
O107 Tb88 2.473 . S
O107 C108 1.257 . S
C108 O106 1.273 . S
C108 O107 1.257 . S
O109 Eu89 2.326 . S
O109 C97 1.242 . S
O110 Tb88 2.324 . S
O110 C97 1.258 . S
O111 Eu89 2.500 . S
O111 C94 1.273 . S
O112 Eu89 2.473 . S
O112 C94 1.257 . S
H113 C99 0.929 . S
H114 C101 0.931 . S
H115 C103 0.926 1_565 S
O116 Tb117 2.292 . S
O116 C119 1.255 . S
Tb117 O116 2.292 . S
Tb117 O133 2.326 . S
Tb117 O135 2.500 . S
Tb117 O136 2.473 . S
Tb117 O139 2.324 . S
Eu118 O122 2.292 . S
Eu118 C123 2.852 . S
Eu118 O134 2.324 . S
Eu118 O138 2.326 . S
Eu118 O140 2.500 . S
Eu118 O141 2.473 . S
C119 O116 1.255 . S
C119 O120 1.247 . S
O120 C119 1.247 . S
C121 O133 1.242 . S
C121 O134 1.258 . S
O122 Eu118 2.292 . S
O122 C124 1.255 . S
C123 Eu118 2.852 . S
C123 C127 1.503 . S
C123 O140 1.273 . S
C123 O141 1.257 . S
C124 O122 1.255 . S
C124 O125 1.247 . S
O125 C124 1.247 . S
C126 O138 1.242 . S
C126 O139 1.258 . S
C127 C123 1.503 . S
C127 C128 1.379 . S
C127 C132 1.402 . S
C128 C127 1.379 . S
C128 C129 1.404 . S
C128 H142 0.929 . S
C129 C128 1.404 . S
C129 C130 1.389 1_655 S
C130 C129 1.389 1_455 S
C130 C131 1.399 . S
C130 H143 0.931 . S
C131 C130 1.399 . S
C131 C132 1.386 1_455 S
C132 C127 1.402 . S
C132 C131 1.386 1_655 S
C132 H144 0.922 1_655 S
O133 Tb117 2.326 . S
O133 C121 1.242 . S
O134 Eu118 2.324 . S
O134 C121 1.258 . S
O135 Tb117 2.500 . S
O135 C137 1.273 . S
O136 Tb117 2.473 . S
O136 C137 1.257 . S
C137 O135 1.273 . S
C137 O136 1.257 . S
O138 Eu118 2.326 . S
O138 C126 1.242 . S
O139 Tb117 2.324 . S
O139 C126 1.258 . S
O140 Eu118 2.500 . S
O140 C123 1.273 . S
O141 Eu118 2.473 . S
O141 C123 1.257 . S
H142 C128 0.929 . S
H143 C130 0.931 . S
H144 C132 0.922 1_455 S
O145 Tb146 2.292 . S
O145 C148 1.255 . S
Tb146 O145 2.292 . S
Tb146 O162 2.326 . S
Tb146 O164 2.500 . S
Tb146 O165 2.473 . S
Tb146 O168 2.324 . S
Eu147 O151 2.292 . S
Eu147 C152 2.852 . S
Eu147 O163 2.324 . S
Eu147 O167 2.326 . S
Eu147 O169 2.500 . S
Eu147 O170 2.473 . S
C148 O145 1.255 . S
C148 O149 1.247 . S
O149 C148 1.247 . S
C150 O162 1.242 . S
C150 O163 1.258 . S
O151 Eu147 2.292 . S
O151 C153 1.255 . S
C152 Eu147 2.852 . S
C152 C156 1.503 . S
C152 O169 1.273 . S
C152 O170 1.257 . S
C153 O151 1.255 . S
C153 O154 1.247 . S
O154 C153 1.247 . S
C155 O167 1.242 . S
C155 O168 1.258 . S
C156 C152 1.503 . S
C156 C157 1.379 . S
C156 C161 1.392 . S
C157 C156 1.379 . S
C157 C158 1.404 . S
C157 H171 0.929 . S
C158 C157 1.404 . S
C158 C159 1.389 . S
C159 C158 1.389 . S
C159 C160 1.399 . S
C159 H172 0.931 . S
C160 C159 1.399 . S
C160 C161 1.390 . S
C161 C156 1.392 . S
C161 C160 1.390 . S
C161 H173 0.929 . S
O162 Tb146 2.326 . S
O162 C150 1.242 . S
O163 Eu147 2.324 . S
O163 C150 1.258 . S
O164 Tb146 2.500 . S
O164 C166 1.273 . S
O165 Tb146 2.473 . S
O165 C166 1.257 . S
C166 O164 1.273 . S
C166 O165 1.257 . S
O167 Eu147 2.326 . S
O167 C155 1.242 . S
O168 Tb146 2.324 . S
O168 C155 1.258 . S
O169 Eu147 2.500 . S
O169 C152 1.273 . S
O170 Eu147 2.473 . S
O170 C152 1.257 . S
H171 C157 0.929 . S
H172 C159 0.931 . S
H173 C161 0.929 . S
C174 C175 1.387 . S
C174 H178 0.950 . S
C174 C183 1.390 . S
C175 C174 1.387 . S
C175 C177 1.387 . S
H176 C183 0.950 . S
C177 C175 1.387 . S
C177 C179 1.390 . S
C177 H181 0.950 . S
H178 C174 0.950 . S
C179 C177 1.390 . S
C179 C180 1.387 . S
C179 H182 0.950 . S
C180 C179 1.387 . S
C180 C183 1.387 . S
H181 C177 0.950 . S
H182 C179 0.950 . S
C183 C174 1.390 . S
C183 H176 0.950 . S
C183 C180 1.387 . S
C184 C185 1.387 . S
C184 H188 0.950 . S
C184 C193 1.390 . S
C185 C184 1.387 . S
C185 C187 1.387 . S
H186 C193 0.950 . S
C187 C185 1.387 . S
C187 C189 1.390 . S
C187 H191 0.950 . S
H188 C184 0.950 . S
C189 C187 1.390 . S
C189 C190 1.387 . S
C189 H192 0.950 1_565 S
C190 C189 1.387 . S
C190 C193 1.387 . S
H191 C187 0.950 . S
H192 C189 0.950 1_545 S
C193 C184 1.390 . S
C193 H186 0.950 . S
C193 C190 1.387 . S
C194 C195 1.387 . S
C194 H198 0.950 . S
C194 C203 1.390 . S
C195 C194 1.387 . S
C195 C197 1.387 . S
H196 C203 0.950 . S
C197 C195 1.387 . S
C197 C199 1.390 . S
C197 H201 0.950 . S
H198 C194 0.950 . S
C199 C197 1.390 . S
C199 C200 1.387 . S
C199 H202 0.950 1_455 S
C200 C199 1.387 . S
C200 C203 1.387 . S
H201 C197 0.950 . S
H202 C199 0.950 1_655 S
C203 C194 1.390 . S
C203 H196 0.950 . S
C203 C200 1.387 . S
C204 C205 1.387 . S
C204 H208 0.950 . S
C204 C213 1.390 . S
C205 C204 1.387 . S
C205 C207 1.387 . S
H206 C213 0.950 . S
C207 C205 1.387 . S
C207 C209 1.390 . S
C207 H211 0.950 . S
H208 C204 0.950 . S
C209 C207 1.390 . S
C209 C210 1.387 . S
C209 H212 0.950 . S
C210 C209 1.387 . S
C210 C213 1.387 . S
H211 C207 0.950 . S
H212 C209 0.950 . S
C213 C204 1.390 . S
C213 H206 0.950 . S
C213 C210 1.387 . S
C214 C215 1.387 . S
C214 H218 0.950 1_545 S
C214 C223 1.390 . S
C215 C214 1.387 . S
C215 C217 1.387 . S
H216 C223 0.950 . S
C217 C215 1.387 . S
C217 C219 1.390 . S
C217 H221 0.950 . S
H218 C214 0.950 1_565 S
C219 C217 1.390 . S
C219 C220 1.387 . S
C219 H222 0.950 . S
C220 C219 1.387 . S
C220 C223 1.387 . S
H221 C217 0.950 . S
H222 C219 0.950 . S
C223 C214 1.390 . S
C223 H216 0.950 . S
C223 C220 1.387 . S
C224 C225 1.387 . S
C224 H228 0.950 . S
C224 C233 1.390 . S
C225 C224 1.387 . S
C225 C227 1.387 . S
H226 C233 0.950 . S
C227 C225 1.387 . S
C227 C229 1.390 . S
C227 H231 0.950 . S
H228 C224 0.950 . S
C229 C227 1.390 . S
C229 C230 1.387 . S
C229 H232 0.950 . S
C230 C229 1.387 . S
C230 C233 1.387 . S
H231 C227 0.950 . S
H232 C229 0.950 . S
C233 C224 1.390 . S
C233 H226 0.950 . S
C233 C230 1.387 . S
C234 C235 1.387 . S
C234 H238 0.950 . S
C234 C243 1.390 1_556 S
C235 C234 1.387 . S
C235 C237 1.387 . S
H236 C243 0.950 . S
C237 C235 1.387 . S
C237 C239 1.390 1_556 S
C237 H241 0.950 . S
H238 C234 0.950 . S
C239 C237 1.390 1_554 S
C239 C240 1.387 . S
C239 H242 0.950 . S
C240 C239 1.387 . S
C240 C243 1.387 . S
H241 C237 0.950 . S
H242 C239 0.950 . S
C243 C234 1.390 1_554 S
C243 H236 0.950 . S
C243 C240 1.387 . S
C244 C245 1.387 . S
C244 H248 0.950 . S
C244 C253 1.390 1_545 S
C245 C244 1.387 . S
C245 C247 1.387 . S
H246 C253 0.950 . S
C247 C245 1.387 . S
C247 C249 1.390 1_545 S
C247 H251 0.950 . S
H248 C244 0.950 . S
C249 C247 1.390 1_565 S
C249 C250 1.387 . S
C249 H252 0.950 . S
C250 C249 1.387 . S
C250 C253 1.387 . S
H251 C247 0.950 . S
H252 C249 0.950 . S
C253 C244 1.390 1_565 S
C253 H246 0.950 . S
C253 C250 1.387 . S
C254 C255 1.387 . S
C254 H258 0.950 . S
C254 C263 1.390 1_655 S
C255 C254 1.387 . S
C255 C257 1.387 . S
H256 C263 0.950 . S
C257 C255 1.387 . S
C257 C259 1.390 1_655 S
C257 H261 0.950 . S
H258 C254 0.950 . S
C259 C257 1.390 1_455 S
C259 C260 1.387 . S
C259 H262 0.950 . S
C260 C259 1.387 . S
C260 C263 1.387 . S
H261 C257 0.950 . S
H262 C259 0.950 . S
C263 C254 1.390 1_455 S
C263 H256 0.950 . S
C263 C260 1.387 . S
C264 C265 1.387 . S
C264 H268 0.950 . S
C264 C273 1.390 1_655 S
C265 C264 1.387 . S
C265 C267 1.387 . S
H266 C273 0.950 . S
C267 C265 1.387 . S
C267 C269 1.390 1_655 S
C267 H271 0.950 . S
H268 C264 0.950 . S
C269 C267 1.390 1_455 S
C269 C270 1.387 . S
C269 H272 0.950 . S
C270 C269 1.387 . S
C270 C273 1.387 . S
H271 C267 0.950 . S
H272 C269 0.950 . S
C273 C264 1.390 1_455 S
C273 H266 0.950 . S
C273 C270 1.387 . S
C274 C275 1.387 1_554 S
C274 H278 0.950 . S
C274 C283 1.390 . S
C275 C274 1.387 1_556 S
C275 C277 1.387 . S
H276 C283 0.950 . S
C277 C275 1.387 . S
C277 C279 1.390 . S
C277 H281 0.950 . S
H278 C274 0.950 . S
C279 C277 1.390 . S
C279 C280 1.387 1_556 S
C279 H282 0.950 . S
C280 C279 1.387 1_554 S
C280 C283 1.387 . S
H281 C277 0.950 . S
H282 C279 0.950 . S
C283 C274 1.390 . S
C283 H276 0.950 . S
C283 C280 1.387 . S
C284 C285 1.387 . S
C284 H288 0.950 . S
C284 C293 1.390 1_545 S
C285 C284 1.387 . S
C285 C287 1.387 . S
H286 C293 0.950 . S
C287 C285 1.387 . S
C287 C289 1.390 1_545 S
C287 H291 0.950 . S
H288 C284 0.950 . S
C289 C287 1.390 1_565 S
C289 C290 1.387 . S
C289 H292 0.950 . S
C290 C289 1.387 . S
C290 C293 1.387 . S
H291 C287 0.950 . S
H292 C289 0.950 . S
C293 C284 1.390 1_565 S
C293 H286 0.950 . S
C293 C290 1.387 . S
C294 C295 1.387 . S
C294 H298 0.950 . S
C294 C303 1.390 . S
C295 C294 1.387 . S
C295 C297 1.387 . S
H296 C303 0.950 . S
C297 C295 1.387 . S
C297 C299 1.390 . S
C297 H301 0.950 . S
H298 C294 0.950 . S
C299 C297 1.390 . S
C299 C300 1.387 . S
C299 H302 0.950 . S
C300 C299 1.387 . S
C300 C303 1.387 . S
H301 C297 0.950 . S
H302 C299 0.950 . S
C303 C294 1.390 . S
C303 H296 0.950 . S
C303 C300 1.387 . S
C304 C305 1.387 . S
C304 H308 0.950 . S
C304 C313 1.390 . S
C305 C304 1.387 . S
C305 C307 1.387 . S
H306 C313 0.950 . S
C307 C305 1.387 . S
C307 C309 1.390 . S
C307 H311 0.950 . S
H308 C304 0.950 . S
C309 C307 1.390 . S
C309 C310 1.387 . S
C309 H312 0.950 . S
C310 C309 1.387 . S
C310 C313 1.387 . S
H311 C307 0.950 . S
H312 C309 0.950 . S
C313 C304 1.390 . S
C313 H306 0.950 . S
C313 C310 1.387 . S
C314 C315 1.387 . S
C314 H318 0.950 . S
C314 C323 1.390 . S
C315 C314 1.387 . S
C315 C317 1.387 . S
H316 C323 0.950 . S
C317 C315 1.387 . S
C317 C319 1.390 . S
C317 H321 0.950 . S
H318 C314 0.950 . S
C319 C317 1.390 . S
C319 C320 1.387 . S
C319 H322 0.950 . S
C320 C319 1.387 . S
C320 C323 1.387 . S
H321 C317 0.950 . S
H322 C319 0.950 . S
C323 C314 1.390 . S
C323 H316 0.950 . S
C323 C320 1.387 . S
C324 C325 1.387 . S
C324 H328 0.950 . S
C324 C333 1.390 . S
C325 C324 1.387 . S
C325 C327 1.387 . S
H326 C333 0.950 . S
C327 C325 1.387 . S
C327 C329 1.390 . S
C327 H331 0.950 . S
H328 C324 0.950 . S
C329 C327 1.390 . S
C329 C330 1.387 . S
C329 H332 0.950 . S
C330 C329 1.387 . S
C330 C333 1.387 . S
H331 C327 0.950 . S
H332 C329 0.950 . S
C333 C324 1.390 . S
C333 H326 0.950 . S
C333 C330 1.387 . S
C334 C335 1.387 . S
C334 H338 0.950 . S
C334 C343 1.390 . S
C335 C334 1.387 . S
C335 C337 1.387 . S
H336 C343 0.950 . S
C337 C335 1.387 . S
C337 C339 1.390 . S
C337 H341 0.950 . S
H338 C334 0.950 . S
C339 C337 1.390 . S
C339 C340 1.387 . S
C339 H342 0.950 . S
C340 C339 1.387 . S
C340 C343 1.387 . S
H341 C337 0.950 . S
H342 C339 0.950 . S
C343 C334 1.390 . S
C343 H336 0.950 . S
C343 C340 1.387 . S
C344 C345 1.387 . S
C344 H348 0.950 . S
C344 C353 1.390 . S
C345 C344 1.387 . S
C345 C347 1.387 . S
H346 C353 0.950 . S
C347 C345 1.387 . S
C347 C349 1.390 . S
C347 H351 0.950 . S
H348 C344 0.950 . S
C349 C347 1.390 . S
C349 C350 1.387 . S
C349 H352 0.950 . S
C350 C349 1.387 . S
C350 C353 1.387 . S
H351 C347 0.950 . S
H352 C349 0.950 . S
C353 C344 1.390 . S
C353 H346 0.950 . S
C353 C350 1.387 . S
C354 C355 1.387 . S
C354 H358 0.950 . S
C354 C363 1.390 . S
C355 C354 1.387 . S
C355 C357 1.387 1_655 S
H356 C363 0.950 . S
C357 C355 1.387 1_455 S
C357 C359 1.390 . S
C357 H361 0.950 . S
H358 C354 0.950 . S
C359 C357 1.390 . S
C359 C360 1.387 . S
C359 H362 0.950 . S
C360 C359 1.387 . S
C360 C363 1.387 1_455 S
H361 C357 0.950 . S
H362 C359 0.950 . S
C363 C354 1.390 . S
C363 H356 0.950 . S
C363 C360 1.387 1_655 S
C364 C365 1.387 . S
C364 H368 0.950 . S
C364 C373 1.390 . S
C365 C364 1.387 . S
C365 C367 1.387 . S
H366 C373 0.950 . S
C367 C365 1.387 . S
C367 C369 1.390 . S
C367 H371 0.950 . S
H368 C364 0.950 . S
C369 C367 1.390 . S
C369 C370 1.387 . S
C369 H372 0.950 . S
C370 C369 1.387 . S
C370 C373 1.387 . S
H371 C367 0.950 . S
H372 C369 0.950 . S
C373 C364 1.390 . S
C373 H366 0.950 . S
C373 C370 1.387 . S
C374 C375 1.387 . S
C374 H378 0.950 . S
C374 C383 1.390 1_545 S
C375 C374 1.387 . S
C375 C377 1.387 . S
H376 C383 0.950 . S
C377 C375 1.387 . S
C377 C379 1.390 1_545 S
C377 H381 0.950 . S
H378 C374 0.950 . S
C379 C377 1.390 1_565 S
C379 C380 1.387 . S
C379 H382 0.950 . S
C380 C379 1.387 . S
C380 C383 1.387 . S
H381 C377 0.950 . S
H382 C379 0.950 . S
C383 C374 1.390 1_565 S
C383 H376 0.950 . S
C383 C380 1.387 . S
C175 C160 1.682 . S
C180 C21 1.662 . S
C185 C50 1.659 . S
C190 C102 1.681 . S
C195 C79 1.660 . S
C200 C131 1.683 . S
C205 C44 1.683 . S
C210 C108 1.661 . S
C215 C73 1.682 . S
C220 C137 1.662 . S
C225 C15 1.683 . S
C230 C166 1.661 . S
C235 C92 2.451 . S
C240 C5 2.451 . S
C245 C121 2.449 . S
C250 C34 2.449 . S
C255 C150 2.449 . S
C260 C63 2.450 . S
C265 C124 2.317 . S
C270 C8 2.316 . S
C275 C37 2.315 . S
C280 C153 2.316 . S
C285 C95 2.317 . S
C290 C66 2.317 . S
C295 C3 1.454 . S
C300 C39 1.591 . S
C305 C68 1.590 . S
C310 C32 1.453 . S
C315 C10 1.589 . S
C320 C61 1.457 . S
C325 C90 1.453 . S
C330 C155 1.590 . S
C335 C119 1.457 . S
C340 C97 1.591 . S
C345 C126 1.589 . S
C350 C148 1.458 . S
C355 C129 1.493 . S
C360 C13 1.492 . S
C365 C42 1.492 . S
C370 C158 1.492 . S
C375 C100 1.496 . S
C380 C71 1.496 . S
