# Generated by pormake.
# Topology vbv, (6)-cn, num edge types: 1
# Building blocks:
#     Node 0, Type 0, BuildingBlock: IZENUY_clean_sbu_0, # of connection points: 6
#     Node 1, Type 0, BuildingBlock: IZENUY_clean_sbu_0, # of connection points: 6
#     Node 2, Type 0, BuildingBlock: IZENUY_clean_sbu_0, # of connection points: 6
#     Node 3, Type 0, BuildingBlock: IZENUY_clean_sbu_0, # of connection points: 6
#     Node 4, Type 0, BuildingBlock: IZENUY_clean_sbu_0, # of connection points: 6
#     Node 5, Type 0, BuildingBlock: IZENUY_clean_sbu_0, # of connection points: 6
#     Node 6, Type 0, BuildingBlock: IZENUY_clean_sbu_0, # of connection points: 6
#     Node 7, Type 0, BuildingBlock: IZENUY_clean_sbu_0, # of connection points: 6
#     Node 8, Type 0, BuildingBlock: IZENUY_clean_sbu_0, # of connection points: 6
#     Node 9, Type 0, BuildingBlock: IZENUY_clean_sbu_0, # of connection points: 6
#     Node 10, Type 0, BuildingBlock: IZENUY_clean_sbu_0, # of connection points: 6
#     Node 11, Type 0, BuildingBlock: IZENUY_clean_sbu_0, # of connection points: 6
#     Node 12, Type 0, BuildingBlock: IZENUY_clean_sbu_0, # of connection points: 6
#     Node 13, Type 0, BuildingBlock: IZENUY_clean_sbu_0, # of connection points: 6
#     Node 14, Type 0, BuildingBlock: IZENUY_clean_sbu_0, # of connection points: 6
#     Node 15, Type 0, BuildingBlock: IZENUY_clean_sbu_0, # of connection points: 6
#     Edge 16, Type (0, 0), BuildingBlock: ZUJKAS_clean_linker_0, # of connection points: 2
#     Edge 17, Type (0, 0), BuildingBlock: ZUJKAS_clean_linker_0, # of connection points: 2
#     Edge 18, Type (0, 0), BuildingBlock: ZUJKAS_clean_linker_0, # of connection points: 2
#     Edge 19, Type (0, 0), BuildingBlock: ZUJKAS_clean_linker_0, # of connection points: 2
#     Edge 20, Type (0, 0), BuildingBlock: ZUJKAS_clean_linker_0, # of connection points: 2
#     Edge 21, Type (0, 0), BuildingBlock: ZUJKAS_clean_linker_0, # of connection points: 2
#     Edge 22, Type (0, 0), BuildingBlock: ZUJKAS_clean_linker_0, # of connection points: 2
#     Edge 23, Type (0, 0), BuildingBlock: ZUJKAS_clean_linker_0, # of connection points: 2
#     Edge 24, Type (0, 0), BuildingBlock: ZUJKAS_clean_linker_0, # of connection points: 2
#     Edge 25, Type (0, 0), BuildingBlock: ZUJKAS_clean_linker_0, # of connection points: 2
#     Edge 26, Type (0, 0), BuildingBlock: ZUJKAS_clean_linker_0, # of connection points: 2
#     Edge 27, Type (0, 0), BuildingBlock: ZUJKAS_clean_linker_0, # of connection points: 2
#     Edge 28, Type (0, 0), BuildingBlock: ZUJKAS_clean_linker_0, # of connection points: 2
#     Edge 29, Type (0, 0), BuildingBlock: ZUJKAS_clean_linker_0, # of connection points: 2
#     Edge 30, Type (0, 0), BuildingBlock: ZUJKAS_clean_linker_0, # of connection points: 2
#     Edge 31, Type (0, 0), BuildingBlock: ZUJKAS_clean_linker_0, # of connection points: 2
#     Edge 32, Type (0, 0), BuildingBlock: ZUJKAS_clean_linker_0, # of connection points: 2
#     Edge 33, Type (0, 0), BuildingBlock: ZUJKAS_clean_linker_0, # of connection points: 2
#     Edge 34, Type (0, 0), BuildingBlock: ZUJKAS_clean_linker_0, # of connection points: 2
#     Edge 35, Type (0, 0), BuildingBlock: ZUJKAS_clean_linker_0, # of connection points: 2
#     Edge 36, Type (0, 0), BuildingBlock: ZUJKAS_clean_linker_0, # of connection points: 2
#     Edge 37, Type (0, 0), BuildingBlock: ZUJKAS_clean_linker_0, # of connection points: 2
#     Edge 38, Type (0, 0), BuildingBlock: ZUJKAS_clean_linker_0, # of connection points: 2
#     Edge 39, Type (0, 0), BuildingBlock: ZUJKAS_clean_linker_0, # of connection points: 2
#     Edge 40, Type (0, 0), BuildingBlock: ZUJKAS_clean_linker_0, # of connection points: 2
#     Edge 41, Type (0, 0), BuildingBlock: ZUJKAS_clean_linker_0, # of connection points: 2
#     Edge 42, Type (0, 0), BuildingBlock: ZUJKAS_clean_linker_0, # of connection points: 2
#     Edge 43, Type (0, 0), BuildingBlock: ZUJKAS_clean_linker_0, # of connection points: 2
#     Edge 44, Type (0, 0), BuildingBlock: ZUJKAS_clean_linker_0, # of connection points: 2
#     Edge 45, Type (0, 0), BuildingBlock: ZUJKAS_clean_linker_0, # of connection points: 2
#     Edge 46, Type (0, 0), BuildingBlock: ZUJKAS_clean_linker_0, # of connection points: 2
#     Edge 47, Type (0, 0), BuildingBlock: ZUJKAS_clean_linker_0, # of connection points: 2
#     Edge 48, Type (0, 0), BuildingBlock: ZUJKAS_clean_linker_0, # of connection points: 2
#     Edge 49, Type (0, 0), BuildingBlock: ZUJKAS_clean_linker_0, # of connection points: 2
#     Edge 50, Type (0, 0), BuildingBlock: ZUJKAS_clean_linker_0, # of connection points: 2
#     Edge 51, Type (0, 0), BuildingBlock: ZUJKAS_clean_linker_0, # of connection points: 2
#     Edge 52, Type (0, 0), BuildingBlock: ZUJKAS_clean_linker_0, # of connection points: 2
#     Edge 53, Type (0, 0), BuildingBlock: ZUJKAS_clean_linker_0, # of connection points: 2
#     Edge 54, Type (0, 0), BuildingBlock: ZUJKAS_clean_linker_0, # of connection points: 2
#     Edge 55, Type (0, 0), BuildingBlock: ZUJKAS_clean_linker_0, # of connection points: 2
#     Edge 56, Type (0, 0), BuildingBlock: ZUJKAS_clean_linker_0, # of connection points: 2
#     Edge 57, Type (0, 0), BuildingBlock: ZUJKAS_clean_linker_0, # of connection points: 2
#     Edge 58, Type (0, 0), BuildingBlock: ZUJKAS_clean_linker_0, # of connection points: 2
#     Edge 59, Type (0, 0), BuildingBlock: ZUJKAS_clean_linker_0, # of connection points: 2
#     Edge 60, Type (0, 0), BuildingBlock: ZUJKAS_clean_linker_0, # of connection points: 2
#     Edge 61, Type (0, 0), BuildingBlock: ZUJKAS_clean_linker_0, # of connection points: 2
#     Edge 62, Type (0, 0), BuildingBlock: ZUJKAS_clean_linker_0, # of connection points: 2
#     Edge 63, Type (0, 0), BuildingBlock: ZUJKAS_clean_linker_0, # of connection points: 2
# Relax obj value: 0.263
# Max RMSD: 0.241
# Mean RMSD: 0.240
data_MOF--net-vbv--node1-IZENUY_clean_sbu_0--edge1-ZUJKAS_clean_linker_0
_symmetry_space_group_name_H-M    P1
_symmetry_Int_Tables_number       1
_symmetry_cell_setting            triclinic
loop_
_symmetry_equiv_pos_as_xyz
'x, y, z'
_cell_length_a     69.223412
_cell_length_b     34.518572
_cell_length_c     59.723819
_cell_angle_alpha  89.975497
_cell_angle_beta   90.01874
_cell_angle_gamma 89.931088
loop_
_atom_site_label
_atom_site_type_symbol
_atom_site_fract_x
_atom_site_fract_y
_atom_site_fract_z
_atom_type_partial_charge
Fe0 Fe 0.12351 0.38529 0.10976 0.0
Fe1 Fe 0.15236 0.31841 0.10602 0.0
O2 O 0.13385 0.34689 0.09412 0.0
Fe3 Fe 0.12569 0.33722 0.06667 0.0
O4 O 0.13225 0.38534 0.05746 0.0
O5 O 0.118 0.41598 0.08507 0.0
O6 O 0.14667 0.41 0.1113 0.0
C7 C 0.16197 0.39471 0.11877 0.0
C8 C 0.09172 0.35071 0.09124 0.0
O9 O 0.16267 0.35852 0.12256 0.0
C10 C 0.1305 0.26315 0.08076 0.0
O11 O 0.12712 0.3618 0.13733 0.0
O12 O 0.13675 0.30309 0.12865 0.0
O13 O 0.10055 0.35132 0.07262 0.0
O14 O 0.10006 0.36191 0.1089 0.0
C15 C 0.16632 0.32552 0.06383 0.0
O16 O 0.14572 0.2733 0.09107 0.0
O17 O 0.11872 0.28835 0.07395 0.0
C18 C 0.12913 0.32626 0.14238 0.0
O19 O 0.16897 0.33218 0.0843 0.0
O20 O 0.1494 0.32083 0.05615 0.0
C21 C 0.12573 0.41621 0.06578 0.0
Fe22 Fe 0.37194 0.68404 0.07152 0.0
Fe23 Fe 0.37373 0.63453 0.11407 0.0
O24 O 0.36361 0.67359 0.09878 0.0
Fe25 Fe 0.34509 0.70198 0.11077 0.0
O26 O 0.32852 0.6888 0.08883 0.0
O27 O 0.34837 0.70087 0.06103 0.0
O28 O 0.36519 0.63661 0.06176 0.0
C29 C 0.37132 0.60521 0.06975 0.0
C30 C 0.36725 0.75761 0.08617 0.0
O31 O 0.37894 0.60431 0.08911 0.0
C32 C 0.36836 0.69303 0.14707 0.0
O33 O 0.39696 0.66911 0.07727 0.0
O34 O 0.3974 0.6571 0.11341 0.0
O35 O 0.35186 0.74731 0.09611 0.0
O36 O 0.37909 0.73248 0.07947 0.0
C37 C 0.33518 0.62562 0.12292 0.0
O38 O 0.3703 0.65757 0.14178 0.0
O39 O 0.36067 0.71659 0.13358 0.0
C40 C 0.4059 0.66797 0.09579 0.0
O41 O 0.35046 0.61033 0.11543 0.0
O42 O 0.33459 0.6617 0.127 0.0
C43 C 0.33144 0.6949 0.06835 0.0
Fe44 Fe 0.62731 0.63693 0.407 0.0
Fe45 Fe 0.65664 0.70311 0.41084 0.0
O46 O 0.6374 0.67596 0.42226 0.0
Fe47 Fe 0.62835 0.68772 0.44909 0.0
O48 O 0.63449 0.64041 0.45972 0.0
O49 O 0.6215 0.60749 0.4321 0.0
O50 O 0.65042 0.61173 0.40631 0.0
C51 C 0.66599 0.62605 0.39904 0.0
C52 C 0.59496 0.67213 0.42391 0.0
O53 O 0.66725 0.66214 0.39532 0.0
C54 C 0.63412 0.76047 0.43377 0.0
O55 O 0.63132 0.65944 0.37927 0.0
O56 O 0.64218 0.71783 0.38716 0.0
O57 O 0.60342 0.67331 0.4427 0.0
O58 O 0.60379 0.66022 0.40677 0.0
C59 C 0.66881 0.69827 0.45379 0.0
O60 O 0.64976 0.74918 0.42471 0.0
O61 O 0.62179 0.73605 0.44014 0.0
C62 C 0.63424 0.69453 0.37376 0.0
O63 O 0.67226 0.68971 0.43372 0.0
O64 O 0.65166 0.70455 0.46025 0.0
C65 C 0.6285 0.60887 0.45178 0.0
Fe66 Fe 0.87206 0.32528 0.44634 0.0
Fe67 Fe 0.87247 0.36965 0.40157 0.0
O68 O 0.86291 0.33224 0.41876 0.0
Fe69 Fe 0.84401 0.30187 0.40898 0.0
O70 O 0.8328 0.29713 0.43643 0.0
O71 O 0.84875 0.33663 0.45873 0.0
O72 O 0.87926 0.37553 0.45118 0.0
C73 C 0.87294 0.40632 0.44257 0.0
C74 C 0.8655 0.24866 0.43181 0.0
O75 O 0.86738 0.40667 0.42253 0.0
C76 C 0.86687 0.31251 0.36982 0.0
O77 O 0.89547 0.31334 0.43541 0.0
O78 O 0.89769 0.36164 0.4112 0.0
O79 O 0.85836 0.25794 0.41307 0.0
O80 O 0.86714 0.27341 0.44723 0.0
C81 C 0.83175 0.37417 0.39472 0.0
O82 O 0.87816 0.33653 0.37882 0.0
O83 O 0.85158 0.30192 0.37962 0.0
C84 C 0.90524 0.33336 0.42185 0.0
O85 O 0.8489 0.38325 0.38922 0.0
O86 O 0.8282 0.34278 0.40467 0.0
C87 C 0.8334 0.31925 0.45329 0.0
Fe88 Fe 0.87454 0.68055 0.94439 0.0
Fe89 Fe 0.84727 0.69866 0.90553 0.0
O90 O 0.86567 0.66975 0.9174 0.0
Fe91 Fe 0.87514 0.62997 0.90224 0.0
O92 O 0.88043 0.59998 0.92735 0.0
O93 O 0.86763 0.63367 0.95474 0.0
O94 O 0.85124 0.69828 0.95521 0.0
C95 C 0.83421 0.6924 0.94823 0.0
C96 C 0.90789 0.66294 0.91952 0.0
O97 O 0.83092 0.68637 0.92781 0.0
C98 C 0.86976 0.68801 0.86884 0.0
O99 O 0.88195 0.72846 0.93588 0.0
O100 O 0.8546 0.74407 0.91982 0.0
O101 O 0.89904 0.65164 0.90223 0.0
O102 O 0.89931 0.66465 0.93823 0.0
C103 C 0.83642 0.62248 0.89397 0.0
O104 O 0.86269 0.71223 0.88237 0.0
O105 O 0.8715 0.6526 0.87442 0.0
C106 C 0.87016 0.75397 0.92954 0.0
O107 O 0.83618 0.65851 0.88968 0.0
O108 O 0.85158 0.60675 0.90153 0.0
C109 C 0.87342 0.60186 0.947 0.0
Fe110 Fe 0.6292 0.32998 0.95089 0.0
Fe111 Fe 0.65679 0.30715 0.91318 0.0
O112 O 0.63781 0.3372 0.92312 0.0
Fe113 Fe 0.62742 0.37411 0.90607 0.0
O114 O 0.63174 0.41155 0.92707 0.0
O115 O 0.62067 0.37923 0.95555 0.0
O116 O 0.65236 0.34379 0.96273 0.0
C117 C 0.66794 0.32733 0.95708 0.0
C118 C 0.59592 0.33381 0.92618 0.0
O119 O 0.66865 0.30458 0.94044 0.0
C120 C 0.63341 0.3165 0.87434 0.0
O121 O 0.63544 0.27886 0.95245 0.0
O122 O 0.64298 0.26273 0.9182 0.0
O123 O 0.60244 0.36353 0.91589 0.0
O124 O 0.60615 0.31549 0.94011 0.0
C125 C 0.66806 0.37993 0.89807 0.0
O126 O 0.64855 0.30535 0.88421 0.0
O127 O 0.62232 0.34127 0.88302 0.0
C128 C 0.63642 0.25374 0.93722 0.0
O129 O 0.67206 0.34833 0.90763 0.0
O130 O 0.6507 0.38949 0.89376 0.0
C131 C 0.62641 0.41053 0.94717 0.0
Fe132 Fe 0.37258 0.37255 0.61435 0.0
Fe133 Fe 0.37184 0.32757 0.56985 0.0
O134 O 0.3628 0.33488 0.59747 0.0
Fe135 Fe 0.34388 0.3045 0.60728 0.0
O136 O 0.3282 0.3453 0.61261 0.0
O137 O 0.34908 0.38772 0.62603 0.0
O138 O 0.36817 0.40924 0.5929 0.0
C139 C 0.37396 0.40808 0.57299 0.0
C140 C 0.36672 0.31541 0.64647 0.0
O141 O 0.38017 0.37685 0.56504 0.0
C142 C 0.36461 0.25121 0.58353 0.0
O143 O 0.39777 0.3624 0.60513 0.0
O144 O 0.39496 0.31396 0.58097 0.0
O145 O 0.35194 0.30309 0.63635 0.0
O146 O 0.3776 0.34057 0.63783 0.0
C147 C 0.33312 0.32434 0.56323 0.0
O148 O 0.36593 0.27639 0.56838 0.0
O149 O 0.35792 0.26023 0.60249 0.0
C150 C 0.40492 0.33344 0.59464 0.0
O151 O 0.34871 0.34078 0.55767 0.0
O152 O 0.3323 0.30163 0.57989 0.0
C153 C 0.33186 0.37738 0.62175 0.0
Fe154 Fe 0.12874 0.64429 0.61009 0.0
Fe155 Fe 0.12815 0.68777 0.56521 0.0
O156 O 0.13827 0.68084 0.59231 0.0
Fe157 Fe 0.15788 0.7104 0.60091 0.0
O158 O 0.17328 0.66889 0.60562 0.0
O159 O 0.15239 0.62956 0.62169 0.0
O160 O 0.13271 0.60669 0.58907 0.0
C161 C 0.12623 0.60734 0.5694 0.0
C162 C 0.13588 0.70237 0.64095 0.0
O163 O 0.11951 0.63831 0.56152 0.0
C164 C 0.13688 0.76432 0.57784 0.0
O165 O 0.10341 0.65371 0.60142 0.0
O166 O 0.10561 0.70237 0.57747 0.0
O167 O 0.15094 0.71242 0.63048 0.0
O168 O 0.12423 0.67815 0.63277 0.0
C169 C 0.16655 0.68964 0.55638 0.0
O170 O 0.13433 0.73886 0.56303 0.0
O171 O 0.14419 0.75525 0.59651 0.0
C172 C 0.09606 0.68304 0.59157 0.0
O173 O 0.15061 0.67371 0.5518 0.0
O174 O 0.16834 0.71237 0.57291 0.0
C175 C 0.16956 0.63808 0.61608 0.0
Fe176 Fe 0.62576 0.8776 0.11177 0.0
Fe177 Fe 0.65433 0.81009 0.1074 0.0
O178 O 0.63566 0.83892 0.096 0.0
Fe179 Fe 0.62706 0.82936 0.06872 0.0
O180 O 0.63383 0.87695 0.05934 0.0
O181 O 0.62055 0.90883 0.08715 0.0
O182 O 0.64914 0.90147 0.11327 0.0
C183 C 0.66443 0.88584 0.12053 0.0
C184 C 0.59336 0.84493 0.09351 0.0
O185 O 0.66502 0.84961 0.12404 0.0
C186 C 0.63177 0.75535 0.08257 0.0
O187 O 0.62917 0.85335 0.13915 0.0
O188 O 0.63916 0.79472 0.13031 0.0
O189 O 0.60211 0.84426 0.07487 0.0
O190 O 0.60203 0.85544 0.11107 0.0
C191 C 0.66744 0.81921 0.06489 0.0
O192 O 0.64731 0.76523 0.09236 0.0
O193 O 0.61992 0.78081 0.07628 0.0
C194 C 0.63151 0.8178 0.14408 0.0
O195 O 0.67059 0.82424 0.08541 0.0
O196 O 0.6505 0.81277 0.05776 0.0
C197 C 0.62801 0.90826 0.0677 0.0
Fe198 Fe 0.87006 0.17687 0.06324 0.0
Fe199 Fe 0.87359 0.13368 0.10824 0.0
O200 O 0.86246 0.17005 0.09146 0.0
Fe201 Fe 0.84367 0.19991 0.10201 0.0
O202 O 0.83078 0.20095 0.07534 0.0
O203 O 0.84665 0.16164 0.05268 0.0
O204 O 0.87906 0.12801 0.05861 0.0
C205 C 0.87383 0.09663 0.06728 0.0
C206 C 0.86153 0.25351 0.07599 0.0
O207 O 0.86901 0.09574 0.08755 0.0
C208 C 0.86813 0.19159 0.14009 0.0
O209 O 0.89337 0.1925 0.07284 0.0
O210 O 0.89813 0.14512 0.09737 0.0
O211 O 0.85696 0.24457 0.09577 0.0
O212 O 0.86298 0.22755 0.06131 0.0
C213 C 0.83327 0.12717 0.11808 0.0
O214 O 0.87908 0.1669 0.13108 0.0
O215 O 0.85287 0.20281 0.13053 0.0
C216 C 0.90427 0.17422 0.08617 0.0
O217 O 0.85079 0.11754 0.12142 0.0
O218 O 0.82888 0.15874 0.10879 0.0
C219 C 0.8311 0.1776 0.05895 0.0
Fe220 Fe 0.15885 0.21118 0.41053 0.0
Fe221 Fe 0.13107 0.18914 0.44824 0.0
O222 O 0.13977 0.18158 0.42051 0.0
Fe223 Fe 0.12934 0.14452 0.40373 0.0
O224 O 0.15246 0.12823 0.3915 0.0
O225 O 0.17392 0.17001 0.40427 0.0
O226 O 0.17097 0.21205 0.4377 0.0
C227 C 0.16989 0.18908 0.45426 0.0
C228 C 0.13524 0.20223 0.37177 0.0
O229 O 0.15403 0.17381 0.46003 0.0
C230 C 0.09786 0.18588 0.42363 0.0
O231 O 0.14552 0.25607 0.41611 0.0
O232 O 0.13827 0.23968 0.45032 0.0
O233 O 0.12437 0.17697 0.38039 0.0
O234 O 0.15021 0.214 0.38175 0.0
C235 C 0.128 0.10906 0.44508 0.0
O236 O 0.10817 0.20488 0.43724 0.0
O237 O 0.10446 0.15602 0.41349 0.0
C238 C 0.14038 0.26539 0.43562 0.0
O239 O 0.12173 0.14048 0.45271 0.0
O240 O 0.13366 0.1075 0.42511 0.0
C241 C 0.16984 0.13824 0.39508 0.0
Fe242 Fe 0.37265 0.87268 0.40831 0.0
Fe243 Fe 0.3425 0.80734 0.41551 0.0
O244 O 0.36182 0.8364 0.4253 0.0
Fe245 Fe 0.37037 0.82918 0.45312 0.0
O246 O 0.38026 0.87744 0.45709 0.0
O247 O 0.36847 0.91033 0.42937 0.0
O248 O 0.34977 0.88936 0.39565 0.0
C249 C 0.33227 0.88022 0.39923 0.0
C250 C 0.40367 0.83072 0.42878 0.0
O251 O 0.32784 0.84894 0.40878 0.0
C252 C 0.36024 0.75304 0.44125 0.0
O253 O 0.37747 0.83945 0.38532 0.0
O254 O 0.35124 0.80348 0.38681 0.0
O255 O 0.39308 0.81212 0.44229 0.0
O256 O 0.39737 0.86069 0.41846 0.0
C257 C 0.33157 0.83147 0.45883 0.0
O258 O 0.35536 0.76204 0.4216 0.0
O259 O 0.36257 0.77909 0.45569 0.0
C260 C 0.36636 0.81447 0.37683 0.0
O261 O 0.33031 0.80778 0.44263 0.0
O262 O 0.34759 0.84596 0.46465 0.0
C263 C 0.37413 0.90888 0.44935 0.0
Fe264 Fe 0.3431 0.20347 0.91621 0.0
Fe265 Fe 0.37275 0.13752 0.90775 0.0
O266 O 0.36222 0.17315 0.92546 0.0
Fe267 Fe 0.37085 0.17869 0.95336 0.0
O268 O 0.34786 0.16275 0.96475 0.0
O269 O 0.33113 0.20312 0.9435 0.0
O270 O 0.32806 0.1626 0.90937 0.0
C271 C 0.33219 0.13159 0.89931 0.0
C272 C 0.3628 0.25559 0.9418 0.0
O273 O 0.34959 0.12219 0.89519 0.0
C274 C 0.40397 0.17795 0.92845 0.0
O275 O 0.3515 0.20789 0.88735 0.0
O276 O 0.37758 0.17159 0.88526 0.0
O277 O 0.3639 0.22928 0.95634 0.0
O278 O 0.35661 0.24775 0.92247 0.0
C279 C 0.37454 0.09868 0.94798 0.0
O280 O 0.39768 0.14846 0.91773 0.0
O281 O 0.39365 0.19509 0.9428 0.0
C282 C 0.36652 0.197 0.87715 0.0
O283 O 0.36862 0.09889 0.9281 0.0
O284 O 0.38018 0.12964 0.9568 0.0
C285 C 0.33206 0.17874 0.95939 0.0
Fe286 Fe 0.12448 0.88558 0.90246 0.0
Fe287 Fe 0.1253 0.83818 0.94588 0.0
O288 O 0.13408 0.84696 0.91856 0.0
Fe289 Fe 0.15253 0.8174 0.90732 0.0
O290 O 0.16356 0.85658 0.89069 0.0
O291 O 0.14799 0.90901 0.90119 0.0
O292 O 0.11906 0.91723 0.92675 0.0
C293 C 0.12616 0.91717 0.94637 0.0
C294 C 0.13005 0.8256 0.87034 0.0
O295 O 0.13208 0.88609 0.95499 0.0
C296 C 0.12966 0.76357 0.93245 0.0
O297 O 0.10069 0.86355 0.90297 0.0
O298 O 0.10046 0.8532 0.93927 0.0
O299 O 0.13727 0.8023 0.88432 0.0
O300 O 0.12811 0.86123 0.87521 0.0
C301 C 0.16567 0.82639 0.94992 0.0
O302 O 0.11803 0.78941 0.93879 0.0
O303 O 0.14516 0.77289 0.92243 0.0
C304 C 0.09191 0.85315 0.92049 0.0
O305 O 0.14863 0.8215 0.95712 0.0
O306 O 0.16889 0.83099 0.92937 0.0
C307 C 0.1632 0.89287 0.8941 0.0
Fe308 Fe 0.87291 0.8718 0.60927 0.0
Fe309 Fe 0.87438 0.83067 0.56375 0.0
O310 O 0.86361 0.83635 0.59063 0.0
Fe311 Fe 0.84356 0.80699 0.598 0.0
O312 O 0.82838 0.84856 0.60327 0.0
O313 O 0.84916 0.88668 0.62041 0.0
O314 O 0.86957 0.91041 0.5887 0.0
C315 C 0.87669 0.91064 0.56935 0.0
C316 C 0.86479 0.81217 0.63888 0.0
O317 O 0.88366 0.88 0.56136 0.0
C318 C 0.86445 0.75373 0.57443 0.0
O319 O 0.89838 0.86195 0.60123 0.0
O320 O 0.89642 0.81439 0.5765 0.0
O321 O 0.85002 0.80259 0.62766 0.0
O322 O 0.87662 0.83691 0.63158 0.0
C323 C 0.83612 0.83188 0.55395 0.0
O324 O 0.86773 0.77991 0.56023 0.0
O325 O 0.85685 0.76204 0.59302 0.0
C326 C 0.90577 0.83282 0.59119 0.0
O327 O 0.85242 0.8468 0.55007 0.0
O328 O 0.83364 0.80757 0.56961 0.0
C329 C 0.83205 0.87869 0.61434 0.0
Fe330 Fe 0.62802 0.13906 0.61248 0.0
Fe331 Fe 0.62835 0.18253 0.56742 0.0
O332 O 0.63747 0.17641 0.59512 0.0
Fe333 Fe 0.65613 0.20774 0.60459 0.0
O334 O 0.67218 0.16761 0.61021 0.0
O335 O 0.65166 0.12522 0.62437 0.0
O336 O 0.6327 0.10168 0.59154 0.0
C337 C 0.62674 0.1018 0.57168 0.0
C338 C 0.63344 0.19741 0.6439 0.0
O339 O 0.62056 0.13266 0.56314 0.0
C340 C 0.63488 0.25966 0.58045 0.0
O341 O 0.60277 0.14792 0.60317 0.0
O342 O 0.60507 0.19552 0.57837 0.0
O343 O 0.64819 0.2096 0.63369 0.0
O344 O 0.6227 0.17178 0.63551 0.0
C345 C 0.66707 0.18706 0.56084 0.0
O346 O 0.63371 0.23404 0.56549 0.0
O347 O 0.64164 0.25125 0.59947 0.0
C348 C 0.59535 0.17627 0.59239 0.0
O349 O 0.65165 0.1699 0.55539 0.0
O350 O 0.6676 0.21046 0.57715 0.0
C351 C 0.66879 0.13582 0.61982 0.0
H352 H 0.15847 0.20684 0.07841 0.0
H353 H 0.15722 0.14659 0.05683 0.0
H354 H 0.09782 0.16975 0.03964 0.0
H355 H 0.09884 0.22973 0.06135 0.0
H356 H 0.10487 0.0918 0.04984 0.0
H357 H 0.15781 0.14803 0.98798 0.0
H358 H 0.16608 0.1482 0.01649 0.0
H359 H 0.14623 0.17876 0.00843 0.0
C360 C 0.145 0.19874 0.07046 0.0
C361 C 0.12879 0.22332 0.07152 0.0
C362 C 0.14439 0.16448 0.05789 0.0
C363 C 0.12757 0.15414 0.04617 0.0
C364 C 0.11102 0.17734 0.04835 0.0
H365 H 0.11592 0.99158 0.9343 0.0
H366 H 0.11575 0.04956 0.95819 0.0
C367 C 0.11162 0.21162 0.06083 0.0
C368 C 0.12732 0.11996 0.031 0.0
H369 H 0.14775 0.08283 0.98346 0.0
C370 C 0.11424 0.08983 0.03533 0.0
C371 C 0.13934 0.11773 0.01184 0.0
C372 C 0.15305 0.15001 1.00571 0.0
C373 C 0.11313 0.0572 0.02131 0.0
C374 C 0.12551 0.05447 1.00252 0.0
C375 C 0.13833 0.08491 0.99792 0.0
C376 C 0.12573 0.01966 0.98787 0.0
C377 C 0.09858 0.026 0.02658 0.0
C378 C 0.13168 0.98385 0.99653 0.0
C379 C 0.13187 0.95087 0.98298 0.0
C380 C 0.12609 0.95284 0.96038 0.0
C381 C 0.12034 0.98893 0.95163 0.0
C382 C 0.12027 0.02209 0.96524 0.0
H383 H 0.08713 0.03658 0.0381 0.0
H384 H 0.09167 0.01508 0.01104 0.0
H385 H 0.10605 1.00134 0.0348 0.0
H386 H 0.13626 0.98141 0.01382 0.0
H387 H 0.1365 0.92372 0.99034 0.0
H388 H 0.39337 0.08658 0.98745 0.0
H389 H 0.39256 0.02931 0.01128 0.0
H390 H 0.35557 0.97182 0.96365 0.0
H391 H 0.35667 0.02906 0.9393 0.0
H392 H 0.36202 0.997 0.03173 0.0
H393 H 0.396 0.88949 0.975 0.0
H394 H 0.39657 0.94087 0.96947 0.0
H395 H 0.37525 0.91316 0.96322 0.0
C396 C 0.38522 0.06163 0.98184 0.0
C397 C 0.37515 0.0624 0.96136 0.0
C398 C 0.38474 0.02888 0.99557 0.0
C399 C 0.37414 0.99604 0.98925 0.0
C400 C 0.36418 0.99647 0.96871 0.0
H401 H 0.33863 0.81173 0.08064 0.0
H402 H 0.34024 0.871 0.05833 0.0
C403 C 0.36478 0.02926 0.95482 0.0
C404 C 0.37309 0.96218 1.00468 0.0
H405 H 0.38253 0.86527 0.00872 0.0
C406 C 0.36654 0.96819 0.0267 0.0
C407 C 0.3792 0.92466 0.99825 0.0
C408 C 0.38733 0.9166 0.97528 0.0
C409 C 0.36587 0.93783 0.04238 0.0
C410 C 0.37152 0.90012 0.03578 0.0
C411 C 0.37813 0.89412 0.01379 0.0
C412 C 0.37085 0.86638 0.05133 0.0
C413 C 0.35957 0.9467 0.06602 0.0
C414 C 0.38751 0.84401 0.05502 0.0
C415 C 0.3866 0.80992 0.06764 0.0
C416 C 0.36898 0.79739 0.0769 0.0
C417 C 0.35249 0.82078 0.07408 0.0
C418 C 0.35339 0.85475 0.06127 0.0
H419 H 0.36124 0.97795 0.07002 0.0
H420 H 0.34407 0.93923 0.06792 0.0
H421 H 0.36798 0.92954 0.07837 0.0
H422 H 0.40115 0.85238 0.04758 0.0
H423 H 0.39956 0.79257 0.06943 0.0
H424 H 0.60891 0.09051 0.53149 0.0
H425 H 0.60999 0.03342 0.50756 0.0
H426 H 0.64583 0.97484 0.55602 0.0
H427 H 0.6445 0.03194 0.58045 0.0
H428 H 0.64086 0.99987 0.48788 0.0
H429 H 0.60466 0.89414 0.54385 0.0
H430 H 0.60437 0.94558 0.54919 0.0
H431 H 0.62534 0.91721 0.55612 0.0
C432 C 0.61689 0.0654 0.53725 0.0
C433 C 0.62655 0.06581 0.558 0.0
C434 C 0.61753 0.03275 0.52346 0.0
C435 C 0.62784 0.99962 0.53001 0.0
C436 C 0.63745 0.99974 0.55077 0.0
H437 H 0.66324 0.81302 0.4402 0.0
H438 H 0.66179 0.87251 0.46229 0.0
C439 C 0.63672 0.03245 0.56471 0.0
C440 C 0.62887 0.96568 0.51465 0.0
H441 H 0.61838 0.86927 0.51045 0.0
C442 C 0.63592 0.97131 0.49281 0.0
C443 C 0.62221 0.9285 0.52096 0.0
C444 C 0.61354 0.92093 0.54372 0.0
C445 C 0.63656 0.94086 0.47719 0.0
C446 C 0.63034 0.90348 0.48367 0.0
C447 C 0.62322 0.89788 0.50548 0.0
C448 C 0.63097 0.86966 0.46819 0.0
C449 C 0.64348 0.94931 0.45373 0.0
C450 C 0.61413 0.84823 0.46394 0.0
C451 C 0.61493 0.81402 0.45142 0.0
C452 C 0.63262 0.80044 0.44284 0.0
C453 C 0.64932 0.8229 0.44622 0.0
C454 C 0.64852 0.857 0.45891 0.0
H455 H 0.64232 0.98064 0.44966 0.0
H456 H 0.6589 0.94089 0.45227 0.0
H457 H 0.6351 0.93262 0.44116 0.0
H458 H 0.6004 0.8574 0.47088 0.0
H459 H 0.6018 0.7974 0.4492 0.0
H460 H 0.89822 0.92474 0.53202 0.0
H461 H 0.89655 0.98054 0.50703 0.0
H462 H 0.85294 0.03213 0.54914 0.0
H463 H 0.85493 0.97662 0.57468 0.0
H464 H 0.86685 1.00642 0.48242 0.0
H465 H 0.88972 0.12135 0.5416 0.0
H466 H 0.89213 0.07052 0.54801 0.0
H467 H 0.86915 0.09435 0.55107 0.0
C468 C 0.88844 0.94819 0.53618 0.0
C469 C 0.87682 0.94634 0.55548 0.0
C470 C 0.88744 0.98003 0.52178 0.0
C471 C 0.87475 0.01079 0.52623 0.0
C472 C 0.86317 0.0092 0.54557 0.0
H473 H 0.84 0.18846 0.42925 0.0
H474 H 0.8422 0.12765 0.45046 0.0
C475 C 0.8643 0.97743 0.56016 0.0
C476 C 0.87344 0.04385 0.51026 0.0
H477 H 0.87815 0.14203 0.50623 0.0
C478 C 0.86937 0.03609 0.48761 0.0
C479 C 0.87691 0.08253 0.51694 0.0
C480 C 0.88241 0.09276 0.54067 0.0
C481 C 0.8687 0.06586 0.47152 0.0
C482 C 0.87177 0.10463 0.47832 0.0
C483 C 0.87576 0.11234 0.50097 0.0
C484 C 0.87132 0.13786 0.46238 0.0
C485 C 0.86522 0.05535 0.44734 0.0
C486 C 0.88703 0.16355 0.4616 0.0
C487 C 0.88567 0.1983 0.44974 0.0
C488 C 0.8687 0.2079 0.43812 0.0
C489 C 0.85343 0.18116 0.43756 0.0
C490 C 0.85468 0.14649 0.44977 0.0
H491 H 0.86873 0.02446 0.44401 0.0
H492 H 0.84973 0.05987 0.44332 0.0
H493 H 0.87395 0.07375 0.43595 0.0
H494 H 0.90003 0.1576 0.47111 0.0
H495 H 0.8975 0.21878 0.45069 0.0
H496 H 0.87014 0.0202 0.08041 0.0
H497 H 0.8705 0.96256 0.05623 0.0
H498 H 0.87683 0.03569 0.99814 0.0
H499 H 0.8771 0.09274 0.02197 0.0
H500 H 0.84711 0.9394 0.02279 0.0
H501 H 0.92036 0.96126 0.98823 0.0
H502 H 0.91148 0.9884 0.01189 0.0
H503 H 0.90531 1.00283 0.98378 0.0
C504 C 0.87178 0.02388 0.06251 0.0
C505 C 0.87392 0.06109 0.05321 0.0
C506 C 0.87195 0.99095 0.04869 0.0
C507 C 0.87418 0.99466 0.02535 0.0
C508 C 0.87575 0.03186 0.01609 0.0
H509 H 0.8443 0.81462 0.92784 0.0
H510 H 0.84534 0.87443 0.94987 0.0
C511 C 0.8758 0.06456 0.02982 0.0
C512 C 0.87446 0.95999 0.01048 0.0
H513 H 0.90027 0.91628 0.96873 0.0
C514 C 0.85879 0.93419 0.01107 0.0
C515 C 0.88982 0.9528 0.99536 0.0
C516 C 0.90778 0.97757 0.99492 0.0
C517 C 0.8579 0.90189 0.99673 0.0
C518 C 0.87283 0.89581 0.98085 0.0
C519 C 0.88864 0.92126 0.98055 0.0
C520 C 0.87294 0.86191 0.96536 0.0
C521 C 0.84121 0.87412 0.99919 0.0
C522 C 0.88869 0.83627 0.96546 0.0
C523 C 0.88835 0.80258 0.95249 0.0
C524 C 0.87218 0.79352 0.93917 0.0
C525 C 0.85694 0.82049 0.93797 0.0
C526 C 0.85739 0.85446 0.95084 0.0
H527 H 0.83418 0.87681 0.01584 0.0
H528 H 0.83018 0.88071 0.98625 0.0
H529 H 0.846 0.84365 0.99695 0.0
H530 H 0.90098 0.8415 0.97627 0.0
H531 H 0.90043 0.78273 0.95378 0.0
H532 H 0.65512 0.18687 0.92408 0.0
H533 H 0.65223 0.12291 0.94213 0.0
H534 H 0.60653 0.16697 0.98414 0.0
H535 H 0.60916 0.22994 0.96612 0.0
H536 H 0.6591 0.11149 0.98696 0.0
H537 H 0.58498 0.06267 0.96745 0.0
H538 H 0.59678 0.10078 0.95191 0.0
H539 H 0.58518 0.11112 0.97824 0.0
C540 C 0.64402 0.18232 0.9366 0.0
C541 C 0.63235 0.21326 0.94371 0.0
C542 C 0.64247 0.14596 0.94702 0.0
C543 C 0.62903 0.14 0.96438 0.0
C544 C 0.61671 0.17044 0.97052 0.0
H545 H 0.60939 0.9783 0.07374 0.0
H546 H 0.61001 0.03466 0.04848 0.0
C547 C 0.61831 0.20655 0.96027 0.0
C548 C 0.6292 0.10395 0.97802 0.0
H549 H 0.59982 0.03406 1.00003 0.0
C550 C 0.64623 0.09418 0.98953 0.0
C551 C 0.61233 0.0816 0.9816 0.0
C552 C 0.59385 0.08935 0.96896 0.0
C553 C 0.64667 0.06353 1.005 0.0
C554 C 0.62969 0.04184 0.00895 0.0
C555 C 0.61275 0.05109 0.99719 0.0
C556 C 0.62949 0.00838 0.02455 0.0
C557 C 0.66517 0.05519 0.01749 0.0
C558 C 0.64016 0.97508 0.0194 0.0
C559 C 0.63979 0.94306 0.03364 0.0
C560 C 0.62869 0.94348 0.05342 0.0
C561 C 0.61812 0.97707 0.05871 0.0
C562 C 0.6184 0.00918 0.04427 0.0
H563 H 0.67555 0.07963 0.01633 0.0
H564 H 0.66219 0.04919 0.03543 0.0
H565 H 0.67214 0.02911 0.01021 0.0
H566 H 0.64863 0.97369 1.00417 0.0
H567 H 0.64818 0.91779 0.02903 0.0
H568 H 0.36545 0.98492 0.43874 0.0
H569 H 0.3645 0.04052 0.46447 0.0
H570 H 0.37996 0.96554 0.5194 0.0
H571 H 0.38148 0.91065 0.49404 0.0
H572 H 0.34242 0.05405 0.50177 0.0
H573 H 0.41966 0.04981 0.52584 0.0
H574 H 0.41027 0.02263 0.50247 0.0
H575 H 0.40766 1.00453 0.53058 0.0
C576 C 0.36886 0.98045 0.45625 0.0
C577 C 0.37385 0.9434 0.4642 0.0
C578 C 0.36823 0.01217 0.47096 0.0
C579 C 0.37255 0.00736 0.49382 0.0
C580 C 0.37712 0.97028 0.50178 0.0
H581 H 0.34441 0.18531 0.5953 0.0
H582 H 0.3463 0.12216 0.57615 0.0
C583 C 0.37792 0.93881 0.48717 0.0
C584 C 0.37204 0.04073 0.50957 0.0
H585 H 0.39927 0.09007 0.54781 0.0
C586 C 0.35485 0.06202 0.51181 0.0
C587 C 0.38831 0.05123 0.52262 0.0
C588 C 0.40757 0.03111 0.52013 0.0
C589 C 0.35349 0.09353 0.52667 0.0
C590 C 0.36964 0.10345 0.54008 0.0
C591 C 0.38678 0.08202 0.53788 0.0
C592 C 0.36988 0.13881 0.55432 0.0
C593 C 0.33501 0.11675 0.52726 0.0
C594 C 0.38326 0.16807 0.54947 0.0
C595 C 0.38238 0.20353 0.56053 0.0
C596 C 0.36813 0.21065 0.57679 0.0
C597 C 0.3556 0.18048 0.58294 0.0
C598 C 0.35648 0.14469 0.57175 0.0
H599 H 0.32556 0.11034 0.51268 0.0
H600 H 0.32689 0.10955 0.54272 0.0
H601 H 0.33813 0.1483 0.52743 0.0
H602 H 0.39382 0.16422 0.53626 0.0
H603 H 0.39227 0.22626 0.55552 0.0
H604 H 0.15786 0.82931 0.58948 0.0
H605 H 0.15614 0.8932 0.57109 0.0
H606 H 0.10824 0.85346 0.53105 0.0
H607 H 0.10967 0.79066 0.54944 0.0
H608 H 0.16162 0.90631 0.52602 0.0
H609 H 0.08912 0.95855 0.55009 0.0
H610 H 0.101 0.91925 0.56454 0.0
H611 H 0.08809 0.91045 0.53885 0.0
C612 C 0.14658 0.83481 0.57731 0.0
C613 C 0.13384 0.8051 0.57096 0.0
C614 C 0.14572 0.87112 0.56665 0.0
C615 C 0.13194 0.87831 0.54979 0.0
C616 C 0.11873 0.84907 0.54427 0.0
H617 H 0.13779 0.03349 0.43478 0.0
H618 H 0.13941 0.97813 0.46055 0.0
C619 C 0.11963 0.81304 0.55476 0.0
C620 C 0.13214 0.91478 0.53645 0.0
H621 H 0.10266 0.98644 0.51664 0.0
C622 C 0.14882 0.9242 0.52422 0.0
C623 C 0.1155 0.93832 0.53415 0.0
C624 C 0.09749 0.93136 0.5478 0.0
C625 C 0.1491 0.95567 0.50922 0.0
C626 C 0.13208 0.97782 0.50595 0.0
C627 C 0.11562 0.96914 0.51878 0.0
C628 C 0.13111 0.01096 0.48994 0.0
C629 C 0.16769 0.96505 0.49721 0.0
C630 C 0.12529 0.04754 0.49761 0.0
C631 C 0.124 0.07887 0.4829 0.0
C632 C 0.12854 0.07459 0.46004 0.0
C633 C 0.13422 0.03784 0.45225 0.0
C634 C 0.13535 1.00626 0.46704 0.0
H635 H 0.18042 0.95309 0.5062 0.0
H636 H 0.16736 0.95194 0.48026 0.0
H637 H 0.1696 0.99682 0.49535 0.0
H638 H 0.12188 0.05199 0.51513 0.0
H639 H 0.11967 0.1067 0.48961 0.0
H640 H 0.63146 0.48674 0.93442 0.0
H641 H 0.63196 0.544 0.95877 0.0
H642 H 0.62303 0.47097 0.01647 0.0
H643 H 0.62183 0.41424 0.99237 0.0
H644 H 0.60071 0.532 0.01916 0.0
H645 H 0.67482 0.58088 0.99855 0.0
H646 H 0.65943 0.57788 0.97444 0.0
H647 H 0.66555 0.53455 0.98968 0.0
C648 C 0.62957 0.48296 0.95229 0.0
C649 C 0.62655 0.44587 0.96139 0.0
C650 C 0.63004 0.51568 0.96624 0.0
C651 C 0.62787 0.51183 0.98957 0.0
C652 C 0.62476 0.47482 0.99857 0.0
H653 H 0.65717 0.69415 0.08549 0.0
H654 H 0.65569 0.63289 0.06486 0.0
C655 C 0.62407 0.44233 0.9847 0.0
C656 C 0.62836 0.54609 1.00476 0.0
H657 H 0.65574 0.62375 0.02057 0.0
C658 C 0.6128 0.55195 0.01951 0.0
C659 C 0.64428 0.5718 1.00561 0.0
C660 C 0.66206 0.56581 0.9914 0.0
C661 C 0.61258 0.58292 0.03477 0.0
C662 C 0.62808 0.60963 0.03491 0.0
C663 C 0.64379 0.60347 0.02042 0.0
C664 C 0.62805 0.64485 0.04934 0.0
C665 C 0.59586 0.58615 0.05089 0.0
C666 C 0.61287 0.67171 0.04788 0.0
C667 C 0.61353 0.70641 0.0599 0.0
C668 C 0.6296 0.71554 0.07338 0.0
C669 C 0.64453 0.68806 0.0754 0.0
C670 C 0.64377 0.65311 0.06347 0.0
H671 H 0.58906 0.55748 0.05393 0.0
H672 H 0.60049 0.5984 0.06721 0.0
H673 H 0.58467 0.60543 0.04359 0.0
H674 H 0.60079 0.66659 0.03675 0.0
H675 H 0.60178 0.72685 0.05778 0.0
H676 H 0.84441 0.2787 0.03837 0.0
H677 H 0.847 0.3421 0.02087 0.0
H678 H 0.88005 0.38357 0.07719 0.0
H679 H 0.87754 0.31909 0.095 0.0
H680 H 0.83602 0.4162 0.03547 0.0
H681 H 0.91532 0.40298 0.0216 0.0
H682 H 0.9005 0.362 0.02913 0.0
H683 H 0.90671 0.39747 0.04985 0.0
C684 C 0.85207 0.30141 0.04721 0.0
C685 C 0.8609 0.29398 0.06798 0.0
C686 C 0.85351 0.33765 0.03717 0.0
C687 C 0.86396 0.36737 0.04752 0.0
C688 C 0.87215 0.36077 0.06878 0.0
H689 H 0.86261 0.5999 0.99087 0.0
H690 H 0.86124 0.5444 0.01589 0.0
C691 C 0.87055 0.32421 0.07904 0.0
C692 C 0.86655 0.4044 0.03523 0.0
H693 H 0.89979 0.45744 1.00605 0.0
C694 C 0.84999 0.42555 0.02928 0.0
C695 C 0.88475 0.41599 0.02678 0.0
C696 C 0.90288 0.39343 0.03196 0.0
C697 C 0.85108 0.45761 0.01487 0.0
C698 C 0.86927 0.46926 1.00642 0.0
C699 C 0.88588 0.44843 0.01256 0.0
C700 C 0.87122 0.50313 0.99125 0.0
C701 C 0.83263 0.47794 1.00819 0.0
C702 C 0.87785 0.49862 0.96915 0.0
C703 C 0.87876 0.53057 0.95464 0.0
C704 C 0.87314 0.56757 0.96207 0.0
C705 C 0.86693 0.57188 0.98441 0.0
C706 C 0.86607 0.54011 0.99881 0.0
H707 H 0.8197 0.4598 0.01152 0.0
H708 H 0.83116 0.50506 0.01802 0.0
H709 H 0.83282 0.48573 0.99015 0.0
H710 H 0.88196 0.47026 0.96302 0.0
H711 H 0.88366 0.52623 0.9376 0.0
H712 H 0.14288 0.53637 0.578 0.0
H713 H 0.1453 0.48097 0.55237 0.0
H714 H 0.11261 0.5437 0.50271 0.0
H715 H 0.11024 0.59899 0.52792 0.0
H716 H 0.11593 0.43702 0.53154 0.0
H717 H 0.16142 0.51197 0.46838 0.0
H718 H 0.15788 0.53063 0.49631 0.0
H719 H 0.13944 0.53682 0.47542 0.0
C720 C 0.13609 0.53824 0.56169 0.0
C721 C 0.12644 0.57223 0.55503 0.0
C722 C 0.13755 0.50664 0.54704 0.0
C723 C 0.12949 0.50855 0.52545 0.0
C724 C 0.11935 0.54192 0.51906 0.0
H725 H 0.12101 0.32993 0.42025 0.0
H726 H 0.11817 0.39239 0.44023 0.0
C727 C 0.11789 0.57343 0.53362 0.0
C728 C 0.13144 0.47554 0.50966 0.0
H729 H 0.15006 0.44933 0.45877 0.0
C730 C 0.12339 0.43975 0.51564 0.0
C731 C 0.14109 0.4792 0.48883 0.0
C732 C 0.15061 0.5166 0.48186 0.0
C733 C 0.12473 0.40752 0.5014 0.0
C734 C 0.13458 0.41103 0.48074 0.0
C735 C 0.14239 0.4469 0.47454 0.0
C736 C 0.13824 0.37663 0.46652 0.0
C737 C 0.1157 0.36973 0.50858 0.0
C738 C 0.15104 0.34814 0.4742 0.0
C739 C 0.15266 0.31299 0.46292 0.0
C740 C 0.14165 0.30569 0.4436 0.0
C741 C 0.1298 0.33515 0.43495 0.0
C742 C 0.1281 0.37058 0.44641 0.0
H743 H 0.10512 0.37387 0.52236 0.0
H744 H 0.1083 0.35556 0.49426 0.0
H745 H 0.1272 0.34986 0.5146 0.0
H746 H 0.15912 0.35243 0.48954 0.0
H747 H 0.1619 0.29068 0.46991 0.0
H748 H 0.3598 0.48082 0.58265 0.0
H749 H 0.35748 0.53645 0.55714 0.0
H750 H 0.38477 0.46976 0.50496 0.0
H751 H 0.38707 0.41428 0.53006 0.0
H752 H 0.38754 0.57584 0.53365 0.0
H753 H 0.33482 0.50912 0.47504 0.0
H754 H 0.33931 0.49007 0.50273 0.0
H755 H 0.35611 0.48078 0.48045 0.0
C756 C 0.3654 0.47808 0.56579 0.0
C757 C 0.37358 0.443 0.55844 0.0
C758 C 0.36401 0.50983 0.55122 0.0
C759 C 0.37063 0.50696 0.52902 0.0
C760 C 0.37919 0.47235 0.52184 0.0
H761 H 0.37609 0.68641 0.42333 0.0
H762 H 0.37894 0.62322 0.44261 0.0
C763 C 0.38062 0.44072 0.53633 0.0
C764 C 0.36889 0.54034 0.51344 0.0
H765 H 0.3475 0.57031 0.46473 0.0
C766 C 0.37882 0.57458 0.51858 0.0
C767 C 0.35762 0.53853 0.49366 0.0
C768 C 0.34621 0.50279 0.48764 0.0
C769 C 0.37768 0.60715 0.50456 0.0
C770 C 0.3661 0.60564 0.48505 0.0
C771 C 0.35647 0.57121 0.47961 0.0
C772 C 0.36239 0.64098 0.47161 0.0
C773 C 0.38872 0.64322 0.51083 0.0
C774 C 0.35151 0.67093 0.48112 0.0
C775 C 0.34991 0.70648 0.47028 0.0
C776 C 0.35902 0.71284 0.44956 0.0
C777 C 0.36884 0.68207 0.4392 0.0
C778 C 0.37055 0.64619 0.45023 0.0
H779 H 0.40039 0.63695 0.52309 0.0
H780 H 0.39519 0.65692 0.49577 0.0
H781 H 0.37866 0.66442 0.51853 0.0
H782 H 0.3449 0.6673 0.49743 0.0
H783 H 0.3421 0.72965 0.47856 0.0
H784 H 0.38612 0.27802 0.97554 0.0
H785 H 0.38817 0.34149 0.99303 0.0
H786 H 0.34969 0.38827 0.94301 0.0
H787 H 0.34725 0.32386 0.92547 0.0
H788 H 0.39941 0.41369 0.97899 0.0
H789 H 0.32144 0.41167 1.00171 0.0
H790 H 0.33382 0.36943 0.99117 0.0
H791 H 0.32674 0.4075 0.97235 0.0
C792 C 0.3782 0.30186 0.96807 0.0
C793 C 0.36627 0.29584 0.94932 0.0
C794 C 0.37946 0.3382 0.97808 0.0
C795 C 0.36878 0.36946 0.96965 0.0
C796 C 0.35774 0.36429 0.95007 0.0
H797 H 0.35291 0.59701 0.02969 0.0
H798 H 0.35275 0.54098 1.00488 0.0
C799 C 0.35651 0.32765 0.93992 0.0
C800 C 0.36865 0.40645 0.98237 0.0
H801 H 0.33971 0.46488 0.01416 0.0
C802 C 0.38633 0.42506 0.98654 0.0
C803 C 0.3516 0.42104 0.9924 0.0
C804 C 0.33232 0.40132 0.9894 0.0
C805 C 0.38744 0.45768 1.00055 0.0
C806 C 0.37046 0.4718 0.01087 0.0
C807 C 0.35272 0.45381 1.0063 0.0
C808 C 0.37073 0.50554 0.02626 0.0
C809 C 0.40676 0.47689 1.00413 0.0
C810 C 0.38068 0.50403 0.04678 0.0
C811 C 0.38078 0.53614 0.06116 0.0
C812 C 0.37095 0.57031 0.05522 0.0
C813 C 0.36079 0.57133 0.03478 0.0
C814 C 0.36063 0.53929 0.02053 0.0
H815 H 0.41743 0.46819 0.99118 0.0
H816 H 0.40528 0.50893 1.00391 0.0
H817 H 0.41254 0.4683 0.02074 0.0
H818 H 0.3883 0.47795 0.05169 0.0
H819 H 0.38867 0.5343 0.07679 0.0
H820 H 0.14518 0.42861 0.02666 0.0
H821 H 0.14512 0.48649 1.00321 0.0
H822 H 0.10589 0.54234 0.04909 0.0
H823 H 0.10629 0.48471 0.07307 0.0
H824 H 0.11645 0.52128 0.9809 0.0
H825 H 0.14668 0.62438 0.04281 0.0
H826 H 0.14669 0.57271 0.04736 0.0
H827 H 0.12519 0.60071 0.05247 0.0
C828 C 0.13659 0.45325 0.03188 0.0
C829 C 0.12577 0.45196 0.05184 0.0
C830 C 0.13656 0.48637 0.01839 0.0
C831 C 0.12571 0.5191 0.02445 0.0
C832 C 0.11475 0.51787 0.04428 0.0
H833 H 0.09928 0.73515 0.95681 0.0
H834 H 0.09792 0.67425 0.97762 0.0
C835 C 0.11491 0.48478 0.05793 0.0
C836 C 0.12566 0.55401 0.00971 0.0
H837 H 0.13462 0.65146 0.00894 0.0
C838 C 0.12051 0.54968 0.98705 0.0
C839 C 0.13108 0.59116 0.01762 0.0
C840 C 0.13791 0.59756 0.04133 0.0
C841 C 0.12037 0.58144 0.97227 0.0
C842 C 0.12544 0.61848 0.98032 0.0
C843 C 0.13063 0.62295 1.00288 0.0
C844 C 0.12542 0.65315 0.96563 0.0
C845 C 0.11464 0.57554 0.94816 0.0
C846 C 0.14117 0.66103 0.95156 0.0
C847 C 0.14208 0.69598 0.93962 0.0
C848 C 0.12723 0.72371 0.94159 0.0
C849 C 0.11102 0.71465 0.95488 0.0
C850 C 0.1102 0.67986 0.96686 0.0
H851 H 0.10991 0.54537 0.94477 0.0
H852 H 0.10274 0.59572 0.94368 0.0
H853 H 0.1271 0.58236 0.93715 0.0
H854 H 0.15308 0.64074 0.95044 0.0
H855 H 0.15479 0.70194 0.92965 0.0
H856 H 0.89458 0.72312 0.55189 0.0
H857 H 0.89553 0.66144 0.53184 0.0
H858 H 0.83924 0.63257 0.55789 0.0
H859 H 0.83865 0.69392 0.57884 0.0
H860 H 0.86152 0.56882 0.5547 0.0
H861 H 0.86548 0.64947 0.47486 0.0
H862 H 0.88535 0.66108 0.49288 0.0
H863 H 0.86108 0.67316 0.50126 0.0
C864 C 0.88263 0.70313 0.55378 0.0
C865 C 0.86654 0.71321 0.56687 0.0
C866 C 0.88306 0.66812 0.54208 0.0
C867 C 0.86716 0.64294 0.54266 0.0
C868 C 0.85159 0.65173 0.55696 0.0
H869 H 0.85076 0.47128 0.43607 0.0
H870 H 0.84793 0.5277 0.46078 0.0
C871 C 0.85131 0.68661 0.56906 0.0
C872 C 0.86652 0.60858 0.52755 0.0
H873 H 0.87188 0.58159 0.47283 0.0
C874 C 0.86366 0.57162 0.53678 0.0
C875 C 0.86876 0.61219 0.50404 0.0
C876 C 0.87012 0.65115 0.49264 0.0
C877 C 0.86367 0.53818 0.5233 0.0
C878 C 0.86725 0.54162 0.49999 0.0
C879 C 0.86945 0.57871 0.4907 0.0
C880 C 0.86896 0.50725 0.48494 0.0
C881 C 0.85948 0.49965 0.53419 0.0
C882 C 0.88203 0.47731 0.48989 0.0
C883 C 0.88349 0.44489 0.47595 0.0
C884 C 0.87226 0.44205 0.45638 0.0
C885 C 0.85968 0.47267 0.45095 0.0
C886 C 0.858 0.50487 0.46513 0.0
H887 H 0.85074 0.50329 0.54965 0.0
H888 H 0.85161 0.47999 0.52265 0.0
H889 H 0.8733 0.48566 0.53904 0.0
H890 H 0.89118 0.47896 0.50456 0.0
H891 H 0.89347 0.42202 0.48052 0.0
H892 H 0.61379 0.53623 0.44313 0.0
H893 H 0.6137 0.4799 0.46822 0.0
H894 H 0.64343 0.54649 0.51861 0.0
H895 H 0.64335 0.60274 0.49399 0.0
H896 H 0.64473 0.44095 0.48692 0.0
H897 H 0.59847 0.50215 0.55406 0.0
H898 H 0.60039 0.52405 0.5267 0.0
H899 H 0.619 0.53163 0.54725 0.0
C900 C 0.62021 0.53894 0.45959 0.0
C901 C 0.62841 0.57419 0.46656 0.0
C902 C 0.62015 0.50673 0.47392 0.0
C903 C 0.62821 0.5092 0.49549 0.0
C904 C 0.63666 0.54413 0.50231 0.0
H905 H 0.65328 0.32648 0.59423 0.0
H906 H 0.65148 0.39016 0.57555 0.0
C907 C 0.6367 0.57626 0.48808 0.0
C908 C 0.62848 0.4749 0.51057 0.0
H909 H 0.61395 0.4421 0.56199 0.0
C910 C 0.63797 0.44124 0.5033 0.0
C911 C 0.61972 0.47532 0.53204 0.0
C912 C 0.60867 0.51008 0.54044 0.0
C913 C 0.63898 0.4081 0.51689 0.0
C914 C 0.63018 0.40847 0.53825 0.0
C915 C 0.62084 0.44213 0.54569 0.0
C916 C 0.62931 0.37286 0.55206 0.0
C917 C 0.64938 0.37264 0.5083 0.0
C918 C 0.6169 0.3429 0.54561 0.0
C919 C 0.61787 0.30694 0.55616 0.0
C920 C 0.63124 0.30015 0.57347 0.0
C921 C 0.64275 0.33101 0.58106 0.0
C922 C 0.64181 0.36723 0.57034 0.0
H923 H 0.65827 0.37911 0.49328 0.0
H924 H 0.65887 0.36033 0.52152 0.0
H925 H 0.63861 0.3502 0.50373 0.0
H926 H 0.60706 0.34681 0.53166 0.0
H927 H 0.60873 0.28376 0.55005 0.0
H928 H 0.10731 0.17805 0.342 0.0
H929 H 0.10315 0.19869 0.30296 0.0
H930 H 0.14981 0.2802 0.31057 0.0
H931 H 0.15424 0.25968 0.34929 0.0
H932 H 0.09603 0.27268 0.28286 0.0
H933 H 0.16702 0.21195 0.25776 0.0
H934 H 0.15558 0.20002 0.28402 0.0
H935 H 0.16833 0.24506 0.28088 0.0
C936 C 0.11661 0.20055 0.33542 0.0
C937 C 0.13129 0.2168 0.34877 0.0
C938 C 0.11419 0.21233 0.31311 0.0
C939 C 0.12642 0.24045 0.30374 0.0
C940 C 0.14048 0.25788 0.3173 0.0
H941 H 0.11956 0.3699 0.17924 0.0
H942 H 0.11696 0.34804 0.2181 0.0
C943 C 0.14294 0.24614 0.33951 0.0
C944 C 0.12503 0.25081 0.27964 0.0
H945 H 0.1512 0.25214 0.23118 0.0
C946 C 0.10803 0.26802 0.27149 0.0
C947 C 0.1406 0.24419 0.26476 0.0
C948 C 0.15885 0.22396 0.27219 0.0
C949 C 0.10639 0.27974 0.24898 0.0
C950 C 0.12227 0.27452 0.23434 0.0
C951 C 0.13907 0.25644 0.24241 0.0
C952 C 0.12197 0.28752 0.21057 0.0
C953 C 0.08762 0.29718 0.24103 0.0
C954 C 0.12575 0.26089 0.19336 0.0
C955 C 0.12742 0.27334 0.17116 0.0
C956 C 0.12544 0.3128 0.16565 0.0
C957 C 0.12109 0.3393 0.18284 0.0
C958 C 0.11949 0.3268 0.20509 0.0
H959 H 0.07541 0.28923 0.25218 0.0
H960 H 0.0889 0.32922 0.24103 0.0
H961 H 0.08417 0.28767 0.22372 0.0
H962 H 0.12776 0.23046 0.19716 0.0
H963 H 0.13069 0.25205 0.15839 0.0
H964 H 0.36734 0.76697 0.16351 0.0
H965 H 0.37105 0.78783 0.20232 0.0
H966 H 0.38159 0.66968 0.22242 0.0
H967 H 0.37822 0.64855 0.18351 0.0
H968 H 0.34817 0.76624 0.23675 0.0
H969 H 0.42406 0.72683 0.2558 0.0
H970 H 0.41479 0.72898 0.22756 0.0
H971 H 0.41013 0.68733 0.24482 0.0
C972 C 0.3707 0.7454 0.1761 0.0
C973 C 0.3724 0.706 0.17034 0.0
C974 C 0.37283 0.75742 0.19832 0.0
C975 C 0.37678 0.73043 0.2153 0.0
C976 C 0.37895 0.69119 0.20957 0.0
H977 H 0.34705 0.75696 0.35479 0.0
H978 H 0.35088 0.73654 0.31597 0.0
C979 C 0.37689 0.67912 0.1873 0.0
C980 C 0.37699 0.74302 0.23913 0.0
H981 H 0.40409 0.74332 0.28704 0.0
C982 C 0.36046 0.76142 0.24768 0.0
C983 C 0.39309 0.73713 0.25338 0.0
C984 C 0.4116 0.71933 0.24491 0.0
C985 C 0.35941 0.77332 0.27011 0.0
C986 C 0.37519 0.76602 0.28459 0.0
C987 C 0.39193 0.7485 0.27598 0.0
C988 C 0.37429 0.77604 0.30876 0.0
C989 C 0.34143 0.79391 0.27807 0.0
C990 C 0.38675 0.80393 0.31793 0.0
C991 C 0.38468 0.81565 0.34028 0.0
C992 C 0.37011 0.79958 0.35387 0.0
C993 C 0.35827 0.77036 0.34482 0.0
C994 C 0.36039 0.75868 0.32256 0.0
H995 H 0.33306 0.80629 0.26389 0.0
H996 H 0.332 0.77295 0.28694 0.0
H997 H 0.34508 0.81763 0.28988 0.0
H998 H 0.39767 0.81751 0.30759 0.0
H999 H 0.39411 0.83807 0.3467 0.0
H1000 H 0.60481 0.84387 0.17447 0.0
H1001 H 0.60055 0.82213 0.21329 0.0
H1002 H 0.64777 0.74156 0.20513 0.0
H1003 H 0.65118 0.76134 0.16619 0.0
H1004 H 0.62159 0.70829 0.22786 0.0
H1005 H 0.63186 0.85381 0.26522 0.0
H1006 H 0.61138 0.85159 0.24691 0.0
H1007 H 0.63535 0.84482 0.23581 0.0
C1008 C 0.61419 0.82141 0.18103 0.0
C1009 C 0.62836 0.8044 0.16734 0.0
C1010 C 0.61187 0.80922 0.20327 0.0
C1011 C 0.62415 0.78081 0.21245 0.0
C1012 C 0.6381 0.76352 0.19858 0.0
H1013 H 0.65468 0.748 0.35027 0.0
H1014 H 0.65039 0.76742 0.31135 0.0
C1015 C 0.64006 0.77491 0.17627 0.0
C1016 C 0.62278 0.76885 0.23642 0.0
H1017 H 0.62404 0.80309 0.29007 0.0
C1018 C 0.62215 0.72907 0.24146 0.0
C1019 C 0.62367 0.79584 0.25427 0.0
C1020 C 0.6258 0.83884 0.25033 0.0
C1021 C 0.62302 0.71549 0.26363 0.0
C1022 C 0.62354 0.74249 0.28149 0.0
C1023 C 0.62354 0.7823 0.27647 0.0
C1024 C 0.62566 0.7304 0.30536 0.0
C1025 C 0.62439 0.67233 0.26747 0.0
C1026 C 0.61313 0.70326 0.31526 0.0
C1027 C 0.61594 0.69124 0.33746 0.0
C1028 C 0.6309 0.70718 0.3504 0.0
C1029 C 0.64297 0.73528 0.34074 0.0
C1030 C 0.6405 0.74647 0.31846 0.0
H1031 H 0.62949 0.65687 0.25226 0.0
H1032 H 0.6344 0.66545 0.28145 0.0
H1033 H 0.60987 0.66089 0.27168 0.0
H1034 H 0.60116 0.69134 0.30587 0.0
H1035 H 0.60626 0.66991 0.3446 0.0
H1036 H 0.89833 0.17215 0.16816 0.0
H1037 H 0.90315 0.19281 0.20708 0.0
H1038 H 0.85179 0.26328 0.20319 0.0
H1039 H 0.84708 0.24363 0.16445 0.0
H1040 H 0.88112 0.30072 0.22467 0.0
H1041 H 0.87145 0.1527 0.25961 0.0
H1042 H 0.89051 0.15758 0.23941 0.0
H1043 H 0.86584 0.16437 0.23089 0.0
C1044 C 0.88814 0.19226 0.17554 0.0
C1045 C 0.87222 0.20591 0.16314 0.0
C1046 C 0.89085 0.20384 0.19786 0.0
C1047 C 0.87763 0.22907 0.20823 0.0
C1048 C 0.86215 0.24368 0.19563 0.0
H1049 H 0.84387 0.26618 0.34398 0.0
H1050 H 0.84893 0.24616 0.30529 0.0
C1051 C 0.85946 0.23228 0.17341 0.0
C1052 C 0.87942 0.23988 0.23229 0.0
H1053 H 0.87713 0.20297 0.28536 0.0
C1054 C 0.88044 0.27933 0.23796 0.0
C1055 C 0.8783 0.21198 0.24964 0.0
C1056 C 0.8763 0.1693 0.2447 0.0
C1057 C 0.87993 0.29171 0.26039 0.0
C1058 C 0.87876 0.26381 0.27773 0.0
C1059 C 0.87818 0.22432 0.27209 0.0
C1060 C 0.87647 0.27505 0.30168 0.0
C1061 C 0.87974 0.33461 0.26524 0.0
C1062 C 0.89044 0.29748 0.31278 0.0
C1063 C 0.88753 0.30927 0.33501 0.0
C1064 C 0.87066 0.29858 0.34664 0.0
C1065 C 0.85701 0.27513 0.33562 0.0
C1066 C 0.85989 0.26355 0.31344 0.0
H1067 H 0.87631 0.35197 0.25008 0.0
H1068 H 0.869 0.34165 0.27845 0.0
H1069 H 0.89421 0.34358 0.27131 0.0
H1070 H 0.90355 0.30602 0.30424 0.0
H1071 H 0.89844 0.327 0.343 0.0
H1072 H 0.8427 0.75768 0.66031 0.0
H1073 H 0.84585 0.73464 0.69883 0.0
H1074 H 0.89577 0.80741 0.70817 0.0
H1075 H 0.89298 0.8302 0.66951 0.0
H1076 H 0.90037 0.73403 0.72689 0.0
H1077 H 0.83081 0.80004 0.753 0.0
H1078 H 0.8287 0.76746 0.72971 0.0
H1079 H 0.8423 0.81152 0.72671 0.0
C1080 C 0.85442 0.76872 0.67048 0.0
C1081 C 0.86746 0.79617 0.66181 0.0
C1082 C 0.85614 0.75562 0.69256 0.0
C1083 C 0.8708 0.76988 0.70654 0.0
C1084 C 0.88426 0.79619 0.69774 0.0
H1085 H 0.86886 0.76144 0.85163 0.0
H1086 H 0.87089 0.78085 0.81239 0.0
C1087 C 0.88261 0.80924 0.67561 0.0
C1088 C 0.87183 0.75811 0.73047 0.0
H1089 H 0.84626 0.7591 0.77937 0.0
C1090 C 0.88856 0.73955 0.7384 0.0
C1091 C 0.85654 0.76587 0.74556 0.0
C1092 C 0.83864 0.78764 0.73843 0.0
C1093 C 0.89028 0.72799 0.76092 0.0
C1094 C 0.87474 0.73469 0.77582 0.0
C1095 C 0.85813 0.7537 0.76792 0.0
C1096 C 0.87534 0.72278 0.79976 0.0
C1097 C 0.90887 0.70942 0.76863 0.0
C1098 C 0.87738 0.68366 0.80582 0.0
C1099 C 0.87631 0.67241 0.82834 0.0
C1100 C 0.87295 0.70005 0.84523 0.0
C1101 C 0.87138 0.73931 0.8391 0.0
C1102 C 0.87253 0.7505 0.81664 0.0
H1103 H 0.92101 0.71592 0.75706 0.0
H1104 H 0.91283 0.71939 0.7857 0.0
H1105 H 0.90697 0.67752 0.76914 0.0
H1106 H 0.87918 0.66163 0.79309 0.0
H1107 H 0.87749 0.64192 0.83241 0.0
H1108 H 0.61131 0.35 0.84138 0.0
H1109 H 0.60819 0.32904 0.80238 0.0
H1110 H 0.6434 0.22876 0.81659 0.0
H1111 H 0.64716 0.25031 0.85524 0.0
H1112 H 0.65606 0.26323 0.78082 0.0
H1113 H 0.57688 0.24732 0.77192 0.0
H1114 H 0.58367 0.29474 0.7813 0.0
H1115 H 0.58842 0.25331 0.79879 0.0
C1116 C 0.61813 0.32317 0.83626 0.0
C1117 C 0.62954 0.3019 0.8514 0.0
C1118 C 0.61624 0.31106 0.81395 0.0
C1119 C 0.62536 0.277 0.8065 0.0
C1120 C 0.63622 0.25514 0.82186 0.0
H1121 H 0.6113 0.16366 0.6767 0.0
H1122 H 0.60857 0.18357 0.71597 0.0
C1123 C 0.63836 0.2675 0.84399 0.0
C1124 C 0.62499 0.26558 0.78243 0.0
H1125 H 0.59523 0.24687 0.738 0.0
C1126 C 0.64272 0.25945 0.77155 0.0
C1127 C 0.60762 0.26016 0.77027 0.0
C1128 C 0.58807 0.26383 0.78122 0.0
C1129 C 0.64362 0.24844 0.74896 0.0
C1130 C 0.6263 0.24472 0.73652 0.0
C1131 C 0.60852 0.25028 0.74742 0.0
C1132 C 0.62647 0.23455 0.71229 0.0
C1133 C 0.66317 0.24001 0.73884 0.0
C1134 C 0.63685 0.25727 0.69695 0.0
C1135 C 0.63865 0.2457 0.67463 0.0
C1136 C 0.62975 0.21155 0.66699 0.0
C1137 C 0.61838 0.19005 0.68205 0.0
C1138 C 0.61681 0.2014 0.70451 0.0
H1139 H 0.67402 0.23272 0.75191 0.0
H1140 H 0.66242 0.21561 0.72677 0.0
H1141 H 0.66838 0.2661 0.72984 0.0
H1142 H 0.64393 0.28361 0.70236 0.0
H1143 H 0.64726 0.26328 0.6634 0.0
H1144 H 0.35261 0.25041 0.66669 0.0
H1145 H 0.35574 0.23137 0.7059 0.0
H1146 H 0.39137 0.33142 0.71852 0.0
H1147 H 0.38884 0.35002 0.679 0.0
H1148 H 0.40453 0.26903 0.74124 0.0
H1149 H 0.32579 0.28359 0.75495 0.0
H1150 H 0.33132 0.24956 0.73321 0.0
H1151 H 0.33738 0.29992 0.72963 0.0
C1152 C 0.36124 0.26827 0.67775 0.0
C1153 C 0.37028 0.30203 0.66975 0.0
C1154 C 0.36291 0.25746 0.70022 0.0
C1155 C 0.37332 0.28055 0.71535 0.0
C1156 C 0.38311 0.31332 0.70722 0.0
H1157 H 0.35237 0.26356 0.85861 0.0
H1158 H 0.35606 0.28624 0.82012 0.0
C1159 C 0.38166 0.32391 0.68462 0.0
C1160 C 0.37347 0.27105 0.73968 0.0
H1161 H 0.34367 0.25295 0.784 0.0
C1162 C 0.39124 0.26573 0.75065 0.0
C1163 C 0.35614 0.26755 0.75212 0.0
C1164 C 0.3366 0.27586 0.74194 0.0
C1165 C 0.39212 0.25609 0.77354 0.0
C1166 C 0.37474 0.25062 0.78567 0.0
C1167 C 0.35702 0.25674 0.77475 0.0
C1168 C 0.37438 0.23868 0.80967 0.0
C1169 C 0.41167 0.25264 0.78453 0.0
C1170 C 0.38365 0.20461 0.81686 0.0
C1171 C 0.38181 0.19187 0.83904 0.0
C1172 C 0.37028 0.21248 0.85436 0.0
C1173 C 0.36128 0.24689 0.84723 0.0
C1174 C 0.36338 0.25989 0.82519 0.0
H1175 H 0.42277 0.26963 0.77536 0.0
H1176 H 0.41126 0.26275 0.80217 0.0
H1177 H 0.41628 0.22184 0.78437 0.0
H1178 H 0.39179 0.18708 0.80515 0.0
H1179 H 0.38877 0.16505 0.84392 0.0
H1180 H 0.11005 0.86274 0.83699 0.0
H1181 H 0.10645 0.84257 0.79789 0.0
H1182 H 0.13991 0.73971 0.81153 0.0
H1183 H 0.1429 0.75884 0.85064 0.0
H1184 H 0.13264 0.83399 0.76704 0.0
H1185 H 0.09673 0.69249 0.77734 0.0
H1186 H 0.09909 0.7264 0.80014 0.0
H1187 H 0.11867 0.69406 0.79322 0.0
C1188 C 0.11639 0.83553 0.83172 0.0
C1189 C 0.12669 0.81235 0.847 0.0
C1190 C 0.11434 0.82404 0.80934 0.0
C1191 C 0.12262 0.78923 0.80174 0.0
C1192 C 0.13285 0.76604 0.81702 0.0
H1193 H 0.16195 0.73807 0.66838 0.0
H1194 H 0.15712 0.76056 0.70665 0.0
C1195 C 0.13467 0.77721 0.83943 0.0
C1196 C 0.12175 0.77843 0.77759 0.0
H1197 H 0.11293 0.70285 0.7421 0.0
C1198 C 0.12807 0.80546 0.76159 0.0
C1199 C 0.11545 0.74151 0.77026 0.0
C1200 C 0.1069 0.71217 0.78615 0.0
C1201 C 0.12901 0.79611 0.73872 0.0
C1202 C 0.12411 0.7582 0.73164 0.0
C1203 C 0.11701 0.73171 0.74748 0.0
C1204 C 0.12684 0.74504 0.70808 0.0
C1205 C 0.13511 0.82719 0.72241 0.0
C1206 C 0.11163 0.72748 0.69624 0.0
C1207 C 0.11447 0.7138 0.6744 0.0
C1208 C 0.13258 0.71754 0.6639 0.0
C1209 C 0.14775 0.73517 0.6758 0.0
C1210 C 0.14497 0.74834 0.69769 0.0
H1211 H 0.13165 0.85654 0.72892 0.0
H1212 H 0.15098 0.82566 0.71997 0.0
H1213 H 0.12795 0.82355 0.70591 0.0
H1214 H 0.09754 0.72435 0.70391 0.0
H1215 H 0.10248 0.70039 0.66572 0.0
H1216 H 0.16516 0.47407 0.11698 0.0
H1217 H 0.19464 0.51296 0.12055 0.0
H1218 H 0.22776 0.40933 0.13278 0.0
H1219 H 0.19847 0.37022 0.12939 0.0
H1220 H 0.22427 0.51318 0.15904 0.0
H1221 H 0.2525 0.46612 0.07614 0.0
H1222 H 0.22717 0.46351 0.08324 0.0
H1223 H 0.2438 0.4289 0.09468 0.0
C1224 C 0.17867 0.45955 0.12068 0.0
C1225 C 0.17939 0.41895 0.12292 0.0
C1226 C 0.1955 0.48184 0.12271 0.0
C1227 C 0.21339 0.46398 0.12675 0.0
C1228 C 0.21411 0.42365 0.12952 0.0
H1229 H 0.33228 0.5463 0.12228 0.0
H1230 H 0.30294 0.50713 0.12512 0.0
C1231 C 0.1973 0.40137 0.12767 0.0
C1232 C 0.23143 0.48728 0.12738 0.0
H1233 H 0.27265 0.50609 0.09791 0.0
C1234 C 0.23486 0.51176 0.14569 0.0
C1235 C 0.24526 0.4851 0.11001 0.0
C1236 C 0.24207 0.45973 0.08978 0.0
C1237 C 0.25192 0.53377 0.14726 0.0
C1238 C 0.26569 0.53208 0.1297 0.0
C1239 C 0.26218 0.50744 0.1114 0.0
C1240 C 0.28367 0.55594 0.12967 0.0
C1241 C 0.25522 0.55782 0.168 0.0
C1242 C 0.28274 0.5965 0.13134 0.0
C1243 C 0.29954 0.61895 0.13001 0.0
C1244 C 0.31768 0.60143 0.1266 0.0
C1245 C 0.3186 0.56079 0.12504 0.0
C1246 C 0.3018 0.53833 0.12659 0.0
H1247 H 0.24682 0.54656 0.18245 0.0
H1248 H 0.27074 0.55847 0.17267 0.0
H1249 H 0.25036 0.58795 0.16479 0.0
H1250 H 0.26894 0.61099 0.13305 0.0
H1251 H 0.29821 0.65018 0.13091 0.0
H1252 H 0.70196 0.64728 0.38425 0.0
H1253 H 0.73044 0.60619 0.37935 0.0
H1254 H 0.69743 0.50638 0.39966 0.0
H1255 H 0.66879 0.54715 0.40442 0.0
H1256 H 0.749 0.56204 0.41164 0.0
H1257 H 0.7235 0.4682 0.34244 0.0
H1258 H 0.7116 0.51299 0.34981 0.0
H1259 H 0.7073 0.46978 0.36589 0.0
C1260 C 0.70063 0.6165 0.3874 0.0
C1261 C 0.68296 0.60057 0.39459 0.0
C1262 C 0.71699 0.59305 0.38464 0.0
C1263 C 0.71607 0.55307 0.38883 0.0
C1264 C 0.69844 0.53699 0.39585 0.0
H1265 H 0.79323 0.35956 0.39989 0.0
H1266 H 0.76635 0.40477 0.39677 0.0
C1267 C 0.68206 0.56043 0.39866 0.0
C1268 C 0.73375 0.52855 0.38694 0.0
H1269 H 0.75204 0.44774 0.36147 0.0
C1270 C 0.74976 0.53729 0.40049 0.0
C1271 C 0.73477 0.49626 0.37237 0.0
C1272 C 0.71845 0.48638 0.35663 0.0
C1273 C 0.76641 0.51383 0.40053 0.0
C1274 C 0.76728 0.48109 0.38627 0.0
C1275 C 0.75142 0.47284 0.37237 0.0
C1276 C 0.7839 0.45353 0.38668 0.0
C1277 C 0.7826 0.5234 0.41653 0.0
C1278 C 0.8028 0.4655 0.38151 0.0
C1279 C 0.81837 0.43954 0.38331 0.0
C1280 C 0.81532 0.40104 0.39024 0.0
C1281 C 0.79624 0.38895 0.39459 0.0
C1282 C 0.78077 0.41481 0.39279 0.0
H1283 H 0.77793 0.5441 0.42971 0.0
H1284 H 0.78818 0.49679 0.42475 0.0
H1285 H 0.79466 0.53688 0.4071 0.0
H1286 H 0.80555 0.49505 0.37633 0.0
H1287 H 0.83283 0.4499 0.37984 0.0
H1288 H 0.80083 0.64714 0.87957 0.0
H1289 H 0.77119 0.60909 0.87603 0.0
H1290 H 0.80199 0.50648 0.89659 0.0
H1291 H 0.83177 0.54417 0.90001 0.0
H1292 H 0.77697 0.49491 0.85942 0.0
H1293 H 0.73939 0.56943 0.92953 0.0
H1294 H 0.74859 0.60053 0.90789 0.0
H1295 H 0.7651 0.5735 0.92507 0.0
C1296 C 0.80138 0.61641 0.88317 0.0
C1297 C 0.81876 0.5988 0.8901 0.0
C1298 C 0.78435 0.59475 0.8813 0.0
C1299 C 0.78427 0.55503 0.88639 0.0
C1300 C 0.80167 0.53712 0.89267 0.0
H1301 H 0.70664 0.36402 0.90033 0.0
H1302 H 0.73362 0.40806 0.89505 0.0
C1303 C 0.81871 0.55875 0.8946 0.0
C1304 C 0.76606 0.53211 0.88542 0.0
H1305 H 0.72176 0.52174 0.91006 0.0
C1306 C 0.76487 0.50088 0.87043 0.0
C1307 C 0.75019 0.54004 0.89968 0.0
C1308 C 0.75083 0.57248 0.9166 0.0
C1309 C 0.74836 0.47721 0.86944 0.0
C1310 C 0.73272 0.4844 0.88416 0.0
C1311 C 0.73369 0.51627 0.89873 0.0
C1312 C 0.71599 0.45741 0.88599 0.0
C1313 C 0.74783 0.44471 0.85256 0.0
C1314 C 0.6969 0.47048 0.88301 0.0
C1315 C 0.68123 0.44517 0.88612 0.0
C1316 C 0.68437 0.40641 0.89253 0.0
C1317 C 0.70356 0.39352 0.89527 0.0
C1318 C 0.71911 0.41868 0.89212 0.0
H1319 H 0.75752 0.45069 0.83814 0.0
H1320 H 0.75289 0.4176 0.86066 0.0
H1321 H 0.73296 0.43991 0.84618 0.0
H1322 H 0.69412 0.50036 0.87848 0.0
H1323 H 0.66669 0.45622 0.88408 0.0
H1324 H 0.168 0.5611 0.62807 0.0
H1325 H 0.19528 0.51629 0.63308 0.0
H1326 H 0.23519 0.60949 0.6205 0.0
H1327 H 0.20821 0.65423 0.61535 0.0
H1328 H 0.2253 0.50306 0.59844 0.0
H1329 H 0.25573 0.55572 0.67896 0.0
H1330 H 0.231 0.56474 0.67071 0.0
H1331 H 0.25026 0.59228 0.65843 0.0
C1332 C 0.18259 0.57219 0.62674 0.0
C1333 C 0.18586 0.61136 0.62139 0.0
C1334 C 0.19816 0.54652 0.62952 0.0
C1335 C 0.21729 0.55963 0.62739 0.0
C1336 C 0.22059 0.59882 0.62255 0.0
H1337 H 0.33242 0.45653 0.62742 0.0
H1338 H 0.30449 0.50028 0.62967 0.0
C1339 C 0.20509 0.62434 0.61953 0.0
C1340 C 0.23383 0.53208 0.6287 0.0
H1341 H 0.27459 0.51043 0.65861 0.0
C1342 C 0.23599 0.50438 0.6117 0.0
C1343 C 0.24793 0.53428 0.64582 0.0
C1344 C 0.24614 0.56314 0.66465 0.0
C1345 C 0.25203 0.47934 0.61107 0.0
C1346 C 0.26608 0.48114 0.62836 0.0
C1347 C 0.26387 0.50886 0.64541 0.0
C1348 C 0.28312 0.45455 0.62889 0.0
C1349 C 0.25408 0.45217 0.59141 0.0
C1350 C 0.28052 0.41422 0.62856 0.0
C1351 C 0.2964 0.38927 0.62709 0.0
C1352 C 0.31537 0.40393 0.62639 0.0
C1353 C 0.31804 0.44423 0.62803 0.0
C1354 C 0.30206 0.46929 0.62923 0.0
H1355 H 0.24568 0.46244 0.57669 0.0
H1356 H 0.26943 0.44893 0.58635 0.0
H1357 H 0.24844 0.42322 0.59612 0.0
H1358 H 0.26613 0.40197 0.629 0.0
H1359 H 0.29377 0.35838 0.62608 0.0
H1360 H 0.83464 0.04876 0.12753 0.0
H1361 H 0.80693 1.00452 0.13127 0.0
H1362 H 0.76784 0.10118 0.12505 0.0
H1363 H 0.79508 0.1452 0.12132 0.0
H1364 H 0.77236 1.00545 0.16192 0.0
H1365 H 0.75416 0.02648 0.07219 0.0
H1366 H 0.77757 0.0384 0.08362 0.0
H1367 H 0.75744 0.07052 0.08776 0.0
C1368 C 0.82015 0.06063 0.1274 0.0
C1369 C 0.81714 0.10054 0.12393 0.0
C1370 C 0.80434 0.03531 0.12945 0.0
C1371 C 0.78533 0.04953 0.12803 0.0
C1372 C 0.78236 0.0895 0.12582 0.0
H1373 H 0.66844 0.96461 0.11618 0.0
H1374 H 0.69803 1.00282 0.11967 0.0
C1375 C 0.79803 0.11465 0.12375 0.0
C1376 C 0.76843 0.02298 0.12766 0.0
H1377 H 0.73074 0.99464 0.09455 0.0
C1378 C 0.76334 1.0027 0.14716 0.0
C1379 C 0.75665 0.01956 0.10839 0.0
C1380 C 0.76176 0.0396 0.08672 0.0
C1381 C 0.7464 0.98014 0.14811 0.0
C1382 C 0.73443 0.97728 0.12892 0.0
C1383 C 0.73979 0.99701 0.10932 0.0
C1384 C 0.71623 0.95421 0.12865 0.0
C1385 C 0.74112 0.96071 0.16989 0.0
C1386 C 0.71651 0.91411 0.13262 0.0
C1387 C 0.69957 0.89218 0.13076 0.0
C1388 C 0.68195 0.90978 0.12469 0.0
C1389 C 0.68167 0.95006 0.12102 0.0
C1390 C 0.69862 0.97196 0.12294 0.0
H1391 H 0.74874 0.97401 0.18434 0.0
H1392 H 0.72531 0.96227 0.17294 0.0
H1393 H 0.74533 0.92972 0.1691 0.0
H1394 H 0.72996 0.89952 0.13651 0.0
H1395 H 0.70042 0.86119 0.13346 0.0
H1396 H 0.16923 0.059 0.38937 0.0
H1397 H 0.19728 0.01563 0.38599 0.0
H1398 H 0.23524 0.11454 0.38485 0.0
H1399 H 0.20756 0.1577 0.3887 0.0
H1400 H 0.22734 1.00725 0.35537 0.0
H1401 H 0.25609 0.05404 0.43767 0.0
H1402 H 0.23205 0.06626 0.42838 0.0
H1403 H 0.25252 0.09346 0.41854 0.0
C1404 C 0.18354 0.07148 0.38806 0.0
C1405 C 0.18614 0.11182 0.38952 0.0
C1406 C 0.19957 0.04667 0.38622 0.0
C1407 C 0.21844 0.06176 0.38576 0.0
C1408 C 0.22091 0.10209 0.38583 0.0
H1409 H 0.33418 0.95815 0.38935 0.0
H1410 H 0.30695 1.00287 0.38366 0.0
C1411 C 0.205 0.12678 0.38788 0.0
C1412 C 0.23562 0.03564 0.38598 0.0
H1413 H 0.27654 0.01416 0.41568 0.0
C1414 C 0.23806 0.0087 0.36858 0.0
C1415 C 0.24966 0.03743 0.40325 0.0
C1416 C 0.2474 0.06406 0.42313 0.0
C1417 C 0.25425 0.98397 0.36783 0.0
C1418 C 0.2683 0.98596 0.38503 0.0
C1419 C 0.2659 0.01297 0.40236 0.0
C1420 C 0.28493 0.95864 0.38624 0.0
C1421 C 0.25631 0.95615 0.34851 0.0
C1422 C 0.28163 0.91897 0.3895 0.0
C1423 C 0.29708 0.89351 0.39284 0.0
C1424 C 0.31628 0.90704 0.393 0.0
C1425 C 0.31962 0.94668 0.38911 0.0
C1426 C 0.30407 0.97228 0.38595 0.0
H1427 H 0.24737 0.96509 0.33394 0.0
H1428 H 0.27162 0.95385 0.34311 0.0
H1429 H 0.25145 0.92697 0.35389 0.0
H1430 H 0.26702 0.90783 0.39022 0.0
H1431 H 0.2939 0.86323 0.39585 0.0
H1432 H 0.19864 0.86728 0.8799 0.0
H1433 H 0.22842 0.90469 0.87606 0.0
H1434 H 0.19801 0.00847 0.89533 0.0
H1435 H 0.16805 0.97138 0.89907 0.0
H1436 H 0.22356 0.01813 0.85814 0.0
H1437 H 0.25968 0.94515 0.92989 0.0
H1438 H 0.25048 0.91358 0.90849 0.0
H1439 H 0.234 0.94176 0.92505 0.0
C1440 C 0.19818 0.89813 0.88314 0.0
C1441 C 0.18088 0.91625 0.88984 0.0
C1442 C 0.21529 0.91943 0.88108 0.0
C1443 C 0.21553 0.95926 0.88575 0.0
C1444 C 0.19819 0.97771 0.89173 0.0
H1445 H 0.29372 0.14851 0.89973 0.0
H1446 H 0.26667 0.10494 0.89371 0.0
C1447 C 0.18105 0.95644 0.89384 0.0
C1448 C 0.23387 0.98166 0.88483 0.0
H1449 H 0.27786 0.99173 0.91023 0.0
C1450 C 0.23547 0.01225 0.86946 0.0
C1451 C 0.24947 0.9738 0.8995 0.0
C1452 C 0.24838 0.94201 0.91681 0.0
C1453 C 0.25214 0.03543 0.8685 0.0
C1454 C 0.26751 0.02836 0.88363 0.0
C1455 C 0.26613 0.99707 0.89858 0.0
C1456 C 0.2843 0.0551 0.88561 0.0
C1457 C 0.25314 0.0673 0.85124 0.0
C1458 C 0.30339 0.0416 0.88337 0.0
C1459 C 0.31909 0.06664 0.88691 0.0
C1460 C 0.31595 0.10551 0.89305 0.0
C1461 C 0.29678 0.11887 0.89494 0.0
C1462 C 0.2812 0.09399 0.89134 0.0
H1463 H 0.24369 0.06096 0.83665 0.0
H1464 H 0.24805 0.09479 0.85887 0.0
H1465 H 0.26815 0.07161 0.84518 0.0
H1466 H 0.30613 0.01157 0.87916 0.0
H1467 H 0.33362 0.05526 0.88553 0.0
H1468 H 0.79338 0.86333 0.61206 0.0
H1469 H 0.76648 0.90825 0.61734 0.0
H1470 H 0.80649 0.99963 0.63342 0.0
H1471 H 0.83369 0.95467 0.62831 0.0
H1472 H 0.7573 0.96014 0.65759 0.0
H1473 H 0.77243 0.03644 0.57731 0.0
H1474 H 0.78105 0.98794 0.5828 0.0
H1475 H 0.79233 0.02849 0.59621 0.0
C1476 C 0.79654 0.89286 0.61697 0.0
C1477 C 0.81577 0.90535 0.61974 0.0
C1478 C 0.78109 0.91848 0.62001 0.0
C1479 C 0.78447 0.95729 0.62564 0.0
C1480 C 0.80358 0.96978 0.62899 0.0
H1481 H 0.70691 0.15555 0.62234 0.0
H1482 H 0.73473 0.11265 0.62619 0.0
C1483 C 0.8191 0.94401 0.62616 0.0
C1484 C 0.76799 0.98486 0.62695 0.0
H1485 H 0.7459 0.05819 0.5983 0.0
C1486 C 0.75481 0.98176 0.64472 0.0
C1487 C 0.76478 0.01292 0.61012 0.0
C1488 C 0.77827 0.01677 0.5904 0.0
C1489 C 0.73858 1.00631 0.64623 0.0
C1490 C 0.73514 0.03399 0.62914 0.0
C1491 C 0.74846 0.0371 0.61144 0.0
C1492 C 0.7179 0.0601 0.62907 0.0
C1493 C 0.72555 1.00281 0.66636 0.0
C1494 C 0.69899 0.04513 0.6297 0.0
C1495 C 0.68294 0.06981 0.6278 0.0
C1496 C 0.68545 0.10993 0.62484 0.0
C1497 C 0.70438 0.12484 0.62462 0.0
C1498 C 0.72036 0.10028 0.62676 0.0
H1499 H 0.73322 0.98958 0.68081 0.0
H1500 H 0.71984 0.03152 0.67154 0.0
H1501 H 0.71315 0.98384 0.66212 0.0
H1502 H 0.69663 0.0142 0.63086 0.0
H1503 H 0.6686 0.05728 0.62769 0.0
H1504 H 0.29563 0.16627 0.94591 0.0
H1505 H 0.26647 0.18251 0.96698 0.0
H1506 H 0.301 0.20353 0.02585 0.0
H1507 H 0.33034 0.18679 1.00476 0.0
H1508 H 0.24929 0.16298 0.0138 0.0
H1509 H 0.27862 0.31139 0.99948 0.0
H1510 H 0.28679 0.27006 0.98358 0.0
H1511 H 0.29432 0.27596 0.0121 0.0
C1512 C 0.29686 0.17271 0.96362 0.0
C1513 C 0.31507 0.17558 0.97381 0.0
C1514 C 0.28025 0.18192 0.9756 0.0
C1515 C 0.28173 0.19456 0.99778 0.0
C1516 C 0.2997 0.19373 0.00868 0.0
H1517 H 0.20415 0.33765 0.07385 0.0
H1518 H 0.23193 0.30553 0.0571 0.0
C1519 C 0.31638 0.18403 0.99672 0.0
C1520 C 0.26527 0.21532 1.00772 0.0
H1521 H 0.24818 0.30674 0.01639 0.0
C1522 C 0.24901 0.19437 0.01461 0.0
C1523 C 0.26503 0.25625 0.00832 0.0
C1524 C 0.28203 0.27996 1.00038 0.0
C1525 C 0.23246 0.21348 0.02252 0.0
C1526 C 0.23214 0.25452 0.02284 0.0
C1527 C 0.24847 0.27532 0.01597 0.0
C1528 C 0.21538 0.27656 0.03133 0.0
C1529 C 0.21567 0.18959 0.03082 0.0
C1530 C 0.19702 0.27243 0.02165 0.0
C1531 C 0.18102 0.29071 0.03125 0.0
C1532 C 0.18326 0.31352 0.05057 0.0
C1533 C 0.20192 0.31992 0.05911 0.0
C1534 C 0.21781 0.30152 0.0496 0.0
H1535 H 0.22011 0.15942 0.03482 0.0
H1536 H 0.20913 0.20271 0.04601 0.0
H1537 H 0.20442 0.18824 0.0176 0.0
H1538 H 0.19497 0.2542 1.00709 0.0
H1539 H 0.16684 0.28531 0.02425 0.0
H1540 H 0.331 0.72936 0.0271 0.0
H1541 H 0.30249 0.75161 1.0065 0.0
H1542 H 0.2655 0.70149 0.05685 0.0
H1543 H 0.29378 0.67864 0.07739 0.0
H1544 H 0.25295 0.69042 0.01186 0.0
H1545 H 0.27061 0.84394 0.03139 0.0
H1546 H 0.28944 0.81688 0.01779 0.0
H1547 H 0.28197 0.80371 0.04556 0.0
C1548 C 0.31679 0.72245 0.03357 0.0
C1549 C 0.3146 0.70278 0.05402 0.0
C1550 C 0.30057 0.73544 0.02189 0.0
C1551 C 0.28203 0.72888 0.03053 0.0
C1552 C 0.27976 0.7071 0.05012 0.0
H1553 H 0.16555 0.79381 0.99169 0.0
H1554 H 0.19379 0.77245 0.01309 0.0
C1555 C 0.29592 0.69415 0.06181 0.0
C1556 C 0.26497 0.74622 0.0198 0.0
H1557 H 0.24348 0.83288 1.00816 0.0
C1558 C 0.25081 0.72153 0.01105 0.0
C1559 C 0.26231 0.78682 0.01903 0.0
C1560 C 0.27678 0.81448 0.0291 0.0
C1561 C 0.23411 0.73648 1.00104 0.0
C1562 C 0.23147 0.77707 1.00021 0.0
C1563 C 0.2456 0.80177 0.00901 0.0
C1564 C 0.21455 0.79437 0.98916 0.0
C1565 C 0.21964 0.70881 0.99096 0.0
C1566 C 0.21708 0.81541 0.96934 0.0
C1567 C 0.20107 0.82779 0.95718 0.0
C1568 C 0.1823 0.81933 0.96472 0.0
C1569 C 0.17983 0.80055 0.98541 0.0
C1570 C 0.19591 0.78811 0.99755 0.0
H1571 H 0.22571 0.67921 0.98895 0.0
H1572 H 0.20684 0.70686 1.00209 0.0
H1573 H 0.21468 0.71934 0.97435 0.0
H1574 H 0.23142 0.82076 0.96278 0.0
H1575 H 0.20341 0.84266 0.94143 0.0
H1576 H 0.7069 0.68175 0.44787 0.0
H1577 H 0.73419 0.71484 0.46532 0.0
H1578 H 0.695 0.77925 0.50737 0.0
H1579 H 0.66756 0.74612 0.49016 0.0
H1580 H 0.73785 0.79827 0.4635 0.0
H1581 H 0.73771 0.73963 0.55043 0.0
H1582 H 0.72585 0.71517 0.52753 0.0
H1583 H 0.71504 0.75735 0.53984 0.0
C1584 C 0.70411 0.70229 0.4612 0.0
C1585 C 0.68512 0.71147 0.46761 0.0
C1586 C 0.71968 0.72127 0.47103 0.0
C1587 C 0.7165 0.7495 0.48746 0.0
C1588 C 0.69766 0.75726 0.4948 0.0
H1589 H 0.80336 0.86946 0.56388 0.0
H1590 H 0.7725 0.8614 0.54449 0.0
C1591 C 0.68204 0.73817 0.48503 0.0
C1592 C 0.73288 0.77236 0.49584 0.0
H1593 H 0.76076 0.78721 0.5419 0.0
C1594 C 0.74284 0.79617 0.48068 0.0
C1595 C 0.73908 0.7697 0.51827 0.0
C1596 C 0.729 0.74393 0.535 0.0
C1597 C 0.75927 0.81685 0.48732 0.0
C1598 C 0.76592 0.81304 0.50955 0.0
C1599 C 0.75551 0.79028 0.52487 0.0
C1600 C 0.78466 0.82868 0.51696 0.0
C1601 C 0.76943 0.84224 0.47049 0.0
C1602 C 0.80179 0.81485 0.50718 0.0
C1603 C 0.81944 0.81998 0.51808 0.0
C1604 C 0.81995 0.83859 0.53888 0.0
C1605 C 0.80315 0.85541 0.54765 0.0
C1606 C 0.78558 0.85072 0.53665 0.0
H1607 H 0.75934 0.85232 0.45724 0.0
H1608 H 0.77606 0.86788 0.47865 0.0
H1609 H 0.78106 0.82529 0.46226 0.0
H1610 H 0.80132 0.79702 0.49227 0.0
H1611 H 0.83226 0.80615 0.51141 0.0
H1612 H 0.8326 0.29828 0.49723 0.0
H1613 H 0.80371 0.27483 0.51699 0.0
H1614 H 0.76807 0.31213 0.46175 0.0
H1615 H 0.7968 0.33493 0.44195 0.0
H1616 H 0.7644 0.30781 0.52767 0.0
H1617 H 0.76505 0.1901 0.46411 0.0
H1618 H 0.78563 0.22097 0.46917 0.0
H1619 H 0.76553 0.23855 0.45308 0.0
C1620 C 0.81849 0.30297 0.48986 0.0
C1621 C 0.81673 0.31828 0.46821 0.0
C1622 C 0.80208 0.28931 0.501 0.0
C1623 C 0.78396 0.29109 0.49048 0.0
C1624 C 0.78203 0.31008 0.46989 0.0
H1625 H 0.66947 0.20672 0.51681 0.0
H1626 H 0.69935 0.22731 0.49801 0.0
C1627 C 0.79836 0.32336 0.45873 0.0
C1628 C 0.76746 0.26936 0.49959 0.0
H1629 H 0.73818 0.19206 0.4887 0.0
C1630 C 0.7587 0.28239 0.5193 0.0
C1631 C 0.76021 0.23619 0.48849 0.0
C1632 C 0.76965 0.22031 0.46763 0.0
C1633 C 0.74243 0.26355 0.52797 0.0
C1634 C 0.73509 0.23054 0.51677 0.0
C1635 C 0.74394 0.21735 0.49715 0.0
C1636 C 0.71803 0.20987 0.5253 0.0
C1637 C 0.73294 0.27956 0.54877 0.0
C1638 C 0.719 0.19108 0.54605 0.0
C1639 C 0.70209 0.17943 0.55667 0.0
C1640 C 0.68412 0.18593 0.54649 0.0
C1641 C 0.68327 0.20092 0.5247 0.0
C1642 C 0.70025 0.21294 0.51411 0.0
H1643 H 0.73787 0.30947 0.55256 0.0
H1644 H 0.71698 0.27976 0.54695 0.0
H1645 H 0.73664 0.26086 0.56327 0.0
H1646 H 0.73267 0.18806 0.55472 0.0
H1647 H 0.70294 0.16812 0.57358 0.0
H1648 H 0.83388 0.73212 0.98778 0.0
H1649 H 0.80532 0.75386 0.00839 0.0
H1650 H 0.76863 0.69213 0.96221 0.0
H1651 H 0.797 0.67057 0.94139 0.0
H1652 H 0.76011 0.77193 0.96698 0.0
H1653 H 0.7664 0.69689 0.04909 0.0
H1654 H 0.78778 0.72176 0.03991 0.0
H1655 H 0.77913 0.68075 0.02439 0.0
C1656 C 0.81976 0.72241 0.98236 0.0
C1657 C 0.81761 0.69996 0.96291 0.0
C1658 C 0.8035 0.73481 0.99414 0.0
C1659 C 0.78498 0.72446 0.98675 0.0
C1660 C 0.78286 0.7004 0.96805 0.0
H1661 H 0.66844 0.7821 0.0245 0.0
H1662 H 0.69737 0.76295 1.00376 0.0
C1663 C 0.79905 0.68815 0.95623 0.0
C1664 C 0.76775 0.74147 0.99724 0.0
H1665 H 0.74236 0.74547 0.04596 0.0
C1666 C 0.75614 0.76611 0.98423 0.0
C1667 C 0.76282 0.73382 0.01972 0.0
C1668 C 0.77457 0.70662 0.0341 0.0
C1669 C 0.73968 0.78372 0.99326 0.0
C1670 C 0.7347 0.77594 0.01571 0.0
C1671 C 0.74636 0.7514 0.02874 0.0
C1672 C 0.71723 0.79217 0.02608 0.0
C1673 C 0.72793 0.81088 0.97886 0.0
C1674 C 0.71893 0.81535 0.0452 0.0
C1675 C 0.70252 0.82606 0.05713 0.0
C1676 C 0.68417 0.81357 0.05013 0.0
C1677 C 0.6824 0.79224 0.03021 0.0
C1678 C 0.69888 0.78136 0.01833 0.0
H1679 H 0.73628 0.82129 0.96416 0.0
H1680 H 0.71498 0.79539 0.97257 0.0
H1681 H 0.72295 0.83632 0.98867 0.0
H1682 H 0.73302 0.82394 0.05134 0.0
H1683 H 0.70427 0.84286 0.07232 0.0
H1684 H 0.66864 0.31002 1.00151 0.0
H1685 H 0.69725 0.28634 0.02169 0.0
H1686 H 0.73305 0.31693 0.96526 0.0
H1687 H 0.70466 0.34048 0.94527 0.0
H1688 H 0.71653 0.22395 1.00154 0.0
H1689 H 0.7675 0.34417 0.01834 0.0
H1690 H 0.74205 0.35208 0.01341 0.0
H1691 H 0.75824 0.34447 0.99027 0.0
C1692 C 0.68278 0.31352 0.99402 0.0
C1693 C 0.68465 0.32707 0.972 0.0
C1694 C 0.69904 0.2997 1.00541 0.0
C1695 C 0.71721 0.29997 0.99493 0.0
C1696 C 0.71924 0.31707 0.97378 0.0
H1697 H 0.82884 0.19497 0.01466 0.0
H1698 H 0.79948 0.2184 0.99595 0.0
C1699 C 0.70304 0.3305 0.96238 0.0
C1700 C 0.73323 0.27649 1.0039 0.0
H1701 H 0.78087 0.28022 0.01792 0.0
C1702 C 0.73056 0.23624 1.00543 0.0
C1703 C 0.75152 0.29263 0.00851 0.0
C1704 C 0.75499 0.33576 1.00775 0.0
C1705 C 0.74587 0.21153 0.01106 0.0
C1706 C 0.7642 0.22766 0.01546 0.0
C1707 C 0.76683 0.26793 0.01411 0.0
C1708 C 0.78051 0.20401 0.02354 0.0
C1709 C 0.74242 0.1684 0.01186 0.0
C1710 C 0.77926 0.18645 0.04464 0.0
C1711 C 0.7959 0.17308 0.0552 0.0
C1712 C 0.81393 0.17706 0.04477 0.0
C1713 C 0.81498 0.19098 0.02276 0.0
C1714 C 0.79829 0.20469 0.01222 0.0
H1715 H 0.72954 0.16001 1.00188 0.0
H1716 H 0.75516 0.15219 1.00551 0.0
H1717 H 0.73987 0.1595 0.02946 0.0
H1718 H 0.76575 0.18625 0.05379 0.0
H1719 H 0.79491 0.16285 0.07233 0.0
H1720 H 0.33231 0.30933 0.5185 0.0
H1721 H 0.30355 0.28801 0.49778 0.0
H1722 H 0.2679 0.31576 0.55486 0.0
H1723 H 0.29643 0.33698 0.57539 0.0
H1724 H 0.28344 0.22493 0.51649 0.0
H1725 H 0.23412 0.34923 0.50224 0.0
H1726 H 0.25965 0.35528 0.50743 0.0
H1727 H 0.24331 0.34675 0.53031 0.0
C1728 C 0.31818 0.31264 0.52608 0.0
C1729 C 0.31638 0.32473 0.54838 0.0
C1730 C 0.30184 0.30019 0.51438 0.0
C1731 C 0.28367 0.3004 0.52484 0.0
C1732 C 0.28174 0.31596 0.54638 0.0
H1733 H 0.17108 0.20331 0.49903 0.0
H1734 H 0.20012 0.22352 0.51954 0.0
C1735 C 0.29801 0.32802 0.55809 0.0
C1736 C 0.26744 0.27852 0.51519 0.0
H1737 H 0.22009 0.28612 0.50038 0.0
C1738 C 0.26963 0.2383 0.51269 0.0
C1739 C 0.24942 0.29606 0.51074 0.0
C1740 C 0.24649 0.33926 0.51262 0.0
C1741 C 0.25411 0.21497 0.50609 0.0
C1742 C 0.23608 0.23251 0.50171 0.0
C1743 C 0.2339 0.27273 0.50416 0.0
C1744 C 0.21973 0.21063 0.4923 0.0
C1745 C 0.25703 0.17177 0.50418 0.0
C1746 C 0.22142 0.19503 0.47075 0.0
C1747 C 0.20498 0.18358 0.45915 0.0
C1748 C 0.18669 0.18753 0.46899 0.0
C1749 C 0.18513 0.19948 0.49134 0.0
C1750 C 0.20163 0.21129 0.50293 0.0
H1751 H 0.26951 0.16181 0.5144 0.0
H1752 H 0.24392 0.15577 0.50955 0.0
H1753 H 0.26003 0.16427 0.48646 0.0
H1754 H 0.23519 0.1949 0.46214 0.0
H1755 H 0.20637 0.17471 0.44181 0.0
H1756 H 0.32826 0.80758 0.50183 0.0
H1757 H 0.29767 0.78673 0.51869 0.0
H1758 H 0.26634 0.83827 0.46378 0.0
H1759 H 0.29683 0.85863 0.44681 0.0
H1760 H 0.25759 0.82159 0.52788 0.0
H1761 H 0.26305 0.71522 0.45798 0.0
H1762 H 0.28334 0.74396 0.46714 0.0
H1763 H 0.26458 0.76564 0.45058 0.0
C1764 C 0.31477 0.81633 0.49412 0.0
C1765 C 0.31467 0.83463 0.47318 0.0
C1766 C 0.29737 0.80416 0.5036 0.0
C1767 C 0.27995 0.81045 0.49214 0.0
C1768 C 0.27974 0.83302 0.47267 0.0
H1769 H 0.16591 0.71657 0.51379 0.0
H1770 H 0.1945 0.74218 0.49448 0.0
C1771 C 0.29708 0.84488 0.46313 0.0
C1772 C 0.26277 0.78789 0.49822 0.0
H1773 H 0.23602 0.7098 0.48179 0.0
C1774 C 0.25279 0.79728 0.51782 0.0
C1775 C 0.25676 0.75608 0.48496 0.0
C1776 C 0.26752 0.74428 0.46405 0.0
C1777 C 0.23673 0.7756 0.52453 0.0
C1778 C 0.23087 0.74355 0.51142 0.0
C1779 C 0.24069 0.73441 0.49169 0.0
C1780 C 0.21475 0.71894 0.5186 0.0
C1781 C 0.22613 0.78695 0.54563 0.0
C1782 C 0.21707 0.69528 0.53745 0.0
C1783 C 0.20089 0.68074 0.54837 0.0
C1784 C 0.18236 0.68942 0.54034 0.0
C1785 C 0.18016 0.70902 0.51993 0.0
C1786 C 0.1964 0.72391 0.50907 0.0
H1787 H 0.23027 0.81633 0.5515 0.0
H1788 H 0.21026 0.78626 0.54289 0.0
H1789 H 0.2296 0.7659 0.5591 0.0
H1790 H 0.23121 0.69114 0.54487 0.0
H1791 H 0.20276 0.66604 0.56428 0.0
H1792 H 0.06834 0.34407 0.12814 0.0
H1793 H 0.03722 0.31073 0.13067 0.0
H1794 H 0.03913 0.28701 0.05984 0.0
H1795 H 0.07025 0.31992 0.05713 0.0
H1796 H 0.0022 0.32478 0.10881 0.0
H1797 H 0.03076 0.17932 0.0875 0.0
H1798 H 0.04621 0.21918 0.0954 0.0
H1799 H 0.03693 0.21586 0.06733 0.0
C1800 C 0.06207 0.3321 0.11304 0.0
C1801 C 0.07185 0.3347 0.09242 0.0
C1802 C 0.04432 0.31289 0.11455 0.0
C1803 C 0.03608 0.29564 0.09555 0.0
C1804 C 0.04545 0.29931 0.07483 0.0
H1805 H 0.92185 0.23111 0.06206 0.0
H1806 H 0.95399 0.25785 0.06703 0.0
C1807 C 0.06316 0.31855 0.07327 0.0
C1808 C 0.01752 0.27431 0.09723 0.0
H1809 H 0.99636 0.18687 0.08627 0.0
C1810 C 0.00097 0.29452 0.10414 0.0
C1811 C 0.01597 0.23461 0.09151 0.0
C1812 C 0.03345 0.21081 0.08523 0.0
C1813 C 0.98276 0.27664 0.10438 0.0
C1814 C 0.98105 0.23765 0.09734 0.0
C1815 C 0.99771 0.21684 0.0915 0.0
C1816 C 0.96188 0.21938 0.09409 0.0
C1817 C 0.96542 0.29981 0.1118 0.0
C1818 C 0.95584 0.18782 0.10721 0.0
C1819 C 0.93728 0.17215 0.10441 0.0
C1820 C 0.92459 0.18766 0.08829 0.0
C1821 C 0.93109 0.21842 0.07474 0.0
C1822 C 0.94948 0.23399 0.0776 0.0
H1823 H 0.96968 0.32498 0.12229 0.0
H1824 H 0.95774 0.31103 0.09682 0.0
H1825 H 0.95519 0.2815 0.12144 0.0
H1826 H 0.96531 0.17596 0.11993 0.0
H1827 H 0.93274 0.14855 0.11513 0.0
H1828 H 0.42958 0.68565 0.06063 0.0
H1829 H 0.46182 0.71407 0.06215 0.0
H1830 H 0.46066 0.70909 0.13426 0.0
H1831 H 0.42825 0.68072 0.13298 0.0
H1832 H 0.47071 0.7829 0.11596 0.0
H1833 H 0.51417 0.66433 0.0785 0.0
H1834 H 0.4932 0.67763 0.0625 0.0
H1835 H 0.49029 0.65667 0.08984 0.0
C1836 C 0.43627 0.68997 0.07684 0.0
C1837 C 0.42633 0.68072 0.09669 0.0
C1838 C 0.45474 0.70613 0.07766 0.0
C1839 C 0.46369 0.71334 0.09831 0.0
C1840 C 0.45402 0.70354 0.11816 0.0
H1841 H 0.57139 0.8329 0.13103 0.0
H1842 H 0.53957 0.80248 0.1331 0.0
C1843 C 0.43554 0.68716 0.11737 0.0
C1844 C 0.48264 0.73326 0.09906 0.0
H1845 H 0.52945 0.72577 0.08167 0.0
C1846 C 0.48363 0.77032 0.10867 0.0
C1847 C 0.4994 0.7168 0.08945 0.0
C1848 C 0.49934 0.67652 0.07965 0.0
C1849 C 0.50082 0.79192 0.10829 0.0
C1850 C 0.51753 0.77566 0.09839 0.0
C1851 C 0.51659 0.73831 0.08913 0.0
C1852 C 0.53615 0.79685 0.09722 0.0
C1853 C 0.50076 0.83241 0.1178 0.0
C1854 C 0.54486 0.80371 0.07638 0.0
C1855 C 0.56309 0.82088 0.07513 0.0
C1856 C 0.57305 0.83149 0.09473 0.0
C1857 C 0.56406 0.82552 0.11559 0.0
C1858 C 0.54582 0.80818 0.11681 0.0
H1859 H 0.48587 0.84417 0.11931 0.0
H1860 H 0.50727 0.83188 0.13478 0.0
H1861 H 0.50941 0.85236 0.10721 0.0
H1862 H 0.53766 0.79512 0.06106 0.0
H1863 H 0.56959 0.82488 0.0588 0.0
H1864 H 0.43162 0.85961 0.40037 0.0
H1865 H 0.46447 0.83424 0.39473 0.0
H1866 H 0.4542 0.74676 0.44485 0.0
H1867 H 0.42167 0.77136 0.45051 0.0
H1868 H 0.49503 0.82482 0.42632 0.0
H1869 H 0.47267 0.68394 0.39045 0.0
H1870 H 0.4565 0.72492 0.39237 0.0
H1871 H 0.46078 0.69471 0.41642 0.0
C1872 C 0.4364 0.83506 0.41022 0.0
C1873 C 0.42394 0.81751 0.42583 0.0
C1874 C 0.45514 0.82056 0.40694 0.0
C1875 C 0.4616 0.78813 0.41905 0.0
C1876 C 0.44935 0.77123 0.43495 0.0
H1877 H 0.57215 0.70153 0.45719 0.0
H1878 H 0.54018 0.73071 0.45356 0.0
C1879 C 0.43075 0.7856 0.43826 0.0
C1880 C 0.48126 0.77203 0.41573 0.0
H1881 H 0.50511 0.6875 0.40457 0.0
C1882 C 0.49727 0.79499 0.42125 0.0
C1883 C 0.48419 0.73324 0.40881 0.0
C1884 C 0.46763 0.70787 0.40145 0.0
C1885 C 0.51606 0.77953 0.42119 0.0
C1886 C 0.51882 0.73999 0.41576 0.0
C1887 C 0.50293 0.71765 0.40905 0.0
C1888 C 0.53795 0.72094 0.41787 0.0
C1889 C 0.53278 0.80557 0.42716 0.0
C1890 C 0.54699 0.70431 0.39916 0.0
C1891 C 0.56528 0.68726 0.40119 0.0
C1892 C 0.57476 0.68624 0.42204 0.0
C1893 C 0.56532 0.70179 0.44087 0.0
C1894 C 0.5471 0.71886 0.4388 0.0
H1895 H 0.52912 0.83659 0.42454 0.0
H1896 H 0.53642 0.80156 0.44511 0.0
H1897 H 0.54577 0.79839 0.41708 0.0
H1898 H 0.54008 0.70529 0.38289 0.0
H1899 H 0.57214 0.67567 0.38633 0.0
H1900 H 0.07251 0.16475 0.39019 0.0
H1901 H 0.04013 0.19152 0.38317 0.0
H1902 H 0.04529 0.26293 0.44208 0.0
H1903 H 0.07743 0.23714 0.44898 0.0
H1904 H 0.00732 0.19082 0.40819 0.0
H1905 H 0.03012 0.34245 0.39567 0.0
H1906 H 0.04707 0.30266 0.39572 0.0
H1907 H 0.03909 0.32385 0.4217 0.0
C1908 C 0.06667 0.18601 0.40169 0.0
C1909 C 0.07763 0.1989 0.42007 0.0
C1910 C 0.04823 0.20145 0.39758 0.0
C1911 C 0.0405 0.23009 0.41174 0.0
C1912 C 0.05117 0.24189 0.43049 0.0
H1913 H 0.92726 0.28894 0.44945 0.0
H1914 H 0.9598 0.26492 0.44315 0.0
C1915 C 0.06953 0.22674 0.43452 0.0
C1916 C 0.021 0.24682 0.40774 0.0
H1917 H 0.99664 0.33301 0.40618 0.0
C1918 C 0.00502 0.22188 0.40734 0.0
C1919 C 0.01793 0.28733 0.40609 0.0
C1920 C 0.0345 0.31556 0.40456 0.0
C1921 C 0.98607 0.23645 0.40695 0.0
C1922 C 0.98301 0.27703 0.40745 0.0
C1923 C 0.99897 0.30193 0.40621 0.0
C1924 C 0.96352 0.29384 0.41131 0.0
C1925 C 0.96947 0.20815 0.40646 0.0
C1926 C 0.95509 0.31989 0.39605 0.0
C1927 C 0.93636 0.33427 0.39975 0.0
C1928 C 0.92586 0.32285 0.41881 0.0
C1929 C 0.93478 0.29806 0.43444 0.0
C1930 C 0.95338 0.28397 0.43079 0.0
H1931 H 0.97382 0.18032 0.39856 0.0
H1932 H 0.96487 0.20177 0.42387 0.0
H1933 H 0.95691 0.22014 0.39718 0.0
H1934 H 0.96278 0.3283 0.38103 0.0
H1935 H 0.92988 0.35319 0.38736 0.0
H1936 H 0.93214 0.68221 0.95387 0.0
H1937 H 0.96377 0.71306 0.95124 0.0
H1938 H 0.96124 0.70615 0.87923 0.0
H1939 H 0.92942 0.6754 0.88163 0.0
H1940 H 0.99892 0.68819 0.93001 0.0
H1941 H 0.96893 0.82331 0.89273 0.0
H1942 H 0.95389 0.78762 0.90629 0.0
H1943 H 0.96305 0.77883 0.87864 0.0
C1944 C 0.93836 0.68676 0.93744 0.0
C1945 C 0.92818 0.67643 0.91795 0.0
C1946 C 0.95645 0.70445 0.93599 0.0
C1947 C 0.96467 0.71246 0.91505 0.0
C1948 C 0.95498 0.70077 0.89555 0.0
H1949 H 0.0704 0.83928 0.88275 0.0
H1950 H 0.03941 0.80536 0.88049 0.0
C1951 C 0.93687 0.68289 0.89697 0.0
C1952 C 0.98314 0.73405 0.91381 0.0
H1953 H 0.0026 0.82109 0.89856 0.0
C1954 C 0.99976 0.71718 0.92306 0.0
C1955 C 0.98416 0.77185 0.9047 0.0
C1956 C 0.96657 0.79175 0.89515 0.0
C1957 C 0.01742 0.73713 0.9235 0.0
C1958 C 0.01834 0.77532 0.91491 0.0
C1959 C 0.00181 0.7919 0.90522 0.0
C1960 C 0.03626 0.79868 0.91632 0.0
C1961 C 0.03497 0.717 0.93301 0.0
C1962 C 0.04437 0.80749 0.93723 0.0
C1963 C 0.06202 0.82689 0.93861 0.0
C1964 C 0.07188 0.83817 0.91906 0.0
C1965 C 0.0632 0.8311 0.89814 0.0
C1966 C 0.04553 0.81158 0.8968 0.0
H1967 H 0.03321 0.68501 0.93304 0.0
H1968 H 0.04816 0.72441 0.92334 0.0
H1969 H 0.03715 0.72647 0.95058 0.0
H1970 H 0.03722 0.79862 0.95253 0.0
H1971 H 0.06821 0.83199 0.955 0.0
H1972 H 0.56465 0.37144 0.90682 0.0
H1973 H 0.53144 0.34621 0.90322 0.0
H1974 H 0.54951 0.23819 0.93284 0.0
H1975 H 0.58215 0.26278 0.93672 0.0
H1976 H 0.51612 0.2737 0.88219 0.0
H1977 H 0.50599 0.27966 0.97429 0.0
H1978 H 0.52501 0.30572 0.96015 0.0
H1979 H 0.52753 0.25476 0.96568 0.0
C1980 C 0.56149 0.34232 0.91248 0.0
C1981 C 0.57596 0.31952 0.92252 0.0
C1982 C 0.54258 0.32791 0.91033 0.0
C1983 C 0.53802 0.29054 0.9181 0.0
C1984 C 0.55265 0.2673 0.92712 0.0
H1985 H 0.43477 0.14449 0.90586 0.0
H1986 H 0.46739 0.17182 0.90123 0.0
C1987 C 0.57132 0.28161 0.92939 0.0
C1988 C 0.51789 0.2759 0.91815 0.0
H1989 H 0.48277 0.24398 0.95367 0.0
C1990 C 0.50869 0.2675 0.89776 0.0
C1991 C 0.50827 0.26792 0.93851 0.0
C1992 C 0.5171 0.27777 0.96092 0.0
C1993 C 0.49016 0.25066 0.89728 0.0
C1994 C 0.48083 0.24157 0.9177 0.0
C1995 C 0.49001 0.25052 0.93801 0.0
C1996 C 0.461 0.22525 0.91876 0.0
C1997 C 0.48061 0.24329 0.87499 0.0
C1998 C 0.44671 0.24589 0.9303 0.0
C1999 C 0.42838 0.23023 0.93326 0.0
C2000 C 0.42374 0.19336 0.92473 0.0
C2001 C 0.43791 0.17284 0.9127 0.0
C2002 C 0.45648 0.18859 0.90988 0.0
H2003 H 0.48772 0.25963 0.86125 0.0
H2004 H 0.48155 0.21195 0.87101 0.0
H2005 H 0.4651 0.25144 0.87554 0.0
H2006 H 0.44982 0.2742 0.93727 0.0
H2007 H 0.41782 0.2473 0.94232 0.0
H2008 H 0.57148 0.15925 0.62802 0.0
H2009 H 0.53911 0.186 0.6352 0.0
H2010 H 0.54113 0.24677 0.57214 0.0
H2011 H 0.57321 0.22089 0.56502 0.0
H2012 H 0.53033 0.29397 0.60776 0.0
H2013 H 0.48737 0.15772 0.60567 0.0
H2014 H 0.5075 0.15913 0.62469 0.0
H2015 H 0.51174 0.1602 0.59506 0.0
C2016 C 0.56485 0.17777 0.61554 0.0
C2017 C 0.57493 0.18784 0.59593 0.0
C2018 C 0.54638 0.19311 0.61969 0.0
C2019 C 0.5377 0.2184 0.60418 0.0
C2020 C 0.54758 0.22756 0.58441 0.0
H2021 H 0.42628 0.28725 0.5674 0.0
H2022 H 0.45849 0.26158 0.57382 0.0
C2023 C 0.56593 0.21253 0.58033 0.0
C2024 C 0.5185 0.23632 0.60828 0.0
H2025 H 0.47028 0.216 0.60985 0.0
C2026 C 0.51718 0.27697 0.60856 0.0
C2027 C 0.50141 0.21404 0.60928 0.0
C2028 C 0.50192 0.17036 0.60853 0.0
C2029 C 0.49921 0.29595 0.60869 0.0
C2030 C 0.4821 0.27365 0.60889 0.0
C2031 C 0.48344 0.23303 0.60975 0.0
C2032 C 0.46278 0.29136 0.60527 0.0
C2033 C 0.49865 0.33958 0.60726 0.0
C2034 C 0.45452 0.31736 0.62068 0.0
C2035 C 0.43595 0.33258 0.61695 0.0
C2036 C 0.42536 0.32169 0.59785 0.0
C2037 C 0.43394 0.29625 0.58234 0.0
C2038 C 0.45237 0.28134 0.58601 0.0
H2039 H 0.5131 0.35211 0.60368 0.0
H2040 H 0.48844 0.34908 0.59399 0.0
H2041 H 0.49349 0.35154 0.62343 0.0
H2042 H 0.46222 0.32517 0.6358 0.0
H2043 H 0.42967 0.35173 0.62933 0.0
H2044 H 0.07423 0.73284 0.56696 0.0
H2045 H 0.04231 0.75802 0.57551 0.0
H2046 H 0.04006 0.68763 0.63512 0.0
H2047 H 0.07231 0.66155 0.62649 0.0
H2048 H 0.00605 0.68615 0.61113 0.0
H2049 H 0.02904 0.83771 0.623 0.0
H2050 H 0.03768 0.81921 0.5968 0.0
H2051 H 0.04599 0.79788 0.62262 0.0
C2052 C 0.06702 0.7225 0.58191 0.0
C2053 C 0.0759 0.69523 0.59611 0.0
C2054 C 0.0488 0.73729 0.58688 0.0
C2055 C 0.03905 0.72563 0.6063 0.0
C2056 C 0.04749 0.69744 0.62021 0.0
H2057 H 0.92911 0.85252 0.62685 0.0
H2058 H 0.96125 0.82591 0.63561 0.0
C2059 C 0.06583 0.68239 0.61518 0.0
C2060 C 0.01971 0.74217 0.61119 0.0
H2061 H 0.99548 0.8284 0.6122 0.0
C2062 C 0.00376 0.71721 0.61188 0.0
C2063 C 0.0167 0.78268 0.61275 0.0
C2064 C 0.03331 0.81085 0.61401 0.0
C2065 C 0.98483 0.73183 0.61214 0.0
C2066 C 0.98182 0.7724 0.61119 0.0
C2067 C 0.99777 0.79731 0.61249 0.0
C2068 C 0.96254 0.78916 0.60629 0.0
C2069 C 0.96821 0.7036 0.61274 0.0
C2070 C 0.95298 0.77838 0.58657 0.0
C2071 C 0.93483 0.79344 0.58154 0.0
C2072 C 0.92582 0.82015 0.59597 0.0
C2073 C 0.93569 0.83211 0.61537 0.0
C2074 C 0.95396 0.81677 0.62046 0.0
H2075 H 0.9724 0.67634 0.62138 0.0
H2076 H 0.95544 0.71616 0.62134 0.0
H2077 H 0.96404 0.69602 0.59534 0.0
H2078 H 0.95958 0.75816 0.575 0.0
H2079 H 0.92779 0.78381 0.56633 0.0
loop_
_geom_bond_atom_site_label_1
_geom_bond_atom_site_label_2
_geom_bond_distance
_geom_bond_site_symmetry_2
_ccdc_geom_bond_type
Fe0 O2 1.918 . S
Fe0 O5 1.997 . S
Fe0 O6 2.002 . S
Fe0 O11 1.976 . S
Fe0 O14 1.996 . S
Fe1 O2 1.918 . S
Fe1 O9 1.997 . S
Fe1 O12 1.996 . S
Fe1 O16 1.976 . S
Fe1 O19 2.002 . S
O2 Fe0 1.918 . S
O2 Fe1 1.918 . S
O2 Fe3 1.918 . S
Fe3 O2 1.918 . S
Fe3 O4 2.002 . S
Fe3 O13 1.976 . S
Fe3 O17 1.996 . S
Fe3 O20 1.997 . S
O4 Fe3 2.002 . S
O4 C21 1.295 . S
O5 Fe0 1.997 . S
O5 C21 1.235 . S
O6 Fe0 2.002 . S
O6 C7 1.295 . S
C7 O6 1.295 . S
C7 O9 1.235 . S
C8 O13 1.287 . S
C8 O14 1.255 . S
O9 Fe1 1.997 . S
O9 C7 1.235 . S
C10 O16 1.287 . S
C10 O17 1.255 . S
O11 Fe0 1.976 . S
O11 C18 1.287 . S
O12 Fe1 1.996 . S
O12 C18 1.255 . S
O13 Fe3 1.976 . S
O13 C8 1.287 . S
O14 Fe0 1.996 . S
O14 C8 1.255 . S
C15 O19 1.295 . S
C15 O20 1.235 . S
O16 Fe1 1.976 . S
O16 C10 1.287 . S
O17 Fe3 1.996 . S
O17 C10 1.255 . S
C18 O11 1.287 . S
C18 O12 1.255 . S
O19 Fe1 2.002 . S
O19 C15 1.295 . S
O20 Fe3 1.997 . S
O20 C15 1.235 . S
C21 O4 1.295 . S
C21 O5 1.235 . S
Fe22 O24 1.918 . S
Fe22 O27 1.997 . S
Fe22 O28 2.002 . S
Fe22 O33 1.976 . S
Fe22 O36 1.996 . S
Fe23 O24 1.918 . S
Fe23 O31 1.997 . S
Fe23 O34 1.996 . S
Fe23 O38 1.976 . S
Fe23 O41 2.002 . S
O24 Fe22 1.918 . S
O24 Fe23 1.918 . S
O24 Fe25 1.918 . S
Fe25 O24 1.918 . S
Fe25 O26 2.002 . S
Fe25 O35 1.976 . S
Fe25 O39 1.996 . S
Fe25 O42 1.997 . S
O26 Fe25 2.002 . S
O26 C43 1.295 . S
O27 Fe22 1.997 . S
O27 C43 1.235 . S
O28 Fe22 2.002 . S
O28 C29 1.295 . S
C29 O28 1.295 . S
C29 O31 1.235 . S
C30 O35 1.287 . S
C30 O36 1.255 . S
O31 Fe23 1.997 . S
O31 C29 1.235 . S
C32 O38 1.287 . S
C32 O39 1.255 . S
O33 Fe22 1.976 . S
O33 C40 1.287 . S
O34 Fe23 1.996 . S
O34 C40 1.255 . S
O35 Fe25 1.976 . S
O35 C30 1.287 . S
O36 Fe22 1.996 . S
O36 C30 1.255 . S
C37 O41 1.295 . S
C37 O42 1.235 . S
O38 Fe23 1.976 . S
O38 C32 1.287 . S
O39 Fe25 1.996 . S
O39 C32 1.255 . S
C40 O33 1.287 . S
C40 O34 1.255 . S
O41 Fe23 2.002 . S
O41 C37 1.295 . S
O42 Fe25 1.997 . S
O42 C37 1.235 . S
C43 O26 1.295 . S
C43 O27 1.235 . S
Fe44 O46 1.918 . S
Fe44 O49 1.997 . S
Fe44 O50 2.002 . S
Fe44 O55 1.976 . S
Fe44 O58 1.996 . S
Fe45 O46 1.918 . S
Fe45 O53 1.997 . S
Fe45 O56 1.996 . S
Fe45 O60 1.976 . S
Fe45 O63 2.002 . S
O46 Fe44 1.918 . S
O46 Fe45 1.918 . S
O46 Fe47 1.918 . S
Fe47 O46 1.918 . S
Fe47 O48 2.002 . S
Fe47 O57 1.976 . S
Fe47 O61 1.996 . S
Fe47 O64 1.997 . S
O48 Fe47 2.002 . S
O48 C65 1.295 . S
O49 Fe44 1.997 . S
O49 C65 1.235 . S
O50 Fe44 2.002 . S
O50 C51 1.295 . S
C51 O50 1.295 . S
C51 O53 1.235 . S
C52 O57 1.287 . S
C52 O58 1.255 . S
O53 Fe45 1.997 . S
O53 C51 1.235 . S
C54 O60 1.287 . S
C54 O61 1.255 . S
O55 Fe44 1.976 . S
O55 C62 1.287 . S
O56 Fe45 1.996 . S
O56 C62 1.255 . S
O57 Fe47 1.976 . S
O57 C52 1.287 . S
O58 Fe44 1.996 . S
O58 C52 1.255 . S
C59 O63 1.295 . S
C59 O64 1.235 . S
O60 Fe45 1.976 . S
O60 C54 1.287 . S
O61 Fe47 1.996 . S
O61 C54 1.255 . S
C62 O55 1.287 . S
C62 O56 1.255 . S
O63 Fe45 2.002 . S
O63 C59 1.295 . S
O64 Fe47 1.997 . S
O64 C59 1.235 . S
C65 O48 1.295 . S
C65 O49 1.235 . S
Fe66 O68 1.918 . S
Fe66 O71 1.997 . S
Fe66 O72 2.002 . S
Fe66 O77 1.976 . S
Fe66 O80 1.996 . S
Fe67 O68 1.918 . S
Fe67 O75 1.997 . S
Fe67 O78 1.996 . S
Fe67 O82 1.976 . S
Fe67 O85 2.002 . S
O68 Fe66 1.918 . S
O68 Fe67 1.918 . S
O68 Fe69 1.918 . S
Fe69 O68 1.918 . S
Fe69 O70 2.002 . S
Fe69 O79 1.976 . S
Fe69 O83 1.996 . S
Fe69 O86 1.997 . S
O70 Fe69 2.002 . S
O70 C87 1.295 . S
O71 Fe66 1.997 . S
O71 C87 1.235 . S
O72 Fe66 2.002 . S
O72 C73 1.295 . S
C73 O72 1.295 . S
C73 O75 1.235 . S
C74 O79 1.287 . S
C74 O80 1.255 . S
O75 Fe67 1.997 . S
O75 C73 1.235 . S
C76 O82 1.287 . S
C76 O83 1.255 . S
O77 Fe66 1.976 . S
O77 C84 1.287 . S
O78 Fe67 1.996 . S
O78 C84 1.255 . S
O79 Fe69 1.976 . S
O79 C74 1.287 . S
O80 Fe66 1.996 . S
O80 C74 1.255 . S
C81 O85 1.295 . S
C81 O86 1.235 . S
O82 Fe67 1.976 . S
O82 C76 1.287 . S
O83 Fe69 1.996 . S
O83 C76 1.255 . S
C84 O77 1.287 . S
C84 O78 1.255 . S
O85 Fe67 2.002 . S
O85 C81 1.295 . S
O86 Fe69 1.997 . S
O86 C81 1.235 . S
C87 O70 1.295 . S
C87 O71 1.235 . S
Fe88 O90 1.918 . S
Fe88 O93 1.997 . S
Fe88 O94 2.002 . S
Fe88 O99 1.976 . S
Fe88 O102 1.996 . S
Fe89 O90 1.918 . S
Fe89 O97 1.997 . S
Fe89 O100 1.996 . S
Fe89 O104 1.976 . S
Fe89 O107 2.002 . S
O90 Fe88 1.918 . S
O90 Fe89 1.918 . S
O90 Fe91 1.918 . S
Fe91 O90 1.918 . S
Fe91 O92 2.002 . S
Fe91 O101 1.976 . S
Fe91 O105 1.996 . S
Fe91 O108 1.997 . S
O92 Fe91 2.002 . S
O92 C109 1.295 . S
O93 Fe88 1.997 . S
O93 C109 1.235 . S
O94 Fe88 2.002 . S
O94 C95 1.295 . S
C95 O94 1.295 . S
C95 O97 1.235 . S
C96 O101 1.287 . S
C96 O102 1.255 . S
O97 Fe89 1.997 . S
O97 C95 1.235 . S
C98 O104 1.287 . S
C98 O105 1.255 . S
O99 Fe88 1.976 . S
O99 C106 1.287 . S
O100 Fe89 1.996 . S
O100 C106 1.255 . S
O101 Fe91 1.976 . S
O101 C96 1.287 . S
O102 Fe88 1.996 . S
O102 C96 1.255 . S
C103 O107 1.295 . S
C103 O108 1.235 . S
O104 Fe89 1.976 . S
O104 C98 1.287 . S
O105 Fe91 1.996 . S
O105 C98 1.255 . S
C106 O99 1.287 . S
C106 O100 1.255 . S
O107 Fe89 2.002 . S
O107 C103 1.295 . S
O108 Fe91 1.997 . S
O108 C103 1.235 . S
C109 O92 1.295 . S
C109 O93 1.235 . S
Fe110 O112 1.918 . S
Fe110 O115 1.997 . S
Fe110 O116 2.002 . S
Fe110 O121 1.976 . S
Fe110 O124 1.996 . S
Fe111 O112 1.918 . S
Fe111 O119 1.997 . S
Fe111 O122 1.996 . S
Fe111 O126 1.976 . S
Fe111 O129 2.002 . S
O112 Fe110 1.918 . S
O112 Fe111 1.918 . S
O112 Fe113 1.918 . S
Fe113 O112 1.918 . S
Fe113 O114 2.002 . S
Fe113 O123 1.976 . S
Fe113 O127 1.996 . S
Fe113 O130 1.997 . S
O114 Fe113 2.002 . S
O114 C131 1.295 . S
O115 Fe110 1.997 . S
O115 C131 1.235 . S
O116 Fe110 2.002 . S
O116 C117 1.295 . S
C117 O116 1.295 . S
C117 O119 1.235 . S
C118 O123 1.287 . S
C118 O124 1.255 . S
O119 Fe111 1.997 . S
O119 C117 1.235 . S
C120 O126 1.287 . S
C120 O127 1.255 . S
O121 Fe110 1.976 . S
O121 C128 1.287 . S
O122 Fe111 1.996 . S
O122 C128 1.255 . S
O123 Fe113 1.976 . S
O123 C118 1.287 . S
O124 Fe110 1.996 . S
O124 C118 1.255 . S
C125 O129 1.295 . S
C125 O130 1.235 . S
O126 Fe111 1.976 . S
O126 C120 1.287 . S
O127 Fe113 1.996 . S
O127 C120 1.255 . S
C128 O121 1.287 . S
C128 O122 1.255 . S
O129 Fe111 2.002 . S
O129 C125 1.295 . S
O130 Fe113 1.997 . S
O130 C125 1.235 . S
C131 O114 1.295 . S
C131 O115 1.235 . S
Fe132 O134 1.918 . S
Fe132 O137 1.997 . S
Fe132 O138 2.002 . S
Fe132 O143 1.976 . S
Fe132 O146 1.996 . S
Fe133 O134 1.918 . S
Fe133 O141 1.997 . S
Fe133 O144 1.996 . S
Fe133 O148 1.976 . S
Fe133 O151 2.002 . S
O134 Fe132 1.918 . S
O134 Fe133 1.918 . S
O134 Fe135 1.918 . S
Fe135 O134 1.918 . S
Fe135 O136 2.002 . S
Fe135 O145 1.976 . S
Fe135 O149 1.996 . S
Fe135 O152 1.997 . S
O136 Fe135 2.002 . S
O136 C153 1.295 . S
O137 Fe132 1.997 . S
O137 C153 1.235 . S
O138 Fe132 2.002 . S
O138 C139 1.295 . S
C139 O138 1.295 . S
C139 O141 1.235 . S
C140 O145 1.287 . S
C140 O146 1.255 . S
O141 Fe133 1.997 . S
O141 C139 1.235 . S
C142 O148 1.287 . S
C142 O149 1.255 . S
O143 Fe132 1.976 . S
O143 C150 1.287 . S
O144 Fe133 1.996 . S
O144 C150 1.255 . S
O145 Fe135 1.976 . S
O145 C140 1.287 . S
O146 Fe132 1.996 . S
O146 C140 1.255 . S
C147 O151 1.295 . S
C147 O152 1.235 . S
O148 Fe133 1.976 . S
O148 C142 1.287 . S
O149 Fe135 1.996 . S
O149 C142 1.255 . S
C150 O143 1.287 . S
C150 O144 1.255 . S
O151 Fe133 2.002 . S
O151 C147 1.295 . S
O152 Fe135 1.997 . S
O152 C147 1.235 . S
C153 O136 1.295 . S
C153 O137 1.235 . S
Fe154 O156 1.918 . S
Fe154 O159 1.997 . S
Fe154 O160 2.002 . S
Fe154 O165 1.976 . S
Fe154 O168 1.996 . S
Fe155 O156 1.918 . S
Fe155 O163 1.997 . S
Fe155 O166 1.996 . S
Fe155 O170 1.976 . S
Fe155 O173 2.002 . S
O156 Fe154 1.918 . S
O156 Fe155 1.918 . S
O156 Fe157 1.918 . S
Fe157 O156 1.918 . S
Fe157 O158 2.002 . S
Fe157 O167 1.976 . S
Fe157 O171 1.996 . S
Fe157 O174 1.997 . S
O158 Fe157 2.002 . S
O158 C175 1.295 . S
O159 Fe154 1.997 . S
O159 C175 1.235 . S
O160 Fe154 2.002 . S
O160 C161 1.295 . S
C161 O160 1.295 . S
C161 O163 1.235 . S
C162 O167 1.287 . S
C162 O168 1.255 . S
O163 Fe155 1.997 . S
O163 C161 1.235 . S
C164 O170 1.287 . S
C164 O171 1.255 . S
O165 Fe154 1.976 . S
O165 C172 1.287 . S
O166 Fe155 1.996 . S
O166 C172 1.255 . S
O167 Fe157 1.976 . S
O167 C162 1.287 . S
O168 Fe154 1.996 . S
O168 C162 1.255 . S
C169 O173 1.295 . S
C169 O174 1.235 . S
O170 Fe155 1.976 . S
O170 C164 1.287 . S
O171 Fe157 1.996 . S
O171 C164 1.255 . S
C172 O165 1.287 . S
C172 O166 1.255 . S
O173 Fe155 2.002 . S
O173 C169 1.295 . S
O174 Fe157 1.997 . S
O174 C169 1.235 . S
C175 O158 1.295 . S
C175 O159 1.235 . S
Fe176 O178 1.918 . S
Fe176 O181 1.997 . S
Fe176 O182 2.002 . S
Fe176 O187 1.976 . S
Fe176 O190 1.996 . S
Fe177 O178 1.918 . S
Fe177 O185 1.997 . S
Fe177 O188 1.996 . S
Fe177 O192 1.976 . S
Fe177 O195 2.002 . S
O178 Fe176 1.918 . S
O178 Fe177 1.918 . S
O178 Fe179 1.918 . S
Fe179 O178 1.918 . S
Fe179 O180 2.002 . S
Fe179 O189 1.976 . S
Fe179 O193 1.996 . S
Fe179 O196 1.997 . S
O180 Fe179 2.002 . S
O180 C197 1.295 . S
O181 Fe176 1.997 . S
O181 C197 1.235 . S
O182 Fe176 2.002 . S
O182 C183 1.295 . S
C183 O182 1.295 . S
C183 O185 1.235 . S
C184 O189 1.287 . S
C184 O190 1.255 . S
O185 Fe177 1.997 . S
O185 C183 1.235 . S
C186 O192 1.287 . S
C186 O193 1.255 . S
O187 Fe176 1.976 . S
O187 C194 1.287 . S
O188 Fe177 1.996 . S
O188 C194 1.255 . S
O189 Fe179 1.976 . S
O189 C184 1.287 . S
O190 Fe176 1.996 . S
O190 C184 1.255 . S
C191 O195 1.295 . S
C191 O196 1.235 . S
O192 Fe177 1.976 . S
O192 C186 1.287 . S
O193 Fe179 1.996 . S
O193 C186 1.255 . S
C194 O187 1.287 . S
C194 O188 1.255 . S
O195 Fe177 2.002 . S
O195 C191 1.295 . S
O196 Fe179 1.997 . S
O196 C191 1.235 . S
C197 O180 1.295 . S
C197 O181 1.235 . S
Fe198 O200 1.918 . S
Fe198 O203 1.997 . S
Fe198 O204 2.002 . S
Fe198 O209 1.976 . S
Fe198 O212 1.996 . S
Fe199 O200 1.918 . S
Fe199 O207 1.997 . S
Fe199 O210 1.996 . S
Fe199 O214 1.976 . S
Fe199 O217 2.002 . S
O200 Fe198 1.918 . S
O200 Fe199 1.918 . S
O200 Fe201 1.918 . S
Fe201 O200 1.918 . S
Fe201 O202 2.002 . S
Fe201 O211 1.976 . S
Fe201 O215 1.996 . S
Fe201 O218 1.997 . S
O202 Fe201 2.002 . S
O202 C219 1.295 . S
O203 Fe198 1.997 . S
O203 C219 1.235 . S
O204 Fe198 2.002 . S
O204 C205 1.295 . S
C205 O204 1.295 . S
C205 O207 1.235 . S
C206 O211 1.287 . S
C206 O212 1.255 . S
O207 Fe199 1.997 . S
O207 C205 1.235 . S
C208 O214 1.287 . S
C208 O215 1.255 . S
O209 Fe198 1.976 . S
O209 C216 1.287 . S
O210 Fe199 1.996 . S
O210 C216 1.255 . S
O211 Fe201 1.976 . S
O211 C206 1.287 . S
O212 Fe198 1.996 . S
O212 C206 1.255 . S
C213 O217 1.295 . S
C213 O218 1.235 . S
O214 Fe199 1.976 . S
O214 C208 1.287 . S
O215 Fe201 1.996 . S
O215 C208 1.255 . S
C216 O209 1.287 . S
C216 O210 1.255 . S
O217 Fe199 2.002 . S
O217 C213 1.295 . S
O218 Fe201 1.997 . S
O218 C213 1.235 . S
C219 O202 1.295 . S
C219 O203 1.235 . S
Fe220 O222 1.918 . S
Fe220 O225 1.997 . S
Fe220 O226 2.002 . S
Fe220 O231 1.976 . S
Fe220 O234 1.996 . S
Fe221 O222 1.918 . S
Fe221 O229 1.997 . S
Fe221 O232 1.996 . S
Fe221 O236 1.976 . S
Fe221 O239 2.002 . S
O222 Fe220 1.918 . S
O222 Fe221 1.918 . S
O222 Fe223 1.918 . S
Fe223 O222 1.918 . S
Fe223 O224 2.002 . S
Fe223 O233 1.976 . S
Fe223 O237 1.996 . S
Fe223 O240 1.997 . S
O224 Fe223 2.002 . S
O224 C241 1.295 . S
O225 Fe220 1.997 . S
O225 C241 1.235 . S
O226 Fe220 2.002 . S
O226 C227 1.295 . S
C227 O226 1.295 . S
C227 O229 1.235 . S
C228 O233 1.287 . S
C228 O234 1.255 . S
O229 Fe221 1.997 . S
O229 C227 1.235 . S
C230 O236 1.287 . S
C230 O237 1.255 . S
O231 Fe220 1.976 . S
O231 C238 1.287 . S
O232 Fe221 1.996 . S
O232 C238 1.255 . S
O233 Fe223 1.976 . S
O233 C228 1.287 . S
O234 Fe220 1.996 . S
O234 C228 1.255 . S
C235 O239 1.295 . S
C235 O240 1.235 . S
O236 Fe221 1.976 . S
O236 C230 1.287 . S
O237 Fe223 1.996 . S
O237 C230 1.255 . S
C238 O231 1.287 . S
C238 O232 1.255 . S
O239 Fe221 2.002 . S
O239 C235 1.295 . S
O240 Fe223 1.997 . S
O240 C235 1.235 . S
C241 O224 1.295 . S
C241 O225 1.235 . S
Fe242 O244 1.918 . S
Fe242 O247 1.997 . S
Fe242 O248 2.002 . S
Fe242 O253 1.976 . S
Fe242 O256 1.996 . S
Fe243 O244 1.918 . S
Fe243 O251 1.997 . S
Fe243 O254 1.996 . S
Fe243 O258 1.976 . S
Fe243 O261 2.002 . S
O244 Fe242 1.918 . S
O244 Fe243 1.918 . S
O244 Fe245 1.918 . S
Fe245 O244 1.918 . S
Fe245 O246 2.002 . S
Fe245 O255 1.976 . S
Fe245 O259 1.996 . S
Fe245 O262 1.997 . S
O246 Fe245 2.002 . S
O246 C263 1.295 . S
O247 Fe242 1.997 . S
O247 C263 1.235 . S
O248 Fe242 2.002 . S
O248 C249 1.295 . S
C249 O248 1.295 . S
C249 O251 1.235 . S
C250 O255 1.287 . S
C250 O256 1.255 . S
O251 Fe243 1.997 . S
O251 C249 1.235 . S
C252 O258 1.287 . S
C252 O259 1.255 . S
O253 Fe242 1.976 . S
O253 C260 1.287 . S
O254 Fe243 1.996 . S
O254 C260 1.255 . S
O255 Fe245 1.976 . S
O255 C250 1.287 . S
O256 Fe242 1.996 . S
O256 C250 1.255 . S
C257 O261 1.295 . S
C257 O262 1.235 . S
O258 Fe243 1.976 . S
O258 C252 1.287 . S
O259 Fe245 1.996 . S
O259 C252 1.255 . S
C260 O253 1.287 . S
C260 O254 1.255 . S
O261 Fe243 2.002 . S
O261 C257 1.295 . S
O262 Fe245 1.997 . S
O262 C257 1.235 . S
C263 O246 1.295 . S
C263 O247 1.235 . S
Fe264 O266 1.918 . S
Fe264 O269 1.997 . S
Fe264 O270 2.002 . S
Fe264 O275 1.976 . S
Fe264 O278 1.996 . S
Fe265 O266 1.918 . S
Fe265 O273 1.997 . S
Fe265 O276 1.996 . S
Fe265 O280 1.976 . S
Fe265 O283 2.002 . S
O266 Fe264 1.918 . S
O266 Fe265 1.918 . S
O266 Fe267 1.918 . S
Fe267 O266 1.918 . S
Fe267 O268 2.002 . S
Fe267 O277 1.976 . S
Fe267 O281 1.996 . S
Fe267 O284 1.997 . S
O268 Fe267 2.002 . S
O268 C285 1.295 . S
O269 Fe264 1.997 . S
O269 C285 1.235 . S
O270 Fe264 2.002 . S
O270 C271 1.295 . S
C271 O270 1.295 . S
C271 O273 1.235 . S
C272 O277 1.287 . S
C272 O278 1.255 . S
O273 Fe265 1.997 . S
O273 C271 1.235 . S
C274 O280 1.287 . S
C274 O281 1.255 . S
O275 Fe264 1.976 . S
O275 C282 1.287 . S
O276 Fe265 1.996 . S
O276 C282 1.255 . S
O277 Fe267 1.976 . S
O277 C272 1.287 . S
O278 Fe264 1.996 . S
O278 C272 1.255 . S
C279 O283 1.295 . S
C279 O284 1.235 . S
O280 Fe265 1.976 . S
O280 C274 1.287 . S
O281 Fe267 1.996 . S
O281 C274 1.255 . S
C282 O275 1.287 . S
C282 O276 1.255 . S
O283 Fe265 2.002 . S
O283 C279 1.295 . S
O284 Fe267 1.997 . S
O284 C279 1.235 . S
C285 O268 1.295 . S
C285 O269 1.235 . S
Fe286 O288 1.918 . S
Fe286 O291 1.997 . S
Fe286 O292 2.002 . S
Fe286 O297 1.976 . S
Fe286 O300 1.996 . S
Fe287 O288 1.918 . S
Fe287 O295 1.997 . S
Fe287 O298 1.996 . S
Fe287 O302 1.976 . S
Fe287 O305 2.002 . S
O288 Fe286 1.918 . S
O288 Fe287 1.918 . S
O288 Fe289 1.918 . S
Fe289 O288 1.918 . S
Fe289 O290 2.002 . S
Fe289 O299 1.976 . S
Fe289 O303 1.996 . S
Fe289 O306 1.997 . S
O290 Fe289 2.002 . S
O290 C307 1.295 . S
O291 Fe286 1.997 . S
O291 C307 1.235 . S
O292 Fe286 2.002 . S
O292 C293 1.295 . S
C293 O292 1.295 . S
C293 O295 1.235 . S
C294 O299 1.287 . S
C294 O300 1.255 . S
O295 Fe287 1.997 . S
O295 C293 1.235 . S
C296 O302 1.287 . S
C296 O303 1.255 . S
O297 Fe286 1.976 . S
O297 C304 1.287 . S
O298 Fe287 1.996 . S
O298 C304 1.255 . S
O299 Fe289 1.976 . S
O299 C294 1.287 . S
O300 Fe286 1.996 . S
O300 C294 1.255 . S
C301 O305 1.295 . S
C301 O306 1.235 . S
O302 Fe287 1.976 . S
O302 C296 1.287 . S
O303 Fe289 1.996 . S
O303 C296 1.255 . S
C304 O297 1.287 . S
C304 O298 1.255 . S
O305 Fe287 2.002 . S
O305 C301 1.295 . S
O306 Fe289 1.997 . S
O306 C301 1.235 . S
C307 O290 1.295 . S
C307 O291 1.235 . S
Fe308 O310 1.918 . S
Fe308 O313 1.997 . S
Fe308 O314 2.002 . S
Fe308 O319 1.976 . S
Fe308 O322 1.996 . S
Fe309 O310 1.918 . S
Fe309 O317 1.997 . S
Fe309 O320 1.996 . S
Fe309 O324 1.976 . S
Fe309 O327 2.002 . S
O310 Fe308 1.918 . S
O310 Fe309 1.918 . S
O310 Fe311 1.918 . S
Fe311 O310 1.918 . S
Fe311 O312 2.002 . S
Fe311 O321 1.976 . S
Fe311 O325 1.996 . S
Fe311 O328 1.997 . S
O312 Fe311 2.002 . S
O312 C329 1.295 . S
O313 Fe308 1.997 . S
O313 C329 1.235 . S
O314 Fe308 2.002 . S
O314 C315 1.295 . S
C315 O314 1.295 . S
C315 O317 1.235 . S
C316 O321 1.287 . S
C316 O322 1.255 . S
O317 Fe309 1.997 . S
O317 C315 1.235 . S
C318 O324 1.287 . S
C318 O325 1.255 . S
O319 Fe308 1.976 . S
O319 C326 1.287 . S
O320 Fe309 1.996 . S
O320 C326 1.255 . S
O321 Fe311 1.976 . S
O321 C316 1.287 . S
O322 Fe308 1.996 . S
O322 C316 1.255 . S
C323 O327 1.295 . S
C323 O328 1.235 . S
O324 Fe309 1.976 . S
O324 C318 1.287 . S
O325 Fe311 1.996 . S
O325 C318 1.255 . S
C326 O319 1.287 . S
C326 O320 1.255 . S
O327 Fe309 2.002 . S
O327 C323 1.295 . S
O328 Fe311 1.997 . S
O328 C323 1.235 . S
C329 O312 1.295 . S
C329 O313 1.235 . S
Fe330 O332 1.918 . S
Fe330 O335 1.997 . S
Fe330 O336 2.002 . S
Fe330 O341 1.976 . S
Fe330 O344 1.996 . S
Fe331 O332 1.918 . S
Fe331 O339 1.997 . S
Fe331 O342 1.996 . S
Fe331 O346 1.976 . S
Fe331 O349 2.002 . S
O332 Fe330 1.918 . S
O332 Fe331 1.918 . S
O332 Fe333 1.918 . S
Fe333 O332 1.918 . S
Fe333 O334 2.002 . S
Fe333 O343 1.976 . S
Fe333 O347 1.996 . S
Fe333 O350 1.997 . S
O334 Fe333 2.002 . S
O334 C351 1.295 . S
O335 Fe330 1.997 . S
O335 C351 1.235 . S
O336 Fe330 2.002 . S
O336 C337 1.295 . S
C337 O336 1.295 . S
C337 O339 1.235 . S
C338 O343 1.287 . S
C338 O344 1.255 . S
O339 Fe331 1.997 . S
O339 C337 1.235 . S
C340 O346 1.287 . S
C340 O347 1.255 . S
O341 Fe330 1.976 . S
O341 C348 1.287 . S
O342 Fe331 1.996 . S
O342 C348 1.255 . S
O343 Fe333 1.976 . S
O343 C338 1.287 . S
O344 Fe330 1.996 . S
O344 C338 1.255 . S
C345 O349 1.295 . S
C345 O350 1.235 . S
O346 Fe331 1.976 . S
O346 C340 1.287 . S
O347 Fe333 1.996 . S
O347 C340 1.255 . S
C348 O341 1.287 . S
C348 O342 1.255 . S
O349 Fe331 2.002 . S
O349 C345 1.295 . S
O350 Fe333 1.997 . S
O350 C345 1.235 . S
C351 O334 1.295 . S
C351 O335 1.235 . S
H352 C360 0.929 . S
H353 C362 0.930 . S
H354 C364 0.930 . S
H355 C367 0.929 . S
H356 C370 0.930 . S
H357 C372 0.960 . S
H358 C372 0.960 1_554 S
H359 C372 0.960 . S
C360 H352 0.929 . S
C360 C361 1.377 . S
C360 C362 1.384 . S
C361 C360 1.377 . S
C361 C367 1.390 . S
C362 H353 0.930 . S
C362 C360 1.384 . S
C362 C363 1.372 . S
C363 C362 1.372 . S
C363 C364 1.400 . S
C363 C368 1.490 . S
C364 H354 0.930 . S
C364 C363 1.400 . S
C364 C367 1.386 . S
H365 C381 0.930 . S
H366 C382 0.931 . S
C367 H355 0.929 . S
C367 C361 1.390 . S
C367 C364 1.386 . S
C368 C363 1.490 . S
C368 C370 1.395 . S
C368 C371 1.403 . S
H369 C375 0.930 . S
C370 H356 0.930 . S
C370 C368 1.395 . S
C370 C373 1.403 . S
C371 C368 1.403 . S
C371 C372 1.524 1_554 S
C371 C375 1.400 1_554 S
C372 H357 0.960 . S
C372 H358 0.960 1_556 S
C372 H359 0.960 . S
C372 C371 1.524 1_556 S
C373 C370 1.403 . S
C373 C374 1.392 . S
C373 C377 1.495 1_545 S
C374 C373 1.392 . S
C374 C375 1.385 1_554 S
C374 C376 1.478 1_544 S
C375 H369 0.930 . S
C375 C371 1.400 1_556 S
C375 C374 1.385 1_556 S
C376 C374 1.478 1_566 S
C376 C378 1.381 . S
C376 C382 1.383 . S
C377 C373 1.495 1_565 S
C377 H383 0.959 . S
C377 H384 0.961 . S
C377 H385 0.960 . S
C378 C376 1.381 . S
C378 C379 1.394 . S
C378 H386 0.930 1_556 S
C379 C378 1.394 . S
C379 C380 1.383 . S
C379 H387 0.929 . S
C380 C379 1.383 . S
C380 C381 1.377 . S
C381 H365 0.930 . S
C381 C380 1.377 . S
C381 C382 1.379 . S
C382 H366 0.931 . S
C382 C376 1.383 . S
C382 C381 1.379 . S
H383 C377 0.959 . S
H384 C377 0.961 . S
H385 C377 0.960 . S
H386 C378 0.930 1_554 S
H387 C379 0.929 . S
H388 C396 0.929 . S
H389 C398 0.928 1_554 S
H390 C400 0.930 . S
H391 C403 0.929 . S
H392 C406 0.923 1_545 S
H393 C408 0.960 . S
H394 C408 0.960 . S
H395 C408 0.960 . S
C396 H388 0.929 . S
C396 C397 1.377 . S
C396 C398 1.384 . S
C397 C396 1.377 . S
C397 C403 1.390 . S
C398 H389 0.928 1_556 S
C398 C396 1.384 . S
C398 C399 1.372 . S
C399 C398 1.372 . S
C399 C400 1.400 . S
C399 C404 1.494 1_545 S
C400 H390 0.930 . S
C400 C399 1.400 . S
C400 C403 1.386 . S
H401 C417 0.930 . S
H402 C418 0.931 . S
C403 H391 0.929 . S
C403 C397 1.390 . S
C403 C400 1.386 . S
C404 C399 1.494 1_565 S
C404 C406 1.388 1_556 S
C404 C407 1.405 . S
H405 C411 0.937 . S
C406 H392 0.923 1_565 S
C406 C404 1.388 1_554 S
C406 C409 1.409 . S
C407 C404 1.405 . S
C407 C408 1.524 . S
C407 C411 1.400 1_556 S
C408 H393 0.960 . S
C408 H394 0.960 . S
C408 H395 0.960 . S
C408 C407 1.524 . S
C409 C406 1.409 . S
C409 C410 1.392 . S
C409 C413 1.495 . S
C410 C409 1.392 . S
C410 C411 1.385 . S
C410 C412 1.478 . S
C411 H405 0.937 . S
C411 C407 1.400 1_554 S
C411 C410 1.385 . S
C412 C410 1.478 . S
C412 C414 1.381 . S
C412 C418 1.383 . S
C413 C409 1.495 . S
C413 H419 0.959 1_565 S
C413 H420 0.961 . S
C413 H421 0.960 . S
C414 C412 1.381 . S
C414 C415 1.394 . S
C414 H422 0.930 . S
C415 C414 1.394 . S
C415 C416 1.383 . S
C415 H423 0.929 . S
C416 C415 1.383 . S
C416 C417 1.377 . S
C417 H401 0.930 . S
C417 C416 1.377 . S
C417 C418 1.379 . S
C418 H402 0.931 . S
C418 C412 1.383 . S
C418 C417 1.379 . S
H419 C413 0.959 1_545 S
H420 C413 0.961 . S
H421 C413 0.960 . S
H422 C414 0.930 . S
H423 C415 0.929 . S
H424 C432 0.929 . S
H425 C434 0.930 . S
H426 C436 0.930 . S
H427 C439 0.929 . S
H428 C442 0.930 1_545 S
H429 C444 0.960 . S
H430 C444 0.960 . S
H431 C444 0.960 . S
C432 H424 0.929 . S
C432 C433 1.377 . S
C432 C434 1.384 . S
C433 C432 1.377 . S
C433 C439 1.390 . S
C434 H425 0.930 . S
C434 C432 1.384 . S
C434 C435 1.372 . S
C435 C434 1.372 . S
C435 C436 1.400 . S
C435 C440 1.490 1_545 S
C436 H426 0.930 . S
C436 C435 1.400 . S
C436 C439 1.386 . S
H437 C453 0.930 . S
H438 C454 0.931 . S
C439 H427 0.929 . S
C439 C433 1.390 . S
C439 C436 1.386 . S
C440 C435 1.490 1_565 S
C440 C442 1.395 . S
C440 C443 1.403 . S
H441 C447 0.930 . S
C442 H428 0.930 1_565 S
C442 C440 1.395 . S
C442 C445 1.403 . S
C443 C440 1.403 . S
C443 C444 1.524 . S
C443 C447 1.400 . S
C444 H429 0.960 . S
C444 H430 0.960 . S
C444 H431 0.960 . S
C444 C443 1.524 . S
C445 C442 1.403 . S
C445 C446 1.392 . S
C445 C449 1.495 . S
C446 C445 1.392 . S
C446 C447 1.385 . S
C446 C448 1.478 . S
C447 H441 0.930 . S
C447 C443 1.400 . S
C447 C446 1.385 . S
C448 C446 1.478 . S
C448 C450 1.381 . S
C448 C454 1.383 . S
C449 C445 1.495 . S
C449 H455 0.959 1_565 S
C449 H456 0.961 . S
C449 H457 0.960 . S
C450 C448 1.381 . S
C450 C451 1.394 . S
C450 H458 0.930 . S
C451 C450 1.394 . S
C451 C452 1.383 . S
C451 H459 0.929 . S
C452 C451 1.383 . S
C452 C453 1.377 . S
C453 H437 0.930 . S
C453 C452 1.377 . S
C453 C454 1.379 . S
C454 H438 0.931 . S
C454 C448 1.383 . S
C454 C453 1.379 . S
H455 C449 0.959 1_545 S
H456 C449 0.961 . S
H457 C449 0.960 . S
H458 C450 0.930 . S
H459 C451 0.929 . S
H460 C468 0.929 . S
H461 C470 0.930 . S
H462 C472 0.930 . S
H463 C475 0.929 . S
H464 C478 0.930 1_565 S
H465 C480 0.960 . S
H466 C480 0.960 . S
H467 C480 0.960 . S
C468 H460 0.929 . S
C468 C469 1.377 . S
C468 C470 1.384 . S
C469 C468 1.377 . S
C469 C475 1.390 . S
C470 H461 0.930 . S
C470 C468 1.384 . S
C470 C471 1.372 . S
C471 C470 1.372 . S
C471 C472 1.400 . S
C471 C476 1.490 1_565 S
C472 H462 0.930 . S
C472 C471 1.400 . S
C472 C475 1.386 . S
H473 C489 0.930 . S
H474 C490 0.931 . S
C475 H463 0.929 . S
C475 C469 1.390 . S
C475 C472 1.386 . S
C476 C471 1.490 1_545 S
C476 C478 1.395 . S
C476 C479 1.403 . S
H477 C483 0.930 . S
C478 H464 0.930 1_545 S
C478 C476 1.395 . S
C478 C481 1.403 . S
C479 C476 1.403 . S
C479 C480 1.524 . S
C479 C483 1.400 . S
C480 H465 0.960 . S
C480 H466 0.960 . S
C480 H467 0.960 . S
C480 C479 1.524 . S
C481 C478 1.403 . S
C481 C482 1.392 . S
C481 C485 1.495 . S
C482 C481 1.392 . S
C482 C483 1.385 . S
C482 C484 1.478 . S
C483 H477 0.930 . S
C483 C479 1.400 . S
C483 C482 1.385 . S
C484 C482 1.478 . S
C484 C486 1.381 . S
C484 C490 1.383 . S
C485 C481 1.495 . S
C485 H491 0.959 . S
C485 H492 0.961 . S
C485 H493 0.960 . S
C486 C484 1.381 . S
C486 C487 1.394 . S
C486 H494 0.930 . S
C487 C486 1.394 . S
C487 C488 1.383 . S
C487 H495 0.929 . S
C488 C487 1.383 . S
C488 C489 1.377 . S
C489 H473 0.930 . S
C489 C488 1.377 . S
C489 C490 1.379 . S
C490 H474 0.931 . S
C490 C484 1.383 . S
C490 C489 1.379 . S
H491 C485 0.959 . S
H492 C485 0.961 . S
H493 C485 0.960 . S
H494 C486 0.930 . S
H495 C487 0.929 . S
H496 C504 0.929 . S
H497 C506 0.930 . S
H498 C508 0.930 1_556 S
H499 C511 0.929 . S
H500 C514 0.943 . S
H501 C516 0.960 1_556 S
H502 C516 0.960 . S
H503 C516 0.949 1_546 S
C504 H496 0.929 . S
C504 C505 1.377 . S
C504 C506 1.384 . S
C505 C504 1.377 . S
C505 C511 1.390 . S
C506 H497 0.930 . S
C506 C504 1.384 . S
C506 C507 1.372 . S
C507 C506 1.372 . S
C507 C508 1.400 . S
C507 C512 1.490 1_545 S
C508 H498 0.930 1_554 S
C508 C507 1.400 . S
C508 C511 1.386 . S
H509 C525 0.930 . S
H510 C526 0.931 . S
C511 H499 0.929 . S
C511 C505 1.390 . S
C511 C508 1.386 . S
C512 C507 1.490 1_565 S
C512 C514 1.395 1_554 S
C512 C515 1.403 1_554 S
H513 C519 0.930 . S
C514 H500 0.943 . S
C514 C512 1.395 1_556 S
C514 C517 1.403 . S
C515 C512 1.403 1_556 S
C515 C516 1.524 1_556 S
C515 C519 1.400 . S
C516 H501 0.960 1_554 S
C516 H502 0.960 . S
C516 H503 0.949 1_564 S
C516 C515 1.524 1_554 S
C517 C514 1.403 . S
C517 C518 1.392 . S
C517 C521 1.495 . S
C518 C517 1.392 . S
C518 C519 1.385 . S
C518 C520 1.478 . S
C519 H513 0.930 . S
C519 C515 1.400 . S
C519 C518 1.385 . S
C520 C518 1.478 . S
C520 C522 1.381 . S
C520 C526 1.383 . S
C521 C517 1.495 . S
C521 H527 0.959 . S
C521 H528 0.961 . S
C521 H529 0.960 . S
C522 C520 1.381 . S
C522 C523 1.394 . S
C522 H530 0.930 . S
C523 C522 1.394 . S
C523 C524 1.383 . S
C523 H531 0.929 . S
C524 C523 1.383 . S
C524 C525 1.377 . S
C525 H509 0.930 . S
C525 C524 1.377 . S
C525 C526 1.379 . S
C526 H510 0.931 . S
C526 C520 1.383 . S
C526 C525 1.379 . S
H527 C521 0.959 . S
H528 C521 0.961 . S
H529 C521 0.960 . S
H530 C522 0.930 . S
H531 C523 0.929 . S
H532 C540 0.929 . S
H533 C542 0.930 . S
H534 C544 0.930 . S
H535 C547 0.929 . S
H536 C550 0.930 . S
H537 C552 0.960 . S
H538 C552 0.960 . S
H539 C552 0.960 . S
C540 H532 0.929 . S
C540 C541 1.377 . S
C540 C542 1.384 . S
C541 C540 1.377 . S
C541 C547 1.390 . S
C542 H533 0.930 . S
C542 C540 1.384 . S
C542 C543 1.372 . S
C543 C542 1.372 . S
C543 C544 1.400 . S
C543 C548 1.490 . S
C544 H534 0.930 . S
C544 C543 1.400 . S
C544 C547 1.386 . S
H545 C561 0.930 . S
H546 C562 0.931 . S
C547 H535 0.929 . S
C547 C541 1.390 . S
C547 C544 1.386 . S
C548 C543 1.490 . S
C548 C550 1.395 . S
C548 C551 1.403 . S
H549 C555 0.930 1_554 S
C550 H536 0.930 . S
C550 C548 1.395 . S
C550 C553 1.403 . S
C551 C548 1.403 . S
C551 C552 1.524 . S
C551 C555 1.400 . S
C552 H537 0.960 . S
C552 H538 0.960 . S
C552 H539 0.960 . S
C552 C551 1.524 . S
C553 C550 1.403 . S
C553 C554 1.387 1_556 S
C553 C557 1.495 1_545 S
C554 C553 1.387 1_554 S
C554 C555 1.383 1_554 S
C554 C556 1.486 1_545 S
C555 H549 0.930 1_556 S
C555 C551 1.400 . S
C555 C554 1.383 1_556 S
C556 C554 1.486 1_565 S
C556 C558 1.381 . S
C556 C562 1.383 . S
C557 C553 1.495 1_565 S
C557 H563 0.959 1_565 S
C557 H564 0.961 1_556 S
C557 H565 0.960 . S
C558 C556 1.381 . S
C558 C559 1.394 . S
C558 H566 0.930 1_554 S
C559 C558 1.394 . S
C559 C560 1.383 . S
C559 H567 0.929 . S
C560 C559 1.383 . S
C560 C561 1.377 . S
C561 H545 0.930 . S
C561 C560 1.377 . S
C561 C562 1.379 . S
C562 H546 0.931 . S
C562 C556 1.383 . S
C562 C561 1.379 . S
H563 C557 0.959 1_545 S
H564 C557 0.961 1_554 S
H565 C557 0.960 . S
H566 C558 0.930 1_556 S
H567 C559 0.929 . S
H568 C576 0.929 . S
H569 C578 0.930 . S
H570 C580 0.930 . S
H571 C583 0.929 . S
H572 C586 0.930 . S
H573 C588 0.960 . S
H574 C588 0.960 . S
H575 C588 0.960 . S
C576 H568 0.929 . S
C576 C577 1.377 . S
C576 C578 1.384 . S
C577 C576 1.377 . S
C577 C583 1.390 . S
C578 H569 0.930 . S
C578 C576 1.384 . S
C578 C579 1.372 . S
C579 C578 1.372 . S
C579 C580 1.400 . S
C579 C584 1.490 1_565 S
C580 H570 0.930 . S
C580 C579 1.400 . S
C580 C583 1.386 . S
H581 C597 0.930 . S
H582 C598 0.931 . S
C583 H571 0.929 . S
C583 C577 1.390 . S
C583 C580 1.386 . S
C584 C579 1.490 1_545 S
C584 C586 1.395 . S
C584 C587 1.403 . S
H585 C591 0.930 . S
C586 H572 0.930 . S
C586 C584 1.395 . S
C586 C589 1.403 . S
C587 C584 1.403 . S
C587 C588 1.524 1_545 S
C587 C591 1.400 . S
C588 H573 0.960 . S
C588 H574 0.960 . S
C588 H575 0.960 . S
C588 C587 1.524 1_565 S
C589 C586 1.403 . S
C589 C590 1.392 . S
C589 C593 1.495 . S
C590 C589 1.392 . S
C590 C591 1.385 . S
C590 C592 1.478 . S
C591 H585 0.930 . S
C591 C587 1.400 . S
C591 C590 1.385 . S
C592 C590 1.478 . S
C592 C594 1.381 . S
C592 C598 1.383 . S
C593 C589 1.495 . S
C593 H599 0.959 . S
C593 H600 0.961 . S
C593 H601 0.960 . S
C594 C592 1.381 . S
C594 C595 1.394 . S
C594 H602 0.930 . S
C595 C594 1.394 . S
C595 C596 1.383 . S
C595 H603 0.929 . S
C596 C595 1.383 . S
C596 C597 1.377 . S
C597 H581 0.930 . S
C597 C596 1.377 . S
C597 C598 1.379 . S
C598 H582 0.931 . S
C598 C592 1.383 . S
C598 C597 1.379 . S
H599 C593 0.959 . S
H600 C593 0.961 . S
H601 C593 0.960 . S
H602 C594 0.930 . S
H603 C595 0.929 . S
H604 C612 0.929 . S
H605 C614 0.930 . S
H606 C616 0.930 . S
H607 C619 0.929 . S
H608 C622 0.930 . S
H609 C624 0.960 . S
H610 C624 0.960 . S
H611 C624 0.960 . S
C612 H604 0.929 . S
C612 C613 1.377 . S
C612 C614 1.384 . S
C613 C612 1.377 . S
C613 C619 1.390 . S
C614 H605 0.930 . S
C614 C612 1.384 . S
C614 C615 1.372 . S
C615 C614 1.372 . S
C615 C616 1.400 . S
C615 C620 1.490 . S
C616 H606 0.930 . S
C616 C615 1.400 . S
C616 C619 1.386 . S
H617 C633 0.930 . S
H618 C634 0.931 . S
C619 H607 0.929 . S
C619 C613 1.390 . S
C619 C616 1.386 . S
C620 C615 1.490 . S
C620 C622 1.395 . S
C620 C623 1.403 . S
H621 C627 0.930 . S
C622 H608 0.930 . S
C622 C620 1.395 . S
C622 C625 1.403 . S
C623 C620 1.403 . S
C623 C624 1.524 . S
C623 C627 1.400 . S
C624 H609 0.960 . S
C624 H610 0.960 . S
C624 H611 0.960 . S
C624 C623 1.524 . S
C625 C622 1.403 . S
C625 C626 1.392 . S
C625 C629 1.495 . S
C626 C625 1.392 . S
C626 C627 1.385 . S
C626 C628 1.478 1_565 S
C627 H621 0.930 . S
C627 C623 1.400 . S
C627 C626 1.385 . S
C628 C626 1.478 1_545 S
C628 C630 1.381 . S
C628 C634 1.383 . S
C629 C625 1.495 . S
C629 H635 0.959 . S
C629 H636 0.961 . S
C629 H637 0.960 1_565 S
C630 C628 1.381 . S
C630 C631 1.394 . S
C630 H638 0.930 . S
C631 C630 1.394 . S
C631 C632 1.383 . S
C631 H639 0.929 . S
C632 C631 1.383 . S
C632 C633 1.377 . S
C633 H617 0.930 . S
C633 C632 1.377 . S
C633 C634 1.379 . S
C634 H618 0.931 . S
C634 C628 1.383 . S
C634 C633 1.379 . S
H635 C629 0.959 . S
H636 C629 0.961 . S
H637 C629 0.960 1_545 S
H638 C630 0.930 . S
H639 C631 0.929 . S
H640 C648 0.929 . S
H641 C650 0.930 . S
H642 C652 0.930 1_554 S
H643 C655 0.929 . S
H644 C658 0.940 . S
H645 C660 0.960 1_554 S
H646 C660 0.960 . S
H647 C660 0.961 1_554 S
C648 H640 0.929 . S
C648 C649 1.377 . S
C648 C650 1.384 . S
C649 C648 1.377 . S
C649 C655 1.390 . S
C650 H641 0.930 . S
C650 C648 1.384 . S
C650 C651 1.372 . S
C651 C650 1.372 . S
C651 C652 1.400 . S
C651 C656 1.490 . S
C652 H642 0.930 1_556 S
C652 C651 1.400 . S
C652 C655 1.386 . S
H653 C669 0.930 . S
H654 C670 0.931 . S
C655 H643 0.929 . S
C655 C649 1.390 . S
C655 C652 1.386 . S
C656 C651 1.490 . S
C656 C658 1.395 1_556 S
C656 C659 1.403 1_556 S
H657 C663 0.930 . S
C658 H644 0.940 . S
C658 C656 1.395 1_554 S
C658 C661 1.403 . S
C659 C656 1.403 1_554 S
C659 C660 1.524 1_554 S
C659 C663 1.400 . S
C660 H645 0.960 1_556 S
C660 H646 0.960 . S
C660 H647 0.961 1_556 S
C660 C659 1.524 1_556 S
C661 C658 1.403 . S
C661 C662 1.392 . S
C661 C665 1.495 . S
C662 C661 1.392 . S
C662 C663 1.385 . S
C662 C664 1.478 . S
C663 H657 0.930 . S
C663 C659 1.400 . S
C663 C662 1.385 . S
C664 C662 1.478 . S
C664 C666 1.381 . S
C664 C670 1.383 . S
C665 C661 1.495 . S
C665 H671 0.959 . S
C665 H672 0.961 . S
C665 H673 0.960 . S
C666 C664 1.381 . S
C666 C667 1.394 . S
C666 H674 0.930 . S
C667 C666 1.394 . S
C667 C668 1.383 . S
C667 H675 0.929 . S
C668 C667 1.383 . S
C668 C669 1.377 . S
C669 H653 0.930 . S
C669 C668 1.377 . S
C669 C670 1.379 . S
C670 H654 0.931 . S
C670 C664 1.383 . S
C670 C669 1.379 . S
H671 C665 0.959 . S
H672 C665 0.961 . S
H673 C665 0.960 . S
H674 C666 0.930 . S
H675 C667 0.929 . S
H676 C684 0.929 . S
H677 C686 0.930 . S
H678 C688 0.930 . S
H679 C691 0.929 . S
H680 C694 0.930 . S
H681 C696 0.960 1_556 S
H682 C696 0.960 1_556 S
H683 C696 0.960 . S
C684 H676 0.929 . S
C684 C685 1.377 . S
C684 C686 1.384 . S
C685 C684 1.377 . S
C685 C691 1.390 . S
C686 H677 0.930 . S
C686 C684 1.384 . S
C686 C687 1.372 . S
C687 C686 1.372 . S
C687 C688 1.400 . S
C687 C692 1.490 . S
C688 H678 0.930 . S
C688 C687 1.400 . S
C688 C691 1.386 . S
H689 C705 0.930 . S
H690 C706 0.908 1_554 S
C691 H679 0.929 . S
C691 C685 1.390 . S
C691 C688 1.386 . S
C692 C687 1.490 . S
C692 C694 1.395 . S
C692 C695 1.403 . S
H693 C699 0.930 . S
C694 H680 0.930 . S
C694 C692 1.395 . S
C694 C697 1.403 . S
C695 C692 1.403 . S
C695 C696 1.524 . S
C695 C699 1.400 1_554 S
C696 H681 0.960 1_554 S
C696 H682 0.960 1_554 S
C696 H683 0.960 . S
C696 C695 1.524 . S
C697 C694 1.403 . S
C697 C698 1.386 1_554 S
C697 C701 1.495 . S
C698 C697 1.386 1_556 S
C698 C699 1.386 . S
C698 C700 1.483 . S
C699 H693 0.930 . S
C699 C695 1.400 1_556 S
C699 C698 1.386 . S
C700 C698 1.483 . S
C700 C702 1.381 . S
C700 C706 1.383 . S
C701 C697 1.495 . S
C701 H707 0.959 . S
C701 H708 0.961 . S
C701 H709 0.960 . S
C702 C700 1.381 . S
C702 C703 1.394 . S
C702 H710 0.930 . S
C703 C702 1.394 . S
C703 C704 1.383 . S
C703 H711 0.929 . S
C704 C703 1.383 . S
C704 C705 1.377 . S
C705 H689 0.930 . S
C705 C704 1.377 . S
C705 C706 1.379 . S
C706 H690 0.908 1_556 S
C706 C700 1.383 . S
C706 C705 1.379 . S
H707 C701 0.959 . S
H708 C701 0.961 . S
H709 C701 0.960 . S
H710 C702 0.930 . S
H711 C703 0.929 . S
H712 C720 0.929 . S
H713 C722 0.930 . S
H714 C724 0.930 . S
H715 C727 0.929 . S
H716 C730 0.930 . S
H717 C732 0.960 . S
H718 C732 0.960 . S
H719 C732 0.960 . S
C720 H712 0.929 . S
C720 C721 1.377 . S
C720 C722 1.384 . S
C721 C720 1.377 . S
C721 C727 1.390 . S
C722 H713 0.930 . S
C722 C720 1.384 . S
C722 C723 1.372 . S
C723 C722 1.372 . S
C723 C724 1.400 . S
C723 C728 1.490 . S
C724 H714 0.930 . S
C724 C723 1.400 . S
C724 C727 1.386 . S
H725 C741 0.930 . S
H726 C742 0.931 . S
C727 H715 0.929 . S
C727 C721 1.390 . S
C727 C724 1.386 . S
C728 C723 1.490 . S
C728 C730 1.395 . S
C728 C731 1.403 . S
H729 C735 0.930 . S
C730 H716 0.930 . S
C730 C728 1.395 . S
C730 C733 1.403 . S
C731 C728 1.403 . S
C731 C732 1.524 . S
C731 C735 1.400 . S
C732 H717 0.960 . S
C732 H718 0.960 . S
C732 H719 0.960 . S
C732 C731 1.524 . S
C733 C730 1.403 . S
C733 C734 1.392 . S
C733 C737 1.495 . S
C734 C733 1.392 . S
C734 C735 1.385 . S
C734 C736 1.478 . S
C735 H729 0.930 . S
C735 C731 1.400 . S
C735 C734 1.385 . S
C736 C734 1.478 . S
C736 C738 1.381 . S
C736 C742 1.383 . S
C737 C733 1.495 . S
C737 H743 0.959 . S
C737 H744 0.961 . S
C737 H745 0.960 . S
C738 C736 1.381 . S
C738 C739 1.394 . S
C738 H746 0.930 . S
C739 C738 1.394 . S
C739 C740 1.383 . S
C739 H747 0.929 . S
C740 C739 1.383 . S
C740 C741 1.377 . S
C741 H725 0.930 . S
C741 C740 1.377 . S
C741 C742 1.379 . S
C742 H726 0.931 . S
C742 C736 1.383 . S
C742 C741 1.379 . S
H743 C737 0.959 . S
H744 C737 0.961 . S
H745 C737 0.960 . S
H746 C738 0.930 . S
H747 C739 0.929 . S
H748 C756 0.929 . S
H749 C758 0.930 . S
H750 C760 0.930 . S
H751 C763 0.929 . S
H752 C766 0.930 . S
H753 C768 0.960 . S
H754 C768 0.960 . S
H755 C768 0.960 . S
C756 H748 0.929 . S
C756 C757 1.377 . S
C756 C758 1.384 . S
C757 C756 1.377 . S
C757 C763 1.390 . S
C758 H749 0.930 . S
C758 C756 1.384 . S
C758 C759 1.372 . S
C759 C758 1.372 . S
C759 C760 1.400 . S
C759 C764 1.490 . S
C760 H750 0.930 . S
C760 C759 1.400 . S
C760 C763 1.386 . S
H761 C777 0.930 . S
H762 C778 0.931 . S
C763 H751 0.929 . S
C763 C757 1.390 . S
C763 C760 1.386 . S
C764 C759 1.490 . S
C764 C766 1.395 . S
C764 C767 1.403 . S
H765 C771 0.930 . S
C766 H752 0.930 . S
C766 C764 1.395 . S
C766 C769 1.403 . S
C767 C764 1.403 . S
C767 C768 1.524 . S
C767 C771 1.400 . S
C768 H753 0.960 . S
C768 H754 0.960 . S
C768 H755 0.960 . S
C768 C767 1.524 . S
C769 C766 1.403 . S
C769 C770 1.392 . S
C769 C773 1.495 . S
C770 C769 1.392 . S
C770 C771 1.385 . S
C770 C772 1.478 . S
C771 H765 0.930 . S
C771 C767 1.400 . S
C771 C770 1.385 . S
C772 C770 1.478 . S
C772 C774 1.381 . S
C772 C778 1.383 . S
C773 C769 1.495 . S
C773 H779 0.959 . S
C773 H780 0.961 . S
C773 H781 0.960 . S
C774 C772 1.381 . S
C774 C775 1.394 . S
C774 H782 0.930 . S
C775 C774 1.394 . S
C775 C776 1.383 . S
C775 H783 0.929 . S
C776 C775 1.383 . S
C776 C777 1.377 . S
C777 H761 0.930 . S
C777 C776 1.377 . S
C777 C778 1.379 . S
C778 H762 0.931 . S
C778 C772 1.383 . S
C778 C777 1.379 . S
H779 C773 0.959 . S
H780 C773 0.961 . S
H781 C773 0.960 . S
H782 C774 0.930 . S
H783 C775 0.929 . S
H784 C792 0.929 . S
H785 C794 0.930 . S
H786 C796 0.930 . S
H787 C799 0.929 . S
H788 C802 0.930 . S
H789 C804 0.960 . S
H790 C804 0.960 . S
H791 C804 0.960 . S
C792 H784 0.929 . S
C792 C793 1.377 . S
C792 C794 1.384 . S
C793 C792 1.377 . S
C793 C799 1.390 . S
C794 H785 0.930 . S
C794 C792 1.384 . S
C794 C795 1.372 . S
C795 C794 1.372 . S
C795 C796 1.400 . S
C795 C800 1.490 . S
C796 H786 0.930 . S
C796 C795 1.400 . S
C796 C799 1.386 . S
H797 C813 0.930 . S
H798 C814 0.931 1_556 S
C799 H787 0.929 . S
C799 C793 1.390 . S
C799 C796 1.386 . S
C800 C795 1.490 . S
C800 C802 1.395 . S
C800 C803 1.403 . S
H801 C807 0.930 1_554 S
C802 H788 0.930 . S
C802 C800 1.395 . S
C802 C805 1.403 . S
C803 C800 1.403 . S
C803 C804 1.524 . S
C803 C807 1.400 . S
C804 H789 0.960 . S
C804 H790 0.960 . S
C804 H791 0.960 . S
C804 C803 1.524 . S
C805 C802 1.403 . S
C805 C806 1.392 1_556 S
C805 C809 1.495 . S
C806 C805 1.392 1_554 S
C806 C807 1.385 1_554 S
C806 C808 1.478 . S
C807 H801 0.930 1_556 S
C807 C803 1.400 . S
C807 C806 1.385 1_556 S
C808 C806 1.478 . S
C808 C810 1.381 . S
C808 C814 1.383 . S
C809 C805 1.495 . S
C809 H815 0.959 . S
C809 H816 0.961 . S
C809 H817 0.960 1_556 S
C810 C808 1.381 . S
C810 C811 1.394 . S
C810 H818 0.930 . S
C811 C810 1.394 . S
C811 C812 1.383 . S
C811 H819 0.929 . S
C812 C811 1.383 . S
C812 C813 1.377 . S
C813 H797 0.930 . S
C813 C812 1.377 . S
C813 C814 1.379 . S
C814 H798 0.931 1_554 S
C814 C808 1.383 . S
C814 C813 1.379 . S
H815 C809 0.959 . S
H816 C809 0.961 . S
H817 C809 0.960 1_554 S
H818 C810 0.930 . S
H819 C811 0.929 . S
H820 C828 0.929 . S
H821 C830 0.930 1_556 S
H822 C832 0.930 . S
H823 C835 0.929 . S
H824 C838 0.930 . S
H825 C840 0.960 . S
H826 C840 0.960 . S
H827 C840 0.960 . S
C828 H820 0.929 . S
C828 C829 1.377 . S
C828 C830 1.384 . S
C829 C828 1.377 . S
C829 C835 1.390 . S
C830 H821 0.930 1_554 S
C830 C828 1.384 . S
C830 C831 1.372 . S
C831 C830 1.372 . S
C831 C832 1.400 . S
C831 C836 1.484 1_554 S
C832 H822 0.930 . S
C832 C831 1.400 . S
C832 C835 1.386 . S
H833 C849 0.930 . S
H834 C850 0.931 . S
C835 H823 0.929 . S
C835 C829 1.390 . S
C835 C832 1.386 . S
C836 C831 1.484 1_556 S
C836 C838 1.404 . S
C836 C839 1.399 1_556 S
H837 C843 0.930 . S
C838 H824 0.930 . S
C838 C836 1.404 . S
C838 C841 1.403 . S
C839 C836 1.399 1_554 S
C839 C840 1.524 . S
C839 C843 1.400 1_554 S
C840 H825 0.960 . S
C840 H826 0.960 . S
C840 H827 0.960 . S
C840 C839 1.524 . S
C841 C838 1.403 . S
C841 C842 1.392 . S
C841 C845 1.495 . S
C842 C841 1.392 . S
C842 C843 1.385 . S
C842 C844 1.478 . S
C843 H837 0.930 . S
C843 C839 1.400 1_556 S
C843 C842 1.385 . S
C844 C842 1.478 . S
C844 C846 1.381 . S
C844 C850 1.383 . S
C845 C841 1.495 . S
C845 H851 0.959 . S
C845 H852 0.961 . S
C845 H853 0.960 . S
C846 C844 1.381 . S
C846 C847 1.394 . S
C846 H854 0.930 . S
C847 C846 1.394 . S
C847 C848 1.383 . S
C847 H855 0.929 . S
C848 C847 1.383 . S
C848 C849 1.377 . S
C849 H833 0.930 . S
C849 C848 1.377 . S
C849 C850 1.379 . S
C850 H834 0.931 . S
C850 C844 1.383 . S
C850 C849 1.379 . S
H851 C845 0.959 . S
H852 C845 0.961 . S
H853 C845 0.960 . S
H854 C846 0.930 . S
H855 C847 0.929 . S
H856 C864 0.929 . S
H857 C866 0.930 . S
H858 C868 0.930 . S
H859 C871 0.929 . S
H860 C874 0.930 . S
H861 C876 0.960 . S
H862 C876 0.960 . S
H863 C876 0.960 . S
C864 H856 0.929 . S
C864 C865 1.377 . S
C864 C866 1.384 . S
C865 C864 1.377 . S
C865 C871 1.390 . S
C866 H857 0.930 . S
C866 C864 1.384 . S
C866 C867 1.372 . S
C867 C866 1.372 . S
C867 C868 1.400 . S
C867 C872 1.490 . S
C868 H858 0.930 . S
C868 C867 1.400 . S
C868 C871 1.386 . S
H869 C885 0.930 . S
H870 C886 0.931 . S
C871 H859 0.929 . S
C871 C865 1.390 . S
C871 C868 1.386 . S
C872 C867 1.490 . S
C872 C874 1.395 . S
C872 C875 1.403 . S
H873 C879 0.930 . S
C874 H860 0.930 . S
C874 C872 1.395 . S
C874 C877 1.403 . S
C875 C872 1.403 . S
C875 C876 1.524 . S
C875 C879 1.400 . S
C876 H861 0.960 . S
C876 H862 0.960 . S
C876 H863 0.960 . S
C876 C875 1.524 . S
C877 C874 1.403 . S
C877 C878 1.392 . S
C877 C881 1.495 . S
C878 C877 1.392 . S
C878 C879 1.385 . S
C878 C880 1.478 . S
C879 H873 0.930 . S
C879 C875 1.400 . S
C879 C878 1.385 . S
C880 C878 1.478 . S
C880 C882 1.381 . S
C880 C886 1.383 . S
C881 C877 1.495 . S
C881 H887 0.959 . S
C881 H888 0.961 . S
C881 H889 0.960 . S
C882 C880 1.381 . S
C882 C883 1.394 . S
C882 H890 0.930 . S
C883 C882 1.394 . S
C883 C884 1.383 . S
C883 H891 0.929 . S
C884 C883 1.383 . S
C884 C885 1.377 . S
C885 H869 0.930 . S
C885 C884 1.377 . S
C885 C886 1.379 . S
C886 H870 0.931 . S
C886 C880 1.383 . S
C886 C885 1.379 . S
H887 C881 0.959 . S
H888 C881 0.961 . S
H889 C881 0.960 . S
H890 C882 0.930 . S
H891 C883 0.929 . S
H892 C900 0.929 . S
H893 C902 0.930 . S
H894 C904 0.930 . S
H895 C907 0.929 . S
H896 C910 0.930 . S
H897 C912 0.960 . S
H898 C912 0.960 . S
H899 C912 0.960 . S
C900 H892 0.929 . S
C900 C901 1.377 . S
C900 C902 1.384 . S
C901 C900 1.377 . S
C901 C907 1.390 . S
C902 H893 0.930 . S
C902 C900 1.384 . S
C902 C903 1.372 . S
C903 C902 1.372 . S
C903 C904 1.400 . S
C903 C908 1.490 . S
C904 H894 0.930 . S
C904 C903 1.400 . S
C904 C907 1.386 . S
H905 C921 0.930 . S
H906 C922 0.931 . S
C907 H895 0.929 . S
C907 C901 1.390 . S
C907 C904 1.386 . S
C908 C903 1.490 . S
C908 C910 1.395 . S
C908 C911 1.403 . S
H909 C915 0.930 . S
C910 H896 0.930 . S
C910 C908 1.395 . S
C910 C913 1.403 . S
C911 C908 1.403 . S
C911 C912 1.524 . S
C911 C915 1.400 . S
C912 H897 0.960 . S
C912 H898 0.960 . S
C912 H899 0.960 . S
C912 C911 1.524 . S
C913 C910 1.403 . S
C913 C914 1.392 . S
C913 C917 1.495 . S
C914 C913 1.392 . S
C914 C915 1.385 . S
C914 C916 1.478 . S
C915 H909 0.930 . S
C915 C911 1.400 . S
C915 C914 1.385 . S
C916 C914 1.478 . S
C916 C918 1.381 . S
C916 C922 1.383 . S
C917 C913 1.495 . S
C917 H923 0.959 . S
C917 H924 0.961 . S
C917 H925 0.960 . S
C918 C916 1.381 . S
C918 C919 1.394 . S
C918 H926 0.930 . S
C919 C918 1.394 . S
C919 C920 1.383 . S
C919 H927 0.929 . S
C920 C919 1.383 . S
C920 C921 1.377 . S
C921 H905 0.930 . S
C921 C920 1.377 . S
C921 C922 1.379 . S
C922 H906 0.931 . S
C922 C916 1.383 . S
C922 C921 1.379 . S
H923 C917 0.959 . S
H924 C917 0.961 . S
H925 C917 0.960 . S
H926 C918 0.930 . S
H927 C919 0.929 . S
H928 C936 0.929 . S
H929 C938 0.930 . S
H930 C940 0.930 . S
H931 C943 0.929 . S
H932 C946 0.930 . S
H933 C948 0.960 . S
H934 C948 0.960 . S
H935 C948 0.960 . S
C936 H928 0.929 . S
C936 C937 1.377 . S
C936 C938 1.384 . S
C937 C936 1.377 . S
C937 C943 1.390 . S
C938 H929 0.930 . S
C938 C936 1.384 . S
C938 C939 1.372 . S
C939 C938 1.372 . S
C939 C940 1.400 . S
C939 C944 1.490 . S
C940 H930 0.930 . S
C940 C939 1.400 . S
C940 C943 1.386 . S
H941 C957 0.930 . S
H942 C958 0.931 . S
C943 H931 0.929 . S
C943 C937 1.390 . S
C943 C940 1.386 . S
C944 C939 1.490 . S
C944 C946 1.395 . S
C944 C947 1.403 . S
H945 C951 0.930 . S
C946 H932 0.930 . S
C946 C944 1.395 . S
C946 C949 1.403 . S
C947 C944 1.403 . S
C947 C948 1.524 . S
C947 C951 1.400 . S
C948 H933 0.960 . S
C948 H934 0.960 . S
C948 H935 0.960 . S
C948 C947 1.524 . S
C949 C946 1.403 . S
C949 C950 1.392 . S
C949 C953 1.495 . S
C950 C949 1.392 . S
C950 C951 1.385 . S
C950 C952 1.478 . S
C951 H945 0.930 . S
C951 C947 1.400 . S
C951 C950 1.385 . S
C952 C950 1.478 . S
C952 C954 1.381 . S
C952 C958 1.383 . S
C953 C949 1.495 . S
C953 H959 0.959 . S
C953 H960 0.961 . S
C953 H961 0.960 . S
C954 C952 1.381 . S
C954 C955 1.394 . S
C954 H962 0.930 . S
C955 C954 1.394 . S
C955 C956 1.383 . S
C955 H963 0.929 . S
C956 C955 1.383 . S
C956 C957 1.377 . S
C957 H941 0.930 . S
C957 C956 1.377 . S
C957 C958 1.379 . S
C958 H942 0.931 . S
C958 C952 1.383 . S
C958 C957 1.379 . S
H959 C953 0.959 . S
H960 C953 0.961 . S
H961 C953 0.960 . S
H962 C954 0.930 . S
H963 C955 0.929 . S
H964 C972 0.929 . S
H965 C974 0.930 . S
H966 C976 0.930 . S
H967 C979 0.929 . S
H968 C982 0.930 . S
H969 C984 0.960 . S
H970 C984 0.960 . S
H971 C984 0.960 . S
C972 H964 0.929 . S
C972 C973 1.377 . S
C972 C974 1.384 . S
C973 C972 1.377 . S
C973 C979 1.390 . S
C974 H965 0.930 . S
C974 C972 1.384 . S
C974 C975 1.372 . S
C975 C974 1.372 . S
C975 C976 1.400 . S
C975 C980 1.490 . S
C976 H966 0.930 . S
C976 C975 1.400 . S
C976 C979 1.386 . S
H977 C993 0.930 . S
H978 C994 0.931 . S
C979 H967 0.929 . S
C979 C973 1.390 . S
C979 C976 1.386 . S
C980 C975 1.490 . S
C980 C982 1.395 . S
C980 C983 1.403 . S
H981 C987 0.930 . S
C982 H968 0.930 . S
C982 C980 1.395 . S
C982 C985 1.403 . S
C983 C980 1.403 . S
C983 C984 1.524 . S
C983 C987 1.400 . S
C984 H969 0.960 . S
C984 H970 0.960 . S
C984 H971 0.960 . S
C984 C983 1.524 . S
C985 C982 1.403 . S
C985 C986 1.392 . S
C985 C989 1.495 . S
C986 C985 1.392 . S
C986 C987 1.385 . S
C986 C988 1.478 . S
C987 H981 0.930 . S
C987 C983 1.400 . S
C987 C986 1.385 . S
C988 C986 1.478 . S
C988 C990 1.381 . S
C988 C994 1.383 . S
C989 C985 1.495 . S
C989 H995 0.959 . S
C989 H996 0.961 . S
C989 H997 0.960 . S
C990 C988 1.381 . S
C990 C991 1.394 . S
C990 H998 0.930 . S
C991 C990 1.394 . S
C991 C992 1.383 . S
C991 H999 0.929 . S
C992 C991 1.383 . S
C992 C993 1.377 . S
C993 H977 0.930 . S
C993 C992 1.377 . S
C993 C994 1.379 . S
C994 H978 0.931 . S
C994 C988 1.383 . S
C994 C993 1.379 . S
H995 C989 0.959 . S
H996 C989 0.961 . S
H997 C989 0.960 . S
H998 C990 0.930 . S
H999 C991 0.929 . S
H1000 C1008 0.929 . S
H1001 C1010 0.930 . S
H1002 C1012 0.930 . S
H1003 C1015 0.929 . S
H1004 C1018 0.930 . S
H1005 C1020 0.960 . S
H1006 C1020 0.960 . S
H1007 C1020 0.960 . S
C1008 H1000 0.929 . S
C1008 C1009 1.377 . S
C1008 C1010 1.384 . S
C1009 C1008 1.377 . S
C1009 C1015 1.390 . S
C1010 H1001 0.930 . S
C1010 C1008 1.384 . S
C1010 C1011 1.372 . S
C1011 C1010 1.372 . S
C1011 C1012 1.400 . S
C1011 C1016 1.490 . S
C1012 H1002 0.930 . S
C1012 C1011 1.400 . S
C1012 C1015 1.386 . S
H1013 C1029 0.930 . S
H1014 C1030 0.931 . S
C1015 H1003 0.929 . S
C1015 C1009 1.390 . S
C1015 C1012 1.386 . S
C1016 C1011 1.490 . S
C1016 C1018 1.395 . S
C1016 C1019 1.403 . S
H1017 C1023 0.930 . S
C1018 H1004 0.930 . S
C1018 C1016 1.395 . S
C1018 C1021 1.403 . S
C1019 C1016 1.403 . S
C1019 C1020 1.524 . S
C1019 C1023 1.400 . S
C1020 H1005 0.960 . S
C1020 H1006 0.960 . S
C1020 H1007 0.960 . S
C1020 C1019 1.524 . S
C1021 C1018 1.403 . S
C1021 C1022 1.392 . S
C1021 C1025 1.495 . S
C1022 C1021 1.392 . S
C1022 C1023 1.385 . S
C1022 C1024 1.478 . S
C1023 H1017 0.930 . S
C1023 C1019 1.400 . S
C1023 C1022 1.385 . S
C1024 C1022 1.478 . S
C1024 C1026 1.381 . S
C1024 C1030 1.383 . S
C1025 C1021 1.495 . S
C1025 H1031 0.959 . S
C1025 H1032 0.961 . S
C1025 H1033 0.960 . S
C1026 C1024 1.381 . S
C1026 C1027 1.394 . S
C1026 H1034 0.930 . S
C1027 C1026 1.394 . S
C1027 C1028 1.383 . S
C1027 H1035 0.929 . S
C1028 C1027 1.383 . S
C1028 C1029 1.377 . S
C1029 H1013 0.930 . S
C1029 C1028 1.377 . S
C1029 C1030 1.379 . S
C1030 H1014 0.931 . S
C1030 C1024 1.383 . S
C1030 C1029 1.379 . S
H1031 C1025 0.959 . S
H1032 C1025 0.961 . S
H1033 C1025 0.960 . S
H1034 C1026 0.930 . S
H1035 C1027 0.929 . S
H1036 C1044 0.929 . S
H1037 C1046 0.930 . S
H1038 C1048 0.930 . S
H1039 C1051 0.929 . S
H1040 C1054 0.930 . S
H1041 C1056 0.960 . S
H1042 C1056 0.960 . S
H1043 C1056 0.960 . S
C1044 H1036 0.929 . S
C1044 C1045 1.377 . S
C1044 C1046 1.384 . S
C1045 C1044 1.377 . S
C1045 C1051 1.390 . S
C1046 H1037 0.930 . S
C1046 C1044 1.384 . S
C1046 C1047 1.372 . S
C1047 C1046 1.372 . S
C1047 C1048 1.400 . S
C1047 C1052 1.490 . S
C1048 H1038 0.930 . S
C1048 C1047 1.400 . S
C1048 C1051 1.386 . S
H1049 C1065 0.930 . S
H1050 C1066 0.931 . S
C1051 H1039 0.929 . S
C1051 C1045 1.390 . S
C1051 C1048 1.386 . S
C1052 C1047 1.490 . S
C1052 C1054 1.395 . S
C1052 C1055 1.403 . S
H1053 C1059 0.930 . S
C1054 H1040 0.930 . S
C1054 C1052 1.395 . S
C1054 C1057 1.403 . S
C1055 C1052 1.403 . S
C1055 C1056 1.524 . S
C1055 C1059 1.400 . S
C1056 H1041 0.960 . S
C1056 H1042 0.960 . S
C1056 H1043 0.960 . S
C1056 C1055 1.524 . S
C1057 C1054 1.403 . S
C1057 C1058 1.392 . S
C1057 C1061 1.495 . S
C1058 C1057 1.392 . S
C1058 C1059 1.385 . S
C1058 C1060 1.478 . S
C1059 H1053 0.930 . S
C1059 C1055 1.400 . S
C1059 C1058 1.385 . S
C1060 C1058 1.478 . S
C1060 C1062 1.381 . S
C1060 C1066 1.383 . S
C1061 C1057 1.495 . S
C1061 H1067 0.959 . S
C1061 H1068 0.961 . S
C1061 H1069 0.960 . S
C1062 C1060 1.381 . S
C1062 C1063 1.394 . S
C1062 H1070 0.930 . S
C1063 C1062 1.394 . S
C1063 C1064 1.383 . S
C1063 H1071 0.929 . S
C1064 C1063 1.383 . S
C1064 C1065 1.377 . S
C1065 H1049 0.930 . S
C1065 C1064 1.377 . S
C1065 C1066 1.379 . S
C1066 H1050 0.931 . S
C1066 C1060 1.383 . S
C1066 C1065 1.379 . S
H1067 C1061 0.959 . S
H1068 C1061 0.961 . S
H1069 C1061 0.960 . S
H1070 C1062 0.930 . S
H1071 C1063 0.929 . S
H1072 C1080 0.929 . S
H1073 C1082 0.930 . S
H1074 C1084 0.930 . S
H1075 C1087 0.929 . S
H1076 C1090 0.930 . S
H1077 C1092 0.960 . S
H1078 C1092 0.960 . S
H1079 C1092 0.960 . S
C1080 H1072 0.929 . S
C1080 C1081 1.377 . S
C1080 C1082 1.384 . S
C1081 C1080 1.377 . S
C1081 C1087 1.390 . S
C1082 H1073 0.930 . S
C1082 C1080 1.384 . S
C1082 C1083 1.372 . S
C1083 C1082 1.372 . S
C1083 C1084 1.400 . S
C1083 C1088 1.490 . S
C1084 H1074 0.930 . S
C1084 C1083 1.400 . S
C1084 C1087 1.386 . S
H1085 C1101 0.930 . S
H1086 C1102 0.931 . S
C1087 H1075 0.929 . S
C1087 C1081 1.390 . S
C1087 C1084 1.386 . S
C1088 C1083 1.490 . S
C1088 C1090 1.395 . S
C1088 C1091 1.403 . S
H1089 C1095 0.930 . S
C1090 H1076 0.930 . S
C1090 C1088 1.395 . S
C1090 C1093 1.403 . S
C1091 C1088 1.403 . S
C1091 C1092 1.524 . S
C1091 C1095 1.400 . S
C1092 H1077 0.960 . S
C1092 H1078 0.960 . S
C1092 H1079 0.960 . S
C1092 C1091 1.524 . S
C1093 C1090 1.403 . S
C1093 C1094 1.392 . S
C1093 C1097 1.495 . S
C1094 C1093 1.392 . S
C1094 C1095 1.385 . S
C1094 C1096 1.478 . S
C1095 H1089 0.930 . S
C1095 C1091 1.400 . S
C1095 C1094 1.385 . S
C1096 C1094 1.478 . S
C1096 C1098 1.381 . S
C1096 C1102 1.383 . S
C1097 C1093 1.495 . S
C1097 H1103 0.959 . S
C1097 H1104 0.961 . S
C1097 H1105 0.960 . S
C1098 C1096 1.381 . S
C1098 C1099 1.394 . S
C1098 H1106 0.930 . S
C1099 C1098 1.394 . S
C1099 C1100 1.383 . S
C1099 H1107 0.929 . S
C1100 C1099 1.383 . S
C1100 C1101 1.377 . S
C1101 H1085 0.930 . S
C1101 C1100 1.377 . S
C1101 C1102 1.379 . S
C1102 H1086 0.931 . S
C1102 C1096 1.383 . S
C1102 C1101 1.379 . S
H1103 C1097 0.959 . S
H1104 C1097 0.961 . S
H1105 C1097 0.960 . S
H1106 C1098 0.930 . S
H1107 C1099 0.929 . S
H1108 C1116 0.929 . S
H1109 C1118 0.930 . S
H1110 C1120 0.930 . S
H1111 C1123 0.929 . S
H1112 C1126 0.930 . S
H1113 C1128 0.960 . S
H1114 C1128 0.960 . S
H1115 C1128 0.960 . S
C1116 H1108 0.929 . S
C1116 C1117 1.377 . S
C1116 C1118 1.384 . S
C1117 C1116 1.377 . S
C1117 C1123 1.390 . S
C1118 H1109 0.930 . S
C1118 C1116 1.384 . S
C1118 C1119 1.372 . S
C1119 C1118 1.372 . S
C1119 C1120 1.400 . S
C1119 C1124 1.490 . S
C1120 H1110 0.930 . S
C1120 C1119 1.400 . S
C1120 C1123 1.386 . S
H1121 C1137 0.930 . S
H1122 C1138 0.931 . S
C1123 H1111 0.929 . S
C1123 C1117 1.390 . S
C1123 C1120 1.386 . S
C1124 C1119 1.490 . S
C1124 C1126 1.395 . S
C1124 C1127 1.403 . S
H1125 C1131 0.930 . S
C1126 H1112 0.930 . S
C1126 C1124 1.395 . S
C1126 C1129 1.403 . S
C1127 C1124 1.403 . S
C1127 C1128 1.524 . S
C1127 C1131 1.400 . S
C1128 H1113 0.960 . S
C1128 H1114 0.960 . S
C1128 H1115 0.960 . S
C1128 C1127 1.524 . S
C1129 C1126 1.403 . S
C1129 C1130 1.392 . S
C1129 C1133 1.495 . S
C1130 C1129 1.392 . S
C1130 C1131 1.385 . S
C1130 C1132 1.478 . S
C1131 H1125 0.930 . S
C1131 C1127 1.400 . S
C1131 C1130 1.385 . S
C1132 C1130 1.478 . S
C1132 C1134 1.381 . S
C1132 C1138 1.383 . S
C1133 C1129 1.495 . S
C1133 H1139 0.959 . S
C1133 H1140 0.961 . S
C1133 H1141 0.960 . S
C1134 C1132 1.381 . S
C1134 C1135 1.394 . S
C1134 H1142 0.930 . S
C1135 C1134 1.394 . S
C1135 C1136 1.383 . S
C1135 H1143 0.929 . S
C1136 C1135 1.383 . S
C1136 C1137 1.377 . S
C1137 H1121 0.930 . S
C1137 C1136 1.377 . S
C1137 C1138 1.379 . S
C1138 H1122 0.931 . S
C1138 C1132 1.383 . S
C1138 C1137 1.379 . S
H1139 C1133 0.959 . S
H1140 C1133 0.961 . S
H1141 C1133 0.960 . S
H1142 C1134 0.930 . S
H1143 C1135 0.929 . S
H1144 C1152 0.929 . S
H1145 C1154 0.930 . S
H1146 C1156 0.930 . S
H1147 C1159 0.929 . S
H1148 C1162 0.930 . S
H1149 C1164 0.960 . S
H1150 C1164 0.960 . S
H1151 C1164 0.960 . S
C1152 H1144 0.929 . S
C1152 C1153 1.377 . S
C1152 C1154 1.384 . S
C1153 C1152 1.377 . S
C1153 C1159 1.390 . S
C1154 H1145 0.930 . S
C1154 C1152 1.384 . S
C1154 C1155 1.372 . S
C1155 C1154 1.372 . S
C1155 C1156 1.400 . S
C1155 C1160 1.490 . S
C1156 H1146 0.930 . S
C1156 C1155 1.400 . S
C1156 C1159 1.386 . S
H1157 C1173 0.930 . S
H1158 C1174 0.931 . S
C1159 H1147 0.929 . S
C1159 C1153 1.390 . S
C1159 C1156 1.386 . S
C1160 C1155 1.490 . S
C1160 C1162 1.395 . S
C1160 C1163 1.403 . S
H1161 C1167 0.930 . S
C1162 H1148 0.930 . S
C1162 C1160 1.395 . S
C1162 C1165 1.403 . S
C1163 C1160 1.403 . S
C1163 C1164 1.524 . S
C1163 C1167 1.400 . S
C1164 H1149 0.960 . S
C1164 H1150 0.960 . S
C1164 H1151 0.960 . S
C1164 C1163 1.524 . S
C1165 C1162 1.403 . S
C1165 C1166 1.392 . S
C1165 C1169 1.495 . S
C1166 C1165 1.392 . S
C1166 C1167 1.385 . S
C1166 C1168 1.478 . S
C1167 H1161 0.930 . S
C1167 C1163 1.400 . S
C1167 C1166 1.385 . S
C1168 C1166 1.478 . S
C1168 C1170 1.381 . S
C1168 C1174 1.383 . S
C1169 C1165 1.495 . S
C1169 H1175 0.959 . S
C1169 H1176 0.961 . S
C1169 H1177 0.960 . S
C1170 C1168 1.381 . S
C1170 C1171 1.394 . S
C1170 H1178 0.930 . S
C1171 C1170 1.394 . S
C1171 C1172 1.383 . S
C1171 H1179 0.929 . S
C1172 C1171 1.383 . S
C1172 C1173 1.377 . S
C1173 H1157 0.930 . S
C1173 C1172 1.377 . S
C1173 C1174 1.379 . S
C1174 H1158 0.931 . S
C1174 C1168 1.383 . S
C1174 C1173 1.379 . S
H1175 C1169 0.959 . S
H1176 C1169 0.961 . S
H1177 C1169 0.960 . S
H1178 C1170 0.930 . S
H1179 C1171 0.929 . S
H1180 C1188 0.929 . S
H1181 C1190 0.930 . S
H1182 C1192 0.930 . S
H1183 C1195 0.929 . S
H1184 C1198 0.930 . S
H1185 C1200 0.960 . S
H1186 C1200 0.960 . S
H1187 C1200 0.960 . S
C1188 H1180 0.929 . S
C1188 C1189 1.377 . S
C1188 C1190 1.384 . S
C1189 C1188 1.377 . S
C1189 C1195 1.390 . S
C1190 H1181 0.930 . S
C1190 C1188 1.384 . S
C1190 C1191 1.372 . S
C1191 C1190 1.372 . S
C1191 C1192 1.400 . S
C1191 C1196 1.490 . S
C1192 H1182 0.930 . S
C1192 C1191 1.400 . S
C1192 C1195 1.386 . S
H1193 C1209 0.930 . S
H1194 C1210 0.931 . S
C1195 H1183 0.929 . S
C1195 C1189 1.390 . S
C1195 C1192 1.386 . S
C1196 C1191 1.490 . S
C1196 C1198 1.395 . S
C1196 C1199 1.403 . S
H1197 C1203 0.930 . S
C1198 H1184 0.930 . S
C1198 C1196 1.395 . S
C1198 C1201 1.403 . S
C1199 C1196 1.403 . S
C1199 C1200 1.524 . S
C1199 C1203 1.400 . S
C1200 H1185 0.960 . S
C1200 H1186 0.960 . S
C1200 H1187 0.960 . S
C1200 C1199 1.524 . S
C1201 C1198 1.403 . S
C1201 C1202 1.392 . S
C1201 C1205 1.495 . S
C1202 C1201 1.392 . S
C1202 C1203 1.385 . S
C1202 C1204 1.478 . S
C1203 H1197 0.930 . S
C1203 C1199 1.400 . S
C1203 C1202 1.385 . S
C1204 C1202 1.478 . S
C1204 C1206 1.381 . S
C1204 C1210 1.383 . S
C1205 C1201 1.495 . S
C1205 H1211 0.959 . S
C1205 H1212 0.961 . S
C1205 H1213 0.960 . S
C1206 C1204 1.381 . S
C1206 C1207 1.394 . S
C1206 H1214 0.930 . S
C1207 C1206 1.394 . S
C1207 C1208 1.383 . S
C1207 H1215 0.929 . S
C1208 C1207 1.383 . S
C1208 C1209 1.377 . S
C1209 H1193 0.930 . S
C1209 C1208 1.377 . S
C1209 C1210 1.379 . S
C1210 H1194 0.931 . S
C1210 C1204 1.383 . S
C1210 C1209 1.379 . S
H1211 C1205 0.959 . S
H1212 C1205 0.961 . S
H1213 C1205 0.960 . S
H1214 C1206 0.930 . S
H1215 C1207 0.929 . S
H1216 C1224 0.929 . S
H1217 C1226 0.930 . S
H1218 C1228 0.930 . S
H1219 C1231 0.929 . S
H1220 C1234 0.930 . S
H1221 C1236 0.960 . S
H1222 C1236 0.960 . S
H1223 C1236 0.960 . S
C1224 H1216 0.929 . S
C1224 C1225 1.377 . S
C1224 C1226 1.384 . S
C1225 C1224 1.377 . S
C1225 C1231 1.390 . S
C1226 H1217 0.930 . S
C1226 C1224 1.384 . S
C1226 C1227 1.372 . S
C1227 C1226 1.372 . S
C1227 C1228 1.400 . S
C1227 C1232 1.490 . S
C1228 H1218 0.930 . S
C1228 C1227 1.400 . S
C1228 C1231 1.386 . S
H1229 C1245 0.930 . S
H1230 C1246 0.931 . S
C1231 H1219 0.929 . S
C1231 C1225 1.390 . S
C1231 C1228 1.386 . S
C1232 C1227 1.490 . S
C1232 C1234 1.395 . S
C1232 C1235 1.403 . S
H1233 C1239 0.930 . S
C1234 H1220 0.930 . S
C1234 C1232 1.395 . S
C1234 C1237 1.403 . S
C1235 C1232 1.403 . S
C1235 C1236 1.524 . S
C1235 C1239 1.400 . S
C1236 H1221 0.960 . S
C1236 H1222 0.960 . S
C1236 H1223 0.960 . S
C1236 C1235 1.524 . S
C1237 C1234 1.403 . S
C1237 C1238 1.392 . S
C1237 C1241 1.495 . S
C1238 C1237 1.392 . S
C1238 C1239 1.385 . S
C1238 C1240 1.478 . S
C1239 H1233 0.930 . S
C1239 C1235 1.400 . S
C1239 C1238 1.385 . S
C1240 C1238 1.478 . S
C1240 C1242 1.381 . S
C1240 C1246 1.383 . S
C1241 C1237 1.495 . S
C1241 H1247 0.959 . S
C1241 H1248 0.961 . S
C1241 H1249 0.960 . S
C1242 C1240 1.381 . S
C1242 C1243 1.394 . S
C1242 H1250 0.930 . S
C1243 C1242 1.394 . S
C1243 C1244 1.383 . S
C1243 H1251 0.929 . S
C1244 C1243 1.383 . S
C1244 C1245 1.377 . S
C1245 H1229 0.930 . S
C1245 C1244 1.377 . S
C1245 C1246 1.379 . S
C1246 H1230 0.931 . S
C1246 C1240 1.383 . S
C1246 C1245 1.379 . S
H1247 C1241 0.959 . S
H1248 C1241 0.961 . S
H1249 C1241 0.960 . S
H1250 C1242 0.930 . S
H1251 C1243 0.929 . S
H1252 C1260 0.929 . S
H1253 C1262 0.930 . S
H1254 C1264 0.930 . S
H1255 C1267 0.929 . S
H1256 C1270 0.930 . S
H1257 C1272 0.960 . S
H1258 C1272 0.960 . S
H1259 C1272 0.960 . S
C1260 H1252 0.929 . S
C1260 C1261 1.377 . S
C1260 C1262 1.384 . S
C1261 C1260 1.377 . S
C1261 C1267 1.390 . S
C1262 H1253 0.930 . S
C1262 C1260 1.384 . S
C1262 C1263 1.372 . S
C1263 C1262 1.372 . S
C1263 C1264 1.400 . S
C1263 C1268 1.490 . S
C1264 H1254 0.930 . S
C1264 C1263 1.400 . S
C1264 C1267 1.386 . S
H1265 C1281 0.930 . S
H1266 C1282 0.931 . S
C1267 H1255 0.929 . S
C1267 C1261 1.390 . S
C1267 C1264 1.386 . S
C1268 C1263 1.490 . S
C1268 C1270 1.395 . S
C1268 C1271 1.403 . S
H1269 C1275 0.930 . S
C1270 H1256 0.930 . S
C1270 C1268 1.395 . S
C1270 C1273 1.403 . S
C1271 C1268 1.403 . S
C1271 C1272 1.524 . S
C1271 C1275 1.400 . S
C1272 H1257 0.960 . S
C1272 H1258 0.960 . S
C1272 H1259 0.960 . S
C1272 C1271 1.524 . S
C1273 C1270 1.403 . S
C1273 C1274 1.392 . S
C1273 C1277 1.495 . S
C1274 C1273 1.392 . S
C1274 C1275 1.385 . S
C1274 C1276 1.478 . S
C1275 H1269 0.930 . S
C1275 C1271 1.400 . S
C1275 C1274 1.385 . S
C1276 C1274 1.478 . S
C1276 C1278 1.381 . S
C1276 C1282 1.383 . S
C1277 C1273 1.495 . S
C1277 H1283 0.959 . S
C1277 H1284 0.961 . S
C1277 H1285 0.960 . S
C1278 C1276 1.381 . S
C1278 C1279 1.394 . S
C1278 H1286 0.930 . S
C1279 C1278 1.394 . S
C1279 C1280 1.383 . S
C1279 H1287 0.929 . S
C1280 C1279 1.383 . S
C1280 C1281 1.377 . S
C1281 H1265 0.930 . S
C1281 C1280 1.377 . S
C1281 C1282 1.379 . S
C1282 H1266 0.931 . S
C1282 C1276 1.383 . S
C1282 C1281 1.379 . S
H1283 C1277 0.959 . S
H1284 C1277 0.961 . S
H1285 C1277 0.960 . S
H1286 C1278 0.930 . S
H1287 C1279 0.929 . S
H1288 C1296 0.929 . S
H1289 C1298 0.930 . S
H1290 C1300 0.930 . S
H1291 C1303 0.929 . S
H1292 C1306 0.930 . S
H1293 C1308 0.960 . S
H1294 C1308 0.960 . S
H1295 C1308 0.960 . S
C1296 H1288 0.929 . S
C1296 C1297 1.377 . S
C1296 C1298 1.384 . S
C1297 C1296 1.377 . S
C1297 C1303 1.390 . S
C1298 H1289 0.930 . S
C1298 C1296 1.384 . S
C1298 C1299 1.372 . S
C1299 C1298 1.372 . S
C1299 C1300 1.400 . S
C1299 C1304 1.490 . S
C1300 H1290 0.930 . S
C1300 C1299 1.400 . S
C1300 C1303 1.386 . S
H1301 C1317 0.930 . S
H1302 C1318 0.931 . S
C1303 H1291 0.929 . S
C1303 C1297 1.390 . S
C1303 C1300 1.386 . S
C1304 C1299 1.490 . S
C1304 C1306 1.395 . S
C1304 C1307 1.403 . S
H1305 C1311 0.930 . S
C1306 H1292 0.930 . S
C1306 C1304 1.395 . S
C1306 C1309 1.403 . S
C1307 C1304 1.403 . S
C1307 C1308 1.524 . S
C1307 C1311 1.400 . S
C1308 H1293 0.960 . S
C1308 H1294 0.960 . S
C1308 H1295 0.960 . S
C1308 C1307 1.524 . S
C1309 C1306 1.403 . S
C1309 C1310 1.392 . S
C1309 C1313 1.495 . S
C1310 C1309 1.392 . S
C1310 C1311 1.385 . S
C1310 C1312 1.478 . S
C1311 H1305 0.930 . S
C1311 C1307 1.400 . S
C1311 C1310 1.385 . S
C1312 C1310 1.478 . S
C1312 C1314 1.381 . S
C1312 C1318 1.383 . S
C1313 C1309 1.495 . S
C1313 H1319 0.959 . S
C1313 H1320 0.961 . S
C1313 H1321 0.960 . S
C1314 C1312 1.381 . S
C1314 C1315 1.394 . S
C1314 H1322 0.930 . S
C1315 C1314 1.394 . S
C1315 C1316 1.383 . S
C1315 H1323 0.929 . S
C1316 C1315 1.383 . S
C1316 C1317 1.377 . S
C1317 H1301 0.930 . S
C1317 C1316 1.377 . S
C1317 C1318 1.379 . S
C1318 H1302 0.931 . S
C1318 C1312 1.383 . S
C1318 C1317 1.379 . S
H1319 C1313 0.959 . S
H1320 C1313 0.961 . S
H1321 C1313 0.960 . S
H1322 C1314 0.930 . S
H1323 C1315 0.929 . S
H1324 C1332 0.929 . S
H1325 C1334 0.930 . S
H1326 C1336 0.930 . S
H1327 C1339 0.929 . S
H1328 C1342 0.930 . S
H1329 C1344 0.960 . S
H1330 C1344 0.960 . S
H1331 C1344 0.960 . S
C1332 H1324 0.929 . S
C1332 C1333 1.377 . S
C1332 C1334 1.384 . S
C1333 C1332 1.377 . S
C1333 C1339 1.390 . S
C1334 H1325 0.930 . S
C1334 C1332 1.384 . S
C1334 C1335 1.372 . S
C1335 C1334 1.372 . S
C1335 C1336 1.400 . S
C1335 C1340 1.490 . S
C1336 H1326 0.930 . S
C1336 C1335 1.400 . S
C1336 C1339 1.386 . S
H1337 C1353 0.930 . S
H1338 C1354 0.931 . S
C1339 H1327 0.929 . S
C1339 C1333 1.390 . S
C1339 C1336 1.386 . S
C1340 C1335 1.490 . S
C1340 C1342 1.395 . S
C1340 C1343 1.403 . S
H1341 C1347 0.930 . S
C1342 H1328 0.930 . S
C1342 C1340 1.395 . S
C1342 C1345 1.403 . S
C1343 C1340 1.403 . S
C1343 C1344 1.524 . S
C1343 C1347 1.400 . S
C1344 H1329 0.960 . S
C1344 H1330 0.960 . S
C1344 H1331 0.960 . S
C1344 C1343 1.524 . S
C1345 C1342 1.403 . S
C1345 C1346 1.392 . S
C1345 C1349 1.495 . S
C1346 C1345 1.392 . S
C1346 C1347 1.385 . S
C1346 C1348 1.478 . S
C1347 H1341 0.930 . S
C1347 C1343 1.400 . S
C1347 C1346 1.385 . S
C1348 C1346 1.478 . S
C1348 C1350 1.381 . S
C1348 C1354 1.383 . S
C1349 C1345 1.495 . S
C1349 H1355 0.959 . S
C1349 H1356 0.961 . S
C1349 H1357 0.960 . S
C1350 C1348 1.381 . S
C1350 C1351 1.394 . S
C1350 H1358 0.930 . S
C1351 C1350 1.394 . S
C1351 C1352 1.383 . S
C1351 H1359 0.929 . S
C1352 C1351 1.383 . S
C1352 C1353 1.377 . S
C1353 H1337 0.930 . S
C1353 C1352 1.377 . S
C1353 C1354 1.379 . S
C1354 H1338 0.931 . S
C1354 C1348 1.383 . S
C1354 C1353 1.379 . S
H1355 C1349 0.959 . S
H1356 C1349 0.961 . S
H1357 C1349 0.960 . S
H1358 C1350 0.930 . S
H1359 C1351 0.929 . S
H1360 C1368 0.929 . S
H1361 C1370 0.930 . S
H1362 C1372 0.930 . S
H1363 C1375 0.929 . S
H1364 C1378 0.930 . S
H1365 C1380 0.960 . S
H1366 C1380 0.960 . S
H1367 C1380 0.960 . S
C1368 H1360 0.929 . S
C1368 C1369 1.377 . S
C1368 C1370 1.384 . S
C1369 C1368 1.377 . S
C1369 C1375 1.390 . S
C1370 H1361 0.930 . S
C1370 C1368 1.384 . S
C1370 C1371 1.372 . S
C1371 C1370 1.372 . S
C1371 C1372 1.400 . S
C1371 C1376 1.490 . S
C1372 H1362 0.930 . S
C1372 C1371 1.400 . S
C1372 C1375 1.386 . S
H1373 C1389 0.930 . S
H1374 C1390 0.931 . S
C1375 H1363 0.929 . S
C1375 C1369 1.390 . S
C1375 C1372 1.386 . S
C1376 C1371 1.490 . S
C1376 C1378 1.395 1_545 S
C1376 C1379 1.403 . S
H1377 C1383 0.930 . S
C1378 H1364 0.930 . S
C1378 C1376 1.395 1_565 S
C1378 C1381 1.403 . S
C1379 C1376 1.403 . S
C1379 C1380 1.524 . S
C1379 C1383 1.400 . S
C1380 H1365 0.960 . S
C1380 H1366 0.960 . S
C1380 H1367 0.960 . S
C1380 C1379 1.524 . S
C1381 C1378 1.403 . S
C1381 C1382 1.392 . S
C1381 C1385 1.495 . S
C1382 C1381 1.392 . S
C1382 C1383 1.385 1_565 S
C1382 C1384 1.478 . S
C1383 H1377 0.930 . S
C1383 C1379 1.400 . S
C1383 C1382 1.385 1_545 S
C1384 C1382 1.478 . S
C1384 C1386 1.381 . S
C1384 C1390 1.383 . S
C1385 C1381 1.495 . S
C1385 H1391 0.959 . S
C1385 H1392 0.961 . S
C1385 H1393 0.960 . S
C1386 C1384 1.381 . S
C1386 C1387 1.394 . S
C1386 H1394 0.930 . S
C1387 C1386 1.394 . S
C1387 C1388 1.383 . S
C1387 H1395 0.929 . S
C1388 C1387 1.383 . S
C1388 C1389 1.377 . S
C1389 H1373 0.930 . S
C1389 C1388 1.377 . S
C1389 C1390 1.379 . S
C1390 H1374 0.931 . S
C1390 C1384 1.383 . S
C1390 C1389 1.379 . S
H1391 C1385 0.959 . S
H1392 C1385 0.961 . S
H1393 C1385 0.960 . S
H1394 C1386 0.930 . S
H1395 C1387 0.929 . S
H1396 C1404 0.929 . S
H1397 C1406 0.930 . S
H1398 C1408 0.930 . S
H1399 C1411 0.929 . S
H1400 C1414 0.930 . S
H1401 C1416 0.960 . S
H1402 C1416 0.960 . S
H1403 C1416 0.960 . S
C1404 H1396 0.929 . S
C1404 C1405 1.377 . S
C1404 C1406 1.384 . S
C1405 C1404 1.377 . S
C1405 C1411 1.390 . S
C1406 H1397 0.930 . S
C1406 C1404 1.384 . S
C1406 C1407 1.372 . S
C1407 C1406 1.372 . S
C1407 C1408 1.400 . S
C1407 C1412 1.490 . S
C1408 H1398 0.930 . S
C1408 C1407 1.400 . S
C1408 C1411 1.386 . S
H1409 C1425 0.930 . S
H1410 C1426 0.931 . S
C1411 H1399 0.929 . S
C1411 C1405 1.390 . S
C1411 C1408 1.386 . S
C1412 C1407 1.490 . S
C1412 C1414 1.395 . S
C1412 C1415 1.403 . S
H1413 C1419 0.930 . S
C1414 H1400 0.930 . S
C1414 C1412 1.395 . S
C1414 C1417 1.403 1_545 S
C1415 C1412 1.403 . S
C1415 C1416 1.524 . S
C1415 C1419 1.400 1_545 S
C1416 H1401 0.960 . S
C1416 H1402 0.960 . S
C1416 H1403 0.960 . S
C1416 C1415 1.524 . S
C1417 C1414 1.403 1_565 S
C1417 C1418 1.392 . S
C1417 C1421 1.495 . S
C1418 C1417 1.392 . S
C1418 C1419 1.385 . S
C1418 C1420 1.478 . S
C1419 H1413 0.930 . S
C1419 C1415 1.400 1_565 S
C1419 C1418 1.385 . S
C1420 C1418 1.478 . S
C1420 C1422 1.381 . S
C1420 C1426 1.383 . S
C1421 C1417 1.495 . S
C1421 H1427 0.959 . S
C1421 H1428 0.961 . S
C1421 H1429 0.960 . S
C1422 C1420 1.381 . S
C1422 C1423 1.394 . S
C1422 H1430 0.930 . S
C1423 C1422 1.394 . S
C1423 C1424 1.383 . S
C1423 H1431 0.929 . S
C1424 C1423 1.383 . S
C1424 C1425 1.377 . S
C1425 H1409 0.930 . S
C1425 C1424 1.377 . S
C1425 C1426 1.379 . S
C1426 H1410 0.931 . S
C1426 C1420 1.383 . S
C1426 C1425 1.379 . S
H1427 C1421 0.959 . S
H1428 C1421 0.961 . S
H1429 C1421 0.960 . S
H1430 C1422 0.930 . S
H1431 C1423 0.929 . S
H1432 C1440 0.929 . S
H1433 C1442 0.930 . S
H1434 C1444 0.930 . S
H1435 C1447 0.929 . S
H1436 C1450 0.930 . S
H1437 C1452 0.960 . S
H1438 C1452 0.960 . S
H1439 C1452 0.960 . S
C1440 H1432 0.929 . S
C1440 C1441 1.377 . S
C1440 C1442 1.384 . S
C1441 C1440 1.377 . S
C1441 C1447 1.390 . S
C1442 H1433 0.930 . S
C1442 C1440 1.384 . S
C1442 C1443 1.372 . S
C1443 C1442 1.372 . S
C1443 C1444 1.400 . S
C1443 C1448 1.490 . S
C1444 H1434 0.930 . S
C1444 C1443 1.400 . S
C1444 C1447 1.386 . S
H1445 C1461 0.930 . S
H1446 C1462 0.931 . S
C1447 H1435 0.929 . S
C1447 C1441 1.390 . S
C1447 C1444 1.386 . S
C1448 C1443 1.490 . S
C1448 C1450 1.395 . S
C1448 C1451 1.403 . S
H1449 C1455 0.930 . S
C1450 H1436 0.930 . S
C1450 C1448 1.395 . S
C1450 C1453 1.403 1_565 S
C1451 C1448 1.403 . S
C1451 C1452 1.524 . S
C1451 C1455 1.400 1_565 S
C1452 H1437 0.960 . S
C1452 H1438 0.960 . S
C1452 H1439 0.960 . S
C1452 C1451 1.524 . S
C1453 C1450 1.403 1_545 S
C1453 C1454 1.392 . S
C1453 C1457 1.495 . S
C1454 C1453 1.392 . S
C1454 C1455 1.385 . S
C1454 C1456 1.478 . S
C1455 H1449 0.930 . S
C1455 C1451 1.400 1_545 S
C1455 C1454 1.385 . S
C1456 C1454 1.478 . S
C1456 C1458 1.381 . S
C1456 C1462 1.383 . S
C1457 C1453 1.495 . S
C1457 H1463 0.959 . S
C1457 H1464 0.961 . S
C1457 H1465 0.960 . S
C1458 C1456 1.381 . S
C1458 C1459 1.394 . S
C1458 H1466 0.930 . S
C1459 C1458 1.394 . S
C1459 C1460 1.383 . S
C1459 H1467 0.929 . S
C1460 C1459 1.383 . S
C1460 C1461 1.377 . S
C1461 H1445 0.930 . S
C1461 C1460 1.377 . S
C1461 C1462 1.379 . S
C1462 H1446 0.931 . S
C1462 C1456 1.383 . S
C1462 C1461 1.379 . S
H1463 C1457 0.959 . S
H1464 C1457 0.961 . S
H1465 C1457 0.960 . S
H1466 C1458 0.930 . S
H1467 C1459 0.929 . S
H1468 C1476 0.929 . S
H1469 C1478 0.930 . S
H1470 C1480 0.930 . S
H1471 C1483 0.929 . S
H1472 C1486 0.930 . S
H1473 C1488 0.960 . S
H1474 C1488 0.960 . S
H1475 C1488 0.960 . S
C1476 H1468 0.929 . S
C1476 C1477 1.377 . S
C1476 C1478 1.384 . S
C1477 C1476 1.377 . S
C1477 C1483 1.390 . S
C1478 H1469 0.930 . S
C1478 C1476 1.384 . S
C1478 C1479 1.372 . S
C1479 C1478 1.372 . S
C1479 C1480 1.400 . S
C1479 C1484 1.490 . S
C1480 H1470 0.930 . S
C1480 C1479 1.400 . S
C1480 C1483 1.386 . S
H1481 C1497 0.930 . S
H1482 C1498 0.931 . S
C1483 H1471 0.929 . S
C1483 C1477 1.390 . S
C1483 C1480 1.386 . S
C1484 C1479 1.490 . S
C1484 C1486 1.395 . S
C1484 C1487 1.403 1_565 S
H1485 C1491 0.930 . S
C1486 H1472 0.930 . S
C1486 C1484 1.395 . S
C1486 C1489 1.403 . S
C1487 C1484 1.403 1_545 S
C1487 C1488 1.524 . S
C1487 C1491 1.400 . S
C1488 H1473 0.960 . S
C1488 H1474 0.960 . S
C1488 H1475 0.960 . S
C1488 C1487 1.524 . S
C1489 C1486 1.403 . S
C1489 C1490 1.392 1_565 S
C1489 C1493 1.495 . S
C1490 C1489 1.392 1_545 S
C1490 C1491 1.385 . S
C1490 C1492 1.478 . S
C1491 H1485 0.930 . S
C1491 C1487 1.400 . S
C1491 C1490 1.385 . S
C1492 C1490 1.478 . S
C1492 C1494 1.381 . S
C1492 C1498 1.383 . S
C1493 C1489 1.495 . S
C1493 H1499 0.959 . S
C1493 H1500 0.961 . S
C1493 H1501 0.960 . S
C1494 C1492 1.381 . S
C1494 C1495 1.394 . S
C1494 H1502 0.930 . S
C1495 C1494 1.394 . S
C1495 C1496 1.383 . S
C1495 H1503 0.929 . S
C1496 C1495 1.383 . S
C1496 C1497 1.377 . S
C1497 H1481 0.930 . S
C1497 C1496 1.377 . S
C1497 C1498 1.379 . S
C1498 H1482 0.931 . S
C1498 C1492 1.383 . S
C1498 C1497 1.379 . S
H1499 C1493 0.959 . S
H1500 C1493 0.961 . S
H1501 C1493 0.960 . S
H1502 C1494 0.930 . S
H1503 C1495 0.929 . S
H1504 C1512 0.929 . S
H1505 C1514 0.930 . S
H1506 C1516 0.930 1_554 S
H1507 C1519 0.929 . S
H1508 C1522 0.930 . S
H1509 C1524 0.960 . S
H1510 C1524 0.960 1_556 S
H1511 C1524 0.960 . S
C1512 H1504 0.929 . S
C1512 C1513 1.377 . S
C1512 C1514 1.384 . S
C1513 C1512 1.377 . S
C1513 C1519 1.390 . S
C1514 H1505 0.930 . S
C1514 C1512 1.384 . S
C1514 C1515 1.372 . S
C1515 C1514 1.372 . S
C1515 C1516 1.400 . S
C1515 C1520 1.490 . S
C1516 H1506 0.930 1_556 S
C1516 C1515 1.400 . S
C1516 C1519 1.386 . S
H1517 C1533 0.930 . S
H1518 C1534 0.931 . S
C1519 H1507 0.929 . S
C1519 C1513 1.390 . S
C1519 C1516 1.386 . S
C1520 C1515 1.490 . S
C1520 C1522 1.395 . S
C1520 C1523 1.403 1_556 S
H1521 C1527 0.930 . S
C1522 H1508 0.930 . S
C1522 C1520 1.395 . S
C1522 C1525 1.403 . S
C1523 C1520 1.403 1_554 S
C1523 C1524 1.524 . S
C1523 C1527 1.400 . S
C1524 H1509 0.960 . S
C1524 H1510 0.960 1_554 S
C1524 H1511 0.960 . S
C1524 C1523 1.524 . S
C1525 C1522 1.403 . S
C1525 C1526 1.392 1_556 S
C1525 C1529 1.495 . S
C1526 C1525 1.392 1_554 S
C1526 C1527 1.385 . S
C1526 C1528 1.478 . S
C1527 H1521 0.930 . S
C1527 C1523 1.400 . S
C1527 C1526 1.385 . S
C1528 C1526 1.478 . S
C1528 C1530 1.381 . S
C1528 C1534 1.383 . S
C1529 C1525 1.495 . S
C1529 H1535 0.959 . S
C1529 H1536 0.961 1_556 S
C1529 H1537 0.960 . S
C1530 C1528 1.381 . S
C1530 C1531 1.394 . S
C1530 H1538 0.930 1_554 S
C1531 C1530 1.394 . S
C1531 C1532 1.383 . S
C1531 H1539 0.929 . S
C1532 C1531 1.383 . S
C1532 C1533 1.377 . S
C1533 H1517 0.930 . S
C1533 C1532 1.377 . S
C1533 C1534 1.379 . S
C1534 H1518 0.931 . S
C1534 C1528 1.383 . S
C1534 C1533 1.379 . S
H1535 C1529 0.959 . S
H1536 C1529 0.961 1_554 S
H1537 C1529 0.960 . S
H1538 C1530 0.930 1_556 S
H1539 C1531 0.929 . S
H1540 C1548 0.929 . S
H1541 C1550 0.908 1_556 S
H1542 C1552 0.930 . S
H1543 C1555 0.929 . S
H1544 C1558 0.930 . S
H1545 C1560 0.972 . S
H1546 C1560 0.976 . S
H1547 C1560 0.934 1_554 S
C1548 H1540 0.929 . S
C1548 C1549 1.377 . S
C1548 C1550 1.384 . S
C1549 C1548 1.377 . S
C1549 C1555 1.390 . S
C1550 H1541 0.908 1_554 S
C1550 C1548 1.384 . S
C1550 C1551 1.372 . S
C1551 C1550 1.372 . S
C1551 C1552 1.400 . S
C1551 C1556 1.490 . S
C1552 H1542 0.930 . S
C1552 C1551 1.400 . S
C1552 C1555 1.386 . S
H1553 C1569 0.930 . S
H1554 C1570 0.931 1_554 S
C1555 H1543 0.929 . S
C1555 C1549 1.390 . S
C1555 C1552 1.386 . S
C1556 C1551 1.490 . S
C1556 C1558 1.395 . S
C1556 C1559 1.405 . S
H1557 C1563 0.930 . S
C1558 H1544 0.930 . S
C1558 C1556 1.395 . S
C1558 C1561 1.403 1_554 S
C1559 C1556 1.405 . S
C1559 C1560 1.523 1_554 S
C1559 C1563 1.397 1_554 S
C1560 H1545 0.972 . S
C1560 H1546 0.976 . S
C1560 H1547 0.934 1_556 S
C1560 C1559 1.523 1_556 S
C1561 C1558 1.403 1_556 S
C1561 C1562 1.392 . S
C1561 C1565 1.495 . S
C1562 C1561 1.392 . S
C1562 C1563 1.385 . S
C1562 C1564 1.478 . S
C1563 H1557 0.930 . S
C1563 C1559 1.397 1_556 S
C1563 C1562 1.385 . S
C1564 C1562 1.478 . S
C1564 C1566 1.381 . S
C1564 C1570 1.383 . S
C1565 C1561 1.495 . S
C1565 H1571 0.959 1_556 S
C1565 H1572 0.961 1_556 S
C1565 H1573 0.960 . S
C1566 C1564 1.381 . S
C1566 C1567 1.394 . S
C1566 H1574 0.930 . S
C1567 C1566 1.394 . S
C1567 C1568 1.383 . S
C1567 H1575 0.929 . S
C1568 C1567 1.383 . S
C1568 C1569 1.377 . S
C1569 H1553 0.930 . S
C1569 C1568 1.377 . S
C1569 C1570 1.379 . S
C1570 H1554 0.931 1_556 S
C1570 C1564 1.383 . S
C1570 C1569 1.379 . S
H1571 C1565 0.959 1_554 S
H1572 C1565 0.961 1_554 S
H1573 C1565 0.960 . S
H1574 C1566 0.930 . S
H1575 C1567 0.929 . S
H1576 C1584 0.929 . S
H1577 C1586 0.930 . S
H1578 C1588 0.930 . S
H1579 C1591 0.929 . S
H1580 C1594 0.930 . S
H1581 C1596 0.960 . S
H1582 C1596 0.960 . S
H1583 C1596 0.960 . S
C1584 H1576 0.929 . S
C1584 C1585 1.377 . S
C1584 C1586 1.384 . S
C1585 C1584 1.377 . S
C1585 C1591 1.390 . S
C1586 H1577 0.930 . S
C1586 C1584 1.384 . S
C1586 C1587 1.372 . S
C1587 C1586 1.372 . S
C1587 C1588 1.400 . S
C1587 C1592 1.490 . S
C1588 H1578 0.930 . S
C1588 C1587 1.400 . S
C1588 C1591 1.386 . S
H1589 C1605 0.930 . S
H1590 C1606 0.931 . S
C1591 H1579 0.929 . S
C1591 C1585 1.390 . S
C1591 C1588 1.386 . S
C1592 C1587 1.490 . S
C1592 C1594 1.395 . S
C1592 C1595 1.403 . S
H1593 C1599 0.930 . S
C1594 H1580 0.930 . S
C1594 C1592 1.395 . S
C1594 C1597 1.403 . S
C1595 C1592 1.403 . S
C1595 C1596 1.524 . S
C1595 C1599 1.400 . S
C1596 H1581 0.960 . S
C1596 H1582 0.960 . S
C1596 H1583 0.960 . S
C1596 C1595 1.524 . S
C1597 C1594 1.403 . S
C1597 C1598 1.392 . S
C1597 C1601 1.495 . S
C1598 C1597 1.392 . S
C1598 C1599 1.385 . S
C1598 C1600 1.478 . S
C1599 H1593 0.930 . S
C1599 C1595 1.400 . S
C1599 C1598 1.385 . S
C1600 C1598 1.478 . S
C1600 C1602 1.381 . S
C1600 C1606 1.383 . S
C1601 C1597 1.495 . S
C1601 H1607 0.959 . S
C1601 H1608 0.961 . S
C1601 H1609 0.960 . S
C1602 C1600 1.381 . S
C1602 C1603 1.394 . S
C1602 H1610 0.930 . S
C1603 C1602 1.394 . S
C1603 C1604 1.383 . S
C1603 H1611 0.929 . S
C1604 C1603 1.383 . S
C1604 C1605 1.377 . S
C1605 H1589 0.930 . S
C1605 C1604 1.377 . S
C1605 C1606 1.379 . S
C1606 H1590 0.931 . S
C1606 C1600 1.383 . S
C1606 C1605 1.379 . S
H1607 C1601 0.959 . S
H1608 C1601 0.961 . S
H1609 C1601 0.960 . S
H1610 C1602 0.930 . S
H1611 C1603 0.929 . S
H1612 C1620 0.929 . S
H1613 C1622 0.930 . S
H1614 C1624 0.930 . S
H1615 C1627 0.929 . S
H1616 C1630 0.930 . S
H1617 C1632 0.960 . S
H1618 C1632 0.960 . S
H1619 C1632 0.960 . S
C1620 H1612 0.929 . S
C1620 C1621 1.377 . S
C1620 C1622 1.384 . S
C1621 C1620 1.377 . S
C1621 C1627 1.390 . S
C1622 H1613 0.930 . S
C1622 C1620 1.384 . S
C1622 C1623 1.372 . S
C1623 C1622 1.372 . S
C1623 C1624 1.400 . S
C1623 C1628 1.490 . S
C1624 H1614 0.930 . S
C1624 C1623 1.400 . S
C1624 C1627 1.386 . S
H1625 C1641 0.930 . S
H1626 C1642 0.931 . S
C1627 H1615 0.929 . S
C1627 C1621 1.390 . S
C1627 C1624 1.386 . S
C1628 C1623 1.490 . S
C1628 C1630 1.395 . S
C1628 C1631 1.403 . S
H1629 C1635 0.930 . S
C1630 H1616 0.930 . S
C1630 C1628 1.395 . S
C1630 C1633 1.403 . S
C1631 C1628 1.403 . S
C1631 C1632 1.524 . S
C1631 C1635 1.400 . S
C1632 H1617 0.960 . S
C1632 H1618 0.960 . S
C1632 H1619 0.960 . S
C1632 C1631 1.524 . S
C1633 C1630 1.403 . S
C1633 C1634 1.392 . S
C1633 C1637 1.495 . S
C1634 C1633 1.392 . S
C1634 C1635 1.385 . S
C1634 C1636 1.478 . S
C1635 H1629 0.930 . S
C1635 C1631 1.400 . S
C1635 C1634 1.385 . S
C1636 C1634 1.478 . S
C1636 C1638 1.381 . S
C1636 C1642 1.383 . S
C1637 C1633 1.495 . S
C1637 H1643 0.959 . S
C1637 H1644 0.961 . S
C1637 H1645 0.960 . S
C1638 C1636 1.381 . S
C1638 C1639 1.394 . S
C1638 H1646 0.930 . S
C1639 C1638 1.394 . S
C1639 C1640 1.383 . S
C1639 H1647 0.929 . S
C1640 C1639 1.383 . S
C1640 C1641 1.377 . S
C1641 H1625 0.930 . S
C1641 C1640 1.377 . S
C1641 C1642 1.379 . S
C1642 H1626 0.931 . S
C1642 C1636 1.383 . S
C1642 C1641 1.379 . S
H1643 C1637 0.959 . S
H1644 C1637 0.961 . S
H1645 C1637 0.960 . S
H1646 C1638 0.930 . S
H1647 C1639 0.929 . S
H1648 C1656 0.929 . S
H1649 C1658 0.930 . S
H1650 C1660 0.930 1_554 S
H1651 C1663 0.929 . S
H1652 C1666 0.930 . S
H1653 C1668 0.960 . S
H1654 C1668 0.960 . S
H1655 C1668 0.960 . S
C1656 H1648 0.929 . S
C1656 C1657 1.377 . S
C1656 C1658 1.384 . S
C1657 C1656 1.377 . S
C1657 C1663 1.390 . S
C1658 H1649 0.930 . S
C1658 C1656 1.384 . S
C1658 C1659 1.372 . S
C1659 C1658 1.372 . S
C1659 C1660 1.400 . S
C1659 C1664 1.490 . S
C1660 H1650 0.930 1_556 S
C1660 C1659 1.400 . S
C1660 C1663 1.386 . S
H1661 C1677 0.930 . S
H1662 C1678 0.931 . S
C1663 H1651 0.929 . S
C1663 C1657 1.390 . S
C1663 C1660 1.386 . S
C1664 C1659 1.490 . S
C1664 C1666 1.395 . S
C1664 C1667 1.403 1_556 S
H1665 C1671 0.930 . S
C1666 H1652 0.930 . S
C1666 C1664 1.395 . S
C1666 C1669 1.403 . S
C1667 C1664 1.403 1_554 S
C1667 C1668 1.524 . S
C1667 C1671 1.400 . S
C1668 H1653 0.960 . S
C1668 H1654 0.960 . S
C1668 H1655 0.960 . S
C1668 C1667 1.524 . S
C1669 C1666 1.403 . S
C1669 C1670 1.392 1_556 S
C1669 C1673 1.495 . S
C1670 C1669 1.392 1_554 S
C1670 C1671 1.385 . S
C1670 C1672 1.478 . S
C1671 H1665 0.930 . S
C1671 C1667 1.400 . S
C1671 C1670 1.385 . S
C1672 C1670 1.478 . S
C1672 C1674 1.381 . S
C1672 C1678 1.383 . S
C1673 C1669 1.495 . S
C1673 H1679 0.959 . S
C1673 H1680 0.961 . S
C1673 H1681 0.960 . S
C1674 C1672 1.381 . S
C1674 C1675 1.394 . S
C1674 H1682 0.930 1_554 S
C1675 C1674 1.394 . S
C1675 C1676 1.383 . S
C1675 H1683 0.929 . S
C1676 C1675 1.383 . S
C1676 C1677 1.377 . S
C1677 H1661 0.930 . S
C1677 C1676 1.377 . S
C1677 C1678 1.379 . S
C1678 H1662 0.931 . S
C1678 C1672 1.383 . S
C1678 C1677 1.379 . S
H1679 C1673 0.959 . S
H1680 C1673 0.961 . S
H1681 C1673 0.960 . S
H1682 C1674 0.930 1_556 S
H1683 C1675 0.929 . S
H1684 C1692 0.929 . S
H1685 C1694 0.918 1_554 S
H1686 C1696 0.930 . S
H1687 C1699 0.929 . S
H1688 C1702 0.930 . S
H1689 C1704 0.960 . S
H1690 C1704 0.960 . S
H1691 C1704 0.960 1_556 S
C1692 H1684 0.929 . S
C1692 C1693 1.377 . S
C1692 C1694 1.384 . S
C1693 C1692 1.377 . S
C1693 C1699 1.390 . S
C1694 H1685 0.918 1_556 S
C1694 C1692 1.384 . S
C1694 C1695 1.372 . S
C1695 C1694 1.372 . S
C1695 C1696 1.400 . S
C1695 C1700 1.490 . S
C1696 H1686 0.930 . S
C1696 C1695 1.400 . S
C1696 C1699 1.386 . S
H1697 C1713 0.930 . S
H1698 C1714 0.931 1_556 S
C1699 H1687 0.929 . S
C1699 C1693 1.390 . S
C1699 C1696 1.386 . S
C1700 C1695 1.490 . S
C1700 C1702 1.395 . S
C1700 C1703 1.391 1_556 S
H1701 C1707 0.930 . S
C1702 H1688 0.930 . S
C1702 C1700 1.395 . S
C1702 C1705 1.386 1_556 S
C1703 C1700 1.391 1_554 S
C1703 C1704 1.526 . S
C1703 C1707 1.412 . S
C1704 H1689 0.960 . S
C1704 H1690 0.960 . S
C1704 H1691 0.960 1_554 S
C1704 C1703 1.526 . S
C1705 C1702 1.386 1_554 S
C1705 C1706 1.411 . S
C1705 C1709 1.495 . S
C1706 C1705 1.411 . S
C1706 C1707 1.385 . S
C1706 C1708 1.478 . S
C1707 H1701 0.930 . S
C1707 C1703 1.412 . S
C1707 C1706 1.385 . S
C1708 C1706 1.478 . S
C1708 C1710 1.381 . S
C1708 C1714 1.383 . S
C1709 C1705 1.495 . S
C1709 H1715 0.950 1_554 S
C1709 H1716 0.951 1_554 S
C1709 H1717 0.979 . S
C1710 C1708 1.381 . S
C1710 C1711 1.394 . S
C1710 H1718 0.930 . S
C1711 C1710 1.394 . S
C1711 C1712 1.383 . S
C1711 H1719 0.929 . S
C1712 C1711 1.383 . S
C1712 C1713 1.377 . S
C1713 H1697 0.930 . S
C1713 C1712 1.377 . S
C1713 C1714 1.379 . S
C1714 H1698 0.931 1_554 S
C1714 C1708 1.383 . S
C1714 C1713 1.379 . S
H1715 C1709 0.950 1_556 S
H1716 C1709 0.951 1_556 S
H1717 C1709 0.979 . S
H1718 C1710 0.930 . S
H1719 C1711 0.929 . S
H1720 C1728 0.929 . S
H1721 C1730 0.930 . S
H1722 C1732 0.930 . S
H1723 C1735 0.929 . S
H1724 C1738 0.930 . S
H1725 C1740 0.960 . S
H1726 C1740 0.960 . S
H1727 C1740 0.960 . S
C1728 H1720 0.929 . S
C1728 C1729 1.377 . S
C1728 C1730 1.384 . S
C1729 C1728 1.377 . S
C1729 C1735 1.390 . S
C1730 H1721 0.930 . S
C1730 C1728 1.384 . S
C1730 C1731 1.372 . S
C1731 C1730 1.372 . S
C1731 C1732 1.400 . S
C1731 C1736 1.490 . S
C1732 H1722 0.930 . S
C1732 C1731 1.400 . S
C1732 C1735 1.386 . S
H1733 C1749 0.930 . S
H1734 C1750 0.931 . S
C1735 H1723 0.929 . S
C1735 C1729 1.390 . S
C1735 C1732 1.386 . S
C1736 C1731 1.490 . S
C1736 C1738 1.395 . S
C1736 C1739 1.403 . S
H1737 C1743 0.930 . S
C1738 H1724 0.930 . S
C1738 C1736 1.395 . S
C1738 C1741 1.403 . S
C1739 C1736 1.403 . S
C1739 C1740 1.524 . S
C1739 C1743 1.400 . S
C1740 H1725 0.960 . S
C1740 H1726 0.960 . S
C1740 H1727 0.960 . S
C1740 C1739 1.524 . S
C1741 C1738 1.403 . S
C1741 C1742 1.392 . S
C1741 C1745 1.495 . S
C1742 C1741 1.392 . S
C1742 C1743 1.385 . S
C1742 C1744 1.478 . S
C1743 H1737 0.930 . S
C1743 C1739 1.400 . S
C1743 C1742 1.385 . S
C1744 C1742 1.478 . S
C1744 C1746 1.381 . S
C1744 C1750 1.383 . S
C1745 C1741 1.495 . S
C1745 H1751 0.959 . S
C1745 H1752 0.961 . S
C1745 H1753 0.960 . S
C1746 C1744 1.381 . S
C1746 C1747 1.394 . S
C1746 H1754 0.930 . S
C1747 C1746 1.394 . S
C1747 C1748 1.383 . S
C1747 H1755 0.929 . S
C1748 C1747 1.383 . S
C1748 C1749 1.377 . S
C1749 H1733 0.930 . S
C1749 C1748 1.377 . S
C1749 C1750 1.379 . S
C1750 H1734 0.931 . S
C1750 C1744 1.383 . S
C1750 C1749 1.379 . S
H1751 C1745 0.959 . S
H1752 C1745 0.961 . S
H1753 C1745 0.960 . S
H1754 C1746 0.930 . S
H1755 C1747 0.929 . S
H1756 C1764 0.929 . S
H1757 C1766 0.930 . S
H1758 C1768 0.930 . S
H1759 C1771 0.929 . S
H1760 C1774 0.930 . S
H1761 C1776 0.960 . S
H1762 C1776 0.960 . S
H1763 C1776 0.960 . S
C1764 H1756 0.929 . S
C1764 C1765 1.377 . S
C1764 C1766 1.384 . S
C1765 C1764 1.377 . S
C1765 C1771 1.390 . S
C1766 H1757 0.930 . S
C1766 C1764 1.384 . S
C1766 C1767 1.372 . S
C1767 C1766 1.372 . S
C1767 C1768 1.400 . S
C1767 C1772 1.490 . S
C1768 H1758 0.930 . S
C1768 C1767 1.400 . S
C1768 C1771 1.386 . S
H1769 C1785 0.930 . S
H1770 C1786 0.931 . S
C1771 H1759 0.929 . S
C1771 C1765 1.390 . S
C1771 C1768 1.386 . S
C1772 C1767 1.490 . S
C1772 C1774 1.395 . S
C1772 C1775 1.403 . S
H1773 C1779 0.930 . S
C1774 H1760 0.930 . S
C1774 C1772 1.395 . S
C1774 C1777 1.403 . S
C1775 C1772 1.403 . S
C1775 C1776 1.524 . S
C1775 C1779 1.400 . S
C1776 H1761 0.960 . S
C1776 H1762 0.960 . S
C1776 H1763 0.960 . S
C1776 C1775 1.524 . S
C1777 C1774 1.403 . S
C1777 C1778 1.392 . S
C1777 C1781 1.495 . S
C1778 C1777 1.392 . S
C1778 C1779 1.385 . S
C1778 C1780 1.478 . S
C1779 H1773 0.930 . S
C1779 C1775 1.400 . S
C1779 C1778 1.385 . S
C1780 C1778 1.478 . S
C1780 C1782 1.381 . S
C1780 C1786 1.383 . S
C1781 C1777 1.495 . S
C1781 H1787 0.959 . S
C1781 H1788 0.961 . S
C1781 H1789 0.960 . S
C1782 C1780 1.381 . S
C1782 C1783 1.394 . S
C1782 H1790 0.930 . S
C1783 C1782 1.394 . S
C1783 C1784 1.383 . S
C1783 H1791 0.929 . S
C1784 C1783 1.383 . S
C1784 C1785 1.377 . S
C1785 H1769 0.930 . S
C1785 C1784 1.377 . S
C1785 C1786 1.379 . S
C1786 H1770 0.931 . S
C1786 C1780 1.383 . S
C1786 C1785 1.379 . S
H1787 C1781 0.959 . S
H1788 C1781 0.961 . S
H1789 C1781 0.960 . S
H1790 C1782 0.930 . S
H1791 C1783 0.929 . S
H1792 C1800 0.929 . S
H1793 C1802 0.930 . S
H1794 C1804 0.930 . S
H1795 C1807 0.929 . S
H1796 C1810 0.930 . S
H1797 C1812 0.960 . S
H1798 C1812 0.960 . S
H1799 C1812 0.960 . S
C1800 H1792 0.929 . S
C1800 C1801 1.377 . S
C1800 C1802 1.384 . S
C1801 C1800 1.377 . S
C1801 C1807 1.390 . S
C1802 H1793 0.930 . S
C1802 C1800 1.384 . S
C1802 C1803 1.372 . S
C1803 C1802 1.372 . S
C1803 C1804 1.400 . S
C1803 C1808 1.490 . S
C1804 H1794 0.930 . S
C1804 C1803 1.400 . S
C1804 C1807 1.386 . S
H1805 C1821 0.930 . S
H1806 C1822 0.931 . S
C1807 H1795 0.929 . S
C1807 C1801 1.390 . S
C1807 C1804 1.386 . S
C1808 C1803 1.490 . S
C1808 C1810 1.395 . S
C1808 C1811 1.403 . S
H1809 C1815 0.930 . S
C1810 H1796 0.930 . S
C1810 C1808 1.395 . S
C1810 C1813 1.403 1_455 S
C1811 C1808 1.403 . S
C1811 C1812 1.524 . S
C1811 C1815 1.400 1_455 S
C1812 H1797 0.960 . S
C1812 H1798 0.960 . S
C1812 H1799 0.960 . S
C1812 C1811 1.524 . S
C1813 C1810 1.403 1_655 S
C1813 C1814 1.392 . S
C1813 C1817 1.495 . S
C1814 C1813 1.392 . S
C1814 C1815 1.385 . S
C1814 C1816 1.478 . S
C1815 H1809 0.930 . S
C1815 C1811 1.400 1_655 S
C1815 C1814 1.385 . S
C1816 C1814 1.478 . S
C1816 C1818 1.381 . S
C1816 C1822 1.383 . S
C1817 C1813 1.495 . S
C1817 H1823 0.959 . S
C1817 H1824 0.961 . S
C1817 H1825 0.960 . S
C1818 C1816 1.381 . S
C1818 C1819 1.394 . S
C1818 H1826 0.930 . S
C1819 C1818 1.394 . S
C1819 C1820 1.383 . S
C1819 H1827 0.929 . S
C1820 C1819 1.383 . S
C1820 C1821 1.377 . S
C1821 H1805 0.930 . S
C1821 C1820 1.377 . S
C1821 C1822 1.379 . S
C1822 H1806 0.931 . S
C1822 C1816 1.383 . S
C1822 C1821 1.379 . S
H1823 C1817 0.959 . S
H1824 C1817 0.961 . S
H1825 C1817 0.960 . S
H1826 C1818 0.930 . S
H1827 C1819 0.929 . S
H1828 C1836 0.929 . S
H1829 C1838 0.930 . S
H1830 C1840 0.930 . S
H1831 C1843 0.929 . S
H1832 C1846 0.930 . S
H1833 C1848 0.960 . S
H1834 C1848 0.960 . S
H1835 C1848 0.960 . S
C1836 H1828 0.929 . S
C1836 C1837 1.377 . S
C1836 C1838 1.384 . S
C1837 C1836 1.377 . S
C1837 C1843 1.390 . S
C1838 H1829 0.930 . S
C1838 C1836 1.384 . S
C1838 C1839 1.372 . S
C1839 C1838 1.372 . S
C1839 C1840 1.400 . S
C1839 C1844 1.490 . S
C1840 H1830 0.930 . S
C1840 C1839 1.400 . S
C1840 C1843 1.386 . S
H1841 C1857 0.930 . S
H1842 C1858 0.931 . S
C1843 H1831 0.929 . S
C1843 C1837 1.390 . S
C1843 C1840 1.386 . S
C1844 C1839 1.490 . S
C1844 C1846 1.395 . S
C1844 C1847 1.403 . S
H1845 C1851 0.930 . S
C1846 H1832 0.930 . S
C1846 C1844 1.395 . S
C1846 C1849 1.403 . S
C1847 C1844 1.403 . S
C1847 C1848 1.524 . S
C1847 C1851 1.400 . S
C1848 H1833 0.960 . S
C1848 H1834 0.960 . S
C1848 H1835 0.960 . S
C1848 C1847 1.524 . S
C1849 C1846 1.403 . S
C1849 C1850 1.392 . S
C1849 C1853 1.495 . S
C1850 C1849 1.392 . S
C1850 C1851 1.385 . S
C1850 C1852 1.478 . S
C1851 H1845 0.930 . S
C1851 C1847 1.400 . S
C1851 C1850 1.385 . S
C1852 C1850 1.478 . S
C1852 C1854 1.381 . S
C1852 C1858 1.383 . S
C1853 C1849 1.495 . S
C1853 H1859 0.959 . S
C1853 H1860 0.961 . S
C1853 H1861 0.960 . S
C1854 C1852 1.381 . S
C1854 C1855 1.394 . S
C1854 H1862 0.930 . S
C1855 C1854 1.394 . S
C1855 C1856 1.383 . S
C1855 H1863 0.929 . S
C1856 C1855 1.383 . S
C1856 C1857 1.377 . S
C1857 H1841 0.930 . S
C1857 C1856 1.377 . S
C1857 C1858 1.379 . S
C1858 H1842 0.931 . S
C1858 C1852 1.383 . S
C1858 C1857 1.379 . S
H1859 C1853 0.959 . S
H1860 C1853 0.961 . S
H1861 C1853 0.960 . S
H1862 C1854 0.930 . S
H1863 C1855 0.929 . S
H1864 C1872 0.929 . S
H1865 C1874 0.930 . S
H1866 C1876 0.930 . S
H1867 C1879 0.929 . S
H1868 C1882 0.930 . S
H1869 C1884 0.960 . S
H1870 C1884 0.960 . S
H1871 C1884 0.960 . S
C1872 H1864 0.929 . S
C1872 C1873 1.377 . S
C1872 C1874 1.384 . S
C1873 C1872 1.377 . S
C1873 C1879 1.390 . S
C1874 H1865 0.930 . S
C1874 C1872 1.384 . S
C1874 C1875 1.372 . S
C1875 C1874 1.372 . S
C1875 C1876 1.400 . S
C1875 C1880 1.490 . S
C1876 H1866 0.930 . S
C1876 C1875 1.400 . S
C1876 C1879 1.386 . S
H1877 C1893 0.930 . S
H1878 C1894 0.931 . S
C1879 H1867 0.929 . S
C1879 C1873 1.390 . S
C1879 C1876 1.386 . S
C1880 C1875 1.490 . S
C1880 C1882 1.395 . S
C1880 C1883 1.403 . S
H1881 C1887 0.930 . S
C1882 H1868 0.930 . S
C1882 C1880 1.395 . S
C1882 C1885 1.403 . S
C1883 C1880 1.403 . S
C1883 C1884 1.524 . S
C1883 C1887 1.400 . S
C1884 H1869 0.960 . S
C1884 H1870 0.960 . S
C1884 H1871 0.960 . S
C1884 C1883 1.524 . S
C1885 C1882 1.403 . S
C1885 C1886 1.392 . S
C1885 C1889 1.495 . S
C1886 C1885 1.392 . S
C1886 C1887 1.385 . S
C1886 C1888 1.478 . S
C1887 H1881 0.930 . S
C1887 C1883 1.400 . S
C1887 C1886 1.385 . S
C1888 C1886 1.478 . S
C1888 C1890 1.381 . S
C1888 C1894 1.383 . S
C1889 C1885 1.495 . S
C1889 H1895 0.959 . S
C1889 H1896 0.961 . S
C1889 H1897 0.960 . S
C1890 C1888 1.381 . S
C1890 C1891 1.394 . S
C1890 H1898 0.930 . S
C1891 C1890 1.394 . S
C1891 C1892 1.383 . S
C1891 H1899 0.929 . S
C1892 C1891 1.383 . S
C1892 C1893 1.377 . S
C1893 H1877 0.930 . S
C1893 C1892 1.377 . S
C1893 C1894 1.379 . S
C1894 H1878 0.931 . S
C1894 C1888 1.383 . S
C1894 C1893 1.379 . S
H1895 C1889 0.959 . S
H1896 C1889 0.961 . S
H1897 C1889 0.960 . S
H1898 C1890 0.930 . S
H1899 C1891 0.929 . S
H1900 C1908 0.929 . S
H1901 C1910 0.930 . S
H1902 C1912 0.930 . S
H1903 C1915 0.929 . S
H1904 C1918 0.930 . S
H1905 C1920 0.960 . S
H1906 C1920 0.960 . S
H1907 C1920 0.960 . S
C1908 H1900 0.929 . S
C1908 C1909 1.377 . S
C1908 C1910 1.384 . S
C1909 C1908 1.377 . S
C1909 C1915 1.390 . S
C1910 H1901 0.930 . S
C1910 C1908 1.384 . S
C1910 C1911 1.372 . S
C1911 C1910 1.372 . S
C1911 C1912 1.400 . S
C1911 C1916 1.490 . S
C1912 H1902 0.930 . S
C1912 C1911 1.400 . S
C1912 C1915 1.386 . S
H1913 C1929 0.930 . S
H1914 C1930 0.931 . S
C1915 H1903 0.929 . S
C1915 C1909 1.390 . S
C1915 C1912 1.386 . S
C1916 C1911 1.490 . S
C1916 C1918 1.395 . S
C1916 C1919 1.403 . S
H1917 C1923 0.930 . S
C1918 H1904 0.930 . S
C1918 C1916 1.395 . S
C1918 C1921 1.403 1_455 S
C1919 C1916 1.403 . S
C1919 C1920 1.524 . S
C1919 C1923 1.400 1_455 S
C1920 H1905 0.960 . S
C1920 H1906 0.960 . S
C1920 H1907 0.960 . S
C1920 C1919 1.524 . S
C1921 C1918 1.403 1_655 S
C1921 C1922 1.392 . S
C1921 C1925 1.495 . S
C1922 C1921 1.392 . S
C1922 C1923 1.385 . S
C1922 C1924 1.478 . S
C1923 H1917 0.930 . S
C1923 C1919 1.400 1_655 S
C1923 C1922 1.385 . S
C1924 C1922 1.478 . S
C1924 C1926 1.381 . S
C1924 C1930 1.383 . S
C1925 C1921 1.495 . S
C1925 H1931 0.959 . S
C1925 H1932 0.961 . S
C1925 H1933 0.960 . S
C1926 C1924 1.381 . S
C1926 C1927 1.394 . S
C1926 H1934 0.930 . S
C1927 C1926 1.394 . S
C1927 C1928 1.383 . S
C1927 H1935 0.929 . S
C1928 C1927 1.383 . S
C1928 C1929 1.377 . S
C1929 H1913 0.930 . S
C1929 C1928 1.377 . S
C1929 C1930 1.379 . S
C1930 H1914 0.931 . S
C1930 C1924 1.383 . S
C1930 C1929 1.379 . S
H1931 C1925 0.959 . S
H1932 C1925 0.961 . S
H1933 C1925 0.960 . S
H1934 C1926 0.930 . S
H1935 C1927 0.929 . S
H1936 C1944 0.929 . S
H1937 C1946 0.930 . S
H1938 C1948 0.930 . S
H1939 C1951 0.929 . S
H1940 C1954 0.930 . S
H1941 C1956 0.960 . S
H1942 C1956 0.960 . S
H1943 C1956 0.960 . S
C1944 H1936 0.929 . S
C1944 C1945 1.377 . S
C1944 C1946 1.384 . S
C1945 C1944 1.377 . S
C1945 C1951 1.390 . S
C1946 H1937 0.930 . S
C1946 C1944 1.384 . S
C1946 C1947 1.372 . S
C1947 C1946 1.372 . S
C1947 C1948 1.400 . S
C1947 C1952 1.490 . S
C1948 H1938 0.930 . S
C1948 C1947 1.400 . S
C1948 C1951 1.386 . S
H1949 C1965 0.930 . S
H1950 C1966 0.931 . S
C1951 H1939 0.929 . S
C1951 C1945 1.390 . S
C1951 C1948 1.386 . S
C1952 C1947 1.490 . S
C1952 C1954 1.395 . S
C1952 C1955 1.403 . S
H1953 C1959 0.930 . S
C1954 H1940 0.930 . S
C1954 C1952 1.395 . S
C1954 C1957 1.403 1_655 S
C1955 C1952 1.403 . S
C1955 C1956 1.524 . S
C1955 C1959 1.400 1_655 S
C1956 H1941 0.960 . S
C1956 H1942 0.960 . S
C1956 H1943 0.960 . S
C1956 C1955 1.524 . S
C1957 C1954 1.403 1_455 S
C1957 C1958 1.392 . S
C1957 C1961 1.495 . S
C1958 C1957 1.392 . S
C1958 C1959 1.385 . S
C1958 C1960 1.478 . S
C1959 H1953 0.930 . S
C1959 C1955 1.400 1_455 S
C1959 C1958 1.385 . S
C1960 C1958 1.478 . S
C1960 C1962 1.381 . S
C1960 C1966 1.383 . S
C1961 C1957 1.495 . S
C1961 H1967 0.959 . S
C1961 H1968 0.961 . S
C1961 H1969 0.960 . S
C1962 C1960 1.381 . S
C1962 C1963 1.394 . S
C1962 H1970 0.930 . S
C1963 C1962 1.394 . S
C1963 C1964 1.383 . S
C1963 H1971 0.929 . S
C1964 C1963 1.383 . S
C1964 C1965 1.377 . S
C1965 H1949 0.930 . S
C1965 C1964 1.377 . S
C1965 C1966 1.379 . S
C1966 H1950 0.931 . S
C1966 C1960 1.383 . S
C1966 C1965 1.379 . S
H1967 C1961 0.959 . S
H1968 C1961 0.961 . S
H1969 C1961 0.960 . S
H1970 C1962 0.930 . S
H1971 C1963 0.929 . S
H1972 C1980 0.929 . S
H1973 C1982 0.930 . S
H1974 C1984 0.930 . S
H1975 C1987 0.929 . S
H1976 C1990 0.930 . S
H1977 C1992 0.960 . S
H1978 C1992 0.960 . S
H1979 C1992 0.960 . S
C1980 H1972 0.929 . S
C1980 C1981 1.377 . S
C1980 C1982 1.384 . S
C1981 C1980 1.377 . S
C1981 C1987 1.390 . S
C1982 H1973 0.930 . S
C1982 C1980 1.384 . S
C1982 C1983 1.372 . S
C1983 C1982 1.372 . S
C1983 C1984 1.400 . S
C1983 C1988 1.490 . S
C1984 H1974 0.930 . S
C1984 C1983 1.400 . S
C1984 C1987 1.386 . S
H1985 C2001 0.930 . S
H1986 C2002 0.931 . S
C1987 H1975 0.929 . S
C1987 C1981 1.390 . S
C1987 C1984 1.386 . S
C1988 C1983 1.490 . S
C1988 C1990 1.395 . S
C1988 C1991 1.403 . S
H1989 C1995 0.930 . S
C1990 H1976 0.930 . S
C1990 C1988 1.395 . S
C1990 C1993 1.403 . S
C1991 C1988 1.403 . S
C1991 C1992 1.524 . S
C1991 C1995 1.400 . S
C1992 H1977 0.960 . S
C1992 H1978 0.960 . S
C1992 H1979 0.960 . S
C1992 C1991 1.524 . S
C1993 C1990 1.403 . S
C1993 C1994 1.392 . S
C1993 C1997 1.495 . S
C1994 C1993 1.392 . S
C1994 C1995 1.385 . S
C1994 C1996 1.478 . S
C1995 H1989 0.930 . S
C1995 C1991 1.400 . S
C1995 C1994 1.385 . S
C1996 C1994 1.478 . S
C1996 C1998 1.381 . S
C1996 C2002 1.383 . S
C1997 C1993 1.495 . S
C1997 H2003 0.959 . S
C1997 H2004 0.961 . S
C1997 H2005 0.960 . S
C1998 C1996 1.381 . S
C1998 C1999 1.394 . S
C1998 H2006 0.930 . S
C1999 C1998 1.394 . S
C1999 C2000 1.383 . S
C1999 H2007 0.929 . S
C2000 C1999 1.383 . S
C2000 C2001 1.377 . S
C2001 H1985 0.930 . S
C2001 C2000 1.377 . S
C2001 C2002 1.379 . S
C2002 H1986 0.931 . S
C2002 C1996 1.383 . S
C2002 C2001 1.379 . S
H2003 C1997 0.959 . S
H2004 C1997 0.961 . S
H2005 C1997 0.960 . S
H2006 C1998 0.930 . S
H2007 C1999 0.929 . S
H2008 C2016 0.929 . S
H2009 C2018 0.930 . S
H2010 C2020 0.930 . S
H2011 C2023 0.929 . S
H2012 C2026 0.930 . S
H2013 C2028 0.960 . S
H2014 C2028 0.960 . S
H2015 C2028 0.960 . S
C2016 H2008 0.929 . S
C2016 C2017 1.377 . S
C2016 C2018 1.384 . S
C2017 C2016 1.377 . S
C2017 C2023 1.390 . S
C2018 H2009 0.930 . S
C2018 C2016 1.384 . S
C2018 C2019 1.372 . S
C2019 C2018 1.372 . S
C2019 C2020 1.400 . S
C2019 C2024 1.490 . S
C2020 H2010 0.930 . S
C2020 C2019 1.400 . S
C2020 C2023 1.386 . S
H2021 C2037 0.930 . S
H2022 C2038 0.931 . S
C2023 H2011 0.929 . S
C2023 C2017 1.390 . S
C2023 C2020 1.386 . S
C2024 C2019 1.490 . S
C2024 C2026 1.395 . S
C2024 C2027 1.403 . S
H2025 C2031 0.930 . S
C2026 H2012 0.930 . S
C2026 C2024 1.395 . S
C2026 C2029 1.403 . S
C2027 C2024 1.403 . S
C2027 C2028 1.524 . S
C2027 C2031 1.400 . S
C2028 H2013 0.960 . S
C2028 H2014 0.960 . S
C2028 H2015 0.960 . S
C2028 C2027 1.524 . S
C2029 C2026 1.403 . S
C2029 C2030 1.392 . S
C2029 C2033 1.495 . S
C2030 C2029 1.392 . S
C2030 C2031 1.385 . S
C2030 C2032 1.478 . S
C2031 H2025 0.930 . S
C2031 C2027 1.400 . S
C2031 C2030 1.385 . S
C2032 C2030 1.478 . S
C2032 C2034 1.381 . S
C2032 C2038 1.383 . S
C2033 C2029 1.495 . S
C2033 H2039 0.959 . S
C2033 H2040 0.961 . S
C2033 H2041 0.960 . S
C2034 C2032 1.381 . S
C2034 C2035 1.394 . S
C2034 H2042 0.930 . S
C2035 C2034 1.394 . S
C2035 C2036 1.383 . S
C2035 H2043 0.929 . S
C2036 C2035 1.383 . S
C2036 C2037 1.377 . S
C2037 H2021 0.930 . S
C2037 C2036 1.377 . S
C2037 C2038 1.379 . S
C2038 H2022 0.931 . S
C2038 C2032 1.383 . S
C2038 C2037 1.379 . S
H2039 C2033 0.959 . S
H2040 C2033 0.961 . S
H2041 C2033 0.960 . S
H2042 C2034 0.930 . S
H2043 C2035 0.929 . S
H2044 C2052 0.929 . S
H2045 C2054 0.930 . S
H2046 C2056 0.930 . S
H2047 C2059 0.929 . S
H2048 C2062 0.930 . S
H2049 C2064 0.960 . S
H2050 C2064 0.960 . S
H2051 C2064 0.960 . S
C2052 H2044 0.929 . S
C2052 C2053 1.377 . S
C2052 C2054 1.384 . S
C2053 C2052 1.377 . S
C2053 C2059 1.390 . S
C2054 H2045 0.930 . S
C2054 C2052 1.384 . S
C2054 C2055 1.372 . S
C2055 C2054 1.372 . S
C2055 C2056 1.400 . S
C2055 C2060 1.490 . S
C2056 H2046 0.930 . S
C2056 C2055 1.400 . S
C2056 C2059 1.386 . S
H2057 C2073 0.930 . S
H2058 C2074 0.931 . S
C2059 H2047 0.929 . S
C2059 C2053 1.390 . S
C2059 C2056 1.386 . S
C2060 C2055 1.490 . S
C2060 C2062 1.395 . S
C2060 C2063 1.403 . S
H2061 C2067 0.930 . S
C2062 H2048 0.930 . S
C2062 C2060 1.395 . S
C2062 C2065 1.403 1_455 S
C2063 C2060 1.403 . S
C2063 C2064 1.524 . S
C2063 C2067 1.400 1_455 S
C2064 H2049 0.960 . S
C2064 H2050 0.960 . S
C2064 H2051 0.960 . S
C2064 C2063 1.524 . S
C2065 C2062 1.403 1_655 S
C2065 C2066 1.392 . S
C2065 C2069 1.495 . S
C2066 C2065 1.392 . S
C2066 C2067 1.385 . S
C2066 C2068 1.478 . S
C2067 H2061 0.930 . S
C2067 C2063 1.400 1_655 S
C2067 C2066 1.385 . S
C2068 C2066 1.478 . S
C2068 C2070 1.381 . S
C2068 C2074 1.383 . S
C2069 C2065 1.495 . S
C2069 H2075 0.959 . S
C2069 H2076 0.961 . S
C2069 H2077 0.960 . S
C2070 C2068 1.381 . S
C2070 C2071 1.394 . S
C2070 H2078 0.930 . S
C2071 C2070 1.394 . S
C2071 C2072 1.383 . S
C2071 H2079 0.929 . S
C2072 C2071 1.383 . S
C2072 C2073 1.377 . S
C2073 H2057 0.930 . S
C2073 C2072 1.377 . S
C2073 C2074 1.379 . S
C2074 H2058 0.931 . S
C2074 C2068 1.383 . S
C2074 C2073 1.379 . S
H2075 C2069 0.959 . S
H2076 C2069 0.961 . S
H2077 C2069 0.960 . S
H2078 C2070 0.930 . S
H2079 C2071 0.929 . S
C361 C10 1.357 . S
C380 C293 1.403 . S
C397 C279 1.403 . S
C416 C30 1.380 . S
C433 C337 1.403 . S
C452 C54 1.381 . S
C469 C315 1.402 . S
C488 C74 1.380 . S
C505 C205 1.408 . S
C524 C106 1.368 . S
C541 C128 1.375 . S
C560 C197 1.400 . S
C577 C263 1.409 . S
C596 C142 1.341 . S
C613 C164 1.375 . S
C632 C235 1.401 . S
C649 C131 1.401 . S
C668 C186 1.359 . S
C685 C206 1.350 . S
C704 C109 1.396 . S
C721 C161 1.401 . S
C740 C238 1.340 . S
C757 C139 1.401 . S
C776 C252 1.341 . S
C793 C272 1.364 . S
C812 C29 1.409 . S
C829 C21 1.407 . S
C848 C296 1.391 . S
C865 C318 1.366 . S
C884 C73 1.406 . S
C901 C65 1.408 . S
C920 C340 1.342 . S
C937 C228 1.441 . S
C956 C18 1.445 . S
C973 C32 1.444 . S
C992 C260 1.434 . S
C1009 C194 1.444 . S
C1028 C62 1.434 . S
C1045 C208 1.443 . S
C1064 C76 1.437 . S
C1081 C316 1.442 . S
C1100 C98 1.437 . S
C1117 C120 1.442 . S
C1136 C338 1.437 . S
C1153 C140 1.442 . S
C1172 C282 1.439 . S
C1189 C294 1.443 . S
C1208 C162 1.445 . S
C1225 C7 1.514 . S
C1244 C37 1.520 . S
C1261 C51 1.518 . S
C1280 C81 1.505 . S
C1297 C103 1.526 . S
C1316 C125 1.525 . S
C1333 C175 1.526 . S
C1352 C153 1.517 . S
C1369 C213 1.514 . S
C1388 C183 1.518 . S
C1405 C241 1.514 . S
C1424 C249 1.523 . S
C1441 C307 1.525 . S
C1460 C271 1.530 . S
C1477 C329 1.522 . S
C1496 C351 1.525 . S
C1513 C285 0.296 . S
C1532 C15 0.324 . S
C1549 C43 0.355 . S
C1568 C301 0.290 . S
C1585 C59 0.361 . S
C1604 C323 0.379 . S
C1621 C87 0.332 . S
C1640 C345 0.221 . S
C1657 C95 0.304 . S
C1676 C191 0.395 . S
C1693 C117 0.333 . S
C1712 C219 0.423 . S
C1729 C147 0.335 . S
C1748 C227 0.393 . S
C1765 C257 0.332 . S
C1784 C169 0.221 . S
C1801 C8 1.486 . S
C1820 C216 1.475 . S
C1837 C40 1.486 . S
C1856 C184 1.491 . S
C1873 C250 1.485 . S
C1892 C52 1.477 . S
C1909 C230 1.485 . S
C1928 C84 1.479 . S
C1945 C96 1.462 . S
C1964 C304 1.450 . S
C1981 C118 1.465 . S
C2000 C274 1.462 . S
C2017 C348 1.466 . S
C2036 C150 1.472 . S
C2053 C172 1.462 . S
C2072 C326 1.451 . S
