# Generated by pormake.
# Topology wir, (6)-cn, num edge types: 1
# Building blocks:
#     Node 0, Type 0, BuildingBlock: GEDQOX_clean_sbu_0, # of connection points: 6
#     Node 1, Type 0, BuildingBlock: GEDQOX_clean_sbu_0, # of connection points: 6
#     Node 2, Type 0, BuildingBlock: GEDQOX_clean_sbu_0, # of connection points: 6
#     Node 3, Type 0, BuildingBlock: GEDQOX_clean_sbu_0, # of connection points: 6
#     Node 4, Type 0, BuildingBlock: GEDQOX_clean_sbu_0, # of connection points: 6
#     Node 5, Type 0, BuildingBlock: GEDQOX_clean_sbu_0, # of connection points: 6
#     Node 6, Type 0, BuildingBlock: GEDQOX_clean_sbu_0, # of connection points: 6
#     Node 7, Type 0, BuildingBlock: GEDQOX_clean_sbu_0, # of connection points: 6
#     Node 8, Type 0, BuildingBlock: GEDQOX_clean_sbu_0, # of connection points: 6
#     Node 9, Type 0, BuildingBlock: GEDQOX_clean_sbu_0, # of connection points: 6
#     Node 10, Type 0, BuildingBlock: GEDQOX_clean_sbu_0, # of connection points: 6
#     Node 11, Type 0, BuildingBlock: GEDQOX_clean_sbu_0, # of connection points: 6
#     Node 12, Type 0, BuildingBlock: GEDQOX_clean_sbu_0, # of connection points: 6
#     Node 13, Type 0, BuildingBlock: GEDQOX_clean_sbu_0, # of connection points: 6
#     Node 14, Type 0, BuildingBlock: GEDQOX_clean_sbu_0, # of connection points: 6
#     Node 15, Type 0, BuildingBlock: GEDQOX_clean_sbu_0, # of connection points: 6
#     Node 16, Type 0, BuildingBlock: GEDQOX_clean_sbu_0, # of connection points: 6
#     Node 17, Type 0, BuildingBlock: GEDQOX_clean_sbu_0, # of connection points: 6
#     Node 18, Type 0, BuildingBlock: GEDQOX_clean_sbu_0, # of connection points: 6
#     Node 19, Type 0, BuildingBlock: GEDQOX_clean_sbu_0, # of connection points: 6
#     Node 20, Type 0, BuildingBlock: GEDQOX_clean_sbu_0, # of connection points: 6
#     Node 21, Type 0, BuildingBlock: GEDQOX_clean_sbu_0, # of connection points: 6
#     Node 22, Type 0, BuildingBlock: GEDQOX_clean_sbu_0, # of connection points: 6
#     Node 23, Type 0, BuildingBlock: GEDQOX_clean_sbu_0, # of connection points: 6
#     Node 24, Type 0, BuildingBlock: GEDQOX_clean_sbu_0, # of connection points: 6
#     Node 25, Type 0, BuildingBlock: GEDQOX_clean_sbu_0, # of connection points: 6
#     Node 26, Type 0, BuildingBlock: GEDQOX_clean_sbu_0, # of connection points: 6
#     Node 27, Type 0, BuildingBlock: GEDQOX_clean_sbu_0, # of connection points: 6
#     Node 28, Type 0, BuildingBlock: GEDQOX_clean_sbu_0, # of connection points: 6
#     Node 29, Type 0, BuildingBlock: GEDQOX_clean_sbu_0, # of connection points: 6
#     Node 30, Type 0, BuildingBlock: GEDQOX_clean_sbu_0, # of connection points: 6
#     Node 31, Type 0, BuildingBlock: GEDQOX_clean_sbu_0, # of connection points: 6
#     Edge 32, Type (0, 0), BuildingBlock: EZIPEK_clean_linker_0, # of connection points: 2
#     Edge 33, Type (0, 0), BuildingBlock: EZIPEK_clean_linker_0, # of connection points: 2
#     Edge 34, Type (0, 0), BuildingBlock: EZIPEK_clean_linker_0, # of connection points: 2
#     Edge 35, Type (0, 0), BuildingBlock: EZIPEK_clean_linker_0, # of connection points: 2
#     Edge 36, Type (0, 0), BuildingBlock: EZIPEK_clean_linker_0, # of connection points: 2
#     Edge 37, Type (0, 0), BuildingBlock: EZIPEK_clean_linker_0, # of connection points: 2
#     Edge 38, Type (0, 0), BuildingBlock: EZIPEK_clean_linker_0, # of connection points: 2
#     Edge 39, Type (0, 0), BuildingBlock: EZIPEK_clean_linker_0, # of connection points: 2
#     Edge 40, Type (0, 0), BuildingBlock: EZIPEK_clean_linker_0, # of connection points: 2
#     Edge 41, Type (0, 0), BuildingBlock: EZIPEK_clean_linker_0, # of connection points: 2
#     Edge 42, Type (0, 0), BuildingBlock: EZIPEK_clean_linker_0, # of connection points: 2
#     Edge 43, Type (0, 0), BuildingBlock: EZIPEK_clean_linker_0, # of connection points: 2
#     Edge 44, Type (0, 0), BuildingBlock: EZIPEK_clean_linker_0, # of connection points: 2
#     Edge 45, Type (0, 0), BuildingBlock: EZIPEK_clean_linker_0, # of connection points: 2
#     Edge 46, Type (0, 0), BuildingBlock: EZIPEK_clean_linker_0, # of connection points: 2
#     Edge 47, Type (0, 0), BuildingBlock: EZIPEK_clean_linker_0, # of connection points: 2
#     Edge 48, Type (0, 0), BuildingBlock: EZIPEK_clean_linker_0, # of connection points: 2
#     Edge 49, Type (0, 0), BuildingBlock: EZIPEK_clean_linker_0, # of connection points: 2
#     Edge 50, Type (0, 0), BuildingBlock: EZIPEK_clean_linker_0, # of connection points: 2
#     Edge 51, Type (0, 0), BuildingBlock: EZIPEK_clean_linker_0, # of connection points: 2
#     Edge 52, Type (0, 0), BuildingBlock: EZIPEK_clean_linker_0, # of connection points: 2
#     Edge 53, Type (0, 0), BuildingBlock: EZIPEK_clean_linker_0, # of connection points: 2
#     Edge 54, Type (0, 0), BuildingBlock: EZIPEK_clean_linker_0, # of connection points: 2
#     Edge 55, Type (0, 0), BuildingBlock: EZIPEK_clean_linker_0, # of connection points: 2
#     Edge 56, Type (0, 0), BuildingBlock: EZIPEK_clean_linker_0, # of connection points: 2
#     Edge 57, Type (0, 0), BuildingBlock: EZIPEK_clean_linker_0, # of connection points: 2
#     Edge 58, Type (0, 0), BuildingBlock: EZIPEK_clean_linker_0, # of connection points: 2
#     Edge 59, Type (0, 0), BuildingBlock: EZIPEK_clean_linker_0, # of connection points: 2
#     Edge 60, Type (0, 0), BuildingBlock: EZIPEK_clean_linker_0, # of connection points: 2
#     Edge 61, Type (0, 0), BuildingBlock: EZIPEK_clean_linker_0, # of connection points: 2
#     Edge 62, Type (0, 0), BuildingBlock: EZIPEK_clean_linker_0, # of connection points: 2
#     Edge 63, Type (0, 0), BuildingBlock: EZIPEK_clean_linker_0, # of connection points: 2
#     Edge 64, Type (0, 0), BuildingBlock: EZIPEK_clean_linker_0, # of connection points: 2
#     Edge 65, Type (0, 0), BuildingBlock: EZIPEK_clean_linker_0, # of connection points: 2
#     Edge 66, Type (0, 0), BuildingBlock: EZIPEK_clean_linker_0, # of connection points: 2
#     Edge 67, Type (0, 0), BuildingBlock: EZIPEK_clean_linker_0, # of connection points: 2
#     Edge 68, Type (0, 0), BuildingBlock: EZIPEK_clean_linker_0, # of connection points: 2
#     Edge 69, Type (0, 0), BuildingBlock: EZIPEK_clean_linker_0, # of connection points: 2
#     Edge 70, Type (0, 0), BuildingBlock: EZIPEK_clean_linker_0, # of connection points: 2
#     Edge 71, Type (0, 0), BuildingBlock: EZIPEK_clean_linker_0, # of connection points: 2
#     Edge 72, Type (0, 0), BuildingBlock: EZIPEK_clean_linker_0, # of connection points: 2
#     Edge 73, Type (0, 0), BuildingBlock: EZIPEK_clean_linker_0, # of connection points: 2
#     Edge 74, Type (0, 0), BuildingBlock: EZIPEK_clean_linker_0, # of connection points: 2
#     Edge 75, Type (0, 0), BuildingBlock: EZIPEK_clean_linker_0, # of connection points: 2
#     Edge 76, Type (0, 0), BuildingBlock: EZIPEK_clean_linker_0, # of connection points: 2
#     Edge 77, Type (0, 0), BuildingBlock: EZIPEK_clean_linker_0, # of connection points: 2
#     Edge 78, Type (0, 0), BuildingBlock: EZIPEK_clean_linker_0, # of connection points: 2
#     Edge 79, Type (0, 0), BuildingBlock: EZIPEK_clean_linker_0, # of connection points: 2
#     Edge 80, Type (0, 0), BuildingBlock: EZIPEK_clean_linker_0, # of connection points: 2
#     Edge 81, Type (0, 0), BuildingBlock: EZIPEK_clean_linker_0, # of connection points: 2
#     Edge 82, Type (0, 0), BuildingBlock: EZIPEK_clean_linker_0, # of connection points: 2
#     Edge 83, Type (0, 0), BuildingBlock: EZIPEK_clean_linker_0, # of connection points: 2
#     Edge 84, Type (0, 0), BuildingBlock: EZIPEK_clean_linker_0, # of connection points: 2
#     Edge 85, Type (0, 0), BuildingBlock: EZIPEK_clean_linker_0, # of connection points: 2
#     Edge 86, Type (0, 0), BuildingBlock: EZIPEK_clean_linker_0, # of connection points: 2
#     Edge 87, Type (0, 0), BuildingBlock: EZIPEK_clean_linker_0, # of connection points: 2
#     Edge 88, Type (0, 0), BuildingBlock: EZIPEK_clean_linker_0, # of connection points: 2
#     Edge 89, Type (0, 0), BuildingBlock: EZIPEK_clean_linker_0, # of connection points: 2
#     Edge 90, Type (0, 0), BuildingBlock: EZIPEK_clean_linker_0, # of connection points: 2
#     Edge 91, Type (0, 0), BuildingBlock: EZIPEK_clean_linker_0, # of connection points: 2
#     Edge 92, Type (0, 0), BuildingBlock: EZIPEK_clean_linker_0, # of connection points: 2
#     Edge 93, Type (0, 0), BuildingBlock: EZIPEK_clean_linker_0, # of connection points: 2
#     Edge 94, Type (0, 0), BuildingBlock: EZIPEK_clean_linker_0, # of connection points: 2
#     Edge 95, Type (0, 0), BuildingBlock: EZIPEK_clean_linker_0, # of connection points: 2
#     Edge 96, Type (0, 0), BuildingBlock: EZIPEK_clean_linker_0, # of connection points: 2
#     Edge 97, Type (0, 0), BuildingBlock: EZIPEK_clean_linker_0, # of connection points: 2
#     Edge 98, Type (0, 0), BuildingBlock: EZIPEK_clean_linker_0, # of connection points: 2
#     Edge 99, Type (0, 0), BuildingBlock: EZIPEK_clean_linker_0, # of connection points: 2
#     Edge 100, Type (0, 0), BuildingBlock: EZIPEK_clean_linker_0, # of connection points: 2
#     Edge 101, Type (0, 0), BuildingBlock: EZIPEK_clean_linker_0, # of connection points: 2
#     Edge 102, Type (0, 0), BuildingBlock: EZIPEK_clean_linker_0, # of connection points: 2
#     Edge 103, Type (0, 0), BuildingBlock: EZIPEK_clean_linker_0, # of connection points: 2
#     Edge 104, Type (0, 0), BuildingBlock: EZIPEK_clean_linker_0, # of connection points: 2
#     Edge 105, Type (0, 0), BuildingBlock: EZIPEK_clean_linker_0, # of connection points: 2
#     Edge 106, Type (0, 0), BuildingBlock: EZIPEK_clean_linker_0, # of connection points: 2
#     Edge 107, Type (0, 0), BuildingBlock: EZIPEK_clean_linker_0, # of connection points: 2
#     Edge 108, Type (0, 0), BuildingBlock: EZIPEK_clean_linker_0, # of connection points: 2
#     Edge 109, Type (0, 0), BuildingBlock: EZIPEK_clean_linker_0, # of connection points: 2
#     Edge 110, Type (0, 0), BuildingBlock: EZIPEK_clean_linker_0, # of connection points: 2
#     Edge 111, Type (0, 0), BuildingBlock: EZIPEK_clean_linker_0, # of connection points: 2
#     Edge 112, Type (0, 0), BuildingBlock: EZIPEK_clean_linker_0, # of connection points: 2
#     Edge 113, Type (0, 0), BuildingBlock: EZIPEK_clean_linker_0, # of connection points: 2
#     Edge 114, Type (0, 0), BuildingBlock: EZIPEK_clean_linker_0, # of connection points: 2
#     Edge 115, Type (0, 0), BuildingBlock: EZIPEK_clean_linker_0, # of connection points: 2
#     Edge 116, Type (0, 0), BuildingBlock: EZIPEK_clean_linker_0, # of connection points: 2
#     Edge 117, Type (0, 0), BuildingBlock: EZIPEK_clean_linker_0, # of connection points: 2
#     Edge 118, Type (0, 0), BuildingBlock: EZIPEK_clean_linker_0, # of connection points: 2
#     Edge 119, Type (0, 0), BuildingBlock: EZIPEK_clean_linker_0, # of connection points: 2
#     Edge 120, Type (0, 0), BuildingBlock: EZIPEK_clean_linker_0, # of connection points: 2
#     Edge 121, Type (0, 0), BuildingBlock: EZIPEK_clean_linker_0, # of connection points: 2
#     Edge 122, Type (0, 0), BuildingBlock: EZIPEK_clean_linker_0, # of connection points: 2
#     Edge 123, Type (0, 0), BuildingBlock: EZIPEK_clean_linker_0, # of connection points: 2
#     Edge 124, Type (0, 0), BuildingBlock: EZIPEK_clean_linker_0, # of connection points: 2
#     Edge 125, Type (0, 0), BuildingBlock: EZIPEK_clean_linker_0, # of connection points: 2
#     Edge 126, Type (0, 0), BuildingBlock: EZIPEK_clean_linker_0, # of connection points: 2
#     Edge 127, Type (0, 0), BuildingBlock: EZIPEK_clean_linker_0, # of connection points: 2
# Relax obj value: 0.717
# Max RMSD: 0.226
# Mean RMSD: 0.226
data_MOF--net-wir--node1-GEDQOX_clean_sbu_0--edge1-EZIPEK_clean_linker_0
_symmetry_space_group_name_H-M    P1
_symmetry_Int_Tables_number       1
_symmetry_cell_setting            triclinic
loop_
_symmetry_equiv_pos_as_xyz
'x, y, z'
_cell_length_a     31.128004
_cell_length_b     31.432477
_cell_length_c     86.677617
_cell_angle_alpha  89.818091
_cell_angle_beta   89.792434
_cell_angle_gamma 90.173688
loop_
_atom_site_label
_atom_site_type_symbol
_atom_site_fract_x
_atom_site_fract_y
_atom_site_fract_z
_atom_type_partial_charge
Nd0 Nd 0.12459 0.08286 0.40568 0.0
Nd1 Nd 0.16493 0.12002 0.40223 0.0
C2 C 0.05541 0.03485 0.40986 0.0
C3 C 1.01068 0.04944 0.41103 0.0
C4 C 0.99911 0.08819 0.40398 0.0
C5 C 0.96723 0.1136 0.4106 0.0
C6 C 0.94765 0.1006 0.42441 0.0
C7 C 0.95305 0.05841 0.42948 0.0
C8 C 0.9848 1.03296 0.42287 0.0
C9 C 0.18683 0.04573 0.43354 0.0
C10 C 0.13285 0.13745 0.43443 0.0
C11 C 0.24175 0.1465 0.39375 0.0
C12 C 0.25264 0.17821 0.38225 0.0
C13 C 0.29472 0.19335 0.3807 0.0
C14 C 0.30363 0.22537 0.36997 0.0
C15 C 0.2704 0.24168 0.36082 0.0
C16 C 0.2284 0.22652 0.36248 0.0
C17 C 0.21949 0.19517 0.37325 0.0
C18 C 0.10296 0.19402 0.40119 0.0
C19 C 0.14505 0.06958 0.36824 0.0
O20 O 0.0742 0.03933 0.3965 0.0
O21 O 0.0796 0.04806 0.42109 0.0
O22 O 0.187 0.05468 0.4184 0.0
O23 O 0.18545 0.05566 0.41819 0.0
O24 O 0.10091 0.12311 0.42632 0.0
O25 O 0.17005 0.13517 0.4278 0.0
O26 O 0.22402 0.112 0.38829 0.0
O27 O 0.22124 0.16175 0.40561 0.0
O28 O 0.14368 0.19376 0.4047 0.0
O29 O 0.09576 0.15299 0.39833 0.0
O30 O 0.15905 0.10656 0.37382 0.0
O31 O 0.13026 0.04807 0.38027 0.0
H32 H 1.01845 0.1015 0.39473 0.0
H33 H 0.96275 0.14567 0.40633 0.0
H34 H 0.93778 0.0477 0.44007 0.0
H35 H 0.99305 1.00317 0.42843 0.0
H36 H 0.32031 0.18072 0.38779 0.0
H37 H 0.33618 0.23717 0.3687 0.0
H38 H 0.20258 0.23913 0.35548 0.0
H39 H 0.18663 0.18443 0.37466 0.0
Nd40 Nd 0.24645 0.86884 0.65561 0.0
Nd41 Nd 0.21032 0.90846 0.65201 0.0
C42 C 0.29144 0.80022 0.66243 0.0
C43 C 0.27234 0.75882 0.66653 0.0
C44 C 0.23484 0.74536 0.6589 0.0
C45 C 0.20525 0.71894 0.66642 0.0
C46 C 0.21296 0.70568 0.68157 0.0
C47 C 0.25261 0.71478 0.68848 0.0
C48 C 0.28231 0.74106 0.68095 0.0
C49 C 0.28393 0.9315 0.68323 0.0
C50 C 0.19079 0.87752 0.68414 0.0
C51 C 0.18546 0.98467 0.64305 0.0
C52 C 0.15453 0.99735 0.63154 0.0
C53 C 0.15197 0.03975 0.6267 0.0
C54 C 0.12244 0.05102 0.61537 0.0
C55 C 0.09559 1.01978 0.60906 0.0
C56 C 0.0981 0.9775 0.61397 0.0
C57 C 0.12771 0.96624 0.62513 0.0
C58 C 0.13463 0.8472 0.6512 0.0
C59 C 0.2616 0.88669 0.618 0.0
O60 O 0.2866 0.81361 0.64828 0.0
O61 O 0.28233 0.82962 0.67238 0.0
O62 O 0.27553 0.93105 0.66805 0.0
O63 O 0.27455 0.92952 0.66787 0.0
O64 O 0.20339 0.84562 0.67581 0.0
O65 O 0.19517 0.91436 0.67764 0.0
O66 O 0.21966 0.96604 0.63759 0.0
O67 O 0.1689 0.9647 0.65484 0.0
O68 O 0.13669 0.88641 0.65606 0.0
O69 O 0.17564 0.84126 0.64725 0.0
O70 O 0.22416 0.90057 0.62362 0.0
O71 O 0.28293 0.8732 0.63027 0.0
H72 H 0.22618 0.75876 0.64782 0.0
H73 H 0.17487 0.71176 0.66099 0.0
H74 H 0.25896 0.7046 0.7002 0.0
H75 H 0.31064 0.75141 0.68714 0.0
H76 H 0.17284 0.06381 0.63158 0.0
H77 H 0.12058 0.08375 0.61149 0.0
H78 H 0.07755 0.95328 0.60901 0.0
H79 H 0.12985 0.93327 0.62872 0.0
Nd80 Nd 0.45111 0.98494 0.90536 0.0
Nd81 Nd 0.41951 0.95551 0.89936 0.0
C82 C 0.52794 1.02129 0.90664 0.0
C83 C 0.56899 0.99892 0.90862 0.0
C84 C 0.57169 0.95596 0.90415 0.0
C85 C 0.59875 0.92818 0.91206 0.0
C86 C 0.62413 0.94368 0.92411 0.0
C87 C 0.62825 0.98798 0.92609 0.0
C88 C 0.59994 1.01553 0.91861 0.0
C89 C 0.38847 1.02282 0.93269 0.0
C90 C 0.41867 0.92836 0.93243 0.0
C91 C 0.3409 0.9395 0.88958 0.0
C92 C 0.32359 0.91439 0.87703 0.0
C93 C 0.27937 0.9065 0.87618 0.0
C94 C 0.2635 0.87932 0.86485 0.0
C95 C 0.292 0.86023 0.85443 0.0
C96 C 0.33603 0.86893 0.8551 0.0
C97 C 0.3518 0.89579 0.86641 0.0
C98 C 0.48116 0.87993 0.89863 0.0
C99 C 0.43926 1.0049 0.86711 0.0
O100 O 0.508 1.01386 0.89375 0.0
O101 O 0.50213 1.0187 0.91847 0.0
O102 O 0.39372 1.02186 0.91739 0.0
O103 O 0.39608 1.0196 0.91712 0.0
O104 O 0.44948 0.95624 0.93024 0.0
O105 O 0.39937 0.91666 0.92001 0.0
O106 O 0.3627 0.97328 0.88545 0.0
O107 O 0.35991 0.91738 0.90029 0.0
O108 O 0.45258 0.89125 0.88833 0.0
O109 O 0.47779 0.91229 0.9081 0.0
O110 O 0.4367 0.96504 0.87173 0.0
O111 O 0.44017 1.02566 0.88049 0.0
H112 H 0.54902 0.94275 0.89603 0.0
H113 H 0.59524 0.89423 0.91028 0.0
H114 H 0.648 1.00047 0.93531 0.0
H115 H 0.5987 0.04858 0.92209 0.0
H116 H 0.25744 0.92052 0.88445 0.0
H117 H 0.2294 0.8725 0.86437 0.0
H118 H 0.35819 0.85407 0.8471 0.0
H119 H 0.38607 0.90113 0.8671 0.0
Nd120 Nd 0.34189 0.21029 0.15608 0.0
Nd121 Nd 0.37968 0.17189 0.15226 0.0
C122 C 0.29425 0.27838 0.16109 0.0
C123 C 0.31202 0.32124 0.16357 0.0
C124 C 0.35155 0.3317 0.15655 0.0
C125 C 0.38033 0.35887 0.16396 0.0
C126 C 0.36964 0.37589 0.17837 0.0
C127 C 0.32731 0.37168 0.1839 0.0
C128 C 0.2986 0.34417 0.17656 0.0
C129 C 0.30674 0.14733 0.18403 0.0
C130 C 0.39739 0.20123 0.1847 0.0
C131 C 0.40339 0.095 0.14393 0.0
C132 C 0.43332 0.07987 0.13247 0.0
C133 C 0.44141 0.03633 0.13106 0.0
C134 C 0.47106 1.02237 0.12015 0.0
C135 C 0.49228 0.05214 0.11077 0.0
C136 C 0.48428 0.09565 0.11227 0.0
C137 C 0.45486 0.10954 0.12314 0.0
C138 C 0.45429 0.23395 0.15163 0.0
C139 C 0.32727 0.19117 0.11852 0.0
O140 O 0.2994 0.2621 0.14739 0.0
O141 O 0.30469 0.2516 0.17189 0.0
O142 O 0.31488 0.14773 0.16884 0.0
O143 O 0.31589 0.14937 0.16863 0.0
O144 O 0.38165 0.23304 0.17698 0.0
O145 O 0.39656 0.16509 0.17765 0.0
O146 O 0.36939 0.11387 0.1384 0.0
O147 O 0.4212 0.11583 0.1552 0.0
O148 O 0.45458 0.19283 0.15379 0.0
O149 O 0.41255 0.24133 0.14962 0.0
O150 O 0.3657 0.1795 0.12385 0.0
O151 O 0.30541 0.20357 0.13084 0.0
H152 H 0.36265 0.31468 0.14645 0.0
H153 H 0.41254 0.36241 0.15937 0.0
H154 H 0.31851 0.38485 0.19501 0.0
H155 H 0.26843 0.33652 0.1822 0.0
H156 H 0.42492 1.01339 0.13834 0.0
H157 H 0.47721 0.98864 0.11892 0.0
H158 H 0.50066 0.11867 0.10498 0.0
H159 H 0.4489 0.14333 0.1243 0.0
Nd160 Nd 0.1287 0.98592 0.25901 0.0
Nd161 Nd 0.16857 0.95208 0.26366 0.0
C162 C 0.05801 1.0271 0.25198 0.0
C163 C 1.01659 1.00593 0.24982 0.0
C164 C 0.99529 1.01309 0.23592 0.0
C165 C 0.9682 0.98203 0.23003 0.0
C166 C 0.9611 0.94373 0.23814 0.0
C167 C 0.97855 0.93848 0.25286 0.0
C168 C 1.00652 0.96939 0.25865 0.0
C169 C 0.19565 1.02075 0.23179 0.0
C170 C 0.1517 0.92795 0.23124 0.0
C171 C 0.24326 0.92937 0.27493 0.0
C172 C 0.25126 0.90191 0.28797 0.0
C173 C 0.29225 0.89878 0.29439 0.0
C174 C 0.29867 0.87188 0.30697 0.0
C175 C 0.264 0.84846 0.31296 0.0
C176 C 0.22295 0.85235 0.30672 0.0
C177 C 0.21657 0.87911 0.29426 0.0
C178 C 0.10403 0.87811 0.2643 0.0
C179 C 0.14589 1.00283 0.29691 0.0
O180 O 0.07372 1.0271 0.26589 0.0
O181 O 0.08624 1.01572 0.24176 0.0
O182 O 0.19067 1.01796 0.24716 0.0
O183 O 0.18876 1.01646 0.24727 0.0
O184 O 0.11634 0.94036 0.23808 0.0
O185 O 0.18609 0.93412 0.23918 0.0
O186 O 0.22464 0.9652 0.27851 0.0
O187 O 0.22534 0.91028 0.26326 0.0
O188 O 0.14428 0.87884 0.26014 0.0
O189 O 0.0991 0.91855 0.26821 0.0
O190 O 0.16242 0.96668 0.29172 0.0
O191 O 0.13006 1.02215 0.28451 0.0
H192 H 1.00314 0.04053 0.22883 0.0
H193 H 0.95455 0.98695 0.21868 0.0
H194 H 0.97266 0.9096 0.2594 0.0
H195 H 1.02297 0.96297 0.26939 0.0
H196 H 0.31901 0.91667 0.28963 0.0
H197 H 0.33053 0.86861 0.31182 0.0
H198 H 0.19618 0.83416 0.31133 0.0
H199 H 0.18463 0.88171 0.28943 0.0
Nd200 Nd 0.34146 0.86339 0.50875 0.0
Nd201 Nd 0.37994 0.90275 0.51193 0.0
C202 C 0.29276 0.79532 0.50452 0.0
C203 C 0.30882 0.75192 0.50195 0.0
C204 C 0.34763 0.73956 0.50894 0.0
C205 C 0.3744 0.71011 0.5017 0.0
C206 C 0.36268 0.69314 0.4874 0.0
C207 C 0.32103 0.70016 0.48176 0.0
C208 C 0.29415 0.72951 0.48903 0.0
C209 C 0.30998 0.9307 0.48096 0.0
C210 C 0.39367 0.87042 0.47935 0.0
C211 C 0.408 0.97832 0.52017 0.0
C212 C 0.44106 0.98746 0.53134 0.0
C213 C 0.45254 1.02924 0.53498 0.0
C214 C 0.48403 0.03639 0.54608 0.0
C215 C 0.50402 1.00166 0.55325 0.0
C216 C 0.49313 0.96002 0.5493 0.0
C217 C 0.46135 0.95298 0.53851 0.0
C218 C 0.45388 0.84014 0.51236 0.0
C219 C 0.32855 0.88419 0.54616 0.0
O220 O 0.29928 0.81182 0.51811 0.0
O221 O 0.30318 0.82158 0.49351 0.0
O222 O 0.31329 0.92604 0.49633 0.0
O223 O 0.31464 0.92411 0.49641 0.0
O224 O 0.37832 0.83913 0.48748 0.0
O225 O 0.39465 0.90691 0.48621 0.0
O226 O 0.3734 0.96099 0.52602 0.0
O227 O 0.42201 0.95843 0.50801 0.0
O228 O 0.45405 0.88051 0.5088 0.0
O229 O 0.41241 0.83377 0.5156 0.0
O230 O 0.36655 0.89645 0.54044 0.0
O231 O 0.30619 0.87054 0.5342 0.0
H232 H 0.35982 0.75636 0.5189 0.0
H233 H 0.40622 0.70459 0.50628 0.0
H234 H 0.31152 0.68718 0.47072 0.0
H235 H 0.26454 0.73868 0.4834 0.0
H236 H 0.43685 0.05595 0.52946 0.0
H237 H 0.49233 0.06868 0.54926 0.0
H238 H 0.50819 0.93315 0.55496 0.0
H239 H 0.45203 0.9206 0.53591 0.0
Nd240 Nd 0.46438 0.08922 0.7587 0.0
Nd241 Nd 0.42189 0.12529 0.76136 0.0
C242 C 0.53417 0.0426 0.75489 0.0
C243 C 0.57802 0.05968 0.75394 0.0
C244 C 0.58533 0.10054 0.76 0.0
C245 C 0.61347 0.12843 0.75251 0.0
C246 C 0.63503 0.11512 0.73919 0.0
C247 C 0.63445 0.07181 0.73518 0.0
C248 C 0.60558 0.04412 0.74247 0.0
C249 C 0.39773 0.05506 0.73075 0.0
C250 C 0.46019 0.14096 0.72949 0.0
C251 C 0.34321 0.15221 0.76717 0.0
C252 C 0.32643 0.1852 0.77708 0.0
C253 C 0.28378 0.18322 0.78217 0.0
C254 C 0.26952 0.21172 0.79332 0.0
C255 C 0.29806 0.24202 0.79925 0.0
C256 C 0.34009 0.24516 0.79365 0.0
C257 C 0.35436 0.21663 0.78263 0.0
C258 C 0.48414 0.20045 0.76233 0.0
C259 C 0.44108 0.07506 0.79593 0.0
O260 O 0.51467 0.04611 0.76816 0.0
O261 O 0.51007 0.05518 0.74353 0.0
O262 O 0.40239 0.0584 0.74614 0.0
O263 O 0.40417 0.05975 0.74618 0.0
O264 O 0.49111 0.12888 0.73845 0.0
O265 O 0.42204 0.13782 0.73537 0.0
O266 O 0.36081 0.12035 0.77441 0.0
O267 O 0.36629 0.1657 0.75561 0.0
O268 O 0.44512 0.19781 0.75699 0.0
O269 O 0.48924 0.16032 0.76707 0.0
O270 O 0.42227 0.10944 0.78982 0.0
O271 O 0.46165 0.05645 0.78444 0.0
H272 H 0.56458 0.11308 0.76893 0.0
H273 H 0.61365 0.16168 0.75574 0.0
H274 H 0.65098 0.06111 0.72488 0.0
H275 H 0.60038 1.01281 0.73762 0.0
H276 H 0.26221 0.15874 0.778 0.0
H277 H 0.23705 0.20911 0.79777 0.0
H278 H 0.36231 0.26833 0.79834 0.0
H279 H 0.38758 0.21803 0.77891 0.0
Nd280 Nd 0.24124 0.20903 1.00935 0.0
Nd281 Nd 0.20427 0.17027 1.01354 0.0
C282 C 0.29034 0.27713 1.00462 0.0
C283 C 0.27707 0.32185 1.00302 0.0
C284 C 0.24032 0.33619 1.01095 0.0
C285 C 0.21415 0.36731 1.0043 0.0
C286 C 0.22393 0.38273 0.98951 0.0
C287 C 0.26531 0.37559 0.98348 0.0
C288 C 0.29174 0.34486 0.99016 0.0
C289 C 0.27601 0.14702 0.98118 0.0
C290 C 0.18252 0.1975 0.98135 0.0
C291 C 0.18063 0.09375 1.02293 0.0
C292 C 0.14921 0.0785 1.03402 0.0
C293 C 0.13585 0.03598 1.03366 0.0
C294 C 0.10275 1.02234 1.04335 0.0
C295 C 0.08327 0.05128 1.05344 0.0
C296 C 0.09687 0.09374 1.05385 0.0
C297 C 0.1296 0.1074 1.04409 0.0
C298 C 0.1293 0.23169 1.01418 0.0
C299 C 0.25662 0.19068 1.04713 0.0
O300 O 0.28524 0.25951 1.01812 0.0
O301 O 0.27645 0.25271 0.99361 0.0
O302 O 0.26881 0.14726 0.99644 0.0
O303 O 0.26775 0.14891 0.99668 0.0
O304 O 0.19895 0.22979 0.98865 0.0
O305 O 0.18491 0.16156 0.98855 0.0
O306 O 0.21363 0.11404 1.02863 0.0
O307 O 0.16405 0.11289 1.01103 0.0
O308 O 0.1295 0.19078 1.01161 0.0
O309 O 0.17097 0.23924 1.01641 0.0
O310 O 0.21808 0.17917 1.04186 0.0
O311 O 0.27817 0.20209 1.03456 0.0
H312 H 0.22864 0.31952 1.02109 0.0
H313 H 0.18347 0.37418 1.00959 0.0
H314 H 0.27393 0.38796 0.97219 0.0
H315 H 0.32019 0.33471 0.98397 0.0
H316 H 0.15045 1.01368 1.02572 0.0
H317 H 0.09226 0.98946 1.04301 0.0
H318 H 0.08186 0.11626 1.06161 0.0
H319 H 0.1391 0.14058 1.0442 0.0
Nd320 Nd 0.9182 0.94511 0.7625 0.0
Nd321 Nd 0.9584 0.98256 0.75882 0.0
C322 C 0.83938 0.92332 0.77029 0.0
C323 C 0.822 0.89759 0.78265 0.0
C324 C 0.77905 0.90226 0.78713 0.0
C325 C 0.76363 0.8799 0.7999 0.0
C326 C 0.79133 0.85298 0.80802 0.0
C327 C 0.83416 0.84822 0.80346 0.0
C328 C 0.84957 0.87069 0.79085 0.0
C329 C 0.97986 0.87088 0.76381 0.0
C330 C 0.93917 0.99566 0.79648 0.0
C331 C 1.02642 1.03034 0.75265 0.0
C332 C 0.06955 1.01393 0.74914 0.0
C333 C 0.08383 0.97687 0.7567 0.0
C334 C 0.11236 0.94935 0.74932 0.0
C335 C 0.12641 0.95848 0.73431 0.0
C336 C 0.11711 0.99823 0.72772 0.0
C337 C 0.0889 1.02597 0.73514 0.0
C338 C 0.89502 1.01804 0.73099 0.0
C339 C 0.95171 0.92801 0.7304 0.0
O340 O 0.8577 0.95846 0.77488 0.0
O341 O 0.86202 0.90273 0.76007 0.0
O342 O 0.93852 0.87085 0.76123 0.0
O343 O 0.98785 0.91226 0.76568 0.0
O344 O 0.92363 0.95921 0.79087 0.0
O345 O 0.9551 1.01645 0.78443 0.0
O346 O 1.01189 1.02471 0.76664 0.0
O347 O 0.99816 1.01971 0.74237 0.0
O348 O 0.89525 1.00952 0.74618 0.0
O349 O 0.89688 1.00855 0.74635 0.0
O350 O 0.98338 0.94193 0.73867 0.0
O351 O 0.91429 0.93004 0.73689 0.0
H352 H 0.75787 0.92356 0.78094 0.0
H353 H 0.73046 0.88355 0.80347 0.0
H354 H 0.85563 0.82747 0.80978 0.0
H355 H 0.88307 0.86764 0.78762 0.0
H356 H 0.06929 0.96661 0.76746 0.0
H357 H 0.11985 0.91907 0.75464 0.0
H358 H 0.12789 1.00573 0.71612 0.0
H359 H 0.07809 0.0541 0.72905 0.0
Nd360 Nd 0.87166 0.15947 0.51283 0.0
Nd361 Nd 0.8373 0.19908 0.50806 0.0
C362 C 0.89355 0.08487 0.52416 0.0
C363 C 0.92072 0.07372 0.53703 0.0
C364 C 0.925 1.03128 0.54164 0.0
C365 C 0.95238 1.02119 0.55378 0.0
C366 C 0.975 0.05369 0.56126 0.0
C367 C 0.97014 0.09613 0.55678 0.0
C368 C 0.94323 0.10612 0.54462 0.0
C369 C 0.94653 0.22286 0.51297 0.0
C370 C 0.82021 0.1812 0.54604 0.0
C371 C 0.79629 0.27031 0.5014 0.0
C372 C 0.81758 0.31171 0.49932 0.0
C373 C 0.85627 0.31951 0.50724 0.0
C374 C 0.88786 0.34557 0.50066 0.0
C375 C 0.88053 0.36451 0.48628 0.0
C376 C 0.83961 0.36187 0.47958 0.0
C377 C 0.80822 0.33547 0.48606 0.0
C378 C 0.80248 0.13296 0.4809 0.0
C379 C 0.89491 0.17462 0.48014 0.0
O380 O 0.85791 0.10413 0.52791 0.0
O381 O 0.91376 0.10322 0.51274 0.0
O382 O 0.94561 0.18304 0.5088 0.0
O383 O 0.90574 0.22791 0.517 0.0
O384 O 0.85819 0.16835 0.54086 0.0
O385 O 0.79947 0.19393 0.53344 0.0
O386 O 0.79662 0.254 0.51524 0.0
O387 O 0.80768 0.24271 0.49108 0.0
O388 O 0.80511 0.1379 0.49625 0.0
O389 O 0.80667 0.13983 0.49638 0.0
O390 O 0.88209 0.21002 0.48659 0.0
O391 O 0.88968 0.1411 0.48852 0.0
H392 H 0.90769 1.00618 0.53576 0.0
H393 H 0.95631 0.98828 0.55724 0.0
H394 H 0.98777 0.12127 0.56252 0.0
H395 H 0.94024 0.13903 0.54104 0.0
H396 H 0.86424 0.30162 0.51752 0.0
H397 H 0.91931 0.34727 0.50594 0.0
H398 H 0.83359 0.37648 0.46845 0.0
H399 H 0.77888 0.32965 0.47971 0.0
Nd400 Nd 0.65717 0.11654 0.26283 0.0
Nd401 Nd 0.61589 0.08102 0.25906 0.0
C402 C 0.73362 0.14146 0.27232 0.0
C403 C 0.74591 0.17005 0.28465 0.0
C404 C 0.7886 0.17216 0.28958 0.0
C405 C 0.79956 0.19899 0.30173 0.0
C406 C 0.76775 0.22361 0.30887 0.0
C407 C 0.7251 0.22144 0.30392 0.0
C408 C 0.71416 0.1946 0.29187 0.0
C409 C 0.59445 0.19121 0.26341 0.0
C410 C 0.63526 0.06531 0.29669 0.0
C411 C 0.54451 0.03857 0.2531 0.0
C412 C 0.50266 0.05895 0.25043 0.0
C413 C 0.49314 0.09709 0.25822 0.0
C414 C 0.46715 0.12781 0.25128 0.0
C415 C 0.45048 0.12049 0.23654 0.0
C416 C 0.45471 0.08008 0.22986 0.0
C417 C 0.48061 0.04935 0.2368 0.0
C418 C 0.68319 0.04688 0.23149 0.0
C419 C 0.62994 0.13542 0.2302 0.0
O420 O 0.71545 0.10616 0.27691 0.0
O421 O 0.7133 0.15943 0.26094 0.0
O422 O 0.63412 0.18918 0.25852 0.0
O423 O 0.58899 0.15075 0.2677 0.0
O424 O 0.65075 0.102 0.29118 0.0
O425 O 0.6195 0.04499 0.28454 0.0
O426 O 0.56047 0.04117 0.26696 0.0
O427 O 0.5728 0.04831 0.24261 0.0
O428 O 0.67831 0.05022 0.24687 0.0
O429 O 0.67644 0.05162 0.24697 0.0
O430 O 0.59668 0.12265 0.23809 0.0
O431 O 0.66626 0.13227 0.23732 0.0
H432 H 0.81319 0.15304 0.28411 0.0
H433 H 0.83261 0.20065 0.30557 0.0
H434 H 0.70042 0.24037 0.30943 0.0
H435 H 0.68095 0.19284 0.2882 0.0
H436 H 0.50986 0.10542 0.26873 0.0
H437 H 0.46427 0.15889 0.25655 0.0
H438 H 0.44199 0.07404 0.21845 0.0
H439 H 0.48775 1.02044 0.23052 0.0
Nd440 Nd 0.70366 0.8957 1.01347 0.0
Nd441 Nd 0.73798 0.85759 1.00886 0.0
C442 C 0.68434 0.9709 1.02465 0.0
C443 C 0.65894 0.98359 1.03781 0.0
C444 C 0.66107 1.02536 1.04325 0.0
C445 C 0.63599 0.03713 1.05585 0.0
C446 C 0.60913 1.00693 1.06291 0.0
C447 C 0.60773 0.965 1.05764 0.0
C448 C 0.63256 0.95334 1.04508 0.0
C449 C 0.62826 0.83316 1.0137 0.0
C450 C 0.75363 0.87448 1.04687 0.0
C451 C 0.78118 0.78738 1.00274 0.0
C452 C 0.76143 0.7451 1.00123 0.0
C453 C 0.72462 0.73539 1.01011 0.0
C454 C 0.69276 0.7087 1.00418 0.0
C455 C 0.69769 0.69186 0.98936 0.0
C456 C 0.73733 0.69592 0.9817 0.0
C457 C 0.76922 0.72233 0.98765 0.0
C458 C 0.77282 0.92156 0.98098 0.0
C459 C 0.6781 0.87883 0.98139 0.0
O460 O 0.71984 0.95097 1.02807 0.0
O461 O 0.66254 0.95257 1.01369 0.0
O462 O 0.62911 0.87366 1.01036 0.0
O463 O 0.66933 0.82695 1.01708 0.0
O464 O 0.71527 0.88573 1.04161 0.0
O465 O 0.77523 0.86361 1.03422 0.0
O466 O 0.78047 0.80449 1.01641 0.0
O467 O 0.7687 0.81393 0.99216 0.0
O468 O 0.76884 0.9187 0.99636 0.0
O469 O 0.76745 0.91683 0.99653 0.0
O470 O 0.69111 0.84411 0.98827 0.0
O471 O 0.68545 0.913 0.9891 0.0
H472 H 0.68163 0.04872 1.03769 0.0
H473 H 0.63685 0.06967 1.05992 0.0
H474 H 0.58684 0.94168 1.06308 0.0
H475 H 0.63104 0.92085 1.04096 0.0
H476 H 0.71781 0.75252 1.02066 0.0
H477 H 0.66239 0.70569 1.01024 0.0
H478 H 0.74161 0.68283 0.97024 0.0
H479 H 0.79718 0.72945 0.9806 0.0
Nd480 Nd 0.91607 0.11352 0.9006 0.0
Nd481 Nd 0.95447 0.07987 0.906 0.0
C482 C 0.84032 0.12803 0.88825 0.0
C483 C 0.82608 0.15516 0.87578 0.0
C484 C 0.78215 0.1617 0.87345 0.0
C485 C 0.76877 0.19231 0.86287 0.0
C486 C 0.79949 0.216 0.85466 0.0
C487 C 0.84333 0.20829 0.8566 0.0
C488 C 0.85664 0.17813 0.86723 0.0
C489 C 0.9758 0.19061 0.90083 0.0
C490 C 0.93988 0.06334 0.86784 0.0
C491 C 1.02591 0.03779 0.9127 0.0
C492 C 0.06842 0.05608 0.91598 0.0
C493 C 0.08093 0.09409 0.90857 0.0
C494 C 0.10891 0.1223 0.91589 0.0
C495 C 0.12399 0.11289 0.93071 0.0
C496 C 0.117 0.07214 0.93694 0.0
C497 C 0.08928 0.04378 0.92958 0.0
C498 C 0.89341 0.03953 0.93289 0.0
C499 C 0.92325 0.13657 0.93363 0.0
O500 O 0.86457 0.09605 0.88421 0.0
O501 O 0.85499 0.14866 0.90015 0.0
O502 O 0.93388 0.18903 0.90159 0.0
O503 O 0.98532 0.14953 0.89996 0.0
O504 O 0.92903 0.10184 0.87268 0.0
O505 O 0.94941 0.04209 0.88069 0.0
O506 O 1.01142 0.0417 0.8987 0.0
O507 O 0.99707 0.04803 0.92284 0.0
O508 O 0.89309 0.04801 0.91777 0.0
O509 O 0.89483 0.04927 0.9175 0.0
O510 O 0.95929 0.11931 0.92887 0.0
O511 O 0.89337 0.13803 0.92346 0.0
H512 H 0.75844 0.14435 0.88017 0.0
H513 H 0.7348 0.19844 0.86141 0.0
H514 H 0.86713 0.22683 0.85034 0.0
H515 H 0.89069 0.17404 0.86922 0.0
H516 H 0.06538 0.10435 0.89804 0.0
H517 H 0.11474 0.15327 0.91079 0.0
H518 H 0.12867 0.06435 0.94837 0.0
H519 H 0.07999 1.01475 0.93551 0.0
Nd520 Nd 0.70172 0.15936 0.6512 0.0
Nd521 Nd 0.73889 0.19581 0.6551 0.0
C522 C 0.68465 0.08212 0.64133 0.0
C523 C 0.6624 0.06577 0.62802 0.0
C524 C 0.66218 1.02208 0.625 0.0
C525 C 0.63997 1.00677 0.61224 0.0
C526 C 0.61858 0.03543 0.60256 0.0
C527 C 0.61984 0.07916 0.6054 0.0
C528 C 0.64151 0.0943 0.61817 0.0
C529 C 0.62664 0.21995 0.65074 0.0
C530 C 0.75191 0.1799 0.61753 0.0
C531 C 0.78828 0.26286 0.65978 0.0
C532 C 0.77399 0.30518 0.66489 0.0
C533 C 0.77916 0.31542 0.68048 0.0
C534 C 0.75504 0.34765 0.68704 0.0
C535 C 0.72656 0.37186 0.67806 0.0
C536 C 0.72443 0.36468 0.66212 0.0
C537 C 0.74748 0.33095 0.65559 0.0
C538 C 0.76969 0.1306 0.68341 0.0
C539 C 0.68257 0.18722 0.68365 0.0
O540 O 0.72038 0.10222 0.6381 0.0
O541 O 0.66045 0.10219 0.65124 0.0
O542 O 0.62632 0.17846 0.65206 0.0
O543 O 0.6685 0.22835 0.64962 0.0
O544 O 0.71243 0.17298 0.62295 0.0
O545 O 0.77559 0.18623 0.62995 0.0
O546 O 0.77708 0.25068 0.646 0.0
O547 O 0.78219 0.23304 0.66996 0.0
O548 O 0.7662 0.13399 0.66802 0.0
O549 O 0.76482 0.13604 0.66789 0.0
O550 O 0.70028 0.21882 0.67628 0.0
O551 O 0.68159 0.15157 0.67624 0.0
H552 H 0.67849 0.99999 0.63258 0.0
H553 H 0.63859 0.97286 0.6101 0.0
H554 H 0.60286 0.10129 0.59802 0.0
H555 H 0.64133 0.12813 0.62052 0.0
H556 H 0.79937 0.29627 0.68791 0.0
H557 H 0.75785 0.35303 0.69935 0.0
H558 H 0.7042 0.38417 0.65485 0.0
H559 H 0.74297 0.3239 0.64349 0.0
Nd560 Nd 0.655 0.94728 0.40273 0.0
Nd561 Nd 0.61391 0.98311 0.40589 0.0
C562 C 0.7318 0.91949 0.39492 0.0
C563 C 0.74387 0.88664 0.38414 0.0
C564 C 0.78557 0.88515 0.37814 0.0
C565 C 0.79524 0.85597 0.3666 0.0
C566 C 0.76312 0.82848 0.36123 0.0
C567 C 0.72184 0.82921 0.36755 0.0
C568 C 0.71213 0.85847 0.37891 0.0
C569 C 0.59199 0.87264 0.40216 0.0
C570 C 0.63486 0.99804 0.36841 0.0
C571 C 0.54367 1.02759 0.41151 0.0
C572 C 0.50066 1.00903 0.41381 0.0
C573 C 0.4895 0.9719 0.40566 0.0
C574 C 0.46156 0.94204 0.41226 0.0
C575 C 0.44482 0.94912 0.42704 0.0
C576 C 0.45071 0.98889 0.43405 0.0
C577 C 0.4784 1.01886 0.42743 0.0
C578 C 0.67725 1.02172 0.4333 0.0
C579 C 0.62354 0.9306 0.43515 0.0
O580 O 0.71416 0.95281 0.3886 0.0
O581 O 0.71082 0.90584 0.40697 0.0
O582 O 0.63103 0.87517 0.40749 0.0
O583 O 0.58713 0.9128 0.39746 0.0
O584 O 0.6519 0.96246 0.37425 0.0
O585 O 0.61687 1.01774 0.38026 0.0
O586 O 0.5605 1.02468 0.39775 0.0
O587 O 0.57068 1.01641 0.42216 0.0
O588 O 0.67655 1.01311 0.41814 0.0
O589 O 0.67504 1.01213 0.41799 0.0
O590 O 0.59126 0.94233 0.4267 0.0
O591 O 0.66069 0.93456 0.42859 0.0
H592 H 0.81004 0.90718 0.38204 0.0
H593 H 0.82718 0.85547 0.36159 0.0
H594 H 0.69691 0.80819 0.3633 0.0
H595 H 0.67957 0.85993 0.38329 0.0
H596 H 0.50633 0.96341 0.39516 0.0
H597 H 0.45719 0.9115 0.40675 0.0
H598 H 0.438 0.99472 0.44551 0.0
H599 H 0.48673 0.04702 0.43396 0.0
Nd600 Nd 0.87141 0.89941 0.15118 0.0
Nd601 Nd 0.83687 0.86285 0.15606 0.0
C602 C 0.88549 0.97417 0.13802 0.0
C603 C 0.90479 0.99118 0.1239 0.0
C604 C 0.93673 1.02242 0.12519 0.0
C605 C 0.96081 1.03411 0.11231 0.0
C606 C 0.95313 1.01446 0.09811 0.0
C607 C 0.91921 0.98554 0.09651 0.0
C608 C 0.8948 0.97418 0.10936 0.0
C609 C 0.94767 0.83888 0.15229 0.0
C610 C 0.82182 0.87597 0.1183 0.0
C611 C 0.7934 0.79172 0.16153 0.0
C612 C 0.81317 0.74967 0.16364 0.0
C613 C 0.85338 0.74219 0.15669 0.0
C614 C 0.8837 0.71678 0.16412 0.0
C615 C 0.8734 0.69763 0.17825 0.0
C616 C 0.83069 0.6986 0.18359 0.0
C617 C 0.8007 0.72493 0.17637 0.0
C618 C 0.79463 0.92142 0.18328 0.0
C619 C 0.89319 0.88762 0.18422 0.0
O620 O 0.84951 0.95306 0.13661 0.0
O621 O 0.91213 0.95639 0.14766 0.0
O622 O 0.946 0.87963 0.15535 0.0
O623 O 0.90667 0.8318 0.1488 0.0
O624 O 0.86162 0.88187 0.12339 0.0
O625 O 0.79856 0.87182 0.13108 0.0
O626 O 0.79635 0.80875 0.14785 0.0
O627 O 0.804 0.81856 0.17221 0.0
O628 O 0.80661 0.92363 0.16846 0.0
O629 O 0.8077 0.92206 0.16817 0.0
O630 O 0.87636 0.85273 0.17862 0.0
O631 O 0.89409 0.91929 0.17476 0.0
H632 H 0.9445 0.03614 0.1363 0.0
H633 H 0.98705 0.05654 0.1136 0.0
H634 H 0.91306 0.97032 0.08554 0.0
H635 H 0.86954 0.95088 0.10798 0.0
H636 H 0.86345 0.76043 0.1467 0.0
H637 H 0.91643 0.71632 0.15987 0.0
H638 H 0.82228 0.68393 0.19453 0.0
H639 H 0.76999 0.73027 0.18195 0.0
Nd640 Nd 0.6175 0.59024 0.90655 0.0
Nd641 Nd 0.6578 0.62752 0.90308 0.0
C642 C 0.54792 0.54363 0.91137 0.0
C643 C 0.5046 0.56127 0.91326 0.0
C644 C 0.49564 0.60096 0.90641 0.0
C645 C 0.46712 0.62899 0.91351 0.0
C646 C 0.44695 0.61717 0.92733 0.0
C647 C 0.45052 0.57514 0.93272 0.0
C648 C 0.47943 0.54725 0.92572 0.0
C649 C 0.68541 0.55819 0.93418 0.0
C650 C 0.62626 0.64409 0.93555 0.0
C651 C 0.73374 0.65604 0.89443 0.0
C652 C 0.74279 0.6887 0.88312 0.0
C653 C 0.78497 0.69882 0.8789 0.0
C654 C 0.79218 0.72913 0.8674 0.0
C655 C 0.75711 0.74899 0.8603 0.0
C656 C 0.71509 0.73964 0.86487 0.0
C657 C 0.70796 0.70943 0.87622 0.0
C658 C 0.59361 0.69991 0.90216 0.0
C659 C 0.63738 0.57637 0.86904 0.0
O660 O 0.56563 0.54762 0.89779 0.0
O661 O 0.57389 0.55506 0.92231 0.0
O662 O 0.68048 0.56148 0.91881 0.0
O663 O 0.6786 0.56281 0.91873 0.0
O664 O 0.59436 0.62925 0.92755 0.0
O665 O 0.66318 0.64309 0.92868 0.0
O666 O 0.71652 0.62157 0.88877 0.0
O667 O 0.71355 0.66989 0.90657 0.0
O668 O 0.63328 0.70004 0.90695 0.0
O669 O 0.58905 0.65948 0.89797 0.0
O670 O 0.65139 0.6134 0.87469 0.0
O671 O 0.62336 0.55497 0.88124 0.0
H672 H 0.51474 0.61258 0.89681 0.0
H673 H 0.46491 0.66139 0.90929 0.0
H674 H 0.43521 0.56573 0.94345 0.0
H675 H 0.48611 0.51705 0.93126 0.0
H676 H 0.81193 0.68283 0.88422 0.0
H677 H 0.82474 0.73623 0.86374 0.0
H678 H 0.68795 0.75472 0.8593 0.0
H679 H 0.67522 0.7015 0.8794 0.0
Nd680 Nd 0.74326 0.37818 0.15681 0.0
Nd681 Nd 0.70985 0.41421 0.15149 0.0
C682 C 0.78383 0.30627 0.16365 0.0
C683 C 0.76432 0.26401 0.16595 0.0
C684 C 0.72528 0.25439 0.15858 0.0
C685 C 0.69658 0.22526 0.1652 0.0
C686 C 0.70706 0.20506 0.17911 0.0
C687 C 0.74842 0.21022 0.18525 0.0
C688 C 0.7769 0.23972 0.17874 0.0
C689 C 0.78478 0.43739 0.18359 0.0
C690 C 0.68979 0.41471 0.18476 0.0
C691 C 0.6944 0.48651 0.13712 0.0
C692 C 0.67189 0.4959 0.12296 0.0
C693 C 0.67079 0.53747 0.11719 0.0
C694 C 0.64558 0.54658 0.10436 0.0
C695 C 0.62221 0.51385 0.09731 0.0
C696 C 0.62502 0.47201 0.10266 0.0
C697 C 0.64931 0.46315 0.1156 0.0
C698 C 0.63338 0.35308 0.15282 0.0
C699 C 0.76119 0.39161 0.11895 0.0
O700 O 0.78306 0.32232 0.14979 0.0
O701 O 0.77148 0.33373 0.17383 0.0
O702 O 0.7753 0.43874 0.16856 0.0
O703 O 0.77404 0.43701 0.1683 0.0
O704 O 0.70763 0.3785 0.18074 0.0
O705 O 0.68422 0.44087 0.17358 0.0
O706 O 0.73016 0.46547 0.13541 0.0
O707 O 0.67008 0.47134 0.14811 0.0
O708 O 0.63538 0.3936 0.15614 0.0
O709 O 0.67428 0.34649 0.14921 0.0
O710 O 0.72123 0.39761 0.12378 0.0
O711 O 0.78352 0.38682 0.1319 0.0
H712 H 0.715 0.27265 0.14867 0.0
H713 H 0.66472 0.22177 0.16037 0.0
H714 H 0.75686 0.19496 0.19605 0.0
H715 H 0.80658 0.24691 0.18469 0.0
H716 H 0.68804 0.5629 0.1229 0.0
H717 H 0.64297 0.57909 0.10029 0.0
H718 H 0.60641 0.4468 0.09737 0.0
H719 H 0.64893 0.43113 0.12022 0.0
Nd720 Nd 0.96527 0.48287 0.40594 0.0
Nd721 Nd 0.923 0.44699 0.40226 0.0
C722 C 1.03549 0.52717 0.41218 0.0
C723 C 0.07817 0.50932 0.41545 0.0
C724 C 0.09215 0.47321 0.40728 0.0
C725 C 0.11955 0.44388 0.41431 0.0
C726 C 0.13264 0.45031 0.42956 0.0
C727 C 0.12396 0.48925 0.43678 0.0
C728 C 0.09708 0.51883 0.42969 0.0
C729 C 0.89833 0.51556 0.43374 0.0
C730 C 0.95469 0.42705 0.43441 0.0
C731 C 0.84585 0.42119 0.39373 0.0
C732 C 0.83254 0.39205 0.38172 0.0
C733 C 0.78896 0.38348 0.3793 0.0
C734 C 0.77686 0.35553 0.36763 0.0
C735 C 0.80843 0.33639 0.35843 0.0
C736 C 0.85197 0.34489 0.36092 0.0
C737 C 0.86402 0.37259 0.37257 0.0
C738 C 0.98502 0.37221 0.40129 0.0
C739 C 0.94439 0.50069 0.36866 0.0
O740 O 1.02068 0.52302 0.39821 0.0
O741 O 1.00695 0.51674 0.42249 0.0
O742 O 0.9027 0.51251 0.41834 0.0
O743 O 0.90447 0.51122 0.41826 0.0
O744 O 0.98709 0.44024 0.42619 0.0
O745 O 0.91751 0.43101 0.42792 0.0
O746 O 0.86349 0.45636 0.38877 0.0
O747 O 0.86734 0.4037 0.40491 0.0
O748 O 0.94544 0.37426 0.40621 0.0
O749 O 0.99099 0.41274 0.39712 0.0
O750 O 0.9275 0.46439 0.37403 0.0
O751 O 0.96224 0.51951 0.38071 0.0
H752 H 0.07807 0.46505 0.39627 0.0
H753 H 0.12643 0.4141 0.40863 0.0
H754 H 0.13405 0.49468 0.44856 0.0
H755 H 0.08664 0.54629 0.43623 0.0
H756 H 0.76454 0.3984 0.38637 0.0
H757 H 0.74312 0.349 0.3657 0.0
H758 H 0.87646 0.33015 0.35382 0.0
H759 H 0.89785 0.37895 0.37443 0.0
Nd760 Nd 0.84193 0.70993 0.65609 0.0
Nd761 Nd 0.87836 0.66931 0.65202 0.0
C762 C 0.79479 0.77782 0.6624 0.0
C763 C 0.81056 0.82111 0.66552 0.0
C764 C 0.84655 0.83669 0.65737 0.0
C765 C 0.8747 0.86532 0.66441 0.0
C766 C 0.8674 0.87768 0.67971 0.0
C767 C 0.82801 0.86773 0.68679 0.0
C768 C 0.79949 0.83973 0.67967 0.0
C769 C 0.80817 0.64576 0.68417 0.0
C770 C 0.90308 0.69954 0.68353 0.0
C771 C 0.89854 0.59129 0.644 0.0
C772 C 0.92643 0.57561 0.63201 0.0
C773 C 0.93156 0.53189 0.62978 0.0
C774 C 0.95871 0.51761 0.61811 0.0
C775 C 0.98023 0.54728 0.60877 0.0
C776 C 0.975 0.59093 0.61103 0.0
C777 C 0.94822 0.6051 0.62267 0.0
C778 C 0.9543 0.72991 0.6503 0.0
C779 C 0.82836 0.69026 0.61814 0.0
O780 O 0.79966 0.76322 0.64844 0.0
O781 O 0.80681 0.75032 0.67271 0.0
O782 O 0.81305 0.64798 0.66879 0.0
O783 O 0.81424 0.64973 0.66864 0.0
O784 O 0.8869 0.73144 0.67594 0.0
O785 O 0.89875 0.6629 0.67698 0.0
O786 O 0.86425 0.61073 0.63898 0.0
O787 O 0.91832 0.61207 0.65487 0.0
O788 O 0.95369 0.68873 0.65241 0.0
O789 O 0.91262 0.73843 0.6489 0.0
O790 O 0.86475 0.67433 0.62372 0.0
O791 O 0.80793 0.70664 0.63022 0.0
H792 H 0.85589 0.82294 0.64642 0.0
H793 H 0.90456 0.87348 0.65868 0.0
H794 H 0.82183 0.87729 0.69859 0.0
H795 H 0.772 0.82816 0.68616 0.0
H796 H 0.91473 0.50909 0.63702 0.0
H797 H 0.9629 0.48378 0.61632 0.0
H798 H 0.99176 0.61386 0.60382 0.0
H799 H 0.94453 0.63901 0.62442 0.0
Nd800 Nd 0.62552 0.49037 0.7598 0.0
Nd801 Nd 0.66093 0.45707 0.76518 0.0
C802 C 0.55367 0.53401 0.75513 0.0
C803 C 0.50959 0.51751 0.75385 0.0
C804 C 0.49947 0.47786 0.76056 0.0
C805 C 0.46901 0.45135 0.75365 0.0
C806 C 0.44901 0.46448 0.73999 0.0
C807 C 0.45266 0.50723 0.73532 0.0
C808 C 0.48328 0.53362 0.74215 0.0
C809 C 0.68628 0.52917 0.73239 0.0
C810 C 0.65874 0.4352 0.73203 0.0
C811 C 0.73435 0.44266 0.77926 0.0
C812 C 0.74348 0.41589 0.79245 0.0
C813 C 0.78541 0.41214 0.79801 0.0
C814 C 0.79435 0.38209 0.8094 0.0
C815 C 0.76125 0.35604 0.81511 0.0
C816 C 0.71907 0.36114 0.81 0.0
C817 C 0.71023 0.39092 0.79866 0.0
C818 C 0.60158 0.38007 0.76421 0.0
C819 C 0.63763 0.50731 0.79771 0.0
O820 O 0.57194 0.5308 0.76855 0.0
O821 O 0.57895 0.52142 0.74412 0.0
O822 O 0.68634 0.52186 0.74759 0.0
O823 O 0.68443 0.52048 0.74788 0.0
O824 O 0.62344 0.45542 0.73593 0.0
O825 O 0.68526 0.42915 0.74312 0.0
O826 O 0.7107 0.4759 0.78214 0.0
O827 O 0.72171 0.42172 0.76713 0.0
O828 O 0.64351 0.38158 0.76367 0.0
O829 O 0.59219 0.42113 0.76518 0.0
O830 O 0.64206 0.46753 0.79288 0.0
O831 O 0.63537 0.52953 0.78467 0.0
H832 H 0.51896 0.465 0.76977 0.0
H833 H 0.46601 0.41874 0.75757 0.0
H834 H 0.43711 0.51797 0.72484 0.0
H835 H 0.49041 0.56413 0.73687 0.0
H836 H 0.81125 0.43119 0.79317 0.0
H837 H 0.82709 0.37794 0.81331 0.0
H838 H 0.6935 0.34083 0.81432 0.0
H839 H 0.67781 0.39311 0.79425 0.0
Nd840 Nd 0.83858 0.37479 1.00988 0.0
Nd841 Nd 0.87625 0.41264 1.01226 0.0
C842 C 0.78932 0.30767 1.00606 0.0
C843 C 0.80616 0.26515 1.0027 0.0
C844 C 0.84322 0.25042 1.01036 0.0
C845 C 0.87013 0.22058 1.00332 0.0
C846 C 0.86085 0.2064 0.9884 0.0
C847 C 0.82176 0.21808 0.98149 0.0
C848 C 0.79432 0.24663 0.98869 0.0
C849 C 0.80059 0.43537 0.98155 0.0
C850 C 0.89036 0.37359 0.98061 0.0
C851 C 0.901 0.49083 1.01892 0.0
C852 C 0.93051 0.51037 1.0299 0.0
C853 C 0.91385 0.53049 1.04306 0.0
C854 C 0.94113 0.542 1.055 0.0
C855 C 0.98513 0.53385 1.05371 0.0
C856 C 1.00237 0.51716 1.04012 0.0
C857 C 0.97515 0.50549 1.02821 0.0
C858 C 0.95103 0.35124 1.01302 0.0
C859 C 0.82742 0.39367 1.04717 0.0
O860 O 0.79725 0.32328 1.0197 0.0
O861 O 0.79739 0.33488 0.9951 0.0
O862 O 0.81082 0.43626 0.99658 0.0
O863 O 0.81176 0.43469 0.99676 0.0
O864 O 0.87627 0.34422 0.98984 0.0
O865 O 0.88913 0.41175 0.98619 0.0
O866 O 0.86687 0.47287 1.02491 0.0
O867 O 0.91827 0.46809 1.00799 0.0
O868 O 0.95011 0.39137 1.00905 0.0
O869 O 0.9098 0.34497 1.01669 0.0
O870 O 0.8652 0.4053 1.04099 0.0
O871 O 0.80396 0.38217 1.03523 0.0
H872 H 0.85338 0.26452 1.02114 0.0
H873 H 0.89946 0.21092 1.00902 0.0
H874 H 0.81353 0.20683 0.97007 0.0
H875 H 0.76632 0.25781 0.9825 0.0
H876 H 0.87957 0.53503 1.04448 0.0
H877 H 0.92779 0.55502 1.06553 0.0
H878 H 1.03649 0.51098 1.03911 0.0
H879 H 0.98894 0.49062 1.01809 0.0
Nd880 Nd 0.96181 0.59047 0.26019 0.0
Nd881 Nd 0.92296 0.62654 0.26437 0.0
C882 C 1.03 0.54287 0.25521 0.0
C883 C 0.07394 0.55771 0.25205 0.0
C884 C 0.09011 0.55125 0.23721 0.0
C885 C 0.12309 0.5767 0.23165 0.0
C886 C 0.14239 0.6079 0.24104 0.0
C887 C 0.12958 0.61106 0.25652 0.0
C888 C 0.09488 0.58665 0.26193 0.0
C889 C 0.89622 0.55984 0.23209 0.0
C890 C 0.95125 0.64795 0.23199 0.0
C891 C 0.8448 0.64656 0.27335 0.0
C892 C 0.82897 0.67243 0.28582 0.0
C893 C 0.78488 0.6749 0.28881 0.0
C894 C 0.77031 0.69951 0.30107 0.0
C895 C 0.80006 0.7213 0.31022 0.0
C896 C 0.8441 0.71876 0.3072 0.0
C897 C 0.85856 0.69437 0.29499 0.0
C898 C 0.98502 0.70103 0.26529 0.0
C899 C 0.94313 0.57389 0.2978 0.0
O900 O 1.0146 0.54937 0.26899 0.0
O901 O 1.00279 0.55315 0.2445 0.0
O902 O 0.89958 0.56244 0.24749 0.0
O903 O 0.90155 0.5638 0.24762 0.0
O904 O 0.98372 0.63125 0.23923 0.0
O905 O 0.91512 0.64662 0.23938 0.0
O906 O 0.86422 0.6118 0.27774 0.0
O907 O 0.8658 0.6675 0.26272 0.0
O908 O 0.94343 0.70113 0.26332 0.0
O909 O 0.9929 0.65971 0.26698 0.0
O910 O 0.93081 0.612 0.29267 0.0
O911 O 0.95575 0.55315 0.28532 0.0
H912 H 0.07443 0.52939 0.22937 0.0
H913 H 0.13213 0.57313 0.21965 0.0
H914 H 0.14501 0.63339 0.26421 0.0
H915 H 0.08297 0.59226 0.2735 0.0
H916 H 0.76199 0.65785 0.28173 0.0
H917 H 0.73619 0.7016 0.30344 0.0
H918 H 0.8671 0.7357 0.31427 0.0
H919 H 0.89276 0.69254 0.2927 0.0
Nd920 Nd 0.74436 0.69919 0.50827 0.0
Nd921 Nd 0.71107 0.66286 0.51382 0.0
C922 C 0.78455 0.77085 0.5007 0.0
C923 C 0.76407 0.81218 0.49775 0.0
C924 C 0.72826 0.82453 0.50664 0.0
C925 C 0.69739 0.85178 0.50039 0.0
C926 C 0.70195 0.86638 0.4852 0.0
C927 C 0.74013 0.85838 0.4771 0.0
C928 C 0.77122 0.83165 0.48339 0.0
C929 C 0.7864 0.63908 0.48185 0.0
C930 C 0.69131 0.66151 0.48049 0.0
C931 C 0.69636 0.58966 0.52775 0.0
C932 C 0.67071 0.57789 0.541 0.0
C933 C 0.66716 0.53515 0.54534 0.0
C934 C 0.63794 0.5235 0.55679 0.0
C935 C 0.6127 0.55479 0.56383 0.0
C936 C 0.61763 0.59768 0.55994 0.0
C937 C 0.6464 0.60921 0.54844 0.0
C938 C 0.63377 0.72265 0.51235 0.0
C939 C 0.76123 0.6877 0.54649 0.0
O940 O 0.78361 0.7561 0.51475 0.0
O941 O 0.7734 0.74208 0.49083 0.0
O942 O 0.77692 0.63837 0.49692 0.0
O943 O 0.77565 0.64012 0.49716 0.0
O944 O 0.7101 0.69752 0.48422 0.0
O945 O 0.68434 0.6364 0.49191 0.0
O946 O 0.72991 0.61325 0.53068 0.0
O947 O 0.67406 0.60338 0.51607 0.0
O948 O 0.63597 0.68162 0.51003 0.0
O949 O 0.67487 0.73057 0.51526 0.0
O950 O 0.72194 0.67832 0.54163 0.0
O951 O 0.7833 0.69458 0.53349 0.0
H952 H 0.72189 0.80989 0.51774 0.0
H953 H 0.66826 0.8583 0.50678 0.0
H954 H 0.74418 0.86983 0.46537 0.0
H955 H 0.79831 0.82234 0.47629 0.0
H956 H 0.68567 0.51084 0.5395 0.0
H957 H 0.6339 0.49024 0.55979 0.0
H958 H 0.59786 0.62183 0.56531 0.0
H959 H 0.64825 0.64223 0.54491 0.0
Nd960 Nd 0.41546 0.44485 0.26391 0.0
Nd961 Nd 0.45301 0.48158 0.26001 0.0
C962 C 0.33618 0.43004 0.2734 0.0
C963 C 0.3159 0.41191 0.2871 0.0
C964 C 0.28609 0.37883 0.28536 0.0
C965 C 0.27323 0.35521 0.29817 0.0
C966 C 0.29055 0.36454 0.31267 0.0
C967 C 0.31726 0.3999 0.31464 0.0
C968 C 0.32967 0.42378 0.3019 0.0
C969 C 0.47551 0.36967 0.26466 0.0
C970 C 0.43485 0.49569 0.29739 0.0
C971 C 0.51944 0.53344 0.25598 0.0
C972 C 0.5642 0.52457 0.25155 0.0
C973 C 0.57627 0.53236 0.23623 0.0
C974 C 0.61206 0.51253 0.23006 0.0
C975 C 0.63774 0.48589 0.23923 0.0
C976 C 0.62928 0.48292 0.25511 0.0
C977 C 0.59205 0.50145 0.26121 0.0
C978 C 0.38892 0.51156 0.23126 0.0
C979 C 0.44726 0.42604 0.23159 0.0
O980 O 0.35592 0.4664 0.27528 0.0
O981 O 0.35794 0.40335 0.26492 0.0
O982 O 0.43375 0.3701 0.26284 0.0
O983 O 0.48446 0.4111 0.26601 0.0
O984 O 0.42847 0.45632 0.29215 0.0
O985 O 0.4417 0.51867 0.28483 0.0
O986 O 0.50648 0.52086 0.26957 0.0
O987 O 0.4916 0.5245 0.24533 0.0
O988 O 0.39126 0.50812 0.24666 0.0
O989 O 0.39327 0.50681 0.2468 0.0
O990 O 0.47852 0.44403 0.23907 0.0
O991 O 0.41067 0.42486 0.23877 0.0
H992 H 0.27492 0.36964 0.27401 0.0
H993 H 0.25243 0.32786 0.29663 0.0
H994 H 0.33056 0.40734 0.32585 0.0
H995 H 0.35185 0.44986 0.30359 0.0
H996 H 0.55578 0.5506 0.2286 0.0
H997 H 0.61822 0.51608 0.21781 0.0
H998 H 0.64986 0.46436 0.26257 0.0
H999 H 0.5839 0.49558 0.27319 0.0
Nd1000 Nd 0.37287 0.65579 1.01279 0.0
Nd1001 Nd 0.33545 0.6956 1.0095 0.0
C1002 C 0.39672 0.57849 1.02068 0.0
C1003 C 0.42923 0.5657 1.03157 0.0
C1004 C 0.43788 0.52272 1.03432 0.0
C1005 C 0.47017 0.51171 1.04467 0.0
C1006 C 0.49381 0.54384 1.05198 0.0
C1007 C 0.48519 0.5867 1.04912 0.0
C1008 C 0.45268 0.59759 1.03905 0.0
C1009 C 0.44849 0.71641 1.01375 0.0
C1010 C 0.32196 0.67522 1.04691 0.0
C1011 C 0.28517 0.76318 1.00706 0.0
C1012 C 0.3005 0.80717 1.00617 0.0
C1013 C 0.34492 0.81333 1.00712 0.0
C1014 C 0.36428 0.84548 0.9986 0.0
C1015 C 0.33928 0.87333 0.9898 0.0
C1016 C 0.29456 0.87423 0.99257 0.0
C1017 C 0.27487 0.8396 1.00005 0.0
C1018 C 0.30425 0.62989 0.98131 0.0
C1019 C 0.3892 0.69045 0.98041 0.0
O1020 O 0.36364 0.59754 1.02684 0.0
O1021 O 0.41196 0.59852 1.00868 0.0
O1022 O 0.44792 0.67584 1.01059 0.0
O1023 O 0.40701 0.72399 1.01638 0.0
O1024 O 0.35967 0.66217 1.04128 0.0
O1025 O 0.30016 0.68894 1.03485 0.0
O1026 O 0.29218 0.74376 1.0201 0.0
O1027 O 0.29711 0.74026 0.99532 0.0
O1028 O 0.3068 0.63391 0.99671 0.0
O1029 O 0.30817 0.63581 0.9968 0.0
O1030 O 0.37234 0.72133 0.9883 0.0
O1031 O 0.39003 0.65377 0.98726 0.0
H1032 H 0.41975 0.49802 1.02854 0.0
H1033 H 0.47668 0.47849 1.04703 0.0
H1034 H 0.50311 0.61158 1.05489 0.0
H1035 H 0.44572 0.63089 1.03708 0.0
H1036 H 0.36513 0.78964 1.01241 0.0
H1037 H 0.39868 0.84522 0.99749 0.0
H1038 H 0.2745 0.89713 0.98666 0.0
H1039 H 0.24029 0.83597 0.99954 0.0
Nd1040 Nd 0.16069 0.6177 0.76349 0.0
Nd1041 Nd 0.11944 0.58208 0.75991 0.0
C1042 C 0.23583 0.64553 0.77313 0.0
C1043 C 0.24383 0.67658 0.78512 0.0
C1044 C 0.28556 0.68539 0.79012 0.0
C1045 C 0.29197 0.71538 0.80173 0.0
C1046 C 0.25659 0.73641 0.80822 0.0
C1047 C 0.21493 0.7274 0.80324 0.0
C1048 C 0.20856 0.69746 0.79176 0.0
C1049 C 0.0985 0.69265 0.76399 0.0
C1050 C 0.1384 0.56547 0.79735 0.0
C1051 C 0.04865 0.53909 0.75348 0.0
C1052 C 1.00692 0.55957 0.75085 0.0
C1053 C 1.00005 0.59973 0.75752 0.0
C1054 C 0.97604 0.63038 0.74974 0.0
C1055 C 0.95751 0.62064 0.73552 0.0
C1056 C 0.95798 0.57834 0.73027 0.0
C1057 C 0.98299 0.54792 0.73785 0.0
C1058 C 0.1823 0.54275 0.73252 0.0
C1059 C 0.13199 0.63662 0.73121 0.0
O1060 O 0.21859 0.61009 0.77801 0.0
O1061 O 0.21654 0.66082 0.76103 0.0
O1062 O 0.13782 0.69019 0.75881 0.0
O1063 O 0.09293 0.65232 0.76848 0.0
O1064 O 0.15542 0.60149 0.7918 0.0
O1065 O 0.12121 0.54609 0.7853 0.0
O1066 O 0.06426 0.54131 0.7674 0.0
O1067 O 0.07707 0.54964 0.74314 0.0
O1068 O 0.18209 0.55212 0.74762 0.0
O1069 O 0.18063 0.5531 0.74782 0.0
O1070 O 0.09906 0.62544 0.73956 0.0
O1071 O 0.16884 0.63118 0.73777 0.0
H1072 H 0.31289 0.66923 0.78508 0.0
H1073 H 0.32427 0.72236 0.8056 0.0
H1074 H 0.18752 0.74351 0.80825 0.0
H1075 H 0.17609 0.69059 0.78803 0.0
H1076 H 1.01802 0.60934 0.76759 0.0
H1077 H 0.97607 0.66282 0.75385 0.0
H1078 H 0.94386 0.57036 0.71924 0.0
H1079 H 0.98809 0.51734 0.73242 0.0
Nd1080 Nd 0.20094 0.40051 0.51388 0.0
Nd1081 Nd 0.23858 0.36261 0.51016 0.0
C1082 C 0.17831 0.47669 0.52321 0.0
C1083 C 0.1495 0.48858 0.53551 0.0
C1084 C 0.14545 0.53107 0.53998 0.0
C1085 C 0.11784 0.54134 0.55207 0.0
C1086 C 0.09448 0.50899 0.55949 0.0
C1087 C 0.09859 0.46661 0.55498 0.0
C1088 C 0.12626 0.45639 0.54306 0.0
C1089 C 0.12591 0.33963 0.51441 0.0
C1090 C 0.25222 0.37983 0.5477 0.0
C1091 C 0.28658 0.29507 0.50463 0.0
C1092 C 0.2694 0.25269 0.50085 0.0
C1093 C 0.23111 0.23889 0.50802 0.0
C1094 C 0.20313 0.21156 0.50028 0.0
C1095 C 0.21309 0.19806 0.48532 0.0
C1096 C 0.25404 0.20661 0.47918 0.0
C1097 C 0.28216 0.23377 0.48694 0.0
C1098 C 0.27398 0.42507 0.48216 0.0
C1099 C 0.18368 0.37034 0.4815 0.0
O1100 O 0.21338 0.45791 0.52784 0.0
O1101 O 0.15966 0.45707 0.51181 0.0
O1102 O 0.12602 0.38065 0.51201 0.0
O1103 O 0.16753 0.33167 0.51648 0.0
O1104 O 0.21353 0.39031 0.5423 0.0
O1105 O 0.27502 0.36955 0.53536 0.0
O1106 O 0.27957 0.3092 0.51855 0.0
O1107 O 0.27771 0.32353 0.49425 0.0
O1108 O 0.26524 0.42519 0.49731 0.0
O1109 O 0.26428 0.42358 0.49751 0.0
O1110 O 0.19928 0.3388 0.48937 0.0
O1111 O 0.18427 0.40672 0.48843 0.0
H1112 H 0.16359 0.55594 0.5342 0.0
H1113 H 0.11457 0.57418 0.55563 0.0
H1114 H 0.0806 0.44159 0.56075 0.0
H1115 H 0.12967 0.42339 0.53973 0.0
H1116 H 0.2203 0.25301 0.51873 0.0
H1117 H 0.17193 0.20468 0.50528 0.0
H1118 H 0.26223 0.19624 0.46763 0.0
H1119 H 0.31128 0.24417 0.48115 0.0
Nd1120 Nd 0.4134 0.61766 0.40215 0.0
Nd1121 Nd 0.4519 0.58107 0.40621 0.0
C1122 C 0.3353 0.638 0.3934 0.0
C1123 C 0.32035 0.66724 0.38177 0.0
C1124 C 0.27638 0.67411 0.37969 0.0
C1125 C 0.26287 0.70361 0.36872 0.0
C1126 C 0.29354 0.72594 0.36001 0.0
C1127 C 0.33742 0.71887 0.36211 0.0
C1128 C 0.35082 0.68957 0.37298 0.0
C1129 C 0.47412 0.6931 0.40109 0.0
C1130 C 0.43416 0.56637 0.36852 0.0
C1131 C 0.51882 0.53111 0.41121 0.0
C1132 C 0.56279 0.5421 0.41607 0.0
C1133 C 0.57262 0.53909 0.4318 0.0
C1134 C 0.60803 0.56026 0.43767 0.0
C1135 C 0.63555 0.58349 0.42789 0.0
C1136 C 0.62895 0.58223 0.41189 0.0
C1137 C 0.5922 0.56226 0.40601 0.0
C1138 C 0.38518 0.54993 0.43415 0.0
C1139 C 0.44243 0.6366 0.43471 0.0
O1140 O 0.35581 0.60493 0.38804 0.0
O1141 O 0.35495 0.65628 0.40487 0.0
O1142 O 0.43226 0.69253 0.4022 0.0
O1143 O 0.48313 0.65169 0.4005 0.0
O1144 O 0.42348 0.6047 0.37386 0.0
O1145 O 0.44451 0.54462 0.38106 0.0
O1146 O 0.50697 0.54267 0.39741 0.0
O1147 O 0.48944 0.53922 0.42145 0.0
O1148 O 0.38909 0.55314 0.41877 0.0
O1149 O 0.39105 0.55447 0.41864 0.0
O1150 O 0.47462 0.61948 0.42743 0.0
O1151 O 0.40646 0.63686 0.42728 0.0
H1152 H 0.25281 0.65694 0.38653 0.0
H1153 H 0.22886 0.70904 0.36701 0.0
H1154 H 0.36114 0.73606 0.35533 0.0
H1155 H 0.38491 0.68447 0.37461 0.0
H1156 H 0.55101 0.5232 0.4398 0.0
H1157 H 0.61287 0.56002 0.45005 0.0
H1158 H 0.65085 0.59836 0.40408 0.0
H1159 H 0.58577 0.5645 0.39376 0.0
Nd1160 Nd 0.20131 0.65796 0.15173 0.0
Nd1161 Nd 0.23797 0.69551 0.15599 0.0
C1162 C 0.17961 0.58189 0.14171 0.0
C1163 C 0.14796 0.56672 0.13074 0.0
C1164 C 0.16008 0.53662 0.11968 0.0
C1165 C 0.13254 0.5273 0.10754 0.0
C1166 C 0.09297 0.54814 0.10652 0.0
C1167 C 0.07986 0.57651 0.11797 0.0
C1168 C 0.1073 0.58585 0.13005 0.0
C1169 C 0.12611 0.71956 0.15189 0.0
C1170 C 0.25282 0.67701 0.11821 0.0
C1171 C 0.28463 0.76569 0.15938 0.0
C1172 C 0.26887 0.80967 0.16012 0.0
C1173 C 0.22756 0.81866 0.15443 0.0
C1174 C 0.20232 0.84971 0.16154 0.0
C1175 C 0.21855 0.87171 0.17429 0.0
C1176 C 0.26271 0.86913 0.17759 0.0
C1177 C 0.28771 0.83763 0.17067 0.0
C1178 C 0.27992 0.63581 0.18264 0.0
C1179 C 0.18782 0.67048 0.18587 0.0
O1180 O 0.21106 0.6041 0.1357 0.0
O1181 O 0.16429 0.59848 0.15435 0.0
O1182 O 0.12602 0.67813 0.15294 0.0
O1183 O 0.16789 0.72757 0.15071 0.0
O1184 O 0.21405 0.66626 0.12348 0.0
O1185 O 0.27468 0.68816 0.13068 0.0
O1186 O 0.28053 0.7462 0.14625 0.0
O1187 O 0.27169 0.74212 0.17084 0.0
O1188 O 0.26801 0.63396 0.16786 0.0
O1189 O 0.26691 0.63555 0.16759 0.0
O1190 O 0.2082 0.70399 0.1805 0.0
O1191 O 0.17854 0.64217 0.17573 0.0
H1192 H 0.19151 0.52192 0.12006 0.0
H1193 H 0.1427 0.50538 0.09863 0.0
H1194 H 0.04925 0.59268 0.11717 0.0
H1195 H 0.09738 0.60931 0.13843 0.0
H1196 H 0.21265 0.79793 0.14604 0.0
H1197 H 0.16859 0.8518 0.15865 0.0
H1198 H 0.27587 0.88628 0.18733 0.0
H1199 H 0.31955 0.83142 0.17515 0.0
Nd1200 Nd 0.15791 0.44297 0.90186 0.0
Nd1201 Nd 0.11874 0.47811 0.9064 0.0
C1202 C 0.23281 0.41864 0.89089 0.0
C1203 C 0.24334 0.39278 0.87767 0.0
C1204 C 0.28594 0.38892 0.87273 0.0
C1205 C 0.2952 0.36471 0.85972 0.0
C1206 C 0.2617 0.3448 0.85172 0.0
C1207 C 0.21915 0.34879 0.85666 0.0
C1208 C 0.20998 0.37266 0.86966 0.0
C1209 C 0.09298 0.36964 0.90194 0.0
C1210 C 0.13711 0.49557 0.86863 0.0
C1211 C 0.04831 0.52106 0.91307 0.0
C1212 C 1.00597 0.50132 0.91529 0.0
C1213 C 0.99627 0.46377 0.90714 0.0
C1214 C 0.96917 0.43309 0.91367 0.0
C1215 C 0.95154 0.44003 0.92831 0.0
C1216 C 0.95627 0.47988 0.93537 0.0
C1217 C 0.98333 0.51051 0.92886 0.0
C1218 C 0.18155 0.51605 0.93352 0.0
C1219 C 0.14053 0.42252 0.93479 0.0
O1220 O 0.21544 0.45522 0.88748 0.0
O1221 O 0.21258 0.39847 0.9019 0.0
O1222 O 0.13312 0.37027 0.90619 0.0
O1223 O 0.08841 0.4101 0.89774 0.0
O1224 O 0.15084 0.45804 0.87372 0.0
O1225 O 0.12319 0.51575 0.88113 0.0
O1226 O 0.06454 0.51995 0.8992 0.0
O1227 O 0.07591 0.50912 0.92338 0.0
O1228 O 0.18132 0.50794 0.91835 0.0
O1229 O 0.17963 0.50681 0.91813 0.0
O1230 O 0.10525 0.43518 0.92805 0.0
O1231 O 0.17478 0.42695 0.92654 0.0
H1232 H 0.31175 0.40456 0.87889 0.0
H1233 H 0.32819 0.36143 0.85589 0.0
H1234 H 0.19327 0.33324 0.85051 0.0
H1235 H 0.17691 0.37548 0.87346 0.0
H1236 H 1.01345 0.45583 0.89666 0.0
H1237 H 0.96566 0.40248 0.90809 0.0
H1238 H 0.94251 0.48562 0.94668 0.0
H1239 H 0.99066 0.53895 0.93539 0.0
Nd1240 Nd 0.37302 0.40025 0.65239 0.0
Nd1241 Nd 0.33908 0.36182 0.6574 0.0
C1242 C 0.39184 0.47522 0.64063 0.0
C1243 C 0.41881 0.48777 0.62783 0.0
C1244 C 0.41947 0.53005 0.62279 0.0
C1245 C 0.44849 0.5423 0.61135 0.0
C1246 C 0.47669 0.51213 0.60516 0.0
C1247 C 0.47481 0.46958 0.60982 0.0
C1248 C 0.4458 0.45737 0.62113 0.0
C1249 C 0.44808 0.33736 0.65207 0.0
C1250 C 0.32191 0.37847 0.61924 0.0
C1251 C 0.29801 0.29069 0.66438 0.0
C1252 C 0.32005 0.24979 0.66648 0.0
C1253 C 0.3573 0.24158 0.65769 0.0
C1254 C 0.39027 0.21668 0.66378 0.0
C1255 C 0.38583 0.19935 0.6786 0.0
C1256 C 0.34634 0.20248 0.68638 0.0
C1257 C 0.31352 0.22758 0.68034 0.0
C1258 C 0.30614 0.42868 0.68479 0.0
C1259 C 0.39876 0.38606 0.68479 0.0
O1260 O 0.35734 0.45399 0.63687 0.0
O1261 O 0.41268 0.45829 0.65213 0.0
O1262 O 0.44747 0.37762 0.6557 0.0
O1263 O 0.40707 0.33177 0.64852 0.0
O1264 O 0.36034 0.39023 0.62434 0.0
O1265 O 0.30091 0.36727 0.63207 0.0
O1266 O 0.29796 0.30678 0.65051 0.0
O1267 O 0.30905 0.3187 0.6746 0.0
O1268 O 0.30751 0.42292 0.66944 0.0
O1269 O 0.30913 0.42094 0.66932 0.0
O1270 O 0.38442 0.35081 0.67863 0.0
O1271 O 0.39409 0.41935 0.67627 0.0
H1272 H 0.39853 0.55355 0.62796 0.0
H1273 H 0.45007 0.57528 0.60772 0.0
H1274 H 0.4966 0.44626 0.605 0.0
H1275 H 0.44526 0.42453 0.62498 0.0
H1276 H 0.36317 0.25826 0.64694 0.0
H1277 H 0.42054 0.21437 0.65764 0.0
H1278 H 0.34249 0.18892 0.69782 0.0
H1279 H 0.28537 0.23373 0.68737 0.0
C1280 C 0.13703 0.1996 0.45134 0.0
C1281 C 0.12933 0.15574 0.44997 0.0
C1282 C 0.16274 0.14216 0.47489 0.0
C1283 C 0.17822 0.18464 0.47477 0.0
N1284 N 0.17459 0.25628 0.46462 0.0
N1285 N 0.11596 0.08989 0.46279 0.0
C1286 C 0.16281 0.21445 0.46368 0.0
C1287 C 0.13587 0.1285 0.46263 0.0
N1288 N 0.11944 0.22636 0.44069 0.0
N1289 N 0.1762 0.11436 0.48599 0.0
H1290 H 0.09638 0.08022 0.45368 0.0
H1291 H 0.11519 0.07003 0.47242 0.0
H1292 H 0.19555 0.12371 0.49519 0.0
H1293 H 0.16982 0.08183 0.48571 0.0
H1294 H 0.12182 0.25935 0.44094 0.0
H1295 H 0.09888 0.21475 0.4322 0.0
H1296 H 0.16805 0.27892 0.45619 0.0
H1297 H 0.19187 0.26844 0.47389 0.0
C1298 C 0.2005 0.88522 0.71212 0.0
C1299 C 0.17303 0.8744 0.69982 0.0
C1300 C 0.11249 0.90527 0.71343 0.0
C1301 C 0.14156 0.92378 0.72418 0.0
N1302 N 0.21257 0.92523 0.73534 0.0
N1303 N 0.10141 0.86184 0.69095 0.0
C1304 C 0.18517 0.91118 0.72421 0.0
C1305 C 0.12849 0.87979 0.7014 0.0
N1306 N 0.24202 0.87217 0.71217 0.0
N1307 N 0.06945 0.91251 0.71404 0.0
H1308 H 0.1128 0.84112 0.6825 0.0
H1309 H 0.06814 0.86594 0.69137 0.0
H1310 H 0.05457 0.93089 0.72249 0.0
H1311 H 0.05457 0.93089 0.72249 0.0
H1312 H 0.25458 0.852 0.70374 0.0
H1313 H 0.25458 0.852 0.70374 0.0
H1314 H 0.2451 0.91716 0.73539 0.0
H1315 H 0.20257 0.94458 0.74442 0.0
C1316 C 0.42335 0.9145 0.96134 0.0
C1317 C 0.39892 0.91843 0.94765 0.0
C1318 C 0.3369 0.88982 0.96123 0.0
C1319 C 0.35868 0.8926 0.97557 0.0
N1320 N 0.42019 0.92158 0.98907 0.0
N1321 N 0.32542 0.92648 0.93788 0.0
C1322 C 0.40128 0.90939 0.97562 0.0
C1323 C 0.35374 0.91178 0.94856 0.0
N1324 N 0.46704 0.91374 0.9608 0.0
N1325 N 0.3014 0.86493 0.95911 0.0
H1326 H 0.33336 0.94758 0.92901 0.0
H1327 H 0.33336 0.94758 0.92901 0.0
H1328 H 0.29195 0.84122 0.96682 0.0
H1329 H 0.28541 0.86393 0.94854 0.0
H1330 H 0.48567 0.90776 0.97055 0.0
H1331 H 0.48391 0.91392 0.9504 0.0
H1332 H 0.45025 0.93633 0.98936 0.0
H1333 H 0.40366 0.92131 0.99957 0.0
C1334 C 0.39586 0.17067 0.22537 0.0
C1335 C 0.43895 0.15677 0.22644 0.0
C1336 C 0.45768 0.19572 0.20284 0.0
C1337 C 0.4136 0.20345 0.2006 0.0
N1338 N 0.3446 0.21552 0.21191 0.0
N1339 N 0.51314 0.16449 0.21886 0.0
C1340 C 0.38397 0.19688 0.21272 0.0
C1341 C 0.47081 0.17286 0.21615 0.0
N1342 N 0.36608 0.1565 0.2358 0.0
N1343 N 0.48617 0.20899 0.19181 0.0
H1344 H 0.52349 0.14866 0.22873 0.0
H1345 H 0.53821 0.17441 0.21179 0.0
H1346 H 0.47626 0.22765 0.18254 0.0
H1347 H 0.51893 0.2027 0.19181 0.0
H1348 H 0.33319 0.1615 0.23462 0.0
H1349 H 0.37445 0.13816 0.24538 0.0
H1350 H 0.32292 0.21575 0.22108 0.0
H1351 H 0.33594 0.23459 0.20255 0.0
C1352 C 0.14534 0.93129 0.20233 0.0
C1353 C 0.15476 0.9074 0.21587 0.0
C1354 C 0.18938 0.8532 0.19996 0.0
C1355 C 0.18922 0.88166 0.18731 0.0
N1356 N 0.16555 0.94688 0.1757 0.0
N1357 N 0.18919 0.84607 0.22748 0.0
C1358 C 0.16594 0.92016 0.18814 0.0
C1359 C 0.17714 0.86813 0.21463 0.0
N1360 N 0.11829 0.9653 0.20315 0.0
N1361 N 0.20238 0.81203 0.19799 0.0
H1362 H 0.17986 0.85442 0.23851 0.0
H1363 H 0.21108 0.82108 0.22734 0.0
H1364 H 0.21001 0.79936 0.18723 0.0
H1365 H 0.20176 0.7893 0.20672 0.0
H1366 H 0.10779 0.98212 0.19352 0.0
H1367 H 0.1033 0.97446 0.21337 0.0
H1368 H 0.15338 0.97767 0.17601 0.0
H1369 H 0.17964 0.93872 0.16517 0.0
C1370 C 0.38784 0.90196 0.43858 0.0
C1371 C 0.4318 0.91265 0.43688 0.0
C1372 C 0.44987 0.86986 0.45956 0.0
C1373 C 0.40586 0.86746 0.46302 0.0
N1374 N 0.33306 0.86669 0.45431 0.0
N1375 N 0.50579 0.90284 0.44424 0.0
C1376 C 0.3748 0.87825 0.45182 0.0
C1377 C 0.46332 0.89413 0.44664 0.0
N1378 N 0.3589 0.91667 0.42804 0.0
N1379 N 0.47834 0.84952 0.46896 0.0
H1380 H 0.51692 0.91848 0.4344 0.0
H1381 H 0.52965 0.89611 0.45222 0.0
H1382 H 0.46789 0.83171 0.47844 0.0
H1383 H 0.51111 0.84706 0.46671 0.0
H1384 H 0.32583 0.91266 0.42894 0.0
H1385 H 0.36846 0.93342 0.41818 0.0
H1386 H 0.30798 0.87302 0.44676 0.0
H1387 H 0.32417 0.84834 0.46387 0.0
C1388 C 0.43197 0.14063 0.68852 0.0
C1389 C 0.42371 0.18474 0.68736 0.0
C1390 C 0.46719 0.19831 0.71026 0.0
C1391 C 0.46577 0.15439 0.71336 0.0
N1392 N 0.46203 0.08306 0.70399 0.0
N1393 N 0.43989 0.25687 0.69484 0.0
C1394 C 0.45379 0.12525 0.70177 0.0
C1395 C 0.44459 0.21416 0.69728 0.0
N1396 N 0.41676 0.11393 0.67738 0.0
N1397 N 0.48908 0.22428 0.72009 0.0
H1398 H 0.42458 0.2691 0.68511 0.0
H1399 H 0.45058 0.28023 0.70239 0.0
H1400 H 0.50615 0.21187 0.72942 0.0
H1401 H 0.49326 0.25682 0.71843 0.0
H1402 H 0.41965 0.081 0.67767 0.0
H1403 H 0.40142 0.12539 0.66753 0.0
H1404 H 0.45381 0.05909 0.6963 0.0
H1405 H 0.47922 0.07248 0.71358 0.0
C1406 C 0.19059 0.19314 0.95302 0.0
C1407 C 0.16326 0.19897 0.96586 0.0
C1408 C 0.10586 0.1616 0.95257 0.0
C1409 C 0.13606 0.1479 0.94126 0.0
N1410 N 0.20566 0.15673 0.92921 0.0
N1411 N 0.09143 0.20084 0.9758 0.0
C1412 C 0.17766 0.1662 0.94084 0.0
C1413 C 0.11966 0.18763 0.96478 0.0
N1414 N 0.22982 0.21198 0.95245 0.0
N1415 N 0.06379 0.14962 0.95221 0.0
H1416 H 0.10074 0.22225 0.98433 0.0
H1417 H 0.05899 0.19228 0.97578 0.0
H1418 H 0.05013 0.13124 0.94349 0.0
H1419 H 0.05013 0.13124 0.94349 0.0
H1420 H 0.24089 0.2326 0.96099 0.0
H1421 H 0.24089 0.2326 0.96099 0.0
H1422 H 0.23681 0.16913 0.92881 0.0
H1423 H 0.19755 0.13667 0.9201 0.0
C1424 C 0.94687 0.86914 0.7122 0.0
C1425 C 0.95552 0.9125 0.71453 0.0
C1426 C 0.91929 0.93153 0.69062 0.0
C1427 C 0.90415 0.88912 0.68969 0.0
N1428 N 0.91457 0.81512 0.69619 0.0
N1429 N 0.96848 0.98062 0.7032 0.0
C1430 C 0.92201 0.85699 0.6993 0.0
C1431 C 0.94819 0.94223 0.70265 0.0
N1432 N 0.95975 0.84045 0.72308 0.0
N1433 N 0.90408 0.96173 0.68071 0.0
H1434 H 0.98942 0.98813 0.71219 0.0
H1435 H 0.96803 1.00242 0.69414 0.0
H1436 H 0.88336 0.95433 0.67166 0.0
H1437 H 0.91059 0.99408 0.68186 0.0
H1438 H 0.95015 0.80871 0.72341 0.0
H1439 H 0.98011 0.84946 0.73204 0.0
H1440 H 0.93099 0.79052 0.70158 0.0
H1441 H 0.89468 0.80519 0.68726 0.0
C1442 C 0.88601 0.17439 0.45141 0.0
C1443 C 0.9133 0.17032 0.46447 0.0
C1444 C 0.96831 0.13893 0.44803 0.0
C1445 C 0.9375 0.13284 0.43632 0.0
N1446 N 0.86717 0.14614 0.42616 0.0
N1447 N 0.97859 0.14055 0.47529 0.0
C1448 C 0.8965 0.15174 0.43764 0.0
C1449 C 0.95432 0.15113 0.46278 0.0
N1450 N 0.8495 0.19816 0.45239 0.0
N1451 N 1.01074 0.131 0.44529 0.0
H1452 H 0.96932 0.14661 0.48655 0.0
H1453 H 1.00627 0.12205 0.47454 0.0
H1454 H 1.02211 0.1208 0.43463 0.0
H1455 H 1.03478 0.13897 0.45313 0.0
H1456 H 0.82983 0.20456 0.44298 0.0
H1457 H 0.84095 0.21458 0.46236 0.0
H1458 H 0.83504 0.1549 0.42712 0.0
H1459 H 0.87486 0.13061 0.41589 0.0
C1460 C 0.65534 0.21531 0.20077 0.0
C1461 C 0.6726 0.18811 0.18927 0.0
C1462 C 0.63909 0.12653 0.20187 0.0
C1463 C 0.62841 0.15309 0.21443 0.0
N1464 N 0.60821 0.22235 0.22294 0.0
N1465 N 0.67334 0.12025 0.17658 0.0
C1466 C 0.63049 0.19751 0.21287 0.0
C1467 C 0.66129 0.1444 0.18893 0.0
N1468 N 0.66539 0.25763 0.20078 0.0
N1469 N 0.62893 0.08432 0.20274 0.0
H1470 H 0.68947 0.13324 0.16709 0.0
H1471 H 0.66665 0.088 0.17544 0.0
H1472 H 0.61107 0.07205 0.21197 0.0
H1473 H 0.63691 0.06189 0.19443 0.0
H1474 H 0.66006 0.27706 0.21028 0.0
H1475 H 0.68143 0.27272 0.19169 0.0
H1476 H 0.60471 0.25509 0.22157 0.0
H1477 H 0.58904 0.20898 0.23159 0.0
C1478 C 0.60536 0.92417 0.9509 0.0
C1479 C 0.63119 0.9162 0.9378 0.0
C1480 C 0.67305 0.86487 0.95279 0.0
C1481 C 0.65471 0.88176 0.96652 0.0
N1482 N 0.60179 0.92791 0.97848 0.0
N1483 N 0.68776 0.87688 0.92549 0.0
C1484 C 0.61987 0.91095 0.9655 0.0
C1485 C 0.66402 0.8852 0.9384 0.0
N1486 N 0.56705 0.94494 0.94936 0.0
N1487 N 0.69973 0.83055 0.95353 0.0
H1488 H 0.68124 0.89107 0.91486 0.0
H1489 H 0.7151 0.85788 0.92549 0.0
H1490 H 0.70665 0.81488 0.96381 0.0
H1491 H 0.71154 0.81502 0.94381 0.0
H1492 H 0.54609 0.95062 0.95848 0.0
H1493 H 0.55405 0.95302 0.93868 0.0
H1494 H 0.58194 0.95452 0.9784 0.0
H1495 H 0.60824 0.91707 0.98952 0.0
C1496 C 0.9401 0.18162 0.95701 0.0
C1497 C 0.91436 0.14998 0.94978 0.0
C1498 C 0.87339 0.14177 0.97374 0.0
C1499 C 0.8909 0.17982 0.97927 0.0
N1500 N 0.94385 0.23555 0.97702 0.0
N1501 N 0.84701 0.10863 0.95159 0.0
C1502 C 0.9261 0.19902 0.97139 0.0
C1503 C 0.87896 0.13193 0.95814 0.0
N1504 N 0.97599 0.19694 0.94977 0.0
N1505 N 0.84564 0.11876 0.98271 0.0
H1506 H 0.843 0.10374 0.93983 0.0
H1507 H 0.843 0.10374 0.93983 0.0
H1508 H 0.84018 0.12643 0.99427 0.0
H1509 H 0.83059 0.09112 0.97877 0.0
H1510 H 0.99834 0.21676 0.95505 0.0
H1511 H 0.98466 0.18811 0.93863 0.0
H1512 H 0.96617 0.25387 0.97099 0.0
H1513 H 0.93526 0.24827 0.98767 0.0
C1514 C 0.69622 0.18813 0.71198 0.0
C1515 C 0.66651 0.18897 0.69961 0.0
C1516 C 0.61272 0.15243 0.71516 0.0
C1517 C 0.64398 0.14673 0.7269 0.0
N1518 N 0.71027 0.16836 0.7387 0.0
N1519 N 0.59344 0.18655 0.69111 0.0
C1520 C 0.68395 0.16823 0.72613 0.0
C1521 C 0.62352 0.17641 0.70192 0.0
N1522 N 0.73687 0.2034 0.70971 0.0
N1523 N 0.57378 0.13239 0.71615 0.0
H1524 H 0.60154 0.20306 0.68109 0.0
H1525 H 0.56052 0.18225 0.69267 0.0
H1526 H 0.56351 0.11602 0.72595 0.0
H1527 H 0.55266 0.1297 0.70693 0.0
H1528 H 0.76194 0.19921 0.71747 0.0
H1529 H 0.74568 0.21982 0.69972 0.0
H1530 H 0.73871 0.18574 0.73933 0.0
H1531 H 0.70199 0.15306 0.74899 0.0
C1532 C 0.63415 0.94386 0.4628 0.0
C1533 C 0.62046 0.91557 0.45124 0.0
C1534 C 0.63976 0.85555 0.46765 0.0
C1535 C 0.66492 0.88381 0.47664 0.0
N1536 N 0.68224 0.95528 0.48435 0.0
N1537 N 0.60115 0.84493 0.44363 0.0
C1538 C 0.6601 0.92827 0.47496 0.0
C1539 C 0.61945 0.87142 0.45417 0.0
N1540 N 0.62234 0.98544 0.46196 0.0
N1541 N 0.63632 0.81378 0.47185 0.0
H1542 H 0.58407 0.8568 0.43423 0.0
H1543 H 0.60302 0.81191 0.44413 0.0
H1544 H 0.65146 0.80148 0.4816 0.0
H1545 H 0.61548 0.79241 0.46657 0.0
H1546 H 0.62783 1.007 0.47083 0.0
H1547 H 0.60275 0.99648 0.45305 0.0
H1548 H 0.68386 0.98803 0.48251 0.0
H1549 H 0.70033 0.94436 0.49366 0.0
C1550 C 0.89489 0.92348 0.22588 0.0
C1551 C 0.93573 0.91015 0.23041 0.0
C1552 C 0.94106 0.86816 0.20666 0.0
C1553 C 0.90684 0.89276 0.20047 0.0
N1554 N 0.86256 0.95632 0.20472 0.0
N1555 N 0.99653 0.86463 0.22636 0.0
C1556 C 0.8859 0.92305 0.21013 0.0
C1557 C 0.95789 0.8796 0.22139 0.0
N1558 N 0.86956 0.94552 0.23589 0.0
N1559 N 0.95911 0.83627 0.19819 0.0
H1560 H 1.00833 0.87171 0.23731 0.0
H1561 H 1.01711 0.84644 0.21959 0.0
H1562 H 0.9494 0.82905 0.187 0.0
H1563 H 0.98186 0.81531 0.20259 0.0
H1564 H 0.84002 0.95825 0.23256 0.0
H1565 H 0.87772 0.94848 0.24752 0.0
H1566 H 0.86072 0.96524 0.19318 0.0
H1567 H 0.86072 0.96524 0.19318 0.0
C1568 C 0.65173 0.63623 0.97704 0.0
C1569 C 0.65997 0.6796 0.98005 0.0
C1570 C 0.62745 0.70042 0.9557 0.0
C1571 C 0.62337 0.65685 0.95187 0.0
N1572 N 0.61648 0.58446 0.96057 0.0
N1573 N 0.63984 0.7526 0.97571 0.0
C1574 C 0.62983 0.62512 0.96327 0.0
C1575 C 0.64163 0.71155 0.97064 0.0
N1576 N 0.6672 0.606 0.98688 0.0
N1577 N 0.62129 0.73092 0.94471 0.0
H1578 H 0.65047 0.76148 0.98663 0.0
H1579 H 0.62389 0.77672 0.9698 0.0
H1580 H 0.61087 0.7235 0.93367 0.0
H1581 H 0.62881 0.76293 0.94626 0.0
H1582 H 0.66671 0.57354 0.98454 0.0
H1583 H 0.68201 0.61408 0.99727 0.0
H1584 H 0.61821 0.56013 0.96872 0.0
H1585 H 0.60006 0.57627 0.95054 0.0
C1586 C 0.65938 0.41745 0.22741 0.0
C1587 C 0.67046 0.45969 0.2312 0.0
C1588 C 0.70175 0.47008 0.20587 0.0
C1589 C 0.68521 0.42933 0.20102 0.0
N1590 N 0.64852 0.36397 0.2081 0.0
N1591 N 0.71681 0.51885 0.22661 0.0
C1592 C 0.66522 0.40253 0.21216 0.0
C1593 C 0.69811 0.4823 0.22142 0.0
N1594 N 0.64196 0.39095 0.2381 0.0
N1595 N 0.71881 0.49991 0.19617 0.0
H1596 H 0.71326 0.52859 0.23806 0.0
H1597 H 0.73707 0.53759 0.21975 0.0
H1598 H 0.72192 0.4975 0.18426 0.0
H1599 H 0.72192 0.4975 0.18426 0.0
H1600 H 0.63785 0.39898 0.24967 0.0
H1601 H 0.63785 0.39898 0.24967 0.0
H1602 H 0.6323 0.34454 0.21599 0.0
H1603 H 0.64888 0.35238 0.19685 0.0
C1604 C 0.9296 0.4215 0.47614 0.0
C1605 C 0.91695 0.37824 0.47643 0.0
C1606 C 0.95465 0.36539 0.45213 0.0
C1607 C 0.95801 0.4098 0.45019 0.0
N1608 N 0.96225 0.47932 0.46128 0.0
N1609 N 0.92464 0.3066 0.46694 0.0
C1610 C 0.9507 0.43756 0.46272 0.0
C1611 C 0.93281 0.34916 0.46528 0.0
N1612 N 0.91951 0.44699 0.48835 0.0
N1613 N 0.97201 0.33938 0.4412 0.0
H1614 H 0.91019 0.29386 0.47681 0.0
H1615 H 0.93172 0.28376 0.45867 0.0
H1616 H 0.98991 0.35179 0.43204 0.0
H1617 H 0.97227 0.30635 0.4418 0.0
H1618 H 0.92665 0.47926 0.48896 0.0
H1619 H 0.90443 0.4351 0.49824 0.0
H1620 H 0.95687 0.50243 0.4696 0.0
H1621 H 0.97886 0.49047 0.45158 0.0
C1622 C 0.9008 0.70613 0.71193 0.0
C1623 C 0.92547 0.70238 0.69842 0.0
C1624 C 0.97921 0.66145 0.71202 0.0
C1625 C 0.94936 0.6553 0.72429 0.0
N1626 N 0.88617 0.6789 0.73789 0.0
N1627 N 0.99497 0.69183 0.68719 0.0
C1628 C 0.91178 0.68083 0.72509 0.0
C1629 C 0.9671 0.68551 0.69912 0.0
N1630 N 0.86725 0.73372 0.71153 0.0
N1631 N 1.01911 0.64383 0.7121 0.0
H1632 H 0.98753 0.71254 0.6782 0.0
H1633 H 1.02584 0.6789 0.68696 0.0
H1634 H 1.03135 0.62593 0.72121 0.0
H1635 H 1.03135 0.62593 0.72121 0.0
H1636 H 0.84773 0.74098 0.72095 0.0
H1637 H 0.84773 0.74098 0.72095 0.0
H1638 H 0.85758 0.69549 0.73917 0.0
H1639 H 0.89366 0.66005 0.74743 0.0
C1640 C 0.65823 0.39594 0.69033 0.0
C1641 C 0.70111 0.40492 0.68609 0.0
C1642 C 0.71341 0.44102 0.71026 0.0
C1643 C 0.67215 0.42684 0.71583 0.0
N1644 N 0.60657 0.3877 0.71109 0.0
N1645 N 0.76234 0.44999 0.6889 0.0
C1646 C 0.64421 0.40462 0.70567 0.0
C1647 C 0.72518 0.43352 0.69487 0.0
N1648 N 0.63085 0.38014 0.67954 0.0
N1649 N 0.74411 0.45944 0.71922 0.0
H1650 H 0.77162 0.44411 0.67751 0.0
H1651 H 0.78207 0.47086 0.69503 0.0
H1652 H 0.74219 0.46483 0.73103 0.0
H1653 H 0.74219 0.46483 0.73103 0.0
H1654 H 0.59769 0.37885 0.68116 0.0
H1655 H 0.64088 0.37328 0.66834 0.0
H1656 H 0.58724 0.3673 0.70468 0.0
H1657 H 0.59617 0.39122 0.72245 0.0
C1658 C 0.96464 0.38341 0.94786 0.0
C1659 C 0.93541 0.4042 0.93778 0.0
C1660 C 0.87505 0.37676 0.95277 0.0
C1661 C 0.90406 0.36629 0.96458 0.0
N1662 N 0.9739 0.34203 0.97143 0.0
N1663 N 0.86322 0.41569 0.92895 0.0
C1664 C 0.94826 0.36351 0.96139 0.0
C1665 C 0.89059 0.39814 0.93944 0.0
N1666 N 1.00785 0.38596 0.9451 0.0
N1667 N 0.83295 0.36583 0.95444 0.0
H1668 H 0.8743 0.43031 0.91885 0.0
H1669 H 0.83003 0.41682 0.93045 0.0
H1670 H 0.82198 0.34975 0.96426 0.0
H1671 H 0.81068 0.36837 0.94556 0.0
H1672 H 1.03126 0.3755 0.95275 0.0
H1673 H 1.02051 0.39927 0.93503 0.0
H1674 H 1.00616 0.33544 0.96941 0.0
H1675 H 0.96117 0.32747 0.98128 0.0
C1676 C 0.92988 0.64981 0.18977 0.0
C1677 C 0.90794 0.6892 0.18958 0.0
C1678 C 0.93917 0.70818 0.21445 0.0
C1679 C 0.9525 0.66558 0.21621 0.0
N1680 N 0.96846 0.59746 0.20516 0.0
N1681 N 0.89626 0.75902 0.20031 0.0
C1682 C 0.95159 0.63726 0.20351 0.0
C1683 C 0.91503 0.71981 0.20132 0.0
N1684 N 0.9284 0.62417 0.17709 0.0
N1685 N 0.94891 0.737 0.22566 0.0
H1686 H 0.88125 0.76997 0.19033 0.0
H1687 H 0.89431 0.78036 0.20943 0.0
H1688 H 0.96586 0.72827 0.23547 0.0
H1689 H 0.94351 0.76956 0.22476 0.0
H1690 H 0.94533 0.59586 0.17602 0.0
H1691 H 0.91174 0.63266 0.16712 0.0
H1692 H 0.96502 0.57318 0.19714 0.0
H1693 H 0.98591 0.58865 0.2149 0.0
C1694 C 0.70185 0.60281 0.46049 0.0
C1695 C 0.68765 0.64517 0.46439 0.0
C1696 C 0.66133 0.65304 0.43793 0.0
C1697 C 0.66948 0.60955 0.43529 0.0
N1698 N 0.7124 0.54899 0.44108 0.0
N1699 N 0.65831 0.71225 0.45535 0.0
C1700 C 0.69627 0.5875 0.44541 0.0
C1701 C 0.66991 0.67112 0.45256 0.0
N1702 N 0.71877 0.57451 0.47073 0.0
N1703 N 0.64389 0.67776 0.42677 0.0
H1704 H 0.66115 0.72668 0.46608 0.0
H1705 H 0.6449 0.7317 0.44686 0.0
H1706 H 0.63747 0.66714 0.41563 0.0
H1707 H 0.63747 0.66714 0.41563 0.0
H1708 H 0.72379 0.5794 0.48244 0.0
H1709 H 0.72379 0.5794 0.48244 0.0
H1710 H 0.73186 0.53057 0.44824 0.0
H1711 H 0.70759 0.5371 0.42997 0.0
C1712 C 0.44005 0.36685 0.21367 0.0
C1713 C 0.45027 0.41002 0.21569 0.0
C1714 C 0.42479 0.42595 0.18962 0.0
C1715 C 0.40418 0.38571 0.18956 0.0
N1716 N 0.39659 0.31503 0.20037 0.0
N1717 N 0.46063 0.47991 0.20509 0.0
C1718 C 0.41394 0.35494 0.2011 0.0
C1719 C 0.4465 0.43909 0.20326 0.0
N1720 N 0.45474 0.33779 0.2241 0.0
N1721 N 0.42217 0.45176 0.17697 0.0
H1722 H 0.47809 0.48921 0.21477 0.0
H1723 H 0.45445 0.50444 0.19733 0.0
H1724 H 0.40523 0.44304 0.1671 0.0
H1725 H 0.43878 0.48038 0.17584 0.0
H1726 H 0.45147 0.30501 0.22286 0.0
H1727 H 0.47417 0.34701 0.23327 0.0
H1728 H 0.3979 0.29318 0.2094 0.0
H1729 H 0.37921 0.30427 0.19091 0.0
C1730 C 0.44893 0.68927 0.96205 0.0
C1731 C 0.40448 0.694 0.96439 0.0
C1732 C 0.39006 0.66395 0.93891 0.0
C1733 C 0.43339 0.65042 0.93834 0.0
N1734 N 0.50553 0.65213 0.94862 0.0
N1735 N 0.33282 0.69511 0.95445 0.0
C1736 C 0.46357 0.66471 0.94948 0.0
C1737 C 0.37512 0.68524 0.95238 0.0
N1738 N 0.47669 0.70736 0.97227 0.0
N1739 N 0.3634 0.65504 0.92685 0.0
H1740 H 0.32234 0.71231 0.96403 0.0
H1741 H 0.30834 0.68644 0.94695 0.0
H1742 H 0.37405 0.63912 0.91701 0.0
H1743 H 0.33165 0.66501 0.92615 0.0
H1744 H 0.50988 0.70841 0.97076 0.0
H1745 H 0.46548 0.72499 0.98159 0.0
H1746 H 0.52783 0.65704 0.95735 0.0
H1747 H 0.51786 0.63488 0.93938 0.0
C1748 C 0.1313 0.69906 0.71385 0.0
C1749 C 0.12967 0.65459 0.71554 0.0
C1750 C 0.16816 0.64465 0.69132 0.0
C1751 C 0.17741 0.6888 0.69121 0.0
N1752 N 0.16146 0.75976 0.70008 0.0
N1753 N 0.12688 0.58727 0.70307 0.0
C1754 C 0.15609 0.71677 0.7016 0.0
C1755 C 0.14162 0.62806 0.70324 0.0
N1756 N 0.10895 0.7236 0.72402 0.0
N1757 N 0.18705 0.61847 0.68075 0.0
H1758 H 0.10681 0.57572 0.71183 0.0
H1759 H 0.13038 0.56723 0.69361 0.0
H1760 H 0.20594 0.63001 0.67168 0.0
H1761 H 0.18547 0.58541 0.68136 0.0
H1762 H 0.10715 0.75659 0.72353 0.0
H1763 H 0.08904 0.70975 0.73236 0.0
H1764 H 0.14971 0.78204 0.70786 0.0
H1765 H 0.17817 0.7734 0.69086 0.0
C1766 C 0.20028 0.3762 0.45381 0.0
C1767 C 0.16947 0.36774 0.4654 0.0
C1768 C 0.11304 0.39431 0.44865 0.0
C1769 C 0.14519 0.41374 0.43932 0.0
N1770 N 0.21934 0.41981 0.43166 0.0
N1771 N 0.09602 0.36042 0.47317 0.0
C1772 C 0.18887 0.40279 0.44123 0.0
C1773 C 0.12543 0.37323 0.46239 0.0
N1774 N 0.24027 0.35915 0.45509 0.0
N1775 N 0.07093 0.39704 0.44448 0.0
H1776 H 0.10514 0.34273 0.4828 0.0
H1777 H 0.06346 0.36775 0.47279 0.0
H1778 H 0.06121 0.41195 0.43434 0.0
H1779 H 0.04629 0.38143 0.45032 0.0
H1780 H 0.26307 0.36072 0.44628 0.0
H1781 H 0.24843 0.3395 0.46435 0.0
H1782 H 0.25222 0.41675 0.43355 0.0
H1783 H 0.21136 0.43851 0.42212 0.0
C1784 C 0.41224 0.63767 0.4761 0.0
C1785 C 0.39653 0.67995 0.47635 0.0
C1786 C 0.43555 0.6964 0.45263 0.0
C1787 C 0.44371 0.65271 0.45065 0.0
N1788 N 0.44879 0.58247 0.4613 0.0
N1789 N 0.40003 0.75205 0.46641 0.0
C1790 C 0.43586 0.62369 0.4629 0.0
C1791 C 0.41089 0.71009 0.46524 0.0
N1792 N 0.40343 0.6111 0.48821 0.0
N1793 N 0.44932 0.72559 0.44211 0.0
H1794 H 0.3822 0.76416 0.47557 0.0
H1795 H 0.40947 0.77471 0.45824 0.0
H1796 H 0.46847 0.71779 0.43264 0.0
H1797 H 0.46847 0.71779 0.43264 0.0
H1798 H 0.41473 0.58012 0.48915 0.0
H1799 H 0.38571 0.62092 0.49779 0.0
H1800 H 0.44142 0.55813 0.46902 0.0
H1801 H 0.46752 0.57277 0.45195 0.0
C1802 C 0.16013 0.67718 0.22873 0.0
C1803 C 0.17451 0.63688 0.23377 0.0
C1804 C 0.20295 0.62164 0.20869 0.0
C1805 C 0.18456 0.66008 0.2026 0.0
N1806 N 0.1473 0.72602 0.20781 0.0
N1807 N 0.22761 0.58306 0.23097 0.0
C1808 C 0.16483 0.68895 0.21299 0.0
C1809 C 0.2047 0.61565 0.22471 0.0
N1810 N 0.14095 0.70445 0.23867 0.0
N1811 N 0.21447 0.58749 0.2 0.0
H1812 H 0.22637 0.5767 0.24281 0.0
H1813 H 0.24863 0.56448 0.22444 0.0
H1814 H 0.21056 0.58452 0.18814 0.0
H1815 H 0.21056 0.58452 0.18814 0.0
H1816 H 0.1374 0.69813 0.25043 0.0
H1817 H 0.1374 0.69813 0.25043 0.0
H1818 H 0.13251 0.74763 0.21521 0.0
H1819 H 0.14711 0.73477 0.19619 0.0
C1820 C 0.1665 0.36602 0.95264 0.0
C1821 C 0.1443 0.40499 0.9506 0.0
C1822 C 0.16467 0.42643 0.97679 0.0
C1823 C 0.18867 0.38849 0.97815 0.0
N1824 N 0.19343 0.31482 0.97077 0.0
N1825 N 0.10855 0.46385 0.96279 0.0
C1826 C 0.18255 0.35568 0.96728 0.0
C1827 C 0.13839 0.4323 0.96346 0.0
N1828 N 0.1759 0.34035 0.94043 0.0
N1829 N 0.16837 0.45717 0.98777 0.0
H1830 H 0.08898 0.46822 0.95319 0.0
H1831 H 0.10047 0.48257 0.97226 0.0
H1832 H 0.18699 0.45292 0.99764 0.0
H1833 H 0.15454 0.48714 0.98674 0.0
H1834 H 0.19643 0.31428 0.94124 0.0
H1835 H 0.16622 0.3469 0.92926 0.0
H1836 H 0.18512 0.28935 0.96371 0.0
H1837 H 0.2059 0.30627 0.98145 0.0
C1838 C 0.45817 0.41178 0.7016 0.0
C1839 C 0.41789 0.39064 0.70034 0.0
C1840 C 0.40053 0.41039 0.72704 0.0
C1841 C 0.44008 0.43252 0.72786 0.0
N1842 N 0.5125 0.44111 0.71829 0.0
N1843 N 0.35616 0.35981 0.71306 0.0
C1844 C 0.471 0.42829 0.71597 0.0
C1845 C 0.39113 0.38606 0.71357 0.0
N1846 N 0.48308 0.41892 0.68886 0.0
N1847 N 0.37125 0.41458 0.7387 0.0
H1848 H 0.34866 0.34178 0.70337 0.0
H1849 H 0.33704 0.35289 0.72263 0.0
H1850 H 0.37801 0.43149 0.74875 0.0
H1851 H 0.33979 0.4034 0.73807 0.0
H1852 H 0.50924 0.43966 0.68865 0.0
H1853 H 0.47603 0.4064 0.67815 0.0
H1854 H 0.53704 0.43626 0.71032 0.0
H1855 H 0.52351 0.453 0.72876 0.0
C1856 C 1.02871 0.24391 0.40682 0.0
C1857 C 0.07153 0.23912 0.4002 0.0
C1858 C 0.0601 0.32201 0.39489 0.0
C1859 C 1.01556 0.32598 0.40039 0.0
N1860 N 0.95791 0.27819 0.40824 0.0
N1861 N 0.12315 0.28013 0.38584 0.0
C1862 C 1.00072 0.28323 0.40538 0.0
C1863 C 0.08533 0.28045 0.39384 0.0
N1864 N 1.01436 0.2107 0.41557 0.0
N1865 N 0.07973 0.35897 0.3906 0.0
H1866 H 0.14157 0.25267 0.38468 0.0
H1867 H 0.13426 0.30539 0.37914 0.0
H1868 H 0.06349 0.38786 0.39039 0.0
H1869 H 0.11245 0.36168 0.3883 0.0
H1870 H 0.98756 0.21259 0.42277 0.0
H1871 H 1.03201 0.18274 0.41677 0.0
H1872 H 0.94358 0.24857 0.41001 0.0
H1873 H 0.93561 0.30236 0.40699 0.0
C1874 C 0.04215 0.74754 0.64349 0.0
C1875 C 1.00014 0.76106 0.64959 0.0
C1876 C 0.04463 0.83151 0.65465 0.0
C1877 C 0.08799 0.8168 0.65011 0.0
N1878 N 0.12159 0.75318 0.64083 0.0
N1879 N 0.97079 0.81821 0.66427 0.0
C1880 C 0.08413 0.77261 0.64478 0.0
C1881 C 1.00479 0.8037 0.65595 0.0
N1882 N 0.04214 0.71034 0.63544 0.0
N1883 N 1.03952 0.87401 0.65713 0.0
H1884 H 0.94236 0.80085 0.66529 0.0
H1885 H 0.97258 0.84494 0.67131 0.0
H1886 H 0.06407 0.89611 0.65586 0.0
H1887 H 1.00957 0.88822 0.65854 0.0
H1888 H 0.06805 0.69967 0.62892 0.0
H1889 H 1.0144 0.6922 0.63393 0.0
H1890 H 0.12433 0.72066 0.63886 0.0
H1891 H 0.15077 0.7694 0.64064 0.0
C1892 C 0.51544 0.80629 0.91326 0.0
C1893 C 0.51007 0.83321 0.89955 0.0
C1894 C 0.55925 0.77289 0.88734 0.0
C1895 C 0.56165 0.74441 0.9007 0.0
N1896 N 0.52951 0.73642 0.92569 0.0
N1897 N 0.52691 0.83235 0.87247 0.0
C1898 C 0.53629 0.76255 0.91335 0.0
C1899 C 0.532 0.81301 0.88643 0.0
N1900 N 0.50045 0.82253 0.9268 0.0
N1901 N 0.58463 0.76229 0.87511 0.0
H1902 H 0.51099 0.86129 0.87125 0.0
H1903 H 0.53576 0.81849 0.86205 0.0
H1904 H 0.60244 0.73421 0.87495 0.0
H1905 H 0.59049 0.78237 0.86576 0.0
H1906 H 0.50713 0.80919 0.93753 0.0
H1907 H 0.48429 0.85149 0.92732 0.0
H1908 H 0.50844 0.74338 0.93468 0.0
H1909 H 0.54165 0.70552 0.92597 0.0
C1910 C 0.50645 0.30389 0.1606 0.0
C1911 C 0.49946 0.26606 0.15119 0.0
C1912 C 0.58131 0.28179 0.1438 0.0
C1913 C 0.58719 0.32187 0.15226 0.0
N1914 N 0.54487 0.36947 0.16805 0.0
N1915 N 0.53653 0.22407 0.13239 0.0
C1916 C 0.54646 0.33185 0.16029 0.0
C1917 C 0.53921 0.25683 0.14262 0.0
N1918 N 0.47521 0.31223 0.17119 0.0
N1919 N 0.617 0.26623 0.13668 0.0
H1920 H 0.50863 0.20596 0.13115 0.0
H1921 H 0.56 0.21717 0.12421 0.0
H1922 H 0.64572 0.28323 0.1362 0.0
H1923 H 0.61927 0.2356 0.13225 0.0
H1924 H 0.47936 0.33331 0.18029 0.0
H1925 H 0.4467 0.29477 0.1717 0.0
H1926 H 0.5163 0.38328 0.17178 0.0
H1927 H 0.57177 0.38817 0.17011 0.0
C1928 C 0.04553 0.75951 0.25303 0.0
C1929 C 1.01739 0.74571 0.26567 0.0
C1930 C 0.04411 0.81912 0.27757 0.0
C1931 C 0.07159 0.83337 0.26479 0.0
N1932 N 0.08823 0.8142 0.23874 0.0
N1933 N 0.9871 0.77301 0.28908 0.0
C1934 C 0.06919 0.80204 0.25225 0.0
C1935 C 1.01631 0.77903 0.27752 0.0
N1936 N 0.04941 0.73136 0.24117 0.0
N1937 N 0.04547 0.84359 0.29051 0.0
H1938 H 0.96859 0.74534 0.28991 0.0
H1939 H 0.97898 0.79625 0.29709 0.0
H1940 H 0.06328 0.87175 0.29093 0.0
H1941 H 1.03196 0.83463 0.30103 0.0
H1942 H 0.06734 0.73639 0.23123 0.0
H1943 H 1.03539 0.7012 0.2416 0.0
H1944 H 0.08599 0.79777 0.22841 0.0
H1945 H 0.10276 0.84388 0.23743 0.0
C1946 C 0.53974 0.82002 0.52087 0.0
C1947 C 0.49921 0.8084 0.51325 0.0
C1948 C 0.54577 0.74093 0.50563 0.0
C1949 C 0.58724 0.75329 0.51265 0.0
N1950 N 0.6178 0.81201 0.52643 0.0
N1951 N 0.47227 0.75608 0.49589 0.0
C1952 C 0.58177 0.79503 0.52 0.0
C1953 C 0.50529 0.7681 0.50519 0.0
N1954 N 0.53785 0.85528 0.52996 0.0
N1955 N 0.54394 0.7016 0.49908 0.0
H1956 H 0.44344 0.77287 0.49553 0.0
H1957 H 0.47466 0.7322 0.48766 0.0
H1958 H 0.57092 0.68306 0.49708 0.0
H1959 H 0.5153 0.68628 0.49631 0.0
H1960 H 0.56187 0.86467 0.53753 0.0
H1961 H 0.50998 0.87332 0.53095 0.0
H1962 H 0.6204 0.8433 0.53016 0.0
H1963 H 0.64651 0.79524 0.5271 0.0
C1964 C 0.58092 0.29451 0.7724 0.0
C1965 C 0.57041 0.33443 0.76434 0.0
C1966 C 0.50283 0.28835 0.75619 0.0
C1967 C 0.51465 0.24696 0.76328 0.0
N1968 N 0.57385 0.21666 0.77713 0.0
N1969 N 0.52119 0.3593 0.7453 0.0
C1970 C 0.55629 0.25253 0.771 0.0
C1971 C 0.53113 0.32786 0.75553 0.0
N1972 N 0.61454 0.29673 0.78241 0.0
N1973 N 0.46268 0.29173 0.75008 0.0
H1974 H 0.53908 0.38733 0.74452 0.0
H1975 H 0.4983 0.3558 0.73666 0.0
H1976 H 0.44126 0.2666 0.74922 0.0
H1977 H 0.44899 0.32075 0.74702 0.0
H1978 H 0.62214 0.27283 0.79026 0.0
H1979 H 0.63238 0.32452 0.78392 0.0
H1980 H 0.60548 0.2147 0.7809 0.0
H1981 H 0.55755 0.18771 0.77728 0.0
C1982 C 0.07996 0.30543 1.00762 0.0
C1983 C 0.08387 0.26333 1.01465 0.0
C1984 C 1.00136 0.27827 1.02119 0.0
C1985 C 0.9969 0.31985 1.01361 0.0
N1986 N 1.03895 0.36605 0.99698 0.0
N1987 N 1.03889 0.2101 1.02652 0.0
C1988 C 1.03858 0.331 1.00632 0.0
C1989 C 0.04156 0.25051 1.02082 0.0
N1990 N 0.117 0.32192 1.00169 0.0
N1991 N 0.96677 0.26493 1.02961 0.0
H1992 H 0.06579 0.19092 1.028 0.0
H1993 H 1.01 0.19465 1.02891 0.0
H1994 H 0.93818 0.282 1.03001 0.0
H1995 H 0.96735 0.2392 1.03719 0.0
H1996 H 0.12043 0.35326 0.99806 0.0
H1997 H 0.14547 0.30459 1.00135 0.0
H1998 H 0.06361 0.37354 0.98931 0.0
H1999 H 1.01259 0.38559 0.99537 0.0
C2000 C 1.02464 0.74379 0.77144 0.0
C2001 C 0.06791 0.73899 0.7648 0.0
C2002 C 0.05321 0.82021 0.75732 0.0
C2003 C 1.01156 0.82583 0.76479 0.0
N2004 N 0.96284 0.78671 0.78101 0.0
N2005 N 0.12373 0.78581 0.75476 0.0
C2006 C 0.99921 0.78535 0.7722 0.0
C2007 C 0.08155 0.78109 0.75873 0.0
N2008 N 1.00668 0.70771 0.77736 0.0
N2009 N 0.06594 0.85236 0.74777 0.0
H2010 H 0.14622 0.76171 0.75568 0.0
H2011 H 0.13767 0.81522 0.75226 0.0
H2012 H 0.04811 0.88019 0.74655 0.0
H2013 H 0.09142 0.84954 0.74003 0.0
H2014 H 0.97441 0.7048 0.78036 0.0
H2015 H 1.02383 0.67946 0.77831 0.0
H2016 H 0.95297 0.76241 0.78839 0.0
H2017 H 0.94447 0.81423 0.78204 0.0
C2018 C 1.0288 0.25006 0.50311 0.0
C2019 C 0.99199 0.25451 0.51365 0.0
C2020 C 0.04171 0.31657 0.52421 0.0
C2021 C 0.08042 0.30824 0.5149 0.0
N2022 N 0.10554 0.25882 0.49598 0.0
N2023 N 0.97124 0.29543 0.5357 0.0
C2024 C 0.07189 0.27226 0.50474 0.0
C2025 C 1.00121 0.28905 0.52446 0.0
N2026 N 1.02145 0.22706 0.49009 0.0
N2027 N 0.04295 0.35218 0.53312 0.0
H2028 H 0.94266 0.27807 0.53613 0.0
H2029 H 0.97604 0.31513 0.54517 0.0
H2030 H 0.07062 0.37072 0.53413 0.0
H2031 H 1.01613 0.36487 0.53862 0.0
H2032 H 0.04317 0.22478 0.48097 0.0
H2033 H 0.99086 0.2159 0.48746 0.0
H2034 H 0.10508 0.23048 0.48981 0.0
H2035 H 0.13517 0.27441 0.49606 0.0
C2036 C 0.52169 0.24242 0.27223 0.0
C2037 C 0.56318 0.23716 0.26425 0.0
C2038 C 0.5467 0.31795 0.25667 0.0
C2039 C 0.50701 0.3243 0.26529 0.0
N2040 N 0.45637 0.28331 0.28007 0.0
N2041 N 0.61572 0.28301 0.25169 0.0
C2042 C 0.49507 0.28348 0.27264 0.0
C2043 C 0.57502 0.27873 0.25734 0.0
N2044 N 0.50799 0.20787 0.28046 0.0
N2045 N 0.55666 0.34885 0.24623 0.0
H2046 H 0.63809 0.25872 0.25151 0.0
H2047 H 0.62872 0.31221 0.24839 0.0
H2048 H 0.54019 0.37766 0.24566 0.0
H2049 H 0.57696 0.34294 0.23691 0.0
H2050 H 0.48197 0.20764 0.28799 0.0
H2051 H 0.52473 0.17926 0.28045 0.0
H2052 H 0.44062 0.25618 0.28401 0.0
H2053 H 0.43871 0.31102 0.28178 0.0
C2054 C 0.54567 0.80803 1.00375 0.0
C2055 C 0.58275 0.80151 1.01394 0.0
C2056 C 0.53322 0.73763 1.02344 0.0
C2057 C 0.49424 0.74758 1.01456 0.0
N2058 N 0.46903 0.79965 0.99659 0.0
N2059 N 0.60418 0.75643 1.03485 0.0
C2060 C 0.50272 0.7852 1.00505 0.0
C2061 C 0.57381 0.76497 1.024 0.0
N2062 N 0.55246 0.83428 0.99144 0.0
N2063 N 0.53215 0.7005 1.03159 0.0
H2064 H 0.63285 0.77358 1.03544 0.0
H2065 H 0.5997 0.735 1.04389 0.0
H2066 H 0.50447 0.68188 1.03238 0.0
H2067 H 0.55907 0.68677 1.03663 0.0
H2068 H 0.53091 0.838 0.98239 0.0
H2069 H 0.58242 0.84764 0.98917 0.0
H2070 H 0.4693 0.82853 0.99069 0.0
H2071 H 0.43959 0.78374 0.99647 0.0
C2072 C 1.02693 0.31432 0.89028 0.0
C2073 C 0.06078 0.32459 0.9014 0.0
C2074 C 0.04229 0.24599 0.91088 0.0
C2075 C 1.00681 0.23641 0.90043 0.0
N2076 N 0.96428 0.27183 0.88122 0.0
N2077 N 0.08605 0.29746 0.92561 0.0
C2078 C 0.99924 0.27402 0.89061 0.0
C2079 C 0.06426 0.289 0.91237 0.0
N2080 N 1.02148 0.34305 0.87866 0.0
N2081 N 0.05568 0.21338 0.91999 0.0
H2082 H 0.09689 0.32802 0.92808 0.0
H2083 H 0.08738 0.27671 0.93499 0.0
H2084 H 0.04083 0.18362 0.91978 0.0
H2085 H 0.08363 0.21479 0.92652 0.0
H2086 H 1.00254 0.33746 0.869 0.0
H2087 H 1.03894 0.37141 0.87818 0.0
H2088 H 0.95198 0.29784 0.87526 0.0
H2089 H 0.94581 0.24424 0.88024 0.0
C2090 C 0.5069 0.27771 0.63889 0.0
C2091 C 0.4932 0.30534 0.65156 0.0
C2092 C 0.5685 0.28048 0.66293 0.0
C2093 C 0.58155 0.25183 0.6505 0.0
N2094 N 0.55243 0.22066 0.62757 0.0
N2095 N 0.51325 0.32104 0.67758 0.0
C2096 C 0.54719 0.25012 0.63892 0.0
C2097 C 0.52536 0.30319 0.66393 0.0
N2098 N 0.48166 0.27858 0.62609 0.0
N2099 N 0.59791 0.28583 0.67439 0.0
H2100 H 0.48271 0.33384 0.67912 0.0
H2101 H 0.53051 0.31889 0.68778 0.0
H2102 H 0.62833 0.27206 0.67387 0.0
H2103 H 0.59355 0.30484 0.68402 0.0
H2104 H 0.49024 0.26485 0.61562 0.0
H2105 H 0.4533 0.29616 0.6257 0.0
H2106 H 0.5284 0.21221 0.61984 0.0
H2107 H 0.58025 0.20238 0.62665 0.0
C2108 C 0.51951 0.82052 0.39365 0.0
C2109 C 0.56125 0.82628 0.40128 0.0
C2110 C 0.54468 0.74576 0.40937 0.0
C2111 C 0.50556 0.73861 0.40056 0.0
N2112 N 0.46102 0.77594 0.38251 0.0
N2113 N 0.61369 0.78142 0.41405 0.0
C2114 C 0.49489 0.7784 0.3924 0.0
C2115 C 0.57311 0.78507 0.40838 0.0
N2116 N 0.50193 0.85627 0.38744 0.0
N2117 N 0.55441 0.71534 0.41998 0.0
H2118 H 0.63619 0.80572 0.41396 0.0
H2119 H 0.62661 0.75256 0.41755 0.0
H2120 H 0.53774 0.68655 0.42071 0.0
H2121 H 0.57504 0.72134 0.42916 0.0
H2122 H 0.47038 0.8581 0.38358 0.0
H2123 H 0.51815 0.8853 0.38731 0.0
H2124 H 0.45313 0.79969 0.37464 0.0
H2125 H 0.4432 0.74807 0.38115 0.0
C2126 C 0.99979 0.76754 0.14361 0.0
C2127 C 0.99374 0.80763 0.15203 0.0
C2128 C 0.07419 0.78981 0.16065 0.0
C2129 C 0.08103 0.75155 0.15144 0.0
N2130 N 0.04467 0.70973 0.13242 0.0
N2131 N 1.03538 0.85529 0.168 0.0
C2132 C 0.04168 0.74241 0.14268 0.0
C2133 C 1.03419 0.81768 0.16022 0.0
N2134 N 0.96447 0.75223 0.13621 0.0
N2135 N 0.10576 0.79885 0.17102 0.0
H2136 H 1.00835 0.87381 0.16994 0.0
H2137 H 0.06366 0.86932 0.17188 0.0
H2138 H 0.13408 0.78125 0.17158 0.0
H2139 H 0.10268 0.82104 0.17984 0.0
H2140 H 0.96209 0.72159 0.1318 0.0
H2141 H 0.93603 0.76944 0.13549 0.0
H2142 H 1.02162 0.70293 0.12412 0.0
H2143 H 0.0725 0.69164 0.13123 0.0
C2144 C 0.26167 0.31555 0.35115 0.0
C2145 C 0.279 0.27429 0.34912 0.0
C2146 C 0.30861 0.29457 0.32418 0.0
C2147 C 0.28633 0.33374 0.32528 0.0
N2148 N 0.2374 0.38017 0.33871 0.0
N2149 N 0.31229 0.22159 0.33274 0.0
C2150 C 0.2617 0.34402 0.33849 0.0
C2151 C 0.30079 0.2629 0.33539 0.0
N2152 N 0.24594 0.32758 0.36522 0.0
N2153 N 0.33819 0.28811 0.31271 0.0
H2154 H 0.3069 0.19707 0.34065 0.0
H2155 H 0.32378 0.21096 0.32213 0.0
H2156 H 0.34563 0.31089 0.30434 0.0
H2157 H 0.3584 0.26176 0.31239 0.0
H2158 H 0.23656 0.35856 0.36775 0.0
H2159 H 0.24591 0.30744 0.37481 0.0
H2160 H 0.21534 0.38703 0.34741 0.0
H2161 H 0.23665 0.40173 0.32954 0.0
C2162 C 0.99172 0.04518 0.58903 0.0
C2163 C 1.00555 0.04359 0.57346 0.0
C2164 C 0.07859 1.02634 0.58126 0.0
C2165 C 0.06535 1.03058 0.59683 0.0
N2166 N 1.01208 0.04876 0.61595 0.0
N2167 N 0.06186 0.03817 0.55434 0.0
C2168 C 1.02265 0.04144 0.60086 0.0
C2169 C 0.04894 0.03566 0.56943 0.0
N2170 N 0.94895 0.04935 0.5924 0.0
N2171 N 0.11913 1.01235 0.57785 0.0
H2172 H 0.04067 0.04339 0.54524 0.0
H2173 H 0.09389 0.03776 0.55086 0.0
H2174 H 0.14246 1.00691 0.58623 0.0
H2175 H 0.12903 1.0036 0.56683 0.0
H2176 H 0.93616 0.0465 0.60346 0.0
H2177 H 0.92545 0.05264 0.58393 0.0
H2178 H 0.98267 0.06102 0.61952 0.0
H2179 H 1.03395 0.04546 0.62497 0.0
C2180 C 0.27062 0.84283 0.82766 0.0
C2181 C 0.27674 0.82929 0.84308 0.0
C2182 C 0.26384 0.75538 0.83589 0.0
C2183 C 0.26287 0.76842 0.82024 0.0
N2184 N 0.26796 0.82306 0.80069 0.0
N2185 N 0.28261 0.77348 0.86214 0.0
C2186 C 0.26673 0.81181 0.81595 0.0
C2187 C 0.2739 0.78578 0.84733 0.0
N2188 N 0.26814 0.88532 0.82434 0.0
N2189 N 0.25455 0.71413 0.83977 0.0
H2190 H 0.28874 0.79503 0.871 0.0
H2191 H 0.2863 0.7419 0.86552 0.0
H2192 H 0.24819 0.69062 0.83161 0.0
H2193 H 0.25004 0.70373 0.85108 0.0
H2194 H 0.25964 0.89734 0.81358 0.0
H2195 H 0.27115 0.90883 0.83275 0.0
H2196 H 0.2755 0.85352 0.79678 0.0
H2197 H 0.26422 0.80118 0.79177 0.0
C2198 C 0.50664 1.03392 0.08355 0.0
C2199 C 0.52205 0.03809 0.09881 0.0
C2200 C 0.59474 1.02027 0.09066 0.0
C2201 C 0.5799 1.01953 1.07525 0.0
N2202 N 0.52428 1.03137 1.05638 0.0
N2203 N 0.58021 0.0403 0.11712 0.0
C2204 C 0.53651 1.02796 1.07149 0.0
C2205 C 0.56599 1.03258 0.10248 0.0
N2206 N 0.46343 0.03491 1.08071 0.0
N2207 N 0.63591 1.00828 0.09397 0.0
H2208 H 0.55967 0.04812 0.12621 0.0
H2209 H 0.61255 0.04157 0.12011 0.0
H2210 H 0.65835 1.00052 0.08547 0.0
H2211 H 0.64719 1.00342 0.10512 0.0
H2212 H 0.44996 1.02748 1.07007 0.0
H2213 H 0.44049 0.03984 0.08932 0.0
H2214 H 0.49416 0.042 1.05293 0.0
H2215 H 0.54538 1.02687 1.04715 0.0
C2216 C 0.27297 0.79924 0.35247 0.0
C2217 C 0.28049 0.75641 0.34824 0.0
C2218 C 0.27991 0.77472 0.32097 0.0
C2219 C 0.2707 0.81724 0.32517 0.0
N2220 N 0.25133 0.86966 0.34423 0.0
N2221 N 0.28358 0.70105 0.32908 0.0
C2222 C 0.26498 0.82947 0.34074 0.0
C2223 C 0.28155 0.74339 0.33264 0.0
N2224 N 0.27517 0.81112 0.36762 0.0
N2225 N 0.28807 0.76464 0.30589 0.0
H2226 H 0.28503 0.6772 0.33746 0.0
H2227 H 0.28024 0.68918 0.31796 0.0
H2228 H 0.28614 0.78668 0.29689 0.0
H2229 H 0.29972 0.73524 0.30234 0.0
H2230 H 0.27508 0.84265 0.37125 0.0
H2231 H 0.27967 0.78945 0.37661 0.0
H2232 H 0.24195 0.879 0.35525 0.0
H2233 H 0.24656 0.89316 0.33588 0.0
C2234 C 0.60732 1.01745 0.57509 0.0
C2235 C 0.59071 1.02014 0.59027 0.0
C2236 C 0.51798 1.0066 0.58124 0.0
C2237 C 0.53397 1.00831 0.56592 0.0
N2238 N 0.59207 1.01656 0.54767 0.0
N2239 N 0.53144 1.01941 0.6083 0.0
C2240 C 0.57825 1.01383 0.56264 0.0
C2241 C 0.54639 1.01481 0.59353 0.0
N2242 N 0.65079 1.01812 0.57272 0.0
N2243 N 0.47576 0.99669 0.58398 0.0
H2244 H 0.55161 1.02325 0.61779 0.0
H2245 H 0.49904 1.02158 0.61118 0.0
H2246 H 0.45316 0.9928 0.57524 0.0
H2247 H 0.46337 0.98977 0.59488 0.0
H2248 H 0.66541 1.01267 0.56211 0.0
H2249 H 0.67277 1.02111 0.58172 0.0
H2250 H 0.62322 1.02481 0.54444 0.0
H2251 H 0.57159 1.01286 0.53826 0.0
C2252 C 0.29209 0.25021 0.82757 0.0
C2253 C 0.28596 0.26751 0.81262 0.0
C2254 C 0.2673 0.33655 0.82334 0.0
C2255 C 0.27096 0.31852 0.83827 0.0
N2256 N 0.28 0.25769 0.85501 0.0
N2257 N 0.26253 0.324 0.79582 0.0
C2258 C 0.28138 0.27515 0.84053 0.0
C2259 C 0.27196 0.30983 0.81035 0.0
N2260 N 0.30953 0.21057 0.82935 0.0
N2261 N 0.2604 0.37929 0.82166 0.0
H2262 H 0.26616 0.30512 0.78602 0.0
H2263 H 0.24815 0.35317 0.79351 0.0
H2264 H 0.25613 0.39972 0.831 0.0
H2265 H 0.26183 0.39518 0.81112 0.0
H2266 H 0.31967 0.19843 0.83991 0.0
H2267 H 0.31674 0.19061 0.82011 0.0
H2268 H 0.28229 0.22517 0.85716 0.0
H2269 H 0.27344 0.27533 0.86491 0.0
C2270 C 0.05883 1.01305 1.07708 0.0
C2271 C 0.04863 0.03739 1.06383 0.0
C2272 C 0.97455 0.04557 1.07263 0.0
C2273 C 0.98447 1.01988 0.08557 0.0
N2274 N 1.03187 0.97007 0.09817 0.0
N2275 N 0.99585 0.0691 1.04707 0.0
C2276 C 1.02534 1.00065 0.08716 0.0
C2277 C 1.00606 0.05119 1.06098 0.0
N2278 N 0.10064 1.00359 1.08043 0.0
N2279 N 0.93582 0.06582 1.07182 0.0
H2280 H 1.01836 0.07351 1.03825 0.0
H2281 H 0.96454 0.07613 1.04377 0.0
H2282 H 0.91176 0.06195 1.08012 0.0
H2283 H 0.92859 0.0887 1.06352 0.0
H2284 H 0.11021 0.9903 0.09089 0.0
H2285 H 0.12637 1.01215 1.07332 0.0
H2286 H 0.05979 0.95199 0.09882 0.0
H2287 H 1.00783 0.95983 0.10575 0.0
C2288 C 0.77297 0.82036 0.84932 0.0
C2289 C 0.76376 0.77675 0.84699 0.0
C2290 C 0.76192 0.78676 0.81915 0.0
C2291 C 0.77618 0.82901 0.8214 0.0
N2292 N 0.7982 0.88647 0.83802 0.0
N2293 N 0.75336 0.71646 0.83017 0.0
C2294 C 0.78222 0.84616 0.83634 0.0
C2295 C 0.75901 0.75936 0.83203 0.0
N2296 N 0.77215 0.83703 0.86388 0.0
N2297 N 0.75115 0.77308 0.8047 0.0
H2298 H 0.75086 0.69521 0.8394 0.0
H2299 H 0.75437 0.7013 0.81952 0.0
H2300 H 0.75359 0.79242 0.79492 0.0
H2301 H 0.73642 0.74395 0.80251 0.0
H2302 H 0.77418 0.86945 0.86617 0.0
H2303 H 0.76638 0.81861 0.87371 0.0
H2304 H 0.80831 0.89891 0.84852 0.0
H2305 H 0.80359 0.90695 0.82871 0.0
C2306 C 0.78991 0.26388 0.34909 0.0
C2307 C 0.79625 0.30768 0.34589 0.0
C2308 C 0.78799 0.29543 0.31828 0.0
C2309 C 0.77882 0.25218 0.32158 0.0
N2310 N 0.76507 0.19552 0.3398 0.0
N2311 N 0.79576 0.36703 0.32818 0.0
C2312 C 0.77807 0.2364 0.33691 0.0
C2313 C 0.79368 0.32406 0.33067 0.0
N2314 N 0.79644 0.24851 0.36368 0.0
N2315 N 0.79216 0.30877 0.3033 0.0
H2316 H 0.80055 0.38897 0.33702 0.0
H2317 H 0.78952 0.38134 0.31758 0.0
H2318 H 0.78735 0.28873 0.29389 0.0
H2319 H 0.80341 0.33877 0.30014 0.0
H2320 H 0.7972 0.21623 0.36639 0.0
H2321 H 0.80401 0.26798 0.37301 0.0
H2322 H 0.75908 0.18363 0.35083 0.0
H2323 H 0.75735 0.17401 0.33109 0.0
C2324 C 0.77634 0.27939 0.81886 0.0
C2325 C 0.771 0.3204 0.82536 0.0
C2326 C 0.78334 0.29266 0.85121 0.0
C2327 C 0.78636 0.25133 0.84478 0.0
N2328 N 0.77949 0.20333 0.8233 0.0
N2329 N 0.76286 0.36625 0.84741 0.0
C2330 C 0.7809 0.24405 0.82882 0.0
C2331 C 0.7726 0.32716 0.84147 0.0
N2332 N 0.77824 0.27459 0.80318 0.0
N2333 N 0.79195 0.29895 0.8665 0.0
H2334 H 0.75593 0.39261 0.84052 0.0
H2335 H 0.75875 0.37201 0.85914 0.0
H2336 H 0.79831 0.27413 0.87417 0.0
H2337 H 0.79539 0.32888 0.87146 0.0
H2338 H 0.78669 0.2463 0.79777 0.0
H2339 H 0.77451 0.29981 0.79545 0.0
H2340 H 0.77107 0.19569 0.81204 0.0
H2341 H 0.78349 0.17664 0.83034 0.0
C2342 C 0.765 0.81673 0.33303 0.0
C2343 C 0.77144 0.8007 0.34814 0.0
C2344 C 0.78767 0.73026 0.33819 0.0
C2345 C 0.78572 0.74744 0.32309 0.0
N2346 N 0.77674 0.8068 0.30567 0.0
N2347 N 0.79212 0.7445 0.36558 0.0
C2348 C 0.77525 0.79058 0.32034 0.0
C2349 C 0.78354 0.758 0.35089 0.0
N2350 N 0.74835 0.85656 0.33087 0.0
N2351 N 0.79295 0.68742 0.34027 0.0
H2352 H 0.78863 0.76399 0.37522 0.0
H2353 H 0.80551 0.71505 0.36818 0.0
H2354 H 0.79638 0.66624 0.3311 0.0
H2355 H 0.79052 0.6723 0.35093 0.0
H2356 H 0.73829 0.86806 0.32021 0.0
H2357 H 0.74163 0.87732 0.33992 0.0
H2358 H 0.77465 0.83913 0.30316 0.0
H2359 H 0.78277 0.78816 0.29597 0.0
C2360 C 0.54666 0.52845 0.09051 0.0
C2361 C 0.58993 0.52362 0.08567 0.0
C2362 C 0.56919 0.52658 1.05861 0.0
C2363 C 0.52626 0.5334 1.06348 0.0
N2364 N 0.47335 0.54474 0.08347 0.0
N2365 N 0.64431 0.52213 1.06584 0.0
C2366 C 0.5147 0.5353 1.07928 0.0
C2367 C 0.60183 0.52384 1.0699 0.0
N2368 N 0.53619 0.52547 0.10584 0.0
N2369 N 0.57834 0.52228 1.04324 0.0
H2370 H 0.66893 0.5193 1.07391 0.0
H2371 H 0.65569 0.52617 1.05463 0.0
H2372 H 0.55514 0.52512 1.03465 0.0
H2373 H 0.60819 0.51332 1.03894 0.0
H2374 H 0.50486 0.52316 0.10998 0.0
H2375 H 0.55902 0.52314 0.11458 0.0
H2376 H 0.46392 0.5521 0.09467 0.0
H2377 H 0.4483 0.5474 1.07556 0.0
C2378 C 0.9924 0.5306 0.5813 0.0
C2379 C 1.00881 0.53331 0.59647 0.0
C2380 C 0.08123 0.51793 0.58746 0.0
C2381 C 0.06542 0.51896 0.57217 0.0
N2382 N 1.00814 0.53008 0.55392 0.0
N2383 N 0.06804 0.53388 0.61436 0.0
C2384 C 1.02154 0.52629 0.56888 0.0
C2385 C 0.05302 0.52796 0.5997 0.0
N2386 N 0.94899 0.53162 0.57888 0.0
N2387 N 0.12291 0.50654 0.59023 0.0
H2388 H 0.04794 0.53961 0.62378 0.0
H2389 H 0.10052 0.53559 0.6171 0.0
H2390 H 0.14509 0.50051 0.58146 0.0
H2391 H 0.13496 0.50039 0.6012 0.0
H2392 H 0.93469 0.52558 0.56827 0.0
H2393 H 0.92671 0.53533 0.58779 0.0
H2394 H 0.97751 0.53993 0.55078 0.0
H2395 H 1.02865 0.52625 0.54448 0.0
C2396 C 1.03728 0.50898 0.09183 0.0
C2397 C 0.06652 0.54338 0.09276 0.0
C2398 C 0.03966 0.57365 1.06874 0.0
C2399 C 1.01258 0.53772 1.06727 0.0
N2400 N 0.98952 0.46787 1.07571 0.0
N2401 N 0.10115 0.60498 1.08146 0.0
C2402 C 1.01243 0.50436 1.07834 0.0
C2403 C 0.06941 0.57477 1.08101 0.0
N2404 N 1.03255 0.48154 0.10401 0.0
N2405 N 1.03604 0.607 1.05866 0.0
H2406 H 0.12337 0.60709 0.09041 0.0
H2407 H 0.1077 0.62592 1.07242 0.0
H2408 H 1.01473 0.60689 1.0494 0.0
H2409 H 0.05165 0.63605 1.06011 0.0
H2410 H 1.00821 0.45883 0.10474 0.0
H2411 H 0.05118 0.48337 0.11397 0.0
H2412 H 0.99197 0.44067 1.08253 0.0
H2413 H 0.97031 0.46338 1.06601 0.0
C2414 C 0.50359 0.52167 0.57846 0.0
C2415 C 0.51062 0.52517 0.59452 0.0
C2416 C 0.58589 0.54361 0.59043 0.0
C2417 C 0.57818 0.54271 0.57437 0.0
N2418 N 0.52994 0.53661 0.55271 0.0
N2419 N 0.5554 0.54397 0.61616 0.0
C2420 C 0.53708 0.53329 0.56824 0.0
C2421 C 0.55092 0.53754 0.60064 0.0
N2422 N 0.46531 0.5063 0.57307 0.0
N2423 N 0.62677 0.54929 0.59583 0.0
H2424 H 0.53066 0.53867 0.62409 0.0
H2425 H 0.58258 0.55739 0.62116 0.0
H2426 H 0.65311 0.55452 0.58858 0.0
H2427 H 0.63534 0.54583 0.60735 0.0
H2428 H 0.46001 0.49815 0.56161 0.0
H2429 H 0.4393 0.49913 0.58026 0.0
H2430 H 0.49958 0.53504 0.54774 0.0
H2431 H 0.55413 0.54371 0.54474 0.0
C2432 C 0.20519 0.99511 0.45936 0.0
C2433 C 0.22071 1.01515 0.44489 0.0
C2434 C 0.29442 0.98556 0.45584 0.0
C2435 C 0.27847 0.96453 0.47007 0.0
N2436 N 0.21177 0.94672 0.48212 0.0
N2437 N 0.28559 1.02143 0.43022 0.0
C2438 C 0.23194 0.96938 0.47076 0.0
C2439 C 0.26695 1.00772 0.44359 0.0
N2440 N 0.16255 1.00015 0.46244 0.0
N2441 N 0.33801 0.9861 0.45418 0.0
H2442 H 0.26823 0.03801 0.42189 0.0
H2443 H 0.31666 1.01375 0.42681 0.0
H2444 H 0.35835 0.97154 0.46214 0.0
H2445 H 0.35432 1.00363 0.44582 0.0
H2446 H 0.14863 0.99416 0.47316 0.0
H2447 H 0.14122 1.01229 0.45431 0.0
H2448 H 0.1787 0.94218 0.48275 0.0
H2449 H 0.22888 0.92955 0.49037 0.0
C2450 C 0.36179 0.97685 0.72002 0.0
C2451 C 0.36403 1.02325 0.71989 0.0
C2452 C 0.31705 1.01182 0.69427 0.0
C2453 C 0.31492 0.96535 0.6944 0.0
N2454 N 0.33658 0.90676 0.71042 0.0
N2455 N 0.34566 0.08154 0.70319 0.0
C2456 C 0.33778 0.94972 0.70824 0.0
C2457 C 0.34199 0.0389 0.70587 0.0
N2458 N 0.38582 0.95743 0.73111 0.0
N2459 N 0.29279 1.0313 0.68328 0.0
H2460 H 0.36008 0.10212 0.71106 0.0
H2461 H 0.33688 0.09626 0.69291 0.0
H2462 H 0.27602 1.01391 0.67501 0.0
H2463 H 0.28658 0.06378 0.68301 0.0
H2464 H 0.39241 0.92503 0.73142 0.0
H2465 H 0.40184 0.97474 0.73959 0.0
H2466 H 0.3444 0.8917 0.72073 0.0
H2467 H 0.32587 0.88597 0.7019 0.0
C2468 C 0.31837 0.12563 0.95356 0.0
C2469 C 0.30605 0.1134 0.96952 0.0
C2470 C 0.35072 0.04594 0.96106 0.0
C2471 C 0.35749 0.05548 0.94443 0.0
N2472 N 0.33723 0.10941 0.92627 0.0
N2473 N 0.31019 0.05189 0.9858 0.0
C2474 C 0.33766 0.0966 0.94128 0.0
C2475 C 0.32225 0.07058 0.97227 0.0
N2476 N 0.31517 0.16781 0.95017 0.0
N2477 N 0.37423 1.01324 0.96689 0.0
H2478 H 0.29151 0.06784 0.99393 0.0
H2479 H 0.31535 1.01982 0.98822 0.0
H2480 H 0.39645 0.99696 0.96018 0.0
H2481 H 0.37579 1.00605 0.97861 0.0
H2482 H 0.3264 0.18125 0.93992 0.0
H2483 H 0.3071 0.19005 0.95857 0.0
H2484 H 0.3197 0.13554 0.92243 0.0
H2485 H 0.35126 0.09137 0.91754 0.0
C2486 C 0.23644 0.09867 0.22227 0.0
C2487 C 0.22826 0.0532 0.22062 0.0
C2488 C 0.27201 0.0666 0.1943 0.0
C2489 C 0.27716 0.11264 0.19541 0.0
N2490 N 0.25244 0.17002 0.21138 0.0
N2491 N 0.23783 0.99803 0.20172 0.0
C2492 C 0.25629 0.12705 0.20983 0.0
C2493 C 0.24606 0.03924 0.2056 0.0
N2494 N 0.22518 0.11599 0.23608 0.0
N2495 N 0.29375 0.04756 0.18255 0.0
H2496 H 0.2233 0.97669 0.20937 0.0
H2497 H 0.24308 0.9857 0.19075 0.0
H2498 H 0.31124 0.06519 0.17446 0.0
H2499 H 0.29739 1.01478 0.18155 0.0
H2500 H 0.2343 0.14641 0.23951 0.0
H2501 H 0.21004 0.09815 0.24469 0.0
H2502 H 0.23421 0.18451 0.21996 0.0
H2503 H 0.26361 0.19126 0.20301 0.0
C2504 C 0.8753 0.06811 0.70518 0.0
C2505 C 0.8604 0.0478 0.71967 0.0
C2506 C 0.78688 0.07987 0.70961 0.0
C2507 C 0.80133 0.09731 0.69455 0.0
N2508 N 0.8648 0.09908 0.67895 0.0
N2509 N 0.79434 1.03288 0.73277 0.0
C2510 C 0.84706 0.08831 0.69281 0.0
C2511 C 0.814 0.05383 0.7209 0.0
N2512 N 0.91878 0.07099 0.70345 0.0
N2513 N 0.74536 0.08839 0.7135 0.0
H2514 H 0.81181 1.01541 0.74084 0.0
H2515 H 0.76117 1.02992 0.73391 0.0
H2516 H 0.72408 0.10263 0.7058 0.0
H2517 H 0.73277 0.08355 0.72451 0.0
H2518 H 0.93382 0.08871 0.69482 0.0
H2519 H 0.94001 0.05949 0.71174 0.0
H2520 H 0.89522 0.08938 0.67542 0.0
H2521 H 0.84716 0.11443 0.67039 0.0
C2522 C 0.72296 0.10182 0.46918 0.0
C2523 C 0.76979 0.1002 0.47006 0.0
C2524 C 0.75846 0.05088 0.44517 0.0
C2525 C 0.71162 0.05253 0.44428 0.0
N2526 N 0.65195 0.08168 0.45829 0.0
N2527 N 0.82935 0.07584 0.45476 0.0
C2528 C 0.69556 0.07869 0.45723 0.0
C2529 C 0.78589 0.07536 0.45677 0.0
N2530 N 0.70377 0.12858 0.47945 0.0
N2531 N 0.7778 1.02347 0.43519 0.0
H2532 H 0.85005 0.08969 0.46276 0.0
H2533 H 0.8447 0.06511 0.44483 0.0
H2534 H 0.7603 1.00689 0.42689 0.0
H2535 H 0.80997 1.01478 0.43585 0.0
H2536 H 0.67174 0.13771 0.47903 0.0
H2537 H 0.7212 0.14404 0.48804 0.0
H2538 H 0.6356 0.09321 0.46788 0.0
H2539 H 0.63159 0.07042 0.44968 0.0
C2540 C 0.75369 0.94367 0.21104 0.0
C2541 C 0.76651 0.95623 0.19515 0.0
C2542 C 0.73324 1.02882 0.20515 0.0
C2543 C 0.71647 1.0149 0.22038 0.0
N2544 N 0.70946 0.95056 0.23494 0.0
N2545 N 0.75986 1.01644 0.17835 0.0
C2546 C 0.72688 0.96995 0.22231 0.0
C2547 C 0.75351 1.00045 0.19279 0.0
N2548 N 0.76854 0.90519 0.21598 0.0
N2549 N 0.73229 0.07159 0.20258 0.0
H2550 H 0.77485 0.99878 0.16972 0.0
H2551 H 0.74717 0.04526 0.1746 0.0
H2552 H 0.7203 0.09277 0.21077 0.0
H2553 H 0.7476 0.08643 0.19332 0.0
H2554 H 0.76705 0.89529 0.22745 0.0
H2555 H 0.78595 0.88472 0.2089 0.0
H2556 H 0.70944 0.91774 0.23661 0.0
H2557 H 0.6918 0.96744 0.24313 0.0
C2558 C 0.79938 0.95396 0.95229 0.0
C2559 C 0.80366 0.95466 0.96933 0.0
C2560 C 0.86623 1.00779 0.96154 0.0
C2561 C 0.85976 1.00951 0.9446 0.0
N2562 N 0.80956 0.98421 0.92589 0.0
N2563 N 0.84255 0.99318 0.98856 0.0
C2564 C 0.82319 0.98248 0.94079 0.0
C2565 C 0.83756 0.98487 0.97326 0.0
N2566 N 0.7724 0.92371 0.94656 0.0
N2567 N 0.90216 1.02786 0.96686 0.0
H2568 H 0.82447 0.97756 0.99699 0.0
H2569 H 0.86132 1.018 0.99277 0.0
H2570 H 0.92276 0.04523 0.9597 0.0
H2571 H 0.9136 1.02446 0.97806 0.0
H2572 H 0.77084 0.91585 0.93492 0.0
H2573 H 0.75437 0.90363 0.95365 0.0
H2574 H 0.78069 0.97106 0.92216 0.0
H2575 H 0.82548 1.00237 0.91757 0.0
C2576 C 0.71959 0.48009 0.9455 0.0
C2577 C 0.71953 0.52655 0.94492 0.0
C2578 C 0.76957 0.51577 0.9698 0.0
C2579 C 0.76955 0.46929 0.97042 0.0
N2580 N 0.74122 0.40996 0.95632 0.0
N2581 N 0.7416 0.58545 0.96066 0.0
C2582 C 0.74353 0.45318 0.95741 0.0
C2583 C 0.74387 0.54263 0.95834 0.0
N2584 N 0.69358 0.4607 0.93501 0.0
N2585 N 0.79645 0.53544 0.97991 0.0
H2586 H 0.72645 0.60584 0.95289 0.0
H2587 H 0.75192 0.60035 0.97069 0.0
H2588 H 0.81386 0.51831 0.98809 0.0
H2589 H 0.80406 0.56768 0.97944 0.0
H2590 H 0.68567 0.42857 0.93509 0.0
H2591 H 0.67757 0.4779 0.92648 0.0
H2592 H 0.72993 0.39364 0.94674 0.0
H2593 H 0.75236 0.38991 0.96503 0.0
C2594 C 0.82132 0.46002 0.21179 0.0
C2595 C 0.81314 0.47142 0.19547 0.0
C2596 C 0.85086 0.5421 0.20494 0.0
C2597 C 0.86323 0.52884 0.2207 0.0
N2598 N 0.86127 0.46636 0.23651 0.0
N2599 N 0.82871 0.52819 0.17781 0.0
C2600 C 0.84827 0.48537 0.22319 0.0
C2601 C 0.83064 0.51387 0.19263 0.0
N2602 N 0.80165 0.42386 0.21701 0.0
N2603 N 0.85613 0.58426 0.20174 0.0
H2604 H 0.81386 0.51062 0.16914 0.0
H2605 H 0.84478 0.55528 0.1739 0.0
H2606 H 0.86806 0.60554 0.20989 0.0
H2607 H 0.84414 0.59893 0.19188 0.0
H2608 H 0.7998 0.41563 0.22864 0.0
H2609 H 0.78366 0.404 0.20988 0.0
H2610 H 0.85772 0.43395 0.23871 0.0
H2611 H 0.879 0.48267 0.2448 0.0
C2612 C 0.8513 0.59063 0.44248 0.0
C2613 C 0.8652 0.54692 0.44497 0.0
C2614 C 0.83128 0.56208 0.47291 0.0
C2615 C 0.81491 0.60485 0.47007 0.0
N2616 N 0.80549 0.65268 0.44852 0.0
N2617 N 0.8556 0.49137 0.46379 0.0
C2618 C 0.82419 0.61625 0.45379 0.0
C2619 C 0.85157 0.53367 0.46064 0.0
N2620 N 0.86545 0.60957 0.42925 0.0
N2621 N 0.82808 0.54758 0.48769 0.0
H2622 H 0.86776 0.47 0.45571 0.0
H2623 H 0.84241 0.47676 0.47351 0.0
H2624 H 0.81308 0.56526 0.49631 0.0
H2625 H 0.84325 0.52014 0.49161 0.0
H2626 H 0.86269 0.64205 0.42708 0.0
H2627 H 0.8833 0.59305 0.42103 0.0
H2628 H 0.80454 0.66105 0.4369 0.0
H2629 H 0.78741 0.67266 0.45558 0.0
C2630 C 0.75305 0.58982 0.7245 0.0
C2631 C 0.72025 0.55859 0.72061 0.0
C2632 C 0.74691 0.57883 0.69198 0.0
C2633 C 0.77669 0.61311 0.69583 0.0
N2634 N 0.79636 0.65347 0.71828 0.0
N2635 N 0.68377 0.53335 0.69786 0.0
C2636 C 0.77606 0.61828 0.71283 0.0
C2637 C 0.7173 0.55644 0.70354 0.0
N2638 N 0.76341 0.59298 0.7397 0.0
N2639 N 0.74684 0.5661 0.67698 0.0
H2640 H 0.66208 0.51716 0.70497 0.0
H2641 H 0.6751 0.53339 0.68627 0.0
H2642 H 0.76587 0.581 0.66864 0.0
H2643 H 0.73137 0.53862 0.67321 0.0
H2644 H 0.78986 0.6101 0.74365 0.0
H2645 H 0.7477 0.57516 0.74817 0.0
H2646 H 0.79282 0.66427 0.72956 0.0
H2647 H 0.81237 0.67451 0.711 0.0
C2648 C 0.33996 0.52845 0.2047 0.0
C2649 C 0.35606 0.54279 0.21987 0.0
C2650 C 0.32481 0.61557 0.20947 0.0
C2651 C 0.30803 0.60117 0.1944 0.0
N2652 N 0.29741 0.53664 0.18042 0.0
N2653 N 0.35468 0.60444 0.23587 0.0
C2654 C 0.31555 0.55552 0.19295 0.0
C2655 C 0.34554 0.58763 0.22178 0.0
N2656 N 0.3477 0.48686 0.20133 0.0
N2657 N 0.32231 0.65831 0.21209 0.0
H2658 H 0.37028 0.58693 0.2444 0.0
H2659 H 0.34375 0.63385 0.23966 0.0
H2660 H 0.30743 0.67931 0.20448 0.0
H2661 H 0.33784 0.67379 0.22108 0.0
H2662 H 0.34299 0.47335 0.19054 0.0
H2663 H 0.36028 0.4658 0.20945 0.0
H2664 H 0.29537 0.50396 0.17879 0.0
H2665 H 0.28128 0.55421 0.17204 0.0
C2666 C 0.22686 0.58875 0.97146 0.0
C2667 C 0.27287 0.59673 0.97014 0.0
C2668 C 0.26068 0.55709 0.94308 0.0
C2669 C 0.21523 0.54641 0.94495 0.0
N2670 N 0.15854 0.55444 0.96366 0.0
N2671 N 0.33163 0.58129 0.95304 0.0
C2672 C 0.20032 0.56304 0.96001 0.0
C2673 C 0.2883 0.57893 0.95533 0.0
N2674 N 0.20682 0.60827 0.98351 0.0
N2675 N 0.27836 0.54691 0.92918 0.0
H2676 H 0.35214 0.59549 0.96102 0.0
H2677 H 0.34785 0.56622 0.9441 0.0
H2678 H 0.26099 0.53062 0.9208 0.0
H2679 H 0.30844 0.55725 0.92546 0.0
H2680 H 0.17365 0.61051 0.98472 0.0
H2681 H 0.22384 0.62537 0.99178 0.0
H2682 H 0.14543 0.55843 0.97461 0.0
H2683 H 0.13712 0.54137 0.95576 0.0
C2684 C 0.29024 0.48415 0.70968 0.0
C2685 C 0.27399 0.46159 0.69588 0.0
C2686 C 0.20029 0.4896 0.70736 0.0
C2687 C 0.21623 0.51177 0.72128 0.0
N2688 N 0.28201 0.52301 0.73475 0.0
N2689 N 0.20713 0.44011 0.685 0.0
C2690 C 0.26289 0.5066 0.72196 0.0
C2691 C 0.22721 0.46437 0.69582 0.0
N2692 N 0.33391 0.48559 0.71091 0.0
N2693 N 0.15709 0.49196 0.70501 0.0
H2694 H 0.22428 0.42318 0.67669 0.0
H2695 H 0.17427 0.43404 0.68485 0.0
H2696 H 0.13605 0.50387 0.71332 0.0
H2697 H 0.14219 0.48415 0.69468 0.0
H2698 H 0.35055 0.50338 0.71903 0.0
H2699 H 0.35409 0.47109 0.70288 0.0
H2700 H 0.31384 0.51788 0.7378 0.0
H2701 H 0.26452 0.5397 0.74303 0.0
C2702 C 0.30462 0.50608 0.47078 0.0
C2703 C 0.30357 0.45964 0.47079 0.0
C2704 C 0.34808 0.47185 0.44466 0.0
C2705 C 0.35194 0.51807 0.44523 0.0
N2706 N 0.33372 0.57593 0.46209 0.0
N2707 N 0.33502 0.40149 0.45686 0.0
C2708 C 0.33013 0.5334 0.45934 0.0
C2709 C 0.32804 0.44429 0.45729 0.0
N2710 N 0.2793 0.52525 0.48154 0.0
N2711 N 0.36375 0.45305 0.43168 0.0
H2712 H 0.32331 0.3809 0.46536 0.0
H2713 H 0.35588 0.38684 0.44914 0.0
H2714 H 0.37913 0.47053 0.42302 0.0
H2715 H 0.3581 0.42139 0.42883 0.0
H2716 H 0.27275 0.55769 0.48165 0.0
H2717 H 0.26205 0.50765 0.48971 0.0
H2718 H 0.32476 0.59021 0.47242 0.0
H2719 H 0.34798 0.59675 0.45418 0.0
C2720 C 0.13839 0.07976 0.33637 0.0
C2721 C 0.14571 0.05281 0.3498 0.0
C2722 C 0.149 0.99293 0.32891 0.0
C2723 C 0.1456 1.02034 0.31532 0.0
N2724 N 0.1454 0.09479 0.30852 0.0
N2725 N 0.16745 0.98168 0.35628 0.0
C2726 C 0.14244 0.06495 0.31993 0.0
C2727 C 0.1534 1.00896 0.34514 0.0
N2728 N 0.12543 0.12043 0.33916 0.0
N2729 N 0.14603 0.95011 0.32661 0.0
H2730 H 0.17192 0.99103 0.36769 0.0
H2731 H 0.17927 0.95142 0.35391 0.0
H2732 H 0.14157 0.93672 0.31578 0.0
H2733 H 0.14305 0.92815 0.33558 0.0
H2734 H 0.11396 0.14071 0.3306 0.0
H2735 H 0.122 0.13244 0.35028 0.0
H2736 H 0.14875 0.12721 0.31065 0.0
H2737 H 0.14933 0.08693 0.29696 0.0
C2738 C 0.2578 0.90798 0.58649 0.0
C2739 C 0.27879 0.88615 0.59936 0.0
C2740 C 0.33504 0.86766 0.57768 0.0
C2741 C 0.31165 0.88541 0.56467 0.0
N2742 N 0.24409 0.91806 0.55863 0.0
N2743 N 0.33631 0.83599 0.60367 0.0
C2744 C 0.27113 0.90376 0.56983 0.0
C2745 C 0.31717 0.86388 0.5938 0.0
N2746 N 0.22551 0.93557 0.59002 0.0
N2747 N 0.37563 0.85354 0.57477 0.0
H2748 H 0.32475 0.82975 0.6147 0.0
H2749 H 0.36044 0.81505 0.60031 0.0
H2750 H 0.38877 0.8531 0.5637 0.0
H2751 H 0.39731 0.84574 0.58345 0.0
H2752 H 0.21212 0.95646 0.58205 0.0
H2753 H 0.21526 0.94122 0.60125 0.0
H2754 H 0.21217 0.92612 0.56072 0.0
H2755 H 0.25271 0.91877 0.547 0.0
C2756 C 0.44653 1.01338 0.81897 0.0
C2757 C 0.4398 0.05759 0.81438 0.0
C2758 C 0.42804 0.06687 0.84416 0.0
C2759 C 0.4398 1.02374 0.84883 0.0
N2760 N 0.47012 0.96001 0.83795 0.0
N2761 N 0.43112 0.12688 0.82571 0.0
C2762 C 0.4516 0.99862 0.83535 0.0
C2763 C 0.43241 0.08397 0.82797 0.0
N2764 N 0.44586 0.98351 0.8076 0.0
N2765 N 0.41037 0.09232 0.85518 0.0
H2766 H 0.43441 0.14076 0.81485 0.0
H2767 H 0.43132 0.14878 0.8347 0.0
H2768 H 0.40589 0.08234 0.86653 0.0
H2769 H 0.396 0.12143 0.85272 0.0
H2770 H 0.44526 0.95092 0.80983 0.0
H2771 H 0.44035 0.99102 0.79608 0.0
H2772 H 0.48427 0.94203 0.82923 0.0
H2773 H 0.47608 0.94826 0.84896 0.0
C2774 C 0.31443 0.2115 1.07084 0.0
C2775 C 0.27478 0.19076 1.06564 0.0
C2776 C 0.26781 0.17368 0.09529 0.0
C2777 C 0.30937 0.19056 0.10011 0.0
N2778 N 0.37411 0.2201 0.08937 0.0
N2779 N 0.21978 0.14362 1.0755 0.0
C2780 C 0.33285 0.20733 0.08684 0.0
C2781 C 0.25346 0.16992 1.07874 0.0
N2782 N 0.33443 0.23832 1.0607 0.0
N2783 N 0.24071 0.16034 0.10672 0.0
H2784 H 0.20885 0.13834 1.06436 0.0
H2785 H 0.20577 0.12329 0.0836 0.0
H2786 H 0.24986 0.15904 0.11826 0.0
H2787 H 0.20834 0.15359 0.1049 0.0
H2788 H 0.35962 0.2584 1.06378 0.0
H2789 H 0.32272 0.24457 1.04972 0.0
H2790 H 0.39572 0.22694 1.08049 0.0
H2791 H 0.38775 0.22045 0.10033 0.0
C2792 C 0.93706 0.98529 0.82859 0.0
C2793 C 0.93899 1.0127 0.81497 0.0
C2794 C 0.94615 0.07233 0.8359 0.0
C2795 C 0.93994 0.04546 0.84948 0.0
N2796 N 0.92021 0.97358 0.85614 0.0
N2797 N 0.93524 0.0871 0.80827 0.0
C2798 C 0.93305 1.00129 0.84489 0.0
C2799 C 0.94088 0.05736 0.81956 0.0
N2800 N 0.94086 0.9426 0.82624 0.0
N2801 N 0.95932 0.11315 0.83836 0.0
H2802 H 0.92961 0.07914 0.79681 0.0
H2803 H 0.93088 0.11932 0.81055 0.0
H2804 H 0.96464 0.12531 0.84935 0.0
H2805 H 0.96971 0.13329 0.82953 0.0
H2806 H 0.94515 0.92076 0.83516 0.0
H2807 H 0.94438 0.92943 0.81531 0.0
H2808 H 0.90918 0.94293 0.85385 0.0
H2809 H 0.91601 0.98273 0.86757 0.0
C2810 C 0.80568 0.15565 0.59355 0.0
C2811 C 0.76909 0.18006 0.59908 0.0
C2812 C 0.76613 0.20572 0.57034 0.0
C2813 C 0.80215 0.18046 0.56453 0.0
N2814 N 0.85668 0.13199 0.57344 0.0
N2815 N 0.711 0.22309 0.58998 0.0
C2816 C 0.82159 0.15585 0.57709 0.0
C2817 C 0.74868 0.20316 0.58654 0.0
N2818 N 0.82393 0.12867 0.60402 0.0
N2819 N 0.74966 0.23567 0.56061 0.0
H2820 H 0.69884 0.22466 0.60118 0.0
H2821 H 0.69016 0.23502 0.58167 0.0
H2822 H 0.76108 0.24051 0.54946 0.0
H2823 H 0.72809 0.25905 0.56405 0.0
H2824 H 0.84647 0.10551 0.60135 0.0
H2825 H 0.81389 0.12707 0.61549 0.0
H2826 H 0.87826 0.12007 0.58148 0.0
H2827 H 0.86521 0.12479 0.56217 0.0
C2828 C 0.63584 0.0599 0.34515 0.0
C2829 C 0.63556 1.01519 0.34985 0.0
C2830 C 0.63969 1.00345 0.31991 0.0
C2831 C 0.63552 0.04793 0.3152 0.0
N2832 N 0.62203 0.11686 0.32609 0.0
N2833 N 0.63016 0.94523 0.33887 0.0
C2834 C 0.63173 0.07519 0.32873 0.0
C2835 C 0.63574 0.9877 0.3363 0.0
N2836 N 0.64249 0.08921 0.35646 0.0
N2837 N 0.64991 0.97506 0.30862 0.0
H2838 H 0.62688 0.9324 0.3499 0.0
H2839 H 0.62439 0.92338 0.33011 0.0
H2840 H 0.65386 0.98402 0.29712 0.0
H2841 H 0.65904 0.94381 0.31086 0.0
H2842 H 0.64866 0.12123 0.35423 0.0
H2843 H 0.64674 0.08077 0.36798 0.0
H2844 H 0.61321 0.13788 0.3348 0.0
H2845 H 0.61834 0.12931 0.31503 0.0
C2846 C 0.76658 0.89825 0.09452 0.0
C2847 C 0.8043 0.87539 0.09991 0.0
C2848 C 0.80875 0.85154 1.071 0.0
C2849 C 0.77132 0.87502 1.06538 0.0
N2850 N 0.71303 0.91817 1.07488 0.0
N2851 N 0.86449 0.83566 0.09046 0.0
C2852 C 0.75031 0.89743 1.07815 0.0
C2853 C 0.8259 0.85399 0.0872 0.0
N2854 N 0.74746 0.92463 0.10496 0.0
N2855 N 0.82696 0.82316 1.06107 0.0
H2856 H 0.87644 0.83343 0.10164 0.0
H2857 H 0.88609 0.8256 1.08205 0.0
H2858 H 0.81589 0.81833 1.04992 0.0
H2859 H 0.84978 0.80079 1.06434 0.0
H2860 H 0.72437 0.9472 0.10218 0.0
H2861 H 0.7576 0.92684 0.11637 0.0
H2862 H 0.69088 0.92751 0.08321 0.0
H2863 H 0.70294 0.92445 1.06373 0.0
C2864 C 0.61206 0.52306 0.84485 0.0
C2865 C 0.63743 0.5592 0.85045 0.0
C2866 C 0.6616 0.56243 0.82129 0.0
C2867 C 0.63731 0.52555 0.816 0.0
N2868 N 0.59489 0.46748 0.8257 0.0
N2869 N 0.68266 0.61583 0.84076 0.0
C2870 C 0.61459 0.50532 0.82877 0.0
C2871 C 0.661 0.57908 0.83762 0.0
N2872 N 0.58147 0.50696 0.85458 0.0
N2873 N 0.68895 0.5804 0.81077 0.0
H2874 H 0.68743 0.62712 0.85186 0.0
H2875 H 0.69382 0.63678 0.83234 0.0
H2876 H 0.69086 0.57005 0.79938 0.0
H2877 H 0.71249 0.60269 0.81345 0.0
H2878 H 0.55808 0.48521 0.85121 0.0
H2879 H 0.5755 0.51917 0.86549 0.0
H2880 H 0.58393 0.44674 0.83426 0.0
H2881 H 0.59246 0.45518 0.8146 0.0
C2882 C 0.77521 0.36786 1.07174 0.0
C2883 C 0.81142 0.39309 1.0659 0.0
C2884 C 0.81662 0.41555 0.09509 0.0
C2885 C 0.77923 0.39172 0.10058 0.0
N2886 N 0.71962 0.35083 0.09122 0.0
N2887 N 0.86822 0.43886 1.07485 0.0
C2888 C 0.75794 0.37002 0.08793 0.0
C2889 C 0.83216 0.41616 1.07853 0.0
N2890 N 0.75858 0.33779 1.06211 0.0
N2891 N 0.83623 0.4409 0.10574 0.0
H2892 H 0.87822 0.44397 1.06354 0.0
H2893 H 0.88957 0.45134 0.08284 0.0
H2894 H 0.82649 0.44177 0.11724 0.0
H2895 H 0.85989 0.46327 0.10324 0.0
H2896 H 0.73663 0.31465 1.06563 0.0
H2897 H 0.77069 0.33201 1.05114 0.0
H2898 H 0.69829 0.34056 0.08277 0.0
H2899 H 0.70757 0.34809 0.1024 0.0
C2900 C 0.94268 0.49321 0.33652 0.0
C2901 C 0.94356 0.5195 0.35035 0.0
C2902 C 0.94767 0.58124 0.32992 0.0
C2903 C 0.94292 0.55518 0.31613 0.0
N2904 N 0.92639 0.48303 0.30893 0.0
N2905 N 0.9375 0.59295 0.35783 0.0
C2906 C 0.93804 0.51037 0.32037 0.0
C2907 C 0.94366 0.56458 0.34617 0.0
N2908 N 0.9482 0.45054 0.33853 0.0
N2909 N 0.95813 0.62297 0.32772 0.0
H2910 H 0.93325 0.58356 0.36927 0.0
H2911 H 0.93168 0.62517 0.35598 0.0
H2912 H 0.96185 0.63637 0.31679 0.0
H2913 H 0.96754 0.64306 0.33663 0.0
H2914 H 0.9535 0.42958 0.32944 0.0
H2915 H 0.95209 0.4367 0.34936 0.0
H2916 H 0.91691 0.45172 0.31098 0.0
H2917 H 0.92137 0.49294 0.29761 0.0
C2918 C 0.82345 0.68277 0.56974 0.0
C2919 C 0.77889 0.68872 0.56495 0.0
C2920 C 0.7663 0.69074 0.59489 0.0
C2921 C 0.81128 0.68963 0.59961 0.0
N2922 N 0.8822 0.69248 0.58848 0.0
N2923 N 0.71015 0.70734 0.57582 0.0
C2924 C 0.83921 0.6877 0.58605 0.0
C2925 C 0.75144 0.69502 0.57845 0.0
N2926 N 0.85189 0.67003 0.5587 0.0
N2927 N 0.73613 0.68542 0.60618 0.0
H2928 H 0.69798 0.71212 0.56479 0.0
H2929 H 0.68955 0.71759 0.58454 0.0
H2930 H 0.7441 0.68098 0.61772 0.0
H2931 H 0.70369 0.68038 0.60389 0.0
H2932 H 0.88288 0.65976 0.56118 0.0
H2933 H 0.84306 0.66516 0.54727 0.0
H2934 H 0.90436 0.69686 0.57958 0.0
H2935 H 0.89521 0.6968 0.59941 0.0
C2936 C 0.45665 0.51005 0.34483 0.0
C2937 C 0.43412 0.54834 0.35004 0.0
C2938 C 0.41265 0.5523 0.3207 0.0
C2939 C 0.43434 0.51358 0.31574 0.0
N2940 N 0.47071 0.45269 0.326 0.0
N2941 N 0.39375 0.60739 0.33985 0.0
C2942 C 0.4541 0.49204 0.32878 0.0
C2943 C 0.41315 0.56936 0.33697 0.0
N2944 N 0.48451 0.4917 0.35497 0.0
N2945 N 0.38776 0.57188 0.30986 0.0
H2946 H 0.38855 0.61894 0.3509 0.0
H2947 H 0.38464 0.62888 0.33133 0.0
H2948 H 0.38574 0.56116 0.29853 0.0
H2949 H 0.36602 0.59606 0.31222 0.0
H2950 H 0.5062 0.468 0.35194 0.0
H2951 H 0.49008 0.50351 0.36596 0.0
H2952 H 0.47927 0.43146 0.3347 0.0
H2953 H 0.47267 0.43983 0.31496 0.0
C2954 C 0.33187 0.67892 1.07887 0.0
C2955 C 0.30454 0.67494 1.06534 0.0
C2956 C 0.24338 0.67652 0.08616 0.0
C2957 C 0.2708 0.6762 0.0998 0.0
N2958 N 0.3454 0.66727 0.10654 0.0
N2959 N 0.23098 0.6598 1.05877 0.0
C2960 C 0.31606 0.67483 0.09523 0.0
C2961 C 0.25954 0.67112 1.06993 0.0
N2962 N 0.37403 0.68858 1.07632 0.0
N2963 N 0.20067 0.6839 0.0884 0.0
H2964 H 0.24018 0.65409 1.04741 0.0
H2965 H 0.19931 0.65108 1.06114 0.0
H2966 H 0.18731 0.68905 0.09924 0.0
H2967 H 0.17937 0.68971 1.07939 0.0
H2968 H 0.39503 0.6974 0.08509 0.0
H2969 H 0.38687 0.69223 1.06529 0.0
H2970 H 0.37759 0.6607 0.10429 0.0
H2971 H 0.33682 0.66249 0.11802 0.0
C2972 C 0.13902 0.57467 0.82946 0.0
C2973 C 0.13845 0.54765 0.81579 0.0
C2974 C 0.13319 0.48701 0.83661 0.0
C2975 C 0.13754 0.51373 0.85025 0.0
N2976 N 0.15367 0.58611 0.85713 0.0
N2977 N 0.14437 0.47379 0.80884 0.0
C2978 C 0.14273 0.55829 0.84576 0.0
C2979 C 0.13792 0.5028 0.82027 0.0
N2980 N 0.13413 0.61729 0.82713 0.0
N2981 N 0.12234 0.44545 0.83903 0.0
H2982 H 0.14911 0.48253 0.79737 0.0
H2983 H 0.14999 0.44164 0.81095 0.0
H2984 H 0.11793 0.43266 0.85002 0.0
H2985 H 0.11319 0.42496 0.83021 0.0
H2986 H 0.12876 0.63882 0.83603 0.0
H2987 H 0.13092 0.63061 0.81618 0.0
H2988 H 0.1635 0.61728 0.855 0.0
H2989 H 0.15753 0.5767 0.86857 0.0
C2990 C 0.30975 0.39925 0.57116 0.0
C2991 C 0.26968 0.37972 0.56616 0.0
C2992 C 0.26375 0.35887 0.59545 0.0
C2993 C 0.30366 0.37909 0.6007 0.0
N2994 N 0.36595 0.41544 0.59029 0.0
N2995 N 0.20591 0.34712 0.57633 0.0
C2996 C 0.32643 0.39831 0.5875 0.0
C2997 C 0.2464 0.36166 0.57923 0.0
N2998 N 0.33123 0.42259 0.56027 0.0
N2999 N 0.24281 0.33327 0.60577 0.0
H3000 H 0.19333 0.34567 0.56522 0.0
H3001 H 0.18364 0.3398 0.58493 0.0
H3002 H 0.25333 0.32847 0.61699 0.0
H3003 H 0.21777 0.3129 0.60282 0.0
H3004 H 0.35648 0.44327 0.56263 0.0
H3005 H 0.32112 0.42449 0.54884 0.0
H3006 H 0.38843 0.42233 0.58172 0.0
H3007 H 0.37767 0.42104 0.60126 0.0
loop_
_geom_bond_atom_site_label_1
_geom_bond_atom_site_label_2
_geom_bond_distance
_geom_bond_site_symmetry_2
_ccdc_geom_bond_type
Nd0 C2 2.836 . S
Nd0 O20 2.481 1_455 S
Nd0 O21 2.492 . S
Nd0 O22 2.487 . S
Nd0 O23 2.682 . S
Nd0 O24 2.410 . S
Nd0 O29 2.414 . S
Nd0 O31 2.424 . S
Nd1 C11 2.836 . S
Nd1 O23 2.414 . S
Nd1 O25 2.424 . S
Nd1 O26 2.500 . S
Nd1 O27 2.492 . S
Nd1 O28 2.487 . S
Nd1 O29 2.682 . S
Nd1 O30 2.410 . S
C2 Nd0 2.836 . S
C2 C3 1.498 1_455 S
C2 O20 1.254 1_455 S
C2 O21 1.239 . S
C3 C2 1.498 1_655 S
C3 C4 1.366 . S
C3 C8 1.407 . S
C4 C3 1.366 . S
C4 C5 1.392 . S
C4 H32 0.930 . S
C5 C4 1.392 . S
C5 C6 1.398 . S
C5 H33 0.929 . S
C6 C5 1.398 . S
C6 C7 1.352 . S
C7 C6 1.352 . S
C7 C8 1.384 . S
C7 H34 0.930 . S
C8 C3 1.407 . S
C8 C7 1.384 . S
C8 H35 0.929 . S
C9 O22 1.241 . S
C9 O23 1.273 . S
C10 O24 1.251 . S
C10 O25 1.268 . S
C11 Nd1 2.836 . S
C11 C12 1.498 . S
C11 O26 1.258 . S
C11 O27 1.239 . S
C12 C11 1.498 . S
C12 C13 1.366 . S
C12 C17 1.407 . S
C13 C12 1.366 . S
C13 C14 1.392 . S
C13 H36 0.930 . S
C14 C13 1.392 . S
C14 C15 1.398 . S
C14 H37 0.929 . S
C15 C14 1.398 . S
C15 C16 1.352 . S
C16 C15 1.352 . S
C16 C17 1.384 . S
C16 H38 0.930 . S
C17 C12 1.407 . S
C17 C16 1.384 . S
C17 H39 0.929 . S
C18 O28 1.241 . S
C18 O29 1.273 . S
C19 O30 1.251 . S
C19 O31 1.268 . S
O20 Nd0 2.481 1_655 S
O20 C2 1.254 1_655 S
O21 Nd0 2.492 . S
O21 C2 1.239 . S
O22 Nd0 2.487 . S
O22 C9 1.241 . S
O23 Nd0 2.682 . S
O23 Nd1 2.414 . S
O23 C9 1.273 . S
O24 Nd0 2.410 . S
O24 C10 1.251 . S
O25 Nd1 2.424 . S
O25 C10 1.268 . S
O26 Nd1 2.500 . S
O26 C11 1.258 . S
O27 Nd1 2.492 . S
O27 C11 1.239 . S
O28 Nd1 2.487 . S
O28 C18 1.241 . S
O29 Nd0 2.414 . S
O29 Nd1 2.682 . S
O29 C18 1.273 . S
O30 Nd1 2.410 . S
O30 C19 1.251 . S
O31 Nd0 2.424 . S
O31 C19 1.268 . S
H32 C4 0.930 . S
H33 C5 0.929 . S
H34 C7 0.930 . S
H35 C8 0.929 . S
H36 C13 0.930 . S
H37 C14 0.929 . S
H38 C16 0.930 . S
H39 C17 0.929 . S
Nd40 C42 2.836 . S
Nd40 O60 2.500 . S
Nd40 O61 2.492 . S
Nd40 O62 2.487 . S
Nd40 O63 2.682 . S
Nd40 O64 2.410 . S
Nd40 O69 2.414 . S
Nd40 O71 2.424 . S
Nd41 C51 2.836 . S
Nd41 O63 2.414 . S
Nd41 O65 2.424 . S
Nd41 O66 2.500 . S
Nd41 O67 2.492 . S
Nd41 O68 2.487 . S
Nd41 O69 2.682 . S
Nd41 O70 2.410 . S
C42 Nd40 2.836 . S
C42 C43 1.498 . S
C42 O60 1.258 . S
C42 O61 1.239 . S
C43 C42 1.498 . S
C43 C44 1.366 . S
C43 C48 1.407 . S
C44 C43 1.366 . S
C44 C45 1.392 . S
C44 H72 0.930 . S
C45 C44 1.392 . S
C45 C46 1.398 . S
C45 H73 0.929 . S
C46 C45 1.398 . S
C46 C47 1.352 . S
C47 C46 1.352 . S
C47 C48 1.384 . S
C47 H74 0.930 . S
C48 C43 1.407 . S
C48 C47 1.384 . S
C48 H75 0.929 . S
C49 O62 1.241 . S
C49 O63 1.273 . S
C50 O64 1.251 . S
C50 O65 1.268 . S
C51 Nd41 2.836 . S
C51 C52 1.498 . S
C51 O66 1.258 . S
C51 O67 1.239 . S
C52 C51 1.498 . S
C52 C53 1.366 . S
C52 C57 1.407 . S
C53 C52 1.366 . S
C53 C54 1.392 1_565 S
C53 H76 0.930 . S
C54 C53 1.392 1_545 S
C54 C55 1.398 . S
C54 H77 0.929 . S
C55 C54 1.398 . S
C55 C56 1.352 1_545 S
C56 C55 1.352 1_565 S
C56 C57 1.384 . S
C56 H78 0.930 . S
C57 C52 1.407 . S
C57 C56 1.384 . S
C57 H79 0.929 . S
C58 O68 1.241 . S
C58 O69 1.273 . S
C59 O70 1.251 . S
C59 O71 1.268 . S
O60 Nd40 2.500 . S
O60 C42 1.258 . S
O61 Nd40 2.492 . S
O61 C42 1.239 . S
O62 Nd40 2.487 . S
O62 C49 1.241 . S
O63 Nd40 2.682 . S
O63 Nd41 2.414 . S
O63 C49 1.273 . S
O64 Nd40 2.410 . S
O64 C50 1.251 . S
O65 Nd41 2.424 . S
O65 C50 1.268 . S
O66 Nd41 2.500 . S
O66 C51 1.258 . S
O67 Nd41 2.492 . S
O67 C51 1.239 . S
O68 Nd41 2.487 . S
O68 C58 1.241 . S
O69 Nd40 2.414 . S
O69 Nd41 2.682 . S
O69 C58 1.273 . S
O70 Nd41 2.410 . S
O70 C59 1.251 . S
O71 Nd40 2.424 . S
O71 C59 1.268 . S
H72 C44 0.930 . S
H73 C45 0.929 . S
H74 C47 0.930 . S
H75 C48 0.929 . S
H76 C53 0.930 . S
H77 C54 0.929 . S
H78 C56 0.930 . S
H79 C57 0.929 . S
Nd80 C82 2.836 . S
Nd80 O100 2.500 . S
Nd80 O101 2.492 . S
Nd80 O102 2.487 . S
Nd80 O103 2.682 . S
Nd80 O104 2.410 . S
Nd80 O109 2.414 . S
Nd80 O111 2.424 . S
Nd81 C91 2.836 . S
Nd81 O103 2.414 . S
Nd81 O105 2.424 . S
Nd81 O106 2.500 . S
Nd81 O107 2.492 . S
Nd81 O108 2.487 . S
Nd81 O109 2.682 . S
Nd81 O110 2.410 . S
C82 Nd80 2.836 . S
C82 C83 1.498 . S
C82 O100 1.258 . S
C82 O101 1.239 . S
C83 C82 1.498 . S
C83 C84 1.366 . S
C83 C88 1.407 . S
C84 C83 1.366 . S
C84 C85 1.392 . S
C84 H112 0.930 . S
C85 C84 1.392 . S
C85 C86 1.398 . S
C85 H113 0.929 . S
C86 C85 1.398 . S
C86 C87 1.352 . S
C87 C86 1.352 . S
C87 C88 1.384 . S
C87 H114 0.930 . S
C88 C83 1.407 . S
C88 C87 1.384 . S
C88 H115 0.929 . S
C89 O102 1.241 . S
C89 O103 1.273 . S
C90 O104 1.251 . S
C90 O105 1.268 . S
C91 Nd81 2.836 . S
C91 C92 1.498 . S
C91 O106 1.258 . S
C91 O107 1.239 . S
C92 C91 1.498 . S
C92 C93 1.366 . S
C92 C97 1.407 . S
C93 C92 1.366 . S
C93 C94 1.392 . S
C93 H116 0.930 . S
C94 C93 1.392 . S
C94 C95 1.398 . S
C94 H117 0.929 . S
C95 C94 1.398 . S
C95 C96 1.352 . S
C96 C95 1.352 . S
C96 C97 1.384 . S
C96 H118 0.930 . S
C97 C92 1.407 . S
C97 C96 1.384 . S
C97 H119 0.929 . S
C98 O108 1.241 . S
C98 O109 1.273 . S
C99 O110 1.251 . S
C99 O111 1.268 . S
O100 Nd80 2.500 . S
O100 C82 1.258 . S
O101 Nd80 2.492 . S
O101 C82 1.239 . S
O102 Nd80 2.487 . S
O102 C89 1.241 . S
O103 Nd80 2.682 . S
O103 Nd81 2.414 . S
O103 C89 1.273 . S
O104 Nd80 2.410 . S
O104 C90 1.251 . S
O105 Nd81 2.424 . S
O105 C90 1.268 . S
O106 Nd81 2.500 . S
O106 C91 1.258 . S
O107 Nd81 2.492 . S
O107 C91 1.239 . S
O108 Nd81 2.487 . S
O108 C98 1.241 . S
O109 Nd80 2.414 . S
O109 Nd81 2.682 . S
O109 C98 1.273 . S
O110 Nd81 2.410 . S
O110 C99 1.251 . S
O111 Nd80 2.424 . S
O111 C99 1.268 . S
H112 C84 0.930 . S
H113 C85 0.929 . S
H114 C87 0.930 . S
H115 C88 0.929 . S
H116 C93 0.930 . S
H117 C94 0.929 . S
H118 C96 0.930 . S
H119 C97 0.929 . S
Nd120 C122 2.836 . S
Nd120 O140 2.500 . S
Nd120 O141 2.492 . S
Nd120 O142 2.487 . S
Nd120 O143 2.682 . S
Nd120 O144 2.410 . S
Nd120 O149 2.414 . S
Nd120 O151 2.424 . S
Nd121 C131 2.836 . S
Nd121 O143 2.414 . S
Nd121 O145 2.424 . S
Nd121 O146 2.500 . S
Nd121 O147 2.492 . S
Nd121 O148 2.487 . S
Nd121 O149 2.682 . S
Nd121 O150 2.410 . S
C122 Nd120 2.836 . S
C122 C123 1.498 . S
C122 O140 1.258 . S
C122 O141 1.239 . S
C123 C122 1.498 . S
C123 C124 1.366 . S
C123 C128 1.407 . S
C124 C123 1.366 . S
C124 C125 1.392 . S
C124 H152 0.930 . S
C125 C124 1.392 . S
C125 C126 1.398 . S
C125 H153 0.929 . S
C126 C125 1.398 . S
C126 C127 1.352 . S
C127 C126 1.352 . S
C127 C128 1.384 . S
C127 H154 0.930 . S
C128 C123 1.407 . S
C128 C127 1.384 . S
C128 H155 0.929 . S
C129 O142 1.241 . S
C129 O143 1.273 . S
C130 O144 1.251 . S
C130 O145 1.268 . S
C131 Nd121 2.836 . S
C131 C132 1.498 . S
C131 O146 1.258 . S
C131 O147 1.239 . S
C132 C131 1.498 . S
C132 C133 1.366 . S
C132 C137 1.407 . S
C133 C132 1.366 . S
C133 C134 1.392 1_545 S
C133 H156 0.930 . S
C134 C133 1.392 1_565 S
C134 C135 1.398 . S
C134 H157 0.929 . S
C135 C134 1.398 . S
C135 C136 1.352 1_565 S
C136 C135 1.352 1_545 S
C136 C137 1.384 . S
C136 H158 0.930 . S
C137 C132 1.407 . S
C137 C136 1.384 . S
C137 H159 0.929 . S
C138 O148 1.241 . S
C138 O149 1.273 . S
C139 O150 1.251 . S
C139 O151 1.268 . S
O140 Nd120 2.500 . S
O140 C122 1.258 . S
O141 Nd120 2.492 . S
O141 C122 1.239 . S
O142 Nd120 2.487 . S
O142 C129 1.241 . S
O143 Nd120 2.682 . S
O143 Nd121 2.414 . S
O143 C129 1.273 . S
O144 Nd120 2.410 . S
O144 C130 1.251 . S
O145 Nd121 2.424 . S
O145 C130 1.268 . S
O146 Nd121 2.500 . S
O146 C131 1.258 . S
O147 Nd121 2.492 . S
O147 C131 1.239 . S
O148 Nd121 2.487 . S
O148 C138 1.241 . S
O149 Nd120 2.414 . S
O149 Nd121 2.682 . S
O149 C138 1.273 . S
O150 Nd121 2.410 . S
O150 C139 1.251 . S
O151 Nd120 2.424 . S
O151 C139 1.268 . S
H152 C124 0.930 . S
H153 C125 0.929 . S
H154 C127 0.930 . S
H155 C128 0.929 . S
H156 C133 0.930 . S
H157 C134 0.929 . S
H158 C136 0.930 . S
H159 C137 0.929 . S
Nd160 C162 2.836 . S
Nd160 O180 2.481 1_455 S
Nd160 O181 2.492 . S
Nd160 O182 2.487 . S
Nd160 O183 2.682 . S
Nd160 O184 2.410 . S
Nd160 O189 2.414 . S
Nd160 O191 2.424 . S
Nd161 C171 2.836 . S
Nd161 O183 2.414 . S
Nd161 O185 2.424 . S
Nd161 O186 2.500 . S
Nd161 O187 2.492 . S
Nd161 O188 2.487 . S
Nd161 O189 2.682 . S
Nd161 O190 2.410 . S
C162 Nd160 2.836 . S
C162 C163 1.498 1_455 S
C162 O180 1.254 1_455 S
C162 O181 1.239 . S
C163 C162 1.498 1_655 S
C163 C164 1.366 . S
C163 C168 1.407 . S
C164 C163 1.366 . S
C164 C165 1.392 . S
C164 H192 0.930 . S
C165 C164 1.392 . S
C165 C166 1.398 . S
C165 H193 0.929 . S
C166 C165 1.398 . S
C166 C167 1.352 . S
C167 C166 1.352 . S
C167 C168 1.384 . S
C167 H194 0.930 . S
C168 C163 1.407 . S
C168 C167 1.384 . S
C168 H195 0.929 . S
C169 O182 1.241 . S
C169 O183 1.273 . S
C170 O184 1.251 . S
C170 O185 1.268 . S
C171 Nd161 2.836 . S
C171 C172 1.498 . S
C171 O186 1.258 . S
C171 O187 1.239 . S
C172 C171 1.498 . S
C172 C173 1.366 . S
C172 C177 1.407 . S
C173 C172 1.366 . S
C173 C174 1.392 . S
C173 H196 0.930 . S
C174 C173 1.392 . S
C174 C175 1.398 . S
C174 H197 0.929 . S
C175 C174 1.398 . S
C175 C176 1.352 . S
C176 C175 1.352 . S
C176 C177 1.384 . S
C176 H198 0.930 . S
C177 C172 1.407 . S
C177 C176 1.384 . S
C177 H199 0.929 . S
C178 O188 1.241 . S
C178 O189 1.273 . S
C179 O190 1.251 . S
C179 O191 1.268 . S
O180 Nd160 2.481 1_655 S
O180 C162 1.254 1_655 S
O181 Nd160 2.492 . S
O181 C162 1.239 . S
O182 Nd160 2.487 . S
O182 C169 1.241 . S
O183 Nd160 2.682 . S
O183 Nd161 2.414 . S
O183 C169 1.273 . S
O184 Nd160 2.410 . S
O184 C170 1.251 . S
O185 Nd161 2.424 . S
O185 C170 1.268 . S
O186 Nd161 2.500 . S
O186 C171 1.258 . S
O187 Nd161 2.492 . S
O187 C171 1.239 . S
O188 Nd161 2.487 . S
O188 C178 1.241 . S
O189 Nd160 2.414 . S
O189 Nd161 2.682 . S
O189 C178 1.273 . S
O190 Nd161 2.410 . S
O190 C179 1.251 . S
O191 Nd160 2.424 . S
O191 C179 1.268 . S
H192 C164 0.930 . S
H193 C165 0.929 . S
H194 C167 0.930 . S
H195 C168 0.929 . S
H196 C173 0.930 . S
H197 C174 0.929 . S
H198 C176 0.930 . S
H199 C177 0.929 . S
Nd200 C202 2.836 . S
Nd200 O220 2.500 . S
Nd200 O221 2.492 . S
Nd200 O222 2.487 . S
Nd200 O223 2.682 . S
Nd200 O224 2.410 . S
Nd200 O229 2.414 . S
Nd200 O231 2.424 . S
Nd201 C211 2.836 . S
Nd201 O223 2.414 . S
Nd201 O225 2.424 . S
Nd201 O226 2.500 . S
Nd201 O227 2.492 . S
Nd201 O228 2.487 . S
Nd201 O229 2.682 . S
Nd201 O230 2.410 . S
C202 Nd200 2.836 . S
C202 C203 1.498 . S
C202 O220 1.258 . S
C202 O221 1.239 . S
C203 C202 1.498 . S
C203 C204 1.366 . S
C203 C208 1.407 . S
C204 C203 1.366 . S
C204 C205 1.392 . S
C204 H232 0.930 . S
C205 C204 1.392 . S
C205 C206 1.398 . S
C205 H233 0.929 . S
C206 C205 1.398 . S
C206 C207 1.352 . S
C207 C206 1.352 . S
C207 C208 1.384 . S
C207 H234 0.930 . S
C208 C203 1.407 . S
C208 C207 1.384 . S
C208 H235 0.929 . S
C209 O222 1.241 . S
C209 O223 1.273 . S
C210 O224 1.251 . S
C210 O225 1.268 . S
C211 Nd201 2.836 . S
C211 C212 1.498 . S
C211 O226 1.258 . S
C211 O227 1.239 . S
C212 C211 1.498 . S
C212 C213 1.366 . S
C212 C217 1.407 . S
C213 C212 1.366 . S
C213 C214 1.392 1_565 S
C213 H236 0.930 . S
C214 C213 1.392 1_545 S
C214 C215 1.398 . S
C214 H237 0.929 . S
C215 C214 1.398 . S
C215 C216 1.352 1_545 S
C216 C215 1.352 1_565 S
C216 C217 1.384 . S
C216 H238 0.930 . S
C217 C212 1.407 . S
C217 C216 1.384 . S
C217 H239 0.929 . S
C218 O228 1.241 . S
C218 O229 1.273 . S
C219 O230 1.251 . S
C219 O231 1.268 . S
O220 Nd200 2.500 . S
O220 C202 1.258 . S
O221 Nd200 2.492 . S
O221 C202 1.239 . S
O222 Nd200 2.487 . S
O222 C209 1.241 . S
O223 Nd200 2.682 . S
O223 Nd201 2.414 . S
O223 C209 1.273 . S
O224 Nd200 2.410 . S
O224 C210 1.251 . S
O225 Nd201 2.424 . S
O225 C210 1.268 . S
O226 Nd201 2.500 . S
O226 C211 1.258 . S
O227 Nd201 2.492 . S
O227 C211 1.239 . S
O228 Nd201 2.487 . S
O228 C218 1.241 . S
O229 Nd200 2.414 . S
O229 Nd201 2.682 . S
O229 C218 1.273 . S
O230 Nd201 2.410 . S
O230 C219 1.251 . S
O231 Nd200 2.424 . S
O231 C219 1.268 . S
H232 C204 0.930 . S
H233 C205 0.929 . S
H234 C207 0.930 . S
H235 C208 0.929 . S
H236 C213 0.930 . S
H237 C214 0.929 . S
H238 C216 0.930 . S
H239 C217 0.929 . S
Nd240 C242 2.836 . S
Nd240 O260 2.500 . S
Nd240 O261 2.492 . S
Nd240 O262 2.487 . S
Nd240 O263 2.682 . S
Nd240 O264 2.410 . S
Nd240 O269 2.414 . S
Nd240 O271 2.424 . S
Nd241 C251 2.836 . S
Nd241 O263 2.414 . S
Nd241 O265 2.424 . S
Nd241 O266 2.500 . S
Nd241 O267 2.492 . S
Nd241 O268 2.487 . S
Nd241 O269 2.682 . S
Nd241 O270 2.410 . S
C242 Nd240 2.836 . S
C242 C243 1.498 . S
C242 O260 1.258 . S
C242 O261 1.239 . S
C243 C242 1.498 . S
C243 C244 1.366 . S
C243 C248 1.407 . S
C244 C243 1.366 . S
C244 C245 1.392 . S
C244 H272 0.930 . S
C245 C244 1.392 . S
C245 C246 1.398 . S
C245 H273 0.929 . S
C246 C245 1.398 . S
C246 C247 1.352 . S
C247 C246 1.352 . S
C247 C248 1.384 . S
C247 H274 0.930 . S
C248 C243 1.407 . S
C248 C247 1.384 . S
C248 H275 0.929 . S
C249 O262 1.241 . S
C249 O263 1.273 . S
C250 O264 1.251 . S
C250 O265 1.268 . S
C251 Nd241 2.836 . S
C251 C252 1.498 . S
C251 O266 1.258 . S
C251 O267 1.239 . S
C252 C251 1.498 . S
C252 C253 1.366 . S
C252 C257 1.407 . S
C253 C252 1.366 . S
C253 C254 1.392 . S
C253 H276 0.930 . S
C254 C253 1.392 . S
C254 C255 1.398 . S
C254 H277 0.929 . S
C255 C254 1.398 . S
C255 C256 1.352 . S
C256 C255 1.352 . S
C256 C257 1.384 . S
C256 H278 0.930 . S
C257 C252 1.407 . S
C257 C256 1.384 . S
C257 H279 0.929 . S
C258 O268 1.241 . S
C258 O269 1.273 . S
C259 O270 1.251 . S
C259 O271 1.268 . S
O260 Nd240 2.500 . S
O260 C242 1.258 . S
O261 Nd240 2.492 . S
O261 C242 1.239 . S
O262 Nd240 2.487 . S
O262 C249 1.241 . S
O263 Nd240 2.682 . S
O263 Nd241 2.414 . S
O263 C249 1.273 . S
O264 Nd240 2.410 . S
O264 C250 1.251 . S
O265 Nd241 2.424 . S
O265 C250 1.268 . S
O266 Nd241 2.500 . S
O266 C251 1.258 . S
O267 Nd241 2.492 . S
O267 C251 1.239 . S
O268 Nd241 2.487 . S
O268 C258 1.241 . S
O269 Nd240 2.414 . S
O269 Nd241 2.682 . S
O269 C258 1.273 . S
O270 Nd241 2.410 . S
O270 C259 1.251 . S
O271 Nd240 2.424 . S
O271 C259 1.268 . S
H272 C244 0.930 . S
H273 C245 0.929 . S
H274 C247 0.930 . S
H275 C248 0.929 . S
H276 C253 0.930 . S
H277 C254 0.929 . S
H278 C256 0.930 . S
H279 C257 0.929 . S
Nd280 C282 2.836 . S
Nd280 O300 2.500 . S
Nd280 O301 2.492 . S
Nd280 O302 2.487 . S
Nd280 O303 2.682 . S
Nd280 O304 2.410 . S
Nd280 O309 2.414 . S
Nd280 O311 2.424 . S
Nd281 C291 2.836 . S
Nd281 O303 2.414 . S
Nd281 O305 2.424 . S
Nd281 O306 2.500 . S
Nd281 O307 2.492 . S
Nd281 O308 2.487 . S
Nd281 O309 2.682 . S
Nd281 O310 2.410 . S
C282 Nd280 2.836 . S
C282 C283 1.498 . S
C282 O300 1.258 . S
C282 O301 1.239 . S
C283 C282 1.498 . S
C283 C284 1.366 . S
C283 C288 1.407 . S
C284 C283 1.366 . S
C284 C285 1.392 . S
C284 H312 0.930 . S
C285 C284 1.392 . S
C285 C286 1.398 . S
C285 H313 0.929 . S
C286 C285 1.398 . S
C286 C287 1.352 . S
C287 C286 1.352 . S
C287 C288 1.384 . S
C287 H314 0.930 . S
C288 C283 1.407 . S
C288 C287 1.384 . S
C288 H315 0.929 . S
C289 O302 1.241 . S
C289 O303 1.273 . S
C290 O304 1.251 . S
C290 O305 1.268 . S
C291 Nd281 2.836 . S
C291 C292 1.498 . S
C291 O306 1.258 . S
C291 O307 1.239 . S
C292 C291 1.498 . S
C292 C293 1.366 . S
C292 C297 1.407 . S
C293 C292 1.366 . S
C293 C294 1.392 1_545 S
C293 H316 0.930 . S
C294 C293 1.392 1_565 S
C294 C295 1.398 . S
C294 H317 0.929 . S
C295 C294 1.398 . S
C295 C296 1.352 1_565 S
C296 C295 1.352 1_545 S
C296 C297 1.384 . S
C296 H318 0.930 . S
C297 C292 1.407 . S
C297 C296 1.384 . S
C297 H319 0.929 . S
C298 O308 1.241 . S
C298 O309 1.273 . S
C299 O310 1.251 . S
C299 O311 1.268 . S
O300 Nd280 2.500 . S
O300 C282 1.258 . S
O301 Nd280 2.492 . S
O301 C282 1.239 . S
O302 Nd280 2.487 . S
O302 C289 1.241 . S
O303 Nd280 2.682 . S
O303 Nd281 2.414 . S
O303 C289 1.273 . S
O304 Nd280 2.410 . S
O304 C290 1.251 . S
O305 Nd281 2.424 . S
O305 C290 1.268 . S
O306 Nd281 2.500 . S
O306 C291 1.258 . S
O307 Nd281 2.492 . S
O307 C291 1.239 . S
O308 Nd281 2.487 . S
O308 C298 1.241 . S
O309 Nd280 2.414 . S
O309 Nd281 2.682 . S
O309 C298 1.273 . S
O310 Nd281 2.410 . S
O310 C299 1.251 . S
O311 Nd280 2.424 . S
O311 C299 1.268 . S
H312 C284 0.930 . S
H313 C285 0.929 . S
H314 C287 0.930 . S
H315 C288 0.929 . S
H316 C293 0.930 . S
H317 C294 0.929 . S
H318 C296 0.930 . S
H319 C297 0.929 . S
Nd320 C322 2.836 . S
Nd320 O340 2.500 . S
Nd320 O341 2.492 . S
Nd320 O342 2.487 . S
Nd320 O343 2.682 . S
Nd320 O344 2.410 . S
Nd320 O349 2.414 . S
Nd320 O351 2.424 . S
Nd321 C331 2.836 . S
Nd321 O343 2.414 . S
Nd321 O345 2.424 . S
Nd321 O346 2.481 1_655 S
Nd321 O347 2.492 . S
Nd321 O348 2.487 . S
Nd321 O349 2.682 . S
Nd321 O350 2.410 . S
C322 Nd320 2.836 . S
C322 C323 1.498 . S
C322 O340 1.258 . S
C322 O341 1.239 . S
C323 C322 1.498 . S
C323 C324 1.366 . S
C323 C328 1.407 . S
C324 C323 1.366 . S
C324 C325 1.392 . S
C324 H352 0.930 . S
C325 C324 1.392 . S
C325 C326 1.398 . S
C325 H353 0.929 . S
C326 C325 1.398 . S
C326 C327 1.352 . S
C327 C326 1.352 . S
C327 C328 1.384 . S
C327 H354 0.930 . S
C328 C323 1.407 . S
C328 C327 1.384 . S
C328 H355 0.929 . S
C329 O342 1.241 . S
C329 O343 1.273 . S
C330 O344 1.251 . S
C330 O345 1.268 . S
C331 Nd321 2.836 . S
C331 C332 1.498 1_655 S
C331 O346 1.254 1_655 S
C331 O347 1.239 . S
C332 C331 1.498 1_455 S
C332 C333 1.366 . S
C332 C337 1.407 . S
C333 C332 1.366 . S
C333 C334 1.392 . S
C333 H356 0.930 . S
C334 C333 1.392 . S
C334 C335 1.398 . S
C334 H357 0.929 . S
C335 C334 1.398 . S
C335 C336 1.352 . S
C336 C335 1.352 . S
C336 C337 1.384 . S
C336 H358 0.930 . S
C337 C332 1.407 . S
C337 C336 1.384 . S
C337 H359 0.929 . S
C338 O348 1.241 . S
C338 O349 1.273 . S
C339 O350 1.251 . S
C339 O351 1.268 . S
O340 Nd320 2.500 . S
O340 C322 1.258 . S
O341 Nd320 2.492 . S
O341 C322 1.239 . S
O342 Nd320 2.487 . S
O342 C329 1.241 . S
O343 Nd320 2.682 . S
O343 Nd321 2.414 . S
O343 C329 1.273 . S
O344 Nd320 2.410 . S
O344 C330 1.251 . S
O345 Nd321 2.424 . S
O345 C330 1.268 . S
O346 Nd321 2.481 1_455 S
O346 C331 1.254 1_455 S
O347 Nd321 2.492 . S
O347 C331 1.239 . S
O348 Nd321 2.487 . S
O348 C338 1.241 . S
O349 Nd320 2.414 . S
O349 Nd321 2.682 . S
O349 C338 1.273 . S
O350 Nd321 2.410 . S
O350 C339 1.251 . S
O351 Nd320 2.424 . S
O351 C339 1.268 . S
H352 C324 0.930 . S
H353 C325 0.929 . S
H354 C327 0.930 . S
H355 C328 0.929 . S
H356 C333 0.930 . S
H357 C334 0.929 . S
H358 C336 0.930 . S
H359 C337 0.929 . S
Nd360 C362 2.836 . S
Nd360 O380 2.500 . S
Nd360 O381 2.492 . S
Nd360 O382 2.487 . S
Nd360 O383 2.682 . S
Nd360 O384 2.410 . S
Nd360 O389 2.414 . S
Nd360 O391 2.424 . S
Nd361 C371 2.836 . S
Nd361 O383 2.414 . S
Nd361 O385 2.424 . S
Nd361 O386 2.500 . S
Nd361 O387 2.492 . S
Nd361 O388 2.487 . S
Nd361 O389 2.682 . S
Nd361 O390 2.410 . S
C362 Nd360 2.836 . S
C362 C363 1.498 . S
C362 O380 1.258 . S
C362 O381 1.239 . S
C363 C362 1.498 . S
C363 C364 1.366 . S
C363 C368 1.407 . S
C364 C363 1.366 . S
C364 C365 1.392 1_545 S
C364 H392 0.930 . S
C365 C364 1.392 1_565 S
C365 C366 1.398 . S
C365 H393 0.929 . S
C366 C365 1.398 . S
C366 C367 1.352 1_565 S
C367 C366 1.352 1_545 S
C367 C368 1.384 . S
C367 H394 0.930 . S
C368 C363 1.407 . S
C368 C367 1.384 . S
C368 H395 0.929 . S
C369 O382 1.241 . S
C369 O383 1.273 . S
C370 O384 1.251 . S
C370 O385 1.268 . S
C371 Nd361 2.836 . S
C371 C372 1.498 . S
C371 O386 1.258 . S
C371 O387 1.239 . S
C372 C371 1.498 . S
C372 C373 1.366 . S
C372 C377 1.407 . S
C373 C372 1.366 . S
C373 C374 1.392 . S
C373 H396 0.930 . S
C374 C373 1.392 . S
C374 C375 1.398 . S
C374 H397 0.929 . S
C375 C374 1.398 . S
C375 C376 1.352 . S
C376 C375 1.352 . S
C376 C377 1.384 . S
C376 H398 0.930 . S
C377 C372 1.407 . S
C377 C376 1.384 . S
C377 H399 0.929 . S
C378 O388 1.241 . S
C378 O389 1.273 . S
C379 O390 1.251 . S
C379 O391 1.268 . S
O380 Nd360 2.500 . S
O380 C362 1.258 . S
O381 Nd360 2.492 . S
O381 C362 1.239 . S
O382 Nd360 2.487 . S
O382 C369 1.241 . S
O383 Nd360 2.682 . S
O383 Nd361 2.414 . S
O383 C369 1.273 . S
O384 Nd360 2.410 . S
O384 C370 1.251 . S
O385 Nd361 2.424 . S
O385 C370 1.268 . S
O386 Nd361 2.500 . S
O386 C371 1.258 . S
O387 Nd361 2.492 . S
O387 C371 1.239 . S
O388 Nd361 2.487 . S
O388 C378 1.241 . S
O389 Nd360 2.414 . S
O389 Nd361 2.682 . S
O389 C378 1.273 . S
O390 Nd361 2.410 . S
O390 C379 1.251 . S
O391 Nd360 2.424 . S
O391 C379 1.268 . S
H392 C364 0.930 . S
H393 C365 0.929 . S
H394 C367 0.930 . S
H395 C368 0.929 . S
H396 C373 0.930 . S
H397 C374 0.929 . S
H398 C376 0.930 . S
H399 C377 0.929 . S
Nd400 C402 2.836 . S
Nd400 O420 2.500 . S
Nd400 O421 2.492 . S
Nd400 O422 2.487 . S
Nd400 O423 2.682 . S
Nd400 O424 2.410 . S
Nd400 O429 2.414 . S
Nd400 O431 2.424 . S
Nd401 C411 2.836 . S
Nd401 O423 2.414 . S
Nd401 O425 2.424 . S
Nd401 O426 2.500 . S
Nd401 O427 2.492 . S
Nd401 O428 2.487 . S
Nd401 O429 2.682 . S
Nd401 O430 2.410 . S
C402 Nd400 2.836 . S
C402 C403 1.498 . S
C402 O420 1.258 . S
C402 O421 1.239 . S
C403 C402 1.498 . S
C403 C404 1.366 . S
C403 C408 1.407 . S
C404 C403 1.366 . S
C404 C405 1.392 . S
C404 H432 0.930 . S
C405 C404 1.392 . S
C405 C406 1.398 . S
C405 H433 0.929 . S
C406 C405 1.398 . S
C406 C407 1.352 . S
C407 C406 1.352 . S
C407 C408 1.384 . S
C407 H434 0.930 . S
C408 C403 1.407 . S
C408 C407 1.384 . S
C408 H435 0.929 . S
C409 O422 1.241 . S
C409 O423 1.273 . S
C410 O424 1.251 . S
C410 O425 1.268 . S
C411 Nd401 2.836 . S
C411 C412 1.498 . S
C411 O426 1.258 . S
C411 O427 1.239 . S
C412 C411 1.498 . S
C412 C413 1.366 . S
C412 C417 1.407 . S
C413 C412 1.366 . S
C413 C414 1.392 . S
C413 H436 0.930 . S
C414 C413 1.392 . S
C414 C415 1.398 . S
C414 H437 0.929 . S
C415 C414 1.398 . S
C415 C416 1.352 . S
C416 C415 1.352 . S
C416 C417 1.384 . S
C416 H438 0.930 . S
C417 C412 1.407 . S
C417 C416 1.384 . S
C417 H439 0.929 . S
C418 O428 1.241 . S
C418 O429 1.273 . S
C419 O430 1.251 . S
C419 O431 1.268 . S
O420 Nd400 2.500 . S
O420 C402 1.258 . S
O421 Nd400 2.492 . S
O421 C402 1.239 . S
O422 Nd400 2.487 . S
O422 C409 1.241 . S
O423 Nd400 2.682 . S
O423 Nd401 2.414 . S
O423 C409 1.273 . S
O424 Nd400 2.410 . S
O424 C410 1.251 . S
O425 Nd401 2.424 . S
O425 C410 1.268 . S
O426 Nd401 2.500 . S
O426 C411 1.258 . S
O427 Nd401 2.492 . S
O427 C411 1.239 . S
O428 Nd401 2.487 . S
O428 C418 1.241 . S
O429 Nd400 2.414 . S
O429 Nd401 2.682 . S
O429 C418 1.273 . S
O430 Nd401 2.410 . S
O430 C419 1.251 . S
O431 Nd400 2.424 . S
O431 C419 1.268 . S
H432 C404 0.930 . S
H433 C405 0.929 . S
H434 C407 0.930 . S
H435 C408 0.929 . S
H436 C413 0.930 . S
H437 C414 0.929 . S
H438 C416 0.930 . S
H439 C417 0.929 . S
Nd440 C442 2.836 . S
Nd440 O460 2.500 . S
Nd440 O461 2.492 . S
Nd440 O462 2.487 . S
Nd440 O463 2.682 . S
Nd440 O464 2.410 . S
Nd440 O469 2.414 . S
Nd440 O471 2.424 . S
Nd441 C451 2.836 . S
Nd441 O463 2.414 . S
Nd441 O465 2.424 . S
Nd441 O466 2.500 . S
Nd441 O467 2.492 . S
Nd441 O468 2.487 . S
Nd441 O469 2.682 . S
Nd441 O470 2.410 . S
C442 Nd440 2.836 . S
C442 C443 1.498 . S
C442 O460 1.258 . S
C442 O461 1.239 . S
C443 C442 1.498 . S
C443 C444 1.366 . S
C443 C448 1.407 . S
C444 C443 1.366 . S
C444 C445 1.392 1_565 S
C444 H472 0.930 . S
C445 C444 1.392 1_545 S
C445 C446 1.398 . S
C445 H473 0.929 . S
C446 C445 1.398 . S
C446 C447 1.352 1_545 S
C447 C446 1.352 1_565 S
C447 C448 1.384 . S
C447 H474 0.930 . S
C448 C443 1.407 . S
C448 C447 1.384 . S
C448 H475 0.929 . S
C449 O462 1.241 . S
C449 O463 1.273 . S
C450 O464 1.251 . S
C450 O465 1.268 . S
C451 Nd441 2.836 . S
C451 C452 1.498 . S
C451 O466 1.258 . S
C451 O467 1.239 . S
C452 C451 1.498 . S
C452 C453 1.366 . S
C452 C457 1.407 . S
C453 C452 1.366 . S
C453 C454 1.392 . S
C453 H476 0.930 . S
C454 C453 1.392 . S
C454 C455 1.398 . S
C454 H477 0.929 . S
C455 C454 1.398 . S
C455 C456 1.352 . S
C456 C455 1.352 . S
C456 C457 1.384 . S
C456 H478 0.930 . S
C457 C452 1.407 . S
C457 C456 1.384 . S
C457 H479 0.929 . S
C458 O468 1.241 . S
C458 O469 1.273 . S
C459 O470 1.251 . S
C459 O471 1.268 . S
O460 Nd440 2.500 . S
O460 C442 1.258 . S
O461 Nd440 2.492 . S
O461 C442 1.239 . S
O462 Nd440 2.487 . S
O462 C449 1.241 . S
O463 Nd440 2.682 . S
O463 Nd441 2.414 . S
O463 C449 1.273 . S
O464 Nd440 2.410 . S
O464 C450 1.251 . S
O465 Nd441 2.424 . S
O465 C450 1.268 . S
O466 Nd441 2.500 . S
O466 C451 1.258 . S
O467 Nd441 2.492 . S
O467 C451 1.239 . S
O468 Nd441 2.487 . S
O468 C458 1.241 . S
O469 Nd440 2.414 . S
O469 Nd441 2.682 . S
O469 C458 1.273 . S
O470 Nd441 2.410 . S
O470 C459 1.251 . S
O471 Nd440 2.424 . S
O471 C459 1.268 . S
H472 C444 0.930 . S
H473 C445 0.929 . S
H474 C447 0.930 . S
H475 C448 0.929 . S
H476 C453 0.930 . S
H477 C454 0.929 . S
H478 C456 0.930 . S
H479 C457 0.929 . S
Nd480 C482 2.836 . S
Nd480 O500 2.500 . S
Nd480 O501 2.492 . S
Nd480 O502 2.487 . S
Nd480 O503 2.682 . S
Nd480 O504 2.410 . S
Nd480 O509 2.414 . S
Nd480 O511 2.424 . S
Nd481 C491 2.836 . S
Nd481 O503 2.414 . S
Nd481 O505 2.424 . S
Nd481 O506 2.481 1_655 S
Nd481 O507 2.492 . S
Nd481 O508 2.487 . S
Nd481 O509 2.682 . S
Nd481 O510 2.410 . S
C482 Nd480 2.836 . S
C482 C483 1.498 . S
C482 O500 1.258 . S
C482 O501 1.239 . S
C483 C482 1.498 . S
C483 C484 1.366 . S
C483 C488 1.407 . S
C484 C483 1.366 . S
C484 C485 1.392 . S
C484 H512 0.930 . S
C485 C484 1.392 . S
C485 C486 1.398 . S
C485 H513 0.929 . S
C486 C485 1.398 . S
C486 C487 1.352 . S
C487 C486 1.352 . S
C487 C488 1.384 . S
C487 H514 0.930 . S
C488 C483 1.407 . S
C488 C487 1.384 . S
C488 H515 0.929 . S
C489 O502 1.241 . S
C489 O503 1.273 . S
C490 O504 1.251 . S
C490 O505 1.268 . S
C491 Nd481 2.836 . S
C491 C492 1.498 1_655 S
C491 O506 1.254 1_655 S
C491 O507 1.239 . S
C492 C491 1.498 1_455 S
C492 C493 1.366 . S
C492 C497 1.407 . S
C493 C492 1.366 . S
C493 C494 1.392 . S
C493 H516 0.930 . S
C494 C493 1.392 . S
C494 C495 1.398 . S
C494 H517 0.929 . S
C495 C494 1.398 . S
C495 C496 1.352 . S
C496 C495 1.352 . S
C496 C497 1.384 . S
C496 H518 0.930 . S
C497 C492 1.407 . S
C497 C496 1.384 . S
C497 H519 0.929 . S
C498 O508 1.241 . S
C498 O509 1.273 . S
C499 O510 1.251 . S
C499 O511 1.268 . S
O500 Nd480 2.500 . S
O500 C482 1.258 . S
O501 Nd480 2.492 . S
O501 C482 1.239 . S
O502 Nd480 2.487 . S
O502 C489 1.241 . S
O503 Nd480 2.682 . S
O503 Nd481 2.414 . S
O503 C489 1.273 . S
O504 Nd480 2.410 . S
O504 C490 1.251 . S
O505 Nd481 2.424 . S
O505 C490 1.268 . S
O506 Nd481 2.481 1_455 S
O506 C491 1.254 1_455 S
O507 Nd481 2.492 . S
O507 C491 1.239 . S
O508 Nd481 2.487 . S
O508 C498 1.241 . S
O509 Nd480 2.414 . S
O509 Nd481 2.682 . S
O509 C498 1.273 . S
O510 Nd481 2.410 . S
O510 C499 1.251 . S
O511 Nd480 2.424 . S
O511 C499 1.268 . S
H512 C484 0.930 . S
H513 C485 0.929 . S
H514 C487 0.930 . S
H515 C488 0.929 . S
H516 C493 0.930 . S
H517 C494 0.929 . S
H518 C496 0.930 . S
H519 C497 0.929 . S
Nd520 C522 2.836 . S
Nd520 O540 2.500 . S
Nd520 O541 2.492 . S
Nd520 O542 2.487 . S
Nd520 O543 2.682 . S
Nd520 O544 2.410 . S
Nd520 O549 2.414 . S
Nd520 O551 2.424 . S
Nd521 C531 2.836 . S
Nd521 O543 2.414 . S
Nd521 O545 2.424 . S
Nd521 O546 2.500 . S
Nd521 O547 2.492 . S
Nd521 O548 2.487 . S
Nd521 O549 2.682 . S
Nd521 O550 2.410 . S
C522 Nd520 2.836 . S
C522 C523 1.498 . S
C522 O540 1.258 . S
C522 O541 1.239 . S
C523 C522 1.498 . S
C523 C524 1.366 . S
C523 C528 1.407 . S
C524 C523 1.366 . S
C524 C525 1.392 1_545 S
C524 H552 0.930 . S
C525 C524 1.392 1_565 S
C525 C526 1.398 . S
C525 H553 0.929 . S
C526 C525 1.398 . S
C526 C527 1.352 1_565 S
C527 C526 1.352 1_545 S
C527 C528 1.384 . S
C527 H554 0.930 . S
C528 C523 1.407 . S
C528 C527 1.384 . S
C528 H555 0.929 . S
C529 O542 1.241 . S
C529 O543 1.273 . S
C530 O544 1.251 . S
C530 O545 1.268 . S
C531 Nd521 2.836 . S
C531 C532 1.498 . S
C531 O546 1.258 . S
C531 O547 1.239 . S
C532 C531 1.498 . S
C532 C533 1.366 . S
C532 C537 1.407 . S
C533 C532 1.366 . S
C533 C534 1.392 . S
C533 H556 0.930 . S
C534 C533 1.392 . S
C534 C535 1.398 . S
C534 H557 0.929 . S
C535 C534 1.398 . S
C535 C536 1.352 . S
C536 C535 1.352 . S
C536 C537 1.384 . S
C536 H558 0.930 . S
C537 C532 1.407 . S
C537 C536 1.384 . S
C537 H559 0.929 . S
C538 O548 1.241 . S
C538 O549 1.273 . S
C539 O550 1.251 . S
C539 O551 1.268 . S
O540 Nd520 2.500 . S
O540 C522 1.258 . S
O541 Nd520 2.492 . S
O541 C522 1.239 . S
O542 Nd520 2.487 . S
O542 C529 1.241 . S
O543 Nd520 2.682 . S
O543 Nd521 2.414 . S
O543 C529 1.273 . S
O544 Nd520 2.410 . S
O544 C530 1.251 . S
O545 Nd521 2.424 . S
O545 C530 1.268 . S
O546 Nd521 2.500 . S
O546 C531 1.258 . S
O547 Nd521 2.492 . S
O547 C531 1.239 . S
O548 Nd521 2.487 . S
O548 C538 1.241 . S
O549 Nd520 2.414 . S
O549 Nd521 2.682 . S
O549 C538 1.273 . S
O550 Nd521 2.410 . S
O550 C539 1.251 . S
O551 Nd520 2.424 . S
O551 C539 1.268 . S
H552 C524 0.930 . S
H553 C525 0.929 . S
H554 C527 0.930 . S
H555 C528 0.929 . S
H556 C533 0.930 . S
H557 C534 0.929 . S
H558 C536 0.930 . S
H559 C537 0.929 . S
Nd560 C562 2.836 . S
Nd560 O580 2.500 . S
Nd560 O581 2.492 . S
Nd560 O582 2.487 . S
Nd560 O583 2.682 . S
Nd560 O584 2.410 . S
Nd560 O589 2.414 . S
Nd560 O591 2.424 . S
Nd561 C571 2.836 . S
Nd561 O583 2.414 . S
Nd561 O585 2.424 . S
Nd561 O586 2.500 . S
Nd561 O587 2.492 . S
Nd561 O588 2.487 . S
Nd561 O589 2.682 . S
Nd561 O590 2.410 . S
C562 Nd560 2.836 . S
C562 C563 1.498 . S
C562 O580 1.258 . S
C562 O581 1.239 . S
C563 C562 1.498 . S
C563 C564 1.366 . S
C563 C568 1.407 . S
C564 C563 1.366 . S
C564 C565 1.392 . S
C564 H592 0.930 . S
C565 C564 1.392 . S
C565 C566 1.398 . S
C565 H593 0.929 . S
C566 C565 1.398 . S
C566 C567 1.352 . S
C567 C566 1.352 . S
C567 C568 1.384 . S
C567 H594 0.930 . S
C568 C563 1.407 . S
C568 C567 1.384 . S
C568 H595 0.929 . S
C569 O582 1.241 . S
C569 O583 1.273 . S
C570 O584 1.251 . S
C570 O585 1.268 . S
C571 Nd561 2.836 . S
C571 C572 1.498 . S
C571 O586 1.258 . S
C571 O587 1.239 . S
C572 C571 1.498 . S
C572 C573 1.366 . S
C572 C577 1.407 . S
C573 C572 1.366 . S
C573 C574 1.392 . S
C573 H596 0.930 . S
C574 C573 1.392 . S
C574 C575 1.398 . S
C574 H597 0.929 . S
C575 C574 1.398 . S
C575 C576 1.352 . S
C576 C575 1.352 . S
C576 C577 1.384 . S
C576 H598 0.930 . S
C577 C572 1.407 . S
C577 C576 1.384 . S
C577 H599 0.929 . S
C578 O588 1.241 . S
C578 O589 1.273 . S
C579 O590 1.251 . S
C579 O591 1.268 . S
O580 Nd560 2.500 . S
O580 C562 1.258 . S
O581 Nd560 2.492 . S
O581 C562 1.239 . S
O582 Nd560 2.487 . S
O582 C569 1.241 . S
O583 Nd560 2.682 . S
O583 Nd561 2.414 . S
O583 C569 1.273 . S
O584 Nd560 2.410 . S
O584 C570 1.251 . S
O585 Nd561 2.424 . S
O585 C570 1.268 . S
O586 Nd561 2.500 . S
O586 C571 1.258 . S
O587 Nd561 2.492 . S
O587 C571 1.239 . S
O588 Nd561 2.487 . S
O588 C578 1.241 . S
O589 Nd560 2.414 . S
O589 Nd561 2.682 . S
O589 C578 1.273 . S
O590 Nd561 2.410 . S
O590 C579 1.251 . S
O591 Nd560 2.424 . S
O591 C579 1.268 . S
H592 C564 0.930 . S
H593 C565 0.929 . S
H594 C567 0.930 . S
H595 C568 0.929 . S
H596 C573 0.930 . S
H597 C574 0.929 . S
H598 C576 0.930 . S
H599 C577 0.929 . S
Nd600 C602 2.836 . S
Nd600 O620 2.500 . S
Nd600 O621 2.492 . S
Nd600 O622 2.487 . S
Nd600 O623 2.682 . S
Nd600 O624 2.410 . S
Nd600 O629 2.414 . S
Nd600 O631 2.424 . S
Nd601 C611 2.836 . S
Nd601 O623 2.414 . S
Nd601 O625 2.424 . S
Nd601 O626 2.500 . S
Nd601 O627 2.492 . S
Nd601 O628 2.487 . S
Nd601 O629 2.682 . S
Nd601 O630 2.410 . S
C602 Nd600 2.836 . S
C602 C603 1.498 . S
C602 O620 1.258 . S
C602 O621 1.239 . S
C603 C602 1.498 . S
C603 C604 1.366 . S
C603 C608 1.407 . S
C604 C603 1.366 . S
C604 C605 1.392 1_565 S
C604 H632 0.930 . S
C605 C604 1.392 1_545 S
C605 C606 1.398 . S
C605 H633 0.929 . S
C606 C605 1.398 . S
C606 C607 1.352 1_545 S
C607 C606 1.352 1_565 S
C607 C608 1.384 . S
C607 H634 0.930 . S
C608 C603 1.407 . S
C608 C607 1.384 . S
C608 H635 0.929 . S
C609 O622 1.241 . S
C609 O623 1.273 . S
C610 O624 1.251 . S
C610 O625 1.268 . S
C611 Nd601 2.836 . S
C611 C612 1.498 . S
C611 O626 1.258 . S
C611 O627 1.239 . S
C612 C611 1.498 . S
C612 C613 1.366 . S
C612 C617 1.407 . S
C613 C612 1.366 . S
C613 C614 1.392 . S
C613 H636 0.930 . S
C614 C613 1.392 . S
C614 C615 1.398 . S
C614 H637 0.929 . S
C615 C614 1.398 . S
C615 C616 1.352 . S
C616 C615 1.352 . S
C616 C617 1.384 . S
C616 H638 0.930 . S
C617 C612 1.407 . S
C617 C616 1.384 . S
C617 H639 0.929 . S
C618 O628 1.241 . S
C618 O629 1.273 . S
C619 O630 1.251 . S
C619 O631 1.268 . S
O620 Nd600 2.500 . S
O620 C602 1.258 . S
O621 Nd600 2.492 . S
O621 C602 1.239 . S
O622 Nd600 2.487 . S
O622 C609 1.241 . S
O623 Nd600 2.682 . S
O623 Nd601 2.414 . S
O623 C609 1.273 . S
O624 Nd600 2.410 . S
O624 C610 1.251 . S
O625 Nd601 2.424 . S
O625 C610 1.268 . S
O626 Nd601 2.500 . S
O626 C611 1.258 . S
O627 Nd601 2.492 . S
O627 C611 1.239 . S
O628 Nd601 2.487 . S
O628 C618 1.241 . S
O629 Nd600 2.414 . S
O629 Nd601 2.682 . S
O629 C618 1.273 . S
O630 Nd601 2.410 . S
O630 C619 1.251 . S
O631 Nd600 2.424 . S
O631 C619 1.268 . S
H632 C604 0.930 . S
H633 C605 0.929 . S
H634 C607 0.930 . S
H635 C608 0.929 . S
H636 C613 0.930 . S
H637 C614 0.929 . S
H638 C616 0.930 . S
H639 C617 0.929 . S
Nd640 C642 2.836 . S
Nd640 O660 2.500 . S
Nd640 O661 2.492 . S
Nd640 O662 2.487 . S
Nd640 O663 2.682 . S
Nd640 O664 2.410 . S
Nd640 O669 2.414 . S
Nd640 O671 2.424 . S
Nd641 C651 2.836 . S
Nd641 O663 2.414 . S
Nd641 O665 2.424 . S
Nd641 O666 2.500 . S
Nd641 O667 2.492 . S
Nd641 O668 2.487 . S
Nd641 O669 2.682 . S
Nd641 O670 2.410 . S
C642 Nd640 2.836 . S
C642 C643 1.498 . S
C642 O660 1.258 . S
C642 O661 1.239 . S
C643 C642 1.498 . S
C643 C644 1.366 . S
C643 C648 1.407 . S
C644 C643 1.366 . S
C644 C645 1.392 . S
C644 H672 0.930 . S
C645 C644 1.392 . S
C645 C646 1.398 . S
C645 H673 0.929 . S
C646 C645 1.398 . S
C646 C647 1.352 . S
C647 C646 1.352 . S
C647 C648 1.384 . S
C647 H674 0.930 . S
C648 C643 1.407 . S
C648 C647 1.384 . S
C648 H675 0.929 . S
C649 O662 1.241 . S
C649 O663 1.273 . S
C650 O664 1.251 . S
C650 O665 1.268 . S
C651 Nd641 2.836 . S
C651 C652 1.498 . S
C651 O666 1.258 . S
C651 O667 1.239 . S
C652 C651 1.498 . S
C652 C653 1.366 . S
C652 C657 1.407 . S
C653 C652 1.366 . S
C653 C654 1.392 . S
C653 H676 0.930 . S
C654 C653 1.392 . S
C654 C655 1.398 . S
C654 H677 0.929 . S
C655 C654 1.398 . S
C655 C656 1.352 . S
C656 C655 1.352 . S
C656 C657 1.384 . S
C656 H678 0.930 . S
C657 C652 1.407 . S
C657 C656 1.384 . S
C657 H679 0.929 . S
C658 O668 1.241 . S
C658 O669 1.273 . S
C659 O670 1.251 . S
C659 O671 1.268 . S
O660 Nd640 2.500 . S
O660 C642 1.258 . S
O661 Nd640 2.492 . S
O661 C642 1.239 . S
O662 Nd640 2.487 . S
O662 C649 1.241 . S
O663 Nd640 2.682 . S
O663 Nd641 2.414 . S
O663 C649 1.273 . S
O664 Nd640 2.410 . S
O664 C650 1.251 . S
O665 Nd641 2.424 . S
O665 C650 1.268 . S
O666 Nd641 2.500 . S
O666 C651 1.258 . S
O667 Nd641 2.492 . S
O667 C651 1.239 . S
O668 Nd641 2.487 . S
O668 C658 1.241 . S
O669 Nd640 2.414 . S
O669 Nd641 2.682 . S
O669 C658 1.273 . S
O670 Nd641 2.410 . S
O670 C659 1.251 . S
O671 Nd640 2.424 . S
O671 C659 1.268 . S
H672 C644 0.930 . S
H673 C645 0.929 . S
H674 C647 0.930 . S
H675 C648 0.929 . S
H676 C653 0.930 . S
H677 C654 0.929 . S
H678 C656 0.930 . S
H679 C657 0.929 . S
Nd680 C682 2.836 . S
Nd680 O700 2.500 . S
Nd680 O701 2.492 . S
Nd680 O702 2.487 . S
Nd680 O703 2.682 . S
Nd680 O704 2.410 . S
Nd680 O709 2.414 . S
Nd680 O711 2.424 . S
Nd681 C691 2.836 . S
Nd681 O703 2.414 . S
Nd681 O705 2.424 . S
Nd681 O706 2.500 . S
Nd681 O707 2.492 . S
Nd681 O708 2.487 . S
Nd681 O709 2.682 . S
Nd681 O710 2.410 . S
C682 Nd680 2.836 . S
C682 C683 1.498 . S
C682 O700 1.258 . S
C682 O701 1.239 . S
C683 C682 1.498 . S
C683 C684 1.366 . S
C683 C688 1.407 . S
C684 C683 1.366 . S
C684 C685 1.392 . S
C684 H712 0.930 . S
C685 C684 1.392 . S
C685 C686 1.398 . S
C685 H713 0.929 . S
C686 C685 1.398 . S
C686 C687 1.352 . S
C687 C686 1.352 . S
C687 C688 1.384 . S
C687 H714 0.930 . S
C688 C683 1.407 . S
C688 C687 1.384 . S
C688 H715 0.929 . S
C689 O702 1.241 . S
C689 O703 1.273 . S
C690 O704 1.251 . S
C690 O705 1.268 . S
C691 Nd681 2.836 . S
C691 C692 1.498 . S
C691 O706 1.258 . S
C691 O707 1.239 . S
C692 C691 1.498 . S
C692 C693 1.366 . S
C692 C697 1.407 . S
C693 C692 1.366 . S
C693 C694 1.392 . S
C693 H716 0.930 . S
C694 C693 1.392 . S
C694 C695 1.398 . S
C694 H717 0.929 . S
C695 C694 1.398 . S
C695 C696 1.352 . S
C696 C695 1.352 . S
C696 C697 1.384 . S
C696 H718 0.930 . S
C697 C692 1.407 . S
C697 C696 1.384 . S
C697 H719 0.929 . S
C698 O708 1.241 . S
C698 O709 1.273 . S
C699 O710 1.251 . S
C699 O711 1.268 . S
O700 Nd680 2.500 . S
O700 C682 1.258 . S
O701 Nd680 2.492 . S
O701 C682 1.239 . S
O702 Nd680 2.487 . S
O702 C689 1.241 . S
O703 Nd680 2.682 . S
O703 Nd681 2.414 . S
O703 C689 1.273 . S
O704 Nd680 2.410 . S
O704 C690 1.251 . S
O705 Nd681 2.424 . S
O705 C690 1.268 . S
O706 Nd681 2.500 . S
O706 C691 1.258 . S
O707 Nd681 2.492 . S
O707 C691 1.239 . S
O708 Nd681 2.487 . S
O708 C698 1.241 . S
O709 Nd680 2.414 . S
O709 Nd681 2.682 . S
O709 C698 1.273 . S
O710 Nd681 2.410 . S
O710 C699 1.251 . S
O711 Nd680 2.424 . S
O711 C699 1.268 . S
H712 C684 0.930 . S
H713 C685 0.929 . S
H714 C687 0.930 . S
H715 C688 0.929 . S
H716 C693 0.930 . S
H717 C694 0.929 . S
H718 C696 0.930 . S
H719 C697 0.929 . S
Nd720 C722 2.836 . S
Nd720 O740 2.481 1_655 S
Nd720 O741 2.492 . S
Nd720 O742 2.487 . S
Nd720 O743 2.682 . S
Nd720 O744 2.410 . S
Nd720 O749 2.414 . S
Nd720 O751 2.424 . S
Nd721 C731 2.836 . S
Nd721 O743 2.414 . S
Nd721 O745 2.424 . S
Nd721 O746 2.500 . S
Nd721 O747 2.492 . S
Nd721 O748 2.487 . S
Nd721 O749 2.682 . S
Nd721 O750 2.410 . S
C722 Nd720 2.836 . S
C722 C723 1.498 1_655 S
C722 O740 1.254 1_655 S
C722 O741 1.239 . S
C723 C722 1.498 1_455 S
C723 C724 1.366 . S
C723 C728 1.407 . S
C724 C723 1.366 . S
C724 C725 1.392 . S
C724 H752 0.930 . S
C725 C724 1.392 . S
C725 C726 1.398 . S
C725 H753 0.929 . S
C726 C725 1.398 . S
C726 C727 1.352 . S
C727 C726 1.352 . S
C727 C728 1.384 . S
C727 H754 0.930 . S
C728 C723 1.407 . S
C728 C727 1.384 . S
C728 H755 0.929 . S
C729 O742 1.241 . S
C729 O743 1.273 . S
C730 O744 1.251 . S
C730 O745 1.268 . S
C731 Nd721 2.836 . S
C731 C732 1.498 . S
C731 O746 1.258 . S
C731 O747 1.239 . S
C732 C731 1.498 . S
C732 C733 1.366 . S
C732 C737 1.407 . S
C733 C732 1.366 . S
C733 C734 1.392 . S
C733 H756 0.930 . S
C734 C733 1.392 . S
C734 C735 1.398 . S
C734 H757 0.929 . S
C735 C734 1.398 . S
C735 C736 1.352 . S
C736 C735 1.352 . S
C736 C737 1.384 . S
C736 H758 0.930 . S
C737 C732 1.407 . S
C737 C736 1.384 . S
C737 H759 0.929 . S
C738 O748 1.241 . S
C738 O749 1.273 . S
C739 O750 1.251 . S
C739 O751 1.268 . S
O740 Nd720 2.481 1_455 S
O740 C722 1.254 1_455 S
O741 Nd720 2.492 . S
O741 C722 1.239 . S
O742 Nd720 2.487 . S
O742 C729 1.241 . S
O743 Nd720 2.682 . S
O743 Nd721 2.414 . S
O743 C729 1.273 . S
O744 Nd720 2.410 . S
O744 C730 1.251 . S
O745 Nd721 2.424 . S
O745 C730 1.268 . S
O746 Nd721 2.500 . S
O746 C731 1.258 . S
O747 Nd721 2.492 . S
O747 C731 1.239 . S
O748 Nd721 2.487 . S
O748 C738 1.241 . S
O749 Nd720 2.414 . S
O749 Nd721 2.682 . S
O749 C738 1.273 . S
O750 Nd721 2.410 . S
O750 C739 1.251 . S
O751 Nd720 2.424 . S
O751 C739 1.268 . S
H752 C724 0.930 . S
H753 C725 0.929 . S
H754 C727 0.930 . S
H755 C728 0.929 . S
H756 C733 0.930 . S
H757 C734 0.929 . S
H758 C736 0.930 . S
H759 C737 0.929 . S
Nd760 C762 2.836 . S
Nd760 O780 2.500 . S
Nd760 O781 2.492 . S
Nd760 O782 2.487 . S
Nd760 O783 2.682 . S
Nd760 O784 2.410 . S
Nd760 O789 2.414 . S
Nd760 O791 2.424 . S
Nd761 C771 2.836 . S
Nd761 O783 2.414 . S
Nd761 O785 2.424 . S
Nd761 O786 2.500 . S
Nd761 O787 2.492 . S
Nd761 O788 2.487 . S
Nd761 O789 2.682 . S
Nd761 O790 2.410 . S
C762 Nd760 2.836 . S
C762 C763 1.498 . S
C762 O780 1.258 . S
C762 O781 1.239 . S
C763 C762 1.498 . S
C763 C764 1.366 . S
C763 C768 1.407 . S
C764 C763 1.366 . S
C764 C765 1.392 . S
C764 H792 0.930 . S
C765 C764 1.392 . S
C765 C766 1.398 . S
C765 H793 0.929 . S
C766 C765 1.398 . S
C766 C767 1.352 . S
C767 C766 1.352 . S
C767 C768 1.384 . S
C767 H794 0.930 . S
C768 C763 1.407 . S
C768 C767 1.384 . S
C768 H795 0.929 . S
C769 O782 1.241 . S
C769 O783 1.273 . S
C770 O784 1.251 . S
C770 O785 1.268 . S
C771 Nd761 2.836 . S
C771 C772 1.498 . S
C771 O786 1.258 . S
C771 O787 1.239 . S
C772 C771 1.498 . S
C772 C773 1.366 . S
C772 C777 1.407 . S
C773 C772 1.366 . S
C773 C774 1.392 . S
C773 H796 0.930 . S
C774 C773 1.392 . S
C774 C775 1.398 . S
C774 H797 0.929 . S
C775 C774 1.398 . S
C775 C776 1.352 . S
C776 C775 1.352 . S
C776 C777 1.384 . S
C776 H798 0.930 . S
C777 C772 1.407 . S
C777 C776 1.384 . S
C777 H799 0.929 . S
C778 O788 1.241 . S
C778 O789 1.273 . S
C779 O790 1.251 . S
C779 O791 1.268 . S
O780 Nd760 2.500 . S
O780 C762 1.258 . S
O781 Nd760 2.492 . S
O781 C762 1.239 . S
O782 Nd760 2.487 . S
O782 C769 1.241 . S
O783 Nd760 2.682 . S
O783 Nd761 2.414 . S
O783 C769 1.273 . S
O784 Nd760 2.410 . S
O784 C770 1.251 . S
O785 Nd761 2.424 . S
O785 C770 1.268 . S
O786 Nd761 2.500 . S
O786 C771 1.258 . S
O787 Nd761 2.492 . S
O787 C771 1.239 . S
O788 Nd761 2.487 . S
O788 C778 1.241 . S
O789 Nd760 2.414 . S
O789 Nd761 2.682 . S
O789 C778 1.273 . S
O790 Nd761 2.410 . S
O790 C779 1.251 . S
O791 Nd760 2.424 . S
O791 C779 1.268 . S
H792 C764 0.930 . S
H793 C765 0.929 . S
H794 C767 0.930 . S
H795 C768 0.929 . S
H796 C773 0.930 . S
H797 C774 0.929 . S
H798 C776 0.930 . S
H799 C777 0.929 . S
Nd800 C802 2.836 . S
Nd800 O820 2.500 . S
Nd800 O821 2.492 . S
Nd800 O822 2.487 . S
Nd800 O823 2.682 . S
Nd800 O824 2.410 . S
Nd800 O829 2.414 . S
Nd800 O831 2.424 . S
Nd801 C811 2.836 . S
Nd801 O823 2.414 . S
Nd801 O825 2.424 . S
Nd801 O826 2.500 . S
Nd801 O827 2.492 . S
Nd801 O828 2.487 . S
Nd801 O829 2.682 . S
Nd801 O830 2.410 . S
C802 Nd800 2.836 . S
C802 C803 1.498 . S
C802 O820 1.258 . S
C802 O821 1.239 . S
C803 C802 1.498 . S
C803 C804 1.366 . S
C803 C808 1.407 . S
C804 C803 1.366 . S
C804 C805 1.392 . S
C804 H832 0.930 . S
C805 C804 1.392 . S
C805 C806 1.398 . S
C805 H833 0.929 . S
C806 C805 1.398 . S
C806 C807 1.352 . S
C807 C806 1.352 . S
C807 C808 1.384 . S
C807 H834 0.930 . S
C808 C803 1.407 . S
C808 C807 1.384 . S
C808 H835 0.929 . S
C809 O822 1.241 . S
C809 O823 1.273 . S
C810 O824 1.251 . S
C810 O825 1.268 . S
C811 Nd801 2.836 . S
C811 C812 1.498 . S
C811 O826 1.258 . S
C811 O827 1.239 . S
C812 C811 1.498 . S
C812 C813 1.366 . S
C812 C817 1.407 . S
C813 C812 1.366 . S
C813 C814 1.392 . S
C813 H836 0.930 . S
C814 C813 1.392 . S
C814 C815 1.398 . S
C814 H837 0.929 . S
C815 C814 1.398 . S
C815 C816 1.352 . S
C816 C815 1.352 . S
C816 C817 1.384 . S
C816 H838 0.930 . S
C817 C812 1.407 . S
C817 C816 1.384 . S
C817 H839 0.929 . S
C818 O828 1.241 . S
C818 O829 1.273 . S
C819 O830 1.251 . S
C819 O831 1.268 . S
O820 Nd800 2.500 . S
O820 C802 1.258 . S
O821 Nd800 2.492 . S
O821 C802 1.239 . S
O822 Nd800 2.487 . S
O822 C809 1.241 . S
O823 Nd800 2.682 . S
O823 Nd801 2.414 . S
O823 C809 1.273 . S
O824 Nd800 2.410 . S
O824 C810 1.251 . S
O825 Nd801 2.424 . S
O825 C810 1.268 . S
O826 Nd801 2.500 . S
O826 C811 1.258 . S
O827 Nd801 2.492 . S
O827 C811 1.239 . S
O828 Nd801 2.487 . S
O828 C818 1.241 . S
O829 Nd800 2.414 . S
O829 Nd801 2.682 . S
O829 C818 1.273 . S
O830 Nd801 2.410 . S
O830 C819 1.251 . S
O831 Nd800 2.424 . S
O831 C819 1.268 . S
H832 C804 0.930 . S
H833 C805 0.929 . S
H834 C807 0.930 . S
H835 C808 0.929 . S
H836 C813 0.930 . S
H837 C814 0.929 . S
H838 C816 0.930 . S
H839 C817 0.929 . S
Nd840 C842 2.836 . S
Nd840 O860 2.500 . S
Nd840 O861 2.492 . S
Nd840 O862 2.487 . S
Nd840 O863 2.682 . S
Nd840 O864 2.410 . S
Nd840 O869 2.414 . S
Nd840 O871 2.424 . S
Nd841 C851 2.836 . S
Nd841 O863 2.414 . S
Nd841 O865 2.424 . S
Nd841 O866 2.500 . S
Nd841 O867 2.492 . S
Nd841 O868 2.487 . S
Nd841 O869 2.682 . S
Nd841 O870 2.410 . S
C842 Nd840 2.836 . S
C842 C843 1.498 . S
C842 O860 1.258 . S
C842 O861 1.239 . S
C843 C842 1.498 . S
C843 C844 1.366 . S
C843 C848 1.407 . S
C844 C843 1.366 . S
C844 C845 1.392 . S
C844 H872 0.930 . S
C845 C844 1.392 . S
C845 C846 1.398 . S
C845 H873 0.929 . S
C846 C845 1.398 . S
C846 C847 1.352 . S
C847 C846 1.352 . S
C847 C848 1.384 . S
C847 H874 0.930 . S
C848 C843 1.407 . S
C848 C847 1.384 . S
C848 H875 0.929 . S
C849 O862 1.241 . S
C849 O863 1.273 . S
C850 O864 1.251 . S
C850 O865 1.268 . S
C851 Nd841 2.836 . S
C851 C852 1.498 . S
C851 O866 1.258 . S
C851 O867 1.239 . S
C852 C851 1.498 . S
C852 C853 1.366 . S
C852 C857 1.407 . S
C853 C852 1.366 . S
C853 C854 1.392 . S
C853 H876 0.930 . S
C854 C853 1.392 . S
C854 C855 1.398 . S
C854 H877 0.929 . S
C855 C854 1.398 . S
C855 C856 1.352 . S
C856 C855 1.352 . S
C856 C857 1.384 . S
C856 H878 0.930 . S
C857 C852 1.407 . S
C857 C856 1.384 . S
C857 H879 0.929 . S
C858 O868 1.241 . S
C858 O869 1.273 . S
C859 O870 1.251 . S
C859 O871 1.268 . S
O860 Nd840 2.500 . S
O860 C842 1.258 . S
O861 Nd840 2.492 . S
O861 C842 1.239 . S
O862 Nd840 2.487 . S
O862 C849 1.241 . S
O863 Nd840 2.682 . S
O863 Nd841 2.414 . S
O863 C849 1.273 . S
O864 Nd840 2.410 . S
O864 C850 1.251 . S
O865 Nd841 2.424 . S
O865 C850 1.268 . S
O866 Nd841 2.500 . S
O866 C851 1.258 . S
O867 Nd841 2.492 . S
O867 C851 1.239 . S
O868 Nd841 2.487 . S
O868 C858 1.241 . S
O869 Nd840 2.414 . S
O869 Nd841 2.682 . S
O869 C858 1.273 . S
O870 Nd841 2.410 . S
O870 C859 1.251 . S
O871 Nd840 2.424 . S
O871 C859 1.268 . S
H872 C844 0.930 . S
H873 C845 0.929 . S
H874 C847 0.930 . S
H875 C848 0.929 . S
H876 C853 0.930 . S
H877 C854 0.929 . S
H878 C856 0.930 . S
H879 C857 0.929 . S
Nd880 C882 2.836 . S
Nd880 O900 2.481 1_655 S
Nd880 O901 2.492 . S
Nd880 O902 2.487 . S
Nd880 O903 2.682 . S
Nd880 O904 2.410 . S
Nd880 O909 2.414 . S
Nd880 O911 2.424 . S
Nd881 C891 2.836 . S
Nd881 O903 2.414 . S
Nd881 O905 2.424 . S
Nd881 O906 2.500 . S
Nd881 O907 2.492 . S
Nd881 O908 2.487 . S
Nd881 O909 2.682 . S
Nd881 O910 2.410 . S
C882 Nd880 2.836 . S
C882 C883 1.498 1_655 S
C882 O900 1.254 1_655 S
C882 O901 1.239 . S
C883 C882 1.498 1_455 S
C883 C884 1.366 . S
C883 C888 1.407 . S
C884 C883 1.366 . S
C884 C885 1.392 . S
C884 H912 0.930 . S
C885 C884 1.392 . S
C885 C886 1.398 . S
C885 H913 0.929 . S
C886 C885 1.398 . S
C886 C887 1.352 . S
C887 C886 1.352 . S
C887 C888 1.384 . S
C887 H914 0.930 . S
C888 C883 1.407 . S
C888 C887 1.384 . S
C888 H915 0.929 . S
C889 O902 1.241 . S
C889 O903 1.273 . S
C890 O904 1.251 . S
C890 O905 1.268 . S
C891 Nd881 2.836 . S
C891 C892 1.498 . S
C891 O906 1.258 . S
C891 O907 1.239 . S
C892 C891 1.498 . S
C892 C893 1.366 . S
C892 C897 1.407 . S
C893 C892 1.366 . S
C893 C894 1.392 . S
C893 H916 0.930 . S
C894 C893 1.392 . S
C894 C895 1.398 . S
C894 H917 0.929 . S
C895 C894 1.398 . S
C895 C896 1.352 . S
C896 C895 1.352 . S
C896 C897 1.384 . S
C896 H918 0.930 . S
C897 C892 1.407 . S
C897 C896 1.384 . S
C897 H919 0.929 . S
C898 O908 1.241 . S
C898 O909 1.273 . S
C899 O910 1.251 . S
C899 O911 1.268 . S
O900 Nd880 2.481 1_455 S
O900 C882 1.254 1_455 S
O901 Nd880 2.492 . S
O901 C882 1.239 . S
O902 Nd880 2.487 . S
O902 C889 1.241 . S
O903 Nd880 2.682 . S
O903 Nd881 2.414 . S
O903 C889 1.273 . S
O904 Nd880 2.410 . S
O904 C890 1.251 . S
O905 Nd881 2.424 . S
O905 C890 1.268 . S
O906 Nd881 2.500 . S
O906 C891 1.258 . S
O907 Nd881 2.492 . S
O907 C891 1.239 . S
O908 Nd881 2.487 . S
O908 C898 1.241 . S
O909 Nd880 2.414 . S
O909 Nd881 2.682 . S
O909 C898 1.273 . S
O910 Nd881 2.410 . S
O910 C899 1.251 . S
O911 Nd880 2.424 . S
O911 C899 1.268 . S
H912 C884 0.930 . S
H913 C885 0.929 . S
H914 C887 0.930 . S
H915 C888 0.929 . S
H916 C893 0.930 . S
H917 C894 0.929 . S
H918 C896 0.930 . S
H919 C897 0.929 . S
Nd920 C922 2.836 . S
Nd920 O940 2.500 . S
Nd920 O941 2.492 . S
Nd920 O942 2.487 . S
Nd920 O943 2.682 . S
Nd920 O944 2.410 . S
Nd920 O949 2.414 . S
Nd920 O951 2.424 . S
Nd921 C931 2.836 . S
Nd921 O943 2.414 . S
Nd921 O945 2.424 . S
Nd921 O946 2.500 . S
Nd921 O947 2.492 . S
Nd921 O948 2.487 . S
Nd921 O949 2.682 . S
Nd921 O950 2.410 . S
C922 Nd920 2.836 . S
C922 C923 1.498 . S
C922 O940 1.258 . S
C922 O941 1.239 . S
C923 C922 1.498 . S
C923 C924 1.366 . S
C923 C928 1.407 . S
C924 C923 1.366 . S
C924 C925 1.392 . S
C924 H952 0.930 . S
C925 C924 1.392 . S
C925 C926 1.398 . S
C925 H953 0.929 . S
C926 C925 1.398 . S
C926 C927 1.352 . S
C927 C926 1.352 . S
C927 C928 1.384 . S
C927 H954 0.930 . S
C928 C923 1.407 . S
C928 C927 1.384 . S
C928 H955 0.929 . S
C929 O942 1.241 . S
C929 O943 1.273 . S
C930 O944 1.251 . S
C930 O945 1.268 . S
C931 Nd921 2.836 . S
C931 C932 1.498 . S
C931 O946 1.258 . S
C931 O947 1.239 . S
C932 C931 1.498 . S
C932 C933 1.366 . S
C932 C937 1.407 . S
C933 C932 1.366 . S
C933 C934 1.392 . S
C933 H956 0.930 . S
C934 C933 1.392 . S
C934 C935 1.398 . S
C934 H957 0.929 . S
C935 C934 1.398 . S
C935 C936 1.352 . S
C936 C935 1.352 . S
C936 C937 1.384 . S
C936 H958 0.930 . S
C937 C932 1.407 . S
C937 C936 1.384 . S
C937 H959 0.929 . S
C938 O948 1.241 . S
C938 O949 1.273 . S
C939 O950 1.251 . S
C939 O951 1.268 . S
O940 Nd920 2.500 . S
O940 C922 1.258 . S
O941 Nd920 2.492 . S
O941 C922 1.239 . S
O942 Nd920 2.487 . S
O942 C929 1.241 . S
O943 Nd920 2.682 . S
O943 Nd921 2.414 . S
O943 C929 1.273 . S
O944 Nd920 2.410 . S
O944 C930 1.251 . S
O945 Nd921 2.424 . S
O945 C930 1.268 . S
O946 Nd921 2.500 . S
O946 C931 1.258 . S
O947 Nd921 2.492 . S
O947 C931 1.239 . S
O948 Nd921 2.487 . S
O948 C938 1.241 . S
O949 Nd920 2.414 . S
O949 Nd921 2.682 . S
O949 C938 1.273 . S
O950 Nd921 2.410 . S
O950 C939 1.251 . S
O951 Nd920 2.424 . S
O951 C939 1.268 . S
H952 C924 0.930 . S
H953 C925 0.929 . S
H954 C927 0.930 . S
H955 C928 0.929 . S
H956 C933 0.930 . S
H957 C934 0.929 . S
H958 C936 0.930 . S
H959 C937 0.929 . S
Nd960 C962 2.836 . S
Nd960 O980 2.500 . S
Nd960 O981 2.492 . S
Nd960 O982 2.487 . S
Nd960 O983 2.682 . S
Nd960 O984 2.410 . S
Nd960 O989 2.414 . S
Nd960 O991 2.424 . S
Nd961 C971 2.836 . S
Nd961 O983 2.414 . S
Nd961 O985 2.424 . S
Nd961 O986 2.500 . S
Nd961 O987 2.492 . S
Nd961 O988 2.487 . S
Nd961 O989 2.682 . S
Nd961 O990 2.410 . S
C962 Nd960 2.836 . S
C962 C963 1.498 . S
C962 O980 1.258 . S
C962 O981 1.239 . S
C963 C962 1.498 . S
C963 C964 1.366 . S
C963 C968 1.407 . S
C964 C963 1.366 . S
C964 C965 1.392 . S
C964 H992 0.930 . S
C965 C964 1.392 . S
C965 C966 1.398 . S
C965 H993 0.929 . S
C966 C965 1.398 . S
C966 C967 1.352 . S
C967 C966 1.352 . S
C967 C968 1.384 . S
C967 H994 0.930 . S
C968 C963 1.407 . S
C968 C967 1.384 . S
C968 H995 0.929 . S
C969 O982 1.241 . S
C969 O983 1.273 . S
C970 O984 1.251 . S
C970 O985 1.268 . S
C971 Nd961 2.836 . S
C971 C972 1.498 . S
C971 O986 1.258 . S
C971 O987 1.239 . S
C972 C971 1.498 . S
C972 C973 1.366 . S
C972 C977 1.407 . S
C973 C972 1.366 . S
C973 C974 1.392 . S
C973 H996 0.930 . S
C974 C973 1.392 . S
C974 C975 1.398 . S
C974 H997 0.929 . S
C975 C974 1.398 . S
C975 C976 1.352 . S
C976 C975 1.352 . S
C976 C977 1.384 . S
C976 H998 0.930 . S
C977 C972 1.407 . S
C977 C976 1.384 . S
C977 H999 0.929 . S
C978 O988 1.241 . S
C978 O989 1.273 . S
C979 O990 1.251 . S
C979 O991 1.268 . S
O980 Nd960 2.500 . S
O980 C962 1.258 . S
O981 Nd960 2.492 . S
O981 C962 1.239 . S
O982 Nd960 2.487 . S
O982 C969 1.241 . S
O983 Nd960 2.682 . S
O983 Nd961 2.414 . S
O983 C969 1.273 . S
O984 Nd960 2.410 . S
O984 C970 1.251 . S
O985 Nd961 2.424 . S
O985 C970 1.268 . S
O986 Nd961 2.500 . S
O986 C971 1.258 . S
O987 Nd961 2.492 . S
O987 C971 1.239 . S
O988 Nd961 2.487 . S
O988 C978 1.241 . S
O989 Nd960 2.414 . S
O989 Nd961 2.682 . S
O989 C978 1.273 . S
O990 Nd961 2.410 . S
O990 C979 1.251 . S
O991 Nd960 2.424 . S
O991 C979 1.268 . S
H992 C964 0.930 . S
H993 C965 0.929 . S
H994 C967 0.930 . S
H995 C968 0.929 . S
H996 C973 0.930 . S
H997 C974 0.929 . S
H998 C976 0.930 . S
H999 C977 0.929 . S
Nd1000 C1002 2.836 . S
Nd1000 O1020 2.500 . S
Nd1000 O1021 2.492 . S
Nd1000 O1022 2.487 . S
Nd1000 O1023 2.682 . S
Nd1000 O1024 2.410 . S
Nd1000 O1029 2.414 . S
Nd1000 O1031 2.424 . S
Nd1001 C1011 2.836 . S
Nd1001 O1023 2.414 . S
Nd1001 O1025 2.424 . S
Nd1001 O1026 2.500 . S
Nd1001 O1027 2.492 . S
Nd1001 O1028 2.487 . S
Nd1001 O1029 2.682 . S
Nd1001 O1030 2.410 . S
C1002 Nd1000 2.836 . S
C1002 C1003 1.498 . S
C1002 O1020 1.258 . S
C1002 O1021 1.239 . S
C1003 C1002 1.498 . S
C1003 C1004 1.366 . S
C1003 C1008 1.407 . S
C1004 C1003 1.366 . S
C1004 C1005 1.392 . S
C1004 H1032 0.930 . S
C1005 C1004 1.392 . S
C1005 C1006 1.398 . S
C1005 H1033 0.929 . S
C1006 C1005 1.398 . S
C1006 C1007 1.352 . S
C1007 C1006 1.352 . S
C1007 C1008 1.384 . S
C1007 H1034 0.930 . S
C1008 C1003 1.407 . S
C1008 C1007 1.384 . S
C1008 H1035 0.929 . S
C1009 O1022 1.241 . S
C1009 O1023 1.273 . S
C1010 O1024 1.251 . S
C1010 O1025 1.268 . S
C1011 Nd1001 2.836 . S
C1011 C1012 1.498 . S
C1011 O1026 1.258 . S
C1011 O1027 1.239 . S
C1012 C1011 1.498 . S
C1012 C1013 1.366 . S
C1012 C1017 1.407 . S
C1013 C1012 1.366 . S
C1013 C1014 1.392 . S
C1013 H1036 0.930 . S
C1014 C1013 1.392 . S
C1014 C1015 1.398 . S
C1014 H1037 0.929 . S
C1015 C1014 1.398 . S
C1015 C1016 1.352 . S
C1016 C1015 1.352 . S
C1016 C1017 1.384 . S
C1016 H1038 0.930 . S
C1017 C1012 1.407 . S
C1017 C1016 1.384 . S
C1017 H1039 0.929 . S
C1018 O1028 1.241 . S
C1018 O1029 1.273 . S
C1019 O1030 1.251 . S
C1019 O1031 1.268 . S
O1020 Nd1000 2.500 . S
O1020 C1002 1.258 . S
O1021 Nd1000 2.492 . S
O1021 C1002 1.239 . S
O1022 Nd1000 2.487 . S
O1022 C1009 1.241 . S
O1023 Nd1000 2.682 . S
O1023 Nd1001 2.414 . S
O1023 C1009 1.273 . S
O1024 Nd1000 2.410 . S
O1024 C1010 1.251 . S
O1025 Nd1001 2.424 . S
O1025 C1010 1.268 . S
O1026 Nd1001 2.500 . S
O1026 C1011 1.258 . S
O1027 Nd1001 2.492 . S
O1027 C1011 1.239 . S
O1028 Nd1001 2.487 . S
O1028 C1018 1.241 . S
O1029 Nd1000 2.414 . S
O1029 Nd1001 2.682 . S
O1029 C1018 1.273 . S
O1030 Nd1001 2.410 . S
O1030 C1019 1.251 . S
O1031 Nd1000 2.424 . S
O1031 C1019 1.268 . S
H1032 C1004 0.930 . S
H1033 C1005 0.929 . S
H1034 C1007 0.930 . S
H1035 C1008 0.929 . S
H1036 C1013 0.930 . S
H1037 C1014 0.929 . S
H1038 C1016 0.930 . S
H1039 C1017 0.929 . S
Nd1040 C1042 2.836 . S
Nd1040 O1060 2.500 . S
Nd1040 O1061 2.492 . S
Nd1040 O1062 2.487 . S
Nd1040 O1063 2.682 . S
Nd1040 O1064 2.410 . S
Nd1040 O1069 2.414 . S
Nd1040 O1071 2.424 . S
Nd1041 C1051 2.836 . S
Nd1041 O1063 2.414 . S
Nd1041 O1065 2.424 . S
Nd1041 O1066 2.481 1_455 S
Nd1041 O1067 2.492 . S
Nd1041 O1068 2.487 . S
Nd1041 O1069 2.682 . S
Nd1041 O1070 2.410 . S
C1042 Nd1040 2.836 . S
C1042 C1043 1.498 . S
C1042 O1060 1.258 . S
C1042 O1061 1.239 . S
C1043 C1042 1.498 . S
C1043 C1044 1.366 . S
C1043 C1048 1.407 . S
C1044 C1043 1.366 . S
C1044 C1045 1.392 . S
C1044 H1072 0.930 . S
C1045 C1044 1.392 . S
C1045 C1046 1.398 . S
C1045 H1073 0.929 . S
C1046 C1045 1.398 . S
C1046 C1047 1.352 . S
C1047 C1046 1.352 . S
C1047 C1048 1.384 . S
C1047 H1074 0.930 . S
C1048 C1043 1.407 . S
C1048 C1047 1.384 . S
C1048 H1075 0.929 . S
C1049 O1062 1.241 . S
C1049 O1063 1.273 . S
C1050 O1064 1.251 . S
C1050 O1065 1.268 . S
C1051 Nd1041 2.836 . S
C1051 C1052 1.498 1_455 S
C1051 O1066 1.254 1_455 S
C1051 O1067 1.239 . S
C1052 C1051 1.498 1_655 S
C1052 C1053 1.366 . S
C1052 C1057 1.407 . S
C1053 C1052 1.366 . S
C1053 C1054 1.392 . S
C1053 H1076 0.930 . S
C1054 C1053 1.392 . S
C1054 C1055 1.398 . S
C1054 H1077 0.929 . S
C1055 C1054 1.398 . S
C1055 C1056 1.352 . S
C1056 C1055 1.352 . S
C1056 C1057 1.384 . S
C1056 H1078 0.930 . S
C1057 C1052 1.407 . S
C1057 C1056 1.384 . S
C1057 H1079 0.929 . S
C1058 O1068 1.241 . S
C1058 O1069 1.273 . S
C1059 O1070 1.251 . S
C1059 O1071 1.268 . S
O1060 Nd1040 2.500 . S
O1060 C1042 1.258 . S
O1061 Nd1040 2.492 . S
O1061 C1042 1.239 . S
O1062 Nd1040 2.487 . S
O1062 C1049 1.241 . S
O1063 Nd1040 2.682 . S
O1063 Nd1041 2.414 . S
O1063 C1049 1.273 . S
O1064 Nd1040 2.410 . S
O1064 C1050 1.251 . S
O1065 Nd1041 2.424 . S
O1065 C1050 1.268 . S
O1066 Nd1041 2.481 1_655 S
O1066 C1051 1.254 1_655 S
O1067 Nd1041 2.492 . S
O1067 C1051 1.239 . S
O1068 Nd1041 2.487 . S
O1068 C1058 1.241 . S
O1069 Nd1040 2.414 . S
O1069 Nd1041 2.682 . S
O1069 C1058 1.273 . S
O1070 Nd1041 2.410 . S
O1070 C1059 1.251 . S
O1071 Nd1040 2.424 . S
O1071 C1059 1.268 . S
H1072 C1044 0.930 . S
H1073 C1045 0.929 . S
H1074 C1047 0.930 . S
H1075 C1048 0.929 . S
H1076 C1053 0.930 . S
H1077 C1054 0.929 . S
H1078 C1056 0.930 . S
H1079 C1057 0.929 . S
Nd1080 C1082 2.836 . S
Nd1080 O1100 2.500 . S
Nd1080 O1101 2.492 . S
Nd1080 O1102 2.487 . S
Nd1080 O1103 2.682 . S
Nd1080 O1104 2.410 . S
Nd1080 O1109 2.414 . S
Nd1080 O1111 2.424 . S
Nd1081 C1091 2.836 . S
Nd1081 O1103 2.414 . S
Nd1081 O1105 2.424 . S
Nd1081 O1106 2.500 . S
Nd1081 O1107 2.492 . S
Nd1081 O1108 2.487 . S
Nd1081 O1109 2.682 . S
Nd1081 O1110 2.410 . S
C1082 Nd1080 2.836 . S
C1082 C1083 1.498 . S
C1082 O1100 1.258 . S
C1082 O1101 1.239 . S
C1083 C1082 1.498 . S
C1083 C1084 1.366 . S
C1083 C1088 1.407 . S
C1084 C1083 1.366 . S
C1084 C1085 1.392 . S
C1084 H1112 0.930 . S
C1085 C1084 1.392 . S
C1085 C1086 1.398 . S
C1085 H1113 0.929 . S
C1086 C1085 1.398 . S
C1086 C1087 1.352 . S
C1087 C1086 1.352 . S
C1087 C1088 1.384 . S
C1087 H1114 0.930 . S
C1088 C1083 1.407 . S
C1088 C1087 1.384 . S
C1088 H1115 0.929 . S
C1089 O1102 1.241 . S
C1089 O1103 1.273 . S
C1090 O1104 1.251 . S
C1090 O1105 1.268 . S
C1091 Nd1081 2.836 . S
C1091 C1092 1.498 . S
C1091 O1106 1.258 . S
C1091 O1107 1.239 . S
C1092 C1091 1.498 . S
C1092 C1093 1.366 . S
C1092 C1097 1.407 . S
C1093 C1092 1.366 . S
C1093 C1094 1.392 . S
C1093 H1116 0.930 . S
C1094 C1093 1.392 . S
C1094 C1095 1.398 . S
C1094 H1117 0.929 . S
C1095 C1094 1.398 . S
C1095 C1096 1.352 . S
C1096 C1095 1.352 . S
C1096 C1097 1.384 . S
C1096 H1118 0.930 . S
C1097 C1092 1.407 . S
C1097 C1096 1.384 . S
C1097 H1119 0.929 . S
C1098 O1108 1.241 . S
C1098 O1109 1.273 . S
C1099 O1110 1.251 . S
C1099 O1111 1.268 . S
O1100 Nd1080 2.500 . S
O1100 C1082 1.258 . S
O1101 Nd1080 2.492 . S
O1101 C1082 1.239 . S
O1102 Nd1080 2.487 . S
O1102 C1089 1.241 . S
O1103 Nd1080 2.682 . S
O1103 Nd1081 2.414 . S
O1103 C1089 1.273 . S
O1104 Nd1080 2.410 . S
O1104 C1090 1.251 . S
O1105 Nd1081 2.424 . S
O1105 C1090 1.268 . S
O1106 Nd1081 2.500 . S
O1106 C1091 1.258 . S
O1107 Nd1081 2.492 . S
O1107 C1091 1.239 . S
O1108 Nd1081 2.487 . S
O1108 C1098 1.241 . S
O1109 Nd1080 2.414 . S
O1109 Nd1081 2.682 . S
O1109 C1098 1.273 . S
O1110 Nd1081 2.410 . S
O1110 C1099 1.251 . S
O1111 Nd1080 2.424 . S
O1111 C1099 1.268 . S
H1112 C1084 0.930 . S
H1113 C1085 0.929 . S
H1114 C1087 0.930 . S
H1115 C1088 0.929 . S
H1116 C1093 0.930 . S
H1117 C1094 0.929 . S
H1118 C1096 0.930 . S
H1119 C1097 0.929 . S
Nd1120 C1122 2.836 . S
Nd1120 O1140 2.500 . S
Nd1120 O1141 2.492 . S
Nd1120 O1142 2.487 . S
Nd1120 O1143 2.682 . S
Nd1120 O1144 2.410 . S
Nd1120 O1149 2.414 . S
Nd1120 O1151 2.424 . S
Nd1121 C1131 2.836 . S
Nd1121 O1143 2.414 . S
Nd1121 O1145 2.424 . S
Nd1121 O1146 2.500 . S
Nd1121 O1147 2.492 . S
Nd1121 O1148 2.487 . S
Nd1121 O1149 2.682 . S
Nd1121 O1150 2.410 . S
C1122 Nd1120 2.836 . S
C1122 C1123 1.498 . S
C1122 O1140 1.258 . S
C1122 O1141 1.239 . S
C1123 C1122 1.498 . S
C1123 C1124 1.366 . S
C1123 C1128 1.407 . S
C1124 C1123 1.366 . S
C1124 C1125 1.392 . S
C1124 H1152 0.930 . S
C1125 C1124 1.392 . S
C1125 C1126 1.398 . S
C1125 H1153 0.929 . S
C1126 C1125 1.398 . S
C1126 C1127 1.352 . S
C1127 C1126 1.352 . S
C1127 C1128 1.384 . S
C1127 H1154 0.930 . S
C1128 C1123 1.407 . S
C1128 C1127 1.384 . S
C1128 H1155 0.929 . S
C1129 O1142 1.241 . S
C1129 O1143 1.273 . S
C1130 O1144 1.251 . S
C1130 O1145 1.268 . S
C1131 Nd1121 2.836 . S
C1131 C1132 1.498 . S
C1131 O1146 1.258 . S
C1131 O1147 1.239 . S
C1132 C1131 1.498 . S
C1132 C1133 1.366 . S
C1132 C1137 1.407 . S
C1133 C1132 1.366 . S
C1133 C1134 1.392 . S
C1133 H1156 0.930 . S
C1134 C1133 1.392 . S
C1134 C1135 1.398 . S
C1134 H1157 0.929 . S
C1135 C1134 1.398 . S
C1135 C1136 1.352 . S
C1136 C1135 1.352 . S
C1136 C1137 1.384 . S
C1136 H1158 0.930 . S
C1137 C1132 1.407 . S
C1137 C1136 1.384 . S
C1137 H1159 0.929 . S
C1138 O1148 1.241 . S
C1138 O1149 1.273 . S
C1139 O1150 1.251 . S
C1139 O1151 1.268 . S
O1140 Nd1120 2.500 . S
O1140 C1122 1.258 . S
O1141 Nd1120 2.492 . S
O1141 C1122 1.239 . S
O1142 Nd1120 2.487 . S
O1142 C1129 1.241 . S
O1143 Nd1120 2.682 . S
O1143 Nd1121 2.414 . S
O1143 C1129 1.273 . S
O1144 Nd1120 2.410 . S
O1144 C1130 1.251 . S
O1145 Nd1121 2.424 . S
O1145 C1130 1.268 . S
O1146 Nd1121 2.500 . S
O1146 C1131 1.258 . S
O1147 Nd1121 2.492 . S
O1147 C1131 1.239 . S
O1148 Nd1121 2.487 . S
O1148 C1138 1.241 . S
O1149 Nd1120 2.414 . S
O1149 Nd1121 2.682 . S
O1149 C1138 1.273 . S
O1150 Nd1121 2.410 . S
O1150 C1139 1.251 . S
O1151 Nd1120 2.424 . S
O1151 C1139 1.268 . S
H1152 C1124 0.930 . S
H1153 C1125 0.929 . S
H1154 C1127 0.930 . S
H1155 C1128 0.929 . S
H1156 C1133 0.930 . S
H1157 C1134 0.929 . S
H1158 C1136 0.930 . S
H1159 C1137 0.929 . S
Nd1160 C1162 2.836 . S
Nd1160 O1180 2.500 . S
Nd1160 O1181 2.492 . S
Nd1160 O1182 2.487 . S
Nd1160 O1183 2.682 . S
Nd1160 O1184 2.410 . S
Nd1160 O1189 2.414 . S
Nd1160 O1191 2.424 . S
Nd1161 C1171 2.836 . S
Nd1161 O1183 2.414 . S
Nd1161 O1185 2.424 . S
Nd1161 O1186 2.500 . S
Nd1161 O1187 2.492 . S
Nd1161 O1188 2.487 . S
Nd1161 O1189 2.682 . S
Nd1161 O1190 2.410 . S
C1162 Nd1160 2.836 . S
C1162 C1163 1.498 . S
C1162 O1180 1.258 . S
C1162 O1181 1.239 . S
C1163 C1162 1.498 . S
C1163 C1164 1.366 . S
C1163 C1168 1.407 . S
C1164 C1163 1.366 . S
C1164 C1165 1.392 . S
C1164 H1192 0.930 . S
C1165 C1164 1.392 . S
C1165 C1166 1.398 . S
C1165 H1193 0.929 . S
C1166 C1165 1.398 . S
C1166 C1167 1.352 . S
C1167 C1166 1.352 . S
C1167 C1168 1.384 . S
C1167 H1194 0.930 . S
C1168 C1163 1.407 . S
C1168 C1167 1.384 . S
C1168 H1195 0.929 . S
C1169 O1182 1.241 . S
C1169 O1183 1.273 . S
C1170 O1184 1.251 . S
C1170 O1185 1.268 . S
C1171 Nd1161 2.836 . S
C1171 C1172 1.498 . S
C1171 O1186 1.258 . S
C1171 O1187 1.239 . S
C1172 C1171 1.498 . S
C1172 C1173 1.366 . S
C1172 C1177 1.407 . S
C1173 C1172 1.366 . S
C1173 C1174 1.392 . S
C1173 H1196 0.930 . S
C1174 C1173 1.392 . S
C1174 C1175 1.398 . S
C1174 H1197 0.929 . S
C1175 C1174 1.398 . S
C1175 C1176 1.352 . S
C1176 C1175 1.352 . S
C1176 C1177 1.384 . S
C1176 H1198 0.930 . S
C1177 C1172 1.407 . S
C1177 C1176 1.384 . S
C1177 H1199 0.929 . S
C1178 O1188 1.241 . S
C1178 O1189 1.273 . S
C1179 O1190 1.251 . S
C1179 O1191 1.268 . S
O1180 Nd1160 2.500 . S
O1180 C1162 1.258 . S
O1181 Nd1160 2.492 . S
O1181 C1162 1.239 . S
O1182 Nd1160 2.487 . S
O1182 C1169 1.241 . S
O1183 Nd1160 2.682 . S
O1183 Nd1161 2.414 . S
O1183 C1169 1.273 . S
O1184 Nd1160 2.410 . S
O1184 C1170 1.251 . S
O1185 Nd1161 2.424 . S
O1185 C1170 1.268 . S
O1186 Nd1161 2.500 . S
O1186 C1171 1.258 . S
O1187 Nd1161 2.492 . S
O1187 C1171 1.239 . S
O1188 Nd1161 2.487 . S
O1188 C1178 1.241 . S
O1189 Nd1160 2.414 . S
O1189 Nd1161 2.682 . S
O1189 C1178 1.273 . S
O1190 Nd1161 2.410 . S
O1190 C1179 1.251 . S
O1191 Nd1160 2.424 . S
O1191 C1179 1.268 . S
H1192 C1164 0.930 . S
H1193 C1165 0.929 . S
H1194 C1167 0.930 . S
H1195 C1168 0.929 . S
H1196 C1173 0.930 . S
H1197 C1174 0.929 . S
H1198 C1176 0.930 . S
H1199 C1177 0.929 . S
Nd1200 C1202 2.836 . S
Nd1200 O1220 2.500 . S
Nd1200 O1221 2.492 . S
Nd1200 O1222 2.487 . S
Nd1200 O1223 2.682 . S
Nd1200 O1224 2.410 . S
Nd1200 O1229 2.414 . S
Nd1200 O1231 2.424 . S
Nd1201 C1211 2.836 . S
Nd1201 O1223 2.414 . S
Nd1201 O1225 2.424 . S
Nd1201 O1226 2.481 1_455 S
Nd1201 O1227 2.492 . S
Nd1201 O1228 2.487 . S
Nd1201 O1229 2.682 . S
Nd1201 O1230 2.410 . S
C1202 Nd1200 2.836 . S
C1202 C1203 1.498 . S
C1202 O1220 1.258 . S
C1202 O1221 1.239 . S
C1203 C1202 1.498 . S
C1203 C1204 1.366 . S
C1203 C1208 1.407 . S
C1204 C1203 1.366 . S
C1204 C1205 1.392 . S
C1204 H1232 0.930 . S
C1205 C1204 1.392 . S
C1205 C1206 1.398 . S
C1205 H1233 0.929 . S
C1206 C1205 1.398 . S
C1206 C1207 1.352 . S
C1207 C1206 1.352 . S
C1207 C1208 1.384 . S
C1207 H1234 0.930 . S
C1208 C1203 1.407 . S
C1208 C1207 1.384 . S
C1208 H1235 0.929 . S
C1209 O1222 1.241 . S
C1209 O1223 1.273 . S
C1210 O1224 1.251 . S
C1210 O1225 1.268 . S
C1211 Nd1201 2.836 . S
C1211 C1212 1.498 1_455 S
C1211 O1226 1.254 1_455 S
C1211 O1227 1.239 . S
C1212 C1211 1.498 1_655 S
C1212 C1213 1.366 . S
C1212 C1217 1.407 . S
C1213 C1212 1.366 . S
C1213 C1214 1.392 . S
C1213 H1236 0.930 . S
C1214 C1213 1.392 . S
C1214 C1215 1.398 . S
C1214 H1237 0.929 . S
C1215 C1214 1.398 . S
C1215 C1216 1.352 . S
C1216 C1215 1.352 . S
C1216 C1217 1.384 . S
C1216 H1238 0.930 . S
C1217 C1212 1.407 . S
C1217 C1216 1.384 . S
C1217 H1239 0.929 . S
C1218 O1228 1.241 . S
C1218 O1229 1.273 . S
C1219 O1230 1.251 . S
C1219 O1231 1.268 . S
O1220 Nd1200 2.500 . S
O1220 C1202 1.258 . S
O1221 Nd1200 2.492 . S
O1221 C1202 1.239 . S
O1222 Nd1200 2.487 . S
O1222 C1209 1.241 . S
O1223 Nd1200 2.682 . S
O1223 Nd1201 2.414 . S
O1223 C1209 1.273 . S
O1224 Nd1200 2.410 . S
O1224 C1210 1.251 . S
O1225 Nd1201 2.424 . S
O1225 C1210 1.268 . S
O1226 Nd1201 2.481 1_655 S
O1226 C1211 1.254 1_655 S
O1227 Nd1201 2.492 . S
O1227 C1211 1.239 . S
O1228 Nd1201 2.487 . S
O1228 C1218 1.241 . S
O1229 Nd1200 2.414 . S
O1229 Nd1201 2.682 . S
O1229 C1218 1.273 . S
O1230 Nd1201 2.410 . S
O1230 C1219 1.251 . S
O1231 Nd1200 2.424 . S
O1231 C1219 1.268 . S
H1232 C1204 0.930 . S
H1233 C1205 0.929 . S
H1234 C1207 0.930 . S
H1235 C1208 0.929 . S
H1236 C1213 0.930 . S
H1237 C1214 0.929 . S
H1238 C1216 0.930 . S
H1239 C1217 0.929 . S
Nd1240 C1242 2.836 . S
Nd1240 O1260 2.500 . S
Nd1240 O1261 2.492 . S
Nd1240 O1262 2.487 . S
Nd1240 O1263 2.682 . S
Nd1240 O1264 2.410 . S
Nd1240 O1269 2.414 . S
Nd1240 O1271 2.424 . S
Nd1241 C1251 2.836 . S
Nd1241 O1263 2.414 . S
Nd1241 O1265 2.424 . S
Nd1241 O1266 2.500 . S
Nd1241 O1267 2.492 . S
Nd1241 O1268 2.487 . S
Nd1241 O1269 2.682 . S
Nd1241 O1270 2.410 . S
C1242 Nd1240 2.836 . S
C1242 C1243 1.498 . S
C1242 O1260 1.258 . S
C1242 O1261 1.239 . S
C1243 C1242 1.498 . S
C1243 C1244 1.366 . S
C1243 C1248 1.407 . S
C1244 C1243 1.366 . S
C1244 C1245 1.392 . S
C1244 H1272 0.930 . S
C1245 C1244 1.392 . S
C1245 C1246 1.398 . S
C1245 H1273 0.929 . S
C1246 C1245 1.398 . S
C1246 C1247 1.352 . S
C1247 C1246 1.352 . S
C1247 C1248 1.384 . S
C1247 H1274 0.930 . S
C1248 C1243 1.407 . S
C1248 C1247 1.384 . S
C1248 H1275 0.929 . S
C1249 O1262 1.241 . S
C1249 O1263 1.273 . S
C1250 O1264 1.251 . S
C1250 O1265 1.268 . S
C1251 Nd1241 2.836 . S
C1251 C1252 1.498 . S
C1251 O1266 1.258 . S
C1251 O1267 1.239 . S
C1252 C1251 1.498 . S
C1252 C1253 1.366 . S
C1252 C1257 1.407 . S
C1253 C1252 1.366 . S
C1253 C1254 1.392 . S
C1253 H1276 0.930 . S
C1254 C1253 1.392 . S
C1254 C1255 1.398 . S
C1254 H1277 0.929 . S
C1255 C1254 1.398 . S
C1255 C1256 1.352 . S
C1256 C1255 1.352 . S
C1256 C1257 1.384 . S
C1256 H1278 0.930 . S
C1257 C1252 1.407 . S
C1257 C1256 1.384 . S
C1257 H1279 0.929 . S
C1258 O1268 1.241 . S
C1258 O1269 1.273 . S
C1259 O1270 1.251 . S
C1259 O1271 1.268 . S
O1260 Nd1240 2.500 . S
O1260 C1242 1.258 . S
O1261 Nd1240 2.492 . S
O1261 C1242 1.239 . S
O1262 Nd1240 2.487 . S
O1262 C1249 1.241 . S
O1263 Nd1240 2.682 . S
O1263 Nd1241 2.414 . S
O1263 C1249 1.273 . S
O1264 Nd1240 2.410 . S
O1264 C1250 1.251 . S
O1265 Nd1241 2.424 . S
O1265 C1250 1.268 . S
O1266 Nd1241 2.500 . S
O1266 C1251 1.258 . S
O1267 Nd1241 2.492 . S
O1267 C1251 1.239 . S
O1268 Nd1241 2.487 . S
O1268 C1258 1.241 . S
O1269 Nd1240 2.414 . S
O1269 Nd1241 2.682 . S
O1269 C1258 1.273 . S
O1270 Nd1241 2.410 . S
O1270 C1259 1.251 . S
O1271 Nd1240 2.424 . S
O1271 C1259 1.268 . S
H1272 C1244 0.930 . S
H1273 C1245 0.929 . S
H1274 C1247 0.930 . S
H1275 C1248 0.929 . S
H1276 C1253 0.930 . S
H1277 C1254 0.929 . S
H1278 C1256 0.930 . S
H1279 C1257 0.929 . S
C1280 C1281 1.363 . S
C1280 C1286 1.379 . S
C1280 N1288 1.356 . S
C1281 C1280 1.363 . S
C1281 C1287 1.363 . S
C1282 C1283 1.363 . S
C1282 C1287 1.379 . S
C1282 N1289 1.356 . S
C1283 C1282 1.363 . S
C1283 C1286 1.363 . S
N1284 C1286 1.356 . S
N1284 H1296 0.984 . S
N1284 H1297 0.985 . S
N1285 C1287 1.356 . S
N1285 H1290 0.984 . S
N1285 H1291 0.985 . S
C1286 C1280 1.379 . S
C1286 C1283 1.363 . S
C1286 N1284 1.356 . S
C1287 C1281 1.363 . S
C1287 C1282 1.379 . S
C1287 N1285 1.356 . S
N1288 C1280 1.356 . S
N1288 H1294 0.984 . S
N1288 H1295 0.984 . S
N1289 C1282 1.356 . S
N1289 H1292 0.984 . S
N1289 H1293 0.985 . S
H1290 N1285 0.984 . S
H1291 N1285 0.985 . S
H1292 N1289 0.984 . S
H1293 N1289 0.985 . S
H1294 N1288 0.984 . S
H1295 N1288 0.984 . S
H1296 N1284 0.984 . S
H1297 N1284 0.985 . S
C1298 C1299 1.363 . S
C1298 C1304 1.379 . S
C1298 N1306 1.356 . S
C1299 C1298 1.363 . S
C1299 C1305 1.363 . S
C1300 C1301 1.363 . S
C1300 C1305 1.379 . S
C1300 N1307 1.356 . S
C1301 C1300 1.363 . S
C1301 C1304 1.363 . S
N1302 C1304 1.356 . S
N1302 H1314 0.984 . S
N1302 H1315 0.985 . S
N1303 C1305 1.356 . S
N1303 H1308 0.984 . S
N1303 H1309 0.985 . S
C1304 C1298 1.379 . S
C1304 C1301 1.363 . S
C1304 N1302 1.356 . S
C1305 C1299 1.363 . S
C1305 C1300 1.379 . S
C1305 N1303 1.356 . S
N1306 C1298 1.356 . S
N1306 H1312 0.984 . S
N1306 H1313 0.984 . S
N1307 C1300 1.356 . S
N1307 H1310 0.984 . S
N1307 H1311 0.985 . S
H1308 N1303 0.984 . S
H1309 N1303 0.985 . S
H1310 N1307 0.984 . S
H1311 N1307 0.985 . S
H1312 N1306 0.984 . S
H1313 N1306 0.984 . S
H1314 N1302 0.984 . S
H1315 N1302 0.985 . S
C1316 C1317 1.363 . S
C1316 C1322 1.379 . S
C1316 N1324 1.356 . S
C1317 C1316 1.363 . S
C1317 C1323 1.363 . S
C1318 C1319 1.363 . S
C1318 C1323 1.379 . S
C1318 N1325 1.356 . S
C1319 C1318 1.363 . S
C1319 C1322 1.363 . S
N1320 C1322 1.356 . S
N1320 H1332 0.984 . S
N1320 H1333 0.985 . S
N1321 C1323 1.356 . S
N1321 H1326 0.984 . S
N1321 H1327 0.985 . S
C1322 C1316 1.379 . S
C1322 C1319 1.363 . S
C1322 N1320 1.356 . S
C1323 C1317 1.363 . S
C1323 C1318 1.379 . S
C1323 N1321 1.356 . S
N1324 C1316 1.356 . S
N1324 H1330 0.984 . S
N1324 H1331 0.984 . S
N1325 C1318 1.356 . S
N1325 H1328 0.984 . S
N1325 H1329 0.985 . S
H1326 N1321 0.984 . S
H1327 N1321 0.985 . S
H1328 N1325 0.984 . S
H1329 N1325 0.985 . S
H1330 N1324 0.984 . S
H1331 N1324 0.984 . S
H1332 N1320 0.984 . S
H1333 N1320 0.985 . S
C1334 C1335 1.363 . S
C1334 C1340 1.379 . S
C1334 N1342 1.356 . S
C1335 C1334 1.363 . S
C1335 C1341 1.363 . S
C1336 C1337 1.363 . S
C1336 C1341 1.379 . S
C1336 N1343 1.356 . S
C1337 C1336 1.363 . S
C1337 C1340 1.363 . S
N1338 C1340 1.356 . S
N1338 H1350 0.984 . S
N1338 H1351 0.985 . S
N1339 C1341 1.356 . S
N1339 H1344 0.984 . S
N1339 H1345 0.985 . S
C1340 C1334 1.379 . S
C1340 C1337 1.363 . S
C1340 N1338 1.356 . S
C1341 C1335 1.363 . S
C1341 C1336 1.379 . S
C1341 N1339 1.356 . S
N1342 C1334 1.356 . S
N1342 H1348 0.984 . S
N1342 H1349 0.984 . S
N1343 C1336 1.356 . S
N1343 H1346 0.984 . S
N1343 H1347 0.985 . S
H1344 N1339 0.984 . S
H1345 N1339 0.985 . S
H1346 N1343 0.984 . S
H1347 N1343 0.985 . S
H1348 N1342 0.984 . S
H1349 N1342 0.984 . S
H1350 N1338 0.984 . S
H1351 N1338 0.985 . S
C1352 C1353 1.363 . S
C1352 C1358 1.379 . S
C1352 N1360 1.356 . S
C1353 C1352 1.363 . S
C1353 C1359 1.363 . S
C1354 C1355 1.363 . S
C1354 C1359 1.379 . S
C1354 N1361 1.356 . S
C1355 C1354 1.363 . S
C1355 C1358 1.363 . S
N1356 C1358 1.356 . S
N1356 H1368 0.984 . S
N1356 H1369 0.985 . S
N1357 C1359 1.356 . S
N1357 H1362 0.984 . S
N1357 H1363 0.985 . S
C1358 C1352 1.379 . S
C1358 C1355 1.363 . S
C1358 N1356 1.356 . S
C1359 C1353 1.363 . S
C1359 C1354 1.379 . S
C1359 N1357 1.356 . S
N1360 C1352 1.356 . S
N1360 H1366 0.984 . S
N1360 H1367 0.984 . S
N1361 C1354 1.356 . S
N1361 H1364 0.984 . S
N1361 H1365 0.985 . S
H1362 N1357 0.984 . S
H1363 N1357 0.985 . S
H1364 N1361 0.984 . S
H1365 N1361 0.985 . S
H1366 N1360 0.984 . S
H1367 N1360 0.984 . S
H1368 N1356 0.984 . S
H1369 N1356 0.985 . S
C1370 C1371 1.363 . S
C1370 C1376 1.379 . S
C1370 N1378 1.356 . S
C1371 C1370 1.363 . S
C1371 C1377 1.363 . S
C1372 C1373 1.363 . S
C1372 C1377 1.379 . S
C1372 N1379 1.356 . S
C1373 C1372 1.363 . S
C1373 C1376 1.363 . S
N1374 C1376 1.356 . S
N1374 H1386 0.984 . S
N1374 H1387 0.985 . S
N1375 C1377 1.356 . S
N1375 H1380 0.984 . S
N1375 H1381 0.985 . S
C1376 C1370 1.379 . S
C1376 C1373 1.363 . S
C1376 N1374 1.356 . S
C1377 C1371 1.363 . S
C1377 C1372 1.379 . S
C1377 N1375 1.356 . S
N1378 C1370 1.356 . S
N1378 H1384 0.984 . S
N1378 H1385 0.984 . S
N1379 C1372 1.356 . S
N1379 H1382 0.984 . S
N1379 H1383 0.985 . S
H1380 N1375 0.984 . S
H1381 N1375 0.985 . S
H1382 N1379 0.984 . S
H1383 N1379 0.985 . S
H1384 N1378 0.984 . S
H1385 N1378 0.984 . S
H1386 N1374 0.984 . S
H1387 N1374 0.985 . S
C1388 C1389 1.363 . S
C1388 C1394 1.379 . S
C1388 N1396 1.356 . S
C1389 C1388 1.363 . S
C1389 C1395 1.363 . S
C1390 C1391 1.363 . S
C1390 C1395 1.379 . S
C1390 N1397 1.356 . S
C1391 C1390 1.363 . S
C1391 C1394 1.363 . S
N1392 C1394 1.356 . S
N1392 H1404 0.984 . S
N1392 H1405 0.985 . S
N1393 C1395 1.356 . S
N1393 H1398 0.984 . S
N1393 H1399 0.985 . S
C1394 C1388 1.379 . S
C1394 C1391 1.363 . S
C1394 N1392 1.356 . S
C1395 C1389 1.363 . S
C1395 C1390 1.379 . S
C1395 N1393 1.356 . S
N1396 C1388 1.356 . S
N1396 H1402 0.984 . S
N1396 H1403 0.984 . S
N1397 C1390 1.356 . S
N1397 H1400 0.984 . S
N1397 H1401 0.985 . S
H1398 N1393 0.984 . S
H1399 N1393 0.985 . S
H1400 N1397 0.984 . S
H1401 N1397 0.985 . S
H1402 N1396 0.984 . S
H1403 N1396 0.984 . S
H1404 N1392 0.984 . S
H1405 N1392 0.985 . S
C1406 C1407 1.363 . S
C1406 C1412 1.379 . S
C1406 N1414 1.356 . S
C1407 C1406 1.363 . S
C1407 C1413 1.363 . S
C1408 C1409 1.363 . S
C1408 C1413 1.379 . S
C1408 N1415 1.356 . S
C1409 C1408 1.363 . S
C1409 C1412 1.363 . S
N1410 C1412 1.356 . S
N1410 H1422 0.984 . S
N1410 H1423 0.985 . S
N1411 C1413 1.356 . S
N1411 H1416 0.984 . S
N1411 H1417 0.985 . S
C1412 C1406 1.379 . S
C1412 C1409 1.363 . S
C1412 N1410 1.356 . S
C1413 C1407 1.363 . S
C1413 C1408 1.379 . S
C1413 N1411 1.356 . S
N1414 C1406 1.356 . S
N1414 H1420 0.984 . S
N1414 H1421 0.984 . S
N1415 C1408 1.356 . S
N1415 H1418 0.984 . S
N1415 H1419 0.985 . S
H1416 N1411 0.984 . S
H1417 N1411 0.985 . S
H1418 N1415 0.984 . S
H1419 N1415 0.985 . S
H1420 N1414 0.984 . S
H1421 N1414 0.984 . S
H1422 N1410 0.984 . S
H1423 N1410 0.985 . S
C1424 C1425 1.363 . S
C1424 C1430 1.379 . S
C1424 N1432 1.356 . S
C1425 C1424 1.363 . S
C1425 C1431 1.363 . S
C1426 C1427 1.363 . S
C1426 C1431 1.379 . S
C1426 N1433 1.356 . S
C1427 C1426 1.363 . S
C1427 C1430 1.363 . S
N1428 C1430 1.356 . S
N1428 H1440 0.984 . S
N1428 H1441 0.985 . S
N1429 C1431 1.356 . S
N1429 H1434 0.984 . S
N1429 H1435 0.985 . S
C1430 C1424 1.379 . S
C1430 C1427 1.363 . S
C1430 N1428 1.356 . S
C1431 C1425 1.363 . S
C1431 C1426 1.379 . S
C1431 N1429 1.356 . S
N1432 C1424 1.356 . S
N1432 H1438 0.984 . S
N1432 H1439 0.984 . S
N1433 C1426 1.356 . S
N1433 H1436 0.984 . S
N1433 H1437 0.985 . S
H1434 N1429 0.984 . S
H1435 N1429 0.985 . S
H1436 N1433 0.984 . S
H1437 N1433 0.985 . S
H1438 N1432 0.984 . S
H1439 N1432 0.984 . S
H1440 N1428 0.984 . S
H1441 N1428 0.985 . S
C1442 C1443 1.363 . S
C1442 C1448 1.379 . S
C1442 N1450 1.356 . S
C1443 C1442 1.363 . S
C1443 C1449 1.363 . S
C1444 C1445 1.363 . S
C1444 C1449 1.379 . S
C1444 N1451 1.356 . S
C1445 C1444 1.363 . S
C1445 C1448 1.363 . S
N1446 C1448 1.356 . S
N1446 H1458 0.984 . S
N1446 H1459 0.985 . S
N1447 C1449 1.356 . S
N1447 H1452 0.984 . S
N1447 H1453 0.985 . S
C1448 C1442 1.379 . S
C1448 C1445 1.363 . S
C1448 N1446 1.356 . S
C1449 C1443 1.363 . S
C1449 C1444 1.379 . S
C1449 N1447 1.356 . S
N1450 C1442 1.356 . S
N1450 H1456 0.984 . S
N1450 H1457 0.984 . S
N1451 C1444 1.356 . S
N1451 H1454 0.984 . S
N1451 H1455 0.985 . S
H1452 N1447 0.984 . S
H1453 N1447 0.985 . S
H1454 N1451 0.984 . S
H1455 N1451 0.985 . S
H1456 N1450 0.984 . S
H1457 N1450 0.984 . S
H1458 N1446 0.984 . S
H1459 N1446 0.985 . S
C1460 C1461 1.363 . S
C1460 C1466 1.379 . S
C1460 N1468 1.356 . S
C1461 C1460 1.363 . S
C1461 C1467 1.363 . S
C1462 C1463 1.363 . S
C1462 C1467 1.379 . S
C1462 N1469 1.356 . S
C1463 C1462 1.363 . S
C1463 C1466 1.363 . S
N1464 C1466 1.356 . S
N1464 H1476 0.984 . S
N1464 H1477 0.985 . S
N1465 C1467 1.356 . S
N1465 H1470 0.984 . S
N1465 H1471 0.985 . S
C1466 C1460 1.379 . S
C1466 C1463 1.363 . S
C1466 N1464 1.356 . S
C1467 C1461 1.363 . S
C1467 C1462 1.379 . S
C1467 N1465 1.356 . S
N1468 C1460 1.356 . S
N1468 H1474 0.984 . S
N1468 H1475 0.984 . S
N1469 C1462 1.356 . S
N1469 H1472 0.984 . S
N1469 H1473 0.985 . S
H1470 N1465 0.984 . S
H1471 N1465 0.985 . S
H1472 N1469 0.984 . S
H1473 N1469 0.985 . S
H1474 N1468 0.984 . S
H1475 N1468 0.984 . S
H1476 N1464 0.984 . S
H1477 N1464 0.985 . S
C1478 C1479 1.363 . S
C1478 C1484 1.379 . S
C1478 N1486 1.356 . S
C1479 C1478 1.363 . S
C1479 C1485 1.363 . S
C1480 C1481 1.363 . S
C1480 C1485 1.379 . S
C1480 N1487 1.356 . S
C1481 C1480 1.363 . S
C1481 C1484 1.363 . S
N1482 C1484 1.356 . S
N1482 H1494 0.984 . S
N1482 H1495 0.985 . S
N1483 C1485 1.356 . S
N1483 H1488 0.984 . S
N1483 H1489 0.985 . S
C1484 C1478 1.379 . S
C1484 C1481 1.363 . S
C1484 N1482 1.356 . S
C1485 C1479 1.363 . S
C1485 C1480 1.379 . S
C1485 N1483 1.356 . S
N1486 C1478 1.356 . S
N1486 H1492 0.984 . S
N1486 H1493 0.984 . S
N1487 C1480 1.356 . S
N1487 H1490 0.984 . S
N1487 H1491 0.985 . S
H1488 N1483 0.984 . S
H1489 N1483 0.985 . S
H1490 N1487 0.984 . S
H1491 N1487 0.985 . S
H1492 N1486 0.984 . S
H1493 N1486 0.984 . S
H1494 N1482 0.984 . S
H1495 N1482 0.985 . S
C1496 C1497 1.363 . S
C1496 C1502 1.379 . S
C1496 N1504 1.356 . S
C1497 C1496 1.363 . S
C1497 C1503 1.363 . S
C1498 C1499 1.363 . S
C1498 C1503 1.379 . S
C1498 N1505 1.356 . S
C1499 C1498 1.363 . S
C1499 C1502 1.363 . S
N1500 C1502 1.356 . S
N1500 H1512 0.984 . S
N1500 H1513 0.985 . S
N1501 C1503 1.356 . S
N1501 H1506 0.984 . S
N1501 H1507 0.985 . S
C1502 C1496 1.379 . S
C1502 C1499 1.363 . S
C1502 N1500 1.356 . S
C1503 C1497 1.363 . S
C1503 C1498 1.379 . S
C1503 N1501 1.356 . S
N1504 C1496 1.356 . S
N1504 H1510 0.984 . S
N1504 H1511 0.984 . S
N1505 C1498 1.356 . S
N1505 H1508 0.984 . S
N1505 H1509 0.985 . S
H1506 N1501 0.984 . S
H1507 N1501 0.985 . S
H1508 N1505 0.984 . S
H1509 N1505 0.985 . S
H1510 N1504 0.984 . S
H1511 N1504 0.984 . S
H1512 N1500 0.984 . S
H1513 N1500 0.985 . S
C1514 C1515 1.363 . S
C1514 C1520 1.379 . S
C1514 N1522 1.356 . S
C1515 C1514 1.363 . S
C1515 C1521 1.363 . S
C1516 C1517 1.363 . S
C1516 C1521 1.379 . S
C1516 N1523 1.356 . S
C1517 C1516 1.363 . S
C1517 C1520 1.363 . S
N1518 C1520 1.356 . S
N1518 H1530 0.984 . S
N1518 H1531 0.985 . S
N1519 C1521 1.356 . S
N1519 H1524 0.984 . S
N1519 H1525 0.985 . S
C1520 C1514 1.379 . S
C1520 C1517 1.363 . S
C1520 N1518 1.356 . S
C1521 C1515 1.363 . S
C1521 C1516 1.379 . S
C1521 N1519 1.356 . S
N1522 C1514 1.356 . S
N1522 H1528 0.984 . S
N1522 H1529 0.984 . S
N1523 C1516 1.356 . S
N1523 H1526 0.984 . S
N1523 H1527 0.985 . S
H1524 N1519 0.984 . S
H1525 N1519 0.985 . S
H1526 N1523 0.984 . S
H1527 N1523 0.985 . S
H1528 N1522 0.984 . S
H1529 N1522 0.984 . S
H1530 N1518 0.984 . S
H1531 N1518 0.985 . S
C1532 C1533 1.363 . S
C1532 C1538 1.379 . S
C1532 N1540 1.356 . S
C1533 C1532 1.363 . S
C1533 C1539 1.363 . S
C1534 C1535 1.363 . S
C1534 C1539 1.379 . S
C1534 N1541 1.356 . S
C1535 C1534 1.363 . S
C1535 C1538 1.363 . S
N1536 C1538 1.356 . S
N1536 H1548 0.984 . S
N1536 H1549 0.985 . S
N1537 C1539 1.356 . S
N1537 H1542 0.984 . S
N1537 H1543 0.985 . S
C1538 C1532 1.379 . S
C1538 C1535 1.363 . S
C1538 N1536 1.356 . S
C1539 C1533 1.363 . S
C1539 C1534 1.379 . S
C1539 N1537 1.356 . S
N1540 C1532 1.356 . S
N1540 H1546 0.984 . S
N1540 H1547 0.984 . S
N1541 C1534 1.356 . S
N1541 H1544 0.984 . S
N1541 H1545 0.985 . S
H1542 N1537 0.984 . S
H1543 N1537 0.985 . S
H1544 N1541 0.984 . S
H1545 N1541 0.985 . S
H1546 N1540 0.984 . S
H1547 N1540 0.984 . S
H1548 N1536 0.984 . S
H1549 N1536 0.985 . S
C1550 C1551 1.363 . S
C1550 C1556 1.379 . S
C1550 N1558 1.356 . S
C1551 C1550 1.363 . S
C1551 C1557 1.363 . S
C1552 C1553 1.363 . S
C1552 C1557 1.379 . S
C1552 N1559 1.356 . S
C1553 C1552 1.363 . S
C1553 C1556 1.363 . S
N1554 C1556 1.356 . S
N1554 H1566 0.984 . S
N1554 H1567 0.985 . S
N1555 C1557 1.356 . S
N1555 H1560 0.984 . S
N1555 H1561 0.985 . S
C1556 C1550 1.379 . S
C1556 C1553 1.363 . S
C1556 N1554 1.356 . S
C1557 C1551 1.363 . S
C1557 C1552 1.379 . S
C1557 N1555 1.356 . S
N1558 C1550 1.356 . S
N1558 H1564 0.984 . S
N1558 H1565 0.984 . S
N1559 C1552 1.356 . S
N1559 H1562 0.984 . S
N1559 H1563 0.985 . S
H1560 N1555 0.984 . S
H1561 N1555 0.985 . S
H1562 N1559 0.984 . S
H1563 N1559 0.985 . S
H1564 N1558 0.984 . S
H1565 N1558 0.984 . S
H1566 N1554 0.984 . S
H1567 N1554 0.985 . S
C1568 C1569 1.363 . S
C1568 C1574 1.379 . S
C1568 N1576 1.356 . S
C1569 C1568 1.363 . S
C1569 C1575 1.363 . S
C1570 C1571 1.363 . S
C1570 C1575 1.379 . S
C1570 N1577 1.356 . S
C1571 C1570 1.363 . S
C1571 C1574 1.363 . S
N1572 C1574 1.356 . S
N1572 H1584 0.984 . S
N1572 H1585 0.985 . S
N1573 C1575 1.356 . S
N1573 H1578 0.984 . S
N1573 H1579 0.985 . S
C1574 C1568 1.379 . S
C1574 C1571 1.363 . S
C1574 N1572 1.356 . S
C1575 C1569 1.363 . S
C1575 C1570 1.379 . S
C1575 N1573 1.356 . S
N1576 C1568 1.356 . S
N1576 H1582 0.984 . S
N1576 H1583 0.984 . S
N1577 C1570 1.356 . S
N1577 H1580 0.984 . S
N1577 H1581 0.985 . S
H1578 N1573 0.984 . S
H1579 N1573 0.985 . S
H1580 N1577 0.984 . S
H1581 N1577 0.985 . S
H1582 N1576 0.984 . S
H1583 N1576 0.984 . S
H1584 N1572 0.984 . S
H1585 N1572 0.985 . S
C1586 C1587 1.363 . S
C1586 C1592 1.379 . S
C1586 N1594 1.356 . S
C1587 C1586 1.363 . S
C1587 C1593 1.363 . S
C1588 C1589 1.363 . S
C1588 C1593 1.379 . S
C1588 N1595 1.356 . S
C1589 C1588 1.363 . S
C1589 C1592 1.363 . S
N1590 C1592 1.356 . S
N1590 H1602 0.984 . S
N1590 H1603 0.985 . S
N1591 C1593 1.356 . S
N1591 H1596 0.984 . S
N1591 H1597 0.985 . S
C1592 C1586 1.379 . S
C1592 C1589 1.363 . S
C1592 N1590 1.356 . S
C1593 C1587 1.363 . S
C1593 C1588 1.379 . S
C1593 N1591 1.356 . S
N1594 C1586 1.356 . S
N1594 H1600 0.984 . S
N1594 H1601 0.984 . S
N1595 C1588 1.356 . S
N1595 H1598 0.984 . S
N1595 H1599 0.985 . S
H1596 N1591 0.984 . S
H1597 N1591 0.985 . S
H1598 N1595 0.984 . S
H1599 N1595 0.985 . S
H1600 N1594 0.984 . S
H1601 N1594 0.984 . S
H1602 N1590 0.984 . S
H1603 N1590 0.985 . S
C1604 C1605 1.363 . S
C1604 C1610 1.379 . S
C1604 N1612 1.356 . S
C1605 C1604 1.363 . S
C1605 C1611 1.363 . S
C1606 C1607 1.363 . S
C1606 C1611 1.379 . S
C1606 N1613 1.356 . S
C1607 C1606 1.363 . S
C1607 C1610 1.363 . S
N1608 C1610 1.356 . S
N1608 H1620 0.984 . S
N1608 H1621 0.985 . S
N1609 C1611 1.356 . S
N1609 H1614 0.984 . S
N1609 H1615 0.985 . S
C1610 C1604 1.379 . S
C1610 C1607 1.363 . S
C1610 N1608 1.356 . S
C1611 C1605 1.363 . S
C1611 C1606 1.379 . S
C1611 N1609 1.356 . S
N1612 C1604 1.356 . S
N1612 H1618 0.984 . S
N1612 H1619 0.984 . S
N1613 C1606 1.356 . S
N1613 H1616 0.984 . S
N1613 H1617 0.985 . S
H1614 N1609 0.984 . S
H1615 N1609 0.985 . S
H1616 N1613 0.984 . S
H1617 N1613 0.985 . S
H1618 N1612 0.984 . S
H1619 N1612 0.984 . S
H1620 N1608 0.984 . S
H1621 N1608 0.985 . S
C1622 C1623 1.363 . S
C1622 C1628 1.379 . S
C1622 N1630 1.356 . S
C1623 C1622 1.363 . S
C1623 C1629 1.363 . S
C1624 C1625 1.363 . S
C1624 C1629 1.379 . S
C1624 N1631 1.356 . S
C1625 C1624 1.363 . S
C1625 C1628 1.363 . S
N1626 C1628 1.356 . S
N1626 H1638 0.984 . S
N1626 H1639 0.985 . S
N1627 C1629 1.356 . S
N1627 H1632 0.984 . S
N1627 H1633 0.985 . S
C1628 C1622 1.379 . S
C1628 C1625 1.363 . S
C1628 N1626 1.356 . S
C1629 C1623 1.363 . S
C1629 C1624 1.379 . S
C1629 N1627 1.356 . S
N1630 C1622 1.356 . S
N1630 H1636 0.984 . S
N1630 H1637 0.984 . S
N1631 C1624 1.356 . S
N1631 H1634 0.984 . S
N1631 H1635 0.985 . S
H1632 N1627 0.984 . S
H1633 N1627 0.985 . S
H1634 N1631 0.984 . S
H1635 N1631 0.985 . S
H1636 N1630 0.984 . S
H1637 N1630 0.984 . S
H1638 N1626 0.984 . S
H1639 N1626 0.985 . S
C1640 C1641 1.363 . S
C1640 C1646 1.379 . S
C1640 N1648 1.356 . S
C1641 C1640 1.363 . S
C1641 C1647 1.363 . S
C1642 C1643 1.363 . S
C1642 C1647 1.379 . S
C1642 N1649 1.356 . S
C1643 C1642 1.363 . S
C1643 C1646 1.363 . S
N1644 C1646 1.356 . S
N1644 H1656 0.984 . S
N1644 H1657 0.985 . S
N1645 C1647 1.356 . S
N1645 H1650 0.984 . S
N1645 H1651 0.985 . S
C1646 C1640 1.379 . S
C1646 C1643 1.363 . S
C1646 N1644 1.356 . S
C1647 C1641 1.363 . S
C1647 C1642 1.379 . S
C1647 N1645 1.356 . S
N1648 C1640 1.356 . S
N1648 H1654 0.984 . S
N1648 H1655 0.984 . S
N1649 C1642 1.356 . S
N1649 H1652 0.984 . S
N1649 H1653 0.985 . S
H1650 N1645 0.984 . S
H1651 N1645 0.985 . S
H1652 N1649 0.984 . S
H1653 N1649 0.985 . S
H1654 N1648 0.984 . S
H1655 N1648 0.984 . S
H1656 N1644 0.984 . S
H1657 N1644 0.985 . S
C1658 C1659 1.363 . S
C1658 C1664 1.379 . S
C1658 N1666 1.356 . S
C1659 C1658 1.363 . S
C1659 C1665 1.363 . S
C1660 C1661 1.363 . S
C1660 C1665 1.379 . S
C1660 N1667 1.356 . S
C1661 C1660 1.363 . S
C1661 C1664 1.363 . S
N1662 C1664 1.356 . S
N1662 H1674 0.984 . S
N1662 H1675 0.985 . S
N1663 C1665 1.356 . S
N1663 H1668 0.984 . S
N1663 H1669 0.985 . S
C1664 C1658 1.379 . S
C1664 C1661 1.363 . S
C1664 N1662 1.356 . S
C1665 C1659 1.363 . S
C1665 C1660 1.379 . S
C1665 N1663 1.356 . S
N1666 C1658 1.356 . S
N1666 H1672 0.984 . S
N1666 H1673 0.984 . S
N1667 C1660 1.356 . S
N1667 H1670 0.984 . S
N1667 H1671 0.985 . S
H1668 N1663 0.984 . S
H1669 N1663 0.985 . S
H1670 N1667 0.984 . S
H1671 N1667 0.985 . S
H1672 N1666 0.984 . S
H1673 N1666 0.984 . S
H1674 N1662 0.984 . S
H1675 N1662 0.985 . S
C1676 C1677 1.363 . S
C1676 C1682 1.379 . S
C1676 N1684 1.356 . S
C1677 C1676 1.363 . S
C1677 C1683 1.363 . S
C1678 C1679 1.363 . S
C1678 C1683 1.379 . S
C1678 N1685 1.356 . S
C1679 C1678 1.363 . S
C1679 C1682 1.363 . S
N1680 C1682 1.356 . S
N1680 H1692 0.984 . S
N1680 H1693 0.985 . S
N1681 C1683 1.356 . S
N1681 H1686 0.984 . S
N1681 H1687 0.985 . S
C1682 C1676 1.379 . S
C1682 C1679 1.363 . S
C1682 N1680 1.356 . S
C1683 C1677 1.363 . S
C1683 C1678 1.379 . S
C1683 N1681 1.356 . S
N1684 C1676 1.356 . S
N1684 H1690 0.984 . S
N1684 H1691 0.984 . S
N1685 C1678 1.356 . S
N1685 H1688 0.984 . S
N1685 H1689 0.985 . S
H1686 N1681 0.984 . S
H1687 N1681 0.985 . S
H1688 N1685 0.984 . S
H1689 N1685 0.985 . S
H1690 N1684 0.984 . S
H1691 N1684 0.984 . S
H1692 N1680 0.984 . S
H1693 N1680 0.985 . S
C1694 C1695 1.363 . S
C1694 C1700 1.379 . S
C1694 N1702 1.356 . S
C1695 C1694 1.363 . S
C1695 C1701 1.363 . S
C1696 C1697 1.363 . S
C1696 C1701 1.379 . S
C1696 N1703 1.356 . S
C1697 C1696 1.363 . S
C1697 C1700 1.363 . S
N1698 C1700 1.356 . S
N1698 H1710 0.984 . S
N1698 H1711 0.985 . S
N1699 C1701 1.356 . S
N1699 H1704 0.984 . S
N1699 H1705 0.985 . S
C1700 C1694 1.379 . S
C1700 C1697 1.363 . S
C1700 N1698 1.356 . S
C1701 C1695 1.363 . S
C1701 C1696 1.379 . S
C1701 N1699 1.356 . S
N1702 C1694 1.356 . S
N1702 H1708 0.984 . S
N1702 H1709 0.984 . S
N1703 C1696 1.356 . S
N1703 H1706 0.984 . S
N1703 H1707 0.985 . S
H1704 N1699 0.984 . S
H1705 N1699 0.985 . S
H1706 N1703 0.984 . S
H1707 N1703 0.985 . S
H1708 N1702 0.984 . S
H1709 N1702 0.984 . S
H1710 N1698 0.984 . S
H1711 N1698 0.985 . S
C1712 C1713 1.363 . S
C1712 C1718 1.379 . S
C1712 N1720 1.356 . S
C1713 C1712 1.363 . S
C1713 C1719 1.363 . S
C1714 C1715 1.363 . S
C1714 C1719 1.379 . S
C1714 N1721 1.356 . S
C1715 C1714 1.363 . S
C1715 C1718 1.363 . S
N1716 C1718 1.356 . S
N1716 H1728 0.984 . S
N1716 H1729 0.985 . S
N1717 C1719 1.356 . S
N1717 H1722 0.984 . S
N1717 H1723 0.985 . S
C1718 C1712 1.379 . S
C1718 C1715 1.363 . S
C1718 N1716 1.356 . S
C1719 C1713 1.363 . S
C1719 C1714 1.379 . S
C1719 N1717 1.356 . S
N1720 C1712 1.356 . S
N1720 H1726 0.984 . S
N1720 H1727 0.984 . S
N1721 C1714 1.356 . S
N1721 H1724 0.984 . S
N1721 H1725 0.985 . S
H1722 N1717 0.984 . S
H1723 N1717 0.985 . S
H1724 N1721 0.984 . S
H1725 N1721 0.985 . S
H1726 N1720 0.984 . S
H1727 N1720 0.984 . S
H1728 N1716 0.984 . S
H1729 N1716 0.985 . S
C1730 C1731 1.363 . S
C1730 C1736 1.379 . S
C1730 N1738 1.356 . S
C1731 C1730 1.363 . S
C1731 C1737 1.363 . S
C1732 C1733 1.363 . S
C1732 C1737 1.379 . S
C1732 N1739 1.356 . S
C1733 C1732 1.363 . S
C1733 C1736 1.363 . S
N1734 C1736 1.356 . S
N1734 H1746 0.984 . S
N1734 H1747 0.985 . S
N1735 C1737 1.356 . S
N1735 H1740 0.984 . S
N1735 H1741 0.985 . S
C1736 C1730 1.379 . S
C1736 C1733 1.363 . S
C1736 N1734 1.356 . S
C1737 C1731 1.363 . S
C1737 C1732 1.379 . S
C1737 N1735 1.356 . S
N1738 C1730 1.356 . S
N1738 H1744 0.984 . S
N1738 H1745 0.984 . S
N1739 C1732 1.356 . S
N1739 H1742 0.984 . S
N1739 H1743 0.985 . S
H1740 N1735 0.984 . S
H1741 N1735 0.985 . S
H1742 N1739 0.984 . S
H1743 N1739 0.985 . S
H1744 N1738 0.984 . S
H1745 N1738 0.984 . S
H1746 N1734 0.984 . S
H1747 N1734 0.985 . S
C1748 C1749 1.363 . S
C1748 C1754 1.379 . S
C1748 N1756 1.356 . S
C1749 C1748 1.363 . S
C1749 C1755 1.363 . S
C1750 C1751 1.363 . S
C1750 C1755 1.379 . S
C1750 N1757 1.356 . S
C1751 C1750 1.363 . S
C1751 C1754 1.363 . S
N1752 C1754 1.356 . S
N1752 H1764 0.984 . S
N1752 H1765 0.985 . S
N1753 C1755 1.356 . S
N1753 H1758 0.984 . S
N1753 H1759 0.985 . S
C1754 C1748 1.379 . S
C1754 C1751 1.363 . S
C1754 N1752 1.356 . S
C1755 C1749 1.363 . S
C1755 C1750 1.379 . S
C1755 N1753 1.356 . S
N1756 C1748 1.356 . S
N1756 H1762 0.984 . S
N1756 H1763 0.984 . S
N1757 C1750 1.356 . S
N1757 H1760 0.984 . S
N1757 H1761 0.985 . S
H1758 N1753 0.984 . S
H1759 N1753 0.985 . S
H1760 N1757 0.984 . S
H1761 N1757 0.985 . S
H1762 N1756 0.984 . S
H1763 N1756 0.984 . S
H1764 N1752 0.984 . S
H1765 N1752 0.985 . S
C1766 C1767 1.363 . S
C1766 C1772 1.379 . S
C1766 N1774 1.356 . S
C1767 C1766 1.363 . S
C1767 C1773 1.363 . S
C1768 C1769 1.363 . S
C1768 C1773 1.379 . S
C1768 N1775 1.356 . S
C1769 C1768 1.363 . S
C1769 C1772 1.363 . S
N1770 C1772 1.356 . S
N1770 H1782 0.984 . S
N1770 H1783 0.985 . S
N1771 C1773 1.356 . S
N1771 H1776 0.984 . S
N1771 H1777 0.985 . S
C1772 C1766 1.379 . S
C1772 C1769 1.363 . S
C1772 N1770 1.356 . S
C1773 C1767 1.363 . S
C1773 C1768 1.379 . S
C1773 N1771 1.356 . S
N1774 C1766 1.356 . S
N1774 H1780 0.984 . S
N1774 H1781 0.984 . S
N1775 C1768 1.356 . S
N1775 H1778 0.984 . S
N1775 H1779 0.985 . S
H1776 N1771 0.984 . S
H1777 N1771 0.985 . S
H1778 N1775 0.984 . S
H1779 N1775 0.985 . S
H1780 N1774 0.984 . S
H1781 N1774 0.984 . S
H1782 N1770 0.984 . S
H1783 N1770 0.985 . S
C1784 C1785 1.363 . S
C1784 C1790 1.379 . S
C1784 N1792 1.356 . S
C1785 C1784 1.363 . S
C1785 C1791 1.363 . S
C1786 C1787 1.363 . S
C1786 C1791 1.379 . S
C1786 N1793 1.356 . S
C1787 C1786 1.363 . S
C1787 C1790 1.363 . S
N1788 C1790 1.356 . S
N1788 H1800 0.984 . S
N1788 H1801 0.985 . S
N1789 C1791 1.356 . S
N1789 H1794 0.984 . S
N1789 H1795 0.985 . S
C1790 C1784 1.379 . S
C1790 C1787 1.363 . S
C1790 N1788 1.356 . S
C1791 C1785 1.363 . S
C1791 C1786 1.379 . S
C1791 N1789 1.356 . S
N1792 C1784 1.356 . S
N1792 H1798 0.984 . S
N1792 H1799 0.984 . S
N1793 C1786 1.356 . S
N1793 H1796 0.984 . S
N1793 H1797 0.985 . S
H1794 N1789 0.984 . S
H1795 N1789 0.985 . S
H1796 N1793 0.984 . S
H1797 N1793 0.985 . S
H1798 N1792 0.984 . S
H1799 N1792 0.984 . S
H1800 N1788 0.984 . S
H1801 N1788 0.985 . S
C1802 C1803 1.363 . S
C1802 C1808 1.379 . S
C1802 N1810 1.356 . S
C1803 C1802 1.363 . S
C1803 C1809 1.363 . S
C1804 C1805 1.363 . S
C1804 C1809 1.379 . S
C1804 N1811 1.356 . S
C1805 C1804 1.363 . S
C1805 C1808 1.363 . S
N1806 C1808 1.356 . S
N1806 H1818 0.984 . S
N1806 H1819 0.985 . S
N1807 C1809 1.356 . S
N1807 H1812 0.984 . S
N1807 H1813 0.985 . S
C1808 C1802 1.379 . S
C1808 C1805 1.363 . S
C1808 N1806 1.356 . S
C1809 C1803 1.363 . S
C1809 C1804 1.379 . S
C1809 N1807 1.356 . S
N1810 C1802 1.356 . S
N1810 H1816 0.984 . S
N1810 H1817 0.984 . S
N1811 C1804 1.356 . S
N1811 H1814 0.984 . S
N1811 H1815 0.985 . S
H1812 N1807 0.984 . S
H1813 N1807 0.985 . S
H1814 N1811 0.984 . S
H1815 N1811 0.985 . S
H1816 N1810 0.984 . S
H1817 N1810 0.984 . S
H1818 N1806 0.984 . S
H1819 N1806 0.985 . S
C1820 C1821 1.363 . S
C1820 C1826 1.379 . S
C1820 N1828 1.356 . S
C1821 C1820 1.363 . S
C1821 C1827 1.363 . S
C1822 C1823 1.363 . S
C1822 C1827 1.379 . S
C1822 N1829 1.356 . S
C1823 C1822 1.363 . S
C1823 C1826 1.363 . S
N1824 C1826 1.356 . S
N1824 H1836 0.984 . S
N1824 H1837 0.985 . S
N1825 C1827 1.356 . S
N1825 H1830 0.984 . S
N1825 H1831 0.985 . S
C1826 C1820 1.379 . S
C1826 C1823 1.363 . S
C1826 N1824 1.356 . S
C1827 C1821 1.363 . S
C1827 C1822 1.379 . S
C1827 N1825 1.356 . S
N1828 C1820 1.356 . S
N1828 H1834 0.984 . S
N1828 H1835 0.984 . S
N1829 C1822 1.356 . S
N1829 H1832 0.984 . S
N1829 H1833 0.985 . S
H1830 N1825 0.984 . S
H1831 N1825 0.985 . S
H1832 N1829 0.984 . S
H1833 N1829 0.985 . S
H1834 N1828 0.984 . S
H1835 N1828 0.984 . S
H1836 N1824 0.984 . S
H1837 N1824 0.985 . S
C1838 C1839 1.363 . S
C1838 C1844 1.379 . S
C1838 N1846 1.356 . S
C1839 C1838 1.363 . S
C1839 C1845 1.363 . S
C1840 C1841 1.363 . S
C1840 C1845 1.379 . S
C1840 N1847 1.356 . S
C1841 C1840 1.363 . S
C1841 C1844 1.363 . S
N1842 C1844 1.356 . S
N1842 H1854 0.984 . S
N1842 H1855 0.985 . S
N1843 C1845 1.356 . S
N1843 H1848 0.984 . S
N1843 H1849 0.985 . S
C1844 C1838 1.379 . S
C1844 C1841 1.363 . S
C1844 N1842 1.356 . S
C1845 C1839 1.363 . S
C1845 C1840 1.379 . S
C1845 N1843 1.356 . S
N1846 C1838 1.356 . S
N1846 H1852 0.984 . S
N1846 H1853 0.984 . S
N1847 C1840 1.356 . S
N1847 H1850 0.984 . S
N1847 H1851 0.985 . S
H1848 N1843 0.984 . S
H1849 N1843 0.985 . S
H1850 N1847 0.984 . S
H1851 N1847 0.985 . S
H1852 N1846 0.984 . S
H1853 N1846 0.984 . S
H1854 N1842 0.984 . S
H1855 N1842 0.985 . S
C1856 C1857 1.363 1_655 S
C1856 C1862 1.379 . S
C1856 N1864 1.356 . S
C1857 C1856 1.363 1_455 S
C1857 C1863 1.363 . S
C1858 C1859 1.363 1_455 S
C1858 C1863 1.379 . S
C1858 N1865 1.356 . S
C1859 C1858 1.363 1_655 S
C1859 C1862 1.363 . S
N1860 C1862 1.356 . S
N1860 H1872 0.984 . S
N1860 H1873 0.985 . S
N1861 C1863 1.356 . S
N1861 H1866 0.984 . S
N1861 H1867 0.985 . S
C1862 C1856 1.379 . S
C1862 C1859 1.363 . S
C1862 N1860 1.356 . S
C1863 C1857 1.363 . S
C1863 C1858 1.379 . S
C1863 N1861 1.356 . S
N1864 C1856 1.356 . S
N1864 H1870 0.984 . S
N1864 H1871 0.984 1_655 S
N1865 C1858 1.356 . S
N1865 H1868 0.984 1_455 S
N1865 H1869 0.985 . S
H1866 N1861 0.984 . S
H1867 N1861 0.985 . S
H1868 N1865 0.984 1_655 S
H1869 N1865 0.985 . S
H1870 N1864 0.984 . S
H1871 N1864 0.984 1_455 S
H1872 N1860 0.984 . S
H1873 N1860 0.985 . S
C1874 C1875 1.363 . S
C1874 C1880 1.379 1_655 S
C1874 N1882 1.356 . S
C1875 C1874 1.363 . S
C1875 C1881 1.363 . S
C1876 C1877 1.363 . S
C1876 C1881 1.379 1_455 S
C1876 N1883 1.356 . S
C1877 C1876 1.363 . S
C1877 C1880 1.363 . S
N1878 C1880 1.356 . S
N1878 H1890 0.984 . S
N1878 H1891 0.985 . S
N1879 C1881 1.356 . S
N1879 H1884 0.984 . S
N1879 H1885 0.985 . S
C1880 C1874 1.379 1_455 S
C1880 C1877 1.363 . S
C1880 N1878 1.356 . S
C1881 C1875 1.363 . S
C1881 C1876 1.379 1_655 S
C1881 N1879 1.356 . S
N1882 C1874 1.356 . S
N1882 H1888 0.984 . S
N1882 H1889 0.984 . S
N1883 C1876 1.356 . S
N1883 H1886 0.984 . S
N1883 H1887 0.985 . S
H1884 N1879 0.984 . S
H1885 N1879 0.985 . S
H1886 N1883 0.984 . S
H1887 N1883 0.985 . S
H1888 N1882 0.984 . S
H1889 N1882 0.984 . S
H1890 N1878 0.984 . S
H1891 N1878 0.985 . S
C1892 C1893 1.363 . S
C1892 C1898 1.379 . S
C1892 N1900 1.356 . S
C1893 C1892 1.363 . S
C1893 C1899 1.363 . S
C1894 C1895 1.363 . S
C1894 C1899 1.379 . S
C1894 N1901 1.356 . S
C1895 C1894 1.363 . S
C1895 C1898 1.363 . S
N1896 C1898 1.356 . S
N1896 H1908 0.984 . S
N1896 H1909 0.985 . S
N1897 C1899 1.356 . S
N1897 H1902 0.984 . S
N1897 H1903 0.985 . S
C1898 C1892 1.379 . S
C1898 C1895 1.363 . S
C1898 N1896 1.356 . S
C1899 C1893 1.363 . S
C1899 C1894 1.379 . S
C1899 N1897 1.356 . S
N1900 C1892 1.356 . S
N1900 H1906 0.984 . S
N1900 H1907 0.984 . S
N1901 C1894 1.356 . S
N1901 H1904 0.984 . S
N1901 H1905 0.985 . S
H1902 N1897 0.984 . S
H1903 N1897 0.985 . S
H1904 N1901 0.984 . S
H1905 N1901 0.985 . S
H1906 N1900 0.984 . S
H1907 N1900 0.984 . S
H1908 N1896 0.984 . S
H1909 N1896 0.985 . S
C1910 C1911 1.363 . S
C1910 C1916 1.379 . S
C1910 N1918 1.356 . S
C1911 C1910 1.363 . S
C1911 C1917 1.363 . S
C1912 C1913 1.363 . S
C1912 C1917 1.379 . S
C1912 N1919 1.356 . S
C1913 C1912 1.363 . S
C1913 C1916 1.363 . S
N1914 C1916 1.356 . S
N1914 H1926 0.984 . S
N1914 H1927 0.985 . S
N1915 C1917 1.356 . S
N1915 H1920 0.984 . S
N1915 H1921 0.985 . S
C1916 C1910 1.379 . S
C1916 C1913 1.363 . S
C1916 N1914 1.356 . S
C1917 C1911 1.363 . S
C1917 C1912 1.379 . S
C1917 N1915 1.356 . S
N1918 C1910 1.356 . S
N1918 H1924 0.984 . S
N1918 H1925 0.984 . S
N1919 C1912 1.356 . S
N1919 H1922 0.984 . S
N1919 H1923 0.985 . S
H1920 N1915 0.984 . S
H1921 N1915 0.985 . S
H1922 N1919 0.984 . S
H1923 N1919 0.985 . S
H1924 N1918 0.984 . S
H1925 N1918 0.984 . S
H1926 N1914 0.984 . S
H1927 N1914 0.985 . S
C1928 C1929 1.363 1_455 S
C1928 C1934 1.379 . S
C1928 N1936 1.356 . S
C1929 C1928 1.363 1_655 S
C1929 C1935 1.363 . S
C1930 C1931 1.363 1_655 S
C1930 C1935 1.379 . S
C1930 N1937 1.356 . S
C1931 C1930 1.363 1_455 S
C1931 C1934 1.363 . S
N1932 C1934 1.356 . S
N1932 H1944 0.984 . S
N1932 H1945 0.985 . S
N1933 C1935 1.356 . S
N1933 H1938 0.984 . S
N1933 H1939 0.985 . S
C1934 C1928 1.379 . S
C1934 C1931 1.363 . S
C1934 N1932 1.356 . S
C1935 C1929 1.363 . S
C1935 C1930 1.379 . S
C1935 N1933 1.356 . S
N1936 C1928 1.356 . S
N1936 H1942 0.984 . S
N1936 H1943 0.984 1_455 S
N1937 C1930 1.356 . S
N1937 H1940 0.984 1_655 S
N1937 H1941 0.985 . S
H1938 N1933 0.984 . S
H1939 N1933 0.985 . S
H1940 N1937 0.984 1_455 S
H1941 N1937 0.985 . S
H1942 N1936 0.984 . S
H1943 N1936 0.984 1_655 S
H1944 N1932 0.984 . S
H1945 N1932 0.985 . S
C1946 C1947 1.363 . S
C1946 C1952 1.379 . S
C1946 N1954 1.356 . S
C1947 C1946 1.363 . S
C1947 C1953 1.363 . S
C1948 C1949 1.363 . S
C1948 C1953 1.379 . S
C1948 N1955 1.356 . S
C1949 C1948 1.363 . S
C1949 C1952 1.363 . S
N1950 C1952 1.356 . S
N1950 H1962 0.984 . S
N1950 H1963 0.985 . S
N1951 C1953 1.356 . S
N1951 H1956 0.984 . S
N1951 H1957 0.985 . S
C1952 C1946 1.379 . S
C1952 C1949 1.363 . S
C1952 N1950 1.356 . S
C1953 C1947 1.363 . S
C1953 C1948 1.379 . S
C1953 N1951 1.356 . S
N1954 C1946 1.356 . S
N1954 H1960 0.984 . S
N1954 H1961 0.984 . S
N1955 C1948 1.356 . S
N1955 H1958 0.984 . S
N1955 H1959 0.985 . S
H1956 N1951 0.984 . S
H1957 N1951 0.985 . S
H1958 N1955 0.984 . S
H1959 N1955 0.985 . S
H1960 N1954 0.984 . S
H1961 N1954 0.984 . S
H1962 N1950 0.984 . S
H1963 N1950 0.985 . S
C1964 C1965 1.363 . S
C1964 C1970 1.379 . S
C1964 N1972 1.356 . S
C1965 C1964 1.363 . S
C1965 C1971 1.363 . S
C1966 C1967 1.363 . S
C1966 C1971 1.379 . S
C1966 N1973 1.356 . S
C1967 C1966 1.363 . S
C1967 C1970 1.363 . S
N1968 C1970 1.356 . S
N1968 H1980 0.984 . S
N1968 H1981 0.985 . S
N1969 C1971 1.356 . S
N1969 H1974 0.984 . S
N1969 H1975 0.985 . S
C1970 C1964 1.379 . S
C1970 C1967 1.363 . S
C1970 N1968 1.356 . S
C1971 C1965 1.363 . S
C1971 C1966 1.379 . S
C1971 N1969 1.356 . S
N1972 C1964 1.356 . S
N1972 H1978 0.984 . S
N1972 H1979 0.984 . S
N1973 C1966 1.356 . S
N1973 H1976 0.984 . S
N1973 H1977 0.985 . S
H1974 N1969 0.984 . S
H1975 N1969 0.985 . S
H1976 N1973 0.984 . S
H1977 N1973 0.985 . S
H1978 N1972 0.984 . S
H1979 N1972 0.984 . S
H1980 N1968 0.984 . S
H1981 N1968 0.985 . S
C1982 C1983 1.363 . S
C1982 C1988 1.379 1_455 S
C1982 N1990 1.356 . S
C1983 C1982 1.363 . S
C1983 C1989 1.363 . S
C1984 C1985 1.363 . S
C1984 C1989 1.379 1_655 S
C1984 N1991 1.356 . S
C1985 C1984 1.363 . S
C1985 C1988 1.363 . S
N1986 C1988 1.356 . S
N1986 H1998 0.984 . S
N1986 H1999 0.985 . S
N1987 C1989 1.356 . S
N1987 H1992 0.984 . S
N1987 H1993 0.985 . S
C1988 C1982 1.379 1_655 S
C1988 C1985 1.363 . S
C1988 N1986 1.356 . S
C1989 C1983 1.363 . S
C1989 C1984 1.379 1_455 S
C1989 N1987 1.356 . S
N1990 C1982 1.356 . S
N1990 H1996 0.984 . S
N1990 H1997 0.984 . S
N1991 C1984 1.356 . S
N1991 H1994 0.984 . S
N1991 H1995 0.985 . S
H1992 N1987 0.984 . S
H1993 N1987 0.985 . S
H1994 N1991 0.984 . S
H1995 N1991 0.985 . S
H1996 N1990 0.984 . S
H1997 N1990 0.984 . S
H1998 N1986 0.984 . S
H1999 N1986 0.985 . S
C2000 C2001 1.363 1_655 S
C2000 C2006 1.379 . S
C2000 N2008 1.356 . S
C2001 C2000 1.363 1_455 S
C2001 C2007 1.363 . S
C2002 C2003 1.363 1_455 S
C2002 C2007 1.379 . S
C2002 N2009 1.356 . S
C2003 C2002 1.363 1_655 S
C2003 C2006 1.363 . S
N2004 C2006 1.356 . S
N2004 H2016 0.984 . S
N2004 H2017 0.985 . S
N2005 C2007 1.356 . S
N2005 H2010 0.984 . S
N2005 H2011 0.985 . S
C2006 C2000 1.379 . S
C2006 C2003 1.363 . S
C2006 N2004 1.356 . S
C2007 C2001 1.363 . S
C2007 C2002 1.379 . S
C2007 N2005 1.356 . S
N2008 C2000 1.356 . S
N2008 H2014 0.984 . S
N2008 H2015 0.984 1_655 S
N2009 C2002 1.356 . S
N2009 H2012 0.984 1_455 S
N2009 H2013 0.985 . S
H2010 N2005 0.984 . S
H2011 N2005 0.985 . S
H2012 N2009 0.984 1_655 S
H2013 N2009 0.985 . S
H2014 N2008 0.984 . S
H2015 N2008 0.984 1_455 S
H2016 N2004 0.984 . S
H2017 N2004 0.985 . S
C2018 C2019 1.363 . S
C2018 C2024 1.379 1_655 S
C2018 N2026 1.356 . S
C2019 C2018 1.363 . S
C2019 C2025 1.363 . S
C2020 C2021 1.363 . S
C2020 C2025 1.379 1_455 S
C2020 N2027 1.356 . S
C2021 C2020 1.363 . S
C2021 C2024 1.363 . S
N2022 C2024 1.356 . S
N2022 H2034 0.984 . S
N2022 H2035 0.985 . S
N2023 C2025 1.356 . S
N2023 H2028 0.984 . S
N2023 H2029 0.985 . S
C2024 C2018 1.379 1_455 S
C2024 C2021 1.363 . S
C2024 N2022 1.356 . S
C2025 C2019 1.363 . S
C2025 C2020 1.379 1_655 S
C2025 N2023 1.356 . S
N2026 C2018 1.356 . S
N2026 H2032 0.984 . S
N2026 H2033 0.984 . S
N2027 C2020 1.356 . S
N2027 H2030 0.984 . S
N2027 H2031 0.985 . S
H2028 N2023 0.984 . S
H2029 N2023 0.985 . S
H2030 N2027 0.984 . S
H2031 N2027 0.985 . S
H2032 N2026 0.984 . S
H2033 N2026 0.984 . S
H2034 N2022 0.984 . S
H2035 N2022 0.985 . S
C2036 C2037 1.363 . S
C2036 C2042 1.379 . S
C2036 N2044 1.356 . S
C2037 C2036 1.363 . S
C2037 C2043 1.363 . S
C2038 C2039 1.363 . S
C2038 C2043 1.379 . S
C2038 N2045 1.356 . S
C2039 C2038 1.363 . S
C2039 C2042 1.363 . S
N2040 C2042 1.356 . S
N2040 H2052 0.984 . S
N2040 H2053 0.985 . S
N2041 C2043 1.356 . S
N2041 H2046 0.984 . S
N2041 H2047 0.985 . S
C2042 C2036 1.379 . S
C2042 C2039 1.363 . S
C2042 N2040 1.356 . S
C2043 C2037 1.363 . S
C2043 C2038 1.379 . S
C2043 N2041 1.356 . S
N2044 C2036 1.356 . S
N2044 H2050 0.984 . S
N2044 H2051 0.984 . S
N2045 C2038 1.356 . S
N2045 H2048 0.984 . S
N2045 H2049 0.985 . S
H2046 N2041 0.984 . S
H2047 N2041 0.985 . S
H2048 N2045 0.984 . S
H2049 N2045 0.985 . S
H2050 N2044 0.984 . S
H2051 N2044 0.984 . S
H2052 N2040 0.984 . S
H2053 N2040 0.985 . S
C2054 C2055 1.363 . S
C2054 C2060 1.379 . S
C2054 N2062 1.356 . S
C2055 C2054 1.363 . S
C2055 C2061 1.363 . S
C2056 C2057 1.363 . S
C2056 C2061 1.379 . S
C2056 N2063 1.356 . S
C2057 C2056 1.363 . S
C2057 C2060 1.363 . S
N2058 C2060 1.356 . S
N2058 H2070 0.984 . S
N2058 H2071 0.985 . S
N2059 C2061 1.356 . S
N2059 H2064 0.984 . S
N2059 H2065 0.985 . S
C2060 C2054 1.379 . S
C2060 C2057 1.363 . S
C2060 N2058 1.356 . S
C2061 C2055 1.363 . S
C2061 C2056 1.379 . S
C2061 N2059 1.356 . S
N2062 C2054 1.356 . S
N2062 H2068 0.984 . S
N2062 H2069 0.984 . S
N2063 C2056 1.356 . S
N2063 H2066 0.984 . S
N2063 H2067 0.985 . S
H2064 N2059 0.984 . S
H2065 N2059 0.985 . S
H2066 N2063 0.984 . S
H2067 N2063 0.985 . S
H2068 N2062 0.984 . S
H2069 N2062 0.984 . S
H2070 N2058 0.984 . S
H2071 N2058 0.985 . S
C2072 C2073 1.363 1_655 S
C2072 C2078 1.379 . S
C2072 N2080 1.356 . S
C2073 C2072 1.363 1_455 S
C2073 C2079 1.363 . S
C2074 C2075 1.363 1_455 S
C2074 C2079 1.379 . S
C2074 N2081 1.356 . S
C2075 C2074 1.363 1_655 S
C2075 C2078 1.363 . S
N2076 C2078 1.356 . S
N2076 H2088 0.984 . S
N2076 H2089 0.985 . S
N2077 C2079 1.356 . S
N2077 H2082 0.984 . S
N2077 H2083 0.985 . S
C2078 C2072 1.379 . S
C2078 C2075 1.363 . S
C2078 N2076 1.356 . S
C2079 C2073 1.363 . S
C2079 C2074 1.379 . S
C2079 N2077 1.356 . S
N2080 C2072 1.356 . S
N2080 H2086 0.984 . S
N2080 H2087 0.984 1_655 S
N2081 C2074 1.356 . S
N2081 H2084 0.984 1_455 S
N2081 H2085 0.985 . S
H2082 N2077 0.984 . S
H2083 N2077 0.985 . S
H2084 N2081 0.984 1_655 S
H2085 N2081 0.985 . S
H2086 N2080 0.984 . S
H2087 N2080 0.984 1_455 S
H2088 N2076 0.984 . S
H2089 N2076 0.985 . S
C2090 C2091 1.363 . S
C2090 C2096 1.379 . S
C2090 N2098 1.356 . S
C2091 C2090 1.363 . S
C2091 C2097 1.363 . S
C2092 C2093 1.363 . S
C2092 C2097 1.379 . S
C2092 N2099 1.356 . S
C2093 C2092 1.363 . S
C2093 C2096 1.363 . S
N2094 C2096 1.356 . S
N2094 H2106 0.984 . S
N2094 H2107 0.985 . S
N2095 C2097 1.356 . S
N2095 H2100 0.984 . S
N2095 H2101 0.985 . S
C2096 C2090 1.379 . S
C2096 C2093 1.363 . S
C2096 N2094 1.356 . S
C2097 C2091 1.363 . S
C2097 C2092 1.379 . S
C2097 N2095 1.356 . S
N2098 C2090 1.356 . S
N2098 H2104 0.984 . S
N2098 H2105 0.984 . S
N2099 C2092 1.356 . S
N2099 H2102 0.984 . S
N2099 H2103 0.985 . S
H2100 N2095 0.984 . S
H2101 N2095 0.985 . S
H2102 N2099 0.984 . S
H2103 N2099 0.985 . S
H2104 N2098 0.984 . S
H2105 N2098 0.984 . S
H2106 N2094 0.984 . S
H2107 N2094 0.985 . S
C2108 C2109 1.363 . S
C2108 C2114 1.379 . S
C2108 N2116 1.356 . S
C2109 C2108 1.363 . S
C2109 C2115 1.363 . S
C2110 C2111 1.363 . S
C2110 C2115 1.379 . S
C2110 N2117 1.356 . S
C2111 C2110 1.363 . S
C2111 C2114 1.363 . S
N2112 C2114 1.356 . S
N2112 H2124 0.984 . S
N2112 H2125 0.985 . S
N2113 C2115 1.356 . S
N2113 H2118 0.984 . S
N2113 H2119 0.985 . S
C2114 C2108 1.379 . S
C2114 C2111 1.363 . S
C2114 N2112 1.356 . S
C2115 C2109 1.363 . S
C2115 C2110 1.379 . S
C2115 N2113 1.356 . S
N2116 C2108 1.356 . S
N2116 H2122 0.984 . S
N2116 H2123 0.984 . S
N2117 C2110 1.356 . S
N2117 H2120 0.984 . S
N2117 H2121 0.985 . S
H2118 N2113 0.984 . S
H2119 N2113 0.985 . S
H2120 N2117 0.984 . S
H2121 N2117 0.985 . S
H2122 N2116 0.984 . S
H2123 N2116 0.984 . S
H2124 N2112 0.984 . S
H2125 N2112 0.985 . S
C2126 C2127 1.363 . S
C2126 C2132 1.379 1_655 S
C2126 N2134 1.356 . S
C2127 C2126 1.363 . S
C2127 C2133 1.363 . S
C2128 C2129 1.363 . S
C2128 C2133 1.379 1_455 S
C2128 N2135 1.356 . S
C2129 C2128 1.363 . S
C2129 C2132 1.363 . S
N2130 C2132 1.356 . S
N2130 H2142 0.984 . S
N2130 H2143 0.985 . S
N2131 C2133 1.356 . S
N2131 H2136 0.984 . S
N2131 H2137 0.985 . S
C2132 C2126 1.379 1_455 S
C2132 C2129 1.363 . S
C2132 N2130 1.356 . S
C2133 C2127 1.363 . S
C2133 C2128 1.379 1_655 S
C2133 N2131 1.356 . S
N2134 C2126 1.356 . S
N2134 H2140 0.984 . S
N2134 H2141 0.984 . S
N2135 C2128 1.356 . S
N2135 H2138 0.984 . S
N2135 H2139 0.985 . S
H2136 N2131 0.984 . S
H2137 N2131 0.985 . S
H2138 N2135 0.984 . S
H2139 N2135 0.985 . S
H2140 N2134 0.984 . S
H2141 N2134 0.984 . S
H2142 N2130 0.984 . S
H2143 N2130 0.985 . S
C2144 C2145 1.363 . S
C2144 C2150 1.379 . S
C2144 N2152 1.356 . S
C2145 C2144 1.363 . S
C2145 C2151 1.363 . S
C2146 C2147 1.363 . S
C2146 C2151 1.379 . S
C2146 N2153 1.356 . S
C2147 C2146 1.363 . S
C2147 C2150 1.363 . S
N2148 C2150 1.356 . S
N2148 H2160 0.984 . S
N2148 H2161 0.985 . S
N2149 C2151 1.356 . S
N2149 H2154 0.984 . S
N2149 H2155 0.985 . S
C2150 C2144 1.379 . S
C2150 C2147 1.363 . S
C2150 N2148 1.356 . S
C2151 C2145 1.363 . S
C2151 C2146 1.379 . S
C2151 N2149 1.356 . S
N2152 C2144 1.356 . S
N2152 H2158 0.984 . S
N2152 H2159 0.984 . S
N2153 C2146 1.356 . S
N2153 H2156 0.984 . S
N2153 H2157 0.985 . S
H2154 N2149 0.984 . S
H2155 N2149 0.985 . S
H2156 N2153 0.984 . S
H2157 N2153 0.985 . S
H2158 N2152 0.984 . S
H2159 N2152 0.984 . S
H2160 N2148 0.984 . S
H2161 N2148 0.985 . S
C2162 C2163 1.363 1_545 S
C2162 C2168 1.379 1_655 S
C2162 N2170 1.356 . S
C2163 C2162 1.363 1_565 S
C2163 C2169 1.363 . S
C2164 C2165 1.363 1_565 S
C2164 C2169 1.379 1_455 S
C2164 N2171 1.356 . S
C2165 C2164 1.363 1_545 S
C2165 C2168 1.363 . S
N2166 C2168 1.356 . S
N2166 H2178 0.984 . S
N2166 H2179 0.985 . S
N2167 C2169 1.356 . S
N2167 H2172 0.984 . S
N2167 H2173 0.985 . S
C2168 C2162 1.379 1_455 S
C2168 C2165 1.363 . S
C2168 N2166 1.356 . S
C2169 C2163 1.363 . S
C2169 C2164 1.379 1_655 S
C2169 N2167 1.356 . S
N2170 C2162 1.356 . S
N2170 H2176 0.984 . S
N2170 H2177 0.984 . S
N2171 C2164 1.356 . S
N2171 H2174 0.984 . S
N2171 H2175 0.985 . S
H2172 N2167 0.984 . S
H2173 N2167 0.985 . S
H2174 N2171 0.984 . S
H2175 N2171 0.985 . S
H2176 N2170 0.984 . S
H2177 N2170 0.984 . S
H2178 N2166 0.984 . S
H2179 N2166 0.985 . S
C2180 C2181 1.363 . S
C2180 C2186 1.379 . S
C2180 N2188 1.356 . S
C2181 C2180 1.363 . S
C2181 C2187 1.363 . S
C2182 C2183 1.363 . S
C2182 C2187 1.379 . S
C2182 N2189 1.356 . S
C2183 C2182 1.363 . S
C2183 C2186 1.363 . S
N2184 C2186 1.356 . S
N2184 H2196 0.984 . S
N2184 H2197 0.985 . S
N2185 C2187 1.356 . S
N2185 H2190 0.984 . S
N2185 H2191 0.985 . S
C2186 C2180 1.379 . S
C2186 C2183 1.363 . S
C2186 N2184 1.356 . S
C2187 C2181 1.363 . S
C2187 C2182 1.379 . S
C2187 N2185 1.356 . S
N2188 C2180 1.356 . S
N2188 H2194 0.984 . S
N2188 H2195 0.984 . S
N2189 C2182 1.356 . S
N2189 H2192 0.984 . S
N2189 H2193 0.985 . S
H2190 N2185 0.984 . S
H2191 N2185 0.985 . S
H2192 N2189 0.984 . S
H2193 N2189 0.985 . S
H2194 N2188 0.984 . S
H2195 N2188 0.984 . S
H2196 N2184 0.984 . S
H2197 N2184 0.985 . S
C2198 C2199 1.368 . S
C2198 C2204 1.379 . S
C2198 N2206 1.356 . S
C2199 C2198 1.368 . S
C2199 C2205 1.358 1_566 S
C2200 C2201 1.368 . S
C2200 C2205 1.379 . S
C2200 N2207 1.356 . S
C2201 C2200 1.368 . S
C2201 C2204 1.358 1_544 S
N2202 C2204 1.356 . S
N2202 H2214 0.984 . S
N2202 H2215 0.985 . S
N2203 C2205 1.356 . S
N2203 H2208 0.984 . S
N2203 H2209 0.985 . S
C2204 C2198 1.379 . S
C2204 C2201 1.358 1_566 S
C2204 N2202 1.356 . S
C2205 C2199 1.358 1_544 S
C2205 C2200 1.379 . S
C2205 N2203 1.356 . S
N2206 C2198 1.356 . S
N2206 H2212 0.984 . S
N2206 H2213 0.984 . S
N2207 C2200 1.356 . S
N2207 H2210 0.984 . S
N2207 H2211 0.985 . S
H2208 N2203 0.984 . S
H2209 N2203 0.985 . S
H2210 N2207 0.984 . S
H2211 N2207 0.985 . S
H2212 N2206 0.984 . S
H2213 N2206 0.984 . S
H2214 N2202 0.984 . S
H2215 N2202 0.985 . S
C2216 C2217 1.363 . S
C2216 C2222 1.379 . S
C2216 N2224 1.356 . S
C2217 C2216 1.363 . S
C2217 C2223 1.363 . S
C2218 C2219 1.363 . S
C2218 C2223 1.379 . S
C2218 N2225 1.356 . S
C2219 C2218 1.363 . S
C2219 C2222 1.363 . S
N2220 C2222 1.356 . S
N2220 H2232 0.984 . S
N2220 H2233 0.985 . S
N2221 C2223 1.356 . S
N2221 H2226 0.984 . S
N2221 H2227 0.985 . S
C2222 C2216 1.379 . S
C2222 C2219 1.363 . S
C2222 N2220 1.356 . S
C2223 C2217 1.363 . S
C2223 C2218 1.379 . S
C2223 N2221 1.356 . S
N2224 C2216 1.356 . S
N2224 H2230 0.984 . S
N2224 H2231 0.984 . S
N2225 C2218 1.356 . S
N2225 H2228 0.984 . S
N2225 H2229 0.985 . S
H2226 N2221 0.984 . S
H2227 N2221 0.985 . S
H2228 N2225 0.984 . S
H2229 N2225 0.985 . S
H2230 N2224 0.984 . S
H2231 N2224 0.984 . S
H2232 N2220 0.984 . S
H2233 N2220 0.985 . S
C2234 C2235 1.363 1_545 S
C2234 C2240 1.379 . S
C2234 N2242 1.356 . S
C2235 C2234 1.363 1_565 S
C2235 C2241 1.363 . S
C2236 C2237 1.363 1_565 S
C2236 C2241 1.379 . S
C2236 N2243 1.356 . S
C2237 C2236 1.363 1_545 S
C2237 C2240 1.363 . S
N2238 C2240 1.356 . S
N2238 H2250 0.984 . S
N2238 H2251 0.985 . S
N2239 C2241 1.356 . S
N2239 H2244 0.984 . S
N2239 H2245 0.985 . S
C2240 C2234 1.379 . S
C2240 C2237 1.363 . S
C2240 N2238 1.356 . S
C2241 C2235 1.363 . S
C2241 C2236 1.379 . S
C2241 N2239 1.356 . S
N2242 C2234 1.356 . S
N2242 H2248 0.984 . S
N2242 H2249 0.984 . S
N2243 C2236 1.356 . S
N2243 H2246 0.984 . S
N2243 H2247 0.985 . S
H2244 N2239 0.984 . S
H2245 N2239 0.985 . S
H2246 N2243 0.984 . S
H2247 N2243 0.985 . S
H2248 N2242 0.984 . S
H2249 N2242 0.984 . S
H2250 N2238 0.984 . S
H2251 N2238 0.985 . S
C2252 C2253 1.363 . S
C2252 C2258 1.379 . S
C2252 N2260 1.356 . S
C2253 C2252 1.363 . S
C2253 C2259 1.363 . S
C2254 C2255 1.363 . S
C2254 C2259 1.379 . S
C2254 N2261 1.356 . S
C2255 C2254 1.363 . S
C2255 C2258 1.363 . S
N2256 C2258 1.356 . S
N2256 H2268 0.984 . S
N2256 H2269 0.985 . S
N2257 C2259 1.356 . S
N2257 H2262 0.984 . S
N2257 H2263 0.985 . S
C2258 C2252 1.379 . S
C2258 C2255 1.363 . S
C2258 N2256 1.356 . S
C2259 C2253 1.363 . S
C2259 C2254 1.379 . S
C2259 N2257 1.356 . S
N2260 C2252 1.356 . S
N2260 H2266 0.984 . S
N2260 H2267 0.984 . S
N2261 C2254 1.356 . S
N2261 H2264 0.984 . S
N2261 H2265 0.985 . S
H2262 N2257 0.984 . S
H2263 N2257 0.985 . S
H2264 N2261 0.984 . S
H2265 N2261 0.985 . S
H2266 N2260 0.984 . S
H2267 N2260 0.984 . S
H2268 N2256 0.984 . S
H2269 N2256 0.985 . S
C2270 C2271 1.369 . S
C2270 C2276 1.379 1_455 S
C2270 N2278 1.356 . S
C2271 C2270 1.369 . S
C2271 C2277 1.357 1_564 S
C2272 C2273 1.369 . S
C2272 C2277 1.379 1_655 S
C2272 N2279 1.356 . S
C2273 C2272 1.369 . S
C2273 C2276 1.357 1_546 S
N2274 C2276 1.356 . S
N2274 H2286 0.984 . S
N2274 H2287 0.985 . S
N2275 C2277 1.356 . S
N2275 H2280 0.984 . S
N2275 H2281 0.985 . S
C2276 C2270 1.379 1_655 S
C2276 C2273 1.357 1_564 S
C2276 N2274 1.356 . S
C2277 C2271 1.357 1_546 S
C2277 C2272 1.379 1_455 S
C2277 N2275 1.356 . S
N2278 C2270 1.356 . S
N2278 H2284 0.984 . S
N2278 H2285 0.984 . S
N2279 C2272 1.356 . S
N2279 H2282 0.984 . S
N2279 H2283 0.985 . S
H2280 N2275 0.984 . S
H2281 N2275 0.985 . S
H2282 N2279 0.984 . S
H2283 N2279 0.985 . S
H2284 N2278 0.984 . S
H2285 N2278 0.984 . S
H2286 N2274 0.984 . S
H2287 N2274 0.985 . S
C2288 C2289 1.363 . S
C2288 C2294 1.379 . S
C2288 N2296 1.356 . S
C2289 C2288 1.363 . S
C2289 C2295 1.363 . S
C2290 C2291 1.363 . S
C2290 C2295 1.379 . S
C2290 N2297 1.356 . S
C2291 C2290 1.363 . S
C2291 C2294 1.363 . S
N2292 C2294 1.356 . S
N2292 H2304 0.984 . S
N2292 H2305 0.985 . S
N2293 C2295 1.356 . S
N2293 H2298 0.984 . S
N2293 H2299 0.985 . S
C2294 C2288 1.379 . S
C2294 C2291 1.363 . S
C2294 N2292 1.356 . S
C2295 C2289 1.363 . S
C2295 C2290 1.379 . S
C2295 N2293 1.356 . S
N2296 C2288 1.356 . S
N2296 H2302 0.984 . S
N2296 H2303 0.984 . S
N2297 C2290 1.356 . S
N2297 H2300 0.984 . S
N2297 H2301 0.985 . S
H2298 N2293 0.984 . S
H2299 N2293 0.985 . S
H2300 N2297 0.984 . S
H2301 N2297 0.985 . S
H2302 N2296 0.984 . S
H2303 N2296 0.984 . S
H2304 N2292 0.984 . S
H2305 N2292 0.985 . S
C2306 C2307 1.363 . S
C2306 C2312 1.379 . S
C2306 N2314 1.356 . S
C2307 C2306 1.363 . S
C2307 C2313 1.363 . S
C2308 C2309 1.363 . S
C2308 C2313 1.379 . S
C2308 N2315 1.356 . S
C2309 C2308 1.363 . S
C2309 C2312 1.363 . S
N2310 C2312 1.356 . S
N2310 H2322 0.984 . S
N2310 H2323 0.985 . S
N2311 C2313 1.356 . S
N2311 H2316 0.984 . S
N2311 H2317 0.985 . S
C2312 C2306 1.379 . S
C2312 C2309 1.363 . S
C2312 N2310 1.356 . S
C2313 C2307 1.363 . S
C2313 C2308 1.379 . S
C2313 N2311 1.356 . S
N2314 C2306 1.356 . S
N2314 H2320 0.984 . S
N2314 H2321 0.984 . S
N2315 C2308 1.356 . S
N2315 H2318 0.984 . S
N2315 H2319 0.985 . S
H2316 N2311 0.984 . S
H2317 N2311 0.985 . S
H2318 N2315 0.984 . S
H2319 N2315 0.985 . S
H2320 N2314 0.984 . S
H2321 N2314 0.984 . S
H2322 N2310 0.984 . S
H2323 N2310 0.985 . S
C2324 C2325 1.363 . S
C2324 C2330 1.379 . S
C2324 N2332 1.356 . S
C2325 C2324 1.363 . S
C2325 C2331 1.363 . S
C2326 C2327 1.363 . S
C2326 C2331 1.379 . S
C2326 N2333 1.356 . S
C2327 C2326 1.363 . S
C2327 C2330 1.363 . S
N2328 C2330 1.356 . S
N2328 H2340 0.984 . S
N2328 H2341 0.985 . S
N2329 C2331 1.356 . S
N2329 H2334 0.984 . S
N2329 H2335 0.985 . S
C2330 C2324 1.379 . S
C2330 C2327 1.363 . S
C2330 N2328 1.356 . S
C2331 C2325 1.363 . S
C2331 C2326 1.379 . S
C2331 N2329 1.356 . S
N2332 C2324 1.356 . S
N2332 H2338 0.984 . S
N2332 H2339 0.984 . S
N2333 C2326 1.356 . S
N2333 H2336 0.984 . S
N2333 H2337 0.985 . S
H2334 N2329 0.984 . S
H2335 N2329 0.985 . S
H2336 N2333 0.984 . S
H2337 N2333 0.985 . S
H2338 N2332 0.984 . S
H2339 N2332 0.984 . S
H2340 N2328 0.984 . S
H2341 N2328 0.985 . S
C2342 C2343 1.363 . S
C2342 C2348 1.379 . S
C2342 N2350 1.356 . S
C2343 C2342 1.363 . S
C2343 C2349 1.363 . S
C2344 C2345 1.363 . S
C2344 C2349 1.379 . S
C2344 N2351 1.356 . S
C2345 C2344 1.363 . S
C2345 C2348 1.363 . S
N2346 C2348 1.356 . S
N2346 H2358 0.984 . S
N2346 H2359 0.985 . S
N2347 C2349 1.356 . S
N2347 H2352 0.984 . S
N2347 H2353 0.985 . S
C2348 C2342 1.379 . S
C2348 C2345 1.363 . S
C2348 N2346 1.356 . S
C2349 C2343 1.363 . S
C2349 C2344 1.379 . S
C2349 N2347 1.356 . S
N2350 C2342 1.356 . S
N2350 H2356 0.984 . S
N2350 H2357 0.984 . S
N2351 C2344 1.356 . S
N2351 H2354 0.984 . S
N2351 H2355 0.985 . S
H2352 N2347 0.984 . S
H2353 N2347 0.985 . S
H2354 N2351 0.984 . S
H2355 N2351 0.985 . S
H2356 N2350 0.984 . S
H2357 N2350 0.984 . S
H2358 N2346 0.984 . S
H2359 N2346 0.985 . S
C2360 C2361 1.358 1_554 S
C2360 C2366 1.379 . S
C2360 N2368 1.356 . S
C2361 C2360 1.358 1_556 S
C2361 C2367 1.368 . S
C2362 C2363 1.357 1_556 S
C2362 C2367 1.379 . S
C2362 N2369 1.356 . S
C2363 C2362 1.357 1_554 S
C2363 C2366 1.368 . S
N2364 C2366 1.356 . S
N2364 H2376 0.984 . S
N2364 H2377 0.985 . S
N2365 C2367 1.356 . S
N2365 H2370 0.984 . S
N2365 H2371 0.985 . S
C2366 C2360 1.379 . S
C2366 C2363 1.368 . S
C2366 N2364 1.356 . S
C2367 C2361 1.368 . S
C2367 C2362 1.379 . S
C2367 N2365 1.356 . S
N2368 C2360 1.356 . S
N2368 H2374 0.984 . S
N2368 H2375 0.984 . S
N2369 C2362 1.356 . S
N2369 H2372 0.984 . S
N2369 H2373 0.985 . S
H2370 N2365 0.984 . S
H2371 N2365 0.985 . S
H2372 N2369 0.984 . S
H2373 N2369 0.985 . S
H2374 N2368 0.984 . S
H2375 N2368 0.984 . S
H2376 N2364 0.984 . S
H2377 N2364 0.985 . S
C2378 C2379 1.363 . S
C2378 C2384 1.379 1_655 S
C2378 N2386 1.356 . S
C2379 C2378 1.363 . S
C2379 C2385 1.363 . S
C2380 C2381 1.363 . S
C2380 C2385 1.379 1_455 S
C2380 N2387 1.356 . S
C2381 C2380 1.363 . S
C2381 C2384 1.363 . S
N2382 C2384 1.356 . S
N2382 H2394 0.984 . S
N2382 H2395 0.985 . S
N2383 C2385 1.356 . S
N2383 H2388 0.984 . S
N2383 H2389 0.985 . S
C2384 C2378 1.379 1_455 S
C2384 C2381 1.363 . S
C2384 N2382 1.356 . S
C2385 C2379 1.363 . S
C2385 C2380 1.379 1_655 S
C2385 N2383 1.356 . S
N2386 C2378 1.356 . S
N2386 H2392 0.984 . S
N2386 H2393 0.984 . S
N2387 C2380 1.356 . S
N2387 H2390 0.984 . S
N2387 H2391 0.985 . S
H2388 N2383 0.984 . S
H2389 N2383 0.985 . S
H2390 N2387 0.984 . S
H2391 N2387 0.985 . S
H2392 N2386 0.984 . S
H2393 N2386 0.984 . S
H2394 N2382 0.984 . S
H2395 N2382 0.985 . S
C2396 C2397 1.366 . S
C2396 C2402 1.379 1_455 S
C2396 N2404 1.356 . S
C2397 C2396 1.366 . S
C2397 C2403 1.360 1_556 S
C2398 C2399 1.366 . S
C2398 C2403 1.379 1_655 S
C2398 N2405 1.356 . S
C2399 C2398 1.366 . S
C2399 C2402 1.360 1_554 S
N2400 C2402 1.356 . S
N2400 H2412 0.984 . S
N2400 H2413 0.985 . S
N2401 C2403 1.356 . S
N2401 H2406 0.984 . S
N2401 H2407 0.985 . S
C2402 C2396 1.379 1_655 S
C2402 C2399 1.360 1_556 S
C2402 N2400 1.356 . S
C2403 C2397 1.360 1_554 S
C2403 C2398 1.379 1_455 S
C2403 N2401 1.356 . S
N2404 C2396 1.356 . S
N2404 H2410 0.984 . S
N2404 H2411 0.984 . S
N2405 C2398 1.356 . S
N2405 H2408 0.984 . S
N2405 H2409 0.985 . S
H2406 N2401 0.984 . S
H2407 N2401 0.985 . S
H2408 N2405 0.984 . S
H2409 N2405 0.985 . S
H2410 N2404 0.984 . S
H2411 N2404 0.984 . S
H2412 N2400 0.984 . S
H2413 N2400 0.985 . S
C2414 C2415 1.363 . S
C2414 C2420 1.379 . S
C2414 N2422 1.356 . S
C2415 C2414 1.363 . S
C2415 C2421 1.363 . S
C2416 C2417 1.363 . S
C2416 C2421 1.379 . S
C2416 N2423 1.356 . S
C2417 C2416 1.363 . S
C2417 C2420 1.363 . S
N2418 C2420 1.356 . S
N2418 H2430 0.984 . S
N2418 H2431 0.985 . S
N2419 C2421 1.356 . S
N2419 H2424 0.984 . S
N2419 H2425 0.985 . S
C2420 C2414 1.379 . S
C2420 C2417 1.363 . S
C2420 N2418 1.356 . S
C2421 C2415 1.363 . S
C2421 C2416 1.379 . S
C2421 N2419 1.356 . S
N2422 C2414 1.356 . S
N2422 H2428 0.984 . S
N2422 H2429 0.984 . S
N2423 C2416 1.356 . S
N2423 H2426 0.984 . S
N2423 H2427 0.985 . S
H2424 N2419 0.984 . S
H2425 N2419 0.985 . S
H2426 N2423 0.984 . S
H2427 N2423 0.985 . S
H2428 N2422 0.984 . S
H2429 N2422 0.984 . S
H2430 N2418 0.984 . S
H2431 N2418 0.985 . S
C2432 C2433 1.363 . S
C2432 C2438 1.379 . S
C2432 N2440 1.356 . S
C2433 C2432 1.363 . S
C2433 C2439 1.363 . S
C2434 C2435 1.363 . S
C2434 C2439 1.379 . S
C2434 N2441 1.356 . S
C2435 C2434 1.363 . S
C2435 C2438 1.363 . S
N2436 C2438 1.356 . S
N2436 H2448 0.984 . S
N2436 H2449 0.985 . S
N2437 C2439 1.356 . S
N2437 H2442 0.984 1_565 S
N2437 H2443 0.986 . S
C2438 C2432 1.379 . S
C2438 C2435 1.363 . S
C2438 N2436 1.356 . S
C2439 C2433 1.363 . S
C2439 C2434 1.379 . S
C2439 N2437 1.356 . S
N2440 C2432 1.356 . S
N2440 H2446 0.984 . S
N2440 H2447 0.984 . S
N2441 C2434 1.356 . S
N2441 H2444 0.984 . S
N2441 H2445 0.985 . S
H2442 N2437 0.984 1_545 S
H2443 N2437 0.986 . S
H2444 N2441 0.984 . S
H2445 N2441 0.985 . S
H2446 N2440 0.984 . S
H2447 N2440 0.984 . S
H2448 N2436 0.984 . S
H2449 N2436 0.985 . S
C2450 C2451 1.363 . S
C2450 C2456 1.379 . S
C2450 N2458 1.356 . S
C2451 C2450 1.363 . S
C2451 C2457 1.363 1_565 S
C2452 C2453 1.363 . S
C2452 C2457 1.379 1_565 S
C2452 N2459 1.356 1_565 S
C2453 C2452 1.363 . S
C2453 C2456 1.363 . S
N2454 C2456 1.356 . S
N2454 H2466 0.984 . S
N2454 H2467 0.985 . S
N2455 C2457 1.356 . S
N2455 H2460 0.984 . S
N2455 H2461 0.985 . S
C2456 C2450 1.379 . S
C2456 C2453 1.363 . S
C2456 N2454 1.356 . S
C2457 C2451 1.363 1_545 S
C2457 C2452 1.379 1_545 S
C2457 N2455 1.356 . S
N2458 C2450 1.356 . S
N2458 H2464 0.984 . S
N2458 H2465 0.984 . S
N2459 C2452 1.356 1_545 S
N2459 H2462 0.984 1_545 S
N2459 H2463 0.985 . S
H2460 N2455 0.984 . S
H2461 N2455 0.985 . S
H2462 N2459 0.984 1_565 S
H2463 N2459 0.985 . S
H2464 N2458 0.984 . S
H2465 N2458 0.984 . S
H2466 N2454 0.984 . S
H2467 N2454 0.985 . S
C2468 C2469 1.363 . S
C2468 C2474 1.379 . S
C2468 N2476 1.356 . S
C2469 C2468 1.363 . S
C2469 C2475 1.363 . S
C2470 C2471 1.363 1_565 S
C2470 C2475 1.379 1_565 S
C2470 N2477 1.356 . S
C2471 C2470 1.363 1_545 S
C2471 C2474 1.363 . S
N2472 C2474 1.356 . S
N2472 H2484 0.984 . S
N2472 H2485 0.985 . S
N2473 C2475 1.356 . S
N2473 H2478 0.984 . S
N2473 H2479 0.985 1_545 S
C2474 C2468 1.379 . S
C2474 C2471 1.363 . S
C2474 N2472 1.356 . S
C2475 C2469 1.363 . S
C2475 C2470 1.379 1_545 S
C2475 N2473 1.356 . S
N2476 C2468 1.356 . S
N2476 H2482 0.984 . S
N2476 H2483 0.984 . S
N2477 C2470 1.356 . S
N2477 H2480 0.984 . S
N2477 H2481 0.985 . S
H2478 N2473 0.984 . S
H2479 N2473 0.985 1_565 S
H2480 N2477 0.984 . S
H2481 N2477 0.985 . S
H2482 N2476 0.984 . S
H2483 N2476 0.984 . S
H2484 N2472 0.984 . S
H2485 N2472 0.985 . S
C2486 C2487 1.363 . S
C2486 C2492 1.379 . S
C2486 N2494 1.356 . S
C2487 C2486 1.363 . S
C2487 C2493 1.363 1_545 S
C2488 C2489 1.363 . S
C2488 C2493 1.379 1_545 S
C2488 N2495 1.356 1_545 S
C2489 C2488 1.363 . S
C2489 C2492 1.363 . S
N2490 C2492 1.356 . S
N2490 H2502 0.984 . S
N2490 H2503 0.985 . S
N2491 C2493 1.356 . S
N2491 H2496 0.984 . S
N2491 H2497 0.985 . S
C2492 C2486 1.379 . S
C2492 C2489 1.363 . S
C2492 N2490 1.356 . S
C2493 C2487 1.363 1_565 S
C2493 C2488 1.379 1_565 S
C2493 N2491 1.356 . S
N2494 C2486 1.356 . S
N2494 H2500 0.984 . S
N2494 H2501 0.984 . S
N2495 C2488 1.356 1_565 S
N2495 H2498 0.984 1_565 S
N2495 H2499 0.985 . S
H2496 N2491 0.984 . S
H2497 N2491 0.985 . S
H2498 N2495 0.984 1_545 S
H2499 N2495 0.985 . S
H2500 N2494 0.984 . S
H2501 N2494 0.984 . S
H2502 N2490 0.984 . S
H2503 N2490 0.985 . S
C2504 C2505 1.363 . S
C2504 C2510 1.379 . S
C2504 N2512 1.356 1_545 S
C2505 C2504 1.363 . S
C2505 C2511 1.363 . S
C2506 C2507 1.363 . S
C2506 C2511 1.379 . S
C2506 N2513 1.356 . S
C2507 C2506 1.363 . S
C2507 C2510 1.363 . S
N2508 C2510 1.356 . S
N2508 H2520 0.984 . S
N2508 H2521 0.985 . S
N2509 C2511 1.356 . S
N2509 H2514 0.984 . S
N2509 H2515 0.985 . S
C2510 C2504 1.379 . S
C2510 C2507 1.363 . S
C2510 N2508 1.356 . S
C2511 C2505 1.363 . S
C2511 C2506 1.379 . S
C2511 N2509 1.356 . S
N2512 C2504 1.356 1_565 S
N2512 H2518 0.984 . S
N2512 H2519 0.984 . S
N2513 C2506 1.356 . S
N2513 H2516 0.984 . S
N2513 H2517 0.985 . S
H2514 N2509 0.984 . S
H2515 N2509 0.985 . S
H2516 N2513 0.984 . S
H2517 N2513 0.985 . S
H2518 N2512 0.984 . S
H2519 N2512 0.984 . S
H2520 N2508 0.984 . S
H2521 N2508 0.985 . S
C2522 C2523 1.363 . S
C2522 C2528 1.379 . S
C2522 N2530 1.356 . S
C2523 C2522 1.363 . S
C2523 C2529 1.363 . S
C2524 C2525 1.363 1_565 S
C2524 C2529 1.379 1_565 S
C2524 N2531 1.356 . S
C2525 C2524 1.363 1_545 S
C2525 C2528 1.363 . S
N2526 C2528 1.356 . S
N2526 H2538 0.984 . S
N2526 H2539 0.985 . S
N2527 C2529 1.356 . S
N2527 H2532 0.984 . S
N2527 H2533 0.985 1_545 S
C2528 C2522 1.379 . S
C2528 C2525 1.363 . S
C2528 N2526 1.356 . S
C2529 C2523 1.363 . S
C2529 C2524 1.379 1_545 S
C2529 N2527 1.356 . S
N2530 C2522 1.356 . S
N2530 H2536 0.984 . S
N2530 H2537 0.984 . S
N2531 C2524 1.356 . S
N2531 H2534 0.984 . S
N2531 H2535 0.985 . S
H2532 N2527 0.984 . S
H2533 N2527 0.985 1_565 S
H2534 N2531 0.984 . S
H2535 N2531 0.985 . S
H2536 N2530 0.984 . S
H2537 N2530 0.984 . S
H2538 N2526 0.984 . S
H2539 N2526 0.985 . S
C2540 C2541 1.363 . S
C2540 C2546 1.379 . S
C2540 N2548 1.356 . S
C2541 C2540 1.363 . S
C2541 C2547 1.363 . S
C2542 C2543 1.363 1_545 S
C2542 C2547 1.379 1_545 S
C2542 N2549 1.356 . S
C2543 C2542 1.363 1_565 S
C2543 C2546 1.363 . S
N2544 C2546 1.356 . S
N2544 H2556 0.984 . S
N2544 H2557 0.985 . S
N2545 C2547 1.356 1_545 S
N2545 H2550 0.984 1_545 S
N2545 H2551 0.985 . S
C2546 C2540 1.379 . S
C2546 C2543 1.363 . S
C2546 N2544 1.356 . S
C2547 C2541 1.363 . S
C2547 C2542 1.379 1_565 S
C2547 N2545 1.356 1_565 S
N2548 C2540 1.356 . S
N2548 H2554 0.984 . S
N2548 H2555 0.984 . S
N2549 C2542 1.356 . S
N2549 H2552 0.984 . S
N2549 H2553 0.985 . S
H2550 N2545 0.984 1_565 S
H2551 N2545 0.985 . S
H2552 N2549 0.984 . S
H2553 N2549 0.985 . S
H2554 N2548 0.984 . S
H2555 N2548 0.984 . S
H2556 N2544 0.984 . S
H2557 N2544 0.985 . S
C2558 C2559 1.363 . S
C2558 C2564 1.379 . S
C2558 N2566 1.356 . S
C2559 C2558 1.363 . S
C2559 C2565 1.363 . S
C2560 C2561 1.363 1_545 S
C2560 C2565 1.379 1_545 S
C2560 N2567 1.356 . S
C2561 C2560 1.363 1_565 S
C2561 C2564 1.363 . S
N2562 C2564 1.356 . S
N2562 H2574 0.984 . S
N2562 H2575 0.985 . S
N2563 C2565 1.357 1_545 S
N2563 H2568 0.985 1_545 S
N2563 H2569 0.984 . S
C2564 C2558 1.379 . S
C2564 C2561 1.363 . S
C2564 N2562 1.356 . S
C2565 C2559 1.363 . S
C2565 C2560 1.379 1_565 S
C2565 N2563 1.357 1_565 S
N2566 C2558 1.356 . S
N2566 H2572 0.984 . S
N2566 H2573 0.984 . S
N2567 C2560 1.356 . S
N2567 H2570 0.984 . S
N2567 H2571 0.985 . S
H2568 N2563 0.985 1_565 S
H2569 N2563 0.984 . S
H2570 N2567 0.984 . S
H2571 N2567 0.985 . S
H2572 N2566 0.984 . S
H2573 N2566 0.984 . S
H2574 N2562 0.984 . S
H2575 N2562 0.985 . S
C2576 C2577 1.363 . S
C2576 C2582 1.379 . S
C2576 N2584 1.356 . S
C2577 C2576 1.363 . S
C2577 C2583 1.363 . S
C2578 C2579 1.363 . S
C2578 C2583 1.379 . S
C2578 N2585 1.356 . S
C2579 C2578 1.363 . S
C2579 C2582 1.363 . S
N2580 C2582 1.356 . S
N2580 H2592 0.984 . S
N2580 H2593 0.985 . S
N2581 C2583 1.356 . S
N2581 H2586 0.984 . S
N2581 H2587 0.985 . S
C2582 C2576 1.379 . S
C2582 C2579 1.363 . S
C2582 N2580 1.356 . S
C2583 C2577 1.363 . S
C2583 C2578 1.379 . S
C2583 N2581 1.356 . S
N2584 C2576 1.356 . S
N2584 H2590 0.984 . S
N2584 H2591 0.984 . S
N2585 C2578 1.356 . S
N2585 H2588 0.984 . S
N2585 H2589 0.985 . S
H2586 N2581 0.984 . S
H2587 N2581 0.985 . S
H2588 N2585 0.984 . S
H2589 N2585 0.985 . S
H2590 N2584 0.984 . S
H2591 N2584 0.984 . S
H2592 N2580 0.984 . S
H2593 N2580 0.985 . S
C2594 C2595 1.363 . S
C2594 C2600 1.379 . S
C2594 N2602 1.356 . S
C2595 C2594 1.363 . S
C2595 C2601 1.363 . S
C2596 C2597 1.363 . S
C2596 C2601 1.379 . S
C2596 N2603 1.356 . S
C2597 C2596 1.363 . S
C2597 C2600 1.363 . S
N2598 C2600 1.356 . S
N2598 H2610 0.984 . S
N2598 H2611 0.985 . S
N2599 C2601 1.356 . S
N2599 H2604 0.984 . S
N2599 H2605 0.985 . S
C2600 C2594 1.379 . S
C2600 C2597 1.363 . S
C2600 N2598 1.356 . S
C2601 C2595 1.363 . S
C2601 C2596 1.379 . S
C2601 N2599 1.356 . S
N2602 C2594 1.356 . S
N2602 H2608 0.984 . S
N2602 H2609 0.984 . S
N2603 C2596 1.356 . S
N2603 H2606 0.984 . S
N2603 H2607 0.985 . S
H2604 N2599 0.984 . S
H2605 N2599 0.985 . S
H2606 N2603 0.984 . S
H2607 N2603 0.985 . S
H2608 N2602 0.984 . S
H2609 N2602 0.984 . S
H2610 N2598 0.984 . S
H2611 N2598 0.985 . S
C2612 C2613 1.363 . S
C2612 C2618 1.379 . S
C2612 N2620 1.356 . S
C2613 C2612 1.363 . S
C2613 C2619 1.363 . S
C2614 C2615 1.363 . S
C2614 C2619 1.379 . S
C2614 N2621 1.356 . S
C2615 C2614 1.363 . S
C2615 C2618 1.363 . S
N2616 C2618 1.356 . S
N2616 H2628 0.984 . S
N2616 H2629 0.985 . S
N2617 C2619 1.356 . S
N2617 H2622 0.984 . S
N2617 H2623 0.985 . S
C2618 C2612 1.379 . S
C2618 C2615 1.363 . S
C2618 N2616 1.356 . S
C2619 C2613 1.363 . S
C2619 C2614 1.379 . S
C2619 N2617 1.356 . S
N2620 C2612 1.356 . S
N2620 H2626 0.984 . S
N2620 H2627 0.984 . S
N2621 C2614 1.356 . S
N2621 H2624 0.984 . S
N2621 H2625 0.985 . S
H2622 N2617 0.984 . S
H2623 N2617 0.985 . S
H2624 N2621 0.984 . S
H2625 N2621 0.985 . S
H2626 N2620 0.984 . S
H2627 N2620 0.984 . S
H2628 N2616 0.984 . S
H2629 N2616 0.985 . S
C2630 C2631 1.363 . S
C2630 C2636 1.379 . S
C2630 N2638 1.356 . S
C2631 C2630 1.363 . S
C2631 C2637 1.363 . S
C2632 C2633 1.363 . S
C2632 C2637 1.379 . S
C2632 N2639 1.356 . S
C2633 C2632 1.363 . S
C2633 C2636 1.363 . S
N2634 C2636 1.356 . S
N2634 H2646 0.984 . S
N2634 H2647 0.985 . S
N2635 C2637 1.356 . S
N2635 H2640 0.984 . S
N2635 H2641 0.985 . S
C2636 C2630 1.379 . S
C2636 C2633 1.363 . S
C2636 N2634 1.356 . S
C2637 C2631 1.363 . S
C2637 C2632 1.379 . S
C2637 N2635 1.356 . S
N2638 C2630 1.356 . S
N2638 H2644 0.984 . S
N2638 H2645 0.984 . S
N2639 C2632 1.356 . S
N2639 H2642 0.984 . S
N2639 H2643 0.985 . S
H2640 N2635 0.984 . S
H2641 N2635 0.985 . S
H2642 N2639 0.984 . S
H2643 N2639 0.985 . S
H2644 N2638 0.984 . S
H2645 N2638 0.984 . S
H2646 N2634 0.984 . S
H2647 N2634 0.985 . S
C2648 C2649 1.363 . S
C2648 C2654 1.379 . S
C2648 N2656 1.356 . S
C2649 C2648 1.363 . S
C2649 C2655 1.363 . S
C2650 C2651 1.363 . S
C2650 C2655 1.379 . S
C2650 N2657 1.356 . S
C2651 C2650 1.363 . S
C2651 C2654 1.363 . S
N2652 C2654 1.356 . S
N2652 H2664 0.984 . S
N2652 H2665 0.985 . S
N2653 C2655 1.356 . S
N2653 H2658 0.984 . S
N2653 H2659 0.985 . S
C2654 C2648 1.379 . S
C2654 C2651 1.363 . S
C2654 N2652 1.356 . S
C2655 C2649 1.363 . S
C2655 C2650 1.379 . S
C2655 N2653 1.356 . S
N2656 C2648 1.356 . S
N2656 H2662 0.984 . S
N2656 H2663 0.984 . S
N2657 C2650 1.356 . S
N2657 H2660 0.984 . S
N2657 H2661 0.985 . S
H2658 N2653 0.984 . S
H2659 N2653 0.985 . S
H2660 N2657 0.984 . S
H2661 N2657 0.985 . S
H2662 N2656 0.984 . S
H2663 N2656 0.984 . S
H2664 N2652 0.984 . S
H2665 N2652 0.985 . S
C2666 C2667 1.363 . S
C2666 C2672 1.379 . S
C2666 N2674 1.356 . S
C2667 C2666 1.363 . S
C2667 C2673 1.363 . S
C2668 C2669 1.363 . S
C2668 C2673 1.379 . S
C2668 N2675 1.356 . S
C2669 C2668 1.363 . S
C2669 C2672 1.363 . S
N2670 C2672 1.356 . S
N2670 H2682 0.984 . S
N2670 H2683 0.985 . S
N2671 C2673 1.356 . S
N2671 H2676 0.984 . S
N2671 H2677 0.985 . S
C2672 C2666 1.379 . S
C2672 C2669 1.363 . S
C2672 N2670 1.356 . S
C2673 C2667 1.363 . S
C2673 C2668 1.379 . S
C2673 N2671 1.356 . S
N2674 C2666 1.356 . S
N2674 H2680 0.984 . S
N2674 H2681 0.984 . S
N2675 C2668 1.356 . S
N2675 H2678 0.984 . S
N2675 H2679 0.985 . S
H2676 N2671 0.984 . S
H2677 N2671 0.985 . S
H2678 N2675 0.984 . S
H2679 N2675 0.985 . S
H2680 N2674 0.984 . S
H2681 N2674 0.984 . S
H2682 N2670 0.984 . S
H2683 N2670 0.985 . S
C2684 C2685 1.363 . S
C2684 C2690 1.379 . S
C2684 N2692 1.356 . S
C2685 C2684 1.363 . S
C2685 C2691 1.363 . S
C2686 C2687 1.363 . S
C2686 C2691 1.379 . S
C2686 N2693 1.356 . S
C2687 C2686 1.363 . S
C2687 C2690 1.363 . S
N2688 C2690 1.356 . S
N2688 H2700 0.984 . S
N2688 H2701 0.985 . S
N2689 C2691 1.356 . S
N2689 H2694 0.984 . S
N2689 H2695 0.985 . S
C2690 C2684 1.379 . S
C2690 C2687 1.363 . S
C2690 N2688 1.356 . S
C2691 C2685 1.363 . S
C2691 C2686 1.379 . S
C2691 N2689 1.356 . S
N2692 C2684 1.356 . S
N2692 H2698 0.984 . S
N2692 H2699 0.984 . S
N2693 C2686 1.356 . S
N2693 H2696 0.984 . S
N2693 H2697 0.985 . S
H2694 N2689 0.984 . S
H2695 N2689 0.985 . S
H2696 N2693 0.984 . S
H2697 N2693 0.985 . S
H2698 N2692 0.984 . S
H2699 N2692 0.984 . S
H2700 N2688 0.984 . S
H2701 N2688 0.985 . S
C2702 C2703 1.363 . S
C2702 C2708 1.379 . S
C2702 N2710 1.356 . S
C2703 C2702 1.363 . S
C2703 C2709 1.363 . S
C2704 C2705 1.363 . S
C2704 C2709 1.379 . S
C2704 N2711 1.356 . S
C2705 C2704 1.363 . S
C2705 C2708 1.363 . S
N2706 C2708 1.356 . S
N2706 H2718 0.984 . S
N2706 H2719 0.985 . S
N2707 C2709 1.356 . S
N2707 H2712 0.984 . S
N2707 H2713 0.985 . S
C2708 C2702 1.379 . S
C2708 C2705 1.363 . S
C2708 N2706 1.356 . S
C2709 C2703 1.363 . S
C2709 C2704 1.379 . S
C2709 N2707 1.356 . S
N2710 C2702 1.356 . S
N2710 H2716 0.984 . S
N2710 H2717 0.984 . S
N2711 C2704 1.356 . S
N2711 H2714 0.984 . S
N2711 H2715 0.985 . S
H2712 N2707 0.984 . S
H2713 N2707 0.985 . S
H2714 N2711 0.984 . S
H2715 N2711 0.985 . S
H2716 N2710 0.984 . S
H2717 N2710 0.984 . S
H2718 N2706 0.984 . S
H2719 N2706 0.985 . S
C2720 C2721 1.363 . S
C2720 C2726 1.379 . S
C2720 N2728 1.356 . S
C2721 C2720 1.363 . S
C2721 C2727 1.363 1_545 S
C2722 C2723 1.363 . S
C2722 C2727 1.379 . S
C2722 N2729 1.356 . S
C2723 C2722 1.363 . S
C2723 C2726 1.363 1_565 S
N2724 C2726 1.356 . S
N2724 H2736 0.984 . S
N2724 H2737 0.985 . S
N2725 C2727 1.356 . S
N2725 H2730 0.984 . S
N2725 H2731 0.985 . S
C2726 C2720 1.379 . S
C2726 C2723 1.363 1_545 S
C2726 N2724 1.356 . S
C2727 C2721 1.363 1_565 S
C2727 C2722 1.379 . S
C2727 N2725 1.356 . S
N2728 C2720 1.356 . S
N2728 H2734 0.984 . S
N2728 H2735 0.984 . S
N2729 C2722 1.356 . S
N2729 H2732 0.984 . S
N2729 H2733 0.985 . S
H2730 N2725 0.984 . S
H2731 N2725 0.985 . S
H2732 N2729 0.984 . S
H2733 N2729 0.985 . S
H2734 N2728 0.984 . S
H2735 N2728 0.984 . S
H2736 N2724 0.984 . S
H2737 N2724 0.985 . S
C2738 C2739 1.363 . S
C2738 C2744 1.379 . S
C2738 N2746 1.356 . S
C2739 C2738 1.363 . S
C2739 C2745 1.363 . S
C2740 C2741 1.363 . S
C2740 C2745 1.379 . S
C2740 N2747 1.356 . S
C2741 C2740 1.363 . S
C2741 C2744 1.363 . S
N2742 C2744 1.356 . S
N2742 H2754 0.984 . S
N2742 H2755 0.985 . S
N2743 C2745 1.356 . S
N2743 H2748 0.984 . S
N2743 H2749 0.985 . S
C2744 C2738 1.379 . S
C2744 C2741 1.363 . S
C2744 N2742 1.356 . S
C2745 C2739 1.363 . S
C2745 C2740 1.379 . S
C2745 N2743 1.356 . S
N2746 C2738 1.356 . S
N2746 H2752 0.984 . S
N2746 H2753 0.984 . S
N2747 C2740 1.356 . S
N2747 H2750 0.984 . S
N2747 H2751 0.985 . S
H2748 N2743 0.984 . S
H2749 N2743 0.985 . S
H2750 N2747 0.984 . S
H2751 N2747 0.985 . S
H2752 N2746 0.984 . S
H2753 N2746 0.984 . S
H2754 N2742 0.984 . S
H2755 N2742 0.985 . S
C2756 C2757 1.363 1_565 S
C2756 C2762 1.379 . S
C2756 N2764 1.356 . S
C2757 C2756 1.363 1_545 S
C2757 C2763 1.363 . S
C2758 C2759 1.363 1_545 S
C2758 C2763 1.379 . S
C2758 N2765 1.356 . S
C2759 C2758 1.363 1_565 S
C2759 C2762 1.363 . S
N2760 C2762 1.356 . S
N2760 H2772 0.984 . S
N2760 H2773 0.985 . S
N2761 C2763 1.356 . S
N2761 H2766 0.984 . S
N2761 H2767 0.985 . S
C2762 C2756 1.379 . S
C2762 C2759 1.363 . S
C2762 N2760 1.356 . S
C2763 C2757 1.363 . S
C2763 C2758 1.379 . S
C2763 N2761 1.356 . S
N2764 C2756 1.356 . S
N2764 H2770 0.984 . S
N2764 H2771 0.984 . S
N2765 C2758 1.356 . S
N2765 H2768 0.984 . S
N2765 H2769 0.985 . S
H2766 N2761 0.984 . S
H2767 N2761 0.985 . S
H2768 N2765 0.984 . S
H2769 N2765 0.985 . S
H2770 N2764 0.984 . S
H2771 N2764 0.984 . S
H2772 N2760 0.984 . S
H2773 N2760 0.985 . S
C2774 C2775 1.363 . S
C2774 C2780 1.379 1_556 S
C2774 N2782 1.356 . S
C2775 C2774 1.363 . S
C2775 C2781 1.363 . S
C2776 C2777 1.363 . S
C2776 C2781 1.379 1_554 S
C2776 N2783 1.356 . S
C2777 C2776 1.363 . S
C2777 C2780 1.363 . S
N2778 C2780 1.356 . S
N2778 H2790 0.984 . S
N2778 H2791 0.985 . S
N2779 C2781 1.356 . S
N2779 H2784 0.984 . S
N2779 H2785 0.985 . S
C2780 C2774 1.379 1_554 S
C2780 C2777 1.363 . S
C2780 N2778 1.356 . S
C2781 C2775 1.363 . S
C2781 C2776 1.379 1_556 S
C2781 N2779 1.356 . S
N2782 C2774 1.356 . S
N2782 H2788 0.984 . S
N2782 H2789 0.984 . S
N2783 C2776 1.356 . S
N2783 H2786 0.984 . S
N2783 H2787 0.985 . S
H2784 N2779 0.984 . S
H2785 N2779 0.985 . S
H2786 N2783 0.984 . S
H2787 N2783 0.985 . S
H2788 N2782 0.984 . S
H2789 N2782 0.984 . S
H2790 N2778 0.984 . S
H2791 N2778 0.985 . S
C2792 C2793 1.363 . S
C2792 C2798 1.379 . S
C2792 N2800 1.356 . S
C2793 C2792 1.363 . S
C2793 C2799 1.363 1_565 S
C2794 C2795 1.363 . S
C2794 C2799 1.379 . S
C2794 N2801 1.356 . S
C2795 C2794 1.363 . S
C2795 C2798 1.363 1_545 S
N2796 C2798 1.356 . S
N2796 H2808 0.984 . S
N2796 H2809 0.985 . S
N2797 C2799 1.356 . S
N2797 H2802 0.984 . S
N2797 H2803 0.985 . S
C2798 C2792 1.379 . S
C2798 C2795 1.363 1_565 S
C2798 N2796 1.356 . S
C2799 C2793 1.363 1_545 S
C2799 C2794 1.379 . S
C2799 N2797 1.356 . S
N2800 C2792 1.356 . S
N2800 H2806 0.984 . S
N2800 H2807 0.984 . S
N2801 C2794 1.356 . S
N2801 H2804 0.984 . S
N2801 H2805 0.985 . S
H2802 N2797 0.984 . S
H2803 N2797 0.985 . S
H2804 N2801 0.984 . S
H2805 N2801 0.985 . S
H2806 N2800 0.984 . S
H2807 N2800 0.984 . S
H2808 N2796 0.984 . S
H2809 N2796 0.985 . S
C2810 C2811 1.363 . S
C2810 C2816 1.379 . S
C2810 N2818 1.356 . S
C2811 C2810 1.363 . S
C2811 C2817 1.363 . S
C2812 C2813 1.363 . S
C2812 C2817 1.379 . S
C2812 N2819 1.356 . S
C2813 C2812 1.363 . S
C2813 C2816 1.363 . S
N2814 C2816 1.356 . S
N2814 H2826 0.984 . S
N2814 H2827 0.985 . S
N2815 C2817 1.356 . S
N2815 H2820 0.984 . S
N2815 H2821 0.985 . S
C2816 C2810 1.379 . S
C2816 C2813 1.363 . S
C2816 N2814 1.356 . S
C2817 C2811 1.363 . S
C2817 C2812 1.379 . S
C2817 N2815 1.356 . S
N2818 C2810 1.356 . S
N2818 H2824 0.984 . S
N2818 H2825 0.984 . S
N2819 C2812 1.356 . S
N2819 H2822 0.984 . S
N2819 H2823 0.985 . S
H2820 N2815 0.984 . S
H2821 N2815 0.985 . S
H2822 N2819 0.984 . S
H2823 N2819 0.985 . S
H2824 N2818 0.984 . S
H2825 N2818 0.984 . S
H2826 N2814 0.984 . S
H2827 N2814 0.985 . S
C2828 C2829 1.363 1_545 S
C2828 C2834 1.379 . S
C2828 N2836 1.356 . S
C2829 C2828 1.363 1_565 S
C2829 C2835 1.363 . S
C2830 C2831 1.363 1_565 S
C2830 C2835 1.379 . S
C2830 N2837 1.356 . S
C2831 C2830 1.363 1_545 S
C2831 C2834 1.363 . S
N2832 C2834 1.356 . S
N2832 H2844 0.984 . S
N2832 H2845 0.985 . S
N2833 C2835 1.356 . S
N2833 H2838 0.984 . S
N2833 H2839 0.985 . S
C2834 C2828 1.379 . S
C2834 C2831 1.363 . S
C2834 N2832 1.356 . S
C2835 C2829 1.363 . S
C2835 C2830 1.379 . S
C2835 N2833 1.356 . S
N2836 C2828 1.356 . S
N2836 H2842 0.984 . S
N2836 H2843 0.984 . S
N2837 C2830 1.356 . S
N2837 H2840 0.984 . S
N2837 H2841 0.985 . S
H2838 N2833 0.984 . S
H2839 N2833 0.985 . S
H2840 N2837 0.984 . S
H2841 N2837 0.985 . S
H2842 N2836 0.984 . S
H2843 N2836 0.984 . S
H2844 N2832 0.984 . S
H2845 N2832 0.985 . S
C2846 C2847 1.363 . S
C2846 C2852 1.379 1_554 S
C2846 N2854 1.356 . S
C2847 C2846 1.363 . S
C2847 C2853 1.363 . S
C2848 C2849 1.363 . S
C2848 C2853 1.379 1_556 S
C2848 N2855 1.356 . S
C2849 C2848 1.363 . S
C2849 C2852 1.363 . S
N2850 C2852 1.356 . S
N2850 H2862 0.984 . S
N2850 H2863 0.985 . S
N2851 C2853 1.356 . S
N2851 H2856 0.984 . S
N2851 H2857 0.985 . S
C2852 C2846 1.379 1_556 S
C2852 C2849 1.363 . S
C2852 N2850 1.356 . S
C2853 C2847 1.363 . S
C2853 C2848 1.379 1_554 S
C2853 N2851 1.356 . S
N2854 C2846 1.356 . S
N2854 H2860 0.984 . S
N2854 H2861 0.984 . S
N2855 C2848 1.356 . S
N2855 H2858 0.984 . S
N2855 H2859 0.985 . S
H2856 N2851 0.984 . S
H2857 N2851 0.985 . S
H2858 N2855 0.984 . S
H2859 N2855 0.985 . S
H2860 N2854 0.984 . S
H2861 N2854 0.984 . S
H2862 N2850 0.984 . S
H2863 N2850 0.985 . S
C2864 C2865 1.363 . S
C2864 C2870 1.379 . S
C2864 N2872 1.356 . S
C2865 C2864 1.363 . S
C2865 C2871 1.363 . S
C2866 C2867 1.363 . S
C2866 C2871 1.379 . S
C2866 N2873 1.356 . S
C2867 C2866 1.363 . S
C2867 C2870 1.363 . S
N2868 C2870 1.356 . S
N2868 H2880 0.984 . S
N2868 H2881 0.985 . S
N2869 C2871 1.356 . S
N2869 H2874 0.984 . S
N2869 H2875 0.985 . S
C2870 C2864 1.379 . S
C2870 C2867 1.363 . S
C2870 N2868 1.356 . S
C2871 C2865 1.363 . S
C2871 C2866 1.379 . S
C2871 N2869 1.356 . S
N2872 C2864 1.356 . S
N2872 H2878 0.984 . S
N2872 H2879 0.984 . S
N2873 C2866 1.356 . S
N2873 H2876 0.984 . S
N2873 H2877 0.985 . S
H2874 N2869 0.984 . S
H2875 N2869 0.985 . S
H2876 N2873 0.984 . S
H2877 N2873 0.985 . S
H2878 N2872 0.984 . S
H2879 N2872 0.984 . S
H2880 N2868 0.984 . S
H2881 N2868 0.985 . S
C2882 C2883 1.363 . S
C2882 C2888 1.379 1_556 S
C2882 N2890 1.356 . S
C2883 C2882 1.363 . S
C2883 C2889 1.363 . S
C2884 C2885 1.363 . S
C2884 C2889 1.379 1_554 S
C2884 N2891 1.356 . S
C2885 C2884 1.363 . S
C2885 C2888 1.363 . S
N2886 C2888 1.356 . S
N2886 H2898 0.984 . S
N2886 H2899 0.985 . S
N2887 C2889 1.356 . S
N2887 H2892 0.984 . S
N2887 H2893 0.985 . S
C2888 C2882 1.379 1_554 S
C2888 C2885 1.363 . S
C2888 N2886 1.356 . S
C2889 C2883 1.363 . S
C2889 C2884 1.379 1_556 S
C2889 N2887 1.356 . S
N2890 C2882 1.356 . S
N2890 H2896 0.984 . S
N2890 H2897 0.984 . S
N2891 C2884 1.356 . S
N2891 H2894 0.984 . S
N2891 H2895 0.985 . S
H2892 N2887 0.984 . S
H2893 N2887 0.985 . S
H2894 N2891 0.984 . S
H2895 N2891 0.985 . S
H2896 N2890 0.984 . S
H2897 N2890 0.984 . S
H2898 N2886 0.984 . S
H2899 N2886 0.985 . S
C2900 C2901 1.363 . S
C2900 C2906 1.379 . S
C2900 N2908 1.356 . S
C2901 C2900 1.363 . S
C2901 C2907 1.363 . S
C2902 C2903 1.363 . S
C2902 C2907 1.379 . S
C2902 N2909 1.356 . S
C2903 C2902 1.363 . S
C2903 C2906 1.363 . S
N2904 C2906 1.356 . S
N2904 H2916 0.984 . S
N2904 H2917 0.985 . S
N2905 C2907 1.356 . S
N2905 H2910 0.984 . S
N2905 H2911 0.985 . S
C2906 C2900 1.379 . S
C2906 C2903 1.363 . S
C2906 N2904 1.356 . S
C2907 C2901 1.363 . S
C2907 C2902 1.379 . S
C2907 N2905 1.356 . S
N2908 C2900 1.356 . S
N2908 H2914 0.984 . S
N2908 H2915 0.984 . S
N2909 C2902 1.356 . S
N2909 H2912 0.984 . S
N2909 H2913 0.985 . S
H2910 N2905 0.984 . S
H2911 N2905 0.985 . S
H2912 N2909 0.984 . S
H2913 N2909 0.985 . S
H2914 N2908 0.984 . S
H2915 N2908 0.984 . S
H2916 N2904 0.984 . S
H2917 N2904 0.985 . S
C2918 C2919 1.363 . S
C2918 C2924 1.379 . S
C2918 N2926 1.356 . S
C2919 C2918 1.363 . S
C2919 C2925 1.363 . S
C2920 C2921 1.363 . S
C2920 C2925 1.379 . S
C2920 N2927 1.356 . S
C2921 C2920 1.363 . S
C2921 C2924 1.363 . S
N2922 C2924 1.356 . S
N2922 H2934 0.984 . S
N2922 H2935 0.985 . S
N2923 C2925 1.356 . S
N2923 H2928 0.984 . S
N2923 H2929 0.985 . S
C2924 C2918 1.379 . S
C2924 C2921 1.363 . S
C2924 N2922 1.356 . S
C2925 C2919 1.363 . S
C2925 C2920 1.379 . S
C2925 N2923 1.356 . S
N2926 C2918 1.356 . S
N2926 H2932 0.984 . S
N2926 H2933 0.984 . S
N2927 C2920 1.356 . S
N2927 H2930 0.984 . S
N2927 H2931 0.985 . S
H2928 N2923 0.984 . S
H2929 N2923 0.985 . S
H2930 N2927 0.984 . S
H2931 N2927 0.985 . S
H2932 N2926 0.984 . S
H2933 N2926 0.984 . S
H2934 N2922 0.984 . S
H2935 N2922 0.985 . S
C2936 C2937 1.363 . S
C2936 C2942 1.379 . S
C2936 N2944 1.356 . S
C2937 C2936 1.363 . S
C2937 C2943 1.363 . S
C2938 C2939 1.363 . S
C2938 C2943 1.379 . S
C2938 N2945 1.356 . S
C2939 C2938 1.363 . S
C2939 C2942 1.363 . S
N2940 C2942 1.356 . S
N2940 H2952 0.984 . S
N2940 H2953 0.985 . S
N2941 C2943 1.356 . S
N2941 H2946 0.984 . S
N2941 H2947 0.985 . S
C2942 C2936 1.379 . S
C2942 C2939 1.363 . S
C2942 N2940 1.356 . S
C2943 C2937 1.363 . S
C2943 C2938 1.379 . S
C2943 N2941 1.356 . S
N2944 C2936 1.356 . S
N2944 H2950 0.984 . S
N2944 H2951 0.984 . S
N2945 C2938 1.356 . S
N2945 H2948 0.984 . S
N2945 H2949 0.985 . S
H2946 N2941 0.984 . S
H2947 N2941 0.985 . S
H2948 N2945 0.984 . S
H2949 N2945 0.985 . S
H2950 N2944 0.984 . S
H2951 N2944 0.984 . S
H2952 N2940 0.984 . S
H2953 N2940 0.985 . S
C2954 C2955 1.363 . S
C2954 C2960 1.379 1_556 S
C2954 N2962 1.356 . S
C2955 C2954 1.363 . S
C2955 C2961 1.363 . S
C2956 C2957 1.363 . S
C2956 C2961 1.379 1_554 S
C2956 N2963 1.356 . S
C2957 C2956 1.363 . S
C2957 C2960 1.363 . S
N2958 C2960 1.356 . S
N2958 H2970 0.984 . S
N2958 H2971 0.985 . S
N2959 C2961 1.356 . S
N2959 H2964 0.984 . S
N2959 H2965 0.985 . S
C2960 C2954 1.379 1_554 S
C2960 C2957 1.363 . S
C2960 N2958 1.356 . S
C2961 C2955 1.363 . S
C2961 C2956 1.379 1_556 S
C2961 N2959 1.356 . S
N2962 C2954 1.356 . S
N2962 H2968 0.984 . S
N2962 H2969 0.984 . S
N2963 C2956 1.356 . S
N2963 H2966 0.984 . S
N2963 H2967 0.985 . S
H2964 N2959 0.984 . S
H2965 N2959 0.985 . S
H2966 N2963 0.984 . S
H2967 N2963 0.985 . S
H2968 N2962 0.984 . S
H2969 N2962 0.984 . S
H2970 N2958 0.984 . S
H2971 N2958 0.985 . S
C2972 C2973 1.363 . S
C2972 C2978 1.379 . S
C2972 N2980 1.356 . S
C2973 C2972 1.363 . S
C2973 C2979 1.363 . S
C2974 C2975 1.363 . S
C2974 C2979 1.379 . S
C2974 N2981 1.356 . S
C2975 C2974 1.363 . S
C2975 C2978 1.363 . S
N2976 C2978 1.356 . S
N2976 H2988 0.984 . S
N2976 H2989 0.985 . S
N2977 C2979 1.356 . S
N2977 H2982 0.984 . S
N2977 H2983 0.985 . S
C2978 C2972 1.379 . S
C2978 C2975 1.363 . S
C2978 N2976 1.356 . S
C2979 C2973 1.363 . S
C2979 C2974 1.379 . S
C2979 N2977 1.356 . S
N2980 C2972 1.356 . S
N2980 H2986 0.984 . S
N2980 H2987 0.984 . S
N2981 C2974 1.356 . S
N2981 H2984 0.984 . S
N2981 H2985 0.985 . S
H2982 N2977 0.984 . S
H2983 N2977 0.985 . S
H2984 N2981 0.984 . S
H2985 N2981 0.985 . S
H2986 N2980 0.984 . S
H2987 N2980 0.984 . S
H2988 N2976 0.984 . S
H2989 N2976 0.985 . S
C2990 C2991 1.363 . S
C2990 C2996 1.379 . S
C2990 N2998 1.356 . S
C2991 C2990 1.363 . S
C2991 C2997 1.363 . S
C2992 C2993 1.363 . S
C2992 C2997 1.379 . S
C2992 N2999 1.356 . S
C2993 C2992 1.363 . S
C2993 C2996 1.363 . S
N2994 C2996 1.356 . S
N2994 H3006 0.984 . S
N2994 H3007 0.985 . S
N2995 C2997 1.356 . S
N2995 H3000 0.984 . S
N2995 H3001 0.985 . S
C2996 C2990 1.379 . S
C2996 C2993 1.363 . S
C2996 N2994 1.356 . S
C2997 C2991 1.363 . S
C2997 C2992 1.379 . S
C2997 N2995 1.356 . S
N2998 C2990 1.356 . S
N2998 H3004 0.984 . S
N2998 H3005 0.984 . S
N2999 C2992 1.356 . S
N2999 H3002 0.984 . S
N2999 H3003 0.985 . S
H3000 N2995 0.984 . S
H3001 N2995 0.985 . S
H3002 N2999 0.984 . S
H3003 N2999 0.985 . S
H3004 N2998 0.984 . S
H3005 N2998 0.984 . S
H3006 N2994 0.984 . S
H3007 N2994 0.985 . S
C1281 C10 0.769 . S
C1283 C1095 0.788 . S
C1299 C50 0.769 . S
C1301 C335 0.788 . S
C1317 C90 0.769 . S
C1319 C1015 0.788 . S
C1335 C415 0.788 . S
C1337 C130 0.769 . S
C1353 C170 0.769 . S
C1355 C1175 0.788 . S
C1371 C575 0.788 . S
C1373 C210 0.769 . S
C1389 C1255 0.788 . S
C1391 C250 0.769 . S
C1407 C290 0.769 . S
C1409 C495 0.788 . S
C1425 C339 0.769 . S
C1427 C766 0.788 . S
C1443 C379 0.769 . S
C1445 C6 0.788 . S
C1461 C686 0.788 . S
C1463 C419 0.769 . S
C1479 C86 0.788 . S
C1481 C459 0.769 . S
C1497 C499 0.769 . S
C1499 C846 0.788 . S
C1515 C539 0.769 . S
C1517 C246 0.788 . S
C1533 C579 0.769 . S
C1535 C926 0.788 . S
C1551 C166 0.788 . S
C1553 C619 0.769 . S
C1569 C455 0.788 . S
C1571 C650 0.769 . S
C1587 C975 0.788 . S
C1589 C690 0.769 . S
C1605 C375 0.788 . S
C1607 C730 0.769 . S
C1623 C770 0.769 . S
C1625 C1055 0.788 . S
C1641 C535 0.788 . S
C1643 C810 0.769 . S
C1659 C1215 0.788 . S
C1661 C850 0.769 . S
C1677 C615 0.788 . S
C1679 C890 0.769 . S
C1695 C930 0.769 . S
C1697 C1135 0.788 . S
C1713 C979 0.769 . S
C1715 C126 0.788 . S
C1731 C1019 0.769 . S
C1733 C646 0.788 . S
C1749 C1059 0.769 . S
C1751 C46 0.788 . S
C1767 C1099 0.769 . S
C1769 C726 0.788 . S
C1785 C206 0.788 . S
C1787 C1139 0.769 . S
C1803 C886 0.788 . S
C1805 C1179 0.769 . S
C1821 C1219 0.769 . S
C1823 C286 0.788 . S
C1839 C1259 0.769 . S
C1841 C806 0.788 . S
C1857 C18 2.009 . S
C1859 C738 2.009 . S
C1875 C778 2.009 . S
C1877 C58 2.009 . S
C1893 C98 2.009 . S
C1895 C658 2.009 . S
C1911 C138 2.009 . S
C1913 C698 2.009 . S
C1929 C898 2.009 . S
C1931 C178 2.009 . S
C1947 C218 2.009 . S
C1949 C938 2.009 . S
C1965 C818 2.009 . S
C1967 C258 2.009 . S
C1983 C298 2.009 . S
C1985 C858 2.009 . S
C2001 C1049 2.009 . S
C2003 C329 2.009 . S
C2019 C369 2.009 . S
C2021 C1089 2.009 . S
C2037 C409 2.009 . S
C2039 C969 2.009 . S
C2055 C449 2.009 . S
C2057 C1009 2.009 . S
C2073 C1209 2.009 . S
C2075 C489 2.009 . S
C2091 C1249 2.009 . S
C2093 C529 2.009 . S
C2109 C569 2.009 . S
C2111 C1129 2.009 . S
C2127 C609 2.009 . S
C2129 C1169 2.009 . S
C2145 C15 2.398 . S
C2147 C966 2.398 . S
C2163 C366 2.398 . S
C2165 C55 2.398 . S
C2181 C95 2.398 . S
C2183 C1046 2.398 . S
C2199 C135 2.396 1_556 S
C2201 C446 2.396 1_554 S
C2217 C1126 2.398 . S
C2219 C175 2.398 . S
C2235 C526 2.398 . S
C2237 C215 2.398 . S
C2253 C255 2.398 . S
C2255 C1206 2.398 . S
C2271 C295 2.396 1_554 S
C2273 C606 2.396 1_556 S
C2289 C655 2.398 . S
C2291 C326 2.398 . S
C2307 C735 2.398 . S
C2309 C406 2.398 . S
C2325 C815 2.398 . S
C2327 C486 2.398 . S
C2343 C566 2.398 . S
C2345 C895 2.398 . S
C2361 C695 2.396 1_556 S
C2363 C1006 2.396 1_554 S
C2379 C775 2.398 . S
C2381 C1086 2.398 . S
C2397 C1166 2.396 1_556 S
C2399 C855 2.396 1_554 S
C2415 C1246 2.398 . S
C2417 C935 2.398 . S
C2433 C9 4.448 1_565 S
C2435 C209 4.448 . S
C2451 C249 4.448 1_565 S
C2453 C49 4.448 . S
C2469 C289 4.448 . S
C2471 C89 4.448 1_545 S
C2487 C169 4.448 1_545 S
C2489 C129 4.448 . S
C2505 C338 4.448 1_545 S
C2507 C538 4.448 . S
C2523 C378 4.448 . S
C2525 C578 4.448 1_545 S
C2541 C618 4.448 . S
C2543 C418 4.448 1_565 S
C2559 C458 4.448 . S
C2561 C498 4.448 1_565 S
C2577 C649 4.448 . S
C2579 C849 4.448 . S
C2595 C689 4.448 . S
C2597 C889 4.448 . S
C2613 C729 4.448 . S
C2615 C929 4.448 . S
C2631 C809 4.448 . S
C2633 C769 4.448 . S
C2649 C978 4.448 . S
C2651 C1178 4.448 . S
C2667 C1018 4.448 . S
C2669 C1218 4.448 . S
C2685 C1258 4.448 . S
C2687 C1058 4.448 . S
C2703 C1098 4.448 . S
C2705 C1138 4.448 . S
C2721 C19 3.869 . S
C2723 C179 3.869 . S
C2739 C59 3.870 . S
C2741 C219 3.870 . S
C2757 C259 3.870 . S
C2759 C99 3.870 . S
C2775 C299 3.869 . S
C2777 C139 3.869 . S
C2793 C330 3.870 . S
C2795 C490 3.870 . S
C2811 C530 3.869 . S
C2813 C370 3.869 . S
C2829 C570 3.869 . S
C2831 C410 3.869 . S
C2847 C610 3.870 . S
C2849 C450 3.870 . S
C2865 C659 3.869 . S
C2867 C819 3.869 . S
C2883 C859 3.870 . S
C2885 C699 3.870 . S
C2901 C739 3.870 . S
C2903 C899 3.870 . S
C2919 C939 3.869 . S
C2921 C779 3.869 . S
C2937 C1130 3.870 . S
C2939 C970 3.870 . S
C2955 C1010 3.869 . S
C2957 C1170 3.869 . S
C2973 C1050 3.869 . S
C2975 C1210 3.869 . S
C2991 C1090 3.870 . S
C2993 C1250 3.870 . S
