# Generated by pormake.
# Topology ull, (4)-cn, num edge types: 1
# Building blocks:
#     Node 0, Type 0, BuildingBlock: GALJAG_clean_sbu_0, # of connection points: 4
#     Node 1, Type 0, BuildingBlock: GALJAG_clean_sbu_0, # of connection points: 4
#     Node 2, Type 0, BuildingBlock: GALJAG_clean_sbu_0, # of connection points: 4
#     Node 3, Type 0, BuildingBlock: GALJAG_clean_sbu_0, # of connection points: 4
#     Node 4, Type 0, BuildingBlock: GALJAG_clean_sbu_0, # of connection points: 4
#     Node 5, Type 0, BuildingBlock: GALJAG_clean_sbu_0, # of connection points: 4
#     Node 6, Type 0, BuildingBlock: GALJAG_clean_sbu_0, # of connection points: 4
#     Node 7, Type 0, BuildingBlock: GALJAG_clean_sbu_0, # of connection points: 4
#     Node 8, Type 0, BuildingBlock: GALJAG_clean_sbu_0, # of connection points: 4
#     Node 9, Type 0, BuildingBlock: GALJAG_clean_sbu_0, # of connection points: 4
#     Node 10, Type 0, BuildingBlock: GALJAG_clean_sbu_0, # of connection points: 4
#     Node 11, Type 0, BuildingBlock: GALJAG_clean_sbu_0, # of connection points: 4
#     Node 12, Type 0, BuildingBlock: GALJAG_clean_sbu_0, # of connection points: 4
#     Node 13, Type 0, BuildingBlock: GALJAG_clean_sbu_0, # of connection points: 4
#     Node 14, Type 0, BuildingBlock: GALJAG_clean_sbu_0, # of connection points: 4
#     Node 15, Type 0, BuildingBlock: GALJAG_clean_sbu_0, # of connection points: 4
#     Node 16, Type 0, BuildingBlock: GALJAG_clean_sbu_0, # of connection points: 4
#     Node 17, Type 0, BuildingBlock: GALJAG_clean_sbu_0, # of connection points: 4
#     Node 18, Type 0, BuildingBlock: GALJAG_clean_sbu_0, # of connection points: 4
#     Node 19, Type 0, BuildingBlock: GALJAG_clean_sbu_0, # of connection points: 4
#     Node 20, Type 0, BuildingBlock: GALJAG_clean_sbu_0, # of connection points: 4
#     Node 21, Type 0, BuildingBlock: GALJAG_clean_sbu_0, # of connection points: 4
#     Node 22, Type 0, BuildingBlock: GALJAG_clean_sbu_0, # of connection points: 4
#     Node 23, Type 0, BuildingBlock: GALJAG_clean_sbu_0, # of connection points: 4
#     Node 24, Type 0, BuildingBlock: GALJAG_clean_sbu_0, # of connection points: 4
#     Node 25, Type 0, BuildingBlock: GALJAG_clean_sbu_0, # of connection points: 4
#     Node 26, Type 0, BuildingBlock: GALJAG_clean_sbu_0, # of connection points: 4
#     Node 27, Type 0, BuildingBlock: GALJAG_clean_sbu_0, # of connection points: 4
#     Node 28, Type 0, BuildingBlock: GALJAG_clean_sbu_0, # of connection points: 4
#     Node 29, Type 0, BuildingBlock: GALJAG_clean_sbu_0, # of connection points: 4
#     Node 30, Type 0, BuildingBlock: GALJAG_clean_sbu_0, # of connection points: 4
#     Node 31, Type 0, BuildingBlock: GALJAG_clean_sbu_0, # of connection points: 4
#     Node 32, Type 0, BuildingBlock: GALJAG_clean_sbu_0, # of connection points: 4
#     Node 33, Type 0, BuildingBlock: GALJAG_clean_sbu_0, # of connection points: 4
#     Node 34, Type 0, BuildingBlock: GALJAG_clean_sbu_0, # of connection points: 4
#     Node 35, Type 0, BuildingBlock: GALJAG_clean_sbu_0, # of connection points: 4
#     Node 36, Type 0, BuildingBlock: GALJAG_clean_sbu_0, # of connection points: 4
#     Node 37, Type 0, BuildingBlock: GALJAG_clean_sbu_0, # of connection points: 4
#     Node 38, Type 0, BuildingBlock: GALJAG_clean_sbu_0, # of connection points: 4
#     Node 39, Type 0, BuildingBlock: GALJAG_clean_sbu_0, # of connection points: 4
#     Node 40, Type 0, BuildingBlock: GALJAG_clean_sbu_0, # of connection points: 4
#     Node 41, Type 0, BuildingBlock: GALJAG_clean_sbu_0, # of connection points: 4
#     Node 42, Type 0, BuildingBlock: GALJAG_clean_sbu_0, # of connection points: 4
#     Node 43, Type 0, BuildingBlock: GALJAG_clean_sbu_0, # of connection points: 4
#     Node 44, Type 0, BuildingBlock: GALJAG_clean_sbu_0, # of connection points: 4
#     Node 45, Type 0, BuildingBlock: GALJAG_clean_sbu_0, # of connection points: 4
#     Node 46, Type 0, BuildingBlock: GALJAG_clean_sbu_0, # of connection points: 4
#     Node 47, Type 0, BuildingBlock: GALJAG_clean_sbu_0, # of connection points: 4
#     Edge 48, Type (0, 0), BuildingBlock: EZIPEK_clean_linker_0, # of connection points: 2
#     Edge 49, Type (0, 0), BuildingBlock: EZIPEK_clean_linker_0, # of connection points: 2
#     Edge 50, Type (0, 0), BuildingBlock: EZIPEK_clean_linker_0, # of connection points: 2
#     Edge 51, Type (0, 0), BuildingBlock: EZIPEK_clean_linker_0, # of connection points: 2
#     Edge 52, Type (0, 0), BuildingBlock: EZIPEK_clean_linker_0, # of connection points: 2
#     Edge 53, Type (0, 0), BuildingBlock: EZIPEK_clean_linker_0, # of connection points: 2
#     Edge 54, Type (0, 0), BuildingBlock: EZIPEK_clean_linker_0, # of connection points: 2
#     Edge 55, Type (0, 0), BuildingBlock: EZIPEK_clean_linker_0, # of connection points: 2
#     Edge 56, Type (0, 0), BuildingBlock: EZIPEK_clean_linker_0, # of connection points: 2
#     Edge 57, Type (0, 0), BuildingBlock: EZIPEK_clean_linker_0, # of connection points: 2
#     Edge 58, Type (0, 0), BuildingBlock: EZIPEK_clean_linker_0, # of connection points: 2
#     Edge 59, Type (0, 0), BuildingBlock: EZIPEK_clean_linker_0, # of connection points: 2
#     Edge 60, Type (0, 0), BuildingBlock: EZIPEK_clean_linker_0, # of connection points: 2
#     Edge 61, Type (0, 0), BuildingBlock: EZIPEK_clean_linker_0, # of connection points: 2
#     Edge 62, Type (0, 0), BuildingBlock: EZIPEK_clean_linker_0, # of connection points: 2
#     Edge 63, Type (0, 0), BuildingBlock: EZIPEK_clean_linker_0, # of connection points: 2
#     Edge 64, Type (0, 0), BuildingBlock: EZIPEK_clean_linker_0, # of connection points: 2
#     Edge 65, Type (0, 0), BuildingBlock: EZIPEK_clean_linker_0, # of connection points: 2
#     Edge 66, Type (0, 0), BuildingBlock: EZIPEK_clean_linker_0, # of connection points: 2
#     Edge 67, Type (0, 0), BuildingBlock: EZIPEK_clean_linker_0, # of connection points: 2
#     Edge 68, Type (0, 0), BuildingBlock: EZIPEK_clean_linker_0, # of connection points: 2
#     Edge 69, Type (0, 0), BuildingBlock: EZIPEK_clean_linker_0, # of connection points: 2
#     Edge 70, Type (0, 0), BuildingBlock: EZIPEK_clean_linker_0, # of connection points: 2
#     Edge 71, Type (0, 0), BuildingBlock: EZIPEK_clean_linker_0, # of connection points: 2
#     Edge 72, Type (0, 0), BuildingBlock: EZIPEK_clean_linker_0, # of connection points: 2
#     Edge 73, Type (0, 0), BuildingBlock: EZIPEK_clean_linker_0, # of connection points: 2
#     Edge 74, Type (0, 0), BuildingBlock: EZIPEK_clean_linker_0, # of connection points: 2
#     Edge 75, Type (0, 0), BuildingBlock: EZIPEK_clean_linker_0, # of connection points: 2
#     Edge 76, Type (0, 0), BuildingBlock: EZIPEK_clean_linker_0, # of connection points: 2
#     Edge 77, Type (0, 0), BuildingBlock: EZIPEK_clean_linker_0, # of connection points: 2
#     Edge 78, Type (0, 0), BuildingBlock: EZIPEK_clean_linker_0, # of connection points: 2
#     Edge 79, Type (0, 0), BuildingBlock: EZIPEK_clean_linker_0, # of connection points: 2
#     Edge 80, Type (0, 0), BuildingBlock: EZIPEK_clean_linker_0, # of connection points: 2
#     Edge 81, Type (0, 0), BuildingBlock: EZIPEK_clean_linker_0, # of connection points: 2
#     Edge 82, Type (0, 0), BuildingBlock: EZIPEK_clean_linker_0, # of connection points: 2
#     Edge 83, Type (0, 0), BuildingBlock: EZIPEK_clean_linker_0, # of connection points: 2
#     Edge 84, Type (0, 0), BuildingBlock: EZIPEK_clean_linker_0, # of connection points: 2
#     Edge 85, Type (0, 0), BuildingBlock: EZIPEK_clean_linker_0, # of connection points: 2
#     Edge 86, Type (0, 0), BuildingBlock: EZIPEK_clean_linker_0, # of connection points: 2
#     Edge 87, Type (0, 0), BuildingBlock: EZIPEK_clean_linker_0, # of connection points: 2
#     Edge 88, Type (0, 0), BuildingBlock: EZIPEK_clean_linker_0, # of connection points: 2
#     Edge 89, Type (0, 0), BuildingBlock: EZIPEK_clean_linker_0, # of connection points: 2
#     Edge 90, Type (0, 0), BuildingBlock: EZIPEK_clean_linker_0, # of connection points: 2
#     Edge 91, Type (0, 0), BuildingBlock: EZIPEK_clean_linker_0, # of connection points: 2
#     Edge 92, Type (0, 0), BuildingBlock: EZIPEK_clean_linker_0, # of connection points: 2
#     Edge 93, Type (0, 0), BuildingBlock: EZIPEK_clean_linker_0, # of connection points: 2
#     Edge 94, Type (0, 0), BuildingBlock: EZIPEK_clean_linker_0, # of connection points: 2
#     Edge 95, Type (0, 0), BuildingBlock: EZIPEK_clean_linker_0, # of connection points: 2
#     Edge 96, Type (0, 0), BuildingBlock: EZIPEK_clean_linker_0, # of connection points: 2
#     Edge 97, Type (0, 0), BuildingBlock: EZIPEK_clean_linker_0, # of connection points: 2
#     Edge 98, Type (0, 0), BuildingBlock: EZIPEK_clean_linker_0, # of connection points: 2
#     Edge 99, Type (0, 0), BuildingBlock: EZIPEK_clean_linker_0, # of connection points: 2
#     Edge 100, Type (0, 0), BuildingBlock: EZIPEK_clean_linker_0, # of connection points: 2
#     Edge 101, Type (0, 0), BuildingBlock: EZIPEK_clean_linker_0, # of connection points: 2
#     Edge 102, Type (0, 0), BuildingBlock: EZIPEK_clean_linker_0, # of connection points: 2
#     Edge 103, Type (0, 0), BuildingBlock: EZIPEK_clean_linker_0, # of connection points: 2
#     Edge 104, Type (0, 0), BuildingBlock: EZIPEK_clean_linker_0, # of connection points: 2
#     Edge 105, Type (0, 0), BuildingBlock: EZIPEK_clean_linker_0, # of connection points: 2
#     Edge 106, Type (0, 0), BuildingBlock: EZIPEK_clean_linker_0, # of connection points: 2
#     Edge 107, Type (0, 0), BuildingBlock: EZIPEK_clean_linker_0, # of connection points: 2
#     Edge 108, Type (0, 0), BuildingBlock: EZIPEK_clean_linker_0, # of connection points: 2
#     Edge 109, Type (0, 0), BuildingBlock: EZIPEK_clean_linker_0, # of connection points: 2
#     Edge 110, Type (0, 0), BuildingBlock: EZIPEK_clean_linker_0, # of connection points: 2
#     Edge 111, Type (0, 0), BuildingBlock: EZIPEK_clean_linker_0, # of connection points: 2
#     Edge 112, Type (0, 0), BuildingBlock: EZIPEK_clean_linker_0, # of connection points: 2
#     Edge 113, Type (0, 0), BuildingBlock: EZIPEK_clean_linker_0, # of connection points: 2
#     Edge 114, Type (0, 0), BuildingBlock: EZIPEK_clean_linker_0, # of connection points: 2
#     Edge 115, Type (0, 0), BuildingBlock: EZIPEK_clean_linker_0, # of connection points: 2
#     Edge 116, Type (0, 0), BuildingBlock: EZIPEK_clean_linker_0, # of connection points: 2
#     Edge 117, Type (0, 0), BuildingBlock: EZIPEK_clean_linker_0, # of connection points: 2
#     Edge 118, Type (0, 0), BuildingBlock: EZIPEK_clean_linker_0, # of connection points: 2
#     Edge 119, Type (0, 0), BuildingBlock: EZIPEK_clean_linker_0, # of connection points: 2
#     Edge 120, Type (0, 0), BuildingBlock: EZIPEK_clean_linker_0, # of connection points: 2
#     Edge 121, Type (0, 0), BuildingBlock: EZIPEK_clean_linker_0, # of connection points: 2
#     Edge 122, Type (0, 0), BuildingBlock: EZIPEK_clean_linker_0, # of connection points: 2
#     Edge 123, Type (0, 0), BuildingBlock: EZIPEK_clean_linker_0, # of connection points: 2
#     Edge 124, Type (0, 0), BuildingBlock: EZIPEK_clean_linker_0, # of connection points: 2
#     Edge 125, Type (0, 0), BuildingBlock: EZIPEK_clean_linker_0, # of connection points: 2
#     Edge 126, Type (0, 0), BuildingBlock: EZIPEK_clean_linker_0, # of connection points: 2
#     Edge 127, Type (0, 0), BuildingBlock: EZIPEK_clean_linker_0, # of connection points: 2
#     Edge 128, Type (0, 0), BuildingBlock: EZIPEK_clean_linker_0, # of connection points: 2
#     Edge 129, Type (0, 0), BuildingBlock: EZIPEK_clean_linker_0, # of connection points: 2
#     Edge 130, Type (0, 0), BuildingBlock: EZIPEK_clean_linker_0, # of connection points: 2
#     Edge 131, Type (0, 0), BuildingBlock: EZIPEK_clean_linker_0, # of connection points: 2
#     Edge 132, Type (0, 0), BuildingBlock: EZIPEK_clean_linker_0, # of connection points: 2
#     Edge 133, Type (0, 0), BuildingBlock: EZIPEK_clean_linker_0, # of connection points: 2
#     Edge 134, Type (0, 0), BuildingBlock: EZIPEK_clean_linker_0, # of connection points: 2
#     Edge 135, Type (0, 0), BuildingBlock: EZIPEK_clean_linker_0, # of connection points: 2
#     Edge 136, Type (0, 0), BuildingBlock: EZIPEK_clean_linker_0, # of connection points: 2
#     Edge 137, Type (0, 0), BuildingBlock: EZIPEK_clean_linker_0, # of connection points: 2
#     Edge 138, Type (0, 0), BuildingBlock: EZIPEK_clean_linker_0, # of connection points: 2
#     Edge 139, Type (0, 0), BuildingBlock: EZIPEK_clean_linker_0, # of connection points: 2
#     Edge 140, Type (0, 0), BuildingBlock: EZIPEK_clean_linker_0, # of connection points: 2
#     Edge 141, Type (0, 0), BuildingBlock: EZIPEK_clean_linker_0, # of connection points: 2
#     Edge 142, Type (0, 0), BuildingBlock: EZIPEK_clean_linker_0, # of connection points: 2
#     Edge 143, Type (0, 0), BuildingBlock: EZIPEK_clean_linker_0, # of connection points: 2
# Relax obj value: 0.015
# Max RMSD: 0.045
# Mean RMSD: 0.045
data_MOF--net-ull--node1-GALJAG_clean_sbu_0--edge1-EZIPEK_clean_linker_0
_symmetry_space_group_name_H-M    P1
_symmetry_Int_Tables_number       1
_symmetry_cell_setting            triclinic
loop_
_symmetry_equiv_pos_as_xyz
'x, y, z'
_cell_length_a     45.286747
_cell_length_b     45.269725
_cell_length_c     45.27854
_cell_angle_alpha  90.014704
_cell_angle_beta   90.014722
_cell_angle_gamma 89.990077
loop_
_atom_site_label
_atom_site_type_symbol
_atom_site_fract_x
_atom_site_fract_y
_atom_site_fract_z
_atom_type_partial_charge
In0 In 0.02708 0.34414 0.17261 0.0
O1 O 0.03775 0.30071 0.19599 0.0
O2 O 0.99772 0.32289 0.20708 0.0
C3 C 0.06529 0.34626 0.12722 0.0
C4 C 0.05009 0.38247 0.21166 0.0
C5 C 0.97799 0.34482 0.13926 0.0
O6 O 0.05972 0.32244 0.14074 0.0
O7 O 0.05208 0.36878 0.13695 0.0
O8 O 0.98794 0.36805 0.15129 0.0
O9 O 0.99252 0.32165 0.14454 0.0
C10 C 0.0145 0.30108 0.21151 0.0
O11 O 0.0239 0.38517 0.20226 0.0
O12 O 0.06428 0.36089 0.20128 0.0
In13 In 0.65413 0.0257 0.1733 0.0
O14 O 0.60724 0.02672 0.19277 0.0
O15 O 0.63774 0.06003 0.20575 0.0
C16 C 0.65327 0.97463 0.14343 0.0
C17 C 0.69748 0.01254 0.21175 0.0
C18 C 0.65453 0.06537 0.12869 0.0
O19 O 0.63195 0.98264 0.15962 0.0
O20 O 0.67497 0.99211 0.14256 0.0
O21 O 0.67149 0.06747 0.15071 0.0
O22 O 0.63764 0.04328 0.12918 0.0
C23 C 0.61213 0.04952 0.20807 0.0
O24 O 0.70089 0.03127 0.19136 0.0
O25 O 0.67246 0.00031 0.21247 0.0
In26 In 0.97464 0.6551 0.17305 0.0
O27 O 0.96121 0.69901 0.19419 0.0
O28 O 0.00037 0.67789 0.20957 0.0
C29 C 0.93411 0.65003 0.12969 0.0
C30 C 0.95704 0.61366 0.21155 0.0
C31 C 0.02348 0.65666 0.13925 0.0
O32 O 0.94054 0.67453 0.14137 0.0
O33 O 0.94765 0.62814 0.14027 0.0
O34 O 0.01674 0.63427 0.15447 0.0
O35 O 0.00593 0.67815 0.1414 0.0
C36 C 0.98303 0.69961 0.21156 0.0
O37 O 0.98169 0.612 0.19856 0.0
O38 O 0.94153 0.6359 0.20515 0.0
In39 In 0.34502 0.97818 0.1701 0.0
O40 O 0.3888 0.98001 0.19534 0.0
O41 O 0.36072 0.9425 0.20117 0.0
C42 C 0.34422 0.02836 0.13843 0.0
C43 C 0.30197 0.98826 0.20959 0.0
C44 C 0.34974 0.93913 0.12537 0.0
O45 O 0.36634 0.02097 0.15379 0.0
O46 O 0.32268 0.01076 0.1393 0.0
O47 O 0.3253 0.94494 0.13758 0.0
O48 O 0.37161 0.95268 0.13598 0.0
C49 C 0.38457 0.95531 0.20773 0.0
O50 O 0.30049 0.96733 0.19114 0.0
O51 O 0.32493 0.00396 0.20798 0.0
In52 In 0.02273 0.65817 0.83053 0.0
O53 O 0.02211 0.61623 0.80211 0.0
O54 O 0.06013 0.64414 0.80081 0.0
C55 C 0.97273 0.65559 0.86263 0.0
C56 C 0.01019 0.70126 0.79185 0.0
C57 C 0.06156 0.65696 0.87543 0.0
O58 O 0.9849 0.63268 0.85228 0.0
O59 O 0.98519 0.67951 0.85587 0.0
O60 O 0.05657 0.68025 0.86085 0.0
O61 O 0.04739 0.63451 0.86711 0.0
C62 C 0.0476 0.621 0.79168 0.0
O63 O 0.02874 0.70476 0.81249 0.0
O64 O 0.99798 0.67618 0.7909 0.0
In65 In 0.34105 0.0257 0.83007 0.0
O66 O 0.29416 0.03226 0.81257 0.0
O67 O 0.32122 0.99986 0.79188 0.0
C68 C 0.34293 0.06551 0.87397 0.0
C69 C 0.38015 0.04899 0.79202 0.0
C70 C 0.34345 0.97619 0.86269 0.0
O71 O 0.3204 0.06216 0.85787 0.0
O72 O 0.36463 0.04918 0.86775 0.0
O73 O 0.36388 0.98317 0.84503 0.0
O74 O 0.32197 0.99384 0.86368 0.0
C75 C 0.29662 0.01287 0.79268 0.0
O76 O 0.38432 0.02415 0.80402 0.0
O77 O 0.3566 0.06194 0.79928 0.0
In78 In 0.97265 0.3433 0.82455 0.0
O79 O 0.96524 0.29719 0.80569 0.0
O80 O 0.99863 0.32394 0.78611 0.0
C81 C 0.93259 0.34196 0.86836 0.0
C82 C 0.95063 0.38407 0.78723 0.0
C83 C 0.02198 0.34589 0.85778 0.0
O84 O 0.93617 0.32051 0.85092 0.0
O85 O 0.94875 0.36409 0.86353 0.0
O86 O 0.01181 0.36823 0.84452 0.0
O87 O 0.00755 0.32239 0.85399 0.0
C88 C 0.98508 0.2996 0.78627 0.0
O89 O 0.97621 0.38634 0.79807 0.0
O90 O 0.93624 0.3617 0.79539 0.0
In91 In 0.65599 0.97757 0.83282 0.0
O92 O 0.70113 0.96898 0.81165 0.0
O93 O 0.67592 0.00548 0.79618 0.0
C94 C 0.6569 0.94023 0.87864 0.0
C95 C 0.61891 0.94971 0.79555 0.0
C96 C 0.6499 0.02734 0.8644 0.0
O97 O 0.67977 0.94572 0.86357 0.0
O98 O 0.63371 0.95355 0.87071 0.0
O99 O 0.62921 0.01753 0.8484 0.0
O100 O 0.67328 0.01222 0.8644 0.0
C101 C 0.6991 0.9903 0.79378 0.0
O102 O 0.61632 0.97693 0.8012 0.0
O103 O 0.63939 0.93677 0.80919 0.0
In104 In 0.17355 0.02432 0.34064 0.0
O105 O 0.20056 0.022 0.38342 0.0
O106 O 0.20135 0.06184 0.35819 0.0
C107 C 0.14052 0.97488 0.34216 0.0
C108 C 0.21364 0.01333 0.2984 0.0
C109 C 0.12834 0.06281 0.34087 0.0
O110 O 0.15173 0.98595 0.36521 0.0
O111 O 0.14682 0.98814 0.31854 0.0
O112 O 0.1421 0.05637 0.31745 0.0
O113 O 0.13767 0.05024 0.36387 0.0
C114 C 0.21012 0.04813 0.38079 0.0
O115 O 0.19498 0.034 0.29613 0.0
O116 O 0.21209 0.99838 0.3219 0.0
In117 In 0.97604 0.17044 0.33978 0.0
O118 O 0.96983 0.1895 0.29348 0.0
O119 O 0.00043 0.2106 0.32241 0.0
C120 C 0.93738 0.12534 0.34055 0.0
C121 C 0.9505 0.20634 0.37944 0.0
C122 C 0.02655 0.13956 0.34222 0.0
O123 O 0.94094 0.1414 0.318 0.0
O124 O 0.95319 0.13204 0.36249 0.0
O125 O 0.01778 0.15517 0.36362 0.0
O126 O 0.01019 0.13979 0.31972 0.0
C127 C 0.98821 0.21012 0.2974 0.0
O128 O 0.976 0.19576 0.38354 0.0
O129 O 0.93805 0.1987 0.35573 0.0
In130 In 0.82669 0.97518 0.34218 0.0
O131 O 0.80168 0.97643 0.38627 0.0
O132 O 0.79845 0.93782 0.35957 0.0
C133 C 0.8586 0.02512 0.34334 0.0
C134 C 0.78719 0.987 0.2993 0.0
C135 C 0.87171 0.93657 0.34269 0.0
O136 O 0.8427 0.01733 0.36489 0.0
O137 O 0.8582 0.00807 0.32131 0.0
O138 O 0.85435 0.93871 0.32096 0.0
O139 O 0.86645 0.95375 0.36397 0.0
C140 C 0.79098 0.95087 0.38296 0.0
O141 O 0.80574 0.96629 0.29712 0.0
O142 O 0.7888 0.00182 0.32283 0.0
In143 In 0.02357 0.82862 0.34045 0.0
O144 O 0.02857 0.80921 0.29424 0.0
O145 O 0.99537 0.79135 0.32263 0.0
C146 C 0.06216 0.87378 0.34241 0.0
C147 C 0.05132 0.79106 0.3771 0.0
C148 C 0.97336 0.85977 0.34297 0.0
O149 O 0.05919 0.85776 0.31971 0.0
O150 O 0.04584 0.86699 0.36391 0.0
O151 O 0.98032 0.84158 0.36306 0.0
O152 O 0.99137 0.86177 0.32182 0.0
C153 C 0.00824 0.79037 0.2979 0.0
O154 O 0.02982 0.80671 0.38569 0.0
O155 O 0.05823 0.79411 0.35032 0.0
In156 In 0.17166 0.97111 0.66013 0.0
O157 O 0.18836 0.96559 0.70728 0.0
O158 O 0.21043 0.99642 0.67929 0.0
C159 C 0.12646 0.9325 0.65766 0.0
C160 C 0.20978 0.94685 0.62141 0.0
C161 C 0.14025 0.02146 0.65973 0.0
O162 O 0.14395 0.93353 0.67938 0.0
O163 O 0.1321 0.95034 0.63707 0.0
O164 O 0.15686 0.01437 0.6384 0.0
O165 O 0.14013 0.00364 0.6811 0.0
C166 C 0.20888 0.9843 0.70437 0.0
O167 O 0.19468 0.96947 0.61503 0.0
O168 O 0.20555 0.93667 0.64698 0.0
In169 In 0.02394 0.16731 0.6594 0.0
O170 O 0.02286 0.19834 0.61924 0.0
O171 O 0.06378 0.19117 0.64115 0.0
C172 C 0.97461 0.13486 0.65492 0.0
C173 C 0.01096 0.20744 0.70149 0.0
C174 C 0.06218 0.12224 0.66115 0.0
O175 O 0.98407 0.15015 0.63355 0.0
O176 O 0.98989 0.13591 0.67818 0.0
O177 O 0.05694 0.138 0.68362 0.0
O178 O 0.04812 0.12903 0.63804 0.0
C179 C 0.05003 0.20442 0.62096 0.0
O180 O 0.03317 0.19065 0.70337 0.0
O181 O 0.9951 0.20338 0.67901 0.0
In182 In 0.82414 0.02471 0.6585 0.0
O183 O 0.79356 0.0241 0.618 0.0
O184 O 0.7989 0.06451 0.64141 0.0
C185 C 0.85505 0.97427 0.65507 0.0
C186 C 0.78597 0.01266 0.70253 0.0
C187 C 0.87092 0.06105 0.65716 0.0
O188 O 0.84025 0.98393 0.63342 0.0
O189 O 0.85399 0.98974 0.67822 0.0
O190 O 0.8544 0.0591 0.67959 0.0
O191 O 0.86384 0.04488 0.63558 0.0
C192 C 0.78661 0.05103 0.62041 0.0
O193 O 0.80407 0.03386 0.70399 0.0
O194 O 0.78756 0.99741 0.67929 0.0
In195 In 0.97122 0.82775 0.65961 0.0
O196 O 0.9634 0.80912 0.70576 0.0
O197 O 0.99599 0.78858 0.67856 0.0
C198 C 0.93184 0.8724 0.65763 0.0
C199 C 0.94941 0.78878 0.62068 0.0
C200 C 0.02152 0.8595 0.65805 0.0
O201 O 0.93727 0.85849 0.6812 0.0
O202 O 0.94574 0.86345 0.63527 0.0
O203 O 0.00997 0.84882 0.63501 0.0
O204 O 0.00804 0.85367 0.68166 0.0
C205 C 0.98267 0.78904 0.70305 0.0
O206 O 0.97429 0.80089 0.61697 0.0
O207 O 0.93576 0.79624 0.64379 0.0
In208 In 0.34176 0.17652 0.02466 0.0
O209 O 0.29858 0.20003 0.03617 0.0
O210 O 0.31987 0.21092 0.99563 0.0
C211 C 0.34323 0.13138 0.06314 0.0
C212 C 0.38106 0.21512 0.04679 0.0
C213 C 0.34301 0.1429 0.97569 0.0
O214 O 0.31954 0.1449 0.05715 0.0
O215 O 0.36597 0.14092 0.05026 0.0
O216 O 0.3661 0.15475 0.98608 0.0
O217 O 0.31958 0.14862 0.9896 0.0
C218 C 0.29843 0.21543 0.01284 0.0
O219 O 0.38286 0.20589 0.02048 0.0
O220 O 0.35975 0.20497 0.06151 0.0
In221 In 0.34482 0.82798 0.9759 0.0
O222 O 0.29909 0.80823 0.96756 0.0
O223 O 0.32456 0.79113 0.00319 0.0
C224 C 0.34436 0.87424 0.93904 0.0
C225 C 0.38258 0.79055 0.94906 0.0
C226 C 0.35032 0.85943 0.0258 0.0
O227 O 0.32222 0.85748 0.94197 0.0
O228 O 0.3666 0.86767 0.95452 0.0
O229 O 0.37148 0.84441 0.01545 0.0
O230 O 0.32654 0.85818 0.01135 0.0
C231 C 0.30099 0.78985 0.98846 0.0
O232 O 0.38437 0.79625 0.97631 0.0
O233 O 0.36242 0.80409 0.93553 0.0
In234 In 0.16952 0.34471 0.9728 0.0
O235 O 0.1875 0.2979 0.968 0.0
O236 O 0.20823 0.32694 0.99898 0.0
C237 C 0.12422 0.3463 0.93432 0.0
C238 C 0.20711 0.38138 0.94489 0.0
C239 C 0.14036 0.34781 0.02423 0.0
O240 O 0.13965 0.32333 0.93808 0.0
O241 O 0.13165 0.36826 0.94971 0.0
O242 O 0.1584 0.36766 0.01645 0.0
O243 O 0.13722 0.32671 0.00637 0.0
C244 C 0.20767 0.30175 0.98697 0.0
O245 O 0.19042 0.39029 0.96545 0.0
O246 O 0.20495 0.35428 0.93889 0.0
In247 In 0.65476 0.17556 0.97725 0.0
O248 O 0.61075 0.20054 0.97792 0.0
O249 O 0.6387 0.2051 0.94028 0.0
C250 C 0.65437 0.14452 0.02797 0.0
C251 C 0.69978 0.21298 0.98811 0.0
C252 C 0.65007 0.13036 0.93919 0.0
O253 O 0.63549 0.16441 0.02263 0.0
O254 O 0.67345 0.14083 0.00805 0.0
O255 O 0.67216 0.14745 0.93925 0.0
O256 O 0.63026 0.13632 0.95787 0.0
C257 C 0.61482 0.21202 0.95279 0.0
O258 O 0.70242 0.1912 0.97085 0.0
O259 O 0.67469 0.21571 0.99981 0.0
In260 In 0.82556 0.65364 0.97848 0.0
O261 O 0.80444 0.60812 0.97204 0.0
O262 O 0.79311 0.64265 0.94207 0.0
C263 C 0.85451 0.64919 0.03015 0.0
C264 C 0.78752 0.69725 0.99237 0.0
C265 C 0.87092 0.65293 0.94 0.0
O266 O 0.83649 0.62958 0.02171 0.0
O267 O 0.85732 0.67095 0.01305 0.0
O268 O 0.85288 0.6742 0.9413 0.0
O269 O 0.86608 0.63221 0.95791 0.0
C270 C 0.78983 0.61602 0.94956 0.0
O271 O 0.81113 0.70194 0.97822 0.0
O272 O 0.78328 0.67066 0.99963 0.0
In273 In 0.65814 0.82764 0.02798 0.0
O274 O 0.70245 0.80628 0.03895 0.0
O275 O 0.67901 0.79098 0.00099 0.0
C276 C 0.65554 0.87187 0.0677 0.0
C277 C 0.61898 0.78824 0.04855 0.0
C278 C 0.65714 0.86141 0.97908 0.0
O279 O 0.67964 0.85983 0.06044 0.0
O280 O 0.6329 0.86104 0.05564 0.0
O281 O 0.63431 0.84838 0.9885 0.0
O282 O 0.68028 0.85678 0.99381 0.0
C283 C 0.70149 0.78864 0.0173 0.0
O284 O 0.61599 0.80005 0.02341 0.0
O285 O 0.6414 0.79628 0.063 0.0
In286 In 0.17135 0.66016 0.0258 0.0
O287 O 0.20111 0.61907 0.0266 0.0
O288 O 0.19662 0.64461 0.06585 0.0
C289 C 0.13961 0.65621 0.97612 0.0
C290 C 0.21085 0.70246 0.0125 0.0
C291 C 0.12536 0.6604 0.06281 0.0
O292 O 0.15413 0.63445 0.98597 0.0
O293 O 0.14132 0.67967 0.99104 0.0
O294 O 0.14056 0.68336 0.05811 0.0
O295 O 0.13327 0.63754 0.04897 0.0
C296 C 0.20835 0.62269 0.05334 0.0
O297 O 0.19331 0.70483 0.03409 0.0
O298 O 0.20797 0.67922 0.99743 0.0
In299 In 0.83024 0.34204 0.02447 0.0
O300 O 0.81131 0.29587 0.03117 0.0
O301 O 0.79008 0.3243 0.00016 0.0
C302 C 0.8757 0.3418 0.06271 0.0
C303 C 0.79364 0.38121 0.04984 0.0
C304 C 0.86021 0.34334 0.97323 0.0
O305 O 0.85862 0.31995 0.05986 0.0
O306 O 0.86988 0.36366 0.04649 0.0
O307 O 0.84801 0.36616 0.98374 0.0
O308 O 0.85704 0.32021 0.9884 0.0
C309 C 0.79066 0.29942 0.01273 0.0
O310 O 0.80442 0.38565 0.02448 0.0
O311 O 0.80135 0.35742 0.06205 0.0
In312 In 0.52902 0.84158 0.67242 0.0
O313 O 0.52984 0.88534 0.69813 0.0
O314 O 0.56546 0.85518 0.70384 0.0
C315 C 0.47791 0.84334 0.64219 0.0
C316 C 0.5167 0.79682 0.70937 0.0
C317 C 0.56673 0.8434 0.62628 0.0
O318 O 0.4876 0.86563 0.65599 0.0
O319 O 0.49351 0.82038 0.64441 0.0
O320 O 0.56644 0.82225 0.64445 0.0
O321 O 0.54843 0.86369 0.63155 0.0
C322 C 0.5541 0.87965 0.71074 0.0
O323 O 0.53441 0.794 0.68797 0.0
O324 O 0.50511 0.82207 0.71197 0.0
In325 In 0.15691 0.53214 0.66944 0.0
O326 O 0.11184 0.53427 0.69259 0.0
O327 O 0.14354 0.56749 0.70248 0.0
C328 C 0.15404 0.48118 0.63886 0.0
C329 C 0.19989 0.51853 0.70794 0.0
C330 C 0.15792 0.57034 0.62373 0.0
O331 O 0.13195 0.49174 0.65228 0.0
O332 O 0.17751 0.49592 0.64149 0.0
O333 O 0.17912 0.56812 0.6417 0.0
O334 O 0.13622 0.5538 0.62904 0.0
C335 C 0.11807 0.55729 0.70709 0.0
O336 O 0.20338 0.53767 0.68793 0.0
O337 O 0.17493 0.50606 0.70832 0.0
In338 In 0.47158 0.156 0.6721 0.0
O339 O 0.46252 0.20099 0.6932 0.0
O340 O 0.49893 0.17596 0.7092 0.0
C341 C 0.4325 0.15607 0.62748 0.0
C342 C 0.44796 0.11549 0.70856 0.0
C343 C 0.52111 0.15396 0.63947 0.0
O344 O 0.4371 0.17866 0.6432 0.0
O345 O 0.4473 0.13348 0.63432 0.0
O346 O 0.51403 0.13322 0.65673 0.0
O347 O 0.50352 0.17551 0.63883 0.0
C348 C 0.48383 0.19927 0.71108 0.0
O349 O 0.47322 0.11205 0.69725 0.0
O350 O 0.43471 0.13883 0.70122 0.0
In351 In 0.8421 0.47443 0.66862 0.0
O352 O 0.88829 0.47493 0.68966 0.0
O353 O 0.85791 0.44146 0.7027 0.0
C354 C 0.84264 0.5251 0.63771 0.0
C355 C 0.79674 0.48672 0.705 0.0
C356 C 0.84383 0.43342 0.62531 0.0
O357 O 0.86314 0.51848 0.65549 0.0
O358 O 0.82201 0.50647 0.63584 0.0
O359 O 0.82584 0.43201 0.64655 0.0
O360 O 0.86117 0.45517 0.62625 0.0
C361 C 0.88328 0.45248 0.70545 0.0
O362 O 0.79397 0.46985 0.68295 0.0
O363 O 0.82213 0.49764 0.70841 0.0
In364 In 0.52116 0.15756 0.32684 0.0
O365 O 0.51804 0.1146 0.30033 0.0
O366 O 0.55665 0.14134 0.29582 0.0
C367 C 0.47107 0.15772 0.35885 0.0
C368 C 0.51054 0.20057 0.28749 0.0
C369 C 0.56044 0.15549 0.37151 0.0
O370 O 0.4813 0.13433 0.34755 0.0
O371 O 0.48568 0.18075 0.35343 0.0
O372 O 0.55494 0.17909 0.35767 0.0
O373 O 0.54664 0.13307 0.36247 0.0
C374 C 0.54304 0.11818 0.28841 0.0
O375 O 0.53042 0.20287 0.30699 0.0
O376 O 0.49612 0.1767 0.28793 0.0
In377 In 0.84925 0.52228 0.32824 0.0
O378 O 0.89638 0.52264 0.30955 0.0
O379 O 0.86537 0.55389 0.29294 0.0
C380 C 0.84929 0.47178 0.35951 0.0
C381 C 0.80477 0.51105 0.29035 0.0
C382 C 0.85074 0.56313 0.37144 0.0
O383 O 0.86789 0.47661 0.33932 0.0
O384 O 0.8308 0.49212 0.36384 0.0
O385 O 0.82877 0.56029 0.35451 0.0
O386 O 0.87186 0.54567 0.36649 0.0
C387 C 0.89129 0.54386 0.29221 0.0
O388 O 0.80336 0.53149 0.30927 0.0
O389 O 0.82836 0.49621 0.29074 0.0
In390 In 0.47456 0.84409 0.32462 0.0
O391 O 0.46762 0.7979 0.30574 0.0
O392 O 0.49954 0.82573 0.28513 0.0
C393 C 0.43515 0.84481 0.36915 0.0
C394 C 0.45179 0.88487 0.28809 0.0
C395 C 0.52539 0.84354 0.35548 0.0
O396 O 0.43731 0.8232 0.35168 0.0
O397 O 0.45251 0.86595 0.36411 0.0
O398 O 0.51678 0.86622 0.34167 0.0
O399 O 0.50854 0.82147 0.35351 0.0
C400 C 0.48672 0.80098 0.28563 0.0
O401 O 0.47564 0.88924 0.30187 0.0
O402 O 0.4397 0.86022 0.29261 0.0
In403 In 0.16064 0.47209 0.33009 0.0
O404 O 0.2072 0.46387 0.31267 0.0
O405 O 0.17916 0.49353 0.28895 0.0
C406 C 0.15643 0.43465 0.37613 0.0
C407 C 0.11987 0.44949 0.29346 0.0
C408 C 0.1641 0.52377 0.35938 0.0
O409 O 0.17854 0.43466 0.35908 0.0
O410 O 0.13669 0.45324 0.36989 0.0
O411 O 0.13994 0.51405 0.34926 0.0
O412 O 0.18622 0.50772 0.35421 0.0
C413 C 0.20417 0.48134 0.29105 0.0
O414 O 0.11732 0.47521 0.30408 0.0
O415 O 0.14268 0.43557 0.30132 0.0
In416 In 0.67225 0.52218 0.83968 0.0
O417 O 0.69847 0.5222 0.88298 0.0
O418 O 0.7033 0.55872 0.85371 0.0
C419 C 0.64147 0.47149 0.8441 0.0
C420 C 0.70827 0.51096 0.79365 0.0
C421 C 0.62851 0.56225 0.8436 0.0
O422 O 0.66127 0.4783 0.8625 0.0
O423 O 0.63723 0.48999 0.82375 0.0
O424 O 0.64297 0.55832 0.82007 0.0
O425 O 0.63594 0.54593 0.86494 0.0
C426 C 0.71041 0.54689 0.87789 0.0
O427 O 0.68766 0.52966 0.79215 0.0
O428 O 0.71035 0.49763 0.81799 0.0
In429 In 0.47816 0.67139 0.84245 0.0
O430 O 0.4717 0.68711 0.79486 0.0
O431 O 0.50301 0.70975 0.82164 0.0
C432 C 0.43831 0.62722 0.84501 0.0
C433 C 0.45191 0.70881 0.88031 0.0
C434 C 0.52923 0.64141 0.84768 0.0
O435 O 0.44363 0.64112 0.8214 0.0
O436 O 0.45307 0.63551 0.86715 0.0
O437 O 0.52276 0.66237 0.86489 0.0
O438 O 0.51017 0.63562 0.82827 0.0
C439 C 0.4903 0.70778 0.79695 0.0
O440 O 0.47518 0.69499 0.88712 0.0
O441 O 0.44216 0.70379 0.85472 0.0
In442 In 0.32734 0.47798 0.83936 0.0
O443 O 0.30471 0.46933 0.79496 0.0
O444 O 0.29247 0.50781 0.81894 0.0
C445 C 0.37302 0.43991 0.83867 0.0
C446 C 0.28932 0.45101 0.87626 0.0
C447 C 0.35874 0.5278 0.84621 0.0
O448 O 0.35942 0.44712 0.81536 0.0
O449 O 0.36374 0.45201 0.862 0.0
O450 O 0.34296 0.51747 0.86681 0.0
O451 O 0.35852 0.51322 0.82247 0.0
C452 C 0.28852 0.49202 0.79635 0.0
O453 O 0.29816 0.47711 0.88085 0.0
O454 O 0.2998 0.43884 0.85355 0.0
In455 In 0.52246 0.32775 0.84161 0.0
O456 O 0.53089 0.30701 0.79637 0.0
O457 O 0.49618 0.2894 0.82278 0.0
C458 C 0.56224 0.37187 0.84282 0.0
C459 C 0.54597 0.29149 0.88235 0.0
C460 C 0.47285 0.36043 0.84249 0.0
O461 O 0.55816 0.35623 0.82005 0.0
O462 O 0.54633 0.36527 0.86472 0.0
O463 O 0.48053 0.34467 0.8642 0.0
O464 O 0.48987 0.3595 0.82049 0.0
C465 C 0.51048 0.28818 0.79892 0.0
O466 O 0.52054 0.30256 0.88551 0.0
O467 O 0.55929 0.29873 0.85902 0.0
In468 In 0.67577 0.47382 0.16011 0.0
O469 O 0.69782 0.47144 0.11447 0.0
O470 O 0.70905 0.43901 0.1466 0.0
C471 C 0.64508 0.52462 0.16001 0.0
C472 C 0.71479 0.4868 0.20278 0.0
C473 C 0.62998 0.43573 0.15936 0.0
O474 O 0.65967 0.51616 0.13771 0.0
O475 O 0.64663 0.50786 0.18222 0.0
O476 O 0.64796 0.43694 0.18066 0.0
O477 O 0.63517 0.45345 0.13857 0.0
C478 C 0.71271 0.44868 0.12079 0.0
O479 O 0.69594 0.46638 0.20561 0.0
O480 O 0.71362 0.50084 0.17869 0.0
In481 In 0.52827 0.67036 0.15791 0.0
O482 O 0.5263 0.695 0.11372 0.0
O483 O 0.56582 0.69769 0.13914 0.0
C484 C 0.47795 0.63861 0.15622 0.0
C485 C 0.51534 0.7107 0.19974 0.0
C486 C 0.56837 0.62657 0.16023 0.0
O487 O 0.48768 0.65217 0.13386 0.0
O488 O 0.49345 0.64115 0.17921 0.0
O489 O 0.56643 0.6459 0.18024 0.0
O490 O 0.55027 0.62924 0.13924 0.0
C491 C 0.5521 0.7053 0.11616 0.0
O492 O 0.53252 0.68926 0.20453 0.0
O493 O 0.50471 0.71175 0.17403 0.0
In494 In 0.3285 0.5263 0.1595 0.0
O495 O 0.31235 0.5311 0.20688 0.0
O496 O 0.2916 0.4989 0.17928 0.0
C497 C 0.37306 0.56577 0.15779 0.0
C498 C 0.28976 0.55322 0.12323 0.0
C499 C 0.35878 0.47556 0.15513 0.0
O500 O 0.35809 0.56136 0.18093 0.0
O501 O 0.36533 0.5508 0.13565 0.0
O502 O 0.33883 0.48221 0.13673 0.0
O503 O 0.36308 0.49416 0.17534 0.0
C504 C 0.29279 0.5113 0.20425 0.0
O505 O 0.30815 0.53442 0.11381 0.0
O506 O 0.29062 0.55775 0.15067 0.0
In507 In 0.47541 0.32978 0.15694 0.0
O508 O 0.46885 0.31154 0.20332 0.0
O509 O 0.49684 0.28773 0.17368 0.0
C510 C 0.43695 0.37504 0.1555 0.0
C511 C 0.45166 0.29421 0.11592 0.0
C512 C 0.52631 0.36064 0.15849 0.0
O513 O 0.43828 0.35754 0.17721 0.0
O514 O 0.45482 0.3697 0.13488 0.0
O515 O 0.51498 0.35172 0.13458 0.0
O516 O 0.51252 0.35306 0.18142 0.0
C517 C 0.48552 0.28949 0.19913 0.0
O518 O 0.47766 0.30412 0.11331 0.0
O519 O 0.43814 0.30219 0.13891 0.0
In520 In 0.84426 0.67216 0.52252 0.0
O521 O 0.79647 0.68789 0.52551 0.0
O522 O 0.82614 0.71261 0.49873 0.0
C523 C 0.84322 0.6278 0.56208 0.0
C524 C 0.88396 0.70745 0.54914 0.0
C525 C 0.8489 0.64182 0.47161 0.0
O526 O 0.82249 0.64635 0.56011 0.0
O527 O 0.86434 0.63165 0.54435 0.0
O528 O 0.86773 0.66102 0.47901 0.0
O529 O 0.82795 0.63819 0.48955 0.0
C530 C 0.80032 0.70984 0.50878 0.0
O531 O 0.88998 0.69368 0.52564 0.0
O532 O 0.85834 0.70326 0.55913 0.0
In533 In 0.84175 0.3241 0.4734 0.0
O534 O 0.79766 0.30157 0.4627 0.0
O535 O 0.81829 0.29172 0.50367 0.0
C536 C 0.84452 0.36939 0.43531 0.0
C537 C 0.88049 0.28612 0.44902 0.0
C538 C 0.84493 0.35639 0.52311 0.0
O539 O 0.82066 0.35576 0.44039 0.0
O540 O 0.86683 0.36003 0.44919 0.0
O541 O 0.86306 0.33581 0.51768 0.0
O542 O 0.82563 0.36059 0.50345 0.0
C543 C 0.79696 0.28699 0.48648 0.0
O544 O 0.88475 0.29723 0.47428 0.0
O545 O 0.85704 0.29416 0.4364 0.0
In546 In 0.67189 0.84031 0.47088 0.0
O547 O 0.69937 0.88262 0.47527 0.0
O548 O 0.70087 0.85895 0.43461 0.0
C549 C 0.63956 0.84214 0.52101 0.0
C550 C 0.71124 0.79743 0.48223 0.0
C551 C 0.62836 0.83886 0.43043 0.0
O552 O 0.6487 0.86522 0.5083 0.0
O553 O 0.64697 0.81834 0.50863 0.0
O554 O 0.64522 0.81708 0.43473 0.0
O555 O 0.63341 0.86115 0.4463 0.0
C556 C 0.70963 0.88083 0.4494 0.0
O557 O 0.69089 0.79427 0.46339 0.0
O558 O 0.71163 0.82203 0.49535 0.0
In559 In 0.16393 0.67478 0.46866 0.0
O560 O 0.21009 0.69414 0.46364 0.0
O561 O 0.18011 0.71549 0.49307 0.0
C562 C 0.16698 0.62992 0.42998 0.0
C563 C 0.12366 0.71069 0.44406 0.0
C564 C 0.16148 0.64343 0.51901 0.0
O565 O 0.18772 0.64833 0.43289 0.0
O566 O 0.14477 0.63432 0.44614 0.0
O567 O 0.1386 0.65375 0.50681 0.0
O568 O 0.18541 0.64934 0.50611 0.0
C569 C 0.20554 0.71497 0.48167 0.0
O570 O 0.12051 0.70074 0.46993 0.0
O571 O 0.14674 0.70245 0.43087 0.0
In572 In 0.32475 0.1592 0.47483 0.0
O573 O 0.29861 0.11593 0.47634 0.0
O574 O 0.29603 0.14234 0.43744 0.0
C575 C 0.3567 0.15647 0.52491 0.0
C576 C 0.28656 0.20298 0.48758 0.0
C577 C 0.36897 0.15958 0.43531 0.0
O578 O 0.34246 0.1345 0.51527 0.0
O579 O 0.35453 0.17959 0.50957 0.0
O580 O 0.35134 0.18101 0.438 0.0
O581 O 0.36424 0.13799 0.45222 0.0
C582 C 0.28822 0.11912 0.45064 0.0
O583 O 0.3075 0.20627 0.46948 0.0
O584 O 0.28487 0.17771 0.4992 0.0
In585 In 0.15502 0.32896 0.52957 0.0
O586 O 0.20222 0.31218 0.5357 0.0
O587 O 0.17482 0.29078 0.50389 0.0
C588 C 0.15191 0.37539 0.56691 0.0
C589 C 0.1182 0.29034 0.55583 0.0
C590 C 0.15248 0.35847 0.47821 0.0
O591 O 0.17493 0.3598 0.56434 0.0
O592 O 0.13041 0.36733 0.55115 0.0
O593 O 0.1326 0.3403 0.48559 0.0
O594 O 0.17331 0.36145 0.4964 0.0
C595 C 0.19962 0.29199 0.51656 0.0
O596 O 0.11073 0.30461 0.53301 0.0
O597 O 0.14383 0.29577 0.56528 0.0
In598 In 0.66773 0.15724 0.52403 0.0
O599 O 0.68514 0.20429 0.52913 0.0
O600 O 0.70787 0.17504 0.5 0.0
C601 C 0.62239 0.15603 0.56225 0.0
C602 C 0.70431 0.11866 0.55054 0.0
C603 C 0.63746 0.15447 0.47316 0.0
O604 O 0.6397 0.17784 0.56059 0.0
O605 O 0.62792 0.13501 0.54484 0.0
O606 O 0.65308 0.13315 0.48216 0.0
O607 O 0.63739 0.17704 0.48947 0.0
C608 C 0.70636 0.20041 0.51144 0.0
O609 O 0.69319 0.11342 0.52547 0.0
O610 O 0.69678 0.14288 0.56202 0.0
In611 In 0.33222 0.84543 0.52517 0.0
O612 O 0.3136 0.7989 0.5295 0.0
O613 O 0.29225 0.8287 0.49989 0.0
C614 C 0.37645 0.84371 0.5648 0.0
C615 C 0.29455 0.88324 0.5511 0.0
C616 C 0.36305 0.84807 0.47433 0.0
O617 O 0.35963 0.82192 0.5604 0.0
O618 O 0.37106 0.86625 0.54936 0.0
O619 O 0.35057 0.87061 0.48513 0.0
O620 O 0.35995 0.82469 0.48912 0.0
C621 C 0.29298 0.80323 0.51119 0.0
O622 O 0.30615 0.88893 0.52635 0.0
O623 O 0.30214 0.85901 0.56251 0.0
C624 C 0.08588 0.40761 0.28327 0.0
C625 C 0.09726 0.4354 0.27451 0.0
C626 C 0.07042 0.43163 0.22755 0.0
C627 C 0.06326 0.40189 0.23445 0.0
N628 N 0.06598 0.36048 0.26806 0.0
N629 N 0.10233 0.4735 0.23761 0.0
C630 C 0.07137 0.38961 0.26216 0.0
C631 C 0.08964 0.44764 0.24666 0.0
N632 N 0.08837 0.39877 0.31206 0.0
N633 N 0.05944 0.44433 0.20246 0.0
H634 H 0.1166 0.48582 0.25082 0.0
H635 H 0.10048 0.48176 0.21623 0.0
H636 H 0.04652 0.43289 0.18723 0.0
H637 H 0.06126 0.46678 0.19782 0.0
H638 H 0.07803 0.38004 0.3205 0.0
H639 H 0.0982 0.41184 0.32831 0.0
H640 H 0.07463 0.34946 0.2863 0.0
H641 H 0.05455 0.34664 0.25369 0.0
C642 C 0.57987 0.09312 0.21811 0.0
C643 C 0.58941 0.06436 0.22622 0.0
C644 C 0.56448 0.069 0.27408 0.0
C645 C 0.55534 0.09788 0.26602 0.0
N646 N 0.54746 0.13456 0.22835 0.0
N647 N 0.58635 0.0224 0.25885 0.0
C648 C 0.5609 0.10902 0.23733 0.0
C649 C 0.57998 0.05136 0.25313 0.0
N650 N 0.58961 0.1055 0.19234 0.0
N651 N 0.56004 0.05921 0.3023 0.0
H652 H 0.59871 0.00924 0.24456 0.0
H653 H 0.57763 0.01073 0.27662 0.0
H654 H 0.54853 0.07137 0.31812 0.0
H655 H 0.56923 0.0399 0.31073 0.0
H656 H 0.58663 0.12764 0.18691 0.0
H657 H 0.60213 0.09395 0.17687 0.0
H658 H 0.5483 0.14254 0.20681 0.0
H659 H 0.53306 0.14649 0.24184 0.0
C660 C 0.95284 0.59212 0.26212 0.0
C661 C 0.9459 0.59057 0.23166 0.0
C662 C 0.91063 0.55078 0.24132 0.0
C663 C 0.9136 0.55622 0.27196 0.0
N664 N 0.93721 0.58161 0.31233 0.0
N665 N 0.91899 0.56842 0.19144 0.0
C666 C 0.93502 0.5764 0.28267 0.0
C667 C 0.92525 0.56961 0.22095 0.0
N668 N 0.97638 0.60865 0.27124 0.0
N669 N 0.89417 0.5273 0.2319 0.0
H670 H 0.9305 0.58078 0.17577 0.0
H671 H 0.90161 0.55625 0.18259 0.0
H672 H 0.88398 0.51274 0.24659 0.0
H673 H 0.89288 0.52056 0.20996 0.0
H674 H 0.98416 0.60893 0.29287 0.0
H675 H 0.98984 0.62012 0.25647 0.0
H676 H 0.94987 0.59853 0.3214 0.0
H677 H 0.92505 0.56986 0.32798 0.0
C678 C 0.4394 0.89892 0.23645 0.0
C679 C 0.43929 0.90622 0.26687 0.0
C680 C 0.40998 0.95061 0.25662 0.0
C681 C 0.40658 0.94093 0.22703 0.0
N682 N 0.41761 0.9063 0.18809 0.0
N683 N 0.42411 0.93793 0.30682 0.0
C684 C 0.42139 0.91531 0.21668 0.0
C685 C 0.4249 0.93207 0.2772 0.0
N686 N 0.45723 0.87663 0.2265 0.0
N687 N 0.39864 0.97731 0.26504 0.0
H688 H 0.4352 0.92509 0.32241 0.0
H689 H 0.41115 0.95439 0.31627 0.0
H690 H 0.38696 0.99099 0.25066 0.0
H691 H 0.40262 0.98699 0.2855 0.0
H692 H 0.46057 0.87188 0.20427 0.0
H693 H 0.47081 0.86434 0.24049 0.0
H694 H 0.42453 0.88588 0.18009 0.0
H695 H 0.4063 0.91882 0.17242 0.0
C696 C 0.08707 0.55723 0.75331 0.0
C697 C 0.09699 0.57203 0.72744 0.0
C698 C 0.06802 0.61575 0.74108 0.0
C699 C 0.06135 0.60248 0.76857 0.0
N700 N 0.06565 0.56162 0.80234 0.0
N701 N 0.09913 0.61639 0.69781 0.0
C702 C 0.07075 0.57329 0.77496 0.0
C703 C 0.08803 0.60156 0.72162 0.0
N704 N 0.09378 0.52808 0.75753 0.0
N705 N 0.05447 0.64162 0.73325 0.0
H706 H 0.11281 0.60656 0.68224 0.0
H707 H 0.09647 0.639 0.69452 0.0
H708 H 0.03924 0.65235 0.74681 0.0
H709 H 0.05597 0.65094 0.71229 0.0
H710 H 0.08439 0.51517 0.77406 0.0
H711 H 0.10752 0.51613 0.74347 0.0
H712 H 0.07491 0.54195 0.80979 0.0
H713 H 0.05352 0.57259 0.81856 0.0
C714 C 0.42837 0.07237 0.77797 0.0
C715 C 0.4002 0.06152 0.76952 0.0
C716 C 0.40801 0.07921 0.71896 0.0
C717 C 0.43407 0.09367 0.72846 0.0
N718 N 0.4695 0.10486 0.76656 0.0
N719 N 0.36274 0.05395 0.73237 0.0
C720 C 0.44471 0.09005 0.75772 0.0
C721 C 0.38996 0.0646 0.74004 0.0
N722 N 0.43925 0.0661 0.80544 0.0
N723 N 0.40111 0.07883 0.68954 0.0
H724 H 0.34982 0.04116 0.74651 0.0
H725 H 0.35229 0.05877 0.71248 0.0
H726 H 0.41442 0.08874 0.67355 0.0
H727 H 0.38387 0.06658 0.68056 0.0
H728 H 0.4608 0.07065 0.81198 0.0
H729 H 0.42731 0.05444 0.8213 0.0
H730 H 0.47647 0.10633 0.78841 0.0
H731 H 0.48255 0.11715 0.75212 0.0
C732 C 0.92934 0.42373 0.71663 0.0
C733 C 0.90474 0.44026 0.72679 0.0
C734 C 0.91368 0.42385 0.77757 0.0
C735 C 0.93757 0.40638 0.76728 0.0
N736 N 0.97225 0.39387 0.7289 0.0
N737 N 0.87745 0.46198 0.76687 0.0
C738 C 0.94688 0.40789 0.7374 0.0
C739 C 0.89817 0.44216 0.75733 0.0
N740 N 0.93483 0.42187 0.68698 0.0
N741 N 0.90555 0.42241 0.80663 0.0
H742 H 0.86606 0.47595 0.75249 0.0
H743 H 0.87319 0.46648 0.78899 0.0
H744 H 0.91789 0.41111 0.82248 0.0
H745 H 0.88615 0.43146 0.81499 0.0
H746 H 0.95005 0.40744 0.67762 0.0
H747 H 0.92301 0.43394 0.67133 0.0
H748 H 0.98186 0.39627 0.70818 0.0
H749 H 0.98504 0.3813 0.74335 0.0
C750 C 0.57038 0.93065 0.77617 0.0
C751 C 0.60133 0.9343 0.77266 0.0
C752 C 0.59937 0.90738 0.72577 0.0
C753 C 0.5693 0.90041 0.73109 0.0
N754 N 0.52687 0.90214 0.76331 0.0
N755 N 0.64615 0.92341 0.7456 0.0
C756 C 0.55479 0.91149 0.75662 0.0
C757 C 0.61607 0.92186 0.74791 0.0
N758 N 0.55595 0.94498 0.79849 0.0
N759 N 0.61173 0.90121 0.69894 0.0
H760 H 0.65948 0.93521 0.76015 0.0
H761 H 0.65826 0.91128 0.73026 0.0
H762 H 0.60011 0.89097 0.68199 0.0
H763 H 0.63241 0.90885 0.69238 0.0
H764 H 0.53304 0.94599 0.8001 0.0
H765 H 0.56678 0.95762 0.8144 0.0
H766 H 0.51639 0.90672 0.78325 0.0
H767 H 0.51492 0.88761 0.75004 0.0
C768 C 0.21769 0.08862 0.41721 0.0
C769 C 0.22875 0.06286 0.40324 0.0
C770 C 0.27692 0.07034 0.42693 0.0
C771 C 0.26701 0.09824 0.43724 0.0
N772 N 0.22845 0.13463 0.44243 0.0
N773 N 0.26872 0.02901 0.39369 0.0
C774 C 0.23745 0.1075 0.43259 0.0
C775 C 0.25819 0.05332 0.40821 0.0
N776 N 0.18806 0.09446 0.41644 0.0
N777 N 0.30433 0.06034 0.43473 0.0
H778 H 0.25548 0.01562 0.38044 0.0
H779 H 0.29087 0.02292 0.39333 0.0
H780 H 0.31907 0.07277 0.44733 0.0
H781 H 0.31177 0.039 0.43055 0.0
H782 H 0.17803 0.11131 0.42844 0.0
H783 H 0.17292 0.08065 0.40591 0.0
H784 H 0.20851 0.14437 0.43644 0.0
H785 H 0.24158 0.14822 0.45562 0.0
C786 C 0.92939 0.27306 0.42621 0.0
C787 C 0.90061 0.26435 0.43518 0.0
C788 C 0.90846 0.21526 0.41363 0.0
C789 C 0.93531 0.22533 0.4012 0.0
N790 N 0.97087 0.26416 0.39342 0.0
N791 N 0.8617 0.22783 0.43616 0.0
C792 C 0.94596 0.25417 0.40726 0.0
C793 C 0.88989 0.23558 0.42862 0.0
N794 N 0.94064 0.29958 0.43529 0.0
N795 N 0.90113 0.18599 0.41174 0.0
H796 H 0.84783 0.24138 0.44852 0.0
H797 H 0.85133 0.20872 0.42867 0.0
H798 H 0.9145 0.17041 0.40125 0.0
H799 H 0.88339 0.17656 0.42289 0.0
H800 H 0.96259 0.30572 0.43229 0.0
H801 H 0.92862 0.31481 0.44766 0.0
H802 H 0.97785 0.28606 0.39395 0.0
H803 H 0.98368 0.25096 0.37956 0.0
C804 C 0.72359 0.93027 0.4288 0.0
C805 C 0.73202 0.9014 0.43758 0.0
C806 C 0.78172 0.90937 0.41775 0.0
C807 C 0.77192 0.93626 0.40506 0.0
N808 N 0.7336 0.97242 0.39721 0.0
N809 N 0.76871 0.86294 0.44106 0.0
C810 C 0.74304 0.94709 0.41069 0.0
C811 C 0.76108 0.89088 0.43243 0.0
N812 N 0.69688 0.94138 0.43744 0.0
N813 N 0.81098 0.90198 0.41629 0.0
H814 H 0.75492 0.84953 0.45375 0.0
H815 H 0.78813 0.85245 0.43464 0.0
H816 H 0.82672 0.91541 0.40614 0.0
H817 H 0.82022 0.88405 0.4273 0.0
H818 H 0.69061 0.96328 0.43437 0.0
H819 H 0.6817 0.92923 0.44978 0.0
H820 H 0.71176 0.97959 0.39734 0.0
H821 H 0.74731 0.9856 0.38425 0.0
C822 C 0.09905 0.77795 0.40176 0.0
C823 C 0.06864 0.77176 0.39703 0.0
C824 C 0.07351 0.72557 0.42505 0.0
C825 C 0.10351 0.73263 0.43073 0.0
N826 N 0.14241 0.76893 0.43168 0.0
N827 N 0.02561 0.74205 0.40746 0.0
C828 C 0.11553 0.75987 0.42125 0.0
C829 C 0.05537 0.74647 0.41003 0.0
N830 N 0.11253 0.80067 0.38714 0.0
N831 N 0.06288 0.69827 0.43236 0.0
H832 H 0.0119 0.7557 0.39498 0.0
H833 H 0.01415 0.72594 0.41918 0.0
H834 H 0.0755 0.68242 0.44332 0.0
H835 H 0.0423 0.69044 0.42578 0.0
H836 H 0.13531 0.80384 0.38702 0.0
H837 H 0.10139 0.81509 0.37317 0.0
H838 H 0.15098 0.78996 0.42801 0.0
H839 H 0.15482 0.7566 0.44669 0.0
C840 C 0.22432 0.90278 0.5912 0.0
C841 C 0.23013 0.93226 0.60029 0.0
C842 C 0.27794 0.9309 0.57464 0.0
C843 C 0.2715 0.90181 0.56493 0.0
N844 N 0.23571 0.86326 0.557 0.0
N845 N 0.26012 0.97625 0.59707 0.0
C846 C 0.24379 0.88874 0.57111 0.0
C847 C 0.25607 0.94704 0.59057 0.0
N848 N 0.20054 0.88785 0.60224 0.0
N849 N 0.30552 0.94239 0.57028 0.0
H850 H 0.24567 0.98834 0.61029 0.0
H851 H 0.27681 0.98908 0.58784 0.0
H852 H 0.32201 0.93129 0.55866 0.0
H853 H 0.31282 0.96199 0.57982 0.0
H854 H 0.19729 0.86526 0.59933 0.0
H855 H 0.18507 0.89749 0.61619 0.0
H856 H 0.21461 0.8542 0.55824 0.0
H857 H 0.24914 0.85274 0.54151 0.0
C858 C 0.07727 0.2523 0.61838 0.0
C859 C 0.0644 0.22793 0.60335 0.0
C860 C 0.08601 0.24486 0.55658 0.0
C861 C 0.09819 0.26965 0.57151 0.0
N862 N 0.1008 0.30009 0.61515 0.0
N863 N 0.05229 0.20317 0.55776 0.0
C864 C 0.09252 0.2742 0.60201 0.0
C865 C 0.0672 0.22507 0.57225 0.0
N866 N 0.07525 0.25441 0.64848 0.0
N867 N 0.09404 0.23911 0.52803 0.0
H868 H 0.03978 0.18718 0.56859 0.0
H869 H 0.05061 0.20197 0.53486 0.0
H870 H 0.1082 0.25266 0.51597 0.0
H871 H 0.0887 0.21969 0.51694 0.0
H872 H 0.08781 0.26897 0.66109 0.0
H873 H 0.06206 0.24065 0.66133 0.0
H874 H 0.09406 0.30659 0.63614 0.0
H875 H 0.11255 0.3164 0.60412 0.0
C876 C 0.77049 0.07047 0.57089 0.0
C877 C 0.76442 0.06566 0.60129 0.0
C878 C 0.71607 0.08927 0.59547 0.0
C879 C 0.72385 0.09777 0.5664 0.0
N880 N 0.75985 0.09957 0.52717 0.0
N881 N 0.73293 0.07394 0.64368 0.0
C882 C 0.75127 0.08888 0.55407 0.0
C883 C 0.73763 0.07605 0.61393 0.0
N884 N 0.79488 0.05799 0.55822 0.0
N885 N 0.68769 0.09299 0.60512 0.0
H886 H 0.74771 0.0639 0.65814 0.0
H887 H 0.7154 0.08425 0.65443 0.0
H888 H 0.67102 0.10169 0.59179 0.0
H889 H 0.6799 0.08458 0.62506 0.0
H890 H 0.79867 0.05791 0.53554 0.0
H891 H 0.81045 0.0459 0.57013 0.0
H892 H 0.78098 0.09675 0.51856 0.0
H893 H 0.74664 0.11336 0.5143 0.0
C894 C 0.91559 0.71748 0.59318 0.0
C895 C 0.90542 0.72635 0.5649 0.0
C896 C 0.92743 0.77538 0.5716 0.0
C897 C 0.93715 0.76664 0.60008 0.0
N898 N 0.94657 0.72823 0.63565 0.0
N899 N 0.90618 0.76099 0.52447 0.0
C900 C 0.93305 0.73728 0.61017 0.0
C901 C 0.91305 0.75437 0.55313 0.0
N902 N 0.90813 0.69023 0.6039 0.0
N903 N 0.93034 0.80419 0.56296 0.0
H904 H 0.89457 0.74663 0.51071 0.0
H905 H 0.91378 0.77973 0.51356 0.0
H906 H 0.94098 0.82012 0.57575 0.0
H907 H 0.92065 0.81292 0.54404 0.0
H908 H 0.91137 0.68372 0.6257 0.0
H909 H 0.89756 0.67425 0.5911 0.0
H910 H 0.94683 0.70646 0.643 0.0
H911 H 0.95979 0.74216 0.64841 0.0
C912 C 0.40903 0.2857 0.08247 0.0
C913 C 0.43678 0.27603 0.09319 0.0
C914 C 0.43108 0.22946 0.06603 0.0
C915 C 0.40139 0.23726 0.05964 0.0
N916 N 0.36103 0.27198 0.06364 0.0
N917 N 0.47392 0.23801 0.09708 0.0
C918 C 0.3901 0.26523 0.06824 0.0
C919 C 0.44806 0.24793 0.08505 0.0
N920 N 0.4011 0.31472 0.08536 0.0
N921 N 0.44281 0.20412 0.05454 0.0
H922 H 0.48695 0.25074 0.11115 0.0
H923 H 0.48151 0.21641 0.09487 0.0
H924 H 0.43066 0.18933 0.04175 0.0
H925 H 0.46515 0.19884 0.0558 0.0
H926 H 0.38238 0.32378 0.07553 0.0
H927 H 0.41487 0.33051 0.09499 0.0
H928 H 0.35076 0.29049 0.07266 0.0
H929 H 0.3465 0.25804 0.05252 0.0
C930 C 0.38783 0.74296 0.92129 0.0
C931 C 0.4013 0.76827 0.9341 0.0
C932 C 0.44908 0.75383 0.91288 0.0
C933 C 0.4357 0.72802 0.90117 0.0
N934 N 0.39471 0.69409 0.90064 0.0
N935 N 0.44542 0.79571 0.94617 0.0
C936 C 0.40575 0.72143 0.90728 0.0
C937 C 0.43223 0.77287 0.93145 0.0
N938 N 0.35782 0.73961 0.922 0.0
N939 N 0.47724 0.76114 0.9048 0.0
H940 H 0.43367 0.81132 0.95834 0.0
H941 H 0.46821 0.79814 0.94792 0.0
H942 H 0.49023 0.74789 0.89116 0.0
H943 H 0.48707 0.78133 0.90972 0.0
H944 H 0.34661 0.72364 0.90981 0.0
H945 H 0.3437 0.75396 0.93309 0.0
H946 H 0.37395 0.68682 0.90735 0.0
H947 H 0.40742 0.67742 0.89106 0.0
C948 C 0.2717 0.43199 0.92561 0.0
C949 C 0.267 0.43591 0.89485 0.0
C950 C 0.22361 0.40368 0.89692 0.0
C951 C 0.22707 0.40116 0.92803 0.0
N952 N 0.25225 0.41569 0.97279 0.0
N953 N 0.23474 0.43135 0.85266 0.0
C954 C 0.25025 0.41649 0.94267 0.0
C955 C 0.24187 0.42345 0.88094 0.0
N956 N 0.29757 0.44125 0.93817 0.0
N957 N 0.20324 0.38682 0.88232 0.0
H958 H 0.24739 0.44586 0.84008 0.0
H959 H 0.21478 0.42587 0.84261 0.0
H960 H 0.18836 0.37289 0.89286 0.0
H961 H 0.20254 0.38489 0.8594 0.0
H962 H 0.30388 0.43602 0.95965 0.0
H963 H 0.31408 0.45215 0.92641 0.0
H964 H 0.26628 0.42933 0.98488 0.0
H965 H 0.23869 0.40263 0.98601 0.0
C966 C 0.6041 0.26315 0.93509 0.0
C967 C 0.59433 0.23366 0.9394 0.0
C968 C 0.55009 0.24333 0.90962 0.0
C969 C 0.56024 0.27259 0.90483 0.0
N970 N 0.59255 0.31269 0.91806 0.0
N971 N 0.55598 0.19689 0.93589 0.0
C972 C 0.58597 0.2832 0.91914 0.0
C973 C 0.56649 0.22422 0.92851 0.0
N974 N 0.63099 0.27178 0.94584 0.0
N975 N 0.52576 0.23334 0.89475 0.0
H976 H 0.56796 0.18184 0.94855 0.0
H977 H 0.53463 0.18976 0.93128 0.0
H978 H 0.51281 0.2469 0.88139 0.0
H979 H 0.51919 0.21132 0.89425 0.0
H980 H 0.64125 0.29156 0.94021 0.0
H981 H 0.64383 0.25854 0.95965 0.0
H982 H 0.60939 0.32253 0.93021 0.0
H983 H 0.57943 0.32799 0.90688 0.0
C984 C 0.72445 0.56792 0.92751 0.0
C985 C 0.7321 0.56092 0.89791 0.0
C986 C 0.77754 0.58981 0.90232 0.0
C987 C 0.7708 0.59563 0.93243 0.0
N988 N 0.74023 0.58657 0.97519 0.0
N989 N 0.76922 0.55836 0.85987 0.0
C990 C 0.74517 0.5832 0.9456 0.0
C991 C 0.75966 0.56983 0.88615 0.0
N992 N 0.6967 0.56182 0.93775 0.0
N993 N 0.80065 0.6038 0.88886 0.0
H994 H 0.75709 0.54291 0.8478 0.0
H995 H 0.79042 0.56167 0.85159 0.0
H996 H 0.81492 0.61804 0.89986 0.0
H997 H 0.80432 0.60309 0.86616 0.0
H998 H 0.68862 0.56948 0.95787 0.0
H999 H 0.68069 0.55109 0.92517 0.0
H1000 H 0.72392 0.57508 0.98663 0.0
H1001 H 0.7536 0.59937 0.98887 0.0
C1002 C 0.59136 0.71521 0.07889 0.0
C1003 C 0.56572 0.72497 0.09395 0.0
C1004 C 0.57076 0.77406 0.07153 0.0
C1005 C 0.59869 0.76552 0.06026 0.0
N1006 N 0.63588 0.72834 0.0521 0.0
N1007 N 0.53111 0.76364 0.10606 0.0
C1008 C 0.60897 0.73609 0.06343 0.0
C1009 C 0.55507 0.75424 0.09023 0.0
N1010 N 0.59836 0.68581 0.07888 0.0
N1011 N 0.55949 0.80123 0.06468 0.0
H1012 H 0.51889 0.74976 0.11977 0.0
H1013 H 0.52434 0.78557 0.10716 0.0
H1014 H 0.57086 0.81659 0.05185 0.0
H1015 H 0.53802 0.80773 0.06967 0.0
H1016 H 0.61529 0.67667 0.06633 0.0
H1017 H 0.58547 0.66997 0.08957 0.0
H1018 H 0.64652 0.70852 0.05682 0.0
H1019 H 0.64827 0.74241 0.0387 0.0
C1020 C 0.25422 0.61826 0.08361 0.0
C1021 C 0.23045 0.60415 0.06884 0.0
C1022 C 0.24838 0.55588 0.08605 0.0
C1023 C 0.27 0.57044 0.10356 0.0
N1024 N 0.29123 0.61602 0.12184 0.0
N1025 N 0.20222 0.56 0.05913 0.0
C1026 C 0.27222 0.60176 0.10319 0.0
C1027 C 0.22697 0.57301 0.07055 0.0
N1028 N 0.26044 0.64731 0.07805 0.0
N1029 N 0.24784 0.52572 0.0847 0.0
H1030 H 0.18569 0.57176 0.04825 0.0
H1031 H 0.19669 0.53795 0.06259 0.0
H1032 H 0.26148 0.51227 0.09747 0.0
H1033 H 0.2351 0.51398 0.06958 0.0
H1034 H 0.27967 0.65774 0.08514 0.0
H1035 H 0.24789 0.66046 0.06397 0.0
H1036 H 0.29073 0.63875 0.12543 0.0
H1037 H 0.30624 0.60521 0.13543 0.0
C1038 C 0.75796 0.44699 0.08855 0.0
C1039 C 0.73195 0.43314 0.09934 0.0
C1040 C 0.74363 0.38855 0.07093 0.0
C1041 C 0.77145 0.40075 0.06365 0.0
N1042 N 0.80663 0.44055 0.06688 0.0
N1043 N 0.70135 0.38952 0.10335 0.0
C1044 C 0.77892 0.4299 0.07239 0.0
C1045 C 0.72512 0.4036 0.09119 0.0
N1046 N 0.76298 0.47621 0.09429 0.0
N1047 N 0.73457 0.36288 0.0578 0.0
H1048 H 0.68659 0.39983 0.11759 0.0
H1049 H 0.69746 0.36696 0.10109 0.0
H1050 H 0.74735 0.35158 0.04229 0.0
H1051 H 0.7133 0.35438 0.05986 0.0
H1052 H 0.77976 0.48838 0.08436 0.0
H1053 H 0.74921 0.48897 0.10762 0.0
H1054 H 0.81473 0.46018 0.07568 0.0
H1055 H 0.82244 0.42874 0.05502 0.0
C1056 C 0.98855 0.2631 0.28205 0.0
C1057 C 0.99403 0.2331 0.27498 0.0
C1058 C 0.00904 0.24743 0.22503 0.0
C1059 C 0.0072 0.27767 0.2333 0.0
N1060 N 0.99957 0.31422 0.27167 0.0
N1061 N 0.01405 0.19678 0.24154 0.0
C1062 C 0.99807 0.28553 0.26234 0.0
C1063 C 0.00551 0.22524 0.24694 0.0
N1064 N 0.97321 0.27018 0.3071 0.0
N1065 N 0.01263 0.23979 0.19604 0.0
H1066 H 0.01203 0.17991 0.25709 0.0
H1067 H 0.02558 0.19049 0.22265 0.0
H1068 H 0.01391 0.25525 0.17903 0.0
H1069 H 0.01113 0.21811 0.18846 0.0
H1070 H 0.96575 0.29145 0.31174 0.0
H1071 H 0.96528 0.25438 0.32187 0.0
H1072 H 0.99669 0.32046 0.29363 0.0
H1073 H 0.00625 0.33162 0.25825 0.0
C1074 C 0.77239 0.99603 0.24641 0.0
C1075 C 0.76437 0.99291 0.27656 0.0
C1076 C 0.71344 0.00636 0.26443 0.0
C1077 C 0.72067 0.00602 0.23393 0.0
N1078 N 0.75585 0.99412 0.19562 0.0
N1079 N 0.72564 0.98781 0.31294 0.0
C1080 C 0.74984 0.99907 0.22478 0.0
C1081 C 0.73442 0.99599 0.28523 0.0
N1082 N 0.80146 0.99739 0.23846 0.0
N1083 N 0.68709 0.01775 0.27379 0.0
H1084 H 0.73997 0.9786 0.32843 0.0
H1085 H 0.70355 0.98701 0.31934 0.0
H1086 H 0.67154 0.02692 0.25949 0.0
H1087 H 0.6821 0.02108 0.29601 0.0
H1088 H 0.80838 0.00267 0.21715 0.0
H1089 H 0.81872 0.99625 0.25366 0.0
H1090 H 0.77609 0.98607 0.1882 0.0
H1091 H 0.73979 0.99506 0.17914 0.0
C1092 C 0.99079 0.71573 0.26376 0.0
C1093 C 0.98766 0.72337 0.23356 0.0
C1094 C 0.9942 0.77565 0.24615 0.0
C1095 C 0.00113 0.76747 0.27562 0.0
N1096 N 0.01204 0.72886 0.3109 0.0
N1097 N 0.99091 0.76011 0.19505 0.0
C1098 C 0.00103 0.73727 0.28406 0.0
C1099 C 0.99049 0.75323 0.22444 0.0
N1100 N 0.98294 0.68818 0.27328 0.0
N1101 N 0.99007 0.80472 0.23911 0.0
H1102 H 0.98861 0.74434 0.17842 0.0
H1103 H 0.99615 0.78106 0.18711 0.0
H1104 H 0.99195 0.82175 0.25451 0.0
H1105 H 0.98201 0.8117 0.21872 0.0
H1106 H 0.98209 0.68233 0.29551 0.0
H1107 H 0.97411 0.67221 0.25922 0.0
H1108 H 0.0152 0.70684 0.31681 0.0
H1109 H 0.02098 0.74369 0.32609 0.0
C1110 C 0.2272 0.00164 0.24583 0.0
C1111 C 0.23604 0.00712 0.27541 0.0
C1112 C 0.28725 0.99574 0.26234 0.0
C1113 C 0.27897 0.99374 0.23218 0.0
N1114 N 0.24183 0.0002 0.19443 0.0
N1115 N 0.27533 0.01555 0.31049 0.0
C1116 C 0.24912 0.99812 0.22365 0.0
C1117 C 0.26632 0.00586 0.28334 0.0
N1118 N 0.19794 0.99858 0.23906 0.0
N1119 N 0.31473 0.98688 0.27117 0.0
H1120 H 0.26084 0.0243 0.32609 0.0
H1121 H 0.29747 0.01783 0.31631 0.0
H1122 H 0.33037 0.97822 0.25664 0.0
H1123 H 0.32089 0.98515 0.29327 0.0
H1124 H 0.19048 0.99148 0.21849 0.0
H1125 H 0.18117 0.00032 0.25475 0.0
H1126 H 0.22096 0.00654 0.18711 0.0
H1127 H 0.25727 0.99837 0.17745 0.0
C1128 C 0.02625 0.7389 0.75433 0.0
C1129 C 0.00321 0.72473 0.77013 0.0
C1130 C 0.96652 0.75114 0.74034 0.0
C1131 C 0.98951 0.7676 0.72683 0.0
N1132 N 0.04092 0.78189 0.72624 0.0
N1133 N 0.95144 0.72247 0.78282 0.0
C1134 C 0.01931 0.76288 0.73536 0.0
C1135 C 0.97331 0.73233 0.76451 0.0
N1136 N 0.05458 0.72862 0.75618 0.0
N1137 N 0.93846 0.75221 0.72926 0.0
H1138 H 0.95554 0.70949 0.8014 0.0
H1139 H 0.92966 0.72976 0.78136 0.0
H1140 H 0.93264 0.7648 0.71088 0.0
H1141 H 0.92163 0.73825 0.73643 0.0
H1142 H 0.07156 0.73627 0.74268 0.0
H1143 H 0.06056 0.71038 0.7689 0.0
H1144 H 0.0625 0.78105 0.7342 0.0
H1145 H 0.03667 0.80043 0.71326 0.0
C1146 C 0.23538 0.02154 0.73565 0.0
C1147 C 0.22987 0.99153 0.72842 0.0
C1148 C 0.26398 0.97601 0.76743 0.0
C1149 C 0.27263 0.00584 0.77158 0.0
N1150 N 0.27037 0.0567 0.75543 0.0
N1151 N 0.24336 0.9401 0.73374 0.0
C1152 C 0.2593 0.02861 0.75465 0.0
C1153 C 0.24526 0.96866 0.74338 0.0
N1154 N 0.2172 0.04328 0.7252 0.0
N1155 N 0.27288 0.95478 0.78697 0.0
H1156 H 0.23088 0.93375 0.71548 0.0
H1157 H 0.25659 0.92318 0.74202 0.0
H1158 H 0.28576 0.95944 0.8055 0.0
H1159 H 0.26487 0.93321 0.78657 0.0
H1160 H 0.21857 0.06518 0.73214 0.0
H1161 H 0.19875 0.03896 0.7121 0.0
H1162 H 0.26339 0.0733 0.74111 0.0
H1163 H 0.28854 0.06274 0.76821 0.0
C1164 C 0.99915 0.26032 0.71352 0.0
C1165 C 0.00441 0.23095 0.72335 0.0
C1166 C 0.99971 0.24735 0.77476 0.0
C1167 C 0.99153 0.27589 0.76473 0.0
N1168 N 0.9774 0.30791 0.72452 0.0
N1169 N 0.00366 0.19532 0.76304 0.0
C1170 C 0.98957 0.28196 0.73409 0.0
C1171 C 0.00309 0.2241 0.75392 0.0
N1172 N 0.00442 0.268 0.68479 0.0
N1173 N 0.00536 0.24265 0.80405 0.0
H1174 H 0.00516 0.17754 0.74848 0.0
H1175 H 0.99965 0.18893 0.78477 0.0
H1176 H 0.00361 0.2592 0.81998 0.0
H1177 H 0.01447 0.22313 0.81212 0.0
H1178 H 0.00425 0.28978 0.67737 0.0
H1179 H 0.01175 0.25313 0.66884 0.0
H1180 H 0.97251 0.31212 0.70243 0.0
H1181 H 0.96939 0.32409 0.73883 0.0
C1182 C 0.7334 0.00479 0.7184 0.0
C1183 C 0.76383 0.00656 0.72588 0.0
C1184 C 0.75144 0.00041 0.77829 0.0
C1185 C 0.72139 0.99615 0.77053 0.0
N1186 N 0.68433 0.98942 0.73265 0.0
N1187 N 0.80242 9e-05 0.76207 0.0
C1188 C 0.7125 0.99707 0.74044 0.0
C1189 C 0.77305 0.00278 0.75562 0.0
N1190 N 0.72415 0.01161 0.69046 0.0
N1191 N 0.75923 0.00345 0.80731 0.0
H1192 H 0.81891 0.00089 0.74602 0.0
H1193 H 0.81028 0.99416 0.78286 0.0
H1194 H 0.744 0.00242 0.82455 0.0
H1195 H 0.78026 0.00978 0.81414 0.0
H1196 H 0.70206 0.01471 0.68484 0.0
H1197 H 0.73848 0.01653 0.6732 0.0
H1198 H 0.67778 0.98575 0.7109 0.0
H1199 H 0.6679 0.98427 0.74786 0.0
C1200 C 0.22263 0.2513 0.00457 0.0
C1201 C 0.23059 0.27931 0.99311 0.0
C1202 C 0.28296 0.26641 0.99706 0.0
C1203 C 0.27501 0.23737 0.00605 0.0
N1204 N 0.23702 0.20033 0.0119 0.0
N1205 N 0.26785 0.31132 0.9724 0.0
C1206 C 0.24475 0.22927 0.0081 0.0
C1207 C 0.26062 0.28627 0.98766 0.0
N1208 N 0.19413 0.24601 0.013 0.0
N1209 N 0.31169 0.27558 0.99855 0.0
H1210 H 0.2522 0.32632 0.96465 0.0
H1211 H 0.28911 0.31578 0.96485 0.0
H1212 H 0.32903 0.26202 0.00511 0.0
H1213 H 0.31803 0.29753 0.99581 0.0
H1214 H 0.18772 0.22715 0.0245 0.0
H1215 H 0.17734 0.26164 0.01087 0.0
H1216 H 0.21532 0.19282 0.01054 0.0
H1217 H 0.25242 0.18327 0.01334 0.0
C1218 C 0.26382 0.71596 0.00326 0.0
C1219 C 0.23382 0.72479 0.00583 0.0
C1220 C 0.24834 0.77663 0.99977 0.0
C1221 C 0.27788 0.76755 0.9946 0.0
N1222 N 0.313 0.72814 0.98652 0.0
N1223 N 0.19672 0.7627 0.00048 0.0
C1224 C 0.28544 0.73711 0.99505 0.0
C1225 C 0.22582 0.75492 0.00245 0.0
N1226 N 0.27203 0.68763 0.00982 0.0
N1227 N 0.24195 0.80592 0.00341 0.0
H1228 H 0.17955 0.74738 0.00148 0.0
H1229 H 0.18968 0.78388 0.9949 0.0
H1230 H 0.25792 0.82248 0.00227 0.0
H1231 H 0.22141 0.81357 0.01038 0.0
H1232 H 0.29395 0.68107 0.01224 0.0
H1233 H 0.25714 0.67101 0.01527 0.0
H1234 H 0.31849 0.70615 0.98259 0.0
H1235 H 0.32988 0.7427 0.98094 0.0
C1236 C 0.76355 0.26684 0.97706 0.0
C1237 C 0.76836 0.27634 0.00654 0.0
C1238 C 0.73149 0.24087 0.02403 0.0
C1239 C 0.72413 0.234 0.99431 0.0
N1240 N 0.72928 0.24504 0.94234 0.0
N1241 N 0.75278 0.27662 0.05755 0.0
C1242 C 0.73917 0.24813 0.9707 0.0
C1243 C 0.75127 0.26446 0.02994 0.0
N1244 N 0.78277 0.27493 0.95523 0.0
N1245 N 0.72039 0.22425 0.04665 0.0
H1246 H 0.76637 0.29448 0.06274 0.0
H1247 H 0.7384 0.27092 0.07458 0.0
H1248 H 0.70628 0.20637 0.04333 0.0
H1249 H 0.7275 0.22633 0.06844 0.0
H1250 H 0.78203 0.26616 0.93397 0.0
H1251 H 0.80127 0.28811 0.95908 0.0
H1252 H 0.73753 0.25737 0.92476 0.0
H1253 H 0.71087 0.23242 0.93671 0.0
C1254 C 0.75663 0.7406 0.97639 0.0
C1255 C 0.76585 0.72099 0.9991 0.0
C1256 C 0.73115 0.74467 0.03342 0.0
C1257 C 0.72454 0.76618 0.01164 0.0
N1258 N 0.73538 0.78817 0.96435 0.0
N1259 N 0.76546 0.70774 0.05087 0.0
C1260 C 0.73859 0.7652 0.98369 0.0
C1261 C 0.7541 0.72395 0.02809 0.0
N1262 N 0.76359 0.73487 0.94757 0.0
N1263 N 0.71464 0.74304 0.05866 0.0
H1264 H 0.78214 0.69221 0.04814 0.0
H1265 H 0.76016 0.71158 0.07293 0.0
H1266 H 0.69743 0.75757 0.06345 0.0
H1267 H 0.71617 0.72561 0.07359 0.0
H1268 H 0.75487 0.74681 0.92994 0.0
H1269 H 0.77536 0.71625 0.94089 0.0
H1270 H 0.74757 0.79002 0.94493 0.0
H1271 H 0.72276 0.80687 0.96908 0.0
C1272 C 0.4735 0.74539 0.75961 0.0
C1273 C 0.49663 0.72864 0.77255 0.0
C1274 C 0.53317 0.7573 0.74479 0.0
C1275 C 0.50995 0.77241 0.7301 0.0
N1276 N 0.45804 0.77565 0.71833 0.0
N1277 N 0.54772 0.71359 0.77194 0.0
C1278 C 0.48008 0.76491 0.73595 0.0
C1279 C 0.52627 0.73307 0.76346 0.0
N1280 N 0.44551 0.7439 0.77081 0.0
N1281 N 0.56166 0.76694 0.74225 0.0
H1282 H 0.54325 0.69496 0.78472 0.0
H1283 H 0.56919 0.71414 0.76369 0.0
H1284 H 0.56771 0.78522 0.72964 0.0
H1285 H 0.5789 0.75861 0.755 0.0
H1286 H 0.42861 0.75809 0.76427 0.0
H1287 H 0.43973 0.73047 0.78859 0.0
H1288 H 0.43621 0.76855 0.71981 0.0
H1289 H 0.46201 0.7893 0.7002 0.0
C1290 C 0.27378 0.49928 0.74323 0.0
C1291 C 0.266 0.49929 0.77363 0.0
C1292 C 0.21601 0.51577 0.76074 0.0
C1293 C 0.2228 0.5122 0.73038 0.0
N1294 N 0.25663 0.4957 0.69267 0.0
N1295 N 0.22786 0.50252 0.811 0.0
C1296 C 0.25129 0.50263 0.72156 0.0
C1297 C 0.23662 0.50621 0.78234 0.0
N1298 N 0.30277 0.49749 0.73501 0.0
N1299 N 0.19037 0.52944 0.76903 0.0
H1300 H 0.2419 0.49544 0.82776 0.0
H1301 H 0.20589 0.50382 0.81767 0.0
H1302 H 0.17489 0.53743 0.75395 0.0
H1303 H 0.18582 0.53555 0.79074 0.0
H1304 H 0.30989 0.5004 0.71333 0.0
H1305 H 0.32006 0.4962 0.75016 0.0
H1306 H 0.27603 0.48559 0.68555 0.0
H1307 H 0.24065 0.49748 0.67618 0.0
C1308 C 0.49818 0.27426 0.74655 0.0
C1309 C 0.50417 0.26563 0.77609 0.0
C1310 C 0.49279 0.21429 0.76354 0.0
C1311 C 0.4902 0.22234 0.73338 0.0
N1312 N 0.49597 0.25923 0.69527 0.0
N1313 N 0.51366 0.22653 0.81114 0.0
C1314 C 0.49439 0.25214 0.72457 0.0
C1315 C 0.5033 0.23537 0.78418 0.0
N1316 N 0.49488 0.30347 0.73965 0.0
N1317 N 0.48398 0.18693 0.77278 0.0
H1318 H 0.52275 0.24113 0.82646 0.0
H1319 H 0.51617 0.20441 0.81698 0.0
H1320 H 0.47483 0.17128 0.75858 0.0
H1321 H 0.48273 0.18096 0.79497 0.0
H1322 H 0.48743 0.31075 0.71914 0.0
H1323 H 0.49679 0.32035 0.75521 0.0
H1324 H 0.50209 0.28008 0.68771 0.0
H1325 H 0.49398 0.24362 0.67845 0.0
C1326 C 0.7653 0.52271 0.73295 0.0
C1327 C 0.77227 0.49299 0.7258 0.0
C1328 C 0.73287 0.47592 0.75869 0.0
C1329 C 0.72897 0.50524 0.769 0.0
N1330 N 0.74504 0.55614 0.76937 0.0
N1331 N 0.76606 0.44088 0.73584 0.0
C1332 C 0.74602 0.52862 0.75697 0.0
C1333 C 0.75687 0.46941 0.73959 0.0
N1334 N 0.77637 0.54528 0.71623 0.0
N1335 N 0.71316 0.45443 0.76648 0.0
H1336 H 0.78415 0.43504 0.72288 0.0
H1337 H 0.75752 0.42326 0.74793 0.0
H1338 H 0.69476 0.45864 0.77968 0.0
H1339 H 0.7133 0.43331 0.75734 0.0
H1340 H 0.76972 0.56718 0.7187 0.0
H1341 H 0.78982 0.5418 0.69786 0.0
H1342 H 0.75947 0.57307 0.76349 0.0
H1343 H 0.73179 0.56137 0.78746 0.0
C1344 C 0.52749 0.23557 0.24793 0.0
C1345 C 0.50435 0.22411 0.26565 0.0
C1346 C 0.46843 0.25369 0.238 0.0
C1347 C 0.49191 0.26747 0.2225 0.0
N1348 N 0.54434 0.27635 0.21785 0.0
N1349 N 0.45367 0.22723 0.282 0.0
C1350 C 0.52164 0.25981 0.22892 0.0
C1351 C 0.47503 0.23459 0.26199 0.0
N1352 N 0.55472 0.22253 0.24812 0.0
N1353 N 0.43987 0.25762 0.22903 0.0
H1354 H 0.45776 0.21408 0.30046 0.0
H1355 H 0.43268 0.23668 0.28198 0.0
H1356 H 0.43403 0.27057 0.21091 0.0
H1357 H 0.42226 0.24562 0.23769 0.0
H1358 H 0.57139 0.22815 0.23329 0.0
H1359 H 0.55976 0.20408 0.26095 0.0
H1360 H 0.56625 0.27341 0.22425 0.0
H1361 H 0.54107 0.29503 0.20479 0.0
C1362 C 0.78884 0.50479 0.23778 0.0
C1363 C 0.7813 0.5057 0.26817 0.0
C1364 C 0.7293 0.49778 0.25535 0.0
C1365 C 0.73755 0.49308 0.22546 0.0
N1366 N 0.77642 0.48553 0.1896 0.0
N1367 N 0.74506 0.49785 0.30648 0.0
C1368 C 0.76768 0.49475 0.21701 0.0
C1369 C 0.75169 0.50081 0.27718 0.0
N1370 N 0.81578 0.51474 0.22851 0.0
N1371 N 0.70019 0.5006 0.26279 0.0
H1372 H 0.76089 0.49929 0.32315 0.0
H1373 H 0.72438 0.49118 0.31404 0.0
H1374 H 0.68313 0.49943 0.24737 0.0
H1375 H 0.69315 0.50705 0.28373 0.0
H1376 H 0.82131 0.51714 0.2063 0.0
H1377 H 0.8313 0.52383 0.24288 0.0
H1378 H 0.79853 0.48361 0.18352 0.0
H1379 H 0.76191 0.47673 0.17404 0.0
C1380 C 0.47805 0.73955 0.22883 0.0
C1381 C 0.50805 0.73305 0.22252 0.0
C1382 C 0.52367 0.76808 0.2607 0.0
C1383 C 0.49391 0.77721 0.26432 0.0
N1384 N 0.44328 0.77555 0.24758 0.0
N1385 N 0.55964 0.74536 0.22839 0.0
C1386 C 0.47117 0.76399 0.24728 0.0
C1387 C 0.53098 0.74841 0.23738 0.0
N1388 N 0.4561 0.72176 0.21816 0.0
N1389 N 0.54484 0.77729 0.28017 0.0
H1390 H 0.56596 0.73189 0.21082 0.0
H1391 H 0.57677 0.75846 0.23643 0.0
H1392 H 0.54031 0.79102 0.29811 0.0
H1393 H 0.56626 0.7689 0.28032 0.0
H1394 H 0.4341 0.72377 0.22455 0.0
H1395 H 0.4602 0.70307 0.20532 0.0
H1396 H 0.42669 0.76868 0.23319 0.0
H1397 H 0.43743 0.79398 0.26009 0.0
C1398 C 0.25473 0.52626 0.24176 0.0
C1399 C 0.27185 0.50376 0.22822 0.0
C1400 C 0.24397 0.46604 0.2553 0.0
C1401 C 0.22858 0.48868 0.27056 0.0
N1402 N 0.22513 0.54025 0.28392 0.0
N1403 N 0.28757 0.45282 0.22726 0.0
C1404 C 0.23571 0.51879 0.26549 0.0
C1405 C 0.26791 0.47378 0.23653 0.0
N1406 N 0.25529 0.55449 0.23105 0.0
N1407 N 0.23492 0.43733 0.25751 0.0
H1408 H 0.30595 0.45782 0.21431 0.0
H1409 H 0.2874 0.43113 0.23492 0.0
H1410 H 0.21707 0.43074 0.27046 0.0
H1411 H 0.24338 0.42044 0.24437 0.0
H1412 H 0.24078 0.57087 0.23817 0.0
H1413 H 0.26805 0.56092 0.21301 0.0
H1414 H 0.23204 0.56218 0.28291 0.0
H1415 H 0.21199 0.53567 0.30227 0.0
C1416 C 0.76104 0.74542 0.52518 0.0
C1417 C 0.77656 0.73125 0.50192 0.0
C1418 C 0.7506 0.76199 0.46571 0.0
C1419 C 0.73308 0.774 0.48875 0.0
N1420 N 0.71719 0.77234 0.53962 0.0
N1421 N 0.78152 0.72139 0.44975 0.0
C1422 C 0.73699 0.76432 0.51829 0.0
C1423 C 0.77003 0.73819 0.47206 0.0
N1424 N 0.77011 0.74209 0.5538 0.0
N1425 N 0.74978 0.77414 0.43808 0.0
H1426 H 0.79507 0.70316 0.45354 0.0
H1427 H 0.77517 0.72366 0.42775 0.0
H1428 H 0.73643 0.79209 0.43262 0.0
H1429 H 0.76444 0.76826 0.42135 0.0
H1430 H 0.76152 0.75444 0.57121 0.0
H1431 H 0.78822 0.72923 0.55987 0.0
H1432 H 0.71731 0.76344 0.56084 0.0
H1433 H 0.69881 0.78556 0.53535 0.0
C1434 C 0.72124 0.25094 0.49394 0.0
C1435 C 0.72914 0.22312 0.50597 0.0
C1436 C 0.78146 0.2363 0.50305 0.0
C1437 C 0.77353 0.26515 0.49342 0.0
N1438 N 0.73552 0.30189 0.48615 0.0
N1439 N 0.76605 0.19184 0.52835 0.0
C1440 C 0.7433 0.27305 0.49061 0.0
C1441 C 0.75905 0.21651 0.51236 0.0
N1442 N 0.69295 0.25591 0.48468 0.0
N1443 N 0.81022 0.22716 0.50213 0.0
H1444 H 0.75027 0.17702 0.53621 0.0
H1445 H 0.78719 0.18765 0.53642 0.0
H1446 H 0.82759 0.24057 0.49533 0.0
H1447 H 0.81658 0.2053 0.50549 0.0
H1448 H 0.6867 0.27459 0.47279 0.0
H1449 H 0.67622 0.24018 0.48653 0.0
H1450 H 0.71376 0.30931 0.48693 0.0
H1451 H 0.75089 0.31896 0.48472 0.0
C1452 C 0.25461 0.76629 0.52639 0.0
C1453 C 0.27102 0.78024 0.50365 0.0
C1454 C 0.24236 0.75348 0.46637 0.0
C1455 C 0.22836 0.73713 0.48914 0.0
N1456 N 0.22574 0.72368 0.54071 0.0
N1457 N 0.28472 0.78277 0.45215 0.0
C1458 C 0.23576 0.74231 0.51916 0.0
C1459 C 0.2661 0.77263 0.47364 0.0
N1460 N 0.25591 0.77673 0.5547 0.0
N1461 N 0.23217 0.75181 0.43799 0.0
H1462 H 0.3029 0.7962 0.4566 0.0
H1463 H 0.2839 0.77545 0.43035 0.0
H1464 H 0.21424 0.73874 0.43181 0.0
H1465 H 0.23958 0.76564 0.42116 0.0
H1466 H 0.24199 0.76932 0.57145 0.0
H1467 H 0.26871 0.79487 0.56085 0.0
H1468 H 0.23296 0.72473 0.56254 0.0
H1469 H 0.2126 0.70528 0.53631 0.0
C1470 C 0.23708 0.25399 0.53223 0.0
C1471 C 0.22358 0.27084 0.50948 0.0
C1472 C 0.25016 0.242 0.47218 0.0
C1473 C 0.26561 0.22702 0.49497 0.0
N1474 N 0.27886 0.22389 0.54655 0.0
N1475 N 0.22269 0.28571 0.45829 0.0
C1476 C 0.26059 0.23453 0.52499 0.0
C1477 C 0.23174 0.26629 0.47957 0.0
N1478 N 0.22653 0.25529 0.56049 0.0
N1479 N 0.25182 0.23221 0.44366 0.0
H1480 H 0.21008 0.30442 0.463 0.0
H1481 H 0.23031 0.28503 0.43659 0.0
H1482 H 0.26424 0.21388 0.43734 0.0
H1483 H 0.23854 0.24046 0.42678 0.0
H1484 H 0.23355 0.24104 0.57714 0.0
H1485 H 0.20876 0.26852 0.56674 0.0
H1486 H 0.27796 0.23105 0.5684 0.0
H1487 H 0.29692 0.21029 0.54212 0.0
C1488 C 0.11449 0.33672 0.10333 0.0
C1489 C 0.0852 0.34776 0.10126 0.0
C1490 C 0.09458 0.36362 0.05028 0.0
C1491 C 0.12254 0.34967 0.05142 0.0
N1492 N 0.15832 0.32006 0.07736 0.0
N1493 N 0.04571 0.36789 0.07139 0.0
C1494 C 0.1323 0.33538 0.07748 0.0
C1495 C 0.07483 0.36042 0.07443 0.0
N1496 N 0.12577 0.3288 0.13021 0.0
N1497 N 0.08697 0.38007 0.0261 0.0
H1498 H 0.03026 0.36575 0.08827 0.0
H1499 H 0.03616 0.3738 0.05133 0.0
H1500 H 0.1006 0.3823 0.00766 0.0
H1501 H 0.06832 0.3935 0.02528 0.0
H1502 H 0.14787 0.32346 0.13359 0.0
H1503 H 0.11373 0.33025 0.14978 0.0
H1504 H 0.16496 0.30626 0.09452 0.0
H1505 H 0.17245 0.31957 0.05916 0.0
C1506 C 0.68141 0.09731 0.09181 0.0
C1507 C 0.65441 0.08694 0.10393 0.0
C1508 C 0.62727 0.11278 0.06483 0.0
C1509 C 0.65395 0.12599 0.05503 0.0
N1510 N 0.70552 0.13618 0.06438 0.0
N1511 N 0.60115 0.09132 0.10602 0.0
C1512 C 0.68076 0.11991 0.07011 0.0
C1513 C 0.62716 0.09663 0.09169 0.0
N1514 N 0.70765 0.08453 0.09955 0.0
N1515 N 0.60235 0.11401 0.04783 0.0
H1516 H 0.59992 0.08053 0.12628 0.0
H1517 H 0.58114 0.10054 0.09935 0.0
H1518 H 0.6016 0.12409 0.02716 0.0
H1519 H 0.58329 0.1021 0.05278 0.0
H1520 H 0.72751 0.08951 0.08905 0.0
H1521 H 0.70924 0.06659 0.11387 0.0
H1522 H 0.72477 0.13443 0.07687 0.0
H1523 H 0.70583 0.15364 0.04939 0.0
C1524 C 0.8847 0.66167 0.10755 0.0
C1525 C 0.91244 0.64726 0.10524 0.0
C1526 C 0.89844 0.62847 0.05631 0.0
C1527 C 0.8728 0.64639 0.05705 0.0
N1528 N 0.84317 0.68312 0.08168 0.0
N1529 N 0.94769 0.62038 0.07529 0.0
C1530 C 0.86639 0.66389 0.0822 0.0
C1531 C 0.91977 0.63125 0.07919 0.0
N1532 N 0.87525 0.67214 0.13426 0.0
N1533 N 0.90265 0.60907 0.03354 0.0
H1534 H 0.96443 0.62244 0.0909 0.0
H1535 H 0.95519 0.6117 0.05536 0.0
H1536 H 0.88809 0.60719 0.01579 0.0
H1537 H 0.91922 0.59312 0.03349 0.0
H1538 H 0.85404 0.6803 0.13779 0.0
H1539 H 0.88741 0.66972 0.15367 0.0
H1540 H 0.83944 0.69887 0.09805 0.0
H1541 H 0.82894 0.68483 0.06371 0.0
C1542 C 0.36972 0.90466 0.05088 0.0
C1543 C 0.35311 0.87816 0.05237 0.0
C1544 C 0.33947 0.88923 0.10357 0.0
C1545 C 0.35259 0.91758 0.10076 0.0
N1546 N 0.37834 0.95351 0.07067 0.0
N1547 N 0.32047 0.84561 0.079 0.0
C1548 C 0.36759 0.92552 0.07428 0.0
C1549 C 0.33745 0.87058 0.07839 0.0
N1550 N 0.3874 0.91004 0.02699 0.0
N1551 N 0.33037 0.87949 0.13068 0.0
H1552 H 0.31992 0.83036 0.06174 0.0
H1553 H 0.30561 0.84087 0.0959 0.0
H1554 H 0.33281 0.89191 0.14992 0.0
H1555 H 0.32331 0.85798 0.13471 0.0
H1556 H 0.4028 0.9271 0.0262 0.0
H1557 H 0.38839 0.8962 0.00862 0.0
H1558 H 0.38567 0.96181 0.05052 0.0
H1559 H 0.37811 0.96948 0.08716 0.0
C1560 C 0.1119 0.66462 0.89735 0.0
C1561 C 0.08198 0.656 0.90095 0.0
C1562 C 0.09162 0.64293 0.95265 0.0
C1563 C 0.1206 0.65434 0.94976 0.0
N1564 N 0.15782 0.67908 0.92088 0.0
N1565 N 0.04195 0.64111 0.93297 0.0
C1566 C 0.1306 0.66611 0.92254 0.0
C1567 C 0.07147 0.64605 0.92881 0.0
N1568 N 0.1228 0.67003 0.86971 0.0
N1569 N 0.08338 0.6291 0.97821 0.0
H1570 H 0.02629 0.64339 0.91627 0.0
H1571 H 0.03249 0.63724 0.95355 0.0
H1572 H 0.09721 0.62729 0.99654 0.0
H1573 H 0.06372 0.61742 0.98053 0.0
H1574 H 0.14512 0.67338 0.86533 0.0
H1575 H 0.10999 0.66853 0.85063 0.0
H1576 H 0.16497 0.69121 0.9027 0.0
H1577 H 0.17266 0.67934 0.93851 0.0
C1578 C 0.32707 0.07722 0.92545 0.0
C1579 C 0.34307 0.08537 0.89982 0.0
C1580 C 0.35707 0.13229 0.92294 0.0
C1581 C 0.34321 0.12308 0.94955 0.0
N1582 N 0.31916 0.08452 0.97773 0.0
N1583 N 0.37673 0.11834 0.87508 0.0
C1584 C 0.32918 0.09499 0.95122 0.0
C1585 C 0.35927 0.11214 0.89892 0.0
N1586 N 0.30974 0.05245 0.92519 0.0
N1587 N 0.36653 0.16082 0.91994 0.0
H1588 H 0.37781 0.1048 0.85646 0.0
H1589 H 0.39172 0.13577 0.87461 0.0
H1590 H 0.36424 0.17666 0.93649 0.0
H1591 H 0.37398 0.16967 0.90007 0.0
H1592 H 0.29459 0.04743 0.94174 0.0
H1593 H 0.30893 0.03777 0.90746 0.0
H1594 H 0.3123 0.06282 0.98104 0.0
H1595 H 0.31998 0.09655 0.99729 0.0
C1596 C 0.86706 0.35542 0.91925 0.0
C1597 C 0.87838 0.34359 0.94602 0.0
C1598 C 0.92213 0.32569 0.91984 0.0
C1599 C 0.91265 0.34064 0.89409 0.0
N1600 N 0.87764 0.3723 0.86949 0.0
N1601 N 0.92008 0.32416 0.97307 0.0
C1602 C 0.88561 0.35643 0.89389 0.0
C1603 C 0.90683 0.33045 0.94668 0.0
N1604 N 0.83824 0.36424 0.91756 0.0
N1605 N 0.94565 0.30681 0.91872 0.0
H1606 H 0.91053 0.32939 0.99335 0.0
H1607 H 0.94192 0.31713 0.97485 0.0
H1608 H 0.95741 0.3026 0.89938 0.0
H1609 H 0.95166 0.29321 0.93629 0.0
H1610 H 0.828 0.37024 0.89787 0.0
H1611 H 0.82366 0.36298 0.93533 0.0
H1612 H 0.86 0.38706 0.86924 0.0
H1613 H 0.88979 0.37198 0.84992 0.0
C1614 C 0.66795 0.91078 0.95634 0.0
C1615 C 0.65684 0.88155 0.95328 0.0
C1616 C 0.64379 0.89169 0.90168 0.0
C1617 C 0.65722 0.91989 0.90412 0.0
N1618 N 0.68547 0.95525 0.93223 0.0
N1619 N 0.63922 0.84229 0.9218 0.0
C1620 C 0.67045 0.92906 0.93096 0.0
C1621 C 0.64594 0.8715 0.92565 0.0
N1622 N 0.67469 0.92166 0.98372 0.0
N1623 N 0.62895 0.88418 0.87647 0.0
H1624 H 0.64132 0.82659 0.93852 0.0
H1625 H 0.63422 0.833 0.90137 0.0
H1626 H 0.6282 0.89769 0.85783 0.0
H1627 H 0.61572 0.86545 0.87468 0.0
H1628 H 0.67949 0.94378 0.98777 0.0
H1629 H 0.67292 0.90929 0.00303 0.0
H1630 H 0.69858 0.96148 0.95006 0.0
H1631 H 0.6866 0.97 0.91457 0.0
C1632 C 0.10449 0.11149 0.32866 0.0
C1633 C 0.10255 0.08294 0.34152 0.0
C1634 C 0.0527 0.09421 0.35939 0.0
C1635 C 0.0534 0.12118 0.34357 0.0
N1636 N 0.07833 0.1545 0.31035 0.0
N1637 N 0.07264 0.04492 0.36421 0.0
C1638 C 0.07879 0.12948 0.32725 0.0
C1639 C 0.07613 0.07372 0.35573 0.0
N1640 N 0.13115 0.12207 0.31923 0.0
N1641 N 0.02966 0.08809 0.37792 0.0
H1642 H 0.08873 0.02878 0.36111 0.0
H1643 H 0.05266 0.03627 0.3716 0.0
H1644 H 0.01168 0.10221 0.3807 0.0
H1645 H 0.02956 0.07025 0.39243 0.0
H1646 H 0.13445 0.1438 0.31247 0.0
H1647 H 0.15073 0.11005 0.32086 0.0
H1648 H 0.09484 0.1598 0.29524 0.0
H1649 H 0.06049 0.1691 0.31003 0.0
C1650 C 0.92762 0.07167 0.34964 0.0
C1651 C 0.91684 0.09988 0.34119 0.0
C1652 C 0.86758 0.07879 0.33322 0.0
C1653 C 0.87788 0.05137 0.34425 0.0
N1654 N 0.91584 0.02305 0.36856 0.0
N1655 N 0.87542 0.13168 0.33029 0.0
C1656 C 0.90733 0.04825 0.35427 0.0
C1657 C 0.88649 0.10387 0.33434 0.0
N1658 N 0.95735 0.06677 0.35163 0.0
N1659 N 0.8399 0.08076 0.32133 0.0
H1660 H 0.88836 0.15067 0.33168 0.0
H1661 H 0.85296 0.13616 0.32824 0.0
H1662 H 0.82511 0.06309 0.32113 0.0
H1663 H 0.83238 0.09924 0.30987 0.0
H1664 H 0.96653 0.04593 0.35491 0.0
H1665 H 0.97302 0.08292 0.34678 0.0
H1666 H 0.93624 0.02073 0.37895 0.0
H1667 H 0.90149 0.00546 0.37243 0.0
C1668 C 0.92616 0.92874 0.34041 0.0
C1669 C 0.89744 0.91658 0.34275 0.0
C1670 C 0.91827 0.86663 0.34461 0.0
C1671 C 0.94706 0.87903 0.34464 0.0
N1672 N 0.97852 0.92189 0.34874 0.0
N1673 N 0.86574 0.87474 0.35161 0.0
C1674 C 0.95105 0.91012 0.3443 0.0
C1675 C 0.89334 0.88571 0.34615 0.0
N1676 N 0.92966 0.9579 0.33335 0.0
N1677 N 0.91473 0.83677 0.3418 0.0
H1678 H 0.84695 0.88806 0.35246 0.0
H1679 H 0.86176 0.85288 0.35752 0.0
H1680 H 0.93244 0.82209 0.34058 0.0
H1681 H 0.89434 0.82671 0.33834 0.0
H1682 H 0.95001 0.96738 0.32838 0.0
H1683 H 0.91189 0.97209 0.32968 0.0
H1684 H 0.98231 0.94438 0.35172 0.0
H1685 H 0.99725 0.90899 0.35239 0.0
C1686 C 0.09292 0.95049 0.32721 0.0
C1687 C 0.12021 0.94916 0.34274 0.0
C1688 C 0.10669 0.90049 0.36206 0.0
C1689 C 0.0817 0.9 0.34314 0.0
N1690 N 0.05177 0.92376 0.30592 0.0
N1691 N 0.15561 0.92026 0.37029 0.0
C1692 C 0.07519 0.92468 0.32498 0.0
C1693 C 0.12779 0.92348 0.359 0.0
N1694 N 0.08297 0.97679 0.31616 0.0
N1695 N 0.11016 0.87936 0.38329 0.0
H1696 H 0.17221 0.93596 0.36749 0.0
H1697 H 0.16315 0.90065 0.37969 0.0
H1698 H 0.09487 0.86258 0.38677 0.0
H1699 H 0.12651 0.88033 0.39945 0.0
H1700 H 0.06184 0.9797 0.30756 0.0
H1701 H 0.09446 0.9966 0.31832 0.0
H1702 H 0.04826 0.93954 0.28956 0.0
H1703 H 0.03673 0.90634 0.30522 0.0
C1704 C 0.0734 0.86958 0.64092 0.0
C1705 C 0.04832 0.87832 0.65755 0.0
C1706 C 0.07569 0.92114 0.67636 0.0
C1707 C 0.09961 0.91388 0.65749 0.0
N1708 N 0.11823 0.88525 0.61657 0.0
N1709 N 0.02326 0.91657 0.68522 0.0
C1710 C 0.09751 0.88941 0.63806 0.0
C1711 C 0.0488 0.90521 0.67379 0.0
N1712 N 0.07499 0.84184 0.6291 0.0
N1713 N 0.07842 0.94346 0.69653 0.0
H1714 H 0.0027 0.90658 0.68258 0.0
H1715 H 0.02184 0.93758 0.6945 0.0
H1716 H 0.09707 0.95687 0.69809 0.0
H1717 H 0.06295 0.94735 0.71311 0.0
H1718 H 0.09405 0.83345 0.61931 0.0
H1719 H 0.05851 0.82601 0.63187 0.0
H1720 H 0.11619 0.86938 0.60002 0.0
H1721 H 0.13586 0.89964 0.61346 0.0
C1722 C 0.08982 0.04346 0.664 0.0
C1723 C 0.12055 0.04755 0.65923 0.0
C1724 C 0.11278 0.10092 0.65426 0.0
C1725 C 0.08267 0.09692 0.66185 0.0
N1726 N 0.04354 0.06542 0.6794 0.0
N1727 N 0.16226 0.0804 0.65465 0.0
C1728 C 0.0715 0.06848 0.66844 0.0
C1729 C 0.13236 0.07635 0.65554 0.0
N1730 N 0.07785 0.01574 0.66278 0.0
N1731 N 0.12257 0.1281 0.64547 0.0
H1732 H 0.17732 0.06301 0.65596 0.0
H1733 H 0.17225 0.10111 0.65516 0.0
H1734 H 0.10908 0.14678 0.64531 0.0
H1735 H 0.14341 0.13171 0.63646 0.0
H1736 H 0.05522 0.01171 0.66326 0.0
H1737 H 0.09027 0.99691 0.65811 0.0
H1738 H 0.03524 0.04553 0.68743 0.0
H1739 H 0.02953 0.08335 0.68302 0.0
C1740 C 0.9508 0.08543 0.65044 0.0
C1741 C 0.94778 0.11646 0.65308 0.0
C1742 C 0.89396 0.1114 0.65589 0.0
C1743 C 0.89729 0.08024 0.65629 0.0
N1744 N 0.9288 0.03735 0.65871 0.0
N1745 N 0.91735 0.15934 0.66138 0.0
C1746 C 0.92571 0.06714 0.65476 0.0
C1747 C 0.91957 0.1296 0.65656 0.0
N1748 N 0.97756 0.07354 0.64307 0.0
N1749 N 0.86638 0.12355 0.65389 0.0
H1750 H 0.93557 0.17345 0.66116 0.0
H1751 H 0.8978 0.16979 0.66748 0.0
H1752 H 0.84713 0.1109 0.65355 0.0
H1753 H 0.8626 0.14594 0.65027 0.0
H1754 H 0.98065 0.05131 0.63805 0.0
H1755 H 0.99626 0.08645 0.63925 0.0
H1756 H 0.94916 0.02686 0.66081 0.0
H1757 H 0.91095 0.02334 0.66266 0.0
C1758 C 0.88219 0.89561 0.66689 0.0
C1759 C 0.9116 0.89812 0.6563 0.0
C1760 C 0.90148 0.94875 0.63981 0.0
C1761 C 0.87339 0.94734 0.65348 0.0
N1762 N 0.83768 0.92086 0.68276 0.0
N1763 N 0.95104 0.92896 0.63773 0.0
C1764 C 0.86396 0.92119 0.66791 0.0
C1765 C 0.92172 0.92515 0.64392 0.0
N1766 N 0.87121 0.86856 0.67462 0.0
N1767 N 0.90887 0.97264 0.6229 0.0
H1768 H 0.96693 0.91271 0.64132 0.0
H1769 H 0.96017 0.94923 0.63183 0.0
H1770 H 0.89486 0.99067 0.61985 0.0
H1771 H 0.92779 0.97349 0.60986 0.0
H1772 H 0.84907 0.86485 0.67959 0.0
H1773 H 0.88356 0.84916 0.67339 0.0
H1774 H 0.83125 0.9037 0.69665 0.0
H1775 H 0.82302 0.93865 0.68267 0.0
C1776 C 0.34624 0.05158 0.08842 0.0
C1777 C 0.34395 0.05493 0.11947 0.0
C1778 C 0.33931 0.10862 0.11359 0.0
C1779 C 0.34419 0.1053 0.08279 0.0
N1780 N 0.35858 0.07431 0.04175 0.0
N1781 N 0.34108 0.08629 0.16238 0.0
C1782 C 0.34963 0.077 0.07046 0.0
C1783 C 0.34138 0.0834 0.13232 0.0
N1784 N 0.34444 0.02414 0.07592 0.0
N1785 N 0.33259 0.13584 0.12486 0.0
H1786 H 0.34114 0.06823 0.17669 0.0
H1787 H 0.3425 0.10649 0.17327 0.0
H1788 H 0.33254 0.15502 0.1121 0.0
H1789 H 0.32551 0.1393 0.14645 0.0
H1790 H 0.34269 0.02065 0.05325 0.0
H1791 H 0.34185 0.0049 0.08822 0.0
H1792 H 0.36599 0.05453 0.03263 0.0
H1793 H 0.36125 0.09225 0.02762 0.0
C1794 C 0.34184 0.92131 0.86953 0.0
C1795 C 0.34488 0.94992 0.88192 0.0
C1796 C 0.34524 0.92894 0.93181 0.0
C1797 C 0.34421 0.90021 0.91934 0.0
N1798 N 0.34606 0.86837 0.87669 0.0
N1799 N 0.3542 0.98119 0.92404 0.0
C1800 C 0.34371 0.89617 0.88827 0.0
C1801 C 0.34789 0.95381 0.91287 0.0
N1802 N 0.3361 0.91824 0.84003 0.0
N1803 N 0.34259 0.93247 0.96171 0.0
H1804 H 0.35638 0.99993 0.91082 0.0
H1805 H 0.35973 0.985 0.94603 0.0
H1806 H 0.34052 0.91477 0.97631 0.0
H1807 H 0.33999 0.9529 0.97194 0.0
H1808 H 0.33023 0.89828 0.83024 0.0
H1809 H 0.33506 0.93612 0.82554 0.0
H1810 H 0.34914 0.86415 0.8543 0.0
H1811 H 0.34728 0.84941 0.88973 0.0
C1812 C 0.07501 0.35944 0.86754 0.0
C1813 C 0.04798 0.34726 0.87762 0.0
C1814 C 0.07159 0.33288 0.92421 0.0
C1815 C 0.09795 0.34696 0.91493 0.0
N1816 N 0.12236 0.38012 0.88114 0.0
N1817 N 0.01855 0.33003 0.91855 0.0
C1818 C 0.09892 0.36232 0.88765 0.0
C1819 C 0.0457 0.33596 0.90679 0.0
N1820 N 0.07839 0.36701 0.83851 0.0
N1821 N 0.07111 0.31688 0.94981 0.0
H1822 H 0.99898 0.33428 0.90722 0.0
H1823 H 0.01523 0.32431 0.94058 0.0
H1824 H 0.08912 0.31546 0.9641 0.0
H1825 H 0.05347 0.30341 0.95586 0.0
H1826 H 0.09862 0.3731 0.82941 0.0
H1827 H 0.06172 0.3645 0.82283 0.0
H1828 H 0.12295 0.394 0.8628 0.0
H1829 H 0.13985 0.38331 0.8957 0.0
C1830 C 0.64575 0.10768 0.88886 0.0
C1831 C 0.64829 0.1041 0.91988 0.0
C1832 C 0.64611 0.0503 0.91426 0.0
C1833 C 0.64688 0.05383 0.88317 0.0
N1834 N 0.65021 0.08527 0.84035 0.0
N1835 N 0.65458 0.07235 0.96226 0.0
C1836 C 0.64726 0.08237 0.87026 0.0
C1837 C 0.64927 0.07549 0.93268 0.0
N1838 N 0.64104 0.13519 0.87729 0.0
N1839 N 0.64163 0.02287 0.92612 0.0
H1840 H 0.65707 0.0902 0.97659 0.0
H1841 H 0.65894 0.05212 0.9723 0.0
H1842 H 0.639 0.00395 0.91322 0.0
H1843 H 0.63784 0.01915 0.94849 0.0
H1844 H 0.63591 0.13896 0.8552 0.0
H1845 H 0.63986 0.15419 0.89029 0.0
H1846 H 0.65408 0.10536 0.82986 0.0
H1847 H 0.65078 0.06722 0.82602 0.0
C1848 C 0.94656 0.67177 0.90891 0.0
C1849 C 0.9467 0.65462 0.88255 0.0
C1850 C 0.89917 0.63298 0.8966 0.0
C1851 C 0.89714 0.65316 0.9205 0.0
N1852 N 0.91769 0.69393 0.94808 0.0
N1853 N 0.91997 0.62355 0.84834 0.0
C1854 C 0.92035 0.67341 0.92607 0.0
C1855 C 0.92217 0.6364 0.87558 0.0
N1856 N 0.97191 0.68497 0.9187 0.0
N1857 N 0.87949 0.61027 0.89412 0.0
H1858 H 0.93556 0.62665 0.83169 0.0
H1859 H 0.90111 0.6125 0.84117 0.0
H1860 H 0.86272 0.60661 0.90941 0.0
H1861 H 0.88171 0.59334 0.87869 0.0
H1862 H 0.97379 0.69496 0.93934 0.0
H1863 H 0.9921 0.68328 0.90783 0.0
H1864 H 0.93227 0.71155 0.95064 0.0
H1865 H 0.89992 0.69455 0.96271 0.0
C1866 C 0.66943 0.92266 0.13338 0.0
C1867 C 0.65234 0.9476 0.12521 0.0
C1868 C 0.63864 0.92359 0.07873 0.0
C1869 C 0.65395 0.89769 0.08781 0.0
N1870 N 0.67869 0.8704 0.12635 0.0
N1871 N 0.61678 0.97039 0.09274 0.0
C1872 C 0.66801 0.89662 0.11584 0.0
C1873 C 0.63558 0.94752 0.09878 0.0
N1874 N 0.68716 0.92393 0.1578 0.0
N1875 N 0.62855 0.92617 0.05035 0.0
H1876 H 0.61483 0.989 0.10617 0.0
H1877 H 0.6014 0.96989 0.07564 0.0
H1878 H 0.63068 0.9096 0.03455 0.0
H1879 H 0.6205 0.94581 0.04152 0.0
H1880 H 0.70277 0.90783 0.16292 0.0
H1881 H 0.68767 0.94209 0.172 0.0
H1882 H 0.68647 0.86758 0.1478 0.0
H1883 H 0.67715 0.85062 0.11464 0.0
C1884 C 0.07824 0.65259 0.13173 0.0
C1885 C 0.0497 0.65766 0.11977 0.0
C1886 C 0.07144 0.66778 0.07117 0.0
C1887 C 0.09956 0.66024 0.08262 0.0
N1888 N 0.1298 0.64159 0.12225 0.0
N1889 N 0.01837 0.6654 0.07724 0.0
C1890 C 0.10298 0.65145 0.11245 0.0
C1891 C 0.04607 0.66414 0.08926 0.0
N1892 N 0.0819 0.65037 0.16163 0.0
N1893 N 0.06905 0.67866 0.04309 0.0
H1894 H 0.99916 0.66263 0.08958 0.0
H1895 H 0.01435 0.66665 0.05464 0.0
H1896 H 0.08706 0.68073 0.02886 0.0
H1897 H 0.0497 0.68769 0.03457 0.0
H1898 H 0.10248 0.64982 0.17188 0.0
H1899 H 0.06445 0.65176 0.17658 0.0
H1900 H 0.13291 0.63161 0.14273 0.0
H1901 H 0.14867 0.64143 0.10904 0.0
C1902 C 0.92488 0.35809 0.12892 0.0
C1903 C 0.95163 0.34446 0.11975 0.0
C1904 C 0.92678 0.32533 0.07553 0.0
C1905 C 0.90123 0.34174 0.08302 0.0
N1906 N 0.87666 0.37669 0.11485 0.0
N1907 N 0.97957 0.32021 0.08114 0.0
C1908 C 0.90056 0.35918 0.10904 0.0
C1909 C 0.953 0.32935 0.09222 0.0
N1910 N 0.92202 0.36839 0.15716 0.0
N1911 N 0.92605 0.30576 0.05253 0.0
H1912 H 0.99959 0.32342 0.09198 0.0
H1913 H 0.98221 0.31214 0.05976 0.0
H1914 H 0.90746 0.30254 0.03934 0.0
H1915 H 0.94301 0.29085 0.04814 0.0
H1916 H 0.90209 0.37575 0.16596 0.0
H1917 H 0.93875 0.36687 0.17289 0.0
H1918 H 0.8764 0.3925 0.13157 0.0
H1919 H 0.8577 0.37681 0.10174 0.0
C1920 C 0.59502 0.82495 0.54945 0.0
C1921 C 0.62081 0.8428 0.54794 0.0
C1922 C 0.6085 0.86415 0.59609 0.0
C1923 C 0.5853 0.84333 0.59935 0.0
N1924 N 0.5584 0.80132 0.58034 0.0
N1925 N 0.65541 0.87484 0.57295 0.0
C1926 C 0.57934 0.82273 0.57651 0.0
C1927 C 0.62847 0.86124 0.57209 0.0
N1928 N 0.58426 0.81171 0.52456 0.0
N1929 N 0.61132 0.88696 0.61559 0.0
H1930 H 0.67135 0.87219 0.55656 0.0
H1931 H 0.66317 0.88613 0.59144 0.0
H1932 H 0.59681 0.89014 0.63309 0.0
H1933 H 0.6261 0.90434 0.61257 0.0
H1934 H 0.56394 0.80096 0.5237 0.0
H1935 H 0.59389 0.81445 0.5039 0.0
H1936 H 0.55568 0.78371 0.56576 0.0
H1937 H 0.54505 0.79988 0.59903 0.0
C1938 C 0.14031 0.61438 0.59492 0.0
C1939 C 0.15907 0.58936 0.5972 0.0
C1940 C 0.17609 0.59762 0.54659 0.0
C1941 C 0.16041 0.62479 0.54588 0.0
N1942 N 0.13251 0.66201 0.57204 0.0
N1943 N 0.19799 0.5592 0.57659 0.0
C1944 C 0.14379 0.63402 0.57076 0.0
C1945 C 0.17815 0.58176 0.57356 0.0
N1946 N 0.11889 0.61924 0.61555 0.0
N1947 N 0.18735 0.58591 0.52113 0.0
H1948 H 0.19938 0.54606 0.59544 0.0
H1949 H 0.21458 0.55495 0.56122 0.0
H1950 H 0.18457 0.59577 0.50053 0.0
H1951 H 0.19641 0.56479 0.51986 0.0
H1952 H 0.10272 0.63547 0.61333 0.0
H1953 H 0.11551 0.60522 0.6334 0.0
H1954 H 0.12279 0.67077 0.59097 0.0
H1955 H 0.1356 0.67759 0.55537 0.0
C1956 C 0.40599 0.16396 0.54857 0.0
C1957 C 0.37604 0.1551 0.55125 0.0
C1958 C 0.38379 0.14458 0.60383 0.0
C1959 C 0.41267 0.15648 0.60163 0.0
N1960 N 0.44984 0.182 0.57326 0.0
N1961 N 0.33493 0.14116 0.58218 0.0
C1962 C 0.42331 0.16764 0.57441 0.0
C1963 C 0.36451 0.14633 0.57906 0.0
N1964 N 0.41837 0.1673 0.52123 0.0
N1965 N 0.37484 0.13158 0.62956 0.0
H1966 H 0.31998 0.14279 0.56474 0.0
H1967 H 0.32475 0.13773 0.60251 0.0
H1968 H 0.38782 0.13131 0.64859 0.0
H1969 H 0.35541 0.11943 0.63149 0.0
H1970 H 0.44082 0.17095 0.51786 0.0
H1971 H 0.40687 0.16315 0.50172 0.0
H1972 H 0.45722 0.19336 0.55467 0.0
H1973 H 0.46343 0.18475 0.59165 0.0
C1974 C 0.81823 0.38007 0.5654 0.0
C1975 C 0.84529 0.37395 0.55082 0.0
C1976 C 0.87155 0.40143 0.5893 0.0
C1977 C 0.84419 0.41183 0.60059 0.0
N1978 N 0.79118 0.41572 0.59426 0.0
N1979 N 0.89757 0.38402 0.5461 0.0
C1980 C 0.81737 0.40238 0.58736 0.0
C1981 C 0.87202 0.38593 0.56202 0.0
N1982 N 0.79347 0.36402 0.55905 0.0
N1983 N 0.89701 0.40539 0.60499 0.0
H1984 H 0.8988 0.37421 0.52532 0.0
H1985 H 0.91686 0.39502 0.55217 0.0
H1986 H 0.89743 0.41516 0.62584 0.0
H1987 H 0.91706 0.39588 0.59886 0.0
H1988 H 0.77392 0.36606 0.57103 0.0
H1989 H 0.79348 0.34626 0.54437 0.0
H1990 H 0.77163 0.41127 0.58296 0.0
H1991 H 0.78947 0.43356 0.60869 0.0
C1992 C 0.61002 0.16526 0.39452 0.0
C1993 C 0.58077 0.15425 0.39715 0.0
C1994 C 0.59101 0.13879 0.44808 0.0
C1995 C 0.61894 0.15276 0.44641 0.0
N1996 N 0.65424 0.18221 0.41963 0.0
N1997 N 0.54164 0.13507 0.42805 0.0
C1998 C 0.62821 0.16692 0.42009 0.0
C1999 C 0.5708 0.14202 0.4243 0.0
N2000 N 0.62092 0.17279 0.36739 0.0
N2001 N 0.58376 0.1224 0.47239 0.0
H2002 H 0.52581 0.13757 0.41155 0.0
H2003 H 0.53249 0.12943 0.44837 0.0
H2004 H 0.59764 0.12018 0.49063 0.0
H2005 H 0.56508 0.10904 0.4735 0.0
H2006 H 0.64297 0.17809 0.36364 0.0
H2007 H 0.60863 0.17102 0.34799 0.0
H2008 H 0.66053 0.1959 0.40225 0.0
H2009 H 0.66875 0.18277 0.43752 0.0
C2010 C 0.85401 0.57246 0.42573 0.0
C2011 C 0.85102 0.58386 0.3967 0.0
C2012 C 0.84724 0.63415 0.41662 0.0
C2013 C 0.85223 0.62274 0.44535 0.0
N2014 N 0.86776 0.5824 0.47639 0.0
N2015 N 0.84983 0.62567 0.36372 0.0
C2016 C 0.85787 0.59228 0.44963 0.0
C2017 C 0.84902 0.61479 0.39187 0.0
N2018 N 0.85163 0.54277 0.43069 0.0
N2019 N 0.83993 0.66323 0.41309 0.0
H2020 H 0.85126 0.61214 0.34513 0.0
H2021 H 0.85152 0.64808 0.35885 0.0
H2022 H 0.83938 0.67816 0.43063 0.0
H2023 H 0.83264 0.67214 0.39318 0.0
H2024 H 0.85069 0.53352 0.45174 0.0
H2025 H 0.84743 0.52758 0.41391 0.0
H2026 H 0.87493 0.56084 0.48003 0.0
H2027 H 0.87174 0.59654 0.49414 0.0
C2028 C 0.40989 0.83562 0.448 0.0
C2029 C 0.38145 0.84875 0.44722 0.0
C2030 C 0.38877 0.86092 0.39491 0.0
C2031 C 0.41554 0.84465 0.39518 0.0
N2032 N 0.44841 0.81112 0.42036 0.0
N2033 N 0.3415 0.8695 0.41854 0.0
C2034 C 0.42505 0.8302 0.4212 0.0
C2035 C 0.37022 0.86039 0.42032 0.0
N2036 N 0.4232 0.82989 0.47447 0.0
N2037 N 0.38112 0.87688 0.37046 0.0
H2038 H 0.32697 0.86874 0.43637 0.0
H2039 H 0.33132 0.87531 0.39876 0.0
H2040 H 0.39353 0.87669 0.35105 0.0
H2041 H 0.36359 0.89178 0.37013 0.0
H2042 H 0.445 0.82274 0.47634 0.0
H2043 H 0.41374 0.83583 0.4946 0.0
H2044 H 0.45447 0.79793 0.43823 0.0
H2045 H 0.45991 0.80631 0.40101 0.0
C2046 C 0.15043 0.42708 0.43068 0.0
C2047 C 0.15391 0.41478 0.40201 0.0
C2048 C 0.15528 0.36489 0.4232 0.0
C2049 C 0.15057 0.3772 0.45159 0.0
N2050 N 0.13756 0.41892 0.48199 0.0
N2051 N 0.15338 0.37208 0.37013 0.0
C2052 C 0.14632 0.408 0.4552 0.0
C2053 C 0.1546 0.38367 0.39799 0.0
N2054 N 0.15234 0.45695 0.43472 0.0
N2055 N 0.16141 0.33545 0.42042 0.0
H2056 H 0.15236 0.38512 0.35117 0.0
H2057 H 0.15071 0.34964 0.36584 0.0
H2058 H 0.16127 0.32092 0.4383 0.0
H2059 H 0.16855 0.32578 0.40082 0.0
H2060 H 0.15375 0.46692 0.45539 0.0
H2061 H 0.15487 0.47186 0.41741 0.0
H2062 H 0.13104 0.44072 0.48533 0.0
H2063 H 0.13411 0.40556 0.50044 0.0
C2064 C 0.57573 0.57335 0.85538 0.0
C2065 C 0.60376 0.5835 0.84583 0.0
C2066 C 0.58353 0.63342 0.83952 0.0
C2067 C 0.55616 0.62331 0.85081 0.0
N2068 N 0.52911 0.5865 0.87783 0.0
N2069 N 0.63611 0.62434 0.83444 0.0
C2070 C 0.55321 0.59413 0.86142 0.0
C2071 C 0.60823 0.61392 0.83946 0.0
N2072 N 0.56996 0.54377 0.85686 0.0
N2073 N 0.58571 0.66132 0.82826 0.0
H2074 H 0.65475 0.61082 0.83474 0.0
H2075 H 0.64108 0.64672 0.83254 0.0
H2076 H 0.56845 0.67655 0.82942 0.0
H2077 H 0.60397 0.66882 0.81647 0.0
H2078 H 0.54904 0.53523 0.86123 0.0
H2079 H 0.5852 0.52787 0.85021 0.0
H2080 H 0.52692 0.56607 0.8882 0.0
H2081 H 0.51302 0.60189 0.88383 0.0
C2082 C 0.426 0.57499 0.85889 0.0
C2083 C 0.41698 0.60239 0.84657 0.0
C2084 C 0.36849 0.58116 0.8351 0.0
C2085 C 0.377 0.55464 0.84942 0.0
N2086 N 0.41086 0.529 0.8815 0.0
N2087 N 0.37748 0.63361 0.82898 0.0
C2088 C 0.40473 0.55251 0.86362 0.0
C2089 C 0.38758 0.60611 0.83632 0.0
N2090 N 0.45521 0.56959 0.86408 0.0
N2091 N 0.3423 0.58244 0.82014 0.0
H2092 H 0.3905 0.65255 0.8305 0.0
H2093 H 0.35545 0.63809 0.82413 0.0
H2094 H 0.32705 0.56516 0.82019 0.0
H2095 H 0.33649 0.59993 0.80636 0.0
H2096 H 0.46332 0.54902 0.87047 0.0
H2097 H 0.4717 0.5846 0.8585 0.0
H2098 H 0.42983 0.52771 0.89447 0.0
H2099 H 0.39564 0.51223 0.88564 0.0
C2100 C 0.42516 0.42822 0.85285 0.0
C2101 C 0.39853 0.41934 0.83891 0.0
C2102 C 0.42111 0.3717 0.82628 0.0
C2103 C 0.44647 0.37962 0.84288 0.0
N2104 N 0.47043 0.41299 0.87682 0.0
N2105 N 0.36915 0.3806 0.81696 0.0
C2106 C 0.44774 0.40707 0.85782 0.0
C2107 C 0.39594 0.39054 0.82672 0.0
N2108 N 0.42963 0.45727 0.85972 0.0
N2109 N 0.42109 0.34623 0.81004 0.0
H2110 H 0.35001 0.39338 0.81758 0.0
H2111 H 0.36527 0.35879 0.81073 0.0
H2112 H 0.4385 0.33113 0.81042 0.0
H2113 H 0.40467 0.34101 0.7948 0.0
H2114 H 0.4497 0.46552 0.86738 0.0
H2115 H 0.41441 0.47371 0.85446 0.0
H2116 H 0.4709 0.43151 0.89047 0.0
H2117 H 0.48749 0.39808 0.88097 0.0
C2118 C 0.61351 0.39255 0.83637 0.0
C2119 C 0.58331 0.39689 0.84372 0.0
C2120 C 0.59407 0.44779 0.85828 0.0
C2121 C 0.62298 0.44479 0.84693 0.0
N2122 N 0.66031 0.41522 0.82327 0.0
N2123 N 0.5437 0.43057 0.85576 0.0
C2124 C 0.6328 0.41738 0.83545 0.0
C2125 C 0.57325 0.42502 0.85322 0.0
N2126 N 0.62404 0.36466 0.83154 0.0
N2127 N 0.58672 0.47213 0.87452 0.0
H2128 H 0.52762 0.41507 0.85022 0.0
H2129 H 0.53515 0.45151 0.86003 0.0
H2130 H 0.60204 0.48856 0.87967 0.0
H2131 H 0.56663 0.47432 0.8855 0.0
H2132 H 0.64639 0.35987 0.82898 0.0
H2133 H 0.61079 0.34587 0.83275 0.0
H2134 H 0.66746 0.39688 0.81136 0.0
H2135 H 0.67546 0.43258 0.82368 0.0
C2136 C 0.5777 0.37246 0.14131 0.0
C2137 C 0.55321 0.3794 0.15957 0.0
C2138 C 0.58075 0.42137 0.18023 0.0
C2139 C 0.60364 0.41633 0.15945 0.0
N2140 N 0.62065 0.39092 0.1157 0.0
N2141 N 0.5292 0.41454 0.19207 0.0
C2142 C 0.60108 0.39313 0.13853 0.0
C2143 C 0.55414 0.40485 0.17806 0.0
N2144 N 0.57945 0.34553 0.12774 0.0
N2145 N 0.58406 0.44231 0.20176 0.0
H2146 H 0.50883 0.40405 0.19051 0.0
H2147 H 0.52787 0.4348 0.20289 0.0
H2148 H 0.60213 0.45652 0.20294 0.0
H2149 H 0.56973 0.44429 0.21965 0.0
H2150 H 0.59821 0.33834 0.11653 0.0
H2151 H 0.56365 0.32901 0.13054 0.0
H2152 H 0.61798 0.37614 0.09825 0.0
H2153 H 0.63782 0.40583 0.11253 0.0
C2154 C 0.63712 0.57906 0.15087 0.0
C2155 C 0.62586 0.55116 0.15984 0.0
C2156 C 0.57924 0.57451 0.1742 0.0
C2157 C 0.58909 0.60146 0.1619 0.0
N2158 N 0.62601 0.62925 0.13556 0.0
N2159 N 0.58367 0.52136 0.1735 0.0
C2160 C 0.61765 0.60371 0.14929 0.0
C2161 C 0.59623 0.54859 0.16982 0.0
N2162 N 0.66659 0.58238 0.14527 0.0
N2163 N 0.55389 0.57375 0.19055 0.0
H2164 H 0.59465 0.5017 0.1687 0.0
H2165 H 0.56132 0.51835 0.17805 0.0
H2166 H 0.5413 0.59258 0.1948 0.0
H2167 H 0.5471 0.5552 0.20235 0.0
H2168 H 0.6765 0.6028 0.14153 0.0
H2169 H 0.68173 0.56513 0.14703 0.0
H2170 H 0.64517 0.63111 0.12297 0.0
H2171 H 0.61277 0.64812 0.13518 0.0
C2172 C 0.45299 0.58999 0.16459 0.0
C2173 C 0.45111 0.61991 0.15544 0.0
C2174 C 0.39862 0.61313 0.14427 0.0
C2175 C 0.39972 0.58464 0.15726 0.0
N2176 N 0.42726 0.54679 0.18279 0.0
N2177 N 0.42113 0.66155 0.14088 0.0
C2178 C 0.42668 0.57339 0.16851 0.0
C2179 C 0.42366 0.63195 0.14632 0.0
N2180 N 0.48 0.57689 0.16777 0.0
N2181 N 0.37391 0.622 0.12945 0.0
H2182 H 0.43879 0.67621 0.14271 0.0
H2183 H 0.40097 0.67199 0.13719 0.0
H2184 H 0.35536 0.6086 0.1273 0.0
H2185 H 0.37287 0.64132 0.117 0.0
H2186 H 0.48283 0.5544 0.17171 0.0
H2187 H 0.49968 0.58784 0.16305 0.0
H2188 H 0.44566 0.53905 0.19424 0.0
H2189 H 0.4087 0.53337 0.18512 0.0
C2190 C 0.38552 0.39581 0.15561 0.0
C2191 C 0.4165 0.40049 0.1543 0.0
C2192 C 0.40846 0.45355 0.14729 0.0
C2193 C 0.37786 0.44929 0.15222 0.0
N2194 N 0.33709 0.41717 0.164 0.0
N2195 N 0.45791 0.4341 0.15257 0.0
C2196 C 0.36625 0.42061 0.15702 0.0
C2197 C 0.42811 0.42944 0.15096 0.0
N2198 N 0.37448 0.36773 0.15433 0.0
N2199 N 0.41862 0.48054 0.13825 0.0
H2200 H 0.47319 0.4171 0.15508 0.0
H2201 H 0.46741 0.455 0.1539 0.0
H2202 H 0.40477 0.49865 0.13487 0.0
H2203 H 0.44022 0.4843 0.13135 0.0
H2204 H 0.35209 0.36303 0.15206 0.0
H2205 H 0.38788 0.34904 0.15288 0.0
H2206 H 0.32808 0.39728 0.17122 0.0
H2207 H 0.3222 0.43474 0.16455 0.0
C2208 C 0.84304 0.54821 0.58763 0.0
C2209 C 0.84342 0.55171 0.61877 0.0
C2210 C 0.84477 0.6056 0.61291 0.0
C2211 C 0.84196 0.60194 0.58193 0.0
N2212 N 0.83186 0.57033 0.54028 0.0
N2213 N 0.8401 0.5834 0.66148 0.0
C2214 C 0.83925 0.57338 0.56941 0.0
C2215 C 0.84314 0.58034 0.6316 0.0
N2216 N 0.84748 0.52095 0.57537 0.0
N2217 N 0.8498 0.63307 0.62439 0.0
H2218 H 0.83883 0.56544 0.67584 0.0
H2219 H 0.83648 0.60361 0.67185 0.0
H2220 H 0.85033 0.65212 0.61144 0.0
H2221 H 0.85546 0.63679 0.64637 0.0
H2222 H 0.8506 0.51761 0.55283 0.0
H2223 H 0.85099 0.50195 0.5879 0.0
H2224 H 0.82667 0.55012 0.53059 0.0
H2225 H 0.82794 0.58833 0.52647 0.0
C2226 C 0.83673 0.41844 0.36736 0.0
C2227 C 0.84976 0.44488 0.3779 0.0
C2228 C 0.85712 0.42254 0.42654 0.0
C2229 C 0.84615 0.39532 0.41545 0.0
N2230 N 0.83062 0.36564 0.37397 0.0
N2231 N 0.87795 0.47047 0.41506 0.0
C2232 C 0.83729 0.39276 0.38547 0.0
C2233 C 0.86167 0.44643 0.40678 0.0
N2234 N 0.8232 0.41809 0.34036 0.0
N2235 N 0.86179 0.4261 0.45618 0.0
H2236 H 0.88211 0.48817 0.4009 0.0
H2237 H 0.88967 0.47161 0.43483 0.0
H2238 H 0.85789 0.40948 0.47164 0.0
H2239 H 0.86675 0.44638 0.46583 0.0
H2240 H 0.81036 0.40054 0.33288 0.0
H2241 H 0.82309 0.43628 0.3262 0.0
H2242 H 0.82699 0.36194 0.35156 0.0
H2243 H 0.83127 0.34625 0.38637 0.0
C2244 C 0.58002 0.85218 0.36291 0.0
C2245 C 0.55224 0.84297 0.37421 0.0
C2246 C 0.57628 0.82538 0.41927 0.0
C2247 C 0.60319 0.83801 0.40974 0.0
N2248 N 0.63048 0.8665 0.37402 0.0
N2249 N 0.52318 0.82824 0.41644 0.0
C2250 C 0.605 0.85246 0.38202 0.0
C2251 C 0.55014 0.83152 0.4033 0.0
N2252 N 0.58292 0.85926 0.33371 0.0
N2253 N 0.57567 0.80736 0.44343 0.0
H2254 H 0.50364 0.83506 0.40638 0.0
H2255 H 0.52058 0.82236 0.43853 0.0
H2256 H 0.5947 0.80162 0.45503 0.0
H2257 H 0.55695 0.7956 0.44984 0.0
H2258 H 0.60322 0.86327 0.32369 0.0
H2259 H 0.5654 0.85845 0.3188 0.0
H2260 H 0.63204 0.8802 0.35561 0.0
H2261 H 0.6496 0.86592 0.38688 0.0
C2262 C 0.18643 0.5797 0.41834 0.0
C2263 C 0.16877 0.60416 0.41011 0.0
C2264 C 0.1523 0.57768 0.3659 0.0
C2265 C 0.16643 0.5517 0.37642 0.0
N2266 N 0.19333 0.52693 0.41555 0.0
N2267 N 0.13284 0.62619 0.37757 0.0
C2268 C 0.18279 0.55245 0.40329 0.0
C2269 C 0.151 0.60305 0.38436 0.0
N2270 N 0.20662 0.5824 0.44063 0.0
N2271 N 0.14154 0.57869 0.3377 0.0
H2272 H 0.13258 0.64587 0.38958 0.0
H2273 H 0.11677 0.62517 0.36113 0.0
H2274 H 0.14348 0.56116 0.32289 0.0
H2275 H 0.13357 0.59792 0.3279 0.0
H2276 H 0.22236 0.56631 0.44537 0.0
H2277 H 0.20949 0.60178 0.45274 0.0
H2278 H 0.20212 0.52585 0.43679 0.0
H2279 H 0.19087 0.50621 0.40597 0.0
C2280 C 0.41788 0.14481 0.36866 0.0
C2281 C 0.44462 0.15824 0.37813 0.0
C2282 C 0.41989 0.17637 0.42278 0.0
C2283 C 0.39434 0.16016 0.41491 0.0
N2284 N 0.36963 0.12602 0.38235 0.0
N2285 N 0.47266 0.18171 0.41713 0.0
C2286 C 0.39356 0.14337 0.38849 0.0
C2287 C 0.44606 0.17279 0.40594 0.0
N2288 N 0.41514 0.1349 0.34026 0.0
N2289 N 0.41921 0.19529 0.44633 0.0
H2290 H 0.49265 0.17872 0.40617 0.0
H2291 H 0.47538 0.18936 0.43866 0.0
H2292 H 0.40069 0.19803 0.45973 0.0
H2293 H 0.43615 0.21011 0.45108 0.0
H2294 H 0.39525 0.12768 0.33125 0.0
H2295 H 0.43201 0.13657 0.32469 0.0
H2296 H 0.36923 0.11067 0.36522 0.0
H2297 H 0.35079 0.12553 0.39562 0.0
C2298 C 0.16436 0.45494 0.59106 0.0
C2299 C 0.15238 0.45435 0.62008 0.0
C2300 C 0.13502 0.40388 0.61153 0.0
C2301 C 0.15116 0.40286 0.58472 0.0
N2302 N 0.18333 0.42691 0.54964 0.0
N2303 N 0.13087 0.42609 0.65991 0.0
C2304 C 0.16668 0.42819 0.57479 0.0
C2305 C 0.13884 0.42825 0.63088 0.0
N2306 N 0.17174 0.48129 0.57827 0.0
N2307 N 0.11551 0.38194 0.61826 0.0
H2308 H 0.13437 0.44293 0.67521 0.0
H2309 H 0.12364 0.40644 0.66947 0.0
H2310 H 0.11119 0.36462 0.60385 0.0
H2311 H 0.10125 0.38286 0.6363 0.0
H2312 H 0.17795 0.48333 0.55622 0.0
H2313 H 0.16835 0.50158 0.58859 0.0
H2314 H 0.19779 0.44365 0.54331 0.0
H2315 H 0.18417 0.40835 0.53604 0.0
C2316 C 0.56781 0.15498 0.57012 0.0
C2317 C 0.59667 0.15542 0.5823 0.0
C2318 C 0.57604 0.15527 0.63237 0.0
C2319 C 0.54733 0.15276 0.62012 0.0
N2320 N 0.51597 0.1443 0.57793 0.0
N2321 N 0.6289 0.15128 0.6245 0.0
C2322 C 0.54323 0.15092 0.58913 0.0
C2323 C 0.60101 0.15428 0.61332 0.0
N2324 N 0.56384 0.15961 0.54053 0.0
N2325 N 0.57939 0.15967 0.66206 0.0
H2326 H 0.64772 0.15081 0.61124 0.0
H2327 H 0.63328 0.14697 0.64666 0.0
H2328 H 0.56163 0.16011 0.67673 0.0
H2329 H 0.59947 0.16501 0.67191 0.0
H2330 H 0.54321 0.16264 0.53083 0.0
H2331 H 0.5813 0.16314 0.52593 0.0
H2332 H 0.51212 0.13979 0.55571 0.0
H2333 H 0.49759 0.14051 0.59127 0.0
C2334 C 0.45413 0.83322 0.59339 0.0
C2335 C 0.45166 0.84431 0.62264 0.0
C2336 C 0.39973 0.85671 0.61339 0.0
C2337 C 0.40163 0.84261 0.58548 0.0
N2338 N 0.42881 0.81185 0.55151 0.0
N2339 N 0.42076 0.86194 0.66238 0.0
C2340 C 0.42824 0.82901 0.57634 0.0
C2341 C 0.4241 0.85495 0.6332 0.0
N2342 N 0.48133 0.82835 0.58121 0.0
N2343 N 0.37469 0.87179 0.62095 0.0
H2344 H 0.43782 0.86017 0.67774 0.0
H2345 H 0.40044 0.8669 0.67192 0.0
H2346 H 0.35594 0.87237 0.60757 0.0
H2347 H 0.37322 0.88527 0.63954 0.0
H2348 H 0.48441 0.82291 0.55906 0.0
H2349 H 0.50099 0.83314 0.59218 0.0
H2350 H 0.44701 0.79913 0.54546 0.0
H2351 H 0.41017 0.808 0.53856 0.0
loop_
_geom_bond_atom_site_label_1
_geom_bond_atom_site_label_2
_geom_bond_distance
_geom_bond_site_symmetry_2
_ccdc_geom_bond_type
In0 O1 2.294 . S
In0 O2 2.326 . S
In0 O6 2.266 . S
In0 O7 2.326 . S
In0 O8 2.266 1_455 S
In0 O9 2.326 1_455 S
In0 O11 2.294 . S
In0 O12 2.326 . S
O1 In0 2.294 . S
O1 C10 1.240 . S
O2 In0 2.326 . S
O2 C10 1.252 . S
C3 O6 1.252 . S
C3 O7 1.260 . S
C4 O11 1.240 . S
C4 O12 1.252 . S
C5 O8 1.252 . S
C5 O9 1.260 . S
O6 In0 2.266 . S
O6 C3 1.252 . S
O7 In0 2.326 . S
O7 C3 1.260 . S
O8 In0 2.266 1_655 S
O8 C5 1.252 . S
O9 In0 2.326 1_655 S
O9 C5 1.260 . S
C10 O1 1.240 . S
C10 O2 1.252 . S
O11 In0 2.294 . S
O11 C4 1.240 . S
O12 In0 2.326 . S
O12 C4 1.252 . S
In13 O14 2.294 . S
In13 O15 2.326 . S
In13 O19 2.266 1_545 S
In13 O20 2.326 1_545 S
In13 O21 2.266 . S
In13 O22 2.326 . S
In13 O24 2.294 . S
In13 O25 2.326 . S
O14 In13 2.294 . S
O14 C23 1.240 . S
O15 In13 2.326 . S
O15 C23 1.252 . S
C16 O19 1.252 . S
C16 O20 1.260 . S
C17 O24 1.240 . S
C17 O25 1.252 . S
C18 O21 1.252 . S
C18 O22 1.260 . S
O19 In13 2.266 1_565 S
O19 C16 1.252 . S
O20 In13 2.326 1_565 S
O20 C16 1.260 . S
O21 In13 2.266 . S
O21 C18 1.252 . S
O22 In13 2.326 . S
O22 C18 1.260 . S
C23 O14 1.240 . S
C23 O15 1.252 . S
O24 In13 2.294 . S
O24 C17 1.240 . S
O25 In13 2.326 . S
O25 C17 1.252 . S
In26 O27 2.294 . S
In26 O28 2.326 . S
In26 O32 2.266 . S
In26 O33 2.326 . S
In26 O34 2.266 1_655 S
In26 O35 2.326 1_655 S
In26 O37 2.294 . S
In26 O38 2.326 . S
O27 In26 2.294 . S
O27 C36 1.240 . S
O28 In26 2.326 . S
O28 C36 1.252 . S
C29 O32 1.252 . S
C29 O33 1.260 . S
C30 O37 1.240 . S
C30 O38 1.252 . S
C31 O34 1.252 . S
C31 O35 1.260 . S
O32 In26 2.266 . S
O32 C29 1.252 . S
O33 In26 2.326 . S
O33 C29 1.260 . S
O34 In26 2.266 1_455 S
O34 C31 1.252 . S
O35 In26 2.326 1_455 S
O35 C31 1.260 . S
C36 O27 1.240 . S
C36 O28 1.252 . S
O37 In26 2.294 . S
O37 C30 1.240 . S
O38 In26 2.326 . S
O38 C30 1.252 . S
In39 O40 2.294 . S
In39 O41 2.326 . S
In39 O45 2.266 1_565 S
In39 O46 2.326 1_565 S
In39 O47 2.266 . S
In39 O48 2.326 . S
In39 O50 2.294 . S
In39 O51 2.326 . S
O40 In39 2.294 . S
O40 C49 1.240 . S
O41 In39 2.326 . S
O41 C49 1.252 . S
C42 O45 1.252 . S
C42 O46 1.260 . S
C43 O50 1.240 . S
C43 O51 1.252 . S
C44 O47 1.252 . S
C44 O48 1.260 . S
O45 In39 2.266 1_545 S
O45 C42 1.252 . S
O46 In39 2.326 1_545 S
O46 C42 1.260 . S
O47 In39 2.266 . S
O47 C44 1.252 . S
O48 In39 2.326 . S
O48 C44 1.260 . S
C49 O40 1.240 . S
C49 O41 1.252 . S
O50 In39 2.294 . S
O50 C43 1.240 . S
O51 In39 2.326 . S
O51 C43 1.252 . S
In52 O53 2.294 . S
In52 O54 2.326 . S
In52 O58 2.266 1_455 S
In52 O59 2.326 1_455 S
In52 O60 2.266 . S
In52 O61 2.326 . S
In52 O63 2.294 . S
In52 O64 2.326 . S
O53 In52 2.294 . S
O53 C62 1.240 . S
O54 In52 2.326 . S
O54 C62 1.252 . S
C55 O58 1.252 . S
C55 O59 1.260 . S
C56 O63 1.240 . S
C56 O64 1.252 . S
C57 O60 1.252 . S
C57 O61 1.260 . S
O58 In52 2.266 1_655 S
O58 C55 1.252 . S
O59 In52 2.326 1_655 S
O59 C55 1.260 . S
O60 In52 2.266 . S
O60 C57 1.252 . S
O61 In52 2.326 . S
O61 C57 1.260 . S
C62 O53 1.240 . S
C62 O54 1.252 . S
O63 In52 2.294 . S
O63 C56 1.240 . S
O64 In52 2.326 . S
O64 C56 1.252 . S
In65 O66 2.294 . S
In65 O67 2.326 . S
In65 O71 2.266 . S
In65 O72 2.326 . S
In65 O73 2.266 1_545 S
In65 O74 2.326 1_545 S
In65 O76 2.294 . S
In65 O77 2.326 . S
O66 In65 2.294 . S
O66 C75 1.240 . S
O67 In65 2.326 . S
O67 C75 1.252 . S
C68 O71 1.252 . S
C68 O72 1.260 . S
C69 O76 1.240 . S
C69 O77 1.252 . S
C70 O73 1.252 . S
C70 O74 1.260 . S
O71 In65 2.266 . S
O71 C68 1.252 . S
O72 In65 2.326 . S
O72 C68 1.260 . S
O73 In65 2.266 1_565 S
O73 C70 1.252 . S
O74 In65 2.326 1_565 S
O74 C70 1.260 . S
C75 O66 1.240 . S
C75 O67 1.252 . S
O76 In65 2.294 . S
O76 C69 1.240 . S
O77 In65 2.326 . S
O77 C69 1.252 . S
In78 O79 2.294 . S
In78 O80 2.326 . S
In78 O84 2.266 . S
In78 O85 2.326 . S
In78 O86 2.266 1_655 S
In78 O87 2.326 1_655 S
In78 O89 2.294 . S
In78 O90 2.326 . S
O79 In78 2.294 . S
O79 C88 1.240 . S
O80 In78 2.326 . S
O80 C88 1.252 . S
C81 O84 1.252 . S
C81 O85 1.260 . S
C82 O89 1.240 . S
C82 O90 1.252 . S
C83 O86 1.252 . S
C83 O87 1.260 . S
O84 In78 2.266 . S
O84 C81 1.252 . S
O85 In78 2.326 . S
O85 C81 1.260 . S
O86 In78 2.266 1_455 S
O86 C83 1.252 . S
O87 In78 2.326 1_455 S
O87 C83 1.260 . S
C88 O79 1.240 . S
C88 O80 1.252 . S
O89 In78 2.294 . S
O89 C82 1.240 . S
O90 In78 2.326 . S
O90 C82 1.252 . S
In91 O92 2.294 . S
In91 O93 2.326 . S
In91 O97 2.266 . S
In91 O98 2.326 . S
In91 O99 2.266 1_565 S
In91 O100 2.326 1_565 S
In91 O102 2.294 . S
In91 O103 2.326 . S
O92 In91 2.294 . S
O92 C101 1.240 . S
O93 In91 2.326 . S
O93 C101 1.252 . S
C94 O97 1.252 . S
C94 O98 1.260 . S
C95 O102 1.240 . S
C95 O103 1.252 . S
C96 O99 1.252 . S
C96 O100 1.260 . S
O97 In91 2.266 . S
O97 C94 1.252 . S
O98 In91 2.326 . S
O98 C94 1.260 . S
O99 In91 2.266 1_545 S
O99 C96 1.252 . S
O100 In91 2.326 1_545 S
O100 C96 1.260 . S
C101 O92 1.240 . S
C101 O93 1.252 . S
O102 In91 2.294 . S
O102 C95 1.240 . S
O103 In91 2.326 . S
O103 C95 1.252 . S
In104 O105 2.294 . S
In104 O106 2.326 . S
In104 O110 2.266 1_545 S
In104 O111 2.326 1_545 S
In104 O112 2.266 . S
In104 O113 2.326 . S
In104 O115 2.294 . S
In104 O116 2.326 . S
O105 In104 2.294 . S
O105 C114 1.240 . S
O106 In104 2.326 . S
O106 C114 1.252 . S
C107 O110 1.252 . S
C107 O111 1.260 . S
C108 O115 1.240 . S
C108 O116 1.252 . S
C109 O112 1.252 . S
C109 O113 1.260 . S
O110 In104 2.266 1_565 S
O110 C107 1.252 . S
O111 In104 2.326 1_565 S
O111 C107 1.260 . S
O112 In104 2.266 . S
O112 C109 1.252 . S
O113 In104 2.326 . S
O113 C109 1.260 . S
C114 O105 1.240 . S
C114 O106 1.252 . S
O115 In104 2.294 . S
O115 C108 1.240 . S
O116 In104 2.326 . S
O116 C108 1.252 . S
In117 O118 2.294 . S
In117 O119 2.326 . S
In117 O123 2.266 . S
In117 O124 2.326 . S
In117 O125 2.266 1_655 S
In117 O126 2.326 1_655 S
In117 O128 2.294 . S
In117 O129 2.326 . S
O118 In117 2.294 . S
O118 C127 1.240 . S
O119 In117 2.326 . S
O119 C127 1.252 . S
C120 O123 1.252 . S
C120 O124 1.260 . S
C121 O128 1.240 . S
C121 O129 1.252 . S
C122 O125 1.252 . S
C122 O126 1.260 . S
O123 In117 2.266 . S
O123 C120 1.252 . S
O124 In117 2.326 . S
O124 C120 1.260 . S
O125 In117 2.266 1_455 S
O125 C122 1.252 . S
O126 In117 2.326 1_455 S
O126 C122 1.260 . S
C127 O118 1.240 . S
C127 O119 1.252 . S
O128 In117 2.294 . S
O128 C121 1.240 . S
O129 In117 2.326 . S
O129 C121 1.252 . S
In130 O131 2.294 . S
In130 O132 2.326 . S
In130 O136 2.266 1_565 S
In130 O137 2.326 1_565 S
In130 O138 2.266 . S
In130 O139 2.326 . S
In130 O141 2.294 . S
In130 O142 2.326 . S
O131 In130 2.294 . S
O131 C140 1.240 . S
O132 In130 2.326 . S
O132 C140 1.252 . S
C133 O136 1.252 . S
C133 O137 1.260 . S
C134 O141 1.240 . S
C134 O142 1.252 . S
C135 O138 1.252 . S
C135 O139 1.260 . S
O136 In130 2.266 1_545 S
O136 C133 1.252 . S
O137 In130 2.326 1_545 S
O137 C133 1.260 . S
O138 In130 2.266 . S
O138 C135 1.252 . S
O139 In130 2.326 . S
O139 C135 1.260 . S
C140 O131 1.240 . S
C140 O132 1.252 . S
O141 In130 2.294 . S
O141 C134 1.240 . S
O142 In130 2.326 . S
O142 C134 1.252 . S
In143 O144 2.294 . S
In143 O145 2.326 . S
In143 O149 2.266 . S
In143 O150 2.326 . S
In143 O151 2.266 1_455 S
In143 O152 2.326 1_455 S
In143 O154 2.294 . S
In143 O155 2.326 . S
O144 In143 2.294 . S
O144 C153 1.240 . S
O145 In143 2.326 . S
O145 C153 1.252 . S
C146 O149 1.252 . S
C146 O150 1.260 . S
C147 O154 1.240 . S
C147 O155 1.252 . S
C148 O151 1.252 . S
C148 O152 1.260 . S
O149 In143 2.266 . S
O149 C146 1.252 . S
O150 In143 2.326 . S
O150 C146 1.260 . S
O151 In143 2.266 1_655 S
O151 C148 1.252 . S
O152 In143 2.326 1_655 S
O152 C148 1.260 . S
C153 O144 1.240 . S
C153 O145 1.252 . S
O154 In143 2.294 . S
O154 C147 1.240 . S
O155 In143 2.326 . S
O155 C147 1.252 . S
In156 O157 2.294 . S
In156 O158 2.326 . S
In156 O162 2.266 . S
In156 O163 2.326 . S
In156 O164 2.266 1_565 S
In156 O165 2.326 1_565 S
In156 O167 2.294 . S
In156 O168 2.326 . S
O157 In156 2.294 . S
O157 C166 1.240 . S
O158 In156 2.326 . S
O158 C166 1.252 . S
C159 O162 1.252 . S
C159 O163 1.260 . S
C160 O167 1.240 . S
C160 O168 1.252 . S
C161 O164 1.252 . S
C161 O165 1.260 . S
O162 In156 2.266 . S
O162 C159 1.252 . S
O163 In156 2.326 . S
O163 C159 1.260 . S
O164 In156 2.266 1_545 S
O164 C161 1.252 . S
O165 In156 2.326 1_545 S
O165 C161 1.260 . S
C166 O157 1.240 . S
C166 O158 1.252 . S
O167 In156 2.294 . S
O167 C160 1.240 . S
O168 In156 2.326 . S
O168 C160 1.252 . S
In169 O170 2.294 . S
In169 O171 2.326 . S
In169 O175 2.266 1_455 S
In169 O176 2.326 1_455 S
In169 O177 2.266 . S
In169 O178 2.326 . S
In169 O180 2.294 . S
In169 O181 2.326 . S
O170 In169 2.294 . S
O170 C179 1.240 . S
O171 In169 2.326 . S
O171 C179 1.252 . S
C172 O175 1.252 . S
C172 O176 1.260 . S
C173 O180 1.240 . S
C173 O181 1.252 . S
C174 O177 1.252 . S
C174 O178 1.260 . S
O175 In169 2.266 1_655 S
O175 C172 1.252 . S
O176 In169 2.326 1_655 S
O176 C172 1.260 . S
O177 In169 2.266 . S
O177 C174 1.252 . S
O178 In169 2.326 . S
O178 C174 1.260 . S
C179 O170 1.240 . S
C179 O171 1.252 . S
O180 In169 2.294 . S
O180 C173 1.240 . S
O181 In169 2.326 . S
O181 C173 1.252 . S
In182 O183 2.294 . S
In182 O184 2.326 . S
In182 O188 2.266 1_545 S
In182 O189 2.326 1_545 S
In182 O190 2.266 . S
In182 O191 2.326 . S
In182 O193 2.294 . S
In182 O194 2.326 . S
O183 In182 2.294 . S
O183 C192 1.240 . S
O184 In182 2.326 . S
O184 C192 1.252 . S
C185 O188 1.252 . S
C185 O189 1.260 . S
C186 O193 1.240 . S
C186 O194 1.252 . S
C187 O190 1.252 . S
C187 O191 1.260 . S
O188 In182 2.266 1_565 S
O188 C185 1.252 . S
O189 In182 2.326 1_565 S
O189 C185 1.260 . S
O190 In182 2.266 . S
O190 C187 1.252 . S
O191 In182 2.326 . S
O191 C187 1.260 . S
C192 O183 1.240 . S
C192 O184 1.252 . S
O193 In182 2.294 . S
O193 C186 1.240 . S
O194 In182 2.326 . S
O194 C186 1.252 . S
In195 O196 2.294 . S
In195 O197 2.326 . S
In195 O201 2.266 . S
In195 O202 2.326 . S
In195 O203 2.266 1_655 S
In195 O204 2.326 1_655 S
In195 O206 2.294 . S
In195 O207 2.326 . S
O196 In195 2.294 . S
O196 C205 1.240 . S
O197 In195 2.326 . S
O197 C205 1.252 . S
C198 O201 1.252 . S
C198 O202 1.260 . S
C199 O206 1.240 . S
C199 O207 1.252 . S
C200 O203 1.252 . S
C200 O204 1.260 . S
O201 In195 2.266 . S
O201 C198 1.252 . S
O202 In195 2.326 . S
O202 C198 1.260 . S
O203 In195 2.266 1_455 S
O203 C200 1.252 . S
O204 In195 2.326 1_455 S
O204 C200 1.260 . S
C205 O196 1.240 . S
C205 O197 1.252 . S
O206 In195 2.294 . S
O206 C199 1.240 . S
O207 In195 2.326 . S
O207 C199 1.252 . S
In208 O209 2.294 . S
In208 O210 2.326 . S
In208 O214 2.266 . S
In208 O215 2.326 . S
In208 O216 2.266 1_554 S
In208 O217 2.326 1_554 S
In208 O219 2.294 . S
In208 O220 2.326 . S
O209 In208 2.294 . S
O209 C218 1.240 . S
O210 In208 2.326 . S
O210 C218 1.252 . S
C211 O214 1.252 . S
C211 O215 1.260 . S
C212 O219 1.240 . S
C212 O220 1.252 . S
C213 O216 1.252 . S
C213 O217 1.260 . S
O214 In208 2.266 . S
O214 C211 1.252 . S
O215 In208 2.326 . S
O215 C211 1.260 . S
O216 In208 2.266 1_556 S
O216 C213 1.252 . S
O217 In208 2.326 1_556 S
O217 C213 1.260 . S
C218 O209 1.240 . S
C218 O210 1.252 . S
O219 In208 2.294 . S
O219 C212 1.240 . S
O220 In208 2.326 . S
O220 C212 1.252 . S
In221 O222 2.294 . S
In221 O223 2.326 . S
In221 O227 2.266 . S
In221 O228 2.326 . S
In221 O229 2.266 1_556 S
In221 O230 2.326 1_556 S
In221 O232 2.294 . S
In221 O233 2.326 . S
O222 In221 2.294 . S
O222 C231 1.240 . S
O223 In221 2.326 . S
O223 C231 1.252 . S
C224 O227 1.252 . S
C224 O228 1.260 . S
C225 O232 1.240 . S
C225 O233 1.252 . S
C226 O229 1.252 . S
C226 O230 1.260 . S
O227 In221 2.266 . S
O227 C224 1.252 . S
O228 In221 2.326 . S
O228 C224 1.260 . S
O229 In221 2.266 1_554 S
O229 C226 1.252 . S
O230 In221 2.326 1_554 S
O230 C226 1.260 . S
C231 O222 1.240 . S
C231 O223 1.252 . S
O232 In221 2.294 . S
O232 C225 1.240 . S
O233 In221 2.326 . S
O233 C225 1.252 . S
In234 O235 2.294 . S
In234 O236 2.326 . S
In234 O240 2.266 . S
In234 O241 2.326 . S
In234 O242 2.266 1_556 S
In234 O243 2.326 1_556 S
In234 O245 2.294 . S
In234 O246 2.326 . S
O235 In234 2.294 . S
O235 C244 1.240 . S
O236 In234 2.326 . S
O236 C244 1.252 . S
C237 O240 1.252 . S
C237 O241 1.260 . S
C238 O245 1.240 . S
C238 O246 1.252 . S
C239 O242 1.252 . S
C239 O243 1.260 . S
O240 In234 2.266 . S
O240 C237 1.252 . S
O241 In234 2.326 . S
O241 C237 1.260 . S
O242 In234 2.266 1_554 S
O242 C239 1.252 . S
O243 In234 2.326 1_554 S
O243 C239 1.260 . S
C244 O235 1.240 . S
C244 O236 1.252 . S
O245 In234 2.294 . S
O245 C238 1.240 . S
O246 In234 2.326 . S
O246 C238 1.252 . S
In247 O248 2.294 . S
In247 O249 2.326 . S
In247 O253 2.266 1_556 S
In247 O254 2.326 1_556 S
In247 O255 2.266 . S
In247 O256 2.326 . S
In247 O258 2.294 . S
In247 O259 2.326 . S
O248 In247 2.294 . S
O248 C257 1.240 . S
O249 In247 2.326 . S
O249 C257 1.252 . S
C250 O253 1.252 . S
C250 O254 1.260 . S
C251 O258 1.240 . S
C251 O259 1.252 . S
C252 O255 1.252 . S
C252 O256 1.260 . S
O253 In247 2.266 1_554 S
O253 C250 1.252 . S
O254 In247 2.326 1_554 S
O254 C250 1.260 . S
O255 In247 2.266 . S
O255 C252 1.252 . S
O256 In247 2.326 . S
O256 C252 1.260 . S
C257 O248 1.240 . S
C257 O249 1.252 . S
O258 In247 2.294 . S
O258 C251 1.240 . S
O259 In247 2.326 . S
O259 C251 1.252 . S
In260 O261 2.294 . S
In260 O262 2.326 . S
In260 O266 2.266 1_556 S
In260 O267 2.326 1_556 S
In260 O268 2.266 . S
In260 O269 2.326 . S
In260 O271 2.294 . S
In260 O272 2.326 . S
O261 In260 2.294 . S
O261 C270 1.240 . S
O262 In260 2.326 . S
O262 C270 1.252 . S
C263 O266 1.252 . S
C263 O267 1.260 . S
C264 O271 1.240 . S
C264 O272 1.252 . S
C265 O268 1.252 . S
C265 O269 1.260 . S
O266 In260 2.266 1_554 S
O266 C263 1.252 . S
O267 In260 2.326 1_554 S
O267 C263 1.260 . S
O268 In260 2.266 . S
O268 C265 1.252 . S
O269 In260 2.326 . S
O269 C265 1.260 . S
C270 O261 1.240 . S
C270 O262 1.252 . S
O271 In260 2.294 . S
O271 C264 1.240 . S
O272 In260 2.326 . S
O272 C264 1.252 . S
In273 O274 2.294 . S
In273 O275 2.326 . S
In273 O279 2.266 . S
In273 O280 2.326 . S
In273 O281 2.266 1_554 S
In273 O282 2.326 1_554 S
In273 O284 2.294 . S
In273 O285 2.326 . S
O274 In273 2.294 . S
O274 C283 1.240 . S
O275 In273 2.326 . S
O275 C283 1.252 . S
C276 O279 1.252 . S
C276 O280 1.260 . S
C277 O284 1.240 . S
C277 O285 1.252 . S
C278 O281 1.252 . S
C278 O282 1.260 . S
O279 In273 2.266 . S
O279 C276 1.252 . S
O280 In273 2.326 . S
O280 C276 1.260 . S
O281 In273 2.266 1_556 S
O281 C278 1.252 . S
O282 In273 2.326 1_556 S
O282 C278 1.260 . S
C283 O274 1.240 . S
C283 O275 1.252 . S
O284 In273 2.294 . S
O284 C277 1.240 . S
O285 In273 2.326 . S
O285 C277 1.252 . S
In286 O287 2.294 . S
In286 O288 2.326 . S
In286 O292 2.266 1_554 S
In286 O293 2.326 1_554 S
In286 O294 2.266 . S
In286 O295 2.326 . S
In286 O297 2.294 . S
In286 O298 2.326 . S
O287 In286 2.294 . S
O287 C296 1.240 . S
O288 In286 2.326 . S
O288 C296 1.252 . S
C289 O292 1.252 . S
C289 O293 1.260 . S
C290 O297 1.240 . S
C290 O298 1.252 . S
C291 O294 1.252 . S
C291 O295 1.260 . S
O292 In286 2.266 1_556 S
O292 C289 1.252 . S
O293 In286 2.326 1_556 S
O293 C289 1.260 . S
O294 In286 2.266 . S
O294 C291 1.252 . S
O295 In286 2.326 . S
O295 C291 1.260 . S
C296 O287 1.240 . S
C296 O288 1.252 . S
O297 In286 2.294 . S
O297 C290 1.240 . S
O298 In286 2.326 . S
O298 C290 1.252 . S
In299 O300 2.294 . S
In299 O301 2.326 . S
In299 O305 2.266 . S
In299 O306 2.326 . S
In299 O307 2.266 1_554 S
In299 O308 2.326 1_554 S
In299 O310 2.294 . S
In299 O311 2.326 . S
O300 In299 2.294 . S
O300 C309 1.240 . S
O301 In299 2.326 . S
O301 C309 1.252 . S
C302 O305 1.252 . S
C302 O306 1.260 . S
C303 O310 1.240 . S
C303 O311 1.252 . S
C304 O307 1.252 . S
C304 O308 1.260 . S
O305 In299 2.266 . S
O305 C302 1.252 . S
O306 In299 2.326 . S
O306 C302 1.260 . S
O307 In299 2.266 1_556 S
O307 C304 1.252 . S
O308 In299 2.326 1_556 S
O308 C304 1.260 . S
C309 O300 1.240 . S
C309 O301 1.252 . S
O310 In299 2.294 . S
O310 C303 1.240 . S
O311 In299 2.326 . S
O311 C303 1.252 . S
In312 O313 2.294 . S
In312 O314 2.326 . S
In312 O318 2.266 . S
In312 O319 2.326 . S
In312 O320 2.266 . S
In312 O321 2.326 . S
In312 O323 2.294 . S
In312 O324 2.326 . S
O313 In312 2.294 . S
O313 C322 1.240 . S
O314 In312 2.326 . S
O314 C322 1.252 . S
C315 O318 1.252 . S
C315 O319 1.260 . S
C316 O323 1.240 . S
C316 O324 1.252 . S
C317 O320 1.252 . S
C317 O321 1.260 . S
O318 In312 2.266 . S
O318 C315 1.252 . S
O319 In312 2.326 . S
O319 C315 1.260 . S
O320 In312 2.266 . S
O320 C317 1.252 . S
O321 In312 2.326 . S
O321 C317 1.260 . S
C322 O313 1.240 . S
C322 O314 1.252 . S
O323 In312 2.294 . S
O323 C316 1.240 . S
O324 In312 2.326 . S
O324 C316 1.252 . S
In325 O326 2.294 . S
In325 O327 2.326 . S
In325 O331 2.266 . S
In325 O332 2.326 . S
In325 O333 2.266 . S
In325 O334 2.326 . S
In325 O336 2.294 . S
In325 O337 2.326 . S
O326 In325 2.294 . S
O326 C335 1.240 . S
O327 In325 2.326 . S
O327 C335 1.252 . S
C328 O331 1.252 . S
C328 O332 1.260 . S
C329 O336 1.240 . S
C329 O337 1.252 . S
C330 O333 1.252 . S
C330 O334 1.260 . S
O331 In325 2.266 . S
O331 C328 1.252 . S
O332 In325 2.326 . S
O332 C328 1.260 . S
O333 In325 2.266 . S
O333 C330 1.252 . S
O334 In325 2.326 . S
O334 C330 1.260 . S
C335 O326 1.240 . S
C335 O327 1.252 . S
O336 In325 2.294 . S
O336 C329 1.240 . S
O337 In325 2.326 . S
O337 C329 1.252 . S
In338 O339 2.294 . S
In338 O340 2.326 . S
In338 O344 2.266 . S
In338 O345 2.326 . S
In338 O346 2.266 . S
In338 O347 2.326 . S
In338 O349 2.294 . S
In338 O350 2.326 . S
O339 In338 2.294 . S
O339 C348 1.240 . S
O340 In338 2.326 . S
O340 C348 1.252 . S
C341 O344 1.252 . S
C341 O345 1.260 . S
C342 O349 1.240 . S
C342 O350 1.252 . S
C343 O346 1.252 . S
C343 O347 1.260 . S
O344 In338 2.266 . S
O344 C341 1.252 . S
O345 In338 2.326 . S
O345 C341 1.260 . S
O346 In338 2.266 . S
O346 C343 1.252 . S
O347 In338 2.326 . S
O347 C343 1.260 . S
C348 O339 1.240 . S
C348 O340 1.252 . S
O349 In338 2.294 . S
O349 C342 1.240 . S
O350 In338 2.326 . S
O350 C342 1.252 . S
In351 O352 2.294 . S
In351 O353 2.326 . S
In351 O357 2.266 . S
In351 O358 2.326 . S
In351 O359 2.266 . S
In351 O360 2.326 . S
In351 O362 2.294 . S
In351 O363 2.326 . S
O352 In351 2.294 . S
O352 C361 1.240 . S
O353 In351 2.326 . S
O353 C361 1.252 . S
C354 O357 1.252 . S
C354 O358 1.260 . S
C355 O362 1.240 . S
C355 O363 1.252 . S
C356 O359 1.252 . S
C356 O360 1.260 . S
O357 In351 2.266 . S
O357 C354 1.252 . S
O358 In351 2.326 . S
O358 C354 1.260 . S
O359 In351 2.266 . S
O359 C356 1.252 . S
O360 In351 2.326 . S
O360 C356 1.260 . S
C361 O352 1.240 . S
C361 O353 1.252 . S
O362 In351 2.294 . S
O362 C355 1.240 . S
O363 In351 2.326 . S
O363 C355 1.252 . S
In364 O365 2.294 . S
In364 O366 2.326 . S
In364 O370 2.266 . S
In364 O371 2.326 . S
In364 O372 2.266 . S
In364 O373 2.326 . S
In364 O375 2.294 . S
In364 O376 2.326 . S
O365 In364 2.294 . S
O365 C374 1.240 . S
O366 In364 2.326 . S
O366 C374 1.252 . S
C367 O370 1.252 . S
C367 O371 1.260 . S
C368 O375 1.240 . S
C368 O376 1.252 . S
C369 O372 1.252 . S
C369 O373 1.260 . S
O370 In364 2.266 . S
O370 C367 1.252 . S
O371 In364 2.326 . S
O371 C367 1.260 . S
O372 In364 2.266 . S
O372 C369 1.252 . S
O373 In364 2.326 . S
O373 C369 1.260 . S
C374 O365 1.240 . S
C374 O366 1.252 . S
O375 In364 2.294 . S
O375 C368 1.240 . S
O376 In364 2.326 . S
O376 C368 1.252 . S
In377 O378 2.294 . S
In377 O379 2.326 . S
In377 O383 2.266 . S
In377 O384 2.326 . S
In377 O385 2.266 . S
In377 O386 2.326 . S
In377 O388 2.294 . S
In377 O389 2.326 . S
O378 In377 2.294 . S
O378 C387 1.240 . S
O379 In377 2.326 . S
O379 C387 1.252 . S
C380 O383 1.252 . S
C380 O384 1.260 . S
C381 O388 1.240 . S
C381 O389 1.252 . S
C382 O385 1.252 . S
C382 O386 1.260 . S
O383 In377 2.266 . S
O383 C380 1.252 . S
O384 In377 2.326 . S
O384 C380 1.260 . S
O385 In377 2.266 . S
O385 C382 1.252 . S
O386 In377 2.326 . S
O386 C382 1.260 . S
C387 O378 1.240 . S
C387 O379 1.252 . S
O388 In377 2.294 . S
O388 C381 1.240 . S
O389 In377 2.326 . S
O389 C381 1.252 . S
In390 O391 2.294 . S
In390 O392 2.326 . S
In390 O396 2.266 . S
In390 O397 2.326 . S
In390 O398 2.266 . S
In390 O399 2.326 . S
In390 O401 2.294 . S
In390 O402 2.326 . S
O391 In390 2.294 . S
O391 C400 1.240 . S
O392 In390 2.326 . S
O392 C400 1.252 . S
C393 O396 1.252 . S
C393 O397 1.260 . S
C394 O401 1.240 . S
C394 O402 1.252 . S
C395 O398 1.252 . S
C395 O399 1.260 . S
O396 In390 2.266 . S
O396 C393 1.252 . S
O397 In390 2.326 . S
O397 C393 1.260 . S
O398 In390 2.266 . S
O398 C395 1.252 . S
O399 In390 2.326 . S
O399 C395 1.260 . S
C400 O391 1.240 . S
C400 O392 1.252 . S
O401 In390 2.294 . S
O401 C394 1.240 . S
O402 In390 2.326 . S
O402 C394 1.252 . S
In403 O404 2.294 . S
In403 O405 2.326 . S
In403 O409 2.266 . S
In403 O410 2.326 . S
In403 O411 2.266 . S
In403 O412 2.326 . S
In403 O414 2.294 . S
In403 O415 2.326 . S
O404 In403 2.294 . S
O404 C413 1.240 . S
O405 In403 2.326 . S
O405 C413 1.252 . S
C406 O409 1.252 . S
C406 O410 1.260 . S
C407 O414 1.240 . S
C407 O415 1.252 . S
C408 O411 1.252 . S
C408 O412 1.260 . S
O409 In403 2.266 . S
O409 C406 1.252 . S
O410 In403 2.326 . S
O410 C406 1.260 . S
O411 In403 2.266 . S
O411 C408 1.252 . S
O412 In403 2.326 . S
O412 C408 1.260 . S
C413 O404 1.240 . S
C413 O405 1.252 . S
O414 In403 2.294 . S
O414 C407 1.240 . S
O415 In403 2.326 . S
O415 C407 1.252 . S
In416 O417 2.294 . S
In416 O418 2.326 . S
In416 O422 2.266 . S
In416 O423 2.326 . S
In416 O424 2.266 . S
In416 O425 2.326 . S
In416 O427 2.294 . S
In416 O428 2.326 . S
O417 In416 2.294 . S
O417 C426 1.240 . S
O418 In416 2.326 . S
O418 C426 1.252 . S
C419 O422 1.252 . S
C419 O423 1.260 . S
C420 O427 1.240 . S
C420 O428 1.252 . S
C421 O424 1.252 . S
C421 O425 1.260 . S
O422 In416 2.266 . S
O422 C419 1.252 . S
O423 In416 2.326 . S
O423 C419 1.260 . S
O424 In416 2.266 . S
O424 C421 1.252 . S
O425 In416 2.326 . S
O425 C421 1.260 . S
C426 O417 1.240 . S
C426 O418 1.252 . S
O427 In416 2.294 . S
O427 C420 1.240 . S
O428 In416 2.326 . S
O428 C420 1.252 . S
In429 O430 2.294 . S
In429 O431 2.326 . S
In429 O435 2.266 . S
In429 O436 2.326 . S
In429 O437 2.266 . S
In429 O438 2.326 . S
In429 O440 2.294 . S
In429 O441 2.326 . S
O430 In429 2.294 . S
O430 C439 1.240 . S
O431 In429 2.326 . S
O431 C439 1.252 . S
C432 O435 1.252 . S
C432 O436 1.260 . S
C433 O440 1.240 . S
C433 O441 1.252 . S
C434 O437 1.252 . S
C434 O438 1.260 . S
O435 In429 2.266 . S
O435 C432 1.252 . S
O436 In429 2.326 . S
O436 C432 1.260 . S
O437 In429 2.266 . S
O437 C434 1.252 . S
O438 In429 2.326 . S
O438 C434 1.260 . S
C439 O430 1.240 . S
C439 O431 1.252 . S
O440 In429 2.294 . S
O440 C433 1.240 . S
O441 In429 2.326 . S
O441 C433 1.252 . S
In442 O443 2.294 . S
In442 O444 2.326 . S
In442 O448 2.266 . S
In442 O449 2.326 . S
In442 O450 2.266 . S
In442 O451 2.326 . S
In442 O453 2.294 . S
In442 O454 2.326 . S
O443 In442 2.294 . S
O443 C452 1.240 . S
O444 In442 2.326 . S
O444 C452 1.252 . S
C445 O448 1.252 . S
C445 O449 1.260 . S
C446 O453 1.240 . S
C446 O454 1.252 . S
C447 O450 1.252 . S
C447 O451 1.260 . S
O448 In442 2.266 . S
O448 C445 1.252 . S
O449 In442 2.326 . S
O449 C445 1.260 . S
O450 In442 2.266 . S
O450 C447 1.252 . S
O451 In442 2.326 . S
O451 C447 1.260 . S
C452 O443 1.240 . S
C452 O444 1.252 . S
O453 In442 2.294 . S
O453 C446 1.240 . S
O454 In442 2.326 . S
O454 C446 1.252 . S
In455 O456 2.294 . S
In455 O457 2.326 . S
In455 O461 2.266 . S
In455 O462 2.326 . S
In455 O463 2.266 . S
In455 O464 2.326 . S
In455 O466 2.294 . S
In455 O467 2.326 . S
O456 In455 2.294 . S
O456 C465 1.240 . S
O457 In455 2.326 . S
O457 C465 1.252 . S
C458 O461 1.252 . S
C458 O462 1.260 . S
C459 O466 1.240 . S
C459 O467 1.252 . S
C460 O463 1.252 . S
C460 O464 1.260 . S
O461 In455 2.266 . S
O461 C458 1.252 . S
O462 In455 2.326 . S
O462 C458 1.260 . S
O463 In455 2.266 . S
O463 C460 1.252 . S
O464 In455 2.326 . S
O464 C460 1.260 . S
C465 O456 1.240 . S
C465 O457 1.252 . S
O466 In455 2.294 . S
O466 C459 1.240 . S
O467 In455 2.326 . S
O467 C459 1.252 . S
In468 O469 2.294 . S
In468 O470 2.326 . S
In468 O474 2.266 . S
In468 O475 2.326 . S
In468 O476 2.266 . S
In468 O477 2.326 . S
In468 O479 2.294 . S
In468 O480 2.326 . S
O469 In468 2.294 . S
O469 C478 1.240 . S
O470 In468 2.326 . S
O470 C478 1.252 . S
C471 O474 1.252 . S
C471 O475 1.260 . S
C472 O479 1.240 . S
C472 O480 1.252 . S
C473 O476 1.252 . S
C473 O477 1.260 . S
O474 In468 2.266 . S
O474 C471 1.252 . S
O475 In468 2.326 . S
O475 C471 1.260 . S
O476 In468 2.266 . S
O476 C473 1.252 . S
O477 In468 2.326 . S
O477 C473 1.260 . S
C478 O469 1.240 . S
C478 O470 1.252 . S
O479 In468 2.294 . S
O479 C472 1.240 . S
O480 In468 2.326 . S
O480 C472 1.252 . S
In481 O482 2.294 . S
In481 O483 2.326 . S
In481 O487 2.266 . S
In481 O488 2.326 . S
In481 O489 2.266 . S
In481 O490 2.326 . S
In481 O492 2.294 . S
In481 O493 2.326 . S
O482 In481 2.294 . S
O482 C491 1.240 . S
O483 In481 2.326 . S
O483 C491 1.252 . S
C484 O487 1.252 . S
C484 O488 1.260 . S
C485 O492 1.240 . S
C485 O493 1.252 . S
C486 O489 1.252 . S
C486 O490 1.260 . S
O487 In481 2.266 . S
O487 C484 1.252 . S
O488 In481 2.326 . S
O488 C484 1.260 . S
O489 In481 2.266 . S
O489 C486 1.252 . S
O490 In481 2.326 . S
O490 C486 1.260 . S
C491 O482 1.240 . S
C491 O483 1.252 . S
O492 In481 2.294 . S
O492 C485 1.240 . S
O493 In481 2.326 . S
O493 C485 1.252 . S
In494 O495 2.294 . S
In494 O496 2.326 . S
In494 O500 2.266 . S
In494 O501 2.326 . S
In494 O502 2.266 . S
In494 O503 2.326 . S
In494 O505 2.294 . S
In494 O506 2.326 . S
O495 In494 2.294 . S
O495 C504 1.240 . S
O496 In494 2.326 . S
O496 C504 1.252 . S
C497 O500 1.252 . S
C497 O501 1.260 . S
C498 O505 1.240 . S
C498 O506 1.252 . S
C499 O502 1.252 . S
C499 O503 1.260 . S
O500 In494 2.266 . S
O500 C497 1.252 . S
O501 In494 2.326 . S
O501 C497 1.260 . S
O502 In494 2.266 . S
O502 C499 1.252 . S
O503 In494 2.326 . S
O503 C499 1.260 . S
C504 O495 1.240 . S
C504 O496 1.252 . S
O505 In494 2.294 . S
O505 C498 1.240 . S
O506 In494 2.326 . S
O506 C498 1.252 . S
In507 O508 2.294 . S
In507 O509 2.326 . S
In507 O513 2.266 . S
In507 O514 2.326 . S
In507 O515 2.266 . S
In507 O516 2.326 . S
In507 O518 2.294 . S
In507 O519 2.326 . S
O508 In507 2.294 . S
O508 C517 1.240 . S
O509 In507 2.326 . S
O509 C517 1.252 . S
C510 O513 1.252 . S
C510 O514 1.260 . S
C511 O518 1.240 . S
C511 O519 1.252 . S
C512 O515 1.252 . S
C512 O516 1.260 . S
O513 In507 2.266 . S
O513 C510 1.252 . S
O514 In507 2.326 . S
O514 C510 1.260 . S
O515 In507 2.266 . S
O515 C512 1.252 . S
O516 In507 2.326 . S
O516 C512 1.260 . S
C517 O508 1.240 . S
C517 O509 1.252 . S
O518 In507 2.294 . S
O518 C511 1.240 . S
O519 In507 2.326 . S
O519 C511 1.252 . S
In520 O521 2.294 . S
In520 O522 2.326 . S
In520 O526 2.266 . S
In520 O527 2.326 . S
In520 O528 2.266 . S
In520 O529 2.326 . S
In520 O531 2.294 . S
In520 O532 2.326 . S
O521 In520 2.294 . S
O521 C530 1.240 . S
O522 In520 2.326 . S
O522 C530 1.252 . S
C523 O526 1.252 . S
C523 O527 1.260 . S
C524 O531 1.240 . S
C524 O532 1.252 . S
C525 O528 1.252 . S
C525 O529 1.260 . S
O526 In520 2.266 . S
O526 C523 1.252 . S
O527 In520 2.326 . S
O527 C523 1.260 . S
O528 In520 2.266 . S
O528 C525 1.252 . S
O529 In520 2.326 . S
O529 C525 1.260 . S
C530 O521 1.240 . S
C530 O522 1.252 . S
O531 In520 2.294 . S
O531 C524 1.240 . S
O532 In520 2.326 . S
O532 C524 1.252 . S
In533 O534 2.294 . S
In533 O535 2.326 . S
In533 O539 2.266 . S
In533 O540 2.326 . S
In533 O541 2.266 . S
In533 O542 2.326 . S
In533 O544 2.294 . S
In533 O545 2.326 . S
O534 In533 2.294 . S
O534 C543 1.240 . S
O535 In533 2.326 . S
O535 C543 1.252 . S
C536 O539 1.252 . S
C536 O540 1.260 . S
C537 O544 1.240 . S
C537 O545 1.252 . S
C538 O541 1.252 . S
C538 O542 1.260 . S
O539 In533 2.266 . S
O539 C536 1.252 . S
O540 In533 2.326 . S
O540 C536 1.260 . S
O541 In533 2.266 . S
O541 C538 1.252 . S
O542 In533 2.326 . S
O542 C538 1.260 . S
C543 O534 1.240 . S
C543 O535 1.252 . S
O544 In533 2.294 . S
O544 C537 1.240 . S
O545 In533 2.326 . S
O545 C537 1.252 . S
In546 O547 2.294 . S
In546 O548 2.326 . S
In546 O552 2.266 . S
In546 O553 2.326 . S
In546 O554 2.266 . S
In546 O555 2.326 . S
In546 O557 2.294 . S
In546 O558 2.326 . S
O547 In546 2.294 . S
O547 C556 1.240 . S
O548 In546 2.326 . S
O548 C556 1.252 . S
C549 O552 1.252 . S
C549 O553 1.260 . S
C550 O557 1.240 . S
C550 O558 1.252 . S
C551 O554 1.252 . S
C551 O555 1.260 . S
O552 In546 2.266 . S
O552 C549 1.252 . S
O553 In546 2.326 . S
O553 C549 1.260 . S
O554 In546 2.266 . S
O554 C551 1.252 . S
O555 In546 2.326 . S
O555 C551 1.260 . S
C556 O547 1.240 . S
C556 O548 1.252 . S
O557 In546 2.294 . S
O557 C550 1.240 . S
O558 In546 2.326 . S
O558 C550 1.252 . S
In559 O560 2.294 . S
In559 O561 2.326 . S
In559 O565 2.266 . S
In559 O566 2.326 . S
In559 O567 2.266 . S
In559 O568 2.326 . S
In559 O570 2.294 . S
In559 O571 2.326 . S
O560 In559 2.294 . S
O560 C569 1.240 . S
O561 In559 2.326 . S
O561 C569 1.252 . S
C562 O565 1.252 . S
C562 O566 1.260 . S
C563 O570 1.240 . S
C563 O571 1.252 . S
C564 O567 1.252 . S
C564 O568 1.260 . S
O565 In559 2.266 . S
O565 C562 1.252 . S
O566 In559 2.326 . S
O566 C562 1.260 . S
O567 In559 2.266 . S
O567 C564 1.252 . S
O568 In559 2.326 . S
O568 C564 1.260 . S
C569 O560 1.240 . S
C569 O561 1.252 . S
O570 In559 2.294 . S
O570 C563 1.240 . S
O571 In559 2.326 . S
O571 C563 1.252 . S
In572 O573 2.294 . S
In572 O574 2.326 . S
In572 O578 2.266 . S
In572 O579 2.326 . S
In572 O580 2.266 . S
In572 O581 2.326 . S
In572 O583 2.294 . S
In572 O584 2.326 . S
O573 In572 2.294 . S
O573 C582 1.240 . S
O574 In572 2.326 . S
O574 C582 1.252 . S
C575 O578 1.252 . S
C575 O579 1.260 . S
C576 O583 1.240 . S
C576 O584 1.252 . S
C577 O580 1.252 . S
C577 O581 1.260 . S
O578 In572 2.266 . S
O578 C575 1.252 . S
O579 In572 2.326 . S
O579 C575 1.260 . S
O580 In572 2.266 . S
O580 C577 1.252 . S
O581 In572 2.326 . S
O581 C577 1.260 . S
C582 O573 1.240 . S
C582 O574 1.252 . S
O583 In572 2.294 . S
O583 C576 1.240 . S
O584 In572 2.326 . S
O584 C576 1.252 . S
In585 O586 2.294 . S
In585 O587 2.326 . S
In585 O591 2.266 . S
In585 O592 2.326 . S
In585 O593 2.266 . S
In585 O594 2.326 . S
In585 O596 2.294 . S
In585 O597 2.326 . S
O586 In585 2.294 . S
O586 C595 1.240 . S
O587 In585 2.326 . S
O587 C595 1.252 . S
C588 O591 1.252 . S
C588 O592 1.260 . S
C589 O596 1.240 . S
C589 O597 1.252 . S
C590 O593 1.252 . S
C590 O594 1.260 . S
O591 In585 2.266 . S
O591 C588 1.252 . S
O592 In585 2.326 . S
O592 C588 1.260 . S
O593 In585 2.266 . S
O593 C590 1.252 . S
O594 In585 2.326 . S
O594 C590 1.260 . S
C595 O586 1.240 . S
C595 O587 1.252 . S
O596 In585 2.294 . S
O596 C589 1.240 . S
O597 In585 2.326 . S
O597 C589 1.252 . S
In598 O599 2.294 . S
In598 O600 2.326 . S
In598 O604 2.266 . S
In598 O605 2.326 . S
In598 O606 2.266 . S
In598 O607 2.326 . S
In598 O609 2.294 . S
In598 O610 2.326 . S
O599 In598 2.294 . S
O599 C608 1.240 . S
O600 In598 2.326 . S
O600 C608 1.252 . S
C601 O604 1.252 . S
C601 O605 1.260 . S
C602 O609 1.240 . S
C602 O610 1.252 . S
C603 O606 1.252 . S
C603 O607 1.260 . S
O604 In598 2.266 . S
O604 C601 1.252 . S
O605 In598 2.326 . S
O605 C601 1.260 . S
O606 In598 2.266 . S
O606 C603 1.252 . S
O607 In598 2.326 . S
O607 C603 1.260 . S
C608 O599 1.240 . S
C608 O600 1.252 . S
O609 In598 2.294 . S
O609 C602 1.240 . S
O610 In598 2.326 . S
O610 C602 1.252 . S
In611 O612 2.294 . S
In611 O613 2.326 . S
In611 O617 2.266 . S
In611 O618 2.326 . S
In611 O619 2.266 . S
In611 O620 2.326 . S
In611 O622 2.294 . S
In611 O623 2.326 . S
O612 In611 2.294 . S
O612 C621 1.240 . S
O613 In611 2.326 . S
O613 C621 1.252 . S
C614 O617 1.252 . S
C614 O618 1.260 . S
C615 O622 1.240 . S
C615 O623 1.252 . S
C616 O619 1.252 . S
C616 O620 1.260 . S
O617 In611 2.266 . S
O617 C614 1.252 . S
O618 In611 2.326 . S
O618 C614 1.260 . S
O619 In611 2.266 . S
O619 C616 1.252 . S
O620 In611 2.326 . S
O620 C616 1.260 . S
C621 O612 1.240 . S
C621 O613 1.252 . S
O622 In611 2.294 . S
O622 C615 1.240 . S
O623 In611 2.326 . S
O623 C615 1.252 . S
C624 C625 1.363 . S
C624 C630 1.379 . S
C624 N632 1.356 . S
C625 C624 1.363 . S
C625 C631 1.363 . S
C626 C627 1.363 . S
C626 C631 1.379 . S
C626 N633 1.356 . S
C627 C626 1.363 . S
C627 C630 1.363 . S
N628 C630 1.356 . S
N628 H640 0.984 . S
N628 H641 0.985 . S
N629 C631 1.356 . S
N629 H634 0.984 . S
N629 H635 0.985 . S
C630 C624 1.379 . S
C630 C627 1.363 . S
C630 N628 1.356 . S
C631 C625 1.363 . S
C631 C626 1.379 . S
C631 N629 1.356 . S
N632 C624 1.356 . S
N632 H638 0.984 . S
N632 H639 0.984 . S
N633 C626 1.356 . S
N633 H636 0.984 . S
N633 H637 0.985 . S
H634 N629 0.984 . S
H635 N629 0.985 . S
H636 N633 0.984 . S
H637 N633 0.985 . S
H638 N632 0.984 . S
H639 N632 0.984 . S
H640 N628 0.984 . S
H641 N628 0.985 . S
C642 C643 1.363 . S
C642 C648 1.379 . S
C642 N650 1.356 . S
C643 C642 1.363 . S
C643 C649 1.363 . S
C644 C645 1.363 . S
C644 C649 1.379 . S
C644 N651 1.356 . S
C645 C644 1.363 . S
C645 C648 1.363 . S
N646 C648 1.356 . S
N646 H658 0.984 . S
N646 H659 0.985 . S
N647 C649 1.356 . S
N647 H652 0.984 . S
N647 H653 0.985 . S
C648 C642 1.379 . S
C648 C645 1.363 . S
C648 N646 1.356 . S
C649 C643 1.363 . S
C649 C644 1.379 . S
C649 N647 1.356 . S
N650 C642 1.356 . S
N650 H656 0.984 . S
N650 H657 0.984 . S
N651 C644 1.356 . S
N651 H654 0.984 . S
N651 H655 0.985 . S
H652 N647 0.984 . S
H653 N647 0.985 . S
H654 N651 0.984 . S
H655 N651 0.985 . S
H656 N650 0.984 . S
H657 N650 0.984 . S
H658 N646 0.984 . S
H659 N646 0.985 . S
C660 C661 1.363 . S
C660 C666 1.379 . S
C660 N668 1.356 . S
C661 C660 1.363 . S
C661 C667 1.363 . S
C662 C663 1.363 . S
C662 C667 1.379 . S
C662 N669 1.356 . S
C663 C662 1.363 . S
C663 C666 1.363 . S
N664 C666 1.356 . S
N664 H676 0.984 . S
N664 H677 0.985 . S
N665 C667 1.356 . S
N665 H670 0.984 . S
N665 H671 0.985 . S
C666 C660 1.379 . S
C666 C663 1.363 . S
C666 N664 1.356 . S
C667 C661 1.363 . S
C667 C662 1.379 . S
C667 N665 1.356 . S
N668 C660 1.356 . S
N668 H674 0.984 . S
N668 H675 0.984 . S
N669 C662 1.356 . S
N669 H672 0.984 . S
N669 H673 0.985 . S
H670 N665 0.984 . S
H671 N665 0.985 . S
H672 N669 0.984 . S
H673 N669 0.985 . S
H674 N668 0.984 . S
H675 N668 0.984 . S
H676 N664 0.984 . S
H677 N664 0.985 . S
C678 C679 1.363 . S
C678 C684 1.379 . S
C678 N686 1.356 . S
C679 C678 1.363 . S
C679 C685 1.363 . S
C680 C681 1.363 . S
C680 C685 1.379 . S
C680 N687 1.356 . S
C681 C680 1.363 . S
C681 C684 1.363 . S
N682 C684 1.356 . S
N682 H694 0.984 . S
N682 H695 0.985 . S
N683 C685 1.356 . S
N683 H688 0.984 . S
N683 H689 0.985 . S
C684 C678 1.379 . S
C684 C681 1.363 . S
C684 N682 1.356 . S
C685 C679 1.363 . S
C685 C680 1.379 . S
C685 N683 1.356 . S
N686 C678 1.356 . S
N686 H692 0.984 . S
N686 H693 0.984 . S
N687 C680 1.356 . S
N687 H690 0.984 . S
N687 H691 0.985 . S
H688 N683 0.984 . S
H689 N683 0.985 . S
H690 N687 0.984 . S
H691 N687 0.985 . S
H692 N686 0.984 . S
H693 N686 0.984 . S
H694 N682 0.984 . S
H695 N682 0.985 . S
C696 C697 1.363 . S
C696 C702 1.379 . S
C696 N704 1.356 . S
C697 C696 1.363 . S
C697 C703 1.363 . S
C698 C699 1.363 . S
C698 C703 1.379 . S
C698 N705 1.356 . S
C699 C698 1.363 . S
C699 C702 1.363 . S
N700 C702 1.356 . S
N700 H712 0.984 . S
N700 H713 0.985 . S
N701 C703 1.356 . S
N701 H706 0.984 . S
N701 H707 0.985 . S
C702 C696 1.379 . S
C702 C699 1.363 . S
C702 N700 1.356 . S
C703 C697 1.363 . S
C703 C698 1.379 . S
C703 N701 1.356 . S
N704 C696 1.356 . S
N704 H710 0.984 . S
N704 H711 0.984 . S
N705 C698 1.356 . S
N705 H708 0.984 . S
N705 H709 0.985 . S
H706 N701 0.984 . S
H707 N701 0.985 . S
H708 N705 0.984 . S
H709 N705 0.985 . S
H710 N704 0.984 . S
H711 N704 0.984 . S
H712 N700 0.984 . S
H713 N700 0.985 . S
C714 C715 1.363 . S
C714 C720 1.379 . S
C714 N722 1.356 . S
C715 C714 1.363 . S
C715 C721 1.363 . S
C716 C717 1.363 . S
C716 C721 1.379 . S
C716 N723 1.356 . S
C717 C716 1.363 . S
C717 C720 1.363 . S
N718 C720 1.356 . S
N718 H730 0.984 . S
N718 H731 0.985 . S
N719 C721 1.356 . S
N719 H724 0.984 . S
N719 H725 0.985 . S
C720 C714 1.379 . S
C720 C717 1.363 . S
C720 N718 1.356 . S
C721 C715 1.363 . S
C721 C716 1.379 . S
C721 N719 1.356 . S
N722 C714 1.356 . S
N722 H728 0.984 . S
N722 H729 0.984 . S
N723 C716 1.356 . S
N723 H726 0.984 . S
N723 H727 0.985 . S
H724 N719 0.984 . S
H725 N719 0.985 . S
H726 N723 0.984 . S
H727 N723 0.985 . S
H728 N722 0.984 . S
H729 N722 0.984 . S
H730 N718 0.984 . S
H731 N718 0.985 . S
C732 C733 1.363 . S
C732 C738 1.379 . S
C732 N740 1.356 . S
C733 C732 1.363 . S
C733 C739 1.363 . S
C734 C735 1.363 . S
C734 C739 1.379 . S
C734 N741 1.356 . S
C735 C734 1.363 . S
C735 C738 1.363 . S
N736 C738 1.356 . S
N736 H748 0.984 . S
N736 H749 0.985 . S
N737 C739 1.356 . S
N737 H742 0.984 . S
N737 H743 0.985 . S
C738 C732 1.379 . S
C738 C735 1.363 . S
C738 N736 1.356 . S
C739 C733 1.363 . S
C739 C734 1.379 . S
C739 N737 1.356 . S
N740 C732 1.356 . S
N740 H746 0.984 . S
N740 H747 0.984 . S
N741 C734 1.356 . S
N741 H744 0.984 . S
N741 H745 0.985 . S
H742 N737 0.984 . S
H743 N737 0.985 . S
H744 N741 0.984 . S
H745 N741 0.985 . S
H746 N740 0.984 . S
H747 N740 0.984 . S
H748 N736 0.984 . S
H749 N736 0.985 . S
C750 C751 1.363 . S
C750 C756 1.379 . S
C750 N758 1.356 . S
C751 C750 1.363 . S
C751 C757 1.363 . S
C752 C753 1.363 . S
C752 C757 1.379 . S
C752 N759 1.356 . S
C753 C752 1.363 . S
C753 C756 1.363 . S
N754 C756 1.356 . S
N754 H766 0.984 . S
N754 H767 0.985 . S
N755 C757 1.356 . S
N755 H760 0.984 . S
N755 H761 0.985 . S
C756 C750 1.379 . S
C756 C753 1.363 . S
C756 N754 1.356 . S
C757 C751 1.363 . S
C757 C752 1.379 . S
C757 N755 1.356 . S
N758 C750 1.356 . S
N758 H764 0.984 . S
N758 H765 0.984 . S
N759 C752 1.356 . S
N759 H762 0.984 . S
N759 H763 0.985 . S
H760 N755 0.984 . S
H761 N755 0.985 . S
H762 N759 0.984 . S
H763 N759 0.985 . S
H764 N758 0.984 . S
H765 N758 0.984 . S
H766 N754 0.984 . S
H767 N754 0.985 . S
C768 C769 1.363 . S
C768 C774 1.379 . S
C768 N776 1.356 . S
C769 C768 1.363 . S
C769 C775 1.363 . S
C770 C771 1.363 . S
C770 C775 1.379 . S
C770 N777 1.356 . S
C771 C770 1.363 . S
C771 C774 1.363 . S
N772 C774 1.356 . S
N772 H784 0.984 . S
N772 H785 0.985 . S
N773 C775 1.356 . S
N773 H778 0.984 . S
N773 H779 0.985 . S
C774 C768 1.379 . S
C774 C771 1.363 . S
C774 N772 1.356 . S
C775 C769 1.363 . S
C775 C770 1.379 . S
C775 N773 1.356 . S
N776 C768 1.356 . S
N776 H782 0.984 . S
N776 H783 0.984 . S
N777 C770 1.356 . S
N777 H780 0.984 . S
N777 H781 0.985 . S
H778 N773 0.984 . S
H779 N773 0.985 . S
H780 N777 0.984 . S
H781 N777 0.985 . S
H782 N776 0.984 . S
H783 N776 0.984 . S
H784 N772 0.984 . S
H785 N772 0.985 . S
C786 C787 1.363 . S
C786 C792 1.379 . S
C786 N794 1.356 . S
C787 C786 1.363 . S
C787 C793 1.363 . S
C788 C789 1.363 . S
C788 C793 1.379 . S
C788 N795 1.356 . S
C789 C788 1.363 . S
C789 C792 1.363 . S
N790 C792 1.356 . S
N790 H802 0.984 . S
N790 H803 0.985 . S
N791 C793 1.356 . S
N791 H796 0.984 . S
N791 H797 0.985 . S
C792 C786 1.379 . S
C792 C789 1.363 . S
C792 N790 1.356 . S
C793 C787 1.363 . S
C793 C788 1.379 . S
C793 N791 1.356 . S
N794 C786 1.356 . S
N794 H800 0.984 . S
N794 H801 0.984 . S
N795 C788 1.356 . S
N795 H798 0.984 . S
N795 H799 0.985 . S
H796 N791 0.984 . S
H797 N791 0.985 . S
H798 N795 0.984 . S
H799 N795 0.985 . S
H800 N794 0.984 . S
H801 N794 0.984 . S
H802 N790 0.984 . S
H803 N790 0.985 . S
C804 C805 1.363 . S
C804 C810 1.379 . S
C804 N812 1.356 . S
C805 C804 1.363 . S
C805 C811 1.363 . S
C806 C807 1.363 . S
C806 C811 1.379 . S
C806 N813 1.356 . S
C807 C806 1.363 . S
C807 C810 1.363 . S
N808 C810 1.356 . S
N808 H820 0.984 . S
N808 H821 0.985 . S
N809 C811 1.356 . S
N809 H814 0.984 . S
N809 H815 0.985 . S
C810 C804 1.379 . S
C810 C807 1.363 . S
C810 N808 1.356 . S
C811 C805 1.363 . S
C811 C806 1.379 . S
C811 N809 1.356 . S
N812 C804 1.356 . S
N812 H818 0.984 . S
N812 H819 0.984 . S
N813 C806 1.356 . S
N813 H816 0.984 . S
N813 H817 0.985 . S
H814 N809 0.984 . S
H815 N809 0.985 . S
H816 N813 0.984 . S
H817 N813 0.985 . S
H818 N812 0.984 . S
H819 N812 0.984 . S
H820 N808 0.984 . S
H821 N808 0.985 . S
C822 C823 1.363 . S
C822 C828 1.379 . S
C822 N830 1.356 . S
C823 C822 1.363 . S
C823 C829 1.363 . S
C824 C825 1.363 . S
C824 C829 1.379 . S
C824 N831 1.356 . S
C825 C824 1.363 . S
C825 C828 1.363 . S
N826 C828 1.356 . S
N826 H838 0.984 . S
N826 H839 0.985 . S
N827 C829 1.356 . S
N827 H832 0.984 . S
N827 H833 0.985 . S
C828 C822 1.379 . S
C828 C825 1.363 . S
C828 N826 1.356 . S
C829 C823 1.363 . S
C829 C824 1.379 . S
C829 N827 1.356 . S
N830 C822 1.356 . S
N830 H836 0.984 . S
N830 H837 0.984 . S
N831 C824 1.356 . S
N831 H834 0.984 . S
N831 H835 0.985 . S
H832 N827 0.984 . S
H833 N827 0.985 . S
H834 N831 0.984 . S
H835 N831 0.985 . S
H836 N830 0.984 . S
H837 N830 0.984 . S
H838 N826 0.984 . S
H839 N826 0.985 . S
C840 C841 1.363 . S
C840 C846 1.379 . S
C840 N848 1.356 . S
C841 C840 1.363 . S
C841 C847 1.363 . S
C842 C843 1.363 . S
C842 C847 1.379 . S
C842 N849 1.356 . S
C843 C842 1.363 . S
C843 C846 1.363 . S
N844 C846 1.356 . S
N844 H856 0.984 . S
N844 H857 0.985 . S
N845 C847 1.356 . S
N845 H850 0.984 . S
N845 H851 0.985 . S
C846 C840 1.379 . S
C846 C843 1.363 . S
C846 N844 1.356 . S
C847 C841 1.363 . S
C847 C842 1.379 . S
C847 N845 1.356 . S
N848 C840 1.356 . S
N848 H854 0.984 . S
N848 H855 0.984 . S
N849 C842 1.356 . S
N849 H852 0.984 . S
N849 H853 0.985 . S
H850 N845 0.984 . S
H851 N845 0.985 . S
H852 N849 0.984 . S
H853 N849 0.985 . S
H854 N848 0.984 . S
H855 N848 0.984 . S
H856 N844 0.984 . S
H857 N844 0.985 . S
C858 C859 1.363 . S
C858 C864 1.379 . S
C858 N866 1.356 . S
C859 C858 1.363 . S
C859 C865 1.363 . S
C860 C861 1.363 . S
C860 C865 1.379 . S
C860 N867 1.356 . S
C861 C860 1.363 . S
C861 C864 1.363 . S
N862 C864 1.356 . S
N862 H874 0.984 . S
N862 H875 0.985 . S
N863 C865 1.356 . S
N863 H868 0.984 . S
N863 H869 0.985 . S
C864 C858 1.379 . S
C864 C861 1.363 . S
C864 N862 1.356 . S
C865 C859 1.363 . S
C865 C860 1.379 . S
C865 N863 1.356 . S
N866 C858 1.356 . S
N866 H872 0.984 . S
N866 H873 0.984 . S
N867 C860 1.356 . S
N867 H870 0.984 . S
N867 H871 0.985 . S
H868 N863 0.984 . S
H869 N863 0.985 . S
H870 N867 0.984 . S
H871 N867 0.985 . S
H872 N866 0.984 . S
H873 N866 0.984 . S
H874 N862 0.984 . S
H875 N862 0.985 . S
C876 C877 1.363 . S
C876 C882 1.379 . S
C876 N884 1.356 . S
C877 C876 1.363 . S
C877 C883 1.363 . S
C878 C879 1.363 . S
C878 C883 1.379 . S
C878 N885 1.356 . S
C879 C878 1.363 . S
C879 C882 1.363 . S
N880 C882 1.356 . S
N880 H892 0.984 . S
N880 H893 0.985 . S
N881 C883 1.356 . S
N881 H886 0.984 . S
N881 H887 0.985 . S
C882 C876 1.379 . S
C882 C879 1.363 . S
C882 N880 1.356 . S
C883 C877 1.363 . S
C883 C878 1.379 . S
C883 N881 1.356 . S
N884 C876 1.356 . S
N884 H890 0.984 . S
N884 H891 0.984 . S
N885 C878 1.356 . S
N885 H888 0.984 . S
N885 H889 0.985 . S
H886 N881 0.984 . S
H887 N881 0.985 . S
H888 N885 0.984 . S
H889 N885 0.985 . S
H890 N884 0.984 . S
H891 N884 0.984 . S
H892 N880 0.984 . S
H893 N880 0.985 . S
C894 C895 1.363 . S
C894 C900 1.379 . S
C894 N902 1.356 . S
C895 C894 1.363 . S
C895 C901 1.363 . S
C896 C897 1.363 . S
C896 C901 1.379 . S
C896 N903 1.356 . S
C897 C896 1.363 . S
C897 C900 1.363 . S
N898 C900 1.356 . S
N898 H910 0.984 . S
N898 H911 0.985 . S
N899 C901 1.356 . S
N899 H904 0.984 . S
N899 H905 0.985 . S
C900 C894 1.379 . S
C900 C897 1.363 . S
C900 N898 1.356 . S
C901 C895 1.363 . S
C901 C896 1.379 . S
C901 N899 1.356 . S
N902 C894 1.356 . S
N902 H908 0.984 . S
N902 H909 0.984 . S
N903 C896 1.356 . S
N903 H906 0.984 . S
N903 H907 0.985 . S
H904 N899 0.984 . S
H905 N899 0.985 . S
H906 N903 0.984 . S
H907 N903 0.985 . S
H908 N902 0.984 . S
H909 N902 0.984 . S
H910 N898 0.984 . S
H911 N898 0.985 . S
C912 C913 1.363 . S
C912 C918 1.379 . S
C912 N920 1.356 . S
C913 C912 1.363 . S
C913 C919 1.363 . S
C914 C915 1.363 . S
C914 C919 1.379 . S
C914 N921 1.356 . S
C915 C914 1.363 . S
C915 C918 1.363 . S
N916 C918 1.356 . S
N916 H928 0.984 . S
N916 H929 0.985 . S
N917 C919 1.356 . S
N917 H922 0.984 . S
N917 H923 0.985 . S
C918 C912 1.379 . S
C918 C915 1.363 . S
C918 N916 1.356 . S
C919 C913 1.363 . S
C919 C914 1.379 . S
C919 N917 1.356 . S
N920 C912 1.356 . S
N920 H926 0.984 . S
N920 H927 0.984 . S
N921 C914 1.356 . S
N921 H924 0.984 . S
N921 H925 0.985 . S
H922 N917 0.984 . S
H923 N917 0.985 . S
H924 N921 0.984 . S
H925 N921 0.985 . S
H926 N920 0.984 . S
H927 N920 0.984 . S
H928 N916 0.984 . S
H929 N916 0.985 . S
C930 C931 1.363 . S
C930 C936 1.379 . S
C930 N938 1.356 . S
C931 C930 1.363 . S
C931 C937 1.363 . S
C932 C933 1.363 . S
C932 C937 1.379 . S
C932 N939 1.356 . S
C933 C932 1.363 . S
C933 C936 1.363 . S
N934 C936 1.356 . S
N934 H946 0.984 . S
N934 H947 0.985 . S
N935 C937 1.356 . S
N935 H940 0.984 . S
N935 H941 0.985 . S
C936 C930 1.379 . S
C936 C933 1.363 . S
C936 N934 1.356 . S
C937 C931 1.363 . S
C937 C932 1.379 . S
C937 N935 1.356 . S
N938 C930 1.356 . S
N938 H944 0.984 . S
N938 H945 0.984 . S
N939 C932 1.356 . S
N939 H942 0.984 . S
N939 H943 0.985 . S
H940 N935 0.984 . S
H941 N935 0.985 . S
H942 N939 0.984 . S
H943 N939 0.985 . S
H944 N938 0.984 . S
H945 N938 0.984 . S
H946 N934 0.984 . S
H947 N934 0.985 . S
C948 C949 1.363 . S
C948 C954 1.379 . S
C948 N956 1.356 . S
C949 C948 1.363 . S
C949 C955 1.363 . S
C950 C951 1.363 . S
C950 C955 1.379 . S
C950 N957 1.356 . S
C951 C950 1.363 . S
C951 C954 1.363 . S
N952 C954 1.356 . S
N952 H964 0.984 . S
N952 H965 0.985 . S
N953 C955 1.356 . S
N953 H958 0.984 . S
N953 H959 0.985 . S
C954 C948 1.379 . S
C954 C951 1.363 . S
C954 N952 1.356 . S
C955 C949 1.363 . S
C955 C950 1.379 . S
C955 N953 1.356 . S
N956 C948 1.356 . S
N956 H962 0.984 . S
N956 H963 0.984 . S
N957 C950 1.356 . S
N957 H960 0.984 . S
N957 H961 0.985 . S
H958 N953 0.984 . S
H959 N953 0.985 . S
H960 N957 0.984 . S
H961 N957 0.985 . S
H962 N956 0.984 . S
H963 N956 0.984 . S
H964 N952 0.984 . S
H965 N952 0.985 . S
C966 C967 1.363 . S
C966 C972 1.379 . S
C966 N974 1.356 . S
C967 C966 1.363 . S
C967 C973 1.363 . S
C968 C969 1.363 . S
C968 C973 1.379 . S
C968 N975 1.356 . S
C969 C968 1.363 . S
C969 C972 1.363 . S
N970 C972 1.356 . S
N970 H982 0.984 . S
N970 H983 0.985 . S
N971 C973 1.356 . S
N971 H976 0.984 . S
N971 H977 0.985 . S
C972 C966 1.379 . S
C972 C969 1.363 . S
C972 N970 1.356 . S
C973 C967 1.363 . S
C973 C968 1.379 . S
C973 N971 1.356 . S
N974 C966 1.356 . S
N974 H980 0.984 . S
N974 H981 0.984 . S
N975 C968 1.356 . S
N975 H978 0.984 . S
N975 H979 0.985 . S
H976 N971 0.984 . S
H977 N971 0.985 . S
H978 N975 0.984 . S
H979 N975 0.985 . S
H980 N974 0.984 . S
H981 N974 0.984 . S
H982 N970 0.984 . S
H983 N970 0.985 . S
C984 C985 1.363 . S
C984 C990 1.379 . S
C984 N992 1.356 . S
C985 C984 1.363 . S
C985 C991 1.363 . S
C986 C987 1.363 . S
C986 C991 1.379 . S
C986 N993 1.356 . S
C987 C986 1.363 . S
C987 C990 1.363 . S
N988 C990 1.356 . S
N988 H1000 0.984 . S
N988 H1001 0.985 . S
N989 C991 1.356 . S
N989 H994 0.984 . S
N989 H995 0.985 . S
C990 C984 1.379 . S
C990 C987 1.363 . S
C990 N988 1.356 . S
C991 C985 1.363 . S
C991 C986 1.379 . S
C991 N989 1.356 . S
N992 C984 1.356 . S
N992 H998 0.984 . S
N992 H999 0.984 . S
N993 C986 1.356 . S
N993 H996 0.984 . S
N993 H997 0.985 . S
H994 N989 0.984 . S
H995 N989 0.985 . S
H996 N993 0.984 . S
H997 N993 0.985 . S
H998 N992 0.984 . S
H999 N992 0.984 . S
H1000 N988 0.984 . S
H1001 N988 0.985 . S
C1002 C1003 1.363 . S
C1002 C1008 1.379 . S
C1002 N1010 1.356 . S
C1003 C1002 1.363 . S
C1003 C1009 1.363 . S
C1004 C1005 1.363 . S
C1004 C1009 1.379 . S
C1004 N1011 1.356 . S
C1005 C1004 1.363 . S
C1005 C1008 1.363 . S
N1006 C1008 1.356 . S
N1006 H1018 0.984 . S
N1006 H1019 0.985 . S
N1007 C1009 1.356 . S
N1007 H1012 0.984 . S
N1007 H1013 0.985 . S
C1008 C1002 1.379 . S
C1008 C1005 1.363 . S
C1008 N1006 1.356 . S
C1009 C1003 1.363 . S
C1009 C1004 1.379 . S
C1009 N1007 1.356 . S
N1010 C1002 1.356 . S
N1010 H1016 0.984 . S
N1010 H1017 0.984 . S
N1011 C1004 1.356 . S
N1011 H1014 0.984 . S
N1011 H1015 0.985 . S
H1012 N1007 0.984 . S
H1013 N1007 0.985 . S
H1014 N1011 0.984 . S
H1015 N1011 0.985 . S
H1016 N1010 0.984 . S
H1017 N1010 0.984 . S
H1018 N1006 0.984 . S
H1019 N1006 0.985 . S
C1020 C1021 1.363 . S
C1020 C1026 1.379 . S
C1020 N1028 1.356 . S
C1021 C1020 1.363 . S
C1021 C1027 1.363 . S
C1022 C1023 1.363 . S
C1022 C1027 1.379 . S
C1022 N1029 1.356 . S
C1023 C1022 1.363 . S
C1023 C1026 1.363 . S
N1024 C1026 1.356 . S
N1024 H1036 0.984 . S
N1024 H1037 0.985 . S
N1025 C1027 1.356 . S
N1025 H1030 0.984 . S
N1025 H1031 0.985 . S
C1026 C1020 1.379 . S
C1026 C1023 1.363 . S
C1026 N1024 1.356 . S
C1027 C1021 1.363 . S
C1027 C1022 1.379 . S
C1027 N1025 1.356 . S
N1028 C1020 1.356 . S
N1028 H1034 0.984 . S
N1028 H1035 0.984 . S
N1029 C1022 1.356 . S
N1029 H1032 0.984 . S
N1029 H1033 0.985 . S
H1030 N1025 0.984 . S
H1031 N1025 0.985 . S
H1032 N1029 0.984 . S
H1033 N1029 0.985 . S
H1034 N1028 0.984 . S
H1035 N1028 0.984 . S
H1036 N1024 0.984 . S
H1037 N1024 0.985 . S
C1038 C1039 1.363 . S
C1038 C1044 1.379 . S
C1038 N1046 1.356 . S
C1039 C1038 1.363 . S
C1039 C1045 1.363 . S
C1040 C1041 1.363 . S
C1040 C1045 1.379 . S
C1040 N1047 1.356 . S
C1041 C1040 1.363 . S
C1041 C1044 1.363 . S
N1042 C1044 1.356 . S
N1042 H1054 0.984 . S
N1042 H1055 0.985 . S
N1043 C1045 1.356 . S
N1043 H1048 0.984 . S
N1043 H1049 0.985 . S
C1044 C1038 1.379 . S
C1044 C1041 1.363 . S
C1044 N1042 1.356 . S
C1045 C1039 1.363 . S
C1045 C1040 1.379 . S
C1045 N1043 1.356 . S
N1046 C1038 1.356 . S
N1046 H1052 0.984 . S
N1046 H1053 0.984 . S
N1047 C1040 1.356 . S
N1047 H1050 0.984 . S
N1047 H1051 0.985 . S
H1048 N1043 0.984 . S
H1049 N1043 0.985 . S
H1050 N1047 0.984 . S
H1051 N1047 0.985 . S
H1052 N1046 0.984 . S
H1053 N1046 0.984 . S
H1054 N1042 0.984 . S
H1055 N1042 0.985 . S
C1056 C1057 1.366 . S
C1056 C1062 1.376 1_655 S
C1056 N1064 1.357 . S
C1057 C1056 1.366 . S
C1057 C1063 1.363 . S
C1058 C1059 1.366 . S
C1058 C1063 1.376 1_455 S
C1058 N1065 1.357 . S
C1059 C1058 1.366 . S
C1059 C1062 1.363 . S
N1060 C1062 1.356 . S
N1060 H1072 0.984 . S
N1060 H1073 0.985 . S
N1061 C1063 1.356 . S
N1061 H1066 0.984 . S
N1061 H1067 0.985 . S
C1062 C1056 1.376 1_455 S
C1062 C1059 1.363 . S
C1062 N1060 1.356 . S
C1063 C1057 1.363 . S
C1063 C1058 1.376 1_655 S
C1063 N1061 1.356 . S
N1064 C1056 1.357 . S
N1064 H1070 0.980 1_655 S
N1064 H1071 0.984 . S
N1065 C1058 1.357 . S
N1065 H1068 0.984 . S
N1065 H1069 0.980 1_455 S
H1066 N1061 0.984 . S
H1067 N1061 0.985 . S
H1068 N1065 0.984 . S
H1069 N1065 0.980 1_655 S
H1070 N1064 0.980 1_455 S
H1071 N1064 0.984 . S
H1072 N1060 0.984 . S
H1073 N1060 0.985 . S
C1074 C1075 1.363 . S
C1074 C1080 1.379 . S
C1074 N1082 1.356 . S
C1075 C1074 1.363 . S
C1075 C1081 1.363 1_565 S
C1076 C1077 1.363 . S
C1076 C1081 1.379 . S
C1076 N1083 1.356 . S
C1077 C1076 1.363 . S
C1077 C1080 1.363 1_545 S
N1078 C1080 1.356 . S
N1078 H1090 0.984 . S
N1078 H1091 0.985 . S
N1079 C1081 1.356 . S
N1079 H1084 0.984 . S
N1079 H1085 0.985 . S
C1080 C1074 1.379 . S
C1080 C1077 1.363 1_565 S
C1080 N1078 1.356 . S
C1081 C1075 1.363 1_545 S
C1081 C1076 1.379 . S
C1081 N1079 1.356 . S
N1082 C1074 1.356 . S
N1082 H1088 0.984 . S
N1082 H1089 0.984 . S
N1083 C1076 1.356 . S
N1083 H1086 0.984 . S
N1083 H1087 0.985 . S
H1084 N1079 0.984 . S
H1085 N1079 0.985 . S
H1086 N1083 0.984 . S
H1087 N1083 0.985 . S
H1088 N1082 0.984 . S
H1089 N1082 0.984 . S
H1090 N1078 0.984 . S
H1091 N1078 0.985 . S
C1092 C1093 1.363 . S
C1092 C1098 1.379 . S
C1092 N1100 1.356 . S
C1093 C1092 1.363 . S
C1093 C1099 1.363 1_655 S
C1094 C1095 1.363 . S
C1094 C1099 1.379 . S
C1094 N1101 1.356 . S
C1095 C1094 1.363 . S
C1095 C1098 1.363 1_455 S
N1096 C1098 1.356 . S
N1096 H1108 0.984 . S
N1096 H1109 0.989 . S
N1097 C1099 1.356 . S
N1097 H1102 0.989 . S
N1097 H1103 0.985 . S
C1098 C1092 1.379 . S
C1098 C1095 1.363 1_655 S
C1098 N1096 1.356 . S
C1099 C1093 1.363 1_455 S
C1099 C1094 1.379 . S
C1099 N1097 1.356 . S
N1100 C1092 1.356 . S
N1100 H1106 0.984 . S
N1100 H1107 0.984 . S
N1101 C1094 1.356 . S
N1101 H1104 0.984 . S
N1101 H1105 0.985 . S
H1102 N1097 0.989 . S
H1103 N1097 0.985 . S
H1104 N1101 0.984 . S
H1105 N1101 0.985 . S
H1106 N1100 0.984 . S
H1107 N1100 0.984 . S
H1108 N1096 0.984 . S
H1109 N1096 0.989 . S
C1110 C1111 1.363 . S
C1110 C1116 1.379 . S
C1110 N1118 1.356 . S
C1111 C1110 1.363 . S
C1111 C1117 1.363 1_545 S
C1112 C1113 1.363 . S
C1112 C1117 1.379 . S
C1112 N1119 1.356 . S
C1113 C1112 1.363 . S
C1113 C1116 1.363 1_565 S
N1114 C1116 1.356 . S
N1114 H1126 0.984 . S
N1114 H1127 0.977 1_545 S
N1115 C1117 1.356 . S
N1115 H1120 0.977 1_565 S
N1115 H1121 0.985 . S
C1116 C1110 1.379 . S
C1116 C1113 1.363 1_545 S
C1116 N1114 1.356 . S
C1117 C1111 1.363 1_565 S
C1117 C1112 1.379 . S
C1117 N1115 1.356 . S
N1118 C1110 1.356 . S
N1118 H1124 0.984 . S
N1118 H1125 0.984 . S
N1119 C1112 1.356 . S
N1119 H1122 0.984 . S
N1119 H1123 0.985 . S
H1120 N1115 0.977 1_545 S
H1121 N1115 0.985 . S
H1122 N1119 0.984 . S
H1123 N1119 0.985 . S
H1124 N1118 0.984 . S
H1125 N1118 0.984 . S
H1126 N1114 0.984 . S
H1127 N1114 0.977 1_565 S
C1128 C1129 1.363 . S
C1128 C1134 1.379 . S
C1128 N1136 1.356 . S
C1129 C1128 1.363 . S
C1129 C1135 1.363 1_455 S
C1130 C1131 1.363 . S
C1130 C1135 1.379 . S
C1130 N1137 1.356 . S
C1131 C1130 1.363 . S
C1131 C1134 1.363 1_655 S
N1132 C1134 1.356 . S
N1132 H1144 0.984 . S
N1132 H1145 0.985 . S
N1133 C1135 1.356 . S
N1133 H1138 0.984 . S
N1133 H1139 0.985 . S
C1134 C1128 1.379 . S
C1134 C1131 1.363 1_455 S
C1134 N1132 1.356 . S
C1135 C1129 1.363 1_655 S
C1135 C1130 1.379 . S
C1135 N1133 1.356 . S
N1136 C1128 1.356 . S
N1136 H1142 0.984 . S
N1136 H1143 0.984 . S
N1137 C1130 1.356 . S
N1137 H1140 0.984 . S
N1137 H1141 0.985 . S
H1138 N1133 0.984 . S
H1139 N1133 0.985 . S
H1140 N1137 0.984 . S
H1141 N1137 0.985 . S
H1142 N1136 0.984 . S
H1143 N1136 0.984 . S
H1144 N1132 0.984 . S
H1145 N1132 0.985 . S
C1146 C1147 1.363 1_545 S
C1146 C1152 1.379 . S
C1146 N1154 1.356 . S
C1147 C1146 1.363 1_565 S
C1147 C1153 1.363 . S
C1148 C1149 1.363 1_565 S
C1148 C1153 1.379 . S
C1148 N1155 1.356 . S
C1149 C1148 1.363 1_545 S
C1149 C1152 1.363 . S
N1150 C1152 1.356 . S
N1150 H1162 0.984 . S
N1150 H1163 0.985 . S
N1151 C1153 1.356 . S
N1151 H1156 0.984 . S
N1151 H1157 0.985 . S
C1152 C1146 1.379 . S
C1152 C1149 1.363 . S
C1152 N1150 1.356 . S
C1153 C1147 1.363 . S
C1153 C1148 1.379 . S
C1153 N1151 1.356 . S
N1154 C1146 1.356 . S
N1154 H1160 0.984 . S
N1154 H1161 0.984 . S
N1155 C1148 1.356 . S
N1155 H1158 0.984 . S
N1155 H1159 0.985 . S
H1156 N1151 0.984 . S
H1157 N1151 0.985 . S
H1158 N1155 0.984 . S
H1159 N1155 0.985 . S
H1160 N1154 0.984 . S
H1161 N1154 0.984 . S
H1162 N1150 0.984 . S
H1163 N1150 0.985 . S
C1164 C1165 1.363 1_655 S
C1164 C1170 1.379 . S
C1164 N1172 1.356 . S
C1165 C1164 1.363 1_455 S
C1165 C1171 1.363 . S
C1166 C1167 1.363 1_455 S
C1166 C1171 1.379 . S
C1166 N1173 1.356 . S
C1167 C1166 1.363 1_655 S
C1167 C1170 1.363 . S
N1168 C1170 1.356 . S
N1168 H1180 0.984 . S
N1168 H1181 0.985 . S
N1169 C1171 1.356 . S
N1169 H1174 0.984 . S
N1169 H1175 0.985 . S
C1170 C1164 1.379 . S
C1170 C1167 1.363 . S
C1170 N1168 1.356 . S
C1171 C1165 1.363 . S
C1171 C1166 1.379 . S
C1171 N1169 1.356 . S
N1172 C1164 1.356 . S
N1172 H1178 0.984 . S
N1172 H1179 0.984 . S
N1173 C1166 1.356 . S
N1173 H1176 0.984 . S
N1173 H1177 0.985 . S
H1174 N1169 0.984 . S
H1175 N1169 0.985 . S
H1176 N1173 0.984 . S
H1177 N1173 0.985 . S
H1178 N1172 0.984 . S
H1179 N1172 0.984 . S
H1180 N1168 0.984 . S
H1181 N1168 0.985 . S
C1182 C1183 1.363 1_565 S
C1182 C1188 1.379 . S
C1182 N1190 1.356 . S
C1183 C1182 1.363 1_545 S
C1183 C1189 1.363 . S
C1184 C1185 1.363 1_545 S
C1184 C1189 1.379 . S
C1184 N1191 1.356 . S
C1185 C1184 1.363 1_565 S
C1185 C1188 1.363 . S
N1186 C1188 1.356 . S
N1186 H1198 0.984 . S
N1186 H1199 0.985 . S
N1187 C1189 1.356 . S
N1187 H1192 0.984 . S
N1187 H1193 0.985 . S
C1188 C1182 1.379 . S
C1188 C1185 1.363 . S
C1188 N1186 1.356 . S
C1189 C1183 1.363 . S
C1189 C1184 1.379 . S
C1189 N1187 1.356 . S
N1190 C1182 1.356 . S
N1190 H1196 0.984 . S
N1190 H1197 0.984 . S
N1191 C1184 1.356 . S
N1191 H1194 0.984 . S
N1191 H1195 0.985 . S
H1192 N1187 0.984 . S
H1193 N1187 0.985 . S
H1194 N1191 0.984 . S
H1195 N1191 0.985 . S
H1196 N1190 0.984 . S
H1197 N1190 0.984 . S
H1198 N1186 0.984 . S
H1199 N1186 0.985 . S
C1200 C1201 1.363 1_554 S
C1200 C1206 1.379 . S
C1200 N1208 1.356 . S
C1201 C1200 1.363 1_556 S
C1201 C1207 1.363 . S
C1202 C1203 1.363 1_556 S
C1202 C1207 1.379 . S
C1202 N1209 1.356 . S
C1203 C1202 1.363 1_554 S
C1203 C1206 1.363 . S
N1204 C1206 1.356 . S
N1204 H1216 0.984 . S
N1204 H1217 0.985 . S
N1205 C1207 1.356 . S
N1205 H1210 0.984 . S
N1205 H1211 0.985 . S
C1206 C1200 1.379 . S
C1206 C1203 1.363 . S
C1206 N1204 1.356 . S
C1207 C1201 1.363 . S
C1207 C1202 1.379 . S
C1207 N1205 1.356 . S
N1208 C1200 1.356 . S
N1208 H1214 0.984 . S
N1208 H1215 0.984 . S
N1209 C1202 1.356 . S
N1209 H1212 0.984 . S
N1209 H1213 0.985 . S
H1210 N1205 0.984 . S
H1211 N1205 0.985 . S
H1212 N1209 0.984 . S
H1213 N1209 0.985 . S
H1214 N1208 0.984 . S
H1215 N1208 0.984 . S
H1216 N1204 0.984 . S
H1217 N1204 0.985 . S
C1218 C1219 1.363 1_556 S
C1218 C1224 1.379 . S
C1218 N1226 1.356 . S
C1219 C1218 1.363 1_554 S
C1219 C1225 1.363 . S
C1220 C1221 1.363 1_554 S
C1220 C1225 1.379 . S
C1220 N1227 1.356 . S
C1221 C1220 1.363 1_556 S
C1221 C1224 1.363 . S
N1222 C1224 1.356 . S
N1222 H1234 0.984 . S
N1222 H1235 0.985 . S
N1223 C1225 1.356 . S
N1223 H1228 0.984 . S
N1223 H1229 0.985 . S
C1224 C1218 1.379 . S
C1224 C1221 1.363 . S
C1224 N1222 1.356 . S
C1225 C1219 1.363 . S
C1225 C1220 1.379 . S
C1225 N1223 1.356 . S
N1226 C1218 1.356 . S
N1226 H1232 0.984 . S
N1226 H1233 0.984 . S
N1227 C1220 1.356 . S
N1227 H1230 0.984 . S
N1227 H1231 0.985 . S
H1228 N1223 0.984 . S
H1229 N1223 0.985 . S
H1230 N1227 0.984 . S
H1231 N1227 0.985 . S
H1232 N1226 0.984 . S
H1233 N1226 0.984 . S
H1234 N1222 0.984 . S
H1235 N1222 0.985 . S
C1236 C1237 1.363 1_556 S
C1236 C1242 1.379 . S
C1236 N1244 1.356 . S
C1237 C1236 1.363 1_554 S
C1237 C1243 1.363 . S
C1238 C1239 1.363 1_554 S
C1238 C1243 1.379 . S
C1238 N1245 1.356 . S
C1239 C1238 1.363 1_556 S
C1239 C1242 1.363 . S
N1240 C1242 1.356 . S
N1240 H1252 0.984 . S
N1240 H1253 0.985 . S
N1241 C1243 1.356 . S
N1241 H1246 0.984 . S
N1241 H1247 0.985 . S
C1242 C1236 1.379 . S
C1242 C1239 1.363 . S
C1242 N1240 1.356 . S
C1243 C1237 1.363 . S
C1243 C1238 1.379 . S
C1243 N1241 1.356 . S
N1244 C1236 1.356 . S
N1244 H1250 0.984 . S
N1244 H1251 0.984 . S
N1245 C1238 1.356 . S
N1245 H1248 0.984 . S
N1245 H1249 0.985 . S
H1246 N1241 0.984 . S
H1247 N1241 0.985 . S
H1248 N1245 0.984 . S
H1249 N1245 0.985 . S
H1250 N1244 0.984 . S
H1251 N1244 0.984 . S
H1252 N1240 0.984 . S
H1253 N1240 0.985 . S
C1254 C1255 1.363 . S
C1254 C1260 1.379 . S
C1254 N1262 1.356 . S
C1255 C1254 1.363 . S
C1255 C1261 1.363 1_556 S
C1256 C1257 1.363 . S
C1256 C1261 1.379 . S
C1256 N1263 1.356 . S
C1257 C1256 1.363 . S
C1257 C1260 1.363 1_554 S
N1258 C1260 1.356 . S
N1258 H1270 0.984 . S
N1258 H1271 0.985 . S
N1259 C1261 1.356 . S
N1259 H1264 0.984 . S
N1259 H1265 0.985 . S
C1260 C1254 1.379 . S
C1260 C1257 1.363 1_556 S
C1260 N1258 1.356 . S
C1261 C1255 1.363 1_554 S
C1261 C1256 1.379 . S
C1261 N1259 1.356 . S
N1262 C1254 1.356 . S
N1262 H1268 0.984 . S
N1262 H1269 0.984 . S
N1263 C1256 1.356 . S
N1263 H1266 0.984 . S
N1263 H1267 0.985 . S
H1264 N1259 0.984 . S
H1265 N1259 0.985 . S
H1266 N1263 0.984 . S
H1267 N1263 0.985 . S
H1268 N1262 0.984 . S
H1269 N1262 0.984 . S
H1270 N1258 0.984 . S
H1271 N1258 0.985 . S
C1272 C1273 1.363 . S
C1272 C1278 1.379 . S
C1272 N1280 1.356 . S
C1273 C1272 1.363 . S
C1273 C1279 1.363 . S
C1274 C1275 1.363 . S
C1274 C1279 1.379 . S
C1274 N1281 1.356 . S
C1275 C1274 1.363 . S
C1275 C1278 1.363 . S
N1276 C1278 1.356 . S
N1276 H1288 0.984 . S
N1276 H1289 0.985 . S
N1277 C1279 1.356 . S
N1277 H1282 0.984 . S
N1277 H1283 0.985 . S
C1278 C1272 1.379 . S
C1278 C1275 1.363 . S
C1278 N1276 1.356 . S
C1279 C1273 1.363 . S
C1279 C1274 1.379 . S
C1279 N1277 1.356 . S
N1280 C1272 1.356 . S
N1280 H1286 0.984 . S
N1280 H1287 0.984 . S
N1281 C1274 1.356 . S
N1281 H1284 0.984 . S
N1281 H1285 0.985 . S
H1282 N1277 0.984 . S
H1283 N1277 0.985 . S
H1284 N1281 0.984 . S
H1285 N1281 0.985 . S
H1286 N1280 0.984 . S
H1287 N1280 0.984 . S
H1288 N1276 0.984 . S
H1289 N1276 0.985 . S
C1290 C1291 1.363 . S
C1290 C1296 1.379 . S
C1290 N1298 1.356 . S
C1291 C1290 1.363 . S
C1291 C1297 1.363 . S
C1292 C1293 1.363 . S
C1292 C1297 1.379 . S
C1292 N1299 1.356 . S
C1293 C1292 1.363 . S
C1293 C1296 1.363 . S
N1294 C1296 1.356 . S
N1294 H1306 0.984 . S
N1294 H1307 0.985 . S
N1295 C1297 1.356 . S
N1295 H1300 0.984 . S
N1295 H1301 0.985 . S
C1296 C1290 1.379 . S
C1296 C1293 1.363 . S
C1296 N1294 1.356 . S
C1297 C1291 1.363 . S
C1297 C1292 1.379 . S
C1297 N1295 1.356 . S
N1298 C1290 1.356 . S
N1298 H1304 0.984 . S
N1298 H1305 0.984 . S
N1299 C1292 1.356 . S
N1299 H1302 0.984 . S
N1299 H1303 0.985 . S
H1300 N1295 0.984 . S
H1301 N1295 0.985 . S
H1302 N1299 0.984 . S
H1303 N1299 0.985 . S
H1304 N1298 0.984 . S
H1305 N1298 0.984 . S
H1306 N1294 0.984 . S
H1307 N1294 0.985 . S
C1308 C1309 1.363 . S
C1308 C1314 1.379 . S
C1308 N1316 1.356 . S
C1309 C1308 1.363 . S
C1309 C1315 1.363 . S
C1310 C1311 1.363 . S
C1310 C1315 1.379 . S
C1310 N1317 1.356 . S
C1311 C1310 1.363 . S
C1311 C1314 1.363 . S
N1312 C1314 1.356 . S
N1312 H1324 0.984 . S
N1312 H1325 0.985 . S
N1313 C1315 1.356 . S
N1313 H1318 0.984 . S
N1313 H1319 0.985 . S
C1314 C1308 1.379 . S
C1314 C1311 1.363 . S
C1314 N1312 1.356 . S
C1315 C1309 1.363 . S
C1315 C1310 1.379 . S
C1315 N1313 1.356 . S
N1316 C1308 1.356 . S
N1316 H1322 0.984 . S
N1316 H1323 0.984 . S
N1317 C1310 1.356 . S
N1317 H1320 0.984 . S
N1317 H1321 0.985 . S
H1318 N1313 0.984 . S
H1319 N1313 0.985 . S
H1320 N1317 0.984 . S
H1321 N1317 0.985 . S
H1322 N1316 0.984 . S
H1323 N1316 0.984 . S
H1324 N1312 0.984 . S
H1325 N1312 0.985 . S
C1326 C1327 1.363 . S
C1326 C1332 1.379 . S
C1326 N1334 1.356 . S
C1327 C1326 1.363 . S
C1327 C1333 1.363 . S
C1328 C1329 1.363 . S
C1328 C1333 1.379 . S
C1328 N1335 1.356 . S
C1329 C1328 1.363 . S
C1329 C1332 1.363 . S
N1330 C1332 1.356 . S
N1330 H1342 0.984 . S
N1330 H1343 0.985 . S
N1331 C1333 1.356 . S
N1331 H1336 0.984 . S
N1331 H1337 0.985 . S
C1332 C1326 1.379 . S
C1332 C1329 1.363 . S
C1332 N1330 1.356 . S
C1333 C1327 1.363 . S
C1333 C1328 1.379 . S
C1333 N1331 1.356 . S
N1334 C1326 1.356 . S
N1334 H1340 0.984 . S
N1334 H1341 0.984 . S
N1335 C1328 1.356 . S
N1335 H1338 0.984 . S
N1335 H1339 0.985 . S
H1336 N1331 0.984 . S
H1337 N1331 0.985 . S
H1338 N1335 0.984 . S
H1339 N1335 0.985 . S
H1340 N1334 0.984 . S
H1341 N1334 0.984 . S
H1342 N1330 0.984 . S
H1343 N1330 0.985 . S
C1344 C1345 1.363 . S
C1344 C1350 1.379 . S
C1344 N1352 1.356 . S
C1345 C1344 1.363 . S
C1345 C1351 1.363 . S
C1346 C1347 1.363 . S
C1346 C1351 1.379 . S
C1346 N1353 1.356 . S
C1347 C1346 1.363 . S
C1347 C1350 1.363 . S
N1348 C1350 1.356 . S
N1348 H1360 0.984 . S
N1348 H1361 0.985 . S
N1349 C1351 1.356 . S
N1349 H1354 0.984 . S
N1349 H1355 0.985 . S
C1350 C1344 1.379 . S
C1350 C1347 1.363 . S
C1350 N1348 1.356 . S
C1351 C1345 1.363 . S
C1351 C1346 1.379 . S
C1351 N1349 1.356 . S
N1352 C1344 1.356 . S
N1352 H1358 0.984 . S
N1352 H1359 0.984 . S
N1353 C1346 1.356 . S
N1353 H1356 0.984 . S
N1353 H1357 0.985 . S
H1354 N1349 0.984 . S
H1355 N1349 0.985 . S
H1356 N1353 0.984 . S
H1357 N1353 0.985 . S
H1358 N1352 0.984 . S
H1359 N1352 0.984 . S
H1360 N1348 0.984 . S
H1361 N1348 0.985 . S
C1362 C1363 1.363 . S
C1362 C1368 1.379 . S
C1362 N1370 1.356 . S
C1363 C1362 1.363 . S
C1363 C1369 1.363 . S
C1364 C1365 1.363 . S
C1364 C1369 1.379 . S
C1364 N1371 1.356 . S
C1365 C1364 1.363 . S
C1365 C1368 1.363 . S
N1366 C1368 1.356 . S
N1366 H1378 0.984 . S
N1366 H1379 0.985 . S
N1367 C1369 1.356 . S
N1367 H1372 0.984 . S
N1367 H1373 0.985 . S
C1368 C1362 1.379 . S
C1368 C1365 1.363 . S
C1368 N1366 1.356 . S
C1369 C1363 1.363 . S
C1369 C1364 1.379 . S
C1369 N1367 1.356 . S
N1370 C1362 1.356 . S
N1370 H1376 0.984 . S
N1370 H1377 0.984 . S
N1371 C1364 1.356 . S
N1371 H1374 0.984 . S
N1371 H1375 0.985 . S
H1372 N1367 0.984 . S
H1373 N1367 0.985 . S
H1374 N1371 0.984 . S
H1375 N1371 0.985 . S
H1376 N1370 0.984 . S
H1377 N1370 0.984 . S
H1378 N1366 0.984 . S
H1379 N1366 0.985 . S
C1380 C1381 1.363 . S
C1380 C1386 1.379 . S
C1380 N1388 1.356 . S
C1381 C1380 1.363 . S
C1381 C1387 1.363 . S
C1382 C1383 1.363 . S
C1382 C1387 1.379 . S
C1382 N1389 1.356 . S
C1383 C1382 1.363 . S
C1383 C1386 1.363 . S
N1384 C1386 1.356 . S
N1384 H1396 0.984 . S
N1384 H1397 0.985 . S
N1385 C1387 1.356 . S
N1385 H1390 0.984 . S
N1385 H1391 0.985 . S
C1386 C1380 1.379 . S
C1386 C1383 1.363 . S
C1386 N1384 1.356 . S
C1387 C1381 1.363 . S
C1387 C1382 1.379 . S
C1387 N1385 1.356 . S
N1388 C1380 1.356 . S
N1388 H1394 0.984 . S
N1388 H1395 0.984 . S
N1389 C1382 1.356 . S
N1389 H1392 0.984 . S
N1389 H1393 0.985 . S
H1390 N1385 0.984 . S
H1391 N1385 0.985 . S
H1392 N1389 0.984 . S
H1393 N1389 0.985 . S
H1394 N1388 0.984 . S
H1395 N1388 0.984 . S
H1396 N1384 0.984 . S
H1397 N1384 0.985 . S
C1398 C1399 1.363 . S
C1398 C1404 1.379 . S
C1398 N1406 1.356 . S
C1399 C1398 1.363 . S
C1399 C1405 1.363 . S
C1400 C1401 1.363 . S
C1400 C1405 1.379 . S
C1400 N1407 1.356 . S
C1401 C1400 1.363 . S
C1401 C1404 1.363 . S
N1402 C1404 1.356 . S
N1402 H1414 0.984 . S
N1402 H1415 0.985 . S
N1403 C1405 1.356 . S
N1403 H1408 0.984 . S
N1403 H1409 0.985 . S
C1404 C1398 1.379 . S
C1404 C1401 1.363 . S
C1404 N1402 1.356 . S
C1405 C1399 1.363 . S
C1405 C1400 1.379 . S
C1405 N1403 1.356 . S
N1406 C1398 1.356 . S
N1406 H1412 0.984 . S
N1406 H1413 0.984 . S
N1407 C1400 1.356 . S
N1407 H1410 0.984 . S
N1407 H1411 0.985 . S
H1408 N1403 0.984 . S
H1409 N1403 0.985 . S
H1410 N1407 0.984 . S
H1411 N1407 0.985 . S
H1412 N1406 0.984 . S
H1413 N1406 0.984 . S
H1414 N1402 0.984 . S
H1415 N1402 0.985 . S
C1416 C1417 1.363 . S
C1416 C1422 1.379 . S
C1416 N1424 1.356 . S
C1417 C1416 1.363 . S
C1417 C1423 1.363 . S
C1418 C1419 1.363 . S
C1418 C1423 1.379 . S
C1418 N1425 1.356 . S
C1419 C1418 1.363 . S
C1419 C1422 1.363 . S
N1420 C1422 1.356 . S
N1420 H1432 0.984 . S
N1420 H1433 0.985 . S
N1421 C1423 1.356 . S
N1421 H1426 0.984 . S
N1421 H1427 0.985 . S
C1422 C1416 1.379 . S
C1422 C1419 1.363 . S
C1422 N1420 1.356 . S
C1423 C1417 1.363 . S
C1423 C1418 1.379 . S
C1423 N1421 1.356 . S
N1424 C1416 1.356 . S
N1424 H1430 0.984 . S
N1424 H1431 0.984 . S
N1425 C1418 1.356 . S
N1425 H1428 0.984 . S
N1425 H1429 0.985 . S
H1426 N1421 0.984 . S
H1427 N1421 0.985 . S
H1428 N1425 0.984 . S
H1429 N1425 0.985 . S
H1430 N1424 0.984 . S
H1431 N1424 0.984 . S
H1432 N1420 0.984 . S
H1433 N1420 0.985 . S
C1434 C1435 1.363 . S
C1434 C1440 1.379 . S
C1434 N1442 1.356 . S
C1435 C1434 1.363 . S
C1435 C1441 1.363 . S
C1436 C1437 1.363 . S
C1436 C1441 1.379 . S
C1436 N1443 1.356 . S
C1437 C1436 1.363 . S
C1437 C1440 1.363 . S
N1438 C1440 1.356 . S
N1438 H1450 0.984 . S
N1438 H1451 0.985 . S
N1439 C1441 1.356 . S
N1439 H1444 0.984 . S
N1439 H1445 0.985 . S
C1440 C1434 1.379 . S
C1440 C1437 1.363 . S
C1440 N1438 1.356 . S
C1441 C1435 1.363 . S
C1441 C1436 1.379 . S
C1441 N1439 1.356 . S
N1442 C1434 1.356 . S
N1442 H1448 0.984 . S
N1442 H1449 0.984 . S
N1443 C1436 1.356 . S
N1443 H1446 0.984 . S
N1443 H1447 0.985 . S
H1444 N1439 0.984 . S
H1445 N1439 0.985 . S
H1446 N1443 0.984 . S
H1447 N1443 0.985 . S
H1448 N1442 0.984 . S
H1449 N1442 0.984 . S
H1450 N1438 0.984 . S
H1451 N1438 0.985 . S
C1452 C1453 1.363 . S
C1452 C1458 1.379 . S
C1452 N1460 1.356 . S
C1453 C1452 1.363 . S
C1453 C1459 1.363 . S
C1454 C1455 1.363 . S
C1454 C1459 1.379 . S
C1454 N1461 1.356 . S
C1455 C1454 1.363 . S
C1455 C1458 1.363 . S
N1456 C1458 1.356 . S
N1456 H1468 0.984 . S
N1456 H1469 0.985 . S
N1457 C1459 1.356 . S
N1457 H1462 0.984 . S
N1457 H1463 0.985 . S
C1458 C1452 1.379 . S
C1458 C1455 1.363 . S
C1458 N1456 1.356 . S
C1459 C1453 1.363 . S
C1459 C1454 1.379 . S
C1459 N1457 1.356 . S
N1460 C1452 1.356 . S
N1460 H1466 0.984 . S
N1460 H1467 0.984 . S
N1461 C1454 1.356 . S
N1461 H1464 0.984 . S
N1461 H1465 0.985 . S
H1462 N1457 0.984 . S
H1463 N1457 0.985 . S
H1464 N1461 0.984 . S
H1465 N1461 0.985 . S
H1466 N1460 0.984 . S
H1467 N1460 0.984 . S
H1468 N1456 0.984 . S
H1469 N1456 0.985 . S
C1470 C1471 1.363 . S
C1470 C1476 1.379 . S
C1470 N1478 1.356 . S
C1471 C1470 1.363 . S
C1471 C1477 1.363 . S
C1472 C1473 1.363 . S
C1472 C1477 1.379 . S
C1472 N1479 1.356 . S
C1473 C1472 1.363 . S
C1473 C1476 1.363 . S
N1474 C1476 1.356 . S
N1474 H1486 0.984 . S
N1474 H1487 0.985 . S
N1475 C1477 1.356 . S
N1475 H1480 0.984 . S
N1475 H1481 0.985 . S
C1476 C1470 1.379 . S
C1476 C1473 1.363 . S
C1476 N1474 1.356 . S
C1477 C1471 1.363 . S
C1477 C1472 1.379 . S
C1477 N1475 1.356 . S
N1478 C1470 1.356 . S
N1478 H1484 0.984 . S
N1478 H1485 0.984 . S
N1479 C1472 1.356 . S
N1479 H1482 0.984 . S
N1479 H1483 0.985 . S
H1480 N1475 0.984 . S
H1481 N1475 0.985 . S
H1482 N1479 0.984 . S
H1483 N1479 0.985 . S
H1484 N1478 0.984 . S
H1485 N1478 0.984 . S
H1486 N1474 0.984 . S
H1487 N1474 0.985 . S
C1488 C1489 1.363 . S
C1488 C1494 1.379 . S
C1488 N1496 1.356 . S
C1489 C1488 1.363 . S
C1489 C1495 1.363 . S
C1490 C1491 1.363 . S
C1490 C1495 1.379 . S
C1490 N1497 1.356 . S
C1491 C1490 1.363 . S
C1491 C1494 1.363 . S
N1492 C1494 1.356 . S
N1492 H1504 0.984 . S
N1492 H1505 0.985 . S
N1493 C1495 1.356 . S
N1493 H1498 0.984 . S
N1493 H1499 0.985 . S
C1494 C1488 1.379 . S
C1494 C1491 1.363 . S
C1494 N1492 1.356 . S
C1495 C1489 1.363 . S
C1495 C1490 1.379 . S
C1495 N1493 1.356 . S
N1496 C1488 1.356 . S
N1496 H1502 0.984 . S
N1496 H1503 0.984 . S
N1497 C1490 1.356 . S
N1497 H1500 0.984 . S
N1497 H1501 0.985 . S
H1498 N1493 0.984 . S
H1499 N1493 0.985 . S
H1500 N1497 0.984 . S
H1501 N1497 0.985 . S
H1502 N1496 0.984 . S
H1503 N1496 0.984 . S
H1504 N1492 0.984 . S
H1505 N1492 0.985 . S
C1506 C1507 1.363 . S
C1506 C1512 1.379 . S
C1506 N1514 1.356 . S
C1507 C1506 1.363 . S
C1507 C1513 1.363 . S
C1508 C1509 1.363 . S
C1508 C1513 1.379 . S
C1508 N1515 1.356 . S
C1509 C1508 1.363 . S
C1509 C1512 1.363 . S
N1510 C1512 1.356 . S
N1510 H1522 0.984 . S
N1510 H1523 0.985 . S
N1511 C1513 1.356 . S
N1511 H1516 0.984 . S
N1511 H1517 0.985 . S
C1512 C1506 1.379 . S
C1512 C1509 1.363 . S
C1512 N1510 1.356 . S
C1513 C1507 1.363 . S
C1513 C1508 1.379 . S
C1513 N1511 1.356 . S
N1514 C1506 1.356 . S
N1514 H1520 0.984 . S
N1514 H1521 0.984 . S
N1515 C1508 1.356 . S
N1515 H1518 0.984 . S
N1515 H1519 0.985 . S
H1516 N1511 0.984 . S
H1517 N1511 0.985 . S
H1518 N1515 0.984 . S
H1519 N1515 0.985 . S
H1520 N1514 0.984 . S
H1521 N1514 0.984 . S
H1522 N1510 0.984 . S
H1523 N1510 0.985 . S
C1524 C1525 1.363 . S
C1524 C1530 1.379 . S
C1524 N1532 1.356 . S
C1525 C1524 1.363 . S
C1525 C1531 1.363 . S
C1526 C1527 1.363 . S
C1526 C1531 1.379 . S
C1526 N1533 1.356 . S
C1527 C1526 1.363 . S
C1527 C1530 1.363 . S
N1528 C1530 1.356 . S
N1528 H1540 0.984 . S
N1528 H1541 0.985 . S
N1529 C1531 1.356 . S
N1529 H1534 0.984 . S
N1529 H1535 0.985 . S
C1530 C1524 1.379 . S
C1530 C1527 1.363 . S
C1530 N1528 1.356 . S
C1531 C1525 1.363 . S
C1531 C1526 1.379 . S
C1531 N1529 1.356 . S
N1532 C1524 1.356 . S
N1532 H1538 0.984 . S
N1532 H1539 0.984 . S
N1533 C1526 1.356 . S
N1533 H1536 0.984 . S
N1533 H1537 0.985 . S
H1534 N1529 0.984 . S
H1535 N1529 0.985 . S
H1536 N1533 0.984 . S
H1537 N1533 0.985 . S
H1538 N1532 0.984 . S
H1539 N1532 0.984 . S
H1540 N1528 0.984 . S
H1541 N1528 0.985 . S
C1542 C1543 1.363 . S
C1542 C1548 1.379 . S
C1542 N1550 1.356 . S
C1543 C1542 1.363 . S
C1543 C1549 1.363 . S
C1544 C1545 1.363 . S
C1544 C1549 1.379 . S
C1544 N1551 1.356 . S
C1545 C1544 1.363 . S
C1545 C1548 1.363 . S
N1546 C1548 1.356 . S
N1546 H1558 0.984 . S
N1546 H1559 0.985 . S
N1547 C1549 1.356 . S
N1547 H1552 0.984 . S
N1547 H1553 0.985 . S
C1548 C1542 1.379 . S
C1548 C1545 1.363 . S
C1548 N1546 1.356 . S
C1549 C1543 1.363 . S
C1549 C1544 1.379 . S
C1549 N1547 1.356 . S
N1550 C1542 1.356 . S
N1550 H1556 0.984 . S
N1550 H1557 0.984 . S
N1551 C1544 1.356 . S
N1551 H1554 0.984 . S
N1551 H1555 0.985 . S
H1552 N1547 0.984 . S
H1553 N1547 0.985 . S
H1554 N1551 0.984 . S
H1555 N1551 0.985 . S
H1556 N1550 0.984 . S
H1557 N1550 0.984 . S
H1558 N1546 0.984 . S
H1559 N1546 0.985 . S
C1560 C1561 1.363 . S
C1560 C1566 1.379 . S
C1560 N1568 1.356 . S
C1561 C1560 1.363 . S
C1561 C1567 1.363 . S
C1562 C1563 1.363 . S
C1562 C1567 1.379 . S
C1562 N1569 1.356 . S
C1563 C1562 1.363 . S
C1563 C1566 1.363 . S
N1564 C1566 1.356 . S
N1564 H1576 0.984 . S
N1564 H1577 0.985 . S
N1565 C1567 1.356 . S
N1565 H1570 0.984 . S
N1565 H1571 0.985 . S
C1566 C1560 1.379 . S
C1566 C1563 1.363 . S
C1566 N1564 1.356 . S
C1567 C1561 1.363 . S
C1567 C1562 1.379 . S
C1567 N1565 1.356 . S
N1568 C1560 1.356 . S
N1568 H1574 0.984 . S
N1568 H1575 0.984 . S
N1569 C1562 1.356 . S
N1569 H1572 0.984 . S
N1569 H1573 0.985 . S
H1570 N1565 0.984 . S
H1571 N1565 0.985 . S
H1572 N1569 0.984 . S
H1573 N1569 0.985 . S
H1574 N1568 0.984 . S
H1575 N1568 0.984 . S
H1576 N1564 0.984 . S
H1577 N1564 0.985 . S
C1578 C1579 1.363 . S
C1578 C1584 1.379 . S
C1578 N1586 1.356 . S
C1579 C1578 1.363 . S
C1579 C1585 1.363 . S
C1580 C1581 1.363 . S
C1580 C1585 1.379 . S
C1580 N1587 1.356 . S
C1581 C1580 1.363 . S
C1581 C1584 1.363 . S
N1582 C1584 1.356 . S
N1582 H1594 0.984 . S
N1582 H1595 0.985 . S
N1583 C1585 1.356 . S
N1583 H1588 0.984 . S
N1583 H1589 0.985 . S
C1584 C1578 1.379 . S
C1584 C1581 1.363 . S
C1584 N1582 1.356 . S
C1585 C1579 1.363 . S
C1585 C1580 1.379 . S
C1585 N1583 1.356 . S
N1586 C1578 1.356 . S
N1586 H1592 0.984 . S
N1586 H1593 0.984 . S
N1587 C1580 1.356 . S
N1587 H1590 0.984 . S
N1587 H1591 0.985 . S
H1588 N1583 0.984 . S
H1589 N1583 0.985 . S
H1590 N1587 0.984 . S
H1591 N1587 0.985 . S
H1592 N1586 0.984 . S
H1593 N1586 0.984 . S
H1594 N1582 0.984 . S
H1595 N1582 0.985 . S
C1596 C1597 1.363 . S
C1596 C1602 1.379 . S
C1596 N1604 1.356 . S
C1597 C1596 1.363 . S
C1597 C1603 1.363 . S
C1598 C1599 1.363 . S
C1598 C1603 1.379 . S
C1598 N1605 1.356 . S
C1599 C1598 1.363 . S
C1599 C1602 1.363 . S
N1600 C1602 1.356 . S
N1600 H1612 0.984 . S
N1600 H1613 0.985 . S
N1601 C1603 1.356 . S
N1601 H1606 0.984 . S
N1601 H1607 0.985 . S
C1602 C1596 1.379 . S
C1602 C1599 1.363 . S
C1602 N1600 1.356 . S
C1603 C1597 1.363 . S
C1603 C1598 1.379 . S
C1603 N1601 1.356 . S
N1604 C1596 1.356 . S
N1604 H1610 0.984 . S
N1604 H1611 0.984 . S
N1605 C1598 1.356 . S
N1605 H1608 0.984 . S
N1605 H1609 0.985 . S
H1606 N1601 0.984 . S
H1607 N1601 0.985 . S
H1608 N1605 0.984 . S
H1609 N1605 0.985 . S
H1610 N1604 0.984 . S
H1611 N1604 0.984 . S
H1612 N1600 0.984 . S
H1613 N1600 0.985 . S
C1614 C1615 1.363 . S
C1614 C1620 1.379 . S
C1614 N1622 1.356 . S
C1615 C1614 1.363 . S
C1615 C1621 1.363 . S
C1616 C1617 1.363 . S
C1616 C1621 1.379 . S
C1616 N1623 1.356 . S
C1617 C1616 1.363 . S
C1617 C1620 1.363 . S
N1618 C1620 1.356 . S
N1618 H1630 0.984 . S
N1618 H1631 0.985 . S
N1619 C1621 1.356 . S
N1619 H1624 0.984 . S
N1619 H1625 0.985 . S
C1620 C1614 1.379 . S
C1620 C1617 1.363 . S
C1620 N1618 1.356 . S
C1621 C1615 1.363 . S
C1621 C1616 1.379 . S
C1621 N1619 1.356 . S
N1622 C1614 1.356 . S
N1622 H1628 0.984 . S
N1622 H1629 0.984 . S
N1623 C1616 1.356 . S
N1623 H1626 0.984 . S
N1623 H1627 0.985 . S
H1624 N1619 0.984 . S
H1625 N1619 0.985 . S
H1626 N1623 0.984 . S
H1627 N1623 0.985 . S
H1628 N1622 0.984 . S
H1629 N1622 0.984 . S
H1630 N1618 0.984 . S
H1631 N1618 0.985 . S
C1632 C1633 1.363 . S
C1632 C1638 1.379 . S
C1632 N1640 1.356 . S
C1633 C1632 1.363 . S
C1633 C1639 1.363 . S
C1634 C1635 1.363 . S
C1634 C1639 1.379 . S
C1634 N1641 1.356 . S
C1635 C1634 1.363 . S
C1635 C1638 1.363 . S
N1636 C1638 1.356 . S
N1636 H1648 0.984 . S
N1636 H1649 0.985 . S
N1637 C1639 1.356 . S
N1637 H1642 0.984 . S
N1637 H1643 0.985 . S
C1638 C1632 1.379 . S
C1638 C1635 1.363 . S
C1638 N1636 1.356 . S
C1639 C1633 1.363 . S
C1639 C1634 1.379 . S
C1639 N1637 1.356 . S
N1640 C1632 1.356 . S
N1640 H1646 0.984 . S
N1640 H1647 0.984 . S
N1641 C1634 1.356 . S
N1641 H1644 0.984 . S
N1641 H1645 0.985 . S
H1642 N1637 0.984 . S
H1643 N1637 0.985 . S
H1644 N1641 0.984 . S
H1645 N1641 0.985 . S
H1646 N1640 0.984 . S
H1647 N1640 0.984 . S
H1648 N1636 0.984 . S
H1649 N1636 0.985 . S
C1650 C1651 1.363 . S
C1650 C1656 1.379 . S
C1650 N1658 1.356 . S
C1651 C1650 1.363 . S
C1651 C1657 1.363 . S
C1652 C1653 1.363 . S
C1652 C1657 1.379 . S
C1652 N1659 1.356 . S
C1653 C1652 1.363 . S
C1653 C1656 1.363 . S
N1654 C1656 1.356 . S
N1654 H1666 0.984 . S
N1654 H1667 0.985 . S
N1655 C1657 1.356 . S
N1655 H1660 0.984 . S
N1655 H1661 0.985 . S
C1656 C1650 1.379 . S
C1656 C1653 1.363 . S
C1656 N1654 1.356 . S
C1657 C1651 1.363 . S
C1657 C1652 1.379 . S
C1657 N1655 1.356 . S
N1658 C1650 1.356 . S
N1658 H1664 0.984 . S
N1658 H1665 0.984 . S
N1659 C1652 1.356 . S
N1659 H1662 0.984 . S
N1659 H1663 0.985 . S
H1660 N1655 0.984 . S
H1661 N1655 0.985 . S
H1662 N1659 0.984 . S
H1663 N1659 0.985 . S
H1664 N1658 0.984 . S
H1665 N1658 0.984 . S
H1666 N1654 0.984 . S
H1667 N1654 0.985 . S
C1668 C1669 1.363 . S
C1668 C1674 1.379 . S
C1668 N1676 1.356 . S
C1669 C1668 1.363 . S
C1669 C1675 1.363 . S
C1670 C1671 1.363 . S
C1670 C1675 1.379 . S
C1670 N1677 1.356 . S
C1671 C1670 1.363 . S
C1671 C1674 1.363 . S
N1672 C1674 1.356 . S
N1672 H1684 0.984 . S
N1672 H1685 0.985 . S
N1673 C1675 1.356 . S
N1673 H1678 0.984 . S
N1673 H1679 0.985 . S
C1674 C1668 1.379 . S
C1674 C1671 1.363 . S
C1674 N1672 1.356 . S
C1675 C1669 1.363 . S
C1675 C1670 1.379 . S
C1675 N1673 1.356 . S
N1676 C1668 1.356 . S
N1676 H1682 0.984 . S
N1676 H1683 0.984 . S
N1677 C1670 1.356 . S
N1677 H1680 0.984 . S
N1677 H1681 0.985 . S
H1678 N1673 0.984 . S
H1679 N1673 0.985 . S
H1680 N1677 0.984 . S
H1681 N1677 0.985 . S
H1682 N1676 0.984 . S
H1683 N1676 0.984 . S
H1684 N1672 0.984 . S
H1685 N1672 0.985 . S
C1686 C1687 1.363 . S
C1686 C1692 1.379 . S
C1686 N1694 1.356 . S
C1687 C1686 1.363 . S
C1687 C1693 1.363 . S
C1688 C1689 1.363 . S
C1688 C1693 1.379 . S
C1688 N1695 1.356 . S
C1689 C1688 1.363 . S
C1689 C1692 1.363 . S
N1690 C1692 1.356 . S
N1690 H1702 0.984 . S
N1690 H1703 0.985 . S
N1691 C1693 1.356 . S
N1691 H1696 0.984 . S
N1691 H1697 0.985 . S
C1692 C1686 1.379 . S
C1692 C1689 1.363 . S
C1692 N1690 1.356 . S
C1693 C1687 1.363 . S
C1693 C1688 1.379 . S
C1693 N1691 1.356 . S
N1694 C1686 1.356 . S
N1694 H1700 0.984 . S
N1694 H1701 0.984 . S
N1695 C1688 1.356 . S
N1695 H1698 0.984 . S
N1695 H1699 0.985 . S
H1696 N1691 0.984 . S
H1697 N1691 0.985 . S
H1698 N1695 0.984 . S
H1699 N1695 0.985 . S
H1700 N1694 0.984 . S
H1701 N1694 0.984 . S
H1702 N1690 0.984 . S
H1703 N1690 0.985 . S
C1704 C1705 1.363 . S
C1704 C1710 1.379 . S
C1704 N1712 1.356 . S
C1705 C1704 1.363 . S
C1705 C1711 1.363 . S
C1706 C1707 1.363 . S
C1706 C1711 1.379 . S
C1706 N1713 1.356 . S
C1707 C1706 1.363 . S
C1707 C1710 1.363 . S
N1708 C1710 1.356 . S
N1708 H1720 0.984 . S
N1708 H1721 0.985 . S
N1709 C1711 1.356 . S
N1709 H1714 0.984 . S
N1709 H1715 0.985 . S
C1710 C1704 1.379 . S
C1710 C1707 1.363 . S
C1710 N1708 1.356 . S
C1711 C1705 1.363 . S
C1711 C1706 1.379 . S
C1711 N1709 1.356 . S
N1712 C1704 1.356 . S
N1712 H1718 0.984 . S
N1712 H1719 0.984 . S
N1713 C1706 1.356 . S
N1713 H1716 0.984 . S
N1713 H1717 0.985 . S
H1714 N1709 0.984 . S
H1715 N1709 0.985 . S
H1716 N1713 0.984 . S
H1717 N1713 0.985 . S
H1718 N1712 0.984 . S
H1719 N1712 0.984 . S
H1720 N1708 0.984 . S
H1721 N1708 0.985 . S
C1722 C1723 1.363 . S
C1722 C1728 1.379 . S
C1722 N1730 1.356 . S
C1723 C1722 1.363 . S
C1723 C1729 1.363 . S
C1724 C1725 1.363 . S
C1724 C1729 1.379 . S
C1724 N1731 1.356 . S
C1725 C1724 1.363 . S
C1725 C1728 1.363 . S
N1726 C1728 1.356 . S
N1726 H1738 0.984 . S
N1726 H1739 0.985 . S
N1727 C1729 1.356 . S
N1727 H1732 0.984 . S
N1727 H1733 0.985 . S
C1728 C1722 1.379 . S
C1728 C1725 1.363 . S
C1728 N1726 1.356 . S
C1729 C1723 1.363 . S
C1729 C1724 1.379 . S
C1729 N1727 1.356 . S
N1730 C1722 1.356 . S
N1730 H1736 0.984 . S
N1730 H1737 0.984 . S
N1731 C1724 1.356 . S
N1731 H1734 0.984 . S
N1731 H1735 0.985 . S
H1732 N1727 0.984 . S
H1733 N1727 0.985 . S
H1734 N1731 0.984 . S
H1735 N1731 0.985 . S
H1736 N1730 0.984 . S
H1737 N1730 0.984 . S
H1738 N1726 0.984 . S
H1739 N1726 0.985 . S
C1740 C1741 1.363 . S
C1740 C1746 1.379 . S
C1740 N1748 1.356 . S
C1741 C1740 1.363 . S
C1741 C1747 1.363 . S
C1742 C1743 1.363 . S
C1742 C1747 1.379 . S
C1742 N1749 1.356 . S
C1743 C1742 1.363 . S
C1743 C1746 1.363 . S
N1744 C1746 1.356 . S
N1744 H1756 0.984 . S
N1744 H1757 0.985 . S
N1745 C1747 1.356 . S
N1745 H1750 0.984 . S
N1745 H1751 0.985 . S
C1746 C1740 1.379 . S
C1746 C1743 1.363 . S
C1746 N1744 1.356 . S
C1747 C1741 1.363 . S
C1747 C1742 1.379 . S
C1747 N1745 1.356 . S
N1748 C1740 1.356 . S
N1748 H1754 0.984 . S
N1748 H1755 0.984 . S
N1749 C1742 1.356 . S
N1749 H1752 0.984 . S
N1749 H1753 0.985 . S
H1750 N1745 0.984 . S
H1751 N1745 0.985 . S
H1752 N1749 0.984 . S
H1753 N1749 0.985 . S
H1754 N1748 0.984 . S
H1755 N1748 0.984 . S
H1756 N1744 0.984 . S
H1757 N1744 0.985 . S
C1758 C1759 1.363 . S
C1758 C1764 1.379 . S
C1758 N1766 1.356 . S
C1759 C1758 1.363 . S
C1759 C1765 1.363 . S
C1760 C1761 1.363 . S
C1760 C1765 1.379 . S
C1760 N1767 1.356 . S
C1761 C1760 1.363 . S
C1761 C1764 1.363 . S
N1762 C1764 1.356 . S
N1762 H1774 0.984 . S
N1762 H1775 0.985 . S
N1763 C1765 1.356 . S
N1763 H1768 0.984 . S
N1763 H1769 0.985 . S
C1764 C1758 1.379 . S
C1764 C1761 1.363 . S
C1764 N1762 1.356 . S
C1765 C1759 1.363 . S
C1765 C1760 1.379 . S
C1765 N1763 1.356 . S
N1766 C1758 1.356 . S
N1766 H1772 0.984 . S
N1766 H1773 0.984 . S
N1767 C1760 1.356 . S
N1767 H1770 0.984 . S
N1767 H1771 0.985 . S
H1768 N1763 0.984 . S
H1769 N1763 0.985 . S
H1770 N1767 0.984 . S
H1771 N1767 0.985 . S
H1772 N1766 0.984 . S
H1773 N1766 0.984 . S
H1774 N1762 0.984 . S
H1775 N1762 0.985 . S
C1776 C1777 1.363 . S
C1776 C1782 1.379 . S
C1776 N1784 1.356 . S
C1777 C1776 1.363 . S
C1777 C1783 1.363 . S
C1778 C1779 1.363 . S
C1778 C1783 1.379 . S
C1778 N1785 1.356 . S
C1779 C1778 1.363 . S
C1779 C1782 1.363 . S
N1780 C1782 1.356 . S
N1780 H1792 0.984 . S
N1780 H1793 0.985 . S
N1781 C1783 1.356 . S
N1781 H1786 0.984 . S
N1781 H1787 0.985 . S
C1782 C1776 1.379 . S
C1782 C1779 1.363 . S
C1782 N1780 1.356 . S
C1783 C1777 1.363 . S
C1783 C1778 1.379 . S
C1783 N1781 1.356 . S
N1784 C1776 1.356 . S
N1784 H1790 0.984 . S
N1784 H1791 0.984 . S
N1785 C1778 1.356 . S
N1785 H1788 0.984 . S
N1785 H1789 0.985 . S
H1786 N1781 0.984 . S
H1787 N1781 0.985 . S
H1788 N1785 0.984 . S
H1789 N1785 0.985 . S
H1790 N1784 0.984 . S
H1791 N1784 0.984 . S
H1792 N1780 0.984 . S
H1793 N1780 0.985 . S
C1794 C1795 1.363 . S
C1794 C1800 1.379 . S
C1794 N1802 1.356 . S
C1795 C1794 1.363 . S
C1795 C1801 1.363 . S
C1796 C1797 1.363 . S
C1796 C1801 1.379 . S
C1796 N1803 1.356 . S
C1797 C1796 1.363 . S
C1797 C1800 1.363 . S
N1798 C1800 1.356 . S
N1798 H1810 0.984 . S
N1798 H1811 0.985 . S
N1799 C1801 1.356 . S
N1799 H1804 0.984 . S
N1799 H1805 0.985 . S
C1800 C1794 1.379 . S
C1800 C1797 1.363 . S
C1800 N1798 1.356 . S
C1801 C1795 1.363 . S
C1801 C1796 1.379 . S
C1801 N1799 1.356 . S
N1802 C1794 1.356 . S
N1802 H1808 0.984 . S
N1802 H1809 0.984 . S
N1803 C1796 1.356 . S
N1803 H1806 0.984 . S
N1803 H1807 0.985 . S
H1804 N1799 0.984 . S
H1805 N1799 0.985 . S
H1806 N1803 0.984 . S
H1807 N1803 0.985 . S
H1808 N1802 0.984 . S
H1809 N1802 0.984 . S
H1810 N1798 0.984 . S
H1811 N1798 0.985 . S
C1812 C1813 1.363 . S
C1812 C1818 1.379 . S
C1812 N1820 1.356 . S
C1813 C1812 1.363 . S
C1813 C1819 1.363 . S
C1814 C1815 1.363 . S
C1814 C1819 1.379 . S
C1814 N1821 1.356 . S
C1815 C1814 1.363 . S
C1815 C1818 1.363 . S
N1816 C1818 1.356 . S
N1816 H1828 0.984 . S
N1816 H1829 0.985 . S
N1817 C1819 1.356 . S
N1817 H1822 0.984 . S
N1817 H1823 0.985 . S
C1818 C1812 1.379 . S
C1818 C1815 1.363 . S
C1818 N1816 1.356 . S
C1819 C1813 1.363 . S
C1819 C1814 1.379 . S
C1819 N1817 1.356 . S
N1820 C1812 1.356 . S
N1820 H1826 0.984 . S
N1820 H1827 0.984 . S
N1821 C1814 1.356 . S
N1821 H1824 0.984 . S
N1821 H1825 0.985 . S
H1822 N1817 0.984 . S
H1823 N1817 0.985 . S
H1824 N1821 0.984 . S
H1825 N1821 0.985 . S
H1826 N1820 0.984 . S
H1827 N1820 0.984 . S
H1828 N1816 0.984 . S
H1829 N1816 0.985 . S
C1830 C1831 1.363 . S
C1830 C1836 1.379 . S
C1830 N1838 1.356 . S
C1831 C1830 1.363 . S
C1831 C1837 1.363 . S
C1832 C1833 1.363 . S
C1832 C1837 1.379 . S
C1832 N1839 1.356 . S
C1833 C1832 1.363 . S
C1833 C1836 1.363 . S
N1834 C1836 1.356 . S
N1834 H1846 0.984 . S
N1834 H1847 0.985 . S
N1835 C1837 1.356 . S
N1835 H1840 0.984 . S
N1835 H1841 0.985 . S
C1836 C1830 1.379 . S
C1836 C1833 1.363 . S
C1836 N1834 1.356 . S
C1837 C1831 1.363 . S
C1837 C1832 1.379 . S
C1837 N1835 1.356 . S
N1838 C1830 1.356 . S
N1838 H1844 0.984 . S
N1838 H1845 0.984 . S
N1839 C1832 1.356 . S
N1839 H1842 0.984 . S
N1839 H1843 0.985 . S
H1840 N1835 0.984 . S
H1841 N1835 0.985 . S
H1842 N1839 0.984 . S
H1843 N1839 0.985 . S
H1844 N1838 0.984 . S
H1845 N1838 0.984 . S
H1846 N1834 0.984 . S
H1847 N1834 0.985 . S
C1848 C1849 1.363 . S
C1848 C1854 1.379 . S
C1848 N1856 1.356 . S
C1849 C1848 1.363 . S
C1849 C1855 1.363 . S
C1850 C1851 1.363 . S
C1850 C1855 1.379 . S
C1850 N1857 1.356 . S
C1851 C1850 1.363 . S
C1851 C1854 1.363 . S
N1852 C1854 1.356 . S
N1852 H1864 0.984 . S
N1852 H1865 0.985 . S
N1853 C1855 1.356 . S
N1853 H1858 0.984 . S
N1853 H1859 0.985 . S
C1854 C1848 1.379 . S
C1854 C1851 1.363 . S
C1854 N1852 1.356 . S
C1855 C1849 1.363 . S
C1855 C1850 1.379 . S
C1855 N1853 1.356 . S
N1856 C1848 1.356 . S
N1856 H1862 0.984 . S
N1856 H1863 0.984 . S
N1857 C1850 1.356 . S
N1857 H1860 0.984 . S
N1857 H1861 0.985 . S
H1858 N1853 0.984 . S
H1859 N1853 0.985 . S
H1860 N1857 0.984 . S
H1861 N1857 0.985 . S
H1862 N1856 0.984 . S
H1863 N1856 0.984 . S
H1864 N1852 0.984 . S
H1865 N1852 0.985 . S
C1866 C1867 1.363 . S
C1866 C1872 1.379 . S
C1866 N1874 1.356 . S
C1867 C1866 1.363 . S
C1867 C1873 1.363 . S
C1868 C1869 1.363 . S
C1868 C1873 1.379 . S
C1868 N1875 1.356 . S
C1869 C1868 1.363 . S
C1869 C1872 1.363 . S
N1870 C1872 1.356 . S
N1870 H1882 0.984 . S
N1870 H1883 0.985 . S
N1871 C1873 1.356 . S
N1871 H1876 0.984 . S
N1871 H1877 0.985 . S
C1872 C1866 1.379 . S
C1872 C1869 1.363 . S
C1872 N1870 1.356 . S
C1873 C1867 1.363 . S
C1873 C1868 1.379 . S
C1873 N1871 1.356 . S
N1874 C1866 1.356 . S
N1874 H1880 0.984 . S
N1874 H1881 0.984 . S
N1875 C1868 1.356 . S
N1875 H1878 0.984 . S
N1875 H1879 0.985 . S
H1876 N1871 0.984 . S
H1877 N1871 0.985 . S
H1878 N1875 0.984 . S
H1879 N1875 0.985 . S
H1880 N1874 0.984 . S
H1881 N1874 0.984 . S
H1882 N1870 0.984 . S
H1883 N1870 0.985 . S
C1884 C1885 1.363 . S
C1884 C1890 1.379 . S
C1884 N1892 1.356 . S
C1885 C1884 1.363 . S
C1885 C1891 1.363 . S
C1886 C1887 1.363 . S
C1886 C1891 1.379 . S
C1886 N1893 1.356 . S
C1887 C1886 1.363 . S
C1887 C1890 1.363 . S
N1888 C1890 1.356 . S
N1888 H1900 0.984 . S
N1888 H1901 0.985 . S
N1889 C1891 1.356 . S
N1889 H1894 0.984 . S
N1889 H1895 0.985 . S
C1890 C1884 1.379 . S
C1890 C1887 1.363 . S
C1890 N1888 1.356 . S
C1891 C1885 1.363 . S
C1891 C1886 1.379 . S
C1891 N1889 1.356 . S
N1892 C1884 1.356 . S
N1892 H1898 0.984 . S
N1892 H1899 0.984 . S
N1893 C1886 1.356 . S
N1893 H1896 0.984 . S
N1893 H1897 0.985 . S
H1894 N1889 0.984 . S
H1895 N1889 0.985 . S
H1896 N1893 0.984 . S
H1897 N1893 0.985 . S
H1898 N1892 0.984 . S
H1899 N1892 0.984 . S
H1900 N1888 0.984 . S
H1901 N1888 0.985 . S
C1902 C1903 1.363 . S
C1902 C1908 1.379 . S
C1902 N1910 1.356 . S
C1903 C1902 1.363 . S
C1903 C1909 1.363 . S
C1904 C1905 1.363 . S
C1904 C1909 1.379 . S
C1904 N1911 1.356 . S
C1905 C1904 1.363 . S
C1905 C1908 1.363 . S
N1906 C1908 1.356 . S
N1906 H1918 0.984 . S
N1906 H1919 0.985 . S
N1907 C1909 1.356 . S
N1907 H1912 0.984 . S
N1907 H1913 0.985 . S
C1908 C1902 1.379 . S
C1908 C1905 1.363 . S
C1908 N1906 1.356 . S
C1909 C1903 1.363 . S
C1909 C1904 1.379 . S
C1909 N1907 1.356 . S
N1910 C1902 1.356 . S
N1910 H1916 0.984 . S
N1910 H1917 0.984 . S
N1911 C1904 1.356 . S
N1911 H1914 0.984 . S
N1911 H1915 0.985 . S
H1912 N1907 0.984 . S
H1913 N1907 0.985 . S
H1914 N1911 0.984 . S
H1915 N1911 0.985 . S
H1916 N1910 0.984 . S
H1917 N1910 0.984 . S
H1918 N1906 0.984 . S
H1919 N1906 0.985 . S
C1920 C1921 1.363 . S
C1920 C1926 1.379 . S
C1920 N1928 1.356 . S
C1921 C1920 1.363 . S
C1921 C1927 1.363 . S
C1922 C1923 1.363 . S
C1922 C1927 1.379 . S
C1922 N1929 1.356 . S
C1923 C1922 1.363 . S
C1923 C1926 1.363 . S
N1924 C1926 1.356 . S
N1924 H1936 0.984 . S
N1924 H1937 0.985 . S
N1925 C1927 1.356 . S
N1925 H1930 0.984 . S
N1925 H1931 0.985 . S
C1926 C1920 1.379 . S
C1926 C1923 1.363 . S
C1926 N1924 1.356 . S
C1927 C1921 1.363 . S
C1927 C1922 1.379 . S
C1927 N1925 1.356 . S
N1928 C1920 1.356 . S
N1928 H1934 0.984 . S
N1928 H1935 0.984 . S
N1929 C1922 1.356 . S
N1929 H1932 0.984 . S
N1929 H1933 0.985 . S
H1930 N1925 0.984 . S
H1931 N1925 0.985 . S
H1932 N1929 0.984 . S
H1933 N1929 0.985 . S
H1934 N1928 0.984 . S
H1935 N1928 0.984 . S
H1936 N1924 0.984 . S
H1937 N1924 0.985 . S
C1938 C1939 1.363 . S
C1938 C1944 1.379 . S
C1938 N1946 1.356 . S
C1939 C1938 1.363 . S
C1939 C1945 1.363 . S
C1940 C1941 1.363 . S
C1940 C1945 1.379 . S
C1940 N1947 1.356 . S
C1941 C1940 1.363 . S
C1941 C1944 1.363 . S
N1942 C1944 1.356 . S
N1942 H1954 0.984 . S
N1942 H1955 0.985 . S
N1943 C1945 1.356 . S
N1943 H1948 0.984 . S
N1943 H1949 0.985 . S
C1944 C1938 1.379 . S
C1944 C1941 1.363 . S
C1944 N1942 1.356 . S
C1945 C1939 1.363 . S
C1945 C1940 1.379 . S
C1945 N1943 1.356 . S
N1946 C1938 1.356 . S
N1946 H1952 0.984 . S
N1946 H1953 0.984 . S
N1947 C1940 1.356 . S
N1947 H1950 0.984 . S
N1947 H1951 0.985 . S
H1948 N1943 0.984 . S
H1949 N1943 0.985 . S
H1950 N1947 0.984 . S
H1951 N1947 0.985 . S
H1952 N1946 0.984 . S
H1953 N1946 0.984 . S
H1954 N1942 0.984 . S
H1955 N1942 0.985 . S
C1956 C1957 1.363 . S
C1956 C1962 1.379 . S
C1956 N1964 1.356 . S
C1957 C1956 1.363 . S
C1957 C1963 1.363 . S
C1958 C1959 1.363 . S
C1958 C1963 1.379 . S
C1958 N1965 1.356 . S
C1959 C1958 1.363 . S
C1959 C1962 1.363 . S
N1960 C1962 1.356 . S
N1960 H1972 0.984 . S
N1960 H1973 0.985 . S
N1961 C1963 1.356 . S
N1961 H1966 0.984 . S
N1961 H1967 0.985 . S
C1962 C1956 1.379 . S
C1962 C1959 1.363 . S
C1962 N1960 1.356 . S
C1963 C1957 1.363 . S
C1963 C1958 1.379 . S
C1963 N1961 1.356 . S
N1964 C1956 1.356 . S
N1964 H1970 0.984 . S
N1964 H1971 0.984 . S
N1965 C1958 1.356 . S
N1965 H1968 0.984 . S
N1965 H1969 0.985 . S
H1966 N1961 0.984 . S
H1967 N1961 0.985 . S
H1968 N1965 0.984 . S
H1969 N1965 0.985 . S
H1970 N1964 0.984 . S
H1971 N1964 0.984 . S
H1972 N1960 0.984 . S
H1973 N1960 0.985 . S
C1974 C1975 1.363 . S
C1974 C1980 1.379 . S
C1974 N1982 1.356 . S
C1975 C1974 1.363 . S
C1975 C1981 1.363 . S
C1976 C1977 1.363 . S
C1976 C1981 1.379 . S
C1976 N1983 1.356 . S
C1977 C1976 1.363 . S
C1977 C1980 1.363 . S
N1978 C1980 1.356 . S
N1978 H1990 0.984 . S
N1978 H1991 0.985 . S
N1979 C1981 1.356 . S
N1979 H1984 0.984 . S
N1979 H1985 0.985 . S
C1980 C1974 1.379 . S
C1980 C1977 1.363 . S
C1980 N1978 1.356 . S
C1981 C1975 1.363 . S
C1981 C1976 1.379 . S
C1981 N1979 1.356 . S
N1982 C1974 1.356 . S
N1982 H1988 0.984 . S
N1982 H1989 0.984 . S
N1983 C1976 1.356 . S
N1983 H1986 0.984 . S
N1983 H1987 0.985 . S
H1984 N1979 0.984 . S
H1985 N1979 0.985 . S
H1986 N1983 0.984 . S
H1987 N1983 0.985 . S
H1988 N1982 0.984 . S
H1989 N1982 0.984 . S
H1990 N1978 0.984 . S
H1991 N1978 0.985 . S
C1992 C1993 1.363 . S
C1992 C1998 1.379 . S
C1992 N2000 1.356 . S
C1993 C1992 1.363 . S
C1993 C1999 1.363 . S
C1994 C1995 1.363 . S
C1994 C1999 1.379 . S
C1994 N2001 1.356 . S
C1995 C1994 1.363 . S
C1995 C1998 1.363 . S
N1996 C1998 1.356 . S
N1996 H2008 0.984 . S
N1996 H2009 0.985 . S
N1997 C1999 1.356 . S
N1997 H2002 0.984 . S
N1997 H2003 0.985 . S
C1998 C1992 1.379 . S
C1998 C1995 1.363 . S
C1998 N1996 1.356 . S
C1999 C1993 1.363 . S
C1999 C1994 1.379 . S
C1999 N1997 1.356 . S
N2000 C1992 1.356 . S
N2000 H2006 0.984 . S
N2000 H2007 0.984 . S
N2001 C1994 1.356 . S
N2001 H2004 0.984 . S
N2001 H2005 0.985 . S
H2002 N1997 0.984 . S
H2003 N1997 0.985 . S
H2004 N2001 0.984 . S
H2005 N2001 0.985 . S
H2006 N2000 0.984 . S
H2007 N2000 0.984 . S
H2008 N1996 0.984 . S
H2009 N1996 0.985 . S
C2010 C2011 1.363 . S
C2010 C2016 1.379 . S
C2010 N2018 1.356 . S
C2011 C2010 1.363 . S
C2011 C2017 1.363 . S
C2012 C2013 1.363 . S
C2012 C2017 1.379 . S
C2012 N2019 1.356 . S
C2013 C2012 1.363 . S
C2013 C2016 1.363 . S
N2014 C2016 1.356 . S
N2014 H2026 0.984 . S
N2014 H2027 0.985 . S
N2015 C2017 1.356 . S
N2015 H2020 0.984 . S
N2015 H2021 0.985 . S
C2016 C2010 1.379 . S
C2016 C2013 1.363 . S
C2016 N2014 1.356 . S
C2017 C2011 1.363 . S
C2017 C2012 1.379 . S
C2017 N2015 1.356 . S
N2018 C2010 1.356 . S
N2018 H2024 0.984 . S
N2018 H2025 0.984 . S
N2019 C2012 1.356 . S
N2019 H2022 0.984 . S
N2019 H2023 0.985 . S
H2020 N2015 0.984 . S
H2021 N2015 0.985 . S
H2022 N2019 0.984 . S
H2023 N2019 0.985 . S
H2024 N2018 0.984 . S
H2025 N2018 0.984 . S
H2026 N2014 0.984 . S
H2027 N2014 0.985 . S
C2028 C2029 1.363 . S
C2028 C2034 1.379 . S
C2028 N2036 1.356 . S
C2029 C2028 1.363 . S
C2029 C2035 1.363 . S
C2030 C2031 1.363 . S
C2030 C2035 1.379 . S
C2030 N2037 1.356 . S
C2031 C2030 1.363 . S
C2031 C2034 1.363 . S
N2032 C2034 1.356 . S
N2032 H2044 0.984 . S
N2032 H2045 0.985 . S
N2033 C2035 1.356 . S
N2033 H2038 0.984 . S
N2033 H2039 0.985 . S
C2034 C2028 1.379 . S
C2034 C2031 1.363 . S
C2034 N2032 1.356 . S
C2035 C2029 1.363 . S
C2035 C2030 1.379 . S
C2035 N2033 1.356 . S
N2036 C2028 1.356 . S
N2036 H2042 0.984 . S
N2036 H2043 0.984 . S
N2037 C2030 1.356 . S
N2037 H2040 0.984 . S
N2037 H2041 0.985 . S
H2038 N2033 0.984 . S
H2039 N2033 0.985 . S
H2040 N2037 0.984 . S
H2041 N2037 0.985 . S
H2042 N2036 0.984 . S
H2043 N2036 0.984 . S
H2044 N2032 0.984 . S
H2045 N2032 0.985 . S
C2046 C2047 1.363 . S
C2046 C2052 1.379 . S
C2046 N2054 1.356 . S
C2047 C2046 1.363 . S
C2047 C2053 1.363 . S
C2048 C2049 1.363 . S
C2048 C2053 1.379 . S
C2048 N2055 1.356 . S
C2049 C2048 1.363 . S
C2049 C2052 1.363 . S
N2050 C2052 1.356 . S
N2050 H2062 0.984 . S
N2050 H2063 0.985 . S
N2051 C2053 1.356 . S
N2051 H2056 0.984 . S
N2051 H2057 0.985 . S
C2052 C2046 1.379 . S
C2052 C2049 1.363 . S
C2052 N2050 1.356 . S
C2053 C2047 1.363 . S
C2053 C2048 1.379 . S
C2053 N2051 1.356 . S
N2054 C2046 1.356 . S
N2054 H2060 0.984 . S
N2054 H2061 0.984 . S
N2055 C2048 1.356 . S
N2055 H2058 0.984 . S
N2055 H2059 0.985 . S
H2056 N2051 0.984 . S
H2057 N2051 0.985 . S
H2058 N2055 0.984 . S
H2059 N2055 0.985 . S
H2060 N2054 0.984 . S
H2061 N2054 0.984 . S
H2062 N2050 0.984 . S
H2063 N2050 0.985 . S
C2064 C2065 1.363 . S
C2064 C2070 1.379 . S
C2064 N2072 1.356 . S
C2065 C2064 1.363 . S
C2065 C2071 1.363 . S
C2066 C2067 1.363 . S
C2066 C2071 1.379 . S
C2066 N2073 1.356 . S
C2067 C2066 1.363 . S
C2067 C2070 1.363 . S
N2068 C2070 1.356 . S
N2068 H2080 0.984 . S
N2068 H2081 0.985 . S
N2069 C2071 1.356 . S
N2069 H2074 0.984 . S
N2069 H2075 0.985 . S
C2070 C2064 1.379 . S
C2070 C2067 1.363 . S
C2070 N2068 1.356 . S
C2071 C2065 1.363 . S
C2071 C2066 1.379 . S
C2071 N2069 1.356 . S
N2072 C2064 1.356 . S
N2072 H2078 0.984 . S
N2072 H2079 0.984 . S
N2073 C2066 1.356 . S
N2073 H2076 0.984 . S
N2073 H2077 0.985 . S
H2074 N2069 0.984 . S
H2075 N2069 0.985 . S
H2076 N2073 0.984 . S
H2077 N2073 0.985 . S
H2078 N2072 0.984 . S
H2079 N2072 0.984 . S
H2080 N2068 0.984 . S
H2081 N2068 0.985 . S
C2082 C2083 1.363 . S
C2082 C2088 1.379 . S
C2082 N2090 1.356 . S
C2083 C2082 1.363 . S
C2083 C2089 1.363 . S
C2084 C2085 1.363 . S
C2084 C2089 1.379 . S
C2084 N2091 1.356 . S
C2085 C2084 1.363 . S
C2085 C2088 1.363 . S
N2086 C2088 1.356 . S
N2086 H2098 0.984 . S
N2086 H2099 0.985 . S
N2087 C2089 1.356 . S
N2087 H2092 0.984 . S
N2087 H2093 0.985 . S
C2088 C2082 1.379 . S
C2088 C2085 1.363 . S
C2088 N2086 1.356 . S
C2089 C2083 1.363 . S
C2089 C2084 1.379 . S
C2089 N2087 1.356 . S
N2090 C2082 1.356 . S
N2090 H2096 0.984 . S
N2090 H2097 0.984 . S
N2091 C2084 1.356 . S
N2091 H2094 0.984 . S
N2091 H2095 0.985 . S
H2092 N2087 0.984 . S
H2093 N2087 0.985 . S
H2094 N2091 0.984 . S
H2095 N2091 0.985 . S
H2096 N2090 0.984 . S
H2097 N2090 0.984 . S
H2098 N2086 0.984 . S
H2099 N2086 0.985 . S
C2100 C2101 1.363 . S
C2100 C2106 1.379 . S
C2100 N2108 1.356 . S
C2101 C2100 1.363 . S
C2101 C2107 1.363 . S
C2102 C2103 1.363 . S
C2102 C2107 1.379 . S
C2102 N2109 1.356 . S
C2103 C2102 1.363 . S
C2103 C2106 1.363 . S
N2104 C2106 1.356 . S
N2104 H2116 0.984 . S
N2104 H2117 0.985 . S
N2105 C2107 1.356 . S
N2105 H2110 0.984 . S
N2105 H2111 0.985 . S
C2106 C2100 1.379 . S
C2106 C2103 1.363 . S
C2106 N2104 1.356 . S
C2107 C2101 1.363 . S
C2107 C2102 1.379 . S
C2107 N2105 1.356 . S
N2108 C2100 1.356 . S
N2108 H2114 0.984 . S
N2108 H2115 0.984 . S
N2109 C2102 1.356 . S
N2109 H2112 0.984 . S
N2109 H2113 0.985 . S
H2110 N2105 0.984 . S
H2111 N2105 0.985 . S
H2112 N2109 0.984 . S
H2113 N2109 0.985 . S
H2114 N2108 0.984 . S
H2115 N2108 0.984 . S
H2116 N2104 0.984 . S
H2117 N2104 0.985 . S
C2118 C2119 1.363 . S
C2118 C2124 1.379 . S
C2118 N2126 1.356 . S
C2119 C2118 1.363 . S
C2119 C2125 1.363 . S
C2120 C2121 1.363 . S
C2120 C2125 1.379 . S
C2120 N2127 1.356 . S
C2121 C2120 1.363 . S
C2121 C2124 1.363 . S
N2122 C2124 1.356 . S
N2122 H2134 0.984 . S
N2122 H2135 0.985 . S
N2123 C2125 1.356 . S
N2123 H2128 0.984 . S
N2123 H2129 0.985 . S
C2124 C2118 1.379 . S
C2124 C2121 1.363 . S
C2124 N2122 1.356 . S
C2125 C2119 1.363 . S
C2125 C2120 1.379 . S
C2125 N2123 1.356 . S
N2126 C2118 1.356 . S
N2126 H2132 0.984 . S
N2126 H2133 0.984 . S
N2127 C2120 1.356 . S
N2127 H2130 0.984 . S
N2127 H2131 0.985 . S
H2128 N2123 0.984 . S
H2129 N2123 0.985 . S
H2130 N2127 0.984 . S
H2131 N2127 0.985 . S
H2132 N2126 0.984 . S
H2133 N2126 0.984 . S
H2134 N2122 0.984 . S
H2135 N2122 0.985 . S
C2136 C2137 1.363 . S
C2136 C2142 1.379 . S
C2136 N2144 1.356 . S
C2137 C2136 1.363 . S
C2137 C2143 1.363 . S
C2138 C2139 1.363 . S
C2138 C2143 1.379 . S
C2138 N2145 1.356 . S
C2139 C2138 1.363 . S
C2139 C2142 1.363 . S
N2140 C2142 1.356 . S
N2140 H2152 0.984 . S
N2140 H2153 0.985 . S
N2141 C2143 1.356 . S
N2141 H2146 0.984 . S
N2141 H2147 0.985 . S
C2142 C2136 1.379 . S
C2142 C2139 1.363 . S
C2142 N2140 1.356 . S
C2143 C2137 1.363 . S
C2143 C2138 1.379 . S
C2143 N2141 1.356 . S
N2144 C2136 1.356 . S
N2144 H2150 0.984 . S
N2144 H2151 0.984 . S
N2145 C2138 1.356 . S
N2145 H2148 0.984 . S
N2145 H2149 0.985 . S
H2146 N2141 0.984 . S
H2147 N2141 0.985 . S
H2148 N2145 0.984 . S
H2149 N2145 0.985 . S
H2150 N2144 0.984 . S
H2151 N2144 0.984 . S
H2152 N2140 0.984 . S
H2153 N2140 0.985 . S
C2154 C2155 1.363 . S
C2154 C2160 1.379 . S
C2154 N2162 1.356 . S
C2155 C2154 1.363 . S
C2155 C2161 1.363 . S
C2156 C2157 1.363 . S
C2156 C2161 1.379 . S
C2156 N2163 1.356 . S
C2157 C2156 1.363 . S
C2157 C2160 1.363 . S
N2158 C2160 1.356 . S
N2158 H2170 0.984 . S
N2158 H2171 0.985 . S
N2159 C2161 1.356 . S
N2159 H2164 0.984 . S
N2159 H2165 0.985 . S
C2160 C2154 1.379 . S
C2160 C2157 1.363 . S
C2160 N2158 1.356 . S
C2161 C2155 1.363 . S
C2161 C2156 1.379 . S
C2161 N2159 1.356 . S
N2162 C2154 1.356 . S
N2162 H2168 0.984 . S
N2162 H2169 0.984 . S
N2163 C2156 1.356 . S
N2163 H2166 0.984 . S
N2163 H2167 0.985 . S
H2164 N2159 0.984 . S
H2165 N2159 0.985 . S
H2166 N2163 0.984 . S
H2167 N2163 0.985 . S
H2168 N2162 0.984 . S
H2169 N2162 0.984 . S
H2170 N2158 0.984 . S
H2171 N2158 0.985 . S
C2172 C2173 1.363 . S
C2172 C2178 1.379 . S
C2172 N2180 1.356 . S
C2173 C2172 1.363 . S
C2173 C2179 1.363 . S
C2174 C2175 1.363 . S
C2174 C2179 1.379 . S
C2174 N2181 1.356 . S
C2175 C2174 1.363 . S
C2175 C2178 1.363 . S
N2176 C2178 1.356 . S
N2176 H2188 0.984 . S
N2176 H2189 0.985 . S
N2177 C2179 1.356 . S
N2177 H2182 0.984 . S
N2177 H2183 0.985 . S
C2178 C2172 1.379 . S
C2178 C2175 1.363 . S
C2178 N2176 1.356 . S
C2179 C2173 1.363 . S
C2179 C2174 1.379 . S
C2179 N2177 1.356 . S
N2180 C2172 1.356 . S
N2180 H2186 0.984 . S
N2180 H2187 0.984 . S
N2181 C2174 1.356 . S
N2181 H2184 0.984 . S
N2181 H2185 0.985 . S
H2182 N2177 0.984 . S
H2183 N2177 0.985 . S
H2184 N2181 0.984 . S
H2185 N2181 0.985 . S
H2186 N2180 0.984 . S
H2187 N2180 0.984 . S
H2188 N2176 0.984 . S
H2189 N2176 0.985 . S
C2190 C2191 1.363 . S
C2190 C2196 1.379 . S
C2190 N2198 1.356 . S
C2191 C2190 1.363 . S
C2191 C2197 1.363 . S
C2192 C2193 1.363 . S
C2192 C2197 1.379 . S
C2192 N2199 1.356 . S
C2193 C2192 1.363 . S
C2193 C2196 1.363 . S
N2194 C2196 1.356 . S
N2194 H2206 0.984 . S
N2194 H2207 0.985 . S
N2195 C2197 1.356 . S
N2195 H2200 0.984 . S
N2195 H2201 0.985 . S
C2196 C2190 1.379 . S
C2196 C2193 1.363 . S
C2196 N2194 1.356 . S
C2197 C2191 1.363 . S
C2197 C2192 1.379 . S
C2197 N2195 1.356 . S
N2198 C2190 1.356 . S
N2198 H2204 0.984 . S
N2198 H2205 0.984 . S
N2199 C2192 1.356 . S
N2199 H2202 0.984 . S
N2199 H2203 0.985 . S
H2200 N2195 0.984 . S
H2201 N2195 0.985 . S
H2202 N2199 0.984 . S
H2203 N2199 0.985 . S
H2204 N2198 0.984 . S
H2205 N2198 0.984 . S
H2206 N2194 0.984 . S
H2207 N2194 0.985 . S
C2208 C2209 1.363 . S
C2208 C2214 1.379 . S
C2208 N2216 1.356 . S
C2209 C2208 1.363 . S
C2209 C2215 1.363 . S
C2210 C2211 1.363 . S
C2210 C2215 1.379 . S
C2210 N2217 1.356 . S
C2211 C2210 1.363 . S
C2211 C2214 1.363 . S
N2212 C2214 1.356 . S
N2212 H2224 0.984 . S
N2212 H2225 0.985 . S
N2213 C2215 1.356 . S
N2213 H2218 0.984 . S
N2213 H2219 0.985 . S
C2214 C2208 1.379 . S
C2214 C2211 1.363 . S
C2214 N2212 1.356 . S
C2215 C2209 1.363 . S
C2215 C2210 1.379 . S
C2215 N2213 1.356 . S
N2216 C2208 1.356 . S
N2216 H2222 0.984 . S
N2216 H2223 0.984 . S
N2217 C2210 1.356 . S
N2217 H2220 0.984 . S
N2217 H2221 0.985 . S
H2218 N2213 0.984 . S
H2219 N2213 0.985 . S
H2220 N2217 0.984 . S
H2221 N2217 0.985 . S
H2222 N2216 0.984 . S
H2223 N2216 0.984 . S
H2224 N2212 0.984 . S
H2225 N2212 0.985 . S
C2226 C2227 1.363 . S
C2226 C2232 1.379 . S
C2226 N2234 1.356 . S
C2227 C2226 1.363 . S
C2227 C2233 1.363 . S
C2228 C2229 1.363 . S
C2228 C2233 1.379 . S
C2228 N2235 1.356 . S
C2229 C2228 1.363 . S
C2229 C2232 1.363 . S
N2230 C2232 1.356 . S
N2230 H2242 0.984 . S
N2230 H2243 0.985 . S
N2231 C2233 1.356 . S
N2231 H2236 0.984 . S
N2231 H2237 0.985 . S
C2232 C2226 1.379 . S
C2232 C2229 1.363 . S
C2232 N2230 1.356 . S
C2233 C2227 1.363 . S
C2233 C2228 1.379 . S
C2233 N2231 1.356 . S
N2234 C2226 1.356 . S
N2234 H2240 0.984 . S
N2234 H2241 0.984 . S
N2235 C2228 1.356 . S
N2235 H2238 0.984 . S
N2235 H2239 0.985 . S
H2236 N2231 0.984 . S
H2237 N2231 0.985 . S
H2238 N2235 0.984 . S
H2239 N2235 0.985 . S
H2240 N2234 0.984 . S
H2241 N2234 0.984 . S
H2242 N2230 0.984 . S
H2243 N2230 0.985 . S
C2244 C2245 1.363 . S
C2244 C2250 1.379 . S
C2244 N2252 1.356 . S
C2245 C2244 1.363 . S
C2245 C2251 1.363 . S
C2246 C2247 1.363 . S
C2246 C2251 1.379 . S
C2246 N2253 1.356 . S
C2247 C2246 1.363 . S
C2247 C2250 1.363 . S
N2248 C2250 1.356 . S
N2248 H2260 0.984 . S
N2248 H2261 0.985 . S
N2249 C2251 1.356 . S
N2249 H2254 0.984 . S
N2249 H2255 0.985 . S
C2250 C2244 1.379 . S
C2250 C2247 1.363 . S
C2250 N2248 1.356 . S
C2251 C2245 1.363 . S
C2251 C2246 1.379 . S
C2251 N2249 1.356 . S
N2252 C2244 1.356 . S
N2252 H2258 0.984 . S
N2252 H2259 0.984 . S
N2253 C2246 1.356 . S
N2253 H2256 0.984 . S
N2253 H2257 0.985 . S
H2254 N2249 0.984 . S
H2255 N2249 0.985 . S
H2256 N2253 0.984 . S
H2257 N2253 0.985 . S
H2258 N2252 0.984 . S
H2259 N2252 0.984 . S
H2260 N2248 0.984 . S
H2261 N2248 0.985 . S
C2262 C2263 1.363 . S
C2262 C2268 1.379 . S
C2262 N2270 1.356 . S
C2263 C2262 1.363 . S
C2263 C2269 1.363 . S
C2264 C2265 1.363 . S
C2264 C2269 1.379 . S
C2264 N2271 1.356 . S
C2265 C2264 1.363 . S
C2265 C2268 1.363 . S
N2266 C2268 1.356 . S
N2266 H2278 0.984 . S
N2266 H2279 0.985 . S
N2267 C2269 1.356 . S
N2267 H2272 0.984 . S
N2267 H2273 0.985 . S
C2268 C2262 1.379 . S
C2268 C2265 1.363 . S
C2268 N2266 1.356 . S
C2269 C2263 1.363 . S
C2269 C2264 1.379 . S
C2269 N2267 1.356 . S
N2270 C2262 1.356 . S
N2270 H2276 0.984 . S
N2270 H2277 0.984 . S
N2271 C2264 1.356 . S
N2271 H2274 0.984 . S
N2271 H2275 0.985 . S
H2272 N2267 0.984 . S
H2273 N2267 0.985 . S
H2274 N2271 0.984 . S
H2275 N2271 0.985 . S
H2276 N2270 0.984 . S
H2277 N2270 0.984 . S
H2278 N2266 0.984 . S
H2279 N2266 0.985 . S
C2280 C2281 1.363 . S
C2280 C2286 1.379 . S
C2280 N2288 1.356 . S
C2281 C2280 1.363 . S
C2281 C2287 1.363 . S
C2282 C2283 1.363 . S
C2282 C2287 1.379 . S
C2282 N2289 1.356 . S
C2283 C2282 1.363 . S
C2283 C2286 1.363 . S
N2284 C2286 1.356 . S
N2284 H2296 0.984 . S
N2284 H2297 0.985 . S
N2285 C2287 1.356 . S
N2285 H2290 0.984 . S
N2285 H2291 0.985 . S
C2286 C2280 1.379 . S
C2286 C2283 1.363 . S
C2286 N2284 1.356 . S
C2287 C2281 1.363 . S
C2287 C2282 1.379 . S
C2287 N2285 1.356 . S
N2288 C2280 1.356 . S
N2288 H2294 0.984 . S
N2288 H2295 0.984 . S
N2289 C2282 1.356 . S
N2289 H2292 0.984 . S
N2289 H2293 0.985 . S
H2290 N2285 0.984 . S
H2291 N2285 0.985 . S
H2292 N2289 0.984 . S
H2293 N2289 0.985 . S
H2294 N2288 0.984 . S
H2295 N2288 0.984 . S
H2296 N2284 0.984 . S
H2297 N2284 0.985 . S
C2298 C2299 1.363 . S
C2298 C2304 1.379 . S
C2298 N2306 1.356 . S
C2299 C2298 1.363 . S
C2299 C2305 1.363 . S
C2300 C2301 1.363 . S
C2300 C2305 1.379 . S
C2300 N2307 1.356 . S
C2301 C2300 1.363 . S
C2301 C2304 1.363 . S
N2302 C2304 1.356 . S
N2302 H2314 0.984 . S
N2302 H2315 0.985 . S
N2303 C2305 1.356 . S
N2303 H2308 0.984 . S
N2303 H2309 0.985 . S
C2304 C2298 1.379 . S
C2304 C2301 1.363 . S
C2304 N2302 1.356 . S
C2305 C2299 1.363 . S
C2305 C2300 1.379 . S
C2305 N2303 1.356 . S
N2306 C2298 1.356 . S
N2306 H2312 0.984 . S
N2306 H2313 0.984 . S
N2307 C2300 1.356 . S
N2307 H2310 0.984 . S
N2307 H2311 0.985 . S
H2308 N2303 0.984 . S
H2309 N2303 0.985 . S
H2310 N2307 0.984 . S
H2311 N2307 0.985 . S
H2312 N2306 0.984 . S
H2313 N2306 0.984 . S
H2314 N2302 0.984 . S
H2315 N2302 0.985 . S
C2316 C2317 1.363 . S
C2316 C2322 1.379 . S
C2316 N2324 1.356 . S
C2317 C2316 1.363 . S
C2317 C2323 1.363 . S
C2318 C2319 1.363 . S
C2318 C2323 1.379 . S
C2318 N2325 1.356 . S
C2319 C2318 1.363 . S
C2319 C2322 1.363 . S
N2320 C2322 1.356 . S
N2320 H2332 0.984 . S
N2320 H2333 0.985 . S
N2321 C2323 1.356 . S
N2321 H2326 0.984 . S
N2321 H2327 0.985 . S
C2322 C2316 1.379 . S
C2322 C2319 1.363 . S
C2322 N2320 1.356 . S
C2323 C2317 1.363 . S
C2323 C2318 1.379 . S
C2323 N2321 1.356 . S
N2324 C2316 1.356 . S
N2324 H2330 0.984 . S
N2324 H2331 0.984 . S
N2325 C2318 1.356 . S
N2325 H2328 0.984 . S
N2325 H2329 0.985 . S
H2326 N2321 0.984 . S
H2327 N2321 0.985 . S
H2328 N2325 0.984 . S
H2329 N2325 0.985 . S
H2330 N2324 0.984 . S
H2331 N2324 0.984 . S
H2332 N2320 0.984 . S
H2333 N2320 0.985 . S
C2334 C2335 1.363 . S
C2334 C2340 1.379 . S
C2334 N2342 1.356 . S
C2335 C2334 1.363 . S
C2335 C2341 1.363 . S
C2336 C2337 1.363 . S
C2336 C2341 1.379 . S
C2336 N2343 1.356 . S
C2337 C2336 1.363 . S
C2337 C2340 1.363 . S
N2338 C2340 1.356 . S
N2338 H2350 0.984 . S
N2338 H2351 0.985 . S
N2339 C2341 1.356 . S
N2339 H2344 0.984 . S
N2339 H2345 0.985 . S
C2340 C2334 1.379 . S
C2340 C2337 1.363 . S
C2340 N2338 1.356 . S
C2341 C2335 1.363 . S
C2341 C2336 1.379 . S
C2341 N2339 1.356 . S
N2342 C2334 1.356 . S
N2342 H2348 0.984 . S
N2342 H2349 0.984 . S
N2343 C2336 1.356 . S
N2343 H2346 0.984 . S
N2343 H2347 0.985 . S
H2344 N2339 0.984 . S
H2345 N2339 0.985 . S
H2346 N2343 0.984 . S
H2347 N2343 0.985 . S
H2348 N2342 0.984 . S
H2349 N2342 0.984 . S
H2350 N2338 0.984 . S
H2351 N2338 0.985 . S
C625 C407 1.436 . S
C627 C4 1.436 . S
C643 C23 1.436 . S
C645 C374 1.436 . S
C661 C30 1.436 . S
C663 C387 1.436 . S
C679 C394 1.436 . S
C681 C49 1.436 . S
C697 C335 1.436 . S
C699 C62 1.436 . S
C715 C69 1.436 . S
C717 C342 1.436 . S
C733 C361 1.436 . S
C735 C82 1.436 . S
C751 C95 1.436 . S
C753 C322 1.436 . S
C769 C114 1.436 . S
C771 C582 1.436 . S
C787 C537 1.436 . S
C789 C121 1.436 . S
C805 C556 1.436 . S
C807 C140 1.436 . S
C823 C147 1.436 . S
C825 C563 1.436 . S
C841 C160 1.436 . S
C843 C615 1.436 . S
C859 C179 1.436 . S
C861 C589 1.436 . S
C877 C192 1.436 . S
C879 C602 1.436 . S
C895 C524 1.436 . S
C897 C199 1.436 . S
C913 C511 1.436 . S
C915 C212 1.436 . S
C931 C225 1.436 . S
C933 C433 1.436 . S
C949 C446 1.436 . S
C951 C238 1.436 . S
C967 C257 1.436 . S
C969 C459 1.436 . S
C985 C426 1.436 . S
C987 C270 1.436 . S
C1003 C491 1.436 . S
C1005 C277 1.436 . S
C1021 C296 1.436 . S
C1023 C498 1.436 . S
C1039 C478 1.436 . S
C1041 C303 1.436 . S
C1057 C127 1.671 . S
C1059 C10 1.671 . S
C1075 C134 1.671 . S
C1077 C17 1.671 . S
C1093 C36 1.671 . S
C1095 C153 1.671 . S
C1111 C108 1.671 . S
C1113 C43 1.671 . S
C1129 C56 1.671 . S
C1131 C205 1.671 . S
C1147 C166 1.671 . S
C1149 C75 1.671 . S
C1165 C173 1.671 . S
C1167 C88 1.671 . S
C1183 C186 1.671 . S
C1185 C101 1.671 . S
C1201 C244 1.671 . S
C1203 C218 1.671 . S
C1219 C290 1.671 . S
C1221 C231 1.671 . S
C1237 C309 1.671 . S
C1239 C251 1.671 . S
C1255 C264 1.671 . S
C1257 C283 1.671 . S
C1273 C439 1.671 . S
C1275 C316 1.671 . S
C1291 C452 1.671 . S
C1293 C329 1.671 . S
C1309 C465 1.671 . S
C1311 C348 1.671 . S
C1327 C355 1.671 . S
C1329 C420 1.671 . S
C1345 C368 1.671 . S
C1347 C517 1.671 . S
C1363 C381 1.671 . S
C1365 C472 1.671 . S
C1381 C485 1.671 . S
C1383 C400 1.671 . S
C1399 C504 1.671 . S
C1401 C413 1.671 . S
C1417 C530 1.671 . S
C1419 C550 1.671 . S
C1435 C608 1.671 . S
C1437 C543 1.671 . S
C1453 C621 1.671 . S
C1455 C569 1.671 . S
C1471 C595 1.671 . S
C1473 C576 1.671 . S
C1489 C3 1.449 . S
C1491 C239 1.445 . S
C1507 C18 1.449 . S
C1509 C250 1.445 . S
C1525 C29 1.449 . S
C1527 C263 1.445 . S
C1543 C226 1.445 . S
C1545 C44 1.449 . S
C1561 C57 1.449 . S
C1563 C289 1.445 . S
C1579 C68 1.449 . S
C1581 C213 1.445 . S
C1597 C304 1.445 . S
C1599 C81 1.449 . S
C1615 C278 1.445 . S
C1617 C94 1.449 . S
C1633 C109 1.449 . S
C1635 C122 1.445 . S
C1651 C120 1.449 . S
C1653 C133 1.445 . S
C1669 C135 1.449 . S
C1671 C148 1.445 . S
C1687 C107 1.445 . S
C1689 C146 1.449 . S
C1705 C200 1.445 . S
C1707 C159 1.449 . S
C1723 C161 1.445 . S
C1725 C174 1.449 . S
C1741 C172 1.445 . S
C1743 C187 1.449 . S
C1759 C198 1.449 . S
C1761 C185 1.445 . S
C1777 C42 1.445 . S
C1779 C211 1.449 . S
C1795 C70 1.445 . S
C1797 C224 1.449 . S
C1813 C83 1.445 . S
C1815 C237 1.449 . S
C1831 C252 1.449 . S
C1833 C96 1.445 . S
C1849 C55 1.445 . S
C1851 C265 1.449 . S
C1867 C16 1.445 . S
C1869 C276 1.449 . S
C1885 C31 1.445 . S
C1887 C291 1.449 . S
C1903 C5 1.445 . S
C1905 C302 1.449 . S
C1921 C549 1.445 . S
C1923 C317 1.449 . S
C1939 C330 1.449 . S
C1941 C564 1.445 . S
C1957 C575 1.445 . S
C1959 C341 1.449 . S
C1975 C538 1.445 . S
C1977 C356 1.449 . S
C1993 C369 1.449 . S
C1995 C603 1.445 . S
C2011 C382 1.449 . S
C2013 C525 1.445 . S
C2029 C616 1.445 . S
C2031 C393 1.449 . S
C2047 C406 1.449 . S
C2049 C590 1.445 . S
C2065 C421 1.449 . S
C2067 C434 1.445 . S
C2083 C432 1.449 . S
C2085 C447 1.445 . S
C2101 C445 1.449 . S
C2103 C460 1.445 . S
C2119 C458 1.449 . S
C2121 C419 1.445 . S
C2137 C512 1.445 . S
C2139 C473 1.449 . S
C2155 C471 1.445 . S
C2157 C486 1.449 . S
C2173 C484 1.445 . S
C2175 C497 1.449 . S
C2191 C510 1.449 . S
C2193 C499 1.445 . S
C2209 C354 1.445 . S
C2211 C523 1.449 . S
C2227 C380 1.445 . S
C2229 C536 1.449 . S
C2245 C395 1.445 . S
C2247 C551 1.449 . S
C2263 C562 1.449 . S
C2265 C408 1.445 . S
C2281 C367 1.445 . S
C2283 C577 1.449 . S
C2299 C328 1.445 . S
C2301 C588 1.449 . S
C2317 C601 1.449 . S
C2319 C343 1.445 . S
C2335 C315 1.445 . S
C2337 C614 1.449 . S
