# Generated by pormake.
# Topology sth, (5)-cn, num edge types: 1
# Building blocks:
#     Node 0, Type 0, BuildingBlock: XOMCOT_clean_sbu_1, # of connection points: 5
#     Node 1, Type 0, BuildingBlock: XOMCOT_clean_sbu_1, # of connection points: 5
#     Node 2, Type 0, BuildingBlock: XOMCOT_clean_sbu_1, # of connection points: 5
#     Node 3, Type 0, BuildingBlock: XOMCOT_clean_sbu_1, # of connection points: 5
#     Node 4, Type 0, BuildingBlock: XOMCOT_clean_sbu_1, # of connection points: 5
#     Node 5, Type 0, BuildingBlock: XOMCOT_clean_sbu_1, # of connection points: 5
#     Node 6, Type 0, BuildingBlock: XOMCOT_clean_sbu_1, # of connection points: 5
#     Node 7, Type 0, BuildingBlock: XOMCOT_clean_sbu_1, # of connection points: 5
#     Node 8, Type 0, BuildingBlock: XOMCOT_clean_sbu_1, # of connection points: 5
#     Node 9, Type 0, BuildingBlock: XOMCOT_clean_sbu_1, # of connection points: 5
#     Node 10, Type 0, BuildingBlock: XOMCOT_clean_sbu_1, # of connection points: 5
#     Node 11, Type 0, BuildingBlock: XOMCOT_clean_sbu_1, # of connection points: 5
#     Node 12, Type 0, BuildingBlock: XOMCOT_clean_sbu_1, # of connection points: 5
#     Node 13, Type 0, BuildingBlock: XOMCOT_clean_sbu_1, # of connection points: 5
#     Node 14, Type 0, BuildingBlock: XOMCOT_clean_sbu_1, # of connection points: 5
#     Node 15, Type 0, BuildingBlock: XOMCOT_clean_sbu_1, # of connection points: 5
#     Node 16, Type 0, BuildingBlock: XOMCOT_clean_sbu_1, # of connection points: 5
#     Node 17, Type 0, BuildingBlock: XOMCOT_clean_sbu_1, # of connection points: 5
#     Edge 18, Type (0, 0), BuildingBlock: ZUJKAS_clean_linker_0, # of connection points: 2
#     Edge 19, Type (0, 0), BuildingBlock: ZUJKAS_clean_linker_0, # of connection points: 2
#     Edge 20, Type (0, 0), BuildingBlock: ZUJKAS_clean_linker_0, # of connection points: 2
#     Edge 21, Type (0, 0), BuildingBlock: ZUJKAS_clean_linker_0, # of connection points: 2
#     Edge 22, Type (0, 0), BuildingBlock: ZUJKAS_clean_linker_0, # of connection points: 2
#     Edge 23, Type (0, 0), BuildingBlock: ZUJKAS_clean_linker_0, # of connection points: 2
#     Edge 24, Type (0, 0), BuildingBlock: ZUJKAS_clean_linker_0, # of connection points: 2
#     Edge 25, Type (0, 0), BuildingBlock: ZUJKAS_clean_linker_0, # of connection points: 2
#     Edge 26, Type (0, 0), BuildingBlock: ZUJKAS_clean_linker_0, # of connection points: 2
#     Edge 27, Type (0, 0), BuildingBlock: ZUJKAS_clean_linker_0, # of connection points: 2
#     Edge 28, Type (0, 0), BuildingBlock: ZUJKAS_clean_linker_0, # of connection points: 2
#     Edge 29, Type (0, 0), BuildingBlock: ZUJKAS_clean_linker_0, # of connection points: 2
#     Edge 30, Type (0, 0), BuildingBlock: ZUJKAS_clean_linker_0, # of connection points: 2
#     Edge 31, Type (0, 0), BuildingBlock: ZUJKAS_clean_linker_0, # of connection points: 2
#     Edge 32, Type (0, 0), BuildingBlock: ZUJKAS_clean_linker_0, # of connection points: 2
#     Edge 33, Type (0, 0), BuildingBlock: ZUJKAS_clean_linker_0, # of connection points: 2
#     Edge 34, Type (0, 0), BuildingBlock: ZUJKAS_clean_linker_0, # of connection points: 2
#     Edge 35, Type (0, 0), BuildingBlock: ZUJKAS_clean_linker_0, # of connection points: 2
#     Edge 36, Type (0, 0), BuildingBlock: ZUJKAS_clean_linker_0, # of connection points: 2
#     Edge 37, Type (0, 0), BuildingBlock: ZUJKAS_clean_linker_0, # of connection points: 2
#     Edge 38, Type (0, 0), BuildingBlock: ZUJKAS_clean_linker_0, # of connection points: 2
#     Edge 39, Type (0, 0), BuildingBlock: ZUJKAS_clean_linker_0, # of connection points: 2
#     Edge 40, Type (0, 0), BuildingBlock: ZUJKAS_clean_linker_0, # of connection points: 2
#     Edge 41, Type (0, 0), BuildingBlock: ZUJKAS_clean_linker_0, # of connection points: 2
#     Edge 42, Type (0, 0), BuildingBlock: ZUJKAS_clean_linker_0, # of connection points: 2
#     Edge 43, Type (0, 0), BuildingBlock: ZUJKAS_clean_linker_0, # of connection points: 2
#     Edge 44, Type (0, 0), BuildingBlock: ZUJKAS_clean_linker_0, # of connection points: 2
#     Edge 45, Type (0, 0), BuildingBlock: ZUJKAS_clean_linker_0, # of connection points: 2
#     Edge 46, Type (0, 0), BuildingBlock: ZUJKAS_clean_linker_0, # of connection points: 2
#     Edge 47, Type (0, 0), BuildingBlock: ZUJKAS_clean_linker_0, # of connection points: 2
#     Edge 48, Type (0, 0), BuildingBlock: ZUJKAS_clean_linker_0, # of connection points: 2
#     Edge 49, Type (0, 0), BuildingBlock: ZUJKAS_clean_linker_0, # of connection points: 2
#     Edge 50, Type (0, 0), BuildingBlock: ZUJKAS_clean_linker_0, # of connection points: 2
#     Edge 51, Type (0, 0), BuildingBlock: ZUJKAS_clean_linker_0, # of connection points: 2
#     Edge 52, Type (0, 0), BuildingBlock: ZUJKAS_clean_linker_0, # of connection points: 2
#     Edge 53, Type (0, 0), BuildingBlock: ZUJKAS_clean_linker_0, # of connection points: 2
#     Edge 54, Type (0, 0), BuildingBlock: ZUJKAS_clean_linker_0, # of connection points: 2
#     Edge 55, Type (0, 0), BuildingBlock: ZUJKAS_clean_linker_0, # of connection points: 2
#     Edge 56, Type (0, 0), BuildingBlock: ZUJKAS_clean_linker_0, # of connection points: 2
#     Edge 57, Type (0, 0), BuildingBlock: ZUJKAS_clean_linker_0, # of connection points: 2
#     Edge 58, Type (0, 0), BuildingBlock: ZUJKAS_clean_linker_0, # of connection points: 2
#     Edge 59, Type (0, 0), BuildingBlock: ZUJKAS_clean_linker_0, # of connection points: 2
#     Edge 60, Type (0, 0), BuildingBlock: ZUJKAS_clean_linker_0, # of connection points: 2
#     Edge 61, Type (0, 0), BuildingBlock: ZUJKAS_clean_linker_0, # of connection points: 2
#     Edge 62, Type (0, 0), BuildingBlock: ZUJKAS_clean_linker_0, # of connection points: 2
# Relax obj value: 0.158
# Max RMSD: 0.184
# Mean RMSD: 0.184
data_MOF--net-sth--node1-XOMCOT_clean_sbu_1--edge1-ZUJKAS_clean_linker_0
_symmetry_space_group_name_H-M    P1
_symmetry_Int_Tables_number       1
_symmetry_cell_setting            triclinic
loop_
_symmetry_equiv_pos_as_xyz
'x, y, z'
_cell_length_a     52.041476
_cell_length_b     52.162136
_cell_length_c     95.640289
_cell_angle_alpha  89.99289
_cell_angle_beta   90.111729
_cell_angle_gamma 120.03136
loop_
_atom_site_label
_atom_site_type_symbol
_atom_site_fract_x
_atom_site_fract_y
_atom_site_fract_z
_atom_type_partial_charge
C0 C 0.19059 0.31355 0.23277 0.0
C1 C 0.21691 0.33254 0.22639 0.0
N2 N 0.21443 0.326 0.21268 0.0
N3 N 0.17094 0.29489 0.2232 0.0
C4 C 0.18631 0.3032 0.21099 0.0
H5 H 0.18698 0.31294 0.24388 0.0
Co6 Co 0.13266 0.26153 0.2268 0.0
C7 C 0.08934 0.27845 0.21663 0.0
O8 O 0.07197 0.26349 0.22709 0.0
N9 N 0.09451 0.22738 0.23026 0.0
C10 C 0.05327 0.19131 0.24 0.0
C11 C 0.07882 0.21771 0.24228 0.0
C12 C 0.07731 0.20621 0.22079 0.0
N13 N 0.05236 0.18382 0.22648 0.0
O14 O 0.13695 0.24112 0.21107 0.0
H15 H 0.08468 0.22889 0.25222 0.0
H16 H 0.08306 0.20701 0.20989 0.0
O17 O 0.11438 0.27956 0.21518 0.0
C18 C 0.15348 0.23076 0.21486 0.0
O19 O 0.16653 0.2386 0.22714 0.0
N20 N 0.13029 0.2798 0.24335 0.0
C21 C 0.13446 0.30245 0.27025 0.0
C22 C 0.12733 0.31461 0.25878 0.0
C23 C 0.12592 0.30331 0.2453 0.0
C24 C 0.13819 0.26853 0.25434 0.0
C25 C 0.13993 0.27913 0.26784 0.0
H26 H 0.12238 0.31417 0.23652 0.0
H27 H 0.14294 0.25085 0.25253 0.0
H28 H 0.17737 0.29212 0.20113 0.0
H29 H 0.23693 0.34879 0.23165 0.0
H30 H 0.03649 0.17884 0.24776 0.0
H31 H 0.12385 0.33326 0.26015 0.0
H32 H 0.14543 0.26897 0.27633 0.0
C33 C 0.71985 0.88933 0.2334 0.0
C34 C 0.70004 0.89687 0.22816 0.0
N35 N 0.69963 0.89463 0.21414 0.0
N36 N 0.73197 0.88175 0.22285 0.0
C37 C 0.71928 0.88547 0.21116 0.0
H38 H 0.72595 0.89088 0.24428 0.0
Co39 Co 0.76397 0.87418 0.22497 0.0
C40 C 0.74143 0.81268 0.21527 0.0
O41 O 0.75564 0.80968 0.22591 0.0
N42 N 0.79727 0.86772 0.22701 0.0
C43 C 0.8311 0.85678 0.23498 0.0
C44 C 0.80608 0.858 0.2382 0.0
C45 C 0.81792 0.87229 0.21712 0.0
N46 N 0.83864 0.86587 0.22173 0.0
O47 O 0.78306 0.89838 0.20888 0.0
H48 H 0.79481 0.85088 0.24808 0.0
H49 H 0.81752 0.87946 0.20657 0.0
O50 O 0.74235 0.83752 0.21343 0.0
C51 C 0.79542 0.9252 0.21306 0.0
O52 O 0.79031 0.93026 0.22594 0.0
N53 N 0.74694 0.85418 0.2419 0.0
C54 C 0.72571 0.83681 0.26915 0.0
C55 C 0.71003 0.81906 0.25761 0.0
C56 C 0.72074 0.82845 0.24399 0.0
C57 C 0.76176 0.87201 0.25296 0.0
C58 C 0.75197 0.86354 0.26661 0.0
H59 H 0.70739 0.81563 0.23523 0.0
H60 H 0.78155 0.89313 0.2511 0.0
H61 H 0.72511 0.8825 0.20066 0.0
H62 H 0.68814 0.90509 0.23423 0.0
H63 H 0.84293 0.84981 0.2419 0.0
H64 H 0.68917 0.7987 0.25906 0.0
H65 H 0.76495 0.878 0.2751 0.0
C66 C 0.12255 0.83232 0.23317 0.0
C67 C 0.11031 0.80341 0.22895 0.0
N68 N 0.11764 0.80295 0.21546 0.0
N69 N 0.13818 0.8504 0.22256 0.0
C70 C 0.1347 0.83188 0.21186 0.0
H71 H 0.11962 0.8398 0.24328 0.0
Co72 Co 0.15493 0.89191 0.22298 0.0
C73 C 0.21614 0.90623 0.21281 0.0
O74 O 0.22693 0.91207 0.22553 0.0
N75 N 0.17094 0.93361 0.22301 0.0
C76 C 0.20139 0.98241 0.22375 0.0
C77 C 0.19904 0.95525 0.2257 0.0
C78 C 0.15662 0.94846 0.21963 0.0
N79 N 0.17467 0.9782 0.21987 0.0
O80 O 0.13074 0.88904 0.20701 0.0
H81 H 0.21688 0.95189 0.22904 0.0
H82 H 0.1333 0.93773 0.2171 0.0
O83 O 0.18865 0.89785 0.21056 0.0
C84 C 0.1045 0.87928 0.21176 0.0
O85 O 0.09999 0.87362 0.2252 0.0
N86 N 0.17485 0.89363 0.2401 0.0
C87 C 0.1929 0.89164 0.26757 0.0
C88 C 0.19544 0.87443 0.25697 0.0
C89 C 0.18586 0.87537 0.24338 0.0
C90 C 0.17116 0.90948 0.25049 0.0
C91 C 0.18062 0.90935 0.26414 0.0
H92 H 0.18706 0.86118 0.23547 0.0
H93 H 0.15968 0.92153 0.24841 0.0
H94 H 0.14324 0.83954 0.20146 0.0
H95 H 0.09666 0.78424 0.23535 0.0
H96 H 0.22152 1.00359 0.22486 0.0
H97 H 0.20439 0.86006 0.25918 0.0
H98 H 0.177 0.92201 0.27208 0.0
C99 C 0.33685 0.16409 0.8038 0.0
C100 C 0.35741 0.19183 0.80857 0.0
N101 N 0.34355 0.20745 0.81063 0.0
N102 N 0.31005 0.16215 0.8027 0.0
C103 C 0.31493 0.189 0.807 0.0
H104 H 0.34128 0.14647 0.80129 0.0
Co105 Co 0.2746 0.12941 0.79612 0.0
C106 C 0.2803 0.07641 0.80295 0.0
O107 O 0.26521 0.06284 0.79164 0.0
N108 N 0.23843 0.09687 0.78971 0.0
C109 C 0.19748 0.06761 0.77758 0.0
C110 C 0.22534 0.09222 0.77704 0.0
C111 C 0.21768 0.07491 0.7978 0.0
N112 N 0.19257 0.05665 0.79067 0.0
O113 O 0.25358 0.1308 0.81225 0.0
H114 H 0.23456 0.10627 0.76802 0.0
H115 H 0.22101 0.07259 0.80879 0.0
O116 O 0.28544 0.10259 0.80574 0.0
C117 C 0.24155 0.14591 0.80862 0.0
O118 O 0.24827 0.15883 0.79631 0.0
N119 N 0.29409 0.13018 0.77932 0.0
C120 C 0.31295 0.13337 0.75175 0.0
C121 C 0.32018 0.11867 0.76195 0.0
C122 C 0.31068 0.11748 0.77579 0.0
C123 C 0.28976 0.14711 0.76981 0.0
C124 C 0.29838 0.1485 0.75593 0.0
H125 H 0.31673 0.10632 0.78345 0.0
H126 H 0.27789 0.15829 0.77289 0.0
H127 H 0.29805 0.19526 0.8073 0.0
H128 H 0.38066 0.19974 0.81061 0.0
H129 H 0.18166 0.05926 0.76906 0.0
H130 H 0.33224 0.10746 0.75918 0.0
H131 H 0.29323 0.16091 0.74847 0.0
C132 C 0.84839 0.12318 0.78311 0.0
C133 C 0.81956 0.11091 0.78757 0.0
N134 N 0.81975 0.11909 0.80095 0.0
N135 N 0.86688 0.1394 0.79355 0.0
C136 C 0.84876 0.13653 0.80431 0.0
H137 H 0.85555 0.11946 0.77308 0.0
Co138 Co 0.90819 0.15485 0.79336 0.0
C139 C 0.92376 0.21627 0.80334 0.0
O140 O 0.92993 0.22717 0.79067 0.0
N141 N 0.94962 0.16943 0.7936 0.0
C142 C 0.99871 0.19829 0.79408 0.0
C143 C 0.97221 0.19732 0.79169 0.0
C144 C 0.96319 0.15381 0.79687 0.0
N145 N 0.9931 0.17087 0.79744 0.0
O146 O 0.90428 0.13113 0.80954 0.0
H147 H 0.96994 0.21601 0.78879 0.0
H148 H 0.95128 0.13032 0.79888 0.0
O149 O 0.91494 0.1888 0.80554 0.0
C150 C 0.89313 0.10443 0.8053 0.0
O151 O 0.88717 0.09891 0.79191 0.0
N152 N 0.9109 0.17473 0.77615 0.0
C153 C 0.9093 0.19231 0.74859 0.0
C154 C 0.89224 0.19541 0.75908 0.0
C155 C 0.89301 0.18609 0.77272 0.0
C156 C 0.92689 0.17081 0.7659 0.0
C157 C 0.92692 0.18 0.75219 0.0
H158 H 0.87888 0.1877 0.78054 0.0
H159 H 0.93879 0.15923 0.76811 0.0
H160 H 0.85673 0.14534 0.81466 0.0
H161 H 0.79997 0.09635 0.78154 0.0
H162 H 0.02033 0.21806 0.79374 0.0
H163 H 0.87803 0.20451 0.75674 0.0
H164 H 0.93952 0.17607 0.74434 0.0
C165 C 0.90157 0.72651 0.78093 0.0
C166 C 0.91087 0.70787 0.78593 0.0
N167 N 0.90414 0.70305 0.79964 0.0
N168 N 0.88859 0.73339 0.79131 0.0
C169 C 0.89064 0.7189 0.80265 0.0
H170 H 0.90529 0.73556 0.77047 0.0
Co171 Co 0.8768 0.76202 0.78973 0.0
C172 C 0.81396 0.72977 0.79896 0.0
O173 O 0.80722 0.73804 0.78723 0.0
N174 N 0.86562 0.79213 0.78822 0.0
C175 C 0.84771 0.82115 0.78129 0.0
C176 C 0.8483 0.7956 0.77866 0.0
C177 C 0.87494 0.81622 0.79661 0.0
N178 N 0.86466 0.83428 0.79258 0.0
O179 O 0.90117 0.7823 0.80578 0.0
H180 H 0.83628 0.78055 0.77023 0.0
H181 H 0.88949 0.82101 0.80543 0.0
O182 O 0.84112 0.7375 0.80155 0.0
C183 C 0.92767 0.79666 0.80104 0.0
O184 O 0.93194 0.79359 0.78775 0.0
N185 N 0.85732 0.74405 0.7728 0.0
C186 C 0.84158 0.72224 0.74545 0.0
C187 C 0.82837 0.70361 0.75707 0.0
C188 C 0.83685 0.71487 0.77069 0.0
C189 C 0.8712 0.76195 0.76166 0.0
C190 C 0.863 0.75191 0.74801 0.0
H191 H 0.82796 0.69991 0.77947 0.0
H192 H 0.88896 0.78441 0.76342 0.0
H193 H 0.88324 0.72076 0.81297 0.0
H194 H 0.92312 0.6998 0.78004 0.0
H195 H 0.83552 0.82926 0.77536 0.0
H196 H 0.81256 0.6803 0.7557 0.0
H197 H 0.87381 0.76742 0.73955 0.0
C198 C 0.85577 0.63387 0.56897 0.0
C199 C 0.88527 0.65114 0.56561 0.0
N200 N 0.88774 0.65326 0.55159 0.0
N201 N 0.83932 0.62547 0.55716 0.0
C202 C 0.85958 0.63717 0.54672 0.0
H203 H 0.84704 0.62702 0.5794 0.0
Co204 Co 0.79796 0.59838 0.556 0.0
C205 C 0.80313 0.65165 0.53982 0.0
O206 O 0.83064 0.67071 0.54333 0.0
N207 N 0.7571 0.57126 0.55466 0.0
C208 C 0.70844 0.55312 0.55321 0.0
C209 C 0.73538 0.57812 0.5555 0.0
C210 C 0.74276 0.54183 0.55194 0.0
N211 N 0.713 0.53018 0.55094 0.0
O212 O 0.80438 0.57989 0.54006 0.0
H213 H 0.73895 0.60012 0.55741 0.0
H214 H 0.75395 0.52924 0.55066 0.0
O215 O 0.79083 0.62496 0.54422 0.0
C216 C 0.81532 0.56447 0.54475 0.0
O217 O 0.82087 0.56547 0.55821 0.0
N218 N 0.79156 0.61375 0.57268 0.0
C219 C 0.78947 0.62999 0.60043 0.0
C220 C 0.80043 0.6513 0.58967 0.0
C221 C 0.80102 0.64267 0.57582 0.0
C222 C 0.77992 0.59274 0.58288 0.0
C223 C 0.77791 0.6002 0.59664 0.0
H224 H 0.81108 0.65954 0.56793 0.0
H225 H 0.77312 0.56997 0.58042 0.0
H226 H 0.8537 0.63376 0.53575 0.0
H227 H 0.90358 0.66038 0.57296 0.0
H228 H 0.68723 0.55223 0.55284 0.0
H229 H 0.80997 0.67464 0.59195 0.0
H230 H 0.76821 0.5826 0.60429 0.0
C231 C 0.38926 0.22382 0.56993 0.0
C232 C 0.37012 0.2324 0.5648 0.0
N233 N 0.36806 0.22845 0.55085 0.0
N234 N 0.39911 0.21382 0.55936 0.0
C235 C 0.38597 0.21724 0.54779 0.0
H236 H 0.39649 0.22606 0.58067 0.0
Co237 Co 0.42908 0.20347 0.56126 0.0
C238 C 0.40033 0.1409 0.5522 0.0
O239 O 0.41075 0.13572 0.56369 0.0
N240 N 0.46036 0.19387 0.56306 0.0
C241 C 0.4911 0.17826 0.57039 0.0
C242 C 0.46616 0.17979 0.57347 0.0
C243 C 0.48256 0.20047 0.55375 0.0
N244 N 0.50151 0.19142 0.55799 0.0
O245 O 0.44896 0.22737 0.54517 0.0
H246 H 0.45287 0.1701 0.58268 0.0
H247 H 0.48468 0.21115 0.54383 0.0
O248 O 0.40554 0.16726 0.54966 0.0
C249 C 0.46291 0.25395 0.54975 0.0
O250 O 0.45902 0.25865 0.56288 0.0
N251 N 0.41153 0.18423 0.57824 0.0
C252 C 0.3903 0.16929 0.60564 0.0
C253 C 0.37237 0.1534 0.59417 0.0
C254 C 0.38324 0.16159 0.58049 0.0
C255 C 0.42866 0.20043 0.58924 0.0
C256 C 0.41891 0.19289 0.60294 0.0
H257 H 0.36854 0.15062 0.57177 0.0
H258 H 0.45024 0.21956 0.58729 0.0
H259 H 0.39017 0.21248 0.5373 0.0
H260 H 0.35979 0.24237 0.57082 0.0
H261 H 0.50097 0.16845 0.57687 0.0
H262 H 0.34978 0.13566 0.59571 0.0
H263 H 0.43373 0.20581 0.61134 0.0
C264 C 0.80271 0.1736 0.56793 0.0
C265 C 0.79205 0.14588 0.5624 0.0
N266 N 0.79655 0.14849 0.54851 0.0
N267 N 0.81431 0.194 0.55764 0.0
C268 C 0.81034 0.17793 0.54585 0.0
H269 H 0.80031 0.17824 0.5787 0.0
Co270 Co 0.82474 0.23399 0.55994 0.0
C271 C 0.88717 0.26854 0.55084 0.0
O272 O 0.89199 0.2844 0.5622 0.0
N273 N 0.83421 0.27459 0.56222 0.0
C274 C 0.84806 0.3198 0.57045 0.0
C275 C 0.8476 0.29371 0.57297 0.0
C276 C 0.82713 0.29033 0.55323 0.0
N277 N 0.83491 0.31764 0.55806 0.0
O278 O 0.80047 0.2304 0.54398 0.0
H279 H 0.85748 0.28983 0.58205 0.0
H280 H 0.81602 0.28193 0.54337 0.0
O281 O 0.86091 0.24709 0.54824 0.0
C282 C 0.7739 0.2176 0.54862 0.0
O283 O 0.76942 0.20911 0.56177 0.0
N284 N 0.84441 0.23504 0.57671 0.0
C285 C 0.8611 0.22836 0.60367 0.0
C286 C 0.87669 0.22719 0.59192 0.0
C287 C 0.86754 0.2299 0.57846 0.0
C288 C 0.82842 0.235 0.58799 0.0
C289 C 0.83672 0.2324 0.60151 0.0
H290 H 0.87829 0.22674 0.56951 0.0
H291 H 0.80889 0.23697 0.58641 0.0
H292 H 0.81531 0.18739 0.53546 0.0
H293 H 0.78062 0.1252 0.56809 0.0
H294 H 0.85772 0.33901 0.57722 0.0
H295 H 0.89501 0.22306 0.5931 0.0
H296 H 0.82393 0.2334 0.61019 0.0
C297 C 0.97291 0.5123 0.11321 0.0
C298 C 0.99099 0.54057 0.11806 0.0
N299 N 0.99552 0.53923 0.13184 0.0
N300 N 0.96635 0.49289 0.12379 0.0
C301 C 0.98019 0.51003 0.13508 0.0
H302 H 0.96435 0.50638 0.10268 0.0
Co303 Co 0.93977 0.45198 0.12239 0.0
C304 C 0.97407 0.42457 0.13245 0.0
O305 O 0.96692 0.40937 0.12078 0.0
N306 N 0.91149 0.40989 0.12114 0.0
C307 C 0.88457 0.36242 0.11457 0.0
C308 C 0.90865 0.38953 0.1115 0.0
C309 C 0.88858 0.39384 0.13005 0.0
N310 N 0.87181 0.36517 0.12622 0.0
O311 O 0.91847 0.45498 0.138 0.0
H312 H 0.92323 0.39347 0.10276 0.0
H313 H 0.88413 0.40268 0.13934 0.0
O314 O 0.96528 0.44322 0.13469 0.0
C315 C 0.89882 0.45943 0.13233 0.0
O316 O 0.89838 0.46115 0.11863 0.0
N317 N 0.959 0.45134 0.10578 0.0
C318 C 0.98188 0.45599 0.07892 0.0
C319 C 1.00047 0.46337 0.09069 0.0
C320 C 0.98862 0.46125 0.1041 0.0
C321 C 0.94137 0.44633 0.09436 0.0
C322 C 0.95207 0.44764 0.0809 0.0
H323 H 1.0033 0.4683 0.11305 0.0
H324 H 0.91862 0.44107 0.09575 0.0
H325 H 0.97849 0.5013 0.14552 0.0
H326 H 0.99906 0.5607 0.11201 0.0
H327 H 0.87675 0.34238 0.10848 0.0
H328 H 0.02388 0.47089 0.08953 0.0
H329 H 0.93729 0.44298 0.07208 0.0
C330 C 0.51591 0.46235 0.11523 0.0
C331 C 0.48621 0.449 0.11833 0.0
N332 N 0.48308 0.44839 0.13233 0.0
N333 N 0.53188 0.47073 0.12717 0.0
C334 C 0.51116 0.46131 0.13743 0.0
H335 H 0.52514 0.46481 0.10487 0.0
Co336 Co 0.57343 0.48638 0.12851 0.0
C337 C 0.5656 0.53286 0.14489 0.0
O338 O 0.53782 0.52291 0.14133 0.0
N339 N 0.61449 0.5015 0.12995 0.0
C340 C 0.66284 0.53336 0.13183 0.0
C341 C 0.63556 0.53032 0.129 0.0
C342 C 0.62957 0.48737 0.13315 0.0
N343 N 0.65904 0.50633 0.13452 0.0
O344 O 0.56745 0.46074 0.14423 0.0
H345 H 0.63129 0.54814 0.12666 0.0
H346 H 0.6191 0.46378 0.1349 0.0
O347 O 0.5792 0.51964 0.14055 0.0
C348 C 0.55802 0.43499 0.139 0.0
O349 O 0.55374 0.43167 0.12541 0.0
N350 N 0.57931 0.50838 0.11201 0.0
C351 C 0.58126 0.52728 0.08444 0.0
C352 C 0.57161 0.53846 0.09538 0.0
C353 C 0.57081 0.52872 0.10914 0.0
C354 C 0.58974 0.49821 0.10161 0.0
C355 C 0.59132 0.50764 0.08786 0.0
H356 H 0.56173 0.53622 0.1172 0.0
H357 H 0.59582 0.48163 0.10394 0.0
H358 H 0.51674 0.46394 0.14843 0.0
H359 H 0.46834 0.43959 0.11076 0.0
H360 H 0.68384 0.55392 0.13192 0.0
H361 H 0.56332 0.55341 0.09327 0.0
H362 H 0.59962 0.49886 0.07993 0.0
C363 C 0.55537 0.04493 0.11361 0.0
C364 C 0.56315 0.0252 0.11869 0.0
N365 N 0.56287 0.02592 0.13275 0.0
N366 N 0.54957 0.05812 0.12433 0.0
C367 C 0.55455 0.04612 0.13593 0.0
H368 H 0.55563 0.05029 0.1027 0.0
Co369 Co 0.54304 0.09079 0.12249 0.0
C370 C 0.4822 0.07011 0.13268 0.0
O371 O 0.47951 0.08475 0.12217 0.0
N372 N 0.53768 0.1248 0.12077 0.0
C373 C 0.52773 0.15957 0.11331 0.0
C374 C 0.52834 0.13443 0.10974 0.0
C375 C 0.54269 0.14512 0.13091 0.0
N376 N 0.53683 0.16638 0.12661 0.0
O377 O 0.56842 0.10952 0.13833 0.0
H378 H 0.52095 0.12368 0.09976 0.0
H379 H 0.54969 0.14405 0.14143 0.0
O380 O 0.50672 0.07012 0.13434 0.0
C381 C 0.59501 0.12086 0.13386 0.0
O382 O 0.59911 0.11548 0.12088 0.0
N383 N 0.52173 0.07394 0.10578 0.0
C384 C 0.50069 0.05323 0.07888 0.0
C385 C 0.48458 0.03716 0.09064 0.0
C386 C 0.49566 0.04782 0.1041 0.0
C387 C 0.53855 0.08836 0.0944 0.0
C388 C 0.5281 0.07893 0.08089 0.0
H389 H 0.48378 0.03459 0.11305 0.0
H390 H 0.56019 0.10774 0.0959 0.0
H391 H 0.55325 0.05294 0.14646 0.0
H392 H 0.57032 0.01265 0.11243 0.0
H393 H 0.52107 0.17194 0.10659 0.0
H394 H 0.46377 0.01661 0.08944 0.0
H395 H 0.54168 0.09133 0.07207 0.0
C396 C 0.5017 0.99415 0.88131 0.0
C397 C 0.52925 0.01429 0.87619 0.0
N398 N 0.54542 1.00077 0.87504 0.0
N399 N 0.50042 0.96795 0.88349 0.0
C400 C 0.52748 0.97278 0.87958 0.0
H401 H 0.48365 0.99835 0.88313 0.0
Co402 Co 0.46783 0.93284 0.89018 0.0
C403 C 0.41458 0.93755 0.88229 0.0
O404 O 0.40072 0.92304 0.89364 0.0
N405 N 0.4353 0.89705 0.89665 0.0
C406 C 0.40481 0.85672 0.90877 0.0
C407 C 0.42939 0.88461 0.90948 0.0
C408 C 0.41416 0.876 0.88834 0.0
N409 N 0.39524 0.85125 0.89542 0.0
O410 O 0.47022 0.91117 0.87446 0.0
H411 H 0.44247 0.89442 0.91877 0.0
H412 H 0.4128 0.8789 0.87721 0.0
O413 O 0.44094 0.94266 0.87985 0.0
C414 C 0.48541 0.89943 0.87847 0.0
O415 O 0.49763 0.90624 0.89095 0.0
N416 N 0.46782 0.95311 0.90655 0.0
C417 C 0.47253 0.97652 0.93342 0.0
C418 C 0.45721 0.98189 0.92273 0.0
C419 C 0.45542 0.9703 0.90929 0.0
C420 C 0.4845 0.94954 0.91651 0.0
C421 C 0.4867 0.96049 0.93002 0.0
H422 H 0.4444 0.97564 0.90124 0.0
H423 H 0.49521 0.93689 0.91407 0.0
H424 H 0.5341 0.95621 0.88005 0.0
H425 H 0.5365 0.03691 0.87317 0.0
H426 H 0.39546 0.84129 0.91737 0.0
H427 H 0.4469 0.99514 0.92468 0.0
H428 H 0.49875 0.95558 0.9378 0.0
C429 C 0.03486 0.51723 0.88217 0.0
C430 C 1.01449 0.52457 0.87728 0.0
N431 N 0.02873 0.55385 0.8747 0.0
N432 N 0.06195 0.54179 0.88279 0.0
C433 C 0.05742 0.56376 0.87812 0.0
H434 H 0.03011 0.49527 0.88511 0.0
Co435 Co 0.09702 0.54354 0.88932 0.0
C436 C 0.09097 0.48511 0.88037 0.0
O437 O 0.10909 0.48613 0.89022 0.0
N438 N 0.13259 0.54601 0.89575 0.0
C439 C 0.17179 0.55457 0.9086 0.0
C440 C 0.14397 0.55153 0.90881 0.0
C441 C 0.15429 0.54635 0.88777 0.0
N442 N 0.17835 0.55129 0.89533 0.0
O443 O 0.11861 0.56664 0.87342 0.0
H444 H 0.13335 0.55413 0.91794 0.0
H445 H 0.15223 0.54276 0.87659 0.0
O446 O 0.08521 0.5062 0.87925 0.0
C447 C 0.13066 0.59367 0.87723 0.0
O448 O 0.12357 0.59953 0.88954 0.0
N449 N 0.07707 0.52412 0.90586 0.0
C450 C 0.0554 0.50684 0.93303 0.0
C451 C 0.05235 0.48579 0.92301 0.0
C452 C 0.06314 0.49483 0.90943 0.0
C453 C 0.0785 0.54452 0.91519 0.0
C454 C 0.06817 0.5365 0.92884 0.0
H455 H 0.06001 0.4781 0.90198 0.0
H456 H 0.08908 0.56756 0.91217 0.0
H457 H 0.0746 0.58671 0.87739 0.0
H458 H 0.99108 0.50942 0.87555 0.0
H459 H 0.18635 0.55973 0.91753 0.0
H460 H 0.04174 0.4625 0.92562 0.0
H461 H 0.07122 0.55366 0.93614 0.0
C462 C 0.47285 0.50666 0.90442 0.0
C463 C 0.46429 0.47914 0.89912 0.0
N464 N 0.46958 0.48157 0.88525 0.0
N465 N 0.48395 0.52688 0.89406 0.0
C466 C 0.48151 0.51087 0.88244 0.0
H467 H 0.46969 0.51131 0.91508 0.0
Co468 Co 0.49371 0.56672 0.8962 0.0
C469 C 0.55562 0.60201 0.88642 0.0
O470 O 0.56066 0.618 0.89776 0.0
N471 N 0.50262 0.60723 0.89825 0.0
C472 C 0.51681 0.65305 0.90581 0.0
C473 C 0.51587 0.62689 0.90885 0.0
C474 C 0.49598 0.62267 0.88887 0.0
N475 N 0.50412 0.65032 0.89325 0.0
O476 O 0.46842 0.56225 0.88052 0.0
H477 H 0.52547 0.62344 0.91814 0.0
H478 H 0.48596 0.61427 0.87879 0.0
O479 O 0.52944 0.58015 0.88409 0.0
C480 C 0.44201 0.54917 0.88538 0.0
O481 O 0.43811 0.54018 0.89844 0.0
N482 N 0.51442 0.56872 0.91279 0.0
C483 C 0.53481 0.56686 0.93961 0.0
C484 C 0.54891 0.56374 0.92774 0.0
C485 C 0.53808 0.56433 0.91435 0.0
C486 C 0.49912 0.56916 0.92426 0.0
C487 C 0.50937 0.56914 0.93771 0.0
H488 H 0.54826 0.56064 0.90533 0.0
H489 H 0.47896 0.57009 0.9229 0.0
H490 H 0.4874 0.52043 0.87209 0.0
H491 H 0.4534 0.45867 0.90497 0.0
H492 H 0.52591 0.67251 0.91241 0.0
H493 H 0.56804 0.56086 0.92881 0.0
H494 H 0.4971 0.57033 0.94659 0.0
C495 C 0.67399 0.83482 0.46473 0.0
C496 C 0.69391 0.86273 0.46954 0.0
N497 N 0.67892 0.8769 0.47252 0.0
N498 N 0.64644 0.83126 0.4646 0.0
C499 C 0.65025 0.85737 0.46941 0.0
H500 H 0.67929 0.81812 0.46153 0.0
Co501 Co 0.61157 0.79708 0.45867 0.0
C502 C 0.6179 0.74622 0.47057 0.0
O503 O 0.59669 0.72593 0.46277 0.0
N504 N 0.57627 0.76325 0.45278 0.0
C505 C 0.53781 0.73085 0.44007 0.0
C506 C 0.56562 0.75563 0.43965 0.0
C507 C 0.55414 0.74317 0.46099 0.0
N508 N 0.53057 0.72293 0.45355 0.0
O509 O 0.59012 0.79983 0.47438 0.0
H510 H 0.57691 0.76763 0.43032 0.0
H511 H 0.55565 0.74314 0.47227 0.0
O512 O 0.62463 0.77336 0.46951 0.0
C513 C 0.57734 0.81377 0.47002 0.0
O514 O 0.58366 0.82508 0.45736 0.0
N515 N 0.63123 0.79616 0.44231 0.0
C516 C 0.65244 0.79857 0.41518 0.0
C517 C 0.65032 0.77715 0.42477 0.0
C518 C 0.63967 0.77631 0.43832 0.0
C519 C 0.63402 0.81762 0.43329 0.0
C520 C 0.64452 0.81924 0.41973 0.0
H521 H 0.63767 0.75928 0.44529 0.0
H522 H 0.62691 0.83297 0.43652 0.0
H523 H 0.63249 0.86224 0.47051 0.0
H524 H 0.71751 0.87165 0.471 0.0
H525 H 0.5238 0.72 0.43112 0.0
H526 H 0.65654 0.76097 0.42179 0.0
H527 H 0.64525 0.8359 0.41272 0.0
C528 C 0.1784 0.7984 0.44933 0.0
C529 C 0.15062 0.7875 0.45485 0.0
N530 N 0.15284 0.78853 0.46889 0.0
N531 N 0.19865 0.807 0.45974 0.0
C532 C 0.18227 0.80079 0.4716 0.0
H533 H 0.18303 0.79832 0.43834 0.0
Co534 Co 0.23888 0.8172 0.4573 0.0
C535 C 0.27352 0.87996 0.46634 0.0
O536 O 0.2891 0.88517 0.45487 0.0
N537 N 0.27952 0.82644 0.45483 0.0
C538 C 0.32473 0.841 0.44627 0.0
C539 C 0.29873 0.84115 0.44429 0.0
C540 C 0.29511 0.81782 0.46312 0.0
N541 N 0.32244 0.82608 0.45809 0.0
O542 O 0.23571 0.79355 0.47341 0.0
H543 H 0.29486 0.85215 0.43568 0.0
H544 H 0.28656 0.80521 0.47259 0.0
O545 O 0.25234 0.85359 0.46889 0.0
C546 C 0.22203 0.76668 0.46921 0.0
O547 O 0.21247 0.76134 0.45622 0.0
N548 N 0.23975 0.83633 0.44039 0.0
C549 C 0.23281 0.85166 0.41318 0.0
C550 C 0.23204 0.86797 0.42473 0.0
C551 C 0.23494 0.85954 0.43833 0.0
C552 C 0.23959 0.81982 0.4293 0.0
C553 C 0.23682 0.82742 0.41567 0.0
H554 H 0.23209 0.87084 0.44713 0.0
H555 H 0.24152 0.80038 0.43113 0.0
H556 H 0.19147 0.80315 0.482 0.0
H557 H 0.13016 0.77838 0.44893 0.0
H558 H 0.34398 0.85144 0.43954 0.0
H559 H 0.22803 0.88627 0.42331 0.0
H560 H 0.23762 0.81416 0.40715 0.0
C561 C 0.23651 0.38885 0.44981 0.0
C562 C 0.24523 0.36972 0.45475 0.0
N563 N 0.23981 0.36607 0.46857 0.0
N564 N 0.22501 0.39712 0.46035 0.0
C565 C 0.22768 0.38311 0.47175 0.0
H566 H 0.23953 0.39707 0.43922 0.0
Co567 Co 0.21348 0.426 0.45841 0.0
C568 C 0.15141 0.39751 0.46801 0.0
O569 O 0.14608 0.40843 0.45674 0.0
N570 N 0.20289 0.45656 0.45652 0.0
C571 C 0.18749 0.48718 0.44889 0.0
C572 C 0.18969 0.46269 0.44581 0.0
C573 C 0.20819 0.47808 0.46604 0.0
N574 N 0.19926 0.497 0.46161 0.0
O575 O 0.23775 0.44687 0.47417 0.0
H576 H 0.181 0.44996 0.43636 0.0
H577 H 0.2182 0.47992 0.47617 0.0
O578 O 0.17782 0.40239 0.47033 0.0
C579 C 0.26352 0.46353 0.46906 0.0
O580 O 0.26776 0.46055 0.45576 0.0
N581 N 0.19342 0.40727 0.44173 0.0
C582 C 0.1732 0.38578 0.41484 0.0
C583 C 0.15932 0.36807 0.4266 0.0
C584 C 0.17014 0.3791 0.44003 0.0
C585 C 0.20864 0.42346 0.43035 0.0
C586 C 0.19851 0.41354 0.41686 0.0
H587 H 0.16011 0.3649 0.44897 0.0
H588 H 0.22853 0.4447 0.43182 0.0
H589 H 0.22153 0.38593 0.48221 0.0
H590 H 0.25614 0.36037 0.44871 0.0
H591 H 0.17827 0.49723 0.44214 0.0
H592 H 0.14035 0.34603 0.42543 0.0
H593 H 0.21069 0.42735 0.40807 0.0
H594 H 0.42912 0.43662 0.12245 0.0
H595 H 0.38242 0.41489 0.13507 0.0
H596 H 0.42659 0.41124 0.17255 0.0
H597 H 0.47345 0.43173 0.1598 0.0
H598 H 0.37407 0.36047 0.16876 0.0
H599 H 0.35696 0.45643 0.1624 0.0
H600 H 0.36137 0.44233 0.14603 0.0
H601 H 0.3917 0.45836 0.15831 0.0
C602 C 0.42911 0.43102 0.13333 0.0
C603 C 0.45541 0.43607 0.14002 0.0
C604 C 0.40226 0.4189 0.14061 0.0
C605 C 0.40097 0.41191 0.15485 0.0
C606 C 0.42703 0.41665 0.16159 0.0
H607 H 0.26204 0.38134 0.21306 0.0
H608 H 0.30615 0.40077 0.19843 0.0
C609 C 0.45394 0.42863 0.15428 0.0
C610 C 0.37237 0.3993 0.16262 0.0
H611 H 0.31611 0.41223 0.17123 0.0
C612 C 0.36142 0.37182 0.16933 0.0
C613 C 0.35594 0.41421 0.1635 0.0
C614 C 0.36721 0.44459 0.1573 0.0
C615 C 0.33454 0.3588 0.1768 0.0
C616 C 0.31769 0.37331 0.17733 0.0
C617 C 0.32872 0.40085 0.17067 0.0
C618 C 0.28974 0.36148 0.18559 0.0
C619 C 0.32495 0.33008 0.18442 0.0
C620 C 0.26524 0.33317 0.18303 0.0
C621 C 0.23991 0.3218 0.19154 0.0
C622 C 0.23855 0.33864 0.20271 0.0
C623 C 0.26253 0.36752 0.20474 0.0
C624 C 0.28776 0.37876 0.19632 0.0
H625 H 0.34368 0.32584 0.1859 0.0
H626 H 0.31556 0.33013 0.19483 0.0
H627 H 0.30755 0.3115 0.17822 0.0
H628 H 0.26587 0.31966 0.17459 0.0
H629 H 0.22193 0.29949 0.18968 0.0
H630 H 0.64769 0.89284 0.21933 0.0
H631 H 0.62376 0.91379 0.20524 0.0
H632 H 0.69043 0.93765 0.17338 0.0
H633 H 0.71541 0.91764 0.18785 0.0
H634 H 0.68078 0.98318 0.1791 0.0
H635 H 0.57234 0.88158 0.1712 0.0
H636 H 0.58174 0.88868 0.18937 0.0
H637 H 0.60426 0.88064 0.17793 0.0
C638 C 0.65731 0.90243 0.20931 0.0
C639 C 0.68364 0.90362 0.20479 0.0
C640 C 0.64334 0.91416 0.20116 0.0
C641 C 0.65495 0.92701 0.18811 0.0
C642 C 0.68091 0.92773 0.18338 0.0
H643 H 0.56062 0.97379 0.12772 0.0
H644 H 0.58344 0.95101 0.14134 0.0
C645 C 0.69504 0.91602 0.1916 0.0
C646 C 0.64061 0.94082 0.17985 0.0
H647 H 0.57404 0.9274 0.16641 0.0
C648 C 0.65749 0.97092 0.17623 0.0
C649 C 0.61025 0.92487 0.17597 0.0
C650 C 0.59118 0.89209 0.17869 0.0
C651 C 0.64479 0.98553 0.16908 0.0
C652 C 0.61412 0.96986 0.16572 0.0
C653 C 0.5974 0.93965 0.16916 0.0
C654 C 0.5993 0.98374 0.15787 0.0
C655 C 0.66459 0.01745 0.16491 0.0
C656 C 0.59971 1.00944 0.16273 0.0
C657 C 0.58684 0.02284 0.1548 0.0
C658 C 0.5731 1.01068 0.14189 0.0
C659 C 0.57153 0.98418 0.13744 0.0
C660 C 0.58447 0.97097 0.14529 0.0
H661 H 0.68837 0.02366 0.16485 0.0
H662 H 0.65862 0.02181 0.15438 0.0
H663 H 0.66195 0.03197 0.17255 0.0
H664 H 0.61026 0.01934 0.17259 0.0
H665 H 0.58851 0.04318 0.15856 0.0
H666 H 0.04383 0.59169 0.12552 0.0
H667 H 0.06766 0.6362 0.14005 0.0
H668 H 1.00614 0.58905 0.17336 0.0
H669 H 0.98253 0.54422 0.15886 0.0
H670 H 0.04394 0.66748 0.1499 0.0
H671 H 0.08306 0.62879 0.19472 0.0
H672 H 0.07029 0.60813 0.17862 0.0
H673 H 0.04404 0.60582 0.1915 0.0
C674 C 0.03557 0.59072 0.13599 0.0
C675 C 1.01129 0.5644 0.14103 0.0
C676 C 0.04924 0.6162 0.14431 0.0
C677 C 0.03898 0.61607 0.15789 0.0
C678 C 1.01501 0.58963 0.16307 0.0
H679 H 0.06914 0.74855 0.21964 0.0
H680 H 0.05219 0.70442 0.20537 0.0
C681 C 1.00147 0.56398 0.15476 0.0
C682 C 0.05227 0.64407 0.16621 0.0
H683 H 0.0841 0.67475 0.1977 0.0
C684 C 0.05298 0.66911 0.1603 0.0
C685 C 0.06414 0.64634 0.17979 0.0
C686 C 0.06565 0.62093 0.18649 0.0
C687 C 0.06445 0.69597 0.16769 0.0
C688 C 0.07582 0.69804 0.18134 0.0
C689 C 0.07539 0.67315 0.18722 0.0
C690 C 0.08691 0.72537 0.18995 0.0
C691 C 0.06352 0.72169 0.161 0.0
C692 C 0.1123 0.75202 0.18609 0.0
C693 C 0.12238 0.77754 0.19438 0.0
C694 C 0.10731 0.77689 0.20671 0.0
C695 C 0.08182 0.75005 0.21043 0.0
C696 C 0.0719 0.72466 0.20221 0.0
H697 H 0.049 0.71483 0.1516 0.0
H698 H 0.05544 0.73222 0.16856 0.0
H699 H 0.08626 0.7386 0.15776 0.0
H700 H 0.12449 0.75301 0.17675 0.0
H701 H 0.1422 0.79759 0.19122 0.0
H702 H 0.46168 0.42736 0.89144 0.0
H703 H 0.44236 0.38435 0.87629 0.0
H704 H 0.43989 0.4363 0.84179 0.0
H705 H 0.45778 0.47948 0.85726 0.0
H706 H 0.39003 0.38429 0.84254 0.0
H707 H 0.48316 0.36288 0.84747 0.0
H708 H 0.46915 0.36397 0.86441 0.0
H709 H 0.4857 0.39674 0.85364 0.0
C710 C 0.45702 0.42984 0.88066 0.0
C711 C 0.46118 0.45707 0.87567 0.0
C712 C 0.44633 0.40515 0.8719 0.0
C713 C 0.44013 0.40702 0.85778 0.0
C714 C 0.44469 0.43427 0.85263 0.0
H715 H 0.39868 0.25299 0.80537 0.0
H716 H 0.42184 0.30311 0.81507 0.0
C717 C 0.45519 0.45907 0.86147 0.0
C718 C 0.42754 0.38004 0.84873 0.0
H719 H 0.43649 0.32145 0.84005 0.0
C720 C 0.40041 0.37076 0.84182 0.0
C721 C 0.44123 0.36252 0.84751 0.0
C722 C 0.47158 0.37224 0.85353 0.0
C723 C 0.38608 0.34397 0.83427 0.0
C724 C 0.39867 0.32534 0.83398 0.0
C725 C 0.4264 0.33528 0.8404 0.0
C726 C 0.38356 0.29539 0.82725 0.0
C727 C 0.35776 0.33623 0.82657 0.0
C728 C 0.35421 0.2741 0.83075 0.0
C729 C 0.34078 0.24555 0.82498 0.0
C730 C 0.35665 0.23737 0.81589 0.0
C731 C 0.38598 0.25859 0.81242 0.0
C732 C 0.39921 0.28728 0.81796 0.0
H733 H 0.35698 0.35646 0.82367 0.0
H734 H 0.35532 0.32338 0.81691 0.0
H735 H 0.33854 0.32275 0.83349 0.0
H736 H 0.34187 0.27924 0.83823 0.0
H737 H 0.31833 0.22952 0.82802 0.0
H738 H 0.76956 0.0656 0.79993 0.0
H739 H 0.7256 0.04799 0.81464 0.0
H740 H 0.76788 0.13029 0.83749 0.0
H741 H 0.81222 0.14824 0.82266 0.0
H742 H 0.72357 0.04523 0.84639 0.0
H743 H 0.68464 0.11698 0.82216 0.0
H744 H 0.7095 0.1078 0.81319 0.0
H745 H 0.72299 0.13376 0.82738 0.0
C746 C 0.76951 0.08009 0.80801 0.0
C747 C 0.79429 0.10849 0.81003 0.0
C748 C 0.74443 0.06988 0.81648 0.0
C749 C 0.7434 0.08791 0.82707 0.0
C750 C 0.7682 0.11612 0.8293 0.0
H751 H 0.58963 0.05793 0.87656 0.0
H752 H 0.63912 0.07959 0.86617 0.0
C753 C 0.79352 0.12628 0.82088 0.0
C754 C 0.71607 0.07705 0.83556 0.0
H755 H 0.6546 0.08388 0.83959 0.0
C756 C 0.70854 0.05378 0.84501 0.0
C757 C 0.69662 0.08832 0.83374 0.0
C758 C 0.70357 0.11301 0.82354 0.0
C759 C 0.68196 0.04138 0.85268 0.0
C760 C 0.66192 0.05195 0.85052 0.0
C761 C 0.66983 0.07568 0.84125 0.0
C762 C 0.63234 0.03836 0.85745 0.0
C763 C 0.67589 0.01737 0.86315 0.0
C764 C 0.61188 1.00796 0.85601 0.0
C765 C 0.58366 0.9955 0.86205 0.0
C766 C 0.57505 0.01327 0.86944 0.0
C767 C 0.59551 0.0437 0.87085 0.0
C768 C 0.62384 0.05609 0.86494 0.0
H769 H 0.69681 0.01881 0.86687 0.0
H770 H 0.66355 0.01859 0.87234 0.0
H771 H 0.66237 0.99543 0.85809 0.0
H772 H 0.61746 0.99392 0.84993 0.0
H773 H 0.56825 0.97212 0.86056 0.0
H774 H 0.05439 0.60082 0.85711 0.0
H775 H 0.03119 0.62708 0.84659 0.0
H776 H 0.95075 0.57159 0.86951 0.0
H777 H 0.97361 0.54472 0.87965 0.0
H778 H 0.93726 0.57502 0.84389 0.0
H779 H 1.01548 0.6892 0.86125 0.0
H780 H 0.0343 0.67386 0.85176 0.0
H781 H 1.01662 0.6576 0.86816 0.0
C782 C 0.03192 0.59454 0.86004 0.0
C783 C 1.01583 0.5707 0.86921 0.0
C784 C 1.01868 0.60968 0.85408 0.0
C785 C 0.9893 0.60178 0.85742 0.0
C786 C 0.97342 0.57823 0.86676 0.0
H787 H 0.91357 0.71034 0.82783 0.0
H788 H 0.93139 0.68463 0.84306 0.0
C789 C 0.98648 0.56282 0.87254 0.0
C790 C 0.97442 0.61663 0.85051 0.0
H791 H 0.98278 0.68424 0.84233 0.0
C792 C 0.94713 0.59891 0.84371 0.0
C793 C 0.98681 0.6478 0.85044 0.0
C794 C 1.01474 0.66817 0.85843 0.0
C795 C 0.93251 0.6114 0.83649 0.0
C796 C 0.94592 0.6426 0.8356 0.0
C797 C 0.97262 0.66034 0.84283 0.0
C798 C 0.93343 0.65717 0.82663 0.0
C799 C 0.90267 0.59089 0.82996 0.0
C800 C 0.92855 0.65035 0.81234 0.0
C801 C 0.91799 0.66465 0.80368 0.0
C802 C 0.91253 0.68664 0.809 0.0
C803 C 0.91717 0.69332 0.82337 0.0
C804 C 0.92762 0.6788 0.83208 0.0
H805 H 0.89106 0.5694 0.8356 0.0
H806 H 0.88818 0.60087 0.82995 0.0
H807 H 0.90593 0.58617 0.819 0.0
H808 H 0.93345 0.63429 0.80776 0.0
H809 H 0.91441 0.65859 0.79274 0.0
H810 H 0.81523 0.72287 0.82762 0.0
H811 H 0.77206 0.69576 0.84316 0.0
H812 H 0.71376 0.66741 0.80736 0.0
H813 H 0.75622 0.69415 0.79197 0.0
H814 H 0.72331 0.70746 0.84439 0.0
H815 H 0.68346 0.59044 0.8301 0.0
H816 H 0.7208 0.61987 0.82653 0.0
H817 H 0.69061 0.61461 0.81544 0.0
C818 C 0.79325 0.71036 0.82309 0.0
C819 C 0.78919 0.71078 0.80857 0.0
C820 C 0.7686 0.69497 0.83196 0.0
C821 C 0.73963 0.67924 0.82641 0.0
C822 C 0.73581 0.67888 0.8119 0.0
H823 H 0.55697 0.59208 0.85802 0.0
H824 H 0.60163 0.60967 0.84333 0.0
C825 C 0.76021 0.69444 0.80311 0.0
C826 C 0.71302 0.66539 0.83566 0.0
H827 H 0.64978 0.59995 0.8429 0.0
C828 C 0.70743 0.6839 0.84421 0.0
C829 C 0.69196 0.63472 0.8352 0.0
C830 C 0.69704 0.61366 0.82642 0.0
C831 C 0.68117 0.67277 0.85206 0.0
C832 C 0.66013 0.64203 0.85171 0.0
C833 C 0.66577 0.62346 0.84319 0.0
C834 C 0.63276 0.62889 0.86051 0.0
C835 C 0.67583 0.69434 0.86032 0.0
C836 C 0.63528 0.63274 0.87505 0.0
C837 C 0.61005 0.62309 0.88333 0.0
C838 C 0.58145 0.60875 0.87737 0.0
C839 C 0.57867 0.60314 0.8629 0.0
C840 C 0.60418 0.61323 0.85452 0.0
H841 H 0.68892 0.7172 0.85613 0.0
H842 H 0.65199 0.68782 0.86024 0.0
H843 H 0.68282 0.69474 0.87132 0.0
H844 H 0.65692 0.64381 0.88001 0.0
H845 H 0.61304 0.62726 0.89448 0.0
H846 H 0.36377 0.93903 0.88742 0.0
H847 H 0.3423 0.96312 0.87379 0.0
H848 H 0.41271 0.99128 0.84357 0.0
H849 H 0.43505 0.96788 0.85748 0.0
H850 H 0.40193 0.03542 0.8495 0.0
H851 H 0.29498 0.93403 0.83845 0.0
H852 H 0.30233 0.93961 0.85685 0.0
H853 H 0.32628 0.93279 0.8458 0.0
C854 C 0.37467 0.95012 0.87782 0.0
C855 C 0.40105 0.95123 0.8735 0.0
C856 C 0.36221 0.96381 0.86998 0.0
C857 C 0.37545 0.97852 0.85746 0.0
C858 C 0.40193 0.97989 0.85314 0.0
H859 H 0.28353 0.02718 0.79645 0.0
H860 H 0.30788 1.00515 0.80948 0.0
C861 C 0.41462 0.9664 0.86107 0.0
C862 C 0.36188 0.99291 0.84911 0.0
H863 H 0.29692 0.97995 0.83396 0.0
C864 C 0.37902 0.02325 0.84601 0.0
C865 C 0.33209 0.97702 0.84437 0.0
C866 C 0.31296 0.94401 0.84641 0.0
C867 C 0.36709 0.03818 0.83855 0.0
C868 C 0.33689 0.02255 0.83437 0.0
C869 C 0.31993 0.99212 0.8373 0.0
C870 C 0.32261 0.03684 0.82646 0.0
C871 C 0.38723 0.07037 0.83494 0.0
C872 C 0.32241 0.06198 0.83166 0.0
C873 C 0.30869 0.07495 0.82409 0.0
C874 C 0.2944 0.06268 0.8113 0.0
C875 C 0.2942 0.03722 0.80628 0.0
C876 C 0.30817 0.02455 0.81373 0.0
H877 H 0.41097 0.07647 0.83517 0.0
H878 H 0.38202 0.0756 0.82442 0.0
H879 H 0.38417 0.08435 0.84275 0.0
H880 H 0.33262 0.07147 0.84163 0.0
H881 H 0.30912 0.09443 0.8283 0.0
H882 H 0.09507 0.43487 0.88153 0.0
H883 H 0.06369 0.38756 0.86981 0.0
H884 H 1.0146 0.42386 0.84984 0.0
H885 H 0.04602 0.47144 0.86147 0.0
H886 H 1.00107 0.35051 0.87156 0.0
H887 H 0.03786 0.38822 0.81719 0.0
H888 H 0.05838 0.40947 0.83227 0.0
H889 H 0.0256 0.40986 0.82666 0.0
C890 C 0.07779 0.43296 0.87455 0.0
C891 C 0.07322 0.45711 0.8724 0.0
C892 C 0.05976 0.4058 0.86791 0.0
C893 C 0.03691 0.40217 0.85888 0.0
C894 C 0.03237 0.42624 0.85661 0.0
H895 H 0.91365 0.26211 0.80461 0.0
H896 H 0.93828 0.3054 0.81984 0.0
C897 C 0.05037 0.45346 0.86328 0.0
C898 C 1.01768 0.37311 0.85196 0.0
H899 H 0.99733 0.33974 0.81998 0.0
C900 C 1.00025 0.34808 0.86028 0.0
C901 C 1.0167 0.36996 0.83726 0.0
C902 C 0.0358 0.3957 0.82779 0.0
C903 C 0.98135 0.32014 0.85426 0.0
C904 C 0.98028 0.31703 0.83954 0.0
C905 C 0.99794 0.34208 0.83126 0.0
C906 C 0.96108 0.28827 0.8323 0.0
C907 C 0.9622 0.29443 0.86371 0.0
C908 C 0.96457 0.2635 0.83459 0.0
C909 C 0.9499 0.23832 0.82601 0.0
C910 C 0.93197 0.23782 0.81489 0.0
C911 C 0.92719 0.26186 0.81317 0.0
C912 C 0.94144 0.28671 0.82181 0.0
H913 H 0.95934 0.30203 0.87415 0.0
H914 H 0.93995 0.28006 0.85902 0.0
H915 H 0.97296 0.28088 0.86529 0.0
H916 H 0.98001 0.26431 0.84241 0.0
H917 H 0.9545 0.22038 0.82735 0.0
H918 H 0.70556 0.80677 0.19252 0.0
H919 H 0.67313 0.76104 0.17933 0.0
H920 H 0.70189 0.71275 0.2054 0.0
H921 H 0.73407 0.7576 0.2184 0.0
H922 H 0.69035 0.71924 0.16513 0.0
H923 H 0.60824 0.66751 0.20792 0.0
H924 H 0.63316 0.70702 0.20674 0.0
H925 H 0.64641 0.68336 0.21317 0.0
C926 C 0.70503 0.78642 0.19538 0.0
C927 C 0.72239 0.78598 0.20659 0.0
C928 C 0.6865 0.76033 0.18785 0.0
C929 C 0.68483 0.73339 0.19151 0.0
C930 C 0.7025 0.73313 0.2025 0.0
H931 H 0.62487 0.56357 0.15194 0.0
H932 H 0.65269 0.61279 0.16253 0.0
C933 C 0.72101 0.75899 0.20991 0.0
C934 C 0.66475 0.7052 0.18407 0.0
H935 H 0.60598 0.63563 0.18956 0.0
C936 C 0.67167 0.70106 0.17038 0.0
C937 C 0.64031 0.6815 0.19092 0.0
C938 C 0.63133 0.685 0.20546 0.0
C939 C 0.65542 0.67352 0.16356 0.0
C940 C 0.63183 0.64939 0.17066 0.0
C941 C 0.62423 0.65394 0.18415 0.0
C942 C 0.61485 0.61922 0.16434 0.0
C943 C 0.66367 0.67048 0.14879 0.0
C944 C 0.58408 0.60588 0.16224 0.0
C945 C 0.56806 0.57765 0.15621 0.0
C946 C 0.58237 0.56192 0.15224 0.0
C947 C 0.61308 0.57502 0.15473 0.0
C948 C 0.62911 0.60332 0.16071 0.0
H949 H 0.67655 0.69236 0.1436 0.0
H950 H 0.67764 0.65994 0.149 0.0
H951 H 0.64358 0.65631 0.14243 0.0
H952 H 0.5725 0.61754 0.16507 0.0
H953 H 0.54446 0.56833 0.15451 0.0
H954 H 0.26337 0.89797 0.21258 0.0
H955 H 0.30682 0.92215 0.19743 0.0
H956 H 0.2632 0.95803 0.17246 0.0
H957 H 0.21937 0.93375 0.18777 0.0
H958 H 0.31838 0.92329 0.16823 0.0
H959 H 0.33797 0.03168 0.18828 0.0
H960 H 0.31173 0.99695 0.19626 0.0
H961 H 0.30237 1.00854 0.18029 0.0
C962 C 0.26266 0.91031 0.20362 0.0
C963 C 0.23795 0.91397 0.20136 0.0
C964 C 0.28759 0.9242 0.19498 0.0
C965 C 0.28858 0.94239 0.18397 0.0
C966 C 0.2631 0.94441 0.18103 0.0
H967 H 0.42987 0.06975 0.1319 0.0
H968 H 0.38426 0.03793 0.14439 0.0
C969 C 0.2379 0.93023 0.18965 0.0
C970 C 0.31716 0.96104 0.17648 0.0
H971 H 0.37206 0.03285 0.1718 0.0
C972 C 0.33011 0.94726 0.16896 0.0
C973 C 0.3327 0.99229 0.17762 0.0
C974 C 0.32072 1.00836 0.18613 0.0
C975 C 0.35774 0.96391 0.16223 0.0
C976 C 0.37323 0.99521 0.16333 0.0
C977 C 0.36031 1.00889 0.17096 0.0
C978 C 0.40184 0.01444 0.15592 0.0
C979 C 0.36969 0.94788 0.1537 0.0
C980 C 0.42747 0.01236 0.15835 0.0
C981 C 0.454 0.03071 0.15109 0.0
C982 C 0.45536 0.05156 0.14133 0.0
C983 C 0.4298 0.05392 0.13925 0.0
C984 C 0.40353 0.03568 0.14642 0.0
H985 H 0.35214 0.92487 0.15118 0.0
H986 H 0.37958 0.9598 0.14378 0.0
H987 H 0.38729 0.94673 0.15975 0.0
H988 H 0.42701 0.99662 0.16587 0.0
H989 H 0.47323 0.02834 0.15298 0.0
H990 H 0.04269 0.28768 0.22038 0.0
H991 H 0.02886 0.31807 0.20647 0.0
H992 H 0.10288 0.34142 0.179 0.0
H993 H 0.11726 0.31102 0.19303 0.0
H994 H 0.06752 0.38284 0.19913 0.0
H995 H 0.02457 0.3053 0.15385 0.0
H996 H 0.02828 0.29335 0.17109 0.0
H997 H 0.06064 0.31508 0.16064 0.0
C998 C 0.05613 0.29918 0.21138 0.0
C999 C 0.08107 0.29671 0.2078 0.0
C1000 C 0.04821 0.3167 0.20348 0.0
C1001 C 0.06477 0.33196 0.19171 0.0
C1002 C 0.08972 0.3297 0.18804 0.0
H1003 H 0.02163 0.4192 0.12626 0.0
H1004 H 0.04692 0.40105 0.14135 0.0
C1005 C 0.09789 0.31231 0.19605 0.0
C1006 C 0.05524 0.34958 0.18318 0.0
H1007 H 0.02136 0.34848 0.15243 0.0
C1008 C 0.05761 0.37552 0.18886 0.0
C1009 C 0.04223 0.3399 0.16985 0.0
C1010 C 0.03851 0.31181 0.16344 0.0
C1011 C 0.04753 0.39221 0.18148 0.0
C1012 C 0.03395 0.38222 0.16822 0.0
C1013 C 0.03179 0.35629 0.16256 0.0
C1014 C 0.02174 0.39797 0.15989 0.0
C1015 C 0.05207 0.42063 0.18787 0.0
C1016 C 0.99977 0.40344 0.16534 0.0
C1017 C 0.98567 0.41456 0.15672 0.0
C1018 C 0.9929 0.41973 0.14247 0.0
C1019 C 1.01567 0.41545 0.13722 0.0
C1020 C 0.03005 0.40491 0.14584 0.0
H1021 H 0.07056 0.42977 0.19557 0.0
H1022 H 0.05689 0.43764 0.17974 0.0
H1023 H 0.03159 0.41616 0.19346 0.0
H1024 H 0.99239 0.39767 0.17604 0.0
H1025 H 0.96781 0.41716 0.16094 0.0
H1026 H 0.15106 0.80538 0.49567 0.0
H1027 H 0.10797 0.78325 0.51151 0.0
H1028 H 0.05587 0.71988 0.47961 0.0
H1029 H 0.09845 0.74115 0.46406 0.0
H1030 H 0.05088 0.77711 0.50688 0.0
H1031 H 0.04197 0.66754 0.51382 0.0
H1032 H 0.07502 0.69925 0.50711 0.0
H1033 H 0.04375 0.67792 0.4958 0.0
C1034 C 0.13049 0.78653 0.49214 0.0
C1035 C 0.12821 0.77524 0.47855 0.0
C1036 C 0.10587 0.77399 0.50115 0.0
C1037 C 0.07875 0.74966 0.4968 0.0
C1038 C 0.07661 0.7383 0.4833 0.0
H1039 H 0.89791 0.64058 0.52526 0.0
H1040 H 0.94475 0.66547 0.51232 0.0
C1041 C 0.10099 0.75081 0.47433 0.0
C1042 C 0.05214 0.73653 0.50601 0.0
H1043 H 0.99937 0.67095 0.52018 0.0
C1044 C 0.03982 0.75401 0.50997 0.0
C1045 C 0.0376 0.70633 0.50995 0.0
C1046 C 0.05039 0.68672 0.50657 0.0
C1047 C 1.0128 0.74183 0.51731 0.0
C1048 C 0.99794 0.71145 0.52098 0.0
C1049 C 1.0106 0.69416 0.51727 0.0
C1050 C 0.96922 0.69712 0.52868 0.0
C1051 C 0.99987 0.76135 0.52063 0.0
C1052 C 0.96735 0.70653 0.54219 0.0
C1053 C 0.94057 0.69243 0.54957 0.0
C1054 C 0.91502 0.66845 0.54366 0.0
C1055 C 0.91694 0.65916 0.53008 0.0
C1056 C 0.9438 0.67326 0.52271 0.0
H1057 H 1.00987 0.78169 0.51411 0.0
H1058 H 0.97545 0.74926 0.519 0.0
H1059 H 1.00433 0.76821 0.53176 0.0
H1060 H 0.98673 0.72455 0.54712 0.0
H1061 H 0.93992 0.70039 0.55994 0.0
H1062 H 0.25804 0.37806 0.49573 0.0
H1063 H 0.27774 0.35258 0.51005 0.0
H1064 H 0.26135 0.29155 0.47624 0.0
H1065 H 0.2411 0.31632 0.46214 0.0
H1066 H 0.24561 0.26346 0.50161 0.0
H1067 H 0.35946 0.36087 0.50401 0.0
H1068 H 0.33087 0.36748 0.51043 0.0
H1069 H 0.33142 0.35903 0.49225 0.0
C1070 C 0.25821 0.35893 0.49146 0.0
C1071 C 0.24827 0.34943 0.47773 0.0
C1072 C 0.26983 0.3446 0.49958 0.0
C1073 C 0.27167 0.3205 0.49412 0.0
C1074 C 0.26048 0.31023 0.48066 0.0
H1075 H 0.38364 0.25042 0.52446 0.0
H1076 H 0.35942 0.27122 0.50995 0.0
C1077 C 0.24901 0.32453 0.47257 0.0
C1078 C 0.28555 0.30604 0.50219 0.0
H1079 H 0.3508 0.3186 0.51697 0.0
C1080 C 0.2686 0.27555 0.50499 0.0
C1081 C 0.31574 0.32161 0.50636 0.0
C1082 C 0.33559 0.35399 0.50302 0.0
C1083 C 0.28082 0.26038 0.512 0.0
C1084 C 0.31075 0.27613 0.51653 0.0
C1085 C 0.32784 0.30652 0.51355 0.0
C1086 C 0.32442 0.26174 0.5248 0.0
C1087 C 0.26165 0.22747 0.51428 0.0
C1088 C 0.31276 0.24928 0.5379 0.0
C1089 C 0.32645 0.23735 0.54612 0.0
C1090 C 0.35229 0.23767 0.54151 0.0
C1091 C 0.3636 0.24949 0.52823 0.0
C1092 C 0.34991 0.26161 0.52 0.0
H1093 H 0.24273 0.21742 0.50682 0.0
H1094 H 0.27474 0.21609 0.51315 0.0
H1095 H 0.25241 0.22342 0.52502 0.0
H1096 H 0.29344 0.24948 0.54196 0.0
H1097 H 0.31704 0.22826 0.55624 0.0
H1098 H 0.65114 0.89676 0.48967 0.0
H1099 H 0.67265 0.94579 0.50055 0.0
H1100 H 0.75565 0.97268 0.47971 0.0
H1101 H 0.73427 0.92374 0.46872 0.0
H1102 H 0.72909 0.9715 0.5179 0.0
H1103 H 0.73442 0.04096 0.47255 0.0
H1104 H 0.70818 1.00167 0.47328 0.0
H1105 H 0.74665 0.0145 0.47005 0.0
C1106 C 0.67381 0.91323 0.48722 0.0
C1107 C 0.69099 0.90629 0.47833 0.0
C1108 C 0.68611 0.94119 0.49349 0.0
C1109 C 0.71566 0.96292 0.49084 0.0
C1110 C 0.73272 0.95632 0.48178 0.0
H1111 H 0.82309 0.14323 0.5251 0.0
H1112 H 0.80478 0.09876 0.51023 0.0
C1113 C 0.72054 0.92827 0.47561 0.0
C1114 C 0.72916 0.99173 0.49831 0.0
H1115 H 0.75384 0.06555 0.49401 0.0
C1116 C 0.73452 0.99207 0.51269 0.0
C1117 C 0.73664 0.01856 0.49142 0.0
C1118 C 0.73113 0.01917 0.47598 0.0
C1119 C 0.74699 0.0185 0.52042 0.0
C1120 C 0.75348 0.04527 0.51368 0.0
C1121 C 0.74875 0.04505 0.49919 0.0
C1122 C 0.76381 0.07322 0.5217 0.0
C1123 C 0.75342 0.01746 0.53575 0.0
C1124 C 0.74642 0.07406 0.53268 0.0
C1125 C 0.75691 0.0991 0.54115 0.0
C1126 C 0.78485 0.12417 0.53873 0.0
C1127 C 0.80155 0.12414 0.5272 0.0
C1128 C 0.79112 0.09878 0.51876 0.0
H1129 H 0.75621 0.99816 0.53817 0.0
H1130 H 0.77379 0.03797 0.53908 0.0
H1131 H 0.73449 0.01523 0.54202 0.0
H1132 H 0.72487 0.05504 0.53489 0.0
H1133 H 0.74324 0.09877 0.54975 0.0
H1134 H 0.37117 0.08277 0.55928 0.0
H1135 H 0.34478 0.03978 0.54412 0.0
H1136 H 0.36082 0.09714 0.50878 0.0
H1137 H 0.38753 0.14083 0.52407 0.0
H1138 H 0.29409 0.02155 0.52536 0.0
H1139 H 0.3981 0.04432 0.49838 0.0
H1140 H 0.39838 0.06139 0.51485 0.0
H1141 H 0.38998 0.07402 0.49896 0.0
C1142 C 0.369 0.08642 0.5483 0.0
C1143 C 0.38178 0.11535 0.54286 0.0
C1144 C 0.35372 0.0617 0.53965 0.0
C1145 C 0.35105 0.06515 0.5253 0.0
C1146 C 0.36286 0.09395 0.51983 0.0
H1147 H 0.29725 0.93697 0.45813 0.0
H1148 H 0.31276 0.98081 0.47246 0.0
C1149 C 0.37798 0.11889 0.52857 0.0
C1150 C 0.33727 0.03842 0.51614 0.0
H1151 H 0.35421 1.00159 0.49164 0.0
C1152 C 0.30713 0.01723 0.51789 0.0
C1153 C 0.35437 0.03266 0.50652 0.0
C1154 C 0.38706 0.0541 0.50456 0.0
C1155 C 0.29354 0.99065 0.51014 0.0
C1156 C 0.31075 0.98468 0.50064 0.0
C1157 C 0.34091 1.00601 0.4989 0.0
C1158 C 0.29814 0.95703 0.49202 0.0
C1159 C 0.26076 0.96956 0.51201 0.0
C1160 C 0.28405 0.9286 0.49813 0.0
C1161 C 0.27465 0.90311 0.48982 0.0
C1162 C 0.27977 0.90572 0.47533 0.0
C1163 C 0.29321 0.93411 0.46928 0.0
C1164 C 0.30214 0.95932 0.47748 0.0
H1165 H 0.24935 0.98094 0.5164 0.0
H1166 H 0.25002 0.95905 0.50194 0.0
H1167 H 0.25757 0.95184 0.51943 0.0
H1168 H 0.28121 0.92613 0.50935 0.0
H1169 H 0.26458 0.88159 0.4948 0.0
H1170 H 0.0935 0.36728 0.46046 0.0
H1171 H 0.05014 0.33999 0.47528 0.0
H1172 H 0.10695 0.35647 0.51101 0.0
H1173 H 0.15105 0.38414 0.49606 0.0
H1174 H 0.03186 0.28948 0.49378 0.0
H1175 H 0.05304 0.3926 0.52104 0.0
H1176 H 0.07085 0.39328 0.50475 0.0
H1177 H 0.08297 0.38471 0.52075 0.0
C1178 C 0.09695 0.365 0.47146 0.0
C1179 C 0.12581 0.37823 0.47712 0.0
C1180 C 0.07203 0.3492 0.4799 0.0
C1181 C 0.07521 0.34643 0.49427 0.0
C1182 C 0.10398 0.35859 0.49995 0.0
H1183 H 0.94365 0.29122 0.55986 0.0
H1184 H 0.98829 0.30662 0.54614 0.0
C1185 C 0.12915 0.37425 0.49141 0.0
C1186 C 0.0482 0.33236 0.50321 0.0
H1187 H 1.01001 0.34862 0.52724 0.0
C1188 C 0.02713 0.30229 0.50121 0.0
C1189 C 0.04191 0.34917 0.51275 0.0
C1190 C 0.06319 0.38178 0.51495 0.0
C1191 C 1.00013 0.28852 0.50863 0.0
C1192 C 0.99363 0.30547 0.51804 0.0
C1193 C 1.01486 0.33553 0.52005 0.0
C1194 C 0.96549 0.29271 0.52626 0.0
C1195 C 0.97911 0.25586 0.50648 0.0
C1196 C 0.93736 0.27902 0.51976 0.0
C1197 C 0.91141 0.26969 0.52771 0.0
C1198 C 0.9133 0.27451 0.54222 0.0
C1199 C 0.94138 0.28746 0.54867 0.0
C1200 C 0.96703 0.29631 0.54083 0.0
H1201 H 0.99074 0.2446 0.50223 0.0
H1202 H 0.9681 0.24491 0.51642 0.0
H1203 H 0.9617 0.25284 0.49886 0.0
H1204 H 0.9355 0.27648 0.50851 0.0
H1205 H 0.89012 0.25997 0.52245 0.0
H1206 H 0.81865 0.70856 0.53274 0.0
H1207 H 0.78752 0.72579 0.52177 0.0
H1208 H 0.71574 0.63561 0.51843 0.0
H1209 H 0.74647 0.61822 0.52964 0.0
H1210 H 0.76059 0.71493 0.4964 0.0
H1211 H 0.67512 0.67429 0.53795 0.0
H1212 H 0.71024 0.6757 0.54016 0.0
H1213 H 0.68051 0.64562 0.5307 0.0
C1214 C 0.79626 0.69234 0.52965 0.0
C1215 C 0.78502 0.66199 0.53221 0.0
C1216 C 0.77846 0.70226 0.52339 0.0
C1217 C 0.74902 0.6821 0.51955 0.0
C1218 C 0.73807 0.65171 0.52166 0.0
H1219 H 0.60751 0.6906 0.47652 0.0
H1220 H 0.63993 0.67672 0.48882 0.0
C1221 C 0.75579 0.64177 0.52798 0.0
C1222 C 0.72991 0.69284 0.51323 0.0
H1223 H 0.66354 0.69084 0.51689 0.0
C1224 C 0.73949 0.70987 0.50095 0.0
C1225 C 0.70239 0.68638 0.51919 0.0
C1226 C 0.69156 0.66975 0.5328 0.0
C1227 C 0.72197 0.71982 0.49427 0.0
C1228 C 0.69424 0.71284 0.50009 0.0
C1229 C 0.68478 0.69613 0.51243 0.0
C1230 C 0.67422 0.72172 0.4932 0.0
C1231 C 0.73285 0.73699 0.48081 0.0
C1232 C 0.68238 0.75168 0.49185 0.0
C1233 C 0.66377 0.75975 0.48487 0.0
C1234 C 0.63666 0.73798 0.47906 0.0
C1235 C 0.62826 0.70799 0.48078 0.0
C1236 C 0.64677 0.69997 0.48783 0.0
H1237 H 0.75176 0.73557 0.4763 0.0
H1238 H 0.71468 0.72874 0.47295 0.0
H1239 H 0.74036 0.76066 0.48284 0.0
H1240 H 0.70327 0.76883 0.49612 0.0
H1241 H 0.67092 0.78304 0.48378 0.0
H1242 H 0.17715 0.31305 0.28966 0.0
H1243 H 0.17899 0.32733 0.31406 0.0
H1244 H 0.10014 0.33355 0.30802 0.0
H1245 H 0.09756 0.31819 0.28354 0.0
H1246 H 0.18392 0.37731 0.3257 0.0
H1247 H 0.07828 0.27819 0.34176 0.0
H1248 H 0.09607 0.28027 0.32528 0.0
H1249 H 0.07519 0.2989 0.32748 0.0
C1250 C 0.16004 0.31725 0.29352 0.0
C1251 C 0.13693 0.31404 0.2847 0.0
C1252 C 0.16123 0.32558 0.30746 0.0
C1253 C 0.13939 0.33094 0.31295 0.0
C1254 C 0.11687 0.32888 0.30408 0.0
H1255 H 0.16447 0.41649 0.39418 0.0
H1256 H 0.15331 0.40273 0.36954 0.0
C1257 C 0.11563 0.32047 0.29006 0.0
C1258 C 0.14064 0.33876 0.32796 0.0
H1259 H 0.10394 0.31468 0.35906 0.0
C1260 C 0.16636 0.36372 0.33298 0.0
C1261 C 0.11789 0.32072 0.33748 0.0
C1262 C 0.09038 0.29286 0.33281 0.0
C1263 C 0.17007 0.37105 0.34724 0.0
C1264 C 0.14713 0.35331 0.35673 0.0
C1265 C 0.12135 0.32838 0.35174 0.0
C1266 C 0.1501 0.35998 0.37193 0.0
C1267 C 0.19899 0.3972 0.35205 0.0
C1268 C 0.15042 0.33984 0.3816 0.0
C1269 C 0.15651 0.34755 0.39574 0.0
C1270 C 0.16246 0.37555 0.4004 0.0
C1271 C 0.16048 0.39495 0.39082 0.0
C1272 C 0.15418 0.38717 0.37675 0.0
H1273 H 0.21685 0.40367 0.34417 0.0
H1274 H 0.19579 0.41646 0.35376 0.0
H1275 H 0.2065 0.39227 0.36205 0.0
H1276 H 0.14715 0.31866 0.3781 0.0
H1277 H 0.15798 0.33221 0.40289 0.0
H1278 H 0.72612 0.8729 0.28999 0.0
H1279 H 0.71315 0.8607 0.31453 0.0
H1280 H 0.68666 0.76957 0.30622 0.0
H1281 H 0.70038 0.78173 0.28151 0.0
H1282 H 0.646 0.78347 0.3242 0.0
H1283 H 0.76364 0.83748 0.34156 0.0
H1284 H 0.75465 0.85861 0.32969 0.0
H1285 H 0.75228 0.8248 0.32383 0.0
C1286 C 0.71773 0.85025 0.29333 0.0
C1287 C 0.71481 0.8284 0.28378 0.0
C1288 C 0.71021 0.84332 0.30738 0.0
C1289 C 0.69941 0.81437 0.31222 0.0
C1290 C 0.69516 0.79211 0.30268 0.0
H1291 H 0.63782 0.751 0.39793 0.0
H1292 H 0.64968 0.75182 0.37311 0.0
C1293 C 0.70285 0.79907 0.28856 0.0
C1294 C 0.69325 0.80791 0.32734 0.0
H1295 H 0.72736 0.82483 0.35926 0.0
C1296 C 0.66371 0.79208 0.3319 0.0
C1297 C 0.71646 0.81932 0.33731 0.0
C1298 C 0.74859 0.83583 0.33291 0.0
C1299 C 0.65673 0.78853 0.34624 0.0
C1300 C 0.67999 0.80059 0.35625 0.0
C1301 C 0.70954 0.81561 0.35162 0.0
C1302 C 0.67421 0.79962 0.37153 0.0
C1303 C 0.62452 0.77318 0.35052 0.0
C1304 C 0.68516 0.82615 0.37908 0.0
C1305 C 0.67889 0.82576 0.39331 0.0
C1306 C 0.66147 0.79879 0.40036 0.0
C1307 C 0.65141 0.77218 0.39288 0.0
C1308 C 0.65781 0.7726 0.37863 0.0
H1309 H 0.60981 0.77147 0.3417 0.0
H1310 H 0.61767 0.75041 0.35409 0.0
H1311 H 0.62108 0.7851 0.35928 0.0
H1312 H 0.69812 0.84728 0.37388 0.0
H1313 H 0.6875 0.84667 0.39876 0.0
H1314 H 0.22207 0.93708 0.28625 0.0
H1315 H 0.23216 0.93371 0.311 0.0
H1316 H 0.19145 0.83888 0.30712 0.0
H1317 H 0.1815 0.84212 0.28238 0.0
H1318 H 0.19272 0.90503 0.33186 0.0
H1319 H 0.26813 0.85942 0.32678 0.0
H1320 H 0.25862 0.87492 0.31214 0.0
H1321 H 0.23366 0.83754 0.31772 0.0
C1322 C 0.21546 0.91553 0.29065 0.0
C1323 C 0.20111 0.88988 0.28232 0.0
C1324 C 0.22128 0.91364 0.30479 0.0
C1325 C 0.21296 0.8861 0.31089 0.0
C1326 C 0.19879 0.86047 0.30258 0.0
H1327 H 0.20006 0.81301 0.39239 0.0
H1328 H 0.19644 0.82401 0.36792 0.0
C1329 C 0.1931 0.86235 0.28842 0.0
C1330 C 0.21773 0.88396 0.32609 0.0
H1331 H 0.24752 0.85647 0.34947 0.0
C1332 C 0.20502 0.89475 0.33572 0.0
C1333 C 0.23389 0.87065 0.33113 0.0
C1334 C 0.24961 0.86025 0.3214 0.0
C1335 C 0.20705 0.89154 0.35021 0.0
C1336 C 0.22237 0.87737 0.35519 0.0
C1337 C 0.23566 0.86721 0.3456 0.0
C1338 C 0.22364 0.87145 0.37028 0.0
C1339 C 0.19196 0.90235 0.36009 0.0
C1340 C 0.23996 0.89457 0.37978 0.0
C1341 C 0.24232 0.88835 0.39384 0.0
C1342 C 0.22852 0.85887 0.39859 0.0
C1343 C 0.21152 0.83592 0.38906 0.0
C1344 C 0.20928 0.84215 0.37506 0.0
H1345 H 0.17718 0.90863 0.35452 0.0
H1346 H 0.17867 0.88501 0.36793 0.0
H1347 H 0.20904 0.92206 0.36583 0.0
H1348 H 0.25146 0.91735 0.37625 0.0
H1349 H 0.25574 0.9065 0.40087 0.0
H1350 H 0.40075 0.20865 0.62681 0.0
H1351 H 0.38637 0.19825 0.65121 0.0
H1352 H 0.33831 0.10461 0.64231 0.0
H1353 H 0.35432 0.1148 0.61785 0.0
H1354 H 0.33463 0.17377 0.66327 0.0
H1355 H 0.3869 0.1061 0.6753 0.0
H1356 H 0.39389 0.12662 0.65923 0.0
H1357 H 0.36038 0.09153 0.66129 0.0
C1358 C 0.38759 0.18575 0.63002 0.0
C1359 C 0.37928 0.16254 0.62034 0.0
C1360 C 0.37911 0.17985 0.64401 0.0
C1361 C 0.36177 0.15062 0.64873 0.0
C1362 C 0.3524 0.12734 0.63903 0.0
H1363 H 0.27451 0.11789 0.72996 0.0
H1364 H 0.28527 0.11947 0.705 0.0
C1365 C 0.3612 0.13322 0.62499 0.0
C1366 C 0.35326 0.14506 0.66376 0.0
H1367 H 0.35765 0.11017 0.69319 0.0
C1368 C 0.33966 0.15982 0.66979 0.0
C1369 C 0.36021 0.12724 0.67237 0.0
C1370 C 0.37641 0.11218 0.66678 0.0
C1371 C 0.33305 0.1575 0.68412 0.0
C1372 C 0.33916 0.13897 0.69265 0.0
C1373 C 0.3527 0.12413 0.68664 0.0
C1374 C 0.33213 0.13526 0.70785 0.0
C1375 C 0.32053 0.17583 0.69001 0.0
C1376 C 0.3545 0.14196 0.71784 0.0
C1377 C 0.34822 0.14047 0.73217 0.0
C1378 C 0.31952 0.13249 0.73672 0.0
C1379 C 0.29696 0.12467 0.72672 0.0
C1380 C 0.30312 0.12571 0.71246 0.0
H1381 H 0.32567 0.19509 0.68322 0.0
H1382 H 0.29603 0.16197 0.6907 0.0
H1383 H 0.32942 0.18418 0.70064 0.0
H1384 H 0.37701 0.14916 0.71455 0.0
H1385 H 0.36598 0.14654 0.73967 0.0
H1386 H 0.85941 0.1806 0.73388 0.0
H1387 H 0.85561 0.18947 0.70906 0.0
H1388 H 0.95052 0.22956 0.70487 0.0
H1389 H 0.95449 0.22058 0.72971 0.0
H1390 H 0.88001 0.24073 0.69368 0.0
H1391 H 0.92058 0.16683 0.6744 0.0
H1392 H 0.91022 0.16691 0.69238 0.0
H1393 H 0.94558 0.19551 0.68607 0.0
C1394 C 0.87953 0.19163 0.72773 0.0
C1395 C 0.90725 0.19977 0.73376 0.0
C1396 C 0.87731 0.19653 0.71352 0.0
C1397 C 0.90271 0.20964 0.70504 0.0
C1398 C 0.93053 0.21869 0.71112 0.0
H1399 H 0.91683 0.25144 0.61522 0.0
H1400 H 0.92929 0.248 0.6397 0.0
C1401 C 0.93277 0.21365 0.72532 0.0
C1402 C 0.89987 0.21377 0.68986 0.0
H1403 H 0.91073 0.19363 0.65733 0.0
C1404 C 0.88681 0.23049 0.68574 0.0
C1405 C 0.90881 0.20043 0.67949 0.0
C1406 C 0.92184 0.18119 0.68326 0.0
C1407 C 0.88223 0.23405 0.67157 0.0
C1408 C 0.89068 0.22032 0.66125 0.0
C1409 C 0.90439 0.20419 0.6653 0.0
C1410 C 0.88365 0.22099 0.64629 0.0
C1411 C 0.86822 0.25237 0.66773 0.0
C1412 C 0.85399 0.20619 0.64186 0.0
C1413 C 0.84686 0.20788 0.62795 0.0
C1414 C 0.86924 0.22453 0.61814 0.0
C1415 C 0.89909 0.23841 0.6225 0.0
C1416 C 0.90623 0.23659 0.63647 0.0
H1417 H 0.86938 0.26693 0.67648 0.0
H1418 H 0.87922 0.2663 0.65842 0.0
H1419 H 0.84449 0.23739 0.6651 0.0
H1420 H 0.8363 0.19353 0.64922 0.0
H1421 H 0.82369 0.19626 0.62489 0.0
H1422 H 0.78805 0.67876 0.73458 0.0
H1423 H 0.7771 0.6607 0.71046 0.0
H1424 H 0.86704 0.72363 0.69867 0.0
H1425 H 0.87889 0.7398 0.72273 0.0
H1426 H 0.77659 0.6855 0.68679 0.0
H1427 H 0.8611 0.65167 0.6821 0.0
H1428 H 0.85237 0.66202 0.69863 0.0
H1429 H 0.87824 0.68996 0.68682 0.0
C1430 C 0.80571 0.68833 0.72693 0.0
C1431 C 0.8344 0.71087 0.73075 0.0
C1432 C 0.7993 0.67818 0.71308 0.0
C1433 C 0.82137 0.69039 0.70272 0.0
C1434 C 0.84978 0.7132 0.70647 0.0
H1435 H 0.78841 0.67796 0.61241 0.0
H1436 H 0.79549 0.69266 0.63697 0.0
C1437 C 0.85636 0.7229 0.72029 0.0
C1438 C 0.8148 0.67983 0.68796 0.0
H1439 H 0.8414 0.65807 0.66058 0.0
C1440 C 0.79055 0.67916 0.6811 0.0
C1441 C 0.83264 0.67103 0.68053 0.0
C1442 C 0.8573 0.66838 0.68747 0.0
C1443 C 0.78405 0.67054 0.66699 0.0
C1444 C 0.80303 0.66352 0.65933 0.0
C1445 C 0.82698 0.66379 0.6663 0.0
C1446 C 0.79812 0.65472 0.64428 0.0
C1447 C 0.7565 0.66839 0.66061 0.0
C1448 C 0.7984 0.62915 0.63998 0.0
C1449 C 0.79572 0.62139 0.62587 0.0
C1450 C 0.79189 0.63855 0.61556 0.0
C1451 C 0.79141 0.66413 0.6199 0.0
C1452 C 0.79488 0.67232 0.63406 0.0
H1453 H 0.73983 0.6649 0.66874 0.0
H1454 H 0.7625 0.68944 0.65517 0.0
H1455 H 0.74605 0.64998 0.65294 0.0
H1456 H 0.80111 0.61524 0.64756 0.0
H1457 H 0.79734 0.60214 0.62312 0.0
H1458 H 0.95833 0.41446 0.05837 0.0
H1459 H 0.97277 0.42004 0.03375 0.0
H1460 H 0.0442 0.50869 0.04208 0.0
H1461 H 0.03026 0.50279 0.06684 0.0
H1462 H 0.97109 0.45769 0.01596 0.0
H1463 H 0.08624 0.47832 0.01797 0.0
H1464 H 0.06168 0.46467 0.03283 0.0
H1465 H 0.08115 0.50357 0.02874 0.0
C1466 C 0.97746 0.43493 0.05497 0.0
C1467 C 0.99323 0.45818 0.0645 0.0
C1468 C 0.98567 0.43812 0.04091 0.0
C1469 C 1.00973 0.46469 0.03603 0.0
C1470 C 0.02602 0.48771 0.04561 0.0
H1471 H 0.02962 0.52863 0.9509 0.0
H1472 H 1.01857 0.51757 0.97567 0.0
C1473 C 1.01801 0.48437 0.05976 0.0
C1474 C 1.01604 0.469 0.02077 0.0
H1475 H 0.07072 0.48943 0.99636 0.0
C1476 C 0.99285 0.4644 0.01168 0.0
C1477 C 0.0443 0.47743 0.01512 0.0
C1478 C 0.06968 0.48099 0.02416 0.0
C1479 C 0.99721 0.46845 0.99719 0.0
C1480 C 0.0258 0.47821 0.99161 0.0
C1481 C 0.04887 0.48224 1.00064 0.0
C1482 C 0.03229 0.48468 0.97648 0.0
C1483 C 0.97097 0.4618 0.988 0.0
C1484 C 0.04435 0.4704 0.9687 0.0
C1485 C 0.05124 0.47709 0.95455 0.0
C1486 C 0.04631 0.49831 0.94787 0.0
C1487 C 0.034 0.51239 0.95569 0.0
C1488 C 0.0273 0.50581 0.96985 0.0
H1489 H 0.94966 0.4461 0.99313 0.0
H1490 H 0.97075 0.48262 0.98595 0.0
H1491 H 0.9722 0.45223 0.97782 0.0
H1492 H 0.04857 0.45414 0.97361 0.0
H1493 H 0.06115 0.46617 0.94895 0.0
H1494 H 0.56602 0.49011 0.06185 0.0
H1495 H 0.56311 0.50116 0.03736 0.0
H1496 H 0.5868 0.59045 0.04829 0.0
H1497 H 0.59097 0.58002 0.07297 0.0
H1498 H 0.53154 0.55274 0.02981 0.0
H1499 H 0.63611 0.55973 0.01125 0.0
H1500 H 0.61299 0.52947 0.0227 0.0
H1501 H 0.63073 0.5667 0.02922 0.0
C1502 C 0.57129 0.51235 0.05911 0.0
C1503 C 0.5792 0.53431 0.06947 0.0
C1504 C 0.56941 0.51853 0.04507 0.0
C1505 C 0.57511 0.54669 0.04101 0.0
C1506 C 0.58251 0.56861 0.05124 0.0
H1507 H 0.54492 0.6063 0.96046 0.0
H1508 H 0.55694 0.60343 0.98494 0.0
C1509 C 0.58469 0.56253 0.06534 0.0
C1510 C 0.57218 0.55259 0.0261 0.0
H1511 H 0.60335 0.55927 0.99393 0.0
C1512 C 0.54736 0.55451 0.02195 0.0
C1513 C 0.59265 0.55439 0.0159 0.0
C1514 C 0.61978 0.55266 0.01992 0.0
C1515 C 0.54203 0.55747 1.0078 0.0
C1516 C 0.56263 0.55951 0.99754 0.0
C1517 C 0.58763 0.55783 1.00175 0.0
C1518 C 0.55829 0.56288 0.9824 0.0
C1519 C 0.51373 0.55718 1.00395 0.0
C1520 C 0.55681 0.54206 0.97261 0.0
C1521 C 0.55052 0.54401 0.95852 0.0
C1522 C 0.54545 0.56675 0.95401 0.0
C1523 C 0.5483 0.5883 0.9637 0.0
C1524 C 0.55495 0.58655 0.97771 0.0
H1525 H 0.49669 0.54686 0.01227 0.0
H1526 H 0.51855 0.58029 1.00257 0.0
H1527 H 0.50427 0.54497 0.99403 0.0
H1528 H 0.55955 0.52373 0.97596 0.0
H1529 H 0.54836 0.52706 0.95129 0.0
H1530 H 0.49272 0.08433 0.05824 0.0
H1531 H 0.48181 0.07082 0.03356 0.0
H1532 H 0.47653 0.98703 0.04203 0.0
H1533 H 0.48616 1.00011 0.06688 0.0
H1534 H 0.51482 0.063 0.01606 0.0
H1535 H 0.40644 0.9593 0.01699 0.0
H1536 H 0.42129 0.98294 0.03212 0.0
H1537 H 0.43308 0.95674 0.02792 0.0
C1538 C 0.4885 0.06274 0.05485 0.0
C1539 C 0.49008 0.04316 0.06443 0.0
C1540 C 0.48237 0.05505 0.04075 0.0
C1541 C 0.47803 0.02775 0.03587 0.0
C1542 C 0.47894 1.00786 0.04553 0.0
H1543 H 0.51867 0.99713 0.95222 0.0
H1544 H 0.51867 1.00978 0.9767 0.0
C1545 C 0.48457 0.01536 0.05972 0.0
C1546 C 0.47534 0.02146 0.02056 0.0
H1547 H 0.43475 0.96929 0.99585 0.0
C1548 C 0.49707 0.04261 0.01165 0.0
C1549 C 0.45201 0.9951 0.01469 0.0
C1550 C 0.42673 0.97239 0.02342 0.0
C1551 C 0.49658 0.03788 0.99718 0.0
C1552 C 0.47431 1.01076 0.99143 0.0
C1553 C 0.45207 0.98993 1.00025 0.0
C1554 C 0.47419 1.00326 0.97639 0.0
C1555 C 0.51981 0.06227 0.98822 0.0
C1556 C 0.44889 0.99453 0.96805 0.0
C1557 C 0.44852 0.9865 0.95404 0.0
C1558 C 0.47347 0.98697 0.94806 0.0
C1559 C 0.49887 0.99608 0.95644 0.0
C1560 C 0.4991 1.00379 0.97045 0.0
H1561 H 0.52822 0.08431 0.99318 0.0
H1562 H 0.53894 0.05865 0.98693 0.0
H1563 H 0.51094 0.06268 0.9777 0.0
H1564 H 0.42931 0.99374 0.97241 0.0
H1565 H 0.42839 0.97918 0.94801 0.0
H1566 H 0.20447 0.03604 0.22763 0.0
H1567 H 0.19444 0.07494 0.2204 0.0
H1568 H 0.11836 1.01149 0.19683 0.0
H1569 H 0.12862 0.97223 0.20372 0.0
H1570 H 0.18832 0.08937 0.19005 0.0
H1571 H 0.08965 0.05764 0.22386 0.0
H1572 H 0.11658 0.04669 0.22823 0.0
H1573 H 0.09195 0.02972 0.21372 0.0
C1574 C 0.18573 0.0302 0.22082 0.0
C1575 C 0.16754 1.00085 0.2162 0.0
C1576 C 0.17996 0.05252 0.21674 0.0
C1577 C 0.15573 0.04608 0.20807 0.0
C1578 C 0.13712 0.01685 0.20358 0.0
H1579 H 0.10979 0.18614 0.19896 0.0
H1580 H 0.10751 0.13936 0.19272 0.0
C1581 C 0.14297 0.99441 0.20761 0.0
C1582 C 0.15053 0.07042 0.20379 0.0
H1583 H 0.1108 0.10379 0.21267 0.0
C1584 C 0.17101 0.09229 0.19476 0.0
C1585 C 0.12768 0.07392 0.20977 0.0
C1586 C 0.10512 0.05088 0.21947 0.0
C1587 C 0.17028 0.11843 0.19221 0.0
C1588 C 0.14899 0.12312 0.19915 0.0
C1589 C 0.12716 0.10025 0.20736 0.0
C1590 C 0.15194 0.15294 0.2 0.0
C1591 C 0.19296 0.14117 0.18245 0.0
C1592 C 0.17791 0.1764 0.20575 0.0
C1593 C 0.17918 0.20291 0.20934 0.0
C1594 C 0.1545 0.2066 0.20729 0.0
C1595 C 0.12924 0.18404 0.20056 0.0
C1596 C 0.12786 0.15723 0.19707 0.0
H1597 H 0.19911 0.13038 0.17413 0.0
H1598 H 0.18465 0.15487 0.17747 0.0
H1599 H 0.21342 0.15596 0.18843 0.0
H1600 H 0.19656 0.17353 0.20842 0.0
H1601 H 0.1989 0.21987 0.21456 0.0
H1602 H 0.80995 0.98236 0.21508 0.0
H1603 H 0.8564 0.02526 0.20825 0.0
H1604 H 0.88174 0.96868 0.18665 0.0
H1605 H 0.83488 0.92512 0.19381 0.0
H1606 H 0.92293 1.00189 0.20447 0.0
H1607 H 0.89659 0.07687 0.17586 0.0
H1608 H 0.87425 0.0653 0.1913 0.0
H1609 H 0.8694 0.03823 0.17822 0.0
C1610 C 0.82491 0.97904 0.20845 0.0
C1611 C 0.81886 0.95033 0.2051 0.0
C1612 C 0.8515 1.00374 0.20443 0.0
C1613 C 0.87268 1.00046 0.19679 0.0
C1614 C 0.86572 0.97186 0.19247 0.0
H1615 H 0.03796 0.17431 0.19874 0.0
H1616 H 0.99854 0.12872 0.18801 0.0
C1617 C 0.83885 0.94695 0.19651 0.0
C1618 C 0.90338 0.02623 0.19563 0.0
H1619 H 0.93995 0.10144 0.1919 0.0
C1620 C 0.92682 0.02351 0.20131 0.0
C1621 C 0.90903 0.05452 0.1912 0.0
C1622 C 0.88595 0.05874 0.18366 0.0
C1623 C 0.95462 0.04853 0.20402 0.0
C1624 C 0.95887 0.07712 0.20138 0.0
C1625 C 0.93655 0.07964 0.19432 0.0
C1626 C 0.98439 0.10426 0.20743 0.0
C1627 C 0.97878 0.04405 0.2102 0.0
C1628 C 0.98947 0.10586 0.2219 0.0
C1629 C 1.01198 0.13165 0.22801 0.0
C1630 C 0.02983 0.15689 0.21988 0.0
C1631 C 0.02487 0.1553 0.20533 0.0
C1632 C 1.00225 0.12926 0.19918 0.0
H1633 H 0.97687 0.02303 0.2064 0.0
H1634 H 1.00121 0.06262 0.20756 0.0
H1635 H 0.97643 0.04246 0.22174 0.0
H1636 H 0.97554 0.08726 0.22859 0.0
H1637 H 1.01526 0.1317 0.23918 0.0
H1638 H 0.8751 0.90911 0.20372 0.0
H1639 H 0.92156 0.91568 0.19359 0.0
H1640 H 0.90586 0.83484 0.2134 0.0
H1641 H 0.85988 0.82835 0.22346 0.0
H1642 H 0.97012 0.92027 0.21007 0.0
H1643 H 0.92887 0.82656 0.17301 0.0
H1644 H 0.90601 0.84124 0.17923 0.0
H1645 H 0.9113 0.8157 0.1898 0.0
C1646 C 0.88135 0.89249 0.20563 0.0
C1647 C 0.86394 0.86823 0.21439 0.0
C1648 C 0.9079 0.89631 0.1999 0.0
C1649 C 0.91702 0.87554 0.20259 0.0
C1650 C 0.89907 0.85087 0.21096 0.0
H1651 H 0.04801 0.83511 0.2126 0.0
H1652 H 1.00431 0.83777 0.20581 0.0
C1653 C 0.87291 0.8473 0.21681 0.0
C1654 C 0.9464 0.88049 0.19787 0.0
H1655 H 0.9784 0.84463 0.18214 0.0
C1656 C 0.97215 0.90427 0.20362 0.0
C1657 C 0.94899 0.85965 0.18943 0.0
C1658 C 0.92232 0.8345 0.18239 0.0
C1659 C 1.00001 0.90622 0.20224 0.0
C1660 C 1.00223 0.88404 0.19465 0.0
C1661 C 0.9768 0.86161 0.18797 0.0
C1662 C 0.02892 0.88057 0.19579 0.0
C1663 C 0.0263 0.93059 0.2099 0.0
C1664 C 0.05742 0.90291 0.19166 0.0
C1665 C 0.08268 0.90124 0.19547 0.0
C1666 C 0.07959 0.87724 0.20346 0.0
C1667 C 0.05098 0.85381 0.2064 0.0
C1668 C 0.02595 0.85538 0.20256 0.0
H1669 H 0.01987 0.94352 0.21685 0.0
H1670 H 0.03744 0.92125 0.21634 0.0
H1671 H 0.04263 0.94606 0.20221 0.0
H1672 H 0.06026 0.92231 0.18618 0.0
H1673 H 0.10451 0.9197 0.19318 0.0
H1674 H 0.98243 0.11982 0.81068 0.0
H1675 H 1.01925 0.10704 0.81867 0.0
H1676 H 0.08931 0.18938 0.80225 0.0
H1677 H 0.05304 0.20207 0.79382 0.0
H1678 H 0.06816 0.10674 0.80074 0.0
H1679 H 0.10846 0.18489 0.84551 0.0
H1680 H 0.0719 0.17059 0.83796 0.0
H1681 H 0.10376 0.2 0.82943 0.0
C1682 C 1.00557 0.13521 0.80861 0.0
C1683 C 1.01451 0.1623 0.80168 0.0
C1684 C 0.02661 0.12785 0.81329 0.0
C1685 C 0.05697 0.14753 0.81127 0.0
C1686 C 0.06596 0.17415 0.80414 0.0
H1687 H 0.22956 0.19019 0.81085 0.0
H1688 H 0.18134 0.18505 0.81575 0.0
C1689 C 0.04505 0.1814 0.79935 0.0
C1690 C 0.07972 0.14055 0.81628 0.0
H1691 H 0.14113 0.1684 0.83715 0.0
C1692 C 0.08375 0.11957 0.80895 0.0
C1693 C 0.09979 0.15726 0.82705 0.0
C1694 C 0.09572 0.1793 0.83555 0.0
C1695 C 0.10893 0.11674 0.81125 0.0
C1696 C 0.13025 0.13507 0.82135 0.0
C1697 C 0.12483 0.15434 0.82944 0.0
C1698 C 0.16052 0.13887 0.82167 0.0
C1699 C 0.1137 0.09598 0.80204 0.0
C1700 C 0.16548 0.11512 0.82424 0.0
C1701 C 0.19338 0.11816 0.82151 0.0
C1702 C 0.21643 0.14492 0.81617 0.0
C1703 C 0.21213 0.16932 0.81496 0.0
C1704 C 0.18451 0.16636 0.81773 0.0
H1705 H 0.09696 0.08634 0.79352 0.0
H1706 H 0.13613 0.10773 0.79726 0.0
H1707 H 0.11209 0.07749 0.80844 0.0
H1708 H 0.14743 0.09386 0.82757 0.0
H1709 H 0.19612 0.09898 0.82245 0.0
H1710 H 0.9339 0.10415 0.82349 0.0
H1711 H 0.93542 0.05939 0.83029 0.0
H1712 H 0.8481 1.00506 0.81262 0.0
H1713 H 0.84656 0.04931 0.80601 0.0
H1714 H 0.85794 0.97793 0.8351 0.0
H1715 H 0.95129 0.02073 0.79692 0.0
H1716 H 0.95623 0.04261 0.81226 0.0
H1717 H 0.92942 0.03839 0.79927 0.0
C1718 C 0.91458 0.0826 0.82167 0.0
C1719 C 0.89022 0.08002 0.81413 0.0
C1720 C 0.91558 0.05706 0.8254 0.0
C1721 C 0.89219 0.02886 0.8216 0.0
C1722 C 0.86649 0.02649 0.81559 0.0
H1723 H 0.86408 0.8799 0.77934 0.0
H1724 H 0.87467 0.9271 0.78936 0.0
C1725 C 0.86557 0.05182 0.81184 0.0
C1726 C 0.89552 1.00216 0.82158 0.0
H1727 H 0.92805 0.97064 0.80255 0.0
C1728 C 0.8738 0.97644 0.82831 0.0
C1729 C 0.91608 1.00021 0.81258 0.0
C1730 C 0.93952 0.02682 0.80476 0.0
C1731 C 0.87074 0.94856 0.8255 0.0
C1732 C 0.89014 0.94646 0.81584 0.0
C1733 C 0.91321 0.9724 0.80993 0.0
C1734 C 0.88426 0.91755 0.81011 0.0
C1735 C 0.84539 0.92132 0.83203 0.0
C1736 C 0.88627 0.89645 0.81843 0.0
C1737 C 0.87994 0.86912 0.81272 0.0
C1738 C 0.87148 0.86244 0.79858 0.0
C1739 C 0.86991 0.88391 0.7903 0.0
C1740 C 0.87626 0.9111 0.79599 0.0
H1741 H 0.83034 0.92649 0.83808 0.0
H1742 H 0.83224 0.90482 0.82383 0.0
H1743 H 0.85437 0.91099 0.83921 0.0
H1744 H 0.89273 0.9011 0.82932 0.0
H1745 H 0.88128 0.85312 0.81942 0.0
H1746 H 0.14969 1.01124 0.77556 0.0
H1747 H 0.10367 0.96967 0.78416 0.0
H1748 H 0.1278 1.00196 0.82635 0.0
H1749 H 0.17392 0.04422 0.81782 0.0
H1750 H 0.10643 0.93941 0.82279 0.0
H1751 H 0.03052 0.97288 0.79913 0.0
H1752 H 0.05716 0.97378 0.78694 0.0
H1753 H 0.06964 0.99849 0.80171 0.0
C1754 C 0.14521 1.00992 0.78665 0.0
C1755 C 0.16563 0.0315 0.79593 0.0
C1756 C 0.1188 0.98601 0.79156 0.0
C1757 C 0.11204 0.98297 0.80586 0.0
C1758 C 0.13249 1.004 0.81525 0.0
H1759 H 0.92995 0.83783 0.82001 0.0
H1760 H 0.97499 0.88448 0.82602 0.0
C1761 C 0.15897 0.02811 0.81033 0.0
C1762 C 0.08387 0.95725 0.81084 0.0
H1763 H 1.00912 0.92137 0.80505 0.0
C1764 C 0.08507 0.93569 0.81916 0.0
C1765 C 0.05594 0.95266 0.80639 0.0
C1766 C 0.05312 0.97582 0.79817 0.0
C1767 C 0.05927 0.90867 0.82219 0.0
C1768 C 0.03166 0.90297 0.81663 0.0
C1769 C 0.03023 0.92554 0.80927 0.0
C1770 C 1.00518 0.87268 0.81628 0.0
C1771 C 0.06199 0.88611 0.83095 0.0
C1772 C 1.00718 0.85009 0.80931 0.0
C1773 C 0.98158 0.82374 0.80576 0.0
C1774 C 0.95335 0.81927 0.80909 0.0
C1775 C 0.95134 0.84059 0.81726 0.0
C1776 C 0.9771 0.86733 0.82067 0.0
H1777 H 0.08055 0.89708 0.83856 0.0
H1778 H 0.04117 0.87166 0.83674 0.0
H1779 H 0.06688 0.87201 0.82403 0.0
H1780 H 0.02837 0.85373 0.80555 0.0
H1781 H 0.9838 0.80772 0.79943 0.0
H1782 H 0.77617 0.52494 0.52557 0.0
H1783 H 0.77424 0.4786 0.51852 0.0
H1784 H 0.85825 0.50746 0.53907 0.0
H1785 H 0.8604 0.55347 0.54579 0.0
H1786 H 0.85155 0.47294 0.51635 0.0
H1787 H 0.75118 0.41981 0.55037 0.0
H1788 H 0.74946 0.4387 0.53501 0.0
H1789 H 0.77395 0.45947 0.5491 0.0
C1790 C 0.79478 0.52184 0.52798 0.0
C1791 C 0.81835 0.54255 0.5363 0.0
C1792 C 0.79349 0.49522 0.52413 0.0
C1793 C 0.81571 0.48918 0.52862 0.0
C1794 C 0.84075 0.51144 0.53555 0.0
H1795 H 0.83063 0.36122 0.57134 0.0
H1796 H 0.82244 0.399 0.56092 0.0
C1797 C 0.842 0.53779 0.53939 0.0
C1798 C 0.81163 0.45885 0.52824 0.0
H1799 H 0.77429 0.39259 0.54532 0.0
C1800 C 0.83421 0.455 0.52236 0.0
C1801 C 0.78908 0.43553 0.53619 0.0
C1802 C 0.76458 0.43843 0.54312 0.0
C1803 C 0.83616 0.42954 0.52511 0.0
C1804 C 0.81464 0.40711 0.53378 0.0
C1805 C 0.79076 0.40989 0.5387 0.0
C1806 C 0.81894 0.38317 0.5397 0.0
C1807 C 0.86249 0.42789 0.51966 0.0
C1808 C 0.81954 0.36145 0.53126 0.0
C1809 C 0.82465 0.33981 0.53722 0.0
C1810 C 0.82919 0.33951 0.55175 0.0
C1811 C 0.82795 0.36103 0.56012 0.0
C1812 C 0.82292 0.38254 0.55418 0.0
H1813 H 0.87918 0.44889 0.51464 0.0
H1814 H 0.87344 0.42267 0.52829 0.0
H1815 H 0.85484 0.4099 0.51179 0.0
H1816 H 0.81611 0.36125 0.52008 0.0
H1817 H 0.82548 0.32367 0.53043 0.0
H1818 H 0.72035 0.48826 0.53725 0.0
H1819 H 0.68125 0.43827 0.53058 0.0
H1820 H 0.61577 0.45394 0.55008 0.0
H1821 H 0.65433 0.50321 0.55704 0.0
H1822 H 0.638 0.39065 0.54832 0.0
H1823 H 0.58416 0.42752 0.50963 0.0
H1824 H 0.62187 0.45106 0.51559 0.0
H1825 H 0.59119 0.44666 0.52603 0.0
C1826 C 0.69768 0.48101 0.54023 0.0
C1827 C 0.69055 0.50011 0.54754 0.0
C1828 C 0.67534 0.45248 0.53632 0.0
C1829 C 0.64552 0.44269 0.53953 0.0
C1830 C 0.63853 0.46133 0.54715 0.0
H1831 H 0.4756 0.31052 0.55129 0.0
H1832 H 0.52173 0.35427 0.54447 0.0
C1833 C 0.6607 0.48961 0.55111 0.0
C1834 C 0.6213 0.41281 0.53538 0.0
H1835 H 0.5534 0.37884 0.51945 0.0
C1836 C 0.61982 0.38782 0.54169 0.0
C1837 C 0.59776 0.40921 0.52663 0.0
C1838 C 0.5989 0.43502 0.51896 0.0
C1839 C 0.59418 0.35973 0.54052 0.0
C1840 C 0.56964 0.35661 0.53267 0.0
C1841 C 0.57216 0.38122 0.52547 0.0
C1842 C 0.53972 0.32992 0.53403 0.0
C1843 C 0.59263 0.33414 0.5486 0.0
C1844 C 0.53365 0.30163 0.52971 0.0
C1845 C 0.50682 0.27636 0.53348 0.0
C1846 C 0.48608 0.27919 0.54177 0.0
C1847 C 0.49125 0.30766 0.54497 0.0
C1848 C 0.51768 0.33272 0.5411 0.0
H1849 H 0.61245 0.34104 0.55534 0.0
H1850 H 0.57252 0.32377 0.55529 0.0
H1851 H 0.59107 0.31705 0.54119 0.0
H1852 H 0.55015 0.29901 0.52401 0.0
H1853 H 0.50341 0.25474 0.5308 0.0
H1854 H 0.77156 0.25704 0.53008 0.0
H1855 H 0.72615 0.25741 0.52321 0.0
H1856 H 0.67314 0.17242 0.54295 0.0
H1857 H 0.71801 0.17196 0.54972 0.0
H1858 H 0.64669 0.17884 0.51871 0.0
H1859 H 0.68388 0.27504 0.55484 0.0
H1860 H 0.70749 0.27904 0.54032 0.0
H1861 H 0.70245 0.25372 0.55417 0.0
C1862 C 0.75019 0.23805 0.53251 0.0
C1863 C 0.74827 0.21462 0.54058 0.0
C1864 C 0.72426 0.2384 0.52872 0.0
C1865 C 0.69624 0.21526 0.53288 0.0
C1866 C 0.69443 0.19062 0.5397 0.0
H1867 H 0.52343 0.15422 0.5585 0.0
H1868 H 0.57052 0.16298 0.54885 0.0
C1869 C 0.72014 0.19036 0.54355 0.0
C1870 C 0.66889 0.21748 0.53183 0.0
H1871 H 0.63421 0.25043 0.5479 0.0
C1872 C 0.64413 0.19494 0.52481 0.0
C1873 C 0.66549 0.2385 0.53979 0.0
C1874 C 0.69109 0.26291 0.54779 0.0
C1875 C 0.61581 0.19179 0.52624 0.0
C1876 C 0.61204 0.21142 0.53506 0.0
C1877 C 0.63713 0.23532 0.54119 0.0
C1878 C 0.58217 0.20529 0.5396 0.0
C1879 C 0.58997 0.16678 0.51867 0.0
C1880 C 0.57306 0.2263 0.53776 0.0
C1881 C 0.54602 0.22132 0.54334 0.0
C1882 C 0.52793 0.1955 0.55107 0.0
C1883 C 0.53695 0.17438 0.55268 0.0
C1884 C 0.56373 0.17922 0.54702 0.0
H1885 H 0.59737 0.16058 0.509 0.0
H1886 H 0.57956 0.14704 0.52556 0.0
H1887 H 0.57292 0.17277 0.51586 0.0
H1888 H 0.58711 0.24676 0.53222 0.0
H1889 H 0.53984 0.23816 0.54208 0.0
H1890 H 0.84105 0.42132 0.1281 0.0
H1891 H 0.79969 0.42799 0.1351 0.0
H1892 H 0.85927 0.50342 0.16018 0.0
H1893 H 0.90102 0.49665 0.15309 0.0
H1894 H 0.77346 0.43439 0.16032 0.0
H1895 H 0.83065 0.53751 0.1285 0.0
H1896 H 0.84191 0.50997 0.12825 0.0
H1897 H 0.85113 0.53449 0.14294 0.0
C1898 C 0.84508 0.43861 0.13555 0.0
C1899 C 0.87404 0.45842 0.14013 0.0
C1900 C 0.82147 0.44245 0.13952 0.0
C1901 C 0.82648 0.46648 0.14796 0.0
C1902 C 0.85502 0.48488 0.15354 0.0
H1903 H 0.70969 0.54178 0.14875 0.0
H1904 H 0.74954 0.53172 0.15445 0.0
C1905 C 0.87876 0.48086 0.14963 0.0
C1906 C 0.80274 0.47424 0.14908 0.0
H1907 H 0.78283 0.52296 0.13631 0.0
C1908 C 0.77559 0.45399 0.15528 0.0
C1909 C 0.8055 0.49968 0.14236 0.0
C1910 C 0.83373 0.52164 0.13503 0.0
C1911 C 0.751 0.45831 0.15477 0.0
C1912 C 0.75346 0.48319 0.14759 0.0
C1913 C 0.78092 0.50389 0.14181 0.0
C1914 C 0.72777 0.48782 0.14536 0.0
C1915 C 0.72264 0.43614 0.16189 0.0
C1916 C 0.7021 0.46646 0.13839 0.0
C1917 C 0.67919 0.47218 0.13512 0.0
C1918 C 0.68174 0.49957 0.13856 0.0
C1919 C 0.70724 0.52068 0.14574 0.0
C1920 C 0.72997 0.51487 0.1491 0.0
H1921 H 0.72704 0.42453 0.17049 0.0
H1922 H 0.71062 0.44693 0.16622 0.0
H1923 H 0.70799 0.41919 0.15417 0.0
H1924 H 0.70018 0.44574 0.13504 0.0
H1925 H 0.65998 0.45559 0.12948 0.0
H1926 H 0.58049 0.20186 0.14477 0.0
H1927 H 0.58772 0.24814 0.15535 0.0
H1928 H 0.50678 0.23389 0.13589 0.0
H1929 H 0.4996 0.18806 0.12543 0.0
H1930 H 0.59337 0.29702 0.13961 0.0
H1931 H 0.49888 0.25682 0.17609 0.0
H1932 H 0.51256 0.23333 0.16961 0.0
H1933 H 0.48769 0.23999 0.15915 0.0
C1934 C 0.56397 0.20836 0.14307 0.0
C1935 C 0.53949 0.19142 0.13428 0.0
C1936 C 0.56816 0.23481 0.14905 0.0
C1937 C 0.54757 0.24431 0.14658 0.0
C1938 C 0.52266 0.2268 0.13819 0.0
H1939 H 0.51245 0.37932 0.13723 0.0
H1940 H 0.51308 0.33442 0.1436 0.0
C1941 C 0.5187 0.20073 0.1321 0.0
C1942 C 0.55305 0.27374 0.15147 0.0
H1943 H 0.51801 0.30662 0.1672 0.0
C1944 C 0.57741 0.2993 0.14598 0.0
C1945 C 0.53226 0.27668 0.15982 0.0
C1946 C 0.50653 0.25024 0.16663 0.0
C1947 C 0.58006 0.32737 0.14754 0.0
C1948 C 0.558 0.33 0.15504 0.0
C1949 C 0.5349 0.3047 0.16144 0.0
C1950 C 0.55555 0.35725 0.15417 0.0
C1951 C 0.60511 0.35352 0.14018 0.0
C1952 C 0.57838 0.38512 0.15873 0.0
C1953 C 0.57788 0.41105 0.15517 0.0
C1954 C 0.55455 0.40927 0.14702 0.0
C1955 C 0.5306 0.38127 0.1436 0.0
C1956 C 0.53102 0.35556 0.14719 0.0
H1957 H 0.61782 0.34685 0.13321 0.0
H1958 H 0.59643 0.36536 0.13382 0.0
H1959 H 0.6207 0.36926 0.14805 0.0
H1960 H 0.59731 0.38696 0.16436 0.0
H1961 H 0.5968 0.4324 0.15778 0.0
H1962 H 0.59908 0.16392 0.15192 0.0
H1963 H 0.64538 0.20884 0.15867 0.0
H1964 H 0.69602 0.17346 0.13949 0.0
H1965 H 0.65023 0.12891 0.13288 0.0
H1966 H 0.72319 0.20663 0.16362 0.0
H1967 H 0.68911 0.26703 0.12669 0.0
H1968 H 0.66504 0.24848 0.14122 0.0
H1969 H 0.66941 0.22716 0.12767 0.0
C1970 C 0.62011 0.16536 0.14961 0.0
C1971 C 0.62112 0.14312 0.14175 0.0
C1972 C 0.64654 0.19115 0.15333 0.0
C1973 C 0.67417 0.1948 0.14928 0.0
C1974 C 0.67503 0.17127 0.14266 0.0
H1975 H 0.85045 0.30599 0.12583 0.0
H1976 H 0.80263 0.26734 0.13461 0.0
C1977 C 0.64881 0.14577 0.13889 0.0
C1978 C 0.70209 0.22386 0.15022 0.0
H1979 H 0.73844 0.29134 0.13413 0.0
C1980 C 0.72639 0.22542 0.15742 0.0
C1981 C 0.7063 0.24842 0.14213 0.0
C1982 C 0.68123 0.24786 0.1339 0.0
C1983 C 0.75501 0.25019 0.15616 0.0
C1984 C 0.75955 0.2738 0.14729 0.0
C1985 C 0.73495 0.27316 0.14088 0.0
C1986 C 0.78976 0.29762 0.14323 0.0
C1987 C 0.78025 0.25045 0.16405 0.0
C1988 C 0.79841 0.32762 0.14497 0.0
C1989 C 0.82577 0.34986 0.13981 0.0
C1990 C 0.84482 0.3425 0.13264 0.0
C1991 C 0.83626 0.31245 0.13117 0.0
C1992 C 0.80904 0.29029 0.13637 0.0
H1993 H 0.77222 0.23682 0.1737 0.0
H1994 H 0.79068 0.24083 0.15735 0.0
H1995 H 0.79746 0.27333 0.16697 0.0
H1996 H 0.78375 0.33381 0.15008 0.0
H1997 H 0.83148 0.37274 0.141 0.0
H1998 H 0.53117 0.88932 0.877 0.0
H1999 H 0.52853 0.84262 0.87134 0.0
H2000 H 0.43747 0.80636 0.85819 0.0
H2001 H 0.44022 0.85367 0.86392 0.0
H2002 H 0.44347 0.77339 0.87843 0.0
H2003 H 0.52708 0.79519 0.83803 0.0
H2004 H 0.54316 0.82252 0.85155 0.0
H2005 H 0.51306 0.82012 0.84116 0.0
C2006 C 0.51095 0.87181 0.87235 0.0
C2007 C 0.48591 0.87508 0.87087 0.0
C2008 C 0.50948 0.84507 0.86906 0.0
C2009 C 0.48289 0.82092 0.8642 0.0
C2010 C 0.45832 0.82475 0.8618 0.0
H2011 H 0.45771 0.64091 0.87669 0.0
H2012 H 0.44847 0.67884 0.86651 0.0
C2013 C 0.45992 0.85181 0.86498 0.0
C2014 C 0.48001 0.79106 0.86395 0.0
H2015 H 0.51876 0.75655 0.85508 0.0
C2016 C 0.45929 0.76926 0.87297 0.0
C2017 C 0.50059 0.78558 0.85682 0.0
C2018 C 0.52199 0.80704 0.84624 0.0
C2019 C 0.46039 0.74345 0.87601 0.0
C2020 C 0.48264 0.73926 0.86977 0.0
C2021 C 0.50189 0.75993 0.85996 0.0
C2022 C 0.48878 0.71586 0.87471 0.0
C2023 C 0.43921 0.72193 0.88665 0.0
C2024 C 0.51478 0.72409 0.88238 0.0
C2025 C 0.52006 0.70257 0.88817 0.0
C2026 C 0.49959 0.67231 0.88631 0.0
C2027 C 0.474 0.66404 0.8782 0.0
C2028 C 0.4686 0.68566 0.87247 0.0
H2029 H 0.42522 0.72996 0.89158 0.0
H2030 H 0.42436 0.70039 0.8815 0.0
H2031 H 0.4517 0.71795 0.89499 0.0
H2032 H 0.53066 0.74726 0.88422 0.0
H2033 H 0.54011 0.70962 0.89421 0.0
H2034 H 0.34733 0.80952 0.90958 0.0
H2035 H 0.30634 0.7637 0.9003 0.0
H2036 H 0.34568 0.7855 0.85928 0.0
H2037 H 0.38696 0.83143 0.86847 0.0
H2038 H 0.2856 0.76632 0.85883 0.0
H2039 H 0.30656 0.68833 0.88909 0.0
H2040 H 0.30496 0.71524 0.90017 0.0
H2041 H 0.33397 0.72708 0.88733 0.0
C2042 C 0.3476 0.8045 0.89863 0.0
C2043 C 0.37076 0.82424 0.88984 0.0
C2044 C 0.3241 0.7782 0.89333 0.0
C2045 C 0.32324 0.77085 0.87915 0.0
C2046 C 0.34601 0.7906 0.87028 0.0
H2047 H 0.17553 0.59158 0.8632 0.0
H2048 H 0.22502 0.63437 0.85883 0.0
C2049 C 0.36957 0.81698 0.87557 0.0
C2050 C 0.29782 0.74307 0.87362 0.0
H2051 H 0.25675 0.669 0.88026 0.0
C2052 C 0.27957 0.74493 0.86331 0.0
C2053 C 0.29033 0.71502 0.87915 0.0
C2054 C 0.31018 0.71121 0.88943 0.0
C2055 C 0.25282 0.71985 0.85924 0.0
C2056 C 0.24389 0.69234 0.86581 0.0
C2057 C 0.26335 0.69008 0.87527 0.0
C2058 C 0.21299 0.66703 0.86483 0.0
C2059 C 0.234 0.72328 0.84822 0.0
C2060 C 0.18953 0.67114 0.8691 0.0
C2061 C 0.1615 0.64685 0.87163 0.0
C2062 C 0.15629 0.61789 0.86997 0.0
C2063 C 0.17891 0.61367 0.86446 0.0
C2064 C 0.20722 0.63811 0.86204 0.0
H2065 H 0.24807 0.74074 0.84057 0.0
H2066 H 0.22003 0.70224 0.84249 0.0
H2067 H 0.21927 0.73021 0.85328 0.0
H2068 H 0.19341 0.69304 0.87163 0.0
H2069 H 0.14448 0.6507 0.87595 0.0
H2070 H 0.44088 0.58882 0.8665 0.0
H2071 H 0.39705 0.59323 0.86106 0.0
H2072 H 0.34146 0.51104 0.8826 0.0
H2073 H 0.3848 0.5067 0.88807 0.0
H2074 H 0.31345 0.51888 0.85933 0.0
H2075 H 0.36387 0.61787 0.89424 0.0
H2076 H 0.38447 0.61889 0.87897 0.0
H2077 H 0.379 0.59352 0.89287 0.0
C2078 C 0.41922 0.57131 0.8697 0.0
C2079 C 0.41633 0.54773 0.87797 0.0
C2080 C 0.39419 0.57394 0.86667 0.0
C2081 C 0.36604 0.55283 0.87175 0.0
C2082 C 0.36291 0.52773 0.87866 0.0
H2083 H 0.21834 0.54396 0.91056 0.0
H2084 H 0.26439 0.54769 0.90241 0.0
C2085 C 0.38776 0.52526 0.88178 0.0
C2086 C 0.34035 0.55794 0.87161 0.0
H2087 H 0.31377 0.59768 0.88847 0.0
C2088 C 0.31364 0.53653 0.8654 0.0
C2089 C 0.34057 0.5808 0.87971 0.0
C2090 C 0.36838 0.60405 0.88692 0.0
C2091 C 0.2869 0.53651 0.86764 0.0
C2092 C 0.28693 0.55855 0.87626 0.0
C2093 C 0.31387 0.58083 0.88186 0.0
C2094 C 0.25892 0.55695 0.88092 0.0
C2095 C 0.25849 0.51186 0.86152 0.0
C2096 C 0.24051 0.56107 0.87155 0.0
C2097 C 0.21406 0.55916 0.87622 0.0
C2098 C 0.20552 0.55313 0.89036 0.0
C2099 C 0.2242 0.54908 0.89966 0.0
C2100 C 0.25058 0.55108 0.895 0.0
H2101 H 0.26174 0.49453 0.85646 0.0
H2102 H 0.24138 0.50137 0.8698 0.0
H2103 H 0.24985 0.52112 0.85356 0.0
H2104 H 0.24669 0.56597 0.86066 0.0
H2105 H 0.20057 0.56276 0.86875 0.0
H2106 H 0.53529 0.77079 0.48713 0.0
H2107 H 0.48709 0.76589 0.49323 0.0
H2108 H 0.515 0.85143 0.47488 0.0
H2109 H 0.56278 0.85649 0.46906 0.0
H2110 H 0.47933 0.84138 0.49758 0.0
H2111 H 0.42902 0.74526 0.46094 0.0
H2112 H 0.44782 0.7423 0.4761 0.0
H2113 H 0.46865 0.76857 0.46265 0.0
C2114 C 0.53141 0.78891 0.48488 0.0
C2115 C 0.55257 0.81386 0.47748 0.0
C2116 C 0.50377 0.78597 0.48821 0.0
C2117 C 0.49712 0.80798 0.48418 0.0
C2118 C 0.51944 0.83407 0.47803 0.0
H2119 H 0.3658 0.82322 0.44375 0.0
H2120 H 0.4043 0.81467 0.45311 0.0
C2121 C 0.5468 0.83694 0.47469 0.0
C2122 C 0.46642 0.80317 0.48457 0.0
H2123 H 0.4003 0.76628 0.46712 0.0
C2124 C 0.4617 0.8245 0.49122 0.0
C2125 C 0.44351 0.78123 0.47617 0.0
C2126 C 0.44735 0.75809 0.46847 0.0
C2127 C 0.43571 0.82585 0.48887 0.0
C2128 C 0.41359 0.80495 0.47982 0.0
C2129 C 0.41732 0.78228 0.47404 0.0
C2130 C 0.38889 0.80885 0.47449 0.0
C2131 C 0.43316 0.85097 0.49521 0.0
C2132 C 0.36705 0.80814 0.48336 0.0
C2133 C 0.34499 0.81346 0.47803 0.0
C2134 C 0.34437 0.81954 0.46371 0.0
C2135 C 0.36587 0.81937 0.45486 0.0
C2136 C 0.38779 0.81413 0.46018 0.0
H2137 H 0.45412 0.86766 0.50033 0.0
H2138 H 0.4271 0.86223 0.48709 0.0
H2139 H 0.41537 0.84204 0.50322 0.0
H2140 H 0.36716 0.80366 0.49441 0.0
H2141 H 0.32885 0.81339 0.48516 0.0
H2142 H 0.16336 0.52033 0.45914 0.0
H2143 H 0.17176 0.56738 0.46855 0.0
H2144 H 0.2509 0.58028 0.48941 0.0
H2145 H 0.24286 0.53319 0.47975 0.0
H2146 H 0.1785 0.58929 0.49654 0.0
H2147 H 0.28042 0.65452 0.46448 0.0
H2148 H 0.25476 0.61591 0.46101 0.0
H2149 H 0.27908 0.62642 0.47586 0.0
C2150 C 0.18256 0.53312 0.46573 0.0
C2151 C 0.20267 0.52317 0.46851 0.0
C2152 C 0.18721 0.55993 0.4712 0.0
C2153 C 0.21215 0.57756 0.47954 0.0
C2154 C 0.2317 0.56721 0.48285 0.0
H2155 H 0.26208 0.76496 0.48768 0.0
H2156 H 0.262 0.71984 0.49518 0.0
C2157 C 0.22696 0.54019 0.47741 0.0
C2158 C 0.21801 0.60735 0.48394 0.0
H2159 H 0.26068 0.68059 0.47569 0.0
C2160 C 0.19683 0.60934 0.49223 0.0
C2161 C 0.24212 0.63357 0.47846 0.0
C2162 C 0.2654 0.63275 0.4694 0.0
C2163 C 0.19809 0.63658 0.49445 0.0
C2164 C 0.22078 0.66242 0.48799 0.0
C2165 C 0.24327 0.6608 0.48064 0.0
C2166 C 0.21869 0.68973 0.48649 0.0
C2167 C 0.17443 0.63721 0.50327 0.0
C2168 C 0.19408 0.68787 0.47951 0.0
C2169 C 0.19425 0.71344 0.47513 0.0
C2170 C 0.219 0.74153 0.47762 0.0
C2171 C 0.24266 0.74365 0.48563 0.0
C2172 C 0.24267 0.71786 0.48988 0.0
H2173 H 0.16663 0.62003 0.51157 0.0
H2174 H 0.18259 0.6592 0.50824 0.0
H2175 H 0.15506 0.63227 0.49657 0.0
H2176 H 0.17558 0.66658 0.47648 0.0
H2177 H 0.17573 0.71114 0.46895 0.0
H2178 H 0.5072 0.71546 0.47976 0.0
H2179 H 0.46262 0.67213 0.48871 0.0
H2180 H 0.44715 0.63072 0.44818 0.0
H2181 H 0.49218 0.67309 0.43935 0.0
H2182 H 0.40498 0.64696 0.48146 0.0
H2183 H 0.44215 0.56601 0.47288 0.0
H2184 H 0.46724 0.60544 0.47187 0.0
H2185 H 0.44467 0.58544 0.45703 0.0
C2186 C 0.49462 0.69699 0.47278 0.0
C2187 C 0.50367 0.69783 0.45882 0.0
C2188 C 0.46896 0.67227 0.47791 0.0
C2189 C 0.45185 0.64782 0.46922 0.0
C2190 C 0.46039 0.64893 0.45522 0.0
H2191 H 0.27383 0.51799 0.46331 0.0
H2192 H 0.31955 0.5641 0.4678 0.0
C2193 C 0.48604 0.67348 0.45011 0.0
C2194 C 0.42464 0.62133 0.47454 0.0
H2195 H 0.38915 0.54584 0.47452 0.0
C2196 C 0.40169 0.62485 0.48018 0.0
C2197 C 0.42053 0.59246 0.47333 0.0
C2198 C 0.44512 0.58713 0.4686 0.0
C2199 C 0.37405 0.60022 0.48364 0.0
C2200 C 0.36897 0.57129 0.48105 0.0
C2201 C 0.39269 0.56789 0.47639 0.0
C2202 C 0.3387 0.54459 0.48126 0.0
C2203 C 0.35051 0.60559 0.48983 0.0
C2204 C 0.33362 0.51795 0.48748 0.0
C2205 C 0.30725 0.49128 0.4848 0.0
C2206 C 0.2856 0.491 0.47595 0.0
C2207 C 0.28981 0.51783 0.47054 0.0
C2208 C 0.31606 0.54431 0.47313 0.0
H2209 H 0.3607 0.62579 0.49647 0.0
H2210 H 0.33834 0.60933 0.48126 0.0
H2211 H 0.33439 0.58655 0.49623 0.0
H2212 H 0.35081 0.51747 0.49369 0.0
H2213 H 0.30481 0.47071 0.48874 0.0
loop_
_geom_bond_atom_site_label_1
_geom_bond_atom_site_label_2
_geom_bond_distance
_geom_bond_site_symmetry_2
_ccdc_geom_bond_type
C0 C1 1.351 . S
C0 N3 1.368 . S
C0 H5 0.931 . S
C1 C0 1.351 . S
C1 N2 1.373 . S
C1 H29 0.930 . S
N2 C1 1.373 . S
N2 C4 1.340 . S
N3 C0 1.368 . S
N3 C4 1.321 . S
N3 Co6 2.135 . S
C4 N2 1.340 . S
C4 N3 1.321 . S
C4 H28 0.930 . S
H5 C0 0.931 . S
Co6 N3 2.135 . S
Co6 N9 2.121 . S
Co6 O14 2.055 . S
Co6 O17 2.039 . S
Co6 N20 2.140 . S
C7 O8 1.227 . S
C7 O17 1.265 . S
O8 C7 1.227 . S
N9 Co6 2.121 . S
N9 C11 1.375 . S
N9 C12 1.313 . S
C10 C11 1.338 . S
C10 N13 1.377 . S
C10 H30 0.930 . S
C11 N9 1.375 . S
C11 C10 1.338 . S
C11 H15 0.931 . S
C12 N9 1.313 . S
C12 N13 1.344 . S
C12 H16 0.930 . S
N13 C10 1.377 . S
N13 C12 1.344 . S
O14 Co6 2.055 . S
O14 C18 1.253 . S
H15 C11 0.931 . S
H16 C12 0.930 . S
O17 Co6 2.039 . S
O17 C7 1.265 . S
C18 O14 1.253 . S
C18 O19 1.227 . S
O19 C18 1.227 . S
N20 Co6 2.140 . S
N20 C23 1.346 . S
N20 C24 1.345 . S
C21 C22 1.387 . S
C21 C25 1.391 . S
C22 C21 1.387 . S
C22 C23 1.369 . S
C22 H31 0.929 . S
C23 N20 1.346 . S
C23 C22 1.369 . S
C23 H26 0.928 . S
C24 N20 1.345 . S
C24 C25 1.371 . S
C24 H27 0.931 . S
C25 C21 1.391 . S
C25 C24 1.371 . S
C25 H32 0.930 . S
H26 C23 0.928 . S
H27 C24 0.931 . S
H28 C4 0.930 . S
H29 C1 0.930 . S
H30 C10 0.930 . S
H31 C22 0.929 . S
H32 C25 0.930 . S
C33 C34 1.351 . S
C33 N36 1.368 . S
C33 H38 0.931 . S
C34 C33 1.351 . S
C34 N35 1.373 . S
C34 H62 0.930 . S
N35 C34 1.373 . S
N35 C37 1.340 . S
N36 C33 1.368 . S
N36 C37 1.321 . S
N36 Co39 2.135 . S
C37 N35 1.340 . S
C37 N36 1.321 . S
C37 H61 0.930 . S
H38 C33 0.931 . S
Co39 N36 2.135 . S
Co39 N42 2.121 . S
Co39 O47 2.055 . S
Co39 O50 2.039 . S
Co39 N53 2.140 . S
C40 O41 1.227 . S
C40 O50 1.265 . S
O41 C40 1.227 . S
N42 Co39 2.121 . S
N42 C44 1.375 . S
N42 C45 1.313 . S
C43 C44 1.338 . S
C43 N46 1.377 . S
C43 H63 0.930 . S
C44 N42 1.375 . S
C44 C43 1.338 . S
C44 H48 0.931 . S
C45 N42 1.313 . S
C45 N46 1.344 . S
C45 H49 0.930 . S
N46 C43 1.377 . S
N46 C45 1.344 . S
O47 Co39 2.055 . S
O47 C51 1.253 . S
H48 C44 0.931 . S
H49 C45 0.930 . S
O50 Co39 2.039 . S
O50 C40 1.265 . S
C51 O47 1.253 . S
C51 O52 1.227 . S
O52 C51 1.227 . S
N53 Co39 2.140 . S
N53 C56 1.346 . S
N53 C57 1.345 . S
C54 C55 1.387 . S
C54 C58 1.391 . S
C55 C54 1.387 . S
C55 C56 1.369 . S
C55 H64 0.929 . S
C56 N53 1.346 . S
C56 C55 1.369 . S
C56 H59 0.928 . S
C57 N53 1.345 . S
C57 C58 1.371 . S
C57 H60 0.931 . S
C58 C54 1.391 . S
C58 C57 1.371 . S
C58 H65 0.930 . S
H59 C56 0.928 . S
H60 C57 0.931 . S
H61 C37 0.930 . S
H62 C34 0.930 . S
H63 C43 0.930 . S
H64 C55 0.929 . S
H65 C58 0.930 . S
C66 C67 1.351 . S
C66 N69 1.368 . S
C66 H71 0.931 . S
C67 C66 1.351 . S
C67 N68 1.373 . S
C67 H95 0.930 . S
N68 C67 1.373 . S
N68 C70 1.340 . S
N69 C66 1.368 . S
N69 C70 1.321 . S
N69 Co72 2.135 . S
C70 N68 1.340 . S
C70 N69 1.321 . S
C70 H94 0.930 . S
H71 C66 0.931 . S
Co72 N69 2.135 . S
Co72 N75 2.121 . S
Co72 O80 2.055 . S
Co72 O83 2.039 . S
Co72 N86 2.140 . S
C73 O74 1.227 . S
C73 O83 1.265 . S
O74 C73 1.227 . S
N75 Co72 2.121 . S
N75 C77 1.375 . S
N75 C78 1.313 . S
C76 C77 1.338 . S
C76 N79 1.377 . S
C76 H96 0.930 . S
C77 N75 1.375 . S
C77 C76 1.338 . S
C77 H81 0.931 . S
C78 N75 1.313 . S
C78 N79 1.344 . S
C78 H82 0.930 . S
N79 C76 1.377 . S
N79 C78 1.344 . S
O80 Co72 2.055 . S
O80 C84 1.253 . S
H81 C77 0.931 . S
H82 C78 0.930 . S
O83 Co72 2.039 . S
O83 C73 1.265 . S
C84 O80 1.253 . S
C84 O85 1.227 . S
O85 C84 1.227 . S
N86 Co72 2.140 . S
N86 C89 1.346 . S
N86 C90 1.345 . S
C87 C88 1.387 . S
C87 C91 1.391 . S
C88 C87 1.387 . S
C88 C89 1.369 . S
C88 H97 0.929 . S
C89 N86 1.346 . S
C89 C88 1.369 . S
C89 H92 0.928 . S
C90 N86 1.345 . S
C90 C91 1.371 . S
C90 H93 0.931 . S
C91 C87 1.391 . S
C91 C90 1.371 . S
C91 H98 0.930 . S
H92 C89 0.928 . S
H93 C90 0.931 . S
H94 C70 0.930 . S
H95 C67 0.930 . S
H96 C76 0.930 . S
H97 C88 0.929 . S
H98 C91 0.930 . S
C99 C100 1.351 . S
C99 N102 1.368 . S
C99 H104 0.931 . S
C100 C99 1.351 . S
C100 N101 1.373 . S
C100 H128 0.930 . S
N101 C100 1.373 . S
N101 C103 1.340 . S
N102 C99 1.368 . S
N102 C103 1.321 . S
N102 Co105 2.135 . S
C103 N101 1.340 . S
C103 N102 1.321 . S
C103 H127 0.930 . S
H104 C99 0.931 . S
Co105 N102 2.135 . S
Co105 N108 2.121 . S
Co105 O113 2.055 . S
Co105 O116 2.039 . S
Co105 N119 2.140 . S
C106 O107 1.227 . S
C106 O116 1.265 . S
O107 C106 1.227 . S
N108 Co105 2.121 . S
N108 C110 1.375 . S
N108 C111 1.313 . S
C109 C110 1.338 . S
C109 N112 1.377 . S
C109 H129 0.930 . S
C110 N108 1.375 . S
C110 C109 1.338 . S
C110 H114 0.931 . S
C111 N108 1.313 . S
C111 N112 1.344 . S
C111 H115 0.930 . S
N112 C109 1.377 . S
N112 C111 1.344 . S
O113 Co105 2.055 . S
O113 C117 1.253 . S
H114 C110 0.931 . S
H115 C111 0.930 . S
O116 Co105 2.039 . S
O116 C106 1.265 . S
C117 O113 1.253 . S
C117 O118 1.227 . S
O118 C117 1.227 . S
N119 Co105 2.140 . S
N119 C122 1.346 . S
N119 C123 1.345 . S
C120 C121 1.387 . S
C120 C124 1.391 . S
C121 C120 1.387 . S
C121 C122 1.369 . S
C121 H130 0.929 . S
C122 N119 1.346 . S
C122 C121 1.369 . S
C122 H125 0.928 . S
C123 N119 1.345 . S
C123 C124 1.371 . S
C123 H126 0.931 . S
C124 C120 1.391 . S
C124 C123 1.371 . S
C124 H131 0.930 . S
H125 C122 0.928 . S
H126 C123 0.931 . S
H127 C103 0.930 . S
H128 C100 0.930 . S
H129 C109 0.930 . S
H130 C121 0.929 . S
H131 C124 0.930 . S
C132 C133 1.351 . S
C132 N135 1.368 . S
C132 H137 0.931 . S
C133 C132 1.351 . S
C133 N134 1.373 . S
C133 H161 0.930 . S
N134 C133 1.373 . S
N134 C136 1.340 . S
N135 C132 1.368 . S
N135 C136 1.321 . S
N135 Co138 2.135 . S
C136 N134 1.340 . S
C136 N135 1.321 . S
C136 H160 0.930 . S
H137 C132 0.931 . S
Co138 N135 2.135 . S
Co138 N141 2.121 . S
Co138 O146 2.055 . S
Co138 O149 2.039 . S
Co138 N152 2.140 . S
C139 O140 1.227 . S
C139 O149 1.265 . S
O140 C139 1.227 . S
N141 Co138 2.121 . S
N141 C143 1.375 . S
N141 C144 1.313 . S
C142 C143 1.338 . S
C142 N145 1.377 . S
C142 H162 0.930 . S
C143 N141 1.375 . S
C143 C142 1.338 . S
C143 H147 0.931 . S
C144 N141 1.313 . S
C144 N145 1.344 . S
C144 H148 0.930 . S
N145 C142 1.377 . S
N145 C144 1.344 . S
O146 Co138 2.055 . S
O146 C150 1.253 . S
H147 C143 0.931 . S
H148 C144 0.930 . S
O149 Co138 2.039 . S
O149 C139 1.265 . S
C150 O146 1.253 . S
C150 O151 1.227 . S
O151 C150 1.227 . S
N152 Co138 2.140 . S
N152 C155 1.346 . S
N152 C156 1.345 . S
C153 C154 1.387 . S
C153 C157 1.391 . S
C154 C153 1.387 . S
C154 C155 1.369 . S
C154 H163 0.929 . S
C155 N152 1.346 . S
C155 C154 1.369 . S
C155 H158 0.928 . S
C156 N152 1.345 . S
C156 C157 1.371 . S
C156 H159 0.931 . S
C157 C153 1.391 . S
C157 C156 1.371 . S
C157 H164 0.930 . S
H158 C155 0.928 . S
H159 C156 0.931 . S
H160 C136 0.930 . S
H161 C133 0.930 . S
H162 C142 0.930 . S
H163 C154 0.929 . S
H164 C157 0.930 . S
C165 C166 1.351 . S
C165 N168 1.368 . S
C165 H170 0.931 . S
C166 C165 1.351 . S
C166 N167 1.373 . S
C166 H194 0.930 . S
N167 C166 1.373 . S
N167 C169 1.340 . S
N168 C165 1.368 . S
N168 C169 1.321 . S
N168 Co171 2.135 . S
C169 N167 1.340 . S
C169 N168 1.321 . S
C169 H193 0.930 . S
H170 C165 0.931 . S
Co171 N168 2.135 . S
Co171 N174 2.121 . S
Co171 O179 2.055 . S
Co171 O182 2.039 . S
Co171 N185 2.140 . S
C172 O173 1.227 . S
C172 O182 1.265 . S
O173 C172 1.227 . S
N174 Co171 2.121 . S
N174 C176 1.375 . S
N174 C177 1.313 . S
C175 C176 1.338 . S
C175 N178 1.377 . S
C175 H195 0.930 . S
C176 N174 1.375 . S
C176 C175 1.338 . S
C176 H180 0.931 . S
C177 N174 1.313 . S
C177 N178 1.344 . S
C177 H181 0.930 . S
N178 C175 1.377 . S
N178 C177 1.344 . S
O179 Co171 2.055 . S
O179 C183 1.253 . S
H180 C176 0.931 . S
H181 C177 0.930 . S
O182 Co171 2.039 . S
O182 C172 1.265 . S
C183 O179 1.253 . S
C183 O184 1.227 . S
O184 C183 1.227 . S
N185 Co171 2.140 . S
N185 C188 1.346 . S
N185 C189 1.345 . S
C186 C187 1.387 . S
C186 C190 1.391 . S
C187 C186 1.387 . S
C187 C188 1.369 . S
C187 H196 0.929 . S
C188 N185 1.346 . S
C188 C187 1.369 . S
C188 H191 0.928 . S
C189 N185 1.345 . S
C189 C190 1.371 . S
C189 H192 0.931 . S
C190 C186 1.391 . S
C190 C189 1.371 . S
C190 H197 0.930 . S
H191 C188 0.928 . S
H192 C189 0.931 . S
H193 C169 0.930 . S
H194 C166 0.930 . S
H195 C175 0.930 . S
H196 C187 0.929 . S
H197 C190 0.930 . S
C198 C199 1.351 . S
C198 N201 1.368 . S
C198 H203 0.931 . S
C199 C198 1.351 . S
C199 N200 1.373 . S
C199 H227 0.930 . S
N200 C199 1.373 . S
N200 C202 1.340 . S
N201 C198 1.368 . S
N201 C202 1.321 . S
N201 Co204 2.135 . S
C202 N200 1.340 . S
C202 N201 1.321 . S
C202 H226 0.930 . S
H203 C198 0.931 . S
Co204 N201 2.135 . S
Co204 N207 2.121 . S
Co204 O212 2.055 . S
Co204 O215 2.039 . S
Co204 N218 2.140 . S
C205 O206 1.227 . S
C205 O215 1.265 . S
O206 C205 1.227 . S
N207 Co204 2.121 . S
N207 C209 1.375 . S
N207 C210 1.313 . S
C208 C209 1.338 . S
C208 N211 1.377 . S
C208 H228 0.930 . S
C209 N207 1.375 . S
C209 C208 1.338 . S
C209 H213 0.931 . S
C210 N207 1.313 . S
C210 N211 1.344 . S
C210 H214 0.930 . S
N211 C208 1.377 . S
N211 C210 1.344 . S
O212 Co204 2.055 . S
O212 C216 1.253 . S
H213 C209 0.931 . S
H214 C210 0.930 . S
O215 Co204 2.039 . S
O215 C205 1.265 . S
C216 O212 1.253 . S
C216 O217 1.227 . S
O217 C216 1.227 . S
N218 Co204 2.140 . S
N218 C221 1.346 . S
N218 C222 1.345 . S
C219 C220 1.387 . S
C219 C223 1.391 . S
C220 C219 1.387 . S
C220 C221 1.369 . S
C220 H229 0.929 . S
C221 N218 1.346 . S
C221 C220 1.369 . S
C221 H224 0.928 . S
C222 N218 1.345 . S
C222 C223 1.371 . S
C222 H225 0.931 . S
C223 C219 1.391 . S
C223 C222 1.371 . S
C223 H230 0.930 . S
H224 C221 0.928 . S
H225 C222 0.931 . S
H226 C202 0.930 . S
H227 C199 0.930 . S
H228 C208 0.930 . S
H229 C220 0.929 . S
H230 C223 0.930 . S
C231 C232 1.351 . S
C231 N234 1.368 . S
C231 H236 0.931 . S
C232 C231 1.351 . S
C232 N233 1.373 . S
C232 H260 0.930 . S
N233 C232 1.373 . S
N233 C235 1.340 . S
N234 C231 1.368 . S
N234 C235 1.321 . S
N234 Co237 2.135 . S
C235 N233 1.340 . S
C235 N234 1.321 . S
C235 H259 0.930 . S
H236 C231 0.931 . S
Co237 N234 2.135 . S
Co237 N240 2.121 . S
Co237 O245 2.055 . S
Co237 O248 2.039 . S
Co237 N251 2.140 . S
C238 O239 1.227 . S
C238 O248 1.265 . S
O239 C238 1.227 . S
N240 Co237 2.121 . S
N240 C242 1.375 . S
N240 C243 1.313 . S
C241 C242 1.338 . S
C241 N244 1.377 . S
C241 H261 0.930 . S
C242 N240 1.375 . S
C242 C241 1.338 . S
C242 H246 0.931 . S
C243 N240 1.313 . S
C243 N244 1.344 . S
C243 H247 0.930 . S
N244 C241 1.377 . S
N244 C243 1.344 . S
O245 Co237 2.055 . S
O245 C249 1.253 . S
H246 C242 0.931 . S
H247 C243 0.930 . S
O248 Co237 2.039 . S
O248 C238 1.265 . S
C249 O245 1.253 . S
C249 O250 1.227 . S
O250 C249 1.227 . S
N251 Co237 2.140 . S
N251 C254 1.346 . S
N251 C255 1.345 . S
C252 C253 1.387 . S
C252 C256 1.391 . S
C253 C252 1.387 . S
C253 C254 1.369 . S
C253 H262 0.929 . S
C254 N251 1.346 . S
C254 C253 1.369 . S
C254 H257 0.928 . S
C255 N251 1.345 . S
C255 C256 1.371 . S
C255 H258 0.931 . S
C256 C252 1.391 . S
C256 C255 1.371 . S
C256 H263 0.930 . S
H257 C254 0.928 . S
H258 C255 0.931 . S
H259 C235 0.930 . S
H260 C232 0.930 . S
H261 C241 0.930 . S
H262 C253 0.929 . S
H263 C256 0.930 . S
C264 C265 1.351 . S
C264 N267 1.368 . S
C264 H269 0.931 . S
C265 C264 1.351 . S
C265 N266 1.373 . S
C265 H293 0.930 . S
N266 C265 1.373 . S
N266 C268 1.340 . S
N267 C264 1.368 . S
N267 C268 1.321 . S
N267 Co270 2.135 . S
C268 N266 1.340 . S
C268 N267 1.321 . S
C268 H292 0.930 . S
H269 C264 0.931 . S
Co270 N267 2.135 . S
Co270 N273 2.121 . S
Co270 O278 2.055 . S
Co270 O281 2.039 . S
Co270 N284 2.140 . S
C271 O272 1.227 . S
C271 O281 1.265 . S
O272 C271 1.227 . S
N273 Co270 2.121 . S
N273 C275 1.375 . S
N273 C276 1.313 . S
C274 C275 1.338 . S
C274 N277 1.377 . S
C274 H294 0.930 . S
C275 N273 1.375 . S
C275 C274 1.338 . S
C275 H279 0.931 . S
C276 N273 1.313 . S
C276 N277 1.344 . S
C276 H280 0.930 . S
N277 C274 1.377 . S
N277 C276 1.344 . S
O278 Co270 2.055 . S
O278 C282 1.253 . S
H279 C275 0.931 . S
H280 C276 0.930 . S
O281 Co270 2.039 . S
O281 C271 1.265 . S
C282 O278 1.253 . S
C282 O283 1.227 . S
O283 C282 1.227 . S
N284 Co270 2.140 . S
N284 C287 1.346 . S
N284 C288 1.345 . S
C285 C286 1.387 . S
C285 C289 1.391 . S
C286 C285 1.387 . S
C286 C287 1.369 . S
C286 H295 0.929 . S
C287 N284 1.346 . S
C287 C286 1.369 . S
C287 H290 0.928 . S
C288 N284 1.345 . S
C288 C289 1.371 . S
C288 H291 0.931 . S
C289 C285 1.391 . S
C289 C288 1.371 . S
C289 H296 0.930 . S
H290 C287 0.928 . S
H291 C288 0.931 . S
H292 C268 0.930 . S
H293 C265 0.930 . S
H294 C274 0.930 . S
H295 C286 0.929 . S
H296 C289 0.930 . S
C297 C298 1.351 . S
C297 N300 1.368 . S
C297 H302 0.931 . S
C298 C297 1.351 . S
C298 N299 1.373 . S
C298 H326 0.930 . S
N299 C298 1.373 . S
N299 C301 1.340 . S
N300 C297 1.368 . S
N300 C301 1.321 . S
N300 Co303 2.135 . S
C301 N299 1.340 . S
C301 N300 1.321 . S
C301 H325 0.930 . S
H302 C297 0.931 . S
Co303 N300 2.135 . S
Co303 N306 2.121 . S
Co303 O311 2.055 . S
Co303 O314 2.039 . S
Co303 N317 2.140 . S
C304 O305 1.227 . S
C304 O314 1.265 . S
O305 C304 1.227 . S
N306 Co303 2.121 . S
N306 C308 1.375 . S
N306 C309 1.313 . S
C307 C308 1.338 . S
C307 N310 1.377 . S
C307 H327 0.930 . S
C308 N306 1.375 . S
C308 C307 1.338 . S
C308 H312 0.931 . S
C309 N306 1.313 . S
C309 N310 1.344 . S
C309 H313 0.930 . S
N310 C307 1.377 . S
N310 C309 1.344 . S
O311 Co303 2.055 . S
O311 C315 1.253 . S
H312 C308 0.931 . S
H313 C309 0.930 . S
O314 Co303 2.039 . S
O314 C304 1.265 . S
C315 O311 1.253 . S
C315 O316 1.227 . S
O316 C315 1.227 . S
N317 Co303 2.140 . S
N317 C320 1.346 . S
N317 C321 1.345 . S
C318 C319 1.387 . S
C318 C322 1.391 . S
C319 C318 1.387 . S
C319 C320 1.369 . S
C319 H328 0.911 1_655 S
C320 N317 1.346 . S
C320 C319 1.369 . S
C320 H323 0.928 . S
C321 N317 1.345 . S
C321 C322 1.371 . S
C321 H324 0.931 . S
C322 C318 1.391 . S
C322 C321 1.371 . S
C322 H329 0.930 . S
H323 C320 0.928 . S
H324 C321 0.931 . S
H325 C301 0.930 . S
H326 C298 0.930 . S
H327 C307 0.930 . S
H328 C319 0.911 1_455 S
H329 C322 0.930 . S
C330 C331 1.351 . S
C330 N333 1.368 . S
C330 H335 0.931 . S
C331 C330 1.351 . S
C331 N332 1.373 . S
C331 H359 0.930 . S
N332 C331 1.373 . S
N332 C334 1.340 . S
N333 C330 1.368 . S
N333 C334 1.321 . S
N333 Co336 2.135 . S
C334 N332 1.340 . S
C334 N333 1.321 . S
C334 H358 0.930 . S
H335 C330 0.931 . S
Co336 N333 2.135 . S
Co336 N339 2.121 . S
Co336 O344 2.055 . S
Co336 O347 2.039 . S
Co336 N350 2.140 . S
C337 O338 1.227 . S
C337 O347 1.265 . S
O338 C337 1.227 . S
N339 Co336 2.121 . S
N339 C341 1.375 . S
N339 C342 1.313 . S
C340 C341 1.338 . S
C340 N343 1.377 . S
C340 H360 0.930 . S
C341 N339 1.375 . S
C341 C340 1.338 . S
C341 H345 0.931 . S
C342 N339 1.313 . S
C342 N343 1.344 . S
C342 H346 0.930 . S
N343 C340 1.377 . S
N343 C342 1.344 . S
O344 Co336 2.055 . S
O344 C348 1.253 . S
H345 C341 0.931 . S
H346 C342 0.930 . S
O347 Co336 2.039 . S
O347 C337 1.265 . S
C348 O344 1.253 . S
C348 O349 1.227 . S
O349 C348 1.227 . S
N350 Co336 2.140 . S
N350 C353 1.346 . S
N350 C354 1.345 . S
C351 C352 1.387 . S
C351 C355 1.391 . S
C352 C351 1.387 . S
C352 C353 1.369 . S
C352 H361 0.929 . S
C353 N350 1.346 . S
C353 C352 1.369 . S
C353 H356 0.928 . S
C354 N350 1.345 . S
C354 C355 1.371 . S
C354 H357 0.931 . S
C355 C351 1.391 . S
C355 C354 1.371 . S
C355 H362 0.930 . S
H356 C353 0.928 . S
H357 C354 0.931 . S
H358 C334 0.930 . S
H359 C331 0.930 . S
H360 C340 0.930 . S
H361 C352 0.929 . S
H362 C355 0.930 . S
C363 C364 1.351 . S
C363 N366 1.368 . S
C363 H368 0.931 . S
C364 C363 1.351 . S
C364 N365 1.373 . S
C364 H392 0.930 . S
N365 C364 1.373 . S
N365 C367 1.340 . S
N366 C363 1.368 . S
N366 C367 1.321 . S
N366 Co369 2.135 . S
C367 N365 1.340 . S
C367 N366 1.321 . S
C367 H391 0.930 . S
H368 C363 0.931 . S
Co369 N366 2.135 . S
Co369 N372 2.121 . S
Co369 O377 2.055 . S
Co369 O380 2.039 . S
Co369 N383 2.140 . S
C370 O371 1.227 . S
C370 O380 1.265 . S
O371 C370 1.227 . S
N372 Co369 2.121 . S
N372 C374 1.375 . S
N372 C375 1.313 . S
C373 C374 1.338 . S
C373 N376 1.377 . S
C373 H393 0.930 . S
C374 N372 1.375 . S
C374 C373 1.338 . S
C374 H378 0.931 . S
C375 N372 1.313 . S
C375 N376 1.344 . S
C375 H379 0.930 . S
N376 C373 1.377 . S
N376 C375 1.344 . S
O377 Co369 2.055 . S
O377 C381 1.253 . S
H378 C374 0.931 . S
H379 C375 0.930 . S
O380 Co369 2.039 . S
O380 C370 1.265 . S
C381 O377 1.253 . S
C381 O382 1.227 . S
O382 C381 1.227 . S
N383 Co369 2.140 . S
N383 C386 1.346 . S
N383 C387 1.345 . S
C384 C385 1.387 . S
C384 C388 1.391 . S
C385 C384 1.387 . S
C385 C386 1.369 . S
C385 H394 0.929 1_545 S
C386 N383 1.346 . S
C386 C385 1.369 . S
C386 H389 0.928 . S
C387 N383 1.345 . S
C387 C388 1.371 . S
C387 H390 0.931 . S
C388 C384 1.391 . S
C388 C387 1.371 . S
C388 H395 0.930 . S
H389 C386 0.928 . S
H390 C387 0.931 . S
H391 C367 0.930 . S
H392 C364 0.930 . S
H393 C373 0.930 . S
H394 C385 0.929 1_565 S
H395 C388 0.930 . S
C396 C397 1.351 . S
C396 N399 1.368 . S
C396 H401 0.931 . S
C397 C396 1.351 . S
C397 N398 1.373 . S
C397 H425 0.930 . S
N398 C397 1.373 . S
N398 C400 1.340 . S
N399 C396 1.368 . S
N399 C400 1.321 . S
N399 Co402 2.135 . S
C400 N398 1.340 . S
C400 N399 1.321 . S
C400 H424 0.930 . S
H401 C396 0.931 . S
Co402 N399 2.135 . S
Co402 N405 2.121 . S
Co402 O410 2.055 . S
Co402 O413 2.039 . S
Co402 N416 2.140 . S
C403 O404 1.227 . S
C403 O413 1.265 . S
O404 C403 1.227 . S
N405 Co402 2.121 . S
N405 C407 1.375 . S
N405 C408 1.313 . S
C406 C407 1.338 . S
C406 N409 1.377 . S
C406 H426 0.930 . S
C407 N405 1.375 . S
C407 C406 1.338 . S
C407 H411 0.931 . S
C408 N405 1.313 . S
C408 N409 1.344 . S
C408 H412 0.930 . S
N409 C406 1.377 . S
N409 C408 1.344 . S
O410 Co402 2.055 . S
O410 C414 1.253 . S
H411 C407 0.931 . S
H412 C408 0.930 . S
O413 Co402 2.039 . S
O413 C403 1.265 . S
C414 O410 1.253 . S
C414 O415 1.227 . S
O415 C414 1.227 . S
N416 Co402 2.140 . S
N416 C419 1.346 . S
N416 C420 1.345 . S
C417 C418 1.387 . S
C417 C421 1.391 . S
C418 C417 1.387 . S
C418 C419 1.369 . S
C418 H427 0.911 1_565 S
C419 N416 1.346 . S
C419 C418 1.369 . S
C419 H422 0.928 . S
C420 N416 1.345 . S
C420 C421 1.371 . S
C420 H423 0.931 . S
C421 C417 1.391 . S
C421 C420 1.371 . S
C421 H428 0.930 . S
H422 C419 0.928 . S
H423 C420 0.931 . S
H424 C400 0.930 . S
H425 C397 0.930 . S
H426 C406 0.930 . S
H427 C418 0.911 1_545 S
H428 C421 0.930 . S
C429 C430 1.351 . S
C429 N432 1.368 . S
C429 H434 0.931 . S
C430 C429 1.351 . S
C430 N431 1.373 . S
C430 H458 0.930 . S
N431 C430 1.373 . S
N431 C433 1.340 . S
N432 C429 1.368 . S
N432 C433 1.321 . S
N432 Co435 2.135 . S
C433 N431 1.340 . S
C433 N432 1.321 . S
C433 H457 0.930 . S
H434 C429 0.931 . S
Co435 N432 2.135 . S
Co435 N438 2.121 . S
Co435 O443 2.055 . S
Co435 O446 2.039 . S
Co435 N449 2.140 . S
C436 O437 1.227 . S
C436 O446 1.265 . S
O437 C436 1.227 . S
N438 Co435 2.121 . S
N438 C440 1.375 . S
N438 C441 1.313 . S
C439 C440 1.338 . S
C439 N442 1.377 . S
C439 H459 0.930 . S
C440 N438 1.375 . S
C440 C439 1.338 . S
C440 H444 0.931 . S
C441 N438 1.313 . S
C441 N442 1.344 . S
C441 H445 0.930 . S
N442 C439 1.377 . S
N442 C441 1.344 . S
O443 Co435 2.055 . S
O443 C447 1.253 . S
H444 C440 0.931 . S
H445 C441 0.930 . S
O446 Co435 2.039 . S
O446 C436 1.265 . S
C447 O443 1.253 . S
C447 O448 1.227 . S
O448 C447 1.227 . S
N449 Co435 2.140 . S
N449 C452 1.346 . S
N449 C453 1.345 . S
C450 C451 1.387 . S
C450 C454 1.391 . S
C451 C450 1.387 . S
C451 C452 1.369 . S
C451 H460 0.929 1_455 S
C452 N449 1.346 . S
C452 C451 1.369 . S
C452 H455 0.928 . S
C453 N449 1.345 . S
C453 C454 1.371 . S
C453 H456 0.931 . S
C454 C450 1.391 . S
C454 C453 1.371 . S
C454 H461 0.930 . S
H455 C452 0.928 . S
H456 C453 0.931 . S
H457 C433 0.930 . S
H458 C430 0.930 . S
H459 C439 0.930 . S
H460 C451 0.929 1_655 S
H461 C454 0.930 . S
C462 C463 1.351 . S
C462 N465 1.368 . S
C462 H467 0.931 . S
C463 C462 1.351 . S
C463 N464 1.373 . S
C463 H491 0.930 . S
N464 C463 1.373 . S
N464 C466 1.340 . S
N465 C462 1.368 . S
N465 C466 1.321 . S
N465 Co468 2.135 . S
C466 N464 1.340 . S
C466 N465 1.321 . S
C466 H490 0.930 . S
H467 C462 0.931 . S
Co468 N465 2.135 . S
Co468 N471 2.121 . S
Co468 O476 2.055 . S
Co468 O479 2.039 . S
Co468 N482 2.140 . S
C469 O470 1.227 . S
C469 O479 1.265 . S
O470 C469 1.227 . S
N471 Co468 2.121 . S
N471 C473 1.375 . S
N471 C474 1.313 . S
C472 C473 1.338 . S
C472 N475 1.377 . S
C472 H492 0.930 . S
C473 N471 1.375 . S
C473 C472 1.338 . S
C473 H477 0.931 . S
C474 N471 1.313 . S
C474 N475 1.344 . S
C474 H478 0.930 . S
N475 C472 1.377 . S
N475 C474 1.344 . S
O476 Co468 2.055 . S
O476 C480 1.253 . S
H477 C473 0.931 . S
H478 C474 0.930 . S
O479 Co468 2.039 . S
O479 C469 1.265 . S
C480 O476 1.253 . S
C480 O481 1.227 . S
O481 C480 1.227 . S
N482 Co468 2.140 . S
N482 C485 1.346 . S
N482 C486 1.345 . S
C483 C484 1.387 . S
C483 C487 1.391 . S
C484 C483 1.387 . S
C484 C485 1.369 . S
C484 H493 0.929 . S
C485 N482 1.346 . S
C485 C484 1.369 . S
C485 H488 0.928 . S
C486 N482 1.345 . S
C486 C487 1.371 . S
C486 H489 0.931 . S
C487 C483 1.391 . S
C487 C486 1.371 . S
C487 H494 0.930 . S
H488 C485 0.928 . S
H489 C486 0.931 . S
H490 C466 0.930 . S
H491 C463 0.930 . S
H492 C472 0.930 . S
H493 C484 0.929 . S
H494 C487 0.930 . S
C495 C496 1.351 . S
C495 N498 1.368 . S
C495 H500 0.931 . S
C496 C495 1.351 . S
C496 N497 1.373 . S
C496 H524 0.930 . S
N497 C496 1.373 . S
N497 C499 1.340 . S
N498 C495 1.368 . S
N498 C499 1.321 . S
N498 Co501 2.135 . S
C499 N497 1.340 . S
C499 N498 1.321 . S
C499 H523 0.930 . S
H500 C495 0.931 . S
Co501 N498 2.135 . S
Co501 N504 2.121 . S
Co501 O509 2.055 . S
Co501 O512 2.039 . S
Co501 N515 2.140 . S
C502 O503 1.227 . S
C502 O512 1.265 . S
O503 C502 1.227 . S
N504 Co501 2.121 . S
N504 C506 1.375 . S
N504 C507 1.313 . S
C505 C506 1.338 . S
C505 N508 1.377 . S
C505 H525 0.930 . S
C506 N504 1.375 . S
C506 C505 1.338 . S
C506 H510 0.931 . S
C507 N504 1.313 . S
C507 N508 1.344 . S
C507 H511 0.930 . S
N508 C505 1.377 . S
N508 C507 1.344 . S
O509 Co501 2.055 . S
O509 C513 1.253 . S
H510 C506 0.931 . S
H511 C507 0.930 . S
O512 Co501 2.039 . S
O512 C502 1.265 . S
C513 O509 1.253 . S
C513 O514 1.227 . S
O514 C513 1.227 . S
N515 Co501 2.140 . S
N515 C518 1.346 . S
N515 C519 1.345 . S
C516 C517 1.387 . S
C516 C520 1.391 . S
C517 C516 1.387 . S
C517 C518 1.369 . S
C517 H526 0.929 . S
C518 N515 1.346 . S
C518 C517 1.369 . S
C518 H521 0.928 . S
C519 N515 1.345 . S
C519 C520 1.371 . S
C519 H522 0.931 . S
C520 C516 1.391 . S
C520 C519 1.371 . S
C520 H527 0.930 . S
H521 C518 0.928 . S
H522 C519 0.931 . S
H523 C499 0.930 . S
H524 C496 0.930 . S
H525 C505 0.930 . S
H526 C517 0.929 . S
H527 C520 0.930 . S
C528 C529 1.351 . S
C528 N531 1.368 . S
C528 H533 0.931 . S
C529 C528 1.351 . S
C529 N530 1.373 . S
C529 H557 0.930 . S
N530 C529 1.373 . S
N530 C532 1.340 . S
N531 C528 1.368 . S
N531 C532 1.321 . S
N531 Co534 2.135 . S
C532 N530 1.340 . S
C532 N531 1.321 . S
C532 H556 0.930 . S
H533 C528 0.931 . S
Co534 N531 2.135 . S
Co534 N537 2.121 . S
Co534 O542 2.055 . S
Co534 O545 2.039 . S
Co534 N548 2.140 . S
C535 O536 1.227 . S
C535 O545 1.265 . S
O536 C535 1.227 . S
N537 Co534 2.121 . S
N537 C539 1.375 . S
N537 C540 1.313 . S
C538 C539 1.338 . S
C538 N541 1.377 . S
C538 H558 0.930 . S
C539 N537 1.375 . S
C539 C538 1.338 . S
C539 H543 0.931 . S
C540 N537 1.313 . S
C540 N541 1.344 . S
C540 H544 0.930 . S
N541 C538 1.377 . S
N541 C540 1.344 . S
O542 Co534 2.055 . S
O542 C546 1.253 . S
H543 C539 0.931 . S
H544 C540 0.930 . S
O545 Co534 2.039 . S
O545 C535 1.265 . S
C546 O542 1.253 . S
C546 O547 1.227 . S
O547 C546 1.227 . S
N548 Co534 2.140 . S
N548 C551 1.346 . S
N548 C552 1.345 . S
C549 C550 1.387 . S
C549 C553 1.391 . S
C550 C549 1.387 . S
C550 C551 1.369 . S
C550 H559 0.929 . S
C551 N548 1.346 . S
C551 C550 1.369 . S
C551 H554 0.928 . S
C552 N548 1.345 . S
C552 C553 1.371 . S
C552 H555 0.931 . S
C553 C549 1.391 . S
C553 C552 1.371 . S
C553 H560 0.930 . S
H554 C551 0.928 . S
H555 C552 0.931 . S
H556 C532 0.930 . S
H557 C529 0.930 . S
H558 C538 0.930 . S
H559 C550 0.929 . S
H560 C553 0.930 . S
C561 C562 1.351 . S
C561 N564 1.368 . S
C561 H566 0.931 . S
C562 C561 1.351 . S
C562 N563 1.373 . S
C562 H590 0.930 . S
N563 C562 1.373 . S
N563 C565 1.340 . S
N564 C561 1.368 . S
N564 C565 1.321 . S
N564 Co567 2.135 . S
C565 N563 1.340 . S
C565 N564 1.321 . S
C565 H589 0.930 . S
H566 C561 0.931 . S
Co567 N564 2.135 . S
Co567 N570 2.121 . S
Co567 O575 2.055 . S
Co567 O578 2.039 . S
Co567 N581 2.140 . S
C568 O569 1.227 . S
C568 O578 1.265 . S
O569 C568 1.227 . S
N570 Co567 2.121 . S
N570 C572 1.375 . S
N570 C573 1.313 . S
C571 C572 1.338 . S
C571 N574 1.377 . S
C571 H591 0.930 . S
C572 N570 1.375 . S
C572 C571 1.338 . S
C572 H576 0.931 . S
C573 N570 1.313 . S
C573 N574 1.344 . S
C573 H577 0.930 . S
N574 C571 1.377 . S
N574 C573 1.344 . S
O575 Co567 2.055 . S
O575 C579 1.253 . S
H576 C572 0.931 . S
H577 C573 0.930 . S
O578 Co567 2.039 . S
O578 C568 1.265 . S
C579 O575 1.253 . S
C579 O580 1.227 . S
O580 C579 1.227 . S
N581 Co567 2.140 . S
N581 C584 1.346 . S
N581 C585 1.345 . S
C582 C583 1.387 . S
C582 C586 1.391 . S
C583 C582 1.387 . S
C583 C584 1.369 . S
C583 H592 0.929 . S
C584 N581 1.346 . S
C584 C583 1.369 . S
C584 H587 0.928 . S
C585 N581 1.345 . S
C585 C586 1.371 . S
C585 H588 0.931 . S
C586 C582 1.391 . S
C586 C585 1.371 . S
C586 H593 0.930 . S
H587 C584 0.928 . S
H588 C585 0.931 . S
H589 C565 0.930 . S
H590 C562 0.930 . S
H591 C571 0.930 . S
H592 C583 0.929 . S
H593 C586 0.930 . S
H594 C602 0.929 . S
H595 C604 0.930 . S
H596 C606 0.930 . S
H597 C609 0.929 . S
H598 C612 0.930 . S
H599 C614 0.960 . S
H600 C614 0.960 . S
H601 C614 0.960 . S
C602 H594 0.929 . S
C602 C603 1.377 . S
C602 C604 1.384 . S
C603 C602 1.377 . S
C603 C609 1.390 . S
C604 H595 0.930 . S
C604 C602 1.384 . S
C604 C605 1.372 . S
C605 C604 1.372 . S
C605 C606 1.400 . S
C605 C610 1.490 . S
C606 H596 0.930 . S
C606 C605 1.400 . S
C606 C609 1.386 . S
H607 C623 0.930 . S
H608 C624 0.931 . S
C609 H597 0.929 . S
C609 C603 1.390 . S
C609 C606 1.386 . S
C610 C605 1.490 . S
C610 C612 1.395 . S
C610 C613 1.403 . S
H611 C617 0.930 . S
C612 H598 0.930 . S
C612 C610 1.395 . S
C612 C615 1.403 . S
C613 C610 1.403 . S
C613 C614 1.524 . S
C613 C617 1.400 . S
C614 H599 0.960 . S
C614 H600 0.960 . S
C614 H601 0.960 . S
C614 C613 1.524 . S
C615 C612 1.403 . S
C615 C616 1.392 . S
C615 C619 1.495 . S
C616 C615 1.392 . S
C616 C617 1.385 . S
C616 C618 1.478 . S
C617 H611 0.930 . S
C617 C613 1.400 . S
C617 C616 1.385 . S
C618 C616 1.478 . S
C618 C620 1.381 . S
C618 C624 1.383 . S
C619 C615 1.495 . S
C619 H625 0.959 . S
C619 H626 0.961 . S
C619 H627 0.960 . S
C620 C618 1.381 . S
C620 C621 1.394 . S
C620 H628 0.930 . S
C621 C620 1.394 . S
C621 C622 1.383 . S
C621 H629 0.929 . S
C622 C621 1.383 . S
C622 C623 1.377 . S
C623 H607 0.930 . S
C623 C622 1.377 . S
C623 C624 1.379 . S
C624 H608 0.931 . S
C624 C618 1.383 . S
C624 C623 1.379 . S
H625 C619 0.959 . S
H626 C619 0.961 . S
H627 C619 0.960 . S
H628 C620 0.930 . S
H629 C621 0.929 . S
H630 C638 0.929 . S
H631 C640 0.930 . S
H632 C642 0.930 . S
H633 C645 0.929 . S
H634 C648 0.930 . S
H635 C650 0.960 . S
H636 C650 0.960 . S
H637 C650 0.960 . S
C638 H630 0.929 . S
C638 C639 1.377 . S
C638 C640 1.384 . S
C639 C638 1.377 . S
C639 C645 1.390 . S
C640 H631 0.930 . S
C640 C638 1.384 . S
C640 C641 1.372 . S
C641 C640 1.372 . S
C641 C642 1.400 . S
C641 C646 1.490 . S
C642 H632 0.930 . S
C642 C641 1.400 . S
C642 C645 1.386 . S
H643 C659 0.930 . S
H644 C660 0.931 . S
C645 H633 0.929 . S
C645 C639 1.390 . S
C645 C642 1.386 . S
C646 C641 1.490 . S
C646 C648 1.395 . S
C646 C649 1.403 . S
H647 C653 0.930 . S
C648 H634 0.930 . S
C648 C646 1.395 . S
C648 C651 1.403 . S
C649 C646 1.403 . S
C649 C650 1.524 . S
C649 C653 1.400 . S
C650 H635 0.960 . S
C650 H636 0.960 . S
C650 H637 0.960 . S
C650 C649 1.524 . S
C651 C648 1.403 . S
C651 C652 1.392 . S
C651 C655 1.495 . S
C652 C651 1.392 . S
C652 C653 1.385 . S
C652 C654 1.478 . S
C653 H647 0.930 . S
C653 C649 1.400 . S
C653 C652 1.385 . S
C654 C652 1.478 . S
C654 C656 1.381 . S
C654 C660 1.383 . S
C655 C651 1.495 . S
C655 H661 0.962 1_565 S
C655 H662 0.961 1_565 S
C655 H663 0.960 . S
C656 C654 1.381 . S
C656 C657 1.394 . S
C656 H664 0.930 . S
C657 C656 1.394 . S
C657 C658 1.383 . S
C657 H665 0.929 . S
C658 C657 1.383 . S
C658 C659 1.377 . S
C659 H643 0.930 . S
C659 C658 1.377 . S
C659 C660 1.379 . S
C660 H644 0.931 . S
C660 C654 1.383 . S
C660 C659 1.379 . S
H661 C655 0.962 1_545 S
H662 C655 0.961 1_545 S
H663 C655 0.960 . S
H664 C656 0.930 . S
H665 C657 0.929 . S
H666 C674 0.929 . S
H667 C676 0.930 . S
H668 C678 0.930 1_655 S
H669 C681 0.929 . S
H670 C684 0.930 . S
H671 C686 0.960 . S
H672 C686 0.960 . S
H673 C686 0.960 . S
C674 H666 0.929 . S
C674 C675 1.377 . S
C674 C676 1.384 . S
C675 C674 1.377 . S
C675 C681 1.390 1_455 S
C676 H667 0.930 . S
C676 C674 1.384 . S
C676 C677 1.372 . S
C677 C676 1.372 . S
C677 C678 1.400 . S
C677 C682 1.490 . S
C678 H668 0.930 1_455 S
C678 C677 1.400 . S
C678 C681 1.386 1_455 S
H679 C695 0.930 . S
H680 C696 0.931 . S
C681 H669 0.929 . S
C681 C675 1.390 1_655 S
C681 C678 1.386 1_655 S
C682 C677 1.490 . S
C682 C684 1.395 . S
C682 C685 1.403 . S
H683 C689 0.930 . S
C684 H670 0.930 . S
C684 C682 1.395 . S
C684 C687 1.403 . S
C685 C682 1.403 . S
C685 C686 1.524 . S
C685 C689 1.400 . S
C686 H671 0.960 . S
C686 H672 0.960 . S
C686 H673 0.960 . S
C686 C685 1.524 . S
C687 C684 1.403 . S
C687 C688 1.392 . S
C687 C691 1.495 . S
C688 C687 1.392 . S
C688 C689 1.385 . S
C688 C690 1.478 . S
C689 H683 0.930 . S
C689 C685 1.400 . S
C689 C688 1.385 . S
C690 C688 1.478 . S
C690 C692 1.381 . S
C690 C696 1.383 . S
C691 C687 1.495 . S
C691 H697 0.959 . S
C691 H698 0.961 . S
C691 H699 0.960 . S
C692 C690 1.381 . S
C692 C693 1.394 . S
C692 H700 0.930 . S
C693 C692 1.394 . S
C693 C694 1.383 . S
C693 H701 0.929 . S
C694 C693 1.383 . S
C694 C695 1.377 . S
C695 H679 0.930 . S
C695 C694 1.377 . S
C695 C696 1.379 . S
C696 H680 0.931 . S
C696 C690 1.383 . S
C696 C695 1.379 . S
H697 C691 0.959 . S
H698 C691 0.961 . S
H699 C691 0.960 . S
H700 C692 0.930 . S
H701 C693 0.929 . S
H702 C710 0.929 . S
H703 C712 0.930 . S
H704 C714 0.930 . S
H705 C717 0.929 . S
H706 C720 0.930 . S
H707 C722 0.960 . S
H708 C722 0.960 . S
H709 C722 0.960 . S
C710 H702 0.929 . S
C710 C711 1.377 . S
C710 C712 1.384 . S
C711 C710 1.377 . S
C711 C717 1.390 . S
C712 H703 0.930 . S
C712 C710 1.384 . S
C712 C713 1.372 . S
C713 C712 1.372 . S
C713 C714 1.400 . S
C713 C718 1.490 . S
C714 H704 0.930 . S
C714 C713 1.400 . S
C714 C717 1.386 . S
H715 C731 0.930 . S
H716 C732 0.931 . S
C717 H705 0.929 . S
C717 C711 1.390 . S
C717 C714 1.386 . S
C718 C713 1.490 . S
C718 C720 1.395 . S
C718 C721 1.403 . S
H719 C725 0.930 . S
C720 H706 0.930 . S
C720 C718 1.395 . S
C720 C723 1.403 . S
C721 C718 1.403 . S
C721 C722 1.524 . S
C721 C725 1.400 . S
C722 H707 0.960 . S
C722 H708 0.960 . S
C722 H709 0.960 . S
C722 C721 1.524 . S
C723 C720 1.403 . S
C723 C724 1.392 . S
C723 C727 1.495 . S
C724 C723 1.392 . S
C724 C725 1.385 . S
C724 C726 1.478 . S
C725 H719 0.930 . S
C725 C721 1.400 . S
C725 C724 1.385 . S
C726 C724 1.478 . S
C726 C728 1.381 . S
C726 C732 1.383 . S
C727 C723 1.495 . S
C727 H733 0.959 . S
C727 H734 0.961 . S
C727 H735 0.960 . S
C728 C726 1.381 . S
C728 C729 1.394 . S
C728 H736 0.930 . S
C729 C728 1.394 . S
C729 C730 1.383 . S
C729 H737 0.929 . S
C730 C729 1.383 . S
C730 C731 1.377 . S
C731 H715 0.930 . S
C731 C730 1.377 . S
C731 C732 1.379 . S
C732 H716 0.931 . S
C732 C726 1.383 . S
C732 C731 1.379 . S
H733 C727 0.959 . S
H734 C727 0.961 . S
H735 C727 0.960 . S
H736 C728 0.930 . S
H737 C729 0.929 . S
H738 C746 0.929 . S
H739 C748 0.930 . S
H740 C750 0.930 . S
H741 C753 0.929 . S
H742 C756 0.930 . S
H743 C758 0.960 . S
H744 C758 0.960 . S
H745 C758 0.960 . S
C746 H738 0.929 . S
C746 C747 1.377 . S
C746 C748 1.384 . S
C747 C746 1.377 . S
C747 C753 1.390 . S
C748 H739 0.930 . S
C748 C746 1.384 . S
C748 C749 1.372 . S
C749 C748 1.372 . S
C749 C750 1.400 . S
C749 C754 1.490 . S
C750 H740 0.930 . S
C750 C749 1.400 . S
C750 C753 1.386 . S
H751 C767 0.930 . S
H752 C768 0.931 . S
C753 H741 0.929 . S
C753 C747 1.390 . S
C753 C750 1.386 . S
C754 C749 1.490 . S
C754 C756 1.395 . S
C754 C757 1.403 . S
H755 C761 0.930 . S
C756 H742 0.930 . S
C756 C754 1.395 . S
C756 C759 1.403 . S
C757 C754 1.403 . S
C757 C758 1.524 . S
C757 C761 1.400 . S
C758 H743 0.960 . S
C758 H744 0.960 . S
C758 H745 0.960 . S
C758 C757 1.524 . S
C759 C756 1.403 . S
C759 C760 1.392 . S
C759 C763 1.495 . S
C760 C759 1.392 . S
C760 C761 1.385 . S
C760 C762 1.478 . S
C761 H755 0.930 . S
C761 C757 1.400 . S
C761 C760 1.385 . S
C762 C760 1.478 . S
C762 C764 1.381 . S
C762 C768 1.383 . S
C763 C759 1.495 . S
C763 H769 0.959 1_545 S
C763 H770 0.961 . S
C763 H771 0.960 1_545 S
C764 C762 1.381 . S
C764 C765 1.394 1_545 S
C764 H772 0.930 1_545 S
C765 C764 1.394 1_565 S
C765 C766 1.383 1_565 S
C765 H773 0.929 . S
C766 C765 1.383 1_545 S
C766 C767 1.377 . S
C767 H751 0.930 . S
C767 C766 1.377 . S
C767 C768 1.379 . S
C768 H752 0.931 . S
C768 C762 1.383 . S
C768 C767 1.379 . S
H769 C763 0.959 1_565 S
H770 C763 0.961 . S
H771 C763 0.960 1_565 S
H772 C764 0.930 1_565 S
H773 C765 0.929 . S
H774 C782 0.929 . S
H775 C784 0.930 . S
H776 C786 0.930 . S
H777 C789 0.929 1_455 S
H778 C792 0.930 . S
H779 C794 0.960 1_455 S
H780 C794 0.960 1_455 S
H781 C794 0.960 1_455 S
C782 H774 0.929 . S
C782 C783 1.377 . S
C782 C784 1.384 . S
C783 C782 1.377 . S
C783 C789 1.390 . S
C784 H775 0.930 . S
C784 C782 1.384 . S
C784 C785 1.372 . S
C785 C784 1.372 . S
C785 C786 1.400 . S
C785 C790 1.490 . S
C786 H776 0.930 . S
C786 C785 1.400 . S
C786 C789 1.386 . S
H787 C803 0.930 . S
H788 C804 0.931 . S
C789 H777 0.929 1_655 S
C789 C783 1.390 . S
C789 C786 1.386 . S
C790 C785 1.490 . S
C790 C792 1.395 . S
C790 C793 1.403 . S
H791 C797 0.930 . S
C792 H778 0.930 . S
C792 C790 1.395 . S
C792 C795 1.403 . S
C793 C790 1.403 . S
C793 C794 1.524 . S
C793 C797 1.400 . S
C794 H779 0.960 1_655 S
C794 H780 0.960 1_655 S
C794 H781 0.960 1_655 S
C794 C793 1.524 . S
C795 C792 1.403 . S
C795 C796 1.392 . S
C795 C799 1.495 . S
C796 C795 1.392 . S
C796 C797 1.385 . S
C796 C798 1.478 . S
C797 H791 0.930 . S
C797 C793 1.400 . S
C797 C796 1.385 . S
C798 C796 1.478 . S
C798 C800 1.381 . S
C798 C804 1.383 . S
C799 C795 1.495 . S
C799 H805 0.959 . S
C799 H806 0.961 . S
C799 H807 0.960 . S
C800 C798 1.381 . S
C800 C801 1.394 . S
C800 H808 0.930 . S
C801 C800 1.394 . S
C801 C802 1.383 . S
C801 H809 0.929 . S
C802 C801 1.383 . S
C802 C803 1.377 . S
C803 H787 0.930 . S
C803 C802 1.377 . S
C803 C804 1.379 . S
C804 H788 0.931 . S
C804 C798 1.383 . S
C804 C803 1.379 . S
H805 C799 0.959 . S
H806 C799 0.961 . S
H807 C799 0.960 . S
H808 C800 0.930 . S
H809 C801 0.929 . S
H810 C818 0.929 . S
H811 C820 0.930 . S
H812 C822 0.930 . S
H813 C825 0.929 . S
H814 C828 0.930 . S
H815 C830 0.960 . S
H816 C830 0.960 . S
H817 C830 0.960 . S
C818 H810 0.929 . S
C818 C819 1.377 . S
C818 C820 1.384 . S
C819 C818 1.377 . S
C819 C825 1.390 . S
C820 H811 0.930 . S
C820 C818 1.384 . S
C820 C821 1.372 . S
C821 C820 1.372 . S
C821 C822 1.400 . S
C821 C826 1.490 . S
C822 H812 0.930 . S
C822 C821 1.400 . S
C822 C825 1.386 . S
H823 C839 0.930 . S
H824 C840 0.931 . S
C825 H813 0.929 . S
C825 C819 1.390 . S
C825 C822 1.386 . S
C826 C821 1.490 . S
C826 C828 1.395 . S
C826 C829 1.403 . S
H827 C833 0.930 . S
C828 H814 0.930 . S
C828 C826 1.395 . S
C828 C831 1.403 . S
C829 C826 1.403 . S
C829 C830 1.524 . S
C829 C833 1.400 . S
C830 H815 0.960 . S
C830 H816 0.960 . S
C830 H817 0.960 . S
C830 C829 1.524 . S
C831 C828 1.403 . S
C831 C832 1.392 . S
C831 C835 1.495 . S
C832 C831 1.392 . S
C832 C833 1.385 . S
C832 C834 1.478 . S
C833 H827 0.930 . S
C833 C829 1.400 . S
C833 C832 1.385 . S
C834 C832 1.478 . S
C834 C836 1.381 . S
C834 C840 1.383 . S
C835 C831 1.495 . S
C835 H841 0.959 . S
C835 H842 0.961 . S
C835 H843 0.960 . S
C836 C834 1.381 . S
C836 C837 1.394 . S
C836 H844 0.930 . S
C837 C836 1.394 . S
C837 C838 1.383 . S
C837 H845 0.929 . S
C838 C837 1.383 . S
C838 C839 1.377 . S
C839 H823 0.930 . S
C839 C838 1.377 . S
C839 C840 1.379 . S
C840 H824 0.931 . S
C840 C834 1.383 . S
C840 C839 1.379 . S
H841 C835 0.959 . S
H842 C835 0.961 . S
H843 C835 0.960 . S
H844 C836 0.930 . S
H845 C837 0.929 . S
H846 C854 0.929 1_545 S
H847 C856 0.930 . S
H848 C858 0.930 . S
H849 C861 0.929 . S
H850 C864 0.930 . S
H851 C866 0.960 . S
H852 C866 0.960 . S
H853 C866 0.960 . S
C854 H846 0.929 1_565 S
C854 C855 1.377 . S
C854 C856 1.384 1_565 S
C855 C854 1.377 . S
C855 C861 1.390 . S
C856 H847 0.930 . S
C856 C854 1.384 1_545 S
C856 C857 1.372 1_545 S
C857 C856 1.372 1_565 S
C857 C858 1.400 . S
C857 C862 1.490 1_565 S
C858 H848 0.930 . S
C858 C857 1.400 . S
C858 C861 1.386 . S
H859 C875 0.930 . S
H860 C876 0.931 . S
C861 H849 0.929 . S
C861 C855 1.390 . S
C861 C858 1.386 . S
C862 C857 1.490 1_545 S
C862 C864 1.395 . S
C862 C865 1.403 . S
H863 C869 0.930 . S
C864 H850 0.930 . S
C864 C862 1.395 . S
C864 C867 1.403 . S
C865 C862 1.403 . S
C865 C866 1.524 1_545 S
C865 C869 1.400 . S
C866 H851 0.960 . S
C866 H852 0.960 . S
C866 H853 0.960 . S
C866 C865 1.524 1_565 S
C867 C864 1.403 . S
C867 C868 1.392 . S
C867 C871 1.495 . S
C868 C867 1.392 . S
C868 C869 1.385 . S
C868 C870 1.478 . S
C869 H863 0.930 . S
C869 C865 1.400 . S
C869 C868 1.385 . S
C870 C868 1.478 . S
C870 C872 1.381 . S
C870 C876 1.383 . S
C871 C867 1.495 . S
C871 H877 0.959 . S
C871 H878 0.961 . S
C871 H879 0.960 . S
C872 C870 1.381 . S
C872 C873 1.394 . S
C872 H880 0.930 . S
C873 C872 1.394 . S
C873 C874 1.383 . S
C873 H881 0.929 . S
C874 C873 1.383 . S
C874 C875 1.377 . S
C875 H859 0.930 . S
C875 C874 1.377 . S
C875 C876 1.379 . S
C876 H860 0.931 . S
C876 C870 1.383 . S
C876 C875 1.379 . S
H877 C871 0.959 . S
H878 C871 0.961 . S
H879 C871 0.960 . S
H880 C872 0.930 . S
H881 C873 0.929 . S
H882 C890 0.929 . S
H883 C892 0.930 . S
H884 C894 0.930 . S
H885 C897 0.929 . S
H886 C900 0.930 . S
H887 C902 0.960 . S
H888 C902 0.960 . S
H889 C902 0.937 1_655 S
C890 H882 0.929 . S
C890 C891 1.377 . S
C890 C892 1.384 . S
C891 C890 1.377 . S
C891 C897 1.390 . S
C892 H883 0.930 . S
C892 C890 1.384 . S
C892 C893 1.372 . S
C893 C892 1.372 . S
C893 C894 1.400 1_455 S
C893 C898 1.490 1_455 S
C894 H884 0.930 . S
C894 C893 1.400 1_655 S
C894 C897 1.386 1_655 S
H895 C911 0.930 . S
H896 C912 0.931 . S
C897 H885 0.929 . S
C897 C891 1.390 . S
C897 C894 1.386 1_455 S
C898 C893 1.490 1_655 S
C898 C900 1.395 . S
C898 C901 1.403 . S
H899 C905 0.930 . S
C900 H886 0.930 . S
C900 C898 1.395 . S
C900 C903 1.403 . S
C901 C898 1.403 . S
C901 C902 1.524 1_655 S
C901 C905 1.400 . S
C902 H887 0.960 . S
C902 H888 0.960 . S
C902 H889 0.937 1_455 S
C902 C901 1.524 1_455 S
C903 C900 1.403 . S
C903 C904 1.392 . S
C903 C907 1.495 . S
C904 C903 1.392 . S
C904 C905 1.385 . S
C904 C906 1.478 . S
C905 H899 0.930 . S
C905 C901 1.400 . S
C905 C904 1.385 . S
C906 C904 1.478 . S
C906 C908 1.381 . S
C906 C912 1.383 . S
C907 C903 1.495 . S
C907 H913 0.959 . S
C907 H914 0.961 . S
C907 H915 0.960 . S
C908 C906 1.381 . S
C908 C909 1.394 . S
C908 H916 0.930 . S
C909 C908 1.394 . S
C909 C910 1.383 . S
C909 H917 0.929 . S
C910 C909 1.383 . S
C910 C911 1.377 . S
C911 H895 0.930 . S
C911 C910 1.377 . S
C911 C912 1.379 . S
C912 H896 0.931 . S
C912 C906 1.383 . S
C912 C911 1.379 . S
H913 C907 0.959 . S
H914 C907 0.961 . S
H915 C907 0.960 . S
H916 C908 0.930 . S
H917 C909 0.929 . S
H918 C926 0.929 . S
H919 C928 0.930 . S
H920 C930 0.930 . S
H921 C933 0.929 . S
H922 C936 0.930 . S
H923 C938 0.960 . S
H924 C938 0.960 . S
H925 C938 0.960 . S
C926 H918 0.929 . S
C926 C927 1.377 . S
C926 C928 1.384 . S
C927 C926 1.377 . S
C927 C933 1.390 . S
C928 H919 0.930 . S
C928 C926 1.384 . S
C928 C929 1.372 . S
C929 C928 1.372 . S
C929 C930 1.400 . S
C929 C934 1.490 . S
C930 H920 0.930 . S
C930 C929 1.400 . S
C930 C933 1.386 . S
H931 C947 0.930 . S
H932 C948 0.931 . S
C933 H921 0.929 . S
C933 C927 1.390 . S
C933 C930 1.386 . S
C934 C929 1.490 . S
C934 C936 1.395 . S
C934 C937 1.403 . S
H935 C941 0.930 . S
C936 H922 0.930 . S
C936 C934 1.395 . S
C936 C939 1.403 . S
C937 C934 1.403 . S
C937 C938 1.524 . S
C937 C941 1.400 . S
C938 H923 0.960 . S
C938 H924 0.960 . S
C938 H925 0.960 . S
C938 C937 1.524 . S
C939 C936 1.403 . S
C939 C940 1.392 . S
C939 C943 1.495 . S
C940 C939 1.392 . S
C940 C941 1.385 . S
C940 C942 1.478 . S
C941 H935 0.930 . S
C941 C937 1.400 . S
C941 C940 1.385 . S
C942 C940 1.478 . S
C942 C944 1.381 . S
C942 C948 1.383 . S
C943 C939 1.495 . S
C943 H949 0.959 . S
C943 H950 0.961 . S
C943 H951 0.960 . S
C944 C942 1.381 . S
C944 C945 1.394 . S
C944 H952 0.930 . S
C945 C944 1.394 . S
C945 C946 1.383 . S
C945 H953 0.929 . S
C946 C945 1.383 . S
C946 C947 1.377 . S
C947 H931 0.930 . S
C947 C946 1.377 . S
C947 C948 1.379 . S
C948 H932 0.931 . S
C948 C942 1.383 . S
C948 C947 1.379 . S
H949 C943 0.959 . S
H950 C943 0.961 . S
H951 C943 0.960 . S
H952 C944 0.930 . S
H953 C945 0.929 . S
H954 C962 0.929 . S
H955 C964 0.930 . S
H956 C966 0.930 . S
H957 C969 0.929 . S
H958 C972 0.930 . S
H959 C974 0.960 1_545 S
H960 C974 0.960 . S
H961 C974 0.960 . S
C962 H954 0.929 . S
C962 C963 1.377 . S
C962 C964 1.384 . S
C963 C962 1.377 . S
C963 C969 1.390 . S
C964 H955 0.930 . S
C964 C962 1.384 . S
C964 C965 1.372 . S
C965 C964 1.372 . S
C965 C966 1.400 . S
C965 C970 1.490 . S
C966 H956 0.930 . S
C966 C965 1.400 . S
C966 C969 1.386 . S
H967 C983 0.930 . S
H968 C984 0.931 . S
C969 H957 0.929 . S
C969 C963 1.390 . S
C969 C966 1.386 . S
C970 C965 1.490 . S
C970 C972 1.395 . S
C970 C973 1.403 . S
H971 C977 0.930 1_545 S
C972 H958 0.930 . S
C972 C970 1.395 . S
C972 C975 1.403 . S
C973 C970 1.403 . S
C973 C974 1.524 . S
C973 C977 1.400 . S
C974 H959 0.960 1_565 S
C974 H960 0.960 . S
C974 H961 0.960 . S
C974 C973 1.524 . S
C975 C972 1.403 . S
C975 C976 1.392 . S
C975 C979 1.495 . S
C976 C975 1.392 . S
C976 C977 1.385 . S
C976 C978 1.478 . S
C977 H971 0.930 1_565 S
C977 C973 1.400 . S
C977 C976 1.385 . S
C978 C976 1.478 . S
C978 C980 1.381 . S
C978 C984 1.383 1_565 S
C979 C975 1.495 . S
C979 H985 0.959 . S
C979 H986 0.961 . S
C979 H987 0.960 . S
C980 C978 1.381 . S
C980 C981 1.394 . S
C980 H988 0.930 . S
C981 C980 1.394 . S
C981 C982 1.383 1_565 S
C981 H989 0.929 . S
C982 C981 1.383 1_545 S
C982 C983 1.377 . S
C983 H967 0.930 . S
C983 C982 1.377 . S
C983 C984 1.379 . S
C984 H968 0.931 . S
C984 C978 1.383 1_545 S
C984 C983 1.379 . S
H985 C979 0.959 . S
H986 C979 0.961 . S
H987 C979 0.960 . S
H988 C980 0.930 . S
H989 C981 0.929 . S
H990 C998 0.929 . S
H991 C1000 0.930 . S
H992 C1002 0.930 . S
H993 C1005 0.929 . S
H994 C1008 0.930 . S
H995 C1010 0.960 . S
H996 C1010 0.960 . S
H997 C1010 0.960 . S
C998 H990 0.929 . S
C998 C999 1.377 . S
C998 C1000 1.384 . S
C999 C998 1.377 . S
C999 C1005 1.390 . S
C1000 H991 0.930 . S
C1000 C998 1.384 . S
C1000 C1001 1.372 . S
C1001 C1000 1.372 . S
C1001 C1002 1.400 . S
C1001 C1006 1.490 . S
C1002 H992 0.930 . S
C1002 C1001 1.400 . S
C1002 C1005 1.386 . S
H1003 C1019 0.930 1_455 S
H1004 C1020 0.931 . S
C1005 H993 0.929 . S
C1005 C999 1.390 . S
C1005 C1002 1.386 . S
C1006 C1001 1.490 . S
C1006 C1008 1.395 . S
C1006 C1009 1.403 . S
H1007 C1013 0.930 . S
C1008 H994 0.930 . S
C1008 C1006 1.395 . S
C1008 C1011 1.403 . S
C1009 C1006 1.403 . S
C1009 C1010 1.524 . S
C1009 C1013 1.400 . S
C1010 H995 0.960 . S
C1010 H996 0.960 . S
C1010 H997 0.960 . S
C1010 C1009 1.524 . S
C1011 C1008 1.403 . S
C1011 C1012 1.392 . S
C1011 C1015 1.495 . S
C1012 C1011 1.392 . S
C1012 C1013 1.385 . S
C1012 C1014 1.478 1_455 S
C1013 H1007 0.930 . S
C1013 C1009 1.400 . S
C1013 C1012 1.385 . S
C1014 C1012 1.478 1_655 S
C1014 C1016 1.381 . S
C1014 C1020 1.383 1_655 S
C1015 C1011 1.495 . S
C1015 H1021 0.959 . S
C1015 H1022 0.961 . S
C1015 H1023 0.960 1_455 S
C1016 C1014 1.381 . S
C1016 C1017 1.394 . S
C1016 H1024 0.930 . S
C1017 C1016 1.394 . S
C1017 C1018 1.383 . S
C1017 H1025 0.929 . S
C1018 C1017 1.383 . S
C1018 C1019 1.377 . S
C1019 H1003 0.930 1_655 S
C1019 C1018 1.377 . S
C1019 C1020 1.379 1_655 S
C1020 H1004 0.931 . S
C1020 C1014 1.383 1_455 S
C1020 C1019 1.379 1_455 S
H1021 C1015 0.959 . S
H1022 C1015 0.961 . S
H1023 C1015 0.960 1_655 S
H1024 C1016 0.930 . S
H1025 C1017 0.929 . S
H1026 C1034 0.929 . S
H1027 C1036 0.930 . S
H1028 C1038 0.930 . S
H1029 C1041 0.929 . S
H1030 C1044 0.930 . S
H1031 C1046 0.960 . S
H1032 C1046 0.960 . S
H1033 C1046 0.960 . S
C1034 H1026 0.929 . S
C1034 C1035 1.377 . S
C1034 C1036 1.384 . S
C1035 C1034 1.377 . S
C1035 C1041 1.390 . S
C1036 H1027 0.930 . S
C1036 C1034 1.384 . S
C1036 C1037 1.372 . S
C1037 C1036 1.372 . S
C1037 C1038 1.400 . S
C1037 C1042 1.490 . S
C1038 H1028 0.930 . S
C1038 C1037 1.400 . S
C1038 C1041 1.386 . S
H1039 C1055 0.930 . S
H1040 C1056 0.931 . S
C1041 H1029 0.929 . S
C1041 C1035 1.390 . S
C1041 C1038 1.386 . S
C1042 C1037 1.490 . S
C1042 C1044 1.395 . S
C1042 C1045 1.403 . S
H1043 C1049 0.930 . S
C1044 H1030 0.930 . S
C1044 C1042 1.395 . S
C1044 C1047 1.403 1_455 S
C1045 C1042 1.403 . S
C1045 C1046 1.524 . S
C1045 C1049 1.400 1_455 S
C1046 H1031 0.960 . S
C1046 H1032 0.960 . S
C1046 H1033 0.960 . S
C1046 C1045 1.524 . S
C1047 C1044 1.403 1_655 S
C1047 C1048 1.392 . S
C1047 C1051 1.495 . S
C1048 C1047 1.392 . S
C1048 C1049 1.385 . S
C1048 C1050 1.478 . S
C1049 H1043 0.930 . S
C1049 C1045 1.400 1_655 S
C1049 C1048 1.385 . S
C1050 C1048 1.478 . S
C1050 C1052 1.381 . S
C1050 C1056 1.383 . S
C1051 C1047 1.495 . S
C1051 H1057 0.959 . S
C1051 H1058 0.961 . S
C1051 H1059 0.960 . S
C1052 C1050 1.381 . S
C1052 C1053 1.394 . S
C1052 H1060 0.930 . S
C1053 C1052 1.394 . S
C1053 C1054 1.383 . S
C1053 H1061 0.929 . S
C1054 C1053 1.383 . S
C1054 C1055 1.377 . S
C1055 H1039 0.930 . S
C1055 C1054 1.377 . S
C1055 C1056 1.379 . S
C1056 H1040 0.931 . S
C1056 C1050 1.383 . S
C1056 C1055 1.379 . S
H1057 C1051 0.959 . S
H1058 C1051 0.961 . S
H1059 C1051 0.960 . S
H1060 C1052 0.930 . S
H1061 C1053 0.929 . S
H1062 C1070 0.929 . S
H1063 C1072 0.930 . S
H1064 C1074 0.930 . S
H1065 C1077 0.929 . S
H1066 C1080 0.930 . S
H1067 C1082 0.960 . S
H1068 C1082 0.960 . S
H1069 C1082 0.960 . S
C1070 H1062 0.929 . S
C1070 C1071 1.377 . S
C1070 C1072 1.384 . S
C1071 C1070 1.377 . S
C1071 C1077 1.390 . S
C1072 H1063 0.930 . S
C1072 C1070 1.384 . S
C1072 C1073 1.372 . S
C1073 C1072 1.372 . S
C1073 C1074 1.400 . S
C1073 C1078 1.490 . S
C1074 H1064 0.930 . S
C1074 C1073 1.400 . S
C1074 C1077 1.386 . S
H1075 C1091 0.930 . S
H1076 C1092 0.931 . S
C1077 H1065 0.929 . S
C1077 C1071 1.390 . S
C1077 C1074 1.386 . S
C1078 C1073 1.490 . S
C1078 C1080 1.395 . S
C1078 C1081 1.403 . S
H1079 C1085 0.930 . S
C1080 H1066 0.930 . S
C1080 C1078 1.395 . S
C1080 C1083 1.403 . S
C1081 C1078 1.403 . S
C1081 C1082 1.524 . S
C1081 C1085 1.400 . S
C1082 H1067 0.960 . S
C1082 H1068 0.960 . S
C1082 H1069 0.960 . S
C1082 C1081 1.524 . S
C1083 C1080 1.403 . S
C1083 C1084 1.392 . S
C1083 C1087 1.495 . S
C1084 C1083 1.392 . S
C1084 C1085 1.385 . S
C1084 C1086 1.478 . S
C1085 H1079 0.930 . S
C1085 C1081 1.400 . S
C1085 C1084 1.385 . S
C1086 C1084 1.478 . S
C1086 C1088 1.381 . S
C1086 C1092 1.383 . S
C1087 C1083 1.495 . S
C1087 H1093 0.959 . S
C1087 H1094 0.961 . S
C1087 H1095 0.960 . S
C1088 C1086 1.381 . S
C1088 C1089 1.394 . S
C1088 H1096 0.930 . S
C1089 C1088 1.394 . S
C1089 C1090 1.383 . S
C1089 H1097 0.929 . S
C1090 C1089 1.383 . S
C1090 C1091 1.377 . S
C1091 H1075 0.930 . S
C1091 C1090 1.377 . S
C1091 C1092 1.379 . S
C1092 H1076 0.931 . S
C1092 C1086 1.383 . S
C1092 C1091 1.379 . S
H1093 C1087 0.959 . S
H1094 C1087 0.961 . S
H1095 C1087 0.960 . S
H1096 C1088 0.930 . S
H1097 C1089 0.929 . S
H1098 C1106 0.929 . S
H1099 C1108 0.930 . S
H1100 C1110 0.930 . S
H1101 C1113 0.929 . S
H1102 C1116 0.930 . S
H1103 C1118 0.960 . S
H1104 C1118 0.964 1_565 S
H1105 C1118 0.960 1_565 S
C1106 H1098 0.929 . S
C1106 C1107 1.377 . S
C1106 C1108 1.384 . S
C1107 C1106 1.377 . S
C1107 C1113 1.390 . S
C1108 H1099 0.930 . S
C1108 C1106 1.384 . S
C1108 C1109 1.372 . S
C1109 C1108 1.372 . S
C1109 C1110 1.400 . S
C1109 C1114 1.490 . S
C1110 H1100 0.930 . S
C1110 C1109 1.400 . S
C1110 C1113 1.386 . S
H1111 C1127 0.930 . S
H1112 C1128 0.931 . S
C1113 H1101 0.929 . S
C1113 C1107 1.390 . S
C1113 C1110 1.386 . S
C1114 C1109 1.490 . S
C1114 C1116 1.395 . S
C1114 C1117 1.403 . S
H1115 C1121 0.930 . S
C1116 H1102 0.930 . S
C1116 C1114 1.395 . S
C1116 C1119 1.403 . S
C1117 C1114 1.403 . S
C1117 C1118 1.524 1_565 S
C1117 C1121 1.400 1_565 S
C1118 H1103 0.960 . S
C1118 H1104 0.964 1_545 S
C1118 H1105 0.960 1_545 S
C1118 C1117 1.524 1_545 S
C1119 C1116 1.403 . S
C1119 C1120 1.392 1_565 S
C1119 C1123 1.495 . S
C1120 C1119 1.392 1_545 S
C1120 C1121 1.385 . S
C1120 C1122 1.478 . S
C1121 H1115 0.930 . S
C1121 C1117 1.400 1_545 S
C1121 C1120 1.385 . S
C1122 C1120 1.478 . S
C1122 C1124 1.381 . S
C1122 C1128 1.383 . S
C1123 C1119 1.495 . S
C1123 H1129 0.959 . S
C1123 H1130 0.961 . S
C1123 H1131 0.960 1_565 S
C1124 C1122 1.381 . S
C1124 C1125 1.394 . S
C1124 H1132 0.930 . S
C1125 C1124 1.394 . S
C1125 C1126 1.383 . S
C1125 H1133 0.929 . S
C1126 C1125 1.383 . S
C1126 C1127 1.377 . S
C1127 H1111 0.930 . S
C1127 C1126 1.377 . S
C1127 C1128 1.379 . S
C1128 H1112 0.931 . S
C1128 C1122 1.383 . S
C1128 C1127 1.379 . S
H1129 C1123 0.959 . S
H1130 C1123 0.961 . S
H1131 C1123 0.960 1_545 S
H1132 C1124 0.930 . S
H1133 C1125 0.929 . S
H1134 C1142 0.929 . S
H1135 C1144 0.930 . S
H1136 C1146 0.930 . S
H1137 C1149 0.929 . S
H1138 C1152 0.930 . S
H1139 C1154 0.960 . S
H1140 C1154 0.960 . S
H1141 C1154 0.960 . S
C1142 H1134 0.929 . S
C1142 C1143 1.377 . S
C1142 C1144 1.384 . S
C1143 C1142 1.377 . S
C1143 C1149 1.390 . S
C1144 H1135 0.930 . S
C1144 C1142 1.384 . S
C1144 C1145 1.372 . S
C1145 C1144 1.372 . S
C1145 C1146 1.400 . S
C1145 C1150 1.490 . S
C1146 H1136 0.930 . S
C1146 C1145 1.400 . S
C1146 C1149 1.386 . S
H1147 C1163 0.930 . S
H1148 C1164 0.931 . S
C1149 H1137 0.929 . S
C1149 C1143 1.390 . S
C1149 C1146 1.386 . S
C1150 C1145 1.490 . S
C1150 C1152 1.395 . S
C1150 C1153 1.403 . S
H1151 C1157 0.930 . S
C1152 H1138 0.930 . S
C1152 C1150 1.395 . S
C1152 C1155 1.403 1_545 S
C1153 C1150 1.403 . S
C1153 C1154 1.524 . S
C1153 C1157 1.400 1_545 S
C1154 H1139 0.960 . S
C1154 H1140 0.960 . S
C1154 H1141 0.960 . S
C1154 C1153 1.524 . S
C1155 C1152 1.403 1_565 S
C1155 C1156 1.392 . S
C1155 C1159 1.495 . S
C1156 C1155 1.392 . S
C1156 C1157 1.385 . S
C1156 C1158 1.478 . S
C1157 H1151 0.930 . S
C1157 C1153 1.400 1_565 S
C1157 C1156 1.385 . S
C1158 C1156 1.478 . S
C1158 C1160 1.381 . S
C1158 C1164 1.383 . S
C1159 C1155 1.495 . S
C1159 H1165 0.959 . S
C1159 H1166 0.961 . S
C1159 H1167 0.960 . S
C1160 C1158 1.381 . S
C1160 C1161 1.394 . S
C1160 H1168 0.930 . S
C1161 C1160 1.394 . S
C1161 C1162 1.383 . S
C1161 H1169 0.929 . S
C1162 C1161 1.383 . S
C1162 C1163 1.377 . S
C1163 H1147 0.930 . S
C1163 C1162 1.377 . S
C1163 C1164 1.379 . S
C1164 H1148 0.931 . S
C1164 C1158 1.383 . S
C1164 C1163 1.379 . S
H1165 C1159 0.959 . S
H1166 C1159 0.961 . S
H1167 C1159 0.960 . S
H1168 C1160 0.930 . S
H1169 C1161 0.929 . S
H1170 C1178 0.929 . S
H1171 C1180 0.930 . S
H1172 C1182 0.930 . S
H1173 C1185 0.929 . S
H1174 C1188 0.930 . S
H1175 C1190 0.960 . S
H1176 C1190 0.960 . S
H1177 C1190 0.960 . S
C1178 H1170 0.929 . S
C1178 C1179 1.377 . S
C1178 C1180 1.384 . S
C1179 C1178 1.377 . S
C1179 C1185 1.390 . S
C1180 H1171 0.930 . S
C1180 C1178 1.384 . S
C1180 C1181 1.372 . S
C1181 C1180 1.372 . S
C1181 C1182 1.400 . S
C1181 C1186 1.490 . S
C1182 H1172 0.930 . S
C1182 C1181 1.400 . S
C1182 C1185 1.386 . S
H1183 C1199 0.930 . S
H1184 C1200 0.931 . S
C1185 H1173 0.929 . S
C1185 C1179 1.390 . S
C1185 C1182 1.386 . S
C1186 C1181 1.490 . S
C1186 C1188 1.395 . S
C1186 C1189 1.403 . S
H1187 C1193 0.930 . S
C1188 H1174 0.930 . S
C1188 C1186 1.395 . S
C1188 C1191 1.403 1_455 S
C1189 C1186 1.403 . S
C1189 C1190 1.524 . S
C1189 C1193 1.400 1_455 S
C1190 H1175 0.960 . S
C1190 H1176 0.960 . S
C1190 H1177 0.960 . S
C1190 C1189 1.524 . S
C1191 C1188 1.403 1_655 S
C1191 C1192 1.392 . S
C1191 C1195 1.495 . S
C1192 C1191 1.392 . S
C1192 C1193 1.385 . S
C1192 C1194 1.478 . S
C1193 H1187 0.930 . S
C1193 C1189 1.400 1_655 S
C1193 C1192 1.385 . S
C1194 C1192 1.478 . S
C1194 C1196 1.381 . S
C1194 C1200 1.383 . S
C1195 C1191 1.495 . S
C1195 H1201 0.959 . S
C1195 H1202 0.961 . S
C1195 H1203 0.960 . S
C1196 C1194 1.381 . S
C1196 C1197 1.394 . S
C1196 H1204 0.930 . S
C1197 C1196 1.394 . S
C1197 C1198 1.383 . S
C1197 H1205 0.929 . S
C1198 C1197 1.383 . S
C1198 C1199 1.377 . S
C1199 H1183 0.930 . S
C1199 C1198 1.377 . S
C1199 C1200 1.379 . S
C1200 H1184 0.931 . S
C1200 C1194 1.383 . S
C1200 C1199 1.379 . S
H1201 C1195 0.959 . S
H1202 C1195 0.961 . S
H1203 C1195 0.960 . S
H1204 C1196 0.930 . S
H1205 C1197 0.929 . S
H1206 C1214 0.929 . S
H1207 C1216 0.930 . S
H1208 C1218 0.930 . S
H1209 C1221 0.929 . S
H1210 C1224 0.930 . S
H1211 C1226 0.960 . S
H1212 C1226 0.960 . S
H1213 C1226 0.960 . S
C1214 H1206 0.929 . S
C1214 C1215 1.377 . S
C1214 C1216 1.384 . S
C1215 C1214 1.377 . S
C1215 C1221 1.390 . S
C1216 H1207 0.930 . S
C1216 C1214 1.384 . S
C1216 C1217 1.372 . S
C1217 C1216 1.372 . S
C1217 C1218 1.400 . S
C1217 C1222 1.490 . S
C1218 H1208 0.930 . S
C1218 C1217 1.400 . S
C1218 C1221 1.386 . S
H1219 C1235 0.930 . S
H1220 C1236 0.931 . S
C1221 H1209 0.929 . S
C1221 C1215 1.390 . S
C1221 C1218 1.386 . S
C1222 C1217 1.490 . S
C1222 C1224 1.395 . S
C1222 C1225 1.403 . S
H1223 C1229 0.930 . S
C1224 H1210 0.930 . S
C1224 C1222 1.395 . S
C1224 C1227 1.403 . S
C1225 C1222 1.403 . S
C1225 C1226 1.524 . S
C1225 C1229 1.400 . S
C1226 H1211 0.960 . S
C1226 H1212 0.960 . S
C1226 H1213 0.960 . S
C1226 C1225 1.524 . S
C1227 C1224 1.403 . S
C1227 C1228 1.392 . S
C1227 C1231 1.495 . S
C1228 C1227 1.392 . S
C1228 C1229 1.385 . S
C1228 C1230 1.478 . S
C1229 H1223 0.930 . S
C1229 C1225 1.400 . S
C1229 C1228 1.385 . S
C1230 C1228 1.478 . S
C1230 C1232 1.381 . S
C1230 C1236 1.383 . S
C1231 C1227 1.495 . S
C1231 H1237 0.959 . S
C1231 H1238 0.961 . S
C1231 H1239 0.960 . S
C1232 C1230 1.381 . S
C1232 C1233 1.394 . S
C1232 H1240 0.930 . S
C1233 C1232 1.394 . S
C1233 C1234 1.383 . S
C1233 H1241 0.929 . S
C1234 C1233 1.383 . S
C1234 C1235 1.377 . S
C1235 H1219 0.930 . S
C1235 C1234 1.377 . S
C1235 C1236 1.379 . S
C1236 H1220 0.931 . S
C1236 C1230 1.383 . S
C1236 C1235 1.379 . S
H1237 C1231 0.959 . S
H1238 C1231 0.961 . S
H1239 C1231 0.960 . S
H1240 C1232 0.930 . S
H1241 C1233 0.929 . S
H1242 C1250 0.929 . S
H1243 C1252 0.930 . S
H1244 C1254 0.930 . S
H1245 C1257 0.929 . S
H1246 C1260 0.930 . S
H1247 C1262 0.960 . S
H1248 C1262 0.960 . S
H1249 C1262 0.960 . S
C1250 H1242 0.929 . S
C1250 C1251 1.377 . S
C1250 C1252 1.384 . S
C1251 C1250 1.377 . S
C1251 C1257 1.390 . S
C1252 H1243 0.930 . S
C1252 C1250 1.384 . S
C1252 C1253 1.372 . S
C1253 C1252 1.372 . S
C1253 C1254 1.400 . S
C1253 C1258 1.490 . S
C1254 H1244 0.930 . S
C1254 C1253 1.400 . S
C1254 C1257 1.386 . S
H1255 C1271 0.930 . S
H1256 C1272 0.931 . S
C1257 H1245 0.929 . S
C1257 C1251 1.390 . S
C1257 C1254 1.386 . S
C1258 C1253 1.490 . S
C1258 C1260 1.395 . S
C1258 C1261 1.403 . S
H1259 C1265 0.930 . S
C1260 H1246 0.930 . S
C1260 C1258 1.395 . S
C1260 C1263 1.403 . S
C1261 C1258 1.403 . S
C1261 C1262 1.524 . S
C1261 C1265 1.400 . S
C1262 H1247 0.960 . S
C1262 H1248 0.960 . S
C1262 H1249 0.960 . S
C1262 C1261 1.524 . S
C1263 C1260 1.403 . S
C1263 C1264 1.392 . S
C1263 C1267 1.495 . S
C1264 C1263 1.392 . S
C1264 C1265 1.385 . S
C1264 C1266 1.478 . S
C1265 H1259 0.930 . S
C1265 C1261 1.400 . S
C1265 C1264 1.385 . S
C1266 C1264 1.478 . S
C1266 C1268 1.381 . S
C1266 C1272 1.383 . S
C1267 C1263 1.495 . S
C1267 H1273 0.959 . S
C1267 H1274 0.961 . S
C1267 H1275 0.960 . S
C1268 C1266 1.381 . S
C1268 C1269 1.394 . S
C1268 H1276 0.930 . S
C1269 C1268 1.394 . S
C1269 C1270 1.383 . S
C1269 H1277 0.929 . S
C1270 C1269 1.383 . S
C1270 C1271 1.377 . S
C1271 H1255 0.930 . S
C1271 C1270 1.377 . S
C1271 C1272 1.379 . S
C1272 H1256 0.931 . S
C1272 C1266 1.383 . S
C1272 C1271 1.379 . S
H1273 C1267 0.959 . S
H1274 C1267 0.961 . S
H1275 C1267 0.960 . S
H1276 C1268 0.930 . S
H1277 C1269 0.929 . S
H1278 C1286 0.929 . S
H1279 C1288 0.930 . S
H1280 C1290 0.930 . S
H1281 C1293 0.929 . S
H1282 C1296 0.930 . S
H1283 C1298 0.960 . S
H1284 C1298 0.960 . S
H1285 C1298 0.960 . S
C1286 H1278 0.929 . S
C1286 C1287 1.377 . S
C1286 C1288 1.384 . S
C1287 C1286 1.377 . S
C1287 C1293 1.390 . S
C1288 H1279 0.930 . S
C1288 C1286 1.384 . S
C1288 C1289 1.372 . S
C1289 C1288 1.372 . S
C1289 C1290 1.400 . S
C1289 C1294 1.490 . S
C1290 H1280 0.930 . S
C1290 C1289 1.400 . S
C1290 C1293 1.386 . S
H1291 C1307 0.930 . S
H1292 C1308 0.931 . S
C1293 H1281 0.929 . S
C1293 C1287 1.390 . S
C1293 C1290 1.386 . S
C1294 C1289 1.490 . S
C1294 C1296 1.395 . S
C1294 C1297 1.403 . S
H1295 C1301 0.930 . S
C1296 H1282 0.930 . S
C1296 C1294 1.395 . S
C1296 C1299 1.403 . S
C1297 C1294 1.403 . S
C1297 C1298 1.524 . S
C1297 C1301 1.400 . S
C1298 H1283 0.960 . S
C1298 H1284 0.960 . S
C1298 H1285 0.960 . S
C1298 C1297 1.524 . S
C1299 C1296 1.403 . S
C1299 C1300 1.392 . S
C1299 C1303 1.495 . S
C1300 C1299 1.392 . S
C1300 C1301 1.385 . S
C1300 C1302 1.478 . S
C1301 H1295 0.930 . S
C1301 C1297 1.400 . S
C1301 C1300 1.385 . S
C1302 C1300 1.478 . S
C1302 C1304 1.381 . S
C1302 C1308 1.383 . S
C1303 C1299 1.495 . S
C1303 H1309 0.959 . S
C1303 H1310 0.961 . S
C1303 H1311 0.960 . S
C1304 C1302 1.381 . S
C1304 C1305 1.394 . S
C1304 H1312 0.930 . S
C1305 C1304 1.394 . S
C1305 C1306 1.383 . S
C1305 H1313 0.929 . S
C1306 C1305 1.383 . S
C1306 C1307 1.377 . S
C1307 H1291 0.930 . S
C1307 C1306 1.377 . S
C1307 C1308 1.379 . S
C1308 H1292 0.931 . S
C1308 C1302 1.383 . S
C1308 C1307 1.379 . S
H1309 C1303 0.959 . S
H1310 C1303 0.961 . S
H1311 C1303 0.960 . S
H1312 C1304 0.930 . S
H1313 C1305 0.929 . S
H1314 C1322 0.929 . S
H1315 C1324 0.930 . S
H1316 C1326 0.930 . S
H1317 C1329 0.929 . S
H1318 C1332 0.930 . S
H1319 C1334 0.960 . S
H1320 C1334 0.960 . S
H1321 C1334 0.960 . S
C1322 H1314 0.929 . S
C1322 C1323 1.377 . S
C1322 C1324 1.384 . S
C1323 C1322 1.377 . S
C1323 C1329 1.390 . S
C1324 H1315 0.930 . S
C1324 C1322 1.384 . S
C1324 C1325 1.372 . S
C1325 C1324 1.372 . S
C1325 C1326 1.400 . S
C1325 C1330 1.490 . S
C1326 H1316 0.930 . S
C1326 C1325 1.400 . S
C1326 C1329 1.386 . S
H1327 C1343 0.930 . S
H1328 C1344 0.931 . S
C1329 H1317 0.929 . S
C1329 C1323 1.390 . S
C1329 C1326 1.386 . S
C1330 C1325 1.490 . S
C1330 C1332 1.395 . S
C1330 C1333 1.403 . S
H1331 C1337 0.930 . S
C1332 H1318 0.930 . S
C1332 C1330 1.395 . S
C1332 C1335 1.403 . S
C1333 C1330 1.403 . S
C1333 C1334 1.524 . S
C1333 C1337 1.400 . S
C1334 H1319 0.960 . S
C1334 H1320 0.960 . S
C1334 H1321 0.960 . S
C1334 C1333 1.524 . S
C1335 C1332 1.403 . S
C1335 C1336 1.392 . S
C1335 C1339 1.495 . S
C1336 C1335 1.392 . S
C1336 C1337 1.385 . S
C1336 C1338 1.478 . S
C1337 H1331 0.930 . S
C1337 C1333 1.400 . S
C1337 C1336 1.385 . S
C1338 C1336 1.478 . S
C1338 C1340 1.381 . S
C1338 C1344 1.383 . S
C1339 C1335 1.495 . S
C1339 H1345 0.959 . S
C1339 H1346 0.961 . S
C1339 H1347 0.960 . S
C1340 C1338 1.381 . S
C1340 C1341 1.394 . S
C1340 H1348 0.930 . S
C1341 C1340 1.394 . S
C1341 C1342 1.383 . S
C1341 H1349 0.929 . S
C1342 C1341 1.383 . S
C1342 C1343 1.377 . S
C1343 H1327 0.930 . S
C1343 C1342 1.377 . S
C1343 C1344 1.379 . S
C1344 H1328 0.931 . S
C1344 C1338 1.383 . S
C1344 C1343 1.379 . S
H1345 C1339 0.959 . S
H1346 C1339 0.961 . S
H1347 C1339 0.960 . S
H1348 C1340 0.930 . S
H1349 C1341 0.929 . S
H1350 C1358 0.929 . S
H1351 C1360 0.930 . S
H1352 C1362 0.930 . S
H1353 C1365 0.929 . S
H1354 C1368 0.930 . S
H1355 C1370 0.960 . S
H1356 C1370 0.960 . S
H1357 C1370 0.960 . S
C1358 H1350 0.929 . S
C1358 C1359 1.377 . S
C1358 C1360 1.384 . S
C1359 C1358 1.377 . S
C1359 C1365 1.390 . S
C1360 H1351 0.930 . S
C1360 C1358 1.384 . S
C1360 C1361 1.372 . S
C1361 C1360 1.372 . S
C1361 C1362 1.400 . S
C1361 C1366 1.490 . S
C1362 H1352 0.930 . S
C1362 C1361 1.400 . S
C1362 C1365 1.386 . S
H1363 C1379 0.930 . S
H1364 C1380 0.931 . S
C1365 H1353 0.929 . S
C1365 C1359 1.390 . S
C1365 C1362 1.386 . S
C1366 C1361 1.490 . S
C1366 C1368 1.395 . S
C1366 C1369 1.403 . S
H1367 C1373 0.930 . S
C1368 H1354 0.930 . S
C1368 C1366 1.395 . S
C1368 C1371 1.403 . S
C1369 C1366 1.403 . S
C1369 C1370 1.524 . S
C1369 C1373 1.400 . S
C1370 H1355 0.960 . S
C1370 H1356 0.960 . S
C1370 H1357 0.960 . S
C1370 C1369 1.524 . S
C1371 C1368 1.403 . S
C1371 C1372 1.392 . S
C1371 C1375 1.495 . S
C1372 C1371 1.392 . S
C1372 C1373 1.385 . S
C1372 C1374 1.478 . S
C1373 H1367 0.930 . S
C1373 C1369 1.400 . S
C1373 C1372 1.385 . S
C1374 C1372 1.478 . S
C1374 C1376 1.381 . S
C1374 C1380 1.383 . S
C1375 C1371 1.495 . S
C1375 H1381 0.959 . S
C1375 H1382 0.961 . S
C1375 H1383 0.960 . S
C1376 C1374 1.381 . S
C1376 C1377 1.394 . S
C1376 H1384 0.930 . S
C1377 C1376 1.394 . S
C1377 C1378 1.383 . S
C1377 H1385 0.929 . S
C1378 C1377 1.383 . S
C1378 C1379 1.377 . S
C1379 H1363 0.930 . S
C1379 C1378 1.377 . S
C1379 C1380 1.379 . S
C1380 H1364 0.931 . S
C1380 C1374 1.383 . S
C1380 C1379 1.379 . S
H1381 C1375 0.959 . S
H1382 C1375 0.961 . S
H1383 C1375 0.960 . S
H1384 C1376 0.930 . S
H1385 C1377 0.929 . S
H1386 C1394 0.929 . S
H1387 C1396 0.930 . S
H1388 C1398 0.930 . S
H1389 C1401 0.929 . S
H1390 C1404 0.930 . S
H1391 C1406 0.960 . S
H1392 C1406 0.960 . S
H1393 C1406 0.960 . S
C1394 H1386 0.929 . S
C1394 C1395 1.377 . S
C1394 C1396 1.384 . S
C1395 C1394 1.377 . S
C1395 C1401 1.390 . S
C1396 H1387 0.930 . S
C1396 C1394 1.384 . S
C1396 C1397 1.372 . S
C1397 C1396 1.372 . S
C1397 C1398 1.400 . S
C1397 C1402 1.490 . S
C1398 H1388 0.930 . S
C1398 C1397 1.400 . S
C1398 C1401 1.386 . S
H1399 C1415 0.930 . S
H1400 C1416 0.931 . S
C1401 H1389 0.929 . S
C1401 C1395 1.390 . S
C1401 C1398 1.386 . S
C1402 C1397 1.490 . S
C1402 C1404 1.395 . S
C1402 C1405 1.403 . S
H1403 C1409 0.930 . S
C1404 H1390 0.930 . S
C1404 C1402 1.395 . S
C1404 C1407 1.403 . S
C1405 C1402 1.403 . S
C1405 C1406 1.524 . S
C1405 C1409 1.400 . S
C1406 H1391 0.960 . S
C1406 H1392 0.960 . S
C1406 H1393 0.960 . S
C1406 C1405 1.524 . S
C1407 C1404 1.403 . S
C1407 C1408 1.392 . S
C1407 C1411 1.495 . S
C1408 C1407 1.392 . S
C1408 C1409 1.385 . S
C1408 C1410 1.478 . S
C1409 H1403 0.930 . S
C1409 C1405 1.400 . S
C1409 C1408 1.385 . S
C1410 C1408 1.478 . S
C1410 C1412 1.381 . S
C1410 C1416 1.383 . S
C1411 C1407 1.495 . S
C1411 H1417 0.959 . S
C1411 H1418 0.961 . S
C1411 H1419 0.960 . S
C1412 C1410 1.381 . S
C1412 C1413 1.394 . S
C1412 H1420 0.930 . S
C1413 C1412 1.394 . S
C1413 C1414 1.383 . S
C1413 H1421 0.929 . S
C1414 C1413 1.383 . S
C1414 C1415 1.377 . S
C1415 H1399 0.930 . S
C1415 C1414 1.377 . S
C1415 C1416 1.379 . S
C1416 H1400 0.931 . S
C1416 C1410 1.383 . S
C1416 C1415 1.379 . S
H1417 C1411 0.959 . S
H1418 C1411 0.961 . S
H1419 C1411 0.960 . S
H1420 C1412 0.930 . S
H1421 C1413 0.929 . S
H1422 C1430 0.929 . S
H1423 C1432 0.930 . S
H1424 C1434 0.930 . S
H1425 C1437 0.929 . S
H1426 C1440 0.930 . S
H1427 C1442 0.960 . S
H1428 C1442 0.960 . S
H1429 C1442 0.960 . S
C1430 H1422 0.929 . S
C1430 C1431 1.377 . S
C1430 C1432 1.384 . S
C1431 C1430 1.377 . S
C1431 C1437 1.390 . S
C1432 H1423 0.930 . S
C1432 C1430 1.384 . S
C1432 C1433 1.372 . S
C1433 C1432 1.372 . S
C1433 C1434 1.400 . S
C1433 C1438 1.490 . S
C1434 H1424 0.930 . S
C1434 C1433 1.400 . S
C1434 C1437 1.386 . S
H1435 C1451 0.930 . S
H1436 C1452 0.931 . S
C1437 H1425 0.929 . S
C1437 C1431 1.390 . S
C1437 C1434 1.386 . S
C1438 C1433 1.490 . S
C1438 C1440 1.395 . S
C1438 C1441 1.403 . S
H1439 C1445 0.930 . S
C1440 H1426 0.930 . S
C1440 C1438 1.395 . S
C1440 C1443 1.403 . S
C1441 C1438 1.403 . S
C1441 C1442 1.524 . S
C1441 C1445 1.400 . S
C1442 H1427 0.960 . S
C1442 H1428 0.960 . S
C1442 H1429 0.960 . S
C1442 C1441 1.524 . S
C1443 C1440 1.403 . S
C1443 C1444 1.392 . S
C1443 C1447 1.495 . S
C1444 C1443 1.392 . S
C1444 C1445 1.385 . S
C1444 C1446 1.478 . S
C1445 H1439 0.930 . S
C1445 C1441 1.400 . S
C1445 C1444 1.385 . S
C1446 C1444 1.478 . S
C1446 C1448 1.381 . S
C1446 C1452 1.383 . S
C1447 C1443 1.495 . S
C1447 H1453 0.959 . S
C1447 H1454 0.961 . S
C1447 H1455 0.960 . S
C1448 C1446 1.381 . S
C1448 C1449 1.394 . S
C1448 H1456 0.930 . S
C1449 C1448 1.394 . S
C1449 C1450 1.383 . S
C1449 H1457 0.929 . S
C1450 C1449 1.383 . S
C1450 C1451 1.377 . S
C1451 H1435 0.930 . S
C1451 C1450 1.377 . S
C1451 C1452 1.379 . S
C1452 H1436 0.931 . S
C1452 C1446 1.383 . S
C1452 C1451 1.379 . S
H1453 C1447 0.959 . S
H1454 C1447 0.961 . S
H1455 C1447 0.960 . S
H1456 C1448 0.930 . S
H1457 C1449 0.929 . S
H1458 C1466 0.929 . S
H1459 C1468 0.930 . S
H1460 C1470 0.930 . S
H1461 C1473 0.913 1_455 S
H1462 C1476 0.930 . S
H1463 C1478 0.960 . S
H1464 C1478 0.960 . S
H1465 C1478 0.960 . S
C1466 H1458 0.929 . S
C1466 C1467 1.377 . S
C1466 C1468 1.384 . S
C1467 C1466 1.377 . S
C1467 C1473 1.415 . S
C1468 H1459 0.930 . S
C1468 C1466 1.384 . S
C1468 C1469 1.372 . S
C1469 C1468 1.372 . S
C1469 C1470 1.400 1_655 S
C1469 C1474 1.490 . S
C1470 H1460 0.930 . S
C1470 C1469 1.400 1_455 S
C1470 C1473 1.379 1_455 S
H1471 C1487 0.930 . S
H1472 C1488 0.931 . S
C1473 H1461 0.913 1_655 S
C1473 C1467 1.415 . S
C1473 C1470 1.379 1_655 S
C1474 C1469 1.490 . S
C1474 C1476 1.395 . S
C1474 C1477 1.403 1_655 S
H1475 C1481 0.930 . S
C1476 H1462 0.930 . S
C1476 C1474 1.395 . S
C1476 C1479 1.403 1_554 S
C1477 C1474 1.403 1_455 S
C1477 C1478 1.524 . S
C1477 C1481 1.400 1_554 S
C1478 H1463 0.960 . S
C1478 H1464 0.960 . S
C1478 H1465 0.960 . S
C1478 C1477 1.524 . S
C1479 C1476 1.403 1_556 S
C1479 C1480 1.396 1_655 S
C1479 C1483 1.495 . S
C1480 C1479 1.396 1_455 S
C1480 C1481 1.382 . S
C1480 C1482 1.477 . S
C1481 H1475 0.930 . S
C1481 C1477 1.400 1_556 S
C1481 C1480 1.382 . S
C1482 C1480 1.477 . S
C1482 C1484 1.381 1_455 S
C1482 C1488 1.383 . S
C1483 C1479 1.495 . S
C1483 H1489 0.959 . S
C1483 H1490 0.961 . S
C1483 H1491 0.960 . S
C1484 C1482 1.381 1_655 S
C1484 C1485 1.394 . S
C1484 H1492 0.930 . S
C1485 C1484 1.394 . S
C1485 C1486 1.383 1_655 S
C1485 H1493 0.929 . S
C1486 C1485 1.383 1_455 S
C1486 C1487 1.377 . S
C1487 H1471 0.930 . S
C1487 C1486 1.377 . S
C1487 C1488 1.379 . S
C1488 H1472 0.931 . S
C1488 C1482 1.383 . S
C1488 C1487 1.379 . S
H1489 C1483 0.959 . S
H1490 C1483 0.961 . S
H1491 C1483 0.960 . S
H1492 C1484 0.930 . S
H1493 C1485 0.929 . S
H1494 C1502 0.929 . S
H1495 C1504 0.930 . S
H1496 C1506 0.930 . S
H1497 C1509 0.929 . S
H1498 C1512 0.930 . S
H1499 C1514 0.957 1_556 S
H1500 C1514 0.960 . S
H1501 C1514 0.960 . S
C1502 H1494 0.929 . S
C1502 C1503 1.377 . S
C1502 C1504 1.384 . S
C1503 C1502 1.377 . S
C1503 C1509 1.390 . S
C1504 H1495 0.930 . S
C1504 C1502 1.384 . S
C1504 C1505 1.372 . S
C1505 C1504 1.372 . S
C1505 C1506 1.400 . S
C1505 C1510 1.490 . S
C1506 H1496 0.930 . S
C1506 C1505 1.400 . S
C1506 C1509 1.386 . S
H1507 C1523 0.930 . S
H1508 C1524 0.931 . S
C1509 H1497 0.929 . S
C1509 C1503 1.390 . S
C1509 C1506 1.386 . S
C1510 C1505 1.490 . S
C1510 C1512 1.395 . S
C1510 C1513 1.403 . S
H1511 C1517 0.930 . S
C1512 H1498 0.930 . S
C1512 C1510 1.395 . S
C1512 C1515 1.403 1_554 S
C1513 C1510 1.403 . S
C1513 C1514 1.524 . S
C1513 C1517 1.400 1_554 S
C1514 H1499 0.957 1_554 S
C1514 H1500 0.960 . S
C1514 H1501 0.960 . S
C1514 C1513 1.524 . S
C1515 C1512 1.403 1_556 S
C1515 C1516 1.392 . S
C1515 C1519 1.495 . S
C1516 C1515 1.392 . S
C1516 C1517 1.385 . S
C1516 C1518 1.478 . S
C1517 H1511 0.930 . S
C1517 C1513 1.400 1_556 S
C1517 C1516 1.385 . S
C1518 C1516 1.478 . S
C1518 C1520 1.381 . S
C1518 C1524 1.383 . S
C1519 C1515 1.495 . S
C1519 H1525 0.968 . S
C1519 H1526 0.961 . S
C1519 H1527 0.960 . S
C1520 C1518 1.381 . S
C1520 C1521 1.394 . S
C1520 H1528 0.930 . S
C1521 C1520 1.394 . S
C1521 C1522 1.383 . S
C1521 H1529 0.929 . S
C1522 C1521 1.383 . S
C1522 C1523 1.377 . S
C1523 H1507 0.930 . S
C1523 C1522 1.377 . S
C1523 C1524 1.379 . S
C1524 H1508 0.931 . S
C1524 C1518 1.383 . S
C1524 C1523 1.379 . S
H1525 C1519 0.968 . S
H1526 C1519 0.961 . S
H1527 C1519 0.960 . S
H1528 C1520 0.930 . S
H1529 C1521 0.929 . S
H1530 C1538 0.929 . S
H1531 C1540 0.930 . S
H1532 C1542 0.935 . S
H1533 C1545 0.929 1_565 S
H1534 C1548 0.930 . S
H1535 C1550 0.960 . S
H1536 C1550 0.960 . S
H1537 C1550 0.960 . S
C1538 H1530 0.929 . S
C1538 C1539 1.377 . S
C1538 C1540 1.384 . S
C1539 C1538 1.377 . S
C1539 C1545 1.390 . S
C1540 H1531 0.930 . S
C1540 C1538 1.384 . S
C1540 C1541 1.372 . S
C1541 C1540 1.372 . S
C1541 C1542 1.396 1_545 S
C1541 C1546 1.490 . S
C1542 H1532 0.935 . S
C1542 C1541 1.396 1_565 S
C1542 C1545 1.385 1_565 S
H1543 C1559 0.930 . S
H1544 C1560 0.931 . S
C1545 H1533 0.929 1_545 S
C1545 C1539 1.390 . S
C1545 C1542 1.385 1_545 S
C1546 C1541 1.490 . S
C1546 C1548 1.395 . S
C1546 C1549 1.403 1_545 S
H1547 C1553 0.930 . S
C1548 H1534 0.930 . S
C1548 C1546 1.395 . S
C1548 C1551 1.403 1_554 S
C1549 C1546 1.403 1_565 S
C1549 C1550 1.524 . S
C1549 C1553 1.400 1_554 S
C1550 H1535 0.960 . S
C1550 H1536 0.960 . S
C1550 H1537 0.960 . S
C1550 C1549 1.524 . S
C1551 C1548 1.403 1_556 S
C1551 C1552 1.392 1_545 S
C1551 C1555 1.495 . S
C1552 C1551 1.392 1_565 S
C1552 C1553 1.385 . S
C1552 C1554 1.478 . S
C1553 H1547 0.930 . S
C1553 C1549 1.400 1_556 S
C1553 C1552 1.385 . S
C1554 C1552 1.478 . S
C1554 C1556 1.381 1_565 S
C1554 C1560 1.383 . S
C1555 C1551 1.495 . S
C1555 H1561 0.959 . S
C1555 H1562 0.961 . S
C1555 H1563 0.960 . S
C1556 C1554 1.381 1_545 S
C1556 C1557 1.394 1_545 S
C1556 H1564 0.930 . S
C1557 C1556 1.394 1_565 S
C1557 C1558 1.383 . S
C1557 H1565 0.929 . S
C1558 C1557 1.383 . S
C1558 C1559 1.377 . S
C1559 H1543 0.930 . S
C1559 C1558 1.377 . S
C1559 C1560 1.379 . S
C1560 H1544 0.931 . S
C1560 C1554 1.383 . S
C1560 C1559 1.379 . S
H1561 C1555 0.959 . S
H1562 C1555 0.961 . S
H1563 C1555 0.960 . S
H1564 C1556 0.930 . S
H1565 C1557 0.929 . S
H1566 C1574 0.929 . S
H1567 C1576 0.930 . S
H1568 C1578 0.930 . S
H1569 C1581 0.929 . S
H1570 C1584 0.930 . S
H1571 C1586 0.960 . S
H1572 C1586 0.960 . S
H1573 C1586 0.960 . S
C1574 H1566 0.929 . S
C1574 C1575 1.377 1_545 S
C1574 C1576 1.384 . S
C1575 C1574 1.377 1_565 S
C1575 C1581 1.390 . S
C1576 H1567 0.930 . S
C1576 C1574 1.384 . S
C1576 C1577 1.372 . S
C1577 C1576 1.372 . S
C1577 C1578 1.400 . S
C1577 C1582 1.490 . S
C1578 H1568 0.930 . S
C1578 C1577 1.400 . S
C1578 C1581 1.386 1_545 S
H1579 C1595 0.930 . S
H1580 C1596 0.931 . S
C1581 H1569 0.929 . S
C1581 C1575 1.390 . S
C1581 C1578 1.386 1_565 S
C1582 C1577 1.490 . S
C1582 C1584 1.395 . S
C1582 C1585 1.403 . S
H1583 C1589 0.930 . S
C1584 H1570 0.930 . S
C1584 C1582 1.395 . S
C1584 C1587 1.403 . S
C1585 C1582 1.403 . S
C1585 C1586 1.524 . S
C1585 C1589 1.400 . S
C1586 H1571 0.960 . S
C1586 H1572 0.960 . S
C1586 H1573 0.960 . S
C1586 C1585 1.524 . S
C1587 C1584 1.403 . S
C1587 C1588 1.392 . S
C1587 C1591 1.495 . S
C1588 C1587 1.392 . S
C1588 C1589 1.385 . S
C1588 C1590 1.478 . S
C1589 H1583 0.930 . S
C1589 C1585 1.400 . S
C1589 C1588 1.385 . S
C1590 C1588 1.478 . S
C1590 C1592 1.381 . S
C1590 C1596 1.383 . S
C1591 C1587 1.495 . S
C1591 H1597 0.959 . S
C1591 H1598 0.961 . S
C1591 H1599 0.960 . S
C1592 C1590 1.381 . S
C1592 C1593 1.394 . S
C1592 H1600 0.930 . S
C1593 C1592 1.394 . S
C1593 C1594 1.383 . S
C1593 H1601 0.929 . S
C1594 C1593 1.383 . S
C1594 C1595 1.377 . S
C1595 H1579 0.930 . S
C1595 C1594 1.377 . S
C1595 C1596 1.379 . S
C1596 H1580 0.931 . S
C1596 C1590 1.383 . S
C1596 C1595 1.379 . S
H1597 C1591 0.959 . S
H1598 C1591 0.961 . S
H1599 C1591 0.960 . S
H1600 C1592 0.930 . S
H1601 C1593 0.929 . S
H1602 C1610 0.929 . S
H1603 C1612 0.930 . S
H1604 C1614 0.930 . S
H1605 C1617 0.929 . S
H1606 C1620 0.930 . S
H1607 C1622 0.960 . S
H1608 C1622 0.960 . S
H1609 C1622 0.960 . S
C1610 H1602 0.929 . S
C1610 C1611 1.377 . S
C1610 C1612 1.384 . S
C1611 C1610 1.377 . S
C1611 C1617 1.390 . S
C1612 H1603 0.930 . S
C1612 C1610 1.384 . S
C1612 C1613 1.372 . S
C1613 C1612 1.372 . S
C1613 C1614 1.400 . S
C1613 C1618 1.490 1_565 S
C1614 H1604 0.930 . S
C1614 C1613 1.400 . S
C1614 C1617 1.386 . S
H1615 C1631 0.932 . S
H1616 C1632 0.931 . S
C1617 H1605 0.929 . S
C1617 C1611 1.390 . S
C1617 C1614 1.386 . S
C1618 C1613 1.490 1_545 S
C1618 C1620 1.395 . S
C1618 C1621 1.403 . S
H1619 C1625 0.930 . S
C1620 H1606 0.930 . S
C1620 C1618 1.395 . S
C1620 C1623 1.403 . S
C1621 C1618 1.403 . S
C1621 C1622 1.524 . S
C1621 C1625 1.400 . S
C1622 H1607 0.960 . S
C1622 H1608 0.960 . S
C1622 H1609 0.960 . S
C1622 C1621 1.524 . S
C1623 C1620 1.403 . S
C1623 C1624 1.392 . S
C1623 C1627 1.495 . S
C1624 C1623 1.392 . S
C1624 C1625 1.385 . S
C1624 C1626 1.478 . S
C1625 H1619 0.930 . S
C1625 C1621 1.400 . S
C1625 C1624 1.385 . S
C1626 C1624 1.478 . S
C1626 C1628 1.381 . S
C1626 C1632 1.383 . S
C1627 C1623 1.495 . S
C1627 H1633 0.959 . S
C1627 H1634 0.961 . S
C1627 H1635 0.960 . S
C1628 C1626 1.381 . S
C1628 C1629 1.394 . S
C1628 H1636 0.930 . S
C1629 C1628 1.394 . S
C1629 C1630 1.383 1_655 S
C1629 H1637 0.929 . S
C1630 C1629 1.383 1_455 S
C1630 C1631 1.376 . S
C1631 H1615 0.932 . S
C1631 C1630 1.376 . S
C1631 C1632 1.378 1_455 S
C1632 H1616 0.931 . S
C1632 C1626 1.383 . S
C1632 C1631 1.378 1_655 S
H1633 C1627 0.959 . S
H1634 C1627 0.961 . S
H1635 C1627 0.960 . S
H1636 C1628 0.930 . S
H1637 C1629 0.929 . S
H1638 C1646 0.929 . S
H1639 C1648 0.930 . S
H1640 C1650 0.930 . S
H1641 C1653 0.929 . S
H1642 C1656 0.930 . S
H1643 C1658 0.960 . S
H1644 C1658 0.960 . S
H1645 C1658 0.960 . S
C1646 H1638 0.929 . S
C1646 C1647 1.377 . S
C1646 C1648 1.384 . S
C1647 C1646 1.377 . S
C1647 C1653 1.390 . S
C1648 H1639 0.930 . S
C1648 C1646 1.384 . S
C1648 C1649 1.372 . S
C1649 C1648 1.372 . S
C1649 C1650 1.400 . S
C1649 C1654 1.490 . S
C1650 H1640 0.930 . S
C1650 C1649 1.400 . S
C1650 C1653 1.386 . S
H1651 C1667 0.930 . S
H1652 C1668 0.931 1_655 S
C1653 H1641 0.929 . S
C1653 C1647 1.390 . S
C1653 C1650 1.386 . S
C1654 C1649 1.490 . S
C1654 C1656 1.395 . S
C1654 C1657 1.403 . S
H1655 C1661 0.930 . S
C1656 H1642 0.930 . S
C1656 C1654 1.395 . S
C1656 C1659 1.403 . S
C1657 C1654 1.403 . S
C1657 C1658 1.524 . S
C1657 C1661 1.400 . S
C1658 H1643 0.960 . S
C1658 H1644 0.960 . S
C1658 H1645 0.960 . S
C1658 C1657 1.524 . S
C1659 C1656 1.403 . S
C1659 C1660 1.392 . S
C1659 C1663 1.495 . S
C1660 C1659 1.392 . S
C1660 C1661 1.385 . S
C1660 C1662 1.478 1_655 S
C1661 H1655 0.930 . S
C1661 C1657 1.400 . S
C1661 C1660 1.385 . S
C1662 C1660 1.478 1_455 S
C1662 C1664 1.381 . S
C1662 C1668 1.383 . S
C1663 C1659 1.495 . S
C1663 H1669 0.959 . S
C1663 H1670 0.961 . S
C1663 H1671 0.960 1_655 S
C1664 C1662 1.381 . S
C1664 C1665 1.394 . S
C1664 H1672 0.930 . S
C1665 C1664 1.394 . S
C1665 C1666 1.383 . S
C1665 H1673 0.929 . S
C1666 C1665 1.383 . S
C1666 C1667 1.377 . S
C1667 H1651 0.930 . S
C1667 C1666 1.377 . S
C1667 C1668 1.379 . S
C1668 H1652 0.931 1_455 S
C1668 C1662 1.383 . S
C1668 C1667 1.379 . S
H1669 C1663 0.959 . S
H1670 C1663 0.961 . S
H1671 C1663 0.960 1_455 S
H1672 C1664 0.930 . S
H1673 C1665 0.929 . S
H1674 C1682 0.929 . S
H1675 C1684 0.930 . S
H1676 C1686 0.930 . S
H1677 C1689 0.929 . S
H1678 C1692 0.930 . S
H1679 C1694 0.960 . S
H1680 C1694 0.960 . S
H1681 C1694 0.960 . S
C1682 H1674 0.929 . S
C1682 C1683 1.377 . S
C1682 C1684 1.384 1_655 S
C1683 C1682 1.377 . S
C1683 C1689 1.390 1_655 S
C1684 H1675 0.930 . S
C1684 C1682 1.384 1_455 S
C1684 C1685 1.372 . S
C1685 C1684 1.372 . S
C1685 C1686 1.400 . S
C1685 C1690 1.490 . S
C1686 H1676 0.930 . S
C1686 C1685 1.400 . S
C1686 C1689 1.386 . S
H1687 C1703 0.930 . S
H1688 C1704 0.931 . S
C1689 H1677 0.929 . S
C1689 C1683 1.390 1_455 S
C1689 C1686 1.386 . S
C1690 C1685 1.490 . S
C1690 C1692 1.395 . S
C1690 C1693 1.403 . S
H1691 C1697 0.930 . S
C1692 H1678 0.930 . S
C1692 C1690 1.395 . S
C1692 C1695 1.403 . S
C1693 C1690 1.403 . S
C1693 C1694 1.524 . S
C1693 C1697 1.400 . S
C1694 H1679 0.960 . S
C1694 H1680 0.960 . S
C1694 H1681 0.960 . S
C1694 C1693 1.524 . S
C1695 C1692 1.403 . S
C1695 C1696 1.392 . S
C1695 C1699 1.495 . S
C1696 C1695 1.392 . S
C1696 C1697 1.385 . S
C1696 C1698 1.478 . S
C1697 H1691 0.930 . S
C1697 C1693 1.400 . S
C1697 C1696 1.385 . S
C1698 C1696 1.478 . S
C1698 C1700 1.381 . S
C1698 C1704 1.383 . S
C1699 C1695 1.495 . S
C1699 H1705 0.959 . S
C1699 H1706 0.961 . S
C1699 H1707 0.960 . S
C1700 C1698 1.381 . S
C1700 C1701 1.394 . S
C1700 H1708 0.930 . S
C1701 C1700 1.394 . S
C1701 C1702 1.383 . S
C1701 H1709 0.929 . S
C1702 C1701 1.383 . S
C1702 C1703 1.377 . S
C1703 H1687 0.930 . S
C1703 C1702 1.377 . S
C1703 C1704 1.379 . S
C1704 H1688 0.931 . S
C1704 C1698 1.383 . S
C1704 C1703 1.379 . S
H1705 C1699 0.959 . S
H1706 C1699 0.961 . S
H1707 C1699 0.960 . S
H1708 C1700 0.930 . S
H1709 C1701 0.929 . S
H1710 C1718 0.929 . S
H1711 C1720 0.930 . S
H1712 C1722 0.930 . S
H1713 C1725 0.929 . S
H1714 C1728 0.930 . S
H1715 C1730 0.960 . S
H1716 C1730 0.953 1_545 S
H1717 C1730 0.960 . S
C1718 H1710 0.929 . S
C1718 C1719 1.377 . S
C1718 C1720 1.384 . S
C1719 C1718 1.377 . S
C1719 C1725 1.390 . S
C1720 H1711 0.930 . S
C1720 C1718 1.384 . S
C1720 C1721 1.372 . S
C1721 C1720 1.372 . S
C1721 C1722 1.400 . S
C1721 C1726 1.490 1_545 S
C1722 H1712 0.930 . S
C1722 C1721 1.400 . S
C1722 C1725 1.386 . S
H1723 C1739 0.930 . S
H1724 C1740 0.931 . S
C1725 H1713 0.929 . S
C1725 C1719 1.390 . S
C1725 C1722 1.386 . S
C1726 C1721 1.490 1_565 S
C1726 C1728 1.395 . S
C1726 C1729 1.403 . S
H1727 C1733 0.930 . S
C1728 H1714 0.930 . S
C1728 C1726 1.395 . S
C1728 C1731 1.403 . S
C1729 C1726 1.403 . S
C1729 C1730 1.524 . S
C1729 C1733 1.400 . S
C1730 H1715 0.960 . S
C1730 H1716 0.953 1_565 S
C1730 H1717 0.960 . S
C1730 C1729 1.524 . S
C1731 C1728 1.403 . S
C1731 C1732 1.392 . S
C1731 C1735 1.495 . S
C1732 C1731 1.392 . S
C1732 C1733 1.385 . S
C1732 C1734 1.478 . S
C1733 H1727 0.930 . S
C1733 C1729 1.400 . S
C1733 C1732 1.385 . S
C1734 C1732 1.478 . S
C1734 C1736 1.381 . S
C1734 C1740 1.383 . S
C1735 C1731 1.495 . S
C1735 H1741 0.959 . S
C1735 H1742 0.961 . S
C1735 H1743 0.960 . S
C1736 C1734 1.381 . S
C1736 C1737 1.394 . S
C1736 H1744 0.930 . S
C1737 C1736 1.394 . S
C1737 C1738 1.383 . S
C1737 H1745 0.929 . S
C1738 C1737 1.383 . S
C1738 C1739 1.377 . S
C1739 H1723 0.930 . S
C1739 C1738 1.377 . S
C1739 C1740 1.379 . S
C1740 H1724 0.931 . S
C1740 C1734 1.383 . S
C1740 C1739 1.379 . S
H1741 C1735 0.959 . S
H1742 C1735 0.961 . S
H1743 C1735 0.960 . S
H1744 C1736 0.930 . S
H1745 C1737 0.929 . S
H1746 C1754 0.929 . S
H1747 C1756 0.930 . S
H1748 C1758 0.930 . S
H1749 C1761 0.929 . S
H1750 C1764 0.930 . S
H1751 C1766 0.960 . S
H1752 C1766 0.960 . S
H1753 C1766 0.960 . S
C1754 H1746 0.929 . S
C1754 C1755 1.377 1_565 S
C1754 C1756 1.384 . S
C1755 C1754 1.377 1_545 S
C1755 C1761 1.390 . S
C1756 H1747 0.930 . S
C1756 C1754 1.384 . S
C1756 C1757 1.372 . S
C1757 C1756 1.372 . S
C1757 C1758 1.400 . S
C1757 C1762 1.490 . S
C1758 H1748 0.930 . S
C1758 C1757 1.400 . S
C1758 C1761 1.386 1_565 S
H1759 C1775 0.930 . S
H1760 C1776 0.931 . S
C1761 H1749 0.929 . S
C1761 C1755 1.390 . S
C1761 C1758 1.386 1_545 S
C1762 C1757 1.490 . S
C1762 C1764 1.395 . S
C1762 C1765 1.403 . S
H1763 C1769 0.930 . S
C1764 H1750 0.930 . S
C1764 C1762 1.395 . S
C1764 C1767 1.403 . S
C1765 C1762 1.403 . S
C1765 C1766 1.524 . S
C1765 C1769 1.400 . S
C1766 H1751 0.960 . S
C1766 H1752 0.960 . S
C1766 H1753 0.960 . S
C1766 C1765 1.524 . S
C1767 C1764 1.403 . S
C1767 C1768 1.392 . S
C1767 C1771 1.495 . S
C1768 C1767 1.392 . S
C1768 C1769 1.385 . S
C1768 C1770 1.478 1_455 S
C1769 H1763 0.930 . S
C1769 C1765 1.400 . S
C1769 C1768 1.385 . S
C1770 C1768 1.478 1_655 S
C1770 C1772 1.381 . S
C1770 C1776 1.383 . S
C1771 C1767 1.495 . S
C1771 H1777 0.959 . S
C1771 H1778 0.961 . S
C1771 H1779 0.960 . S
C1772 C1770 1.381 . S
C1772 C1773 1.394 . S
C1772 H1780 0.930 . S
C1773 C1772 1.394 . S
C1773 C1774 1.383 . S
C1773 H1781 0.929 . S
C1774 C1773 1.383 . S
C1774 C1775 1.377 . S
C1775 H1759 0.930 . S
C1775 C1774 1.377 . S
C1775 C1776 1.379 . S
C1776 H1760 0.931 . S
C1776 C1770 1.383 . S
C1776 C1775 1.379 . S
H1777 C1771 0.959 . S
H1778 C1771 0.961 . S
H1779 C1771 0.960 . S
H1780 C1772 0.930 . S
H1781 C1773 0.929 . S
H1782 C1790 0.929 . S
H1783 C1792 0.930 . S
H1784 C1794 0.930 . S
H1785 C1797 0.929 . S
H1786 C1800 0.930 . S
H1787 C1802 0.960 . S
H1788 C1802 0.960 . S
H1789 C1802 0.960 . S
C1790 H1782 0.929 . S
C1790 C1791 1.377 . S
C1790 C1792 1.384 . S
C1791 C1790 1.377 . S
C1791 C1797 1.390 . S
C1792 H1783 0.930 . S
C1792 C1790 1.384 . S
C1792 C1793 1.372 . S
C1793 C1792 1.372 . S
C1793 C1794 1.400 . S
C1793 C1798 1.490 . S
C1794 H1784 0.930 . S
C1794 C1793 1.400 . S
C1794 C1797 1.386 . S
H1795 C1811 0.930 . S
H1796 C1812 0.931 . S
C1797 H1785 0.929 . S
C1797 C1791 1.390 . S
C1797 C1794 1.386 . S
C1798 C1793 1.490 . S
C1798 C1800 1.395 . S
C1798 C1801 1.403 . S
H1799 C1805 0.930 . S
C1800 H1786 0.930 . S
C1800 C1798 1.395 . S
C1800 C1803 1.403 . S
C1801 C1798 1.403 . S
C1801 C1802 1.524 . S
C1801 C1805 1.400 . S
C1802 H1787 0.960 . S
C1802 H1788 0.960 . S
C1802 H1789 0.960 . S
C1802 C1801 1.524 . S
C1803 C1800 1.403 . S
C1803 C1804 1.392 . S
C1803 C1807 1.495 . S
C1804 C1803 1.392 . S
C1804 C1805 1.385 . S
C1804 C1806 1.478 . S
C1805 H1799 0.930 . S
C1805 C1801 1.400 . S
C1805 C1804 1.385 . S
C1806 C1804 1.478 . S
C1806 C1808 1.381 . S
C1806 C1812 1.383 . S
C1807 C1803 1.495 . S
C1807 H1813 0.959 . S
C1807 H1814 0.961 . S
C1807 H1815 0.960 . S
C1808 C1806 1.381 . S
C1808 C1809 1.394 . S
C1808 H1816 0.930 . S
C1809 C1808 1.394 . S
C1809 C1810 1.383 . S
C1809 H1817 0.929 . S
C1810 C1809 1.383 . S
C1810 C1811 1.377 . S
C1811 H1795 0.930 . S
C1811 C1810 1.377 . S
C1811 C1812 1.379 . S
C1812 H1796 0.931 . S
C1812 C1806 1.383 . S
C1812 C1811 1.379 . S
H1813 C1807 0.959 . S
H1814 C1807 0.961 . S
H1815 C1807 0.960 . S
H1816 C1808 0.930 . S
H1817 C1809 0.929 . S
H1818 C1826 0.929 . S
H1819 C1828 0.930 . S
H1820 C1830 0.930 . S
H1821 C1833 0.929 . S
H1822 C1836 0.930 . S
H1823 C1838 0.960 . S
H1824 C1838 0.960 . S
H1825 C1838 0.960 . S
C1826 H1818 0.929 . S
C1826 C1827 1.377 . S
C1826 C1828 1.384 . S
C1827 C1826 1.377 . S
C1827 C1833 1.390 . S
C1828 H1819 0.930 . S
C1828 C1826 1.384 . S
C1828 C1829 1.372 . S
C1829 C1828 1.372 . S
C1829 C1830 1.400 . S
C1829 C1834 1.490 . S
C1830 H1820 0.930 . S
C1830 C1829 1.400 . S
C1830 C1833 1.386 . S
H1831 C1847 0.930 . S
H1832 C1848 0.931 . S
C1833 H1821 0.929 . S
C1833 C1827 1.390 . S
C1833 C1830 1.386 . S
C1834 C1829 1.490 . S
C1834 C1836 1.395 . S
C1834 C1837 1.403 . S
H1835 C1841 0.930 . S
C1836 H1822 0.930 . S
C1836 C1834 1.395 . S
C1836 C1839 1.403 . S
C1837 C1834 1.403 . S
C1837 C1838 1.524 . S
C1837 C1841 1.400 . S
C1838 H1823 0.960 . S
C1838 H1824 0.960 . S
C1838 H1825 0.960 . S
C1838 C1837 1.524 . S
C1839 C1836 1.403 . S
C1839 C1840 1.392 . S
C1839 C1843 1.495 . S
C1840 C1839 1.392 . S
C1840 C1841 1.385 . S
C1840 C1842 1.478 . S
C1841 H1835 0.930 . S
C1841 C1837 1.400 . S
C1841 C1840 1.385 . S
C1842 C1840 1.478 . S
C1842 C1844 1.381 . S
C1842 C1848 1.383 . S
C1843 C1839 1.495 . S
C1843 H1849 0.959 . S
C1843 H1850 0.961 . S
C1843 H1851 0.960 . S
C1844 C1842 1.381 . S
C1844 C1845 1.394 . S
C1844 H1852 0.930 . S
C1845 C1844 1.394 . S
C1845 C1846 1.383 . S
C1845 H1853 0.929 . S
C1846 C1845 1.383 . S
C1846 C1847 1.377 . S
C1847 H1831 0.930 . S
C1847 C1846 1.377 . S
C1847 C1848 1.379 . S
C1848 H1832 0.931 . S
C1848 C1842 1.383 . S
C1848 C1847 1.379 . S
H1849 C1843 0.959 . S
H1850 C1843 0.961 . S
H1851 C1843 0.960 . S
H1852 C1844 0.930 . S
H1853 C1845 0.929 . S
H1854 C1862 0.929 . S
H1855 C1864 0.930 . S
H1856 C1866 0.930 . S
H1857 C1869 0.929 . S
H1858 C1872 0.930 . S
H1859 C1874 0.960 . S
H1860 C1874 0.960 . S
H1861 C1874 0.960 . S
C1862 H1854 0.929 . S
C1862 C1863 1.377 . S
C1862 C1864 1.384 . S
C1863 C1862 1.377 . S
C1863 C1869 1.390 . S
C1864 H1855 0.930 . S
C1864 C1862 1.384 . S
C1864 C1865 1.372 . S
C1865 C1864 1.372 . S
C1865 C1866 1.400 . S
C1865 C1870 1.490 . S
C1866 H1856 0.930 . S
C1866 C1865 1.400 . S
C1866 C1869 1.386 . S
H1867 C1883 0.930 . S
H1868 C1884 0.931 . S
C1869 H1857 0.929 . S
C1869 C1863 1.390 . S
C1869 C1866 1.386 . S
C1870 C1865 1.490 . S
C1870 C1872 1.395 . S
C1870 C1873 1.403 . S
H1871 C1877 0.930 . S
C1872 H1858 0.930 . S
C1872 C1870 1.395 . S
C1872 C1875 1.403 . S
C1873 C1870 1.403 . S
C1873 C1874 1.524 . S
C1873 C1877 1.400 . S
C1874 H1859 0.960 . S
C1874 H1860 0.960 . S
C1874 H1861 0.960 . S
C1874 C1873 1.524 . S
C1875 C1872 1.403 . S
C1875 C1876 1.392 . S
C1875 C1879 1.495 . S
C1876 C1875 1.392 . S
C1876 C1877 1.385 . S
C1876 C1878 1.478 . S
C1877 H1871 0.930 . S
C1877 C1873 1.400 . S
C1877 C1876 1.385 . S
C1878 C1876 1.478 . S
C1878 C1880 1.381 . S
C1878 C1884 1.383 . S
C1879 C1875 1.495 . S
C1879 H1885 0.959 . S
C1879 H1886 0.961 . S
C1879 H1887 0.960 . S
C1880 C1878 1.381 . S
C1880 C1881 1.394 . S
C1880 H1888 0.930 . S
C1881 C1880 1.394 . S
C1881 C1882 1.383 . S
C1881 H1889 0.929 . S
C1882 C1881 1.383 . S
C1882 C1883 1.377 . S
C1883 H1867 0.930 . S
C1883 C1882 1.377 . S
C1883 C1884 1.379 . S
C1884 H1868 0.931 . S
C1884 C1878 1.383 . S
C1884 C1883 1.379 . S
H1885 C1879 0.959 . S
H1886 C1879 0.961 . S
H1887 C1879 0.960 . S
H1888 C1880 0.930 . S
H1889 C1881 0.929 . S
H1890 C1898 0.929 . S
H1891 C1900 0.930 . S
H1892 C1902 0.930 . S
H1893 C1905 0.929 . S
H1894 C1908 0.930 . S
H1895 C1910 0.960 . S
H1896 C1910 0.960 . S
H1897 C1910 0.960 . S
C1898 H1890 0.929 . S
C1898 C1899 1.377 . S
C1898 C1900 1.384 . S
C1899 C1898 1.377 . S
C1899 C1905 1.390 . S
C1900 H1891 0.930 . S
C1900 C1898 1.384 . S
C1900 C1901 1.372 . S
C1901 C1900 1.372 . S
C1901 C1902 1.400 . S
C1901 C1906 1.490 . S
C1902 H1892 0.930 . S
C1902 C1901 1.400 . S
C1902 C1905 1.386 . S
H1903 C1919 0.930 . S
H1904 C1920 0.931 . S
C1905 H1893 0.929 . S
C1905 C1899 1.390 . S
C1905 C1902 1.386 . S
C1906 C1901 1.490 . S
C1906 C1908 1.395 . S
C1906 C1909 1.403 . S
H1907 C1913 0.930 . S
C1908 H1894 0.930 . S
C1908 C1906 1.395 . S
C1908 C1911 1.403 . S
C1909 C1906 1.403 . S
C1909 C1910 1.524 . S
C1909 C1913 1.400 . S
C1910 H1895 0.960 . S
C1910 H1896 0.960 . S
C1910 H1897 0.960 . S
C1910 C1909 1.524 . S
C1911 C1908 1.403 . S
C1911 C1912 1.392 . S
C1911 C1915 1.495 . S
C1912 C1911 1.392 . S
C1912 C1913 1.385 . S
C1912 C1914 1.478 . S
C1913 H1907 0.930 . S
C1913 C1909 1.400 . S
C1913 C1912 1.385 . S
C1914 C1912 1.478 . S
C1914 C1916 1.381 . S
C1914 C1920 1.383 . S
C1915 C1911 1.495 . S
C1915 H1921 0.959 . S
C1915 H1922 0.961 . S
C1915 H1923 0.960 . S
C1916 C1914 1.381 . S
C1916 C1917 1.394 . S
C1916 H1924 0.930 . S
C1917 C1916 1.394 . S
C1917 C1918 1.383 . S
C1917 H1925 0.929 . S
C1918 C1917 1.383 . S
C1918 C1919 1.377 . S
C1919 H1903 0.930 . S
C1919 C1918 1.377 . S
C1919 C1920 1.379 . S
C1920 H1904 0.931 . S
C1920 C1914 1.383 . S
C1920 C1919 1.379 . S
H1921 C1915 0.959 . S
H1922 C1915 0.961 . S
H1923 C1915 0.960 . S
H1924 C1916 0.930 . S
H1925 C1917 0.929 . S
H1926 C1934 0.929 . S
H1927 C1936 0.930 . S
H1928 C1938 0.930 . S
H1929 C1941 0.929 . S
H1930 C1944 0.930 . S
H1931 C1946 0.960 . S
H1932 C1946 0.960 . S
H1933 C1946 0.960 . S
C1934 H1926 0.929 . S
C1934 C1935 1.377 . S
C1934 C1936 1.384 . S
C1935 C1934 1.377 . S
C1935 C1941 1.390 . S
C1936 H1927 0.930 . S
C1936 C1934 1.384 . S
C1936 C1937 1.372 . S
C1937 C1936 1.372 . S
C1937 C1938 1.400 . S
C1937 C1942 1.490 . S
C1938 H1928 0.930 . S
C1938 C1937 1.400 . S
C1938 C1941 1.386 . S
H1939 C1955 0.930 . S
H1940 C1956 0.931 . S
C1941 H1929 0.929 . S
C1941 C1935 1.390 . S
C1941 C1938 1.386 . S
C1942 C1937 1.490 . S
C1942 C1944 1.395 . S
C1942 C1945 1.403 . S
H1943 C1949 0.930 . S
C1944 H1930 0.930 . S
C1944 C1942 1.395 . S
C1944 C1947 1.403 . S
C1945 C1942 1.403 . S
C1945 C1946 1.524 . S
C1945 C1949 1.400 . S
C1946 H1931 0.960 . S
C1946 H1932 0.960 . S
C1946 H1933 0.960 . S
C1946 C1945 1.524 . S
C1947 C1944 1.403 . S
C1947 C1948 1.392 . S
C1947 C1951 1.495 . S
C1948 C1947 1.392 . S
C1948 C1949 1.385 . S
C1948 C1950 1.478 . S
C1949 H1943 0.930 . S
C1949 C1945 1.400 . S
C1949 C1948 1.385 . S
C1950 C1948 1.478 . S
C1950 C1952 1.381 . S
C1950 C1956 1.383 . S
C1951 C1947 1.495 . S
C1951 H1957 0.959 . S
C1951 H1958 0.961 . S
C1951 H1959 0.960 . S
C1952 C1950 1.381 . S
C1952 C1953 1.394 . S
C1952 H1960 0.930 . S
C1953 C1952 1.394 . S
C1953 C1954 1.383 . S
C1953 H1961 0.929 . S
C1954 C1953 1.383 . S
C1954 C1955 1.377 . S
C1955 H1939 0.930 . S
C1955 C1954 1.377 . S
C1955 C1956 1.379 . S
C1956 H1940 0.931 . S
C1956 C1950 1.383 . S
C1956 C1955 1.379 . S
H1957 C1951 0.959 . S
H1958 C1951 0.961 . S
H1959 C1951 0.960 . S
H1960 C1952 0.930 . S
H1961 C1953 0.929 . S
H1962 C1970 0.929 . S
H1963 C1972 0.930 . S
H1964 C1974 0.930 . S
H1965 C1977 0.929 . S
H1966 C1980 0.930 . S
H1967 C1982 0.960 . S
H1968 C1982 0.960 . S
H1969 C1982 0.960 . S
C1970 H1962 0.929 . S
C1970 C1971 1.377 . S
C1970 C1972 1.384 . S
C1971 C1970 1.377 . S
C1971 C1977 1.390 . S
C1972 H1963 0.930 . S
C1972 C1970 1.384 . S
C1972 C1973 1.372 . S
C1973 C1972 1.372 . S
C1973 C1974 1.400 . S
C1973 C1978 1.490 . S
C1974 H1964 0.930 . S
C1974 C1973 1.400 . S
C1974 C1977 1.386 . S
H1975 C1991 0.930 . S
H1976 C1992 0.931 . S
C1977 H1965 0.929 . S
C1977 C1971 1.390 . S
C1977 C1974 1.386 . S
C1978 C1973 1.490 . S
C1978 C1980 1.395 . S
C1978 C1981 1.403 . S
H1979 C1985 0.930 . S
C1980 H1966 0.930 . S
C1980 C1978 1.395 . S
C1980 C1983 1.403 . S
C1981 C1978 1.403 . S
C1981 C1982 1.524 . S
C1981 C1985 1.400 . S
C1982 H1967 0.960 . S
C1982 H1968 0.960 . S
C1982 H1969 0.960 . S
C1982 C1981 1.524 . S
C1983 C1980 1.403 . S
C1983 C1984 1.392 . S
C1983 C1987 1.495 . S
C1984 C1983 1.392 . S
C1984 C1985 1.385 . S
C1984 C1986 1.478 . S
C1985 H1979 0.930 . S
C1985 C1981 1.400 . S
C1985 C1984 1.385 . S
C1986 C1984 1.478 . S
C1986 C1988 1.381 . S
C1986 C1992 1.383 . S
C1987 C1983 1.495 . S
C1987 H1993 0.959 . S
C1987 H1994 0.961 . S
C1987 H1995 0.960 . S
C1988 C1986 1.381 . S
C1988 C1989 1.394 . S
C1988 H1996 0.930 . S
C1989 C1988 1.394 . S
C1989 C1990 1.383 . S
C1989 H1997 0.929 . S
C1990 C1989 1.383 . S
C1990 C1991 1.377 . S
C1991 H1975 0.930 . S
C1991 C1990 1.377 . S
C1991 C1992 1.379 . S
C1992 H1976 0.931 . S
C1992 C1986 1.383 . S
C1992 C1991 1.379 . S
H1993 C1987 0.959 . S
H1994 C1987 0.961 . S
H1995 C1987 0.960 . S
H1996 C1988 0.930 . S
H1997 C1989 0.929 . S
H1998 C2006 0.929 . S
H1999 C2008 0.930 . S
H2000 C2010 0.930 . S
H2001 C2013 0.929 . S
H2002 C2016 0.930 . S
H2003 C2018 0.960 . S
H2004 C2018 0.960 . S
H2005 C2018 0.960 . S
C2006 H1998 0.929 . S
C2006 C2007 1.377 . S
C2006 C2008 1.384 . S
C2007 C2006 1.377 . S
C2007 C2013 1.390 . S
C2008 H1999 0.930 . S
C2008 C2006 1.384 . S
C2008 C2009 1.372 . S
C2009 C2008 1.372 . S
C2009 C2010 1.400 . S
C2009 C2014 1.490 . S
C2010 H2000 0.930 . S
C2010 C2009 1.400 . S
C2010 C2013 1.386 . S
H2011 C2027 0.930 . S
H2012 C2028 0.931 . S
C2013 H2001 0.929 . S
C2013 C2007 1.390 . S
C2013 C2010 1.386 . S
C2014 C2009 1.490 . S
C2014 C2016 1.395 . S
C2014 C2017 1.403 . S
H2015 C2021 0.930 . S
C2016 H2002 0.930 . S
C2016 C2014 1.395 . S
C2016 C2019 1.403 . S
C2017 C2014 1.403 . S
C2017 C2018 1.524 . S
C2017 C2021 1.400 . S
C2018 H2003 0.960 . S
C2018 H2004 0.960 . S
C2018 H2005 0.960 . S
C2018 C2017 1.524 . S
C2019 C2016 1.403 . S
C2019 C2020 1.392 . S
C2019 C2023 1.495 . S
C2020 C2019 1.392 . S
C2020 C2021 1.385 . S
C2020 C2022 1.478 . S
C2021 H2015 0.930 . S
C2021 C2017 1.400 . S
C2021 C2020 1.385 . S
C2022 C2020 1.478 . S
C2022 C2024 1.381 . S
C2022 C2028 1.383 . S
C2023 C2019 1.495 . S
C2023 H2029 0.959 . S
C2023 H2030 0.961 . S
C2023 H2031 0.960 . S
C2024 C2022 1.381 . S
C2024 C2025 1.394 . S
C2024 H2032 0.930 . S
C2025 C2024 1.394 . S
C2025 C2026 1.383 . S
C2025 H2033 0.929 . S
C2026 C2025 1.383 . S
C2026 C2027 1.377 . S
C2027 H2011 0.930 . S
C2027 C2026 1.377 . S
C2027 C2028 1.379 . S
C2028 H2012 0.931 . S
C2028 C2022 1.383 . S
C2028 C2027 1.379 . S
H2029 C2023 0.959 . S
H2030 C2023 0.961 . S
H2031 C2023 0.960 . S
H2032 C2024 0.930 . S
H2033 C2025 0.929 . S
H2034 C2042 0.929 . S
H2035 C2044 0.930 . S
H2036 C2046 0.930 . S
H2037 C2049 0.929 . S
H2038 C2052 0.930 . S
H2039 C2054 0.960 . S
H2040 C2054 0.960 . S
H2041 C2054 0.960 . S
C2042 H2034 0.929 . S
C2042 C2043 1.377 . S
C2042 C2044 1.384 . S
C2043 C2042 1.377 . S
C2043 C2049 1.390 . S
C2044 H2035 0.930 . S
C2044 C2042 1.384 . S
C2044 C2045 1.372 . S
C2045 C2044 1.372 . S
C2045 C2046 1.400 . S
C2045 C2050 1.490 . S
C2046 H2036 0.930 . S
C2046 C2045 1.400 . S
C2046 C2049 1.386 . S
H2047 C2063 0.930 . S
H2048 C2064 0.931 . S
C2049 H2037 0.929 . S
C2049 C2043 1.390 . S
C2049 C2046 1.386 . S
C2050 C2045 1.490 . S
C2050 C2052 1.395 . S
C2050 C2053 1.403 . S
H2051 C2057 0.930 . S
C2052 H2038 0.930 . S
C2052 C2050 1.395 . S
C2052 C2055 1.403 . S
C2053 C2050 1.403 . S
C2053 C2054 1.524 . S
C2053 C2057 1.400 . S
C2054 H2039 0.960 . S
C2054 H2040 0.960 . S
C2054 H2041 0.960 . S
C2054 C2053 1.524 . S
C2055 C2052 1.403 . S
C2055 C2056 1.392 . S
C2055 C2059 1.495 . S
C2056 C2055 1.392 . S
C2056 C2057 1.385 . S
C2056 C2058 1.478 . S
C2057 H2051 0.930 . S
C2057 C2053 1.400 . S
C2057 C2056 1.385 . S
C2058 C2056 1.478 . S
C2058 C2060 1.381 . S
C2058 C2064 1.383 . S
C2059 C2055 1.495 . S
C2059 H2065 0.959 . S
C2059 H2066 0.961 . S
C2059 H2067 0.960 . S
C2060 C2058 1.381 . S
C2060 C2061 1.394 . S
C2060 H2068 0.930 . S
C2061 C2060 1.394 . S
C2061 C2062 1.383 . S
C2061 H2069 0.929 . S
C2062 C2061 1.383 . S
C2062 C2063 1.377 . S
C2063 H2047 0.930 . S
C2063 C2062 1.377 . S
C2063 C2064 1.379 . S
C2064 H2048 0.931 . S
C2064 C2058 1.383 . S
C2064 C2063 1.379 . S
H2065 C2059 0.959 . S
H2066 C2059 0.961 . S
H2067 C2059 0.960 . S
H2068 C2060 0.930 . S
H2069 C2061 0.929 . S
H2070 C2078 0.929 . S
H2071 C2080 0.930 . S
H2072 C2082 0.930 . S
H2073 C2085 0.929 . S
H2074 C2088 0.930 . S
H2075 C2090 0.960 . S
H2076 C2090 0.960 . S
H2077 C2090 0.960 . S
C2078 H2070 0.929 . S
C2078 C2079 1.377 . S
C2078 C2080 1.384 . S
C2079 C2078 1.377 . S
C2079 C2085 1.390 . S
C2080 H2071 0.930 . S
C2080 C2078 1.384 . S
C2080 C2081 1.372 . S
C2081 C2080 1.372 . S
C2081 C2082 1.400 . S
C2081 C2086 1.490 . S
C2082 H2072 0.930 . S
C2082 C2081 1.400 . S
C2082 C2085 1.386 . S
H2083 C2099 0.930 . S
H2084 C2100 0.931 . S
C2085 H2073 0.929 . S
C2085 C2079 1.390 . S
C2085 C2082 1.386 . S
C2086 C2081 1.490 . S
C2086 C2088 1.395 . S
C2086 C2089 1.403 . S
H2087 C2093 0.930 . S
C2088 H2074 0.930 . S
C2088 C2086 1.395 . S
C2088 C2091 1.403 . S
C2089 C2086 1.403 . S
C2089 C2090 1.524 . S
C2089 C2093 1.400 . S
C2090 H2075 0.960 . S
C2090 H2076 0.960 . S
C2090 H2077 0.960 . S
C2090 C2089 1.524 . S
C2091 C2088 1.403 . S
C2091 C2092 1.392 . S
C2091 C2095 1.495 . S
C2092 C2091 1.392 . S
C2092 C2093 1.385 . S
C2092 C2094 1.478 . S
C2093 H2087 0.930 . S
C2093 C2089 1.400 . S
C2093 C2092 1.385 . S
C2094 C2092 1.478 . S
C2094 C2096 1.381 . S
C2094 C2100 1.383 . S
C2095 C2091 1.495 . S
C2095 H2101 0.959 . S
C2095 H2102 0.961 . S
C2095 H2103 0.960 . S
C2096 C2094 1.381 . S
C2096 C2097 1.394 . S
C2096 H2104 0.930 . S
C2097 C2096 1.394 . S
C2097 C2098 1.383 . S
C2097 H2105 0.929 . S
C2098 C2097 1.383 . S
C2098 C2099 1.377 . S
C2099 H2083 0.930 . S
C2099 C2098 1.377 . S
C2099 C2100 1.379 . S
C2100 H2084 0.931 . S
C2100 C2094 1.383 . S
C2100 C2099 1.379 . S
H2101 C2095 0.959 . S
H2102 C2095 0.961 . S
H2103 C2095 0.960 . S
H2104 C2096 0.930 . S
H2105 C2097 0.929 . S
H2106 C2114 0.929 . S
H2107 C2116 0.930 . S
H2108 C2118 0.930 . S
H2109 C2121 0.929 . S
H2110 C2124 0.930 . S
H2111 C2126 0.960 . S
H2112 C2126 0.960 . S
H2113 C2126 0.960 . S
C2114 H2106 0.929 . S
C2114 C2115 1.377 . S
C2114 C2116 1.384 . S
C2115 C2114 1.377 . S
C2115 C2121 1.390 . S
C2116 H2107 0.930 . S
C2116 C2114 1.384 . S
C2116 C2117 1.372 . S
C2117 C2116 1.372 . S
C2117 C2118 1.400 . S
C2117 C2122 1.490 . S
C2118 H2108 0.930 . S
C2118 C2117 1.400 . S
C2118 C2121 1.386 . S
H2119 C2135 0.930 . S
H2120 C2136 0.931 . S
C2121 H2109 0.929 . S
C2121 C2115 1.390 . S
C2121 C2118 1.386 . S
C2122 C2117 1.490 . S
C2122 C2124 1.395 . S
C2122 C2125 1.403 . S
H2123 C2129 0.930 . S
C2124 H2110 0.930 . S
C2124 C2122 1.395 . S
C2124 C2127 1.403 . S
C2125 C2122 1.403 . S
C2125 C2126 1.524 . S
C2125 C2129 1.400 . S
C2126 H2111 0.960 . S
C2126 H2112 0.960 . S
C2126 H2113 0.960 . S
C2126 C2125 1.524 . S
C2127 C2124 1.403 . S
C2127 C2128 1.392 . S
C2127 C2131 1.495 . S
C2128 C2127 1.392 . S
C2128 C2129 1.385 . S
C2128 C2130 1.478 . S
C2129 H2123 0.930 . S
C2129 C2125 1.400 . S
C2129 C2128 1.385 . S
C2130 C2128 1.478 . S
C2130 C2132 1.381 . S
C2130 C2136 1.383 . S
C2131 C2127 1.495 . S
C2131 H2137 0.959 . S
C2131 H2138 0.961 . S
C2131 H2139 0.960 . S
C2132 C2130 1.381 . S
C2132 C2133 1.394 . S
C2132 H2140 0.930 . S
C2133 C2132 1.394 . S
C2133 C2134 1.383 . S
C2133 H2141 0.929 . S
C2134 C2133 1.383 . S
C2134 C2135 1.377 . S
C2135 H2119 0.930 . S
C2135 C2134 1.377 . S
C2135 C2136 1.379 . S
C2136 H2120 0.931 . S
C2136 C2130 1.383 . S
C2136 C2135 1.379 . S
H2137 C2131 0.959 . S
H2138 C2131 0.961 . S
H2139 C2131 0.960 . S
H2140 C2132 0.930 . S
H2141 C2133 0.929 . S
H2142 C2150 0.929 . S
H2143 C2152 0.930 . S
H2144 C2154 0.930 . S
H2145 C2157 0.929 . S
H2146 C2160 0.930 . S
H2147 C2162 0.960 . S
H2148 C2162 0.960 . S
H2149 C2162 0.960 . S
C2150 H2142 0.929 . S
C2150 C2151 1.377 . S
C2150 C2152 1.384 . S
C2151 C2150 1.377 . S
C2151 C2157 1.390 . S
C2152 H2143 0.930 . S
C2152 C2150 1.384 . S
C2152 C2153 1.372 . S
C2153 C2152 1.372 . S
C2153 C2154 1.400 . S
C2153 C2158 1.490 . S
C2154 H2144 0.930 . S
C2154 C2153 1.400 . S
C2154 C2157 1.386 . S
H2155 C2171 0.930 . S
H2156 C2172 0.931 . S
C2157 H2145 0.929 . S
C2157 C2151 1.390 . S
C2157 C2154 1.386 . S
C2158 C2153 1.490 . S
C2158 C2160 1.395 . S
C2158 C2161 1.403 . S
H2159 C2165 0.930 . S
C2160 H2146 0.930 . S
C2160 C2158 1.395 . S
C2160 C2163 1.403 . S
C2161 C2158 1.403 . S
C2161 C2162 1.524 . S
C2161 C2165 1.400 . S
C2162 H2147 0.960 . S
C2162 H2148 0.960 . S
C2162 H2149 0.960 . S
C2162 C2161 1.524 . S
C2163 C2160 1.403 . S
C2163 C2164 1.392 . S
C2163 C2167 1.495 . S
C2164 C2163 1.392 . S
C2164 C2165 1.385 . S
C2164 C2166 1.478 . S
C2165 H2159 0.930 . S
C2165 C2161 1.400 . S
C2165 C2164 1.385 . S
C2166 C2164 1.478 . S
C2166 C2168 1.381 . S
C2166 C2172 1.383 . S
C2167 C2163 1.495 . S
C2167 H2173 0.959 . S
C2167 H2174 0.961 . S
C2167 H2175 0.960 . S
C2168 C2166 1.381 . S
C2168 C2169 1.394 . S
C2168 H2176 0.930 . S
C2169 C2168 1.394 . S
C2169 C2170 1.383 . S
C2169 H2177 0.929 . S
C2170 C2169 1.383 . S
C2170 C2171 1.377 . S
C2171 H2155 0.930 . S
C2171 C2170 1.377 . S
C2171 C2172 1.379 . S
C2172 H2156 0.931 . S
C2172 C2166 1.383 . S
C2172 C2171 1.379 . S
H2173 C2167 0.959 . S
H2174 C2167 0.961 . S
H2175 C2167 0.960 . S
H2176 C2168 0.930 . S
H2177 C2169 0.929 . S
H2178 C2186 0.929 . S
H2179 C2188 0.930 . S
H2180 C2190 0.930 . S
H2181 C2193 0.929 . S
H2182 C2196 0.930 . S
H2183 C2198 0.960 . S
H2184 C2198 0.960 . S
H2185 C2198 0.960 . S
C2186 H2178 0.929 . S
C2186 C2187 1.377 . S
C2186 C2188 1.384 . S
C2187 C2186 1.377 . S
C2187 C2193 1.390 . S
C2188 H2179 0.930 . S
C2188 C2186 1.384 . S
C2188 C2189 1.372 . S
C2189 C2188 1.372 . S
C2189 C2190 1.400 . S
C2189 C2194 1.490 . S
C2190 H2180 0.930 . S
C2190 C2189 1.400 . S
C2190 C2193 1.386 . S
H2191 C2207 0.930 . S
H2192 C2208 0.931 . S
C2193 H2181 0.929 . S
C2193 C2187 1.390 . S
C2193 C2190 1.386 . S
C2194 C2189 1.490 . S
C2194 C2196 1.395 . S
C2194 C2197 1.403 . S
H2195 C2201 0.930 . S
C2196 H2182 0.930 . S
C2196 C2194 1.395 . S
C2196 C2199 1.403 . S
C2197 C2194 1.403 . S
C2197 C2198 1.524 . S
C2197 C2201 1.400 . S
C2198 H2183 0.960 . S
C2198 H2184 0.960 . S
C2198 H2185 0.960 . S
C2198 C2197 1.524 . S
C2199 C2196 1.403 . S
C2199 C2200 1.392 . S
C2199 C2203 1.495 . S
C2200 C2199 1.392 . S
C2200 C2201 1.385 . S
C2200 C2202 1.478 . S
C2201 H2195 0.930 . S
C2201 C2197 1.400 . S
C2201 C2200 1.385 . S
C2202 C2200 1.478 . S
C2202 C2204 1.381 . S
C2202 C2208 1.383 . S
C2203 C2199 1.495 . S
C2203 H2209 0.959 . S
C2203 H2210 0.961 . S
C2203 H2211 0.960 . S
C2204 C2202 1.381 . S
C2204 C2205 1.394 . S
C2204 H2212 0.930 . S
C2205 C2204 1.394 . S
C2205 C2206 1.383 . S
C2205 H2213 0.929 . S
C2206 C2205 1.383 . S
C2206 C2207 1.377 . S
C2207 H2191 0.930 . S
C2207 C2206 1.377 . S
C2207 C2208 1.379 . S
C2208 H2192 0.931 . S
C2208 C2202 1.383 . S
C2208 C2207 1.379 . S
H2209 C2203 0.959 . S
H2210 C2203 0.961 . S
H2211 C2203 0.960 . S
H2212 C2204 0.930 . S
H2213 C2205 0.929 . S
C603 N332 1.802 . S
C622 N2 1.768 . S
C639 N35 1.805 . S
C658 N365 1.771 1_565 S
C675 N299 1.803 1_455 S
C694 N68 1.798 . S
C711 N464 1.804 . S
C730 N101 1.790 . S
C747 N134 1.801 . S
C766 N398 1.770 1_545 S
C783 N431 1.797 1_655 S
C802 N167 1.821 . S
C819 C172 1.752 . S
C838 C469 1.738 . S
C855 C403 1.751 . S
C874 C106 1.741 . S
C891 C436 1.755 . S
C910 C139 1.761 . S
C927 C40 1.755 . S
C946 C337 1.749 . S
C963 C73 1.751 . S
C982 C370 1.737 . S
C999 C7 1.755 . S
C1018 C304 1.759 . S
C1035 N530 1.801 . S
C1054 N200 1.808 . S
C1071 N563 1.793 . S
C1090 N233 1.821 . S
C1107 N497 1.796 . S
C1126 N266 1.792 . S
C1143 C238 1.752 . S
C1162 C535 1.743 . S
C1179 C568 1.752 . S
C1198 C271 1.747 . S
C1215 C205 1.751 . S
C1234 C502 1.737 . S
C1251 C21 1.251 . S
C1270 C582 1.240 . S
C1287 C54 1.251 . S
C1306 C516 1.238 . S
C1323 C87 1.254 . S
C1342 C549 1.263 . S
C1359 C252 1.251 . S
C1378 C120 1.240 . S
C1395 C153 1.252 . S
C1414 C285 1.238 . S
C1431 C186 1.255 . S
C1450 C219 1.249 . S
C1467 C318 1.253 . S
C1486 C450 1.260 . S
C1503 C351 1.251 . S
C1522 C483 1.239 . S
C1539 C384 1.255 . S
C1558 C417 1.263 . S
C1575 N79 1.315 . S
C1594 C18 1.322 . S
C1611 C51 1.321 . S
C1630 N13 1.327 . S
C1647 N46 1.306 . S
C1666 C84 1.303 . S
C1683 N145 1.306 . S
C1702 C117 1.305 . S
C1719 C150 1.322 . S
C1738 N178 1.283 . S
C1755 N112 1.315 . S
C1774 C183 1.330 . S
C1791 C216 1.325 . S
C1810 N277 1.289 . S
C1827 N211 1.306 . S
C1846 C249 1.309 . S
C1863 C282 1.319 . S
C1882 N244 1.290 . S
C1899 C315 1.319 . S
C1918 N343 1.305 . S
C1935 N376 1.305 . S
C1954 C348 1.316 . S
C1971 C381 1.319 . S
C1990 N310 1.297 . S
C2007 C414 1.326 . S
C2026 N475 1.308 . S
C2043 N409 1.312 . S
C2062 C447 1.339 . S
C2079 C480 1.322 . S
C2098 N442 1.283 . S
C2115 C513 1.323 . S
C2134 N541 1.284 . S
C2151 N574 1.315 . S
C2170 C546 1.333 . S
C2187 N508 1.306 . S
C2206 C579 1.326 . S
