# Generated by pormake.
# Topology wgp, (5)-cn, num edge types: 1
# Building blocks:
#     Node 0, Type 0, BuildingBlock: XOMCOT_clean_sbu_0, # of connection points: 5
#     Node 1, Type 0, BuildingBlock: XOMCOT_clean_sbu_0, # of connection points: 5
#     Node 2, Type 0, BuildingBlock: XOMCOT_clean_sbu_0, # of connection points: 5
#     Node 3, Type 0, BuildingBlock: XOMCOT_clean_sbu_0, # of connection points: 5
#     Node 4, Type 0, BuildingBlock: XOMCOT_clean_sbu_0, # of connection points: 5
#     Node 5, Type 0, BuildingBlock: XOMCOT_clean_sbu_0, # of connection points: 5
#     Node 6, Type 0, BuildingBlock: XOMCOT_clean_sbu_0, # of connection points: 5
#     Node 7, Type 0, BuildingBlock: XOMCOT_clean_sbu_0, # of connection points: 5
#     Node 8, Type 0, BuildingBlock: XOMCOT_clean_sbu_0, # of connection points: 5
#     Node 9, Type 0, BuildingBlock: XOMCOT_clean_sbu_0, # of connection points: 5
#     Node 10, Type 0, BuildingBlock: XOMCOT_clean_sbu_0, # of connection points: 5
#     Node 11, Type 0, BuildingBlock: XOMCOT_clean_sbu_0, # of connection points: 5
#     Node 12, Type 0, BuildingBlock: XOMCOT_clean_sbu_0, # of connection points: 5
#     Node 13, Type 0, BuildingBlock: XOMCOT_clean_sbu_0, # of connection points: 5
#     Node 14, Type 0, BuildingBlock: XOMCOT_clean_sbu_0, # of connection points: 5
#     Node 15, Type 0, BuildingBlock: XOMCOT_clean_sbu_0, # of connection points: 5
#     Node 16, Type 0, BuildingBlock: XOMCOT_clean_sbu_0, # of connection points: 5
#     Node 17, Type 0, BuildingBlock: XOMCOT_clean_sbu_0, # of connection points: 5
#     Node 18, Type 0, BuildingBlock: XOMCOT_clean_sbu_0, # of connection points: 5
#     Node 19, Type 0, BuildingBlock: XOMCOT_clean_sbu_0, # of connection points: 5
#     Node 20, Type 0, BuildingBlock: XOMCOT_clean_sbu_0, # of connection points: 5
#     Node 21, Type 0, BuildingBlock: XOMCOT_clean_sbu_0, # of connection points: 5
#     Node 22, Type 0, BuildingBlock: XOMCOT_clean_sbu_0, # of connection points: 5
#     Node 23, Type 0, BuildingBlock: XOMCOT_clean_sbu_0, # of connection points: 5
#     Node 24, Type 0, BuildingBlock: XOMCOT_clean_sbu_0, # of connection points: 5
#     Node 25, Type 0, BuildingBlock: XOMCOT_clean_sbu_0, # of connection points: 5
#     Node 26, Type 0, BuildingBlock: XOMCOT_clean_sbu_0, # of connection points: 5
#     Node 27, Type 0, BuildingBlock: XOMCOT_clean_sbu_0, # of connection points: 5
#     Node 28, Type 0, BuildingBlock: XOMCOT_clean_sbu_0, # of connection points: 5
#     Node 29, Type 0, BuildingBlock: XOMCOT_clean_sbu_0, # of connection points: 5
#     Node 30, Type 0, BuildingBlock: XOMCOT_clean_sbu_0, # of connection points: 5
#     Node 31, Type 0, BuildingBlock: XOMCOT_clean_sbu_0, # of connection points: 5
#     Edge 32, Type (0, 0), BuildingBlock: ZUJKAS_clean_linker_0, # of connection points: 2
#     Edge 33, Type (0, 0), BuildingBlock: ZUJKAS_clean_linker_0, # of connection points: 2
#     Edge 34, Type (0, 0), BuildingBlock: ZUJKAS_clean_linker_0, # of connection points: 2
#     Edge 35, Type (0, 0), BuildingBlock: ZUJKAS_clean_linker_0, # of connection points: 2
#     Edge 36, Type (0, 0), BuildingBlock: ZUJKAS_clean_linker_0, # of connection points: 2
#     Edge 37, Type (0, 0), BuildingBlock: ZUJKAS_clean_linker_0, # of connection points: 2
#     Edge 38, Type (0, 0), BuildingBlock: ZUJKAS_clean_linker_0, # of connection points: 2
#     Edge 39, Type (0, 0), BuildingBlock: ZUJKAS_clean_linker_0, # of connection points: 2
#     Edge 40, Type (0, 0), BuildingBlock: ZUJKAS_clean_linker_0, # of connection points: 2
#     Edge 41, Type (0, 0), BuildingBlock: ZUJKAS_clean_linker_0, # of connection points: 2
#     Edge 42, Type (0, 0), BuildingBlock: ZUJKAS_clean_linker_0, # of connection points: 2
#     Edge 43, Type (0, 0), BuildingBlock: ZUJKAS_clean_linker_0, # of connection points: 2
#     Edge 44, Type (0, 0), BuildingBlock: ZUJKAS_clean_linker_0, # of connection points: 2
#     Edge 45, Type (0, 0), BuildingBlock: ZUJKAS_clean_linker_0, # of connection points: 2
#     Edge 46, Type (0, 0), BuildingBlock: ZUJKAS_clean_linker_0, # of connection points: 2
#     Edge 47, Type (0, 0), BuildingBlock: ZUJKAS_clean_linker_0, # of connection points: 2
#     Edge 48, Type (0, 0), BuildingBlock: ZUJKAS_clean_linker_0, # of connection points: 2
#     Edge 49, Type (0, 0), BuildingBlock: ZUJKAS_clean_linker_0, # of connection points: 2
#     Edge 50, Type (0, 0), BuildingBlock: ZUJKAS_clean_linker_0, # of connection points: 2
#     Edge 51, Type (0, 0), BuildingBlock: ZUJKAS_clean_linker_0, # of connection points: 2
#     Edge 52, Type (0, 0), BuildingBlock: ZUJKAS_clean_linker_0, # of connection points: 2
#     Edge 53, Type (0, 0), BuildingBlock: ZUJKAS_clean_linker_0, # of connection points: 2
#     Edge 54, Type (0, 0), BuildingBlock: ZUJKAS_clean_linker_0, # of connection points: 2
#     Edge 55, Type (0, 0), BuildingBlock: ZUJKAS_clean_linker_0, # of connection points: 2
#     Edge 56, Type (0, 0), BuildingBlock: ZUJKAS_clean_linker_0, # of connection points: 2
#     Edge 57, Type (0, 0), BuildingBlock: ZUJKAS_clean_linker_0, # of connection points: 2
#     Edge 58, Type (0, 0), BuildingBlock: ZUJKAS_clean_linker_0, # of connection points: 2
#     Edge 59, Type (0, 0), BuildingBlock: ZUJKAS_clean_linker_0, # of connection points: 2
#     Edge 60, Type (0, 0), BuildingBlock: ZUJKAS_clean_linker_0, # of connection points: 2
#     Edge 61, Type (0, 0), BuildingBlock: ZUJKAS_clean_linker_0, # of connection points: 2
#     Edge 62, Type (0, 0), BuildingBlock: ZUJKAS_clean_linker_0, # of connection points: 2
#     Edge 63, Type (0, 0), BuildingBlock: ZUJKAS_clean_linker_0, # of connection points: 2
#     Edge 64, Type (0, 0), BuildingBlock: ZUJKAS_clean_linker_0, # of connection points: 2
#     Edge 65, Type (0, 0), BuildingBlock: ZUJKAS_clean_linker_0, # of connection points: 2
#     Edge 66, Type (0, 0), BuildingBlock: ZUJKAS_clean_linker_0, # of connection points: 2
#     Edge 67, Type (0, 0), BuildingBlock: ZUJKAS_clean_linker_0, # of connection points: 2
#     Edge 68, Type (0, 0), BuildingBlock: ZUJKAS_clean_linker_0, # of connection points: 2
#     Edge 69, Type (0, 0), BuildingBlock: ZUJKAS_clean_linker_0, # of connection points: 2
#     Edge 70, Type (0, 0), BuildingBlock: ZUJKAS_clean_linker_0, # of connection points: 2
#     Edge 71, Type (0, 0), BuildingBlock: ZUJKAS_clean_linker_0, # of connection points: 2
#     Edge 72, Type (0, 0), BuildingBlock: ZUJKAS_clean_linker_0, # of connection points: 2
#     Edge 73, Type (0, 0), BuildingBlock: ZUJKAS_clean_linker_0, # of connection points: 2
#     Edge 74, Type (0, 0), BuildingBlock: ZUJKAS_clean_linker_0, # of connection points: 2
#     Edge 75, Type (0, 0), BuildingBlock: ZUJKAS_clean_linker_0, # of connection points: 2
#     Edge 76, Type (0, 0), BuildingBlock: ZUJKAS_clean_linker_0, # of connection points: 2
#     Edge 77, Type (0, 0), BuildingBlock: ZUJKAS_clean_linker_0, # of connection points: 2
#     Edge 78, Type (0, 0), BuildingBlock: ZUJKAS_clean_linker_0, # of connection points: 2
#     Edge 79, Type (0, 0), BuildingBlock: ZUJKAS_clean_linker_0, # of connection points: 2
#     Edge 80, Type (0, 0), BuildingBlock: ZUJKAS_clean_linker_0, # of connection points: 2
#     Edge 81, Type (0, 0), BuildingBlock: ZUJKAS_clean_linker_0, # of connection points: 2
#     Edge 82, Type (0, 0), BuildingBlock: ZUJKAS_clean_linker_0, # of connection points: 2
#     Edge 83, Type (0, 0), BuildingBlock: ZUJKAS_clean_linker_0, # of connection points: 2
#     Edge 84, Type (0, 0), BuildingBlock: ZUJKAS_clean_linker_0, # of connection points: 2
#     Edge 85, Type (0, 0), BuildingBlock: ZUJKAS_clean_linker_0, # of connection points: 2
#     Edge 86, Type (0, 0), BuildingBlock: ZUJKAS_clean_linker_0, # of connection points: 2
#     Edge 87, Type (0, 0), BuildingBlock: ZUJKAS_clean_linker_0, # of connection points: 2
#     Edge 88, Type (0, 0), BuildingBlock: ZUJKAS_clean_linker_0, # of connection points: 2
#     Edge 89, Type (0, 0), BuildingBlock: ZUJKAS_clean_linker_0, # of connection points: 2
#     Edge 90, Type (0, 0), BuildingBlock: ZUJKAS_clean_linker_0, # of connection points: 2
#     Edge 91, Type (0, 0), BuildingBlock: ZUJKAS_clean_linker_0, # of connection points: 2
#     Edge 92, Type (0, 0), BuildingBlock: ZUJKAS_clean_linker_0, # of connection points: 2
#     Edge 93, Type (0, 0), BuildingBlock: ZUJKAS_clean_linker_0, # of connection points: 2
#     Edge 94, Type (0, 0), BuildingBlock: ZUJKAS_clean_linker_0, # of connection points: 2
#     Edge 95, Type (0, 0), BuildingBlock: ZUJKAS_clean_linker_0, # of connection points: 2
#     Edge 96, Type (0, 0), BuildingBlock: ZUJKAS_clean_linker_0, # of connection points: 2
#     Edge 97, Type (0, 0), BuildingBlock: ZUJKAS_clean_linker_0, # of connection points: 2
#     Edge 98, Type (0, 0), BuildingBlock: ZUJKAS_clean_linker_0, # of connection points: 2
#     Edge 99, Type (0, 0), BuildingBlock: ZUJKAS_clean_linker_0, # of connection points: 2
#     Edge 100, Type (0, 0), BuildingBlock: ZUJKAS_clean_linker_0, # of connection points: 2
#     Edge 101, Type (0, 0), BuildingBlock: ZUJKAS_clean_linker_0, # of connection points: 2
#     Edge 102, Type (0, 0), BuildingBlock: ZUJKAS_clean_linker_0, # of connection points: 2
#     Edge 103, Type (0, 0), BuildingBlock: ZUJKAS_clean_linker_0, # of connection points: 2
#     Edge 104, Type (0, 0), BuildingBlock: ZUJKAS_clean_linker_0, # of connection points: 2
#     Edge 105, Type (0, 0), BuildingBlock: ZUJKAS_clean_linker_0, # of connection points: 2
#     Edge 106, Type (0, 0), BuildingBlock: ZUJKAS_clean_linker_0, # of connection points: 2
#     Edge 107, Type (0, 0), BuildingBlock: ZUJKAS_clean_linker_0, # of connection points: 2
#     Edge 108, Type (0, 0), BuildingBlock: ZUJKAS_clean_linker_0, # of connection points: 2
#     Edge 109, Type (0, 0), BuildingBlock: ZUJKAS_clean_linker_0, # of connection points: 2
#     Edge 110, Type (0, 0), BuildingBlock: ZUJKAS_clean_linker_0, # of connection points: 2
#     Edge 111, Type (0, 0), BuildingBlock: ZUJKAS_clean_linker_0, # of connection points: 2
# Relax obj value: 0.152
# Max RMSD: 0.190
# Mean RMSD: 0.190
data_MOF--net-wgp--node1-XOMCOT_clean_sbu_0--edge1-ZUJKAS_clean_linker_0
_symmetry_space_group_name_H-M    P1
_symmetry_Int_Tables_number       1
_symmetry_cell_setting            triclinic
loop_
_symmetry_equiv_pos_as_xyz
'x, y, z'
_cell_length_a     43.406411
_cell_length_b     43.423998
_cell_length_c     148.59916
_cell_angle_alpha  90.004826
_cell_angle_beta   89.994588
_cell_angle_gamma 90.006783
loop_
_atom_site_label
_atom_site_type_symbol
_atom_site_fract_x
_atom_site_fract_y
_atom_site_fract_z
_atom_type_partial_charge
Co0 Co 0.28516 0.17407 0.08 0.0
C1 C 0.28885 0.10692 0.07987 0.0
C2 C 0.3291 0.12635 0.08605 0.0
C3 C 0.33046 0.09467 0.08682 0.0
N4 N 0.30298 0.13383 0.08168 0.0
N5 N 0.30493 0.08262 0.08301 0.0
H6 H 0.26669 0.10528 0.07658 0.0
H7 H 0.34524 0.1427 0.08885 0.0
C8 C 0.33845 0.21463 0.07486 0.0
O9 O 0.32063 0.22764 0.0688 0.0
N10 N 0.26626 0.21442 0.0785 0.0
C11 C 0.23887 0.22041 0.07456 0.0
C12 C 0.2312 0.25059 0.076 0.0
C13 C 0.27438 0.24121 0.08253 0.0
N14 N 0.25345 0.26368 0.081 0.0
C15 C 0.25778 0.16038 0.06289 0.0
C16 C 0.31149 0.15784 0.05298 0.0
C17 C 0.28322 0.15455 0.04852 0.0
C18 C 0.25618 0.15519 0.05365 0.0
C19 C 0.31197 0.16296 0.06228 0.0
N20 N 0.28519 0.16644 0.06703 0.0
H21 H 0.23677 0.15885 0.0667 0.0
H22 H 0.334 0.1635 0.06563 0.0
H23 H 0.22414 0.20397 0.07129 0.0
H24 H 0.29455 0.24392 0.08674 0.0
O25 O 0.24521 0.1573 0.08289 0.0
O26 O 0.27784 0.17666 0.09285 0.0
O27 O 0.32794 0.19281 0.07977 0.0
C28 C 0.25151 0.16336 0.09124 0.0
H29 H 0.34802 0.08168 0.09033 0.0
H30 H 0.21051 0.26195 0.07365 0.0
H31 H 0.33306 0.15593 0.04936 0.0
H32 H 0.23379 0.152 0.05058 0.0
Co33 Co 0.07511 0.03446 0.32894 0.0
C34 C 0.14155 0.04529 0.32786 0.0
C35 C 0.11877 0.08352 0.33414 0.0
C36 C 0.15017 0.08822 0.33455 0.0
N37 N 0.11352 0.05657 0.32994 0.0
N38 N 0.16449 0.06398 0.33066 0.0
H39 H 0.14497 0.02285 0.32486 0.0
H40 H 0.10118 0.098 0.33707 0.0
C41 C 0.0326 0.08564 0.32286 0.0
O42 O 0.02263 0.06806 0.31627 0.0
N43 N 0.03661 0.01104 0.32811 0.0
C44 C 0.03474 0.98034 0.32667 0.0
C45 C 0.0045 0.97156 0.32644 0.0
C46 C 0.00694 0.02001 0.32934 0.0
N47 N 0.98701 0.99647 0.32804 0.0
C48 C 0.0827 0.00542 0.31175 0.0
C49 C 0.08911 0.05849 0.30169 0.0
C50 C 0.0881 0.02998 0.29725 0.0
C51 C 0.08581 0.00322 0.30246 0.0
C52 C 0.086 0.05959 0.31107 0.0
N53 N 0.08075 0.03333 0.31592 0.0
H54 H 0.0826 0.98448 0.31558 0.0
H55 H 0.08748 0.08164 0.31441 0.0
H56 H 0.05394 0.96472 0.32605 0.0
H57 H 0.99984 0.04303 0.33114 0.0
O58 O 0.0968 0.99716 0.33199 0.0
O59 O 0.07496 0.02857 0.34187 0.0
O60 O 0.05245 0.07528 0.32846 0.0
C61 C 0.09108 0.00378 0.34035 0.0
H62 H 0.16147 0.10758 0.33773 0.0
H63 H 0.99594 0.94844 0.32534 0.0
H64 H 0.09174 0.07976 0.29796 0.0
H65 H 0.08679 0.98062 0.29939 0.0
Co66 Co 0.21978 0.82726 0.57956 0.0
C67 C 0.21251 0.89393 0.57736 0.0
C68 C 0.17146 0.87361 0.5828 0.0
C69 C 0.16787 0.90512 0.58266 0.0
N70 N 0.19947 0.86674 0.57948 0.0
N71 N 0.19384 0.91789 0.5793 0.0
H72 H 0.23593 0.89613 0.57496 0.0
H73 H 0.15533 0.85708 0.58552 0.0
C74 C 0.16715 0.78693 0.57321 0.0
O75 O 0.18492 0.77514 0.56693 0.0
N76 N 0.24106 0.78757 0.57994 0.0
C77 C 0.27202 0.78375 0.57995 0.0
C78 C 0.27892 0.75333 0.58124 0.0
C79 C 0.22972 0.75902 0.58156 0.0
N80 N 0.25238 0.73781 0.58222 0.0
C81 C 0.25238 0.82772 0.56274 0.0
C82 C 0.20203 0.83963 0.55191 0.0
C83 C 0.23108 0.83613 0.54791 0.0
C84 C 0.25648 0.83048 0.55347 0.0
C85 C 0.19901 0.837 0.56125 0.0
N86 N 0.2238 0.82972 0.56652 0.0
H87 H 0.27246 0.82477 0.56687 0.0
H88 H 0.17667 0.8409 0.56424 0.0
H89 H 0.28895 0.80185 0.57935 0.0
H90 H 0.20571 0.75375 0.58265 0.0
O91 O 0.25771 0.84749 0.58287 0.0
O92 O 0.22287 0.82994 0.59254 0.0
O93 O 0.17798 0.80664 0.57877 0.0
C94 C 0.24906 0.84383 0.59118 0.0
H95 H 0.14799 0.91761 0.5851 0.0
H96 H 0.30176 0.74332 0.58141 0.0
H97 H 0.18194 0.84495 0.54788 0.0
H98 H 0.27942 0.82807 0.55069 0.0
Co99 Co 0.42015 0.96361 0.82959 0.0
C100 C 0.35208 0.96018 0.83163 0.0
C101 C 0.37479 0.92342 0.83853 0.0
C102 C 0.34389 0.92237 0.84061 0.0
N103 N 0.37992 0.94666 0.83267 0.0
N104 N 0.32967 0.9456 0.83627 0.0
H105 H 0.34852 0.98193 0.82832 0.0
H106 H 0.39253 0.90921 0.8415 0.0
C107 C 0.42632 0.89681 0.82591 0.0
O108 O 0.40012 0.89976 0.82156 0.0
N109 N 0.45974 0.98146 0.82682 0.0
C110 C 0.4637 0.0059 0.82137 0.0
C111 C 0.4945 0.01258 0.82088 0.0
C112 C 0.48821 0.97374 0.82971 0.0
N113 N 0.50997 0.9924 0.8261 0.0
C114 C 0.38996 0.97965 0.81292 0.0
C115 C 0.43016 0.9482 0.80182 0.0
C116 C 0.40694 0.96615 0.7979 0.0
C117 C 0.38655 0.98186 0.80359 0.0
C118 C 0.43279 0.94672 0.81116 0.0
N119 N 0.41227 0.96154 0.81665 0.0
H120 H 0.37598 0.99434 0.81705 0.0
H121 H 0.45235 0.93471 0.81395 0.0
H122 H 0.44533 0.01813 0.818 0.0
H123 H 0.49288 0.95492 0.83429 0.0
O124 O 0.40442 0.00434 0.83191 0.0
O125 O 0.42538 0.97387 0.84219 0.0
O126 O 0.43859 0.9205 0.82962 0.0
C127 C 0.41187 0.99988 0.84028 0.0
H128 H 0.33301 0.90637 0.8452 0.0
H129 H 0.50468 0.03139 0.81714 0.0
H130 H 0.44673 0.93597 0.7977 0.0
H131 H 0.36914 0.99712 0.80088 0.0
Co132 Co 0.28784 0.82439 0.42042 0.0
C133 C 0.2947 0.89058 0.42317 0.0
C134 C 0.33492 0.8719 0.41679 0.0
C135 C 0.33741 0.9036 0.41694 0.0
N136 N 0.30807 0.86392 0.42069 0.0
N137 N 0.31185 0.91521 0.42085 0.0
H138 H 0.272 0.89196 0.42615 0.0
H139 H 0.35054 0.85607 0.41352 0.0
C140 C 0.34065 0.78309 0.42585 0.0
O141 O 0.32311 0.77067 0.43208 0.0
N142 N 0.26637 0.78477 0.41986 0.0
C143 C 0.23542 0.78112 0.42016 0.0
C144 C 0.22814 0.75089 0.41868 0.0
C145 C 0.27728 0.75634 0.41783 0.0
N146 N 0.25441 0.73531 0.41724 0.0
C147 C 0.25723 0.82299 0.43753 0.0
C148 C 0.30871 0.8336 0.44801 0.0
C149 C 0.28014 0.82935 0.45226 0.0
C150 C 0.25415 0.82449 0.44685 0.0
C151 C 0.31072 0.83207 0.43862 0.0
N152 N 0.28537 0.8254 0.43351 0.0
H153 H 0.23667 0.82084 0.43356 0.0
H154 H 0.33274 0.83623 0.43545 0.0
H155 H 0.2187 0.79923 0.42111 0.0
H156 H 0.30109 0.75109 0.41641 0.0
O157 O 0.24973 0.84524 0.41771 0.0
O158 O 0.28298 0.8284 0.4075 0.0
O159 O 0.3297 0.80369 0.4206 0.0
C160 C 0.25724 0.84264 0.40927 0.0
H161 H 0.35544 0.91707 0.41381 0.0
H162 H 0.20521 0.74106 0.41869 0.0
H163 H 0.3294 0.83787 0.45188 0.0
H164 H 0.23136 0.8226 0.44977 0.0
Co165 Co 0.42258 0.03918 0.67123 0.0
C166 C 0.35456 0.04079 0.66966 0.0
C167 C 0.37474 0.08239 0.66472 0.0
C168 C 0.34357 0.08314 0.66296 0.0
N169 N 0.38158 0.0562 0.66921 0.0
N170 N 0.33106 0.05679 0.66602 0.0
H171 H 0.35222 0.01743 0.67198 0.0
H172 H 0.39143 0.09895 0.66233 0.0
C173 C 0.42913 0.10455 0.67695 0.0
O174 O 0.40413 0.10008 0.68177 0.0
N175 N 0.46278 0.02124 0.67298 0.0
C176 C 0.46749 0.99429 0.67726 0.0
C177 C 0.49852 0.98889 0.67775 0.0
C178 C 0.49108 0.03185 0.67082 0.0
N179 N 0.51336 0.01246 0.67374 0.0
C180 C 0.39419 0.01705 0.68755 0.0
C181 C 0.43499 0.04495 0.69926 0.0
C182 C 0.41156 0.02632 0.70279 0.0
C183 C 0.39104 0.01224 0.69679 0.0
C184 C 0.43732 0.0491 0.68997 0.0
N185 N 0.41636 0.03619 0.68422 0.0
H186 H 0.37985 0.00386 0.68311 0.0
H187 H 0.45667 0.06202 0.6874 0.0
H188 H 0.44948 0.97976 0.67995 0.0
H189 H 0.4953 0.05343 0.66739 0.0
O190 O 0.4075 0.99909 0.66774 0.0
O191 O 0.42615 0.03421 0.65834 0.0
O192 O 0.44035 0.08233 0.67232 0.0
C193 C 0.41373 0.00719 0.65952 0.0
H194 H 0.33145 0.10071 0.6592 0.0
H195 H 0.50937 0.96898 0.68078 0.0
H196 H 0.4517 0.05595 0.70362 0.0
H197 H 0.37349 0.99649 0.69918 0.0
Co198 Co 0.22283 0.1726 0.92151 0.0
C199 C 0.2167 0.10478 0.91977 0.0
C200 C 0.17815 0.12826 0.91403 0.0
C201 C 0.17538 0.09734 0.91217 0.0
N202 N 0.20364 0.13293 0.91905 0.0
N203 N 0.19977 0.0826 0.91577 0.0
H204 H 0.23955 0.10081 0.92234 0.0
H205 H 0.16343 0.14625 0.91142 0.0
C206 C 0.15728 0.18207 0.92656 0.0
O207 O 0.16011 0.15653 0.93124 0.0
N208 N 0.24271 0.21158 0.92369 0.0
C209 C 0.2694 0.21487 0.9282 0.0
C210 C 0.27631 0.24561 0.92876 0.0
C211 C 0.23374 0.24035 0.92147 0.0
N212 N 0.25391 0.26164 0.92456 0.0
C213 C 0.24171 0.1424 0.93791 0.0
C214 C 0.21464 0.18404 0.94952 0.0
C215 C 0.23219 0.15992 0.95313 0.0
C216 C 0.24581 0.13893 0.94717 0.0
C217 C 0.21131 0.18675 0.94022 0.0
N218 N 0.2238 0.16545 0.9345 0.0
H219 H 0.25463 0.12762 0.93352 0.0
H220 H 0.19949 0.20673 0.93762 0.0
H221 H 0.28278 0.19612 0.93097 0.0
H222 H 0.21278 0.24559 0.91783 0.0
O223 O 0.26231 0.15524 0.91841 0.0
O224 O 0.2301 0.17682 0.90871 0.0
O225 O 0.18055 0.19268 0.92224 0.0
C226 C 0.25608 0.16258 0.91012 0.0
H227 H 0.15738 0.08682 0.90818 0.0
H228 H 0.2965 0.2554 0.93194 0.0
H229 H 0.20395 0.20108 0.95383 0.0
H230 H 0.26074 0.12077 0.9496 0.0
Co231 Co 0.08066 0.96501 0.17047 0.0
C232 C 0.14884 0.96189 0.16876 0.0
C233 C 0.12696 0.92335 0.16249 0.0
C234 C 0.15803 0.92213 0.16063 0.0
N235 N 0.1212 0.94787 0.16783 0.0
N236 N 0.17173 0.94646 0.16458 0.0
H237 H 0.15199 0.98443 0.17162 0.0
H238 H 0.10958 0.90828 0.15971 0.0
C239 C 0.07435 0.89873 0.17506 0.0
O240 O 0.09995 0.90232 0.17967 0.0
N241 N 0.04079 0.98298 0.17281 0.0
C242 C 0.03639 0.00818 0.17793 0.0
C243 C 0.00556 0.01486 0.17814 0.0
C244 C 0.01255 0.97481 0.16982 0.0
N245 N 0.99052 0.99393 0.17307 0.0
C246 C 0.11016 0.9845 0.18689 0.0
C247 C 0.06993 0.95511 0.19846 0.0
C248 C 0.09304 0.97393 0.20208 0.0
C249 C 0.11343 0.98856 0.19616 0.0
C250 C 0.06756 0.95159 0.18914 0.0
N251 N 0.08809 0.96546 0.18344 0.0
H252 H 0.12405 0.99852 0.18255 0.0
H253 H 0.04822 0.9388 0.18652 0.0
H254 H 0.0545 0.02097 0.18125 0.0
H255 H 0.00824 0.95539 0.16544 0.0
O256 O 0.09604 0.00545 0.16756 0.0
O257 O 0.07588 0.97276 0.15772 0.0
O258 O 0.06249 0.92187 0.17097 0.0
C259 C 0.08888 0.99931 0.15926 0.0
H260 H 0.16939 0.90519 0.15644 0.0
H261 H 0.99508 0.03417 0.18158 0.0
H262 H 0.05332 0.94376 0.20276 0.0
H263 H 0.13074 0.00441 0.19864 0.0
Co264 Co 0.72028 0.82843 0.92076 0.0
C265 C 0.71819 0.8962 0.91881 0.0
C266 C 0.67701 0.87538 0.9138 0.0
C267 C 0.67628 0.90631 0.91174 0.0
N268 N 0.7029 0.8691 0.91851 0.0
N269 N 0.70241 0.91919 0.91483 0.0
H270 H 0.74143 0.89887 0.92123 0.0
H271 H 0.66076 0.85839 0.9114 0.0
C272 C 0.65445 0.82103 0.92592 0.0
O273 O 0.65822 0.84595 0.93082 0.0
N274 N 0.73854 0.78854 0.92272 0.0
C275 C 0.76508 0.78415 0.92723 0.0
C276 C 0.77121 0.75325 0.92756 0.0
C277 C 0.72888 0.76021 0.92026 0.0
N278 N 0.74848 0.73815 0.92322 0.0
C279 C 0.73998 0.85753 0.93726 0.0
C280 C 0.71259 0.81557 0.94872 0.0
C281 C 0.73056 0.83923 0.95241 0.0
C282 C 0.74429 0.86042 0.94654 0.0
C283 C 0.70896 0.81348 0.93941 0.0
N284 N 0.72177 0.83485 0.93377 0.0
H285 H 0.75285 0.87251 0.93292 0.0
H286 H 0.69661 0.79394 0.93672 0.0
H287 H 0.77897 0.8023 0.93013 0.0
H288 H 0.70793 0.75583 0.91653 0.0
O289 O 0.76059 0.84393 0.91763 0.0
O290 O 0.72675 0.82473 0.90793 0.0
O291 O 0.67725 0.81011 0.92147 0.0
C292 C 0.7535 0.83745 0.90935 0.0
H293 H 0.65902 0.91794 0.90773 0.0
H294 H 0.79118 0.74272 0.93065 0.0
H295 H 0.70174 0.79845 0.95297 0.0
H296 H 0.75942 0.8783 0.94904 0.0
Co297 Co 0.92329 0.96561 0.67085 0.0
C298 C 0.85629 0.96281 0.6723 0.0
C299 C 0.87417 0.9207 0.66684 0.0
C300 C 0.84242 0.91993 0.66634 0.0
N301 N 0.8827 0.94764 0.67057 0.0
N302 N 0.83131 0.94664 0.66968 0.0
H303 H 0.85554 0.98593 0.675 0.0
H304 H 0.88987 0.90373 0.66412 0.0
C305 C 0.96305 0.91269 0.67708 0.0
O306 O 0.97676 0.93115 0.68284 0.0
N307 N 0.96396 0.98472 0.67089 0.0
C308 C 0.96957 0.01496 0.67231 0.0
C309 C 0.99978 0.02123 0.67042 0.0
C310 C 0.9911 0.97325 0.66786 0.0
N311 N 0.01329 0.99508 0.66765 0.0
C312 C 0.91674 0.99941 0.68732 0.0
C313 C 0.9112 0.94943 0.69868 0.0
C314 C 0.9113 0.97916 0.7024 0.0
C315 C 0.91329 0.0043 0.69652 0.0
C316 C 0.91432 0.94563 0.68936 0.0
N317 N 0.9191 0.97041 0.68386 0.0
H318 H 0.91636 0.01918 0.68298 0.0
H319 H 0.91257 0.92271 0.68661 0.0
H320 H 0.95271 0.03219 0.67399 0.0
H321 H 0.99431 0.94997 0.66546 0.0
O322 O 0.90582 0.00442 0.66713 0.0
O323 O 0.92259 0.96806 0.65785 0.0
O324 O 0.94171 0.92296 0.67197 0.0
C325 C 0.90988 0.99497 0.65892 0.0
H326 H 0.82874 0.90207 0.66321 0.0
H327 H 0.0109 0.04349 0.6709 0.0
H328 H 0.9089 0.92923 0.70289 0.0
H329 H 0.91153 0.02772 0.69897 0.0
Co330 Co 0.79078 0.17309 0.42101 0.0
C331 C 0.79939 0.10685 0.42358 0.0
C332 C 0.83832 0.12691 0.41687 0.0
C333 C 0.84145 0.0953 0.41676 0.0
N334 N 0.81187 0.134 0.42112 0.0
N335 N 0.81676 0.08276 0.42091 0.0
H336 H 0.77675 0.10475 0.42657 0.0
H337 H 0.85319 0.14334 0.41355 0.0
C338 C 0.84268 0.21526 0.42663 0.0
O339 O 0.82483 0.22744 0.43283 0.0
N340 N 0.76857 0.21229 0.42058 0.0
C341 C 0.73754 0.21526 0.42086 0.0
C342 C 0.72955 0.24507 0.41903 0.0
C343 C 0.77885 0.24071 0.41827 0.0
N344 N 0.75546 0.26104 0.41743 0.0
C345 C 0.75981 0.17297 0.43804 0.0
C346 C 0.81129 0.16386 0.44864 0.0
C347 C 0.7825 0.16748 0.45281 0.0
C348 C 0.75653 0.17147 0.44734 0.0
C349 C 0.81351 0.16541 0.43925 0.0
N350 N 0.78812 0.17144 0.43409 0.0
H351 H 0.73931 0.17447 0.43403 0.0
H352 H 0.83571 0.16184 0.43613 0.0
H353 H 0.7212 0.19684 0.42186 0.0
H354 H 0.80253 0.24628 0.41675 0.0
O355 O 0.75319 0.15163 0.4182 0.0
O356 O 0.78619 0.16967 0.40809 0.0
O357 O 0.83214 0.19458 0.42134 0.0
C358 C 0.7607 0.15489 0.40978 0.0
H359 H 0.85972 0.08257 0.41348 0.0
H360 H 0.70639 0.25431 0.4188 0.0
H361 H 0.83195 0.16014 0.45257 0.0
H362 H 0.73362 0.17278 0.45021 0.0
Co363 Co 0.58043 0.03954 0.17114 0.0
C364 C 0.64866 0.04306 0.16977 0.0
C365 C 0.62709 0.08268 0.16402 0.0
C366 C 0.65824 0.0842 0.16229 0.0
N367 N 0.62107 0.05726 0.16896 0.0
N368 N 0.67175 0.05918 0.16592 0.0
H369 H 0.65165 0.01999 0.17227 0.0
H370 H 0.60986 0.09819 0.16137 0.0
C371 C 0.57302 0.10517 0.17632 0.0
O372 O 0.59801 0.10123 0.18119 0.0
N373 N 0.54053 0.021 0.17302 0.0
C374 C 0.536 0.99505 0.1778 0.0
C375 C 0.50522 0.98813 0.17775 0.0
C376 C 0.51242 0.02941 0.16999 0.0
N377 N 0.49033 0.00968 0.17287 0.0
C378 C 0.60908 0.01923 0.18762 0.0
C379 C 0.56707 0.04642 0.1991 0.0
C380 C 0.59051 0.0281 0.20274 0.0
C381 C 0.61178 0.01455 0.19687 0.0
C382 C 0.56531 0.05063 0.1898 0.0
N383 N 0.58671 0.03787 0.18415 0.0
H384 H 0.6238 0.00611 0.18327 0.0
H385 H 0.54588 0.06317 0.18713 0.0
H386 H 0.55399 0.98195 0.18107 0.0
H387 H 0.50824 0.04946 0.16583 0.0
O388 O 0.59639 0.99954 0.168 0.0
O389 O 0.57684 0.0331 0.1583 0.0
O390 O 0.56189 0.08245 0.17188 0.0
C391 C 0.58992 0.00651 0.15971 0.0
H392 H 0.66978 0.10181 0.1584 0.0
H393 H 0.49468 0.96827 0.18089 0.0
H394 H 0.54982 0.05695 0.20338 0.0
H395 H 0.62943 0.99911 0.19936 0.0
Co396 Co 0.71654 0.17899 0.57954 0.0
C397 C 0.70815 0.11238 0.57788 0.0
C398 C 0.66935 0.13347 0.58439 0.0
C399 C 0.66638 0.10194 0.58502 0.0
N400 N 0.69562 0.13987 0.57995 0.0
N401 N 0.69094 0.08879 0.58098 0.0
H402 H 0.73072 0.10978 0.57488 0.0
H403 H 0.65459 0.15043 0.58752 0.0
C404 C 0.6648 0.2198 0.57298 0.0
O405 O 0.68296 0.23099 0.5667 0.0
N406 N 0.73853 0.21833 0.57945 0.0
C407 C 0.76955 0.22141 0.57919 0.0
C408 C 0.77733 0.25159 0.5805 0.0
C409 C 0.72803 0.24712 0.58122 0.0
N410 N 0.7513 0.26773 0.58175 0.0
C411 C 0.74877 0.17502 0.56273 0.0
C412 C 0.6979 0.16385 0.55204 0.0
C413 C 0.72707 0.16554 0.54802 0.0
C414 C 0.75271 0.17086 0.55351 0.0
C415 C 0.69504 0.16785 0.56134 0.0
N416 N 0.72016 0.17479 0.56652 0.0
H417 H 0.769 0.17752 0.56681 0.0
H418 H 0.67261 0.16515 0.56439 0.0
H419 H 0.78601 0.20292 0.57856 0.0
H420 H 0.70427 0.25287 0.58257 0.0
O421 O 0.75413 0.15849 0.58294 0.0
O422 O 0.71992 0.17785 0.59252 0.0
O423 O 0.6751 0.20009 0.57862 0.0
C424 C 0.74569 0.16312 0.59122 0.0
H425 H 0.64836 0.08971 0.58856 0.0
H426 H 0.80044 0.26097 0.58062 0.0
H427 H 0.6776 0.15885 0.54806 0.0
H428 H 0.77573 0.1719 0.55071 0.0
Co429 Co 0.5746 0.96611 0.32965 0.0
C430 C 0.64073 0.95459 0.32763 0.0
C431 C 0.61863 0.91771 0.33476 0.0
C432 C 0.65007 0.91336 0.33513 0.0
N433 N 0.61291 0.94362 0.33008 0.0
N434 N 0.6639 0.93672 0.3307 0.0
H435 H 0.644 0.97655 0.32431 0.0
H436 H 0.60136 0.90413 0.33819 0.0
C437 C 0.53114 0.91589 0.3237 0.0
O438 O 0.52037 0.93429 0.31742 0.0
N439 N 0.53617 0.98977 0.32956 0.0
C440 C 0.53434 0.02084 0.32906 0.0
C441 C 0.50447 0.02996 0.3303 0.0
C442 C 0.50698 0.98067 0.33146 0.0
N443 N 0.48726 0.00476 0.33177 0.0
C444 C 0.57803 0.99616 0.3125 0.0
C445 C 0.58623 0.94374 0.30224 0.0
C446 C 0.58394 0.97235 0.2979 0.0
C447 C 0.58046 0.9988 0.3032 0.0
C448 C 0.58376 0.94218 0.31162 0.0
N449 N 0.57809 0.96807 0.3166 0.0
H450 H 0.57688 0.01693 0.3164 0.0
H451 H 0.58621 0.92007 0.31488 0.0
H452 H 0.5535 0.03644 0.32825 0.0
H453 H 0.50028 0.95733 0.33302 0.0
O454 O 0.59712 0.00296 0.3326 0.0
O455 O 0.57648 0.97107 0.34259 0.0
O456 O 0.55168 0.92553 0.32919 0.0
C457 C 0.59255 0.99583 0.34099 0.0
H458 H 0.66185 0.89519 0.33874 0.0
H459 H 0.49602 0.05342 0.33017 0.0
H460 H 0.58952 0.92272 0.29844 0.0
H461 H 0.58018 0.02152 0.30019 0.0
Co462 Co 0.78525 0.8297 0.07972 0.0
C463 C 0.7943 0.89618 0.07795 0.0
C464 C 0.83232 0.8752 0.08486 0.0
C465 C 0.83591 0.90674 0.08514 0.0
N466 N 0.8062 0.86875 0.08036 0.0
N467 N 0.81183 0.91986 0.08084 0.0
H468 H 0.77212 0.89872 0.07471 0.0
H469 H 0.84679 0.85833 0.08814 0.0
C470 C 0.83645 0.78739 0.07394 0.0
O471 O 0.81804 0.77599 0.06776 0.0
N472 N 0.76324 0.79046 0.0794 0.0
C473 C 0.73253 0.78701 0.07823 0.0
C474 C 0.72451 0.75699 0.07976 0.0
C475 C 0.77312 0.76226 0.08204 0.0
N476 N 0.74999 0.74142 0.08214 0.0
C477 C 0.75596 0.83446 0.06244 0.0
C478 C 0.80891 0.84354 0.05247 0.0
C479 C 0.78047 0.84241 0.048 0.0
C480 C 0.75377 0.83813 0.05315 0.0
C481 C 0.81003 0.83981 0.06182 0.0
N482 N 0.78386 0.83383 0.06665 0.0
H483 H 0.73498 0.83306 0.06622 0.0
H484 H 0.83198 0.84204 0.06518 0.0
H485 H 0.71626 0.80523 0.07692 0.0
H486 H 0.79626 0.75723 0.08428 0.0
O487 O 0.74722 0.85036 0.08262 0.0
O488 O 0.77963 0.83081 0.09264 0.0
O489 O 0.82666 0.80824 0.07931 0.0
C490 C 0.7541 0.8456 0.09102 0.0
H491 H 0.85424 0.91902 0.08852 0.0
H492 H 0.70153 0.74742 0.07928 0.0
H493 H 0.83004 0.84787 0.0488 0.0
H494 H 0.73122 0.83754 0.05003 0.0
Co495 Co 0.92056 0.03614 0.8295 0.0
C496 C 0.85334 0.0407 0.83032 0.0
C497 C 0.87462 0.08001 0.83649 0.0
C498 C 0.84316 0.082 0.83769 0.0
N499 N 0.88082 0.05411 0.83186 0.0
N500 N 0.82985 0.05716 0.83383 0.0
H501 H 0.85082 0.01848 0.8271 0.0
H502 H 0.89176 0.09571 0.8391 0.0
C503 C 0.96032 0.08904 0.82331 0.0
O504 O 0.97279 0.07081 0.81726 0.0
N505 N 0.96047 0.01723 0.82726 0.0
C506 C 0.96584 0.99147 0.82243 0.0
C507 C 0.99661 0.98469 0.82274 0.0
C508 C 0.9882 0.02499 0.83078 0.0
N509 N 0.01076 0.00581 0.82793 0.0
C510 C 0.90096 0.00653 0.81322 0.0
C511 C 0.90344 0.05734 0.80211 0.0
C512 C 0.89867 0.02822 0.79825 0.0
C513 C 0.89588 0.00289 0.80403 0.0
C514 C 0.90795 0.05993 0.81141 0.0
N515 N 0.9097 0.03427 0.81672 0.0
H516 H 0.89849 0.98659 0.81748 0.0
H517 H 0.91016 0.08266 0.81424 0.0
H518 H 0.9488 0.97746 0.81915 0.0
H519 H 0.99181 0.0444 0.83523 0.0
O520 O 0.90501 0.99646 0.83322 0.0
O521 O 0.92643 0.03072 0.84234 0.0
O522 O 0.93896 0.07893 0.82846 0.0
C523 C 0.9132 0.00405 0.84132 0.0
H524 H 0.83114 0.10007 0.84127 0.0
H525 H 0.00761 0.96505 0.81961 0.0
H526 H 0.90454 0.07789 0.798 0.0
H527 H 0.89021 0.98023 0.80147 0.0
Co528 Co 0.78874 0.6789 0.57972 0.0
C529 C 0.7965 0.61212 0.57863 0.0
C530 C 0.83599 0.6332 0.58476 0.0
C531 C 0.83948 0.60165 0.58509 0.0
N532 N 0.80902 0.63958 0.58071 0.0
N533 N 0.81447 0.58843 0.58128 0.0
H534 H 0.77381 0.60964 0.5757 0.0
H535 H 0.85141 0.65015 0.58761 0.0
C536 C 0.84163 0.71879 0.57339 0.0
O537 O 0.82425 0.72955 0.56686 0.0
N538 N 0.7672 0.7184 0.57891 0.0
C539 C 0.73661 0.72171 0.57747 0.0
C540 C 0.72924 0.75229 0.5773 0.0
C541 C 0.77757 0.74756 0.5802 0.0
N542 N 0.75495 0.76853 0.57894 0.0
C543 C 0.7589 0.67262 0.56257 0.0
C544 C 0.81158 0.66381 0.55247 0.0
C545 C 0.78316 0.66647 0.54804 0.0
C546 C 0.75653 0.66992 0.55326 0.0
C547 C 0.81284 0.66659 0.56184 0.0
N548 N 0.78691 0.67315 0.56671 0.0
H549 H 0.738 0.67363 0.56641 0.0
H550 H 0.83481 0.66391 0.56517 0.0
H551 H 0.72007 0.70329 0.57686 0.0
H552 H 0.8009 0.75353 0.58202 0.0
O553 O 0.75036 0.65934 0.58295 0.0
O554 O 0.78363 0.67943 0.59266 0.0
O555 O 0.83056 0.69956 0.57906 0.0
C556 C 0.75777 0.66498 0.59126 0.0
H557 H 0.85859 0.58949 0.58812 0.0
H558 H 0.70652 0.76194 0.57625 0.0
H559 H 0.83269 0.66023 0.54873 0.0
H560 H 0.7339 0.67023 0.55019 0.0
Co561 Co 0.57693 0.53151 0.82932 0.0
C562 C 0.64407 0.53594 0.82903 0.0
C563 C 0.62419 0.57655 0.83486 0.0
C564 C 0.65584 0.5785 0.83555 0.0
N565 N 0.617 0.54987 0.83075 0.0
N566 N 0.66819 0.55276 0.83195 0.0
H567 H 0.64597 0.51346 0.82594 0.0
H568 H 0.60766 0.59273 0.83756 0.0
C569 C 0.53544 0.5842 0.82408 0.0
O570 O 0.52171 0.56605 0.81825 0.0
N571 N 0.53677 0.51213 0.82806 0.0
C572 C 0.53095 0.48456 0.82421 0.0
C573 C 0.50091 0.47659 0.82578 0.0
C574 C 0.51004 0.52011 0.83215 0.0
N575 N 0.48777 0.49887 0.83075 0.0
C576 C 0.59125 0.50234 0.81251 0.0
C577 C 0.59071 0.5545 0.80191 0.0
C578 C 0.59503 0.52576 0.7978 0.0
C579 C 0.59603 0.49957 0.80328 0.0
C580 C 0.58618 0.5562 0.81123 0.0
N581 N 0.5842 0.53006 0.81633 0.0
H582 H 0.59362 0.48196 0.81657 0.0
H583 H 0.58488 0.57868 0.81428 0.0
H584 H 0.54744 0.47003 0.82089 0.0
H585 H 0.50723 0.54043 0.83628 0.0
O586 O 0.59393 0.49194 0.83257 0.0
O587 O 0.57475 0.52581 0.84223 0.0
O588 O 0.55793 0.57407 0.82879 0.0
C589 C 0.58794 0.4993 0.84086 0.0
H590 H 0.66865 0.59663 0.83887 0.0
H591 H 0.48965 0.45574 0.82351 0.0
H592 H 0.59131 0.57553 0.798 0.0
H593 H 0.60006 0.47692 0.80046 0.0
Co594 Co 0.71796 0.32977 0.07721 0.0
C595 C 0.71187 0.39763 0.0783 0.0
C596 C 0.67414 0.37495 0.08474 0.0
C597 C 0.67186 0.40609 0.0864 0.0
N598 N 0.69885 0.36964 0.07944 0.0
N599 N 0.69572 0.42027 0.08234 0.0
H600 H 0.73436 0.40127 0.07545 0.0
H601 H 0.65979 0.35727 0.08769 0.0
C602 C 0.65215 0.32002 0.07263 0.0
O603 O 0.65482 0.34529 0.06782 0.0
N604 N 0.73797 0.29072 0.07526 0.0
C605 C 0.76442 0.28744 0.07063 0.0
C606 C 0.77363 0.25733 0.07112 0.0
C607 C 0.73127 0.26249 0.07854 0.0
N608 N 0.75295 0.24167 0.0761 0.0
C609 C 0.7364 0.35821 0.06055 0.0
C610 C 0.70828 0.31614 0.04929 0.0
C611 C 0.72599 0.33979 0.04548 0.0
C612 C 0.74014 0.36097 0.05126 0.0
C613 C 0.70524 0.31417 0.05863 0.0
N614 N 0.71825 0.33573 0.06417 0.0
H615 H 0.74993 0.37297 0.06477 0.0
H616 H 0.69331 0.29452 0.0614 0.0
H617 H 0.77644 0.30588 0.06722 0.0
H618 H 0.71165 0.2575 0.08279 0.0
O619 O 0.75753 0.34754 0.07997 0.0
O620 O 0.72602 0.32689 0.09003 0.0
O621 O 0.67569 0.30951 0.07685 0.0
C622 C 0.75186 0.34109 0.08834 0.0
H623 H 0.65469 0.41717 0.09057 0.0
H624 H 0.79403 0.24764 0.06802 0.0
H625 H 0.69731 0.29889 0.04511 0.0
H626 H 0.75532 0.37869 0.04868 0.0
Co627 Co 0.91658 0.46506 0.32714 0.0
C628 C 0.84833 0.46085 0.32838 0.0
C629 C 0.87037 0.42261 0.33475 0.0
C630 C 0.8392 0.42081 0.3364 0.0
N631 N 0.87612 0.44731 0.32949 0.0
N632 N 0.82539 0.44498 0.33239 0.0
H633 H 0.84504 0.48334 0.3255 0.0
H634 H 0.88779 0.40778 0.33762 0.0
C635 C 0.92382 0.39906 0.32234 0.0
O636 O 0.89846 0.40267 0.31761 0.0
N637 N 0.95637 0.48355 0.32509 0.0
C638 C 0.96088 0.50921 0.32018 0.0
C639 C 0.99168 0.51609 0.32017 0.0
C640 C 0.9845 0.47527 0.32813 0.0
N641 N 0.00659 0.4948 0.32515 0.0
C642 C 0.88815 0.48539 0.31067 0.0
C643 C 0.92846 0.45605 0.29913 0.0
C644 C 0.90553 0.47507 0.29548 0.0
C645 C 0.88522 0.48981 0.30141 0.0
C646 C 0.93066 0.45238 0.30844 0.0
N647 N 0.90995 0.46606 0.31413 0.0
H648 H 0.87417 0.49931 0.31502 0.0
H649 H 0.94989 0.43948 0.31109 0.0
H650 H 0.94287 0.52216 0.31686 0.0
H651 H 0.98867 0.45547 0.33238 0.0
O652 O 0.90045 0.50513 0.33009 0.0
O653 O 0.92045 0.47251 0.33996 0.0
O654 O 0.93525 0.42211 0.32658 0.0
C655 C 0.90709 0.49889 0.33842 0.0
H656 H 0.82781 0.40361 0.34049 0.0
H657 H 0.00221 0.53577 0.31692 0.0
H658 H 0.94502 0.44452 0.29484 0.0
H659 H 0.86812 0.50592 0.29897 0.0
Co660 Co 0.79029 0.3275 0.91905 0.0
C661 C 0.79336 0.39457 0.9186 0.0
C662 C 0.83429 0.37498 0.91287 0.0
C663 C 0.83558 0.4066 0.91193 0.0
N664 N 0.8078 0.36766 0.91707 0.0
N665 N 0.80963 0.41873 0.91547 0.0
H666 H 0.77094 0.39633 0.92175 0.0
H667 H 0.85085 0.35853 0.91033 0.0
C668 C 0.84396 0.28868 0.92506 0.0
O669 O 0.8262 0.27652 0.93128 0.0
N670 N 0.77166 0.28721 0.9209 0.0
C671 C 0.74401 0.28166 0.92473 0.0
C672 C 0.7379 0.25079 0.92437 0.0
C673 C 0.78123 0.25943 0.91784 0.0
N674 N 0.76136 0.23673 0.92012 0.0
C675 C 0.76118 0.34262 0.93583 0.0
C676 C 0.81386 0.34588 0.94617 0.0
C677 C 0.78511 0.34841 0.95041 0.0
C678 C 0.7586 0.34768 0.94505 0.0
C679 C 0.81531 0.34091 0.93687 0.0
N680 N 0.78904 0.33672 0.93193 0.0
H681 H 0.74054 0.34381 0.93184 0.0
H682 H 0.83764 0.3407 0.93369 0.0
H683 H 0.72822 0.29866 0.92724 0.0
H684 H 0.8023 0.25585 0.91409 0.0
O685 O 0.75034 0.34327 0.91569 0.0
O686 O 0.78429 0.32325 0.90619 0.0
O687 O 0.83327 0.30939 0.91979 0.0
C688 C 0.75758 0.33617 0.90748 0.0
H689 H 0.85348 0.4195 0.90854 0.0
H690 H 0.71721 0.23965 0.92681 0.0
H691 H 0.83503 0.34798 0.94997 0.0
H692 H 0.73587 0.35042 0.94794 0.0
Co693 Co 0.92454 0.53301 0.16933 0.0
C694 C 0.8579 0.54027 0.16842 0.0
C695 C 0.88045 0.57736 0.16152 0.0
C696 C 0.84907 0.57985 0.16015 0.0
N697 N 0.88576 0.55252 0.16671 0.0
N698 N 0.83504 0.55625 0.16443 0.0
H699 H 0.85462 0.5193 0.17223 0.0
H700 H 0.89814 0.59162 0.15853 0.0
C701 C 0.96638 0.58526 0.17472 0.0
O702 O 0.97749 0.56788 0.18119 0.0
N703 N 0.96344 0.51241 0.17184 0.0
C704 C 0.96721 0.486 0.1765 0.0
C705 C 0.99769 0.47796 0.17644 0.0
C706 C 0.99185 0.5192 0.16863 0.0
N707 N 0.01328 0.49891 0.17156 0.0
C708 C 0.90524 0.50801 0.18627 0.0
C709 C 0.90589 0.56207 0.19602 0.0
C710 C 0.90029 0.53427 0.20054 0.0
C711 C 0.89911 0.50713 0.19546 0.0
C712 C 0.91181 0.56183 0.18675 0.0
N713 N 0.91398 0.53467 0.18213 0.0
H714 H 0.90281 0.48696 0.18251 0.0
H715 H 0.9143 0.58361 0.18335 0.0
H716 H 0.94923 0.47232 0.17945 0.0
H717 H 0.99676 0.53868 0.16432 0.0
O718 O 0.90638 0.4937 0.16641 0.0
O719 O 0.92974 0.52415 0.15662 0.0
O720 O 0.94515 0.57492 0.16956 0.0
C721 C 0.91451 0.49883 0.15814 0.0
H722 H 0.83768 0.59662 0.15591 0.0
H723 H 0.00747 0.45758 0.1795 0.0
H724 H 0.90541 0.58382 0.19958 0.0
H725 H 0.89412 0.48513 0.19857 0.0
Co726 Co 0.72153 0.67341 0.42081 0.0
C727 C 0.71493 0.60548 0.42013 0.0
C728 C 0.67504 0.62787 0.41484 0.0
C729 C 0.67196 0.59662 0.41352 0.0
N730 N 0.70163 0.63347 0.41927 0.0
N731 N 0.69719 0.58258 0.41686 0.0
H732 H 0.73842 0.60201 0.42222 0.0
H733 H 0.65969 0.64534 0.41224 0.0
C734 C 0.65706 0.68454 0.42659 0.0
O735 O 0.66089 0.66028 0.43176 0.0
N736 N 0.74234 0.71243 0.42207 0.0
C737 C 0.77039 0.71548 0.42583 0.0
C738 C 0.77903 0.74576 0.42543 0.0
C739 C 0.73407 0.74105 0.41943 0.0
N740 N 0.75634 0.76185 0.42139 0.0
C741 C 0.74143 0.64561 0.43747 0.0
C742 C 0.71762 0.69057 0.44864 0.0
C743 C 0.73403 0.66606 0.45246 0.0
C744 C 0.74606 0.64343 0.44674 0.0
C745 C 0.71347 0.6918 0.43933 0.0
N746 N 0.72428 0.66886 0.43386 0.0
H747 H 0.7532 0.62947 0.43323 0.0
H748 H 0.70214 0.71172 0.4365 0.0
H749 H 0.78364 0.69683 0.42871 0.0
H750 H 0.71261 0.74643 0.41608 0.0
O751 O 0.76031 0.65488 0.41754 0.0
O752 O 0.72703 0.67497 0.40787 0.0
O753 O 0.67952 0.69408 0.42171 0.0
C754 C 0.75303 0.66067 0.40923 0.0
H755 H 0.65312 0.58537 0.41007 0.0
H756 H 0.80024 0.75534 0.42805 0.0
H757 H 0.70831 0.70886 0.45278 0.0
H758 H 0.76009 0.62485 0.44936 0.0
Co759 Co 0.57585 0.47091 0.67052 0.0
C760 C 0.6423 0.46291 0.67164 0.0
C761 C 0.62155 0.42504 0.66462 0.0
C762 C 0.65316 0.42248 0.66395 0.0
N763 N 0.61496 0.45045 0.66943 0.0
N764 N 0.6661 0.44656 0.66829 0.0
H765 H 0.64451 0.48447 0.67523 0.0
H766 H 0.60467 0.41066 0.6613 0.0
C767 C 0.5352 0.41877 0.67688 0.0
O768 O 0.5244 0.43659 0.6833 0.0
N769 N 0.53655 0.49265 0.6714 0.0
C770 C 0.53335 0.52311 0.67305 0.0
C771 C 0.50279 0.53063 0.67313 0.0
C772 C 0.50743 0.48257 0.66989 0.0
N773 N 0.48651 0.50516 0.67121 0.0
C774 C 0.58384 0.50122 0.68754 0.0
C775 C 0.59096 0.44885 0.69787 0.0
C776 C 0.58953 0.47759 0.70216 0.0
C777 C 0.5869 0.50401 0.69683 0.0
C778 C 0.58778 0.44716 0.6885 0.0
N779 N 0.58205 0.47304 0.68352 0.0
H780 H 0.58364 0.52192 0.6836 0.0
H781 H 0.58965 0.42495 0.68527 0.0
H782 H 0.55182 0.5395 0.67381 0.0
H783 H 0.50146 0.45943 0.66786 0.0
O784 O 0.59549 0.50911 0.66716 0.0
O785 O 0.5749 0.47574 0.65757 0.0
O786 O 0.55503 0.42922 0.6713 0.0
C787 C 0.58958 0.50152 0.65888 0.0
H788 H 0.6655 0.40544 0.66004 0.0
H789 H 0.49319 0.5533 0.67429 0.0
H790 H 0.59394 0.42786 0.7017 0.0
H791 H 0.58757 0.52679 0.69979 0.0
Co792 Co 0.22037 0.32448 0.41898 0.0
C793 C 0.21262 0.39105 0.42102 0.0
C794 C 0.17229 0.37068 0.41516 0.0
C795 C 0.16898 0.40227 0.41507 0.0
N796 N 0.19971 0.36381 0.41887 0.0
N797 N 0.19453 0.41505 0.41869 0.0
H798 H 0.23577 0.39322 0.42363 0.0
H799 H 0.15656 0.35409 0.41227 0.0
C800 C 0.16814 0.28404 0.42543 0.0
O801 O 0.1861 0.27273 0.43174 0.0
N802 N 0.24213 0.28499 0.4188 0.0
C803 C 0.27312 0.28157 0.41881 0.0
C804 C 0.28043 0.25115 0.41769 0.0
C805 C 0.23116 0.25619 0.41733 0.0
N806 N 0.25409 0.23522 0.41679 0.0
C807 C 0.25234 0.3254 0.43587 0.0
C808 C 0.20164 0.33707 0.44658 0.0
C809 C 0.23046 0.33283 0.45068 0.0
C810 C 0.25608 0.3276 0.44515 0.0
C811 C 0.19898 0.33488 0.43722 0.0
N812 N 0.2239 0.32751 0.43202 0.0
H813 H 0.27257 0.32275 0.43178 0.0
H814 H 0.17674 0.3388 0.43416 0.0
H815 H 0.28981 0.29992 0.41932 0.0
H816 H 0.20723 0.25056 0.41625 0.0
O817 O 0.25801 0.34522 0.41576 0.0
O818 O 0.22415 0.3265 0.40601 0.0
O819 O 0.17876 0.30349 0.41976 0.0
C820 C 0.2499 0.34119 0.40742 0.0
H821 H 0.14974 0.41478 0.41223 0.0
H822 H 0.3034 0.24144 0.41757 0.0
H823 H 0.18123 0.34164 0.45055 0.0
H824 H 0.27904 0.32573 0.44795 0.0
Co825 Co 0.42389 0.47024 0.1679 0.0
C826 C 0.3572 0.46035 0.16798 0.0
C827 C 0.38059 0.42334 0.16126 0.0
C828 C 0.34927 0.41939 0.16021 0.0
N829 N 0.38539 0.44905 0.16612 0.0
N830 N 0.33465 0.44283 0.16439 0.0
H831 H 0.35344 0.48213 0.17134 0.0
H832 H 0.39852 0.40942 0.15828 0.0
C833 C 0.46568 0.41889 0.17408 0.0
O834 O 0.47587 0.43681 0.18056 0.0
N835 N 0.46263 0.4925 0.16946 0.0
C836 C 0.4655 0.52234 0.1719 0.0
C837 C 0.49596 0.53046 0.1718 0.0
C838 C 0.49168 0.48354 0.16738 0.0
N839 N 0.51249 0.50604 0.16904 0.0
C840 C 0.41141 0.49832 0.18496 0.0
C841 C 0.40753 0.44492 0.19498 0.0
C842 C 0.40658 0.47342 0.19942 0.0
C843 C 0.40739 0.50028 0.19423 0.0
C844 C 0.41147 0.44408 0.18562 0.0
N845 N 0.41583 0.47064 0.18083 0.0
H846 H 0.41032 0.51924 0.18113 0.0
H847 H 0.4113 0.42203 0.18227 0.0
H848 H 0.44687 0.53809 0.17321 0.0
H849 H 0.49757 0.4612 0.16467 0.0
O850 O 0.40394 0.50838 0.16476 0.0
O851 O 0.42658 0.47701 0.15503 0.0
O852 O 0.44558 0.42895 0.16852 0.0
C853 C 0.41112 0.50227 0.15647 0.0
H854 H 0.33823 0.40125 0.1564 0.0
H855 H 0.50516 0.55302 0.17334 0.0
H856 H 0.40586 0.42352 0.19868 0.0
H857 H 0.40469 0.52276 0.19729 0.0
Co858 Co 0.2886 0.673 0.91786 0.0
C859 C 0.29593 0.60674 0.92047 0.0
C860 C 0.33546 0.62581 0.91382 0.0
C861 C 0.33808 0.59413 0.91386 0.0
N862 N 0.30897 0.63354 0.91796 0.0
N863 N 0.31297 0.58224 0.91794 0.0
H864 H 0.27357 0.60522 0.92365 0.0
H865 H 0.35069 0.64183 0.91047 0.0
C866 C 0.34038 0.71503 0.92327 0.0
O867 O 0.32205 0.72719 0.92935 0.0
N868 N 0.26704 0.71256 0.91741 0.0
C869 C 0.23611 0.71621 0.91792 0.0
C870 C 0.22858 0.74609 0.916 0.0
C871 C 0.27765 0.74057 0.91482 0.0
N872 N 0.25465 0.76137 0.91409 0.0
C873 C 0.25906 0.67463 0.93517 0.0
C874 C 0.3112 0.6633 0.94531 0.0
C875 C 0.28308 0.66826 0.94972 0.0
C876 C 0.25674 0.67352 0.94451 0.0
C877 C 0.31251 0.66479 0.93592 0.0
N878 N 0.28685 0.67175 0.93097 0.0
H879 H 0.23822 0.67694 0.93135 0.0
H880 H 0.33425 0.66043 0.93261 0.0
H881 H 0.21949 0.6982 0.91914 0.0
H882 H 0.30126 0.74552 0.91305 0.0
O883 O 0.25036 0.65226 0.91531 0.0
O884 O 0.28312 0.66915 0.90497 0.0
O885 O 0.33032 0.69397 0.91801 0.0
C886 C 0.25734 0.65514 0.90685 0.0
H887 H 0.35593 0.58087 0.91056 0.0
H888 H 0.20562 0.75583 0.91593 0.0
H889 H 0.33203 0.65861 0.94908 0.0
H890 H 0.2343 0.67606 0.94762 0.0
Co891 Co 0.07632 0.53657 0.67015 0.0
C892 C 0.14255 0.54778 0.67127 0.0
C893 C 0.11971 0.58429 0.66417 0.0
C894 C 0.1511 0.58845 0.66342 0.0
N895 N 0.11454 0.55872 0.66907 0.0
N896 N 0.16534 0.56532 0.66785 0.0
H897 H 0.14612 0.52603 0.67468 0.0
H898 H 0.10204 0.59775 0.66088 0.0
C899 C 0.03513 0.58798 0.67672 0.0
O900 O 0.02559 0.57029 0.68333 0.0
N901 N 0.03781 0.51338 0.67095 0.0
C902 C 0.03546 0.48249 0.67191 0.0
C903 C 0.00507 0.47415 0.67189 0.0
C904 C 0.00839 0.52302 0.6698 0.0
N905 N 0.98804 0.49963 0.67063 0.0
C906 C 0.08289 0.50671 0.68722 0.0
C907 C 0.09272 0.55894 0.69743 0.0
C908 C 0.09053 0.53031 0.70175 0.0
C909 C 0.08639 0.50395 0.69648 0.0
C910 C 0.089 0.56063 0.68807 0.0
N911 N 0.08227 0.53485 0.68315 0.0
H912 H 0.08141 0.48596 0.68333 0.0
H913 H 0.09119 0.58275 0.6848 0.0
H914 H 0.05444 0.46649 0.6723 0.0
H915 H 0.00177 0.54641 0.66828 0.0
O916 O 0.09785 0.49938 0.66702 0.0
O917 O 0.07594 0.53097 0.6572 0.0
O918 O 0.05395 0.57746 0.67085 0.0
C919 C 0.09203 0.50611 0.65867 0.0
H920 H 0.16252 0.60631 0.65959 0.0
H921 H 0.99617 0.45096 0.67252 0.0
H922 H 0.09674 0.57983 0.70123 0.0
H923 H 0.08629 0.48121 0.69948 0.0
Co924 Co 0.21608 0.67322 0.07645 0.0
C925 C 0.21379 0.60521 0.07853 0.0
C926 C 0.17376 0.62678 0.08405 0.0
C927 C 0.1729 0.59593 0.08618 0.0
N928 N 0.19899 0.63258 0.079 0.0
N929 N 0.19827 0.58247 0.08275 0.0
H930 H 0.23652 0.60219 0.07579 0.0
H931 H 0.15811 0.64409 0.08659 0.0
C932 C 0.15004 0.67949 0.0715 0.0
O933 O 0.15393 0.65414 0.06679 0.0
N934 N 0.23395 0.71317 0.07422 0.0
C935 C 0.25996 0.71777 0.06947 0.0
C936 C 0.266 0.74873 0.06917 0.0
C937 C 0.22457 0.74141 0.07687 0.0
N938 N 0.24379 0.76364 0.07379 0.0
C939 C 0.2365 0.64372 0.06015 0.0
C940 C 0.20798 0.68401 0.04842 0.0
C941 C 0.22716 0.66101 0.04492 0.0
C942 C 0.24137 0.64061 0.05091 0.0
C943 C 0.20386 0.68641 0.05771 0.0
N944 N 0.21731 0.66586 0.06348 0.0
H945 H 0.24986 0.62952 0.06458 0.0
H946 H 0.19097 0.70579 0.06027 0.0
H947 H 0.27363 0.69974 0.06643 0.0
H948 H 0.20413 0.74559 0.08085 0.0
O949 O 0.25644 0.65805 0.07952 0.0
O950 O 0.22313 0.67791 0.08924 0.0
O951 O 0.1729 0.69117 0.07576 0.0
C952 C 0.24981 0.66503 0.0878 0.0
H953 H 0.15606 0.58477 0.09044 0.0
H954 H 0.28562 0.7594 0.06594 0.0
H955 H 0.19746 0.701 0.04405 0.0
H956 H 0.25686 0.62286 0.04851 0.0
Co957 Co 0.07878 0.46517 0.82728 0.0
C958 C 0.14555 0.45984 0.82882 0.0
C959 C 0.12327 0.42105 0.83497 0.0
C960 C 0.15449 0.4193 0.83667 0.0
N961 N 0.11787 0.4465 0.83005 0.0
N962 N 0.16835 0.44393 0.83287 0.0
H963 H 0.14866 0.48148 0.82533 0.0
H964 H 0.10566 0.40583 0.83757 0.0
C965 C 0.03916 0.41202 0.8211 0.0
O966 O 0.02822 0.42931 0.81458 0.0
N967 N 0.03958 0.48487 0.82464 0.0
C968 C 0.03553 0.51186 0.82031 0.0
C969 C 0.00484 0.51902 0.8202 0.0
C970 C 0.01107 0.47672 0.82748 0.0
N971 N 0.98936 0.49686 0.82464 0.0
C972 C 0.09928 0.49305 0.81088 0.0
C973 C 0.1002 0.44062 0.8004 0.0
C974 C 0.10565 0.46922 0.79632 0.0
C975 C 0.10618 0.4955 0.80176 0.0
C976 C 0.09369 0.43924 0.80962 0.0
N977 N 0.09066 0.4656 0.81459 0.0
H978 H 0.10087 0.51355 0.81492 0.0
H979 H 0.09131 0.41691 0.8127 0.0
H980 H 0.05343 0.52647 0.8177 0.0
H981 H 0.00632 0.45644 0.83148 0.0
O982 O 0.0953 0.50463 0.83077 0.0
O983 O 0.07211 0.4721 0.84003 0.0
O984 O 0.0595 0.42276 0.82648 0.0
C985 C 0.08658 0.4981 0.83891 0.0
H986 H 0.16579 0.40223 0.84083 0.0
H987 H 0.99479 0.5396 0.81732 0.0
H988 H 0.10109 0.41953 0.79651 0.0
H989 H 0.11106 0.51803 0.79897 0.0
Co990 Co 0.28645 0.32778 0.57808 0.0
C991 C 0.29349 0.39397 0.57561 0.0
C992 C 0.33362 0.37499 0.58195 0.0
C993 C 0.33609 0.4067 0.58194 0.0
N994 N 0.30682 0.36722 0.578 0.0
N995 N 0.31058 0.41848 0.57805 0.0
H996 H 0.27082 0.39548 0.57261 0.0
H997 H 0.3492 0.35898 0.58517 0.0
C998 C 0.33907 0.28699 0.57218 0.0
O999 O 0.32138 0.27502 0.56591 0.0
N1000 N 0.26487 0.28825 0.57844 0.0
C1001 C 0.23388 0.28481 0.57829 0.0
C1002 C 0.2265 0.25459 0.5797 0.0
C1003 C 0.27575 0.25966 0.58028 0.0
N1004 N 0.25276 0.23879 0.58092 0.0
C1005 C 0.25527 0.32787 0.56107 0.0
C1006 C 0.30645 0.33947 0.55054 0.0
C1007 C 0.27766 0.33613 0.54638 0.0
C1008 C 0.25184 0.33058 0.55178 0.0
C1009 C 0.30879 0.33689 0.55989 0.0
N1010 N 0.28358 0.3298 0.56501 0.0
H1011 H 0.23487 0.32509 0.56507 0.0
H1012 H 0.33092 0.34075 0.56302 0.0
H1013 H 0.21722 0.30307 0.57752 0.0
H1014 H 0.29961 0.25417 0.58154 0.0
O1015 O 0.24854 0.34858 0.581 0.0
O1016 O 0.28198 0.33092 0.59102 0.0
O1017 O 0.32819 0.30699 0.57764 0.0
C1018 C 0.25626 0.34539 0.58939 0.0
H1019 H 0.35406 0.42004 0.58515 0.0
H1020 H 0.20351 0.2449 0.57981 0.0
H1021 H 0.32684 0.34466 0.54662 0.0
H1022 H 0.22909 0.32826 0.54886 0.0
Co1023 Co 0.41626 0.53637 0.32616 0.0
C1024 C 0.3482 0.53996 0.32818 0.0
C1025 C 0.37066 0.57846 0.33428 0.0
C1026 C 0.33973 0.57987 0.33631 0.0
N1027 N 0.37596 0.55385 0.32894 0.0
N1028 N 0.32566 0.55555 0.33247 0.0
H1029 H 0.34477 0.51736 0.32538 0.0
H1030 H 0.38828 0.59343 0.33698 0.0
C1031 C 0.42319 0.60257 0.32165 0.0
O1032 O 0.39749 0.59929 0.31706 0.0
N1033 N 0.45592 0.51813 0.32372 0.0
C1034 C 0.46021 0.49307 0.31853 0.0
C1035 C 0.49099 0.48609 0.31839 0.0
C1036 C 0.48413 0.52592 0.3268 0.0
N1037 N 0.50608 0.5067 0.32356 0.0
C1038 C 0.38594 0.51789 0.30979 0.0
C1039 C 0.42658 0.54642 0.29816 0.0
C1040 C 0.40303 0.52806 0.29458 0.0
C1041 C 0.38242 0.5139 0.30053 0.0
C1042 C 0.4292 0.54989 0.30748 0.0
N1043 N 0.40852 0.53638 0.3132 0.0
H1044 H 0.37179 0.50421 0.31415 0.0
H1045 H 0.44882 0.56232 0.31008 0.0
H1046 H 0.44206 0.48055 0.31514 0.0
H1047 H 0.48845 0.54512 0.33127 0.0
O1048 O 0.40049 0.49607 0.32895 0.0
O1049 O 0.42123 0.52804 0.33888 0.0
O1050 O 0.43485 0.5793 0.32572 0.0
C1051 C 0.40779 0.50175 0.33726 0.0
H1052 H 0.32873 0.59689 0.34055 0.0
H1053 H 0.50137 0.46676 0.31494 0.0
H1054 H 0.44334 0.55743 0.29383 0.0
H1055 H 0.36474 0.49841 0.29809 0.0
H1056 H 0.26375 0.16023 0.10929 0.0
H1057 H 0.23168 0.13612 0.12093 0.0
H1058 H 0.16102 0.11812 0.10124 0.0
H1059 H 0.19287 0.14193 0.08957 0.0
H1060 H 0.14201 0.14318 0.11994 0.0
H1061 H 0.21564 0.0381 0.11933 0.0
H1062 H 0.23477 0.07481 0.12014 0.0
H1063 H 0.21433 0.06497 0.11005 0.0
C1064 C 0.24117 0.15161 0.10747 0.0
C1065 C 0.23086 0.15282 0.09852 0.0
C1066 C 0.22296 0.13779 0.11411 0.0
C1067 C 0.19416 0.12523 0.11189 0.0
C1068 C 0.18321 0.12771 0.10306 0.0
H1069 H 0.08893 0.98765 0.14117 0.0
H1070 H 0.11147 0.01974 0.12929 0.0
C1071 C 0.20146 0.14127 0.09641 0.0
C1072 C 0.17629 0.10766 0.11862 0.0
H1073 H 0.17496 0.03909 0.12983 0.0
C1074 C 0.14915 0.12044 0.12213 0.0
C1075 C 0.18553 0.07786 0.12132 0.0
C1076 C 0.21404 0.06286 0.1175 0.0
C1077 C 0.13122 0.10428 0.12843 0.0
C1078 C 0.14082 0.07472 0.13127 0.0
C1079 C 0.16769 0.06178 0.12763 0.0
C1080 C 0.12396 0.05706 0.13822 0.0
C1081 C 0.10203 0.11875 0.13196 0.0
C1082 C 0.12324 0.06764 0.14713 0.0
C1083 C 0.11054 0.04935 0.15392 0.0
C1084 C 0.0983 0.02017 0.1519 0.0
C1085 C 0.098 0.01011 0.14292 0.0
C1086 C 0.11094 0.02834 0.13614 0.0
H1087 H 0.0942 0.13812 0.12764 0.0
H1088 H 0.08328 0.10142 0.13241 0.0
H1089 H 0.10627 0.12787 0.13882 0.0
H1090 H 0.1336 0.08952 0.1489 0.0
H1091 H 0.11119 0.0577 0.16078 0.0
H1092 H 0.08255 0.01046 0.35854 0.0
H1093 H 0.10782 0.98131 0.37059 0.0
H1094 H 0.15555 0.92655 0.35078 0.0
H1095 H 0.12991 0.95492 0.33876 0.0
H1096 H 0.13371 0.89149 0.36456 0.0
H1097 H 0.19708 0.99278 0.3779 0.0
H1098 H 0.15602 0.9976 0.37765 0.0
H1099 H 0.17701 0.99358 0.36728 0.0
C1100 C 0.09826 0.99206 0.35677 0.0
C1101 C 0.10436 0.98509 0.34771 0.0
C1102 C 0.11286 0.97558 0.36365 0.0
C1103 C 0.13406 0.95217 0.36158 0.0
C1104 C 0.13941 0.94461 0.35254 0.0
H1105 H 0.26376 0.83753 0.39098 0.0
H1106 H 0.23269 0.86299 0.37936 0.0
C1107 C 0.12472 0.96089 0.34567 0.0
C1108 C 0.15107 0.93568 0.36877 0.0
H1109 H 0.20166 0.94626 0.38611 0.0
C1110 C 0.14859 0.90346 0.36926 0.0
C1111 C 0.17065 0.95133 0.37487 0.0
C1112 C 0.17566 0.98569 0.37437 0.0
C1113 C 0.1649 0.88652 0.37575 0.0
C1114 C 0.1843 0.9022 0.38185 0.0
C1115 C 0.18668 0.93438 0.38141 0.0
C1116 C 0.20229 0.8857 0.3888 0.0
C1117 C 0.16102 0.85202 0.37612 0.0
C1118 C 0.19555 0.89026 0.39792 0.0
C1119 C 0.21311 0.87573 0.40455 0.0
C1120 C 0.23797 0.85662 0.40217 0.0
C1121 C 0.24467 0.85202 0.39301 0.0
C1122 C 0.22691 0.86643 0.38637 0.0
H1123 H 0.1409 0.84412 0.37212 0.0
H1124 H 0.182 0.84084 0.37338 0.0
H1125 H 0.15813 0.84419 0.38319 0.0
H1126 H 0.17674 0.90518 0.39992 0.0
H1127 H 0.20747 0.8799 0.41154 0.0
H1128 H 0.31139 0.84557 0.5921 0.0
H1129 H 0.34314 0.86815 0.60399 0.0
H1130 H 0.26079 0.89463 0.61836 0.0
H1131 H 0.2292 0.86992 0.60678 0.0
H1132 H 0.34999 0.92274 0.60885 0.0
H1133 H 0.30683 0.86159 0.63883 0.0
H1134 H 0.29631 0.85 0.6276 0.0
H1135 H 0.27563 0.88051 0.63323 0.0
C1136 C 0.30019 0.85571 0.59791 0.0
C1137 C 0.26797 0.85579 0.59861 0.0
C1138 C 0.3183 0.86871 0.60468 0.0
C1139 C 0.30452 0.88273 0.6122 0.0
C1140 C 0.27216 0.88301 0.61284 0.0
H1141 H 0.39173 0.02682 0.64342 0.0
H1142 H 0.36726 0.99562 0.63176 0.0
C1143 C 0.25407 0.8691 0.60619 0.0
C1144 C 0.32395 0.89871 0.61903 0.0
H1145 H 0.33378 0.90903 0.64161 0.0
C1146 C 0.3467 0.91934 0.61602 0.0
C1147 C 0.32028 0.89401 0.6284 0.0
C1148 C 0.29868 0.87004 0.63219 0.0
C1149 C 0.36529 0.93581 0.62207 0.0
C1150 C 0.35995 0.93289 0.63143 0.0
C1151 C 0.33772 0.91172 0.63445 0.0
C1152 C 0.3766 0.95185 0.63823 0.0
C1153 C 0.39081 0.9556 0.6183 0.0
C1154 C 0.38932 0.93793 0.64593 0.0
C1155 C 0.40233 0.95591 0.65275 0.0
C1156 C 0.40354 0.98806 0.6519 0.0
C1157 C 0.39175 0.00199 0.64411 0.0
C1158 C 0.37789 0.9841 0.63742 0.0
H1159 H 0.39917 0.94643 0.61176 0.0
H1160 H 0.38186 0.97915 0.61705 0.0
H1161 H 0.41067 0.95707 0.62298 0.0
H1162 H 0.38861 0.91316 0.64676 0.0
H1163 H 0.41108 0.9447 0.65874 0.0
H1164 H 0.42017 0.99545 0.85853 0.0
H1165 H 0.39737 0.02855 0.87016 0.0
H1166 H 0.3578 0.08626 0.84959 0.0
H1167 H 0.38043 0.05355 0.83796 0.0
H1168 H 0.40065 0.09874 0.87254 0.0
H1169 H 0.28415 0.05087 0.86541 0.0
H1170 H 0.31909 0.03111 0.86222 0.0
H1171 H 0.30628 0.06391 0.85591 0.0
C1172 C 0.40704 0.01548 0.85649 0.0
C1173 C 0.40197 0.02179 0.84733 0.0
C1174 C 0.39405 0.03432 0.86313 0.0
C1175 C 0.37567 0.05958 0.8607 0.0
C1176 C 0.37171 0.06669 0.85158 0.0
H1177 H 0.24876 0.1726 0.89203 0.0
H1178 H 0.27975 0.15096 0.87977 0.0
C1179 C 0.38475 0.048 0.84495 0.0
C1180 C 0.35912 0.07747 0.86766 0.0
H1181 H 0.28733 0.09033 0.87623 0.0
C1182 C 0.37589 0.09699 0.87336 0.0
C1183 C 0.32682 0.0752 0.86865 0.0
C1184 C 0.3079 0.05403 0.86278 0.0
C1185 C 0.36107 0.11452 0.88004 0.0
C1186 C 0.32877 0.11182 0.88115 0.0
C1187 C 0.31204 0.09249 0.87536 0.0
C1188 C 0.31192 0.12752 0.88854 0.0
C1189 C 0.38011 0.13608 0.88573 0.0
C1190 C 0.31979 0.12169 0.89754 0.0
C1191 C 0.30229 0.13415 0.90453 0.0
C1192 C 0.2763 0.15242 0.90268 0.0
C1193 C 0.26873 0.15873 0.89367 0.0
C1194 C 0.28637 0.14634 0.88666 0.0
H1195 H 0.40169 0.14292 0.88224 0.0
H1196 H 0.36701 0.1572 0.88749 0.0
H1197 H 0.38666 0.12422 0.89207 0.0
H1198 H 0.33886 0.10661 0.89916 0.0
H1199 H 0.3086 0.1286 0.9114 0.0
H1200 H 0.89131 0.02222 0.85758 0.0
H1201 H 0.86941 0.9894 0.86932 0.0
H1202 H 0.89532 0.90861 0.85413 0.0
H1203 H 0.91493 0.94166 0.84208 0.0
H1204 H 0.84154 0.90067 0.85924 0.0
H1205 H 0.90312 0.94193 0.88931 0.0
H1206 H 0.88391 0.97367 0.88407 0.0
H1207 H 0.91423 0.95367 0.87814 0.0
C1208 C 0.89287 0.99743 0.85687 0.0
C1209 C 0.90497 0.98435 0.849 0.0
C1210 C 0.88053 0.97861 0.86361 0.0
C1211 C 0.88119 0.94634 0.86276 0.0
C1212 C 0.89448 0.93336 0.855 0.0
H1213 H 0.8161 0.83954 0.90905 0.0
H1214 H 0.84893 0.86156 0.89728 0.0
C1215 C 0.90585 0.9522 0.84813 0.0
C1216 C 0.86562 0.92626 0.86951 0.0
H1217 H 0.85479 0.9159 0.89206 0.0
C1218 C 0.84494 0.9037 0.86642 0.0
C1219 C 0.87026 0.92953 0.8789 0.0
C1220 C 0.89438 0.95078 0.88278 0.0
C1221 C 0.82818 0.88511 0.8724 0.0
C1222 C 0.8308 0.89029 0.88178 0.0
C1223 C 0.85224 0.91213 0.88488 0.0
C1224 C 0.8111 0.87405 0.88849 0.0
C1225 C 0.8083 0.85983 0.86853 0.0
C1226 C 0.77888 0.87325 0.88747 0.0
C1227 C 0.76027 0.85962 0.89403 0.0
C1228 C 0.77341 0.84761 0.9019 0.0
C1229 C 0.80551 0.84845 0.90298 0.0
C1230 C 0.82421 0.8612 0.89628 0.0
H1231 H 0.81783 0.85131 0.86205 0.0
H1232 H 0.80622 0.84003 0.87322 0.0
H1233 H 0.78496 0.86908 0.86713 0.0
H1234 H 0.76794 0.88404 0.88173 0.0
H1235 H 0.73549 0.85995 0.89316 0.0
H1236 H 0.90858 0.05714 0.65734 0.0
H1237 H 0.8833 0.08734 0.64556 0.0
H1238 H 0.85641 0.00334 0.63213 0.0
H1239 H 0.88361 0.97325 0.64359 0.0
H1240 H 0.87021 0.04309 0.62021 0.0
H1241 H 0.79371 0.10153 0.64454 0.0
H1242 H 0.83332 0.10964 0.64694 0.0
H1243 H 0.8191 0.07071 0.64782 0.0
C1244 C 0.89762 0.04525 0.65178 0.0
C1245 C 0.89789 0.01299 0.65133 0.0
C1246 C 0.88284 0.06246 0.64513 0.0
C1247 C 0.86696 0.04764 0.63812 0.0
C1248 C 0.86827 0.01535 0.6375 0.0
H1249 H 0.72381 0.13756 0.60664 0.0
H1250 H 0.75347 0.10922 0.61796 0.0
C1251 C 0.88387 0.99816 0.64402 0.0
C1252 C 0.84876 0.06569 0.63149 0.0
H1253 H 0.79417 0.12196 0.62964 0.0
C1254 C 0.85343 0.06019 0.62228 0.0
C1255 C 0.82625 0.08751 0.63416 0.0
C1256 C 0.81754 0.09243 0.6439 0.0
C1257 C 0.83657 0.07603 0.61569 0.0
C1258 C 0.81556 0.09931 0.61836 0.0
C1259 C 0.81064 0.10456 0.62757 0.0
C1260 C 0.79782 0.11784 0.61174 0.0
C1261 C 0.84078 0.06675 0.60597 0.0
C1262 C 0.81284 0.13295 0.60462 0.0
C1263 C 0.79584 0.14836 0.59804 0.0
C1264 C 0.76364 0.15006 0.59867 0.0
C1265 C 0.74869 0.13671 0.60607 0.0
C1266 C 0.76562 0.12046 0.61251 0.0
H1267 H 0.84901 0.0426 0.60539 0.0
H1268 H 0.81897 0.06892 0.60212 0.0
H1269 H 0.85843 0.08176 0.60282 0.0
H1270 H 0.83769 0.13241 0.60405 0.0
H1271 H 0.80782 0.15879 0.59241 0.0
H1272 H 0.6319 0.04417 0.33919 0.0
H1273 H 0.65854 0.07223 0.35109 0.0
H1274 H 0.61171 0.01763 0.37112 0.0
H1275 H 0.58543 0.98879 0.35919 0.0
H1276 H 0.63729 0.10725 0.36499 0.0
H1277 H 0.70146 0.00589 0.37793 0.0
H1278 H 0.68084 0.00521 0.3674 0.0
H1279 H 0.66041 1.00094 0.37785 0.0
C1280 C 0.62715 0.03816 0.34612 0.0
C1281 C 0.60672 0.01412 0.34826 0.0
C1282 C 0.6424 0.05425 0.35292 0.0
C1283 C 0.63753 0.04665 0.36197 0.0
C1284 C 0.61635 0.02336 0.36415 0.0
H1285 H 0.71051 0.11814 0.41187 0.0
H1286 H 0.68003 0.09326 0.40013 0.0
C1287 C 0.60119 0.00706 0.35735 0.0
C1288 C 0.65493 0.06305 0.36909 0.0
H1289 H 0.70606 0.05222 0.38626 0.0
C1290 C 0.65238 0.09525 0.36963 0.0
C1291 C 0.67478 0.04731 0.37508 0.0
C1292 C 0.67984 0.01298 0.37451 0.0
C1293 C 0.66882 0.11209 0.3761 0.0
C1294 C 0.68838 0.0963 0.38213 0.0
C1295 C 0.69093 0.06416 0.38161 0.0
C1296 C 0.7062 0.11263 0.38912 0.0
C1297 C 0.66489 0.14657 0.37656 0.0
C1298 C 0.73104 0.13172 0.38678 0.0
C1299 C 0.74867 0.14591 0.39348 0.0
C1300 C 0.7416 0.14121 0.40261 0.0
C1301 C 0.71647 0.12232 0.4049 0.0
C1302 C 0.69904 0.10804 0.39821 0.0
H1303 H 0.64498 0.1546 0.37249 0.0
H1304 H 0.66163 0.15411 0.38364 0.0
H1305 H 0.68602 0.15787 0.37395 0.0
H1306 H 0.73708 0.1352 0.37978 0.0
H1307 H 0.76795 0.16026 0.39153 0.0
H1308 H 0.59184 0.02034 0.14177 0.0
H1309 H 0.6156 0.98971 0.12977 0.0
H1310 H 0.63582 0.91762 0.14882 0.0
H1311 H 0.61224 0.94802 0.16084 0.0
H1312 H 0.67966 0.96943 0.13082 0.0
H1313 H 0.59713 0.87254 0.12657 0.0
H1314 H 0.5862 0.90898 0.13151 0.0
H1315 H 0.60785 0.88157 0.13797 0.0
C1316 C 0.60078 0.9977 0.14336 0.0
C1317 C 0.60018 0.98656 0.15224 0.0
C1318 C 0.61442 0.98031 0.13651 0.0
C1319 C 0.62724 0.95137 0.13842 0.0
C1320 C 0.62567 0.93973 0.1472 0.0
H1321 H 0.76725 0.84954 0.109 0.0
H1322 H 0.73586 0.87414 0.12071 0.0
C1323 C 0.61228 0.95718 0.15406 0.0
C1324 C 0.64455 0.93446 0.13141 0.0
H1325 H 0.64526 0.8681 0.11908 0.0
C1326 C 0.67212 0.94733 0.12822 0.0
C1327 C 0.63456 0.90568 0.12806 0.0
C1328 C 0.6047 0.89136 0.13113 0.0
C1329 C 0.69022 0.93194 0.12183 0.0
C1330 C 0.68051 0.90292 0.11859 0.0
C1331 C 0.65272 0.89022 0.12167 0.0
C1332 C 0.6985 0.88608 0.11173 0.0
C1333 C 0.71944 0.9469 0.11849 0.0
C1334 C 0.68748 0.88415 0.10289 0.0
C1335 C 0.70534 0.87031 0.09621 0.0
C1336 C 0.73441 0.8579 0.09828 0.0
C1337 C 0.74494 0.85889 0.10721 0.0
C1338 C 0.72712 0.87299 0.11389 0.0
H1339 H 0.72118 0.97139 0.12059 0.0
H1340 H 0.73961 0.93431 0.12123 0.0
H1341 H 0.72071 0.94569 0.11103 0.0
H1342 H 0.66541 0.8941 0.10112 0.0
H1343 H 0.69655 0.86978 0.08939 0.0
H1344 H 0.69538 0.66248 0.59179 0.0
H1345 H 0.66309 0.63994 0.60357 0.0
H1346 H 0.74476 0.61613 0.61865 0.0
H1347 H 0.77676 0.64085 0.60719 0.0
H1348 H 0.65709 0.58548 0.60858 0.0
H1349 H 0.69624 0.64856 0.63867 0.0
H1350 H 0.70747 0.66005 0.6275 0.0
H1351 H 0.72842 0.63029 0.63337 0.0
C1352 C 0.70626 0.65304 0.59774 0.0
C1353 C 0.73841 0.6537 0.59868 0.0
C1354 C 0.68786 0.64003 0.60445 0.0
C1355 C 0.70131 0.6267 0.61213 0.0
C1356 C 0.73359 0.62724 0.61301 0.0
H1357 H 0.6138 0.48152 0.64308 0.0
H1358 H 0.63924 0.51266 0.63155 0.0
C1359 C 0.75193 0.64118 0.60643 0.0
C1360 C 0.68173 0.61044 0.61886 0.0
H1361 H 0.67059 0.60034 0.6414 0.0
C1362 C 0.65976 0.58914 0.61576 0.0
C1363 C 0.68459 0.61544 0.62825 0.0
C1364 C 0.70521 0.6401 0.63212 0.0
C1365 C 0.64117 0.57232 0.62172 0.0
C1366 C 0.64576 0.57557 0.63112 0.0
C1367 C 0.66723 0.59738 0.63422 0.0
C1368 C 0.62895 0.55652 0.63786 0.0
C1369 C 0.61641 0.55186 0.61784 0.0
C1370 C 0.61549 0.57049 0.64544 0.0
C1371 C 0.60206 0.55257 0.6522 0.0
C1372 C 0.60109 0.52041 0.65139 0.0
C1373 C 0.61369 0.50637 0.64373 0.0
C1374 C 0.62805 0.52422 0.63711 0.0
H1375 H 0.60836 0.56064 0.61122 0.0
H1376 H 0.62598 0.52848 0.61671 0.0
H1377 H 0.59622 0.55007 0.62239 0.0
H1378 H 0.61585 0.59529 0.64622 0.0
H1379 H 0.59258 0.56384 0.65809 0.0
H1380 H 0.69512 0.33529 0.90714 0.0
H1381 H 0.66138 0.35607 0.89543 0.0
H1382 H 0.7413 0.3819 0.87983 0.0
H1383 H 0.77478 0.35895 0.89123 0.0
H1384 H 0.6539 0.41046 0.89058 0.0
H1385 H 0.69178 0.34907 0.86008 0.0
H1386 H 0.70417 0.33746 0.87115 0.0
H1387 H 0.72419 0.36764 0.86517 0.0
C1388 C 0.70531 0.34464 0.90107 0.0
C1389 C 0.73741 0.34519 0.89998 0.0
C1390 C 0.68608 0.35667 0.8944 0.0
C1391 C 0.69863 0.37024 0.88663 0.0
C1392 C 0.73084 0.3706 0.88556 0.0
H1393 H 0.6116 0.51736 0.85692 0.0
H1394 H 0.63603 0.48469 0.86825 0.0
C1395 C 0.75003 0.35764 0.8921 0.0
C1396 C 0.67823 0.38627 0.88007 0.0
H1397 H 0.66606 0.39766 0.85764 0.0
C1398 C 0.65624 0.40719 0.88337 0.0
C1399 C 0.68063 0.38178 0.87065 0.0
C1400 C 0.70123 0.35748 0.86658 0.0
C1401 C 0.63736 0.42432 0.87756 0.0
C1402 C 0.64166 0.42176 0.86815 0.0
C1403 C 0.66295 0.40013 0.86484 0.0
C1404 C 0.625 0.44163 0.86158 0.0
C1405 C 0.61273 0.4445 0.88165 0.0
C1406 C 0.61136 0.4286 0.85389 0.0
C1407 C 0.59847 0.44739 0.84725 0.0
C1408 C 0.59826 0.4795 0.84829 0.0
C1409 C 0.6109 0.49258 0.85608 0.0
C1410 C 0.62469 0.47385 0.86259 0.0
H1411 H 0.60471 0.43506 0.88819 0.0
H1412 H 0.62243 0.4677 0.88298 0.0
H1413 H 0.59251 0.44685 0.87713 0.0
H1414 H 0.61128 0.40388 0.85292 0.0
H1415 H 0.58897 0.43685 0.84125 0.0
H1416 H 0.74531 0.33435 0.10661 0.0
H1417 H 0.77715 0.35804 0.1184 0.0
H1418 H 0.83634 0.39721 0.09811 0.0
H1419 H 0.80492 0.37372 0.08634 0.0
H1420 H 0.84639 0.3542 0.12125 0.0
H1421 H 0.8018 0.47147 0.11356 0.0
H1422 H 0.78171 0.43686 0.11023 0.0
H1423 H 0.81524 0.44914 0.10415 0.0
C1424 C 0.76533 0.34768 0.10467 0.0
C1425 C 0.77252 0.35227 0.09555 0.0
C1426 C 0.78345 0.3612 0.1114 0.0
C1427 C 0.80881 0.37964 0.10909 0.0
C1428 C 0.81665 0.38332 0.10001 0.0
H1429 H 0.92526 0.50438 0.14003 0.0
H1430 H 0.90253 0.47345 0.12791 0.0
C1431 C 0.7987 0.36977 0.0933 0.0
C1432 C 0.82653 0.39605 0.11612 0.0
H1433 H 0.84137 0.46787 0.12438 0.0
C1434 C 0.84532 0.37904 0.12197 0.0
C1435 C 0.82518 0.42845 0.11696 0.0
C1436 C 0.80477 0.44767 0.11095 0.0
C1437 C 0.86312 0.39368 0.12861 0.0
C1438 C 0.86146 0.4261 0.12954 0.0
C1439 C 0.84276 0.44306 0.12363 0.0
C1440 C 0.87769 0.44288 0.13685 0.0
C1441 C 0.88392 0.37433 0.13446 0.0
C1442 C 0.87145 0.43587 0.14588 0.0
C1443 C 0.88454 0.45331 0.15279 0.0
C1444 C 0.90387 0.47841 0.1508 0.0
C1445 C 0.91061 0.48509 0.14176 0.0
C1446 C 0.89756 0.4675 0.13484 0.0
H1447 H 0.89002 0.35226 0.13111 0.0
H1448 H 0.90549 0.38679 0.13615 0.0
H1449 H 0.87176 0.36872 0.14082 0.0
H1450 H 0.85559 0.41753 0.1476 0.0
H1451 H 0.87863 0.44772 0.15968 0.0
H1452 H 0.87398 0.55178 0.33681 0.0
H1453 H 0.85165 0.58282 0.34886 0.0
H1454 H 0.8937 0.5237 0.36866 0.0
H1455 H 0.91614 0.49219 0.3566 0.0
H1456 H 0.81093 0.55496 0.36274 0.0
H1457 H 0.91335 0.61563 0.37666 0.0
H1458 H 0.91237 0.60068 0.36531 0.0
H1459 H 0.91682 0.57488 0.37464 0.0
C1460 C 0.87894 0.54559 0.34373 0.0
C1461 C 0.89685 0.5195 0.34576 0.0
C1462 C 0.86609 0.56335 0.35059 0.0
C1463 C 0.87118 0.55563 0.35962 0.0
C1464 C 0.88983 0.5302 0.36171 0.0
H1465 H 0.80364 0.62393 0.41045 0.0
H1466 H 0.83235 0.59997 0.39819 0.0
C1467 C 0.90257 0.51222 0.35482 0.0
C1468 C 0.85499 0.57285 0.3668 0.0
H1469 H 0.8661 0.62252 0.3843 0.0
C1470 C 0.8229 0.56985 0.36744 0.0
C1471 C 0.87081 0.59204 0.37292 0.0
C1472 C 0.90523 0.5963 0.37237 0.0
C1473 C 0.80615 0.58515 0.37417 0.0
C1474 C 0.82188 0.60471 0.38026 0.0
C1475 C 0.85404 0.60772 0.37959 0.0
C1476 C 0.8055 0.62113 0.3876 0.0
C1477 C 0.77193 0.57937 0.37486 0.0
C1478 C 0.78131 0.64167 0.38573 0.0
C1479 C 0.76461 0.65527 0.39274 0.0
C1480 C 0.77215 0.64887 0.40175 0.0
C1481 C 0.79722 0.62935 0.40359 0.0
C1482 C 0.8137 0.61562 0.39659 0.0
H1483 H 0.76508 0.55787 0.37133 0.0
H1484 H 0.76455 0.57767 0.382 0.0
H1485 H 0.75934 0.59878 0.37169 0.0
H1486 H 0.77506 0.64686 0.37884 0.0
H1487 H 0.74554 0.67036 0.39112 0.0
H1488 H 0.29952 0.37909 0.40886 0.0
H1489 H 0.3288 0.4031 0.39673 0.0
H1490 H 0.2726 0.35601 0.37713 0.0
H1491 H 0.24252 0.33248 0.38928 0.0
H1492 H 0.36336 0.37935 0.38319 0.0
H1493 H 0.2644 0.44475 0.36923 0.0
H1494 H 0.26267 0.42544 0.37996 0.0
H1495 H 0.25806 0.40395 0.3697 0.0
C1496 C 0.29339 0.37376 0.40197 0.0
C1497 C 0.26856 0.35407 0.40002 0.0
C1498 C 0.3102 0.38749 0.39504 0.0
C1499 C 0.30257 0.38177 0.38603 0.0
C1500 C 0.27841 0.36132 0.38404 0.0
H1501 H 0.37538 0.4485 0.33552 0.0
H1502 H 0.35242 0.4176 0.3475 0.0
C1503 C 0.26137 0.34775 0.39099 0.0
C1504 C 0.31977 0.39762 0.37875 0.0
H1505 H 0.311 0.44656 0.36095 0.0
C1506 C 0.35193 0.39408 0.37833 0.0
C1507 C 0.30483 0.41705 0.37247 0.0
C1508 C 0.27064 0.42332 0.37289 0.0
C1509 C 0.36947 0.40915 0.37172 0.0
C1510 C 0.35444 0.42822 0.36541 0.0
C1511 C 0.32235 0.43173 0.3658 0.0
C1512 C 0.37144 0.44493 0.35831 0.0
C1513 C 0.40387 0.40438 0.37144 0.0
C1514 C 0.3901 0.47028 0.36046 0.0
C1515 C 0.40321 0.48815 0.35362 0.0
C1516 C 0.3978 0.48085 0.34454 0.0
C1517 C 0.38006 0.45471 0.34245 0.0
C1518 C 0.36686 0.43703 0.34927 0.0
H1519 H 0.41133 0.38512 0.37585 0.0
H1520 H 0.41154 0.39962 0.36445 0.0
H1521 H 0.41556 0.42573 0.37372 0.0
H1522 H 0.39357 0.47689 0.36742 0.0
H1523 H 0.41665 0.50823 0.35544 0.0
H1524 H 0.38744 0.55997 0.15793 0.0
H1525 H 0.36382 0.59102 0.14607 0.0
H1526 H 0.38546 0.52075 0.12657 0.0
H1527 H 0.40941 0.48944 0.13843 0.0
H1528 H 0.39027 0.61119 0.12802 0.0
H1529 H 0.28759 0.53431 0.12671 0.0
H1530 H 0.31313 0.53545 0.13631 0.0
H1531 H 0.32495 0.51637 0.12618 0.0
C1532 C 0.38753 0.55125 0.1511 0.0
C1533 C 0.40013 0.52222 0.1491 0.0
C1534 C 0.37408 0.56906 0.14434 0.0
C1535 C 0.37274 0.55801 0.13549 0.0
C1536 C 0.38621 0.52952 0.13339 0.0
H1537 H 0.30855 0.64353 0.08651 0.0
H1538 H 0.33961 0.62033 0.09844 0.0
C1539 C 0.39995 0.51176 0.14015 0.0
C1540 C 0.35573 0.57568 0.1286 0.0
H1541 H 0.28875 0.57605 0.11658 0.0
C1542 C 0.36813 0.60354 0.12548 0.0
C1543 C 0.32666 0.56576 0.12545 0.0
C1544 C 0.31203 0.53645 0.12884 0.0
C1545 C 0.35229 0.62159 0.11914 0.0
C1546 C 0.32344 0.61141 0.11589 0.0
C1547 C 0.3109 0.58374 0.11911 0.0
C1548 C 0.30613 0.62861 0.10895 0.0
C1549 C 0.36628 0.65156 0.11604 0.0
C1550 C 0.27713 0.64117 0.11094 0.0
C1551 C 0.25935 0.65461 0.10414 0.0
C1552 C 0.27017 0.65526 0.09523 0.0
C1553 C 0.29963 0.64347 0.09332 0.0
C1554 C 0.31746 0.63028 0.10013 0.0
H1555 H 0.38521 0.65925 0.12054 0.0
H1556 H 0.37585 0.6485 0.10917 0.0
H1557 H 0.3485 0.66991 0.11572 0.0
H1558 H 0.26797 0.6399 0.11771 0.0
H1559 H 0.23665 0.66329 0.10579 0.0
H1560 H 0.08679 0.48346 0.85681 0.0
H1561 H 0.11107 0.51282 0.86901 0.0
H1562 H 0.13368 0.58535 0.85033 0.0
H1563 H 0.10962 0.55626 0.83813 0.0
H1564 H 0.17558 0.53071 0.86808 0.0
H1565 H 0.09737 0.63079 0.87272 0.0
H1566 H 0.08497 0.59516 0.86757 0.0
H1567 H 0.10759 0.6222 0.86126 0.0
C1568 C 0.09627 0.50599 0.85536 0.0
C1569 C 0.09632 0.51759 0.84653 0.0
C1570 C 0.11023 0.52265 0.86231 0.0
C1571 C 0.12397 0.55129 0.86056 0.0
C1572 C 0.12283 0.56348 0.85183 0.0
H1573 H 0.26961 0.64807 0.88888 0.0
H1574 H 0.23668 0.6233 0.87756 0.0
C1575 C 0.10916 0.54677 0.84488 0.0
C1576 C 0.14203 0.56718 0.86761 0.0
H1577 H 0.14644 0.63368 0.87981 0.0
C1578 C 0.16914 0.55313 0.8707 0.0
C1579 C 0.13349 0.5964 0.87097 0.0
C1580 C 0.10414 0.61202 0.86803 0.0
C1581 C 0.1883 0.56783 0.87697 0.0
C1582 C 0.18015 0.59735 0.88018 0.0
C1583 C 0.15273 0.61117 0.87723 0.0
C1584 C 0.19944 0.61372 0.88683 0.0
C1585 C 0.21705 0.55167 0.88018 0.0
C1586 C 0.18907 0.61695 0.8957 0.0
C1587 C 0.20779 0.63088 0.90216 0.0
C1588 C 0.23712 0.64212 0.89983 0.0
C1589 C 0.24713 0.63964 0.89086 0.0
C1590 C 0.22843 0.62544 0.88441 0.0
H1591 H 0.21743 0.52702 0.87818 0.0
H1592 H 0.23756 0.56313 0.87723 0.0
H1593 H 0.21899 0.55322 0.88762 0.0
H1594 H 0.16673 0.60808 0.89767 0.0
H1595 H 0.19938 0.63256 0.909 0.0
H1596 H 0.26418 0.34057 0.60764 0.0
H1597 H 0.23334 0.36534 0.61943 0.0
H1598 H 0.17557 0.40674 0.59915 0.0
H1599 H 0.20569 0.38167 0.5874 0.0
H1600 H 0.22464 0.42702 0.62214 0.0
H1601 H 0.11205 0.3705 0.61602 0.0
H1602 H 0.14756 0.35627 0.61126 0.0
H1603 H 0.12783 0.3882 0.60614 0.0
C1604 C 0.24467 0.35465 0.60571 0.0
C1605 C 0.23722 0.35899 0.5966 0.0
C1606 C 0.22711 0.36881 0.61245 0.0
C1607 C 0.20182 0.38744 0.61017 0.0
C1608 C 0.19444 0.39181 0.60107 0.0
H1609 H 0.08581 0.51439 0.64044 0.0
H1610 H 0.11168 0.48511 0.62846 0.0
C1611 C 0.21183 0.37758 0.59436 0.0
C1612 C 0.18414 0.40372 0.61726 0.0
H1613 H 0.11161 0.41454 0.62565 0.0
C1614 C 0.19998 0.4241 0.62295 0.0
C1615 C 0.15191 0.39998 0.61828 0.0
C1616 C 0.13387 0.37733 0.61266 0.0
C1617 C 0.18438 0.44118 0.62954 0.0
C1618 C 0.15219 0.43763 0.63049 0.0
C1619 C 0.13628 0.4173 0.62482 0.0
C1620 C 0.13497 0.45407 0.63759 0.0
C1621 C 0.20232 0.46319 0.6354 0.0
C1622 C 0.13907 0.44575 0.64661 0.0
C1623 C 0.1243 0.4622 0.65342 0.0
C1624 C 0.10518 0.48735 0.65132 0.0
C1625 C 0.1004 0.49514 0.64225 0.0
C1626 C 0.11514 0.47849 0.63542 0.0
H1627 H 0.22586 0.46748 0.63275 0.0
H1628 H 0.19003 0.48553 0.63599 0.0
H1629 H 0.20448 0.45333 0.64226 0.0
H1630 H 0.15409 0.42677 0.64839 0.0
H1631 H 0.12843 0.45555 0.66034 0.0
H1632 H 0.23547 0.10773 0.96351 0.0
H1633 H 0.24587 0.10424 0.97967 0.0
H1634 H 0.25157 0.20317 0.98126 0.0
H1635 H 0.24211 0.20698 0.9651 0.0
H1636 H 0.29987 0.13121 0.98949 0.0
H1637 H 0.18561 0.17523 0.00057 0.0
H1638 H 0.19202 0.1594 0.98948 0.0
H1639 H 0.20519 0.19752 0.99212 0.0
C1640 C 0.23916 0.12876 0.96727 0.0
C1641 C 0.23775 0.15765 0.96299 0.0
C1642 C 0.24499 0.1267 0.97651 0.0
C1643 C 0.24921 0.15346 0.98163 0.0
C1644 C 0.24795 0.18229 0.97742 0.0
H1645 H 0.31747 0.18396 0.03564 0.0
H1646 H 0.31109 0.18122 0.01928 0.0
C1647 C 0.24233 0.18439 0.96818 0.0
C1648 C 0.25502 0.15132 0.99141 0.0
H1649 H 0.22334 0.16794 0.01186 0.0
C1650 C 0.28316 0.13912 0.9944 0.0
C1651 C 0.23303 0.16149 0.99776 0.0
C1652 C 0.20213 0.17396 0.99487 0.0
C1653 C 0.2901 0.13735 0.00362 0.0
C1654 C 0.26835 0.14813 0.00995 0.0
C1655 C 0.24001 0.15982 0.00696 0.0
C1656 C 0.27438 0.14756 0.01975 0.0
C1657 C 0.32047 0.12376 0.00653 0.0
C1658 C 0.256 0.12938 0.02539 0.0
C1659 C 0.25969 0.13073 0.03472 0.0
C1660 C 0.28162 0.15061 0.03859 0.0
C1661 C 0.30063 0.16815 0.03288 0.0
C1662 C 0.29699 0.16668 0.02354 0.0
H1663 H 0.33185 0.11084 0.001 0.0
H1664 H 0.33612 0.14259 0.00868 0.0
H1665 H 0.3172 0.10806 0.01236 0.0
H1666 H 0.23846 0.11446 0.02258 0.0
H1667 H 0.24506 0.11648 0.0389 0.0
H1668 H 0.12472 0.06254 0.28549 0.0
H1669 H 0.12826 0.05602 0.26911 0.0
H1670 H 0.05857 0.98536 0.2702 0.0
H1671 H 0.05453 0.99198 0.28646 0.0
H1672 H 0.11403 0.96911 0.26064 0.0
H1673 H 0.06342 0.08064 0.24953 0.0
H1674 H 0.09377 0.0824 0.25777 0.0
H1675 H 0.05749 0.06537 0.26071 0.0
C1676 C 0.10984 0.04596 0.28222 0.0
C1677 C 0.08949 0.02764 0.28728 0.0
C1678 C 0.11193 0.04223 0.27288 0.0
C1679 C 0.09361 0.02025 0.26847 0.0
C1680 C 0.07299 0.00234 0.27349 0.0
H1681 H 0.04508 0.98535 0.21352 0.0
H1682 H 0.04749 0.99687 0.22961 0.0
C1683 C 0.07083 0.00607 0.28278 0.0
C1684 C 0.09637 0.01494 0.25867 0.0
H1685 H 0.08043 0.04668 0.23818 0.0
C1686 C 0.10693 0.98612 0.25571 0.0
C1687 C 0.08682 0.03714 0.25231 0.0
C1688 C 0.07452 0.0681 0.25519 0.0
C1689 C 0.10784 0.97873 0.24653 0.0
C1690 C 0.0982 1.00089 0.24016 0.0
C1691 C 0.08795 0.02984 0.24311 0.0
C1692 C 0.09715 0.99386 0.23042 0.0
C1693 C 0.11816 0.94697 0.24371 0.0
C1694 C 0.12432 0.98843 0.22556 0.0
C1695 C 0.12302 0.98164 0.21637 0.0
C1696 C 0.0945 0.98016 0.21189 0.0
C1697 C 0.06736 0.98573 0.2168 0.0
C1698 C 0.0687 0.99262 0.22597 0.0
H1699 H 0.1192 0.9308 0.2495 0.0
H1700 H 0.10236 0.93733 0.23855 0.0
H1701 H 0.14151 0.94846 0.2407 0.0
H1702 H 0.14652 0.9896 0.22887 0.0
H1703 H 0.14431 0.97738 0.21278 0.0
H1704 H 0.27576 0.86744 0.53873 0.0
H1705 H 0.28399 0.86907 0.52245 0.0
H1706 H 0.20435 0.81116 0.5185 0.0
H1707 H 0.19576 0.80983 0.53478 0.0
H1708 H 0.29626 0.8219 0.51121 0.0
H1709 H 0.18803 0.87894 0.50059 0.0
H1710 H 0.20041 0.87788 0.51218 0.0
H1711 H 0.18135 0.84515 0.50725 0.0
C1712 C 0.25992 0.85518 0.53438 0.0
C1713 C 0.23508 0.83853 0.53802 0.0
C1714 C 0.2646 0.8562 0.52508 0.0
C1715 C 0.24455 0.84061 0.51924 0.0
C1716 C 0.21966 0.82404 0.52286 0.0
H1717 H 0.24342 0.79363 0.46298 0.0
H1718 H 0.23596 0.79748 0.47924 0.0
C1719 C 0.21482 0.82322 0.53216 0.0
C1720 C 0.25061 0.84042 0.50941 0.0
H1721 H 0.2179 0.85537 0.48897 0.0
C1722 C 0.27924 0.82951 0.50635 0.0
C1723 C 0.22841 0.85043 0.50308 0.0
C1724 C 0.19796 0.86405 0.50594 0.0
C1725 C 0.28592 0.82758 0.49713 0.0
C1726 C 0.26345 0.83689 0.49082 0.0
C1727 C 0.23499 0.84812 0.49386 0.0
C1728 C 0.26875 0.83444 0.48102 0.0
C1729 C 0.31662 0.81487 0.49415 0.0
C1730 C 0.28968 0.85402 0.47667 0.0
C1731 C 0.29379 0.85215 0.46734 0.0
C1732 C 0.277 0.83064 0.46222 0.0
C1733 C 0.25635 0.81081 0.46668 0.0
C1734 C 0.25215 0.81283 0.47597 0.0
H1735 H 0.32963 0.80438 0.49982 0.0
H1736 H 0.31334 0.79724 0.48882 0.0
H1737 H 0.33073 0.83376 0.49127 0.0
H1738 H 0.30245 0.87107 0.48046 0.0
H1739 H 0.30953 0.86806 0.46413 0.0
H1740 H 0.45506 0.97338 0.7862 0.0
H1741 H 0.45275 0.98209 0.76998 0.0
H1742 H 0.35355 0.97828 0.77091 0.0
H1743 H 0.35558 0.96904 0.78717 0.0
H1744 H 0.42453 0.94446 0.75638 0.0
H1745 H 0.37316 0.06166 0.75846 0.0
H1746 H 0.39108 0.04312 0.76799 0.0
H1747 H 0.3532 0.03174 0.76446 0.0
C1748 C 0.43272 0.97393 0.78295 0.0
C1749 C 0.40548 0.97044 0.78799 0.0
C1750 C 0.43147 0.97913 0.77369 0.0
C1751 C 0.403 0.98118 0.76929 0.0
C1752 C 0.37574 0.97729 0.77423 0.0
H1753 H 0.35968 0.02226 0.71323 0.0
H1754 H 0.35653 0.00989 0.72928 0.0
C1755 C 0.37696 0.97202 0.78351 0.0
C1756 C 0.40206 0.98734 0.7595 0.0
H1757 H 0.38127 0.04127 0.74393 0.0
C1758 C 0.41502 0.96558 0.75364 0.0
C1759 C 0.38954 0.01487 0.75598 0.0
C1760 C 0.37613 0.03937 0.76203 0.0
C1761 C 0.41581 0.97062 0.74432 0.0
C1762 C 0.40388 0.99846 0.74081 0.0
C1763 C 0.39043 0.01999 0.74666 0.0
C1764 C 0.40582 0.00599 0.73111 0.0
C1765 C 0.42909 0.94594 0.73831 0.0
C1766 C 0.43459 0.00838 0.72686 0.0
C1767 C 0.43647 0.01522 0.7177 0.0
C1768 C 0.40958 0.02009 0.71261 0.0
C1769 C 0.38079 0.01824 0.71693 0.0
C1770 C 0.37895 0.01134 0.7261 0.0
H1771 H 0.42899 0.92306 0.74166 0.0
H1772 H 0.41603 0.94419 0.73191 0.0
H1773 H 0.45334 0.95181 0.73668 0.0
H1774 H 0.45564 0.00493 0.73065 0.0
H1775 H 0.45899 0.01614 0.71458 0.0
H1776 H 0.74093 0.79144 0.96407 0.0
H1777 H 0.75041 0.79415 0.98026 0.0
H1778 H 0.74385 0.89314 0.97928 0.0
H1779 H 0.73374 0.89071 0.96308 0.0
H1780 H 0.7963 0.86885 0.98912 0.0
H1781 H 0.68491 0.81689 -0.00039 0.0
H1782 H 0.70618 0.79534 0.99136 0.0
H1783 H 0.69108 0.83258 0.9885 0.0
C1784 C 0.74102 0.8138 0.9673 0.0
C1785 C 0.73627 0.84086 0.96227 0.0
C1786 C 0.7466 0.81528 0.97655 0.0
C1787 C 0.74751 0.84381 0.98096 0.0
C1788 C 0.7432 0.8709 0.97598 0.0
H1789 H 0.7378 0.87514 0.03839 0.0
H1790 H 0.7314 0.87695 0.02207 0.0
C1791 C 0.73752 0.86945 0.96672 0.0
C1792 C 0.75301 0.84532 0.99078 0.0
H1793 H 0.72217 0.82473 0.01102 0.0
C1794 C 0.78011 0.8593 0.99393 0.0
C1795 C 0.73167 0.83307 0.997 0.0
C1796 C 0.70167 0.81883 0.99399 0.0
C1797 C 0.78665 0.8609 0.00317 0.0
C1798 C 0.76562 0.84799 0.00938 0.0
C1799 C 0.73833 0.83443 0.00623 0.0
C1800 C 0.77115 0.84856 0.01922 0.0
C1801 C 0.81576 0.8767 0.00624 0.0
C1802 C 0.79578 0.83214 0.02301 0.0
C1803 C 0.7994 0.83086 0.03236 0.0
C1804 C 0.77832 0.84584 0.03807 0.0
C1805 C 0.75414 0.8629 0.0342 0.0
C1806 C 0.75053 0.86412 0.02488 0.0
H1807 H 0.82582 0.89135 0.00086 0.0
H1808 H 0.81128 0.89123 0.01225 0.0
H1809 H 0.83306 0.85904 0.00812 0.0
H1810 H 0.81166 0.81955 0.01876 0.0
H1811 H 0.81804 0.81725 0.03513 0.0
H1812 H 0.92214 0.9801 0.7886 0.0
H1813 H 0.92194 0.9728 0.77237 0.0
H1814 H 0.87485 0.05944 0.76897 0.0
H1815 H 0.8734 0.06627 0.78533 0.0
H1816 H 0.85131 0.01435 0.75806 0.0
H1817 H 0.97844 0.01733 0.75516 0.0
H1818 H 0.96542 0.98847 0.76291 0.0
H1819 H 0.95853 0.02853 0.7653 0.0
C1820 C 0.91123 0.99746 0.78445 0.0
C1821 C 0.89775 0.02382 0.78832 0.0
C1822 C 0.91158 0.99342 0.77514 0.0
C1823 C 0.89899 0.01587 0.76945 0.0
C1824 C 0.88497 0.04196 0.77325 0.0
H1825 H 0.94001 0.02348 0.71244 0.0
H1826 H 0.93487 0.03345 0.72849 0.0
C1827 C 0.88438 0.04594 0.7826 0.0
C1828 C 0.90059 0.01195 0.75955 0.0
H1829 H 0.95095 0.99926 0.74231 0.0
C1830 C 0.87308 0.01127 0.75459 0.0
C1831 C 0.92906 0.0084 0.75502 0.0
C1832 C 0.95954 0.01104 0.75986 0.0
C1833 C 0.87323 0.00644 0.74524 0.0
C1834 C 0.90163 0.0014 0.74079 0.0
C1835 C 0.92915 0.00271 0.74574 0.0
C1836 C 0.90361 0.99555 0.73096 0.0
C1837 C 0.84303 0.00738 0.74022 0.0
C1838 C 0.88796 0.97072 0.72699 0.0
C1839 C 0.89037 0.96527 0.71773 0.0
C1840 C 0.90886 0.9843 0.71229 0.0
C1841 C 0.925 0.00874 0.71636 0.0
C1842 C 0.92231 0.01434 0.72557 0.0
H1843 H 0.82518 0.02027 0.74404 0.0
H1844 H 0.84578 0.01824 0.73351 0.0
H1845 H 0.83452 0.98351 0.73925 0.0
H1846 H 0.87402 0.95541 0.73105 0.0
H1847 H 0.87744 0.94638 0.71484 0.0
H1848 H 0.69326 0.19186 0.53456 0.0
H1849 H 0.70278 0.18898 0.51834 0.0
H1850 H 0.77948 0.12789 0.52306 0.0
H1851 H 0.7703 0.131 0.53927 0.0
H1852 H 0.79466 0.17473 0.51189 0.0
H1853 H 0.68567 0.12106 0.50043 0.0
H1854 H 0.67957 0.15515 0.50702 0.0
H1855 H 0.69702 0.12184 0.51212 0.0
C1856 C 0.71179 0.1774 0.53212 0.0
C1857 C 0.73106 0.1617 0.53817 0.0
C1858 C 0.71718 0.1757 0.52285 0.0
C1859 C 0.74161 0.1579 0.51948 0.0
C1860 C 0.76049 0.14174 0.52551 0.0
H1861 H 0.81165 0.12931 0.46486 0.0
H1862 H 0.80342 0.1264 0.48117 0.0
C1863 C 0.75526 0.14359 0.53477 0.0
C1864 C 0.74866 0.1576 0.50972 0.0
H1865 H 0.71748 0.14339 0.48904 0.0
C1866 C 0.7779 0.16756 0.50689 0.0
C1867 C 0.72677 0.1482 0.50322 0.0
C1868 C 0.69561 0.13567 0.50585 0.0
C1869 C 0.78553 0.16921 0.49773 0.0
C1870 C 0.7634 0.1605 0.49125 0.0
C1871 C 0.73433 0.15014 0.49406 0.0
C1872 C 0.76956 0.16294 0.48149 0.0
C1873 C 0.81684 0.18109 0.49501 0.0
C1874 C 0.75329 0.18446 0.47633 0.0
C1875 C 0.75809 0.18636 0.46707 0.0
C1876 C 0.77905 0.16651 0.46275 0.0
C1877 C 0.79565 0.14519 0.46798 0.0
C1878 C 0.7909 0.1434 0.47728 0.0
H1879 H 0.8294 0.1916 0.50076 0.0
H1880 H 0.83087 0.16172 0.49237 0.0
H1881 H 0.81463 0.19848 0.48957 0.0
H1882 H 0.73681 0.1998 0.47948 0.0
H1883 H 0.74531 0.2034 0.46327 0.0
H1884 H 0.62181 0.94116 0.28619 0.0
H1885 H 0.62579 0.94818 0.26984 0.0
H1886 H 0.55415 0.01684 0.27083 0.0
H1887 H 0.54954 0.00962 0.28706 0.0
H1888 H 0.57731 0.94349 0.25608 0.0
H1889 H 0.62945 0.06001 0.25853 0.0
H1890 H 0.62901 0.03325 0.26784 0.0
H1891 H 0.59496 0.05473 0.26504 0.0
C1892 C 0.60664 0.95747 0.28291 0.0
C1893 C 0.58557 0.97507 0.28794 0.0
C1894 C 0.60907 0.96155 0.27359 0.0
C1895 C 0.59063 0.9834 0.26919 0.0
C1896 C 0.56901 1.00032 0.27414 0.0
H1897 H 0.54236 0.01427 0.21389 0.0
H1898 H 0.54432 0.00211 0.22995 0.0
C1899 C 0.56648 0.9962 0.28342 0.0
C1900 C 0.59387 0.9888 0.25942 0.0
H1901 H 0.61201 0.04434 0.24405 0.0
C1902 C 0.58514 0.96541 0.25343 0.0
C1903 C 0.60442 0.01732 0.25601 0.0
C1904 C 0.61528 0.04273 0.26217 0.0
C1905 C 0.58565 0.97023 0.24409 0.0
C1906 C 0.59489 0.99925 0.2407 0.0
C1907 C 0.60468 0.02222 0.24669 0.0
C1908 C 0.59384 0.00651 0.23098 0.0
C1909 C 0.57626 0.9443 0.23791 0.0
C1910 C 0.62097 0.01377 0.22631 0.0
C1911 C 0.61991 0.02098 0.21715 0.0
C1912 C 0.59163 0.02139 0.21253 0.0
C1913 C 0.56445 0.01449 0.21728 0.0
C1914 C 0.56557 0.00716 0.22642 0.0
H1915 H 0.57744 0.92161 0.24135 0.0
H1916 H 0.55215 0.948 0.23568 0.0
H1917 H 0.59116 0.94361 0.23184 0.0
H1918 H 0.64298 0.01366 0.22975 0.0
H1919 H 0.64118 0.02646 0.21369 0.0
H1920 H 0.81377 0.62872 0.53617 0.0
H1921 H 0.8079 0.62691 0.51976 0.0
H1922 H 0.7414 0.70055 0.52106 0.0
H1923 H 0.7473 0.70274 0.53738 0.0
H1924 H 0.72214 0.64876 0.51093 0.0
H1925 H 0.83838 0.6903 0.50085 0.0
H1926 H 0.83758 0.65873 0.50868 0.0
H1927 H 0.82317 0.69571 0.51205 0.0
C1928 C 0.79823 0.6448 0.53294 0.0
C1929 C 0.78088 0.66577 0.53808 0.0
C1930 C 0.79489 0.64372 0.52358 0.0
C1931 C 0.77434 0.66372 0.51922 0.0
C1932 C 0.75731 0.68486 0.52431 0.0
H1933 H 0.75011 0.71355 0.46361 0.0
H1934 H 0.75991 0.71142 0.47981 0.0
C1935 C 0.76061 0.68597 0.53364 0.0
C1936 C 0.76959 0.66216 0.50937 0.0
H1937 H 0.8047 0.67509 0.48916 0.0
C1938 C 0.7402 0.65437 0.50616 0.0
C1939 C 0.79317 0.66979 0.5032 0.0
C1940 C 0.82482 0.67935 0.50632 0.0
C1941 C 0.73367 0.65413 0.49692 0.0
C1942 C 0.7573 0.66153 0.49074 0.0
C1943 C 0.78673 0.66924 0.49394 0.0
C1944 C 0.75155 0.66247 0.48094 0.0
C1945 C 0.70135 0.64681 0.49385 0.0
C1946 C 0.74381 0.63558 0.47622 0.0
C1947 C 0.73799 0.63674 0.46698 0.0
C1948 C 0.73988 0.66483 0.46229 0.0
C1949 C 0.74793 0.69167 0.46705 0.0
C1950 C 0.75381 0.69046 0.47628 0.0
H1951 H 0.6845 0.64811 0.49947 0.0
H1952 H 0.69396 0.66289 0.48845 0.0
H1953 H 0.70075 0.6231 0.49107 0.0
H1954 H 0.74232 0.61369 0.47969 0.0
H1955 H 0.73173 0.61571 0.46351 0.0
H1956 H 0.62703 0.44681 0.71406 0.0
H1957 H 0.62935 0.45328 0.73046 0.0
H1958 H 0.55772 0.52191 0.72904 0.0
H1959 H 0.55471 0.51508 0.71277 0.0
H1960 H 0.64224 0.50844 0.7401 0.0
H1961 H 0.52648 0.46258 0.74848 0.0
H1962 H 0.54486 0.45567 0.73776 0.0
H1963 H 0.52601 0.49179 0.73993 0.0
C1964 C 0.61149 0.46294 0.71727 0.0
C1965 C 0.5907 0.48045 0.71212 0.0
C1966 C 0.61298 0.46675 0.72662 0.0
C1967 C 0.59346 0.48782 0.73096 0.0
C1968 C 0.57265 0.50519 0.72584 0.0
H1969 H 0.56176 0.55544 0.78481 0.0
H1970 H 0.56364 0.5471 0.76853 0.0
C1971 C 0.5712 0.50147 0.71653 0.0
C1972 C 0.59532 0.49255 0.74082 0.0
H1973 H 0.55243 0.49024 0.76006 0.0
C1974 C 0.62274 0.5042 0.74449 0.0
C1975 C 0.56979 0.48707 0.74651 0.0
C1976 C 0.5402 0.47332 0.743 0.0
C1977 C 0.625 0.5114 0.75368 0.0
C1978 C 0.59928 0.50636 0.75934 0.0
C1979 C 0.57203 0.4943 0.75568 0.0
C1980 C 0.60009 0.51318 0.76911 0.0
C1981 C 0.65455 0.52513 0.75722 0.0
C1982 C 0.62015 0.49706 0.77481 0.0
C1983 C 0.61925 0.5019 0.7841 0.0
C1984 C 0.59812 0.52282 0.78788 0.0
C1985 C 0.57854 0.53945 0.78212 0.0
C1986 C 0.57943 0.53455 0.77282 0.0
H1987 H 0.66905 0.5346 0.75171 0.0
H1988 H 0.64973 0.54378 0.76214 0.0
H1989 H 0.66799 0.50697 0.7607 0.0
H1990 H 0.63596 0.48014 0.7721 0.0
H1991 H 0.63485 0.48894 0.78835 0.0
H1992 H 0.81856 0.31805 0.96326 0.0
H1993 H 0.81008 0.31819 0.97956 0.0
H1994 H 0.73673 0.38416 0.97633 0.0
H1995 H 0.74541 0.38476 0.96008 0.0
H1996 H 0.80808 0.37035 0.99259 0.0
H1997 H 0.69776 0.30627 0.98901 0.0
H1998 H 0.72647 0.30745 0.98021 0.0
H1999 H 0.70189 0.34005 0.9821 0.0
C2000 C 0.80104 0.33308 0.96603 0.0
C2001 C 0.78243 0.35114 0.96035 0.0
C2002 C 0.79613 0.33298 0.97533 0.0
C2003 C 0.77247 0.3508 0.97909 0.0
C2004 C 0.75476 0.36986 0.97351 0.0
H2005 H 0.7292 0.39118 0.03481 0.0
H2006 H 0.74129 0.39373 0.01875 0.0
C2007 C 0.75971 0.37008 0.96423 0.0
C2008 C 0.76546 0.34861 0.9888 0.0
H2009 H 0.71067 0.32375 0.0036 0.0
C2010 C 0.78682 0.36017 0.99502 0.0
C2011 C 0.73786 0.33496 0.99191 0.0
C2012 C 0.71469 0.32122 0.98549 0.0
C2013 C 0.781 0.35893 0.00431 0.0
C2014 C 0.75304 0.34596 0.0074 0.0
C2015 C 0.73195 0.3339 0.00119 0.0
C2016 C 0.74539 0.34442 0.01709 0.0
C2017 C 0.80488 0.37115 0.01076 0.0
C2018 C 0.74303 0.31581 0.0214 0.0
C2019 C 0.73629 0.31424 0.03059 0.0
C2020 C 0.73151 0.34131 0.03561 0.0
C2021 C 0.73323 0.36993 0.03119 0.0
C2022 C 0.74012 0.37145 0.02201 0.0
H2023 H 0.8276 0.37443 0.00745 0.0
H2024 H 0.79716 0.39376 0.01341 0.0
H2025 H 0.80778 0.35529 0.01656 0.0
H2026 H 0.74695 0.29469 0.01769 0.0
H2027 H 0.7356 0.29185 0.03378 0.0
H2028 H 0.85392 0.48186 0.28502 0.0
H2029 H 0.85142 0.4942 0.26897 0.0
H2030 H 0.95059 0.49415 0.26756 0.0
H2031 H 0.95346 0.48269 0.28364 0.0
H2032 H 0.8817 0.54783 0.25987 0.0
H2033 H 0.91911 0.43285 0.24742 0.0
H2034 H 0.90353 0.43855 0.25857 0.0
H2035 H 0.94231 0.45007 0.2561 0.0
C2036 C 0.87524 0.48465 0.28132 0.0
C2037 C 0.9039 0.48115 0.28564 0.0
C2038 C 0.87373 0.4916 0.27215 0.0
C2039 C 0.90081 0.49488 0.2671 0.0
C2040 C 0.92944 0.49133 0.27134 0.0
H2041 H 0.93264 0.5661 0.21333 0.0
H2042 H 0.93077 0.55898 0.22968 0.0
C2043 C 0.931 0.48456 0.28052 0.0
C2044 C 0.89912 0.50219 0.2574 0.0
H2045 H 0.91284 0.47212 0.23657 0.0
C2046 C 0.88846 0.53133 0.25476 0.0
C2047 C 0.9078 0.48047 0.25079 0.0
C2048 C 0.91865 0.44861 0.25331 0.0
C2049 C 0.8866 0.53946 0.24562 0.0
C2050 C 0.89567 0.51787 0.23902 0.0
C2051 C 0.906 0.48863 0.24167 0.0
C2052 C 0.89444 0.52491 0.22929 0.0
C2053 C 0.87465 0.57088 0.24307 0.0
C2054 C 0.87433 0.50842 0.2237 0.0
C2055 C 0.87516 0.51259 0.21439 0.0
C2056 C 0.89642 0.53307 0.21047 0.0
C2057 C 0.91577 0.55042 0.21613 0.0
C2058 C 0.91481 0.54632 0.22547 0.0
H2059 H 0.86334 0.58265 0.24882 0.0
H2060 H 0.89415 0.58539 0.24075 0.0
H2061 H 0.85792 0.56906 0.23744 0.0
H2062 H 0.8584 0.49185 0.22654 0.0
H2063 H 0.85956 0.49927 0.21024 0.0
H2064 H 0.23401 0.36807 0.537 0.0
H2065 H 0.22609 0.36885 0.52068 0.0
H2066 H 0.30555 0.31056 0.5171 0.0
H2067 H 0.31354 0.30948 0.53344 0.0
H2068 H 0.27225 0.38611 0.50624 0.0
H2069 H 0.22896 0.26551 0.50489 0.0
H2070 H 0.22881 0.28796 0.51513 0.0
H2071 H 0.26421 0.27206 0.51098 0.0
C2072 C 0.2498 0.35543 0.53273 0.0
C2073 C 0.27427 0.33851 0.53648 0.0
C2074 C 0.24533 0.35604 0.52343 0.0
C2075 C 0.26506 0.33952 0.51774 0.0
C2076 C 0.28997 0.32325 0.52142 0.0
H2077 H 0.26722 0.29655 0.46117 0.0
H2078 H 0.27534 0.29977 0.47738 0.0
C2079 C 0.29461 0.32282 0.53073 0.0
C2080 C 0.25911 0.33872 0.50796 0.0
H2081 H 0.23505 0.29137 0.49105 0.0
C2082 C 0.26405 0.36549 0.50289 0.0
C2083 C 0.24841 0.31173 0.50368 0.0
C2084 C 0.24203 0.28265 0.50892 0.0
C2085 C 0.25923 0.36577 0.49355 0.0
C2086 C 0.24843 0.33874 0.48924 0.0
C2087 C 0.24328 0.31206 0.49436 0.0
C2088 C 0.24324 0.33726 0.4794 0.0
C2089 C 0.26662 0.39469 0.48835 0.0
C2090 C 0.22215 0.357 0.47515 0.0
C2091 C 0.21775 0.35553 0.46584 0.0
C2092 C 0.23417 0.33405 0.46062 0.0
C2093 C 0.25468 0.31381 0.46495 0.0
C2094 C 0.25918 0.31544 0.47423 0.0
H2095 H 0.28217 0.4102 0.49219 0.0
H2096 H 0.27765 0.38914 0.4818 0.0
H2097 H 0.24497 0.40743 0.48698 0.0
H2098 H 0.20907 0.37355 0.47904 0.0
H2099 H 0.20189 0.37154 0.46272 0.0
H2100 H 0.37178 0.43863 0.21113 0.0
H2101 H 0.36748 0.44505 0.22751 0.0
H2102 H 0.43291 0.51967 0.22651 0.0
H2103 H 0.43771 0.5132 0.21026 0.0
H2104 H 0.41553 0.44405 0.2412 0.0
H2105 H 0.35562 0.55668 0.23905 0.0
H2106 H 0.35811 0.53042 0.22965 0.0
H2107 H 0.39035 0.5545 0.2325 0.0
C2108 C 0.38547 0.45618 0.21442 0.0
C2109 C 0.40477 0.47569 0.20938 0.0
C2110 C 0.38287 0.4599 0.22375 0.0
C2111 C 0.39942 0.48323 0.22816 0.0
C2112 C 0.41942 0.502 0.22319 0.0
H2113 H 0.45058 0.51592 0.28304 0.0
H2114 H 0.44752 0.50362 0.26701 0.0
C2115 C 0.42207 0.49829 0.21391 0.0
C2116 C 0.39606 0.48826 0.23795 0.0
H2117 H 0.376 0.54285 0.2534 0.0
C2118 C 0.40659 0.46548 0.24389 0.0
C2119 C 0.38404 0.5161 0.24142 0.0
C2120 C 0.3711 0.54075 0.23534 0.0
C2121 C 0.40657 0.47037 0.25323 0.0
C2122 C 0.39607 0.4989 0.25666 0.0
C2123 C 0.38435 0.52114 0.25074 0.0
C2124 C 0.3978 0.50649 0.26636 0.0
C2125 C 0.41788 0.44504 0.25934 0.0
C2126 C 0.37092 0.51312 0.27123 0.0
C2127 C 0.37261 0.52053 0.28037 0.0
C2128 C 0.40127 0.5217 0.28478 0.0
C2129 C 0.42819 0.51556 0.27982 0.0
C2130 C 0.42646 0.50809 0.2707 0.0
H2131 H 0.41706 0.42222 0.25597 0.0
H2132 H 0.44217 0.44972 0.26123 0.0
H2133 H 0.40398 0.44395 0.2656 0.0
H2134 H 0.34861 0.51232 0.26797 0.0
H2135 H 0.35151 0.52544 0.28398 0.0
H2136 H 0.28327 0.65302 0.03691 0.0
H2137 H 0.29504 0.65276 0.02081 0.0
H2138 H 0.19893 0.66671 0.01473 0.0
H2139 H 0.18684 0.66658 0.03086 0.0
H2140 H 0.23124 0.61852 0.00432 0.0
H2141 H 0.29095 0.73195 0.00458 0.0
H2142 H 0.30324 0.70444 0.01289 0.0
H2143 H 0.26502 0.72007 0.01343 0.0
C2144 C 0.26457 0.65566 0.03215 0.0
C2145 C 0.2341 0.65978 0.03515 0.0
C2146 C 0.27139 0.65578 0.02297 0.0
C2147 C 0.24789 0.66 0.01662 0.0
C2148 C 0.21738 0.66354 0.01956 0.0
H2149 H 0.25157 0.70787 0.96057 0.0
H2150 H 0.24463 0.70478 0.97688 0.0
C2151 C 0.21054 0.66361 0.02875 0.0
C2152 C 0.25516 0.66101 0.00691 0.0
H2153 H 0.29086 0.70449 0.99086 0.0
C2154 C 0.24435 0.63722 0.00136 0.0
C2155 C 0.27208 0.6856 0.00311 0.0
C2156 C 0.28337 0.71215 0.00877 0.0
C2157 C 0.25009 0.63735 0.99206 0.0
C2158 C 0.26723 0.66182 0.98827 0.0
C2159 C 0.27798 0.68564 0.99382 0.0
C2160 C 0.27271 0.664 0.97847 0.0
C2161 C 0.23716 0.61176 0.98632 0.0
C2162 C 0.29129 0.6424 0.97401 0.0
C2163 C 0.29531 0.64409 0.96468 0.0
C2164 C 0.2807 0.66739 0.95968 0.0
C2165 C 0.26274 0.68941 0.96423 0.0
C2166 C 0.25888 0.68778 0.97354 0.0
H2167 H 0.21982 0.5978 0.99001 0.0
H2168 H 0.22629 0.62125 0.98015 0.0
H2169 H 0.25617 0.59628 0.98421 0.0
H2170 H 0.30245 0.6241 0.97774 0.0
H2171 H 0.30915 0.62673 0.96136 0.0
H2172 H 0.07189 0.44118 0.78318 0.0
H2173 H 0.07299 0.45188 0.76701 0.0
H2174 H 0.14771 0.5159 0.771 0.0
H2175 H 0.14723 0.50482 0.78714 0.0
H2176 H 0.0628 0.51209 0.76002 0.0
H2177 H 0.1757 0.46462 0.74906 0.0
H2178 H 0.15726 0.45313 0.75943 0.0
H2179 H 0.17684 0.48948 0.75873 0.0
C2180 C 0.08912 0.45688 0.78058 0.0
C2181 C 0.10941 0.47222 0.78643 0.0
C2182 C 0.08957 0.46314 0.77136 0.0
C2183 C 0.11051 0.48457 0.76782 0.0
C2184 C 0.13163 0.499 0.77358 0.0
H2185 H 0.13129 0.55851 0.71326 0.0
H2186 H 0.13614 0.5504 0.72957 0.0
C2187 C 0.13114 0.49283 0.78281 0.0
C2188 C 0.10848 0.49373 0.75825 0.0
H2189 H 0.14775 0.49371 0.73834 0.0
C2190 C 0.08134 0.50803 0.75527 0.0
C2191 C 0.13289 0.48877 0.75212 0.0
C2192 C 0.16227 0.47295 0.75495 0.0
C2193 C 0.07785 0.51739 0.7463 0.0
C2194 C 0.10195 0.51176 0.74011 0.0
C2195 C 0.12936 0.49803 0.74312 0.0
C2196 C 0.09829 0.51808 0.73038 0.0
C2197 C 0.04848 0.53342 0.74355 0.0
C2198 C 0.07544 0.50261 0.72548 0.0
C2199 C 0.07255 0.50729 0.71624 0.0
C2200 C 0.09264 0.52733 0.71168 0.0
C2201 C 0.11531 0.54316 0.71661 0.0
C2202 C 0.11823 0.5384 0.7259 0.0
H2203 H 0.03677 0.54415 0.74941 0.0
H2204 H 0.05303 0.5515 0.73843 0.0
H2205 H 0.03246 0.51629 0.74058 0.0
H2206 H 0.06014 0.48646 0.72878 0.0
H2207 H 0.05468 0.49498 0.71264 0.0
H2208 H 0.22079 0.79401 0.08832 0.0
H2209 H 0.22305 0.84983 0.09106 0.0
H2210 H 0.26657 0.86281 0.06525 0.0
H2211 H 0.26356 0.80771 0.06239 0.0
H2212 H 0.27579 0.88526 0.09206 0.0
H2213 H 0.20076 0.92883 0.06487 0.0
H2214 H 0.20064 0.88898 0.06834 0.0
H2215 H 0.22941 0.90291 0.06061 0.0
C2216 C 0.23018 0.80892 0.08316 0.0
C2217 C 0.24214 0.79646 0.07516 0.0
C2218 C 0.23164 0.84073 0.08476 0.0
C2219 C 0.24467 0.86053 0.07831 0.0
C2220 C 0.25589 0.84812 0.07024 0.0
H2221 H 0.34129 0.03199 0.08253 0.0
H2222 H 0.32447 0.97814 0.08235 0.0
C2223 C 0.2545 0.81652 0.06867 0.0
C2224 C 0.24878 0.89386 0.08016 0.0
H2225 H 0.23782 0.96484 0.07084 0.0
C2226 C 0.26707 0.90274 0.08751 0.0
C2227 C 0.23706 0.91671 0.0743 0.0
C2228 C 0.2156 0.9089 0.06665 0.0
C2229 C 0.27527 0.93369 0.08888 0.0
C2230 C 0.26544 0.95621 0.08262 0.0
C2231 C 0.24581 0.94752 0.07555 0.0
C2232 C 0.27579 0.98877 0.08312 0.0
C2233 C 0.29449 0.94189 0.09699 0.0
C2234 C 0.25407 0.01268 0.0834 0.0
C2235 C 0.26364 0.04339 0.08339 0.0
C2236 C 0.29517 0.05088 0.08309 0.0
C2237 C 0.3169 0.02692 0.08286 0.0
C2238 C 0.3073 0.99616 0.08281 0.0
H2239 H 0.29173 0.92463 0.10245 0.0
H2240 H 0.31916 0.94229 0.09504 0.0
H2241 H 0.28823 0.96494 0.09966 0.0
H2242 H 0.22965 0.00755 0.08362 0.0
H2243 H 0.24632 0.06128 0.08373 0.0
H2244 H 0.45449 0.04527 0.34154 0.0
H2245 H 0.39848 0.05077 0.34181 0.0
H2246 H 0.38967 0.97049 0.32488 0.0
H2247 H 0.446 0.96459 0.32481 0.0
H2248 H 0.36495 0.06258 0.32701 0.0
H2249 H 0.322 0.9555 0.34313 0.0
H2250 H 0.36182 0.96731 0.34377 0.0
H2251 H 0.34734 0.94913 0.33376 0.0
C2252 C 0.44052 0.02846 0.33804 0.0
C2253 C 0.45446 0.00458 0.33313 0.0
C2254 C 0.40856 0.0316 0.33818 0.0
C2255 C 0.3898 0.01104 0.33338 0.0
C2256 C 0.40359 0.98631 0.32878 0.0
H2257 H 0.19463 0.02397 0.31964 0.0
H2258 H 0.24921 0.01028 0.32011 0.0
C2259 C 0.43572 0.98294 0.32873 0.0
C2260 C 0.35632 0.01753 0.33255 0.0
H2261 H 0.28445 0.98836 0.33653 0.0
C2262 C 0.34739 0.04635 0.32912 0.0
C2263 C 0.33339 0.99627 0.33524 0.0
C2264 C 0.34153 0.96542 0.33926 0.0
C2265 C 0.31626 0.05456 0.32837 0.0
C2266 C 0.29341 0.03349 0.33115 0.0
C2267 C 0.30215 0.00444 0.33442 0.0
C2268 C 0.26032 0.04166 0.33091 0.0
C2269 C 0.30795 0.0857 0.32458 0.0
C2270 C 0.24856 0.06384 0.33685 0.0
C2271 C 0.21729 0.07155 0.33667 0.0
C2272 C 0.19712 0.05724 0.33054 0.0
C2273 C 0.20922 0.03519 0.32454 0.0
C2274 C 0.24047 0.02736 0.32477 0.0
H2275 H 0.32779 0.09679 0.32114 0.0
H2276 H 0.28859 0.08365 0.31972 0.0
H2277 H 0.30036 0.101 0.33013 0.0
H2278 H 0.26354 0.07494 0.34169 0.0
H2279 H 0.20894 0.08823 0.34149 0.0
H2280 H 0.21547 0.20396 0.59113 0.0
H2281 H 0.21182 0.14781 0.59095 0.0
H2282 H 0.28991 0.14333 0.57303 0.0
H2283 H 0.29384 0.19984 0.57333 0.0
H2284 H 0.19988 0.11739 0.57491 0.0
H2285 H 0.30686 0.0729 0.59092 0.0
H2286 H 0.29361 0.11196 0.59251 0.0
H2287 H 0.31207 0.10105 0.58218 0.0
C2288 C 0.23227 0.1909 0.58732 0.0
C2289 C 0.25479 0.20607 0.5822 0.0
C2290 C 0.23019 0.1589 0.58723 0.0
C2291 C 0.25055 0.14142 0.58197 0.0
C2292 C 0.27425 0.15637 0.57724 0.0
H2293 H 0.23715 0.94512 0.56874 0.0
H2294 H 0.25243 0.99937 0.56886 0.0
C2295 C 0.27651 0.18856 0.57741 0.0
C2296 C 0.24441 0.10815 0.58072 0.0
H2297 H 0.27286 0.03607 0.58464 0.0
C2298 C 0.21588 0.09962 0.57703 0.0
C2299 C 0.26547 0.08507 0.58339 0.0
C2300 C 0.29616 0.09304 0.58754 0.0
C2301 C 0.20754 0.06863 0.5761 0.0
C2302 C 0.22815 0.04557 0.57902 0.0
C2303 C 0.25712 0.05394 0.58244 0.0
C2304 C 0.21922 0.01272 0.57897 0.0
C2305 C 0.17666 0.06077 0.57203 0.0
C2306 C 0.1956 0.00238 0.58465 0.0
C2307 C 0.18693 0.97143 0.58465 0.0
C2308 C 0.20178 0.95015 0.57898 0.0
C2309 C 0.22543 0.96073 0.57327 0.0
C2310 C 0.23418 0.99172 0.57331 0.0
H2311 H 0.16689 0.08041 0.56818 0.0
H2312 H 0.17857 0.04055 0.56749 0.0
H2313 H 0.16027 0.05485 0.5775 0.0
H2314 H 0.18406 0.01825 0.58916 0.0
H2315 H 0.16908 0.96416 0.58926 0.0
H2316 H 0.29011 0.93474 0.85013 0.0
H2317 H 0.23576 0.9495 0.85097 0.0
H2318 H 0.24254 0.99246 0.8249 0.0
H2319 H 0.29667 0.97756 0.82394 0.0
H2320 H 0.20965 0.02803 0.83824 0.0
H2321 H 0.16865 0.90683 0.83551 0.0
H2322 H 0.19587 0.91487 0.84433 0.0
H2323 H 0.20762 0.91788 0.83278 0.0
C2324 C 0.28003 0.94714 0.84455 0.0
C2325 C 0.29778 0.95476 0.83693 0.0
C2326 C 0.249 0.95571 0.84507 0.0
C2327 C 0.23512 0.9719 0.83797 0.0
C2328 C 0.25288 0.9801 0.83047 0.0
H2329 H 0.05661 0.98844 0.81686 0.0
H2330 H 0.11103 0.98316 0.82058 0.0
C2331 C 0.28384 0.97157 0.82994 0.0
C2332 C 0.20176 0.97908 0.8381 0.0
H2333 H 0.13096 0.94549 0.83623 0.0
C2334 C 0.19236 0.01004 0.83793 0.0
C2335 C 0.17935 0.95549 0.83763 0.0
C2336 C 0.18821 0.92187 0.8375 0.0
C2337 C 0.16109 0.018 0.83707 0.0
C2338 C 0.13886 0.99439 0.83638 0.0
C2339 C 0.14817 0.96349 0.83683 0.0
C2340 C 0.10631 1.00087 0.8341 0.0
C2341 C 0.15206 0.05146 0.83648 0.0
C2342 C 0.08571 0.01323 0.84044 0.0
C2343 C 0.05432 0.01619 0.83833 0.0
C2344 C 0.04326 0.00656 0.82988 0.0
C2345 C 0.06432 0.99545 0.82348 0.0
C2346 C 0.09545 0.99255 0.82557 0.0
H2347 H 0.17238 0.06701 0.83651 0.0
H2348 H 0.1386 0.0556 0.83024 0.0
H2349 H 0.13708 0.05745 0.84227 0.0
H2350 H 0.09371 0.0196 0.84709 0.0
H2351 H 0.03857 0.02469 0.8434 0.0
H2352 H 0.29127 0.19846 0.40707 0.0
H2353 H 0.29298 0.14217 0.40749 0.0
H2354 H 0.21424 0.14116 0.42518 0.0
H2355 H 0.21242 0.19781 0.42475 0.0
H2356 H 0.27023 0.10894 0.4314 0.0
H2357 H 0.23415 0.07442 0.397 0.0
H2358 H 0.26173 0.10529 0.39744 0.0
H2359 H 0.22376 0.11103 0.40194 0.0
C2360 C 0.27399 0.18617 0.41091 0.0
C2361 C 0.25177 0.20235 0.4159 0.0
C2362 C 0.27488 0.15408 0.41111 0.0
C2363 C 0.25365 0.13759 0.41633 0.0
C2364 C 0.23068 0.15357 0.42107 0.0
H2365 H 0.25367 0.93676 0.41896 0.0
H2366 H 0.23741 0.99062 0.41848 0.0
C2367 C 0.22954 0.18579 0.42078 0.0
C2368 C 0.25763 0.104 0.41746 0.0
H2369 H 0.2603 0.03644 0.40575 0.0
C2370 C 0.26766 0.09297 0.42584 0.0
C2371 C 0.25421 0.08333 0.41019 0.0
C2372 C 0.24263 0.09397 0.40114 0.0
C2373 C 0.27552 0.06189 0.42704 0.0
C2374 C 0.27341 0.0415 0.41965 0.0
C2375 C 0.26218 0.05227 0.41138 0.0
C2376 C 0.28326 0.00899 0.42034 0.0
C2377 C 0.28633 0.0511 0.43615 0.0
C2378 C 0.31448 0.00156 0.42152 0.0
C2379 C 0.32388 0.97076 0.42179 0.0
C2380 C 0.30218 0.94694 0.42095 0.0
C2381 C 0.27089 0.95455 0.41982 0.0
C2382 C 0.26156 0.9853 0.41947 0.0
H2383 H 0.28036 0.0678 0.44155 0.0
H2384 H 0.27606 0.02839 0.43784 0.0
H2385 H 0.31175 0.04838 0.43604 0.0
H2386 H 0.33161 0.0196 0.42208 0.0
H2387 H 0.34809 0.96553 0.42266 0.0
H2388 H 0.05272 0.94977 0.67243 0.0
H2389 H 0.10922 0.95132 0.67081 0.0
H2390 H 0.10177 0.03598 0.6558 0.0
H2391 H 0.0457 0.03454 0.65746 0.0
H2392 H 0.14941 0.98807 0.64961 0.0
H2393 H 0.15337 0.02442 0.6856 0.0
H2394 H 0.13182 0.99037 0.6827 0.0
H2395 H 0.11861 0.02736 0.67899 0.0
C2396 C 0.06323 0.96811 0.66857 0.0
C2397 C 0.0451 0.99217 0.66513 0.0
C2398 C 0.09536 0.96909 0.66768 0.0
C2399 C 0.10953 0.99391 0.66325 0.0
C2400 C 0.09123 0.01666 0.65924 0.0
H2401 H 0.27974 0.09191 0.66629 0.0
H2402 H 0.22624 0.07401 0.66519 0.0
C2403 C 0.0593 0.01588 0.66021 0.0
C2404 C 0.14324 0.99856 0.66364 0.0
H2405 H 0.19969 0.02603 0.67748 0.0
C2406 C 0.16061 0.99588 0.65572 0.0
C2407 C 0.15748 0.00924 0.67161 0.0
C2408 C 0.13951 0.01323 0.68023 0.0
C2409 C 0.19195 0.00403 0.65554 0.0
C2410 C 0.20599 0.01524 0.66348 0.0
C2411 C 0.18873 0.01741 0.67142 0.0
C2412 C 0.23831 0.02598 0.66362 0.0
C2413 C 0.20963 0.00168 0.64684 0.0
C2414 C 0.26264 0.00485 0.66308 0.0
C2415 C 0.29311 0.015 0.66374 0.0
C2416 C 0.29974 0.04647 0.66495 0.0
C2417 C 0.27529 0.06761 0.66531 0.0
C2418 C 0.24481 0.05741 0.66472 0.0
H2419 H 0.1944 0.99641 0.64103 0.0
H2420 H 0.22208 0.02354 0.64547 0.0
H2421 H 0.22708 0.9831 0.64741 0.0
H2422 H 0.25802 0.98049 0.66228 0.0
H2423 H 0.31146 0.99821 0.66328 0.0
H2424 H 0.21709 0.79299 0.90311 0.0
H2425 H 0.21349 0.849 0.90183 0.0
H2426 H 0.29158 0.8587 0.91959 0.0
H2427 H 0.29568 0.80237 0.92063 0.0
H2428 H 0.20011 0.88382 0.91611 0.0
H2429 H 0.30984 0.92458 0.90111 0.0
H2430 H 0.29786 0.88479 0.90063 0.0
H2431 H 0.31498 0.90004 0.91071 0.0
C2432 C 0.23396 0.80715 0.90653 0.0
C2433 C 0.25658 0.79358 0.91199 0.0
C2434 C 0.2319 0.83908 0.90581 0.0
C2435 C 0.25227 0.8581 0.9106 0.0
C2436 C 0.27598 0.84454 0.91569 0.0
H2437 H 0.23806 0.04957 0.92652 0.0
H2438 H 0.25224 0.99541 0.92489 0.0
C2439 C 0.27831 0.81243 0.9163 0.0
C2440 C 0.24608 0.89165 0.91111 0.0
H2441 H 0.2773 0.96292 0.90765 0.0
C2442 C 0.21694 0.90107 0.91418 0.0
C2443 C 0.26813 0.91415 0.90867 0.0
C2444 C 0.29936 0.90544 0.90502 0.0
C2445 C 0.20929 0.9323 0.91491 0.0
C2446 C 0.2313 0.95472 0.91249 0.0
C2447 C 0.26053 0.94551 0.90948 0.0
C2448 C 0.22411 0.98789 0.9131 0.0
C2449 C 0.17785 0.94122 0.91838 0.0
C2450 C 0.20375 0.00151 0.90696 0.0
C2451 C 0.19575 0.03254 0.90781 0.0
C2452 C 0.20794 0.05052 0.91484 0.0
C2453 C 0.22854 0.03666 0.92095 0.0
C2454 C 0.23665 0.00568 0.92005 0.0
H2455 H 0.16518 0.92124 0.92123 0.0
H2456 H 0.17992 0.95927 0.92364 0.0
H2457 H 0.16402 0.95092 0.91277 0.0
H2458 H 0.19395 0.98805 0.90152 0.0
H2459 H 0.18024 0.04242 0.9029 0.0
H2460 H 0.20348 0.98126 0.17651 0.0
H2461 H 0.2573 0.99707 0.17556 0.0
H2462 H 0.26665 0.94855 0.15039 0.0
H2463 H 0.21259 0.93277 0.15126 0.0
H2464 H 0.31274 0.935 0.16232 0.0
H2465 H 0.29912 0.0614 0.15977 0.0
H2466 H 0.27828 0.04548 0.1691 0.0
H2467 H 0.26769 0.03497 0.1578 0.0
C2468 C 0.21677 0.97435 0.17069 0.0
C2469 C 0.20359 0.95582 0.16395 0.0
C2470 C 0.24756 0.98352 0.17014 0.0
C2471 C 0.26583 0.97455 0.16281 0.0
C2472 C 0.25287 0.95597 0.15607 0.0
H2473 H 0.46146 0.03019 0.15775 0.0
H2474 H 0.40645 0.02387 0.15409 0.0
C2475 C 0.22201 0.94675 0.15662 0.0
C2476 C 0.29904 0.98267 0.16259 0.0
H2477 H 0.34908 0.04314 0.16449 0.0
C2478 C 0.32067 0.95867 0.16264 0.0
C2479 C 0.30945 0.01357 0.16289 0.0
C2480 C 0.28742 0.04035 0.16229 0.0
C2481 C 0.35228 0.96467 0.1635 0.0
C2482 C 0.36248 0.99543 0.16443 0.0
C2483 C 0.34111 0.01956 0.16387 0.0
C2484 C 0.39487 0.00243 0.16679 0.0
C2485 C 0.37453 0.93798 0.16367 0.0
C2486 C 0.4061 0.99353 0.17523 0.0
C2487 C 0.43716 0.99723 0.17733 0.0
C2488 C 0.45773 0.00991 0.17103 0.0
C2489 C 0.44614 0.0204 0.16274 0.0
C2490 C 0.41483 0.01668 0.16063 0.0
H2491 H 0.36431 0.91693 0.16063 0.0
H2492 H 0.39606 0.94377 0.16 0.0
H2493 H 0.38067 0.93268 0.17075 0.0
H2494 H 0.39091 0.98301 0.18014 0.0
H2495 H 0.44522 0.98958 0.18385 0.0
H2496 H 0.76092 0.93794 0.91167 0.0
H2497 H 0.77914 0.99108 0.91036 0.0
H2498 H 0.68594 0.02389 0.91348 0.0
H2499 H 0.66758 0.97065 0.91467 0.0
H2500 H 0.71862 0.05587 0.90042 0.0
H2501 H 0.78578 0.04707 0.9322 0.0
H2502 H 0.79572 0.01953 0.92367 0.0
H2503 H 0.75829 0.01817 0.92883 0.0
C2504 C 0.74435 0.95651 0.91211 0.0
C2505 C 0.71288 0.95027 0.91344 0.0
C2506 C 0.75478 0.98682 0.91133 0.0
C2507 C 0.73398 0.01144 0.912 0.0
C2508 C 0.7024 0.00521 0.91297 0.0
H2509 H 0.74034 0.1918 0.93093 0.0
H2510 H 0.73905 0.13683 0.92782 0.0
C2511 C 0.69192 0.97487 0.91365 0.0
C2512 C 0.74506 0.04372 0.91214 0.0
H2513 H 0.78623 0.09479 0.92481 0.0
C2514 C 0.73371 0.06438 0.90568 0.0
C2515 C 0.7647 0.05468 0.91904 0.0
C2516 C 0.77668 0.03384 0.92638 0.0
C2517 C 0.74047 0.09598 0.90613 0.0
C2518 C 0.75948 0.10702 0.91316 0.0
C2519 C 0.77191 0.08614 0.91938 0.0
C2520 C 0.7627 0.14036 0.91504 0.0
C2521 C 0.72581 0.11754 0.89942 0.0
C2522 C 0.77708 0.1606 0.90897 0.0
C2523 C 0.77768 0.19235 0.91073 0.0
C2524 C 0.76379 0.20411 0.91856 0.0
C2525 C 0.75062 0.18351 0.92476 0.0
C2526 C 0.75008 0.15204 0.92302 0.0
H2527 H 0.70829 0.10578 0.89518 0.0
H2528 H 0.71465 0.13716 0.90293 0.0
H2529 H 0.74387 0.12702 0.89492 0.0
H2530 H 0.78739 0.15193 0.90284 0.0
H2531 H 0.788 0.20772 0.90586 0.0
H2532 H 0.77929 0.9124 0.67059 0.0
H2533 H 0.72611 0.93108 0.66984 0.0
H2534 H 0.75916 0.02424 0.66699 0.0
H2535 H 0.81221 0.00577 0.66775 0.0
H2536 H 0.71388 0.0199 0.67952 0.0
H2537 H 0.67758 0.96132 0.64819 0.0
H2538 H 0.69343 0.93503 0.65627 0.0
H2539 H 0.71748 0.96458 0.65149 0.0
C2540 C 0.77519 0.9368 0.66973 0.0
C2541 C 0.79997 0.95756 0.66929 0.0
C2542 C 0.74482 0.94746 0.66926 0.0
C2543 C 0.73867 0.97902 0.66821 0.0
C2544 C 0.76336 0.99979 0.66778 0.0
H2545 H 0.54565 0.03586 0.65967 0.0
H2546 H 0.60199 0.03412 0.65772 0.0
C2547 C 0.7937 0.98919 0.66828 0.0
C2548 C 0.70647 0.99048 0.66804 0.0
H2549 H 0.63697 0.98023 0.65771 0.0
C2550 C 0.69716 0.01155 0.67467 0.0
C2551 C 0.68481 0.98017 0.66159 0.0
C2552 C 0.69388 0.95929 0.65392 0.0
C2553 C 0.66639 0.02117 0.67534 0.0
C2554 C 0.64427 0.00899 0.66933 0.0
C2555 C 0.6539 0.98935 0.66237 0.0
C2556 C 0.61077 0.01355 0.67074 0.0
C2557 C 0.65775 0.04387 0.6826 0.0
C2558 C 0.59719 0.00285 0.6787 0.0
C2559 C 0.56534 0.00382 0.6798 0.0
C2560 C 0.54628 0.01534 0.67294 0.0
C2561 C 0.55987 0.02712 0.66508 0.0
C2562 C 0.59194 0.02597 0.66395 0.0
H2563 H 0.67768 0.05858 0.68449 0.0
H2564 H 0.63845 0.05893 0.68043 0.0
H2565 H 0.65042 0.03109 0.6887 0.0
H2566 H 0.61115 0.99266 0.68396 0.0
H2567 H 0.5555 0.99486 0.68596 0.0
H2568 H 0.83245 0.03837 0.40888 0.0
H2569 H 0.81499 0.98491 0.40874 0.0
H2570 H 0.76218 0.00112 0.43286 0.0
H2571 H 0.78019 0.05457 0.43317 0.0
H2572 H 0.7973 0.94779 0.43351 0.0
H2573 H 0.72927 0.9523 0.40198 0.0
H2574 H 0.76792 0.96637 0.40069 0.0
H2575 H 0.74146 0.98651 0.40791 0.0
C2576 C 0.8174 0.03055 0.41421 0.0
C2577 C 0.80773 0.05079 0.42105 0.0
C2578 C 0.80703 1.00008 0.41404 0.0
C2579 C 0.78674 0.98925 0.42067 0.0
C2580 C 0.77751 0.00916 0.4276 0.0
H2581 H 0.70785 0.80142 0.42207 0.0
H2582 H 0.71085 0.85812 0.4217 0.0
C2583 C 0.78779 0.03967 0.42777 0.0
C2584 C 0.7765 0.95668 0.42062 0.0
H2585 H 0.74188 0.90188 0.40754 0.0
C2586 C 0.78479 0.93787 0.42789 0.0
C2587 C 0.75983 0.94385 0.41333 0.0
C2588 C 0.7488 0.96335 0.40557 0.0
C2589 C 0.77825 0.90625 0.42787 0.0
C2590 C 0.76325 0.8931 0.42035 0.0
C2591 C 0.75358 0.91208 0.41326 0.0
C2592 C 0.7601 0.85933 0.41948 0.0
C2593 C 0.78817 0.88688 0.43579 0.0
C2594 C 0.78654 0.84156 0.41804 0.0
C2595 C 0.78486 0.80954 0.41822 0.0
C2596 C 0.75669 0.79458 0.41986 0.0
C2597 C 0.72981 0.81238 0.42078 0.0
C2598 C 0.73152 0.84465 0.4206 0.0
H2599 H 0.79307 0.90119 0.44182 0.0
H2600 H 0.77016 0.8697 0.43752 0.0
H2601 H 0.80949 0.87416 0.434 0.0
H2602 H 0.80871 0.85252 0.41704 0.0
H2603 H 0.80583 0.79642 0.41731 0.0
H2604 H 0.96104 0.97614 0.15777 0.0
H2605 H 0.90589 0.98309 0.15441 0.0
H2606 H 0.89138 0.01879 0.18114 0.0
H2607 H 0.94588 0.01163 0.18454 0.0
H2608 H 0.84883 0.96201 0.1645 0.0
H2609 H 0.86446 0.08876 0.16298 0.0
H2610 H 0.89613 0.06203 0.16185 0.0
H2611 H 0.88077 0.07084 0.17278 0.0
C2612 C 0.94591 0.9849 0.16296 0.0
C2613 C 0.95784 0.99382 0.17137 0.0
C2614 C 0.91452 0.98898 0.16103 0.0
C2615 C 0.8948 0.00201 0.16748 0.0
C2616 C 0.90637 0.00924 0.17602 0.0
H2617 H 0.70297 0.022 0.17735 0.0
H2618 H 0.75677 0.00618 0.17628 0.0
C2619 C 0.93752 0.00521 0.17794 0.0
C2620 C 0.86239 0.0096 0.16533 0.0
H2621 H 0.81285 0.07052 0.1643 0.0
C2622 C 0.84093 0.9857 0.16432 0.0
C2623 C 0.85228 0.04054 0.16497 0.0
C2624 C 0.87461 0.06708 0.16562 0.0
C2625 C 0.8093 0.992 0.16343 0.0
C2626 C 0.799 0.02294 0.16368 0.0
C2627 C 0.8207 0.04681 0.1642 0.0
C2628 C 0.76581 0.03112 0.16396 0.0
C2629 C 0.78717 0.96548 0.16233 0.0
C2630 C 0.75314 0.05104 0.1575 0.0
C2631 C 0.7223 0.06024 0.15811 0.0
C2632 C 0.7036 0.04984 0.16522 0.0
C2633 C 0.71649 0.02998 0.17169 0.0
C2634 C 0.74726 0.02081 0.17107 0.0
H2635 H 0.79885 0.94489 0.15949 0.0
H2636 H 0.77778 0.95908 0.16902 0.0
H2637 H 0.76761 0.97182 0.15789 0.0
H2638 H 0.76714 0.05949 0.15199 0.0
H2639 H 0.71312 0.07528 0.15296 0.0
H2640 H 0.7844 0.80468 0.59111 0.0
H2641 H 0.77894 0.86107 0.59252 0.0
H2642 H 0.72396 0.86259 0.56835 0.0
H2643 H 0.72897 0.80674 0.56705 0.0
H2644 H 0.79032 0.91305 0.58062 0.0
H2645 H 0.66636 0.89667 0.5881 0.0
H2646 H 0.69377 0.86543 0.58842 0.0
H2647 H 0.67814 0.87826 0.57785 0.0
C2648 C 0.77172 0.81731 0.58604 0.0
C2649 C 0.75668 0.80155 0.57905 0.0
C2650 C 0.76853 0.84936 0.58685 0.0
C2651 C 0.75042 0.86579 0.58065 0.0
C2652 C 0.73742 0.85023 0.57332 0.0
H2653 H 0.72424 0.05781 0.56856 0.0
H2654 H 0.74093 0.00401 0.5693 0.0
C2655 C 0.74033 0.81842 0.57256 0.0
C2656 C 0.7431 0.89876 0.58203 0.0
H2657 H 0.68204 0.94763 0.58421 0.0
C2658 C 0.76673 0.9207 0.58151 0.0
C2659 C 0.71236 0.90859 0.58337 0.0
C2660 C 0.68623 0.886 0.58456 0.0
C2661 C 0.76019 0.9524 0.58189 0.0
C2662 C 0.72916 0.96223 0.58262 0.0
C2663 C 0.70577 0.94016 0.58353 0.0
C2664 C 0.72013 0.99518 0.58229 0.0
C2665 C 0.78657 0.97499 0.58154 0.0
C2666 C 0.702 0.00784 0.58919 0.0
C2667 C 0.692 0.03837 0.58869 0.0
C2668 C 0.69998 0.05689 0.58129 0.0
C2669 C 0.71803 0.04416 0.57438 0.0
C2670 C 0.72779 0.01351 0.57484 0.0
H2671 H 0.80841 0.96428 0.58387 0.0
H2672 H 0.79001 0.98261 0.57449 0.0
H2673 H 0.78181 0.9956 0.58574 0.0
H2674 H 0.69564 0.99408 0.59498 0.0
H2675 H 0.67854 0.04763 0.59419 0.0
H2676 H 0.6946 0.96779 0.3177 0.0
H2677 H 0.74937 0.98153 0.31761 0.0
H2678 H 0.76101 0.93718 0.34335 0.0
H2679 H 0.70651 0.92312 0.34343 0.0
H2680 H 0.78409 0.01645 0.32935 0.0
H2681 H 0.82709 0.89617 0.32831 0.0
H2682 H 0.78724 0.90577 0.32633 0.0
H2683 H 0.80197 0.90383 0.33764 0.0
C2684 C 0.70888 0.96094 0.32333 0.0
C2685 C 0.6963 0.94402 0.33051 0.0
C2686 C 0.74013 0.96884 0.32328 0.0
C2687 C 0.75939 0.96001 0.33041 0.0
C2688 C 0.74677 0.9436 0.33767 0.0
H2689 H 0.94875 0.02608 0.33963 0.0
H2690 H 0.89235 0.02023 0.34044 0.0
C2691 C 0.71561 0.93548 0.33769 0.0
C2692 C 0.79273 0.9677 0.33022 0.0
H2693 H 0.86429 0.93525 0.33048 0.0
C2694 C 0.80168 0.99873 0.32958 0.0
C2695 C 0.81562 0.94453 0.33045 0.0
C2696 C 0.80757 0.9107 0.33063 0.0
C2697 C 0.83295 0.0072 0.32916 0.0
C2698 C 0.8558 0.98402 0.32954 0.0
C2699 C 0.84677 0.95304 0.33024 0.0
C2700 C 0.88923 0.99077 0.3287 0.0
C2701 C 0.84119 0.04073 0.32805 0.0
C2702 C 0.90614 0.97638 0.32184 0.0
C2703 C 0.93806 0.97934 0.32148 0.0
C2704 C 0.95388 0.99692 0.32793 0.0
C2705 C 0.93698 0.01261 0.33456 0.0
C2706 C 0.90483 0.00931 0.33499 0.0
H2707 H 0.82122 0.05457 0.3257 0.0
H2708 H 0.84874 0.05012 0.33463 0.0
H2709 H 0.86041 0.04359 0.32319 0.0
H2710 H 0.89466 0.96212 0.31689 0.0
H2711 H 0.95058 0.96735 0.31624 0.0
H2712 H 0.77674 0.9484 0.06828 0.0
H2713 H 0.7615 0.00263 0.06802 0.0
H2714 H 0.81379 0.01884 0.09223 0.0
H2715 H 0.82843 0.96451 0.09268 0.0
H2716 H 0.75336 0.04562 0.09223 0.0
H2717 H 0.8202 0.07382 0.06137 0.0
H2718 H 0.79393 0.04202 0.06035 0.0
H2719 H 0.82656 0.03899 0.06773 0.0
C2720 C 0.78489 0.96345 0.07357 0.0
C2721 C 0.80397 0.95211 0.08047 0.0
C2722 C 0.7763 0.99447 0.07338 0.0
C2723 C 0.78673 0.01475 0.08007 0.0
C2724 C 0.80556 0.00353 0.087 0.0
H2725 H 0.80458 0.20976 0.07965 0.0
H2726 H 0.80944 0.15407 0.08122 0.0
C2727 C 0.8142 0.97253 0.08718 0.0
C2728 C 0.77857 0.04784 0.07976 0.0
H2729 H 0.78983 0.11343 0.06757 0.0
C2730 C 0.76117 0.06049 0.08683 0.0
C2731 C 0.78897 0.06711 0.07272 0.0
C2732 C 0.80866 0.05497 0.06514 0.0
C2733 C 0.75416 0.0921 0.08707 0.0
C2734 C 0.76468 0.11132 0.08005 0.0
C2735 C 0.78168 0.09854 0.07293 0.0
C2736 C 0.76054 0.14517 0.0802 0.0
C2737 C 0.73646 0.10489 0.09497 0.0
C2738 C 0.73129 0.15873 0.07933 0.0
C2739 C 0.72845 0.19077 0.07844 0.0
C2740 C 0.75488 0.20948 0.07831 0.0
C2741 C 0.7839 0.19583 0.07958 0.0
C2742 C 0.7867 0.16405 0.08051 0.0
H2743 H 0.73448 0.08797 0.10054 0.0
H2744 H 0.74774 0.12606 0.09756 0.0
H2745 H 0.71288 0.11119 0.09275 0.0
H2746 H 0.71084 0.14449 0.07897 0.0
H2747 H 0.70588 0.20076 0.07741 0.0
H2748 H 0.7867 0.07412 0.84614 0.0
H2749 H 0.73248 0.05887 0.84646 0.0
H2750 H 0.74571 0.00525 0.82235 0.0
H2751 H 0.79982 0.02055 0.82193 0.0
H2752 H 0.6882 0.0697 0.83361 0.0
H2753 H 0.70206 0.9442 0.83898 0.0
H2754 H 0.733 0.97132 0.8408 0.0
H2755 H 0.7239 0.95845 0.8296 0.0
C2756 C 0.7781 0.05921 0.84087 0.0
C2757 C 0.79773 0.04852 0.83401 0.0
C2758 C 0.74714 0.05031 0.84112 0.0
C2759 C 0.73521 0.03042 0.83454 0.0
C2760 C 0.75462 0.01991 0.82764 0.0
H2761 H 0.55379 0.00907 0.81421 0.0
H2762 H 0.60853 0.01649 0.81721 0.0
C2763 C 0.78557 0.02878 0.82739 0.0
C2764 C 0.70203 0.02218 0.83454 0.0
H2765 H 0.6522 0.9612 0.83404 0.0
C2766 C 0.68034 0.046 0.83382 0.0
C2767 C 0.69174 0.99126 0.83493 0.0
C2768 C 0.71386 0.96484 0.83621 0.0
C2769 C 0.64876 0.03967 0.83307 0.0
C2770 C 0.63865 0.00871 0.83293 0.0
C2771 C 0.66011 0.9849 0.83406 0.0
C2772 C 0.60609 1.00097 0.83102 0.0
C2773 C 0.62644 0.06616 0.83225 0.0
C2774 C 0.58684 0.98858 0.8377 0.0
C2775 C 0.55531 0.98437 0.836 0.0
C2776 C 0.54277 0.99252 0.8276 0.0
C2777 C 0.56261 0.00327 0.82081 0.0
C2778 C 0.59391 0.00744 0.8225 0.0
H2779 H 0.6367 0.08812 0.83465 0.0
H2780 H 0.61995 0.06913 0.82508 0.0
H2781 H 0.60509 0.06153 0.83615 0.0
H2782 H 0.59595 0.9833 0.8443 0.0
H2783 H 0.54058 0.97611 0.84135 0.0
H2784 H 0.78816 0.30088 0.59253 0.0
H2785 H 0.7931 0.35692 0.59278 0.0
H2786 H 0.71742 0.36458 0.57409 0.0
H2787 H 0.71208 0.30817 0.57401 0.0
H2788 H 0.80831 0.38856 0.57754 0.0
H2789 H 0.69908 0.43401 0.59188 0.0
H2790 H 0.7108 0.39436 0.59321 0.0
H2791 H 0.69462 0.40727 0.58274 0.0
C2792 C 0.77212 0.31463 0.58865 0.0
C2793 C 0.74985 0.30038 0.58322 0.0
C2794 C 0.77495 0.34658 0.58879 0.0
C2795 C 0.75567 0.36496 0.58346 0.0
C2796 C 0.73223 0.3509 0.57838 0.0
H2797 H 0.77388 0.56018 0.57004 0.0
H2798 H 0.75848 0.50602 0.57025 0.0
C2799 C 0.72917 0.31875 0.57832 0.0
C2800 C 0.76267 0.39823 0.58251 0.0
H2801 H 0.73427 0.47063 0.58597 0.0
C2802 C 0.7921 0.40649 0.5794 0.0
C2803 C 0.74139 0.42156 0.58485 0.0
C2804 C 0.70977 0.41399 0.58842 0.0
C2805 C 0.801 0.4374 0.57868 0.0
C2806 C 0.78002 0.46069 0.58119 0.0
C2807 C 0.75029 0.4526 0.58408 0.0
C2808 C 0.78905 0.49352 0.58113 0.0
C2809 C 0.8328 0.44496 0.57522 0.0
C2810 C 0.81127 0.50435 0.5872 0.0
C2811 C 0.81998 0.53532 0.58717 0.0
C2812 C 0.8066 0.55612 0.58104 0.0
C2813 C 0.7844 0.54501 0.57493 0.0
C2814 C 0.7756 0.51404 0.57501 0.0
H2815 H 0.84352 0.42505 0.57172 0.0
H2816 H 0.83198 0.4648 0.57051 0.0
H2817 H 0.84779 0.45142 0.58097 0.0
H2818 H 0.82167 0.48885 0.59204 0.0
H2819 H 0.83669 0.54299 0.59207 0.0
H2820 H 0.71805 0.59005 0.83107 0.0
H2821 H 0.77226 0.57428 0.83094 0.0
H2822 H 0.74473 0.47913 0.83312 0.0
H2823 H 0.69065 0.49471 0.83319 0.0
H2824 H 0.80678 0.5415 0.84342 0.0
H2825 H 0.79966 0.47856 0.81091 0.0
H2826 H 0.76961 0.50407 0.81475 0.0
H2827 H 0.77286 0.46591 0.81934 0.0
C2828 C 0.7236 0.5658 0.83155 0.0
C2829 C 0.70009 0.54362 0.83201 0.0
C2830 C 0.75453 0.55681 0.83147 0.0
C2831 C 0.76248 0.52549 0.83187 0.0
C2832 C 0.73909 0.50335 0.83258 0.0
H2833 H 0.95788 0.47168 0.83868 0.0
H2834 H 0.90189 0.47392 0.84116 0.0
C2835 C 0.70819 0.51231 0.8326 0.0
C2836 C 0.79528 0.51612 0.83144 0.0
H2837 H 0.8473 0.47722 0.81849 0.0
C2838 C 0.81567 0.52727 0.83801 0.0
C2839 C 0.80675 0.49763 0.82435 0.0
C2840 C 0.7862 0.48602 0.81688 0.0
C2841 C 0.84739 0.52106 0.83756 0.0
C2842 C 0.85887 0.50277 0.83043 0.0
C2843 C 0.83835 0.49095 0.824 0.0
C2844 C 0.89236 0.4989 0.82886 0.0
C2845 C 0.86851 0.53529 0.84447 0.0
C2846 C 0.9053 0.51112 0.821 0.0
C2847 C 0.93694 0.5096 0.81955 0.0
C2848 C 0.95648 0.49584 0.82593 0.0
C2849 C 0.94342 0.48246 0.83366 0.0
C2850 C 0.91153 0.48399 0.83511 0.0
H2851 H 0.85665 0.55314 0.84856 0.0
H2852 H 0.87694 0.51709 0.8491 0.0
H2853 H 0.88884 0.54594 0.84117 0.0
H2854 H 0.89094 0.52252 0.81605 0.0
H2855 H 0.94616 0.51948 0.81343 0.0
H2856 H 0.79625 0.70194 0.07809 0.0
H2857 H 0.79422 0.6454 0.07922 0.0
H2858 H 0.70472 0.65148 0.09166 0.0
H2859 H 0.70666 0.70764 0.09059 0.0
H2860 H 0.76662 0.60216 0.09762 0.0
H2861 H 0.70965 0.60349 0.06397 0.0
H2862 H 0.73909 0.63111 0.06691 0.0
H2863 H 0.70161 0.63395 0.07189 0.0
C2864 C 0.77659 0.69117 0.08129 0.0
C2865 C 0.75145 0.70905 0.08416 0.0
C2866 C 0.77542 0.65899 0.08191 0.0
C2867 C 0.74927 0.64449 0.08549 0.0
C2868 C 0.72506 0.66237 0.08887 0.0
H2869 H 0.681 0.46126 0.09552 0.0
H2870 H 0.69667 0.51525 0.09641 0.0
C2871 C 0.72612 0.69437 0.08821 0.0
C2872 C 0.74525 0.61085 0.08481 0.0
H2873 H 0.71115 0.55627 0.07166 0.0
C2874 C 0.75481 0.59194 0.09192 0.0
C2875 C 0.72991 0.59782 0.07735 0.0
C2876 C 0.71944 0.61746 0.06954 0.0
C2877 C 0.74887 0.56011 0.09182 0.0
C2878 C 0.73241 0.54723 0.08449 0.0
C2879 C 0.72362 0.56618 0.07729 0.0
C2880 C 0.72363 0.51426 0.08416 0.0
C2881 C 0.76042 0.54056 0.0995 0.0
C2882 C 0.73276 0.49605 0.07684 0.0
C2883 C 0.72336 0.46539 0.07622 0.0
C2884 C 0.70459 0.45223 0.08292 0.0
C2885 C 0.69525 0.47064 0.09022 0.0
C2886 C 0.70461 0.5014 0.09081 0.0
H2887 H 0.77981 0.55187 0.1031 0.0
H2888 H 0.74147 0.53704 0.10441 0.0
H2889 H 0.76818 0.51763 0.09709 0.0
H2890 H 0.74711 0.50562 0.07157 0.0
H2891 H 0.73055 0.4521 0.07043 0.0
H2892 H 0.79403 0.4801 0.32044 0.0
H2893 H 0.73995 0.49515 0.32114 0.0
H2894 H 0.72938 0.44473 0.34594 0.0
H2895 H 0.7837 0.4298 0.34535 0.0
H2896 H 0.68436 0.43149 0.33341 0.0
H2897 H 0.69644 0.55773 0.33735 0.0
H2898 H 0.71834 0.54279 0.32808 0.0
H2899 H 0.72785 0.53133 0.33937 0.0
C2900 C 0.78041 0.4726 0.32613 0.0
C2901 C 0.79335 0.45381 0.33286 0.0
C2902 C 0.74948 0.48132 0.32653 0.0
C2903 C 0.73079 0.47159 0.33369 0.0
C2904 C 0.74349 0.45272 0.3404 0.0
H2905 H 0.53509 0.52534 0.33886 0.0
H2906 H 0.59009 0.51871 0.34242 0.0
C2907 C 0.7745 0.44399 0.34001 0.0
C2908 C 0.69751 0.4793 0.33377 0.0
H2909 H 0.64692 0.53944 0.33237 0.0
C2910 C 0.67617 0.45509 0.33332 0.0
C2911 C 0.68679 0.5101 0.33377 0.0
C2912 C 0.70853 0.53698 0.33476 0.0
C2913 C 0.64454 0.46086 0.3324 0.0
C2914 C 0.63404 0.49162 0.33181 0.0
C2915 C 0.65512 0.51588 0.33273 0.0
C2916 C 0.6016 0.49863 0.32953 0.0
C2917 C 0.62261 0.43396 0.33184 0.0
C2918 C 0.5903 0.49057 0.32102 0.0
C2919 C 0.55922 0.49444 0.31898 0.0
C2920 C 0.53869 0.50648 0.3254 0.0
C2921 C 0.55035 0.51607 0.33378 0.0
C2922 C 0.58166 0.51218 0.33583 0.0
H2923 H 0.63295 0.41263 0.33466 0.0
H2924 H 0.60087 0.439 0.3355 0.0
H2925 H 0.6168 0.42958 0.32468 0.0
H2926 H 0.60548 0.48063 0.31601 0.0
H2927 H 0.55112 0.48752 0.31239 0.0
H2928 H 0.84589 0.46932 0.91636 0.0
H2929 H 0.8289 0.52317 0.91656 0.0
H2930 H 0.73442 0.49359 0.91407 0.0
H2931 H 0.75123 0.43989 0.91396 0.0
H2932 H 0.79598 0.55768 0.90427 0.0
H2933 H 0.73157 0.54721 0.93645 0.0
H2934 H 0.75778 0.51788 0.93254 0.0
H2935 H 0.71971 0.52072 0.92784 0.0
C2936 C 0.82154 0.47437 0.91582 0.0
C2937 C 0.79988 0.45041 0.91529 0.0
C2938 C 0.81185 0.50508 0.91594 0.0
C2939 C 0.78035 0.51234 0.9155 0.0
C2940 C 0.75876 0.48849 0.91466 0.0
H2941 H 0.72375 0.70692 0.90909 0.0
H2942 H 0.72638 0.651 0.90654 0.0
C2943 C 0.76841 0.45782 0.91461 0.0
C2944 C 0.77017 0.54487 0.91606 0.0
H2945 H 0.72915 0.59513 0.92904 0.0
C2946 C 0.7812 0.5659 0.90965 0.0
C2947 C 0.75099 0.55547 0.92311 0.0
C2948 C 0.7395 0.53425 0.93043 0.0
C2949 C 0.77419 0.59741 0.91022 0.0
C2950 C 0.75513 0.60802 0.9173 0.0
C2951 C 0.74345 0.58685 0.92357 0.0
C2952 C 0.75032 0.6413 0.919 0.0
C2953 C 0.78841 0.61925 0.9035 0.0
C2954 C 0.76159 0.65408 0.92701 0.0
C2955 C 0.7598 0.68567 0.92851 0.0
C2956 C 0.74672 0.70529 0.92203 0.0
C2957 C 0.73398 0.69235 0.91419 0.0
C2958 C 0.73577 0.66052 0.91269 0.0
H2959 H 0.80696 0.6081 0.8995 0.0
H2960 H 0.77038 0.62732 0.89876 0.0
H2961 H 0.79816 0.63972 0.90695 0.0
H2962 H 0.77267 0.63967 0.93201 0.0
H2963 H 0.76918 0.69485 0.9347 0.0
H2964 H 0.81122 0.49861 0.16543 0.0
H2965 H 0.75694 0.48413 0.16503 0.0
H2966 H 0.73158 0.57956 0.16193 0.0
H2967 H 0.78605 0.59429 0.16236 0.0
H2968 H 0.71156 0.50163 0.17672 0.0
H2969 H 0.68216 0.53763 0.142 0.0
H2970 H 0.72144 0.53356 0.14583 0.0
H2971 H 0.69984 0.56774 0.14847 0.0
C2972 C 0.79415 0.51659 0.16472 0.0
C2973 C 0.80298 0.54769 0.164 0.0
C2974 C 0.76312 0.50821 0.16441 0.0
C2975 C 0.74025 0.53069 0.16333 0.0
C2976 C 0.74891 0.56175 0.16256 0.0
H2977 H 0.5535 0.53659 0.17928 0.0
H2978 H 0.60925 0.53797 0.17749 0.0
C2979 C 0.78001 0.57016 0.16284 0.0
C2980 C 0.70728 0.5218 0.16353 0.0
H2981 H 0.63966 0.52778 0.15191 0.0
C2982 C 0.69592 0.50701 0.17125 0.0
C2983 C 0.687 0.5283 0.15632 0.0
C2984 C 0.69825 0.5424 0.14764 0.0
C2985 C 0.66454 0.49993 0.17213 0.0
C2986 C 0.64395 0.50825 0.16517 0.0
C2987 C 0.6555 0.52163 0.15727 0.0
C2988 C 0.61016 0.50593 0.16635 0.0
C2989 C 0.65362 0.48401 0.18057 0.0
C2990 C 0.59209 0.4877 0.16059 0.0
C2991 C 0.55996 0.48699 0.16158 0.0
C2992 C 0.54554 0.50493 0.16824 0.0
C2993 C 0.56387 0.52285 0.17401 0.0
C2994 C 0.59578 0.52341 0.17307 0.0
H2995 H 0.67256 0.47099 0.18386 0.0
H2996 H 0.64525 0.50155 0.18542 0.0
H2997 H 0.63438 0.46792 0.17911 0.0
H2998 H 0.60282 0.47421 0.15532 0.0
H2999 H 0.54639 0.47316 0.157 0.0
H3000 H 0.79436 0.30319 0.42449 0.0
H3001 H 0.78863 0.35951 0.42344 0.0
H3002 H 0.71359 0.34761 0.40472 0.0
H3003 H 0.71881 0.29168 0.40596 0.0
H3004 H 0.78775 0.40401 0.40955 0.0
H3005 H 0.67323 0.39243 0.42578 0.0
H3006 H 0.70047 0.36111 0.42527 0.0
H3007 H 0.67687 0.37012 0.41567 0.0
C3008 C 0.7772 0.31278 0.42 0.0
C3009 C 0.75673 0.29333 0.4154 0.0
C3010 C 0.77383 0.34483 0.41943 0.0
C3011 C 0.75012 0.35764 0.41419 0.0
C3012 C 0.73148 0.33817 0.40899 0.0
H3013 H 0.67453 0.53958 0.40524 0.0
H3014 H 0.68889 0.48522 0.4044 0.0
C3015 C 0.73455 0.30631 0.40966 0.0
C3016 C 0.74316 0.39102 0.41464 0.0
H3017 H 0.68585 0.44177 0.41997 0.0
C3018 C 0.76556 0.41232 0.41187 0.0
C3019 C 0.71424 0.40178 0.41775 0.0
C3020 C 0.68993 0.38021 0.42137 0.0
C3021 C 0.75943 0.44411 0.41189 0.0
C3022 C 0.73028 0.45468 0.4148 0.0
C3023 C 0.70805 0.43345 0.41766 0.0
C3024 C 0.72245 0.48779 0.41513 0.0
C3025 C 0.78387 0.46622 0.40869 0.0
C3026 C 0.73622 0.50699 0.42154 0.0
C3027 C 0.72773 0.53795 0.42214 0.0
C3028 C 0.70538 0.55038 0.4163 0.0
C3029 C 0.69156 0.53089 0.4099 0.0
C3030 C 0.69993 0.49985 0.40935 0.0
H3031 H 0.80305 0.45418 0.4052 0.0
H3032 H 0.77377 0.48352 0.40404 0.0
H3033 H 0.79351 0.47877 0.41455 0.0
H3034 H 0.75319 0.4979 0.42618 0.0
H3035 H 0.73843 0.55198 0.42728 0.0
H3036 H 0.68915 0.50458 0.66966 0.0
H3037 H 0.74316 0.51982 0.66938 0.0
H3038 H 0.77003 0.42488 0.66616 0.0
H3039 H 0.71584 0.40924 0.66658 0.0
H3040 H 0.79037 0.50066 0.68113 0.0
H3041 H 0.81587 0.47026 0.64564 0.0
H3042 H 0.77706 0.47449 0.64986 0.0
H3043 H 0.79832 0.43973 0.65199 0.0
C3044 C 0.70643 0.4868 0.669 0.0
C3045 C 0.69809 0.45557 0.6682 0.0
C3046 C 0.73733 0.49565 0.66875 0.0
C3047 C 0.76049 0.47354 0.66762 0.0
C3048 C 0.75239 0.44236 0.66685 0.0
H3049 H 0.9493 0.46512 0.68049 0.0
H3050 H 0.8932 0.464 0.67958 0.0
C3051 C 0.72145 0.43345 0.66712 0.0
C3052 C 0.79323 0.48297 0.66762 0.0
H3053 H 0.85919 0.48035 0.65513 0.0
C3054 C 0.80535 0.49656 0.67542 0.0
C3055 C 0.81255 0.4781 0.66009 0.0
C3056 C 0.80029 0.46512 0.65138 0.0
C3057 C 0.83672 0.50396 0.67605 0.0
C3058 C 0.85638 0.49738 0.66872 0.0
C3059 C 0.844 0.48524 0.66075 0.0
C3060 C 0.8902 0.49991 0.66953 0.0
C3061 C 0.84874 0.51821 0.68462 0.0
C3062 C 0.90707 0.52042 0.66413 0.0
C3063 C 0.9393 0.52111 0.66465 0.0
C3064 C 0.95495 0.50086 0.67044 0.0
C3065 C 0.93784 0.48069 0.67589 0.0
C3066 C 0.90581 0.48023 0.67544 0.0
H3067 H 0.83004 0.52951 0.68851 0.0
H3068 H 0.85894 0.49992 0.68889 0.0
H3069 H 0.86695 0.53547 0.68316 0.0
H3070 H 0.89532 0.53562 0.65948 0.0
H3071 H 0.952 0.53669 0.66034 0.0
H3072 H 0.21556 0.69971 0.4077 0.0
H3073 H 0.21375 0.64342 0.40761 0.0
H3074 H 0.29611 0.64032 0.42381 0.0
H3075 H 0.29794 0.697 0.42393 0.0
H3076 H 0.26111 0.59594 0.40277 0.0
H3077 H 0.22478 0.59706 0.43877 0.0
H3078 H 0.22217 0.63089 0.43175 0.0
H3079 H 0.25901 0.618 0.4357 0.0
C3080 C 0.23352 0.687 0.41113 0.0
C3081 C 0.25671 0.7026 0.4159 0.0
C3082 C 0.23253 0.65491 0.41105 0.0
C3083 C 0.25455 0.63783 0.4158 0.0
C3084 C 0.27878 0.65322 0.42016 0.0
H3085 H 0.23668 0.44266 0.42952 0.0
H3086 H 0.25465 0.49589 0.42869 0.0
C3087 C 0.27995 0.68546 0.42017 0.0
C3088 C 0.25036 0.60418 0.4167 0.0
H3089 H 0.2243 0.54945 0.43133 0.0
C3090 C 0.25342 0.58562 0.40903 0.0
C3091 C 0.24034 0.59093 0.42488 0.0
C3092 C 0.23616 0.61012 0.43326 0.0
C3093 C 0.24624 0.55411 0.4093 0.0
C3094 C 0.23487 0.54111 0.41738 0.0
C3095 C 0.23283 0.5595 0.42513 0.0
C3096 C 0.22392 0.50879 0.41787 0.0
C3097 C 0.25095 0.53507 0.40091 0.0
C3098 C 0.20011 0.49854 0.41223 0.0
C3099 C 0.18996 0.46803 0.41262 0.0
C3100 C 0.20322 0.44716 0.41875 0.0
C3101 C 0.22635 0.45786 0.42461 0.0
C3102 C 0.23657 0.48835 0.42418 0.0
H3103 H 0.26847 0.54559 0.3964 0.0
H3104 H 0.25834 0.51127 0.40259 0.0
H3105 H 0.22894 0.5338 0.39713 0.0
H3106 H 0.18939 0.51414 0.40748 0.0
H3107 H 0.17226 0.46072 0.40797 0.0
H3108 H 0.04385 0.51957 0.15673 0.0
H3109 H 0.09931 0.51362 0.15363 0.0
H3110 H 0.11177 0.47163 0.17967 0.0
H3111 H 0.05703 0.47776 0.18282 0.0
H3112 H 0.1545 0.53323 0.16443 0.0
H3113 H 0.14237 0.40669 0.16066 0.0
H3114 H 0.11007 0.43277 0.15982 0.0
H3115 H 0.12488 0.422 0.17067 0.0
C3116 C 0.05856 0.50949 0.16182 0.0
C3117 C 0.04602 0.4986 0.16995 0.0
C3118 C 0.09012 0.50601 0.16004 0.0
C3119 C 0.10938 0.49162 0.16636 0.0
C3120 C 0.09714 0.48221 0.17463 0.0
H3121 H 0.30223 0.47559 0.17667 0.0
H3122 H 0.24767 0.48929 0.176 0.0
C3123 C 0.06583 0.48564 0.1764 0.0
C3124 C 0.14215 0.48523 0.16437 0.0
H3125 H 0.19336 0.42586 0.16281 0.0
C3126 C 0.16305 0.50981 0.16394 0.0
C3127 C 0.1531 0.45467 0.16362 0.0
C3128 C 0.13144 0.42748 0.16363 0.0
C3129 C 0.1949 0.5045 0.16322 0.0
C3130 C 0.20598 0.47383 0.16306 0.0
C3131 C 0.18489 0.44935 0.16303 0.0
C3132 C 0.23933 0.46645 0.16328 0.0
C3133 C 0.21639 0.53174 0.1627 0.0
C3134 C 0.25257 0.44828 0.1565 0.0
C3135 C 0.28372 0.44022 0.1569 0.0
C3136 C 0.30223 0.4501 0.16412 0.0
C3137 C 0.28877 0.46804 0.17095 0.0
C3138 C 0.25761 0.47602 0.17055 0.0
H3139 H 0.20436 0.5526 0.16017 0.0
H3140 H 0.22527 0.53696 0.16954 0.0
H3141 H 0.23634 0.52681 0.15825 0.0
H3142 H 0.2388 0.44045 0.15087 0.0
H3143 H 0.29339 0.42674 0.15147 0.0
H3144 H 0.27542 0.30346 0.93641 0.0
H3145 H 0.27846 0.35902 0.93437 0.0
H3146 H 0.23231 0.3508 0.90877 0.0
H3147 H 0.22986 0.2946 0.91071 0.0
H3148 H 0.28614 0.3858 0.90804 0.0
H3149 H 0.21221 0.4251 0.93609 0.0
H3150 H 0.24084 0.39805 0.93974 0.0
H3151 H 0.21148 0.38602 0.93193 0.0
C3152 C 0.2658 0.31343 0.93036 0.0
C3153 C 0.2526 0.29464 0.92369 0.0
C3154 C 0.26722 0.34526 0.92925 0.0
C3155 C 0.25527 0.35909 0.92147 0.0
C3156 C 0.24146 0.34055 0.91486 0.0
H3157 H 0.25468 0.55983 0.91738 0.0
H3158 H 0.23902 0.50587 0.9175 0.0
C3159 C 0.23992 0.30854 0.91599 0.0
C3160 C 0.25941 0.39262 0.92008 0.0
H3161 H 0.24837 0.46214 0.93029 0.0
C3162 C 0.27751 0.40258 0.91282 0.0
C3163 C 0.24784 0.4145 0.92627 0.0
C3164 C 0.22674 0.40542 0.93389 0.0
C3165 C 0.28556 0.43372 0.91182 0.0
C3166 C 0.2757 0.45527 0.91835 0.0
C3167 C 0.25636 0.44551 0.92537 0.0
C3168 C 0.28548 0.48798 0.91813 0.0
C3169 C 0.3046 0.44319 0.90379 0.0
C3170 C 0.31682 0.49589 0.91856 0.0
C3171 C 0.32588 0.52681 0.91853 0.0
C3172 C 0.30373 0.55037 0.91818 0.0
C3173 C 0.27234 0.54232 0.91783 0.0
C3174 C 0.26332 0.51145 0.91782 0.0
H3175 H 0.30242 0.42637 0.89819 0.0
H3176 H 0.29768 0.46629 0.9013 0.0
H3177 H 0.32923 0.44418 0.90577 0.0
H3178 H 0.33429 0.47815 0.91903 0.0
H3179 H 0.35017 0.53231 0.9189 0.0
H3180 H 0.44796 0.53067 0.6831 0.0
H3181 H 0.39211 0.53517 0.68178 0.0
H3182 H 0.39444 0.48148 0.65735 0.0
H3183 H 0.45081 0.47648 0.6588 0.0
H3184 H 0.36522 0.56436 0.66731 0.0
H3185 H 0.32057 0.44498 0.6712 0.0
H3186 H 0.35884 0.45598 0.67473 0.0
H3187 H 0.3506 0.45033 0.66301 0.0
C3188 C 0.43645 0.51941 0.67753 0.0
C3189 C 0.45351 0.50347 0.671 0.0
C3190 C 0.40461 0.52195 0.67678 0.0
C3191 C 0.38914 0.50873 0.66946 0.0
C3192 C 0.40591 0.49152 0.66312 0.0
H3193 H 0.20652 0.57755 0.65461 0.0
H3194 H 0.26084 0.56265 0.65424 0.0
C3195 C 0.43799 0.48869 0.66393 0.0
C3196 C 0.35605 0.51572 0.66819 0.0
H3197 H 0.28411 0.48399 0.66807 0.0
C3198 C 0.34747 0.54678 0.66743 0.0
C3199 C 0.33304 0.49272 0.66839 0.0
C3200 C 0.34104 0.45911 0.66944 0.0
C3201 C 0.31646 0.5556 0.66708 0.0
C3202 C 0.29338 0.53265 0.66729 0.0
C3203 C 0.30192 0.50149 0.66788 0.0
C3204 C 0.26025 0.54073 0.66731 0.0
C3205 C 0.30871 0.58949 0.66686 0.0
C3206 C 0.24181 0.53284 0.67471 0.0
C3207 C 0.21077 0.54129 0.67494 0.0
C3208 C 0.19763 0.5578 0.66776 0.0
C3209 C 0.21614 0.56549 0.66033 0.0
C3210 C 0.24713 0.55685 0.66009 0.0
H3211 H 0.32858 0.60399 0.66893 0.0
H3212 H 0.30222 0.59611 0.6599 0.0
H3213 H 0.28894 0.59471 0.67136 0.0
H3214 H 0.25153 0.52046 0.68037 0.0
H3215 H 0.19709 0.53515 0.68076 0.0
H3216 H 0.3029 0.3015 0.08239 0.0
H3217 H 0.30157 0.35734 0.08528 0.0
H3218 H 0.20307 0.35258 0.08888 0.0
H3219 H 0.20445 0.29726 0.08617 0.0
H3220 H 0.26916 0.39825 0.07453 0.0
H3221 H 0.22844 0.40772 0.10965 0.0
H3222 H 0.24453 0.37258 0.10514 0.0
H3223 H 0.20474 0.3822 0.10316 0.0
C3224 C 0.28119 0.31237 0.08405 0.0
C3225 C 0.25376 0.29518 0.08401 0.0
C3226 C 0.2804 0.34419 0.08566 0.0
C3227 C 0.25225 0.35907 0.0874 0.0
C3228 C 0.22512 0.34158 0.08774 0.0
H3229 H 0.1621 0.53234 0.08507 0.0
H3230 H 0.17894 0.47888 0.08688 0.0
C3231 C 0.22588 0.31 0.08609 0.0
C3232 C 0.25021 0.39314 0.08783 0.0
H3233 H 0.21878 0.45178 0.10009 0.0
C3234 C 0.25879 0.41011 0.0802 0.0
C3235 C 0.23654 0.40852 0.09522 0.0
C3236 C 0.22833 0.39182 0.10379 0.0
C3237 C 0.25237 0.44172 0.07952 0.0
C3238 C 0.23739 0.45679 0.08674 0.0
C3239 C 0.23005 0.44011 0.09454 0.0
C3240 C 0.22759 0.48941 0.0861 0.0
C3241 C 0.26018 0.45838 0.0709 0.0
C3242 C 0.24937 0.51307 0.08523 0.0
C3243 C 0.23981 0.54361 0.0842 0.0
C3244 C 0.20824 0.55109 0.08407 0.0
C3245 C 0.18653 0.52737 0.08519 0.0
C3246 C 0.19612 0.49684 0.0862 0.0
H3247 H 0.2661 0.4422 0.06537 0.0
H3248 H 0.2406 0.473 0.06869 0.0
H3249 H 0.28031 0.47362 0.07207 0.0
H3250 H 0.27378 0.5079 0.08532 0.0
H3251 H 0.2572 0.56134 0.0836 0.0
H3252 H 0.44943 0.54795 0.83173 0.0
H3253 H 0.39352 0.54615 0.8345 0.0
H3254 H 0.39943 0.44815 0.83894 0.0
H3255 H 0.45485 0.45 0.83632 0.0
H3256 H 0.35383 0.51172 0.82378 0.0
H3257 H 0.3428 0.47514 0.85926 0.0
H3258 H 0.37791 0.49138 0.85477 0.0
H3259 H 0.36914 0.45125 0.85311 0.0
C3260 C 0.43879 0.52628 0.83356 0.0
C3261 C 0.4563 0.49909 0.83377 0.0
C3262 C 0.40694 0.52522 0.8351 0.0
C3263 C 0.39238 0.49705 0.83702 0.0
C3264 C 0.4102 0.47021 0.83764 0.0
H3265 H 0.21796 0.40698 0.83532 0.0
H3266 H 0.27183 0.42308 0.83682 0.0
C3267 C 0.44181 0.47124 0.83606 0.0
C3268 C 0.35834 0.49458 0.8373 0.0
H3269 H 0.29926 0.46435 0.84964 0.0
C3270 C 0.34174 0.50198 0.82949 0.0
C3271 C 0.3427 0.48169 0.84476 0.0
C3272 C 0.35903 0.47469 0.85348 0.0
C3273 C 0.31021 0.49525 0.82875 0.0
C3274 C 0.29486 0.48118 0.83607 0.0
C3275 C 0.31118 0.4749 0.84401 0.0
C3276 C 0.26214 0.47174 0.83548 0.0
C3277 C 0.29393 0.50186 0.81999 0.0
C3278 C 0.23888 0.4938 0.83436 0.0
C3279 C 0.20817 0.48467 0.83351 0.0
C3280 C 0.20007 0.45327 0.83379 0.0
C3281 C 0.22341 0.43129 0.8351 0.0
C3282 C 0.25417 0.44045 0.83594 0.0
H3283 H 0.3104 0.50674 0.81444 0.0
H3284 H 0.27917 0.48212 0.81799 0.0
H3285 H 0.27889 0.52231 0.82083 0.0
H3286 H 0.24449 0.51809 0.83417 0.0
H3287 H 0.19075 0.5023 0.83275 0.0
H3288 H 0.25234 0.4396 0.5801 0.0
H3289 H 0.23574 0.49332 0.58071 0.0
H3290 H 0.32973 0.523 0.57711 0.0
H3291 H 0.34656 0.46903 0.57641 0.0
H3292 H 0.25869 0.53922 0.59351 0.0
H3293 H 0.27754 0.57074 0.55767 0.0
H3294 H 0.27345 0.53132 0.56137 0.0
H3295 H 0.30911 0.5514 0.5631 0.0
C3296 C 0.26944 0.45752 0.57927 0.0
C3297 C 0.30077 0.45014 0.5781 0.0
C3298 C 0.25992 0.48818 0.5797 0.0
C3299 C 0.28147 0.51201 0.57886 0.0
C3300 C 0.31273 0.50483 0.57766 0.0
H3301 H 0.28892 0.70112 0.59214 0.0
H3302 H 0.29028 0.64483 0.59184 0.0
C3303 C 0.32233 0.4741 0.57731 0.0
C3304 C 0.27137 0.54441 0.57958 0.0
H3305 H 0.26725 0.61176 0.56783 0.0
C3306 C 0.26027 0.55506 0.58788 0.0
C3307 C 0.27306 0.56478 0.57218 0.0
C3308 C 0.28368 0.55405 0.56304 0.0
C3309 C 0.25205 0.58605 0.58909 0.0
C3310 C 0.2551 0.60673 0.58181 0.0
C3311 C 0.26495 0.59577 0.5734 0.0
C3312 C 0.25107 0.64029 0.58296 0.0
C3313 C 0.24061 0.59658 0.59816 0.0
C3314 C 0.22827 0.65629 0.57816 0.0
C3315 C 0.22735 0.68852 0.57838 0.0
C3316 C 0.24963 0.70504 0.58324 0.0
C3317 C 0.27161 0.68885 0.58831 0.0
C3318 C 0.27229 0.65676 0.58819 0.0
H3319 H 0.23208 0.57698 0.60228 0.0
H3320 H 0.25982 0.6077 0.60187 0.0
H3321 H 0.22181 0.61374 0.59742 0.0
H3322 H 0.21186 0.6439 0.57403 0.0
H3323 H 0.21042 0.70056 0.57435 0.0
H3324 H 0.03549 0.47441 0.34027 0.0
H3325 H 0.09057 0.48037 0.34387 0.0
H3326 H 0.10611 0.52097 0.3178 0.0
H3327 H 0.05172 0.51475 0.31413 0.0
H3328 H 0.14748 0.46044 0.33347 0.0
H3329 H 0.1338 0.58685 0.33718 0.0
H3330 H 0.10173 0.56041 0.33786 0.0
H3331 H 0.11712 0.57124 0.32709 0.0
C3332 C 0.05081 0.48408 0.33527 0.0
C3333 C 0.0392 0.49459 0.32698 0.0
C3334 C 0.08216 0.4876 0.33734 0.0
C3335 C 0.10216 0.50165 0.33115 0.0
C3336 C 0.09089 0.51061 0.32272 0.0
H3337 H 0.29302 0.5206 0.32078 0.0
H3338 H 0.23917 0.5052 0.32203 0.0
C3339 C 0.05978 0.50712 0.32065 0.0
C3340 C 0.13464 0.50831 0.33346 0.0
H3341 H 0.18514 0.56818 0.33536 0.0
C3342 C 0.15574 0.48393 0.33403 0.0
C3343 C 0.14522 0.53896 0.33433 0.0
C3344 C 0.12329 0.56592 0.33417 0.0
C3345 C 0.18749 0.48958 0.33494 0.0
C3346 C 0.19826 0.52036 0.33515 0.0
C3347 C 0.17692 0.54461 0.33511 0.0
C3348 C 0.23153 0.52808 0.33477 0.0
C3349 C 0.20923 0.46256 0.33553 0.0
C3350 C 0.24502 0.5467 0.34142 0.0
C3351 C 0.2759 0.55568 0.3407 0.0
C3352 C 0.29382 0.54634 0.33329 0.0
C3353 C 0.28013 0.52772 0.32665 0.0
C3354 C 0.24932 0.51878 0.32738 0.0
H3355 H 0.19736 0.44172 0.33814 0.0
H3356 H 0.21808 0.45713 0.32871 0.0
H3357 H 0.22917 0.46783 0.33995 0.0
H3358 H 0.23162 0.55436 0.34714 0.0
H3359 H 0.28573 0.56973 0.34598 0.0
H3360 H 0.63451 0.27097 0.08327 0.0
H3361 H 0.58296 0.24761 0.08427 0.0
H3362 H 0.54943 0.31148 0.06435 0.0
H3363 H 0.60033 0.33463 0.06325 0.0
H3364 H 0.52598 0.27743 0.08882 0.0
H3365 H 0.52171 0.2275 0.05455 0.0
H3366 H 0.5573 0.23936 0.05981 0.0
H3367 H 0.5325 0.2674 0.05463 0.0
C3368 C 0.61619 0.27982 0.07905 0.0
C3369 C 0.62164 0.30462 0.07316 0.0
C3370 C 0.58675 0.26651 0.07965 0.0
C3371 C 0.56245 0.27752 0.07429 0.0
C3372 C 0.56793 0.3022 0.06842 0.0
H3373 H 0.36869 0.25889 0.06518 0.0
H3374 H 0.42339 0.27211 0.0657 0.0
C3375 C 0.59712 0.31553 0.06785 0.0
C3376 C 0.53094 0.26425 0.07494 0.0
H3377 H 0.47342 0.23307 0.06216 0.0
C3378 C 0.51459 0.26727 0.08305 0.0
C3379 C 0.51611 0.25104 0.06739 0.0
C3380 C 0.53289 0.24583 0.05863 0.0
C3381 C 0.48334 0.25881 0.08367 0.0
C3382 C 0.46823 0.2466 0.07601 0.0
C3383 C 0.48493 0.24265 0.068 0.0
C3384 C 0.43483 0.2389 0.07602 0.0
C3385 C 0.4664 0.26427 0.09239 0.0
C3386 C 0.42299 0.21576 0.08165 0.0
C3387 C 0.39163 0.20815 0.08138 0.0
C3388 C 0.37149 0.22342 0.07544 0.0
C3389 C 0.38345 0.24666 0.06984 0.0
C3390 C 0.41477 0.25423 0.07012 0.0
H3391 H 0.47933 0.27986 0.09696 0.0
H3392 H 0.44329 0.27433 0.09111 0.0
H3393 H 0.46312 0.24195 0.0959 0.0
H3394 H 0.4381 0.20323 0.08614 0.0
H3395 H 0.38327 0.19003 0.08575 0.0
H3396 H 0.97159 0.37932 0.33313 0.0
H3397 H 0.99246 0.32687 0.33427 0.0
H3398 H 0.92941 0.29652 0.31367 0.0
H3399 H 0.90822 0.34828 0.31261 0.0
H3400 H 0.92915 0.25845 0.3283 0.0
H3401 H 0.04942 0.28054 0.31718 0.0
H3402 H 0.03646 0.30364 0.32647 0.0
H3403 H 0.0189 0.30824 0.3156 0.0
C3404 C 0.96239 0.3615 0.32879 0.0
C3405 C 0.93819 0.36805 0.32279 0.0
C3406 C 0.97444 0.33156 0.32942 0.0
C3407 C 0.96271 0.30775 0.32399 0.0
C3408 C 0.93885 0.31443 0.31793 0.0
H3409 H 0.9889 0.11475 0.31263 0.0
H3410 H 0.97234 0.16848 0.31354 0.0
C3411 C 0.92676 0.34416 0.31733 0.0
C3412 C 0.97414 0.27552 0.32475 0.0
H3413 H 0.03744 0.22978 0.32173 0.0
C3414 C 0.95286 0.25223 0.32688 0.0
C3415 C 0.00511 0.26735 0.32295 0.0
C3416 C 0.02881 0.29116 0.32035 0.0
C3417 C 0.96156 0.22108 0.32715 0.0
C3418 C 0.99232 0.21285 0.32514 0.0
C3419 C 0.01384 0.23614 0.32325 0.0
C3420 C 0.00229 0.18013 0.32467 0.0
C3421 C 0.93776 0.19722 0.32963 0.0
C3422 C 0.02499 0.16888 0.33054 0.0
C3423 C 0.03452 0.1381 0.33004 0.0
C3424 C 0.02176 0.11801 0.3236 0.0
C3425 C 0.99912 0.12946 0.31771 0.0
C3426 C 0.98953 0.16018 0.31824 0.0
H3427 H 0.91791 0.20762 0.33325 0.0
H3428 H 0.92888 0.18626 0.3234 0.0
H3429 H 0.94795 0.17894 0.33393 0.0
H3430 H 0.03524 0.1839 0.33553 0.0
H3431 H 0.05207 0.13017 0.33467 0.0
H3432 H 0.1248 0.804 0.58593 0.0
H3433 H 0.06991 0.79165 0.58639 0.0
H3434 H 0.07916 0.73908 0.56192 0.0
H3435 H 0.13426 0.75084 0.56149 0.0
H3436 H 0.0252 0.80588 0.57434 0.0
H3437 H 0.03331 0.6791 0.57793 0.0
H3438 H 0.06601 0.70418 0.57952 0.0
H3439 H 0.05386 0.69369 0.56836 0.0
C3440 C 0.11528 0.78958 0.58068 0.0
C3441 C 0.13405 0.77831 0.57369 0.0
C3442 C 0.08382 0.78258 0.58094 0.0
C3443 C 0.0704 0.76409 0.57426 0.0
C3444 C 0.08907 0.7528 0.56727 0.0
H3445 H 0.87475 0.75384 0.56148 0.0
H3446 H 0.92986 0.7654 0.56185 0.0
C3447 C 0.12059 0.75969 0.56701 0.0
C3448 C 0.03671 0.75764 0.57444 0.0
H3449 H 0.98364 0.6995 0.57468 0.0
C3450 C 0.01612 0.78261 0.57445 0.0
C3451 C 0.02481 0.7273 0.5747 0.0
C3452 C 0.04562 0.69952 0.57522 0.0
C3453 C 0.98405 0.77809 0.57457 0.0
C3454 C 0.97215 0.74773 0.5745 0.0
C3455 C 0.99273 0.72277 0.57464 0.0
C3456 C 0.93845 0.74131 0.57436 0.0
C3457 C 0.96325 0.8059 0.57495 0.0
C3458 C 0.92492 0.72341 0.58116 0.0
C3459 C 0.89342 0.71654 0.58093 0.0
C3460 C 0.87474 0.72734 0.57386 0.0
C3461 C 0.88834 0.74537 0.56707 0.0
C3462 C 0.91987 0.75213 0.56729 0.0
H3463 H 0.97559 0.82649 0.57755 0.0
H3464 H 0.95497 0.81129 0.56807 0.0
H3465 H 0.94288 0.80153 0.57929 0.0
H3466 H 0.93877 0.71471 0.58667 0.0
H3467 H 0.88379 0.70254 0.58627 0.0
H3468 H 0.40713 0.84432 0.81763 0.0
H3469 H 0.43059 0.79346 0.81805 0.0
H3470 H 0.50297 0.82798 0.83517 0.0
H3471 H 0.47939 0.87949 0.83482 0.0
H3472 H 0.49141 0.77686 0.81256 0.0
H3473 H 0.46926 0.7509 0.84869 0.0
H3474 H 0.44918 0.78118 0.84277 0.0
H3475 H 0.48849 0.78658 0.84615 0.0
C3476 C 0.42801 0.84128 0.82152 0.0
C3477 C 0.4413 0.86607 0.82623 0.0
C3478 C 0.44142 0.81209 0.82173 0.0
C3479 C 0.46834 0.80682 0.8267 0.0
C3480 C 0.48192 0.83146 0.83139 0.0
H3481 H 0.5617 0.62943 0.83445 0.0
H3482 H 0.54776 0.68399 0.83512 0.0
C3483 C 0.46851 0.86089 0.83115 0.0
C3484 C 0.48198 0.77543 0.82678 0.0
H3485 H 0.4932 0.71221 0.84008 0.0
C3486 C 0.49202 0.76278 0.81859 0.0
C3487 C 0.48285 0.75716 0.83465 0.0
C3488 C 0.47173 0.76941 0.84358 0.0
C3489 C 0.5025 0.73224 0.81803 0.0
C3490 C 0.50228 0.71355 0.82584 0.0
C3491 C 0.49317 0.72649 0.83409 0.0
C3492 C 0.51052 0.6803 0.8255 0.0
C3493 C 0.51381 0.72033 0.80908 0.0
C3494 C 0.49387 0.65991 0.82001 0.0
C3495 C 0.50182 0.62871 0.81959 0.0
C3496 C 0.52646 0.61715 0.82472 0.0
C3497 C 0.54268 0.63752 0.83038 0.0
C3498 C 0.53473 0.66875 0.83078 0.0
H3499 H 0.52117 0.73942 0.80459 0.0
H3500 H 0.53344 0.70421 0.80996 0.0
H3501 H 0.49483 0.70779 0.80568 0.0
H3502 H 0.47461 0.66813 0.81604 0.0
H3503 H 0.48864 0.61369 0.81523 0.0
H3504 H 0.63634 0.72984 0.41503 0.0
H3505 H 0.58347 0.74968 0.4137 0.0
H3506 H 0.55501 0.69129 0.43565 0.0
H3507 H 0.60718 0.67131 0.43697 0.0
H3508 H 0.51738 0.68653 0.42039 0.0
H3509 H 0.53527 0.80881 0.43031 0.0
H3510 H 0.55965 0.79429 0.42149 0.0
H3511 H 0.56328 0.77915 0.43268 0.0
C3512 C 0.61887 0.72153 0.41963 0.0
C3513 C 0.62604 0.69891 0.42609 0.0
C3514 C 0.58869 0.73295 0.41888 0.0
C3515 C 0.56529 0.72207 0.42461 0.0
C3516 C 0.57263 0.69999 0.43115 0.0
H3517 H 0.37161 0.73983 0.43575 0.0
H3518 H 0.42596 0.72559 0.43472 0.0
C3519 C 0.60258 0.68861 0.43189 0.0
C3520 C 0.53275 0.73233 0.42365 0.0
H3521 H 0.48475 0.79406 0.42636 0.0
C3522 C 0.51027 0.71008 0.42165 0.0
C3523 C 0.5235 0.76309 0.42524 0.0
C3524 C 0.54656 0.78778 0.42762 0.0
C3525 C 0.47882 0.71761 0.42133 0.0
C3526 C 0.46944 0.74813 0.42323 0.0
C3527 C 0.49196 0.77064 0.42495 0.0
C3528 C 0.43633 0.75681 0.42378 0.0
C3529 C 0.45592 0.69279 0.41893 0.0
C3530 C 0.42414 0.77958 0.4181 0.0
C3531 C 0.39301 0.78787 0.4187 0.0
C3532 C 0.37348 0.77373 0.42504 0.0
C3533 C 0.38586 0.75106 0.43075 0.0
C3534 C 0.41695 0.74278 0.43015 0.0
H3535 H 0.46701 0.67365 0.41517 0.0
H3536 H 0.44601 0.68308 0.4252 0.0
H3537 H 0.43678 0.70218 0.4148 0.0
H3538 H 0.43869 0.79083 0.41318 0.0
H3539 H 0.38433 0.8055 0.41421 0.0
H3540 H 0.47709 0.12531 0.66644 0.0
H3541 H 0.49892 0.17753 0.66605 0.0
H3542 H 0.43502 0.2061 0.68663 0.0
H3543 H 0.41328 0.15439 0.6871 0.0
H3544 H 0.46669 0.23409 0.66237 0.0
H3545 H 0.51927 0.23455 0.69637 0.0
H3546 H 0.50815 0.1995 0.69068 0.0
H3547 H 0.47963 0.22271 0.69625 0.0
C3548 C 0.46787 0.14267 0.67092 0.0
C3549 C 0.44348 0.1356 0.67682 0.0
C3550 C 0.48032 0.17249 0.67068 0.0
C3551 C 0.46886 0.19559 0.67639 0.0
C3552 C 0.4446 0.18852 0.68227 0.0
H3553 H 0.49246 0.38899 0.68729 0.0
H3554 H 0.47744 0.33475 0.68665 0.0
C3555 C 0.43209 0.1589 0.68249 0.0
C3556 C 0.48129 0.22746 0.67607 0.0
H3557 H 0.51399 0.28329 0.68915 0.0
C3558 C 0.47739 0.24479 0.66817 0.0
C3559 C 0.49513 0.24137 0.68366 0.0
C3560 C 0.50109 0.22353 0.6922 0.0
C3561 C 0.48587 0.27605 0.66779 0.0
C3562 C 0.49914 0.29015 0.67547 0.0
C3563 C 0.50366 0.27256 0.68329 0.0
C3564 C 0.5079 0.32328 0.67562 0.0
C3565 C 0.47945 0.29397 0.6593 0.0
C3566 C 0.53016 0.33491 0.66966 0.0
C3567 C 0.53873 0.36598 0.66999 0.0
C3568 C 0.52539 0.38604 0.67634 0.0
C3569 C 0.50316 0.37427 0.68231 0.0
C3570 C 0.49457 0.34323 0.68196 0.0
H3571 H 0.46236 0.28212 0.65494 0.0
H3572 H 0.47073 0.31739 0.66089 0.0
H3573 H 0.50114 0.29644 0.65541 0.0
H3574 H 0.54126 0.31985 0.66484 0.0
H3575 H 0.55609 0.37415 0.66533 0.0
H3576 H 0.88859 0.31187 0.91385 0.0
H3577 H 0.94333 0.29841 0.91345 0.0
H3578 H 0.92903 0.23238 0.93471 0.0
H3579 H 0.87442 0.24594 0.93525 0.0
H3580 H 0.9796 0.27066 0.93763 0.0
H3581 H 0.98311 0.22052 0.90322 0.0
H3582 H 0.96768 0.25883 0.90395 0.0
H3583 H 0.94745 0.22741 0.90913 0.0
C3584 C 0.89702 0.29435 0.91841 0.0
C3585 C 0.87702 0.27995 0.92457 0.0
C3586 C 0.92833 0.28658 0.91814 0.0
C3587 C 0.94024 0.26411 0.92398 0.0
C3588 C 0.92034 0.24973 0.93013 0.0
H3589 H 0.10617 0.16804 0.93635 0.0
H3590 H 0.05525 0.19135 0.9355 0.0
C3591 C 0.88908 0.25748 0.93041 0.0
C3592 C 0.97355 0.25605 0.9239 0.0
H3593 H 0.03036 0.22377 0.91104 0.0
C3594 C 0.99071 0.26051 0.9318 0.0
C3595 C 0.98813 0.24304 0.91627 0.0
C3596 C 0.97068 0.23689 0.90767 0.0
C3597 C 0.02185 0.25193 0.93233 0.0
C3598 C 0.03617 0.23806 0.9248 0.0
C3599 C 0.01935 0.23446 0.9168 0.0
C3600 C 0.06769 0.22483 0.92536 0.0
C3601 C 0.03916 0.25767 0.94097 0.0
C3602 C 0.09164 0.23559 0.91983 0.0
C3603 C 0.12106 0.22222 0.92029 0.0
C3604 C 0.12682 0.19761 0.92622 0.0
C3605 C 0.10268 0.18698 0.93172 0.0
C3606 C 0.0735 0.2004 0.93129 0.0
H3607 H 0.0282 0.27617 0.94503 0.0
H3608 H 0.03914 0.2363 0.94507 0.0
H3609 H 0.06348 0.26415 0.93962 0.0
H3610 H 0.08757 0.25431 0.91516 0.0
H3611 H 0.1391 0.23085 0.91593 0.0
H3612 H 0.94312 0.63032 0.16368 0.0
H3613 H 0.95955 0.68419 0.16262 0.0
H3614 H 0.02884 0.66789 0.18284 0.0
H3615 H 0.01276 0.61407 0.18392 0.0
H3616 H 0.96143 0.72935 0.17661 0.0
H3617 H 0.07714 0.70822 0.16204 0.0
H3618 H 0.04707 0.67948 0.16199 0.0
H3619 H 0.06927 0.68622 0.17202 0.0
C3620 C 0.962 0.63811 0.16786 0.0
C3621 C 0.97671 0.61777 0.17386 0.0
C3622 C 0.97129 0.66895 0.16726 0.0
C3623 C 0.99566 0.67998 0.17257 0.0
C3624 C 0.01032 0.65976 0.17857 0.0
H3625 H 0.09232 0.84691 0.18395 0.0
H3626 H 0.071 0.7952 0.1828 0.0
C3627 C 1.00099 0.629 0.17921 0.0
C3628 C 0.00542 0.71274 0.17202 0.0
H3629 H 0.06762 0.75861 0.16772 0.0
C3630 C 0.98453 0.73585 0.17457 0.0
C3631 C 0.03552 0.72115 0.16933 0.0
C3632 C 0.0585 0.69753 0.1661 0.0
C3633 C 0.99339 0.76702 0.1749 0.0
C3634 C 0.02379 0.77533 0.17244 0.0
C3635 C 0.04435 0.75226 0.16963 0.0
C3636 C 0.0355 0.80744 0.17324 0.0
C3637 C 0.97056 0.79061 0.17823 0.0
C3638 C 0.02261 0.83175 0.16825 0.0
C3639 C 0.03474 0.86164 0.16892 0.0
C3640 C 0.06015 0.86765 0.17454 0.0
C3641 C 0.07279 0.84322 0.17954 0.0
C3642 C 0.06065 0.81353 0.17889 0.0
H3643 H 0.95068 0.77973 0.1817 0.0
H3644 H 0.98174 0.80705 0.18293 0.0
H3645 H 0.96157 0.80389 0.17241 0.0
H3646 H 0.00353 0.82753 0.16372 0.0
H3647 H 0.02456 0.87988 0.16493 0.0
H3648 H 0.36854 0.76094 0.93282 0.0
H3649 H 0.42249 0.77679 0.9322 0.0
H3650 H 0.44029 0.70828 0.91185 0.0
H3651 H 0.38627 0.69202 0.91247 0.0
H3652 H 0.48423 0.7091 0.92592 0.0
H3653 H 0.4649 0.82617 0.91217 0.0
H3654 H 0.44233 0.81793 0.92201 0.0
H3655 H 0.43578 0.7965 0.91183 0.0
C3656 C 0.38382 0.74931 0.92817 0.0
C3657 C 0.37297 0.72528 0.92266 0.0
C3658 C 0.41467 0.75852 0.92779 0.0
C3659 C 0.43535 0.74403 0.92189 0.0
C3660 C 0.4247 0.71991 0.91642 0.0
H3661 H 0.63549 0.77267 0.91527 0.0
H3662 H 0.58306 0.7521 0.91377 0.0
C3663 C 0.39378 0.71071 0.91677 0.0
C3664 C 0.46821 0.75364 0.92163 0.0
H3665 H 0.51477 0.81594 0.91819 0.0
C3666 C 0.49101 0.73235 0.92414 0.0
C3667 C 0.47699 0.78395 0.91926 0.0
C3668 C 0.45377 0.8074 0.91608 0.0
C3669 C 0.52221 0.74096 0.92473 0.0
C3670 C 0.53086 0.77154 0.9226 0.0
C3671 C 0.50812 0.79255 0.91985 0.0
C3672 C 0.56302 0.78285 0.92363 0.0
C3673 C 0.54546 0.71763 0.92796 0.0
C3674 C 0.56916 0.80713 0.92959 0.0
C3675 C 0.59892 0.819 0.93042 0.0
C3676 C 0.62334 0.80696 0.92528 0.0
C3677 C 0.61727 0.78237 0.91936 0.0
C3678 C 0.58733 0.7705 0.91852 0.0
H3679 H 0.53425 0.69742 0.93116 0.0
H3680 H 0.55913 0.70928 0.92214 0.0
H3681 H 0.56162 0.72817 0.93286 0.0
H3682 H 0.5508 0.81704 0.93359 0.0
H3683 H 0.60267 0.83789 0.93505 0.0
H3684 H 0.04738 0.63026 0.6635 0.0
H3685 H 0.03467 0.6851 0.66342 0.0
H3686 H 0.99003 0.67545 0.68919 0.0
H3687 H 0.00202 0.62042 0.68924 0.0
H3688 H 0.95657 0.71103 0.67787 0.0
H3689 H 0.07789 0.75084 0.67797 0.0
H3690 H 0.06905 0.72585 0.6687 0.0
H3691 H 0.06739 0.71126 0.68003 0.0
C3692 C 0.03476 0.63974 0.66914 0.0
C3693 C 0.02587 0.6209 0.6764 0.0
C3694 C 0.02772 0.6712 0.66912 0.0
C3695 C 0.01199 0.68461 0.67639 0.0
C3696 C 0.00237 0.6657 0.68353 0.0
H3697 H 0.00193 0.88096 0.6883 0.0
H3698 H 0.01321 0.82573 0.6882 0.0
C3699 C 0.00923 0.6342 0.68354 0.0
C3700 C 0.00542 0.71827 0.67655 0.0
H3701 H 0.03961 0.78913 0.67558 0.0
C3702 C 0.97474 0.7281 0.67739 0.0
C3703 C 0.02916 0.74061 0.67608 0.0
C3704 C 0.06274 0.73167 0.67574 0.0
C3705 C 0.96709 0.75956 0.67763 0.0
C3706 C 0.99072 0.78189 0.6768 0.0
C3707 C 0.02145 0.77206 0.67611 0.0
C3708 C 0.98409 0.81554 0.67676 0.0
C3709 C 0.93381 0.76853 0.67896 0.0
C3710 C 0.96442 0.82837 0.67026 0.0
C3711 C 0.95778 0.85991 0.67033 0.0
C3712 C 0.97098 0.87942 0.67684 0.0
C3713 C 0.9913 0.86664 0.6832 0.0
C3714 C 0.99779 0.83504 0.68315 0.0
H3715 H 0.92027 0.74954 0.68204 0.0
H3716 H 0.93175 0.78925 0.68329 0.0
H3717 H 0.92337 0.77384 0.67232 0.0
H3718 H 0.95421 0.814 0.66511 0.0
H3719 H 0.94227 0.86896 0.66528 0.0
H3720 H 0.88503 0.19783 0.41396 0.0
H3721 H 0.94001 0.20977 0.41356 0.0
H3722 H 0.9306 0.26355 0.4378 0.0
H3723 H 0.87536 0.25227 0.43815 0.0
H3724 H 0.96682 0.29226 0.42545 0.0
H3725 H 0.00492 0.17126 0.42955 0.0
H3726 H 0.98002 0.17681 0.42005 0.0
H3727 H 0.96549 0.18305 0.43124 0.0
C3728 C 0.89458 0.21228 0.4192 0.0
C3729 C 0.87574 0.22393 0.42612 0.0
C3730 C 0.92612 0.2189 0.419 0.0
C3731 C 0.93963 0.23699 0.42576 0.0
C3732 C 0.92076 0.24935 0.43254 0.0
H3733 H 0.13575 0.24935 0.43759 0.0
H3734 H 0.08046 0.23843 0.43765 0.0
C3735 C 0.88915 0.24288 0.43273 0.0
C3736 C 0.97338 0.24314 0.42575 0.0
H3737 H 0.04377 0.20782 0.42591 0.0
C3738 C 0.98365 0.2738 0.42557 0.0
C3739 C 0.99538 0.21907 0.42606 0.0
C3740 C 0.98596 0.18571 0.42683 0.0
C3741 C 0.01522 0.28104 0.42555 0.0
C3742 C 0.03722 0.25694 0.4255 0.0
C3743 C 0.02695 0.22629 0.42583 0.0
C3744 C 0.07097 0.26303 0.42529 0.0
C3745 C 0.02468 0.31448 0.42576 0.0
C3746 C 0.08424 0.27992 0.41822 0.0
C3747 C 0.11585 0.28633 0.41819 0.0
C3748 C 0.13496 0.27567 0.42518 0.0
C3749 C 0.12176 0.25795 0.43211 0.0
C3750 C 0.09011 0.25169 0.43216 0.0
H3751 H 0.00586 0.32942 0.42834 0.0
H3752 H 0.04537 0.31792 0.43004 0.0
H3753 H 0.03029 0.32215 0.41883 0.0
H3754 H 0.07014 0.28822 0.41273 0.0
H3755 H 0.12524 0.29982 0.41271 0.0
H3756 H 0.5256 0.1251 0.16544 0.0
H3757 H 0.50563 0.17786 0.16405 0.0
H3758 H 0.56872 0.20813 0.18464 0.0
H3759 H 0.58896 0.15603 0.18599 0.0
H3760 H 0.4787 0.21754 0.17682 0.0
H3761 H 0.58787 0.2666 0.1639 0.0
H3762 H 0.58071 0.22567 0.1643 0.0
H3763 H 0.59274 0.24595 0.17426 0.0
C3764 C 0.53515 0.143 0.16968 0.0
C3765 C 0.55912 0.13636 0.17576 0.0
C3766 C 0.52373 0.17313 0.16888 0.0
C3767 C 0.53618 0.19708 0.1741 0.0
C3768 C 0.55932 0.19022 0.18037 0.0
H3769 H 0.50939 0.39017 0.18439 0.0
H3770 H 0.52513 0.33611 0.18387 0.0
C3771 C 0.57075 0.1603 0.18116 0.0
C3772 C 0.52514 0.22932 0.1731 0.0
H3773 H 0.5502 0.30265 0.16904 0.0
C3774 C 0.4942 0.23613 0.17501 0.0
C3775 C 0.5454 0.25356 0.17071 0.0
C3776 C 0.57845 0.2476 0.16809 0.0
C3777 C 0.48331 0.26666 0.17497 0.0
C3778 C 0.50384 0.29094 0.17285 0.0
C3779 C 0.53456 0.28404 0.17073 0.0
C3780 C 0.49416 0.32377 0.17305 0.0
C3781 C 0.45023 0.27282 0.17751 0.0
C3782 C 0.47186 0.33493 0.16704 0.0
C3783 C 0.46287 0.36589 0.16729 0.0
C3784 C 0.47604 0.38633 0.17356 0.0
C3785 C 0.49869 0.37512 0.17949 0.0
C3786 C 0.50774 0.3442 0.1792 0.0
H3787 H 0.43932 0.25254 0.18077 0.0
H3788 H 0.44862 0.2928 0.18215 0.0
H3789 H 0.4369 0.27842 0.17136 0.0
H3790 H 0.46149 0.31971 0.16212 0.0
H3791 H 0.44543 0.37371 0.16261 0.0
H3792 H 0.62184 0.20412 0.58567 0.0
H3793 H 0.56679 0.21576 0.58564 0.0
H3794 H 0.57727 0.26574 0.56075 0.0
H3795 H 0.63259 0.25474 0.56082 0.0
H3796 H 0.54028 0.29617 0.5726 0.0
H3797 H 0.50293 0.17448 0.56986 0.0
H3798 H 0.52736 0.18153 0.57938 0.0
H3799 H 0.54238 0.18622 0.56817 0.0
C3800 C 0.61251 0.21766 0.58019 0.0
C3801 C 0.63167 0.22833 0.57321 0.0
C3802 C 0.58093 0.22411 0.58015 0.0
C3803 C 0.56772 0.24104 0.57309 0.0
C3804 C 0.5869 0.25243 0.56624 0.0
H3805 H 0.37195 0.25088 0.56049 0.0
H3806 H 0.42729 0.24021 0.5607 0.0
C3807 C 0.61855 0.24614 0.56629 0.0
C3808 C 0.53395 0.24701 0.57287 0.0
H3809 H 0.46374 0.21132 0.57291 0.0
C3810 C 0.52355 0.27761 0.57264 0.0
C3811 C 0.51208 0.22279 0.57279 0.0
C3812 C 0.52169 0.18941 0.57247 0.0
C3813 C 0.49194 0.28468 0.57248 0.0
C3814 C 0.47006 0.26049 0.57275 0.0
C3815 C 0.48047 0.22987 0.57282 0.0
C3816 C 0.43628 0.26643 0.5728 0.0
C3817 C 0.48233 0.31801 0.57184 0.0
C3818 C 0.42273 0.28415 0.57964 0.0
C3819 C 0.39111 0.29042 0.57952 0.0
C3820 C 0.37225 0.27878 0.57261 0.0
C3821 C 0.38574 0.26025 0.56591 0.0
C3822 C 0.41741 0.25413 0.56602 0.0
H3823 H 0.50118 0.33267 0.56914 0.0
H3824 H 0.46178 0.32073 0.56746 0.0
H3825 H 0.47643 0.32661 0.57865 0.0
H3826 H 0.43663 0.29323 0.58508 0.0
H3827 H 0.3815 0.30457 0.58483 0.0
H3828 H 0.55205 0.87016 0.33486 0.0
H3829 H 0.53719 0.81582 0.33489 0.0
H3830 H 0.47189 0.8334 0.31364 0.0
H3831 H 0.48693 0.88765 0.31345 0.0
H3832 H 0.48114 0.78755 0.33787 0.0
H3833 H 0.52232 0.76275 0.30333 0.0
H3834 H 0.53247 0.79755 0.30927 0.0
H3835 H 0.49567 0.79429 0.30378 0.0
C3836 C 0.53449 0.86253 0.3302 0.0
C3837 C 0.52086 0.8833 0.3241 0.0
C3838 C 0.52603 0.83141 0.33022 0.0
C3839 C 0.50388 0.82038 0.32414 0.0
C3840 C 0.4896 0.84121 0.31824 0.0
H3841 H 0.40638 0.65431 0.31253 0.0
H3842 H 0.42847 0.70576 0.31361 0.0
C3843 C 0.49808 0.8723 0.31819 0.0
C3844 C 0.49551 0.78716 0.32401 0.0
H3845 H 0.49042 0.72454 0.31016 0.0
C3846 C 0.48347 0.77366 0.33185 0.0
C3847 C 0.4988 0.76896 0.31616 0.0
C3848 C 0.51331 0.78151 0.30769 0.0
C3849 C 0.47339 0.74286 0.33193 0.0
C3850 C 0.47576 0.72502 0.32399 0.0
C3851 C 0.48855 0.73828 0.31623 0.0
C3852 C 0.46316 0.69328 0.32339 0.0
C3853 C 0.45919 0.72996 0.34039 0.0
C3854 C 0.47562 0.66895 0.32846 0.0
C3855 C 0.46304 0.63924 0.32784 0.0
C3856 C 0.43776 0.63345 0.32215 0.0
C3857 C 0.42574 0.65787 0.31701 0.0
C3858 C 0.43836 0.68737 0.31761 0.0
H3859 H 0.45415 0.74822 0.34542 0.0
H3860 H 0.43749 0.71753 0.33882 0.0
H3861 H 0.47537 0.71325 0.34349 0.0
H3862 H 0.49508 0.67292 0.33287 0.0
H3863 H 0.4729 0.62095 0.33187 0.0
H3864 H 0.13068 0.72835 0.0819 0.0
H3865 H 0.07796 0.7484 0.08334 0.0
H3866 H 0.04641 0.68214 0.0638 0.0
H3867 H 0.09848 0.66181 0.0624 0.0
H3868 H 0.03761 0.77331 0.07043 0.0
H3869 H 0.98908 0.66651 0.08506 0.0
H3870 H 0.03001 0.67348 0.08436 0.0
H3871 H 0.00911 0.65994 0.07467 0.0
C3872 C 0.1125 0.7181 0.0779 0.0
C3873 C 0.11879 0.69326 0.0721 0.0
C3874 C 0.0824 0.72957 0.07874 0.0
C3875 C 0.05812 0.71631 0.07382 0.0
C3876 C 0.06459 0.69221 0.06783 0.0
H3877 H 0.86445 0.74188 0.06416 0.0
H3878 H 0.91851 0.72605 0.06465 0.0
C3879 C 0.0945 0.68073 0.06701 0.0
C3880 C 0.02594 0.72757 0.07484 0.0
H3881 H 0.95279 0.70341 0.0796 0.0
C3882 C 0.0191 0.75817 0.07254 0.0
C3883 C 0.0018 0.70779 0.07762 0.0
C3884 C 0.00785 0.67519 0.08066 0.0
C3885 C 0.98859 0.76915 0.07259 0.0
C3886 C 0.96438 0.74907 0.07511 0.0
C3887 C 0.97134 0.71871 0.07761 0.0
C3888 C 0.93156 0.75879 0.07494 0.0
C3889 C 0.98236 0.80179 0.06963 0.0
C3890 C 0.9208 0.78214 0.08067 0.0
C3891 C 0.88985 0.7912 0.08042 0.0
C3892 C 0.86902 0.77705 0.07445 0.0
C3893 C 0.87982 0.75335 0.06882 0.0
C3894 C 0.91073 0.74425 0.06909 0.0
H3895 H 0.00246 0.81208 0.0661 0.0
H3896 H 0.96207 0.80273 0.06508 0.0
H3897 H 0.97721 0.81613 0.07562 0.0
H3898 H 0.93633 0.79329 0.08535 0.0
H3899 H 0.88234 0.80946 0.08488 0.0
H3900 H 0.00331 0.37876 0.80942 0.0
H3901 H 0.98954 0.32427 0.81036 0.0
H3902 H 0.03956 0.31642 0.83532 0.0
H3903 H 0.05408 0.37072 0.83433 0.0
H3904 H 0.05282 0.26947 0.82426 0.0
H3905 H 0.92614 0.28311 0.82611 0.0
H3906 H 0.9425 0.30142 0.8164 0.0
H3907 H 0.95227 0.31509 0.82747 0.0
C3908 C 0.01122 0.36553 0.81515 0.0
C3909 C 0.02975 0.37921 0.82181 0.0
C3910 C 0.00315 0.33436 0.8157 0.0
C3911 C 0.01304 0.31627 0.82299 0.0
C3912 C 0.03152 0.32989 0.82965 0.0
H3913 H 0.94136 0.13301 0.83534 0.0
H3914 H 0.95508 0.18767 0.83561 0.0
C3915 C 0.03977 0.36099 0.82908 0.0
C3916 C 0.00514 0.28292 0.82351 0.0
H3917 H 0.94483 0.2323 0.82336 0.0
C3918 C 0.02919 0.26137 0.82411 0.0
C3919 C 0.97429 0.27228 0.82346 0.0
C3920 C 0.94731 0.29418 0.82342 0.0
C3921 C 0.02331 0.22955 0.82447 0.0
C3922 C 0.99253 0.21885 0.82401 0.0
C3923 C 0.96844 0.24042 0.82361 0.0
C3924 C 0.98479 0.18542 0.82393 0.0
C3925 C 0.05017 0.20777 0.82551 0.0
C3926 C 0.99669 0.16591 0.81724 0.0
C3927 C 0.98907 0.13459 0.81711 0.0
C3928 C 0.96902 0.12213 0.8236 0.0
C3929 C 0.95691 0.14178 0.83025 0.0
C3930 C 0.96469 0.17308 0.8304 0.0
H3931 H 0.07052 0.21952 0.82847 0.0
H3932 H 0.04404 0.18783 0.82983 0.0
H3933 H 0.05694 0.19897 0.81878 0.0
H3934 H 0.0116 0.17497 0.81203 0.0
H3935 H 0.99862 0.12024 0.81184 0.0
loop_
_geom_bond_atom_site_label_1
_geom_bond_atom_site_label_2
_geom_bond_distance
_geom_bond_site_symmetry_2
_ccdc_geom_bond_type
Co0 N4 2.148 . S
Co0 N10 2.128 . S
Co0 N20 2.194 . S
Co0 O25 2.351 . S
Co0 O26 2.155 . S
Co0 O27 2.096 . S
C1 N4 1.301 . S
C1 N5 1.328 . S
C1 H6 0.930 . S
C2 C3 1.333 . S
C2 N4 1.317 . S
C2 H7 0.930 . S
C3 C2 1.333 . S
C3 N5 1.350 . S
C3 H29 0.931 . S
N4 Co0 2.148 . S
N4 C1 1.301 . S
N4 C2 1.317 . S
N5 C1 1.328 . S
N5 C3 1.350 . S
H6 C1 0.930 . S
H7 C2 0.930 . S
C8 O9 1.224 . S
C8 O27 1.247 . S
O9 C8 1.224 . S
N10 Co0 2.128 . S
N10 C11 1.355 . S
N10 C13 1.311 . S
C11 N10 1.355 . S
C11 C12 1.363 . S
C11 H23 0.929 . S
C12 C11 1.363 . S
C12 N14 1.375 . S
C12 H30 0.931 . S
C13 N10 1.311 . S
C13 N14 1.347 . S
C13 H24 0.929 . S
N14 C12 1.375 . S
N14 C13 1.347 . S
C15 C18 1.365 . S
C15 N20 1.328 . S
C15 H21 0.929 . S
C16 C17 1.362 . S
C16 C19 1.378 . S
C16 H31 0.929 . S
C17 C16 1.362 . S
C17 C18 1.366 . S
C18 C15 1.365 . S
C18 C17 1.366 . S
C18 H32 0.930 . S
C19 C16 1.378 . S
C19 N20 1.315 . S
C19 H22 0.930 . S
N20 Co0 2.194 . S
N20 C15 1.328 . S
N20 C19 1.315 . S
H21 C15 0.929 . S
H22 C19 0.930 . S
H23 C11 0.929 . S
H24 C13 0.929 . S
O25 Co0 2.351 . S
O25 C28 1.244 . S
O26 Co0 2.155 . S
O26 C28 1.240 . S
O27 Co0 2.096 . S
O27 C8 1.247 . S
C28 O25 1.244 . S
C28 O26 1.240 . S
H29 C3 0.931 . S
H30 C12 0.931 . S
H31 C16 0.929 . S
H32 C18 0.930 . S
Co33 N37 2.148 . S
Co33 N43 2.128 . S
Co33 N53 2.194 . S
Co33 O58 2.351 1_545 S
Co33 O59 2.155 . S
Co33 O60 2.096 . S
C34 N37 1.301 . S
C34 N38 1.328 . S
C34 H39 0.930 . S
C35 C36 1.333 . S
C35 N37 1.317 . S
C35 H40 0.930 . S
C36 C35 1.333 . S
C36 N38 1.350 . S
C36 H62 0.931 . S
N37 Co33 2.148 . S
N37 C34 1.301 . S
N37 C35 1.317 . S
N38 C34 1.328 . S
N38 C36 1.350 . S
H39 C34 0.930 . S
H40 C35 0.930 . S
C41 O42 1.224 . S
C41 O60 1.247 . S
O42 C41 1.224 . S
N43 Co33 2.128 . S
N43 C44 1.355 1_545 S
N43 C46 1.311 . S
C44 N43 1.355 1_565 S
C44 C45 1.363 1_455 S
C44 H56 0.929 . S
C45 C44 1.363 1_655 S
C45 N47 1.375 1_565 S
C45 H63 0.931 . S
C46 N43 1.311 . S
C46 N47 1.347 1_455 S
C46 H57 0.929 . S
N47 C45 1.375 1_545 S
N47 C46 1.347 1_655 S
C48 C51 1.365 . S
C48 N53 1.328 1_565 S
C48 H54 0.929 . S
C49 C50 1.362 1_545 S
C49 C52 1.378 . S
C49 H64 0.929 . S
C50 C49 1.362 1_565 S
C50 C51 1.366 . S
C51 C48 1.365 . S
C51 C50 1.366 . S
C51 H65 0.930 . S
C52 C49 1.378 . S
C52 N53 1.315 . S
C52 H55 0.930 . S
N53 Co33 2.194 . S
N53 C48 1.328 1_545 S
N53 C52 1.315 . S
H54 C48 0.929 . S
H55 C52 0.930 . S
H56 C44 0.929 . S
H57 C46 0.929 . S
O58 Co33 2.351 1_565 S
O58 C61 1.244 . S
O59 Co33 2.155 . S
O59 C61 1.240 1_545 S
O60 Co33 2.096 . S
O60 C41 1.247 . S
C61 O58 1.244 . S
C61 O59 1.240 1_565 S
H62 C36 0.931 . S
H63 C45 0.931 . S
H64 C49 0.929 . S
H65 C51 0.930 . S
Co66 N70 2.148 . S
Co66 N76 2.128 . S
Co66 N86 2.194 . S
Co66 O91 2.351 . S
Co66 O92 2.155 . S
Co66 O93 2.096 . S
C67 N70 1.301 . S
C67 N71 1.328 . S
C67 H72 0.930 . S
C68 C69 1.333 . S
C68 N70 1.317 . S
C68 H73 0.930 . S
C69 C68 1.333 . S
C69 N71 1.350 . S
C69 H95 0.931 . S
N70 Co66 2.148 . S
N70 C67 1.301 . S
N70 C68 1.317 . S
N71 C67 1.328 . S
N71 C69 1.350 . S
H72 C67 0.930 . S
H73 C68 0.930 . S
C74 O75 1.224 . S
C74 O93 1.247 . S
O75 C74 1.224 . S
N76 Co66 2.128 . S
N76 C77 1.355 . S
N76 C79 1.311 . S
C77 N76 1.355 . S
C77 C78 1.363 . S
C77 H89 0.929 . S
C78 C77 1.363 . S
C78 N80 1.375 . S
C78 H96 0.931 . S
C79 N76 1.311 . S
C79 N80 1.347 . S
C79 H90 0.929 . S
N80 C78 1.375 . S
N80 C79 1.347 . S
C81 C84 1.365 . S
C81 N86 1.328 . S
C81 H87 0.929 . S
C82 C83 1.362 . S
C82 C85 1.378 . S
C82 H97 0.929 . S
C83 C82 1.362 . S
C83 C84 1.366 . S
C84 C81 1.365 . S
C84 C83 1.366 . S
C84 H98 0.930 . S
C85 C82 1.378 . S
C85 N86 1.315 . S
C85 H88 0.930 . S
N86 Co66 2.194 . S
N86 C81 1.328 . S
N86 C85 1.315 . S
H87 C81 0.929 . S
H88 C85 0.930 . S
H89 C77 0.929 . S
H90 C79 0.929 . S
O91 Co66 2.351 . S
O91 C94 1.244 . S
O92 Co66 2.155 . S
O92 C94 1.240 . S
O93 Co66 2.096 . S
O93 C74 1.247 . S
C94 O91 1.244 . S
C94 O92 1.240 . S
H95 C69 0.931 . S
H96 C78 0.931 . S
H97 C82 0.929 . S
H98 C84 0.930 . S
Co99 N103 2.148 . S
Co99 N109 2.128 . S
Co99 N119 2.194 . S
Co99 O124 2.351 1_565 S
Co99 O125 2.155 . S
Co99 O126 2.096 . S
C100 N103 1.301 . S
C100 N104 1.328 . S
C100 H105 0.930 . S
C101 C102 1.333 . S
C101 N103 1.317 . S
C101 H106 0.930 . S
C102 C101 1.333 . S
C102 N104 1.350 . S
C102 H128 0.931 . S
N103 Co99 2.148 . S
N103 C100 1.301 . S
N103 C101 1.317 . S
N104 C100 1.328 . S
N104 C102 1.350 . S
H105 C100 0.930 . S
H106 C101 0.930 . S
C107 O108 1.224 . S
C107 O126 1.247 . S
O108 C107 1.224 . S
N109 Co99 2.128 . S
N109 C110 1.355 1_565 S
N109 C112 1.311 . S
C110 N109 1.355 1_545 S
C110 C111 1.363 . S
C110 H122 0.929 . S
C111 C110 1.363 . S
C111 N113 1.375 1_545 S
C111 H129 0.931 . S
C112 N109 1.311 . S
C112 N113 1.347 . S
C112 H123 0.929 . S
N113 C111 1.375 1_565 S
N113 C112 1.347 . S
C114 C117 1.365 . S
C114 N119 1.328 1_545 S
C114 H120 0.929 . S
C115 C116 1.362 1_565 S
C115 C118 1.378 . S
C115 H130 0.929 . S
C116 C115 1.362 1_545 S
C116 C117 1.366 . S
C117 C114 1.365 . S
C117 C116 1.366 . S
C117 H131 0.930 . S
C118 C115 1.378 . S
C118 N119 1.315 . S
C118 H121 0.930 . S
N119 Co99 2.194 . S
N119 C114 1.328 1_565 S
N119 C118 1.315 . S
H120 C114 0.929 . S
H121 C118 0.930 . S
H122 C110 0.929 . S
H123 C112 0.929 . S
O124 Co99 2.351 1_545 S
O124 C127 1.244 . S
O125 Co99 2.155 . S
O125 C127 1.240 1_565 S
O126 Co99 2.096 . S
O126 C107 1.247 . S
C127 O124 1.244 . S
C127 O125 1.240 1_545 S
H128 C102 0.931 . S
H129 C111 0.931 . S
H130 C115 0.929 . S
H131 C117 0.930 . S
Co132 N136 2.148 . S
Co132 N142 2.128 . S
Co132 N152 2.194 . S
Co132 O157 2.351 . S
Co132 O158 2.155 . S
Co132 O159 2.096 . S
C133 N136 1.301 . S
C133 N137 1.328 . S
C133 H138 0.930 . S
C134 C135 1.333 . S
C134 N136 1.317 . S
C134 H139 0.930 . S
C135 C134 1.333 . S
C135 N137 1.350 . S
C135 H161 0.931 . S
N136 Co132 2.148 . S
N136 C133 1.301 . S
N136 C134 1.317 . S
N137 C133 1.328 . S
N137 C135 1.350 . S
H138 C133 0.930 . S
H139 C134 0.930 . S
C140 O141 1.224 . S
C140 O159 1.247 . S
O141 C140 1.224 . S
N142 Co132 2.128 . S
N142 C143 1.355 . S
N142 C145 1.311 . S
C143 N142 1.355 . S
C143 C144 1.363 . S
C143 H155 0.929 . S
C144 C143 1.363 . S
C144 N146 1.375 . S
C144 H162 0.931 . S
C145 N142 1.311 . S
C145 N146 1.347 . S
C145 H156 0.929 . S
N146 C144 1.375 . S
N146 C145 1.347 . S
C147 C150 1.365 . S
C147 N152 1.328 . S
C147 H153 0.929 . S
C148 C149 1.362 . S
C148 C151 1.378 . S
C148 H163 0.929 . S
C149 C148 1.362 . S
C149 C150 1.366 . S
C150 C147 1.365 . S
C150 C149 1.366 . S
C150 H164 0.930 . S
C151 C148 1.378 . S
C151 N152 1.315 . S
C151 H154 0.930 . S
N152 Co132 2.194 . S
N152 C147 1.328 . S
N152 C151 1.315 . S
H153 C147 0.929 . S
H154 C151 0.930 . S
H155 C143 0.929 . S
H156 C145 0.929 . S
O157 Co132 2.351 . S
O157 C160 1.244 . S
O158 Co132 2.155 . S
O158 C160 1.240 . S
O159 Co132 2.096 . S
O159 C140 1.247 . S
C160 O157 1.244 . S
C160 O158 1.240 . S
H161 C135 0.931 . S
H162 C144 0.931 . S
H163 C148 0.929 . S
H164 C150 0.930 . S
Co165 N169 2.148 . S
Co165 N175 2.128 . S
Co165 N185 2.194 . S
Co165 O190 2.351 1_545 S
Co165 O191 2.155 . S
Co165 O192 2.096 . S
C166 N169 1.301 . S
C166 N170 1.328 . S
C166 H171 0.930 . S
C167 C168 1.333 . S
C167 N169 1.317 . S
C167 H172 0.930 . S
C168 C167 1.333 . S
C168 N170 1.350 . S
C168 H194 0.931 . S
N169 Co165 2.148 . S
N169 C166 1.301 . S
N169 C167 1.317 . S
N170 C166 1.328 . S
N170 C168 1.350 . S
H171 C166 0.930 . S
H172 C167 0.930 . S
C173 O174 1.224 . S
C173 O192 1.247 . S
O174 C173 1.224 . S
N175 Co165 2.128 . S
N175 C176 1.355 1_545 S
N175 C178 1.311 . S
C176 N175 1.355 1_565 S
C176 C177 1.363 . S
C176 H188 0.929 . S
C177 C176 1.363 . S
C177 N179 1.375 1_565 S
C177 H195 0.931 . S
C178 N175 1.311 . S
C178 N179 1.347 . S
C178 H189 0.929 . S
N179 C177 1.375 1_545 S
N179 C178 1.347 . S
C180 C183 1.365 . S
C180 N185 1.328 1_565 S
C180 H186 0.929 . S
C181 C182 1.362 1_545 S
C181 C184 1.378 . S
C181 H196 0.929 . S
C182 C181 1.362 1_565 S
C182 C183 1.366 . S
C183 C180 1.365 . S
C183 C182 1.366 . S
C183 H197 0.930 . S
C184 C181 1.378 . S
C184 N185 1.315 . S
C184 H187 0.930 . S
N185 Co165 2.194 . S
N185 C180 1.328 1_545 S
N185 C184 1.315 . S
H186 C180 0.929 . S
H187 C184 0.930 . S
H188 C176 0.929 . S
H189 C178 0.929 . S
O190 Co165 2.351 1_565 S
O190 C193 1.244 . S
O191 Co165 2.155 . S
O191 C193 1.240 1_545 S
O192 Co165 2.096 . S
O192 C173 1.247 . S
C193 O190 1.244 . S
C193 O191 1.240 1_565 S
H194 C168 0.931 . S
H195 C177 0.931 . S
H196 C181 0.929 . S
H197 C183 0.930 . S
Co198 N202 2.148 . S
Co198 N208 2.128 . S
Co198 N218 2.194 . S
Co198 O223 2.351 . S
Co198 O224 2.155 . S
Co198 O225 2.096 . S
C199 N202 1.301 . S
C199 N203 1.328 . S
C199 H204 0.930 . S
C200 C201 1.333 . S
C200 N202 1.317 . S
C200 H205 0.930 . S
C201 C200 1.333 . S
C201 N203 1.350 . S
C201 H227 0.931 . S
N202 Co198 2.148 . S
N202 C199 1.301 . S
N202 C200 1.317 . S
N203 C199 1.328 . S
N203 C201 1.350 . S
H204 C199 0.930 . S
H205 C200 0.930 . S
C206 O207 1.224 . S
C206 O225 1.247 . S
O207 C206 1.224 . S
N208 Co198 2.128 . S
N208 C209 1.355 . S
N208 C211 1.311 . S
C209 N208 1.355 . S
C209 C210 1.363 . S
C209 H221 0.929 . S
C210 C209 1.363 . S
C210 N212 1.375 . S
C210 H228 0.931 . S
C211 N208 1.311 . S
C211 N212 1.347 . S
C211 H222 0.929 . S
N212 C210 1.375 . S
N212 C211 1.347 . S
C213 C216 1.365 . S
C213 N218 1.328 . S
C213 H219 0.929 . S
C214 C215 1.362 . S
C214 C217 1.378 . S
C214 H229 0.929 . S
C215 C214 1.362 . S
C215 C216 1.366 . S
C216 C213 1.365 . S
C216 C215 1.366 . S
C216 H230 0.930 . S
C217 C214 1.378 . S
C217 N218 1.315 . S
C217 H220 0.930 . S
N218 Co198 2.194 . S
N218 C213 1.328 . S
N218 C217 1.315 . S
H219 C213 0.929 . S
H220 C217 0.930 . S
H221 C209 0.929 . S
H222 C211 0.929 . S
O223 Co198 2.351 . S
O223 C226 1.244 . S
O224 Co198 2.155 . S
O224 C226 1.240 . S
O225 Co198 2.096 . S
O225 C206 1.247 . S
C226 O223 1.244 . S
C226 O224 1.240 . S
H227 C201 0.931 . S
H228 C210 0.931 . S
H229 C214 0.929 . S
H230 C216 0.930 . S
Co231 N235 2.148 . S
Co231 N241 2.128 . S
Co231 N251 2.194 . S
Co231 O256 2.351 1_565 S
Co231 O257 2.155 . S
Co231 O258 2.096 . S
C232 N235 1.301 . S
C232 N236 1.328 . S
C232 H237 0.930 . S
C233 C234 1.333 . S
C233 N235 1.317 . S
C233 H238 0.930 . S
C234 C233 1.333 . S
C234 N236 1.350 . S
C234 H260 0.931 . S
N235 Co231 2.148 . S
N235 C232 1.301 . S
N235 C233 1.317 . S
N236 C232 1.328 . S
N236 C234 1.350 . S
H237 C232 0.930 . S
H238 C233 0.930 . S
C239 O240 1.224 . S
C239 O258 1.247 . S
O240 C239 1.224 . S
N241 Co231 2.128 . S
N241 C242 1.355 1_565 S
N241 C244 1.311 . S
C242 N241 1.355 1_545 S
C242 C243 1.363 1_455 S
C242 H254 0.929 . S
C243 C242 1.363 1_655 S
C243 N245 1.375 1_545 S
C243 H261 0.931 . S
C244 N241 1.311 . S
C244 N245 1.347 1_455 S
C244 H255 0.929 . S
N245 C243 1.375 1_565 S
N245 C244 1.347 1_655 S
C246 C249 1.365 . S
C246 N251 1.328 1_545 S
C246 H252 0.929 . S
C247 C248 1.362 1_565 S
C247 C250 1.378 . S
C247 H262 0.929 . S
C248 C247 1.362 1_545 S
C248 C249 1.366 . S
C249 C246 1.365 . S
C249 C248 1.366 . S
C249 H263 0.930 . S
C250 C247 1.378 . S
C250 N251 1.315 . S
C250 H253 0.930 . S
N251 Co231 2.194 . S
N251 C246 1.328 1_565 S
N251 C250 1.315 . S
H252 C246 0.929 . S
H253 C250 0.930 . S
H254 C242 0.929 . S
H255 C244 0.929 . S
O256 Co231 2.351 1_545 S
O256 C259 1.244 . S
O257 Co231 2.155 . S
O257 C259 1.240 1_565 S
O258 Co231 2.096 . S
O258 C239 1.247 . S
C259 O256 1.244 . S
C259 O257 1.240 1_545 S
H260 C234 0.931 . S
H261 C243 0.931 . S
H262 C247 0.929 . S
H263 C249 0.930 . S
Co264 N268 2.148 . S
Co264 N274 2.128 . S
Co264 N284 2.194 . S
Co264 O289 2.351 . S
Co264 O290 2.155 . S
Co264 O291 2.096 . S
C265 N268 1.301 . S
C265 N269 1.328 . S
C265 H270 0.930 . S
C266 C267 1.333 . S
C266 N268 1.317 . S
C266 H271 0.930 . S
C267 C266 1.333 . S
C267 N269 1.350 . S
C267 H293 0.931 . S
N268 Co264 2.148 . S
N268 C265 1.301 . S
N268 C266 1.317 . S
N269 C265 1.328 . S
N269 C267 1.350 . S
H270 C265 0.930 . S
H271 C266 0.930 . S
C272 O273 1.224 . S
C272 O291 1.247 . S
O273 C272 1.224 . S
N274 Co264 2.128 . S
N274 C275 1.355 . S
N274 C277 1.311 . S
C275 N274 1.355 . S
C275 C276 1.363 . S
C275 H287 0.929 . S
C276 C275 1.363 . S
C276 N278 1.375 . S
C276 H294 0.931 . S
C277 N274 1.311 . S
C277 N278 1.347 . S
C277 H288 0.929 . S
N278 C276 1.375 . S
N278 C277 1.347 . S
C279 C282 1.365 . S
C279 N284 1.328 . S
C279 H285 0.929 . S
C280 C281 1.362 . S
C280 C283 1.378 . S
C280 H295 0.929 . S
C281 C280 1.362 . S
C281 C282 1.366 . S
C282 C279 1.365 . S
C282 C281 1.366 . S
C282 H296 0.930 . S
C283 C280 1.378 . S
C283 N284 1.315 . S
C283 H286 0.930 . S
N284 Co264 2.194 . S
N284 C279 1.328 . S
N284 C283 1.315 . S
H285 C279 0.929 . S
H286 C283 0.930 . S
H287 C275 0.929 . S
H288 C277 0.929 . S
O289 Co264 2.351 . S
O289 C292 1.244 . S
O290 Co264 2.155 . S
O290 C292 1.240 . S
O291 Co264 2.096 . S
O291 C272 1.247 . S
C292 O289 1.244 . S
C292 O290 1.240 . S
H293 C267 0.931 . S
H294 C276 0.931 . S
H295 C280 0.929 . S
H296 C282 0.930 . S
Co297 N301 2.148 . S
Co297 N307 2.128 . S
Co297 N317 2.194 . S
Co297 O322 2.351 1_565 S
Co297 O323 2.155 . S
Co297 O324 2.096 . S
C298 N301 1.301 . S
C298 N302 1.328 . S
C298 H303 0.930 . S
C299 C300 1.333 . S
C299 N301 1.317 . S
C299 H304 0.930 . S
C300 C299 1.333 . S
C300 N302 1.350 . S
C300 H326 0.931 . S
N301 Co297 2.148 . S
N301 C298 1.301 . S
N301 C299 1.317 . S
N302 C298 1.328 . S
N302 C300 1.350 . S
H303 C298 0.930 . S
H304 C299 0.930 . S
C305 O306 1.224 . S
C305 O324 1.247 . S
O306 C305 1.224 . S
N307 Co297 2.128 . S
N307 C308 1.355 1_565 S
N307 C310 1.311 . S
C308 N307 1.355 1_545 S
C308 C309 1.363 1_655 S
C308 H320 0.929 . S
C309 C308 1.363 1_455 S
C309 N311 1.375 1_545 S
C309 H327 0.931 . S
C310 N307 1.311 . S
C310 N311 1.347 1_655 S
C310 H321 0.929 . S
N311 C309 1.375 1_565 S
N311 C310 1.347 1_455 S
C312 C315 1.365 . S
C312 N317 1.328 1_545 S
C312 H318 0.929 . S
C313 C314 1.362 1_565 S
C313 C316 1.378 . S
C313 H328 0.929 . S
C314 C313 1.362 1_545 S
C314 C315 1.366 . S
C315 C312 1.365 . S
C315 C314 1.366 . S
C315 H329 0.930 . S
C316 C313 1.378 . S
C316 N317 1.315 . S
C316 H319 0.930 . S
N317 Co297 2.194 . S
N317 C312 1.328 1_565 S
N317 C316 1.315 . S
H318 C312 0.929 . S
H319 C316 0.930 . S
H320 C308 0.929 . S
H321 C310 0.929 . S
O322 Co297 2.351 1_545 S
O322 C325 1.244 . S
O323 Co297 2.155 . S
O323 C325 1.240 1_565 S
O324 Co297 2.096 . S
O324 C305 1.247 . S
C325 O322 1.244 . S
C325 O323 1.240 1_545 S
H326 C300 0.931 . S
H327 C309 0.931 . S
H328 C313 0.929 . S
H329 C315 0.930 . S
Co330 N334 2.148 . S
Co330 N340 2.128 . S
Co330 N350 2.194 . S
Co330 O355 2.351 . S
Co330 O356 2.155 . S
Co330 O357 2.096 . S
C331 N334 1.301 . S
C331 N335 1.328 . S
C331 H336 0.930 . S
C332 C333 1.333 . S
C332 N334 1.317 . S
C332 H337 0.930 . S
C333 C332 1.333 . S
C333 N335 1.350 . S
C333 H359 0.931 . S
N334 Co330 2.148 . S
N334 C331 1.301 . S
N334 C332 1.317 . S
N335 C331 1.328 . S
N335 C333 1.350 . S
H336 C331 0.930 . S
H337 C332 0.930 . S
C338 O339 1.224 . S
C338 O357 1.247 . S
O339 C338 1.224 . S
N340 Co330 2.128 . S
N340 C341 1.355 . S
N340 C343 1.311 . S
C341 N340 1.355 . S
C341 C342 1.363 . S
C341 H353 0.929 . S
C342 C341 1.363 . S
C342 N344 1.375 . S
C342 H360 0.931 . S
C343 N340 1.311 . S
C343 N344 1.347 . S
C343 H354 0.929 . S
N344 C342 1.375 . S
N344 C343 1.347 . S
C345 C348 1.365 . S
C345 N350 1.328 . S
C345 H351 0.929 . S
C346 C347 1.362 . S
C346 C349 1.378 . S
C346 H361 0.929 . S
C347 C346 1.362 . S
C347 C348 1.366 . S
C348 C345 1.365 . S
C348 C347 1.366 . S
C348 H362 0.930 . S
C349 C346 1.378 . S
C349 N350 1.315 . S
C349 H352 0.930 . S
N350 Co330 2.194 . S
N350 C345 1.328 . S
N350 C349 1.315 . S
H351 C345 0.929 . S
H352 C349 0.930 . S
H353 C341 0.929 . S
H354 C343 0.929 . S
O355 Co330 2.351 . S
O355 C358 1.244 . S
O356 Co330 2.155 . S
O356 C358 1.240 . S
O357 Co330 2.096 . S
O357 C338 1.247 . S
C358 O355 1.244 . S
C358 O356 1.240 . S
H359 C333 0.931 . S
H360 C342 0.931 . S
H361 C346 0.929 . S
H362 C348 0.930 . S
Co363 N367 2.148 . S
Co363 N373 2.128 . S
Co363 N383 2.194 . S
Co363 O388 2.351 1_545 S
Co363 O389 2.155 . S
Co363 O390 2.096 . S
C364 N367 1.301 . S
C364 N368 1.328 . S
C364 H369 0.930 . S
C365 C366 1.333 . S
C365 N367 1.317 . S
C365 H370 0.930 . S
C366 C365 1.333 . S
C366 N368 1.350 . S
C366 H392 0.931 . S
N367 Co363 2.148 . S
N367 C364 1.301 . S
N367 C365 1.317 . S
N368 C364 1.328 . S
N368 C366 1.350 . S
H369 C364 0.930 . S
H370 C365 0.930 . S
C371 O372 1.224 . S
C371 O390 1.247 . S
O372 C371 1.224 . S
N373 Co363 2.128 . S
N373 C374 1.355 1_545 S
N373 C376 1.311 . S
C374 N373 1.355 1_565 S
C374 C375 1.363 . S
C374 H386 0.929 . S
C375 C374 1.363 . S
C375 N377 1.375 1_565 S
C375 H393 0.931 . S
C376 N373 1.311 . S
C376 N377 1.347 . S
C376 H387 0.929 . S
N377 C375 1.375 1_545 S
N377 C376 1.347 . S
C378 C381 1.365 . S
C378 N383 1.328 1_565 S
C378 H384 0.929 . S
C379 C380 1.362 1_545 S
C379 C382 1.378 . S
C379 H394 0.929 . S
C380 C379 1.362 1_565 S
C380 C381 1.366 . S
C381 C378 1.365 . S
C381 C380 1.366 . S
C381 H395 0.930 . S
C382 C379 1.378 . S
C382 N383 1.315 . S
C382 H385 0.930 . S
N383 Co363 2.194 . S
N383 C378 1.328 1_545 S
N383 C382 1.315 . S
H384 C378 0.929 . S
H385 C382 0.930 . S
H386 C374 0.929 . S
H387 C376 0.929 . S
O388 Co363 2.351 1_565 S
O388 C391 1.244 . S
O389 Co363 2.155 . S
O389 C391 1.240 1_545 S
O390 Co363 2.096 . S
O390 C371 1.247 . S
C391 O388 1.244 . S
C391 O389 1.240 1_565 S
H392 C366 0.931 . S
H393 C375 0.931 . S
H394 C379 0.929 . S
H395 C381 0.930 . S
Co396 N400 2.148 . S
Co396 N406 2.128 . S
Co396 N416 2.194 . S
Co396 O421 2.351 . S
Co396 O422 2.155 . S
Co396 O423 2.096 . S
C397 N400 1.301 . S
C397 N401 1.328 . S
C397 H402 0.930 . S
C398 C399 1.333 . S
C398 N400 1.317 . S
C398 H403 0.930 . S
C399 C398 1.333 . S
C399 N401 1.350 . S
C399 H425 0.931 . S
N400 Co396 2.148 . S
N400 C397 1.301 . S
N400 C398 1.317 . S
N401 C397 1.328 . S
N401 C399 1.350 . S
H402 C397 0.930 . S
H403 C398 0.930 . S
C404 O405 1.224 . S
C404 O423 1.247 . S
O405 C404 1.224 . S
N406 Co396 2.128 . S
N406 C407 1.355 . S
N406 C409 1.311 . S
C407 N406 1.355 . S
C407 C408 1.363 . S
C407 H419 0.929 . S
C408 C407 1.363 . S
C408 N410 1.375 . S
C408 H426 0.931 . S
C409 N406 1.311 . S
C409 N410 1.347 . S
C409 H420 0.929 . S
N410 C408 1.375 . S
N410 C409 1.347 . S
C411 C414 1.365 . S
C411 N416 1.328 . S
C411 H417 0.929 . S
C412 C413 1.362 . S
C412 C415 1.378 . S
C412 H427 0.929 . S
C413 C412 1.362 . S
C413 C414 1.366 . S
C414 C411 1.365 . S
C414 C413 1.366 . S
C414 H428 0.930 . S
C415 C412 1.378 . S
C415 N416 1.315 . S
C415 H418 0.930 . S
N416 Co396 2.194 . S
N416 C411 1.328 . S
N416 C415 1.315 . S
H417 C411 0.929 . S
H418 C415 0.930 . S
H419 C407 0.929 . S
H420 C409 0.929 . S
O421 Co396 2.351 . S
O421 C424 1.244 . S
O422 Co396 2.155 . S
O422 C424 1.240 . S
O423 Co396 2.096 . S
O423 C404 1.247 . S
C424 O421 1.244 . S
C424 O422 1.240 . S
H425 C399 0.931 . S
H426 C408 0.931 . S
H427 C412 0.929 . S
H428 C414 0.930 . S
Co429 N433 2.148 . S
Co429 N439 2.128 . S
Co429 N449 2.194 . S
Co429 O454 2.351 1_565 S
Co429 O455 2.155 . S
Co429 O456 2.096 . S
C430 N433 1.301 . S
C430 N434 1.328 . S
C430 H435 0.930 . S
C431 C432 1.333 . S
C431 N433 1.317 . S
C431 H436 0.930 . S
C432 C431 1.333 . S
C432 N434 1.350 . S
C432 H458 0.931 . S
N433 Co429 2.148 . S
N433 C430 1.301 . S
N433 C431 1.317 . S
N434 C430 1.328 . S
N434 C432 1.350 . S
H435 C430 0.930 . S
H436 C431 0.930 . S
C437 O438 1.224 . S
C437 O456 1.247 . S
O438 C437 1.224 . S
N439 Co429 2.128 . S
N439 C440 1.355 1_565 S
N439 C442 1.311 . S
C440 N439 1.355 1_545 S
C440 C441 1.363 . S
C440 H452 0.929 . S
C441 C440 1.363 . S
C441 N443 1.375 1_545 S
C441 H459 0.931 . S
C442 N439 1.311 . S
C442 N443 1.347 . S
C442 H453 0.929 . S
N443 C441 1.375 1_565 S
N443 C442 1.347 . S
C444 C447 1.365 . S
C444 N449 1.328 1_545 S
C444 H450 0.929 . S
C445 C446 1.362 1_565 S
C445 C448 1.378 . S
C445 H460 0.929 . S
C446 C445 1.362 1_545 S
C446 C447 1.366 . S
C447 C444 1.365 . S
C447 C446 1.366 . S
C447 H461 0.930 . S
C448 C445 1.378 . S
C448 N449 1.315 . S
C448 H451 0.930 . S
N449 Co429 2.194 . S
N449 C444 1.328 1_565 S
N449 C448 1.315 . S
H450 C444 0.929 . S
H451 C448 0.930 . S
H452 C440 0.929 . S
H453 C442 0.929 . S
O454 Co429 2.351 1_545 S
O454 C457 1.244 . S
O455 Co429 2.155 . S
O455 C457 1.240 1_565 S
O456 Co429 2.096 . S
O456 C437 1.247 . S
C457 O454 1.244 . S
C457 O455 1.240 1_545 S
H458 C432 0.931 . S
H459 C441 0.931 . S
H460 C445 0.929 . S
H461 C447 0.930 . S
Co462 N466 2.148 . S
Co462 N472 2.128 . S
Co462 N482 2.194 . S
Co462 O487 2.351 . S
Co462 O488 2.155 . S
Co462 O489 2.096 . S
C463 N466 1.301 . S
C463 N467 1.328 . S
C463 H468 0.930 . S
C464 C465 1.333 . S
C464 N466 1.317 . S
C464 H469 0.930 . S
C465 C464 1.333 . S
C465 N467 1.350 . S
C465 H491 0.931 . S
N466 Co462 2.148 . S
N466 C463 1.301 . S
N466 C464 1.317 . S
N467 C463 1.328 . S
N467 C465 1.350 . S
H468 C463 0.930 . S
H469 C464 0.930 . S
C470 O471 1.224 . S
C470 O489 1.247 . S
O471 C470 1.224 . S
N472 Co462 2.128 . S
N472 C473 1.355 . S
N472 C475 1.311 . S
C473 N472 1.355 . S
C473 C474 1.363 . S
C473 H485 0.929 . S
C474 C473 1.363 . S
C474 N476 1.375 . S
C474 H492 0.931 . S
C475 N472 1.311 . S
C475 N476 1.347 . S
C475 H486 0.929 . S
N476 C474 1.375 . S
N476 C475 1.347 . S
C477 C480 1.365 . S
C477 N482 1.328 . S
C477 H483 0.929 . S
C478 C479 1.362 . S
C478 C481 1.378 . S
C478 H493 0.929 . S
C479 C478 1.362 . S
C479 C480 1.366 . S
C480 C477 1.365 . S
C480 C479 1.366 . S
C480 H494 0.930 . S
C481 C478 1.378 . S
C481 N482 1.315 . S
C481 H484 0.930 . S
N482 Co462 2.194 . S
N482 C477 1.328 . S
N482 C481 1.315 . S
H483 C477 0.929 . S
H484 C481 0.930 . S
H485 C473 0.929 . S
H486 C475 0.929 . S
O487 Co462 2.351 . S
O487 C490 1.244 . S
O488 Co462 2.155 . S
O488 C490 1.240 . S
O489 Co462 2.096 . S
O489 C470 1.247 . S
C490 O487 1.244 . S
C490 O488 1.240 . S
H491 C465 0.931 . S
H492 C474 0.931 . S
H493 C478 0.929 . S
H494 C480 0.930 . S
Co495 N499 2.148 . S
Co495 N505 2.128 . S
Co495 N515 2.194 . S
Co495 O520 2.351 1_545 S
Co495 O521 2.155 . S
Co495 O522 2.096 . S
C496 N499 1.301 . S
C496 N500 1.328 . S
C496 H501 0.930 . S
C497 C498 1.333 . S
C497 N499 1.317 . S
C497 H502 0.930 . S
C498 C497 1.333 . S
C498 N500 1.350 . S
C498 H524 0.931 . S
N499 Co495 2.148 . S
N499 C496 1.301 . S
N499 C497 1.317 . S
N500 C496 1.328 . S
N500 C498 1.350 . S
H501 C496 0.930 . S
H502 C497 0.930 . S
C503 O504 1.224 . S
C503 O522 1.247 . S
O504 C503 1.224 . S
N505 Co495 2.128 . S
N505 C506 1.355 1_545 S
N505 C508 1.311 . S
C506 N505 1.355 1_565 S
C506 C507 1.363 1_655 S
C506 H518 0.929 . S
C507 C506 1.363 1_455 S
C507 N509 1.375 1_565 S
C507 H525 0.931 . S
C508 N505 1.311 . S
C508 N509 1.347 1_655 S
C508 H519 0.929 . S
N509 C507 1.375 1_545 S
N509 C508 1.347 1_455 S
C510 C513 1.365 . S
C510 N515 1.328 1_565 S
C510 H516 0.929 . S
C511 C512 1.362 1_545 S
C511 C514 1.378 . S
C511 H526 0.929 . S
C512 C511 1.362 1_565 S
C512 C513 1.366 . S
C513 C510 1.365 . S
C513 C512 1.366 . S
C513 H527 0.930 . S
C514 C511 1.378 . S
C514 N515 1.315 . S
C514 H517 0.930 . S
N515 Co495 2.194 . S
N515 C510 1.328 1_545 S
N515 C514 1.315 . S
H516 C510 0.929 . S
H517 C514 0.930 . S
H518 C506 0.929 . S
H519 C508 0.929 . S
O520 Co495 2.351 1_565 S
O520 C523 1.244 . S
O521 Co495 2.155 . S
O521 C523 1.240 1_545 S
O522 Co495 2.096 . S
O522 C503 1.247 . S
C523 O520 1.244 . S
C523 O521 1.240 1_565 S
H524 C498 0.931 . S
H525 C507 0.931 . S
H526 C511 0.929 . S
H527 C513 0.930 . S
Co528 N532 2.148 . S
Co528 N538 2.128 . S
Co528 N548 2.194 . S
Co528 O553 2.351 . S
Co528 O554 2.155 . S
Co528 O555 2.096 . S
C529 N532 1.301 . S
C529 N533 1.328 . S
C529 H534 0.930 . S
C530 C531 1.333 . S
C530 N532 1.317 . S
C530 H535 0.930 . S
C531 C530 1.333 . S
C531 N533 1.350 . S
C531 H557 0.931 . S
N532 Co528 2.148 . S
N532 C529 1.301 . S
N532 C530 1.317 . S
N533 C529 1.328 . S
N533 C531 1.350 . S
H534 C529 0.930 . S
H535 C530 0.930 . S
C536 O537 1.224 . S
C536 O555 1.247 . S
O537 C536 1.224 . S
N538 Co528 2.128 . S
N538 C539 1.355 . S
N538 C541 1.311 . S
C539 N538 1.355 . S
C539 C540 1.363 . S
C539 H551 0.929 . S
C540 C539 1.363 . S
C540 N542 1.375 . S
C540 H558 0.931 . S
C541 N538 1.311 . S
C541 N542 1.347 . S
C541 H552 0.929 . S
N542 C540 1.375 . S
N542 C541 1.347 . S
C543 C546 1.365 . S
C543 N548 1.328 . S
C543 H549 0.929 . S
C544 C545 1.362 . S
C544 C547 1.378 . S
C544 H559 0.929 . S
C545 C544 1.362 . S
C545 C546 1.366 . S
C546 C543 1.365 . S
C546 C545 1.366 . S
C546 H560 0.930 . S
C547 C544 1.378 . S
C547 N548 1.315 . S
C547 H550 0.930 . S
N548 Co528 2.194 . S
N548 C543 1.328 . S
N548 C547 1.315 . S
H549 C543 0.929 . S
H550 C547 0.930 . S
H551 C539 0.929 . S
H552 C541 0.929 . S
O553 Co528 2.351 . S
O553 C556 1.244 . S
O554 Co528 2.155 . S
O554 C556 1.240 . S
O555 Co528 2.096 . S
O555 C536 1.247 . S
C556 O553 1.244 . S
C556 O554 1.240 . S
H557 C531 0.931 . S
H558 C540 0.931 . S
H559 C544 0.929 . S
H560 C546 0.930 . S
Co561 N565 2.148 . S
Co561 N571 2.128 . S
Co561 N581 2.194 . S
Co561 O586 2.351 . S
Co561 O587 2.155 . S
Co561 O588 2.096 . S
C562 N565 1.301 . S
C562 N566 1.328 . S
C562 H567 0.930 . S
C563 C564 1.333 . S
C563 N565 1.317 . S
C563 H568 0.930 . S
C564 C563 1.333 . S
C564 N566 1.350 . S
C564 H590 0.931 . S
N565 Co561 2.148 . S
N565 C562 1.301 . S
N565 C563 1.317 . S
N566 C562 1.328 . S
N566 C564 1.350 . S
H567 C562 0.930 . S
H568 C563 0.930 . S
C569 O570 1.224 . S
C569 O588 1.247 . S
O570 C569 1.224 . S
N571 Co561 2.128 . S
N571 C572 1.355 . S
N571 C574 1.311 . S
C572 N571 1.355 . S
C572 C573 1.363 . S
C572 H584 0.929 . S
C573 C572 1.363 . S
C573 N575 1.375 . S
C573 H591 0.931 . S
C574 N571 1.311 . S
C574 N575 1.347 . S
C574 H585 0.929 . S
N575 C573 1.375 . S
N575 C574 1.347 . S
C576 C579 1.365 . S
C576 N581 1.328 . S
C576 H582 0.929 . S
C577 C578 1.362 . S
C577 C580 1.378 . S
C577 H592 0.929 . S
C578 C577 1.362 . S
C578 C579 1.366 . S
C579 C576 1.365 . S
C579 C578 1.366 . S
C579 H593 0.930 . S
C580 C577 1.378 . S
C580 N581 1.315 . S
C580 H583 0.930 . S
N581 Co561 2.194 . S
N581 C576 1.328 . S
N581 C580 1.315 . S
H582 C576 0.929 . S
H583 C580 0.930 . S
H584 C572 0.929 . S
H585 C574 0.929 . S
O586 Co561 2.351 . S
O586 C589 1.244 . S
O587 Co561 2.155 . S
O587 C589 1.240 . S
O588 Co561 2.096 . S
O588 C569 1.247 . S
C589 O586 1.244 . S
C589 O587 1.240 . S
H590 C564 0.931 . S
H591 C573 0.931 . S
H592 C577 0.929 . S
H593 C579 0.930 . S
Co594 N598 2.148 . S
Co594 N604 2.128 . S
Co594 N614 2.194 . S
Co594 O619 2.351 . S
Co594 O620 2.155 . S
Co594 O621 2.096 . S
C595 N598 1.301 . S
C595 N599 1.328 . S
C595 H600 0.930 . S
C596 C597 1.333 . S
C596 N598 1.317 . S
C596 H601 0.930 . S
C597 C596 1.333 . S
C597 N599 1.350 . S
C597 H623 0.931 . S
N598 Co594 2.148 . S
N598 C595 1.301 . S
N598 C596 1.317 . S
N599 C595 1.328 . S
N599 C597 1.350 . S
H600 C595 0.930 . S
H601 C596 0.930 . S
C602 O603 1.224 . S
C602 O621 1.247 . S
O603 C602 1.224 . S
N604 Co594 2.128 . S
N604 C605 1.355 . S
N604 C607 1.311 . S
C605 N604 1.355 . S
C605 C606 1.363 . S
C605 H617 0.929 . S
C606 C605 1.363 . S
C606 N608 1.375 . S
C606 H624 0.931 . S
C607 N604 1.311 . S
C607 N608 1.347 . S
C607 H618 0.929 . S
N608 C606 1.375 . S
N608 C607 1.347 . S
C609 C612 1.365 . S
C609 N614 1.328 . S
C609 H615 0.929 . S
C610 C611 1.362 . S
C610 C613 1.378 . S
C610 H625 0.929 . S
C611 C610 1.362 . S
C611 C612 1.366 . S
C612 C609 1.365 . S
C612 C611 1.366 . S
C612 H626 0.930 . S
C613 C610 1.378 . S
C613 N614 1.315 . S
C613 H616 0.930 . S
N614 Co594 2.194 . S
N614 C609 1.328 . S
N614 C613 1.315 . S
H615 C609 0.929 . S
H616 C613 0.930 . S
H617 C605 0.929 . S
H618 C607 0.929 . S
O619 Co594 2.351 . S
O619 C622 1.244 . S
O620 Co594 2.155 . S
O620 C622 1.240 . S
O621 Co594 2.096 . S
O621 C602 1.247 . S
C622 O619 1.244 . S
C622 O620 1.240 . S
H623 C597 0.931 . S
H624 C606 0.931 . S
H625 C610 0.929 . S
H626 C612 0.930 . S
Co627 N631 2.148 . S
Co627 N637 2.128 . S
Co627 N647 2.194 . S
Co627 O652 2.351 . S
Co627 O653 2.155 . S
Co627 O654 2.096 . S
C628 N631 1.301 . S
C628 N632 1.328 . S
C628 H633 0.930 . S
C629 C630 1.333 . S
C629 N631 1.317 . S
C629 H634 0.930 . S
C630 C629 1.333 . S
C630 N632 1.350 . S
C630 H656 0.931 . S
N631 Co627 2.148 . S
N631 C628 1.301 . S
N631 C629 1.317 . S
N632 C628 1.328 . S
N632 C630 1.350 . S
H633 C628 0.930 . S
H634 C629 0.930 . S
C635 O636 1.224 . S
C635 O654 1.247 . S
O636 C635 1.224 . S
N637 Co627 2.128 . S
N637 C638 1.355 . S
N637 C640 1.311 . S
C638 N637 1.355 . S
C638 C639 1.363 1_655 S
C638 H650 0.929 . S
C639 C638 1.363 1_455 S
C639 N641 1.375 . S
C639 H657 0.931 . S
C640 N637 1.311 . S
C640 N641 1.347 1_655 S
C640 H651 0.929 . S
N641 C639 1.375 . S
N641 C640 1.347 1_455 S
C642 C645 1.365 . S
C642 N647 1.328 . S
C642 H648 0.929 . S
C643 C644 1.362 . S
C643 C646 1.378 . S
C643 H658 0.929 . S
C644 C643 1.362 . S
C644 C645 1.366 . S
C645 C642 1.365 . S
C645 C644 1.366 . S
C645 H659 0.930 . S
C646 C643 1.378 . S
C646 N647 1.315 . S
C646 H649 0.930 . S
N647 Co627 2.194 . S
N647 C642 1.328 . S
N647 C646 1.315 . S
H648 C642 0.929 . S
H649 C646 0.930 . S
H650 C638 0.929 . S
H651 C640 0.929 . S
O652 Co627 2.351 . S
O652 C655 1.244 . S
O653 Co627 2.155 . S
O653 C655 1.240 . S
O654 Co627 2.096 . S
O654 C635 1.247 . S
C655 O652 1.244 . S
C655 O653 1.240 . S
H656 C630 0.931 . S
H657 C639 0.931 . S
H658 C643 0.929 . S
H659 C645 0.930 . S
Co660 N664 2.148 . S
Co660 N670 2.128 . S
Co660 N680 2.194 . S
Co660 O685 2.351 . S
Co660 O686 2.155 . S
Co660 O687 2.096 . S
C661 N664 1.301 . S
C661 N665 1.328 . S
C661 H666 0.930 . S
C662 C663 1.333 . S
C662 N664 1.317 . S
C662 H667 0.930 . S
C663 C662 1.333 . S
C663 N665 1.350 . S
C663 H689 0.931 . S
N664 Co660 2.148 . S
N664 C661 1.301 . S
N664 C662 1.317 . S
N665 C661 1.328 . S
N665 C663 1.350 . S
H666 C661 0.930 . S
H667 C662 0.930 . S
C668 O669 1.224 . S
C668 O687 1.247 . S
O669 C668 1.224 . S
N670 Co660 2.128 . S
N670 C671 1.355 . S
N670 C673 1.311 . S
C671 N670 1.355 . S
C671 C672 1.363 . S
C671 H683 0.929 . S
C672 C671 1.363 . S
C672 N674 1.375 . S
C672 H690 0.931 . S
C673 N670 1.311 . S
C673 N674 1.347 . S
C673 H684 0.929 . S
N674 C672 1.375 . S
N674 C673 1.347 . S
C675 C678 1.365 . S
C675 N680 1.328 . S
C675 H681 0.929 . S
C676 C677 1.362 . S
C676 C679 1.378 . S
C676 H691 0.929 . S
C677 C676 1.362 . S
C677 C678 1.366 . S
C678 C675 1.365 . S
C678 C677 1.366 . S
C678 H692 0.930 . S
C679 C676 1.378 . S
C679 N680 1.315 . S
C679 H682 0.930 . S
N680 Co660 2.194 . S
N680 C675 1.328 . S
N680 C679 1.315 . S
H681 C675 0.929 . S
H682 C679 0.930 . S
H683 C671 0.929 . S
H684 C673 0.929 . S
O685 Co660 2.351 . S
O685 C688 1.244 . S
O686 Co660 2.155 . S
O686 C688 1.240 . S
O687 Co660 2.096 . S
O687 C668 1.247 . S
C688 O685 1.244 . S
C688 O686 1.240 . S
H689 C663 0.931 . S
H690 C672 0.931 . S
H691 C676 0.929 . S
H692 C678 0.930 . S
Co693 N697 2.148 . S
Co693 N703 2.128 . S
Co693 N713 2.194 . S
Co693 O718 2.351 . S
Co693 O719 2.155 . S
Co693 O720 2.096 . S
C694 N697 1.301 . S
C694 N698 1.328 . S
C694 H699 0.930 . S
C695 C696 1.333 . S
C695 N697 1.317 . S
C695 H700 0.930 . S
C696 C695 1.333 . S
C696 N698 1.350 . S
C696 H722 0.931 . S
N697 Co693 2.148 . S
N697 C694 1.301 . S
N697 C695 1.317 . S
N698 C694 1.328 . S
N698 C696 1.350 . S
H699 C694 0.930 . S
H700 C695 0.930 . S
C701 O702 1.224 . S
C701 O720 1.247 . S
O702 C701 1.224 . S
N703 Co693 2.128 . S
N703 C704 1.355 . S
N703 C706 1.311 . S
C704 N703 1.355 . S
C704 C705 1.363 1_655 S
C704 H716 0.929 . S
C705 C704 1.363 1_455 S
C705 N707 1.375 . S
C705 H723 0.931 . S
C706 N703 1.311 . S
C706 N707 1.347 1_655 S
C706 H717 0.929 . S
N707 C705 1.375 . S
N707 C706 1.347 1_455 S
C708 C711 1.365 . S
C708 N713 1.328 . S
C708 H714 0.929 . S
C709 C710 1.362 . S
C709 C712 1.378 . S
C709 H724 0.929 . S
C710 C709 1.362 . S
C710 C711 1.366 . S
C711 C708 1.365 . S
C711 C710 1.366 . S
C711 H725 0.930 . S
C712 C709 1.378 . S
C712 N713 1.315 . S
C712 H715 0.930 . S
N713 Co693 2.194 . S
N713 C708 1.328 . S
N713 C712 1.315 . S
H714 C708 0.929 . S
H715 C712 0.930 . S
H716 C704 0.929 . S
H717 C706 0.929 . S
O718 Co693 2.351 . S
O718 C721 1.244 . S
O719 Co693 2.155 . S
O719 C721 1.240 . S
O720 Co693 2.096 . S
O720 C701 1.247 . S
C721 O718 1.244 . S
C721 O719 1.240 . S
H722 C696 0.931 . S
H723 C705 0.931 . S
H724 C709 0.929 . S
H725 C711 0.930 . S
Co726 N730 2.148 . S
Co726 N736 2.128 . S
Co726 N746 2.194 . S
Co726 O751 2.351 . S
Co726 O752 2.155 . S
Co726 O753 2.096 . S
C727 N730 1.301 . S
C727 N731 1.328 . S
C727 H732 0.930 . S
C728 C729 1.333 . S
C728 N730 1.317 . S
C728 H733 0.930 . S
C729 C728 1.333 . S
C729 N731 1.350 . S
C729 H755 0.931 . S
N730 Co726 2.148 . S
N730 C727 1.301 . S
N730 C728 1.317 . S
N731 C727 1.328 . S
N731 C729 1.350 . S
H732 C727 0.930 . S
H733 C728 0.930 . S
C734 O735 1.224 . S
C734 O753 1.247 . S
O735 C734 1.224 . S
N736 Co726 2.128 . S
N736 C737 1.355 . S
N736 C739 1.311 . S
C737 N736 1.355 . S
C737 C738 1.363 . S
C737 H749 0.929 . S
C738 C737 1.363 . S
C738 N740 1.375 . S
C738 H756 0.931 . S
C739 N736 1.311 . S
C739 N740 1.347 . S
C739 H750 0.929 . S
N740 C738 1.375 . S
N740 C739 1.347 . S
C741 C744 1.365 . S
C741 N746 1.328 . S
C741 H747 0.929 . S
C742 C743 1.362 . S
C742 C745 1.378 . S
C742 H757 0.929 . S
C743 C742 1.362 . S
C743 C744 1.366 . S
C744 C741 1.365 . S
C744 C743 1.366 . S
C744 H758 0.930 . S
C745 C742 1.378 . S
C745 N746 1.315 . S
C745 H748 0.930 . S
N746 Co726 2.194 . S
N746 C741 1.328 . S
N746 C745 1.315 . S
H747 C741 0.929 . S
H748 C745 0.930 . S
H749 C737 0.929 . S
H750 C739 0.929 . S
O751 Co726 2.351 . S
O751 C754 1.244 . S
O752 Co726 2.155 . S
O752 C754 1.240 . S
O753 Co726 2.096 . S
O753 C734 1.247 . S
C754 O751 1.244 . S
C754 O752 1.240 . S
H755 C729 0.931 . S
H756 C738 0.931 . S
H757 C742 0.929 . S
H758 C744 0.930 . S
Co759 N763 2.148 . S
Co759 N769 2.128 . S
Co759 N779 2.194 . S
Co759 O784 2.351 . S
Co759 O785 2.155 . S
Co759 O786 2.096 . S
C760 N763 1.301 . S
C760 N764 1.328 . S
C760 H765 0.930 . S
C761 C762 1.333 . S
C761 N763 1.317 . S
C761 H766 0.930 . S
C762 C761 1.333 . S
C762 N764 1.350 . S
C762 H788 0.931 . S
N763 Co759 2.148 . S
N763 C760 1.301 . S
N763 C761 1.317 . S
N764 C760 1.328 . S
N764 C762 1.350 . S
H765 C760 0.930 . S
H766 C761 0.930 . S
C767 O768 1.224 . S
C767 O786 1.247 . S
O768 C767 1.224 . S
N769 Co759 2.128 . S
N769 C770 1.355 . S
N769 C772 1.311 . S
C770 N769 1.355 . S
C770 C771 1.363 . S
C770 H782 0.929 . S
C771 C770 1.363 . S
C771 N773 1.375 . S
C771 H789 0.931 . S
C772 N769 1.311 . S
C772 N773 1.347 . S
C772 H783 0.929 . S
N773 C771 1.375 . S
N773 C772 1.347 . S
C774 C777 1.365 . S
C774 N779 1.328 . S
C774 H780 0.929 . S
C775 C776 1.362 . S
C775 C778 1.378 . S
C775 H790 0.929 . S
C776 C775 1.362 . S
C776 C777 1.366 . S
C777 C774 1.365 . S
C777 C776 1.366 . S
C777 H791 0.930 . S
C778 C775 1.378 . S
C778 N779 1.315 . S
C778 H781 0.930 . S
N779 Co759 2.194 . S
N779 C774 1.328 . S
N779 C778 1.315 . S
H780 C774 0.929 . S
H781 C778 0.930 . S
H782 C770 0.929 . S
H783 C772 0.929 . S
O784 Co759 2.351 . S
O784 C787 1.244 . S
O785 Co759 2.155 . S
O785 C787 1.240 . S
O786 Co759 2.096 . S
O786 C767 1.247 . S
C787 O784 1.244 . S
C787 O785 1.240 . S
H788 C762 0.931 . S
H789 C771 0.931 . S
H790 C775 0.929 . S
H791 C777 0.930 . S
Co792 N796 2.148 . S
Co792 N802 2.128 . S
Co792 N812 2.194 . S
Co792 O817 2.351 . S
Co792 O818 2.155 . S
Co792 O819 2.096 . S
C793 N796 1.301 . S
C793 N797 1.328 . S
C793 H798 0.930 . S
C794 C795 1.333 . S
C794 N796 1.317 . S
C794 H799 0.930 . S
C795 C794 1.333 . S
C795 N797 1.350 . S
C795 H821 0.931 . S
N796 Co792 2.148 . S
N796 C793 1.301 . S
N796 C794 1.317 . S
N797 C793 1.328 . S
N797 C795 1.350 . S
H798 C793 0.930 . S
H799 C794 0.930 . S
C800 O801 1.224 . S
C800 O819 1.247 . S
O801 C800 1.224 . S
N802 Co792 2.128 . S
N802 C803 1.355 . S
N802 C805 1.311 . S
C803 N802 1.355 . S
C803 C804 1.363 . S
C803 H815 0.929 . S
C804 C803 1.363 . S
C804 N806 1.375 . S
C804 H822 0.931 . S
C805 N802 1.311 . S
C805 N806 1.347 . S
C805 H816 0.929 . S
N806 C804 1.375 . S
N806 C805 1.347 . S
C807 C810 1.365 . S
C807 N812 1.328 . S
C807 H813 0.929 . S
C808 C809 1.362 . S
C808 C811 1.378 . S
C808 H823 0.929 . S
C809 C808 1.362 . S
C809 C810 1.366 . S
C810 C807 1.365 . S
C810 C809 1.366 . S
C810 H824 0.930 . S
C811 C808 1.378 . S
C811 N812 1.315 . S
C811 H814 0.930 . S
N812 Co792 2.194 . S
N812 C807 1.328 . S
N812 C811 1.315 . S
H813 C807 0.929 . S
H814 C811 0.930 . S
H815 C803 0.929 . S
H816 C805 0.929 . S
O817 Co792 2.351 . S
O817 C820 1.244 . S
O818 Co792 2.155 . S
O818 C820 1.240 . S
O819 Co792 2.096 . S
O819 C800 1.247 . S
C820 O817 1.244 . S
C820 O818 1.240 . S
H821 C795 0.931 . S
H822 C804 0.931 . S
H823 C808 0.929 . S
H824 C810 0.930 . S
Co825 N829 2.148 . S
Co825 N835 2.128 . S
Co825 N845 2.194 . S
Co825 O850 2.351 . S
Co825 O851 2.155 . S
Co825 O852 2.096 . S
C826 N829 1.301 . S
C826 N830 1.328 . S
C826 H831 0.930 . S
C827 C828 1.333 . S
C827 N829 1.317 . S
C827 H832 0.930 . S
C828 C827 1.333 . S
C828 N830 1.350 . S
C828 H854 0.931 . S
N829 Co825 2.148 . S
N829 C826 1.301 . S
N829 C827 1.317 . S
N830 C826 1.328 . S
N830 C828 1.350 . S
H831 C826 0.930 . S
H832 C827 0.930 . S
C833 O834 1.224 . S
C833 O852 1.247 . S
O834 C833 1.224 . S
N835 Co825 2.128 . S
N835 C836 1.355 . S
N835 C838 1.311 . S
C836 N835 1.355 . S
C836 C837 1.363 . S
C836 H848 0.929 . S
C837 C836 1.363 . S
C837 N839 1.375 . S
C837 H855 0.931 . S
C838 N835 1.311 . S
C838 N839 1.347 . S
C838 H849 0.929 . S
N839 C837 1.375 . S
N839 C838 1.347 . S
C840 C843 1.365 . S
C840 N845 1.328 . S
C840 H846 0.929 . S
C841 C842 1.362 . S
C841 C844 1.378 . S
C841 H856 0.929 . S
C842 C841 1.362 . S
C842 C843 1.366 . S
C843 C840 1.365 . S
C843 C842 1.366 . S
C843 H857 0.930 . S
C844 C841 1.378 . S
C844 N845 1.315 . S
C844 H847 0.930 . S
N845 Co825 2.194 . S
N845 C840 1.328 . S
N845 C844 1.315 . S
H846 C840 0.929 . S
H847 C844 0.930 . S
H848 C836 0.929 . S
H849 C838 0.929 . S
O850 Co825 2.351 . S
O850 C853 1.244 . S
O851 Co825 2.155 . S
O851 C853 1.240 . S
O852 Co825 2.096 . S
O852 C833 1.247 . S
C853 O850 1.244 . S
C853 O851 1.240 . S
H854 C828 0.931 . S
H855 C837 0.931 . S
H856 C841 0.929 . S
H857 C843 0.930 . S
Co858 N862 2.148 . S
Co858 N868 2.128 . S
Co858 N878 2.194 . S
Co858 O883 2.351 . S
Co858 O884 2.155 . S
Co858 O885 2.096 . S
C859 N862 1.301 . S
C859 N863 1.328 . S
C859 H864 0.930 . S
C860 C861 1.333 . S
C860 N862 1.317 . S
C860 H865 0.930 . S
C861 C860 1.333 . S
C861 N863 1.350 . S
C861 H887 0.931 . S
N862 Co858 2.148 . S
N862 C859 1.301 . S
N862 C860 1.317 . S
N863 C859 1.328 . S
N863 C861 1.350 . S
H864 C859 0.930 . S
H865 C860 0.930 . S
C866 O867 1.224 . S
C866 O885 1.247 . S
O867 C866 1.224 . S
N868 Co858 2.128 . S
N868 C869 1.355 . S
N868 C871 1.311 . S
C869 N868 1.355 . S
C869 C870 1.363 . S
C869 H881 0.929 . S
C870 C869 1.363 . S
C870 N872 1.375 . S
C870 H888 0.931 . S
C871 N868 1.311 . S
C871 N872 1.347 . S
C871 H882 0.929 . S
N872 C870 1.375 . S
N872 C871 1.347 . S
C873 C876 1.365 . S
C873 N878 1.328 . S
C873 H879 0.929 . S
C874 C875 1.362 . S
C874 C877 1.378 . S
C874 H889 0.929 . S
C875 C874 1.362 . S
C875 C876 1.366 . S
C876 C873 1.365 . S
C876 C875 1.366 . S
C876 H890 0.930 . S
C877 C874 1.378 . S
C877 N878 1.315 . S
C877 H880 0.930 . S
N878 Co858 2.194 . S
N878 C873 1.328 . S
N878 C877 1.315 . S
H879 C873 0.929 . S
H880 C877 0.930 . S
H881 C869 0.929 . S
H882 C871 0.929 . S
O883 Co858 2.351 . S
O883 C886 1.244 . S
O884 Co858 2.155 . S
O884 C886 1.240 . S
O885 Co858 2.096 . S
O885 C866 1.247 . S
C886 O883 1.244 . S
C886 O884 1.240 . S
H887 C861 0.931 . S
H888 C870 0.931 . S
H889 C874 0.929 . S
H890 C876 0.930 . S
Co891 N895 2.148 . S
Co891 N901 2.128 . S
Co891 N911 2.194 . S
Co891 O916 2.351 . S
Co891 O917 2.155 . S
Co891 O918 2.096 . S
C892 N895 1.301 . S
C892 N896 1.328 . S
C892 H897 0.930 . S
C893 C894 1.333 . S
C893 N895 1.317 . S
C893 H898 0.930 . S
C894 C893 1.333 . S
C894 N896 1.350 . S
C894 H920 0.931 . S
N895 Co891 2.148 . S
N895 C892 1.301 . S
N895 C893 1.317 . S
N896 C892 1.328 . S
N896 C894 1.350 . S
H897 C892 0.930 . S
H898 C893 0.930 . S
C899 O900 1.224 . S
C899 O918 1.247 . S
O900 C899 1.224 . S
N901 Co891 2.128 . S
N901 C902 1.355 . S
N901 C904 1.311 . S
C902 N901 1.355 . S
C902 C903 1.363 1_455 S
C902 H914 0.929 . S
C903 C902 1.363 1_655 S
C903 N905 1.375 . S
C903 H921 0.931 . S
C904 N901 1.311 . S
C904 N905 1.347 1_455 S
C904 H915 0.929 . S
N905 C903 1.375 . S
N905 C904 1.347 1_655 S
C906 C909 1.365 . S
C906 N911 1.328 . S
C906 H912 0.929 . S
C907 C908 1.362 . S
C907 C910 1.378 . S
C907 H922 0.929 . S
C908 C907 1.362 . S
C908 C909 1.366 . S
C909 C906 1.365 . S
C909 C908 1.366 . S
C909 H923 0.930 . S
C910 C907 1.378 . S
C910 N911 1.315 . S
C910 H913 0.930 . S
N911 Co891 2.194 . S
N911 C906 1.328 . S
N911 C910 1.315 . S
H912 C906 0.929 . S
H913 C910 0.930 . S
H914 C902 0.929 . S
H915 C904 0.929 . S
O916 Co891 2.351 . S
O916 C919 1.244 . S
O917 Co891 2.155 . S
O917 C919 1.240 . S
O918 Co891 2.096 . S
O918 C899 1.247 . S
C919 O916 1.244 . S
C919 O917 1.240 . S
H920 C894 0.931 . S
H921 C903 0.931 . S
H922 C907 0.929 . S
H923 C909 0.930 . S
Co924 N928 2.148 . S
Co924 N934 2.128 . S
Co924 N944 2.194 . S
Co924 O949 2.351 . S
Co924 O950 2.155 . S
Co924 O951 2.096 . S
C925 N928 1.301 . S
C925 N929 1.328 . S
C925 H930 0.930 . S
C926 C927 1.333 . S
C926 N928 1.317 . S
C926 H931 0.930 . S
C927 C926 1.333 . S
C927 N929 1.350 . S
C927 H953 0.931 . S
N928 Co924 2.148 . S
N928 C925 1.301 . S
N928 C926 1.317 . S
N929 C925 1.328 . S
N929 C927 1.350 . S
H930 C925 0.930 . S
H931 C926 0.930 . S
C932 O933 1.224 . S
C932 O951 1.247 . S
O933 C932 1.224 . S
N934 Co924 2.128 . S
N934 C935 1.355 . S
N934 C937 1.311 . S
C935 N934 1.355 . S
C935 C936 1.363 . S
C935 H947 0.929 . S
C936 C935 1.363 . S
C936 N938 1.375 . S
C936 H954 0.931 . S
C937 N934 1.311 . S
C937 N938 1.347 . S
C937 H948 0.929 . S
N938 C936 1.375 . S
N938 C937 1.347 . S
C939 C942 1.365 . S
C939 N944 1.328 . S
C939 H945 0.929 . S
C940 C941 1.362 . S
C940 C943 1.378 . S
C940 H955 0.929 . S
C941 C940 1.362 . S
C941 C942 1.366 . S
C942 C939 1.365 . S
C942 C941 1.366 . S
C942 H956 0.930 . S
C943 C940 1.378 . S
C943 N944 1.315 . S
C943 H946 0.930 . S
N944 Co924 2.194 . S
N944 C939 1.328 . S
N944 C943 1.315 . S
H945 C939 0.929 . S
H946 C943 0.930 . S
H947 C935 0.929 . S
H948 C937 0.929 . S
O949 Co924 2.351 . S
O949 C952 1.244 . S
O950 Co924 2.155 . S
O950 C952 1.240 . S
O951 Co924 2.096 . S
O951 C932 1.247 . S
C952 O949 1.244 . S
C952 O950 1.240 . S
H953 C927 0.931 . S
H954 C936 0.931 . S
H955 C940 0.929 . S
H956 C942 0.930 . S
Co957 N961 2.148 . S
Co957 N967 2.128 . S
Co957 N977 2.194 . S
Co957 O982 2.351 . S
Co957 O983 2.155 . S
Co957 O984 2.096 . S
C958 N961 1.301 . S
C958 N962 1.328 . S
C958 H963 0.930 . S
C959 C960 1.333 . S
C959 N961 1.317 . S
C959 H964 0.930 . S
C960 C959 1.333 . S
C960 N962 1.350 . S
C960 H986 0.931 . S
N961 Co957 2.148 . S
N961 C958 1.301 . S
N961 C959 1.317 . S
N962 C958 1.328 . S
N962 C960 1.350 . S
H963 C958 0.930 . S
H964 C959 0.930 . S
C965 O966 1.224 . S
C965 O984 1.247 . S
O966 C965 1.224 . S
N967 Co957 2.128 . S
N967 C968 1.355 . S
N967 C970 1.311 . S
C968 N967 1.355 . S
C968 C969 1.363 1_455 S
C968 H980 0.929 . S
C969 C968 1.363 1_655 S
C969 N971 1.375 . S
C969 H987 0.931 . S
C970 N967 1.311 . S
C970 N971 1.347 1_455 S
C970 H981 0.929 . S
N971 C969 1.375 . S
N971 C970 1.347 1_655 S
C972 C975 1.365 . S
C972 N977 1.328 . S
C972 H978 0.929 . S
C973 C974 1.362 . S
C973 C976 1.378 . S
C973 H988 0.929 . S
C974 C973 1.362 . S
C974 C975 1.366 . S
C975 C972 1.365 . S
C975 C974 1.366 . S
C975 H989 0.930 . S
C976 C973 1.378 . S
C976 N977 1.315 . S
C976 H979 0.930 . S
N977 Co957 2.194 . S
N977 C972 1.328 . S
N977 C976 1.315 . S
H978 C972 0.929 . S
H979 C976 0.930 . S
H980 C968 0.929 . S
H981 C970 0.929 . S
O982 Co957 2.351 . S
O982 C985 1.244 . S
O983 Co957 2.155 . S
O983 C985 1.240 . S
O984 Co957 2.096 . S
O984 C965 1.247 . S
C985 O982 1.244 . S
C985 O983 1.240 . S
H986 C960 0.931 . S
H987 C969 0.931 . S
H988 C973 0.929 . S
H989 C975 0.930 . S
Co990 N994 2.148 . S
Co990 N1000 2.128 . S
Co990 N1010 2.194 . S
Co990 O1015 2.351 . S
Co990 O1016 2.155 . S
Co990 O1017 2.096 . S
C991 N994 1.301 . S
C991 N995 1.328 . S
C991 H996 0.930 . S
C992 C993 1.333 . S
C992 N994 1.317 . S
C992 H997 0.930 . S
C993 C992 1.333 . S
C993 N995 1.350 . S
C993 H1019 0.931 . S
N994 Co990 2.148 . S
N994 C991 1.301 . S
N994 C992 1.317 . S
N995 C991 1.328 . S
N995 C993 1.350 . S
H996 C991 0.930 . S
H997 C992 0.930 . S
C998 O999 1.224 . S
C998 O1017 1.247 . S
O999 C998 1.224 . S
N1000 Co990 2.128 . S
N1000 C1001 1.355 . S
N1000 C1003 1.311 . S
C1001 N1000 1.355 . S
C1001 C1002 1.363 . S
C1001 H1013 0.929 . S
C1002 C1001 1.363 . S
C1002 N1004 1.375 . S
C1002 H1020 0.931 . S
C1003 N1000 1.311 . S
C1003 N1004 1.347 . S
C1003 H1014 0.929 . S
N1004 C1002 1.375 . S
N1004 C1003 1.347 . S
C1005 C1008 1.365 . S
C1005 N1010 1.328 . S
C1005 H1011 0.929 . S
C1006 C1007 1.362 . S
C1006 C1009 1.378 . S
C1006 H1021 0.929 . S
C1007 C1006 1.362 . S
C1007 C1008 1.366 . S
C1008 C1005 1.365 . S
C1008 C1007 1.366 . S
C1008 H1022 0.930 . S
C1009 C1006 1.378 . S
C1009 N1010 1.315 . S
C1009 H1012 0.930 . S
N1010 Co990 2.194 . S
N1010 C1005 1.328 . S
N1010 C1009 1.315 . S
H1011 C1005 0.929 . S
H1012 C1009 0.930 . S
H1013 C1001 0.929 . S
H1014 C1003 0.929 . S
O1015 Co990 2.351 . S
O1015 C1018 1.244 . S
O1016 Co990 2.155 . S
O1016 C1018 1.240 . S
O1017 Co990 2.096 . S
O1017 C998 1.247 . S
C1018 O1015 1.244 . S
C1018 O1016 1.240 . S
H1019 C993 0.931 . S
H1020 C1002 0.931 . S
H1021 C1006 0.929 . S
H1022 C1008 0.930 . S
Co1023 N1027 2.148 . S
Co1023 N1033 2.128 . S
Co1023 N1043 2.194 . S
Co1023 O1048 2.351 . S
Co1023 O1049 2.155 . S
Co1023 O1050 2.096 . S
C1024 N1027 1.301 . S
C1024 N1028 1.328 . S
C1024 H1029 0.930 . S
C1025 C1026 1.333 . S
C1025 N1027 1.317 . S
C1025 H1030 0.930 . S
C1026 C1025 1.333 . S
C1026 N1028 1.350 . S
C1026 H1052 0.931 . S
N1027 Co1023 2.148 . S
N1027 C1024 1.301 . S
N1027 C1025 1.317 . S
N1028 C1024 1.328 . S
N1028 C1026 1.350 . S
H1029 C1024 0.930 . S
H1030 C1025 0.930 . S
C1031 O1032 1.224 . S
C1031 O1050 1.247 . S
O1032 C1031 1.224 . S
N1033 Co1023 2.128 . S
N1033 C1034 1.355 . S
N1033 C1036 1.311 . S
C1034 N1033 1.355 . S
C1034 C1035 1.363 . S
C1034 H1046 0.929 . S
C1035 C1034 1.363 . S
C1035 N1037 1.375 . S
C1035 H1053 0.931 . S
C1036 N1033 1.311 . S
C1036 N1037 1.347 . S
C1036 H1047 0.929 . S
N1037 C1035 1.375 . S
N1037 C1036 1.347 . S
C1038 C1041 1.365 . S
C1038 N1043 1.328 . S
C1038 H1044 0.929 . S
C1039 C1040 1.362 . S
C1039 C1042 1.378 . S
C1039 H1054 0.929 . S
C1040 C1039 1.362 . S
C1040 C1041 1.366 . S
C1041 C1038 1.365 . S
C1041 C1040 1.366 . S
C1041 H1055 0.930 . S
C1042 C1039 1.378 . S
C1042 N1043 1.315 . S
C1042 H1045 0.930 . S
N1043 Co1023 2.194 . S
N1043 C1038 1.328 . S
N1043 C1042 1.315 . S
H1044 C1038 0.929 . S
H1045 C1042 0.930 . S
H1046 C1034 0.929 . S
H1047 C1036 0.929 . S
O1048 Co1023 2.351 . S
O1048 C1051 1.244 . S
O1049 Co1023 2.155 . S
O1049 C1051 1.240 . S
O1050 Co1023 2.096 . S
O1050 C1031 1.247 . S
C1051 O1048 1.244 . S
C1051 O1049 1.240 . S
H1052 C1026 0.931 . S
H1053 C1035 0.931 . S
H1054 C1039 0.929 . S
H1055 C1041 0.930 . S
H1056 C1064 0.929 . S
H1057 C1066 0.930 . S
H1058 C1068 0.930 . S
H1059 C1071 0.929 . S
H1060 C1074 0.930 . S
H1061 C1076 0.960 . S
H1062 C1076 0.960 . S
H1063 C1076 0.960 . S
C1064 H1056 0.929 . S
C1064 C1065 1.377 . S
C1064 C1066 1.384 . S
C1065 C1064 1.377 . S
C1065 C1071 1.390 . S
C1066 H1057 0.930 . S
C1066 C1064 1.384 . S
C1066 C1067 1.372 . S
C1067 C1066 1.372 . S
C1067 C1068 1.400 . S
C1067 C1072 1.490 . S
C1068 H1058 0.930 . S
C1068 C1067 1.400 . S
C1068 C1071 1.386 . S
H1069 C1085 0.930 1_565 S
H1070 C1086 0.931 . S
C1071 H1059 0.929 . S
C1071 C1065 1.390 . S
C1071 C1068 1.386 . S
C1072 C1067 1.490 . S
C1072 C1074 1.395 . S
C1072 C1075 1.403 . S
H1073 C1079 0.930 . S
C1074 H1060 0.930 . S
C1074 C1072 1.395 . S
C1074 C1077 1.403 . S
C1075 C1072 1.403 . S
C1075 C1076 1.524 . S
C1075 C1079 1.400 . S
C1076 H1061 0.960 . S
C1076 H1062 0.960 . S
C1076 H1063 0.960 . S
C1076 C1075 1.524 . S
C1077 C1074 1.403 . S
C1077 C1078 1.392 . S
C1077 C1081 1.495 . S
C1078 C1077 1.392 . S
C1078 C1079 1.385 . S
C1078 C1080 1.478 . S
C1079 H1073 0.930 . S
C1079 C1075 1.400 . S
C1079 C1078 1.385 . S
C1080 C1078 1.478 . S
C1080 C1082 1.381 . S
C1080 C1086 1.383 . S
C1081 C1077 1.495 . S
C1081 H1087 0.959 . S
C1081 H1088 0.961 . S
C1081 H1089 0.960 . S
C1082 C1080 1.381 . S
C1082 C1083 1.394 . S
C1082 H1090 0.930 . S
C1083 C1082 1.394 . S
C1083 C1084 1.383 . S
C1083 H1091 0.929 . S
C1084 C1083 1.383 . S
C1084 C1085 1.377 . S
C1085 H1069 0.930 1_545 S
C1085 C1084 1.377 . S
C1085 C1086 1.379 . S
C1086 H1070 0.931 . S
C1086 C1080 1.383 . S
C1086 C1085 1.379 . S
H1087 C1081 0.959 . S
H1088 C1081 0.961 . S
H1089 C1081 0.960 . S
H1090 C1082 0.930 . S
H1091 C1083 0.929 . S
H1092 C1100 0.929 . S
H1093 C1102 0.930 . S
H1094 C1104 0.930 . S
H1095 C1107 0.929 . S
H1096 C1110 0.930 . S
H1097 C1112 0.960 . S
H1098 C1112 0.960 . S
H1099 C1112 0.960 . S
C1100 H1092 0.929 . S
C1100 C1101 1.377 . S
C1100 C1102 1.384 . S
C1101 C1100 1.377 . S
C1101 C1107 1.390 . S
C1102 H1093 0.930 . S
C1102 C1100 1.384 . S
C1102 C1103 1.372 . S
C1103 C1102 1.372 . S
C1103 C1104 1.400 . S
C1103 C1108 1.490 . S
C1104 H1094 0.930 . S
C1104 C1103 1.400 . S
C1104 C1107 1.386 . S
H1105 C1121 0.930 . S
H1106 C1122 0.931 . S
C1107 H1095 0.929 . S
C1107 C1101 1.390 . S
C1107 C1104 1.386 . S
C1108 C1103 1.490 . S
C1108 C1110 1.395 . S
C1108 C1111 1.403 . S
H1109 C1115 0.930 . S
C1110 H1096 0.930 . S
C1110 C1108 1.395 . S
C1110 C1113 1.403 . S
C1111 C1108 1.403 . S
C1111 C1112 1.524 . S
C1111 C1115 1.400 . S
C1112 H1097 0.960 . S
C1112 H1098 0.960 . S
C1112 H1099 0.960 . S
C1112 C1111 1.524 . S
C1113 C1110 1.403 . S
C1113 C1114 1.392 . S
C1113 C1117 1.495 . S
C1114 C1113 1.392 . S
C1114 C1115 1.385 . S
C1114 C1116 1.478 . S
C1115 H1109 0.930 . S
C1115 C1111 1.400 . S
C1115 C1114 1.385 . S
C1116 C1114 1.478 . S
C1116 C1118 1.381 . S
C1116 C1122 1.383 . S
C1117 C1113 1.495 . S
C1117 H1123 0.959 . S
C1117 H1124 0.961 . S
C1117 H1125 0.960 . S
C1118 C1116 1.381 . S
C1118 C1119 1.394 . S
C1118 H1126 0.930 . S
C1119 C1118 1.394 . S
C1119 C1120 1.383 . S
C1119 H1127 0.929 . S
C1120 C1119 1.383 . S
C1120 C1121 1.377 . S
C1121 H1105 0.930 . S
C1121 C1120 1.377 . S
C1121 C1122 1.379 . S
C1122 H1106 0.931 . S
C1122 C1116 1.383 . S
C1122 C1121 1.379 . S
H1123 C1117 0.959 . S
H1124 C1117 0.961 . S
H1125 C1117 0.960 . S
H1126 C1118 0.930 . S
H1127 C1119 0.929 . S
H1128 C1136 0.929 . S
H1129 C1138 0.930 . S
H1130 C1140 0.930 . S
H1131 C1143 0.929 . S
H1132 C1146 0.930 . S
H1133 C1148 0.960 . S
H1134 C1148 0.960 . S
H1135 C1148 0.960 . S
C1136 H1128 0.929 . S
C1136 C1137 1.377 . S
C1136 C1138 1.384 . S
C1137 C1136 1.377 . S
C1137 C1143 1.390 . S
C1138 H1129 0.930 . S
C1138 C1136 1.384 . S
C1138 C1139 1.372 . S
C1139 C1138 1.372 . S
C1139 C1140 1.400 . S
C1139 C1144 1.490 . S
C1140 H1130 0.930 . S
C1140 C1139 1.400 . S
C1140 C1143 1.386 . S
H1141 C1157 0.930 . S
H1142 C1158 0.931 . S
C1143 H1131 0.929 . S
C1143 C1137 1.390 . S
C1143 C1140 1.386 . S
C1144 C1139 1.490 . S
C1144 C1146 1.395 . S
C1144 C1147 1.403 . S
H1145 C1151 0.930 . S
C1146 H1132 0.930 . S
C1146 C1144 1.395 . S
C1146 C1149 1.403 . S
C1147 C1144 1.403 . S
C1147 C1148 1.524 . S
C1147 C1151 1.400 . S
C1148 H1133 0.960 . S
C1148 H1134 0.960 . S
C1148 H1135 0.960 . S
C1148 C1147 1.524 . S
C1149 C1146 1.403 . S
C1149 C1150 1.392 . S
C1149 C1153 1.495 . S
C1150 C1149 1.392 . S
C1150 C1151 1.385 . S
C1150 C1152 1.478 . S
C1151 H1145 0.930 . S
C1151 C1147 1.400 . S
C1151 C1150 1.385 . S
C1152 C1150 1.478 . S
C1152 C1154 1.381 . S
C1152 C1158 1.383 . S
C1153 C1149 1.495 . S
C1153 H1159 0.959 . S
C1153 H1160 0.961 . S
C1153 H1161 0.960 . S
C1154 C1152 1.381 . S
C1154 C1155 1.394 . S
C1154 H1162 0.930 . S
C1155 C1154 1.394 . S
C1155 C1156 1.383 . S
C1155 H1163 0.929 . S
C1156 C1155 1.383 . S
C1156 C1157 1.377 . S
C1157 H1141 0.930 . S
C1157 C1156 1.377 . S
C1157 C1158 1.379 . S
C1158 H1142 0.931 . S
C1158 C1152 1.383 . S
C1158 C1157 1.379 . S
H1159 C1153 0.959 . S
H1160 C1153 0.961 . S
H1161 C1153 0.960 . S
H1162 C1154 0.930 . S
H1163 C1155 0.929 . S
H1164 C1172 0.906 1_565 S
H1165 C1174 0.930 . S
H1166 C1176 0.930 . S
H1167 C1179 0.929 . S
H1168 C1182 0.930 . S
H1169 C1184 0.960 . S
H1170 C1184 0.960 . S
H1171 C1184 0.960 . S
C1172 H1164 0.906 1_545 S
C1172 C1173 1.377 . S
C1172 C1174 1.384 . S
C1173 C1172 1.377 . S
C1173 C1179 1.390 . S
C1174 H1165 0.930 . S
C1174 C1172 1.384 . S
C1174 C1175 1.372 . S
C1175 C1174 1.372 . S
C1175 C1176 1.400 . S
C1175 C1180 1.490 . S
C1176 H1166 0.930 . S
C1176 C1175 1.400 . S
C1176 C1179 1.386 . S
H1177 C1193 0.930 . S
H1178 C1194 0.931 . S
C1179 H1167 0.929 . S
C1179 C1173 1.390 . S
C1179 C1176 1.386 . S
C1180 C1175 1.490 . S
C1180 C1182 1.395 . S
C1180 C1183 1.403 . S
H1181 C1187 0.930 . S
C1182 H1168 0.930 . S
C1182 C1180 1.395 . S
C1182 C1185 1.403 . S
C1183 C1180 1.403 . S
C1183 C1184 1.524 . S
C1183 C1187 1.400 . S
C1184 H1169 0.960 . S
C1184 H1170 0.960 . S
C1184 H1171 0.960 . S
C1184 C1183 1.524 . S
C1185 C1182 1.403 . S
C1185 C1186 1.392 . S
C1185 C1189 1.495 . S
C1186 C1185 1.392 . S
C1186 C1187 1.385 . S
C1186 C1188 1.478 . S
C1187 H1181 0.930 . S
C1187 C1183 1.400 . S
C1187 C1186 1.385 . S
C1188 C1186 1.478 . S
C1188 C1190 1.381 . S
C1188 C1194 1.383 . S
C1189 C1185 1.495 . S
C1189 H1195 0.959 . S
C1189 H1196 0.961 . S
C1189 H1197 0.960 . S
C1190 C1188 1.381 . S
C1190 C1191 1.394 . S
C1190 H1198 0.930 . S
C1191 C1190 1.394 . S
C1191 C1192 1.383 . S
C1191 H1199 0.929 . S
C1192 C1191 1.383 . S
C1192 C1193 1.377 . S
C1193 H1177 0.930 . S
C1193 C1192 1.377 . S
C1193 C1194 1.379 . S
C1194 H1178 0.931 . S
C1194 C1188 1.383 . S
C1194 C1193 1.379 . S
H1195 C1189 0.959 . S
H1196 C1189 0.961 . S
H1197 C1189 0.960 . S
H1198 C1190 0.930 . S
H1199 C1191 0.929 . S
H1200 C1208 0.929 1_545 S
H1201 C1210 0.930 . S
H1202 C1212 0.930 . S
H1203 C1215 0.929 . S
H1204 C1218 0.930 . S
H1205 C1220 0.960 . S
H1206 C1220 0.960 . S
H1207 C1220 0.960 . S
C1208 H1200 0.929 1_565 S
C1208 C1209 1.377 . S
C1208 C1210 1.384 . S
C1209 C1208 1.377 . S
C1209 C1215 1.390 . S
C1210 H1201 0.930 . S
C1210 C1208 1.384 . S
C1210 C1211 1.372 . S
C1211 C1210 1.372 . S
C1211 C1212 1.400 . S
C1211 C1216 1.490 . S
C1212 H1202 0.930 . S
C1212 C1211 1.400 . S
C1212 C1215 1.386 . S
H1213 C1229 0.930 . S
H1214 C1230 0.931 . S
C1215 H1203 0.929 . S
C1215 C1209 1.390 . S
C1215 C1212 1.386 . S
C1216 C1211 1.490 . S
C1216 C1218 1.395 . S
C1216 C1219 1.403 . S
H1217 C1223 0.930 . S
C1218 H1204 0.930 . S
C1218 C1216 1.395 . S
C1218 C1221 1.403 . S
C1219 C1216 1.403 . S
C1219 C1220 1.524 . S
C1219 C1223 1.400 . S
C1220 H1205 0.960 . S
C1220 H1206 0.960 . S
C1220 H1207 0.960 . S
C1220 C1219 1.524 . S
C1221 C1218 1.403 . S
C1221 C1222 1.392 . S
C1221 C1225 1.495 . S
C1222 C1221 1.392 . S
C1222 C1223 1.385 . S
C1222 C1224 1.478 . S
C1223 H1217 0.930 . S
C1223 C1219 1.400 . S
C1223 C1222 1.385 . S
C1224 C1222 1.478 . S
C1224 C1226 1.381 . S
C1224 C1230 1.383 . S
C1225 C1221 1.495 . S
C1225 H1231 0.959 . S
C1225 H1232 0.961 . S
C1225 H1233 0.960 . S
C1226 C1224 1.381 . S
C1226 C1227 1.394 . S
C1226 H1234 0.930 . S
C1227 C1226 1.394 . S
C1227 C1228 1.383 . S
C1227 H1235 0.929 . S
C1228 C1227 1.383 . S
C1228 C1229 1.377 . S
C1229 H1213 0.930 . S
C1229 C1228 1.377 . S
C1229 C1230 1.379 . S
C1230 H1214 0.931 . S
C1230 C1224 1.383 . S
C1230 C1229 1.379 . S
H1231 C1225 0.959 . S
H1232 C1225 0.961 . S
H1233 C1225 0.960 . S
H1234 C1226 0.930 . S
H1235 C1227 0.929 . S
H1236 C1244 0.929 . S
H1237 C1246 0.930 . S
H1238 C1248 0.930 . S
H1239 C1251 0.929 1_565 S
H1240 C1254 0.930 . S
H1241 C1256 0.960 . S
H1242 C1256 0.960 . S
H1243 C1256 0.960 . S
C1244 H1236 0.929 . S
C1244 C1245 1.377 . S
C1244 C1246 1.384 . S
C1245 C1244 1.377 . S
C1245 C1251 1.390 . S
C1246 H1237 0.930 . S
C1246 C1244 1.384 . S
C1246 C1247 1.372 . S
C1247 C1246 1.372 . S
C1247 C1248 1.400 . S
C1247 C1252 1.490 . S
C1248 H1238 0.930 . S
C1248 C1247 1.400 . S
C1248 C1251 1.386 . S
H1249 C1265 0.930 . S
H1250 C1266 0.931 . S
C1251 H1239 0.929 1_545 S
C1251 C1245 1.390 . S
C1251 C1248 1.386 . S
C1252 C1247 1.490 . S
C1252 C1254 1.395 . S
C1252 C1255 1.403 . S
H1253 C1259 0.930 . S
C1254 H1240 0.930 . S
C1254 C1252 1.395 . S
C1254 C1257 1.403 . S
C1255 C1252 1.403 . S
C1255 C1256 1.524 . S
C1255 C1259 1.400 . S
C1256 H1241 0.960 . S
C1256 H1242 0.960 . S
C1256 H1243 0.960 . S
C1256 C1255 1.524 . S
C1257 C1254 1.403 . S
C1257 C1258 1.392 . S
C1257 C1261 1.495 . S
C1258 C1257 1.392 . S
C1258 C1259 1.385 . S
C1258 C1260 1.478 . S
C1259 H1253 0.930 . S
C1259 C1255 1.400 . S
C1259 C1258 1.385 . S
C1260 C1258 1.478 . S
C1260 C1262 1.381 . S
C1260 C1266 1.383 . S
C1261 C1257 1.495 . S
C1261 H1267 0.959 . S
C1261 H1268 0.961 . S
C1261 H1269 0.960 . S
C1262 C1260 1.381 . S
C1262 C1263 1.394 . S
C1262 H1270 0.930 . S
C1263 C1262 1.394 . S
C1263 C1264 1.383 . S
C1263 H1271 0.929 . S
C1264 C1263 1.383 . S
C1264 C1265 1.377 . S
C1265 H1249 0.930 . S
C1265 C1264 1.377 . S
C1265 C1266 1.379 . S
C1266 H1250 0.931 . S
C1266 C1260 1.383 . S
C1266 C1265 1.379 . S
H1267 C1261 0.959 . S
H1268 C1261 0.961 . S
H1269 C1261 0.960 . S
H1270 C1262 0.930 . S
H1271 C1263 0.929 . S
H1272 C1280 0.929 . S
H1273 C1282 0.930 . S
H1274 C1284 0.930 . S
H1275 C1287 0.929 . S
H1276 C1290 0.930 . S
H1277 C1292 0.960 . S
H1278 C1292 0.960 . S
H1279 C1292 0.960 . S
C1280 H1272 0.929 . S
C1280 C1281 1.377 . S
C1280 C1282 1.384 . S
C1281 C1280 1.377 . S
C1281 C1287 1.390 . S
C1282 H1273 0.930 . S
C1282 C1280 1.384 . S
C1282 C1283 1.372 . S
C1283 C1282 1.372 . S
C1283 C1284 1.400 . S
C1283 C1288 1.490 . S
C1284 H1274 0.930 . S
C1284 C1283 1.400 . S
C1284 C1287 1.386 . S
H1285 C1301 0.930 . S
H1286 C1302 0.931 . S
C1287 H1275 0.929 . S
C1287 C1281 1.390 . S
C1287 C1284 1.386 . S
C1288 C1283 1.490 . S
C1288 C1290 1.395 . S
C1288 C1291 1.403 . S
H1289 C1295 0.930 . S
C1290 H1276 0.930 . S
C1290 C1288 1.395 . S
C1290 C1293 1.403 . S
C1291 C1288 1.403 . S
C1291 C1292 1.524 . S
C1291 C1295 1.400 . S
C1292 H1277 0.960 . S
C1292 H1278 0.960 . S
C1292 H1279 0.960 . S
C1292 C1291 1.524 . S
C1293 C1290 1.403 . S
C1293 C1294 1.392 . S
C1293 C1297 1.495 . S
C1294 C1293 1.392 . S
C1294 C1295 1.385 . S
C1294 C1296 1.478 . S
C1295 H1289 0.930 . S
C1295 C1291 1.400 . S
C1295 C1294 1.385 . S
C1296 C1294 1.478 . S
C1296 C1298 1.381 . S
C1296 C1302 1.383 . S
C1297 C1293 1.495 . S
C1297 H1303 0.959 . S
C1297 H1304 0.961 . S
C1297 H1305 0.960 . S
C1298 C1296 1.381 . S
C1298 C1299 1.394 . S
C1298 H1306 0.930 . S
C1299 C1298 1.394 . S
C1299 C1300 1.383 . S
C1299 H1307 0.929 . S
C1300 C1299 1.383 . S
C1300 C1301 1.377 . S
C1301 H1285 0.930 . S
C1301 C1300 1.377 . S
C1301 C1302 1.379 . S
C1302 H1286 0.931 . S
C1302 C1296 1.383 . S
C1302 C1301 1.379 . S
H1303 C1297 0.959 . S
H1304 C1297 0.961 . S
H1305 C1297 0.960 . S
H1306 C1298 0.930 . S
H1307 C1299 0.929 . S
H1308 C1316 0.929 1_545 S
H1309 C1318 0.930 . S
H1310 C1320 0.930 . S
H1311 C1323 0.929 . S
H1312 C1326 0.930 . S
H1313 C1328 0.960 . S
H1314 C1328 0.960 . S
H1315 C1328 0.960 . S
C1316 H1308 0.929 1_565 S
C1316 C1317 1.377 . S
C1316 C1318 1.384 . S
C1317 C1316 1.377 . S
C1317 C1323 1.390 . S
C1318 H1309 0.930 . S
C1318 C1316 1.384 . S
C1318 C1319 1.372 . S
C1319 C1318 1.372 . S
C1319 C1320 1.400 . S
C1319 C1324 1.490 . S
C1320 H1310 0.930 . S
C1320 C1319 1.400 . S
C1320 C1323 1.386 . S
H1321 C1337 0.930 . S
H1322 C1338 0.931 . S
C1323 H1311 0.929 . S
C1323 C1317 1.390 . S
C1323 C1320 1.386 . S
C1324 C1319 1.490 . S
C1324 C1326 1.395 . S
C1324 C1327 1.403 . S
H1325 C1331 0.930 . S
C1326 H1312 0.930 . S
C1326 C1324 1.395 . S
C1326 C1329 1.403 . S
C1327 C1324 1.403 . S
C1327 C1328 1.524 . S
C1327 C1331 1.400 . S
C1328 H1313 0.960 . S
C1328 H1314 0.960 . S
C1328 H1315 0.960 . S
C1328 C1327 1.524 . S
C1329 C1326 1.403 . S
C1329 C1330 1.392 . S
C1329 C1333 1.495 . S
C1330 C1329 1.392 . S
C1330 C1331 1.385 . S
C1330 C1332 1.478 . S
C1331 H1325 0.930 . S
C1331 C1327 1.400 . S
C1331 C1330 1.385 . S
C1332 C1330 1.478 . S
C1332 C1334 1.381 . S
C1332 C1338 1.383 . S
C1333 C1329 1.495 . S
C1333 H1339 0.959 . S
C1333 H1340 0.961 . S
C1333 H1341 0.960 . S
C1334 C1332 1.381 . S
C1334 C1335 1.394 . S
C1334 H1342 0.930 . S
C1335 C1334 1.394 . S
C1335 C1336 1.383 . S
C1335 H1343 0.929 . S
C1336 C1335 1.383 . S
C1336 C1337 1.377 . S
C1337 H1321 0.930 . S
C1337 C1336 1.377 . S
C1337 C1338 1.379 . S
C1338 H1322 0.931 . S
C1338 C1332 1.383 . S
C1338 C1337 1.379 . S
H1339 C1333 0.959 . S
H1340 C1333 0.961 . S
H1341 C1333 0.960 . S
H1342 C1334 0.930 . S
H1343 C1335 0.929 . S
H1344 C1352 0.929 . S
H1345 C1354 0.930 . S
H1346 C1356 0.930 . S
H1347 C1359 0.929 . S
H1348 C1362 0.930 . S
H1349 C1364 0.960 . S
H1350 C1364 0.960 . S
H1351 C1364 0.960 . S
C1352 H1344 0.929 . S
C1352 C1353 1.377 . S
C1352 C1354 1.384 . S
C1353 C1352 1.377 . S
C1353 C1359 1.390 . S
C1354 H1345 0.930 . S
C1354 C1352 1.384 . S
C1354 C1355 1.372 . S
C1355 C1354 1.372 . S
C1355 C1356 1.400 . S
C1355 C1360 1.490 . S
C1356 H1346 0.930 . S
C1356 C1355 1.400 . S
C1356 C1359 1.386 . S
H1357 C1373 0.930 . S
H1358 C1374 0.931 . S
C1359 H1347 0.929 . S
C1359 C1353 1.390 . S
C1359 C1356 1.386 . S
C1360 C1355 1.490 . S
C1360 C1362 1.395 . S
C1360 C1363 1.403 . S
H1361 C1367 0.930 . S
C1362 H1348 0.930 . S
C1362 C1360 1.395 . S
C1362 C1365 1.403 . S
C1363 C1360 1.403 . S
C1363 C1364 1.524 . S
C1363 C1367 1.400 . S
C1364 H1349 0.960 . S
C1364 H1350 0.960 . S
C1364 H1351 0.960 . S
C1364 C1363 1.524 . S
C1365 C1362 1.403 . S
C1365 C1366 1.392 . S
C1365 C1369 1.495 . S
C1366 C1365 1.392 . S
C1366 C1367 1.385 . S
C1366 C1368 1.478 . S
C1367 H1361 0.930 . S
C1367 C1363 1.400 . S
C1367 C1366 1.385 . S
C1368 C1366 1.478 . S
C1368 C1370 1.381 . S
C1368 C1374 1.383 . S
C1369 C1365 1.495 . S
C1369 H1375 0.959 . S
C1369 H1376 0.961 . S
C1369 H1377 0.960 . S
C1370 C1368 1.381 . S
C1370 C1371 1.394 . S
C1370 H1378 0.930 . S
C1371 C1370 1.394 . S
C1371 C1372 1.383 . S
C1371 H1379 0.929 . S
C1372 C1371 1.383 . S
C1372 C1373 1.377 . S
C1373 H1357 0.930 . S
C1373 C1372 1.377 . S
C1373 C1374 1.379 . S
C1374 H1358 0.931 . S
C1374 C1368 1.383 . S
C1374 C1373 1.379 . S
H1375 C1369 0.959 . S
H1376 C1369 0.961 . S
H1377 C1369 0.960 . S
H1378 C1370 0.930 . S
H1379 C1371 0.929 . S
H1380 C1388 0.929 . S
H1381 C1390 0.930 . S
H1382 C1392 0.930 . S
H1383 C1395 0.929 . S
H1384 C1398 0.930 . S
H1385 C1400 0.960 . S
H1386 C1400 0.960 . S
H1387 C1400 0.960 . S
C1388 H1380 0.929 . S
C1388 C1389 1.377 . S
C1388 C1390 1.384 . S
C1389 C1388 1.377 . S
C1389 C1395 1.390 . S
C1390 H1381 0.930 . S
C1390 C1388 1.384 . S
C1390 C1391 1.372 . S
C1391 C1390 1.372 . S
C1391 C1392 1.400 . S
C1391 C1396 1.490 . S
C1392 H1382 0.930 . S
C1392 C1391 1.400 . S
C1392 C1395 1.386 . S
H1393 C1409 0.930 . S
H1394 C1410 0.931 . S
C1395 H1383 0.929 . S
C1395 C1389 1.390 . S
C1395 C1392 1.386 . S
C1396 C1391 1.490 . S
C1396 C1398 1.395 . S
C1396 C1399 1.403 . S
H1397 C1403 0.930 . S
C1398 H1384 0.930 . S
C1398 C1396 1.395 . S
C1398 C1401 1.403 . S
C1399 C1396 1.403 . S
C1399 C1400 1.524 . S
C1399 C1403 1.400 . S
C1400 H1385 0.960 . S
C1400 H1386 0.960 . S
C1400 H1387 0.960 . S
C1400 C1399 1.524 . S
C1401 C1398 1.403 . S
C1401 C1402 1.392 . S
C1401 C1405 1.495 . S
C1402 C1401 1.392 . S
C1402 C1403 1.385 . S
C1402 C1404 1.478 . S
C1403 H1397 0.930 . S
C1403 C1399 1.400 . S
C1403 C1402 1.385 . S
C1404 C1402 1.478 . S
C1404 C1406 1.381 . S
C1404 C1410 1.383 . S
C1405 C1401 1.495 . S
C1405 H1411 0.959 . S
C1405 H1412 0.961 . S
C1405 H1413 0.960 . S
C1406 C1404 1.381 . S
C1406 C1407 1.394 . S
C1406 H1414 0.930 . S
C1407 C1406 1.394 . S
C1407 C1408 1.383 . S
C1407 H1415 0.929 . S
C1408 C1407 1.383 . S
C1408 C1409 1.377 . S
C1409 H1393 0.930 . S
C1409 C1408 1.377 . S
C1409 C1410 1.379 . S
C1410 H1394 0.931 . S
C1410 C1404 1.383 . S
C1410 C1409 1.379 . S
H1411 C1405 0.959 . S
H1412 C1405 0.961 . S
H1413 C1405 0.960 . S
H1414 C1406 0.930 . S
H1415 C1407 0.929 . S
H1416 C1424 0.929 . S
H1417 C1426 0.930 . S
H1418 C1428 0.930 . S
H1419 C1431 0.929 . S
H1420 C1434 0.930 . S
H1421 C1436 0.960 . S
H1422 C1436 0.960 . S
H1423 C1436 0.960 . S
C1424 H1416 0.929 . S
C1424 C1425 1.377 . S
C1424 C1426 1.384 . S
C1425 C1424 1.377 . S
C1425 C1431 1.390 . S
C1426 H1417 0.930 . S
C1426 C1424 1.384 . S
C1426 C1427 1.372 . S
C1427 C1426 1.372 . S
C1427 C1428 1.400 . S
C1427 C1432 1.490 . S
C1428 H1418 0.930 . S
C1428 C1427 1.400 . S
C1428 C1431 1.386 . S
H1429 C1445 0.930 . S
H1430 C1446 0.931 . S
C1431 H1419 0.929 . S
C1431 C1425 1.390 . S
C1431 C1428 1.386 . S
C1432 C1427 1.490 . S
C1432 C1434 1.395 . S
C1432 C1435 1.403 . S
H1433 C1439 0.930 . S
C1434 H1420 0.930 . S
C1434 C1432 1.395 . S
C1434 C1437 1.403 . S
C1435 C1432 1.403 . S
C1435 C1436 1.524 . S
C1435 C1439 1.400 . S
C1436 H1421 0.960 . S
C1436 H1422 0.960 . S
C1436 H1423 0.960 . S
C1436 C1435 1.524 . S
C1437 C1434 1.403 . S
C1437 C1438 1.392 . S
C1437 C1441 1.495 . S
C1438 C1437 1.392 . S
C1438 C1439 1.385 . S
C1438 C1440 1.478 . S
C1439 H1433 0.930 . S
C1439 C1435 1.400 . S
C1439 C1438 1.385 . S
C1440 C1438 1.478 . S
C1440 C1442 1.381 . S
C1440 C1446 1.383 . S
C1441 C1437 1.495 . S
C1441 H1447 0.959 . S
C1441 H1448 0.961 . S
C1441 H1449 0.960 . S
C1442 C1440 1.381 . S
C1442 C1443 1.394 . S
C1442 H1450 0.930 . S
C1443 C1442 1.394 . S
C1443 C1444 1.383 . S
C1443 H1451 0.929 . S
C1444 C1443 1.383 . S
C1444 C1445 1.377 . S
C1445 H1429 0.930 . S
C1445 C1444 1.377 . S
C1445 C1446 1.379 . S
C1446 H1430 0.931 . S
C1446 C1440 1.383 . S
C1446 C1445 1.379 . S
H1447 C1441 0.959 . S
H1448 C1441 0.961 . S
H1449 C1441 0.960 . S
H1450 C1442 0.930 . S
H1451 C1443 0.929 . S
H1452 C1460 0.929 . S
H1453 C1462 0.930 . S
H1454 C1464 0.930 . S
H1455 C1467 0.929 . S
H1456 C1470 0.930 . S
H1457 C1472 0.960 . S
H1458 C1472 0.960 . S
H1459 C1472 0.960 . S
C1460 H1452 0.929 . S
C1460 C1461 1.377 . S
C1460 C1462 1.384 . S
C1461 C1460 1.377 . S
C1461 C1467 1.390 . S
C1462 H1453 0.930 . S
C1462 C1460 1.384 . S
C1462 C1463 1.372 . S
C1463 C1462 1.372 . S
C1463 C1464 1.400 . S
C1463 C1468 1.490 . S
C1464 H1454 0.930 . S
C1464 C1463 1.400 . S
C1464 C1467 1.386 . S
H1465 C1481 0.930 . S
H1466 C1482 0.931 . S
C1467 H1455 0.929 . S
C1467 C1461 1.390 . S
C1467 C1464 1.386 . S
C1468 C1463 1.490 . S
C1468 C1470 1.395 . S
C1468 C1471 1.403 . S
H1469 C1475 0.930 . S
C1470 H1456 0.930 . S
C1470 C1468 1.395 . S
C1470 C1473 1.403 . S
C1471 C1468 1.403 . S
C1471 C1472 1.524 . S
C1471 C1475 1.400 . S
C1472 H1457 0.960 . S
C1472 H1458 0.960 . S
C1472 H1459 0.960 . S
C1472 C1471 1.524 . S
C1473 C1470 1.403 . S
C1473 C1474 1.392 . S
C1473 C1477 1.495 . S
C1474 C1473 1.392 . S
C1474 C1475 1.385 . S
C1474 C1476 1.478 . S
C1475 H1469 0.930 . S
C1475 C1471 1.400 . S
C1475 C1474 1.385 . S
C1476 C1474 1.478 . S
C1476 C1478 1.381 . S
C1476 C1482 1.383 . S
C1477 C1473 1.495 . S
C1477 H1483 0.959 . S
C1477 H1484 0.961 . S
C1477 H1485 0.960 . S
C1478 C1476 1.381 . S
C1478 C1479 1.394 . S
C1478 H1486 0.930 . S
C1479 C1478 1.394 . S
C1479 C1480 1.383 . S
C1479 H1487 0.929 . S
C1480 C1479 1.383 . S
C1480 C1481 1.377 . S
C1481 H1465 0.930 . S
C1481 C1480 1.377 . S
C1481 C1482 1.379 . S
C1482 H1466 0.931 . S
C1482 C1476 1.383 . S
C1482 C1481 1.379 . S
H1483 C1477 0.959 . S
H1484 C1477 0.961 . S
H1485 C1477 0.960 . S
H1486 C1478 0.930 . S
H1487 C1479 0.929 . S
H1488 C1496 0.929 . S
H1489 C1498 0.930 . S
H1490 C1500 0.930 . S
H1491 C1503 0.929 . S
H1492 C1506 0.930 . S
H1493 C1508 0.960 . S
H1494 C1508 0.960 . S
H1495 C1508 0.960 . S
C1496 H1488 0.929 . S
C1496 C1497 1.377 . S
C1496 C1498 1.384 . S
C1497 C1496 1.377 . S
C1497 C1503 1.390 . S
C1498 H1489 0.930 . S
C1498 C1496 1.384 . S
C1498 C1499 1.372 . S
C1499 C1498 1.372 . S
C1499 C1500 1.400 . S
C1499 C1504 1.490 . S
C1500 H1490 0.930 . S
C1500 C1499 1.400 . S
C1500 C1503 1.386 . S
H1501 C1517 0.930 . S
H1502 C1518 0.931 . S
C1503 H1491 0.929 . S
C1503 C1497 1.390 . S
C1503 C1500 1.386 . S
C1504 C1499 1.490 . S
C1504 C1506 1.395 . S
C1504 C1507 1.403 . S
H1505 C1511 0.930 . S
C1506 H1492 0.930 . S
C1506 C1504 1.395 . S
C1506 C1509 1.403 . S
C1507 C1504 1.403 . S
C1507 C1508 1.524 . S
C1507 C1511 1.400 . S
C1508 H1493 0.960 . S
C1508 H1494 0.960 . S
C1508 H1495 0.960 . S
C1508 C1507 1.524 . S
C1509 C1506 1.403 . S
C1509 C1510 1.392 . S
C1509 C1513 1.495 . S
C1510 C1509 1.392 . S
C1510 C1511 1.385 . S
C1510 C1512 1.478 . S
C1511 H1505 0.930 . S
C1511 C1507 1.400 . S
C1511 C1510 1.385 . S
C1512 C1510 1.478 . S
C1512 C1514 1.381 . S
C1512 C1518 1.383 . S
C1513 C1509 1.495 . S
C1513 H1519 0.959 . S
C1513 H1520 0.961 . S
C1513 H1521 0.960 . S
C1514 C1512 1.381 . S
C1514 C1515 1.394 . S
C1514 H1522 0.930 . S
C1515 C1514 1.394 . S
C1515 C1516 1.383 . S
C1515 H1523 0.929 . S
C1516 C1515 1.383 . S
C1516 C1517 1.377 . S
C1517 H1501 0.930 . S
C1517 C1516 1.377 . S
C1517 C1518 1.379 . S
C1518 H1502 0.931 . S
C1518 C1512 1.383 . S
C1518 C1517 1.379 . S
H1519 C1513 0.959 . S
H1520 C1513 0.961 . S
H1521 C1513 0.960 . S
H1522 C1514 0.930 . S
H1523 C1515 0.929 . S
H1524 C1532 0.929 . S
H1525 C1534 0.930 . S
H1526 C1536 0.930 . S
H1527 C1539 0.929 . S
H1528 C1542 0.930 . S
H1529 C1544 0.960 . S
H1530 C1544 0.960 . S
H1531 C1544 0.960 . S
C1532 H1524 0.929 . S
C1532 C1533 1.377 . S
C1532 C1534 1.384 . S
C1533 C1532 1.377 . S
C1533 C1539 1.390 . S
C1534 H1525 0.930 . S
C1534 C1532 1.384 . S
C1534 C1535 1.372 . S
C1535 C1534 1.372 . S
C1535 C1536 1.400 . S
C1535 C1540 1.490 . S
C1536 H1526 0.930 . S
C1536 C1535 1.400 . S
C1536 C1539 1.386 . S
H1537 C1553 0.930 . S
H1538 C1554 0.931 . S
C1539 H1527 0.929 . S
C1539 C1533 1.390 . S
C1539 C1536 1.386 . S
C1540 C1535 1.490 . S
C1540 C1542 1.395 . S
C1540 C1543 1.403 . S
H1541 C1547 0.930 . S
C1542 H1528 0.930 . S
C1542 C1540 1.395 . S
C1542 C1545 1.403 . S
C1543 C1540 1.403 . S
C1543 C1544 1.524 . S
C1543 C1547 1.400 . S
C1544 H1529 0.960 . S
C1544 H1530 0.960 . S
C1544 H1531 0.960 . S
C1544 C1543 1.524 . S
C1545 C1542 1.403 . S
C1545 C1546 1.392 . S
C1545 C1549 1.495 . S
C1546 C1545 1.392 . S
C1546 C1547 1.385 . S
C1546 C1548 1.478 . S
C1547 H1541 0.930 . S
C1547 C1543 1.400 . S
C1547 C1546 1.385 . S
C1548 C1546 1.478 . S
C1548 C1550 1.381 . S
C1548 C1554 1.383 . S
C1549 C1545 1.495 . S
C1549 H1555 0.959 . S
C1549 H1556 0.961 . S
C1549 H1557 0.960 . S
C1550 C1548 1.381 . S
C1550 C1551 1.394 . S
C1550 H1558 0.930 . S
C1551 C1550 1.394 . S
C1551 C1552 1.383 . S
C1551 H1559 0.929 . S
C1552 C1551 1.383 . S
C1552 C1553 1.377 . S
C1553 H1537 0.930 . S
C1553 C1552 1.377 . S
C1553 C1554 1.379 . S
C1554 H1538 0.931 . S
C1554 C1548 1.383 . S
C1554 C1553 1.379 . S
H1555 C1549 0.959 . S
H1556 C1549 0.961 . S
H1557 C1549 0.960 . S
H1558 C1550 0.930 . S
H1559 C1551 0.929 . S
H1560 C1568 0.929 . S
H1561 C1570 0.930 . S
H1562 C1572 0.930 . S
H1563 C1575 0.929 . S
H1564 C1578 0.930 . S
H1565 C1580 0.960 . S
H1566 C1580 0.960 . S
H1567 C1580 0.960 . S
C1568 H1560 0.929 . S
C1568 C1569 1.377 . S
C1568 C1570 1.384 . S
C1569 C1568 1.377 . S
C1569 C1575 1.390 . S
C1570 H1561 0.930 . S
C1570 C1568 1.384 . S
C1570 C1571 1.372 . S
C1571 C1570 1.372 . S
C1571 C1572 1.400 . S
C1571 C1576 1.490 . S
C1572 H1562 0.930 . S
C1572 C1571 1.400 . S
C1572 C1575 1.386 . S
H1573 C1589 0.930 . S
H1574 C1590 0.931 . S
C1575 H1563 0.929 . S
C1575 C1569 1.390 . S
C1575 C1572 1.386 . S
C1576 C1571 1.490 . S
C1576 C1578 1.395 . S
C1576 C1579 1.403 . S
H1577 C1583 0.930 . S
C1578 H1564 0.930 . S
C1578 C1576 1.395 . S
C1578 C1581 1.403 . S
C1579 C1576 1.403 . S
C1579 C1580 1.524 . S
C1579 C1583 1.400 . S
C1580 H1565 0.960 . S
C1580 H1566 0.960 . S
C1580 H1567 0.960 . S
C1580 C1579 1.524 . S
C1581 C1578 1.403 . S
C1581 C1582 1.392 . S
C1581 C1585 1.495 . S
C1582 C1581 1.392 . S
C1582 C1583 1.385 . S
C1582 C1584 1.478 . S
C1583 H1577 0.930 . S
C1583 C1579 1.400 . S
C1583 C1582 1.385 . S
C1584 C1582 1.478 . S
C1584 C1586 1.381 . S
C1584 C1590 1.383 . S
C1585 C1581 1.495 . S
C1585 H1591 0.959 . S
C1585 H1592 0.961 . S
C1585 H1593 0.960 . S
C1586 C1584 1.381 . S
C1586 C1587 1.394 . S
C1586 H1594 0.930 . S
C1587 C1586 1.394 . S
C1587 C1588 1.383 . S
C1587 H1595 0.929 . S
C1588 C1587 1.383 . S
C1588 C1589 1.377 . S
C1589 H1573 0.930 . S
C1589 C1588 1.377 . S
C1589 C1590 1.379 . S
C1590 H1574 0.931 . S
C1590 C1584 1.383 . S
C1590 C1589 1.379 . S
H1591 C1585 0.959 . S
H1592 C1585 0.961 . S
H1593 C1585 0.960 . S
H1594 C1586 0.930 . S
H1595 C1587 0.929 . S
H1596 C1604 0.929 . S
H1597 C1606 0.930 . S
H1598 C1608 0.930 . S
H1599 C1611 0.929 . S
H1600 C1614 0.930 . S
H1601 C1616 0.960 . S
H1602 C1616 0.960 . S
H1603 C1616 0.960 . S
C1604 H1596 0.929 . S
C1604 C1605 1.377 . S
C1604 C1606 1.384 . S
C1605 C1604 1.377 . S
C1605 C1611 1.390 . S
C1606 H1597 0.930 . S
C1606 C1604 1.384 . S
C1606 C1607 1.372 . S
C1607 C1606 1.372 . S
C1607 C1608 1.400 . S
C1607 C1612 1.490 . S
C1608 H1598 0.930 . S
C1608 C1607 1.400 . S
C1608 C1611 1.386 . S
H1609 C1625 0.930 . S
H1610 C1626 0.931 . S
C1611 H1599 0.929 . S
C1611 C1605 1.390 . S
C1611 C1608 1.386 . S
C1612 C1607 1.490 . S
C1612 C1614 1.395 . S
C1612 C1615 1.403 . S
H1613 C1619 0.930 . S
C1614 H1600 0.930 . S
C1614 C1612 1.395 . S
C1614 C1617 1.403 . S
C1615 C1612 1.403 . S
C1615 C1616 1.524 . S
C1615 C1619 1.400 . S
C1616 H1601 0.960 . S
C1616 H1602 0.960 . S
C1616 H1603 0.960 . S
C1616 C1615 1.524 . S
C1617 C1614 1.403 . S
C1617 C1618 1.392 . S
C1617 C1621 1.495 . S
C1618 C1617 1.392 . S
C1618 C1619 1.385 . S
C1618 C1620 1.478 . S
C1619 H1613 0.930 . S
C1619 C1615 1.400 . S
C1619 C1618 1.385 . S
C1620 C1618 1.478 . S
C1620 C1622 1.381 . S
C1620 C1626 1.383 . S
C1621 C1617 1.495 . S
C1621 H1627 0.959 . S
C1621 H1628 0.961 . S
C1621 H1629 0.960 . S
C1622 C1620 1.381 . S
C1622 C1623 1.394 . S
C1622 H1630 0.930 . S
C1623 C1622 1.394 . S
C1623 C1624 1.383 . S
C1623 H1631 0.929 . S
C1624 C1623 1.383 . S
C1624 C1625 1.377 . S
C1625 H1609 0.930 . S
C1625 C1624 1.377 . S
C1625 C1626 1.379 . S
C1626 H1610 0.931 . S
C1626 C1620 1.383 . S
C1626 C1625 1.379 . S
H1627 C1621 0.959 . S
H1628 C1621 0.961 . S
H1629 C1621 0.960 . S
H1630 C1622 0.930 . S
H1631 C1623 0.929 . S
H1632 C1640 0.929 . S
H1633 C1642 0.930 . S
H1634 C1644 0.930 . S
H1635 C1647 0.929 . S
H1636 C1650 0.930 . S
H1637 C1652 0.960 . S
H1638 C1652 0.960 . S
H1639 C1652 0.960 . S
C1640 H1632 0.929 . S
C1640 C1641 1.377 . S
C1640 C1642 1.384 . S
C1641 C1640 1.377 . S
C1641 C1647 1.390 . S
C1642 H1633 0.930 . S
C1642 C1640 1.384 . S
C1642 C1643 1.372 . S
C1643 C1642 1.372 . S
C1643 C1644 1.400 . S
C1643 C1648 1.490 . S
C1644 H1634 0.930 . S
C1644 C1643 1.400 . S
C1644 C1647 1.386 . S
H1645 C1661 0.930 . S
H1646 C1662 0.931 . S
C1647 H1635 0.929 . S
C1647 C1641 1.390 . S
C1647 C1644 1.386 . S
C1648 C1643 1.490 . S
C1648 C1650 1.395 . S
C1648 C1651 1.403 . S
H1649 C1655 0.930 . S
C1650 H1636 0.930 . S
C1650 C1648 1.395 . S
C1650 C1653 1.403 1_556 S
C1651 C1648 1.403 . S
C1651 C1652 1.524 . S
C1651 C1655 1.400 1_556 S
C1652 H1637 0.960 . S
C1652 H1638 0.960 . S
C1652 H1639 0.960 . S
C1652 C1651 1.524 . S
C1653 C1650 1.403 1_554 S
C1653 C1654 1.392 . S
C1653 C1657 1.495 . S
C1654 C1653 1.392 . S
C1654 C1655 1.385 . S
C1654 C1656 1.478 . S
C1655 H1649 0.930 . S
C1655 C1651 1.400 1_554 S
C1655 C1654 1.385 . S
C1656 C1654 1.478 . S
C1656 C1658 1.381 . S
C1656 C1662 1.383 . S
C1657 C1653 1.495 . S
C1657 H1663 0.959 . S
C1657 H1664 0.961 . S
C1657 H1665 0.960 . S
C1658 C1656 1.381 . S
C1658 C1659 1.394 . S
C1658 H1666 0.930 . S
C1659 C1658 1.394 . S
C1659 C1660 1.383 . S
C1659 H1667 0.929 . S
C1660 C1659 1.383 . S
C1660 C1661 1.377 . S
C1661 H1645 0.930 . S
C1661 C1660 1.377 . S
C1661 C1662 1.379 . S
C1662 H1646 0.931 . S
C1662 C1656 1.383 . S
C1662 C1661 1.379 . S
H1663 C1657 0.959 . S
H1664 C1657 0.961 . S
H1665 C1657 0.960 . S
H1666 C1658 0.930 . S
H1667 C1659 0.929 . S
H1668 C1676 0.929 . S
H1669 C1678 0.930 1_545 S
H1670 C1680 0.930 . S
H1671 C1683 0.929 . S
H1672 C1686 0.930 . S
H1673 C1688 0.960 . S
H1674 C1688 0.960 . S
H1675 C1688 0.960 . S
C1676 H1668 0.929 . S
C1676 C1677 1.377 . S
C1676 C1678 1.384 . S
C1677 C1676 1.377 . S
C1677 C1683 1.390 . S
C1678 H1669 0.930 1_565 S
C1678 C1676 1.384 . S
C1678 C1679 1.372 . S
C1679 C1678 1.372 . S
C1679 C1680 1.400 . S
C1679 C1684 1.490 . S
C1680 H1670 0.930 . S
C1680 C1679 1.400 . S
C1680 C1683 1.386 . S
H1681 C1697 0.937 . S
H1682 C1698 0.931 . S
C1683 H1671 0.929 . S
C1683 C1677 1.390 . S
C1683 C1680 1.386 . S
C1684 C1679 1.490 . S
C1684 C1686 1.395 . S
C1684 C1687 1.403 1_565 S
H1685 C1691 0.930 . S
C1686 H1672 0.930 . S
C1686 C1684 1.395 . S
C1686 C1689 1.403 . S
C1687 C1684 1.403 1_545 S
C1687 C1688 1.524 . S
C1687 C1691 1.400 . S
C1688 H1673 0.960 . S
C1688 H1674 0.960 . S
C1688 H1675 0.960 . S
C1688 C1687 1.524 . S
C1689 C1686 1.403 . S
C1689 C1690 1.392 . S
C1689 C1693 1.495 . S
C1690 C1689 1.392 . S
C1690 C1691 1.385 1_565 S
C1690 C1692 1.475 1_565 S
C1691 H1685 0.930 . S
C1691 C1687 1.400 . S
C1691 C1690 1.385 1_545 S
C1692 C1690 1.475 1_545 S
C1692 C1694 1.394 . S
C1692 C1698 1.376 1_545 S
C1693 C1689 1.495 . S
C1693 H1699 0.959 . S
C1693 H1700 0.961 . S
C1693 H1701 0.960 . S
C1694 C1692 1.394 . S
C1694 C1695 1.394 . S
C1694 H1702 0.930 . S
C1695 C1694 1.394 . S
C1695 C1696 1.383 . S
C1695 H1703 0.929 . S
C1696 C1695 1.383 . S
C1696 C1697 1.366 1_545 S
C1697 H1681 0.937 . S
C1697 C1696 1.366 1_565 S
C1697 C1698 1.385 . S
C1698 H1682 0.931 . S
C1698 C1692 1.376 1_565 S
C1698 C1697 1.385 . S
H1699 C1693 0.959 . S
H1700 C1693 0.961 . S
H1701 C1693 0.960 . S
H1702 C1694 0.930 . S
H1703 C1695 0.929 . S
H1704 C1712 0.929 . S
H1705 C1714 0.930 . S
H1706 C1716 0.930 . S
H1707 C1719 0.929 . S
H1708 C1722 0.930 . S
H1709 C1724 0.960 . S
H1710 C1724 0.960 . S
H1711 C1724 0.960 . S
C1712 H1704 0.929 . S
C1712 C1713 1.377 . S
C1712 C1714 1.384 . S
C1713 C1712 1.377 . S
C1713 C1719 1.390 . S
C1714 H1705 0.930 . S
C1714 C1712 1.384 . S
C1714 C1715 1.372 . S
C1715 C1714 1.372 . S
C1715 C1716 1.400 . S
C1715 C1720 1.490 . S
C1716 H1706 0.930 . S
C1716 C1715 1.400 . S
C1716 C1719 1.386 . S
H1717 C1733 0.930 . S
H1718 C1734 0.931 . S
C1719 H1707 0.929 . S
C1719 C1713 1.390 . S
C1719 C1716 1.386 . S
C1720 C1715 1.490 . S
C1720 C1722 1.395 . S
C1720 C1723 1.403 . S
H1721 C1727 0.930 . S
C1722 H1708 0.930 . S
C1722 C1720 1.395 . S
C1722 C1725 1.403 . S
C1723 C1720 1.403 . S
C1723 C1724 1.524 . S
C1723 C1727 1.400 . S
C1724 H1709 0.960 . S
C1724 H1710 0.960 . S
C1724 H1711 0.960 . S
C1724 C1723 1.524 . S
C1725 C1722 1.403 . S
C1725 C1726 1.392 . S
C1725 C1729 1.495 . S
C1726 C1725 1.392 . S
C1726 C1727 1.385 . S
C1726 C1728 1.478 . S
C1727 H1721 0.930 . S
C1727 C1723 1.400 . S
C1727 C1726 1.385 . S
C1728 C1726 1.478 . S
C1728 C1730 1.381 . S
C1728 C1734 1.383 . S
C1729 C1725 1.495 . S
C1729 H1735 0.959 . S
C1729 H1736 0.961 . S
C1729 H1737 0.960 . S
C1730 C1728 1.381 . S
C1730 C1731 1.394 . S
C1730 H1738 0.930 . S
C1731 C1730 1.394 . S
C1731 C1732 1.383 . S
C1731 H1739 0.929 . S
C1732 C1731 1.383 . S
C1732 C1733 1.377 . S
C1733 H1717 0.930 . S
C1733 C1732 1.377 . S
C1733 C1734 1.379 . S
C1734 H1718 0.931 . S
C1734 C1728 1.383 . S
C1734 C1733 1.379 . S
H1735 C1729 0.959 . S
H1736 C1729 0.961 . S
H1737 C1729 0.960 . S
H1738 C1730 0.930 . S
H1739 C1731 0.929 . S
H1740 C1748 0.929 . S
H1741 C1750 0.930 . S
H1742 C1752 0.930 . S
H1743 C1755 0.929 . S
H1744 C1758 0.930 . S
H1745 C1760 0.960 . S
H1746 C1760 0.960 . S
H1747 C1760 0.960 . S
C1748 H1740 0.929 . S
C1748 C1749 1.377 . S
C1748 C1750 1.384 . S
C1749 C1748 1.377 . S
C1749 C1755 1.390 . S
C1750 H1741 0.930 . S
C1750 C1748 1.384 . S
C1750 C1751 1.372 . S
C1751 C1750 1.372 . S
C1751 C1752 1.400 . S
C1751 C1756 1.490 . S
C1752 H1742 0.930 . S
C1752 C1751 1.400 . S
C1752 C1755 1.386 . S
H1753 C1769 0.930 . S
H1754 C1770 0.931 . S
C1755 H1743 0.929 . S
C1755 C1749 1.390 . S
C1755 C1752 1.386 . S
C1756 C1751 1.490 . S
C1756 C1758 1.395 1_545 S
C1756 C1759 1.403 . S
H1757 C1763 0.930 . S
C1758 H1744 0.930 . S
C1758 C1756 1.395 1_565 S
C1758 C1761 1.403 . S
C1759 C1756 1.403 . S
C1759 C1760 1.524 . S
C1759 C1763 1.400 . S
C1760 H1745 0.960 . S
C1760 H1746 0.960 . S
C1760 H1747 0.960 . S
C1760 C1759 1.524 . S
C1761 C1758 1.403 . S
C1761 C1762 1.392 . S
C1761 C1765 1.495 . S
C1762 C1761 1.392 . S
C1762 C1763 1.385 1_565 S
C1762 C1764 1.478 . S
C1763 H1757 0.930 . S
C1763 C1759 1.400 . S
C1763 C1762 1.385 1_545 S
C1764 C1762 1.478 . S
C1764 C1766 1.381 . S
C1764 C1770 1.383 . S
C1765 C1761 1.495 . S
C1765 H1771 0.959 . S
C1765 H1772 0.961 . S
C1765 H1773 0.960 . S
C1766 C1764 1.381 . S
C1766 C1767 1.394 . S
C1766 H1774 0.930 . S
C1767 C1766 1.394 . S
C1767 C1768 1.383 . S
C1767 H1775 0.929 . S
C1768 C1767 1.383 . S
C1768 C1769 1.377 . S
C1769 H1753 0.930 . S
C1769 C1768 1.377 . S
C1769 C1770 1.379 . S
C1770 H1754 0.931 . S
C1770 C1764 1.383 . S
C1770 C1769 1.379 . S
H1771 C1765 0.959 . S
H1772 C1765 0.961 . S
H1773 C1765 0.960 . S
H1774 C1766 0.930 . S
H1775 C1767 0.929 . S
H1776 C1784 0.929 . S
H1777 C1786 0.930 . S
H1778 C1788 0.930 . S
H1779 C1791 0.929 . S
H1780 C1794 0.930 . S
H1781 C1796 0.960 . S
H1782 C1796 0.960 . S
H1783 C1796 0.960 . S
C1784 H1776 0.929 . S
C1784 C1785 1.377 . S
C1784 C1786 1.384 . S
C1785 C1784 1.377 . S
C1785 C1791 1.390 . S
C1786 H1777 0.930 . S
C1786 C1784 1.384 . S
C1786 C1787 1.372 . S
C1787 C1786 1.372 . S
C1787 C1788 1.400 . S
C1787 C1792 1.490 . S
C1788 H1778 0.930 . S
C1788 C1787 1.400 . S
C1788 C1791 1.386 . S
H1789 C1805 0.930 . S
H1790 C1806 0.931 . S
C1791 H1779 0.929 . S
C1791 C1785 1.390 . S
C1791 C1788 1.386 . S
C1792 C1787 1.490 . S
C1792 C1794 1.395 . S
C1792 C1795 1.403 . S
H1793 C1799 0.930 . S
C1794 H1780 0.930 . S
C1794 C1792 1.395 . S
C1794 C1797 1.403 1_556 S
C1795 C1792 1.403 . S
C1795 C1796 1.524 . S
C1795 C1799 1.400 1_556 S
C1796 H1781 0.960 . S
C1796 H1782 0.960 . S
C1796 H1783 0.960 . S
C1796 C1795 1.524 . S
C1797 C1794 1.403 1_554 S
C1797 C1798 1.392 . S
C1797 C1801 1.495 . S
C1798 C1797 1.392 . S
C1798 C1799 1.385 . S
C1798 C1800 1.478 . S
C1799 H1793 0.930 . S
C1799 C1795 1.400 1_554 S
C1799 C1798 1.385 . S
C1800 C1798 1.478 . S
C1800 C1802 1.381 . S
C1800 C1806 1.383 . S
C1801 C1797 1.495 . S
C1801 H1807 0.959 . S
C1801 H1808 0.961 . S
C1801 H1809 0.960 . S
C1802 C1800 1.381 . S
C1802 C1803 1.394 . S
C1802 H1810 0.930 . S
C1803 C1802 1.394 . S
C1803 C1804 1.383 . S
C1803 H1811 0.929 . S
C1804 C1803 1.383 . S
C1804 C1805 1.377 . S
C1805 H1789 0.930 . S
C1805 C1804 1.377 . S
C1805 C1806 1.379 . S
C1806 H1790 0.931 . S
C1806 C1800 1.383 . S
C1806 C1805 1.379 . S
H1807 C1801 0.959 . S
H1808 C1801 0.961 . S
H1809 C1801 0.960 . S
H1810 C1802 0.930 . S
H1811 C1803 0.929 . S
H1812 C1820 0.929 . S
H1813 C1822 0.930 . S
H1814 C1824 0.930 . S
H1815 C1827 0.929 . S
H1816 C1830 0.930 . S
H1817 C1832 0.960 . S
H1818 C1832 0.960 . S
H1819 C1832 0.960 . S
C1820 H1812 0.929 . S
C1820 C1821 1.377 . S
C1820 C1822 1.384 . S
C1821 C1820 1.377 . S
C1821 C1827 1.390 1_565 S
C1822 H1813 0.930 . S
C1822 C1820 1.384 . S
C1822 C1823 1.372 . S
C1823 C1822 1.372 . S
C1823 C1824 1.400 1_565 S
C1823 C1828 1.490 . S
C1824 H1814 0.930 . S
C1824 C1823 1.400 1_545 S
C1824 C1827 1.386 . S
H1825 C1841 0.930 . S
H1826 C1842 0.931 . S
C1827 H1815 0.929 . S
C1827 C1821 1.390 1_545 S
C1827 C1824 1.386 . S
C1828 C1823 1.490 . S
C1828 C1830 1.395 . S
C1828 C1831 1.403 1_565 S
H1829 C1835 0.930 . S
C1830 H1816 0.930 . S
C1830 C1828 1.395 . S
C1830 C1833 1.403 . S
C1831 C1828 1.403 1_545 S
C1831 C1832 1.524 . S
C1831 C1835 1.400 . S
C1832 H1817 0.960 . S
C1832 H1818 0.960 . S
C1832 H1819 0.960 . S
C1832 C1831 1.524 . S
C1833 C1830 1.403 . S
C1833 C1834 1.392 . S
C1833 C1837 1.495 . S
C1834 C1833 1.392 . S
C1834 C1835 1.385 1_565 S
C1834 C1836 1.478 1_565 S
C1835 H1829 0.930 . S
C1835 C1831 1.400 . S
C1835 C1834 1.385 1_545 S
C1836 C1834 1.478 1_545 S
C1836 C1838 1.381 1_545 S
C1836 C1842 1.383 . S
C1837 C1833 1.495 . S
C1837 H1843 0.959 . S
C1837 H1844 0.961 . S
C1837 H1845 0.960 . S
C1838 C1836 1.381 1_565 S
C1838 C1839 1.394 . S
C1838 H1846 0.930 . S
C1839 C1838 1.394 . S
C1839 C1840 1.383 1_565 S
C1839 H1847 0.929 . S
C1840 C1839 1.383 1_545 S
C1840 C1841 1.377 . S
C1841 H1825 0.930 . S
C1841 C1840 1.377 . S
C1841 C1842 1.379 . S
C1842 H1826 0.931 . S
C1842 C1836 1.383 . S
C1842 C1841 1.379 . S
H1843 C1837 0.959 . S
H1844 C1837 0.961 . S
H1845 C1837 0.960 . S
H1846 C1838 0.930 . S
H1847 C1839 0.929 . S
H1848 C1856 0.929 . S
H1849 C1858 0.930 . S
H1850 C1860 0.930 . S
H1851 C1863 0.929 . S
H1852 C1866 0.930 . S
H1853 C1868 0.960 . S
H1854 C1868 0.960 . S
H1855 C1868 0.960 . S
C1856 H1848 0.929 . S
C1856 C1857 1.377 . S
C1856 C1858 1.384 . S
C1857 C1856 1.377 . S
C1857 C1863 1.390 . S
C1858 H1849 0.930 . S
C1858 C1856 1.384 . S
C1858 C1859 1.372 . S
C1859 C1858 1.372 . S
C1859 C1860 1.400 . S
C1859 C1864 1.490 . S
C1860 H1850 0.930 . S
C1860 C1859 1.400 . S
C1860 C1863 1.386 . S
H1861 C1877 0.930 . S
H1862 C1878 0.931 . S
C1863 H1851 0.929 . S
C1863 C1857 1.390 . S
C1863 C1860 1.386 . S
C1864 C1859 1.490 . S
C1864 C1866 1.395 . S
C1864 C1867 1.403 . S
H1865 C1871 0.930 . S
C1866 H1852 0.930 . S
C1866 C1864 1.395 . S
C1866 C1869 1.403 . S
C1867 C1864 1.403 . S
C1867 C1868 1.524 . S
C1867 C1871 1.400 . S
C1868 H1853 0.960 . S
C1868 H1854 0.960 . S
C1868 H1855 0.960 . S
C1868 C1867 1.524 . S
C1869 C1866 1.403 . S
C1869 C1870 1.392 . S
C1869 C1873 1.495 . S
C1870 C1869 1.392 . S
C1870 C1871 1.385 . S
C1870 C1872 1.478 . S
C1871 H1865 0.930 . S
C1871 C1867 1.400 . S
C1871 C1870 1.385 . S
C1872 C1870 1.478 . S
C1872 C1874 1.381 . S
C1872 C1878 1.383 . S
C1873 C1869 1.495 . S
C1873 H1879 0.959 . S
C1873 H1880 0.961 . S
C1873 H1881 0.960 . S
C1874 C1872 1.381 . S
C1874 C1875 1.394 . S
C1874 H1882 0.930 . S
C1875 C1874 1.394 . S
C1875 C1876 1.383 . S
C1875 H1883 0.929 . S
C1876 C1875 1.383 . S
C1876 C1877 1.377 . S
C1877 H1861 0.930 . S
C1877 C1876 1.377 . S
C1877 C1878 1.379 . S
C1878 H1862 0.931 . S
C1878 C1872 1.383 . S
C1878 C1877 1.379 . S
H1879 C1873 0.959 . S
H1880 C1873 0.961 . S
H1881 C1873 0.960 . S
H1882 C1874 0.930 . S
H1883 C1875 0.929 . S
H1884 C1892 0.929 . S
H1885 C1894 0.930 . S
H1886 C1896 0.930 . S
H1887 C1899 0.929 . S
H1888 C1902 0.930 . S
H1889 C1904 0.960 . S
H1890 C1904 0.960 . S
H1891 C1904 0.960 . S
C1892 H1884 0.929 . S
C1892 C1893 1.377 1_565 S
C1892 C1894 1.384 . S
C1893 C1892 1.377 1_545 S
C1893 C1899 1.390 . S
C1894 H1885 0.930 . S
C1894 C1892 1.384 . S
C1894 C1895 1.372 1_565 S
C1895 C1894 1.372 1_545 S
C1895 C1896 1.400 . S
C1895 C1900 1.492 . S
C1896 H1886 0.930 . S
C1896 C1895 1.400 . S
C1896 C1899 1.386 . S
H1897 C1913 0.930 . S
H1898 C1914 0.931 . S
C1899 H1887 0.929 . S
C1899 C1893 1.390 . S
C1899 C1896 1.386 . S
C1900 C1895 1.492 . S
C1900 C1902 1.379 1_545 S
C1900 C1903 1.416 . S
H1901 C1907 0.930 . S
C1902 H1888 0.930 . S
C1902 C1900 1.379 1_565 S
C1902 C1905 1.403 . S
C1903 C1900 1.416 . S
C1903 C1904 1.524 . S
C1903 C1907 1.400 . S
C1904 H1889 0.960 . S
C1904 H1890 0.960 . S
C1904 H1891 0.960 . S
C1904 C1903 1.524 . S
C1905 C1902 1.403 . S
C1905 C1906 1.392 . S
C1905 C1909 1.495 . S
C1906 C1905 1.392 . S
C1906 C1907 1.385 1_565 S
C1906 C1908 1.478 . S
C1907 H1901 0.930 . S
C1907 C1903 1.400 . S
C1907 C1906 1.385 1_545 S
C1908 C1906 1.478 . S
C1908 C1910 1.381 . S
C1908 C1914 1.383 1_565 S
C1909 C1905 1.495 . S
C1909 H1915 0.959 . S
C1909 H1916 0.961 . S
C1909 H1917 0.960 . S
C1910 C1908 1.381 . S
C1910 C1911 1.394 . S
C1910 H1918 0.930 . S
C1911 C1910 1.394 . S
C1911 C1912 1.383 . S
C1911 H1919 0.929 . S
C1912 C1911 1.383 . S
C1912 C1913 1.377 1_565 S
C1913 H1897 0.930 . S
C1913 C1912 1.377 1_545 S
C1913 C1914 1.379 . S
C1914 H1898 0.931 . S
C1914 C1908 1.383 1_545 S
C1914 C1913 1.379 . S
H1915 C1909 0.959 . S
H1916 C1909 0.961 . S
H1917 C1909 0.960 . S
H1918 C1910 0.930 . S
H1919 C1911 0.929 . S
H1920 C1928 0.929 . S
H1921 C1930 0.930 . S
H1922 C1932 0.930 . S
H1923 C1935 0.929 . S
H1924 C1938 0.930 . S
H1925 C1940 0.960 . S
H1926 C1940 0.960 . S
H1927 C1940 0.960 . S
C1928 H1920 0.929 . S
C1928 C1929 1.377 . S
C1928 C1930 1.384 . S
C1929 C1928 1.377 . S
C1929 C1935 1.390 . S
C1930 H1921 0.930 . S
C1930 C1928 1.384 . S
C1930 C1931 1.372 . S
C1931 C1930 1.372 . S
C1931 C1932 1.400 . S
C1931 C1936 1.490 . S
C1932 H1922 0.930 . S
C1932 C1931 1.400 . S
C1932 C1935 1.386 . S
H1933 C1949 0.930 . S
H1934 C1950 0.931 . S
C1935 H1923 0.929 . S
C1935 C1929 1.390 . S
C1935 C1932 1.386 . S
C1936 C1931 1.490 . S
C1936 C1938 1.395 . S
C1936 C1939 1.403 . S
H1937 C1943 0.930 . S
C1938 H1924 0.930 . S
C1938 C1936 1.395 . S
C1938 C1941 1.403 . S
C1939 C1936 1.403 . S
C1939 C1940 1.524 . S
C1939 C1943 1.400 . S
C1940 H1925 0.960 . S
C1940 H1926 0.960 . S
C1940 H1927 0.960 . S
C1940 C1939 1.524 . S
C1941 C1938 1.403 . S
C1941 C1942 1.392 . S
C1941 C1945 1.495 . S
C1942 C1941 1.392 . S
C1942 C1943 1.385 . S
C1942 C1944 1.478 . S
C1943 H1937 0.930 . S
C1943 C1939 1.400 . S
C1943 C1942 1.385 . S
C1944 C1942 1.478 . S
C1944 C1946 1.381 . S
C1944 C1950 1.383 . S
C1945 C1941 1.495 . S
C1945 H1951 0.959 . S
C1945 H1952 0.961 . S
C1945 H1953 0.960 . S
C1946 C1944 1.381 . S
C1946 C1947 1.394 . S
C1946 H1954 0.930 . S
C1947 C1946 1.394 . S
C1947 C1948 1.383 . S
C1947 H1955 0.929 . S
C1948 C1947 1.383 . S
C1948 C1949 1.377 . S
C1949 H1933 0.930 . S
C1949 C1948 1.377 . S
C1949 C1950 1.379 . S
C1950 H1934 0.931 . S
C1950 C1944 1.383 . S
C1950 C1949 1.379 . S
H1951 C1945 0.959 . S
H1952 C1945 0.961 . S
H1953 C1945 0.960 . S
H1954 C1946 0.930 . S
H1955 C1947 0.929 . S
H1956 C1964 0.929 . S
H1957 C1966 0.930 . S
H1958 C1968 0.930 . S
H1959 C1971 0.929 . S
H1960 C1974 0.930 . S
H1961 C1976 0.960 . S
H1962 C1976 0.960 . S
H1963 C1976 0.960 . S
C1964 H1956 0.929 . S
C1964 C1965 1.377 . S
C1964 C1966 1.384 . S
C1965 C1964 1.377 . S
C1965 C1971 1.390 . S
C1966 H1957 0.930 . S
C1966 C1964 1.384 . S
C1966 C1967 1.372 . S
C1967 C1966 1.372 . S
C1967 C1968 1.400 . S
C1967 C1972 1.490 . S
C1968 H1958 0.930 . S
C1968 C1967 1.400 . S
C1968 C1971 1.386 . S
H1969 C1985 0.930 . S
H1970 C1986 0.931 . S
C1971 H1959 0.929 . S
C1971 C1965 1.390 . S
C1971 C1968 1.386 . S
C1972 C1967 1.490 . S
C1972 C1974 1.395 . S
C1972 C1975 1.403 . S
H1973 C1979 0.930 . S
C1974 H1960 0.930 . S
C1974 C1972 1.395 . S
C1974 C1977 1.403 . S
C1975 C1972 1.403 . S
C1975 C1976 1.524 . S
C1975 C1979 1.400 . S
C1976 H1961 0.960 . S
C1976 H1962 0.960 . S
C1976 H1963 0.960 . S
C1976 C1975 1.524 . S
C1977 C1974 1.403 . S
C1977 C1978 1.392 . S
C1977 C1981 1.495 . S
C1978 C1977 1.392 . S
C1978 C1979 1.385 . S
C1978 C1980 1.478 . S
C1979 H1973 0.930 . S
C1979 C1975 1.400 . S
C1979 C1978 1.385 . S
C1980 C1978 1.478 . S
C1980 C1982 1.381 . S
C1980 C1986 1.383 . S
C1981 C1977 1.495 . S
C1981 H1987 0.959 . S
C1981 H1988 0.961 . S
C1981 H1989 0.960 . S
C1982 C1980 1.381 . S
C1982 C1983 1.394 . S
C1982 H1990 0.930 . S
C1983 C1982 1.394 . S
C1983 C1984 1.383 . S
C1983 H1991 0.929 . S
C1984 C1983 1.383 . S
C1984 C1985 1.377 . S
C1985 H1969 0.930 . S
C1985 C1984 1.377 . S
C1985 C1986 1.379 . S
C1986 H1970 0.931 . S
C1986 C1980 1.383 . S
C1986 C1985 1.379 . S
H1987 C1981 0.959 . S
H1988 C1981 0.961 . S
H1989 C1981 0.960 . S
H1990 C1982 0.930 . S
H1991 C1983 0.929 . S
H1992 C2000 0.929 . S
H1993 C2002 0.930 . S
H1994 C2004 0.930 . S
H1995 C2007 0.929 . S
H1996 C2010 0.930 . S
H1997 C2012 0.960 . S
H1998 C2012 0.960 . S
H1999 C2012 0.960 . S
C2000 H1992 0.929 . S
C2000 C2001 1.377 . S
C2000 C2002 1.384 . S
C2001 C2000 1.377 . S
C2001 C2007 1.390 . S
C2002 H1993 0.930 . S
C2002 C2000 1.384 . S
C2002 C2003 1.372 . S
C2003 C2002 1.372 . S
C2003 C2004 1.400 . S
C2003 C2008 1.490 . S
C2004 H1994 0.930 . S
C2004 C2003 1.400 . S
C2004 C2007 1.386 . S
H2005 C2021 0.930 . S
H2006 C2022 0.931 . S
C2007 H1995 0.929 . S
C2007 C2001 1.390 . S
C2007 C2004 1.386 . S
C2008 C2003 1.490 . S
C2008 C2010 1.395 . S
C2008 C2011 1.403 . S
H2009 C2015 0.930 . S
C2010 H1996 0.930 . S
C2010 C2008 1.395 . S
C2010 C2013 1.403 1_556 S
C2011 C2008 1.403 . S
C2011 C2012 1.524 . S
C2011 C2015 1.400 1_556 S
C2012 H1997 0.960 . S
C2012 H1998 0.960 . S
C2012 H1999 0.960 . S
C2012 C2011 1.524 . S
C2013 C2010 1.403 1_554 S
C2013 C2014 1.392 . S
C2013 C2017 1.495 . S
C2014 C2013 1.392 . S
C2014 C2015 1.385 . S
C2014 C2016 1.478 . S
C2015 H2009 0.930 . S
C2015 C2011 1.400 1_554 S
C2015 C2014 1.385 . S
C2016 C2014 1.478 . S
C2016 C2018 1.381 . S
C2016 C2022 1.383 . S
C2017 C2013 1.495 . S
C2017 H2023 0.959 . S
C2017 H2024 0.961 . S
C2017 H2025 0.960 . S
C2018 C2016 1.381 . S
C2018 C2019 1.394 . S
C2018 H2026 0.930 . S
C2019 C2018 1.394 . S
C2019 C2020 1.383 . S
C2019 H2027 0.929 . S
C2020 C2019 1.383 . S
C2020 C2021 1.377 . S
C2021 H2005 0.930 . S
C2021 C2020 1.377 . S
C2021 C2022 1.379 . S
C2022 H2006 0.931 . S
C2022 C2016 1.383 . S
C2022 C2021 1.379 . S
H2023 C2017 0.959 . S
H2024 C2017 0.961 . S
H2025 C2017 0.960 . S
H2026 C2018 0.930 . S
H2027 C2019 0.929 . S
H2028 C2036 0.929 . S
H2029 C2038 0.930 . S
H2030 C2040 0.930 . S
H2031 C2043 0.929 . S
H2032 C2046 0.930 . S
H2033 C2048 0.960 . S
H2034 C2048 0.960 . S
H2035 C2048 0.960 . S
C2036 H2028 0.929 . S
C2036 C2037 1.377 . S
C2036 C2038 1.384 . S
C2037 C2036 1.377 . S
C2037 C2043 1.390 . S
C2038 H2029 0.930 . S
C2038 C2036 1.384 . S
C2038 C2039 1.372 . S
C2039 C2038 1.372 . S
C2039 C2040 1.400 . S
C2039 C2044 1.490 . S
C2040 H2030 0.930 . S
C2040 C2039 1.400 . S
C2040 C2043 1.386 . S
H2041 C2057 0.930 . S
H2042 C2058 0.931 . S
C2043 H2031 0.929 . S
C2043 C2037 1.390 . S
C2043 C2040 1.386 . S
C2044 C2039 1.490 . S
C2044 C2046 1.395 . S
C2044 C2047 1.403 . S
H2045 C2051 0.930 . S
C2046 H2032 0.930 . S
C2046 C2044 1.395 . S
C2046 C2049 1.403 . S
C2047 C2044 1.403 . S
C2047 C2048 1.524 . S
C2047 C2051 1.400 . S
C2048 H2033 0.960 . S
C2048 H2034 0.960 . S
C2048 H2035 0.960 . S
C2048 C2047 1.524 . S
C2049 C2046 1.403 . S
C2049 C2050 1.392 . S
C2049 C2053 1.495 . S
C2050 C2049 1.392 . S
C2050 C2051 1.385 . S
C2050 C2052 1.478 . S
C2051 H2045 0.930 . S
C2051 C2047 1.400 . S
C2051 C2050 1.385 . S
C2052 C2050 1.478 . S
C2052 C2054 1.381 . S
C2052 C2058 1.383 . S
C2053 C2049 1.495 . S
C2053 H2059 0.959 . S
C2053 H2060 0.961 . S
C2053 H2061 0.960 . S
C2054 C2052 1.381 . S
C2054 C2055 1.394 . S
C2054 H2062 0.930 . S
C2055 C2054 1.394 . S
C2055 C2056 1.383 . S
C2055 H2063 0.929 . S
C2056 C2055 1.383 . S
C2056 C2057 1.377 . S
C2057 H2041 0.930 . S
C2057 C2056 1.377 . S
C2057 C2058 1.379 . S
C2058 H2042 0.931 . S
C2058 C2052 1.383 . S
C2058 C2057 1.379 . S
H2059 C2053 0.959 . S
H2060 C2053 0.961 . S
H2061 C2053 0.960 . S
H2062 C2054 0.930 . S
H2063 C2055 0.929 . S
H2064 C2072 0.929 . S
H2065 C2074 0.930 . S
H2066 C2076 0.930 . S
H2067 C2079 0.929 . S
H2068 C2082 0.930 . S
H2069 C2084 0.960 . S
H2070 C2084 0.960 . S
H2071 C2084 0.960 . S
C2072 H2064 0.929 . S
C2072 C2073 1.377 . S
C2072 C2074 1.384 . S
C2073 C2072 1.377 . S
C2073 C2079 1.390 . S
C2074 H2065 0.930 . S
C2074 C2072 1.384 . S
C2074 C2075 1.372 . S
C2075 C2074 1.372 . S
C2075 C2076 1.400 . S
C2075 C2080 1.490 . S
C2076 H2066 0.930 . S
C2076 C2075 1.400 . S
C2076 C2079 1.386 . S
H2077 C2093 0.930 . S
H2078 C2094 0.931 . S
C2079 H2067 0.929 . S
C2079 C2073 1.390 . S
C2079 C2076 1.386 . S
C2080 C2075 1.490 . S
C2080 C2082 1.395 . S
C2080 C2083 1.403 . S
H2081 C2087 0.930 . S
C2082 H2068 0.930 . S
C2082 C2080 1.395 . S
C2082 C2085 1.403 . S
C2083 C2080 1.403 . S
C2083 C2084 1.524 . S
C2083 C2087 1.400 . S
C2084 H2069 0.960 . S
C2084 H2070 0.960 . S
C2084 H2071 0.960 . S
C2084 C2083 1.524 . S
C2085 C2082 1.403 . S
C2085 C2086 1.392 . S
C2085 C2089 1.495 . S
C2086 C2085 1.392 . S
C2086 C2087 1.385 . S
C2086 C2088 1.478 . S
C2087 H2081 0.930 . S
C2087 C2083 1.400 . S
C2087 C2086 1.385 . S
C2088 C2086 1.478 . S
C2088 C2090 1.381 . S
C2088 C2094 1.383 . S
C2089 C2085 1.495 . S
C2089 H2095 0.959 . S
C2089 H2096 0.961 . S
C2089 H2097 0.960 . S
C2090 C2088 1.381 . S
C2090 C2091 1.394 . S
C2090 H2098 0.930 . S
C2091 C2090 1.394 . S
C2091 C2092 1.383 . S
C2091 H2099 0.929 . S
C2092 C2091 1.383 . S
C2092 C2093 1.377 . S
C2093 H2077 0.930 . S
C2093 C2092 1.377 . S
C2093 C2094 1.379 . S
C2094 H2078 0.931 . S
C2094 C2088 1.383 . S
C2094 C2093 1.379 . S
H2095 C2089 0.959 . S
H2096 C2089 0.961 . S
H2097 C2089 0.960 . S
H2098 C2090 0.930 . S
H2099 C2091 0.929 . S
H2100 C2108 0.929 . S
H2101 C2110 0.930 . S
H2102 C2112 0.930 . S
H2103 C2115 0.929 . S
H2104 C2118 0.930 . S
H2105 C2120 0.960 . S
H2106 C2120 0.960 . S
H2107 C2120 0.960 . S
C2108 H2100 0.929 . S
C2108 C2109 1.377 . S
C2108 C2110 1.384 . S
C2109 C2108 1.377 . S
C2109 C2115 1.390 . S
C2110 H2101 0.930 . S
C2110 C2108 1.384 . S
C2110 C2111 1.372 . S
C2111 C2110 1.372 . S
C2111 C2112 1.400 . S
C2111 C2116 1.490 . S
C2112 H2102 0.930 . S
C2112 C2111 1.400 . S
C2112 C2115 1.386 . S
H2113 C2129 0.930 . S
H2114 C2130 0.931 . S
C2115 H2103 0.929 . S
C2115 C2109 1.390 . S
C2115 C2112 1.386 . S
C2116 C2111 1.490 . S
C2116 C2118 1.395 . S
C2116 C2119 1.403 . S
H2117 C2123 0.930 . S
C2118 H2104 0.930 . S
C2118 C2116 1.395 . S
C2118 C2121 1.403 . S
C2119 C2116 1.403 . S
C2119 C2120 1.524 . S
C2119 C2123 1.400 . S
C2120 H2105 0.960 . S
C2120 H2106 0.960 . S
C2120 H2107 0.960 . S
C2120 C2119 1.524 . S
C2121 C2118 1.403 . S
C2121 C2122 1.392 . S
C2121 C2125 1.495 . S
C2122 C2121 1.392 . S
C2122 C2123 1.385 . S
C2122 C2124 1.478 . S
C2123 H2117 0.930 . S
C2123 C2119 1.400 . S
C2123 C2122 1.385 . S
C2124 C2122 1.478 . S
C2124 C2126 1.381 . S
C2124 C2130 1.383 . S
C2125 C2121 1.495 . S
C2125 H2131 0.959 . S
C2125 H2132 0.961 . S
C2125 H2133 0.960 . S
C2126 C2124 1.381 . S
C2126 C2127 1.394 . S
C2126 H2134 0.930 . S
C2127 C2126 1.394 . S
C2127 C2128 1.383 . S
C2127 H2135 0.929 . S
C2128 C2127 1.383 . S
C2128 C2129 1.377 . S
C2129 H2113 0.930 . S
C2129 C2128 1.377 . S
C2129 C2130 1.379 . S
C2130 H2114 0.931 . S
C2130 C2124 1.383 . S
C2130 C2129 1.379 . S
H2131 C2125 0.959 . S
H2132 C2125 0.961 . S
H2133 C2125 0.960 . S
H2134 C2126 0.930 . S
H2135 C2127 0.929 . S
H2136 C2144 0.929 . S
H2137 C2146 0.930 . S
H2138 C2148 0.930 . S
H2139 C2151 0.929 . S
H2140 C2154 0.930 . S
H2141 C2156 0.960 . S
H2142 C2156 0.960 . S
H2143 C2156 0.960 . S
C2144 H2136 0.929 . S
C2144 C2145 1.377 . S
C2144 C2146 1.384 . S
C2145 C2144 1.377 . S
C2145 C2151 1.390 . S
C2146 H2137 0.930 . S
C2146 C2144 1.384 . S
C2146 C2147 1.372 . S
C2147 C2146 1.372 . S
C2147 C2148 1.400 . S
C2147 C2152 1.490 . S
C2148 H2138 0.930 . S
C2148 C2147 1.400 . S
C2148 C2151 1.386 . S
H2149 C2165 0.930 . S
H2150 C2166 0.931 . S
C2151 H2139 0.929 . S
C2151 C2145 1.390 . S
C2151 C2148 1.386 . S
C2152 C2147 1.490 . S
C2152 C2154 1.395 . S
C2152 C2155 1.403 . S
H2153 C2159 0.930 . S
C2154 H2140 0.930 . S
C2154 C2152 1.395 . S
C2154 C2157 1.403 1_554 S
C2155 C2152 1.403 . S
C2155 C2156 1.524 . S
C2155 C2159 1.400 1_554 S
C2156 H2141 0.960 . S
C2156 H2142 0.960 . S
C2156 H2143 0.960 . S
C2156 C2155 1.524 . S
C2157 C2154 1.403 1_556 S
C2157 C2158 1.392 . S
C2157 C2161 1.495 . S
C2158 C2157 1.392 . S
C2158 C2159 1.385 . S
C2158 C2160 1.478 . S
C2159 H2153 0.930 . S
C2159 C2155 1.400 1_556 S
C2159 C2158 1.385 . S
C2160 C2158 1.478 . S
C2160 C2162 1.381 . S
C2160 C2166 1.383 . S
C2161 C2157 1.495 . S
C2161 H2167 0.959 . S
C2161 H2168 0.961 . S
C2161 H2169 0.960 . S
C2162 C2160 1.381 . S
C2162 C2163 1.394 . S
C2162 H2170 0.930 . S
C2163 C2162 1.394 . S
C2163 C2164 1.383 . S
C2163 H2171 0.929 . S
C2164 C2163 1.383 . S
C2164 C2165 1.377 . S
C2165 H2149 0.930 . S
C2165 C2164 1.377 . S
C2165 C2166 1.379 . S
C2166 H2150 0.931 . S
C2166 C2160 1.383 . S
C2166 C2165 1.379 . S
H2167 C2161 0.959 . S
H2168 C2161 0.961 . S
H2169 C2161 0.960 . S
H2170 C2162 0.930 . S
H2171 C2163 0.929 . S
H2172 C2180 0.929 . S
H2173 C2182 0.930 . S
H2174 C2184 0.930 . S
H2175 C2187 0.929 . S
H2176 C2190 0.930 . S
H2177 C2192 0.960 . S
H2178 C2192 0.960 . S
H2179 C2192 0.960 . S
C2180 H2172 0.929 . S
C2180 C2181 1.377 . S
C2180 C2182 1.384 . S
C2181 C2180 1.377 . S
C2181 C2187 1.390 . S
C2182 H2173 0.930 . S
C2182 C2180 1.384 . S
C2182 C2183 1.372 . S
C2183 C2182 1.372 . S
C2183 C2184 1.400 . S
C2183 C2188 1.490 . S
C2184 H2174 0.930 . S
C2184 C2183 1.400 . S
C2184 C2187 1.386 . S
H2185 C2201 0.930 . S
H2186 C2202 0.931 . S
C2187 H2175 0.929 . S
C2187 C2181 1.390 . S
C2187 C2184 1.386 . S
C2188 C2183 1.490 . S
C2188 C2190 1.395 . S
C2188 C2191 1.403 . S
H2189 C2195 0.930 . S
C2190 H2176 0.930 . S
C2190 C2188 1.395 . S
C2190 C2193 1.403 . S
C2191 C2188 1.403 . S
C2191 C2192 1.524 . S
C2191 C2195 1.400 . S
C2192 H2177 0.960 . S
C2192 H2178 0.960 . S
C2192 H2179 0.960 . S
C2192 C2191 1.524 . S
C2193 C2190 1.403 . S
C2193 C2194 1.392 . S
C2193 C2197 1.495 . S
C2194 C2193 1.392 . S
C2194 C2195 1.385 . S
C2194 C2196 1.478 . S
C2195 H2189 0.930 . S
C2195 C2191 1.400 . S
C2195 C2194 1.385 . S
C2196 C2194 1.478 . S
C2196 C2198 1.381 . S
C2196 C2202 1.383 . S
C2197 C2193 1.495 . S
C2197 H2203 0.959 1_455 S
C2197 H2204 0.961 . S
C2197 H2205 0.960 . S
C2198 C2196 1.381 . S
C2198 C2199 1.394 . S
C2198 H2206 0.930 . S
C2199 C2198 1.394 . S
C2199 C2200 1.383 . S
C2199 H2207 0.929 . S
C2200 C2199 1.383 . S
C2200 C2201 1.377 . S
C2201 H2185 0.930 . S
C2201 C2200 1.377 . S
C2201 C2202 1.379 . S
C2202 H2186 0.931 . S
C2202 C2196 1.383 . S
C2202 C2201 1.379 . S
H2203 C2197 0.959 1_655 S
H2204 C2197 0.961 . S
H2205 C2197 0.960 . S
H2206 C2198 0.930 . S
H2207 C2199 0.929 . S
H2208 C2216 0.929 . S
H2209 C2218 0.930 . S
H2210 C2220 0.930 . S
H2211 C2223 0.929 . S
H2212 C2226 0.930 . S
H2213 C2228 0.960 . S
H2214 C2228 0.960 . S
H2215 C2228 0.960 . S
C2216 H2208 0.929 . S
C2216 C2217 1.377 . S
C2216 C2218 1.384 . S
C2217 C2216 1.377 . S
C2217 C2223 1.390 . S
C2218 H2209 0.930 . S
C2218 C2216 1.384 . S
C2218 C2219 1.372 . S
C2219 C2218 1.372 . S
C2219 C2220 1.400 . S
C2219 C2224 1.490 . S
C2220 H2210 0.930 . S
C2220 C2219 1.400 . S
C2220 C2223 1.386 . S
H2221 C2237 0.930 . S
H2222 C2238 0.911 1_565 S
C2223 H2211 0.929 . S
C2223 C2217 1.390 . S
C2223 C2220 1.386 . S
C2224 C2219 1.490 . S
C2224 C2226 1.395 . S
C2224 C2227 1.403 . S
H2225 C2231 0.930 . S
C2226 H2212 0.930 . S
C2226 C2224 1.395 . S
C2226 C2229 1.403 . S
C2227 C2224 1.403 . S
C2227 C2228 1.524 . S
C2227 C2231 1.400 . S
C2228 H2213 0.960 . S
C2228 H2214 0.960 . S
C2228 H2215 0.960 . S
C2228 C2227 1.524 . S
C2229 C2226 1.403 . S
C2229 C2230 1.392 . S
C2229 C2233 1.495 . S
C2230 C2229 1.392 . S
C2230 C2231 1.385 . S
C2230 C2232 1.478 . S
C2231 H2225 0.930 . S
C2231 C2227 1.400 . S
C2231 C2230 1.385 . S
C2232 C2230 1.478 . S
C2232 C2234 1.381 1_565 S
C2232 C2238 1.374 1_565 S
C2233 C2229 1.495 . S
C2233 H2239 0.959 . S
C2233 H2240 0.961 . S
C2233 H2241 0.960 . S
C2234 C2232 1.381 1_545 S
C2234 C2235 1.394 . S
C2234 H2242 0.930 . S
C2235 C2234 1.394 . S
C2235 C2236 1.383 . S
C2235 H2243 0.929 . S
C2236 C2235 1.383 . S
C2236 C2237 1.377 . S
C2237 H2221 0.930 . S
C2237 C2236 1.377 . S
C2237 C2238 1.409 . S
C2238 H2222 0.911 1_545 S
C2238 C2232 1.374 1_545 S
C2238 C2237 1.409 . S
H2239 C2233 0.959 . S
H2240 C2233 0.961 . S
H2241 C2233 0.960 . S
H2242 C2234 0.930 . S
H2243 C2235 0.929 . S
H2244 C2252 0.929 . S
H2245 C2254 0.946 . S
H2246 C2256 0.930 . S
H2247 C2259 0.929 . S
H2248 C2262 0.930 . S
H2249 C2264 0.960 . S
H2250 C2264 0.960 . S
H2251 C2264 0.960 . S
C2252 H2244 0.929 . S
C2252 C2253 1.377 . S
C2252 C2254 1.376 1_565 S
C2253 C2252 1.377 . S
C2253 C2259 1.390 . S
C2254 H2245 0.946 . S
C2254 C2252 1.376 1_545 S
C2254 C2255 1.366 1_545 S
C2255 C2254 1.366 1_565 S
C2255 C2256 1.400 . S
C2255 C2260 1.490 1_565 S
C2256 H2246 0.930 . S
C2256 C2255 1.400 . S
C2256 C2259 1.386 . S
H2257 C2273 0.930 . S
H2258 C2274 0.931 . S
C2259 H2247 0.929 . S
C2259 C2253 1.390 . S
C2259 C2256 1.386 . S
C2260 C2255 1.490 1_545 S
C2260 C2262 1.395 . S
C2260 C2263 1.403 1_545 S
H2261 C2267 0.930 . S
C2262 H2248 0.930 . S
C2262 C2260 1.395 . S
C2262 C2265 1.403 . S
C2263 C2260 1.403 1_565 S
C2263 C2264 1.524 . S
C2263 C2267 1.400 . S
C2264 H2249 0.960 . S
C2264 H2250 0.960 . S
C2264 H2251 0.960 . S
C2264 C2263 1.524 . S
C2265 C2262 1.403 . S
C2265 C2266 1.392 . S
C2265 C2269 1.495 . S
C2266 C2265 1.392 . S
C2266 C2267 1.385 1_545 S
C2266 C2268 1.478 . S
C2267 H2261 0.930 . S
C2267 C2263 1.400 . S
C2267 C2266 1.385 1_565 S
C2268 C2266 1.478 . S
C2268 C2270 1.381 . S
C2268 C2274 1.383 . S
C2269 C2265 1.495 . S
C2269 H2275 0.959 . S
C2269 H2276 0.961 . S
C2269 H2277 0.960 . S
C2270 C2268 1.381 . S
C2270 C2271 1.394 . S
C2270 H2278 0.930 . S
C2271 C2270 1.394 . S
C2271 C2272 1.383 . S
C2271 H2279 0.929 . S
C2272 C2271 1.383 . S
C2272 C2273 1.377 . S
C2273 H2257 0.930 . S
C2273 C2272 1.377 . S
C2273 C2274 1.379 . S
C2274 H2258 0.931 . S
C2274 C2268 1.383 . S
C2274 C2273 1.379 . S
H2275 C2269 0.959 . S
H2276 C2269 0.961 . S
H2277 C2269 0.960 . S
H2278 C2270 0.930 . S
H2279 C2271 0.929 . S
H2280 C2288 0.929 . S
H2281 C2290 0.930 . S
H2282 C2292 0.930 . S
H2283 C2295 0.929 . S
H2284 C2298 0.930 . S
H2285 C2300 0.960 . S
H2286 C2300 0.960 . S
H2287 C2300 0.960 . S
C2288 H2280 0.929 . S
C2288 C2289 1.377 . S
C2288 C2290 1.384 . S
C2289 C2288 1.377 . S
C2289 C2295 1.390 . S
C2290 H2281 0.930 . S
C2290 C2288 1.384 . S
C2290 C2291 1.372 . S
C2291 C2290 1.372 . S
C2291 C2292 1.400 . S
C2291 C2296 1.490 . S
C2292 H2282 0.930 . S
C2292 C2291 1.400 . S
C2292 C2295 1.386 . S
H2293 C2309 0.930 . S
H2294 C2310 0.931 1_545 S
C2295 H2283 0.929 . S
C2295 C2289 1.390 . S
C2295 C2292 1.386 . S
C2296 C2291 1.490 . S
C2296 C2298 1.395 . S
C2296 C2299 1.403 . S
H2297 C2303 0.930 . S
C2298 H2284 0.930 . S
C2298 C2296 1.395 . S
C2298 C2301 1.403 . S
C2299 C2296 1.403 . S
C2299 C2300 1.524 . S
C2299 C2303 1.400 . S
C2300 H2285 0.960 . S
C2300 H2286 0.960 . S
C2300 H2287 0.960 . S
C2300 C2299 1.524 . S
C2301 C2298 1.403 . S
C2301 C2302 1.392 . S
C2301 C2305 1.495 . S
C2302 C2301 1.392 . S
C2302 C2303 1.385 . S
C2302 C2304 1.478 . S
C2303 H2297 0.930 . S
C2303 C2299 1.400 . S
C2303 C2302 1.385 . S
C2304 C2302 1.478 . S
C2304 C2306 1.381 1_545 S
C2304 C2310 1.383 1_545 S
C2305 C2301 1.495 . S
C2305 H2311 0.959 . S
C2305 H2312 0.961 . S
C2305 H2313 0.960 . S
C2306 C2304 1.381 1_565 S
C2306 C2307 1.394 . S
C2306 H2314 0.930 1_565 S
C2307 C2306 1.394 . S
C2307 C2308 1.383 . S
C2307 H2315 0.929 . S
C2308 C2307 1.383 . S
C2308 C2309 1.377 . S
C2309 H2293 0.930 . S
C2309 C2308 1.377 . S
C2309 C2310 1.379 . S
C2310 H2294 0.931 1_565 S
C2310 C2304 1.383 1_565 S
C2310 C2309 1.379 . S
H2311 C2305 0.959 . S
H2312 C2305 0.961 . S
H2313 C2305 0.960 . S
H2314 C2306 0.930 1_545 S
H2315 C2307 0.929 . S
H2316 C2324 0.929 . S
H2317 C2326 0.930 . S
H2318 C2328 0.930 . S
H2319 C2331 0.929 . S
H2320 C2334 0.930 . S
H2321 C2336 0.960 . S
H2322 C2336 0.960 . S
H2323 C2336 0.960 . S
C2324 H2316 0.929 . S
C2324 C2325 1.377 . S
C2324 C2326 1.384 . S
C2325 C2324 1.377 . S
C2325 C2331 1.390 . S
C2326 H2317 0.930 . S
C2326 C2324 1.384 . S
C2326 C2327 1.372 . S
C2327 C2326 1.372 . S
C2327 C2328 1.400 . S
C2327 C2332 1.490 . S
C2328 H2318 0.930 . S
C2328 C2327 1.400 . S
C2328 C2331 1.386 . S
H2329 C2345 0.930 . S
H2330 C2346 0.931 . S
C2331 H2319 0.929 . S
C2331 C2325 1.390 . S
C2331 C2328 1.386 . S
C2332 C2327 1.490 . S
C2332 C2334 1.395 1_565 S
C2332 C2335 1.403 . S
H2333 C2339 0.930 . S
C2334 H2320 0.930 . S
C2334 C2332 1.395 1_545 S
C2334 C2337 1.403 . S
C2335 C2332 1.403 . S
C2335 C2336 1.524 . S
C2335 C2339 1.400 . S
C2336 H2321 0.960 . S
C2336 H2322 0.960 . S
C2336 H2323 0.960 . S
C2336 C2335 1.524 . S
C2337 C2334 1.403 . S
C2337 C2338 1.392 . S
C2337 C2341 1.495 . S
C2338 C2337 1.392 . S
C2338 C2339 1.385 1_545 S
C2338 C2340 1.478 . S
C2339 H2333 0.930 . S
C2339 C2335 1.400 . S
C2339 C2338 1.385 1_565 S
C2340 C2338 1.478 . S
C2340 C2342 1.381 . S
C2340 C2346 1.383 . S
C2341 C2337 1.495 . S
C2341 H2347 0.959 . S
C2341 H2348 0.961 . S
C2341 H2349 0.960 . S
C2342 C2340 1.381 . S
C2342 C2343 1.394 . S
C2342 H2350 0.930 . S
C2343 C2342 1.394 . S
C2343 C2344 1.383 . S
C2343 H2351 0.929 . S
C2344 C2343 1.383 . S
C2344 C2345 1.377 . S
C2345 H2329 0.930 . S
C2345 C2344 1.377 . S
C2345 C2346 1.379 . S
C2346 H2330 0.931 . S
C2346 C2340 1.383 . S
C2346 C2345 1.379 . S
H2347 C2341 0.959 . S
H2348 C2341 0.961 . S
H2349 C2341 0.960 . S
H2350 C2342 0.930 . S
H2351 C2343 0.929 . S
H2352 C2360 0.929 . S
H2353 C2362 0.930 . S
H2354 C2364 0.930 . S
H2355 C2367 0.929 . S
H2356 C2370 0.930 . S
H2357 C2372 0.960 . S
H2358 C2372 0.960 . S
H2359 C2372 0.960 . S
C2360 H2352 0.929 . S
C2360 C2361 1.377 . S
C2360 C2362 1.384 . S
C2361 C2360 1.377 . S
C2361 C2367 1.390 . S
C2362 H2353 0.930 . S
C2362 C2360 1.384 . S
C2362 C2363 1.372 . S
C2363 C2362 1.372 . S
C2363 C2364 1.400 . S
C2363 C2368 1.490 . S
C2364 H2354 0.930 . S
C2364 C2363 1.400 . S
C2364 C2367 1.386 . S
H2365 C2381 0.930 . S
H2366 C2382 0.931 . S
C2367 H2355 0.929 . S
C2367 C2361 1.390 . S
C2367 C2364 1.386 . S
C2368 C2363 1.490 . S
C2368 C2370 1.395 . S
C2368 C2371 1.403 . S
H2369 C2375 0.930 . S
C2370 H2356 0.930 . S
C2370 C2368 1.395 . S
C2370 C2373 1.403 . S
C2371 C2368 1.403 . S
C2371 C2372 1.524 . S
C2371 C2375 1.400 . S
C2372 H2357 0.960 . S
C2372 H2358 0.960 . S
C2372 H2359 0.960 . S
C2372 C2371 1.524 . S
C2373 C2370 1.403 . S
C2373 C2374 1.392 . S
C2373 C2377 1.495 . S
C2374 C2373 1.392 . S
C2374 C2375 1.385 . S
C2374 C2376 1.478 . S
C2375 H2369 0.930 . S
C2375 C2371 1.400 . S
C2375 C2374 1.385 . S
C2376 C2374 1.478 . S
C2376 C2378 1.381 1_545 S
C2376 C2382 1.383 1_545 S
C2377 C2373 1.495 . S
C2377 H2383 0.959 . S
C2377 H2384 0.961 . S
C2377 H2385 0.960 . S
C2378 C2376 1.381 1_565 S
C2378 C2379 1.394 . S
C2378 H2386 0.930 1_565 S
C2379 C2378 1.394 . S
C2379 C2380 1.383 . S
C2379 H2387 0.929 . S
C2380 C2379 1.383 . S
C2380 C2381 1.377 . S
C2381 H2365 0.930 . S
C2381 C2380 1.377 . S
C2381 C2382 1.379 . S
C2382 H2366 0.931 . S
C2382 C2376 1.383 1_565 S
C2382 C2381 1.379 . S
H2383 C2377 0.959 . S
H2384 C2377 0.961 . S
H2385 C2377 0.960 . S
H2386 C2378 0.930 1_545 S
H2387 C2379 0.929 . S
H2388 C2396 0.929 . S
H2389 C2398 0.930 . S
H2390 C2400 0.930 . S
H2391 C2403 0.929 . S
H2392 C2406 0.931 . S
H2393 C2408 0.960 . S
H2394 C2408 0.960 1_565 S
H2395 C2408 0.960 . S
C2396 H2388 0.929 . S
C2396 C2397 1.377 . S
C2396 C2398 1.384 . S
C2397 C2396 1.377 . S
C2397 C2403 1.390 1_565 S
C2398 H2389 0.930 . S
C2398 C2396 1.384 . S
C2398 C2399 1.372 . S
C2399 C2398 1.372 . S
C2399 C2400 1.400 1_565 S
C2399 C2404 1.486 1_565 S
C2400 H2390 0.930 . S
C2400 C2399 1.400 1_545 S
C2400 C2403 1.386 . S
H2401 C2417 0.930 . S
H2402 C2418 0.931 . S
C2403 H2391 0.929 . S
C2403 C2397 1.390 1_545 S
C2403 C2400 1.386 . S
C2404 C2399 1.486 1_545 S
C2404 C2406 1.394 1_545 S
C2404 C2407 1.407 . S
H2405 C2411 0.930 . S
C2406 H2392 0.931 . S
C2406 C2404 1.394 1_565 S
C2406 C2409 1.403 1_565 S
C2407 C2404 1.407 . S
C2407 C2408 1.524 . S
C2407 C2411 1.400 . S
C2408 H2393 0.960 . S
C2408 H2394 0.960 1_545 S
C2408 H2395 0.960 . S
C2408 C2407 1.524 . S
C2409 C2406 1.403 1_545 S
C2409 C2410 1.392 . S
C2409 C2413 1.495 . S
C2410 C2409 1.392 . S
C2410 C2411 1.385 . S
C2410 C2412 1.478 . S
C2411 H2405 0.930 . S
C2411 C2407 1.400 . S
C2411 C2410 1.385 . S
C2412 C2410 1.478 . S
C2412 C2414 1.397 . S
C2412 C2418 1.383 . S
C2413 C2409 1.495 . S
C2413 H2419 0.963 . S
C2413 H2420 0.961 . S
C2413 H2421 0.960 1_545 S
C2414 C2412 1.397 . S
C2414 C2415 1.399 . S
C2414 H2422 0.909 1_545 S
C2415 C2414 1.399 . S
C2415 C2416 1.383 . S
C2415 H2423 0.929 1_545 S
C2416 C2415 1.383 . S
C2416 C2417 1.377 . S
C2417 H2401 0.930 . S
C2417 C2416 1.377 . S
C2417 C2418 1.379 . S
C2418 H2402 0.931 . S
C2418 C2412 1.383 . S
C2418 C2417 1.379 . S
H2419 C2413 0.963 . S
H2420 C2413 0.961 . S
H2421 C2413 0.960 1_565 S
H2422 C2414 0.909 1_565 S
H2423 C2415 0.929 1_565 S
H2424 C2432 0.929 . S
H2425 C2434 0.930 . S
H2426 C2436 0.930 . S
H2427 C2439 0.929 . S
H2428 C2442 0.930 . S
H2429 C2444 0.960 . S
H2430 C2444 0.960 . S
H2431 C2444 0.960 . S
C2432 H2424 0.929 . S
C2432 C2433 1.377 . S
C2432 C2434 1.384 . S
C2433 C2432 1.377 . S
C2433 C2439 1.390 . S
C2434 H2425 0.930 . S
C2434 C2432 1.384 . S
C2434 C2435 1.372 . S
C2435 C2434 1.372 . S
C2435 C2436 1.400 . S
C2435 C2440 1.490 . S
C2436 H2426 0.930 . S
C2436 C2435 1.400 . S
C2436 C2439 1.386 . S
H2437 C2453 0.930 . S
H2438 C2454 0.931 1_565 S
C2439 H2427 0.929 . S
C2439 C2433 1.390 . S
C2439 C2436 1.386 . S
C2440 C2435 1.490 . S
C2440 C2442 1.395 . S
C2440 C2443 1.403 . S
H2441 C2447 0.930 . S
C2442 H2428 0.930 . S
C2442 C2440 1.395 . S
C2442 C2445 1.403 . S
C2443 C2440 1.403 . S
C2443 C2444 1.524 . S
C2443 C2447 1.400 . S
C2444 H2429 0.960 . S
C2444 H2430 0.960 . S
C2444 H2431 0.960 . S
C2444 C2443 1.524 . S
C2445 C2442 1.403 . S
C2445 C2446 1.392 . S
C2445 C2449 1.495 . S
C2446 C2445 1.392 . S
C2446 C2447 1.385 . S
C2446 C2448 1.478 . S
C2447 H2441 0.930 . S
C2447 C2443 1.400 . S
C2447 C2446 1.385 . S
C2448 C2446 1.478 . S
C2448 C2450 1.381 1_565 S
C2448 C2454 1.383 1_565 S
C2449 C2445 1.495 . S
C2449 H2455 0.959 . S
C2449 H2456 0.961 . S
C2449 H2457 0.960 . S
C2450 C2448 1.381 1_545 S
C2450 C2451 1.394 . S
C2450 H2458 0.930 1_545 S
C2451 C2450 1.394 . S
C2451 C2452 1.383 . S
C2451 H2459 0.929 . S
C2452 C2451 1.383 . S
C2452 C2453 1.377 . S
C2453 H2437 0.930 . S
C2453 C2452 1.377 . S
C2453 C2454 1.379 . S
C2454 H2438 0.931 1_545 S
C2454 C2448 1.383 1_545 S
C2454 C2453 1.379 . S
H2455 C2449 0.959 . S
H2456 C2449 0.961 . S
H2457 C2449 0.960 . S
H2458 C2450 0.930 1_565 S
H2459 C2451 0.929 . S
H2460 C2468 0.929 . S
H2461 C2470 0.930 . S
H2462 C2472 0.930 . S
H2463 C2475 0.929 . S
H2464 C2478 0.930 . S
H2465 C2480 0.960 . S
H2466 C2480 0.960 . S
H2467 C2480 0.960 . S
C2468 H2460 0.929 . S
C2468 C2469 1.377 . S
C2468 C2470 1.384 . S
C2469 C2468 1.377 . S
C2469 C2475 1.390 . S
C2470 H2461 0.930 . S
C2470 C2468 1.384 . S
C2470 C2471 1.372 . S
C2471 C2470 1.372 . S
C2471 C2472 1.400 . S
C2471 C2476 1.490 . S
C2472 H2462 0.930 . S
C2472 C2471 1.400 . S
C2472 C2475 1.386 . S
H2473 C2489 0.930 . S
H2474 C2490 0.931 . S
C2475 H2463 0.929 . S
C2475 C2469 1.390 . S
C2475 C2472 1.386 . S
C2476 C2471 1.490 . S
C2476 C2478 1.395 . S
C2476 C2479 1.403 1_565 S
H2477 C2483 0.930 . S
C2478 H2464 0.930 . S
C2478 C2476 1.395 . S
C2478 C2481 1.403 . S
C2479 C2476 1.403 1_545 S
C2479 C2480 1.524 . S
C2479 C2483 1.400 . S
C2480 H2465 0.960 . S
C2480 H2466 0.960 . S
C2480 H2467 0.960 . S
C2480 C2479 1.524 . S
C2481 C2478 1.403 . S
C2481 C2482 1.392 . S
C2481 C2485 1.495 . S
C2482 C2481 1.392 . S
C2482 C2483 1.385 1_565 S
C2482 C2484 1.478 . S
C2483 H2477 0.930 . S
C2483 C2479 1.400 . S
C2483 C2482 1.385 1_545 S
C2484 C2482 1.478 . S
C2484 C2486 1.381 . S
C2484 C2490 1.383 1_565 S
C2485 C2481 1.495 . S
C2485 H2491 0.959 . S
C2485 H2492 0.961 . S
C2485 H2493 0.960 . S
C2486 C2484 1.381 . S
C2486 C2487 1.394 1_565 S
C2486 H2494 0.930 . S
C2487 C2486 1.394 1_545 S
C2487 C2488 1.383 . S
C2487 H2495 0.934 . S
C2488 C2487 1.383 . S
C2488 C2489 1.377 . S
C2489 H2473 0.930 . S
C2489 C2488 1.377 . S
C2489 C2490 1.379 . S
C2490 H2474 0.931 . S
C2490 C2484 1.383 1_545 S
C2490 C2489 1.379 . S
H2491 C2485 0.959 . S
H2492 C2485 0.961 . S
H2493 C2485 0.960 . S
H2494 C2486 0.930 . S
H2495 C2487 0.934 . S
H2496 C2504 0.929 . S
H2497 C2506 0.930 . S
H2498 C2508 0.930 1_545 S
H2499 C2511 0.929 . S
H2500 C2514 0.930 . S
H2501 C2516 0.960 . S
H2502 C2516 0.960 . S
H2503 C2516 0.960 . S
C2504 H2496 0.929 . S
C2504 C2505 1.377 . S
C2504 C2506 1.384 . S
C2505 C2504 1.377 . S
C2505 C2511 1.390 . S
C2506 H2497 0.930 . S
C2506 C2504 1.384 . S
C2506 C2507 1.372 1_565 S
C2507 C2506 1.372 1_545 S
C2507 C2508 1.400 1_545 S
C2507 C2512 1.490 . S
C2508 H2498 0.930 1_565 S
C2508 C2507 1.400 1_565 S
C2508 C2511 1.386 . S
H2509 C2525 0.930 . S
H2510 C2526 0.931 . S
C2511 H2499 0.929 . S
C2511 C2505 1.390 . S
C2511 C2508 1.386 . S
C2512 C2507 1.490 . S
C2512 C2514 1.395 . S
C2512 C2515 1.403 . S
H2513 C2519 0.930 . S
C2514 H2500 0.930 . S
C2514 C2512 1.395 . S
C2514 C2517 1.403 . S
C2515 C2512 1.403 . S
C2515 C2516 1.524 . S
C2515 C2519 1.400 . S
C2516 H2501 0.960 . S
C2516 H2502 0.960 . S
C2516 H2503 0.960 . S
C2516 C2515 1.524 . S
C2517 C2514 1.403 . S
C2517 C2518 1.392 . S
C2517 C2521 1.495 . S
C2518 C2517 1.392 . S
C2518 C2519 1.385 . S
C2518 C2520 1.478 . S
C2519 H2513 0.930 . S
C2519 C2515 1.400 . S
C2519 C2518 1.385 . S
C2520 C2518 1.478 . S
C2520 C2522 1.381 . S
C2520 C2526 1.383 . S
C2521 C2517 1.495 . S
C2521 H2527 0.959 . S
C2521 H2528 0.961 . S
C2521 H2529 0.960 . S
C2522 C2520 1.381 . S
C2522 C2523 1.394 . S
C2522 H2530 0.930 . S
C2523 C2522 1.394 . S
C2523 C2524 1.383 . S
C2523 H2531 0.929 . S
C2524 C2523 1.383 . S
C2524 C2525 1.377 . S
C2525 H2509 0.930 . S
C2525 C2524 1.377 . S
C2525 C2526 1.379 . S
C2526 H2510 0.931 . S
C2526 C2520 1.383 . S
C2526 C2525 1.379 . S
H2527 C2521 0.959 . S
H2528 C2521 0.961 . S
H2529 C2521 0.960 . S
H2530 C2522 0.930 . S
H2531 C2523 0.929 . S
H2532 C2540 0.929 . S
H2533 C2542 0.930 . S
H2534 C2544 0.932 . S
H2535 C2547 0.929 . S
H2536 C2550 0.930 1_545 S
H2537 C2552 0.960 . S
H2538 C2552 0.960 . S
H2539 C2552 0.960 . S
C2540 H2532 0.929 . S
C2540 C2541 1.377 . S
C2540 C2542 1.384 . S
C2541 C2540 1.377 . S
C2541 C2547 1.390 . S
C2542 H2533 0.930 . S
C2542 C2540 1.384 . S
C2542 C2543 1.372 . S
C2543 C2542 1.372 . S
C2543 C2544 1.400 . S
C2543 C2548 1.490 . S
C2544 H2534 0.932 . S
C2544 C2543 1.400 . S
C2544 C2547 1.386 . S
H2545 C2561 0.930 . S
H2546 C2562 0.931 . S
C2547 H2535 0.929 . S
C2547 C2541 1.390 . S
C2547 C2544 1.386 . S
C2548 C2543 1.490 . S
C2548 C2550 1.395 . S
C2548 C2551 1.403 . S
H2549 C2555 0.930 . S
C2550 H2536 0.930 1_565 S
C2550 C2548 1.395 . S
C2550 C2553 1.403 1_565 S
C2551 C2548 1.403 . S
C2551 C2552 1.524 . S
C2551 C2555 1.400 . S
C2552 H2537 0.960 . S
C2552 H2538 0.960 . S
C2552 H2539 0.960 . S
C2552 C2551 1.524 . S
C2553 C2550 1.403 1_545 S
C2553 C2554 1.390 1_545 S
C2553 C2557 1.495 . S
C2554 C2553 1.390 1_565 S
C2554 C2555 1.390 . S
C2554 C2556 1.475 1_565 S
C2555 H2549 0.930 . S
C2555 C2551 1.400 . S
C2555 C2554 1.390 . S
C2556 C2554 1.475 1_545 S
C2556 C2558 1.381 1_545 S
C2556 C2562 1.383 . S
C2557 C2553 1.495 . S
C2557 H2563 0.959 . S
C2557 H2564 0.961 . S
C2557 H2565 0.960 . S
C2558 C2556 1.381 1_565 S
C2558 C2559 1.399 . S
C2558 H2566 0.930 . S
C2559 C2558 1.399 . S
C2559 C2560 1.367 1_565 S
C2559 H2567 0.941 . S
C2560 C2559 1.367 1_545 S
C2560 C2561 1.377 . S
C2561 H2545 0.930 . S
C2561 C2560 1.377 . S
C2561 C2562 1.379 . S
C2562 H2546 0.931 . S
C2562 C2556 1.383 . S
C2562 C2561 1.379 . S
H2563 C2557 0.959 . S
H2564 C2557 0.961 . S
H2565 C2557 0.960 . S
H2566 C2558 0.930 . S
H2567 C2559 0.941 . S
H2568 C2576 0.929 . S
H2569 C2578 0.930 1_565 S
H2570 C2580 0.930 . S
H2571 C2583 0.929 . S
H2572 C2586 0.930 . S
H2573 C2588 0.960 . S
H2574 C2588 0.960 . S
H2575 C2588 0.960 . S
C2576 H2568 0.929 . S
C2576 C2577 1.377 . S
C2576 C2578 1.384 . S
C2577 C2576 1.377 . S
C2577 C2583 1.390 . S
C2578 H2569 0.930 1_545 S
C2578 C2576 1.384 . S
C2578 C2579 1.372 1_545 S
C2579 C2578 1.372 1_565 S
C2579 C2580 1.400 1_565 S
C2579 C2584 1.490 . S
C2580 H2570 0.930 . S
C2580 C2579 1.400 1_545 S
C2580 C2583 1.386 . S
H2581 C2597 0.930 . S
H2582 C2598 0.931 . S
C2583 H2571 0.929 . S
C2583 C2577 1.390 . S
C2583 C2580 1.386 . S
C2584 C2579 1.490 . S
C2584 C2586 1.395 . S
C2584 C2587 1.403 . S
H2585 C2591 0.930 . S
C2586 H2572 0.930 . S
C2586 C2584 1.395 . S
C2586 C2589 1.403 . S
C2587 C2584 1.403 . S
C2587 C2588 1.524 . S
C2587 C2591 1.400 . S
C2588 H2573 0.960 . S
C2588 H2574 0.960 . S
C2588 H2575 0.960 . S
C2588 C2587 1.524 . S
C2589 C2586 1.403 . S
C2589 C2590 1.392 . S
C2589 C2593 1.495 . S
C2590 C2589 1.392 . S
C2590 C2591 1.385 . S
C2590 C2592 1.478 . S
C2591 H2585 0.930 . S
C2591 C2587 1.400 . S
C2591 C2590 1.385 . S
C2592 C2590 1.478 . S
C2592 C2594 1.381 . S
C2592 C2598 1.383 . S
C2593 C2589 1.495 . S
C2593 H2599 0.959 . S
C2593 H2600 0.961 . S
C2593 H2601 0.960 . S
C2594 C2592 1.381 . S
C2594 C2595 1.394 . S
C2594 H2602 0.930 . S
C2595 C2594 1.394 . S
C2595 C2596 1.383 . S
C2595 H2603 0.929 . S
C2596 C2595 1.383 . S
C2596 C2597 1.377 . S
C2597 H2581 0.930 . S
C2597 C2596 1.377 . S
C2597 C2598 1.379 . S
C2598 H2582 0.931 . S
C2598 C2592 1.383 . S
C2598 C2597 1.379 . S
H2599 C2593 0.959 . S
H2600 C2593 0.961 . S
H2601 C2593 0.960 . S
H2602 C2594 0.930 . S
H2603 C2595 0.929 . S
H2604 C2612 0.929 . S
H2605 C2614 0.938 . S
H2606 C2616 0.930 . S
H2607 C2619 0.929 . S
H2608 C2622 0.930 . S
H2609 C2624 0.960 . S
H2610 C2624 0.960 . S
H2611 C2624 0.960 . S
C2612 H2604 0.929 . S
C2612 C2613 1.377 . S
C2612 C2614 1.384 . S
C2613 C2612 1.377 . S
C2613 C2619 1.390 . S
C2614 H2605 0.938 . S
C2614 C2612 1.384 . S
C2614 C2615 1.372 . S
C2615 C2614 1.372 . S
C2615 C2616 1.400 . S
C2615 C2620 1.490 1_565 S
C2616 H2606 0.930 . S
C2616 C2615 1.400 . S
C2616 C2619 1.386 . S
H2617 C2633 0.930 . S
H2618 C2634 0.931 . S
C2619 H2607 0.929 . S
C2619 C2613 1.390 . S
C2619 C2616 1.386 . S
C2620 C2615 1.490 1_545 S
C2620 C2622 1.395 1_545 S
C2620 C2623 1.403 . S
H2621 C2627 0.930 . S
C2622 H2608 0.930 . S
C2622 C2620 1.395 1_565 S
C2622 C2625 1.403 . S
C2623 C2620 1.403 . S
C2623 C2624 1.524 . S
C2623 C2627 1.400 . S
C2624 H2609 0.960 . S
C2624 H2610 0.960 . S
C2624 H2611 0.960 . S
C2624 C2623 1.524 . S
C2625 C2622 1.403 . S
C2625 C2626 1.392 1_565 S
C2625 C2629 1.495 . S
C2626 C2625 1.392 1_545 S
C2626 C2627 1.385 . S
C2626 C2628 1.478 . S
C2627 H2621 0.930 . S
C2627 C2623 1.400 . S
C2627 C2626 1.385 . S
C2628 C2626 1.478 . S
C2628 C2630 1.381 . S
C2628 C2634 1.383 . S
C2629 C2625 1.495 . S
C2629 H2635 0.959 . S
C2629 H2636 0.961 . S
C2629 H2637 0.960 . S
C2630 C2628 1.381 . S
C2630 C2631 1.394 . S
C2630 H2638 0.930 . S
C2631 C2630 1.394 . S
C2631 C2632 1.383 . S
C2631 H2639 0.929 . S
C2632 C2631 1.383 . S
C2632 C2633 1.377 . S
C2633 H2617 0.930 . S
C2633 C2632 1.377 . S
C2633 C2634 1.379 . S
C2634 H2618 0.931 . S
C2634 C2628 1.383 . S
C2634 C2633 1.379 . S
H2635 C2629 0.959 . S
H2636 C2629 0.961 . S
H2637 C2629 0.960 . S
H2638 C2630 0.930 . S
H2639 C2631 0.929 . S
H2640 C2648 0.929 . S
H2641 C2650 0.930 . S
H2642 C2652 0.930 . S
H2643 C2655 0.929 . S
H2644 C2658 0.930 . S
H2645 C2660 0.960 . S
H2646 C2660 0.960 . S
H2647 C2660 0.960 . S
C2648 H2640 0.929 . S
C2648 C2649 1.377 . S
C2648 C2650 1.384 . S
C2649 C2648 1.377 . S
C2649 C2655 1.390 . S
C2650 H2641 0.930 . S
C2650 C2648 1.384 . S
C2650 C2651 1.372 . S
C2651 C2650 1.372 . S
C2651 C2652 1.400 . S
C2651 C2656 1.490 . S
C2652 H2642 0.930 . S
C2652 C2651 1.400 . S
C2652 C2655 1.386 . S
H2653 C2669 0.930 . S
H2654 C2670 0.931 1_565 S
C2655 H2643 0.929 . S
C2655 C2649 1.390 . S
C2655 C2652 1.386 . S
C2656 C2651 1.490 . S
C2656 C2658 1.395 . S
C2656 C2659 1.403 . S
H2657 C2663 0.930 . S
C2658 H2644 0.930 . S
C2658 C2656 1.395 . S
C2658 C2661 1.403 . S
C2659 C2656 1.403 . S
C2659 C2660 1.524 . S
C2659 C2663 1.400 . S
C2660 H2645 0.960 . S
C2660 H2646 0.960 . S
C2660 H2647 0.960 . S
C2660 C2659 1.524 . S
C2661 C2658 1.403 . S
C2661 C2662 1.392 . S
C2661 C2665 1.495 . S
C2662 C2661 1.392 . S
C2662 C2663 1.385 . S
C2662 C2664 1.478 . S
C2663 H2657 0.930 . S
C2663 C2659 1.400 . S
C2663 C2662 1.385 . S
C2664 C2662 1.478 . S
C2664 C2666 1.381 1_565 S
C2664 C2670 1.383 1_565 S
C2665 C2661 1.495 . S
C2665 H2671 0.959 . S
C2665 H2672 0.961 . S
C2665 H2673 0.960 . S
C2666 C2664 1.381 1_545 S
C2666 C2667 1.394 . S
C2666 H2674 0.930 . S
C2667 C2666 1.394 . S
C2667 C2668 1.383 . S
C2667 H2675 0.929 . S
C2668 C2667 1.383 . S
C2668 C2669 1.377 . S
C2669 H2653 0.930 . S
C2669 C2668 1.377 . S
C2669 C2670 1.379 . S
C2670 H2654 0.931 1_545 S
C2670 C2664 1.383 1_545 S
C2670 C2669 1.379 . S
H2671 C2665 0.959 . S
H2672 C2665 0.961 . S
H2673 C2665 0.960 . S
H2674 C2666 0.930 . S
H2675 C2667 0.929 . S
H2676 C2684 0.929 . S
H2677 C2686 0.930 . S
H2678 C2688 0.930 . S
H2679 C2691 0.929 . S
H2680 C2694 0.930 . S
H2681 C2696 0.960 . S
H2682 C2696 0.960 . S
H2683 C2696 0.960 . S
C2684 H2676 0.929 . S
C2684 C2685 1.377 . S
C2684 C2686 1.384 . S
C2685 C2684 1.377 . S
C2685 C2691 1.390 . S
C2686 H2677 0.930 . S
C2686 C2684 1.384 . S
C2686 C2687 1.372 . S
C2687 C2686 1.372 . S
C2687 C2688 1.400 . S
C2687 C2692 1.490 . S
C2688 H2678 0.930 . S
C2688 C2687 1.400 . S
C2688 C2691 1.386 . S
H2689 C2705 0.930 . S
H2690 C2706 0.931 . S
C2691 H2679 0.929 . S
C2691 C2685 1.390 . S
C2691 C2688 1.386 . S
C2692 C2687 1.490 . S
C2692 C2694 1.395 1_565 S
C2692 C2695 1.403 . S
H2693 C2699 0.930 . S
C2694 H2680 0.930 . S
C2694 C2692 1.395 1_545 S
C2694 C2697 1.403 . S
C2695 C2692 1.403 . S
C2695 C2696 1.524 . S
C2695 C2699 1.400 . S
C2696 H2681 0.960 . S
C2696 H2682 0.960 . S
C2696 H2683 0.960 . S
C2696 C2695 1.524 . S
C2697 C2694 1.403 . S
C2697 C2698 1.392 . S
C2697 C2701 1.495 . S
C2698 C2697 1.392 . S
C2698 C2699 1.385 1_545 S
C2698 C2700 1.478 . S
C2699 H2693 0.930 . S
C2699 C2695 1.400 . S
C2699 C2698 1.385 1_565 S
C2700 C2698 1.478 . S
C2700 C2702 1.381 . S
C2700 C2706 1.383 . S
C2701 C2697 1.495 . S
C2701 H2707 0.959 . S
C2701 H2708 0.961 . S
C2701 H2709 0.960 . S
C2702 C2700 1.381 . S
C2702 C2703 1.394 . S
C2702 H2710 0.930 . S
C2703 C2702 1.394 . S
C2703 C2704 1.383 . S
C2703 H2711 0.929 . S
C2704 C2703 1.383 . S
C2704 C2705 1.377 . S
C2705 H2689 0.930 . S
C2705 C2704 1.377 . S
C2705 C2706 1.379 . S
C2706 H2690 0.931 . S
C2706 C2700 1.383 . S
C2706 C2705 1.379 . S
H2707 C2701 0.959 . S
H2708 C2701 0.961 . S
H2709 C2701 0.960 . S
H2710 C2702 0.930 . S
H2711 C2703 0.929 . S
H2712 C2720 0.929 . S
H2713 C2722 0.930 . S
H2714 C2724 0.930 1_545 S
H2715 C2727 0.929 . S
H2716 C2730 0.930 . S
H2717 C2732 0.960 . S
H2718 C2732 0.960 . S
H2719 C2732 0.960 . S
C2720 H2712 0.929 . S
C2720 C2721 1.377 . S
C2720 C2722 1.384 . S
C2721 C2720 1.377 . S
C2721 C2727 1.390 . S
C2722 H2713 0.930 . S
C2722 C2720 1.384 . S
C2722 C2723 1.372 1_565 S
C2723 C2722 1.372 1_545 S
C2723 C2724 1.400 1_545 S
C2723 C2728 1.490 . S
C2724 H2714 0.930 1_565 S
C2724 C2723 1.400 1_565 S
C2724 C2727 1.386 . S
H2725 C2741 0.930 . S
H2726 C2742 0.931 . S
C2727 H2715 0.929 . S
C2727 C2721 1.390 . S
C2727 C2724 1.386 . S
C2728 C2723 1.490 . S
C2728 C2730 1.395 . S
C2728 C2731 1.403 . S
H2729 C2735 0.930 . S
C2730 H2716 0.930 . S
C2730 C2728 1.395 . S
C2730 C2733 1.403 . S
C2731 C2728 1.403 . S
C2731 C2732 1.524 . S
C2731 C2735 1.400 . S
C2732 H2717 0.960 . S
C2732 H2718 0.960 . S
C2732 H2719 0.960 . S
C2732 C2731 1.524 . S
C2733 C2730 1.403 . S
C2733 C2734 1.392 . S
C2733 C2737 1.495 . S
C2734 C2733 1.392 . S
C2734 C2735 1.385 . S
C2734 C2736 1.478 . S
C2735 H2729 0.930 . S
C2735 C2731 1.400 . S
C2735 C2734 1.385 . S
C2736 C2734 1.478 . S
C2736 C2738 1.381 . S
C2736 C2742 1.383 . S
C2737 C2733 1.495 . S
C2737 H2743 0.959 . S
C2737 H2744 0.961 . S
C2737 H2745 0.960 . S
C2738 C2736 1.381 . S
C2738 C2739 1.394 . S
C2738 H2746 0.930 . S
C2739 C2738 1.394 . S
C2739 C2740 1.383 . S
C2739 H2747 0.929 . S
C2740 C2739 1.383 . S
C2740 C2741 1.377 . S
C2741 H2725 0.930 . S
C2741 C2740 1.377 . S
C2741 C2742 1.379 . S
C2742 H2726 0.931 . S
C2742 C2736 1.383 . S
C2742 C2741 1.379 . S
H2743 C2737 0.959 . S
H2744 C2737 0.961 . S
H2745 C2737 0.960 . S
H2746 C2738 0.930 . S
H2747 C2739 0.929 . S
H2748 C2756 0.929 . S
H2749 C2758 0.930 . S
H2750 C2760 0.930 . S
H2751 C2763 0.929 . S
H2752 C2766 0.930 . S
H2753 C2768 0.960 . S
H2754 C2768 0.960 . S
H2755 C2768 0.960 . S
C2756 H2748 0.929 . S
C2756 C2757 1.377 . S
C2756 C2758 1.384 . S
C2757 C2756 1.377 . S
C2757 C2763 1.390 . S
C2758 H2749 0.930 . S
C2758 C2756 1.384 . S
C2758 C2759 1.372 . S
C2759 C2758 1.372 . S
C2759 C2760 1.400 . S
C2759 C2764 1.490 . S
C2760 H2750 0.930 . S
C2760 C2759 1.400 . S
C2760 C2763 1.386 . S
H2761 C2777 0.930 . S
H2762 C2778 0.931 . S
C2763 H2751 0.929 . S
C2763 C2757 1.390 . S
C2763 C2760 1.386 . S
C2764 C2759 1.490 . S
C2764 C2766 1.395 . S
C2764 C2767 1.403 1_545 S
H2765 C2771 0.930 . S
C2766 H2752 0.930 . S
C2766 C2764 1.395 . S
C2766 C2769 1.403 . S
C2767 C2764 1.403 1_565 S
C2767 C2768 1.524 . S
C2767 C2771 1.400 . S
C2768 H2753 0.960 . S
C2768 H2754 0.960 . S
C2768 H2755 0.960 . S
C2768 C2767 1.524 . S
C2769 C2766 1.403 . S
C2769 C2770 1.392 . S
C2769 C2773 1.495 . S
C2770 C2769 1.392 . S
C2770 C2771 1.385 1_545 S
C2770 C2772 1.482 . S
C2771 H2765 0.930 . S
C2771 C2767 1.400 . S
C2771 C2770 1.385 1_565 S
C2772 C2770 1.482 . S
C2772 C2774 1.379 1_545 S
C2772 C2778 1.379 1_545 S
C2773 C2769 1.495 . S
C2773 H2779 0.959 . S
C2773 H2780 0.961 . S
C2773 H2781 0.960 . S
C2774 C2772 1.379 1_565 S
C2774 C2775 1.394 . S
C2774 H2782 0.930 1_565 S
C2775 C2774 1.394 . S
C2775 C2776 1.383 . S
C2775 H2783 0.929 . S
C2776 C2775 1.383 . S
C2776 C2777 1.377 . S
C2777 H2761 0.930 . S
C2777 C2776 1.377 . S
C2777 C2778 1.379 . S
C2778 H2762 0.931 . S
C2778 C2772 1.379 1_565 S
C2778 C2777 1.379 . S
H2779 C2773 0.959 . S
H2780 C2773 0.961 . S
H2781 C2773 0.960 . S
H2782 C2774 0.930 1_545 S
H2783 C2775 0.929 . S
H2784 C2792 0.929 . S
H2785 C2794 0.930 . S
H2786 C2796 0.930 . S
H2787 C2799 0.929 . S
H2788 C2802 0.930 . S
H2789 C2804 0.960 . S
H2790 C2804 0.960 . S
H2791 C2804 0.960 . S
C2792 H2784 0.929 . S
C2792 C2793 1.377 . S
C2792 C2794 1.384 . S
C2793 C2792 1.377 . S
C2793 C2799 1.390 . S
C2794 H2785 0.930 . S
C2794 C2792 1.384 . S
C2794 C2795 1.372 . S
C2795 C2794 1.372 . S
C2795 C2796 1.400 . S
C2795 C2800 1.490 . S
C2796 H2786 0.930 . S
C2796 C2795 1.400 . S
C2796 C2799 1.386 . S
H2797 C2813 0.930 . S
H2798 C2814 0.931 . S
C2799 H2787 0.929 . S
C2799 C2793 1.390 . S
C2799 C2796 1.386 . S
C2800 C2795 1.490 . S
C2800 C2802 1.395 . S
C2800 C2803 1.403 . S
H2801 C2807 0.930 . S
C2802 H2788 0.930 . S
C2802 C2800 1.395 . S
C2802 C2805 1.403 . S
C2803 C2800 1.403 . S
C2803 C2804 1.524 . S
C2803 C2807 1.400 . S
C2804 H2789 0.960 . S
C2804 H2790 0.960 . S
C2804 H2791 0.960 . S
C2804 C2803 1.524 . S
C2805 C2802 1.403 . S
C2805 C2806 1.392 . S
C2805 C2809 1.495 . S
C2806 C2805 1.392 . S
C2806 C2807 1.385 . S
C2806 C2808 1.478 . S
C2807 H2801 0.930 . S
C2807 C2803 1.400 . S
C2807 C2806 1.385 . S
C2808 C2806 1.478 . S
C2808 C2810 1.381 . S
C2808 C2814 1.383 . S
C2809 C2805 1.495 . S
C2809 H2815 0.959 . S
C2809 H2816 0.961 . S
C2809 H2817 0.960 . S
C2810 C2808 1.381 . S
C2810 C2811 1.394 . S
C2810 H2818 0.930 . S
C2811 C2810 1.394 . S
C2811 C2812 1.383 . S
C2811 H2819 0.929 . S
C2812 C2811 1.383 . S
C2812 C2813 1.377 . S
C2813 H2797 0.930 . S
C2813 C2812 1.377 . S
C2813 C2814 1.379 . S
C2814 H2798 0.931 . S
C2814 C2808 1.383 . S
C2814 C2813 1.379 . S
H2815 C2809 0.959 . S
H2816 C2809 0.961 . S
H2817 C2809 0.960 . S
H2818 C2810 0.930 . S
H2819 C2811 0.929 . S
H2820 C2828 0.929 . S
H2821 C2830 0.930 . S
H2822 C2832 0.930 . S
H2823 C2835 0.929 . S
H2824 C2838 0.930 . S
H2825 C2840 0.960 . S
H2826 C2840 0.960 . S
H2827 C2840 0.960 . S
C2828 H2820 0.929 . S
C2828 C2829 1.377 . S
C2828 C2830 1.384 . S
C2829 C2828 1.377 . S
C2829 C2835 1.390 . S
C2830 H2821 0.930 . S
C2830 C2828 1.384 . S
C2830 C2831 1.372 . S
C2831 C2830 1.372 . S
C2831 C2832 1.400 . S
C2831 C2836 1.490 . S
C2832 H2822 0.930 . S
C2832 C2831 1.400 . S
C2832 C2835 1.386 . S
H2833 C2849 0.930 . S
H2834 C2850 0.931 . S
C2835 H2823 0.929 . S
C2835 C2829 1.390 . S
C2835 C2832 1.386 . S
C2836 C2831 1.490 . S
C2836 C2838 1.395 . S
C2836 C2839 1.403 . S
H2837 C2843 0.930 . S
C2838 H2824 0.930 . S
C2838 C2836 1.395 . S
C2838 C2841 1.403 . S
C2839 C2836 1.403 . S
C2839 C2840 1.524 . S
C2839 C2843 1.400 . S
C2840 H2825 0.960 . S
C2840 H2826 0.960 . S
C2840 H2827 0.960 . S
C2840 C2839 1.524 . S
C2841 C2838 1.403 . S
C2841 C2842 1.392 . S
C2841 C2845 1.495 . S
C2842 C2841 1.392 . S
C2842 C2843 1.385 . S
C2842 C2844 1.478 . S
C2843 H2837 0.930 . S
C2843 C2839 1.400 . S
C2843 C2842 1.385 . S
C2844 C2842 1.478 . S
C2844 C2846 1.381 . S
C2844 C2850 1.383 . S
C2845 C2841 1.495 . S
C2845 H2851 0.959 . S
C2845 H2852 0.961 . S
C2845 H2853 0.960 . S
C2846 C2844 1.381 . S
C2846 C2847 1.394 . S
C2846 H2854 0.930 . S
C2847 C2846 1.394 . S
C2847 C2848 1.383 . S
C2847 H2855 0.929 . S
C2848 C2847 1.383 . S
C2848 C2849 1.377 . S
C2849 H2833 0.930 . S
C2849 C2848 1.377 . S
C2849 C2850 1.379 . S
C2850 H2834 0.931 . S
C2850 C2844 1.383 . S
C2850 C2849 1.379 . S
H2851 C2845 0.959 . S
H2852 C2845 0.961 . S
H2853 C2845 0.960 . S
H2854 C2846 0.930 . S
H2855 C2847 0.929 . S
H2856 C2864 0.929 . S
H2857 C2866 0.930 . S
H2858 C2868 0.930 . S
H2859 C2871 0.929 . S
H2860 C2874 0.930 . S
H2861 C2876 0.960 . S
H2862 C2876 0.960 . S
H2863 C2876 0.960 . S
C2864 H2856 0.929 . S
C2864 C2865 1.377 . S
C2864 C2866 1.384 . S
C2865 C2864 1.377 . S
C2865 C2871 1.390 . S
C2866 H2857 0.930 . S
C2866 C2864 1.384 . S
C2866 C2867 1.372 . S
C2867 C2866 1.372 . S
C2867 C2868 1.400 . S
C2867 C2872 1.490 . S
C2868 H2858 0.930 . S
C2868 C2867 1.400 . S
C2868 C2871 1.386 . S
H2869 C2885 0.930 . S
H2870 C2886 0.931 . S
C2871 H2859 0.929 . S
C2871 C2865 1.390 . S
C2871 C2868 1.386 . S
C2872 C2867 1.490 . S
C2872 C2874 1.395 . S
C2872 C2875 1.403 . S
H2873 C2879 0.930 . S
C2874 H2860 0.930 . S
C2874 C2872 1.395 . S
C2874 C2877 1.403 . S
C2875 C2872 1.403 . S
C2875 C2876 1.524 . S
C2875 C2879 1.400 . S
C2876 H2861 0.960 . S
C2876 H2862 0.960 . S
C2876 H2863 0.960 . S
C2876 C2875 1.524 . S
C2877 C2874 1.403 . S
C2877 C2878 1.392 . S
C2877 C2881 1.495 . S
C2878 C2877 1.392 . S
C2878 C2879 1.385 . S
C2878 C2880 1.478 . S
C2879 H2873 0.930 . S
C2879 C2875 1.400 . S
C2879 C2878 1.385 . S
C2880 C2878 1.478 . S
C2880 C2882 1.381 . S
C2880 C2886 1.383 . S
C2881 C2877 1.495 . S
C2881 H2887 0.959 . S
C2881 H2888 0.961 . S
C2881 H2889 0.960 . S
C2882 C2880 1.381 . S
C2882 C2883 1.394 . S
C2882 H2890 0.930 . S
C2883 C2882 1.394 . S
C2883 C2884 1.383 . S
C2883 H2891 0.929 . S
C2884 C2883 1.383 . S
C2884 C2885 1.377 . S
C2885 H2869 0.930 . S
C2885 C2884 1.377 . S
C2885 C2886 1.379 . S
C2886 H2870 0.931 . S
C2886 C2880 1.383 . S
C2886 C2885 1.379 . S
H2887 C2881 0.959 . S
H2888 C2881 0.961 . S
H2889 C2881 0.960 . S
H2890 C2882 0.930 . S
H2891 C2883 0.929 . S
H2892 C2900 0.929 . S
H2893 C2902 0.930 . S
H2894 C2904 0.930 . S
H2895 C2907 0.929 . S
H2896 C2910 0.930 . S
H2897 C2912 0.960 . S
H2898 C2912 0.960 . S
H2899 C2912 0.960 . S
C2900 H2892 0.929 . S
C2900 C2901 1.377 . S
C2900 C2902 1.384 . S
C2901 C2900 1.377 . S
C2901 C2907 1.390 . S
C2902 H2893 0.930 . S
C2902 C2900 1.384 . S
C2902 C2903 1.372 . S
C2903 C2902 1.372 . S
C2903 C2904 1.400 . S
C2903 C2908 1.490 . S
C2904 H2894 0.930 . S
C2904 C2903 1.400 . S
C2904 C2907 1.386 . S
H2905 C2921 0.930 . S
H2906 C2922 0.931 . S
C2907 H2895 0.929 . S
C2907 C2901 1.390 . S
C2907 C2904 1.386 . S
C2908 C2903 1.490 . S
C2908 C2910 1.395 . S
C2908 C2911 1.403 . S
H2909 C2915 0.930 . S
C2910 H2896 0.930 . S
C2910 C2908 1.395 . S
C2910 C2913 1.403 . S
C2911 C2908 1.403 . S
C2911 C2912 1.524 . S
C2911 C2915 1.400 . S
C2912 H2897 0.960 . S
C2912 H2898 0.960 . S
C2912 H2899 0.960 . S
C2912 C2911 1.524 . S
C2913 C2910 1.403 . S
C2913 C2914 1.392 . S
C2913 C2917 1.495 . S
C2914 C2913 1.392 . S
C2914 C2915 1.385 . S
C2914 C2916 1.478 . S
C2915 H2909 0.930 . S
C2915 C2911 1.400 . S
C2915 C2914 1.385 . S
C2916 C2914 1.478 . S
C2916 C2918 1.381 . S
C2916 C2922 1.383 . S
C2917 C2913 1.495 . S
C2917 H2923 0.959 . S
C2917 H2924 0.961 . S
C2917 H2925 0.960 . S
C2918 C2916 1.381 . S
C2918 C2919 1.394 . S
C2918 H2926 0.930 . S
C2919 C2918 1.394 . S
C2919 C2920 1.383 . S
C2919 H2927 0.929 . S
C2920 C2919 1.383 . S
C2920 C2921 1.377 . S
C2921 H2905 0.930 . S
C2921 C2920 1.377 . S
C2921 C2922 1.379 . S
C2922 H2906 0.931 . S
C2922 C2916 1.383 . S
C2922 C2921 1.379 . S
H2923 C2917 0.959 . S
H2924 C2917 0.961 . S
H2925 C2917 0.960 . S
H2926 C2918 0.930 . S
H2927 C2919 0.929 . S
H2928 C2936 0.929 . S
H2929 C2938 0.930 . S
H2930 C2940 0.930 . S
H2931 C2943 0.929 . S
H2932 C2946 0.930 . S
H2933 C2948 0.960 . S
H2934 C2948 0.960 . S
H2935 C2948 0.960 . S
C2936 H2928 0.929 . S
C2936 C2937 1.377 . S
C2936 C2938 1.384 . S
C2937 C2936 1.377 . S
C2937 C2943 1.390 . S
C2938 H2929 0.930 . S
C2938 C2936 1.384 . S
C2938 C2939 1.372 . S
C2939 C2938 1.372 . S
C2939 C2940 1.400 . S
C2939 C2944 1.490 . S
C2940 H2930 0.930 . S
C2940 C2939 1.400 . S
C2940 C2943 1.386 . S
H2941 C2957 0.930 . S
H2942 C2958 0.931 . S
C2943 H2931 0.929 . S
C2943 C2937 1.390 . S
C2943 C2940 1.386 . S
C2944 C2939 1.490 . S
C2944 C2946 1.395 . S
C2944 C2947 1.403 . S
H2945 C2951 0.930 . S
C2946 H2932 0.930 . S
C2946 C2944 1.395 . S
C2946 C2949 1.403 . S
C2947 C2944 1.403 . S
C2947 C2948 1.524 . S
C2947 C2951 1.400 . S
C2948 H2933 0.960 . S
C2948 H2934 0.960 . S
C2948 H2935 0.960 . S
C2948 C2947 1.524 . S
C2949 C2946 1.403 . S
C2949 C2950 1.392 . S
C2949 C2953 1.495 . S
C2950 C2949 1.392 . S
C2950 C2951 1.385 . S
C2950 C2952 1.478 . S
C2951 H2945 0.930 . S
C2951 C2947 1.400 . S
C2951 C2950 1.385 . S
C2952 C2950 1.478 . S
C2952 C2954 1.381 . S
C2952 C2958 1.383 . S
C2953 C2949 1.495 . S
C2953 H2959 0.959 . S
C2953 H2960 0.961 . S
C2953 H2961 0.960 . S
C2954 C2952 1.381 . S
C2954 C2955 1.394 . S
C2954 H2962 0.930 . S
C2955 C2954 1.394 . S
C2955 C2956 1.383 . S
C2955 H2963 0.929 . S
C2956 C2955 1.383 . S
C2956 C2957 1.377 . S
C2957 H2941 0.930 . S
C2957 C2956 1.377 . S
C2957 C2958 1.379 . S
C2958 H2942 0.931 . S
C2958 C2952 1.383 . S
C2958 C2957 1.379 . S
H2959 C2953 0.959 . S
H2960 C2953 0.961 . S
H2961 C2953 0.960 . S
H2962 C2954 0.930 . S
H2963 C2955 0.929 . S
H2964 C2972 0.929 . S
H2965 C2974 0.930 . S
H2966 C2976 0.930 . S
H2967 C2979 0.929 . S
H2968 C2982 0.930 . S
H2969 C2984 0.960 . S
H2970 C2984 0.960 . S
H2971 C2984 0.960 . S
C2972 H2964 0.929 . S
C2972 C2973 1.377 . S
C2972 C2974 1.384 . S
C2973 C2972 1.377 . S
C2973 C2979 1.390 . S
C2974 H2965 0.930 . S
C2974 C2972 1.384 . S
C2974 C2975 1.372 . S
C2975 C2974 1.372 . S
C2975 C2976 1.400 . S
C2975 C2980 1.490 . S
C2976 H2966 0.930 . S
C2976 C2975 1.400 . S
C2976 C2979 1.386 . S
H2977 C2993 0.930 . S
H2978 C2994 0.931 . S
C2979 H2967 0.929 . S
C2979 C2973 1.390 . S
C2979 C2976 1.386 . S
C2980 C2975 1.490 . S
C2980 C2982 1.395 . S
C2980 C2983 1.403 . S
H2981 C2987 0.930 . S
C2982 H2968 0.930 . S
C2982 C2980 1.395 . S
C2982 C2985 1.403 . S
C2983 C2980 1.403 . S
C2983 C2984 1.524 . S
C2983 C2987 1.400 . S
C2984 H2969 0.960 . S
C2984 H2970 0.960 . S
C2984 H2971 0.960 . S
C2984 C2983 1.524 . S
C2985 C2982 1.403 . S
C2985 C2986 1.392 . S
C2985 C2989 1.495 . S
C2986 C2985 1.392 . S
C2986 C2987 1.385 . S
C2986 C2988 1.478 . S
C2987 H2981 0.930 . S
C2987 C2983 1.400 . S
C2987 C2986 1.385 . S
C2988 C2986 1.478 . S
C2988 C2990 1.381 . S
C2988 C2994 1.383 . S
C2989 C2985 1.495 . S
C2989 H2995 0.959 . S
C2989 H2996 0.961 . S
C2989 H2997 0.960 . S
C2990 C2988 1.381 . S
C2990 C2991 1.394 . S
C2990 H2998 0.930 . S
C2991 C2990 1.394 . S
C2991 C2992 1.383 . S
C2991 H2999 0.929 . S
C2992 C2991 1.383 . S
C2992 C2993 1.377 . S
C2993 H2977 0.930 . S
C2993 C2992 1.377 . S
C2993 C2994 1.379 . S
C2994 H2978 0.931 . S
C2994 C2988 1.383 . S
C2994 C2993 1.379 . S
H2995 C2989 0.959 . S
H2996 C2989 0.961 . S
H2997 C2989 0.960 . S
H2998 C2990 0.930 . S
H2999 C2991 0.929 . S
H3000 C3008 0.929 . S
H3001 C3010 0.930 . S
H3002 C3012 0.930 . S
H3003 C3015 0.929 . S
H3004 C3018 0.930 . S
H3005 C3020 0.960 . S
H3006 C3020 0.960 . S
H3007 C3020 0.960 . S
C3008 H3000 0.929 . S
C3008 C3009 1.377 . S
C3008 C3010 1.384 . S
C3009 C3008 1.377 . S
C3009 C3015 1.390 . S
C3010 H3001 0.930 . S
C3010 C3008 1.384 . S
C3010 C3011 1.372 . S
C3011 C3010 1.372 . S
C3011 C3012 1.400 . S
C3011 C3016 1.490 . S
C3012 H3002 0.930 . S
C3012 C3011 1.400 . S
C3012 C3015 1.386 . S
H3013 C3029 0.930 . S
H3014 C3030 0.931 . S
C3015 H3003 0.929 . S
C3015 C3009 1.390 . S
C3015 C3012 1.386 . S
C3016 C3011 1.490 . S
C3016 C3018 1.395 . S
C3016 C3019 1.403 . S
H3017 C3023 0.930 . S
C3018 H3004 0.930 . S
C3018 C3016 1.395 . S
C3018 C3021 1.403 . S
C3019 C3016 1.403 . S
C3019 C3020 1.524 . S
C3019 C3023 1.400 . S
C3020 H3005 0.960 . S
C3020 H3006 0.960 . S
C3020 H3007 0.960 . S
C3020 C3019 1.524 . S
C3021 C3018 1.403 . S
C3021 C3022 1.392 . S
C3021 C3025 1.495 . S
C3022 C3021 1.392 . S
C3022 C3023 1.385 . S
C3022 C3024 1.478 . S
C3023 H3017 0.930 . S
C3023 C3019 1.400 . S
C3023 C3022 1.385 . S
C3024 C3022 1.478 . S
C3024 C3026 1.381 . S
C3024 C3030 1.383 . S
C3025 C3021 1.495 . S
C3025 H3031 0.959 . S
C3025 H3032 0.961 . S
C3025 H3033 0.960 . S
C3026 C3024 1.381 . S
C3026 C3027 1.394 . S
C3026 H3034 0.930 . S
C3027 C3026 1.394 . S
C3027 C3028 1.383 . S
C3027 H3035 0.929 . S
C3028 C3027 1.383 . S
C3028 C3029 1.377 . S
C3029 H3013 0.930 . S
C3029 C3028 1.377 . S
C3029 C3030 1.379 . S
C3030 H3014 0.931 . S
C3030 C3024 1.383 . S
C3030 C3029 1.379 . S
H3031 C3025 0.959 . S
H3032 C3025 0.961 . S
H3033 C3025 0.960 . S
H3034 C3026 0.930 . S
H3035 C3027 0.929 . S
H3036 C3044 0.929 . S
H3037 C3046 0.930 . S
H3038 C3048 0.930 . S
H3039 C3051 0.929 . S
H3040 C3054 0.930 . S
H3041 C3056 0.960 . S
H3042 C3056 0.960 . S
H3043 C3056 0.960 . S
C3044 H3036 0.929 . S
C3044 C3045 1.377 . S
C3044 C3046 1.384 . S
C3045 C3044 1.377 . S
C3045 C3051 1.390 . S
C3046 H3037 0.930 . S
C3046 C3044 1.384 . S
C3046 C3047 1.372 . S
C3047 C3046 1.372 . S
C3047 C3048 1.400 . S
C3047 C3052 1.490 . S
C3048 H3038 0.930 . S
C3048 C3047 1.400 . S
C3048 C3051 1.386 . S
H3049 C3065 0.930 . S
H3050 C3066 0.931 . S
C3051 H3039 0.929 . S
C3051 C3045 1.390 . S
C3051 C3048 1.386 . S
C3052 C3047 1.490 . S
C3052 C3054 1.395 . S
C3052 C3055 1.403 . S
H3053 C3059 0.930 . S
C3054 H3040 0.930 . S
C3054 C3052 1.395 . S
C3054 C3057 1.403 . S
C3055 C3052 1.403 . S
C3055 C3056 1.524 . S
C3055 C3059 1.400 . S
C3056 H3041 0.960 . S
C3056 H3042 0.960 . S
C3056 H3043 0.960 . S
C3056 C3055 1.524 . S
C3057 C3054 1.403 . S
C3057 C3058 1.392 . S
C3057 C3061 1.495 . S
C3058 C3057 1.392 . S
C3058 C3059 1.385 . S
C3058 C3060 1.478 . S
C3059 H3053 0.930 . S
C3059 C3055 1.400 . S
C3059 C3058 1.385 . S
C3060 C3058 1.478 . S
C3060 C3062 1.381 . S
C3060 C3066 1.383 . S
C3061 C3057 1.495 . S
C3061 H3067 0.959 . S
C3061 H3068 0.961 . S
C3061 H3069 0.960 . S
C3062 C3060 1.381 . S
C3062 C3063 1.394 . S
C3062 H3070 0.930 . S
C3063 C3062 1.394 . S
C3063 C3064 1.383 . S
C3063 H3071 0.929 . S
C3064 C3063 1.383 . S
C3064 C3065 1.377 . S
C3065 H3049 0.930 . S
C3065 C3064 1.377 . S
C3065 C3066 1.379 . S
C3066 H3050 0.931 . S
C3066 C3060 1.383 . S
C3066 C3065 1.379 . S
H3067 C3061 0.959 . S
H3068 C3061 0.961 . S
H3069 C3061 0.960 . S
H3070 C3062 0.930 . S
H3071 C3063 0.929 . S
H3072 C3080 0.929 . S
H3073 C3082 0.930 . S
H3074 C3084 0.930 . S
H3075 C3087 0.929 . S
H3076 C3090 0.930 . S
H3077 C3092 0.960 . S
H3078 C3092 0.960 . S
H3079 C3092 0.960 . S
C3080 H3072 0.929 . S
C3080 C3081 1.377 . S
C3080 C3082 1.384 . S
C3081 C3080 1.377 . S
C3081 C3087 1.390 . S
C3082 H3073 0.930 . S
C3082 C3080 1.384 . S
C3082 C3083 1.372 . S
C3083 C3082 1.372 . S
C3083 C3084 1.400 . S
C3083 C3088 1.490 . S
C3084 H3074 0.930 . S
C3084 C3083 1.400 . S
C3084 C3087 1.386 . S
H3085 C3101 0.930 . S
H3086 C3102 0.931 . S
C3087 H3075 0.929 . S
C3087 C3081 1.390 . S
C3087 C3084 1.386 . S
C3088 C3083 1.490 . S
C3088 C3090 1.395 . S
C3088 C3091 1.403 . S
H3089 C3095 0.930 . S
C3090 H3076 0.930 . S
C3090 C3088 1.395 . S
C3090 C3093 1.403 . S
C3091 C3088 1.403 . S
C3091 C3092 1.524 . S
C3091 C3095 1.400 . S
C3092 H3077 0.960 . S
C3092 H3078 0.960 . S
C3092 H3079 0.960 . S
C3092 C3091 1.524 . S
C3093 C3090 1.403 . S
C3093 C3094 1.392 . S
C3093 C3097 1.495 . S
C3094 C3093 1.392 . S
C3094 C3095 1.385 . S
C3094 C3096 1.478 . S
C3095 H3089 0.930 . S
C3095 C3091 1.400 . S
C3095 C3094 1.385 . S
C3096 C3094 1.478 . S
C3096 C3098 1.381 . S
C3096 C3102 1.383 . S
C3097 C3093 1.495 . S
C3097 H3103 0.959 . S
C3097 H3104 0.961 . S
C3097 H3105 0.960 . S
C3098 C3096 1.381 . S
C3098 C3099 1.394 . S
C3098 H3106 0.930 . S
C3099 C3098 1.394 . S
C3099 C3100 1.383 . S
C3099 H3107 0.929 . S
C3100 C3099 1.383 . S
C3100 C3101 1.377 . S
C3101 H3085 0.930 . S
C3101 C3100 1.377 . S
C3101 C3102 1.379 . S
C3102 H3086 0.931 . S
C3102 C3096 1.383 . S
C3102 C3101 1.379 . S
H3103 C3097 0.959 . S
H3104 C3097 0.961 . S
H3105 C3097 0.960 . S
H3106 C3098 0.930 . S
H3107 C3099 0.929 . S
H3108 C3116 0.929 . S
H3109 C3118 0.930 . S
H3110 C3120 0.930 . S
H3111 C3123 0.929 . S
H3112 C3126 0.930 . S
H3113 C3128 0.960 . S
H3114 C3128 0.960 . S
H3115 C3128 0.960 . S
C3116 H3108 0.929 . S
C3116 C3117 1.377 . S
C3116 C3118 1.384 . S
C3117 C3116 1.377 . S
C3117 C3123 1.390 . S
C3118 H3109 0.930 . S
C3118 C3116 1.384 . S
C3118 C3119 1.372 . S
C3119 C3118 1.372 . S
C3119 C3120 1.400 . S
C3119 C3124 1.490 . S
C3120 H3110 0.930 . S
C3120 C3119 1.400 . S
C3120 C3123 1.386 . S
H3121 C3137 0.930 . S
H3122 C3138 0.931 . S
C3123 H3111 0.929 . S
C3123 C3117 1.390 . S
C3123 C3120 1.386 . S
C3124 C3119 1.490 . S
C3124 C3126 1.395 . S
C3124 C3127 1.403 . S
H3125 C3131 0.930 . S
C3126 H3112 0.930 . S
C3126 C3124 1.395 . S
C3126 C3129 1.403 . S
C3127 C3124 1.403 . S
C3127 C3128 1.524 . S
C3127 C3131 1.400 . S
C3128 H3113 0.960 . S
C3128 H3114 0.960 . S
C3128 H3115 0.960 . S
C3128 C3127 1.524 . S
C3129 C3126 1.403 . S
C3129 C3130 1.392 . S
C3129 C3133 1.495 . S
C3130 C3129 1.392 . S
C3130 C3131 1.385 . S
C3130 C3132 1.478 . S
C3131 H3125 0.930 . S
C3131 C3127 1.400 . S
C3131 C3130 1.385 . S
C3132 C3130 1.478 . S
C3132 C3134 1.381 . S
C3132 C3138 1.383 . S
C3133 C3129 1.495 . S
C3133 H3139 0.959 . S
C3133 H3140 0.961 . S
C3133 H3141 0.960 . S
C3134 C3132 1.381 . S
C3134 C3135 1.394 . S
C3134 H3142 0.930 . S
C3135 C3134 1.394 . S
C3135 C3136 1.383 . S
C3135 H3143 0.929 . S
C3136 C3135 1.383 . S
C3136 C3137 1.377 . S
C3137 H3121 0.930 . S
C3137 C3136 1.377 . S
C3137 C3138 1.379 . S
C3138 H3122 0.931 . S
C3138 C3132 1.383 . S
C3138 C3137 1.379 . S
H3139 C3133 0.959 . S
H3140 C3133 0.961 . S
H3141 C3133 0.960 . S
H3142 C3134 0.930 . S
H3143 C3135 0.929 . S
H3144 C3152 0.929 . S
H3145 C3154 0.930 . S
H3146 C3156 0.930 . S
H3147 C3159 0.929 . S
H3148 C3162 0.930 . S
H3149 C3164 0.960 . S
H3150 C3164 0.960 . S
H3151 C3164 0.960 . S
C3152 H3144 0.929 . S
C3152 C3153 1.377 . S
C3152 C3154 1.384 . S
C3153 C3152 1.377 . S
C3153 C3159 1.390 . S
C3154 H3145 0.930 . S
C3154 C3152 1.384 . S
C3154 C3155 1.372 . S
C3155 C3154 1.372 . S
C3155 C3156 1.400 . S
C3155 C3160 1.490 . S
C3156 H3146 0.930 . S
C3156 C3155 1.400 . S
C3156 C3159 1.386 . S
H3157 C3173 0.930 . S
H3158 C3174 0.931 . S
C3159 H3147 0.929 . S
C3159 C3153 1.390 . S
C3159 C3156 1.386 . S
C3160 C3155 1.490 . S
C3160 C3162 1.395 . S
C3160 C3163 1.403 . S
H3161 C3167 0.930 . S
C3162 H3148 0.930 . S
C3162 C3160 1.395 . S
C3162 C3165 1.403 . S
C3163 C3160 1.403 . S
C3163 C3164 1.524 . S
C3163 C3167 1.400 . S
C3164 H3149 0.960 . S
C3164 H3150 0.960 . S
C3164 H3151 0.960 . S
C3164 C3163 1.524 . S
C3165 C3162 1.403 . S
C3165 C3166 1.392 . S
C3165 C3169 1.495 . S
C3166 C3165 1.392 . S
C3166 C3167 1.385 . S
C3166 C3168 1.478 . S
C3167 H3161 0.930 . S
C3167 C3163 1.400 . S
C3167 C3166 1.385 . S
C3168 C3166 1.478 . S
C3168 C3170 1.381 . S
C3168 C3174 1.383 . S
C3169 C3165 1.495 . S
C3169 H3175 0.959 . S
C3169 H3176 0.961 . S
C3169 H3177 0.960 . S
C3170 C3168 1.381 . S
C3170 C3171 1.394 . S
C3170 H3178 0.930 . S
C3171 C3170 1.394 . S
C3171 C3172 1.383 . S
C3171 H3179 0.929 . S
C3172 C3171 1.383 . S
C3172 C3173 1.377 . S
C3173 H3157 0.930 . S
C3173 C3172 1.377 . S
C3173 C3174 1.379 . S
C3174 H3158 0.931 . S
C3174 C3168 1.383 . S
C3174 C3173 1.379 . S
H3175 C3169 0.959 . S
H3176 C3169 0.961 . S
H3177 C3169 0.960 . S
H3178 C3170 0.930 . S
H3179 C3171 0.929 . S
H3180 C3188 0.929 . S
H3181 C3190 0.930 . S
H3182 C3192 0.930 . S
H3183 C3195 0.929 . S
H3184 C3198 0.930 . S
H3185 C3200 0.960 . S
H3186 C3200 0.960 . S
H3187 C3200 0.960 . S
C3188 H3180 0.929 . S
C3188 C3189 1.377 . S
C3188 C3190 1.384 . S
C3189 C3188 1.377 . S
C3189 C3195 1.390 . S
C3190 H3181 0.930 . S
C3190 C3188 1.384 . S
C3190 C3191 1.372 . S
C3191 C3190 1.372 . S
C3191 C3192 1.400 . S
C3191 C3196 1.490 . S
C3192 H3182 0.930 . S
C3192 C3191 1.400 . S
C3192 C3195 1.386 . S
H3193 C3209 0.930 . S
H3194 C3210 0.931 . S
C3195 H3183 0.929 . S
C3195 C3189 1.390 . S
C3195 C3192 1.386 . S
C3196 C3191 1.490 . S
C3196 C3198 1.395 . S
C3196 C3199 1.403 . S
H3197 C3203 0.930 . S
C3198 H3184 0.930 . S
C3198 C3196 1.395 . S
C3198 C3201 1.403 . S
C3199 C3196 1.403 . S
C3199 C3200 1.524 . S
C3199 C3203 1.400 . S
C3200 H3185 0.960 . S
C3200 H3186 0.960 . S
C3200 H3187 0.960 . S
C3200 C3199 1.524 . S
C3201 C3198 1.403 . S
C3201 C3202 1.392 . S
C3201 C3205 1.495 . S
C3202 C3201 1.392 . S
C3202 C3203 1.385 . S
C3202 C3204 1.478 . S
C3203 H3197 0.930 . S
C3203 C3199 1.400 . S
C3203 C3202 1.385 . S
C3204 C3202 1.478 . S
C3204 C3206 1.381 . S
C3204 C3210 1.383 . S
C3205 C3201 1.495 . S
C3205 H3211 0.959 . S
C3205 H3212 0.961 . S
C3205 H3213 0.960 . S
C3206 C3204 1.381 . S
C3206 C3207 1.394 . S
C3206 H3214 0.930 . S
C3207 C3206 1.394 . S
C3207 C3208 1.383 . S
C3207 H3215 0.929 . S
C3208 C3207 1.383 . S
C3208 C3209 1.377 . S
C3209 H3193 0.930 . S
C3209 C3208 1.377 . S
C3209 C3210 1.379 . S
C3210 H3194 0.931 . S
C3210 C3204 1.383 . S
C3210 C3209 1.379 . S
H3211 C3205 0.959 . S
H3212 C3205 0.961 . S
H3213 C3205 0.960 . S
H3214 C3206 0.930 . S
H3215 C3207 0.929 . S
H3216 C3224 0.929 . S
H3217 C3226 0.930 . S
H3218 C3228 0.930 . S
H3219 C3231 0.929 . S
H3220 C3234 0.930 . S
H3221 C3236 0.960 . S
H3222 C3236 0.960 . S
H3223 C3236 0.960 . S
C3224 H3216 0.929 . S
C3224 C3225 1.377 . S
C3224 C3226 1.384 . S
C3225 C3224 1.377 . S
C3225 C3231 1.390 . S
C3226 H3217 0.930 . S
C3226 C3224 1.384 . S
C3226 C3227 1.372 . S
C3227 C3226 1.372 . S
C3227 C3228 1.400 . S
C3227 C3232 1.490 . S
C3228 H3218 0.930 . S
C3228 C3227 1.400 . S
C3228 C3231 1.386 . S
H3229 C3245 0.930 . S
H3230 C3246 0.931 . S
C3231 H3219 0.929 . S
C3231 C3225 1.390 . S
C3231 C3228 1.386 . S
C3232 C3227 1.490 . S
C3232 C3234 1.395 . S
C3232 C3235 1.403 . S
H3233 C3239 0.930 . S
C3234 H3220 0.930 . S
C3234 C3232 1.395 . S
C3234 C3237 1.403 . S
C3235 C3232 1.403 . S
C3235 C3236 1.524 . S
C3235 C3239 1.400 . S
C3236 H3221 0.960 . S
C3236 H3222 0.960 . S
C3236 H3223 0.960 . S
C3236 C3235 1.524 . S
C3237 C3234 1.403 . S
C3237 C3238 1.392 . S
C3237 C3241 1.495 . S
C3238 C3237 1.392 . S
C3238 C3239 1.385 . S
C3238 C3240 1.478 . S
C3239 H3233 0.930 . S
C3239 C3235 1.400 . S
C3239 C3238 1.385 . S
C3240 C3238 1.478 . S
C3240 C3242 1.381 . S
C3240 C3246 1.383 . S
C3241 C3237 1.495 . S
C3241 H3247 0.959 . S
C3241 H3248 0.961 . S
C3241 H3249 0.960 . S
C3242 C3240 1.381 . S
C3242 C3243 1.394 . S
C3242 H3250 0.930 . S
C3243 C3242 1.394 . S
C3243 C3244 1.383 . S
C3243 H3251 0.929 . S
C3244 C3243 1.383 . S
C3244 C3245 1.377 . S
C3245 H3229 0.930 . S
C3245 C3244 1.377 . S
C3245 C3246 1.379 . S
C3246 H3230 0.931 . S
C3246 C3240 1.383 . S
C3246 C3245 1.379 . S
H3247 C3241 0.959 . S
H3248 C3241 0.961 . S
H3249 C3241 0.960 . S
H3250 C3242 0.930 . S
H3251 C3243 0.929 . S
H3252 C3260 0.929 . S
H3253 C3262 0.930 . S
H3254 C3264 0.930 . S
H3255 C3267 0.929 . S
H3256 C3270 0.930 . S
H3257 C3272 0.960 . S
H3258 C3272 0.960 . S
H3259 C3272 0.960 . S
C3260 H3252 0.929 . S
C3260 C3261 1.377 . S
C3260 C3262 1.384 . S
C3261 C3260 1.377 . S
C3261 C3267 1.390 . S
C3262 H3253 0.930 . S
C3262 C3260 1.384 . S
C3262 C3263 1.372 . S
C3263 C3262 1.372 . S
C3263 C3264 1.400 . S
C3263 C3268 1.490 . S
C3264 H3254 0.930 . S
C3264 C3263 1.400 . S
C3264 C3267 1.386 . S
H3265 C3281 0.930 . S
H3266 C3282 0.931 . S
C3267 H3255 0.929 . S
C3267 C3261 1.390 . S
C3267 C3264 1.386 . S
C3268 C3263 1.490 . S
C3268 C3270 1.395 . S
C3268 C3271 1.403 . S
H3269 C3275 0.930 . S
C3270 H3256 0.930 . S
C3270 C3268 1.395 . S
C3270 C3273 1.403 . S
C3271 C3268 1.403 . S
C3271 C3272 1.524 . S
C3271 C3275 1.400 . S
C3272 H3257 0.960 . S
C3272 H3258 0.960 . S
C3272 H3259 0.960 . S
C3272 C3271 1.524 . S
C3273 C3270 1.403 . S
C3273 C3274 1.392 . S
C3273 C3277 1.495 . S
C3274 C3273 1.392 . S
C3274 C3275 1.385 . S
C3274 C3276 1.478 . S
C3275 H3269 0.930 . S
C3275 C3271 1.400 . S
C3275 C3274 1.385 . S
C3276 C3274 1.478 . S
C3276 C3278 1.381 . S
C3276 C3282 1.383 . S
C3277 C3273 1.495 . S
C3277 H3283 0.959 . S
C3277 H3284 0.961 . S
C3277 H3285 0.960 . S
C3278 C3276 1.381 . S
C3278 C3279 1.394 . S
C3278 H3286 0.930 . S
C3279 C3278 1.394 . S
C3279 C3280 1.383 . S
C3279 H3287 0.929 . S
C3280 C3279 1.383 . S
C3280 C3281 1.377 . S
C3281 H3265 0.930 . S
C3281 C3280 1.377 . S
C3281 C3282 1.379 . S
C3282 H3266 0.931 . S
C3282 C3276 1.383 . S
C3282 C3281 1.379 . S
H3283 C3277 0.959 . S
H3284 C3277 0.961 . S
H3285 C3277 0.960 . S
H3286 C3278 0.930 . S
H3287 C3279 0.929 . S
H3288 C3296 0.929 . S
H3289 C3298 0.930 . S
H3290 C3300 0.930 . S
H3291 C3303 0.929 . S
H3292 C3306 0.930 . S
H3293 C3308 0.960 . S
H3294 C3308 0.960 . S
H3295 C3308 0.960 . S
C3296 H3288 0.929 . S
C3296 C3297 1.377 . S
C3296 C3298 1.384 . S
C3297 C3296 1.377 . S
C3297 C3303 1.390 . S
C3298 H3289 0.930 . S
C3298 C3296 1.384 . S
C3298 C3299 1.372 . S
C3299 C3298 1.372 . S
C3299 C3300 1.400 . S
C3299 C3304 1.490 . S
C3300 H3290 0.930 . S
C3300 C3299 1.400 . S
C3300 C3303 1.386 . S
H3301 C3317 0.930 . S
H3302 C3318 0.931 . S
C3303 H3291 0.929 . S
C3303 C3297 1.390 . S
C3303 C3300 1.386 . S
C3304 C3299 1.490 . S
C3304 C3306 1.395 . S
C3304 C3307 1.403 . S
H3305 C3311 0.930 . S
C3306 H3292 0.930 . S
C3306 C3304 1.395 . S
C3306 C3309 1.403 . S
C3307 C3304 1.403 . S
C3307 C3308 1.524 . S
C3307 C3311 1.400 . S
C3308 H3293 0.960 . S
C3308 H3294 0.960 . S
C3308 H3295 0.960 . S
C3308 C3307 1.524 . S
C3309 C3306 1.403 . S
C3309 C3310 1.392 . S
C3309 C3313 1.495 . S
C3310 C3309 1.392 . S
C3310 C3311 1.385 . S
C3310 C3312 1.478 . S
C3311 H3305 0.930 . S
C3311 C3307 1.400 . S
C3311 C3310 1.385 . S
C3312 C3310 1.478 . S
C3312 C3314 1.381 . S
C3312 C3318 1.383 . S
C3313 C3309 1.495 . S
C3313 H3319 0.959 . S
C3313 H3320 0.961 . S
C3313 H3321 0.960 . S
C3314 C3312 1.381 . S
C3314 C3315 1.394 . S
C3314 H3322 0.930 . S
C3315 C3314 1.394 . S
C3315 C3316 1.383 . S
C3315 H3323 0.929 . S
C3316 C3315 1.383 . S
C3316 C3317 1.377 . S
C3317 H3301 0.930 . S
C3317 C3316 1.377 . S
C3317 C3318 1.379 . S
C3318 H3302 0.931 . S
C3318 C3312 1.383 . S
C3318 C3317 1.379 . S
H3319 C3313 0.959 . S
H3320 C3313 0.961 . S
H3321 C3313 0.960 . S
H3322 C3314 0.930 . S
H3323 C3315 0.929 . S
H3324 C3332 0.929 . S
H3325 C3334 0.930 . S
H3326 C3336 0.930 . S
H3327 C3339 0.929 . S
H3328 C3342 0.930 . S
H3329 C3344 0.960 . S
H3330 C3344 0.960 . S
H3331 C3344 0.960 . S
C3332 H3324 0.929 . S
C3332 C3333 1.377 . S
C3332 C3334 1.384 . S
C3333 C3332 1.377 . S
C3333 C3339 1.390 . S
C3334 H3325 0.930 . S
C3334 C3332 1.384 . S
C3334 C3335 1.372 . S
C3335 C3334 1.372 . S
C3335 C3336 1.400 . S
C3335 C3340 1.490 . S
C3336 H3326 0.930 . S
C3336 C3335 1.400 . S
C3336 C3339 1.386 . S
H3337 C3353 0.930 . S
H3338 C3354 0.931 . S
C3339 H3327 0.929 . S
C3339 C3333 1.390 . S
C3339 C3336 1.386 . S
C3340 C3335 1.490 . S
C3340 C3342 1.395 . S
C3340 C3343 1.403 . S
H3341 C3347 0.930 . S
C3342 H3328 0.930 . S
C3342 C3340 1.395 . S
C3342 C3345 1.403 . S
C3343 C3340 1.403 . S
C3343 C3344 1.524 . S
C3343 C3347 1.400 . S
C3344 H3329 0.960 . S
C3344 H3330 0.960 . S
C3344 H3331 0.960 . S
C3344 C3343 1.524 . S
C3345 C3342 1.403 . S
C3345 C3346 1.392 . S
C3345 C3349 1.495 . S
C3346 C3345 1.392 . S
C3346 C3347 1.385 . S
C3346 C3348 1.478 . S
C3347 H3341 0.930 . S
C3347 C3343 1.400 . S
C3347 C3346 1.385 . S
C3348 C3346 1.478 . S
C3348 C3350 1.381 . S
C3348 C3354 1.383 . S
C3349 C3345 1.495 . S
C3349 H3355 0.959 . S
C3349 H3356 0.961 . S
C3349 H3357 0.960 . S
C3350 C3348 1.381 . S
C3350 C3351 1.394 . S
C3350 H3358 0.930 . S
C3351 C3350 1.394 . S
C3351 C3352 1.383 . S
C3351 H3359 0.929 . S
C3352 C3351 1.383 . S
C3352 C3353 1.377 . S
C3353 H3337 0.930 . S
C3353 C3352 1.377 . S
C3353 C3354 1.379 . S
C3354 H3338 0.931 . S
C3354 C3348 1.383 . S
C3354 C3353 1.379 . S
H3355 C3349 0.959 . S
H3356 C3349 0.961 . S
H3357 C3349 0.960 . S
H3358 C3350 0.930 . S
H3359 C3351 0.929 . S
H3360 C3368 0.929 . S
H3361 C3370 0.930 . S
H3362 C3372 0.930 . S
H3363 C3375 0.929 . S
H3364 C3378 0.930 . S
H3365 C3380 0.960 . S
H3366 C3380 0.960 . S
H3367 C3380 0.960 . S
C3368 H3360 0.929 . S
C3368 C3369 1.377 . S
C3368 C3370 1.384 . S
C3369 C3368 1.377 . S
C3369 C3375 1.390 . S
C3370 H3361 0.930 . S
C3370 C3368 1.384 . S
C3370 C3371 1.372 . S
C3371 C3370 1.372 . S
C3371 C3372 1.400 . S
C3371 C3376 1.490 . S
C3372 H3362 0.930 . S
C3372 C3371 1.400 . S
C3372 C3375 1.386 . S
H3373 C3389 0.930 . S
H3374 C3390 0.931 . S
C3375 H3363 0.929 . S
C3375 C3369 1.390 . S
C3375 C3372 1.386 . S
C3376 C3371 1.490 . S
C3376 C3378 1.395 . S
C3376 C3379 1.403 . S
H3377 C3383 0.930 . S
C3378 H3364 0.930 . S
C3378 C3376 1.395 . S
C3378 C3381 1.403 . S
C3379 C3376 1.403 . S
C3379 C3380 1.524 . S
C3379 C3383 1.400 . S
C3380 H3365 0.960 . S
C3380 H3366 0.960 . S
C3380 H3367 0.960 . S
C3380 C3379 1.524 . S
C3381 C3378 1.403 . S
C3381 C3382 1.392 . S
C3381 C3385 1.495 . S
C3382 C3381 1.392 . S
C3382 C3383 1.385 . S
C3382 C3384 1.478 . S
C3383 H3377 0.930 . S
C3383 C3379 1.400 . S
C3383 C3382 1.385 . S
C3384 C3382 1.478 . S
C3384 C3386 1.381 . S
C3384 C3390 1.383 . S
C3385 C3381 1.495 . S
C3385 H3391 0.959 . S
C3385 H3392 0.961 . S
C3385 H3393 0.960 . S
C3386 C3384 1.381 . S
C3386 C3387 1.394 . S
C3386 H3394 0.930 . S
C3387 C3386 1.394 . S
C3387 C3388 1.383 . S
C3387 H3395 0.929 . S
C3388 C3387 1.383 . S
C3388 C3389 1.377 . S
C3389 H3373 0.930 . S
C3389 C3388 1.377 . S
C3389 C3390 1.379 . S
C3390 H3374 0.931 . S
C3390 C3384 1.383 . S
C3390 C3389 1.379 . S
H3391 C3385 0.959 . S
H3392 C3385 0.961 . S
H3393 C3385 0.960 . S
H3394 C3386 0.930 . S
H3395 C3387 0.929 . S
H3396 C3404 0.929 . S
H3397 C3406 0.930 . S
H3398 C3408 0.930 1_455 S
H3399 C3411 0.929 . S
H3400 C3414 0.930 . S
H3401 C3416 0.960 . S
H3402 C3416 0.960 . S
H3403 C3416 0.960 . S
C3404 H3396 0.929 . S
C3404 C3405 1.377 . S
C3404 C3406 1.384 . S
C3405 C3404 1.377 . S
C3405 C3411 1.390 . S
C3406 H3397 0.930 . S
C3406 C3404 1.384 . S
C3406 C3407 1.372 . S
C3407 C3406 1.372 . S
C3407 C3408 1.400 . S
C3407 C3412 1.490 . S
C3408 H3398 0.930 1_655 S
C3408 C3407 1.400 . S
C3408 C3411 1.386 . S
H3409 C3425 0.930 . S
H3410 C3426 0.931 . S
C3411 H3399 0.929 . S
C3411 C3405 1.390 . S
C3411 C3408 1.386 . S
C3412 C3407 1.490 . S
C3412 C3414 1.395 . S
C3412 C3415 1.403 1_655 S
H3413 C3419 0.930 . S
C3414 H3400 0.930 . S
C3414 C3412 1.395 . S
C3414 C3417 1.403 . S
C3415 C3412 1.403 1_455 S
C3415 C3416 1.524 . S
C3415 C3419 1.400 . S
C3416 H3401 0.960 . S
C3416 H3402 0.960 . S
C3416 H3403 0.960 . S
C3416 C3415 1.524 . S
C3417 C3414 1.403 . S
C3417 C3418 1.392 1_655 S
C3417 C3421 1.495 . S
C3418 C3417 1.392 1_455 S
C3418 C3419 1.385 . S
C3418 C3420 1.478 . S
C3419 H3413 0.930 . S
C3419 C3415 1.400 . S
C3419 C3418 1.385 . S
C3420 C3418 1.478 . S
C3420 C3422 1.381 . S
C3420 C3426 1.383 . S
C3421 C3417 1.495 . S
C3421 H3427 0.959 . S
C3421 H3428 0.961 . S
C3421 H3429 0.960 . S
C3422 C3420 1.381 . S
C3422 C3423 1.394 . S
C3422 H3430 0.930 1_455 S
C3423 C3422 1.394 . S
C3423 C3424 1.383 . S
C3423 H3431 0.929 . S
C3424 C3423 1.383 . S
C3424 C3425 1.377 . S
C3425 H3409 0.930 . S
C3425 C3424 1.377 . S
C3425 C3426 1.379 . S
C3426 H3410 0.931 . S
C3426 C3420 1.383 . S
C3426 C3425 1.379 . S
H3427 C3421 0.959 . S
H3428 C3421 0.961 . S
H3429 C3421 0.960 . S
H3430 C3422 0.930 1_655 S
H3431 C3423 0.929 . S
H3432 C3440 0.929 . S
H3433 C3442 0.930 . S
H3434 C3444 0.930 . S
H3435 C3447 0.929 . S
H3436 C3450 0.930 . S
H3437 C3452 0.960 . S
H3438 C3452 0.960 . S
H3439 C3452 0.960 . S
C3440 H3432 0.929 . S
C3440 C3441 1.377 . S
C3440 C3442 1.384 . S
C3441 C3440 1.377 . S
C3441 C3447 1.390 . S
C3442 H3433 0.930 . S
C3442 C3440 1.384 . S
C3442 C3443 1.372 . S
C3443 C3442 1.372 . S
C3443 C3444 1.400 . S
C3443 C3448 1.490 . S
C3444 H3434 0.930 . S
C3444 C3443 1.400 . S
C3444 C3447 1.386 . S
H3445 C3461 0.930 . S
H3446 C3462 0.931 . S
C3447 H3435 0.929 . S
C3447 C3441 1.390 . S
C3447 C3444 1.386 . S
C3448 C3443 1.490 . S
C3448 C3450 1.395 . S
C3448 C3451 1.403 . S
H3449 C3455 0.930 . S
C3450 H3436 0.930 . S
C3450 C3448 1.395 . S
C3450 C3453 1.403 1_455 S
C3451 C3448 1.403 . S
C3451 C3452 1.524 . S
C3451 C3455 1.400 1_455 S
C3452 H3437 0.960 . S
C3452 H3438 0.960 . S
C3452 H3439 0.960 . S
C3452 C3451 1.524 . S
C3453 C3450 1.403 1_655 S
C3453 C3454 1.392 . S
C3453 C3457 1.495 . S
C3454 C3453 1.392 . S
C3454 C3455 1.385 . S
C3454 C3456 1.478 . S
C3455 H3449 0.930 . S
C3455 C3451 1.400 1_655 S
C3455 C3454 1.385 . S
C3456 C3454 1.478 . S
C3456 C3458 1.381 . S
C3456 C3462 1.383 . S
C3457 C3453 1.495 . S
C3457 H3463 0.959 . S
C3457 H3464 0.961 . S
C3457 H3465 0.960 . S
C3458 C3456 1.381 . S
C3458 C3459 1.394 . S
C3458 H3466 0.930 . S
C3459 C3458 1.394 . S
C3459 C3460 1.383 . S
C3459 H3467 0.929 . S
C3460 C3459 1.383 . S
C3460 C3461 1.377 . S
C3461 H3445 0.930 . S
C3461 C3460 1.377 . S
C3461 C3462 1.379 . S
C3462 H3446 0.931 . S
C3462 C3456 1.383 . S
C3462 C3461 1.379 . S
H3463 C3457 0.959 . S
H3464 C3457 0.961 . S
H3465 C3457 0.960 . S
H3466 C3458 0.930 . S
H3467 C3459 0.929 . S
H3468 C3476 0.929 . S
H3469 C3478 0.930 . S
H3470 C3480 0.930 . S
H3471 C3483 0.929 . S
H3472 C3486 0.930 . S
H3473 C3488 0.960 . S
H3474 C3488 0.960 . S
H3475 C3488 0.960 . S
C3476 H3468 0.929 . S
C3476 C3477 1.377 . S
C3476 C3478 1.384 . S
C3477 C3476 1.377 . S
C3477 C3483 1.390 . S
C3478 H3469 0.930 . S
C3478 C3476 1.384 . S
C3478 C3479 1.372 . S
C3479 C3478 1.372 . S
C3479 C3480 1.400 . S
C3479 C3484 1.490 . S
C3480 H3470 0.930 . S
C3480 C3479 1.400 . S
C3480 C3483 1.386 . S
H3481 C3497 0.930 . S
H3482 C3498 0.931 . S
C3483 H3471 0.929 . S
C3483 C3477 1.390 . S
C3483 C3480 1.386 . S
C3484 C3479 1.490 . S
C3484 C3486 1.395 . S
C3484 C3487 1.403 . S
H3485 C3491 0.930 . S
C3486 H3472 0.930 . S
C3486 C3484 1.395 . S
C3486 C3489 1.403 . S
C3487 C3484 1.403 . S
C3487 C3488 1.524 . S
C3487 C3491 1.400 . S
C3488 H3473 0.960 . S
C3488 H3474 0.960 . S
C3488 H3475 0.960 . S
C3488 C3487 1.524 . S
C3489 C3486 1.403 . S
C3489 C3490 1.392 . S
C3489 C3493 1.495 . S
C3490 C3489 1.392 . S
C3490 C3491 1.385 . S
C3490 C3492 1.478 . S
C3491 H3485 0.930 . S
C3491 C3487 1.400 . S
C3491 C3490 1.385 . S
C3492 C3490 1.478 . S
C3492 C3494 1.381 . S
C3492 C3498 1.383 . S
C3493 C3489 1.495 . S
C3493 H3499 0.959 . S
C3493 H3500 0.961 . S
C3493 H3501 0.960 . S
C3494 C3492 1.381 . S
C3494 C3495 1.394 . S
C3494 H3502 0.930 . S
C3495 C3494 1.394 . S
C3495 C3496 1.383 . S
C3495 H3503 0.929 . S
C3496 C3495 1.383 . S
C3496 C3497 1.377 . S
C3497 H3481 0.930 . S
C3497 C3496 1.377 . S
C3497 C3498 1.379 . S
C3498 H3482 0.931 . S
C3498 C3492 1.383 . S
C3498 C3497 1.379 . S
H3499 C3493 0.959 . S
H3500 C3493 0.961 . S
H3501 C3493 0.960 . S
H3502 C3494 0.930 . S
H3503 C3495 0.929 . S
H3504 C3512 0.929 . S
H3505 C3514 0.930 . S
H3506 C3516 0.930 . S
H3507 C3519 0.929 . S
H3508 C3522 0.930 . S
H3509 C3524 0.960 . S
H3510 C3524 0.960 . S
H3511 C3524 0.960 . S
C3512 H3504 0.929 . S
C3512 C3513 1.377 . S
C3512 C3514 1.384 . S
C3513 C3512 1.377 . S
C3513 C3519 1.390 . S
C3514 H3505 0.930 . S
C3514 C3512 1.384 . S
C3514 C3515 1.372 . S
C3515 C3514 1.372 . S
C3515 C3516 1.400 . S
C3515 C3520 1.490 . S
C3516 H3506 0.930 . S
C3516 C3515 1.400 . S
C3516 C3519 1.386 . S
H3517 C3533 0.930 . S
H3518 C3534 0.931 . S
C3519 H3507 0.929 . S
C3519 C3513 1.390 . S
C3519 C3516 1.386 . S
C3520 C3515 1.490 . S
C3520 C3522 1.395 . S
C3520 C3523 1.403 . S
H3521 C3527 0.930 . S
C3522 H3508 0.930 . S
C3522 C3520 1.395 . S
C3522 C3525 1.403 . S
C3523 C3520 1.403 . S
C3523 C3524 1.524 . S
C3523 C3527 1.400 . S
C3524 H3509 0.960 . S
C3524 H3510 0.960 . S
C3524 H3511 0.960 . S
C3524 C3523 1.524 . S
C3525 C3522 1.403 . S
C3525 C3526 1.392 . S
C3525 C3529 1.495 . S
C3526 C3525 1.392 . S
C3526 C3527 1.385 . S
C3526 C3528 1.478 . S
C3527 H3521 0.930 . S
C3527 C3523 1.400 . S
C3527 C3526 1.385 . S
C3528 C3526 1.478 . S
C3528 C3530 1.381 . S
C3528 C3534 1.383 . S
C3529 C3525 1.495 . S
C3529 H3535 0.959 . S
C3529 H3536 0.961 . S
C3529 H3537 0.960 . S
C3530 C3528 1.381 . S
C3530 C3531 1.394 . S
C3530 H3538 0.930 . S
C3531 C3530 1.394 . S
C3531 C3532 1.383 . S
C3531 H3539 0.929 . S
C3532 C3531 1.383 . S
C3532 C3533 1.377 . S
C3533 H3517 0.930 . S
C3533 C3532 1.377 . S
C3533 C3534 1.379 . S
C3534 H3518 0.931 . S
C3534 C3528 1.383 . S
C3534 C3533 1.379 . S
H3535 C3529 0.959 . S
H3536 C3529 0.961 . S
H3537 C3529 0.960 . S
H3538 C3530 0.930 . S
H3539 C3531 0.929 . S
H3540 C3548 0.929 . S
H3541 C3550 0.930 . S
H3542 C3552 0.930 . S
H3543 C3555 0.929 . S
H3544 C3558 0.930 . S
H3545 C3560 0.960 . S
H3546 C3560 0.960 . S
H3547 C3560 0.960 . S
C3548 H3540 0.929 . S
C3548 C3549 1.377 . S
C3548 C3550 1.384 . S
C3549 C3548 1.377 . S
C3549 C3555 1.390 . S
C3550 H3541 0.930 . S
C3550 C3548 1.384 . S
C3550 C3551 1.372 . S
C3551 C3550 1.372 . S
C3551 C3552 1.400 . S
C3551 C3556 1.490 . S
C3552 H3542 0.930 . S
C3552 C3551 1.400 . S
C3552 C3555 1.386 . S
H3553 C3569 0.930 . S
H3554 C3570 0.931 . S
C3555 H3543 0.929 . S
C3555 C3549 1.390 . S
C3555 C3552 1.386 . S
C3556 C3551 1.490 . S
C3556 C3558 1.395 . S
C3556 C3559 1.403 . S
H3557 C3563 0.930 . S
C3558 H3544 0.930 . S
C3558 C3556 1.395 . S
C3558 C3561 1.403 . S
C3559 C3556 1.403 . S
C3559 C3560 1.524 . S
C3559 C3563 1.400 . S
C3560 H3545 0.960 . S
C3560 H3546 0.960 . S
C3560 H3547 0.960 . S
C3560 C3559 1.524 . S
C3561 C3558 1.403 . S
C3561 C3562 1.392 . S
C3561 C3565 1.495 . S
C3562 C3561 1.392 . S
C3562 C3563 1.385 . S
C3562 C3564 1.478 . S
C3563 H3557 0.930 . S
C3563 C3559 1.400 . S
C3563 C3562 1.385 . S
C3564 C3562 1.478 . S
C3564 C3566 1.381 . S
C3564 C3570 1.383 . S
C3565 C3561 1.495 . S
C3565 H3571 0.959 . S
C3565 H3572 0.961 . S
C3565 H3573 0.960 . S
C3566 C3564 1.381 . S
C3566 C3567 1.394 . S
C3566 H3574 0.930 . S
C3567 C3566 1.394 . S
C3567 C3568 1.383 . S
C3567 H3575 0.929 . S
C3568 C3567 1.383 . S
C3568 C3569 1.377 . S
C3569 H3553 0.930 . S
C3569 C3568 1.377 . S
C3569 C3570 1.379 . S
C3570 H3554 0.931 . S
C3570 C3564 1.383 . S
C3570 C3569 1.379 . S
H3571 C3565 0.959 . S
H3572 C3565 0.961 . S
H3573 C3565 0.960 . S
H3574 C3566 0.930 . S
H3575 C3567 0.929 . S
H3576 C3584 0.929 . S
H3577 C3586 0.930 . S
H3578 C3588 0.930 . S
H3579 C3591 0.929 . S
H3580 C3594 0.930 . S
H3581 C3596 0.960 . S
H3582 C3596 0.960 . S
H3583 C3596 0.960 . S
C3584 H3576 0.929 . S
C3584 C3585 1.377 . S
C3584 C3586 1.384 . S
C3585 C3584 1.377 . S
C3585 C3591 1.390 . S
C3586 H3577 0.930 . S
C3586 C3584 1.384 . S
C3586 C3587 1.372 . S
C3587 C3586 1.372 . S
C3587 C3588 1.400 . S
C3587 C3592 1.490 . S
C3588 H3578 0.930 . S
C3588 C3587 1.400 . S
C3588 C3591 1.386 . S
H3589 C3605 0.930 . S
H3590 C3606 0.931 . S
C3591 H3579 0.929 . S
C3591 C3585 1.390 . S
C3591 C3588 1.386 . S
C3592 C3587 1.490 . S
C3592 C3594 1.395 . S
C3592 C3595 1.403 . S
H3593 C3599 0.930 . S
C3594 H3580 0.930 . S
C3594 C3592 1.395 . S
C3594 C3597 1.403 1_655 S
C3595 C3592 1.403 . S
C3595 C3596 1.524 . S
C3595 C3599 1.400 1_655 S
C3596 H3581 0.960 . S
C3596 H3582 0.960 . S
C3596 H3583 0.960 . S
C3596 C3595 1.524 . S
C3597 C3594 1.403 1_455 S
C3597 C3598 1.392 . S
C3597 C3601 1.495 . S
C3598 C3597 1.392 . S
C3598 C3599 1.385 . S
C3598 C3600 1.478 . S
C3599 H3593 0.930 . S
C3599 C3595 1.400 1_455 S
C3599 C3598 1.385 . S
C3600 C3598 1.478 . S
C3600 C3602 1.381 . S
C3600 C3606 1.383 . S
C3601 C3597 1.495 . S
C3601 H3607 0.959 . S
C3601 H3608 0.961 . S
C3601 H3609 0.960 . S
C3602 C3600 1.381 . S
C3602 C3603 1.394 . S
C3602 H3610 0.930 . S
C3603 C3602 1.394 . S
C3603 C3604 1.383 . S
C3603 H3611 0.929 . S
C3604 C3603 1.383 . S
C3604 C3605 1.377 . S
C3605 H3589 0.930 . S
C3605 C3604 1.377 . S
C3605 C3606 1.379 . S
C3606 H3590 0.931 . S
C3606 C3600 1.383 . S
C3606 C3605 1.379 . S
H3607 C3601 0.959 . S
H3608 C3601 0.961 . S
H3609 C3601 0.960 . S
H3610 C3602 0.930 . S
H3611 C3603 0.929 . S
H3612 C3620 0.929 . S
H3613 C3622 0.930 . S
H3614 C3624 0.930 1_455 S
H3615 C3627 0.929 1_455 S
H3616 C3630 0.930 . S
H3617 C3632 0.960 . S
H3618 C3632 0.960 1_655 S
H3619 C3632 0.960 . S
C3620 H3612 0.929 . S
C3620 C3621 1.377 . S
C3620 C3622 1.384 . S
C3621 C3620 1.377 . S
C3621 C3627 1.390 . S
C3622 H3613 0.930 . S
C3622 C3620 1.384 . S
C3622 C3623 1.372 . S
C3623 C3622 1.372 . S
C3623 C3624 1.400 . S
C3623 C3628 1.490 . S
C3624 H3614 0.930 1_655 S
C3624 C3623 1.400 . S
C3624 C3627 1.386 . S
H3625 C3641 0.930 . S
H3626 C3642 0.931 . S
C3627 H3615 0.929 1_655 S
C3627 C3621 1.390 . S
C3627 C3624 1.386 . S
C3628 C3623 1.490 . S
C3628 C3630 1.395 . S
C3628 C3631 1.403 1_655 S
H3629 C3635 0.930 . S
C3630 H3616 0.930 . S
C3630 C3628 1.395 . S
C3630 C3633 1.403 . S
C3631 C3628 1.403 1_455 S
C3631 C3632 1.524 . S
C3631 C3635 1.400 . S
C3632 H3617 0.960 . S
C3632 H3618 0.960 1_455 S
C3632 H3619 0.960 . S
C3632 C3631 1.524 . S
C3633 C3630 1.403 . S
C3633 C3634 1.392 1_655 S
C3633 C3637 1.495 . S
C3634 C3633 1.392 1_455 S
C3634 C3635 1.385 . S
C3634 C3636 1.478 . S
C3635 H3629 0.930 . S
C3635 C3631 1.400 . S
C3635 C3634 1.385 . S
C3636 C3634 1.478 . S
C3636 C3638 1.381 1_455 S
C3636 C3642 1.383 . S
C3637 C3633 1.495 . S
C3637 H3643 0.959 . S
C3637 H3644 0.963 . S
C3637 H3645 0.960 . S
C3638 C3636 1.381 1_655 S
C3638 C3639 1.394 1_655 S
C3638 H3646 0.930 . S
C3639 C3638 1.394 1_455 S
C3639 C3640 1.383 . S
C3639 H3647 0.929 1_455 S
C3640 C3639 1.383 . S
C3640 C3641 1.377 . S
C3641 H3625 0.930 . S
C3641 C3640 1.377 . S
C3641 C3642 1.379 . S
C3642 H3626 0.931 . S
C3642 C3636 1.383 . S
C3642 C3641 1.379 . S
H3643 C3637 0.959 . S
H3644 C3637 0.963 . S
H3645 C3637 0.960 . S
H3646 C3638 0.930 . S
H3647 C3639 0.929 1_655 S
H3648 C3656 0.929 . S
H3649 C3658 0.930 . S
H3650 C3660 0.930 . S
H3651 C3663 0.929 . S
H3652 C3666 0.930 . S
H3653 C3668 0.960 . S
H3654 C3668 0.960 . S
H3655 C3668 0.960 . S
C3656 H3648 0.929 . S
C3656 C3657 1.377 . S
C3656 C3658 1.384 . S
C3657 C3656 1.377 . S
C3657 C3663 1.390 . S
C3658 H3649 0.930 . S
C3658 C3656 1.384 . S
C3658 C3659 1.372 . S
C3659 C3658 1.372 . S
C3659 C3660 1.400 . S
C3659 C3664 1.490 . S
C3660 H3650 0.930 . S
C3660 C3659 1.400 . S
C3660 C3663 1.386 . S
H3661 C3677 0.930 . S
H3662 C3678 0.931 . S
C3663 H3651 0.929 . S
C3663 C3657 1.390 . S
C3663 C3660 1.386 . S
C3664 C3659 1.490 . S
C3664 C3666 1.395 . S
C3664 C3667 1.403 . S
H3665 C3671 0.930 . S
C3666 H3652 0.930 . S
C3666 C3664 1.395 . S
C3666 C3669 1.403 . S
C3667 C3664 1.403 . S
C3667 C3668 1.524 . S
C3667 C3671 1.400 . S
C3668 H3653 0.960 . S
C3668 H3654 0.960 . S
C3668 H3655 0.960 . S
C3668 C3667 1.524 . S
C3669 C3666 1.403 . S
C3669 C3670 1.392 . S
C3669 C3673 1.495 . S
C3670 C3669 1.392 . S
C3670 C3671 1.385 . S
C3670 C3672 1.478 . S
C3671 H3665 0.930 . S
C3671 C3667 1.400 . S
C3671 C3670 1.385 . S
C3672 C3670 1.478 . S
C3672 C3674 1.381 . S
C3672 C3678 1.383 . S
C3673 C3669 1.495 . S
C3673 H3679 0.959 . S
C3673 H3680 0.961 . S
C3673 H3681 0.960 . S
C3674 C3672 1.381 . S
C3674 C3675 1.394 . S
C3674 H3682 0.930 . S
C3675 C3674 1.394 . S
C3675 C3676 1.383 . S
C3675 H3683 0.929 . S
C3676 C3675 1.383 . S
C3676 C3677 1.377 . S
C3677 H3661 0.930 . S
C3677 C3676 1.377 . S
C3677 C3678 1.379 . S
C3678 H3662 0.931 . S
C3678 C3672 1.383 . S
C3678 C3677 1.379 . S
H3679 C3673 0.959 . S
H3680 C3673 0.961 . S
H3681 C3673 0.960 . S
H3682 C3674 0.930 . S
H3683 C3675 0.929 . S
H3684 C3692 0.929 . S
H3685 C3694 0.930 1_655 S
H3686 C3696 0.930 . S
H3687 C3699 0.929 . S
H3688 C3702 0.930 . S
H3689 C3704 0.960 . S
H3690 C3704 0.960 . S
H3691 C3704 0.960 . S
C3692 H3684 0.929 . S
C3692 C3693 1.377 . S
C3692 C3694 1.384 . S
C3693 C3692 1.377 . S
C3693 C3699 1.390 . S
C3694 H3685 0.930 1_455 S
C3694 C3692 1.384 . S
C3694 C3695 1.372 . S
C3695 C3694 1.372 . S
C3695 C3696 1.400 . S
C3695 C3700 1.490 . S
C3696 H3686 0.930 . S
C3696 C3695 1.400 . S
C3696 C3699 1.386 . S
H3697 C3713 0.930 . S
H3698 C3714 0.931 . S
C3699 H3687 0.929 . S
C3699 C3693 1.390 . S
C3699 C3696 1.386 . S
C3700 C3695 1.490 . S
C3700 C3702 1.395 1_455 S
C3700 C3703 1.403 . S
H3701 C3707 0.930 . S
C3702 H3688 0.930 . S
C3702 C3700 1.395 1_655 S
C3702 C3705 1.403 . S
C3703 C3700 1.403 . S
C3703 C3704 1.524 . S
C3703 C3707 1.400 . S
C3704 H3689 0.960 . S
C3704 H3690 0.960 . S
C3704 H3691 0.960 . S
C3704 C3703 1.524 . S
C3705 C3702 1.403 . S
C3705 C3706 1.392 . S
C3705 C3709 1.495 . S
C3706 C3705 1.392 . S
C3706 C3707 1.385 1_655 S
C3706 C3708 1.478 . S
C3707 H3701 0.930 . S
C3707 C3703 1.400 . S
C3707 C3706 1.385 1_455 S
C3708 C3706 1.478 . S
C3708 C3710 1.381 . S
C3708 C3714 1.383 . S
C3709 C3705 1.495 . S
C3709 H3715 0.959 . S
C3709 H3716 0.961 . S
C3709 H3717 0.960 . S
C3710 C3708 1.381 . S
C3710 C3711 1.394 . S
C3710 H3718 0.930 . S
C3711 C3710 1.394 . S
C3711 C3712 1.383 . S
C3711 H3719 0.929 . S
C3712 C3711 1.383 . S
C3712 C3713 1.377 . S
C3713 H3697 0.930 . S
C3713 C3712 1.377 . S
C3713 C3714 1.379 . S
C3714 H3698 0.931 . S
C3714 C3708 1.383 . S
C3714 C3713 1.379 . S
H3715 C3709 0.959 . S
H3716 C3709 0.961 . S
H3717 C3709 0.960 . S
H3718 C3710 0.930 . S
H3719 C3711 0.929 . S
H3720 C3728 0.929 . S
H3721 C3730 0.930 . S
H3722 C3732 0.930 . S
H3723 C3735 0.929 . S
H3724 C3738 0.930 . S
H3725 C3740 0.960 1_455 S
H3726 C3740 0.960 . S
H3727 C3740 0.960 . S
C3728 H3720 0.929 . S
C3728 C3729 1.377 . S
C3728 C3730 1.384 . S
C3729 C3728 1.377 . S
C3729 C3735 1.390 . S
C3730 H3721 0.930 . S
C3730 C3728 1.384 . S
C3730 C3731 1.372 . S
C3731 C3730 1.372 . S
C3731 C3732 1.400 . S
C3731 C3736 1.490 . S
C3732 H3722 0.930 . S
C3732 C3731 1.400 . S
C3732 C3735 1.386 . S
H3733 C3749 0.930 . S
H3734 C3750 0.931 . S
C3735 H3723 0.929 . S
C3735 C3729 1.390 . S
C3735 C3732 1.386 . S
C3736 C3731 1.490 . S
C3736 C3738 1.395 . S
C3736 C3739 1.403 . S
H3737 C3743 0.930 . S
C3738 H3724 0.930 . S
C3738 C3736 1.395 . S
C3738 C3741 1.403 1_655 S
C3739 C3736 1.403 . S
C3739 C3740 1.524 . S
C3739 C3743 1.400 1_655 S
C3740 H3725 0.960 1_655 S
C3740 H3726 0.960 . S
C3740 H3727 0.960 . S
C3740 C3739 1.524 . S
C3741 C3738 1.403 1_455 S
C3741 C3742 1.392 . S
C3741 C3745 1.495 . S
C3742 C3741 1.392 . S
C3742 C3743 1.385 . S
C3742 C3744 1.478 . S
C3743 H3737 0.930 . S
C3743 C3739 1.400 1_455 S
C3743 C3742 1.385 . S
C3744 C3742 1.478 . S
C3744 C3746 1.381 . S
C3744 C3750 1.383 . S
C3745 C3741 1.495 . S
C3745 H3751 0.959 1_455 S
C3745 H3752 0.961 . S
C3745 H3753 0.960 . S
C3746 C3744 1.381 . S
C3746 C3747 1.394 . S
C3746 H3754 0.930 . S
C3747 C3746 1.394 . S
C3747 C3748 1.383 . S
C3747 H3755 0.929 . S
C3748 C3747 1.383 . S
C3748 C3749 1.377 . S
C3749 H3733 0.930 . S
C3749 C3748 1.377 . S
C3749 C3750 1.379 . S
C3750 H3734 0.931 . S
C3750 C3744 1.383 . S
C3750 C3749 1.379 . S
H3751 C3745 0.959 1_655 S
H3752 C3745 0.961 . S
H3753 C3745 0.960 . S
H3754 C3746 0.930 . S
H3755 C3747 0.929 . S
H3756 C3764 0.929 . S
H3757 C3766 0.930 . S
H3758 C3768 0.930 . S
H3759 C3771 0.929 . S
H3760 C3774 0.930 . S
H3761 C3776 0.960 . S
H3762 C3776 0.960 . S
H3763 C3776 0.960 . S
C3764 H3756 0.929 . S
C3764 C3765 1.377 . S
C3764 C3766 1.384 . S
C3765 C3764 1.377 . S
C3765 C3771 1.390 . S
C3766 H3757 0.930 . S
C3766 C3764 1.384 . S
C3766 C3767 1.372 . S
C3767 C3766 1.372 . S
C3767 C3768 1.400 . S
C3767 C3772 1.490 . S
C3768 H3758 0.930 . S
C3768 C3767 1.400 . S
C3768 C3771 1.386 . S
H3769 C3785 0.930 . S
H3770 C3786 0.931 . S
C3771 H3759 0.929 . S
C3771 C3765 1.390 . S
C3771 C3768 1.386 . S
C3772 C3767 1.490 . S
C3772 C3774 1.395 . S
C3772 C3775 1.403 . S
H3773 C3779 0.930 . S
C3774 H3760 0.930 . S
C3774 C3772 1.395 . S
C3774 C3777 1.403 . S
C3775 C3772 1.403 . S
C3775 C3776 1.524 . S
C3775 C3779 1.400 . S
C3776 H3761 0.960 . S
C3776 H3762 0.960 . S
C3776 H3763 0.960 . S
C3776 C3775 1.524 . S
C3777 C3774 1.403 . S
C3777 C3778 1.392 . S
C3777 C3781 1.495 . S
C3778 C3777 1.392 . S
C3778 C3779 1.385 . S
C3778 C3780 1.478 . S
C3779 H3773 0.930 . S
C3779 C3775 1.400 . S
C3779 C3778 1.385 . S
C3780 C3778 1.478 . S
C3780 C3782 1.381 . S
C3780 C3786 1.383 . S
C3781 C3777 1.495 . S
C3781 H3787 0.959 . S
C3781 H3788 0.961 . S
C3781 H3789 0.960 . S
C3782 C3780 1.381 . S
C3782 C3783 1.394 . S
C3782 H3790 0.930 . S
C3783 C3782 1.394 . S
C3783 C3784 1.383 . S
C3783 H3791 0.929 . S
C3784 C3783 1.383 . S
C3784 C3785 1.377 . S
C3785 H3769 0.930 . S
C3785 C3784 1.377 . S
C3785 C3786 1.379 . S
C3786 H3770 0.931 . S
C3786 C3780 1.383 . S
C3786 C3785 1.379 . S
H3787 C3781 0.959 . S
H3788 C3781 0.961 . S
H3789 C3781 0.960 . S
H3790 C3782 0.930 . S
H3791 C3783 0.929 . S
H3792 C3800 0.929 . S
H3793 C3802 0.930 . S
H3794 C3804 0.930 . S
H3795 C3807 0.929 . S
H3796 C3810 0.930 . S
H3797 C3812 0.960 . S
H3798 C3812 0.960 . S
H3799 C3812 0.960 . S
C3800 H3792 0.929 . S
C3800 C3801 1.377 . S
C3800 C3802 1.384 . S
C3801 C3800 1.377 . S
C3801 C3807 1.390 . S
C3802 H3793 0.930 . S
C3802 C3800 1.384 . S
C3802 C3803 1.372 . S
C3803 C3802 1.372 . S
C3803 C3804 1.400 . S
C3803 C3808 1.490 . S
C3804 H3794 0.930 . S
C3804 C3803 1.400 . S
C3804 C3807 1.386 . S
H3805 C3821 0.930 . S
H3806 C3822 0.931 . S
C3807 H3795 0.929 . S
C3807 C3801 1.390 . S
C3807 C3804 1.386 . S
C3808 C3803 1.490 . S
C3808 C3810 1.395 . S
C3808 C3811 1.403 . S
H3809 C3815 0.930 . S
C3810 H3796 0.930 . S
C3810 C3808 1.395 . S
C3810 C3813 1.403 . S
C3811 C3808 1.403 . S
C3811 C3812 1.524 . S
C3811 C3815 1.400 . S
C3812 H3797 0.960 . S
C3812 H3798 0.960 . S
C3812 H3799 0.960 . S
C3812 C3811 1.524 . S
C3813 C3810 1.403 . S
C3813 C3814 1.392 . S
C3813 C3817 1.495 . S
C3814 C3813 1.392 . S
C3814 C3815 1.385 . S
C3814 C3816 1.478 . S
C3815 H3809 0.930 . S
C3815 C3811 1.400 . S
C3815 C3814 1.385 . S
C3816 C3814 1.478 . S
C3816 C3818 1.381 . S
C3816 C3822 1.383 . S
C3817 C3813 1.495 . S
C3817 H3823 0.959 . S
C3817 H3824 0.961 . S
C3817 H3825 0.960 . S
C3818 C3816 1.381 . S
C3818 C3819 1.394 . S
C3818 H3826 0.930 . S
C3819 C3818 1.394 . S
C3819 C3820 1.383 . S
C3819 H3827 0.929 . S
C3820 C3819 1.383 . S
C3820 C3821 1.377 . S
C3821 H3805 0.930 . S
C3821 C3820 1.377 . S
C3821 C3822 1.379 . S
C3822 H3806 0.931 . S
C3822 C3816 1.383 . S
C3822 C3821 1.379 . S
H3823 C3817 0.959 . S
H3824 C3817 0.961 . S
H3825 C3817 0.960 . S
H3826 C3818 0.930 . S
H3827 C3819 0.929 . S
H3828 C3836 0.929 . S
H3829 C3838 0.930 . S
H3830 C3840 0.930 . S
H3831 C3843 0.929 . S
H3832 C3846 0.930 . S
H3833 C3848 0.960 . S
H3834 C3848 0.960 . S
H3835 C3848 0.960 . S
C3836 H3828 0.929 . S
C3836 C3837 1.377 . S
C3836 C3838 1.384 . S
C3837 C3836 1.377 . S
C3837 C3843 1.390 . S
C3838 H3829 0.930 . S
C3838 C3836 1.384 . S
C3838 C3839 1.372 . S
C3839 C3838 1.372 . S
C3839 C3840 1.400 . S
C3839 C3844 1.490 . S
C3840 H3830 0.930 . S
C3840 C3839 1.400 . S
C3840 C3843 1.386 . S
H3841 C3857 0.930 . S
H3842 C3858 0.931 . S
C3843 H3831 0.929 . S
C3843 C3837 1.390 . S
C3843 C3840 1.386 . S
C3844 C3839 1.490 . S
C3844 C3846 1.395 . S
C3844 C3847 1.403 . S
H3845 C3851 0.930 . S
C3846 H3832 0.930 . S
C3846 C3844 1.395 . S
C3846 C3849 1.403 . S
C3847 C3844 1.403 . S
C3847 C3848 1.524 . S
C3847 C3851 1.400 . S
C3848 H3833 0.960 . S
C3848 H3834 0.960 . S
C3848 H3835 0.960 . S
C3848 C3847 1.524 . S
C3849 C3846 1.403 . S
C3849 C3850 1.392 . S
C3849 C3853 1.495 . S
C3850 C3849 1.392 . S
C3850 C3851 1.385 . S
C3850 C3852 1.478 . S
C3851 H3845 0.930 . S
C3851 C3847 1.400 . S
C3851 C3850 1.385 . S
C3852 C3850 1.478 . S
C3852 C3854 1.381 . S
C3852 C3858 1.383 . S
C3853 C3849 1.495 . S
C3853 H3859 0.959 . S
C3853 H3860 0.961 . S
C3853 H3861 0.960 . S
C3854 C3852 1.381 . S
C3854 C3855 1.394 . S
C3854 H3862 0.930 . S
C3855 C3854 1.394 . S
C3855 C3856 1.383 . S
C3855 H3863 0.929 . S
C3856 C3855 1.383 . S
C3856 C3857 1.377 . S
C3857 H3841 0.930 . S
C3857 C3856 1.377 . S
C3857 C3858 1.379 . S
C3858 H3842 0.931 . S
C3858 C3852 1.383 . S
C3858 C3857 1.379 . S
H3859 C3853 0.959 . S
H3860 C3853 0.961 . S
H3861 C3853 0.960 . S
H3862 C3854 0.930 . S
H3863 C3855 0.929 . S
H3864 C3872 0.929 . S
H3865 C3874 0.930 . S
H3866 C3876 0.930 . S
H3867 C3879 0.929 . S
H3868 C3882 0.930 . S
H3869 C3884 0.960 1_655 S
H3870 C3884 0.960 . S
H3871 C3884 0.960 . S
C3872 H3864 0.929 . S
C3872 C3873 1.377 . S
C3872 C3874 1.384 . S
C3873 C3872 1.377 . S
C3873 C3879 1.390 . S
C3874 H3865 0.930 . S
C3874 C3872 1.384 . S
C3874 C3875 1.372 . S
C3875 C3874 1.372 . S
C3875 C3876 1.400 . S
C3875 C3880 1.490 . S
C3876 H3866 0.930 . S
C3876 C3875 1.400 . S
C3876 C3879 1.386 . S
H3877 C3893 0.930 . S
H3878 C3894 0.931 . S
C3879 H3867 0.929 . S
C3879 C3873 1.390 . S
C3879 C3876 1.386 . S
C3880 C3875 1.490 . S
C3880 C3882 1.395 . S
C3880 C3883 1.403 . S
H3881 C3887 0.930 . S
C3882 H3868 0.930 . S
C3882 C3880 1.395 . S
C3882 C3885 1.403 1_455 S
C3883 C3880 1.403 . S
C3883 C3884 1.524 . S
C3883 C3887 1.400 1_455 S
C3884 H3869 0.960 1_455 S
C3884 H3870 0.960 . S
C3884 H3871 0.960 . S
C3884 C3883 1.524 . S
C3885 C3882 1.403 1_655 S
C3885 C3886 1.392 . S
C3885 C3889 1.495 . S
C3886 C3885 1.392 . S
C3886 C3887 1.385 . S
C3886 C3888 1.478 . S
C3887 H3881 0.930 . S
C3887 C3883 1.400 1_655 S
C3887 C3886 1.385 . S
C3888 C3886 1.478 . S
C3888 C3890 1.381 . S
C3888 C3894 1.383 . S
C3889 C3885 1.495 . S
C3889 H3895 0.952 1_655 S
C3889 H3896 0.961 . S
C3889 H3897 0.960 . S
C3890 C3888 1.381 . S
C3890 C3891 1.394 . S
C3890 H3898 0.930 . S
C3891 C3890 1.394 . S
C3891 C3892 1.383 . S
C3891 H3899 0.929 . S
C3892 C3891 1.383 . S
C3892 C3893 1.377 . S
C3893 H3877 0.930 . S
C3893 C3892 1.377 . S
C3893 C3894 1.379 . S
C3894 H3878 0.931 . S
C3894 C3888 1.383 . S
C3894 C3893 1.379 . S
H3895 C3889 0.952 1_455 S
H3896 C3889 0.961 . S
H3897 C3889 0.960 . S
H3898 C3890 0.930 . S
H3899 C3891 0.929 . S
H3900 C3908 0.929 . S
H3901 C3910 0.930 . S
H3902 C3912 0.930 . S
H3903 C3915 0.929 . S
H3904 C3918 0.930 . S
H3905 C3920 0.960 . S
H3906 C3920 0.960 . S
H3907 C3920 0.960 . S
C3908 H3900 0.929 . S
C3908 C3909 1.377 . S
C3908 C3910 1.384 . S
C3909 C3908 1.377 . S
C3909 C3915 1.390 . S
C3910 H3901 0.930 . S
C3910 C3908 1.384 . S
C3910 C3911 1.372 . S
C3911 C3910 1.372 . S
C3911 C3912 1.400 . S
C3911 C3916 1.490 . S
C3912 H3902 0.930 . S
C3912 C3911 1.400 . S
C3912 C3915 1.386 . S
H3913 C3929 0.930 . S
H3914 C3930 0.931 . S
C3915 H3903 0.929 . S
C3915 C3909 1.390 . S
C3915 C3912 1.386 . S
C3916 C3911 1.490 . S
C3916 C3918 1.395 . S
C3916 C3919 1.403 1_455 S
H3917 C3923 0.930 . S
C3918 H3904 0.930 . S
C3918 C3916 1.395 . S
C3918 C3921 1.403 . S
C3919 C3916 1.403 1_655 S
C3919 C3920 1.524 . S
C3919 C3923 1.400 . S
C3920 H3905 0.960 . S
C3920 H3906 0.960 . S
C3920 H3907 0.960 . S
C3920 C3919 1.524 . S
C3921 C3918 1.403 . S
C3921 C3922 1.392 1_455 S
C3921 C3925 1.495 . S
C3922 C3921 1.392 1_655 S
C3922 C3923 1.385 . S
C3922 C3924 1.478 . S
C3923 H3917 0.930 . S
C3923 C3919 1.400 . S
C3923 C3922 1.385 . S
C3924 C3922 1.478 . S
C3924 C3926 1.381 . S
C3924 C3930 1.383 . S
C3925 C3921 1.495 . S
C3925 H3931 0.959 . S
C3925 H3932 0.961 . S
C3925 H3933 0.960 . S
C3926 C3924 1.381 . S
C3926 C3927 1.394 . S
C3926 H3934 0.930 . S
C3927 C3926 1.394 . S
C3927 C3928 1.383 . S
C3927 H3935 0.929 . S
C3928 C3927 1.383 . S
C3928 C3929 1.377 . S
C3929 H3913 0.930 . S
C3929 C3928 1.377 . S
C3929 C3930 1.379 . S
C3930 H3914 0.931 . S
C3930 C3924 1.383 . S
C3930 C3929 1.379 . S
H3931 C3925 0.959 . S
H3932 C3925 0.961 . S
H3933 C3925 0.960 . S
H3934 C3926 0.930 . S
H3935 C3927 0.929 . S
C1065 C28 1.048 . S
C1084 C259 1.062 . S
C1101 C61 1.049 . S
C1120 C160 1.058 . S
C1137 C94 1.051 . S
C1156 C193 1.047 . S
C1173 C127 1.046 . S
C1192 C226 1.062 . S
C1209 C523 1.047 . S
C1228 C292 1.037 . S
C1245 C325 1.051 . S
C1264 C424 1.058 . S
C1281 C457 1.046 . S
C1300 C358 1.044 . S
C1317 C391 1.049 . S
C1336 C490 1.031 . S
C1353 C556 1.052 . S
C1372 C787 1.049 . S
C1389 C688 1.052 . S
C1408 C589 1.046 . S
C1425 C622 1.046 . S
C1444 C721 1.053 . S
C1461 C655 1.052 . S
C1480 C754 1.031 . S
C1497 C820 1.046 . S
C1516 C1051 1.049 . S
C1533 C853 1.048 . S
C1552 C952 1.064 . S
C1569 C985 1.050 . S
C1588 C886 1.031 . S
C1605 C1018 1.051 . S
C1624 C919 1.032 . S
C1641 C215 1.501 . S
C1660 C17 1.486 . S
C1677 C50 1.501 . S
C1696 C248 1.483 . S
C1713 C83 1.504 . S
C1732 C149 1.485 . S
C1749 C116 1.510 . S
C1768 C182 1.524 . S
C1785 C281 1.506 . S
C1804 C479 1.481 . S
C1821 C512 1.509 . S
C1840 C314 1.487 . S
C1857 C413 1.503 . S
C1876 C347 1.484 . S
C1893 C446 1.505 . S
C1912 C380 1.523 . S
C1929 C545 1.501 . S
C1948 C743 1.483 . S
C1965 C776 1.502 . S
C1984 C578 1.495 . S
C2001 C677 1.510 . S
C2020 C611 1.524 . S
C2037 C644 1.502 . S
C2056 C710 1.481 . S
C2073 C1007 1.510 . S
C2092 C809 1.503 . S
C2109 C842 1.507 . S
C2128 C1040 1.523 . S
C2145 C941 1.509 . S
C2164 C875 1.490 . S
C2181 C974 1.501 . S
C2200 C908 1.499 . S
C2217 N938 1.124 . S
C2236 N5 1.147 . S
C2253 N443 1.123 . S
C2272 N38 1.150 . S
C2289 N1004 1.121 . S
C2308 N71 1.153 . S
C2325 N104 1.156 . S
C2344 N509 1.152 . S
C2361 N806 1.116 . S
C2380 N137 1.159 . S
C2397 N311 1.123 . S
C2416 N170 1.148 . S
C2433 N872 1.121 . S
C2452 N203 1.153 . S
C2469 N236 1.160 . S
C2488 N377 1.080 . S
C2505 N269 1.159 . S
C2524 N674 1.114 . S
C2541 N302 1.157 . S
C2560 N179 1.124 . S
C2577 N335 1.157 . S
C2596 N740 1.078 . S
C2613 N245 1.112 . S
C2632 N368 1.157 . S
C2649 N542 1.115 . S
C2668 N401 1.161 . S
C2685 N434 1.158 . S
C2704 N47 1.144 . S
C2721 N467 1.160 . S
C2740 N608 1.152 . S
C2757 N500 1.158 . S
C2776 N113 1.084 . S
C2793 N410 1.123 . S
C2812 N533 1.151 . S
C2829 N566 1.160 . S
C2848 N971 1.080 . S
C2865 N476 1.116 . S
C2884 N599 1.156 . S
C2901 N632 1.160 . S
C2920 N1037 1.080 . S
C2937 N665 1.160 . S
C2956 N278 1.080 . S
C2973 N698 1.157 . S
C2992 N839 1.139 . S
C3009 N344 1.112 . S
C3028 N731 1.162 . S
C3045 N764 1.157 . S
C3064 N905 1.135 . S
C3081 N146 1.113 . S
C3100 N797 1.158 . S
C3117 N707 1.114 . S
C3136 N830 1.159 . S
C3153 N212 1.119 . S
C3172 N863 1.150 . S
C3189 N773 1.120 . S
C3208 N896 1.151 . S
C3225 N14 1.124 . S
C3244 N929 1.165 . S
C3261 N575 1.122 . S
C3280 N962 1.166 . S
C3297 N995 1.160 . S
C3316 N80 1.134 . S
C3333 N641 1.117 . S
C3352 N1028 1.162 . S
C3369 C602 1.728 . S
C3388 C8 1.733 . S
C3405 C635 1.731 . S
C3424 C41 1.721 . S
C3441 C74 1.731 . S
C3460 C536 1.726 . S
C3477 C107 1.732 . S
C3496 C569 1.719 . S
C3513 C734 1.731 . S
C3532 C140 1.724 . S
C3549 C173 1.727 . S
C3568 C767 1.734 . S
C3585 C668 1.731 . S
C3604 C206 1.718 . S
C3621 C701 1.732 . S
C3640 C239 1.716 . S
C3657 C866 1.727 . S
C3676 C272 1.723 . S
C3693 C899 1.732 . S
C3712 C305 1.726 . S
C3729 C338 1.731 . S
C3748 C800 1.732 . S
C3765 C371 1.730 . S
C3784 C833 1.736 . S
C3801 C404 1.732 . S
C3820 C998 1.728 . S
C3837 C437 1.728 . S
C3856 C1031 1.732 . S
C3873 C932 1.731 . S
C3892 C470 1.736 . S
C3909 C965 1.728 . S
C3928 C503 1.719 . S
