# Generated by pormake.
# Topology smm, (6)-cn, num edge types: 1
# Building blocks:
#     Node 0, Type 0, BuildingBlock: BETFAJ_clean_sbu_0, # of connection points: 6
#     Node 1, Type 0, BuildingBlock: BETFAJ_clean_sbu_0, # of connection points: 6
#     Node 2, Type 0, BuildingBlock: BETFAJ_clean_sbu_0, # of connection points: 6
#     Node 3, Type 0, BuildingBlock: BETFAJ_clean_sbu_0, # of connection points: 6
#     Node 4, Type 0, BuildingBlock: BETFAJ_clean_sbu_0, # of connection points: 6
#     Node 5, Type 0, BuildingBlock: BETFAJ_clean_sbu_0, # of connection points: 6
#     Node 6, Type 0, BuildingBlock: BETFAJ_clean_sbu_0, # of connection points: 6
#     Node 7, Type 0, BuildingBlock: BETFAJ_clean_sbu_0, # of connection points: 6
#     Node 8, Type 0, BuildingBlock: BETFAJ_clean_sbu_0, # of connection points: 6
#     Edge 9, Type (0, 0), BuildingBlock: XIVTED_clean_linker_0, # of connection points: 2
#     Edge 10, Type (0, 0), BuildingBlock: XIVTED_clean_linker_0, # of connection points: 2
#     Edge 11, Type (0, 0), BuildingBlock: XIVTED_clean_linker_0, # of connection points: 2
#     Edge 12, Type (0, 0), BuildingBlock: XIVTED_clean_linker_0, # of connection points: 2
#     Edge 13, Type (0, 0), BuildingBlock: XIVTED_clean_linker_0, # of connection points: 2
#     Edge 14, Type (0, 0), BuildingBlock: XIVTED_clean_linker_0, # of connection points: 2
#     Edge 15, Type (0, 0), BuildingBlock: XIVTED_clean_linker_0, # of connection points: 2
#     Edge 16, Type (0, 0), BuildingBlock: XIVTED_clean_linker_0, # of connection points: 2
#     Edge 17, Type (0, 0), BuildingBlock: XIVTED_clean_linker_0, # of connection points: 2
#     Edge 18, Type (0, 0), BuildingBlock: XIVTED_clean_linker_0, # of connection points: 2
#     Edge 19, Type (0, 0), BuildingBlock: XIVTED_clean_linker_0, # of connection points: 2
#     Edge 20, Type (0, 0), BuildingBlock: XIVTED_clean_linker_0, # of connection points: 2
#     Edge 21, Type (0, 0), BuildingBlock: XIVTED_clean_linker_0, # of connection points: 2
#     Edge 22, Type (0, 0), BuildingBlock: XIVTED_clean_linker_0, # of connection points: 2
#     Edge 23, Type (0, 0), BuildingBlock: XIVTED_clean_linker_0, # of connection points: 2
#     Edge 24, Type (0, 0), BuildingBlock: XIVTED_clean_linker_0, # of connection points: 2
#     Edge 25, Type (0, 0), BuildingBlock: XIVTED_clean_linker_0, # of connection points: 2
#     Edge 26, Type (0, 0), BuildingBlock: XIVTED_clean_linker_0, # of connection points: 2
#     Edge 27, Type (0, 0), BuildingBlock: XIVTED_clean_linker_0, # of connection points: 2
#     Edge 28, Type (0, 0), BuildingBlock: XIVTED_clean_linker_0, # of connection points: 2
#     Edge 29, Type (0, 0), BuildingBlock: XIVTED_clean_linker_0, # of connection points: 2
#     Edge 30, Type (0, 0), BuildingBlock: XIVTED_clean_linker_0, # of connection points: 2
#     Edge 31, Type (0, 0), BuildingBlock: XIVTED_clean_linker_0, # of connection points: 2
#     Edge 32, Type (0, 0), BuildingBlock: XIVTED_clean_linker_0, # of connection points: 2
#     Edge 33, Type (0, 0), BuildingBlock: XIVTED_clean_linker_0, # of connection points: 2
#     Edge 34, Type (0, 0), BuildingBlock: XIVTED_clean_linker_0, # of connection points: 2
#     Edge 35, Type (0, 0), BuildingBlock: XIVTED_clean_linker_0, # of connection points: 2
# Relax obj value: 0.045
# Max RMSD: 0.122
# Mean RMSD: 0.122
data_MOF--net-smm--node1-BETFAJ_clean_sbu_0--edge1-XIVTED_clean_linker_0
_symmetry_space_group_name_H-M    P1
_symmetry_Int_Tables_number       1
_symmetry_cell_setting            triclinic
loop_
_symmetry_equiv_pos_as_xyz
'x, y, z'
_cell_length_a     71.379052
_cell_length_b     71.368602
_cell_length_c     14.412686
_cell_angle_alpha  90.086133
_cell_angle_beta   89.970991
_cell_angle_gamma 120.03185
loop_
_atom_site_label
_atom_site_type_symbol
_atom_site_fract_x
_atom_site_fract_y
_atom_site_fract_z
_atom_type_partial_charge
Sm0 Sm 0.05374 0.21554 0.97778 0.0
Sm1 Sm 1.01312 0.17186 0.03108 0.0
C2 C 0.08175 0.25141 0.89012 0.0
C3 C 0.08835 0.27441 0.87367 0.0
C4 C 0.08662 0.2811 0.78401 0.0
C5 C 0.09494 0.30305 0.76407 0.0
C6 C 0.10538 0.31885 0.83325 0.0
C7 C 0.10654 0.31208 0.92369 0.0
C8 C 0.09813 0.29011 0.94372 0.0
C9 C 0.04803 0.20734 0.16435 0.0
C10 C 1.0074 0.21412 0.02343 0.0
C11 C 0.98395 0.13421 0.10265 0.0
C12 C 0.97569 0.11085 0.08837 0.0
C13 C 0.97256 0.09757 0.16527 0.0
C14 C 0.96393 0.07527 0.15392 0.0
C15 C 0.95813 0.06575 0.06531 0.0
C16 C 0.96154 0.07915 -0.01184 0.0
C17 C 0.97031 0.10148 -0.00051 0.0
C18 C 1.01999 0.1799 0.8442 0.0
C19 C 0.06061 0.17446 0.00821 0.0
O20 O 0.06355 0.23661 0.85284 0.0
O21 O 0.08541 0.24596 0.97207 0.0
O22 O 0.0333 0.20314 0.10638 0.0
O23 O 0.06706 0.21823 0.12645 0.0
O24 O 1.02609 0.22402 0.97815 0.0
O25 O 1.00048 0.19504 0.06283 0.0
O26 O 1.00357 0.14571 0.13602 0.0
O27 O 0.97954 0.14434 0.03818 0.0
O28 O 0.03422 0.18387 0.90417 0.0
O29 O 1.00084 0.16974 0.88069 0.0
O30 O 0.04112 0.16454 0.04629 0.0
O31 O 0.06817 0.1932 0.96481 0.0
H32 H 0.07939 0.26938 0.72842 0.0
H33 H 0.09397 0.30769 0.69351 0.0
H34 H 0.1142 0.3238 0.97892 0.0
H35 H 0.09977 0.28554 0.01355 0.0
H36 H 0.97655 0.10444 0.23444 0.0
H37 H 0.96133 0.0654 0.21488 0.0
H38 H 0.95754 0.07238 0.91887 0.0
H39 H 0.97272 0.11136 0.93876 0.0
Sm40 Sm 0.8485 0.85605 0.97827 0.0
Sm41 Sm 0.892 0.85885 0.03198 0.0
C42 C 0.81277 0.8485 0.89015 0.0
C43 C 0.78969 0.83234 0.87402 0.0
C44 C 0.78269 0.82452 0.78373 0.0
C45 C 0.76066 0.8111 0.76439 0.0
C46 C 0.7451 0.80532 0.83488 0.0
C47 C 0.7522 0.81264 0.92585 0.0
C48 C 0.77424 0.826 0.94526 0.0
C49 C 0.85649 0.85826 0.16499 0.0
C50 C 0.84964 0.81092 0.02231 0.0
C51 C 0.92941 0.86664 0.10397 0.0
C52 C 0.95278 0.88174 0.09238 0.0
C53 C 0.96078 0.90319 0.06324 0.0
C54 C 0.98307 0.91703 0.05123 0.0
C55 C 0.99773 0.90961 0.06743 0.0
C56 C 0.98955 0.88809 0.09667 0.0
C57 C 0.96732 0.87434 0.10902 0.0
C58 C 0.88405 0.85785 0.84498 0.0
C59 C 0.88974 0.90389 0.01036 0.0
O60 O 0.82734 0.84469 0.85338 0.0
O61 O 0.81838 0.85781 0.97179 0.0
O62 O 0.86067 0.84774 0.1068 0.0
O63 O 0.84574 0.86655 0.12715 0.0
O64 O 0.83976 0.81982 0.97791 0.0
O65 O 0.86874 0.82297 0.0618 0.0
O66 O 0.91775 0.87444 0.13872 0.0
O67 O 0.91976 0.85299 0.03598 0.0
O68 O 0.88017 0.86816 0.9051 0.0
O69 O 0.894 0.84866 0.88143 0.0
O70 O 0.89947 0.89419 0.04891 0.0
O71 O 0.87113 0.89281 0.96576 0.0
H72 H 0.79423 0.82933 0.72733 0.0
H73 H 0.75578 0.80596 0.69344 0.0
H74 H 0.74067 0.80825 -0.01797 0.0
H75 H 0.77907 0.83172 0.01563 0.0
H76 H 0.9498 0.90919 0.04924 0.0
H77 H 0.9888 0.93342 0.02775 0.0
H78 H 1.00036 0.88192 0.11106 0.0
H79 H 0.96146 0.85784 0.1315 0.0
Sm80 Sm 0.20746 1.01029 0.97638 0.0
Sm81 Sm 0.20426 0.05061 0.03094 0.0
C82 C 0.21556 0.98237 0.88883 0.0
C83 C 0.23201 0.9758 0.87322 0.0
C84 C 0.24059 0.97748 0.78385 0.0
C85 C 0.25429 0.9692 0.76468 0.0
C86 C 0.2596 0.95887 0.83438 0.0
C87 C 0.2515 0.95777 0.92453 0.0
C88 C 0.23786 0.96612 0.94377 0.0
C89 C 0.20452 1.01548 0.16332 0.0
C90 C 0.25227 0.05654 0.02359 0.0
C91 C 0.19638 0.08015 0.1035 0.0
C92 C 0.18172 0.08891 0.09104 0.0
C93 C 0.18947 0.11087 0.10938 0.0
C94 C 0.17616 0.11982 0.0965 0.0
C95 C 0.15475 0.10696 0.06504 0.0
C96 C 0.14697 0.08486 0.04707 0.0
C97 C 0.16037 0.07592 0.0596 0.0
C98 C 0.20606 0.04432 0.84364 0.0
C99 C 0.15939 1.00327 0.00502 0.0
O100 O 0.21908 1.00062 0.85185 0.0
O101 O 0.2062 0.97861 0.97027 0.0
O102 O 0.21526 0.0304 0.10638 0.0
O103 O 0.19635 0.99658 0.12404 0.0
O104 O 0.24357 0.03796 0.97743 0.0
O105 O 0.24003 0.06326 0.06369 0.0
O106 O 0.18803 0.06045 0.13605 0.0
O107 O 0.21047 0.08435 0.03731 0.0
O108 O 0.19551 0.02989 0.90246 0.0
O109 O 0.21505 0.06333 0.88161 0.0
O110 O 0.16882 0.02266 0.04425 0.0
O111 O 0.17074 0.9959 0.96152 0.0
H112 H 0.23617 0.98464 0.72788 0.0
H113 H 0.26002 0.97014 0.69432 0.0
H114 H 0.25551 0.95019 -0.01984 0.0
H115 H 0.23153 0.96453 0.01341 0.0
H116 H 0.2059 0.12115 0.13365 0.0
H117 H 0.18259 0.1368 0.11227 0.0
H118 H 0.13064 0.07455 0.02189 0.0
H119 H 0.1541 0.05895 0.04426 0.0
Sm120 Sm 0.72047 0.54862 0.30967 0.0
Sm121 Sm 0.67945 0.50539 0.36357 0.0
C122 C 0.7496 0.58373 0.22104 0.0
C123 C 0.75845 0.60706 0.20544 0.0
C124 C 0.78042 0.61974 0.18326 0.0
C125 C 0.78945 0.64179 0.1649 0.0
C126 C 0.77671 0.65173 0.16845 0.0
C127 C 0.75458 0.63894 0.19058 0.0
C128 C 0.74552 0.61676 0.20914 0.0
C129 C 0.71463 0.54077 0.49657 0.0
C130 C 0.67459 0.54821 0.35433 0.0
C131 C 0.64955 0.46814 0.4358 0.0
C132 C 0.64131 0.44477 0.42476 0.0
C133 C 0.61951 0.43016 0.4441 0.0
C134 C 0.61107 0.40792 0.43222 0.0
C135 C 0.6243 0.3998 0.40074 0.0
C136 C 0.64625 0.41452 0.3819 0.0
C137 C 0.65466 0.43683 0.39345 0.0
C138 C 0.68642 0.51325 0.17651 0.0
C139 C 0.72631 0.50692 0.34107 0.0
O140 O 0.7304 0.57032 0.18728 0.0
O141 O 0.75327 0.57777 0.30169 0.0
O142 O 0.69997 0.53668 0.43837 0.0
O143 O 0.73367 0.55141 0.45869 0.0
O144 O 0.69339 0.55794 0.30976 0.0
O145 O 0.66732 0.52905 0.3935 0.0
O146 O 0.66895 0.47982 0.47113 0.0
O147 O 0.64574 0.47771 0.36706 0.0
O148 O 0.70058 0.51698 0.23649 0.0
O149 O 0.66727 0.5035 0.21313 0.0
O150 O 0.70699 0.49746 0.38056 0.0
O151 O 0.73389 0.52542 0.29578 0.0
H152 H 0.79061 0.61251 0.17925 0.0
H153 H 0.80642 0.65099 0.14648 0.0
H154 H 0.74435 0.64611 0.19465 0.0
H155 H 0.72848 0.60722 0.22613 0.0
H156 H 0.60895 0.43598 0.46829 0.0
H157 H 0.5942 0.39706 0.44866 0.0
H158 H 0.65683 0.40884 0.35667 0.0
H159 H 0.67153 0.44786 0.37739 0.0
Sm160 Sm 0.51506 0.19006 0.31156 0.0
Sm161 Sm 0.55849 0.19308 0.36564 0.0
C162 C 0.47919 0.18222 0.2239 0.0
C163 C 0.45618 0.16586 0.20791 0.0
C164 C 0.44928 0.15769 0.11797 0.0
C165 C 0.4273 0.14403 0.09864 0.0
C166 C 0.41168 0.13836 0.16877 0.0
C167 C 0.41867 0.14605 0.25944 0.0
C168 C 0.44066 0.15964 0.27884 0.0
C169 C 0.52324 0.19306 0.49841 0.0
C170 C 0.51615 0.14512 0.35871 0.0
C171 C 0.59586 0.20081 0.43793 0.0
C172 C 0.61926 0.21549 0.42528 0.0
C173 C 0.63353 0.20791 0.44502 0.0
C174 C 0.65579 0.22123 0.43169 0.0
C175 C 0.66426 0.24248 0.39839 0.0
C176 C 0.64988 0.25009 0.37905 0.0
C177 C 0.62755 0.23667 0.39201 0.0
C178 C 0.55037 0.19125 0.17843 0.0
C179 C 0.5563 0.23808 0.33984 0.0
O180 O 0.49388 0.17865 0.18681 0.0
O181 O 0.48476 0.19149 0.30561 0.0
O182 O 0.52732 0.18224 0.44138 0.0
O183 O 0.51259 0.2013 0.4593 0.0
O184 O 0.50631 0.15387 0.31288 0.0
O185 O 0.5352 0.15733 0.39827 0.0
O186 O 0.58452 0.20916 0.47092 0.0
O187 O 0.58594 0.18678 0.37148 0.0
O188 O 0.54659 0.20187 0.23737 0.0
O189 O 0.5603 0.18218 0.21622 0.0
O190 O 0.56624 0.22862 0.37877 0.0
O191 O 0.53754 0.22675 0.29675 0.0
H192 H 0.46086 0.1624 0.06178 0.0
H193 H 0.42249 0.13861 0.02791 0.0
H194 H 0.40708 0.14175 0.31534 0.0
H195 H 0.44542 0.16565 0.34894 0.0
H196 H 0.62743 0.1916 0.47067 0.0
H197 H 0.66639 0.21496 0.44852 0.0
H198 H 0.65584 0.26628 0.35243 0.0
H199 H 0.61678 0.24278 0.37555 0.0
Sm200 Sm 0.87372 0.34306 0.31071 0.0
Sm201 Sm 0.8709 0.38384 0.36418 0.0
C202 C 0.88039 0.31422 0.22323 0.0
C203 C 0.89513 0.30557 0.20958 0.0
C204 C 0.91764 0.31903 0.20083 0.0
C205 C 0.93086 0.31006 0.18315 0.0
C206 C 0.92179 0.28748 0.1743 0.0
C207 C 0.89925 0.27418 0.18361 0.0
C208 C 0.88612 0.28313 0.20106 0.0
C209 C 0.87121 0.34882 0.49736 0.0
C210 C 0.91882 0.38923 0.3571 0.0
C211 C 0.86257 0.41313 0.43577 0.0
C212 C 0.84745 0.42134 0.42123 0.0
C213 C 0.83725 0.4245 0.49795 0.0
C214 C 0.8235 0.43302 0.48626 0.0
C215 C 0.81978 0.43869 0.39749 0.0
C216 C 0.82983 0.43525 0.32054 0.0
C217 C 0.84346 0.42659 0.3322 0.0
C218 C 0.87221 0.37696 0.17733 0.0
C219 C 0.82588 0.33666 0.34007 0.0
O220 O 0.88612 0.33339 0.18938 0.0
O221 O 0.87028 0.31035 0.30283 0.0
O222 O 0.88176 0.36352 0.43942 0.0
O223 O 0.86316 0.32979 0.45948 0.0
O224 O 0.91002 0.37045 0.31229 0.0
O225 O 0.90667 0.39628 0.39577 0.0
O226 O 0.85441 0.39353 0.46929 0.0
O227 O 0.87711 0.41747 0.37133 0.0
O228 O 0.86184 0.36274 0.2371 0.0
O229 O 0.88118 0.39612 0.21393 0.0
O230 O 0.83551 0.35601 0.37944 0.0
O231 O 0.83704 0.32919 0.29578 0.0
H232 H 0.92497 0.33644 0.20715 0.0
H233 H 0.94817 0.32075 0.1772 0.0
H234 H 0.89162 0.25679 0.17561 0.0
H235 H 0.86878 0.27247 0.20669 0.0
H236 H 0.84011 0.4206 0.56722 0.0
H237 H 0.81618 0.43564 0.54707 0.0
H238 H 0.82707 0.43915 0.25113 0.0
H239 H 0.85098 0.42415 0.2716 0.0
Sm240 Sm 0.38764 0.8824 0.64252 0.0
Sm241 Sm 0.34716 0.83899 0.69687 0.0
C242 C 0.41641 0.91784 0.55461 0.0
C243 C 0.42519 0.94121 0.54047 0.0
C244 C 0.44732 0.95415 0.52192 0.0
C245 C 0.45632 0.97624 0.50454 0.0
C246 C 0.44336 0.98596 0.50543 0.0
C247 C 0.42108 0.97293 0.52409 0.0
C248 C 0.41206 0.95071 0.54168 0.0
C249 C 0.38242 0.87439 0.82961 0.0
C250 C 0.3416 0.88138 0.68968 0.0
C251 C 0.31798 0.80144 0.76925 0.0
C252 C 0.30977 0.77807 0.7559 0.0
C253 C 0.30665 0.76495 0.8334 0.0
C254 C 0.29811 0.74264 0.82295 0.0
C255 C 0.2924 0.73294 0.73464 0.0
C256 C 0.29578 0.74617 0.6569 0.0
C257 C 0.30445 0.76852 0.66734 0.0
C258 C 0.35342 0.84697 0.50956 0.0
C259 C 0.39421 0.84107 0.67018 0.0
O260 O 0.39713 0.90446 0.52141 0.0
O261 O 0.42035 0.91167 0.63418 0.0
O262 O 0.36754 0.87022 0.77248 0.0
O263 O 0.40131 0.88515 0.79054 0.0
O264 O 0.36028 0.89127 0.64429 0.0
O265 O 0.33465 0.86228 0.72893 0.0
O266 O 0.33758 0.81302 0.80269 0.0
O267 O 0.31359 0.81144 0.70415 0.0
O268 O 0.36785 0.85083 0.56842 0.0
O269 O 0.33441 0.83696 0.54745 0.0
O270 O 0.37499 0.83135 0.71055 0.0
O271 O 0.40146 0.85962 0.62575 0.0
H272 H 0.45769 0.94709 0.51985 0.0
H273 H 0.47343 0.98563 0.48881 0.0
H274 H 0.41068 0.97993 0.52607 0.0
H275 H 0.39489 0.94099 0.55587 0.0
H276 H 0.31059 0.77196 0.90234 0.0
H277 H 0.29553 0.73291 0.88434 0.0
H278 H 0.29183 0.73927 0.58783 0.0
H279 H 0.30685 0.77827 0.60617 0.0
Sm280 Sm 0.18157 0.5231 0.64259 0.0
Sm281 Sm 0.2252 0.52628 0.69662 0.0
C282 C 0.14605 0.51616 0.5546 0.0
C283 C 0.12274 0.50119 0.53986 0.0
C284 C 0.11386 0.47865 0.53453 0.0
C285 C 0.09173 0.46515 0.51595 0.0
C286 C 0.07815 0.47399 0.5028 0.0
C287 C 0.08725 0.49659 0.50857 0.0
C288 C 0.10925 0.50998 0.52695 0.0
C289 C 0.18949 0.52531 0.82956 0.0
C290 C 0.18305 0.47817 0.68656 0.0
C291 C 0.26287 0.53495 0.76874 0.0
C292 C 0.28619 0.55031 0.75502 0.0
C293 C 0.29934 0.56063 0.8322 0.0
C294 C 0.32161 0.57461 0.82134 0.0
C295 C 0.33121 0.57846 0.73294 0.0
C296 C 0.31794 0.5683 0.65552 0.0
C297 C 0.29565 0.55443 0.66636 0.0
C298 C 0.21737 0.52527 0.50947 0.0
C299 C 0.22256 0.57104 0.67422 0.0
O300 O 0.15974 0.51078 0.52056 0.0
O301 O 0.15202 0.52605 0.63487 0.0
O302 O 0.19383 0.51493 0.77131 0.0
O303 O 0.17857 0.53339 0.79171 0.0
O304 O 0.17307 0.48696 0.64197 0.0
O305 O 0.20211 0.49032 0.72634 0.0
O306 O 0.25119 0.54282 0.80252 0.0
O307 O 0.25289 0.52049 0.70366 0.0
O308 O 0.21329 0.53544 0.56957 0.0
O309 O 0.22757 0.51634 0.54598 0.0
O310 O 0.23224 0.56147 0.71427 0.0
O311 O 0.20419 0.55982 0.62826 0.0
H312 H 0.124 0.4715 0.54425 0.0
H313 H 0.08522 0.44782 0.51277 0.0
H314 H 0.07744 0.50403 0.49717 0.0
H315 H 0.11582 0.52734 0.52991 0.0
H316 H 0.29241 0.55767 0.90122 0.0
H317 H 0.33138 0.58201 0.8825 0.0
H318 H 0.32477 0.57115 0.58637 0.0
H319 H 0.28587 0.54683 0.60541 0.0
Sm320 Sm 0.54069 0.67697 0.63918 0.0
Sm321 Sm 0.5382 0.71781 0.69354 0.0
C322 C 0.54718 0.64803 0.55145 0.0
C323 C 0.56201 0.63949 0.53749 0.0
C324 C 0.58454 0.65305 0.53013 0.0
C325 C 0.59787 0.64419 0.51243 0.0
C326 C 0.5889 0.62166 0.50223 0.0
C327 C 0.56633 0.60828 0.51001 0.0
C328 C 0.55309 0.6171 0.52747 0.0
C329 C 0.53868 0.68283 0.82618 0.0
C330 C 0.58601 0.72306 0.68302 0.0
C331 C 0.53069 0.7476 0.76613 0.0
C332 C 0.5156 0.75588 0.75499 0.0
C333 C 0.52293 0.77776 0.77328 0.0
C334 C 0.50918 0.78624 0.76131 0.0
C335 C 0.48774 0.77297 0.73083 0.0
C336 C 0.48038 0.75094 0.71302 0.0
C337 C 0.49422 0.74249 0.72464 0.0
C338 C 0.53917 0.71089 0.50639 0.0
C339 C 0.49301 0.67076 0.67032 0.0
O340 O 0.55279 0.66715 0.51732 0.0
O341 O 0.53723 0.64425 0.63142 0.0
O342 O 0.54919 0.69749 0.76802 0.0
O343 O 0.53032 0.66378 0.78818 0.0
O344 O 0.57695 0.70428 0.6382 0.0
O345 O 0.57409 0.73021 0.72305 0.0
O346 O 0.52289 0.72815 0.80091 0.0
O347 O 0.5442 0.7515 0.69776 0.0
O348 O 0.52878 0.69669 0.56625 0.0
O349 O 0.54844 0.73004 0.54316 0.0
O350 O 0.50277 0.69006 0.71033 0.0
O351 O 0.50406 0.66337 0.62467 0.0
H352 H 0.5918 0.67042 0.53762 0.0
H353 H 0.6152 0.65494 0.50766 0.0
H354 H 0.55878 0.59092 0.50093 0.0
H355 H 0.53574 0.60638 0.53202 0.0
H356 H 0.53937 0.78834 0.79672 0.0
H357 H 0.51529 0.80317 0.77693 0.0
H358 H 0.46405 0.74033 0.68856 0.0
H359 H 0.48828 0.72556 0.70937 0.0
H360 H 0.09051 0.33985 0.72066 0.0
H361 H 0.19829 0.45513 0.77886 0.0
H362 H 0.14489 0.35138 0.8916 0.0
H363 H 0.14214 0.44694 0.63032 0.0
H364 H 0.17928 0.4166 0.81267 0.0
H365 H 0.10931 0.37839 0.68004 0.0
C366 C 0.10639 0.35046 0.74962 0.0
C367 C 0.11607 0.34232 0.81004 0.0
C368 C 0.17107 0.42316 0.77253 0.0
C369 C 0.13768 0.38644 0.7637 0.0
C370 C 0.18197 0.44523 0.75284 0.0
C371 C 0.17182 0.45441 0.70177 0.0
C372 C 0.14977 0.40994 0.74097 0.0
C373 C 0.15062 0.44061 0.66997 0.0
C374 C 0.11707 0.37247 0.72662 0.0
C375 C 0.1366 0.3569 0.84601 0.0
N376 N 0.14028 0.41907 0.69025 0.0
N377 N 0.14669 0.37816 0.82213 0.0
H378 H 0.71292 0.81207 0.89982 0.0
H379 H 0.61682 0.71329 0.62211 0.0
H380 H 0.7236 0.7702 0.71814 0.0
H381 H 0.60949 0.76069 0.78009 0.0
H382 H 0.65567 0.73303 0.65756 0.0
H383 H 0.6746 0.7922 0.86015 0.0
C384 C 0.70718 0.79855 0.8522 0.0
C385 C 0.72156 0.79276 0.81269 0.0
C386 C 0.64552 0.73912 0.68405 0.0
C387 C 0.67749 0.77 0.76561 0.0
C388 C 0.62334 0.72788 0.66371 0.0
C389 C 0.60978 0.73528 0.69822 0.0
C390 C 0.65418 0.75783 0.73963 0.0
C391 C 0.6192 0.75428 0.75193 0.0
C392 C 0.68527 0.7873 0.82888 0.0
C393 C 0.71315 0.77534 0.7498 0.0
N394 N 0.64071 0.76479 0.77115 0.0
N395 N 0.69168 0.76454 0.72838 0.0
H396 H 0.29561 0.97374 0.72234 0.0
H397 H 0.30359 0.86637 0.78431 0.0
H398 H 0.25277 0.91953 0.89409 0.0
H399 H 0.35118 0.9222 0.63288 0.0
H400 H 0.28407 0.88538 0.81814 0.0
H401 H 0.31552 0.95505 0.68294 0.0
C402 C 0.29037 0.95792 0.75174 0.0
C403 C 0.2725 0.94825 0.812 0.0
C404 C 0.29876 0.89353 0.77739 0.0
C405 C 0.29523 0.92677 0.76708 0.0
C406 C 0.30995 0.88263 0.75771 0.0
C407 C 0.32916 0.89268 0.70571 0.0
C408 C 0.30671 0.91471 0.74489 0.0
C409 C 0.33646 0.91379 0.67323 0.0
C410 C 0.3018 0.9473 0.72944 0.0
C411 C 0.26661 0.9278 0.84858 0.0
N412 N 0.32525 0.92412 0.69347 0.0
N413 N 0.27788 0.91777 0.82538 0.0
H414 H 0.39061 0.1028 0.05417 0.0
H415 H 0.27513 0.09424 0.1208 0.0
H416 H 0.37913 0.14486 0.23111 0.0
H417 H 0.28361 0.04737 0.96429 0.0
H418 H 0.31366 0.11376 0.15484 0.0
H419 H 0.35202 0.08299 0.01461 0.0
C420 C 0.38 0.10788 0.08468 0.0
C421 C 0.38816 0.12551 0.1464 0.0
C422 C 0.30716 0.09923 0.11292 0.0
C423 C 0.34398 0.1029 0.10132 0.0
C424 C 0.28509 0.08805 0.09311 0.0
C425 C 0.276 0.06904 0.03965 0.0
C426 C 0.32046 0.09147 0.07905 0.0
C427 C 0.28986 0.06193 0.00581 0.0
C428 C 0.35796 0.09651 0.06228 0.0
C429 C 0.37358 0.13121 0.1844 0.0
N430 N 0.3114 0.07313 0.0262 0.0
N431 N 0.35228 0.12 0.16107 0.0
H432 H 0.91811 0.25049 0.24842 0.0
H433 H 1.01623 0.25435 0.96139 0.0
H434 H 0.9568 0.30186 0.05625 0.0
H435 H 0.97043 0.1999 0.12498 0.0
H436 H 0.99618 0.27307 -0.00133 0.0
H437 H 0.9389 0.23303 0.20921 0.0
C438 C 0.93095 0.25809 0.19762 0.0
C439 C 0.93551 0.2776 0.15493 0.0
C440 C 0.99054 0.257 0.02604 0.0
C441 C 0.9597 0.25767 0.11003 0.0
C442 C 1.00194 0.24628 0.00467 0.0
C443 C 0.99505 0.22548 0.04005 0.0
C444 C 0.9722 0.2469 0.08361 0.0
C445 C 0.97643 0.21588 0.09594 0.0
C446 C 0.9429 0.24812 0.17541 0.0
C447 C 0.95276 0.28691 0.09133 0.0
N448 N 0.96577 0.22667 0.11609 0.0
N449 N 0.96418 0.27682 0.07052 0.0
H450 H 0.80831 0.77988 0.96963 0.0
H451 H 0.8163 0.68434 0.22506 0.0
H452 H 0.86508 0.78769 0.11137 0.0
H453 H 0.76008 0.67308 0.06842 0.0
H454 H 0.83367 0.72258 0.18624 0.0
H455 H 0.78979 0.74103 0.00545 0.0
C456 C 0.81694 0.77346 0.00772 0.0
C457 C 0.83832 0.78715 0.03759 0.0
C458 C 0.81753 0.71182 0.16016 0.0
C459 C 0.81716 0.7428 0.07936 0.0
C460 C 0.8076 0.68989 0.1821 0.0
C461 C 0.78674 0.67535 0.14928 0.0
C462 C 0.80658 0.71949 0.10493 0.0
C463 C 0.77612 0.68369 0.0957 0.0
C464 C 0.80632 0.75129 0.02836 0.0
C465 C 0.84862 0.77788 0.08694 0.0
N466 N 0.78619 0.7052 0.07488 0.0
N467 N 0.83795 0.7564 0.10634 0.0
H468 H 0.05794 0.43795 0.38965 0.0
H469 H 0.94145 0.42707 0.45293 0.0
H470 H 0.04451 0.47807 0.57038 0.0
H471 H 0.95035 0.37986 0.30128 0.0
H472 H 0.9798 0.44666 0.48879 0.0
H473 H 1.01924 0.41674 0.35192 0.0
C474 C 0.04688 0.4422 0.42202 0.0
C475 C 0.0546 0.45999 0.48276 0.0
C476 C 0.97346 0.43203 0.44761 0.0
C477 C 1.01037 0.43597 0.43883 0.0
C478 C 0.95147 0.42081 0.42668 0.0
C479 C 0.94253 0.40169 0.374 0.0
C480 C 0.98688 0.42425 0.41563 0.0
C481 C 0.9565 0.39451 0.34212 0.0
C482 C 1.02481 0.43017 0.39995 0.0
C483 C 0.03948 0.46483 0.52178 0.0
N484 N 0.97801 0.4058 0.36348 0.0
N485 N 1.01821 0.45299 0.49891 0.0
H486 H 0.58504 0.58453 0.57538 0.0
H487 H 0.68416 0.58889 0.29455 0.0
H488 H 0.62437 0.63642 0.38646 0.0
H489 H 0.63721 0.53396 0.4525 0.0
H490 H 0.66417 0.60775 0.33118 0.0
H491 H 0.60598 0.56721 0.53694 0.0
C492 C 0.59806 0.59228 0.52543 0.0
C493 C 0.60274 0.61188 0.48338 0.0
C494 C 0.65828 0.59154 0.35744 0.0
C495 C 0.62711 0.59209 0.43935 0.0
C496 C 0.66964 0.58075 0.33643 0.0
C497 C 0.6624 0.55977 0.37045 0.0
C498 C 0.63964 0.58133 0.41327 0.0
C499 C 0.6435 0.55008 0.42458 0.0
C500 C 0.61009 0.58238 0.50366 0.0
C501 C 0.62022 0.62138 0.42095 0.0
N502 N 0.6329 0.56093 0.4444 0.0
N503 N 0.63173 0.61135 0.40051 0.0
H504 H 0.47522 0.11386 0.30286 0.0
H505 H 0.48234 1.01878 0.56707 0.0
H506 H 0.53121 0.12221 0.45321 0.0
H507 H 0.42717 1.00715 0.40141 0.0
H508 H 0.49966 0.05706 0.5288 0.0
H509 H 0.45671 0.07505 0.33927 0.0
C510 C 0.48367 0.10757 0.34304 0.0
C511 C 0.50483 0.1214 0.37503 0.0
C512 C 0.48376 0.0462 0.50066 0.0
C513 C 0.48369 0.07708 0.41745 0.0
C514 C 0.47386 0.02426 0.52229 0.0
C515 C 0.45332 1.0096 0.48676 0.0
C516 C 0.47311 0.05376 0.443 0.0
C517 C 0.44297 1.01784 0.43083 0.0
C518 C 0.47306 0.08542 0.36398 0.0
C519 C 0.51492 0.11229 0.42702 0.0
N520 N 0.453 0.03936 0.41035 0.0
N521 N 0.50426 0.09081 0.44664 0.0
H522 H 0.16561 0.14635 -0.01111 0.0
H523 H 0.0497 0.13494 0.08261 0.0
H524 H 0.11181 0.08973 0.11031 0.0
H525 H 0.10222 0.18998 0.9458 0.0
H526 H 0.07217 0.11816 0.09296 0.0
H527 H 0.14269 0.16258 0.97249 0.0
C528 C 0.14899 0.13734 0.01238 0.0
C529 C 0.14068 0.11665 0.05148 0.0
C530 C 0.07878 0.13389 0.06048 0.0
C531 C 0.11423 0.13514 0.03227 0.0
C532 C 0.06595 0.14353 0.05457 0.0
C533 C 0.07406 0.16397 0.01332 0.0
C534 C 0.09997 0.14474 0.02521 0.0
C535 C 0.09526 0.17422 0.97819 0.0
C536 C 0.13586 0.14658 0.00252 0.0
C537 C 0.11888 0.10561 0.07908 0.0
N538 N 0.10747 0.16453 -0.01485 0.0
N539 N 0.10647 0.11502 0.06934 0.0
H540 H 0.92712 0.93193 0.10183 0.0
H541 H 0.92386 0.03851 0.95476 0.0
H542 H 0.8765 0.93055 0.93289 0.0
H543 H 0.96978 0.0386 0.1496 0.0
H544 H 0.9075 0.99927 0.93859 0.0
H545 H 0.94402 0.9712 0.11316 0.0
C546 C 0.91954 0.93985 0.06693 0.0
C547 C 0.90028 0.92782 0.0164 0.0
C548 C 0.92116 1.00787 -0.01516 0.0
C549 C 0.91968 0.97298 0.02919 0.0
C550 C 0.93061 0.03031 -0.00634 0.0
C551 C 0.94824 0.04191 0.05367 0.0
C552 C 0.92945 0.99689 0.03596 0.0
C553 C 0.95607 0.03032 0.10335 0.0
C554 C 0.92922 0.96232 0.07359 0.0
C555 C 0.89129 0.93909 0.97273 0.0
N556 N 0.94666 1.0085 0.09326 0.0
N557 N 0.90106 0.96102 -0.01989 0.0
H558 H 1.02275 0.95247 0.11582 0.0
H559 H 0.13377 0.96192 0.93915 0.0
H560 H 1.02685 0.89987 -0.01144 0.0
H561 H 0.13031 1.01345 0.0809 0.0
H562 H 0.09445 0.93952 0.95048 0.0
H563 H 0.06188 0.97565 0.09675 0.0
C564 C 0.03184 0.94583 0.08325 0.0
C565 C 1.02145 0.92413 0.05409 0.0
C566 C 0.10228 0.95574 0.97899 0.0
C567 C 0.06636 0.95057 0.03268 0.0
C568 C 0.12478 0.96857 0.97245 0.0
C569 C 0.13546 0.98963 0.00928 0.0
C570 C 0.09028 0.96397 0.02257 0.0
C571 C 0.12285 0.99731 0.05166 0.0
C572 C 0.05421 0.95904 0.07287 0.0
C573 C 0.03416 0.91637 0.01338 0.0
N574 N 0.10097 0.9845 0.05719 0.0
N575 N 0.0559 0.92955 0.00395 0.0
H576 H 0.71684 0.46957 0.43295 0.0
H577 H 0.82674 0.47277 0.28631 0.0
H578 H 0.76608 0.51987 0.26272 0.0
H579 H 0.7809 0.42699 0.48153 0.0
H580 H 0.80378 0.48898 0.26947 0.0
H581 H 0.73916 0.45263 0.44448 0.0
C582 C 0.73232 0.47707 0.39778 0.0
C583 C 0.73957 0.49625 0.34688 0.0
C584 C 0.79872 0.47538 0.31593 0.0
C585 C 0.76528 0.47682 0.35992 0.0
C586 C 0.81177 0.46602 0.32515 0.0
C587 C 0.80576 0.44847 0.38547 0.0
C588 C 0.77942 0.46709 0.36699 0.0
C589 C 0.78631 0.44063 0.43505 0.0
C590 C 0.74509 0.46737 0.40456 0.0
C591 C 0.75981 0.50513 0.30285 0.0
N592 N 0.77385 0.44996 0.42461 0.0
N593 N 0.77193 0.49536 0.31039 0.0
H594 H 0.64262 0.37504 0.44548 0.0
H595 H 0.54039 0.26359 0.27569 0.0
H596 H 0.58503 0.3704 0.32598 0.0
H597 H 0.59585 0.26729 0.4135 0.0
H598 H 0.55734 0.30291 0.28663 0.0
H599 H 0.6267 0.33588 0.42674 0.0
C600 C 0.6267 0.36583 0.4147 0.0
C601 C 0.61513 0.37607 0.38764 0.0
C602 C 0.56583 0.29514 0.31438 0.0
C603 C 0.59671 0.33114 0.36659 0.0
C604 C 0.55616 0.27264 0.30805 0.0
C605 C 0.56665 0.26203 0.34391 0.0
C606 C 0.5862 0.30721 0.35673 0.0
C607 C 0.58709 0.27471 0.38506 0.0
C608 C 0.61756 0.34344 0.40452 0.0
C609 C 0.59443 0.36321 0.34916 0.0
N610 N 0.59617 0.29659 0.3904 0.0
N611 N 0.5859 0.34147 0.33985 0.0
H612 H 0.69282 0.23144 0.32395 0.0
H613 H 0.79728 0.34769 0.41375 0.0
H614 H 0.68988 0.28562 0.44074 0.0
H615 H 0.79977 0.29505 0.27753 0.0
H616 H 0.758 0.32521 0.42413 0.0
H617 H 0.73196 0.25441 0.30672 0.0
C618 C 0.70041 0.24816 0.34624 0.0
C619 C 0.688 0.25656 0.3843 0.0
C620 C 0.76711 0.31858 0.39173 0.0
C621 C 0.73292 0.28306 0.36415 0.0
C622 C 0.7896 0.33141 0.38582 0.0
C623 C 0.80194 0.32327 0.34477 0.0
C624 C 0.75679 0.29735 0.35675 0.0
C625 C 0.79098 0.30204 0.30974 0.0
C626 C 0.72277 0.26131 0.33589 0.0
C627 C 0.69872 0.27847 0.41037 0.0
N628 N 0.76906 0.28982 0.31679 0.0
N629 N 0.72055 0.29091 0.40022 0.0
H630 H 0.44478 0.75492 0.77752 0.0
H631 H 0.4354 0.85662 0.60313 0.0
H632 H 0.4976 0.81205 0.65428 0.0
H633 H 0.38409 0.80188 0.74654 0.0
H634 H 0.45775 0.83967 0.61405 0.0
H635 H 0.42161 0.77088 0.75885 0.0
C636 C 0.45148 0.77075 0.74593 0.0
C637 C 0.47323 0.78217 0.71778 0.0
C638 C 0.44159 0.83134 0.64302 0.0
C639 C 0.4468 0.80065 0.69678 0.0
C640 C 0.42877 0.84101 0.63669 0.0
C641 C 0.40779 0.83072 0.67411 0.0
C642 C 0.4334 0.81116 0.68691 0.0
C643 C 0.40016 0.81048 0.71683 0.0
C644 C 0.43827 0.77992 0.73579 0.0
C645 C 0.48105 0.80276 0.67829 0.0
N646 N 0.41294 0.8014 0.7221 0.0
N647 N 0.46787 0.81131 0.66902 0.0
H648 H 0.20939 0.59736 0.59289 0.0
H649 H 0.30425 0.7062 0.82107 0.0
H650 H 0.2593 0.59937 0.76895 0.0
H651 H 0.25829 0.7053 0.62416 0.0
H652 H 0.28746 0.66694 0.80527 0.0
H653 H 0.22657 0.63674 0.60547 0.0
C654 C 0.22396 0.60604 0.63411 0.0
C655 C 0.23288 0.59496 0.67993 0.0
C656 C 0.28106 0.67531 0.76532 0.0
C657 C 0.25263 0.64013 0.69479 0.0
C658 C 0.29058 0.69774 0.7747 0.0
C659 C 0.28267 0.7091 0.72397 0.0
C660 C 0.26337 0.66405 0.70515 0.0
C661 C 0.26509 0.69727 0.6639 0.0
C662 C 0.23379 0.62856 0.64118 0.0
C663 C 0.25181 0.60715 0.7323 0.0
N664 N 0.25599 0.67542 0.65644 0.0
N665 N 0.261 0.62902 0.73842 0.0
H666 H 0.46657 0.6311 0.59042 0.0
H667 H 0.3579 0.61741 0.81787 0.0
H668 H 0.46478 0.67966 0.76319 0.0
H669 H 0.35886 0.57195 0.62295 0.0
H670 H 0.39713 0.64009 0.80116 0.0
H671 H 0.42724 0.60896 0.60338 0.0
C672 C 0.45794 0.63715 0.63096 0.0
C673 C 0.46908 0.65731 0.67585 0.0
C674 C 0.38876 0.62518 0.76184 0.0
C675 C 0.42393 0.63193 0.69119 0.0
C676 C 0.36636 0.61216 0.77173 0.0
C677 C 0.35503 0.59272 0.72181 0.0
C678 C 0.40002 0.61869 0.702 0.0
C679 C 0.36686 0.58691 0.66205 0.0
C680 C 0.43544 0.62449 0.63827 0.0
C681 C 0.45694 0.66425 0.72736 0.0
N682 N 0.38868 0.59978 0.65411 0.0
N683 N 0.43507 0.65158 0.7338 0.0
H684 H 0.05927 0.19869 0.75835 0.0
H685 H 1.00901 0.18635 0.25079 0.0
H686 H 0.99096 0.17054 0.70407 0.0
H687 H 0.07765 0.21793 0.30391 0.0
H688 H 1.00215 0.17954 0.4165 0.0
H689 H 0.06645 0.20527 0.5922 0.0
C690 C 0.04579 0.19393 0.71129 0.0
C691 C 1.02449 0.18409 0.74456 0.0
C692 C 1.01873 0.18797 0.39215 0.0
C693 C 0.03254 0.19143 0.55482 0.0
C694 C 1.02265 0.19185 0.29755 0.0
C695 C 0.04393 0.2028 0.26402 0.0
C696 C 0.03622 0.19507 0.45373 0.0
C697 C 0.061 0.20948 0.3273 0.0
C698 C 0.04989 0.19766 0.61656 0.0
C699 C 1.00761 0.17817 0.68099 0.0
N700 N 0.05678 0.20553 0.41939 0.0
N701 N 1.012 0.18192 0.58902 0.0
H702 H 0.86547 0.87852 0.7591 0.0
H703 H 0.87704 0.83981 0.25161 0.0
H704 H 0.89308 0.8379 0.70489 0.0
H705 H 0.8462 0.87756 0.30453 0.0
H706 H 0.88384 0.83979 0.41738 0.0
H707 H 0.85881 0.87902 0.59293 0.0
C708 C 0.8701 0.86968 0.71205 0.0
C709 C 0.87982 0.85813 0.74534 0.0
C710 C 0.87558 0.84808 0.39297 0.0
C711 C 0.87237 0.85871 0.5556 0.0
C712 C 0.8717 0.84811 0.29833 0.0
C713 C 0.86097 0.85864 0.26472 0.0
C714 C 0.86869 0.85869 0.45449 0.0
C715 C 0.85448 0.86921 0.32797 0.0
C716 C 0.86631 0.86999 0.61731 0.0
C717 C 0.88555 0.847 0.68179 0.0
N718 N 0.85842 0.86895 0.42008 0.0
N719 N 0.88176 0.84758 0.58983 0.0
H720 H 0.22641 0.07394 0.7064 0.0
H721 H 0.18483 0.98528 0.30002 0.0
H722 H 0.18558 1.00544 0.75393 0.0
H723 H 0.22307 0.05411 0.25385 0.0
H724 H 0.18507 0.9921 0.46686 0.0
H725 H 0.22576 0.06684 0.54007 0.0
C726 C 0.21733 0.0574 0.68164 0.0
C727 C 0.20603 0.04025 0.74356 0.0
C728 C 0.19339 1.00571 0.42018 0.0
C729 C 0.20518 0.03195 0.55381 0.0
C730 C 0.19324 1.00181 0.32512 0.0
C731 C 0.20401 1.01916 0.26351 0.0
C732 C 0.20441 0.02711 0.45344 0.0
C733 C 0.21463 0.04027 0.29922 0.0
C734 C 0.21694 0.05334 0.58679 0.0
C735 C 0.19453 1.01911 0.70821 0.0
N736 N 0.2146 0.04366 0.39187 0.0
N737 N 0.19439 1.01555 0.61555 0.0
H738 H 0.67559 0.52052 0.58325 0.0
H739 H 0.72569 0.53172 0.09058 0.0
H740 H 0.74416 0.55085 0.63607 0.0
H741 H 0.65747 0.50436 0.03649 0.0
H742 H 0.7329 0.53837 0.92444 0.0
H743 H 0.6687 0.51374 0.749 0.0
C744 C 0.68921 0.52575 0.62994 0.0
C745 C 0.71049 0.53633 0.59631 0.0
C746 C 0.71635 0.53092 0.94883 0.0
C747 C 0.70273 0.52863 0.78606 0.0
C748 C 0.71224 0.52714 0.04356 0.0
C749 C 0.69095 0.51749 0.07688 0.0
C750 C 0.69904 0.52494 0.88716 0.0
C751 C 0.67411 0.51183 0.01337 0.0
C752 C 0.68526 0.52188 0.72457 0.0
C753 C 0.72752 0.54269 0.65952 0.0
N754 N 0.67851 0.51563 0.92142 0.0
N755 N 0.72328 0.53876 0.75162 0.0
H756 H 0.5129 0.21288 0.63549 0.0
H757 H 0.55945 0.17077 0.04081 0.0
H758 H 0.54314 0.17435 0.58846 0.0
H759 H 0.53224 0.21196 0.08917 0.0
H760 H 0.55304 0.17149 0.87454 0.0
H761 H 0.51945 0.21257 0.80227 0.0
C762 C 0.52094 0.20439 0.66039 0.0
C763 C 0.52742 0.19356 0.59856 0.0
C764 C 0.54846 0.18038 0.92143 0.0
C765 C 0.53494 0.19309 0.7884 0.0
C766 C 0.5521 0.17994 0.01625 0.0
C767 C 0.54636 0.19132 0.07839 0.0
C768 C 0.53898 0.19226 0.88872 0.0
C769 C 0.53688 0.20295 0.04329 0.0
C770 C 0.52467 0.2042 0.75541 0.0
C771 C 0.53781 0.18284 0.63401 0.0
N772 N 0.53347 0.20313 0.95066 0.0
N773 N 0.54121 0.18284 0.72662 0.0
H774 H 0.88916 0.38787 0.58377 0.0
H775 H 0.85208 0.33764 0.09161 0.0
H776 H 0.85239 0.31922 0.63691 0.0
H777 H 0.89156 0.40602 0.03717 0.0
H778 H 0.85136 0.33044 0.92537 0.0
H779 H 0.88933 0.39476 0.74959 0.0
C780 C 0.8811 0.37423 0.63056 0.0
C781 C 0.87082 0.35294 0.59703 0.0
C782 C 0.86019 0.34702 0.94971 0.0
C783 C 0.87095 0.36068 0.7868 0.0
C784 C 0.86062 0.35113 0.04449 0.0
C785 C 0.87191 0.37245 0.0777 0.0
C786 C 0.87108 0.36438 0.88792 0.0
C787 C 0.88267 0.38935 0.0141 0.0
C788 C 0.88122 0.37818 0.72522 0.0
C789 C 0.86055 0.33587 0.66031 0.0
N790 N 0.88198 0.38494 0.92209 0.0
N791 N 0.8609 0.34011 0.75245 0.0
H792 H 0.32378 0.83736 0.37187 0.0
H793 H 0.41257 0.885 0.96672 0.0
H794 H 0.39233 0.86574 0.42038 0.0
H795 H 0.34375 0.8542 0.91961 0.0
H796 H 0.40569 0.87836 0.13343 0.0
H797 H 0.33091 0.84384 0.20563 0.0
C798 C 0.34033 0.84497 0.34735 0.0
C799 C 0.3575 0.85101 0.40952 0.0
C800 C 0.3921 0.87305 0.08658 0.0
C801 C 0.36582 0.85848 0.21987 0.0
C802 C 0.39603 0.87682 -0.0084 0.0
C803 C 0.37871 0.8702 0.92975 0.0
C804 C 0.37069 0.86258 0.11955 0.0
C805 C 0.35758 0.85963 0.96518 0.0
C806 C 0.34441 0.84866 0.25255 0.0
C807 C 0.37865 0.86084 0.37446 0.0
N808 N 0.35417 0.85619 0.05776 0.0
N809 N 0.38223 0.86428 0.28185 0.0
H810 H 0.21066 0.50747 0.91589 0.0
H811 H 0.19799 0.54518 0.42387 0.0
H812 H 0.17872 0.54416 0.96933 0.0
H813 H 0.22713 0.50595 0.36909 0.0
H814 H 0.19129 0.54562 0.25772 0.0
H815 H 0.21757 0.50755 0.08163 0.0
C816 C 0.2051 0.51555 0.96273 0.0
C817 C 0.19402 0.52575 0.92927 0.0
C818 C 0.19914 0.53691 0.28196 0.0
C819 C 0.20187 0.52592 0.119 0.0
C820 C 0.20295 0.53665 0.3767 0.0
C821 C 0.21311 0.5255 0.40983 0.0
C822 C 0.2056 0.52599 0.2201 0.0
C823 C 0.21925 0.51473 0.34612 0.0
C824 C 0.20904 0.51559 0.05734 0.0
C825 C 0.18727 0.53607 -0.00736 0.0
N826 N 0.21541 0.51526 0.25417 0.0
N827 N 0.19128 0.53587 0.08473 0.0
H828 H 0.51868 0.67161 0.4202 0.0
H829 H 0.55727 0.72187 0.91312 0.0
H830 H 0.55902 0.73992 0.36656 0.0
H831 H 0.51937 0.65325 0.96548 0.0
H832 H 0.55734 0.72873 0.07897 0.0
H833 H 0.51817 0.66444 0.25398 0.0
C834 C 0.52744 0.68509 0.37326 0.0
C835 C 0.53892 0.70639 0.40672 0.0
C836 C 0.54901 0.71216 0.05442 0.0
C837 C 0.53835 0.69835 0.21693 0.0
C838 C 0.54895 0.70824 0.95974 0.0
C839 C 0.53836 0.68695 0.92595 0.0
C840 C 0.53837 0.69467 0.11579 0.0
C841 C 0.52777 0.6699 -0.01094 0.0
C842 C 0.52714 0.68099 0.27849 0.0
C843 C 0.54998 0.72327 0.34332 0.0
N844 N 0.52805 0.67412 0.0812 0.0
N845 N 0.54941 0.71888 0.25132 0.0
loop_
_geom_bond_atom_site_label_1
_geom_bond_atom_site_label_2
_geom_bond_distance
_geom_bond_site_symmetry_2
_ccdc_geom_bond_type
Sm0 C2 2.846 1_554 S
Sm0 O20 2.543 1_554 S
Sm0 O21 2.450 . S
Sm0 O22 2.681 . S
Sm0 O23 2.464 . S
Sm0 O24 2.396 . S
Sm0 O28 2.386 1_554 S
Sm0 O31 2.408 . S
Sm1 C11 2.845 1_556 S
Sm1 O22 2.381 1_656 S
Sm1 O25 2.408 1_556 S
Sm1 O26 2.539 1_556 S
Sm1 O27 2.452 . S
Sm1 O28 2.685 1_655 S
Sm1 O29 2.471 . S
Sm1 O30 2.397 1_655 S
C2 Sm0 2.846 1_556 S
C2 C3 1.506 . S
C2 O20 1.261 . S
C2 O21 1.242 1_556 S
C3 C2 1.506 . S
C3 C4 1.358 . S
C3 C8 1.382 1_556 S
C4 C3 1.358 . S
C4 C5 1.385 . S
C4 H32 0.930 . S
C5 C4 1.385 . S
C5 C6 1.395 . S
C5 H33 0.929 . S
C6 C5 1.395 . S
C6 C7 1.335 1_556 S
C7 C6 1.335 1_554 S
C7 C8 1.398 . S
C7 H34 0.930 . S
C8 C3 1.382 1_554 S
C8 C7 1.398 . S
C8 H35 0.929 . S
C9 O22 1.271 . S
C9 O23 1.251 . S
C10 O24 1.252 1_655 S
C10 O25 1.272 . S
C11 Sm1 2.845 1_554 S
C11 C12 1.506 . S
C11 O26 1.261 . S
C11 O27 1.242 1_554 S
C12 C11 1.506 . S
C12 C13 1.358 . S
C12 C17 1.382 1_554 S
C13 C12 1.358 . S
C13 C14 1.385 . S
C13 H36 0.930 . S
C14 C13 1.385 . S
C14 C15 1.395 . S
C14 H37 0.929 . S
C15 C14 1.395 . S
C15 C16 1.335 1_554 S
C16 C15 1.335 1_556 S
C16 C17 1.398 . S
C16 H38 0.930 . S
C17 C12 1.382 1_556 S
C17 C16 1.398 . S
C17 H39 0.929 . S
C18 O28 1.271 1_655 S
C18 O29 1.251 . S
C19 O30 1.252 . S
C19 O31 1.272 1_556 S
O20 Sm0 2.543 1_556 S
O20 C2 1.261 . S
O21 Sm0 2.450 . S
O21 C2 1.242 1_554 S
O22 Sm0 2.681 . S
O22 Sm1 2.381 1_454 S
O22 C9 1.271 . S
O23 Sm0 2.464 . S
O23 C9 1.251 . S
O24 Sm0 2.396 . S
O24 C10 1.252 1_455 S
O25 Sm1 2.408 1_554 S
O25 C10 1.272 . S
O26 Sm1 2.539 1_554 S
O26 C11 1.261 . S
O27 Sm1 2.452 . S
O27 C11 1.242 1_556 S
O28 Sm0 2.386 1_556 S
O28 Sm1 2.685 1_455 S
O28 C18 1.271 1_455 S
O29 Sm1 2.471 . S
O29 C18 1.251 . S
O30 Sm1 2.397 1_455 S
O30 C19 1.252 . S
O31 Sm0 2.408 . S
O31 C19 1.272 1_554 S
H32 C4 0.930 . S
H33 C5 0.929 . S
H34 C7 0.930 . S
H35 C8 0.929 . S
H36 C13 0.930 . S
H37 C14 0.929 . S
H38 C16 0.930 . S
H39 C17 0.929 . S
Sm40 C42 2.846 1_554 S
Sm40 O60 2.543 1_554 S
Sm40 O61 2.450 . S
Sm40 O62 2.681 . S
Sm40 O63 2.464 . S
Sm40 O64 2.396 . S
Sm40 O68 2.386 1_554 S
Sm40 O71 2.408 . S
Sm41 C51 2.845 1_556 S
Sm41 O62 2.379 1_556 S
Sm41 O65 2.407 1_556 S
Sm41 O66 2.537 1_556 S
Sm41 O67 2.453 . S
Sm41 O68 2.687 . S
Sm41 O69 2.474 . S
Sm41 O70 2.398 . S
C42 Sm40 2.846 1_556 S
C42 C43 1.506 . S
C42 O60 1.261 . S
C42 O61 1.242 1_556 S
C43 C42 1.506 . S
C43 C44 1.358 . S
C43 C48 1.382 1_556 S
C44 C43 1.358 . S
C44 C45 1.385 . S
C44 H72 0.930 . S
C45 C44 1.385 . S
C45 C46 1.395 . S
C45 H73 0.929 . S
C46 C45 1.395 . S
C46 C47 1.335 1_556 S
C47 C46 1.335 1_554 S
C47 C48 1.398 . S
C47 H74 0.930 . S
C48 C43 1.382 1_554 S
C48 C47 1.398 . S
C48 H75 0.929 . S
C49 O62 1.271 . S
C49 O63 1.251 . S
C50 O64 1.252 . S
C50 O65 1.272 . S
C51 Sm41 2.845 1_554 S
C51 C52 1.506 . S
C51 O66 1.261 . S
C51 O67 1.242 1_554 S
C52 C51 1.506 . S
C52 C53 1.358 . S
C52 C57 1.382 1_554 S
C53 C52 1.358 . S
C53 C54 1.385 . S
C53 H76 0.930 . S
C54 C53 1.385 . S
C54 C55 1.395 . S
C54 H77 0.929 . S
C55 C54 1.395 . S
C55 C56 1.335 1_554 S
C56 C55 1.335 1_556 S
C56 C57 1.398 . S
C56 H78 0.930 . S
C57 C52 1.382 1_556 S
C57 C56 1.398 . S
C57 H79 0.929 . S
C58 O68 1.271 . S
C58 O69 1.251 . S
C59 O70 1.252 . S
C59 O71 1.272 1_556 S
O60 Sm40 2.543 1_556 S
O60 C42 1.261 . S
O61 Sm40 2.450 . S
O61 C42 1.242 1_554 S
O62 Sm40 2.681 . S
O62 Sm41 2.379 1_554 S
O62 C49 1.271 . S
O63 Sm40 2.464 . S
O63 C49 1.251 . S
O64 Sm40 2.396 . S
O64 C50 1.252 . S
O65 Sm41 2.407 1_554 S
O65 C50 1.272 . S
O66 Sm41 2.537 1_554 S
O66 C51 1.261 . S
O67 Sm41 2.453 . S
O67 C51 1.242 1_556 S
O68 Sm40 2.386 1_556 S
O68 Sm41 2.687 . S
O68 C58 1.271 . S
O69 Sm41 2.474 . S
O69 C58 1.251 . S
O70 Sm41 2.398 . S
O70 C59 1.252 . S
O71 Sm40 2.408 . S
O71 C59 1.272 1_554 S
H72 C44 0.930 . S
H73 C45 0.929 . S
H74 C47 0.930 . S
H75 C48 0.929 . S
H76 C53 0.930 . S
H77 C54 0.929 . S
H78 C56 0.930 . S
H79 C57 0.929 . S
Sm80 C82 2.846 1_554 S
Sm80 O100 2.543 1_554 S
Sm80 O101 2.450 . S
Sm80 O102 2.681 1_565 S
Sm80 O103 2.464 . S
Sm80 O104 2.396 1_565 S
Sm80 O108 2.386 1_564 S
Sm80 O111 2.408 . S
Sm81 C91 2.845 1_556 S
Sm81 O102 2.379 1_556 S
Sm81 O105 2.407 1_556 S
Sm81 O106 2.537 1_556 S
Sm81 O107 2.453 . S
Sm81 O108 2.687 . S
Sm81 O109 2.474 . S
Sm81 O110 2.398 . S
C82 Sm80 2.846 1_556 S
C82 C83 1.506 . S
C82 O100 1.261 . S
C82 O101 1.242 1_556 S
C83 C82 1.506 . S
C83 C84 1.358 . S
C83 C88 1.382 1_556 S
C84 C83 1.358 . S
C84 C85 1.385 . S
C84 H112 0.930 . S
C85 C84 1.385 . S
C85 C86 1.395 . S
C85 H113 0.929 . S
C86 C85 1.395 . S
C86 C87 1.335 1_556 S
C87 C86 1.335 1_554 S
C87 C88 1.398 . S
C87 H114 0.930 . S
C88 C83 1.382 1_554 S
C88 C87 1.398 . S
C88 H115 0.929 . S
C89 O102 1.263 1_565 S
C89 O103 1.268 . S
C90 O104 1.252 . S
C90 O105 1.272 . S
C91 Sm81 2.845 1_554 S
C91 C92 1.506 . S
C91 O106 1.261 . S
C91 O107 1.242 1_554 S
C92 C91 1.506 . S
C92 C93 1.358 . S
C92 C97 1.382 1_554 S
C93 C92 1.358 . S
C93 C94 1.385 . S
C93 H116 0.930 . S
C94 C93 1.385 . S
C94 C95 1.395 . S
C94 H117 0.929 . S
C95 C94 1.395 . S
C95 C96 1.335 1_554 S
C96 C95 1.335 1_556 S
C96 C97 1.398 . S
C96 H118 0.930 . S
C97 C92 1.382 1_556 S
C97 C96 1.398 . S
C97 H119 0.929 . S
C98 O108 1.271 . S
C98 O109 1.251 . S
C99 O110 1.252 1_565 S
C99 O111 1.272 1_556 S
O100 Sm80 2.543 1_556 S
O100 C82 1.261 . S
O101 Sm80 2.450 . S
O101 C82 1.242 1_554 S
O102 Sm80 2.681 1_545 S
O102 Sm81 2.379 1_554 S
O102 C89 1.263 1_545 S
O103 Sm80 2.464 . S
O103 C89 1.268 . S
O104 Sm80 2.396 1_545 S
O104 C90 1.252 . S
O105 Sm81 2.407 1_554 S
O105 C90 1.272 . S
O106 Sm81 2.537 1_554 S
O106 C91 1.261 . S
O107 Sm81 2.453 . S
O107 C91 1.242 1_556 S
O108 Sm80 2.386 1_546 S
O108 Sm81 2.687 . S
O108 C98 1.271 . S
O109 Sm81 2.474 . S
O109 C98 1.251 . S
O110 Sm81 2.398 . S
O110 C99 1.252 1_545 S
O111 Sm80 2.408 . S
O111 C99 1.272 1_554 S
H112 C84 0.930 . S
H113 C85 0.929 . S
H114 C87 0.930 . S
H115 C88 0.929 . S
H116 C93 0.930 . S
H117 C94 0.929 . S
H118 C96 0.930 . S
H119 C97 0.929 . S
Sm120 C122 2.846 . S
Sm120 O140 2.543 . S
Sm120 O141 2.450 . S
Sm120 O142 2.681 . S
Sm120 O143 2.464 . S
Sm120 O144 2.396 . S
Sm120 O148 2.386 . S
Sm120 O151 2.408 . S
Sm121 C131 2.846 . S
Sm121 O142 2.386 . S
Sm121 O145 2.408 . S
Sm121 O146 2.543 . S
Sm121 O147 2.450 . S
Sm121 O148 2.681 . S
Sm121 O149 2.464 . S
Sm121 O150 2.396 . S
C122 Sm120 2.846 . S
C122 C123 1.506 . S
C122 O140 1.261 . S
C122 O141 1.242 . S
C123 C122 1.506 . S
C123 C124 1.358 . S
C123 C128 1.382 . S
C124 C123 1.358 . S
C124 C125 1.385 . S
C124 H152 0.930 . S
C125 C124 1.385 . S
C125 C126 1.395 . S
C125 H153 0.929 . S
C126 C125 1.395 . S
C126 C127 1.335 . S
C127 C126 1.335 . S
C127 C128 1.398 . S
C127 H154 0.930 . S
C128 C123 1.382 . S
C128 C127 1.398 . S
C128 H155 0.929 . S
C129 O142 1.271 . S
C129 O143 1.251 . S
C130 O144 1.252 . S
C130 O145 1.272 . S
C131 Sm121 2.846 . S
C131 C132 1.506 . S
C131 O146 1.261 . S
C131 O147 1.242 . S
C132 C131 1.506 . S
C132 C133 1.358 . S
C132 C137 1.382 . S
C133 C132 1.358 . S
C133 C134 1.385 . S
C133 H156 0.930 . S
C134 C133 1.385 . S
C134 C135 1.395 . S
C134 H157 0.929 . S
C135 C134 1.395 . S
C135 C136 1.335 . S
C136 C135 1.335 . S
C136 C137 1.398 . S
C136 H158 0.930 . S
C137 C132 1.382 . S
C137 C136 1.398 . S
C137 H159 0.929 . S
C138 O148 1.271 . S
C138 O149 1.251 . S
C139 O150 1.252 . S
C139 O151 1.272 . S
O140 Sm120 2.543 . S
O140 C122 1.261 . S
O141 Sm120 2.450 . S
O141 C122 1.242 . S
O142 Sm120 2.681 . S
O142 Sm121 2.386 . S
O142 C129 1.271 . S
O143 Sm120 2.464 . S
O143 C129 1.251 . S
O144 Sm120 2.396 . S
O144 C130 1.252 . S
O145 Sm121 2.408 . S
O145 C130 1.272 . S
O146 Sm121 2.543 . S
O146 C131 1.261 . S
O147 Sm121 2.450 . S
O147 C131 1.242 . S
O148 Sm120 2.386 . S
O148 Sm121 2.681 . S
O148 C138 1.271 . S
O149 Sm121 2.464 . S
O149 C138 1.251 . S
O150 Sm121 2.396 . S
O150 C139 1.252 . S
O151 Sm120 2.408 . S
O151 C139 1.272 . S
H152 C124 0.930 . S
H153 C125 0.929 . S
H154 C127 0.930 . S
H155 C128 0.929 . S
H156 C133 0.930 . S
H157 C134 0.929 . S
H158 C136 0.930 . S
H159 C137 0.929 . S
Sm160 C162 2.846 . S
Sm160 O180 2.543 . S
Sm160 O181 2.450 . S
Sm160 O182 2.681 . S
Sm160 O183 2.464 . S
Sm160 O184 2.396 . S
Sm160 O188 2.386 . S
Sm160 O191 2.408 . S
Sm161 C171 2.846 . S
Sm161 O182 2.386 . S
Sm161 O185 2.408 . S
Sm161 O186 2.543 . S
Sm161 O187 2.450 . S
Sm161 O188 2.681 . S
Sm161 O189 2.464 . S
Sm161 O190 2.396 . S
C162 Sm160 2.846 . S
C162 C163 1.506 . S
C162 O180 1.261 . S
C162 O181 1.242 . S
C163 C162 1.506 . S
C163 C164 1.358 . S
C163 C168 1.382 . S
C164 C163 1.358 . S
C164 C165 1.385 . S
C164 H192 0.930 . S
C165 C164 1.385 . S
C165 C166 1.395 . S
C165 H193 0.929 . S
C166 C165 1.395 . S
C166 C167 1.335 . S
C167 C166 1.335 . S
C167 C168 1.398 . S
C167 H194 0.930 . S
C168 C163 1.382 . S
C168 C167 1.398 . S
C168 H195 0.929 . S
C169 O182 1.271 . S
C169 O183 1.251 . S
C170 O184 1.252 . S
C170 O185 1.272 . S
C171 Sm161 2.846 . S
C171 C172 1.506 . S
C171 O186 1.261 . S
C171 O187 1.242 . S
C172 C171 1.506 . S
C172 C173 1.358 . S
C172 C177 1.382 . S
C173 C172 1.358 . S
C173 C174 1.385 . S
C173 H196 0.930 . S
C174 C173 1.385 . S
C174 C175 1.395 . S
C174 H197 0.929 . S
C175 C174 1.395 . S
C175 C176 1.335 . S
C176 C175 1.335 . S
C176 C177 1.398 . S
C176 H198 0.930 . S
C177 C172 1.382 . S
C177 C176 1.398 . S
C177 H199 0.929 . S
C178 O188 1.271 . S
C178 O189 1.251 . S
C179 O190 1.252 . S
C179 O191 1.272 . S
O180 Sm160 2.543 . S
O180 C162 1.261 . S
O181 Sm160 2.450 . S
O181 C162 1.242 . S
O182 Sm160 2.681 . S
O182 Sm161 2.386 . S
O182 C169 1.271 . S
O183 Sm160 2.464 . S
O183 C169 1.251 . S
O184 Sm160 2.396 . S
O184 C170 1.252 . S
O185 Sm161 2.408 . S
O185 C170 1.272 . S
O186 Sm161 2.543 . S
O186 C171 1.261 . S
O187 Sm161 2.450 . S
O187 C171 1.242 . S
O188 Sm160 2.386 . S
O188 Sm161 2.681 . S
O188 C178 1.271 . S
O189 Sm161 2.464 . S
O189 C178 1.251 . S
O190 Sm161 2.396 . S
O190 C179 1.252 . S
O191 Sm160 2.408 . S
O191 C179 1.272 . S
H192 C164 0.930 . S
H193 C165 0.929 . S
H194 C167 0.930 . S
H195 C168 0.929 . S
H196 C173 0.930 . S
H197 C174 0.929 . S
H198 C176 0.930 . S
H199 C177 0.929 . S
Sm200 C202 2.846 . S
Sm200 O220 2.543 . S
Sm200 O221 2.450 . S
Sm200 O222 2.681 . S
Sm200 O223 2.464 . S
Sm200 O224 2.396 . S
Sm200 O228 2.386 . S
Sm200 O231 2.408 . S
Sm201 C211 2.846 . S
Sm201 O222 2.386 . S
Sm201 O225 2.408 . S
Sm201 O226 2.543 . S
Sm201 O227 2.450 . S
Sm201 O228 2.681 . S
Sm201 O229 2.464 . S
Sm201 O230 2.396 . S
C202 Sm200 2.846 . S
C202 C203 1.506 . S
C202 O220 1.261 . S
C202 O221 1.242 . S
C203 C202 1.506 . S
C203 C204 1.358 . S
C203 C208 1.382 . S
C204 C203 1.358 . S
C204 C205 1.385 . S
C204 H232 0.930 . S
C205 C204 1.385 . S
C205 C206 1.395 . S
C205 H233 0.929 . S
C206 C205 1.395 . S
C206 C207 1.335 . S
C207 C206 1.335 . S
C207 C208 1.398 . S
C207 H234 0.930 . S
C208 C203 1.382 . S
C208 C207 1.398 . S
C208 H235 0.929 . S
C209 O222 1.271 . S
C209 O223 1.251 . S
C210 O224 1.252 . S
C210 O225 1.272 . S
C211 Sm201 2.846 . S
C211 C212 1.506 . S
C211 O226 1.261 . S
C211 O227 1.242 . S
C212 C211 1.506 . S
C212 C213 1.358 . S
C212 C217 1.382 . S
C213 C212 1.358 . S
C213 C214 1.385 . S
C213 H236 0.930 . S
C214 C213 1.385 . S
C214 C215 1.395 . S
C214 H237 0.929 . S
C215 C214 1.395 . S
C215 C216 1.335 . S
C216 C215 1.335 . S
C216 C217 1.398 . S
C216 H238 0.930 . S
C217 C212 1.382 . S
C217 C216 1.398 . S
C217 H239 0.929 . S
C218 O228 1.271 . S
C218 O229 1.251 . S
C219 O230 1.252 . S
C219 O231 1.272 . S
O220 Sm200 2.543 . S
O220 C202 1.261 . S
O221 Sm200 2.450 . S
O221 C202 1.242 . S
O222 Sm200 2.681 . S
O222 Sm201 2.386 . S
O222 C209 1.271 . S
O223 Sm200 2.464 . S
O223 C209 1.251 . S
O224 Sm200 2.396 . S
O224 C210 1.252 . S
O225 Sm201 2.408 . S
O225 C210 1.272 . S
O226 Sm201 2.543 . S
O226 C211 1.261 . S
O227 Sm201 2.450 . S
O227 C211 1.242 . S
O228 Sm200 2.386 . S
O228 Sm201 2.681 . S
O228 C218 1.271 . S
O229 Sm201 2.464 . S
O229 C218 1.251 . S
O230 Sm201 2.396 . S
O230 C219 1.252 . S
O231 Sm200 2.408 . S
O231 C219 1.272 . S
H232 C204 0.930 . S
H233 C205 0.929 . S
H234 C207 0.930 . S
H235 C208 0.929 . S
H236 C213 0.930 . S
H237 C214 0.929 . S
H238 C216 0.930 . S
H239 C217 0.929 . S
Sm240 C242 2.846 . S
Sm240 O260 2.543 . S
Sm240 O261 2.450 . S
Sm240 O262 2.681 . S
Sm240 O263 2.464 . S
Sm240 O264 2.396 . S
Sm240 O268 2.386 . S
Sm240 O271 2.408 . S
Sm241 C251 2.846 . S
Sm241 O262 2.386 . S
Sm241 O265 2.408 . S
Sm241 O266 2.543 . S
Sm241 O267 2.450 . S
Sm241 O268 2.681 . S
Sm241 O269 2.464 . S
Sm241 O270 2.396 . S
C242 Sm240 2.846 . S
C242 C243 1.506 . S
C242 O260 1.261 . S
C242 O261 1.242 . S
C243 C242 1.506 . S
C243 C244 1.358 . S
C243 C248 1.382 . S
C244 C243 1.358 . S
C244 C245 1.385 . S
C244 H272 0.930 . S
C245 C244 1.385 . S
C245 C246 1.395 . S
C245 H273 0.929 . S
C246 C245 1.395 . S
C246 C247 1.335 . S
C247 C246 1.335 . S
C247 C248 1.398 . S
C247 H274 0.930 . S
C248 C243 1.382 . S
C248 C247 1.398 . S
C248 H275 0.929 . S
C249 O262 1.271 . S
C249 O263 1.251 . S
C250 O264 1.252 . S
C250 O265 1.272 . S
C251 Sm241 2.846 . S
C251 C252 1.506 . S
C251 O266 1.261 . S
C251 O267 1.242 . S
C252 C251 1.506 . S
C252 C253 1.358 . S
C252 C257 1.382 . S
C253 C252 1.358 . S
C253 C254 1.385 . S
C253 H276 0.930 . S
C254 C253 1.385 . S
C254 C255 1.395 . S
C254 H277 0.929 . S
C255 C254 1.395 . S
C255 C256 1.335 . S
C256 C255 1.335 . S
C256 C257 1.398 . S
C256 H278 0.930 . S
C257 C252 1.382 . S
C257 C256 1.398 . S
C257 H279 0.929 . S
C258 O268 1.271 . S
C258 O269 1.251 . S
C259 O270 1.252 . S
C259 O271 1.272 . S
O260 Sm240 2.543 . S
O260 C242 1.261 . S
O261 Sm240 2.450 . S
O261 C242 1.242 . S
O262 Sm240 2.681 . S
O262 Sm241 2.386 . S
O262 C249 1.271 . S
O263 Sm240 2.464 . S
O263 C249 1.251 . S
O264 Sm240 2.396 . S
O264 C250 1.252 . S
O265 Sm241 2.408 . S
O265 C250 1.272 . S
O266 Sm241 2.543 . S
O266 C251 1.261 . S
O267 Sm241 2.450 . S
O267 C251 1.242 . S
O268 Sm240 2.386 . S
O268 Sm241 2.681 . S
O268 C258 1.271 . S
O269 Sm241 2.464 . S
O269 C258 1.251 . S
O270 Sm241 2.396 . S
O270 C259 1.252 . S
O271 Sm240 2.408 . S
O271 C259 1.272 . S
H272 C244 0.930 . S
H273 C245 0.929 . S
H274 C247 0.930 . S
H275 C248 0.929 . S
H276 C253 0.930 . S
H277 C254 0.929 . S
H278 C256 0.930 . S
H279 C257 0.929 . S
Sm280 C282 2.846 . S
Sm280 O300 2.543 . S
Sm280 O301 2.450 . S
Sm280 O302 2.681 . S
Sm280 O303 2.464 . S
Sm280 O304 2.396 . S
Sm280 O308 2.386 . S
Sm280 O311 2.408 . S
Sm281 C291 2.846 . S
Sm281 O302 2.386 . S
Sm281 O305 2.408 . S
Sm281 O306 2.543 . S
Sm281 O307 2.450 . S
Sm281 O308 2.681 . S
Sm281 O309 2.464 . S
Sm281 O310 2.396 . S
C282 Sm280 2.846 . S
C282 C283 1.506 . S
C282 O300 1.261 . S
C282 O301 1.242 . S
C283 C282 1.506 . S
C283 C284 1.358 . S
C283 C288 1.382 . S
C284 C283 1.358 . S
C284 C285 1.385 . S
C284 H312 0.930 . S
C285 C284 1.385 . S
C285 C286 1.395 . S
C285 H313 0.929 . S
C286 C285 1.395 . S
C286 C287 1.335 . S
C287 C286 1.335 . S
C287 C288 1.398 . S
C287 H314 0.930 . S
C288 C283 1.382 . S
C288 C287 1.398 . S
C288 H315 0.929 . S
C289 O302 1.271 . S
C289 O303 1.251 . S
C290 O304 1.252 . S
C290 O305 1.272 . S
C291 Sm281 2.846 . S
C291 C292 1.506 . S
C291 O306 1.261 . S
C291 O307 1.242 . S
C292 C291 1.506 . S
C292 C293 1.358 . S
C292 C297 1.382 . S
C293 C292 1.358 . S
C293 C294 1.385 . S
C293 H316 0.930 . S
C294 C293 1.385 . S
C294 C295 1.395 . S
C294 H317 0.929 . S
C295 C294 1.395 . S
C295 C296 1.335 . S
C296 C295 1.335 . S
C296 C297 1.398 . S
C296 H318 0.930 . S
C297 C292 1.382 . S
C297 C296 1.398 . S
C297 H319 0.929 . S
C298 O308 1.271 . S
C298 O309 1.251 . S
C299 O310 1.252 . S
C299 O311 1.272 . S
O300 Sm280 2.543 . S
O300 C282 1.261 . S
O301 Sm280 2.450 . S
O301 C282 1.242 . S
O302 Sm280 2.681 . S
O302 Sm281 2.386 . S
O302 C289 1.271 . S
O303 Sm280 2.464 . S
O303 C289 1.251 . S
O304 Sm280 2.396 . S
O304 C290 1.252 . S
O305 Sm281 2.408 . S
O305 C290 1.272 . S
O306 Sm281 2.543 . S
O306 C291 1.261 . S
O307 Sm281 2.450 . S
O307 C291 1.242 . S
O308 Sm280 2.386 . S
O308 Sm281 2.681 . S
O308 C298 1.271 . S
O309 Sm281 2.464 . S
O309 C298 1.251 . S
O310 Sm281 2.396 . S
O310 C299 1.252 . S
O311 Sm280 2.408 . S
O311 C299 1.272 . S
H312 C284 0.930 . S
H313 C285 0.929 . S
H314 C287 0.930 . S
H315 C288 0.929 . S
H316 C293 0.930 . S
H317 C294 0.929 . S
H318 C296 0.930 . S
H319 C297 0.929 . S
Sm320 C322 2.846 . S
Sm320 O340 2.543 . S
Sm320 O341 2.450 . S
Sm320 O342 2.681 . S
Sm320 O343 2.464 . S
Sm320 O344 2.396 . S
Sm320 O348 2.386 . S
Sm320 O351 2.408 . S
Sm321 C331 2.846 . S
Sm321 O342 2.386 . S
Sm321 O345 2.408 . S
Sm321 O346 2.543 . S
Sm321 O347 2.450 . S
Sm321 O348 2.681 . S
Sm321 O349 2.464 . S
Sm321 O350 2.396 . S
C322 Sm320 2.846 . S
C322 C323 1.506 . S
C322 O340 1.261 . S
C322 O341 1.242 . S
C323 C322 1.506 . S
C323 C324 1.358 . S
C323 C328 1.382 . S
C324 C323 1.358 . S
C324 C325 1.385 . S
C324 H352 0.930 . S
C325 C324 1.385 . S
C325 C326 1.395 . S
C325 H353 0.929 . S
C326 C325 1.395 . S
C326 C327 1.335 . S
C327 C326 1.335 . S
C327 C328 1.398 . S
C327 H354 0.930 . S
C328 C323 1.382 . S
C328 C327 1.398 . S
C328 H355 0.929 . S
C329 O342 1.271 . S
C329 O343 1.251 . S
C330 O344 1.252 . S
C330 O345 1.272 . S
C331 Sm321 2.846 . S
C331 C332 1.506 . S
C331 O346 1.261 . S
C331 O347 1.242 . S
C332 C331 1.506 . S
C332 C333 1.358 . S
C332 C337 1.382 . S
C333 C332 1.358 . S
C333 C334 1.385 . S
C333 H356 0.930 . S
C334 C333 1.385 . S
C334 C335 1.395 . S
C334 H357 0.929 . S
C335 C334 1.395 . S
C335 C336 1.335 . S
C336 C335 1.335 . S
C336 C337 1.398 . S
C336 H358 0.930 . S
C337 C332 1.382 . S
C337 C336 1.398 . S
C337 H359 0.929 . S
C338 O348 1.271 . S
C338 O349 1.251 . S
C339 O350 1.252 . S
C339 O351 1.272 . S
O340 Sm320 2.543 . S
O340 C322 1.261 . S
O341 Sm320 2.450 . S
O341 C322 1.242 . S
O342 Sm320 2.681 . S
O342 Sm321 2.386 . S
O342 C329 1.271 . S
O343 Sm320 2.464 . S
O343 C329 1.251 . S
O344 Sm320 2.396 . S
O344 C330 1.252 . S
O345 Sm321 2.408 . S
O345 C330 1.272 . S
O346 Sm321 2.543 . S
O346 C331 1.261 . S
O347 Sm321 2.450 . S
O347 C331 1.242 . S
O348 Sm320 2.386 . S
O348 Sm321 2.681 . S
O348 C338 1.271 . S
O349 Sm321 2.464 . S
O349 C338 1.251 . S
O350 Sm321 2.396 . S
O350 C339 1.252 . S
O351 Sm320 2.408 . S
O351 C339 1.272 . S
H352 C324 0.930 . S
H353 C325 0.929 . S
H354 C327 0.930 . S
H355 C328 0.929 . S
H356 C333 0.930 . S
H357 C334 0.929 . S
H358 C336 0.930 . S
H359 C337 0.929 . S
H360 C366 0.930 . S
H361 C370 0.930 . S
H362 C375 0.929 1_554 S
H363 C373 0.929 . S
H364 C368 0.929 . S
H365 C374 0.929 . S
C366 H360 0.930 . S
C366 C367 1.367 . S
C366 C374 1.378 . S
C367 C366 1.367 . S
C367 C375 1.433 . S
C368 H364 0.929 . S
C368 C370 1.378 . S
C368 C372 1.350 . S
C369 C372 1.463 . S
C369 C374 1.350 . S
C369 N377 1.427 . S
C370 H361 0.930 . S
C370 C368 1.378 . S
C370 C371 1.367 . S
C371 C370 1.367 . S
C371 C373 1.433 . S
C372 C368 1.350 . S
C372 C369 1.463 . S
C372 N376 1.427 . S
C373 H363 0.929 . S
C373 C371 1.433 . S
C373 N376 1.384 . S
C374 H365 0.929 . S
C374 C366 1.378 . S
C374 C369 1.350 . S
C375 H362 0.929 1_556 S
C375 C367 1.433 . S
C375 N377 1.384 . S
N376 C372 1.427 . S
N376 C373 1.384 . S
N377 C369 1.427 . S
N377 C375 1.384 . S
H378 C384 0.930 1_554 S
H379 C388 0.930 . S
H380 C393 0.929 . S
H381 C391 0.929 . S
H382 C386 0.929 . S
H383 C392 0.929 . S
C384 H378 0.930 1_556 S
C384 C385 1.367 . S
C384 C392 1.378 . S
C385 C384 1.367 . S
C385 C393 1.433 . S
C386 H382 0.929 . S
C386 C388 1.378 . S
C386 C390 1.350 . S
C387 C390 1.463 . S
C387 C392 1.350 . S
C387 N395 1.427 . S
C388 H379 0.930 . S
C388 C386 1.378 . S
C388 C389 1.367 . S
C389 C388 1.367 . S
C389 C391 1.433 . S
C390 C386 1.350 . S
C390 C387 1.463 . S
C390 N394 1.427 . S
C391 H381 0.929 . S
C391 C389 1.433 . S
C391 N394 1.384 . S
C392 H383 0.929 . S
C392 C384 1.378 . S
C392 C387 1.350 . S
C393 H380 0.929 . S
C393 C385 1.433 . S
C393 N395 1.384 . S
N394 C390 1.427 . S
N394 C391 1.384 . S
N395 C387 1.427 . S
N395 C393 1.384 . S
H396 C402 0.930 . S
H397 C406 0.930 . S
H398 C411 0.929 1_554 S
H399 C409 0.929 . S
H400 C404 0.929 . S
H401 C410 0.929 . S
C402 H396 0.930 . S
C402 C403 1.367 . S
C402 C410 1.378 . S
C403 C402 1.367 . S
C403 C411 1.433 . S
C404 H400 0.929 . S
C404 C406 1.378 . S
C404 C408 1.350 . S
C405 C408 1.463 . S
C405 C410 1.350 . S
C405 N413 1.427 . S
C406 H397 0.930 . S
C406 C404 1.378 . S
C406 C407 1.367 . S
C407 C406 1.367 . S
C407 C409 1.433 . S
C408 C404 1.350 . S
C408 C405 1.463 . S
C408 N412 1.427 . S
C409 H399 0.929 . S
C409 C407 1.433 . S
C409 N412 1.384 . S
C410 H401 0.929 . S
C410 C402 1.378 . S
C410 C405 1.350 . S
C411 H398 0.929 1_556 S
C411 C403 1.433 . S
C411 N413 1.384 . S
N412 C408 1.427 . S
N412 C409 1.384 . S
N413 C405 1.427 . S
N413 C411 1.384 . S
H414 C420 0.930 . S
H415 C424 0.930 . S
H416 C429 0.929 . S
H417 C427 0.929 1_556 S
H418 C422 0.929 . S
H419 C428 0.929 . S
C420 H414 0.930 . S
C420 C421 1.367 . S
C420 C428 1.378 . S
C421 C420 1.367 . S
C421 C429 1.433 . S
C422 H418 0.929 . S
C422 C424 1.378 . S
C422 C426 1.350 . S
C423 C426 1.463 . S
C423 C428 1.350 . S
C423 N431 1.427 . S
C424 H415 0.930 . S
C424 C422 1.378 . S
C424 C425 1.367 . S
C425 C424 1.367 . S
C425 C427 1.433 . S
C426 C422 1.350 . S
C426 C423 1.463 . S
C426 N430 1.427 . S
C427 H417 0.929 1_554 S
C427 C425 1.433 . S
C427 N430 1.384 . S
C428 H419 0.929 . S
C428 C420 1.378 . S
C428 C423 1.350 . S
C429 H416 0.929 . S
C429 C421 1.433 . S
C429 N431 1.384 . S
N430 C426 1.427 . S
N430 C427 1.384 . S
N431 C423 1.427 . S
N431 C429 1.384 . S
H432 C438 0.930 . S
H433 C442 0.930 . S
H434 C447 0.929 . S
H435 C445 0.929 . S
H436 C440 0.929 1_556 S
H437 C446 0.929 . S
C438 H432 0.930 . S
C438 C439 1.367 . S
C438 C446 1.378 . S
C439 C438 1.367 . S
C439 C447 1.433 . S
C440 H436 0.929 1_554 S
C440 C442 1.378 1_554 S
C440 C444 1.350 . S
C441 C444 1.463 . S
C441 C446 1.350 . S
C441 N449 1.427 . S
C442 H433 0.930 . S
C442 C440 1.378 1_556 S
C442 C443 1.367 1_556 S
C443 C442 1.367 1_554 S
C443 C445 1.433 . S
C444 C440 1.350 . S
C444 C441 1.463 . S
C444 N448 1.427 . S
C445 H435 0.929 . S
C445 C443 1.433 . S
C445 N448 1.384 . S
C446 H437 0.929 . S
C446 C438 1.378 . S
C446 C441 1.350 . S
C447 H434 0.929 . S
C447 C439 1.433 . S
C447 N449 1.384 . S
N448 C444 1.427 . S
N448 C445 1.384 . S
N449 C441 1.427 . S
N449 C447 1.384 . S
H450 C456 0.930 . S
H451 C460 0.930 . S
H452 C465 0.929 . S
H453 C463 0.929 . S
H454 C458 0.929 . S
H455 C464 0.929 . S
C456 H450 0.930 . S
C456 C457 1.367 . S
C456 C464 1.378 . S
C457 C456 1.367 . S
C457 C465 1.433 1_554 S
C458 H454 0.929 . S
C458 C460 1.378 . S
C458 C462 1.350 . S
C459 C462 1.463 . S
C459 C464 1.350 . S
C459 N467 1.427 . S
C460 H451 0.930 . S
C460 C458 1.378 . S
C460 C461 1.367 . S
C461 C460 1.367 . S
C461 C463 1.433 . S
C462 C458 1.350 . S
C462 C459 1.463 . S
C462 N466 1.427 . S
C463 H453 0.929 . S
C463 C461 1.433 . S
C463 N466 1.384 . S
C464 H455 0.929 . S
C464 C456 1.378 . S
C464 C459 1.350 . S
C465 H452 0.929 . S
C465 C457 1.433 1_556 S
C465 N467 1.384 1_556 S
N466 C462 1.427 . S
N466 C463 1.384 . S
N467 C459 1.427 . S
N467 C465 1.384 1_554 S
H468 C474 0.930 . S
H469 C478 0.930 . S
H470 C483 0.929 . S
H471 C481 0.929 . S
H472 C476 0.929 . S
H473 C482 0.929 . S
C474 H468 0.930 . S
C474 C475 1.367 . S
C474 C482 1.378 1_455 S
C475 C474 1.367 . S
C475 C483 1.433 1_455 S
C476 H472 0.929 . S
C476 C478 1.378 . S
C476 C480 1.350 . S
C477 C480 1.463 . S
C477 C482 1.350 . S
C477 N485 1.427 . S
C478 H469 0.930 . S
C478 C476 1.378 . S
C478 C479 1.367 . S
C479 C478 1.367 . S
C479 C481 1.433 . S
C480 C476 1.350 . S
C480 C477 1.463 . S
C480 N484 1.427 . S
C481 H471 0.929 . S
C481 C479 1.433 . S
C481 N484 1.384 . S
C482 H473 0.929 . S
C482 C474 1.378 1_655 S
C482 C477 1.350 . S
C483 H470 0.929 . S
C483 C475 1.433 1_655 S
C483 N485 1.384 . S
N484 C480 1.427 . S
N484 C481 1.384 . S
N485 C477 1.427 . S
N485 C483 1.384 . S
H486 C492 0.930 . S
H487 C496 0.930 . S
H488 C501 0.929 . S
H489 C499 0.929 . S
H490 C494 0.929 . S
H491 C500 0.929 . S
C492 H486 0.930 . S
C492 C493 1.367 . S
C492 C500 1.378 . S
C493 C492 1.367 . S
C493 C501 1.433 . S
C494 H490 0.929 . S
C494 C496 1.378 . S
C494 C498 1.350 . S
C495 C498 1.463 . S
C495 C500 1.350 . S
C495 N503 1.427 . S
C496 H487 0.930 . S
C496 C494 1.378 . S
C496 C497 1.367 . S
C497 C496 1.367 . S
C497 C499 1.433 . S
C498 C494 1.350 . S
C498 C495 1.463 . S
C498 N502 1.427 . S
C499 H489 0.929 . S
C499 C497 1.433 . S
C499 N502 1.384 . S
C500 H491 0.929 . S
C500 C492 1.378 . S
C500 C495 1.350 . S
C501 H488 0.929 . S
C501 C493 1.433 . S
C501 N503 1.384 . S
N502 C498 1.427 . S
N502 C499 1.384 . S
N503 C495 1.427 . S
N503 C501 1.384 . S
H504 C510 0.930 . S
H505 C514 0.930 1_565 S
H506 C519 0.929 . S
H507 C517 0.929 . S
H508 C512 0.929 . S
H509 C518 0.929 . S
C510 H504 0.930 . S
C510 C511 1.367 . S
C510 C518 1.378 . S
C511 C510 1.367 . S
C511 C519 1.433 . S
C512 H508 0.929 . S
C512 C514 1.378 . S
C512 C516 1.350 . S
C513 C516 1.463 . S
C513 C518 1.350 . S
C513 N521 1.427 . S
C514 H505 0.930 1_545 S
C514 C512 1.378 . S
C514 C515 1.367 . S
C515 C514 1.367 . S
C515 C517 1.433 . S
C516 C512 1.350 . S
C516 C513 1.463 . S
C516 N520 1.427 . S
C517 H507 0.929 . S
C517 C515 1.433 . S
C517 N520 1.384 . S
C518 H509 0.929 . S
C518 C510 1.378 . S
C518 C513 1.350 . S
C519 H506 0.929 . S
C519 C511 1.433 . S
C519 N521 1.384 . S
N520 C516 1.427 . S
N520 C517 1.384 . S
N521 C513 1.427 . S
N521 C519 1.384 . S
H522 C528 0.930 . S
H523 C532 0.930 . S
H524 C537 0.929 1_556 S
H525 C535 0.929 . S
H526 C530 0.929 . S
H527 C536 0.929 . S
C528 H522 0.930 . S
C528 C529 1.367 . S
C528 C536 1.378 . S
C529 C528 1.367 . S
C529 C537 1.434 . S
C530 H526 0.929 . S
C530 C532 1.378 . S
C530 C534 1.350 1_556 S
C531 C534 1.463 . S
C531 C536 1.350 . S
C531 N539 1.427 1_554 S
C532 H523 0.930 . S
C532 C530 1.378 . S
C532 C533 1.367 1_556 S
C533 C532 1.367 1_554 S
C533 C535 1.433 . S
C534 C530 1.350 1_554 S
C534 C531 1.463 . S
C534 N538 1.427 . S
C535 H525 0.929 . S
C535 C533 1.433 . S
C535 N538 1.384 . S
C536 H527 0.929 . S
C536 C528 1.378 . S
C536 C531 1.350 . S
C537 H524 0.929 1_554 S
C537 C529 1.434 . S
C537 N539 1.384 1_554 S
N538 C534 1.427 . S
N538 C535 1.384 . S
N539 C531 1.427 1_556 S
N539 C537 1.384 1_556 S
H540 C546 0.930 . S
H541 C550 0.930 . S
H542 C555 0.929 . S
H543 C553 0.929 . S
H544 C548 0.929 . S
H545 C554 0.929 . S
C546 H540 0.930 . S
C546 C547 1.367 . S
C546 C554 1.378 . S
C547 C546 1.367 . S
C547 C555 1.433 1_554 S
C548 H544 0.929 . S
C548 C550 1.378 1_565 S
C548 C552 1.350 1_556 S
C549 C552 1.463 . S
C549 C554 1.350 . S
C549 N557 1.427 1_554 S
C550 H541 0.930 . S
C550 C548 1.378 1_545 S
C550 C551 1.367 1_556 S
C551 C550 1.367 1_554 S
C551 C553 1.433 . S
C552 C548 1.350 1_554 S
C552 C549 1.463 . S
C552 N556 1.427 . S
C553 H543 0.929 . S
C553 C551 1.433 . S
C553 N556 1.384 1_545 S
C554 H545 0.929 . S
C554 C546 1.378 . S
C554 C549 1.350 . S
C555 H542 0.929 . S
C555 C547 1.433 1_556 S
C555 N557 1.384 . S
N556 C552 1.427 . S
N556 C553 1.384 1_565 S
N557 C549 1.427 1_556 S
N557 C555 1.384 . S
H558 C564 0.930 . S
H559 C568 0.930 . S
H560 C573 0.929 1_655 S
H561 C571 0.929 . S
H562 C566 0.929 . S
H563 C572 0.929 . S
C564 H558 0.930 . S
C564 C565 1.367 1_455 S
C564 C572 1.378 . S
C565 C564 1.367 1_655 S
C565 C573 1.433 1_654 S
C566 H562 0.929 . S
C566 C568 1.378 . S
C566 C570 1.350 1_556 S
C567 C570 1.463 . S
C567 C572 1.350 . S
C567 N575 1.427 1_554 S
C568 H559 0.930 . S
C568 C566 1.378 . S
C568 C569 1.367 1_556 S
C569 C568 1.367 1_554 S
C569 C571 1.433 . S
C570 C566 1.350 1_554 S
C570 C567 1.463 . S
C570 N574 1.427 . S
C571 H561 0.929 . S
C571 C569 1.433 . S
C571 N574 1.384 . S
C572 H563 0.929 . S
C572 C564 1.378 . S
C572 C567 1.350 . S
C573 H560 0.929 1_455 S
C573 C565 1.433 1_456 S
C573 N575 1.384 . S
N574 C570 1.427 . S
N574 C571 1.384 . S
N575 C567 1.427 1_556 S
N575 C573 1.384 . S
H576 C582 0.930 . S
H577 C586 0.930 . S
H578 C591 0.929 . S
H579 C589 0.929 . S
H580 C584 0.929 . S
H581 C590 0.929 . S
C582 H576 0.930 . S
C582 C583 1.367 . S
C582 C590 1.378 . S
C583 C582 1.367 . S
C583 C591 1.433 . S
C584 H580 0.929 . S
C584 C586 1.378 . S
C584 C588 1.350 . S
C585 C588 1.463 . S
C585 C590 1.350 . S
C585 N593 1.427 . S
C586 H577 0.930 . S
C586 C584 1.378 . S
C586 C587 1.367 . S
C587 C586 1.367 . S
C587 C589 1.433 . S
C588 C584 1.350 . S
C588 C585 1.463 . S
C588 N592 1.427 . S
C589 H579 0.929 . S
C589 C587 1.433 . S
C589 N592 1.384 . S
C590 H581 0.929 . S
C590 C582 1.378 . S
C590 C585 1.350 . S
C591 H578 0.929 . S
C591 C583 1.433 . S
C591 N593 1.384 . S
N592 C588 1.427 . S
N592 C589 1.384 . S
N593 C585 1.427 . S
N593 C591 1.384 . S
H594 C600 0.930 . S
H595 C604 0.930 . S
H596 C609 0.929 . S
H597 C607 0.929 . S
H598 C602 0.929 . S
H599 C608 0.929 . S
C600 H594 0.930 . S
C600 C601 1.367 . S
C600 C608 1.378 . S
C601 C600 1.367 . S
C601 C609 1.433 . S
C602 H598 0.929 . S
C602 C604 1.378 . S
C602 C606 1.350 . S
C603 C606 1.463 . S
C603 C608 1.350 . S
C603 N611 1.427 . S
C604 H595 0.930 . S
C604 C602 1.378 . S
C604 C605 1.367 . S
C605 C604 1.367 . S
C605 C607 1.433 . S
C606 C602 1.350 . S
C606 C603 1.463 . S
C606 N610 1.427 . S
C607 H597 0.929 . S
C607 C605 1.433 . S
C607 N610 1.384 . S
C608 H599 0.929 . S
C608 C600 1.378 . S
C608 C603 1.350 . S
C609 H596 0.929 . S
C609 C601 1.433 . S
C609 N611 1.384 . S
N610 C606 1.427 . S
N610 C607 1.384 . S
N611 C603 1.427 . S
N611 C609 1.384 . S
H612 C618 0.930 . S
H613 C622 0.930 . S
H614 C627 0.929 . S
H615 C625 0.929 . S
H616 C620 0.929 . S
H617 C626 0.929 . S
C618 H612 0.930 . S
C618 C619 1.367 . S
C618 C626 1.378 . S
C619 C618 1.367 . S
C619 C627 1.433 . S
C620 H616 0.929 . S
C620 C622 1.378 . S
C620 C624 1.350 . S
C621 C624 1.463 . S
C621 C626 1.350 . S
C621 N629 1.427 . S
C622 H613 0.930 . S
C622 C620 1.378 . S
C622 C623 1.367 . S
C623 C622 1.367 . S
C623 C625 1.433 . S
C624 C620 1.350 . S
C624 C621 1.463 . S
C624 N628 1.427 . S
C625 H615 0.929 . S
C625 C623 1.433 . S
C625 N628 1.384 . S
C626 H617 0.929 . S
C626 C618 1.378 . S
C626 C621 1.350 . S
C627 H614 0.929 . S
C627 C619 1.433 . S
C627 N629 1.384 . S
N628 C624 1.427 . S
N628 C625 1.384 . S
N629 C621 1.427 . S
N629 C627 1.384 . S
H630 C636 0.930 . S
H631 C640 0.930 . S
H632 C645 0.929 . S
H633 C643 0.929 . S
H634 C638 0.929 . S
H635 C644 0.929 . S
C636 H630 0.930 . S
C636 C637 1.367 . S
C636 C644 1.378 . S
C637 C636 1.367 . S
C637 C645 1.433 . S
C638 H634 0.929 . S
C638 C640 1.378 . S
C638 C642 1.350 . S
C639 C642 1.463 . S
C639 C644 1.350 . S
C639 N647 1.427 . S
C640 H631 0.930 . S
C640 C638 1.378 . S
C640 C641 1.367 . S
C641 C640 1.367 . S
C641 C643 1.433 . S
C642 C638 1.350 . S
C642 C639 1.463 . S
C642 N646 1.427 . S
C643 H633 0.929 . S
C643 C641 1.433 . S
C643 N646 1.384 . S
C644 H635 0.929 . S
C644 C636 1.378 . S
C644 C639 1.350 . S
C645 H632 0.929 . S
C645 C637 1.433 . S
C645 N647 1.384 . S
N646 C642 1.427 . S
N646 C643 1.384 . S
N647 C639 1.427 . S
N647 C645 1.384 . S
H648 C654 0.930 . S
H649 C658 0.930 . S
H650 C663 0.929 . S
H651 C661 0.929 . S
H652 C656 0.929 . S
H653 C662 0.929 . S
C654 H648 0.930 . S
C654 C655 1.367 . S
C654 C662 1.378 . S
C655 C654 1.367 . S
C655 C663 1.433 . S
C656 H652 0.929 . S
C656 C658 1.378 . S
C656 C660 1.350 . S
C657 C660 1.463 . S
C657 C662 1.350 . S
C657 N665 1.427 . S
C658 H649 0.930 . S
C658 C656 1.378 . S
C658 C659 1.367 . S
C659 C658 1.367 . S
C659 C661 1.433 . S
C660 C656 1.350 . S
C660 C657 1.463 . S
C660 N664 1.427 . S
C661 H651 0.929 . S
C661 C659 1.433 . S
C661 N664 1.384 . S
C662 H653 0.929 . S
C662 C654 1.378 . S
C662 C657 1.350 . S
C663 H650 0.929 . S
C663 C655 1.433 . S
C663 N665 1.384 . S
N664 C660 1.427 . S
N664 C661 1.384 . S
N665 C657 1.427 . S
N665 C663 1.384 . S
H666 C672 0.930 . S
H667 C676 0.930 . S
H668 C681 0.929 . S
H669 C679 0.929 . S
H670 C674 0.929 . S
H671 C680 0.929 . S
C672 H666 0.930 . S
C672 C673 1.367 . S
C672 C680 1.378 . S
C673 C672 1.367 . S
C673 C681 1.433 . S
C674 H670 0.929 . S
C674 C676 1.378 . S
C674 C678 1.350 . S
C675 C678 1.463 . S
C675 C680 1.350 . S
C675 N683 1.427 . S
C676 H667 0.930 . S
C676 C674 1.378 . S
C676 C677 1.367 . S
C677 C676 1.367 . S
C677 C679 1.433 . S
C678 C674 1.350 . S
C678 C675 1.463 . S
C678 N682 1.427 . S
C679 H669 0.929 . S
C679 C677 1.433 . S
C679 N682 1.384 . S
C680 H671 0.929 . S
C680 C672 1.378 . S
C680 C675 1.350 . S
C681 H668 0.929 . S
C681 C673 1.433 . S
C681 N683 1.384 . S
N682 C678 1.427 . S
N682 C679 1.384 . S
N683 C675 1.427 . S
N683 C681 1.384 . S
H684 C690 0.930 . S
H685 C694 0.930 . S
H686 C699 0.929 . S
H687 C697 0.929 . S
H688 C692 0.929 . S
H689 C698 0.929 . S
C690 H684 0.930 . S
C690 C691 1.367 . S
C690 C698 1.378 . S
C691 C690 1.367 . S
C691 C699 1.433 1_455 S
C692 H688 0.929 . S
C692 C694 1.378 . S
C692 C696 1.350 1_655 S
C693 C696 1.463 . S
C693 C698 1.350 . S
C693 N701 1.427 1_455 S
C694 H685 0.930 . S
C694 C692 1.378 . S
C694 C695 1.367 1_655 S
C695 C694 1.367 1_455 S
C695 C697 1.433 . S
C696 C692 1.350 1_455 S
C696 C693 1.463 . S
C696 N700 1.427 . S
C697 H687 0.929 . S
C697 C695 1.433 . S
C697 N700 1.384 . S
C698 H689 0.929 . S
C698 C690 1.378 . S
C698 C693 1.350 . S
C699 H686 0.929 . S
C699 C691 1.433 1_655 S
C699 N701 1.384 . S
N700 C696 1.427 . S
N700 C697 1.384 . S
N701 C693 1.427 1_655 S
N701 C699 1.384 . S
H702 C708 0.930 . S
H703 C712 0.930 . S
H704 C717 0.929 . S
H705 C715 0.929 . S
H706 C710 0.929 . S
H707 C716 0.929 . S
C708 H702 0.930 . S
C708 C709 1.367 . S
C708 C716 1.378 . S
C709 C708 1.367 . S
C709 C717 1.433 . S
C710 H706 0.929 . S
C710 C712 1.378 . S
C710 C714 1.350 . S
C711 C714 1.463 . S
C711 C716 1.350 . S
C711 N719 1.427 . S
C712 H703 0.930 . S
C712 C710 1.378 . S
C712 C713 1.367 . S
C713 C712 1.367 . S
C713 C715 1.433 . S
C714 C710 1.350 . S
C714 C711 1.463 . S
C714 N718 1.427 . S
C715 H705 0.929 . S
C715 C713 1.433 . S
C715 N718 1.384 . S
C716 H707 0.929 . S
C716 C708 1.378 . S
C716 C711 1.350 . S
C717 H704 0.929 . S
C717 C709 1.433 . S
C717 N719 1.384 . S
N718 C714 1.427 . S
N718 C715 1.384 . S
N719 C711 1.427 . S
N719 C717 1.384 . S
H720 C726 0.930 . S
H721 C730 0.930 . S
H722 C735 0.929 . S
H723 C733 0.929 . S
H724 C728 0.929 . S
H725 C734 0.929 . S
C726 H720 0.930 . S
C726 C727 1.367 . S
C726 C734 1.378 . S
C727 C726 1.367 . S
C727 C735 1.433 1_545 S
C728 H724 0.929 . S
C728 C730 1.378 . S
C728 C732 1.350 1_565 S
C729 C732 1.463 . S
C729 C734 1.350 . S
C729 N737 1.427 1_545 S
C730 H721 0.930 . S
C730 C728 1.378 . S
C730 C731 1.367 1_565 S
C731 C730 1.367 1_545 S
C731 C733 1.433 . S
C732 C728 1.350 1_545 S
C732 C729 1.463 . S
C732 N736 1.427 . S
C733 H723 0.929 . S
C733 C731 1.433 . S
C733 N736 1.384 . S
C734 H725 0.929 . S
C734 C726 1.378 . S
C734 C729 1.350 . S
C735 H722 0.929 . S
C735 C727 1.433 1_565 S
C735 N737 1.384 . S
N736 C732 1.427 . S
N736 C733 1.384 . S
N737 C729 1.427 1_565 S
N737 C735 1.384 . S
H738 C744 0.930 . S
H739 C748 0.930 . S
H740 C753 0.929 . S
H741 C751 0.929 . S
H742 C746 0.929 . S
H743 C752 0.929 . S
C744 H738 0.930 . S
C744 C745 1.367 . S
C744 C752 1.378 . S
C745 C744 1.367 . S
C745 C753 1.433 . S
C746 H742 0.929 . S
C746 C748 1.378 1_556 S
C746 C750 1.350 . S
C747 C750 1.463 . S
C747 C752 1.350 . S
C747 N755 1.427 . S
C748 H739 0.930 . S
C748 C746 1.378 1_554 S
C748 C749 1.367 . S
C749 C748 1.367 . S
C749 C751 1.433 . S
C750 C746 1.350 . S
C750 C747 1.463 . S
C750 N754 1.427 . S
C751 H741 0.929 . S
C751 C749 1.433 . S
C751 N754 1.384 1_554 S
C752 H743 0.929 . S
C752 C744 1.378 . S
C752 C747 1.350 . S
C753 H740 0.929 . S
C753 C745 1.433 . S
C753 N755 1.384 . S
N754 C750 1.427 . S
N754 C751 1.384 1_556 S
N755 C747 1.427 . S
N755 C753 1.384 . S
H756 C762 0.930 . S
H757 C766 0.930 . S
H758 C771 0.929 . S
H759 C769 0.929 . S
H760 C764 0.929 . S
H761 C770 0.929 . S
C762 H756 0.930 . S
C762 C763 1.367 . S
C762 C770 1.378 . S
C763 C762 1.367 . S
C763 C771 1.433 . S
C764 H760 0.929 . S
C764 C766 1.378 1_556 S
C764 C768 1.350 . S
C765 C768 1.463 . S
C765 C770 1.350 . S
C765 N773 1.427 . S
C766 H757 0.930 . S
C766 C764 1.378 1_554 S
C766 C767 1.367 . S
C767 C766 1.367 . S
C767 C769 1.433 . S
C768 C764 1.350 . S
C768 C765 1.463 . S
C768 N772 1.427 . S
C769 H759 0.929 . S
C769 C767 1.433 . S
C769 N772 1.384 1_554 S
C770 H761 0.929 . S
C770 C762 1.378 . S
C770 C765 1.350 . S
C771 H758 0.929 . S
C771 C763 1.433 . S
C771 N773 1.384 . S
N772 C768 1.427 . S
N772 C769 1.384 1_556 S
N773 C765 1.427 . S
N773 C771 1.384 . S
H774 C780 0.930 . S
H775 C784 0.930 . S
H776 C789 0.929 . S
H777 C787 0.929 . S
H778 C782 0.929 . S
H779 C788 0.929 . S
C780 H774 0.930 . S
C780 C781 1.367 . S
C780 C788 1.378 . S
C781 C780 1.367 . S
C781 C789 1.433 . S
C782 H778 0.929 . S
C782 C784 1.378 1_556 S
C782 C786 1.350 . S
C783 C786 1.463 . S
C783 C788 1.350 . S
C783 N791 1.427 . S
C784 H775 0.930 . S
C784 C782 1.378 1_554 S
C784 C785 1.367 . S
C785 C784 1.367 . S
C785 C787 1.433 . S
C786 C782 1.350 . S
C786 C783 1.463 . S
C786 N790 1.427 . S
C787 H777 0.929 . S
C787 C785 1.433 . S
C787 N790 1.384 1_554 S
C788 H779 0.929 . S
C788 C780 1.378 . S
C788 C783 1.350 . S
C789 H776 0.929 . S
C789 C781 1.433 . S
C789 N791 1.384 . S
N790 C786 1.427 . S
N790 C787 1.384 1_556 S
N791 C783 1.427 . S
N791 C789 1.384 . S
H792 C798 0.930 . S
H793 C802 0.930 . S
H794 C807 0.929 . S
H795 C805 0.929 . S
H796 C800 0.929 . S
H797 C806 0.929 . S
C798 H792 0.930 . S
C798 C799 1.367 . S
C798 C806 1.378 . S
C799 C798 1.367 . S
C799 C807 1.433 . S
C800 H796 0.929 . S
C800 C802 1.378 1_554 S
C800 C804 1.350 . S
C801 C804 1.463 . S
C801 C806 1.350 . S
C801 N809 1.427 . S
C802 H793 0.930 . S
C802 C800 1.378 1_556 S
C802 C803 1.367 . S
C803 C802 1.367 . S
C803 C805 1.433 . S
C804 C800 1.350 . S
C804 C801 1.463 . S
C804 N808 1.427 . S
C805 H795 0.929 . S
C805 C803 1.433 . S
C805 N808 1.384 1_556 S
C806 H797 0.929 . S
C806 C798 1.378 . S
C806 C801 1.350 . S
C807 H794 0.929 . S
C807 C799 1.433 . S
C807 N809 1.384 . S
N808 C804 1.427 . S
N808 C805 1.384 1_554 S
N809 C801 1.427 . S
N809 C807 1.384 . S
H810 C816 0.930 . S
H811 C820 0.930 . S
H812 C825 0.929 . S
H813 C823 0.929 . S
H814 C818 0.929 . S
H815 C824 0.929 . S
C816 H810 0.930 . S
C816 C817 1.367 . S
C816 C824 1.378 1_556 S
C817 C816 1.367 . S
C817 C825 1.433 . S
C818 H814 0.929 . S
C818 C820 1.378 . S
C818 C822 1.350 . S
C819 C822 1.463 . S
C819 C824 1.350 . S
C819 N827 1.427 . S
C820 H811 0.930 . S
C820 C818 1.378 . S
C820 C821 1.367 . S
C821 C820 1.367 . S
C821 C823 1.433 . S
C822 C818 1.350 . S
C822 C819 1.463 . S
C822 N826 1.427 . S
C823 H813 0.929 . S
C823 C821 1.433 . S
C823 N826 1.384 . S
C824 H815 0.929 . S
C824 C816 1.378 1_554 S
C824 C819 1.350 . S
C825 H812 0.929 . S
C825 C817 1.433 . S
C825 N827 1.384 1_556 S
N826 C822 1.427 . S
N826 C823 1.384 . S
N827 C819 1.427 . S
N827 C825 1.384 1_554 S
H828 C834 0.930 . S
H829 C838 0.930 . S
H830 C843 0.929 . S
H831 C841 0.929 . S
H832 C836 0.929 . S
H833 C842 0.929 . S
C834 H828 0.930 . S
C834 C835 1.367 . S
C834 C842 1.378 . S
C835 C834 1.367 . S
C835 C843 1.433 . S
C836 H832 0.929 . S
C836 C838 1.378 1_554 S
C836 C840 1.350 . S
C837 C840 1.463 . S
C837 C842 1.350 . S
C837 N845 1.427 . S
C838 H829 0.930 . S
C838 C836 1.378 1_556 S
C838 C839 1.367 . S
C839 C838 1.367 . S
C839 C841 1.433 . S
C840 C836 1.350 . S
C840 C837 1.463 . S
C840 N844 1.427 . S
C841 H831 0.929 . S
C841 C839 1.433 . S
C841 N844 1.384 1_556 S
C842 H833 0.929 . S
C842 C834 1.378 . S
C842 C837 1.350 . S
C843 H830 0.929 . S
C843 C835 1.433 . S
C843 N845 1.384 . S
N844 C840 1.427 . S
N844 C841 1.384 1_554 S
N845 C837 1.427 . S
N845 C843 1.384 . S
C367 C6 1.922 . S
C371 C290 1.852 . S
C385 C46 1.927 . S
C389 C330 1.865 . S
C403 C86 1.922 . S
C407 C250 1.851 . S
C421 C166 1.923 . S
C425 C90 1.853 . S
C439 C206 1.928 . S
C443 C10 1.865 . S
C457 C50 1.853 . S
C461 C126 1.921 . S
C475 C286 1.921 . S
C479 C210 1.852 . S
C493 C326 1.927 . S
C497 C130 1.865 . S
C511 C170 1.853 . S
C515 C246 1.920 1_545 S
C529 C95 1.689 . S
C533 C19 1.697 1_554 S
C547 C59 1.699 1_554 S
C551 C15 1.687 . S
C565 C55 1.692 . S
C569 C99 1.695 1_554 S
C583 C139 1.698 . S
C587 C215 1.689 . S
C601 C135 1.690 . S
C605 C179 1.697 . S
C619 C175 1.691 . S
C623 C219 1.696 . S
C637 C335 1.691 . S
C641 C259 1.697 . S
C655 C299 1.695 . S
C659 C255 1.693 . S
C673 C339 1.696 . S
C677 C295 1.691 . S
C691 C18 0.984 1_455 S
C695 C9 0.984 . S
C709 C58 0.975 . S
C713 C49 0.975 . S
C727 C98 0.971 . S
C731 C89 0.965 1_545 S
C745 C129 0.976 . S
C749 C138 0.976 . S
C763 C169 0.971 . S
C767 C178 0.971 . S
C781 C209 0.984 . S
C785 C218 0.984 . S
C799 C258 0.964 . S
C803 C249 0.964 . S
C817 C289 0.978 . S
C821 C298 0.978 . S
C835 C338 0.977 . S
C839 C329 0.977 . S
