# Generated by pormake.
# Topology wkf, (6)-cn, num edge types: 1
# Building blocks:
#     Node 0, Type 0, BuildingBlock: OJICUG_clean_sbu_0, # of connection points: 6
#     Node 1, Type 0, BuildingBlock: OJICUG_clean_sbu_0, # of connection points: 6
#     Node 2, Type 0, BuildingBlock: OJICUG_clean_sbu_0, # of connection points: 6
#     Node 3, Type 0, BuildingBlock: OJICUG_clean_sbu_0, # of connection points: 6
#     Node 4, Type 0, BuildingBlock: OJICUG_clean_sbu_0, # of connection points: 6
#     Node 5, Type 0, BuildingBlock: OJICUG_clean_sbu_0, # of connection points: 6
#     Node 6, Type 0, BuildingBlock: OJICUG_clean_sbu_0, # of connection points: 6
#     Node 7, Type 0, BuildingBlock: OJICUG_clean_sbu_0, # of connection points: 6
#     Node 8, Type 0, BuildingBlock: OJICUG_clean_sbu_0, # of connection points: 6
#     Node 9, Type 0, BuildingBlock: OJICUG_clean_sbu_0, # of connection points: 6
#     Node 10, Type 0, BuildingBlock: OJICUG_clean_sbu_0, # of connection points: 6
#     Node 11, Type 0, BuildingBlock: OJICUG_clean_sbu_0, # of connection points: 6
#     Edge 12, Type (0, 0), BuildingBlock: OJICUG_clean_linker_0, # of connection points: 2
#     Edge 13, Type (0, 0), BuildingBlock: OJICUG_clean_linker_0, # of connection points: 2
#     Edge 14, Type (0, 0), BuildingBlock: OJICUG_clean_linker_0, # of connection points: 2
#     Edge 15, Type (0, 0), BuildingBlock: OJICUG_clean_linker_0, # of connection points: 2
#     Edge 16, Type (0, 0), BuildingBlock: OJICUG_clean_linker_0, # of connection points: 2
#     Edge 17, Type (0, 0), BuildingBlock: OJICUG_clean_linker_0, # of connection points: 2
#     Edge 18, Type (0, 0), BuildingBlock: OJICUG_clean_linker_0, # of connection points: 2
#     Edge 19, Type (0, 0), BuildingBlock: OJICUG_clean_linker_0, # of connection points: 2
#     Edge 20, Type (0, 0), BuildingBlock: OJICUG_clean_linker_0, # of connection points: 2
#     Edge 21, Type (0, 0), BuildingBlock: OJICUG_clean_linker_0, # of connection points: 2
#     Edge 22, Type (0, 0), BuildingBlock: OJICUG_clean_linker_0, # of connection points: 2
#     Edge 23, Type (0, 0), BuildingBlock: OJICUG_clean_linker_0, # of connection points: 2
#     Edge 24, Type (0, 0), BuildingBlock: OJICUG_clean_linker_0, # of connection points: 2
#     Edge 25, Type (0, 0), BuildingBlock: OJICUG_clean_linker_0, # of connection points: 2
#     Edge 26, Type (0, 0), BuildingBlock: OJICUG_clean_linker_0, # of connection points: 2
#     Edge 27, Type (0, 0), BuildingBlock: OJICUG_clean_linker_0, # of connection points: 2
#     Edge 28, Type (0, 0), BuildingBlock: OJICUG_clean_linker_0, # of connection points: 2
#     Edge 29, Type (0, 0), BuildingBlock: OJICUG_clean_linker_0, # of connection points: 2
#     Edge 30, Type (0, 0), BuildingBlock: OJICUG_clean_linker_0, # of connection points: 2
#     Edge 31, Type (0, 0), BuildingBlock: OJICUG_clean_linker_0, # of connection points: 2
#     Edge 32, Type (0, 0), BuildingBlock: OJICUG_clean_linker_0, # of connection points: 2
#     Edge 33, Type (0, 0), BuildingBlock: OJICUG_clean_linker_0, # of connection points: 2
#     Edge 34, Type (0, 0), BuildingBlock: OJICUG_clean_linker_0, # of connection points: 2
#     Edge 35, Type (0, 0), BuildingBlock: OJICUG_clean_linker_0, # of connection points: 2
#     Edge 36, Type (0, 0), BuildingBlock: OJICUG_clean_linker_0, # of connection points: 2
#     Edge 37, Type (0, 0), BuildingBlock: OJICUG_clean_linker_0, # of connection points: 2
#     Edge 38, Type (0, 0), BuildingBlock: OJICUG_clean_linker_0, # of connection points: 2
#     Edge 39, Type (0, 0), BuildingBlock: OJICUG_clean_linker_0, # of connection points: 2
#     Edge 40, Type (0, 0), BuildingBlock: OJICUG_clean_linker_0, # of connection points: 2
#     Edge 41, Type (0, 0), BuildingBlock: OJICUG_clean_linker_0, # of connection points: 2
#     Edge 42, Type (0, 0), BuildingBlock: OJICUG_clean_linker_0, # of connection points: 2
#     Edge 43, Type (0, 0), BuildingBlock: OJICUG_clean_linker_0, # of connection points: 2
#     Edge 44, Type (0, 0), BuildingBlock: OJICUG_clean_linker_0, # of connection points: 2
#     Edge 45, Type (0, 0), BuildingBlock: OJICUG_clean_linker_0, # of connection points: 2
#     Edge 46, Type (0, 0), BuildingBlock: OJICUG_clean_linker_0, # of connection points: 2
#     Edge 47, Type (0, 0), BuildingBlock: OJICUG_clean_linker_0, # of connection points: 2
# Relax obj value: 0.170
# Max RMSD: 0.210
# Mean RMSD: 0.210
data_MOF--net-wkf--node1-OJICUG_clean_sbu_0--edge1-OJICUG_clean_linker_0
_symmetry_space_group_name_H-M    P1
_symmetry_Int_Tables_number       1
_symmetry_cell_setting            triclinic
loop_
_symmetry_equiv_pos_as_xyz
'x, y, z'
_cell_length_a     21.946052
_cell_length_b     21.925124
_cell_length_c     53.580245
_cell_angle_alpha  89.879636
_cell_angle_beta   90.072622
_cell_angle_gamma 119.98713
loop_
_atom_site_label
_atom_site_type_symbol
_atom_site_fract_x
_atom_site_fract_y
_atom_site_fract_z
_atom_type_partial_charge
Sc0 Sc 0.46184 0.0986 0.34768 0.0
Sc1 Sc 0.29703 0.07778 0.3624 0.0
Sc2 Sc 0.3944 0.04897 0.4077 0.0
O3 O 0.38395 0.07491 0.37243 0.0
C4 C 0.45115 0.96722 0.3779 0.0
C5 C 0.3237 0.00172 0.31652 0.0
C6 C 0.22943 0.95416 0.40085 0.0
C7 C 0.41229 0.20688 0.33115 0.0
C8 C 0.54901 0.16802 0.39568 0.0
C9 C 0.3404 0.15655 0.41519 0.0
O10 O 0.48032 0.01789 0.3624 0.0
O11 O 0.28673 0.02149 0.32859 0.0
O12 O 0.28534 0.978 0.41348 0.0
O13 O 0.4547 0.18345 0.32981 0.0
O14 O 0.50548 0.11607 0.40857 0.0
O15 O 0.30208 0.13518 0.39567 0.0
O16 O 0.53856 0.17569 0.37281 0.0
O17 O 0.35569 0.17636 0.34363 0.0
O18 O 0.38222 0.13472 0.42169 0.0
O19 O 0.38773 0.02158 0.32163 0.0
O20 O 0.40745 0.96306 0.3944 0.0
O21 O 0.2266 -0.02115 0.37977 0.0
Sc22 Sc 0.32331 0.40588 0.57402 0.0
Sc23 Sc 0.19754 0.30872 0.52873 0.0
Sc24 Sc 0.34162 0.47366 0.51401 0.0
O25 O 0.28723 0.39562 0.53875 0.0
C26 C 0.35938 0.56069 0.56199 0.0
C27 C 0.16201 0.35211 0.58148 0.0
C28 C 0.18394 0.42428 0.49752 0.0
C29 C 0.25299 0.24083 0.56719 0.0
C30 C 0.46173 0.4622 0.54425 0.0
C31 C 0.30034 0.33557 0.48283 0.0
O32 O 0.36795 0.51714 0.57483 0.0
O33 O 0.14518 0.31357 0.56203 0.0
O34 O 0.24976 0.46669 0.49614 0.0
O35 O 0.28461 0.29663 0.57988 0.0
O36 O 0.4406 0.49182 0.52878 0.0
O37 O 0.24352 0.2986 0.49488 0.0
O38 O 0.42196 0.41839 0.56072 0.0
O39 O 0.22607 0.23822 0.54602 0.0
O40 O 0.34459 0.3996 0.48797 0.0
O41 O 0.22558 0.39416 0.58794 0.0
O42 O 0.34119 0.55032 0.53913 0.0
O43 O 0.15782 0.3676 0.51003 0.0
Sc44 Sc 0.84613 0.35302 0.68033 0.0
Sc45 Sc 0.86673 0.20866 0.69504 0.0
Sc46 Sc 0.8951 0.33423 0.74036 0.0
O47 O 0.86952 0.29838 0.70507 0.0
C48 C -0.0225 0.4729 0.71063 0.0
C49 C 0.94292 0.3118 0.64915 0.0
C50 C -0.01018 0.26393 0.73354 0.0
C51 C 0.73782 0.19531 0.66382 0.0
C52 C 0.77664 0.3706 0.7283 0.0
C53 C 0.78746 0.17284 0.74775 0.0
O54 O 0.92695 0.45194 0.69513 0.0
O55 O 0.92301 0.25488 0.6612 0.0
O56 O 0.96554 0.29543 0.74624 0.0
O57 O 0.76128 0.26122 0.66246 0.0
O58 O 0.82856 0.37894 0.74117 0.0
O59 O 0.8093 0.15605 0.72833 0.0
O60 O 0.76901 0.35257 0.70544 0.0
O61 O 0.76828 0.16905 0.67631 0.0
O62 O 0.80902 0.23642 0.75421 0.0
O63 O 0.92317 0.35607 0.65429 0.0
O64 O -0.01867 0.43297 0.72711 0.0
O65 O 0.96562 0.23712 0.71236 0.0
Sc66 Sc 0.53938 0.90704 0.90701 0.0
Sc67 Sc 0.63642 0.87855 0.86167 0.0
Sc68 Sc 0.47138 0.85748 0.8471 0.0
O69 O 0.54953 0.88124 0.87175 0.0
C70 C 0.38477 0.78808 0.89518 0.0
C71 C 0.59358 0.79975 0.91453 0.0
C72 C 0.52096 0.74934 0.83061 0.0
C73 C 0.70428 0.00196 0.90001 0.0
C74 C 0.48255 -0.01108 0.87723 0.0
C75 C 0.60894 0.95421 0.81571 0.0
O76 O 0.42826 0.84018 0.90798 0.0
O77 O 0.63196 0.82144 0.89503 0.0
O78 O 0.47852 0.77275 0.82926 0.0
O79 O 0.64852 0.97775 0.91273 0.0
O80 O 0.45302 0.93818 0.86182 0.0
O81 O 0.6461 0.93452 0.82776 0.0
O82 O 0.52651 -0.00693 0.89365 0.0
O83 O 0.70689 0.97769 0.87885 0.0
O84 O 0.54503 0.9345 0.82093 0.0
O85 O 0.55147 0.82117 0.92098 0.0
O86 O 0.39508 0.78033 0.87233 0.0
O87 O 0.57762 0.77983 0.84308 0.0
Sc88 Sc 0.59346 0.48342 0.01375 0.0
Sc89 Sc 0.7371 0.64842 0.02859 0.0
Sc90 Sc 0.61078 0.55057 0.0737 0.0
O91 O 0.64738 0.5613 0.03851 0.0
C92 C 0.47258 0.49375 0.04374 0.0
C93 C 0.63463 0.62159 0.98254 0.0
C94 C 0.68094 0.71572 0.06692 0.0
C95 C 0.75132 0.53331 0.99747 0.0
C96 C 0.57554 0.39612 0.06174 0.0
C97 C 0.77214 0.60486 0.08151 0.0
O98 O 0.49418 0.46456 0.02835 0.0
O99 O 0.69132 0.65862 0.99464 0.0
O100 O 0.64902 0.65967 0.07953 0.0
O101 O 0.68553 0.49092 0.996 0.0
O102 O 0.56656 0.43938 0.07452 0.0
O103 O 0.78915 0.64343 0.06201 0.0
O104 O 0.59406 0.40679 0.03892 0.0
O105 O 0.77729 0.58984 0.01001 0.0
O106 O 0.70852 0.56262 0.08786 0.0
O107 O 0.59043 0.55752 0.98767 0.0
O108 O 0.51205 0.53766 0.06021 0.0
O109 O 0.70827 0.71871 0.04581 0.0
Sc110 Sc 0.038 0.62168 0.24084 0.0
Sc111 Sc 0.06668 0.74831 0.19567 0.0
Sc112 Sc 0.08779 0.60444 0.18083 0.0
O113 O 0.06394 0.65841 0.20562 0.0
C114 C 0.15721 0.58642 0.22883 0.0
C115 C 0.14528 0.78327 0.24853 0.0
C116 C 0.19585 0.76243 0.16446 0.0
C117 C 0.94308 0.6919 0.23406 0.0
C118 C 0.95667 0.48336 0.21089 0.0
C119 C -0.00924 0.64578 0.1497 0.0
O120 O 0.10523 0.57779 0.24169 0.0
O121 O 0.124 0.80041 0.229 0.0
O122 O 0.17246 0.69658 0.16307 0.0
O123 O 0.9669 0.65962 0.24663 0.0
O124 O 0.00732 0.50507 0.19543 0.0
O125 O 0.01041 0.70246 0.1618 0.0
O126 O 0.95235 0.52276 0.22741 0.0
O127 O -0.03221 0.7197 0.21302 0.0
O128 O 0.01077 0.60163 0.15477 0.0
O129 O 0.12349 0.71954 0.25497 0.0
O130 O 0.16487 0.60473 0.20597 0.0
O131 O 0.16527 0.78843 0.17695 0.0
Sc132 Sc 0.84598 0.48246 0.49653 0.0
Sc133 Sc 0.8668 0.64753 0.48184 0.0
Sc134 Sc 0.89516 0.55031 0.43654 0.0
O135 O 0.86952 0.56056 0.47181 0.0
C136 C -0.02261 0.49395 0.46631 0.0
C137 C 0.94277 0.62041 0.52776 0.0
C138 C -0.01008 0.71535 0.44339 0.0
C139 C 0.73775 0.53195 0.51299 0.0
C140 C 0.77658 0.3955 0.44853 0.0
C141 C 0.78769 0.60418 0.42908 0.0
O142 O 0.92675 0.46429 0.48176 0.0
O143 O 0.92293 0.65748 0.51571 0.0
O144 O 0.9656 0.65957 0.43068 0.0
O145 O 0.76118 0.48949 0.51437 0.0
O146 O 0.82862 0.43903 0.4357 0.0
O147 O 0.80954 0.64281 0.44851 0.0
O148 O 0.76887 0.40589 0.47139 0.0
O149 O 0.76826 0.58868 0.5005 0.0
O150 O 0.80913 0.56205 0.42265 0.0
O151 O 0.92301 0.55639 0.5226 0.0
O152 O -0.01867 0.53779 0.44985 0.0
O153 O 0.96578 0.71796 0.46458 0.0
Sc154 Sc 0.32322 0.90675 0.60288 0.0
Sc155 Sc 0.19761 0.87819 0.64819 0.0
Sc156 Sc 0.34171 0.85742 0.66289 0.0
O157 O 0.28725 0.88099 0.63816 0.0
C158 C 0.35937 0.78808 0.61492 0.0
C159 C 0.16192 0.79915 0.59545 0.0
C160 C 0.18408 0.74909 0.67941 0.0
C161 C 0.25294 0.00147 0.60972 0.0
C162 C 0.46172 -0.01101 0.63261 0.0
C163 C 0.30049 0.9542 0.69408 0.0
O164 O 0.3679 0.84019 0.60207 0.0
O165 O 0.14516 0.82093 0.61489 0.0
O166 O 0.2499 0.77253 0.68079 0.0
O167 O 0.28448 0.97724 0.59701 0.0
O168 O 0.44064 0.93827 0.64809 0.0
O169 O 0.24364 0.93431 0.68204 0.0
O170 O 0.42189 -0.00701 0.61615 0.0
O171 O 0.22614 0.97723 0.6309 0.0
O172 O 0.34476 0.93449 0.68893 0.0
O173 O 0.22548 0.82064 0.589 0.0
O174 O 0.34121 0.78028 0.63778 0.0
O175 O 0.15792 0.77958 0.66689 0.0
Sc176 Sc 0.46206 0.35299 0.82911 0.0
Sc177 Sc 0.29719 0.20888 0.81444 0.0
Sc178 Sc 0.39443 0.33494 0.7691 0.0
O179 O 0.3841 0.29868 0.80438 0.0
C180 C 0.45118 0.47354 0.79887 0.0
C181 C 0.32401 0.31175 0.8603 0.0
C182 C 0.22947 0.26477 0.77599 0.0
C183 C 0.41255 0.19517 0.84568 0.0
C184 C 0.5491 0.37064 0.78108 0.0
C185 C 0.34043 0.17333 0.76167 0.0
O186 O 0.48044 0.45214 0.81437 0.0
O187 O 0.28699 0.25498 0.84825 0.0
O188 O 0.28533 0.29679 0.76334 0.0
O189 O 0.455 0.26103 0.84699 0.0
O190 O 0.50552 0.37896 0.76819 0.0
O191 O 0.30215 0.15641 0.7812 0.0
O192 O 0.53873 0.35264 0.80397 0.0
O193 O 0.35589 0.16905 0.83322 0.0
O194 O 0.38221 0.23698 0.75514 0.0
O195 O 0.38804 0.35593 0.85518 0.0
O196 O 0.40749 0.43392 0.78237 0.0
O197 O 0.22672 0.23731 0.79708 0.0
Sc198 Sc 0.03827 0.40582 0.936 0.0
Sc199 Sc 0.0669 0.30775 0.98112 0.0
Sc200 Sc 0.08795 0.47266 0.99604 0.0
O201 O 0.06415 0.39492 0.97122 0.0
C202 C 0.15737 0.56032 0.9481 0.0
C203 C 0.14561 0.35165 0.9283 0.0
C204 C 0.19602 0.42277 0.01238 0.0
C205 C 0.94338 0.24062 0.94269 0.0
C206 C 0.95684 0.4626 0.96595 0.0
C207 C -0.00915 0.3341 0.0271 0.0
O208 O 0.10538 0.51698 0.93523 0.0
O209 O 0.12427 0.31313 0.9478 0.0
O210 O 0.17262 0.4652 0.01381 0.0
O211 O -0.03275 0.29675 0.93014 0.0
O212 O 0.00747 0.49153 0.98143 0.0
O213 O 0.01057 0.29714 0.01498 0.0
O214 O 0.95254 0.41892 0.94942 0.0
O215 O -0.03197 0.23748 0.96374 0.0
O216 O 0.01086 0.39829 0.02205 0.0
O217 O 0.12384 0.39362 0.92188 0.0
O218 O 0.16506 0.54959 0.97095 0.0
O219 O 0.16545 0.36621 0.99987 0.0
Sc220 Sc 0.59323 0.09926 0.16288 0.0
Sc221 Sc 0.73679 0.07781 0.14811 0.0
Sc222 Sc 0.61049 0.0492 0.10295 0.0
O223 O 0.64711 0.0752 0.13815 0.0
C224 C 0.47225 0.96797 0.13291 0.0
C225 C 0.6343 0.00231 0.19416 0.0
C226 C 0.68056 0.95418 0.10982 0.0
C227 C 0.75109 0.20723 0.17919 0.0
C228 C 0.57544 0.16857 0.11483 0.0
C229 C 0.77192 0.15622 0.09516 0.0
O230 O 0.49392 0.01882 0.14828 0.0
O231 O 0.69097 0.0219 0.18206 0.0
O232 O 0.64859 -0.02179 0.0972 0.0
O233 O 0.6853 0.18385 0.18063 0.0
O234 O 0.56646 0.1163 0.10207 0.0
O235 O 0.78889 0.13476 0.11469 0.0
O236 O 0.59389 0.17644 0.13766 0.0
O237 O 0.77704 0.17665 0.16667 0.0
O238 O 0.7083 0.13479 0.08878 0.0
O239 O 0.59013 0.02219 0.189 0.0
O240 O 0.51168 0.96346 0.11646 0.0
O241 O 0.70796 -0.02138 0.13091 0.0
Sc242 Sc 0.53933 0.62191 0.26982 0.0
Sc243 Sc 0.63662 0.74764 0.31511 0.0
Sc244 Sc 0.47163 0.60363 0.32976 0.0
O245 O 0.54967 0.65799 0.30506 0.0
C246 C 0.38476 0.58627 0.28171 0.0
C247 C 0.59352 0.78344 0.26227 0.0
C248 C 0.52129 0.76142 0.34622 0.0
C249 C 0.70427 0.69192 0.27674 0.0
C250 C 0.48251 0.48323 0.29962 0.0
C251 C 0.60939 0.64458 0.36108 0.0
O252 O 0.42822 0.57771 0.26889 0.0
O253 O 0.63196 0.80022 0.28176 0.0
O254 O 0.47886 0.69555 0.34758 0.0
O255 O 0.64843 0.66025 0.26406 0.0
O256 O 0.45315 0.50452 0.31505 0.0
O257 O 0.6465 0.70141 0.34901 0.0
O258 O 0.52639 0.52297 0.28317 0.0
O259 O 0.70702 0.71899 0.29787 0.0
O260 O 0.54543 0.60038 0.35589 0.0
O261 O 0.55145 0.71986 0.25582 0.0
O262 O 0.39519 0.60436 0.30457 0.0
O263 O 0.57792 0.78759 0.33374 0.0
C264 C 0.24226 0.83177 0.28042 0.0
C265 C 0.19614 0.84084 0.26462 0.0
H266 H 0.32162 0.87773 0.30889 0.0
C267 C 0.19827 0.90596 0.26434 0.0
H268 H 0.24216 0.78232 0.28079 0.0
C269 C 0.24287 0.95967 0.28041 0.0
C270 C 0.28748 0.95007 0.29665 0.0
H271 H 0.16347 0.91461 0.25237 0.0
H272 H 0.24111 0.0082 0.28066 0.0
C273 C 0.28828 0.88646 0.29618 0.0
C274 C 0.26184 0.25477 0.44676 0.0
C275 C 0.31588 0.29931 0.46302 0.0
H276 H 0.22759 0.17524 0.41879 0.0
C277 C 0.38012 0.29988 0.46266 0.0
H278 H 0.21167 0.25317 0.44692 0.0
C279 C 0.38876 0.25369 0.44699 0.0
C280 C 0.33373 0.20761 0.43118 0.0
H281 H 0.42205 0.33316 0.4754 0.0
H282 H 0.43797 0.2534 0.44746 0.0
C283 C 0.27093 0.20999 0.43078 0.0
C284 C 0.0583 0.39176 0.6289 0.0
C285 C -0.00529 0.32741 0.62932 0.0
H286 H 0.16257 0.44977 0.61366 0.0
C287 C -0.01473 0.27333 0.6131 0.0
H288 H 0.06689 0.43372 0.64161 0.0
C289 C 0.03915 0.28249 0.59711 0.0
C290 C 0.10425 0.34539 0.59746 0.0
H291 H 0.93676 0.22308 0.61331 0.0
H292 H 0.03061 0.23912 0.58516 0.0
C293 C 0.11313 0.40047 0.61323 0.0
C294 C 0.6903 0.12417 0.77951 0.0
C295 C 0.73627 0.11505 0.76372 0.0
H296 H 0.61111 0.07823 0.80803 0.0
C297 C 0.73381 0.04979 0.76339 0.0
H298 H 0.69064 0.17374 0.77992 0.0
C299 C 0.68914 -0.00399 0.77946 0.0
C300 C 0.64484 0.00574 0.79575 0.0
H301 H 0.76846 0.04109 0.75141 0.0
H302 H 0.69071 0.94738 0.77971 0.0
C303 C 0.64424 0.06944 0.79528 0.0
C304 C 0.66386 0.74743 0.93043 0.0
C305 C 0.60061 0.74892 0.93059 0.0
H306 H 0.72372 0.70515 0.94687 0.0
C307 C 0.54546 0.70227 0.94626 0.0
H308 H 0.70728 0.78267 0.91854 0.0
C309 C 0.55442 0.65634 0.96204 0.0
C310 C 0.61908 0.6578 0.96265 0.0
H311 H 0.49591 0.70189 0.94654 0.0
H312 H 0.51236 0.62256 0.97466 0.0
C313 C 0.67326 0.70292 0.94651 0.0
C314 C 0.87587 0.56557 0.12919 0.0
C315 C 0.93905 0.6303 0.12982 0.0
H316 H 0.77202 0.50701 0.11363 0.0
C317 C 0.94819 0.6846 0.11368 0.0
H318 H 0.86752 0.5234 0.14182 0.0
C319 C 0.89445 0.67523 0.09755 0.0
C320 C 0.82975 0.61187 0.09767 0.0
H321 H -0.00362 0.73513 0.11404 0.0
H322 H 0.90273 0.71874 0.08566 0.0
C323 C 0.82114 0.55663 0.11338 0.0
C324 C 0.03904 0.74589 0.57983 0.0
C325 C 0.10412 0.74808 0.57948 0.0
H326 H 0.93666 0.70294 0.56363 0.0
C327 C 0.11295 0.70186 0.56371 0.0
H328 H 0.03055 0.78074 0.59179 0.0
C329 C 0.0581 0.65575 0.54803 0.0
C330 C -0.00546 0.65655 0.5476 0.0
H331 H 0.16237 0.70199 0.56328 0.0
H332 H 0.06666 0.62238 0.53532 0.0
C333 C -0.01485 0.70118 0.56384 0.0
C334 C 0.38022 0.06974 0.71424 0.0
C335 C 0.31603 0.00599 0.71389 0.0
H336 H 0.438 0.17414 0.72942 0.0
C337 C 0.262 -0.00358 0.73017 0.0
H338 H 0.42213 0.07844 0.7015 0.0
C339 C 0.27106 0.05031 0.74613 0.0
C340 C 0.3338 0.11556 0.74571 0.0
H341 H 0.21187 0.94778 0.73001 0.0
H342 H 0.22773 0.04167 0.75812 0.0
C343 C 0.38883 0.12459 0.7299 0.0
C344 C 0.24251 0.40019 0.89638 0.0
C345 C 0.19651 0.34502 0.91221 0.0
H346 H 0.32176 0.43361 0.86788 0.0
C347 C 0.19878 0.28211 0.91252 0.0
H348 H 0.2423 0.44949 0.89597 0.0
C349 C 0.24338 0.27304 0.89645 0.0
C350 C 0.28786 0.32722 0.88018 0.0
H351 H 0.16409 0.23867 0.92452 0.0
H352 H 0.24172 0.2228 0.89623 0.0
C353 C 0.28853 0.39157 0.88062 0.0
C354 C 0.82111 0.25355 0.06333 0.0
C355 C 0.82956 0.20677 0.079 0.0
H356 H 0.86768 0.33334 0.03495 0.0
C357 C 0.89417 0.20795 0.07911 0.0
H358 H 0.77205 0.25416 0.06308 0.0
C359 C 0.94799 0.25236 0.06302 0.0
C360 C 0.93902 0.29772 0.04692 0.0
H361 H 0.90232 0.1726 0.09098 0.0
H362 H -0.00389 0.24993 0.06266 0.0
C363 C 0.87592 0.29939 0.04755 0.0
C364 C 0.6636 0.9061 0.24638 0.0
C365 C 0.60044 0.84124 0.2462 0.0
H366 H 0.72333 0.00826 0.22993 0.0
C367 C 0.5453 0.83255 0.23048 0.0
H368 H 0.70701 0.91444 0.2583 0.0
C369 C 0.55418 0.88735 0.21468 0.0
C370 C 0.61876 0.95066 0.21408 0.0
H371 H 0.49582 0.78328 0.23019 0.0
H372 H 0.51214 0.87891 0.20201 0.0
C373 C 0.67292 0.95993 0.23027 0.0
C374 C 0.73453 0.67389 0.41333 0.0
C375 C 0.73664 0.6109 0.41307 0.0
H376 H 0.69174 0.7334 0.39695 0.0
C377 C 0.69045 0.55576 0.39732 0.0
H378 H 0.76937 0.7173 0.42527 0.0
C379 C 0.64447 0.56452 0.38155 0.0
C380 C 0.64537 0.62897 0.38101 0.0
H381 H 0.69054 0.5064 0.39697 0.0
H382 H 0.61112 0.52252 0.36885 0.0
C383 C 0.68994 0.68309 0.39724 0.0
C384 C 0.43513 0.78984 0.36687 0.0
C385 C 0.50394 0.81089 0.35877 0.0
H386 H 0.36401 0.82373 0.37982 0.0
C387 C 0.55626 0.88193 0.36109 0.0
H388 H 0.39376 0.73535 0.36546 0.0
C389 C 0.53931 0.93168 0.36929 0.0
C390 C 0.46977 0.91173 0.37553 0.0
H391 H 0.61009 0.8999 0.35557 0.0
H392 H 0.58017 -0.01339 0.36958 0.0
C393 C 0.41813 0.84013 0.37525 0.0
C394 C 0.55537 0.42868 0.54165 0.0
C395 C 0.53572 0.48057 0.54195 0.0
H396 H 0.63563 0.40407 0.53197 0.0
C397 C 0.58563 0.55022 0.53587 0.0
H398 H 0.5174 0.37447 0.54611 0.0
C399 C 0.65241 0.5671 0.52783 0.0
C400 C 0.67086 0.51457 0.52548 0.0
H401 H 0.57181 0.59128 0.53618 0.0
H402 H 0.68855 0.62106 0.52242 0.0
C403 C 0.62273 0.44559 0.53341 0.0
C404 C 0.06368 0.66391 0.69438 0.0
C405 C 0.13454 0.68218 0.69194 0.0
H406 H 0.95889 0.58336 0.70277 0.0
C407 C 0.15519 0.63381 0.69979 0.0
H408 H 0.04605 0.70027 0.68905 0.0
C409 C 0.10464 0.56637 0.70801 0.0
C410 C 0.03321 0.54691 0.70837 0.0
H411 H 0.20952 0.64658 0.69827 0.0
H412 H 0.12069 0.52819 0.71239 0.0
C413 C 0.01368 0.59705 0.7024 0.0
C414 C 0.49882 0.1665 0.86621 0.0
C415 C 0.42992 0.14562 0.85824 0.0
H416 H 0.56995 0.13233 0.87901 0.0
C417 C 0.37751 0.0746 0.86064 0.0
H418 H 0.54024 0.22096 0.86474 0.0
C419 C 0.39445 0.0247 0.86876 0.0
C420 C 0.46404 0.04449 0.87487 0.0
H421 H 0.32362 0.05677 0.85521 0.0
H422 H 0.35351 0.96981 0.86911 0.0
C423 C 0.51579 0.11607 0.87453 0.0
C424 C 0.28221 0.38809 0.02684 0.0
C425 C 0.26305 0.44019 0.02482 0.0
H426 H 0.36342 0.36457 0.03499 0.0
C427 C 0.3106 0.50894 0.03307 0.0
H428 H 0.24654 0.3343 0.02117 0.0
C429 C 0.37805 0.52615 0.04133 0.0
C430 C 0.39842 0.47478 0.04132 0.0
H431 H 0.29716 0.55014 0.03189 0.0
H432 H 0.41555 0.58025 0.04606 0.0
C433 C 0.34909 0.40526 0.0349 0.0
C434 C 0.92146 0.35981 0.20197 0.0
C435 C 0.90139 0.4092 0.20844 0.0
H436 H 0.88981 0.25736 0.18809 0.0
C437 C 0.82977 0.38902 0.20836 0.0
H438 H -0.0236 0.37402 0.20211 0.0
C439 C 0.77954 0.3217 0.19998 0.0
C440 C 0.80066 0.27413 0.19169 0.0
H441 H 0.81327 0.42658 0.2131 0.0
H442 H 0.72501 0.30841 0.19875 0.0
C443 C 0.87177 0.29307 0.19378 0.0
C444 C 0.10451 0.52755 0.46891 0.0
C445 C 0.03305 0.47561 0.4686 0.0
H446 H 0.20941 0.5522 0.4786 0.0
C447 C 0.01347 0.40594 0.47462 0.0
H448 H 0.12061 0.58177 0.46449 0.0
C449 C 0.06346 0.38907 0.48263 0.0
C450 C 0.13437 0.44165 0.48501 0.0
H451 H 0.95866 0.36486 0.47429 0.0
H452 H 0.04579 0.3351 0.488 0.0
C453 C 0.15505 0.51065 0.47713 0.0
C454 C 0.55537 0.1162 0.63522 0.0
C455 C 0.53572 0.04465 0.63488 0.0
H456 H 0.63566 0.22109 0.64492 0.0
C457 C 0.58566 0.02492 0.6409 0.0
H458 H 0.51736 0.13242 0.63081 0.0
C459 C 0.65247 0.07484 0.64892 0.0
C460 C 0.67093 0.14582 0.65132 0.0
H461 H 0.57184 0.97004 0.64055 0.0
H462 H 0.68865 0.05703 0.65428 0.0
C463 C 0.62276 0.16666 0.64344 0.0
C464 C 0.55608 0.66404 0.81563 0.0
C465 C 0.50364 0.68255 0.81803 0.0
H466 H 0.58017 0.58345 0.80707 0.0
C467 C 0.4348 0.63463 0.81 0.0
H468 H 0.60993 0.70005 0.82111 0.0
C469 C 0.41789 0.56737 0.8016 0.0
C470 C 0.46966 0.54761 0.80124 0.0
H471 H 0.39335 0.64759 0.81147 0.0
H472 H 0.36376 0.5295 0.79708 0.0
C473 C 0.53921 0.59736 0.80742 0.0
C474 C 0.77974 0.44723 0.97672 0.0
C475 C 0.80088 0.51594 0.98501 0.0
H476 H 0.81341 0.37602 0.96365 0.0
C477 C 0.87204 0.5681 0.98297 0.0
H478 H 0.72518 0.406 0.97792 0.0
C479 C 0.92171 0.551 0.97484 0.0
C480 C 0.9016 0.48151 0.96838 0.0
H481 H 0.8901 0.62186 0.98866 0.0
H482 H -0.02333 0.59172 0.97474 0.0
C483 C 0.82996 0.4301 0.9684 0.0
C484 C 0.37771 0.84101 0.13541 0.0
C485 C 0.39809 0.91275 0.13537 0.0
H486 H 0.29688 0.73615 0.14494 0.0
C487 C 0.34881 0.93297 0.14181 0.0
H488 H 0.41517 0.82438 0.13067 0.0
C489 C 0.28199 0.88328 0.14994 0.0
C490 C 0.26284 0.81202 0.152 0.0
H491 H 0.36315 -0.012 0.14169 0.0
H492 H 0.24637 0.90143 0.15561 0.0
C493 C 0.31032 0.79079 0.14373 0.0
C494 C 0.39432 0.35937 0.30814 0.0
C495 C 0.46389 0.4091 0.30197 0.0
H496 H 0.32346 0.2565 0.32173 0.0
C497 C 0.51555 0.38919 0.30225 0.0
H498 H 0.35345 0.3734 0.30783 0.0
C499 C 0.49852 0.32175 0.31057 0.0
C500 C 0.42967 0.27382 0.31859 0.0
H501 H 0.5697 0.42703 0.29773 0.0
H502 H 0.53989 0.30865 0.312 0.0
C503 C 0.37733 0.29251 0.31625 0.0
C504 C 0.09958 0.83088 0.44816 0.0
C505 C 0.04862 0.77912 0.43269 0.0
H506 H 0.19779 0.92712 0.44996 0.0
C507 C 0.0553 0.78713 0.40662 0.0
H508 H 0.09537 0.82572 0.46829 0.0
C509 C 0.11311 0.84542 0.39612 0.0
C510 C 0.16562 0.89559 0.41158 0.0
H511 H 0.01602 0.74803 0.39432 0.0
H512 H 0.11785 0.85002 0.37599 0.0
C513 C 0.15812 0.88842 0.43766 0.0
C514 C 0.24612 0.12482 0.56243 0.0
C515 C 0.24777 0.17697 0.5779 0.0
H516 H 0.24717 0.02806 0.56063 0.0
C517 C 0.24697 0.16917 0.60398 0.0
H518 H 0.24663 0.12981 0.5423 0.0
C519 C 0.24623 0.11069 0.61447 0.0
C520 C 0.24773 0.06011 0.599 0.0
H521 H 0.24742 0.20857 0.61627 0.0
H522 H 0.24683 0.10626 0.63461 0.0
C523 C 0.24683 0.06706 0.57293 0.0
C524 C 0.15799 0.25906 0.73921 0.0
C525 C 0.16564 0.25952 0.76528 0.0
H526 H 0.09509 0.25887 0.70861 0.0
C527 C 0.11325 0.25731 0.78077 0.0
H528 H 0.19756 0.25994 0.7269 0.0
C529 C 0.0554 0.25775 0.7703 0.0
C530 C 0.04856 0.25892 0.74422 0.0
H531 H 0.1181 0.25754 0.8009 0.0
H532 H 0.01622 0.25766 0.7826 0.0
C533 C 0.09941 0.25802 0.72874 0.0
C534 C 0.82004 0.11146 0.8953 0.0
C535 C 0.76809 0.06046 0.91073 0.0
H536 H 0.91653 0.20948 0.89356 0.0
C537 C 0.77601 0.06684 0.93681 0.0
H538 H 0.81497 0.10748 0.87516 0.0
C539 C 0.83439 0.12439 0.94734 0.0
C540 C 0.88477 0.17696 0.93192 0.0
H541 H 0.73677 0.02751 0.94908 0.0
H542 H 0.83891 0.1289 0.96748 0.0
C543 C 0.87769 0.16976 0.90583 0.0
C544 C 0.68759 0.84497 0.11441 0.0
C545 C 0.68588 0.89575 0.09902 0.0
H546 H 0.68666 0.74718 0.11605 0.0
C547 C 0.68674 0.88926 0.07293 0.0
H548 H 0.68706 0.84905 0.13455 0.0
C549 C 0.6876 0.83178 0.06234 0.0
C550 C 0.68613 0.77941 0.07772 0.0
H551 H 0.68627 0.92844 0.0607 0.0
H552 H 0.68705 0.82716 0.0422 0.0
C553 C 0.68698 0.78675 0.10381 0.0
C554 C 0.81999 0.69812 0.28144 0.0
C555 C 0.76801 0.69711 0.26601 0.0
H556 H 0.91642 0.69651 0.28318 0.0
C557 C 0.7758 0.69844 0.23992 0.0
H558 H 0.81502 0.69719 0.30158 0.0
C559 C 0.8341 0.69914 0.22939 0.0
C560 C 0.88452 0.69702 0.24482 0.0
H561 H 0.73653 0.69846 0.22765 0.0
H562 H 0.83854 0.69901 0.20926 0.0
C563 C 0.87755 0.69733 0.27091 0.0
C564 C 0.72155 0.33246 0.40893 0.0
C565 C 0.72165 0.33369 0.43526 0.0
H566 H 0.66679 0.27929 0.37568 0.0
C567 C 0.66705 0.27787 0.4483 0.0
H568 H 0.76292 0.37496 0.39825 0.0
C569 C 0.6124 0.22279 0.43527 0.0
C570 C 0.61088 0.22296 0.40894 0.0
H571 H 0.66581 0.27731 0.46851 0.0
H572 H 0.57012 0.18122 0.44596 0.0
C573 C 0.66645 0.27783 0.3959 0.0
C574 C 0.36777 0.73339 0.57531 0.0
C575 C 0.36627 0.73317 0.60164 0.0
H576 H 0.36649 0.67892 0.54204 0.0
C577 C 0.36714 0.67828 0.61466 0.0
H578 H 0.36693 0.77498 0.56464 0.0
C579 C 0.36758 0.62368 0.60161 0.0
C580 C 0.36626 0.62249 0.57528 0.0
H581 H 0.36616 0.6768 0.63488 0.0
H582 H 0.36658 0.58117 0.61228 0.0
C583 C 0.36732 0.67833 0.56226 0.0
C584 C 0.61231 0.37887 0.7415 0.0
C585 C 0.61094 0.37754 0.76783 0.0
H586 H 0.66559 0.37746 0.70827 0.0
C587 C 0.66667 0.37861 0.78089 0.0
H588 H 0.56992 0.37788 0.7308 0.0
C589 C 0.72177 0.37906 0.76788 0.0
C590 C 0.72172 0.37755 0.74155 0.0
H591 H 0.66714 0.37779 0.8011 0.0
H592 H 0.76325 0.37822 0.77858 0.0
C593 C 0.66696 0.37843 0.72849 0.0
C594 C 0.32204 0.73273 0.93483 0.0
C595 C 0.32305 0.73311 0.9085 0.0
H596 H 0.26899 0.67769 0.96809 0.0
C597 C 0.26705 0.67877 0.89548 0.0
H598 H 0.36469 0.7739 0.94549 0.0
C599 C 0.21198 0.62409 0.90852 0.0
C600 C 0.21233 0.62227 0.93485 0.0
H601 H 0.26633 0.67777 0.87526 0.0
H602 H 0.17025 0.58202 0.89784 0.0
C603 C 0.26739 0.67759 0.94788 0.0
C604 C 0.56753 0.22361 0.07517 0.0
C605 C 0.56869 0.22356 0.1015 0.0
H606 H 0.56905 0.27835 0.04186 0.0
C607 C 0.56753 0.27821 0.11448 0.0
H608 H 0.56862 0.18219 0.06454 0.0
C609 C 0.56709 0.33286 0.10139 0.0
C610 C 0.5687 0.33431 0.07506 0.0
H611 H 0.56823 0.27945 0.13469 0.0
H612 H 0.56784 0.3752 0.11202 0.0
C613 C 0.56798 0.27871 0.06207 0.0
C614 C 0.26724 0.57826 0.28146 0.0
C615 C 0.32297 0.57945 0.26842 0.0
H616 H 0.17063 0.57858 0.2791 0.0
C617 C 0.32163 0.57829 0.24209 0.0
H618 H 0.26676 0.57895 0.30167 0.0
C619 C 0.26696 0.57876 0.22906 0.0
C620 C 0.21218 0.5795 0.24209 0.0
H621 H 0.36406 0.57939 0.23142 0.0
H622 H 0.26832 0.57985 0.20884 0.0
C623 C 0.21213 0.57784 0.26842 0.0
loop_
_geom_bond_atom_site_label_1
_geom_bond_atom_site_label_2
_geom_bond_distance
_geom_bond_site_symmetry_2
_ccdc_geom_bond_type
Sc0 O3 2.025 . S
Sc0 O10 2.105 . S
Sc0 O13 2.105 . S
Sc0 O16 2.105 . S
Sc0 O19 2.105 . S
Sc1 O3 2.025 . S
Sc1 O11 2.105 . S
Sc1 O15 2.105 . S
Sc1 O17 2.105 . S
Sc1 O21 2.105 . S
Sc2 O3 2.025 . S
Sc2 O12 2.105 1_545 S
Sc2 O14 2.105 . S
Sc2 O18 2.105 . S
Sc2 O20 2.105 . S
O3 Sc0 2.025 . S
O3 Sc1 2.025 . S
O3 Sc2 2.025 . S
C4 O10 1.268 . S
C4 O20 1.268 . S
C5 O11 1.268 . S
C5 O19 1.268 . S
C6 O12 1.268 . S
C6 O21 1.268 1_565 S
C7 O13 1.268 . S
C7 O17 1.268 . S
C8 O14 1.268 . S
C8 O16 1.268 . S
C9 O15 1.268 . S
C9 O18 1.268 . S
O10 Sc0 2.105 . S
O10 C4 1.268 . S
O11 Sc1 2.105 . S
O11 C5 1.268 . S
O12 Sc2 2.105 1_565 S
O12 C6 1.268 . S
O13 Sc0 2.105 . S
O13 C7 1.268 . S
O14 Sc2 2.105 . S
O14 C8 1.268 . S
O15 Sc1 2.105 . S
O15 C9 1.268 . S
O16 Sc0 2.105 . S
O16 C8 1.268 . S
O17 Sc1 2.105 . S
O17 C7 1.268 . S
O18 Sc2 2.105 . S
O18 C9 1.268 . S
O19 Sc0 2.105 . S
O19 C5 1.268 . S
O20 Sc2 2.105 . S
O20 C4 1.268 . S
O21 Sc1 2.105 . S
O21 C6 1.268 1_545 S
Sc22 O25 2.025 . S
Sc22 O32 2.105 . S
Sc22 O35 2.105 . S
Sc22 O38 2.105 . S
Sc22 O41 2.105 . S
Sc23 O25 2.025 . S
Sc23 O33 2.105 . S
Sc23 O37 2.105 . S
Sc23 O39 2.105 . S
Sc23 O43 2.105 . S
Sc24 O25 2.025 . S
Sc24 O34 2.105 . S
Sc24 O36 2.105 . S
Sc24 O40 2.105 . S
Sc24 O42 2.105 . S
O25 Sc22 2.025 . S
O25 Sc23 2.025 . S
O25 Sc24 2.025 . S
C26 O32 1.268 . S
C26 O42 1.268 . S
C27 O33 1.268 . S
C27 O41 1.268 . S
C28 O34 1.268 . S
C28 O43 1.268 . S
C29 O35 1.268 . S
C29 O39 1.268 . S
C30 O36 1.268 . S
C30 O38 1.268 . S
C31 O37 1.268 . S
C31 O40 1.268 . S
O32 Sc22 2.105 . S
O32 C26 1.268 . S
O33 Sc23 2.105 . S
O33 C27 1.268 . S
O34 Sc24 2.105 . S
O34 C28 1.268 . S
O35 Sc22 2.105 . S
O35 C29 1.268 . S
O36 Sc24 2.105 . S
O36 C30 1.268 . S
O37 Sc23 2.105 . S
O37 C31 1.268 . S
O38 Sc22 2.105 . S
O38 C30 1.268 . S
O39 Sc23 2.105 . S
O39 C29 1.268 . S
O40 Sc24 2.105 . S
O40 C31 1.268 . S
O41 Sc22 2.105 . S
O41 C27 1.268 . S
O42 Sc24 2.105 . S
O42 C26 1.268 . S
O43 Sc23 2.105 . S
O43 C28 1.268 . S
Sc44 O47 2.025 . S
Sc44 O54 2.105 . S
Sc44 O57 2.105 . S
Sc44 O60 2.105 . S
Sc44 O63 2.105 . S
Sc45 O47 2.025 . S
Sc45 O55 2.105 . S
Sc45 O59 2.105 . S
Sc45 O61 2.105 . S
Sc45 O65 2.105 . S
Sc46 O47 2.025 . S
Sc46 O56 2.105 1_655 S
Sc46 O58 2.105 . S
Sc46 O62 2.105 . S
Sc46 O64 2.105 . S
O47 Sc44 2.025 . S
O47 Sc45 2.025 . S
O47 Sc46 2.025 . S
C48 O54 1.268 . S
C48 O64 1.268 . S
C49 O55 1.268 . S
C49 O63 1.268 . S
C50 O56 1.268 . S
C50 O65 1.268 1_455 S
C51 O57 1.268 . S
C51 O61 1.268 . S
C52 O58 1.268 . S
C52 O60 1.268 . S
C53 O59 1.268 . S
C53 O62 1.268 . S
O54 Sc44 2.105 . S
O54 C48 1.268 . S
O55 Sc45 2.105 . S
O55 C49 1.268 . S
O56 Sc46 2.105 1_455 S
O56 C50 1.268 . S
O57 Sc44 2.105 . S
O57 C51 1.268 . S
O58 Sc46 2.105 . S
O58 C52 1.268 . S
O59 Sc45 2.105 . S
O59 C53 1.268 . S
O60 Sc44 2.105 . S
O60 C52 1.268 . S
O61 Sc45 2.105 . S
O61 C51 1.268 . S
O62 Sc46 2.105 . S
O62 C53 1.268 . S
O63 Sc44 2.105 . S
O63 C49 1.268 . S
O64 Sc46 2.105 . S
O64 C48 1.268 . S
O65 Sc45 2.105 . S
O65 C50 1.268 1_655 S
Sc66 O69 2.025 . S
Sc66 O76 2.105 . S
Sc66 O79 2.105 1_565 S
Sc66 O82 2.105 . S
Sc66 O85 2.105 . S
Sc67 O69 2.025 . S
Sc67 O77 2.105 . S
Sc67 O81 2.105 . S
Sc67 O83 2.105 . S
Sc67 O87 2.105 . S
Sc68 O69 2.025 . S
Sc68 O78 2.105 . S
Sc68 O80 2.105 . S
Sc68 O84 2.105 . S
Sc68 O86 2.105 . S
O69 Sc66 2.025 . S
O69 Sc67 2.025 . S
O69 Sc68 2.025 . S
C70 O76 1.268 . S
C70 O86 1.268 . S
C71 O77 1.268 . S
C71 O85 1.268 . S
C72 O78 1.268 . S
C72 O87 1.268 . S
C73 O79 1.268 . S
C73 O83 1.268 1_545 S
C74 O80 1.268 . S
C74 O82 1.268 . S
C75 O81 1.268 . S
C75 O84 1.268 . S
O76 Sc66 2.105 . S
O76 C70 1.268 . S
O77 Sc67 2.105 . S
O77 C71 1.268 . S
O78 Sc68 2.105 . S
O78 C72 1.268 . S
O79 Sc66 2.105 1_545 S
O79 C73 1.268 . S
O80 Sc68 2.105 . S
O80 C74 1.268 . S
O81 Sc67 2.105 . S
O81 C75 1.268 . S
O82 Sc66 2.105 . S
O82 C74 1.268 . S
O83 Sc67 2.105 . S
O83 C73 1.268 1_565 S
O84 Sc68 2.105 . S
O84 C75 1.268 . S
O85 Sc66 2.105 . S
O85 C71 1.268 . S
O86 Sc68 2.105 . S
O86 C70 1.268 . S
O87 Sc67 2.105 . S
O87 C72 1.268 . S
Sc88 O91 2.025 . S
Sc88 O98 2.105 . S
Sc88 O101 2.105 . S
Sc88 O104 2.105 . S
Sc88 O107 2.105 1_554 S
Sc89 O91 2.025 . S
Sc89 O99 2.074 1_554 S
Sc89 O103 2.105 . S
Sc89 O105 2.105 . S
Sc89 O109 2.105 . S
Sc90 O91 2.025 . S
Sc90 O100 2.105 . S
Sc90 O102 2.105 . S
Sc90 O106 2.105 . S
Sc90 O108 2.105 . S
O91 Sc88 2.025 . S
O91 Sc89 2.025 . S
O91 Sc90 2.025 . S
C92 O98 1.268 . S
C92 O108 1.268 . S
C93 O99 1.291 . S
C93 O107 1.268 . S
C94 O100 1.268 . S
C94 O109 1.268 . S
C95 O101 1.268 . S
C95 O105 1.268 . S
C96 O102 1.268 . S
C96 O104 1.268 . S
C97 O103 1.268 . S
C97 O106 1.268 . S
O98 Sc88 2.105 . S
O98 C92 1.268 . S
O99 Sc89 2.074 1_556 S
O99 C93 1.291 . S
O100 Sc90 2.105 . S
O100 C94 1.268 . S
O101 Sc88 2.105 . S
O101 C95 1.268 . S
O102 Sc90 2.105 . S
O102 C96 1.268 . S
O103 Sc89 2.105 . S
O103 C97 1.268 . S
O104 Sc88 2.105 . S
O104 C96 1.268 . S
O105 Sc89 2.105 . S
O105 C95 1.268 . S
O106 Sc90 2.105 . S
O106 C97 1.268 . S
O107 Sc88 2.105 1_556 S
O107 C93 1.268 . S
O108 Sc90 2.105 . S
O108 C92 1.268 . S
O109 Sc89 2.105 . S
O109 C94 1.268 . S
Sc110 O113 2.025 . S
Sc110 O120 2.105 . S
Sc110 O123 2.105 1_455 S
Sc110 O126 2.105 . S
Sc110 O129 2.105 . S
Sc111 O113 2.025 . S
Sc111 O121 2.105 . S
Sc111 O125 2.105 . S
Sc111 O127 2.105 . S
Sc111 O131 2.105 . S
Sc112 O113 2.025 . S
Sc112 O122 2.105 . S
Sc112 O124 2.105 . S
Sc112 O128 2.105 . S
Sc112 O130 2.105 . S
O113 Sc110 2.025 . S
O113 Sc111 2.025 . S
O113 Sc112 2.025 . S
C114 O120 1.268 . S
C114 O130 1.268 . S
C115 O121 1.268 . S
C115 O129 1.268 . S
C116 O122 1.268 . S
C116 O131 1.268 . S
C117 O123 1.268 . S
C117 O127 1.268 1_655 S
C118 O124 1.268 . S
C118 O126 1.268 . S
C119 O125 1.268 . S
C119 O128 1.268 . S
O120 Sc110 2.105 . S
O120 C114 1.268 . S
O121 Sc111 2.105 . S
O121 C115 1.268 . S
O122 Sc112 2.105 . S
O122 C116 1.268 . S
O123 Sc110 2.105 1_655 S
O123 C117 1.268 . S
O124 Sc112 2.105 . S
O124 C118 1.268 . S
O125 Sc111 2.105 . S
O125 C119 1.268 . S
O126 Sc110 2.105 . S
O126 C118 1.268 . S
O127 Sc111 2.105 . S
O127 C117 1.268 1_455 S
O128 Sc112 2.105 . S
O128 C119 1.268 . S
O129 Sc110 2.105 . S
O129 C115 1.268 . S
O130 Sc112 2.105 . S
O130 C114 1.268 . S
O131 Sc111 2.105 . S
O131 C116 1.268 . S
Sc132 O135 2.025 . S
Sc132 O142 2.105 . S
Sc132 O145 2.105 . S
Sc132 O148 2.105 . S
Sc132 O151 2.105 . S
Sc133 O135 2.025 . S
Sc133 O143 2.105 . S
Sc133 O147 2.105 . S
Sc133 O149 2.105 . S
Sc133 O153 2.105 . S
Sc134 O135 2.025 . S
Sc134 O144 2.105 1_655 S
Sc134 O146 2.105 . S
Sc134 O150 2.105 . S
Sc134 O152 2.105 . S
O135 Sc132 2.025 . S
O135 Sc133 2.025 . S
O135 Sc134 2.025 . S
C136 O142 1.268 . S
C136 O152 1.268 . S
C137 O143 1.268 . S
C137 O151 1.268 . S
C138 O144 1.268 . S
C138 O153 1.268 1_455 S
C139 O145 1.268 . S
C139 O149 1.268 . S
C140 O146 1.268 . S
C140 O148 1.268 . S
C141 O147 1.268 . S
C141 O150 1.268 . S
O142 Sc132 2.105 . S
O142 C136 1.268 . S
O143 Sc133 2.105 . S
O143 C137 1.268 . S
O144 Sc134 2.105 1_455 S
O144 C138 1.268 . S
O145 Sc132 2.105 . S
O145 C139 1.268 . S
O146 Sc134 2.105 . S
O146 C140 1.268 . S
O147 Sc133 2.105 . S
O147 C141 1.268 . S
O148 Sc132 2.105 . S
O148 C140 1.268 . S
O149 Sc133 2.105 . S
O149 C139 1.268 . S
O150 Sc134 2.105 . S
O150 C141 1.268 . S
O151 Sc132 2.105 . S
O151 C137 1.268 . S
O152 Sc134 2.105 . S
O152 C136 1.268 . S
O153 Sc133 2.105 . S
O153 C138 1.268 1_655 S
Sc154 O157 2.025 . S
Sc154 O164 2.105 . S
Sc154 O167 2.105 1_565 S
Sc154 O170 2.105 . S
Sc154 O173 2.105 . S
Sc155 O157 2.025 . S
Sc155 O165 2.105 . S
Sc155 O169 2.105 . S
Sc155 O171 2.105 . S
Sc155 O175 2.105 . S
Sc156 O157 2.025 . S
Sc156 O166 2.105 . S
Sc156 O168 2.105 . S
Sc156 O172 2.105 . S
Sc156 O174 2.105 . S
O157 Sc154 2.025 . S
O157 Sc155 2.025 . S
O157 Sc156 2.025 . S
C158 O164 1.268 . S
C158 O174 1.268 . S
C159 O165 1.268 . S
C159 O173 1.268 . S
C160 O166 1.268 . S
C160 O175 1.268 . S
C161 O167 1.268 . S
C161 O171 1.268 1_545 S
C162 O168 1.268 . S
C162 O170 1.268 . S
C163 O169 1.268 . S
C163 O172 1.268 . S
O164 Sc154 2.105 . S
O164 C158 1.268 . S
O165 Sc155 2.105 . S
O165 C159 1.268 . S
O166 Sc156 2.105 . S
O166 C160 1.268 . S
O167 Sc154 2.105 1_545 S
O167 C161 1.268 . S
O168 Sc156 2.105 . S
O168 C162 1.268 . S
O169 Sc155 2.105 . S
O169 C163 1.268 . S
O170 Sc154 2.105 . S
O170 C162 1.268 . S
O171 Sc155 2.105 . S
O171 C161 1.268 1_565 S
O172 Sc156 2.105 . S
O172 C163 1.268 . S
O173 Sc154 2.105 . S
O173 C159 1.268 . S
O174 Sc156 2.105 . S
O174 C158 1.268 . S
O175 Sc155 2.105 . S
O175 C160 1.268 . S
Sc176 O179 2.025 . S
Sc176 O186 2.105 . S
Sc176 O189 2.105 . S
Sc176 O192 2.105 . S
Sc176 O195 2.105 . S
Sc177 O179 2.025 . S
Sc177 O187 2.105 . S
Sc177 O191 2.105 . S
Sc177 O193 2.105 . S
Sc177 O197 2.105 . S
Sc178 O179 2.025 . S
Sc178 O188 2.105 . S
Sc178 O190 2.105 . S
Sc178 O194 2.105 . S
Sc178 O196 2.105 . S
O179 Sc176 2.025 . S
O179 Sc177 2.025 . S
O179 Sc178 2.025 . S
C180 O186 1.268 . S
C180 O196 1.268 . S
C181 O187 1.268 . S
C181 O195 1.268 . S
C182 O188 1.268 . S
C182 O197 1.268 . S
C183 O189 1.268 . S
C183 O193 1.268 . S
C184 O190 1.268 . S
C184 O192 1.268 . S
C185 O191 1.268 . S
C185 O194 1.268 . S
O186 Sc176 2.105 . S
O186 C180 1.268 . S
O187 Sc177 2.105 . S
O187 C181 1.268 . S
O188 Sc178 2.105 . S
O188 C182 1.268 . S
O189 Sc176 2.105 . S
O189 C183 1.268 . S
O190 Sc178 2.105 . S
O190 C184 1.268 . S
O191 Sc177 2.105 . S
O191 C185 1.268 . S
O192 Sc176 2.105 . S
O192 C184 1.268 . S
O193 Sc177 2.105 . S
O193 C183 1.268 . S
O194 Sc178 2.105 . S
O194 C185 1.268 . S
O195 Sc176 2.105 . S
O195 C181 1.268 . S
O196 Sc178 2.105 . S
O196 C180 1.268 . S
O197 Sc177 2.105 . S
O197 C182 1.268 . S
Sc198 O201 2.025 . S
Sc198 O208 2.105 . S
Sc198 O211 2.105 1_455 S
Sc198 O214 2.105 . S
Sc198 O217 2.105 . S
Sc199 O201 2.025 . S
Sc199 O209 2.105 . S
Sc199 O213 2.101 . S
Sc199 O215 2.105 . S
Sc199 O219 2.105 . S
Sc200 O201 2.025 . S
Sc200 O210 2.105 . S
Sc200 O212 2.105 . S
Sc200 O216 2.105 1_556 S
Sc200 O218 2.105 . S
O201 Sc198 2.025 . S
O201 Sc199 2.025 . S
O201 Sc200 2.025 . S
C202 O208 1.268 . S
C202 O218 1.268 . S
C203 O209 1.268 . S
C203 O217 1.268 . S
C204 O210 1.268 . S
C204 O219 1.268 . S
C205 O211 1.268 . S
C205 O215 1.268 1_655 S
C206 O212 1.268 . S
C206 O214 1.268 . S
C207 O213 1.271 1_554 S
C207 O216 1.268 . S
O208 Sc198 2.105 . S
O208 C202 1.268 . S
O209 Sc199 2.105 . S
O209 C203 1.268 . S
O210 Sc200 2.105 . S
O210 C204 1.268 . S
O211 Sc198 2.105 1_655 S
O211 C205 1.268 . S
O212 Sc200 2.105 . S
O212 C206 1.268 . S
O213 Sc199 2.101 . S
O213 C207 1.271 1_556 S
O214 Sc198 2.105 . S
O214 C206 1.268 . S
O215 Sc199 2.105 . S
O215 C205 1.268 1_455 S
O216 Sc200 2.105 1_554 S
O216 C207 1.268 . S
O217 Sc198 2.105 . S
O217 C203 1.268 . S
O218 Sc200 2.105 . S
O218 C202 1.268 . S
O219 Sc199 2.105 . S
O219 C204 1.268 . S
Sc220 O223 2.025 . S
Sc220 O230 2.105 . S
Sc220 O233 2.105 . S
Sc220 O236 2.105 . S
Sc220 O239 2.105 . S
Sc221 O223 2.025 . S
Sc221 O231 2.105 . S
Sc221 O235 2.105 . S
Sc221 O237 2.105 . S
Sc221 O241 2.105 . S
Sc222 O223 2.025 . S
Sc222 O232 2.105 1_545 S
Sc222 O234 2.105 . S
Sc222 O238 2.105 . S
Sc222 O240 2.105 . S
O223 Sc220 2.025 . S
O223 Sc221 2.025 . S
O223 Sc222 2.025 . S
C224 O230 1.268 . S
C224 O240 1.268 . S
C225 O231 1.268 . S
C225 O239 1.268 . S
C226 O232 1.268 . S
C226 O241 1.268 1_565 S
C227 O233 1.268 . S
C227 O237 1.268 . S
C228 O234 1.268 . S
C228 O236 1.268 . S
C229 O235 1.268 . S
C229 O238 1.268 . S
O230 Sc220 2.105 . S
O230 C224 1.268 . S
O231 Sc221 2.105 . S
O231 C225 1.268 . S
O232 Sc222 2.105 1_565 S
O232 C226 1.268 . S
O233 Sc220 2.105 . S
O233 C227 1.268 . S
O234 Sc222 2.105 . S
O234 C228 1.268 . S
O235 Sc221 2.105 . S
O235 C229 1.268 . S
O236 Sc220 2.105 . S
O236 C228 1.268 . S
O237 Sc221 2.105 . S
O237 C227 1.268 . S
O238 Sc222 2.105 . S
O238 C229 1.268 . S
O239 Sc220 2.105 . S
O239 C225 1.268 . S
O240 Sc222 2.105 . S
O240 C224 1.268 . S
O241 Sc221 2.105 . S
O241 C226 1.268 1_545 S
Sc242 O245 2.025 . S
Sc242 O252 2.105 . S
Sc242 O255 2.105 . S
Sc242 O258 2.105 . S
Sc242 O261 2.105 . S
Sc243 O245 2.025 . S
Sc243 O253 2.105 . S
Sc243 O257 2.105 . S
Sc243 O259 2.105 . S
Sc243 O263 2.105 . S
Sc244 O245 2.025 . S
Sc244 O254 2.105 . S
Sc244 O256 2.105 . S
Sc244 O260 2.105 . S
Sc244 O262 2.105 . S
O245 Sc242 2.025 . S
O245 Sc243 2.025 . S
O245 Sc244 2.025 . S
C246 O252 1.268 . S
C246 O262 1.268 . S
C247 O253 1.268 . S
C247 O261 1.268 . S
C248 O254 1.268 . S
C248 O263 1.268 . S
C249 O255 1.268 . S
C249 O259 1.268 . S
C250 O256 1.268 . S
C250 O258 1.268 . S
C251 O257 1.268 . S
C251 O260 1.268 . S
O252 Sc242 2.105 . S
O252 C246 1.268 . S
O253 Sc243 2.105 . S
O253 C247 1.268 . S
O254 Sc244 2.105 . S
O254 C248 1.268 . S
O255 Sc242 2.105 . S
O255 C249 1.268 . S
O256 Sc244 2.105 . S
O256 C250 1.268 . S
O257 Sc243 2.105 . S
O257 C251 1.268 . S
O258 Sc242 2.105 . S
O258 C250 1.268 . S
O259 Sc243 2.105 . S
O259 C249 1.268 . S
O260 Sc244 2.105 . S
O260 C251 1.268 . S
O261 Sc242 2.105 . S
O261 C247 1.268 . S
O262 Sc244 2.105 . S
O262 C246 1.268 . S
O263 Sc243 2.105 . S
O263 C248 1.268 . S
C264 C265 1.387 . S
C264 H268 0.950 . S
C264 C273 1.390 . S
C265 C264 1.387 . S
C265 C267 1.387 . S
H266 C273 0.950 1_545 S
C267 C265 1.387 . S
C267 C269 1.390 . S
C267 H271 0.950 . S
H268 C264 0.950 . S
C269 C267 1.390 . S
C269 C270 1.387 1_565 S
C269 H272 0.950 . S
C270 C269 1.387 1_545 S
C270 C273 1.387 1_545 S
H271 C267 0.950 . S
H272 C269 0.950 . S
C273 C264 1.390 . S
C273 H266 0.950 1_565 S
C273 C270 1.387 1_565 S
C274 C275 1.387 . S
C274 H278 0.950 . S
C274 C283 1.390 . S
C275 C274 1.387 . S
C275 C277 1.387 . S
H276 C283 0.950 . S
C277 C275 1.387 . S
C277 C279 1.390 . S
C277 H281 0.950 . S
H278 C274 0.950 . S
C279 C277 1.390 . S
C279 C280 1.387 . S
C279 H282 0.950 . S
C280 C279 1.387 . S
C280 C283 1.387 . S
H281 C277 0.950 . S
H282 C279 0.950 . S
C283 C274 1.390 . S
C283 H276 0.950 . S
C283 C280 1.387 . S
C284 C285 1.387 1_455 S
C284 H288 0.950 . S
C284 C293 1.390 . S
C285 C284 1.387 1_655 S
C285 C287 1.387 . S
H286 C293 0.950 . S
C287 C285 1.387 . S
C287 C289 1.390 1_655 S
C287 H291 0.950 . S
H288 C284 0.950 . S
C289 C287 1.390 1_455 S
C289 C290 1.387 . S
C289 H292 0.950 . S
C290 C289 1.387 . S
C290 C293 1.387 . S
H291 C287 0.950 . S
H292 C289 0.950 . S
C293 C284 1.390 . S
C293 H286 0.950 . S
C293 C290 1.387 . S
C294 C295 1.387 . S
C294 H298 0.950 . S
C294 C303 1.390 . S
C295 C294 1.387 . S
C295 C297 1.387 . S
H296 C303 0.950 . S
C297 C295 1.387 . S
C297 C299 1.390 1_545 S
C297 H301 0.950 . S
H298 C294 0.950 . S
C299 C297 1.390 1_565 S
C299 C300 1.387 . S
C299 H302 0.950 . S
C300 C299 1.387 . S
C300 C303 1.387 1_565 S
H301 C297 0.950 . S
H302 C299 0.950 . S
C303 C294 1.390 . S
C303 H296 0.950 . S
C303 C300 1.387 1_545 S
C304 C305 1.387 . S
C304 H308 0.950 . S
C304 C313 1.390 . S
C305 C304 1.387 . S
C305 C307 1.387 . S
H306 C313 0.950 . S
C307 C305 1.387 . S
C307 C309 1.390 . S
C307 H311 0.950 . S
H308 C304 0.950 . S
C309 C307 1.390 . S
C309 C310 1.387 . S
C309 H312 0.950 . S
C310 C309 1.387 . S
C310 C313 1.387 . S
H311 C307 0.950 . S
H312 C309 0.950 . S
C313 C304 1.390 . S
C313 H306 0.950 . S
C313 C310 1.387 . S
C314 C315 1.387 1_655 S
C314 H318 0.950 . S
C314 C323 1.390 . S
C315 C314 1.387 1_455 S
C315 C317 1.387 1_455 S
H316 C323 0.950 . S
C317 C315 1.387 1_655 S
C317 C319 1.390 . S
C317 H321 0.950 1_655 S
H318 C314 0.950 . S
C319 C317 1.390 . S
C319 C320 1.387 . S
C319 H322 0.950 . S
C320 C319 1.387 . S
C320 C323 1.387 . S
H321 C317 0.950 1_455 S
H322 C319 0.950 . S
C323 C314 1.390 . S
C323 H316 0.950 . S
C323 C320 1.387 . S
C324 C325 1.387 . S
C324 H328 0.950 . S
C324 C333 1.390 . S
C325 C324 1.387 . S
C325 C327 1.387 . S
H326 C333 0.950 . S
C327 C325 1.387 . S
C327 C329 1.390 . S
C327 H331 0.950 . S
H328 C324 0.950 . S
C329 C327 1.390 . S
C329 C330 1.387 1_455 S
C329 H332 0.950 1_455 S
C330 C329 1.387 1_655 S
C330 C333 1.387 1_655 S
H331 C327 0.950 . S
H332 C329 0.950 1_655 S
C333 C324 1.390 . S
C333 H326 0.950 . S
C333 C330 1.387 1_455 S
C334 C335 1.387 1_545 S
C334 H338 0.950 1_545 S
C334 C343 1.390 . S
C335 C334 1.387 1_565 S
C335 C337 1.387 1_565 S
H336 C343 0.950 . S
C337 C335 1.387 1_545 S
C337 C339 1.390 . S
C337 H341 0.950 . S
H338 C334 0.950 1_565 S
C339 C337 1.390 . S
C339 C340 1.387 . S
C339 H342 0.950 . S
C340 C339 1.387 . S
C340 C343 1.387 . S
H341 C337 0.950 . S
H342 C339 0.950 . S
C343 C334 1.390 . S
C343 H336 0.950 . S
C343 C340 1.387 . S
C344 C345 1.387 . S
C344 H348 0.950 . S
C344 C353 1.390 . S
C345 C344 1.387 . S
C345 C347 1.387 . S
H346 C353 0.950 . S
C347 C345 1.387 . S
C347 C349 1.390 . S
C347 H351 0.950 . S
H348 C344 0.950 . S
C349 C347 1.390 . S
C349 C350 1.387 . S
C349 H352 0.950 . S
C350 C349 1.387 . S
C350 C353 1.387 . S
H351 C347 0.950 . S
H352 C349 0.950 . S
C353 C344 1.390 . S
C353 H346 0.950 . S
C353 C350 1.387 . S
C354 C355 1.387 . S
C354 H358 0.950 . S
C354 C363 1.390 1_655 S
C355 C354 1.387 . S
C355 C357 1.387 . S
H356 C363 0.950 . S
C357 C355 1.387 . S
C357 C359 1.390 . S
C357 H361 0.950 . S
H358 C354 0.950 . S
C359 C357 1.390 . S
C359 C360 1.387 1_655 S
C359 H362 0.950 . S
C360 C359 1.387 1_455 S
C360 C363 1.387 . S
H361 C357 0.950 . S
H362 C359 0.950 . S
C363 C354 1.390 1_455 S
C363 H356 0.950 . S
C363 C360 1.387 . S
C364 C365 1.387 . S
C364 H368 0.950 . S
C364 C373 1.390 . S
C365 C364 1.387 . S
C365 C367 1.387 . S
H366 C373 0.950 1_545 S
C367 C365 1.387 . S
C367 C369 1.390 . S
C367 H371 0.950 . S
H368 C364 0.950 . S
C369 C367 1.390 . S
C369 C370 1.387 1_565 S
C369 H372 0.950 . S
C370 C369 1.387 1_545 S
C370 C373 1.387 1_545 S
H371 C367 0.950 . S
H372 C369 0.950 . S
C373 C364 1.390 . S
C373 H366 0.950 1_565 S
C373 C370 1.387 1_565 S
C374 C375 1.387 . S
C374 H378 0.950 . S
C374 C383 1.390 . S
C375 C374 1.387 . S
C375 C377 1.387 . S
H376 C383 0.950 . S
C377 C375 1.387 . S
C377 C379 1.390 . S
C377 H381 0.950 . S
H378 C374 0.950 . S
C379 C377 1.390 . S
C379 C380 1.387 . S
C379 H382 0.950 . S
C380 C379 1.387 . S
C380 C383 1.387 . S
H381 C377 0.950 . S
H382 C379 0.950 . S
C383 C374 1.390 . S
C383 H376 0.950 . S
C383 C380 1.387 . S
C384 C385 1.387 . S
C384 H388 0.950 . S
C384 C393 1.390 . S
C385 C384 1.387 . S
C385 C387 1.387 . S
H386 C393 0.950 . S
C387 C385 1.387 . S
C387 C389 1.390 . S
C387 H391 0.950 . S
H388 C384 0.950 . S
C389 C387 1.390 . S
C389 C390 1.387 . S
C389 H392 0.950 1_565 S
C390 C389 1.387 . S
C390 C393 1.387 . S
H391 C387 0.950 . S
H392 C389 0.950 1_545 S
C393 C384 1.390 . S
C393 H386 0.950 . S
C393 C390 1.387 . S
C394 C395 1.387 . S
C394 H398 0.950 . S
C394 C403 1.390 . S
C395 C394 1.387 . S
C395 C397 1.387 . S
H396 C403 0.950 . S
C397 C395 1.387 . S
C397 C399 1.390 . S
C397 H401 0.950 . S
H398 C394 0.950 . S
C399 C397 1.390 . S
C399 C400 1.387 . S
C399 H402 0.950 . S
C400 C399 1.387 . S
C400 C403 1.387 . S
H401 C397 0.950 . S
H402 C399 0.950 . S
C403 C394 1.390 . S
C403 H396 0.950 . S
C403 C400 1.387 . S
C404 C405 1.387 . S
C404 H408 0.950 . S
C404 C413 1.390 . S
C405 C404 1.387 . S
C405 C407 1.387 . S
H406 C413 0.950 1_655 S
C407 C405 1.387 . S
C407 C409 1.390 . S
C407 H411 0.950 . S
H408 C404 0.950 . S
C409 C407 1.390 . S
C409 C410 1.387 . S
C409 H412 0.950 . S
C410 C409 1.387 . S
C410 C413 1.387 . S
H411 C407 0.950 . S
H412 C409 0.950 . S
C413 C404 1.390 . S
C413 H406 0.950 1_455 S
C413 C410 1.387 . S
C414 C415 1.387 . S
C414 H418 0.950 . S
C414 C423 1.390 . S
C415 C414 1.387 . S
C415 C417 1.387 . S
H416 C423 0.950 . S
C417 C415 1.387 . S
C417 C419 1.390 . S
C417 H421 0.950 . S
H418 C414 0.950 . S
C419 C417 1.390 . S
C419 C420 1.387 . S
C419 H422 0.950 1_545 S
C420 C419 1.387 . S
C420 C423 1.387 . S
H421 C417 0.950 . S
H422 C419 0.950 1_565 S
C423 C414 1.390 . S
C423 H416 0.950 . S
C423 C420 1.387 . S
C424 C425 1.386 . S
C424 H428 0.950 . S
C424 C433 1.390 1_556 S
C425 C424 1.386 . S
C425 C427 1.392 1_556 S
H426 C433 0.940 1_556 S
C427 C425 1.392 1_554 S
C427 C429 1.390 . S
C427 H431 0.950 . S
H428 C424 0.950 . S
C429 C427 1.390 . S
C429 C430 1.387 . S
C429 H432 0.950 . S
C430 C429 1.387 . S
C430 C433 1.387 . S
H431 C427 0.950 . S
H432 C429 0.950 . S
C433 C424 1.390 1_554 S
C433 H426 0.940 1_554 S
C433 C430 1.387 . S
C434 C435 1.387 . S
C434 H438 0.950 1_655 S
C434 C443 1.390 . S
C435 C434 1.387 . S
C435 C437 1.387 . S
H436 C443 0.950 . S
C437 C435 1.387 . S
C437 C439 1.390 . S
C437 H441 0.950 . S
H438 C434 0.950 1_455 S
C439 C437 1.390 . S
C439 C440 1.387 . S
C439 H442 0.950 . S
C440 C439 1.387 . S
C440 C443 1.387 . S
H441 C437 0.950 . S
H442 C439 0.950 . S
C443 C434 1.390 . S
C443 H436 0.950 . S
C443 C440 1.387 . S
C444 C445 1.387 . S
C444 H448 0.950 . S
C444 C453 1.390 . S
C445 C444 1.387 . S
C445 C447 1.387 . S
H446 C453 0.950 . S
C447 C445 1.387 . S
C447 C449 1.390 . S
C447 H451 0.950 1_455 S
H448 C444 0.950 . S
C449 C447 1.390 . S
C449 C450 1.387 . S
C449 H452 0.950 . S
C450 C449 1.387 . S
C450 C453 1.387 . S
H451 C447 0.950 1_655 S
H452 C449 0.950 . S
C453 C444 1.390 . S
C453 H446 0.950 . S
C453 C450 1.387 . S
C454 C455 1.387 . S
C454 H458 0.950 . S
C454 C463 1.390 . S
C455 C454 1.387 . S
C455 C457 1.387 1_545 S
H456 C463 0.950 . S
C457 C455 1.387 1_565 S
C457 C459 1.390 1_565 S
C457 H461 0.950 . S
H458 C454 0.950 . S
C459 C457 1.390 1_545 S
C459 C460 1.387 . S
C459 H462 0.950 . S
C460 C459 1.387 . S
C460 C463 1.387 . S
H461 C457 0.950 . S
H462 C459 0.950 . S
C463 C454 1.390 . S
C463 H456 0.950 . S
C463 C460 1.387 . S
C464 C465 1.387 . S
C464 H468 0.950 . S
C464 C473 1.390 . S
C465 C464 1.387 . S
C465 C467 1.387 . S
H466 C473 0.950 . S
C467 C465 1.387 . S
C467 C469 1.390 . S
C467 H471 0.950 . S
H468 C464 0.950 . S
C469 C467 1.390 . S
C469 C470 1.387 . S
C469 H472 0.950 . S
C470 C469 1.387 . S
C470 C473 1.387 . S
H471 C467 0.950 . S
H472 C469 0.950 . S
C473 C464 1.390 . S
C473 H466 0.950 . S
C473 C470 1.387 . S
C474 C475 1.387 . S
C474 H478 0.948 1_556 S
C474 C483 1.391 . S
C475 C474 1.387 . S
C475 C477 1.406 . S
H476 C483 0.950 . S
C477 C475 1.406 . S
C477 C479 1.390 . S
C477 H481 0.950 . S
H478 C474 0.948 1_554 S
C479 C477 1.390 . S
C479 C480 1.387 . S
C479 H482 0.950 1_655 S
C480 C479 1.387 . S
C480 C483 1.387 . S
H481 C477 0.950 . S
H482 C479 0.950 1_455 S
C483 C474 1.391 . S
C483 H476 0.950 . S
C483 C480 1.387 . S
C484 C485 1.387 . S
C484 H488 0.950 . S
C484 C493 1.390 . S
C485 C484 1.387 . S
C485 C487 1.387 . S
H486 C493 0.950 . S
C487 C485 1.387 . S
C487 C489 1.390 . S
C487 H491 0.950 1_565 S
H488 C484 0.950 . S
C489 C487 1.390 . S
C489 C490 1.387 . S
C489 H492 0.950 . S
C490 C489 1.387 . S
C490 C493 1.387 . S
H491 C487 0.950 1_545 S
H492 C489 0.950 . S
C493 C484 1.390 . S
C493 H486 0.950 . S
C493 C490 1.387 . S
C494 C495 1.387 . S
C494 H498 0.950 . S
C494 C503 1.390 . S
C495 C494 1.387 . S
C495 C497 1.387 . S
H496 C503 0.950 . S
C497 C495 1.387 . S
C497 C499 1.390 . S
C497 H501 0.950 . S
H498 C494 0.950 . S
C499 C497 1.390 . S
C499 C500 1.387 . S
C499 H502 0.950 . S
C500 C499 1.387 . S
C500 C503 1.387 . S
H501 C497 0.950 . S
H502 C499 0.950 . S
C503 C494 1.390 . S
C503 H496 0.950 . S
C503 C500 1.387 . S
C504 C505 1.387 . S
C504 H508 0.950 . S
C504 C513 1.390 . S
C505 C504 1.387 . S
C505 C507 1.387 . S
H506 C513 0.950 . S
C507 C505 1.387 . S
C507 C509 1.390 . S
C507 H511 0.950 . S
H508 C504 0.950 . S
C509 C507 1.390 . S
C509 C510 1.387 . S
C509 H512 0.950 . S
C510 C509 1.387 . S
C510 C513 1.387 . S
H511 C507 0.950 . S
H512 C509 0.950 . S
C513 C504 1.390 . S
C513 H506 0.950 . S
C513 C510 1.387 . S
C514 C515 1.387 . S
C514 H518 0.950 . S
C514 C523 1.390 . S
C515 C514 1.387 . S
C515 C517 1.387 . S
H516 C523 0.950 . S
C517 C515 1.387 . S
C517 C519 1.390 . S
C517 H521 0.950 . S
H518 C514 0.950 . S
C519 C517 1.390 . S
C519 C520 1.387 . S
C519 H522 0.950 . S
C520 C519 1.387 . S
C520 C523 1.387 . S
H521 C517 0.950 . S
H522 C519 0.950 . S
C523 C514 1.390 . S
C523 H516 0.950 . S
C523 C520 1.387 . S
C524 C525 1.387 . S
C524 H528 0.950 . S
C524 C533 1.390 . S
C525 C524 1.387 . S
C525 C527 1.387 . S
H526 C533 0.950 . S
C527 C525 1.387 . S
C527 C529 1.390 . S
C527 H531 0.950 . S
H528 C524 0.950 . S
C529 C527 1.390 . S
C529 C530 1.387 . S
C529 H532 0.950 . S
C530 C529 1.387 . S
C530 C533 1.387 . S
H531 C527 0.950 . S
H532 C529 0.950 . S
C533 C524 1.390 . S
C533 H526 0.950 . S
C533 C530 1.387 . S
C534 C535 1.387 . S
C534 H538 0.950 . S
C534 C543 1.390 . S
C535 C534 1.387 . S
C535 C537 1.387 . S
H536 C543 0.950 . S
C537 C535 1.387 . S
C537 C539 1.390 . S
C537 H541 0.950 . S
H538 C534 0.950 . S
C539 C537 1.390 . S
C539 C540 1.387 . S
C539 H542 0.950 . S
C540 C539 1.387 . S
C540 C543 1.387 . S
H541 C537 0.950 . S
H542 C539 0.950 . S
C543 C534 1.390 . S
C543 H536 0.950 . S
C543 C540 1.387 . S
C544 C545 1.387 . S
C544 H548 0.950 . S
C544 C553 1.390 . S
C545 C544 1.387 . S
C545 C547 1.387 . S
H546 C553 0.950 . S
C547 C545 1.387 . S
C547 C549 1.390 . S
C547 H551 0.950 . S
H548 C544 0.950 . S
C549 C547 1.390 . S
C549 C550 1.387 . S
C549 H552 0.950 . S
C550 C549 1.387 . S
C550 C553 1.387 . S
H551 C547 0.950 . S
H552 C549 0.950 . S
C553 C544 1.390 . S
C553 H546 0.950 . S
C553 C550 1.387 . S
C554 C555 1.387 . S
C554 H558 0.950 . S
C554 C563 1.390 . S
C555 C554 1.387 . S
C555 C557 1.387 . S
H556 C563 0.950 . S
C557 C555 1.387 . S
C557 C559 1.390 . S
C557 H561 0.950 . S
H558 C554 0.950 . S
C559 C557 1.390 . S
C559 C560 1.387 . S
C559 H562 0.950 . S
C560 C559 1.387 . S
C560 C563 1.387 . S
H561 C557 0.950 . S
H562 C559 0.950 . S
C563 C554 1.390 . S
C563 H556 0.950 . S
C563 C560 1.387 . S
C564 C565 1.387 . S
C564 H568 0.950 . S
C564 C573 1.390 . S
C565 C564 1.387 . S
C565 C567 1.387 . S
H566 C573 0.950 . S
C567 C565 1.387 . S
C567 C569 1.390 . S
C567 H571 0.950 . S
H568 C564 0.950 . S
C569 C567 1.390 . S
C569 C570 1.387 . S
C569 H572 0.950 . S
C570 C569 1.387 . S
C570 C573 1.387 . S
H571 C567 0.950 . S
H572 C569 0.950 . S
C573 C564 1.390 . S
C573 H566 0.950 . S
C573 C570 1.387 . S
C574 C575 1.387 . S
C574 H578 0.950 . S
C574 C583 1.390 . S
C575 C574 1.387 . S
C575 C577 1.387 . S
H576 C583 0.950 . S
C577 C575 1.387 . S
C577 C579 1.390 . S
C577 H581 0.950 . S
H578 C574 0.950 . S
C579 C577 1.390 . S
C579 C580 1.387 . S
C579 H582 0.950 . S
C580 C579 1.387 . S
C580 C583 1.387 . S
H581 C577 0.950 . S
H582 C579 0.950 . S
C583 C574 1.390 . S
C583 H576 0.950 . S
C583 C580 1.387 . S
C584 C585 1.387 . S
C584 H588 0.950 . S
C584 C593 1.390 . S
C585 C584 1.387 . S
C585 C587 1.387 . S
H586 C593 0.950 . S
C587 C585 1.387 . S
C587 C589 1.390 . S
C587 H591 0.950 . S
H588 C584 0.950 . S
C589 C587 1.390 . S
C589 C590 1.387 . S
C589 H592 0.950 . S
C590 C589 1.387 . S
C590 C593 1.387 . S
H591 C587 0.950 . S
H592 C589 0.950 . S
C593 C584 1.390 . S
C593 H586 0.950 . S
C593 C590 1.387 . S
C594 C595 1.387 . S
C594 H598 0.950 . S
C594 C603 1.390 . S
C595 C594 1.387 . S
C595 C597 1.387 . S
H596 C603 0.950 . S
C597 C595 1.387 . S
C597 C599 1.390 . S
C597 H601 0.950 . S
H598 C594 0.950 . S
C599 C597 1.390 . S
C599 C600 1.387 . S
C599 H602 0.950 . S
C600 C599 1.387 . S
C600 C603 1.387 . S
H601 C597 0.950 . S
H602 C599 0.950 . S
C603 C594 1.390 . S
C603 H596 0.950 . S
C603 C600 1.387 . S
C604 C605 1.387 . S
C604 H608 0.950 . S
C604 C613 1.390 . S
C605 C604 1.387 . S
C605 C607 1.387 . S
H606 C613 0.950 . S
C607 C605 1.387 . S
C607 C609 1.390 . S
C607 H611 0.950 . S
H608 C604 0.950 . S
C609 C607 1.390 . S
C609 C610 1.387 . S
C609 H612 0.950 . S
C610 C609 1.387 . S
C610 C613 1.387 . S
H611 C607 0.950 . S
H612 C609 0.950 . S
C613 C604 1.390 . S
C613 H606 0.950 . S
C613 C610 1.387 . S
C614 C615 1.387 . S
C614 H618 0.950 . S
C614 C623 1.390 . S
C615 C614 1.387 . S
C615 C617 1.387 . S
H616 C623 0.950 . S
C617 C615 1.387 . S
C617 C619 1.390 . S
C617 H621 0.950 . S
H618 C614 0.950 . S
C619 C617 1.390 . S
C619 C620 1.387 . S
C619 H622 0.950 . S
C620 C619 1.387 . S
C620 C623 1.387 . S
H621 C617 0.950 . S
H622 C619 0.950 . S
C623 C614 1.390 . S
C623 H616 0.950 . S
C623 C620 1.387 . S
C265 C115 1.260 . S
C270 C5 1.274 . S
C275 C31 1.274 . S
C280 C9 1.258 . S
C285 C49 1.274 . S
C290 C27 1.259 . S
C295 C53 1.258 . S
C300 C75 1.274 . S
C305 C71 1.258 . S
C310 C93 1.274 . S
C315 C119 1.274 . S
C320 C97 1.259 . S
C325 C159 1.258 . S
C330 C137 1.274 . S
C335 C163 1.274 . S
C340 C185 1.260 . S
C345 C203 1.259 . S
C350 C181 1.274 . S
C355 C229 1.260 . S
C360 C207 1.274 . S
C365 C247 1.259 . S
C370 C225 1.274 . S
C375 C141 1.260 . S
C380 C251 1.274 . S
C385 C248 1.435 . S
C390 C4 1.422 1_565 S
C395 C30 1.424 . S
C400 C139 1.436 . S
C405 C160 1.434 . S
C410 C48 1.421 1_455 S
C415 C183 1.435 . S
C420 C74 1.422 1_545 S
C425 C204 1.434 . S
C430 C92 1.424 . S
C435 C118 1.423 1_655 S
C440 C227 1.435 . S
C445 C136 1.422 1_455 S
C450 C28 1.434 . S
C455 C162 1.423 1_545 S
C460 C51 1.435 . S
C465 C72 1.434 . S
C470 C180 1.422 . S
C475 C95 1.425 1_556 S
C480 C206 1.424 1_655 S
C485 C224 1.422 1_565 S
C490 C116 1.435 . S
C495 C250 1.422 . S
C500 C7 1.434 . S
C505 C138 1.246 . S
C510 C6 1.247 . S
C515 C29 1.246 . S
C520 C161 1.247 . S
C525 C182 1.244 . S
C530 C50 1.244 . S
C535 C73 1.245 . S
C540 C205 1.247 . S
C545 C226 1.244 . S
C550 C94 1.245 . S
C555 C249 1.244 . S
C560 C117 1.244 . S
C565 C140 1.132 . S
C570 C8 1.132 . S
C575 C158 1.135 . S
C580 C26 1.134 . S
C585 C184 1.135 . S
C590 C52 1.135 . S
C595 C70 1.133 . S
C600 C202 1.133 . S
C605 C228 1.133 . S
C610 C96 1.133 . S
C615 C246 1.132 . S
C620 C114 1.132 . S
