# Generated by pormake.
# Topology uop, (4)-cn, num edge types: 1
# Building blocks:
#     Node 0, Type 0, BuildingBlock: NAWXER_clean_sbu_0, # of connection points: 4
#     Node 1, Type 0, BuildingBlock: NAWXER_clean_sbu_0, # of connection points: 4
#     Node 2, Type 0, BuildingBlock: NAWXER_clean_sbu_0, # of connection points: 4
#     Node 3, Type 0, BuildingBlock: NAWXER_clean_sbu_0, # of connection points: 4
#     Node 4, Type 0, BuildingBlock: NAWXER_clean_sbu_0, # of connection points: 4
#     Node 5, Type 0, BuildingBlock: NAWXER_clean_sbu_0, # of connection points: 4
#     Node 6, Type 0, BuildingBlock: NAWXER_clean_sbu_0, # of connection points: 4
#     Node 7, Type 0, BuildingBlock: NAWXER_clean_sbu_0, # of connection points: 4
#     Node 8, Type 0, BuildingBlock: NAWXER_clean_sbu_0, # of connection points: 4
#     Node 9, Type 0, BuildingBlock: NAWXER_clean_sbu_0, # of connection points: 4
#     Node 10, Type 0, BuildingBlock: NAWXER_clean_sbu_0, # of connection points: 4
#     Node 11, Type 0, BuildingBlock: NAWXER_clean_sbu_0, # of connection points: 4
#     Edge 12, Type (0, 0), BuildingBlock: TEMPAE_clean_linker_10, # of connection points: 2
#     Edge 13, Type (0, 0), BuildingBlock: TEMPAE_clean_linker_10, # of connection points: 2
#     Edge 14, Type (0, 0), BuildingBlock: TEMPAE_clean_linker_10, # of connection points: 2
#     Edge 15, Type (0, 0), BuildingBlock: TEMPAE_clean_linker_10, # of connection points: 2
#     Edge 16, Type (0, 0), BuildingBlock: TEMPAE_clean_linker_10, # of connection points: 2
#     Edge 17, Type (0, 0), BuildingBlock: TEMPAE_clean_linker_10, # of connection points: 2
#     Edge 18, Type (0, 0), BuildingBlock: TEMPAE_clean_linker_10, # of connection points: 2
#     Edge 19, Type (0, 0), BuildingBlock: TEMPAE_clean_linker_10, # of connection points: 2
#     Edge 20, Type (0, 0), BuildingBlock: TEMPAE_clean_linker_10, # of connection points: 2
#     Edge 21, Type (0, 0), BuildingBlock: TEMPAE_clean_linker_10, # of connection points: 2
#     Edge 22, Type (0, 0), BuildingBlock: TEMPAE_clean_linker_10, # of connection points: 2
#     Edge 23, Type (0, 0), BuildingBlock: TEMPAE_clean_linker_10, # of connection points: 2
#     Edge 24, Type (0, 0), BuildingBlock: TEMPAE_clean_linker_10, # of connection points: 2
#     Edge 25, Type (0, 0), BuildingBlock: TEMPAE_clean_linker_10, # of connection points: 2
#     Edge 26, Type (0, 0), BuildingBlock: TEMPAE_clean_linker_10, # of connection points: 2
#     Edge 27, Type (0, 0), BuildingBlock: TEMPAE_clean_linker_10, # of connection points: 2
#     Edge 28, Type (0, 0), BuildingBlock: TEMPAE_clean_linker_10, # of connection points: 2
#     Edge 29, Type (0, 0), BuildingBlock: TEMPAE_clean_linker_10, # of connection points: 2
#     Edge 30, Type (0, 0), BuildingBlock: TEMPAE_clean_linker_10, # of connection points: 2
#     Edge 31, Type (0, 0), BuildingBlock: TEMPAE_clean_linker_10, # of connection points: 2
#     Edge 32, Type (0, 0), BuildingBlock: TEMPAE_clean_linker_10, # of connection points: 2
#     Edge 33, Type (0, 0), BuildingBlock: TEMPAE_clean_linker_10, # of connection points: 2
#     Edge 34, Type (0, 0), BuildingBlock: TEMPAE_clean_linker_10, # of connection points: 2
#     Edge 35, Type (0, 0), BuildingBlock: TEMPAE_clean_linker_10, # of connection points: 2
# Relax obj value: 0.102
# Max RMSD: 0.272
# Mean RMSD: 0.272
data_MOF--net-uop--node1-NAWXER_clean_sbu_0--edge1-TEMPAE_clean_linker_10
_symmetry_space_group_name_H-M    P1
_symmetry_Int_Tables_number       1
_symmetry_cell_setting            triclinic
loop_
_symmetry_equiv_pos_as_xyz
'x, y, z'
_cell_length_a     34.049078
_cell_length_b     34.065498
_cell_length_c     47.040705
_cell_angle_alpha  90.018586
_cell_angle_beta   89.979901
_cell_angle_gamma 119.98827
loop_
_atom_site_label
_atom_site_type_symbol
_atom_site_fract_x
_atom_site_fract_y
_atom_site_fract_z
_atom_type_partial_charge
C0 C 0.23904 0.36428 0.26231 0.0
C1 C 0.24557 0.48543 0.20589 0.0
O2 O 0.24293 0.35762 0.23585 0.0
Zn3 Zn 0.24706 0.39245 0.19641 0.0
O4 O 0.2359 0.39834 0.26981 0.0
Zn5 Zn 0.24089 0.42337 0.23305 0.0
O6 O 0.17749 0.3771 0.21292 0.0
O7 O 0.19435 0.34949 0.17553 0.0
O8 O 0.24003 0.47858 0.23243 0.0
O9 O 0.24916 0.45679 0.18989 0.0
O10 O 0.30467 0.40451 0.18194 0.0
O11 O 0.31003 0.44311 0.22081 0.0
C12 C 0.16474 0.35122 0.19101 0.0
C13 C 0.3291 0.43276 0.20089 0.0
C14 C 0.81171 0.16636 0.52554 0.0
C15 C 0.89601 0.33078 0.53226 0.0
O16 O 0.79903 0.18025 0.54719 0.0
Zn17 Zn 0.81846 0.24532 0.56652 0.0
O18 O 0.84344 0.195 0.50985 0.0
Zn19 Zn 0.85384 0.24832 0.52965 0.0
O20 O 0.88544 0.24531 0.56894 0.0
O21 O 0.83957 0.24172 0.60324 0.0
O22 O 0.89885 0.30527 0.5137 0.0
O23 O 0.86768 0.31292 0.5528 0.0
O24 O 0.76407 0.24784 0.56631 0.0
O25 O 0.79066 0.24862 0.52329 0.0
C26 C 0.87591 0.24316 0.5955 0.0
C27 C 0.76042 0.24881 0.53955 0.0
C28 C 0.63504 0.87365 0.92856 0.0
C29 C 0.51303 0.7581 0.87305 0.0
O30 O 0.64142 0.88367 0.90202 0.0
Zn31 Zn 0.60609 0.85226 0.86285 0.0
O32 O 0.60102 0.83664 0.93637 0.0
Zn33 Zn 0.57553 0.81589 0.89977 0.0
O34 O 0.62146 0.79821 0.87963 0.0
O35 O 0.64879 0.84211 0.84198 0.0
O36 O 0.52011 0.75998 0.89959 0.0
O37 O 0.54165 0.78993 0.85682 0.0
O38 O 0.59386 0.89755 0.84811 0.0
O39 O 0.55576 0.8651 0.88727 0.0
C40 C 0.64713 0.81097 0.85761 0.0
C41 C 0.56586 0.89411 0.86714 0.0
C42 C 0.7584 0.63166 0.26429 0.0
C43 C 0.75233 0.5109 0.20756 0.0
O44 O 0.755 0.63864 0.23782 0.0
Zn45 Zn 0.75117 0.60408 0.19832 0.0
O46 O 0.76108 0.59734 0.27178 0.0
Zn47 Zn 0.75671 0.57271 0.23491 0.0
O48 O 0.82049 0.61922 0.21515 0.0
O49 O 0.8041 0.64716 0.17774 0.0
O50 O 0.7575 0.51743 0.23414 0.0
O51 O 0.74905 0.53978 0.19163 0.0
O52 O 0.69383 0.5923 0.18357 0.0
O53 O 0.68776 0.55318 0.2223 0.0
C54 C 0.83352 0.64531 0.19333 0.0
C55 C 0.66905 0.5638 0.2023 0.0
C56 C 0.12377 0.75862 0.59425 0.0
C57 C 0.23868 0.75202 0.53818 0.0
O58 O 0.11398 0.75604 0.56771 0.0
Zn59 Zn 0.14536 0.75276 0.52837 0.0
O60 O 0.16031 0.7604 0.60189 0.0
Zn61 Zn 0.18101 0.75614 0.56518 0.0
O62 O 0.20056 0.82095 0.54554 0.0
O63 O 0.15576 0.80597 0.5084 0.0
O64 O 0.23521 0.75331 0.56494 0.0
O65 O 0.20842 0.75217 0.52194 0.0
O66 O 0.10016 0.69567 0.51267 0.0
O67 O 0.1315 0.68842 0.5518 0.0
C68 C 0.18776 0.83469 0.52389 0.0
C69 C 0.10302 0.67036 0.53136 0.0
C70 C 0.36655 0.12432 0.93 0.0
C71 C 0.48742 0.2388 0.87326 0.0
O72 O 0.35958 0.11392 0.90353 0.0
Zn73 Zn 0.39421 0.14449 0.86404 0.0
O74 O 0.40096 0.16124 0.9375 0.0
Zn75 Zn 0.42562 0.18145 0.90063 0.0
O76 O 0.37909 0.19867 0.88085 0.0
O77 O 0.35111 0.15429 0.84344 0.0
O78 O 0.48089 0.23752 0.89985 0.0
O79 O 0.45854 0.20662 0.85734 0.0
O80 O 0.40597 0.09888 0.84935 0.0
O81 O 0.4452 0.1321 0.88802 0.0
C82 C 0.35297 0.18556 0.85904 0.0
C83 C 0.43456 0.10272 0.86806 0.0
C84 C 0.51248 0.75202 0.45926 0.0
C85 C 0.63317 0.75789 0.40264 0.0
O86 O 0.5431 0.75232 0.47537 0.0
Zn87 Zn 0.60665 0.75279 0.46864 0.0
O88 O 0.51689 0.75307 0.43247 0.0
Zn89 Zn 0.57389 0.75586 0.43198 0.0
O90 O 0.5557 0.68827 0.44558 0.0
O91 O 0.59482 0.69581 0.4845 0.0
O92 O 0.59834 0.75963 0.39514 0.0
O93 O 0.64074 0.75561 0.42916 0.0
O94 O 0.64981 0.80617 0.48832 0.0
O95 O 0.61941 0.82085 0.45136 0.0
C96 C 0.56631 0.67035 0.46599 0.0
C97 C 0.64627 0.83476 0.47286 0.0
C98 C 0.87272 0.63099 0.73246 0.0
C99 C 0.75899 0.51008 0.7895 0.0
O100 O 0.88336 0.63809 0.75889 0.0
Zn101 Zn 0.85324 0.60345 0.79847 0.0
O102 O 0.83585 0.59643 0.72507 0.0
Zn103 Zn 0.81609 0.57187 0.76199 0.0
O104 O 0.79872 0.61823 0.78191 0.0
O105 O 0.84339 0.64643 0.81917 0.0
O106 O 0.76018 0.51648 0.76291 0.0
O107 O 0.79121 0.53908 0.80535 0.0
O108 O 0.89919 0.59198 0.81294 0.0
O109 O 0.86585 0.5527 0.77432 0.0
C110 C 0.81192 0.6444 0.8037 0.0
C111 C 0.89542 0.56351 0.79418 0.0
C112 C 0.24571 0.75788 0.12389 0.0
C113 C 0.23893 0.87272 0.06785 0.0
O114 O 0.24921 0.78997 0.13998 0.0
Zn115 Zn 0.24704 0.85221 0.13366 0.0
O116 O 0.24021 0.75936 0.09735 0.0
Zn117 Zn 0.24092 0.81536 0.09691 0.0
O118 O 0.31005 0.86473 0.10916 0.0
O119 O 0.30464 0.89768 0.14816 0.0
O120 O 0.23592 0.83563 0.06021 0.0
O121 O 0.24279 0.88309 0.09434 0.0
O122 O 0.19435 0.84237 0.15461 0.0
O123 O 0.17748 0.79802 0.11717 0.0
C124 C 0.32909 0.89401 0.12914 0.0
C125 C 0.16475 0.81106 0.13914 0.0
C126 C 0.48787 0.2494 0.45898 0.0
C127 C 0.36804 0.24333 0.40141 0.0
O128 O 0.45685 0.24883 0.47483 0.0
Zn129 Zn 0.39344 0.2483 0.46759 0.0
O130 O 0.48411 0.24872 0.43216 0.0
Zn131 Zn 0.42704 0.24579 0.43117 0.0
O132 O 0.44468 0.31315 0.44488 0.0
O133 O 0.40469 0.30511 0.48347 0.0
O134 O 0.40335 0.2423 0.39413 0.0
O135 O 0.35988 0.24526 0.42786 0.0
O136 O 0.35009 0.19477 0.48699 0.0
O137 O 0.38111 0.18051 0.45015 0.0
C138 C 0.43355 0.3308 0.4652 0.0
C139 C 0.35387 0.16636 0.47148 0.0
C140 C 0.12715 0.36498 0.73365 0.0
C141 C 0.24105 0.48552 0.79079 0.0
O142 O 0.1163 0.35806 0.76006 0.0
Zn143 Zn 0.14645 0.39255 0.79968 0.0
O144 O 0.16438 0.39918 0.72633 0.0
Zn145 Zn 0.18399 0.42383 0.76324 0.0
O146 O 0.20078 0.37728 0.78332 0.0
O147 O 0.15593 0.34939 0.82052 0.0
O148 O 0.24016 0.47894 0.76423 0.0
O149 O 0.20857 0.4568 0.80659 0.0
O150 O 0.10071 0.40446 0.81398 0.0
O151 O 0.13444 0.44348 0.77533 0.0
C152 C 0.18739 0.35121 0.80514 0.0
C153 C 0.10477 0.43292 0.79512 0.0
C154 C 0.75217 0.23954 0.12347 0.0
C155 C 0.7588 0.12565 0.06619 0.0
O156 O 0.74891 0.20725 0.13925 0.0
Zn157 Zn 0.75111 0.14519 0.13225 0.0
O158 O 0.7573 0.23841 0.09686 0.0
Zn159 Zn 0.75659 0.1824 0.0958 0.0
O160 O 0.68769 0.13281 0.10827 0.0
O161 O 0.69374 0.09936 0.14681 0.0
O162 O 0.76114 0.16254 0.05881 0.0
O163 O 0.75537 0.11505 0.09262 0.0
O164 O 0.80402 0.15487 0.15278 0.0
O165 O 0.82037 0.19953 0.11554 0.0
C166 C 0.66897 0.10324 0.12813 0.0
C167 C 0.83341 0.18627 0.13726 0.0
C168 C 0.22036 0.67573 0.12404 0.0
C169 C 0.24702 0.71877 0.13603 0.0
C170 C 0.22058 0.6378 0.13534 0.0
C171 C 0.24932 0.64345 0.15858 0.0
C172 C 0.27704 0.68707 0.17042 0.0
C173 C 0.27494 0.72421 0.15928 0.0
C174 C 0.18943 0.59162 0.12275 0.0
C175 C 0.30902 0.69451 0.19469 0.0
C176 C 0.21989 0.54198 0.20542 0.0
C177 C 0.24685 0.52576 0.19363 0.0
C178 C 0.22015 0.5801 0.19405 0.0
C179 C 0.24924 0.60336 0.17098 0.0
C180 C 0.27723 0.5876 0.15934 0.0
C181 C 0.27508 0.54836 0.17052 0.0
C182 C 0.18871 0.59498 0.20642 0.0
C183 C 0.30959 0.61232 0.13525 0.0
H184 H 0.19849 0.67156 0.10617 0.0
H185 H 0.29584 0.75766 0.16835 0.0
H186 H 0.2095 0.5765 0.11464 0.0
H187 H 0.1664 0.56859 0.13944 0.0
H188 H 0.16856 0.59301 0.10506 0.0
H189 H 0.33008 0.7309 0.2004 0.0
H190 H 0.28953 0.67561 0.21373 0.0
H191 H 0.33182 0.68121 0.18897 0.0
H192 H 0.19778 0.52417 0.22318 0.0
H193 H 0.29621 0.53594 0.16163 0.0
H194 H 0.16599 0.59515 0.18956 0.0
H195 H 0.20859 0.63007 0.21469 0.0
H196 H 0.16751 0.57254 0.22395 0.0
H197 H 0.29039 0.61191 0.11611 0.0
H198 H 0.33074 0.59702 0.12966 0.0
H199 H 0.33229 0.64835 0.14113 0.0
C200 C 0.70547 0.27648 0.54034 0.0
C201 C 0.72141 0.25011 0.52738 0.0
C202 C 0.66788 0.27772 0.52935 0.0
C203 C 0.6448 0.25055 0.50553 0.0
C204 C 0.6605 0.22337 0.49259 0.0
C205 C 0.69929 0.22417 0.50339 0.0
C206 C 0.65311 0.30835 0.54306 0.0
C207 C 0.63591 0.19292 0.4677 0.0
C208 C 0.52313 0.22263 0.49461 0.0
C209 C 0.52788 0.25078 0.47167 0.0
C210 C 0.56092 0.22165 0.50561 0.0
C211 C 0.60442 0.25084 0.49402 0.0
C212 C 0.60939 0.28033 0.47138 0.0
C213 C 0.57082 0.27926 0.46008 0.0
C214 C 0.55418 0.18874 0.52916 0.0
C215 C 0.65541 0.31311 0.45919 0.0
H216 H 0.72296 0.29676 0.55882 0.0
H217 H 0.71154 0.20346 0.49363 0.0
H218 H 0.65237 0.33178 0.52696 0.0
H219 H 0.61823 0.28792 0.5516 0.0
H220 H 0.67595 0.32875 0.56068 0.0
H221 H 0.65148 0.17255 0.46085 0.0
H222 H 0.59994 0.16949 0.47342 0.0
H223 H 0.63602 0.21349 0.4494 0.0
H224 H 0.48967 0.20032 0.50327 0.0
H225 H 0.57425 0.3012 0.44241 0.0
H226 H 0.57364 0.2074 0.54826 0.0
H227 H 0.56733 0.16624 0.5224 0.0
H228 H 0.51795 0.1674 0.53518 0.0
H229 H 0.67844 0.33467 0.47637 0.0
H230 H 0.65358 0.33542 0.44265 0.0
H231 H 0.67081 0.29421 0.44962 0.0
C232 C 0.45187 0.7235 0.83649 0.0
C233 C 0.47242 0.71889 0.86106 0.0
C234 C 0.41272 0.6863 0.82532 0.0
C235 C 0.3948 0.64338 0.83857 0.0
C236 C 0.41582 0.63855 0.86322 0.0
C237 C 0.45401 0.67657 0.87442 0.0
C238 C 0.39047 0.6929 0.79942 0.0
C239 C 0.39854 0.59308 0.87744 0.0
C240 C 0.27366 0.55007 0.82496 0.0
C241 C 0.27997 0.5256 0.8033 0.0
C242 C 0.3107 0.58932 0.83618 0.0
C243 C 0.35498 0.60311 0.82616 0.0
C244 C 0.36144 0.57783 0.80465 0.0
C245 C 0.32368 0.5398 0.79309 0.0
C246 C 0.30245 0.61625 0.8585 0.0
C247 C 0.40824 0.59054 0.79412 0.0
H248 H 0.46593 0.75636 0.82633 0.0
H249 H 0.47016 0.67295 0.89331 0.0
H250 H 0.39178 0.67249 0.78146 0.0
H251 H 0.35417 0.6808 0.80386 0.0
H252 H 0.40707 0.72895 0.79268 0.0
H253 H 0.41914 0.59506 0.89627 0.0
H254 H 0.36289 0.57937 0.88432 0.0
H255 H 0.39898 0.56856 0.86208 0.0
H256 H 0.23967 0.53914 0.83259 0.0
H257 H 0.32841 0.52051 0.77645 0.0
H258 H 0.31702 0.65194 0.85143 0.0
H259 H 0.31974 0.6167 0.87857 0.0
H260 H 0.26578 0.60215 0.86298 0.0
H261 H 0.42496 0.62502 0.78477 0.0
H262 H 0.40742 0.56649 0.77785 0.0
H263 H 0.42955 0.59126 0.81219 0.0
C264 C 0.72317 0.44849 0.17183 0.0
C265 C 0.75106 0.47064 0.19515 0.0
C266 C 0.72108 0.40939 0.16043 0.0
C267 C 0.74878 0.3933 0.17208 0.0
C268 C 0.77749 0.41608 0.1954 0.0
C269 C 0.77768 0.45407 0.20697 0.0
C270 C 0.68912 0.38519 0.13609 0.0
C271 C 0.80862 0.40085 0.20778 0.0
C272 C 0.72286 0.27259 0.15927 0.0
C273 C 0.75102 0.27848 0.13606 0.0
C274 C 0.72082 0.30956 0.17078 0.0
C275 C 0.74886 0.35345 0.15939 0.0
C276 C 0.77791 0.35954 0.13622 0.0
C277 C 0.77803 0.32179 0.12452 0.0
C278 C 0.6885 0.30165 0.19495 0.0
C279 C 0.8094 0.40599 0.12411 0.0
H280 H 0.70229 0.46117 0.16291 0.0
H281 H 0.79951 0.47151 0.2249 0.0
H282 H 0.70864 0.38605 0.11699 0.0
H283 H 0.66634 0.34902 0.14162 0.0
H284 H 0.66804 0.40058 0.13057 0.0
H285 H 0.82947 0.42287 0.22557 0.0
H286 H 0.78855 0.36557 0.2157 0.0
H287 H 0.83168 0.40107 0.19103 0.0
H288 H 0.7017 0.23893 0.16798 0.0
H289 H 0.80009 0.32628 0.10668 0.0
H290 H 0.66578 0.31506 0.18926 0.0
H291 H 0.70771 0.3202 0.21415 0.0
H292 H 0.66736 0.26516 0.20037 0.0
H293 H 0.78956 0.42134 0.11599 0.0
H294 H 0.83065 0.40495 0.10653 0.0
H295 H 0.83207 0.42862 0.14107 0.0
C296 C 0.42958 0.72256 0.45936 0.0
C297 C 0.47216 0.75045 0.47159 0.0
C298 C 0.39072 0.72131 0.47033 0.0
C299 C 0.39505 0.75003 0.49331 0.0
C300 C 0.43819 0.77863 0.50555 0.0
C301 C 0.47624 0.77783 0.49485 0.0
C302 C 0.34509 0.68915 0.45743 0.0
C303 C 0.44426 0.81072 0.5295 0.0
C304 C 0.3004 0.77711 0.50241 0.0
C305 C 0.27757 0.75049 0.52603 0.0
C306 C 0.33931 0.77793 0.4918 0.0
C307 C 0.35439 0.7501 0.50452 0.0
C308 C 0.33051 0.72217 0.5279 0.0
C309 C 0.29282 0.7234 0.53874 0.0
C310 C 0.36476 0.80918 0.46739 0.0
C311 C 0.34459 0.69082 0.54134 0.0
H312 H 0.42664 0.7012 0.44145 0.0
H313 H 0.50942 0.79969 0.50402 0.0
H314 H 0.32144 0.667 0.47419 0.0
H315 H 0.33012 0.70852 0.44797 0.0
H316 H 0.34737 0.66741 0.44065 0.0
H317 H 0.4803 0.83175 0.536 0.0
H318 H 0.43142 0.83355 0.5229 0.0
H319 H 0.42416 0.7914 0.54825 0.0
H320 H 0.28866 0.79837 0.49286 0.0
H321 H 0.27477 0.70262 0.55693 0.0
H322 H 0.36526 0.78922 0.44891 0.0
H323 H 0.40053 0.83237 0.47364 0.0
H324 H 0.34947 0.82982 0.46061 0.0
H325 H 0.34588 0.66804 0.52496 0.0
H326 H 0.32103 0.66974 0.55849 0.0
H327 H 0.37913 0.71079 0.55044 0.0
C328 C 0.54377 0.32106 0.87236 0.0
C329 C 0.52768 0.27776 0.86085 0.0
C330 C 0.58179 0.35883 0.8608 0.0
C331 C 0.6051 0.35276 0.83783 0.0
C332 C 0.58948 0.30886 0.82651 0.0
C333 C 0.55032 0.27188 0.83786 0.0
C334 C 0.5965 0.40528 0.87282 0.0
C335 C 0.61426 0.30098 0.80255 0.0
C336 C 0.67687 0.45308 0.79009 0.0
C337 C 0.72004 0.46988 0.80199 0.0
C338 C 0.63909 0.41514 0.8017 0.0
C339 C 0.64501 0.39265 0.82517 0.0
C340 C 0.68877 0.40898 0.83694 0.0
C341 C 0.72576 0.44803 0.82548 0.0
C342 C 0.59276 0.39964 0.78916 0.0
C343 C 0.69651 0.38508 0.86147 0.0
H344 H 0.52593 0.32553 0.89004 0.0
H345 H 0.53799 0.23822 0.82919 0.0
H346 H 0.63167 0.42082 0.88102 0.0
H347 H 0.59641 0.42777 0.85578 0.0
H348 H 0.57407 0.40421 0.89033 0.0
H349 H 0.59916 0.26446 0.79727 0.0
H350 H 0.6136 0.31929 0.78323 0.0
H351 H 0.65037 0.31465 0.80839 0.0
H352 H 0.67248 0.47031 0.77203 0.0
H353 H 0.75931 0.46089 0.83448 0.0
H354 H 0.56973 0.39977 0.80582 0.0
H355 H 0.57777 0.36434 0.78129 0.0
H356 H 0.59391 0.42152 0.7713 0.0
H357 H 0.6776 0.3859 0.88044 0.0
H358 H 0.73296 0.40072 0.86713 0.0
H359 H 0.68339 0.34892 0.85603 0.0
C360 C 0.59928 0.56108 0.18277 0.0
C361 C 0.6191 0.54392 0.20152 0.0
C362 C 0.55217 0.54354 0.18235 0.0
C363 C 0.52408 0.50766 0.20092 0.0
C364 C 0.54379 0.48986 0.2197 0.0
C365 C 0.59106 0.50834 0.21988 0.0
C366 C 0.53249 0.5637 0.16219 0.0
C367 C 0.51492 0.45129 0.23964 0.0
C368 C 0.40675 0.4883 0.21888 0.0
C369 C 0.37906 0.45262 0.20049 0.0
C370 C 0.45401 0.50674 0.21911 0.0
C371 C 0.47406 0.48877 0.20072 0.0
C372 C 0.44632 0.45277 0.18211 0.0
C373 C 0.39921 0.43531 0.18211 0.0
C374 C 0.48251 0.54543 0.23906 0.0
C375 C 0.46636 0.43243 0.16236 0.0
H376 H 0.62064 0.58869 0.1686 0.0
H377 H 0.60604 0.49479 0.23439 0.0
H378 H 0.50788 0.53712 0.14766 0.0
H379 H 0.51371 0.57702 0.17434 0.0
H380 H 0.55897 0.59164 0.1492 0.0
H381 H 0.5354 0.44081 0.25259 0.0
H382 H 0.49588 0.46139 0.2542 0.0
H383 H 0.48958 0.42157 0.22734 0.0
H384 H 0.39151 0.50197 0.2331 0.0
H385 H 0.3781 0.4076 0.16792 0.0
H386 H 0.50809 0.57506 0.2268 0.0
H387 H 0.50126 0.53543 0.25392 0.0
H388 H 0.4618 0.55602 0.25169 0.0
H389 H 0.49127 0.45889 0.14789 0.0
H390 H 0.44012 0.4044 0.14931 0.0
H391 H 0.48488 0.41919 0.17485 0.0
C392 C 0.08106 0.59232 0.54812 0.0
C393 C 0.07324 0.62047 0.53005 0.0
C394 C 0.05256 0.5451 0.54769 0.0
C395 C 0.01503 0.52552 0.52894 0.0
C396 C 0.00706 0.55368 0.51053 0.0
C397 C 0.0364 0.60081 0.5112 0.0
C398 C 0.06243 0.51617 0.56747 0.0
C399 C 0.96713 0.53407 0.49044 0.0
C400 C 0.96228 0.40014 0.51167 0.0
C401 C 0.92564 0.38066 0.53068 0.0
C402 C 0.99152 0.44728 0.51074 0.0
C403 C 0.98364 0.47562 0.52905 0.0
C404 C 0.94628 0.45623 0.54794 0.0
C405 C 0.91788 0.409 0.54863 0.0
C406 C 0.03126 0.46669 0.49049 0.0
C407 C 0.93651 0.48537 0.56762 0.0
H408 H 0.10955 0.60719 0.56267 0.0
H409 H 0.03001 0.62232 0.49724 0.0
H410 H 0.03366 0.4976 0.58235 0.0
H411 H 0.06613 0.49045 0.5551 0.0
H412 H 0.0938 0.53652 0.58009 0.0
H413 H 0.966 0.56052 0.47724 0.0
H414 H 0.96861 0.50895 0.47614 0.0
H415 H 0.93508 0.51592 0.5027 0.0
H416 H 0.96862 0.3785 0.49779 0.0
H417 H 0.88953 0.39427 0.56329 0.0
H418 H 0.06342 0.48498 0.50262 0.0
H419 H 0.02965 0.49166 0.47613 0.0
H420 H 0.03229 0.44012 0.47735 0.0
H421 H 0.96536 0.5041 0.58241 0.0
H422 H 0.9052 0.46514 0.58033 0.0
H423 H 0.93274 0.51095 0.55516 0.0
C424 C 0.43698 0.03536 0.84884 0.0
C425 C 0.45452 0.07274 0.86728 0.0
C426 C 0.45458 0.00585 0.84846 0.0
C427 C 0.49094 0.01414 0.86674 0.0
C428 C 0.50916 0.05207 0.88519 0.0
C429 C 0.49058 0.08077 0.88535 0.0
C430 C 0.43396 0.96554 0.82867 0.0
C431 C 0.54825 0.0623 0.9048 0.0
C432 C 0.51073 0.9167 0.88526 0.0
C433 C 0.54599 0.92419 0.86662 0.0
C434 C 0.49229 0.94551 0.8854 0.0
C435 C 0.50983 0.98301 0.86663 0.0
C436 C 0.5454 0.99077 0.84776 0.0
C437 C 0.56288 0.96116 0.84787 0.0
C438 C 0.45406 0.93584 0.90564 0.0
C439 C 0.56527 0.03061 0.82761 0.0
H440 H 0.40898 0.02873 0.8349 0.0
H441 H 0.50444 0.10962 0.89961 0.0
H442 H 0.46021 0.96714 0.81399 0.0
H443 H 0.42089 0.93376 0.84111 0.0
H444 H 0.40572 0.96377 0.81585 0.0
H445 H 0.55907 0.0936 0.91746 0.0
H446 H 0.53851 0.03357 0.91963 0.0
H447 H 0.57766 0.06633 0.89227 0.0
H448 H 0.49738 0.88817 0.89977 0.0
H449 H 0.59027 0.96737 0.83349 0.0
H450 H 0.42413 0.9315 0.89359 0.0
H451 H 0.46443 0.96497 0.92024 0.0
H452 H 0.44375 0.90488 0.91854 0.0
H453 H 0.53846 0.0287 0.81332 0.0
H454 H 0.593 0.03206 0.81438 0.0
H455 H 0.57884 0.06269 0.83979 0.0
C456 C 0.56307 0.60083 0.48645 0.0
C457 C 0.54602 0.62046 0.46748 0.0
C458 C 0.54514 0.55368 0.48723 0.0
C459 C 0.50903 0.52549 0.46881 0.0
C460 C 0.49116 0.54503 0.44998 0.0
C461 C 0.51 0.59227 0.44945 0.0
C462 C 0.56534 0.5341 0.50743 0.0
C463 C 0.45239 0.51607 0.43019 0.0
C464 C 0.48994 0.40912 0.44906 0.0
C465 C 0.4537 0.38067 0.46688 0.0
C466 C 0.50873 0.45633 0.44983 0.0
C467 C 0.49059 0.47561 0.46868 0.0
C468 C 0.45423 0.44715 0.48687 0.0
C469 C 0.43635 0.40003 0.48585 0.0
C470 C 0.54775 0.48558 0.43026 0.0
C471 C 0.43375 0.46645 0.50709 0.0
H472 H 0.59098 0.62236 0.50039 0.0
H473 H 0.49646 0.6071 0.43482 0.0
H474 H 0.53863 0.50887 0.52163 0.0
H475 H 0.57945 0.51607 0.49524 0.0
H476 H 0.59274 0.56054 0.52074 0.0
H477 H 0.44134 0.53639 0.41756 0.0
H478 H 0.46266 0.49755 0.4153 0.0
H479 H 0.42298 0.49031 0.44253 0.0
H480 H 0.50371 0.39449 0.43443 0.0
H481 H 0.40827 0.3783 0.49964 0.0
H482 H 0.57701 0.51115 0.44279 0.0
H483 H 0.53768 0.50432 0.41544 0.0
H484 H 0.55896 0.46544 0.41756 0.0
H485 H 0.46025 0.49145 0.52149 0.0
H486 H 0.40613 0.43982 0.52019 0.0
H487 H 0.41984 0.48468 0.49494 0.0
C488 C 0.91798 0.50811 0.77651 0.0
C489 C 0.9257 0.54384 0.79478 0.0
C490 C 0.94688 0.48975 0.77656 0.0
C491 C 0.98469 0.50785 0.79511 0.0
C492 C 0.9927 0.54394 0.81357 0.0
C493 C 0.963 0.56134 0.81328 0.0
C494 C 0.93696 0.45097 0.75676 0.0
C495 C 0.03285 0.56442 0.83349 0.0
C496 C 0.03739 0.43571 0.81402 0.0
C497 C 0.07467 0.45279 0.79549 0.0
C498 C 0.00777 0.4532 0.81404 0.0
C499 C 0.01582 0.48896 0.79528 0.0
C500 C 0.05362 0.50666 0.77672 0.0
C501 C 0.08245 0.48823 0.77695 0.0
C502 C 0.96764 0.43315 0.83399 0.0
C503 C 0.06358 0.54508 0.7566 0.0
H504 H 0.8892 0.4943 0.76219 0.0
H505 H 0.9694 0.58909 0.82738 0.0
H506 H 0.96595 0.46088 0.7421 0.0
H507 H 0.93267 0.42138 0.76916 0.0
H508 H 0.90587 0.44037 0.74391 0.0
H509 H 0.03453 0.59259 0.84634 0.0
H510 H 0.03108 0.53808 0.84814 0.0
H511 H 0.06477 0.57752 0.82116 0.0
H512 H 0.03095 0.40819 0.82833 0.0
H513 H 0.1112 0.50171 0.76261 0.0
H514 H 0.93571 0.41977 0.82165 0.0
H515 H 0.96941 0.45981 0.84836 0.0
H516 H 0.96598 0.40528 0.84714 0.0
H517 H 0.03462 0.53488 0.74187 0.0
H518 H 0.0947 0.55545 0.74382 0.0
H519 H 0.06781 0.57489 0.76873 0.0
C520 C 0.40674 0.91671 0.11079 0.0
C521 C 0.37905 0.92413 0.12955 0.0
C522 C 0.45399 0.94557 0.11058 0.0
C523 C 0.47404 0.98303 0.12938 0.0
C524 C 0.4463 0.99072 0.14835 0.0
C525 C 0.3992 0.96108 0.14831 0.0
C526 C 0.48248 0.93599 0.09022 0.0
C527 C 0.46634 0.03051 0.16856 0.0
C528 C 0.59928 0.03554 0.14713 0.0
C529 C 0.61904 0.07307 0.12882 0.0
C530 C 0.5522 0.00589 0.14745 0.0
C531 C 0.52405 0.01419 0.12923 0.0
C532 C 0.5437 0.05224 0.11088 0.0
C533 C 0.59096 0.08108 0.11079 0.0
C534 C 0.53259 0.96545 0.16713 0.0
C535 C 0.51477 0.06248 0.09134 0.0
H536 H 0.39151 0.88821 0.09626 0.0
H537 H 0.3781 0.96725 0.16279 0.0
H538 H 0.50119 0.96517 0.07565 0.0
H539 H 0.50811 0.93159 0.10218 0.0
H540 H 0.46177 0.90508 0.07727 0.0
H541 H 0.4401 0.03192 0.18186 0.0
H542 H 0.49127 0.02854 0.18279 0.0
H543 H 0.48483 0.06262 0.15641 0.0
H544 H 0.62069 0.02892 0.16104 0.0
H545 H 0.60589 0.11004 0.09662 0.0
H546 H 0.51382 0.93374 0.15462 0.0
H547 H 0.50798 0.96696 0.18191 0.0
H548 H 0.55911 0.96362 0.17984 0.0
H549 H 0.49572 0.03376 0.07651 0.0
H550 H 0.53521 0.09378 0.07869 0.0
H551 H 0.48944 0.0665 0.10393 0.0
C552 C 0.26222 0.35506 0.31069 0.0
C553 C 0.24422 0.33612 0.28409 0.0
C554 C 0.27534 0.33252 0.32999 0.0
C555 C 0.26892 0.28933 0.32284 0.0
C556 C 0.24712 0.26832 0.29705 0.0
C557 C 0.23577 0.29239 0.27766 0.0
C558 C 0.29938 0.35662 0.35699 0.0
C559 C 0.23802 0.22152 0.28927 0.0
C560 C 0.35951 0.26908 0.3537 0.0
C561 C 0.33969 0.24789 0.37949 0.0
C562 C 0.33587 0.28079 0.33436 0.0
C563 C 0.29077 0.26965 0.34058 0.0
C564 C 0.26931 0.24492 0.36551 0.0
C565 C 0.2944 0.23509 0.38504 0.0
C566 C 0.36042 0.30809 0.30833 0.0
C567 C 0.22068 0.23081 0.37224 0.0
H568 H 0.26892 0.38892 0.31572 0.0
H569 H 0.22134 0.27747 0.25721 0.0
H570 H 0.2831 0.33471 0.37573 0.0
H571 H 0.33507 0.3641 0.35631 0.0
H572 H 0.29948 0.389 0.36006 0.0
H573 H 0.21289 0.20649 0.27177 0.0
H574 H 0.26999 0.22339 0.28221 0.0
H575 H 0.22536 0.1986 0.30795 0.0
H576 H 0.3946 0.27917 0.34941 0.0
H577 H 0.27889 0.21821 0.40486 0.0
H578 H 0.36409 0.3423 0.30975 0.0
H579 H 0.34061 0.29171 0.28887 0.0
H580 H 0.39471 0.31212 0.30597 0.0
H581 H 0.21869 0.26062 0.37979 0.0
H582 H 0.20647 0.20438 0.38904 0.0
H583 H 0.19924 0.21769 0.35293 0.0
C584 C 0.94241 0.23605 0.61089 0.0
C585 C 0.90945 0.24797 0.61703 0.0
C586 C 0.9778 0.24614 0.63009 0.0
C587 C 0.98101 0.27023 0.65533 0.0
C588 C 0.94662 0.2805 0.66213 0.0
C589 C 0.91085 0.26854 0.64309 0.0
C590 C 0.01282 0.23297 0.62274 0.0
C591 C 0.94926 0.30709 0.6885 0.0
C592 C 0.05936 0.29277 0.71785 0.0
C593 C 0.09407 0.3369 0.71172 0.0
C594 C 0.02403 0.26866 0.6984 0.0
C595 C 0.02273 0.29004 0.6729 0.0
C596 C 0.059 0.33368 0.66603 0.0
C597 C 0.09461 0.35626 0.68535 0.0
C598 C 0.98693 0.22141 0.70585 0.0
C599 C 0.05846 0.35815 0.63936 0.0
H600 H 0.94104 0.21965 0.59086 0.0
H601 H 0.88548 0.27795 0.64784 0.0
H602 H 0.0442 0.26322 0.61516 0.0
H603 H 0.02182 0.21985 0.64176 0.0
H604 H 0.0007 0.20683 0.60575 0.0
H605 H 0.91876 0.31063 0.69123 0.0
H606 H 0.9531 0.29045 0.70769 0.0
H607 H 0.97953 0.34151 0.68725 0.0
H608 H 0.05922 0.27755 0.73812 0.0
H609 H 0.12136 0.39045 0.68059 0.0
H610 H 0.97694 0.19895 0.68694 0.0
H611 H 0.95653 0.22249 0.71318 0.0
H612 H 0.99751 0.20633 0.72306 0.0
H613 H 0.05293 0.33672 0.62038 0.0
H614 H 0.09049 0.39082 0.6364 0.0
H615 H 0.02996 0.36516 0.64044 0.0
C616 C 0.64451 0.90764 0.97646 0.0
C617 C 0.66346 0.90743 0.95007 0.0
C618 C 0.66747 0.94369 0.99544 0.0
C619 C 0.71111 0.97965 0.98821 0.0
C620 C 0.73201 0.97773 0.96263 0.0
C621 C 0.70751 0.94196 0.94352 0.0
C622 C 0.64347 0.94489 0.02219 0.0
C623 C 0.77924 0.0145 0.9548 0.0
C624 C 0.73381 0.09172 0.01832 0.0
C625 C 0.75424 0.09266 0.04434 0.0
C626 C 0.72166 0.05612 -0.0009 0.0
C627 C 0.73161 0.02147 0.0057 0.0
C628 C 0.75575 0.02433 0.03084 0.0
C629 C 0.76601 0.05953 0.05022 0.0
C630 C 0.695 0.05383 0.97285 0.0
C631 C 0.76864 0.98905 0.03796 0.0
H632 H 0.61037 0.88107 0.98154 0.0
H633 H 0.72239 0.94156 0.92322 0.0
H634 H 0.66498 0.95011 0.04109 0.0
H635 H 0.63713 0.97381 0.02115 0.0
H636 H 0.61049 0.91325 0.02528 0.0
H637 H 0.79392 0.00351 0.93755 0.0
H638 H 0.77824 0.04487 0.94737 0.0
H639 H 0.80202 0.02468 0.97356 0.0
H640 H 0.72453 0.11724 0.01378 0.0
H641 H 0.78232 0.06056 0.07022 0.0
H642 H 0.66031 0.02399 0.97429 0.0
H643 H 0.71115 0.04945 0.95358 0.0
H644 H 0.69211 0.08468 0.97013 0.0
H645 H 0.73829 0.95776 0.04552 0.0
H646 H 0.79487 0.00091 0.05488 0.0
H647 H 0.78156 0.98004 0.01883 0.0
C648 C 0.70591 0.76316 0.38701 0.0
C649 C 0.66142 0.75268 0.38091 0.0
C650 C 0.73046 0.75227 0.36767 0.0
C651 C 0.70921 0.72889 0.34232 0.0
C652 C 0.66509 0.72025 0.33552 0.0
C653 C 0.64203 0.73293 0.35471 0.0
C654 C 0.77815 0.76372 0.37505 0.0
C655 C 0.64076 0.69448 0.309 0.0
C656 C 0.76411 0.7045 0.27997 0.0
C657 C 0.7534 0.65996 0.28605 0.0
C658 C 0.75344 0.72917 0.29933 0.0
C659 C 0.72998 0.70797 0.32468 0.0
C660 C 0.72106 0.66376 0.33145 0.0
C661 C 0.73359 0.6406 0.31223 0.0
C662 C 0.76518 0.77694 0.29199 0.0
C663 C 0.69515 0.63947 0.35793 0.0
H664 H 0.72114 0.77893 0.40714 0.0
H665 H 0.60757 0.72466 0.34996 0.0
H666 H 0.77805 0.73272 0.38236 0.0
H667 H 0.80048 0.77662 0.35609 0.0
H668 H 0.79277 0.78948 0.39223 0.0
H669 H 0.60742 0.69252 0.30619 0.0
H670 H 0.66174 0.71073 0.28991 0.0
H671 H 0.63505 0.65946 0.31015 0.0
H672 H 0.77991 0.71968 0.25984 0.0
H673 H 0.7251 0.60609 0.31694 0.0
H674 H 0.77808 0.79919 0.31098 0.0
H675 H 0.73431 0.77705 0.28462 0.0
H676 H 0.79106 0.79149 0.27486 0.0
H677 H 0.71143 0.66037 0.37705 0.0
H678 H 0.69298 0.60606 0.36073 0.0
H679 H 0.66018 0.63396 0.35676 0.0
C680 C 0.0556 0.76301 0.60941 0.0
C681 C 0.09026 0.75364 0.6159 0.0
C682 C 0.02004 0.752 0.62866 0.0
C683 C 0.01849 0.72964 0.65435 0.0
C684 C 0.05467 0.7223 0.66157 0.0
C685 C 0.09048 0.73507 0.64242 0.0
C686 C 0.98302 0.7621 0.62083 0.0
C687 C 0.05392 0.69769 0.68848 0.0
C688 C 0.93855 0.70448 0.7164 0.0
C689 C 0.90567 0.65946 0.71061 0.0
C690 C 0.97366 0.7295 0.69697 0.0
C691 C 0.97672 0.70818 0.6719 0.0
C692 C 0.94232 0.66341 0.66541 0.0
C693 C 0.90678 0.63989 0.68465 0.0
C694 C 0.00863 0.77782 0.70397 0.0
C695 C 0.94483 0.63899 0.63924 0.0
H696 H 0.05568 0.77791 0.58903 0.0
H697 H 0.11718 0.72769 0.6475 0.0
H698 H 0.95268 0.73056 0.61354 0.0
H699 H 0.97287 0.77482 0.63955 0.0
H700 H 0.99377 0.78754 0.60347 0.0
H701 H 0.0858 0.69677 0.6916 0.0
H702 H 0.04859 0.7141 0.70727 0.0
H703 H 0.02522 0.66229 0.68765 0.0
H704 H 0.93738 0.71979 0.73636 0.0
H705 H 0.88145 0.605 0.68019 0.0
H706 H 0.0177 0.79953 0.68475 0.0
H707 H 0.03998 0.7791 0.71178 0.0
H708 H 0.99643 0.7922 0.7207 0.0
H709 H 0.94886 0.65924 0.6199 0.0
H710 H 0.91421 0.60504 0.63665 0.0
H711 H 0.97496 0.6346 0.64068 0.0
C712 C 0.23421 0.94055 0.05254 0.0
C713 C 0.24407 0.90619 0.04619 0.0
C714 C 0.24528 0.9761 0.03329 0.0
C715 C 0.26828 0.978 0.0078 0.0
C716 C 0.27627 0.94217 0.00076 0.0
C717 C 0.26334 0.90631 0.01986 0.0
C718 C 0.23448 0.0127 0.04091 0.0
C719 C 0.30166 0.94337 0.97411 0.0
C720 C 0.29333 0.05776 0.94571 0.0
C721 C 0.33809 0.09112 0.95174 0.0
C722 C 0.26841 0.02247 0.96503 0.0
C723 C 0.28957 0.01976 0.99027 0.0
C724 C 0.33404 0.0546 0.99699 0.0
C725 C 0.35746 0.09028 0.97783 0.0
C726 C 0.22037 0.98697 0.95777 0.0
C727 C 0.35829 0.05248 0.02335 0.0
H728 H 0.21882 0.94019 0.07279 0.0
H729 H 0.27116 0.87986 0.01495 0.0
H730 H 0.26573 0.04326 0.04833 0.0
H731 H 0.22184 0.02262 0.02206 0.0
H732 H 0.20874 0.00169 0.05811 0.0
H733 H 0.30313 0.91177 0.97113 0.0
H734 H 0.28545 0.94845 0.95512 0.0
H735 H 0.33688 0.97237 0.9752 0.0
H736 H 0.27815 0.05871 0.92564 0.0
H737 H 0.39215 0.11596 0.98248 0.0
H738 H 0.19827 0.97781 0.97682 0.0
H739 H 0.21972 0.9558 0.95024 0.0
H740 H 0.206 0.99869 0.94077 0.0
H741 H 0.33762 0.04813 0.04255 0.0
H742 H 0.39198 0.0834 0.0261 0.0
H743 H 0.36324 0.0227 0.02204 0.0
C744 C 0.89754 0.1898 0.16544 0.0
C745 C 0.88223 0.20827 0.14448 0.0
C746 C 0.94357 0.2111 0.17299 0.0
C747 C 0.97492 0.2521 0.15947 0.0
C748 C 0.95974 0.27071 0.13814 0.0
C749 C 0.91364 0.24845 0.1308 0.0
C750 C 0.95858 0.18999 0.19562 0.0
C751 C 0.99209 0.31459 0.12342 0.0
C752 C 0.08426 0.3322 0.19789 0.0
C753 C 0.116 0.32463 0.18351 0.0
C754 C 0.03822 0.30858 0.1904 0.0
C755 C 0.02343 0.27629 0.16816 0.0
C756 C 0.05511 0.2679 0.15387 0.0
C757 C 0.10107 0.29233 0.16163 0.0
C758 C 0.00551 0.31871 0.20599 0.0
C759 C 0.04051 0.23342 0.13023 0.0
H760 H 0.87352 0.15864 0.17602 0.0
H761 H 0.90209 0.26304 0.11464 0.0
H762 H 0.98586 0.18441 0.18724 0.0
H763 H 0.97283 0.21335 0.21401 0.0
H764 H 0.93029 0.1571 0.20328 0.0
H765 H 0.97501 0.32417 0.10696 0.0
H766 H 0.00785 0.34237 0.13927 0.0
H767 H 0.01989 0.31169 0.11319 0.0
H768 H 0.09548 0.35717 0.21476 0.0
H769 H 0.12532 0.28614 0.15049 0.0
H770 H 0.97795 0.28727 0.21567 0.0
H771 H 0.98947 0.33138 0.19081 0.0
H772 H 0.02235 0.3444 0.22302 0.0
H773 H 0.01349 0.19988 0.1379 0.0
H774 H 0.06906 0.22975 0.12192 0.0
H775 H 0.02604 0.2435 0.11244 0.0
C776 C 0.80523 0.10195 0.49635 0.0
C777 C 0.78871 0.11749 0.5184 0.0
C778 C 0.78307 0.05598 0.48876 0.0
C779 C 0.74327 0.02482 0.50345 0.0
C780 C 0.72655 0.04019 0.52583 0.0
C781 C 0.74956 0.08633 0.53311 0.0
C782 C 0.8021 0.04078 0.46491 0.0
C783 C 0.68406 0.00797 0.54189 0.0
C784 C 0.66185 0.91426 0.46667 0.0
C785 C 0.67193 0.88358 0.48009 0.0
C786 C 0.68479 0.96033 0.47409 0.0
C787 C 0.71891 0.97616 0.49524 0.0
C788 C 0.72965 0.94551 0.50861 0.0
C789 C 0.70589 0.89955 0.50097 0.0
C790 C 0.6722 0.992 0.4595 0.0
C791 C 0.76613 0.96123 0.53107 0.0
H792 H 0.83552 0.12576 0.48491 0.0
H793 H 0.73648 0.09806 0.55011 0.0
H794 H 0.80915 0.01415 0.47264 0.0
H795 H 0.77682 0.02564 0.44754 0.0
H796 H 0.83388 0.06912 0.456 0.0
H797 H 0.67565 0.02528 0.55885 0.0
H798 H 0.65498 0.99155 0.52699 0.0
H799 H 0.68817 0.98065 0.55174 0.0
H800 H 0.63551 0.90216 0.45062 0.0
H801 H 0.714 0.8761 0.51138 0.0
H802 H 0.70234 0.01967 0.44875 0.0
H803 H 0.66062 0.00798 0.47549 0.0
H804 H 0.64491 0.97433 0.44349 0.0
H805 H 0.79884 0.98822 0.52232 0.0
H806 H 0.77092 0.93323 0.53906 0.0
H807 H 0.75733 0.97608 0.54928 0.0
C808 C 0.80803 0.70451 0.83223 0.0
C809 C 0.78979 0.67106 0.81105 0.0
C810 C 0.78666 0.72914 0.83985 0.0
C811 C 0.74583 0.71976 0.82618 0.0
C812 C 0.72743 0.68627 0.80466 0.0
C813 C 0.74975 0.6625 0.79725 0.0
C814 C 0.80754 0.76492 0.8627 0.0
C815 C 0.68374 0.67502 0.78976 0.0
C816 C 0.66561 0.74914 0.8644 0.0
C817 C 0.67357 0.78863 0.85015 0.0
C818 C 0.6891 0.72657 0.85692 0.0
C819 C 0.72169 0.74415 0.83484 0.0
C820 C 0.73046 0.7844 0.82068 0.0
C821 C 0.70613 0.80605 0.82841 0.0
C822 C 0.67852 0.68351 0.87235 0.0
C823 C 0.76528 0.80439 0.79722 0.0
H824 H 0.83907 0.71148 0.8429 0.0
H825 H 0.73533 0.63662 0.78093 0.0
H826 H 0.81343 0.79794 0.85444 0.0
H827 H 0.78388 0.75569 0.88094 0.0
H828 H 0.84025 0.76926 0.87054 0.0
H829 H 0.67424 0.64849 0.77323 0.0
H830 H 0.65578 0.66298 0.80549 0.0
H831 H 0.68689 0.70585 0.7796 0.0
H832 H 0.64041 0.73534 0.88115 0.0
H833 H 0.71263 0.83665 0.81737 0.0
H834 H 0.70978 0.68712 0.88218 0.0
H835 H 0.66594 0.65497 0.85704 0.0
H836 H 0.65261 0.6746 0.88925 0.0
H837 H 0.79868 0.8107 0.80505 0.0
H838 H 0.7692 0.83672 0.78899 0.0
H839 H 0.75535 0.78 0.77934 0.0
C840 C 0.91392 0.66405 0.20024 0.0
C841 C 0.88234 0.67204 0.18606 0.0
C842 C 0.96002 0.68777 0.19285 0.0
C843 C 0.97501 0.72059 0.17093 0.0
C844 C 0.94348 0.72945 0.15689 0.0
C845 C 0.89748 0.70491 0.16452 0.0
C846 C 0.99256 0.67711 0.20817 0.0
C847 C 0.95828 0.76452 0.1336 0.0
C848 C 0.10098 0.80693 0.1681 0.0
C849 C 0.11603 0.78887 0.14671 0.0
C850 C 0.05504 0.78547 0.17591 0.0
C851 C 0.02351 0.74474 0.1622 0.0
C852 C 0.03845 0.72649 0.14049 0.0
C853 C 0.08446 0.74889 0.1329 0.0
C854 C 0.04028 0.80619 0.19896 0.0
C855 C 0.00592 0.68289 0.12555 0.0
H856 H 0.90253 0.63864 0.21685 0.0
H857 H 0.87335 0.71145 0.15354 0.0
H858 H 0.00842 0.66452 0.19276 0.0
H859 H 0.02027 0.7083 0.21798 0.0
H860 H 0.97561 0.65117 0.22504 0.0
H861 H 0.92987 0.76862 0.12555 0.0
H862 H 0.98547 0.79779 0.14151 0.0
H863 H 0.9726 0.7547 0.11557 0.0
H864 H 0.12511 0.83791 0.17879 0.0
H865 H 0.0958 0.73459 0.11642 0.0
H866 H 0.02589 0.78238 0.21712 0.0
H867 H 0.01315 0.81224 0.19086 0.0
H868 H 0.06872 0.83879 0.20687 0.0
H869 H 0.99004 0.65488 0.14123 0.0
H870 H 0.02288 0.67343 0.10893 0.0
H871 H 0.97823 0.68615 0.11548 0.0
C872 C 0.19396 0.89906 0.49481 0.0
C873 C 0.21094 0.88348 0.51655 0.0
C874 C 0.21619 0.945 0.48711 0.0
C875 C 0.25654 0.97604 0.50136 0.0
C876 C 0.27379 0.96059 0.52338 0.0
C877 C 0.25069 0.91451 0.53078 0.0
C878 C 0.19659 0.9603 0.46368 0.0
C879 C 0.31688 0.99268 0.53894 0.0
C880 C 0.33748 0.0867 0.4645 0.0
C881 C 0.32802 0.11744 0.47845 0.0
C882 C 0.31438 0.04053 0.4717 0.0
C883 C 0.28079 0.02471 0.4932 0.0
C884 C 0.27064 0.05543 0.50708 0.0
C885 C 0.29449 0.10145 0.49962 0.0
C886 C 0.32629 0.00878 0.45654 0.0
C887 C 0.23477 0.03972 0.52994 0.0
H888 H 0.16321 0.87534 0.48374 0.0
H889 H 0.26414 0.90274 0.54752 0.0
H890 H 0.18978 0.98693 0.47175 0.0
H891 H 0.22142 0.97547 0.44607 0.0
H892 H 0.16456 0.932 0.455 0.0
H893 H 0.3258 0.97527 0.55554 0.0
H894 H 0.34544 0.00906 0.52366 0.0
H895 H 0.31322 0.02004 0.54916 0.0
H896 H 0.36344 0.09879 0.4482 0.0
H897 H 0.28685 0.12494 0.51044 0.0
H898 H 0.29573 0.98118 0.44609 0.0
H899 H 0.33835 0.99271 0.47213 0.0
H900 H 0.35302 0.02641 0.44019 0.0
H901 H 0.2018 0.01279 0.52148 0.0
H902 H 0.23025 0.06775 0.53824 0.0
H903 H 0.24402 0.02483 0.5479 0.0
C904 C 0.24898 0.33233 0.79851 0.0
C905 C 0.20941 0.3245 0.81263 0.0
C906 C 0.27128 0.30859 0.80601 0.0
C907 C 0.25335 0.27591 0.82801 0.0
C908 C 0.21301 0.26725 0.84204 0.0
C909 C 0.19162 0.29181 0.83427 0.0
C910 C 0.31444 0.31903 0.79071 0.0
C911 C 0.19266 0.23234 0.86541 0.0
C912 C 0.29281 0.18946 0.83057 0.0
C913 C 0.3262 0.2076 0.85179 0.0
C914 C 0.26819 0.21085 0.82299 0.0
C915 C 0.27753 0.25159 0.83673 0.0
C916 C 0.3109 0.26986 0.85833 0.0
C917 C 0.33466 0.24753 0.8657 0.0
C918 C 0.23251 0.19011 0.80006 0.0
C919 C 0.3221 0.31346 0.87331 0.0
H920 H 0.26306 0.35761 0.78182 0.0
H921 H 0.16096 0.28542 0.84522 0.0
H922 H 0.34285 0.33145 0.80611 0.0
H923 H 0.31076 0.28776 0.78087 0.0
H924 H 0.32359 0.345 0.77384 0.0
H925 H 0.16027 0.2285 0.87351 0.0
H926 H 0.18633 0.19896 0.85755 0.0
H927 H 0.21686 0.24212 0.88339 0.0
H928 H 0.28591 0.15851 0.81982 0.0
H929 H 0.36049 0.26187 0.88205 0.0
H930 H 0.24198 0.21378 0.78182 0.0
H931 H 0.19948 0.18438 0.80823 0.0
H932 H 0.22807 0.15736 0.79225 0.0
H933 H 0.33443 0.34152 0.85765 0.0
H934 H 0.34843 0.32276 0.88996 0.0
H935 H 0.29119 0.31036 0.88334 0.0
loop_
_geom_bond_atom_site_label_1
_geom_bond_atom_site_label_2
_geom_bond_distance
_geom_bond_site_symmetry_2
_ccdc_geom_bond_type
C0 O2 1.247 . S
C0 O4 1.258 . S
C1 O8 1.247 . S
C1 O9 1.258 . S
O2 C0 1.247 . S
O2 Zn3 2.028 . S
Zn3 O2 2.028 . S
Zn3 O7 2.035 . S
Zn3 O9 2.035 . S
Zn3 O10 2.028 . S
O4 C0 1.258 . S
O4 Zn5 2.035 . S
Zn5 O4 2.035 . S
Zn5 O6 2.028 . S
Zn5 O8 2.028 . S
Zn5 O11 2.035 . S
O6 Zn5 2.028 . S
O6 C12 1.247 . S
O7 Zn3 2.035 . S
O7 C12 1.258 . S
O8 C1 1.247 . S
O8 Zn5 2.028 . S
O9 C1 1.258 . S
O9 Zn3 2.035 . S
O10 Zn3 2.028 . S
O10 C13 1.247 . S
O11 Zn5 2.035 . S
O11 C13 1.258 . S
C12 O6 1.247 . S
C12 O7 1.258 . S
C13 O10 1.247 . S
C13 O11 1.258 . S
C14 O16 1.247 . S
C14 O18 1.258 . S
C15 O22 1.247 . S
C15 O23 1.258 . S
O16 C14 1.247 . S
O16 Zn17 2.028 . S
Zn17 O16 2.028 . S
Zn17 O21 2.035 . S
Zn17 O23 2.035 . S
Zn17 O24 2.028 . S
O18 C14 1.258 . S
O18 Zn19 2.035 . S
Zn19 O18 2.035 . S
Zn19 O20 2.028 . S
Zn19 O22 2.028 . S
Zn19 O25 2.035 . S
O20 Zn19 2.028 . S
O20 C26 1.247 . S
O21 Zn17 2.035 . S
O21 C26 1.258 . S
O22 C15 1.247 . S
O22 Zn19 2.028 . S
O23 C15 1.258 . S
O23 Zn17 2.035 . S
O24 Zn17 2.028 . S
O24 C27 1.247 . S
O25 Zn19 2.035 . S
O25 C27 1.258 . S
C26 O20 1.247 . S
C26 O21 1.258 . S
C27 O24 1.247 . S
C27 O25 1.258 . S
C28 O30 1.247 . S
C28 O32 1.258 . S
C29 O36 1.247 . S
C29 O37 1.258 . S
O30 C28 1.247 . S
O30 Zn31 2.028 . S
Zn31 O30 2.028 . S
Zn31 O35 2.035 . S
Zn31 O37 2.035 . S
Zn31 O38 2.028 . S
O32 C28 1.258 . S
O32 Zn33 2.035 . S
Zn33 O32 2.035 . S
Zn33 O34 2.028 . S
Zn33 O36 2.028 . S
Zn33 O39 2.035 . S
O34 Zn33 2.028 . S
O34 C40 1.247 . S
O35 Zn31 2.035 . S
O35 C40 1.258 . S
O36 C29 1.247 . S
O36 Zn33 2.028 . S
O37 C29 1.258 . S
O37 Zn31 2.035 . S
O38 Zn31 2.028 . S
O38 C41 1.247 . S
O39 Zn33 2.035 . S
O39 C41 1.258 . S
C40 O34 1.247 . S
C40 O35 1.258 . S
C41 O38 1.247 . S
C41 O39 1.258 . S
C42 O44 1.247 . S
C42 O46 1.258 . S
C43 O50 1.247 . S
C43 O51 1.258 . S
O44 C42 1.247 . S
O44 Zn45 2.028 . S
Zn45 O44 2.028 . S
Zn45 O49 2.035 . S
Zn45 O51 2.035 . S
Zn45 O52 2.028 . S
O46 C42 1.258 . S
O46 Zn47 2.035 . S
Zn47 O46 2.035 . S
Zn47 O48 2.028 . S
Zn47 O50 2.028 . S
Zn47 O53 2.035 . S
O48 Zn47 2.028 . S
O48 C54 1.247 . S
O49 Zn45 2.035 . S
O49 C54 1.258 . S
O50 C43 1.247 . S
O50 Zn47 2.028 . S
O51 C43 1.258 . S
O51 Zn45 2.035 . S
O52 Zn45 2.028 . S
O52 C55 1.247 . S
O53 Zn47 2.035 . S
O53 C55 1.258 . S
C54 O48 1.247 . S
C54 O49 1.258 . S
C55 O52 1.247 . S
C55 O53 1.258 . S
C56 O58 1.247 . S
C56 O60 1.258 . S
C57 O64 1.247 . S
C57 O65 1.258 . S
O58 C56 1.247 . S
O58 Zn59 2.028 . S
Zn59 O58 2.028 . S
Zn59 O63 2.035 . S
Zn59 O65 2.035 . S
Zn59 O66 2.028 . S
O60 C56 1.258 . S
O60 Zn61 2.035 . S
Zn61 O60 2.035 . S
Zn61 O62 2.028 . S
Zn61 O64 2.028 . S
Zn61 O67 2.035 . S
O62 Zn61 2.028 . S
O62 C68 1.247 . S
O63 Zn59 2.035 . S
O63 C68 1.258 . S
O64 C57 1.247 . S
O64 Zn61 2.028 . S
O65 C57 1.258 . S
O65 Zn59 2.035 . S
O66 Zn59 2.028 . S
O66 C69 1.247 . S
O67 Zn61 2.035 . S
O67 C69 1.258 . S
C68 O62 1.247 . S
C68 O63 1.258 . S
C69 O66 1.247 . S
C69 O67 1.258 . S
C70 O72 1.247 . S
C70 O74 1.258 . S
C71 O78 1.247 . S
C71 O79 1.258 . S
O72 C70 1.247 . S
O72 Zn73 2.028 . S
Zn73 O72 2.028 . S
Zn73 O77 2.035 . S
Zn73 O79 2.035 . S
Zn73 O80 2.028 . S
O74 C70 1.258 . S
O74 Zn75 2.035 . S
Zn75 O74 2.035 . S
Zn75 O76 2.028 . S
Zn75 O78 2.028 . S
Zn75 O81 2.035 . S
O76 Zn75 2.028 . S
O76 C82 1.247 . S
O77 Zn73 2.035 . S
O77 C82 1.258 . S
O78 C71 1.247 . S
O78 Zn75 2.028 . S
O79 C71 1.258 . S
O79 Zn73 2.035 . S
O80 Zn73 2.028 . S
O80 C83 1.247 . S
O81 Zn75 2.035 . S
O81 C83 1.258 . S
C82 O76 1.247 . S
C82 O77 1.258 . S
C83 O80 1.247 . S
C83 O81 1.258 . S
C84 O86 1.247 . S
C84 O88 1.258 . S
C85 O92 1.247 . S
C85 O93 1.258 . S
O86 C84 1.247 . S
O86 Zn87 2.028 . S
Zn87 O86 2.028 . S
Zn87 O91 2.035 . S
Zn87 O93 2.035 . S
Zn87 O94 2.028 . S
O88 C84 1.258 . S
O88 Zn89 2.035 . S
Zn89 O88 2.035 . S
Zn89 O90 2.028 . S
Zn89 O92 2.028 . S
Zn89 O95 2.035 . S
O90 Zn89 2.028 . S
O90 C96 1.247 . S
O91 Zn87 2.035 . S
O91 C96 1.258 . S
O92 C85 1.247 . S
O92 Zn89 2.028 . S
O93 C85 1.258 . S
O93 Zn87 2.035 . S
O94 Zn87 2.028 . S
O94 C97 1.247 . S
O95 Zn89 2.035 . S
O95 C97 1.258 . S
C96 O90 1.247 . S
C96 O91 1.258 . S
C97 O94 1.247 . S
C97 O95 1.258 . S
C98 O100 1.247 . S
C98 O102 1.258 . S
C99 O106 1.247 . S
C99 O107 1.258 . S
O100 C98 1.247 . S
O100 Zn101 2.028 . S
Zn101 O100 2.028 . S
Zn101 O105 2.035 . S
Zn101 O107 2.035 . S
Zn101 O108 2.028 . S
O102 C98 1.258 . S
O102 Zn103 2.035 . S
Zn103 O102 2.035 . S
Zn103 O104 2.028 . S
Zn103 O106 2.028 . S
Zn103 O109 2.035 . S
O104 Zn103 2.028 . S
O104 C110 1.247 . S
O105 Zn101 2.035 . S
O105 C110 1.258 . S
O106 C99 1.247 . S
O106 Zn103 2.028 . S
O107 C99 1.258 . S
O107 Zn101 2.035 . S
O108 Zn101 2.028 . S
O108 C111 1.247 . S
O109 Zn103 2.035 . S
O109 C111 1.258 . S
C110 O104 1.247 . S
C110 O105 1.258 . S
C111 O108 1.247 . S
C111 O109 1.258 . S
C112 O114 1.247 . S
C112 O116 1.258 . S
C113 O120 1.247 . S
C113 O121 1.258 . S
O114 C112 1.247 . S
O114 Zn115 2.028 . S
Zn115 O114 2.028 . S
Zn115 O119 2.035 . S
Zn115 O121 2.035 . S
Zn115 O122 2.028 . S
O116 C112 1.258 . S
O116 Zn117 2.035 . S
Zn117 O116 2.035 . S
Zn117 O118 2.028 . S
Zn117 O120 2.028 . S
Zn117 O123 2.035 . S
O118 Zn117 2.028 . S
O118 C124 1.247 . S
O119 Zn115 2.035 . S
O119 C124 1.258 . S
O120 C113 1.247 . S
O120 Zn117 2.028 . S
O121 C113 1.258 . S
O121 Zn115 2.035 . S
O122 Zn115 2.028 . S
O122 C125 1.247 . S
O123 Zn117 2.035 . S
O123 C125 1.258 . S
C124 O118 1.247 . S
C124 O119 1.258 . S
C125 O122 1.247 . S
C125 O123 1.258 . S
C126 O128 1.247 . S
C126 O130 1.258 . S
C127 O134 1.247 . S
C127 O135 1.258 . S
O128 C126 1.247 . S
O128 Zn129 2.028 . S
Zn129 O128 2.028 . S
Zn129 O133 2.035 . S
Zn129 O135 2.035 . S
Zn129 O136 2.028 . S
O130 C126 1.258 . S
O130 Zn131 2.035 . S
Zn131 O130 2.035 . S
Zn131 O132 2.028 . S
Zn131 O134 2.028 . S
Zn131 O137 2.035 . S
O132 Zn131 2.028 . S
O132 C138 1.247 . S
O133 Zn129 2.035 . S
O133 C138 1.258 . S
O134 C127 1.247 . S
O134 Zn131 2.028 . S
O135 C127 1.258 . S
O135 Zn129 2.035 . S
O136 Zn129 2.028 . S
O136 C139 1.247 . S
O137 Zn131 2.035 . S
O137 C139 1.258 . S
C138 O132 1.247 . S
C138 O133 1.258 . S
C139 O136 1.247 . S
C139 O137 1.258 . S
C140 O142 1.247 . S
C140 O144 1.258 . S
C141 O148 1.247 . S
C141 O149 1.258 . S
O142 C140 1.247 . S
O142 Zn143 2.028 . S
Zn143 O142 2.028 . S
Zn143 O147 2.035 . S
Zn143 O149 2.035 . S
Zn143 O150 2.028 . S
O144 C140 1.258 . S
O144 Zn145 2.035 . S
Zn145 O144 2.035 . S
Zn145 O146 2.028 . S
Zn145 O148 2.028 . S
Zn145 O151 2.035 . S
O146 Zn145 2.028 . S
O146 C152 1.247 . S
O147 Zn143 2.035 . S
O147 C152 1.258 . S
O148 C141 1.247 . S
O148 Zn145 2.028 . S
O149 C141 1.258 . S
O149 Zn143 2.035 . S
O150 Zn143 2.028 . S
O150 C153 1.247 . S
O151 Zn145 2.035 . S
O151 C153 1.258 . S
C152 O146 1.247 . S
C152 O147 1.258 . S
C153 O150 1.247 . S
C153 O151 1.258 . S
C154 O156 1.247 . S
C154 O158 1.258 . S
C155 O162 1.247 . S
C155 O163 1.258 . S
O156 C154 1.247 . S
O156 Zn157 2.028 . S
Zn157 O156 2.028 . S
Zn157 O161 2.035 . S
Zn157 O163 2.035 . S
Zn157 O164 2.028 . S
O158 C154 1.258 . S
O158 Zn159 2.035 . S
Zn159 O158 2.035 . S
Zn159 O160 2.028 . S
Zn159 O162 2.028 . S
Zn159 O165 2.035 . S
O160 Zn159 2.028 . S
O160 C166 1.247 . S
O161 Zn157 2.035 . S
O161 C166 1.258 . S
O162 C155 1.247 . S
O162 Zn159 2.028 . S
O163 C155 1.258 . S
O163 Zn157 2.035 . S
O164 Zn157 2.028 . S
O164 C167 1.247 . S
O165 Zn159 2.035 . S
O165 C167 1.258 . S
C166 O160 1.247 . S
C166 O161 1.258 . S
C167 O164 1.247 . S
C167 O165 1.258 . S
C168 C169 1.391 . S
C168 C170 1.394 . S
C168 H184 0.931 . S
C169 C168 1.391 . S
C169 C173 1.376 . S
C170 C168 1.394 . S
C170 C171 1.369 . S
C170 C174 1.531 . S
C171 C170 1.369 . S
C171 C172 1.410 . S
C171 C179 1.503 . S
C172 C171 1.410 . S
C172 C173 1.392 . S
C172 C175 1.511 . S
C173 C169 1.376 . S
C173 C172 1.392 . S
C173 H185 0.929 . S
C174 C170 1.531 . S
C174 H186 0.960 . S
C174 H187 0.962 . S
C174 H188 0.960 . S
C175 C172 1.511 . S
C175 H189 0.961 . S
C175 H190 0.961 . S
C175 H191 0.961 . S
C176 C177 1.370 . S
C176 C178 1.363 . S
C176 H192 0.931 . S
C177 C176 1.370 . S
C177 C181 1.408 . S
C178 C176 1.363 . S
C178 C179 1.370 . S
C178 C182 1.524 . S
C179 C171 1.503 . S
C179 C178 1.370 . S
C179 C180 1.403 . S
C180 C179 1.403 . S
C180 C181 1.404 . S
C180 C183 1.539 . S
C181 C177 1.408 . S
C181 C180 1.404 . S
C181 H193 0.930 . S
C182 C178 1.524 . S
C182 H194 0.956 . S
C182 H195 0.961 . S
C182 H196 0.961 . S
C183 C180 1.539 . S
C183 H197 0.958 . S
C183 H198 0.961 . S
C183 H199 0.960 . S
H184 C168 0.931 . S
H185 C173 0.929 . S
H186 C174 0.960 . S
H187 C174 0.962 . S
H188 C174 0.960 . S
H189 C175 0.961 . S
H190 C175 0.961 . S
H191 C175 0.961 . S
H192 C176 0.931 . S
H193 C181 0.930 . S
H194 C182 0.956 . S
H195 C182 0.961 . S
H196 C182 0.961 . S
H197 C183 0.958 . S
H198 C183 0.961 . S
H199 C183 0.960 . S
C200 C201 1.391 . S
C200 C202 1.394 . S
C200 H216 0.931 . S
C201 C200 1.391 . S
C201 C205 1.376 . S
C202 C200 1.394 . S
C202 C203 1.369 . S
C202 C206 1.531 . S
C203 C202 1.369 . S
C203 C204 1.410 . S
C203 C211 1.503 . S
C204 C203 1.410 . S
C204 C205 1.392 . S
C204 C207 1.511 . S
C205 C201 1.376 . S
C205 C204 1.392 . S
C205 H217 0.929 . S
C206 C202 1.531 . S
C206 H218 0.960 . S
C206 H219 0.962 . S
C206 H220 0.960 . S
C207 C204 1.511 . S
C207 H221 0.961 . S
C207 H222 0.961 . S
C207 H223 0.961 . S
C208 C209 1.370 . S
C208 C210 1.363 . S
C208 H224 0.931 . S
C209 C208 1.370 . S
C209 C213 1.408 . S
C210 C208 1.363 . S
C210 C211 1.370 . S
C210 C214 1.524 . S
C211 C203 1.503 . S
C211 C210 1.370 . S
C211 C212 1.403 . S
C212 C211 1.403 . S
C212 C213 1.404 . S
C212 C215 1.539 . S
C213 C209 1.408 . S
C213 C212 1.404 . S
C213 H225 0.930 . S
C214 C210 1.524 . S
C214 H226 0.956 . S
C214 H227 0.961 . S
C214 H228 0.961 . S
C215 C212 1.539 . S
C215 H229 0.958 . S
C215 H230 0.961 . S
C215 H231 0.960 . S
H216 C200 0.931 . S
H217 C205 0.929 . S
H218 C206 0.960 . S
H219 C206 0.962 . S
H220 C206 0.960 . S
H221 C207 0.961 . S
H222 C207 0.961 . S
H223 C207 0.961 . S
H224 C208 0.931 . S
H225 C213 0.930 . S
H226 C214 0.956 . S
H227 C214 0.961 . S
H228 C214 0.961 . S
H229 C215 0.958 . S
H230 C215 0.961 . S
H231 C215 0.960 . S
C232 C233 1.391 . S
C232 C234 1.394 . S
C232 H248 0.931 . S
C233 C232 1.391 . S
C233 C237 1.376 . S
C234 C232 1.394 . S
C234 C235 1.369 . S
C234 C238 1.531 . S
C235 C234 1.369 . S
C235 C236 1.410 . S
C235 C243 1.503 . S
C236 C235 1.410 . S
C236 C237 1.392 . S
C236 C239 1.511 . S
C237 C233 1.376 . S
C237 C236 1.392 . S
C237 H249 0.929 . S
C238 C234 1.531 . S
C238 H250 0.960 . S
C238 H251 0.962 . S
C238 H252 0.960 . S
C239 C236 1.511 . S
C239 H253 0.961 . S
C239 H254 0.961 . S
C239 H255 0.961 . S
C240 C241 1.370 . S
C240 C242 1.363 . S
C240 H256 0.931 . S
C241 C240 1.370 . S
C241 C245 1.408 . S
C242 C240 1.363 . S
C242 C243 1.370 . S
C242 C246 1.524 . S
C243 C235 1.503 . S
C243 C242 1.370 . S
C243 C244 1.403 . S
C244 C243 1.403 . S
C244 C245 1.404 . S
C244 C247 1.539 . S
C245 C241 1.408 . S
C245 C244 1.404 . S
C245 H257 0.930 . S
C246 C242 1.524 . S
C246 H258 0.956 . S
C246 H259 0.961 . S
C246 H260 0.961 . S
C247 C244 1.539 . S
C247 H261 0.958 . S
C247 H262 0.961 . S
C247 H263 0.960 . S
H248 C232 0.931 . S
H249 C237 0.929 . S
H250 C238 0.960 . S
H251 C238 0.962 . S
H252 C238 0.960 . S
H253 C239 0.961 . S
H254 C239 0.961 . S
H255 C239 0.961 . S
H256 C240 0.931 . S
H257 C245 0.930 . S
H258 C246 0.956 . S
H259 C246 0.961 . S
H260 C246 0.961 . S
H261 C247 0.958 . S
H262 C247 0.961 . S
H263 C247 0.960 . S
C264 C265 1.391 . S
C264 C266 1.394 . S
C264 H280 0.931 . S
C265 C264 1.391 . S
C265 C269 1.376 . S
C266 C264 1.394 . S
C266 C267 1.369 . S
C266 C270 1.531 . S
C267 C266 1.369 . S
C267 C268 1.410 . S
C267 C275 1.503 . S
C268 C267 1.410 . S
C268 C269 1.392 . S
C268 C271 1.511 . S
C269 C265 1.376 . S
C269 C268 1.392 . S
C269 H281 0.929 . S
C270 C266 1.531 . S
C270 H282 0.960 . S
C270 H283 0.962 . S
C270 H284 0.960 . S
C271 C268 1.511 . S
C271 H285 0.961 . S
C271 H286 0.961 . S
C271 H287 0.961 . S
C272 C273 1.370 . S
C272 C274 1.363 . S
C272 H288 0.931 . S
C273 C272 1.370 . S
C273 C277 1.408 . S
C274 C272 1.363 . S
C274 C275 1.370 . S
C274 C278 1.524 . S
C275 C267 1.503 . S
C275 C274 1.370 . S
C275 C276 1.403 . S
C276 C275 1.403 . S
C276 C277 1.404 . S
C276 C279 1.539 . S
C277 C273 1.408 . S
C277 C276 1.404 . S
C277 H289 0.930 . S
C278 C274 1.524 . S
C278 H290 0.956 . S
C278 H291 0.961 . S
C278 H292 0.961 . S
C279 C276 1.539 . S
C279 H293 0.958 . S
C279 H294 0.961 . S
C279 H295 0.960 . S
H280 C264 0.931 . S
H281 C269 0.929 . S
H282 C270 0.960 . S
H283 C270 0.962 . S
H284 C270 0.960 . S
H285 C271 0.961 . S
H286 C271 0.961 . S
H287 C271 0.961 . S
H288 C272 0.931 . S
H289 C277 0.930 . S
H290 C278 0.956 . S
H291 C278 0.961 . S
H292 C278 0.961 . S
H293 C279 0.958 . S
H294 C279 0.961 . S
H295 C279 0.960 . S
C296 C297 1.391 . S
C296 C298 1.394 . S
C296 H312 0.931 . S
C297 C296 1.391 . S
C297 C301 1.376 . S
C298 C296 1.394 . S
C298 C299 1.369 . S
C298 C302 1.531 . S
C299 C298 1.369 . S
C299 C300 1.410 . S
C299 C307 1.503 . S
C300 C299 1.410 . S
C300 C301 1.392 . S
C300 C303 1.511 . S
C301 C297 1.376 . S
C301 C300 1.392 . S
C301 H313 0.929 . S
C302 C298 1.531 . S
C302 H314 0.960 . S
C302 H315 0.962 . S
C302 H316 0.960 . S
C303 C300 1.511 . S
C303 H317 0.961 . S
C303 H318 0.961 . S
C303 H319 0.961 . S
C304 C305 1.370 . S
C304 C306 1.363 . S
C304 H320 0.931 . S
C305 C304 1.370 . S
C305 C309 1.408 . S
C306 C304 1.363 . S
C306 C307 1.370 . S
C306 C310 1.524 . S
C307 C299 1.503 . S
C307 C306 1.370 . S
C307 C308 1.403 . S
C308 C307 1.403 . S
C308 C309 1.404 . S
C308 C311 1.539 . S
C309 C305 1.408 . S
C309 C308 1.404 . S
C309 H321 0.930 . S
C310 C306 1.524 . S
C310 H322 0.956 . S
C310 H323 0.961 . S
C310 H324 0.961 . S
C311 C308 1.539 . S
C311 H325 0.958 . S
C311 H326 0.961 . S
C311 H327 0.960 . S
H312 C296 0.931 . S
H313 C301 0.929 . S
H314 C302 0.960 . S
H315 C302 0.962 . S
H316 C302 0.960 . S
H317 C303 0.961 . S
H318 C303 0.961 . S
H319 C303 0.961 . S
H320 C304 0.931 . S
H321 C309 0.930 . S
H322 C310 0.956 . S
H323 C310 0.961 . S
H324 C310 0.961 . S
H325 C311 0.958 . S
H326 C311 0.961 . S
H327 C311 0.960 . S
C328 C329 1.391 . S
C328 C330 1.394 . S
C328 H344 0.931 . S
C329 C328 1.391 . S
C329 C333 1.376 . S
C330 C328 1.394 . S
C330 C331 1.369 . S
C330 C334 1.531 . S
C331 C330 1.369 . S
C331 C332 1.410 . S
C331 C339 1.503 . S
C332 C331 1.410 . S
C332 C333 1.392 . S
C332 C335 1.511 . S
C333 C329 1.376 . S
C333 C332 1.392 . S
C333 H345 0.929 . S
C334 C330 1.531 . S
C334 H346 0.960 . S
C334 H347 0.962 . S
C334 H348 0.960 . S
C335 C332 1.511 . S
C335 H349 0.961 . S
C335 H350 0.961 . S
C335 H351 0.961 . S
C336 C337 1.370 . S
C336 C338 1.363 . S
C336 H352 0.931 . S
C337 C336 1.370 . S
C337 C341 1.408 . S
C338 C336 1.363 . S
C338 C339 1.370 . S
C338 C342 1.524 . S
C339 C331 1.503 . S
C339 C338 1.370 . S
C339 C340 1.403 . S
C340 C339 1.403 . S
C340 C341 1.404 . S
C340 C343 1.539 . S
C341 C337 1.408 . S
C341 C340 1.404 . S
C341 H353 0.930 . S
C342 C338 1.524 . S
C342 H354 0.956 . S
C342 H355 0.961 . S
C342 H356 0.961 . S
C343 C340 1.539 . S
C343 H357 0.958 . S
C343 H358 0.961 . S
C343 H359 0.960 . S
H344 C328 0.931 . S
H345 C333 0.929 . S
H346 C334 0.960 . S
H347 C334 0.962 . S
H348 C334 0.960 . S
H349 C335 0.961 . S
H350 C335 0.961 . S
H351 C335 0.961 . S
H352 C336 0.931 . S
H353 C341 0.930 . S
H354 C342 0.956 . S
H355 C342 0.961 . S
H356 C342 0.961 . S
H357 C343 0.958 . S
H358 C343 0.961 . S
H359 C343 0.960 . S
C360 C361 1.391 . S
C360 C362 1.394 . S
C360 H376 0.931 . S
C361 C360 1.391 . S
C361 C365 1.376 . S
C362 C360 1.394 . S
C362 C363 1.369 . S
C362 C366 1.531 . S
C363 C362 1.369 . S
C363 C364 1.410 . S
C363 C371 1.503 . S
C364 C363 1.410 . S
C364 C365 1.392 . S
C364 C367 1.511 . S
C365 C361 1.376 . S
C365 C364 1.392 . S
C365 H377 0.929 . S
C366 C362 1.531 . S
C366 H378 0.960 . S
C366 H379 0.962 . S
C366 H380 0.960 . S
C367 C364 1.511 . S
C367 H381 0.961 . S
C367 H382 0.961 . S
C367 H383 0.961 . S
C368 C369 1.370 . S
C368 C370 1.363 . S
C368 H384 0.931 . S
C369 C368 1.370 . S
C369 C373 1.408 . S
C370 C368 1.363 . S
C370 C371 1.370 . S
C370 C374 1.524 . S
C371 C363 1.503 . S
C371 C370 1.370 . S
C371 C372 1.403 . S
C372 C371 1.403 . S
C372 C373 1.404 . S
C372 C375 1.539 . S
C373 C369 1.408 . S
C373 C372 1.404 . S
C373 H385 0.930 . S
C374 C370 1.524 . S
C374 H386 0.956 . S
C374 H387 0.961 . S
C374 H388 0.961 . S
C375 C372 1.539 . S
C375 H389 0.958 . S
C375 H390 0.961 . S
C375 H391 0.960 . S
H376 C360 0.931 . S
H377 C365 0.929 . S
H378 C366 0.960 . S
H379 C366 0.962 . S
H380 C366 0.960 . S
H381 C367 0.961 . S
H382 C367 0.961 . S
H383 C367 0.961 . S
H384 C368 0.931 . S
H385 C373 0.930 . S
H386 C374 0.956 . S
H387 C374 0.961 . S
H388 C374 0.961 . S
H389 C375 0.958 . S
H390 C375 0.961 . S
H391 C375 0.960 . S
C392 C393 1.391 . S
C392 C394 1.394 . S
C392 H408 0.931 . S
C393 C392 1.391 . S
C393 C397 1.376 . S
C394 C392 1.394 . S
C394 C395 1.369 . S
C394 C398 1.531 . S
C395 C394 1.369 . S
C395 C396 1.410 . S
C395 C403 1.503 1_455 S
C396 C395 1.410 . S
C396 C397 1.392 . S
C396 C399 1.511 1_455 S
C397 C393 1.376 . S
C397 C396 1.392 . S
C397 H409 0.929 . S
C398 C394 1.531 . S
C398 H410 0.960 . S
C398 H411 0.962 . S
C398 H412 0.960 . S
C399 C396 1.511 1_655 S
C399 H413 0.961 . S
C399 H414 0.961 . S
C399 H415 0.961 . S
C400 C401 1.370 . S
C400 C402 1.363 . S
C400 H416 0.931 . S
C401 C400 1.370 . S
C401 C405 1.408 . S
C402 C400 1.363 . S
C402 C403 1.370 . S
C402 C406 1.524 1_655 S
C403 C395 1.503 1_655 S
C403 C402 1.370 . S
C403 C404 1.403 . S
C404 C403 1.403 . S
C404 C405 1.404 . S
C404 C407 1.539 . S
C405 C401 1.408 . S
C405 C404 1.404 . S
C405 H417 0.930 . S
C406 C402 1.524 1_455 S
C406 H418 0.956 . S
C406 H419 0.961 . S
C406 H420 0.961 . S
C407 C404 1.539 . S
C407 H421 0.958 . S
C407 H422 0.961 . S
C407 H423 0.960 . S
H408 C392 0.931 . S
H409 C397 0.929 . S
H410 C398 0.960 . S
H411 C398 0.962 . S
H412 C398 0.960 . S
H413 C399 0.961 . S
H414 C399 0.961 . S
H415 C399 0.961 . S
H416 C400 0.931 . S
H417 C405 0.930 . S
H418 C406 0.956 . S
H419 C406 0.961 . S
H420 C406 0.961 . S
H421 C407 0.958 . S
H422 C407 0.961 . S
H423 C407 0.960 . S
C424 C425 1.391 . S
C424 C426 1.394 . S
C424 H440 0.931 . S
C425 C424 1.391 . S
C425 C429 1.376 . S
C426 C424 1.394 . S
C426 C427 1.369 . S
C426 C430 1.531 1_545 S
C427 C426 1.369 . S
C427 C428 1.410 . S
C427 C435 1.503 1_545 S
C428 C427 1.410 . S
C428 C429 1.392 . S
C428 C431 1.511 . S
C429 C425 1.376 . S
C429 C428 1.392 . S
C429 H441 0.929 . S
C430 C426 1.531 1_565 S
C430 H442 0.960 . S
C430 H443 0.962 . S
C430 H444 0.960 . S
C431 C428 1.511 . S
C431 H445 0.961 . S
C431 H446 0.961 . S
C431 H447 0.961 . S
C432 C433 1.370 . S
C432 C434 1.363 . S
C432 H448 0.931 . S
C433 C432 1.370 . S
C433 C437 1.408 . S
C434 C432 1.363 . S
C434 C435 1.370 . S
C434 C438 1.524 . S
C435 C427 1.503 1_565 S
C435 C434 1.370 . S
C435 C436 1.403 . S
C436 C435 1.403 . S
C436 C437 1.404 . S
C436 C439 1.539 1_565 S
C437 C433 1.408 . S
C437 C436 1.404 . S
C437 H449 0.930 . S
C438 C434 1.524 . S
C438 H450 0.956 . S
C438 H451 0.961 . S
C438 H452 0.961 . S
C439 C436 1.539 1_545 S
C439 H453 0.958 . S
C439 H454 0.961 . S
C439 H455 0.960 . S
H440 C424 0.931 . S
H441 C429 0.929 . S
H442 C430 0.960 . S
H443 C430 0.962 . S
H444 C430 0.960 . S
H445 C431 0.961 . S
H446 C431 0.961 . S
H447 C431 0.961 . S
H448 C432 0.931 . S
H449 C437 0.930 . S
H450 C438 0.956 . S
H451 C438 0.961 . S
H452 C438 0.961 . S
H453 C439 0.958 . S
H454 C439 0.961 . S
H455 C439 0.960 . S
C456 C457 1.391 . S
C456 C458 1.394 . S
C456 H472 0.931 . S
C457 C456 1.391 . S
C457 C461 1.376 . S
C458 C456 1.394 . S
C458 C459 1.369 . S
C458 C462 1.531 . S
C459 C458 1.369 . S
C459 C460 1.410 . S
C459 C467 1.503 . S
C460 C459 1.410 . S
C460 C461 1.392 . S
C460 C463 1.511 . S
C461 C457 1.376 . S
C461 C460 1.392 . S
C461 H473 0.929 . S
C462 C458 1.531 . S
C462 H474 0.960 . S
C462 H475 0.962 . S
C462 H476 0.960 . S
C463 C460 1.511 . S
C463 H477 0.961 . S
C463 H478 0.961 . S
C463 H479 0.961 . S
C464 C465 1.370 . S
C464 C466 1.363 . S
C464 H480 0.931 . S
C465 C464 1.370 . S
C465 C469 1.408 . S
C466 C464 1.363 . S
C466 C467 1.370 . S
C466 C470 1.524 . S
C467 C459 1.503 . S
C467 C466 1.370 . S
C467 C468 1.403 . S
C468 C467 1.403 . S
C468 C469 1.404 . S
C468 C471 1.539 . S
C469 C465 1.408 . S
C469 C468 1.404 . S
C469 H481 0.930 . S
C470 C466 1.524 . S
C470 H482 0.956 . S
C470 H483 0.961 . S
C470 H484 0.961 . S
C471 C468 1.539 . S
C471 H485 0.958 . S
C471 H486 0.961 . S
C471 H487 0.960 . S
H472 C456 0.931 . S
H473 C461 0.929 . S
H474 C462 0.960 . S
H475 C462 0.962 . S
H476 C462 0.960 . S
H477 C463 0.961 . S
H478 C463 0.961 . S
H479 C463 0.961 . S
H480 C464 0.931 . S
H481 C469 0.930 . S
H482 C470 0.956 . S
H483 C470 0.961 . S
H484 C470 0.961 . S
H485 C471 0.958 . S
H486 C471 0.961 . S
H487 C471 0.960 . S
C488 C489 1.391 . S
C488 C490 1.394 . S
C488 H504 0.931 . S
C489 C488 1.391 . S
C489 C493 1.376 . S
C490 C488 1.394 . S
C490 C491 1.369 . S
C490 C494 1.531 . S
C491 C490 1.369 . S
C491 C492 1.410 1_655 S
C491 C499 1.503 1_655 S
C492 C491 1.410 1_455 S
C492 C493 1.392 1_455 S
C492 C495 1.511 . S
C493 C489 1.376 . S
C493 C492 1.392 1_655 S
C493 H505 0.929 . S
C494 C490 1.531 . S
C494 H506 0.960 . S
C494 H507 0.962 . S
C494 H508 0.960 . S
C495 C492 1.511 . S
C495 H509 0.961 . S
C495 H510 0.961 . S
C495 H511 0.961 . S
C496 C497 1.370 . S
C496 C498 1.363 . S
C496 H512 0.931 . S
C497 C496 1.370 . S
C497 C501 1.408 . S
C498 C496 1.363 . S
C498 C499 1.370 . S
C498 C502 1.524 1_455 S
C499 C491 1.503 1_455 S
C499 C498 1.370 . S
C499 C500 1.403 . S
C500 C499 1.403 . S
C500 C501 1.404 . S
C500 C503 1.539 . S
C501 C497 1.408 . S
C501 C500 1.404 . S
C501 H513 0.930 . S
C502 C498 1.524 1_655 S
C502 H514 0.956 . S
C502 H515 0.963 1_655 S
C502 H516 0.961 1_655 S
C503 C500 1.539 . S
C503 H517 0.958 . S
C503 H518 0.961 . S
C503 H519 0.960 . S
H504 C488 0.931 . S
H505 C493 0.929 . S
H506 C494 0.960 . S
H507 C494 0.962 . S
H508 C494 0.960 . S
H509 C495 0.961 . S
H510 C495 0.961 . S
H511 C495 0.961 . S
H512 C496 0.931 . S
H513 C501 0.930 . S
H514 C502 0.956 . S
H515 C502 0.963 1_455 S
H516 C502 0.961 1_455 S
H517 C503 0.958 . S
H518 C503 0.961 . S
H519 C503 0.960 . S
C520 C521 1.391 . S
C520 C522 1.394 . S
C520 H536 0.931 . S
C521 C520 1.391 . S
C521 C525 1.376 . S
C522 C520 1.394 . S
C522 C523 1.369 . S
C522 C526 1.531 . S
C523 C522 1.369 . S
C523 C524 1.410 . S
C523 C531 1.503 1_565 S
C524 C523 1.410 . S
C524 C525 1.392 . S
C524 C527 1.511 1_565 S
C525 C521 1.376 . S
C525 C524 1.392 . S
C525 H537 0.929 . S
C526 C522 1.531 . S
C526 H538 0.960 . S
C526 H539 0.962 . S
C526 H540 0.960 . S
C527 C524 1.511 1_545 S
C527 H541 0.961 . S
C527 H542 0.961 . S
C527 H543 0.961 . S
C528 C529 1.370 . S
C528 C530 1.363 . S
C528 H544 0.931 . S
C529 C528 1.370 . S
C529 C533 1.408 . S
C530 C528 1.363 . S
C530 C531 1.370 . S
C530 C534 1.524 1_545 S
C531 C523 1.503 1_545 S
C531 C530 1.370 . S
C531 C532 1.403 . S
C532 C531 1.403 . S
C532 C533 1.404 . S
C532 C535 1.539 . S
C533 C529 1.408 . S
C533 C532 1.404 . S
C533 H545 0.930 . S
C534 C530 1.524 1_565 S
C534 H546 0.956 . S
C534 H547 0.961 . S
C534 H548 0.961 . S
C535 C532 1.539 . S
C535 H549 0.958 . S
C535 H550 0.961 . S
C535 H551 0.960 . S
H536 C520 0.931 . S
H537 C525 0.929 . S
H538 C526 0.960 . S
H539 C526 0.962 . S
H540 C526 0.960 . S
H541 C527 0.961 . S
H542 C527 0.961 . S
H543 C527 0.961 . S
H544 C528 0.931 . S
H545 C533 0.930 . S
H546 C534 0.956 . S
H547 C534 0.961 . S
H548 C534 0.961 . S
H549 C535 0.958 . S
H550 C535 0.961 . S
H551 C535 0.960 . S
C552 C553 1.391 . S
C552 C554 1.394 . S
C552 H568 0.931 . S
C553 C552 1.391 . S
C553 C557 1.376 . S
C554 C552 1.394 . S
C554 C555 1.369 . S
C554 C558 1.531 . S
C555 C554 1.369 . S
C555 C556 1.410 . S
C555 C563 1.503 . S
C556 C555 1.410 . S
C556 C557 1.392 . S
C556 C559 1.511 . S
C557 C553 1.376 . S
C557 C556 1.392 . S
C557 H569 0.929 . S
C558 C554 1.531 . S
C558 H570 0.960 . S
C558 H571 0.962 . S
C558 H572 0.960 . S
C559 C556 1.511 . S
C559 H573 0.961 . S
C559 H574 0.961 . S
C559 H575 0.961 . S
C560 C561 1.370 . S
C560 C562 1.363 . S
C560 H576 0.931 . S
C561 C560 1.370 . S
C561 C565 1.408 . S
C562 C560 1.363 . S
C562 C563 1.370 . S
C562 C566 1.524 . S
C563 C555 1.503 . S
C563 C562 1.370 . S
C563 C564 1.403 . S
C564 C563 1.403 . S
C564 C565 1.404 . S
C564 C567 1.539 . S
C565 C561 1.408 . S
C565 C564 1.404 . S
C565 H577 0.930 . S
C566 C562 1.524 . S
C566 H578 0.956 . S
C566 H579 0.961 . S
C566 H580 0.961 . S
C567 C564 1.539 . S
C567 H581 0.958 . S
C567 H582 0.961 . S
C567 H583 0.960 . S
H568 C552 0.931 . S
H569 C557 0.929 . S
H570 C558 0.960 . S
H571 C558 0.962 . S
H572 C558 0.960 . S
H573 C559 0.961 . S
H574 C559 0.961 . S
H575 C559 0.961 . S
H576 C560 0.931 . S
H577 C565 0.930 . S
H578 C566 0.956 . S
H579 C566 0.961 . S
H580 C566 0.961 . S
H581 C567 0.958 . S
H582 C567 0.961 . S
H583 C567 0.960 . S
C584 C585 1.391 . S
C584 C586 1.394 1_655 S
C584 H600 0.931 . S
C585 C584 1.391 . S
C585 C589 1.376 . S
C586 C584 1.394 1_455 S
C586 C587 1.369 1_455 S
C586 C590 1.531 . S
C587 C586 1.369 1_655 S
C587 C588 1.410 . S
C587 C595 1.503 1_655 S
C588 C587 1.410 . S
C588 C589 1.392 . S
C588 C591 1.511 . S
C589 C585 1.376 . S
C589 C588 1.392 . S
C589 H601 0.929 . S
C590 C586 1.531 . S
C590 H602 0.960 . S
C590 H603 0.962 . S
C590 H604 0.960 . S
C591 C588 1.511 . S
C591 H605 0.961 . S
C591 H606 0.961 . S
C591 H607 0.961 . S
C592 C593 1.370 . S
C592 C594 1.363 1_455 S
C592 H608 0.931 1_455 S
C593 C592 1.370 . S
C593 C597 1.408 . S
C594 C592 1.363 1_655 S
C594 C595 1.370 1_655 S
C594 C598 1.524 . S
C595 C587 1.503 1_455 S
C595 C594 1.370 1_455 S
C595 C596 1.403 . S
C596 C595 1.403 . S
C596 C597 1.404 . S
C596 C599 1.539 . S
C597 C593 1.408 . S
C597 C596 1.404 . S
C597 H609 0.930 . S
C598 C594 1.524 . S
C598 H610 0.956 . S
C598 H611 0.961 . S
C598 H612 0.961 . S
C599 C596 1.539 . S
C599 H613 0.958 . S
C599 H614 0.961 . S
C599 H615 0.960 . S
H600 C584 0.931 . S
H601 C589 0.929 . S
H602 C590 0.960 . S
H603 C590 0.962 . S
H604 C590 0.960 . S
H605 C591 0.961 . S
H606 C591 0.961 . S
H607 C591 0.961 . S
H608 C592 0.931 1_655 S
H609 C597 0.930 . S
H610 C598 0.956 . S
H611 C598 0.961 . S
H612 C598 0.961 . S
H613 C599 0.958 . S
H614 C599 0.961 . S
H615 C599 0.960 . S
C616 C617 1.391 . S
C616 C618 1.394 . S
C616 H632 0.931 . S
C617 C616 1.391 . S
C617 C621 1.376 . S
C618 C616 1.394 . S
C618 C619 1.369 . S
C618 C622 1.531 1_556 S
C619 C618 1.369 . S
C619 C620 1.410 . S
C619 C627 1.503 1_566 S
C620 C619 1.410 . S
C620 C621 1.392 . S
C620 C623 1.511 1_565 S
C621 C617 1.376 . S
C621 C620 1.392 . S
C621 H633 0.929 . S
C622 C618 1.531 1_554 S
C622 H634 0.960 . S
C622 H635 0.962 . S
C622 H636 0.960 1_554 S
C623 C620 1.511 1_545 S
C623 H637 0.961 . S
C623 H638 0.961 . S
C623 H639 0.961 . S
C624 C625 1.370 . S
C624 C626 1.363 . S
C624 H640 0.931 . S
C625 C624 1.370 . S
C625 C629 1.408 . S
C626 C624 1.363 . S
C626 C627 1.370 . S
C626 C630 1.524 1_554 S
C627 C619 1.503 1_544 S
C627 C626 1.370 . S
C627 C628 1.403 1_545 S
C628 C627 1.403 1_565 S
C628 C629 1.404 1_565 S
C628 C631 1.539 . S
C629 C625 1.408 . S
C629 C628 1.404 1_545 S
C629 H641 0.930 1_545 S
C630 C626 1.524 1_556 S
C630 H642 0.956 . S
C630 H643 0.961 . S
C630 H644 0.961 1_556 S
C631 C628 1.539 . S
C631 H645 0.958 . S
C631 H646 0.961 . S
C631 H647 0.960 . S
H632 C616 0.931 . S
H633 C621 0.929 . S
H634 C622 0.960 . S
H635 C622 0.962 . S
H636 C622 0.960 1_556 S
H637 C623 0.961 . S
H638 C623 0.961 . S
H639 C623 0.961 . S
H640 C624 0.931 . S
H641 C629 0.930 1_565 S
H642 C630 0.956 . S
H643 C630 0.961 . S
H644 C630 0.961 1_554 S
H645 C631 0.958 . S
H646 C631 0.961 . S
H647 C631 0.960 . S
C648 C649 1.391 . S
C648 C650 1.394 . S
C648 H664 0.931 . S
C649 C648 1.391 . S
C649 C653 1.376 . S
C650 C648 1.394 . S
C650 C651 1.369 . S
C650 C654 1.531 . S
C651 C650 1.369 . S
C651 C652 1.410 . S
C651 C659 1.503 . S
C652 C651 1.410 . S
C652 C653 1.392 . S
C652 C655 1.511 . S
C653 C649 1.376 . S
C653 C652 1.392 . S
C653 H665 0.929 . S
C654 C650 1.531 . S
C654 H666 0.960 . S
C654 H667 0.962 . S
C654 H668 0.960 . S
C655 C652 1.511 . S
C655 H669 0.961 . S
C655 H670 0.961 . S
C655 H671 0.961 . S
C656 C657 1.370 . S
C656 C658 1.363 . S
C656 H672 0.931 . S
C657 C656 1.370 . S
C657 C661 1.408 . S
C658 C656 1.363 . S
C658 C659 1.370 . S
C658 C662 1.524 . S
C659 C651 1.503 . S
C659 C658 1.370 . S
C659 C660 1.403 . S
C660 C659 1.403 . S
C660 C661 1.404 . S
C660 C663 1.539 . S
C661 C657 1.408 . S
C661 C660 1.404 . S
C661 H673 0.930 . S
C662 C658 1.524 . S
C662 H674 0.956 . S
C662 H675 0.961 . S
C662 H676 0.961 . S
C663 C660 1.539 . S
C663 H677 0.958 . S
C663 H678 0.961 . S
C663 H679 0.960 . S
H664 C648 0.931 . S
H665 C653 0.929 . S
H666 C654 0.960 . S
H667 C654 0.962 . S
H668 C654 0.960 . S
H669 C655 0.961 . S
H670 C655 0.961 . S
H671 C655 0.961 . S
H672 C656 0.931 . S
H673 C661 0.930 . S
H674 C662 0.956 . S
H675 C662 0.961 . S
H676 C662 0.961 . S
H677 C663 0.958 . S
H678 C663 0.961 . S
H679 C663 0.960 . S
C680 C681 1.400 . S
C680 C682 1.390 1_455 S
C680 H696 0.925 1_455 S
C681 C680 1.400 . S
C681 C685 1.376 . S
C682 C680 1.390 1_655 S
C682 C683 1.369 1_655 S
C682 C686 1.531 . S
C683 C682 1.369 1_455 S
C683 C684 1.410 . S
C683 C691 1.503 1_455 S
C684 C683 1.410 . S
C684 C685 1.392 . S
C684 C687 1.511 . S
C685 C681 1.376 . S
C685 C684 1.392 . S
C685 H697 0.929 . S
C686 C682 1.531 . S
C686 H698 0.960 . S
C686 H699 0.962 . S
C686 H700 0.960 . S
C687 C684 1.511 . S
C687 H701 0.961 . S
C687 H702 0.961 . S
C687 H703 0.961 . S
C688 C689 1.370 . S
C688 C690 1.363 . S
C688 H704 0.931 . S
C689 C688 1.370 . S
C689 C693 1.408 . S
C690 C688 1.363 . S
C690 C691 1.370 . S
C690 C694 1.524 . S
C691 C683 1.503 1_655 S
C691 C690 1.370 . S
C691 C692 1.403 . S
C692 C691 1.403 . S
C692 C693 1.404 . S
C692 C695 1.539 . S
C693 C689 1.408 . S
C693 C692 1.404 . S
C693 H705 0.930 . S
C694 C690 1.524 . S
C694 H706 0.956 . S
C694 H707 0.961 1_655 S
C694 H708 0.961 . S
C695 C692 1.539 . S
C695 H709 0.958 . S
C695 H710 0.961 1_655 S
C695 H711 0.960 1_655 S
H696 C680 0.925 1_655 S
H697 C685 0.929 . S
H698 C686 0.960 . S
H699 C686 0.962 . S
H700 C686 0.960 . S
H701 C687 0.961 . S
H702 C687 0.961 . S
H703 C687 0.961 . S
H704 C688 0.931 . S
H705 C693 0.930 . S
H706 C694 0.956 . S
H707 C694 0.961 1_455 S
H708 C694 0.961 . S
H709 C695 0.958 . S
H710 C695 0.961 1_455 S
H711 C695 0.960 1_455 S
C712 C713 1.391 . S
C712 C714 1.394 1_565 S
C712 H728 0.931 . S
C713 C712 1.391 . S
C713 C717 1.376 . S
C714 C712 1.394 1_545 S
C714 C715 1.369 1_545 S
C714 C718 1.531 . S
C715 C714 1.369 1_565 S
C715 C716 1.410 . S
C715 C723 1.503 1_564 S
C716 C715 1.410 . S
C716 C717 1.392 . S
C716 C719 1.511 . S
C717 C713 1.376 . S
C717 C716 1.392 . S
C717 H729 0.929 . S
C718 C714 1.531 . S
C718 H730 0.960 . S
C718 H731 0.962 . S
C718 H732 0.960 . S
C719 C716 1.511 . S
C719 H733 0.961 . S
C719 H734 0.961 1_554 S
C719 H735 0.961 . S
C720 C721 1.370 . S
C720 C722 1.363 1_545 S
C720 H736 0.931 1_545 S
C721 C720 1.370 . S
C721 C725 1.408 . S
C722 C720 1.363 1_565 S
C722 C723 1.370 1_565 S
C722 C726 1.524 . S
C723 C715 1.503 1_546 S
C723 C722 1.370 1_545 S
C723 C724 1.403 . S
C724 C723 1.403 . S
C724 C725 1.404 . S
C724 C727 1.539 1_556 S
C725 C721 1.408 . S
C725 C724 1.404 . S
C725 H737 0.930 . S
C726 C722 1.524 . S
C726 H738 0.956 . S
C726 H739 0.961 . S
C726 H740 0.961 . S
C727 C724 1.539 1_554 S
C727 H741 0.958 . S
C727 H742 0.961 1_554 S
C727 H743 0.960 . S
H728 C712 0.931 . S
H729 C717 0.929 . S
H730 C718 0.960 . S
H731 C718 0.962 . S
H732 C718 0.960 . S
H733 C719 0.961 . S
H734 C719 0.961 1_556 S
H735 C719 0.961 . S
H736 C720 0.931 1_565 S
H737 C725 0.930 . S
H738 C726 0.956 . S
H739 C726 0.961 . S
H740 C726 0.961 . S
H741 C727 0.958 . S
H742 C727 0.961 1_556 S
H743 C727 0.960 . S
C744 C745 1.391 . S
C744 C746 1.394 . S
C744 H760 0.931 . S
C745 C744 1.391 . S
C745 C749 1.376 . S
C746 C744 1.394 . S
C746 C747 1.369 . S
C746 C750 1.531 . S
C747 C746 1.369 . S
C747 C748 1.410 . S
C747 C755 1.503 1_655 S
C748 C747 1.410 . S
C748 C749 1.392 . S
C748 C751 1.511 . S
C749 C745 1.376 . S
C749 C748 1.392 . S
C749 H761 0.929 . S
C750 C746 1.531 . S
C750 H762 0.960 1_655 S
C750 H763 0.962 . S
C750 H764 0.960 . S
C751 C748 1.511 . S
C751 H765 0.961 . S
C751 H766 0.961 . S
C751 H767 0.961 . S
C752 C753 1.370 . S
C752 C754 1.363 . S
C752 H768 0.931 . S
C753 C752 1.370 . S
C753 C757 1.408 . S
C754 C752 1.363 . S
C754 C755 1.370 . S
C754 C758 1.524 1_455 S
C755 C747 1.503 1_455 S
C755 C754 1.370 . S
C755 C756 1.403 . S
C756 C755 1.403 . S
C756 C757 1.404 . S
C756 C759 1.539 . S
C757 C753 1.408 . S
C757 C756 1.404 . S
C757 H769 0.930 . S
C758 C754 1.524 1_655 S
C758 H770 0.956 . S
C758 H771 0.961 . S
C758 H772 0.961 1_655 S
C759 C756 1.539 . S
C759 H773 0.958 . S
C759 H774 0.961 . S
C759 H775 0.960 . S
H760 C744 0.931 . S
H761 C749 0.929 . S
H762 C750 0.960 1_455 S
H763 C750 0.962 . S
H764 C750 0.960 . S
H765 C751 0.961 . S
H766 C751 0.961 . S
H767 C751 0.961 . S
H768 C752 0.931 . S
H769 C757 0.930 . S
H770 C758 0.956 . S
H771 C758 0.961 . S
H772 C758 0.961 1_455 S
H773 C759 0.958 . S
H774 C759 0.961 . S
H775 C759 0.960 . S
C776 C777 1.391 . S
C776 C778 1.394 . S
C776 H792 0.931 . S
C777 C776 1.391 . S
C777 C781 1.376 . S
C778 C776 1.394 . S
C778 C779 1.369 . S
C778 C782 1.531 . S
C779 C778 1.369 . S
C779 C780 1.410 . S
C779 C787 1.503 1_545 S
C780 C779 1.410 . S
C780 C781 1.392 . S
C780 C783 1.532 . S
C781 C777 1.376 . S
C781 C780 1.392 . S
C781 H793 0.929 . S
C782 C778 1.531 . S
C782 H794 0.960 . S
C782 H795 0.962 . S
C782 H796 0.960 . S
C783 C780 1.532 . S
C783 H797 0.965 . S
C783 H798 0.948 1_545 S
C783 H799 0.954 . S
C784 C785 1.370 . S
C784 C786 1.363 . S
C784 H800 0.931 . S
C785 C784 1.370 . S
C785 C789 1.408 . S
C786 C784 1.363 . S
C786 C787 1.370 . S
C786 C790 1.524 . S
C787 C779 1.503 1_565 S
C787 C786 1.370 . S
C787 C788 1.403 . S
C788 C787 1.403 . S
C788 C789 1.404 . S
C788 C791 1.539 . S
C789 C785 1.408 . S
C789 C788 1.404 . S
C789 H801 0.930 . S
C790 C786 1.524 . S
C790 H802 0.956 . S
C790 H803 0.961 . S
C790 H804 0.961 . S
C791 C788 1.539 . S
C791 H805 0.958 1_565 S
C791 H806 0.961 . S
C791 H807 0.960 1_565 S
H792 C776 0.931 . S
H793 C781 0.929 . S
H794 C782 0.960 . S
H795 C782 0.962 . S
H796 C782 0.960 . S
H797 C783 0.965 . S
H798 C783 0.948 1_565 S
H799 C783 0.954 . S
H800 C784 0.931 . S
H801 C789 0.930 . S
H802 C790 0.956 . S
H803 C790 0.961 . S
H804 C790 0.961 . S
H805 C791 0.958 1_545 S
H806 C791 0.961 . S
H807 C791 0.960 1_545 S
C808 C809 1.391 . S
C808 C810 1.394 . S
C808 H824 0.931 . S
C809 C808 1.391 . S
C809 C813 1.376 . S
C810 C808 1.394 . S
C810 C811 1.369 . S
C810 C814 1.531 . S
C811 C810 1.369 . S
C811 C812 1.410 . S
C811 C819 1.503 . S
C812 C811 1.410 . S
C812 C813 1.392 . S
C812 C815 1.511 . S
C813 C809 1.376 . S
C813 C812 1.392 . S
C813 H825 0.929 . S
C814 C810 1.531 . S
C814 H826 0.960 . S
C814 H827 0.962 . S
C814 H828 0.960 . S
C815 C812 1.511 . S
C815 H829 0.961 . S
C815 H830 0.961 . S
C815 H831 0.961 . S
C816 C817 1.370 . S
C816 C818 1.363 . S
C816 H832 0.931 . S
C817 C816 1.370 . S
C817 C821 1.408 . S
C818 C816 1.363 . S
C818 C819 1.370 . S
C818 C822 1.524 . S
C819 C811 1.503 . S
C819 C818 1.370 . S
C819 C820 1.403 . S
C820 C819 1.403 . S
C820 C821 1.404 . S
C820 C823 1.539 . S
C821 C817 1.408 . S
C821 C820 1.404 . S
C821 H833 0.930 . S
C822 C818 1.524 . S
C822 H834 0.956 . S
C822 H835 0.961 . S
C822 H836 0.961 . S
C823 C820 1.539 . S
C823 H837 0.958 . S
C823 H838 0.961 . S
C823 H839 0.960 . S
H824 C808 0.931 . S
H825 C813 0.929 . S
H826 C814 0.960 . S
H827 C814 0.962 . S
H828 C814 0.960 . S
H829 C815 0.961 . S
H830 C815 0.961 . S
H831 C815 0.961 . S
H832 C816 0.931 . S
H833 C821 0.930 . S
H834 C822 0.956 . S
H835 C822 0.961 . S
H836 C822 0.961 . S
H837 C823 0.958 . S
H838 C823 0.961 . S
H839 C823 0.960 . S
C840 C841 1.391 . S
C840 C842 1.394 . S
C840 H856 0.931 . S
C841 C840 1.391 . S
C841 C845 1.376 . S
C842 C840 1.394 . S
C842 C843 1.369 . S
C842 C846 1.531 1_655 S
C843 C842 1.369 . S
C843 C844 1.410 . S
C843 C851 1.503 1_655 S
C844 C843 1.410 . S
C844 C845 1.392 . S
C844 C847 1.511 . S
C845 C841 1.376 . S
C845 C844 1.392 . S
C845 H857 0.929 . S
C846 C842 1.531 1_455 S
C846 H858 0.960 . S
C846 H859 0.962 . S
C846 H860 0.960 1_455 S
C847 C844 1.511 . S
C847 H861 0.961 . S
C847 H862 0.961 . S
C847 H863 0.961 . S
C848 C849 1.370 . S
C848 C850 1.363 . S
C848 H864 0.931 . S
C849 C848 1.370 . S
C849 C853 1.408 . S
C850 C848 1.363 . S
C850 C851 1.370 . S
C850 C854 1.524 . S
C851 C843 1.503 1_455 S
C851 C850 1.370 . S
C851 C852 1.403 . S
C852 C851 1.403 . S
C852 C853 1.404 . S
C852 C855 1.539 . S
C853 C849 1.408 . S
C853 C852 1.404 . S
C853 H865 0.930 . S
C854 C850 1.524 . S
C854 H866 0.956 . S
C854 H867 0.961 1_455 S
C854 H868 0.961 . S
C855 C852 1.539 . S
C855 H869 0.958 . S
C855 H870 0.961 . S
C855 H871 0.960 1_455 S
H856 C840 0.931 . S
H857 C845 0.929 . S
H858 C846 0.960 . S
H859 C846 0.962 . S
H860 C846 0.960 1_655 S
H861 C847 0.961 . S
H862 C847 0.961 . S
H863 C847 0.961 . S
H864 C848 0.931 . S
H865 C853 0.930 . S
H866 C854 0.956 . S
H867 C854 0.961 1_655 S
H868 C854 0.961 . S
H869 C855 0.958 . S
H870 C855 0.961 . S
H871 C855 0.960 1_655 S
C872 C873 1.391 . S
C872 C874 1.394 . S
C872 H888 0.931 . S
C873 C872 1.391 . S
C873 C877 1.376 . S
C874 C872 1.394 . S
C874 C875 1.369 . S
C874 C878 1.531 . S
C875 C874 1.369 . S
C875 C876 1.410 . S
C875 C883 1.503 1_565 S
C876 C875 1.410 . S
C876 C877 1.392 . S
C876 C879 1.507 1_565 S
C877 C873 1.376 . S
C877 C876 1.392 . S
C877 H889 0.929 . S
C878 C874 1.531 . S
C878 H890 0.960 . S
C878 H891 0.962 . S
C878 H892 0.960 . S
C879 C876 1.507 1_545 S
C879 H893 0.949 1_545 S
C879 H894 0.968 . S
C879 H895 0.969 . S
C880 C881 1.370 . S
C880 C882 1.363 . S
C880 H896 0.931 . S
C881 C880 1.370 . S
C881 C885 1.408 . S
C882 C880 1.363 . S
C882 C883 1.370 . S
C882 C886 1.524 1_545 S
C883 C875 1.503 1_545 S
C883 C882 1.370 . S
C883 C884 1.403 . S
C884 C883 1.403 . S
C884 C885 1.404 . S
C884 C887 1.539 . S
C885 C881 1.408 . S
C885 C884 1.404 . S
C885 H897 0.930 . S
C886 C882 1.524 1_565 S
C886 H898 0.956 . S
C886 H899 0.961 . S
C886 H900 0.961 1_565 S
C887 C884 1.539 . S
C887 H901 0.958 . S
C887 H902 0.961 . S
C887 H903 0.960 . S
H888 C872 0.931 . S
H889 C877 0.929 . S
H890 C878 0.960 . S
H891 C878 0.962 . S
H892 C878 0.960 . S
H893 C879 0.949 1_565 S
H894 C879 0.968 . S
H895 C879 0.969 . S
H896 C880 0.931 . S
H897 C885 0.930 . S
H898 C886 0.956 . S
H899 C886 0.961 . S
H900 C886 0.961 1_545 S
H901 C887 0.958 . S
H902 C887 0.961 . S
H903 C887 0.960 . S
C904 C905 1.391 . S
C904 C906 1.394 . S
C904 H920 0.931 . S
C905 C904 1.391 . S
C905 C909 1.376 . S
C906 C904 1.394 . S
C906 C907 1.369 . S
C906 C910 1.531 . S
C907 C906 1.369 . S
C907 C908 1.410 . S
C907 C915 1.503 . S
C908 C907 1.410 . S
C908 C909 1.392 . S
C908 C911 1.511 . S
C909 C905 1.376 . S
C909 C908 1.392 . S
C909 H921 0.929 . S
C910 C906 1.531 . S
C910 H922 0.960 . S
C910 H923 0.962 . S
C910 H924 0.960 . S
C911 C908 1.511 . S
C911 H925 0.961 . S
C911 H926 0.961 . S
C911 H927 0.961 . S
C912 C913 1.370 . S
C912 C914 1.363 . S
C912 H928 0.931 . S
C913 C912 1.370 . S
C913 C917 1.408 . S
C914 C912 1.363 . S
C914 C915 1.370 . S
C914 C918 1.524 . S
C915 C907 1.503 . S
C915 C914 1.370 . S
C915 C916 1.403 . S
C916 C915 1.403 . S
C916 C917 1.404 . S
C916 C919 1.539 . S
C917 C913 1.408 . S
C917 C916 1.404 . S
C917 H929 0.930 . S
C918 C914 1.524 . S
C918 H930 0.956 . S
C918 H931 0.961 . S
C918 H932 0.961 . S
C919 C916 1.539 . S
C919 H933 0.958 . S
C919 H934 0.961 . S
C919 H935 0.960 . S
H920 C904 0.931 . S
H921 C909 0.929 . S
H922 C910 0.960 . S
H923 C910 0.962 . S
H924 C910 0.960 . S
H925 C911 0.961 . S
H926 C911 0.961 . S
H927 C911 0.961 . S
H928 C912 0.931 . S
H929 C917 0.930 . S
H930 C918 0.956 . S
H931 C918 0.961 . S
H932 C918 0.961 . S
H933 C919 0.958 . S
H934 C919 0.961 . S
H935 C919 0.960 . S
C169 C112 2.156 . S
C177 C1 2.179 . S
C201 C27 2.178 . S
C209 C126 2.172 . S
C233 C29 2.178 . S
C241 C141 2.182 . S
C265 C43 2.194 . S
C273 C154 2.178 . S
C297 C84 2.186 . S
C305 C57 2.167 . S
C329 C71 2.147 . S
C337 C99 2.184 . S
C361 C55 1.463 . S
C369 C13 1.462 . S
C393 C69 1.463 . S
C401 C15 1.468 . S
C425 C83 1.458 . S
C433 C41 1.461 . S
C457 C96 1.458 . S
C465 C138 1.462 . S
C489 C111 1.466 . S
C497 C153 1.468 . S
C521 C124 1.459 . S
C529 C166 1.467 . S
C553 C0 1.862 . S
C561 C127 1.873 . S
C585 C26 1.877 . S
C593 C140 1.858 . S
C617 C28 1.854 . S
C625 C155 1.875 . S
C649 C85 1.852 . S
C657 C42 1.864 . S
C681 C56 1.850 . S
C689 C98 1.866 . S
C713 C113 1.873 . S
C721 C70 1.858 . S
C745 C167 1.440 . S
C753 C12 1.424 . S
C777 C14 1.413 . S
C785 C97 1.428 . S
C809 C110 1.437 . S
C817 C40 1.422 . S
C841 C54 1.427 . S
C849 C125 1.432 . S
C873 C68 1.432 . S
C881 C139 1.421 . S
C905 C152 1.432 . S
C913 C82 1.431 . S
