# Generated by pormake.
# Topology smn, (6)-cn, num edge types: 1
# Building blocks:
#     Node 0, Type 0, BuildingBlock: OJICUG_clean_sbu_0, # of connection points: 6
#     Node 1, Type 0, BuildingBlock: OJICUG_clean_sbu_0, # of connection points: 6
#     Node 2, Type 0, BuildingBlock: OJICUG_clean_sbu_0, # of connection points: 6
#     Node 3, Type 0, BuildingBlock: OJICUG_clean_sbu_0, # of connection points: 6
#     Node 4, Type 0, BuildingBlock: OJICUG_clean_sbu_0, # of connection points: 6
#     Node 5, Type 0, BuildingBlock: OJICUG_clean_sbu_0, # of connection points: 6
#     Node 6, Type 0, BuildingBlock: OJICUG_clean_sbu_0, # of connection points: 6
#     Node 7, Type 0, BuildingBlock: OJICUG_clean_sbu_0, # of connection points: 6
#     Node 8, Type 0, BuildingBlock: OJICUG_clean_sbu_0, # of connection points: 6
#     Node 9, Type 0, BuildingBlock: OJICUG_clean_sbu_0, # of connection points: 6
#     Node 10, Type 0, BuildingBlock: OJICUG_clean_sbu_0, # of connection points: 6
#     Node 11, Type 0, BuildingBlock: OJICUG_clean_sbu_0, # of connection points: 6
#     Node 12, Type 0, BuildingBlock: OJICUG_clean_sbu_0, # of connection points: 6
#     Node 13, Type 0, BuildingBlock: OJICUG_clean_sbu_0, # of connection points: 6
#     Node 14, Type 0, BuildingBlock: OJICUG_clean_sbu_0, # of connection points: 6
#     Node 15, Type 0, BuildingBlock: OJICUG_clean_sbu_0, # of connection points: 6
#     Node 16, Type 0, BuildingBlock: OJICUG_clean_sbu_0, # of connection points: 6
#     Node 17, Type 0, BuildingBlock: OJICUG_clean_sbu_0, # of connection points: 6
#     Edge 18, Type (0, 0), None
#     Edge 19, Type (0, 0), None
#     Edge 20, Type (0, 0), None
#     Edge 21, Type (0, 0), None
#     Edge 22, Type (0, 0), None
#     Edge 23, Type (0, 0), None
#     Edge 24, Type (0, 0), None
#     Edge 25, Type (0, 0), None
#     Edge 26, Type (0, 0), None
#     Edge 27, Type (0, 0), None
#     Edge 28, Type (0, 0), None
#     Edge 29, Type (0, 0), None
#     Edge 30, Type (0, 0), None
#     Edge 31, Type (0, 0), None
#     Edge 32, Type (0, 0), None
#     Edge 33, Type (0, 0), None
#     Edge 34, Type (0, 0), None
#     Edge 35, Type (0, 0), None
#     Edge 36, Type (0, 0), None
#     Edge 37, Type (0, 0), None
#     Edge 38, Type (0, 0), None
#     Edge 39, Type (0, 0), None
#     Edge 40, Type (0, 0), None
#     Edge 41, Type (0, 0), None
#     Edge 42, Type (0, 0), None
#     Edge 43, Type (0, 0), None
#     Edge 44, Type (0, 0), None
#     Edge 45, Type (0, 0), None
#     Edge 46, Type (0, 0), None
#     Edge 47, Type (0, 0), None
#     Edge 48, Type (0, 0), None
#     Edge 49, Type (0, 0), None
#     Edge 50, Type (0, 0), None
#     Edge 51, Type (0, 0), None
#     Edge 52, Type (0, 0), None
#     Edge 53, Type (0, 0), None
#     Edge 54, Type (0, 0), None
#     Edge 55, Type (0, 0), None
#     Edge 56, Type (0, 0), None
#     Edge 57, Type (0, 0), None
#     Edge 58, Type (0, 0), None
#     Edge 59, Type (0, 0), None
#     Edge 60, Type (0, 0), None
#     Edge 61, Type (0, 0), None
#     Edge 62, Type (0, 0), None
#     Edge 63, Type (0, 0), None
#     Edge 64, Type (0, 0), None
#     Edge 65, Type (0, 0), None
#     Edge 66, Type (0, 0), None
#     Edge 67, Type (0, 0), None
#     Edge 68, Type (0, 0), None
#     Edge 69, Type (0, 0), None
#     Edge 70, Type (0, 0), None
#     Edge 71, Type (0, 0), None
# Relax obj value: 0.148
# Max RMSD: 0.236
# Mean RMSD: 0.236
data_MOF--net-smn--node1-OJICUG_clean_sbu_0--edge1-none
_symmetry_space_group_name_H-M    P1
_symmetry_Int_Tables_number       1
_symmetry_cell_setting            triclinic
loop_
_symmetry_equiv_pos_as_xyz
'x, y, z'
_cell_length_a     30.246018
_cell_length_b     30.244265
_cell_length_c     9.1086985
_cell_angle_alpha  89.995395
_cell_angle_beta   90.007305
_cell_angle_gamma 120.00533
loop_
_atom_site_label
_atom_site_type_symbol
_atom_site_fract_x
_atom_site_fract_y
_atom_site_fract_z
_atom_type_partial_charge
Sc0 Sc 0.05628 0.15575 0.73554 0.0
Sc1 Sc 0.09878 0.2725 0.88855 0.0
Sc2 Sc 1.01766 0.23376 0.58671 0.0
O3 O 0.0578 0.222 0.73633 0.0
C4 C 0.09992 0.20853 0.44231 0.0
C5 C 0.15918 0.21508 0.8784 0.0
C6 C 0.12098 0.34275 0.60296 0.0
C7 C 1.0135 0.16589 0.02892 0.0
C8 C 0.95403 0.11539 0.59192 0.0
C9 C 0.99665 0.27907 0.87922 0.0
O10 O 0.1056 0.18654 0.5549 0.0
O11 O 0.16327 0.25864 0.86393 0.0
O12 O 0.07688 0.31186 0.55216 0.0
O13 O 1.00671 0.13828 0.9155 0.0
O14 O 0.9515 0.15575 0.6066 0.0
O15 O 1.0408 0.29194 0.92805 0.0
O16 O 0.99683 0.11866 0.58359 0.0
O17 O 0.05368 0.21018 0.04976 0.0
O18 O 0.98038 0.25675 0.75475 0.0
O19 O 0.11572 0.17634 0.88698 0.0
O20 O 0.06168 0.216 0.42351 0.0
O21 O 0.13719 0.33468 0.72493 0.0
Sc22 Sc 0.82061 0.84799 0.88854 0.0
Sc23 Sc 0.85933 0.80559 0.58675 0.0
Sc24 Sc 0.93735 0.92225 0.73548 0.0
O25 O 0.8711 0.85751 0.73633 0.0
C26 C 0.87801 0.96584 0.87831 0.0
C27 C 0.75035 0.79992 0.60299 0.0
C28 C 0.88456 0.91308 0.44222 0.0
C29 C 0.81403 0.73928 0.87928 0.0
C30 C 0.92721 0.86934 0.02894 0.0
C31 C 0.9777 0.86033 0.59195 0.0
O32 O 0.83446 0.92634 0.86389 0.0
O33 O 0.78123 0.7867 0.55221 0.0
O34 O 0.90657 0.94077 0.55477 0.0
O35 O 0.80116 0.77056 0.92809 0.0
O36 O 0.95482 0.89018 0.91554 0.0
O37 O 0.93733 0.81745 0.60663 0.0
O38 O 0.88292 0.86523 0.04976 0.0
O39 O 0.83635 0.74533 0.75482 0.0
O40 O 0.97446 0.89988 0.58368 0.0
O41 O 0.75843 0.82421 0.72493 0.0
O42 O 0.91677 0.96114 0.88678 0.0
O43 O 0.87709 0.86737 0.42348 0.0
Sc44 Sc 0.17084 0.03675 0.73538 0.0
Sc45 Sc 0.24507 0.99426 0.8885 0.0
Sc46 Sc 0.28748 0.07539 0.5867 0.0
O47 O 0.23557 0.03524 0.73627 0.0
C48 C 0.18 0.99311 0.4422 0.0
C49 C 0.12723 0.93383 0.8783 0.0
C50 C 0.29314 0.97207 0.60296 0.0
C51 C 0.22373 0.07953 0.02884 0.0
C52 C 0.23274 0.13901 0.59185 0.0
C53 C 0.35378 0.0964 0.87925 0.0
O54 O 0.15232 0.98743 0.55475 0.0
O55 O 0.16672 0.92976 0.86385 0.0
O56 O 0.30636 1.01618 0.55217 0.0
O57 O 0.2029 0.08631 0.91539 0.0
O58 O 0.27563 0.14155 0.60658 0.0
O59 O 0.3225 0.05225 0.92806 0.0
O60 O 0.19321 0.0962 0.58346 0.0
O61 O 0.22785 0.03936 0.04968 0.0
O62 O 0.34774 0.11267 0.75478 0.0
O63 O 0.13196 0.97729 0.88677 0.0
O64 O 0.2257 1.03137 0.42344 0.0
O65 O 0.26885 0.95586 0.7249 0.0
Sc66 Sc 0.05297 0.90691 0.23649 0.0
Sc67 Sc 1.01449 0.78868 0.08556 0.0
Sc68 Sc 0.08955 0.82564 0.38794 0.0
O69 O 0.05226 0.84049 0.23669 0.0
C70 C 0.15909 0.94822 0.34626 0.0
C71 C 0.07849 0.89177 0.93118 0.0
C72 C 0.11478 0.78402 0.10997 0.0
C73 C 0.94677 0.84412 0.12585 0.0
C74 C 1.02618 0.86575 0.54043 0.0
C75 C 0.98901 0.72116 0.36327 0.0
O76 O 0.13486 0.94875 0.23349 0.0
O77 O 0.06894 0.84572 0.93315 0.0
O78 O 0.13562 0.81645 0.21499 0.0
O79 O 0.97112 0.86843 0.23903 0.0
O80 O 1.03499 0.82874 0.53961 0.0
O81 O 0.96856 0.73327 0.25818 0.0
O82 O 0.05517 0.90639 0.47069 0.0
O83 O 0.95985 0.81557 0.05663 0.0
O84 O 1.03703 0.7451 0.38316 0.0
O85 O 0.05064 0.90456 0.00222 0.0
O86 O 0.14491 0.90664 0.41666 0.0
O87 O 0.06665 0.76031 0.09125 0.0
Sc88 Sc 0.30433 0.24748 0.08555 0.0
Sc89 Sc 0.26739 0.28557 0.38794 0.0
Sc90 Sc 0.18612 0.16769 0.23649 0.0
O91 O 0.25253 0.23342 0.23669 0.0
C92 C 0.20125 0.20839 0.9312 0.0
C93 C 0.30899 0.35244 0.10998 0.0
C94 C 0.14481 0.2325 0.34634 0.0
C95 C 0.37185 0.28952 0.36327 0.0
C96 C 0.24892 0.1243 0.12578 0.0
C97 C 0.2273 0.18207 0.54041 0.0
O98 O 0.24729 0.24489 0.93316 0.0
O99 O 0.27656 0.34083 0.21499 0.0
O100 O 0.14426 0.20773 0.23358 0.0
O101 O 0.35975 0.25696 0.25818 0.0
O102 O 0.22459 0.12432 0.23896 0.0
O103 O 0.2643 0.2279 0.5396 0.0
O104 O 0.27746 0.16595 0.0566 0.0
O105 O 0.34792 0.3136 0.38313 0.0
O106 O 0.18666 0.17042 0.4707 0.0
O107 O 0.3327 0.32802 0.09126 0.0
O108 O 0.18846 0.16773 0.00223 0.0
O109 O 0.18639 0.25991 0.41671 0.0
Sc110 Sc 0.92535 0.04012 0.23651 0.0
Sc111 Sc 0.84555 0.07853 0.08558 0.0
Sc112 Sc 0.80748 1.00347 0.38795 0.0
O113 O 0.85962 0.04079 0.23671 0.0
C114 C 0.86056 0.93398 0.34628 0.0
C115 C 0.88467 1.01458 0.93119 0.0
C116 C 0.7406 0.97821 0.11001 0.0
C117 C 0.96872 0.14632 0.12585 0.0
C118 C 0.91097 0.06689 0.54044 0.0
C119 C 0.80351 0.10398 0.36332 0.0
O120 O 0.88533 0.95822 0.23353 0.0
O121 O 0.84817 1.0241 0.93318 0.0
O122 O 0.75221 0.95738 0.21501 0.0
O123 O 0.96871 0.12198 0.23904 0.0
O124 O 0.86514 0.05805 0.53963 0.0
O125 O 0.83606 0.12445 0.25822 0.0
O126 O 0.92263 0.03791 0.47071 0.0
O127 O 0.92708 0.13322 0.05665 0.0
O128 O 0.77944 0.05596 0.38319 0.0
O129 O 0.92532 0.04244 0.00225 0.0
O130 O 0.83315 0.94814 0.41667 0.0
O131 O 0.76502 1.02634 0.09126 0.0
Sc132 Sc 0.72339 0.50294 0.07592 0.0
Sc133 Sc 0.7619 0.62116 0.22684 0.0
Sc134 Sc 0.68683 0.58421 0.92446 0.0
O135 O 0.72412 0.56936 0.07571 0.0
C136 C 0.75019 0.54408 0.77192 0.0
C137 C 0.82959 0.56566 0.18657 0.0
C138 C 0.78739 0.6886 0.94902 0.0
C139 C 0.69786 0.51809 0.38126 0.0
C140 C 0.61727 0.46162 0.9661 0.0
C141 C 0.6616 0.6258 0.20246 0.0
O142 O 0.7212 0.50345 0.8417 0.0
O143 O 0.81652 0.59422 0.25575 0.0
O144 O 0.73936 0.66473 0.92931 0.0
O145 O 0.7257 0.50528 0.3102 0.0
O146 O 0.63147 0.5032 0.89574 0.0
O147 O 0.70974 0.64954 0.22108 0.0
O148 O 0.64149 0.46114 0.07897 0.0
O149 O 0.70744 0.56415 0.37925 0.0
O150 O 0.64077 0.59338 0.09741 0.0
O151 O 0.80524 0.54143 0.07329 0.0
O152 O 0.74139 0.5811 0.77279 0.0
O153 O 0.80785 0.67655 0.05421 0.0
Sc154 Sc 0.5901 0.24213 0.07592 0.0
Sc155 Sc 0.4719 0.16239 0.22684 0.0
Sc156 Sc 0.50884 0.12429 0.92446 0.0
O157 O 0.52369 0.17643 0.07571 0.0
C158 C 0.54894 0.22778 0.77193 0.0
C159 C 0.52737 0.28559 0.18662 0.0
C160 C 0.40446 0.12044 0.94901 0.0
C161 C 0.57496 0.20142 0.38124 0.0
C162 C 0.63143 0.17735 0.96603 0.0
C163 C 0.46727 0.05745 0.20245 0.0
O164 O 0.58957 0.23943 0.84169 0.0
O165 O 0.49881 0.24394 0.25578 0.0
O166 O 0.42832 0.09628 0.92933 0.0
O167 O 0.58777 0.24208 0.3102 0.0
O168 O 0.58984 0.14995 0.8957 0.0
O169 O 0.44352 0.08184 0.22107 0.0
O170 O 0.63192 0.20205 0.07889 0.0
O171 O 0.52891 0.16494 0.37925 0.0
O172 O 0.49968 0.06904 0.0974 0.0
O173 O 0.55161 0.28549 0.07336 0.0
O174 O 0.51193 0.18196 0.77279 0.0
O175 O 0.41651 0.15295 0.0542 0.0
Sc176 Sc 0.85089 0.3696 0.07591 0.0
Sc177 Sc 0.93065 0.33115 0.22682 0.0
Sc178 Sc 0.96873 0.40622 0.92446 0.0
O179 O 0.91661 0.36891 0.07571 0.0
C180 C 0.86524 0.34282 0.77191 0.0
C181 C 0.80746 0.2634 0.18656 0.0
C182 C 0.9726 0.30569 0.94897 0.0
C183 C 0.89159 0.39515 0.38126 0.0
C184 C 0.91566 0.47573 0.9661 0.0
C185 C 1.03559 0.43149 0.20243 0.0
O186 O 0.8536 0.3718 0.84169 0.0
O187 O 0.8491 0.27649 0.25574 0.0
O188 O 0.99675 0.35372 0.92929 0.0
O189 O 0.85094 0.36729 0.31019 0.0
O190 O 0.94306 0.46155 0.89575 0.0
O191 O 1.01119 0.38334 0.22109 0.0
O192 O 0.89096 0.4515 0.07896 0.0
O193 O 0.92808 0.38559 0.37924 0.0
O194 O 1.02398 0.4523 0.0974 0.0
O195 O 0.80756 0.28774 0.07329 0.0
O196 O 0.91107 0.35165 0.77278 0.0
O197 O 0.9401 0.28522 0.05417 0.0
Sc198 Sc 0.67737 0.13722 0.42386 0.0
Sc199 Sc 0.75852 0.17595 0.72562 0.0
Sc200 Sc 0.71993 0.254 0.57681 0.0
O201 O 0.71838 0.18772 0.57604 0.0
C202 C 0.76269 0.24382 0.28348 0.0
C203 C 0.77948 0.13062 0.43308 0.0
C204 C 0.82218 0.29433 0.72034 0.0
C205 C 0.65519 0.06697 0.70946 0.0
C206 C 0.61702 0.1947 0.43406 0.0
C207 C 0.67631 0.20128 0.87007 0.0
O208 O 0.7225 0.19953 0.26264 0.0
O209 O 0.79578 0.15295 0.55754 0.0
O210 O 0.7794 0.29109 0.7287 0.0
O211 O 0.63895 0.07504 0.58754 0.0
O212 O 0.66048 0.23343 0.42541 0.0
O213 O 0.71451 0.19374 0.88883 0.0
O214 O 0.61291 0.15113 0.44846 0.0
O215 O 0.6993 0.09786 0.7602 0.0
O216 O 0.67064 0.22326 0.75747 0.0
O217 O 0.73532 0.11773 0.38432 0.0
O218 O 0.76948 0.27144 0.39687 0.0
O219 O 0.8247 0.25396 0.70574 0.0
Sc220 Sc 0.95575 0.56176 0.42387 0.0
Sc221 Sc 0.91703 0.6042 0.72558 0.0
Sc222 Sc 0.83897 0.48753 0.57687 0.0
O223 O 0.90525 0.55226 0.57605 0.0
C224 C 0.84915 0.54045 0.28346 0.0
C225 C 0.96236 0.67048 0.43302 0.0
C226 C 0.79865 0.54948 0.72031 0.0
C227 C 1.02601 0.60986 0.70942 0.0
C228 C 0.89828 0.4439 0.43416 0.0
C229 C 0.89171 0.49667 0.87016 0.0
O230 O 0.89344 0.54456 0.26264 0.0
O231 O 0.94003 0.66446 0.55746 0.0
O232 O 0.80186 0.50992 0.72862 0.0
O233 O 1.01793 0.58553 0.58754 0.0
O234 O 0.85954 0.44861 0.42562 0.0
O235 O 0.89925 0.54241 0.88886 0.0
O236 O 0.94185 0.48339 0.44851 0.0
O237 O 0.99512 0.62307 0.76015 0.0
O238 O 0.8697 0.46899 0.75761 0.0
O239 O 0.97524 0.63921 0.38428 0.0
O240 O 0.82153 0.51961 0.39683 0.0
O241 O 0.83903 0.59237 0.70571 0.0
Sc242 Sc 0.53125 0.41566 0.4239 0.0
Sc243 Sc 0.4888 0.3345 0.72562 0.0
Sc244 Sc 0.60546 0.37311 0.57695 0.0
O245 O 0.54074 0.37465 0.57609 0.0
C246 C 0.55255 0.33036 0.28355 0.0
C247 C 0.42253 0.31354 0.43304 0.0
C248 C 0.54352 0.27085 0.7204 0.0
C249 C 0.48316 0.43783 0.70945 0.0
C250 C 0.6491 0.47604 0.43416 0.0
C251 C 0.59633 0.41673 0.87016 0.0
O252 O 0.54843 0.37053 0.26271 0.0
O253 O 0.42854 0.29724 0.5575 0.0
O254 O 0.58306 0.31364 0.72882 0.0
O255 O 0.50748 0.45408 0.58756 0.0
O256 O 0.64436 0.43257 0.4256 0.0
O257 O 0.55059 0.37851 0.88889 0.0
O258 O 0.60963 0.48014 0.44853 0.0
O259 O 0.46994 0.39372 0.76017 0.0
O260 O 0.624 0.42241 0.75761 0.0
O261 O 0.4538 0.35771 0.38431 0.0
O262 O 0.57338 0.32357 0.39696 0.0
O263 O 0.50063 0.26833 0.70575 0.0
Sc264 Sc 0.38473 0.82468 0.40683 0.0
Sc265 Sc 0.4216 0.94329 0.55372 0.0
Sc266 Sc 0.34193 0.9018 0.26061 0.0
O267 O 0.38233 0.88927 0.40771 0.0
C268 C 0.41243 0.87149 0.09447 0.0
C269 C 0.49111 0.88985 0.5206 0.0
C270 C 0.44257 1.00677 0.27293 0.0
C271 C 0.35478 0.84182 0.71878 0.0
C272 C 0.27741 0.77812 0.29345 0.0
C273 C 0.31944 0.94671 0.53574 0.0
O274 O 0.39421 0.83035 0.17001 0.0
O275 O 0.47797 0.91826 0.58988 0.0
O276 O 0.39398 0.98274 0.26469 0.0
O277 O 0.37537 0.82101 0.64388 0.0
O278 O 0.28767 0.81948 0.22684 0.0
O279 O 0.36792 0.97102 0.54985 0.0
O280 O 0.30454 0.7778 0.39722 0.0
O281 O 0.36987 0.88926 0.71126 0.0
O282 O 0.29749 0.91139 0.43814 0.0
O283 O 0.46527 0.86246 0.4152 0.0
O284 O 0.39468 0.90162 0.10243 0.0
O285 O 0.46538 0.99592 0.3738 0.0
Sc286 Sc 0.14977 0.5 0.55365 0.0
Sc287 Sc 0.19124 0.46181 0.26058 0.0
Sc288 Sc 0.26835 0.58177 0.40669 0.0
O289 O 0.20378 0.51476 0.40762 0.0
C290 C 0.20317 0.62295 0.52051 0.0
C291 C 0.08627 0.45747 0.2729 0.0
C292 C 0.22153 0.56262 0.09431 0.0
C293 C 0.14635 0.39442 0.53573 0.0
C294 C 0.25125 0.53468 0.71865 0.0
C295 C 0.31493 0.52102 0.29338 0.0
O296 O 0.17478 0.5814 0.58981 0.0
O297 O 0.1103 0.43292 0.26463 0.0
O298 O 0.26265 0.58557 0.16988 0.0
O299 O 0.12204 0.41858 0.54981 0.0
O300 O 0.27204 0.57608 0.64374 0.0
O301 O 0.27356 0.48988 0.22684 0.0
O302 O 0.20381 0.50231 0.71117 0.0
O303 O 0.18166 0.40779 0.43815 0.0
O304 O 0.31526 0.5485 0.39704 0.0
O305 O 0.09713 0.49114 0.37375 0.0
O306 O 0.23056 0.62452 0.41509 0.0
O307 O 0.19142 0.51473 0.10232 0.0
Sc308 Sc 0.51134 0.70825 0.40676 0.0
Sc309 Sc 0.5931 0.67143 0.55372 0.0
Sc310 Sc 0.63128 0.75112 0.26065 0.0
O311 O 0.57834 0.71069 0.4077 0.0
C312 C 0.53048 0.68061 0.0944 0.0
C313 C 0.47016 0.60188 0.52048 0.0
C314 C 0.63563 0.65049 0.27297 0.0
C315 C 0.5584 0.7382 0.71875 0.0
C316 C 0.57208 0.81558 0.29354 0.0
C317 C 0.69867 0.77361 0.53578 0.0
O318 O 0.50756 0.69881 0.16993 0.0
O319 O 0.5117 0.61504 0.58984 0.0
O320 O 0.66018 0.69908 0.26472 0.0
O321 O 0.517 0.71757 0.64383 0.0
O322 O 0.60319 0.80535 0.22693 0.0
O323 O 0.67451 0.72513 0.54989 0.0
O324 O 0.54463 0.78844 0.39727 0.0
O325 O 0.59078 0.72316 0.71125 0.0
O326 O 0.68531 0.79556 0.43821 0.0
O327 O 0.46861 0.62769 0.415 0.0
O328 O 0.57837 0.69837 0.1024 0.0
O329 O 0.60196 0.62766 0.37381 0.0
Sc330 Sc 0.39153 0.58521 0.90561 0.0
Sc331 Sc 0.35468 0.4666 0.75871 0.0
Sc332 Sc 0.43435 0.50808 0.05181 0.0
O333 O 0.39395 0.52063 0.90472 0.0
C334 C 0.49889 0.63176 0.01906 0.0
C335 C 0.42154 0.56808 0.59358 0.0
C336 C 0.45684 0.46318 0.7767 0.0
C337 C 0.28512 0.51995 0.79175 0.0
C338 C 0.36379 0.53835 0.21803 0.0
C339 C 0.3337 0.40312 0.03949 0.0
O340 O 0.4717 0.63216 0.91561 0.0
O341 O 0.40642 0.52064 0.60118 0.0
O342 O 0.4788 0.4985 0.87429 0.0
O343 O 0.31099 0.54747 0.89691 0.0
O344 O 0.38159 0.50827 0.21 0.0
O345 O 0.31089 0.41396 0.93862 0.0
O346 O 0.3819 0.57946 0.14239 0.0
O347 O 0.29828 0.49157 0.72249 0.0
O348 O 0.38229 0.42715 0.04776 0.0
O349 O 0.40105 0.58897 0.66859 0.0
O350 O 0.48863 0.59039 0.08559 0.0
O351 O 0.40837 0.43888 0.76257 0.0
Sc352 Sc 0.62642 0.90972 0.75878 0.0
Sc353 Sc 0.58494 0.94789 0.05184 0.0
Sc354 Sc 0.50783 0.82791 0.90575 0.0
O355 O 0.5724 0.89494 0.90481 0.0
C356 C 0.52492 0.87506 0.59371 0.0
C357 C 0.62984 1.0153 0.77672 0.0
C358 C 0.46127 0.88872 0.01913 0.0
C359 C 0.68992 0.95223 0.03953 0.0
C360 C 0.5731 0.78679 0.79184 0.0
C361 C 0.5547 0.84708 0.21818 0.0
O362 O 0.57237 0.9074 0.60128 0.0
O363 O 0.59452 1.00192 0.87428 0.0
O364 O 0.46085 0.8611 0.91578 0.0
O365 O 0.67907 0.91857 0.93867 0.0
O366 O 0.54559 0.78513 0.89701 0.0
O367 O 0.58477 0.89497 0.21011 0.0
O368 O 0.60147 0.82835 0.72257 0.0
O369 O 0.66588 0.97678 0.04783 0.0
O370 O 0.51361 0.82404 0.14252 0.0
O371 O 0.65414 0.99113 0.76262 0.0
O372 O 0.50406 0.83367 0.66873 0.0
O373 O 0.50265 0.91987 0.08559 0.0
Sc374 Sc 0.18326 0.73836 0.7587 0.0
Sc375 Sc 0.14509 0.65868 0.05177 0.0
Sc376 Sc 0.26505 0.70157 0.90568 0.0
O377 O 0.19804 0.69911 0.90473 0.0
C378 C 0.21795 0.67156 0.59361 0.0
C379 C 0.07768 0.63618 0.77666 0.0
C380 C 0.20425 0.59418 0.01896 0.0
C381 C 0.14075 0.75931 0.03946 0.0
C382 C 0.30618 0.80797 0.79187 0.0
C383 C 0.2459 0.72925 0.2181 0.0
O384 O 0.18558 0.68663 0.60119 0.0
O385 O 0.09106 0.61422 0.87422 0.0
O386 O 0.23184 0.62139 0.91556 0.0
O387 O 0.17441 0.78214 0.93861 0.0
O388 O 0.30781 0.78212 0.89712 0.0
O389 O 0.19801 0.71144 0.21003 0.0
O390 O 0.26463 0.79478 0.72253 0.0
O391 O 0.1162 0.71073 0.04774 0.0
O392 O 0.26891 0.71116 0.14247 0.0
O393 O 0.10185 0.68465 0.76252 0.0
O394 O 0.25932 0.6921 0.66864 0.0
O395 O 0.17312 0.60442 0.0855 0.0
loop_
_geom_bond_atom_site_label_1
_geom_bond_atom_site_label_2
_geom_bond_distance
_geom_bond_site_symmetry_2
_ccdc_geom_bond_type
Sc0 O3 2.025 . S
Sc0 O10 2.105 . S
Sc0 O13 2.105 1_455 S
Sc0 O16 2.105 1_455 S
Sc0 O19 2.105 . S
Sc1 O3 2.025 . S
Sc1 O11 2.105 1_556 S
Sc1 O15 2.105 1_455 S
Sc1 O17 2.105 1_456 S
Sc1 O21 2.105 . S
Sc2 O3 2.025 1_655 S
Sc2 O12 2.105 1_655 S
Sc2 O14 2.105 . S
Sc2 O18 2.105 . S
Sc2 O20 2.105 1_655 S
O3 Sc0 2.025 . S
O3 Sc1 2.025 . S
O3 Sc2 2.025 1_455 S
C4 O10 1.268 . S
C4 O20 1.268 . S
C5 O11 1.268 1_556 S
C5 O19 1.268 . S
C6 O12 1.268 . S
C6 O21 1.268 . S
C7 O13 1.268 1_554 S
C7 O17 1.268 . S
C8 O14 1.268 . S
C8 O16 1.268 . S
C9 O15 1.268 . S
C9 O18 1.268 . S
O10 Sc0 2.105 . S
O10 C4 1.268 . S
O11 Sc1 2.105 1_554 S
O11 C5 1.268 1_554 S
O12 Sc2 2.105 1_455 S
O12 C6 1.268 . S
O13 Sc0 2.105 1_655 S
O13 C7 1.268 1_556 S
O14 Sc2 2.105 . S
O14 C8 1.268 . S
O15 Sc1 2.105 1_655 S
O15 C9 1.268 . S
O16 Sc0 2.105 1_655 S
O16 C8 1.268 . S
O17 Sc1 2.105 1_654 S
O17 C7 1.268 . S
O18 Sc2 2.105 . S
O18 C9 1.268 . S
O19 Sc0 2.105 . S
O19 C5 1.268 . S
O20 Sc2 2.105 1_455 S
O20 C4 1.268 . S
O21 Sc1 2.105 . S
O21 C6 1.268 . S
Sc22 O25 2.025 . S
Sc22 O32 2.105 1_556 S
Sc22 O35 2.105 . S
Sc22 O38 2.105 1_556 S
Sc22 O41 2.105 . S
Sc23 O25 2.025 . S
Sc23 O33 2.105 . S
Sc23 O37 2.105 . S
Sc23 O39 2.105 . S
Sc23 O43 2.105 . S
Sc24 O25 2.025 . S
Sc24 O34 2.105 . S
Sc24 O36 2.105 . S
Sc24 O40 2.105 . S
Sc24 O42 2.105 . S
O25 Sc22 2.025 . S
O25 Sc23 2.025 . S
O25 Sc24 2.025 . S
C26 O32 1.268 1_556 S
C26 O42 1.268 . S
C27 O33 1.268 . S
C27 O41 1.268 . S
C28 O34 1.268 . S
C28 O43 1.268 . S
C29 O35 1.268 . S
C29 O39 1.268 . S
C30 O36 1.268 1_554 S
C30 O38 1.268 . S
C31 O37 1.268 . S
C31 O40 1.268 . S
O32 Sc22 2.105 1_554 S
O32 C26 1.268 1_554 S
O33 Sc23 2.105 . S
O33 C27 1.268 . S
O34 Sc24 2.105 . S
O34 C28 1.268 . S
O35 Sc22 2.105 . S
O35 C29 1.268 . S
O36 Sc24 2.105 . S
O36 C30 1.268 1_556 S
O37 Sc23 2.105 . S
O37 C31 1.268 . S
O38 Sc22 2.105 1_554 S
O38 C30 1.268 . S
O39 Sc23 2.105 . S
O39 C29 1.268 . S
O40 Sc24 2.105 . S
O40 C31 1.268 . S
O41 Sc22 2.105 . S
O41 C27 1.268 . S
O42 Sc24 2.105 . S
O42 C26 1.268 . S
O43 Sc23 2.105 . S
O43 C28 1.268 . S
Sc44 O47 2.025 . S
Sc44 O54 2.105 1_545 S
Sc44 O57 2.105 . S
Sc44 O60 2.105 . S
Sc44 O63 2.105 1_545 S
Sc45 O47 2.025 1_565 S
Sc45 O55 2.105 1_556 S
Sc45 O59 2.105 1_565 S
Sc45 O61 2.105 1_566 S
Sc45 O65 2.105 . S
Sc46 O47 2.025 . S
Sc46 O56 2.105 1_545 S
Sc46 O58 2.105 . S
Sc46 O62 2.105 . S
Sc46 O64 2.105 1_545 S
O47 Sc44 2.025 . S
O47 Sc45 2.025 1_545 S
O47 Sc46 2.025 . S
C48 O54 1.268 . S
C48 O64 1.268 . S
C49 O55 1.268 1_556 S
C49 O63 1.268 . S
C50 O56 1.268 . S
C50 O65 1.268 . S
C51 O57 1.268 1_554 S
C51 O61 1.268 . S
C52 O58 1.268 . S
C52 O60 1.268 . S
C53 O59 1.268 . S
C53 O62 1.268 . S
O54 Sc44 2.105 1_565 S
O54 C48 1.268 . S
O55 Sc45 2.105 1_554 S
O55 C49 1.268 1_554 S
O56 Sc46 2.105 1_565 S
O56 C50 1.268 . S
O57 Sc44 2.105 . S
O57 C51 1.268 1_556 S
O58 Sc46 2.105 . S
O58 C52 1.268 . S
O59 Sc45 2.105 1_545 S
O59 C53 1.268 . S
O60 Sc44 2.105 . S
O60 C52 1.268 . S
O61 Sc45 2.105 1_544 S
O61 C51 1.268 . S
O62 Sc46 2.105 . S
O62 C53 1.268 . S
O63 Sc44 2.105 1_565 S
O63 C49 1.268 . S
O64 Sc46 2.105 1_565 S
O64 C48 1.268 . S
O65 Sc45 2.105 . S
O65 C50 1.268 . S
Sc66 O69 2.025 . S
Sc66 O76 2.105 . S
Sc66 O79 2.105 1_455 S
Sc66 O82 2.105 1_455 S
Sc66 O85 2.105 . S
Sc67 O69 2.025 1_655 S
Sc67 O77 2.105 1_654 S
Sc67 O81 2.105 . S
Sc67 O83 2.105 1_554 S
Sc67 O87 2.105 1_655 S
Sc68 O69 2.025 . S
Sc68 O78 2.105 . S
Sc68 O80 2.105 1_455 S
Sc68 O84 2.105 1_455 S
Sc68 O86 2.105 . S
O69 Sc66 2.025 . S
O69 Sc67 2.025 1_455 S
O69 Sc68 2.025 . S
C70 O76 1.268 . S
C70 O86 1.268 . S
C71 O77 1.268 . S
C71 O85 1.268 1_556 S
C72 O78 1.268 . S
C72 O87 1.268 . S
C73 O79 1.268 . S
C73 O83 1.268 1_554 S
C74 O80 1.268 . S
C74 O82 1.268 . S
C75 O81 1.268 . S
C75 O84 1.268 . S
O76 Sc66 2.105 . S
O76 C70 1.268 . S
O77 Sc67 2.105 1_456 S
O77 C71 1.268 . S
O78 Sc68 2.105 . S
O78 C72 1.268 . S
O79 Sc66 2.105 1_655 S
O79 C73 1.268 . S
O80 Sc68 2.105 1_655 S
O80 C74 1.268 . S
O81 Sc67 2.105 . S
O81 C75 1.268 . S
O82 Sc66 2.105 1_655 S
O82 C74 1.268 . S
O83 Sc67 2.105 1_556 S
O83 C73 1.268 1_556 S
O84 Sc68 2.105 1_655 S
O84 C75 1.268 . S
O85 Sc66 2.105 . S
O85 C71 1.268 1_554 S
O86 Sc68 2.105 . S
O86 C70 1.268 . S
O87 Sc67 2.105 1_455 S
O87 C72 1.268 . S
Sc88 O91 2.025 . S
Sc88 O98 2.105 1_554 S
Sc88 O101 2.105 . S
Sc88 O104 2.105 1_554 S
Sc88 O107 2.105 . S
Sc89 O91 2.025 . S
Sc89 O99 2.105 . S
Sc89 O103 2.105 . S
Sc89 O105 2.105 . S
Sc89 O109 2.105 . S
Sc90 O91 2.025 . S
Sc90 O100 2.105 . S
Sc90 O102 2.105 . S
Sc90 O106 2.105 . S
Sc90 O108 2.105 . S
O91 Sc88 2.025 . S
O91 Sc89 2.025 . S
O91 Sc90 2.025 . S
C92 O98 1.268 . S
C92 O108 1.268 1_556 S
C93 O99 1.268 . S
C93 O107 1.268 . S
C94 O100 1.268 . S
C94 O109 1.268 . S
C95 O101 1.268 . S
C95 O105 1.268 . S
C96 O102 1.268 . S
C96 O104 1.268 1_554 S
C97 O103 1.268 . S
C97 O106 1.268 . S
O98 Sc88 2.105 1_556 S
O98 C92 1.268 . S
O99 Sc89 2.105 . S
O99 C93 1.268 . S
O100 Sc90 2.105 . S
O100 C94 1.268 . S
O101 Sc88 2.105 . S
O101 C95 1.268 . S
O102 Sc90 2.105 . S
O102 C96 1.268 . S
O103 Sc89 2.105 . S
O103 C97 1.268 . S
O104 Sc88 2.105 1_556 S
O104 C96 1.268 1_556 S
O105 Sc89 2.105 . S
O105 C95 1.268 . S
O106 Sc90 2.105 . S
O106 C97 1.268 . S
O107 Sc88 2.105 . S
O107 C93 1.268 . S
O108 Sc90 2.105 . S
O108 C92 1.268 1_554 S
O109 Sc89 2.105 . S
O109 C94 1.268 . S
Sc110 O113 2.025 . S
Sc110 O120 2.105 1_545 S
Sc110 O123 2.105 . S
Sc110 O126 2.105 . S
Sc110 O129 2.105 1_545 S
Sc111 O113 2.025 . S
Sc111 O121 2.105 1_544 S
Sc111 O125 2.105 . S
Sc111 O127 2.105 1_554 S
Sc111 O131 2.105 1_545 S
Sc112 O113 2.025 1_565 S
Sc112 O122 2.105 . S
Sc112 O124 2.105 1_565 S
Sc112 O128 2.105 1_565 S
Sc112 O130 2.105 . S
O113 Sc110 2.025 . S
O113 Sc111 2.025 . S
O113 Sc112 2.025 1_545 S
C114 O120 1.268 . S
C114 O130 1.268 . S
C115 O121 1.268 . S
C115 O129 1.268 1_556 S
C116 O122 1.268 . S
C116 O131 1.268 . S
C117 O123 1.268 . S
C117 O127 1.268 1_554 S
C118 O124 1.268 . S
C118 O126 1.268 . S
C119 O125 1.268 . S
C119 O128 1.268 . S
O120 Sc110 2.105 1_565 S
O120 C114 1.268 . S
O121 Sc111 2.105 1_566 S
O121 C115 1.268 . S
O122 Sc112 2.105 . S
O122 C116 1.268 . S
O123 Sc110 2.105 . S
O123 C117 1.268 . S
O124 Sc112 2.105 1_545 S
O124 C118 1.268 . S
O125 Sc111 2.105 . S
O125 C119 1.268 . S
O126 Sc110 2.105 . S
O126 C118 1.268 . S
O127 Sc111 2.105 1_556 S
O127 C117 1.268 1_556 S
O128 Sc112 2.105 1_545 S
O128 C119 1.268 . S
O129 Sc110 2.105 1_565 S
O129 C115 1.268 1_554 S
O130 Sc112 2.105 . S
O130 C114 1.268 . S
O131 Sc111 2.105 1_565 S
O131 C116 1.268 . S
Sc132 O135 2.025 . S
Sc132 O142 2.105 1_554 S
Sc132 O145 2.105 . S
Sc132 O148 2.105 1_554 S
Sc132 O151 2.105 . S
Sc133 O135 2.025 . S
Sc133 O143 2.105 . S
Sc133 O147 2.105 . S
Sc133 O149 2.105 . S
Sc133 O153 2.105 . S
Sc134 O135 2.025 1_556 S
Sc134 O144 2.105 . S
Sc134 O146 2.105 . S
Sc134 O150 2.105 . S
Sc134 O152 2.105 . S
O135 Sc132 2.025 . S
O135 Sc133 2.025 . S
O135 Sc134 2.025 1_554 S
C136 O142 1.268 . S
C136 O152 1.268 . S
C137 O143 1.268 . S
C137 O151 1.268 . S
C138 O144 1.268 1_554 S
C138 O153 1.268 . S
C139 O145 1.268 . S
C139 O149 1.268 . S
C140 O146 1.268 . S
C140 O148 1.268 . S
C141 O147 1.268 . S
C141 O150 1.268 1_554 S
O142 Sc132 2.105 1_556 S
O142 C136 1.268 . S
O143 Sc133 2.105 . S
O143 C137 1.268 . S
O144 Sc134 2.105 . S
O144 C138 1.268 1_556 S
O145 Sc132 2.105 . S
O145 C139 1.268 . S
O146 Sc134 2.105 . S
O146 C140 1.268 . S
O147 Sc133 2.105 . S
O147 C141 1.268 . S
O148 Sc132 2.105 1_556 S
O148 C140 1.268 . S
O149 Sc133 2.105 . S
O149 C139 1.268 . S
O150 Sc134 2.105 . S
O150 C141 1.268 1_556 S
O151 Sc132 2.105 . S
O151 C137 1.268 . S
O152 Sc134 2.105 . S
O152 C136 1.268 . S
O153 Sc133 2.105 . S
O153 C138 1.268 . S
Sc154 O157 2.025 . S
Sc154 O164 2.105 1_554 S
Sc154 O167 2.105 . S
Sc154 O170 2.105 1_554 S
Sc154 O173 2.105 . S
Sc155 O157 2.025 . S
Sc155 O165 2.105 . S
Sc155 O169 2.105 . S
Sc155 O171 2.105 . S
Sc155 O175 2.105 . S
Sc156 O157 2.025 1_556 S
Sc156 O166 2.105 . S
Sc156 O168 2.105 . S
Sc156 O172 2.105 . S
Sc156 O174 2.105 . S
O157 Sc154 2.025 . S
O157 Sc155 2.025 . S
O157 Sc156 2.025 1_554 S
C158 O164 1.268 . S
C158 O174 1.268 . S
C159 O165 1.268 . S
C159 O173 1.268 . S
C160 O166 1.268 1_554 S
C160 O175 1.268 . S
C161 O167 1.268 . S
C161 O171 1.268 . S
C162 O168 1.268 . S
C162 O170 1.268 . S
C163 O169 1.268 . S
C163 O172 1.268 1_554 S
O164 Sc154 2.105 1_556 S
O164 C158 1.268 . S
O165 Sc155 2.105 . S
O165 C159 1.268 . S
O166 Sc156 2.105 . S
O166 C160 1.268 1_556 S
O167 Sc154 2.105 . S
O167 C161 1.268 . S
O168 Sc156 2.105 . S
O168 C162 1.268 . S
O169 Sc155 2.105 . S
O169 C163 1.268 . S
O170 Sc154 2.105 1_556 S
O170 C162 1.268 . S
O171 Sc155 2.105 . S
O171 C161 1.268 . S
O172 Sc156 2.105 . S
O172 C163 1.268 1_556 S
O173 Sc154 2.105 . S
O173 C159 1.268 . S
O174 Sc156 2.105 . S
O174 C158 1.268 . S
O175 Sc155 2.105 . S
O175 C160 1.268 . S
Sc176 O179 2.025 . S
Sc176 O186 2.105 1_554 S
Sc176 O189 2.105 . S
Sc176 O192 2.105 1_554 S
Sc176 O195 2.105 . S
Sc177 O179 2.025 . S
Sc177 O187 2.105 . S
Sc177 O191 2.105 . S
Sc177 O193 2.105 . S
Sc177 O197 2.105 . S
Sc178 O179 2.025 1_556 S
Sc178 O188 2.105 . S
Sc178 O190 2.105 . S
Sc178 O194 2.105 . S
Sc178 O196 2.105 . S
O179 Sc176 2.025 . S
O179 Sc177 2.025 . S
O179 Sc178 2.025 1_554 S
C180 O186 1.268 . S
C180 O196 1.268 . S
C181 O187 1.268 . S
C181 O195 1.268 . S
C182 O188 1.268 1_554 S
C182 O197 1.268 . S
C183 O189 1.268 . S
C183 O193 1.268 . S
C184 O190 1.268 . S
C184 O192 1.268 . S
C185 O191 1.268 . S
C185 O194 1.268 1_554 S
O186 Sc176 2.105 1_556 S
O186 C180 1.268 . S
O187 Sc177 2.105 . S
O187 C181 1.268 . S
O188 Sc178 2.105 . S
O188 C182 1.268 1_556 S
O189 Sc176 2.105 . S
O189 C183 1.268 . S
O190 Sc178 2.105 . S
O190 C184 1.268 . S
O191 Sc177 2.105 . S
O191 C185 1.268 . S
O192 Sc176 2.105 1_556 S
O192 C184 1.268 . S
O193 Sc177 2.105 . S
O193 C183 1.268 . S
O194 Sc178 2.105 . S
O194 C185 1.268 1_556 S
O195 Sc176 2.105 . S
O195 C181 1.268 . S
O196 Sc178 2.105 . S
O196 C180 1.268 . S
O197 Sc177 2.105 . S
O197 C182 1.268 . S
Sc198 O201 2.025 . S
Sc198 O208 2.105 . S
Sc198 O211 2.105 . S
Sc198 O214 2.105 . S
Sc198 O217 2.105 . S
Sc199 O201 2.025 . S
Sc199 O209 2.105 . S
Sc199 O213 2.105 . S
Sc199 O215 2.105 . S
Sc199 O219 2.105 . S
Sc200 O201 2.025 . S
Sc200 O210 2.105 . S
Sc200 O212 2.105 . S
Sc200 O216 2.105 . S
Sc200 O218 2.105 . S
O201 Sc198 2.025 . S
O201 Sc199 2.025 . S
O201 Sc200 2.025 . S
C202 O208 1.268 . S
C202 O218 1.268 . S
C203 O209 1.268 . S
C203 O217 1.268 . S
C204 O210 1.268 . S
C204 O219 1.268 . S
C205 O211 1.268 . S
C205 O215 1.268 . S
C206 O212 1.268 . S
C206 O214 1.268 . S
C207 O213 1.268 . S
C207 O216 1.268 . S
O208 Sc198 2.105 . S
O208 C202 1.268 . S
O209 Sc199 2.105 . S
O209 C203 1.268 . S
O210 Sc200 2.105 . S
O210 C204 1.268 . S
O211 Sc198 2.105 . S
O211 C205 1.268 . S
O212 Sc200 2.105 . S
O212 C206 1.268 . S
O213 Sc199 2.105 . S
O213 C207 1.268 . S
O214 Sc198 2.105 . S
O214 C206 1.268 . S
O215 Sc199 2.105 . S
O215 C205 1.268 . S
O216 Sc200 2.105 . S
O216 C207 1.268 . S
O217 Sc198 2.105 . S
O217 C203 1.268 . S
O218 Sc200 2.105 . S
O218 C202 1.268 . S
O219 Sc199 2.105 . S
O219 C204 1.268 . S
Sc220 O223 2.025 . S
Sc220 O230 2.105 . S
Sc220 O233 2.105 . S
Sc220 O236 2.105 . S
Sc220 O239 2.105 . S
Sc221 O223 2.025 . S
Sc221 O231 2.105 . S
Sc221 O235 2.105 . S
Sc221 O237 2.105 . S
Sc221 O241 2.105 . S
Sc222 O223 2.025 . S
Sc222 O232 2.105 . S
Sc222 O234 2.105 . S
Sc222 O238 2.105 . S
Sc222 O240 2.105 . S
O223 Sc220 2.025 . S
O223 Sc221 2.025 . S
O223 Sc222 2.025 . S
C224 O230 1.268 . S
C224 O240 1.268 . S
C225 O231 1.268 . S
C225 O239 1.268 . S
C226 O232 1.268 . S
C226 O241 1.268 . S
C227 O233 1.268 . S
C227 O237 1.268 . S
C228 O234 1.268 . S
C228 O236 1.268 . S
C229 O235 1.268 . S
C229 O238 1.268 . S
O230 Sc220 2.105 . S
O230 C224 1.268 . S
O231 Sc221 2.105 . S
O231 C225 1.268 . S
O232 Sc222 2.105 . S
O232 C226 1.268 . S
O233 Sc220 2.105 . S
O233 C227 1.268 . S
O234 Sc222 2.105 . S
O234 C228 1.268 . S
O235 Sc221 2.105 . S
O235 C229 1.268 . S
O236 Sc220 2.105 . S
O236 C228 1.268 . S
O237 Sc221 2.105 . S
O237 C227 1.268 . S
O238 Sc222 2.105 . S
O238 C229 1.268 . S
O239 Sc220 2.105 . S
O239 C225 1.268 . S
O240 Sc222 2.105 . S
O240 C224 1.268 . S
O241 Sc221 2.105 . S
O241 C226 1.268 . S
Sc242 O245 2.025 . S
Sc242 O252 2.105 . S
Sc242 O255 2.105 . S
Sc242 O258 2.105 . S
Sc242 O261 2.105 . S
Sc243 O245 2.025 . S
Sc243 O253 2.105 . S
Sc243 O257 2.105 . S
Sc243 O259 2.105 . S
Sc243 O263 2.105 . S
Sc244 O245 2.025 . S
Sc244 O254 2.105 . S
Sc244 O256 2.105 . S
Sc244 O260 2.105 . S
Sc244 O262 2.105 . S
O245 Sc242 2.025 . S
O245 Sc243 2.025 . S
O245 Sc244 2.025 . S
C246 O252 1.268 . S
C246 O262 1.268 . S
C247 O253 1.268 . S
C247 O261 1.268 . S
C248 O254 1.268 . S
C248 O263 1.268 . S
C249 O255 1.268 . S
C249 O259 1.268 . S
C250 O256 1.268 . S
C250 O258 1.268 . S
C251 O257 1.268 . S
C251 O260 1.268 . S
O252 Sc242 2.105 . S
O252 C246 1.268 . S
O253 Sc243 2.105 . S
O253 C247 1.268 . S
O254 Sc244 2.105 . S
O254 C248 1.268 . S
O255 Sc242 2.105 . S
O255 C249 1.268 . S
O256 Sc244 2.105 . S
O256 C250 1.268 . S
O257 Sc243 2.105 . S
O257 C251 1.268 . S
O258 Sc242 2.105 . S
O258 C250 1.268 . S
O259 Sc243 2.105 . S
O259 C249 1.268 . S
O260 Sc244 2.105 . S
O260 C251 1.268 . S
O261 Sc242 2.105 . S
O261 C247 1.268 . S
O262 Sc244 2.105 . S
O262 C246 1.268 . S
O263 Sc243 2.105 . S
O263 C248 1.268 . S
Sc264 O267 2.025 . S
Sc264 O274 2.105 . S
Sc264 O277 2.105 . S
Sc264 O280 2.105 . S
Sc264 O283 2.105 . S
Sc265 O267 2.025 . S
Sc265 O275 2.105 . S
Sc265 O279 2.105 . S
Sc265 O281 2.105 . S
Sc265 O285 2.105 . S
Sc266 O267 2.025 . S
Sc266 O276 2.105 . S
Sc266 O278 2.105 . S
Sc266 O282 2.105 . S
Sc266 O284 2.105 . S
O267 Sc264 2.025 . S
O267 Sc265 2.025 . S
O267 Sc266 2.025 . S
C268 O274 1.268 . S
C268 O284 1.268 . S
C269 O275 1.268 . S
C269 O283 1.268 . S
C270 O276 1.268 . S
C270 O285 1.268 . S
C271 O277 1.268 . S
C271 O281 1.268 . S
C272 O278 1.268 . S
C272 O280 1.268 . S
C273 O279 1.268 . S
C273 O282 1.268 . S
O274 Sc264 2.105 . S
O274 C268 1.268 . S
O275 Sc265 2.105 . S
O275 C269 1.268 . S
O276 Sc266 2.105 . S
O276 C270 1.268 . S
O277 Sc264 2.105 . S
O277 C271 1.268 . S
O278 Sc266 2.105 . S
O278 C272 1.268 . S
O279 Sc265 2.105 . S
O279 C273 1.268 . S
O280 Sc264 2.105 . S
O280 C272 1.268 . S
O281 Sc265 2.105 . S
O281 C271 1.268 . S
O282 Sc266 2.105 . S
O282 C273 1.268 . S
O283 Sc264 2.105 . S
O283 C269 1.268 . S
O284 Sc266 2.105 . S
O284 C268 1.268 . S
O285 Sc265 2.105 . S
O285 C270 1.268 . S
Sc286 O289 2.025 . S
Sc286 O296 2.105 . S
Sc286 O299 2.105 . S
Sc286 O302 2.105 . S
Sc286 O305 2.105 . S
Sc287 O289 2.025 . S
Sc287 O297 2.105 . S
Sc287 O301 2.105 . S
Sc287 O303 2.105 . S
Sc287 O307 2.105 . S
Sc288 O289 2.025 . S
Sc288 O298 2.105 . S
Sc288 O300 2.105 . S
Sc288 O304 2.105 . S
Sc288 O306 2.105 . S
O289 Sc286 2.025 . S
O289 Sc287 2.025 . S
O289 Sc288 2.025 . S
C290 O296 1.268 . S
C290 O306 1.268 . S
C291 O297 1.268 . S
C291 O305 1.268 . S
C292 O298 1.268 . S
C292 O307 1.268 . S
C293 O299 1.268 . S
C293 O303 1.268 . S
C294 O300 1.268 . S
C294 O302 1.268 . S
C295 O301 1.268 . S
C295 O304 1.268 . S
O296 Sc286 2.105 . S
O296 C290 1.268 . S
O297 Sc287 2.105 . S
O297 C291 1.268 . S
O298 Sc288 2.105 . S
O298 C292 1.268 . S
O299 Sc286 2.105 . S
O299 C293 1.268 . S
O300 Sc288 2.105 . S
O300 C294 1.268 . S
O301 Sc287 2.105 . S
O301 C295 1.268 . S
O302 Sc286 2.105 . S
O302 C294 1.268 . S
O303 Sc287 2.105 . S
O303 C293 1.268 . S
O304 Sc288 2.105 . S
O304 C295 1.268 . S
O305 Sc286 2.105 . S
O305 C291 1.268 . S
O306 Sc288 2.105 . S
O306 C290 1.268 . S
O307 Sc287 2.105 . S
O307 C292 1.268 . S
Sc308 O311 2.025 . S
Sc308 O318 2.105 . S
Sc308 O321 2.105 . S
Sc308 O324 2.105 . S
Sc308 O327 2.105 . S
Sc309 O311 2.025 . S
Sc309 O319 2.105 . S
Sc309 O323 2.105 . S
Sc309 O325 2.105 . S
Sc309 O329 2.105 . S
Sc310 O311 2.025 . S
Sc310 O320 2.105 . S
Sc310 O322 2.105 . S
Sc310 O326 2.105 . S
Sc310 O328 2.105 . S
O311 Sc308 2.025 . S
O311 Sc309 2.025 . S
O311 Sc310 2.025 . S
C312 O318 1.268 . S
C312 O328 1.268 . S
C313 O319 1.268 . S
C313 O327 1.268 . S
C314 O320 1.268 . S
C314 O329 1.268 . S
C315 O321 1.268 . S
C315 O325 1.268 . S
C316 O322 1.268 . S
C316 O324 1.268 . S
C317 O323 1.268 . S
C317 O326 1.268 . S
O318 Sc308 2.105 . S
O318 C312 1.268 . S
O319 Sc309 2.105 . S
O319 C313 1.268 . S
O320 Sc310 2.105 . S
O320 C314 1.268 . S
O321 Sc308 2.105 . S
O321 C315 1.268 . S
O322 Sc310 2.105 . S
O322 C316 1.268 . S
O323 Sc309 2.105 . S
O323 C317 1.268 . S
O324 Sc308 2.105 . S
O324 C316 1.268 . S
O325 Sc309 2.105 . S
O325 C315 1.268 . S
O326 Sc310 2.105 . S
O326 C317 1.268 . S
O327 Sc308 2.105 . S
O327 C313 1.268 . S
O328 Sc310 2.105 . S
O328 C312 1.268 . S
O329 Sc309 2.105 . S
O329 C314 1.268 . S
Sc330 O333 2.025 . S
Sc330 O340 2.105 1_556 S
Sc330 O343 2.105 . S
Sc330 O346 2.105 1_556 S
Sc330 O349 2.105 . S
Sc331 O333 2.025 . S
Sc331 O341 2.105 . S
Sc331 O345 2.105 . S
Sc331 O347 2.105 . S
Sc331 O351 2.105 . S
Sc332 O333 2.025 1_554 S
Sc332 O342 2.105 . S
Sc332 O344 2.105 . S
Sc332 O348 2.105 . S
Sc332 O350 2.105 . S
O333 Sc330 2.025 . S
O333 Sc331 2.025 . S
O333 Sc332 2.025 1_556 S
C334 O340 1.268 . S
C334 O350 1.268 . S
C335 O341 1.268 . S
C335 O349 1.268 . S
C336 O342 1.268 1_556 S
C336 O351 1.268 . S
C337 O343 1.268 . S
C337 O347 1.268 . S
C338 O344 1.268 . S
C338 O346 1.268 . S
C339 O345 1.268 . S
C339 O348 1.268 1_556 S
O340 Sc330 2.105 1_554 S
O340 C334 1.268 . S
O341 Sc331 2.105 . S
O341 C335 1.268 . S
O342 Sc332 2.105 . S
O342 C336 1.268 1_554 S
O343 Sc330 2.105 . S
O343 C337 1.268 . S
O344 Sc332 2.105 . S
O344 C338 1.268 . S
O345 Sc331 2.105 . S
O345 C339 1.268 . S
O346 Sc330 2.105 1_554 S
O346 C338 1.268 . S
O347 Sc331 2.105 . S
O347 C337 1.268 . S
O348 Sc332 2.105 . S
O348 C339 1.268 1_554 S
O349 Sc330 2.105 . S
O349 C335 1.268 . S
O350 Sc332 2.105 . S
O350 C334 1.268 . S
O351 Sc331 2.105 . S
O351 C336 1.268 . S
Sc352 O355 2.025 . S
Sc352 O362 2.105 . S
Sc352 O365 2.105 . S
Sc352 O368 2.105 . S
Sc352 O371 2.105 . S
Sc353 O355 2.025 1_554 S
Sc353 O363 2.105 . S
Sc353 O367 2.105 . S
Sc353 O369 2.105 . S
Sc353 O373 2.105 . S
Sc354 O355 2.025 . S
Sc354 O364 2.105 1_556 S
Sc354 O366 2.105 . S
Sc354 O370 2.105 1_556 S
Sc354 O372 2.105 . S
O355 Sc352 2.025 . S
O355 Sc353 2.025 1_556 S
O355 Sc354 2.025 . S
C356 O362 1.268 . S
C356 O372 1.268 . S
C357 O363 1.268 1_556 S
C357 O371 1.268 . S
C358 O364 1.268 . S
C358 O373 1.268 . S
C359 O365 1.268 . S
C359 O369 1.268 1_556 S
C360 O366 1.268 . S
C360 O368 1.268 . S
C361 O367 1.268 . S
C361 O370 1.268 . S
O362 Sc352 2.105 . S
O362 C356 1.268 . S
O363 Sc353 2.105 . S
O363 C357 1.268 1_554 S
O364 Sc354 2.105 1_554 S
O364 C358 1.268 . S
O365 Sc352 2.105 . S
O365 C359 1.268 . S
O366 Sc354 2.105 . S
O366 C360 1.268 . S
O367 Sc353 2.105 . S
O367 C361 1.268 . S
O368 Sc352 2.105 . S
O368 C360 1.268 . S
O369 Sc353 2.105 . S
O369 C359 1.268 1_554 S
O370 Sc354 2.105 1_554 S
O370 C361 1.268 . S
O371 Sc352 2.105 . S
O371 C357 1.268 . S
O372 Sc354 2.105 . S
O372 C356 1.268 . S
O373 Sc353 2.105 . S
O373 C358 1.268 . S
Sc374 O377 2.025 . S
Sc374 O384 2.105 . S
Sc374 O387 2.105 . S
Sc374 O390 2.105 . S
Sc374 O393 2.105 . S
Sc375 O377 2.025 1_554 S
Sc375 O385 2.105 . S
Sc375 O389 2.105 . S
Sc375 O391 2.105 . S
Sc375 O395 2.105 . S
Sc376 O377 2.025 . S
Sc376 O386 2.105 1_556 S
Sc376 O388 2.105 . S
Sc376 O392 2.105 1_556 S
Sc376 O394 2.105 . S
O377 Sc374 2.025 . S
O377 Sc375 2.025 1_556 S
O377 Sc376 2.025 . S
C378 O384 1.268 . S
C378 O394 1.268 . S
C379 O385 1.268 1_556 S
C379 O393 1.268 . S
C380 O386 1.268 . S
C380 O395 1.268 . S
C381 O387 1.268 . S
C381 O391 1.268 1_556 S
C382 O388 1.268 . S
C382 O390 1.268 . S
C383 O389 1.268 . S
C383 O392 1.268 . S
O384 Sc374 2.105 . S
O384 C378 1.268 . S
O385 Sc375 2.105 . S
O385 C379 1.268 1_554 S
O386 Sc376 2.105 1_554 S
O386 C380 1.268 . S
O387 Sc374 2.105 . S
O387 C381 1.268 . S
O388 Sc376 2.105 . S
O388 C382 1.268 . S
O389 Sc375 2.105 . S
O389 C383 1.268 . S
O390 Sc374 2.105 . S
O390 C382 1.268 . S
O391 Sc375 2.105 . S
O391 C381 1.268 1_554 S
O392 Sc376 2.105 1_554 S
O392 C383 1.268 . S
O393 Sc374 2.105 . S
O393 C379 1.268 . S
O394 Sc376 2.105 . S
O394 C378 1.268 . S
O395 Sc375 2.105 . S
O395 C380 1.268 . S
C4 C94 1.657 . S
C114 C28 1.657 . S
C48 C70 1.657 . S
C51 C96 1.657 . S
C117 C7 1.657 . S
C30 C73 1.657 . S
C31 C74 1.657 . S
C52 C97 1.657 . S
C118 C8 1.657 . S
C115 C26 1.657 . S
C49 C71 1.657 . S
C5 C92 1.657 . S
C226 C136 1.657 . S
C158 C248 1.657 . S
C180 C204 1.657 . S
C228 C183 1.657 . S
C250 C139 1.657 . S
C206 C161 1.657 . S
C162 C207 1.657 . S
C184 C229 1.657 . S
C140 C251 1.657 . S
C159 C246 1.657 . S
C181 C202 1.657 . S
C224 C137 1.657 . S
C268 C358 1.657 . S
C292 C380 1.657 . S
C334 C312 1.657 . S
C360 C315 1.657 . S
C271 C382 1.657 . S
C294 C337 1.657 . S
C295 C338 1.657 . S
C316 C361 1.657 . S
C272 C383 1.657 . S
C378 C290 1.657 . S
C335 C313 1.657 . S
C269 C356 1.657 . S
C6 C293 2.656 . S
C27 C317 2.656 . S
C50 C273 2.656 . S
C53 C160 2.656 1_556 S
C9 C182 2.656 1_556 S
C29 C138 2.656 1_556 S
C225 C75 2.656 . S
C95 C247 2.656 . S
C119 C203 2.656 . S
C359 C116 2.656 1_556 S
C72 C381 2.656 1_554 S
C93 C339 2.656 1_554 S
C185 C291 2.656 1_655 S
C141 C314 2.656 . S
C270 C163 2.656 1_565 S
C357 C205 2.656 1_565 S
C379 C227 2.656 1_455 S
C249 C336 2.656 . S
