# Generated by pormake.
# Topology lcy-e, (6)-cn, num edge types: 1
# Building blocks:
#     Node 0, Type 0, BuildingBlock: KUMBOL_clean_sbu_1, # of connection points: 6
#     Node 1, Type 0, BuildingBlock: KUMBOL_clean_sbu_1, # of connection points: 6
#     Node 2, Type 0, BuildingBlock: KUMBOL_clean_sbu_1, # of connection points: 6
#     Node 3, Type 0, BuildingBlock: KUMBOL_clean_sbu_1, # of connection points: 6
#     Node 4, Type 0, BuildingBlock: KUMBOL_clean_sbu_1, # of connection points: 6
#     Node 5, Type 0, BuildingBlock: KUMBOL_clean_sbu_1, # of connection points: 6
#     Node 6, Type 0, BuildingBlock: KUMBOL_clean_sbu_1, # of connection points: 6
#     Node 7, Type 0, BuildingBlock: KUMBOL_clean_sbu_1, # of connection points: 6
#     Node 8, Type 0, BuildingBlock: KUMBOL_clean_sbu_1, # of connection points: 6
#     Node 9, Type 0, BuildingBlock: KUMBOL_clean_sbu_1, # of connection points: 6
#     Node 10, Type 0, BuildingBlock: KUMBOL_clean_sbu_1, # of connection points: 6
#     Node 11, Type 0, BuildingBlock: KUMBOL_clean_sbu_1, # of connection points: 6
#     Edge 12, Type (0, 0), BuildingBlock: KIFKEQ_clean_linker_1, # of connection points: 2
#     Edge 13, Type (0, 0), BuildingBlock: KIFKEQ_clean_linker_1, # of connection points: 2
#     Edge 14, Type (0, 0), BuildingBlock: KIFKEQ_clean_linker_1, # of connection points: 2
#     Edge 15, Type (0, 0), BuildingBlock: KIFKEQ_clean_linker_1, # of connection points: 2
#     Edge 16, Type (0, 0), BuildingBlock: KIFKEQ_clean_linker_1, # of connection points: 2
#     Edge 17, Type (0, 0), BuildingBlock: KIFKEQ_clean_linker_1, # of connection points: 2
#     Edge 18, Type (0, 0), BuildingBlock: KIFKEQ_clean_linker_1, # of connection points: 2
#     Edge 19, Type (0, 0), BuildingBlock: KIFKEQ_clean_linker_1, # of connection points: 2
#     Edge 20, Type (0, 0), BuildingBlock: KIFKEQ_clean_linker_1, # of connection points: 2
#     Edge 21, Type (0, 0), BuildingBlock: KIFKEQ_clean_linker_1, # of connection points: 2
#     Edge 22, Type (0, 0), BuildingBlock: KIFKEQ_clean_linker_1, # of connection points: 2
#     Edge 23, Type (0, 0), BuildingBlock: KIFKEQ_clean_linker_1, # of connection points: 2
#     Edge 24, Type (0, 0), BuildingBlock: KIFKEQ_clean_linker_1, # of connection points: 2
#     Edge 25, Type (0, 0), BuildingBlock: KIFKEQ_clean_linker_1, # of connection points: 2
#     Edge 26, Type (0, 0), BuildingBlock: KIFKEQ_clean_linker_1, # of connection points: 2
#     Edge 27, Type (0, 0), BuildingBlock: KIFKEQ_clean_linker_1, # of connection points: 2
#     Edge 28, Type (0, 0), BuildingBlock: KIFKEQ_clean_linker_1, # of connection points: 2
#     Edge 29, Type (0, 0), BuildingBlock: KIFKEQ_clean_linker_1, # of connection points: 2
#     Edge 30, Type (0, 0), BuildingBlock: KIFKEQ_clean_linker_1, # of connection points: 2
#     Edge 31, Type (0, 0), BuildingBlock: KIFKEQ_clean_linker_1, # of connection points: 2
#     Edge 32, Type (0, 0), BuildingBlock: KIFKEQ_clean_linker_1, # of connection points: 2
#     Edge 33, Type (0, 0), BuildingBlock: KIFKEQ_clean_linker_1, # of connection points: 2
#     Edge 34, Type (0, 0), BuildingBlock: KIFKEQ_clean_linker_1, # of connection points: 2
#     Edge 35, Type (0, 0), BuildingBlock: KIFKEQ_clean_linker_1, # of connection points: 2
#     Edge 36, Type (0, 0), BuildingBlock: KIFKEQ_clean_linker_1, # of connection points: 2
#     Edge 37, Type (0, 0), BuildingBlock: KIFKEQ_clean_linker_1, # of connection points: 2
#     Edge 38, Type (0, 0), BuildingBlock: KIFKEQ_clean_linker_1, # of connection points: 2
#     Edge 39, Type (0, 0), BuildingBlock: KIFKEQ_clean_linker_1, # of connection points: 2
#     Edge 40, Type (0, 0), BuildingBlock: KIFKEQ_clean_linker_1, # of connection points: 2
#     Edge 41, Type (0, 0), BuildingBlock: KIFKEQ_clean_linker_1, # of connection points: 2
#     Edge 42, Type (0, 0), BuildingBlock: KIFKEQ_clean_linker_1, # of connection points: 2
#     Edge 43, Type (0, 0), BuildingBlock: KIFKEQ_clean_linker_1, # of connection points: 2
#     Edge 44, Type (0, 0), BuildingBlock: KIFKEQ_clean_linker_1, # of connection points: 2
#     Edge 45, Type (0, 0), BuildingBlock: KIFKEQ_clean_linker_1, # of connection points: 2
#     Edge 46, Type (0, 0), BuildingBlock: KIFKEQ_clean_linker_1, # of connection points: 2
#     Edge 47, Type (0, 0), BuildingBlock: KIFKEQ_clean_linker_1, # of connection points: 2
# Relax obj value: 0.092
# Max RMSD: 0.241
# Mean RMSD: 0.240
data_MOF--net-lcy-e--node1-KUMBOL_clean_sbu_1--edge1-KIFKEQ_clean_linker_1
_symmetry_space_group_name_H-M    P1
_symmetry_Int_Tables_number       1
_symmetry_cell_setting            triclinic
loop_
_symmetry_equiv_pos_as_xyz
'x, y, z'
_cell_length_a     44.611912
_cell_length_b     44.44777
_cell_length_c     44.66182
_cell_angle_alpha  89.953749
_cell_angle_beta   89.9395
_cell_angle_gamma 89.60652
loop_
_atom_site_label
_atom_site_type_symbol
_atom_site_fract_x
_atom_site_fract_y
_atom_site_fract_z
_atom_type_partial_charge
C0 C 0.05564 0.29583 0.45712 0.0
C1 C 0.05339 0.34497 0.48066 0.0
C2 C 0.06961 0.31909 0.47199 0.0
C3 C 0.02255 0.34675 0.47468 0.0
C4 C 0.02502 0.29818 0.44969 0.0
C5 C 1.00841 0.32344 0.45911 0.0
N6 N 0.07246 0.27186 0.44821 0.0
C7 C 0.06073 0.2511 0.42908 0.0
C8 C 0.01229 0.27558 0.43213 0.0
C9 C 0.03037 0.25221 0.42134 0.0
Gd10 Gd 0.14613 0.21206 0.53042 0.0
Gd11 Gd 0.12306 0.27167 0.46322 0.0
N12 N 0.09944 0.31679 0.47713 0.0
C13 C 0.06882 0.36852 0.4945 0.0
C14 C 0.11494 0.34034 0.4889 0.0
C15 C 0.09984 0.36633 0.49829 0.0
H16 H 0.13886 0.33876 0.49143 0.0
H17 H 0.11213 0.38462 0.50837 0.0
H18 H 0.1217 0.16014 0.48025 0.0
H19 H 0.07477 0.23363 0.41961 0.0
H20 H 0.14306 0.11879 0.45049 0.0
H21 H 0.05714 0.38871 0.50166 0.0
H22 H 0.00961 0.36635 0.48134 0.0
H23 H 0.20265 0.24024 0.56981 0.0
H24 H 0.98884 0.27654 0.42591 0.0
H25 H 0.02101 0.2352 0.40684 0.0
H26 H 0.24579 0.11355 0.48151 0.0
H27 H 0.98478 0.32549 0.45387 0.0
H28 H 0.28038 0.18555 0.5531 0.0
H29 H 0.25629 0.2287 0.5788 0.0
N30 N 0.19692 0.20403 0.53943 0.0
C31 C 0.20948 0.17995 0.52532 0.0
C32 C 0.21313 0.22143 0.55849 0.0
C33 C 0.25687 0.19042 0.5492 0.0
C34 C 0.24339 0.21489 0.56367 0.0
C35 C 0.23999 0.17271 0.52962 0.0
H36 H 0.27623 0.14266 0.51686 0.0
N37 N 0.16287 0.17161 0.50078 0.0
C38 C 0.19213 0.16354 0.50521 0.0
C39 C 0.18732 0.12353 0.46898 0.0
C40 C 0.20515 0.13944 0.48917 0.0
C41 C 0.14517 0.15535 0.48206 0.0
C42 C 0.15718 0.13141 0.46556 0.0
O43 O 0.10473 0.28293 0.51036 0.0
O44 O 0.10263 0.2376 0.53565 0.0
O45 O 0.13303 0.17076 0.55308 0.0
O46 O 0.14957 0.20934 0.57886 0.0
O47 O 0.16355 0.28152 0.49204 0.0
O48 O 0.15702 0.2613 0.5399 0.0
O49 O 0.18057 0.22689 0.49679 0.0
O50 O 0.15175 0.23019 0.45521 0.0
O51 O 0.14763 0.30651 0.43832 0.0
O52 O 0.12732 0.26951 0.41531 0.0
O53 O 0.10105 0.20453 0.50855 0.0
O54 O 0.10884 0.22317 0.4616 0.0
C55 C 0.0963 0.26643 0.53352 0.0
C56 C 0.16544 0.28327 0.52152 0.0
C57 C 0.13526 0.1647 0.60728 0.0
C58 C 0.1144 0.12227 0.63512 0.0
C59 C 0.13917 0.16295 0.66144 0.0
C60 C 0.14476 0.17742 0.63438 0.0
C61 C 0.12395 0.13572 0.66187 0.0
C62 C 0.12043 0.13666 0.60764 0.0
C63 C 0.13921 0.18193 0.5793 0.0
C64 C 0.23547 0.13201 0.49366 0.0
C65 C 0.25281 0.14854 0.51385 0.0
H66 H 0.19651 0.10491 0.45621 0.0
C67 C 0.17804 0.22646 0.46765 0.0
C68 C 0.09154 0.2101 0.4813 0.0
C69 C 0.1299 0.31442 0.38825 0.0
C70 C 0.13915 0.34756 0.34557 0.0
C71 C 0.08925 0.3278 0.35449 0.0
C72 C 0.09954 0.31292 0.37992 0.0
C73 C 0.10885 0.34491 0.3374 0.0
C74 C 0.14978 0.33182 0.37091 0.0
C75 C 0.14129 0.29479 0.41244 0.0
H76 H 0.1464 0.17305 0.68223 0.0
H77 H 0.15617 0.19884 0.63474 0.0
H78 H 0.11972 0.12499 0.68325 0.0
H79 H 0.11275 0.12662 0.58694 0.0
H80 H 0.06603 0.32582 0.34783 0.0
H81 H 0.08387 0.29944 0.39252 0.0
H82 H 0.10032 0.35595 0.31748 0.0
H83 H 0.17328 0.33289 0.37693 0.0
C84 C 0.96818 0.80809 0.71253 0.0
C85 C 0.92244 0.806 0.74205 0.0
C86 C 0.94679 0.82232 0.7304 0.0
C87 C 0.91984 0.77524 0.73553 0.0
C88 C 0.96515 0.77738 0.70533 0.0
C89 C 0.94108 0.76099 0.71717 0.0
N90 N 0.99144 0.82437 0.70157 0.0
C91 C 0.0109 0.81205 0.68133 0.0
C92 C 0.98615 0.76414 0.68602 0.0
C93 C 1.00888 0.78166 0.67367 0.0
Gd94 Gd 0.0557 0.90033 0.77659 0.0
Gd95 Gd 0.99253 0.87479 0.71656 0.0
N96 N 0.94991 0.85209 0.73657 0.0
C97 C 0.90135 0.82113 0.75987 0.0
C98 C 0.92912 0.86711 0.75328 0.0
C99 C 0.90464 0.85186 0.76537 0.0
H100 H 0.93133 0.89078 0.7573 0.0
H101 H 0.8883 0.86382 0.77886 0.0
H102 H 0.1146 0.87677 0.73767 0.0
H103 H 0.02779 0.82565 0.67065 0.0
H104 H 0.1594 0.89865 0.71323 0.0
H105 H 0.88235 0.80935 0.76928 0.0
H106 H 0.90131 0.76231 0.74437 0.0
H107 H 0.02383 0.95744 0.81671 0.0
H108 H 0.98457 0.74061 0.67994 0.0
H109 H 0.02468 0.77186 0.65801 0.0
H110 H 0.14886 1.00489 0.73015 0.0
H111 H 0.93853 0.73733 0.71202 0.0
H112 H 0.0676 0.03871 0.79176 0.0
H113 H 0.02829 0.01223 0.82029 0.0
N114 N 0.05779 0.95278 0.78324 0.0
C115 C 0.08071 0.9667 0.76872 0.0
C116 C 0.03992 0.96861 0.80259 0.0
C117 C 0.06513 0.01461 0.78924 0.0
C118 C 0.04284 0.99977 0.80531 0.0
C119 C 0.08488 0.99802 0.77127 0.0
H120 H 0.11255 0.03573 0.75826 0.0
N121 N 0.09665 0.91927 0.75031 0.0
C122 C 0.10115 0.94939 0.75255 0.0
C123 C 0.14718 0.94432 0.72436 0.0
C124 C 0.12628 0.96282 0.73901 0.0
C125 C 0.11771 0.90087 0.73756 0.0
C126 C 0.14305 0.91317 0.72393 0.0
O127 O 0.99492 0.84786 0.76074 0.0
O128 O 0.01531 0.87906 0.79741 0.0
O129 O 0.088 0.86919 0.79672 0.0
O130 O 0.07891 0.91209 0.81761 0.0
O131 O 0.98053 0.91587 0.74341 0.0
O132 O 1.00762 0.91667 0.78812 0.0
O133 O 0.05893 0.91214 0.72728 0.0
O134 O 0.01026 0.92178 0.71804 0.0
O135 O 0.95336 0.88714 0.69 0.0
O136 O 0.99678 0.88181 0.66868 0.0
O137 O 0.05688 0.85313 0.75773 0.0
O138 O 0.04085 0.86123 0.70962 0.0
C139 C 0.99897 0.85598 0.78901 0.0
C140 C 0.98388 0.92413 0.77153 0.0
C141 C 0.10291 0.87482 0.84767 0.0
C142 C 0.14104 0.85365 0.8814 0.0
C143 C 0.09045 0.86442 0.89941 0.0
C144 C 0.08202 0.87464 0.87109 0.0
C145 C 0.11962 0.85409 0.90458 0.0
C146 C 0.13246 0.86435 0.85286 0.0
C147 C 0.09497 0.88755 0.81823 0.0
C148 C 0.12989 0.99411 0.74073 0.0
C149 C 0.10916 0.01167 0.75668 0.0
H150 H 0.16681 0.95381 0.71373 0.0
C151 C 0.03835 0.92766 0.71322 0.0
C152 C 0.05622 0.84564 0.72935 0.0
C153 C 0.95385 0.87864 0.63742 0.0
C154 C 0.92385 0.89009 0.59301 0.0
C155 C 0.94373 0.83966 0.60094 0.0
C156 C 0.95684 0.84878 0.62774 0.0
C157 C 0.92727 0.86009 0.58373 0.0
C158 C 0.93741 0.89941 0.61987 0.0
C159 C 0.96852 0.8888 0.6651 0.0
H160 H 0.07433 0.86467 0.91754 0.0
H161 H 0.05935 0.88277 0.86757 0.0
H162 H 0.12552 0.84675 0.92695 0.0
H163 H 0.14863 0.86448 0.83472 0.0
H164 H 0.94627 0.81662 0.5935 0.0
H165 H 0.96939 0.83257 0.64077 0.0
H166 H 0.91714 0.85249 0.56305 0.0
H167 H 0.93497 0.92256 0.62719 0.0
C168 C 0.30676 0.79551 0.05386 0.0
C169 C 0.30874 0.76549 0.09925 0.0
C170 C 0.32312 0.77864 0.07443 0.0
C171 C 0.27762 0.76903 0.10277 0.0
C172 C 0.27576 0.80023 0.05806 0.0
C173 C 0.26119 0.78641 0.08227 0.0
N174 N 0.32138 0.80843 0.03053 0.0
C175 C 0.30726 0.82908 0.01284 0.0
C176 C 0.26053 0.81941 0.03828 0.0
C177 C 0.2765 0.83438 0.01593 0.0
Gd178 Gd 0.39835 0.73877 0.96109 0.0
Gd179 Gd 0.37218 0.79603 0.02601 0.0
N180 N 0.35319 0.77548 0.07035 0.0
C181 C 0.32614 0.74946 0.11997 0.0
C182 C 0.37043 0.76105 0.0911 0.0
C183 C 0.35717 0.74754 0.11605 0.0
H184 H 0.39438 0.76024 0.08873 0.0
H185 H 0.37091 0.7358 0.13231 0.0
H186 H 0.37533 0.78326 0.90577 0.0
H187 H 0.31978 0.84184 0.99663 0.0
H188 H 0.39758 0.81025 0.86261 0.0
H189 H 0.31593 0.739 0.13934 0.0
H190 H 0.26614 0.75888 0.12159 0.0
H191 H 0.45371 0.69493 0.98991 0.0
H192 H 0.23671 0.82365 0.04076 0.0
H193 H 0.26522 0.85025 1.00133 0.0
H194 H 0.50246 0.78625 0.86845 0.0
H195 H 0.23732 0.78951 0.08567 0.0
H196 H 0.53453 0.71648 0.94371 0.0
H197 H 0.50782 0.68778 0.9828 0.0
N198 N 0.45006 0.73015 0.95756 0.0
C199 C 0.46401 0.74523 0.93503 0.0
C200 C 0.46521 0.70902 0.97398 0.0
C201 C 0.51083 0.7205 0.94736 0.0
C202 C 0.49587 0.70434 0.96954 0.0
C203 C 0.49484 0.74082 0.92942 0.0
H204 H 0.53228 0.75311 0.90112 0.0
N205 N 0.41738 0.76755 0.92193 0.0
C206 C 0.44721 0.76418 0.91657 0.0
C207 C 0.44272 0.79608 0.87294 0.0
C208 C 0.46077 0.77882 0.89213 0.0
C209 C 0.3993 0.78263 0.90224 0.0
C210 C 0.4118 0.7977 0.87782 0.0
O211 O 0.34632 0.75096 0.02311 0.0
O212 O 0.37841 0.71629 1.00054 0.0
O213 O 0.36649 0.71854 0.92992 0.0
O214 O 0.41098 0.69978 0.93486 0.0
O215 O 0.41368 0.76936 0.03713 0.0
O216 O 0.41464 0.72526 0.00877 0.0
O217 O 0.40925 0.7883 0.9612 0.0
O218 O 0.41997 0.79619 0.00977 0.0
O219 O 0.38084 0.82533 0.06443 0.0
O220 O 0.38024 0.84328 0.01909 0.0
O221 O 0.35099 0.75698 0.96001 0.0
O222 O 0.3565 0.80471 0.97842 0.0
C223 C 0.3552 0.72293 0.01747 0.0
C224 C 0.42148 0.74103 0.0332 0.0
C225 C 0.37436 0.66786 0.91389 0.0
C226 C 0.35346 0.63296 0.87718 0.0
C227 C 0.37056 0.6148 0.92573 0.0
C228 C 0.37858 0.64393 0.93396 0.0
C229 C 0.35809 0.60931 0.89762 0.0
C230 C 0.36184 0.66231 0.88545 0.0
C231 C 0.3855 0.69812 0.92092 0.0
C232 C 0.49162 0.77508 0.88706 0.0
C233 C 0.5086 0.75618 0.90567 0.0
H234 H 0.45232 0.80757 0.85384 0.0
C235 C 0.42663 0.79968 0.98162 0.0
C236 C 0.3424 0.78525 0.96145 0.0
C237 C 0.37593 0.87887 0.05852 0.0
C238 C 0.38745 0.92301 0.08892 0.0
C239 C 0.34613 0.92446 0.05349 0.0
C240 C 0.35216 0.8948 0.04519 0.0
C241 C 0.36356 0.93847 0.07522 0.0
C242 C 0.39375 0.89316 0.08033 0.0
C243 C 0.38467 0.84888 0.04743 0.0
H244 H 0.3743 0.59631 0.9411 0.0
H245 H 0.38858 0.64769 0.95572 0.0
H246 H 0.35246 0.58642 0.89164 0.0
H247 H 0.35883 0.68072 0.86977 0.0
H248 H 0.32803 0.93675 0.04284 0.0
H249 H 0.33867 0.8846 0.0279 0.0
H250 H 0.35861 0.96161 0.08114 0.0
H251 H 0.41251 0.88124 0.09035 0.0
C252 C 0.54961 0.20632 0.21276 0.0
C253 C 0.59568 0.20613 0.24171 0.0
C254 C 0.57057 0.19097 0.23014 0.0
C255 C 0.59921 0.23696 0.23593 0.0
C256 C 0.55368 0.23704 0.20608 0.0
C257 C 0.5783 0.25236 0.21814 0.0
N258 N 0.52601 0.19097 0.20129 0.0
C259 C 0.50768 0.20409 0.18056 0.0
C260 C 0.53336 0.25128 0.18676 0.0
C261 C 0.51056 0.23457 0.17355 0.0
Gd262 Gd 0.45784 0.11401 0.27239 0.0
Gd263 Gd 0.52329 0.14021 0.21506 0.0
N264 N 0.56646 0.16118 0.2357 0.0
C265 C 0.61646 0.18984 0.25884 0.0
C266 C 0.58703 0.14501 0.25158 0.0
C267 C 0.61219 0.1591 0.26364 0.0
H268 H 0.58425 0.12125 0.25465 0.0
H269 H 0.62835 0.14622 0.27649 0.0
H270 H 0.40006 0.1377 0.23238 0.0
H271 H 0.49148 0.19087 0.16857 0.0
H272 H 0.35552 0.11589 0.20745 0.0
H273 H 0.63599 0.2007 0.2682 0.0
H274 H 0.61824 0.24903 0.24483 0.0
H275 H 0.48984 0.05671 0.31225 0.0
H276 H 0.53575 0.27483 0.18105 0.0
H277 H 0.49557 0.24498 0.15749 0.0
H278 H 0.36572 0.00963 0.22457 0.0
H279 H 0.58163 0.27602 0.21342 0.0
H280 H 0.44623 0.97561 0.28691 0.0
H281 H 0.48529 1.00197 0.31575 0.0
N282 N 0.4563 0.0615 0.27839 0.0
C283 C 0.43356 0.04765 0.26361 0.0
C284 C 0.47395 0.04561 0.29789 0.0
C285 C 0.4488 0.99969 0.28436 0.0
C286 C 0.47095 0.01447 0.30059 0.0
C287 C 0.4293 0.01634 0.26616 0.0
H288 H 0.40163 0.97871 0.25304 0.0
N289 N 0.41777 0.09515 0.24516 0.0
C290 C 0.41334 0.06502 0.24722 0.0
C291 C 0.3676 0.07019 0.21866 0.0
C292 C 0.38834 0.05164 0.23348 0.0
C293 C 0.39693 0.11359 0.23216 0.0
C294 C 0.37176 0.10134 0.21828 0.0
O295 O 0.52153 0.16562 0.26034 0.0
O296 O 0.49707 0.13474 0.29464 0.0
O297 O 0.42558 0.14497 0.2928 0.0
O298 O 0.43316 0.10092 0.31204 0.0
O299 O 0.53265 0.09766 0.24089 0.0
O300 O 0.50567 0.09871 0.28548 0.0
O301 O 0.45674 0.10463 0.22281 0.0
O302 O 0.50513 0.09303 0.21395 0.0
O303 O 0.56283 0.12765 0.18921 0.0
O304 O 0.52028 0.13506 0.16684 0.0
O305 O 0.45694 0.16163 0.25472 0.0
O306 O 0.47545 0.15598 0.20707 0.0
C307 C 0.5134 0.15836 0.28807 0.0
C308 C 0.52964 0.091 0.26942 0.0
C309 C 0.41039 0.13758 0.34337 0.0
C310 C 0.37327 0.16007 0.37703 0.0
C311 C 0.42158 0.14295 0.39615 0.0
C312 C 0.43012 0.13379 0.36751 0.0
C313 C 0.39342 0.15597 0.40093 0.0
C314 C 0.38191 0.15063 0.3482 0.0
C315 C 0.41791 0.12592 0.31351 0.0
C316 C 0.38462 0.02037 0.23526 0.0
C317 C 0.40512 1.00275 0.25142 0.0
H318 H 0.34807 0.06074 0.20789 0.0
C319 C 0.47679 0.08737 0.21011 0.0
C320 C 0.45898 0.17063 0.22678 0.0
C321 C 0.56442 0.13913 0.13733 0.0
C322 C 0.59583 0.12966 0.09344 0.0
C323 C 0.57782 0.18021 0.10428 0.0
C324 C 0.56321 0.16972 0.12981 0.0
C325 C 0.59414 0.16038 0.08627 0.0
C326 C 0.58062 0.119 0.11893 0.0
C327 C 0.5485 0.12763 0.16381 0.0
H328 H 0.43673 0.13968 0.4148 0.0
H329 H 0.45184 0.12326 0.36433 0.0
H330 H 0.3872 0.16248 0.42348 0.0
H331 H 0.36652 0.15336 0.32959 0.0
H332 H 0.57658 0.20382 0.09847 0.0
H333 H 0.551 0.18553 0.14355 0.0
H334 H 0.60536 0.169 0.06655 0.0
H335 H 0.58169 0.09529 0.12459 0.0
C336 C 0.55231 0.21043 0.54602 0.0
C337 C 0.55654 0.16241 0.52021 0.0
C338 C 0.56979 0.18874 0.53156 0.0
C339 C 0.52548 0.1584 0.523 0.0
C340 C 0.52134 0.20566 0.55008 0.0
C341 C 0.50795 0.17992 0.53794 0.0
N342 N 0.56581 0.23515 0.55771 0.0
C343 C 0.5504 0.25372 0.57672 0.0
C344 C 0.50491 0.22626 0.56731 0.0
C345 C 0.51966 0.25001 0.58123 0.0
Gd346 Gd 0.64653 0.30561 0.49252 0.0
Gd347 Gd 0.61778 0.23745 0.55022 0.0
N348 N 0.59986 0.19315 0.52904 0.0
C349 C 0.57502 0.14064 0.50681 0.0
C350 C 0.61813 0.17146 0.51741 0.0
C351 C 0.60599 0.14507 0.50567 0.0
H352 H 0.64203 0.17425 0.5179 0.0
H353 H 0.62053 0.12804 0.49606 0.0
H354 H 0.62538 0.36438 0.5329 0.0
H355 H 0.56174 0.27128 0.58885 0.0
H356 H 0.64909 0.40861 0.55681 0.0
H357 H 0.56567 0.12012 0.49782 0.0
H358 H 0.51488 0.13839 0.51424 0.0
H359 H 0.70265 0.26897 0.45461 0.0
H360 H 0.48112 0.22331 0.57104 0.0
H361 H 0.50745 0.26528 0.59572 0.0
H362 H 0.75428 0.39383 0.53919 0.0
H363 H 0.48414 0.17606 0.54066 0.0
H364 H 0.78493 0.31011 0.4792 0.0
H365 H 0.75725 0.27118 0.4514 0.0
N366 N 0.69895 0.30361 0.48768 0.0
C367 C 0.71361 0.32628 0.50194 0.0
C368 C 0.71419 0.28476 0.46874 0.0
C369 C 0.76084 0.30853 0.48177 0.0
C370 C 0.74532 0.28644 0.46613 0.0
C371 C 0.74499 0.32924 0.49936 0.0
H372 H 0.78356 0.35586 0.51167 0.0
N373 N 0.66692 0.34478 0.51991 0.0
C374 C 0.69713 0.34777 0.5178 0.0
C375 C 0.694 0.39448 0.54541 0.0
C376 C 0.71153 0.3726 0.53096 0.0
C377 C 0.64952 0.36655 0.53285 0.0
C378 C 0.66284 0.39155 0.54615 0.0
O379 O 0.59781 0.23494 0.5028 0.0
O380 O 0.61608 0.27262 0.4707 0.0
O381 O 0.62168 0.34395 0.47447 0.0
O382 O 0.65987 0.3263 0.45048 0.0
O383 O 0.66153 0.23399 0.5252 0.0
O384 O 0.65844 0.25725 0.47914 0.0
O385 O 0.65486 0.30571 0.54275 0.0
O386 O 0.66391 0.25718 0.55702 0.0
O387 O 0.63506 0.19962 0.57692 0.0
O388 O 0.60849 0.23466 0.5975 0.0
O389 O 0.5992 0.30718 0.50966 0.0
O390 O 0.60337 0.28607 0.5568 0.0
C391 C 0.59907 0.24921 0.47667 0.0
C392 C 0.66475 0.23356 0.49601 0.0
C393 C 0.62353 0.35371 0.42232 0.0
C394 C 0.60093 0.39113 0.38851 0.0
C395 C 0.60569 0.33856 0.37342 0.0
C396 C 0.61895 0.33133 0.40076 0.0
C397 C 0.59688 0.36811 0.36725 0.0
C398 C 0.61452 0.38364 0.41613 0.0
C399 C 0.63856 0.34648 0.4509 0.0
C400 C 0.7428 0.37503 0.52901 0.0
C401 C 0.75948 0.35335 0.5134 0.0
H402 H 0.70428 0.4139 0.55571 0.0
C403 C 0.67124 0.28572 0.55707 0.0
C404 C 0.58899 0.30248 0.53679 0.0
C405 C 0.64363 0.21041 0.62869 0.0
C406 C 0.66619 0.18479 0.67187 0.0
C407 C 0.66957 0.23916 0.66683 0.0
C408 C 0.65407 0.23799 0.63985 0.0
C409 C 0.67555 0.21287 0.68273 0.0
C410 C 0.64971 0.18365 0.64487 0.0
C411 C 0.62416 0.21024 0.60187 0.0
H412 H 0.60244 0.3212 0.35678 0.0
H413 H 0.62592 0.30832 0.40493 0.0
H414 H 0.58721 0.37298 0.34554 0.0
H415 H 0.61793 0.40092 0.43287 0.0
H416 H 0.67691 0.26059 0.67555 0.0
H417 H 0.64964 0.25885 0.62804 0.0
H418 H 0.68755 0.21447 0.70375 0.0
H419 H 0.64175 0.16224 0.63655 0.0
C420 C 0.96422 0.45521 0.71051 0.0
C421 C 0.99193 0.45286 0.66369 0.0
C422 C 0.9805 0.43873 0.6895 0.0
C423 C 0.98734 0.48387 0.65958 0.0
C424 C 0.95852 0.48609 0.70576 0.0
C425 C 0.97064 0.50043 0.68052 0.0
N426 N 0.95283 0.44081 0.73481 0.0
C427 C 0.93291 0.45509 0.75323 0.0
C428 C 0.94005 0.50146 0.72607 0.0
C429 C 0.92674 0.48573 0.74959 0.0
Gd430 Gd 0.02339 0.36627 0.80564 0.0
Gd431 Gd 0.96578 0.38981 0.73901 0.0
N432 N 0.98481 0.40877 0.69415 0.0
C433 C 1.00736 0.43528 0.64262 0.0
C434 C 0.99882 0.39133 0.67327 0.0
C435 C 0.01056 0.40433 0.64731 0.0
H436 H 1.00049 0.36737 0.67641 0.0
H437 H 0.02197 0.39047 0.6309 0.0
H438 H 0.97795 0.3878 0.8607 0.0
H439 H 0.92097 0.44278 0.77023 0.0
H440 H 0.95106 0.36439 0.90334 0.0
H441 H 0.0165 0.44531 0.6225 0.0
H442 H 0.99617 0.49518 0.64 0.0
H443 H 0.06806 0.31161 0.77615 0.0
H444 H 0.93506 0.52517 0.72316 0.0
H445 H 0.91133 0.49705 0.76462 0.0
H446 H 0.97738 0.25974 0.89669 0.0
H447 H 0.96672 0.52421 0.67669 0.0
H448 H 0.04793 0.2297 0.82154 0.0
H449 H 0.07613 0.25739 0.78279 0.0
N450 N 0.03289 0.31442 0.80852 0.0
C451 C 0.01812 0.29991 0.83093 0.0
C452 C 0.05421 0.29972 0.79198 0.0
C453 C 0.04355 0.25346 0.81814 0.0
C454 C 0.05942 0.26898 0.79615 0.0
C455 C 0.023 0.26897 0.8362 0.0
H456 H 0.01123 0.23082 0.86395 0.0
N457 N 0.99485 0.34613 0.84441 0.0
C458 C 0.99883 0.31621 0.84949 0.0
C459 C 0.96639 0.31953 0.89275 0.0
C460 C 0.98424 0.30201 0.8736 0.0
C461 C 0.97916 0.36373 0.86409 0.0
C462 C 0.96413 0.35058 0.88817 0.0
O463 O 0.01065 0.41594 0.73928 0.0
O464 O 0.0461 0.38948 0.76791 0.0
O465 O 0.04093 0.3975 0.83905 0.0
O466 O 0.06313 0.35493 0.83123 0.0
O467 O 0.99416 0.34852 0.73106 0.0
O468 O 0.03853 0.35169 0.75812 0.0
O469 O 0.97414 0.3538 0.80526 0.0
O470 O 0.96772 0.34246 0.75662 0.0
O471 O 0.93842 0.37725 0.7005 0.0
O472 O 0.91814 0.38221 0.7443 0.0
O473 O 1.00408 0.41333 0.80543 0.0
O474 O 0.95691 0.40579 0.78664 0.0
C475 C 0.03838 0.41115 0.74927 0.0
C476 C 0.02325 0.34437 0.73364 0.0
C477 C 0.092 0.39292 0.85434 0.0
C478 C 0.12643 0.41129 0.89271 0.0
C479 C 0.1439 0.40293 0.84179 0.0
C480 C 0.11534 0.39354 0.83329 0.0
C481 C 0.14953 0.41145 0.87135 0.0
C482 C 0.09752 0.40229 0.884 0.0
C483 C 0.0628 0.37963 0.8468 0.0
C484 C 0.9885 0.27106 0.87833 0.0
C485 C 1.00779 0.25459 0.85968 0.0
H486 H 0.95489 0.30943 0.91157 0.0
C487 C 0.96269 0.33654 0.7847 0.0
C488 C 0.97579 0.42122 0.80314 0.0
C489 C 0.88573 0.38632 0.70231 0.0
C490 C 0.84122 0.37687 0.67162 0.0
C491 C 0.84741 0.42489 0.69699 0.0
C492 C 0.87476 0.41523 0.70868 0.0
C493 C 0.8308 0.40596 0.67862 0.0
C494 C 0.86876 0.36697 0.68386 0.0
C495 C 0.91385 0.37554 0.71616 0.0
H496 H 0.16189 0.40311 0.82552 0.0
H497 H 0.11164 0.38611 0.8105 0.0
H498 H 0.17196 0.41819 0.87761 0.0
H499 H 0.0797 0.40147 0.90051 0.0
H500 H 0.83897 0.44713 0.70231 0.0
H501 H 0.88708 0.43023 0.72302 0.0
H502 H 0.80949 0.41401 0.67006 0.0
H503 H 0.87698 0.34449 0.67896 0.0
C504 C 0.96316 0.79673 0.05078 0.0
C505 C 0.96564 0.84396 0.02346 0.0
C506 C 0.94921 0.81906 0.03387 0.0
C507 C 0.99665 0.84512 0.02858 0.0
C508 C 0.99398 0.79877 0.05739 0.0
C509 C 0.01081 0.82252 0.0454 0.0
N510 N 0.94606 0.77479 0.06324 0.0
C511 C 0.9576 0.75659 0.08503 0.0
C512 C 1.00663 0.77787 0.07723 0.0
C513 C 0.98822 0.75706 0.09158 0.0
Gd514 Gd 0.8677 0.71147 0.99051 0.0
Gd515 Gd 0.89517 0.77603 0.05034 0.0
N516 N 0.91916 0.81747 0.02933 0.0
C517 C 0.95018 0.86748 0.0092 0.0
C518 C 0.90367 0.84115 0.0173 0.0
C519 C 0.91899 0.86625 1.00648 0.0
H520 H 0.87956 0.84045 0.01602 0.0
H521 H 0.90675 0.88469 0.99629 0.0
H522 H 0.89247 0.66189 0.04324 0.0
H523 H 0.9431 0.74195 0.09769 0.0
H524 H 0.87099 0.62198 0.07456 0.0
H525 H 0.962 0.88704 1.00098 0.0
H526 H 0.00971 0.8639 0.02046 0.0
H527 H 0.81015 0.74202 0.95286 0.0
H528 H 0.03024 0.77864 0.08283 0.0
H529 H 0.99744 0.74187 0.10819 0.0
H530 H 0.76741 0.61941 0.04635 0.0
H531 H 0.03456 0.8243 0.05007 0.0
H532 H 0.73201 0.691 0.97424 0.0
H533 H 0.75618 0.73231 0.94624 0.0
N534 N 0.81605 0.7074 0.98527 0.0
C535 C 0.80347 0.68415 1.0005 0.0
C536 C 0.79965 0.72449 0.96584 0.0
C537 C 0.75564 0.69537 0.97751 0.0
C538 C 0.76916 0.71881 0.96176 0.0
C539 C 0.77275 0.67776 0.99722 0.0
H540 H 0.73648 0.64888 0.01136 0.0
N541 N 0.85092 0.67387 0.0231 0.0
C542 C 0.82124 0.66715 0.02009 0.0
C543 C 0.82639 0.6277 0.057 0.0
C544 C 0.80826 0.64384 0.03704 0.0
C545 C 0.86883 0.65768 0.04195 0.0
C546 C 0.85676 0.63465 0.05946 0.0
O547 O 0.90977 0.78188 1.00129 0.0
O548 O 0.91164 0.73425 0.98049 0.0
O549 O 0.87766 0.66723 0.97132 0.0
O550 O 0.85932 0.70277 0.94357 0.0
O551 O 0.85296 0.78202 0.0232 0.0
O552 O 0.85688 0.75985 0.97632 0.0
O553 O 0.83817 0.72804 0.02848 0.0
O554 O 0.86955 0.73589 0.06831 0.0
O555 O 0.86092 0.80247 0.07382 0.0
O556 O 0.90587 0.80046 0.09084 0.0
O557 O 0.9133 0.70474 0.01169 0.0
O558 O 0.90825 0.72737 0.05783 0.0
C559 C 0.91766 0.76314 0.97959 0.0
C560 C 0.84951 0.7828 0.99395 0.0
C561 C 0.8858 0.66303 0.9183 0.0
C562 C 0.90695 0.62059 0.88969 0.0
C563 C 0.90382 0.67039 0.86743 0.0
C564 C 0.89101 0.68183 0.89354 0.0
C565 C 0.91174 0.64009 0.86549 0.0
C566 C 0.89376 0.63209 0.91621 0.0
C567 C 0.86895 0.67497 0.94456 0.0
C568 C 0.77768 0.63737 0.03362 0.0
C569 C 0.76003 0.65417 0.0137 0.0
H570 H 0.8172 0.60968 0.07047 0.0
C571 C 0.84321 0.72832 0.05748 0.0
C572 C 0.92349 0.71087 0.03864 0.0
C573 C 0.8679 0.80705 0.12634 0.0
C574 C 0.85083 0.82913 0.17361 0.0
C575 C 0.85898 0.77513 0.16947 0.0
C576 C 0.86748 0.77844 0.13961 0.0
C577 C 0.85062 0.80023 0.18632 0.0
C578 C 0.85979 0.83255 0.14349 0.0
C579 C 0.87884 0.81033 0.09539 0.0
H580 H 0.90737 0.68509 0.84844 0.0
H581 H 0.88464 0.70537 0.894 0.0
H582 H 0.92149 0.63172 0.84485 0.0
H583 H 0.88939 0.61705 0.9348 0.0
H584 H 0.85892 0.75302 0.17963 0.0
H585 H 0.87416 0.75871 0.12697 0.0
H586 H 0.84405 0.79711 0.20948 0.0
H587 H 0.8603 0.85477 0.13348 0.0
C588 C 0.55124 0.55994 0.21329 0.0
C589 C 0.52309 0.56158 0.16678 0.0
C590 C 0.53421 0.57596 0.19258 0.0
C591 C 0.52878 0.53079 0.16242 0.0
C592 C 0.55812 0.52935 0.20824 0.0
C593 C 0.54627 0.51473 0.18308 0.0
N594 N 0.56262 0.57469 0.23735 0.0
C595 C 0.58382 0.56128 0.2549 0.0
C596 C 0.57762 0.51465 0.22804 0.0
C597 C 0.59102 0.53088 0.25112 0.0
Gd598 Gd 0.48938 0.64924 0.3076 0.0
Gd599 Gd 0.54875 0.62539 0.24168 0.0
N600 N 0.52867 0.60567 0.19757 0.0
C601 C 0.50646 0.57862 0.1462 0.0
C602 C 0.51357 0.62259 0.17707 0.0
C603 C 0.50187 0.60932 0.15128 0.0
H604 H 0.51115 0.64635 0.18029 0.0
H605 H 0.48957 0.62282 0.13522 0.0
H606 H 0.52883 0.62678 0.36607 0.0
H607 H 0.59595 0.57424 0.27117 0.0
H608 H 0.55079 0.64911 0.41193 0.0
H609 H 0.4974 0.56838 0.12618 0.0
H610 H 0.52013 0.51929 0.14291 0.0
H611 H 0.44767 0.70517 0.27516 0.0
H612 H 0.58351 0.49117 0.22491 0.0
H613 H 0.60737 0.52018 0.26558 0.0
H614 H 0.52832 0.75454 0.40306 0.0
H615 H 0.55107 0.49115 0.17904 0.0
H616 H 0.46723 0.78671 0.32101 0.0
H617 H 0.44115 0.75957 0.28056 0.0
N618 N 0.48079 0.70147 0.30958 0.0
C619 C 0.49405 0.7157 0.33304 0.0
C620 C 0.46099 0.71667 0.29164 0.0
C621 C 0.4712 0.76282 0.31805 0.0
C622 C 0.45652 0.74761 0.29512 0.0
C623 C 0.48962 0.74679 0.33782 0.0
H624 H 0.4996 0.78458 0.36668 0.0
N625 N 0.51447 0.66892 0.34865 0.0
C626 C 0.51062 0.69885 0.35353 0.0
C627 C 0.53756 0.69438 0.40029 0.0
C628 C 0.5226 0.7125 0.37932 0.0
C629 C 0.52765 0.65083 0.36963 0.0
C630 C 0.53984 0.66337 0.39555 0.0
O631 O 0.50398 0.59919 0.24197 0.0
O632 O 0.46816 0.62737 0.26821 0.0
O633 O 0.47019 0.61711 0.33933 0.0
O634 O 0.44846 0.65997 0.33176 0.0
O635 O 0.52202 0.66824 0.23571 0.0
O636 O 0.47627 0.66419 0.25975 0.0
O637 O 0.53882 0.66077 0.31046 0.0
O638 O 0.54829 0.67171 0.26202 0.0
O639 O 0.57369 0.64136 0.20304 0.0
O640 O 0.59736 0.62934 0.2436 0.0
O641 O 0.50966 0.60261 0.30711 0.0
O642 O 0.5575 0.60916 0.28925 0.0
C643 C 0.47596 0.6048 0.2507 0.0
C644 C 0.49287 0.67256 0.23652 0.0
C645 C 0.41902 0.62196 0.35468 0.0
C646 C 0.3843 0.60363 0.39306 0.0
C647 C 0.36746 0.61104 0.34175 0.0
C648 C 0.39583 0.6212 0.33358 0.0
C649 C 0.36163 0.60253 0.37127 0.0
C650 C 0.41327 0.61282 0.38444 0.0
C651 C 0.44835 0.63504 0.34703 0.0
C652 C 0.51898 0.74359 0.38355 0.0
C653 C 0.50268 0.7607 0.36278 0.0
H654 H 0.547 0.70405 0.42041 0.0
C655 C 0.55256 0.67714 0.2904 0.0
C656 C 0.53811 0.59483 0.30628 0.0
C657 C 0.62467 0.62734 0.19785 0.0
C658 C 0.66973 0.636 0.16768 0.0
C659 C 0.64943 0.58559 0.17291 0.0
C660 C 0.62635 0.59664 0.19096 0.0
C661 C 0.67086 0.60508 0.16123 0.0
C662 C 0.64661 0.64707 0.18635 0.0
C663 C 0.59969 0.63916 0.21614 0.0
H664 H 0.34968 0.61046 0.3253 0.0
H665 H 0.3994 0.62932 0.31106 0.0
H666 H 0.33925 0.59531 0.3772 0.0
H667 H 0.43087 0.61419 0.4011 0.0
H668 H 0.65057 0.56184 0.16772 0.0
H669 H 0.60974 0.5812 0.19929 0.0
H670 H 0.68843 0.59599 0.14704 0.0
H671 H 0.64527 0.67093 0.19126 0.0
C672 C 0.22397 0.55527 0.21067 0.0
C673 C 0.24807 0.6035 0.203 0.0
C674 C 0.23633 0.5765 0.19148 0.0
C675 C 0.24756 0.60867 0.234 0.0
C676 C 0.22249 0.56092 0.24172 0.0
C677 C 0.23475 0.58748 0.25329 0.0
N678 N 0.21215 0.52979 0.19886 0.0
C679 C 0.19565 0.51097 0.21639 0.0
C680 C 0.20782 0.54019 0.26012 0.0
C681 C 0.19389 0.51535 0.24729 0.0
Gd682 Gd 0.27099 0.45813 0.11664 0.0
Gd683 Gd 0.21479 0.52568 0.14655 0.0
N684 N 0.23672 0.57084 0.16154 0.0
C685 C 0.25997 0.62451 0.18295 0.0
C686 C 0.24682 0.59185 0.14188 0.0
C687 C 0.25915 0.61873 0.15223 0.0
H688 H 0.24434 0.58836 0.11829 0.0
H689 H 0.26751 0.63519 0.13648 0.0
H690 H 0.23088 0.39978 0.13842 0.0
H691 H 0.18254 0.49342 0.20651 0.0
H692 H 0.20613 0.35566 0.11533 0.0
H693 H 0.26935 0.64544 0.19092 0.0
H694 H 0.25664 0.6292 0.24325 0.0
H695 H 0.31154 0.49083 0.06104 0.0
H696 H 0.20607 0.54381 0.28404 0.0
H697 H 0.18109 0.50002 0.26106 0.0
H698 H 0.22371 0.36824 0.01 0.0
H699 H 0.23395 0.59209 0.2771 0.0
H700 H 0.28666 0.44913 0.97883 0.0
H701 H 0.31562 0.48734 1.0064 0.0
N702 N 0.27735 0.45757 0.06446 0.0
C703 C 0.26247 0.43529 0.04993 0.0
C704 C 0.29721 0.47531 0.04934 0.0
C705 C 0.28387 0.45126 1.00283 0.0
C706 C 0.30019 0.47292 0.0183 0.0
C707 C 0.26532 0.43162 0.01869 0.0
H708 H 0.25242 0.40475 0.9804 0.0
N709 N 0.2437 0.41855 0.09665 0.0
C710 C 0.24586 0.4148 0.06656 0.0
C711 C 0.21743 0.36884 0.07025 0.0
C712 C 0.23227 0.39003 0.05246 0.0
C713 C 0.23072 0.39722 0.11434 0.0
C714 C 0.21694 0.37228 0.10136 0.0
O715 O 0.26195 0.5238 0.1679 0.0
O716 O 0.29536 0.49635 0.13768 0.0
O717 O 0.29104 0.42482 0.14676 0.0
O718 O 0.31066 0.433 0.10336 0.0
O719 O 0.23671 0.53244 0.10154 0.0
O720 O 0.282 0.50625 0.10177 0.0
O721 O 0.22085 0.45748 0.1086 0.0
O722 O 0.20724 0.50626 0.10028 0.0
O723 O 0.18561 0.56323 0.13291 0.0
O724 O 0.1681 0.52635 0.15889 0.0
O725 O 0.25435 0.4584 0.16424 0.0
O726 O 0.20655 0.47731 0.15991 0.0
C727 C 0.2893 0.51431 0.16042 0.0
C728 C 0.26527 0.52999 0.09461 0.0
C729 C 0.34223 0.41057 0.13998 0.0
C730 C 0.37795 0.37392 0.16101 0.0
C731 C 0.39401 0.4246 0.1478 0.0
C732 C 0.36514 0.43188 0.13819 0.0
C733 C 0.40044 0.39593 0.15895 0.0
C734 C 0.34868 0.38158 0.1514 0.0
C735 C 0.31213 0.41738 0.12797 0.0
C736 C 0.23429 0.38695 0.02126 0.0
C737 C 0.25059 0.40778 1.0044 0.0
H738 H 0.20677 0.34948 0.06024 0.0
C739 C 0.20661 0.47777 0.09267 0.0
C740 C 0.2263 0.45945 0.17288 0.0
C741 C 0.13384 0.55082 0.12657 0.0
C742 C 0.0916 0.57711 0.10292 0.0
C743 C 0.09227 0.52253 0.10586 0.0
C744 C 0.12 0.52323 0.12005 0.0
C745 C 0.07817 0.54918 0.09737 0.0
C746 C 0.11941 0.57795 0.11799 0.0
C747 C 0.16177 0.55109 0.14453 0.0
H748 H 0.41165 0.44112 0.14614 0.0
H749 H 0.36086 0.45396 0.1288 0.0
H750 H 0.42332 0.39085 0.16536 0.0
H751 H 0.33096 0.36506 0.15262 0.0
H752 H 0.08157 0.5012 0.10153 0.0
H753 H 0.1303 0.50204 0.12643 0.0
H754 H 0.05649 0.548 0.08651 0.0
H755 H 0.12967 0.5994 0.12298 0.0
C756 C 0.70993 0.96462 0.80649 0.0
C757 C 0.74072 0.91942 0.80347 0.0
C758 C 0.72843 0.94336 0.8202 0.0
C759 C 0.73425 0.91714 0.77279 0.0
C760 C 0.70264 0.96181 0.77592 0.0
C761 C 0.71521 0.93822 0.75908 0.0
N762 N 0.69823 0.98738 0.82322 0.0
C763 C 0.67678 1.00605 0.81166 0.0
C764 C 0.68237 0.9824 0.76333 0.0
C765 C 0.66902 1.00432 0.78142 0.0
Gd766 Gd 0.77329 0.05319 0.89724 0.0
Gd767 Gd 0.71368 0.98846 0.87323 0.0
N768 N 0.73454 0.94623 0.8499 0.0
C769 C 0.75911 0.89842 0.81812 0.0
C770 C 0.75174 0.92545 0.8645 0.0
C771 C 0.76447 0.90135 0.84879 0.0
H772 H 0.75577 0.9275 0.88816 0.0
H773 H 0.77843 0.88507 0.86035 0.0
H774 H 0.72946 0.10871 0.87277 0.0
H775 H 0.6652 0.02198 0.82586 0.0
H776 H 0.70312 0.15323 0.89378 0.0
H777 H 0.76903 0.87973 0.80601 0.0
H778 H 0.7436 0.89895 0.75953 0.0
H779 H 0.81581 0.02436 0.9535 0.0
H780 H 0.67618 0.98098 0.73992 0.0
H781 H 0.65246 0.01962 0.77219 0.0
H782 H 0.72686 0.15012 0.99854 0.0
H783 H 0.71003 0.93585 0.7355 0.0
H784 H 0.79483 0.07381 0.03275 0.0
H785 H 0.82271 0.03294 1.00732 0.0
N786 N 0.78161 0.05786 0.9488 0.0
C787 C 0.76696 0.08131 0.96205 0.0
C788 C 0.80211 0.04116 0.96446 0.0
C789 C 0.79095 0.06959 0.00919 0.0
C790 C 0.80665 0.0464 0.99495 0.0
C791 C 0.77123 0.08771 0.99267 0.0
H792 H 0.75919 0.11744 0.02923 0.0
N793 N 0.74501 0.09356 0.91514 0.0
C794 C 0.74846 0.09981 0.94474 0.0
C795 C 0.71718 0.14404 0.93907 0.0
C796 C 0.73414 0.12502 0.9576 0.0
C797 C 0.73015 0.11299 0.89658 0.0
C798 C 0.71546 0.13818 0.90838 0.0
O799 O 0.75838 0.99029 0.84719 0.0
O800 O 0.79507 0.01253 0.87718 0.0
O801 O 0.7945 0.08347 0.86482 0.0
O802 O 0.81226 0.07893 0.90958 0.0
O803 O 0.74159 0.97702 0.91353 0.0
O804 O 0.78542 1.0058 0.91457 0.0
O805 O 0.72429 0.05405 0.90984 0.0
O806 O 0.71338 1.00567 0.92052 0.0
O807 O 0.6885 0.94835 0.88508 0.0
O808 O 0.66552 0.99118 0.88011 0.0
O809 O 0.75401 0.05354 0.85051 0.0
O810 O 0.70625 0.03685 0.85913 0.0
C811 C 0.78663 0.99525 0.85488 0.0
C812 C 0.76948 0.98168 0.92196 0.0
C813 C 0.84478 0.10011 0.87354 0.0
C814 C 0.87951 0.13743 0.85333 0.0
C815 C 0.8982 0.08972 0.87286 0.0
C816 C 0.86904 0.08082 0.87961 0.0
C817 C 0.90344 0.11774 0.85982 0.0
C818 C 0.85009 0.12851 0.86047 0.0
C819 C 0.81441 0.09264 0.88399 0.0
C820 C 0.7378 0.13091 0.98824 0.0
C821 C 0.75623 0.11229 1.00572 0.0
H822 H 0.70595 0.16372 0.94812 0.0
C823 C 0.71285 0.03401 0.92777 0.0
C824 C 0.72568 0.05178 0.84282 0.0
C825 C 0.63612 0.94697 0.87559 0.0
C826 C 0.59209 0.91596 0.88566 0.0
C827 C 0.60245 0.93362 0.8352 0.0
C828 C 0.62821 0.94806 0.84525 0.0
C829 C 0.58459 0.91756 0.85518 0.0
C830 C 0.61783 0.93103 0.89589 0.0
C831 C 0.66295 0.96265 0.88658 0.0
H832 H 0.91688 0.07497 0.87807 0.0
H833 H 0.86549 0.05919 0.8902 0.0
H834 H 0.92634 0.12426 0.8552 0.0
H835 H 0.83146 0.14369 0.85616 0.0
H836 H 0.59636 0.93477 0.81178 0.0
H837 H 0.64186 0.96001 0.82931 0.0
H838 H 0.56472 0.90647 0.84687 0.0
H839 H 0.62378 0.93004 0.91941 0.0
C840 C 0.80402 0.05133 0.30805 0.0
C841 C 0.77404 0.09712 0.30537 0.0
C842 C 0.78588 0.07281 0.32191 0.0
C843 C 0.78052 0.09951 0.27469 0.0
C844 C 0.81153 0.05438 0.27754 0.0
C845 C 0.79928 0.07826 0.26084 0.0
N846 N 0.81542 0.02829 0.32467 0.0
C847 C 0.83712 0.00987 0.31315 0.0
C848 C 0.83179 0.03382 0.2649 0.0
C849 C 0.84507 0.01182 0.28294 0.0
Gd850 Gd 0.73893 0.96239 0.39671 0.0
Gd851 Gd 0.79957 0.02692 0.37466 0.0
N852 N 0.77963 0.06976 0.35158 0.0
C853 C 0.75617 0.11842 0.32023 0.0
C854 C 0.76322 0.09096 0.36644 0.0
C855 C 0.751 0.11547 0.35096 0.0
H856 H 0.75949 0.08884 0.39011 0.0
H857 H 0.73756 0.13204 0.36272 0.0
H858 H 0.7796 0.90497 0.37216 0.0
H859 H 0.84872 0.99394 0.32731 0.0
H860 H 0.80023 0.85706 0.39212 0.0
H861 H 0.74661 0.1374 0.30828 0.0
H862 H 0.77149 0.11796 0.26156 0.0
H863 H 0.69827 0.99398 0.45344 0.0
H864 H 0.83815 0.03542 0.24154 0.0
H865 H 0.86174 0.99663 0.27372 0.0
H866 H 0.77271 0.85845 0.49602 0.0
H867 H 0.80458 0.08077 0.23729 0.0
H868 H 0.7129 0.94072 0.5315 0.0
H869 H 0.6897 0.98479 0.50676 0.0
N870 N 0.72961 0.95775 0.44825 0.0
C871 C 0.74166 0.93266 0.46116 0.0
C872 C 0.71035 0.97581 0.46405 0.0
C873 C 0.7178 0.94527 0.50817 0.0
C874 C 0.70474 0.97023 0.49431 0.0
C875 C 0.73598 0.92576 0.49148 0.0
H876 H 0.74355 0.89358 0.52719 0.0
N877 N 0.76354 0.91974 0.41448 0.0
C878 C 0.75841 0.91279 0.44366 0.0
C879 C 0.78498 0.86564 0.43715 0.0
C880 C 0.76943 0.88564 0.45589 0.0
C881 C 0.77739 0.89978 0.39571 0.0
C882 C 0.7888 0.87266 0.40688 0.0
O883 O 0.75482 0.02792 0.34871 0.0
O884 O 0.71745 1.00229 0.37516 0.0
O885 O 0.72046 0.93088 0.36431 0.0
O886 O 0.69703 0.93962 0.40586 0.0
O887 O 0.77215 0.03499 0.41623 0.0
O888 O 0.72662 0.01019 0.41288 0.0
O889 O 0.78776 0.95845 0.4107 0.0
O890 O 0.79818 1.00707 0.42094 0.0
O891 O 0.82375 0.06661 0.38935 0.0
O892 O 0.84785 0.02503 0.381 0.0
O893 O 0.75941 0.96361 0.35052 0.0
O894 O 0.80745 0.97874 0.3598 0.0
C895 C 0.72652 0.0206 0.35392 0.0
C896 C 0.74309 0.03362 0.42094 0.0
C897 C 0.66901 0.91728 0.36668 0.0
C898 C 0.6337 0.87945 0.34888 0.0
C899 C 0.61947 0.93241 0.35011 0.0
C900 C 0.64764 0.9399 0.36141 0.0
C901 C 0.6124 0.9024 0.34416 0.0
C902 C 0.66218 0.88713 0.35991 0.0
C903 C 0.69772 0.92405 0.3812 0.0
C904 C 0.76429 0.87913 0.48619 0.0
C905 C 0.74772 0.89918 0.50395 0.0
H906 H 0.79372 0.84453 0.44573 0.0
C907 C 0.80215 0.97852 0.42648 0.0
C908 C 0.78802 0.96356 0.34376 0.0
C909 C 0.87552 0.07042 0.37811 0.0
C910 C 0.9195 0.1014 0.38814 0.0
C911 C 0.90579 0.08898 0.337 0.0
C912 C 0.88117 0.07276 0.34733 0.0
C913 C 0.92476 0.10332 0.35722 0.0
C914 C 0.89489 0.08467 0.39859 0.0
C915 C 0.84975 0.05311 0.38926 0.0
H916 H 0.60292 0.9499 0.34624 0.0
H917 H 0.65259 0.96319 0.36647 0.0
H918 H 0.59034 0.8971 0.33563 0.0
H919 H 0.67864 0.86956 0.36416 0.0
H920 H 0.91013 0.09052 0.31321 0.0
H921 H 0.86662 0.06213 0.33126 0.0
H922 H 0.94374 0.11582 0.34875 0.0
H923 H 0.89072 0.08297 0.42245 0.0
C924 C 0.21141 0.55054 0.55861 0.0
C925 C 0.16634 0.52024 0.55851 0.0
C926 C 0.19087 0.53277 0.57378 0.0
C927 C 0.16307 0.52534 0.52764 0.0
C928 C 0.20738 0.55689 0.52795 0.0
C929 C 0.1835 0.54367 0.51241 0.0
N930 N 0.23426 0.56306 0.57422 0.0
C931 C 0.25135 0.58498 0.56156 0.0
C932 C 0.22684 0.57718 0.51407 0.0
C933 C 0.24853 0.59178 0.53114 0.0
Gd934 Gd 0.30591 0.49268 0.64884 0.0
Gd935 Gd 0.23778 0.54891 0.62463 0.0
N936 N 0.19471 0.5281 0.60362 0.0
C937 C 0.14565 0.50326 0.57484 0.0
C938 C 0.17398 0.51279 0.6199 0.0
C939 C 0.14931 0.49982 0.60574 0.0
H940 H 0.17625 0.51095 0.64383 0.0
H941 H 0.13304 0.48736 0.61868 0.0
H942 H 0.36076 0.53753 0.62636 0.0
H943 H 0.26664 0.59781 0.57507 0.0
H944 H 0.40326 0.56509 0.64903 0.0
H945 H 0.12648 0.49324 0.56392 0.0
H946 H 0.14447 0.51571 0.51546 0.0
H947 H 0.27749 0.4484 0.70397 0.0
H948 H 0.22448 0.5827 0.49056 0.0
H949 H 0.2627 0.60865 0.52103 0.0
H950 H 0.39674 0.54146 0.75369 0.0
H951 H 0.18024 0.54804 0.48877 0.0
H952 H 0.32243 0.47103 0.78502 0.0
H953 H 0.28421 0.44166 0.758 0.0
N954 N 0.30905 0.48419 0.70055 0.0
C955 C 0.33129 0.49949 0.71466 0.0
C956 C 0.29298 0.46285 0.71554 0.0
C957 C 0.31893 0.47488 0.76132 0.0
C958 C 0.29724 0.45835 0.74619 0.0
C959 C 0.33667 0.4953 0.7455 0.0
H960 H 0.36434 0.50812 0.78316 0.0
N961 N 0.34458 0.52168 0.66819 0.0
C962 C 0.34967 0.51848 0.69803 0.0
C963 C 0.39274 0.55092 0.69399 0.0
C964 C 0.37369 0.53348 0.71181 0.0
C965 C 0.36416 0.53695 0.65033 0.0
C966 C 0.38816 0.55236 0.66306 0.0
O967 O 0.2396 0.50376 0.59896 0.0
O968 O 0.26794 0.4694 0.6269 0.0
O969 O 0.33845 0.47345 0.6175 0.0
O970 O 0.33236 0.45361 0.66117 0.0
O971 O 0.22828 0.5206 0.66541 0.0
O972 O 0.25891 0.4777 0.66446 0.0
O973 O 0.30507 0.54233 0.6599 0.0
O974 O 0.25636 0.54819 0.67138 0.0
O975 O 0.19815 0.57371 0.6388 0.0
O976 O 0.23951 0.59749 0.63047 0.0
O977 O 0.30532 0.51126 0.60188 0.0
O978 O 0.28527 0.55844 0.60877 0.0
C979 C 0.24853 0.47601 0.60567 0.0
C980 C 0.23367 0.49212 0.67162 0.0
C981 C 0.35257 0.42212 0.62369 0.0
C982 C 0.38813 0.38579 0.60264 0.0
C983 C 0.33748 0.37047 0.61563 0.0
C984 C 0.33071 0.39964 0.62514 0.0
C985 C 0.36594 0.36355 0.60441 0.0
C986 C 0.38129 0.41512 0.61249 0.0
C987 C 0.34676 0.45229 0.63592 0.0
C988 C 0.37846 0.53 0.74268 0.0
C989 C 0.36 0.511 0.75947 0.0
H990 H 0.41151 0.56271 0.70377 0.0
C991 C 0.28432 0.55398 0.67694 0.0
C992 C 0.30243 0.5395 0.59375 0.0
C993 C 0.194 0.62544 0.62728 0.0
C994 C 0.16372 0.67034 0.63716 0.0
C995 C 0.17249 0.65378 0.58606 0.0
C996 C 0.18946 0.62945 0.59648 0.0
C997 C 0.15961 0.67407 0.60625 0.0
C998 C 0.18113 0.64603 0.64767 0.0
C999 C 0.21147 0.59967 0.63862 0.0
H1000 H 0.32069 0.35308 0.61716 0.0
H1001 H 0.30862 0.40454 0.63407 0.0
H1002 H 0.37077 0.34067 0.5975 0.0
H1003 H 0.39829 0.43243 0.61154 0.0
H1004 H 0.16917 0.65684 0.56226 0.0
H1005 H 0.19882 0.61376 0.58052 0.0
H1006 H 0.14643 0.69277 0.59774 0.0
H1007 H 0.1844 0.64301 0.67154 0.0
H1008 H 0.15958 0.30478 0.57861 0.0
H1009 H 0.19823 0.326 0.49241 0.0
H1010 H 0.17644 0.35329 0.59781 0.0
H1011 H 0.21454 0.37459 0.51153 0.0
H1012 H 0.21501 0.47158 0.55323 0.0
H1013 H 0.19305 0.42535 0.53224 0.0
H1014 H 0.2275 0.37444 0.60716 0.0
H1015 H 0.24903 0.41921 0.62772 0.0
C1016 C 0.17188 0.31963 0.56386 0.0
C1017 C 0.1777 0.31143 0.53408 0.0
C1018 C 0.18125 0.34752 0.57473 0.0
C1019 C 0.19647 0.36786 0.556 0.0
C1020 C 0.20237 0.35964 0.52627 0.0
C1021 C 0.19334 0.33162 0.51551 0.0
C1022 C 0.21763 0.45054 0.56519 0.0
C1023 C 0.2339 0.44933 0.5921 0.0
C1024 C 0.20522 0.42411 0.55318 0.0
C1025 C 0.20842 0.39637 0.56827 0.0
C1026 C 0.22428 0.39545 0.59521 0.0
C1027 C 0.23696 0.42135 0.60679 0.0
H1028 H 0.81961 0.94688 0.8719 0.0
H1029 H 0.81085 0.01359 0.80256 0.0
H1030 H 0.86914 0.93267 0.85298 0.0
H1031 H 0.86042 1.00017 0.7836 0.0
H1032 H 0.93874 0.95151 0.74097 0.0
H1033 H 0.89001 0.96566 0.75931 0.0
H1034 H 0.91954 0.9495 0.85012 0.0
H1035 H 0.96879 0.93362 0.83119 0.0
C1036 C 0.82816 0.95803 0.85217 0.0
C1037 C 0.81138 0.98094 0.83834 0.0
C1038 C 0.85675 0.95029 0.84157 0.0
C1039 C 0.86926 0.96552 0.81694 0.0
C1040 C 0.85165 0.98762 0.8024 0.0
C1041 C 0.82305 0.99522 0.81301 0.0
C1042 C 0.93519 0.95119 0.76497 0.0
C1043 C 0.95757 0.94032 0.78453 0.0
C1044 C 0.90698 0.95952 0.77556 0.0
C1045 C 0.90032 0.9583 0.80624 0.0
C1046 C 0.92346 0.94981 0.8262 0.0
C1047 C 0.95186 0.94103 0.81544 0.0
H1048 H 0.37903 0.66697 0.02158 0.0
H1049 H 0.29924 0.71759 0.04521 0.0
H1050 H 0.35725 0.62181 0.04068 0.0
H1051 H 0.2768 0.6707 0.06454 0.0
H1052 H 0.23976 0.5709 0.05669 0.0
H1053 H 0.25993 0.61979 0.04175 0.0
H1054 H 0.34217 0.5991 0.08857 0.0
H1055 H 0.322 0.55039 0.10353 0.0
C1056 C 0.35681 0.66874 0.03121 0.0
C1057 C 0.34098 0.69634 0.03185 0.0
C1058 C 0.34436 0.6425 0.04232 0.0
C1059 C 0.31539 0.64257 0.05423 0.0
C1060 C 0.29926 0.67002 0.05533 0.0
C1061 C 0.3121 0.69685 0.04448 0.0
C1062 C 0.26235 0.57667 0.06333 0.0
C1063 C 0.27946 0.55671 0.08101 0.0
C1064 C 0.27363 0.60487 0.05527 0.0
C1065 C 0.30243 0.6135 0.06433 0.0
C1066 C 0.31986 0.5931 0.08124 0.0
C1067 C 0.30852 0.56501 0.08945 0.0
H1068 H 0.54898 0.09458 0.32795 0.0
H1069 H 0.57104 0.05581 0.24206 0.0
H1070 H 0.59813 0.07873 0.34711 0.0
H1071 H 0.62019 0.04198 0.26013 0.0
H1072 H 0.697 0.99554 0.30815 0.0
H1073 H 0.64777 0.01002 0.28961 0.0
H1074 H 0.64985 0.09001 0.34472 0.0
H1075 H 0.6988 0.07428 0.36413 0.0
C1076 C 0.56404 0.08214 0.31339 0.0
C1077 C 0.556 0.07627 0.28357 0.0
C1078 C 0.59251 0.07365 0.3241 0.0
C1079 C 0.61353 0.05927 0.30514 0.0
C1080 C 0.60476 0.05251 0.2757 0.0
C1081 C 0.57639 0.06053 0.26524 0.0
C1082 C 0.68733 0.01678 0.31536 0.0
C1083 C 0.70212 0.03443 0.33657 0.0
C1084 C 0.65892 0.02507 0.30496 0.0
C1085 C 0.64449 0.0513 0.31558 0.0
C1086 C 0.65991 0.06949 0.33624 0.0
C1087 C 0.68834 0.06097 0.3468 0.0
H1088 H 0.65003 0.20575 0.44317 0.0
H1089 H 0.70802 0.19848 0.52008 0.0
H1090 H 0.66689 0.15579 0.42624 0.0
H1091 H 0.72393 0.1488 0.5042 0.0
H1092 H 0.77156 0.07587 0.45375 0.0
H1093 H 0.7532 0.12458 0.46889 0.0
H1094 H 0.66472 0.10204 0.43697 0.0
H1095 H 0.68398 0.05299 0.41988 0.0
C1096 C 0.66685 0.19374 0.45605 0.0
C1097 C 0.67811 0.20614 0.48266 0.0
C1098 C 0.67605 0.16488 0.44674 0.0
C1099 C 0.69684 0.14807 0.4638 0.0
C1100 C 0.70835 0.16105 0.49009 0.0
C1101 C 0.69925 0.18965 0.49927 0.0
C1102 C 0.74803 0.08093 0.45022 0.0
C1103 C 0.72927 0.06039 0.43552 0.0
C1104 C 0.73741 0.10907 0.45906 0.0
C1105 C 0.70739 0.1175 0.45427 0.0
C1106 C 0.68811 0.09652 0.44064 0.0
C1107 C 0.69896 0.06819 0.43136 0.0
H1108 H 0.05013 0.43193 0.69177 0.0
H1109 H 0.08645 0.42762 0.78106 0.0
H1110 H 0.09856 0.45053 0.6732 0.0
H1111 H 0.13454 0.44442 0.76282 0.0
H1112 H 0.20935 0.50296 0.72592 0.0
H1113 H 0.16035 0.48672 0.7438 0.0
H1114 H 0.15008 0.43164 0.66483 0.0
H1115 H 0.19916 0.44827 0.64717 0.0
C1116 C 0.06813 0.43556 0.70746 0.0
C1117 C 0.06436 0.42843 0.73785 0.0
C1118 C 0.09608 0.44563 0.69682 0.0
C1119 C 0.12067 0.44877 0.71648 0.0
C1120 C 0.11625 0.4427 0.747 0.0
C1121 C 0.08857 0.43293 0.75747 0.0
C1122 C 0.19702 0.48656 0.71298 0.0
C1123 C 0.20856 0.47598 0.68575 0.0
C1124 C 0.16878 0.47745 0.723 0.0
C1125 C 0.15105 0.45791 0.70573 0.0
C1126 C 0.16294 0.44684 0.67866 0.0
C1127 C 0.19148 0.45565 0.6689 0.0
H1128 H 0.7414 0.93936 0.95501 0.0
H1129 H 0.82916 0.96486 0.92326 0.0
H1130 H 0.76087 0.89072 0.97016 0.0
H1131 H 0.84891 0.91538 0.9388 0.0
H1132 H 0.81296 0.82131 0.02334 0.0
H1133 H 0.79687 0.87107 1.00803 0.0
H1134 H 0.83964 0.85853 0.92214 0.0
H1135 H 0.85678 0.80808 0.93796 0.0
C1136 C 0.76508 0.93481 0.95179 0.0
C1137 C 0.78369 0.95592 0.93762 0.0
C1138 C 0.77618 0.90679 0.96035 0.0
C1139 C 0.80627 0.89909 0.95521 0.0
C1140 C 0.82544 0.92062 0.94246 0.0
C1141 C 0.81428 0.94904 0.93405 0.0
C1142 C 0.81876 0.82886 1.00101 0.0
C1143 C 0.83603 0.81067 0.98175 0.0
C1144 C 0.80958 0.85749 0.99231 0.0
C1145 C 0.81717 0.86876 0.96402 0.0
C1146 C 0.83388 0.85046 0.94428 0.0
C1147 C 0.84317 0.82149 0.95307 0.0
H1148 H 0.41952 0.60404 0.27242 0.0
H1149 H 0.47322 0.56666 0.20127 0.0
H1150 H 0.37509 0.58222 0.25129 0.0
H1151 H 0.42807 0.54475 0.17922 0.0
H1152 H 0.34325 0.4868 0.16679 0.0
H1153 H 0.38932 0.50706 0.18745 0.0
H1154 H 0.34242 0.58957 0.20928 0.0
H1155 H 0.29659 0.56908 0.18817 0.0
C1156 C 0.42194 0.59129 0.25203 0.0
C1157 C 0.45014 0.58783 0.23822 0.0
C1158 C 0.39623 0.57884 0.23976 0.0
C1159 C 0.39775 0.56225 0.21317 0.0
C1160 C 0.42606 0.55755 0.19975 0.0
C1161 C 0.45202 0.57016 0.21226 0.0
C1162 C 0.3428 0.5093 0.17594 0.0
C1163 C 0.31606 0.52631 0.17595 0.0
C1164 C 0.36929 0.52097 0.18766 0.0
C1165 C 0.36972 0.54998 0.19997 0.0
C1166 C 0.34287 0.56692 0.20034 0.0
C1167 C 0.31638 0.55518 0.18846 0.0
H1168 H 0.49474 0.15211 0.34546 0.0
H1169 H 0.55819 0.20159 0.29176 0.0
H1170 H 0.51483 0.17394 0.39032 0.0
H1171 H 0.57902 0.22348 0.33765 0.0
H1172 H 0.58407 0.27885 0.4255 0.0
H1173 H 0.56491 0.25804 0.37907 0.0
H1174 H 0.56002 0.17041 0.4206 0.0
H1175 H 0.57985 0.1913 0.46695 0.0
C1176 C 0.51322 0.16756 0.34305 0.0
C1177 C 0.52522 0.17456 0.31466 0.0
C1178 C 0.52487 0.17996 0.36906 0.0
C1179 C 0.54888 0.19998 0.36772 0.0
C1180 C 0.56048 0.20797 0.33941 0.0
C1181 C 0.54869 0.19538 0.31309 0.0
C1182 C 0.57897 0.25509 0.4248 0.0
C1183 C 0.58354 0.23668 0.45013 0.0
C1184 C 0.56814 0.24317 0.39804 0.0
C1185 C 0.56116 0.21255 0.39598 0.0
C1186 C 0.56499 0.19421 0.42149 0.0
C1187 C 0.57611 0.20616 0.44824 0.0
H1188 H 0.06554 0.23725 0.57692 0.0
H1189 H 0.09252 0.32667 0.55105 0.0
H1190 H 0.0508 0.25539 0.62535 0.0
H1191 H 0.07528 0.3458 0.59983 0.0
H1192 H 0.07306 0.36307 0.70265 0.0
H1193 H 0.08795 0.34683 0.65211 0.0
H1194 H 0.01717 0.28081 0.65342 0.0
H1195 H 1.00385 0.29597 0.70367 0.0
C1196 C 0.06771 0.26111 0.58128 0.0
C1197 C 0.08086 0.28026 0.56 0.0
C1198 C 0.05888 0.27171 0.60932 0.0
C1199 C 0.06199 0.30218 0.61712 0.0
C1200 C 0.07321 0.32202 0.59509 0.0
C1201 C 0.0826 0.31117 0.56683 0.0
C1202 C 0.06176 0.34418 0.69246 0.0
C1203 C 0.03793 0.33011 0.70745 0.0
C1204 C 0.06967 0.33539 0.66314 0.0
C1205 C 0.05389 0.31234 0.64827 0.0
C1206 C 0.0305 0.29807 0.66393 0.0
C1207 C 0.02284 0.30666 0.693 0.0
H1208 H 0.96525 0.88114 0.83225 0.0
H1209 H 0.9986 0.79544 0.80173 0.0
H1210 H 0.94604 0.85815 0.87755 0.0
H1211 H 0.9806 0.77194 0.8481 0.0
H1212 H 0.92263 0.73527 0.92504 0.0
H1213 H 0.94033 0.75619 0.87796 0.0
H1214 H 0.96188 0.83922 0.9232 0.0
H1215 H 0.94283 0.81856 0.96969 0.0
C1216 C 0.96826 0.85722 0.83527 0.0
C1217 C 0.98328 0.8401 0.81349 0.0
C1218 C 0.95763 0.84398 0.86152 0.0
C1219 C 0.9622 0.81313 0.86712 0.0
C1220 C 0.97639 0.7957 0.84467 0.0
C1221 C 0.98666 0.80905 0.81801 0.0
C1222 C 0.93126 0.75797 0.92501 0.0
C1223 C 0.93106 0.7753 0.95142 0.0
C1224 C 0.9416 0.76998 0.89787 0.0
C1225 C 0.95236 0.79963 0.89633 0.0
C1226 C 0.95304 0.81659 0.92302 0.0
C1227 C 0.94231 0.80467 0.95 0.0
H1228 H 0.51966 0.71153 0.19882 0.0
H1229 H 0.4366 0.66419 0.21216 0.0
H1230 H 0.50488 0.7244 0.14858 0.0
H1231 H 0.42026 0.67929 0.16179 0.0
H1232 H 0.41186 0.6856 0.05934 0.0
H1233 H 0.42696 0.67048 0.10996 0.0
H1234 H 0.47653 0.75334 0.11852 0.0
H1235 H 0.46303 0.76694 0.06802 0.0
C1236 C 0.4976 0.70479 0.19132 0.0
C1237 C 0.47932 0.68686 0.20961 0.0
C1238 C 0.48898 0.71227 0.16225 0.0
C1239 C 0.46126 0.70294 0.15058 0.0
C1240 C 0.44204 0.68643 0.16957 0.0
C1241 C 0.45104 0.67837 0.19877 0.0
C1242 C 0.42703 0.69978 0.07167 0.0
C1243 C 0.43672 0.72715 0.05937 0.0
C1244 C 0.43511 0.69157 0.10107 0.0
C1245 C 0.45298 0.71065 0.11883 0.0
C1246 C 0.46337 0.7375 0.1058 0.0
C1247 C 0.45567 0.74538 0.07656 0.0
H1248 H 0.19356 0.33277 0.32008 0.0
H1249 H 0.12864 0.4048 0.32778 0.0
H1250 H 0.21867 0.36022 0.27938 0.0
H1251 H 0.15333 0.43184 0.28735 0.0
H1252 H 0.17009 0.44066 0.18686 0.0
H1253 H 0.15378 0.41536 0.23239 0.0
H1254 H 0.24528 0.41105 0.26352 0.0
H1255 H 0.26171 0.4371 0.21794 0.0
C1256 C 0.18522 0.35479 0.31368 0.0
C1257 C 0.15885 0.36646 0.32664 0.0
C1258 C 0.19947 0.37041 0.29037 0.0
C1259 C 0.1874 0.39774 0.27978 0.0
C1260 C 0.16266 0.41048 0.29462 0.0
C1261 C 0.14862 0.39507 0.31781 0.0
C1262 C 0.18676 0.4343 0.20336 0.0
C1263 C 0.21707 0.44131 0.19906 0.0
C1264 C 0.17743 0.41995 0.22948 0.0
C1265 C 0.19824 0.41171 0.25167 0.0
C1266 C 0.2288 0.41728 0.24679 0.0
C1267 C 0.23814 0.43209 0.22071 0.0
H1268 H 0.86405 0.88745 0.58447 0.0
H1269 H 0.94228 0.93766 0.5586 0.0
H1270 H 0.8348 0.91283 0.54549 0.0
H1271 H 0.91283 0.96331 0.51936 0.0
H1272 H 0.8307 0.01427 0.46772 0.0
H1273 H 0.86047 0.99795 0.51112 0.0
H1274 H 0.84669 0.90534 0.4863 0.0
H1275 H 0.81963 0.92152 0.44186 0.0
C1276 C 0.87471 0.90456 0.57091 0.0
C1277 C 0.90532 0.91065 0.57445 0.0
C1278 C 0.85806 0.91894 0.54858 0.0
C1279 C 0.87167 0.93975 0.52929 0.0
C1280 C 0.90182 0.94747 0.53409 0.0
C1281 C 0.91859 0.93291 0.55651 0.0
C1282 C 0.83417 0.99042 0.47145 0.0
C1283 C 0.82152 0.96906 0.45193 0.0
C1284 C 0.85118 0.98116 0.49629 0.0
C1285 C 0.85521 0.9504 0.5024 0.0
C1286 C 0.84329 0.9292 0.4825 0.0
C1287 C 0.8273 0.93846 0.45726 0.0
H1288 H 0.31338 0.60669 0.68562 0.0
H1289 H 0.27408 0.53203 0.73246 0.0
H1290 H 0.32697 0.62977 0.73324 0.0
H1291 H 0.29079 0.5525 0.77986 0.0
H1292 H 0.30313 0.60119 0.86502 0.0
H1293 H 0.28432 0.58534 0.81676 0.0
H1294 H 0.35741 0.63189 0.77321 0.0
H1295 H 0.37461 0.6495 0.82184 0.0
C1296 C 0.30809 0.5951 0.70629 0.0
C1297 C 0.29273 0.56774 0.70563 0.0
C1298 C 0.31616 0.60808 0.73369 0.0
C1299 C 0.31009 0.59332 0.76102 0.0
C1300 C 0.29506 0.56547 0.75984 0.0
C1301 C 0.28577 0.55332 0.73257 0.0
C1302 C 0.3149 0.6083 0.84502 0.0
C1303 C 0.34051 0.6263 0.84724 0.0
C1304 C 0.30438 0.59885 0.81716 0.0
C1305 C 0.31966 0.60636 0.79055 0.0
C1306 C 0.3447 0.62553 0.79282 0.0
C1307 C 0.35477 0.63563 0.8208 0.0
H1308 H 0.65514 0.13337 0.08123 0.0
H1309 H 0.5765 0.08133 0.06098 0.0
H1310 H 0.6834 0.10596 0.04292 0.0
H1311 H 0.60472 0.05399 0.02213 0.0
H1312 H 0.65574 0.05505 0.92825 0.0
H1313 H 0.62696 0.07294 0.97171 0.0
H1314 H 0.70238 0.05292 0.02911 0.0
H1315 H 0.73034 0.03356 0.98579 0.0
C1316 C 0.64413 0.11561 0.0689 0.0
C1317 C 0.61373 0.10942 0.07395 0.0
C1318 C 0.66028 0.0999 0.04705 0.0
C1319 C 0.64619 0.078 0.02945 0.0
C1320 C 0.61603 0.07094 0.03527 0.0
C1321 C 0.59998 0.08635 0.05758 0.0
C1322 C 0.66588 0.05426 0.95027 0.0
C1323 C 0.69525 0.04355 0.95389 0.0
C1324 C 0.64945 0.06427 0.97509 0.0
C1325 C 0.66247 0.06435 1.00377 0.0
C1326 C 0.69183 0.05318 1.00728 0.0
C1327 C 0.70786 0.04231 0.98258 0.0
H1328 H 0.72169 0.1676 0.6891 0.0
H1329 H 0.62903 0.14156 0.69571 0.0
H1330 H 0.73505 0.13183 0.72786 0.0
H1331 H 0.64246 0.10433 0.73419 0.0
H1332 H 0.67169 0.07895 0.83121 0.0
H1333 H 0.65633 0.10506 0.78553 0.0
H1334 H 0.74193 0.08323 0.74521 0.0
H1335 H 0.75739 0.05821 0.79128 0.0
C1336 C 0.70428 0.15343 0.69832 0.0
C1337 C 0.67432 0.15755 0.68955 0.0
C1338 C 0.71194 0.13271 0.72056 0.0
C1339 C 0.68985 0.11523 0.73467 0.0
C1340 C 0.66003 0.11781 0.72434 0.0
C1341 C 0.65234 0.13878 0.70196 0.0
C1342 C 0.68708 0.07969 0.81246 0.0
C1343 C 0.7158 0.06679 0.81486 0.0
C1344 C 0.67821 0.0944 0.7861 0.0
C1345 C 0.69786 0.09652 0.76146 0.0
C1346 C 0.72632 0.08272 0.76377 0.0
C1347 C 0.73525 0.06833 0.7902 0.0
H1348 H 0.17908 0.42426 0.08135 0.0
H1349 H 0.19696 0.51094 0.04204 0.0
H1350 H 0.15724 0.40725 0.03415 0.0
H1351 H 0.17404 0.49441 0.99513 0.0
H1352 H 0.10804 0.46136 0.92318 0.0
H1353 H 0.12449 0.4779 0.97298 0.0
H1354 H 0.17722 0.3966 0.9822 0.0
H1355 H 0.16107 0.38048 0.93235 0.0
C1356 C 0.17835 0.43965 0.06259 0.0
C1357 C 0.19045 0.46862 0.06515 0.0
C1358 C 0.16569 0.42998 0.03561 0.0
C1359 C 0.16405 0.44941 0.0108 0.0
C1360 C 0.17483 0.47893 0.01386 0.0
C1361 C 0.18795 0.48841 0.04072 0.0
C1362 C 0.12279 0.44694 0.93613 0.0
C1363 C 0.13326 0.41965 0.92411 0.0
C1364 C 0.1324 0.45646 0.96448 0.0
C1365 C 0.15225 0.43861 0.98151 0.0
C1366 C 0.16178 0.41077 0.96978 0.0
C1367 C 0.15261 0.40155 0.94128 0.0
H1368 H 0.84326 0.93879 0.33151 0.0
H1369 H 0.75502 0.95169 0.29398 0.0
H1370 H 0.85864 0.91122 0.28662 0.0
H1371 H 0.77031 0.92457 0.24908 0.0
H1372 H 0.79555 0.83874 0.19641 0.0
H1373 H 0.78088 0.87421 0.23532 0.0
H1374 H 0.86964 0.91258 0.23344 0.0
H1375 H 0.88429 0.87633 0.19445 0.0
C1376 C 0.82728 0.93607 0.31349 0.0
C1377 C 0.79794 0.94742 0.31633 0.0
C1378 C 0.83612 0.9204 0.28765 0.0
C1379 C 0.81574 0.91552 0.26409 0.0
C1380 C 0.78653 0.92741 0.26685 0.0
C1381 C 0.77773 0.943 0.29264 0.0
C1382 C 0.81167 0.85526 0.20385 0.0
C1383 C 0.84095 0.85491 0.19238 0.0
C1384 C 0.8033 0.87568 0.22616 0.0
C1385 C 0.82409 0.89627 0.23783 0.0
C1386 C 0.85314 0.89681 0.22532 0.0
C1387 C 0.86146 0.87637 0.20273 0.0
H1388 H 0.31877 0.59706 0.57833 0.0
H1389 H 0.32399 0.50504 0.54778 0.0
H1390 H 0.34118 0.61392 0.53124 0.0
H1391 H 0.34762 0.5218 0.50137 0.0
H1392 H 0.4113 0.56263 0.43064 0.0
H1393 H 0.39474 0.54769 0.48103 0.0
H1394 H 0.32354 0.61382 0.47696 0.0
H1395 H 0.33985 0.62837 0.42679 0.0
C1396 C 0.32457 0.58043 0.56156 0.0
C1397 C 0.31866 0.54979 0.56648 0.0
C1398 C 0.33765 0.59008 0.53469 0.0
C1399 C 0.34603 0.56921 0.51248 0.0
C1400 C 0.34157 0.53844 0.51807 0.0
C1401 C 0.32795 0.52886 0.54467 0.0
C1402 C 0.39238 0.57417 0.44076 0.0
C1403 C 0.37676 0.59654 0.42477 0.0
C1404 C 0.38278 0.56552 0.46946 0.0
C1405 C 0.35778 0.57954 0.48296 0.0
C1406 C 0.34299 0.60273 0.46734 0.0
C1407 C 0.35222 0.61096 0.43855 0.0
H1408 H 0.23529 0.22597 0.48749 0.0
H1409 H 0.18294 0.21159 0.40752 0.0
H1410 H 0.28016 0.21127 0.46132 0.0
H1411 H 0.22916 0.19835 0.38018 0.0
H1412 H 0.3176 0.14021 0.3594 0.0
H1413 H 0.26872 0.15879 0.37711 0.0
H1414 H 0.31321 0.23031 0.42472 0.0
H1415 H 0.36152 0.21127 0.40791 0.0
C1416 C 0.23331 0.21978 0.46415 0.0
C1417 C 0.20533 0.21958 0.44978 0.0
C1418 C 0.25933 0.21177 0.4489 0.0
C1419 C 0.25851 0.20403 0.41843 0.0
C1420 C 0.23058 0.20411 0.40368 0.0
C1421 C 0.20417 0.2119 0.41924 0.0
C1422 C 0.31674 0.16019 0.37326 0.0
C1423 C 0.34339 0.17391 0.38289 0.0
C1424 C 0.28876 0.17088 0.38334 0.0
C1425 C 0.28706 0.19558 0.40302 0.0
C1426 C 0.31368 0.21064 0.41042 0.0
C1427 C 0.34142 0.19983 0.4007 0.0
H1428 H 0.1286 0.06807 0.60919 0.0
H1429 H 0.06364 0.11159 0.66637 0.0
H1430 H 0.10724 0.01899 0.62183 0.0
H1431 H 0.04303 0.06314 0.68 0.0
H1432 H 1.00242 0.97446 0.69603 0.0
H1433 H 0.01682 0.01976 0.66922 0.0
H1434 H 0.10788 0.98622 0.66312 0.0
H1435 H 0.09252 0.93978 0.68742 0.0
C1436 C 0.1093 0.06712 0.62389 0.0
C1437 C 0.09785 0.0935 0.637 0.0
C1438 C 0.09731 0.03903 0.63153 0.0
C1439 C 0.07363 0.03686 0.65237 0.0
C1440 C 0.061 0.06363 0.66371 0.0
C1441 C 0.07292 0.09153 0.65606 0.0
C1442 C 0.02541 0.97659 0.68853 0.0
C1443 C 0.04666 0.95402 0.69481 0.0
C1444 C 0.03378 1.00274 0.67336 0.0
C1445 C 0.06372 1.00716 0.66442 0.0
C1446 C 0.08459 0.98378 0.66942 0.0
C1447 C 0.07599 0.95735 0.68402 0.0
H1448 H 0.15662 0.80379 0.91348 0.0
H1449 H 0.19559 0.87714 0.86386 0.0
H1450 H 0.20602 0.7876 0.92945 0.0
H1451 H 0.24576 0.86006 0.87885 0.0
H1452 H 0.32558 0.84236 0.94396 0.0
H1453 H 0.27814 0.85808 0.9214 0.0
H1454 H 0.25128 0.76502 0.91572 0.0
H1455 H 0.2977 0.74968 0.93996 0.0
C1456 C 0.17585 0.81634 0.90572 0.0
C1457 C 0.17198 0.84202 0.88769 0.0
C1458 C 0.20439 0.8068 0.9146 0.0
C1459 C 0.23019 0.82244 0.90558 0.0
C1460 C 0.22648 0.84761 0.88663 0.0
C1461 C 0.19771 0.85723 0.87771 0.0
C1462 C 0.30936 0.82531 0.93817 0.0
C1463 C 0.31508 0.79484 0.94469 0.0
C1464 C 0.28228 0.83429 0.92477 0.0
C1465 C 0.26042 0.81293 0.91705 0.0
C1466 C 0.26705 0.78229 0.92204 0.0
C1467 C 0.29391 0.7734 0.93572 0.0
H1468 H 0.50816 0.03501 0.19948 0.0
H1469 H 0.42416 0.07997 0.18105 0.0
H1470 H 0.49002 0.98992 0.17335 0.0
H1471 H 0.40571 0.03504 0.15643 0.0
H1472 H 0.36749 0.94558 0.14143 0.0
H1473 H 0.3925 0.98223 0.17331 0.0
H1474 H 0.47235 0.97467 0.11907 0.0
H1475 H 0.44717 0.93743 0.08721 0.0
C1476 C 0.48586 0.03524 0.18989 0.0
C1477 C 0.46721 0.06072 0.19291 0.0
C1478 C 0.47549 0.00946 0.1751 0.0
C1479 C 0.44623 0.00876 0.16346 0.0
C1480 C 0.4281 0.03461 0.16582 0.0
C1481 C 0.43862 0.06035 0.17998 0.0
C1482 C 0.39066 0.95113 0.13685 0.0
C1483 C 0.40534 0.93895 0.11181 0.0
C1484 C 0.40492 0.97219 0.15495 0.0
C1485 C 0.43412 0.98173 0.14827 0.0
C1486 C 0.44981 0.96769 0.12471 0.0
C1487 C 0.43547 0.9464 0.10654 0.0
H1488 H 0.81895 0.39184 0.61716 0.0
H1489 H 0.82065 0.31921 0.68129 0.0
H1490 H 0.77967 0.36645 0.58916 0.0
H1491 H 0.78107 0.29346 0.65287 0.0
H1492 H 0.72133 0.25285 0.57233 0.0
H1493 H 0.76617 0.27071 0.59881 0.0
H1494 H 0.72513 0.35842 0.60787 0.0
H1495 H 0.68008 0.34015 0.58334 0.0
C1496 C 0.81129 0.37012 0.62494 0.0
C1497 C 0.82258 0.35775 0.65165 0.0
C1498 C 0.78873 0.35563 0.60896 0.0
C1499 C 0.7769 0.32829 0.61915 0.0
C1500 C 0.78977 0.31457 0.64455 0.0
C1501 C 0.81245 0.32923 0.66073 0.0
C1502 C 0.72186 0.27586 0.58029 0.0
C1503 C 0.69757 0.2955 0.57479 0.0
C1504 C 0.74752 0.28605 0.59535 0.0
C1505 C 0.74941 0.31614 0.6048 0.0
C1506 C 0.72464 0.33529 0.60024 0.0
C1507 C 0.6989 0.32494 0.58592 0.0
H1508 H 0.92031 0.43279 0.8275 0.0
H1509 H 1.00776 0.47151 0.8157 0.0
H1510 H 0.90358 0.47771 0.8538 0.0
H1511 H 0.99101 0.51732 0.83962 0.0
H1512 H 0.96285 0.59644 0.89311 0.0
H1513 H 0.97932 0.54702 0.87671 0.0
H1514 H 0.88724 0.52447 0.85605 0.0
H1515 H 0.87123 0.57321 0.87503 0.0
C1516 C 0.93589 0.45115 0.83034 0.0
C1517 C 0.96533 0.44858 0.81944 0.0
C1518 C 0.92626 0.47731 0.8453 0.0
C1519 C 0.9456 0.50209 0.8493 0.0
C1520 C 0.97518 0.49909 0.8382 0.0
C1521 C 0.98494 0.47268 0.82398 0.0
C1522 C 0.94617 0.58034 0.88603 0.0
C1523 C 0.91575 0.58845 0.88588 0.0
C1524 C 0.95561 0.55199 0.87577 0.0
C1525 C 0.93499 0.53109 0.86393 0.0
C1526 C 0.90423 0.53911 0.86501 0.0
C1527 C 0.8948 0.56728 0.87598 0.0
H1528 H 0.78427 0.73419 0.04433 0.0
H1529 H 0.84366 0.70568 0.11528 0.0
H1530 H 0.74146 0.71689 0.07267 0.0
H1531 H 0.80026 0.68755 0.1439 0.0
H1532 H 0.71154 0.67197 0.19507 0.0
H1533 H 0.75343 0.69842 0.17095 0.0
H1534 H 0.72125 0.66951 0.08445 0.0
H1535 H 0.6797 0.64389 0.10849 0.0
C1536 C 0.78821 0.72427 0.06615 0.0
C1537 C 0.8175 0.72095 0.07735 0.0
C1538 C 0.76353 0.71418 0.08242 0.0
C1539 C 0.76725 0.70025 0.11044 0.0
C1540 C 0.79647 0.69826 0.12245 0.0
C1541 C 0.82138 0.70858 0.10607 0.0
C1542 C 0.71322 0.67197 0.17088 0.0
C1543 C 0.69235 0.65601 0.1536 0.0
C1544 C 0.73738 0.68676 0.15706 0.0
C1545 C 0.7409 0.68614 0.12568 0.0
C1546 C 0.71923 0.67097 0.10857 0.0
C1547 C 0.69538 0.65614 0.12233 0.0
H1548 H 0.62916 0.445 0.40083 0.0
H1549 H 0.54986 0.40865 0.35949 0.0
H1550 H 0.61393 0.49556 0.38508 0.0
H1551 H 0.53574 0.45822 0.34213 0.0
H1552 H 0.50223 0.5511 0.32936 0.0
H1553 H 0.51675 0.50456 0.35371 0.0
H1554 H 0.61011 0.52833 0.34426 0.0
H1555 H 0.59517 0.57649 0.32248 0.0
C1556 C 0.60841 0.44776 0.38855 0.0
C1557 C 0.59092 0.42256 0.38123 0.0
C1558 C 0.59984 0.47678 0.3791 0.0
C1559 C 0.57355 0.48136 0.36208 0.0
C1560 C 0.55585 0.4561 0.35551 0.0
C1561 C 0.56424 0.42734 0.36513 0.0
C1562 C 0.52588 0.54664 0.33274 0.0
C1563 C 0.54756 0.56722 0.32287 0.0
C1564 C 0.53431 0.51958 0.34645 0.0
C1565 C 0.56475 0.51188 0.35036 0.0
C1566 C 0.58644 0.53314 0.3417 0.0
C1567 C 0.57791 0.56063 0.32858 0.0
H1568 H 0.41584 0.35924 0.20703 0.0
H1569 H 0.358 0.31861 0.1412 0.0
H1570 H 0.43324 0.30989 0.22244 0.0
H1571 H 0.37422 0.26871 0.15795 0.0
H1572 H 0.43778 0.18679 0.17125 0.0
H1573 H 0.41608 0.23512 0.15625 0.0
H1574 H 0.42095 0.26571 0.24795 0.0
H1575 H 0.44409 0.21815 0.2624 0.0
C1576 C 0.40661 0.33974 0.19592 0.0
C1577 C 0.38573 0.34315 0.17254 0.0
C1578 C 0.41634 0.31124 0.20511 0.0
C1579 C 0.40526 0.28502 0.19152 0.0
C1580 C 0.38364 0.2883 0.16871 0.0
C1581 C 0.37399 0.31698 0.15936 0.0
C1582 C 0.4344 0.20399 0.18811 0.0
C1583 C 0.4433 0.19887 0.21787 0.0
C1584 C 0.42157 0.23162 0.1796 0.0
C1585 C 0.41694 0.25469 0.20076 0.0
C1586 C 0.42474 0.24891 0.2308 0.0
C1587 C 0.43774 0.22143 0.23921 0.0
H1588 H 0.98492 0.28027 0.77776 0.0
H1589 H 0.90775 0.32911 0.80991 0.0
H1590 H 0.96283 0.23326 0.79398 0.0
H1591 H 0.88337 0.28176 0.823 0.0
H1592 H 0.86119 0.19345 0.87235 0.0
H1593 H 0.87946 0.24205 0.85491 0.0
H1594 H 0.92967 0.19687 0.78493 0.0
H1595 H 0.91294 0.14872 0.80385 0.0
C1596 C 0.96288 0.28071 0.78796 0.0
C1597 C 0.9482 0.30811 0.79313 0.0
C1598 C 0.9498 0.25366 0.79685 0.0
C1599 C 0.92083 0.25313 0.80964 0.0
C1600 C 0.90584 0.28089 0.81391 0.0
C1601 C 0.91963 0.3081 0.80618 0.0
C1602 C 0.87593 0.19412 0.85307 0.0
C1603 C 0.88607 0.16728 0.83977 0.0
C1604 C 0.88644 0.22206 0.84291 0.0
C1605 C 0.90692 0.22381 0.81882 0.0
C1606 C 0.91511 0.19682 0.80431 0.0
C1607 C 0.90517 0.16903 0.81487 0.0
H1608 H 0.07098 0.62462 0.13669 0.0
H1609 H 0.07426 0.5903 0.0465 0.0
H1610 H 0.03324 0.66197 0.12128 0.0
H1611 H 0.03624 0.62644 0.03121 0.0
H1612 H 0.97379 0.70102 1.00599 0.0
H1613 H 0.01988 0.67565 0.02157 0.0
H1614 H 0.98113 0.65951 0.10887 0.0
H1615 H 0.9354 0.68566 0.09327 0.0
C1616 C 0.06426 0.62568 0.11341 0.0
C1617 C 0.07541 0.60456 0.09277 0.0
C1618 C 0.04231 0.64671 0.10464 0.0
C1619 C 0.03118 0.64695 0.07507 0.0
C1620 C 0.04423 0.62725 0.05408 0.0
C1621 C 0.06605 0.6064 0.06282 0.0
C1622 C 0.97525 0.69204 0.02851 0.0
C1623 C 0.95113 0.69525 0.04844 0.0
C1624 C 1.00166 0.67753 0.0375 0.0
C1625 C 1.00441 0.66544 0.06655 0.0
C1626 C 0.98019 0.66898 0.08655 0.0
C1627 C 0.95384 0.6837 0.07757 0.0
H1628 H 0.58674 0.84795 0.37163 0.0
H1629 H 0.66237 0.83947 0.31188 0.0
H1630 H 0.57089 0.79691 0.35853 0.0
H1631 H 0.64595 0.78861 0.29807 0.0
H1632 H 0.56949 0.72441 0.25505 0.0
H1633 H 0.59307 0.77136 0.27064 0.0
H1634 H 0.59577 0.73959 0.36186 0.0
H1635 H 0.57459 0.69154 0.34584 0.0
C1636 C 0.60004 0.83505 0.35583 0.0
C1637 C 0.62571 0.84764 0.34268 0.0
C1638 C 0.59105 0.80587 0.34845 0.0
C1639 C 0.60717 0.78894 0.32725 0.0
C1640 C 0.63313 0.80129 0.31442 0.0
C1641 C 0.64255 0.83025 0.32238 0.0
C1642 C 0.57549 0.72718 0.27837 0.0
C1643 C 0.56901 0.70462 0.2995 0.0
C1644 C 0.58899 0.75408 0.28725 0.0
C1645 C 0.59583 0.75921 0.31749 0.0
C1646 C 0.59034 0.73634 0.33845 0.0
C1647 C 0.57778 0.70904 0.32937 0.0
H1648 H 0.53387 0.28687 0.51851 0.0
H1649 H 0.58061 0.35124 0.57278 0.0
H1650 H 0.48629 0.30781 0.53419 0.0
H1651 H 0.53324 0.37554 0.58569 0.0
H1652 H 0.44283 0.39715 0.62791 0.0
H1653 H 0.49148 0.37868 0.61164 0.0
H1654 H 0.44992 0.34039 0.53273 0.0
H1655 H 0.40146 0.35656 0.55089 0.0
C1656 C 0.53372 0.30618 0.53334 0.0
C1657 C 0.56057 0.31718 0.54496 0.0
C1658 C 0.50633 0.3187 0.54212 0.0
C1659 C 0.50508 0.34394 0.56134 0.0
C1660 C 0.53255 0.35573 0.57172 0.0
C1661 C 0.55992 0.34209 0.56408 0.0
C1662 C 0.44435 0.38476 0.60708 0.0
C1663 C 0.41834 0.37787 0.5909 0.0
C1664 C 0.47243 0.37421 0.59745 0.0
C1665 C 0.47537 0.35718 0.57086 0.0
C1666 C 0.44918 0.35204 0.55393 0.0
C1667 C 0.42112 0.36175 0.56409 0.0
H1668 H 0.10562 0.67244 0.65529 0.0
H1669 H 0.18992 0.7184 0.66374 0.0
H1670 H 0.08013 0.71401 0.68131 0.0
H1671 H 0.16453 0.76021 0.68945 0.0
H1672 H 0.09837 0.84289 0.68576 0.0
H1673 H 0.12592 0.79836 0.66824 0.0
H1674 H 0.07819 0.74339 0.73194 0.0
H1675 H 0.05133 0.78835 0.75009 0.0
C1676 C 0.11873 0.69115 0.66345 0.0
C1677 C 0.14966 0.69229 0.6578 0.0
C1678 C 0.1042 0.7149 0.67827 0.0
C1679 C 0.12033 0.74045 0.68716 0.0
C1680 C 0.15153 0.74092 0.68259 0.0
C1681 C 0.16609 0.71697 0.66814 0.0
C1682 C 0.09407 0.8213 0.69613 0.0
C1683 C 0.07311 0.8189 0.71938 0.0
C1684 C 0.10987 0.79589 0.68627 0.0
C1685 C 0.10439 0.76746 0.69892 0.0
C1686 C 0.08299 0.76504 0.72193 0.0
C1687 C 0.06779 0.79067 0.73239 0.0
H1688 H 0.48513 0.78269 0.98358 0.0
H1689 H 0.42684 0.85672 0.96022 0.0
H1690 H 0.52836 0.81047 0.96404 0.0
H1691 H 0.47018 0.88538 0.9423 0.0
H1692 H 0.55931 0.93617 0.93355 0.0
H1693 H 0.52059 0.90835 0.96115 0.0
H1694 H 0.54207 0.82841 0.91045 0.0
H1695 H 0.58019 0.85631 0.88269 0.0
C1696 C 0.48175 0.80509 0.97458 0.0
C1697 C 0.45284 0.81754 0.97288 0.0
C1698 C 0.50639 0.821 0.96353 0.0
C1699 C 0.50265 0.85014 0.95175 0.0
C1700 C 0.47377 0.86307 0.95144 0.0
C1701 C 0.44902 0.84672 0.96153 0.0
C1702 C 0.5561 0.9125 0.92885 0.0
C1703 C 0.57267 0.89831 0.90607 0.0
C1704 C 0.53386 0.89667 0.94443 0.0
C1705 C 0.52827 0.86625 0.93785 0.0
C1706 C 0.54602 0.85174 0.91617 0.0
C1707 C 0.56778 0.86768 0.90027 0.0
H1708 H 0.92453 0.16156 0.39724 0.0
H1709 H 0.96228 0.07613 0.42389 0.0
H1710 H 0.96481 0.18781 0.42381 0.0
H1711 H 1.0031 0.10235 0.44982 0.0
H1712 H 0.08904 0.16671 0.4385 0.0
H1713 H 0.04485 0.13914 0.42157 0.0
H1714 H 0.98925 0.19101 0.48176 0.0
H1715 H 0.03404 0.21732 0.5002 0.0
C1716 C 0.94107 0.14849 0.40944 0.0
C1717 C 0.94027 0.1169 0.40881 0.0
C1718 C 0.96407 0.16346 0.42457 0.0
C1719 C 0.98703 0.14706 0.43874 0.0
C1720 C 0.98563 0.11546 0.43902 0.0
C1721 C 0.96227 0.1005 0.42439 0.0
C1722 C 0.06748 0.17177 0.44851 0.0
C1723 C 0.06489 0.19365 0.47099 0.0
C1724 C 0.04224 0.15605 0.43884 0.0
C1725 C 0.01376 0.16275 0.45062 0.0
C1726 C 0.01103 0.18521 0.47262 0.0
C1727 C 0.03653 0.20015 0.48315 0.0
loop_
_geom_bond_atom_site_label_1
_geom_bond_atom_site_label_2
_geom_bond_distance
_geom_bond_site_symmetry_2
_ccdc_geom_bond_type
C0 C2 1.422 . S
C0 C4 1.415 . S
C0 N6 1.369 . S
C1 C2 1.421 . S
C1 C3 1.417 . S
C1 C13 1.422 . S
C2 C0 1.422 . S
C2 C1 1.421 . S
C2 N12 1.359 . S
C3 C1 1.417 . S
C3 C5 1.329 1_455 S
C3 H22 0.917 1_455 S
C4 C0 1.415 . S
C4 C5 1.437 1_455 S
C4 C8 1.413 1_455 S
C5 C3 1.329 1_655 S
C5 C4 1.437 1_655 S
C5 H27 0.929 . S
N6 C0 1.369 . S
N6 C7 1.338 . S
N6 Gd11 2.622 . S
C7 N6 1.338 . S
C7 C9 1.378 . S
C7 H19 0.929 . S
C8 C4 1.413 1_655 S
C8 C9 1.348 1_655 S
C8 H24 0.931 . S
C9 C7 1.378 . S
C9 C8 1.348 1_455 S
C9 H25 0.930 1_455 S
Gd10 N30 2.622 . S
Gd10 N37 2.570 . S
Gd10 O44 2.353 . S
Gd10 O45 2.468 . S
Gd10 O46 2.427 . S
Gd10 O48 2.388 . S
Gd10 O49 2.386 . S
Gd10 O53 2.307 . S
Gd10 C63 2.805 . S
Gd11 N6 2.622 . S
Gd11 N12 2.570 . S
Gd11 O43 2.386 . S
Gd11 O47 2.307 . S
Gd11 O50 2.353 . S
Gd11 O51 2.468 . S
Gd11 O52 2.427 . S
Gd11 O54 2.388 . S
Gd11 C75 2.805 . S
N12 C2 1.359 . S
N12 Gd11 2.570 . S
N12 C14 1.343 . S
C13 C1 1.422 . S
C13 C15 1.321 . S
C13 H21 0.931 . S
C14 N12 1.343 . S
C14 C15 1.390 . S
C14 H16 0.931 . S
C15 C13 1.321 . S
C15 C14 1.390 . S
C15 H17 0.930 . S
H16 C14 0.931 . S
H17 C15 0.930 . S
H18 C41 0.931 . S
H19 C7 0.929 . S
H20 C42 0.930 . S
H21 C13 0.931 . S
H22 C3 0.917 1_655 S
H23 C32 0.929 . S
H24 C8 0.931 . S
H25 C9 0.930 1_655 S
H26 C64 0.930 . S
H27 C5 0.929 . S
H28 C33 0.931 . S
H29 C34 0.930 . S
N30 Gd10 2.622 . S
N30 C31 1.369 . S
N30 C32 1.338 . S
C31 N30 1.369 . S
C31 C35 1.415 . S
C31 C38 1.422 . S
C32 H23 0.929 . S
C32 N30 1.338 . S
C32 C34 1.378 . S
C33 H28 0.931 . S
C33 C34 1.348 . S
C33 C35 1.413 . S
C34 H29 0.930 . S
C34 C32 1.378 . S
C34 C33 1.348 . S
C35 C31 1.415 . S
C35 C33 1.413 . S
C35 C65 1.437 . S
H36 C65 0.929 . S
N37 Gd10 2.570 . S
N37 C38 1.359 . S
N37 C41 1.343 . S
C38 C31 1.422 . S
C38 N37 1.359 . S
C38 C40 1.421 . S
C39 C40 1.422 . S
C39 C42 1.321 . S
C39 H66 0.931 . S
C40 C38 1.421 . S
C40 C39 1.422 . S
C40 C64 1.417 . S
C41 H18 0.931 . S
C41 N37 1.343 . S
C41 C42 1.390 . S
C42 H20 0.930 . S
C42 C39 1.321 . S
C42 C41 1.390 . S
O43 Gd11 2.386 . S
O43 C55 1.265 . S
O44 Gd10 2.353 . S
O44 C55 1.242 . S
O45 Gd10 2.468 . S
O45 C63 1.263 . S
O46 Gd10 2.427 . S
O46 C63 1.252 . S
O47 Gd11 2.307 . S
O47 C56 1.261 . S
O48 Gd10 2.388 . S
O48 C56 1.252 . S
O49 Gd10 2.386 . S
O49 C67 1.265 . S
O50 Gd11 2.353 . S
O50 C67 1.242 . S
O51 Gd11 2.468 . S
O51 C75 1.263 . S
O52 Gd11 2.427 . S
O52 C75 1.252 . S
O53 Gd10 2.307 . S
O53 C68 1.261 . S
O54 Gd11 2.388 . S
O54 C68 1.252 . S
C55 O43 1.265 . S
C55 O44 1.242 . S
C56 O47 1.261 . S
C56 O48 1.252 . S
C57 C60 1.394 . S
C57 C62 1.370 . S
C57 C63 1.500 . S
C58 C61 1.383 . S
C58 C62 1.395 . S
C59 C60 1.396 . S
C59 C61 1.365 . S
C59 H76 0.929 . S
C60 C57 1.394 . S
C60 C59 1.396 . S
C60 H77 0.930 . S
C61 C58 1.383 . S
C61 C59 1.365 . S
C61 H78 0.931 . S
C62 C57 1.370 . S
C62 C58 1.395 . S
C62 H79 0.930 . S
C63 Gd10 2.805 . S
C63 O45 1.263 . S
C63 O46 1.252 . S
C63 C57 1.500 . S
C64 H26 0.930 . S
C64 C40 1.417 . S
C64 C65 1.329 . S
C65 C35 1.437 . S
C65 H36 0.929 . S
C65 C64 1.329 . S
H66 C39 0.931 . S
C67 O49 1.265 . S
C67 O50 1.242 . S
C68 O53 1.261 . S
C68 O54 1.252 . S
C69 C72 1.394 . S
C69 C74 1.370 . S
C69 C75 1.500 . S
C70 C73 1.383 . S
C70 C74 1.395 . S
C71 C72 1.396 . S
C71 C73 1.365 . S
C71 H80 0.929 . S
C72 C69 1.394 . S
C72 C71 1.396 . S
C72 H81 0.930 . S
C73 C70 1.383 . S
C73 C71 1.365 . S
C73 H82 0.931 . S
C74 C69 1.370 . S
C74 C70 1.395 . S
C74 H83 0.930 . S
C75 Gd11 2.805 . S
C75 O51 1.263 . S
C75 O52 1.252 . S
C75 C69 1.500 . S
H76 C59 0.929 . S
H77 C60 0.930 . S
H78 C61 0.931 . S
H79 C62 0.930 . S
H80 C71 0.929 . S
H81 C72 0.930 . S
H82 C73 0.931 . S
H83 C74 0.930 . S
C84 C86 1.422 . S
C84 C88 1.415 . S
C84 N90 1.369 . S
C85 C86 1.421 . S
C85 C87 1.417 . S
C85 C97 1.422 . S
C86 C84 1.422 . S
C86 C85 1.421 . S
C86 N96 1.359 . S
C87 C85 1.417 . S
C87 C89 1.329 . S
C87 H106 0.930 . S
C88 C84 1.415 . S
C88 C89 1.437 . S
C88 C92 1.413 . S
C89 C87 1.329 . S
C89 C88 1.437 . S
C89 H111 0.929 . S
N90 C84 1.369 . S
N90 C91 1.338 . S
N90 Gd95 2.622 . S
C91 N90 1.338 . S
C91 C93 1.378 . S
C91 H103 0.929 1_655 S
C92 C88 1.413 . S
C92 C93 1.348 . S
C92 H108 0.931 . S
C93 C91 1.378 . S
C93 C92 1.348 . S
C93 H109 0.930 1_655 S
Gd94 N114 2.622 . S
Gd94 N121 2.570 . S
Gd94 O128 2.353 . S
Gd94 O129 2.468 . S
Gd94 O130 2.427 . S
Gd94 O132 2.388 1_455 S
Gd94 O133 2.386 . S
Gd94 O137 2.307 . S
Gd94 C147 2.805 . S
Gd95 N90 2.622 . S
Gd95 N96 2.570 . S
Gd95 O127 2.386 . S
Gd95 O131 2.307 . S
Gd95 O134 2.353 1_655 S
Gd95 O135 2.468 . S
Gd95 O136 2.427 . S
Gd95 O138 2.388 1_655 S
Gd95 C159 2.805 . S
N96 C86 1.359 . S
N96 Gd95 2.570 . S
N96 C98 1.343 . S
C97 C85 1.422 . S
C97 C99 1.321 . S
C97 H105 0.931 . S
C98 N96 1.343 . S
C98 C99 1.390 . S
C98 H100 0.931 . S
C99 C97 1.321 . S
C99 C98 1.390 . S
C99 H101 0.930 . S
H100 C98 0.931 . S
H101 C99 0.930 . S
H102 C125 0.931 . S
H103 C91 0.929 1_455 S
H104 C126 0.930 . S
H105 C97 0.931 . S
H106 C87 0.930 . S
H107 C116 0.929 . S
H108 C92 0.931 . S
H109 C93 0.930 1_455 S
H110 C148 0.931 . S
H111 C89 0.929 . S
H112 C117 0.931 . S
H113 C118 0.930 1_545 S
N114 Gd94 2.622 . S
N114 C115 1.369 . S
N114 C116 1.338 . S
C115 N114 1.369 . S
C115 C119 1.415 . S
C115 C122 1.422 . S
C116 H107 0.929 . S
C116 N114 1.338 . S
C116 C118 1.378 . S
C117 H112 0.931 . S
C117 C118 1.348 1_545 S
C117 C119 1.413 1_545 S
C118 H113 0.930 1_565 S
C118 C116 1.378 . S
C118 C117 1.348 1_565 S
C119 C115 1.415 . S
C119 C117 1.413 1_565 S
C119 C149 1.437 1_565 S
H120 C149 0.929 . S
N121 Gd94 2.570 . S
N121 C122 1.359 . S
N121 C125 1.343 . S
C122 C115 1.422 . S
C122 N121 1.359 . S
C122 C124 1.421 . S
C123 C124 1.422 . S
C123 C126 1.321 . S
C123 H150 0.931 . S
C124 C122 1.421 . S
C124 C123 1.422 . S
C124 C148 1.417 . S
C125 H102 0.931 . S
C125 N121 1.343 . S
C125 C126 1.390 . S
C126 H104 0.930 . S
C126 C123 1.321 . S
C126 C125 1.390 . S
O127 Gd95 2.386 . S
O127 C139 1.265 . S
O128 Gd94 2.353 . S
O128 C139 1.242 1_455 S
O129 Gd94 2.468 . S
O129 C147 1.263 . S
O130 Gd94 2.427 . S
O130 C147 1.252 . S
O131 Gd95 2.307 . S
O131 C140 1.261 . S
O132 Gd94 2.388 1_655 S
O132 C140 1.252 . S
O133 Gd94 2.386 . S
O133 C151 1.265 . S
O134 Gd95 2.353 1_455 S
O134 C151 1.242 . S
O135 Gd95 2.468 . S
O135 C159 1.263 . S
O136 Gd95 2.427 . S
O136 C159 1.252 . S
O137 Gd94 2.307 . S
O137 C152 1.261 . S
O138 Gd95 2.388 1_455 S
O138 C152 1.252 . S
C139 O127 1.265 . S
C139 O128 1.242 1_655 S
C140 O131 1.261 . S
C140 O132 1.252 . S
C141 C144 1.394 . S
C141 C146 1.370 . S
C141 C147 1.500 . S
C142 C145 1.383 . S
C142 C146 1.395 . S
C143 C144 1.396 . S
C143 C145 1.365 . S
C143 H160 0.929 . S
C144 C141 1.394 . S
C144 C143 1.396 . S
C144 H161 0.930 . S
C145 C142 1.383 . S
C145 C143 1.365 . S
C145 H162 0.931 . S
C146 C141 1.370 . S
C146 C142 1.395 . S
C146 H163 0.930 . S
C147 Gd94 2.805 . S
C147 O129 1.263 . S
C147 O130 1.252 . S
C147 C141 1.500 . S
C148 H110 0.931 . S
C148 C124 1.417 . S
C148 C149 1.329 1_565 S
C149 C119 1.437 1_545 S
C149 H120 0.929 . S
C149 C148 1.329 1_545 S
H150 C123 0.931 . S
C151 O133 1.265 . S
C151 O134 1.242 . S
C152 O137 1.261 . S
C152 O138 1.252 . S
C153 C156 1.394 . S
C153 C158 1.370 . S
C153 C159 1.500 . S
C154 C157 1.383 . S
C154 C158 1.395 . S
C155 C156 1.396 . S
C155 C157 1.365 . S
C155 H164 0.929 . S
C156 C153 1.394 . S
C156 C155 1.396 . S
C156 H165 0.930 . S
C157 C154 1.383 . S
C157 C155 1.365 . S
C157 H166 0.931 . S
C158 C153 1.370 . S
C158 C154 1.395 . S
C158 H167 0.930 . S
C159 Gd95 2.805 . S
C159 O135 1.263 . S
C159 O136 1.252 . S
C159 C153 1.500 . S
H160 C143 0.929 . S
H161 C144 0.930 . S
H162 C145 0.931 . S
H163 C146 0.930 . S
H164 C155 0.929 . S
H165 C156 0.930 . S
H166 C157 0.931 . S
H167 C158 0.930 . S
C168 C170 1.422 . S
C168 C172 1.415 . S
C168 N174 1.369 . S
C169 C170 1.421 . S
C169 C171 1.417 . S
C169 C181 1.422 . S
C170 C168 1.422 . S
C170 C169 1.421 . S
C170 N180 1.359 . S
C171 C169 1.417 . S
C171 C173 1.329 . S
C171 H190 0.930 . S
C172 C168 1.415 . S
C172 C173 1.437 . S
C172 C176 1.413 . S
C173 C171 1.329 . S
C173 C172 1.437 . S
C173 H195 0.929 . S
N174 C168 1.369 . S
N174 C175 1.338 . S
N174 Gd179 2.622 . S
C175 N174 1.338 . S
C175 C177 1.378 . S
C175 H187 0.929 1_554 S
C176 C172 1.413 . S
C176 C177 1.348 . S
C176 H192 0.931 . S
C177 C175 1.378 . S
C177 C176 1.348 . S
C177 H193 0.930 1_554 S
Gd178 N198 2.622 . S
Gd178 N205 2.570 . S
Gd178 O212 2.353 . S
Gd178 O213 2.468 . S
Gd178 O214 2.427 . S
Gd178 O216 2.388 1_556 S
Gd178 O217 2.386 . S
Gd178 O221 2.307 . S
Gd178 C231 2.805 . S
Gd179 N174 2.622 . S
Gd179 N180 2.570 . S
Gd179 O211 2.386 . S
Gd179 O215 2.307 . S
Gd179 O218 2.353 1_554 S
Gd179 O219 2.468 . S
Gd179 O220 2.427 . S
Gd179 O222 2.388 1_554 S
Gd179 C243 2.805 . S
N180 C170 1.359 . S
N180 Gd179 2.570 . S
N180 C182 1.343 . S
C181 C169 1.422 . S
C181 C183 1.321 . S
C181 H189 0.931 . S
C182 N180 1.343 . S
C182 C183 1.390 . S
C182 H184 0.931 . S
C183 C181 1.321 . S
C183 C182 1.390 . S
C183 H185 0.930 . S
H184 C182 0.931 . S
H185 C183 0.930 . S
H186 C209 0.931 . S
H187 C175 0.929 1_556 S
H188 C210 0.930 . S
H189 C181 0.931 . S
H190 C171 0.930 . S
H191 C200 0.929 . S
H192 C176 0.931 . S
H193 C177 0.930 1_556 S
H194 C232 0.930 . S
H195 C173 0.929 . S
H196 C201 0.931 . S
H197 C202 0.930 . S
N198 Gd178 2.622 . S
N198 C199 1.369 . S
N198 C200 1.338 . S
C199 N198 1.369 . S
C199 C203 1.415 . S
C199 C206 1.422 . S
C200 H191 0.929 . S
C200 N198 1.338 . S
C200 C202 1.378 . S
C201 H196 0.931 . S
C201 C202 1.348 . S
C201 C203 1.413 . S
C202 H197 0.930 . S
C202 C200 1.378 . S
C202 C201 1.348 . S
C203 C199 1.415 . S
C203 C201 1.413 . S
C203 C233 1.437 . S
H204 C233 0.929 . S
N205 Gd178 2.570 . S
N205 C206 1.359 . S
N205 C209 1.343 . S
C206 C199 1.422 . S
C206 N205 1.359 . S
C206 C208 1.421 . S
C207 C208 1.422 . S
C207 C210 1.321 . S
C207 H234 0.931 . S
C208 C206 1.421 . S
C208 C207 1.422 . S
C208 C232 1.417 . S
C209 H186 0.931 . S
C209 N205 1.343 . S
C209 C210 1.390 . S
C210 H188 0.930 . S
C210 C207 1.321 . S
C210 C209 1.390 . S
O211 Gd179 2.386 . S
O211 C223 1.265 . S
O212 Gd178 2.353 . S
O212 C223 1.242 1_556 S
O213 Gd178 2.468 . S
O213 C231 1.263 . S
O214 Gd178 2.427 . S
O214 C231 1.252 . S
O215 Gd179 2.307 . S
O215 C224 1.261 . S
O216 Gd178 2.388 1_554 S
O216 C224 1.252 . S
O217 Gd178 2.386 . S
O217 C235 1.265 . S
O218 Gd179 2.353 1_556 S
O218 C235 1.242 . S
O219 Gd179 2.468 . S
O219 C243 1.263 . S
O220 Gd179 2.427 . S
O220 C243 1.252 . S
O221 Gd178 2.307 . S
O221 C236 1.261 . S
O222 Gd179 2.388 1_556 S
O222 C236 1.252 . S
C223 O211 1.265 . S
C223 O212 1.242 1_554 S
C224 O215 1.261 . S
C224 O216 1.252 . S
C225 C228 1.394 . S
C225 C230 1.370 . S
C225 C231 1.500 . S
C226 C229 1.383 . S
C226 C230 1.395 . S
C227 C228 1.396 . S
C227 C229 1.365 . S
C227 H244 0.929 . S
C228 C225 1.394 . S
C228 C227 1.396 . S
C228 H245 0.930 . S
C229 C226 1.383 . S
C229 C227 1.365 . S
C229 H246 0.931 . S
C230 C225 1.370 . S
C230 C226 1.395 . S
C230 H247 0.930 . S
C231 Gd178 2.805 . S
C231 O213 1.263 . S
C231 O214 1.252 . S
C231 C225 1.500 . S
C232 H194 0.930 . S
C232 C208 1.417 . S
C232 C233 1.329 . S
C233 C203 1.437 . S
C233 H204 0.929 . S
C233 C232 1.329 . S
H234 C207 0.931 . S
C235 O217 1.265 . S
C235 O218 1.242 . S
C236 O221 1.261 . S
C236 O222 1.252 . S
C237 C240 1.394 . S
C237 C242 1.370 . S
C237 C243 1.500 . S
C238 C241 1.383 . S
C238 C242 1.395 . S
C239 C240 1.396 . S
C239 C241 1.365 . S
C239 H248 0.929 . S
C240 C237 1.394 . S
C240 C239 1.396 . S
C240 H249 0.930 . S
C241 C238 1.383 . S
C241 C239 1.365 . S
C241 H250 0.931 . S
C242 C237 1.370 . S
C242 C238 1.395 . S
C242 H251 0.930 . S
C243 Gd179 2.805 . S
C243 O219 1.263 . S
C243 O220 1.252 . S
C243 C237 1.500 . S
H244 C227 0.929 . S
H245 C228 0.930 . S
H246 C229 0.931 . S
H247 C230 0.930 . S
H248 C239 0.929 . S
H249 C240 0.930 . S
H250 C241 0.931 . S
H251 C242 0.930 . S
C252 C254 1.422 . S
C252 C256 1.415 . S
C252 N258 1.369 . S
C253 C254 1.421 . S
C253 C255 1.417 . S
C253 C265 1.422 . S
C254 C252 1.422 . S
C254 C253 1.421 . S
C254 N264 1.359 . S
C255 C253 1.417 . S
C255 C257 1.329 . S
C255 H274 0.930 . S
C256 C252 1.415 . S
C256 C257 1.437 . S
C256 C260 1.413 . S
C257 C255 1.329 . S
C257 C256 1.437 . S
C257 H279 0.929 . S
N258 C252 1.369 . S
N258 C259 1.338 . S
N258 Gd263 2.622 . S
C259 N258 1.338 . S
C259 C261 1.378 . S
C259 H271 0.929 . S
C260 C256 1.413 . S
C260 C261 1.348 . S
C260 H276 0.931 . S
C261 C259 1.378 . S
C261 C260 1.348 . S
C261 H277 0.930 . S
Gd262 N282 2.622 . S
Gd262 N289 2.570 . S
Gd262 O296 2.353 . S
Gd262 O297 2.468 . S
Gd262 O298 2.427 . S
Gd262 O300 2.388 . S
Gd262 O301 2.386 . S
Gd262 O305 2.307 . S
Gd262 C315 2.805 . S
Gd263 N258 2.622 . S
Gd263 N264 2.570 . S
Gd263 O295 2.386 . S
Gd263 O299 2.307 . S
Gd263 O302 2.353 . S
Gd263 O303 2.468 . S
Gd263 O304 2.427 . S
Gd263 O306 2.388 . S
Gd263 C327 2.805 . S
N264 C254 1.359 . S
N264 Gd263 2.570 . S
N264 C266 1.343 . S
C265 C253 1.422 . S
C265 C267 1.321 . S
C265 H273 0.931 . S
C266 N264 1.343 . S
C266 C267 1.390 . S
C266 H268 0.931 . S
C267 C265 1.321 . S
C267 C266 1.390 . S
C267 H269 0.930 . S
H268 C266 0.931 . S
H269 C267 0.930 . S
H270 C293 0.931 . S
H271 C259 0.929 . S
H272 C294 0.930 . S
H273 C265 0.931 . S
H274 C255 0.930 . S
H275 C284 0.929 . S
H276 C260 0.931 . S
H277 C261 0.930 . S
H278 C316 0.945 . S
H279 C257 0.929 . S
H280 C285 0.931 . S
H281 C286 0.930 1_565 S
N282 Gd262 2.622 . S
N282 C283 1.369 . S
N282 C284 1.338 . S
C283 N282 1.369 . S
C283 C287 1.415 . S
C283 C290 1.422 . S
C284 H275 0.929 . S
C284 N282 1.338 . S
C284 C286 1.378 . S
C285 H280 0.931 . S
C285 C286 1.348 1_565 S
C285 C287 1.413 1_565 S
C286 H281 0.930 1_545 S
C286 C284 1.378 . S
C286 C285 1.348 1_545 S
C287 C283 1.415 . S
C287 C285 1.413 1_545 S
C287 C317 1.437 1_545 S
H288 C317 0.929 . S
N289 Gd262 2.570 . S
N289 C290 1.359 . S
N289 C293 1.343 . S
C290 C283 1.422 . S
C290 N289 1.359 . S
C290 C292 1.421 . S
C291 C292 1.422 . S
C291 C294 1.321 . S
C291 H318 0.931 . S
C292 C290 1.421 . S
C292 C291 1.422 . S
C292 C316 1.417 . S
C293 H270 0.931 . S
C293 N289 1.343 . S
C293 C294 1.390 . S
C294 H272 0.930 . S
C294 C291 1.321 . S
C294 C293 1.390 . S
O295 Gd263 2.386 . S
O295 C307 1.265 . S
O296 Gd262 2.353 . S
O296 C307 1.242 . S
O297 Gd262 2.468 . S
O297 C315 1.263 . S
O298 Gd262 2.427 . S
O298 C315 1.252 . S
O299 Gd263 2.307 . S
O299 C308 1.261 . S
O300 Gd262 2.388 . S
O300 C308 1.252 . S
O301 Gd262 2.386 . S
O301 C319 1.265 . S
O302 Gd263 2.353 . S
O302 C319 1.242 . S
O303 Gd263 2.468 . S
O303 C327 1.263 . S
O304 Gd263 2.427 . S
O304 C327 1.252 . S
O305 Gd262 2.307 . S
O305 C320 1.261 . S
O306 Gd263 2.388 . S
O306 C320 1.252 . S
C307 O295 1.265 . S
C307 O296 1.242 . S
C308 O299 1.261 . S
C308 O300 1.252 . S
C309 C312 1.394 . S
C309 C314 1.370 . S
C309 C315 1.500 . S
C310 C313 1.383 . S
C310 C314 1.395 . S
C311 C312 1.396 . S
C311 C313 1.365 . S
C311 H328 0.929 . S
C312 C309 1.394 . S
C312 C311 1.396 . S
C312 H329 0.930 . S
C313 C310 1.383 . S
C313 C311 1.365 . S
C313 H330 0.931 . S
C314 C309 1.370 . S
C314 C310 1.395 . S
C314 H331 0.930 . S
C315 Gd262 2.805 . S
C315 O297 1.263 . S
C315 O298 1.252 . S
C315 C309 1.500 . S
C316 H278 0.945 . S
C316 C292 1.417 . S
C316 C317 1.329 1_545 S
C317 C287 1.437 1_565 S
C317 H288 0.929 . S
C317 C316 1.329 1_565 S
H318 C291 0.931 . S
C319 O301 1.265 . S
C319 O302 1.242 . S
C320 O305 1.261 . S
C320 O306 1.252 . S
C321 C324 1.394 . S
C321 C326 1.370 . S
C321 C327 1.500 . S
C322 C325 1.383 . S
C322 C326 1.395 . S
C323 C324 1.396 . S
C323 C325 1.365 . S
C323 H332 0.929 . S
C324 C321 1.394 . S
C324 C323 1.396 . S
C324 H333 0.930 . S
C325 C322 1.383 . S
C325 C323 1.365 . S
C325 H334 0.931 . S
C326 C321 1.370 . S
C326 C322 1.395 . S
C326 H335 0.930 . S
C327 Gd263 2.805 . S
C327 O303 1.263 . S
C327 O304 1.252 . S
C327 C321 1.500 . S
H328 C311 0.929 . S
H329 C312 0.930 . S
H330 C313 0.931 . S
H331 C314 0.930 . S
H332 C323 0.929 . S
H333 C324 0.930 . S
H334 C325 0.931 . S
H335 C326 0.930 . S
C336 C338 1.422 . S
C336 C340 1.415 . S
C336 N342 1.369 . S
C337 C338 1.421 . S
C337 C339 1.417 . S
C337 C349 1.422 . S
C338 C336 1.422 . S
C338 C337 1.421 . S
C338 N348 1.359 . S
C339 C337 1.417 . S
C339 C341 1.329 . S
C339 H358 0.930 . S
C340 C336 1.415 . S
C340 C341 1.437 . S
C340 C344 1.413 . S
C341 C339 1.329 . S
C341 C340 1.437 . S
C341 H363 0.929 . S
N342 C336 1.369 . S
N342 C343 1.338 . S
N342 Gd347 2.622 . S
C343 N342 1.338 . S
C343 C345 1.378 . S
C343 H355 0.929 . S
C344 C340 1.413 . S
C344 C345 1.348 . S
C344 H360 0.931 . S
C345 C343 1.378 . S
C345 C344 1.348 . S
C345 H361 0.930 . S
Gd346 N366 2.622 . S
Gd346 N373 2.570 . S
Gd346 O380 2.353 . S
Gd346 O381 2.468 . S
Gd346 O382 2.427 . S
Gd346 O384 2.388 . S
Gd346 O385 2.386 . S
Gd346 O389 2.307 . S
Gd346 C399 2.805 . S
Gd347 N342 2.622 . S
Gd347 N348 2.570 . S
Gd347 O379 2.386 . S
Gd347 O383 2.307 . S
Gd347 O386 2.353 . S
Gd347 O387 2.468 . S
Gd347 O388 2.427 . S
Gd347 O390 2.388 . S
Gd347 C411 2.805 . S
N348 C338 1.359 . S
N348 Gd347 2.570 . S
N348 C350 1.343 . S
C349 C337 1.422 . S
C349 C351 1.321 . S
C349 H357 0.931 . S
C350 N348 1.343 . S
C350 C351 1.390 . S
C350 H352 0.931 . S
C351 C349 1.321 . S
C351 C350 1.390 . S
C351 H353 0.930 . S
H352 C350 0.931 . S
H353 C351 0.930 . S
H354 C377 0.931 . S
H355 C343 0.929 . S
H356 C378 0.930 . S
H357 C349 0.931 . S
H358 C339 0.930 . S
H359 C368 0.929 . S
H360 C344 0.931 . S
H361 C345 0.930 . S
H362 C400 0.930 . S
H363 C341 0.929 . S
H364 C369 0.931 . S
H365 C370 0.930 . S
N366 Gd346 2.622 . S
N366 C367 1.369 . S
N366 C368 1.338 . S
C367 N366 1.369 . S
C367 C371 1.415 . S
C367 C374 1.422 . S
C368 H359 0.929 . S
C368 N366 1.338 . S
C368 C370 1.378 . S
C369 H364 0.931 . S
C369 C370 1.348 . S
C369 C371 1.413 . S
C370 H365 0.930 . S
C370 C368 1.378 . S
C370 C369 1.348 . S
C371 C367 1.415 . S
C371 C369 1.413 . S
C371 C401 1.437 . S
H372 C401 0.929 . S
N373 Gd346 2.570 . S
N373 C374 1.359 . S
N373 C377 1.343 . S
C374 C367 1.422 . S
C374 N373 1.359 . S
C374 C376 1.421 . S
C375 C376 1.422 . S
C375 C378 1.321 . S
C375 H402 0.931 . S
C376 C374 1.421 . S
C376 C375 1.422 . S
C376 C400 1.417 . S
C377 H354 0.931 . S
C377 N373 1.343 . S
C377 C378 1.390 . S
C378 H356 0.930 . S
C378 C375 1.321 . S
C378 C377 1.390 . S
O379 Gd347 2.386 . S
O379 C391 1.265 . S
O380 Gd346 2.353 . S
O380 C391 1.242 . S
O381 Gd346 2.468 . S
O381 C399 1.263 . S
O382 Gd346 2.427 . S
O382 C399 1.252 . S
O383 Gd347 2.307 . S
O383 C392 1.261 . S
O384 Gd346 2.388 . S
O384 C392 1.252 . S
O385 Gd346 2.386 . S
O385 C403 1.265 . S
O386 Gd347 2.353 . S
O386 C403 1.242 . S
O387 Gd347 2.468 . S
O387 C411 1.263 . S
O388 Gd347 2.427 . S
O388 C411 1.252 . S
O389 Gd346 2.307 . S
O389 C404 1.261 . S
O390 Gd347 2.388 . S
O390 C404 1.252 . S
C391 O379 1.265 . S
C391 O380 1.242 . S
C392 O383 1.261 . S
C392 O384 1.252 . S
C393 C396 1.394 . S
C393 C398 1.370 . S
C393 C399 1.500 . S
C394 C397 1.383 . S
C394 C398 1.395 . S
C395 C396 1.396 . S
C395 C397 1.365 . S
C395 H412 0.929 . S
C396 C393 1.394 . S
C396 C395 1.396 . S
C396 H413 0.930 . S
C397 C394 1.383 . S
C397 C395 1.365 . S
C397 H414 0.931 . S
C398 C393 1.370 . S
C398 C394 1.395 . S
C398 H415 0.930 . S
C399 Gd346 2.805 . S
C399 O381 1.263 . S
C399 O382 1.252 . S
C399 C393 1.500 . S
C400 H362 0.930 . S
C400 C376 1.417 . S
C400 C401 1.329 . S
C401 C371 1.437 . S
C401 H372 0.929 . S
C401 C400 1.329 . S
H402 C375 0.931 . S
C403 O385 1.265 . S
C403 O386 1.242 . S
C404 O389 1.261 . S
C404 O390 1.252 . S
C405 C408 1.394 . S
C405 C410 1.370 . S
C405 C411 1.500 . S
C406 C409 1.383 . S
C406 C410 1.395 . S
C407 C408 1.396 . S
C407 C409 1.365 . S
C407 H416 0.929 . S
C408 C405 1.394 . S
C408 C407 1.396 . S
C408 H417 0.930 . S
C409 C406 1.383 . S
C409 C407 1.365 . S
C409 H418 0.931 . S
C410 C405 1.370 . S
C410 C406 1.395 . S
C410 H419 0.930 . S
C411 Gd347 2.805 . S
C411 O387 1.263 . S
C411 O388 1.252 . S
C411 C405 1.500 . S
H412 C395 0.929 . S
H413 C396 0.930 . S
H414 C397 0.931 . S
H415 C398 0.930 . S
H416 C407 0.929 . S
H417 C408 0.930 . S
H418 C409 0.931 . S
H419 C410 0.930 . S
C420 C422 1.422 . S
C420 C424 1.415 . S
C420 N426 1.369 . S
C421 C422 1.421 . S
C421 C423 1.417 . S
C421 C433 1.422 . S
C422 C420 1.422 . S
C422 C421 1.421 . S
C422 N432 1.359 . S
C423 C421 1.417 . S
C423 C425 1.329 . S
C423 H442 0.930 . S
C424 C420 1.415 . S
C424 C425 1.437 . S
C424 C428 1.413 . S
C425 C423 1.329 . S
C425 C424 1.437 . S
C425 H447 0.929 . S
N426 C420 1.369 . S
N426 C427 1.338 . S
N426 Gd431 2.622 . S
C427 N426 1.338 . S
C427 C429 1.378 . S
C427 H439 0.929 . S
C428 C424 1.413 . S
C428 C429 1.348 . S
C428 H444 0.931 . S
C429 C427 1.378 . S
C429 C428 1.348 . S
C429 H445 0.930 . S
Gd430 N450 2.622 . S
Gd430 N457 2.568 1_455 S
Gd430 O464 2.353 . S
Gd430 O465 2.468 . S
Gd430 O466 2.427 . S
Gd430 O468 2.388 . S
Gd430 O469 2.386 1_455 S
Gd430 O473 2.307 1_455 S
Gd430 C483 2.805 . S
Gd431 N426 2.622 . S
Gd431 N432 2.570 . S
Gd431 O463 2.386 . S
Gd431 O467 2.307 . S
Gd431 O470 2.353 . S
Gd431 O471 2.468 . S
Gd431 O472 2.427 . S
Gd431 O474 2.388 . S
Gd431 C495 2.805 . S
N432 C422 1.359 . S
N432 Gd431 2.570 . S
N432 C434 1.343 . S
C433 C421 1.422 . S
C433 C435 1.321 . S
C433 H441 0.931 1_655 S
C434 N432 1.343 . S
C434 C435 1.390 . S
C434 H436 0.931 . S
C435 C433 1.321 . S
C435 C434 1.390 . S
C435 H437 0.930 1_655 S
H436 C434 0.931 . S
H437 C435 0.930 1_455 S
H438 C461 0.931 . S
H439 C427 0.929 . S
H440 C462 0.930 . S
H441 C433 0.931 1_455 S
H442 C423 0.930 . S
H443 C452 0.929 . S
H444 C428 0.931 . S
H445 C429 0.930 . S
H446 C484 0.930 . S
H447 C425 0.929 . S
H448 C453 0.931 . S
H449 C454 0.930 . S
N450 Gd430 2.622 . S
N450 C451 1.369 . S
N450 C452 1.338 . S
C451 N450 1.369 . S
C451 C455 1.415 . S
C451 C458 1.422 . S
C452 H443 0.929 . S
C452 N450 1.338 . S
C452 C454 1.378 . S
C453 H448 0.931 . S
C453 C454 1.348 . S
C453 C455 1.413 . S
C454 H449 0.930 . S
C454 C452 1.378 . S
C454 C453 1.348 . S
C455 C451 1.415 . S
C455 C453 1.413 . S
C455 C485 1.437 . S
H456 C485 0.929 . S
N457 Gd430 2.568 1_655 S
N457 C458 1.358 1_655 S
N457 C461 1.346 . S
C458 C451 1.422 . S
C458 N457 1.358 1_455 S
C458 C460 1.421 1_455 S
C459 C460 1.422 . S
C459 C462 1.321 . S
C459 H486 0.931 . S
C460 C458 1.421 1_655 S
C460 C459 1.422 . S
C460 C484 1.417 . S
C461 H438 0.931 . S
C461 N457 1.346 . S
C461 C462 1.390 . S
C462 H440 0.930 . S
C462 C459 1.321 . S
C462 C461 1.390 . S
O463 Gd431 2.386 . S
O463 C475 1.265 1_655 S
O464 Gd430 2.353 . S
O464 C475 1.242 . S
O465 Gd430 2.468 . S
O465 C483 1.263 . S
O466 Gd430 2.427 . S
O466 C483 1.252 . S
O467 Gd431 2.307 . S
O467 C476 1.261 1_655 S
O468 Gd430 2.388 . S
O468 C476 1.252 . S
O469 Gd430 2.386 1_655 S
O469 C487 1.265 . S
O470 Gd431 2.353 . S
O470 C487 1.242 . S
O471 Gd431 2.468 . S
O471 C495 1.263 . S
O472 Gd431 2.427 . S
O472 C495 1.252 . S
O473 Gd430 2.307 1_655 S
O473 C488 1.261 . S
O474 Gd431 2.388 . S
O474 C488 1.252 . S
C475 O463 1.265 1_455 S
C475 O464 1.242 . S
C476 O467 1.261 1_455 S
C476 O468 1.252 . S
C477 C480 1.394 . S
C477 C482 1.370 . S
C477 C483 1.500 . S
C478 C481 1.383 . S
C478 C482 1.395 . S
C479 C480 1.396 . S
C479 C481 1.365 . S
C479 H496 0.929 . S
C480 C477 1.394 . S
C480 C479 1.396 . S
C480 H497 0.930 . S
C481 C478 1.383 . S
C481 C479 1.365 . S
C481 H498 0.931 . S
C482 C477 1.370 . S
C482 C478 1.395 . S
C482 H499 0.930 . S
C483 Gd430 2.805 . S
C483 O465 1.263 . S
C483 O466 1.252 . S
C483 C477 1.500 . S
C484 H446 0.930 . S
C484 C460 1.417 . S
C484 C485 1.329 1_655 S
C485 C455 1.437 . S
C485 H456 0.929 . S
C485 C484 1.329 1_455 S
H486 C459 0.931 . S
C487 O469 1.265 . S
C487 O470 1.242 . S
C488 O473 1.261 . S
C488 O474 1.252 . S
C489 C492 1.394 . S
C489 C494 1.370 . S
C489 C495 1.500 . S
C490 C493 1.383 . S
C490 C494 1.395 . S
C491 C492 1.396 . S
C491 C493 1.365 . S
C491 H500 0.929 . S
C492 C489 1.394 . S
C492 C491 1.396 . S
C492 H501 0.930 . S
C493 C490 1.383 . S
C493 C491 1.365 . S
C493 H502 0.931 . S
C494 C489 1.370 . S
C494 C490 1.395 . S
C494 H503 0.930 . S
C495 Gd431 2.805 . S
C495 O471 1.263 . S
C495 O472 1.252 . S
C495 C489 1.500 . S
H496 C479 0.929 . S
H497 C480 0.930 . S
H498 C481 0.931 . S
H499 C482 0.930 . S
H500 C491 0.929 . S
H501 C492 0.930 . S
H502 C493 0.931 . S
H503 C494 0.930 . S
C504 C506 1.422 . S
C504 C508 1.415 . S
C504 N510 1.369 . S
C505 C506 1.421 . S
C505 C507 1.417 . S
C505 C517 1.422 . S
C506 C504 1.422 . S
C506 C505 1.421 . S
C506 N516 1.359 . S
C507 C505 1.417 . S
C507 C509 1.329 1_655 S
C507 H526 0.930 . S
C508 C504 1.415 . S
C508 C509 1.437 1_655 S
C508 C512 1.413 1_655 S
C509 C507 1.329 1_455 S
C509 C508 1.437 1_455 S
C509 H531 0.929 . S
N510 C504 1.369 . S
N510 C511 1.338 . S
N510 Gd515 2.622 . S
C511 N510 1.338 . S
C511 C513 1.378 . S
C511 H523 0.929 . S
C512 C508 1.413 1_455 S
C512 C513 1.348 1_455 S
C512 H528 0.931 . S
C513 C511 1.378 . S
C513 C512 1.348 1_655 S
C513 H529 0.930 1_655 S
Gd514 N534 2.622 . S
Gd514 N541 2.570 . S
Gd514 O548 2.353 . S
Gd514 O549 2.468 . S
Gd514 O550 2.427 . S
Gd514 O552 2.388 . S
Gd514 O553 2.386 1_556 S
Gd514 O557 2.307 1_556 S
Gd514 C567 2.805 . S
Gd515 N510 2.622 . S
Gd515 N516 2.570 . S
Gd515 O547 2.375 1_554 S
Gd515 O551 2.307 . S
Gd515 O554 2.353 . S
Gd515 O555 2.468 . S
Gd515 O556 2.427 . S
Gd515 O558 2.388 . S
Gd515 C579 2.805 . S
N516 C506 1.359 . S
N516 Gd515 2.570 . S
N516 C518 1.343 . S
C517 C505 1.422 . S
C517 C519 1.321 . S
C517 H525 0.931 1_554 S
C518 N516 1.343 . S
C518 C519 1.390 . S
C518 H520 0.931 . S
C519 C517 1.321 . S
C519 C518 1.390 . S
C519 H521 0.930 1_554 S
H520 C518 0.931 . S
H521 C519 0.930 1_556 S
H522 C545 0.931 . S
H523 C511 0.929 . S
H524 C546 0.930 . S
H525 C517 0.931 1_556 S
H526 C507 0.930 . S
H527 C536 0.929 . S
H528 C512 0.931 . S
H529 C513 0.930 1_455 S
H530 C568 0.930 . S
H531 C509 0.929 . S
H532 C537 0.931 . S
H533 C538 0.930 . S
N534 Gd514 2.622 . S
N534 C535 1.369 . S
N534 C536 1.338 . S
C535 N534 1.369 . S
C535 C539 1.415 . S
C535 C542 1.422 . S
C536 H527 0.929 . S
C536 N534 1.338 . S
C536 C538 1.378 . S
C537 H532 0.931 . S
C537 C538 1.348 . S
C537 C539 1.413 . S
C538 H533 0.930 . S
C538 C536 1.378 . S
C538 C537 1.348 . S
C539 C535 1.415 . S
C539 C537 1.413 . S
C539 C569 1.437 . S
H540 C569 0.929 . S
N541 Gd514 2.570 . S
N541 C542 1.359 . S
N541 C545 1.343 1_556 S
C542 C535 1.422 . S
C542 N541 1.359 . S
C542 C544 1.421 1_556 S
C543 C544 1.422 . S
C543 C546 1.321 . S
C543 H570 0.931 . S
C544 C542 1.421 1_554 S
C544 C543 1.422 . S
C544 C568 1.417 . S
C545 H522 0.931 . S
C545 N541 1.343 1_554 S
C545 C546 1.390 . S
C546 H524 0.930 . S
C546 C543 1.321 . S
C546 C545 1.390 . S
O547 Gd515 2.375 1_556 S
O547 C559 1.278 . S
O548 Gd514 2.353 . S
O548 C559 1.242 . S
O549 Gd514 2.468 . S
O549 C567 1.263 . S
O550 Gd514 2.427 . S
O550 C567 1.252 . S
O551 Gd515 2.307 . S
O551 C560 1.261 1_554 S
O552 Gd514 2.388 . S
O552 C560 1.252 . S
O553 Gd514 2.386 1_554 S
O553 C571 1.265 . S
O554 Gd515 2.353 . S
O554 C571 1.242 . S
O555 Gd515 2.468 . S
O555 C579 1.263 . S
O556 Gd515 2.427 . S
O556 C579 1.252 . S
O557 Gd514 2.307 1_554 S
O557 C572 1.261 . S
O558 Gd515 2.388 . S
O558 C572 1.252 . S
C559 O547 1.278 . S
C559 O548 1.242 . S
C560 O551 1.261 1_556 S
C560 O552 1.252 . S
C561 C564 1.394 . S
C561 C566 1.370 . S
C561 C567 1.500 . S
C562 C565 1.383 . S
C562 C566 1.395 . S
C563 C564 1.396 . S
C563 C565 1.365 . S
C563 H580 0.929 . S
C564 C561 1.394 . S
C564 C563 1.396 . S
C564 H581 0.930 . S
C565 C562 1.383 . S
C565 C563 1.365 . S
C565 H582 0.931 . S
C566 C561 1.370 . S
C566 C562 1.395 . S
C566 H583 0.930 . S
C567 Gd514 2.805 . S
C567 O549 1.263 . S
C567 O550 1.252 . S
C567 C561 1.500 . S
C568 H530 0.930 . S
C568 C544 1.417 . S
C568 C569 1.329 1_554 S
C569 C539 1.437 . S
C569 H540 0.929 . S
C569 C568 1.329 1_556 S
H570 C543 0.931 . S
C571 O553 1.265 . S
C571 O554 1.242 . S
C572 O557 1.261 . S
C572 O558 1.252 . S
C573 C576 1.394 . S
C573 C578 1.370 . S
C573 C579 1.500 . S
C574 C577 1.383 . S
C574 C578 1.395 . S
C575 C576 1.396 . S
C575 C577 1.365 . S
C575 H584 0.929 . S
C576 C573 1.394 . S
C576 C575 1.396 . S
C576 H585 0.930 . S
C577 C574 1.383 . S
C577 C575 1.365 . S
C577 H586 0.931 . S
C578 C573 1.370 . S
C578 C574 1.395 . S
C578 H587 0.930 . S
C579 Gd515 2.805 . S
C579 O555 1.263 . S
C579 O556 1.252 . S
C579 C573 1.500 . S
H580 C563 0.929 . S
H581 C564 0.930 . S
H582 C565 0.931 . S
H583 C566 0.930 . S
H584 C575 0.929 . S
H585 C576 0.930 . S
H586 C577 0.931 . S
H587 C578 0.930 . S
C588 C590 1.422 . S
C588 C592 1.415 . S
C588 N594 1.369 . S
C589 C590 1.421 . S
C589 C591 1.417 . S
C589 C601 1.422 . S
C590 C588 1.422 . S
C590 C589 1.421 . S
C590 N600 1.359 . S
C591 C589 1.417 . S
C591 C593 1.329 . S
C591 H610 0.930 . S
C592 C588 1.415 . S
C592 C593 1.437 . S
C592 C596 1.413 . S
C593 C591 1.329 . S
C593 C592 1.437 . S
C593 H615 0.929 . S
N594 C588 1.369 . S
N594 C595 1.338 . S
N594 Gd599 2.622 . S
C595 N594 1.338 . S
C595 C597 1.378 . S
C595 H607 0.929 . S
C596 C592 1.413 . S
C596 C597 1.348 . S
C596 H612 0.931 . S
C597 C595 1.378 . S
C597 C596 1.348 . S
C597 H613 0.930 . S
Gd598 N618 2.622 . S
Gd598 N625 2.570 . S
Gd598 O632 2.353 . S
Gd598 O633 2.468 . S
Gd598 O634 2.427 . S
Gd598 O636 2.388 . S
Gd598 O637 2.386 . S
Gd598 O641 2.307 . S
Gd598 C651 2.805 . S
Gd599 N594 2.622 . S
Gd599 N600 2.570 . S
Gd599 O631 2.386 . S
Gd599 O635 2.307 . S
Gd599 O638 2.353 . S
Gd599 O639 2.468 . S
Gd599 O640 2.427 . S
Gd599 O642 2.388 . S
Gd599 C663 2.805 . S
N600 C590 1.359 . S
N600 Gd599 2.570 . S
N600 C602 1.343 . S
C601 C589 1.422 . S
C601 C603 1.321 . S
C601 H609 0.931 . S
C602 N600 1.343 . S
C602 C603 1.390 . S
C602 H604 0.931 . S
C603 C601 1.321 . S
C603 C602 1.390 . S
C603 H605 0.930 . S
H604 C602 0.931 . S
H605 C603 0.930 . S
H606 C629 0.931 . S
H607 C595 0.929 . S
H608 C630 0.930 . S
H609 C601 0.931 . S
H610 C591 0.930 . S
H611 C620 0.929 . S
H612 C596 0.931 . S
H613 C597 0.930 . S
H614 C652 0.930 . S
H615 C593 0.929 . S
H616 C621 0.931 . S
H617 C622 0.930 . S
N618 Gd598 2.622 . S
N618 C619 1.369 . S
N618 C620 1.338 . S
C619 N618 1.369 . S
C619 C623 1.415 . S
C619 C626 1.422 . S
C620 H611 0.929 . S
C620 N618 1.338 . S
C620 C622 1.378 . S
C621 H616 0.931 . S
C621 C622 1.348 . S
C621 C623 1.413 . S
C622 H617 0.930 . S
C622 C620 1.378 . S
C622 C621 1.348 . S
C623 C619 1.415 . S
C623 C621 1.413 . S
C623 C653 1.437 . S
H624 C653 0.929 . S
N625 Gd598 2.570 . S
N625 C626 1.359 . S
N625 C629 1.343 . S
C626 C619 1.422 . S
C626 N625 1.359 . S
C626 C628 1.421 . S
C627 C628 1.422 . S
C627 C630 1.321 . S
C627 H654 0.931 . S
C628 C626 1.421 . S
C628 C627 1.422 . S
C628 C652 1.417 . S
C629 H606 0.931 . S
C629 N625 1.343 . S
C629 C630 1.390 . S
C630 H608 0.930 . S
C630 C627 1.321 . S
C630 C629 1.390 . S
O631 Gd599 2.386 . S
O631 C643 1.265 . S
O632 Gd598 2.353 . S
O632 C643 1.242 . S
O633 Gd598 2.468 . S
O633 C651 1.263 . S
O634 Gd598 2.427 . S
O634 C651 1.252 . S
O635 Gd599 2.307 . S
O635 C644 1.261 . S
O636 Gd598 2.388 . S
O636 C644 1.252 . S
O637 Gd598 2.386 . S
O637 C655 1.265 . S
O638 Gd599 2.353 . S
O638 C655 1.242 . S
O639 Gd599 2.468 . S
O639 C663 1.263 . S
O640 Gd599 2.427 . S
O640 C663 1.252 . S
O641 Gd598 2.307 . S
O641 C656 1.261 . S
O642 Gd599 2.388 . S
O642 C656 1.252 . S
C643 O631 1.265 . S
C643 O632 1.242 . S
C644 O635 1.261 . S
C644 O636 1.252 . S
C645 C648 1.394 . S
C645 C650 1.370 . S
C645 C651 1.500 . S
C646 C649 1.383 . S
C646 C650 1.395 . S
C647 C648 1.396 . S
C647 C649 1.365 . S
C647 H664 0.929 . S
C648 C645 1.394 . S
C648 C647 1.396 . S
C648 H665 0.930 . S
C649 C646 1.383 . S
C649 C647 1.365 . S
C649 H666 0.931 . S
C650 C645 1.370 . S
C650 C646 1.395 . S
C650 H667 0.930 . S
C651 Gd598 2.805 . S
C651 O633 1.263 . S
C651 O634 1.252 . S
C651 C645 1.500 . S
C652 H614 0.930 . S
C652 C628 1.417 . S
C652 C653 1.329 . S
C653 C623 1.437 . S
C653 H624 0.929 . S
C653 C652 1.329 . S
H654 C627 0.931 . S
C655 O637 1.265 . S
C655 O638 1.242 . S
C656 O641 1.261 . S
C656 O642 1.252 . S
C657 C660 1.394 . S
C657 C662 1.370 . S
C657 C663 1.500 . S
C658 C661 1.383 . S
C658 C662 1.395 . S
C659 C660 1.396 . S
C659 C661 1.365 . S
C659 H668 0.929 . S
C660 C657 1.394 . S
C660 C659 1.396 . S
C660 H669 0.930 . S
C661 C658 1.383 . S
C661 C659 1.365 . S
C661 H670 0.931 . S
C662 C657 1.370 . S
C662 C658 1.395 . S
C662 H671 0.930 . S
C663 Gd599 2.805 . S
C663 O639 1.263 . S
C663 O640 1.252 . S
C663 C657 1.500 . S
H664 C647 0.929 . S
H665 C648 0.930 . S
H666 C649 0.931 . S
H667 C650 0.930 . S
H668 C659 0.929 . S
H669 C660 0.930 . S
H670 C661 0.931 . S
H671 C662 0.930 . S
C672 C674 1.422 . S
C672 C676 1.415 . S
C672 N678 1.369 . S
C673 C674 1.421 . S
C673 C675 1.417 . S
C673 C685 1.422 . S
C674 C672 1.422 . S
C674 C673 1.421 . S
C674 N684 1.359 . S
C675 C673 1.417 . S
C675 C677 1.329 . S
C675 H694 0.930 . S
C676 C672 1.415 . S
C676 C677 1.437 . S
C676 C680 1.413 . S
C677 C675 1.329 . S
C677 C676 1.437 . S
C677 H699 0.929 . S
N678 C672 1.369 . S
N678 C679 1.338 . S
N678 Gd683 2.622 . S
C679 N678 1.338 . S
C679 C681 1.378 . S
C679 H691 0.929 . S
C680 C676 1.413 . S
C680 C681 1.348 . S
C680 H696 0.931 . S
C681 C679 1.378 . S
C681 C680 1.348 . S
C681 H697 0.930 . S
Gd682 N702 2.622 . S
Gd682 N709 2.570 . S
Gd682 O716 2.353 . S
Gd682 O717 2.468 . S
Gd682 O718 2.427 . S
Gd682 O720 2.388 . S
Gd682 O721 2.386 . S
Gd682 O725 2.307 . S
Gd682 C735 2.805 . S
Gd683 N678 2.622 . S
Gd683 N684 2.570 . S
Gd683 O715 2.386 . S
Gd683 O719 2.307 . S
Gd683 O722 2.353 . S
Gd683 O723 2.468 . S
Gd683 O724 2.427 . S
Gd683 O726 2.388 . S
Gd683 C747 2.805 . S
N684 C674 1.359 . S
N684 Gd683 2.570 . S
N684 C686 1.343 . S
C685 C673 1.422 . S
C685 C687 1.321 . S
C685 H693 0.931 . S
C686 N684 1.343 . S
C686 C687 1.390 . S
C686 H688 0.931 . S
C687 C685 1.321 . S
C687 C686 1.390 . S
C687 H689 0.930 . S
H688 C686 0.931 . S
H689 C687 0.930 . S
H690 C713 0.931 . S
H691 C679 0.929 . S
H692 C714 0.930 . S
H693 C685 0.931 . S
H694 C675 0.930 . S
H695 C704 0.929 . S
H696 C680 0.931 . S
H697 C681 0.930 . S
H698 C736 0.930 . S
H699 C677 0.929 . S
H700 C705 0.931 . S
H701 C706 0.930 1_556 S
N702 Gd682 2.622 . S
N702 C703 1.369 . S
N702 C704 1.338 . S
C703 N702 1.369 . S
C703 C707 1.415 . S
C703 C710 1.422 . S
C704 H695 0.929 . S
C704 N702 1.338 . S
C704 C706 1.378 . S
C705 H700 0.931 . S
C705 C706 1.348 1_556 S
C705 C707 1.413 1_556 S
C706 H701 0.930 1_554 S
C706 C704 1.378 . S
C706 C705 1.348 1_554 S
C707 C703 1.415 . S
C707 C705 1.413 1_554 S
C707 C737 1.437 1_554 S
H708 C737 0.929 . S
N709 Gd682 2.570 . S
N709 C710 1.359 . S
N709 C713 1.343 . S
C710 C703 1.422 . S
C710 N709 1.359 . S
C710 C712 1.421 . S
C711 C712 1.422 . S
C711 C714 1.321 . S
C711 H738 0.931 . S
C712 C710 1.421 . S
C712 C711 1.422 . S
C712 C736 1.417 . S
C713 H690 0.931 . S
C713 N709 1.343 . S
C713 C714 1.390 . S
C714 H692 0.930 . S
C714 C711 1.321 . S
C714 C713 1.390 . S
O715 Gd683 2.386 . S
O715 C727 1.265 . S
O716 Gd682 2.353 . S
O716 C727 1.242 . S
O717 Gd682 2.468 . S
O717 C735 1.263 . S
O718 Gd682 2.427 . S
O718 C735 1.252 . S
O719 Gd683 2.307 . S
O719 C728 1.261 . S
O720 Gd682 2.388 . S
O720 C728 1.252 . S
O721 Gd682 2.386 . S
O721 C739 1.265 . S
O722 Gd683 2.353 . S
O722 C739 1.242 . S
O723 Gd683 2.468 . S
O723 C747 1.263 . S
O724 Gd683 2.427 . S
O724 C747 1.252 . S
O725 Gd682 2.307 . S
O725 C740 1.261 . S
O726 Gd683 2.388 . S
O726 C740 1.252 . S
C727 O715 1.265 . S
C727 O716 1.242 . S
C728 O719 1.261 . S
C728 O720 1.252 . S
C729 C732 1.394 . S
C729 C734 1.370 . S
C729 C735 1.500 . S
C730 C733 1.383 . S
C730 C734 1.395 . S
C731 C732 1.396 . S
C731 C733 1.365 . S
C731 H748 0.929 . S
C732 C729 1.394 . S
C732 C731 1.396 . S
C732 H749 0.930 . S
C733 C730 1.383 . S
C733 C731 1.365 . S
C733 H750 0.931 . S
C734 C729 1.370 . S
C734 C730 1.395 . S
C734 H751 0.930 . S
C735 Gd682 2.805 . S
C735 O717 1.263 . S
C735 O718 1.252 . S
C735 C729 1.500 . S
C736 H698 0.930 . S
C736 C712 1.417 . S
C736 C737 1.329 1_554 S
C737 C707 1.437 1_556 S
C737 H708 0.929 . S
C737 C736 1.329 1_556 S
H738 C711 0.931 . S
C739 O721 1.265 . S
C739 O722 1.242 . S
C740 O725 1.261 . S
C740 O726 1.252 . S
C741 C744 1.394 . S
C741 C746 1.370 . S
C741 C747 1.500 . S
C742 C745 1.383 . S
C742 C746 1.395 . S
C743 C744 1.396 . S
C743 C745 1.365 . S
C743 H752 0.929 . S
C744 C741 1.394 . S
C744 C743 1.396 . S
C744 H753 0.930 . S
C745 C742 1.383 . S
C745 C743 1.365 . S
C745 H754 0.931 . S
C746 C741 1.370 . S
C746 C742 1.395 . S
C746 H755 0.930 . S
C747 Gd683 2.805 . S
C747 O723 1.263 . S
C747 O724 1.252 . S
C747 C741 1.500 . S
H748 C731 0.929 . S
H749 C732 0.930 . S
H750 C733 0.931 . S
H751 C734 0.930 . S
H752 C743 0.929 . S
H753 C744 0.930 . S
H754 C745 0.931 . S
H755 C746 0.930 . S
C756 C758 1.422 . S
C756 C760 1.415 . S
C756 N762 1.369 . S
C757 C758 1.421 . S
C757 C759 1.417 . S
C757 C769 1.422 . S
C758 C756 1.422 . S
C758 C757 1.421 . S
C758 N768 1.359 . S
C759 C757 1.417 . S
C759 C761 1.329 . S
C759 H778 0.930 . S
C760 C756 1.415 . S
C760 C761 1.437 . S
C760 C764 1.413 . S
C761 C759 1.329 . S
C761 C760 1.437 . S
C761 H783 0.929 . S
N762 C756 1.369 . S
N762 C763 1.338 . S
N762 Gd767 2.622 . S
C763 N762 1.338 . S
C763 C765 1.378 . S
C763 H775 0.929 1_565 S
C764 C760 1.413 . S
C764 C765 1.348 . S
C764 H780 0.931 . S
C765 C763 1.378 . S
C765 C764 1.348 . S
C765 H781 0.930 1_565 S
Gd766 N786 2.622 . S
Gd766 N793 2.570 . S
Gd766 O800 2.353 . S
Gd766 O801 2.468 . S
Gd766 O802 2.427 . S
Gd766 O804 2.388 1_545 S
Gd766 O805 2.386 . S
Gd766 O809 2.307 . S
Gd766 C819 2.805 . S
Gd767 N762 2.622 . S
Gd767 N768 2.570 . S
Gd767 O799 2.386 . S
Gd767 O803 2.307 . S
Gd767 O806 2.353 1_565 S
Gd767 O807 2.468 . S
Gd767 O808 2.427 . S
Gd767 O810 2.388 1_565 S
Gd767 C831 2.805 . S
N768 C758 1.359 . S
N768 Gd767 2.570 . S
N768 C770 1.343 . S
C769 C757 1.422 . S
C769 C771 1.321 . S
C769 H777 0.931 . S
C770 N768 1.343 . S
C770 C771 1.390 . S
C770 H772 0.931 . S
C771 C769 1.321 . S
C771 C770 1.390 . S
C771 H773 0.930 . S
H772 C770 0.931 . S
H773 C771 0.930 . S
H774 C797 0.931 . S
H775 C763 0.929 1_545 S
H776 C798 0.930 . S
H777 C769 0.931 . S
H778 C759 0.930 . S
H779 C788 0.929 . S
H780 C764 0.931 . S
H781 C765 0.930 1_545 S
H782 C820 0.930 . S
H783 C761 0.929 . S
H784 C789 0.931 . S
H785 C790 0.930 1_554 S
N786 Gd766 2.622 . S
N786 C787 1.369 . S
N786 C788 1.338 . S
C787 N786 1.369 . S
C787 C791 1.415 . S
C787 C794 1.422 . S
C788 H779 0.929 . S
C788 N786 1.338 . S
C788 C790 1.378 . S
C789 H784 0.931 . S
C789 C790 1.348 1_554 S
C789 C791 1.413 1_554 S
C790 H785 0.930 1_556 S
C790 C788 1.378 . S
C790 C789 1.348 1_556 S
C791 C787 1.415 . S
C791 C789 1.413 1_556 S
C791 C821 1.437 1_556 S
H792 C821 0.929 . S
N793 Gd766 2.570 . S
N793 C794 1.359 . S
N793 C797 1.343 . S
C794 C787 1.422 . S
C794 N793 1.359 . S
C794 C796 1.421 . S
C795 C796 1.422 . S
C795 C798 1.321 . S
C795 H822 0.931 . S
C796 C794 1.421 . S
C796 C795 1.422 . S
C796 C820 1.417 . S
C797 H774 0.931 . S
C797 N793 1.343 . S
C797 C798 1.390 . S
C798 H776 0.930 . S
C798 C795 1.321 . S
C798 C797 1.390 . S
O799 Gd767 2.386 . S
O799 C811 1.265 . S
O800 Gd766 2.353 . S
O800 C811 1.242 1_545 S
O801 Gd766 2.468 . S
O801 C819 1.263 . S
O802 Gd766 2.427 . S
O802 C819 1.252 . S
O803 Gd767 2.307 . S
O803 C812 1.261 . S
O804 Gd766 2.388 1_565 S
O804 C812 1.252 . S
O805 Gd766 2.386 . S
O805 C823 1.265 . S
O806 Gd767 2.353 1_545 S
O806 C823 1.242 . S
O807 Gd767 2.468 . S
O807 C831 1.263 . S
O808 Gd767 2.427 . S
O808 C831 1.252 . S
O809 Gd766 2.307 . S
O809 C824 1.261 . S
O810 Gd767 2.388 1_545 S
O810 C824 1.252 . S
C811 O799 1.265 . S
C811 O800 1.242 1_565 S
C812 O803 1.261 . S
C812 O804 1.252 . S
C813 C816 1.394 . S
C813 C818 1.370 . S
C813 C819 1.500 . S
C814 C817 1.383 . S
C814 C818 1.395 . S
C815 C816 1.396 . S
C815 C817 1.365 . S
C815 H832 0.929 . S
C816 C813 1.394 . S
C816 C815 1.396 . S
C816 H833 0.930 . S
C817 C814 1.383 . S
C817 C815 1.365 . S
C817 H834 0.931 . S
C818 C813 1.370 . S
C818 C814 1.395 . S
C818 H835 0.930 . S
C819 Gd766 2.805 . S
C819 O801 1.263 . S
C819 O802 1.252 . S
C819 C813 1.500 . S
C820 H782 0.930 . S
C820 C796 1.417 . S
C820 C821 1.329 1_556 S
C821 C791 1.437 1_554 S
C821 H792 0.929 . S
C821 C820 1.329 1_554 S
H822 C795 0.931 . S
C823 O805 1.265 . S
C823 O806 1.242 . S
C824 O809 1.261 . S
C824 O810 1.252 . S
C825 C828 1.394 . S
C825 C830 1.370 . S
C825 C831 1.500 . S
C826 C829 1.383 . S
C826 C830 1.395 . S
C827 C828 1.396 . S
C827 C829 1.365 . S
C827 H836 0.929 . S
C828 C825 1.394 . S
C828 C827 1.396 . S
C828 H837 0.930 . S
C829 C826 1.383 . S
C829 C827 1.365 . S
C829 H838 0.931 . S
C830 C825 1.370 . S
C830 C826 1.395 . S
C830 H839 0.930 . S
C831 Gd767 2.805 . S
C831 O807 1.263 . S
C831 O808 1.252 . S
C831 C825 1.500 . S
H832 C815 0.929 . S
H833 C816 0.930 . S
H834 C817 0.931 . S
H835 C818 0.930 . S
H836 C827 0.929 . S
H837 C828 0.930 . S
H838 C829 0.931 . S
H839 C830 0.930 . S
C840 C842 1.422 . S
C840 C844 1.415 . S
C840 N846 1.369 . S
C841 C842 1.421 . S
C841 C843 1.417 . S
C841 C853 1.422 . S
C842 C840 1.422 . S
C842 C841 1.421 . S
C842 N852 1.359 . S
C843 C841 1.417 . S
C843 C845 1.329 . S
C843 H862 0.930 . S
C844 C840 1.415 . S
C844 C845 1.437 . S
C844 C848 1.413 . S
C845 C843 1.329 . S
C845 C844 1.437 . S
C845 H867 0.929 . S
N846 C840 1.369 . S
N846 C847 1.338 . S
N846 Gd851 2.622 . S
C847 N846 1.338 . S
C847 C849 1.378 . S
C847 H859 0.929 1_545 S
C848 C844 1.413 . S
C848 C849 1.348 . S
C848 H864 0.931 . S
C849 C847 1.378 . S
C849 C848 1.348 . S
C849 H865 0.930 1_545 S
Gd850 N870 2.622 . S
Gd850 N877 2.570 . S
Gd850 O884 2.353 . S
Gd850 O885 2.468 . S
Gd850 O886 2.427 . S
Gd850 O888 2.388 1_565 S
Gd850 O889 2.386 . S
Gd850 O893 2.307 . S
Gd850 C903 2.805 . S
Gd851 N846 2.622 . S
Gd851 N852 2.570 . S
Gd851 O883 2.386 . S
Gd851 O887 2.307 . S
Gd851 O890 2.353 1_545 S
Gd851 O891 2.468 . S
Gd851 O892 2.427 . S
Gd851 O894 2.388 1_545 S
Gd851 C915 2.805 . S
N852 C842 1.359 . S
N852 Gd851 2.570 . S
N852 C854 1.343 . S
C853 C841 1.422 . S
C853 C855 1.321 . S
C853 H861 0.931 . S
C854 N852 1.343 . S
C854 C855 1.390 . S
C854 H856 0.931 . S
C855 C853 1.321 . S
C855 C854 1.390 . S
C855 H857 0.930 . S
H856 C854 0.931 . S
H857 C855 0.930 . S
H858 C881 0.931 . S
H859 C847 0.929 1_565 S
H860 C882 0.930 . S
H861 C853 0.931 . S
H862 C843 0.930 . S
H863 C872 0.929 . S
H864 C848 0.931 . S
H865 C849 0.930 1_565 S
H866 C904 0.930 . S
H867 C845 0.929 . S
H868 C873 0.931 . S
H869 C874 0.930 . S
N870 Gd850 2.622 . S
N870 C871 1.369 . S
N870 C872 1.338 . S
C871 N870 1.369 . S
C871 C875 1.415 . S
C871 C878 1.422 . S
C872 H863 0.929 . S
C872 N870 1.338 . S
C872 C874 1.378 . S
C873 H868 0.931 . S
C873 C874 1.348 . S
C873 C875 1.413 . S
C874 H869 0.930 . S
C874 C872 1.378 . S
C874 C873 1.348 . S
C875 C871 1.415 . S
C875 C873 1.413 . S
C875 C905 1.437 . S
H876 C905 0.929 . S
N877 Gd850 2.570 . S
N877 C878 1.359 . S
N877 C881 1.343 . S
C878 C871 1.422 . S
C878 N877 1.359 . S
C878 C880 1.421 . S
C879 C880 1.422 . S
C879 C882 1.321 . S
C879 H906 0.931 . S
C880 C878 1.421 . S
C880 C879 1.422 . S
C880 C904 1.417 . S
C881 H858 0.931 . S
C881 N877 1.343 . S
C881 C882 1.390 . S
C882 H860 0.930 . S
C882 C879 1.321 . S
C882 C881 1.390 . S
O883 Gd851 2.386 . S
O883 C895 1.265 . S
O884 Gd850 2.353 . S
O884 C895 1.242 1_565 S
O885 Gd850 2.468 . S
O885 C903 1.263 . S
O886 Gd850 2.427 . S
O886 C903 1.252 . S
O887 Gd851 2.307 . S
O887 C896 1.261 . S
O888 Gd850 2.388 1_545 S
O888 C896 1.252 . S
O889 Gd850 2.386 . S
O889 C907 1.265 . S
O890 Gd851 2.353 1_565 S
O890 C907 1.242 . S
O891 Gd851 2.468 . S
O891 C915 1.263 . S
O892 Gd851 2.427 . S
O892 C915 1.252 . S
O893 Gd850 2.307 . S
O893 C908 1.261 . S
O894 Gd851 2.388 1_565 S
O894 C908 1.252 . S
C895 O883 1.265 . S
C895 O884 1.242 1_545 S
C896 O887 1.261 . S
C896 O888 1.252 . S
C897 C900 1.394 . S
C897 C902 1.370 . S
C897 C903 1.500 . S
C898 C901 1.383 . S
C898 C902 1.395 . S
C899 C900 1.396 . S
C899 C901 1.365 . S
C899 H916 0.929 . S
C900 C897 1.394 . S
C900 C899 1.396 . S
C900 H917 0.930 . S
C901 C898 1.383 . S
C901 C899 1.365 . S
C901 H918 0.931 . S
C902 C897 1.370 . S
C902 C898 1.395 . S
C902 H919 0.930 . S
C903 Gd850 2.805 . S
C903 O885 1.263 . S
C903 O886 1.252 . S
C903 C897 1.500 . S
C904 H866 0.930 . S
C904 C880 1.417 . S
C904 C905 1.329 . S
C905 C875 1.437 . S
C905 H876 0.929 . S
C905 C904 1.329 . S
H906 C879 0.931 . S
C907 O889 1.265 . S
C907 O890 1.242 . S
C908 O893 1.261 . S
C908 O894 1.252 . S
C909 C912 1.394 . S
C909 C914 1.370 . S
C909 C915 1.500 . S
C910 C913 1.383 . S
C910 C914 1.395 . S
C911 C912 1.396 . S
C911 C913 1.365 . S
C911 H920 0.929 . S
C912 C909 1.394 . S
C912 C911 1.396 . S
C912 H921 0.930 . S
C913 C910 1.383 . S
C913 C911 1.365 . S
C913 H922 0.931 . S
C914 C909 1.370 . S
C914 C910 1.395 . S
C914 H923 0.930 . S
C915 Gd851 2.805 . S
C915 O891 1.263 . S
C915 O892 1.252 . S
C915 C909 1.500 . S
H916 C899 0.929 . S
H917 C900 0.930 . S
H918 C901 0.931 . S
H919 C902 0.930 . S
H920 C911 0.929 . S
H921 C912 0.930 . S
H922 C913 0.931 . S
H923 C914 0.930 . S
C924 C926 1.422 . S
C924 C928 1.415 . S
C924 N930 1.369 . S
C925 C926 1.421 . S
C925 C927 1.417 . S
C925 C937 1.422 . S
C926 C924 1.422 . S
C926 C925 1.421 . S
C926 N936 1.359 . S
C927 C925 1.417 . S
C927 C929 1.329 . S
C927 H946 0.930 . S
C928 C924 1.415 . S
C928 C929 1.437 . S
C928 C932 1.413 . S
C929 C927 1.329 . S
C929 C928 1.437 . S
C929 H951 0.929 . S
N930 C924 1.369 . S
N930 C931 1.338 . S
N930 Gd935 2.622 . S
C931 N930 1.338 . S
C931 C933 1.378 . S
C931 H943 0.929 . S
C932 C928 1.413 . S
C932 C933 1.348 . S
C932 H948 0.931 . S
C933 C931 1.378 . S
C933 C932 1.348 . S
C933 H949 0.930 . S
Gd934 N954 2.622 . S
Gd934 N961 2.570 . S
Gd934 O968 2.353 . S
Gd934 O969 2.468 . S
Gd934 O970 2.427 . S
Gd934 O972 2.388 . S
Gd934 O973 2.386 . S
Gd934 O977 2.307 . S
Gd934 C987 2.805 . S
Gd935 N930 2.622 . S
Gd935 N936 2.570 . S
Gd935 O967 2.386 . S
Gd935 O971 2.307 . S
Gd935 O974 2.353 . S
Gd935 O975 2.468 . S
Gd935 O976 2.427 . S
Gd935 O978 2.388 . S
Gd935 C999 2.805 . S
N936 C926 1.359 . S
N936 Gd935 2.570 . S
N936 C938 1.343 . S
C937 C925 1.422 . S
C937 C939 1.321 . S
C937 H945 0.931 . S
C938 N936 1.343 . S
C938 C939 1.390 . S
C938 H940 0.931 . S
C939 C937 1.321 . S
C939 C938 1.390 . S
C939 H941 0.930 . S
H940 C938 0.931 . S
H941 C939 0.930 . S
H942 C965 0.931 . S
H943 C931 0.929 . S
H944 C966 0.930 . S
H945 C937 0.931 . S
H946 C927 0.930 . S
H947 C956 0.929 . S
H948 C932 0.931 . S
H949 C933 0.930 . S
H950 C988 0.930 . S
H951 C929 0.929 . S
H952 C957 0.931 . S
H953 C958 0.930 . S
N954 Gd934 2.622 . S
N954 C955 1.369 . S
N954 C956 1.338 . S
C955 N954 1.369 . S
C955 C959 1.415 . S
C955 C962 1.422 . S
C956 H947 0.929 . S
C956 N954 1.338 . S
C956 C958 1.378 . S
C957 H952 0.931 . S
C957 C958 1.348 . S
C957 C959 1.413 . S
C958 H953 0.930 . S
C958 C956 1.378 . S
C958 C957 1.348 . S
C959 C955 1.415 . S
C959 C957 1.413 . S
C959 C989 1.437 . S
H960 C989 0.929 . S
N961 Gd934 2.570 . S
N961 C962 1.359 . S
N961 C965 1.343 . S
C962 C955 1.422 . S
C962 N961 1.359 . S
C962 C964 1.421 . S
C963 C964 1.422 . S
C963 C966 1.321 . S
C963 H990 0.931 . S
C964 C962 1.421 . S
C964 C963 1.422 . S
C964 C988 1.417 . S
C965 H942 0.931 . S
C965 N961 1.343 . S
C965 C966 1.390 . S
C966 H944 0.930 . S
C966 C963 1.321 . S
C966 C965 1.390 . S
O967 Gd935 2.386 . S
O967 C979 1.265 . S
O968 Gd934 2.353 . S
O968 C979 1.242 . S
O969 Gd934 2.468 . S
O969 C987 1.263 . S
O970 Gd934 2.427 . S
O970 C987 1.252 . S
O971 Gd935 2.307 . S
O971 C980 1.261 . S
O972 Gd934 2.388 . S
O972 C980 1.252 . S
O973 Gd934 2.386 . S
O973 C991 1.265 . S
O974 Gd935 2.353 . S
O974 C991 1.242 . S
O975 Gd935 2.468 . S
O975 C999 1.263 . S
O976 Gd935 2.427 . S
O976 C999 1.252 . S
O977 Gd934 2.307 . S
O977 C992 1.261 . S
O978 Gd935 2.388 . S
O978 C992 1.252 . S
C979 O967 1.265 . S
C979 O968 1.242 . S
C980 O971 1.261 . S
C980 O972 1.252 . S
C981 C984 1.394 . S
C981 C986 1.370 . S
C981 C987 1.500 . S
C982 C985 1.383 . S
C982 C986 1.395 . S
C983 C984 1.396 . S
C983 C985 1.365 . S
C983 H1000 0.929 . S
C984 C981 1.394 . S
C984 C983 1.396 . S
C984 H1001 0.930 . S
C985 C982 1.383 . S
C985 C983 1.365 . S
C985 H1002 0.931 . S
C986 C981 1.370 . S
C986 C982 1.395 . S
C986 H1003 0.930 . S
C987 Gd934 2.805 . S
C987 O969 1.263 . S
C987 O970 1.252 . S
C987 C981 1.500 . S
C988 H950 0.930 . S
C988 C964 1.417 . S
C988 C989 1.329 . S
C989 C959 1.437 . S
C989 H960 0.929 . S
C989 C988 1.329 . S
H990 C963 0.931 . S
C991 O973 1.265 . S
C991 O974 1.242 . S
C992 O977 1.261 . S
C992 O978 1.252 . S
C993 C996 1.394 . S
C993 C998 1.370 . S
C993 C999 1.500 . S
C994 C997 1.383 . S
C994 C998 1.395 . S
C995 C996 1.396 . S
C995 C997 1.365 . S
C995 H1004 0.929 . S
C996 C993 1.394 . S
C996 C995 1.396 . S
C996 H1005 0.930 . S
C997 C994 1.383 . S
C997 C995 1.365 . S
C997 H1006 0.931 . S
C998 C993 1.370 . S
C998 C994 1.395 . S
C998 H1007 0.930 . S
C999 Gd935 2.805 . S
C999 O975 1.263 . S
C999 O976 1.252 . S
C999 C993 1.500 . S
H1000 C983 0.929 . S
H1001 C984 0.930 . S
H1002 C985 0.931 . S
H1003 C986 0.930 . S
H1004 C995 0.929 . S
H1005 C996 0.930 . S
H1006 C997 0.931 . S
H1007 C998 0.930 . S
H1008 C1016 0.950 . S
H1009 C1021 0.950 . S
H1010 C1018 0.950 . S
H1011 C1020 0.950 . S
H1012 C1022 0.950 . S
H1013 C1024 0.950 . S
H1014 C1026 0.950 . S
H1015 C1027 0.950 . S
C1016 H1008 0.950 . S
C1016 C1017 1.386 . S
C1016 C1018 1.391 . S
C1017 C1016 1.386 . S
C1017 C1021 1.393 . S
C1018 H1010 0.950 . S
C1018 C1016 1.391 . S
C1018 C1019 1.400 . S
C1019 C1018 1.400 . S
C1019 C1020 1.398 . S
C1019 C1025 1.491 . S
C1020 H1011 0.950 . S
C1020 C1019 1.398 . S
C1020 C1021 1.391 . S
C1021 H1009 0.950 . S
C1021 C1017 1.393 . S
C1021 C1020 1.391 . S
C1022 H1012 0.950 . S
C1022 C1023 1.386 . S
C1022 C1024 1.391 . S
C1023 C1022 1.386 . S
C1023 C1027 1.393 . S
C1024 H1013 0.950 . S
C1024 C1022 1.391 . S
C1024 C1025 1.400 . S
C1025 C1019 1.491 . S
C1025 C1024 1.400 . S
C1025 C1026 1.398 . S
C1026 H1014 0.950 . S
C1026 C1025 1.398 . S
C1026 C1027 1.391 . S
C1027 H1015 0.950 . S
C1027 C1023 1.393 . S
C1027 C1026 1.391 . S
H1028 C1036 0.950 . S
H1029 C1041 0.950 . S
H1030 C1038 0.950 . S
H1031 C1040 0.950 . S
H1032 C1042 0.950 . S
H1033 C1044 0.950 . S
H1034 C1046 0.950 . S
H1035 C1047 0.950 . S
C1036 H1028 0.950 . S
C1036 C1037 1.386 . S
C1036 C1038 1.391 . S
C1037 C1036 1.386 . S
C1037 C1041 1.393 . S
C1038 H1030 0.950 . S
C1038 C1036 1.391 . S
C1038 C1039 1.400 . S
C1039 C1038 1.400 . S
C1039 C1040 1.398 . S
C1039 C1045 1.491 . S
C1040 H1031 0.950 . S
C1040 C1039 1.398 . S
C1040 C1041 1.391 . S
C1041 H1029 0.950 . S
C1041 C1037 1.393 . S
C1041 C1040 1.391 . S
C1042 H1032 0.950 . S
C1042 C1043 1.386 . S
C1042 C1044 1.391 . S
C1043 C1042 1.386 . S
C1043 C1047 1.393 . S
C1044 H1033 0.950 . S
C1044 C1042 1.391 . S
C1044 C1045 1.400 . S
C1045 C1039 1.491 . S
C1045 C1044 1.400 . S
C1045 C1046 1.398 . S
C1046 H1034 0.950 . S
C1046 C1045 1.398 . S
C1046 C1047 1.391 . S
C1047 H1035 0.950 . S
C1047 C1043 1.393 . S
C1047 C1046 1.391 . S
H1048 C1056 0.950 . S
H1049 C1061 0.950 1_556 S
H1050 C1058 0.950 . S
H1051 C1060 0.950 . S
H1052 C1062 0.950 . S
H1053 C1064 0.950 . S
H1054 C1066 0.950 . S
H1055 C1067 0.950 . S
C1056 H1048 0.950 . S
C1056 C1057 1.386 . S
C1056 C1058 1.391 . S
C1057 C1056 1.386 . S
C1057 C1061 1.393 . S
C1058 H1050 0.950 . S
C1058 C1056 1.391 . S
C1058 C1059 1.400 . S
C1059 C1058 1.400 . S
C1059 C1060 1.398 . S
C1059 C1065 1.491 . S
C1060 H1051 0.950 . S
C1060 C1059 1.398 . S
C1060 C1061 1.391 . S
C1061 H1049 0.950 1_554 S
C1061 C1057 1.393 . S
C1061 C1060 1.391 . S
C1062 H1052 0.950 . S
C1062 C1063 1.386 . S
C1062 C1064 1.391 . S
C1063 C1062 1.386 . S
C1063 C1067 1.393 . S
C1064 H1053 0.950 . S
C1064 C1062 1.391 . S
C1064 C1065 1.400 . S
C1065 C1059 1.491 . S
C1065 C1064 1.400 . S
C1065 C1066 1.398 . S
C1066 H1054 0.950 . S
C1066 C1065 1.398 . S
C1066 C1067 1.391 . S
C1067 H1055 0.950 . S
C1067 C1063 1.393 . S
C1067 C1066 1.391 . S
H1068 C1076 0.950 . S
H1069 C1081 0.950 . S
H1070 C1078 0.950 . S
H1071 C1080 0.950 . S
H1072 C1082 0.950 1_565 S
H1073 C1084 0.950 . S
H1074 C1086 0.950 . S
H1075 C1087 0.950 . S
C1076 H1068 0.950 . S
C1076 C1077 1.386 . S
C1076 C1078 1.391 . S
C1077 C1076 1.386 . S
C1077 C1081 1.393 . S
C1078 H1070 0.950 . S
C1078 C1076 1.391 . S
C1078 C1079 1.400 . S
C1079 C1078 1.400 . S
C1079 C1080 1.398 . S
C1079 C1085 1.491 . S
C1080 H1071 0.950 . S
C1080 C1079 1.398 . S
C1080 C1081 1.391 . S
C1081 H1069 0.950 . S
C1081 C1077 1.393 . S
C1081 C1080 1.391 . S
C1082 H1072 0.950 1_545 S
C1082 C1083 1.386 . S
C1082 C1084 1.391 . S
C1083 C1082 1.386 . S
C1083 C1087 1.393 . S
C1084 H1073 0.950 . S
C1084 C1082 1.391 . S
C1084 C1085 1.400 . S
C1085 C1079 1.491 . S
C1085 C1084 1.400 . S
C1085 C1086 1.398 . S
C1086 H1074 0.950 . S
C1086 C1085 1.398 . S
C1086 C1087 1.391 . S
C1087 H1075 0.950 . S
C1087 C1083 1.393 . S
C1087 C1086 1.391 . S
H1088 C1096 0.950 . S
H1089 C1101 0.950 . S
H1090 C1098 0.950 . S
H1091 C1100 0.950 . S
H1092 C1102 0.950 . S
H1093 C1104 0.950 . S
H1094 C1106 0.950 . S
H1095 C1107 0.950 . S
C1096 H1088 0.950 . S
C1096 C1097 1.386 . S
C1096 C1098 1.391 . S
C1097 C1096 1.386 . S
C1097 C1101 1.393 . S
C1098 H1090 0.950 . S
C1098 C1096 1.391 . S
C1098 C1099 1.400 . S
C1099 C1098 1.400 . S
C1099 C1100 1.398 . S
C1099 C1105 1.491 . S
C1100 H1091 0.950 . S
C1100 C1099 1.398 . S
C1100 C1101 1.391 . S
C1101 H1089 0.950 . S
C1101 C1097 1.393 . S
C1101 C1100 1.391 . S
C1102 H1092 0.950 . S
C1102 C1103 1.386 . S
C1102 C1104 1.391 . S
C1103 C1102 1.386 . S
C1103 C1107 1.393 . S
C1104 H1093 0.950 . S
C1104 C1102 1.391 . S
C1104 C1105 1.400 . S
C1105 C1099 1.491 . S
C1105 C1104 1.400 . S
C1105 C1106 1.398 . S
C1106 H1094 0.950 . S
C1106 C1105 1.398 . S
C1106 C1107 1.391 . S
C1107 H1095 0.950 . S
C1107 C1103 1.393 . S
C1107 C1106 1.391 . S
H1108 C1116 0.950 . S
H1109 C1121 0.950 . S
H1110 C1118 0.950 . S
H1111 C1120 0.950 . S
H1112 C1122 0.950 . S
H1113 C1124 0.950 . S
H1114 C1126 0.950 . S
H1115 C1127 0.950 . S
C1116 H1108 0.950 . S
C1116 C1117 1.386 . S
C1116 C1118 1.391 . S
C1117 C1116 1.386 . S
C1117 C1121 1.393 . S
C1118 H1110 0.950 . S
C1118 C1116 1.391 . S
C1118 C1119 1.400 . S
C1119 C1118 1.400 . S
C1119 C1120 1.398 . S
C1119 C1125 1.491 . S
C1120 H1111 0.950 . S
C1120 C1119 1.398 . S
C1120 C1121 1.391 . S
C1121 H1109 0.950 . S
C1121 C1117 1.393 . S
C1121 C1120 1.391 . S
C1122 H1112 0.950 . S
C1122 C1123 1.386 . S
C1122 C1124 1.391 . S
C1123 C1122 1.386 . S
C1123 C1127 1.393 . S
C1124 H1113 0.950 . S
C1124 C1122 1.391 . S
C1124 C1125 1.400 . S
C1125 C1119 1.491 . S
C1125 C1124 1.400 . S
C1125 C1126 1.398 . S
C1126 H1114 0.950 . S
C1126 C1125 1.398 . S
C1126 C1127 1.391 . S
C1127 H1115 0.950 . S
C1127 C1123 1.393 . S
C1127 C1126 1.391 . S
H1128 C1136 0.950 . S
H1129 C1141 0.950 . S
H1130 C1138 0.950 . S
H1131 C1140 0.950 . S
H1132 C1142 0.950 1_554 S
H1133 C1144 0.950 . S
H1134 C1146 0.950 . S
H1135 C1147 0.950 . S
C1136 H1128 0.950 . S
C1136 C1137 1.386 . S
C1136 C1138 1.391 . S
C1137 C1136 1.386 . S
C1137 C1141 1.393 . S
C1138 H1130 0.950 . S
C1138 C1136 1.391 . S
C1138 C1139 1.400 . S
C1139 C1138 1.400 . S
C1139 C1140 1.398 . S
C1139 C1145 1.491 . S
C1140 H1131 0.950 . S
C1140 C1139 1.398 . S
C1140 C1141 1.391 . S
C1141 H1129 0.950 . S
C1141 C1137 1.393 . S
C1141 C1140 1.391 . S
C1142 H1132 0.950 1_556 S
C1142 C1143 1.386 . S
C1142 C1144 1.391 . S
C1143 C1142 1.386 . S
C1143 C1147 1.393 . S
C1144 H1133 0.950 . S
C1144 C1142 1.391 . S
C1144 C1145 1.400 . S
C1145 C1139 1.491 . S
C1145 C1144 1.400 . S
C1145 C1146 1.398 . S
C1146 H1134 0.950 . S
C1146 C1145 1.398 . S
C1146 C1147 1.391 . S
C1147 H1135 0.950 . S
C1147 C1143 1.393 . S
C1147 C1146 1.391 . S
H1148 C1156 0.950 . S
H1149 C1161 0.950 . S
H1150 C1158 0.950 . S
H1151 C1160 0.950 . S
H1152 C1162 0.950 . S
H1153 C1164 0.950 . S
H1154 C1166 0.950 . S
H1155 C1167 0.950 . S
C1156 H1148 0.950 . S
C1156 C1157 1.386 . S
C1156 C1158 1.391 . S
C1157 C1156 1.386 . S
C1157 C1161 1.393 . S
C1158 H1150 0.950 . S
C1158 C1156 1.391 . S
C1158 C1159 1.400 . S
C1159 C1158 1.400 . S
C1159 C1160 1.398 . S
C1159 C1165 1.491 . S
C1160 H1151 0.950 . S
C1160 C1159 1.398 . S
C1160 C1161 1.391 . S
C1161 H1149 0.950 . S
C1161 C1157 1.393 . S
C1161 C1160 1.391 . S
C1162 H1152 0.950 . S
C1162 C1163 1.386 . S
C1162 C1164 1.391 . S
C1163 C1162 1.386 . S
C1163 C1167 1.393 . S
C1164 H1153 0.950 . S
C1164 C1162 1.391 . S
C1164 C1165 1.400 . S
C1165 C1159 1.491 . S
C1165 C1164 1.400 . S
C1165 C1166 1.398 . S
C1166 H1154 0.950 . S
C1166 C1165 1.398 . S
C1166 C1167 1.391 . S
C1167 H1155 0.950 . S
C1167 C1163 1.393 . S
C1167 C1166 1.391 . S
H1168 C1176 0.950 . S
H1169 C1181 0.950 . S
H1170 C1178 0.950 . S
H1171 C1180 0.950 . S
H1172 C1182 0.950 . S
H1173 C1184 0.950 . S
H1174 C1186 0.950 . S
H1175 C1187 0.950 . S
C1176 H1168 0.950 . S
C1176 C1177 1.386 . S
C1176 C1178 1.391 . S
C1177 C1176 1.386 . S
C1177 C1181 1.393 . S
C1178 H1170 0.950 . S
C1178 C1176 1.391 . S
C1178 C1179 1.400 . S
C1179 C1178 1.400 . S
C1179 C1180 1.398 . S
C1179 C1185 1.491 . S
C1180 H1171 0.950 . S
C1180 C1179 1.398 . S
C1180 C1181 1.391 . S
C1181 H1169 0.950 . S
C1181 C1177 1.393 . S
C1181 C1180 1.391 . S
C1182 H1172 0.950 . S
C1182 C1183 1.386 . S
C1182 C1184 1.391 . S
C1183 C1182 1.386 . S
C1183 C1187 1.393 . S
C1184 H1173 0.950 . S
C1184 C1182 1.391 . S
C1184 C1185 1.400 . S
C1185 C1179 1.491 . S
C1185 C1184 1.400 . S
C1185 C1186 1.398 . S
C1186 H1174 0.950 . S
C1186 C1185 1.398 . S
C1186 C1187 1.391 . S
C1187 H1175 0.950 . S
C1187 C1183 1.393 . S
C1187 C1186 1.391 . S
H1188 C1196 0.950 . S
H1189 C1201 0.950 . S
H1190 C1198 0.950 . S
H1191 C1200 0.950 . S
H1192 C1202 0.950 . S
H1193 C1204 0.950 . S
H1194 C1206 0.950 . S
H1195 C1207 0.950 . S
C1196 H1188 0.950 . S
C1196 C1197 1.386 . S
C1196 C1198 1.391 . S
C1197 C1196 1.386 . S
C1197 C1201 1.393 . S
C1198 H1190 0.950 . S
C1198 C1196 1.391 . S
C1198 C1199 1.400 . S
C1199 C1198 1.400 . S
C1199 C1200 1.398 . S
C1199 C1205 1.491 . S
C1200 H1191 0.950 . S
C1200 C1199 1.398 . S
C1200 C1201 1.391 . S
C1201 H1189 0.950 . S
C1201 C1197 1.393 . S
C1201 C1200 1.391 . S
C1202 H1192 0.950 . S
C1202 C1203 1.386 . S
C1202 C1204 1.391 . S
C1203 C1202 1.386 . S
C1203 C1207 1.393 . S
C1204 H1193 0.950 . S
C1204 C1202 1.391 . S
C1204 C1205 1.400 . S
C1205 C1199 1.491 . S
C1205 C1204 1.400 . S
C1205 C1206 1.398 . S
C1206 H1194 0.950 . S
C1206 C1205 1.398 . S
C1206 C1207 1.391 . S
C1207 H1195 0.950 . S
C1207 C1203 1.393 . S
C1207 C1206 1.391 . S
H1208 C1216 0.950 . S
H1209 C1221 0.950 . S
H1210 C1218 0.950 . S
H1211 C1220 0.950 . S
H1212 C1222 0.950 . S
H1213 C1224 0.950 . S
H1214 C1226 0.950 . S
H1215 C1227 0.950 . S
C1216 H1208 0.950 . S
C1216 C1217 1.386 . S
C1216 C1218 1.391 . S
C1217 C1216 1.386 . S
C1217 C1221 1.393 . S
C1218 H1210 0.950 . S
C1218 C1216 1.391 . S
C1218 C1219 1.400 . S
C1219 C1218 1.400 . S
C1219 C1220 1.398 . S
C1219 C1225 1.491 . S
C1220 H1211 0.950 . S
C1220 C1219 1.398 . S
C1220 C1221 1.391 . S
C1221 H1209 0.950 . S
C1221 C1217 1.393 . S
C1221 C1220 1.391 . S
C1222 H1212 0.950 . S
C1222 C1223 1.386 . S
C1222 C1224 1.391 . S
C1223 C1222 1.386 . S
C1223 C1227 1.393 . S
C1224 H1213 0.950 . S
C1224 C1222 1.391 . S
C1224 C1225 1.400 . S
C1225 C1219 1.491 . S
C1225 C1224 1.400 . S
C1225 C1226 1.398 . S
C1226 H1214 0.950 . S
C1226 C1225 1.398 . S
C1226 C1227 1.391 . S
C1227 H1215 0.950 . S
C1227 C1223 1.393 . S
C1227 C1226 1.391 . S
H1228 C1236 0.950 . S
H1229 C1241 0.950 . S
H1230 C1238 0.950 . S
H1231 C1240 0.950 . S
H1232 C1242 0.950 . S
H1233 C1244 0.950 . S
H1234 C1246 0.950 . S
H1235 C1247 0.950 . S
C1236 H1228 0.950 . S
C1236 C1237 1.386 . S
C1236 C1238 1.391 . S
C1237 C1236 1.386 . S
C1237 C1241 1.393 . S
C1238 H1230 0.950 . S
C1238 C1236 1.391 . S
C1238 C1239 1.400 . S
C1239 C1238 1.400 . S
C1239 C1240 1.398 . S
C1239 C1245 1.491 . S
C1240 H1231 0.950 . S
C1240 C1239 1.398 . S
C1240 C1241 1.391 . S
C1241 H1229 0.950 . S
C1241 C1237 1.393 . S
C1241 C1240 1.391 . S
C1242 H1232 0.950 . S
C1242 C1243 1.386 . S
C1242 C1244 1.391 . S
C1243 C1242 1.386 . S
C1243 C1247 1.393 . S
C1244 H1233 0.950 . S
C1244 C1242 1.391 . S
C1244 C1245 1.400 . S
C1245 C1239 1.491 . S
C1245 C1244 1.400 . S
C1245 C1246 1.398 . S
C1246 H1234 0.950 . S
C1246 C1245 1.398 . S
C1246 C1247 1.391 . S
C1247 H1235 0.950 . S
C1247 C1243 1.393 . S
C1247 C1246 1.391 . S
H1248 C1256 0.950 . S
H1249 C1261 0.950 . S
H1250 C1258 0.950 . S
H1251 C1260 0.950 . S
H1252 C1262 0.950 . S
H1253 C1264 0.950 . S
H1254 C1266 0.950 . S
H1255 C1267 0.950 . S
C1256 H1248 0.950 . S
C1256 C1257 1.386 . S
C1256 C1258 1.391 . S
C1257 C1256 1.386 . S
C1257 C1261 1.393 . S
C1258 H1250 0.950 . S
C1258 C1256 1.391 . S
C1258 C1259 1.400 . S
C1259 C1258 1.400 . S
C1259 C1260 1.398 . S
C1259 C1265 1.491 . S
C1260 H1251 0.950 . S
C1260 C1259 1.398 . S
C1260 C1261 1.391 . S
C1261 H1249 0.950 . S
C1261 C1257 1.393 . S
C1261 C1260 1.391 . S
C1262 H1252 0.950 . S
C1262 C1263 1.386 . S
C1262 C1264 1.391 . S
C1263 C1262 1.386 . S
C1263 C1267 1.393 . S
C1264 H1253 0.950 . S
C1264 C1262 1.391 . S
C1264 C1265 1.400 . S
C1265 C1259 1.491 . S
C1265 C1264 1.400 . S
C1265 C1266 1.398 . S
C1266 H1254 0.950 . S
C1266 C1265 1.398 . S
C1266 C1267 1.391 . S
C1267 H1255 0.950 . S
C1267 C1263 1.393 . S
C1267 C1266 1.391 . S
H1268 C1276 0.950 . S
H1269 C1281 0.950 . S
H1270 C1278 0.950 . S
H1271 C1280 0.950 . S
H1272 C1282 0.950 . S
H1273 C1284 0.950 . S
H1274 C1286 0.950 . S
H1275 C1287 0.950 . S
C1276 H1268 0.950 . S
C1276 C1277 1.386 . S
C1276 C1278 1.391 . S
C1277 C1276 1.386 . S
C1277 C1281 1.393 . S
C1278 H1270 0.950 . S
C1278 C1276 1.391 . S
C1278 C1279 1.400 . S
C1279 C1278 1.400 . S
C1279 C1280 1.398 . S
C1279 C1285 1.491 . S
C1280 H1271 0.950 . S
C1280 C1279 1.398 . S
C1280 C1281 1.391 . S
C1281 H1269 0.950 . S
C1281 C1277 1.393 . S
C1281 C1280 1.391 . S
C1282 H1272 0.950 . S
C1282 C1283 1.386 . S
C1282 C1284 1.391 . S
C1283 C1282 1.386 . S
C1283 C1287 1.393 . S
C1284 H1273 0.950 . S
C1284 C1282 1.391 . S
C1284 C1285 1.400 . S
C1285 C1279 1.491 . S
C1285 C1284 1.400 . S
C1285 C1286 1.398 . S
C1286 H1274 0.950 . S
C1286 C1285 1.398 . S
C1286 C1287 1.391 . S
C1287 H1275 0.950 . S
C1287 C1283 1.393 . S
C1287 C1286 1.391 . S
H1288 C1296 0.950 . S
H1289 C1301 0.950 . S
H1290 C1298 0.950 . S
H1291 C1300 0.950 . S
H1292 C1302 0.950 . S
H1293 C1304 0.950 . S
H1294 C1306 0.950 . S
H1295 C1307 0.950 . S
C1296 H1288 0.950 . S
C1296 C1297 1.386 . S
C1296 C1298 1.391 . S
C1297 C1296 1.386 . S
C1297 C1301 1.393 . S
C1298 H1290 0.950 . S
C1298 C1296 1.391 . S
C1298 C1299 1.400 . S
C1299 C1298 1.400 . S
C1299 C1300 1.398 . S
C1299 C1305 1.491 . S
C1300 H1291 0.950 . S
C1300 C1299 1.398 . S
C1300 C1301 1.391 . S
C1301 H1289 0.950 . S
C1301 C1297 1.393 . S
C1301 C1300 1.391 . S
C1302 H1292 0.950 . S
C1302 C1303 1.386 . S
C1302 C1304 1.391 . S
C1303 C1302 1.386 . S
C1303 C1307 1.393 . S
C1304 H1293 0.950 . S
C1304 C1302 1.391 . S
C1304 C1305 1.400 . S
C1305 C1299 1.491 . S
C1305 C1304 1.400 . S
C1305 C1306 1.398 . S
C1306 H1294 0.950 . S
C1306 C1305 1.398 . S
C1306 C1307 1.391 . S
C1307 H1295 0.950 . S
C1307 C1303 1.393 . S
C1307 C1306 1.391 . S
H1308 C1316 0.950 . S
H1309 C1321 0.950 . S
H1310 C1318 0.950 . S
H1311 C1320 0.950 . S
H1312 C1322 0.950 . S
H1313 C1324 0.950 . S
H1314 C1326 0.950 1_554 S
H1315 C1327 0.950 . S
C1316 H1308 0.950 . S
C1316 C1317 1.386 . S
C1316 C1318 1.391 . S
C1317 C1316 1.386 . S
C1317 C1321 1.393 . S
C1318 H1310 0.950 . S
C1318 C1316 1.391 . S
C1318 C1319 1.400 . S
C1319 C1318 1.400 . S
C1319 C1320 1.398 . S
C1319 C1325 1.491 1_554 S
C1320 H1311 0.950 . S
C1320 C1319 1.398 . S
C1320 C1321 1.391 . S
C1321 H1309 0.950 . S
C1321 C1317 1.393 . S
C1321 C1320 1.391 . S
C1322 H1312 0.950 . S
C1322 C1323 1.386 . S
C1322 C1324 1.391 . S
C1323 C1322 1.386 . S
C1323 C1327 1.393 . S
C1324 H1313 0.950 . S
C1324 C1322 1.391 . S
C1324 C1325 1.400 . S
C1325 C1319 1.491 1_556 S
C1325 C1324 1.400 . S
C1325 C1326 1.398 . S
C1326 H1314 0.950 1_556 S
C1326 C1325 1.398 . S
C1326 C1327 1.391 . S
C1327 H1315 0.950 . S
C1327 C1323 1.393 . S
C1327 C1326 1.391 . S
H1328 C1336 0.950 . S
H1329 C1341 0.950 . S
H1330 C1338 0.950 . S
H1331 C1340 0.950 . S
H1332 C1342 0.950 . S
H1333 C1344 0.950 . S
H1334 C1346 0.950 . S
H1335 C1347 0.950 . S
C1336 H1328 0.950 . S
C1336 C1337 1.386 . S
C1336 C1338 1.391 . S
C1337 C1336 1.386 . S
C1337 C1341 1.393 . S
C1338 H1330 0.950 . S
C1338 C1336 1.391 . S
C1338 C1339 1.400 . S
C1339 C1338 1.400 . S
C1339 C1340 1.398 . S
C1339 C1345 1.491 . S
C1340 H1331 0.950 . S
C1340 C1339 1.398 . S
C1340 C1341 1.391 . S
C1341 H1329 0.950 . S
C1341 C1337 1.393 . S
C1341 C1340 1.391 . S
C1342 H1332 0.950 . S
C1342 C1343 1.386 . S
C1342 C1344 1.391 . S
C1343 C1342 1.386 . S
C1343 C1347 1.393 . S
C1344 H1333 0.950 . S
C1344 C1342 1.391 . S
C1344 C1345 1.400 . S
C1345 C1339 1.491 . S
C1345 C1344 1.400 . S
C1345 C1346 1.398 . S
C1346 H1334 0.950 . S
C1346 C1345 1.398 . S
C1346 C1347 1.391 . S
C1347 H1335 0.950 . S
C1347 C1343 1.393 . S
C1347 C1346 1.391 . S
H1348 C1356 0.950 . S
H1349 C1361 0.950 . S
H1350 C1358 0.950 . S
H1351 C1360 0.966 . S
H1352 C1362 0.950 . S
H1353 C1364 0.950 . S
H1354 C1366 0.950 . S
H1355 C1367 0.950 . S
C1356 H1348 0.950 . S
C1356 C1357 1.386 . S
C1356 C1358 1.391 . S
C1357 C1356 1.386 . S
C1357 C1361 1.393 . S
C1358 H1350 0.950 . S
C1358 C1356 1.391 . S
C1358 C1359 1.400 1_554 S
C1359 C1358 1.400 1_556 S
C1359 C1360 1.398 1_556 S
C1359 C1365 1.491 . S
C1360 H1351 0.966 . S
C1360 C1359 1.398 1_554 S
C1360 C1361 1.391 . S
C1361 H1349 0.950 . S
C1361 C1357 1.393 . S
C1361 C1360 1.391 . S
C1362 H1352 0.950 . S
C1362 C1363 1.386 . S
C1362 C1364 1.391 . S
C1363 C1362 1.386 . S
C1363 C1367 1.393 . S
C1364 H1353 0.950 . S
C1364 C1362 1.391 . S
C1364 C1365 1.400 . S
C1365 C1359 1.491 . S
C1365 C1364 1.400 . S
C1365 C1366 1.398 . S
C1366 H1354 0.950 . S
C1366 C1365 1.398 . S
C1366 C1367 1.391 . S
C1367 H1355 0.950 . S
C1367 C1363 1.393 . S
C1367 C1366 1.391 . S
H1368 C1376 0.950 . S
H1369 C1381 0.950 . S
H1370 C1378 0.950 . S
H1371 C1380 0.950 . S
H1372 C1382 0.950 . S
H1373 C1384 0.950 . S
H1374 C1386 0.950 . S
H1375 C1387 0.950 . S
C1376 H1368 0.950 . S
C1376 C1377 1.386 . S
C1376 C1378 1.391 . S
C1377 C1376 1.386 . S
C1377 C1381 1.393 . S
C1378 H1370 0.950 . S
C1378 C1376 1.391 . S
C1378 C1379 1.400 . S
C1379 C1378 1.400 . S
C1379 C1380 1.398 . S
C1379 C1385 1.491 . S
C1380 H1371 0.950 . S
C1380 C1379 1.398 . S
C1380 C1381 1.391 . S
C1381 H1369 0.950 . S
C1381 C1377 1.393 . S
C1381 C1380 1.391 . S
C1382 H1372 0.950 . S
C1382 C1383 1.386 . S
C1382 C1384 1.391 . S
C1383 C1382 1.386 . S
C1383 C1387 1.393 . S
C1384 H1373 0.950 . S
C1384 C1382 1.391 . S
C1384 C1385 1.400 . S
C1385 C1379 1.491 . S
C1385 C1384 1.400 . S
C1385 C1386 1.398 . S
C1386 H1374 0.950 . S
C1386 C1385 1.398 . S
C1386 C1387 1.391 . S
C1387 H1375 0.950 . S
C1387 C1383 1.393 . S
C1387 C1386 1.391 . S
H1388 C1396 0.950 . S
H1389 C1401 0.950 . S
H1390 C1398 0.950 . S
H1391 C1400 0.950 . S
H1392 C1402 0.950 . S
H1393 C1404 0.950 . S
H1394 C1406 0.950 . S
H1395 C1407 0.950 . S
C1396 H1388 0.950 . S
C1396 C1397 1.386 . S
C1396 C1398 1.391 . S
C1397 C1396 1.386 . S
C1397 C1401 1.393 . S
C1398 H1390 0.950 . S
C1398 C1396 1.391 . S
C1398 C1399 1.400 . S
C1399 C1398 1.400 . S
C1399 C1400 1.398 . S
C1399 C1405 1.491 . S
C1400 H1391 0.950 . S
C1400 C1399 1.398 . S
C1400 C1401 1.391 . S
C1401 H1389 0.950 . S
C1401 C1397 1.393 . S
C1401 C1400 1.391 . S
C1402 H1392 0.950 . S
C1402 C1403 1.386 . S
C1402 C1404 1.391 . S
C1403 C1402 1.386 . S
C1403 C1407 1.393 . S
C1404 H1393 0.950 . S
C1404 C1402 1.391 . S
C1404 C1405 1.400 . S
C1405 C1399 1.491 . S
C1405 C1404 1.400 . S
C1405 C1406 1.398 . S
C1406 H1394 0.950 . S
C1406 C1405 1.398 . S
C1406 C1407 1.391 . S
C1407 H1395 0.950 . S
C1407 C1403 1.393 . S
C1407 C1406 1.391 . S
H1408 C1416 0.950 . S
H1409 C1421 0.950 . S
H1410 C1418 0.950 . S
H1411 C1420 0.950 . S
H1412 C1422 0.950 . S
H1413 C1424 0.950 . S
H1414 C1426 0.950 . S
H1415 C1427 0.950 . S
C1416 H1408 0.950 . S
C1416 C1417 1.386 . S
C1416 C1418 1.391 . S
C1417 C1416 1.386 . S
C1417 C1421 1.393 . S
C1418 H1410 0.950 . S
C1418 C1416 1.391 . S
C1418 C1419 1.400 . S
C1419 C1418 1.400 . S
C1419 C1420 1.398 . S
C1419 C1425 1.491 . S
C1420 H1411 0.950 . S
C1420 C1419 1.398 . S
C1420 C1421 1.391 . S
C1421 H1409 0.950 . S
C1421 C1417 1.393 . S
C1421 C1420 1.391 . S
C1422 H1412 0.950 . S
C1422 C1423 1.386 . S
C1422 C1424 1.391 . S
C1423 C1422 1.386 . S
C1423 C1427 1.393 . S
C1424 H1413 0.950 . S
C1424 C1422 1.391 . S
C1424 C1425 1.400 . S
C1425 C1419 1.491 . S
C1425 C1424 1.400 . S
C1425 C1426 1.398 . S
C1426 H1414 0.950 . S
C1426 C1425 1.398 . S
C1426 C1427 1.391 . S
C1427 H1415 0.950 . S
C1427 C1423 1.393 . S
C1427 C1426 1.391 . S
H1428 C1436 0.950 . S
H1429 C1441 0.950 . S
H1430 C1438 0.950 . S
H1431 C1440 0.950 . S
H1432 C1442 0.950 1_655 S
H1433 C1444 0.950 1_545 S
H1434 C1446 0.950 . S
H1435 C1447 0.950 . S
C1436 H1428 0.950 . S
C1436 C1437 1.386 . S
C1436 C1438 1.391 . S
C1437 C1436 1.386 . S
C1437 C1441 1.393 . S
C1438 H1430 0.950 . S
C1438 C1436 1.391 . S
C1438 C1439 1.400 . S
C1439 C1438 1.400 . S
C1439 C1440 1.398 . S
C1439 C1445 1.491 . S
C1440 H1431 0.950 . S
C1440 C1439 1.398 . S
C1440 C1441 1.391 . S
C1441 H1429 0.950 . S
C1441 C1437 1.393 . S
C1441 C1440 1.391 . S
C1442 H1432 0.950 1_455 S
C1442 C1443 1.386 . S
C1442 C1444 1.391 . S
C1443 C1442 1.386 . S
C1443 C1447 1.393 . S
C1444 H1433 0.950 1_565 S
C1444 C1442 1.391 . S
C1444 C1445 1.400 1_565 S
C1445 C1439 1.491 . S
C1445 C1444 1.400 1_545 S
C1445 C1446 1.398 1_545 S
C1446 H1434 0.950 . S
C1446 C1445 1.398 1_565 S
C1446 C1447 1.391 . S
C1447 H1435 0.950 . S
C1447 C1443 1.393 . S
C1447 C1446 1.391 . S
H1448 C1456 0.950 . S
H1449 C1461 0.950 . S
H1450 C1458 0.950 . S
H1451 C1460 0.950 . S
H1452 C1462 0.950 . S
H1453 C1464 0.950 . S
H1454 C1466 0.950 . S
H1455 C1467 0.950 . S
C1456 H1448 0.950 . S
C1456 C1457 1.386 . S
C1456 C1458 1.391 . S
C1457 C1456 1.386 . S
C1457 C1461 1.393 . S
C1458 H1450 0.950 . S
C1458 C1456 1.391 . S
C1458 C1459 1.400 . S
C1459 C1458 1.400 . S
C1459 C1460 1.398 . S
C1459 C1465 1.491 . S
C1460 H1451 0.950 . S
C1460 C1459 1.398 . S
C1460 C1461 1.391 . S
C1461 H1449 0.950 . S
C1461 C1457 1.393 . S
C1461 C1460 1.391 . S
C1462 H1452 0.950 . S
C1462 C1463 1.386 . S
C1462 C1464 1.391 . S
C1463 C1462 1.386 . S
C1463 C1467 1.393 . S
C1464 H1453 0.950 . S
C1464 C1462 1.391 . S
C1464 C1465 1.400 . S
C1465 C1459 1.491 . S
C1465 C1464 1.400 . S
C1465 C1466 1.398 . S
C1466 H1454 0.950 . S
C1466 C1465 1.398 . S
C1466 C1467 1.391 . S
C1467 H1455 0.950 . S
C1467 C1463 1.393 . S
C1467 C1466 1.391 . S
H1468 C1476 0.950 . S
H1469 C1481 0.950 . S
H1470 C1478 0.950 1_565 S
H1471 C1480 0.950 . S
H1472 C1482 0.950 . S
H1473 C1484 0.950 . S
H1474 C1486 0.950 . S
H1475 C1487 0.950 . S
C1476 H1468 0.950 . S
C1476 C1477 1.386 . S
C1476 C1478 1.391 . S
C1477 C1476 1.386 . S
C1477 C1481 1.393 . S
C1478 H1470 0.950 1_545 S
C1478 C1476 1.391 . S
C1478 C1479 1.398 1_545 S
C1479 C1478 1.398 1_565 S
C1479 C1480 1.393 1_565 S
C1479 C1485 1.498 . S
C1480 H1471 0.950 . S
C1480 C1479 1.393 1_545 S
C1480 C1481 1.391 . S
C1481 H1469 0.950 . S
C1481 C1477 1.393 . S
C1481 C1480 1.391 . S
C1482 H1472 0.950 . S
C1482 C1483 1.386 . S
C1482 C1484 1.391 . S
C1483 C1482 1.386 . S
C1483 C1487 1.393 . S
C1484 H1473 0.950 . S
C1484 C1482 1.391 . S
C1484 C1485 1.400 . S
C1485 C1479 1.498 . S
C1485 C1484 1.400 . S
C1485 C1486 1.398 . S
C1486 H1474 0.950 . S
C1486 C1485 1.398 . S
C1486 C1487 1.391 . S
C1487 H1475 0.950 . S
C1487 C1483 1.393 . S
C1487 C1486 1.391 . S
H1488 C1496 0.950 . S
H1489 C1501 0.950 . S
H1490 C1498 0.950 . S
H1491 C1500 0.950 . S
H1492 C1502 0.950 . S
H1493 C1504 0.950 . S
H1494 C1506 0.950 . S
H1495 C1507 0.950 . S
C1496 H1488 0.950 . S
C1496 C1497 1.386 . S
C1496 C1498 1.391 . S
C1497 C1496 1.386 . S
C1497 C1501 1.393 . S
C1498 H1490 0.950 . S
C1498 C1496 1.391 . S
C1498 C1499 1.400 . S
C1499 C1498 1.400 . S
C1499 C1500 1.398 . S
C1499 C1505 1.491 . S
C1500 H1491 0.950 . S
C1500 C1499 1.398 . S
C1500 C1501 1.391 . S
C1501 H1489 0.950 . S
C1501 C1497 1.393 . S
C1501 C1500 1.391 . S
C1502 H1492 0.950 . S
C1502 C1503 1.386 . S
C1502 C1504 1.391 . S
C1503 C1502 1.386 . S
C1503 C1507 1.393 . S
C1504 H1493 0.950 . S
C1504 C1502 1.391 . S
C1504 C1505 1.400 . S
C1505 C1499 1.491 . S
C1505 C1504 1.400 . S
C1505 C1506 1.398 . S
C1506 H1494 0.950 . S
C1506 C1505 1.398 . S
C1506 C1507 1.391 . S
C1507 H1495 0.950 . S
C1507 C1503 1.393 . S
C1507 C1506 1.391 . S
H1508 C1516 0.950 . S
H1509 C1521 0.972 . S
H1510 C1518 0.950 . S
H1511 C1520 0.950 . S
H1512 C1522 0.950 . S
H1513 C1524 0.950 . S
H1514 C1526 0.950 . S
H1515 C1527 0.950 . S
C1516 H1508 0.950 . S
C1516 C1517 1.386 . S
C1516 C1518 1.391 . S
C1517 C1516 1.386 . S
C1517 C1521 1.393 . S
C1518 H1510 0.950 . S
C1518 C1516 1.391 . S
C1518 C1519 1.400 . S
C1519 C1518 1.400 . S
C1519 C1520 1.398 . S
C1519 C1525 1.491 . S
C1520 H1511 0.950 . S
C1520 C1519 1.398 . S
C1520 C1521 1.391 . S
C1521 H1509 0.972 . S
C1521 C1517 1.393 . S
C1521 C1520 1.391 . S
C1522 H1512 0.950 . S
C1522 C1523 1.386 . S
C1522 C1524 1.391 . S
C1523 C1522 1.386 . S
C1523 C1527 1.393 . S
C1524 H1513 0.950 . S
C1524 C1522 1.391 . S
C1524 C1525 1.400 . S
C1525 C1519 1.491 . S
C1525 C1524 1.400 . S
C1525 C1526 1.398 . S
C1526 H1514 0.950 . S
C1526 C1525 1.398 . S
C1526 C1527 1.391 . S
C1527 H1515 0.950 . S
C1527 C1523 1.393 . S
C1527 C1526 1.391 . S
H1528 C1536 0.950 . S
H1529 C1541 0.950 . S
H1530 C1538 0.950 . S
H1531 C1540 0.950 . S
H1532 C1542 0.950 . S
H1533 C1544 0.950 . S
H1534 C1546 0.950 . S
H1535 C1547 0.950 . S
C1536 H1528 0.950 . S
C1536 C1537 1.386 . S
C1536 C1538 1.391 . S
C1537 C1536 1.386 . S
C1537 C1541 1.393 . S
C1538 H1530 0.950 . S
C1538 C1536 1.391 . S
C1538 C1539 1.400 . S
C1539 C1538 1.400 . S
C1539 C1540 1.398 . S
C1539 C1545 1.491 . S
C1540 H1531 0.950 . S
C1540 C1539 1.398 . S
C1540 C1541 1.391 . S
C1541 H1529 0.950 . S
C1541 C1537 1.393 . S
C1541 C1540 1.391 . S
C1542 H1532 0.950 . S
C1542 C1543 1.386 . S
C1542 C1544 1.391 . S
C1543 C1542 1.386 . S
C1543 C1547 1.393 . S
C1544 H1533 0.950 . S
C1544 C1542 1.391 . S
C1544 C1545 1.400 . S
C1545 C1539 1.491 . S
C1545 C1544 1.400 . S
C1545 C1546 1.398 . S
C1546 H1534 0.950 . S
C1546 C1545 1.398 . S
C1546 C1547 1.391 . S
C1547 H1535 0.950 . S
C1547 C1543 1.393 . S
C1547 C1546 1.391 . S
H1548 C1556 0.950 . S
H1549 C1561 0.950 . S
H1550 C1558 0.950 . S
H1551 C1560 0.950 . S
H1552 C1562 0.950 . S
H1553 C1564 0.950 . S
H1554 C1566 0.950 . S
H1555 C1567 0.950 . S
C1556 H1548 0.950 . S
C1556 C1557 1.386 . S
C1556 C1558 1.391 . S
C1557 C1556 1.386 . S
C1557 C1561 1.393 . S
C1558 H1550 0.950 . S
C1558 C1556 1.391 . S
C1558 C1559 1.400 . S
C1559 C1558 1.400 . S
C1559 C1560 1.398 . S
C1559 C1565 1.491 . S
C1560 H1551 0.950 . S
C1560 C1559 1.398 . S
C1560 C1561 1.391 . S
C1561 H1549 0.950 . S
C1561 C1557 1.393 . S
C1561 C1560 1.391 . S
C1562 H1552 0.950 . S
C1562 C1563 1.386 . S
C1562 C1564 1.391 . S
C1563 C1562 1.386 . S
C1563 C1567 1.393 . S
C1564 H1553 0.950 . S
C1564 C1562 1.391 . S
C1564 C1565 1.400 . S
C1565 C1559 1.491 . S
C1565 C1564 1.400 . S
C1565 C1566 1.398 . S
C1566 H1554 0.950 . S
C1566 C1565 1.398 . S
C1566 C1567 1.391 . S
C1567 H1555 0.950 . S
C1567 C1563 1.393 . S
C1567 C1566 1.391 . S
H1568 C1576 0.950 . S
H1569 C1581 0.950 . S
H1570 C1578 0.950 . S
H1571 C1580 0.950 . S
H1572 C1582 0.950 . S
H1573 C1584 0.950 . S
H1574 C1586 0.950 . S
H1575 C1587 0.950 . S
C1576 H1568 0.950 . S
C1576 C1577 1.386 . S
C1576 C1578 1.391 . S
C1577 C1576 1.386 . S
C1577 C1581 1.393 . S
C1578 H1570 0.950 . S
C1578 C1576 1.391 . S
C1578 C1579 1.400 . S
C1579 C1578 1.400 . S
C1579 C1580 1.398 . S
C1579 C1585 1.491 . S
C1580 H1571 0.950 . S
C1580 C1579 1.398 . S
C1580 C1581 1.391 . S
C1581 H1569 0.950 . S
C1581 C1577 1.393 . S
C1581 C1580 1.391 . S
C1582 H1572 0.950 . S
C1582 C1583 1.386 . S
C1582 C1584 1.391 . S
C1583 C1582 1.386 . S
C1583 C1587 1.393 . S
C1584 H1573 0.950 . S
C1584 C1582 1.391 . S
C1584 C1585 1.400 . S
C1585 C1579 1.491 . S
C1585 C1584 1.400 . S
C1585 C1586 1.398 . S
C1586 H1574 0.950 . S
C1586 C1585 1.398 . S
C1586 C1587 1.391 . S
C1587 H1575 0.950 . S
C1587 C1583 1.393 . S
C1587 C1586 1.391 . S
H1588 C1596 0.950 . S
H1589 C1601 0.950 . S
H1590 C1598 0.950 . S
H1591 C1600 0.950 . S
H1592 C1602 0.950 . S
H1593 C1604 0.950 . S
H1594 C1606 0.950 . S
H1595 C1607 0.950 . S
C1596 H1588 0.950 . S
C1596 C1597 1.386 . S
C1596 C1598 1.391 . S
C1597 C1596 1.386 . S
C1597 C1601 1.393 . S
C1598 H1590 0.950 . S
C1598 C1596 1.391 . S
C1598 C1599 1.400 . S
C1599 C1598 1.400 . S
C1599 C1600 1.398 . S
C1599 C1605 1.491 . S
C1600 H1591 0.950 . S
C1600 C1599 1.398 . S
C1600 C1601 1.391 . S
C1601 H1589 0.950 . S
C1601 C1597 1.393 . S
C1601 C1600 1.391 . S
C1602 H1592 0.950 . S
C1602 C1603 1.386 . S
C1602 C1604 1.391 . S
C1603 C1602 1.386 . S
C1603 C1607 1.393 . S
C1604 H1593 0.950 . S
C1604 C1602 1.391 . S
C1604 C1605 1.400 . S
C1605 C1599 1.491 . S
C1605 C1604 1.400 . S
C1605 C1606 1.398 . S
C1606 H1594 0.950 . S
C1606 C1605 1.398 . S
C1606 C1607 1.391 . S
C1607 H1595 0.950 . S
C1607 C1603 1.393 . S
C1607 C1606 1.391 . S
H1608 C1616 0.950 . S
H1609 C1621 0.950 . S
H1610 C1618 0.950 . S
H1611 C1620 0.950 . S
H1612 C1622 0.950 1_556 S
H1613 C1624 0.950 1_455 S
H1614 C1626 0.950 . S
H1615 C1627 0.950 . S
C1616 H1608 0.950 . S
C1616 C1617 1.386 . S
C1616 C1618 1.391 . S
C1617 C1616 1.386 . S
C1617 C1621 1.393 . S
C1618 H1610 0.950 . S
C1618 C1616 1.391 . S
C1618 C1619 1.400 . S
C1619 C1618 1.400 . S
C1619 C1620 1.398 . S
C1619 C1625 1.491 1_455 S
C1620 H1611 0.950 . S
C1620 C1619 1.398 . S
C1620 C1621 1.391 . S
C1621 H1609 0.950 . S
C1621 C1617 1.393 . S
C1621 C1620 1.391 . S
C1622 H1612 0.950 1_554 S
C1622 C1623 1.386 . S
C1622 C1624 1.391 . S
C1623 C1622 1.386 . S
C1623 C1627 1.393 . S
C1624 H1613 0.950 1_655 S
C1624 C1622 1.391 . S
C1624 C1625 1.400 . S
C1625 C1619 1.491 1_655 S
C1625 C1624 1.400 . S
C1625 C1626 1.398 . S
C1626 H1614 0.950 . S
C1626 C1625 1.398 . S
C1626 C1627 1.391 . S
C1627 H1615 0.950 . S
C1627 C1623 1.393 . S
C1627 C1626 1.391 . S
H1628 C1636 0.950 . S
H1629 C1641 0.950 . S
H1630 C1638 0.950 . S
H1631 C1640 0.950 . S
H1632 C1642 0.950 . S
H1633 C1644 0.950 . S
H1634 C1646 0.950 . S
H1635 C1647 0.950 . S
C1636 H1628 0.950 . S
C1636 C1637 1.386 . S
C1636 C1638 1.391 . S
C1637 C1636 1.386 . S
C1637 C1641 1.393 . S
C1638 H1630 0.950 . S
C1638 C1636 1.391 . S
C1638 C1639 1.400 . S
C1639 C1638 1.400 . S
C1639 C1640 1.398 . S
C1639 C1645 1.491 . S
C1640 H1631 0.950 . S
C1640 C1639 1.398 . S
C1640 C1641 1.391 . S
C1641 H1629 0.950 . S
C1641 C1637 1.393 . S
C1641 C1640 1.391 . S
C1642 H1632 0.950 . S
C1642 C1643 1.386 . S
C1642 C1644 1.391 . S
C1643 C1642 1.386 . S
C1643 C1647 1.393 . S
C1644 H1633 0.950 . S
C1644 C1642 1.391 . S
C1644 C1645 1.400 . S
C1645 C1639 1.491 . S
C1645 C1644 1.400 . S
C1645 C1646 1.398 . S
C1646 H1634 0.950 . S
C1646 C1645 1.398 . S
C1646 C1647 1.391 . S
C1647 H1635 0.950 . S
C1647 C1643 1.393 . S
C1647 C1646 1.391 . S
H1648 C1656 0.950 . S
H1649 C1661 0.950 . S
H1650 C1658 0.950 . S
H1651 C1660 0.950 . S
H1652 C1662 0.950 . S
H1653 C1664 0.950 . S
H1654 C1666 0.950 . S
H1655 C1667 0.950 . S
C1656 H1648 0.950 . S
C1656 C1657 1.386 . S
C1656 C1658 1.391 . S
C1657 C1656 1.386 . S
C1657 C1661 1.393 . S
C1658 H1650 0.950 . S
C1658 C1656 1.391 . S
C1658 C1659 1.400 . S
C1659 C1658 1.400 . S
C1659 C1660 1.398 . S
C1659 C1665 1.491 . S
C1660 H1651 0.950 . S
C1660 C1659 1.398 . S
C1660 C1661 1.391 . S
C1661 H1649 0.950 . S
C1661 C1657 1.393 . S
C1661 C1660 1.391 . S
C1662 H1652 0.950 . S
C1662 C1663 1.386 . S
C1662 C1664 1.391 . S
C1663 C1662 1.386 . S
C1663 C1667 1.393 . S
C1664 H1653 0.950 . S
C1664 C1662 1.391 . S
C1664 C1665 1.400 . S
C1665 C1659 1.491 . S
C1665 C1664 1.400 . S
C1665 C1666 1.398 . S
C1666 H1654 0.950 . S
C1666 C1665 1.398 . S
C1666 C1667 1.391 . S
C1667 H1655 0.950 . S
C1667 C1663 1.393 . S
C1667 C1666 1.391 . S
H1668 C1676 0.950 . S
H1669 C1681 0.950 . S
H1670 C1678 0.950 . S
H1671 C1680 0.950 . S
H1672 C1682 0.950 . S
H1673 C1684 0.950 . S
H1674 C1686 0.950 . S
H1675 C1687 0.950 . S
C1676 H1668 0.950 . S
C1676 C1677 1.386 . S
C1676 C1678 1.391 . S
C1677 C1676 1.386 . S
C1677 C1681 1.393 . S
C1678 H1670 0.950 . S
C1678 C1676 1.391 . S
C1678 C1679 1.400 . S
C1679 C1678 1.400 . S
C1679 C1680 1.398 . S
C1679 C1685 1.491 . S
C1680 H1671 0.950 . S
C1680 C1679 1.398 . S
C1680 C1681 1.391 . S
C1681 H1669 0.950 . S
C1681 C1677 1.393 . S
C1681 C1680 1.391 . S
C1682 H1672 0.950 . S
C1682 C1683 1.386 . S
C1682 C1684 1.391 . S
C1683 C1682 1.386 . S
C1683 C1687 1.393 . S
C1684 H1673 0.950 . S
C1684 C1682 1.391 . S
C1684 C1685 1.400 . S
C1685 C1679 1.491 . S
C1685 C1684 1.400 . S
C1685 C1686 1.398 . S
C1686 H1674 0.950 . S
C1686 C1685 1.398 . S
C1686 C1687 1.391 . S
C1687 H1675 0.950 . S
C1687 C1683 1.393 . S
C1687 C1686 1.391 . S
H1688 C1696 0.950 . S
H1689 C1701 0.950 . S
H1690 C1698 0.950 . S
H1691 C1700 0.950 . S
H1692 C1702 0.950 . S
H1693 C1704 0.950 . S
H1694 C1706 0.950 . S
H1695 C1707 0.950 . S
C1696 H1688 0.950 . S
C1696 C1697 1.386 . S
C1696 C1698 1.391 . S
C1697 C1696 1.386 . S
C1697 C1701 1.393 . S
C1698 H1690 0.950 . S
C1698 C1696 1.391 . S
C1698 C1699 1.400 . S
C1699 C1698 1.400 . S
C1699 C1700 1.398 . S
C1699 C1705 1.491 . S
C1700 H1691 0.950 . S
C1700 C1699 1.398 . S
C1700 C1701 1.391 . S
C1701 H1689 0.950 . S
C1701 C1697 1.393 . S
C1701 C1700 1.391 . S
C1702 H1692 0.950 . S
C1702 C1703 1.386 . S
C1702 C1704 1.391 . S
C1703 C1702 1.386 . S
C1703 C1707 1.393 . S
C1704 H1693 0.950 . S
C1704 C1702 1.391 . S
C1704 C1705 1.400 . S
C1705 C1699 1.491 . S
C1705 C1704 1.400 . S
C1705 C1706 1.398 . S
C1706 H1694 0.950 . S
C1706 C1705 1.398 . S
C1706 C1707 1.391 . S
C1707 H1695 0.950 . S
C1707 C1703 1.393 . S
C1707 C1706 1.391 . S
H1708 C1716 0.950 . S
H1709 C1721 0.950 . S
H1710 C1718 0.950 . S
H1711 C1720 0.950 . S
H1712 C1722 0.950 . S
H1713 C1724 0.950 . S
H1714 C1726 0.950 1_655 S
H1715 C1727 0.950 . S
C1716 H1708 0.950 . S
C1716 C1717 1.386 . S
C1716 C1718 1.391 . S
C1717 C1716 1.386 . S
C1717 C1721 1.393 . S
C1718 H1710 0.950 . S
C1718 C1716 1.391 . S
C1718 C1719 1.400 . S
C1719 C1718 1.400 . S
C1719 C1720 1.398 . S
C1719 C1725 1.491 . S
C1720 H1711 0.950 . S
C1720 C1719 1.398 . S
C1720 C1721 1.391 . S
C1721 H1709 0.950 . S
C1721 C1717 1.393 . S
C1721 C1720 1.391 . S
C1722 H1712 0.950 . S
C1722 C1723 1.386 . S
C1722 C1724 1.391 . S
C1723 C1722 1.386 . S
C1723 C1727 1.393 . S
C1724 H1713 0.950 . S
C1724 C1722 1.391 . S
C1724 C1725 1.400 1_455 S
C1725 C1719 1.491 . S
C1725 C1724 1.400 1_655 S
C1725 C1726 1.398 1_655 S
C1726 H1714 0.950 1_455 S
C1726 C1725 1.398 1_455 S
C1726 C1727 1.391 . S
C1727 H1715 0.950 . S
C1727 C1723 1.393 . S
C1727 C1726 1.391 . S
C1017 C56 1.633 . S
C1023 C979 1.664 . S
C1037 C811 1.704 . S
C1043 C140 1.663 . S
C1057 C223 1.676 . S
C1063 C728 1.631 . S
C1077 C308 1.668 . S
C1083 C895 1.709 . S
C1097 C392 1.653 . S
C1103 C896 1.669 . S
C1117 C475 1.687 . S
C1123 C980 1.632 . S
C1137 C812 1.656 . S
C1143 C560 1.677 . S
C1157 C643 1.661 . S
C1163 C727 1.666 . S
C1177 C307 1.664 . S
C1183 C391 1.669 . S
C1197 C55 1.690 . S
C1203 C476 1.660 . S
C1217 C139 1.675 . S
C1223 C559 1.677 . S
C1237 C644 1.671 . S
C1243 C224 1.680 . S
C1257 C70 1.381 . S
C1263 C740 1.636 . S
C1277 C154 1.449 . S
C1283 C907 1.659 . S
C1297 C991 1.643 . S
C1303 C226 1.614 . S
C1317 C322 1.408 . S
C1323 C823 1.610 . S
C1337 C406 1.388 . S
C1343 C824 1.624 . S
C1357 C739 1.651 . S
C1363 C478 1.613 . S
C1377 C908 1.642 . S
C1383 C574 1.405 . S
C1397 C992 1.701 . S
C1403 C646 1.663 . S
C1417 C67 1.640 . S
C1423 C310 1.622 . S
C1437 C58 1.548 . S
C1443 C151 1.596 . S
C1457 C142 1.610 . S
C1463 C236 1.637 . S
C1477 C319 1.585 . S
C1483 C238 1.367 . S
C1497 C490 1.456 . S
C1503 C403 1.665 . S
C1517 C488 1.676 . S
C1523 C562 1.613 . S
C1537 C571 1.652 . S
C1543 C658 1.437 . S
C1557 C394 1.612 . S
C1563 C656 1.671 . S
C1577 C730 1.572 . S
C1583 C320 1.594 . S
C1597 C487 1.624 . S
C1603 C814 1.598 . S
C1617 C742 1.397 . S
C1623 C572 1.628 . S
C1637 C898 1.623 . S
C1643 C655 1.656 . S
C1657 C404 1.647 . S
C1663 C982 1.616 . S
C1677 C994 1.408 . S
C1683 C152 1.629 . S
C1697 C235 1.647 . S
C1703 C826 1.439 . S
C1717 C910 1.434 . S
C1723 C68 1.649 . S
