# Generated by pormake.
# Topology uof, (4)-cn, num edge types: 1
# Building blocks:
#     Node 0, Type 0, BuildingBlock: QUQFOY_clean_sbu_1, # of connection points: 4
#     Node 1, Type 0, BuildingBlock: QUQFOY_clean_sbu_1, # of connection points: 4
#     Node 2, Type 0, BuildingBlock: QUQFOY_clean_sbu_1, # of connection points: 4
#     Node 3, Type 0, BuildingBlock: QUQFOY_clean_sbu_1, # of connection points: 4
#     Node 4, Type 0, BuildingBlock: QUQFOY_clean_sbu_1, # of connection points: 4
#     Node 5, Type 0, BuildingBlock: QUQFOY_clean_sbu_1, # of connection points: 4
#     Node 6, Type 0, BuildingBlock: QUQFOY_clean_sbu_1, # of connection points: 4
#     Node 7, Type 0, BuildingBlock: QUQFOY_clean_sbu_1, # of connection points: 4
#     Node 8, Type 0, BuildingBlock: QUQFOY_clean_sbu_1, # of connection points: 4
#     Node 9, Type 0, BuildingBlock: QUQFOY_clean_sbu_1, # of connection points: 4
#     Node 10, Type 0, BuildingBlock: QUQFOY_clean_sbu_1, # of connection points: 4
#     Node 11, Type 0, BuildingBlock: QUQFOY_clean_sbu_1, # of connection points: 4
#     Edge 12, Type (0, 0), BuildingBlock: CIFDUS_clean_linker_0, # of connection points: 2
#     Edge 13, Type (0, 0), BuildingBlock: CIFDUS_clean_linker_0, # of connection points: 2
#     Edge 14, Type (0, 0), BuildingBlock: CIFDUS_clean_linker_0, # of connection points: 2
#     Edge 15, Type (0, 0), BuildingBlock: CIFDUS_clean_linker_0, # of connection points: 2
#     Edge 16, Type (0, 0), BuildingBlock: CIFDUS_clean_linker_0, # of connection points: 2
#     Edge 17, Type (0, 0), BuildingBlock: CIFDUS_clean_linker_0, # of connection points: 2
#     Edge 18, Type (0, 0), BuildingBlock: CIFDUS_clean_linker_0, # of connection points: 2
#     Edge 19, Type (0, 0), BuildingBlock: CIFDUS_clean_linker_0, # of connection points: 2
#     Edge 20, Type (0, 0), BuildingBlock: CIFDUS_clean_linker_0, # of connection points: 2
#     Edge 21, Type (0, 0), BuildingBlock: CIFDUS_clean_linker_0, # of connection points: 2
#     Edge 22, Type (0, 0), BuildingBlock: CIFDUS_clean_linker_0, # of connection points: 2
#     Edge 23, Type (0, 0), BuildingBlock: CIFDUS_clean_linker_0, # of connection points: 2
#     Edge 24, Type (0, 0), BuildingBlock: CIFDUS_clean_linker_0, # of connection points: 2
#     Edge 25, Type (0, 0), BuildingBlock: CIFDUS_clean_linker_0, # of connection points: 2
#     Edge 26, Type (0, 0), BuildingBlock: CIFDUS_clean_linker_0, # of connection points: 2
#     Edge 27, Type (0, 0), BuildingBlock: CIFDUS_clean_linker_0, # of connection points: 2
#     Edge 28, Type (0, 0), BuildingBlock: CIFDUS_clean_linker_0, # of connection points: 2
#     Edge 29, Type (0, 0), BuildingBlock: CIFDUS_clean_linker_0, # of connection points: 2
#     Edge 30, Type (0, 0), BuildingBlock: CIFDUS_clean_linker_0, # of connection points: 2
#     Edge 31, Type (0, 0), BuildingBlock: CIFDUS_clean_linker_0, # of connection points: 2
#     Edge 32, Type (0, 0), BuildingBlock: CIFDUS_clean_linker_0, # of connection points: 2
#     Edge 33, Type (0, 0), BuildingBlock: CIFDUS_clean_linker_0, # of connection points: 2
#     Edge 34, Type (0, 0), BuildingBlock: CIFDUS_clean_linker_0, # of connection points: 2
#     Edge 35, Type (0, 0), BuildingBlock: CIFDUS_clean_linker_0, # of connection points: 2
# Relax obj value: 0.150
# Max RMSD: 0.155
# Mean RMSD: 0.155
data_MOF--net-uof--node1-QUQFOY_clean_sbu_1--edge1-CIFDUS_clean_linker_0
_symmetry_space_group_name_H-M    P1
_symmetry_Int_Tables_number       1
_symmetry_cell_setting            triclinic
loop_
_symmetry_equiv_pos_as_xyz
'x, y, z'
_cell_length_a     28.162055
_cell_length_b     28.235022
_cell_length_c     64.531293
_cell_angle_alpha  90.07422
_cell_angle_beta   89.915032
_cell_angle_gamma 119.85186
loop_
_atom_site_label
_atom_site_type_symbol
_atom_site_fract_x
_atom_site_fract_y
_atom_site_fract_z
_atom_type_partial_charge
O0 O 0.33757 0.35258 0.22625 0.0
Cd1 Cd 0.25998 0.29444 0.23543 0.0
Cd2 Cd 0.24089 0.34365 0.20048 0.0
O3 O 0.32039 0.40635 0.20653 0.0
O4 O 0.27634 0.26439 0.26074 0.0
O5 O 0.22724 0.30548 0.26169 0.0
C6 C 0.24954 0.2817 0.27149 0.0
C7 C 0.16627 0.3511 0.18846 0.0
C8 C 0.35426 0.3963 0.21589 0.0
C9 C 0.22111 0.22897 0.19733 0.0
O10 O 0.23484 0.27376 0.18819 0.0
O11 O 0.22078 0.2266 0.21697 0.0
O12 O 0.2095 0.36639 0.17729 0.0
O13 O 0.16801 0.33764 0.20747 0.0
O14 O 0.98101 0.32859 0.56994 0.0
Cd15 Cd 0.97149 0.25507 0.58017 0.0
Cd16 Cd 0.90084 0.22373 0.54455 0.0
O17 O 0.9106 0.30127 0.5486 0.0
O18 O 0.01826 0.27773 0.60555 0.0
O19 O 0.92937 0.22025 0.60649 0.0
C20 C 0.9752 0.24711 0.61629 0.0
C21 C 0.81981 0.14422 0.5352 0.0
C22 C 0.95107 0.33923 0.55834 0.0
C23 C 1.00323 0.21476 0.54322 0.0
O24 O 0.96756 0.22058 0.53331 0.0
O25 O 0.00705 0.22037 0.56276 0.0
O26 O 0.84535 0.18385 0.52229 0.0
O27 O 0.83739 0.15195 0.5541 0.0
O28 O 0.63728 0.96287 0.89364 0.0
Cd29 Cd 0.70149 0.95184 0.90248 0.0
Cd30 Cd 0.65623 0.87991 0.86922 0.0
O31 O 0.58772 0.88766 0.87542 0.0
O32 O 0.73077 1.00141 0.927 0.0
O33 O 0.6965 0.91233 0.92922 0.0
C34 C 0.71794 0.95926 0.93832 0.0
C35 C 0.66186 0.80125 0.86308 0.0
C36 C 0.59334 0.93074 0.88412 0.0
C37 C 0.76529 0.97894 0.86369 0.0
O38 O 0.7207 0.94531 0.85494 0.0
O39 O 0.76834 0.98233 0.8833 0.0
O40 O 0.64009 0.8186 0.84966 0.0
O41 O 0.67456 0.82502 0.881 0.0
O42 O 0.68405 0.67103 0.23175 0.0
Cd43 Cd 0.75926 0.72931 0.24318 0.0
Cd44 Cd 0.78415 0.68282 0.20709 0.0
O45 O 0.70335 0.62072 0.21078 0.0
O46 O 0.73431 0.7608 0.26561 0.0
O47 O 0.78288 0.72101 0.27208 0.0
C48 C 0.75763 0.74544 0.27897 0.0
C49 C 0.8603 0.67426 0.19816 0.0
C50 C 0.66854 0.62937 0.2202 0.0
C51 C 0.80724 0.79889 0.20605 0.0
O52 O 0.79429 0.75542 0.19603 0.0
O53 O 0.8039 0.79818 0.22567 0.0
O54 O 0.82164 0.6632 0.18503 0.0
O55 O 0.85288 0.68462 0.21705 0.0
O56 O 0.04422 0.67385 0.56387 0.0
Cd57 Cd 0.05296 0.7487 0.57158 0.0
Cd58 Cd 0.12516 0.77447 0.5384 0.0
O59 O 0.11912 0.69958 0.54525 0.0
O60 O 1.00487 0.73031 0.59653 0.0
O61 O 0.09383 0.78765 0.59756 0.0
C62 C 0.04755 0.76226 0.6072 0.0
C63 C 0.20339 0.85823 0.53138 0.0
C64 C 0.07681 0.66236 0.5544 0.0
C65 C 0.02327 0.7802 0.53221 0.0
O66 O 0.05877 0.77113 0.52384 0.0
O67 O 0.01922 0.78049 0.55179 0.0
O68 O 0.18583 0.81819 0.5184 0.0
O69 O 0.18001 0.84861 0.54937 0.0
O70 O 0.36026 0.0331 0.90152 0.0
Cd71 Cd 0.29777 0.04399 0.91296 0.0
Cd72 Cd 0.33521 0.11467 0.87685 0.0
O73 O 0.40212 0.10255 0.87974 0.0
O74 O 0.27409 0.99559 0.93788 0.0
O75 O 0.30697 0.08445 0.93994 0.0
C76 C 0.28754 0.03792 0.94919 0.0
C77 C 0.33756 0.19636 0.86784 0.0
C78 C 0.39979 0.06198 0.88935 0.0
C79 C 0.2227 0.01458 0.87692 0.0
O80 O 0.26349 0.04928 0.86649 0.0
O81 O 0.22637 0.0106 0.89636 0.0
O82 O 0.34993 0.16994 0.85461 0.0
O83 O 0.32925 0.17931 0.88681 0.0
O84 O 0.64255 0.6717 0.44618 0.0
Cd85 Cd 0.7104 0.74423 0.43759 0.0
Cd86 Cd 0.66348 0.77426 0.47123 0.0
O87 O 0.59454 0.69933 0.46466 0.0
O88 O 0.74131 0.71773 0.41547 0.0
O89 O 0.71322 0.77648 0.40922 0.0
C90 C 0.73365 0.74747 0.40235 0.0
C91 C 0.66821 0.85775 0.47848 0.0
C92 C 0.5989 0.66138 0.45571 0.0
C93 C 0.77106 0.77962 0.47736 0.0
O94 O 0.72675 0.77126 0.48574 0.0
O95 O 0.775 0.7784 0.4578 0.0
O96 O 0.64644 0.81768 0.49144 0.0
O97 O 0.68183 0.84835 0.46042 0.0
O98 O 0.99516 0.67029 0.77439 0.0
Cd99 Cd 0.97437 0.72683 0.76414 0.0
Cd100 Cd 0.90894 0.6822 0.80016 0.0
O101 O 0.92831 0.62044 0.79635 0.0
O102 O 0.02086 0.75476 0.73875 0.0
O103 O 0.9308 0.71329 0.73767 0.0
C104 C 0.97696 0.73661 0.72791 0.0
C105 C 0.82427 0.67379 0.80888 0.0
C106 C 0.97085 0.62907 0.78625 0.0
C107 C 1.00185 0.7983 0.80081 0.0
O108 O 0.97141 0.75512 0.81098 0.0
O109 O 1.0033 0.7972 0.78117 0.0
O110 O 0.8517 0.66274 0.82211 0.0
O111 O 0.84221 0.68398 0.79002 0.0
O112 O 0.3353 0.96254 0.11366 0.0
Cd113 Cd 0.2599 0.95154 0.10506 0.0
Cd114 Cd 0.23393 0.87899 0.1378 0.0
O115 O 0.30984 0.88643 0.13122 0.0
O116 O 0.27942 1.0011 0.08057 0.0
O117 O 0.22505 0.91195 0.07836 0.0
C118 C 0.25017 0.95887 0.06926 0.0
C119 C 0.14944 0.80065 0.14368 0.0
C120 C 0.3472 0.92994 0.12277 0.0
C121 C 0.22408 0.9778 0.14424 0.0
O122 O 0.23563 0.94417 0.15264 0.0
O123 O 0.22358 0.98142 0.12465 0.0
O124 O 0.18862 0.81707 0.15704 0.0
O125 O 0.16054 0.82514 0.12592 0.0
O126 O 0.35885 0.32915 0.43933 0.0
Cd127 Cd 0.29456 0.25633 0.42876 0.0
Cd128 Cd 0.33245 0.22304 0.46466 0.0
O129 O 0.4002 0.30067 0.46107 0.0
O130 O 0.27159 0.27984 0.40329 0.0
O131 O 0.30178 0.22127 0.40246 0.0
C132 C 0.28357 0.24873 0.3926 0.0
C133 C 0.33471 0.14405 0.47442 0.0
C134 C 0.39863 0.33906 0.45126 0.0
C135 C 0.22125 0.2152 0.46539 0.0
O136 O 0.26194 0.21941 0.47541 0.0
O137 O 0.22399 0.22233 0.44592 0.0
O138 O 0.34759 0.18363 0.48727 0.0
O139 O 0.32548 0.15148 0.45541 0.0
O140 O 0.02703 0.35382 0.78241 0.0
Cd141 Cd 0.04617 0.29529 0.77328 0.0
Cd142 Cd 0.11441 0.34379 0.80682 0.0
O143 O 0.09976 0.40814 0.80116 0.0
O144 O 0.99948 0.26476 0.74807 0.0
O145 O 0.08959 0.30565 0.747 0.0
C146 C 0.04342 0.28171 0.73728 0.0
C147 C 0.19648 0.34475 0.81325 0.0
C148 C 0.05522 0.39809 0.79233 0.0
C149 C 0.01997 0.23106 0.81159 0.0
O150 O 0.05103 0.27623 0.82049 0.0
O151 O 0.01805 0.22797 0.79196 0.0
O152 O 0.17597 0.36348 0.8267 0.0
O153 O 0.17373 0.33159 0.79516 0.0
O154 O 0.6833 0.03439 0.10605 0.0
Cd155 Cd 0.75665 0.04556 0.09455 0.0
Cd156 Cd 0.789 0.11569 0.13238 0.0
O157 O 0.70956 0.102 0.12871 0.0
O158 O 0.73157 0.99706 0.06964 0.0
O159 O 0.78746 0.08587 0.06752 0.0
C160 C 0.76027 0.0393 0.0583 0.0
C161 C 0.86189 0.19459 0.14737 0.0
C162 C 0.67198 0.06219 0.11857 0.0
C163 C 0.80276 0.01537 0.13022 0.0
O164 O 0.79667 0.04971 0.14095 0.0
O165 O 0.79471 0.01175 0.11082 0.0
O166 O 0.81916 0.16169 0.1579 0.0
O167 O 0.86097 0.18586 0.12767 0.0
H168 H 0.96128 0.26672 0.13033 0.0
H169 H 0.87772 0.21221 0.189 0.0
H170 H 0.96453 0.26225 0.20731 0.0
H171 H 0.06534 0.31048 0.20652 0.0
H172 H 0.14899 0.36521 0.14787 0.0
H173 H 0.06146 0.32721 0.12994 0.0
C174 C 0.96187 0.26681 0.14713 0.0
C175 C 0.91287 0.23498 0.15818 0.0
C176 C 0.01228 0.29541 0.15767 0.0
C177 C 0.91463 0.23594 0.18 0.0
C178 C 0.96445 0.26443 0.19055 0.0
C179 C 0.06451 0.31533 0.18988 0.0
C180 C 0.11393 0.34012 0.17861 0.0
C181 C 0.01376 0.29268 0.17953 0.0
C182 C 0.1118 0.34612 0.15702 0.0
C183 C 0.06159 0.32404 0.14667 0.0
H184 H 0.7903 0.11075 0.49531 0.0
H185 H 0.75463 0.05359 0.55849 0.0
H186 H 0.69758 0.95991 0.5462 0.0
H187 H 0.66771 0.89325 0.51772 0.0
H188 H 0.70857 0.95002 0.45465 0.0
H189 H 0.75288 0.04463 0.46668 0.0
C190 C 0.76913 0.07801 0.50643 0.0
C191 C 0.77709 0.08937 0.52784 0.0
C192 C 0.73762 0.02393 0.49924 0.0
C193 C 0.74945 0.0462 0.54195 0.0
C194 C 0.71695 0.99248 0.53492 0.0
C195 C 0.68519 0.92624 0.50653 0.0
C196 C 0.68492 0.91433 0.48527 0.0
C197 C 0.71216 0.98067 0.51362 0.0
C198 C 0.70818 0.95782 0.47108 0.0
C199 C 0.73382 0.01203 0.47797 0.0
H200 H 0.66239 0.76299 0.82433 0.0
H201 H 0.70465 0.75295 0.88779 0.0
H202 H 0.75234 0.7049 0.87663 0.0
H203 H 0.79271 0.67738 0.84855 0.0
H204 H 0.75542 0.69302 0.78495 0.0
H205 H 0.69467 0.72642 0.79648 0.0
C206 C 0.68087 0.74917 0.83581 0.0
C207 C 0.68007 0.76195 0.8569 0.0
C208 C 0.70978 0.72303 0.8292 0.0
C209 C 0.70462 0.74388 0.87148 0.0
C210 C 0.73222 0.7166 0.86508 0.0
C211 C 0.77036 0.68687 0.83718 0.0
C212 C 0.77903 0.68293 0.81586 0.0
C213 C 0.73669 0.70767 0.84393 0.0
C214 C 0.74978 0.69574 0.80142 0.0
C215 C 0.71516 0.71513 0.80802 0.0
H216 H 0.89507 0.67856 0.1584 0.0
H217 H 0.94828 0.69227 0.2219 0.0
H218 H 0.04215 0.72509 0.21023 0.0
H219 H 0.11076 0.76167 0.18234 0.0
H220 H 0.05827 0.75377 0.11901 0.0
H221 H 0.96268 0.70624 0.13023 0.0
C222 C 0.92691 0.6875 0.16971 0.0
C223 C 0.91447 0.68317 0.19105 0.0
C224 C 0.98123 0.708 0.16289 0.0
C225 C 0.95652 0.6953 0.20541 0.0
C226 C 0.01036 0.71436 0.19873 0.0
C227 C 0.07844 0.74842 0.1709 0.0
C228 C 0.09193 0.76164 0.14983 0.0
C229 C 0.0235 0.72262 0.17755 0.0
C230 C 0.04928 0.74433 0.13531 0.0
C231 C 0.9945 0.71736 0.14174 0.0
H232 H 0.33015 0.11112 0.51442 0.0
H233 H 0.31172 0.05367 0.45134 0.0
H234 H 0.2766 0.96033 0.46375 0.0
H235 H 0.24021 0.89383 0.49225 0.0
H236 H 0.25309 0.95075 0.55519 0.0
H237 H 0.30196 0.04532 0.54313 0.0
C238 C 0.31957 0.07841 0.50336 0.0
C239 C 0.32337 0.08955 0.48193 0.0
C240 C 0.29788 0.02449 0.51061 0.0
C241 C 0.30914 0.04643 0.46789 0.0
C242 C 0.28881 0.99291 0.47499 0.0
C243 C 0.25477 0.92687 0.50341 0.0
C244 C 0.24267 0.91498 0.52463 0.0
C245 C 0.28138 0.98123 0.49629 0.0
C246 C 0.26166 0.95853 0.5388 0.0
C247 C 0.28941 0.01271 0.53188 0.0
H248 H 0.33274 0.22681 0.82816 0.0
H249 H 0.31241 0.26114 0.89172 0.0
H250 H 0.27424 0.31758 0.88009 0.0
H251 H 0.23508 0.34654 0.85213 0.0
H252 H 0.25027 0.30738 0.78868 0.0
H253 H 0.30267 0.2644 0.79999 0.0
C254 C 0.32113 0.24759 0.8395 0.0
C255 C 0.32518 0.23929 0.86083 0.0
C256 C 0.29771 0.27882 0.8327 0.0
C257 C 0.30968 0.26653 0.87523 0.0
C258 C 0.28756 0.29868 0.86858 0.0
C259 C 0.25094 0.3298 0.84069 0.0
C260 C 0.23833 0.33 0.81955 0.0
C261 C 0.27966 0.30359 0.84738 0.0
C262 C 0.25914 0.30779 0.80503 0.0
C263 C 0.2889 0.28287 0.81152 0.0
H264 H 0.61288 0.51867 0.21469 0.0
H265 H 0.59049 0.65862 0.21952 0.0
H266 H 0.49147 0.5999 0.21679 0.0
H267 H 0.41019 0.50786 0.21495 0.0
H268 H 0.43236 0.36745 0.21338 0.0
H269 H 0.53162 0.42665 0.21279 0.0
C270 C 0.58624 0.53617 0.21494 0.0
C271 C 0.60895 0.5928 0.21731 0.0
C272 C 0.529 0.50192 0.21404 0.0
C273 C 0.57394 0.615 0.21785 0.0
C274 C 0.51726 0.58149 0.21626 0.0
C275 C 0.43688 0.49045 0.21426 0.0
C276 C 0.41406 0.4335 0.2142 0.0
C277 C 0.49417 0.52477 0.21463 0.0
C278 C 0.44905 0.4113 0.21357 0.0
C279 C 0.50585 0.44509 0.21321 0.0
H280 H 0.97589 0.57366 0.5523 0.0
H281 H 0.14703 0.62161 0.55473 0.0
H282 H 0.12281 0.5253 0.55616 0.0
H283 H 0.0526 0.42781 0.55805 0.0
H284 H 0.88182 0.3799 0.55291 0.0
H285 H 0.90615 0.47613 0.55111 0.0
C286 C 0.00788 0.56296 0.55309 0.0
C287 C 0.06318 0.60456 0.55368 0.0
C288 C 0.99363 0.5077 0.55345 0.0
C289 C 0.10426 0.59027 0.55429 0.0
C290 C 0.09037 0.53528 0.55518 0.0
C291 C 0.02074 0.43851 0.5565 0.0
C292 C 0.96541 0.39695 0.55589 0.0
C293 C 0.03518 0.49373 0.555 0.0
C294 C 0.9246 0.4112 0.55346 0.0
C295 C 0.93853 0.46615 0.55249 0.0
H296 H 0.3853 0.95981 0.88871 0.0
H297 H 0.50941 0.12919 0.88274 0.0
H298 H 0.58019 0.103 0.88018 0.0
H299 H 0.60682 0.03212 0.8813 0.0
H300 H 0.48229 0.86235 0.88471 0.0
H301 H 0.4112 0.88835 0.88644 0.0
C302 C 0.42788 0.99096 0.88678 0.0
C303 C 0.44235 0.04645 0.8862 0.0
C304 C 0.46801 0.97545 0.88487 0.0
C305 C 0.4974 0.08631 0.88328 0.0
C306 C 0.53779 0.07132 0.88188 0.0
C307 C 0.56404 1.00081 0.88232 0.0
C308 C 0.5497 0.94538 0.88314 0.0
C309 C 0.52359 0.01609 0.88291 0.0
C310 C 0.49421 0.90519 0.88407 0.0
C311 C 0.45369 0.92011 0.88515 0.0
H312 H 0.6096 0.5718 0.45819 0.0
H313 H 0.48823 0.62224 0.45536 0.0
H314 H 0.41532 0.52633 0.45382 0.0
H315 H 0.38689 0.42847 0.45172 0.0
H316 H 0.50801 0.37819 0.45715 0.0
H317 H 0.58062 0.47399 0.45932 0.0
C318 C 0.56711 0.56173 0.45731 0.0
C319 C 0.55418 0.60391 0.45661 0.0
C320 C 0.52566 0.50672 0.45684 0.0
C321 C 0.49907 0.59044 0.45589 0.0
C322 C 0.45751 0.53569 0.45493 0.0
C323 C 0.42923 0.43858 0.45342 0.0
C324 C 0.44233 0.39649 0.45399 0.0
C325 C 0.47043 0.49356 0.45512 0.0
C326 C 0.49707 0.40992 0.45663 0.0
C327 C 0.53849 0.46462 0.45781 0.0
H328 H 0.91861 0.52002 0.79545 0.0
H329 H 0.07782 0.6581 0.78247 0.0
H330 H 0.11934 0.60042 0.78509 0.0
H331 H 0.11013 0.50934 0.78933 0.0
H332 H 0.94986 0.37004 0.79914 0.0
H333 H 0.9094 0.42905 0.79972 0.0
C334 C 0.96239 0.53742 0.79336 0.0
C335 C 0.99495 0.59318 0.78873 0.0
C336 C 0.98598 0.50363 0.79431 0.0
C337 C 0.05166 0.61512 0.78588 0.0
C338 C 0.07558 0.58221 0.78743 0.0
C339 C 0.06652 0.49223 0.79184 0.0
C340 C 0.03306 0.43562 0.79427 0.0
C341 C 0.04313 0.52624 0.7914 0.0
C342 C 0.97642 0.41364 0.79719 0.0
C343 C 0.95321 0.44731 0.7975 0.0
H344 H 0.43466 0.03116 0.1265 0.0
H345 H 0.39024 0.86181 0.12115 0.0
H346 H 0.48738 0.88816 0.11948 0.0
H347 H 0.58462 0.95992 0.11795 0.0
H348 H 0.62896 0.12866 0.12593 0.0
H349 H 0.53192 0.10208 0.12827 0.0
C350 C 0.44632 1.00001 0.12507 0.0
C351 C 0.40547 0.94463 0.12369 0.0
C352 C 0.50205 0.01545 0.12453 0.0
C353 C 0.42099 0.90462 0.12222 0.0
C354 C 0.47645 0.91973 0.12118 0.0
C355 C 0.57296 0.99083 0.12026 0.0
C356 C 0.61376 0.04629 0.12148 0.0
C357 C 0.51727 0.97507 0.12205 0.0
C358 C 0.59828 0.08582 0.12489 0.0
C359 C 0.54286 0.07062 0.12617 0.0
H360 H 0.20623 0.05899 0.13136 0.0
H361 H 0.22097 0.98079 0.18653 0.0
H362 H 0.21523 0.04885 0.20806 0.0
H363 H 0.21484 0.13514 0.211 0.0
H364 H 0.20388 0.21509 0.15568 0.0
H365 H 0.19868 0.14119 0.13444 0.0
C366 C 0.20763 0.05643 0.1481 0.0
C367 C 0.21473 0.01531 0.1573 0.0
C368 C 0.20521 0.0961 0.16036 0.0
C369 C 0.21605 0.01238 0.17903 0.0
C370 C 0.2128 0.05127 0.19136 0.0
C371 C 0.21048 0.13601 0.19433 0.0
C372 C 0.21039 0.1808 0.18492 0.0
C373 C 0.20869 0.09402 0.18217 0.0
C374 C 0.20465 0.18131 0.16329 0.0
C375 C 0.20173 0.13913 0.15112 0.0
H376 H 0.00954 0.20557 0.50159 0.0
H377 H 0.08681 0.20304 0.55904 0.0
H378 H 0.15868 0.19785 0.5398 0.0
H379 H 0.20356 0.20214 0.50685 0.0
H380 H 0.12791 0.2078 0.44941 0.0
H381 H 0.05099 0.20313 0.46858 0.0
C382 C 0.04177 0.20335 0.50994 0.0
C383 C 0.04313 0.20537 0.53171 0.0
C384 C 0.08337 0.20122 0.49881 0.0
C385 C 0.08498 0.20198 0.54227 0.0
C386 C 0.12616 0.1991 0.53129 0.0
C387 C 0.17003 0.20181 0.49847 0.0
C388 C 0.17184 0.20598 0.47674 0.0
C389 C 0.1264 0.19998 0.50957 0.0
C390 C 0.12778 0.20503 0.46615 0.0
C391 C 0.08381 0.20247 0.4771 0.0
H392 H 0.93502 0.13563 0.79782 0.0
H393 H 0.02011 0.2197 0.85356 0.0
H394 H 0.95082 0.14594 0.87463 0.0
H395 H 0.86206 0.0624 0.87725 0.0
H396 H 0.77494 0.98027 0.82154 0.0
H397 H 0.84951 0.04848 0.80042 0.0
C398 C 0.93887 0.1375 0.81457 0.0
C399 C 0.98228 0.18333 0.82412 0.0
C400 C 0.89834 0.09559 0.82659 0.0
C401 C 0.98674 0.18507 0.84583 0.0
C402 C 0.94713 0.14298 0.8579 0.0
C403 C 0.85957 0.05902 0.86049 0.0
C404 C 0.81273 0.01672 0.85099 0.0
C405 C 0.90206 0.0988 0.84845 0.0
C406 C 0.81033 0.01278 0.82925 0.0
C407 C 0.85293 0.05175 0.81715 0.0
H408 H 0.82581 0.01409 0.17093 0.0
H409 H 0.80675 0.9286 0.11325 0.0
H410 H 0.81355 0.85682 0.13165 0.0
H411 H 0.81398 0.81349 0.16438 0.0
H412 H 0.8294 0.89741 0.22217 0.0
H413 H 0.83573 0.97513 0.20332 0.0
C414 C 0.82375 0.9801 0.16232 0.0
C415 C 0.81481 0.97624 0.1408 0.0
C416 C 0.82673 0.93856 0.17301 0.0
C417 C 0.81308 0.93233 0.12985 0.0
C418 C 0.81683 0.89118 0.14036 0.0
C419 C 0.81948 0.84906 0.17287 0.0
C420 C 0.82025 0.84922 0.19466 0.0
C421 C 0.82196 0.8931 0.16199 0.0
C422 C 0.82812 0.89595 0.2054 0.0
C423 C 0.83157 0.94037 0.19464 0.0
H424 H 0.86676 0.78789 0.46471 0.0
H425 H 0.77892 0.78861 0.51955 0.0
H426 H 0.85165 0.79296 0.54136 0.0
H427 H 0.93656 0.78991 0.54487 0.0
H428 H 0.02287 0.7864 0.49 0.0
H429 H 0.95423 0.79017 0.46819 0.0
C430 C 0.86367 0.7895 0.48143 0.0
C431 C 0.81725 0.7874 0.49048 0.0
C432 C 0.90515 0.79121 0.49388 0.0
C433 C 0.81405 0.78975 0.51217 0.0
C434 C 0.85558 0.7922 0.52467 0.0
C435 C 0.94068 0.79046 0.52814 0.0
C436 C 0.98447 0.78735 0.51909 0.0
C437 C 0.90076 0.79189 0.51568 0.0
C438 C 0.9893 0.78833 0.49738 0.0
C439 C 0.95008 0.79046 0.48488 0.0
H440 H 0.20066 0.01213 0.83587 0.0
H441 H 0.13064 0.92929 0.89365 0.0
H442 H 0.05223 0.85792 0.87509 0.0
H443 H 0.00906 0.81425 0.84237 0.0
H444 H 0.08066 0.89529 0.78449 0.0
H445 H 0.15265 0.97269 0.80331 0.0
C446 C 0.16799 0.97881 0.84446 0.0
C447 C 0.17197 0.9756 0.86607 0.0
C448 C 0.12347 0.93748 0.83369 0.0
C449 C 0.1289 0.93252 0.87697 0.0
C450 C 0.08407 0.8916 0.86638 0.0
C451 C 0.03998 0.84911 0.83384 0.0
C452 C 0.03999 0.84858 0.81206 0.0
C453 C 0.08178 0.89291 0.84471 0.0
C454 C 0.07995 0.89441 0.80127 0.0
C455 C 0.12126 0.93862 0.81201 0.0
H456 H 0.23697 0.29397 0.36887 0.0
H457 H 0.31678 0.19747 0.36495 0.0
H458 H 0.3111 0.19735 0.32714 0.0
H459 H 0.28688 0.22777 0.29525 0.0
H460 H 0.20684 0.32407 0.29917 0.0
H461 H 0.2089 0.3208 0.337 0.0
C462 C 0.25297 0.27271 0.35977 0.0
C463 C 0.2776 0.24604 0.36975 0.0
C464 C 0.24956 0.27281 0.33805 0.0
C465 C 0.29772 0.21838 0.35769 0.0
C466 C 0.29455 0.21837 0.33606 0.0
C467 C 0.26957 0.24781 0.30436 0.0
C468 C 0.24697 0.27638 0.29437 0.0
C469 C 0.27106 0.24591 0.32609 0.0
C470 C 0.22449 0.30183 0.30644 0.0
C471 C 0.2258 0.3001 0.32808 0.0
H472 H 0.0672 0.29161 0.63989 0.0
H473 H 0.891 0.1968 0.64405 0.0
H474 H 0.89694 0.19723 0.68186 0.0
H475 H 0.9519 0.22789 0.71366 0.0
H476 H 0.12811 0.32265 0.70949 0.0
H477 H 0.12237 0.31853 0.67167 0.0
C478 C 0.03004 0.27081 0.64904 0.0
C479 C 0.97867 0.24449 0.63913 0.0
C480 C 0.03377 0.27128 0.67075 0.0
C481 C 0.93103 0.21744 0.65125 0.0
C482 C 0.9344 0.21775 0.67288 0.0
C483 C 0.98914 0.2474 0.70451 0.0
C484 C 0.0404 0.27581 0.71442 0.0
C485 C 0.98551 0.24504 0.68279 0.0
C486 C 0.08816 0.30057 0.70229 0.0
C487 C 0.0849 0.29835 0.68065 0.0
H488 H 0.71765 0.94555 0.03592 0.0
H489 H 0.80391 0.12095 0.02937 0.0
H490 H 0.80021 0.11145 0.99164 0.0
H491 H 0.76928 0.05331 0.96061 0.0
H492 H 0.68354 0.87791 0.96722 0.0
H493 H 0.69058 0.88751 0.00491 0.0
C494 C 0.73582 0.98177 0.02626 0.0
C495 C 0.76071 0.03393 0.03547 0.0
C496 C 0.7336 0.97599 0.00461 0.0
C497 C 0.78445 0.08036 0.0227 0.0
C498 C 0.78226 0.07494 1.00112 0.0
C499 C 0.75236 0.01712 0.97027 0.0
C500 C 0.72563 0.96491 0.96108 0.0
C501 C 0.75647 0.02295 0.99192 0.0
C502 C 0.70428 0.91853 0.97386 0.0
C503 C 0.70816 0.924 0.99542 0.0
H504 H 0.7913 0.70798 0.31159 0.0
H505 H 0.71447 0.80318 0.29672 0.0
H506 H 0.7026 0.81454 0.33345 0.0
H507 H 0.71035 0.79434 0.36991 0.0
H508 H 0.78528 0.69744 0.38482 0.0
H509 H 0.8017 0.69021 0.34815 0.0
C510 C 0.77233 0.73152 0.3164 0.0
C511 C 0.75369 0.75448 0.30139 0.0
C512 C 0.76507 0.73753 0.33763 0.0
C513 C 0.72906 0.78482 0.30791 0.0
C514 C 0.7222 0.79139 0.32895 0.0
C515 C 0.73064 0.77201 0.36515 0.0
C516 C 0.74636 0.74638 0.38012 0.0
C517 C 0.73949 0.76745 0.34396 0.0
C518 C 0.77251 0.71745 0.37364 0.0
C519 C 0.78194 0.71323 0.35264 0.0
H520 H 0.95486 0.71877 0.63051 0.0
H521 H 0.13076 0.8171 0.63492 0.0
H522 H 0.12394 0.81979 0.67262 0.0
H523 H 0.0685 0.79042 0.70433 0.0
H524 H 0.89262 0.69188 0.70001 0.0
H525 H 0.89901 0.69337 0.66219 0.0
C526 C 0.99175 0.74109 0.63969 0.0
C527 C 0.04332 0.76743 0.62989 0.0
C528 C 0.98753 0.74228 0.66136 0.0
C529 C 0.0906 0.79642 0.64204 0.0
C530 C 0.08672 0.79787 0.66361 0.0
C531 C 0.03146 0.76949 0.69513 0.0
C532 C 0.98014 0.74076 0.70501 0.0
C533 C 0.03547 0.77035 0.67343 0.0
C534 C 0.93262 0.71422 0.69283 0.0
C535 C 0.93627 0.71495 0.6712 0.0
H536 H 0.29264 0.05278 0.0469 0.0
H537 H 0.20304 0.87733 0.04041 0.0
H538 H 0.20546 0.8866 1.00271 0.0
H539 H 0.23638 0.94436 0.97165 0.0
H540 H 0.32548 0.11981 0.97807 0.0
H541 H 0.31972 0.11065 0.01581 0.0
C542 C 0.27333 0.01651 0.03726 0.0
C543 C 0.24792 0.96438 0.04649 0.0
C544 C 0.27499 0.02215 0.0156 0.0
C545 C 0.22288 0.9179 0.03374 0.0
C546 C 0.22438 0.92318 0.01217 0.0
C547 C 0.25442 0.98067 0.98129 0.0
C548 C 0.28167 0.03274 0.97203 0.0
C549 C 0.25089 0.97508 1.00294 0.0
C550 C 0.30436 0.07928 0.98477 0.0
C551 C 0.30116 0.07405 0.00635 0.0
loop_
_geom_bond_atom_site_label_1
_geom_bond_atom_site_label_2
_geom_bond_distance
_geom_bond_site_symmetry_2
_ccdc_geom_bond_type
O0 Cd1 2.223 . S
O0 C8 1.315 . S
Cd1 O0 2.223 . S
Cd1 O4 2.297 . S
Cd1 O5 2.439 . S
Cd1 O11 2.240 . S
Cd2 O3 2.240 . S
Cd2 O10 2.223 . S
Cd2 O12 2.297 . S
Cd2 O13 2.439 . S
O3 Cd2 2.240 . S
O3 C8 1.279 . S
O4 Cd1 2.297 . S
O4 C6 1.247 . S
O5 Cd1 2.439 . S
O5 C6 1.208 . S
C6 O4 1.247 . S
C6 O5 1.208 . S
C7 O12 1.247 . S
C7 O13 1.208 . S
C8 O0 1.315 . S
C8 O3 1.279 . S
C9 O10 1.315 . S
C9 O11 1.279 . S
O10 Cd2 2.223 . S
O10 C9 1.315 . S
O11 Cd1 2.240 . S
O11 C9 1.279 . S
O12 Cd2 2.297 . S
O12 C7 1.247 . S
O13 Cd2 2.439 . S
O13 C7 1.208 . S
O14 Cd15 2.223 . S
O14 C22 1.315 1_455 S
Cd15 O14 2.223 . S
Cd15 O18 2.297 . S
Cd15 O19 2.439 1_455 S
Cd15 O25 2.240 . S
Cd16 O17 2.240 . S
Cd16 O24 2.223 . S
Cd16 O26 2.297 . S
Cd16 O27 2.439 . S
O17 Cd16 2.240 . S
O17 C22 1.279 . S
O18 Cd15 2.297 . S
O18 C20 1.247 1_455 S
O19 Cd15 2.439 1_655 S
O19 C20 1.208 . S
C20 O18 1.247 1_655 S
C20 O19 1.208 . S
C21 O26 1.247 . S
C21 O27 1.208 . S
C22 O14 1.315 1_655 S
C22 O17 1.279 . S
C23 O24 1.315 1_455 S
C23 O25 1.279 . S
O24 Cd16 2.223 . S
O24 C23 1.315 1_655 S
O25 Cd15 2.240 . S
O25 C23 1.279 . S
O26 Cd16 2.297 . S
O26 C21 1.247 . S
O27 Cd16 2.439 . S
O27 C21 1.208 . S
O28 Cd29 2.223 . S
O28 C36 1.315 1_545 S
Cd29 O28 2.223 . S
Cd29 O32 2.297 . S
Cd29 O33 2.439 1_545 S
Cd29 O39 2.240 . S
Cd30 O31 2.240 . S
Cd30 O38 2.223 . S
Cd30 O40 2.297 . S
Cd30 O41 2.439 . S
O31 Cd30 2.240 . S
O31 C36 1.279 . S
O32 Cd29 2.297 . S
O32 C34 1.247 1_545 S
O33 Cd29 2.439 1_565 S
O33 C34 1.208 . S
C34 O32 1.247 1_565 S
C34 O33 1.208 . S
C35 O40 1.247 . S
C35 O41 1.208 . S
C36 O28 1.315 1_565 S
C36 O31 1.279 . S
C37 O38 1.315 1_545 S
C37 O39 1.279 . S
O38 Cd30 2.223 . S
O38 C37 1.315 1_565 S
O39 Cd29 2.240 . S
O39 C37 1.279 . S
O40 Cd30 2.297 . S
O40 C35 1.247 . S
O41 Cd30 2.439 . S
O41 C35 1.208 . S
O42 Cd43 2.223 . S
O42 C50 1.315 . S
Cd43 O42 2.223 . S
Cd43 O46 2.297 . S
Cd43 O47 2.439 . S
Cd43 O53 2.240 . S
Cd44 O45 2.240 . S
Cd44 O52 2.223 . S
Cd44 O54 2.297 . S
Cd44 O55 2.439 . S
O45 Cd44 2.240 . S
O45 C50 1.279 . S
O46 Cd43 2.297 . S
O46 C48 1.247 . S
O47 Cd43 2.439 . S
O47 C48 1.208 . S
C48 O46 1.247 . S
C48 O47 1.208 . S
C49 O54 1.247 . S
C49 O55 1.208 . S
C50 O42 1.315 . S
C50 O45 1.279 . S
C51 O52 1.315 . S
C51 O53 1.279 . S
O52 Cd44 2.223 . S
O52 C51 1.315 . S
O53 Cd43 2.240 . S
O53 C51 1.279 . S
O54 Cd44 2.297 . S
O54 C49 1.247 . S
O55 Cd44 2.439 . S
O55 C49 1.208 . S
O56 Cd57 2.223 . S
O56 C64 1.315 1_655 S
Cd57 O56 2.223 . S
Cd57 O60 2.297 . S
Cd57 O61 2.439 1_655 S
Cd57 O67 2.240 . S
Cd58 O59 2.240 . S
Cd58 O66 2.223 . S
Cd58 O68 2.297 . S
Cd58 O69 2.439 . S
O59 Cd58 2.240 . S
O59 C64 1.279 . S
O60 Cd57 2.297 . S
O60 C62 1.247 1_655 S
O61 Cd57 2.439 1_455 S
O61 C62 1.208 . S
C62 O60 1.247 1_455 S
C62 O61 1.208 . S
C63 O68 1.247 . S
C63 O69 1.208 . S
C64 O56 1.315 1_455 S
C64 O59 1.279 . S
C65 O66 1.315 1_655 S
C65 O67 1.279 . S
O66 Cd58 2.223 . S
O66 C65 1.315 1_455 S
O67 Cd57 2.240 . S
O67 C65 1.279 . S
O68 Cd58 2.297 . S
O68 C63 1.247 . S
O69 Cd58 2.439 . S
O69 C63 1.208 . S
O70 Cd71 2.223 . S
O70 C78 1.315 1_565 S
Cd71 O70 2.223 . S
Cd71 O74 2.297 . S
Cd71 O75 2.439 1_565 S
Cd71 O81 2.240 . S
Cd72 O73 2.240 . S
Cd72 O80 2.223 . S
Cd72 O82 2.297 . S
Cd72 O83 2.439 . S
O73 Cd72 2.240 . S
O73 C78 1.279 . S
O74 Cd71 2.297 . S
O74 C76 1.247 1_565 S
O75 Cd71 2.439 1_545 S
O75 C76 1.208 . S
C76 O74 1.247 1_545 S
C76 O75 1.208 . S
C77 O82 1.247 . S
C77 O83 1.208 . S
C78 O70 1.315 1_545 S
C78 O73 1.279 . S
C79 O80 1.315 1_565 S
C79 O81 1.279 . S
O80 Cd72 2.223 . S
O80 C79 1.315 1_545 S
O81 Cd71 2.240 . S
O81 C79 1.279 . S
O82 Cd72 2.297 . S
O82 C77 1.247 . S
O83 Cd72 2.439 . S
O83 C77 1.208 . S
O84 Cd85 2.223 . S
O84 C92 1.315 . S
Cd85 O84 2.223 . S
Cd85 O88 2.297 . S
Cd85 O89 2.439 . S
Cd85 O95 2.240 . S
Cd86 O87 2.240 . S
Cd86 O94 2.223 . S
Cd86 O96 2.297 . S
Cd86 O97 2.439 . S
O87 Cd86 2.240 . S
O87 C92 1.279 . S
O88 Cd85 2.297 . S
O88 C90 1.247 . S
O89 Cd85 2.439 . S
O89 C90 1.208 . S
C90 O88 1.247 . S
C90 O89 1.208 . S
C91 O96 1.247 . S
C91 O97 1.208 . S
C92 O84 1.315 . S
C92 O87 1.279 . S
C93 O94 1.315 . S
C93 O95 1.279 . S
O94 Cd86 2.223 . S
O94 C93 1.315 . S
O95 Cd85 2.240 . S
O95 C93 1.279 . S
O96 Cd86 2.297 . S
O96 C91 1.247 . S
O97 Cd86 2.439 . S
O97 C91 1.208 . S
O98 Cd99 2.223 . S
O98 C106 1.315 1_455 S
Cd99 O98 2.223 . S
Cd99 O102 2.297 . S
Cd99 O103 2.439 1_455 S
Cd99 O109 2.240 . S
Cd100 O101 2.240 . S
Cd100 O108 2.223 . S
Cd100 O110 2.297 . S
Cd100 O111 2.439 . S
O101 Cd100 2.240 . S
O101 C106 1.279 . S
O102 Cd99 2.297 . S
O102 C104 1.247 1_455 S
O103 Cd99 2.439 1_655 S
O103 C104 1.208 . S
C104 O102 1.247 1_655 S
C104 O103 1.208 . S
C105 O110 1.247 . S
C105 O111 1.208 . S
C106 O98 1.315 1_655 S
C106 O101 1.279 . S
C107 O108 1.315 1_455 S
C107 O109 1.279 . S
O108 Cd100 2.223 . S
O108 C107 1.315 1_655 S
O109 Cd99 2.240 . S
O109 C107 1.279 . S
O110 Cd100 2.297 . S
O110 C105 1.247 . S
O111 Cd100 2.439 . S
O111 C105 1.208 . S
O112 Cd113 2.223 . S
O112 C120 1.315 1_545 S
Cd113 O112 2.223 . S
Cd113 O116 2.297 . S
Cd113 O117 2.439 1_545 S
Cd113 O123 2.240 . S
Cd114 O115 2.240 . S
Cd114 O122 2.223 . S
Cd114 O124 2.297 . S
Cd114 O125 2.439 . S
O115 Cd114 2.240 . S
O115 C120 1.279 . S
O116 Cd113 2.297 . S
O116 C118 1.247 1_545 S
O117 Cd113 2.439 1_565 S
O117 C118 1.208 . S
C118 O116 1.247 1_565 S
C118 O117 1.208 . S
C119 O124 1.247 . S
C119 O125 1.208 . S
C120 O112 1.315 1_565 S
C120 O115 1.279 . S
C121 O122 1.315 1_545 S
C121 O123 1.279 . S
O122 Cd114 2.223 . S
O122 C121 1.315 1_565 S
O123 Cd113 2.240 . S
O123 C121 1.279 . S
O124 Cd114 2.297 . S
O124 C119 1.247 . S
O125 Cd114 2.439 . S
O125 C119 1.208 . S
O126 Cd127 2.223 . S
O126 C134 1.315 . S
Cd127 O126 2.223 . S
Cd127 O130 2.297 . S
Cd127 O131 2.439 . S
Cd127 O137 2.240 . S
Cd128 O129 2.240 . S
Cd128 O136 2.223 . S
Cd128 O138 2.297 . S
Cd128 O139 2.439 . S
O129 Cd128 2.240 . S
O129 C134 1.279 . S
O130 Cd127 2.297 . S
O130 C132 1.247 . S
O131 Cd127 2.439 . S
O131 C132 1.208 . S
C132 O130 1.247 . S
C132 O131 1.208 . S
C133 O138 1.247 . S
C133 O139 1.208 . S
C134 O126 1.315 . S
C134 O129 1.279 . S
C135 O136 1.315 . S
C135 O137 1.279 . S
O136 Cd128 2.223 . S
O136 C135 1.315 . S
O137 Cd127 2.240 . S
O137 C135 1.279 . S
O138 Cd128 2.297 . S
O138 C133 1.247 . S
O139 Cd128 2.439 . S
O139 C133 1.208 . S
O140 Cd141 2.223 . S
O140 C148 1.315 1_655 S
Cd141 O140 2.223 . S
Cd141 O144 2.297 . S
Cd141 O145 2.439 1_655 S
Cd141 O151 2.240 . S
Cd142 O143 2.240 . S
Cd142 O150 2.223 . S
Cd142 O152 2.297 . S
Cd142 O153 2.439 . S
O143 Cd142 2.240 . S
O143 C148 1.279 . S
O144 Cd141 2.297 . S
O144 C146 1.247 1_655 S
O145 Cd141 2.439 1_455 S
O145 C146 1.208 . S
C146 O144 1.247 1_455 S
C146 O145 1.208 . S
C147 O152 1.247 . S
C147 O153 1.208 . S
C148 O140 1.315 1_455 S
C148 O143 1.279 . S
C149 O150 1.315 1_655 S
C149 O151 1.279 . S
O150 Cd142 2.223 . S
O150 C149 1.315 1_455 S
O151 Cd141 2.240 . S
O151 C149 1.279 . S
O152 Cd142 2.297 . S
O152 C147 1.247 . S
O153 Cd142 2.439 . S
O153 C147 1.208 . S
O154 Cd155 2.223 . S
O154 C162 1.315 1_565 S
Cd155 O154 2.223 . S
Cd155 O158 2.297 . S
Cd155 O159 2.439 1_565 S
Cd155 O165 2.240 . S
Cd156 O157 2.240 . S
Cd156 O164 2.223 . S
Cd156 O166 2.297 . S
Cd156 O167 2.439 . S
O157 Cd156 2.240 . S
O157 C162 1.279 . S
O158 Cd155 2.297 . S
O158 C160 1.247 1_565 S
O159 Cd155 2.439 1_545 S
O159 C160 1.208 . S
C160 O158 1.247 1_545 S
C160 O159 1.208 . S
C161 O166 1.247 . S
C161 O167 1.208 . S
C162 O154 1.315 1_545 S
C162 O157 1.279 . S
C163 O164 1.315 1_565 S
C163 O165 1.279 . S
O164 Cd156 2.223 . S
O164 C163 1.315 1_545 S
O165 Cd155 2.240 . S
O165 C163 1.279 . S
O166 Cd156 2.297 . S
O166 C161 1.247 . S
O167 Cd156 2.439 . S
O167 C161 1.208 . S
H168 C174 0.930 . S
H169 C177 0.930 . S
H170 C178 0.930 . S
H171 C179 0.930 . S
H172 C182 0.930 . S
H173 C183 0.930 . S
C174 H168 0.930 . S
C174 C175 1.355 . S
C174 C176 1.410 1_655 S
C175 C174 1.355 . S
C175 C177 1.419 . S
C176 C174 1.410 1_455 S
C176 C181 1.430 1_455 S
C176 C183 1.411 . S
C177 H169 0.930 . S
C177 C175 1.419 . S
C177 C178 1.362 . S
C178 H170 0.930 . S
C178 C177 1.362 . S
C178 C181 1.411 . S
C179 H171 0.930 . S
C179 C180 1.355 . S
C179 C181 1.410 1_455 S
C180 C179 1.355 . S
C180 C182 1.419 . S
C181 C176 1.430 1_655 S
C181 C178 1.411 . S
C181 C179 1.410 1_655 S
C182 H172 0.930 . S
C182 C180 1.419 . S
C182 C183 1.362 . S
C183 H173 0.930 . S
C183 C176 1.411 . S
C183 C182 1.362 . S
H184 C190 0.930 . S
H185 C193 0.930 . S
H186 C194 0.934 . S
H187 C195 0.930 . S
H188 C198 0.930 . S
H189 C199 0.934 . S
C190 H184 0.930 . S
C190 C191 1.355 . S
C190 C192 1.415 . S
C191 C190 1.355 . S
C191 C193 1.419 . S
C192 C190 1.415 . S
C192 C197 1.425 1_545 S
C192 C199 1.409 . S
C193 H185 0.930 . S
C193 C191 1.419 . S
C193 C194 1.358 1_545 S
C194 H186 0.934 . S
C194 C193 1.358 1_565 S
C194 C197 1.409 . S
C195 H187 0.930 . S
C195 C196 1.355 . S
C195 C197 1.415 . S
C196 C195 1.355 . S
C196 C198 1.419 . S
C197 C192 1.425 1_565 S
C197 C194 1.409 . S
C197 C195 1.415 . S
C198 H188 0.930 . S
C198 C196 1.419 . S
C198 C199 1.359 1_565 S
C199 H189 0.934 . S
C199 C192 1.409 . S
C199 C198 1.359 1_545 S
H200 C206 0.930 . S
H201 C209 0.930 . S
H202 C210 0.930 . S
H203 C211 0.930 . S
H204 C214 0.930 . S
H205 C215 0.930 . S
C206 H200 0.930 . S
C206 C207 1.355 . S
C206 C208 1.415 . S
C207 C206 1.355 . S
C207 C209 1.419 . S
C208 C206 1.415 . S
C208 C213 1.425 . S
C208 C215 1.409 . S
C209 H201 0.930 . S
C209 C207 1.419 . S
C209 C210 1.362 . S
C210 H202 0.930 . S
C210 C209 1.362 . S
C210 C213 1.409 . S
C211 H203 0.930 . S
C211 C212 1.355 . S
C211 C213 1.415 . S
C212 C211 1.355 . S
C212 C214 1.419 . S
C213 C208 1.425 . S
C213 C210 1.409 . S
C213 C211 1.415 . S
C214 H204 0.930 . S
C214 C212 1.419 . S
C214 C215 1.362 . S
C215 H205 0.930 . S
C215 C208 1.409 . S
C215 C214 1.362 . S
H216 C222 0.930 . S
H217 C225 0.930 . S
H218 C226 0.951 . S
H219 C227 0.930 . S
H220 C230 0.930 . S
H221 C231 0.951 . S
C222 H216 0.930 . S
C222 C223 1.355 . S
C222 C224 1.415 . S
C223 C222 1.355 . S
C223 C225 1.419 . S
C224 C222 1.415 . S
C224 C229 1.425 1_655 S
C224 C231 1.409 . S
C225 H217 0.930 . S
C225 C223 1.419 . S
C225 C226 1.343 1_655 S
C226 H218 0.951 . S
C226 C225 1.343 1_455 S
C226 C229 1.409 . S
C227 H219 0.930 . S
C227 C228 1.355 . S
C227 C229 1.415 . S
C228 C227 1.355 . S
C228 C230 1.419 . S
C229 C224 1.425 1_455 S
C229 C226 1.409 . S
C229 C227 1.415 . S
C230 H220 0.930 . S
C230 C228 1.419 . S
C230 C231 1.343 1_455 S
C231 H221 0.951 . S
C231 C224 1.409 . S
C231 C230 1.343 1_655 S
H232 C238 0.930 . S
H233 C241 0.930 . S
H234 C242 0.930 . S
H235 C243 0.930 . S
H236 C246 0.930 . S
H237 C247 0.930 . S
C238 H232 0.930 . S
C238 C239 1.355 . S
C238 C240 1.415 . S
C239 C238 1.355 . S
C239 C241 1.419 . S
C240 C238 1.415 . S
C240 C245 1.425 1_545 S
C240 C247 1.409 . S
C241 H233 0.930 . S
C241 C239 1.419 . S
C241 C242 1.362 1_545 S
C242 H234 0.930 . S
C242 C241 1.362 1_565 S
C242 C245 1.409 . S
C243 H235 0.930 . S
C243 C244 1.355 . S
C243 C245 1.415 . S
C244 C243 1.355 . S
C244 C246 1.419 . S
C245 C240 1.425 1_565 S
C245 C242 1.409 . S
C245 C243 1.415 . S
C246 H236 0.930 . S
C246 C244 1.419 . S
C246 C247 1.362 1_565 S
C247 H237 0.930 . S
C247 C240 1.409 . S
C247 C246 1.362 1_545 S
H248 C254 0.930 . S
H249 C257 0.930 . S
H250 C258 0.930 . S
H251 C259 0.930 . S
H252 C262 0.930 . S
H253 C263 0.930 . S
C254 H248 0.930 . S
C254 C255 1.355 . S
C254 C256 1.415 . S
C255 C254 1.355 . S
C255 C257 1.419 . S
C256 C254 1.415 . S
C256 C261 1.425 . S
C256 C263 1.409 . S
C257 H249 0.930 . S
C257 C255 1.419 . S
C257 C258 1.362 . S
C258 H250 0.930 . S
C258 C257 1.362 . S
C258 C261 1.409 . S
C259 H251 0.930 . S
C259 C260 1.355 . S
C259 C261 1.415 . S
C260 C259 1.355 . S
C260 C262 1.419 . S
C261 C256 1.425 . S
C261 C258 1.409 . S
C261 C259 1.415 . S
C262 H252 0.930 . S
C262 C260 1.419 . S
C262 C263 1.362 . S
C263 H253 0.930 . S
C263 C256 1.409 . S
C263 C262 1.362 . S
H264 C270 0.930 . S
H265 C273 0.930 . S
H266 C274 0.930 . S
H267 C275 0.930 . S
H268 C278 0.930 . S
H269 C279 0.930 . S
C270 H264 0.930 . S
C270 C271 1.355 . S
C270 C272 1.415 . S
C271 C270 1.355 . S
C271 C273 1.419 . S
C272 C270 1.415 . S
C272 C277 1.425 . S
C272 C279 1.409 . S
C273 H265 0.930 . S
C273 C271 1.419 . S
C273 C274 1.362 . S
C274 H266 0.930 . S
C274 C273 1.362 . S
C274 C277 1.409 . S
C275 H267 0.930 . S
C275 C276 1.355 . S
C275 C277 1.415 . S
C276 C275 1.355 . S
C276 C278 1.419 . S
C277 C272 1.425 . S
C277 C274 1.409 . S
C277 C275 1.415 . S
C278 H268 0.930 . S
C278 C276 1.419 . S
C278 C279 1.362 . S
C279 H269 0.930 . S
C279 C272 1.409 . S
C279 C278 1.362 . S
H280 C286 0.930 . S
H281 C289 0.930 . S
H282 C290 0.930 . S
H283 C291 0.930 . S
H284 C294 0.930 . S
H285 C295 0.930 . S
C286 H280 0.930 . S
C286 C287 1.355 1_655 S
C286 C288 1.415 . S
C287 C286 1.355 1_455 S
C287 C289 1.419 . S
C288 C286 1.415 . S
C288 C293 1.425 1_655 S
C288 C295 1.409 . S
C289 H281 0.930 . S
C289 C287 1.419 . S
C289 C290 1.362 . S
C290 H282 0.930 . S
C290 C289 1.362 . S
C290 C293 1.409 . S
C291 H283 0.930 . S
C291 C292 1.355 1_455 S
C291 C293 1.415 . S
C292 C291 1.355 1_655 S
C292 C294 1.419 . S
C293 C288 1.425 1_455 S
C293 C290 1.409 . S
C293 C291 1.415 . S
C294 H284 0.930 . S
C294 C292 1.419 . S
C294 C295 1.362 . S
C295 H285 0.930 . S
C295 C288 1.409 . S
C295 C294 1.362 . S
H296 C302 0.930 . S
H297 C305 0.930 . S
H298 C306 0.930 . S
H299 C307 0.930 . S
H300 C310 0.930 . S
H301 C311 0.930 . S
C302 H296 0.930 . S
C302 C303 1.355 1_565 S
C302 C304 1.415 . S
C303 C302 1.355 1_545 S
C303 C305 1.419 . S
C304 C302 1.415 . S
C304 C309 1.425 1_565 S
C304 C311 1.409 . S
C305 H297 0.930 . S
C305 C303 1.419 . S
C305 C306 1.362 . S
C306 H298 0.930 . S
C306 C305 1.362 . S
C306 C309 1.409 . S
C307 H299 0.930 . S
C307 C308 1.355 1_545 S
C307 C309 1.415 . S
C308 C307 1.355 1_565 S
C308 C310 1.419 . S
C309 C304 1.425 1_545 S
C309 C306 1.409 . S
C309 C307 1.415 . S
C310 H300 0.930 . S
C310 C308 1.419 . S
C310 C311 1.362 . S
C311 H301 0.930 . S
C311 C304 1.409 . S
C311 C310 1.362 . S
H312 C318 0.930 . S
H313 C321 0.930 . S
H314 C322 0.930 . S
H315 C323 0.930 . S
H316 C326 0.930 . S
H317 C327 0.930 . S
C318 H312 0.930 . S
C318 C319 1.355 . S
C318 C320 1.415 . S
C319 C318 1.355 . S
C319 C321 1.419 . S
C320 C318 1.415 . S
C320 C325 1.425 . S
C320 C327 1.409 . S
C321 H313 0.930 . S
C321 C319 1.419 . S
C321 C322 1.362 . S
C322 H314 0.930 . S
C322 C321 1.362 . S
C322 C325 1.409 . S
C323 H315 0.930 . S
C323 C324 1.355 . S
C323 C325 1.415 . S
C324 C323 1.355 . S
C324 C326 1.419 . S
C325 C320 1.425 . S
C325 C322 1.409 . S
C325 C323 1.415 . S
C326 H316 0.930 . S
C326 C324 1.419 . S
C326 C327 1.362 . S
C327 H317 0.930 . S
C327 C320 1.409 . S
C327 C326 1.362 . S
H328 C334 0.930 . S
H329 C337 0.930 . S
H330 C338 0.930 . S
H331 C339 0.930 . S
H332 C342 0.930 . S
H333 C343 0.930 . S
C334 H328 0.930 . S
C334 C335 1.355 . S
C334 C336 1.415 . S
C335 C334 1.355 . S
C335 C337 1.419 1_655 S
C336 C334 1.415 . S
C336 C341 1.425 1_655 S
C336 C343 1.409 . S
C337 H329 0.930 . S
C337 C335 1.419 1_455 S
C337 C338 1.362 . S
C338 H330 0.930 . S
C338 C337 1.362 . S
C338 C341 1.409 . S
C339 H331 0.930 . S
C339 C340 1.355 . S
C339 C341 1.415 . S
C340 C339 1.355 . S
C340 C342 1.419 1_455 S
C341 C336 1.425 1_455 S
C341 C338 1.409 . S
C341 C339 1.415 . S
C342 H332 0.930 . S
C342 C340 1.419 1_655 S
C342 C343 1.362 . S
C343 H333 0.930 . S
C343 C336 1.409 . S
C343 C342 1.362 . S
H344 C350 0.930 . S
H345 C353 0.930 . S
H346 C354 0.930 . S
H347 C355 0.930 . S
H348 C358 0.930 . S
H349 C359 0.930 . S
C350 H344 0.930 . S
C350 C351 1.355 1_545 S
C350 C352 1.415 . S
C351 C350 1.355 1_565 S
C351 C353 1.419 . S
C352 C350 1.415 . S
C352 C357 1.425 1_545 S
C352 C359 1.409 . S
C353 H345 0.930 . S
C353 C351 1.419 . S
C353 C354 1.362 . S
C354 H346 0.930 . S
C354 C353 1.362 . S
C354 C357 1.409 . S
C355 H347 0.930 . S
C355 C356 1.355 1_565 S
C355 C357 1.415 . S
C356 C355 1.355 1_545 S
C356 C358 1.419 . S
C357 C352 1.425 1_565 S
C357 C354 1.409 . S
C357 C355 1.415 . S
C358 H348 0.930 . S
C358 C356 1.419 . S
C358 C359 1.362 . S
C359 H349 0.930 . S
C359 C352 1.409 . S
C359 C358 1.362 . S
H360 C366 0.930 . S
H361 C369 0.930 . S
H362 C370 0.930 . S
H363 C371 0.930 . S
H364 C374 0.930 . S
H365 C375 0.930 . S
C366 H360 0.930 . S
C366 C367 1.355 . S
C366 C368 1.415 . S
C367 C366 1.355 . S
C367 C369 1.419 . S
C368 C366 1.415 . S
C368 C373 1.425 . S
C368 C375 1.409 . S
C369 H361 0.930 . S
C369 C367 1.419 . S
C369 C370 1.362 . S
C370 H362 0.930 . S
C370 C369 1.362 . S
C370 C373 1.409 . S
C371 H363 0.930 . S
C371 C372 1.355 . S
C371 C373 1.415 . S
C372 C371 1.355 . S
C372 C374 1.419 . S
C373 C368 1.425 . S
C373 C370 1.409 . S
C373 C371 1.415 . S
C374 H364 0.930 . S
C374 C372 1.419 . S
C374 C375 1.362 . S
C375 H365 0.930 . S
C375 C368 1.409 . S
C375 C374 1.362 . S
H376 C382 0.930 . S
H377 C385 0.930 . S
H378 C386 0.930 . S
H379 C387 0.930 . S
H380 C390 0.930 . S
H381 C391 0.930 . S
C382 H376 0.930 . S
C382 C383 1.355 . S
C382 C384 1.415 . S
C383 C382 1.355 . S
C383 C385 1.419 . S
C384 C382 1.415 . S
C384 C389 1.425 . S
C384 C391 1.409 . S
C385 H377 0.930 . S
C385 C383 1.419 . S
C385 C386 1.362 . S
C386 H378 0.930 . S
C386 C385 1.362 . S
C386 C389 1.409 . S
C387 H379 0.930 . S
C387 C388 1.355 . S
C387 C389 1.415 . S
C388 C387 1.355 . S
C388 C390 1.419 . S
C389 C384 1.425 . S
C389 C386 1.409 . S
C389 C387 1.415 . S
C390 H380 0.930 . S
C390 C388 1.419 . S
C390 C391 1.362 . S
C391 H381 0.930 . S
C391 C384 1.409 . S
C391 C390 1.362 . S
H392 C398 0.930 . S
H393 C401 0.930 . S
H394 C402 0.930 . S
H395 C403 0.930 . S
H396 C406 0.930 . S
H397 C407 0.930 . S
C398 H392 0.930 . S
C398 C399 1.355 . S
C398 C400 1.415 . S
C399 C398 1.355 . S
C399 C401 1.419 . S
C400 C398 1.415 . S
C400 C405 1.425 . S
C400 C407 1.409 . S
C401 H393 0.930 . S
C401 C399 1.419 . S
C401 C402 1.362 . S
C402 H394 0.930 . S
C402 C401 1.362 . S
C402 C405 1.409 . S
C403 H395 0.930 . S
C403 C404 1.355 . S
C403 C405 1.415 . S
C404 C403 1.355 . S
C404 C406 1.419 . S
C405 C400 1.425 . S
C405 C402 1.409 . S
C405 C403 1.415 . S
C406 H396 0.930 . S
C406 C404 1.419 . S
C406 C407 1.362 . S
C407 H397 0.930 . S
C407 C400 1.409 . S
C407 C406 1.362 . S
H408 C414 0.930 . S
H409 C417 0.930 . S
H410 C418 0.930 . S
H411 C419 0.930 . S
H412 C422 0.930 . S
H413 C423 0.930 . S
C414 H408 0.930 . S
C414 C415 1.355 . S
C414 C416 1.415 . S
C415 C414 1.355 . S
C415 C417 1.419 . S
C416 C414 1.415 . S
C416 C421 1.425 . S
C416 C423 1.409 . S
C417 H409 0.930 . S
C417 C415 1.419 . S
C417 C418 1.362 . S
C418 H410 0.930 . S
C418 C417 1.362 . S
C418 C421 1.409 . S
C419 H411 0.930 . S
C419 C420 1.355 . S
C419 C421 1.415 . S
C420 C419 1.355 . S
C420 C422 1.419 . S
C421 C416 1.425 . S
C421 C418 1.409 . S
C421 C419 1.415 . S
C422 H412 0.930 . S
C422 C420 1.419 . S
C422 C423 1.362 . S
C423 H413 0.930 . S
C423 C416 1.409 . S
C423 C422 1.362 . S
H424 C430 0.930 . S
H425 C433 0.930 . S
H426 C434 0.930 . S
H427 C435 0.930 . S
H428 C438 0.930 . S
H429 C439 0.930 . S
C430 H424 0.930 . S
C430 C431 1.355 . S
C430 C432 1.415 . S
C431 C430 1.355 . S
C431 C433 1.419 . S
C432 C430 1.415 . S
C432 C437 1.425 . S
C432 C439 1.409 . S
C433 H425 0.930 . S
C433 C431 1.419 . S
C433 C434 1.362 . S
C434 H426 0.930 . S
C434 C433 1.362 . S
C434 C437 1.409 . S
C435 H427 0.930 . S
C435 C436 1.355 . S
C435 C437 1.415 . S
C436 C435 1.355 . S
C436 C438 1.419 . S
C437 C432 1.425 . S
C437 C434 1.409 . S
C437 C435 1.415 . S
C438 H428 0.930 . S
C438 C436 1.419 . S
C438 C439 1.362 . S
C439 H429 0.930 . S
C439 C432 1.409 . S
C439 C438 1.362 . S
H440 C446 0.930 . S
H441 C449 0.930 . S
H442 C450 0.930 . S
H443 C451 0.930 . S
H444 C454 0.930 . S
H445 C455 0.930 . S
C446 H440 0.930 . S
C446 C447 1.355 . S
C446 C448 1.415 . S
C447 C446 1.355 . S
C447 C449 1.419 . S
C448 C446 1.415 . S
C448 C453 1.425 . S
C448 C455 1.409 . S
C449 H441 0.930 . S
C449 C447 1.419 . S
C449 C450 1.362 . S
C450 H442 0.930 . S
C450 C449 1.362 . S
C450 C453 1.409 . S
C451 H443 0.930 . S
C451 C452 1.355 . S
C451 C453 1.415 . S
C452 C451 1.355 . S
C452 C454 1.419 . S
C453 C448 1.425 . S
C453 C450 1.409 . S
C453 C451 1.415 . S
C454 H444 0.930 . S
C454 C452 1.419 . S
C454 C455 1.362 . S
C455 H445 0.930 . S
C455 C448 1.409 . S
C455 C454 1.362 . S
H456 C462 0.930 . S
H457 C465 0.930 . S
H458 C466 0.930 . S
H459 C467 0.930 . S
H460 C470 0.930 . S
H461 C471 0.930 . S
C462 H456 0.930 . S
C462 C463 1.355 . S
C462 C464 1.415 . S
C463 C462 1.355 . S
C463 C465 1.419 . S
C464 C462 1.415 . S
C464 C469 1.425 . S
C464 C471 1.409 . S
C465 H457 0.930 . S
C465 C463 1.419 . S
C465 C466 1.362 . S
C466 H458 0.930 . S
C466 C465 1.362 . S
C466 C469 1.409 . S
C467 H459 0.930 . S
C467 C468 1.355 . S
C467 C469 1.415 . S
C468 C467 1.355 . S
C468 C470 1.419 . S
C469 C464 1.425 . S
C469 C466 1.409 . S
C469 C467 1.415 . S
C470 H460 0.930 . S
C470 C468 1.419 . S
C470 C471 1.362 . S
C471 H461 0.930 . S
C471 C464 1.409 . S
C471 C470 1.362 . S
H472 C478 0.930 . S
H473 C481 0.930 . S
H474 C482 0.930 . S
H475 C483 0.930 . S
H476 C486 0.930 . S
H477 C487 0.930 . S
C478 H472 0.930 . S
C478 C479 1.355 . S
C478 C480 1.415 1_655 S
C479 C478 1.355 . S
C479 C481 1.419 . S
C480 C478 1.415 1_455 S
C480 C485 1.425 1_455 S
C480 C487 1.409 . S
C481 H473 0.930 . S
C481 C479 1.419 . S
C481 C482 1.362 . S
C482 H474 0.930 . S
C482 C481 1.362 . S
C482 C485 1.409 . S
C483 H475 0.930 . S
C483 C484 1.355 . S
C483 C485 1.415 1_455 S
C484 C483 1.355 . S
C484 C486 1.419 . S
C485 C480 1.425 1_655 S
C485 C482 1.409 . S
C485 C483 1.415 1_655 S
C486 H476 0.930 . S
C486 C484 1.419 . S
C486 C487 1.362 . S
C487 H477 0.930 . S
C487 C480 1.409 . S
C487 C486 1.362 . S
H488 C494 0.930 . S
H489 C497 0.930 . S
H490 C498 0.908 1_556 S
H491 C499 0.930 . S
H492 C502 0.930 . S
H493 C503 0.907 1_554 S
C494 H488 0.930 . S
C494 C495 1.355 1_565 S
C494 C496 1.415 . S
C495 C494 1.355 1_545 S
C495 C497 1.419 . S
C496 C494 1.415 . S
C496 C501 1.425 1_564 S
C496 C503 1.409 1_554 S
C497 H489 0.930 . S
C497 C495 1.419 . S
C497 C498 1.362 . S
C498 H490 0.908 1_554 S
C498 C497 1.362 . S
C498 C501 1.409 1_554 S
C499 H491 0.930 . S
C499 C500 1.355 1_545 S
C499 C501 1.415 . S
C500 C499 1.355 1_565 S
C500 C502 1.419 . S
C501 C496 1.425 1_546 S
C501 C498 1.409 1_556 S
C501 C499 1.415 . S
C502 H492 0.930 . S
C502 C500 1.419 . S
C502 C503 1.362 . S
C503 H493 0.907 1_556 S
C503 C496 1.409 1_556 S
C503 C502 1.362 . S
H504 C510 0.930 . S
H505 C513 0.930 . S
H506 C514 0.930 . S
H507 C515 0.930 . S
H508 C518 0.930 . S
H509 C519 0.930 . S
C510 H504 0.930 . S
C510 C511 1.355 . S
C510 C512 1.415 . S
C511 C510 1.355 . S
C511 C513 1.419 . S
C512 C510 1.415 . S
C512 C517 1.425 . S
C512 C519 1.409 . S
C513 H505 0.930 . S
C513 C511 1.419 . S
C513 C514 1.362 . S
C514 H506 0.930 . S
C514 C513 1.362 . S
C514 C517 1.409 . S
C515 H507 0.930 . S
C515 C516 1.355 . S
C515 C517 1.415 . S
C516 C515 1.355 . S
C516 C518 1.419 . S
C517 C512 1.425 . S
C517 C514 1.409 . S
C517 C515 1.415 . S
C518 H508 0.930 . S
C518 C516 1.419 . S
C518 C519 1.362 . S
C519 H509 0.930 . S
C519 C512 1.409 . S
C519 C518 1.362 . S
H520 C526 0.930 1_655 S
H521 C529 0.930 . S
H522 C530 0.930 . S
H523 C531 0.930 1_455 S
H524 C534 0.930 . S
H525 C535 0.930 . S
C526 H520 0.930 1_455 S
C526 C527 1.355 . S
C526 C528 1.415 1_455 S
C527 C526 1.355 . S
C527 C529 1.419 . S
C528 C526 1.415 1_655 S
C528 C533 1.425 1_655 S
C528 C535 1.409 . S
C529 H521 0.930 . S
C529 C527 1.419 . S
C529 C530 1.362 . S
C530 H522 0.930 . S
C530 C529 1.362 . S
C530 C533 1.409 . S
C531 H523 0.930 1_655 S
C531 C532 1.355 . S
C531 C533 1.415 1_655 S
C532 C531 1.355 . S
C532 C534 1.419 . S
C533 C528 1.425 1_455 S
C533 C530 1.409 . S
C533 C531 1.415 1_455 S
C534 H524 0.930 . S
C534 C532 1.419 . S
C534 C535 1.362 . S
C535 H525 0.930 . S
C535 C528 1.409 . S
C535 C534 1.362 . S
H536 C542 0.930 . S
H537 C545 0.930 . S
H538 C546 0.930 1_556 S
H539 C547 0.930 . S
H540 C550 0.930 . S
H541 C551 0.930 1_554 S
C542 H536 0.930 . S
C542 C543 1.355 1_545 S
C542 C544 1.415 . S
C543 C542 1.355 1_565 S
C543 C545 1.419 . S
C544 C542 1.415 . S
C544 C549 1.425 1_544 S
C544 C551 1.409 1_554 S
C545 H537 0.930 . S
C545 C543 1.419 . S
C545 C546 1.362 . S
C546 H538 0.930 1_554 S
C546 C545 1.362 . S
C546 C549 1.409 1_554 S
C547 H539 0.930 . S
C547 C548 1.355 1_565 S
C547 C549 1.415 . S
C548 C547 1.355 1_545 S
C548 C550 1.419 . S
C549 C544 1.425 1_566 S
C549 C546 1.409 1_556 S
C549 C547 1.415 . S
C550 H540 0.930 . S
C550 C548 1.419 . S
C550 C551 1.362 . S
C551 H541 0.930 1_556 S
C551 C544 1.409 1_556 S
C551 C550 1.362 . S
C175 C161 1.522 . S
C180 C7 1.520 . S
C191 C21 1.558 . S
C196 C91 1.557 . S
C207 C35 1.562 . S
C212 C105 1.562 . S
C223 C49 1.542 . S
C228 C119 1.544 . S
C239 C133 1.542 . S
C244 C63 1.544 . S
C255 C77 1.547 . S
C260 C147 1.545 . S
C271 C50 1.160 . S
C276 C8 1.159 . S
C287 C64 1.196 . S
C292 C22 1.199 . S
C303 C78 1.167 . S
C308 C36 1.215 . S
C319 C92 1.211 . S
C324 C134 1.179 . S
C335 C106 1.167 . S
C340 C148 1.153 . S
C351 C120 1.167 . S
C356 C162 1.215 . S
C367 C121 1.109 . S
C372 C9 1.062 . S
C383 C23 1.060 . S
C388 C135 1.107 . S
C399 C149 1.114 . S
C404 C37 1.055 . S
C415 C163 1.051 . S
C420 C51 1.116 . S
C431 C93 1.097 . S
C436 C65 1.076 . S
C447 C79 1.113 . S
C452 C107 1.053 . S
C463 C132 1.602 . S
C468 C6 1.600 . S
C479 C20 1.627 . S
C484 C146 1.629 . S
C495 C160 1.620 . S
C500 C34 1.618 . S
C511 C48 1.580 . S
C516 C90 1.582 . S
C527 C62 1.634 . S
C532 C104 1.636 . S
C543 C118 1.626 . S
C548 C76 1.625 . S
