# Generated by pormake.
# Topology vcc, (6)-cn, num edge types: 1
# Building blocks:
#     Node 0, Type 0, BuildingBlock: CUKXOW_clean_sbu_0, # of connection points: 6
#     Node 1, Type 0, BuildingBlock: CUKXOW_clean_sbu_0, # of connection points: 6
#     Node 2, Type 0, BuildingBlock: CUKXOW_clean_sbu_0, # of connection points: 6
#     Node 3, Type 0, BuildingBlock: CUKXOW_clean_sbu_0, # of connection points: 6
#     Node 4, Type 0, BuildingBlock: CUKXOW_clean_sbu_0, # of connection points: 6
#     Node 5, Type 0, BuildingBlock: CUKXOW_clean_sbu_0, # of connection points: 6
#     Node 6, Type 0, BuildingBlock: CUKXOW_clean_sbu_0, # of connection points: 6
#     Node 7, Type 0, BuildingBlock: CUKXOW_clean_sbu_0, # of connection points: 6
#     Node 8, Type 0, BuildingBlock: CUKXOW_clean_sbu_0, # of connection points: 6
#     Node 9, Type 0, BuildingBlock: CUKXOW_clean_sbu_0, # of connection points: 6
#     Node 10, Type 0, BuildingBlock: CUKXOW_clean_sbu_0, # of connection points: 6
#     Node 11, Type 0, BuildingBlock: CUKXOW_clean_sbu_0, # of connection points: 6
#     Node 12, Type 0, BuildingBlock: CUKXOW_clean_sbu_0, # of connection points: 6
#     Node 13, Type 0, BuildingBlock: CUKXOW_clean_sbu_0, # of connection points: 6
#     Node 14, Type 0, BuildingBlock: CUKXOW_clean_sbu_0, # of connection points: 6
#     Node 15, Type 0, BuildingBlock: CUKXOW_clean_sbu_0, # of connection points: 6
#     Node 16, Type 0, BuildingBlock: CUKXOW_clean_sbu_0, # of connection points: 6
#     Node 17, Type 0, BuildingBlock: CUKXOW_clean_sbu_0, # of connection points: 6
#     Node 18, Type 0, BuildingBlock: CUKXOW_clean_sbu_0, # of connection points: 6
#     Node 19, Type 0, BuildingBlock: CUKXOW_clean_sbu_0, # of connection points: 6
#     Node 20, Type 0, BuildingBlock: CUKXOW_clean_sbu_0, # of connection points: 6
#     Node 21, Type 0, BuildingBlock: CUKXOW_clean_sbu_0, # of connection points: 6
#     Node 22, Type 0, BuildingBlock: CUKXOW_clean_sbu_0, # of connection points: 6
#     Node 23, Type 0, BuildingBlock: CUKXOW_clean_sbu_0, # of connection points: 6
#     Node 24, Type 0, BuildingBlock: CUKXOW_clean_sbu_0, # of connection points: 6
#     Node 25, Type 0, BuildingBlock: CUKXOW_clean_sbu_0, # of connection points: 6
#     Node 26, Type 0, BuildingBlock: CUKXOW_clean_sbu_0, # of connection points: 6
#     Node 27, Type 0, BuildingBlock: CUKXOW_clean_sbu_0, # of connection points: 6
#     Node 28, Type 0, BuildingBlock: CUKXOW_clean_sbu_0, # of connection points: 6
#     Node 29, Type 0, BuildingBlock: CUKXOW_clean_sbu_0, # of connection points: 6
#     Node 30, Type 0, BuildingBlock: CUKXOW_clean_sbu_0, # of connection points: 6
#     Node 31, Type 0, BuildingBlock: CUKXOW_clean_sbu_0, # of connection points: 6
#     Edge 32, Type (0, 0), BuildingBlock: TEMPAE_clean_linker_10, # of connection points: 2
#     Edge 33, Type (0, 0), BuildingBlock: TEMPAE_clean_linker_10, # of connection points: 2
#     Edge 34, Type (0, 0), BuildingBlock: TEMPAE_clean_linker_10, # of connection points: 2
#     Edge 35, Type (0, 0), BuildingBlock: TEMPAE_clean_linker_10, # of connection points: 2
#     Edge 36, Type (0, 0), BuildingBlock: TEMPAE_clean_linker_10, # of connection points: 2
#     Edge 37, Type (0, 0), BuildingBlock: TEMPAE_clean_linker_10, # of connection points: 2
#     Edge 38, Type (0, 0), BuildingBlock: TEMPAE_clean_linker_10, # of connection points: 2
#     Edge 39, Type (0, 0), BuildingBlock: TEMPAE_clean_linker_10, # of connection points: 2
#     Edge 40, Type (0, 0), BuildingBlock: TEMPAE_clean_linker_10, # of connection points: 2
#     Edge 41, Type (0, 0), BuildingBlock: TEMPAE_clean_linker_10, # of connection points: 2
#     Edge 42, Type (0, 0), BuildingBlock: TEMPAE_clean_linker_10, # of connection points: 2
#     Edge 43, Type (0, 0), BuildingBlock: TEMPAE_clean_linker_10, # of connection points: 2
#     Edge 44, Type (0, 0), BuildingBlock: TEMPAE_clean_linker_10, # of connection points: 2
#     Edge 45, Type (0, 0), BuildingBlock: TEMPAE_clean_linker_10, # of connection points: 2
#     Edge 46, Type (0, 0), BuildingBlock: TEMPAE_clean_linker_10, # of connection points: 2
#     Edge 47, Type (0, 0), BuildingBlock: TEMPAE_clean_linker_10, # of connection points: 2
#     Edge 48, Type (0, 0), BuildingBlock: TEMPAE_clean_linker_10, # of connection points: 2
#     Edge 49, Type (0, 0), BuildingBlock: TEMPAE_clean_linker_10, # of connection points: 2
#     Edge 50, Type (0, 0), BuildingBlock: TEMPAE_clean_linker_10, # of connection points: 2
#     Edge 51, Type (0, 0), BuildingBlock: TEMPAE_clean_linker_10, # of connection points: 2
#     Edge 52, Type (0, 0), BuildingBlock: TEMPAE_clean_linker_10, # of connection points: 2
#     Edge 53, Type (0, 0), BuildingBlock: TEMPAE_clean_linker_10, # of connection points: 2
#     Edge 54, Type (0, 0), BuildingBlock: TEMPAE_clean_linker_10, # of connection points: 2
#     Edge 55, Type (0, 0), BuildingBlock: TEMPAE_clean_linker_10, # of connection points: 2
#     Edge 56, Type (0, 0), BuildingBlock: TEMPAE_clean_linker_10, # of connection points: 2
#     Edge 57, Type (0, 0), BuildingBlock: TEMPAE_clean_linker_10, # of connection points: 2
#     Edge 58, Type (0, 0), BuildingBlock: TEMPAE_clean_linker_10, # of connection points: 2
#     Edge 59, Type (0, 0), BuildingBlock: TEMPAE_clean_linker_10, # of connection points: 2
#     Edge 60, Type (0, 0), BuildingBlock: TEMPAE_clean_linker_10, # of connection points: 2
#     Edge 61, Type (0, 0), BuildingBlock: TEMPAE_clean_linker_10, # of connection points: 2
#     Edge 62, Type (0, 0), BuildingBlock: TEMPAE_clean_linker_10, # of connection points: 2
#     Edge 63, Type (0, 0), BuildingBlock: TEMPAE_clean_linker_10, # of connection points: 2
#     Edge 64, Type (0, 0), BuildingBlock: TEMPAE_clean_linker_10, # of connection points: 2
#     Edge 65, Type (0, 0), BuildingBlock: TEMPAE_clean_linker_10, # of connection points: 2
#     Edge 66, Type (0, 0), BuildingBlock: TEMPAE_clean_linker_10, # of connection points: 2
#     Edge 67, Type (0, 0), BuildingBlock: TEMPAE_clean_linker_10, # of connection points: 2
#     Edge 68, Type (0, 0), BuildingBlock: TEMPAE_clean_linker_10, # of connection points: 2
#     Edge 69, Type (0, 0), BuildingBlock: TEMPAE_clean_linker_10, # of connection points: 2
#     Edge 70, Type (0, 0), BuildingBlock: TEMPAE_clean_linker_10, # of connection points: 2
#     Edge 71, Type (0, 0), BuildingBlock: TEMPAE_clean_linker_10, # of connection points: 2
#     Edge 72, Type (0, 0), BuildingBlock: TEMPAE_clean_linker_10, # of connection points: 2
#     Edge 73, Type (0, 0), BuildingBlock: TEMPAE_clean_linker_10, # of connection points: 2
#     Edge 74, Type (0, 0), BuildingBlock: TEMPAE_clean_linker_10, # of connection points: 2
#     Edge 75, Type (0, 0), BuildingBlock: TEMPAE_clean_linker_10, # of connection points: 2
#     Edge 76, Type (0, 0), BuildingBlock: TEMPAE_clean_linker_10, # of connection points: 2
#     Edge 77, Type (0, 0), BuildingBlock: TEMPAE_clean_linker_10, # of connection points: 2
#     Edge 78, Type (0, 0), BuildingBlock: TEMPAE_clean_linker_10, # of connection points: 2
#     Edge 79, Type (0, 0), BuildingBlock: TEMPAE_clean_linker_10, # of connection points: 2
#     Edge 80, Type (0, 0), BuildingBlock: TEMPAE_clean_linker_10, # of connection points: 2
#     Edge 81, Type (0, 0), BuildingBlock: TEMPAE_clean_linker_10, # of connection points: 2
#     Edge 82, Type (0, 0), BuildingBlock: TEMPAE_clean_linker_10, # of connection points: 2
#     Edge 83, Type (0, 0), BuildingBlock: TEMPAE_clean_linker_10, # of connection points: 2
#     Edge 84, Type (0, 0), BuildingBlock: TEMPAE_clean_linker_10, # of connection points: 2
#     Edge 85, Type (0, 0), BuildingBlock: TEMPAE_clean_linker_10, # of connection points: 2
#     Edge 86, Type (0, 0), BuildingBlock: TEMPAE_clean_linker_10, # of connection points: 2
#     Edge 87, Type (0, 0), BuildingBlock: TEMPAE_clean_linker_10, # of connection points: 2
#     Edge 88, Type (0, 0), BuildingBlock: TEMPAE_clean_linker_10, # of connection points: 2
#     Edge 89, Type (0, 0), BuildingBlock: TEMPAE_clean_linker_10, # of connection points: 2
#     Edge 90, Type (0, 0), BuildingBlock: TEMPAE_clean_linker_10, # of connection points: 2
#     Edge 91, Type (0, 0), BuildingBlock: TEMPAE_clean_linker_10, # of connection points: 2
#     Edge 92, Type (0, 0), BuildingBlock: TEMPAE_clean_linker_10, # of connection points: 2
#     Edge 93, Type (0, 0), BuildingBlock: TEMPAE_clean_linker_10, # of connection points: 2
#     Edge 94, Type (0, 0), BuildingBlock: TEMPAE_clean_linker_10, # of connection points: 2
#     Edge 95, Type (0, 0), BuildingBlock: TEMPAE_clean_linker_10, # of connection points: 2
#     Edge 96, Type (0, 0), BuildingBlock: TEMPAE_clean_linker_10, # of connection points: 2
#     Edge 97, Type (0, 0), BuildingBlock: TEMPAE_clean_linker_10, # of connection points: 2
#     Edge 98, Type (0, 0), BuildingBlock: TEMPAE_clean_linker_10, # of connection points: 2
#     Edge 99, Type (0, 0), BuildingBlock: TEMPAE_clean_linker_10, # of connection points: 2
#     Edge 100, Type (0, 0), BuildingBlock: TEMPAE_clean_linker_10, # of connection points: 2
#     Edge 101, Type (0, 0), BuildingBlock: TEMPAE_clean_linker_10, # of connection points: 2
#     Edge 102, Type (0, 0), BuildingBlock: TEMPAE_clean_linker_10, # of connection points: 2
#     Edge 103, Type (0, 0), BuildingBlock: TEMPAE_clean_linker_10, # of connection points: 2
#     Edge 104, Type (0, 0), BuildingBlock: TEMPAE_clean_linker_10, # of connection points: 2
#     Edge 105, Type (0, 0), BuildingBlock: TEMPAE_clean_linker_10, # of connection points: 2
#     Edge 106, Type (0, 0), BuildingBlock: TEMPAE_clean_linker_10, # of connection points: 2
#     Edge 107, Type (0, 0), BuildingBlock: TEMPAE_clean_linker_10, # of connection points: 2
#     Edge 108, Type (0, 0), BuildingBlock: TEMPAE_clean_linker_10, # of connection points: 2
#     Edge 109, Type (0, 0), BuildingBlock: TEMPAE_clean_linker_10, # of connection points: 2
#     Edge 110, Type (0, 0), BuildingBlock: TEMPAE_clean_linker_10, # of connection points: 2
#     Edge 111, Type (0, 0), BuildingBlock: TEMPAE_clean_linker_10, # of connection points: 2
#     Edge 112, Type (0, 0), BuildingBlock: TEMPAE_clean_linker_10, # of connection points: 2
#     Edge 113, Type (0, 0), BuildingBlock: TEMPAE_clean_linker_10, # of connection points: 2
#     Edge 114, Type (0, 0), BuildingBlock: TEMPAE_clean_linker_10, # of connection points: 2
#     Edge 115, Type (0, 0), BuildingBlock: TEMPAE_clean_linker_10, # of connection points: 2
#     Edge 116, Type (0, 0), BuildingBlock: TEMPAE_clean_linker_10, # of connection points: 2
#     Edge 117, Type (0, 0), BuildingBlock: TEMPAE_clean_linker_10, # of connection points: 2
#     Edge 118, Type (0, 0), BuildingBlock: TEMPAE_clean_linker_10, # of connection points: 2
#     Edge 119, Type (0, 0), BuildingBlock: TEMPAE_clean_linker_10, # of connection points: 2
#     Edge 120, Type (0, 0), BuildingBlock: TEMPAE_clean_linker_10, # of connection points: 2
#     Edge 121, Type (0, 0), BuildingBlock: TEMPAE_clean_linker_10, # of connection points: 2
#     Edge 122, Type (0, 0), BuildingBlock: TEMPAE_clean_linker_10, # of connection points: 2
#     Edge 123, Type (0, 0), BuildingBlock: TEMPAE_clean_linker_10, # of connection points: 2
#     Edge 124, Type (0, 0), BuildingBlock: TEMPAE_clean_linker_10, # of connection points: 2
#     Edge 125, Type (0, 0), BuildingBlock: TEMPAE_clean_linker_10, # of connection points: 2
#     Edge 126, Type (0, 0), BuildingBlock: TEMPAE_clean_linker_10, # of connection points: 2
#     Edge 127, Type (0, 0), BuildingBlock: TEMPAE_clean_linker_10, # of connection points: 2
# Relax obj value: 0.179
# Max RMSD: 0.161
# Mean RMSD: 0.161
data_MOF--net-vcc--node1-CUKXOW_clean_sbu_0--edge1-TEMPAE_clean_linker_10
_symmetry_space_group_name_H-M    P1
_symmetry_Int_Tables_number       1
_symmetry_cell_setting            triclinic
loop_
_symmetry_equiv_pos_as_xyz
'x, y, z'
_cell_length_a     50.06897
_cell_length_b     59.571006
_cell_length_c     38.413274
_cell_angle_alpha  89.888513
_cell_angle_beta   89.994699
_cell_angle_gamma 90.281077
loop_
_atom_site_label
_atom_site_type_symbol
_atom_site_fract_x
_atom_site_fract_y
_atom_site_fract_z
_atom_type_partial_charge
Tb0 Tb 0.27955 0.99988 0.1133 0.0
C1 C 0.28363 0.05147 0.12222 0.0
Tb2 Tb 0.32406 0.01327 0.1393 0.0
O3 O 0.25326 0.01033 0.15487 0.0
O4 O 0.29107 0.99762 0.1679 0.0
O5 O 0.26907 0.03561 0.10721 0.0
C6 C 0.35798 0.03623 0.17902 0.0
O7 O 0.30642 0.04635 0.13681 0.0
C8 C 0.33108 0.00766 0.07022 0.0
C9 C 0.31965 0.96226 0.14004 0.0
O10 O 0.33251 0.035 0.18338 0.0
O11 O 0.36474 0.02379 0.15286 0.0
O12 O 0.34803 0.00256 0.09439 0.0
O13 O 0.31094 0.01661 0.08525 0.0
O14 O 0.33297 0.97891 0.15438 0.0
O15 O 0.29813 0.96678 0.12152 0.0
C16 C 0.25038 0.97663 0.06821 0.0
O17 O 0.27555 0.98071 0.0656 0.0
O18 O 0.241 0.98654 0.09561 0.0
C19 C 0.26949 0.00626 0.18038 0.0
Tb20 Tb 0.9247 0.25567 0.11321 0.0
C21 C 0.90649 0.20808 0.14226 0.0
Tb22 Tb 0.88134 0.2526 0.13011 0.0
O23 O 0.94771 0.27016 0.15511 0.0
O24 O 0.91468 0.24882 0.16762 0.0
O25 O 0.9249 0.21893 0.12419 0.0
C26 C 0.83015 0.2605 0.14296 0.0
O27 O 0.88543 0.21937 0.15172 0.0
C28 C 0.88091 0.24801 0.05987 0.0
C29 C 0.89904 0.30054 0.13121 0.0
O30 O 0.84157 0.2412 0.14626 0.0
O31 O 0.84773 0.27537 0.13483 0.0
O32 O 0.8712 0.23396 0.08204 0.0
O33 O 0.89285 0.26298 0.0776 0.0
O34 O 0.88572 0.28627 0.15036 0.0
O35 O 0.91523 0.29182 0.10787 0.0
C36 C 0.95913 0.24338 0.0653 0.0
O37 O 0.96333 0.25973 0.08712 0.0
O38 O 0.93646 0.23393 0.07143 0.0
C39 C 0.93402 0.26082 0.18007 0.0
Tb40 Tb 0.29083 0.2562 0.23504 0.0
C41 C 0.29039 0.20516 0.21931 0.0
Tb42 Tb 0.3361 0.24087 0.22071 0.0
O43 O 0.28194 0.27421 0.18696 0.0
O44 O 0.30276 0.24409 0.18371 0.0
O45 O 0.27529 0.22149 0.23182 0.0
C46 C 0.3787 0.21602 0.20573 0.0
O47 O 0.31546 0.20931 0.21141 0.0
C48 C 0.336 0.25051 0.28953 0.0
C49 C 0.33589 0.29125 0.21958 0.0
O50 O 0.35954 0.21021 0.22621 0.0
O51 O 0.37354 0.23562 0.19273 0.0
O52 O 0.35461 0.25528 0.26755 0.0
O53 O 0.31744 0.24082 0.27225 0.0
O54 O 0.34649 0.27455 0.20228 0.0
O55 O 0.31516 0.28671 0.23924 0.0
C56 C 0.2542 0.27576 0.27386 0.0
O57 O 0.27954 0.27904 0.27561 0.0
O58 O 0.24892 0.26072 0.25029 0.0
C59 C 0.29209 0.2598 0.16564 0.0
Tb60 Tb 0.91515 0.99725 0.24386 0.0
C61 C 0.91039 0.04537 0.21616 0.0
Tb62 Tb 0.87577 0.00725 0.2299 0.0
O63 O 0.94499 0.99203 0.20531 0.0
O64 O 0.90599 0.00203 0.18777 0.0
O65 O 0.92103 0.03453 0.24251 0.0
C66 C 0.82729 0.02386 0.2177 0.0
O67 O 0.89198 0.03438 0.1998 0.0
C68 C 0.87764 0.00868 0.30095 0.0
C69 C 0.87699 0.95703 0.22882 0.0
O70 O 0.84793 0.03513 0.22741 0.0
O71 O 0.83404 0.00305 0.21361 0.0
O72 O 0.87491 0.02575 0.28062 0.0
O73 O 0.88344 0.99256 0.28102 0.0
O74 O 0.86208 0.97356 0.21791 0.0
O75 O 0.90025 0.96234 0.24254 0.0
C76 C 0.95259 0.99258 0.29114 0.0
O77 O 0.94864 0.9788 0.26564 0.0
O78 O 0.93632 0.00931 0.28919 0.0
C79 C 0.93044 0.99732 0.17874 0.0
Tb80 Tb 0.63564 0.99358 0.9867 0.0
C81 C 0.63991 0.04415 0.98327 0.0
Tb82 Tb 0.68038 0.00504 0.99871 0.0
O83 O 0.63392 0.97343 1.03518 0.0
O84 O 0.64963 0.00496 1.0378 0.0
O85 O 0.62482 0.02752 0.97277 0.0
C86 C 0.72356 0.02283 1.02824 0.0
O87 O 0.66338 0.03934 0.99696 0.0
C88 C 0.68487 0.99721 0.93135 0.0
C89 C 0.6719 0.9551 0.97745 0.0
O90 O 0.71075 0.03129 1.00229 0.0
O91 O 0.71207 0.00422 1.03744 0.0
O92 O 0.70281 0.99324 0.95463 0.0
O93 O 0.66394 0.00577 0.94596 0.0
O94 O 0.68493 0.96758 1.00054 0.0
O95 O 0.65117 0.96407 0.96267 0.0
C96 C 0.58382 0.98525 0.97901 0.0
O97 O 0.60281 0.97283 0.96698 0.0
O98 O 0.59401 0.00298 0.99295 0.0
C99 C 0.64234 0.9885 1.05656 0.0
Tb100 Tb 0.08223 0.76233 0.98077 0.0
C101 C 0.07918 0.71181 0.98363 0.0
Tb102 Tb 0.03975 0.75116 0.99672 0.0
O103 O 0.08739 0.77987 1.03127 0.0
O104 O 0.07307 0.74787 1.03183 0.0
O105 O 0.09216 0.72796 0.96772 0.0
C106 C 0.00122 0.75003 1.04337 0.0
O107 O 0.05755 0.71738 1.00115 0.0
C108 C 0.03255 0.74666 0.929 0.0
C109 C 0.04488 0.80095 0.96993 0.0
O110 O 0.00254 0.73678 1.01671 0.0
O111 O 0.02059 0.76434 1.04259 0.0
O112 O 0.02153 0.73435 0.953 0.0
O113 O 0.04871 0.76105 0.94294 0.0
O114 O 0.03054 0.78779 0.9905 0.0
O115 O 0.06672 0.79239 0.95732 0.0
C116 C 0.13174 0.77499 0.96497 0.0
O117 O 0.11351 0.78769 0.97764 0.0
O118 O 0.12194 0.75513 0.95967 0.0
C119 C 0.08117 0.7635 1.05163 0.0
Tb120 Tb 0.63091 0.75668 0.88811 0.0
C121 C 0.63484 0.70619 0.88798 0.0
Tb122 Tb 0.67476 0.74614 0.8726 0.0
O123 O 0.62499 0.77606 0.83949 0.0
O124 O 0.64243 0.74544 0.83561 0.0
O125 O 0.6193 0.72236 0.89881 0.0
C126 C 0.71771 0.72944 0.8419 0.0
O127 O 0.65831 0.71162 0.87464 0.0
C128 C 0.68227 0.75353 0.93991 0.0
C129 C 0.66687 0.79589 0.89293 0.0
O130 O 0.70465 0.71988 0.86673 0.0
O131 O 0.70663 0.74834 0.83395 0.0
O132 O 0.69887 0.75797 0.91517 0.0
O133 O 0.66074 0.74491 0.92681 0.0
O134 O 0.67865 0.78359 0.86876 0.0
O135 O 0.64833 0.78596 0.9109 0.0
C136 C 0.58242 0.77024 0.90607 0.0
O137 O 0.60399 0.78196 0.90828 0.0
O138 O 0.58816 0.75018 0.89573 0.0
C139 C 0.63346 0.76153 0.81749 0.0
Tb140 Tb 0.07238 0.99603 0.88179 0.0
C141 C 0.07464 0.04621 0.87602 0.0
Tb142 Tb 0.02924 0.01074 0.86901 0.0
O143 O 0.07605 0.97854 0.8315 0.0
O144 O 0.06107 0.0104 0.83084 0.0
O145 O 0.08501 0.02993 0.89428 0.0
C146 C -0.01694 0.02399 0.84144 0.0
O147 O 0.05299 0.0414 0.85795 0.0
C148 C 0.02935 0.01316 0.9389 0.0
C149 C 0.03166 0.95963 0.88938 0.0
O150 O -0.00217 0.03553 0.86215 0.0
O151 O -0.00585 0.00473 0.83605 0.0
O152 O 0.02071 0.02827 0.91776 0.0
O153 O 0.03965 0.99756 0.92041 0.0
O154 O 0.01875 0.97382 0.86873 0.0
O155 O 0.0534 0.96712 0.90406 0.0
C156 C 0.12132 0.98246 0.89821 0.0
O157 O 0.10267 0.96993 0.8857 0.0
O158 O 0.11227 0.00255 0.90267 0.0
C159 C 0.06832 0.99438 0.81111 0.0
Tb160 Tb 0.27996 0.49974 0.62544 0.0
C161 C 0.291 0.55047 0.64632 0.0
Tb162 Tb 0.3236 0.50948 0.63566 0.0
O163 O 0.26746 0.4826 0.67263 0.0
O164 O 0.29281 0.51063 0.67716 0.0
O165 O 0.27398 0.53701 0.62993 0.0
C166 C 0.37634 0.51133 0.64324 0.0
O167 O 0.31373 0.54184 0.65597 0.0
C168 C 0.31801 0.51218 0.56549 0.0
C169 C 0.31763 0.45988 0.63661 0.0
O170 O 0.36051 0.52828 0.6459 0.0
O171 O 0.36235 0.49341 0.6388 0.0
O172 O 0.32689 0.5277 0.58569 0.0
O173 O 0.30986 0.49652 0.58537 0.0
O174 O 0.32902 0.47558 0.65506 0.0
O175 O 0.29809 0.46646 0.61623 0.0
C176 C 0.23357 0.49476 0.5923 0.0
O177 O 0.24278 0.48167 0.61615 0.0
O178 O 0.25035 0.51106 0.58805 0.0
C179 C 0.2792 0.49595 0.6943 0.0
Tb180 Tb 0.92465 0.75813 0.61966 0.0
C181 C 0.91808 0.70968 0.64298 0.0
Tb182 Tb 0.88244 0.74961 0.64105 0.0
O183 O 0.95267 0.74962 0.65981 0.0
O184 O 0.91497 0.76235 0.67527 0.0
O185 O 0.92817 0.72101 0.6165 0.0
C186 C 0.83895 0.7276 0.66256 0.0
O187 O 0.90102 0.72025 0.66239 0.0
C188 C 0.87738 0.75357 0.57065 0.0
C189 C 0.88883 0.79902 0.64398 0.0
O190 O 0.86034 0.71851 0.65081 0.0
O191 O 0.84221 0.74914 0.66348 0.0
O192 O 0.86277 0.76304 0.59387 0.0
O193 O 0.89522 0.74275 0.58716 0.0
O194 O 0.87494 0.78319 0.65914 0.0
O195 O 0.90917 0.79289 0.62442 0.0
C196 C 0.95852 0.77641 0.57443 0.0
O197 O 0.9332 0.7799 0.57546 0.0
O198 O 0.96499 0.76237 0.59873 0.0
C199 C 0.9377 0.75455 0.68615 0.0
Tb200 Tb 0.28687 0.75868 0.75001 0.0
C201 C 0.28568 0.71008 0.72713 0.0
Tb202 Tb 0.32767 0.74577 0.73319 0.0
O203 O 0.2584 0.75461 0.70899 0.0
O204 O 0.29924 0.76029 0.695 0.0
O205 O 0.27599 0.7225 0.75252 0.0
C206 C 0.36854 0.71894 0.71706 0.0
O207 O 0.30572 0.71849 0.70989 0.0
C208 C 0.32977 0.75097 0.80351 0.0
C209 C 0.33011 0.79533 0.72842 0.0
O210 O 0.346 0.71255 0.72981 0.0
O211 O 0.36781 0.74044 0.71243 0.0
O212 O 0.34589 0.75962 0.78107 0.0
O213 O 0.31167 0.74096 0.78612 0.0
O214 O 0.34274 0.77797 0.71604 0.0
O215 O 0.30736 0.79156 0.74462 0.0
C216 C 0.25735 0.78336 0.79247 0.0
O217 O 0.28299 0.78358 0.79079 0.0
O218 O 0.24793 0.76864 0.77077 0.0
C219 C 0.27527 0.75609 0.68352 0.0
Tb220 Tb 0.92181 0.50073 0.75099 0.0
C221 C 0.90612 0.54817 0.71997 0.0
Tb222 Tb 0.88008 0.50481 0.73678 0.0
O223 O 0.94615 0.48643 0.71109 0.0
O224 O 0.91185 0.50592 0.69609 0.0
O225 O 0.92455 0.53697 0.73711 0.0
C226 C 0.82803 0.49802 0.72784 0.0
O227 O 0.88385 0.5376 0.71345 0.0
C228 C 0.88091 0.50994 0.80699 0.0
C229 C 0.89364 0.45632 0.73504 0.0
O230 O 0.84036 0.51674 0.72167 0.0
O231 O 0.84511 0.48308 0.73669 0.0
O232 O 0.87249 0.5245 0.78475 0.0
O233 O 0.89146 0.49437 0.78928 0.0
O234 O 0.88072 0.47103 0.71652 0.0
O235 O 0.91127 0.46464 0.75702 0.0
C236 C 0.95635 0.51446 0.79782 0.0
O237 O 0.95968 0.49668 0.77859 0.0
O238 O 0.93449 0.52446 0.78969 0.0
C239 C 0.93261 0.49491 0.68532 0.0
Tb240 Tb 0.62928 0.50422 0.48659 0.0
C241 C 0.64556 0.55175 0.48677 0.0
Tb242 Tb 0.67039 0.5055 0.50114 0.0
O243 O 0.62008 0.48476 0.53465 0.0
O244 O 0.64125 0.51387 0.53958 0.0
O245 O 0.63228 0.53804 0.4669 0.0
C246 C 0.70577 0.49043 0.54615 0.0
O247 O 0.66181 0.54197 0.50911 0.0
C248 C 0.68197 0.5112 0.43516 0.0
C249 C 0.64865 0.45911 0.47166 0.0
O250 O 0.70939 0.50808 0.52665 0.0
O251 O 0.683 0.48137 0.53942 0.0
O252 O 0.69559 0.5193 0.46109 0.0
O253 O 0.66097 0.50047 0.4461 0.0
O254 O 0.66704 0.4685 0.49151 0.0
O255 O 0.62953 0.47214 0.46114 0.0
C256 C 0.57763 0.51272 0.47794 0.0
O257 O 0.58841 0.49313 0.47546 0.0
O258 O 0.59603 0.52751 0.48255 0.0
C259 C 0.62943 0.49878 0.5571 0.0
Tb260 Tb 0.07915 0.2576 0.4738 0.0
C261 C 0.07433 0.20737 0.47469 0.0
Tb262 Tb 0.03746 0.24822 0.48825 0.0
O263 O 0.08426 0.27522 0.52428 0.0
O264 O 0.06959 0.24333 0.52483 0.0
O265 O 0.08846 0.22327 0.46001 0.0
C266 C -0.00058 0.24918 0.53549 0.0
O267 O 0.05267 0.2135 0.49161 0.0
C268 C 0.0278 0.24449 0.42143 0.0
C269 C 0.04449 0.29749 0.46175 0.0
O270 O 0.00085 0.23448 0.51072 0.0
O271 O 0.01848 0.2637 0.53242 0.0
O272 O 0.01467 0.23445 0.44612 0.0
O273 O 0.04729 0.25645 0.43378 0.0
O274 O 0.02973 0.28497 0.48257 0.0
O275 O 0.06588 0.28814 0.4494 0.0
C276 C 0.12908 0.26901 0.45818 0.0
O277 O 0.11094 0.28233 0.46944 0.0
O278 O 0.11902 0.24909 0.45467 0.0
C279 C 0.07804 0.25883 0.5446 0.0
Tb280 Tb 0.62821 0.2493 0.38144 0.0
C281 C 0.64786 0.20243 0.38045 0.0
Tb282 Tb 0.66917 0.24977 0.36542 0.0
O283 O 0.61738 0.2685 0.33391 0.0
O284 O 0.63939 0.24006 0.32818 0.0
O285 O 0.63336 0.21537 0.39998 0.0
C286 C 0.70309 0.26584 0.31915 0.0
O287 O 0.66359 0.21293 0.35818 0.0
C288 C 0.68249 0.2449 0.43103 0.0
C289 C 0.64702 0.29513 0.39602 0.0
O290 O 0.70801 0.24885 0.33944 0.0
O291 O 0.6797 0.2737 0.32547 0.0
O292 O 0.69655 0.23842 0.4045 0.0
O293 O 0.66011 0.25376 0.42113 0.0
O294 O 0.66494 0.28647 0.37498 0.0
O295 O 0.62862 0.28143 0.40739 0.0
C296 C 0.57729 0.2385 0.39149 0.0
O297 O 0.58677 0.2587 0.39182 0.0
O298 O 0.59658 0.22451 0.38858 0.0
C299 C 0.62655 0.25472 0.31112 0.0
Tb300 Tb 0.06997 0.4971 0.38599 0.0
C301 C 0.0675 0.54775 0.38665 0.0
Tb302 Tb 0.02608 0.50906 0.37075 0.0
O303 O 0.07449 0.47814 0.33668 0.0
O304 O 0.0585 0.5094 0.33417 0.0
O305 O 0.08222 0.53113 0.3979 0.0
C306 C -0.01573 0.52737 0.33957 0.0
O307 O 0.04403 0.54303 0.37276 0.0
C308 C 0.01879 0.50073 0.43793 0.0
C309 C 0.03225 0.459 0.38947 0.0
O310 O -0.0036 0.53558 0.36626 0.0
O311 O -0.00435 0.50887 0.33032 0.0
O312 O 0.00187 0.49697 0.41327 0.0
O313 O 0.04042 0.50924 0.42479 0.0
O314 O 0.02141 0.4718 0.36512 0.0
O315 O 0.05116 0.46806 0.40784 0.0
C316 C 0.11858 0.48331 0.40328 0.0
O317 O 0.0968 0.47204 0.40749 0.0
O318 O 0.11294 0.503 0.39127 0.0
C319 C 0.06632 0.4933 0.31538 0.0
Tb320 Tb 0.77971 0.99722 0.6163 0.0
C321 C 0.78041 0.04607 0.63916 0.0
Tb322 Tb 0.82146 0.00941 0.63583 0.0
O323 O 0.75106 0.00207 0.65691 0.0
O324 O 0.79125 0.99475 0.67146 0.0
O325 O 0.77028 0.03362 0.61395 0.0
C326 C 0.86331 0.03386 0.65691 0.0
O327 O 0.80012 0.03757 0.65681 0.0
C328 C 0.82506 0.00524 0.56538 0.0
C329 C 0.82 0.95955 0.64101 0.0
O330 O 0.84064 0.0417 0.64708 0.0
O331 O 0.8622 0.0122 0.65595 0.0
O332 O 0.84126 0.99717 0.58811 0.0
O333 O 0.80655 0.01481 0.58246 0.0
O334 O 0.83285 0.97656 0.65456 0.0
O335 O 0.79848 0.96391 0.62262 0.0
C336 C 0.75119 0.97329 0.57151 0.0
O337 O 0.77676 0.97302 0.57447 0.0
O338 O 0.74123 0.98766 0.59329 0.0
C339 C 0.76755 0.99982 0.68268 0.0
Tb340 Tb 0.42042 0.25665 0.61372 0.0
C341 C 0.40281 0.20907 0.64306 0.0
Tb342 Tb 0.37969 0.2526 0.62582 0.0
O343 O 0.44607 0.26915 0.65376 0.0
O344 O 0.41007 0.25141 0.66849 0.0
O345 O 0.42139 0.21999 0.62557 0.0
C346 C 0.32725 0.25937 0.63 0.0
O347 O 0.38118 0.22013 0.65016 0.0
C348 C 0.38244 0.24855 0.55542 0.0
C349 C 0.39336 0.30096 0.63082 0.0
O350 O 0.33904 0.24062 0.63704 0.0
O351 O 0.34501 0.27434 0.62316 0.0
O352 O 0.37568 0.23277 0.57677 0.0
O353 O 0.39143 0.26428 0.57424 0.0
O354 O 0.37981 0.2859 0.64805 0.0
O355 O 0.4112 0.29297 0.609 0.0
C356 C 0.45495 0.24197 0.56774 0.0
O357 O 0.45818 0.26043 0.5855 0.0
O358 O 0.43329 0.23191 0.57693 0.0
C359 C 0.43191 0.26103 0.67934 0.0
Tb360 Tb 0.77958 0.25635 0.74183 0.0
C361 C 0.78964 0.20606 0.71835 0.0
Tb362 Tb 0.82302 0.24698 0.72882 0.0
O363 O 0.76493 0.2733 0.69558 0.0
O364 O 0.79086 0.24592 0.68926 0.0
O365 O 0.77346 0.21909 0.73659 0.0
C366 C 0.87506 0.24432 0.71639 0.0
O367 O 0.81178 0.21516 0.70711 0.0
C368 C 0.81968 0.24453 0.79932 0.0
C369 C 0.81705 0.29693 0.73045 0.0
O370 O 0.85952 0.22739 0.72201 0.0
O371 O 0.86109 0.26239 0.71549 0.0
O372 O 0.82799 0.22901 0.77884 0.0
O373 O 0.81109 0.26008 0.77968 0.0
O374 O 0.82897 0.28146 0.71227 0.0
O375 O 0.797 0.29018 0.75005 0.0
C376 C 0.7356 0.25816 0.78041 0.0
O377 O 0.74172 0.27195 0.75565 0.0
O378 O 0.75398 0.24313 0.78255 0.0
C379 C 0.77646 0.26042 0.6731 0.0
Tb380 Tb 0.43035 0.99986 0.75183 0.0
C381 C 0.41339 0.04699 0.72243 0.0
Tb382 Tb 0.39036 0.00318 0.73697 0.0
O383 O 0.45731 0.98796 0.71281 0.0
O384 O 0.42192 0.00486 0.69601 0.0
O385 O 0.42981 0.03723 0.74455 0.0
C386 C 0.33794 1.0003 0.72677 0.0
O387 O 0.39445 0.03442 0.71011 0.0
C388 C 0.39028 0.0073 0.80779 0.0
C389 C 0.40331 0.95497 0.7342 0.0
O390 O 0.35157 0.01872 0.72753 0.0
O391 O 0.35396 0.98356 0.72953 0.0
O392 O 0.38425 0.02286 0.78583 0.0
O393 O 0.40005 0.99166 0.78958 0.0
O394 O 0.38945 0.96949 0.71671 0.0
O395 O 0.42069 0.9635 0.75623 0.0
C396 C 0.46847 0.00774 0.79832 0.0
O397 O 0.46836 0.99147 0.77601 0.0
O398 O 0.44754 0.01984 0.79334 0.0
C399 C 0.44397 0.99536 0.68629 0.0
Tb400 Tb 0.13387 0.99638 0.48055 0.0
C401 C 0.14318 0.04632 0.48081 0.0
Tb402 Tb 0.17604 0.0039 0.49603 0.0
O403 O 0.12636 0.97859 0.53042 0.0
O404 O 0.14372 0.00954 0.53214 0.0
O405 O 0.12928 0.03102 0.46446 0.0
C406 C 0.21213 0.99731 0.54463 0.0
O407 O 0.16308 0.03922 0.5003 0.0
C408 C 0.18468 0.00944 0.42907 0.0
C409 C 0.16604 0.95499 0.46743 0.0
O410 O 0.21381 0.01294 0.52103 0.0
O411 O 0.19115 0.98514 0.53962 0.0
O412 O 0.19723 0.01989 0.45392 0.0
O413 O 0.1666 0.9961 0.44165 0.0
O414 O 0.1826 0.96739 0.48603 0.0
O415 O 0.14382 0.96443 0.45773 0.0
C416 C 0.08235 0.99253 0.4655 0.0
O417 O 0.09791 0.97616 0.47336 0.0
O418 O 0.09603 0.01091 0.464 0.0
C419 C 0.13374 0.99428 0.55133 0.0
Tb420 Tb 0.56529 0.76001 0.4917 0.0
C421 C 0.56617 0.70976 0.49286 0.0
Tb422 Tb 0.52232 0.7451 0.50278 0.0
O423 O 0.56799 0.77772 0.54171 0.0
O424 O 0.55327 0.74559 0.54226 0.0
O425 O 0.57547 0.72635 0.47403 0.0
C426 C 0.47594 0.7302 0.52837 0.0
O427 O 0.54586 0.71454 0.51316 0.0
C428 C 0.52313 0.74369 0.433 0.0
C429 C 0.52519 0.79688 0.48594 0.0
O430 O 0.49105 0.7197 0.50692 0.0
O431 O 0.4868 0.74941 0.53557 0.0
O432 O 0.51427 0.72827 0.45356 0.0
O433 O 0.53356 0.75912 0.45188 0.0
O434 O 0.51112 0.78154 0.50321 0.0
O435 O 0.54816 0.79081 0.47305 0.0
C436 C 0.61655 0.76959 0.48052 0.0
O437 O 0.59746 0.78402 0.48029 0.0
O438 O 0.60658 0.74979 0.48454 0.0
C439 C 0.5604 0.76172 0.56197 0.0
Tb440 Tb 0.14094 0.75778 0.38267 0.0
C441 C 0.14358 0.70716 0.38329 0.0
Tb442 Tb 0.18546 0.74576 0.36754 0.0
O443 O 0.1355 0.77664 0.33346 0.0
O444 O 0.15308 0.74597 0.33061 0.0
O445 O 0.12883 0.72374 0.39445 0.0
C446 C 0.22808 0.72636 0.33969 0.0
O447 O 0.16702 0.71189 0.36923 0.0
C448 C 0.19171 0.75445 0.43485 0.0
C449 C 0.17891 0.79589 0.38509 0.0
O450 O 0.21402 0.71826 0.36482 0.0
O451 O 0.21809 0.74535 0.32984 0.0
O452 O 0.20884 0.75849 0.41056 0.0
O453 O 0.17057 0.7455 0.42123 0.0
O454 O 0.18997 0.78297 0.36112 0.0
O455 O 0.15997 0.78694 0.40362 0.0
C456 C 0.09273 0.77166 0.40167 0.0
O457 O 0.11461 0.78291 0.40493 0.0
O458 O 0.09799 0.752 0.38931 0.0
C459 C 0.14469 0.76208 0.31196 0.0
Tb460 Tb 0.58038 0.98939 0.38491 0.0
C461 C 0.58123 0.04013 0.37988 0.0
Tb462 Tb 0.53702 0.00406 0.37519 0.0
O463 O 0.58237 0.97213 0.33451 0.0
O464 O 0.56752 0.00402 0.33487 0.0
O465 O 0.59276 0.02375 0.39693 0.0
C466 C 0.48941 0.01644 0.35151 0.0
O467 O 0.55914 0.03513 0.363 0.0
C468 C 0.54025 0.00621 0.4448 0.0
C469 C 0.5396 0.95258 0.39342 0.0
O470 O 0.50395 0.02761 0.37299 0.0
O471 O 0.50156 0.99813 0.34308 0.0
O472 O 0.53141 0.02169 0.42445 0.0
O473 O 0.54929 0.99044 0.42557 0.0
O474 O 0.52525 0.96765 0.37634 0.0
O475 O 0.56276 0.9591 0.40539 0.0
C476 C 0.63013 0.97585 0.39681 0.0
O477 O 0.61074 0.96333 0.3865 0.0
O478 O 0.62136 0.99593 0.4022 0.0
C479 C 0.57437 0.9881 0.31467 0.0
Tb480 Tb 0.78163 0.49587 0.12296 0.0
C481 C 0.783 0.54571 0.14392 0.0
Tb482 Tb 0.82427 0.51078 0.13926 0.0
O483 O 0.75473 0.50515 0.164 0.0
O484 O 0.79476 0.49725 0.17763 0.0
O485 O 0.77372 0.53275 0.11871 0.0
C486 C 0.87033 0.52977 0.1579 0.0
O487 O 0.80236 0.53759 0.16243 0.0
C488 C 0.82117 0.51333 0.06834 0.0
C489 C 0.82584 0.45983 0.13931 0.0
O490 O 0.84794 0.53995 0.15412 0.0
O491 O 0.8667 0.50849 0.15291 0.0
O492 O 0.8276 0.52938 0.08909 0.0
O493 O 0.81494 0.49705 0.08791 0.0
O494 O 0.84014 0.47743 0.14826 0.0
O495 O 0.80119 0.46296 0.12818 0.0
C496 C 0.74444 0.4764 0.0846 0.0
O497 O 0.75195 0.46934 0.11484 0.0
O498 O 0.75703 0.4947 0.07667 0.0
C499 C 0.77155 0.50342 0.1894 0.0
Tb500 Tb 0.41786 0.75799 0.12321 0.0
C501 C 0.40996 0.71005 0.1476 0.0
Tb502 Tb 0.37667 0.75076 0.14025 0.0
O503 O 0.44627 0.75047 0.16292 0.0
O504 O 0.40764 0.76179 0.17862 0.0
O505 O 0.42125 0.7208 0.12141 0.0
C506 C 0.33177 0.72791 0.15387 0.0
O507 O 0.39273 0.72153 0.16541 0.0
C508 C 0.3748 0.75477 0.06961 0.0
C509 C 0.38228 0.79969 0.14561 0.0
O510 O 0.35311 0.71984 0.14034 0.0
O511 O 0.33583 0.74892 0.16089 0.0
O512 O 0.36164 0.76665 0.09168 0.0
O513 O 0.39062 0.74279 0.08745 0.0
O514 O 0.36674 0.78396 0.15789 0.0
O515 O 0.4038 0.79324 0.12862 0.0
C516 C 0.45146 0.77717 0.07878 0.0
O517 O 0.42636 0.78136 0.08119 0.0
O518 O 0.45794 0.76188 0.10128 0.0
C519 C 0.43099 0.75499 0.18917 0.0
Tb520 Tb 0.77479 0.75363 0.25476 0.0
C521 C 0.78594 0.70407 0.22905 0.0
Tb522 Tb 0.81775 0.74597 0.23907 0.0
O523 O 0.75577 0.76978 0.21119 0.0
O524 O 0.78457 0.74462 0.20095 0.0
O525 O 0.76947 0.71647 0.24782 0.0
C526 C 0.86939 0.74436 0.22313 0.0
O527 O 0.80768 0.71376 0.21779 0.0
C528 C 0.81638 0.7441 0.30989 0.0
C529 C 0.80811 0.79565 0.23778 0.0
O530 O 0.85433 0.72715 0.22889 0.0
O531 O 0.85518 0.76228 0.2248 0.0
O532 O 0.82364 0.72815 0.28948 0.0
O533 O 0.80752 0.75939 0.29012 0.0
O534 O 0.8209 0.78028 0.2204 0.0
O535 O 0.78936 0.78855 0.25915 0.0
C536 C 0.73464 0.75311 0.29965 0.0
O537 O 0.73644 0.76621 0.27287 0.0
O538 O 0.75479 0.73971 0.29989 0.0
C539 C 0.76774 0.75836 0.18716 0.0
Tb540 Tb 0.42263 0.4996 0.25078 0.0
C541 C 0.40394 0.54633 0.21988 0.0
Tb542 Tb 0.37993 0.50162 0.23525 0.0
O543 O 0.44664 0.48561 0.20988 0.0
O544 O 0.41229 0.5051 0.19614 0.0
O545 O 0.42272 0.53604 0.23781 0.0
C546 C 0.32847 0.49286 0.22525 0.0
O547 O 0.38281 0.53453 0.21175 0.0
C548 C 0.37992 0.50682 0.30535 0.0
C549 C 0.39869 0.45389 0.233 0.0
O550 O 0.33954 0.51236 0.22149 0.0
O551 O 0.34653 0.47822 0.2319 0.0
O552 O 0.37062 0.52085 0.28296 0.0
O553 O 0.39174 0.49177 0.28783 0.0
O554 O 0.38395 0.46786 0.21533 0.0
O555 O 0.41548 0.46296 0.2554 0.0
C556 C 0.45619 0.51463 0.29802 0.0
O557 O 0.46093 0.49743 0.27806 0.0
O558 O 0.43346 0.52331 0.29044 0.0
C559 C 0.43243 0.49381 0.18454 0.0
Tb560 Tb 0.13064 0.50345 0.98548 0.0
C561 C 0.14824 0.55086 0.9853 0.0
Tb562 Tb 0.17154 0.50455 1.00131 0.0
O563 O 0.12089 0.48372 1.03301 0.0
O564 O 0.14152 0.51308 1.03867 0.0
O565 O 0.13438 0.53723 0.96596 0.0
C566 C 0.20497 0.48917 1.04836 0.0
O567 O 0.16433 0.54116 1.00786 0.0
C568 C 0.18515 0.50981 0.93611 0.0
C569 C 0.15119 0.45856 0.97026 0.0
O570 O 0.20961 0.50675 1.02903 0.0
O571 O 0.18229 0.48032 1.04045 0.0
O572 O 0.19902 0.5165 0.96279 0.0
O573 O 0.16274 0.50059 0.9456 0.0
O574 O 0.16904 0.46785 0.99088 0.0
O575 O 0.13194 0.47145 0.95961 0.0
C576 C 0.0792 0.51214 0.97591 0.0
O577 O 0.08991 0.49253 0.9733 0.0
O578 O 0.09759 0.52687 0.98105 0.0
C579 C 0.12947 0.49788 1.05575 0.0
Tb580 Tb 0.56551 0.25324 0.98176 0.0
C581 C 0.56254 0.20267 0.98058 0.0
Tb582 Tb 0.52124 0.24139 0.99507 0.0
O583 O 0.5698 0.2723 1.03083 0.0
O584 O 0.55267 0.24122 1.03345 0.0
O585 O 0.57732 0.21933 0.96935 0.0
C586 C 0.47771 0.22165 1.02061 0.0
O587 O 0.5391 0.2074 0.99436 0.0
C588 C 0.51563 0.25075 0.92786 0.0
C589 C 0.52878 0.29169 0.97797 0.0
O590 O 0.49238 0.21386 0.99597 0.0
O591 O 0.48754 0.24061 1.03123 0.0
O592 O 0.49841 0.25448 0.95205 0.0
O593 O 0.53666 0.24172 0.94151 0.0
O594 O 0.51703 0.27862 1.00144 0.0
O595 O 0.54811 0.28282 0.96025 0.0
C596 C 0.61545 0.265 0.96668 0.0
O597 O 0.59461 0.27713 0.96116 0.0
O598 O 0.60809 0.24572 0.97884 0.0
C599 C 0.56094 0.25737 1.05216 0.0
Tb600 Tb 0.13893 0.25042 0.87706 0.0
C601 C 0.15586 0.20339 0.87629 0.0
Tb602 Tb 0.17925 0.25028 0.861 0.0
O603 O 0.1287 0.26949 0.82892 0.0
O604 O 0.14965 0.24053 0.82376 0.0
O605 O 0.14229 0.2167 0.89621 0.0
C606 C 0.21207 0.26688 0.81381 0.0
O607 O 0.17175 0.21353 0.85374 0.0
C608 C 0.19392 0.24523 0.92588 0.0
C609 C 0.15748 0.29566 0.89231 0.0
O610 O 0.21699 0.24903 0.83233 0.0
O611 O 0.18946 0.2753 0.82268 0.0
O612 O 0.2075 0.23883 0.89883 0.0
O613 O 0.17121 0.25398 0.91686 0.0
O614 O 0.17508 0.2871 0.8707 0.0
O615 O 0.1394 0.28193 0.90394 0.0
C616 C 0.08743 0.24229 0.88838 0.0
O617 O 0.0984 0.26193 0.88779 0.0
O618 O 0.10561 0.22726 0.88508 0.0
C619 C 0.1374 0.25533 0.80635 0.0
Tb620 Tb 0.576 0.49351 0.89102 0.0
C621 C 0.56874 0.54376 0.88957 0.0
Tb622 Tb 0.53315 0.50192 0.87553 0.0
O623 O 0.58153 0.47638 0.84018 0.0
O624 O 0.5659 0.50779 0.84027 0.0
O625 O 0.58345 0.52834 0.90439 0.0
C626 C 0.49586 0.49825 0.82752 0.0
O627 O 0.54753 0.53697 0.87206 0.0
C628 C 0.52475 0.50649 0.94247 0.0
C629 C 0.54137 0.45289 0.90298 0.0
O630 O 0.496 0.51337 0.85182 0.0
O631 O 0.51586 0.48494 0.83144 0.0
O632 O 0.51144 0.51641 0.91789 0.0
O633 O 0.54322 0.4938 0.9297 0.0
O634 O 0.52614 0.46513 0.8825 0.0
O635 O 0.56283 0.46258 0.91498 0.0
C636 C 0.62607 0.48287 0.90683 0.0
O637 O 0.60867 0.46973 0.89303 0.0
O638 O 0.6152 0.50219 0.91273 0.0
C639 C 0.57469 0.4927 0.82018 0.0
C640 C 0.35372 0.83081 0.16976 0.0
C641 C 0.37478 0.82393 0.14814 0.0
C642 C 0.34529 0.85338 0.17064 0.0
C643 C 0.35786 0.86961 0.14899 0.0
C644 C 0.3794 0.86281 0.12749 0.0
C645 C 0.38769 0.84019 0.12752 0.0
C646 C 0.32253 0.85979 0.19434 0.0
C647 C 0.39324 0.87934 0.10363 0.0
C648 C 0.31786 0.92156 0.12249 0.0
C649 C 0.32893 0.93848 0.14357 0.0
C650 C 0.32707 0.89925 0.12402 0.0
C651 C 0.34771 0.89338 0.14757 0.0
C652 C 0.35869 0.91029 0.16935 0.0
C653 C 0.34935 0.9326 0.16692 0.0
C654 C 0.3149 0.88199 0.09997 0.0
C655 C 0.38042 0.90484 0.19518 0.0
H656 H 0.34361 0.81846 0.18588 0.0
H657 H 0.40387 0.83513 0.11055 0.0
H658 H 0.32853 0.87409 0.21112 0.0
H659 H 0.30523 0.86537 0.17856 0.0
H660 H 0.316 0.84563 0.21123 0.0
H661 H 0.41017 0.87165 0.08934 0.0
H662 H 0.37874 0.88597 0.08438 0.0
H663 H 0.40088 0.89384 0.11878 0.0
H664 H 0.30222 0.92582 0.10416 0.0
H665 H 0.35807 0.94545 0.18338 0.0
H666 H 0.30608 0.86803 0.11537 0.0
H667 H 0.33065 0.87468 0.08317 0.0
H668 H 0.29911 0.88919 0.08304 0.0
H669 H 0.37362 0.89125 0.21293 0.0
H670 H 0.38632 0.91963 0.21104 0.0
H671 H 0.39831 0.89858 0.18128 0.0
C672 C 0.82407 0.41857 0.12443 0.0
C673 C 0.83782 0.43679 0.13938 0.0
C674 C 0.83556 0.39701 0.12262 0.0
C675 C 0.86149 0.39328 0.13633 0.0
C676 C 0.87542 0.41156 0.15164 0.0
C677 C 0.86353 0.43302 0.15282 0.0
C678 C 0.81988 0.37816 0.10598 0.0
C679 C 0.90288 0.40842 0.16704 0.0
C680 C 0.87747 0.33276 0.16209 0.0
C681 C 0.89257 0.32501 0.13369 0.0
C682 C 0.86796 0.35494 0.16363 0.0
C683 C 0.87339 0.37005 0.13598 0.0
C684 C 0.88926 0.36258 0.10762 0.0
C685 C 0.89873 0.34021 0.10685 0.0
C686 C 0.85135 0.36197 0.19453 0.0
C687 C 0.89543 0.37798 0.07744 0.0
H688 H 0.80431 0.42119 0.11368 0.0
H689 H 0.87446 0.44688 0.16435 0.0
H690 H 0.83166 0.37061 0.08455 0.0
H691 H 0.81602 0.36472 0.12539 0.0
H692 H 0.80044 0.3839 0.09535 0.0
H693 H 0.91132 0.42431 0.17752 0.0
H694 H 0.90197 0.39587 0.18839 0.0
H695 H 0.91669 0.40179 0.14701 0.0
H696 H 0.87253 0.32125 0.18304 0.0
H697 H 0.91012 0.33442 0.08465 0.0
H698 H 0.83068 0.36568 0.18594 0.0
H699 H 0.85962 0.37755 0.20616 0.0
H700 H 0.85044 0.34878 0.215 0.0
H701 H 0.87662 0.38257 0.06398 0.0
H702 H 0.9091 0.37014 1.05825 0.0
H703 H 0.90467 0.39378 0.08698 0.0
C704 C 0.37541 0.4215 0.20418 0.0
C705 C 0.39395 0.42913 0.22909 0.0
C706 C 0.3682 0.3987 0.20149 0.0
C707 C 0.37979 0.3827 0.22416 0.0
C708 C 0.39921 0.3901 0.24867 0.0
C709 C 0.40604 0.41318 0.25089 0.0
C710 C 0.3473 0.3919 0.17512 0.0
C711 C 0.41211 0.37372 0.2734 0.0
C712 C 0.33671 0.33078 0.2423 0.0
C713 C 0.34778 0.31443 0.22025 0.0
C714 C 0.34738 0.35265 0.24443 0.0
C715 C 0.36979 0.35875 0.2239 0.0
C716 C 0.38127 0.34233 0.20172 0.0
C717 C 0.37021 0.3204 0.20021 0.0
C718 C 0.33431 0.36939 0.26843 0.0
C719 C 0.40504 0.34803 0.17922 0.0
H720 H 0.36585 0.43352 0.18707 0.0
H721 H 0.4203 0.41878 0.27026 0.0
H722 H 0.35477 0.37795 0.15877 0.0
H723 H 0.32917 0.38573 0.18879 0.0
H724 H 0.34148 0.40604 0.15786 0.0
H725 H 0.42845 0.3816 0.28874 0.0
H726 H 0.39688 0.36703 0.29171 0.0
H727 H 0.4203 0.35924 0.25883 0.0
H728 H 0.31951 0.32651 0.25815 0.0
H729 H 0.37906 0.30799 0.18322 0.0
H730 H 0.3261 0.38352 0.253 0.0
H731 H 0.34931 0.37653 0.28662 0.0
H732 H 0.31784 0.36178 0.28392 0.0
H733 H 0.39953 0.36128 0.16024 0.0
H734 H 0.41252 0.33324 0.16468 0.0
H735 H 0.42148 0.35485 0.19549 0.0
C736 C 0.83467 0.8266 0.20936 0.0
C737 C 0.81641 0.81977 0.23514 0.0
C738 C 0.84411 0.84889 0.2074 0.0
C739 C 0.83543 0.86496 0.23205 0.0
C740 C 0.81679 0.85824 0.25799 0.0
C741 C 0.80742 0.83582 0.2591 0.0
C742 C 0.86367 0.85519 0.17906 0.0
C743 C 0.80715 0.87465 0.28503 0.0
C744 C 0.88022 0.91644 0.24723 0.0
C745 C 0.86694 0.93331 0.2285 0.0
C746 C 0.8701 0.8943 0.24885 0.0
C747 C 0.84621 0.88863 0.23096 0.0
C748 C 0.83291 0.90553 0.21163 0.0
C749 C 0.84329 0.92761 0.21083 0.0
C750 C 0.88489 0.87699 0.27003 0.0
C751 C 0.80766 0.9003 0.19173 0.0
H752 H 0.84179 0.81441 0.19065 0.0
H753 H 0.79348 0.83076 0.27927 0.0
H754 H 0.85579 0.86944 0.16359 0.0
H755 H 0.88281 0.8608 0.1908 0.0
H756 H 0.86781 0.84099 0.16118 0.0
H757 H 0.79242 0.86698 0.30318 0.0
H758 H 0.82436 0.88102 0.30037 0.0
H759 H 0.7978 0.88934 0.27218 0.0
H760 H 0.89836 0.92062 0.26122 0.0
H761 H 0.83281 0.94045 0.19629 0.0
H762 H 0.89111 0.86289 0.25309 0.0
H763 H 0.8715 0.86991 0.29034 0.0
H764 H 0.90292 0.88408 0.28289 0.0
H765 H 0.81146 0.88675 0.17259 0.0
H766 H 0.79982 0.91518 0.17764 0.0
H767 H 0.79202 0.89407 0.20984 0.0
C768 C 0.64043 0.08485 1.00224 0.0
C769 C 0.62968 0.06775 0.98129 0.0
C770 C 0.62942 0.10668 1.00235 0.0
C771 C 0.60741 0.11184 0.98043 0.0
C772 C 0.5969 0.09473 0.95869 0.0
C773 C 0.60791 0.07296 0.95967 0.0
C774 C 0.64104 0.12415 1.02646 0.0
C775 C 0.57392 0.09938 0.93432 0.0
C776 C 0.56237 0.16224 1.00103 0.0
C777 C 0.57304 0.17914 0.9795 0.0
C778 C 0.57344 0.14045 1.00186 0.0
C779 C 0.59545 0.13509 0.98009 0.0
C780 C 0.6059 0.15199 0.95778 0.0
C781 C 0.59483 0.17374 0.95805 0.0
C782 C 0.56185 0.12323 1.02653 0.0
C783 C 0.62884 0.14709 0.93351 0.0
H784 H 0.65703 0.08102 1.01932 0.0
H785 H 0.5994 0.05996 0.94331 0.0
H786 H 0.64836 0.13876 1.01122 0.0
H787 H 0.62531 0.13035 1.04432 0.0
H788 H 0.65783 0.11749 1.04226 0.0
H789 H 0.56856 0.08453 0.91828 0.0
H790 H 0.55609 0.10449 0.94944 0.0
H791 H 0.57912 0.11352 0.91669 0.0
H792 H 0.54573 0.1662 1.01796 0.0
H793 H 0.60326 0.18658 0.94123 0.0
H794 H 0.5776 0.11723 1.04457 0.0
H795 H 0.55455 0.10844 1.01176 0.0
H796 H 0.54506 0.13003 1.04213 0.0
H797 H 0.64668 0.14211 0.94873 0.0
H798 H 0.6342 0.16178 0.91702 0.0
H799 H 0.62361 0.13279 0.9163 0.0
C800 C 0.07753 0.67119 1.00325 0.0
C801 C 0.09012 0.6884 0.98421 0.0
C802 C 0.08827 0.6493 1.00469 0.0
C803 C 0.11229 0.64429 0.98668 0.0
C804 C 0.12515 0.66165 0.96759 0.0
C805 C 0.11398 0.68335 0.96659 0.0
C806 C 0.07373 0.63142 1.02524 0.0
C807 C 0.15062 0.65723 0.9478 0.0
C808 C 0.15066 0.5904 1.0103 0.0
C809 C 0.14171 0.57541 0.98461 0.0
C810 C 0.14156 0.6129 1.01117 0.0
C811 C 0.12299 0.62065 0.98588 0.0
C812 C 0.11437 0.60564 0.9596 0.0
C813 C 0.12383 0.58344 0.95924 0.0
C814 C 0.15137 0.62827 1.03963 0.0
C815 C 0.09462 0.61287 0.93209 0.0
H816 H 0.05922 0.67482 1.01715 0.0
H817 H 0.12406 0.69643 0.95191 0.0
H818 H 0.06714 0.61776 1.00756 0.0
H819 H 0.08737 0.62385 1.04472 0.0
H820 H 0.05595 0.63811 1.03898 0.0
H821 H 0.15887 0.67267 0.9355 0.0
H822 H 0.16592 0.65013 0.96551 0.0
H823 H 0.14684 0.64462 0.92714 0.0
H824 H 0.16422 0.58443 1.03021 0.0
H825 H 0.11662 0.57213 0.93922 0.0
H826 H 0.1343 0.63364 1.05598 0.0
H827 H 0.16034 0.64366 1.02812 0.0
H828 H 0.16644 0.62009 1.05659 0.0
H829 H 0.07563 0.61803 0.94457 0.0
H830 H 0.09015 0.5993 0.91312 0.0
H831 H 0.1025 0.62763 0.91768 0.0
C832 C 0.63841 0.66551 0.8701 0.0
C833 C 0.62548 0.68228 0.88936 0.0
C834 C 0.62891 0.64314 0.8699 0.0
C835 C 0.60611 0.63712 0.88989 0.0
C836 C 0.59323 0.65394 0.90978 0.0
C837 C 0.60288 0.67624 0.90903 0.0
C838 C 0.64313 0.62595 0.84793 0.0
C839 C 0.5692 0.64837 0.93197 0.0
C840 C 0.56674 0.58363 0.867 0.0
C841 C 0.57724 0.56789 0.89051 0.0
C842 C 0.57596 0.6061 0.86641 0.0
C843 C 0.59591 0.61325 0.89027 0.0
C844 C 0.60617 0.59751 0.9145 0.0
C845 C 0.59692 0.5751 0.91412 0.0
C846 C 0.56465 0.62211 0.8398 0.0
C847 C 0.62705 0.60432 0.94084 0.0
H848 H 0.65575 0.66994 0.85459 0.0
H849 H 0.59271 0.68897 0.92408 0.0
H850 H 0.65063 0.61215 0.86465 0.0
H851 H 0.62897 0.61841 0.82901 0.0
H852 H 0.66025 0.63331 0.83337 0.0
H853 H 0.56171 0.66319 0.94644 0.0
H854 H 0.55283 0.64174 0.91541 0.0
H855 H 0.57436 0.63503 0.95099 0.0
H856 H 0.5517 0.57828 0.84846 0.0
H857 H 0.60518 0.56316 0.93248 0.0
H858 H 0.58096 0.62874 0.82306 0.0
H859 H 0.55543 0.63668 0.85304 0.0
H860 H 0.54938 0.61402 0.82294 0.0
H861 H 0.64539 0.61012 0.92728 0.0
H862 H 0.63242 0.59032 0.95863 0.0
H863 H 0.61968 0.61857 0.95665 0.0
C864 C 0.15554 0.16448 0.84866 0.0
C865 C 0.14856 0.17893 0.87599 0.0
C866 C 0.14503 0.14234 0.84685 0.0
C867 C 0.12694 0.13447 0.87277 0.0
C868 C 0.12043 0.14889 0.90074 0.0
C869 C 0.13136 0.17066 0.90209 0.0
C870 C 0.15276 0.12754 0.81672 0.0
C871 C 0.10124 0.14155 0.92897 0.0
C872 C 0.07671 0.08674 0.85596 0.0
C873 C 0.08824 0.06868 0.87399 0.0
C874 C 0.08944 0.10797 0.85439 0.0
C875 C 0.11449 0.11136 0.871 0.0
C876 C 0.12645 0.09302 0.88855 0.0
C877 C 0.11322 0.07206 0.88993 0.0
C878 C 0.07571 0.12698 0.83565 0.0
C879 C 0.15306 0.09565 0.9066 0.0
H880 H 0.16854 0.17066 0.82818 0.0
H881 H 0.12569 0.18153 0.92342 0.0
H882 H 0.16063 0.11133 0.82648 0.0
H883 H 0.13485 0.12369 0.80077 0.0
H884 H 0.16807 0.13553 0.79976 0.0
H885 H 0.09839 0.15465 0.94916 0.0
H886 H 0.0815 0.13752 0.91737 0.0
H887 H 0.10862 0.12608 0.94179 0.0
H888 H 0.05752 0.08439 0.84342 0.0
H889 H 0.12253 0.05827 0.90373 0.0
H890 H 0.08936 0.13453 0.81606 0.0
H891 H 0.07055 0.14036 0.85451 0.0
H892 H 0.05714 0.12141 0.82233 0.0
H893 H 0.16803 0.10288 0.8884 0.0
H894 H 0.16074 0.07944 0.91675 0.0
H895 H 0.15108 0.1075 0.92868 0.0
C896 C 0.39496 0.34145 0.60956 0.0
C897 C 0.38497 0.32509 0.63256 0.0
C898 C 0.38469 0.36358 0.60943 0.0
C899 C 0.36387 0.3696 0.63278 0.0
C900 C 0.35406 0.35318 0.65631 0.0
C901 C 0.36468 0.33133 0.65594 0.0
C902 C 0.39579 0.38045 0.58386 0.0
C903 C 0.33195 0.35855 0.68168 0.0
C904 C 0.35136 0.43123 0.65615 0.0
C905 C 0.32886 0.43658 0.6359 0.0
C906 C 0.36314 0.40977 0.65493 0.0
C907 C 0.35229 0.39296 0.63291 0.0
C908 C 0.32959 0.39826 0.61232 0.0
C909 C 0.3182 0.41992 0.61403 0.0
C910 C 0.38716 0.40506 0.67749 0.0
C911 C 0.31725 0.38097 0.58851 0.0
H912 H 0.41039 0.33685 0.59116 0.0
H913 H 0.35659 0.31893 0.67379 0.0
H914 H 0.37968 0.38621 0.56618 0.0
H915 H 0.40336 0.39544 0.59792 0.0
H916 H 0.41225 0.37342 0.56792 0.0
H917 H 0.32674 0.34404 0.69861 0.0
H918 H 0.33797 0.37285 0.69844 0.0
H919 H 0.31378 0.3637 0.66727 0.0
H920 H 0.35997 0.44391 0.67301 0.0
H921 H 0.30098 0.42383 0.59808 0.0
H922 H 0.40394 0.39895 0.66127 0.0
H923 H 0.38226 0.39161 0.69649 0.0
H924 H 0.39397 0.42015 0.69202 0.0
H925 H 0.33249 0.3746 0.57008 0.0
H926 H 0.30023 0.38782 0.57335 0.0
H927 H 0.31002 0.36642 0.60399 0.0
C928 C 0.85182 0.93092 0.66606 0.0
C929 C 0.83009 0.93605 0.64437 0.0
C930 C 0.86216 0.90893 0.66798 0.0
C931 C 0.85078 0.89159 0.64741 0.0
C932 C 0.82875 0.89668 0.62563 0.0
C933 C 0.81864 0.91871 0.62453 0.0
C934 C 0.88542 0.90429 0.69187 0.0
C935 C 0.81605 0.87888 0.60301 0.0
C936 C 0.8917 0.83944 0.62461 0.0
C937 C 0.88064 0.82306 0.64675 0.0
C938 C 0.88253 0.86181 0.62496 0.0
C939 C 0.86194 0.86817 0.64829 0.0
C940 C 0.85127 0.85185 0.67141 0.0
C941 C 0.86059 0.82956 0.67022 0.0
C942 C 0.89437 0.87849 0.59962 0.0
C943 C 0.82957 0.85783 0.697 0.0
H944 H 0.86086 0.94413 0.6815 0.0
H945 H 0.80196 0.92242 0.6075 0.0
H946 H 0.88015 0.89064 0.71036 0.0
H947 H 0.90279 0.89847 0.67646 0.0
H948 H 0.89152 0.91936 0.70697 0.0
H949 H 0.79907 0.88548 0.58752 0.0
H950 H 0.83114 0.87194 0.58487 0.0
H951 H 0.80871 0.86479 0.61938 0.0
H952 H 0.90708 0.83466 0.60625 0.0
H953 H 0.85191 0.81711 0.68752 0.0
H954 H 0.90216 0.89336 0.61378 0.0
H955 H 0.87863 0.88451 0.58158 0.0
H956 H 0.91084 0.87118 0.584 0.0
H957 H 0.83587 0.87242 0.71297 0.0
H958 H 0.8245 0.84364 0.71465 0.0
H959 H 0.81127 0.8628 0.68271 0.0
C960 C 0.37949 0.92318 0.70477 0.0
C961 C 0.39658 0.93054 0.73152 0.0
C962 C 0.37013 0.90089 0.70322 0.0
C963 C 0.37784 0.88528 0.72916 0.0
C964 C 0.39573 0.89238 0.75572 0.0
C965 C 0.40494 0.91488 0.75654 0.0
C966 C 0.35126 0.89425 0.6743 0.0
C967 C 0.40443 0.87639 0.78398 0.0
C968 C 0.32974 0.83617 0.74519 0.0
C969 C 0.34206 0.81842 0.72739 0.0
C970 C 0.34136 0.85776 0.74643 0.0
C971 C 0.36597 0.86198 0.72928 0.0
C972 C 0.37847 0.84417 0.71108 0.0
C973 C 0.36645 0.82266 0.71046 0.0
C974 C 0.32723 0.8761 0.76616 0.0
C975 C 0.40452 0.84788 0.69213 0.0
H976 H 0.37288 0.93504 0.68519 0.0
H977 H 0.41797 0.92037 0.77742 0.0
H978 H 0.35885 0.87919 0.66062 0.0
H979 H 0.33147 0.8898 0.68539 0.0
H980 H 0.34849 0.90792 0.65494 0.0
H981 H 0.4196 0.88399 0.80153 0.0
H982 H 0.38686 0.87127 0.79978 0.0
H983 H 0.41284 0.86094 0.77234 0.0
H984 H 0.31102 0.83315 0.75863 0.0
H985 H 0.37627 0.80912 0.69677 0.0
H986 H 0.32195 0.88997 0.74814 0.0
H987 H 0.34069 0.88321 0.78631 0.0
H988 H 0.30869 0.87 0.77903 0.0
H989 H 0.40195 0.8609 0.67172 0.0
H990 H 0.41197 0.8323 0.67968 0.0
H991 H 0.41992 0.85416 0.71049 0.0
C992 C 0.8174 0.33692 0.75324 0.0
C993 C 0.82816 0.32038 0.73139 0.0
C994 C 0.82879 0.35869 0.7551 0.0
C995 C 0.85158 0.36421 0.73469 0.0
C996 C 0.86252 0.34752 0.7127 0.0
C997 C 0.85075 0.32598 0.71132 0.0
C998 C 0.81633 0.37586 0.77884 0.0
C999 C 0.88664 0.35246 0.69031 0.0
C1000 C 0.8645 0.42572 0.71079 0.0
C1001 C 0.88482 0.4322 0.73411 0.0
C1002 C 0.85358 0.4039 0.71091 0.0
C1003 C 0.86315 0.38769 0.7348 0.0
C1004 C 0.88394 0.39393 0.75815 0.0
C1005 C 0.89447 0.41607 0.7576 0.0
C1006 C 0.83149 0.3983 0.68554 0.0
C1007 C 0.89484 0.37726 0.78404 0.0
H1008 H 0.80012 0.33284 0.76906 0.0
H1009 H 0.85944 0.31342 0.69444 0.0
H1010 H 0.83147 0.38233 0.79741 0.0
H1011 H 0.8092 0.39036 0.76331 0.0
H1012 H 0.79923 0.36885 0.79383 0.0
H1013 H 0.8935 0.33745 0.67577 0.0
H1014 H 0.88181 0.36589 0.67131 0.0
H1015 H 0.90335 0.3587 0.70667 0.0
H1016 H 0.85664 0.43793 0.69256 0.0
H1017 H 0.90993 0.42084 0.77593 0.0
H1018 H 0.81335 0.39287 0.69992 0.0
H1019 H 0.8376 0.38412 0.6687 0.0
H1020 H 0.82618 0.41278 0.66868 0.0
H1021 H 0.87859 0.37136 0.80149 0.0
H1022 H 0.91112 0.38451 0.80019 0.0
H1023 H 0.90262 0.36232 0.7702 0.0
C1024 C 0.6188 0.58391 0.46306 0.0
C1025 C 0.63776 0.57614 0.48732 0.0
C1026 C 0.6082 0.60576 0.46462 0.0
C1027 C 0.61677 0.62079 0.49093 0.0
C1028 C 0.63644 0.61335 0.51505 0.0
C1029 C 0.6466 0.59116 0.51307 0.0
C1030 C 0.58724 0.61254 0.43841 0.0
C1031 C 0.64633 0.62871 0.54346 0.0
C1032 C 0.60291 0.68336 0.47397 0.0
C1033 C 0.57931 0.68708 0.49295 0.0
C1034 C 0.61567 0.66222 0.47392 0.0
C1035 C 0.60467 0.64402 0.49318 0.0
C1036 C 0.58098 0.64775 0.51268 0.0
C1037 C 0.56871 0.66912 0.5124 0.0
C1038 C 0.64079 0.65928 0.45274 0.0
C1039 C 0.56828 0.62901 0.53343 0.0
H1040 H 0.61159 0.57263 0.44302 0.0
H1041 H 0.661 0.58544 0.53215 0.0
H1042 H 0.56842 0.61686 0.45204 0.0
H1043 H 0.5939 0.62773 0.42402 0.0
H1044 H 0.58286 0.59903 0.41931 0.0
H1045 H 0.66249 0.62096 0.55916 0.0
H1046 H 0.65392 0.64463 0.53202 0.0
H1047 H 0.62957 0.63307 0.56104 0.0
H1048 H 0.61151 0.69704 0.459 0.0
H1049 H 0.5506 0.67168 0.52729 0.0
H1050 H 0.63706 0.64708 0.43147 0.0
H1051 H 0.65693 0.65232 0.46926 0.0
H1052 H 0.64787 0.67532 0.44106 0.0
H1053 H 0.56188 0.61534 0.51566 0.0
H1054 H 0.55063 0.63474 0.54846 0.0
H1055 H 0.58303 0.62177 0.55179 0.0
C1056 C 0.11477 0.07696 0.45548 0.0
C1057 C 0.13478 0.07041 0.47906 0.0
C1058 C 0.1051 0.09913 0.45447 0.0
C1059 C 0.11541 0.11541 0.4778 0.0
C1060 C 0.1358 0.10899 0.5015 0.0
C1061 C 0.14529 0.08665 0.50175 0.0
C1062 C 0.08361 0.10508 0.4285 0.0
C1063 C 0.14733 0.12567 0.52696 0.0
C1064 C 0.10642 0.17756 0.45471 0.0
C1065 C 0.08409 0.18362 0.47475 0.0
C1066 C 0.1168 0.15559 0.45556 0.0
C1067 C 0.10482 0.13907 0.47721 0.0
C1068 C 0.08226 0.14507 0.49751 0.0
C1069 C 0.07213 0.16716 0.49594 0.0
C1070 C 0.14063 0.15005 0.43314 0.0
C1071 C 0.06886 0.12814 0.52108 0.0
H1072 H 0.10643 0.06466 0.43775 0.0
H1073 H 0.16059 0.08181 0.52023 0.0
H1074 H 0.06552 0.11095 0.44237 0.0
H1075 H 0.09054 0.11906 0.41159 0.0
H1076 H 0.07797 0.09064 0.41175 0.0
H1077 H 0.16312 0.11819 0.54358 0.0
H1078 H 0.15595 0.14022 0.51273 0.0
H1079 H 0.13125 0.1322 0.544 0.0
H1080 H 0.11591 0.19007 0.43826 0.0
H1081 H 0.05503 0.17161 0.51174 0.0
H1082 H 0.13541 0.13632 0.41485 0.0
H1083 H 0.15728 0.14397 0.44965 0.0
H1084 H 0.14776 0.16474 0.41782 0.0
H1085 H 0.06133 0.11377 0.50552 0.0
H1086 H 0.05189 0.13546 0.53574 0.0
H1087 H 0.08355 0.12138 0.53997 0.0
C1088 C 0.65194 0.16313 0.35473 0.0
C1089 C 0.64252 0.17757 0.38081 0.0
C1090 C 0.64383 0.14028 0.35349 0.0
C1091 C 0.62578 0.13157 0.37882 0.0
C1092 C 0.61683 0.146 0.40561 0.0
C1093 C 0.6253 0.16858 0.40631 0.0
C1094 C 0.654 0.12559 0.3245 0.0
C1095 C 0.5976 0.13779 0.43319 0.0
C1096 C 0.58061 0.08067 0.36006 0.0
C1097 C 0.59318 0.06332 0.37863 0.0
C1098 C 0.59137 0.10265 0.35907 0.0
C1099 C 0.61544 0.10768 0.37706 0.0
C1100 C 0.62845 0.09014 0.39537 0.0
C1101 C 0.61723 0.0683 0.39595 0.0
C1102 C 0.5766 0.12066 0.3393 0.0
C1103 C 0.65404 0.09455 0.41502 0.0
H1104 H 0.66503 0.16981 0.33473 0.0
H1105 H 0.61776 0.17942 0.42666 0.0
H1106 H 0.66307 0.11014 0.33539 0.0
H1107 H 0.63707 0.12026 0.30774 0.0
H1108 H 0.66905 0.13434 0.30804 0.0
H1109 H 0.59314 0.15087 0.45291 0.0
H1110 H 0.57856 0.13248 0.42086 0.0
H1111 H 0.60593 0.12291 0.4467 0.0
H1112 H 0.5621 0.07715 0.34646 0.0
H1113 H 0.62727 0.05513 0.41029 0.0
H1114 H 0.59016 0.1289 0.32028 0.0
H1115 H 0.56972 0.1338 0.35762 0.0
H1116 H 0.55898 0.1139 0.32514 0.0
H1117 H 0.66904 0.10247 0.39758 0.0
H1118 H 0.66265 0.07895 0.42614 0.0
H1119 H 0.65021 0.10648 0.43657 0.0
C1120 C 0.11171 0.67804 0.40711 0.0
C1121 C 0.13327 0.68353 0.3852 0.0
C1122 C 0.10101 0.65609 0.4084 0.0
C1123 C 0.11164 0.63908 0.38671 0.0
C1124 C 0.13342 0.64453 0.36449 0.0
C1125 C 0.14411 0.66654 0.36428 0.0
C1126 C 0.07825 0.6511 0.43305 0.0
C1127 C 0.14516 0.62718 0.34044 0.0
C1128 C 0.09974 0.57702 0.40915 0.0
C1129 C 0.07797 0.57135 0.38775 0.0
C1130 C 0.11059 0.59894 0.40942 0.0
C1131 C 0.09992 0.61569 0.38718 0.0
C1132 C 0.07795 0.61004 0.36546 0.0
C1133 C 0.06711 0.5881 0.36628 0.0
C1134 C 0.13355 0.60418 0.4336 0.0
C1135 C 0.06614 0.6271 0.34087 0.0
H1136 H 0.10318 0.69095 0.4235 0.0
H1137 H 0.1606 0.67056 0.34705 0.0
H1138 H 0.06038 0.64569 0.41815 0.0
H1139 H 0.08371 0.63706 0.45066 0.0
H1140 H 0.07284 0.66588 0.44911 0.0
H1141 H 0.16183 0.63404 0.3245 0.0
H1142 H 0.15268 0.61272 0.35575 0.0
H1143 H 0.12944 0.62067 0.32271 0.0
H1144 H 0.1083 0.56429 0.42591 0.0
H1145 H 0.05048 0.58392 0.34939 0.0
H1146 H 0.12824 0.61841 0.45081 0.0
H1147 H 0.15131 0.60941 0.41829 0.0
H1148 H 0.13906 0.58957 0.45007 0.0
H1149 H 0.05866 0.64173 0.35571 0.0
H1150 H 0.04943 0.62005 0.32525 0.0
H1151 H 0.0818 0.63341 0.32283 0.0
C1152 C 0.27103 0.99417 0.2457 0.0
C1153 C 0.25913 0.00608 0.21802 0.0
C1154 C 0.25944 0.99366 0.27989 0.0
C1155 C 0.2353 0.00546 0.28745 0.0
C1156 C 0.22359 0.0177 0.25959 0.0
C1157 C 0.23539 0.01777 0.22589 0.0
C1158 C 0.27302 0.98028 0.30805 0.0
C1159 C 0.19835 0.03093 0.26533 0.0
C1160 C 0.18973 0.99151 0.36789 0.0
C1161 C 0.19676 0.00818 0.39234 0.0
C1162 C 0.20231 0.9901 0.33444 0.0
C1163 C 0.22258 0.00576 0.32423 0.0
C1164 C 0.22961 0.0226 0.34887 0.0
C1165 C 0.21691 0.02352 0.38206 0.0
C1166 C 0.19383 0.97171 0.30989 0.0
C1167 C 0.2506 0.03995 0.34007 0.0
H1168 H 0.28919 0.98493 0.24058 0.0
H1169 H 0.22576 0.02722 0.20531 0.0
H1170 H 0.27864 0.99149 0.32992 0.0
H1171 H 0.25901 0.96747 0.31858 0.0
H1172 H 0.29125 0.97172 0.29846 0.0
H1173 H 0.1916 0.03969 0.24137 0.0
H1174 H 0.18212 0.01957 0.27432 0.0
H1175 H 0.2016 0.04361 0.28604 0.0
H1176 H 0.17454 0.97933 0.37501 0.0
H1177 H 0.22287 0.03652 0.4002 0.0
H1178 H 0.21147 0.96176 0.30188 0.0
H1179 H 0.18517 0.97916 0.28595 0.0
H1180 H 0.17882 0.96022 0.32174 0.0
H1181 H 0.2696 0.03159 0.3331 0.0
H1182 H 0.25444 0.05169 0.36196 0.0
H1183 H 0.24419 0.04984 0.31705 0.0
C1184 C 0.02938 0.24728 0.35417 0.0
C1185 C 0.0149 0.24785 0.38563 0.0
C1186 C 0.01644 0.24876 0.32097 0.0
C1187 C -0.01179 0.2518 0.31841 0.0
C1188 C 0.97375 0.25303 0.35025 0.0
C1189 C -0.01301 0.25061 0.38286 0.0
C1190 C 0.03306 0.24657 0.28846 0.0
C1191 C 0.94405 0.25719 0.34999 0.0
C1192 C 0.95877 0.27688 0.23265 0.0
C1193 C 0.94605 0.25845 0.21652 0.0
C1194 C 0.97188 0.27506 0.2655 0.0
C1195 C 0.9738 0.25398 0.2829 0.0
C1196 C 0.96127 0.2352 0.26644 0.0
C1197 C 0.94731 0.23771 0.23417 0.0
C1198 C -0.01641 0.29593 0.28174 0.0
C1199 C 0.96317 0.21216 0.28253 0.0
H1200 H 0.0508 0.24494 0.35543 0.0
H1201 H 0.97531 0.25122 0.4066 0.0
H1202 H 0.02493 0.2329 0.27189 0.0
H1203 H 0.03208 0.2623 0.27305 0.0
H1204 H 0.05433 0.24294 0.29434 0.0
H1205 H 0.93578 0.25914 0.37664 0.0
H1206 H 0.93961 0.2726 0.33481 0.0
H1207 H 0.93357 0.24305 0.33708 0.0
H1208 H 0.95826 0.29301 0.21956 0.0
H1209 H 0.9382 0.22314 0.22207 0.0
H1210 H 0.00558 0.29434 0.28375 0.0
H1211 H 0.97575 0.29802 0.30857 0.0
H1212 H -0.02103 0.31129 0.26649 0.0
H1213 H -0.01556 0.20784 0.28701 0.0
H1214 H 0.95393 0.199 0.26592 0.0
H1215 H 0.95311 0.212 0.30825 0.0
C1216 C 0.19336 0.25044 0.99321 0.0
C1217 C 0.20742 0.24717 0.96179 0.0
C1218 C 0.20668 0.25164 1.02626 0.0
C1219 C 0.23513 0.25019 1.02875 0.0
C1220 C 0.2493 0.24718 0.997 0.0
C1221 C 0.23551 0.24543 0.96463 0.0
C1222 C 0.19015 0.25425 1.05876 0.0
C1223 C 0.2794 0.24608 0.99704 0.0
C1224 C 0.27171 0.2757 0.10966 0.0
C1225 C 0.27951 0.25683 0.12944 0.0
C1226 C 0.25778 0.27377 0.07735 0.0
C1227 C 0.25019 0.25238 0.06393 0.0
C1228 C 0.25794 0.23321 0.08389 0.0
C1229 C 0.27254 0.23562 0.11576 0.0
C1230 C 0.25121 0.29487 1.05742 0.0
C1231 C 0.2501 0.20997 0.07213 0.0
H1232 H 0.1718 0.25172 0.9921 0.0
H1233 H 0.24705 0.24301 0.94109 0.0
H1234 H 0.19488 0.24058 0.07742 0.0
H1235 H 0.19517 0.27035 0.07169 0.0
H1236 H 0.16838 0.25391 1.05321 0.0
H1237 H 0.28778 0.24424 0.97043 0.0
H1238 H 0.2878 0.26156 1.00891 0.0
H1239 H 0.28614 0.23171 1.01313 0.0
H1240 H 0.27657 0.29224 0.11958 0.0
H1241 H 0.27773 0.22078 0.13061 0.0
H1242 H 0.22925 0.29657 1.0549 0.0
H1243 H 0.25954 0.29387 1.03068 0.0
H1244 H 0.25925 0.31018 0.07022 0.0
H1245 H 0.22802 0.20828 0.07281 0.0
H1246 H 0.2589 0.19668 0.08885 0.0
H1247 H 0.2565 0.20715 1.04486 0.0
C1248 C 0.97134 0.99769 0.13894 0.0
C1249 C 0.94324 0.99924 0.14225 0.0
C1250 C -0.01508 0.9997 0.10646 0.0
C1251 C 0.97058 0.00306 0.07494 0.0
C1252 C 0.94212 0.00447 0.07784 0.0
C1253 C 0.92895 0.00278 0.11104 0.0
C1254 C 0.01502 0.9985 0.10607 0.0
C1255 C 0.92542 0.00769 1.04562 0.0
C1256 C 0.00836 0.02888 0.99477 0.0
C1257 C 0.01587 0.01009 0.97468 0.0
C1258 C -0.00612 0.02686 1.02674 0.0
C1259 C -0.01443 0.00547 1.03964 0.0
C1260 C -0.0071 0.98642 1.01927 0.0
C1261 C 0.00783 0.98893 0.98766 0.0
C1262 C -0.01243 0.04786 1.04694 0.0
C1263 C -0.01544 0.96319 1.03062 0.0
H1264 H -0.01687 0.99513 0.16224 0.0
H1265 H 0.9074 0.0041 0.11244 0.0
H1266 H 0.02159 0.98437 0.08943 0.0
H1267 H 0.02344 0.01414 0.09467 0.0
H1268 H 0.02355 0.99618 0.13252 0.0
H1269 H 0.90368 0.00744 1.0514 0.0
H1270 H 0.93056 0.02395 1.03313 0.0
H1271 H 0.92987 0.99427 1.02649 0.0
H1272 H 0.0139 0.04543 0.98539 0.0
H1273 H 0.01246 0.97424 0.97243 0.0
H1274 H -0.00383 0.04669 0.0735 0.0
H1275 H 0.96564 0.04957 1.04989 0.0
H1276 H -0.00449 0.06323 1.03411 0.0
H1277 H -0.00665 0.95929 1.05642 0.0
H1278 H -0.00912 0.95008 1.01183 0.0
H1279 H 0.96252 0.9624 1.03354 0.0
C1280 C 0.70875 0.97921 0.88069 0.0
C1281 C 0.69306 0.99713 0.89304 0.0
C1282 C 0.72075 0.97925 0.84713 0.0
C1283 C 0.71833 0.99815 0.82471 0.0
C1284 C 0.70244 0.0164 0.83695 0.0
C1285 C 0.68988 0.01561 0.87048 0.0
C1286 C 0.73638 0.95893 0.83587 0.0
C1287 C 0.69936 0.0372 0.81494 0.0
C1288 C 0.77097 0.00482 0.74959 0.0
C1289 C 0.75673 0.99779 0.71986 0.0
C1290 C 0.75882 0.0054 0.78338 0.0
C1291 C 0.73174 0.99837 0.78843 0.0
C1292 C 0.71765 0.99078 0.75853 0.0
C1293 C 0.72999 0.99091 0.72517 0.0
C1294 C 0.7749 0.01405 0.81371 0.0
C1295 C 0.68926 0.9824 0.7617 0.0
H1296 H 0.71201 0.96498 0.89777 0.0
H1297 H 0.67862 0.02992 0.87963 0.0
H1298 H 0.72905 0.95288 0.81027 0.0
H1299 H 0.75774 0.96352 0.83263 0.0
H1300 H 0.73491 0.94494 0.85495 0.0
H1301 H 0.68684 0.05009 0.82782 0.0
H1302 H 0.71932 0.04456 0.80939 0.0
H1303 H 0.69018 0.03282 0.78956 0.0
H1304 H 0.79135 0.01066 0.7463 0.0
H1305 H 0.71842 0.9855 0.70284 0.0
H1306 H 0.77672 1.00078 0.83385 0.0
H1307 H 0.76443 0.02842 0.82589 0.0
H1308 H 0.79526 0.01956 0.80585 0.0
H1309 H 0.68823 0.96845 0.78085 0.0
H1310 H 0.68112 0.97636 0.73647 0.0
H1311 H 0.67625 0.99601 0.7715 0.0
C1312 C 0.02306 0.76753 0.87077 0.0
C1313 C 0.01917 0.74891 0.89305 0.0
C1314 C 0.00901 0.76982 0.83841 0.0
C1315 C -0.00968 0.75314 0.82706 0.0
C1316 C -0.01355 0.73435 0.84952 0.0
C1317 C 0.00058 0.73256 0.88166 0.0
C1318 C 0.01423 0.79025 0.81622 0.0
C1319 C 0.9673 0.71584 0.83948 0.0
C1320 C 0.9377 0.76437 0.75269 0.0
C1321 C 0.94983 0.75486 0.72304 0.0
C1322 C 0.95052 0.76429 0.78621 0.0
C1323 C 0.97628 0.75438 0.79106 0.0
C1324 C -0.01165 0.74475 0.76117 0.0
C1325 C 0.97526 0.74513 0.72829 0.0
C1326 C 0.93641 0.77485 0.81663 0.0
C1327 C 0.01536 0.73373 0.76386 0.0
H1328 H 0.03692 0.78056 0.87881 0.0
H1329 H -0.00304 0.71807 0.89813 0.0
H1330 H 0.02286 0.78509 0.79088 0.0
H1331 H -0.00484 0.79896 0.81059 0.0
H1332 H 0.02816 0.80229 0.8289 0.0
H1333 H 0.96568 0.70264 0.85984 0.0
H1334 H 0.94716 0.72287 0.83468 0.0
H1335 H 0.97399 0.70791 0.81488 0.0
H1336 H 0.91823 0.77199 0.74976 0.0
H1337 H -0.01478 0.73751 0.70627 0.0
H1338 H 0.94928 0.78805 0.82833 0.0
H1339 H 0.9327 0.76201 0.83706 0.0
H1340 H 0.91704 0.78243 0.80903 0.0
H1341 H 0.03027 0.74589 0.77404 0.0
H1342 H 0.02252 0.72731 0.7384 0.0
H1343 H 0.01438 0.71951 0.78252 0.0
C1344 C 0.71634 0.76492 0.9853 0.0
C1345 C 0.69231 0.75341 0.9776 0.0
C1346 C 0.72825 0.76476 1.01883 0.0
C1347 C 0.71625 0.75274 1.04674 0.0
C1348 C 0.69177 0.74117 1.03945 0.0
C1349 C 0.68015 0.74164 1.0053 0.0
C1350 C 0.75396 0.77762 1.02431 0.0
C1351 C 0.67787 0.72813 0.06785 0.0
C1352 C 0.76172 0.73929 0.12704 0.0
C1353 C 0.75546 0.75654 0.15073 0.0
C1354 C 0.74884 0.73748 0.09388 0.0
C1355 C 0.72898 0.75325 0.08336 0.0
C1356 C 0.72267 0.77061 0.1073 0.0
C1357 C 0.73575 0.77199 0.14012 0.0
C1358 C 0.75663 0.71863 0.06989 0.0
C1359 C 0.70209 0.78807 0.09811 0.0
H1360 H 0.72619 0.77425 0.96468 0.0
H1361 H 0.66178 0.73252 1.00027 0.0
H1362 H 0.75107 0.79068 1.04448 0.0
H1363 H 0.76974 0.76614 1.03388 0.0
H1364 H 0.76117 0.78588 1.00009 0.0
H1365 H 0.65931 0.71983 1.05849 0.0
H1366 H 0.69148 0.71515 0.07839 0.0
H1367 H 0.67274 0.73952 0.08965 0.0
H1368 H 0.77659 0.72702 0.13451 0.0
H1369 H 0.73039 0.78543 0.15772 0.0
H1370 H 0.76547 0.72563 1.04568 0.0
H1371 H 0.73865 0.70885 0.06227 0.0
H1372 H 0.77129 0.70708 0.08205 0.0
H1373 H 0.70879 0.79775 0.07498 0.0
H1374 H 0.69844 0.79999 0.11978 0.0
H1375 H 0.68291 0.77981 0.09116 0.0
C1376 C 0.18366 0.5054 0.86883 0.0
C1377 C 0.19821 0.50791 0.90003 0.0
C1378 C 0.19657 0.50437 0.83554 0.0
C1379 C 0.22503 0.50515 0.83264 0.0
C1380 C 0.23969 0.50729 0.86419 0.0
C1381 C 0.22632 0.50897 0.89681 0.0
C1382 C 0.17959 0.50267 0.80326 0.0
C1383 C 0.26982 0.50746 0.86365 0.0
C1384 C 0.25911 0.47989 0.75016 0.0
C1385 C 0.2677 0.49882 0.73098 0.0
C1386 C 0.24579 0.4817 0.78285 0.0
C1387 C 0.23957 0.50309 0.79719 0.0
C1388 C 0.24806 0.52234 0.77779 0.0
C1389 C 0.26215 0.52002 0.74556 0.0
C1390 C 0.23837 0.4605 0.80216 0.0
C1391 C 0.24163 0.54558 0.79069 0.0
H1392 H 0.16206 0.50465 0.8703 0.0
H1393 H 0.23819 0.51076 0.92024 0.0
H1394 H 0.18499 0.51631 0.78479 0.0
H1395 H 0.18346 0.48652 0.78992 0.0
H1396 H 0.15792 0.50374 0.80918 0.0
H1397 H 0.27854 0.50858 0.89019 0.0
H1398 H 0.27724 0.49196 0.85101 0.0
H1399 H 0.27721 0.52189 0.84805 0.0
H1400 H 0.26285 0.46338 0.73945 0.0
H1401 H 0.26793 0.5349 0.73108 0.0
H1402 H 0.21635 0.45928 0.80478 0.0
H1403 H 0.24683 0.46093 0.82886 0.0
H1404 H 0.24565 0.44519 0.78879 0.0
H1405 H 0.21974 0.54719 0.79446 0.0
H1406 H 0.24848 0.55887 0.77239 0.0
H1407 H 0.25118 0.54845 0.81635 0.0
C1408 C 0.21867 0.77225 0.48334 0.0
C1409 C 0.20085 0.7551 0.47288 0.0
C1410 C 0.23089 0.77273 0.51678 0.0
C1411 C 0.22633 0.75517 0.54122 0.0
C1412 C 0.20827 0.73771 0.53093 0.0
C1413 C 0.19565 0.73797 0.49739 0.0
C1414 C 0.24896 0.79221 0.52582 0.0
C1415 C 0.20276 0.71831 0.55517 0.0
C1416 C 0.27814 0.74809 0.61726 0.0
C1417 C 0.26492 0.75762 0.64603 0.0
C1418 C 0.26589 0.74683 0.58356 0.0
C1419 C 0.23975 0.75565 0.57754 0.0
C1420 C 0.22675 0.76573 0.60642 0.0
C1421 C 0.23912 0.76626 0.63979 0.0
C1422 C 0.28075 0.7355 0.55442 0.0
C1423 C 0.19948 0.77604 0.60219 0.0
H1424 H 0.22333 0.78551 0.46491 0.0
H1425 H 0.18256 0.72428 0.48988 0.0
H1426 H 0.24214 0.80021 0.55031 0.0
H1427 H 0.26956 0.7861 0.53032 0.0
H1428 H 0.24952 0.80515 0.50497 0.0
H1429 H 0.18888 0.70579 0.5436 0.0
H1430 H 0.22178 0.70983 0.56186 0.0
H1431 H 0.19402 0.72454 0.57984 0.0
H1432 H 0.29767 0.74079 0.62136 0.0
H1433 H 0.22829 0.77352 0.66141 0.0
H1434 H 0.2839 0.74747 0.53264 0.0
H1435 H 0.26865 0.72132 0.54418 0.0
H1436 H 0.30046 0.72901 0.56294 0.0
H1437 H 0.20003 0.78901 0.58141 0.0
H1438 H 0.19221 0.78391 0.62658 0.0
H1439 H 0.18488 0.76302 0.59403 0.0
C1440 C -0.01295 0.48627 0.48422 0.0
C1441 C 0.00917 0.50008 0.47583 0.0
C1442 C 0.975 0.48596 0.51773 0.0
C1443 C -0.01527 0.50001 0.54481 0.0
C1444 C 0.00735 0.51388 0.53681 0.0
C1445 C 0.01928 0.5137 0.50281 0.0
C1446 C 0.95151 0.4705 0.52402 0.0
C1447 C 0.01875 0.52926 0.56418 0.0
C1448 C 0.93624 0.51147 0.62295 0.0
C1449 C 0.94494 0.4963 0.64876 0.0
C1450 C 0.94918 0.51326 0.58978 0.0
C1451 C 0.97154 0.49949 0.58127 0.0
C1452 C -0.01976 0.48413 0.60727 0.0
C1453 C 0.96714 0.48284 0.64016 0.0
C1454 C 0.93886 0.53003 0.56369 0.0
C1455 C 0.00346 0.46874 0.60026 0.0
H1456 H -0.02118 0.47552 0.46411 0.0
H1457 H 0.03605 0.52467 0.49719 0.0
H1458 H 0.956 0.45888 0.54583 0.0
H1459 H 0.93378 0.48044 0.53168 0.0
H1460 H 0.94633 0.4604 0.50068 0.0
H1461 H 0.03618 0.53902 0.55446 0.0
H1462 H 0.00316 0.54113 0.57303 0.0
H1463 H 0.02501 0.51934 0.58723 0.0
H1464 H 0.91945 0.52224 0.6288 0.0
H1465 H 0.97443 0.47103 0.65939 0.0
H1466 H 0.93163 0.52114 0.54013 0.0
H1467 H 0.95528 0.54142 0.55537 0.0
H1468 H 0.92229 0.54028 0.57433 0.0
H1469 H -0.00124 0.45768 0.57785 0.0
H1470 H 0.00839 0.45806 0.62308 0.0
H1471 H 0.0214 0.47874 0.59312 0.0
C1472 C 0.77162 0.49222 0.25523 0.0
C1473 C 0.76134 0.5047 0.22706 0.0
C1474 C 0.75913 0.49235 0.28893 0.0
C1475 C 0.73581 0.50551 0.29552 0.0
C1476 C 0.72597 0.51851 0.26727 0.0
C1477 C 0.73847 0.51777 0.23402 0.0
C1478 C 0.77067 0.478 0.31747 0.0
C1479 C 0.7019 0.53334 0.27205 0.0
C1480 C 0.68658 0.49393 0.37332 0.0
C1481 C 0.69457 0.50969 0.3987 0.0
C1482 C 0.69998 0.49202 0.34045 0.0
C1483 C 0.72201 0.50632 0.33168 0.0
C1484 C 0.72988 0.52236 0.35717 0.0
C1485 C 0.71644 0.52368 0.38984 0.0
C1486 C 0.69055 0.47448 0.31499 0.0
C1487 C 0.75257 0.53843 0.34984 0.0
H1488 H 0.78895 0.48179 0.25076 0.0
H1489 H 0.73007 0.52764 0.213 0.0
H1490 H 0.77632 0.48864 0.34 0.0
H1491 H 0.75536 0.46585 0.32675 0.0
H1492 H 0.78854 0.46857 0.30874 0.0
H1493 H 0.69688 0.54287 0.24806 0.0
H1494 H 0.68434 0.523 0.27961 0.0
H1495 H 0.70559 0.54547 0.29342 0.0
H1496 H 0.67008 0.48274 0.37934 0.0
H1497 H 0.72316 0.53598 0.4087 0.0
H1498 H 0.70745 0.46348 0.30757 0.0
H1499 H 0.68333 0.48271 0.29085 0.0
H1500 H 0.6742 0.4639 0.32579 0.0
H1501 H 0.77104 0.52895 0.34397 0.0
H1502 H 0.7566 0.54987 0.37205 0.0
H1503 H 0.74789 0.54873 0.32653 0.0
C1504 C 0.72354 0.24778 0.47039 0.0
C1505 C 0.69541 0.24732 0.46716 0.0
C1506 C 0.73678 0.24981 0.5031 0.0
C1507 C 0.72202 0.25071 0.53472 0.0
C1508 C 0.69355 0.24996 0.53177 0.0
C1509 C 0.68073 0.24866 0.49843 0.0
C1510 C 0.76687 0.25132 0.50365 0.0
C1511 C 0.67649 0.25023 0.56409 0.0
C1512 C 0.76027 0.23641 0.62111 0.0
C1513 C 0.76447 0.2576 0.6366 0.0
C1514 C 0.74621 0.23388 0.58886 0.0
C1515 C 0.73641 0.25296 0.5703 0.0
C1516 C 0.74123 0.27438 0.58557 0.0
C1517 C 0.75453 0.27635 0.6183 0.0
C1518 C 0.7413 0.21057 0.575 0.0
C1519 C 0.7324 0.29547 0.56718 0.0
H1520 H 0.7355 0.24691 0.44693 0.0
H1521 H 0.65912 0.24819 0.49695 0.0
H1522 H 0.77324 0.26693 0.51711 0.0
H1523 H 0.77522 0.237 0.51849 0.0
H1524 H 0.77562 0.25127 0.47708 0.0
H1525 H 0.65492 0.24812 0.55809 0.0
H1526 H 0.68274 0.23658 0.582 0.0
H1527 H 0.67933 0.26632 0.57809 0.0
H1528 H 0.76716 0.22162 0.63484 0.0
H1529 H 0.75726 0.29284 0.62966 0.0
H1530 H 0.75132 0.20858 0.54946 0.0
H1531 H 0.71959 0.20792 0.57072 0.0
H1532 H 0.74873 0.19735 0.59296 0.0
H1533 H 0.7409 0.29601 0.54051 0.0
H1534 H 0.73863 0.31091 0.58124 0.0
H1535 H 0.71035 0.29551 0.56454 0.0
C1536 C 0.51565 0.23789 0.8629 0.0
C1537 C 0.50672 0.25214 0.88971 0.0
C1538 C 0.50394 0.23835 0.82876 0.0
C1539 C 0.48278 0.25352 0.82042 0.0
C1540 C 0.47434 0.26822 0.84732 0.0
C1541 C 0.48609 0.26725 0.88097 0.0
C1542 C 0.51393 0.22221 0.80164 0.0
C1543 C 0.45249 0.28506 0.84068 0.0
C1544 C 0.4673 0.27121 0.7247 0.0
C1545 C 0.4439 0.25909 0.71605 0.0
C1546 C 0.48009 0.26931 0.75772 0.0
C1547 C 0.46982 0.25466 0.78384 0.0
C1548 C 0.44623 0.24223 0.77529 0.0
C1549 C 0.43364 0.24461 0.74197 0.0
C1550 C 0.5047 0.28329 0.76474 0.0
C1551 C 0.43418 0.22628 0.80149 0.0
H1552 H 0.5312 0.22589 0.8688 0.0
H1553 H 0.47879 0.27848 0.90097 0.0
H1554 H 0.4973 0.21119 0.79293 0.0
H1555 H 0.52111 0.2316 0.77846 0.0
H1556 H 0.53042 0.21154 0.81154 0.0
H1557 H 0.44833 0.29563 0.86383 0.0
H1558 H 0.45815 0.29621 0.81868 0.0
H1559 H 0.43383 0.27621 0.83315 0.0
H1560 H 0.4758 0.28245 0.70541 0.0
H1561 H 0.41589 0.23485 0.73611 0.0
H1562 H 0.52159 0.27228 0.77212 0.0
H1563 H 0.501 0.29471 0.78699 0.0
H1564 H 0.51074 0.29354 0.74184 0.0
H1565 H 0.4494 0.21397 0.81008 0.0
H1566 H 0.4167 0.21702 0.79085 0.0
H1567 H 0.42775 0.23571 0.82489 0.0
C1568 C 0.44303 1.00158 0.61909 0.0
C1569 C 0.45708 0.99677 0.65006 0.0
C1570 C 0.456 0.00223 0.58576 0.0
C1571 C 0.48412 0.99856 0.58252 0.0
C1572 C 0.49829 0.99399 0.61382 0.0
C1573 C 0.48479 0.99289 0.64646 0.0
C1574 C 0.43945 0.00671 0.55377 0.0
C1575 C 0.52812 0.99054 0.61302 0.0
C1576 C 0.51868 0.98262 0.49416 0.0
C1577 C 0.52797 0.00343 0.4812 0.0
C1578 C 0.50417 0.98082 0.52623 0.0
C1579 C 0.49892 1.00016 0.54709 0.0
C1580 C 0.50881 0.02108 0.53432 0.0
C1581 C 0.52259 0.02246 0.50184 0.0
C1582 C 0.49388 0.9581 0.53742 0.0
C1583 C 0.50487 0.04226 0.55512 0.0
H1584 H 0.42173 0.00455 0.62078 0.0
H1585 H 0.49633 0.98924 0.66964 0.0
H1586 H 0.44599 0.02265 0.54141 0.0
H1587 H 0.4425 0.99314 0.53442 0.0
H1588 H 0.4178 0.00787 0.55981 0.0
H1589 H 0.53657 0.98756 0.63935 0.0
H1590 H 0.53304 0.976 0.59625 0.0
H1591 H 0.53805 0.00552 0.60152 0.0
H1592 H 0.52195 0.96772 0.47861 0.0
H1593 H 0.52921 0.03873 0.49244 0.0
H1594 H 0.47194 0.95881 0.54136 0.0
H1595 H 0.50294 0.95332 0.5627 0.0
H1596 H 0.49837 0.94482 0.51804 0.0
H1597 H 0.48323 0.04564 0.55817 0.0
H1598 H 0.51444 0.0571 0.54267 0.0
H1599 H 0.51332 0.04014 0.58162 0.0
C1600 C 0.46968 0.74844 0.23088 0.0
C1601 C 0.44293 0.75539 0.22614 0.0
C1602 C 0.48242 0.74783 0.26396 0.0
C1603 C 0.46856 0.75429 0.29459 0.0
C1604 C 0.44152 0.7615 0.29023 0.0
C1605 C 0.42912 0.76195 0.25647 0.0
C1606 C 0.51096 0.73989 0.26608 0.0
C1607 C 0.42551 0.76862 0.32148 0.0
C1608 C 0.49476 0.72945 0.38218 0.0
C1609 C 0.51034 0.74686 0.3969 0.0
C1610 C 0.48092 0.73184 0.34996 0.0
C1611 C 0.48215 0.75227 0.33074 0.0
C1612 C 0.49794 0.76997 0.34534 0.0
C1613 C 0.51168 0.7671 0.37779 0.0
C1614 C 0.46493 0.7122 0.33634 0.0
C1615 C 0.50026 0.79215 0.32664 0.0
H1616 H 0.48101 0.74317 0.20832 0.0
H1617 H 0.40858 0.76734 0.25394 0.0
H1618 H 0.52359 0.75284 0.27882 0.0
H1619 H 0.51203 0.72449 0.2823 0.0
H1620 H 0.51951 0.73614 0.24006 0.0
H1621 H 0.40527 0.77458 0.31423 0.0
H1622 H 0.42342 0.75431 0.33982 0.0
H1623 H 0.43615 0.78224 0.33552 0.0
H1624 H 0.49318 0.71367 0.39613 0.0
H1625 H 0.52337 0.78085 0.38831 0.0
H1626 H 0.4732 0.70668 0.31097 0.0
H1627 H 0.44395 0.7173 0.33174 0.0
H1628 H 0.46501 0.69769 0.35454 0.0
H1629 H 0.50805 0.78955 0.29992 0.0
H1630 H 0.51362 0.80412 0.34046 0.0
H1631 H 0.48019 0.79981 0.32411 0.0
C1632 C 0.45759 0.47705 0.13323 0.0
C1633 C 0.44402 0.49543 0.14787 0.0
C1634 C 0.47047 0.4783 0.10021 0.0
C1635 C 0.47121 0.49881 0.08112 0.0
C1636 C 0.45775 0.51757 0.09602 0.0
C1637 C 0.44406 0.51557 0.12855 0.0
C1638 C 0.48326 0.45746 0.08564 0.0
C1639 C 0.45835 0.54005 0.07796 0.0
C1640 C 0.52638 0.50578 1.0096 0.0
C1641 C 0.51202 0.50334 0.9783 0.0
C1642 C 0.5135 0.50477 1.04282 0.0
C1643 C 0.48549 0.50043 1.04557 0.0
C1644 C 0.47118 0.49732 1.01393 0.0
C1645 C 0.48433 0.49923 0.9812 0.0
C1646 C 0.52988 0.5089 0.07512 0.0
C1647 C 0.44175 0.49176 1.01455 0.0
H1648 H 0.45798 0.4614 0.14767 0.0
H1649 H 0.43424 0.5301 0.13952 0.0
H1650 H 0.47541 0.45403 0.05914 0.0
H1651 H 0.50512 0.46002 0.08321 0.0
H1652 H 0.47958 0.44247 0.10224 0.0
H1653 H 0.4483 0.55331 0.09339 0.0
H1654 H 0.47936 0.54525 0.07316 0.0
H1655 H 0.4484 0.5388 1.05225 0.0
H1656 H 0.54762 0.50923 1.00813 0.0
H1657 H 0.47279 0.49724 0.95752 0.0
H1658 H 0.52951 0.4938 0.09202 0.0
H1659 H 0.52108 0.52288 0.0903 0.0
H1660 H 0.55099 0.51313 0.06898 0.0
H1661 H 0.43813 0.47672 1.03102 0.0
H1662 H 0.43365 0.4885 0.98811 0.0
H1663 H 0.43048 0.50583 1.02626 0.0
C1664 C 0.31973 0.00737 1.00407 0.0
C1665 C 0.33863 0.0085 1.0313 0.0
C1666 C 0.3275 0.0064 0.96811 0.0
C1667 C 0.35501 0.00737 0.95798 0.0
C1668 C 0.37402 0.00901 0.98552 0.0
C1669 C 0.36575 0.00905 1.0211 0.0
C1670 C 0.30609 0.0038 0.94082 0.0
C1671 C 0.40353 0.01032 0.97785 0.0
C1672 C 0.38076 0.98703 0.86649 0.0
C1673 C 0.38187 0.0069 0.84642 0.0
C1674 C 0.37176 0.98683 0.90197 0.0
C1675 C 0.36388 0.00703 0.9191 0.0
C1676 C 0.3655 0.02715 0.89903 0.0
C1677 C 0.37398 0.02679 0.86347 0.0
C1678 C 0.37079 0.96481 0.92127 0.0
C1679 C 0.35877 0.04938 0.91544 0.0
H1680 H 0.29875 0.00656 1.01086 0.0
H1681 H 0.38089 0.00973 1.04125 0.0
H1682 H 0.3062 0.01859 0.92325 0.0
H1683 H 0.31024 0.98881 0.9246 0.0
H1684 H 0.28585 0.00199 0.95241 0.0
H1685 H 0.41466 0.01846 0.99946 0.0
H1686 H 0.41134 0.99305 0.9749 0.0
H1687 H 0.4077 0.01972 0.95346 0.0
H1688 H 0.38666 0.97143 0.85431 0.0
H1689 H 0.37471 0.0424 0.84895 0.0
H1690 H 0.35094 0.96247 0.93366 0.0
H1691 H 0.38594 0.96492 0.94233 0.0
H1692 H 0.37478 0.9503 0.90393 0.0
H1693 H 0.33782 0.04918 0.9248 0.0
H1694 H 0.36136 0.06365 0.89707 0.0
H1695 H 0.37178 0.05224 0.93844 0.0
C1696 C 0.88674 0.2611 0.99587 0.0
C1697 C 0.87227 0.24918 1.02151 0.0
C1698 C 0.8788 0.26127 0.96 0.0
C1699 C 0.85522 0.24976 0.94871 0.0
C1700 C 0.84041 0.23804 0.97473 0.0
C1701 C 0.84917 0.23766 1.01008 0.0
C1702 C 0.89598 0.2736 0.93397 0.0
C1703 C 0.81507 0.22571 0.96521 0.0
C1704 C 0.82068 0.26421 0.85959 0.0
C1705 C 0.82851 0.24647 0.83759 0.0
C1706 C 0.82923 0.26564 0.89515 0.0
C1707 C 0.84652 0.24914 0.90994 0.0
C1708 C 0.8547 0.23141 0.88758 0.0
C1709 C 0.84559 0.23023 0.85242 0.0
C1710 C 0.8193 0.28477 0.91717 0.0
C1711 C 0.87329 0.21347 0.90086 0.0
H1712 H 0.90472 0.26995 1.00369 0.0
H1713 H 0.83755 0.22835 1.02909 0.0
H1714 H 0.90271 0.26184 0.91341 0.0
H1715 H 0.88414 0.2869 0.92101 0.0
H1716 H 0.91385 0.2814 0.94622 0.0
H1717 H 0.805 0.21824 0.98828 0.0
H1718 H 0.80099 0.23733 0.95215 0.0
H1719 H 0.81963 0.21209 0.94651 0.0
H1720 H 0.80763 0.277 0.8491 0.0
H1721 H 0.85213 0.21641 0.83628 0.0
H1722 H 0.83618 0.29303 0.93087 0.0
H1723 H 0.80548 0.27813 0.93736 0.0
H1724 H 0.80858 0.29756 0.9015 0.0
H1725 H 0.89175 0.22127 0.91143 0.0
H1726 H 0.87893 0.20133 0.88024 0.0
H1727 H 0.86363 0.20411 0.92249 0.0
C1728 C 0.32103 0.24872 0.35438 0.0
C1729 C 0.34136 0.24953 0.32895 0.0
C1730 C 0.32687 0.24903 0.39097 0.0
C1731 C 0.35381 0.24965 0.40339 0.0
C1732 C 0.37428 0.25019 0.37768 0.0
C1733 C 0.36789 0.25039 0.34151 0.0
C1734 C 0.30401 0.24908 0.41648 0.0
C1735 C 0.40329 0.25021 0.38833 0.0
C1736 C 0.37318 0.26937 0.49755 0.0
C1737 C 0.37577 0.24913 0.51638 0.0
C1738 C 0.36553 0.26981 0.46163 0.0
C1739 C 0.3608 0.24953 0.44278 0.0
C1740 C 0.36391 0.22906 0.46163 0.0
C1741 C 0.37086 0.22913 0.49771 0.0
C1742 C 0.36231 0.29219 0.44379 0.0
C1743 C 0.36019 0.20685 0.44348 0.0
H1744 H 0.30043 0.24837 0.34571 0.0
H1745 H 0.38405 0.25099 0.32276 0.0
H1746 H 0.3053 0.23422 0.43384 0.0
H1747 H 0.30531 0.26422 0.4332 0.0
H1748 H 0.28427 0.24891 0.40328 0.0
H1749 H 0.41698 0.25194 0.36572 0.0
H1750 H 0.40743 0.26407 0.40682 0.0
H1751 H 0.40788 0.23427 0.40197 0.0
H1752 H 0.37662 0.28504 0.51115 0.0
H1753 H 0.37279 0.21329 0.51137 0.0
H1754 H 0.34206 0.29338 0.43219 0.0
H1755 H 0.37692 0.29376 0.42221 0.0
H1756 H 0.36528 0.30649 0.46193 0.0
H1757 H 0.33976 0.20572 0.43241 0.0
H1758 H 0.36332 0.19237 0.46125 0.0
H1759 H 0.37446 0.20556 0.42147 0.0
C1760 C 0.86612 0.02785 0.35892 0.0
C1761 C 0.86999 0.0079 0.3398 0.0
C1762 C 0.85848 0.02783 0.3948 0.0
C1763 C 0.85368 0.00734 0.41309 0.0
C1764 C 0.8575 0.98711 0.39386 0.0
C1765 C 0.86574 0.9876 0.3581 0.0
C1766 C 0.85597 0.04996 0.41345 0.0
C1767 C 0.85279 0.96471 0.41114 0.0
C1768 C 0.85825 0.00481 0.5148 0.0
C1769 C 0.8316 0.0069 0.5263 0.0
C1770 C 0.86555 0.00538 0.47891 0.0
C1771 C 0.84583 0.0072 0.4523 0.0
C1772 C 0.81872 0.00911 0.46372 0.0
C1773 C 0.81204 0.00917 0.50009 0.0
C1774 C 0.89472 0.00354 0.46985 0.0
C1775 C 0.79645 0.01036 0.43743 0.0
H1776 H 0.86934 0.04375 0.34579 0.0
H1777 H 0.86849 0.97195 0.34427 0.0
H1778 H 0.83542 0.05186 0.42379 0.0
H1779 H 0.86982 0.05034 0.43603 0.0
H1780 H 0.86055 0.06448 0.39624 0.0
H1781 H 0.85418 0.95055 0.39247 0.0
H1782 H 0.86782 0.96217 0.43198 0.0
H1783 H 0.83278 0.96436 0.42358 0.0
H1784 H 0.87381 0.00285 0.53417 0.0
H1785 H 0.7913 0.01035 0.50792 0.0
H1786 H 0.89984 0.01361 0.44643 0.0
H1787 H 0.89934 0.9857 0.46443 0.0
H1788 H 0.90767 0.0091 0.49171 0.0
H1789 H 0.80116 0.02285 0.41685 0.0
H1790 H 0.77711 0.01487 0.44966 0.0
H1791 H 0.7942 0.99378 0.42458 0.0
C1792 C 0.6118 0.97589 0.10672 0.0
C1793 C 0.63274 0.98984 0.09459 0.0
C1794 C 0.60184 0.97693 0.14151 0.0
C1795 C 0.61326 0.99189 0.16638 0.0
C1796 C 0.63465 0.0059 0.1544 0.0
C1797 C 0.64372 0.00497 0.11901 0.0
C1798 C 0.57881 0.96187 0.15166 0.0
C1799 C 0.64838 0.02173 0.17924 0.0
C1800 C 0.57421 0.00589 0.25262 0.0
C1801 C 0.5842 0.99012 0.27675 0.0
C1802 C 0.5833 0.00674 0.21717 0.0
C1803 C 0.60363 0.99194 0.20485 0.0
C1804 C 0.61414 0.97642 0.22946 0.0
C1805 C 0.60421 0.97551 0.26425 0.0
C1806 C 0.57069 0.02332 0.19258 0.0
C1807 C 0.63612 0.96056 0.21904 0.0
H1808 H 0.60272 0.96418 0.08864 0.0
H1809 H 0.65987 0.0159 0.11063 0.0
H1810 H 0.58535 0.94976 0.17186 0.0
H1811 H 0.56247 0.972 0.16309 0.0
H1812 H 0.57075 0.95231 0.12916 0.0
H1813 H 0.66499 0.03116 0.16666 0.0
H1814 H 0.63378 0.03392 0.18971 0.0
H1815 H 0.65649 0.01219 0.20169 0.0
H1816 H 0.5588 0.01731 0.26122 0.0
H1817 H 0.61253 0.96325 0.28201 0.0
H1818 H 0.56156 0.01426 0.1703 0.0
H1819 H 0.58618 0.03474 0.18179 0.0
H1820 H 0.55507 0.03356 0.20545 0.0
H1821 H 0.62872 0.94883 0.1988 0.0
H1822 H 0.64363 0.95056 0.2414 0.0
H1823 H 0.65307 0.97011 0.20758 0.0
C1824 C 0.10911 0.77718 0.10353 0.0
C1825 C 0.09045 0.76168 0.08979 0.0
C1826 C 0.11839 0.77621 0.13867 0.0
C1827 C 0.10854 0.75965 0.1623 0.0
C1828 C 0.08944 0.74404 0.1487 0.0
C1829 C 0.08107 0.745 0.11299 0.0
C1830 C 0.13899 0.79309 0.15053 0.0
C1831 C 0.07748 0.72633 0.17211 0.0
C1832 C 0.1479 0.7468 0.24878 0.0
C1833 C 0.13552 0.76072 0.27368 0.0
C1834 C 0.13953 0.74624 0.21304 0.0
C1835 C 0.11751 0.75938 0.20109 0.0
C1836 C 0.10464 0.77302 0.22642 0.0
C1837 C 0.1139 0.77378 0.26159 0.0
C1838 C 0.15471 0.73175 0.18781 0.0
C1839 C 0.08077 0.78697 0.21638 0.0
H1840 H 0.11687 0.79018 0.08648 0.0
H1841 H 0.06669 0.73285 0.1034 0.0
H1842 H 0.13044 0.80387 0.17119 0.0
H1843 H 0.15642 0.7843 0.16193 0.0
H1844 H 0.14607 0.80402 0.12892 0.0
H1845 H 0.06168 0.71638 0.1588 0.0
H1846 H 0.09333 0.71474 0.18108 0.0
H1847 H 0.06875 0.73426 0.1956 0.0
H1848 H 0.16461 0.73661 0.25706 0.0
H1849 H 0.10377 0.78457 0.27998 0.0
H1850 H 0.16255 0.74223 0.16614 0.0
H1851 H 0.14109 0.71906 0.17624 0.0
H1852 H 0.17168 0.72294 0.2004 0.0
H1853 H 0.08675 0.79981 0.1969 0.0
H1854 H 0.07176 0.79561 0.23909 0.0
H1855 H 0.06532 0.77617 0.20407 0.0
C1856 C 0.60165 0.77386 0.76875 0.0
C1857 C 0.6229 0.76008 0.77993 0.0
C1858 C 0.59094 0.77287 0.73434 0.0
C1859 C 0.60184 0.75813 0.70892 0.0
C1860 C 0.62347 0.74425 0.71995 0.0
C1861 C 0.63336 0.74514 0.75497 0.0
C1862 C 0.56769 0.78777 0.7252 0.0
C1863 C 0.63662 0.72861 0.69444 0.0
C1864 C 0.56121 0.74403 0.62396 0.0
C1865 C 0.57078 0.75992 0.59961 0.0
C1866 C 0.5709 0.74321 0.65911 0.0
C1867 C 0.59144 0.75816 0.67084 0.0
C1868 C 0.60147 0.77385 0.64602 0.0
C1869 C 0.59094 0.77472 0.61155 0.0
C1870 C 0.55872 0.72647 0.684 0.0
C1871 C 0.6236 0.7899 0.65585 0.0
H1872 H 0.59299 0.78544 0.78725 0.0
H1873 H 0.64971 0.73435 0.76262 0.0
H1874 H 0.5738 0.80005 0.70494 0.0
H1875 H 0.55114 0.77755 0.71419 0.0
H1876 H 0.56007 0.79713 0.74809 0.0
H1877 H 0.65332 0.71909 0.70638 0.0
H1878 H 0.62171 0.7165 0.68413 0.0
H1879 H 0.64447 0.73834 0.67196 0.0
H1880 H 0.54569 0.73246 0.61576 0.0
H1881 H 0.59893 0.78708 0.59356 0.0
H1882 H 0.55033 0.73537 0.70685 0.0
H1883 H 0.57435 0.71495 0.69384 0.0
H1884 H 0.54262 0.71635 0.67168 0.0
H1885 H 0.61658 0.80144 0.6765 0.0
H1886 H 0.6306 0.8001 0.63336 0.0
H1887 H 0.64081 0.78047 0.66657 0.0
C1888 C 0.09709 0.98099 0.75988 0.0
C1889 C 0.07788 0.99612 0.77296 0.0
C1890 C 0.1067 0.98182 0.72487 0.0
C1891 C 0.09672 0.99786 0.70064 0.0
C1892 C 0.07717 0.01318 0.71359 0.0
C1893 C 0.06837 0.01233 0.74917 0.0
C1894 C 0.1279 0.96539 0.71384 0.0
C1895 C 0.06512 0.03037 0.68953 0.0
C1896 C 0.13628 0.0106 0.61404 0.0
C1897 C 0.1243 0.99611 0.58944 0.0
C1898 C 0.12781 0.01132 0.64974 0.0
C1899 C 0.10596 0.99786 0.66192 0.0
C1900 C 0.09354 0.9836 0.63687 0.0
C1901 C 0.10295 0.98267 0.60179 0.0
C1902 C 0.14265 0.02635 0.67468 0.0
C1903 C 0.07003 0.96911 0.64717 0.0
H1904 H 0.10504 0.96838 0.77735 0.0
H1905 H 0.05357 0.0242 0.75819 0.0
H1906 H 0.12034 0.95474 0.6923 0.0
H1907 H 0.1456 0.97465 0.70387 0.0
H1908 H 0.13433 0.95432 0.73554 0.0
H1909 H 0.04995 0.04088 0.70278 0.0
H1910 H 0.08103 0.04149 0.67899 0.0
H1911 H 0.05558 0.02183 0.66705 0.0
H1912 H 0.15282 0.02105 0.60559 0.0
H1913 H 0.09319 0.97139 0.58366 0.0
H1914 H 0.14961 0.01649 0.69746 0.0
H1915 H 0.12904 0.0395 0.68462 0.0
H1916 H 0.16019 0.03462 0.66232 0.0
H1917 H 0.07632 0.95662 0.66694 0.0
H1918 H 0.0613 0.96001 0.62463 0.0
H1919 H 0.05427 0.9796 0.65919 0.0
C1920 C 0.318 0.49252 0.50522 0.0
C1921 C 0.32666 0.51006 0.52721 0.0
C1922 C 0.32658 0.49083 0.4697 0.0
C1923 C 0.34473 0.50684 0.45498 0.0
C1924 C 0.35365 0.5244 0.47729 0.0
C1925 C 0.3445 0.52586 0.51239 0.0
C1926 C 0.31576 0.47197 0.44767 0.0
C1927 C 0.37311 0.54185 0.46407 0.0
C1928 C 0.38488 0.49372 0.36949 0.0
C1929 C 0.37113 0.50596 0.34367 0.0
C1930 C 0.37671 0.4938 0.40528 0.0
C1931 C 0.35362 0.50591 0.4163 0.0
C1932 C 0.33954 0.51797 0.3901 0.0
C1933 C 0.34852 0.51807 0.35485 0.0
C1934 C 0.39311 0.48105 0.43151 0.0
C1935 C 0.31478 0.531 0.39933 0.0
H1936 H 0.30424 0.48013 0.51567 0.0
H1937 H 0.35168 0.53952 0.52853 0.0
H1938 H 0.30293 0.47898 0.42679 0.0
H1939 H 0.33235 0.4629 0.43483 0.0
H1940 H 0.30378 0.45978 0.46313 0.0
H1941 H 0.37913 0.55395 0.48461 0.0
H1942 H 0.39128 0.53354 0.45389 0.0
H1943 H 0.36408 0.55131 0.44217 0.0
H1944 H 0.40246 0.48441 0.36187 0.0
H1945 H 0.33745 0.52764 0.3357 0.0
H1946 H 0.38064 0.46781 0.44389 0.0
H1947 H 0.39988 0.49253 0.45248 0.0
H1948 H 0.4109 0.47308 0.41957 0.0
H1949 H 0.30007 0.5198 0.41235 0.0
H1950 H 0.30519 0.53866 0.37612 0.0
H1951 H 0.31991 0.54455 0.41797 0.0
C1952 C 0.88779 0.74955 0.5048 0.0
C1953 C 0.86916 0.75125 0.53222 0.0
C1954 C 0.87975 0.74921 0.46895 0.0
C1955 C 0.85215 0.74968 0.45932 0.0
C1956 C 0.83335 0.75092 0.48711 0.0
C1957 C 0.84197 0.75219 0.52249 0.0
C1958 C 0.90103 0.74891 0.44119 0.0
C1959 C 0.80377 0.7511 0.47964 0.0
C1960 C 0.82735 0.76669 0.36579 0.0
C1961 C 0.82468 0.74596 0.34836 0.0
C1962 C 0.83666 0.76821 0.40101 0.0
C1963 C 0.84292 0.74853 0.4207 0.0
C1964 C 0.83954 0.72757 0.40336 0.0
C1965 C 0.83105 0.72659 0.36787 0.0
C1966 C 0.83995 0.79111 0.4171 0.0
C1967 C 0.84445 0.7059 0.42263 0.0
H1968 H 0.90885 0.74924 0.5113 0.0
H1969 H 0.82711 0.75366 0.54287 0.0
H1970 H 0.89961 0.73311 0.42607 0.0
H1971 H 0.89789 0.763 0.42271 0.0
H1972 H 0.92147 0.7503 0.45226 0.0
H1973 H 0.79175 0.74751 0.50333 0.0
H1974 H 0.79805 0.76789 0.46975 0.0
H1975 H 0.79853 0.73858 0.45937 0.0
H1976 H 0.8227 0.78192 0.3516 0.0
H1977 H 0.82908 0.71037 0.35537 0.0
H1978 H 0.8595 0.79244 0.43058 0.0
H1979 H 0.82411 0.79372 0.43682 0.0
H1980 H 0.83855 0.80474 0.39742 0.0
H1981 H 0.86557 0.7051 0.4312 0.0
H1982 H 0.84002 0.69092 0.40641 0.0
H1983 H 0.83182 0.70522 0.44637 0.0
C1984 C 0.31987 0.73808 0.86698 0.0
C1985 C 0.33527 0.75052 0.8429 0.0
C1986 C 0.32592 0.73782 0.90349 0.0
C1987 C 0.34788 0.75044 0.91723 0.0
C1988 C 0.36326 0.76312 0.89292 0.0
C1989 C 0.35692 0.76293 0.85673 0.0
C1990 C 0.30871 0.72391 0.92749 0.0
C1991 C 0.38653 0.77722 0.90522 0.0
C1992 C 0.34963 0.76796 1.01525 0.0
C1993 C 0.36832 0.75323 1.03055 0.0
C1994 C 0.34277 0.7671 0.9792 0.0
C1995 C 0.35451 0.75093 0.95668 0.0
C1996 C 0.37334 0.73591 0.972 0.0
C1997 C 0.38003 0.73728 1.00821 0.0
C1998 C 0.32296 0.78381 0.96508 0.0
C1999 C 0.38655 0.71824 0.94999 0.0
H2000 H 0.30309 0.72839 0.8573 0.0
H2001 H 0.36912 0.77277 0.83902 0.0
H2002 H 0.32131 0.71201 0.9424 0.0
H2003 H 0.2987 0.73495 0.94664 0.0
H2004 H 0.29319 0.71425 0.91318 0.0
H2005 H 0.39655 0.78629 0.88353 0.0
H2006 H 0.37958 0.7897 0.92458 0.0
H2007 H 0.40146 0.76644 0.91842 0.0
H2008 H 0.34028 0.78045 1.03163 0.0
H2009 H 0.39442 0.7257 1.01908 0.0
H2010 H 0.30574 0.77486 0.95329 0.0
H2011 H 0.33242 0.794 0.94419 0.0
H2012 H 0.3154 0.79531 0.98553 0.0
H2013 H 0.37114 0.70783 0.93684 0.0
H2014 H 0.39969 0.70709 0.96555 0.0
H2015 H 0.39871 0.72638 0.92933 0.0
C2016 C 0.85022 0.52141 0.85727 0.0
C2017 C 0.87267 0.50931 0.84554 0.0
C2018 C 0.84175 0.52126 0.89277 0.0
C2019 C 0.85631 0.50929 0.91865 0.0
C2020 C 0.87933 0.49732 0.90706 0.0
C2021 C 0.88686 0.49716 0.87105 0.0
C2022 C 0.81687 0.53394 0.90254 0.0
C2023 C 0.89622 0.48465 0.93285 0.0
C2024 C 0.84713 0.5284 1.01537 0.0
C2025 C 0.83008 0.51195 1.03006 0.0
C2026 C 0.85612 0.52742 0.98009 0.0
C2027 C 0.8477 0.5098 0.95749 0.0
C2028 C 0.83039 0.49316 0.97217 0.0
C2029 C 0.82209 0.49432 1.00782 0.0
C2030 C 0.87502 0.54534 0.96705 0.0
C2031 C 0.81999 0.47423 0.94994 0.0
H2032 H 0.83881 0.53088 0.83836 0.0
H2033 H 0.90433 0.48784 0.86299 0.0
H2034 H 0.80247 0.52247 0.91559 0.0
H2035 H 0.82191 0.54743 0.92133 0.0
H2036 H 0.80696 0.54163 0.87959 0.0
H2037 H 0.91489 0.47821 0.92094 0.0
H2038 H 0.90156 0.49562 0.95513 0.0
H2039 H 0.88465 0.47024 0.9434 0.0
H2040 H 0.85383 0.54211 1.03173 0.0
H2041 H 0.80895 0.48145 1.0182 0.0
H2042 H 0.8658 0.5546 0.94507 0.0
H2043 H 0.89351 0.53745 0.95703 0.0
H2044 H 0.88053 0.55756 0.98766 0.0
H2045 H 0.80547 0.48098 0.93081 0.0
H2046 H 0.80989 0.46105 0.9657 0.0
H2047 H 0.83646 0.46641 0.93502 0.0
C2048 C 0.57498 0.51299 0.76028 0.0
C2049 C 0.58288 0.49491 0.78169 0.0
C2050 C 0.58239 0.51444 0.72428 0.0
C2051 C 0.59893 0.49782 0.70856 0.0
C2052 C 0.6073 0.4798 0.73036 0.0
C2053 C 0.59909 0.47847 0.7659 0.0
C2054 C 0.57217 0.5338 0.70288 0.0
C2055 C 0.625 0.46164 0.71597 0.0
C2056 C 0.59953 0.48696 0.60808 0.0
C2057 C 0.6219 0.49914 0.59587 0.0
C2058 C 0.59174 0.48668 0.64381 0.0
C2059 C 0.60673 0.49863 0.66943 0.0
C2060 C 0.62968 0.5107 0.65731 0.0
C2061 C 0.63666 0.51109 0.62111 0.0
C2062 C 0.56669 0.47394 0.65342 0.0
C2063 C 0.64721 0.52316 0.68273 0.0
H2064 H 0.56252 0.52591 0.77152 0.0
H2065 H 0.60565 0.46439 0.78155 0.0
H2066 H 0.58902 0.54513 0.69607 0.0
H2067 H 0.56341 0.52759 0.67813 0.0
H2068 H 0.55684 0.54366 0.71702 0.0
H2069 H 0.63117 0.44939 0.73622 0.0
H2070 H 0.61432 0.45249 0.69499 0.0
H2071 H 0.64317 0.46927 0.70426 0.0
H2072 H 0.58759 0.47773 0.58936 0.0
H2073 H 0.65411 0.52046 0.61267 0.0
H2074 H 0.54943 0.48544 0.65096 0.0
H2075 H 0.56715 0.46744 0.68047 0.0
H2076 H 0.56322 0.45963 0.63546 0.0
H2077 H 0.63628 0.53785 0.69307 0.0
H2078 H 0.66605 0.52918 0.67051 0.0
H2079 H 0.65226 0.5122 0.70517 0.0
C2080 C 0.14308 0.24224 0.74238 0.0
C2081 C 0.12915 0.25467 0.76777 0.0
C2082 C 0.13546 0.24232 0.70638 0.0
C2083 C 0.11267 0.25454 0.69464 0.0
C2084 C 0.0985 0.26694 0.72037 0.0
C2085 C 0.10697 0.26706 0.75587 0.0
C2086 C 0.15215 0.22942 0.68072 0.0
C2087 C 0.07417 0.28028 0.71033 0.0
C2088 C 0.10379 0.2735 0.59764 0.0
C2089 C 0.08678 0.25708 0.58295 0.0
C2090 C 0.11253 0.27269 0.633 0.0
C2091 C 0.10405 0.2551 0.65576 0.0
C2092 C 0.08666 0.2385 0.64114 0.0
C2093 C 0.07868 0.23948 0.6053 0.0
C2094 C 0.13173 0.29055 0.64535 0.0
C2095 C 0.07614 0.21966 0.66356 0.0
H2096 H 0.16039 0.23273 0.75053 0.0
H2097 H 0.09581 0.27682 0.77463 0.0
H2098 H 0.14039 0.21509 0.67036 0.0
H2099 H 0.1576 0.24031 0.6583 0.0
H2100 H 0.17074 0.22283 0.69268 0.0
H2101 H 0.0649 0.28878 0.733 0.0
H2102 H 0.07964 0.29317 0.69066 0.0
H2103 H 0.05912 0.26901 0.69828 0.0
H2104 H 0.11072 0.28713 0.58117 0.0
H2105 H 0.06565 0.22655 0.59492 0.0
H2106 H 0.15232 0.2839 0.64344 0.0
H2107 H 0.12811 0.29527 0.67285 0.0
H2108 H 0.13062 0.30592 0.62901 0.0
H2109 H 0.09283 0.20857 0.67135 0.0
H2110 H 0.06082 0.2094 0.64989 0.0
H2111 H 0.06722 0.2265 0.68777 0.0
C2112 C 0.58912 0.27143 0.10362 0.0
C2113 C 0.57028 0.25592 0.0903 0.0
C2114 C 0.59885 0.27044 0.13854 0.0
C2115 C 0.58943 0.25375 0.16221 0.0
C2116 C 0.57023 0.23809 0.14902 0.0
C2117 C 0.56122 0.23921 0.11363 0.0
C2118 C 0.61944 0.28743 0.15011 0.0
C2119 C 0.55892 0.22014 0.17253 0.0
C2120 C 0.63014 0.24072 0.24736 0.0
C2121 C 0.61739 0.25386 0.27293 0.0
C2122 C 0.62147 0.2405 0.21178 0.0
C2123 C 0.59894 0.25332 0.20068 0.0
C2124 C 0.58594 0.26638 0.22661 0.0
C2125 C 0.59534 0.26667 0.26168 0.0
C2126 C 0.63679 0.22668 0.18581 0.0
C2127 C 0.56183 0.28024 0.21729 0.0
H2128 H 0.59666 0.28445 0.08644 0.0
H2129 H 0.54676 0.22703 0.10432 0.0
H2130 H 0.61124 0.2978 0.1715 0.0
H2131 H 0.6373 0.27871 0.16048 0.0
H2132 H 0.6258 0.29874 0.1286 0.0
H2133 H 0.54401 0.20937 0.15904 0.0
H2134 H 0.57527 0.20937 0.18245 0.0
H2135 H 0.54925 0.22799 0.19545 0.0
H2136 H 0.64727 0.23083 0.25504 0.0
H2137 H 0.58504 0.27693 0.28063 0.0
H2138 H 0.64496 0.23777 0.1651 0.0
H2139 H 0.62322 0.21443 0.17306 0.0
H2140 H 0.65357 0.21743 0.19805 0.0
H2141 H 0.56744 0.29319 0.19779 0.0
H2142 H 0.55308 0.28875 0.2403 0.0
H2143 H 0.54629 0.26941 0.20526 0.0
C2144 C 0.0985 0.48549 0.10529 0.0
C2145 C 0.12067 0.49832 0.09404 0.0
C2146 C 0.08946 0.48543 0.14051 0.0
C2147 C 0.10305 0.49808 0.16655 0.0
C2148 C 0.12576 0.51085 0.15546 0.0
C2149 C 0.13398 0.51105 0.11973 0.0
C2150 C 0.0651 0.4717 0.14985 0.0
C2151 C 0.14169 0.52418 0.18156 0.0
C2152 C 0.06658 0.51183 0.25439 0.0
C2153 C 0.0754 0.49482 0.27721 0.0
C2154 C 0.07527 0.51314 0.2189 0.0
C2155 C 0.09386 0.49736 0.2051 0.0
C2156 C 0.10298 0.48032 0.22825 0.0
C2157 C 0.09361 0.47916 0.26331 0.0
C2158 C 0.06424 0.53143 0.19596 0.0
C2159 C 0.12295 0.46319 0.21599 0.0
H2160 H 0.0878 0.47553 0.08621 0.0
H2161 H 0.15124 0.52092 0.11202 0.0
H2162 H 0.07054 0.45851 0.16896 0.0
H2163 H 0.04993 0.48255 0.16237 0.0
H2164 H 0.05594 0.4635 0.12677 0.0
H2165 H 0.15922 0.53268 0.16955 0.0
H2166 H 0.1288 0.53705 0.19378 0.0
H2167 H 0.14884 0.51297 0.20266 0.0
H2168 H 0.05257 0.52411 0.26418 0.0
H2169 H 0.10091 0.46592 0.28014 0.0
H2170 H 0.05414 0.5239 0.17304 0.0
H2171 H 0.08079 0.5421 0.18601 0.0
H2172 H 0.04975 0.54225 0.20991 0.0
H2173 H 0.11442 0.45332 0.19418 0.0
H2174 H 0.12894 0.45143 0.23703 0.0
H2175 H 0.14108 0.47181 0.20598 0.0
C2176 C 0.29388 0.16349 0.22025 0.0
C2177 C 0.27979 0.18261 0.20968 0.0
C2178 C 0.28931 0.14237 0.20484 0.0
C2179 C 0.27072 0.14025 0.17713 0.0
C2180 C 0.25564 0.15938 0.16721 0.0
C2181 C 0.26019 0.18028 0.18379 0.0
C2182 C 0.30564 0.12258 0.21691 0.0
C2183 C 0.23597 0.15814 0.13754 0.0
C2184 C 0.29065 0.09271 0.11597 0.0
C2185 C 0.27433 0.07492 0.12725 0.0
C2186 C 0.28811 0.11448 0.12992 0.0
C2187 C 0.2693 0.11859 0.1568 0.0
C2188 C 0.25172 0.10095 0.16689 0.0
C2189 C 0.25436 0.0794 0.15189 0.0
C2190 C 0.30704 0.13267 0.11773 0.0
C2191 C 0.2317 0.10423 0.19575 0.0
H2192 H 0.30944 0.16527 0.23971 0.0
H2193 H 0.2498 0.1951 0.17472 0.0
H2194 H 0.29257 0.10778 0.22152 0.0
H2195 H 0.3202 0.11796 0.19639 0.0
H2196 H 0.31684 0.12628 0.24122 0.0
H2197 H 0.22419 0.1738 0.13485 0.0
H2198 H 0.24689 0.1552 0.11283 0.0
H2199 H 0.22205 0.1438 0.14129 0.0
H2200 H 0.30659 0.08925 0.09766 0.0
H2201 H 0.24232 0.06558 0.16168 0.0
H2202 H 0.32183 0.13633 0.13849 0.0
H2203 H 0.29601 0.14841 0.11239 0.0
H2204 H 0.31805 0.12774 0.09384 0.0
H2205 H 0.24237 0.1051 0.22103 0.0
H2206 H 0.21696 0.09024 0.19703 0.0
H2207 H 0.22084 0.12026 0.19233 0.0
C2208 C 0.90823 0.07621 0.17258 0.0
C2209 C 0.91639 0.06896 0.20573 0.0
C2210 C 0.90952 0.09888 0.16278 0.0
C2211 C 0.91927 0.11503 0.18664 0.0
C2212 C 0.92883 0.10774 0.21961 0.0
C2213 C 0.92732 0.08474 0.22879 0.0
C2214 C 0.89916 0.10566 0.12735 0.0
C2215 C 0.93953 0.12436 0.24574 0.0
C2216 C 0.9342 0.17291 0.1475 0.0
C2217 C 0.91038 0.18447 0.15428 0.0
C2218 C 0.93788 0.15062 0.15906 0.0
C2219 C 0.91723 0.13952 0.17773 0.0
C2220 C 0.89335 0.15128 0.18513 0.0
C2221 C 0.89026 0.17351 0.17342 0.0
C2222 C 0.96364 0.13878 0.15058 0.0
C2223 C 0.87068 0.14015 0.20465 0.0
H2224 H 0.89998 0.06413 0.15439 0.0
H2225 H 0.93358 0.07931 0.25446 0.0
H2226 H 0.88092 0.11596 0.13044 0.0
H2227 H 0.91418 0.1161 0.11348 0.0
H2228 H 0.89416 0.09092 0.11086 0.0
H2229 H 0.94889 0.11593 0.26847 0.0
H2230 H 0.95449 0.13562 0.23337 0.0
H2231 H 0.92299 0.13505 0.25525 0.0
H2232 H 0.94997 0.18123 0.13301 0.0
H2233 H 0.87182 0.18226 0.17901 0.0
H2234 H 0.95959 0.12472 0.13239 0.0
H2235 H 0.9724 0.13144 0.17454 0.0
H2236 H -0.02143 0.15021 0.13844 0.0
H2237 H 0.86259 0.12598 0.1891 0.0
H2238 H 0.85413 0.15197 0.21027 0.0
H2239 H 0.878 0.1331 0.22962 0.0
C2240 C 0.65242 0.83268 0.91667 0.0
C2241 C 0.67277 0.81997 0.90109 0.0
C2242 C 0.65692 0.85452 0.92905 0.0
C2243 C 0.6826 0.86439 0.9261 0.0
C2244 C 0.70332 0.85187 0.90989 0.0
C2245 C 0.69816 0.82981 0.89748 0.0
C2246 C 0.63394 0.86706 0.94538 0.0
C2247 C 0.73098 0.86167 0.90618 0.0
C2248 C 0.67706 0.92794 0.92891 0.0
C2249 C 0.68084 0.93275 0.96439 0.0
C2250 C 0.6801 0.90615 0.91555 0.0
C2251 C 0.68662 0.88825 0.93824 0.0
C2252 C 0.69229 0.89321 0.97375 0.0
C2253 C 0.68948 0.91545 0.98642 0.0
C2254 C 0.67407 0.9021 0.87755 0.0
C2255 C 0.69948 0.87477 0.99893 0.0
H2256 H 0.63266 0.82539 0.91953 0.0
H2257 H 0.71412 0.82008 0.88599 0.0
H2258 H 0.63921 0.87219 0.97227 0.0
H2259 H 0.62983 0.88258 0.93033 0.0
H2260 H 0.61532 0.85686 0.94641 0.0
H2261 H 0.74476 0.85016 0.89236 0.0
H2262 H 0.73015 0.87781 0.89176 0.0
H2263 H 0.73932 0.86536 0.93233 0.0
H2264 H 0.67055 0.94121 0.91155 0.0
H2265 H 0.69235 0.91894 1.01384 0.0
H2266 H 0.65417 0.89397 0.87512 0.0
H2267 H 0.68896 0.89064 0.86587 0.0
H2268 H 0.67386 0.91798 0.86232 0.0
H2269 H 0.6814 0.8646 1.00483 0.0
H2270 H 0.70751 0.88153 1.02376 0.0
H2271 H 0.71446 0.86337 0.98726 0.0
C2272 C 0.01082 0.8324 0.9629 0.0
C2273 C 0.03662 0.82383 0.95791 0.0
C2274 C 0.00376 0.85393 0.95011 0.0
C2275 C 0.023 0.86731 0.93226 0.0
C2276 C 0.04889 0.85849 0.92688 0.0
C2277 C 0.05526 0.83706 0.93958 0.0
C2278 C 0.97589 0.86253 0.95617 0.0
C2279 C 0.07036 0.87202 0.90863 0.0
C2280 C 0.01245 0.92068 0.8778 0.0
C2281 C 0.02183 0.9371 0.90094 0.0
C2282 C 0.0104 0.89787 0.88835 0.0
C2283 C 0.01777 0.89146 0.92277 0.0
C2284 C 0.02493 0.90841 0.94679 0.0
C2285 C 0.0271 0.93074 0.93553 0.0
C2286 C 0.00234 0.88045 0.86192 0.0
C2287 C 0.03298 0.90279 0.9837 0.0
H2288 H -0.00385 0.82229 0.97663 0.0
H2289 H 0.07528 0.83076 0.93542 0.0
H2290 H 0.97653 0.87681 0.97465 0.0
H2291 H 0.96728 0.86889 0.93144 0.0
H2292 H 0.96244 0.84936 0.96697 0.0
H2293 H 0.08901 0.86231 0.90476 0.0
H2294 H 0.06314 0.87779 0.88284 0.0
H2295 H 0.07523 0.88719 0.92417 0.0
H2296 H 0.00865 0.92528 0.85095 0.0
H2297 H 0.03477 0.94313 0.95359 0.0
H2298 H -0.01113 0.86772 0.87379 0.0
H2299 H 0.0204 0.87158 0.85258 0.0
H2300 H -0.00779 0.88811 0.83911 0.0
H2301 H 0.01871 0.89072 0.99557 0.0
H2302 H 0.03404 0.91797 1.00043 0.0
H2303 H 0.05294 0.89477 0.98353 0.0
C2304 C 0.27615 0.68224 0.68079 0.0
C2305 C 0.2756 0.68755 0.7164 0.0
C2306 C 0.27375 0.66 0.66901 0.0
C2307 C 0.2709 0.64229 0.6934 0.0
C2308 C 0.26827 0.6477 0.72932 0.0
C2309 C 0.27061 0.6703 0.74044 0.0
C2310 C 0.27666 0.65539 0.63056 0.0
C2311 C 0.26511 0.62946 0.75629 0.0
C2312 C 0.25883 0.58268 0.65757 0.0
C2313 C 0.28491 0.57412 0.65672 0.0
C2314 C 0.25372 0.60464 0.67005 0.0
C2315 C 0.27517 0.61843 0.68175 0.0
C2316 C 0.30148 0.60983 0.68053 0.0
C2317 C 0.30595 0.58797 0.66823 0.0
C2318 C 0.2254 0.6131 0.67078 0.0
C2319 C 0.32514 0.62383 0.69204 0.0
H2320 H 0.27998 0.6955 0.66201 0.0
H2321 H 0.27048 0.6742 0.76799 0.0
H2322 H 0.29677 0.64838 0.62544 0.0
H2323 H 0.26171 0.64282 0.6218 0.0
H2324 H 0.27435 0.67087 0.61467 0.0
H2325 H 0.25896 0.63629 0.78194 0.0
H2326 H 0.25014 0.61683 0.74774 0.0
H2327 H 0.28442 0.62064 0.75961 0.0
H2328 H 0.24241 0.57212 0.64908 0.0
H2329 H 0.32623 0.58169 0.66765 0.0
H2330 H 0.22364 0.62827 0.65416 0.0
H2331 H 0.21996 0.6181 0.69766 0.0
H2332 H 0.21086 0.60029 0.66154 0.0
H2333 H 0.32683 0.63907 0.67551 0.0
H2334 H 0.34425 0.61449 0.69046 0.0
H2335 H 0.32228 0.6295 0.71927 0.0
C2336 C 0.91987 0.67897 0.68653 0.0
C2337 C 0.92391 0.68586 0.65191 0.0
C2338 C 0.91976 0.65624 0.69605 0.0
C2339 C 0.92398 0.63963 0.67039 0.0
C2340 C 0.92972 0.64645 0.63566 0.0
C2341 C 0.9296 0.66955 0.62676 0.0
C2342 C 0.91354 0.65002 0.73336 0.0
C2343 C 0.93465 0.62931 0.60758 0.0
C2344 C 0.93674 0.58094 0.70727 0.0
C2345 C 0.9111 0.57128 0.70625 0.0
C2346 C 0.94157 0.60272 0.69411 0.0
C2347 C 0.92022 0.61535 0.67992 0.0
C2348 C 0.89441 0.6055 0.67833 0.0
C2349 C 0.89022 0.58363 0.69128 0.0
C2350 C 0.96941 0.61245 0.69619 0.0
C2351 C 0.87093 0.61836 0.66398 0.0
H2352 H 0.9157 0.69146 0.70628 0.0
H2353 H 0.93257 0.67469 0.59995 0.0
H2354 H 0.89394 0.64127 0.73457 0.0
H2355 H 0.92879 0.63832 0.74365 0.0
H2356 H 0.91272 0.66494 0.75064 0.0
H2357 H 0.94207 0.63716 0.58316 0.0
H2358 H 0.94936 0.61668 0.61655 0.0
H2359 H 0.91577 0.62023 0.60179 0.0
H2360 H 0.9531 0.57149 0.71841 0.0
H2361 H 0.87036 0.57633 0.6902 0.0
H2362 H 0.96972 0.62659 0.71493 0.0
H2363 H 0.97554 0.61927 0.67049 0.0
H2364 H -0.01569 0.59981 0.70467 0.0
H2365 H 0.86676 0.63303 0.68086 0.0
H2366 H 0.85255 0.60788 0.66239 0.0
H2367 H 0.87564 0.6249 0.63761 0.0
C2368 C 0.66602 0.33437 0.39169 0.0
C2369 C 0.64821 0.31912 0.40738 0.0
C2370 C 0.66717 0.35707 0.40213 0.0
C2371 C 0.65035 0.36481 0.42926 0.0
C2372 C 0.6326 0.34938 0.4455 0.0
C2373 C 0.63164 0.32686 0.43427 0.0
C2374 C 0.68617 0.37287 0.38375 0.0
C2375 C 0.61448 0.3567 0.47471 0.0
C2376 C 0.66755 0.4199 0.47618 0.0
C2377 C 0.64969 0.43505 0.46073 0.0
C2378 C 0.66805 0.39707 0.46624 0.0
C2379 C 0.65055 0.38915 0.43984 0.0
C2380 C 0.63279 0.40449 0.42385 0.0
C2381 C 0.63246 0.42709 0.43459 0.0
C2382 C 0.68713 0.38134 0.48428 0.0
C2383 C 0.61398 0.39702 0.39536 0.0
H2384 H 0.67892 0.32862 0.37091 0.0
H2385 H 0.61792 0.31525 0.44676 0.0
H2386 H 0.67479 0.38662 0.37117 0.0
H2387 H 0.69993 0.38073 0.40284 0.0
H2388 H 0.69822 0.36425 0.36355 0.0
H2389 H 0.6026 0.34254 0.48561 0.0
H2390 H 0.62645 0.36433 0.49597 0.0
H2391 H 0.60051 0.36974 0.46517 0.0
H2392 H 0.68091 0.42581 0.49641 0.0
H2393 H 0.61868 0.43862 0.42227 0.0
H2394 H 0.70053 0.37343 0.46492 0.0
H2395 H 0.67578 0.36763 0.49724 0.0
H2396 H 0.69956 0.39004 0.5041 0.0
H2397 H 0.62545 0.38939 0.37372 0.0
H2398 H 0.60197 0.4111 0.3848 0.0
H2399 H 0.60015 0.38395 0.40548 0.0
C2400 C 0.01164 0.32951 0.45333 0.0
C2401 C 0.03758 0.32083 0.45063 0.0
C2402 C 0.00565 0.35141 0.44122 0.0
C2403 C 0.02614 0.36513 0.42671 0.0
C2404 C 0.05228 0.35629 0.42392 0.0
C2405 C 0.05756 0.33438 0.43558 0.0
C2406 C -0.02256 0.35995 0.4442 0.0
C2407 C 0.07502 0.37023 0.40944 0.0
C2408 C 0.01773 0.41933 0.37349 0.0
C2409 C 0.02402 0.4356 0.39855 0.0
C2410 C 0.01629 0.39627 0.38264 0.0
C2411 C 0.02141 0.3894 0.41753 0.0
C2412 C 0.02576 0.40606 0.44316 0.0
C2413 C 0.02688 0.42876 0.4334 0.0
C2414 C 0.01102 0.37918 0.35457 0.0
C2415 C 0.03151 0.39988 0.48057 0.0
H2416 H -0.00401 0.31913 0.46448 0.0
H2417 H 0.0777 0.32793 0.43333 0.0
H2418 H 0.97674 0.37406 0.46296 0.0
H2419 H 0.97059 0.36653 0.41868 0.0
H2420 H 0.96332 0.34668 0.45305 0.0
H2421 H 0.09399 0.36068 0.40794 0.0
H2422 H 0.06997 0.37638 0.38299 0.0
H2423 H 0.07833 0.38518 0.42613 0.0
H2424 H 0.0156 0.4244 0.34652 0.0
H2425 H 0.03144 0.44124 0.45308 0.0
H2426 H -0.00308 0.36607 0.36395 0.0
H2427 H 0.02997 0.37072 0.34763 0.0
H2428 H 0.00271 0.38704 0.33068 0.0
H2429 H 0.01651 0.38767 0.4904 0.0
H2430 H 0.03159 0.41476 0.49795 0.0
H2431 H 0.05136 0.39173 0.48221 0.0
C2432 C 0.77264 0.07457 0.68498 0.0
C2433 C 0.77104 0.06883 0.64956 0.0
C2434 C 0.77093 0.09694 0.69624 0.0
C2435 C 0.7675 0.11436 0.67154 0.0
C2436 C 0.76371 0.10854 0.63594 0.0
C2437 C 0.76555 0.08581 0.62531 0.0
C2438 C 0.77521 0.10199 0.73436 0.0
C2439 C 0.75969 0.12646 0.60871 0.0
C2440 C 0.75694 0.17383 0.70823 0.0
C2441 C 0.78306 0.18254 0.70756 0.0
C2442 C 0.75127 0.15195 0.69566 0.0
C2443 C 0.7722 0.13835 0.68245 0.0
C2444 C 0.79854 0.14714 0.68195 0.0
C2445 C 0.80355 0.16896 0.69426 0.0
C2446 C 0.7229 0.14336 0.69654 0.0
C2447 C 0.82169 0.13334 0.66884 0.0
H2448 H 0.77677 0.06153 0.70397 0.0
H2449 H 0.76454 0.08159 0.59791 0.0
H2450 H 0.79532 0.10953 0.738 0.0
H2451 H 0.76035 0.11431 0.74379 0.0
H2452 H 0.77383 0.08664 0.75076 0.0
H2453 H 0.75247 0.11932 0.58372 0.0
H2454 H 0.74521 0.13919 0.6179 0.0
H2455 H 0.77894 0.13524 0.60384 0.0
H2456 H 0.74091 0.18421 0.71805 0.0
H2457 H 0.82384 0.17539 0.6936 0.0
H2458 H 0.72153 0.12845 0.71382 0.0
H2459 H 0.71672 0.1379 0.67013 0.0
H2460 H 0.70868 0.15624 0.70597 0.0
H2461 H 0.824 0.1181 0.68521 0.0
H2462 H 0.84085 0.14283 0.66916 0.0
H2463 H 0.81778 0.12767 0.64182 0.0
C2464 C 0.38893 0.17617 0.6799 0.0
C2465 C 0.40682 0.18568 0.65585 0.0
C2466 C 0.39226 0.15411 0.69232 0.0
C2467 C 0.41387 0.14099 0.68016 0.0
C2468 C 0.43226 0.15062 0.65626 0.0
C2469 C 0.4286 0.17285 0.64456 0.0
C2470 C 0.37226 0.14468 0.71794 0.0
C2471 C 0.45539 0.13721 0.64228 0.0
C2472 C 0.43024 0.08686 0.73 0.0
C2473 C 0.4156 0.07087 0.7111 0.0
C2474 C 0.43033 0.10972 0.72 0.0
C2475 C 0.41574 0.11667 0.69018 0.0
C2476 C 0.40171 0.10039 0.67048 0.0
C2477 C 0.40169 0.07785 0.68125 0.0
C2478 C 0.44539 0.12654 0.74189 0.0
C2479 C 0.38615 0.10683 0.6383 0.0
H2480 H 0.37218 0.18598 0.6891 0.0
H2481 H 0.4426 0.18006 0.62607 0.0
H2482 H 0.36098 0.13069 0.7057 0.0
H2483 H 0.38271 0.13772 0.741 0.0
H2484 H 0.35778 0.15751 0.72687 0.0
H2485 H 0.46885 0.14749 0.62561 0.0
H2486 H 0.46719 0.13007 0.66405 0.0
H2487 H 0.44771 0.12291 0.62669 0.0
H2488 H 0.44099 0.08163 0.7531 0.0
H2489 H 0.39051 0.06563 0.66621 0.0
H2490 H 0.43115 0.13859 0.75357 0.0
H2491 H 0.45939 0.13638 0.72541 0.0
H2492 H 0.45686 0.1184 0.76316 0.0
H2493 H 0.3696 0.11822 0.6455 0.0
H2494 H 0.37756 0.092 0.62475 0.0
H2495 H 0.39923 0.11606 0.6198 0.0
C2496 C 0.19084 0.83619 0.36978 0.0
C2497 C 0.18754 0.81907 0.39451 0.0
C2498 C 0.19174 0.85903 0.38015 0.0
C2499 C 0.18918 0.86478 0.41596 0.0
C2500 C 0.18795 0.84732 0.44095 0.0
C2501 C 0.18714 0.82487 0.42994 0.0
C2502 C 0.19361 0.87703 0.35261 0.0
C2503 C 0.18513 0.85227 0.47933 0.0
C2504 C 0.19905 0.92413 0.45319 0.0
C2505 C 0.17266 0.93198 0.45467 0.0
C2506 C 0.20498 0.90272 0.43933 0.0
C2507 C 0.18402 0.88858 0.42727 0.0
C2508 C 0.15739 0.89651 0.42879 0.0
C2509 C 0.15213 0.91804 0.44209 0.0
C2510 C 0.23366 0.89516 0.43775 0.0
C2511 C 0.13424 0.88204 0.41706 0.0
H2512 H 0.19086 0.83192 0.34237 0.0
H2513 H 0.18455 0.81173 0.44926 0.0
H2514 H 0.17374 0.88489 0.34911 0.0
H2515 H 0.20776 0.89043 0.36068 0.0
H2516 H 0.20014 0.87014 0.32715 0.0
H2517 H 0.18773 0.837 0.49563 0.0
H2518 H 0.19995 0.86506 0.48766 0.0
H2519 H 0.16496 0.8592 0.48442 0.0
H2520 H 0.21511 0.93485 0.46238 0.0
H2521 H 0.13167 0.92388 0.44304 0.0
H2522 H 0.23867 0.88974 0.41091 0.0
H2523 H 0.23654 0.88045 0.45507 0.0
H2524 H 0.24781 0.90861 0.44572 0.0
H2525 H 0.1372 0.87672 0.38968 0.0
H2526 H 0.1148 0.89086 0.419 0.0
H2527 H 0.13321 0.8666 0.43324 0.0
C2528 C 0.52151 0.83818 0.49684 0.0
C2529 C 0.51504 0.8195 0.47632 0.0
C2530 C 0.52023 0.86023 0.48321 0.0
C2531 C 0.51285 0.86375 0.44789 0.0
C2532 C 0.50456 0.84495 0.42788 0.0
C2533 C 0.50585 0.82316 0.44228 0.0
C2534 C 0.52895 0.87959 0.50584 0.0
C2535 C 0.49661 0.84752 0.39021 0.0
C2536 C 0.50466 0.92453 0.41444 0.0
C2537 C 0.53048 0.92931 0.40213 0.0
C2538 C 0.49829 0.90319 0.42882 0.0
C2539 C 0.51809 0.88616 0.4306 0.0
C2540 C 0.54377 0.89078 0.4167 0.0
C2541 C 0.54963 0.91218 0.40307 0.0
C2542 C 0.47075 0.89919 0.44347 0.0
C2543 C 0.56553 0.87329 0.41726 0.0
H2544 H 0.52932 0.83548 0.52283 0.0
H2545 H 0.50138 0.80878 0.42601 0.0
H2546 H 0.549 0.88548 0.49745 0.0
H2547 H 0.515 0.8939 0.50305 0.0
H2548 H 0.53004 0.87476 0.53375 0.0
H2549 H 0.48541 0.83261 0.38065 0.0
H2550 H 0.48417 0.86267 0.38632 0.0
H2551 H 0.51487 0.84952 0.37408 0.0
H2552 H 0.48989 0.93777 0.4145 0.0
H2553 H 0.56967 0.91573 0.39377 0.0
H2554 H 0.47201 0.89753 0.4722 0.0
H2555 H 0.46229 0.88325 0.43329 0.0
H2556 H 0.45686 0.9131 0.43715 0.0
H2557 H 0.57064 0.86903 0.44458 0.0
H2558 H 0.58398 0.8791 0.40385 0.0
H2559 H 0.55844 0.85766 0.40452 0.0
C2560 C 0.77105 0.57288 0.19 0.0
C2561 C 0.77217 0.56796 0.15428 0.0
C2562 C 0.76833 0.59498 0.20216 0.0
C2563 C 0.76668 0.61292 0.17805 0.0
C2564 C 0.76545 0.60788 0.14187 0.0
C2565 C 0.76827 0.58542 0.13034 0.0
C2566 C 0.76979 0.59917 0.24088 0.0
C2567 C 0.76324 0.62638 0.1152 0.0
C2568 C 0.75403 0.67183 0.21573 0.0
C2569 C 0.78011 0.68052 0.21782 0.0
C2570 C 0.74911 0.65012 0.20202 0.0
C2571 C 0.77076 0.63665 0.19062 0.0
C2572 C 0.79708 0.64535 0.19319 0.0
C2573 C 0.80134 0.66705 0.20644 0.0
C2574 C 0.72075 0.64165 0.19945 0.0
C2575 C 0.82095 0.63163 0.18221 0.0
H2576 H 0.774 0.55945 0.2087 0.0
H2577 H 0.76937 0.58182 0.10274 0.0
H2578 H 0.78965 0.60637 0.24741 0.0
H2579 H 0.75449 0.61148 0.24905 0.0
H2580 H 0.76697 0.5835 0.2562 0.0
H2581 H 0.75768 0.61977 0.08915 0.0
H2582 H 0.7482 0.63893 0.12336 0.0
H2583 H 0.78273 0.6352 0.11291 0.0
H2584 H 0.73747 0.68218 0.224 0.0
H2585 H 0.82159 0.67351 0.20795 0.0
H2586 H 0.71831 0.62617 0.21525 0.0
H2587 H 0.71611 0.63717 0.17208 0.0
H2588 H 0.70605 0.65427 0.20851 0.0
H2589 H 0.82189 0.61598 0.19786 0.0
H2590 H 0.84009 0.64091 0.18547 0.0
H2591 H 0.81897 0.62668 0.15451 0.0
C2592 C 0.38784 0.57992 0.18615 0.0
C2593 C 0.40748 0.56986 0.20703 0.0
C2594 C 0.39063 0.60216 0.17409 0.0
C2595 C 0.41364 0.61487 0.18305 0.0
C2596 C 0.43383 0.60464 0.20347 0.0
C2597 C 0.43053 0.58232 0.21516 0.0
C2598 C 0.3685 0.61231 0.1526 0.0
C2599 C 0.45859 0.61752 0.21388 0.0
C2600 C 0.42587 0.67045 0.1342 0.0
C2601 C 0.41397 0.68592 0.15682 0.0
C2602 C 0.42654 0.64728 0.14259 0.0
C2603 C 0.41508 0.63946 0.17429 0.0
C2604 C 0.4038 0.6552 0.1975 0.0
C2605 C 0.40346 0.67803 0.18855 0.0
C2606 C 0.43874 0.63107 0.1171 0.0
C2607 C 0.39132 0.64788 0.23154 0.0
H2608 H 0.37002 0.57047 0.17946 0.0
H2609 H 0.44592 0.57473 0.23108 0.0
H2610 H 0.35883 0.62601 0.16746 0.0
H2611 H 0.37674 0.61982 0.12841 0.0
H2612 H 0.35297 0.59976 0.14544 0.0
H2613 H 0.47344 0.6067 0.22724 0.0
H2614 H 0.46812 0.6252 0.19064 0.0
H2615 H 0.45305 0.63139 0.23167 0.0
H2616 H 0.43392 0.67631 0.1096 0.0
H2617 H 0.39431 0.68975 0.20646 0.0
H2618 H 0.42304 0.61963 0.10693 0.0
H2619 H 0.45385 0.62051 0.13035 0.0
H2620 H 0.44837 0.63981 0.09479 0.0
H2621 H 0.3741 0.63657 0.22639 0.0
H2622 H 0.38417 0.66229 0.24724 0.0
H2623 H 0.40597 0.63829 0.24724 0.0
C2624 C 0.1365 0.42655 0.93216 0.0
C2625 C 0.15333 0.43478 0.9585 0.0
C2626 C 0.13824 0.40419 0.92057 0.0
C2627 C 0.15707 0.38947 0.93587 0.0
C2628 C 0.1742 0.39771 0.96239 0.0
C2629 C 0.17223 0.42025 0.97323 0.0
C2630 C 0.11972 0.39626 0.89206 0.0
C2631 C 0.19436 0.3826 0.97971 0.0
C2632 C 0.14141 0.32678 0.93072 0.0
C2633 C 0.1581 0.3196 0.90359 0.0
C2634 C 0.14125 0.34928 0.94177 0.0
C2635 C 0.15798 0.36526 0.92511 0.0
C2636 C 0.17499 0.35813 0.89776 0.0
C2637 C 0.17496 0.33538 0.88746 0.0
C2638 C 0.12299 0.35598 0.97123 0.0
C2639 C 0.19296 0.37459 0.87904 0.0
H2640 H 0.12194 0.43764 0.92042 0.0
H2641 H 0.18533 0.42643 0.99357 0.0
H2642 H 0.13146 0.38914 0.87025 0.0
H2643 H 0.10654 0.38269 0.90209 0.0
H2644 H 0.10701 0.40999 0.88177 0.0
H2645 H 0.20664 0.39164 0.99932 0.0
H2646 H 0.18392 0.36844 0.99278 0.0
H2647 H 0.20786 0.37528 0.9599 0.0
H2648 H 0.12839 0.31474 0.94352 0.0
H2649 H 0.18789 0.33003 0.86646 0.0
H2650 H 0.10834 0.36854 0.96189 0.0
H2651 H 0.13474 0.36399 0.99236 0.0
H2652 H 0.11187 0.34144 0.98227 0.0
H2653 H 0.18075 0.38788 0.86662 0.0
H2654 H 0.20527 0.3664 0.85868 0.0
H2655 H 0.20647 0.38298 0.89791 0.0
C2656 C 0.51429 0.33137 0.99328 0.0
C2657 C 0.52069 0.31499 0.96851 0.0
C2658 C 0.513 0.35437 0.98378 0.0
C2659 C 0.51837 0.36108 0.94885 0.0
C2660 C 0.52286 0.34429 0.92352 0.0
C2661 C 0.52384 0.32165 0.93361 0.0
C2662 C 0.50755 0.3716 1.01154 0.0
C2663 C 0.52886 0.35029 0.88608 0.0
C2664 C 0.50864 0.42059 0.91194 0.0
C2665 C 0.53454 0.42957 0.91465 0.0
C2666 C 0.50264 0.39873 0.9244 0.0
C2667 C 0.5231 0.38534 0.93933 0.0
C2668 C 0.54919 0.39448 0.94218 0.0
C2669 C 0.55448 0.41636 0.93013 0.0
C2670 C 0.47448 0.38987 0.92131 0.0
C2671 C 0.57189 0.3809 0.95713 0.0
H2672 H 0.51194 0.32644 1.02028 0.0
H2673 H 0.5285 0.30908 0.91416 0.0
H2674 H 0.52645 0.38029 1.01849 0.0
H2675 H 0.49346 0.3845 1.00183 0.0
H2676 H 0.49914 0.36382 1.03549 0.0
H2677 H 0.52909 0.33529 0.86893 0.0
H2678 H 0.5139 0.36228 0.87588 0.0
H2679 H 0.5487 0.35862 0.88454 0.0
H2680 H 0.49301 0.43071 0.90045 0.0
H2681 H 0.57458 0.42304 0.93241 0.0
H2682 H 0.46752 0.38338 0.94686 0.0
H2683 H 0.47393 0.37564 0.90275 0.0
H2684 H 0.46036 0.40293 0.91213 0.0
H2685 H 0.56668 0.37488 0.98363 0.0
H2686 H 0.59081 0.39067 0.95867 0.0
H2687 H 0.57536 0.36587 0.94074 0.0
C2688 C 0.20714 0.96372 1.04462 0.0
C2689 C 0.23483 0.96509 1.04159 0.0
C2690 C 0.19162 0.95829 1.01564 0.0
C2691 C 0.20445 0.95449 0.98327 0.0
C2692 C 0.23246 0.95226 0.98174 0.0
C2693 C 0.2475 0.95778 1.01114 0.0
C2694 C 0.16161 0.95988 1.01861 0.0
C2695 C 0.24675 0.94698 0.94819 0.0
C2696 C 0.15111 0.95137 0.91567 0.0
C2697 C 0.14697 0.9744 0.91075 0.0
C2698 C 0.17247 0.9439 0.93602 0.0
C2699 C 0.18952 0.95999 0.95145 0.0
C2700 C 0.18755 0.98297 0.94211 0.0
C2701 C 0.16602 0.98992 0.9219 0.0
C2702 C 0.17487 0.91917 0.94384 0.0
C2703 C 0.20611 1.00063 0.95691 0.0
H2704 H 0.19753 0.96872 0.06868 0.0
H2705 H 0.26912 0.95812 1.0093 0.0
H2706 H 0.15476 0.97572 1.00631 0.0
H2707 H 0.15182 0.94574 1.00482 0.0
H2708 H 0.15486 0.95977 1.04616 0.0
H2709 H 0.26561 0.93781 0.95341 0.0
H2710 H 0.23408 0.93681 0.93045 0.0
H2711 H 0.25206 0.96288 0.93472 0.0
H2712 H 0.13656 0.93933 0.90611 0.0
H2713 H 0.16304 0.00768 0.91701 0.0
H2714 H 0.16169 0.91481 0.96609 0.0
H2715 H 0.19563 0.91449 0.95078 0.0
H2716 H 0.16831 0.90898 0.92118 0.0
H2717 H 0.2022 0.00263 0.98518 0.0
H2718 H 0.20345 0.01722 0.94414 0.0
H2719 H 0.22723 0.99552 0.95377 0.0
C2720 C 0.04161 0.25535 0.89873 0.0
C2721 C 0.05982 0.2377 0.89739 0.0
C2722 C 0.01813 0.25297 0.91791 0.0
C2723 C 0.01392 0.23283 0.93663 0.0
C2724 C 0.02974 0.21376 0.92987 0.0
C2725 C 0.05279 0.21643 0.9099 0.0
C2726 C 0.00034 0.27308 0.92276 0.0
C2727 C 0.02495 0.19172 0.9483 0.0
C2728 C 0.00065 0.24506 1.03093 0.0
C2729 C 0.97379 0.23933 1.03344 0.0
C2730 C 0.01413 0.24222 0.9995 0.0
C2731 C -0.0001 0.23412 0.97002 0.0
C2732 C 0.97269 0.22822 0.97262 0.0
C2733 C 0.95997 0.23071 1.00462 0.0
C2734 C 0.04345 0.24839 0.99777 0.0
C2735 C 0.95656 0.2204 0.94166 0.0
H2736 H 0.04679 0.27155 0.88762 0.0
H2737 H 0.06667 0.20258 0.90761 0.0
H2738 H -0.02089 0.26786 0.92505 0.0
H2739 H 0.00601 0.28188 0.94713 0.0
H2740 H 0.0024 0.28513 0.90079 0.0
H2741 H 0.03489 0.17761 0.93463 0.0
H2742 H 0.03323 0.19275 0.97507 0.0
H2743 H 0.00328 0.18803 0.95046 0.0
H2744 H 0.01102 0.25174 1.05346 0.0
H2745 H 0.93887 0.22669 1.00667 0.0
H2746 H 0.04634 0.26292 0.98003 0.0
H2747 H 0.05516 0.23416 0.98727 0.0
H2748 H 0.05172 0.25292 1.02367 0.0
H2749 H 0.96882 0.21093 0.92272 0.0
H2750 H 0.94829 0.23528 0.92807 0.0
H2751 H 0.93944 0.2097 0.94992 0.0
C2752 C 0.24692 0.29596 0.32853 0.0
C2753 C 0.23605 0.28435 0.3001 0.0
C2754 C 0.23198 0.29918 0.35864 0.0
C2755 C 0.20551 0.2911 0.3595 0.0
C2756 C 0.19342 0.28202 0.32921 0.0
C2757 C 0.20911 0.27843 0.29971 0.0
C2758 C 0.24564 0.30872 0.39043 0.0
C2759 C 0.16476 0.27399 0.32906 0.0
C2760 C 0.17336 0.2612 0.43353 0.0
C2761 C 0.1537 0.27669 0.44218 0.0
C2762 C 0.19301 0.26689 0.40935 0.0
C2763 C 0.1919 0.28818 0.39296 0.0
C2764 C 0.17405 0.30474 0.4048 0.0
C2765 C 0.15521 0.29882 0.42995 0.0
C2766 C 0.21291 0.24927 0.39848 0.0
C2767 C 0.17256 0.32763 0.38801 0.0
H2768 H 0.26782 0.30085 0.32851 0.0
H2769 H 0.20078 0.26979 0.27736 0.0
H2770 H 0.23151 0.31774 0.4076 0.0
H2771 H 0.25447 0.29475 0.40567 0.0
H2772 H 0.2621 0.32036 0.383 0.0
H2773 H 0.15735 0.27086 0.30224 0.0
H2774 H 0.16316 0.25809 0.34405 0.0
H2775 H 0.15159 0.28648 0.34172 0.0
H2776 H 0.17226 0.24423 0.44376 0.0
H2777 H 0.14 0.31085 0.43719 0.0
H2778 H 0.23302 0.2568 0.39487 0.0
H2779 H 0.20664 0.2419 0.37323 0.0
H2780 H 0.21431 0.23549 0.41793 0.0
H2781 H 0.19276 0.33424 0.38182 0.0
H2782 H 0.16209 0.33986 0.40494 0.0
H2783 H 0.16134 0.32626 0.36317 0.0
C2784 C -0.00724 0.98027 0.32228 0.0
C2785 C 0.96609 0.98657 0.32291 0.0
C2786 C 0.00652 0.97731 0.3535 0.0
C2787 C -0.00738 0.98006 0.38545 0.0
C2788 C 0.96485 0.98371 0.38574 0.0
C2789 C 0.95192 0.98752 0.35421 0.0
C2790 C 0.03629 0.97332 0.35221 0.0
C2791 C 0.94903 0.98525 0.41902 0.0
C2792 C 0.04283 0.96882 0.45384 0.0
C2793 C 0.05464 0.99014 0.45517 0.0
C2794 C 0.01929 0.96555 0.43504 0.0
C2795 C 0.00829 0.98397 0.41705 0.0
C2796 C 0.01786 0.00602 0.42312 0.0
C2797 C 0.04114 0.00885 0.44243 0.0
C2798 C 0.00821 0.94211 0.43102 0.0
C2799 C 0.00589 0.02624 0.40528 0.0
H2800 H 0.00319 0.97916 0.29759 0.0
H2801 H 0.93083 0.99165 0.35409 0.0
H2802 H 0.04702 0.98811 0.36295 0.0
H2803 H 0.04163 0.95858 0.36837 0.0
H2804 H 0.04356 0.9704 0.32527 0.0
H2805 H 0.92851 0.97856 0.41503 0.0
H2806 H 0.95858 0.97592 0.44069 0.0
H2807 H 0.94727 0.00312 0.4267 0.0
H2808 H 0.053 0.95447 0.46499 0.0
H2809 H 0.05003 0.02542 0.44471 0.0
H2810 H 0.01701 0.93422 0.40755 0.0
H2811 H -0.01381 0.94233 0.42772 0.0
H2812 H 0.0133 0.93149 0.45386 0.0
H2813 H 0.0102 0.02552 0.37696 0.0
H2814 H 0.01406 0.04227 0.41563 0.0
H2815 H -0.0161 0.02633 0.40855 0.0
C2816 C 0.78148 0.02064 0.19486 0.0
C2817 C 0.80331 0.03412 0.20346 0.0
C2818 C 0.76317 0.02795 0.16995 0.0
C2819 C 0.76797 0.04866 0.15273 0.0
C2820 C 0.78696 0.06391 0.16616 0.0
C2821 C 0.80452 0.05644 0.19192 0.0
C2822 C 0.74162 0.0119 0.15802 0.0
C2823 C 0.79169 0.08658 0.14967 0.0
C2824 C 0.76471 0.03135 0.06016 0.0
C2825 C 0.73822 0.03639 1.05298 0.0
C2826 C 0.77627 0.03859 0.09124 0.0
C2827 C 0.76023 0.05015 0.11585 0.0
C2828 C 0.73451 0.05764 0.10653 0.0
C2829 C 0.72374 0.05067 0.07477 0.0
C2830 C 0.8044 0.0312 0.09952 0.0
C2831 C 0.71702 0.07046 0.13144 0.0
H2832 H 0.78018 0.00364 0.20492 0.0
H2833 H 0.82109 0.06714 0.19958 0.0
H2834 H 0.72286 0.02101 0.15233 0.0
H2835 H 0.74814 0.00346 0.13374 0.0
H2836 H 0.73742 0.99877 0.17789 0.0
H2837 H 0.79972 0.0987 0.16901 0.0
H2838 H 0.80668 0.0849 0.12855 0.0
H2839 H 0.77311 0.09343 0.13817 0.0
H2840 H 0.77564 0.02033 1.04286 0.0
H2841 H 0.70307 0.05446 0.06872 0.0
H2842 H 0.80376 0.01704 0.11833 0.0
H2843 H 0.81594 0.04509 0.11156 0.0
H2844 H 0.81521 0.02552 0.07589 0.0
H2845 H 0.70356 0.05852 0.14516 0.0
H2846 H 0.70424 0.08253 0.11706 0.0
H2847 H 0.72884 0.07972 0.15123 0.0
C2848 C -0.00086 0.74762 0.10691 0.0
C2849 C -0.01376 0.74534 0.07477 0.0
C2850 C -0.01474 0.7441 0.13787 0.0
C2851 C 0.95775 0.73912 0.13616 0.0
C2852 C 0.94496 0.73572 0.10358 0.0
C2853 C 0.95968 0.7385 0.073 0.0
C2854 C -0.00033 0.74656 0.17222 0.0
C2855 C 0.91542 0.73069 0.10093 0.0
C2856 C 0.90942 0.72303 0.20575 0.0
C2857 C 0.89654 0.74362 0.20997 0.0
C2858 C 0.93215 0.7216 0.18481 0.0
C2859 C 0.94122 0.74112 0.16745 0.0
C2860 C 0.93016 0.76234 0.17522 0.0
C2861 C 0.90796 0.76333 0.19694 0.0
C2862 C 0.9445 0.69893 0.17842 0.0
C2863 C 0.93939 0.78358 0.15716 0.0
H2864 H 0.0201 0.75227 0.10781 0.0
H2865 H 0.95017 0.73648 1.04783 0.0
H2866 H -0.00877 0.76073 0.18725 0.0
H2867 H -0.0032 0.73116 0.18811 0.0
H2868 H 0.02143 0.74957 0.16874 0.0
H2869 H 0.90892 0.72783 0.07364 0.0
H2870 H 0.91031 0.71558 0.1165 0.0
H2871 H 0.90385 0.74494 0.11168 0.0
H2872 H 0.90074 0.70787 0.21673 0.0
H2873 H 0.89813 0.7793 0.20101 0.0
H2874 H 0.96633 0.70038 0.17393 0.0
H2875 H 0.93541 0.6913 0.15488 0.0
H2876 H 0.94087 0.68737 0.20068 0.0
H2877 H 0.96143 0.78518 0.15817 0.0
H2878 H 0.93052 0.79886 0.16893 0.0
H2879 H 0.93349 0.78294 0.12932 0.0
C2880 C 0.82408 0.6971 0.70139 0.0
C2881 C 0.81768 0.71548 0.68029 0.0
C2882 C 0.80652 0.69025 0.72772 0.0
C2883 C 0.78223 0.70191 0.73185 0.0
C2884 C 0.77381 0.71744 0.70616 0.0
C2885 C 0.79211 0.72458 0.68106 0.0
C2886 C 0.81581 0.67314 0.75397 0.0
C2887 C 0.7472 0.72917 0.70845 0.0
C2888 C 0.73137 0.69868 0.80331 0.0
C2889 C 0.73779 0.71856 0.8208 0.0
C2890 C 0.74736 0.69125 0.7758 0.0
C2891 C 0.77026 0.7039 0.76671 0.0
C2892 C 0.77849 0.7223 0.78763 0.0
C2893 C 0.76164 0.72978 0.814 0.0
C2894 C 0.73797 0.67151 0.75444 0.0
C2895 C 0.80349 0.73571 0.77977 0.0
H2896 H 0.84389 0.68985 0.7001 0.0
H2897 H 0.78716 0.73842 0.66386 0.0
H2898 H 0.82626 0.6819 0.77554 0.0
H2899 H 0.79877 0.66363 0.76525 0.0
H2900 H 0.83007 0.66115 0.74205 0.0
H2901 H 0.74154 0.7369 0.68318 0.0
H2902 H 0.73124 0.71727 0.71649 0.0
H2903 H 0.7484 0.74268 0.72826 0.0
H2904 H 0.7127 0.69011 0.809 0.0
H2905 H 0.76641 0.74504 0.82811 0.0
H2906 H 0.75469 0.66312 0.74079 0.0
H2907 H 0.72357 0.67748 0.73454 0.0
H2908 H 0.72746 0.65901 0.77107 0.0
H2909 H 0.82051 0.72441 0.77432 0.0
H2910 H 0.80908 0.74695 0.80167 0.0
H2911 H 0.80016 0.74626 0.75633 0.0
C2912 C 0.90954 0.04011 0.67572 0.0
C2913 C 0.88274 0.04621 0.67748 0.0
C2914 C 0.92665 0.04492 0.70341 0.0
C2915 C 0.91594 0.05482 0.73382 0.0
C2916 C 0.88995 0.06395 0.73339 0.0
C2917 C 0.87358 0.05978 0.7046 0.0
C2918 C 0.95491 0.03625 0.70219 0.0
C2919 C 0.87798 0.07491 0.76509 0.0
C2920 C 0.94166 0.01984 0.8074 0.0
C2921 C 0.96203 0.03356 0.82001 0.0
C2922 C 0.9244 0.02772 0.78166 0.0
C2923 C 0.92871 0.04943 0.76733 0.0
C2924 C 0.94812 0.06391 0.78183 0.0
C2925 C 0.96441 0.05583 0.8086 0.0
C2926 C 0.90307 0.01207 0.76782 0.0
C2927 C 0.95365 0.08696 0.76707 0.0
H2928 H 0.91649 0.0299 0.65422 0.0
H2929 H 0.85271 0.0646 0.70552 0.0
H2930 H 0.96882 0.04802 0.71541 0.0
H2931 H 0.95589 0.01986 0.71593 0.0
H2932 H 0.96177 0.03373 0.67498 0.0
H2933 H 0.86134 0.08627 0.75784 0.0
H2934 H 0.86985 0.06167 0.78258 0.0
H2935 H 0.89318 0.08456 0.77988 0.0
H2936 H 0.93988 0.00269 0.81673 0.0
H2937 H -0.0196 0.06637 0.81854 0.0
H2938 H 0.90919 0.00563 0.74195 0.0
H2939 H 0.88389 0.02108 0.7645 0.0
H2940 H 0.89968 0.99747 0.78534 0.0
H2941 H 0.93549 0.09468 0.75581 0.0
H2942 H 0.96872 0.08553 0.74601 0.0
H2943 H 0.96194 0.09834 0.7873 0.0
C2944 C 0.23381 0.47271 0.53903 0.0
C2945 C 0.21943 0.48574 0.56274 0.0
C2946 C 0.22258 0.46661 0.5072 0.0
C2947 C 0.19646 0.47382 0.49951 0.0
C2948 C 0.18137 0.48598 0.52448 0.0
C2949 C 0.1933 0.49204 0.55594 0.0
C2950 C 0.23941 0.4539 0.48132 0.0
C2951 C 0.15315 0.49364 0.51733 0.0
C2952 C 0.16549 0.49188 0.4175 0.0
C2953 C 0.14438 0.47649 0.41695 0.0
C2954 C 0.18632 0.48908 0.4412 0.0
C2955 C 0.18519 0.47074 0.46459 0.0
C2956 C 0.16681 0.45306 0.45919 0.0
C2957 C 0.1463 0.45619 0.43513 0.0
C2958 C 0.20677 0.50759 0.44508 0.0
C2959 C 0.16604 0.43271 0.4826 0.0
H2960 H 0.25434 0.4682 0.54474 0.0
H2961 H 0.18262 0.50225 0.57462 0.0
H2962 H 0.2271 0.443 0.46423 0.0
H2963 H 0.25026 0.46609 0.46456 0.0
H2964 H 0.25455 0.44341 0.49474 0.0
H2965 H 0.14382 0.5016 0.54044 0.0
H2966 H 0.15317 0.50601 0.4957 0.0
H2967 H 0.14052 0.4792 0.50931 0.0
H2968 H 0.16432 0.50721 0.40229 0.0
H2969 H 0.13031 0.44388 0.43351 0.0
H2970 H 0.22666 0.50062 0.45155 0.0
H2971 H 0.20071 0.51884 0.46666 0.0
H2972 H 0.20849 0.51782 0.42095 0.0
H2973 H 0.18648 0.42745 0.49006 0.0
H2974 H 0.15564 0.4184 0.46986 0.0
H2975 H 0.15503 0.43691 0.50679 0.0
C2976 C 0.04568 0.76397 0.41694 0.0
C2977 C 0.06687 0.77918 0.41435 0.0
C2978 C 0.02348 0.76913 0.43736 0.0
C2979 C 0.023 0.78986 0.4553 0.0
C2980 C 0.04233 0.80655 0.44811 0.0
C2981 C 0.06438 0.80091 0.42774 0.0
C2982 C 0.00252 0.75125 0.4435 0.0
C2983 C 0.04156 0.82924 0.46545 0.0
C2984 C 0.96506 0.79454 0.51712 0.0
C2985 C 0.97598 0.78412 0.54655 0.0
C2986 C -0.01933 0.79822 0.48747 0.0
C2987 C 0.00755 0.79119 0.48774 0.0
C2988 C 0.01914 0.78242 0.51857 0.0
C2989 C 0.00307 0.77896 0.54772 0.0
C2990 C 0.96772 0.808 0.45541 0.0
C2991 C 0.04799 0.77507 0.52005 0.0
H2992 H 0.04743 0.74738 0.40561 0.0
H2993 H 0.08055 0.81293 0.42461 0.0
H2994 H 0.00576 0.74348 0.46944 0.0
H2995 H -0.01775 0.75865 0.44338 0.0
H2996 H 0.00337 0.73781 0.42351 0.0
H2997 H 0.05362 0.84183 0.45087 0.0
H2998 H 0.02074 0.83536 0.46775 0.0
H2999 H 0.04992 0.82783 0.49212 0.0
H3000 H 0.94399 0.79869 0.5165 0.0
H3001 H 0.0114 0.77117 0.57081 0.0
H3002 H 0.95864 0.79423 0.43994 0.0
H3003 H -0.01767 0.81698 0.43865 0.0
H3004 H 0.95148 0.81976 0.4626 0.0
H3005 H 0.05105 0.76063 0.5023 0.0
H3006 H 0.05413 0.76994 0.54668 0.0
H3007 H 0.06135 0.78887 0.51129 0.0
C3008 C 0.2145 0.79426 0.81871 0.0
C3009 C 0.24229 0.79454 0.8197 0.0
C3010 C 0.19991 0.79906 0.84867 0.0
C3011 C 0.21384 0.80355 0.88009 0.0
C3012 C 0.2417 0.8071 0.87973 0.0
C3013 C 0.25575 0.80262 0.84915 0.0
C3014 C 0.16992 0.7962 0.84769 0.0
C3015 C 0.25712 0.81271 0.91235 0.0
C3016 C 0.16197 0.80614 0.94883 0.0
C3017 C 0.15766 0.78304 0.95312 0.0
C3018 C 0.18329 0.81389 0.92859 0.0
C3019 C 0.20024 0.798 0.91289 0.0
C3020 C 0.19848 0.775 0.92226 0.0
C3021 C 0.17675 0.76771 0.94203 0.0
C3022 C 0.18538 0.83862 0.9205 0.0
C3023 C 0.21722 0.75765 0.90746 0.0
H3024 H 0.20425 0.78861 0.7954 0.0
H3025 H 0.2774 0.80335 0.84945 0.0
H3026 H 0.16433 0.78004 0.86024 0.0
H3027 H 0.15999 0.80988 0.86223 0.0
H3028 H 0.16212 0.79608 0.82061 0.0
H3029 H 0.27519 0.82283 0.90606 0.0
H3030 H 0.24474 0.82202 0.93137 0.0
H3031 H 0.26388 0.79693 0.92487 0.0
H3032 H 0.14742 0.81804 0.95845 0.0
H3033 H 0.17367 0.7499 0.94654 0.0
H3034 H 0.17254 0.84255 0.89777 0.0
H3035 H 0.20616 0.84366 0.91404 0.0
H3036 H 0.17828 0.84883 0.9428 0.0
H3037 H 0.21237 0.75477 0.87962 0.0
H3038 H 0.21559 0.74135 0.9214 0.0
H3039 H 0.23821 0.76358 0.90897 0.0
C3040 C 0.04513 0.53927 0.95813 0.0
C3041 C 0.05158 0.51744 0.96841 0.0
C3042 C 0.02219 0.543 0.93845 0.0
C3043 C 0.00592 0.52439 0.9299 0.0
C3044 C 0.00922 0.50368 0.94731 0.0
C3045 C 0.03272 0.50019 0.96597 0.0
C3046 C 0.01843 0.56563 0.92151 0.0
C3047 C -0.0093 0.48408 0.9409 0.0
C3048 C 0.95519 0.5278 0.85807 0.0
C3049 C 0.96996 0.51901 0.83028 0.0
C3050 C 0.9666 0.53008 0.89094 0.0
C3051 C -0.0065 0.52392 0.89541 0.0
C3052 C 0.00884 0.51598 0.86681 0.0
C3053 C -0.00342 0.51322 0.83453 0.0
C3054 C 0.94932 0.53774 0.92084 0.0
C3055 C 0.03795 0.50969 0.87038 0.0
H3056 H 0.05949 0.5528 0.96144 0.0
H3057 H 0.03742 0.48353 0.97555 0.0
H3058 H 0.02795 0.56551 0.8954 0.0
H3059 H -0.00305 0.56948 0.918 0.0
H3060 H 0.02793 0.5792 0.93708 0.0
H3061 H -0.00818 0.47161 0.96238 0.0
H3062 H 0.96975 0.4898 0.93812 0.0
H3063 H -0.00346 0.4756 0.91636 0.0
H3064 H 0.93427 0.5319 0.85458 0.0
H3065 H 0.00767 0.50643 0.81273 0.0
H3066 H 0.93271 0.5485 0.91156 0.0
H3067 H 0.96091 0.54705 0.94077 0.0
H3068 H 0.94037 0.52278 0.93362 0.0
H3069 H 0.0494 0.52357 0.88262 0.0
H3070 H 0.0473 0.50583 0.84487 0.0
H3071 H 0.03982 0.49466 0.88727 0.0
C3072 C 0.74687 0.49077 0.58134 0.0
C3073 C 0.71985 0.4858 0.57825 0.0
C3074 C 0.75942 0.48887 0.61359 0.0
C3075 C 0.744 0.48277 0.64326 0.0
C3076 C 0.71682 0.47701 0.63989 0.0
C3077 C 0.70509 0.4783 0.60708 0.0
C3078 C 0.78885 0.49445 0.61609 0.0
C3079 C 0.69954 0.47111 0.67084 0.0
C3080 C 0.79366 0.47073 0.711 0.0
C3081 C 0.80058 0.49297 0.71866 0.0
C3082 C 0.77162 0.46623 0.68997 0.0
C3083 C 0.75641 0.48448 0.67767 0.0
C3084 C 0.76006 0.50618 0.6918 0.0
C3085 C 0.78282 0.51037 0.7117 0.0
C3086 C 0.76775 0.44274 0.67618 0.0
C3087 C 0.74265 0.52561 0.68116 0.0
H3088 H 0.75799 0.4965 0.55874 0.0
H3089 H 0.68391 0.47475 0.60448 0.0
H3090 H 0.79157 0.51049 0.63032 0.0
H3091 H 0.79958 0.48119 0.6307 0.0
H3092 H 0.7983 0.49625 0.59005 0.0
H3093 H 0.68243 0.4603 0.66304 0.0
H3094 H 0.71095 0.46247 0.69162 0.0
H3095 H 0.69134 0.48678 0.68201 0.0
H3096 H 0.80717 0.45719 0.71755 0.0
H3097 H 0.7879 0.52745 0.71901 0.0
H3098 H 0.77866 0.44111 0.65115 0.0
H3099 H 0.74637 0.43903 0.67121 0.0
H3100 H 0.77579 0.43003 0.69456 0.0
H3101 H 0.74944 0.53214 0.65555 0.0
H3102 H 0.74384 0.53952 0.70034 0.0
H3103 H 0.72151 0.5202 0.67848 0.0
C3104 C 0.00189 0.2466 0.59887 0.0
C3105 C -0.01344 0.24495 0.56851 0.0
C3106 C -0.00966 0.24304 0.63139 0.0
C3107 C 0.96272 0.2386 0.63313 0.0
C3108 C 0.9474 0.23595 0.60222 0.0
C3109 C 0.95981 0.23874 0.56997 0.0
C3110 C 0.00757 0.24434 0.66361 0.0
C3111 C 0.91763 0.23158 0.60312 0.0
C3112 C 0.91547 0.22242 0.70252 0.0
C3113 C 0.90299 0.24319 0.7066 0.0
C3114 C 0.9388 0.22093 0.68276 0.0
C3115 C 0.94861 0.24052 0.66635 0.0
C3116 C 0.93862 0.26187 0.67554 0.0
C3117 C 0.91581 0.26293 0.69609 0.0
C3118 C 0.95071 0.1982 0.67567 0.0
C3119 C 0.94915 0.28328 0.65926 0.0
H3120 H 0.02295 0.25072 0.59712 0.0
H3121 H 0.94843 0.23714 0.54607 0.0
H3122 H -0.00196 0.25455 0.68424 0.0
H3123 H 0.01026 0.22718 0.67428 0.0
H3124 H 0.02759 0.25153 0.65785 0.0
H3125 H 0.9089 0.23005 0.57663 0.0
H3126 H 0.9133 0.21587 0.61761 0.0
H3127 H 0.90739 0.24549 0.61683 0.0
H3128 H 0.90588 0.20724 0.71203 0.0
H3129 H 0.90646 0.27906 0.7006 0.0
H3130 H 0.97271 0.19945 0.67255 0.0
H3131 H 0.9423 0.19137 0.65113 0.0
H3132 H 0.94604 0.18617 0.69697 0.0
H3133 H 0.97127 0.28383 0.66022 0.0
H3134 H 0.9413 0.29847 0.67244 0.0
H3135 H 0.9431 0.28393 0.63147 0.0
C3136 C 0.70359 0.27861 0.25842 0.0
C3137 C 0.71777 0.27148 0.28787 0.0
C3138 C 0.71629 0.28058 0.22626 0.0
C3139 C 0.7438 0.27581 0.22425 0.0
C3140 C 0.75854 0.27026 0.25467 0.0
C3141 C 0.7451 0.26773 0.28619 0.0
C3142 C 0.69972 0.28602 0.19453 0.0
C3143 C 0.78822 0.26567 0.2537 0.0
C3144 C 0.78464 0.24813 0.15827 0.0
C3145 C 0.80274 0.26556 0.15214 0.0
C3146 C 0.76131 0.25227 0.17694 0.0
C3147 C 0.75721 0.27403 0.19049 0.0
C3148 C 0.77293 0.29228 0.17885 0.0
C3149 C 0.79577 0.28779 0.15939 0.0
C3150 C 0.7436 0.23274 0.18699 0.0
C3151 C 0.7683 0.31585 0.19171 0.0
H3152 H 0.6822 0.28128 0.25998 0.0
H3153 H 0.75576 0.26234 0.30929 0.0
H3154 H 0.71168 0.29401 0.17357 0.0
H3155 H 0.69098 0.27024 0.18414 0.0
H3156 H 0.68288 0.29727 0.20138 0.0
H3157 H 0.79687 0.26389 0.28019 0.0
H3158 H 0.79198 0.24989 0.23924 0.0
H3159 H 0.79893 0.27944 0.24005 0.0
H3160 H 0.78975 0.23106 0.15119 0.0
H3161 H 0.80954 0.30137 0.15337 0.0
H3162 H 0.72236 0.23792 0.18801 0.0
H3163 H 0.74936 0.22666 0.21327 0.0
H3164 H 0.74564 0.21858 0.16842 0.0
H3165 H 0.74666 0.31938 0.19425 0.0
H3166 H 0.7775 0.32849 0.17401 0.0
H3167 H 0.77754 0.31777 0.21782 0.0
C3168 C 0.91716 0.52735 0.17723 0.0
C3169 C 0.89426 0.54019 0.17229 0.0
C3170 C 0.93664 0.5344 0.20082 0.0
C3171 C 0.93227 0.55432 0.22008 0.0
C3172 C 0.91186 0.56924 0.21013 0.0
C3173 C 0.8928 0.56191 0.18608 0.0
C3174 C 0.95939 0.51873 0.20916 0.0
C3175 C 0.90772 0.59127 0.22856 0.0
C3176 C 0.94158 0.53499 0.31115 0.0
C3177 C 0.96829 0.54056 0.31592 0.0
C3178 C 0.92812 0.54241 0.28155 0.0
C3179 C 0.94239 0.55493 0.25601 0.0
C3180 C 0.96848 0.5628 0.263 0.0
C3181 C -0.01875 0.55544 0.29325 0.0
C3182 C 0.89979 0.53437 0.27573 0.0
C3183 C -0.0159 0.57669 0.23714 0.0
H3184 H 0.91864 0.51091 0.16532 0.0
H3185 H 0.87543 0.57223 0.18104 0.0
H3186 H -0.02179 0.52828 0.21301 0.0
H3187 H 0.95492 0.50956 0.23368 0.0
H3188 H 0.9625 0.50619 0.18819 0.0
H3189 H 0.89733 0.60349 0.21145 0.0
H3190 H 0.89508 0.58845 0.25191 0.0
H3191 H 0.92699 0.59863 0.23726 0.0
H3192 H 0.93188 0.52351 0.32915 0.0
H3193 H 0.00212 0.55964 0.29748 0.0
H3194 H 0.89959 0.52107 0.25554 0.0
H3195 H 0.88707 0.54833 0.26642 0.0
H3196 H 0.89076 0.52734 0.29984 0.0
H3197 H -0.00254 0.56555 0.22201 0.0
H3198 H -0.00303 0.58907 0.25089 0.0
H3199 H 0.97095 0.58575 0.21867 0.0
C3200 C 0.7091 0.96291 0.54236 0.0
C3201 C 0.73684 0.96184 0.54376 0.0
C3202 C 0.69571 0.95696 0.5119 0.0
C3203 C 0.71079 0.95035 0.48235 0.0
C3204 C 0.73842 0.94631 0.4854 0.0
C3205 C 0.75124 0.95212 0.51641 0.0
C3206 C 0.66587 0.96055 0.51017 0.0
C3207 C 0.75508 0.9384 0.45513 0.0
C3208 C 0.65973 0.94469 0.4138 0.0
C3209 C 0.65627 0.96761 0.40702 0.0
C3210 C 0.6811 0.93755 0.43437 0.0
C3211 C 0.69875 0.95386 0.4479 0.0
C3212 C 0.69817 0.97618 0.43511 0.0
C3213 C 0.67644 0.98294 0.41507 0.0
C3214 C 0.68235 0.91333 0.44567 0.0
C3215 C 0.71794 0.99375 0.44712 0.0
H3216 H 0.69808 0.96986 0.56409 0.0
H3217 H 0.7728 0.95076 0.51801 0.0
H3218 H 0.66156 0.97571 0.49433 0.0
H3219 H 0.65585 0.94604 0.49764 0.0
H3220 H 0.65697 0.96295 0.5364 0.0
H3221 H 0.7708 0.9267 0.46431 0.0
H3222 H 0.74291 0.9299 0.4349 0.0
H3223 H 0.76535 0.95303 0.44308 0.0
H3224 H 0.6444 0.93271 0.40634 0.0
H3225 H 0.67407 1.00052 0.40843 0.0
H3226 H 0.67027 0.91103 0.46964 0.0
H3227 H 0.70316 0.90821 0.45152 0.0
H3228 H 0.67399 0.90209 0.4253 0.0
H3229 H 0.71312 0.99881 0.4742 0.0
H3230 H 0.71745 0.00898 0.43038 0.0
H3231 H 0.73849 0.98693 0.44699 0.0
C3232 C 0.49444 0.24355 0.52958 0.0
C3233 C 0.46847 0.23631 0.53566 0.0
C3234 C 0.5065 0.23932 0.49759 0.0
C3235 C 0.49154 0.2284 0.47095 0.0
C3236 C 0.46516 0.22111 0.47714 0.0
C3237 C 0.45412 0.22473 0.5099 0.0
C3238 C 0.53504 0.24706 0.49224 0.0
C3239 C 0.44835 0.20977 0.44959 0.0
C3240 C 0.52985 0.24844 0.39725 0.0
C3241 C 0.54985 0.23223 0.39866 0.0
C3242 C 0.50614 0.24501 0.41555 0.0
C3243 C 0.50387 0.22566 0.43666 0.0
C3244 C 0.52134 0.20741 0.43182 0.0
C3245 C 0.54447 0.21091 0.41234 0.0
C3246 C 0.48612 0.26379 0.41763 0.0
C3247 C 0.51838 0.18596 0.45237 0.0
H3248 H 0.50522 0.25249 0.54979 0.0
H3249 H 0.43375 0.21929 0.5148 0.0
H3250 H 0.54744 0.23308 0.48235 0.0
H3251 H 0.53564 0.26082 0.47276 0.0
H3252 H 0.54426 0.25337 0.51666 0.0
H3253 H 0.42678 0.21319 0.45368 0.0
H3254 H 0.45391 0.21517 0.42289 0.0
H3255 H 0.45111 0.19134 0.45147 0.0
H3256 H 0.53373 0.26453 0.38492 0.0
H3257 H 0.55971 0.19803 0.41186 0.0
H3258 H 0.49113 0.27475 0.44007 0.0
H3259 H 0.46561 0.25708 0.4216 0.0
H3260 H 0.48651 0.27424 0.39365 0.0
H3261 H 0.52569 0.18875 0.47932 0.0
H3262 H 0.53015 0.17211 0.44068 0.0
H3263 H 0.49713 0.18077 0.4539 0.0
C3264 C 0.69429 0.26217 0.81448 0.0
C3265 C 0.72165 0.2654 0.81124 0.0
C3266 C 0.68176 0.26665 0.84616 0.0
C3267 C 0.69729 0.2746 0.87463 0.0
C3268 C 0.72479 0.2791 0.87053 0.0
C3269 C 0.73674 0.27422 0.83869 0.0
C3270 C 0.65222 0.26176 0.8496 0.0
C3271 C 0.74207 0.28782 0.89979 0.0
C3272 C 0.64699 0.29155 0.93938 0.0
C3273 C 0.64211 0.27048 0.95425 0.0
C3274 C 0.66859 0.29455 0.91687 0.0
C3275 C 0.68471 0.27587 0.90905 0.0
C3276 C 0.68265 0.25596 0.92898 0.0
C3277 C 0.66111 0.25347 0.95169 0.0
C3278 C 0.67175 0.31655 0.89778 0.0
C3279 C 0.70058 0.23612 0.92244 0.0
H3280 H 0.68301 0.25535 0.7928 0.0
H3281 H 0.75808 0.27671 0.83551 0.0
H3282 H 0.64893 0.24839 0.86934 0.0
H3283 H 0.64155 0.27697 0.85855 0.0
H3284 H 0.64315 0.25618 0.82466 0.0
H3285 H 0.75253 0.27351 0.91223 0.0
H3286 H 0.75764 0.29941 0.88952 0.0
H3287 H 0.73039 0.29671 0.92001 0.0
H3288 H 0.63265 0.30497 0.94263 0.0
H3289 H 0.65763 0.23742 0.96431 0.0
H3290 H 0.66181 0.31533 0.87202 0.0
H3291 H 0.69317 0.32046 0.89327 0.0
H3292 H 0.66249 0.33057 0.91241 0.0
H3293 H 0.69465 0.22789 0.89768 0.0
H3294 H 0.6992 0.22349 0.9437 0.0
H3295 H 0.72167 0.24164 0.91981 0.0
C3296 C 0.50595 0.00722 0.83964 0.0
C3297 C 0.4789 0.00457 0.83296 0.0
C3298 C 0.51603 0.00205 0.87253 0.0
C3299 C 0.49845 0.99338 0.89849 0.0
C3300 C 0.47092 0.99105 0.89171 0.0
C3301 C 0.46142 0.99686 0.85883 0.0
C3302 C 0.54559 0.00528 0.87899 0.0
C3303 C 0.45161 0.98136 0.91798 0.0
C3304 C 0.547 0.96393 0.95201 0.0
C3305 C 0.55557 0.98244 0.97134 0.0
C3306 C 0.52363 0.9654 0.93236 0.0
C3307 C 0.50983 0.98603 0.93178 0.0
C3308 C 0.51516 0.0025 0.95721 0.0
C3309 C 0.53833 1.00048 0.97709 0.0
C3310 C 0.51677 0.9467 0.90748 0.0
C3311 C 0.49965 0.02412 0.9587 0.0
H3312 H 0.51914 0.01308 0.8191 0.0
H3313 H 0.44042 0.9945 0.85285 0.0
H3314 H 0.54887 0.01562 0.90261 0.0
H3315 H 0.55519 0.98877 0.88331 0.0
H3316 H 0.55582 0.01366 0.85678 0.0
H3317 H 0.43134 0.98843 0.91425 0.0
H3318 H 0.45015 0.96295 0.91406 0.0
H3319 H 0.45804 0.98442 0.9452 0.0
H3320 H 0.55992 0.94951 0.949 0.0
H3321 H 0.54456 0.01436 0.99347 0.0
H3322 H 0.52602 0.95029 0.88177 0.0
H3323 H 0.49484 0.9454 0.90376 0.0
H3324 H 0.52447 0.93033 0.91695 0.0
H3325 H 0.50757 0.03588 0.93871 0.0
H3326 H 0.50164 0.03227 0.98457 0.0
H3327 H 0.47817 0.02119 0.95312 0.0
C3328 C 0.25256 0.00373 0.57991 0.0
C3329 C 0.22579 0.99764 0.57782 0.0
C3330 C 0.26541 0.00386 0.61214 0.0
C3331 C 0.25054 0.99862 0.64265 0.0
C3332 C 0.22311 0.99341 0.64062 0.0
C3333 C 0.21111 0.99261 0.60793 0.0
C3334 C 0.29497 0.00915 0.61336 0.0
C3335 C 0.20638 0.98906 0.67269 0.0
C3336 C 0.30021 0.97781 0.70553 0.0
C3337 C 0.31003 0.9985 0.71698 0.0
C3338 C 0.27753 0.97696 0.68458 0.0
C3339 C 0.26464 0.9973 0.67598 0.0
C3340 C 0.27154 0.01743 0.69319 0.0
C3341 C 0.29472 0.01791 0.71332 0.0
C3342 C 0.27029 0.95505 0.66719 0.0
C3343 C 0.25694 0.03907 0.68622 0.0
H3344 H 0.26351 0.00779 0.55634 0.0
H3345 H 0.19005 0.98848 0.60598 0.0
H3346 H 0.29851 0.02445 0.62912 0.0
H3347 H 0.30591 0.99515 0.62592 0.0
H3348 H 0.30356 0.01196 0.58704 0.0
H3349 H 0.18648 0.98192 0.66608 0.0
H3350 H 0.2166 0.9775 0.69093 0.0
H3351 H 0.20327 0.00512 0.68666 0.0
H3352 H 0.31185 0.9627 0.70943 0.0
H3353 H 0.30205 0.03377 0.72343 0.0
H3354 H 0.27844 0.95502 0.64031 0.0
H3355 H 0.24833 0.95293 0.66534 0.0
H3356 H 0.2787 0.94043 0.68138 0.0
H3357 H 0.26475 0.04679 0.66193 0.0
H3358 H 0.25989 0.05124 0.70777 0.0
H3359 H 0.23524 0.03599 0.68267 0.0
C3360 C 0.37486 0.69047 0.67207 0.0
C3361 C 0.38621 0.70446 0.69737 0.0
C3362 C 0.38916 0.68551 0.64179 0.0
C3363 C 0.41526 0.69432 0.63806 0.0
C3364 C 0.42844 0.70396 0.66708 0.0
C3365 C 0.41337 0.70959 0.69632 0.0
C3366 C 0.37472 0.67446 0.6119 0.0
C3367 C 0.45701 0.71204 0.66491 0.0
C3368 C 0.45848 0.69653 0.55824 0.0
C3369 C 0.45547 0.71922 0.54939 0.0
C3370 C 0.44364 0.6871 0.5855 0.0
C3371 C 0.42505 0.70067 0.60319 0.0
C3372 C 0.4196 0.72273 0.59106 0.0
C3373 C 0.43545 0.73195 0.56472 0.0
C3374 C 0.45013 0.6636 0.5974 0.0
C3375 C 0.39891 0.73746 0.60816 0.0
H3376 H 0.35376 0.68629 0.6734 0.0
H3377 H 0.42207 0.72007 0.71646 0.0
H3378 H 0.36492 0.68759 0.5959 0.0
H3379 H 0.38867 0.66511 0.59489 0.0
H3380 H 0.35896 0.66279 0.6215 0.0
H3381 H 0.46586 0.71428 0.69121 0.0
H3382 H 0.46943 0.70005 0.64999 0.0
H3383 H 0.45767 0.72848 0.65126 0.0
H3384 H 0.47408 0.6867 0.54609 0.0
H3385 H 0.43308 0.7494 0.55731 0.0
H3386 H 0.43324 0.65555 0.61141 0.0
H3387 H 0.4675 0.66428 0.61532 0.0
H3388 H 0.45578 0.65291 0.57492 0.0
H3389 H 0.38012 0.72796 0.61271 0.0
H3390 H 0.39426 0.75248 0.59213 0.0
H3391 H 0.40647 0.74329 0.63377 0.0
C3392 C 0.28595 0.72356 0.17596 0.0
C3393 C 0.31089 0.71418 0.16958 0.0
C3394 C 0.26954 0.71451 0.20182 0.0
C3395 C 0.27946 0.6967 0.22263 0.0
C3396 C 0.30225 0.68473 0.2118 0.0
C3397 C 0.31781 0.69362 0.18481 0.0
C3398 C 0.24401 0.72659 0.21082 0.0
C3399 C 0.31269 0.66493 0.23206 0.0
C3400 C 0.27081 0.72194 0.30958 0.0
C3401 C 0.2459 0.71318 0.31825 0.0
C3402 C 0.28464 0.71355 0.28095 0.0
C3403 C 0.2722 0.69697 0.25981 0.0
C3404 C 0.24872 0.68606 0.27139 0.0
C3405 C 0.23579 0.69429 0.30101 0.0
C3406 C 0.31063 0.72475 0.27072 0.0
C3407 C 0.23534 0.6678 0.2505 0.0
H3408 H 0.28043 0.7391 0.16314 0.0
H3409 H 0.33699 0.68607 0.17903 0.0
H3410 H 0.22816 0.71449 0.21842 0.0
H3411 H 0.24765 0.73799 0.23318 0.0
H3412 H 0.23668 0.73684 0.18862 0.0
H3413 H 0.32296 0.65295 0.21448 0.0
H3414 H 0.32755 0.6709 0.25142 0.0
H3415 H 0.29647 0.65601 0.24618 0.0
H3416 H 0.27852 0.73638 0.32358 0.0
H3417 H 0.21642 0.68752 0.30829 0.0
H3418 H 0.30707 0.73657 0.24887 0.0
H3419 H 0.32538 0.71214 0.26198 0.0
H3420 H 0.31947 0.7344 0.29265 0.0
H3421 H 0.21918 0.67525 0.23449 0.0
H3422 H 0.22597 0.6552 0.26808 0.0
H3423 H 0.2495 0.65918 0.23287 0.0
C3424 C 0.44864 0.01094 0.31684 0.0
C3425 C 0.46619 0.02547 0.33374 0.0
C3426 C 0.42907 0.0194 0.29467 0.0
C3427 C 0.42785 0.04289 0.28868 0.0
C3428 C 0.44445 0.05772 0.30754 0.0
C3429 C 0.46339 0.04876 0.33033 0.0
C3430 C 0.41099 0.00304 0.27583 0.0
C3431 C 0.44393 0.08278 0.30169 0.0
C3432 C 0.40374 0.04584 0.19788 0.0
C3433 C 0.3763 0.04613 0.20418 0.0
C3434 C 0.42165 0.04862 0.22539 0.0
C3435 C 0.41147 0.051 0.25956 0.0
C3436 C 0.38399 0.05486 0.26496 0.0
C3437 C 0.36655 0.05252 0.23684 0.0
C3438 C 0.45112 0.04569 0.21858 0.0
C3439 C 0.37256 0.05805 0.30095 0.0
H3440 H 0.45085 0.99294 0.32 0.0
H3441 H 0.47719 0.05994 0.34357 0.0
H3442 H 0.38987 0.00845 0.2777 0.0
H3443 H 0.41642 0.00256 0.24784 0.0
H3444 H 0.41255 0.98574 0.28648 0.0
H3445 H 0.45105 0.09197 0.32509 0.0
H3446 H 0.45749 0.08706 0.27978 0.0
H3447 H 0.42367 0.08879 0.29486 0.0
H3448 H 0.41114 0.04158 0.1722 0.0
H3449 H 0.34519 0.05336 0.24135 0.0
H3450 H 0.45693 0.02822 0.22513 0.0
H3451 H 0.4631 0.0572 0.23509 0.0
H3452 H 0.45616 0.04882 0.19082 0.0
H3453 H 0.36985 0.04138 0.31345 0.0
H3454 H 0.35279 0.06642 0.29993 0.0
H3455 H 0.38621 0.06809 0.31757 0.0
C3456 C 0.6562 0.45206 0.92354 0.0
C3457 C 0.65129 0.47516 0.92121 0.0
C3458 C 0.67588 0.44396 0.94598 0.0
C3459 C 0.69065 0.45948 0.96596 0.0
C3460 C 0.68829 0.48288 0.95965 0.0
C3461 C 0.66831 0.49047 0.93735 0.0
C3462 C 0.67871 0.41894 0.95074 0.0
C3463 C 0.70477 0.50005 0.97922 0.0
C3464 C 0.70377 0.45948 0.06011 0.0
C3465 C 0.73128 0.46269 1.05869 0.0
C3466 C 0.68985 0.45409 1.02972 0.0
C3467 C 0.70421 0.45231 0.99799 0.0
C3468 C 0.73232 0.45131 0.99825 0.0
C3469 C 0.7457 0.45691 1.02887 0.0
C3470 C 0.65971 0.45414 1.03056 0.0
C3471 C 0.74831 0.44799 0.96541 0.0
H3472 H 0.64325 0.44022 0.91023 0.0
H3473 H 0.66474 0.50833 0.93462 0.0
H3474 H 0.6989 0.41431 0.96019 0.0
H3475 H 0.66382 0.41299 0.9701 0.0
H3476 H 0.67468 0.40999 0.92592 0.0
H3477 H 0.70199 0.5173 0.96886 0.0
H3478 H 0.69897 0.49999 1.00711 0.0
H3479 H 0.72629 0.49587 0.97766 0.0
H3480 H 0.69297 0.46364 0.08369 0.0
H3481 H 0.76725 0.45886 1.02854 0.0
H3482 H 0.65148 0.44073 1.01363 0.0
H3483 H 0.65234 0.47049 1.02062 0.0
H3484 H 0.65191 0.45171 1.05739 0.0
H3485 H 0.73673 0.43888 0.94521 0.0
H3486 H 0.76686 0.43852 0.97111 0.0
H3487 H 0.75426 0.46461 0.95477 0.0
C3488 C 0.53516 0.763 0.92078 0.0
C3489 C 0.55637 0.7781 0.91732 0.0
C3490 C 0.51286 0.76886 0.94052 0.0
C3491 C 0.51248 0.79007 0.95707 0.0
C3492 C 0.53165 0.80659 0.94845 0.0
C3493 C 0.55371 0.80031 0.92864 0.0
C3494 C 0.49184 0.75122 0.94788 0.0
C3495 C 0.53095 0.82975 0.96422 0.0
C3496 C 0.4565 0.79548 1.0215 0.0
C3497 C 0.46826 0.78518 1.05049 0.0
C3498 C 0.4712 0.79891 0.99104 0.0
C3499 C 0.49808 0.79196 0.9902 0.0
C3500 C 0.51064 0.78362 1.0207 0.0
C3501 C 0.49538 0.7802 1.05058 0.0
C3502 C 0.4572 0.80817 0.95935 0.0
C3503 C 0.53962 0.77656 1.02108 0.0
H3504 H 0.537 0.74604 0.91086 0.0
H3505 H 0.56986 0.81225 0.92464 0.0
H3506 H 0.4954 0.74386 0.97404 0.0
H3507 H 0.47163 0.75875 0.94793 0.0
H3508 H 0.49233 0.73746 0.92842 0.0
H3509 H 0.54253 0.84198 0.94831 0.0
H3510 H 0.51012 0.83578 0.9669 0.0
H3511 H 0.53995 0.82918 0.99062 0.0
H3512 H 0.43539 0.79949 1.02174 0.0
H3513 H 0.50434 0.77256 0.07338 0.0
H3514 H 0.44719 0.79421 0.94531 0.0
H3515 H 0.47126 0.81655 0.94111 0.0
H3516 H 0.44152 0.82034 0.96701 0.0
H3517 H 0.54234 0.76178 1.00393 0.0
H3518 H 0.54659 0.77203 1.04762 0.0
H3519 H 0.55253 0.79029 1.01102 0.0
C3520 C 0.65174 0.79485 0.45754 0.0
C3521 C 0.64424 0.77401 0.47131 0.0
C3522 C 0.67467 0.79652 0.43692 0.0
C3523 C 0.68911 0.77678 0.42967 0.0
C3524 C 0.68463 0.75712 0.44952 0.0
C3525 C 0.66196 0.75599 0.47044 0.0
C3526 C 0.68085 0.81832 0.41856 0.0
C3527 C 0.70077 0.73608 0.44399 0.0
C3528 C 0.69509 0.76147 0.33522 0.0
C3529 C 0.72264 0.76048 0.3318 0.0
C3530 C 0.68385 0.76786 0.36691 0.0
C3531 C 0.70093 0.77408 0.39497 0.0
C3532 C 0.72887 0.77465 0.39045 0.0
C3533 C 0.73946 0.76739 0.3589 0.0
C3534 C 0.6538 0.76687 0.3707 0.0
C3535 C 0.74783 0.78197 0.41885 0.0
H3536 H 0.63843 0.80909 0.45966 0.0
H3537 H 0.65655 0.74017 0.48266 0.0
H3538 H 0.70265 0.82017 0.41402 0.0
H3539 H 0.67068 0.81853 0.39289 0.0
H3540 H 0.6736 0.83289 0.43383 0.0
H3541 H 0.6968 0.7233 0.46447 0.0
H3542 H 0.69564 0.72866 0.41834 0.0
H3543 H 0.72241 0.74006 0.4439 0.0
H3544 H 0.68246 0.75645 0.31362 0.0
H3545 H 0.76097 0.76713 0.35538 0.0
H3546 H 0.64598 0.78364 0.37771 0.0
H3547 H 0.6482 0.75502 0.39184 0.0
H3548 H 0.64372 0.76133 0.3464 0.0
H3549 H 0.73793 0.79228 0.43907 0.0
H3550 H 0.76474 0.79174 0.40765 0.0
H3551 H 0.75648 0.76689 0.43142 0.0
C3552 C 0.45457 0.52812 0.35821 0.0
C3553 C 0.46968 0.51972 0.33042 0.0
C3554 C 0.46583 0.5306 0.39114 0.0
C3555 C 0.49289 0.52498 0.39573 0.0
C3556 C 0.50859 0.51762 0.36711 0.0
C3557 C 0.49653 0.51468 0.33473 0.0
C3558 C 0.44819 0.53774 0.42099 0.0
C3559 C 0.53787 0.51194 0.37084 0.0
C3560 C 0.54351 0.53987 0.46028 0.0
C3561 C 0.55003 0.51795 0.47014 0.0
C3562 C 0.52088 0.54367 0.44004 0.0
C3563 C 0.50497 0.52505 0.43045 0.0
C3564 C 0.50824 0.50413 0.44727 0.0
C3565 C 0.53141 0.5006 0.46661 0.0
C3566 C 0.51706 0.5665 0.42381 0.0
C3567 C 0.49011 0.48445 0.43965 0.0
H3568 H 0.43351 0.53169 0.35472 0.0
H3569 H 0.50791 0.50822 0.31294 0.0
H3570 H 0.43902 0.52257 0.43291 0.0
H3571 H 0.4595 0.54672 0.44155 0.0
H3572 H 0.43171 0.54867 0.41176 0.0
H3573 H 0.54747 0.50847 0.34535 0.0
H3574 H 0.54882 0.52597 0.38344 0.0
H3575 H 0.54012 0.49684 0.38751 0.0
H3576 H 0.55765 0.55346 0.46441 0.0
H3577 H 0.53614 0.48386 0.4758 0.0
H3578 H 0.49557 0.57017 0.41987 0.0
H3579 H 0.52698 0.56686 0.39796 0.0
H3580 H 0.52611 0.57993 0.44011 0.0
H3581 H 0.4691 0.48998 0.43674 0.0
H3582 H 0.49119 0.47159 0.46058 0.0
H3583 H 0.49635 0.47651 0.41484 0.0
C3584 C 0.29394 0.46533 0.20934 0.0
C3585 C 0.30081 0.48745 0.21773 0.0
C3586 C 0.27088 0.46104 0.19008 0.0
C3587 C 0.25498 0.4794 0.17984 0.0
C3588 C 0.25874 0.50069 0.1953 0.0
C3589 C 0.28229 0.50469 0.21367 0.0
C3590 C 0.2665 0.43785 0.1754 0.0
C3591 C 0.24065 0.52016 0.18706 0.0
C3592 C 0.24571 0.48844 0.084 0.0
C3593 C 0.21866 0.4838 0.08045 0.0
C3594 C 0.25812 0.48559 0.11614 0.0
C3595 C 0.24256 0.47877 0.14533 0.0
C3596 C 0.21529 0.47338 0.14145 0.0
C3597 C 0.20367 0.47572 0.10869 0.0
C3598 C 0.2876 0.49096 0.11903 0.0
C3599 C 0.19782 0.46674 0.17185 0.0
H3600 H 0.30801 0.45185 0.2139 0.0
H3601 H 0.2873 0.52162 0.2218 0.0
H3602 H 0.2449 0.43415 0.17219 0.0
H3603 H 0.27606 0.43684 0.14938 0.0
H3604 H 0.27557 0.42481 0.19234 0.0
H3605 H 0.24224 0.5335 0.20715 0.0
H3606 H 0.2465 0.52754 0.1616 0.0
H3607 H 0.21955 0.51454 0.18516 0.0
H3608 H 0.25699 0.49461 0.06182 0.0
H3609 H 0.18246 0.47243 0.1057 0.0
H3610 H 0.29832 0.477 0.13199 0.0
H3611 H 0.29049 0.50629 0.13497 0.0
H3612 H 0.29698 0.49392 0.0932 0.0
H3613 H 0.20922 0.45827 0.19282 0.0
H3614 H 0.1813 0.45549 0.16334 0.0
H3615 H 0.18867 0.48207 0.18295 0.0
C3616 C 0.42364 0.20695 0.18525 0.0
C3617 C 0.39714 0.20039 0.18976 0.0
C3618 C 0.43835 0.19846 0.15743 0.0
C3619 C 0.42522 0.18445 0.13294 0.0
C3620 C 0.40055 0.17432 0.14169 0.0
C3621 C 0.3866 0.18246 0.17058 0.0
C3622 C 0.4658 0.20809 0.15056 0.0
C3623 C 0.38669 0.15818 0.11745 0.0
C3624 C 0.43588 0.21846 1.05343 0.0
C3625 C 0.45873 0.20828 1.04047 0.0
C3626 C 0.42162 0.20843 0.08053 0.0
C3627 C 0.43166 0.18847 0.09596 0.0
C3628 C 0.4527 0.17671 0.0798 0.0
C3629 C 0.46598 0.18678 1.05169 0.0
C3630 C 0.39806 0.22093 0.09547 0.0
C3631 C 0.46341 0.15503 0.09439 0.0
H3632 H 0.4318 0.22047 0.20093 0.0
H3633 H 0.3661 0.17713 0.17483 0.0
H3634 H 0.47912 0.19521 0.13922 0.0
H3635 H 0.46423 0.22216 0.13169 0.0
H3636 H 0.47509 0.21465 0.17479 0.0
H3637 H 0.37454 0.14585 0.13243 0.0
H3638 H 0.37292 0.16764 0.10024 0.0
H3639 H 0.40114 0.14905 0.10086 0.0
H3640 H 0.43025 0.23494 1.04398 0.0
H3641 H 0.48369 0.1789 1.04109 0.0
H3642 H 0.40415 0.22955 0.11981 0.0
H3643 H 0.38149 0.20921 0.10175 0.0
H3644 H 0.39043 0.23385 0.07713 0.0
H3645 H 0.48151 0.15864 0.11011 0.0
H3646 H 0.46945 0.14365 0.07293 0.0
H3647 H 0.44864 0.14626 0.11117 0.0
C3648 C 0.28151 0.2473 0.64487 0.0
C3649 C 0.2995 0.26456 0.63722 0.0
C3650 C 0.25891 0.25186 0.66483 0.0
C3651 C 0.25574 0.27377 0.67829 0.0
C3652 C 0.27072 0.29182 0.66446 0.0
C3653 C 0.29259 0.28694 0.64341 0.0
C3654 C 0.24157 0.23258 0.67687 0.0
C3655 C 0.26714 0.31556 0.67716 0.0
C3656 C 0.20818 0.27951 0.7533 0.0
C3657 C 0.22447 0.27224 0.78075 0.0
C3658 C 0.2182 0.28107 0.71954 0.0
C3659 C 0.24523 0.2758 0.71376 0.0
C3660 C 0.26225 0.27017 0.74208 0.0
C3661 C 0.25139 0.26797 0.77534 0.0
C3662 C 0.19926 0.28648 0.69018 0.0
C3663 C 0.2916 0.2652 0.73713 0.0
H3664 H 0.28647 0.23007 0.63858 0.0
H3665 H 0.30618 0.3004 0.63611 0.0
H3666 H 0.24901 0.22636 0.70234 0.0
H3667 H 0.22059 0.23803 0.68037 0.0
H3668 H 0.24209 0.21844 0.65807 0.0
H3669 H 0.2746 0.32792 0.65769 0.0
H3670 H 0.2459 0.31916 0.683 0.0
H3671 H 0.27879 0.31789 0.70149 0.0
H3672 H 0.1871 0.28256 0.75772 0.0
H3673 H 0.26372 0.26245 0.7969 0.0
H3674 H 0.19051 0.27059 0.6803 0.0
H3675 H 0.20943 0.295 0.66815 0.0
H3676 H 0.18256 0.29718 0.69933 0.0
H3677 H 0.29391 0.24915 0.72288 0.0
H3678 H 0.30235 0.26372 0.76233 0.0
H3679 H 0.30134 0.27864 0.72157 0.0
C3680 C 0.45664 0.5065 0.79103 0.0
C3681 C 0.48361 0.5015 0.79385 0.0
C3682 C 0.44525 0.50951 0.75822 0.0
C3683 C 0.46181 0.50848 0.72817 0.0
C3684 C 0.48939 0.50449 0.73128 0.0
C3685 C 0.49992 0.50061 0.76428 0.0
C3686 C 0.41544 0.51318 0.75577 0.0
C3687 C 0.50785 0.50469 0.70019 0.0
C3688 C 0.41678 0.49059 0.65802 0.0
C3689 C 0.40453 0.51126 0.65194 0.0
C3690 C 0.43908 0.48943 0.67952 0.0
C3691 C 0.44929 0.50958 0.69377 0.0
C3692 C 0.44054 0.53059 0.68121 0.0
C3693 C 0.41753 0.53125 0.66073 0.0
C3694 C 0.44832 0.46664 0.69179 0.0
C3695 C 0.45282 0.55227 0.69373 0.0
H3696 H 0.44444 0.50738 0.81432 0.0
H3697 H 0.52106 0.49727 0.76705 0.0
H3698 H 0.41135 0.5299 0.74429 0.0
H3699 H 0.40624 0.50036 0.73855 0.0
H3700 H 0.40549 0.51226 0.78159 0.0
H3701 H 0.52735 0.49682 0.70633 0.0
H3702 H 0.49891 0.49592 0.67755 0.0
H3703 H 0.51154 0.52234 0.69222 0.0
H3704 H 0.40704 0.47515 0.6499 0.0
H3705 H 0.40842 0.54726 0.65462 0.0
H3706 H 0.43996 0.46326 0.71806 0.0
H3707 H 0.47038 0.46603 0.69384 0.0
H3708 H 0.44155 0.45303 0.67407 0.0
H3709 H 0.44388 0.55691 0.71914 0.0
H3710 H 0.44904 0.56617 0.67506 0.0
H3711 H 0.47468 0.55045 0.69749 0.0
loop_
_geom_bond_atom_site_label_1
_geom_bond_atom_site_label_2
_geom_bond_distance
_geom_bond_site_symmetry_2
_ccdc_geom_bond_type
Tb0 O3 2.453 . S
Tb0 O4 2.596 . S
Tb0 O5 2.374 1_565 S
Tb0 O13 2.342 1_565 S
Tb0 O15 2.353 . S
Tb0 O17 2.427 . S
Tb0 O18 2.513 1_565 S
C1 O5 1.251 . S
C1 O7 1.263 . S
Tb2 O4 2.343 1_545 S
Tb2 O7 2.353 . S
Tb2 O10 2.427 . S
Tb2 O11 2.513 1_545 S
Tb2 O12 2.453 . S
Tb2 O13 2.597 . S
Tb2 O14 2.374 1_545 S
O3 Tb0 2.453 . S
O3 C19 1.245 . S
O4 Tb0 2.596 . S
O4 Tb2 2.343 1_565 S
O4 C19 1.259 . S
O5 Tb0 2.374 1_545 S
O5 C1 1.251 . S
C6 O10 1.275 . S
C6 O11 1.246 1_545 S
O7 C1 1.263 . S
O7 Tb2 2.353 . S
C8 O12 1.245 . S
C8 O13 1.260 . S
C9 O14 1.250 . S
C9 O15 1.263 . S
O10 Tb2 2.427 . S
O10 C6 1.275 . S
O11 Tb2 2.513 1_565 S
O11 C6 1.246 1_565 S
O12 Tb2 2.453 . S
O12 C8 1.245 . S
O13 Tb0 2.342 1_545 S
O13 Tb2 2.597 . S
O13 C8 1.260 . S
O14 Tb2 2.374 1_565 S
O14 C9 1.250 . S
O15 Tb0 2.353 . S
O15 C9 1.263 . S
C16 O17 1.271 1_556 S
C16 O18 1.242 1_566 S
O17 Tb0 2.427 . S
O17 C16 1.271 1_554 S
O18 Tb0 2.513 1_545 S
O18 C16 1.242 1_544 S
C19 O3 1.245 . S
C19 O4 1.259 . S
Tb20 O23 2.453 . S
Tb20 O24 2.596 . S
Tb20 O25 2.374 . S
Tb20 O33 2.343 . S
Tb20 O35 2.353 . S
Tb20 O37 2.427 . S
Tb20 O38 2.513 . S
C21 O25 1.251 . S
C21 O27 1.263 . S
Tb22 O24 2.343 . S
Tb22 O27 2.353 . S
Tb22 O30 2.427 . S
Tb22 O31 2.513 . S
Tb22 O32 2.453 . S
Tb22 O33 2.596 . S
Tb22 O34 2.374 . S
O23 Tb20 2.453 . S
O23 C39 1.245 . S
O24 Tb20 2.596 . S
O24 Tb22 2.343 . S
O24 C39 1.259 . S
O25 Tb20 2.374 . S
O25 C21 1.251 . S
C26 O30 1.275 . S
C26 O31 1.246 . S
O27 C21 1.263 . S
O27 Tb22 2.353 . S
C28 O32 1.245 . S
C28 O33 1.259 . S
C29 O34 1.250 . S
C29 O35 1.263 . S
O30 Tb22 2.427 . S
O30 C26 1.275 . S
O31 Tb22 2.513 . S
O31 C26 1.246 . S
O32 Tb22 2.453 . S
O32 C28 1.245 . S
O33 Tb20 2.343 . S
O33 Tb22 2.596 . S
O33 C28 1.259 . S
O34 Tb22 2.374 . S
O34 C29 1.250 . S
O35 Tb20 2.353 . S
O35 C29 1.263 . S
C36 O37 1.271 1_556 S
C36 O38 1.242 1_556 S
O37 Tb20 2.427 . S
O37 C36 1.271 1_554 S
O38 Tb20 2.513 . S
O38 C36 1.242 1_554 S
C39 O23 1.245 . S
C39 O24 1.259 . S
Tb40 O43 2.453 . S
Tb40 O44 2.596 . S
Tb40 O45 2.374 . S
Tb40 O53 2.343 . S
Tb40 O55 2.353 . S
Tb40 O57 2.427 . S
Tb40 O58 2.513 . S
C41 O45 1.251 . S
C41 O47 1.263 . S
Tb42 O44 2.343 . S
Tb42 O47 2.353 . S
Tb42 O50 2.427 . S
Tb42 O51 2.513 . S
Tb42 O52 2.453 . S
Tb42 O53 2.596 . S
Tb42 O54 2.374 . S
O43 Tb40 2.453 . S
O43 C59 1.245 . S
O44 Tb40 2.596 . S
O44 Tb42 2.343 . S
O44 C59 1.259 . S
O45 Tb40 2.374 . S
O45 C41 1.251 . S
C46 O50 1.275 . S
C46 O51 1.246 . S
O47 C41 1.263 . S
O47 Tb42 2.353 . S
C48 O52 1.245 . S
C48 O53 1.259 . S
C49 O54 1.250 . S
C49 O55 1.263 . S
O50 Tb42 2.427 . S
O50 C46 1.275 . S
O51 Tb42 2.513 . S
O51 C46 1.246 . S
O52 Tb42 2.453 . S
O52 C48 1.245 . S
O53 Tb40 2.343 . S
O53 Tb42 2.596 . S
O53 C48 1.259 . S
O54 Tb42 2.374 . S
O54 C49 1.250 . S
O55 Tb40 2.353 . S
O55 C49 1.263 . S
C56 O57 1.275 . S
C56 O58 1.246 . S
O57 Tb40 2.427 . S
O57 C56 1.275 . S
O58 Tb40 2.513 . S
O58 C56 1.246 . S
C59 O43 1.245 . S
C59 O44 1.259 . S
Tb60 O63 2.453 . S
Tb60 O64 2.596 . S
Tb60 O65 2.374 1_565 S
Tb60 O73 2.342 1_565 S
Tb60 O75 2.353 . S
Tb60 O77 2.427 . S
Tb60 O78 2.513 1_565 S
C61 O65 1.251 . S
C61 O67 1.263 . S
Tb62 O64 2.343 1_545 S
Tb62 O67 2.353 . S
Tb62 O70 2.427 . S
Tb62 O71 2.513 1_545 S
Tb62 O72 2.453 . S
Tb62 O73 2.597 . S
Tb62 O74 2.374 1_545 S
O63 Tb60 2.453 . S
O63 C79 1.245 . S
O64 Tb60 2.596 . S
O64 Tb62 2.343 1_565 S
O64 C79 1.259 . S
O65 Tb60 2.374 1_545 S
O65 C61 1.251 . S
C66 O70 1.275 . S
C66 O71 1.246 1_545 S
O67 C61 1.263 . S
O67 Tb62 2.353 . S
C68 O72 1.245 . S
C68 O73 1.260 . S
C69 O74 1.250 . S
C69 O75 1.263 . S
O70 Tb62 2.427 . S
O70 C66 1.275 . S
O71 Tb62 2.513 1_565 S
O71 C66 1.246 1_565 S
O72 Tb62 2.453 . S
O72 C68 1.245 . S
O73 Tb60 2.342 1_545 S
O73 Tb62 2.597 . S
O73 C68 1.260 . S
O74 Tb62 2.374 1_565 S
O74 C69 1.250 . S
O75 Tb60 2.353 . S
O75 C69 1.263 . S
C76 O77 1.275 . S
C76 O78 1.246 1_565 S
O77 Tb60 2.427 . S
O77 C76 1.275 . S
O78 Tb60 2.513 1_545 S
O78 C76 1.246 1_545 S
C79 O63 1.245 . S
C79 O64 1.259 . S
Tb80 O83 2.453 . S
Tb80 O84 2.597 . S
Tb80 O85 2.374 1_565 S
Tb80 O93 2.343 1_565 S
Tb80 O95 2.353 . S
Tb80 O97 2.427 . S
Tb80 O98 2.513 1_565 S
C81 O85 1.251 . S
C81 O87 1.263 . S
Tb82 O84 2.342 1_545 S
Tb82 O87 2.353 . S
Tb82 O90 2.427 . S
Tb82 O91 2.513 1_545 S
Tb82 O92 2.453 . S
Tb82 O93 2.596 . S
Tb82 O94 2.374 1_545 S
O83 Tb80 2.453 . S
O83 C99 1.245 . S
O84 Tb80 2.597 . S
O84 Tb82 2.342 1_565 S
O84 C99 1.260 . S
O85 Tb80 2.374 1_545 S
O85 C81 1.251 . S
C86 O90 1.271 1_554 S
C86 O91 1.242 1_544 S
O87 C81 1.263 . S
O87 Tb82 2.353 . S
C88 O92 1.245 . S
C88 O93 1.259 . S
C89 O94 1.250 . S
C89 O95 1.263 . S
O90 Tb82 2.427 . S
O90 C86 1.271 1_556 S
O91 Tb82 2.513 1_565 S
O91 C86 1.242 1_566 S
O92 Tb82 2.453 . S
O92 C88 1.245 . S
O93 Tb80 2.343 1_545 S
O93 Tb82 2.596 . S
O93 C88 1.259 . S
O94 Tb82 2.374 1_565 S
O94 C89 1.250 . S
O95 Tb80 2.353 . S
O95 C89 1.263 . S
C96 O97 1.275 . S
C96 O98 1.246 1_565 S
O97 Tb80 2.427 . S
O97 C96 1.275 . S
O98 Tb80 2.513 1_545 S
O98 C96 1.246 1_545 S
C99 O83 1.245 . S
C99 O84 1.260 . S
Tb100 O103 2.453 . S
Tb100 O104 2.596 . S
Tb100 O105 2.374 . S
Tb100 O113 2.343 . S
Tb100 O115 2.353 . S
Tb100 O117 2.427 . S
Tb100 O118 2.513 . S
C101 O105 1.251 . S
C101 O107 1.263 . S
Tb102 O104 2.343 . S
Tb102 O107 2.353 . S
Tb102 O110 2.427 . S
Tb102 O111 2.513 . S
Tb102 O112 2.453 . S
Tb102 O113 2.596 . S
Tb102 O114 2.374 . S
O103 Tb100 2.453 . S
O103 C119 1.245 . S
O104 Tb100 2.596 . S
O104 Tb102 2.343 . S
O104 C119 1.259 . S
O105 Tb100 2.374 . S
O105 C101 1.251 . S
C106 O110 1.271 1_554 S
C106 O111 1.242 1_554 S
O107 C101 1.263 . S
O107 Tb102 2.353 . S
C108 O112 1.245 . S
C108 O113 1.259 . S
C109 O114 1.250 . S
C109 O115 1.263 . S
O110 Tb102 2.427 . S
O110 C106 1.271 1_556 S
O111 Tb102 2.513 . S
O111 C106 1.242 1_556 S
O112 Tb102 2.453 . S
O112 C108 1.245 . S
O113 Tb100 2.343 . S
O113 Tb102 2.596 . S
O113 C108 1.259 . S
O114 Tb102 2.374 . S
O114 C109 1.250 . S
O115 Tb100 2.353 . S
O115 C109 1.263 . S
C116 O117 1.275 . S
C116 O118 1.246 . S
O117 Tb100 2.427 . S
O117 C116 1.275 . S
O118 Tb100 2.513 . S
O118 C116 1.246 . S
C119 O103 1.245 . S
C119 O104 1.259 . S
Tb120 O123 2.453 . S
Tb120 O124 2.596 . S
Tb120 O125 2.374 . S
Tb120 O133 2.343 . S
Tb120 O135 2.353 . S
Tb120 O137 2.427 . S
Tb120 O138 2.513 . S
C121 O125 1.251 . S
C121 O127 1.263 . S
Tb122 O124 2.343 . S
Tb122 O127 2.353 . S
Tb122 O130 2.427 . S
Tb122 O131 2.513 . S
Tb122 O132 2.453 . S
Tb122 O133 2.596 . S
Tb122 O134 2.374 . S
O123 Tb120 2.453 . S
O123 C139 1.245 . S
O124 Tb120 2.596 . S
O124 Tb122 2.343 . S
O124 C139 1.259 . S
O125 Tb120 2.374 . S
O125 C121 1.251 . S
C126 O130 1.275 . S
C126 O131 1.246 . S
O127 C121 1.263 . S
O127 Tb122 2.353 . S
C128 O132 1.245 . S
C128 O133 1.259 . S
C129 O134 1.250 . S
C129 O135 1.263 . S
O130 Tb122 2.427 . S
O130 C126 1.275 . S
O131 Tb122 2.513 . S
O131 C126 1.246 . S
O132 Tb122 2.453 . S
O132 C128 1.245 . S
O133 Tb120 2.343 . S
O133 Tb122 2.596 . S
O133 C128 1.259 . S
O134 Tb122 2.374 . S
O134 C129 1.250 . S
O135 Tb120 2.353 . S
O135 C129 1.263 . S
C136 O137 1.275 . S
C136 O138 1.246 . S
O137 Tb120 2.427 . S
O137 C136 1.275 . S
O138 Tb120 2.513 . S
O138 C136 1.246 . S
C139 O123 1.245 . S
C139 O124 1.259 . S
Tb140 O143 2.453 . S
Tb140 O144 2.597 . S
Tb140 O145 2.374 1_565 S
Tb140 O153 2.343 1_565 S
Tb140 O155 2.353 . S
Tb140 O157 2.427 . S
Tb140 O158 2.513 1_565 S
C141 O145 1.251 . S
C141 O147 1.263 . S
Tb142 O144 2.342 1_545 S
Tb142 O147 2.353 . S
Tb142 O150 2.427 . S
Tb142 O151 2.513 1_545 S
Tb142 O152 2.453 . S
Tb142 O153 2.596 . S
Tb142 O154 2.374 1_545 S
O143 Tb140 2.453 . S
O143 C159 1.245 . S
O144 Tb140 2.597 . S
O144 Tb142 2.342 1_565 S
O144 C159 1.260 . S
O145 Tb140 2.374 1_545 S
O145 C141 1.251 . S
C146 O150 1.275 . S
C146 O151 1.246 1_545 S
O147 C141 1.263 . S
O147 Tb142 2.353 . S
C148 O152 1.245 . S
C148 O153 1.259 . S
C149 O154 1.250 . S
C149 O155 1.263 . S
O150 Tb142 2.427 . S
O150 C146 1.275 . S
O151 Tb142 2.513 1_565 S
O151 C146 1.246 1_565 S
O152 Tb142 2.453 . S
O152 C148 1.245 . S
O153 Tb140 2.343 1_545 S
O153 Tb142 2.596 . S
O153 C148 1.259 . S
O154 Tb142 2.374 1_565 S
O154 C149 1.250 . S
O155 Tb140 2.353 . S
O155 C149 1.263 . S
C156 O157 1.275 . S
C156 O158 1.246 1_565 S
O157 Tb140 2.427 . S
O157 C156 1.275 . S
O158 Tb140 2.513 1_545 S
O158 C156 1.246 1_545 S
C159 O143 1.245 . S
C159 O144 1.260 . S
Tb160 O163 2.453 . S
Tb160 O164 2.596 . S
Tb160 O165 2.374 . S
Tb160 O173 2.343 . S
Tb160 O175 2.353 . S
Tb160 O177 2.427 . S
Tb160 O178 2.513 . S
C161 O165 1.251 . S
C161 O167 1.263 . S
Tb162 O164 2.343 . S
Tb162 O167 2.353 . S
Tb162 O170 2.427 . S
Tb162 O171 2.513 . S
Tb162 O172 2.453 . S
Tb162 O173 2.596 . S
Tb162 O174 2.374 . S
O163 Tb160 2.453 . S
O163 C179 1.245 . S
O164 Tb160 2.596 . S
O164 Tb162 2.343 . S
O164 C179 1.259 . S
O165 Tb160 2.374 . S
O165 C161 1.251 . S
C166 O170 1.275 . S
C166 O171 1.246 . S
O167 C161 1.263 . S
O167 Tb162 2.353 . S
C168 O172 1.245 . S
C168 O173 1.259 . S
C169 O174 1.250 . S
C169 O175 1.263 . S
O170 Tb162 2.427 . S
O170 C166 1.275 . S
O171 Tb162 2.513 . S
O171 C166 1.246 . S
O172 Tb162 2.453 . S
O172 C168 1.245 . S
O173 Tb160 2.343 . S
O173 Tb162 2.596 . S
O173 C168 1.259 . S
O174 Tb162 2.374 . S
O174 C169 1.250 . S
O175 Tb160 2.353 . S
O175 C169 1.263 . S
C176 O177 1.275 . S
C176 O178 1.246 . S
O177 Tb160 2.427 . S
O177 C176 1.275 . S
O178 Tb160 2.513 . S
O178 C176 1.246 . S
C179 O163 1.245 . S
C179 O164 1.259 . S
Tb180 O183 2.453 . S
Tb180 O184 2.596 . S
Tb180 O185 2.374 . S
Tb180 O193 2.343 . S
Tb180 O195 2.353 . S
Tb180 O197 2.427 . S
Tb180 O198 2.513 . S
C181 O185 1.251 . S
C181 O187 1.263 . S
Tb182 O184 2.343 . S
Tb182 O187 2.353 . S
Tb182 O190 2.427 . S
Tb182 O191 2.513 . S
Tb182 O192 2.453 . S
Tb182 O193 2.596 . S
Tb182 O194 2.374 . S
O183 Tb180 2.453 . S
O183 C199 1.245 . S
O184 Tb180 2.596 . S
O184 Tb182 2.343 . S
O184 C199 1.259 . S
O185 Tb180 2.374 . S
O185 C181 1.251 . S
C186 O190 1.275 . S
C186 O191 1.246 . S
O187 C181 1.263 . S
O187 Tb182 2.353 . S
C188 O192 1.245 . S
C188 O193 1.259 . S
C189 O194 1.250 . S
C189 O195 1.263 . S
O190 Tb182 2.427 . S
O190 C186 1.275 . S
O191 Tb182 2.513 . S
O191 C186 1.246 . S
O192 Tb182 2.453 . S
O192 C188 1.245 . S
O193 Tb180 2.343 . S
O193 Tb182 2.596 . S
O193 C188 1.259 . S
O194 Tb182 2.374 . S
O194 C189 1.250 . S
O195 Tb180 2.353 . S
O195 C189 1.263 . S
C196 O197 1.275 . S
C196 O198 1.246 . S
O197 Tb180 2.427 . S
O197 C196 1.275 . S
O198 Tb180 2.513 . S
O198 C196 1.246 . S
C199 O183 1.245 . S
C199 O184 1.259 . S
Tb200 O203 2.453 . S
Tb200 O204 2.596 . S
Tb200 O205 2.374 . S
Tb200 O213 2.343 . S
Tb200 O215 2.353 . S
Tb200 O217 2.427 . S
Tb200 O218 2.513 . S
C201 O205 1.251 . S
C201 O207 1.263 . S
Tb202 O204 2.343 . S
Tb202 O207 2.353 . S
Tb202 O210 2.427 . S
Tb202 O211 2.513 . S
Tb202 O212 2.453 . S
Tb202 O213 2.596 . S
Tb202 O214 2.374 . S
O203 Tb200 2.453 . S
O203 C219 1.245 . S
O204 Tb200 2.596 . S
O204 Tb202 2.343 . S
O204 C219 1.259 . S
O205 Tb200 2.374 . S
O205 C201 1.251 . S
C206 O210 1.275 . S
C206 O211 1.246 . S
O207 C201 1.263 . S
O207 Tb202 2.353 . S
C208 O212 1.245 . S
C208 O213 1.259 . S
C209 O214 1.250 . S
C209 O215 1.263 . S
O210 Tb202 2.427 . S
O210 C206 1.275 . S
O211 Tb202 2.513 . S
O211 C206 1.246 . S
O212 Tb202 2.453 . S
O212 C208 1.245 . S
O213 Tb200 2.343 . S
O213 Tb202 2.596 . S
O213 C208 1.259 . S
O214 Tb202 2.374 . S
O214 C209 1.250 . S
O215 Tb200 2.353 . S
O215 C209 1.263 . S
C216 O217 1.275 . S
C216 O218 1.246 . S
O217 Tb200 2.427 . S
O217 C216 1.275 . S
O218 Tb200 2.513 . S
O218 C216 1.246 . S
C219 O203 1.245 . S
C219 O204 1.259 . S
Tb220 O223 2.453 . S
Tb220 O224 2.596 . S
Tb220 O225 2.374 . S
Tb220 O233 2.343 . S
Tb220 O235 2.353 . S
Tb220 O237 2.427 . S
Tb220 O238 2.513 . S
C221 O225 1.251 . S
C221 O227 1.263 . S
Tb222 O224 2.343 . S
Tb222 O227 2.353 . S
Tb222 O230 2.427 . S
Tb222 O231 2.513 . S
Tb222 O232 2.453 . S
Tb222 O233 2.596 . S
Tb222 O234 2.374 . S
O223 Tb220 2.453 . S
O223 C239 1.245 . S
O224 Tb220 2.596 . S
O224 Tb222 2.343 . S
O224 C239 1.259 . S
O225 Tb220 2.374 . S
O225 C221 1.251 . S
C226 O230 1.275 . S
C226 O231 1.246 . S
O227 C221 1.263 . S
O227 Tb222 2.353 . S
C228 O232 1.245 . S
C228 O233 1.259 . S
C229 O234 1.250 . S
C229 O235 1.263 . S
O230 Tb222 2.427 . S
O230 C226 1.275 . S
O231 Tb222 2.513 . S
O231 C226 1.246 . S
O232 Tb222 2.453 . S
O232 C228 1.245 . S
O233 Tb220 2.343 . S
O233 Tb222 2.596 . S
O233 C228 1.259 . S
O234 Tb222 2.374 . S
O234 C229 1.250 . S
O235 Tb220 2.353 . S
O235 C229 1.263 . S
C236 O237 1.275 . S
C236 O238 1.246 . S
O237 Tb220 2.427 . S
O237 C236 1.275 . S
O238 Tb220 2.513 . S
O238 C236 1.246 . S
C239 O223 1.245 . S
C239 O224 1.259 . S
Tb240 O243 2.453 . S
Tb240 O244 2.596 . S
Tb240 O245 2.374 . S
Tb240 O253 2.343 . S
Tb240 O255 2.353 . S
Tb240 O257 2.427 . S
Tb240 O258 2.513 . S
C241 O245 1.251 . S
C241 O247 1.263 . S
Tb242 O244 2.343 . S
Tb242 O247 2.353 . S
Tb242 O250 2.427 . S
Tb242 O251 2.513 . S
Tb242 O252 2.453 . S
Tb242 O253 2.596 . S
Tb242 O254 2.374 . S
O243 Tb240 2.453 . S
O243 C259 1.245 . S
O244 Tb240 2.596 . S
O244 Tb242 2.343 . S
O244 C259 1.259 . S
O245 Tb240 2.374 . S
O245 C241 1.251 . S
C246 O250 1.275 . S
C246 O251 1.246 . S
O247 C241 1.263 . S
O247 Tb242 2.353 . S
C248 O252 1.245 . S
C248 O253 1.259 . S
C249 O254 1.250 . S
C249 O255 1.263 . S
O250 Tb242 2.427 . S
O250 C246 1.275 . S
O251 Tb242 2.513 . S
O251 C246 1.246 . S
O252 Tb242 2.453 . S
O252 C248 1.245 . S
O253 Tb240 2.343 . S
O253 Tb242 2.596 . S
O253 C248 1.259 . S
O254 Tb242 2.374 . S
O254 C249 1.250 . S
O255 Tb240 2.353 . S
O255 C249 1.263 . S
C256 O257 1.275 . S
C256 O258 1.246 . S
O257 Tb240 2.427 . S
O257 C256 1.275 . S
O258 Tb240 2.513 . S
O258 C256 1.246 . S
C259 O243 1.245 . S
C259 O244 1.259 . S
Tb260 O263 2.453 . S
Tb260 O264 2.596 . S
Tb260 O265 2.374 . S
Tb260 O273 2.343 . S
Tb260 O275 2.353 . S
Tb260 O277 2.427 . S
Tb260 O278 2.513 . S
C261 O265 1.251 . S
C261 O267 1.263 . S
Tb262 O264 2.343 . S
Tb262 O267 2.353 . S
Tb262 O270 2.427 . S
Tb262 O271 2.513 . S
Tb262 O272 2.453 . S
Tb262 O273 2.596 . S
Tb262 O274 2.374 . S
O263 Tb260 2.453 . S
O263 C279 1.245 . S
O264 Tb260 2.596 . S
O264 Tb262 2.343 . S
O264 C279 1.259 . S
O265 Tb260 2.374 . S
O265 C261 1.251 . S
C266 O270 1.275 . S
C266 O271 1.246 . S
O267 C261 1.263 . S
O267 Tb262 2.353 . S
C268 O272 1.245 . S
C268 O273 1.259 . S
C269 O274 1.250 . S
C269 O275 1.263 . S
O270 Tb262 2.427 . S
O270 C266 1.275 . S
O271 Tb262 2.513 . S
O271 C266 1.246 . S
O272 Tb262 2.453 . S
O272 C268 1.245 . S
O273 Tb260 2.343 . S
O273 Tb262 2.596 . S
O273 C268 1.259 . S
O274 Tb262 2.374 . S
O274 C269 1.250 . S
O275 Tb260 2.353 . S
O275 C269 1.263 . S
C276 O277 1.275 . S
C276 O278 1.246 . S
O277 Tb260 2.427 . S
O277 C276 1.275 . S
O278 Tb260 2.513 . S
O278 C276 1.246 . S
C279 O263 1.245 . S
C279 O264 1.259 . S
Tb280 O283 2.453 . S
Tb280 O284 2.596 . S
Tb280 O285 2.374 . S
Tb280 O293 2.343 . S
Tb280 O295 2.353 . S
Tb280 O297 2.427 . S
Tb280 O298 2.513 . S
C281 O285 1.251 . S
C281 O287 1.263 . S
Tb282 O284 2.343 . S
Tb282 O287 2.353 . S
Tb282 O290 2.427 . S
Tb282 O291 2.513 . S
Tb282 O292 2.453 . S
Tb282 O293 2.596 . S
Tb282 O294 2.374 . S
O283 Tb280 2.453 . S
O283 C299 1.245 . S
O284 Tb280 2.596 . S
O284 Tb282 2.343 . S
O284 C299 1.259 . S
O285 Tb280 2.374 . S
O285 C281 1.251 . S
C286 O290 1.275 . S
C286 O291 1.246 . S
O287 C281 1.263 . S
O287 Tb282 2.353 . S
C288 O292 1.245 . S
C288 O293 1.259 . S
C289 O294 1.250 . S
C289 O295 1.263 . S
O290 Tb282 2.427 . S
O290 C286 1.275 . S
O291 Tb282 2.513 . S
O291 C286 1.246 . S
O292 Tb282 2.453 . S
O292 C288 1.245 . S
O293 Tb280 2.343 . S
O293 Tb282 2.596 . S
O293 C288 1.259 . S
O294 Tb282 2.374 . S
O294 C289 1.250 . S
O295 Tb280 2.353 . S
O295 C289 1.263 . S
C296 O297 1.275 . S
C296 O298 1.246 . S
O297 Tb280 2.427 . S
O297 C296 1.275 . S
O298 Tb280 2.513 . S
O298 C296 1.246 . S
C299 O283 1.245 . S
C299 O284 1.259 . S
Tb300 O303 2.453 . S
Tb300 O304 2.596 . S
Tb300 O305 2.374 . S
Tb300 O313 2.343 . S
Tb300 O315 2.353 . S
Tb300 O317 2.427 . S
Tb300 O318 2.513 . S
C301 O305 1.251 . S
C301 O307 1.263 . S
Tb302 O304 2.343 . S
Tb302 O307 2.353 . S
Tb302 O310 2.427 . S
Tb302 O311 2.513 . S
Tb302 O312 2.453 . S
Tb302 O313 2.596 . S
Tb302 O314 2.374 . S
O303 Tb300 2.453 . S
O303 C319 1.245 . S
O304 Tb300 2.596 . S
O304 Tb302 2.343 . S
O304 C319 1.259 . S
O305 Tb300 2.374 . S
O305 C301 1.251 . S
C306 O310 1.275 . S
C306 O311 1.246 . S
O307 C301 1.263 . S
O307 Tb302 2.353 . S
C308 O312 1.245 . S
C308 O313 1.259 . S
C309 O314 1.250 . S
C309 O315 1.263 . S
O310 Tb302 2.427 . S
O310 C306 1.275 . S
O311 Tb302 2.513 . S
O311 C306 1.246 . S
O312 Tb302 2.453 . S
O312 C308 1.245 . S
O313 Tb300 2.343 . S
O313 Tb302 2.596 . S
O313 C308 1.259 . S
O314 Tb302 2.374 . S
O314 C309 1.250 . S
O315 Tb300 2.353 . S
O315 C309 1.263 . S
C316 O317 1.275 . S
C316 O318 1.246 . S
O317 Tb300 2.427 . S
O317 C316 1.275 . S
O318 Tb300 2.513 . S
O318 C316 1.246 . S
C319 O303 1.245 . S
C319 O304 1.259 . S
Tb320 O323 2.453 . S
Tb320 O324 2.596 . S
Tb320 O325 2.374 1_565 S
Tb320 O333 2.342 1_565 S
Tb320 O335 2.353 . S
Tb320 O337 2.427 . S
Tb320 O338 2.513 1_565 S
C321 O325 1.251 . S
C321 O327 1.263 . S
Tb322 O324 2.343 1_545 S
Tb322 O327 2.353 . S
Tb322 O330 2.427 . S
Tb322 O331 2.513 1_545 S
Tb322 O332 2.453 . S
Tb322 O333 2.597 . S
Tb322 O334 2.374 1_545 S
O323 Tb320 2.453 . S
O323 C339 1.245 . S
O324 Tb320 2.596 . S
O324 Tb322 2.343 1_565 S
O324 C339 1.259 . S
O325 Tb320 2.374 1_545 S
O325 C321 1.251 . S
C326 O330 1.275 . S
C326 O331 1.246 1_545 S
O327 C321 1.263 . S
O327 Tb322 2.353 . S
C328 O332 1.245 . S
C328 O333 1.260 . S
C329 O334 1.250 . S
C329 O335 1.263 . S
O330 Tb322 2.427 . S
O330 C326 1.275 . S
O331 Tb322 2.513 1_565 S
O331 C326 1.246 1_565 S
O332 Tb322 2.453 . S
O332 C328 1.245 . S
O333 Tb320 2.342 1_545 S
O333 Tb322 2.597 . S
O333 C328 1.260 . S
O334 Tb322 2.374 1_565 S
O334 C329 1.250 . S
O335 Tb320 2.353 . S
O335 C329 1.263 . S
C336 O337 1.275 . S
C336 O338 1.246 1_565 S
O337 Tb320 2.427 . S
O337 C336 1.275 . S
O338 Tb320 2.513 1_545 S
O338 C336 1.246 1_545 S
C339 O323 1.245 . S
C339 O324 1.259 . S
Tb340 O343 2.453 . S
Tb340 O344 2.596 . S
Tb340 O345 2.374 . S
Tb340 O353 2.343 . S
Tb340 O355 2.353 . S
Tb340 O357 2.427 . S
Tb340 O358 2.513 . S
C341 O345 1.251 . S
C341 O347 1.263 . S
Tb342 O344 2.343 . S
Tb342 O347 2.353 . S
Tb342 O350 2.427 . S
Tb342 O351 2.513 . S
Tb342 O352 2.453 . S
Tb342 O353 2.596 . S
Tb342 O354 2.374 . S
O343 Tb340 2.453 . S
O343 C359 1.245 . S
O344 Tb340 2.596 . S
O344 Tb342 2.343 . S
O344 C359 1.259 . S
O345 Tb340 2.374 . S
O345 C341 1.251 . S
C346 O350 1.275 . S
C346 O351 1.246 . S
O347 C341 1.263 . S
O347 Tb342 2.353 . S
C348 O352 1.245 . S
C348 O353 1.259 . S
C349 O354 1.250 . S
C349 O355 1.263 . S
O350 Tb342 2.427 . S
O350 C346 1.275 . S
O351 Tb342 2.513 . S
O351 C346 1.246 . S
O352 Tb342 2.453 . S
O352 C348 1.245 . S
O353 Tb340 2.343 . S
O353 Tb342 2.596 . S
O353 C348 1.259 . S
O354 Tb342 2.374 . S
O354 C349 1.250 . S
O355 Tb340 2.353 . S
O355 C349 1.263 . S
C356 O357 1.275 . S
C356 O358 1.246 . S
O357 Tb340 2.427 . S
O357 C356 1.275 . S
O358 Tb340 2.513 . S
O358 C356 1.246 . S
C359 O343 1.245 . S
C359 O344 1.259 . S
Tb360 O363 2.453 . S
Tb360 O364 2.596 . S
Tb360 O365 2.374 . S
Tb360 O373 2.343 . S
Tb360 O375 2.353 . S
Tb360 O377 2.427 . S
Tb360 O378 2.513 . S
C361 O365 1.251 . S
C361 O367 1.263 . S
Tb362 O364 2.343 . S
Tb362 O367 2.353 . S
Tb362 O370 2.427 . S
Tb362 O371 2.513 . S
Tb362 O372 2.453 . S
Tb362 O373 2.596 . S
Tb362 O374 2.374 . S
O363 Tb360 2.453 . S
O363 C379 1.245 . S
O364 Tb360 2.596 . S
O364 Tb362 2.343 . S
O364 C379 1.259 . S
O365 Tb360 2.374 . S
O365 C361 1.251 . S
C366 O370 1.275 . S
C366 O371 1.246 . S
O367 C361 1.263 . S
O367 Tb362 2.353 . S
C368 O372 1.245 . S
C368 O373 1.259 . S
C369 O374 1.250 . S
C369 O375 1.263 . S
O370 Tb362 2.427 . S
O370 C366 1.275 . S
O371 Tb362 2.513 . S
O371 C366 1.246 . S
O372 Tb362 2.453 . S
O372 C368 1.245 . S
O373 Tb360 2.343 . S
O373 Tb362 2.596 . S
O373 C368 1.259 . S
O374 Tb362 2.374 . S
O374 C369 1.250 . S
O375 Tb360 2.353 . S
O375 C369 1.263 . S
C376 O377 1.275 . S
C376 O378 1.246 . S
O377 Tb360 2.427 . S
O377 C376 1.275 . S
O378 Tb360 2.513 . S
O378 C376 1.246 . S
C379 O363 1.245 . S
C379 O364 1.259 . S
Tb380 O383 2.453 . S
Tb380 O384 2.596 . S
Tb380 O385 2.374 1_565 S
Tb380 O393 2.342 1_565 S
Tb380 O395 2.353 . S
Tb380 O397 2.427 . S
Tb380 O398 2.513 1_565 S
C381 O385 1.251 . S
C381 O387 1.263 . S
Tb382 O384 2.343 1_545 S
Tb382 O387 2.353 . S
Tb382 O390 2.427 . S
Tb382 O391 2.513 1_545 S
Tb382 O392 2.453 . S
Tb382 O393 2.597 . S
Tb382 O394 2.374 1_545 S
O383 Tb380 2.453 . S
O383 C399 1.245 . S
O384 Tb380 2.596 . S
O384 Tb382 2.343 1_565 S
O384 C399 1.259 . S
O385 Tb380 2.374 1_545 S
O385 C381 1.251 . S
C386 O390 1.275 . S
C386 O391 1.246 1_545 S
O387 C381 1.263 . S
O387 Tb382 2.353 . S
C388 O392 1.245 . S
C388 O393 1.260 . S
C389 O394 1.250 . S
C389 O395 1.263 . S
O390 Tb382 2.427 . S
O390 C386 1.275 . S
O391 Tb382 2.513 1_565 S
O391 C386 1.246 1_565 S
O392 Tb382 2.453 . S
O392 C388 1.245 . S
O393 Tb380 2.342 1_545 S
O393 Tb382 2.597 . S
O393 C388 1.260 . S
O394 Tb382 2.374 1_565 S
O394 C389 1.250 . S
O395 Tb380 2.353 . S
O395 C389 1.263 . S
C396 O397 1.275 . S
C396 O398 1.246 1_565 S
O397 Tb380 2.427 . S
O397 C396 1.275 . S
O398 Tb380 2.513 1_545 S
O398 C396 1.246 1_545 S
C399 O383 1.245 . S
C399 O384 1.259 . S
Tb400 O403 2.453 . S
Tb400 O404 2.597 . S
Tb400 O405 2.374 1_565 S
Tb400 O413 2.343 1_565 S
Tb400 O415 2.353 . S
Tb400 O417 2.427 . S
Tb400 O418 2.513 1_565 S
C401 O405 1.251 . S
C401 O407 1.263 . S
Tb402 O404 2.342 1_545 S
Tb402 O407 2.353 . S
Tb402 O410 2.427 . S
Tb402 O411 2.513 1_545 S
Tb402 O412 2.453 . S
Tb402 O413 2.596 . S
Tb402 O414 2.374 1_545 S
O403 Tb400 2.453 . S
O403 C419 1.245 . S
O404 Tb400 2.597 . S
O404 Tb402 2.342 1_565 S
O404 C419 1.260 . S
O405 Tb400 2.374 1_545 S
O405 C401 1.251 . S
C406 O410 1.275 . S
C406 O411 1.246 1_545 S
O407 C401 1.263 . S
O407 Tb402 2.353 . S
C408 O412 1.245 . S
C408 O413 1.259 . S
C409 O414 1.250 . S
C409 O415 1.263 . S
O410 Tb402 2.427 . S
O410 C406 1.275 . S
O411 Tb402 2.513 1_565 S
O411 C406 1.246 1_565 S
O412 Tb402 2.453 . S
O412 C408 1.245 . S
O413 Tb400 2.343 1_545 S
O413 Tb402 2.596 . S
O413 C408 1.259 . S
O414 Tb402 2.374 1_565 S
O414 C409 1.250 . S
O415 Tb400 2.353 . S
O415 C409 1.263 . S
C416 O417 1.275 . S
C416 O418 1.246 1_565 S
O417 Tb400 2.427 . S
O417 C416 1.275 . S
O418 Tb400 2.513 1_545 S
O418 C416 1.246 1_545 S
C419 O403 1.245 . S
C419 O404 1.260 . S
Tb420 O423 2.453 . S
Tb420 O424 2.596 . S
Tb420 O425 2.374 . S
Tb420 O433 2.343 . S
Tb420 O435 2.353 . S
Tb420 O437 2.427 . S
Tb420 O438 2.513 . S
C421 O425 1.251 . S
C421 O427 1.263 . S
Tb422 O424 2.343 . S
Tb422 O427 2.353 . S
Tb422 O430 2.427 . S
Tb422 O431 2.513 . S
Tb422 O432 2.453 . S
Tb422 O433 2.596 . S
Tb422 O434 2.374 . S
O423 Tb420 2.453 . S
O423 C439 1.245 . S
O424 Tb420 2.596 . S
O424 Tb422 2.343 . S
O424 C439 1.259 . S
O425 Tb420 2.374 . S
O425 C421 1.251 . S
C426 O430 1.275 . S
C426 O431 1.246 . S
O427 C421 1.263 . S
O427 Tb422 2.353 . S
C428 O432 1.245 . S
C428 O433 1.259 . S
C429 O434 1.250 . S
C429 O435 1.263 . S
O430 Tb422 2.427 . S
O430 C426 1.275 . S
O431 Tb422 2.513 . S
O431 C426 1.246 . S
O432 Tb422 2.453 . S
O432 C428 1.245 . S
O433 Tb420 2.343 . S
O433 Tb422 2.596 . S
O433 C428 1.259 . S
O434 Tb422 2.374 . S
O434 C429 1.250 . S
O435 Tb420 2.353 . S
O435 C429 1.263 . S
C436 O437 1.275 . S
C436 O438 1.246 . S
O437 Tb420 2.427 . S
O437 C436 1.275 . S
O438 Tb420 2.513 . S
O438 C436 1.246 . S
C439 O423 1.245 . S
C439 O424 1.259 . S
Tb440 O443 2.453 . S
Tb440 O444 2.596 . S
Tb440 O445 2.374 . S
Tb440 O453 2.343 . S
Tb440 O455 2.353 . S
Tb440 O457 2.427 . S
Tb440 O458 2.513 . S
C441 O445 1.251 . S
C441 O447 1.263 . S
Tb442 O444 2.343 . S
Tb442 O447 2.353 . S
Tb442 O450 2.427 . S
Tb442 O451 2.513 . S
Tb442 O452 2.453 . S
Tb442 O453 2.596 . S
Tb442 O454 2.374 . S
O443 Tb440 2.453 . S
O443 C459 1.245 . S
O444 Tb440 2.596 . S
O444 Tb442 2.343 . S
O444 C459 1.259 . S
O445 Tb440 2.374 . S
O445 C441 1.251 . S
C446 O450 1.275 . S
C446 O451 1.246 . S
O447 C441 1.263 . S
O447 Tb442 2.353 . S
C448 O452 1.245 . S
C448 O453 1.259 . S
C449 O454 1.250 . S
C449 O455 1.263 . S
O450 Tb442 2.427 . S
O450 C446 1.275 . S
O451 Tb442 2.513 . S
O451 C446 1.246 . S
O452 Tb442 2.453 . S
O452 C448 1.245 . S
O453 Tb440 2.343 . S
O453 Tb442 2.596 . S
O453 C448 1.259 . S
O454 Tb442 2.374 . S
O454 C449 1.250 . S
O455 Tb440 2.353 . S
O455 C449 1.263 . S
C456 O457 1.275 . S
C456 O458 1.246 . S
O457 Tb440 2.427 . S
O457 C456 1.275 . S
O458 Tb440 2.513 . S
O458 C456 1.246 . S
C459 O443 1.245 . S
C459 O444 1.259 . S
Tb460 O463 2.453 . S
Tb460 O464 2.597 . S
Tb460 O465 2.374 1_565 S
Tb460 O473 2.343 1_565 S
Tb460 O475 2.353 . S
Tb460 O477 2.427 . S
Tb460 O478 2.513 1_565 S
C461 O465 1.251 . S
C461 O467 1.263 . S
Tb462 O464 2.342 1_545 S
Tb462 O467 2.353 . S
Tb462 O470 2.427 . S
Tb462 O471 2.513 1_545 S
Tb462 O472 2.453 . S
Tb462 O473 2.596 . S
Tb462 O474 2.374 1_545 S
O463 Tb460 2.453 . S
O463 C479 1.245 . S
O464 Tb460 2.597 . S
O464 Tb462 2.342 1_565 S
O464 C479 1.260 . S
O465 Tb460 2.374 1_545 S
O465 C461 1.251 . S
C466 O470 1.275 . S
C466 O471 1.246 1_545 S
O467 C461 1.263 . S
O467 Tb462 2.353 . S
C468 O472 1.245 . S
C468 O473 1.259 . S
C469 O474 1.250 . S
C469 O475 1.263 . S
O470 Tb462 2.427 . S
O470 C466 1.275 . S
O471 Tb462 2.513 1_565 S
O471 C466 1.246 1_565 S
O472 Tb462 2.453 . S
O472 C468 1.245 . S
O473 Tb460 2.343 1_545 S
O473 Tb462 2.596 . S
O473 C468 1.259 . S
O474 Tb462 2.374 1_565 S
O474 C469 1.250 . S
O475 Tb460 2.353 . S
O475 C469 1.263 . S
C476 O477 1.275 . S
C476 O478 1.246 1_565 S
O477 Tb460 2.427 . S
O477 C476 1.275 . S
O478 Tb460 2.513 1_545 S
O478 C476 1.246 1_545 S
C479 O463 1.245 . S
C479 O464 1.260 . S
Tb480 O483 2.453 . S
Tb480 O484 2.596 . S
Tb480 O485 2.374 . S
Tb480 O493 2.343 . S
Tb480 O495 2.353 . S
Tb480 O497 2.427 . S
Tb480 O498 2.513 . S
C481 O485 1.251 . S
C481 O487 1.263 . S
Tb482 O484 2.343 . S
Tb482 O487 2.353 . S
Tb482 O490 2.427 . S
Tb482 O491 2.513 . S
Tb482 O492 2.453 . S
Tb482 O493 2.596 . S
Tb482 O494 2.374 . S
O483 Tb480 2.453 . S
O483 C499 1.245 . S
O484 Tb480 2.596 . S
O484 Tb482 2.343 . S
O484 C499 1.259 . S
O485 Tb480 2.374 . S
O485 C481 1.251 . S
C486 O490 1.275 . S
C486 O491 1.246 . S
O487 C481 1.263 . S
O487 Tb482 2.353 . S
C488 O492 1.245 . S
C488 O493 1.259 . S
C489 O494 1.250 . S
C489 O495 1.263 . S
O490 Tb482 2.427 . S
O490 C486 1.275 . S
O491 Tb482 2.513 . S
O491 C486 1.246 . S
O492 Tb482 2.453 . S
O492 C488 1.245 . S
O493 Tb480 2.343 . S
O493 Tb482 2.596 . S
O493 C488 1.259 . S
O494 Tb482 2.374 . S
O494 C489 1.250 . S
O495 Tb480 2.353 . S
O495 C489 1.263 . S
C496 O497 1.272 1_556 S
C496 O498 1.243 1_556 S
O497 Tb480 2.427 . S
O497 C496 1.272 1_554 S
O498 Tb480 2.513 . S
O498 C496 1.243 1_554 S
C499 O483 1.245 . S
C499 O484 1.259 . S
Tb500 O503 2.453 . S
Tb500 O504 2.596 . S
Tb500 O505 2.374 . S
Tb500 O513 2.343 . S
Tb500 O515 2.353 . S
Tb500 O517 2.427 . S
Tb500 O518 2.513 . S
C501 O505 1.251 . S
C501 O507 1.263 . S
Tb502 O504 2.343 . S
Tb502 O507 2.353 . S
Tb502 O510 2.427 . S
Tb502 O511 2.513 . S
Tb502 O512 2.453 . S
Tb502 O513 2.596 . S
Tb502 O514 2.374 . S
O503 Tb500 2.453 . S
O503 C519 1.245 . S
O504 Tb500 2.596 . S
O504 Tb502 2.343 . S
O504 C519 1.259 . S
O505 Tb500 2.374 . S
O505 C501 1.251 . S
C506 O510 1.275 . S
C506 O511 1.246 . S
O507 C501 1.263 . S
O507 Tb502 2.353 . S
C508 O512 1.245 . S
C508 O513 1.259 . S
C509 O514 1.250 . S
C509 O515 1.263 . S
O510 Tb502 2.427 . S
O510 C506 1.275 . S
O511 Tb502 2.513 . S
O511 C506 1.246 . S
O512 Tb502 2.453 . S
O512 C508 1.245 . S
O513 Tb500 2.343 . S
O513 Tb502 2.596 . S
O513 C508 1.259 . S
O514 Tb502 2.374 . S
O514 C509 1.250 . S
O515 Tb500 2.353 . S
O515 C509 1.263 . S
C516 O517 1.271 1_556 S
C516 O518 1.242 1_556 S
O517 Tb500 2.427 . S
O517 C516 1.271 1_554 S
O518 Tb500 2.513 . S
O518 C516 1.242 1_554 S
C519 O503 1.245 . S
C519 O504 1.259 . S
Tb520 O523 2.453 . S
Tb520 O524 2.596 . S
Tb520 O525 2.374 . S
Tb520 O533 2.343 . S
Tb520 O535 2.353 . S
Tb520 O537 2.427 . S
Tb520 O538 2.513 . S
C521 O525 1.251 . S
C521 O527 1.263 . S
Tb522 O524 2.343 . S
Tb522 O527 2.353 . S
Tb522 O530 2.427 . S
Tb522 O531 2.513 . S
Tb522 O532 2.453 . S
Tb522 O533 2.596 . S
Tb522 O534 2.374 . S
O523 Tb520 2.453 . S
O523 C539 1.245 . S
O524 Tb520 2.596 . S
O524 Tb522 2.343 . S
O524 C539 1.259 . S
O525 Tb520 2.374 . S
O525 C521 1.251 . S
C526 O530 1.275 . S
C526 O531 1.246 . S
O527 C521 1.263 . S
O527 Tb522 2.353 . S
C528 O532 1.245 . S
C528 O533 1.259 . S
C529 O534 1.250 . S
C529 O535 1.263 . S
O530 Tb522 2.427 . S
O530 C526 1.275 . S
O531 Tb522 2.513 . S
O531 C526 1.246 . S
O532 Tb522 2.453 . S
O532 C528 1.245 . S
O533 Tb520 2.343 . S
O533 Tb522 2.596 . S
O533 C528 1.259 . S
O534 Tb522 2.374 . S
O534 C529 1.250 . S
O535 Tb520 2.353 . S
O535 C529 1.263 . S
C536 O537 1.275 . S
C536 O538 1.246 . S
O537 Tb520 2.427 . S
O537 C536 1.275 . S
O538 Tb520 2.513 . S
O538 C536 1.246 . S
C539 O523 1.245 . S
C539 O524 1.259 . S
Tb540 O543 2.453 . S
Tb540 O544 2.596 . S
Tb540 O545 2.374 . S
Tb540 O553 2.343 . S
Tb540 O555 2.353 . S
Tb540 O557 2.427 . S
Tb540 O558 2.513 . S
C541 O545 1.251 . S
C541 O547 1.263 . S
Tb542 O544 2.343 . S
Tb542 O547 2.353 . S
Tb542 O550 2.427 . S
Tb542 O551 2.513 . S
Tb542 O552 2.453 . S
Tb542 O553 2.596 . S
Tb542 O554 2.374 . S
O543 Tb540 2.453 . S
O543 C559 1.245 . S
O544 Tb540 2.596 . S
O544 Tb542 2.343 . S
O544 C559 1.259 . S
O545 Tb540 2.374 . S
O545 C541 1.251 . S
C546 O550 1.275 . S
C546 O551 1.246 . S
O547 C541 1.263 . S
O547 Tb542 2.353 . S
C548 O552 1.245 . S
C548 O553 1.259 . S
C549 O554 1.250 . S
C549 O555 1.263 . S
O550 Tb542 2.427 . S
O550 C546 1.275 . S
O551 Tb542 2.513 . S
O551 C546 1.246 . S
O552 Tb542 2.453 . S
O552 C548 1.245 . S
O553 Tb540 2.343 . S
O553 Tb542 2.596 . S
O553 C548 1.259 . S
O554 Tb542 2.374 . S
O554 C549 1.250 . S
O555 Tb540 2.353 . S
O555 C549 1.263 . S
C556 O557 1.275 . S
C556 O558 1.246 . S
O557 Tb540 2.427 . S
O557 C556 1.275 . S
O558 Tb540 2.513 . S
O558 C556 1.246 . S
C559 O543 1.245 . S
C559 O544 1.259 . S
Tb560 O563 2.453 . S
Tb560 O564 2.596 . S
Tb560 O565 2.374 . S
Tb560 O573 2.343 . S
Tb560 O575 2.353 . S
Tb560 O577 2.427 . S
Tb560 O578 2.513 . S
C561 O565 1.251 . S
C561 O567 1.263 . S
Tb562 O564 2.343 . S
Tb562 O567 2.353 . S
Tb562 O570 2.427 . S
Tb562 O571 2.513 . S
Tb562 O572 2.453 . S
Tb562 O573 2.596 . S
Tb562 O574 2.374 . S
O563 Tb560 2.453 . S
O563 C579 1.245 . S
O564 Tb560 2.596 . S
O564 Tb562 2.343 . S
O564 C579 1.259 . S
O565 Tb560 2.374 . S
O565 C561 1.251 . S
C566 O570 1.272 1_554 S
C566 O571 1.243 1_554 S
O567 C561 1.263 . S
O567 Tb562 2.353 . S
C568 O572 1.245 . S
C568 O573 1.259 . S
C569 O574 1.250 . S
C569 O575 1.263 . S
O570 Tb562 2.427 . S
O570 C566 1.272 1_556 S
O571 Tb562 2.513 . S
O571 C566 1.243 1_556 S
O572 Tb562 2.453 . S
O572 C568 1.245 . S
O573 Tb560 2.343 . S
O573 Tb562 2.596 . S
O573 C568 1.259 . S
O574 Tb562 2.374 . S
O574 C569 1.250 . S
O575 Tb560 2.353 . S
O575 C569 1.263 . S
C576 O577 1.275 . S
C576 O578 1.246 . S
O577 Tb560 2.427 . S
O577 C576 1.275 . S
O578 Tb560 2.513 . S
O578 C576 1.246 . S
C579 O563 1.245 . S
C579 O564 1.259 . S
Tb580 O583 2.453 . S
Tb580 O584 2.596 . S
Tb580 O585 2.374 . S
Tb580 O593 2.343 . S
Tb580 O595 2.353 . S
Tb580 O597 2.427 . S
Tb580 O598 2.513 . S
C581 O585 1.251 . S
C581 O587 1.263 . S
Tb582 O584 2.343 . S
Tb582 O587 2.353 . S
Tb582 O590 2.427 . S
Tb582 O591 2.513 . S
Tb582 O592 2.453 . S
Tb582 O593 2.596 . S
Tb582 O594 2.374 . S
O583 Tb580 2.453 . S
O583 C599 1.245 . S
O584 Tb580 2.596 . S
O584 Tb582 2.343 . S
O584 C599 1.259 . S
O585 Tb580 2.374 . S
O585 C581 1.251 . S
C586 O590 1.271 1_554 S
C586 O591 1.242 1_554 S
O587 C581 1.263 . S
O587 Tb582 2.353 . S
C588 O592 1.245 . S
C588 O593 1.259 . S
C589 O594 1.250 . S
C589 O595 1.263 . S
O590 Tb582 2.427 . S
O590 C586 1.271 1_556 S
O591 Tb582 2.513 . S
O591 C586 1.242 1_556 S
O592 Tb582 2.453 . S
O592 C588 1.245 . S
O593 Tb580 2.343 . S
O593 Tb582 2.596 . S
O593 C588 1.259 . S
O594 Tb582 2.374 . S
O594 C589 1.250 . S
O595 Tb580 2.353 . S
O595 C589 1.263 . S
C596 O597 1.275 . S
C596 O598 1.246 . S
O597 Tb580 2.427 . S
O597 C596 1.275 . S
O598 Tb580 2.513 . S
O598 C596 1.246 . S
C599 O583 1.245 . S
C599 O584 1.259 . S
Tb600 O603 2.453 . S
Tb600 O604 2.596 . S
Tb600 O605 2.374 . S
Tb600 O613 2.343 . S
Tb600 O615 2.353 . S
Tb600 O617 2.427 . S
Tb600 O618 2.513 . S
C601 O605 1.251 . S
C601 O607 1.263 . S
Tb602 O604 2.343 . S
Tb602 O607 2.353 . S
Tb602 O610 2.427 . S
Tb602 O611 2.513 . S
Tb602 O612 2.453 . S
Tb602 O613 2.596 . S
Tb602 O614 2.374 . S
O603 Tb600 2.453 . S
O603 C619 1.245 . S
O604 Tb600 2.596 . S
O604 Tb602 2.343 . S
O604 C619 1.259 . S
O605 Tb600 2.374 . S
O605 C601 1.251 . S
C606 O610 1.275 . S
C606 O611 1.246 . S
O607 C601 1.263 . S
O607 Tb602 2.353 . S
C608 O612 1.245 . S
C608 O613 1.259 . S
C609 O614 1.250 . S
C609 O615 1.263 . S
O610 Tb602 2.427 . S
O610 C606 1.275 . S
O611 Tb602 2.513 . S
O611 C606 1.246 . S
O612 Tb602 2.453 . S
O612 C608 1.245 . S
O613 Tb600 2.343 . S
O613 Tb602 2.596 . S
O613 C608 1.259 . S
O614 Tb602 2.374 . S
O614 C609 1.250 . S
O615 Tb600 2.353 . S
O615 C609 1.263 . S
C616 O617 1.275 . S
C616 O618 1.246 . S
O617 Tb600 2.427 . S
O617 C616 1.275 . S
O618 Tb600 2.513 . S
O618 C616 1.246 . S
C619 O603 1.245 . S
C619 O604 1.259 . S
Tb620 O623 2.453 . S
Tb620 O624 2.596 . S
Tb620 O625 2.374 . S
Tb620 O633 2.343 . S
Tb620 O635 2.353 . S
Tb620 O637 2.427 . S
Tb620 O638 2.513 . S
C621 O625 1.251 . S
C621 O627 1.263 . S
Tb622 O624 2.343 . S
Tb622 O627 2.353 . S
Tb622 O630 2.427 . S
Tb622 O631 2.513 . S
Tb622 O632 2.453 . S
Tb622 O633 2.596 . S
Tb622 O634 2.374 . S
O623 Tb620 2.453 . S
O623 C639 1.245 . S
O624 Tb620 2.596 . S
O624 Tb622 2.343 . S
O624 C639 1.259 . S
O625 Tb620 2.374 . S
O625 C621 1.251 . S
C626 O630 1.275 . S
C626 O631 1.246 . S
O627 C621 1.263 . S
O627 Tb622 2.353 . S
C628 O632 1.245 . S
C628 O633 1.259 . S
C629 O634 1.250 . S
C629 O635 1.263 . S
O630 Tb622 2.427 . S
O630 C626 1.275 . S
O631 Tb622 2.513 . S
O631 C626 1.246 . S
O632 Tb622 2.453 . S
O632 C628 1.245 . S
O633 Tb620 2.343 . S
O633 Tb622 2.596 . S
O633 C628 1.259 . S
O634 Tb622 2.374 . S
O634 C629 1.250 . S
O635 Tb620 2.353 . S
O635 C629 1.263 . S
C636 O637 1.275 . S
C636 O638 1.246 . S
O637 Tb620 2.427 . S
O637 C636 1.275 . S
O638 Tb620 2.513 . S
O638 C636 1.246 . S
C639 O623 1.245 . S
C639 O624 1.259 . S
C640 C641 1.391 . S
C640 C642 1.394 . S
C640 H656 0.931 . S
C641 C640 1.391 . S
C641 C645 1.376 . S
C642 C640 1.394 . S
C642 C643 1.369 . S
C642 C646 1.531 . S
C643 C642 1.369 . S
C643 C644 1.410 . S
C643 C651 1.503 . S
C644 C643 1.410 . S
C644 C645 1.392 . S
C644 C647 1.511 . S
C645 C641 1.376 . S
C645 C644 1.392 . S
C645 H657 0.929 . S
C646 C642 1.531 . S
C646 H658 0.960 . S
C646 H659 0.962 . S
C646 H660 0.960 . S
C647 C644 1.511 . S
C647 H661 0.961 . S
C647 H662 0.961 . S
C647 H663 0.961 . S
C648 C649 1.370 . S
C648 C650 1.363 . S
C648 H664 0.931 . S
C649 C648 1.370 . S
C649 C653 1.408 . S
C650 C648 1.363 . S
C650 C651 1.370 . S
C650 C654 1.554 . S
C651 C643 1.503 . S
C651 C650 1.370 . S
C651 C652 1.403 . S
C652 C651 1.403 . S
C652 C653 1.404 . S
C652 C655 1.539 . S
C653 C649 1.408 . S
C653 C652 1.404 . S
C653 H665 0.930 . S
C654 C650 1.554 . S
C654 H666 0.962 . S
C654 H667 0.955 1_554 S
C654 H668 0.932 1_554 S
C655 C652 1.539 . S
C655 H669 0.958 . S
C655 H670 0.961 . S
C655 H671 0.960 . S
H656 C640 0.931 . S
H657 C645 0.929 . S
H658 C646 0.960 . S
H659 C646 0.962 . S
H660 C646 0.960 . S
H661 C647 0.961 . S
H662 C647 0.961 . S
H663 C647 0.961 . S
H664 C648 0.931 . S
H665 C653 0.930 . S
H666 C654 0.962 . S
H667 C654 0.955 1_556 S
H668 C654 0.932 1_556 S
H669 C655 0.958 . S
H670 C655 0.961 . S
H671 C655 0.960 . S
C672 C673 1.391 . S
C672 C674 1.394 . S
C672 H688 0.931 . S
C673 C672 1.391 . S
C673 C677 1.376 . S
C674 C672 1.394 . S
C674 C675 1.369 . S
C674 C678 1.531 . S
C675 C674 1.369 . S
C675 C676 1.410 . S
C675 C683 1.503 . S
C676 C675 1.410 . S
C676 C677 1.392 . S
C676 C679 1.511 . S
C677 C673 1.376 . S
C677 C676 1.392 . S
C677 H689 0.929 . S
C678 C674 1.531 . S
C678 H690 0.960 . S
C678 H691 0.962 1_554 S
C678 H692 0.960 1_554 S
C679 C676 1.511 . S
C679 H693 0.961 . S
C679 H694 0.961 . S
C679 H695 0.961 . S
C680 C681 1.370 . S
C680 C682 1.363 . S
C680 H696 0.931 . S
C681 C680 1.370 . S
C681 C685 1.408 . S
C682 C680 1.363 . S
C682 C683 1.370 . S
C682 C686 1.524 . S
C683 C675 1.503 . S
C683 C682 1.370 . S
C683 C684 1.403 . S
C684 C683 1.403 . S
C684 C685 1.404 . S
C684 C687 1.539 . S
C685 C681 1.408 . S
C685 C684 1.404 . S
C685 H697 0.930 . S
C686 C682 1.524 . S
C686 H698 0.956 . S
C686 H699 0.961 . S
C686 H700 0.961 . S
C687 C684 1.539 . S
C687 H701 0.958 . S
C687 H702 0.961 . S
C687 H703 0.960 . S
H688 C672 0.931 . S
H689 C677 0.929 . S
H690 C678 0.960 . S
H691 C678 0.962 1_556 S
H692 C678 0.960 1_556 S
H693 C679 0.961 . S
H694 C679 0.961 . S
H695 C679 0.961 . S
H696 C680 0.931 . S
H697 C685 0.930 . S
H698 C686 0.956 . S
H699 C686 0.961 . S
H700 C686 0.961 . S
H701 C687 0.958 . S
H702 C687 0.961 . S
H703 C687 0.960 . S
C704 C705 1.391 . S
C704 C706 1.394 . S
C704 H720 0.931 . S
C705 C704 1.391 . S
C705 C709 1.376 . S
C706 C704 1.394 . S
C706 C707 1.369 . S
C706 C710 1.531 . S
C707 C706 1.369 . S
C707 C708 1.410 . S
C707 C715 1.503 . S
C708 C707 1.410 . S
C708 C709 1.392 . S
C708 C711 1.511 . S
C709 C705 1.376 . S
C709 C708 1.392 . S
C709 H721 0.929 . S
C710 C706 1.531 . S
C710 H722 0.960 . S
C710 H723 0.962 . S
C710 H724 0.960 . S
C711 C708 1.511 . S
C711 H725 0.961 . S
C711 H726 0.961 . S
C711 H727 0.961 . S
C712 C713 1.370 . S
C712 C714 1.363 . S
C712 H728 0.931 . S
C713 C712 1.370 . S
C713 C717 1.408 . S
C714 C712 1.363 . S
C714 C715 1.370 . S
C714 C718 1.524 . S
C715 C707 1.503 . S
C715 C714 1.370 . S
C715 C716 1.403 . S
C716 C715 1.403 . S
C716 C717 1.404 . S
C716 C719 1.539 . S
C717 C713 1.408 . S
C717 C716 1.404 . S
C717 H729 0.930 . S
C718 C714 1.524 . S
C718 H730 0.956 . S
C718 H731 0.961 . S
C718 H732 0.961 . S
C719 C716 1.539 . S
C719 H733 0.958 . S
C719 H734 0.961 . S
C719 H735 0.960 . S
H720 C704 0.931 . S
H721 C709 0.929 . S
H722 C710 0.960 . S
H723 C710 0.962 . S
H724 C710 0.960 . S
H725 C711 0.961 . S
H726 C711 0.961 . S
H727 C711 0.961 . S
H728 C712 0.931 . S
H729 C717 0.930 . S
H730 C718 0.956 . S
H731 C718 0.961 . S
H732 C718 0.961 . S
H733 C719 0.958 . S
H734 C719 0.961 . S
H735 C719 0.960 . S
C736 C737 1.391 . S
C736 C738 1.394 . S
C736 H752 0.931 . S
C737 C736 1.391 . S
C737 C741 1.376 . S
C738 C736 1.394 . S
C738 C739 1.369 . S
C738 C742 1.531 . S
C739 C738 1.369 . S
C739 C740 1.410 . S
C739 C747 1.503 . S
C740 C739 1.410 . S
C740 C741 1.392 . S
C740 C743 1.511 . S
C741 C737 1.376 . S
C741 C740 1.392 . S
C741 H753 0.929 . S
C742 C738 1.531 . S
C742 H754 0.960 . S
C742 H755 0.962 . S
C742 H756 0.960 . S
C743 C740 1.511 . S
C743 H757 0.961 . S
C743 H758 0.961 . S
C743 H759 0.961 . S
C744 C745 1.370 . S
C744 C746 1.363 . S
C744 H760 0.931 . S
C745 C744 1.370 . S
C745 C749 1.408 . S
C746 C744 1.363 . S
C746 C747 1.370 . S
C746 C750 1.524 . S
C747 C739 1.503 . S
C747 C746 1.370 . S
C747 C748 1.403 . S
C748 C747 1.403 . S
C748 C749 1.404 . S
C748 C751 1.539 . S
C749 C745 1.408 . S
C749 C748 1.404 . S
C749 H761 0.930 . S
C750 C746 1.524 . S
C750 H762 0.956 . S
C750 H763 0.961 . S
C750 H764 0.961 . S
C751 C748 1.539 . S
C751 H765 0.958 . S
C751 H766 0.961 . S
C751 H767 0.960 . S
H752 C736 0.931 . S
H753 C741 0.929 . S
H754 C742 0.960 . S
H755 C742 0.962 . S
H756 C742 0.960 . S
H757 C743 0.961 . S
H758 C743 0.961 . S
H759 C743 0.961 . S
H760 C744 0.931 . S
H761 C749 0.930 . S
H762 C750 0.956 . S
H763 C750 0.961 . S
H764 C750 0.961 . S
H765 C751 0.958 . S
H766 C751 0.961 . S
H767 C751 0.960 . S
C768 C769 1.391 . S
C768 C770 1.394 . S
C768 H784 0.931 . S
C769 C768 1.391 . S
C769 C773 1.376 . S
C770 C768 1.394 . S
C770 C771 1.369 . S
C770 C774 1.531 . S
C771 C770 1.369 . S
C771 C772 1.410 . S
C771 C779 1.503 . S
C772 C771 1.410 . S
C772 C773 1.392 . S
C772 C775 1.511 . S
C773 C769 1.376 . S
C773 C772 1.392 . S
C773 H785 0.929 . S
C774 C770 1.531 . S
C774 H786 0.960 . S
C774 H787 0.962 . S
C774 H788 0.960 . S
C775 C772 1.511 . S
C775 H789 0.961 1_556 S
C775 H790 0.961 . S
C775 H791 0.961 . S
C776 C777 1.370 . S
C776 C778 1.363 . S
C776 H792 0.931 . S
C777 C776 1.370 . S
C777 C781 1.408 . S
C778 C776 1.363 . S
C778 C779 1.370 . S
C778 C782 1.524 . S
C779 C771 1.503 . S
C779 C778 1.370 . S
C779 C780 1.403 . S
C780 C779 1.403 . S
C780 C781 1.404 . S
C780 C783 1.539 . S
C781 C777 1.408 . S
C781 C780 1.404 . S
C781 H793 0.930 . S
C782 C778 1.524 . S
C782 H794 0.956 . S
C782 H795 0.961 . S
C782 H796 0.961 . S
C783 C780 1.539 . S
C783 H797 0.958 . S
C783 H798 0.961 . S
C783 H799 0.960 . S
H784 C768 0.931 . S
H785 C773 0.929 . S
H786 C774 0.960 . S
H787 C774 0.962 . S
H788 C774 0.960 . S
H789 C775 0.961 1_554 S
H790 C775 0.961 . S
H791 C775 0.961 . S
H792 C776 0.931 . S
H793 C781 0.930 . S
H794 C782 0.956 . S
H795 C782 0.961 . S
H796 C782 0.961 . S
H797 C783 0.958 . S
H798 C783 0.961 . S
H799 C783 0.960 . S
C800 C801 1.391 . S
C800 C802 1.394 . S
C800 H816 0.931 . S
C801 C800 1.391 . S
C801 C805 1.376 . S
C802 C800 1.394 . S
C802 C803 1.369 . S
C802 C806 1.531 1_556 S
C803 C802 1.369 . S
C803 C804 1.410 . S
C803 C811 1.503 . S
C804 C803 1.410 . S
C804 C805 1.392 . S
C804 C807 1.511 . S
C805 C801 1.376 . S
C805 C804 1.392 . S
C805 H817 0.929 . S
C806 C802 1.531 1_554 S
C806 H818 0.960 . S
C806 H819 0.965 . S
C806 H820 0.960 . S
C807 C804 1.511 . S
C807 H821 0.961 . S
C807 H822 0.961 . S
C807 H823 0.961 . S
C808 C809 1.370 . S
C808 C810 1.363 . S
C808 H824 0.931 . S
C809 C808 1.370 . S
C809 C813 1.408 . S
C810 C808 1.363 . S
C810 C811 1.370 . S
C810 C814 1.524 . S
C811 C803 1.503 . S
C811 C810 1.370 . S
C811 C812 1.403 . S
C812 C811 1.403 . S
C812 C813 1.404 . S
C812 C815 1.539 . S
C813 C809 1.408 . S
C813 C812 1.404 . S
C813 H825 0.930 . S
C814 C810 1.524 . S
C814 H826 0.956 . S
C814 H827 0.961 . S
C814 H828 0.961 . S
C815 C812 1.539 . S
C815 H829 0.958 . S
C815 H830 0.961 . S
C815 H831 0.960 . S
H816 C800 0.931 . S
H817 C805 0.929 . S
H818 C806 0.960 . S
H819 C806 0.965 . S
H820 C806 0.960 . S
H821 C807 0.961 . S
H822 C807 0.961 . S
H823 C807 0.961 . S
H824 C808 0.931 . S
H825 C813 0.930 . S
H826 C814 0.956 . S
H827 C814 0.961 . S
H828 C814 0.961 . S
H829 C815 0.958 . S
H830 C815 0.961 . S
H831 C815 0.960 . S
C832 C833 1.391 . S
C832 C834 1.394 . S
C832 H848 0.931 . S
C833 C832 1.391 . S
C833 C837 1.376 . S
C834 C832 1.394 . S
C834 C835 1.369 . S
C834 C838 1.531 . S
C835 C834 1.369 . S
C835 C836 1.410 . S
C835 C843 1.503 . S
C836 C835 1.410 . S
C836 C837 1.392 . S
C836 C839 1.511 . S
C837 C833 1.376 . S
C837 C836 1.392 . S
C837 H849 0.929 . S
C838 C834 1.531 . S
C838 H850 0.960 . S
C838 H851 0.962 . S
C838 H852 0.960 . S
C839 C836 1.511 . S
C839 H853 0.961 . S
C839 H854 0.961 . S
C839 H855 0.961 . S
C840 C841 1.370 . S
C840 C842 1.363 . S
C840 H856 0.931 . S
C841 C840 1.370 . S
C841 C845 1.408 . S
C842 C840 1.363 . S
C842 C843 1.370 . S
C842 C846 1.524 . S
C843 C835 1.503 . S
C843 C842 1.370 . S
C843 C844 1.403 . S
C844 C843 1.403 . S
C844 C845 1.404 . S
C844 C847 1.539 . S
C845 C841 1.408 . S
C845 C844 1.404 . S
C845 H857 0.930 . S
C846 C842 1.524 . S
C846 H858 0.956 . S
C846 H859 0.961 . S
C846 H860 0.961 . S
C847 C844 1.539 . S
C847 H861 0.958 . S
C847 H862 0.961 . S
C847 H863 0.960 . S
H848 C832 0.931 . S
H849 C837 0.929 . S
H850 C838 0.960 . S
H851 C838 0.962 . S
H852 C838 0.960 . S
H853 C839 0.961 . S
H854 C839 0.961 . S
H855 C839 0.961 . S
H856 C840 0.931 . S
H857 C845 0.930 . S
H858 C846 0.956 . S
H859 C846 0.961 . S
H860 C846 0.961 . S
H861 C847 0.958 . S
H862 C847 0.961 . S
H863 C847 0.960 . S
C864 C865 1.391 . S
C864 C866 1.394 . S
C864 H880 0.931 . S
C865 C864 1.391 . S
C865 C869 1.376 . S
C866 C864 1.394 . S
C866 C867 1.369 . S
C866 C870 1.531 . S
C867 C866 1.369 . S
C867 C868 1.410 . S
C867 C875 1.503 . S
C868 C867 1.410 . S
C868 C869 1.392 . S
C868 C871 1.511 . S
C869 C865 1.376 . S
C869 C868 1.392 . S
C869 H881 0.929 . S
C870 C866 1.531 . S
C870 H882 0.960 . S
C870 H883 0.962 . S
C870 H884 0.960 . S
C871 C868 1.511 . S
C871 H885 0.961 . S
C871 H886 0.961 . S
C871 H887 0.961 . S
C872 C873 1.370 . S
C872 C874 1.363 . S
C872 H888 0.931 . S
C873 C872 1.370 . S
C873 C877 1.408 . S
C874 C872 1.363 . S
C874 C875 1.370 . S
C874 C878 1.524 . S
C875 C867 1.503 . S
C875 C874 1.370 . S
C875 C876 1.403 . S
C876 C875 1.403 . S
C876 C877 1.404 . S
C876 C879 1.539 . S
C877 C873 1.408 . S
C877 C876 1.404 . S
C877 H889 0.930 . S
C878 C874 1.524 . S
C878 H890 0.956 . S
C878 H891 0.961 . S
C878 H892 0.961 . S
C879 C876 1.539 . S
C879 H893 0.958 . S
C879 H894 0.961 . S
C879 H895 0.960 . S
H880 C864 0.931 . S
H881 C869 0.929 . S
H882 C870 0.960 . S
H883 C870 0.962 . S
H884 C870 0.960 . S
H885 C871 0.961 . S
H886 C871 0.961 . S
H887 C871 0.961 . S
H888 C872 0.931 . S
H889 C877 0.930 . S
H890 C878 0.956 . S
H891 C878 0.961 . S
H892 C878 0.961 . S
H893 C879 0.958 . S
H894 C879 0.961 . S
H895 C879 0.960 . S
C896 C897 1.391 . S
C896 C898 1.394 . S
C896 H912 0.931 . S
C897 C896 1.391 . S
C897 C901 1.376 . S
C898 C896 1.394 . S
C898 C899 1.369 . S
C898 C902 1.531 . S
C899 C898 1.369 . S
C899 C900 1.410 . S
C899 C907 1.503 . S
C900 C899 1.410 . S
C900 C901 1.392 . S
C900 C903 1.511 . S
C901 C897 1.376 . S
C901 C900 1.392 . S
C901 H913 0.929 . S
C902 C898 1.531 . S
C902 H914 0.960 . S
C902 H915 0.962 . S
C902 H916 0.960 . S
C903 C900 1.511 . S
C903 H917 0.961 . S
C903 H918 0.961 . S
C903 H919 0.961 . S
C904 C905 1.370 . S
C904 C906 1.363 . S
C904 H920 0.931 . S
C905 C904 1.370 . S
C905 C909 1.408 . S
C906 C904 1.363 . S
C906 C907 1.370 . S
C906 C910 1.524 . S
C907 C899 1.503 . S
C907 C906 1.370 . S
C907 C908 1.403 . S
C908 C907 1.403 . S
C908 C909 1.404 . S
C908 C911 1.539 . S
C909 C905 1.408 . S
C909 C908 1.404 . S
C909 H921 0.930 . S
C910 C906 1.524 . S
C910 H922 0.956 . S
C910 H923 0.961 . S
C910 H924 0.961 . S
C911 C908 1.539 . S
C911 H925 0.958 . S
C911 H926 0.961 . S
C911 H927 0.960 . S
H912 C896 0.931 . S
H913 C901 0.929 . S
H914 C902 0.960 . S
H915 C902 0.962 . S
H916 C902 0.960 . S
H917 C903 0.961 . S
H918 C903 0.961 . S
H919 C903 0.961 . S
H920 C904 0.931 . S
H921 C909 0.930 . S
H922 C910 0.956 . S
H923 C910 0.961 . S
H924 C910 0.961 . S
H925 C911 0.958 . S
H926 C911 0.961 . S
H927 C911 0.960 . S
C928 C929 1.391 . S
C928 C930 1.394 . S
C928 H944 0.931 . S
C929 C928 1.391 . S
C929 C933 1.376 . S
C930 C928 1.394 . S
C930 C931 1.369 . S
C930 C934 1.531 . S
C931 C930 1.369 . S
C931 C932 1.410 . S
C931 C939 1.503 . S
C932 C931 1.410 . S
C932 C933 1.392 . S
C932 C935 1.511 . S
C933 C929 1.376 . S
C933 C932 1.392 . S
C933 H945 0.929 . S
C934 C930 1.531 . S
C934 H946 0.960 . S
C934 H947 0.962 . S
C934 H948 0.960 . S
C935 C932 1.511 . S
C935 H949 0.961 . S
C935 H950 0.961 . S
C935 H951 0.961 . S
C936 C937 1.370 . S
C936 C938 1.363 . S
C936 H952 0.931 . S
C937 C936 1.370 . S
C937 C941 1.408 . S
C938 C936 1.363 . S
C938 C939 1.370 . S
C938 C942 1.524 . S
C939 C931 1.503 . S
C939 C938 1.370 . S
C939 C940 1.403 . S
C940 C939 1.403 . S
C940 C941 1.404 . S
C940 C943 1.539 . S
C941 C937 1.408 . S
C941 C940 1.404 . S
C941 H953 0.930 . S
C942 C938 1.524 . S
C942 H954 0.956 . S
C942 H955 0.961 . S
C942 H956 0.961 . S
C943 C940 1.539 . S
C943 H957 0.958 . S
C943 H958 0.961 . S
C943 H959 0.960 . S
H944 C928 0.931 . S
H945 C933 0.929 . S
H946 C934 0.960 . S
H947 C934 0.962 . S
H948 C934 0.960 . S
H949 C935 0.961 . S
H950 C935 0.961 . S
H951 C935 0.961 . S
H952 C936 0.931 . S
H953 C941 0.930 . S
H954 C942 0.956 . S
H955 C942 0.961 . S
H956 C942 0.961 . S
H957 C943 0.958 . S
H958 C943 0.961 . S
H959 C943 0.960 . S
C960 C961 1.391 . S
C960 C962 1.394 . S
C960 H976 0.931 . S
C961 C960 1.391 . S
C961 C965 1.376 . S
C962 C960 1.394 . S
C962 C963 1.369 . S
C962 C966 1.531 . S
C963 C962 1.369 . S
C963 C964 1.410 . S
C963 C971 1.503 . S
C964 C963 1.410 . S
C964 C965 1.392 . S
C964 C967 1.511 . S
C965 C961 1.376 . S
C965 C964 1.392 . S
C965 H977 0.929 . S
C966 C962 1.531 . S
C966 H978 0.960 . S
C966 H979 0.962 . S
C966 H980 0.960 . S
C967 C964 1.511 . S
C967 H981 0.961 . S
C967 H982 0.961 . S
C967 H983 0.961 . S
C968 C969 1.370 . S
C968 C970 1.363 . S
C968 H984 0.931 . S
C969 C968 1.370 . S
C969 C973 1.408 . S
C970 C968 1.363 . S
C970 C971 1.370 . S
C970 C974 1.524 . S
C971 C963 1.503 . S
C971 C970 1.370 . S
C971 C972 1.403 . S
C972 C971 1.403 . S
C972 C973 1.404 . S
C972 C975 1.539 . S
C973 C969 1.408 . S
C973 C972 1.404 . S
C973 H985 0.930 . S
C974 C970 1.524 . S
C974 H986 0.956 . S
C974 H987 0.961 . S
C974 H988 0.961 . S
C975 C972 1.539 . S
C975 H989 0.958 . S
C975 H990 0.961 . S
C975 H991 0.960 . S
H976 C960 0.931 . S
H977 C965 0.929 . S
H978 C966 0.960 . S
H979 C966 0.962 . S
H980 C966 0.960 . S
H981 C967 0.961 . S
H982 C967 0.961 . S
H983 C967 0.961 . S
H984 C968 0.931 . S
H985 C973 0.930 . S
H986 C974 0.956 . S
H987 C974 0.961 . S
H988 C974 0.961 . S
H989 C975 0.958 . S
H990 C975 0.961 . S
H991 C975 0.960 . S
C992 C993 1.391 . S
C992 C994 1.394 . S
C992 H1008 0.931 . S
C993 C992 1.391 . S
C993 C997 1.376 . S
C994 C992 1.394 . S
C994 C995 1.369 . S
C994 C998 1.531 . S
C995 C994 1.369 . S
C995 C996 1.410 . S
C995 C1003 1.503 . S
C996 C995 1.410 . S
C996 C997 1.392 . S
C996 C999 1.511 . S
C997 C993 1.376 . S
C997 C996 1.392 . S
C997 H1009 0.929 . S
C998 C994 1.531 . S
C998 H1010 0.960 . S
C998 H1011 0.962 . S
C998 H1012 0.960 . S
C999 C996 1.511 . S
C999 H1013 0.961 . S
C999 H1014 0.961 . S
C999 H1015 0.961 . S
C1000 C1001 1.370 . S
C1000 C1002 1.363 . S
C1000 H1016 0.931 . S
C1001 C1000 1.370 . S
C1001 C1005 1.408 . S
C1002 C1000 1.363 . S
C1002 C1003 1.370 . S
C1002 C1006 1.524 . S
C1003 C995 1.503 . S
C1003 C1002 1.370 . S
C1003 C1004 1.403 . S
C1004 C1003 1.403 . S
C1004 C1005 1.404 . S
C1004 C1007 1.539 . S
C1005 C1001 1.408 . S
C1005 C1004 1.404 . S
C1005 H1017 0.930 . S
C1006 C1002 1.524 . S
C1006 H1018 0.956 . S
C1006 H1019 0.961 . S
C1006 H1020 0.961 . S
C1007 C1004 1.539 . S
C1007 H1021 0.958 . S
C1007 H1022 0.961 . S
C1007 H1023 0.960 . S
H1008 C992 0.931 . S
H1009 C997 0.929 . S
H1010 C998 0.960 . S
H1011 C998 0.962 . S
H1012 C998 0.960 . S
H1013 C999 0.961 . S
H1014 C999 0.961 . S
H1015 C999 0.961 . S
H1016 C1000 0.931 . S
H1017 C1005 0.930 . S
H1018 C1006 0.956 . S
H1019 C1006 0.961 . S
H1020 C1006 0.961 . S
H1021 C1007 0.958 . S
H1022 C1007 0.961 . S
H1023 C1007 0.960 . S
C1024 C1025 1.391 . S
C1024 C1026 1.394 . S
C1024 H1040 0.931 . S
C1025 C1024 1.391 . S
C1025 C1029 1.376 . S
C1026 C1024 1.394 . S
C1026 C1027 1.369 . S
C1026 C1030 1.531 . S
C1027 C1026 1.369 . S
C1027 C1028 1.410 . S
C1027 C1035 1.503 . S
C1028 C1027 1.410 . S
C1028 C1029 1.392 . S
C1028 C1031 1.511 . S
C1029 C1025 1.376 . S
C1029 C1028 1.392 . S
C1029 H1041 0.929 . S
C1030 C1026 1.531 . S
C1030 H1042 0.960 . S
C1030 H1043 0.962 . S
C1030 H1044 0.960 . S
C1031 C1028 1.511 . S
C1031 H1045 0.961 . S
C1031 H1046 0.961 . S
C1031 H1047 0.961 . S
C1032 C1033 1.370 . S
C1032 C1034 1.363 . S
C1032 H1048 0.931 . S
C1033 C1032 1.370 . S
C1033 C1037 1.408 . S
C1034 C1032 1.363 . S
C1034 C1035 1.370 . S
C1034 C1038 1.524 . S
C1035 C1027 1.503 . S
C1035 C1034 1.370 . S
C1035 C1036 1.403 . S
C1036 C1035 1.403 . S
C1036 C1037 1.404 . S
C1036 C1039 1.539 . S
C1037 C1033 1.408 . S
C1037 C1036 1.404 . S
C1037 H1049 0.930 . S
C1038 C1034 1.524 . S
C1038 H1050 0.956 . S
C1038 H1051 0.961 . S
C1038 H1052 0.961 . S
C1039 C1036 1.539 . S
C1039 H1053 0.958 . S
C1039 H1054 0.961 . S
C1039 H1055 0.960 . S
H1040 C1024 0.931 . S
H1041 C1029 0.929 . S
H1042 C1030 0.960 . S
H1043 C1030 0.962 . S
H1044 C1030 0.960 . S
H1045 C1031 0.961 . S
H1046 C1031 0.961 . S
H1047 C1031 0.961 . S
H1048 C1032 0.931 . S
H1049 C1037 0.930 . S
H1050 C1038 0.956 . S
H1051 C1038 0.961 . S
H1052 C1038 0.961 . S
H1053 C1039 0.958 . S
H1054 C1039 0.961 . S
H1055 C1039 0.960 . S
C1056 C1057 1.391 . S
C1056 C1058 1.394 . S
C1056 H1072 0.931 . S
C1057 C1056 1.391 . S
C1057 C1061 1.376 . S
C1058 C1056 1.394 . S
C1058 C1059 1.369 . S
C1058 C1062 1.531 . S
C1059 C1058 1.369 . S
C1059 C1060 1.410 . S
C1059 C1067 1.503 . S
C1060 C1059 1.410 . S
C1060 C1061 1.392 . S
C1060 C1063 1.511 . S
C1061 C1057 1.376 . S
C1061 C1060 1.392 . S
C1061 H1073 0.929 . S
C1062 C1058 1.531 . S
C1062 H1074 0.960 . S
C1062 H1075 0.962 . S
C1062 H1076 0.960 . S
C1063 C1060 1.511 . S
C1063 H1077 0.961 . S
C1063 H1078 0.961 . S
C1063 H1079 0.961 . S
C1064 C1065 1.370 . S
C1064 C1066 1.363 . S
C1064 H1080 0.931 . S
C1065 C1064 1.370 . S
C1065 C1069 1.408 . S
C1066 C1064 1.363 . S
C1066 C1067 1.370 . S
C1066 C1070 1.524 . S
C1067 C1059 1.503 . S
C1067 C1066 1.370 . S
C1067 C1068 1.403 . S
C1068 C1067 1.403 . S
C1068 C1069 1.404 . S
C1068 C1071 1.539 . S
C1069 C1065 1.408 . S
C1069 C1068 1.404 . S
C1069 H1081 0.930 . S
C1070 C1066 1.524 . S
C1070 H1082 0.956 . S
C1070 H1083 0.961 . S
C1070 H1084 0.961 . S
C1071 C1068 1.539 . S
C1071 H1085 0.958 . S
C1071 H1086 0.961 . S
C1071 H1087 0.960 . S
H1072 C1056 0.931 . S
H1073 C1061 0.929 . S
H1074 C1062 0.960 . S
H1075 C1062 0.962 . S
H1076 C1062 0.960 . S
H1077 C1063 0.961 . S
H1078 C1063 0.961 . S
H1079 C1063 0.961 . S
H1080 C1064 0.931 . S
H1081 C1069 0.930 . S
H1082 C1070 0.956 . S
H1083 C1070 0.961 . S
H1084 C1070 0.961 . S
H1085 C1071 0.958 . S
H1086 C1071 0.961 . S
H1087 C1071 0.960 . S
C1088 C1089 1.391 . S
C1088 C1090 1.394 . S
C1088 H1104 0.931 . S
C1089 C1088 1.391 . S
C1089 C1093 1.376 . S
C1090 C1088 1.394 . S
C1090 C1091 1.369 . S
C1090 C1094 1.531 . S
C1091 C1090 1.369 . S
C1091 C1092 1.410 . S
C1091 C1099 1.503 . S
C1092 C1091 1.410 . S
C1092 C1093 1.392 . S
C1092 C1095 1.511 . S
C1093 C1089 1.376 . S
C1093 C1092 1.392 . S
C1093 H1105 0.929 . S
C1094 C1090 1.531 . S
C1094 H1106 0.960 . S
C1094 H1107 0.962 . S
C1094 H1108 0.960 . S
C1095 C1092 1.511 . S
C1095 H1109 0.961 . S
C1095 H1110 0.961 . S
C1095 H1111 0.961 . S
C1096 C1097 1.370 . S
C1096 C1098 1.363 . S
C1096 H1112 0.931 . S
C1097 C1096 1.370 . S
C1097 C1101 1.408 . S
C1098 C1096 1.363 . S
C1098 C1099 1.370 . S
C1098 C1102 1.524 . S
C1099 C1091 1.503 . S
C1099 C1098 1.370 . S
C1099 C1100 1.403 . S
C1100 C1099 1.403 . S
C1100 C1101 1.404 . S
C1100 C1103 1.539 . S
C1101 C1097 1.408 . S
C1101 C1100 1.404 . S
C1101 H1113 0.930 . S
C1102 C1098 1.524 . S
C1102 H1114 0.956 . S
C1102 H1115 0.961 . S
C1102 H1116 0.961 . S
C1103 C1100 1.539 . S
C1103 H1117 0.958 . S
C1103 H1118 0.961 . S
C1103 H1119 0.960 . S
H1104 C1088 0.931 . S
H1105 C1093 0.929 . S
H1106 C1094 0.960 . S
H1107 C1094 0.962 . S
H1108 C1094 0.960 . S
H1109 C1095 0.961 . S
H1110 C1095 0.961 . S
H1111 C1095 0.961 . S
H1112 C1096 0.931 . S
H1113 C1101 0.930 . S
H1114 C1102 0.956 . S
H1115 C1102 0.961 . S
H1116 C1102 0.961 . S
H1117 C1103 0.958 . S
H1118 C1103 0.961 . S
H1119 C1103 0.960 . S
C1120 C1121 1.391 . S
C1120 C1122 1.394 . S
C1120 H1136 0.931 . S
C1121 C1120 1.391 . S
C1121 C1125 1.376 . S
C1122 C1120 1.394 . S
C1122 C1123 1.369 . S
C1122 C1126 1.531 . S
C1123 C1122 1.369 . S
C1123 C1124 1.410 . S
C1123 C1131 1.503 . S
C1124 C1123 1.410 . S
C1124 C1125 1.392 . S
C1124 C1127 1.511 . S
C1125 C1121 1.376 . S
C1125 C1124 1.392 . S
C1125 H1137 0.929 . S
C1126 C1122 1.531 . S
C1126 H1138 0.960 . S
C1126 H1139 0.962 . S
C1126 H1140 0.960 . S
C1127 C1124 1.511 . S
C1127 H1141 0.961 . S
C1127 H1142 0.961 . S
C1127 H1143 0.961 . S
C1128 C1129 1.370 . S
C1128 C1130 1.363 . S
C1128 H1144 0.931 . S
C1129 C1128 1.370 . S
C1129 C1133 1.408 . S
C1130 C1128 1.363 . S
C1130 C1131 1.370 . S
C1130 C1134 1.524 . S
C1131 C1123 1.503 . S
C1131 C1130 1.370 . S
C1131 C1132 1.403 . S
C1132 C1131 1.403 . S
C1132 C1133 1.404 . S
C1132 C1135 1.539 . S
C1133 C1129 1.408 . S
C1133 C1132 1.404 . S
C1133 H1145 0.930 . S
C1134 C1130 1.524 . S
C1134 H1146 0.956 . S
C1134 H1147 0.961 . S
C1134 H1148 0.961 . S
C1135 C1132 1.539 . S
C1135 H1149 0.958 . S
C1135 H1150 0.961 . S
C1135 H1151 0.960 . S
H1136 C1120 0.931 . S
H1137 C1125 0.929 . S
H1138 C1126 0.960 . S
H1139 C1126 0.962 . S
H1140 C1126 0.960 . S
H1141 C1127 0.961 . S
H1142 C1127 0.961 . S
H1143 C1127 0.961 . S
H1144 C1128 0.931 . S
H1145 C1133 0.930 . S
H1146 C1134 0.956 . S
H1147 C1134 0.961 . S
H1148 C1134 0.961 . S
H1149 C1135 0.958 . S
H1150 C1135 0.961 . S
H1151 C1135 0.960 . S
C1152 C1153 1.391 . S
C1152 C1154 1.394 . S
C1152 H1168 0.931 . S
C1153 C1152 1.391 . S
C1153 C1157 1.376 1_545 S
C1154 C1152 1.394 . S
C1154 C1155 1.369 . S
C1154 C1158 1.531 . S
C1155 C1154 1.369 . S
C1155 C1156 1.402 1_545 S
C1155 C1163 1.503 . S
C1156 C1155 1.402 1_565 S
C1156 C1157 1.394 . S
C1156 C1159 1.518 . S
C1157 C1153 1.376 1_565 S
C1157 C1156 1.394 . S
C1157 H1169 0.929 . S
C1158 C1154 1.531 . S
C1158 H1170 0.960 . S
C1158 H1171 0.962 . S
C1158 H1172 0.960 . S
C1159 C1156 1.518 . S
C1159 H1173 0.961 . S
C1159 H1174 0.961 . S
C1159 H1175 0.961 1_565 S
C1160 C1161 1.381 . S
C1160 C1162 1.363 . S
C1160 H1176 0.931 . S
C1161 C1160 1.381 . S
C1161 C1165 1.395 1_565 S
C1162 C1160 1.363 . S
C1162 C1163 1.370 1_565 S
C1162 C1166 1.524 . S
C1163 C1155 1.503 . S
C1163 C1162 1.370 1_545 S
C1163 C1164 1.403 . S
C1164 C1163 1.403 . S
C1164 C1165 1.404 . S
C1164 C1167 1.539 . S
C1165 C1161 1.395 1_545 S
C1165 C1164 1.404 . S
C1165 H1177 0.930 . S
C1166 C1162 1.524 . S
C1166 H1178 0.956 . S
C1166 H1179 0.961 . S
C1166 H1180 0.961 . S
C1167 C1164 1.539 . S
C1167 H1181 0.958 . S
C1167 H1182 0.961 . S
C1167 H1183 0.960 . S
H1168 C1152 0.931 . S
H1169 C1157 0.929 . S
H1170 C1158 0.960 . S
H1171 C1158 0.962 . S
H1172 C1158 0.960 . S
H1173 C1159 0.961 . S
H1174 C1159 0.961 . S
H1175 C1159 0.961 1_545 S
H1176 C1160 0.931 . S
H1177 C1165 0.930 . S
H1178 C1166 0.956 . S
H1179 C1166 0.961 . S
H1180 C1166 0.961 . S
H1181 C1167 0.958 . S
H1182 C1167 0.961 . S
H1183 C1167 0.960 . S
C1184 C1185 1.391 . S
C1184 C1186 1.394 . S
C1184 H1200 0.931 . S
C1185 C1184 1.391 . S
C1185 C1189 1.376 . S
C1186 C1184 1.394 . S
C1186 C1187 1.369 . S
C1186 C1190 1.531 . S
C1187 C1186 1.369 . S
C1187 C1188 1.410 1_455 S
C1187 C1195 1.503 1_455 S
C1188 C1187 1.410 1_655 S
C1188 C1189 1.392 1_655 S
C1188 C1191 1.511 . S
C1189 C1185 1.376 . S
C1189 C1188 1.392 1_455 S
C1189 H1201 0.929 . S
C1190 C1186 1.531 . S
C1190 H1202 0.960 . S
C1190 H1203 0.962 . S
C1190 H1204 0.960 . S
C1191 C1188 1.511 . S
C1191 H1205 0.961 . S
C1191 H1206 0.961 . S
C1191 H1207 0.961 . S
C1192 C1193 1.370 . S
C1192 C1194 1.363 . S
C1192 H1208 0.931 . S
C1193 C1192 1.370 . S
C1193 C1197 1.408 . S
C1194 C1192 1.363 . S
C1194 C1195 1.370 . S
C1194 C1198 1.524 1_655 S
C1195 C1187 1.503 1_655 S
C1195 C1194 1.370 . S
C1195 C1196 1.403 . S
C1196 C1195 1.403 . S
C1196 C1197 1.404 . S
C1196 C1199 1.539 . S
C1197 C1193 1.408 . S
C1197 C1196 1.404 . S
C1197 H1209 0.930 . S
C1198 C1194 1.524 1_455 S
C1198 H1210 0.956 . S
C1198 H1211 0.961 . S
C1198 H1212 0.961 . S
C1199 C1196 1.539 . S
C1199 H1213 0.958 . S
C1199 H1214 0.961 . S
C1199 H1215 0.960 . S
H1200 C1184 0.931 . S
H1201 C1189 0.929 . S
H1202 C1190 0.960 . S
H1203 C1190 0.962 . S
H1204 C1190 0.960 . S
H1205 C1191 0.961 . S
H1206 C1191 0.961 . S
H1207 C1191 0.961 . S
H1208 C1192 0.931 . S
H1209 C1197 0.930 . S
H1210 C1198 0.956 . S
H1211 C1198 0.961 . S
H1212 C1198 0.961 . S
H1213 C1199 0.958 . S
H1214 C1199 0.961 . S
H1215 C1199 0.960 . S
C1216 C1217 1.391 . S
C1216 C1218 1.394 . S
C1216 H1232 0.931 . S
C1217 C1216 1.391 . S
C1217 C1221 1.376 . S
C1218 C1216 1.394 . S
C1218 C1219 1.369 . S
C1218 C1222 1.531 1_556 S
C1219 C1218 1.369 . S
C1219 C1220 1.410 . S
C1219 C1227 1.503 1_556 S
C1220 C1219 1.410 . S
C1220 C1221 1.392 . S
C1220 C1223 1.511 . S
C1221 C1217 1.376 . S
C1221 C1220 1.392 . S
C1221 H1233 0.929 . S
C1222 C1218 1.531 1_554 S
C1222 H1234 0.960 . S
C1222 H1235 0.962 . S
C1222 H1236 0.960 . S
C1223 C1220 1.511 . S
C1223 H1237 0.961 . S
C1223 H1238 0.961 . S
C1223 H1239 0.961 . S
C1224 C1225 1.370 . S
C1224 C1226 1.363 . S
C1224 H1240 0.931 . S
C1225 C1224 1.370 . S
C1225 C1229 1.408 . S
C1226 C1224 1.363 . S
C1226 C1227 1.370 . S
C1226 C1230 1.524 . S
C1227 C1219 1.503 1_554 S
C1227 C1226 1.370 . S
C1227 C1228 1.403 . S
C1228 C1227 1.403 . S
C1228 C1229 1.404 . S
C1228 C1231 1.539 . S
C1229 C1225 1.408 . S
C1229 C1228 1.404 . S
C1229 H1241 0.930 . S
C1230 C1226 1.524 . S
C1230 H1242 0.956 . S
C1230 H1243 0.961 1_554 S
C1230 H1244 0.961 . S
C1231 C1228 1.539 . S
C1231 H1245 0.958 . S
C1231 H1246 0.961 . S
C1231 H1247 0.960 1_554 S
H1232 C1216 0.931 . S
H1233 C1221 0.929 . S
H1234 C1222 0.960 . S
H1235 C1222 0.962 . S
H1236 C1222 0.960 . S
H1237 C1223 0.961 . S
H1238 C1223 0.961 . S
H1239 C1223 0.961 . S
H1240 C1224 0.931 . S
H1241 C1229 0.930 . S
H1242 C1230 0.956 . S
H1243 C1230 0.961 1_556 S
H1244 C1230 0.961 . S
H1245 C1231 0.958 . S
H1246 C1231 0.961 . S
H1247 C1231 0.960 1_556 S
C1248 C1249 1.397 . S
C1248 C1250 1.394 1_655 S
C1248 H1264 0.931 . S
C1249 C1248 1.397 . S
C1249 C1253 1.375 1_565 S
C1250 C1248 1.394 1_455 S
C1250 C1251 1.369 1_455 S
C1250 C1254 1.531 . S
C1251 C1250 1.369 1_655 S
C1251 C1252 1.410 . S
C1251 C1259 1.503 1_654 S
C1252 C1251 1.410 . S
C1252 C1253 1.391 1_565 S
C1252 C1255 1.513 1_554 S
C1253 C1249 1.375 1_545 S
C1253 C1252 1.391 1_545 S
C1253 H1265 0.931 . S
C1254 C1250 1.531 . S
C1254 H1266 0.960 . S
C1254 H1267 0.962 1_565 S
C1254 H1268 0.960 . S
C1255 C1252 1.513 1_556 S
C1255 H1269 0.942 1_565 S
C1255 H1270 0.947 1_565 S
C1255 H1271 0.993 . S
C1256 C1257 1.370 1_545 S
C1256 C1258 1.363 . S
C1256 H1272 0.931 . S
C1257 C1256 1.370 1_565 S
C1257 C1261 1.408 . S
C1258 C1256 1.363 . S
C1258 C1259 1.370 1_545 S
C1258 C1262 1.524 . S
C1259 C1251 1.503 1_456 S
C1259 C1258 1.370 1_565 S
C1259 C1260 1.403 . S
C1260 C1259 1.403 . S
C1260 C1261 1.404 . S
C1260 C1263 1.539 . S
C1261 C1257 1.408 . S
C1261 C1260 1.404 . S
C1261 H1273 0.930 . S
C1262 C1258 1.524 . S
C1262 H1274 0.956 1_556 S
C1262 H1275 0.961 1_455 S
C1262 H1276 0.961 . S
C1263 C1260 1.539 . S
C1263 H1277 0.958 . S
C1263 H1278 0.961 1_455 S
C1263 H1279 0.960 1_455 S
H1264 C1248 0.931 . S
H1265 C1253 0.931 . S
H1266 C1254 0.960 . S
H1267 C1254 0.962 1_545 S
H1268 C1254 0.960 . S
H1269 C1255 0.942 1_545 S
H1270 C1255 0.947 1_545 S
H1271 C1255 0.993 . S
H1272 C1256 0.931 . S
H1273 C1261 0.930 . S
H1274 C1262 0.956 1_554 S
H1275 C1262 0.961 1_655 S
H1276 C1262 0.961 . S
H1277 C1263 0.958 . S
H1278 C1263 0.961 1_655 S
H1279 C1263 0.960 1_655 S
C1280 C1281 1.391 . S
C1280 C1282 1.394 . S
C1280 H1296 0.931 . S
C1281 C1280 1.391 . S
C1281 C1285 1.376 . S
C1282 C1280 1.394 . S
C1282 C1283 1.369 . S
C1282 C1286 1.531 . S
C1283 C1282 1.369 . S
C1283 C1284 1.410 . S
C1283 C1291 1.503 . S
C1284 C1283 1.410 . S
C1284 C1285 1.392 . S
C1284 C1287 1.511 . S
C1285 C1281 1.376 . S
C1285 C1284 1.392 . S
C1285 H1297 0.929 . S
C1286 C1282 1.531 . S
C1286 H1298 0.960 . S
C1286 H1299 0.962 1_565 S
C1286 H1300 0.960 . S
C1287 C1284 1.511 . S
C1287 H1301 0.961 1_565 S
C1287 H1302 0.961 1_565 S
C1287 H1303 0.961 . S
C1288 C1289 1.379 . S
C1288 C1290 1.363 . S
C1288 H1304 0.931 . S
C1289 C1288 1.379 . S
C1289 C1293 1.399 1_545 S
C1290 C1288 1.363 . S
C1290 C1291 1.370 1_545 S
C1290 C1294 1.524 . S
C1291 C1283 1.503 . S
C1291 C1290 1.370 1_565 S
C1291 C1292 1.403 . S
C1292 C1291 1.403 . S
C1292 C1293 1.404 . S
C1292 C1295 1.539 . S
C1293 C1289 1.399 1_565 S
C1293 C1292 1.404 . S
C1293 H1305 0.930 . S
C1294 C1290 1.524 . S
C1294 H1306 0.956 . S
C1294 H1307 0.961 . S
C1294 H1308 0.961 . S
C1295 C1292 1.539 . S
C1295 H1309 0.958 . S
C1295 H1310 0.961 . S
C1295 H1311 0.960 . S
H1296 C1280 0.931 . S
H1297 C1285 0.929 . S
H1298 C1286 0.960 . S
H1299 C1286 0.962 1_545 S
H1300 C1286 0.960 . S
H1301 C1287 0.961 1_545 S
H1302 C1287 0.961 1_545 S
H1303 C1287 0.961 . S
H1304 C1288 0.931 . S
H1305 C1293 0.930 . S
H1306 C1294 0.956 . S
H1307 C1294 0.961 . S
H1308 C1294 0.961 . S
H1309 C1295 0.958 . S
H1310 C1295 0.961 . S
H1311 C1295 0.960 . S
C1312 C1313 1.391 . S
C1312 C1314 1.394 . S
C1312 H1328 0.931 . S
C1313 C1312 1.391 . S
C1313 C1317 1.376 . S
C1314 C1312 1.394 . S
C1314 C1315 1.369 . S
C1314 C1318 1.531 . S
C1315 C1314 1.369 . S
C1315 C1316 1.410 . S
C1315 C1323 1.503 1_455 S
C1316 C1315 1.410 . S
C1316 C1317 1.392 . S
C1316 C1319 1.511 . S
C1317 C1313 1.376 . S
C1317 C1316 1.392 . S
C1317 H1329 0.929 . S
C1318 C1314 1.531 . S
C1318 H1330 0.961 . S
C1318 H1331 0.962 1_455 S
C1318 H1332 0.960 . S
C1319 C1316 1.511 . S
C1319 H1333 0.961 . S
C1319 H1334 0.961 . S
C1319 H1335 0.961 . S
C1320 C1321 1.370 . S
C1320 C1322 1.363 . S
C1320 H1336 0.931 . S
C1321 C1320 1.370 . S
C1321 C1325 1.408 . S
C1322 C1320 1.363 . S
C1322 C1323 1.370 . S
C1322 C1326 1.524 . S
C1323 C1315 1.503 1_655 S
C1323 C1322 1.370 . S
C1323 C1324 1.403 1_655 S
C1324 C1323 1.403 1_455 S
C1324 C1325 1.404 1_455 S
C1324 C1327 1.539 . S
C1325 C1321 1.408 . S
C1325 C1324 1.404 1_655 S
C1325 H1337 0.930 . S
C1326 C1322 1.524 . S
C1326 H1338 0.956 . S
C1326 H1339 0.961 . S
C1326 H1340 0.961 . S
C1327 C1324 1.539 . S
C1327 H1341 0.958 . S
C1327 H1342 0.961 . S
C1327 H1343 0.960 . S
H1328 C1312 0.931 . S
H1329 C1317 0.929 . S
H1330 C1318 0.961 . S
H1331 C1318 0.962 1_655 S
H1332 C1318 0.960 . S
H1333 C1319 0.961 . S
H1334 C1319 0.961 . S
H1335 C1319 0.961 . S
H1336 C1320 0.931 . S
H1337 C1325 0.930 . S
H1338 C1326 0.956 . S
H1339 C1326 0.961 . S
H1340 C1326 0.961 . S
H1341 C1327 0.958 . S
H1342 C1327 0.961 . S
H1343 C1327 0.960 . S
C1344 C1345 1.391 . S
C1344 C1346 1.394 . S
C1344 H1360 0.931 . S
C1345 C1344 1.391 . S
C1345 C1349 1.376 . S
C1346 C1344 1.394 . S
C1346 C1347 1.369 . S
C1346 C1350 1.531 . S
C1347 C1346 1.369 . S
C1347 C1348 1.410 . S
C1347 C1355 1.503 1_556 S
C1348 C1347 1.410 . S
C1348 C1349 1.392 . S
C1348 C1351 1.511 1_556 S
C1349 C1345 1.376 . S
C1349 C1348 1.392 . S
C1349 H1361 0.929 . S
C1350 C1346 1.531 . S
C1350 H1362 0.960 . S
C1350 H1363 0.962 . S
C1350 H1364 0.960 . S
C1351 C1348 1.511 1_554 S
C1351 H1365 0.961 . S
C1351 H1366 0.961 . S
C1351 H1367 0.961 . S
C1352 C1353 1.370 . S
C1352 C1354 1.363 . S
C1352 H1368 0.931 . S
C1353 C1352 1.370 . S
C1353 C1357 1.408 . S
C1354 C1352 1.363 . S
C1354 C1355 1.370 . S
C1354 C1358 1.524 1_554 S
C1355 C1347 1.503 1_554 S
C1355 C1354 1.370 . S
C1355 C1356 1.403 . S
C1356 C1355 1.403 . S
C1356 C1357 1.404 . S
C1356 C1359 1.539 . S
C1357 C1353 1.408 . S
C1357 C1356 1.404 . S
C1357 H1369 0.930 . S
C1358 C1354 1.524 1_556 S
C1358 H1370 0.956 . S
C1358 H1371 0.961 . S
C1358 H1372 0.961 . S
C1359 C1356 1.539 . S
C1359 H1373 0.958 . S
C1359 H1374 0.961 . S
C1359 H1375 0.960 . S
H1360 C1344 0.931 . S
H1361 C1349 0.929 . S
H1362 C1350 0.960 . S
H1363 C1350 0.962 . S
H1364 C1350 0.960 . S
H1365 C1351 0.961 . S
H1366 C1351 0.961 . S
H1367 C1351 0.961 . S
H1368 C1352 0.931 . S
H1369 C1357 0.930 . S
H1370 C1358 0.956 . S
H1371 C1358 0.961 . S
H1372 C1358 0.961 . S
H1373 C1359 0.958 . S
H1374 C1359 0.961 . S
H1375 C1359 0.960 . S
C1376 C1377 1.391 . S
C1376 C1378 1.394 . S
C1376 H1392 0.931 . S
C1377 C1376 1.391 . S
C1377 C1381 1.376 . S
C1378 C1376 1.394 . S
C1378 C1379 1.369 . S
C1378 C1382 1.531 . S
C1379 C1378 1.369 . S
C1379 C1380 1.410 . S
C1379 C1387 1.503 . S
C1380 C1379 1.410 . S
C1380 C1381 1.392 . S
C1380 C1383 1.511 . S
C1381 C1377 1.376 . S
C1381 C1380 1.392 . S
C1381 H1393 0.929 . S
C1382 C1378 1.531 . S
C1382 H1394 0.960 . S
C1382 H1395 0.962 . S
C1382 H1396 0.960 . S
C1383 C1380 1.511 . S
C1383 H1397 0.961 . S
C1383 H1398 0.961 . S
C1383 H1399 0.961 . S
C1384 C1385 1.370 . S
C1384 C1386 1.363 . S
C1384 H1400 0.931 . S
C1385 C1384 1.370 . S
C1385 C1389 1.408 . S
C1386 C1384 1.363 . S
C1386 C1387 1.370 . S
C1386 C1390 1.524 . S
C1387 C1379 1.503 . S
C1387 C1386 1.370 . S
C1387 C1388 1.403 . S
C1388 C1387 1.403 . S
C1388 C1389 1.404 . S
C1388 C1391 1.539 . S
C1389 C1385 1.408 . S
C1389 C1388 1.404 . S
C1389 H1401 0.930 . S
C1390 C1386 1.524 . S
C1390 H1402 0.956 . S
C1390 H1403 0.961 . S
C1390 H1404 0.961 . S
C1391 C1388 1.539 . S
C1391 H1405 0.958 . S
C1391 H1406 0.961 . S
C1391 H1407 0.960 . S
H1392 C1376 0.931 . S
H1393 C1381 0.929 . S
H1394 C1382 0.960 . S
H1395 C1382 0.962 . S
H1396 C1382 0.960 . S
H1397 C1383 0.961 . S
H1398 C1383 0.961 . S
H1399 C1383 0.961 . S
H1400 C1384 0.931 . S
H1401 C1389 0.930 . S
H1402 C1390 0.956 . S
H1403 C1390 0.961 . S
H1404 C1390 0.961 . S
H1405 C1391 0.958 . S
H1406 C1391 0.961 . S
H1407 C1391 0.960 . S
C1408 C1409 1.391 . S
C1408 C1410 1.394 . S
C1408 H1424 0.931 . S
C1409 C1408 1.391 . S
C1409 C1413 1.376 . S
C1410 C1408 1.394 . S
C1410 C1411 1.369 . S
C1410 C1414 1.531 . S
C1411 C1410 1.369 . S
C1411 C1412 1.410 . S
C1411 C1419 1.503 . S
C1412 C1411 1.410 . S
C1412 C1413 1.392 . S
C1412 C1415 1.511 . S
C1413 C1409 1.376 . S
C1413 C1412 1.392 . S
C1413 H1425 0.929 . S
C1414 C1410 1.531 . S
C1414 H1426 0.960 . S
C1414 H1427 0.962 . S
C1414 H1428 0.960 . S
C1415 C1412 1.511 . S
C1415 H1429 0.961 . S
C1415 H1430 0.961 . S
C1415 H1431 0.961 . S
C1416 C1417 1.370 . S
C1416 C1418 1.363 . S
C1416 H1432 0.931 . S
C1417 C1416 1.370 . S
C1417 C1421 1.408 . S
C1418 C1416 1.363 . S
C1418 C1419 1.370 . S
C1418 C1422 1.524 . S
C1419 C1411 1.503 . S
C1419 C1418 1.370 . S
C1419 C1420 1.403 . S
C1420 C1419 1.403 . S
C1420 C1421 1.404 . S
C1420 C1423 1.539 . S
C1421 C1417 1.408 . S
C1421 C1420 1.404 . S
C1421 H1433 0.930 . S
C1422 C1418 1.524 . S
C1422 H1434 0.956 . S
C1422 H1435 0.961 . S
C1422 H1436 0.961 . S
C1423 C1420 1.539 . S
C1423 H1437 0.958 . S
C1423 H1438 0.961 . S
C1423 H1439 0.960 . S
H1424 C1408 0.931 . S
H1425 C1413 0.929 . S
H1426 C1414 0.960 . S
H1427 C1414 0.962 . S
H1428 C1414 0.960 . S
H1429 C1415 0.961 . S
H1430 C1415 0.961 . S
H1431 C1415 0.961 . S
H1432 C1416 0.931 . S
H1433 C1421 0.930 . S
H1434 C1422 0.956 . S
H1435 C1422 0.961 . S
H1436 C1422 0.961 . S
H1437 C1423 0.958 . S
H1438 C1423 0.961 . S
H1439 C1423 0.960 . S
C1440 C1441 1.391 . S
C1440 C1442 1.394 1_455 S
C1440 H1456 0.931 . S
C1441 C1440 1.391 . S
C1441 C1445 1.376 . S
C1442 C1440 1.394 1_655 S
C1442 C1443 1.369 1_655 S
C1442 C1446 1.531 . S
C1443 C1442 1.369 1_455 S
C1443 C1444 1.410 . S
C1443 C1451 1.503 1_455 S
C1444 C1443 1.410 . S
C1444 C1445 1.392 . S
C1444 C1447 1.511 . S
C1445 C1441 1.376 . S
C1445 C1444 1.392 . S
C1445 H1457 0.929 . S
C1446 C1442 1.531 . S
C1446 H1458 0.960 . S
C1446 H1459 0.962 . S
C1446 H1460 0.960 . S
C1447 C1444 1.511 . S
C1447 H1461 0.961 . S
C1447 H1462 0.961 . S
C1447 H1463 0.961 . S
C1448 C1449 1.370 . S
C1448 C1450 1.363 . S
C1448 H1464 0.931 . S
C1449 C1448 1.370 . S
C1449 C1453 1.408 . S
C1450 C1448 1.363 . S
C1450 C1451 1.370 . S
C1450 C1454 1.524 . S
C1451 C1443 1.503 1_655 S
C1451 C1450 1.370 . S
C1451 C1452 1.403 . S
C1452 C1451 1.403 . S
C1452 C1453 1.404 . S
C1452 C1455 1.539 1_655 S
C1453 C1449 1.408 . S
C1453 C1452 1.404 . S
C1453 H1465 0.930 . S
C1454 C1450 1.524 . S
C1454 H1466 0.956 . S
C1454 H1467 0.961 1_655 S
C1454 H1468 0.961 . S
C1455 C1452 1.539 1_455 S
C1455 H1469 0.958 1_455 S
C1455 H1470 0.961 . S
C1455 H1471 0.960 . S
H1456 C1440 0.931 . S
H1457 C1445 0.929 . S
H1458 C1446 0.960 . S
H1459 C1446 0.962 . S
H1460 C1446 0.960 . S
H1461 C1447 0.961 . S
H1462 C1447 0.961 . S
H1463 C1447 0.961 . S
H1464 C1448 0.931 . S
H1465 C1453 0.930 . S
H1466 C1454 0.956 . S
H1467 C1454 0.961 1_455 S
H1468 C1454 0.961 . S
H1469 C1455 0.958 1_655 S
H1470 C1455 0.961 . S
H1471 C1455 0.960 . S
C1472 C1473 1.391 . S
C1472 C1474 1.394 . S
C1472 H1488 0.931 . S
C1473 C1472 1.391 . S
C1473 C1477 1.376 . S
C1474 C1472 1.394 . S
C1474 C1475 1.369 . S
C1474 C1478 1.531 . S
C1475 C1474 1.369 . S
C1475 C1476 1.410 . S
C1475 C1483 1.503 . S
C1476 C1475 1.410 . S
C1476 C1477 1.392 . S
C1476 C1479 1.511 . S
C1477 C1473 1.376 . S
C1477 C1476 1.392 . S
C1477 H1489 0.929 . S
C1478 C1474 1.531 . S
C1478 H1490 0.960 . S
C1478 H1491 0.962 . S
C1478 H1492 0.960 . S
C1479 C1476 1.511 . S
C1479 H1493 0.961 . S
C1479 H1494 0.961 . S
C1479 H1495 0.961 . S
C1480 C1481 1.370 . S
C1480 C1482 1.363 . S
C1480 H1496 0.931 . S
C1481 C1480 1.370 . S
C1481 C1485 1.408 . S
C1482 C1480 1.363 . S
C1482 C1483 1.370 . S
C1482 C1486 1.524 . S
C1483 C1475 1.503 . S
C1483 C1482 1.370 . S
C1483 C1484 1.403 . S
C1484 C1483 1.403 . S
C1484 C1485 1.404 . S
C1484 C1487 1.539 . S
C1485 C1481 1.408 . S
C1485 C1484 1.404 . S
C1485 H1497 0.930 . S
C1486 C1482 1.524 . S
C1486 H1498 0.956 . S
C1486 H1499 0.961 . S
C1486 H1500 0.961 . S
C1487 C1484 1.539 . S
C1487 H1501 0.958 . S
C1487 H1502 0.961 . S
C1487 H1503 0.960 . S
H1488 C1472 0.931 . S
H1489 C1477 0.929 . S
H1490 C1478 0.960 . S
H1491 C1478 0.962 . S
H1492 C1478 0.960 . S
H1493 C1479 0.961 . S
H1494 C1479 0.961 . S
H1495 C1479 0.961 . S
H1496 C1480 0.931 . S
H1497 C1485 0.930 . S
H1498 C1486 0.956 . S
H1499 C1486 0.961 . S
H1500 C1486 0.961 . S
H1501 C1487 0.958 . S
H1502 C1487 0.961 . S
H1503 C1487 0.960 . S
C1504 C1505 1.391 . S
C1504 C1506 1.394 . S
C1504 H1520 0.931 . S
C1505 C1504 1.391 . S
C1505 C1509 1.376 . S
C1506 C1504 1.394 . S
C1506 C1507 1.369 . S
C1506 C1510 1.531 . S
C1507 C1506 1.369 . S
C1507 C1508 1.410 . S
C1507 C1515 1.503 . S
C1508 C1507 1.410 . S
C1508 C1509 1.392 . S
C1508 C1511 1.511 . S
C1509 C1505 1.376 . S
C1509 C1508 1.392 . S
C1509 H1521 0.929 . S
C1510 C1506 1.531 . S
C1510 H1522 0.960 . S
C1510 H1523 0.962 . S
C1510 H1524 0.960 . S
C1511 C1508 1.511 . S
C1511 H1525 0.961 . S
C1511 H1526 0.961 . S
C1511 H1527 0.961 . S
C1512 C1513 1.370 . S
C1512 C1514 1.363 . S
C1512 H1528 0.931 . S
C1513 C1512 1.370 . S
C1513 C1517 1.408 . S
C1514 C1512 1.363 . S
C1514 C1515 1.370 . S
C1514 C1518 1.524 . S
C1515 C1507 1.503 . S
C1515 C1514 1.370 . S
C1515 C1516 1.403 . S
C1516 C1515 1.403 . S
C1516 C1517 1.404 . S
C1516 C1519 1.539 . S
C1517 C1513 1.408 . S
C1517 C1516 1.404 . S
C1517 H1529 0.930 . S
C1518 C1514 1.524 . S
C1518 H1530 0.956 . S
C1518 H1531 0.961 . S
C1518 H1532 0.961 . S
C1519 C1516 1.539 . S
C1519 H1533 0.958 . S
C1519 H1534 0.961 . S
C1519 H1535 0.960 . S
H1520 C1504 0.931 . S
H1521 C1509 0.929 . S
H1522 C1510 0.960 . S
H1523 C1510 0.962 . S
H1524 C1510 0.960 . S
H1525 C1511 0.961 . S
H1526 C1511 0.961 . S
H1527 C1511 0.961 . S
H1528 C1512 0.931 . S
H1529 C1517 0.930 . S
H1530 C1518 0.956 . S
H1531 C1518 0.961 . S
H1532 C1518 0.961 . S
H1533 C1519 0.958 . S
H1534 C1519 0.961 . S
H1535 C1519 0.960 . S
C1536 C1537 1.391 . S
C1536 C1538 1.394 . S
C1536 H1552 0.931 . S
C1537 C1536 1.391 . S
C1537 C1541 1.376 . S
C1538 C1536 1.394 . S
C1538 C1539 1.369 . S
C1538 C1542 1.531 . S
C1539 C1538 1.369 . S
C1539 C1540 1.410 . S
C1539 C1547 1.503 . S
C1540 C1539 1.410 . S
C1540 C1541 1.392 . S
C1540 C1543 1.511 . S
C1541 C1537 1.376 . S
C1541 C1540 1.392 . S
C1541 H1553 0.929 . S
C1542 C1538 1.531 . S
C1542 H1554 0.960 . S
C1542 H1555 0.962 . S
C1542 H1556 0.960 . S
C1543 C1540 1.511 . S
C1543 H1557 0.961 . S
C1543 H1558 0.961 . S
C1543 H1559 0.961 . S
C1544 C1545 1.370 . S
C1544 C1546 1.363 . S
C1544 H1560 0.931 . S
C1545 C1544 1.370 . S
C1545 C1549 1.408 . S
C1546 C1544 1.363 . S
C1546 C1547 1.370 . S
C1546 C1550 1.524 . S
C1547 C1539 1.503 . S
C1547 C1546 1.370 . S
C1547 C1548 1.403 . S
C1548 C1547 1.403 . S
C1548 C1549 1.404 . S
C1548 C1551 1.539 . S
C1549 C1545 1.408 . S
C1549 C1548 1.404 . S
C1549 H1561 0.930 . S
C1550 C1546 1.524 . S
C1550 H1562 0.956 . S
C1550 H1563 0.961 . S
C1550 H1564 0.961 . S
C1551 C1548 1.539 . S
C1551 H1565 0.958 . S
C1551 H1566 0.961 . S
C1551 H1567 0.960 . S
H1552 C1536 0.931 . S
H1553 C1541 0.929 . S
H1554 C1542 0.960 . S
H1555 C1542 0.962 . S
H1556 C1542 0.960 . S
H1557 C1543 0.961 . S
H1558 C1543 0.961 . S
H1559 C1543 0.961 . S
H1560 C1544 0.931 . S
H1561 C1549 0.930 . S
H1562 C1550 0.956 . S
H1563 C1550 0.961 . S
H1564 C1550 0.961 . S
H1565 C1551 0.958 . S
H1566 C1551 0.961 . S
H1567 C1551 0.960 . S
C1568 C1569 1.391 . S
C1568 C1570 1.394 . S
C1568 H1584 0.931 . S
C1569 C1568 1.391 . S
C1569 C1573 1.376 1_545 S
C1570 C1568 1.394 . S
C1570 C1571 1.369 . S
C1570 C1574 1.531 . S
C1571 C1570 1.369 . S
C1571 C1572 1.406 1_545 S
C1571 C1579 1.503 . S
C1572 C1571 1.406 1_565 S
C1572 C1573 1.393 . S
C1572 C1575 1.514 . S
C1573 C1569 1.376 1_565 S
C1573 C1572 1.393 . S
C1573 H1585 0.929 . S
C1574 C1570 1.531 . S
C1574 H1586 0.960 . S
C1574 H1587 0.962 . S
C1574 H1588 0.960 . S
C1575 C1572 1.514 . S
C1575 H1589 0.961 . S
C1575 H1590 0.961 . S
C1575 H1591 0.961 1_565 S
C1576 C1577 1.381 . S
C1576 C1578 1.363 . S
C1576 H1592 0.931 . S
C1577 C1576 1.381 . S
C1577 C1581 1.396 1_565 S
C1578 C1576 1.363 . S
C1578 C1579 1.370 1_565 S
C1578 C1582 1.524 . S
C1579 C1571 1.503 . S
C1579 C1578 1.370 1_545 S
C1579 C1580 1.403 . S
C1580 C1579 1.403 . S
C1580 C1581 1.404 . S
C1580 C1583 1.539 . S
C1581 C1577 1.396 1_545 S
C1581 C1580 1.404 . S
C1581 H1593 0.930 . S
C1582 C1578 1.524 . S
C1582 H1594 0.956 . S
C1582 H1595 0.961 . S
C1582 H1596 0.961 . S
C1583 C1580 1.539 . S
C1583 H1597 0.958 . S
C1583 H1598 0.961 . S
C1583 H1599 0.960 . S
H1584 C1568 0.931 . S
H1585 C1573 0.929 . S
H1586 C1574 0.960 . S
H1587 C1574 0.962 . S
H1588 C1574 0.960 . S
H1589 C1575 0.961 . S
H1590 C1575 0.961 . S
H1591 C1575 0.961 1_545 S
H1592 C1576 0.931 . S
H1593 C1581 0.930 . S
H1594 C1582 0.956 . S
H1595 C1582 0.961 . S
H1596 C1582 0.961 . S
H1597 C1583 0.958 . S
H1598 C1583 0.961 . S
H1599 C1583 0.960 . S
C1600 C1601 1.391 . S
C1600 C1602 1.394 . S
C1600 H1616 0.931 . S
C1601 C1600 1.391 . S
C1601 C1605 1.376 . S
C1602 C1600 1.394 . S
C1602 C1603 1.369 . S
C1602 C1606 1.531 . S
C1603 C1602 1.369 . S
C1603 C1604 1.410 . S
C1603 C1611 1.503 . S
C1604 C1603 1.410 . S
C1604 C1605 1.392 . S
C1604 C1607 1.511 . S
C1605 C1601 1.376 . S
C1605 C1604 1.392 . S
C1605 H1617 0.929 . S
C1606 C1602 1.531 . S
C1606 H1618 0.960 . S
C1606 H1619 0.962 . S
C1606 H1620 0.960 . S
C1607 C1604 1.511 . S
C1607 H1621 0.961 . S
C1607 H1622 0.961 . S
C1607 H1623 0.961 . S
C1608 C1609 1.370 . S
C1608 C1610 1.363 . S
C1608 H1624 0.931 . S
C1609 C1608 1.370 . S
C1609 C1613 1.408 . S
C1610 C1608 1.363 . S
C1610 C1611 1.370 . S
C1610 C1614 1.524 . S
C1611 C1603 1.503 . S
C1611 C1610 1.370 . S
C1611 C1612 1.403 . S
C1612 C1611 1.403 . S
C1612 C1613 1.404 . S
C1612 C1615 1.539 . S
C1613 C1609 1.408 . S
C1613 C1612 1.404 . S
C1613 H1625 0.930 . S
C1614 C1610 1.524 . S
C1614 H1626 0.956 . S
C1614 H1627 0.961 . S
C1614 H1628 0.961 . S
C1615 C1612 1.539 . S
C1615 H1629 0.958 . S
C1615 H1630 0.961 . S
C1615 H1631 0.960 . S
H1616 C1600 0.931 . S
H1617 C1605 0.929 . S
H1618 C1606 0.960 . S
H1619 C1606 0.962 . S
H1620 C1606 0.960 . S
H1621 C1607 0.961 . S
H1622 C1607 0.961 . S
H1623 C1607 0.961 . S
H1624 C1608 0.931 . S
H1625 C1613 0.930 . S
H1626 C1614 0.956 . S
H1627 C1614 0.961 . S
H1628 C1614 0.961 . S
H1629 C1615 0.958 . S
H1630 C1615 0.961 . S
H1631 C1615 0.960 . S
C1632 C1633 1.391 . S
C1632 C1634 1.394 . S
C1632 H1648 0.931 . S
C1633 C1632 1.391 . S
C1633 C1637 1.376 . S
C1634 C1632 1.394 . S
C1634 C1635 1.369 . S
C1634 C1638 1.531 . S
C1635 C1634 1.369 . S
C1635 C1636 1.410 . S
C1635 C1643 1.503 1_554 S
C1636 C1635 1.410 . S
C1636 C1637 1.392 . S
C1636 C1639 1.511 1_554 S
C1637 C1633 1.376 . S
C1637 C1636 1.392 . S
C1637 H1649 0.929 . S
C1638 C1634 1.531 . S
C1638 H1650 0.960 . S
C1638 H1651 0.962 . S
C1638 H1652 0.960 . S
C1639 C1636 1.511 1_556 S
C1639 H1653 0.961 1_556 S
C1639 H1654 0.961 . S
C1639 H1655 0.961 . S
C1640 C1641 1.370 . S
C1640 C1642 1.363 . S
C1640 H1656 0.931 . S
C1641 C1640 1.370 . S
C1641 C1645 1.408 . S
C1642 C1640 1.363 . S
C1642 C1643 1.370 . S
C1642 C1646 1.524 1_556 S
C1643 C1635 1.503 1_556 S
C1643 C1642 1.370 . S
C1643 C1644 1.403 . S
C1644 C1643 1.403 . S
C1644 C1645 1.404 . S
C1644 C1647 1.539 . S
C1645 C1641 1.408 . S
C1645 C1644 1.404 . S
C1645 H1657 0.930 . S
C1646 C1642 1.524 1_554 S
C1646 H1658 0.956 . S
C1646 H1659 0.961 . S
C1646 H1660 0.961 . S
C1647 C1644 1.539 . S
C1647 H1661 0.958 . S
C1647 H1662 0.961 . S
C1647 H1663 0.960 . S
H1648 C1632 0.931 . S
H1649 C1637 0.929 . S
H1650 C1638 0.960 . S
H1651 C1638 0.962 . S
H1652 C1638 0.960 . S
H1653 C1639 0.961 1_554 S
H1654 C1639 0.961 . S
H1655 C1639 0.961 . S
H1656 C1640 0.931 . S
H1657 C1645 0.930 . S
H1658 C1646 0.956 . S
H1659 C1646 0.961 . S
H1660 C1646 0.961 . S
H1661 C1647 0.958 . S
H1662 C1647 0.961 . S
H1663 C1647 0.960 . S
C1664 C1665 1.375 1_545 S
C1664 C1666 1.394 . S
C1664 H1680 0.931 . S
C1665 C1664 1.375 1_565 S
C1665 C1669 1.390 . S
C1666 C1664 1.394 . S
C1666 C1667 1.369 . S
C1666 C1670 1.531 . S
C1667 C1666 1.369 . S
C1667 C1668 1.410 1_545 S
C1667 C1675 1.506 . S
C1668 C1667 1.410 1_565 S
C1668 C1669 1.392 . S
C1668 C1671 1.511 . S
C1669 C1665 1.390 . S
C1669 C1668 1.392 . S
C1669 H1681 0.929 . S
C1670 C1666 1.531 . S
C1670 H1682 0.960 . S
C1670 H1683 0.962 . S
C1670 H1684 0.960 . S
C1671 C1668 1.511 . S
C1671 H1685 0.961 . S
C1671 H1686 0.961 . S
C1671 H1687 0.961 . S
C1672 C1673 1.370 . S
C1672 C1674 1.363 . S
C1672 H1688 0.931 . S
C1673 C1672 1.370 . S
C1673 C1677 1.408 1_565 S
C1674 C1672 1.363 . S
C1674 C1675 1.344 1_565 S
C1674 C1678 1.524 . S
C1675 C1667 1.506 . S
C1675 C1674 1.344 1_545 S
C1675 C1676 1.428 . S
C1676 C1675 1.428 . S
C1676 C1677 1.404 . S
C1676 C1679 1.539 . S
C1677 C1673 1.408 1_545 S
C1677 C1676 1.404 . S
C1677 H1689 0.930 . S
C1678 C1674 1.524 . S
C1678 H1690 0.956 . S
C1678 H1691 0.961 . S
C1678 H1692 0.961 . S
C1679 C1676 1.539 . S
C1679 H1693 0.958 . S
C1679 H1694 0.961 . S
C1679 H1695 0.960 . S
H1680 C1664 0.931 . S
H1681 C1669 0.929 . S
H1682 C1670 0.960 . S
H1683 C1670 0.962 . S
H1684 C1670 0.960 . S
H1685 C1671 0.961 . S
H1686 C1671 0.961 . S
H1687 C1671 0.961 . S
H1688 C1672 0.931 . S
H1689 C1677 0.930 . S
H1690 C1678 0.956 . S
H1691 C1678 0.961 . S
H1692 C1678 0.961 . S
H1693 C1679 0.958 . S
H1694 C1679 0.961 . S
H1695 C1679 0.960 . S
C1696 C1697 1.391 . S
C1696 C1698 1.394 . S
C1696 H1712 0.931 . S
C1697 C1696 1.391 . S
C1697 C1701 1.376 . S
C1698 C1696 1.394 . S
C1698 C1699 1.369 . S
C1698 C1702 1.531 . S
C1699 C1698 1.369 . S
C1699 C1700 1.410 . S
C1699 C1707 1.503 . S
C1700 C1699 1.410 . S
C1700 C1701 1.392 . S
C1700 C1703 1.511 . S
C1701 C1697 1.376 . S
C1701 C1700 1.392 . S
C1701 H1713 0.929 . S
C1702 C1698 1.531 . S
C1702 H1714 0.960 . S
C1702 H1715 0.962 . S
C1702 H1716 0.960 . S
C1703 C1700 1.511 . S
C1703 H1717 0.961 . S
C1703 H1718 0.961 . S
C1703 H1719 0.961 . S
C1704 C1705 1.370 . S
C1704 C1706 1.363 . S
C1704 H1720 0.931 . S
C1705 C1704 1.370 . S
C1705 C1709 1.408 . S
C1706 C1704 1.363 . S
C1706 C1707 1.370 . S
C1706 C1710 1.524 . S
C1707 C1699 1.503 . S
C1707 C1706 1.370 . S
C1707 C1708 1.403 . S
C1708 C1707 1.403 . S
C1708 C1709 1.404 . S
C1708 C1711 1.539 . S
C1709 C1705 1.408 . S
C1709 C1708 1.404 . S
C1709 H1721 0.930 . S
C1710 C1706 1.524 . S
C1710 H1722 0.956 . S
C1710 H1723 0.961 . S
C1710 H1724 0.961 . S
C1711 C1708 1.539 . S
C1711 H1725 0.958 . S
C1711 H1726 0.961 . S
C1711 H1727 0.960 . S
H1712 C1696 0.931 . S
H1713 C1701 0.929 . S
H1714 C1702 0.960 . S
H1715 C1702 0.962 . S
H1716 C1702 0.960 . S
H1717 C1703 0.961 . S
H1718 C1703 0.961 . S
H1719 C1703 0.961 . S
H1720 C1704 0.931 . S
H1721 C1709 0.930 . S
H1722 C1710 0.956 . S
H1723 C1710 0.961 . S
H1724 C1710 0.961 . S
H1725 C1711 0.958 . S
H1726 C1711 0.961 . S
H1727 C1711 0.960 . S
C1728 C1729 1.391 . S
C1728 C1730 1.394 . S
C1728 H1744 0.931 . S
C1729 C1728 1.391 . S
C1729 C1733 1.376 . S
C1730 C1728 1.394 . S
C1730 C1731 1.369 . S
C1730 C1734 1.531 . S
C1731 C1730 1.369 . S
C1731 C1732 1.410 . S
C1731 C1739 1.503 . S
C1732 C1731 1.410 . S
C1732 C1733 1.392 . S
C1732 C1735 1.511 . S
C1733 C1729 1.376 . S
C1733 C1732 1.392 . S
C1733 H1745 0.929 . S
C1734 C1730 1.531 . S
C1734 H1746 0.960 . S
C1734 H1747 0.962 . S
C1734 H1748 0.960 . S
C1735 C1732 1.511 . S
C1735 H1749 0.961 . S
C1735 H1750 0.961 . S
C1735 H1751 0.961 . S
C1736 C1737 1.370 . S
C1736 C1738 1.363 . S
C1736 H1752 0.931 . S
C1737 C1736 1.370 . S
C1737 C1741 1.408 . S
C1738 C1736 1.363 . S
C1738 C1739 1.370 . S
C1738 C1742 1.524 . S
C1739 C1731 1.503 . S
C1739 C1738 1.370 . S
C1739 C1740 1.403 . S
C1740 C1739 1.403 . S
C1740 C1741 1.404 . S
C1740 C1743 1.539 . S
C1741 C1737 1.408 . S
C1741 C1740 1.404 . S
C1741 H1753 0.930 . S
C1742 C1738 1.524 . S
C1742 H1754 0.956 . S
C1742 H1755 0.961 . S
C1742 H1756 0.961 . S
C1743 C1740 1.539 . S
C1743 H1757 0.958 . S
C1743 H1758 0.961 . S
C1743 H1759 0.960 . S
H1744 C1728 0.931 . S
H1745 C1733 0.929 . S
H1746 C1734 0.960 . S
H1747 C1734 0.962 . S
H1748 C1734 0.960 . S
H1749 C1735 0.961 . S
H1750 C1735 0.961 . S
H1751 C1735 0.961 . S
H1752 C1736 0.931 . S
H1753 C1741 0.930 . S
H1754 C1742 0.956 . S
H1755 C1742 0.961 . S
H1756 C1742 0.961 . S
H1757 C1743 0.958 . S
H1758 C1743 0.961 . S
H1759 C1743 0.960 . S
C1760 C1761 1.389 1_545 S
C1760 C1762 1.394 . S
C1760 H1776 0.931 . S
C1761 C1760 1.389 1_565 S
C1761 C1765 1.377 . S
C1762 C1760 1.394 . S
C1762 C1763 1.369 . S
C1762 C1766 1.531 . S
C1763 C1762 1.369 . S
C1763 C1764 1.410 1_545 S
C1763 C1771 1.503 . S
C1764 C1763 1.410 1_565 S
C1764 C1765 1.392 . S
C1764 C1767 1.511 . S
C1765 C1761 1.377 . S
C1765 C1764 1.392 . S
C1765 H1777 0.929 . S
C1766 C1762 1.531 . S
C1766 H1778 0.960 . S
C1766 H1779 0.962 . S
C1766 H1780 0.960 . S
C1767 C1764 1.511 . S
C1767 H1781 0.961 . S
C1767 H1782 0.961 . S
C1767 H1783 0.961 . S
C1768 C1769 1.370 . S
C1768 C1770 1.363 . S
C1768 H1784 0.931 . S
C1769 C1768 1.370 . S
C1769 C1773 1.408 1_565 S
C1770 C1768 1.363 . S
C1770 C1771 1.370 1_565 S
C1770 C1774 1.524 . S
C1771 C1763 1.503 . S
C1771 C1770 1.370 1_545 S
C1771 C1772 1.403 . S
C1772 C1771 1.403 . S
C1772 C1773 1.404 . S
C1772 C1775 1.539 . S
C1773 C1769 1.408 1_545 S
C1773 C1772 1.404 . S
C1773 H1785 0.930 . S
C1774 C1770 1.524 . S
C1774 H1786 0.956 . S
C1774 H1787 0.961 . S
C1774 H1788 0.961 . S
C1775 C1772 1.539 . S
C1775 H1789 0.958 . S
C1775 H1790 0.961 . S
C1775 H1791 0.960 . S
H1776 C1760 0.931 . S
H1777 C1765 0.929 . S
H1778 C1766 0.960 . S
H1779 C1766 0.962 . S
H1780 C1766 0.960 . S
H1781 C1767 0.961 . S
H1782 C1767 0.961 . S
H1783 C1767 0.961 . S
H1784 C1768 0.931 . S
H1785 C1773 0.930 . S
H1786 C1774 0.956 . S
H1787 C1774 0.961 . S
H1788 C1774 0.961 . S
H1789 C1775 0.958 . S
H1790 C1775 0.961 . S
H1791 C1775 0.960 . S
C1792 C1793 1.390 . S
C1792 C1794 1.394 . S
C1792 H1808 0.931 . S
C1793 C1792 1.390 . S
C1793 C1797 1.377 1_545 S
C1794 C1792 1.394 . S
C1794 C1795 1.369 1_545 S
C1794 C1798 1.531 . S
C1795 C1794 1.369 1_565 S
C1795 C1796 1.410 . S
C1795 C1803 1.503 . S
C1796 C1795 1.410 . S
C1796 C1797 1.392 . S
C1796 C1799 1.511 . S
C1797 C1793 1.377 1_565 S
C1797 C1796 1.392 . S
C1797 H1809 0.929 . S
C1798 C1794 1.531 . S
C1798 H1810 0.960 . S
C1798 H1811 0.962 . S
C1798 H1812 0.960 . S
C1799 C1796 1.511 . S
C1799 H1813 0.961 . S
C1799 H1814 0.961 . S
C1799 H1815 0.961 . S
C1800 C1801 1.370 . S
C1800 C1802 1.363 . S
C1800 H1816 0.931 . S
C1801 C1800 1.370 . S
C1801 C1805 1.408 1_545 S
C1802 C1800 1.363 . S
C1802 C1803 1.370 1_545 S
C1802 C1806 1.524 . S
C1803 C1795 1.503 . S
C1803 C1802 1.370 1_565 S
C1803 C1804 1.403 . S
C1804 C1803 1.403 . S
C1804 C1805 1.404 . S
C1804 C1807 1.539 . S
C1805 C1801 1.408 1_565 S
C1805 C1804 1.404 . S
C1805 H1817 0.930 . S
C1806 C1802 1.524 . S
C1806 H1818 0.956 . S
C1806 H1819 0.961 . S
C1806 H1820 0.961 . S
C1807 C1804 1.539 . S
C1807 H1821 0.958 . S
C1807 H1822 0.961 . S
C1807 H1823 0.960 . S
H1808 C1792 0.931 . S
H1809 C1797 0.929 . S
H1810 C1798 0.960 . S
H1811 C1798 0.962 . S
H1812 C1798 0.960 . S
H1813 C1799 0.961 . S
H1814 C1799 0.961 . S
H1815 C1799 0.961 . S
H1816 C1800 0.931 . S
H1817 C1805 0.930 . S
H1818 C1806 0.956 . S
H1819 C1806 0.961 . S
H1820 C1806 0.961 . S
H1821 C1807 0.958 . S
H1822 C1807 0.961 . S
H1823 C1807 0.960 . S
C1824 C1825 1.391 . S
C1824 C1826 1.394 . S
C1824 H1840 0.931 . S
C1825 C1824 1.391 . S
C1825 C1829 1.376 . S
C1826 C1824 1.394 . S
C1826 C1827 1.369 . S
C1826 C1830 1.531 . S
C1827 C1826 1.369 . S
C1827 C1828 1.410 . S
C1827 C1835 1.503 . S
C1828 C1827 1.410 . S
C1828 C1829 1.392 . S
C1828 C1831 1.511 . S
C1829 C1825 1.376 . S
C1829 C1828 1.392 . S
C1829 H1841 0.929 . S
C1830 C1826 1.531 . S
C1830 H1842 0.960 . S
C1830 H1843 0.962 . S
C1830 H1844 0.960 . S
C1831 C1828 1.511 . S
C1831 H1845 0.961 . S
C1831 H1846 0.961 . S
C1831 H1847 0.961 . S
C1832 C1833 1.370 . S
C1832 C1834 1.363 . S
C1832 H1848 0.931 . S
C1833 C1832 1.370 . S
C1833 C1837 1.408 . S
C1834 C1832 1.363 . S
C1834 C1835 1.370 . S
C1834 C1838 1.524 . S
C1835 C1827 1.503 . S
C1835 C1834 1.370 . S
C1835 C1836 1.403 . S
C1836 C1835 1.403 . S
C1836 C1837 1.404 . S
C1836 C1839 1.539 . S
C1837 C1833 1.408 . S
C1837 C1836 1.404 . S
C1837 H1849 0.930 . S
C1838 C1834 1.524 . S
C1838 H1850 0.956 . S
C1838 H1851 0.961 . S
C1838 H1852 0.961 . S
C1839 C1836 1.539 . S
C1839 H1853 0.958 . S
C1839 H1854 0.961 . S
C1839 H1855 0.960 . S
H1840 C1824 0.931 . S
H1841 C1829 0.929 . S
H1842 C1830 0.960 . S
H1843 C1830 0.962 . S
H1844 C1830 0.960 . S
H1845 C1831 0.961 . S
H1846 C1831 0.961 . S
H1847 C1831 0.961 . S
H1848 C1832 0.931 . S
H1849 C1837 0.930 . S
H1850 C1838 0.956 . S
H1851 C1838 0.961 . S
H1852 C1838 0.961 . S
H1853 C1839 0.958 . S
H1854 C1839 0.961 . S
H1855 C1839 0.960 . S
C1856 C1857 1.391 . S
C1856 C1858 1.394 . S
C1856 H1872 0.931 . S
C1857 C1856 1.391 . S
C1857 C1861 1.376 . S
C1858 C1856 1.394 . S
C1858 C1859 1.369 . S
C1858 C1862 1.531 . S
C1859 C1858 1.369 . S
C1859 C1860 1.410 . S
C1859 C1867 1.503 . S
C1860 C1859 1.410 . S
C1860 C1861 1.392 . S
C1860 C1863 1.511 . S
C1861 C1857 1.376 . S
C1861 C1860 1.392 . S
C1861 H1873 0.929 . S
C1862 C1858 1.531 . S
C1862 H1874 0.960 . S
C1862 H1875 0.962 . S
C1862 H1876 0.960 . S
C1863 C1860 1.511 . S
C1863 H1877 0.961 . S
C1863 H1878 0.961 . S
C1863 H1879 0.961 . S
C1864 C1865 1.370 . S
C1864 C1866 1.363 . S
C1864 H1880 0.931 . S
C1865 C1864 1.370 . S
C1865 C1869 1.408 . S
C1866 C1864 1.363 . S
C1866 C1867 1.370 . S
C1866 C1870 1.524 . S
C1867 C1859 1.503 . S
C1867 C1866 1.370 . S
C1867 C1868 1.403 . S
C1868 C1867 1.403 . S
C1868 C1869 1.404 . S
C1868 C1871 1.539 . S
C1869 C1865 1.408 . S
C1869 C1868 1.404 . S
C1869 H1881 0.930 . S
C1870 C1866 1.524 . S
C1870 H1882 0.956 . S
C1870 H1883 0.961 . S
C1870 H1884 0.961 . S
C1871 C1868 1.539 . S
C1871 H1885 0.958 . S
C1871 H1886 0.961 . S
C1871 H1887 0.960 . S
H1872 C1856 0.931 . S
H1873 C1861 0.929 . S
H1874 C1862 0.960 . S
H1875 C1862 0.962 . S
H1876 C1862 0.960 . S
H1877 C1863 0.961 . S
H1878 C1863 0.961 . S
H1879 C1863 0.961 . S
H1880 C1864 0.931 . S
H1881 C1869 0.930 . S
H1882 C1870 0.956 . S
H1883 C1870 0.961 . S
H1884 C1870 0.961 . S
H1885 C1871 0.958 . S
H1886 C1871 0.961 . S
H1887 C1871 0.960 . S
C1888 C1889 1.392 . S
C1888 C1890 1.394 . S
C1888 H1904 0.931 . S
C1889 C1888 1.392 . S
C1889 C1893 1.375 1_565 S
C1890 C1888 1.394 . S
C1890 C1891 1.369 . S
C1890 C1894 1.531 . S
C1891 C1890 1.369 . S
C1891 C1892 1.410 1_565 S
C1891 C1899 1.503 . S
C1892 C1891 1.410 1_545 S
C1892 C1893 1.392 . S
C1892 C1895 1.511 . S
C1893 C1889 1.375 1_545 S
C1893 C1892 1.392 . S
C1893 H1905 0.929 . S
C1894 C1890 1.531 . S
C1894 H1906 0.960 . S
C1894 H1907 0.972 . S
C1894 H1908 0.960 . S
C1895 C1892 1.511 . S
C1895 H1909 0.961 . S
C1895 H1910 0.961 . S
C1895 H1911 0.961 1_545 S
C1896 C1897 1.370 . S
C1896 C1898 1.363 . S
C1896 H1912 0.931 . S
C1897 C1896 1.370 . S
C1897 C1901 1.408 1_545 S
C1898 C1896 1.363 . S
C1898 C1899 1.370 1_545 S
C1898 C1902 1.524 . S
C1899 C1891 1.503 . S
C1899 C1898 1.370 1_565 S
C1899 C1900 1.403 . S
C1900 C1899 1.403 . S
C1900 C1901 1.404 . S
C1900 C1903 1.539 . S
C1901 C1897 1.408 1_565 S
C1901 C1900 1.404 . S
C1901 H1913 0.930 . S
C1902 C1898 1.524 . S
C1902 H1914 0.956 . S
C1902 H1915 0.961 . S
C1902 H1916 0.961 . S
C1903 C1900 1.539 . S
C1903 H1917 0.958 . S
C1903 H1918 0.961 . S
C1903 H1919 0.960 . S
H1904 C1888 0.931 . S
H1905 C1893 0.929 . S
H1906 C1894 0.960 . S
H1907 C1894 0.972 . S
H1908 C1894 0.960 . S
H1909 C1895 0.961 . S
H1910 C1895 0.961 . S
H1911 C1895 0.961 1_565 S
H1912 C1896 0.931 . S
H1913 C1901 0.930 . S
H1914 C1902 0.956 . S
H1915 C1902 0.961 . S
H1916 C1902 0.961 . S
H1917 C1903 0.958 . S
H1918 C1903 0.961 . S
H1919 C1903 0.960 . S
C1920 C1921 1.391 . S
C1920 C1922 1.394 . S
C1920 H1936 0.931 . S
C1921 C1920 1.391 . S
C1921 C1925 1.376 . S
C1922 C1920 1.394 . S
C1922 C1923 1.369 . S
C1922 C1926 1.531 . S
C1923 C1922 1.369 . S
C1923 C1924 1.410 . S
C1923 C1931 1.503 . S
C1924 C1923 1.410 . S
C1924 C1925 1.392 . S
C1924 C1927 1.511 . S
C1925 C1921 1.376 . S
C1925 C1924 1.392 . S
C1925 H1937 0.929 . S
C1926 C1922 1.531 . S
C1926 H1938 0.960 . S
C1926 H1939 0.962 . S
C1926 H1940 0.960 . S
C1927 C1924 1.511 . S
C1927 H1941 0.961 . S
C1927 H1942 0.961 . S
C1927 H1943 0.961 . S
C1928 C1929 1.370 . S
C1928 C1930 1.363 . S
C1928 H1944 0.931 . S
C1929 C1928 1.370 . S
C1929 C1933 1.408 . S
C1930 C1928 1.363 . S
C1930 C1931 1.370 . S
C1930 C1934 1.524 . S
C1931 C1923 1.503 . S
C1931 C1930 1.370 . S
C1931 C1932 1.403 . S
C1932 C1931 1.403 . S
C1932 C1933 1.404 . S
C1932 C1935 1.539 . S
C1933 C1929 1.408 . S
C1933 C1932 1.404 . S
C1933 H1945 0.930 . S
C1934 C1930 1.524 . S
C1934 H1946 0.956 . S
C1934 H1947 0.961 . S
C1934 H1948 0.961 . S
C1935 C1932 1.539 . S
C1935 H1949 0.958 . S
C1935 H1950 0.961 . S
C1935 H1951 0.960 . S
H1936 C1920 0.931 . S
H1937 C1925 0.929 . S
H1938 C1926 0.960 . S
H1939 C1926 0.962 . S
H1940 C1926 0.960 . S
H1941 C1927 0.961 . S
H1942 C1927 0.961 . S
H1943 C1927 0.961 . S
H1944 C1928 0.931 . S
H1945 C1933 0.930 . S
H1946 C1934 0.956 . S
H1947 C1934 0.961 . S
H1948 C1934 0.961 . S
H1949 C1935 0.958 . S
H1950 C1935 0.961 . S
H1951 C1935 0.960 . S
C1952 C1953 1.391 . S
C1952 C1954 1.394 . S
C1952 H1968 0.931 . S
C1953 C1952 1.391 . S
C1953 C1957 1.376 . S
C1954 C1952 1.394 . S
C1954 C1955 1.369 . S
C1954 C1958 1.531 . S
C1955 C1954 1.369 . S
C1955 C1956 1.410 . S
C1955 C1963 1.503 . S
C1956 C1955 1.410 . S
C1956 C1957 1.392 . S
C1956 C1959 1.511 . S
C1957 C1953 1.376 . S
C1957 C1956 1.392 . S
C1957 H1969 0.929 . S
C1958 C1954 1.531 . S
C1958 H1970 0.960 . S
C1958 H1971 0.962 . S
C1958 H1972 0.960 . S
C1959 C1956 1.511 . S
C1959 H1973 0.961 . S
C1959 H1974 0.961 . S
C1959 H1975 0.961 . S
C1960 C1961 1.370 . S
C1960 C1962 1.363 . S
C1960 H1976 0.931 . S
C1961 C1960 1.370 . S
C1961 C1965 1.408 . S
C1962 C1960 1.363 . S
C1962 C1963 1.370 . S
C1962 C1966 1.524 . S
C1963 C1955 1.503 . S
C1963 C1962 1.370 . S
C1963 C1964 1.403 . S
C1964 C1963 1.403 . S
C1964 C1965 1.404 . S
C1964 C1967 1.539 . S
C1965 C1961 1.408 . S
C1965 C1964 1.404 . S
C1965 H1977 0.930 . S
C1966 C1962 1.524 . S
C1966 H1978 0.956 . S
C1966 H1979 0.961 . S
C1966 H1980 0.961 . S
C1967 C1964 1.539 . S
C1967 H1981 0.958 . S
C1967 H1982 0.961 . S
C1967 H1983 0.960 . S
H1968 C1952 0.931 . S
H1969 C1957 0.929 . S
H1970 C1958 0.960 . S
H1971 C1958 0.962 . S
H1972 C1958 0.960 . S
H1973 C1959 0.961 . S
H1974 C1959 0.961 . S
H1975 C1959 0.961 . S
H1976 C1960 0.931 . S
H1977 C1965 0.930 . S
H1978 C1966 0.956 . S
H1979 C1966 0.961 . S
H1980 C1966 0.961 . S
H1981 C1967 0.958 . S
H1982 C1967 0.961 . S
H1983 C1967 0.960 . S
C1984 C1985 1.391 . S
C1984 C1986 1.394 . S
C1984 H2000 0.931 . S
C1985 C1984 1.391 . S
C1985 C1989 1.376 . S
C1986 C1984 1.394 . S
C1986 C1987 1.369 . S
C1986 C1990 1.531 . S
C1987 C1986 1.369 . S
C1987 C1988 1.410 . S
C1987 C1995 1.503 . S
C1988 C1987 1.410 . S
C1988 C1989 1.392 . S
C1988 C1991 1.511 . S
C1989 C1985 1.376 . S
C1989 C1988 1.392 . S
C1989 H2001 0.929 . S
C1990 C1986 1.531 . S
C1990 H2002 0.960 . S
C1990 H2003 0.962 . S
C1990 H2004 0.960 . S
C1991 C1988 1.511 . S
C1991 H2005 0.961 . S
C1991 H2006 0.961 . S
C1991 H2007 0.961 . S
C1992 C1993 1.370 . S
C1992 C1994 1.363 . S
C1992 H2008 0.931 . S
C1993 C1992 1.370 . S
C1993 C1997 1.408 . S
C1994 C1992 1.363 . S
C1994 C1995 1.370 . S
C1994 C1998 1.524 . S
C1995 C1987 1.503 . S
C1995 C1994 1.370 . S
C1995 C1996 1.403 . S
C1996 C1995 1.403 . S
C1996 C1997 1.404 . S
C1996 C1999 1.539 . S
C1997 C1993 1.408 . S
C1997 C1996 1.404 . S
C1997 H2009 0.930 . S
C1998 C1994 1.524 . S
C1998 H2010 0.956 . S
C1998 H2011 0.961 . S
C1998 H2012 0.961 . S
C1999 C1996 1.539 . S
C1999 H2013 0.958 . S
C1999 H2014 0.961 . S
C1999 H2015 0.960 . S
H2000 C1984 0.931 . S
H2001 C1989 0.929 . S
H2002 C1990 0.960 . S
H2003 C1990 0.962 . S
H2004 C1990 0.960 . S
H2005 C1991 0.961 . S
H2006 C1991 0.961 . S
H2007 C1991 0.961 . S
H2008 C1992 0.931 . S
H2009 C1997 0.930 . S
H2010 C1998 0.956 . S
H2011 C1998 0.961 . S
H2012 C1998 0.961 . S
H2013 C1999 0.958 . S
H2014 C1999 0.961 . S
H2015 C1999 0.960 . S
C2016 C2017 1.391 . S
C2016 C2018 1.394 . S
C2016 H2032 0.931 . S
C2017 C2016 1.391 . S
C2017 C2021 1.376 . S
C2018 C2016 1.394 . S
C2018 C2019 1.369 . S
C2018 C2022 1.531 . S
C2019 C2018 1.369 . S
C2019 C2020 1.410 . S
C2019 C2027 1.503 . S
C2020 C2019 1.410 . S
C2020 C2021 1.392 . S
C2020 C2023 1.511 . S
C2021 C2017 1.376 . S
C2021 C2020 1.392 . S
C2021 H2033 0.929 . S
C2022 C2018 1.531 . S
C2022 H2034 0.960 . S
C2022 H2035 0.962 . S
C2022 H2036 0.960 . S
C2023 C2020 1.511 . S
C2023 H2037 0.961 . S
C2023 H2038 0.961 . S
C2023 H2039 0.961 . S
C2024 C2025 1.370 . S
C2024 C2026 1.363 . S
C2024 H2040 0.931 . S
C2025 C2024 1.370 . S
C2025 C2029 1.408 . S
C2026 C2024 1.363 . S
C2026 C2027 1.370 . S
C2026 C2030 1.524 . S
C2027 C2019 1.503 . S
C2027 C2026 1.370 . S
C2027 C2028 1.403 . S
C2028 C2027 1.403 . S
C2028 C2029 1.404 . S
C2028 C2031 1.539 . S
C2029 C2025 1.408 . S
C2029 C2028 1.404 . S
C2029 H2041 0.930 . S
C2030 C2026 1.524 . S
C2030 H2042 0.956 . S
C2030 H2043 0.961 . S
C2030 H2044 0.961 . S
C2031 C2028 1.539 . S
C2031 H2045 0.958 . S
C2031 H2046 0.961 . S
C2031 H2047 0.960 . S
H2032 C2016 0.931 . S
H2033 C2021 0.929 . S
H2034 C2022 0.960 . S
H2035 C2022 0.962 . S
H2036 C2022 0.960 . S
H2037 C2023 0.961 . S
H2038 C2023 0.961 . S
H2039 C2023 0.961 . S
H2040 C2024 0.931 . S
H2041 C2029 0.930 . S
H2042 C2030 0.956 . S
H2043 C2030 0.961 . S
H2044 C2030 0.961 . S
H2045 C2031 0.958 . S
H2046 C2031 0.961 . S
H2047 C2031 0.960 . S
C2048 C2049 1.391 . S
C2048 C2050 1.394 . S
C2048 H2064 0.931 . S
C2049 C2048 1.391 . S
C2049 C2053 1.376 . S
C2050 C2048 1.394 . S
C2050 C2051 1.369 . S
C2050 C2054 1.531 . S
C2051 C2050 1.369 . S
C2051 C2052 1.410 . S
C2051 C2059 1.503 . S
C2052 C2051 1.410 . S
C2052 C2053 1.392 . S
C2052 C2055 1.511 . S
C2053 C2049 1.376 . S
C2053 C2052 1.392 . S
C2053 H2065 0.929 . S
C2054 C2050 1.531 . S
C2054 H2066 0.960 . S
C2054 H2067 0.962 . S
C2054 H2068 0.960 . S
C2055 C2052 1.511 . S
C2055 H2069 0.961 . S
C2055 H2070 0.961 . S
C2055 H2071 0.961 . S
C2056 C2057 1.370 . S
C2056 C2058 1.363 . S
C2056 H2072 0.931 . S
C2057 C2056 1.370 . S
C2057 C2061 1.408 . S
C2058 C2056 1.363 . S
C2058 C2059 1.370 . S
C2058 C2062 1.524 . S
C2059 C2051 1.503 . S
C2059 C2058 1.370 . S
C2059 C2060 1.403 . S
C2060 C2059 1.403 . S
C2060 C2061 1.404 . S
C2060 C2063 1.539 . S
C2061 C2057 1.408 . S
C2061 C2060 1.404 . S
C2061 H2073 0.930 . S
C2062 C2058 1.524 . S
C2062 H2074 0.956 . S
C2062 H2075 0.961 . S
C2062 H2076 0.961 . S
C2063 C2060 1.539 . S
C2063 H2077 0.958 . S
C2063 H2078 0.961 . S
C2063 H2079 0.960 . S
H2064 C2048 0.931 . S
H2065 C2053 0.929 . S
H2066 C2054 0.960 . S
H2067 C2054 0.962 . S
H2068 C2054 0.960 . S
H2069 C2055 0.961 . S
H2070 C2055 0.961 . S
H2071 C2055 0.961 . S
H2072 C2056 0.931 . S
H2073 C2061 0.930 . S
H2074 C2062 0.956 . S
H2075 C2062 0.961 . S
H2076 C2062 0.961 . S
H2077 C2063 0.958 . S
H2078 C2063 0.961 . S
H2079 C2063 0.960 . S
C2080 C2081 1.391 . S
C2080 C2082 1.394 . S
C2080 H2096 0.931 . S
C2081 C2080 1.391 . S
C2081 C2085 1.376 . S
C2082 C2080 1.394 . S
C2082 C2083 1.369 . S
C2082 C2086 1.531 . S
C2083 C2082 1.369 . S
C2083 C2084 1.410 . S
C2083 C2091 1.503 . S
C2084 C2083 1.410 . S
C2084 C2085 1.392 . S
C2084 C2087 1.511 . S
C2085 C2081 1.376 . S
C2085 C2084 1.392 . S
C2085 H2097 0.929 . S
C2086 C2082 1.531 . S
C2086 H2098 0.960 . S
C2086 H2099 0.962 . S
C2086 H2100 0.960 . S
C2087 C2084 1.511 . S
C2087 H2101 0.961 . S
C2087 H2102 0.961 . S
C2087 H2103 0.961 . S
C2088 C2089 1.370 . S
C2088 C2090 1.363 . S
C2088 H2104 0.931 . S
C2089 C2088 1.370 . S
C2089 C2093 1.408 . S
C2090 C2088 1.363 . S
C2090 C2091 1.370 . S
C2090 C2094 1.524 . S
C2091 C2083 1.503 . S
C2091 C2090 1.370 . S
C2091 C2092 1.403 . S
C2092 C2091 1.403 . S
C2092 C2093 1.404 . S
C2092 C2095 1.539 . S
C2093 C2089 1.408 . S
C2093 C2092 1.404 . S
C2093 H2105 0.930 . S
C2094 C2090 1.524 . S
C2094 H2106 0.956 . S
C2094 H2107 0.961 . S
C2094 H2108 0.961 . S
C2095 C2092 1.539 . S
C2095 H2109 0.958 . S
C2095 H2110 0.961 . S
C2095 H2111 0.960 . S
H2096 C2080 0.931 . S
H2097 C2085 0.929 . S
H2098 C2086 0.960 . S
H2099 C2086 0.962 . S
H2100 C2086 0.960 . S
H2101 C2087 0.961 . S
H2102 C2087 0.961 . S
H2103 C2087 0.961 . S
H2104 C2088 0.931 . S
H2105 C2093 0.930 . S
H2106 C2094 0.956 . S
H2107 C2094 0.961 . S
H2108 C2094 0.961 . S
H2109 C2095 0.958 . S
H2110 C2095 0.961 . S
H2111 C2095 0.960 . S
C2112 C2113 1.391 . S
C2112 C2114 1.394 . S
C2112 H2128 0.931 . S
C2113 C2112 1.391 . S
C2113 C2117 1.376 . S
C2114 C2112 1.394 . S
C2114 C2115 1.369 . S
C2114 C2118 1.531 . S
C2115 C2114 1.369 . S
C2115 C2116 1.410 . S
C2115 C2123 1.503 . S
C2116 C2115 1.410 . S
C2116 C2117 1.392 . S
C2116 C2119 1.511 . S
C2117 C2113 1.376 . S
C2117 C2116 1.392 . S
C2117 H2129 0.929 . S
C2118 C2114 1.531 . S
C2118 H2130 0.960 . S
C2118 H2131 0.962 . S
C2118 H2132 0.960 . S
C2119 C2116 1.511 . S
C2119 H2133 0.961 . S
C2119 H2134 0.961 . S
C2119 H2135 0.961 . S
C2120 C2121 1.370 . S
C2120 C2122 1.363 . S
C2120 H2136 0.931 . S
C2121 C2120 1.370 . S
C2121 C2125 1.408 . S
C2122 C2120 1.363 . S
C2122 C2123 1.370 . S
C2122 C2126 1.524 . S
C2123 C2115 1.503 . S
C2123 C2122 1.370 . S
C2123 C2124 1.403 . S
C2124 C2123 1.403 . S
C2124 C2125 1.404 . S
C2124 C2127 1.539 . S
C2125 C2121 1.408 . S
C2125 C2124 1.404 . S
C2125 H2137 0.930 . S
C2126 C2122 1.524 . S
C2126 H2138 0.956 . S
C2126 H2139 0.961 . S
C2126 H2140 0.961 . S
C2127 C2124 1.539 . S
C2127 H2141 0.958 . S
C2127 H2142 0.961 . S
C2127 H2143 0.960 . S
H2128 C2112 0.931 . S
H2129 C2117 0.929 . S
H2130 C2118 0.960 . S
H2131 C2118 0.962 . S
H2132 C2118 0.960 . S
H2133 C2119 0.961 . S
H2134 C2119 0.961 . S
H2135 C2119 0.961 . S
H2136 C2120 0.931 . S
H2137 C2125 0.930 . S
H2138 C2126 0.956 . S
H2139 C2126 0.961 . S
H2140 C2126 0.961 . S
H2141 C2127 0.958 . S
H2142 C2127 0.961 . S
H2143 C2127 0.960 . S
C2144 C2145 1.391 . S
C2144 C2146 1.394 . S
C2144 H2160 0.931 . S
C2145 C2144 1.391 . S
C2145 C2149 1.376 . S
C2146 C2144 1.394 . S
C2146 C2147 1.369 . S
C2146 C2150 1.531 . S
C2147 C2146 1.369 . S
C2147 C2148 1.410 . S
C2147 C2155 1.503 . S
C2148 C2147 1.410 . S
C2148 C2149 1.392 . S
C2148 C2151 1.511 . S
C2149 C2145 1.376 . S
C2149 C2148 1.392 . S
C2149 H2161 0.929 . S
C2150 C2146 1.531 . S
C2150 H2162 0.960 . S
C2150 H2163 0.962 . S
C2150 H2164 0.960 . S
C2151 C2148 1.511 . S
C2151 H2165 0.961 . S
C2151 H2166 0.961 . S
C2151 H2167 0.961 . S
C2152 C2153 1.370 . S
C2152 C2154 1.363 . S
C2152 H2168 0.931 . S
C2153 C2152 1.370 . S
C2153 C2157 1.408 . S
C2154 C2152 1.363 . S
C2154 C2155 1.370 . S
C2154 C2158 1.524 . S
C2155 C2147 1.503 . S
C2155 C2154 1.370 . S
C2155 C2156 1.403 . S
C2156 C2155 1.403 . S
C2156 C2157 1.404 . S
C2156 C2159 1.539 . S
C2157 C2153 1.408 . S
C2157 C2156 1.404 . S
C2157 H2169 0.930 . S
C2158 C2154 1.524 . S
C2158 H2170 0.956 . S
C2158 H2171 0.961 . S
C2158 H2172 0.961 . S
C2159 C2156 1.539 . S
C2159 H2173 0.958 . S
C2159 H2174 0.961 . S
C2159 H2175 0.960 . S
H2160 C2144 0.931 . S
H2161 C2149 0.929 . S
H2162 C2150 0.960 . S
H2163 C2150 0.962 . S
H2164 C2150 0.960 . S
H2165 C2151 0.961 . S
H2166 C2151 0.961 . S
H2167 C2151 0.961 . S
H2168 C2152 0.931 . S
H2169 C2157 0.930 . S
H2170 C2158 0.956 . S
H2171 C2158 0.961 . S
H2172 C2158 0.961 . S
H2173 C2159 0.958 . S
H2174 C2159 0.961 . S
H2175 C2159 0.960 . S
C2176 C2177 1.391 . S
C2176 C2178 1.394 . S
C2176 H2192 0.931 . S
C2177 C2176 1.391 . S
C2177 C2181 1.376 . S
C2178 C2176 1.394 . S
C2178 C2179 1.369 . S
C2178 C2182 1.531 . S
C2179 C2178 1.369 . S
C2179 C2180 1.410 . S
C2179 C2187 1.503 . S
C2180 C2179 1.410 . S
C2180 C2181 1.392 . S
C2180 C2183 1.511 . S
C2181 C2177 1.376 . S
C2181 C2180 1.392 . S
C2181 H2193 0.929 . S
C2182 C2178 1.531 . S
C2182 H2194 0.960 . S
C2182 H2195 0.962 . S
C2182 H2196 0.960 . S
C2183 C2180 1.511 . S
C2183 H2197 0.961 . S
C2183 H2198 0.961 . S
C2183 H2199 0.961 . S
C2184 C2185 1.370 . S
C2184 C2186 1.363 . S
C2184 H2200 0.931 . S
C2185 C2184 1.370 . S
C2185 C2189 1.408 . S
C2186 C2184 1.363 . S
C2186 C2187 1.370 . S
C2186 C2190 1.524 . S
C2187 C2179 1.503 . S
C2187 C2186 1.370 . S
C2187 C2188 1.403 . S
C2188 C2187 1.403 . S
C2188 C2189 1.404 . S
C2188 C2191 1.539 . S
C2189 C2185 1.408 . S
C2189 C2188 1.404 . S
C2189 H2201 0.930 . S
C2190 C2186 1.524 . S
C2190 H2202 0.956 . S
C2190 H2203 0.961 . S
C2190 H2204 0.961 . S
C2191 C2188 1.539 . S
C2191 H2205 0.958 . S
C2191 H2206 0.961 . S
C2191 H2207 0.960 . S
H2192 C2176 0.931 . S
H2193 C2181 0.929 . S
H2194 C2182 0.960 . S
H2195 C2182 0.962 . S
H2196 C2182 0.960 . S
H2197 C2183 0.961 . S
H2198 C2183 0.961 . S
H2199 C2183 0.961 . S
H2200 C2184 0.931 . S
H2201 C2189 0.930 . S
H2202 C2190 0.956 . S
H2203 C2190 0.961 . S
H2204 C2190 0.961 . S
H2205 C2191 0.958 . S
H2206 C2191 0.961 . S
H2207 C2191 0.960 . S
C2208 C2209 1.391 . S
C2208 C2210 1.394 . S
C2208 H2224 0.931 . S
C2209 C2208 1.391 . S
C2209 C2213 1.376 . S
C2210 C2208 1.394 . S
C2210 C2211 1.369 . S
C2210 C2214 1.531 . S
C2211 C2210 1.369 . S
C2211 C2212 1.410 . S
C2211 C2219 1.503 . S
C2212 C2211 1.410 . S
C2212 C2213 1.392 . S
C2212 C2215 1.511 . S
C2213 C2209 1.376 . S
C2213 C2212 1.392 . S
C2213 H2225 0.929 . S
C2214 C2210 1.531 . S
C2214 H2226 0.960 . S
C2214 H2227 0.962 . S
C2214 H2228 0.960 . S
C2215 C2212 1.511 . S
C2215 H2229 0.961 . S
C2215 H2230 0.961 . S
C2215 H2231 0.961 . S
C2216 C2217 1.370 . S
C2216 C2218 1.363 . S
C2216 H2232 0.931 . S
C2217 C2216 1.370 . S
C2217 C2221 1.408 . S
C2218 C2216 1.363 . S
C2218 C2219 1.370 . S
C2218 C2222 1.524 . S
C2219 C2211 1.503 . S
C2219 C2218 1.370 . S
C2219 C2220 1.403 . S
C2220 C2219 1.403 . S
C2220 C2221 1.404 . S
C2220 C2223 1.539 . S
C2221 C2217 1.408 . S
C2221 C2220 1.404 . S
C2221 H2233 0.930 . S
C2222 C2218 1.524 . S
C2222 H2234 0.956 . S
C2222 H2235 0.961 . S
C2222 H2236 0.961 . S
C2223 C2220 1.539 . S
C2223 H2237 0.958 . S
C2223 H2238 0.961 . S
C2223 H2239 0.960 . S
H2224 C2208 0.931 . S
H2225 C2213 0.929 . S
H2226 C2214 0.960 . S
H2227 C2214 0.962 . S
H2228 C2214 0.960 . S
H2229 C2215 0.961 . S
H2230 C2215 0.961 . S
H2231 C2215 0.961 . S
H2232 C2216 0.931 . S
H2233 C2221 0.930 . S
H2234 C2222 0.956 . S
H2235 C2222 0.961 . S
H2236 C2222 0.961 . S
H2237 C2223 0.958 . S
H2238 C2223 0.961 . S
H2239 C2223 0.960 . S
C2240 C2241 1.391 . S
C2240 C2242 1.394 . S
C2240 H2256 0.931 . S
C2241 C2240 1.391 . S
C2241 C2245 1.376 . S
C2242 C2240 1.394 . S
C2242 C2243 1.369 . S
C2242 C2246 1.531 . S
C2243 C2242 1.369 . S
C2243 C2244 1.410 . S
C2243 C2251 1.503 . S
C2244 C2243 1.410 . S
C2244 C2245 1.392 . S
C2244 C2247 1.511 . S
C2245 C2241 1.376 . S
C2245 C2244 1.392 . S
C2245 H2257 0.929 . S
C2246 C2242 1.531 . S
C2246 H2258 0.960 . S
C2246 H2259 0.962 . S
C2246 H2260 0.960 . S
C2247 C2244 1.511 . S
C2247 H2261 0.961 . S
C2247 H2262 0.961 . S
C2247 H2263 0.961 . S
C2248 C2249 1.370 . S
C2248 C2250 1.363 . S
C2248 H2264 0.931 . S
C2249 C2248 1.370 . S
C2249 C2253 1.408 . S
C2250 C2248 1.363 . S
C2250 C2251 1.370 . S
C2250 C2254 1.524 . S
C2251 C2243 1.503 . S
C2251 C2250 1.370 . S
C2251 C2252 1.403 . S
C2252 C2251 1.403 . S
C2252 C2253 1.404 . S
C2252 C2255 1.539 . S
C2253 C2249 1.408 . S
C2253 C2252 1.404 . S
C2253 H2265 0.930 . S
C2254 C2250 1.524 . S
C2254 H2266 0.956 . S
C2254 H2267 0.961 . S
C2254 H2268 0.961 . S
C2255 C2252 1.539 . S
C2255 H2269 0.958 . S
C2255 H2270 0.961 . S
C2255 H2271 0.960 . S
H2256 C2240 0.931 . S
H2257 C2245 0.929 . S
H2258 C2246 0.960 . S
H2259 C2246 0.962 . S
H2260 C2246 0.960 . S
H2261 C2247 0.961 . S
H2262 C2247 0.961 . S
H2263 C2247 0.961 . S
H2264 C2248 0.931 . S
H2265 C2253 0.930 . S
H2266 C2254 0.956 . S
H2267 C2254 0.961 . S
H2268 C2254 0.961 . S
H2269 C2255 0.958 . S
H2270 C2255 0.961 . S
H2271 C2255 0.960 . S
C2272 C2273 1.391 . S
C2272 C2274 1.394 . S
C2272 H2288 0.931 . S
C2273 C2272 1.391 . S
C2273 C2277 1.376 . S
C2274 C2272 1.394 . S
C2274 C2275 1.369 . S
C2274 C2278 1.531 . S
C2275 C2274 1.369 . S
C2275 C2276 1.410 . S
C2275 C2283 1.503 . S
C2276 C2275 1.410 . S
C2276 C2277 1.392 . S
C2276 C2279 1.511 . S
C2277 C2273 1.376 . S
C2277 C2276 1.392 . S
C2277 H2289 0.929 . S
C2278 C2274 1.531 . S
C2278 H2290 0.960 . S
C2278 H2291 0.962 . S
C2278 H2292 0.960 . S
C2279 C2276 1.511 . S
C2279 H2293 0.961 . S
C2279 H2294 0.961 . S
C2279 H2295 0.961 . S
C2280 C2281 1.370 . S
C2280 C2282 1.363 . S
C2280 H2296 0.931 . S
C2281 C2280 1.370 . S
C2281 C2285 1.408 . S
C2282 C2280 1.363 . S
C2282 C2283 1.370 . S
C2282 C2286 1.524 . S
C2283 C2275 1.503 . S
C2283 C2282 1.370 . S
C2283 C2284 1.403 . S
C2284 C2283 1.403 . S
C2284 C2285 1.404 . S
C2284 C2287 1.539 . S
C2285 C2281 1.408 . S
C2285 C2284 1.404 . S
C2285 H2297 0.930 . S
C2286 C2282 1.524 . S
C2286 H2298 0.956 . S
C2286 H2299 0.961 . S
C2286 H2300 0.961 . S
C2287 C2284 1.539 . S
C2287 H2301 0.958 . S
C2287 H2302 0.961 . S
C2287 H2303 0.960 . S
H2288 C2272 0.931 . S
H2289 C2277 0.929 . S
H2290 C2278 0.960 . S
H2291 C2278 0.962 . S
H2292 C2278 0.960 . S
H2293 C2279 0.961 . S
H2294 C2279 0.961 . S
H2295 C2279 0.961 . S
H2296 C2280 0.931 . S
H2297 C2285 0.930 . S
H2298 C2286 0.956 . S
H2299 C2286 0.961 . S
H2300 C2286 0.961 . S
H2301 C2287 0.958 . S
H2302 C2287 0.961 . S
H2303 C2287 0.960 . S
C2304 C2305 1.391 . S
C2304 C2306 1.394 . S
C2304 H2320 0.931 . S
C2305 C2304 1.391 . S
C2305 C2309 1.376 . S
C2306 C2304 1.394 . S
C2306 C2307 1.369 . S
C2306 C2310 1.531 . S
C2307 C2306 1.369 . S
C2307 C2308 1.410 . S
C2307 C2315 1.503 . S
C2308 C2307 1.410 . S
C2308 C2309 1.392 . S
C2308 C2311 1.511 . S
C2309 C2305 1.376 . S
C2309 C2308 1.392 . S
C2309 H2321 0.929 . S
C2310 C2306 1.531 . S
C2310 H2322 0.960 . S
C2310 H2323 0.962 . S
C2310 H2324 0.960 . S
C2311 C2308 1.511 . S
C2311 H2325 0.961 . S
C2311 H2326 0.961 . S
C2311 H2327 0.961 . S
C2312 C2313 1.370 . S
C2312 C2314 1.363 . S
C2312 H2328 0.931 . S
C2313 C2312 1.370 . S
C2313 C2317 1.408 . S
C2314 C2312 1.363 . S
C2314 C2315 1.370 . S
C2314 C2318 1.524 . S
C2315 C2307 1.503 . S
C2315 C2314 1.370 . S
C2315 C2316 1.403 . S
C2316 C2315 1.403 . S
C2316 C2317 1.404 . S
C2316 C2319 1.539 . S
C2317 C2313 1.408 . S
C2317 C2316 1.404 . S
C2317 H2329 0.930 . S
C2318 C2314 1.524 . S
C2318 H2330 0.956 . S
C2318 H2331 0.961 . S
C2318 H2332 0.961 . S
C2319 C2316 1.539 . S
C2319 H2333 0.958 . S
C2319 H2334 0.961 . S
C2319 H2335 0.960 . S
H2320 C2304 0.931 . S
H2321 C2309 0.929 . S
H2322 C2310 0.960 . S
H2323 C2310 0.962 . S
H2324 C2310 0.960 . S
H2325 C2311 0.961 . S
H2326 C2311 0.961 . S
H2327 C2311 0.961 . S
H2328 C2312 0.931 . S
H2329 C2317 0.930 . S
H2330 C2318 0.956 . S
H2331 C2318 0.961 . S
H2332 C2318 0.961 . S
H2333 C2319 0.958 . S
H2334 C2319 0.961 . S
H2335 C2319 0.960 . S
C2336 C2337 1.391 . S
C2336 C2338 1.394 . S
C2336 H2352 0.931 . S
C2337 C2336 1.391 . S
C2337 C2341 1.376 . S
C2338 C2336 1.394 . S
C2338 C2339 1.369 . S
C2338 C2342 1.531 . S
C2339 C2338 1.369 . S
C2339 C2340 1.410 . S
C2339 C2347 1.503 . S
C2340 C2339 1.410 . S
C2340 C2341 1.392 . S
C2340 C2343 1.511 . S
C2341 C2337 1.376 . S
C2341 C2340 1.392 . S
C2341 H2353 0.929 . S
C2342 C2338 1.531 . S
C2342 H2354 0.960 . S
C2342 H2355 0.962 . S
C2342 H2356 0.960 . S
C2343 C2340 1.511 . S
C2343 H2357 0.961 . S
C2343 H2358 0.961 . S
C2343 H2359 0.961 . S
C2344 C2345 1.370 . S
C2344 C2346 1.363 . S
C2344 H2360 0.931 . S
C2345 C2344 1.370 . S
C2345 C2349 1.408 . S
C2346 C2344 1.363 . S
C2346 C2347 1.370 . S
C2346 C2350 1.524 . S
C2347 C2339 1.503 . S
C2347 C2346 1.370 . S
C2347 C2348 1.403 . S
C2348 C2347 1.403 . S
C2348 C2349 1.404 . S
C2348 C2351 1.539 . S
C2349 C2345 1.408 . S
C2349 C2348 1.404 . S
C2349 H2361 0.930 . S
C2350 C2346 1.524 . S
C2350 H2362 0.956 . S
C2350 H2363 0.961 . S
C2350 H2364 0.961 . S
C2351 C2348 1.539 . S
C2351 H2365 0.958 . S
C2351 H2366 0.961 . S
C2351 H2367 0.960 . S
H2352 C2336 0.931 . S
H2353 C2341 0.929 . S
H2354 C2342 0.960 . S
H2355 C2342 0.962 . S
H2356 C2342 0.960 . S
H2357 C2343 0.961 . S
H2358 C2343 0.961 . S
H2359 C2343 0.961 . S
H2360 C2344 0.931 . S
H2361 C2349 0.930 . S
H2362 C2350 0.956 . S
H2363 C2350 0.961 . S
H2364 C2350 0.961 . S
H2365 C2351 0.958 . S
H2366 C2351 0.961 . S
H2367 C2351 0.960 . S
C2368 C2369 1.391 . S
C2368 C2370 1.394 . S
C2368 H2384 0.931 . S
C2369 C2368 1.391 . S
C2369 C2373 1.376 . S
C2370 C2368 1.394 . S
C2370 C2371 1.369 . S
C2370 C2374 1.531 . S
C2371 C2370 1.369 . S
C2371 C2372 1.410 . S
C2371 C2379 1.503 . S
C2372 C2371 1.410 . S
C2372 C2373 1.392 . S
C2372 C2375 1.511 . S
C2373 C2369 1.376 . S
C2373 C2372 1.392 . S
C2373 H2385 0.929 . S
C2374 C2370 1.531 . S
C2374 H2386 0.960 . S
C2374 H2387 0.962 . S
C2374 H2388 0.960 . S
C2375 C2372 1.511 . S
C2375 H2389 0.961 . S
C2375 H2390 0.961 . S
C2375 H2391 0.961 . S
C2376 C2377 1.370 . S
C2376 C2378 1.363 . S
C2376 H2392 0.931 . S
C2377 C2376 1.370 . S
C2377 C2381 1.408 . S
C2378 C2376 1.363 . S
C2378 C2379 1.370 . S
C2378 C2382 1.524 . S
C2379 C2371 1.503 . S
C2379 C2378 1.370 . S
C2379 C2380 1.403 . S
C2380 C2379 1.403 . S
C2380 C2381 1.404 . S
C2380 C2383 1.539 . S
C2381 C2377 1.408 . S
C2381 C2380 1.404 . S
C2381 H2393 0.930 . S
C2382 C2378 1.524 . S
C2382 H2394 0.956 . S
C2382 H2395 0.961 . S
C2382 H2396 0.961 . S
C2383 C2380 1.539 . S
C2383 H2397 0.958 . S
C2383 H2398 0.961 . S
C2383 H2399 0.960 . S
H2384 C2368 0.931 . S
H2385 C2373 0.929 . S
H2386 C2374 0.960 . S
H2387 C2374 0.962 . S
H2388 C2374 0.960 . S
H2389 C2375 0.961 . S
H2390 C2375 0.961 . S
H2391 C2375 0.961 . S
H2392 C2376 0.931 . S
H2393 C2381 0.930 . S
H2394 C2382 0.956 . S
H2395 C2382 0.961 . S
H2396 C2382 0.961 . S
H2397 C2383 0.958 . S
H2398 C2383 0.961 . S
H2399 C2383 0.960 . S
C2400 C2401 1.391 . S
C2400 C2402 1.394 . S
C2400 H2416 0.931 . S
C2401 C2400 1.391 . S
C2401 C2405 1.376 . S
C2402 C2400 1.394 . S
C2402 C2403 1.369 . S
C2402 C2406 1.531 . S
C2403 C2402 1.369 . S
C2403 C2404 1.410 . S
C2403 C2411 1.503 . S
C2404 C2403 1.410 . S
C2404 C2405 1.392 . S
C2404 C2407 1.511 . S
C2405 C2401 1.376 . S
C2405 C2404 1.392 . S
C2405 H2417 0.929 . S
C2406 C2402 1.531 . S
C2406 H2418 0.960 . S
C2406 H2419 0.962 . S
C2406 H2420 0.960 . S
C2407 C2404 1.511 . S
C2407 H2421 0.961 . S
C2407 H2422 0.961 . S
C2407 H2423 0.961 . S
C2408 C2409 1.370 . S
C2408 C2410 1.363 . S
C2408 H2424 0.931 . S
C2409 C2408 1.370 . S
C2409 C2413 1.408 . S
C2410 C2408 1.363 . S
C2410 C2411 1.370 . S
C2410 C2414 1.524 . S
C2411 C2403 1.503 . S
C2411 C2410 1.370 . S
C2411 C2412 1.403 . S
C2412 C2411 1.403 . S
C2412 C2413 1.404 . S
C2412 C2415 1.539 . S
C2413 C2409 1.408 . S
C2413 C2412 1.404 . S
C2413 H2425 0.930 . S
C2414 C2410 1.524 . S
C2414 H2426 0.956 . S
C2414 H2427 0.961 . S
C2414 H2428 0.961 . S
C2415 C2412 1.539 . S
C2415 H2429 0.958 . S
C2415 H2430 0.961 . S
C2415 H2431 0.960 . S
H2416 C2400 0.931 . S
H2417 C2405 0.929 . S
H2418 C2406 0.960 . S
H2419 C2406 0.962 . S
H2420 C2406 0.960 . S
H2421 C2407 0.961 . S
H2422 C2407 0.961 . S
H2423 C2407 0.961 . S
H2424 C2408 0.931 . S
H2425 C2413 0.930 . S
H2426 C2414 0.956 . S
H2427 C2414 0.961 . S
H2428 C2414 0.961 . S
H2429 C2415 0.958 . S
H2430 C2415 0.961 . S
H2431 C2415 0.960 . S
C2432 C2433 1.391 . S
C2432 C2434 1.394 . S
C2432 H2448 0.931 . S
C2433 C2432 1.391 . S
C2433 C2437 1.376 . S
C2434 C2432 1.394 . S
C2434 C2435 1.369 . S
C2434 C2438 1.531 . S
C2435 C2434 1.369 . S
C2435 C2436 1.410 . S
C2435 C2443 1.503 . S
C2436 C2435 1.410 . S
C2436 C2437 1.392 . S
C2436 C2439 1.511 . S
C2437 C2433 1.376 . S
C2437 C2436 1.392 . S
C2437 H2449 0.929 . S
C2438 C2434 1.531 . S
C2438 H2450 0.960 . S
C2438 H2451 0.962 . S
C2438 H2452 0.960 . S
C2439 C2436 1.511 . S
C2439 H2453 0.961 . S
C2439 H2454 0.961 . S
C2439 H2455 0.961 . S
C2440 C2441 1.370 . S
C2440 C2442 1.363 . S
C2440 H2456 0.931 . S
C2441 C2440 1.370 . S
C2441 C2445 1.408 . S
C2442 C2440 1.363 . S
C2442 C2443 1.370 . S
C2442 C2446 1.524 . S
C2443 C2435 1.503 . S
C2443 C2442 1.370 . S
C2443 C2444 1.403 . S
C2444 C2443 1.403 . S
C2444 C2445 1.404 . S
C2444 C2447 1.539 . S
C2445 C2441 1.408 . S
C2445 C2444 1.404 . S
C2445 H2457 0.930 . S
C2446 C2442 1.524 . S
C2446 H2458 0.956 . S
C2446 H2459 0.961 . S
C2446 H2460 0.961 . S
C2447 C2444 1.539 . S
C2447 H2461 0.958 . S
C2447 H2462 0.961 . S
C2447 H2463 0.960 . S
H2448 C2432 0.931 . S
H2449 C2437 0.929 . S
H2450 C2438 0.960 . S
H2451 C2438 0.962 . S
H2452 C2438 0.960 . S
H2453 C2439 0.961 . S
H2454 C2439 0.961 . S
H2455 C2439 0.961 . S
H2456 C2440 0.931 . S
H2457 C2445 0.930 . S
H2458 C2446 0.956 . S
H2459 C2446 0.961 . S
H2460 C2446 0.961 . S
H2461 C2447 0.958 . S
H2462 C2447 0.961 . S
H2463 C2447 0.960 . S
C2464 C2465 1.391 . S
C2464 C2466 1.394 . S
C2464 H2480 0.931 . S
C2465 C2464 1.391 . S
C2465 C2469 1.376 . S
C2466 C2464 1.394 . S
C2466 C2467 1.369 . S
C2466 C2470 1.531 . S
C2467 C2466 1.369 . S
C2467 C2468 1.410 . S
C2467 C2475 1.503 . S
C2468 C2467 1.410 . S
C2468 C2469 1.392 . S
C2468 C2471 1.511 . S
C2469 C2465 1.376 . S
C2469 C2468 1.392 . S
C2469 H2481 0.929 . S
C2470 C2466 1.531 . S
C2470 H2482 0.960 . S
C2470 H2483 0.962 . S
C2470 H2484 0.960 . S
C2471 C2468 1.511 . S
C2471 H2485 0.961 . S
C2471 H2486 0.961 . S
C2471 H2487 0.961 . S
C2472 C2473 1.370 . S
C2472 C2474 1.363 . S
C2472 H2488 0.931 . S
C2473 C2472 1.370 . S
C2473 C2477 1.408 . S
C2474 C2472 1.363 . S
C2474 C2475 1.370 . S
C2474 C2478 1.524 . S
C2475 C2467 1.503 . S
C2475 C2474 1.370 . S
C2475 C2476 1.403 . S
C2476 C2475 1.403 . S
C2476 C2477 1.404 . S
C2476 C2479 1.539 . S
C2477 C2473 1.408 . S
C2477 C2476 1.404 . S
C2477 H2489 0.930 . S
C2478 C2474 1.524 . S
C2478 H2490 0.956 . S
C2478 H2491 0.961 . S
C2478 H2492 0.961 . S
C2479 C2476 1.539 . S
C2479 H2493 0.958 . S
C2479 H2494 0.961 . S
C2479 H2495 0.960 . S
H2480 C2464 0.931 . S
H2481 C2469 0.929 . S
H2482 C2470 0.960 . S
H2483 C2470 0.962 . S
H2484 C2470 0.960 . S
H2485 C2471 0.961 . S
H2486 C2471 0.961 . S
H2487 C2471 0.961 . S
H2488 C2472 0.931 . S
H2489 C2477 0.930 . S
H2490 C2478 0.956 . S
H2491 C2478 0.961 . S
H2492 C2478 0.961 . S
H2493 C2479 0.958 . S
H2494 C2479 0.961 . S
H2495 C2479 0.960 . S
C2496 C2497 1.391 . S
C2496 C2498 1.394 . S
C2496 H2512 0.931 . S
C2497 C2496 1.391 . S
C2497 C2501 1.376 . S
C2498 C2496 1.394 . S
C2498 C2499 1.369 . S
C2498 C2502 1.531 . S
C2499 C2498 1.369 . S
C2499 C2500 1.410 . S
C2499 C2507 1.503 . S
C2500 C2499 1.410 . S
C2500 C2501 1.392 . S
C2500 C2503 1.511 . S
C2501 C2497 1.376 . S
C2501 C2500 1.392 . S
C2501 H2513 0.929 . S
C2502 C2498 1.531 . S
C2502 H2514 0.960 . S
C2502 H2515 0.962 . S
C2502 H2516 0.960 . S
C2503 C2500 1.511 . S
C2503 H2517 0.961 . S
C2503 H2518 0.961 . S
C2503 H2519 0.961 . S
C2504 C2505 1.370 . S
C2504 C2506 1.363 . S
C2504 H2520 0.931 . S
C2505 C2504 1.370 . S
C2505 C2509 1.408 . S
C2506 C2504 1.363 . S
C2506 C2507 1.370 . S
C2506 C2510 1.524 . S
C2507 C2499 1.503 . S
C2507 C2506 1.370 . S
C2507 C2508 1.403 . S
C2508 C2507 1.403 . S
C2508 C2509 1.404 . S
C2508 C2511 1.539 . S
C2509 C2505 1.408 . S
C2509 C2508 1.404 . S
C2509 H2521 0.930 . S
C2510 C2506 1.524 . S
C2510 H2522 0.956 . S
C2510 H2523 0.961 . S
C2510 H2524 0.961 . S
C2511 C2508 1.539 . S
C2511 H2525 0.958 . S
C2511 H2526 0.961 . S
C2511 H2527 0.960 . S
H2512 C2496 0.931 . S
H2513 C2501 0.929 . S
H2514 C2502 0.960 . S
H2515 C2502 0.962 . S
H2516 C2502 0.960 . S
H2517 C2503 0.961 . S
H2518 C2503 0.961 . S
H2519 C2503 0.961 . S
H2520 C2504 0.931 . S
H2521 C2509 0.930 . S
H2522 C2510 0.956 . S
H2523 C2510 0.961 . S
H2524 C2510 0.961 . S
H2525 C2511 0.958 . S
H2526 C2511 0.961 . S
H2527 C2511 0.960 . S
C2528 C2529 1.391 . S
C2528 C2530 1.394 . S
C2528 H2544 0.931 . S
C2529 C2528 1.391 . S
C2529 C2533 1.376 . S
C2530 C2528 1.394 . S
C2530 C2531 1.369 . S
C2530 C2534 1.531 . S
C2531 C2530 1.369 . S
C2531 C2532 1.410 . S
C2531 C2539 1.503 . S
C2532 C2531 1.410 . S
C2532 C2533 1.392 . S
C2532 C2535 1.511 . S
C2533 C2529 1.376 . S
C2533 C2532 1.392 . S
C2533 H2545 0.929 . S
C2534 C2530 1.531 . S
C2534 H2546 0.960 . S
C2534 H2547 0.962 . S
C2534 H2548 0.960 . S
C2535 C2532 1.511 . S
C2535 H2549 0.961 . S
C2535 H2550 0.961 . S
C2535 H2551 0.961 . S
C2536 C2537 1.370 . S
C2536 C2538 1.363 . S
C2536 H2552 0.931 . S
C2537 C2536 1.370 . S
C2537 C2541 1.408 . S
C2538 C2536 1.363 . S
C2538 C2539 1.370 . S
C2538 C2542 1.524 . S
C2539 C2531 1.503 . S
C2539 C2538 1.370 . S
C2539 C2540 1.403 . S
C2540 C2539 1.403 . S
C2540 C2541 1.404 . S
C2540 C2543 1.539 . S
C2541 C2537 1.408 . S
C2541 C2540 1.404 . S
C2541 H2553 0.930 . S
C2542 C2538 1.524 . S
C2542 H2554 0.956 . S
C2542 H2555 0.961 . S
C2542 H2556 0.961 . S
C2543 C2540 1.539 . S
C2543 H2557 0.958 . S
C2543 H2558 0.961 . S
C2543 H2559 0.960 . S
H2544 C2528 0.931 . S
H2545 C2533 0.929 . S
H2546 C2534 0.960 . S
H2547 C2534 0.962 . S
H2548 C2534 0.960 . S
H2549 C2535 0.961 . S
H2550 C2535 0.961 . S
H2551 C2535 0.961 . S
H2552 C2536 0.931 . S
H2553 C2541 0.930 . S
H2554 C2542 0.956 . S
H2555 C2542 0.961 . S
H2556 C2542 0.961 . S
H2557 C2543 0.958 . S
H2558 C2543 0.961 . S
H2559 C2543 0.960 . S
C2560 C2561 1.391 . S
C2560 C2562 1.394 . S
C2560 H2576 0.931 . S
C2561 C2560 1.391 . S
C2561 C2565 1.376 . S
C2562 C2560 1.394 . S
C2562 C2563 1.369 . S
C2562 C2566 1.531 . S
C2563 C2562 1.369 . S
C2563 C2564 1.410 . S
C2563 C2571 1.503 . S
C2564 C2563 1.410 . S
C2564 C2565 1.392 . S
C2564 C2567 1.511 . S
C2565 C2561 1.376 . S
C2565 C2564 1.392 . S
C2565 H2577 0.929 . S
C2566 C2562 1.531 . S
C2566 H2578 0.960 . S
C2566 H2579 0.962 . S
C2566 H2580 0.960 . S
C2567 C2564 1.511 . S
C2567 H2581 0.961 . S
C2567 H2582 0.961 . S
C2567 H2583 0.961 . S
C2568 C2569 1.370 . S
C2568 C2570 1.363 . S
C2568 H2584 0.931 . S
C2569 C2568 1.370 . S
C2569 C2573 1.408 . S
C2570 C2568 1.363 . S
C2570 C2571 1.370 . S
C2570 C2574 1.524 . S
C2571 C2563 1.503 . S
C2571 C2570 1.370 . S
C2571 C2572 1.403 . S
C2572 C2571 1.403 . S
C2572 C2573 1.404 . S
C2572 C2575 1.539 . S
C2573 C2569 1.408 . S
C2573 C2572 1.404 . S
C2573 H2585 0.930 . S
C2574 C2570 1.524 . S
C2574 H2586 0.956 . S
C2574 H2587 0.961 . S
C2574 H2588 0.961 . S
C2575 C2572 1.539 . S
C2575 H2589 0.958 . S
C2575 H2590 0.961 . S
C2575 H2591 0.960 . S
H2576 C2560 0.931 . S
H2577 C2565 0.929 . S
H2578 C2566 0.960 . S
H2579 C2566 0.962 . S
H2580 C2566 0.960 . S
H2581 C2567 0.961 . S
H2582 C2567 0.961 . S
H2583 C2567 0.961 . S
H2584 C2568 0.931 . S
H2585 C2573 0.930 . S
H2586 C2574 0.956 . S
H2587 C2574 0.961 . S
H2588 C2574 0.961 . S
H2589 C2575 0.958 . S
H2590 C2575 0.961 . S
H2591 C2575 0.960 . S
C2592 C2593 1.391 . S
C2592 C2594 1.394 . S
C2592 H2608 0.931 . S
C2593 C2592 1.391 . S
C2593 C2597 1.376 . S
C2594 C2592 1.394 . S
C2594 C2595 1.369 . S
C2594 C2598 1.531 . S
C2595 C2594 1.369 . S
C2595 C2596 1.410 . S
C2595 C2603 1.503 . S
C2596 C2595 1.410 . S
C2596 C2597 1.392 . S
C2596 C2599 1.511 . S
C2597 C2593 1.376 . S
C2597 C2596 1.392 . S
C2597 H2609 0.929 . S
C2598 C2594 1.531 . S
C2598 H2610 0.960 . S
C2598 H2611 0.962 . S
C2598 H2612 0.960 . S
C2599 C2596 1.511 . S
C2599 H2613 0.961 . S
C2599 H2614 0.961 . S
C2599 H2615 0.961 . S
C2600 C2601 1.370 . S
C2600 C2602 1.363 . S
C2600 H2616 0.931 . S
C2601 C2600 1.370 . S
C2601 C2605 1.408 . S
C2602 C2600 1.363 . S
C2602 C2603 1.370 . S
C2602 C2606 1.524 . S
C2603 C2595 1.503 . S
C2603 C2602 1.370 . S
C2603 C2604 1.403 . S
C2604 C2603 1.403 . S
C2604 C2605 1.404 . S
C2604 C2607 1.539 . S
C2605 C2601 1.408 . S
C2605 C2604 1.404 . S
C2605 H2617 0.930 . S
C2606 C2602 1.524 . S
C2606 H2618 0.956 . S
C2606 H2619 0.961 . S
C2606 H2620 0.961 . S
C2607 C2604 1.539 . S
C2607 H2621 0.958 . S
C2607 H2622 0.961 . S
C2607 H2623 0.960 . S
H2608 C2592 0.931 . S
H2609 C2597 0.929 . S
H2610 C2598 0.960 . S
H2611 C2598 0.962 . S
H2612 C2598 0.960 . S
H2613 C2599 0.961 . S
H2614 C2599 0.961 . S
H2615 C2599 0.961 . S
H2616 C2600 0.931 . S
H2617 C2605 0.930 . S
H2618 C2606 0.956 . S
H2619 C2606 0.961 . S
H2620 C2606 0.961 . S
H2621 C2607 0.958 . S
H2622 C2607 0.961 . S
H2623 C2607 0.960 . S
C2624 C2625 1.391 . S
C2624 C2626 1.394 . S
C2624 H2640 0.931 . S
C2625 C2624 1.391 . S
C2625 C2629 1.376 . S
C2626 C2624 1.394 . S
C2626 C2627 1.369 . S
C2626 C2630 1.531 . S
C2627 C2626 1.369 . S
C2627 C2628 1.410 . S
C2627 C2635 1.503 . S
C2628 C2627 1.410 . S
C2628 C2629 1.392 . S
C2628 C2631 1.511 . S
C2629 C2625 1.376 . S
C2629 C2628 1.392 . S
C2629 H2641 0.929 . S
C2630 C2626 1.531 . S
C2630 H2642 0.960 . S
C2630 H2643 0.962 . S
C2630 H2644 0.960 . S
C2631 C2628 1.511 . S
C2631 H2645 0.961 . S
C2631 H2646 0.961 . S
C2631 H2647 0.961 . S
C2632 C2633 1.370 . S
C2632 C2634 1.363 . S
C2632 H2648 0.931 . S
C2633 C2632 1.370 . S
C2633 C2637 1.408 . S
C2634 C2632 1.363 . S
C2634 C2635 1.370 . S
C2634 C2638 1.524 . S
C2635 C2627 1.503 . S
C2635 C2634 1.370 . S
C2635 C2636 1.403 . S
C2636 C2635 1.403 . S
C2636 C2637 1.404 . S
C2636 C2639 1.539 . S
C2637 C2633 1.408 . S
C2637 C2636 1.404 . S
C2637 H2649 0.930 . S
C2638 C2634 1.524 . S
C2638 H2650 0.956 . S
C2638 H2651 0.961 . S
C2638 H2652 0.961 . S
C2639 C2636 1.539 . S
C2639 H2653 0.958 . S
C2639 H2654 0.961 . S
C2639 H2655 0.960 . S
H2640 C2624 0.931 . S
H2641 C2629 0.929 . S
H2642 C2630 0.960 . S
H2643 C2630 0.962 . S
H2644 C2630 0.960 . S
H2645 C2631 0.961 . S
H2646 C2631 0.961 . S
H2647 C2631 0.961 . S
H2648 C2632 0.931 . S
H2649 C2637 0.930 . S
H2650 C2638 0.956 . S
H2651 C2638 0.961 . S
H2652 C2638 0.961 . S
H2653 C2639 0.958 . S
H2654 C2639 0.961 . S
H2655 C2639 0.960 . S
C2656 C2657 1.391 . S
C2656 C2658 1.394 . S
C2656 H2672 0.931 . S
C2657 C2656 1.391 . S
C2657 C2661 1.376 . S
C2658 C2656 1.394 . S
C2658 C2659 1.369 . S
C2658 C2662 1.531 . S
C2659 C2658 1.369 . S
C2659 C2660 1.410 . S
C2659 C2667 1.503 . S
C2660 C2659 1.410 . S
C2660 C2661 1.392 . S
C2660 C2663 1.511 . S
C2661 C2657 1.376 . S
C2661 C2660 1.392 . S
C2661 H2673 0.929 . S
C2662 C2658 1.531 . S
C2662 H2674 0.960 . S
C2662 H2675 0.962 . S
C2662 H2676 0.960 . S
C2663 C2660 1.511 . S
C2663 H2677 0.961 . S
C2663 H2678 0.961 . S
C2663 H2679 0.961 . S
C2664 C2665 1.370 . S
C2664 C2666 1.363 . S
C2664 H2680 0.931 . S
C2665 C2664 1.370 . S
C2665 C2669 1.408 . S
C2666 C2664 1.363 . S
C2666 C2667 1.370 . S
C2666 C2670 1.524 . S
C2667 C2659 1.503 . S
C2667 C2666 1.370 . S
C2667 C2668 1.403 . S
C2668 C2667 1.403 . S
C2668 C2669 1.404 . S
C2668 C2671 1.539 . S
C2669 C2665 1.408 . S
C2669 C2668 1.404 . S
C2669 H2681 0.930 . S
C2670 C2666 1.524 . S
C2670 H2682 0.956 . S
C2670 H2683 0.961 . S
C2670 H2684 0.961 . S
C2671 C2668 1.539 . S
C2671 H2685 0.958 . S
C2671 H2686 0.961 . S
C2671 H2687 0.960 . S
H2672 C2656 0.931 . S
H2673 C2661 0.929 . S
H2674 C2662 0.960 . S
H2675 C2662 0.962 . S
H2676 C2662 0.960 . S
H2677 C2663 0.961 . S
H2678 C2663 0.961 . S
H2679 C2663 0.961 . S
H2680 C2664 0.931 . S
H2681 C2669 0.930 . S
H2682 C2670 0.956 . S
H2683 C2670 0.961 . S
H2684 C2670 0.961 . S
H2685 C2671 0.958 . S
H2686 C2671 0.961 . S
H2687 C2671 0.960 . S
C2688 C2689 1.392 1_554 S
C2688 C2690 1.395 1_554 S
C2688 H2704 0.931 . S
C2689 C2688 1.392 1_556 S
C2689 C2693 1.374 1_565 S
C2690 C2688 1.395 1_556 S
C2690 C2691 1.366 1_565 S
C2690 C2694 1.532 1_556 S
C2691 C2690 1.366 1_545 S
C2691 C2692 1.410 . S
C2691 C2699 1.503 . S
C2692 C2691 1.410 . S
C2692 C2693 1.392 . S
C2692 C2695 1.511 . S
C2693 C2689 1.374 1_545 S
C2693 C2692 1.392 . S
C2693 H2705 0.929 . S
C2694 C2690 1.532 1_554 S
C2694 H2706 0.960 1_564 S
C2694 H2707 0.962 . S
C2694 H2708 0.960 1_565 S
C2695 C2692 1.511 . S
C2695 H2709 0.961 . S
C2695 H2710 0.961 . S
C2695 H2711 0.961 . S
C2696 C2697 1.370 . S
C2696 C2698 1.363 . S
C2696 H2712 0.931 . S
C2697 C2696 1.370 . S
C2697 C2701 1.408 1_565 S
C2698 C2696 1.363 . S
C2698 C2699 1.370 1_565 S
C2698 C2702 1.524 . S
C2699 C2691 1.503 . S
C2699 C2698 1.370 1_545 S
C2699 C2700 1.403 . S
C2700 C2699 1.403 . S
C2700 C2701 1.404 . S
C2700 C2703 1.539 . S
C2701 C2697 1.408 1_545 S
C2701 C2700 1.404 . S
C2701 H2713 0.930 . S
C2702 C2698 1.524 . S
C2702 H2714 0.956 . S
C2702 H2715 0.961 . S
C2702 H2716 0.961 . S
C2703 C2700 1.539 . S
C2703 H2717 0.958 . S
C2703 H2718 0.961 . S
C2703 H2719 0.960 . S
H2704 C2688 0.931 . S
H2705 C2693 0.929 . S
H2706 C2694 0.960 1_546 S
H2707 C2694 0.962 . S
H2708 C2694 0.960 1_545 S
H2709 C2695 0.961 . S
H2710 C2695 0.961 . S
H2711 C2695 0.961 . S
H2712 C2696 0.931 . S
H2713 C2701 0.930 . S
H2714 C2702 0.956 . S
H2715 C2702 0.961 . S
H2716 C2702 0.961 . S
H2717 C2703 0.958 . S
H2718 C2703 0.961 . S
H2719 C2703 0.960 . S
C2720 C2721 1.391 . S
C2720 C2722 1.394 . S
C2720 H2736 0.931 . S
C2721 C2720 1.391 . S
C2721 C2725 1.376 . S
C2722 C2720 1.394 . S
C2722 C2723 1.369 . S
C2722 C2726 1.531 . S
C2723 C2722 1.369 . S
C2723 C2724 1.410 . S
C2723 C2731 1.503 . S
C2724 C2723 1.410 . S
C2724 C2725 1.392 . S
C2724 C2727 1.511 . S
C2725 C2721 1.376 . S
C2725 C2724 1.392 . S
C2725 H2737 0.929 . S
C2726 C2722 1.531 . S
C2726 H2738 0.960 . S
C2726 H2739 0.962 . S
C2726 H2740 0.960 . S
C2727 C2724 1.511 . S
C2727 H2741 0.961 . S
C2727 H2742 0.961 . S
C2727 H2743 0.961 . S
C2728 C2729 1.369 1_455 S
C2728 C2730 1.365 . S
C2728 H2744 0.930 1_455 S
C2729 C2728 1.369 1_655 S
C2729 C2733 1.408 . S
C2730 C2728 1.365 . S
C2730 C2731 1.370 . S
C2730 C2734 1.524 . S
C2731 C2723 1.503 . S
C2731 C2730 1.370 . S
C2731 C2732 1.403 . S
C2732 C2731 1.403 . S
C2732 C2733 1.404 1_455 S
C2732 C2735 1.539 . S
C2733 C2729 1.408 . S
C2733 C2732 1.404 1_655 S
C2733 H2745 0.930 . S
C2734 C2730 1.524 . S
C2734 H2746 0.956 . S
C2734 H2747 0.961 . S
C2734 H2748 0.961 . S
C2735 C2732 1.539 . S
C2735 H2749 0.958 . S
C2735 H2750 0.961 . S
C2735 H2751 0.960 . S
H2736 C2720 0.931 . S
H2737 C2725 0.929 . S
H2738 C2726 0.960 . S
H2739 C2726 0.962 . S
H2740 C2726 0.960 . S
H2741 C2727 0.961 . S
H2742 C2727 0.961 . S
H2743 C2727 0.961 . S
H2744 C2728 0.930 1_655 S
H2745 C2733 0.930 . S
H2746 C2734 0.956 . S
H2747 C2734 0.961 . S
H2748 C2734 0.961 . S
H2749 C2735 0.958 . S
H2750 C2735 0.961 . S
H2751 C2735 0.960 . S
C2752 C2753 1.391 . S
C2752 C2754 1.394 . S
C2752 H2768 0.931 . S
C2753 C2752 1.391 . S
C2753 C2757 1.376 . S
C2754 C2752 1.394 . S
C2754 C2755 1.369 . S
C2754 C2758 1.531 . S
C2755 C2754 1.369 . S
C2755 C2756 1.410 . S
C2755 C2763 1.503 . S
C2756 C2755 1.410 . S
C2756 C2757 1.392 . S
C2756 C2759 1.511 . S
C2757 C2753 1.376 . S
C2757 C2756 1.392 . S
C2757 H2769 0.929 . S
C2758 C2754 1.531 . S
C2758 H2770 0.960 . S
C2758 H2771 0.962 . S
C2758 H2772 0.960 . S
C2759 C2756 1.511 . S
C2759 H2773 0.961 . S
C2759 H2774 0.961 . S
C2759 H2775 0.961 . S
C2760 C2761 1.370 . S
C2760 C2762 1.363 . S
C2760 H2776 0.931 . S
C2761 C2760 1.370 . S
C2761 C2765 1.408 . S
C2762 C2760 1.363 . S
C2762 C2763 1.370 . S
C2762 C2766 1.524 . S
C2763 C2755 1.503 . S
C2763 C2762 1.370 . S
C2763 C2764 1.403 . S
C2764 C2763 1.403 . S
C2764 C2765 1.404 . S
C2764 C2767 1.539 . S
C2765 C2761 1.408 . S
C2765 C2764 1.404 . S
C2765 H2777 0.930 . S
C2766 C2762 1.524 . S
C2766 H2778 0.956 . S
C2766 H2779 0.961 . S
C2766 H2780 0.961 . S
C2767 C2764 1.539 . S
C2767 H2781 0.958 . S
C2767 H2782 0.961 . S
C2767 H2783 0.960 . S
H2768 C2752 0.931 . S
H2769 C2757 0.929 . S
H2770 C2758 0.960 . S
H2771 C2758 0.962 . S
H2772 C2758 0.960 . S
H2773 C2759 0.961 . S
H2774 C2759 0.961 . S
H2775 C2759 0.961 . S
H2776 C2760 0.931 . S
H2777 C2765 0.930 . S
H2778 C2766 0.956 . S
H2779 C2766 0.961 . S
H2780 C2766 0.961 . S
H2781 C2767 0.958 . S
H2782 C2767 0.961 . S
H2783 C2767 0.960 . S
C2784 C2785 1.391 1_445 S
C2784 C2786 1.394 . S
C2784 H2800 0.930 1_545 S
C2785 C2784 1.391 1_665 S
C2785 C2789 1.375 1_565 S
C2786 C2784 1.394 . S
C2786 C2787 1.369 . S
C2786 C2790 1.531 . S
C2787 C2786 1.369 . S
C2787 C2788 1.410 . S
C2787 C2795 1.503 . S
C2788 C2787 1.410 . S
C2788 C2789 1.392 1_455 S
C2788 C2791 1.511 . S
C2789 C2785 1.375 1_545 S
C2789 C2788 1.392 1_655 S
C2789 H2801 0.929 . S
C2790 C2786 1.531 . S
C2790 H2802 0.960 . S
C2790 H2803 0.962 1_545 S
C2790 H2804 0.960 . S
C2791 C2788 1.511 . S
C2791 H2805 0.961 1_445 S
C2791 H2806 0.961 1_545 S
C2791 H2807 0.961 . S
C2792 C2793 1.370 . S
C2792 C2794 1.363 . S
C2792 H2808 0.931 . S
C2793 C2792 1.370 . S
C2793 C2797 1.408 1_565 S
C2794 C2792 1.363 . S
C2794 C2795 1.370 1_565 S
C2794 C2798 1.524 . S
C2795 C2787 1.503 . S
C2795 C2794 1.370 1_545 S
C2795 C2796 1.403 . S
C2796 C2795 1.403 . S
C2796 C2797 1.404 . S
C2796 C2799 1.539 . S
C2797 C2793 1.408 1_545 S
C2797 C2796 1.404 . S
C2797 H2809 0.930 . S
C2798 C2794 1.524 . S
C2798 H2810 0.956 . S
C2798 H2811 0.961 . S
C2798 H2812 0.961 . S
C2799 C2796 1.539 . S
C2799 H2813 0.958 . S
C2799 H2814 0.961 . S
C2799 H2815 0.960 . S
H2800 C2784 0.930 1_565 S
H2801 C2789 0.929 . S
H2802 C2790 0.960 . S
H2803 C2790 0.962 1_565 S
H2804 C2790 0.960 . S
H2805 C2791 0.961 1_665 S
H2806 C2791 0.961 1_565 S
H2807 C2791 0.961 . S
H2808 C2792 0.931 . S
H2809 C2797 0.930 . S
H2810 C2798 0.956 . S
H2811 C2798 0.961 . S
H2812 C2798 0.961 . S
H2813 C2799 0.958 . S
H2814 C2799 0.961 . S
H2815 C2799 0.960 . S
C2816 C2817 1.391 . S
C2816 C2818 1.394 . S
C2816 H2832 0.931 . S
C2817 C2816 1.391 . S
C2817 C2821 1.376 . S
C2818 C2816 1.394 . S
C2818 C2819 1.369 . S
C2818 C2822 1.531 . S
C2819 C2818 1.369 . S
C2819 C2820 1.410 . S
C2819 C2827 1.503 . S
C2820 C2819 1.410 . S
C2820 C2821 1.392 . S
C2820 C2823 1.511 . S
C2821 C2817 1.376 . S
C2821 C2820 1.392 . S
C2821 H2833 0.937 . S
C2822 C2818 1.531 . S
C2822 H2834 0.960 . S
C2822 H2835 0.926 1_545 S
C2822 H2836 0.960 . S
C2823 C2820 1.511 . S
C2823 H2837 0.961 1_545 S
C2823 H2838 0.961 1_545 S
C2823 H2839 0.961 . S
C2824 C2825 1.370 1_565 S
C2824 C2826 1.363 . S
C2824 H2840 0.931 . S
C2825 C2824 1.370 1_545 S
C2825 C2829 1.408 . S
C2826 C2824 1.363 . S
C2826 C2827 1.370 1_565 S
C2826 C2830 1.524 . S
C2827 C2819 1.503 . S
C2827 C2826 1.370 1_545 S
C2827 C2828 1.403 . S
C2828 C2827 1.403 . S
C2828 C2829 1.404 . S
C2828 C2831 1.539 . S
C2829 C2825 1.408 . S
C2829 C2828 1.404 . S
C2829 H2841 0.930 . S
C2830 C2826 1.524 . S
C2830 H2842 0.956 . S
C2830 H2843 0.961 . S
C2830 H2844 0.961 . S
C2831 C2828 1.539 . S
C2831 H2845 0.958 . S
C2831 H2846 0.961 . S
C2831 H2847 0.960 . S
H2832 C2816 0.931 . S
H2833 C2821 0.937 . S
H2834 C2822 0.960 . S
H2835 C2822 0.926 1_565 S
H2836 C2822 0.960 . S
H2837 C2823 0.961 1_565 S
H2838 C2823 0.961 1_565 S
H2839 C2823 0.961 . S
H2840 C2824 0.931 . S
H2841 C2829 0.930 . S
H2842 C2830 0.956 . S
H2843 C2830 0.961 . S
H2844 C2830 0.961 . S
H2845 C2831 0.958 . S
H2846 C2831 0.961 . S
H2847 C2831 0.960 . S
C2848 C2849 1.391 . S
C2848 C2850 1.394 1_455 S
C2848 H2864 0.931 . S
C2849 C2848 1.391 . S
C2849 C2853 1.376 1_454 S
C2850 C2848 1.394 1_655 S
C2850 C2851 1.369 . S
C2850 C2854 1.531 . S
C2851 C2850 1.369 . S
C2851 C2852 1.410 . S
C2851 C2859 1.503 . S
C2852 C2851 1.410 . S
C2852 C2853 1.392 1_554 S
C2852 C2855 1.511 1_554 S
C2853 C2849 1.376 1_656 S
C2853 C2852 1.392 1_556 S
C2853 H2865 0.929 . S
C2854 C2850 1.531 . S
C2854 H2866 0.960 . S
C2854 H2867 0.962 . S
C2854 H2868 0.960 1_655 S
C2855 C2852 1.511 1_556 S
C2855 H2869 0.961 . S
C2855 H2870 0.961 1_556 S
C2855 H2871 0.961 . S
C2856 C2857 1.370 . S
C2856 C2858 1.363 . S
C2856 H2872 0.931 . S
C2857 C2856 1.370 . S
C2857 C2861 1.408 . S
C2858 C2856 1.363 . S
C2858 C2859 1.370 . S
C2858 C2862 1.524 . S
C2859 C2851 1.503 . S
C2859 C2858 1.370 . S
C2859 C2860 1.403 . S
C2860 C2859 1.403 . S
C2860 C2861 1.404 . S
C2860 C2863 1.539 . S
C2861 C2857 1.408 . S
C2861 C2860 1.404 . S
C2861 H2873 0.930 . S
C2862 C2858 1.524 . S
C2862 H2874 0.956 . S
C2862 H2875 0.961 . S
C2862 H2876 0.961 . S
C2863 C2860 1.539 . S
C2863 H2877 0.958 . S
C2863 H2878 0.961 . S
C2863 H2879 0.960 . S
H2864 C2848 0.931 . S
H2865 C2853 0.929 . S
H2866 C2854 0.960 . S
H2867 C2854 0.962 . S
H2868 C2854 0.960 1_455 S
H2869 C2855 0.961 . S
H2870 C2855 0.961 1_554 S
H2871 C2855 0.961 . S
H2872 C2856 0.931 . S
H2873 C2861 0.930 . S
H2874 C2862 0.956 . S
H2875 C2862 0.961 . S
H2876 C2862 0.961 . S
H2877 C2863 0.958 . S
H2878 C2863 0.961 . S
H2879 C2863 0.960 . S
C2880 C2881 1.391 . S
C2880 C2882 1.394 . S
C2880 H2896 0.931 . S
C2881 C2880 1.391 . S
C2881 C2885 1.376 . S
C2882 C2880 1.394 . S
C2882 C2883 1.369 . S
C2882 C2886 1.531 . S
C2883 C2882 1.369 . S
C2883 C2884 1.410 . S
C2883 C2891 1.503 . S
C2884 C2883 1.410 . S
C2884 C2885 1.392 . S
C2884 C2887 1.511 . S
C2885 C2881 1.376 . S
C2885 C2884 1.392 . S
C2885 H2897 0.929 . S
C2886 C2882 1.531 . S
C2886 H2898 0.960 . S
C2886 H2899 0.962 . S
C2886 H2900 0.960 . S
C2887 C2884 1.511 . S
C2887 H2901 0.961 . S
C2887 H2902 0.961 . S
C2887 H2903 0.961 . S
C2888 C2889 1.370 . S
C2888 C2890 1.363 . S
C2888 H2904 0.931 . S
C2889 C2888 1.370 . S
C2889 C2893 1.408 . S
C2890 C2888 1.363 . S
C2890 C2891 1.370 . S
C2890 C2894 1.524 . S
C2891 C2883 1.503 . S
C2891 C2890 1.370 . S
C2891 C2892 1.403 . S
C2892 C2891 1.403 . S
C2892 C2893 1.404 . S
C2892 C2895 1.539 . S
C2893 C2889 1.408 . S
C2893 C2892 1.404 . S
C2893 H2905 0.930 . S
C2894 C2890 1.524 . S
C2894 H2906 0.956 . S
C2894 H2907 0.961 . S
C2894 H2908 0.961 . S
C2895 C2892 1.539 . S
C2895 H2909 0.958 . S
C2895 H2910 0.961 . S
C2895 H2911 0.960 . S
H2896 C2880 0.931 . S
H2897 C2885 0.929 . S
H2898 C2886 0.960 . S
H2899 C2886 0.962 . S
H2900 C2886 0.960 . S
H2901 C2887 0.961 . S
H2902 C2887 0.961 . S
H2903 C2887 0.961 . S
H2904 C2888 0.931 . S
H2905 C2893 0.930 . S
H2906 C2894 0.956 . S
H2907 C2894 0.961 . S
H2908 C2894 0.961 . S
H2909 C2895 0.958 . S
H2910 C2895 0.961 . S
H2911 C2895 0.960 . S
C2912 C2913 1.357 1_565 S
C2912 C2914 1.394 . S
C2912 H2928 0.931 . S
C2913 C2912 1.357 1_545 S
C2913 C2917 1.406 . S
C2914 C2912 1.394 . S
C2914 C2915 1.369 . S
C2914 C2918 1.531 . S
C2915 C2914 1.369 . S
C2915 C2916 1.410 1_565 S
C2915 C2923 1.504 . S
C2916 C2915 1.410 1_545 S
C2916 C2917 1.392 . S
C2916 C2919 1.511 . S
C2917 C2913 1.406 . S
C2917 C2916 1.392 . S
C2917 H2929 0.929 . S
C2918 C2914 1.531 . S
C2918 H2930 0.960 . S
C2918 H2931 0.962 . S
C2918 H2932 0.960 . S
C2919 C2916 1.511 . S
C2919 H2933 0.961 . S
C2919 H2934 0.961 . S
C2919 H2935 0.961 . S
C2920 C2921 1.370 1_655 S
C2920 C2922 1.363 . S
C2920 H2936 0.931 . S
C2921 C2920 1.370 1_455 S
C2921 C2925 1.408 1_545 S
C2922 C2920 1.363 . S
C2922 C2923 1.357 1_545 S
C2922 C2926 1.524 . S
C2923 C2915 1.504 . S
C2923 C2922 1.357 1_565 S
C2923 C2924 1.415 . S
C2924 C2923 1.415 . S
C2924 C2925 1.404 1_655 S
C2924 C2927 1.539 . S
C2925 C2921 1.408 1_565 S
C2925 C2924 1.404 1_455 S
C2925 H2937 0.930 . S
C2926 C2922 1.524 . S
C2926 H2938 0.956 . S
C2926 H2939 0.961 . S
C2926 H2940 0.961 . S
C2927 C2924 1.539 . S
C2927 H2941 0.958 . S
C2927 H2942 0.961 1_655 S
C2927 H2943 0.960 . S
H2928 C2912 0.931 . S
H2929 C2917 0.929 . S
H2930 C2918 0.960 . S
H2931 C2918 0.962 . S
H2932 C2918 0.960 . S
H2933 C2919 0.961 . S
H2934 C2919 0.961 . S
H2935 C2919 0.961 . S
H2936 C2920 0.931 . S
H2937 C2925 0.930 . S
H2938 C2926 0.956 . S
H2939 C2926 0.961 . S
H2940 C2926 0.961 . S
H2941 C2927 0.958 . S
H2942 C2927 0.961 1_455 S
H2943 C2927 0.960 . S
C2944 C2945 1.391 . S
C2944 C2946 1.394 . S
C2944 H2960 0.931 . S
C2945 C2944 1.391 . S
C2945 C2949 1.376 . S
C2946 C2944 1.394 . S
C2946 C2947 1.369 . S
C2946 C2950 1.531 . S
C2947 C2946 1.369 . S
C2947 C2948 1.410 . S
C2947 C2955 1.503 . S
C2948 C2947 1.410 . S
C2948 C2949 1.392 . S
C2948 C2951 1.511 . S
C2949 C2945 1.376 . S
C2949 C2948 1.392 . S
C2949 H2961 0.929 . S
C2950 C2946 1.531 . S
C2950 H2962 0.960 . S
C2950 H2963 0.962 . S
C2950 H2964 0.960 . S
C2951 C2948 1.511 . S
C2951 H2965 0.961 . S
C2951 H2966 0.961 . S
C2951 H2967 0.961 . S
C2952 C2953 1.370 . S
C2952 C2954 1.363 . S
C2952 H2968 0.931 . S
C2953 C2952 1.370 . S
C2953 C2957 1.408 . S
C2954 C2952 1.363 . S
C2954 C2955 1.370 . S
C2954 C2958 1.524 . S
C2955 C2947 1.503 . S
C2955 C2954 1.370 . S
C2955 C2956 1.403 . S
C2956 C2955 1.403 . S
C2956 C2957 1.404 . S
C2956 C2959 1.539 . S
C2957 C2953 1.408 . S
C2957 C2956 1.404 . S
C2957 H2969 0.930 . S
C2958 C2954 1.524 . S
C2958 H2970 0.956 . S
C2958 H2971 0.961 . S
C2958 H2972 0.961 . S
C2959 C2956 1.539 . S
C2959 H2973 0.958 . S
C2959 H2974 0.961 . S
C2959 H2975 0.960 . S
H2960 C2944 0.931 . S
H2961 C2949 0.929 . S
H2962 C2950 0.960 . S
H2963 C2950 0.962 . S
H2964 C2950 0.960 . S
H2965 C2951 0.961 . S
H2966 C2951 0.961 . S
H2967 C2951 0.961 . S
H2968 C2952 0.931 . S
H2969 C2957 0.930 . S
H2970 C2958 0.956 . S
H2971 C2958 0.961 . S
H2972 C2958 0.961 . S
H2973 C2959 0.958 . S
H2974 C2959 0.961 . S
H2975 C2959 0.960 . S
C2976 C2977 1.391 . S
C2976 C2978 1.394 . S
C2976 H2992 0.931 . S
C2977 C2976 1.391 . S
C2977 C2981 1.376 . S
C2978 C2976 1.394 . S
C2978 C2979 1.369 . S
C2978 C2982 1.531 . S
C2979 C2978 1.369 . S
C2979 C2980 1.410 . S
C2979 C2987 1.503 . S
C2980 C2979 1.410 . S
C2980 C2981 1.392 . S
C2980 C2983 1.511 . S
C2981 C2977 1.376 . S
C2981 C2980 1.392 . S
C2981 H2993 0.929 . S
C2982 C2978 1.531 . S
C2982 H2994 0.960 . S
C2982 H2995 0.962 . S
C2982 H2996 0.960 . S
C2983 C2980 1.511 . S
C2983 H2997 0.961 . S
C2983 H2998 0.961 . S
C2983 H2999 0.961 . S
C2984 C2985 1.370 . S
C2984 C2986 1.363 1_655 S
C2984 H3000 0.931 . S
C2985 C2984 1.370 . S
C2985 C2989 1.408 1_655 S
C2986 C2984 1.363 1_455 S
C2986 C2987 1.370 . S
C2986 C2990 1.524 . S
C2987 C2979 1.503 . S
C2987 C2986 1.370 . S
C2987 C2988 1.403 . S
C2988 C2987 1.403 . S
C2988 C2989 1.404 . S
C2988 C2991 1.539 . S
C2989 C2985 1.408 1_455 S
C2989 C2988 1.404 . S
C2989 H3001 0.930 . S
C2990 C2986 1.524 . S
C2990 H3002 0.956 . S
C2990 H3003 0.961 . S
C2990 H3004 0.961 1_455 S
C2991 C2988 1.539 . S
C2991 H3005 0.958 . S
C2991 H3006 0.961 . S
C2991 H3007 0.960 . S
H2992 C2976 0.931 . S
H2993 C2981 0.929 . S
H2994 C2982 0.960 . S
H2995 C2982 0.962 . S
H2996 C2982 0.960 . S
H2997 C2983 0.961 . S
H2998 C2983 0.961 . S
H2999 C2983 0.961 . S
H3000 C2984 0.931 . S
H3001 C2989 0.930 . S
H3002 C2990 0.956 . S
H3003 C2990 0.961 . S
H3004 C2990 0.961 1_655 S
H3005 C2991 0.958 . S
H3006 C2991 0.961 . S
H3007 C2991 0.960 . S
C3008 C3009 1.391 . S
C3008 C3010 1.394 . S
C3008 H3024 0.931 . S
C3009 C3008 1.391 . S
C3009 C3013 1.376 . S
C3010 C3008 1.394 . S
C3010 C3011 1.369 . S
C3010 C3014 1.531 . S
C3011 C3010 1.369 . S
C3011 C3012 1.410 . S
C3011 C3019 1.503 . S
C3012 C3011 1.410 . S
C3012 C3013 1.392 . S
C3012 C3015 1.511 . S
C3013 C3009 1.376 . S
C3013 C3012 1.392 . S
C3013 H3025 0.929 . S
C3014 C3010 1.531 . S
C3014 H3026 0.960 . S
C3014 H3027 0.962 . S
C3014 H3028 0.960 . S
C3015 C3012 1.511 . S
C3015 H3029 0.961 . S
C3015 H3030 0.961 . S
C3015 H3031 0.961 . S
C3016 C3017 1.370 . S
C3016 C3018 1.363 . S
C3016 H3032 0.931 . S
C3017 C3016 1.370 . S
C3017 C3021 1.408 . S
C3018 C3016 1.363 . S
C3018 C3019 1.370 . S
C3018 C3022 1.524 . S
C3019 C3011 1.503 . S
C3019 C3018 1.370 . S
C3019 C3020 1.403 . S
C3020 C3019 1.403 . S
C3020 C3021 1.404 . S
C3020 C3023 1.539 . S
C3021 C3017 1.408 . S
C3021 C3020 1.404 . S
C3021 H3033 0.930 . S
C3022 C3018 1.524 . S
C3022 H3034 0.956 . S
C3022 H3035 0.961 . S
C3022 H3036 0.961 . S
C3023 C3020 1.539 . S
C3023 H3037 0.958 . S
C3023 H3038 0.961 . S
C3023 H3039 0.960 . S
H3024 C3008 0.931 . S
H3025 C3013 0.929 . S
H3026 C3014 0.960 . S
H3027 C3014 0.962 . S
H3028 C3014 0.960 . S
H3029 C3015 0.961 . S
H3030 C3015 0.961 . S
H3031 C3015 0.961 . S
H3032 C3016 0.931 . S
H3033 C3021 0.930 . S
H3034 C3022 0.956 . S
H3035 C3022 0.961 . S
H3036 C3022 0.961 . S
H3037 C3023 0.958 . S
H3038 C3023 0.961 . S
H3039 C3023 0.960 . S
C3040 C3041 1.391 . S
C3040 C3042 1.394 . S
C3040 H3056 0.931 . S
C3041 C3040 1.391 . S
C3041 C3045 1.376 . S
C3042 C3040 1.394 . S
C3042 C3043 1.369 . S
C3042 C3046 1.531 . S
C3043 C3042 1.369 . S
C3043 C3044 1.410 . S
C3043 C3051 1.503 . S
C3044 C3043 1.410 . S
C3044 C3045 1.392 . S
C3044 C3047 1.511 . S
C3045 C3041 1.376 . S
C3045 C3044 1.392 . S
C3045 H3057 0.929 . S
C3046 C3042 1.531 . S
C3046 H3058 0.960 . S
C3046 H3059 0.962 . S
C3046 H3060 0.960 . S
C3047 C3044 1.511 . S
C3047 H3061 0.961 . S
C3047 H3062 0.961 . S
C3047 H3063 0.961 . S
C3048 C3049 1.370 . S
C3048 C3050 1.363 1_655 S
C3048 H3064 0.931 . S
C3049 C3048 1.370 . S
C3049 C3053 1.408 1_655 S
C3050 C3048 1.363 1_455 S
C3050 C3051 1.370 . S
C3050 C3054 1.524 . S
C3051 C3043 1.503 . S
C3051 C3050 1.370 . S
C3051 C3052 1.403 . S
C3052 C3051 1.403 . S
C3052 C3053 1.404 . S
C3052 C3055 1.539 . S
C3053 C3049 1.408 1_455 S
C3053 C3052 1.404 . S
C3053 H3065 0.930 1_455 S
C3054 C3050 1.524 . S
C3054 H3066 0.956 . S
C3054 H3067 0.961 . S
C3054 H3068 0.961 . S
C3055 C3052 1.539 . S
C3055 H3069 0.958 . S
C3055 H3070 0.961 . S
C3055 H3071 0.960 . S
H3056 C3040 0.931 . S
H3057 C3045 0.929 . S
H3058 C3046 0.960 . S
H3059 C3046 0.962 . S
H3060 C3046 0.960 . S
H3061 C3047 0.961 . S
H3062 C3047 0.961 . S
H3063 C3047 0.961 . S
H3064 C3048 0.931 . S
H3065 C3053 0.930 1_655 S
H3066 C3054 0.956 . S
H3067 C3054 0.961 . S
H3068 C3054 0.961 . S
H3069 C3055 0.958 . S
H3070 C3055 0.961 . S
H3071 C3055 0.960 . S
C3072 C3073 1.391 . S
C3072 C3074 1.394 . S
C3072 H3088 0.931 . S
C3073 C3072 1.391 . S
C3073 C3077 1.376 . S
C3074 C3072 1.394 . S
C3074 C3075 1.369 . S
C3074 C3078 1.531 . S
C3075 C3074 1.369 . S
C3075 C3076 1.410 . S
C3075 C3083 1.503 . S
C3076 C3075 1.410 . S
C3076 C3077 1.392 . S
C3076 C3079 1.511 . S
C3077 C3073 1.376 . S
C3077 C3076 1.392 . S
C3077 H3089 0.929 . S
C3078 C3074 1.531 . S
C3078 H3090 0.960 . S
C3078 H3091 0.962 . S
C3078 H3092 0.960 . S
C3079 C3076 1.511 . S
C3079 H3093 0.961 . S
C3079 H3094 0.961 . S
C3079 H3095 0.961 . S
C3080 C3081 1.370 . S
C3080 C3082 1.363 . S
C3080 H3096 0.931 . S
C3081 C3080 1.370 . S
C3081 C3085 1.408 . S
C3082 C3080 1.363 . S
C3082 C3083 1.370 . S
C3082 C3086 1.524 . S
C3083 C3075 1.503 . S
C3083 C3082 1.370 . S
C3083 C3084 1.403 . S
C3084 C3083 1.403 . S
C3084 C3085 1.404 . S
C3084 C3087 1.539 . S
C3085 C3081 1.408 . S
C3085 C3084 1.404 . S
C3085 H3097 0.930 . S
C3086 C3082 1.524 . S
C3086 H3098 0.956 . S
C3086 H3099 0.961 . S
C3086 H3100 0.961 . S
C3087 C3084 1.539 . S
C3087 H3101 0.958 . S
C3087 H3102 0.961 . S
C3087 H3103 0.960 . S
H3088 C3072 0.931 . S
H3089 C3077 0.929 . S
H3090 C3078 0.960 . S
H3091 C3078 0.962 . S
H3092 C3078 0.960 . S
H3093 C3079 0.961 . S
H3094 C3079 0.961 . S
H3095 C3079 0.961 . S
H3096 C3080 0.931 . S
H3097 C3085 0.930 . S
H3098 C3086 0.956 . S
H3099 C3086 0.961 . S
H3100 C3086 0.961 . S
H3101 C3087 0.958 . S
H3102 C3087 0.961 . S
H3103 C3087 0.960 . S
C3104 C3105 1.391 . S
C3104 C3106 1.394 1_455 S
C3104 H3120 0.931 . S
C3105 C3104 1.391 . S
C3105 C3109 1.376 1_455 S
C3106 C3104 1.394 1_655 S
C3106 C3107 1.369 . S
C3106 C3110 1.531 . S
C3107 C3106 1.369 . S
C3107 C3108 1.410 . S
C3107 C3115 1.503 . S
C3108 C3107 1.410 . S
C3108 C3109 1.392 . S
C3108 C3111 1.511 . S
C3109 C3105 1.376 1_655 S
C3109 C3108 1.392 . S
C3109 H3121 0.929 . S
C3110 C3106 1.531 . S
C3110 H3122 0.960 . S
C3110 H3123 0.962 . S
C3110 H3124 0.960 . S
C3111 C3108 1.511 . S
C3111 H3125 0.961 . S
C3111 H3126 0.961 . S
C3111 H3127 0.961 . S
C3112 C3113 1.370 . S
C3112 C3114 1.363 . S
C3112 H3128 0.931 . S
C3113 C3112 1.370 . S
C3113 C3117 1.408 . S
C3114 C3112 1.363 . S
C3114 C3115 1.370 . S
C3114 C3118 1.524 . S
C3115 C3107 1.503 . S
C3115 C3114 1.370 . S
C3115 C3116 1.403 . S
C3116 C3115 1.403 . S
C3116 C3117 1.404 . S
C3116 C3119 1.539 . S
C3117 C3113 1.408 . S
C3117 C3116 1.404 . S
C3117 H3129 0.930 . S
C3118 C3114 1.524 . S
C3118 H3130 0.956 . S
C3118 H3131 0.961 . S
C3118 H3132 0.961 . S
C3119 C3116 1.539 . S
C3119 H3133 0.958 . S
C3119 H3134 0.961 . S
C3119 H3135 0.960 . S
H3120 C3104 0.931 . S
H3121 C3109 0.929 . S
H3122 C3110 0.960 . S
H3123 C3110 0.962 . S
H3124 C3110 0.960 . S
H3125 C3111 0.961 . S
H3126 C3111 0.961 . S
H3127 C3111 0.961 . S
H3128 C3112 0.931 . S
H3129 C3117 0.930 . S
H3130 C3118 0.956 . S
H3131 C3118 0.961 . S
H3132 C3118 0.961 . S
H3133 C3119 0.958 . S
H3134 C3119 0.961 . S
H3135 C3119 0.960 . S
C3136 C3137 1.391 . S
C3136 C3138 1.394 . S
C3136 H3152 0.931 . S
C3137 C3136 1.391 . S
C3137 C3141 1.376 . S
C3138 C3136 1.394 . S
C3138 C3139 1.369 . S
C3138 C3142 1.531 . S
C3139 C3138 1.369 . S
C3139 C3140 1.410 . S
C3139 C3147 1.503 . S
C3140 C3139 1.410 . S
C3140 C3141 1.392 . S
C3140 C3143 1.511 . S
C3141 C3137 1.376 . S
C3141 C3140 1.392 . S
C3141 H3153 0.929 . S
C3142 C3138 1.531 . S
C3142 H3154 0.960 . S
C3142 H3155 0.962 . S
C3142 H3156 0.960 . S
C3143 C3140 1.511 . S
C3143 H3157 0.961 . S
C3143 H3158 0.961 . S
C3143 H3159 0.961 . S
C3144 C3145 1.370 . S
C3144 C3146 1.363 . S
C3144 H3160 0.931 . S
C3145 C3144 1.370 . S
C3145 C3149 1.408 . S
C3146 C3144 1.363 . S
C3146 C3147 1.370 . S
C3146 C3150 1.524 . S
C3147 C3139 1.503 . S
C3147 C3146 1.370 . S
C3147 C3148 1.403 . S
C3148 C3147 1.403 . S
C3148 C3149 1.404 . S
C3148 C3151 1.539 . S
C3149 C3145 1.408 . S
C3149 C3148 1.404 . S
C3149 H3161 0.930 . S
C3150 C3146 1.524 . S
C3150 H3162 0.956 . S
C3150 H3163 0.961 . S
C3150 H3164 0.961 . S
C3151 C3148 1.539 . S
C3151 H3165 0.958 . S
C3151 H3166 0.961 . S
C3151 H3167 0.960 . S
H3152 C3136 0.931 . S
H3153 C3141 0.929 . S
H3154 C3142 0.960 . S
H3155 C3142 0.962 . S
H3156 C3142 0.960 . S
H3157 C3143 0.961 . S
H3158 C3143 0.961 . S
H3159 C3143 0.961 . S
H3160 C3144 0.931 . S
H3161 C3149 0.930 . S
H3162 C3150 0.956 . S
H3163 C3150 0.961 . S
H3164 C3150 0.961 . S
H3165 C3151 0.958 . S
H3166 C3151 0.961 . S
H3167 C3151 0.960 . S
C3168 C3169 1.391 . S
C3168 C3170 1.394 . S
C3168 H3184 0.931 . S
C3169 C3168 1.391 . S
C3169 C3173 1.376 . S
C3170 C3168 1.394 . S
C3170 C3171 1.369 . S
C3170 C3174 1.531 . S
C3171 C3170 1.369 . S
C3171 C3172 1.410 . S
C3171 C3179 1.503 . S
C3172 C3171 1.410 . S
C3172 C3173 1.392 . S
C3172 C3175 1.511 . S
C3173 C3169 1.376 . S
C3173 C3172 1.392 . S
C3173 H3185 0.929 . S
C3174 C3170 1.531 . S
C3174 H3186 0.960 . S
C3174 H3187 0.962 . S
C3174 H3188 0.960 . S
C3175 C3172 1.511 . S
C3175 H3189 0.961 . S
C3175 H3190 0.961 . S
C3175 H3191 0.961 . S
C3176 C3177 1.370 1_655 S
C3176 C3178 1.363 . S
C3176 H3192 0.931 1_655 S
C3177 C3176 1.370 1_455 S
C3177 C3181 1.408 . S
C3178 C3176 1.363 . S
C3178 C3179 1.370 . S
C3178 C3182 1.524 . S
C3179 C3171 1.503 . S
C3179 C3178 1.370 . S
C3179 C3180 1.403 . S
C3180 C3179 1.403 . S
C3180 C3181 1.404 1_655 S
C3180 C3183 1.539 . S
C3181 C3177 1.408 . S
C3181 C3180 1.404 1_455 S
C3181 H3193 0.930 . S
C3182 C3178 1.524 . S
C3182 H3194 0.956 . S
C3182 H3195 0.961 . S
C3182 H3196 0.961 . S
C3183 C3180 1.539 . S
C3183 H3197 0.958 . S
C3183 H3198 0.961 . S
C3183 H3199 0.960 . S
H3184 C3168 0.931 . S
H3185 C3173 0.929 . S
H3186 C3174 0.960 . S
H3187 C3174 0.962 . S
H3188 C3174 0.960 . S
H3189 C3175 0.961 . S
H3190 C3175 0.961 . S
H3191 C3175 0.961 . S
H3192 C3176 0.931 1_455 S
H3193 C3181 0.930 . S
H3194 C3182 0.956 . S
H3195 C3182 0.961 . S
H3196 C3182 0.961 . S
H3197 C3183 0.958 . S
H3198 C3183 0.961 . S
H3199 C3183 0.960 . S
C3200 C3201 1.392 . S
C3200 C3202 1.394 . S
C3200 H3216 0.931 . S
C3201 C3200 1.392 . S
C3201 C3205 1.374 1_565 S
C3202 C3200 1.394 . S
C3202 C3203 1.369 1_565 S
C3202 C3206 1.531 . S
C3203 C3202 1.369 1_545 S
C3203 C3204 1.410 . S
C3203 C3211 1.503 . S
C3204 C3203 1.410 . S
C3204 C3205 1.392 . S
C3204 C3207 1.511 . S
C3205 C3201 1.374 1_545 S
C3205 C3204 1.392 . S
C3205 H3217 0.929 . S
C3206 C3202 1.531 . S
C3206 H3218 0.960 1_565 S
C3206 H3219 0.962 . S
C3206 H3220 0.962 . S
C3207 C3204 1.511 . S
C3207 H3221 0.961 . S
C3207 H3222 0.961 . S
C3207 H3223 0.961 . S
C3208 C3209 1.370 . S
C3208 C3210 1.363 . S
C3208 H3224 0.931 . S
C3209 C3208 1.370 . S
C3209 C3213 1.408 1_565 S
C3210 C3208 1.363 . S
C3210 C3211 1.370 1_565 S
C3210 C3214 1.524 . S
C3211 C3203 1.503 . S
C3211 C3210 1.370 1_545 S
C3211 C3212 1.403 . S
C3212 C3211 1.403 . S
C3212 C3213 1.404 . S
C3212 C3215 1.539 . S
C3213 C3209 1.408 1_545 S
C3213 C3212 1.404 . S
C3213 H3225 0.930 . S
C3214 C3210 1.524 . S
C3214 H3226 0.956 . S
C3214 H3227 0.961 . S
C3214 H3228 0.961 . S
C3215 C3212 1.539 . S
C3215 H3229 0.958 . S
C3215 H3230 0.961 . S
C3215 H3231 0.960 . S
H3216 C3200 0.931 . S
H3217 C3205 0.929 . S
H3218 C3206 0.960 1_545 S
H3219 C3206 0.962 . S
H3220 C3206 0.962 . S
H3221 C3207 0.961 . S
H3222 C3207 0.961 . S
H3223 C3207 0.961 . S
H3224 C3208 0.931 . S
H3225 C3213 0.930 . S
H3226 C3214 0.956 . S
H3227 C3214 0.961 . S
H3228 C3214 0.961 . S
H3229 C3215 0.958 . S
H3230 C3215 0.961 . S
H3231 C3215 0.960 . S
C3232 C3233 1.391 . S
C3232 C3234 1.394 . S
C3232 H3248 0.931 . S
C3233 C3232 1.391 . S
C3233 C3237 1.376 . S
C3234 C3232 1.394 . S
C3234 C3235 1.369 . S
C3234 C3238 1.531 . S
C3235 C3234 1.369 . S
C3235 C3236 1.410 . S
C3235 C3243 1.503 . S
C3236 C3235 1.410 . S
C3236 C3237 1.392 . S
C3236 C3239 1.511 . S
C3237 C3233 1.376 . S
C3237 C3236 1.392 . S
C3237 H3249 0.929 . S
C3238 C3234 1.531 . S
C3238 H3250 0.960 . S
C3238 H3251 0.962 . S
C3238 H3252 0.960 . S
C3239 C3236 1.511 . S
C3239 H3253 0.961 . S
C3239 H3254 0.961 . S
C3239 H3255 0.961 . S
C3240 C3241 1.370 . S
C3240 C3242 1.363 . S
C3240 H3256 0.931 . S
C3241 C3240 1.370 . S
C3241 C3245 1.408 . S
C3242 C3240 1.363 . S
C3242 C3243 1.370 . S
C3242 C3246 1.524 . S
C3243 C3235 1.503 . S
C3243 C3242 1.370 . S
C3243 C3244 1.403 . S
C3244 C3243 1.403 . S
C3244 C3245 1.404 . S
C3244 C3247 1.539 . S
C3245 C3241 1.408 . S
C3245 C3244 1.404 . S
C3245 H3257 0.930 . S
C3246 C3242 1.524 . S
C3246 H3258 0.956 . S
C3246 H3259 0.961 . S
C3246 H3260 0.961 . S
C3247 C3244 1.539 . S
C3247 H3261 0.958 . S
C3247 H3262 0.961 . S
C3247 H3263 0.960 . S
H3248 C3232 0.931 . S
H3249 C3237 0.929 . S
H3250 C3238 0.960 . S
H3251 C3238 0.962 . S
H3252 C3238 0.960 . S
H3253 C3239 0.961 . S
H3254 C3239 0.961 . S
H3255 C3239 0.961 . S
H3256 C3240 0.931 . S
H3257 C3245 0.930 . S
H3258 C3246 0.956 . S
H3259 C3246 0.961 . S
H3260 C3246 0.961 . S
H3261 C3247 0.958 . S
H3262 C3247 0.961 . S
H3263 C3247 0.960 . S
C3264 C3265 1.391 . S
C3264 C3266 1.394 . S
C3264 H3280 0.931 . S
C3265 C3264 1.391 . S
C3265 C3269 1.376 . S
C3266 C3264 1.394 . S
C3266 C3267 1.369 . S
C3266 C3270 1.531 . S
C3267 C3266 1.369 . S
C3267 C3268 1.410 . S
C3267 C3275 1.503 . S
C3268 C3267 1.410 . S
C3268 C3269 1.392 . S
C3268 C3271 1.511 . S
C3269 C3265 1.376 . S
C3269 C3268 1.392 . S
C3269 H3281 0.929 . S
C3270 C3266 1.531 . S
C3270 H3282 0.960 . S
C3270 H3283 0.962 . S
C3270 H3284 0.960 . S
C3271 C3268 1.511 . S
C3271 H3285 0.961 . S
C3271 H3286 0.961 . S
C3271 H3287 0.961 . S
C3272 C3273 1.370 . S
C3272 C3274 1.363 . S
C3272 H3288 0.931 . S
C3273 C3272 1.370 . S
C3273 C3277 1.408 . S
C3274 C3272 1.363 . S
C3274 C3275 1.370 . S
C3274 C3278 1.524 . S
C3275 C3267 1.503 . S
C3275 C3274 1.370 . S
C3275 C3276 1.403 . S
C3276 C3275 1.403 . S
C3276 C3277 1.404 . S
C3276 C3279 1.539 . S
C3277 C3273 1.408 . S
C3277 C3276 1.404 . S
C3277 H3289 0.930 . S
C3278 C3274 1.524 . S
C3278 H3290 0.956 . S
C3278 H3291 0.961 . S
C3278 H3292 0.961 . S
C3279 C3276 1.539 . S
C3279 H3293 0.958 . S
C3279 H3294 0.961 . S
C3279 H3295 0.960 . S
H3280 C3264 0.931 . S
H3281 C3269 0.929 . S
H3282 C3270 0.960 . S
H3283 C3270 0.962 . S
H3284 C3270 0.960 . S
H3285 C3271 0.961 . S
H3286 C3271 0.961 . S
H3287 C3271 0.961 . S
H3288 C3272 0.931 . S
H3289 C3277 0.930 . S
H3290 C3278 0.956 . S
H3291 C3278 0.961 . S
H3292 C3278 0.961 . S
H3293 C3279 0.958 . S
H3294 C3279 0.961 . S
H3295 C3279 0.960 . S
C3296 C3297 1.390 1_545 S
C3296 C3298 1.394 . S
C3296 H3312 0.931 . S
C3297 C3296 1.390 1_565 S
C3297 C3301 1.375 1_565 S
C3298 C3296 1.394 . S
C3298 C3299 1.369 . S
C3298 C3302 1.531 . S
C3299 C3298 1.369 . S
C3299 C3300 1.410 . S
C3299 C3307 1.503 . S
C3300 C3299 1.410 . S
C3300 C3301 1.395 . S
C3300 C3303 1.511 . S
C3301 C3297 1.375 1_545 S
C3301 C3300 1.395 . S
C3301 H3313 0.928 1_545 S
C3302 C3298 1.531 . S
C3302 H3314 0.960 . S
C3302 H3315 0.962 1_545 S
C3302 H3316 0.960 . S
C3303 C3300 1.511 . S
C3303 H3317 0.961 1_545 S
C3303 H3318 0.961 1_545 S
C3303 H3319 0.961 . S
C3304 C3305 1.370 . S
C3304 C3306 1.363 . S
C3304 H3320 0.931 . S
C3305 C3304 1.370 . S
C3305 C3309 1.408 1_565 S
C3306 C3304 1.363 . S
C3306 C3307 1.370 1_565 S
C3306 C3310 1.524 . S
C3307 C3299 1.503 . S
C3307 C3306 1.370 1_545 S
C3307 C3308 1.403 . S
C3308 C3307 1.403 . S
C3308 C3309 1.404 . S
C3308 C3311 1.539 . S
C3309 C3305 1.408 1_545 S
C3309 C3308 1.404 . S
C3309 H3321 0.930 . S
C3310 C3306 1.524 . S
C3310 H3322 0.956 . S
C3310 H3323 0.961 . S
C3310 H3324 0.961 . S
C3311 C3308 1.539 . S
C3311 H3325 0.958 . S
C3311 H3326 0.961 . S
C3311 H3327 0.960 . S
H3312 C3296 0.931 . S
H3313 C3301 0.928 1_565 S
H3314 C3302 0.960 . S
H3315 C3302 0.962 1_565 S
H3316 C3302 0.960 . S
H3317 C3303 0.961 1_565 S
H3318 C3303 0.961 1_565 S
H3319 C3303 0.961 . S
H3320 C3304 0.931 . S
H3321 C3309 0.930 . S
H3322 C3310 0.956 . S
H3323 C3310 0.961 . S
H3324 C3310 0.961 . S
H3325 C3311 0.958 . S
H3326 C3311 0.961 . S
H3327 C3311 0.960 . S
C3328 C3329 1.391 . S
C3328 C3330 1.394 . S
C3328 H3344 0.931 1_545 S
C3329 C3328 1.391 . S
C3329 C3333 1.376 . S
C3330 C3328 1.394 . S
C3330 C3331 1.369 . S
C3330 C3334 1.531 1_545 S
C3331 C3330 1.369 . S
C3331 C3332 1.410 . S
C3331 C3339 1.503 . S
C3332 C3331 1.410 . S
C3332 C3333 1.392 . S
C3332 C3335 1.511 . S
C3333 C3329 1.376 . S
C3333 C3332 1.392 . S
C3333 H3345 0.929 . S
C3334 C3330 1.531 1_565 S
C3334 H3346 0.960 1_565 S
C3334 H3347 0.962 . S
C3334 H3348 0.960 1_565 S
C3335 C3332 1.511 . S
C3335 H3349 0.961 . S
C3335 H3350 0.961 . S
C3335 H3351 0.961 . S
C3336 C3337 1.370 1_565 S
C3336 C3338 1.363 . S
C3336 H3352 0.931 . S
C3337 C3336 1.370 1_545 S
C3337 C3341 1.408 . S
C3338 C3336 1.363 . S
C3338 C3339 1.370 1_565 S
C3338 C3342 1.524 . S
C3339 C3331 1.503 . S
C3339 C3338 1.370 1_545 S
C3339 C3340 1.403 . S
C3340 C3339 1.403 . S
C3340 C3341 1.404 . S
C3340 C3343 1.539 . S
C3341 C3337 1.408 . S
C3341 C3340 1.404 . S
C3341 H3353 0.930 . S
C3342 C3338 1.524 . S
C3342 H3354 0.956 . S
C3342 H3355 0.961 . S
C3342 H3356 0.961 . S
C3343 C3340 1.539 . S
C3343 H3357 0.958 . S
C3343 H3358 0.961 . S
C3343 H3359 0.960 . S
H3344 C3328 0.931 1_565 S
H3345 C3333 0.929 . S
H3346 C3334 0.960 1_545 S
H3347 C3334 0.962 . S
H3348 C3334 0.960 1_545 S
H3349 C3335 0.961 . S
H3350 C3335 0.961 . S
H3351 C3335 0.961 . S
H3352 C3336 0.931 . S
H3353 C3341 0.930 . S
H3354 C3342 0.956 . S
H3355 C3342 0.961 . S
H3356 C3342 0.961 . S
H3357 C3343 0.958 . S
H3358 C3343 0.961 . S
H3359 C3343 0.960 . S
C3360 C3361 1.391 . S
C3360 C3362 1.394 . S
C3360 H3376 0.931 . S
C3361 C3360 1.391 . S
C3361 C3365 1.376 . S
C3362 C3360 1.394 . S
C3362 C3363 1.369 . S
C3362 C3366 1.531 . S
C3363 C3362 1.369 . S
C3363 C3364 1.410 . S
C3363 C3371 1.503 . S
C3364 C3363 1.410 . S
C3364 C3365 1.392 . S
C3364 C3367 1.511 . S
C3365 C3361 1.376 . S
C3365 C3364 1.392 . S
C3365 H3377 0.929 . S
C3366 C3362 1.531 . S
C3366 H3378 0.960 . S
C3366 H3379 0.962 . S
C3366 H3380 0.960 . S
C3367 C3364 1.511 . S
C3367 H3381 0.961 . S
C3367 H3382 0.961 . S
C3367 H3383 0.961 . S
C3368 C3369 1.370 . S
C3368 C3370 1.363 . S
C3368 H3384 0.931 . S
C3369 C3368 1.370 . S
C3369 C3373 1.408 . S
C3370 C3368 1.363 . S
C3370 C3371 1.370 . S
C3370 C3374 1.524 . S
C3371 C3363 1.503 . S
C3371 C3370 1.370 . S
C3371 C3372 1.403 . S
C3372 C3371 1.403 . S
C3372 C3373 1.404 . S
C3372 C3375 1.539 . S
C3373 C3369 1.408 . S
C3373 C3372 1.404 . S
C3373 H3385 0.930 . S
C3374 C3370 1.524 . S
C3374 H3386 0.956 . S
C3374 H3387 0.961 . S
C3374 H3388 0.961 . S
C3375 C3372 1.539 . S
C3375 H3389 0.958 . S
C3375 H3390 0.961 . S
C3375 H3391 0.960 . S
H3376 C3360 0.931 . S
H3377 C3365 0.929 . S
H3378 C3366 0.960 . S
H3379 C3366 0.962 . S
H3380 C3366 0.960 . S
H3381 C3367 0.961 . S
H3382 C3367 0.961 . S
H3383 C3367 0.961 . S
H3384 C3368 0.931 . S
H3385 C3373 0.930 . S
H3386 C3374 0.956 . S
H3387 C3374 0.961 . S
H3388 C3374 0.961 . S
H3389 C3375 0.958 . S
H3390 C3375 0.961 . S
H3391 C3375 0.960 . S
C3392 C3393 1.391 . S
C3392 C3394 1.394 . S
C3392 H3408 0.931 . S
C3393 C3392 1.391 . S
C3393 C3397 1.376 . S
C3394 C3392 1.394 . S
C3394 C3395 1.369 . S
C3394 C3398 1.531 . S
C3395 C3394 1.369 . S
C3395 C3396 1.410 . S
C3395 C3403 1.503 . S
C3396 C3395 1.410 . S
C3396 C3397 1.392 . S
C3396 C3399 1.511 . S
C3397 C3393 1.376 . S
C3397 C3396 1.392 . S
C3397 H3409 0.929 . S
C3398 C3394 1.531 . S
C3398 H3410 0.960 . S
C3398 H3411 0.962 . S
C3398 H3412 0.960 . S
C3399 C3396 1.511 . S
C3399 H3413 0.961 . S
C3399 H3414 0.961 . S
C3399 H3415 0.961 . S
C3400 C3401 1.370 . S
C3400 C3402 1.363 . S
C3400 H3416 0.931 . S
C3401 C3400 1.370 . S
C3401 C3405 1.408 . S
C3402 C3400 1.363 . S
C3402 C3403 1.370 . S
C3402 C3406 1.524 . S
C3403 C3395 1.503 . S
C3403 C3402 1.370 . S
C3403 C3404 1.403 . S
C3404 C3403 1.403 . S
C3404 C3405 1.404 . S
C3404 C3407 1.539 . S
C3405 C3401 1.408 . S
C3405 C3404 1.404 . S
C3405 H3417 0.930 . S
C3406 C3402 1.524 . S
C3406 H3418 0.956 . S
C3406 H3419 0.961 . S
C3406 H3420 0.961 . S
C3407 C3404 1.539 . S
C3407 H3421 0.958 . S
C3407 H3422 0.961 . S
C3407 H3423 0.960 . S
H3408 C3392 0.931 . S
H3409 C3397 0.929 . S
H3410 C3398 0.960 . S
H3411 C3398 0.962 . S
H3412 C3398 0.960 . S
H3413 C3399 0.961 . S
H3414 C3399 0.961 . S
H3415 C3399 0.961 . S
H3416 C3400 0.931 . S
H3417 C3405 0.930 . S
H3418 C3406 0.956 . S
H3419 C3406 0.961 . S
H3420 C3406 0.961 . S
H3421 C3407 0.958 . S
H3422 C3407 0.961 . S
H3423 C3407 0.960 . S
C3424 C3425 1.391 1_565 S
C3424 C3426 1.394 . S
C3424 H3440 0.931 . S
C3425 C3424 1.391 1_545 S
C3425 C3429 1.376 . S
C3426 C3424 1.394 . S
C3426 C3427 1.369 1_565 S
C3426 C3430 1.531 . S
C3427 C3426 1.369 1_545 S
C3427 C3428 1.410 . S
C3427 C3435 1.503 . S
C3428 C3427 1.410 . S
C3428 C3429 1.392 . S
C3428 C3431 1.511 . S
C3429 C3425 1.376 . S
C3429 C3428 1.392 . S
C3429 H3441 0.929 . S
C3430 C3426 1.531 . S
C3430 H3442 0.960 . S
C3430 H3443 0.962 . S
C3430 H3444 0.960 . S
C3431 C3428 1.511 . S
C3431 H3445 0.961 . S
C3431 H3446 0.961 . S
C3431 H3447 0.961 . S
C3432 C3433 1.370 . S
C3432 C3434 1.363 . S
C3432 H3448 0.931 1_545 S
C3433 C3432 1.370 . S
C3433 C3437 1.408 . S
C3434 C3432 1.363 . S
C3434 C3435 1.373 . S
C3434 C3438 1.523 1_545 S
C3435 C3427 1.503 . S
C3435 C3434 1.373 . S
C3435 C3436 1.403 . S
C3436 C3435 1.403 . S
C3436 C3437 1.404 . S
C3436 C3439 1.539 . S
C3437 C3433 1.408 . S
C3437 C3436 1.404 . S
C3437 H3449 0.930 . S
C3438 C3434 1.523 1_565 S
C3438 H3450 0.956 . S
C3438 H3451 0.961 1_565 S
C3438 H3452 0.962 . S
C3439 C3436 1.539 . S
C3439 H3453 0.958 1_545 S
C3439 H3454 0.961 . S
C3439 H3455 0.960 . S
H3440 C3424 0.931 . S
H3441 C3429 0.929 . S
H3442 C3430 0.960 . S
H3443 C3430 0.962 . S
H3444 C3430 0.960 . S
H3445 C3431 0.961 . S
H3446 C3431 0.961 . S
H3447 C3431 0.961 . S
H3448 C3432 0.931 1_565 S
H3449 C3437 0.930 . S
H3450 C3438 0.956 . S
H3451 C3438 0.961 1_545 S
H3452 C3438 0.962 . S
H3453 C3439 0.958 1_565 S
H3454 C3439 0.961 . S
H3455 C3439 0.960 . S
C3456 C3457 1.391 . S
C3456 C3458 1.394 . S
C3456 H3472 0.931 . S
C3457 C3456 1.391 . S
C3457 C3461 1.376 . S
C3458 C3456 1.394 . S
C3458 C3459 1.369 . S
C3458 C3462 1.531 . S
C3459 C3458 1.369 . S
C3459 C3460 1.410 . S
C3459 C3467 1.503 . S
C3460 C3459 1.410 . S
C3460 C3461 1.392 . S
C3460 C3463 1.511 . S
C3461 C3457 1.376 . S
C3461 C3460 1.392 . S
C3461 H3473 0.929 . S
C3462 C3458 1.531 . S
C3462 H3474 0.960 . S
C3462 H3475 0.962 . S
C3462 H3476 0.960 . S
C3463 C3460 1.511 . S
C3463 H3477 0.961 . S
C3463 H3478 0.961 . S
C3463 H3479 0.961 . S
C3464 C3465 1.370 . S
C3464 C3466 1.363 . S
C3464 H3480 0.931 . S
C3465 C3464 1.370 . S
C3465 C3469 1.408 . S
C3466 C3464 1.363 . S
C3466 C3467 1.370 . S
C3466 C3470 1.524 . S
C3467 C3459 1.503 . S
C3467 C3466 1.370 . S
C3467 C3468 1.403 . S
C3468 C3467 1.403 . S
C3468 C3469 1.404 . S
C3468 C3471 1.539 . S
C3469 C3465 1.408 . S
C3469 C3468 1.404 . S
C3469 H3481 0.930 1_556 S
C3470 C3466 1.524 . S
C3470 H3482 0.956 . S
C3470 H3483 0.961 . S
C3470 H3484 0.961 . S
C3471 C3468 1.539 . S
C3471 H3485 0.958 . S
C3471 H3486 0.961 . S
C3471 H3487 0.960 . S
H3472 C3456 0.931 . S
H3473 C3461 0.929 . S
H3474 C3462 0.960 . S
H3475 C3462 0.962 . S
H3476 C3462 0.960 . S
H3477 C3463 0.961 . S
H3478 C3463 0.961 . S
H3479 C3463 0.961 . S
H3480 C3464 0.931 . S
H3481 C3469 0.930 1_554 S
H3482 C3470 0.956 . S
H3483 C3470 0.961 . S
H3484 C3470 0.961 . S
H3485 C3471 0.958 . S
H3486 C3471 0.961 . S
H3487 C3471 0.960 . S
C3488 C3489 1.391 . S
C3488 C3490 1.394 . S
C3488 H3504 0.931 . S
C3489 C3488 1.391 . S
C3489 C3493 1.376 . S
C3490 C3488 1.394 . S
C3490 C3491 1.369 . S
C3490 C3494 1.531 . S
C3491 C3490 1.369 . S
C3491 C3492 1.410 . S
C3491 C3499 1.503 . S
C3492 C3491 1.410 . S
C3492 C3493 1.392 . S
C3492 C3495 1.511 . S
C3493 C3489 1.376 . S
C3493 C3492 1.392 . S
C3493 H3505 0.929 . S
C3494 C3490 1.531 . S
C3494 H3506 0.960 . S
C3494 H3507 0.962 . S
C3494 H3508 0.960 . S
C3495 C3492 1.511 . S
C3495 H3509 0.961 . S
C3495 H3510 0.961 . S
C3495 H3511 0.961 . S
C3496 C3497 1.370 . S
C3496 C3498 1.363 . S
C3496 H3512 0.931 . S
C3497 C3496 1.370 . S
C3497 C3501 1.408 1_556 S
C3498 C3496 1.363 . S
C3498 C3499 1.370 . S
C3498 C3502 1.524 . S
C3499 C3491 1.503 . S
C3499 C3498 1.370 . S
C3499 C3500 1.403 . S
C3500 C3499 1.403 . S
C3500 C3501 1.404 1_556 S
C3500 C3503 1.539 1_556 S
C3501 C3497 1.408 1_554 S
C3501 C3500 1.404 1_554 S
C3501 H3513 0.930 . S
C3502 C3498 1.524 . S
C3502 H3514 0.956 . S
C3502 H3515 0.961 . S
C3502 H3516 0.961 . S
C3503 C3500 1.539 1_554 S
C3503 H3517 0.958 1_554 S
C3503 H3518 0.961 . S
C3503 H3519 0.960 1_554 S
H3504 C3488 0.931 . S
H3505 C3493 0.929 . S
H3506 C3494 0.960 . S
H3507 C3494 0.962 . S
H3508 C3494 0.960 . S
H3509 C3495 0.961 . S
H3510 C3495 0.961 . S
H3511 C3495 0.961 . S
H3512 C3496 0.931 . S
H3513 C3501 0.930 . S
H3514 C3502 0.956 . S
H3515 C3502 0.961 . S
H3516 C3502 0.961 . S
H3517 C3503 0.958 1_556 S
H3518 C3503 0.961 . S
H3519 C3503 0.960 1_556 S
C3520 C3521 1.391 . S
C3520 C3522 1.394 . S
C3520 H3536 0.931 . S
C3521 C3520 1.391 . S
C3521 C3525 1.376 . S
C3522 C3520 1.394 . S
C3522 C3523 1.369 . S
C3522 C3526 1.531 . S
C3523 C3522 1.369 . S
C3523 C3524 1.410 . S
C3523 C3531 1.503 . S
C3524 C3523 1.410 . S
C3524 C3525 1.392 . S
C3524 C3527 1.511 . S
C3525 C3521 1.376 . S
C3525 C3524 1.392 . S
C3525 H3537 0.929 . S
C3526 C3522 1.531 . S
C3526 H3538 0.960 . S
C3526 H3539 0.962 . S
C3526 H3540 0.960 . S
C3527 C3524 1.511 . S
C3527 H3541 0.961 . S
C3527 H3542 0.961 . S
C3527 H3543 0.961 . S
C3528 C3529 1.370 . S
C3528 C3530 1.363 . S
C3528 H3544 0.931 . S
C3529 C3528 1.370 . S
C3529 C3533 1.408 . S
C3530 C3528 1.363 . S
C3530 C3531 1.370 . S
C3530 C3534 1.524 . S
C3531 C3523 1.503 . S
C3531 C3530 1.370 . S
C3531 C3532 1.403 . S
C3532 C3531 1.403 . S
C3532 C3533 1.404 . S
C3532 C3535 1.539 . S
C3533 C3529 1.408 . S
C3533 C3532 1.404 . S
C3533 H3545 0.930 . S
C3534 C3530 1.524 . S
C3534 H3546 0.956 . S
C3534 H3547 0.961 . S
C3534 H3548 0.961 . S
C3535 C3532 1.539 . S
C3535 H3549 0.958 . S
C3535 H3550 0.961 . S
C3535 H3551 0.960 . S
H3536 C3520 0.931 . S
H3537 C3525 0.929 . S
H3538 C3526 0.960 . S
H3539 C3526 0.962 . S
H3540 C3526 0.960 . S
H3541 C3527 0.961 . S
H3542 C3527 0.961 . S
H3543 C3527 0.961 . S
H3544 C3528 0.931 . S
H3545 C3533 0.930 . S
H3546 C3534 0.956 . S
H3547 C3534 0.961 . S
H3548 C3534 0.961 . S
H3549 C3535 0.958 . S
H3550 C3535 0.961 . S
H3551 C3535 0.960 . S
C3552 C3553 1.391 . S
C3552 C3554 1.394 . S
C3552 H3568 0.931 . S
C3553 C3552 1.391 . S
C3553 C3557 1.376 . S
C3554 C3552 1.394 . S
C3554 C3555 1.369 . S
C3554 C3558 1.531 . S
C3555 C3554 1.369 . S
C3555 C3556 1.410 . S
C3555 C3563 1.503 . S
C3556 C3555 1.410 . S
C3556 C3557 1.392 . S
C3556 C3559 1.511 . S
C3557 C3553 1.376 . S
C3557 C3556 1.392 . S
C3557 H3569 0.929 . S
C3558 C3554 1.531 . S
C3558 H3570 0.960 . S
C3558 H3571 0.962 . S
C3558 H3572 0.960 . S
C3559 C3556 1.511 . S
C3559 H3573 0.961 . S
C3559 H3574 0.961 . S
C3559 H3575 0.961 . S
C3560 C3561 1.370 . S
C3560 C3562 1.363 . S
C3560 H3576 0.931 . S
C3561 C3560 1.370 . S
C3561 C3565 1.408 . S
C3562 C3560 1.363 . S
C3562 C3563 1.370 . S
C3562 C3566 1.524 . S
C3563 C3555 1.503 . S
C3563 C3562 1.370 . S
C3563 C3564 1.403 . S
C3564 C3563 1.403 . S
C3564 C3565 1.404 . S
C3564 C3567 1.539 . S
C3565 C3561 1.408 . S
C3565 C3564 1.404 . S
C3565 H3577 0.930 . S
C3566 C3562 1.524 . S
C3566 H3578 0.956 . S
C3566 H3579 0.961 . S
C3566 H3580 0.961 . S
C3567 C3564 1.539 . S
C3567 H3581 0.958 . S
C3567 H3582 0.961 . S
C3567 H3583 0.960 . S
H3568 C3552 0.931 . S
H3569 C3557 0.929 . S
H3570 C3558 0.960 . S
H3571 C3558 0.962 . S
H3572 C3558 0.960 . S
H3573 C3559 0.961 . S
H3574 C3559 0.961 . S
H3575 C3559 0.961 . S
H3576 C3560 0.931 . S
H3577 C3565 0.930 . S
H3578 C3566 0.956 . S
H3579 C3566 0.961 . S
H3580 C3566 0.961 . S
H3581 C3567 0.958 . S
H3582 C3567 0.961 . S
H3583 C3567 0.960 . S
C3584 C3585 1.391 . S
C3584 C3586 1.394 . S
C3584 H3600 0.931 . S
C3585 C3584 1.391 . S
C3585 C3589 1.376 . S
C3586 C3584 1.394 . S
C3586 C3587 1.369 . S
C3586 C3590 1.531 . S
C3587 C3586 1.369 . S
C3587 C3588 1.410 . S
C3587 C3595 1.503 . S
C3588 C3587 1.410 . S
C3588 C3589 1.392 . S
C3588 C3591 1.511 . S
C3589 C3585 1.376 . S
C3589 C3588 1.392 . S
C3589 H3601 0.929 . S
C3590 C3586 1.531 . S
C3590 H3602 0.960 . S
C3590 H3603 0.962 . S
C3590 H3604 0.960 . S
C3591 C3588 1.511 . S
C3591 H3605 0.961 . S
C3591 H3606 0.961 . S
C3591 H3607 0.961 . S
C3592 C3593 1.370 . S
C3592 C3594 1.363 . S
C3592 H3608 0.931 1_554 S
C3593 C3592 1.370 . S
C3593 C3597 1.408 . S
C3594 C3592 1.363 . S
C3594 C3595 1.370 . S
C3594 C3598 1.524 . S
C3595 C3587 1.503 . S
C3595 C3594 1.370 . S
C3595 C3596 1.403 . S
C3596 C3595 1.403 . S
C3596 C3597 1.404 . S
C3596 C3599 1.539 . S
C3597 C3593 1.408 . S
C3597 C3596 1.404 . S
C3597 H3609 0.930 . S
C3598 C3594 1.524 . S
C3598 H3610 0.956 . S
C3598 H3611 0.961 . S
C3598 H3612 0.961 . S
C3599 C3596 1.539 . S
C3599 H3613 0.958 . S
C3599 H3614 0.961 . S
C3599 H3615 0.960 . S
H3600 C3584 0.931 . S
H3601 C3589 0.929 . S
H3602 C3590 0.960 . S
H3603 C3590 0.962 . S
H3604 C3590 0.960 . S
H3605 C3591 0.961 . S
H3606 C3591 0.961 . S
H3607 C3591 0.961 . S
H3608 C3592 0.931 1_556 S
H3609 C3597 0.930 . S
H3610 C3598 0.956 . S
H3611 C3598 0.961 . S
H3612 C3598 0.961 . S
H3613 C3599 0.958 . S
H3614 C3599 0.961 . S
H3615 C3599 0.960 . S
C3616 C3617 1.391 . S
C3616 C3618 1.394 . S
C3616 H3632 0.931 . S
C3617 C3616 1.391 . S
C3617 C3621 1.376 . S
C3618 C3616 1.394 . S
C3618 C3619 1.369 . S
C3618 C3622 1.531 . S
C3619 C3618 1.369 . S
C3619 C3620 1.410 . S
C3619 C3627 1.503 . S
C3620 C3619 1.410 . S
C3620 C3621 1.392 . S
C3620 C3623 1.511 . S
C3621 C3617 1.376 . S
C3621 C3620 1.392 . S
C3621 H3633 0.929 . S
C3622 C3618 1.531 . S
C3622 H3634 0.960 . S
C3622 H3635 0.962 . S
C3622 H3636 0.960 . S
C3623 C3620 1.511 . S
C3623 H3637 0.961 . S
C3623 H3638 0.961 . S
C3623 H3639 0.961 . S
C3624 C3625 1.370 . S
C3624 C3626 1.363 . S
C3624 H3640 0.931 . S
C3625 C3624 1.370 . S
C3625 C3629 1.408 . S
C3626 C3624 1.363 . S
C3626 C3627 1.370 . S
C3626 C3630 1.524 . S
C3627 C3619 1.503 . S
C3627 C3626 1.370 . S
C3627 C3628 1.403 . S
C3628 C3627 1.403 . S
C3628 C3629 1.404 . S
C3628 C3631 1.539 . S
C3629 C3625 1.408 . S
C3629 C3628 1.404 . S
C3629 H3641 0.930 . S
C3630 C3626 1.524 . S
C3630 H3642 0.956 . S
C3630 H3643 0.961 . S
C3630 H3644 0.961 . S
C3631 C3628 1.539 . S
C3631 H3645 0.958 . S
C3631 H3646 0.961 . S
C3631 H3647 0.960 . S
H3632 C3616 0.931 . S
H3633 C3621 0.929 . S
H3634 C3622 0.960 . S
H3635 C3622 0.962 . S
H3636 C3622 0.960 . S
H3637 C3623 0.961 . S
H3638 C3623 0.961 . S
H3639 C3623 0.961 . S
H3640 C3624 0.931 . S
H3641 C3629 0.930 . S
H3642 C3630 0.956 . S
H3643 C3630 0.961 . S
H3644 C3630 0.961 . S
H3645 C3631 0.958 . S
H3646 C3631 0.961 . S
H3647 C3631 0.960 . S
C3648 C3649 1.391 . S
C3648 C3650 1.394 . S
C3648 H3664 0.931 . S
C3649 C3648 1.391 . S
C3649 C3653 1.376 . S
C3650 C3648 1.394 . S
C3650 C3651 1.369 . S
C3650 C3654 1.531 . S
C3651 C3650 1.369 . S
C3651 C3652 1.410 . S
C3651 C3659 1.503 . S
C3652 C3651 1.410 . S
C3652 C3653 1.392 . S
C3652 C3655 1.511 . S
C3653 C3649 1.376 . S
C3653 C3652 1.392 . S
C3653 H3665 0.929 . S
C3654 C3650 1.531 . S
C3654 H3666 0.960 . S
C3654 H3667 0.962 . S
C3654 H3668 0.960 . S
C3655 C3652 1.511 . S
C3655 H3669 0.961 . S
C3655 H3670 0.961 . S
C3655 H3671 0.961 . S
C3656 C3657 1.370 . S
C3656 C3658 1.363 . S
C3656 H3672 0.931 . S
C3657 C3656 1.370 . S
C3657 C3661 1.408 . S
C3658 C3656 1.363 . S
C3658 C3659 1.370 . S
C3658 C3662 1.524 . S
C3659 C3651 1.503 . S
C3659 C3658 1.370 . S
C3659 C3660 1.403 . S
C3660 C3659 1.403 . S
C3660 C3661 1.404 . S
C3660 C3663 1.539 . S
C3661 C3657 1.408 . S
C3661 C3660 1.404 . S
C3661 H3673 0.930 . S
C3662 C3658 1.524 . S
C3662 H3674 0.956 . S
C3662 H3675 0.961 . S
C3662 H3676 0.961 . S
C3663 C3660 1.539 . S
C3663 H3677 0.958 . S
C3663 H3678 0.961 . S
C3663 H3679 0.960 . S
H3664 C3648 0.931 . S
H3665 C3653 0.929 . S
H3666 C3654 0.960 . S
H3667 C3654 0.962 . S
H3668 C3654 0.960 . S
H3669 C3655 0.961 . S
H3670 C3655 0.961 . S
H3671 C3655 0.961 . S
H3672 C3656 0.931 . S
H3673 C3661 0.930 . S
H3674 C3662 0.956 . S
H3675 C3662 0.961 . S
H3676 C3662 0.961 . S
H3677 C3663 0.958 . S
H3678 C3663 0.961 . S
H3679 C3663 0.960 . S
C3680 C3681 1.391 . S
C3680 C3682 1.394 . S
C3680 H3696 0.931 . S
C3681 C3680 1.391 . S
C3681 C3685 1.376 . S
C3682 C3680 1.394 . S
C3682 C3683 1.369 . S
C3682 C3686 1.531 . S
C3683 C3682 1.369 . S
C3683 C3684 1.410 . S
C3683 C3691 1.503 . S
C3684 C3683 1.410 . S
C3684 C3685 1.392 . S
C3684 C3687 1.511 . S
C3685 C3681 1.376 . S
C3685 C3684 1.392 . S
C3685 H3697 0.929 . S
C3686 C3682 1.531 . S
C3686 H3698 0.960 . S
C3686 H3699 0.962 . S
C3686 H3700 0.960 . S
C3687 C3684 1.511 . S
C3687 H3701 0.961 . S
C3687 H3702 0.961 . S
C3687 H3703 0.961 . S
C3688 C3689 1.370 . S
C3688 C3690 1.363 . S
C3688 H3704 0.931 . S
C3689 C3688 1.370 . S
C3689 C3693 1.408 . S
C3690 C3688 1.363 . S
C3690 C3691 1.370 . S
C3690 C3694 1.524 . S
C3691 C3683 1.503 . S
C3691 C3690 1.370 . S
C3691 C3692 1.403 . S
C3692 C3691 1.403 . S
C3692 C3693 1.404 . S
C3692 C3695 1.539 . S
C3693 C3689 1.408 . S
C3693 C3692 1.404 . S
C3693 H3705 0.930 . S
C3694 C3690 1.524 . S
C3694 H3706 0.956 . S
C3694 H3707 0.961 . S
C3694 H3708 0.961 . S
C3695 C3692 1.539 . S
C3695 H3709 0.958 . S
C3695 H3710 0.961 . S
C3695 H3711 0.960 . S
H3696 C3680 0.931 . S
H3697 C3685 0.929 . S
H3698 C3686 0.960 . S
H3699 C3686 0.962 . S
H3700 C3686 0.960 . S
H3701 C3687 0.961 . S
H3702 C3687 0.961 . S
H3703 C3687 0.961 . S
H3704 C3688 0.931 . S
H3705 C3693 0.930 . S
H3706 C3694 0.956 . S
H3707 C3694 0.961 . S
H3708 C3694 0.961 . S
H3709 C3695 0.958 . S
H3710 C3695 0.961 . S
H3711 C3695 0.960 . S
C641 C509 1.631 . S
C649 C9 1.650 . S
C673 C489 1.622 . S
C681 C29 1.646 . S
C705 C549 1.647 . S
C713 C49 1.642 . S
C737 C529 1.624 . S
C745 C69 1.653 . S
C769 C81 1.626 . S
C777 C581 1.659 . S
C801 C101 1.665 . S
C809 C561 1.647 . S
C833 C121 1.617 . S
C841 C621 1.643 . S
C865 C601 1.625 . S
C873 C141 1.653 . S
C897 C349 1.619 . S
C905 C169 1.643 . S
C929 C329 1.630 . S
C937 C189 1.650 . S
C961 C389 1.650 . S
C969 C209 1.653 . S
C993 C369 1.662 . S
C1001 C229 1.660 . S
C1025 C241 1.660 . S
C1033 C421 1.660 . S
C1057 C401 1.629 . S
C1065 C261 1.662 . S
C1089 C281 1.675 . S
C1097 C461 1.662 . S
C1121 C441 1.660 . S
C1129 C301 1.660 . S
C1153 C19 2.611 1_545 S
C1161 C408 2.615 1_565 S
C1185 C268 2.586 . S
C1193 C39 2.624 . S
C1217 C608 2.593 . S
C1225 C59 2.621 . S
C1249 C79 2.604 . S
C1257 C148 2.615 1_565 S
C1281 C88 2.619 1_565 S
C1289 C339 2.608 1_545 S
C1313 C108 2.634 . S
C1321 C199 2.603 . S
C1345 C128 2.630 . S
C1353 C539 2.604 . S
C1377 C568 2.586 . S
C1385 C179 2.624 . S
C1409 C448 2.614 . S
C1417 C219 2.610 . S
C1441 C308 2.624 . S
C1449 C239 2.606 . S
C1473 C499 2.602 . S
C1481 C248 2.618 . S
C1505 C288 2.632 . S
C1513 C379 2.603 . S
C1537 C588 2.584 . S
C1545 C359 2.624 . S
C1569 C399 2.611 1_545 S
C1577 C468 2.615 1_565 S
C1601 C519 2.606 . S
C1609 C428 2.613 . S
C1633 C559 2.624 . S
C1641 C628 2.606 . S
C1665 C8 2.560 1_566 S
C1673 C388 2.589 1_565 S
C1697 C28 2.577 1_556 S
C1705 C368 2.580 . S
C1729 C48 2.561 . S
C1737 C348 2.589 . S
C1761 C68 2.563 1_565 S
C1769 C328 2.587 1_565 S
C1793 C99 2.564 1_544 S
C1801 C479 2.584 1_545 S
C1825 C119 2.590 1_554 S
C1833 C459 2.577 . S
C1857 C139 2.580 . S
C1865 C439 2.577 . S
C1889 C159 2.575 . S
C1897 C419 2.579 1_545 S
C1921 C168 2.594 . S
C1929 C548 2.578 . S
C1953 C188 2.561 . S
C1961 C528 2.589 . S
C1985 C208 2.562 . S
C1993 C508 2.588 1_556 S
C2017 C228 2.591 . S
C2025 C488 2.588 1_556 S
C2049 C639 2.578 . S
C2057 C259 2.593 . S
C2081 C619 2.577 . S
C2089 C279 2.592 . S
C2113 C599 2.581 1_554 S
C2121 C299 2.577 . S
C2145 C579 2.581 1_554 S
C2153 C319 2.579 . S
C2177 C41 1.706 . S
C2185 C1 1.707 . S
C2209 C61 1.696 . S
C2217 C21 1.702 . S
C2241 C129 1.707 . S
C2249 C89 1.701 . S
C2273 C109 1.696 . S
C2281 C149 1.702 . S
C2305 C201 1.708 . S
C2313 C161 1.712 . S
C2337 C181 1.704 . S
C2345 C221 1.713 . S
C2369 C289 1.713 . S
C2377 C249 1.719 . S
C2401 C269 1.704 . S
C2409 C309 1.712 . S
C2433 C321 1.697 . S
C2441 C361 1.704 . S
C2465 C341 1.699 . S
C2473 C381 1.705 . S
C2497 C449 1.696 . S
C2505 C409 1.701 . S
C2529 C429 1.703 . S
C2537 C469 1.700 . S
C2561 C481 1.712 . S
C2569 C521 1.719 . S
C2593 C541 1.711 . S
C2601 C501 1.719 . S
C2625 C569 1.719 . S
C2633 C609 1.719 . S
C2657 C589 1.703 . S
C2665 C629 1.713 . S
C2689 C16 0.566 . S
C2697 C156 0.566 . S
C2721 C616 0.556 . S
C2729 C36 0.596 . S
C2753 C56 0.653 . S
C2761 C276 0.541 . S
C2785 C76 0.568 . S
C2793 C416 0.562 . S
C2817 C66 0.593 . S
C2825 C86 0.569 . S
C2849 C106 0.563 . S
C2857 C526 0.579 . S
C2881 C186 0.643 . S
C2889 C126 0.540 . S
C2913 C326 0.510 . S
C2921 C146 0.599 . S
C2945 C176 0.554 . S
C2953 C316 0.589 . S
C2977 C456 0.663 . S
C2985 C196 0.530 . S
C3009 C216 0.565 . S
C3017 C116 0.563 . S
C3041 C576 0.621 . S
C3049 C236 0.540 . S
C3073 C246 0.622 . S
C3081 C226 0.547 . S
C3105 C266 0.497 . S
C3113 C366 0.601 . S
C3137 C286 0.503 . S
C3145 C26 0.599 . S
C3169 C486 0.538 . S
C3177 C306 0.583 . S
C3201 C336 0.553 . S
C3209 C476 0.569 . S
C3233 C356 0.636 . S
C3241 C296 0.534 . S
C3265 C376 0.493 . S
C3273 C596 0.593 . S
C3297 C396 0.573 . S
C3305 C96 0.560 . S
C3329 C406 0.562 . S
C3337 C386 0.572 . S
C3361 C206 0.546 . S
C3369 C426 0.583 . S
C3393 C506 0.595 . S
C3401 C446 0.559 . S
C3425 C466 0.473 . S
C3433 C6 0.607 . S
C3457 C636 0.613 . S
C3465 C496 0.571 . S
C3489 C136 0.647 . S
C3497 C516 0.539 . S
C3521 C436 0.613 . S
C3529 C536 0.565 . S
C3553 C556 0.593 . S
C3561 C256 0.573 . S
C3585 C546 0.515 . S
C3593 C566 0.601 . S
C3617 C46 0.588 . S
C3625 C586 0.570 . S
C3649 C346 0.613 . S
C3657 C606 0.552 . S
C3681 C626 0.660 . S
C3689 C166 0.529 . S
