# Generated by pormake.
# Topology afw, (4)-cn, num edge types: 1
# Building blocks:
#     Node 0, Type 0, BuildingBlock: CEKHIL_clean_sbu_0, # of connection points: 4
#     Node 1, Type 0, BuildingBlock: CEKHIL_clean_sbu_0, # of connection points: 4
#     Node 2, Type 0, BuildingBlock: CEKHIL_clean_sbu_0, # of connection points: 4
#     Node 3, Type 0, BuildingBlock: CEKHIL_clean_sbu_0, # of connection points: 4
#     Node 4, Type 0, BuildingBlock: CEKHIL_clean_sbu_0, # of connection points: 4
#     Node 5, Type 0, BuildingBlock: CEKHIL_clean_sbu_0, # of connection points: 4
#     Node 6, Type 0, BuildingBlock: CEKHIL_clean_sbu_0, # of connection points: 4
#     Node 7, Type 0, BuildingBlock: CEKHIL_clean_sbu_0, # of connection points: 4
#     Node 8, Type 0, BuildingBlock: CEKHIL_clean_sbu_0, # of connection points: 4
#     Edge 9, Type (0, 0), BuildingBlock: EZIPEK_clean_linker_0, # of connection points: 2
#     Edge 10, Type (0, 0), BuildingBlock: EZIPEK_clean_linker_0, # of connection points: 2
#     Edge 11, Type (0, 0), BuildingBlock: EZIPEK_clean_linker_0, # of connection points: 2
#     Edge 12, Type (0, 0), BuildingBlock: EZIPEK_clean_linker_0, # of connection points: 2
#     Edge 13, Type (0, 0), BuildingBlock: EZIPEK_clean_linker_0, # of connection points: 2
#     Edge 14, Type (0, 0), BuildingBlock: EZIPEK_clean_linker_0, # of connection points: 2
#     Edge 15, Type (0, 0), BuildingBlock: EZIPEK_clean_linker_0, # of connection points: 2
#     Edge 16, Type (0, 0), BuildingBlock: EZIPEK_clean_linker_0, # of connection points: 2
#     Edge 17, Type (0, 0), BuildingBlock: EZIPEK_clean_linker_0, # of connection points: 2
#     Edge 18, Type (0, 0), BuildingBlock: EZIPEK_clean_linker_0, # of connection points: 2
#     Edge 19, Type (0, 0), BuildingBlock: EZIPEK_clean_linker_0, # of connection points: 2
#     Edge 20, Type (0, 0), BuildingBlock: EZIPEK_clean_linker_0, # of connection points: 2
#     Edge 21, Type (0, 0), BuildingBlock: EZIPEK_clean_linker_0, # of connection points: 2
#     Edge 22, Type (0, 0), BuildingBlock: EZIPEK_clean_linker_0, # of connection points: 2
#     Edge 23, Type (0, 0), BuildingBlock: EZIPEK_clean_linker_0, # of connection points: 2
#     Edge 24, Type (0, 0), BuildingBlock: EZIPEK_clean_linker_0, # of connection points: 2
#     Edge 25, Type (0, 0), BuildingBlock: EZIPEK_clean_linker_0, # of connection points: 2
#     Edge 26, Type (0, 0), BuildingBlock: EZIPEK_clean_linker_0, # of connection points: 2
# Relax obj value: 0.198
# Max RMSD: 0.211
# Mean RMSD: 0.201
data_MOF--net-afw--node1-CEKHIL_clean_sbu_0--edge1-EZIPEK_clean_linker_0
_symmetry_space_group_name_H-M    P1
_symmetry_Int_Tables_number       1
_symmetry_cell_setting            triclinic
loop_
_symmetry_equiv_pos_as_xyz
'x, y, z'
_cell_length_a     31.138714
_cell_length_b     31.618483
_cell_length_c     22.690523
_cell_angle_alpha  90.795349
_cell_angle_beta   90.955466
_cell_angle_gamma 119.9519
loop_
_atom_site_label
_atom_site_type_symbol
_atom_site_fract_x
_atom_site_fract_y
_atom_site_fract_z
_atom_type_partial_charge
Co0 Co 0.01971 0.21308 0.99832 0.0
O1 O 0.06813 0.27384 0.96614 0.0
O2 O 0.99074 0.22912 0.93198 0.0
C3 C 0.06722 0.17808 0.00433 0.0
O4 O 0.96067 0.1474 0.01907 0.0
Co5 Co 0.03815 0.18621 0.12446 0.0
O6 O 0.98026 0.12195 0.10179 0.0
C7 C 0.00194 0.25532 0.11145 0.0
C8 C 0.03438 0.2675 0.92708 0.0
C9 C 0.95071 0.11491 0.05832 0.0
O10 O -0.00184 0.24822 0.05513 0.0
O11 O 0.02035 0.2369 0.14657 0.0
O12 O 0.04673 0.17856 0.9543 0.0
O13 O 0.06419 0.20447 0.04634 0.0
Co14 Co 0.82636 0.80889 0.02846 0.0
O15 O 0.80531 0.74162 0.04347 0.0
O16 O 0.77273 0.78341 0.08329 0.0
C17 C 0.90814 0.83548 0.03837 0.0
O18 O 0.83933 0.87868 0.02584 0.0
Co19 Co 0.8914 0.86206 0.92127 0.0
O20 O 0.90184 0.92153 0.9648 0.0
C21 C 0.78457 0.79238 0.90355 0.0
C22 C 0.77386 0.74293 0.07919 0.0
C23 C 0.87205 0.91924 0.00416 0.0
O24 O 0.77857 0.78923 0.95954 0.0
O25 O 0.82681 0.8159 0.87947 0.0
O26 O 0.88169 0.82916 0.08456 0.0
O27 O 0.88375 0.82234 0.98866 0.0
Co28 Co 0.19653 0.99509 0.01863 0.0
O29 O 0.22383 0.95538 0.99323 0.0
O30 O 0.2352 0.02251 0.94942 0.0
C31 C 0.11934 0.93216 0.03262 0.0
O32 O 0.17238 0.04383 0.02864 0.0
Co33 Co 0.15643 0.98974 0.14328 0.0
O34 O 0.12842 0.02886 0.11112 0.0
C35 C 0.26329 0.03493 0.12725 0.0
C36 C 0.24322 0.98597 0.95087 0.0
C37 C 0.14387 0.05076 0.06288 0.0
O38 O 0.25663 0.03516 0.07125 0.0
O39 O 0.228 0.01489 0.16342 0.0
O40 O 0.13343 0.94955 0.98045 0.0
O41 O 0.15328 0.95135 0.07386 0.0
Co42 Co 0.64231 0.5284 0.34282 0.0
O43 O 0.60045 0.55268 0.37035 0.0
O44 O 0.67817 0.57986 0.40083 0.0
C45 C 0.58549 0.44773 0.34934 0.0
O46 O 0.69569 0.51076 0.32894 0.0
Co47 Co 0.61806 0.46635 0.22697 0.0
O48 O 0.66784 0.45052 0.25971 0.0
C49 C 0.66409 0.57323 0.22096 0.0
C50 C 0.63725 0.58094 0.40593 0.0
C51 C 0.69886 0.47723 0.30014 0.0
O52 O 0.66755 0.57691 0.2776 0.0
O53 O 0.64285 0.53245 0.19213 0.0
O54 O 0.61059 0.47376 0.39538 0.0
O55 O 0.59262 0.47276 0.30214 0.0
Co56 Co 0.49978 0.14594 0.37261 0.0
O57 O 0.47386 0.08052 0.39987 0.0
O58 O 0.45026 0.13233 0.43104 0.0
C59 C 0.58019 0.16481 0.37882 0.0
O60 O 0.51915 0.21644 0.35714 0.0
Co61 Co 0.56075 0.18147 0.25817 0.0
O62 O 0.57528 0.24731 0.28569 0.0
C63 C 0.45143 0.12119 0.25069 0.0
C64 C 0.44725 0.08996 0.43532 0.0
C65 C 0.54949 0.25201 0.32553 0.0
O66 O 0.44853 0.12273 0.30707 0.0
O67 O 0.49221 0.13919 0.22321 0.0
O68 O 0.55775 0.16811 0.4249 0.0
O69 O 0.55241 0.14822 0.33172 0.0
Co70 Co 0.88494 0.37756 0.35064 0.0
O71 O 0.95041 0.43137 0.36906 0.0
O72 O 0.9147 0.35961 0.41281 0.0
C73 C 0.84556 0.42098 0.34808 0.0
O74 O 0.81869 0.31449 0.34757 0.0
Co75 Co 0.8253 0.36924 0.23564 0.0
O76 O 0.76828 0.32129 0.28165 0.0
C77 C 0.90551 0.34509 0.23285 0.0
C78 C 0.9523 0.40342 0.40933 0.0
C79 C 0.77543 0.30006 0.32492 0.0
O80 O 0.9117 0.35085 0.2892 0.0
O81 O 0.87508 0.35302 0.20302 0.0
O82 O 0.85651 0.40888 0.39823 0.0
O83 O 0.86325 0.41105 0.30217 0.0
Co84 Co 0.37129 0.89351 0.68064 0.0
O85 O 0.41195 0.95704 0.64913 0.0
O86 O 0.33464 0.9051 0.61927 0.0
C87 C 0.4245 0.86524 0.67993 0.0
O88 O 0.32042 0.82378 0.7019 0.0
Co89 Co 0.40151 0.87461 0.80466 0.0
O90 O 0.3416 0.80969 0.79186 0.0
C91 C 0.35272 0.93189 0.79726 0.0
C92 C 0.37494 0.9469 0.61331 0.0
C93 C 0.31457 0.79524 0.74496 0.0
O94 O 0.3448 0.92129 0.74174 0.0
O95 O 0.37975 0.92141 0.82977 0.0
O96 O 0.40317 0.86687 0.63113 0.0
O97 O 0.42136 0.89032 0.72367 0.0
Co98 Co 0.16053 0.48159 0.69822 0.0
O99 O 0.13583 0.41257 0.70415 0.0
O100 O 0.11011 0.45453 0.75713 0.0
C101 C 0.24201 0.50368 0.70215 0.0
O102 O 0.17881 0.55309 0.70663 0.0
Co103 Co 0.22353 0.5388 0.59099 0.0
O104 O 0.23377 0.5967 0.63744 0.0
C105 C 0.11582 0.47321 0.5764 0.0
C106 C 0.10941 0.41357 0.74723 0.0
C107 C 0.20882 0.59377 0.68266 0.0
O108 O 0.11083 0.46909 0.63262 0.0
O109 O 0.15762 0.49521 0.55125 0.0
O110 O 0.21675 0.49455 0.7497 0.0
O111 O 0.21603 0.49515 0.65388 0.0
Co112 Co 0.53073 0.66406 0.66861 0.0
O113 O 0.55506 0.62395 0.63617 0.0
O114 O 0.56917 0.69455 0.60018 0.0
C115 C 0.45276 0.6013 0.68025 0.0
O116 O 0.50996 0.71424 0.6871 0.0
Co117 Co 0.49043 0.65116 0.79488 0.0
O118 O 0.46781 0.69709 0.77129 0.0
C119 C 0.59772 0.69704 0.77727 0.0
C120 C 0.5743 0.6563 0.59557 0.0
C121 C 0.48421 0.72186 0.72501 0.0
O122 O 0.59131 0.69914 0.72154 0.0
O123 O 0.56234 0.67568 0.81317 0.0
O124 O 0.46653 0.62234 0.62978 0.0
O125 O 0.48715 0.61779 0.72093 0.0
C126 C 0.08143 0.06489 0.01052 0.0
C127 C 0.12623 0.08402 0.04416 0.0
C128 C 0.13626 0.16586 0.04185 0.0
C129 C 0.08851 0.14587 0.01437 0.0
N130 N 0.01295 0.07473 0.9775 0.0
N131 N 0.19461 0.15098 0.09703 0.0
C132 C 0.06051 0.09503 0.99942 0.0
C133 C 0.15324 0.13407 0.06126 0.0
N134 N 0.0591 0.01791 0.98861 0.0
N135 N 0.16632 0.21542 0.04688 0.0
H136 H 0.20907 0.12903 0.1103 0.0
H137 H 0.21261 0.1857 0.11681 0.0
H138 H 0.15595 0.23997 0.03119 0.0
H139 H 0.20329 0.23231 0.06113 0.0
H140 H 0.02972 0.00352 0.9579 0.0
H141 H 0.07237 0.99415 0.9975 0.0
H142 H 0.98859 0.03724 0.97417 0.0
H143 H -0.00401 0.09475 0.96636 0.0
C144 C 0.88149 0.98171 0.08199 0.0
C145 C 0.87363 0.96547 0.02192 0.0
C146 C 0.88786 0.04574 0.99171 0.0
C147 C 0.90787 0.06416 0.04885 0.0
N148 N 0.89581 0.0469 0.1516 0.0
N149 N 0.8582 0.97806 0.92088 0.0
C150 C 0.89537 0.03098 0.09524 0.0
C151 C 0.87265 0.99619 0.9772 0.0
N152 N 0.87939 0.95167 0.12591 0.0
N153 N 0.88081 0.07462 0.95316 0.0
H154 H 0.84241 0.94097 0.91027 0.0
H155 H 0.86252 -0.00048 0.88464 0.0
H156 H 0.88536 0.1084 0.96623 0.0
H157 H 0.86444 0.06307 0.91135 0.0
H158 H 0.89174 0.96388 0.16905 0.0
H159 H 0.86726 0.91476 0.11926 0.0
H160 H 0.88331 0.024 0.18748 0.0
H161 H 0.90344 0.0825 0.16079 0.0
C162 C 0.99272 0.89036 0.08571 0.0
C163 C 0.96248 0.85462 0.04212 0.0
C164 C 0.03712 0.86073 0.99926 0.0
C165 C 0.06646 0.89615 0.04344 0.0
N166 N 0.06674 0.91823 0.14567 0.0
N167 N 0.95611 0.7926 0.97275 0.0
C168 C 0.04285 0.90294 0.09224 0.0
C169 C 0.98462 0.83576 0.0031 0.0
N170 N 0.97511 0.91431 0.11907 0.0
N171 N 0.0593 0.84991 0.95475 0.0
H172 H 0.91818 0.77058 0.97884 0.0
H173 H 0.97094 0.77555 0.94736 0.0
H174 H 0.0973 0.86242 0.95515 0.0
H175 H 0.04 0.82934 0.91724 0.0
H176 H -0.00205 0.943 0.14819 0.0
H177 H 0.94004 0.91 0.11242 0.0
H178 H 0.04955 0.92187 0.18293 0.0
H179 H 0.09948 0.91791 0.15464 0.0
C180 C 0.82084 0.47715 0.30106 0.0
C181 C 0.81052 0.43985 0.34207 0.0
C182 C 0.73234 0.43684 0.36471 0.0
C183 C 0.73896 0.46746 0.31678 0.0
N184 N 0.78746 0.51426 0.23557 0.0
N185 N 0.7514 0.37871 0.40689 0.0
C186 C 0.78266 0.48695 0.28379 0.0
C187 C 0.76519 0.41853 0.37288 0.0
N188 N 0.86769 0.50463 0.2805 0.0
N189 N 0.69467 0.42521 0.40271 0.0
H190 H 0.77333 0.36317 0.41441 0.0
H191 H 0.71592 0.35807 0.42332 0.0
H192 H 0.66961 0.43767 0.39793 0.0
H193 H 0.69133 0.40735 0.44208 0.0
H194 H 0.87841 0.53511 0.25466 0.0
H195 H 0.89734 0.5004 0.2947 0.0
H196 H 0.81611 0.52489 0.20601 0.0
H197 H 0.76079 0.52331 0.22275 0.0
C198 C 0.53783 0.3198 0.28631 0.0
C199 C 0.55221 0.29992 0.33356 0.0
C200 C 0.56618 0.36876 0.39764 0.0
C201 C 0.56177 0.39309 0.34786 0.0
N202 N 0.5193 0.38227 0.25468 0.0
N203 N 0.58438 0.30753 0.43313 0.0
C204 C 0.54067 0.36593 0.29462 0.0
C205 C 0.56694 0.32462 0.38921 0.0
N206 N 0.52188 0.29481 0.23346 0.0
N207 N 0.56613 0.38595 0.45316 0.0
H208 H 0.58677 0.27591 0.42848 0.0
H209 H 0.60088 0.32726 0.47213 0.0
H210 H 0.55868 0.41423 0.4608 0.0
H211 H 0.56569 0.36765 0.49117 0.0
H212 H 0.5171 0.30977 0.19506 0.0
H213 H 0.51522 0.25932 0.22697 0.0
H214 H 0.50038 0.36321 0.21633 0.0
H215 H 0.51474 0.41219 0.26384 0.0
C216 C 0.65476 0.1796 0.32323 0.0
C217 C 0.6351 0.186 0.3762 0.0
C218 C 0.71833 0.25125 0.40661 0.0
C219 C 0.73214 0.25509 0.34656 0.0
N220 N 0.717 0.21728 0.24946 0.0
N221 N 0.65217 0.21731 0.47671 0.0
C222 C 0.70156 0.21719 0.30548 0.0
C223 C 0.66822 0.21822 0.42091 0.0
N224 N 0.62957 0.13665 0.2916 0.0
N225 N 0.75289 0.27754 0.45002 0.0
H226 H 0.62066 0.18727 0.49254 0.0
H227 H 0.67099 0.24553 0.50783 0.0
H228 H 0.79018 0.30088 0.44218 0.0
H229 H 0.74583 0.27297 0.49482 0.0
H230 H 0.64367 0.12836 0.25466 0.0
H231 H 0.59747 0.10693 0.30717 0.0
H232 H 0.69369 0.19414 0.21566 0.0
H233 H 0.75283 0.24172 0.23635 0.0
C234 C 0.48527 0.84262 0.72222 0.0
C235 C 0.44145 0.82907 0.68794 0.0
C236 C 0.43027 0.74693 0.67199 0.0
C237 C 0.47023 0.75902 0.71202 0.0
N238 N 0.53293 0.81599 0.78077 0.0
N239 N 0.36711 0.76393 0.63807 0.0
C240 C 0.49682 0.80615 0.73894 0.0
C241 C 0.41279 0.78026 0.66427 0.0
N242 N 0.51724 0.89073 0.73625 0.0
N243 N 0.40869 0.70331 0.64119 0.0
H244 H 0.35101 0.7852 0.6303 0.0
H245 H 0.34221 0.72714 0.62881 0.0
H246 H 0.41802 0.67633 0.64819 0.0
H247 H 0.38415 0.69531 0.60548 0.0
H248 H 0.55204 0.90335 0.75615 0.0
H249 H 0.51142 0.91883 0.7224 0.0
H250 H 0.54979 0.84786 0.80679 0.0
H251 H 0.54351 0.79065 0.79257 0.0
C252 C 0.23487 0.72356 0.7026 0.0
C253 C 0.27944 0.74166 0.73726 0.0
C254 C 0.25611 0.65739 0.7584 0.0
C255 C 0.22058 0.64047 0.71205 0.0
N256 N 0.175 0.65729 0.63856 0.0
N257 N 0.33808 0.72123 0.7838 0.0
C258 C 0.20933 0.67352 0.68378 0.0
C259 C 0.29152 0.7075 0.76225 0.0
N260 N 0.21625 0.75331 0.68903 0.0
N261 N 0.25758 0.62553 0.797 0.0
H262 H 0.36871 0.75583 0.77933 0.0
H263 H 0.34799 0.69593 0.79795 0.0
H264 H 0.23032 0.58876 0.79624 0.0
H265 H 0.28174 0.6371 0.83369 0.0
H266 H 0.18213 0.74072 0.66727 0.0
H267 H 0.23196 0.78903 0.70562 0.0
H268 H 0.1691 0.68067 0.61206 0.0
H269 H 0.15418 0.62036 0.62627 0.0
C270 C 0.31591 0.50847 0.65248 0.0
C271 C 0.29621 0.5203 0.70223 0.0
C272 C 0.3798 0.56124 0.74706 0.0
C273 C 0.40003 0.56405 0.691 0.0
N274 N 0.38684 0.5308 0.59164 0.0
N275 N 0.31382 0.56151 0.79912 0.0
C276 C 0.36788 0.53497 0.6438 0.0
C277 C 0.32915 0.54739 0.75047 0.0
N278 N 0.28572 0.46947 0.61624 0.0
N279 N 0.40738 0.56814 0.79736 0.0
H280 H 0.27757 0.55219 0.80691 0.0
H281 H 0.33884 0.58627 0.83067 0.0
H282 H 0.44146 0.56947 0.797 0.0
H283 H 0.39269 0.56351 0.8393 0.0
H284 H 0.29878 0.45711 0.58193 0.0
H285 H 0.24879 0.44516 0.62547 0.0
H286 H 0.36518 0.51609 0.55324 0.0
H287 H 0.42431 0.54222 0.58692 0.0
C288 C 0.022 0.32436 0.85977 0.0
C289 C 0.04806 0.29982 0.87558 0.0
C290 C 0.11424 0.35064 0.8093 0.0
C291 C 0.08666 0.37269 0.7892 0.0
N292 N 0.0088 0.37206 0.78621 0.0
N293 N 0.10987 0.27852 0.84958 0.0
C294 C 0.03876 0.35698 0.81167 0.0
C295 C 0.09115 0.30934 0.84512 0.0
N296 N 0.9828 0.31839 0.89203 0.0
N297 N 0.16364 0.37087 0.79843 0.0
H298 H 0.09281 0.24655 0.8735 0.0
H299 H 0.13872 0.2817 0.82383 0.0
H300 H 0.18427 0.40373 0.77727 0.0
H301 H 0.18571 0.35819 0.81734 0.0
H302 H 0.96587 0.3394 0.88638 0.0
H303 H 0.96973 0.29518 0.92765 0.0
H304 H 0.97193 0.3583 0.79733 0.0
H305 H 0.01922 0.39453 0.7498 0.0
C306 C 0.72367 0.79678 0.83446 0.0
C307 C 0.7398 0.76809 0.86502 0.0
C308 C 0.66763 0.69314 0.82649 0.0
C309 C 0.64861 0.7217 0.80221 0.0
N310 N 0.65535 0.80004 0.78624 0.0
N311 N 0.72724 0.68946 0.89319 0.0
C312 C 0.67605 0.77341 0.80627 0.0
C313 C 0.71186 0.71634 0.86177 0.0
N314 N 0.75363 0.84635 0.83293 0.0
N315 N 0.64398 0.64401 0.81427 0.0
H316 H 0.76105 0.70502 0.91654 0.0
H317 H 0.70547 0.65201 0.89875 0.0
H318 H 0.61172 0.62608 0.78793 0.0
H319 H 0.65838 0.6217 0.8257 0.0
H320 H 0.74659 0.86862 0.80585 0.0
H321 H 0.78757 0.86522 0.85575 0.0
H322 H 0.67066 0.83735 0.79445 0.0
H323 H 0.62082 0.78436 0.76456 0.0
C324 C 0.27163 0.91916 0.83285 0.0
C325 C 0.32353 0.95043 0.82747 0.0
C326 C 0.32246 0.0082 0.89975 0.0
C327 C 0.27052 0.97722 0.90421 0.0
N328 N 0.19385 0.91085 0.86407 0.0
N329 N 0.39643 0.02897 0.8447 0.0
C330 C 0.24453 0.93515 0.86711 0.0
C331 C 0.34834 0.99647 0.85739 0.0
N332 N 0.24863 0.87295 0.80851 0.0
N333 N 0.34733 0.04729 0.93789 0.0
H334 H 0.41596 0.02124 0.81347 0.0
H335 H 0.41536 0.06487 0.86089 0.0
H336 H 0.32948 0.05718 0.96908 0.0
H337 H 0.38583 0.068 0.94134 0.0
H338 H 0.21226 0.84666 0.81724 0.0
H339 H 0.26681 0.85922 0.78333 0.0
H340 H 0.1729 0.88286 0.83338 0.0
H341 H 0.17283 0.92194 0.88824 0.0
C342 C 0.37858 0.12646 0.21367 0.0
C343 C 0.40508 0.10076 0.21522 0.0
C344 C 0.34364 0.03765 0.14777 0.0
C345 C 0.31421 0.0602 0.15218 0.0
N346 N 0.3015 0.12468 0.18996 0.0
N347 N 0.4122 0.0305 0.18857 0.0
C348 C 0.33117 0.10436 0.18517 0.0
C349 C 0.38777 0.0562 0.18302 0.0
N350 N 0.39954 0.17265 0.23783 0.0
N351 N 0.32926 0.99845 0.1101 0.0
H352 H 0.4447 0.04305 0.21402 0.0
H353 H 0.39855 0.99519 0.17165 0.0
H354 H 0.29621 0.98273 0.08524 0.0
H355 H 0.35165 0.9837 0.10002 0.0
H356 H 0.3847 0.19549 0.23251 0.0
H357 H 0.43412 0.18996 0.25952 0.0
H358 H 0.30878 0.15326 0.21923 0.0
H359 H 0.26793 0.11129 0.16653 0.0
C360 C 0.00675 0.32819 0.16356 0.0
C361 C 0.97772 0.2805 0.13843 0.0
C362 C 0.90259 0.2743 0.17942 0.0
C363 C 0.93096 0.32317 0.20111 0.0
N364 N 0.00837 0.39909 0.20898 0.0
N365 N 0.89757 0.21006 0.11529 0.0
C366 C 0.98269 0.35085 0.19197 0.0
C367 C 0.92544 0.25428 0.14389 0.0
N368 N 0.05728 0.35138 0.16086 0.0
N369 N 0.85438 0.24615 0.19557 0.0
H370 H 0.91282 0.19261 0.09136 0.0
H371 H 0.85903 0.19207 0.11164 0.0
H372 H 0.83658 0.25922 0.22259 0.0
H373 H 0.83327 0.20873 0.18691 0.0
H374 H 0.08103 0.38374 0.18386 0.0
H375 H 0.07579 0.33678 0.13776 0.0
H376 H 0.04503 0.42279 0.19836 0.0
H377 H 0.99191 0.41648 0.23062 0.0
C378 C 0.66518 0.63307 0.14816 0.0
C379 C 0.69121 0.61843 0.18714 0.0
C380 C 0.76984 0.69 0.16181 0.0
C381 C 0.74456 0.70156 0.11805 0.0
N382 N 0.66914 0.68198 0.06455 0.0
N383 N 0.76903 0.62818 0.22398 0.0
C384 C 0.69238 0.67269 0.11 0.0
C385 C 0.74374 0.64572 0.19229 0.0
N386 N 0.61458 0.60991 0.14883 0.0
N387 N 0.81861 0.7221 0.17557 0.0
H388 H 0.75166 0.59574 0.24694 0.0
H389 H 0.80739 0.64348 0.22326 0.0
H390 H 0.83903 0.75523 0.15466 0.0
H391 H 0.83746 0.7182 0.21154 0.0
H392 H 0.59357 0.62187 0.12585 0.0
H393 H 0.59369 0.58092 0.17641 0.0
H394 H 0.63208 0.65906 0.05224 0.0
H395 H 0.68791 0.71095 0.03621 0.0
C396 C 0.04387 0.4776 0.53332 0.0
C397 C 0.0712 0.45289 0.53771 0.0
C398 C 0.02345 0.3987 0.4544 0.0
C399 C 0.99408 0.4214 0.45234 0.0
N400 N 0.96973 0.47604 0.49625 0.0
N401 N 0.08227 0.3851 0.5105 0.0
C402 C 0.00244 0.45915 0.49354 0.0
C403 C 0.05953 0.41192 0.5006 0.0
N404 N 0.05859 0.51971 0.56559 0.0
N405 N 0.01821 0.366 0.41082 0.0
H406 H 0.10877 0.3938 0.54424 0.0
H407 H 0.07186 0.35197 0.4889 0.0
H408 H 0.99252 0.35588 0.37585 0.0
H409 H 0.04205 0.35205 0.40637 0.0
H410 H 0.04401 0.54265 0.55892 0.0
H411 H 0.08795 0.53369 0.59644 0.0
H412 H 0.97073 0.49942 0.52969 0.0
H413 H 0.9389 0.4636 0.46789 0.0
C414 C 0.64323 0.60619 0.51314 0.0
C415 C 0.63061 0.60959 0.45351 0.0
C416 C 0.58498 0.6497 0.48624 0.0
C417 C 0.5994 0.64805 0.54556 0.0
N418 N 0.6557 0.64 0.6124 0.0
N419 N 0.60327 0.6482 0.38315 0.0
C420 C 0.63322 0.63154 0.55787 0.0
C421 C 0.60611 0.63599 0.44003 0.0
N422 N 0.66087 0.57584 0.52823 0.0
N423 N 0.54867 0.66076 0.47373 0.0
H424 H 0.61962 0.6398 0.34853 0.0
H425 H 0.58961 0.67116 0.37161 0.0
H426 H 0.53056 0.66938 0.50577 0.0
H427 H 0.53326 0.65697 0.43152 0.0
H428 H 0.66543 0.56861 0.57185 0.0
H429 H 0.66602 0.55375 0.49813 0.0
H430 H 0.68398 0.63243 0.62209 0.0
H431 H 0.64997 0.6596 0.64575 0.0
C432 C 0.37335 0.96798 0.50641 0.0
C433 C 0.38038 0.98194 0.56716 0.0
C434 C 0.42467 0.06824 0.54156 0.0
C435 C 0.41757 0.05438 0.48072 0.0
N436 N 0.37164 0.99236 0.4059 0.0
N437 N 0.39718 0.04402 0.64107 0.0
C438 C 0.38724 0.00458 0.46344 0.0
C439 C 0.40072 0.03173 0.58411 0.0
N440 N 0.35691 0.92061 0.48931 0.0
N441 N 0.45716 0.11531 0.55943 0.0
H442 H 0.37897 0.01783 0.67291 0.0
H443 H 0.40736 0.07945 0.65488 0.0
H444 H 0.47707 0.14341 0.53057 0.0
H445 H 0.46776 0.12569 0.60344 0.0
H446 H 0.35693 0.90984 0.44571 0.0
H447 H 0.34682 0.89246 0.5188 0.0
H448 H 0.34584 0.957 0.39158 0.0
H449 H 0.38044 0.01856 0.37376 0.0
loop_
_geom_bond_atom_site_label_1
_geom_bond_atom_site_label_2
_geom_bond_distance
_geom_bond_site_symmetry_2
_ccdc_geom_bond_type
Co0 O1 2.215 1_554 S
Co0 O2 2.087 1_554 S
Co0 O4 2.004 1_454 S
Co0 O10 2.024 1_455 S
Co0 O12 2.136 1_554 S
Co0 O13 2.248 . S
O1 Co0 2.215 1_556 S
O1 C8 1.247 . S
O2 Co0 2.087 1_556 S
O2 C8 1.261 . S
C3 O12 1.247 1_554 S
C3 O13 1.272 . S
O4 Co0 2.004 1_656 S
O4 C9 1.259 1_556 S
Co5 O6 2.061 1_455 S
Co5 O11 2.052 . S
Co5 O13 2.135 . S
O6 Co5 2.061 1_655 S
O6 C9 1.235 . S
C7 O10 1.238 . S
C7 O11 1.241 1_655 S
C8 O1 1.247 . S
C8 O2 1.261 . S
C9 O4 1.259 1_554 S
C9 O6 1.235 . S
O10 Co0 2.024 1_655 S
O10 C7 1.238 . S
O11 Co5 2.052 . S
O11 C7 1.241 1_455 S
O12 Co0 2.136 1_556 S
O12 C3 1.247 1_556 S
O13 Co0 2.248 . S
O13 C3 1.272 . S
O13 Co5 2.135 . S
Co14 O15 2.216 . S
Co14 O16 2.091 . S
Co14 O18 2.004 . S
Co14 O24 2.021 1_554 S
Co14 O26 2.137 . S
Co14 O27 2.244 1_554 S
O15 Co14 2.216 . S
O15 C22 1.247 . S
O16 Co14 2.091 . S
O16 C22 1.261 . S
C17 O26 1.247 . S
C17 O27 1.272 1_554 S
O18 Co14 2.004 . S
O18 C23 1.259 . S
Co19 O20 2.061 . S
Co19 O25 2.052 . S
Co19 O27 2.135 . S
O20 Co19 2.061 . S
O20 C23 1.235 1_556 S
C21 O24 1.238 . S
C21 O25 1.241 . S
C22 O15 1.247 . S
C22 O16 1.261 . S
C23 O18 1.259 . S
C23 O20 1.235 1_554 S
O24 Co14 2.021 1_556 S
O24 C21 1.238 . S
O25 Co19 2.052 . S
O25 C21 1.241 . S
O26 Co14 2.137 . S
O26 C17 1.247 . S
O27 Co14 2.244 1_556 S
O27 C17 1.272 1_556 S
O27 Co19 2.135 . S
Co28 O29 2.216 1_545 S
Co28 O30 2.091 . S
Co28 O32 2.004 . S
Co28 O38 2.021 1_556 S
Co28 O40 2.137 1_545 S
Co28 O41 2.244 1_546 S
O29 Co28 2.216 1_565 S
O29 C36 1.247 . S
O30 Co28 2.091 . S
O30 C36 1.261 1_545 S
C31 O40 1.247 1_554 S
C31 O41 1.272 . S
O32 Co28 2.004 . S
O32 C37 1.259 1_556 S
Co33 O34 2.061 . S
Co33 O39 2.052 . S
Co33 O41 2.135 1_545 S
O34 Co33 2.061 . S
O34 C37 1.235 . S
C35 O38 1.238 . S
C35 O39 1.241 . S
C36 O29 1.247 . S
C36 O30 1.261 1_565 S
C37 O32 1.259 1_554 S
C37 O34 1.235 . S
O38 Co28 2.021 1_554 S
O38 C35 1.238 . S
O39 Co33 2.052 . S
O39 C35 1.241 . S
O40 Co28 2.137 1_565 S
O40 C31 1.247 1_556 S
O41 Co28 2.244 1_564 S
O41 C31 1.272 . S
O41 Co33 2.135 1_565 S
Co42 O43 2.216 . S
Co42 O44 2.091 . S
Co42 O46 2.004 . S
Co42 O52 2.021 . S
Co42 O54 2.137 . S
Co42 O55 2.244 . S
O43 Co42 2.216 . S
O43 C50 1.247 . S
O44 Co42 2.091 . S
O44 C50 1.261 . S
C45 O54 1.247 . S
C45 O55 1.272 . S
O46 Co42 2.004 . S
O46 C51 1.259 . S
Co47 O48 2.061 . S
Co47 O53 2.052 . S
Co47 O55 2.135 . S
O48 Co47 2.061 . S
O48 C51 1.235 . S
C49 O52 1.238 . S
C49 O53 1.241 . S
C50 O43 1.247 . S
C50 O44 1.261 . S
C51 O46 1.259 . S
C51 O48 1.235 . S
O52 Co42 2.021 . S
O52 C49 1.238 . S
O53 Co47 2.052 . S
O53 C49 1.241 . S
O54 Co42 2.137 . S
O54 C45 1.247 . S
O55 Co42 2.244 . S
O55 C45 1.272 . S
O55 Co47 2.135 . S
Co56 O57 2.216 . S
Co56 O58 2.091 . S
Co56 O60 2.004 . S
Co56 O66 2.021 . S
Co56 O68 2.137 . S
Co56 O69 2.244 . S
O57 Co56 2.216 . S
O57 C64 1.247 . S
O58 Co56 2.091 . S
O58 C64 1.261 . S
C59 O68 1.247 . S
C59 O69 1.272 . S
O60 Co56 2.004 . S
O60 C65 1.259 . S
Co61 O62 2.061 . S
Co61 O67 2.052 . S
Co61 O69 2.135 . S
O62 Co61 2.061 . S
O62 C65 1.235 . S
C63 O66 1.238 . S
C63 O67 1.241 . S
C64 O57 1.247 . S
C64 O58 1.261 . S
C65 O60 1.259 . S
C65 O62 1.235 . S
O66 Co56 2.021 . S
O66 C63 1.238 . S
O67 Co61 2.052 . S
O67 C63 1.241 . S
O68 Co56 2.137 . S
O68 C59 1.247 . S
O69 Co56 2.244 . S
O69 C59 1.272 . S
O69 Co61 2.135 . S
Co70 O71 2.216 . S
Co70 O72 2.091 . S
Co70 O74 2.004 . S
Co70 O80 2.021 . S
Co70 O82 2.137 . S
Co70 O83 2.244 . S
O71 Co70 2.216 . S
O71 C78 1.247 . S
O72 Co70 2.091 . S
O72 C78 1.261 . S
C73 O82 1.247 . S
C73 O83 1.272 . S
O74 Co70 2.004 . S
O74 C79 1.259 . S
Co75 O76 2.061 . S
Co75 O81 2.052 . S
Co75 O83 2.135 . S
O76 Co75 2.061 . S
O76 C79 1.235 . S
C77 O80 1.238 . S
C77 O81 1.241 . S
C78 O71 1.247 . S
C78 O72 1.261 . S
C79 O74 1.259 . S
C79 O76 1.235 . S
O80 Co70 2.021 . S
O80 C77 1.238 . S
O81 Co75 2.052 . S
O81 C77 1.241 . S
O82 Co70 2.137 . S
O82 C73 1.247 . S
O83 Co70 2.244 . S
O83 C73 1.272 . S
O83 Co75 2.135 . S
Co84 O85 2.216 . S
Co84 O86 2.091 . S
Co84 O88 2.004 . S
Co84 O94 2.021 . S
Co84 O96 2.137 . S
Co84 O97 2.244 . S
O85 Co84 2.216 . S
O85 C92 1.247 . S
O86 Co84 2.091 . S
O86 C92 1.261 . S
C87 O96 1.247 . S
C87 O97 1.272 . S
O88 Co84 2.004 . S
O88 C93 1.259 . S
Co89 O90 2.061 . S
Co89 O95 2.052 . S
Co89 O97 2.135 . S
O90 Co89 2.061 . S
O90 C93 1.235 . S
C91 O94 1.238 . S
C91 O95 1.241 . S
C92 O85 1.247 . S
C92 O86 1.261 . S
C93 O88 1.259 . S
C93 O90 1.235 . S
O94 Co84 2.021 . S
O94 C91 1.238 . S
O95 Co89 2.052 . S
O95 C91 1.241 . S
O96 Co84 2.137 . S
O96 C87 1.247 . S
O97 Co84 2.244 . S
O97 C87 1.272 . S
O97 Co89 2.135 . S
Co98 O99 2.216 . S
Co98 O100 2.091 . S
Co98 O102 2.004 . S
Co98 O108 2.021 . S
Co98 O110 2.137 . S
Co98 O111 2.244 . S
O99 Co98 2.216 . S
O99 C106 1.247 . S
O100 Co98 2.091 . S
O100 C106 1.261 . S
C101 O110 1.247 . S
C101 O111 1.272 . S
O102 Co98 2.004 . S
O102 C107 1.259 . S
Co103 O104 2.061 . S
Co103 O109 2.052 . S
Co103 O111 2.135 . S
O104 Co103 2.061 . S
O104 C107 1.235 . S
C105 O108 1.238 . S
C105 O109 1.241 . S
C106 O99 1.247 . S
C106 O100 1.261 . S
C107 O102 1.259 . S
C107 O104 1.235 . S
O108 Co98 2.021 . S
O108 C105 1.238 . S
O109 Co103 2.052 . S
O109 C105 1.241 . S
O110 Co98 2.137 . S
O110 C101 1.247 . S
O111 Co98 2.244 . S
O111 C101 1.272 . S
O111 Co103 2.135 . S
Co112 O113 2.216 . S
Co112 O114 2.091 . S
Co112 O116 2.004 . S
Co112 O122 2.021 . S
Co112 O124 2.137 . S
Co112 O125 2.244 . S
O113 Co112 2.216 . S
O113 C120 1.247 . S
O114 Co112 2.091 . S
O114 C120 1.261 . S
C115 O124 1.247 . S
C115 O125 1.272 . S
O116 Co112 2.004 . S
O116 C121 1.259 . S
Co117 O118 2.061 . S
Co117 O123 2.052 . S
Co117 O125 2.135 . S
O118 Co117 2.061 . S
O118 C121 1.235 . S
C119 O122 1.238 . S
C119 O123 1.241 . S
C120 O113 1.247 . S
C120 O114 1.261 . S
C121 O116 1.259 . S
C121 O118 1.235 . S
O122 Co112 2.021 . S
O122 C119 1.238 . S
O123 Co117 2.052 . S
O123 C119 1.241 . S
O124 Co112 2.137 . S
O124 C115 1.247 . S
O125 Co112 2.244 . S
O125 C115 1.272 . S
O125 Co117 2.135 . S
C126 C127 1.363 . S
C126 C132 1.379 . S
C126 N134 1.356 . S
C127 C126 1.363 . S
C127 C133 1.363 1_554 S
C128 C129 1.363 1_556 S
C128 C133 1.379 . S
C128 N135 1.356 . S
C129 C128 1.363 1_554 S
C129 C132 1.363 . S
N130 C132 1.356 . S
N130 H142 0.984 . S
N130 H143 0.985 . S
N131 C133 1.356 . S
N131 H136 0.984 . S
N131 H137 0.985 . S
C132 C126 1.379 . S
C132 C129 1.363 . S
C132 N130 1.356 . S
C133 C127 1.363 1_556 S
C133 C128 1.379 . S
C133 N131 1.356 . S
N134 C126 1.356 . S
N134 H140 0.984 . S
N134 H141 0.984 . S
N135 C128 1.356 . S
N135 H138 0.984 . S
N135 H139 0.985 . S
H136 N131 0.984 . S
H137 N131 0.985 . S
H138 N135 0.984 . S
H139 N135 0.985 . S
H140 N134 0.984 . S
H141 N134 0.984 . S
H142 N130 0.984 . S
H143 N130 0.985 . S
C144 C145 1.363 . S
C144 C150 1.379 1_565 S
C144 N152 1.356 . S
C145 C144 1.363 . S
C145 C151 1.363 1_554 S
C146 C147 1.363 1_556 S
C146 C151 1.379 1_545 S
C146 N153 1.356 . S
C147 C146 1.363 1_554 S
C147 C150 1.363 . S
N148 C150 1.356 . S
N148 H160 0.984 . S
N148 H161 0.985 . S
N149 C151 1.356 . S
N149 H154 0.984 . S
N149 H155 0.985 . S
C150 C144 1.379 1_545 S
C150 C147 1.363 . S
C150 N148 1.356 . S
C151 C145 1.363 1_556 S
C151 C146 1.379 1_565 S
C151 N149 1.356 . S
N152 C144 1.356 . S
N152 H158 0.984 . S
N152 H159 0.984 . S
N153 C146 1.356 . S
N153 H156 0.984 . S
N153 H157 0.985 . S
H154 N149 0.984 . S
H155 N149 0.985 . S
H156 N153 0.984 . S
H157 N153 0.985 . S
H158 N152 0.984 . S
H159 N152 0.984 . S
H160 N148 0.984 . S
H161 N148 0.985 . S
C162 C163 1.363 . S
C162 C168 1.379 1_655 S
C162 N170 1.356 . S
C163 C162 1.363 . S
C163 C169 1.363 1_554 S
C164 C165 1.363 1_556 S
C164 C169 1.379 1_455 S
C164 N171 1.356 . S
C165 C164 1.363 1_554 S
C165 C168 1.363 . S
N166 C168 1.356 . S
N166 H178 0.984 . S
N166 H179 0.985 . S
N167 C169 1.356 . S
N167 H172 0.984 . S
N167 H173 0.985 . S
C168 C162 1.379 1_455 S
C168 C165 1.363 . S
C168 N166 1.356 . S
C169 C163 1.363 1_556 S
C169 C164 1.379 1_655 S
C169 N167 1.356 . S
N170 C162 1.356 . S
N170 H176 0.984 . S
N170 H177 0.984 . S
N171 C164 1.356 . S
N171 H174 0.984 . S
N171 H175 0.985 . S
H172 N167 0.984 . S
H173 N167 0.985 . S
H174 N171 0.984 . S
H175 N171 0.985 . S
H176 N170 0.984 . S
H177 N170 0.984 . S
H178 N166 0.984 . S
H179 N166 0.985 . S
C180 C181 1.363 . S
C180 C186 1.379 . S
C180 N188 1.356 . S
C181 C180 1.363 . S
C181 C187 1.363 . S
C182 C183 1.363 . S
C182 C187 1.379 . S
C182 N189 1.356 . S
C183 C182 1.363 . S
C183 C186 1.363 . S
N184 C186 1.356 . S
N184 H196 0.984 . S
N184 H197 0.985 . S
N185 C187 1.356 . S
N185 H190 0.984 . S
N185 H191 0.985 . S
C186 C180 1.379 . S
C186 C183 1.363 . S
C186 N184 1.356 . S
C187 C181 1.363 . S
C187 C182 1.379 . S
C187 N185 1.356 . S
N188 C180 1.356 . S
N188 H194 0.984 . S
N188 H195 0.984 . S
N189 C182 1.356 . S
N189 H192 0.984 . S
N189 H193 0.985 . S
H190 N185 0.984 . S
H191 N185 0.985 . S
H192 N189 0.984 . S
H193 N189 0.985 . S
H194 N188 0.984 . S
H195 N188 0.984 . S
H196 N184 0.984 . S
H197 N184 0.985 . S
C198 C199 1.363 . S
C198 C204 1.379 . S
C198 N206 1.356 . S
C199 C198 1.363 . S
C199 C205 1.363 . S
C200 C201 1.363 . S
C200 C205 1.379 . S
C200 N207 1.356 . S
C201 C200 1.363 . S
C201 C204 1.363 . S
N202 C204 1.356 . S
N202 H214 0.984 . S
N202 H215 0.985 . S
N203 C205 1.356 . S
N203 H208 0.984 . S
N203 H209 0.985 . S
C204 C198 1.379 . S
C204 C201 1.363 . S
C204 N202 1.356 . S
C205 C199 1.363 . S
C205 C200 1.379 . S
C205 N203 1.356 . S
N206 C198 1.356 . S
N206 H212 0.984 . S
N206 H213 0.984 . S
N207 C200 1.356 . S
N207 H210 0.984 . S
N207 H211 0.985 . S
H208 N203 0.984 . S
H209 N203 0.985 . S
H210 N207 0.984 . S
H211 N207 0.985 . S
H212 N206 0.984 . S
H213 N206 0.984 . S
H214 N202 0.984 . S
H215 N202 0.985 . S
C216 C217 1.363 . S
C216 C222 1.379 . S
C216 N224 1.356 . S
C217 C216 1.363 . S
C217 C223 1.363 . S
C218 C219 1.363 . S
C218 C223 1.379 . S
C218 N225 1.356 . S
C219 C218 1.363 . S
C219 C222 1.363 . S
N220 C222 1.356 . S
N220 H232 0.984 . S
N220 H233 0.985 . S
N221 C223 1.356 . S
N221 H226 0.984 . S
N221 H227 0.985 . S
C222 C216 1.379 . S
C222 C219 1.363 . S
C222 N220 1.356 . S
C223 C217 1.363 . S
C223 C218 1.379 . S
C223 N221 1.356 . S
N224 C216 1.356 . S
N224 H230 0.984 . S
N224 H231 0.984 . S
N225 C218 1.356 . S
N225 H228 0.984 . S
N225 H229 0.985 . S
H226 N221 0.984 . S
H227 N221 0.985 . S
H228 N225 0.984 . S
H229 N225 0.985 . S
H230 N224 0.984 . S
H231 N224 0.984 . S
H232 N220 0.984 . S
H233 N220 0.985 . S
C234 C235 1.363 . S
C234 C240 1.379 . S
C234 N242 1.356 . S
C235 C234 1.363 . S
C235 C241 1.363 . S
C236 C237 1.363 . S
C236 C241 1.379 . S
C236 N243 1.356 . S
C237 C236 1.363 . S
C237 C240 1.363 . S
N238 C240 1.356 . S
N238 H250 0.984 . S
N238 H251 0.985 . S
N239 C241 1.356 . S
N239 H244 0.984 . S
N239 H245 0.985 . S
C240 C234 1.379 . S
C240 C237 1.363 . S
C240 N238 1.356 . S
C241 C235 1.363 . S
C241 C236 1.379 . S
C241 N239 1.356 . S
N242 C234 1.356 . S
N242 H248 0.984 . S
N242 H249 0.984 . S
N243 C236 1.356 . S
N243 H246 0.984 . S
N243 H247 0.985 . S
H244 N239 0.984 . S
H245 N239 0.985 . S
H246 N243 0.984 . S
H247 N243 0.985 . S
H248 N242 0.984 . S
H249 N242 0.984 . S
H250 N238 0.984 . S
H251 N238 0.985 . S
C252 C253 1.363 . S
C252 C258 1.379 . S
C252 N260 1.356 . S
C253 C252 1.363 . S
C253 C259 1.363 . S
C254 C255 1.363 . S
C254 C259 1.379 . S
C254 N261 1.356 . S
C255 C254 1.363 . S
C255 C258 1.363 . S
N256 C258 1.356 . S
N256 H268 0.984 . S
N256 H269 0.985 . S
N257 C259 1.356 . S
N257 H262 0.984 . S
N257 H263 0.985 . S
C258 C252 1.379 . S
C258 C255 1.363 . S
C258 N256 1.356 . S
C259 C253 1.363 . S
C259 C254 1.379 . S
C259 N257 1.356 . S
N260 C252 1.356 . S
N260 H266 0.984 . S
N260 H267 0.984 . S
N261 C254 1.356 . S
N261 H264 0.984 . S
N261 H265 0.985 . S
H262 N257 0.984 . S
H263 N257 0.985 . S
H264 N261 0.984 . S
H265 N261 0.985 . S
H266 N260 0.984 . S
H267 N260 0.984 . S
H268 N256 0.984 . S
H269 N256 0.985 . S
C270 C271 1.363 . S
C270 C276 1.379 . S
C270 N278 1.356 . S
C271 C270 1.363 . S
C271 C277 1.363 . S
C272 C273 1.363 . S
C272 C277 1.379 . S
C272 N279 1.356 . S
C273 C272 1.363 . S
C273 C276 1.363 . S
N274 C276 1.356 . S
N274 H286 0.984 . S
N274 H287 0.985 . S
N275 C277 1.356 . S
N275 H280 0.984 . S
N275 H281 0.985 . S
C276 C270 1.379 . S
C276 C273 1.363 . S
C276 N274 1.356 . S
C277 C271 1.363 . S
C277 C272 1.379 . S
C277 N275 1.356 . S
N278 C270 1.356 . S
N278 H284 0.984 . S
N278 H285 0.984 . S
N279 C272 1.356 . S
N279 H282 0.984 . S
N279 H283 0.985 . S
H280 N275 0.984 . S
H281 N275 0.985 . S
H282 N279 0.984 . S
H283 N279 0.985 . S
H284 N278 0.984 . S
H285 N278 0.984 . S
H286 N274 0.984 . S
H287 N274 0.985 . S
C288 C289 1.363 . S
C288 C294 1.379 . S
C288 N296 1.356 . S
C289 C288 1.363 . S
C289 C295 1.363 . S
C290 C291 1.363 . S
C290 C295 1.379 . S
C290 N297 1.356 . S
C291 C290 1.363 . S
C291 C294 1.363 . S
N292 C294 1.356 . S
N292 H304 0.984 . S
N292 H305 0.985 . S
N293 C295 1.356 . S
N293 H298 0.984 . S
N293 H299 0.985 . S
C294 C288 1.379 . S
C294 C291 1.363 . S
C294 N292 1.356 . S
C295 C289 1.363 . S
C295 C290 1.379 . S
C295 N293 1.356 . S
N296 C288 1.356 . S
N296 H302 0.984 . S
N296 H303 0.984 . S
N297 C290 1.356 . S
N297 H300 0.984 . S
N297 H301 0.985 . S
H298 N293 0.984 . S
H299 N293 0.985 . S
H300 N297 0.984 . S
H301 N297 0.985 . S
H302 N296 0.984 . S
H303 N296 0.984 . S
H304 N292 0.984 . S
H305 N292 0.985 . S
C306 C307 1.363 . S
C306 C312 1.379 . S
C306 N314 1.356 . S
C307 C306 1.363 . S
C307 C313 1.363 . S
C308 C309 1.363 . S
C308 C313 1.379 . S
C308 N315 1.356 . S
C309 C308 1.363 . S
C309 C312 1.363 . S
N310 C312 1.356 . S
N310 H322 0.984 . S
N310 H323 0.985 . S
N311 C313 1.356 . S
N311 H316 0.984 . S
N311 H317 0.985 . S
C312 C306 1.379 . S
C312 C309 1.363 . S
C312 N310 1.356 . S
C313 C307 1.363 . S
C313 C308 1.379 . S
C313 N311 1.356 . S
N314 C306 1.356 . S
N314 H320 0.984 . S
N314 H321 0.984 . S
N315 C308 1.356 . S
N315 H318 0.984 . S
N315 H319 0.985 . S
H316 N311 0.984 . S
H317 N311 0.985 . S
H318 N315 0.984 . S
H319 N315 0.985 . S
H320 N314 0.984 . S
H321 N314 0.984 . S
H322 N310 0.984 . S
H323 N310 0.985 . S
C324 C325 1.363 . S
C324 C330 1.379 . S
C324 N332 1.356 . S
C325 C324 1.363 . S
C325 C331 1.363 . S
C326 C327 1.363 . S
C326 C331 1.379 . S
C326 N333 1.356 1_565 S
C327 C326 1.363 . S
C327 C330 1.363 . S
N328 C330 1.356 . S
N328 H340 0.984 . S
N328 H341 0.985 . S
N329 C331 1.356 . S
N329 H334 0.984 . S
N329 H335 0.985 1_565 S
C330 C324 1.379 . S
C330 C327 1.363 . S
C330 N328 1.356 . S
C331 C325 1.363 . S
C331 C326 1.379 . S
C331 N329 1.356 . S
N332 C324 1.356 . S
N332 H338 0.984 . S
N332 H339 0.984 . S
N333 C326 1.356 1_545 S
N333 H336 0.984 . S
N333 H337 0.985 . S
H334 N329 0.984 . S
H335 N329 0.985 1_545 S
H336 N333 0.984 . S
H337 N333 0.985 . S
H338 N332 0.984 . S
H339 N332 0.984 . S
H340 N328 0.984 . S
H341 N328 0.985 . S
C342 C343 1.363 . S
C342 C348 1.379 . S
C342 N350 1.356 . S
C343 C342 1.363 . S
C343 C349 1.363 . S
C344 C345 1.363 . S
C344 C349 1.379 . S
C344 N351 1.356 1_545 S
C345 C344 1.363 . S
C345 C348 1.363 . S
N346 C348 1.356 . S
N346 H358 0.984 . S
N346 H359 0.985 . S
N347 C349 1.356 . S
N347 H352 0.984 . S
N347 H353 0.985 . S
C348 C342 1.379 . S
C348 C345 1.363 . S
C348 N346 1.356 . S
C349 C343 1.363 . S
C349 C344 1.379 . S
C349 N347 1.356 . S
N350 C342 1.356 . S
N350 H356 0.984 . S
N350 H357 0.984 . S
N351 C344 1.356 1_565 S
N351 H354 0.984 . S
N351 H355 0.985 . S
H352 N347 0.984 . S
H353 N347 0.985 . S
H354 N351 0.984 . S
H355 N351 0.985 . S
H356 N350 0.984 . S
H357 N350 0.984 . S
H358 N346 0.984 . S
H359 N346 0.985 . S
C360 C361 1.363 . S
C360 C366 1.379 . S
C360 N368 1.356 1_655 S
C361 C360 1.363 . S
C361 C367 1.363 . S
C362 C363 1.363 . S
C362 C367 1.379 . S
C362 N369 1.356 . S
C363 C362 1.363 . S
C363 C366 1.363 . S
N364 C366 1.356 . S
N364 H376 0.984 1_655 S
N364 H377 0.985 . S
N365 C367 1.356 . S
N365 H370 0.984 . S
N365 H371 0.985 . S
C366 C360 1.379 . S
C366 C363 1.363 . S
C366 N364 1.356 . S
C367 C361 1.363 . S
C367 C362 1.379 . S
C367 N365 1.356 . S
N368 C360 1.356 1_455 S
N368 H374 0.984 . S
N368 H375 0.984 . S
N369 C362 1.356 . S
N369 H372 0.984 . S
N369 H373 0.985 . S
H370 N365 0.984 . S
H371 N365 0.985 . S
H372 N369 0.984 . S
H373 N369 0.985 . S
H374 N368 0.984 . S
H375 N368 0.984 . S
H376 N364 0.984 1_455 S
H377 N364 0.985 . S
C378 C379 1.363 . S
C378 C384 1.379 . S
C378 N386 1.356 . S
C379 C378 1.363 . S
C379 C385 1.363 . S
C380 C381 1.363 . S
C380 C385 1.379 . S
C380 N387 1.356 . S
C381 C380 1.363 . S
C381 C384 1.363 . S
N382 C384 1.356 . S
N382 H394 0.984 . S
N382 H395 0.985 . S
N383 C385 1.356 . S
N383 H388 0.984 . S
N383 H389 0.985 . S
C384 C378 1.379 . S
C384 C381 1.363 . S
C384 N382 1.356 . S
C385 C379 1.363 . S
C385 C380 1.379 . S
C385 N383 1.356 . S
N386 C378 1.356 . S
N386 H392 0.984 . S
N386 H393 0.984 . S
N387 C380 1.356 . S
N387 H390 0.984 . S
N387 H391 0.985 . S
H388 N383 0.984 . S
H389 N383 0.985 . S
H390 N387 0.984 . S
H391 N387 0.985 . S
H392 N386 0.984 . S
H393 N386 0.984 . S
H394 N382 0.984 . S
H395 N382 0.985 . S
C396 C397 1.363 . S
C396 C402 1.379 . S
C396 N404 1.356 . S
C397 C396 1.363 . S
C397 C403 1.363 . S
C398 C399 1.363 1_455 S
C398 C403 1.379 . S
C398 N405 1.356 1_455 S
C399 C398 1.363 1_655 S
C399 C402 1.363 1_655 S
N400 C402 1.356 . S
N400 H412 0.984 . S
N400 H413 0.985 1_455 S
N401 C403 1.356 . S
N401 H406 0.984 . S
N401 H407 0.985 . S
C402 C396 1.379 . S
C402 C399 1.363 1_455 S
C402 N400 1.356 . S
C403 C397 1.363 . S
C403 C398 1.379 . S
C403 N401 1.356 . S
N404 C396 1.356 . S
N404 H410 0.984 . S
N404 H411 0.984 . S
N405 C398 1.356 1_655 S
N405 H408 0.984 . S
N405 H409 0.985 . S
H406 N401 0.984 . S
H407 N401 0.985 . S
H408 N405 0.984 . S
H409 N405 0.985 . S
H410 N404 0.984 . S
H411 N404 0.984 . S
H412 N400 0.984 . S
H413 N400 0.985 1_655 S
C414 C415 1.363 . S
C414 C420 1.379 . S
C414 N422 1.356 . S
C415 C414 1.363 . S
C415 C421 1.363 . S
C416 C417 1.363 . S
C416 C421 1.379 . S
C416 N423 1.356 . S
C417 C416 1.363 . S
C417 C420 1.363 . S
N418 C420 1.356 . S
N418 H430 0.984 . S
N418 H431 0.985 . S
N419 C421 1.356 . S
N419 H424 0.984 . S
N419 H425 0.985 . S
C420 C414 1.379 . S
C420 C417 1.363 . S
C420 N418 1.356 . S
C421 C415 1.363 . S
C421 C416 1.379 . S
C421 N419 1.356 . S
N422 C414 1.356 . S
N422 H428 0.984 . S
N422 H429 0.984 . S
N423 C416 1.356 . S
N423 H426 0.984 . S
N423 H427 0.985 . S
H424 N419 0.984 . S
H425 N419 0.985 . S
H426 N423 0.984 . S
H427 N423 0.985 . S
H428 N422 0.984 . S
H429 N422 0.984 . S
H430 N418 0.984 . S
H431 N418 0.985 . S
C432 C433 1.363 . S
C432 C438 1.379 1_565 S
C432 N440 1.356 . S
C433 C432 1.363 . S
C433 C439 1.363 1_565 S
C434 C435 1.363 . S
C434 C439 1.379 . S
C434 N441 1.356 . S
C435 C434 1.363 . S
C435 C438 1.363 . S
N436 C438 1.356 . S
N436 H448 0.984 1_545 S
N436 H449 0.985 . S
N437 C439 1.356 . S
N437 H442 0.984 1_545 S
N437 H443 0.985 . S
C438 C432 1.379 1_545 S
C438 C435 1.363 . S
C438 N436 1.356 . S
C439 C433 1.363 1_545 S
C439 C434 1.379 . S
C439 N437 1.356 . S
N440 C432 1.356 . S
N440 H446 0.984 . S
N440 H447 0.984 . S
N441 C434 1.356 . S
N441 H444 0.984 . S
N441 H445 0.985 . S
H442 N437 0.984 1_565 S
H443 N437 0.985 . S
H444 N441 0.984 . S
H445 N441 0.985 . S
H446 N440 0.984 . S
H447 N440 0.984 . S
H448 N436 0.984 1_565 S
H449 N436 0.985 . S
C127 C37 1.172 . S
C129 C3 1.190 . S
C145 C23 1.183 . S
C147 C9 1.173 . S
C163 C17 1.235 . S
C165 C31 1.241 . S
C181 C73 1.198 . S
C183 C51 1.171 . S
C199 C65 1.162 . S
C201 C45 1.191 . S
C217 C59 1.206 . S
C219 C79 1.177 . S
C235 C87 1.194 . S
C237 C121 1.177 . S
C253 C93 1.126 . S
C255 C107 1.133 . S
C271 C101 1.183 . S
C273 C115 1.189 . S
C289 C8 1.415 . S
C291 C106 1.417 . S
C307 C21 1.411 . S
C309 C119 1.418 . S
C325 C91 1.399 . S
C327 C36 1.428 . S
C343 C63 1.389 . S
C345 C35 1.388 . S
C361 C7 1.403 . S
C363 C77 1.403 . S
C379 C49 1.415 . S
C381 C22 1.437 . S
C397 C105 1.396 . S
C399 C78 1.423 . S
C415 C50 1.432 . S
C417 C120 1.431 . S
C433 C92 1.443 . S
C435 C64 1.443 . S
