# Generated by pormake.
# Topology nbo-h, (5)-cn, num edge types: 1
# Building blocks:
#     Node 0, Type 0, BuildingBlock: BEQFEK_clean_sbu_0, # of connection points: 5
#     Node 1, Type 0, BuildingBlock: BEQFEK_clean_sbu_0, # of connection points: 5
#     Node 2, Type 0, BuildingBlock: BEQFEK_clean_sbu_0, # of connection points: 5
#     Node 3, Type 0, BuildingBlock: BEQFEK_clean_sbu_0, # of connection points: 5
#     Node 4, Type 0, BuildingBlock: BEQFEK_clean_sbu_0, # of connection points: 5
#     Node 5, Type 0, BuildingBlock: BEQFEK_clean_sbu_0, # of connection points: 5
#     Node 6, Type 0, BuildingBlock: BEQFEK_clean_sbu_0, # of connection points: 5
#     Node 7, Type 0, BuildingBlock: BEQFEK_clean_sbu_0, # of connection points: 5
#     Node 8, Type 0, BuildingBlock: BEQFEK_clean_sbu_0, # of connection points: 5
#     Node 9, Type 0, BuildingBlock: BEQFEK_clean_sbu_0, # of connection points: 5
#     Node 10, Type 0, BuildingBlock: BEQFEK_clean_sbu_0, # of connection points: 5
#     Node 11, Type 0, BuildingBlock: BEQFEK_clean_sbu_0, # of connection points: 5
#     Node 12, Type 0, BuildingBlock: BEQFEK_clean_sbu_0, # of connection points: 5
#     Node 13, Type 0, BuildingBlock: BEQFEK_clean_sbu_0, # of connection points: 5
#     Node 14, Type 0, BuildingBlock: BEQFEK_clean_sbu_0, # of connection points: 5
#     Node 15, Type 0, BuildingBlock: BEQFEK_clean_sbu_0, # of connection points: 5
#     Node 16, Type 0, BuildingBlock: BEQFEK_clean_sbu_0, # of connection points: 5
#     Node 17, Type 0, BuildingBlock: BEQFEK_clean_sbu_0, # of connection points: 5
#     Node 18, Type 0, BuildingBlock: BEQFEK_clean_sbu_0, # of connection points: 5
#     Node 19, Type 0, BuildingBlock: BEQFEK_clean_sbu_0, # of connection points: 5
#     Node 20, Type 0, BuildingBlock: BEQFEK_clean_sbu_0, # of connection points: 5
#     Node 21, Type 0, BuildingBlock: BEQFEK_clean_sbu_0, # of connection points: 5
#     Node 22, Type 0, BuildingBlock: BEQFEK_clean_sbu_0, # of connection points: 5
#     Node 23, Type 0, BuildingBlock: BEQFEK_clean_sbu_0, # of connection points: 5
#     Node 24, Type 0, BuildingBlock: BEQFEK_clean_sbu_0, # of connection points: 5
#     Node 25, Type 0, BuildingBlock: BEQFEK_clean_sbu_0, # of connection points: 5
#     Node 26, Type 0, BuildingBlock: BEQFEK_clean_sbu_0, # of connection points: 5
#     Node 27, Type 0, BuildingBlock: BEQFEK_clean_sbu_0, # of connection points: 5
#     Node 28, Type 0, BuildingBlock: BEQFEK_clean_sbu_0, # of connection points: 5
#     Node 29, Type 0, BuildingBlock: BEQFEK_clean_sbu_0, # of connection points: 5
#     Node 30, Type 0, BuildingBlock: BEQFEK_clean_sbu_0, # of connection points: 5
#     Node 31, Type 0, BuildingBlock: BEQFEK_clean_sbu_0, # of connection points: 5
#     Node 32, Type 0, BuildingBlock: BEQFEK_clean_sbu_0, # of connection points: 5
#     Node 33, Type 0, BuildingBlock: BEQFEK_clean_sbu_0, # of connection points: 5
#     Node 34, Type 0, BuildingBlock: BEQFEK_clean_sbu_0, # of connection points: 5
#     Node 35, Type 0, BuildingBlock: BEQFEK_clean_sbu_0, # of connection points: 5
#     Node 36, Type 0, BuildingBlock: BEQFEK_clean_sbu_0, # of connection points: 5
#     Node 37, Type 0, BuildingBlock: BEQFEK_clean_sbu_0, # of connection points: 5
#     Node 38, Type 0, BuildingBlock: BEQFEK_clean_sbu_0, # of connection points: 5
#     Node 39, Type 0, BuildingBlock: BEQFEK_clean_sbu_0, # of connection points: 5
#     Node 40, Type 0, BuildingBlock: BEQFEK_clean_sbu_0, # of connection points: 5
#     Node 41, Type 0, BuildingBlock: BEQFEK_clean_sbu_0, # of connection points: 5
#     Node 42, Type 0, BuildingBlock: BEQFEK_clean_sbu_0, # of connection points: 5
#     Node 43, Type 0, BuildingBlock: BEQFEK_clean_sbu_0, # of connection points: 5
#     Node 44, Type 0, BuildingBlock: BEQFEK_clean_sbu_0, # of connection points: 5
#     Node 45, Type 0, BuildingBlock: BEQFEK_clean_sbu_0, # of connection points: 5
#     Node 46, Type 0, BuildingBlock: BEQFEK_clean_sbu_0, # of connection points: 5
#     Node 47, Type 0, BuildingBlock: BEQFEK_clean_sbu_0, # of connection points: 5
#     Edge 48, Type (0, 0), None
#     Edge 49, Type (0, 0), None
#     Edge 50, Type (0, 0), None
#     Edge 51, Type (0, 0), None
#     Edge 52, Type (0, 0), None
#     Edge 53, Type (0, 0), None
#     Edge 54, Type (0, 0), None
#     Edge 55, Type (0, 0), None
#     Edge 56, Type (0, 0), None
#     Edge 57, Type (0, 0), None
#     Edge 58, Type (0, 0), None
#     Edge 59, Type (0, 0), None
#     Edge 60, Type (0, 0), None
#     Edge 61, Type (0, 0), None
#     Edge 62, Type (0, 0), None
#     Edge 63, Type (0, 0), None
#     Edge 64, Type (0, 0), None
#     Edge 65, Type (0, 0), None
#     Edge 66, Type (0, 0), None
#     Edge 67, Type (0, 0), None
#     Edge 68, Type (0, 0), None
#     Edge 69, Type (0, 0), None
#     Edge 70, Type (0, 0), None
#     Edge 71, Type (0, 0), None
#     Edge 72, Type (0, 0), None
#     Edge 73, Type (0, 0), None
#     Edge 74, Type (0, 0), None
#     Edge 75, Type (0, 0), None
#     Edge 76, Type (0, 0), None
#     Edge 77, Type (0, 0), None
#     Edge 78, Type (0, 0), None
#     Edge 79, Type (0, 0), None
#     Edge 80, Type (0, 0), None
#     Edge 81, Type (0, 0), None
#     Edge 82, Type (0, 0), None
#     Edge 83, Type (0, 0), None
#     Edge 84, Type (0, 0), None
#     Edge 85, Type (0, 0), None
#     Edge 86, Type (0, 0), None
#     Edge 87, Type (0, 0), None
#     Edge 88, Type (0, 0), None
#     Edge 89, Type (0, 0), None
#     Edge 90, Type (0, 0), None
#     Edge 91, Type (0, 0), None
#     Edge 92, Type (0, 0), None
#     Edge 93, Type (0, 0), None
#     Edge 94, Type (0, 0), None
#     Edge 95, Type (0, 0), None
#     Edge 96, Type (0, 0), None
#     Edge 97, Type (0, 0), None
#     Edge 98, Type (0, 0), None
#     Edge 99, Type (0, 0), None
#     Edge 100, Type (0, 0), None
#     Edge 101, Type (0, 0), None
#     Edge 102, Type (0, 0), None
#     Edge 103, Type (0, 0), None
#     Edge 104, Type (0, 0), None
#     Edge 105, Type (0, 0), None
#     Edge 106, Type (0, 0), None
#     Edge 107, Type (0, 0), None
#     Edge 108, Type (0, 0), None
#     Edge 109, Type (0, 0), None
#     Edge 110, Type (0, 0), None
#     Edge 111, Type (0, 0), None
#     Edge 112, Type (0, 0), None
#     Edge 113, Type (0, 0), None
#     Edge 114, Type (0, 0), None
#     Edge 115, Type (0, 0), None
#     Edge 116, Type (0, 0), None
#     Edge 117, Type (0, 0), None
#     Edge 118, Type (0, 0), None
#     Edge 119, Type (0, 0), None
#     Edge 120, Type (0, 0), None
#     Edge 121, Type (0, 0), None
#     Edge 122, Type (0, 0), None
#     Edge 123, Type (0, 0), None
#     Edge 124, Type (0, 0), None
#     Edge 125, Type (0, 0), None
#     Edge 126, Type (0, 0), None
#     Edge 127, Type (0, 0), None
#     Edge 128, Type (0, 0), None
#     Edge 129, Type (0, 0), None
#     Edge 130, Type (0, 0), None
#     Edge 131, Type (0, 0), None
#     Edge 132, Type (0, 0), None
#     Edge 133, Type (0, 0), None
#     Edge 134, Type (0, 0), None
#     Edge 135, Type (0, 0), None
#     Edge 136, Type (0, 0), None
#     Edge 137, Type (0, 0), None
#     Edge 138, Type (0, 0), None
#     Edge 139, Type (0, 0), None
#     Edge 140, Type (0, 0), None
#     Edge 141, Type (0, 0), None
#     Edge 142, Type (0, 0), None
#     Edge 143, Type (0, 0), None
#     Edge 144, Type (0, 0), None
#     Edge 145, Type (0, 0), None
#     Edge 146, Type (0, 0), None
#     Edge 147, Type (0, 0), None
#     Edge 148, Type (0, 0), None
#     Edge 149, Type (0, 0), None
#     Edge 150, Type (0, 0), None
#     Edge 151, Type (0, 0), None
#     Edge 152, Type (0, 0), None
#     Edge 153, Type (0, 0), None
#     Edge 154, Type (0, 0), None
#     Edge 155, Type (0, 0), None
#     Edge 156, Type (0, 0), None
#     Edge 157, Type (0, 0), None
#     Edge 158, Type (0, 0), None
#     Edge 159, Type (0, 0), None
#     Edge 160, Type (0, 0), None
#     Edge 161, Type (0, 0), None
#     Edge 162, Type (0, 0), None
#     Edge 163, Type (0, 0), None
#     Edge 164, Type (0, 0), None
#     Edge 165, Type (0, 0), None
#     Edge 166, Type (0, 0), None
#     Edge 167, Type (0, 0), None
# Relax obj value: 0.208
# Max RMSD: 0.180
# Mean RMSD: 0.122
data_MOF--net-nbo-h--node1-BEQFEK_clean_sbu_0--edge1-none
_symmetry_space_group_name_H-M    P1
_symmetry_Int_Tables_number       1
_symmetry_cell_setting            triclinic
loop_
_symmetry_equiv_pos_as_xyz
'x, y, z'
_cell_length_a     36.533123
_cell_length_b     31.240713
_cell_length_c     39.35037
_cell_angle_alpha  91.296712
_cell_angle_beta   91.535256
_cell_angle_gamma 94.521541
loop_
_atom_site_label
_atom_site_type_symbol
_atom_site_fract_x
_atom_site_fract_y
_atom_site_fract_z
_atom_type_partial_charge
Co0 Co 0.21482 0.17143 0.47826 0.0
Co1 Co 0.12884 0.14588 0.48629 0.0
C2 C 0.17733 0.08353 0.45922 0.0
O3 O 0.20602 0.10996 0.46211 0.0
O4 O 0.14574 0.0922 0.46966 0.0
C5 C 0.28723 0.1824 0.44831 0.0
O6 O 0.27395 0.15096 0.42772 0.0
C7 C 0.04595 0.129 0.48419 0.0
C8 C 0.03271 0.19693 0.48348 0.0
C9 C 0.0171 0.15527 0.48059 0.0
N10 N 0.07742 0.15442 0.48787 0.0
N11 N 0.06899 0.19482 0.48832 0.0
C12 C 0.04409 0.08113 0.48133 0.0
H13 H 0.07034 0.06934 0.49058 0.0
H14 H 0.03874 0.07085 0.45436 0.0
H15 H 0.02122 0.06687 0.49646 0.0
C16 C 0.18302 0.21669 0.4202 0.0
N17 N 0.18014 0.1986 0.45103 0.0
N18 N 0.14621 0.18201 0.45337 0.0
C19 C 0.12823 0.1847 0.4236 0.0
C20 C 0.14976 0.20865 0.4018 0.0
C21 C 0.21849 0.23346 0.40563 0.0
H22 H 0.23564 0.25212 0.42537 0.0
H23 H 0.23343 0.20588 0.39699 0.0
H24 H 0.21378 0.25343 0.3832 0.0
O25 O 0.20661 0.17457 0.52852 0.0
O26 O 0.1468 0.15826 0.53198 0.0
H27 H 0.06953 0.17597 0.41775 0.0
H28 H 0.09385 0.14761 0.38628 0.0
C29 C 0.09379 0.15749 0.41354 0.0
H30 H 0.09154 0.12788 0.42847 0.0
H31 H 0.08839 0.22118 0.49011 0.0
O32 O 0.26708 0.19616 0.47135 0.0
C33 C 0.17785 0.16835 0.54592 0.0
Co34 Co 0.90552 0.16513 0.45088 0.0
Co35 Co 0.82146 0.16614 0.43592 0.0
C36 C 0.86302 0.08495 0.4186 0.0
O37 O 0.89312 0.1061 0.42795 0.0
O38 O 0.83319 0.1043 0.41854 0.0
C39 C 0.97817 0.14407 0.47187 0.0
O40 O 0.9626 0.10579 0.47784 0.0
C41 C 0.74677 0.16063 0.39794 0.0
C42 C 0.72153 0.21259 0.42485 0.0
C43 C 0.71492 0.18283 0.39826 0.0
N44 N 0.77108 0.17762 0.42225 0.0
N45 N 0.75544 0.20887 0.43799 0.0
C46 C 0.75231 0.12143 0.37693 0.0
H47 H 0.78168 0.12082 0.37062 0.0
H48 H 0.73496 0.12035 0.35327 0.0
H49 H 0.74426 0.09265 0.39184 0.0
C50 C 0.90597 0.25731 0.42755 0.0
N51 N 0.88899 0.21719 0.43072 0.0
N52 N 0.85391 0.21804 0.42263 0.0
C53 C 0.84825 0.25894 0.41254 0.0
C54 C 0.88094 0.28611 0.41594 0.0
C55 C 0.94567 0.26828 0.43677 0.0
H56 H 0.96248 0.24445 0.42467 0.0
H57 H 0.95528 0.30092 0.42859 0.0
H58 H 0.94974 0.26635 0.46473 0.0
O59 O 0.88543 0.15895 0.49621 0.0
O60 O 0.82493 0.15984 0.48876 0.0
H61 H 0.79714 0.28341 0.42448 0.0
H62 H 0.81532 0.30145 0.38496 0.0
C63 C 0.81182 0.27339 0.4017 0.0
H64 H 0.79521 0.24697 0.38788 0.0
H65 H 0.7677 0.22713 0.45838 0.0
O66 O 0.95912 0.17278 0.45968 0.0
C67 C 0.8534 0.15621 0.50817 0.0
Co68 Co 0.90078 0.91861 0.44006 0.0
Co69 Co 0.81548 0.90812 0.42687 0.0
C70 C 0.86674 0.83562 0.40778 0.0
O71 O 0.89553 0.86013 0.41562 0.0
O72 O 0.83488 0.85015 0.40986 0.0
C73 C 0.98077 0.92551 0.43451 0.0
O74 O 0.97509 0.9035 0.40579 0.0
C75 C 0.74136 0.89172 0.38879 0.0
C76 C 0.71053 0.93756 0.41755 0.0
C77 C 0.70697 0.90829 0.39044 0.0
N78 N 0.76395 0.91105 0.41349 0.0
N79 N 0.74487 0.93805 0.43059 0.0
C80 C 0.75193 0.8566 0.36557 0.0
H81 H 0.755 0.82731 0.3805 0.0
H82 H 0.77898 0.86601 0.35459 0.0
H83 H 0.73088 0.84928 0.34495 0.0
C84 C 0.89145 1.00937 0.41933 0.0
N85 N 0.87837 0.96745 0.42094 0.0
N86 N 0.84256 0.9644 0.41566 0.0
C87 C 0.83219 1.00495 0.40996 0.0
C88 C 0.86253 0.03579 0.41331 0.0
C89 C 0.93105 1.02394 0.42603 0.0
H90 H 0.94855 1.00047 0.41451 0.0
H91 H 0.93852 0.05564 0.41502 0.0
H92 H 0.9368 1.02557 0.45387 0.0
O93 O 0.87878 0.90675 0.48435 0.0
O94 O 0.81789 0.90119 0.47852 0.0
H95 H 0.77949 1.02198 0.42541 0.0
H96 H 0.79381 0.04357 0.38548 0.0
C97 C 0.79374 1.01497 0.40162 0.0
H98 H 0.77882 0.9877 0.38741 0.0
H99 H 0.75534 0.95676 0.45146 0.0
O100 O 0.95354 0.93479 0.45189 0.0
C101 C 0.84717 0.89994 0.49696 0.0
Co102 Co 0.21481 0.92268 0.45351 0.0
Co103 Co 0.12986 0.93291 0.45453 0.0
C104 C 0.15785 0.85668 0.42497 0.0
O105 O 0.19139 0.86884 0.43145 0.0
O106 O 0.13214 0.8794 0.43266 0.0
C107 C 0.27668 0.92854 0.41148 0.0
O108 O 0.25116 0.92902 0.38738 0.0
C109 C 0.05171 0.92987 0.43387 0.0
C110 C 0.02714 0.95784 0.47909 0.0
C111 C 0.01835 0.93811 0.44772 0.0
N112 N 0.0789 0.94352 0.45624 0.0
N113 N 0.06399 0.96052 0.48312 0.0
C114 C 0.05778 0.9081 0.40047 0.0
H115 H 0.08665 0.91459 0.39284 0.0
H116 H 0.03922 0.9196 0.38047 0.0
H117 H 0.05158 0.87294 0.40273 0.0
C118 C 0.20821 1.01465 0.44666 0.0
N119 N 0.19455 0.97398 0.43957 0.0
N120 N 0.15915 0.97417 0.43235 0.0
C121 C 0.15004 1.01467 0.43131 0.0
C122 C 0.17992 0.04142 0.44284 0.0
C123 C 0.24421 1.026 0.46505 0.0
H124 H 0.25886 0.99704 0.47017 0.0
H125 H 0.26151 0.04834 0.44949 0.0
H126 H 0.23966 0.04275 0.48959 0.0
O127 O 0.20867 0.9197 0.50296 0.0
O128 O 0.14879 0.92947 0.50188 0.0
H129 H 0.09721 1.02834 0.44855 0.0
H130 H 0.11234 0.05853 0.41243 0.0
C131 C 0.11177 1.02666 0.42436 0.0
H132 H 0.0967 1.00233 0.40715 0.0
H133 H 0.07889 0.97265 0.5047 0.0
O134 O 0.26744 0.92553 0.44231 0.0
C135 C 0.17876 0.92421 0.51806 0.0
Co136 Co 0.20985 0.91551 0.62299 0.0
Co137 Co 0.12549 0.93172 0.61311 0.0
C138 C 0.17505 0.99665 0.64748 0.0
O139 O 0.20286 0.97457 0.64391 0.0
O140 O 0.14318 0.98361 0.63588 0.0
C141 C 0.27858 0.89645 0.66076 0.0
O142 O 0.25988 0.89659 0.6888 0.0
C143 C 0.04356 0.93694 0.61619 0.0
C144 C 0.0267 0.89232 0.57317 0.0
C145 C 0.01314 0.9165 0.59907 0.0
N146 N 0.07399 0.92442 0.6015 0.0
N147 N 0.06349 0.89834 0.57549 0.0
C148 C 0.04369 0.96456 0.64763 0.0
H149 H 0.07158 0.96796 0.6594 0.0
H150 H 0.02425 0.95011 0.66615 0.0
H151 H 0.03482 0.99658 0.64103 0.0
C152 C 0.17006 0.83239 0.64563 0.0
N153 N 0.17214 0.8745 0.63842 0.0
N154 N 0.13884 0.88755 0.64025 0.0
C155 C 0.11577 0.85629 0.65186 0.0
C156 C 0.13371 0.81956 0.65333 0.0
C157 C 0.20039 0.80392 0.6396 0.0
H158 H 0.22664 0.82319 0.6356 0.0
H159 H 0.20343 0.78273 0.66159 0.0
H160 H 0.19343 0.78321 0.61668 0.0
O161 O 0.20629 0.91795 0.57293 0.0
O162 O 0.14734 0.92915 0.56857 0.0
H163 H 0.05854 0.8534 0.63767 0.0
H164 H 0.06789 0.83809 0.6805 0.0
C165 C 0.07661 0.86084 0.66045 0.0
H166 H 0.07361 0.89376 0.67017 0.0
H167 H 0.08157 0.88321 0.56 0.0
O168 O 0.26218 0.90172 0.63241 0.0
C169 C 0.17775 0.9237 0.55509 0.0
Co170 Co 0.21542 0.16716 0.64627 0.0
Co171 Co 0.13044 0.14578 0.64606 0.0
C172 C 0.15513 0.22063 0.66764 0.0
O173 O 0.18748 0.21989 0.65654 0.0
O174 O 0.14148 0.18785 0.6818 0.0
C175 C 0.29237 0.18903 0.63906 0.0
O176 O 0.28232 0.20025 0.60848 0.0
C177 C 0.04758 0.1374 0.65268 0.0
C178 C 0.03188 0.10894 0.60199 0.0
C179 C 0.01747 0.12697 0.6306 0.0
N180 N 0.07847 0.12728 0.6372 0.0
N181 N 0.0685 0.10946 0.60721 0.0
C182 C 0.04716 0.15961 0.68672 0.0
H183 H 0.07481 0.1618 0.69923 0.0
H184 H 0.02733 0.14163 0.70307 0.0
H185 H 0.03785 0.19232 0.68368 0.0
C186 C 0.20786 0.07174 0.65799 0.0
N187 N 0.19439 0.11085 0.65884 0.0
N188 N 0.15867 0.10487 0.66209 0.0
C189 C 0.14878 0.06388 0.66733 0.0
C190 C 0.17889 0.04048 0.6622 0.0
C191 C 0.24517 0.06399 0.64557 0.0
H192 H 0.26363 0.09388 0.64712 0.0
H193 H 0.25713 0.03878 0.6608 0.0
H194 H 0.2427 0.05234 0.61868 0.0
O195 O 0.21158 0.16629 0.59757 0.0
O196 O 0.1505 0.1618 0.59946 0.0
H197 H 0.09565 0.04081 0.64797 0.0
H198 H 0.1093 1.01822 0.68817 0.0
C199 C 0.10994 0.04769 0.67293 0.0
H200 H 0.0955 0.07244 0.68673 0.0
H201 H 0.08701 0.09991 0.58933 0.0
O202 O 0.26812 0.17563 0.65975 0.0
C203 C 0.1803 0.16717 0.58301 0.0
Co204 Co 0.90109 0.13682 0.61061 0.0
Co205 Co 0.81584 0.13514 0.61051 0.0
C206 C 0.86689 0.21431 0.63694 0.0
O207 O 0.89546 0.19323 0.63652 0.0
O208 O 0.8359 0.19573 0.62728 0.0
C209 C 0.97859 0.13658 0.63398 0.0
O210 O 0.96735 0.15282 0.66257 0.0
C211 C 0.75002 0.1455 0.6522 0.0
C212 C 0.70666 0.11112 0.6199 0.0
C213 C 0.71251 0.13384 0.65057 0.0
N214 N 0.76543 0.12966 0.62411 0.0
N215 N 0.73917 0.10898 0.60508 0.0
C216 C 0.77033 0.17395 0.67856 0.0
H217 H 0.79831 0.16332 0.68301 0.0
H218 H 0.75525 0.17382 0.70269 0.0
H219 H 0.77314 0.20727 0.66922 0.0
C220 C 0.886 0.04395 0.63013 0.0
N221 N 0.87523 0.08439 0.6264 0.0
N222 N 0.83923 0.08241 0.62403 0.0
C223 C 0.82621 0.04023 0.62526 0.0
C224 C 0.85549 1.01338 0.62872 0.0
C225 C 0.92531 0.03423 0.6331 0.0
H226 H 0.93586 1.02788 0.60743 0.0
H227 H 0.94195 0.06155 0.64545 0.0
H228 H 0.92806 1.00582 0.64902 0.0
O229 O 0.88169 0.14654 0.5623 0.0
O230 O 0.82031 0.14098 0.55967 0.0
H231 H 0.77843 0.0323 0.59266 0.0
H232 H 0.78048 0.99138 0.62402 0.0
C233 C 0.78651 1.02584 0.61931 0.0
H234 H 0.76974 0.04438 0.63647 0.0
H235 H 0.7433 0.09439 0.58153 0.0
O236 O 0.95553 0.12824 0.60926 0.0
C237 C 0.85121 0.14771 0.5453 0.0
Co238 Co 0.89739 0.89049 0.59628 0.0
Co239 Co 0.81352 0.87644 0.60136 0.0
C240 C 0.85585 0.96437 0.62303 0.0
O241 O 0.88637 0.9479 0.61874 0.0
O242 O 0.82603 0.94022 0.61839 0.0
C243 C 0.97421 0.91637 0.60721 0.0
O244 O 0.96329 0.94203 0.63103 0.0
C245 C 0.74176 0.87356 0.63584 0.0
C246 C 0.70952 0.8241 0.6045 0.0
C247 C 0.70719 0.85185 0.63219 0.0
N248 N 0.76342 0.85931 0.6115 0.0
N249 N 0.74394 0.82926 0.59317 0.0
C250 C 0.75268 0.90992 0.66027 0.0
H251 H 0.78295 0.91497 0.66316 0.0
H252 H 0.74098 0.90335 0.68548 0.0
H253 H 0.74134 0.9395 0.6509 0.0
C254 C 0.89426 0.79758 0.61955 0.0
N255 N 0.87897 0.8355 0.61449 0.0
N256 N 0.84322 0.82932 0.61735 0.0
C257 C 0.83504 0.78726 0.62537 0.0
C258 C 0.86701 0.76486 0.62679 0.0
C259 C 0.93383 0.79169 0.61353 0.0
H260 H 0.94066 0.80207 0.58751 0.0
H261 H 0.95123 0.81258 0.63173 0.0
H262 H 0.94013 0.75776 0.6164 0.0
O263 O 0.87775 0.89442 0.54955 0.0
O264 O 0.81708 0.88193 0.54974 0.0
H265 H 0.7821 0.76161 0.60716 0.0
H266 H 0.79798 0.73733 0.64527 0.0
C267 C 0.79715 0.76808 0.63176 0.0
H268 H 0.7822 0.79082 0.64715 0.0
H269 H 0.75383 0.81328 0.57217 0.0
O270 O 0.95088 0.89113 0.59073 0.0
C271 C 0.84667 0.89139 0.53392 0.0
Co272 Co 0.39498 0.09566 0.09799 0.0
Co273 Co 0.42183 0.10872 0.16783 0.0
C274 C 0.39537 1.01733 0.14471 0.0
O275 O 0.38965 0.03465 0.11647 0.0
O276 O 0.4073 0.04212 0.16939 0.0
C277 C 0.3536 0.09092 0.03201 0.0
O278 O 0.328 0.07083 1.01218 0.0
C279 C 0.39807 0.12983 0.23064 0.0
C280 C 0.44616 0.16597 0.2557 0.0
C281 C 0.40846 0.15698 0.25755 0.0
N282 N 0.42777 0.12467 0.21258 0.0
N283 N 0.45681 0.14542 0.22774 0.0
C284 C 0.35983 0.11393 0.21929 0.0
H285 H 0.35964 0.09731 0.19407 0.0
H286 H 0.34218 0.14125 0.21809 0.0
H287 H 0.34813 0.09099 0.238 0.0
C288 C 0.35977 0.18164 0.10967 0.0
N289 N 0.37398 0.14477 0.12059 0.0
N290 N 0.3916 0.15358 0.14962 0.0
C291 C 0.39138 0.19675 0.15656 0.0
C292 C 0.37076 0.2166 0.13175 0.0
C293 C 0.33756 0.18506 0.07763 0.0
H294 H 0.32524 0.15311 0.06888 0.0
H295 H 0.31507 0.20615 0.08191 0.0
H296 H 0.35506 0.20041 0.05803 0.0
O297 O 0.45103 0.11756 0.09249 0.0
O298 O 0.46875 0.12054 0.14728 0.0
H299 H 0.44136 0.2071 0.1864 0.0
H300 H 0.41806 0.25515 0.17956 0.0
C301 C 0.41415 0.22026 0.18423 0.0
H302 H 0.39984 0.21645 0.20853 0.0
H303 H 0.48297 0.14849 0.21762 0.0
O304 O 0.36139 0.07522 0.06011 0.0
C305 C 0.47584 0.12633 0.11627 0.0
Co306 Co 0.88664 0.42524 0.20811 0.0
Co307 Co 0.89005 0.42326 0.13015 0.0
C308 C 0.81919 0.4006 0.16246 0.0
O309 O 0.8353 0.40643 0.1915 0.0
O310 O 0.83706 0.40454 0.13518 0.0
C311 C 0.89535 0.37921 0.26868 0.0
O312 O 0.89796 0.3457 0.2484 0.0
C313 C 0.88891 0.40865 0.05565 0.0
C314 C 0.93303 0.45737 0.04202 0.0
C315 C 0.90707 0.42676 0.02831 0.0
N316 N 0.90347 0.42799 0.08424 0.0
N317 N 0.93 0.45676 0.07591 0.0
C318 C 0.8572 0.37529 0.05473 0.0
H319 H 0.85313 0.36161 0.08024 0.0
H320 H 0.86207 0.34916 0.03621 0.0
H321 H 0.83193 0.39011 0.04641 0.0
C322 C 0.9612 0.39837 0.19819 0.0
N323 N 0.92593 0.39915 0.18706 0.0
N324 N 0.92401 0.39123 0.15412 0.0
C325 C 0.95745 0.38198 0.14372 0.0
C326 C 0.98263 0.38773 0.17093 0.0
C327 C 0.97535 0.41825 0.23154 0.0
H328 H 0.95419 0.43604 0.24399 0.0
H329 H 0.98383 0.39265 0.24846 0.0
H330 H 0.99957 0.44121 0.22789 0.0
O331 O 0.89475 0.48709 0.20274 0.0
O332 O 0.89776 0.48366 0.14654 0.0
H333 H 0.97794 0.40225 0.09564 0.0
H334 H 0.98718 0.34872 0.10649 0.0
C335 C 0.96624 0.37257 0.1075 0.0
H336 H 0.94123 0.35961 0.09295 0.0
H337 H 0.94557 0.47667 0.09342 0.0
O338 O 0.88932 0.4153 0.25658 0.0
C339 C 0.89925 0.50511 0.17444 0.0
Co340 Co 0.55202 0.91783 0.09593 0.0
Co341 Co 0.57804 0.83779 0.11265 0.0
C342 C 0.57991 0.90331 0.17015 0.0
O343 O 0.56485 0.92555 0.14776 0.0
O344 O 0.59117 0.86775 0.16021 0.0
C345 C 0.59532 0.98106 0.08378 0.0
O346 O 0.61602 0.95353 0.09796 0.0
C347 C 0.62936 0.7817 0.1345 0.0
C348 C 0.596 0.71999 0.13345 0.0
C349 C 0.62939 0.74016 0.14481 0.0
N350 N 0.59681 0.7861 0.11885 0.0
N351 N 0.57715 0.74894 0.11749 0.0
C352 C 0.65758 0.81784 0.14316 0.0
H353 H 0.65268 0.84629 0.12777 0.0
H354 H 0.68546 0.80757 0.13856 0.0
H355 H 0.65626 0.82653 0.17058 0.0
C356 C 0.57869 0.8979 0.02755 0.0
N357 N 0.57814 0.89081 0.06129 0.0
N358 N 0.59471 0.85664 0.06822 0.0
C359 C 0.60746 0.84082 0.03839 0.0
C360 C 0.59823 0.86728 1.01117 0.0
C361 C 0.55467 0.9284 1.01073 0.0
H362 H 0.52679 0.92451 0.02131 0.0
H363 H 0.56551 0.96191 1.01638 0.0
H364 H 0.55267 0.92297 0.98285 0.0
O365 O 0.50279 0.89267 0.09061 0.0
O366 O 0.52195 0.83131 0.10951 0.0
H367 H 0.60304 0.77258 0.04166 0.0
H368 H 0.63356 0.79302 1.00915 0.0
C369 C 0.62392 0.79869 0.03527 0.0
H370 H 0.64712 0.79795 0.05399 0.0
H371 H 0.55012 0.74426 0.10809 0.0
O372 O 0.5605 0.97412 0.08222 0.0
C373 C 0.4961 0.85401 0.09931 0.0
Co374 Co 0.12282 0.63161 0.22337 0.0
Co375 Co 0.11023 0.63871 0.14013 0.0
C376 C 0.18202 0.65164 0.16845 0.0
O377 O 0.17263 0.63739 0.19766 0.0
O378 O 0.15859 0.66632 0.14859 0.0
C379 C 0.1287 0.67627 0.2948 0.0
O380 O 0.13515 0.71127 0.27739 0.0
C381 C 0.11573 0.65708 0.06378 0.0
C382 C 0.07251 0.61093 0.04153 0.0
C383 C 0.10049 0.64066 0.03242 0.0
N384 N 0.09788 0.63759 0.08983 0.0
N385 N 0.07194 0.6102 0.07589 0.0
C386 C 0.14757 0.68993 0.06878 0.0
H387 H 0.14703 0.70569 0.09425 0.0
H388 H 0.14687 0.7148 0.04915 0.0
H389 H 0.17353 0.67399 0.06656 0.0
C390 C 0.04838 0.66306 0.21582 0.0
N391 N 0.08204 0.65992 0.20277 0.0
N392 N 0.0796 0.66684 0.16977 0.0
C393 C 0.04598 0.67819 0.16164 0.0
C394 C 0.02403 0.67387 0.18998 0.0
C395 C 0.03804 0.64608 0.24985 0.0
H396 H 0.05906 0.62563 0.25982 0.0
H397 H 0.03571 0.6735 0.26788 0.0
H398 H 0.01123 0.62678 0.24833 0.0
O399 O 0.10935 0.57035 0.21171 0.0
O400 O 0.10749 0.57712 0.15501 0.0
H401 H 0.02344 0.65505 0.11325 0.0
H402 H 0.01133 0.70797 0.1255 0.0
C403 C 0.03374 0.68596 0.12581 0.0
H404 H 0.0571 0.70024 0.11132 0.0
H405 H 0.05445 0.58973 0.08985 0.0
O406 O 0.12507 0.64027 0.27798 0.0
C407 C 0.10599 0.55405 0.18155 0.0
Co408 Co 0.40943 0.9107 0.87231 0.0
Co409 Co 0.42314 0.92253 0.94522 0.0
C410 C 0.38788 0.83537 0.91223 0.0
O411 O 0.37871 0.85449 0.8854 0.0
O412 O 0.40611 0.85793 0.93518 0.0
C413 C 0.40201 0.8768 0.80531 0.0
O414 O 0.40682 0.83992 0.81944 0.0
C415 C 0.37312 0.91442 0.99532 0.0
C416 C 0.40496 0.9025 0.04199 0.0
C417 C 0.36975 0.8988 0.0276 0.0
N418 N 0.40867 0.92548 0.99029 0.0
N419 N 0.42778 0.9192 1.01844 0.0
C420 C 0.34432 0.91031 0.96726 0.0
H421 H 0.35505 0.92275 0.94312 0.0
H422 H 0.32059 0.92827 0.97456 0.0
H423 H 0.33441 0.87603 0.96307 0.0
C424 C 0.3959 1.00906 0.87683 0.0
N425 N 0.39978 0.96903 0.88959 0.0
N426 N 0.40637 0.97338 0.92236 0.0
C427 C 0.40678 1.01583 0.93154 0.0
C428 C 0.40002 0.04116 0.90308 0.0
C429 C 0.39215 1.01728 0.83969 0.0
H430 H 0.37902 0.98847 0.82593 0.0
H431 H 0.37569 0.04514 0.83536 0.0
H432 H 0.41987 1.0248 0.82945 0.0
O433 O 0.46283 0.90026 0.88346 0.0
O434 O 0.4755 0.92175 0.93738 0.0
H435 H 0.44124 0.05808 0.96473 0.0
H436 H 0.39484 0.0479 0.97796 0.0
C437 C 0.4182 0.03291 0.96638 0.0
H438 H 0.42692 1.00706 0.98284 0.0
H439 H 0.45641 0.92187 0.02042 0.0
O440 O 0.4034 0.91116 0.82325 0.0
C441 C 0.48546 0.90706 0.90883 0.0
Co442 Co 0.079 0.43275 0.90355 0.0
Co443 Co 0.08123 0.4348 0.81844 0.0
C444 C 0.01078 0.41711 0.86304 0.0
O445 O 0.02873 0.4182 0.89109 0.0
O446 O 0.02691 0.42206 0.83438 0.0
C447 C 0.07036 0.41807 0.98109 0.0
O448 O 0.04633 0.38516 0.97483 0.0
C449 C 0.08428 0.40088 0.73932 0.0
C450 C 0.08568 0.46384 0.71562 0.0
C451 C 0.08467 0.42056 0.70689 0.0
N452 N 0.08516 0.43138 0.76525 0.0
N453 N 0.0864 0.46874 0.74988 0.0
C454 C 0.08041 0.35368 0.74493 0.0
H455 H 0.08193 0.34698 0.77251 0.0
H456 H 0.10239 0.33809 0.73155 0.0
H457 H 0.05365 0.33996 0.73384 0.0
C458 C 0.14043 0.38542 0.89527 0.0
N459 N 0.11039 0.39775 0.87911 0.0
N460 N 0.11784 0.40642 0.84709 0.0
C461 C 0.15473 0.40492 0.84405 0.0
C462 C 0.1706 0.39227 0.87488 0.0
C463 C 0.1417 0.37636 0.93249 0.0
H464 H 0.11495 0.36069 0.94011 0.0
H465 H 0.16398 0.35526 0.93842 0.0
H466 H 0.1473 0.40679 0.94742 0.0
O467 O 0.08934 0.4926 0.88922 0.0
O468 O 0.09118 0.49692 0.83262 0.0
H469 H 0.17985 0.46042 0.82094 0.0
H470 H 0.20247 0.41206 0.81318 0.0
C471 C 0.17533 0.42534 0.81557 0.0
H472 H 0.15905 0.42033 0.79139 0.0
H473 H 0.08673 0.49826 0.76288 0.0
O474 O 0.0856 0.43771 0.95622 0.0
C475 C 0.09331 0.51441 0.86243 0.0
Co476 Co 0.59432 0.24501 0.92136 0.0
Co477 Co 0.59133 0.15559 0.93259 0.0
C478 C 0.61231 0.20972 0.99197 0.0
O479 O 0.60109 0.24014 0.97447 0.0
O480 O 0.61777 0.17518 0.97626 0.0
C481 C 0.64671 0.31287 0.9149 0.0
O482 O 0.66998 0.28299 0.91671 0.0
C483 C 0.61691 0.07629 0.94556 0.0
C484 C 0.56851 0.04096 0.96672 0.0
C485 C 0.60594 0.03989 0.96239 0.0
N486 N 0.58773 0.09863 0.94071 0.0
N487 N 0.55883 0.07806 0.95405 0.0
C488 C 0.65501 0.09012 0.93506 0.0
H489 H 0.65794 0.12512 0.93056 0.0
H490 H 0.66088 0.07258 0.91124 0.0
H491 H 0.6753 0.08187 0.95489 0.0
C492 C 0.62138 0.21898 0.85235 0.0
N493 N 0.61512 0.21046 0.8855 0.0
N494 N 0.61321 0.16886 0.88928 0.0
C495 C 0.61865 0.14941 0.85853 0.0
C496 C 0.62479 0.18066 0.8336 0.0
C497 C 0.61678 0.26204 0.83741 0.0
H498 H 0.60221 0.28263 0.8548 0.0
H499 H 0.64422 0.27802 0.83226 0.0
H500 H 0.60045 0.25864 0.81321 0.0
O501 O 0.54131 0.23808 0.91324 0.0
O502 O 0.53975 0.17126 0.93144 0.0
H503 H 0.59367 0.09545 0.82937 0.0
H504 H 0.63925 0.08931 0.84552 0.0
C505 C 0.61265 0.10207 0.85169 0.0
H506 H 0.60111 0.08537 0.87399 0.0
H507 H 0.53297 0.08988 0.95544 0.0
O508 O 0.61239 0.30272 0.91432 0.0
C509 C 0.52355 0.20363 0.92185 0.0
Co510 Co 0.92739 0.65984 0.94447 0.0
Co511 Co 0.9003 0.68193 0.87545 0.0
C512 C 0.98045 0.69195 0.89149 0.0
O513 O 0.97203 0.68031 0.92113 0.0
O514 O 0.95518 0.69627 0.86935 0.0
C515 C 0.96239 0.67039 1.0107 0.0
O516 O 0.97447 0.71022 1.00512 0.0
C517 C 0.89513 0.70188 0.80872 0.0
C518 C 0.8544 0.64819 0.7947 0.0
C519 C 0.88458 0.67246 0.78319 0.0
N520 N 0.87472 0.69243 0.83553 0.0
N521 N 0.84854 0.66252 0.82624 0.0
C522 C 0.92631 0.73601 0.80887 0.0
H523 H 0.92518 0.75799 0.83132 0.0
H524 H 0.92486 0.7545 0.78517 0.0
H525 H 0.95288 0.72142 0.80932 0.0
C526 C 0.85628 0.68804 0.96257 0.0
N527 N 0.8859 0.69204 0.94273 0.0
N528 N 0.8761 0.70615 0.91297 0.0
C529 C 0.84022 0.71379 0.91375 0.0
C530 C 0.82586 0.70089 0.94456 0.0
C531 C 0.8552 0.66186 0.99397 0.0
H532 H 0.85985 0.62809 0.98712 0.0
H533 H 0.8777 0.67429 1.01189 0.0
H534 H 0.82849 0.66277 1.00665 0.0
O535 O 0.91311 0.60273 0.92847 0.0
O536 O 0.89323 0.61766 0.87695 0.0
H537 H 0.80251 0.69985 0.87153 0.0
H538 H 0.79786 0.74991 0.89316 0.0
C539 C 0.81815 0.72795 0.88409 0.0
H540 H 0.83606 0.74513 0.86569 0.0
H541 H 0.83161 0.64579 0.84321 0.0
O542 O 0.94186 0.64886 0.98934 0.0
C543 C 0.89948 0.59075 0.89974 0.0
Co544 Co 0.09683 0.41849 0.20589 0.0
Co545 Co 0.0829 0.43517 0.12403 0.0
C546 C 0.02286 0.39796 0.16825 0.0
O547 O 0.04357 0.39955 0.19506 0.0
O548 O 0.03498 0.41004 0.13961 0.0
C549 C 0.11644 0.42749 0.28186 0.0
O550 O 0.11985 0.46891 0.27653 0.0
C551 C 0.06923 0.4155 0.04788 0.0
C552 C 0.09599 0.47386 0.02598 0.0
C553 C 0.07808 0.43439 1.01685 0.0
N554 N 0.08192 0.44229 0.07391 0.0
N555 N 0.09744 0.47732 0.06026 0.0
C556 C 0.05056 0.37185 0.05267 0.0
H557 H 0.05182 0.36315 0.07984 0.0
H558 H 0.06378 0.34776 0.037 0.0
H559 H 0.02142 0.37159 0.04389 0.0
C560 C 0.15831 0.37368 0.17464 0.0
N561 N 0.12726 0.39436 0.17175 0.0
N562 N 0.12117 0.40188 0.13918 0.0
C563 C 0.14819 0.38709 0.12081 0.0
C564 C 0.17237 0.36827 0.14237 0.0
C565 C 0.17455 0.36088 0.20778 0.0
H566 H 0.18435 0.39022 0.22284 0.0
H567 H 0.153 0.34324 0.22254 0.0
H568 H 0.19774 0.34053 0.20389 0.0
O569 O 0.10237 0.48265 0.20188 0.0
O570 O 0.09253 0.49265 0.1463 0.0
H571 H 0.15128 0.43142 0.08022 0.0
H572 H 0.18116 0.38949 0.07532 0.0
C573 C 0.15376 0.3968 0.08408 0.0
H574 H 0.1325 0.37784 0.06826 0.0
H575 H 0.10987 0.50343 0.07442 0.0
O576 O 0.10873 0.40171 0.25625 0.0
C577 C 0.09985 0.50725 0.1765 0.0
Co578 Co 0.10641 0.63659 0.91833 0.0
Co579 Co 0.11216 0.64689 0.83353 0.0
C580 C 0.17704 0.66637 0.88816 0.0
O581 O 0.15692 0.65626 0.913 0.0
O582 O 0.1642 0.66567 0.85714 0.0
C583 C 0.11258 0.64938 0.99667 0.0
O584 O 0.1424 0.6745 0.99183 0.0
C585 C 0.09993 0.67067 0.75328 0.0
C586 C 0.13115 0.61906 0.73289 0.0
C587 C 0.11072 0.65185 0.72211 0.0
N588 N 0.11325 0.64935 0.78063 0.0
N589 N 0.13202 0.61886 0.76721 0.0
C590 C 0.07755 0.70845 0.75635 0.0
H591 H 0.07831 0.721 0.78299 0.0
H592 H 0.04874 0.69865 0.74813 0.0
H593 H 0.08811 0.73405 0.73922 0.0
C594 C 0.04775 0.69022 0.90766 0.0
N595 N 0.07669 0.67381 0.89355 0.0
N596 N 0.07218 0.6715 0.85999 0.0
C597 C 0.03727 0.68178 0.85278 0.0
C598 C 0.02035 0.69378 0.88306 0.0
C599 C 0.04512 0.69781 0.94522 0.0
H600 H 0.07281 0.70689 0.95661 0.0
H601 H 0.02716 0.72407 0.95059 0.0
H602 H 0.03341 0.66809 0.9571 0.0
O603 O 0.09928 0.57777 0.89682 0.0
O604 O 0.10457 0.58416 0.84068 0.0
H605 H 0.99085 0.65478 0.82252 0.0
H606 H 0.01429 0.70239 0.8062 0.0
C607 C 0.01826 0.67186 0.81912 0.0
H608 H 0.0349 0.65177 0.80294 0.0
H609 H 0.14543 0.59698 0.78173 0.0
O610 O 0.09483 0.63184 0.97057 0.0
C611 C 0.09958 0.5613 0.86678 0.0
Co612 Co 0.41964 0.17905 0.87008 0.0
Co613 Co 0.41131 0.17823 0.9432 0.0
C614 C 0.40245 0.09109 0.90191 0.0
O615 O 0.40549 0.11185 0.87426 0.0
O616 O 0.40369 0.11322 0.92961 0.0
C617 C 0.39578 0.17768 0.80494 0.0
O618 O 0.36742 0.15655 0.81835 0.0
C619 C 0.36745 0.15226 0.99288 0.0
C620 C 0.4084 0.14497 0.03422 0.0
C621 C 0.37407 0.12968 0.02149 0.0
N622 N 0.3976 0.17784 0.98746 0.0
N623 N 0.42155 0.17496 1.01287 0.0
C624 C 0.3364 0.14348 0.96737 0.0
H625 H 0.33712 0.16817 0.94761 0.0
H626 H 0.30984 0.14313 0.98046 0.0
H627 H 0.33801 0.11145 0.95499 0.0
C628 C 0.38159 0.2629 0.87708 0.0
N629 N 0.39003 0.22345 0.88778 0.0
N630 N 0.38581 0.22199 0.92061 0.0
C631 C 0.37393 0.2598 0.93183 0.0
C632 C 0.37026 0.28761 0.90461 0.0
C633 C 0.38984 0.27936 0.84251 0.0
H634 H 0.41899 0.27532 0.83691 0.0
H635 H 0.37242 0.26023 0.82326 0.0
H636 H 0.3845 0.31372 0.84053 0.0
O637 O 0.47049 0.19238 0.88736 0.0
O638 O 0.46426 0.19402 0.94323 0.0
H639 H 0.39994 0.27161 0.98082 0.0
H640 H 0.36186 0.30406 0.97255 0.0
C641 C 0.37214 0.27185 0.96876 0.0
H642 H 0.35381 0.24758 0.98152 0.0
H643 H 0.44865 0.18834 1.01302 0.0
O644 O 0.42333 0.19046 0.82332 0.0
C645 C 0.48396 0.19844 0.9173 0.0
Co646 Co 0.89186 0.45549 0.926 0.0
Co647 Co 0.8712 0.47165 0.85254 0.0
C648 C 0.81565 0.43766 0.90326 0.0
O649 O 0.83969 0.43646 0.92689 0.0
O650 O 0.82426 0.45018 0.87382 0.0
C651 C 0.89725 0.42215 0.99209 0.0
O652 O 0.86943 0.39573 0.98135 0.0
C653 C 0.86932 0.42223 0.79562 0.0
C654 C 0.89405 0.46844 0.75956 0.0
C655 C 0.88981 0.42534 0.76717 0.0
N656 N 0.86393 0.46218 0.80625 0.0
N657 N 0.87679 0.48971 0.78365 0.0
C658 C 0.86385 0.38313 0.81691 0.0
H659 H 0.85048 0.3904 0.84102 0.0
H660 H 0.89063 0.36989 0.82248 0.0
H661 H 0.84645 0.35793 0.80242 0.0
C662 C 0.95038 0.40894 0.89545 0.0
N663 N 0.91808 0.42676 0.89294 0.0
N664 N 0.91496 0.44358 0.86302 0.0
C665 C 0.94691 0.44112 0.84664 0.0
C666 C 0.97015 0.41715 0.86585 0.0
C667 C 0.96456 0.3916 0.92798 0.0
H668 H 0.94136 0.37805 0.94304 0.0
H669 H 0.98342 0.36623 0.92278 0.0
H670 H 0.9797 0.41803 0.94317 0.0
O671 O 0.89664 0.51899 0.91725 0.0
O672 O 0.88055 0.53174 0.86362 0.0
H673 H 0.9393 0.49697 0.81672 0.0
H674 H 0.98563 0.49159 0.83094 0.0
C675 C 0.95994 0.47351 0.82124 0.0
H676 H 0.96649 0.45731 0.79719 0.0
H677 H 0.87928 0.52298 0.78753 0.0
O678 O 0.9124 0.44868 0.97182 0.0
C679 C 0.89159 0.54488 0.89313 0.0
Co680 Co 0.60606 0.92622 0.92005 0.0
Co681 Co 0.57843 0.84184 0.89822 0.0
C682 C 0.60538 0.86593 0.9732 0.0
O683 O 0.6252 0.89675 0.9612 0.0
O684 O 0.58381 0.84371 0.95229 0.0
C685 C 0.62274 1.00047 0.95824 0.0
O686 O 0.62424 0.97501 0.9841 0.0
C687 C 0.626 0.77903 0.89262 0.0
C688 C 0.60024 0.72649 0.86064 0.0
C689 C 0.63226 0.73893 0.87979 0.0
N690 N 0.59194 0.78824 0.88399 0.0
N691 N 0.57684 0.75754 0.86347 0.0
C692 C 0.65103 0.80714 0.91597 0.0
H693 H 0.64359 0.84072 0.91536 0.0
H694 H 0.6799 0.80664 0.90827 0.0
H695 H 0.64886 0.79547 0.94233 0.0
C696 C 0.63035 0.93596 0.84798 0.0
N697 N 0.62121 0.91285 0.87574 0.0
N698 N 0.60492 0.87607 0.86567 0.0
C699 C 0.60273 0.87408 0.8312 0.0
C700 C 0.61897 0.91208 0.8182 0.0
C701 C 0.64404 0.98239 0.84996 0.0
H702 H 0.62032 1.00238 0.84798 0.0
H703 H 0.65897 0.99011 0.87452 0.0
H704 H 0.66268 0.99031 0.82881 0.0
O705 O 0.54968 0.92055 0.91822 0.0
O706 O 0.52878 0.85857 0.89218 0.0
H707 H 0.55691 0.82664 0.82807 0.0
H708 H 0.5657 0.8536 0.78895 0.0
C709 C 0.57884 0.84038 0.8117 0.0
H710 H 0.59584 0.81436 0.80341 0.0
H711 H 0.55061 0.75717 0.85226 0.0
O712 O 0.62003 0.98527 0.9282 0.0
C713 C 0.52321 0.89502 0.90571 0.0
Co714 Co 0.90981 0.63781 0.20852 0.0
Co715 Co 0.92684 0.62752 0.13496 0.0
C716 C 0.98389 0.66232 0.18725 0.0
O717 O 0.96323 0.66058 0.21263 0.0
O718 O 0.97116 0.64983 0.15836 0.0
C719 C 0.90003 0.67731 0.26883 0.0
O720 O 0.92279 0.70629 0.25524 0.0
C721 C 0.95026 0.66389 0.07226 0.0
C722 C 0.96875 0.60686 0.04578 0.0
C723 C 0.96661 0.65078 0.04317 0.0
N724 N 0.94273 0.62932 0.09106 0.0
N725 N 0.95488 0.59548 0.07571 0.0
C726 C 0.94042 0.70823 0.08122 0.0
H727 H 0.93467 0.7112 0.10866 0.0
H728 H 0.91574 0.71541 0.066 0.0
H729 H 0.96317 0.73207 0.07477 0.0
C730 C 0.84768 0.68227 0.1794 0.0
N731 N 0.88054 0.66596 0.17635 0.0
N732 N 0.8866 0.65951 0.14395 0.0
C733 C 0.85739 0.67023 0.12529 0.0
C734 C 0.83167 0.68501 0.14722 0.0
C735 C 0.8303 0.69091 0.21265 0.0
H736 H 0.82342 0.66011 0.2254 0.0
H737 H 0.84991 0.71122 0.22919 0.0
H738 H 0.80511 0.70816 0.20939 0.0
O739 O 0.90495 0.57458 0.20015 0.0
O740 O 0.91469 0.56791 0.14505 0.0
H741 H 0.87293 0.63928 0.07872 0.0
H742 H 0.82419 0.63794 0.08518 0.0
C743 C 0.85068 0.65776 0.08855 0.0
H744 H 0.84865 0.68718 0.07356 0.0
H745 H 0.95352 0.56469 0.08559 0.0
O746 O 0.88886 0.64384 0.25206 0.0
C747 C 0.90672 0.55154 0.17331 0.0
Co748 Co 0.37525 0.84728 0.10445 0.0
Co749 Co 0.41685 0.84186 0.16942 0.0
C750 C 0.37156 0.76277 0.14111 0.0
O751 O 0.35835 0.78607 0.11847 0.0
O752 O 0.39458 0.78029 0.1628 0.0
C753 C 0.33736 0.87407 0.04031 0.0
O754 O 0.30606 0.87188 0.02294 0.0
C755 C 0.3984 0.85999 0.23212 0.0
C756 C 0.44948 0.89453 0.2526 0.0
C757 C 0.4116 0.89158 0.25474 0.0
N758 N 0.42695 0.84677 0.21538 0.0
N759 N 0.45776 0.86549 0.2289 0.0
C760 C 0.35921 0.85252 0.2196 0.0
H761 H 0.35635 0.82881 0.19817 0.0
H762 H 0.34879 0.88319 0.21137 0.0
H763 H 0.34195 0.84059 0.24069 0.0
C764 C 0.36586 0.9392 0.12734 0.0
N765 N 0.37255 0.89768 0.1339 0.0
N766 N 0.39748 0.89794 0.15834 0.0
C767 C 0.40929 0.93982 0.16633 0.0
C768 C 0.3888 0.96818 0.14782 0.0
C769 C 0.33968 0.95191 0.10026 0.0
H770 H 0.31831 0.92545 0.09435 0.0
H771 H 0.32622 0.98078 0.10876 0.0
H772 H 0.35499 0.96043 0.07711 0.0
O773 O 0.43053 0.84761 0.09312 0.0
O774 O 0.45885 0.84014 0.14369 0.0
H775 H 0.46028 0.97937 0.16931 0.0
H776 H 0.44201 0.96481 0.20936 0.0
C777 C 0.44581 0.95279 0.18317 0.0
H778 H 0.46326 0.92539 0.18355 0.0
H779 H 0.48351 0.86402 0.21825 0.0
O780 O 0.33879 0.85356 0.06758 0.0
C781 C 0.45963 0.84332 0.11166 0.0
Co782 Co 0.56732 0.21426 0.12797 0.0
Co783 Co 0.59748 0.13711 0.11173 0.0
C784 C 0.60255 0.16049 0.18473 0.0
O785 O 0.58162 0.18905 0.17542 0.0
O786 O 0.61609 0.13786 0.16149 0.0
C787 C 0.61454 0.27705 0.14933 0.0
O788 O 0.6338 0.24336 0.14803 0.0
C789 C 0.61991 0.05335 0.09992 0.0
C790 C 0.59688 0.04255 0.04755 0.0
C791 C 0.61106 1.0223 0.0751 0.0
N792 N 0.60963 0.0901 0.08789 0.0
N793 N 0.59698 0.08397 0.05628 0.0
C794 C 0.62759 0.04642 0.13693 0.0
H795 H 0.64906 0.07102 0.14669 0.0
H796 H 0.63716 1.01414 0.14133 0.0
H797 H 0.60222 0.04997 0.15131 0.0
C798 C 0.59137 0.23077 0.05392 0.0
N799 N 0.59347 0.21236 0.08497 0.0
N800 N 0.6156 0.18189 0.08312 0.0
C801 C 0.62969 0.18079 0.05149 0.0
C802 C 0.61394 0.21076 0.03082 0.0
C803 C 0.56424 0.26242 0.04512 0.0
H804 H 0.55101 0.27395 0.06832 0.0
H805 H 0.57828 0.29001 0.0321 0.0
H806 H 0.54288 0.24699 0.02723 0.0
O807 O 0.51645 0.18957 0.11745 0.0
O808 O 0.54057 0.12741 0.10993 0.0
H809 H 0.64659 0.12774 0.0213 0.0
H810 H 0.68103 0.17074 0.02888 0.0
C811 C 0.65817 0.15155 0.04082 0.0
H812 H 0.66911 0.13473 0.06297 0.0
H813 H 0.5842 0.10676 0.0422 0.0
O814 O 0.58019 0.27292 0.1413 0.0
C815 C 0.51232 0.14922 0.11055 0.0
Co816 Co 0.71508 0.67136 0.97817 0.0
Co817 Co 0.62907 0.6457 0.98616 0.0
C818 C 0.67758 0.58358 0.95878 0.0
O819 O 0.70627 0.60999 0.96178 0.0
O820 O 0.64598 0.59216 0.96927 0.0
C821 C 0.78754 0.68254 0.94829 0.0
O822 O 0.77437 0.6511 0.92765 0.0
C823 C 0.54615 0.62889 0.984 0.0
C824 C 0.53297 0.69684 0.9836 0.0
C825 C 0.51733 0.65522 0.98052 0.0
N826 N 0.57765 0.65426 0.9878 0.0
N827 N 0.56924 0.69467 0.98845 0.0
C828 C 0.54426 0.58102 0.98091 0.0
H829 H 0.57049 0.56915 0.99011 0.0
H830 H 0.53894 0.57096 0.95388 0.0
H831 H 0.52136 0.56666 0.99595 0.0
C832 C 0.68324 0.71697 0.92034 0.0
N833 N 0.68037 0.69868 0.95109 0.0
N834 N 0.64643 0.68207 0.95341 0.0
C835 C 0.62842 0.68497 0.92368 0.0
C836 C 0.64995 0.70907 0.90199 0.0
C837 C 0.71871 0.73382 0.9058 0.0
H838 H 0.73582 0.75249 0.92556 0.0
H839 H 0.7337 0.70628 0.89717 0.0
H840 H 0.71399 0.7538 0.88338 0.0
O841 O 0.70687 0.67417 0.02844 0.0
O842 O 0.64706 0.65775 0.03187 0.0
H843 H 0.56972 0.67615 0.91776 0.0
H844 H 0.59411 0.648 0.88622 0.0
C845 C 0.59401 0.65774 0.91351 0.0
H846 H 0.59179 0.62805 0.92833 0.0
H847 H 0.58866 0.721 0.99035 0.0
O848 O 0.76732 0.69619 0.97131 0.0
C849 C 0.67811 0.66779 0.04582 0.0
Co850 Co 0.40576 0.66528 0.95081 0.0
Co851 Co 0.32168 0.6663 0.93582 0.0
C852 C 0.36325 0.58512 0.91848 0.0
O853 O 0.39335 0.60626 0.92785 0.0
O854 O 0.33342 0.60447 0.91842 0.0
C855 C 0.47839 0.6441 0.97175 0.0
O856 O 0.46279 0.60581 0.9776 0.0
C857 C 0.24698 0.66074 0.89783 0.0
C858 C 0.22168 0.71263 0.9248 0.0
C859 C 0.21509 0.68284 0.89824 0.0
N860 N 0.27129 0.67775 0.92213 0.0
N861 N 0.25563 0.70897 0.9379 0.0
C862 C 0.25255 0.62158 0.87678 0.0
H863 H 0.28193 0.62097 0.87051 0.0
H864 H 0.23524 0.62055 0.8531 0.0
H865 H 0.24445 0.59276 0.89164 0.0
C866 C 0.40618 0.75751 0.92759 0.0
N867 N 0.38921 0.71737 0.93069 0.0
N868 N 0.35413 0.71821 0.92258 0.0
C869 C 0.34847 0.75913 0.91254 0.0
C870 C 0.38113 0.78632 0.91603 0.0
C871 C 0.44586 0.7685 0.93684 0.0
H872 H 0.4627 0.74467 0.92475 0.0
H873 H 0.45547 0.80114 0.92868 0.0
H874 H 0.44991 0.76656 0.9648 0.0
O875 O 0.38565 0.65908 0.99613 0.0
O876 O 0.32515 0.65997 0.98866 0.0
H877 H 0.29734 0.78357 0.92446 0.0
H878 H 0.31553 0.80163 0.88496 0.0
C879 C 0.31203 0.77356 0.90168 0.0
H880 H 0.29544 0.74714 0.88785 0.0
H881 H 0.26788 0.72724 0.95828 0.0
O882 O 0.45938 0.67289 0.95963 0.0
C883 C 0.35362 0.65633 1.00808 0.0
Co884 Co 0.40095 0.41876 0.93991 0.0
Co885 Co 0.31563 0.40833 0.92674 0.0
C886 C 0.36685 0.33579 0.90766 0.0
O887 O 0.39568 0.36027 0.91548 0.0
O888 O 0.33502 0.35036 0.90975 0.0
C889 C 0.48095 0.42571 0.93426 0.0
O890 O 0.47524 0.40373 0.90553 0.0
C891 C 0.24155 0.39181 0.88866 0.0
C892 C 0.21062 0.43762 0.91736 0.0
C893 C 0.2071 0.40824 0.89032 0.0
N894 N 0.26411 0.41124 0.91333 0.0
N895 N 0.24497 0.43823 0.9304 0.0
C896 C 0.25219 0.35667 0.86548 0.0
H897 H 0.25527 0.32742 0.88044 0.0
H898 H 0.27923 0.36612 0.85451 0.0
H899 H 0.23115 0.3493 0.84485 0.0
C900 C 0.39165 0.50953 0.91918 0.0
N901 N 0.37855 0.46762 0.92079 0.0
N902 N 0.34274 0.46459 0.91552 0.0
C903 C 0.33238 0.50514 0.90984 0.0
C904 C 0.36274 0.53597 0.91318 0.0
C905 C 0.43126 0.52406 0.92586 0.0
H906 H 0.44873 0.50062 0.91427 0.0
H907 H 0.43873 0.55579 0.91489 0.0
H908 H 0.43705 0.52561 0.9537 0.0
O909 O 0.37894 0.40692 0.98422 0.0
O910 O 0.31805 0.40142 0.97839 0.0
H911 H 0.27971 0.52222 0.9253 0.0
H912 H 0.29402 0.54378 0.88536 0.0
C913 C 0.29394 0.51519 0.90151 0.0
H914 H 0.279 0.48792 0.88731 0.0
H915 H 0.25542 0.45701 0.95124 0.0
O916 O 0.45374 0.43494 0.95169 0.0
C917 C 0.34733 0.40014 0.99683 0.0
Co918 Co 0.71501 0.42283 0.95321 0.0
Co919 Co 0.63007 0.43319 0.95415 0.0
C920 C 0.65802 0.35679 0.92483 0.0
O921 O 0.69156 0.36892 0.9313 0.0
O922 O 0.63231 0.37958 0.93244 0.0
C923 C 0.77688 0.4287 0.91117 0.0
O924 O 0.75136 0.4293 0.88707 0.0
C925 C 0.5519 0.43011 0.93353 0.0
C926 C 0.52738 0.45819 0.97873 0.0
C927 C 0.51855 0.43837 0.9474 0.0
N928 N 0.57911 0.44385 0.95585 0.0
N929 N 0.56424 0.46091 0.98271 0.0
C930 C 0.55792 0.40821 0.90018 0.0
H931 H 0.5868 0.41463 0.89252 0.0
H932 H 0.53938 0.41968 0.88015 0.0
H933 H 0.55168 0.37307 0.90251 0.0
C934 C 0.70846 0.51475 0.94617 0.0
N935 N 0.69479 0.47409 0.93911 0.0
N936 N 0.6594 0.47429 0.93184 0.0
C937 C 0.65032 0.51481 0.93072 0.0
C938 C 0.6802 0.54154 0.94229 0.0
C939 C 0.74441 0.52608 0.96467 0.0
H940 H 0.75911 0.49713 0.9697 0.0
H941 H 0.76171 0.54857 0.94923 0.0
H942 H 0.73977 0.54265 0.98925 0.0
O943 O 0.70887 0.42007 1.00266 0.0
O944 O 0.64901 0.42993 1.00151 0.0
H945 H 0.59749 0.52853 0.94794 0.0
H946 H 0.61266 0.55869 0.91182 0.0
C947 C 0.61206 0.52683 0.92375 0.0
H948 H 0.59699 0.50249 0.90655 0.0
H949 H 0.57916 0.4731 1.00426 0.0
O950 O 0.76763 0.4256 0.94199 0.0
C951 C 0.67897 0.42469 1.01773 0.0
Co952 Co 0.70987 0.41565 0.12271 0.0
Co953 Co 0.62556 0.43209 0.11271 0.0
C954 C 0.67512 0.49674 0.14741 0.0
O955 O 0.7029 0.47462 0.1438 0.0
O956 O 0.64327 0.48386 0.1357 0.0
C957 C 0.77855 0.39655 0.16052 0.0
O958 O 0.75986 0.39682 0.18856 0.0
C959 C 0.54365 0.4374 0.11572 0.0
C960 C 0.52679 0.39267 0.07277 0.0
C961 C 0.51323 0.4169 0.09864 0.0
N962 N 0.57407 0.42486 0.10104 0.0
N963 N 0.56358 0.39874 0.07506 0.0
C964 C 0.54378 0.46504 0.14715 0.0
H965 H 0.57164 0.46836 0.15896 0.0
H966 H 0.52428 0.45066 0.16564 0.0
H967 H 0.53499 0.4971 0.14052 0.0
C968 C 0.66997 0.33259 0.14537 0.0
N969 N 0.67209 0.37466 0.13802 0.0
N970 N 0.63879 0.38774 0.13973 0.0
C971 C 0.61567 0.35656 0.15137 0.0
C972 C 0.63359 0.31984 0.15299 0.0
C973 C 0.70033 0.30408 0.13962 0.0
H974 H 0.72658 0.32331 0.13552 0.0
H975 H 0.70335 0.28315 0.16178 0.0
H976 H 0.69341 0.28309 0.11684 0.0
O977 O 0.70638 0.41828 0.07264 0.0
O978 O 0.64747 0.42967 0.0682 0.0
H979 H 0.55845 0.35371 0.13716 0.0
H980 H 0.56775 0.33854 0.18004 0.0
C981 C 0.57651 0.3612 0.15993 0.0
H982 H 0.57354 0.39415 0.16959 0.0
H983 H 0.58166 0.38357 0.05959 0.0
O984 O 0.76217 0.40175 0.13215 0.0
C985 C 0.6779 0.42419 0.05476 0.0
Co986 Co 0.71569 0.66699 0.1462 0.0
Co987 Co 0.63064 0.64571 0.14604 0.0
C988 C 0.65555 0.72079 0.16723 0.0
O989 O 0.68794 0.71984 0.15629 0.0
O990 O 0.64166 0.68818 0.18147 0.0
C991 C 0.79258 0.68911 0.13899 0.0
O992 O 0.78246 0.70045 0.10846 0.0
C993 C 0.5478 0.638 0.15261 0.0
C994 C 0.53196 0.60837 0.10234 0.0
C995 C 0.51764 0.6272 0.13067 0.0
N996 N 0.57863 0.62727 0.13733 0.0
N997 N 0.56857 0.60879 0.10759 0.0
C998 C 0.5475 0.66116 0.18627 0.0
H999 H 0.5751 0.66325 0.19888 0.0
H1000 H 0.52742 0.64397 0.20285 0.0
H1001 H 0.53862 0.69395 0.1826 0.0
C1002 C 0.70802 0.57171 0.15808 0.0
N1003 N 0.69459 0.61083 0.15901 0.0
N1004 N 0.65888 0.60491 0.16237 0.0
C1005 C 0.64897 0.56391 0.16758 0.0
C1006 C 0.67904 0.54048 0.16231 0.0
C1007 C 0.74525 0.56394 0.14547 0.0
H1008 H 0.76377 0.59379 0.14705 0.0
H1009 H 0.75724 0.53863 0.16056 0.0
H1010 H 0.74264 0.55243 0.11855 0.0
O1011 O 0.71184 0.66585 0.09749 0.0
O1012 O 0.65075 0.66126 0.09937 0.0
H1013 H 0.59585 0.541 0.14813 0.0
H1014 H 0.60943 0.51818 0.18825 0.0
C1015 C 0.61012 0.54774 0.17312 0.0
H1016 H 0.59568 0.57245 0.18697 0.0
H1017 H 0.58703 0.59868 0.08988 0.0
O1018 O 0.76837 0.67548 0.15965 0.0
C1019 C 0.68056 0.66658 0.08291 0.0
Co1020 Co 0.40124 0.63697 0.11056 0.0
Co1021 Co 0.31599 0.63525 0.11039 0.0
C1022 C 0.36695 0.71442 0.1369 0.0
O1023 O 0.39554 0.69339 0.13645 0.0
O1024 O 0.33596 0.69581 0.12722 0.0
C1025 C 0.47879 0.63703 0.13392 0.0
O1026 O 0.4676 0.65376 0.16235 0.0
C1027 C 0.25012 0.64548 0.15201 0.0
C1028 C 0.20677 0.61139 0.1195 0.0
C1029 C 0.21259 0.63401 0.15022 0.0
N1030 N 0.26557 0.62973 0.12392 0.0
N1031 N 0.23933 0.6092 0.10477 0.0
C1032 C 0.27042 0.67373 0.17852 0.0
H1033 H 0.2984 0.66308 0.18291 0.0
H1034 H 0.25532 0.67341 0.20264 0.0
H1035 H 0.27322 0.70713 0.16934 0.0
C1036 C 0.38613 0.5441 0.13007 0.0
N1037 N 0.37537 0.58453 0.12633 0.0
N1038 N 0.33937 0.58255 0.12393 0.0
C1039 C 0.32634 0.54037 0.12514 0.0
C1040 C 0.35562 0.51352 0.12862 0.0
C1041 C 0.42544 0.53438 0.13308 0.0
H1042 H 0.43598 0.52785 0.10745 0.0
H1043 H 0.4421 0.56177 0.14533 0.0
H1044 H 0.42816 0.50607 0.14912 0.0
O1045 O 0.38189 0.64667 0.06223 0.0
O1046 O 0.32052 0.64111 0.05957 0.0
H1047 H 0.27862 0.53252 0.09247 0.0
H1048 H 0.28061 0.49152 0.12378 0.0
C1049 C 0.28666 0.52599 0.11912 0.0
H1050 H 0.26986 0.54451 0.13628 0.0
H1051 H 0.2435 0.5947 0.08119 0.0
O1052 O 0.4557 0.62835 0.10928 0.0
C1053 C 0.35142 0.64784 0.04521 0.0
Co1054 Co 0.39751 0.39062 0.09615 0.0
Co1055 Co 0.31364 0.37662 0.10123 0.0
C1056 C 0.35598 0.46452 0.12292 0.0
O1057 O 0.3865 0.44804 0.11863 0.0
O1058 O 0.32616 0.44037 0.11828 0.0
C1059 C 0.47431 0.41672 0.10683 0.0
O1060 O 0.46338 0.44261 0.13048 0.0
C1061 C 0.24178 0.37377 0.13558 0.0
C1062 C 0.20965 0.32417 0.10424 0.0
C1063 C 0.20724 0.35202 0.13186 0.0
N1064 N 0.26352 0.35949 0.11132 0.0
N1065 N 0.24411 0.32937 0.093 0.0
C1066 C 0.2526 0.41021 0.15997 0.0
H1067 H 0.28286 0.41534 0.16291 0.0
H1068 H 0.24086 0.40368 0.18517 0.0
H1069 H 0.24122 0.43973 0.15052 0.0
C1070 C 0.39433 0.29769 0.11942 0.0
N1071 N 0.37906 0.33562 0.11435 0.0
N1072 N 0.34332 0.32948 0.11723 0.0
C1073 C 0.33511 0.28743 0.12527 0.0
C1074 C 0.36705 0.26499 0.12667 0.0
C1075 C 0.4339 0.29175 0.11342 0.0
H1076 H 0.44074 0.30211 0.0874 0.0
H1077 H 0.45129 0.31264 0.13162 0.0
H1078 H 0.44016 0.25782 0.11631 0.0
O1079 O 0.3779 0.39458 0.04942 0.0
O1080 O 0.31722 0.38214 0.0496 0.0
H1081 H 0.28215 0.26171 0.10715 0.0
H1082 H 0.29805 0.23762 0.14533 0.0
C1083 C 0.29722 0.2683 0.13173 0.0
H1084 H 0.28228 0.29112 0.14706 0.0
H1085 H 0.25407 0.31334 0.07205 0.0
O1086 O 0.451 0.39124 0.09055 0.0
C1087 C 0.34682 0.39158 0.03378 0.0
Co1088 Co 0.89495 0.59554 0.59805 0.0
Co1089 Co 0.92186 0.60859 0.66787 0.0
C1090 C 0.8954 0.5172 0.64474 0.0
O1091 O 0.88964 0.53452 0.61652 0.0
O1092 O 0.90736 0.54199 0.66942 0.0
C1093 C 0.85353 0.59076 0.53209 0.0
O1094 O 0.82789 0.57067 0.51229 0.0
C1095 C 0.89809 0.62974 0.73067 0.0
C1096 C 0.94619 0.66588 0.75572 0.0
C1097 C 0.90849 0.65695 0.75755 0.0
N1098 N 0.9278 0.62451 0.71263 0.0
N1099 N 0.95685 0.64525 0.72779 0.0
C1100 C 0.85985 0.6139 0.7193 0.0
H1101 H 0.85967 0.59716 0.69414 0.0
H1102 H 0.84226 0.64126 0.71798 0.0
H1103 H 0.84807 0.59109 0.73807 0.0
C1104 C 0.85975 0.68151 0.60975 0.0
N1105 N 0.87397 0.64464 0.62066 0.0
N1106 N 0.8916 0.65344 0.64968 0.0
C1107 C 0.89138 0.69661 0.65663 0.0
C1108 C 0.87079 0.71647 0.63181 0.0
C1109 C 0.83757 0.68494 0.57769 0.0
H1110 H 0.82523 0.653 0.56895 0.0
H1111 H 0.81511 0.70607 0.58194 0.0
H1112 H 0.8551 0.70023 0.55809 0.0
O1113 O 0.951 0.61742 0.59251 0.0
O1114 O 0.96876 0.62046 0.64729 0.0
H1115 H 0.94134 0.70692 0.68652 0.0
H1116 H 0.91811 0.75501 0.6796 0.0
C1117 C 0.91415 0.72013 0.6843 0.0
H1118 H 0.8998 0.71638 0.70859 0.0
H1119 H 0.98302 0.64828 0.71768 0.0
O1120 O 0.86131 0.57509 0.56021 0.0
C1121 C 0.97583 0.62622 0.61627 0.0
Co1122 Co 0.38665 0.92524 0.70831 0.0
Co1123 Co 0.39007 0.92323 0.63037 0.0
C1124 C 0.31921 0.90053 0.66269 0.0
O1125 O 0.33532 0.90636 0.69174 0.0
O1126 O 0.33707 0.9045 0.63541 0.0
C1127 C 0.39544 0.87927 0.76888 0.0
O1128 O 0.39807 0.84575 0.74862 0.0
C1129 C 0.38888 0.90857 0.55589 0.0
C1130 C 0.43299 0.95728 0.54221 0.0
C1131 C 0.40702 0.92668 0.52853 0.0
N1132 N 0.40347 0.92792 0.58447 0.0
N1133 N 0.42999 0.95669 0.57611 0.0
C1134 C 0.35717 0.87521 0.55499 0.0
H1135 H 0.35313 0.86154 0.58051 0.0
H1136 H 0.36201 0.84909 0.53646 0.0
H1137 H 0.33189 0.89004 0.5467 0.0
C1138 C 0.46122 0.8984 0.69842 0.0
N1139 N 0.42596 0.89915 0.68728 0.0
N1140 N 0.42404 0.89121 0.65435 0.0
C1141 C 0.45748 0.88197 0.64395 0.0
C1142 C 0.48266 0.88774 0.67117 0.0
C1143 C 0.47536 0.91832 0.73175 0.0
H1144 H 0.4542 0.93616 0.74417 0.0
H1145 H 0.4838 0.89273 0.74872 0.0
H1146 H 0.49961 0.94125 0.7281 0.0
O1147 O 0.39474 0.98709 0.70292 0.0
O1148 O 0.39778 0.98364 0.64672 0.0
H1149 H 0.47798 0.90223 0.59588 0.0
H1150 H 0.48723 0.84871 0.60674 0.0
C1151 C 0.46628 0.87255 0.60774 0.0
H1152 H 0.44128 0.85958 0.59319 0.0
H1153 H 0.44558 0.9766 0.59361 0.0
O1154 O 0.38936 0.91534 0.75676 0.0
C1155 C 0.39926 1.0051 0.67462 0.0
Co1156 Co 0.05209 0.41766 0.59575 0.0
Co1157 Co 0.07813 0.3377 0.6125 0.0
C1158 C 0.08017 0.4032 0.66993 0.0
O1159 O 0.06494 0.42534 0.64758 0.0
O1160 O 0.09157 0.36773 0.65996 0.0
C1161 C 0.09544 0.48086 0.58354 0.0
O1162 O 0.11616 0.45332 0.59768 0.0
C1163 C 0.12921 0.28129 0.63422 0.0
C1164 C 0.09486 0.22037 0.63515 0.0
C1165 C 0.1287 0.24017 0.6456 0.0
N1166 N 0.09654 0.28584 0.61886 0.0
N1167 N 0.07627 0.24912 0.61869 0.0
C1168 C 0.158 0.31717 0.6418 0.0
H1169 H 0.15286 0.34549 0.62634 0.0
H1170 H 0.18555 0.3064 0.63644 0.0
H1171 H 0.15774 0.32626 0.66922 0.0
C1172 C 0.07868 0.39765 0.52735 0.0
N1173 N 0.07815 0.39056 0.56108 0.0
N1174 N 0.09474 0.35639 0.56801 0.0
C1175 C 0.10746 0.34057 0.53816 0.0
C1176 C 0.09821 0.36704 0.51095 0.0
C1177 C 0.05467 0.42818 0.51055 0.0
H1178 H 0.0268 0.42433 0.52116 0.0
H1179 H 0.06554 0.46168 0.51619 0.0
H1180 H 0.05263 0.42275 0.48268 0.0
O1181 O 1.00281 0.39265 0.59045 0.0
O1182 O 0.02202 0.33142 0.60952 0.0
H1183 H 0.1032 0.27235 0.54168 0.0
H1184 H 0.13337 0.29267 0.50886 0.0
C1185 C 0.12396 0.29846 0.53504 0.0
H1186 H 0.14734 0.29789 0.55358 0.0
H1187 H 0.049 0.24476 0.60988 0.0
O1188 O 0.06063 0.47393 0.58203 0.0
C1189 C 0.99614 0.35405 0.59929 0.0
Co1190 Co 0.62267 0.13165 0.72359 0.0
Co1191 Co 0.61021 0.13876 0.64034 0.0
C1192 C 0.68196 0.15166 0.66872 0.0
O1193 O 0.67248 0.13739 0.69789 0.0
O1194 O 0.6586 0.16633 0.64878 0.0
C1195 C 0.6289 0.17632 0.79504 0.0
O1196 O 0.63556 0.2113 0.77765 0.0
C1197 C 0.61571 0.15705 0.56397 0.0
C1198 C 0.57247 0.11092 0.54174 0.0
C1199 C 0.60045 0.14063 0.53261 0.0
N1200 N 0.59787 0.13759 0.59004 0.0
N1201 N 0.57192 0.1102 0.57611 0.0
C1202 C 0.64756 0.1899 0.56896 0.0
H1203 H 0.64702 0.20568 0.59442 0.0
H1204 H 0.64688 0.21474 0.54931 0.0
H1205 H 0.67351 0.17394 0.56676 0.0
C1206 C 0.54813 0.16315 0.71588 0.0
N1207 N 0.58185 0.15995 0.70295 0.0
N1208 N 0.57953 0.16691 0.66994 0.0
C1209 C 0.54595 0.17834 0.66172 0.0
C1210 C 0.52392 0.17405 0.68999 0.0
C1211 C 0.5374 0.14596 0.74973 0.0
H1212 H 0.55932 0.12777 0.76094 0.0
H1213 H 0.53219 0.17313 0.76713 0.0
H1214 H 0.51186 0.12431 0.74727 0.0
O1215 O 0.60922 0.0704 0.71195 0.0
O1216 O 0.60745 0.07718 0.65525 0.0
H1217 H 0.52349 0.15522 0.6133 0.0
H1218 H 0.51144 0.20816 0.6255 0.0
C1219 C 0.53382 0.18611 0.62587 0.0
H1220 H 0.55723 0.20035 0.61142 0.0
H1221 H 0.55443 0.08974 0.59008 0.0
O1222 O 0.62507 0.14034 0.7782 0.0
C1223 C 0.60592 0.0541 0.68178 0.0
Co1224 Co 0.90929 0.4105 0.37217 0.0
Co1225 Co 0.92301 0.42229 0.44512 0.0
C1226 C 0.88771 0.33516 0.41213 0.0
O1227 O 0.87859 0.35426 0.38527 0.0
O1228 O 0.90592 0.35772 0.43509 0.0
C1229 C 0.90186 0.37668 0.30512 0.0
O1230 O 0.90665 0.33978 0.31922 0.0
C1231 C 0.87306 0.41425 0.49529 0.0
C1232 C 0.90496 0.40237 0.54194 0.0
C1233 C 0.86973 0.39869 0.5276 0.0
N1234 N 0.90861 0.42526 0.49021 0.0
N1235 N 0.92776 0.41901 0.51835 0.0
C1236 C 0.84423 0.41013 0.46727 0.0
H1237 H 0.85493 0.42253 0.4431 0.0
H1238 H 0.82053 0.42813 0.47458 0.0
H1239 H 0.83429 0.37585 0.46312 0.0
C1240 C 0.89577 0.50885 0.37675 0.0
N1241 N 0.89965 0.46882 0.3895 0.0
N1242 N 0.90624 0.47316 0.42226 0.0
C1243 C 0.90665 0.5156 0.43146 0.0
C1244 C 0.8999 0.54095 0.40301 0.0
C1245 C 0.89201 0.5171 0.33962 0.0
H1246 H 0.87885 0.4883 0.32585 0.0
H1247 H 0.87558 0.54498 0.3353 0.0
H1248 H 0.91973 0.52458 0.32937 0.0
O1249 O 0.9627 0.40005 0.38329 0.0
O1250 O 0.97537 0.42147 0.43723 0.0
H1251 H 0.9411 0.55784 0.46467 0.0
H1252 H 0.8947 0.54764 0.4779 0.0
C1253 C 0.91807 0.53266 0.46631 0.0
H1254 H 0.92679 0.50681 0.48276 0.0
H1255 H 0.95639 0.42166 0.5203 0.0
O1256 O 0.90325 0.41101 0.3231 0.0
C1257 C 0.98533 0.40681 0.40866 0.0
Co1258 Co 0.57884 0.9327 0.40379 0.0
Co1259 Co 0.58101 0.93473 0.31868 0.0
C1260 C 0.51059 0.91704 0.36331 0.0
O1261 O 0.52856 0.91814 0.39135 0.0
O1262 O 0.5267 0.92197 0.33465 0.0
C1263 C 0.57029 0.91801 0.48134 0.0
O1264 O 0.54629 0.88508 0.47511 0.0
C1265 C 0.58402 0.90089 0.23954 0.0
C1266 C 0.58532 0.96388 0.21588 0.0
C1267 C 0.58432 0.92062 0.20712 0.0
N1268 N 0.58489 0.93136 0.26548 0.0
N1269 N 0.58606 0.96874 0.25014 0.0
C1270 C 0.58027 0.85368 0.24512 0.0
H1271 H 0.58182 0.84696 0.27268 0.0
H1272 H 0.60229 0.83819 0.23171 0.0
H1273 H 0.55353 0.83989 0.23403 0.0
C1274 C 0.64028 0.88543 0.39548 0.0
N1275 N 0.61022 0.89769 0.37932 0.0
N1276 N 0.61764 0.90636 0.3473 0.0
C1277 C 0.65453 0.90491 0.34422 0.0
C1278 C 0.67042 0.89238 0.37507 0.0
C1279 C 0.6416 0.87638 0.4327 0.0
H1280 H 0.61487 0.86069 0.44035 0.0
H1281 H 0.66391 0.85531 0.43862 0.0
H1282 H 0.64719 0.90682 0.44762 0.0
O1283 O 0.58917 0.99255 0.38944 0.0
O1284 O 0.59096 0.99685 0.33284 0.0
H1285 H 0.67957 0.96044 0.32107 0.0
H1286 H 0.70225 0.91211 0.31333 0.0
C1287 C 0.67509 0.92535 0.31573 0.0
H1288 H 0.6588 0.92029 0.29155 0.0
H1289 H 0.58637 0.99824 0.26316 0.0
O1290 O 0.58548 0.93767 0.45645 0.0
C1291 C 0.59312 1.01436 0.36265 0.0
Co1292 Co 0.09419 0.74491 0.42117 0.0
Co1293 Co 0.09129 0.65549 0.43239 0.0
C1294 C 0.11225 0.70959 0.49176 0.0
O1295 O 0.10096 0.73999 0.47428 0.0
O1296 O 0.11778 0.67508 0.47604 0.0
C1297 C 0.14658 0.81281 0.41484 0.0
O1298 O 0.16986 0.78293 0.41665 0.0
C1299 C 0.11687 0.57615 0.44532 0.0
C1300 C 0.06848 0.54086 0.46654 0.0
C1301 C 0.1059 0.53976 0.46216 0.0
N1302 N 0.0877 0.59853 0.44051 0.0
N1303 N 0.05881 0.57798 0.45389 0.0
C1304 C 0.15496 0.58994 0.43477 0.0
H1305 H 0.15789 0.62493 0.43021 0.0
H1306 H 0.16081 0.57234 0.41096 0.0
H1307 H 0.17527 0.58173 0.45459 0.0
C1308 C 0.12118 0.71892 0.35212 0.0
N1309 N 0.11497 0.71039 0.38528 0.0
N1310 N 0.11311 0.66879 0.38905 0.0
C1311 C 0.11853 0.64934 0.3583 0.0
C1312 C 0.12458 0.6806 0.33336 0.0
C1313 C 0.11656 0.76197 0.33718 0.0
H1314 H 0.10218 0.78265 0.35466 0.0
H1315 H 0.14397 0.77784 0.33182 0.0
H1316 H 0.10003 0.75855 0.31309 0.0
O1317 O 0.04117 0.73796 0.41308 0.0
O1318 O 0.0397 0.67114 0.4313 0.0
H1319 H 0.09367 0.59534 0.32911 0.0
H1320 H 0.13922 0.58926 0.34538 0.0
C1321 C 0.11259 0.602 0.35147 0.0
H1322 H 0.10099 0.5853 0.37375 0.0
H1323 H 0.03296 0.58983 0.45532 0.0
O1324 O 0.11226 0.80265 0.41418 0.0
C1325 C 0.02346 0.70348 0.42171 0.0
Co1326 Co 0.42712 0.15975 0.4446 0.0
Co1327 Co 0.40008 0.18173 0.37554 0.0
C1328 C 0.48024 0.19181 0.39167 0.0
O1329 O 0.4718 0.18025 0.42132 0.0
O1330 O 0.45497 0.19605 0.3695 0.0
C1331 C 0.46225 0.17016 0.51075 0.0
O1332 O 0.4747 0.20983 0.50503 0.0
C1333 C 0.39505 0.20172 0.30883 0.0
C1334 C 0.35436 0.14799 0.29471 0.0
C1335 C 0.38459 0.17226 0.28331 0.0
N1336 N 0.37457 0.19225 0.33559 0.0
N1337 N 0.34842 0.16232 0.32624 0.0
C1338 C 0.42619 0.23589 0.30904 0.0
H1339 H 0.42503 0.25782 0.33151 0.0
H1340 H 0.42474 0.25443 0.28536 0.0
H1341 H 0.45278 0.22134 0.30948 0.0
C1342 C 0.35598 0.18789 0.46262 0.0
N1343 N 0.38562 0.19192 0.4428 0.0
N1344 N 0.37583 0.20599 0.41301 0.0
C1345 C 0.33994 0.21356 0.41374 0.0
C1346 C 0.32557 0.20061 0.44452 0.0
C1347 C 0.35489 0.16176 0.49404 0.0
H1348 H 0.35956 0.12798 0.48723 0.0
H1349 H 0.37738 0.17423 0.51196 0.0
H1350 H 0.32817 0.16266 0.5067 0.0
O1351 O 0.41289 0.10262 0.42857 0.0
O1352 O 0.39297 0.11747 0.37705 0.0
H1353 H 0.30227 0.19956 0.3715 0.0
H1354 H 0.29757 0.24962 0.3931 0.0
C1355 C 0.31788 0.22768 0.38405 0.0
H1356 H 0.3358 0.24486 0.36566 0.0
H1357 H 0.33144 0.14559 0.34317 0.0
O1358 O 0.44148 0.14877 0.48949 0.0
C1359 C 0.39925 0.0906 0.39987 0.0
Co1360 Co 0.59683 0.91855 0.70613 0.0
Co1361 Co 0.58293 0.93521 0.62427 0.0
C1362 C 0.52288 0.89797 0.66849 0.0
O1363 O 0.54358 0.89957 0.69531 0.0
O1364 O 0.53501 0.91006 0.63986 0.0
C1365 C 0.61649 0.92764 0.78209 0.0
O1366 O 0.61987 0.96906 0.77676 0.0
C1367 C 0.56925 0.91546 0.54814 0.0
C1368 C 0.59594 0.97384 0.5262 0.0
C1369 C 0.57806 0.93435 0.51709 0.0
N1370 N 0.58194 0.94229 0.57415 0.0
N1371 N 0.59742 0.97732 0.56048 0.0
C1372 C 0.55062 0.87181 0.55295 0.0
H1373 H 0.55191 0.86312 0.58013 0.0
H1374 H 0.56385 0.84772 0.53728 0.0
H1375 H 0.52147 0.87151 0.54418 0.0
C1376 C 0.65828 0.87369 0.67492 0.0
N1377 N 0.62727 0.89441 0.67202 0.0
N1378 N 0.62121 0.90196 0.63945 0.0
C1379 C 0.64825 0.88716 0.62109 0.0
C1380 C 0.67239 0.86832 0.64267 0.0
C1381 C 0.67447 0.86082 0.70807 0.0
H1382 H 0.68434 0.89013 0.72313 0.0
H1383 H 0.65287 0.84325 0.72282 0.0
H1384 H 0.6976 0.84038 0.70418 0.0
O1385 O 0.60233 0.98271 0.7021 0.0
O1386 O 0.59251 0.9927 0.64652 0.0
H1387 H 0.6513 0.93148 0.5805 0.0
H1388 H 0.68129 0.88964 0.57565 0.0
C1389 C 0.65385 0.89688 0.58437 0.0
H1390 H 0.63265 0.87785 0.56852 0.0
H1391 H 0.60984 1.00345 0.57462 0.0
O1392 O 0.60878 0.90185 0.75649 0.0
C1393 C 0.59981 1.0073 0.67672 0.0
Co1394 Co 0.60627 0.13656 0.41852 0.0
Co1395 Co 0.61194 0.14682 0.3337 0.0
C1396 C 0.67686 0.16633 0.38826 0.0
O1397 O 0.65678 0.15623 0.41314 0.0
O1398 O 0.66398 0.16561 0.35726 0.0
C1399 C 0.61251 0.14934 0.49686 0.0
O1400 O 0.64234 0.17444 0.492 0.0
C1401 C 0.59976 0.17069 0.25347 0.0
C1402 C 0.63096 0.11908 0.23305 0.0
C1403 C 0.61055 0.1519 0.22229 0.0
N1404 N 0.61304 0.14932 0.2808 0.0
N1405 N 0.6318 0.11882 0.26738 0.0
C1406 C 0.57739 0.20849 0.25655 0.0
H1407 H 0.57814 0.221 0.2832 0.0
H1408 H 0.54859 0.19871 0.24832 0.0
H1409 H 0.58798 0.2341 0.23945 0.0
C1410 C 0.54754 0.1901 0.40785 0.0
N1411 N 0.5765 0.17373 0.39374 0.0
N1412 N 0.57198 0.17143 0.36018 0.0
C1413 C 0.53706 0.18167 0.35296 0.0
C1414 C 0.52014 0.19365 0.38325 0.0
C1415 C 0.54491 0.19769 0.44541 0.0
H1416 H 0.5726 0.20677 0.4568 0.0
H1417 H 0.52695 0.22395 0.45078 0.0
H1418 H 0.5332 0.16796 0.45728 0.0
O1419 O 0.59913 0.07773 0.39702 0.0
O1420 O 0.60436 0.08409 0.34086 0.0
H1421 H 0.49066 0.15469 0.32268 0.0
H1422 H 0.51413 0.20229 0.30638 0.0
C1423 C 0.51807 0.17176 0.31929 0.0
H1424 H 0.53472 0.15167 0.30312 0.0
H1425 H 0.64518 0.09691 0.28189 0.0
O1426 O 0.59474 0.13182 0.47077 0.0
C1427 C 0.5994 0.06124 0.36698 0.0
Co1428 Co 0.91945 0.67887 0.37006 0.0
Co1429 Co 0.91125 0.678 0.44319 0.0
C1430 C 0.90232 0.59088 0.40186 0.0
O1431 O 0.90532 0.61166 0.37422 0.0
O1432 O 0.90362 0.613 0.42957 0.0
C1433 C 0.89564 0.67748 0.30488 0.0
O1434 O 0.86731 0.65621 0.31822 0.0
C1435 C 0.86742 0.65201 0.4929 0.0
C1436 C 0.90836 0.64474 0.53424 0.0
C1437 C 0.87402 0.62947 0.52153 0.0
N1438 N 0.89758 0.67756 0.48745 0.0
N1439 N 0.92153 0.67469 0.51286 0.0
C1440 C 0.83636 0.64322 0.46739 0.0
H1441 H 0.8371 0.66787 0.4476 0.0
H1442 H 0.80981 0.64292 0.48048 0.0
H1443 H 0.83795 0.61116 0.45505 0.0
C1444 C 0.8814 0.76271 0.37715 0.0
N1445 N 0.88986 0.72325 0.38782 0.0
N1446 N 0.88572 0.7218 0.42066 0.0
C1447 C 0.8739 0.75962 0.43193 0.0
C1448 C 0.87022 0.78744 0.40473 0.0
C1449 C 0.88952 0.77915 0.34254 0.0
H1450 H 0.91868 0.77523 0.3369 0.0
H1451 H 0.87212 0.75993 0.32333 0.0
H1452 H 0.88408 0.81348 0.34055 0.0
O1453 O 0.97033 0.69221 0.3873 0.0
O1454 O 0.9642 0.6938 0.44318 0.0
H1455 H 0.9 0.77134 0.48089 0.0
H1456 H 0.86197 0.80388 0.47269 0.0
C1457 C 0.87219 0.77165 0.46886 0.0
H1458 H 0.85385 0.7474 0.48164 0.0
H1459 H 0.94863 0.68805 0.513 0.0
O1460 O 0.92313 0.69034 0.32331 0.0
C1461 C 0.98386 0.69826 0.41723 0.0
Co1462 Co 0.39167 0.95538 0.42625 0.0
Co1463 Co 0.37096 0.97141 0.35278 0.0
C1464 C 0.31545 0.93749 0.40355 0.0
O1465 O 0.3395 0.93636 0.42718 0.0
O1466 O 0.32404 0.94994 0.37409 0.0
C1467 C 0.39716 0.92208 0.49232 0.0
O1468 O 0.36936 0.89561 0.4816 0.0
C1469 C 0.3692 0.92189 0.29594 0.0
C1470 C 0.39389 0.96809 0.25984 0.0
C1471 C 0.3898 0.92502 0.26755 0.0
N1472 N 0.36368 0.96183 0.3065 0.0
N1473 N 0.37652 0.98935 0.28387 0.0
C1474 C 0.36371 0.88281 0.31724 0.0
H1475 H 0.35022 0.89006 0.34129 0.0
H1476 H 0.3905 0.86964 0.32292 0.0
H1477 H 0.34642 0.85756 0.30271 0.0
C1478 C 0.4502 0.90883 0.39573 0.0
N1479 N 0.41788 0.92661 0.39321 0.0
N1480 N 0.41475 0.94341 0.36328 0.0
C1481 C 0.4467 0.94097 0.34691 0.0
C1482 C 0.46996 0.91705 0.36613 0.0
C1483 C 0.46439 0.89153 0.42827 0.0
H1484 H 0.44121 0.87796 0.44333 0.0
H1485 H 0.48328 0.86617 0.42308 0.0
H1486 H 0.47952 0.91798 0.44344 0.0
O1487 O 0.39644 1.01887 0.41743 0.0
O1488 O 0.38029 0.03153 0.3638 0.0
H1489 H 0.43905 0.99679 0.31696 0.0
H1490 H 0.48538 0.99148 0.33119 0.0
C1491 C 0.45971 0.97335 0.32149 0.0
H1492 H 0.46628 0.95715 0.29746 0.0
H1493 H 0.37891 1.02263 0.28769 0.0
O1494 O 0.41225 0.94864 0.47205 0.0
C1495 C 0.39136 0.04471 0.39329 0.0
Co1496 Co 0.10593 0.42603 0.41983 0.0
Co1497 Co 0.07834 0.34162 0.398 0.0
C1498 C 0.10532 0.36572 0.47297 0.0
O1499 O 0.12511 0.39657 0.46097 0.0
O1500 O 0.08376 0.34348 0.45207 0.0
C1501 C 0.12266 0.50031 0.45799 0.0
O1502 O 0.12422 0.47487 0.48386 0.0
C1503 C 0.12582 0.27871 0.39248 0.0
C1504 C 0.09997 0.22612 0.36053 0.0
C1505 C 0.13196 0.23856 0.3797 0.0
N1506 N 0.0918 0.288 0.38378 0.0
N1507 N 0.07666 0.25728 0.36329 0.0
C1508 C 0.15088 0.30682 0.4158 0.0
H1509 H 0.14347 0.3404 0.41517 0.0
H1510 H 0.17974 0.30628 0.40809 0.0
H1511 H 0.14873 0.29517 0.44217 0.0
C1512 C 0.13021 0.43579 0.34777 0.0
N1513 N 0.12109 0.41265 0.37552 0.0
N1514 N 0.10483 0.37586 0.36544 0.0
C1515 C 0.10264 0.37389 0.33096 0.0
C1516 C 0.11881 0.41193 0.31798 0.0
C1517 C 0.14392 0.48221 0.34977 0.0
H1518 H 0.1202 0.50222 0.34779 0.0
H1519 H 0.15884 0.48991 0.37433 0.0
H1520 H 0.16256 0.49014 0.32862 0.0
O1521 O 0.04955 0.42033 0.41803 0.0
O1522 O 0.02867 0.35835 0.39198 0.0
H1523 H 0.05685 0.32641 0.32779 0.0
H1524 H 0.06573 0.3533 0.28865 0.0
C1525 C 0.07882 0.34014 0.31145 0.0
H1526 H 0.09586 0.31411 0.30324 0.0
H1527 H 0.05043 0.25696 0.35206 0.0
O1528 O 0.11986 0.48509 0.42796 0.0
C1529 C 0.02309 0.39479 0.40553 0.0
Co1530 Co 0.40972 0.13779 0.7086 0.0
Co1531 Co 0.42674 0.12752 0.63503 0.0
C1532 C 0.48379 0.1625 0.68721 0.0
O1533 O 0.46316 0.16053 0.71262 0.0
O1534 O 0.47107 0.15007 0.65831 0.0
C1535 C 0.40008 0.17745 0.76887 0.0
O1536 O 0.42284 0.20638 0.75523 0.0
C1537 C 0.45015 0.16374 0.5723 0.0
C1538 C 0.46857 0.10665 0.54585 0.0
C1539 C 0.4665 0.15058 0.54323 0.0
N1540 N 0.44256 0.12919 0.59111 0.0
N1541 N 0.45467 0.09531 0.57578 0.0
C1542 C 0.44033 0.2081 0.58123 0.0
H1543 H 0.43458 0.21111 0.60867 0.0
H1544 H 0.41567 0.21528 0.566 0.0
H1545 H 0.4631 0.23191 0.57476 0.0
C1546 C 0.34748 0.18208 0.67949 0.0
N1547 N 0.38038 0.16586 0.67642 0.0
N1548 N 0.38644 0.15942 0.64402 0.0
C1549 C 0.3572 0.17008 0.62537 0.0
C1550 C 0.33144 0.18474 0.64731 0.0
C1551 C 0.33012 0.19072 0.71275 0.0
H1552 H 0.32328 0.15992 0.72551 0.0
H1553 H 0.34974 0.21105 0.72927 0.0
H1554 H 0.30493 0.20796 0.7095 0.0
O1555 O 0.40486 0.07457 0.70032 0.0
O1556 O 0.41472 0.0679 0.64524 0.0
H1557 H 0.37279 0.13922 0.57878 0.0
H1558 H 0.32403 0.13787 0.58519 0.0
C1559 C 0.35052 0.15768 0.58861 0.0
H1560 H 0.34852 0.18713 0.57365 0.0
H1561 H 0.45327 0.06454 0.58568 0.0
O1562 O 0.38886 0.14395 0.75217 0.0
C1563 C 0.40671 0.05153 0.67349 0.0
Co1564 Co 0.87527 0.3472 0.6045 0.0
Co1565 Co 0.91692 0.34173 0.66943 0.0
C1566 C 0.87157 0.26267 0.64113 0.0
O1567 O 0.85835 0.28598 0.61851 0.0
O1568 O 0.89463 0.28016 0.6628 0.0
C1569 C 0.83734 0.37402 0.54037 0.0
O1570 O 0.80601 0.37186 0.52304 0.0
C1571 C 0.89846 0.36003 0.73204 0.0
C1572 C 0.94954 0.39478 0.75235 0.0
C1573 C 0.91166 0.39191 0.75439 0.0
N1574 N 0.92703 0.34664 0.71541 0.0
N1575 N 0.95783 0.36547 0.72886 0.0
C1576 C 0.85927 0.35239 0.71954 0.0
H1577 H 0.85646 0.32867 0.69812 0.0
H1578 H 0.84873 0.38301 0.71131 0.0
H1579 H 0.84207 0.3404 0.74065 0.0
C1580 C 0.86585 0.43908 0.62743 0.0
N1581 N 0.87255 0.39755 0.63398 0.0
N1582 N 0.89755 0.39783 0.65837 0.0
C1583 C 0.90939 0.43971 0.66631 0.0
C1584 C 0.88883 0.46806 0.64786 0.0
C1585 C 0.83963 0.45177 0.60038 0.0
H1586 H 0.81824 0.42531 0.59452 0.0
H1587 H 0.8262 0.48066 0.60888 0.0
H1588 H 0.8549 0.46024 0.5772 0.0
O1589 O 0.93056 0.3476 0.59316 0.0
O1590 O 0.95893 0.34006 0.64369 0.0
H1591 H 0.96045 0.47911 0.66893 0.0
H1592 H 0.94232 0.465 0.70912 0.0
C1593 C 0.946 0.4527 0.68299 0.0
H1594 H 0.96339 0.42525 0.68345 0.0
H1595 H 0.98359 0.36388 0.71826 0.0
O1596 O 0.8388 0.35354 0.56765 0.0
C1597 C 0.95968 0.34334 0.61167 0.0
Co1598 Co 0.06736 0.71414 0.62781 0.0
Co1599 Co 0.09747 0.63695 0.61157 0.0
C1600 C 0.10265 0.66036 0.68455 0.0
O1601 O 0.0817 0.68891 0.67525 0.0
O1602 O 0.11617 0.63773 0.66131 0.0
C1603 C 0.11465 0.77681 0.64928 0.0
O1604 O 0.1339 0.74312 0.64781 0.0
C1605 C 0.11993 0.55318 0.59974 0.0
C1606 C 0.09695 0.54238 0.54735 0.0
C1607 C 0.11116 0.52213 0.57489 0.0
N1608 N 0.10959 0.58992 0.58773 0.0
N1609 N 0.09696 0.58378 0.55611 0.0
C1610 C 0.12761 0.54623 0.63674 0.0
H1611 H 0.1491 0.57083 0.64651 0.0
H1612 H 0.13717 0.51394 0.64114 0.0
H1613 H 0.10226 0.54981 0.65113 0.0
C1614 C 0.09135 0.73063 0.55373 0.0
N1615 N 0.09345 0.71221 0.58478 0.0
N1616 N 0.11555 0.68172 0.58291 0.0
C1617 C 0.12962 0.68061 0.55127 0.0
C1618 C 0.11388 0.7106 0.53061 0.0
C1619 C 0.06424 0.76233 0.54495 0.0
H1620 H 0.05105 0.77386 0.56818 0.0
H1621 H 0.0783 0.78989 0.53193 0.0
H1622 H 0.04286 0.74692 0.52708 0.0
O1623 O 0.01647 0.68945 0.61737 0.0
O1624 O 0.04056 0.62727 0.60986 0.0
H1625 H 0.1465 0.62756 0.52107 0.0
H1626 H 0.18096 0.67054 0.52865 0.0
C1627 C 0.15809 0.65136 0.54058 0.0
H1628 H 0.16904 0.63452 0.56274 0.0
H1629 H 0.08415 0.60656 0.54204 0.0
O1630 O 0.08031 0.77277 0.64122 0.0
C1631 C 0.01231 0.64909 0.6105 0.0
loop_
_geom_bond_atom_site_label_1
_geom_bond_atom_site_label_2
_geom_bond_distance
_geom_bond_site_symmetry_2
_ccdc_geom_bond_type
Co0 O3 1.970 . S
Co0 N17 1.989 . S
Co0 O25 1.967 . S
Co0 O32 1.920 . S
Co1 O4 1.966 . S
Co1 N10 2.022 . S
Co1 N18 1.993 . S
Co1 O26 1.941 . S
C2 O3 1.258 . S
C2 O4 1.263 . S
O3 Co0 1.970 . S
O3 C2 1.258 . S
O4 Co1 1.966 . S
O4 C2 1.263 . S
C5 O6 1.235 . S
C5 O32 1.289 . S
O6 C5 1.235 . S
C7 C9 1.400 1_455 S
C7 N10 1.351 . S
C7 C12 1.501 . S
C8 C9 1.387 1_455 S
C8 N11 1.341 . S
C9 C7 1.400 1_655 S
C9 C8 1.387 1_655 S
N10 Co1 2.022 . S
N10 C7 1.351 . S
N10 N11 1.365 . S
N11 C8 1.341 . S
N11 N10 1.365 . S
N11 H31 0.862 . S
C12 C7 1.501 . S
C12 H13 0.961 . S
C12 H14 0.961 . S
C12 H15 0.960 . S
H13 C12 0.961 . S
H14 C12 0.961 . S
H15 C12 0.960 . S
C16 N17 1.342 . S
C16 C20 1.401 . S
C16 C21 1.499 . S
N17 Co0 1.989 . S
N17 C16 1.342 . S
N17 N18 1.388 . S
N18 Co1 1.993 . S
N18 N17 1.388 . S
N18 C19 1.346 . S
C19 N18 1.346 . S
C19 C20 1.396 . S
C19 C29 1.510 . S
C20 C16 1.401 . S
C20 C19 1.396 . S
C21 C16 1.499 . S
C21 H22 0.959 . S
C21 H23 0.960 . S
C21 H24 0.961 . S
H22 C21 0.959 . S
H23 C21 0.960 . S
H24 C21 0.961 . S
O25 Co0 1.967 . S
O25 C33 1.258 . S
O26 Co1 1.941 . S
O26 C33 1.266 . S
H27 C29 0.959 . S
H28 C29 0.961 . S
C29 C19 1.510 . S
C29 H27 0.959 . S
C29 H28 0.961 . S
C29 H30 0.960 . S
H30 C29 0.960 . S
H31 N11 0.862 . S
O32 Co0 1.920 . S
O32 C5 1.289 . S
C33 O25 1.258 . S
C33 O26 1.266 . S
Co34 O37 1.970 . S
Co34 N51 1.989 . S
Co34 O59 1.967 . S
Co34 O66 1.920 . S
Co35 O38 1.966 . S
Co35 N44 2.022 . S
Co35 N52 1.993 . S
Co35 O60 1.941 . S
C36 O37 1.258 . S
C36 O38 1.263 . S
O37 Co34 1.970 . S
O37 C36 1.258 . S
O38 Co35 1.966 . S
O38 C36 1.263 . S
C39 O40 1.235 . S
C39 O66 1.289 . S
O40 C39 1.235 . S
C41 C43 1.400 . S
C41 N44 1.351 . S
C41 C46 1.501 . S
C42 C43 1.387 . S
C42 N45 1.341 . S
C43 C41 1.400 . S
C43 C42 1.387 . S
N44 Co35 2.022 . S
N44 C41 1.351 . S
N44 N45 1.365 . S
N45 C42 1.341 . S
N45 N44 1.365 . S
N45 H65 0.862 . S
C46 C41 1.501 . S
C46 H47 0.961 . S
C46 H48 0.961 . S
C46 H49 0.960 . S
H47 C46 0.961 . S
H48 C46 0.961 . S
H49 C46 0.960 . S
C50 N51 1.342 . S
C50 C54 1.401 . S
C50 C55 1.499 . S
N51 Co34 1.989 . S
N51 C50 1.342 . S
N51 N52 1.388 . S
N52 Co35 1.993 . S
N52 N51 1.388 . S
N52 C53 1.346 . S
C53 N52 1.346 . S
C53 C54 1.396 . S
C53 C63 1.510 . S
C54 C50 1.401 . S
C54 C53 1.396 . S
C55 C50 1.499 . S
C55 H56 0.959 . S
C55 H57 0.960 . S
C55 H58 0.961 . S
H56 C55 0.959 . S
H57 C55 0.960 . S
H58 C55 0.961 . S
O59 Co34 1.967 . S
O59 C67 1.258 . S
O60 Co35 1.941 . S
O60 C67 1.266 . S
H61 C63 0.959 . S
H62 C63 0.961 . S
C63 C53 1.510 . S
C63 H61 0.959 . S
C63 H62 0.961 . S
C63 H64 0.960 . S
H64 C63 0.960 . S
H65 N45 0.862 . S
O66 Co34 1.920 . S
O66 C39 1.289 . S
C67 O59 1.258 . S
C67 O60 1.266 . S
Co68 O71 1.970 . S
Co68 N85 1.989 . S
Co68 O93 1.967 . S
Co68 O100 1.920 . S
Co69 O72 1.966 . S
Co69 N78 2.022 . S
Co69 N86 1.993 . S
Co69 O94 1.941 . S
C70 O71 1.258 . S
C70 O72 1.263 . S
O71 Co68 1.970 . S
O71 C70 1.258 . S
O72 Co69 1.966 . S
O72 C70 1.263 . S
C73 O74 1.235 . S
C73 O100 1.289 . S
O74 C73 1.235 . S
C75 C77 1.400 . S
C75 N78 1.351 . S
C75 C80 1.501 . S
C76 C77 1.387 . S
C76 N79 1.341 . S
C77 C75 1.400 . S
C77 C76 1.387 . S
N78 Co69 2.022 . S
N78 C75 1.351 . S
N78 N79 1.365 . S
N79 C76 1.341 . S
N79 N78 1.365 . S
N79 H99 0.862 . S
C80 C75 1.501 . S
C80 H81 0.961 . S
C80 H82 0.961 . S
C80 H83 0.960 . S
H81 C80 0.961 . S
H82 C80 0.961 . S
H83 C80 0.960 . S
C84 N85 1.342 . S
C84 C88 1.401 . S
C84 C89 1.499 . S
N85 Co68 1.989 . S
N85 C84 1.342 . S
N85 N86 1.388 . S
N86 Co69 1.993 . S
N86 N85 1.388 . S
N86 C87 1.346 . S
C87 N86 1.346 . S
C87 C88 1.396 . S
C87 C97 1.510 . S
C88 C84 1.401 . S
C88 C87 1.396 . S
C89 C84 1.499 . S
C89 H90 0.959 . S
C89 H91 0.960 . S
C89 H92 0.961 1_565 S
H90 C89 0.959 . S
H91 C89 0.960 . S
H92 C89 0.961 1_545 S
O93 Co68 1.967 . S
O93 C101 1.258 . S
O94 Co69 1.941 . S
O94 C101 1.266 . S
H95 C97 0.959 . S
H96 C97 0.961 . S
C97 C87 1.510 . S
C97 H95 0.959 . S
C97 H96 0.961 . S
C97 H98 0.960 . S
H98 C97 0.960 . S
H99 N79 0.862 . S
O100 Co68 1.920 . S
O100 C73 1.289 . S
C101 O93 1.258 . S
C101 O94 1.266 . S
Co102 O105 1.970 . S
Co102 N119 1.989 . S
Co102 O127 1.967 . S
Co102 O134 1.920 . S
Co103 O106 1.966 . S
Co103 N112 2.022 . S
Co103 N120 1.993 . S
Co103 O128 1.941 . S
C104 O105 1.258 . S
C104 O106 1.263 . S
O105 Co102 1.970 . S
O105 C104 1.258 . S
O106 Co103 1.966 . S
O106 C104 1.263 . S
C107 O108 1.235 . S
C107 O134 1.289 . S
O108 C107 1.235 . S
C109 C111 1.400 . S
C109 N112 1.351 . S
C109 C114 1.501 . S
C110 C111 1.387 . S
C110 N113 1.341 . S
C111 C109 1.400 . S
C111 C110 1.387 . S
N112 Co103 2.022 . S
N112 C109 1.351 . S
N112 N113 1.365 . S
N113 C110 1.341 . S
N113 N112 1.365 . S
N113 H133 0.862 . S
C114 C109 1.501 . S
C114 H115 0.961 . S
C114 H116 0.961 . S
C114 H117 0.960 . S
H115 C114 0.961 . S
H116 C114 0.961 . S
H117 C114 0.960 . S
C118 N119 1.342 . S
C118 C122 1.401 1_565 S
C118 C123 1.499 . S
N119 Co102 1.989 . S
N119 C118 1.342 . S
N119 N120 1.388 . S
N120 Co103 1.993 . S
N120 N119 1.388 . S
N120 C121 1.346 . S
C121 N120 1.346 . S
C121 C122 1.396 1_565 S
C121 C131 1.510 . S
C122 C118 1.401 1_545 S
C122 C121 1.396 1_545 S
C123 C118 1.499 . S
C123 H124 0.959 . S
C123 H125 0.960 1_565 S
C123 H126 0.961 1_565 S
H124 C123 0.959 . S
H125 C123 0.960 1_545 S
H126 C123 0.961 1_545 S
O127 Co102 1.967 . S
O127 C135 1.258 . S
O128 Co103 1.941 . S
O128 C135 1.266 . S
H129 C131 0.959 1_545 S
H130 C131 0.961 . S
C131 C121 1.510 . S
C131 H129 0.959 1_565 S
C131 H130 0.961 . S
C131 H132 0.960 . S
H132 C131 0.960 . S
H133 N113 0.862 . S
O134 Co102 1.920 . S
O134 C107 1.289 . S
C135 O127 1.258 . S
C135 O128 1.266 . S
Co136 O139 1.970 . S
Co136 N153 1.989 . S
Co136 O161 1.967 . S
Co136 O168 1.920 . S
Co137 O140 1.966 . S
Co137 N146 2.022 . S
Co137 N154 1.993 . S
Co137 O162 1.941 . S
C138 O139 1.258 . S
C138 O140 1.263 . S
O139 Co136 1.970 . S
O139 C138 1.258 . S
O140 Co137 1.966 . S
O140 C138 1.263 . S
C141 O142 1.235 . S
C141 O168 1.289 . S
O142 C141 1.235 . S
C143 C145 1.400 . S
C143 N146 1.351 . S
C143 C148 1.501 . S
C144 C145 1.387 . S
C144 N147 1.341 . S
C145 C143 1.400 . S
C145 C144 1.387 . S
N146 Co137 2.022 . S
N146 C143 1.351 . S
N146 N147 1.365 . S
N147 C144 1.341 . S
N147 N146 1.365 . S
N147 H167 0.862 . S
C148 C143 1.501 . S
C148 H149 0.961 . S
C148 H150 0.961 . S
C148 H151 0.960 . S
H149 C148 0.961 . S
H150 C148 0.961 . S
H151 C148 0.960 . S
C152 N153 1.342 . S
C152 C156 1.401 . S
C152 C157 1.499 . S
N153 Co136 1.989 . S
N153 C152 1.342 . S
N153 N154 1.388 . S
N154 Co137 1.993 . S
N154 N153 1.388 . S
N154 C155 1.346 . S
C155 N154 1.346 . S
C155 C156 1.396 . S
C155 C165 1.510 . S
C156 C152 1.401 . S
C156 C155 1.396 . S
C157 C152 1.499 . S
C157 H158 0.959 . S
C157 H159 0.960 . S
C157 H160 0.961 . S
H158 C157 0.959 . S
H159 C157 0.960 . S
H160 C157 0.961 . S
O161 Co136 1.967 . S
O161 C169 1.258 . S
O162 Co137 1.941 . S
O162 C169 1.266 . S
H163 C165 0.959 . S
H164 C165 0.961 . S
C165 C155 1.510 . S
C165 H163 0.959 . S
C165 H164 0.961 . S
C165 H166 0.960 . S
H166 C165 0.960 . S
H167 N147 0.862 . S
O168 Co136 1.920 . S
O168 C141 1.289 . S
C169 O161 1.258 . S
C169 O162 1.266 . S
Co170 O173 1.970 . S
Co170 N187 1.989 . S
Co170 O195 1.967 . S
Co170 O202 1.920 . S
Co171 O174 1.966 . S
Co171 N180 2.022 . S
Co171 N188 1.993 . S
Co171 O196 1.941 . S
C172 O173 1.258 . S
C172 O174 1.263 . S
O173 Co170 1.970 . S
O173 C172 1.258 . S
O174 Co171 1.966 . S
O174 C172 1.263 . S
C175 O176 1.235 . S
C175 O202 1.289 . S
O176 C175 1.235 . S
C177 C179 1.420 . S
C177 N180 1.351 . S
C177 C182 1.501 . S
C178 C179 1.393 . S
C178 N181 1.341 . S
C179 C177 1.420 . S
C179 C178 1.393 . S
N180 Co171 2.022 . S
N180 C177 1.351 . S
N180 N181 1.365 . S
N181 C178 1.341 . S
N181 N180 1.365 . S
N181 H201 0.862 . S
C182 C177 1.501 . S
C182 H183 0.961 . S
C182 H184 0.961 . S
C182 H185 0.960 . S
H183 C182 0.961 . S
H184 C182 0.961 . S
H185 C182 0.960 . S
C186 N187 1.342 . S
C186 C190 1.401 . S
C186 C191 1.499 . S
N187 Co170 1.989 . S
N187 C186 1.342 . S
N187 N188 1.388 . S
N188 Co171 1.993 . S
N188 N187 1.388 . S
N188 C189 1.346 . S
C189 N188 1.346 . S
C189 C190 1.396 . S
C189 C199 1.510 . S
C190 C186 1.401 . S
C190 C189 1.396 . S
C191 C186 1.499 . S
C191 H192 0.959 . S
C191 H193 0.960 . S
C191 H194 0.961 1_545 S
H192 C191 0.959 . S
H193 C191 0.960 . S
H194 C191 0.961 1_565 S
O195 Co170 1.967 . S
O195 C203 1.258 . S
O196 Co171 1.941 . S
O196 C203 1.266 . S
H197 C199 0.959 1_565 S
H198 C199 0.961 . S
C199 C189 1.510 . S
C199 H197 0.959 1_545 S
C199 H198 0.961 . S
C199 H200 0.960 . S
H200 C199 0.960 . S
H201 N181 0.862 . S
O202 Co170 1.920 . S
O202 C175 1.289 . S
C203 O195 1.258 . S
C203 O196 1.266 . S
Co204 O207 1.970 . S
Co204 N221 1.989 . S
Co204 O229 1.967 . S
Co204 O236 1.920 . S
Co205 O208 1.966 . S
Co205 N214 2.022 . S
Co205 N222 1.993 . S
Co205 O230 1.941 . S
C206 O207 1.258 . S
C206 O208 1.263 . S
O207 Co204 1.970 . S
O207 C206 1.258 . S
O208 Co205 1.966 . S
O208 C206 1.263 . S
C209 O210 1.235 . S
C209 O236 1.289 . S
O210 C209 1.235 . S
C211 C213 1.400 . S
C211 N214 1.351 . S
C211 C216 1.501 . S
C212 C213 1.387 . S
C212 N215 1.341 . S
C213 C211 1.400 . S
C213 C212 1.387 . S
N214 Co205 2.022 . S
N214 C211 1.351 . S
N214 N215 1.365 . S
N215 C212 1.341 . S
N215 N214 1.365 . S
N215 H235 0.862 . S
C216 C211 1.501 . S
C216 H217 0.961 . S
C216 H218 0.961 . S
C216 H219 0.960 . S
H217 C216 0.961 . S
H218 C216 0.961 . S
H219 C216 0.960 . S
C220 N221 1.342 . S
C220 C224 1.401 . S
C220 C225 1.499 . S
N221 Co204 1.989 . S
N221 C220 1.342 . S
N221 N222 1.388 . S
N222 Co205 1.993 . S
N222 N221 1.388 . S
N222 C223 1.346 . S
C223 N222 1.346 . S
C223 C224 1.396 . S
C223 C233 1.510 . S
C224 C220 1.401 . S
C224 C223 1.396 . S
C225 C220 1.499 . S
C225 H226 0.959 . S
C225 H227 0.960 . S
C225 H228 0.961 . S
H226 C225 0.959 . S
H227 C225 0.960 . S
H228 C225 0.961 . S
O229 Co204 1.967 . S
O229 C237 1.258 . S
O230 Co205 1.941 . S
O230 C237 1.266 . S
H231 C233 0.959 . S
H232 C233 0.961 . S
C233 C223 1.510 . S
C233 H231 0.959 . S
C233 H232 0.961 . S
C233 H234 0.960 . S
H234 C233 0.960 . S
H235 N215 0.862 . S
O236 Co204 1.920 . S
O236 C209 1.289 . S
C237 O229 1.258 . S
C237 O230 1.266 . S
Co238 O241 1.970 . S
Co238 N255 1.989 . S
Co238 O263 1.967 . S
Co238 O270 1.920 . S
Co239 O242 1.966 . S
Co239 N248 2.022 . S
Co239 N256 1.993 . S
Co239 O264 1.941 . S
C240 O241 1.258 . S
C240 O242 1.263 . S
O241 Co238 1.970 . S
O241 C240 1.258 . S
O242 Co239 1.966 . S
O242 C240 1.263 . S
C243 O244 1.235 . S
C243 O270 1.289 . S
O244 C243 1.235 . S
C245 C247 1.400 . S
C245 N248 1.351 . S
C245 C250 1.501 . S
C246 C247 1.387 . S
C246 N249 1.341 . S
C247 C245 1.400 . S
C247 C246 1.387 . S
N248 Co239 2.022 . S
N248 C245 1.351 . S
N248 N249 1.365 . S
N249 C246 1.341 . S
N249 N248 1.365 . S
N249 H269 0.862 . S
C250 C245 1.501 . S
C250 H251 0.961 . S
C250 H252 0.961 . S
C250 H253 0.960 . S
H251 C250 0.961 . S
H252 C250 0.961 . S
H253 C250 0.960 . S
C254 N255 1.342 . S
C254 C258 1.401 . S
C254 C259 1.499 . S
N255 Co238 1.989 . S
N255 C254 1.342 . S
N255 N256 1.388 . S
N256 Co239 1.993 . S
N256 N255 1.388 . S
N256 C257 1.346 . S
C257 N256 1.346 . S
C257 C258 1.396 . S
C257 C267 1.510 . S
C258 C254 1.401 . S
C258 C257 1.396 . S
C259 C254 1.499 . S
C259 H260 0.959 . S
C259 H261 0.960 . S
C259 H262 0.961 . S
H260 C259 0.959 . S
H261 C259 0.960 . S
H262 C259 0.961 . S
O263 Co238 1.967 . S
O263 C271 1.258 . S
O264 Co239 1.941 . S
O264 C271 1.266 . S
H265 C267 0.959 . S
H266 C267 0.961 . S
C267 C257 1.510 . S
C267 H265 0.959 . S
C267 H266 0.961 . S
C267 H268 0.960 . S
H268 C267 0.960 . S
H269 N249 0.862 . S
O270 Co238 1.920 . S
O270 C243 1.289 . S
C271 O263 1.258 . S
C271 O264 1.266 . S
Co272 O275 1.970 . S
Co272 N289 1.989 . S
Co272 O297 1.967 . S
Co272 O304 1.920 . S
Co273 O276 1.966 . S
Co273 N282 2.022 . S
Co273 N290 1.993 . S
Co273 O298 1.941 . S
C274 O275 1.258 . S
C274 O276 1.263 . S
O275 Co272 1.970 . S
O275 C274 1.258 . S
O276 Co273 1.966 . S
O276 C274 1.263 . S
C277 O278 1.235 . S
C277 O304 1.289 . S
O278 C277 1.235 . S
C279 C281 1.400 . S
C279 N282 1.351 . S
C279 C284 1.501 . S
C280 C281 1.387 . S
C280 N283 1.341 . S
C281 C279 1.400 . S
C281 C280 1.387 . S
N282 Co273 2.022 . S
N282 C279 1.351 . S
N282 N283 1.365 . S
N283 C280 1.341 . S
N283 N282 1.365 . S
N283 H303 0.862 . S
C284 C279 1.501 . S
C284 H285 0.961 . S
C284 H286 0.961 . S
C284 H287 0.960 . S
H285 C284 0.961 . S
H286 C284 0.961 . S
H287 C284 0.960 . S
C288 N289 1.342 . S
C288 C292 1.401 . S
C288 C293 1.499 . S
N289 Co272 1.989 . S
N289 C288 1.342 . S
N289 N290 1.388 . S
N290 Co273 1.993 . S
N290 N289 1.388 . S
N290 C291 1.346 . S
C291 N290 1.346 . S
C291 C292 1.396 . S
C291 C301 1.510 . S
C292 C288 1.401 . S
C292 C291 1.396 . S
C293 C288 1.499 . S
C293 H294 0.959 . S
C293 H295 0.960 . S
C293 H296 0.961 . S
H294 C293 0.959 . S
H295 C293 0.960 . S
H296 C293 0.961 . S
O297 Co272 1.967 . S
O297 C305 1.258 . S
O298 Co273 1.941 . S
O298 C305 1.266 . S
H299 C301 0.959 . S
H300 C301 0.961 . S
C301 C291 1.510 . S
C301 H299 0.959 . S
C301 H300 0.961 . S
C301 H302 0.960 . S
H302 C301 0.960 . S
H303 N283 0.862 . S
O304 Co272 1.920 . S
O304 C277 1.289 . S
C305 O297 1.258 . S
C305 O298 1.266 . S
Co306 O309 1.970 . S
Co306 N323 1.989 . S
Co306 O331 1.967 . S
Co306 O338 1.920 . S
Co307 O310 1.966 . S
Co307 N316 2.022 . S
Co307 N324 1.993 . S
Co307 O332 1.941 . S
C308 O309 1.258 . S
C308 O310 1.263 . S
O309 Co306 1.970 . S
O309 C308 1.258 . S
O310 Co307 1.966 . S
O310 C308 1.263 . S
C311 O312 1.235 . S
C311 O338 1.289 . S
O312 C311 1.235 . S
C313 C315 1.400 . S
C313 N316 1.351 . S
C313 C318 1.501 . S
C314 C315 1.387 . S
C314 N317 1.341 . S
C315 C313 1.400 . S
C315 C314 1.387 . S
N316 Co307 2.022 . S
N316 C313 1.351 . S
N316 N317 1.365 . S
N317 C314 1.341 . S
N317 N316 1.365 . S
N317 H337 0.862 . S
C318 C313 1.501 . S
C318 H319 0.961 . S
C318 H320 0.961 . S
C318 H321 0.960 . S
H319 C318 0.961 . S
H320 C318 0.961 . S
H321 C318 0.960 . S
C322 N323 1.342 . S
C322 C326 1.401 . S
C322 C327 1.499 . S
N323 Co306 1.989 . S
N323 C322 1.342 . S
N323 N324 1.388 . S
N324 Co307 1.993 . S
N324 N323 1.388 . S
N324 C325 1.346 . S
C325 N324 1.346 . S
C325 C326 1.396 . S
C325 C335 1.510 . S
C326 C322 1.401 . S
C326 C325 1.396 . S
C327 C322 1.499 . S
C327 H328 0.959 . S
C327 H329 0.960 . S
C327 H330 0.961 . S
H328 C327 0.959 . S
H329 C327 0.960 . S
H330 C327 0.961 . S
O331 Co306 1.967 . S
O331 C339 1.258 . S
O332 Co307 1.941 . S
O332 C339 1.266 . S
H333 C335 0.959 . S
H334 C335 0.961 . S
C335 C325 1.510 . S
C335 H333 0.959 . S
C335 H334 0.961 . S
C335 H336 0.960 . S
H336 C335 0.960 . S
H337 N317 0.862 . S
O338 Co306 1.920 . S
O338 C311 1.289 . S
C339 O331 1.258 . S
C339 O332 1.266 . S
Co340 O343 1.970 . S
Co340 N357 1.989 . S
Co340 O365 1.967 . S
Co340 O372 1.920 . S
Co341 O344 1.966 . S
Co341 N350 2.022 . S
Co341 N358 1.993 . S
Co341 O366 1.941 . S
C342 O343 1.258 . S
C342 O344 1.263 . S
O343 Co340 1.970 . S
O343 C342 1.258 . S
O344 Co341 1.966 . S
O344 C342 1.263 . S
C345 O346 1.235 . S
C345 O372 1.289 . S
O346 C345 1.235 . S
C347 C349 1.400 . S
C347 N350 1.351 . S
C347 C352 1.501 . S
C348 C349 1.387 . S
C348 N351 1.341 . S
C349 C347 1.400 . S
C349 C348 1.387 . S
N350 Co341 2.022 . S
N350 C347 1.351 . S
N350 N351 1.365 . S
N351 C348 1.341 . S
N351 N350 1.365 . S
N351 H371 0.862 . S
C352 C347 1.501 . S
C352 H353 0.961 . S
C352 H354 0.961 . S
C352 H355 0.960 . S
H353 C352 0.961 . S
H354 C352 0.961 . S
H355 C352 0.960 . S
C356 N357 1.342 . S
C356 C360 1.401 . S
C356 C361 1.499 . S
N357 Co340 1.989 . S
N357 C356 1.342 . S
N357 N358 1.388 . S
N358 Co341 1.993 . S
N358 N357 1.388 . S
N358 C359 1.346 . S
C359 N358 1.346 . S
C359 C360 1.396 . S
C359 C369 1.510 . S
C360 C356 1.401 . S
C360 C359 1.396 . S
C361 C356 1.499 . S
C361 H362 0.959 . S
C361 H363 0.960 . S
C361 H364 0.961 . S
H362 C361 0.959 . S
H363 C361 0.960 . S
H364 C361 0.961 . S
O365 Co340 1.967 . S
O365 C373 1.258 . S
O366 Co341 1.941 . S
O366 C373 1.266 . S
H367 C369 0.959 . S
H368 C369 0.961 . S
C369 C359 1.510 . S
C369 H367 0.959 . S
C369 H368 0.961 . S
C369 H370 0.960 . S
H370 C369 0.960 . S
H371 N351 0.862 . S
O372 Co340 1.920 . S
O372 C345 1.289 . S
C373 O365 1.258 . S
C373 O366 1.266 . S
Co374 O377 1.970 . S
Co374 N391 1.989 . S
Co374 O399 1.967 . S
Co374 O406 1.920 . S
Co375 O378 1.966 . S
Co375 N384 2.022 . S
Co375 N392 1.993 . S
Co375 O400 1.941 . S
C376 O377 1.258 . S
C376 O378 1.263 . S
O377 Co374 1.970 . S
O377 C376 1.258 . S
O378 Co375 1.966 . S
O378 C376 1.263 . S
C379 O380 1.235 . S
C379 O406 1.289 . S
O380 C379 1.235 . S
C381 C383 1.400 . S
C381 N384 1.351 . S
C381 C386 1.501 . S
C382 C383 1.387 . S
C382 N385 1.341 . S
C383 C381 1.400 . S
C383 C382 1.387 . S
N384 Co375 2.022 . S
N384 C381 1.351 . S
N384 N385 1.365 . S
N385 C382 1.341 . S
N385 N384 1.365 . S
N385 H405 0.862 . S
C386 C381 1.501 . S
C386 H387 0.961 . S
C386 H388 0.961 . S
C386 H389 0.960 . S
H387 C386 0.961 . S
H388 C386 0.961 . S
H389 C386 0.960 . S
C390 N391 1.342 . S
C390 C394 1.401 . S
C390 C395 1.499 . S
N391 Co374 1.989 . S
N391 C390 1.342 . S
N391 N392 1.388 . S
N392 Co375 1.993 . S
N392 N391 1.388 . S
N392 C393 1.346 . S
C393 N392 1.346 . S
C393 C394 1.396 . S
C393 C403 1.510 . S
C394 C390 1.401 . S
C394 C393 1.396 . S
C395 C390 1.499 . S
C395 H396 0.959 . S
C395 H397 0.960 . S
C395 H398 0.961 . S
H396 C395 0.959 . S
H397 C395 0.960 . S
H398 C395 0.961 . S
O399 Co374 1.967 . S
O399 C407 1.258 . S
O400 Co375 1.941 . S
O400 C407 1.266 . S
H401 C403 0.959 . S
H402 C403 0.961 . S
C403 C393 1.510 . S
C403 H401 0.959 . S
C403 H402 0.961 . S
C403 H404 0.960 . S
H404 C403 0.960 . S
H405 N385 0.862 . S
O406 Co374 1.920 . S
O406 C379 1.289 . S
C407 O399 1.258 . S
C407 O400 1.266 . S
Co408 O411 1.970 . S
Co408 N425 1.989 . S
Co408 O433 1.967 . S
Co408 O440 1.920 . S
Co409 O412 1.966 . S
Co409 N418 2.022 . S
Co409 N426 1.993 . S
Co409 O434 1.941 . S
C410 O411 1.258 . S
C410 O412 1.263 . S
O411 Co408 1.970 . S
O411 C410 1.258 . S
O412 Co409 1.966 . S
O412 C410 1.263 . S
C413 O414 1.235 . S
C413 O440 1.289 . S
O414 C413 1.235 . S
C415 C417 1.400 1_556 S
C415 N418 1.351 . S
C415 C420 1.501 . S
C416 C417 1.387 . S
C416 N419 1.341 1_554 S
C417 C415 1.400 1_554 S
C417 C416 1.387 . S
N418 Co409 2.022 . S
N418 C415 1.351 . S
N418 N419 1.365 . S
N419 C416 1.341 1_556 S
N419 N418 1.365 . S
N419 H439 0.862 . S
C420 C415 1.501 . S
C420 H421 0.961 . S
C420 H422 0.961 . S
C420 H423 0.960 . S
H421 C420 0.961 . S
H422 C420 0.961 . S
H423 C420 0.960 . S
C424 N425 1.342 . S
C424 C428 1.401 . S
C424 C429 1.499 . S
N425 Co408 1.989 . S
N425 C424 1.342 . S
N425 N426 1.388 . S
N426 Co409 1.993 . S
N426 N425 1.388 . S
N426 C427 1.346 . S
C427 N426 1.346 . S
C427 C428 1.396 . S
C427 C437 1.510 . S
C428 C424 1.401 . S
C428 C427 1.396 . S
C429 C424 1.499 . S
C429 H430 0.959 . S
C429 H431 0.960 . S
C429 H432 0.961 . S
H430 C429 0.959 . S
H431 C429 0.960 . S
H432 C429 0.961 . S
O433 Co408 1.967 . S
O433 C441 1.258 . S
O434 Co409 1.941 . S
O434 C441 1.266 . S
H435 C437 0.959 . S
H436 C437 0.961 . S
C437 C427 1.510 . S
C437 H435 0.959 . S
C437 H436 0.961 . S
C437 H438 0.960 . S
H438 C437 0.960 . S
H439 N419 0.862 . S
O440 Co408 1.920 . S
O440 C413 1.289 . S
C441 O433 1.258 . S
C441 O434 1.266 . S
Co442 O445 1.970 . S
Co442 N459 1.989 . S
Co442 O467 1.967 . S
Co442 O474 1.920 . S
Co443 O446 1.966 . S
Co443 N452 2.022 . S
Co443 N460 1.993 . S
Co443 O468 1.941 . S
C444 O445 1.258 . S
C444 O446 1.263 . S
O445 Co442 1.970 . S
O445 C444 1.258 . S
O446 Co443 1.966 . S
O446 C444 1.263 . S
C447 O448 1.235 . S
C447 O474 1.289 . S
O448 C447 1.235 . S
C449 C451 1.400 . S
C449 N452 1.351 . S
C449 C454 1.501 . S
C450 C451 1.387 . S
C450 N453 1.341 . S
C451 C449 1.400 . S
C451 C450 1.387 . S
N452 Co443 2.022 . S
N452 C449 1.351 . S
N452 N453 1.365 . S
N453 C450 1.341 . S
N453 N452 1.365 . S
N453 H473 0.862 . S
C454 C449 1.501 . S
C454 H455 0.961 . S
C454 H456 0.961 . S
C454 H457 0.960 . S
H455 C454 0.961 . S
H456 C454 0.961 . S
H457 C454 0.960 . S
C458 N459 1.342 . S
C458 C462 1.401 . S
C458 C463 1.499 . S
N459 Co442 1.989 . S
N459 C458 1.342 . S
N459 N460 1.388 . S
N460 Co443 1.993 . S
N460 N459 1.388 . S
N460 C461 1.346 . S
C461 N460 1.346 . S
C461 C462 1.396 . S
C461 C471 1.510 . S
C462 C458 1.401 . S
C462 C461 1.396 . S
C463 C458 1.499 . S
C463 H464 0.959 . S
C463 H465 0.960 . S
C463 H466 0.961 . S
H464 C463 0.959 . S
H465 C463 0.960 . S
H466 C463 0.961 . S
O467 Co442 1.967 . S
O467 C475 1.258 . S
O468 Co443 1.941 . S
O468 C475 1.266 . S
H469 C471 0.959 . S
H470 C471 0.961 . S
C471 C461 1.510 . S
C471 H469 0.959 . S
C471 H470 0.961 . S
C471 H472 0.960 . S
H472 C471 0.960 . S
H473 N453 0.862 . S
O474 Co442 1.920 . S
O474 C447 1.289 . S
C475 O467 1.258 . S
C475 O468 1.266 . S
Co476 O479 1.970 . S
Co476 N493 1.989 . S
Co476 O501 1.967 . S
Co476 O508 1.920 . S
Co477 O480 1.966 . S
Co477 N486 2.022 . S
Co477 N494 1.993 . S
Co477 O502 1.941 . S
C478 O479 1.258 . S
C478 O480 1.263 . S
O479 Co476 1.970 . S
O479 C478 1.258 . S
O480 Co477 1.966 . S
O480 C478 1.263 . S
C481 O482 1.235 . S
C481 O508 1.289 . S
O482 C481 1.235 . S
C483 C485 1.400 1_545 S
C483 N486 1.351 . S
C483 C488 1.501 . S
C484 C485 1.391 . S
C484 N487 1.319 1_565 S
C485 C483 1.400 1_565 S
C485 C484 1.391 . S
N486 Co477 2.022 . S
N486 C483 1.351 . S
N486 N487 1.365 . S
N487 C484 1.319 1_545 S
N487 N486 1.365 . S
N487 H507 0.862 . S
C488 C483 1.501 . S
C488 H489 0.961 . S
C488 H490 0.961 . S
C488 H491 0.960 . S
H489 C488 0.961 . S
H490 C488 0.961 . S
H491 C488 0.960 . S
C492 N493 1.342 . S
C492 C496 1.401 . S
C492 C497 1.499 . S
N493 Co476 1.989 . S
N493 C492 1.342 . S
N493 N494 1.388 . S
N494 Co477 1.993 . S
N494 N493 1.388 . S
N494 C495 1.346 . S
C495 N494 1.346 . S
C495 C496 1.396 . S
C495 C505 1.510 . S
C496 C492 1.401 . S
C496 C495 1.396 . S
C497 C492 1.499 . S
C497 H498 0.959 . S
C497 H499 0.960 . S
C497 H500 0.961 . S
H498 C497 0.959 . S
H499 C497 0.960 . S
H500 C497 0.961 . S
O501 Co476 1.967 . S
O501 C509 1.258 . S
O502 Co477 1.941 . S
O502 C509 1.266 . S
H503 C505 0.959 . S
H504 C505 0.961 . S
C505 C495 1.510 . S
C505 H503 0.959 . S
C505 H504 0.961 . S
C505 H506 0.960 . S
H506 C505 0.960 . S
H507 N487 0.862 . S
O508 Co476 1.920 . S
O508 C481 1.289 . S
C509 O501 1.258 . S
C509 O502 1.266 . S
Co510 O513 1.970 . S
Co510 N527 1.989 . S
Co510 O535 1.967 . S
Co510 O542 1.920 . S
Co511 O514 1.966 . S
Co511 N520 2.022 . S
Co511 N528 1.993 . S
Co511 O536 1.941 . S
C512 O513 1.258 . S
C512 O514 1.263 . S
O513 Co510 1.970 . S
O513 C512 1.258 . S
O514 Co511 1.966 . S
O514 C512 1.263 . S
C515 O516 1.226 1_554 S
C515 O542 1.277 1_554 S
O516 C515 1.226 1_556 S
C517 C519 1.400 . S
C517 N520 1.351 . S
C517 C522 1.501 . S
C518 C519 1.387 . S
C518 N521 1.341 . S
C519 C517 1.400 . S
C519 C518 1.387 . S
N520 Co511 2.022 . S
N520 C517 1.351 . S
N520 N521 1.365 . S
N521 C518 1.341 . S
N521 N520 1.365 . S
N521 H541 0.862 . S
C522 C517 1.501 . S
C522 H523 0.961 . S
C522 H524 0.961 . S
C522 H525 0.960 . S
H523 C522 0.961 . S
H524 C522 0.961 . S
H525 C522 0.960 . S
C526 N527 1.342 . S
C526 C530 1.401 . S
C526 C531 1.499 . S
N527 Co510 1.989 . S
N527 C526 1.342 . S
N527 N528 1.388 . S
N528 Co511 1.993 . S
N528 N527 1.388 . S
N528 C529 1.346 . S
C529 N528 1.346 . S
C529 C530 1.396 . S
C529 C539 1.510 . S
C530 C526 1.401 . S
C530 C529 1.396 . S
C531 C526 1.499 . S
C531 H532 0.959 . S
C531 H533 0.960 . S
C531 H534 0.961 . S
H532 C531 0.959 . S
H533 C531 0.960 . S
H534 C531 0.961 . S
O535 Co510 1.967 . S
O535 C543 1.258 . S
O536 Co511 1.941 . S
O536 C543 1.266 . S
H537 C539 0.959 . S
H538 C539 0.961 . S
C539 C529 1.510 . S
C539 H537 0.959 . S
C539 H538 0.961 . S
C539 H540 0.960 . S
H540 C539 0.960 . S
H541 N521 0.862 . S
O542 Co510 1.920 . S
O542 C515 1.277 1_556 S
C543 O535 1.258 . S
C543 O536 1.266 . S
Co544 O547 1.970 . S
Co544 N561 1.989 . S
Co544 O569 1.967 . S
Co544 O576 1.920 . S
Co545 O548 1.966 . S
Co545 N554 2.022 . S
Co545 N562 1.993 . S
Co545 O570 1.941 . S
C546 O547 1.258 . S
C546 O548 1.263 . S
O547 Co544 1.970 . S
O547 C546 1.258 . S
O548 Co545 1.966 . S
O548 C546 1.263 . S
C549 O550 1.235 . S
C549 O576 1.289 . S
O550 C549 1.235 . S
C551 C553 1.400 . S
C551 N554 1.351 . S
C551 C556 1.501 . S
C552 C553 1.387 . S
C552 N555 1.341 . S
C553 C551 1.400 . S
C553 C552 1.387 . S
N554 Co545 2.022 . S
N554 C551 1.351 . S
N554 N555 1.365 . S
N555 C552 1.341 . S
N555 N554 1.365 . S
N555 H575 0.862 . S
C556 C551 1.501 . S
C556 H557 0.961 . S
C556 H558 0.961 . S
C556 H559 0.960 . S
H557 C556 0.961 . S
H558 C556 0.961 . S
H559 C556 0.960 . S
C560 N561 1.342 . S
C560 C564 1.401 . S
C560 C565 1.499 . S
N561 Co544 1.989 . S
N561 C560 1.342 . S
N561 N562 1.388 . S
N562 Co545 1.993 . S
N562 N561 1.388 . S
N562 C563 1.346 . S
C563 N562 1.346 . S
C563 C564 1.396 . S
C563 C573 1.510 . S
C564 C560 1.401 . S
C564 C563 1.396 . S
C565 C560 1.499 . S
C565 H566 0.959 . S
C565 H567 0.960 . S
C565 H568 0.961 . S
H566 C565 0.959 . S
H567 C565 0.960 . S
H568 C565 0.961 . S
O569 Co544 1.967 . S
O569 C577 1.258 . S
O570 Co545 1.941 . S
O570 C577 1.266 . S
H571 C573 0.959 . S
H572 C573 0.961 . S
C573 C563 1.510 . S
C573 H571 0.959 . S
C573 H572 0.961 . S
C573 H574 0.960 . S
H574 C573 0.960 . S
H575 N555 0.862 . S
O576 Co544 1.920 . S
O576 C549 1.289 . S
C577 O569 1.258 . S
C577 O570 1.266 . S
Co578 O581 1.970 . S
Co578 N595 1.989 . S
Co578 O603 1.967 . S
Co578 O610 1.920 . S
Co579 O582 1.966 . S
Co579 N588 2.022 . S
Co579 N596 1.993 . S
Co579 O604 1.941 . S
C580 O581 1.258 . S
C580 O582 1.263 . S
O581 Co578 1.970 . S
O581 C580 1.258 . S
O582 Co579 1.966 . S
O582 C580 1.263 . S
C583 O584 1.235 . S
C583 O610 1.289 . S
O584 C583 1.235 . S
C585 C587 1.400 . S
C585 N588 1.351 . S
C585 C590 1.501 . S
C586 C587 1.387 . S
C586 N589 1.341 . S
C587 C585 1.400 . S
C587 C586 1.387 . S
N588 Co579 2.022 . S
N588 C585 1.351 . S
N588 N589 1.365 . S
N589 C586 1.341 . S
N589 N588 1.365 . S
N589 H609 0.862 . S
C590 C585 1.501 . S
C590 H591 0.961 . S
C590 H592 0.961 . S
C590 H593 0.960 . S
H591 C590 0.961 . S
H592 C590 0.961 . S
H593 C590 0.960 . S
C594 N595 1.342 . S
C594 C598 1.401 . S
C594 C599 1.499 . S
N595 Co578 1.989 . S
N595 C594 1.342 . S
N595 N596 1.388 . S
N596 Co579 1.993 . S
N596 N595 1.388 . S
N596 C597 1.346 . S
C597 N596 1.346 . S
C597 C598 1.396 . S
C597 C607 1.510 . S
C598 C594 1.401 . S
C598 C597 1.396 . S
C599 C594 1.499 . S
C599 H600 0.959 . S
C599 H601 0.960 . S
C599 H602 0.961 1_455 S
H600 C599 0.959 . S
H601 C599 0.960 . S
H602 C599 0.961 1_655 S
O603 Co578 1.967 . S
O603 C611 1.258 . S
O604 Co579 1.941 . S
O604 C611 1.266 . S
H605 C607 0.959 1_655 S
H606 C607 0.961 . S
C607 C597 1.510 . S
C607 H605 0.959 1_455 S
C607 H606 0.961 . S
C607 H608 0.960 . S
H608 C607 0.960 . S
H609 N589 0.862 . S
O610 Co578 1.920 . S
O610 C583 1.289 . S
C611 O603 1.258 . S
C611 O604 1.266 . S
Co612 O615 1.970 . S
Co612 N629 1.989 . S
Co612 O637 1.967 . S
Co612 O644 1.920 . S
Co613 O616 1.966 . S
Co613 N622 2.022 . S
Co613 N630 1.993 . S
Co613 O638 1.941 . S
C614 O615 1.258 . S
C614 O616 1.263 . S
O615 Co612 1.970 . S
O615 C614 1.258 . S
O616 Co613 1.966 . S
O616 C614 1.263 . S
C617 O618 1.235 . S
C617 O644 1.289 . S
O618 C617 1.235 . S
C619 C621 1.400 1_556 S
C619 N622 1.351 . S
C619 C624 1.501 . S
C620 C621 1.387 . S
C620 N623 1.341 1_554 S
C621 C619 1.400 1_554 S
C621 C620 1.387 . S
N622 Co613 2.022 . S
N622 C619 1.351 . S
N622 N623 1.365 . S
N623 C620 1.341 1_556 S
N623 N622 1.365 . S
N623 H643 0.862 . S
C624 C619 1.501 . S
C624 H625 0.961 . S
C624 H626 0.961 . S
C624 H627 0.960 . S
H625 C624 0.961 . S
H626 C624 0.961 . S
H627 C624 0.960 . S
C628 N629 1.342 . S
C628 C632 1.401 . S
C628 C633 1.499 . S
N629 Co612 1.989 . S
N629 C628 1.342 . S
N629 N630 1.388 . S
N630 Co613 1.993 . S
N630 N629 1.388 . S
N630 C631 1.346 . S
C631 N630 1.346 . S
C631 C632 1.396 . S
C631 C641 1.510 . S
C632 C628 1.401 . S
C632 C631 1.396 . S
C633 C628 1.499 . S
C633 H634 0.959 . S
C633 H635 0.960 . S
C633 H636 0.961 . S
H634 C633 0.959 . S
H635 C633 0.960 . S
H636 C633 0.961 . S
O637 Co612 1.967 . S
O637 C645 1.258 . S
O638 Co613 1.941 . S
O638 C645 1.266 . S
H639 C641 0.959 . S
H640 C641 0.961 . S
C641 C631 1.510 . S
C641 H639 0.959 . S
C641 H640 0.961 . S
C641 H642 0.960 . S
H642 C641 0.960 . S
H643 N623 0.862 . S
O644 Co612 1.920 . S
O644 C617 1.289 . S
C645 O637 1.258 . S
C645 O638 1.266 . S
Co646 O649 1.970 . S
Co646 N663 1.989 . S
Co646 O671 1.967 . S
Co646 O678 1.920 . S
Co647 O650 1.966 . S
Co647 N656 2.022 . S
Co647 N664 1.993 . S
Co647 O672 1.941 . S
C648 O649 1.258 . S
C648 O650 1.263 . S
O649 Co646 1.970 . S
O649 C648 1.258 . S
O650 Co647 1.966 . S
O650 C648 1.263 . S
C651 O652 1.235 . S
C651 O678 1.289 . S
O652 C651 1.235 . S
C653 C655 1.400 . S
C653 N656 1.351 . S
C653 C658 1.501 . S
C654 C655 1.387 . S
C654 N657 1.341 . S
C655 C653 1.400 . S
C655 C654 1.387 . S
N656 Co647 2.022 . S
N656 C653 1.351 . S
N656 N657 1.365 . S
N657 C654 1.341 . S
N657 N656 1.365 . S
N657 H677 0.862 . S
C658 C653 1.501 . S
C658 H659 0.961 . S
C658 H660 0.961 . S
C658 H661 0.960 . S
H659 C658 0.961 . S
H660 C658 0.961 . S
H661 C658 0.960 . S
C662 N663 1.342 . S
C662 C666 1.401 . S
C662 C667 1.499 . S
N663 Co646 1.989 . S
N663 C662 1.342 . S
N663 N664 1.388 . S
N664 Co647 1.993 . S
N664 N663 1.388 . S
N664 C665 1.346 . S
C665 N664 1.346 . S
C665 C666 1.396 . S
C665 C675 1.510 . S
C666 C662 1.401 . S
C666 C665 1.396 . S
C667 C662 1.499 . S
C667 H668 0.959 . S
C667 H669 0.960 . S
C667 H670 0.934 1_655 S
H668 C667 0.959 . S
H669 C667 0.960 . S
H670 C667 0.934 1_455 S
O671 Co646 1.967 . S
O671 C679 1.258 . S
O672 Co647 1.941 . S
O672 C679 1.266 . S
H673 C675 0.959 . S
H674 C675 0.961 . S
C675 C665 1.510 . S
C675 H673 0.959 . S
C675 H674 0.961 . S
C675 H676 0.960 . S
H676 C675 0.960 . S
H677 N657 0.862 . S
O678 Co646 1.920 . S
O678 C651 1.289 . S
C679 O671 1.258 . S
C679 O672 1.266 . S
Co680 O683 1.970 . S
Co680 N697 1.989 . S
Co680 O705 1.967 . S
Co680 O712 1.920 . S
Co681 O684 1.966 . S
Co681 N690 2.022 . S
Co681 N698 1.993 . S
Co681 O706 1.941 . S
C682 O683 1.258 . S
C682 O684 1.263 . S
O683 Co680 1.970 . S
O683 C682 1.258 . S
O684 Co681 1.966 . S
O684 C682 1.263 . S
C685 O686 1.235 . S
C685 O712 1.289 . S
O686 C685 1.235 . S
C687 C689 1.400 . S
C687 N690 1.351 . S
C687 C692 1.501 . S
C688 C689 1.387 . S
C688 N691 1.341 . S
C689 C687 1.400 . S
C689 C688 1.387 . S
N690 Co681 2.022 . S
N690 C687 1.351 . S
N690 N691 1.365 . S
N691 C688 1.341 . S
N691 N690 1.365 . S
N691 H711 0.862 . S
C692 C687 1.501 . S
C692 H693 0.961 . S
C692 H694 0.961 . S
C692 H695 0.960 . S
H693 C692 0.961 . S
H694 C692 0.961 . S
H695 C692 0.960 . S
C696 N697 1.342 . S
C696 C700 1.401 . S
C696 C701 1.499 . S
N697 Co680 1.989 . S
N697 C696 1.342 . S
N697 N698 1.388 . S
N698 Co681 1.993 . S
N698 N697 1.388 . S
N698 C699 1.346 . S
C699 N698 1.346 . S
C699 C700 1.396 . S
C699 C709 1.510 . S
C700 C696 1.401 . S
C700 C699 1.396 . S
C701 C696 1.499 . S
C701 H702 0.959 . S
C701 H703 0.960 . S
C701 H704 0.961 . S
H702 C701 0.959 . S
H703 C701 0.960 . S
H704 C701 0.961 . S
O705 Co680 1.967 . S
O705 C713 1.258 . S
O706 Co681 1.941 . S
O706 C713 1.266 . S
H707 C709 0.959 . S
H708 C709 0.961 . S
C709 C699 1.510 . S
C709 H707 0.959 . S
C709 H708 0.961 . S
C709 H710 0.960 . S
H710 C709 0.960 . S
H711 N691 0.862 . S
O712 Co680 1.920 . S
O712 C685 1.289 . S
C713 O705 1.258 . S
C713 O706 1.266 . S
Co714 O717 1.970 . S
Co714 N731 1.989 . S
Co714 O739 1.967 . S
Co714 O746 1.920 . S
Co715 O718 1.966 . S
Co715 N724 2.022 . S
Co715 N732 1.993 . S
Co715 O740 1.941 . S
C716 O717 1.258 . S
C716 O718 1.263 . S
O717 Co714 1.970 . S
O717 C716 1.258 . S
O718 Co715 1.966 . S
O718 C716 1.263 . S
C719 O720 1.235 . S
C719 O746 1.289 . S
O720 C719 1.235 . S
C721 C723 1.400 . S
C721 N724 1.351 . S
C721 C726 1.501 . S
C722 C723 1.387 . S
C722 N725 1.341 . S
C723 C721 1.400 . S
C723 C722 1.387 . S
N724 Co715 2.022 . S
N724 C721 1.351 . S
N724 N725 1.365 . S
N725 C722 1.341 . S
N725 N724 1.365 . S
N725 H745 0.862 . S
C726 C721 1.501 . S
C726 H727 0.961 . S
C726 H728 0.961 . S
C726 H729 0.960 . S
H727 C726 0.961 . S
H728 C726 0.961 . S
H729 C726 0.960 . S
C730 N731 1.342 . S
C730 C734 1.401 . S
C730 C735 1.499 . S
N731 Co714 1.989 . S
N731 C730 1.342 . S
N731 N732 1.388 . S
N732 Co715 1.993 . S
N732 N731 1.388 . S
N732 C733 1.346 . S
C733 N732 1.346 . S
C733 C734 1.396 . S
C733 C743 1.510 . S
C734 C730 1.401 . S
C734 C733 1.396 . S
C735 C730 1.499 . S
C735 H736 0.959 . S
C735 H737 0.960 . S
C735 H738 0.961 . S
H736 C735 0.959 . S
H737 C735 0.960 . S
H738 C735 0.961 . S
O739 Co714 1.967 . S
O739 C747 1.258 . S
O740 Co715 1.941 . S
O740 C747 1.266 . S
H741 C743 0.959 . S
H742 C743 0.961 . S
C743 C733 1.510 . S
C743 H741 0.959 . S
C743 H742 0.961 . S
C743 H744 0.960 . S
H744 C743 0.960 . S
H745 N725 0.862 . S
O746 Co714 1.920 . S
O746 C719 1.289 . S
C747 O739 1.258 . S
C747 O740 1.266 . S
Co748 O751 1.970 . S
Co748 N765 1.989 . S
Co748 O773 1.967 . S
Co748 O780 1.920 . S
Co749 O752 1.966 . S
Co749 N758 2.022 . S
Co749 N766 1.993 . S
Co749 O774 1.941 . S
C750 O751 1.258 . S
C750 O752 1.263 . S
O751 Co748 1.970 . S
O751 C750 1.258 . S
O752 Co749 1.966 . S
O752 C750 1.263 . S
C753 O754 1.235 . S
C753 O780 1.289 . S
O754 C753 1.235 . S
C755 C757 1.400 . S
C755 N758 1.351 . S
C755 C760 1.501 . S
C756 C757 1.387 . S
C756 N759 1.341 . S
C757 C755 1.400 . S
C757 C756 1.387 . S
N758 Co749 2.022 . S
N758 C755 1.351 . S
N758 N759 1.365 . S
N759 C756 1.341 . S
N759 N758 1.365 . S
N759 H779 0.862 . S
C760 C755 1.501 . S
C760 H761 0.961 . S
C760 H762 0.961 . S
C760 H763 0.960 . S
H761 C760 0.961 . S
H762 C760 0.961 . S
H763 C760 0.960 . S
C764 N765 1.342 . S
C764 C768 1.401 . S
C764 C769 1.499 . S
N765 Co748 1.989 . S
N765 C764 1.342 . S
N765 N766 1.388 . S
N766 Co749 1.993 . S
N766 N765 1.388 . S
N766 C767 1.346 . S
C767 N766 1.346 . S
C767 C768 1.396 . S
C767 C777 1.510 . S
C768 C764 1.401 . S
C768 C767 1.396 . S
C769 C764 1.499 . S
C769 H770 0.959 . S
C769 H771 0.960 . S
C769 H772 0.961 . S
H770 C769 0.959 . S
H771 C769 0.960 . S
H772 C769 0.961 . S
O773 Co748 1.967 . S
O773 C781 1.258 . S
O774 Co749 1.941 . S
O774 C781 1.266 . S
H775 C777 0.959 . S
H776 C777 0.961 . S
C777 C767 1.510 . S
C777 H775 0.959 . S
C777 H776 0.961 . S
C777 H778 0.960 . S
H778 C777 0.960 . S
H779 N759 0.862 . S
O780 Co748 1.920 . S
O780 C753 1.289 . S
C781 O773 1.258 . S
C781 O774 1.266 . S
Co782 O785 1.970 . S
Co782 N799 1.989 . S
Co782 O807 1.967 . S
Co782 O814 1.920 . S
Co783 O786 1.966 . S
Co783 N792 2.022 . S
Co783 N800 1.993 . S
Co783 O808 1.941 . S
C784 O785 1.258 . S
C784 O786 1.263 . S
O785 Co782 1.970 . S
O785 C784 1.258 . S
O786 Co783 1.966 . S
O786 C784 1.263 . S
C787 O788 1.235 . S
C787 O814 1.289 . S
O788 C787 1.235 . S
C789 C791 1.400 1_545 S
C789 N792 1.351 . S
C789 C794 1.501 . S
C790 C791 1.387 . S
C790 N793 1.341 1_565 S
C791 C789 1.400 1_565 S
C791 C790 1.387 . S
N792 Co783 2.022 . S
N792 C789 1.351 . S
N792 N793 1.365 . S
N793 C790 1.341 1_545 S
N793 N792 1.365 . S
N793 H813 0.862 . S
C794 C789 1.501 . S
C794 H795 0.961 . S
C794 H796 0.961 . S
C794 H797 0.960 . S
H795 C794 0.961 . S
H796 C794 0.961 . S
H797 C794 0.960 . S
C798 N799 1.342 . S
C798 C802 1.401 . S
C798 C803 1.499 . S
N799 Co782 1.989 . S
N799 C798 1.342 . S
N799 N800 1.388 . S
N800 Co783 1.993 . S
N800 N799 1.388 . S
N800 C801 1.346 . S
C801 N800 1.346 . S
C801 C802 1.396 . S
C801 C811 1.510 . S
C802 C798 1.401 . S
C802 C801 1.396 . S
C803 C798 1.499 . S
C803 H804 0.959 . S
C803 H805 0.960 . S
C803 H806 0.961 . S
H804 C803 0.959 . S
H805 C803 0.960 . S
H806 C803 0.961 . S
O807 Co782 1.967 . S
O807 C815 1.258 . S
O808 Co783 1.941 . S
O808 C815 1.266 . S
H809 C811 0.959 . S
H810 C811 0.961 . S
C811 C801 1.510 . S
C811 H809 0.959 . S
C811 H810 0.961 . S
C811 H812 0.960 . S
H812 C811 0.960 . S
H813 N793 0.862 . S
O814 Co782 1.920 . S
O814 C787 1.289 . S
C815 O807 1.258 . S
C815 O808 1.266 . S
Co816 O819 1.970 . S
Co816 N833 1.989 . S
Co816 O841 1.967 . S
Co816 O848 1.920 . S
Co817 O820 1.966 . S
Co817 N826 2.022 . S
Co817 N834 1.993 . S
Co817 O842 1.941 . S
C818 O819 1.258 . S
C818 O820 1.263 . S
O819 Co816 1.970 . S
O819 C818 1.258 . S
O820 Co817 1.966 . S
O820 C818 1.263 . S
C821 O822 1.235 . S
C821 O848 1.289 . S
O822 C821 1.235 . S
C823 C825 1.400 . S
C823 N826 1.351 . S
C823 C828 1.501 . S
C824 C825 1.387 . S
C824 N827 1.341 . S
C825 C823 1.400 . S
C825 C824 1.387 . S
N826 Co817 2.022 . S
N826 C823 1.351 . S
N826 N827 1.365 . S
N827 C824 1.341 . S
N827 N826 1.365 . S
N827 H847 0.862 . S
C828 C823 1.501 . S
C828 H829 0.961 . S
C828 H830 0.961 . S
C828 H831 0.960 . S
H829 C828 0.961 . S
H830 C828 0.961 . S
H831 C828 0.960 . S
C832 N833 1.342 . S
C832 C836 1.401 . S
C832 C837 1.499 . S
N833 Co816 1.989 . S
N833 C832 1.342 . S
N833 N834 1.388 . S
N834 Co817 1.993 . S
N834 N833 1.388 . S
N834 C835 1.346 . S
C835 N834 1.346 . S
C835 C836 1.396 . S
C835 C845 1.510 . S
C836 C832 1.401 . S
C836 C835 1.396 . S
C837 C832 1.499 . S
C837 H838 0.959 . S
C837 H839 0.960 . S
C837 H840 0.961 . S
H838 C837 0.959 . S
H839 C837 0.960 . S
H840 C837 0.961 . S
O841 Co816 1.967 . S
O841 C849 1.258 . S
O842 Co817 1.941 . S
O842 C849 1.266 . S
H843 C845 0.959 . S
H844 C845 0.961 . S
C845 C835 1.510 . S
C845 H843 0.959 . S
C845 H844 0.961 . S
C845 H846 0.960 . S
H846 C845 0.960 . S
H847 N827 0.862 . S
O848 Co816 1.920 . S
O848 C821 1.289 . S
C849 O841 1.258 . S
C849 O842 1.266 . S
Co850 O853 1.970 . S
Co850 N867 1.989 . S
Co850 O875 1.967 . S
Co850 O882 1.920 . S
Co851 O854 1.966 . S
Co851 N860 2.022 . S
Co851 N868 1.993 . S
Co851 O876 1.941 . S
C852 O853 1.258 . S
C852 O854 1.263 . S
O853 Co850 1.970 . S
O853 C852 1.258 . S
O854 Co851 1.966 . S
O854 C852 1.263 . S
C855 O856 1.235 . S
C855 O882 1.289 . S
O856 C855 1.235 . S
C857 C859 1.400 . S
C857 N860 1.351 . S
C857 C862 1.501 . S
C858 C859 1.387 . S
C858 N861 1.341 . S
C859 C857 1.400 . S
C859 C858 1.387 . S
N860 Co851 2.022 . S
N860 C857 1.351 . S
N860 N861 1.365 . S
N861 C858 1.341 . S
N861 N860 1.365 . S
N861 H881 0.862 . S
C862 C857 1.501 . S
C862 H863 0.961 . S
C862 H864 0.961 . S
C862 H865 0.960 . S
H863 C862 0.961 . S
H864 C862 0.961 . S
H865 C862 0.960 . S
C866 N867 1.342 . S
C866 C870 1.401 . S
C866 C871 1.499 . S
N867 Co850 1.989 . S
N867 C866 1.342 . S
N867 N868 1.388 . S
N868 Co851 1.993 . S
N868 N867 1.388 . S
N868 C869 1.346 . S
C869 N868 1.346 . S
C869 C870 1.396 . S
C869 C879 1.510 . S
C870 C866 1.401 . S
C870 C869 1.396 . S
C871 C866 1.499 . S
C871 H872 0.959 . S
C871 H873 0.960 . S
C871 H874 0.961 . S
H872 C871 0.959 . S
H873 C871 0.960 . S
H874 C871 0.961 . S
O875 Co850 1.967 . S
O875 C883 1.258 . S
O876 Co851 1.941 . S
O876 C883 1.266 . S
H877 C879 0.959 . S
H878 C879 0.961 . S
C879 C869 1.510 . S
C879 H877 0.959 . S
C879 H878 0.961 . S
C879 H880 0.960 . S
H880 C879 0.960 . S
H881 N861 0.862 . S
O882 Co850 1.920 . S
O882 C855 1.289 . S
C883 O875 1.258 . S
C883 O876 1.266 . S
Co884 O887 1.970 . S
Co884 N901 1.989 . S
Co884 O909 1.967 . S
Co884 O916 1.920 . S
Co885 O888 1.966 . S
Co885 N894 2.022 . S
Co885 N902 1.993 . S
Co885 O910 1.941 . S
C886 O887 1.258 . S
C886 O888 1.263 . S
O887 Co884 1.970 . S
O887 C886 1.258 . S
O888 Co885 1.966 . S
O888 C886 1.263 . S
C889 O890 1.235 . S
C889 O916 1.289 . S
O890 C889 1.235 . S
C891 C893 1.400 . S
C891 N894 1.351 . S
C891 C896 1.501 . S
C892 C893 1.387 . S
C892 N895 1.341 . S
C893 C891 1.400 . S
C893 C892 1.387 . S
N894 Co885 2.022 . S
N894 C891 1.351 . S
N894 N895 1.365 . S
N895 C892 1.341 . S
N895 N894 1.365 . S
N895 H915 0.862 . S
C896 C891 1.501 . S
C896 H897 0.961 . S
C896 H898 0.961 . S
C896 H899 0.960 . S
H897 C896 0.961 . S
H898 C896 0.961 . S
H899 C896 0.960 . S
C900 N901 1.342 . S
C900 C904 1.401 . S
C900 C905 1.499 . S
N901 Co884 1.989 . S
N901 C900 1.342 . S
N901 N902 1.388 . S
N902 Co885 1.993 . S
N902 N901 1.388 . S
N902 C903 1.346 . S
C903 N902 1.346 . S
C903 C904 1.396 . S
C903 C913 1.510 . S
C904 C900 1.401 . S
C904 C903 1.396 . S
C905 C900 1.499 . S
C905 H906 0.959 . S
C905 H907 0.960 . S
C905 H908 0.961 . S
H906 C905 0.959 . S
H907 C905 0.960 . S
H908 C905 0.961 . S
O909 Co884 1.967 . S
O909 C917 1.258 . S
O910 Co885 1.941 . S
O910 C917 1.266 . S
H911 C913 0.959 . S
H912 C913 0.961 . S
C913 C903 1.510 . S
C913 H911 0.959 . S
C913 H912 0.961 . S
C913 H914 0.960 . S
H914 C913 0.960 . S
H915 N895 0.862 . S
O916 Co884 1.920 . S
O916 C889 1.289 . S
C917 O909 1.258 . S
C917 O910 1.266 . S
Co918 O921 1.970 . S
Co918 N935 1.989 . S
Co918 O943 1.967 . S
Co918 O950 1.920 . S
Co919 O922 1.966 . S
Co919 N928 2.022 . S
Co919 N936 1.993 . S
Co919 O944 1.941 . S
C920 O921 1.258 . S
C920 O922 1.263 . S
O921 Co918 1.970 . S
O921 C920 1.258 . S
O922 Co919 1.966 . S
O922 C920 1.263 . S
C923 O924 1.235 . S
C923 O950 1.289 . S
O924 C923 1.235 . S
C925 C927 1.400 . S
C925 N928 1.351 . S
C925 C930 1.501 . S
C926 C927 1.387 . S
C926 N929 1.341 . S
C927 C925 1.400 . S
C927 C926 1.387 . S
N928 Co919 2.022 . S
N928 C925 1.351 . S
N928 N929 1.365 . S
N929 C926 1.341 . S
N929 N928 1.365 . S
N929 H949 0.862 . S
C930 C925 1.501 . S
C930 H931 0.961 . S
C930 H932 0.961 . S
C930 H933 0.960 . S
H931 C930 0.961 . S
H932 C930 0.961 . S
H933 C930 0.960 . S
C934 N935 1.342 . S
C934 C938 1.401 . S
C934 C939 1.499 . S
N935 Co918 1.989 . S
N935 C934 1.342 . S
N935 N936 1.388 . S
N936 Co919 1.993 . S
N936 N935 1.388 . S
N936 C937 1.346 . S
C937 N936 1.346 . S
C937 C938 1.396 . S
C937 C947 1.510 . S
C938 C934 1.401 . S
C938 C937 1.396 . S
C939 C934 1.499 . S
C939 H940 0.959 . S
C939 H941 0.960 . S
C939 H942 0.961 . S
H940 C939 0.959 . S
H941 C939 0.960 . S
H942 C939 0.961 . S
O943 Co918 1.967 . S
O943 C951 1.258 . S
O944 Co919 1.941 . S
O944 C951 1.266 . S
H945 C947 0.959 . S
H946 C947 0.961 . S
C947 C937 1.510 . S
C947 H945 0.959 . S
C947 H946 0.961 . S
C947 H948 0.960 . S
H948 C947 0.960 . S
H949 N929 0.862 . S
O950 Co918 1.920 . S
O950 C923 1.289 . S
C951 O943 1.258 . S
C951 O944 1.266 . S
Co952 O955 1.970 . S
Co952 N969 1.989 . S
Co952 O977 1.967 . S
Co952 O984 1.920 . S
Co953 O956 1.966 . S
Co953 N962 2.022 . S
Co953 N970 1.993 . S
Co953 O978 1.941 . S
C954 O955 1.258 . S
C954 O956 1.263 . S
O955 Co952 1.970 . S
O955 C954 1.258 . S
O956 Co953 1.966 . S
O956 C954 1.263 . S
C957 O958 1.235 . S
C957 O984 1.289 . S
O958 C957 1.235 . S
C959 C961 1.400 . S
C959 N962 1.351 . S
C959 C964 1.501 . S
C960 C961 1.387 . S
C960 N963 1.341 . S
C961 C959 1.400 . S
C961 C960 1.387 . S
N962 Co953 2.022 . S
N962 C959 1.351 . S
N962 N963 1.365 . S
N963 C960 1.341 . S
N963 N962 1.365 . S
N963 H983 0.862 . S
C964 C959 1.501 . S
C964 H965 0.961 . S
C964 H966 0.961 . S
C964 H967 0.960 . S
H965 C964 0.961 . S
H966 C964 0.961 . S
H967 C964 0.960 . S
C968 N969 1.342 . S
C968 C972 1.401 . S
C968 C973 1.499 . S
N969 Co952 1.989 . S
N969 C968 1.342 . S
N969 N970 1.388 . S
N970 Co953 1.993 . S
N970 N969 1.388 . S
N970 C971 1.346 . S
C971 N970 1.346 . S
C971 C972 1.396 . S
C971 C981 1.510 . S
C972 C968 1.401 . S
C972 C971 1.396 . S
C973 C968 1.499 . S
C973 H974 0.959 . S
C973 H975 0.960 . S
C973 H976 0.961 . S
H974 C973 0.959 . S
H975 C973 0.960 . S
H976 C973 0.961 . S
O977 Co952 1.967 . S
O977 C985 1.258 . S
O978 Co953 1.941 . S
O978 C985 1.266 . S
H979 C981 0.959 . S
H980 C981 0.961 . S
C981 C971 1.510 . S
C981 H979 0.959 . S
C981 H980 0.961 . S
C981 H982 0.960 . S
H982 C981 0.960 . S
H983 N963 0.862 . S
O984 Co952 1.920 . S
O984 C957 1.289 . S
C985 O977 1.258 . S
C985 O978 1.266 . S
Co986 O989 1.970 . S
Co986 N1003 1.989 . S
Co986 O1011 1.967 . S
Co986 O1018 1.920 . S
Co987 O990 1.966 . S
Co987 N996 2.022 . S
Co987 N1004 1.993 . S
Co987 O1012 1.941 . S
C988 O989 1.258 . S
C988 O990 1.263 . S
O989 Co986 1.970 . S
O989 C988 1.258 . S
O990 Co987 1.966 . S
O990 C988 1.263 . S
C991 O992 1.235 . S
C991 O1018 1.289 . S
O992 C991 1.235 . S
C993 C995 1.400 . S
C993 N996 1.351 . S
C993 C998 1.501 . S
C994 C995 1.387 . S
C994 N997 1.341 . S
C995 C993 1.400 . S
C995 C994 1.387 . S
N996 Co987 2.022 . S
N996 C993 1.351 . S
N996 N997 1.365 . S
N997 C994 1.341 . S
N997 N996 1.365 . S
N997 H1017 0.862 . S
C998 C993 1.501 . S
C998 H999 0.961 . S
C998 H1000 0.961 . S
C998 H1001 0.960 . S
H999 C998 0.961 . S
H1000 C998 0.961 . S
H1001 C998 0.960 . S
C1002 N1003 1.342 . S
C1002 C1006 1.401 . S
C1002 C1007 1.499 . S
N1003 Co986 1.989 . S
N1003 C1002 1.342 . S
N1003 N1004 1.388 . S
N1004 Co987 1.993 . S
N1004 N1003 1.388 . S
N1004 C1005 1.346 . S
C1005 N1004 1.346 . S
C1005 C1006 1.396 . S
C1005 C1015 1.510 . S
C1006 C1002 1.401 . S
C1006 C1005 1.396 . S
C1007 C1002 1.499 . S
C1007 H1008 0.959 . S
C1007 H1009 0.960 . S
C1007 H1010 0.961 . S
H1008 C1007 0.959 . S
H1009 C1007 0.960 . S
H1010 C1007 0.961 . S
O1011 Co986 1.967 . S
O1011 C1019 1.258 . S
O1012 Co987 1.941 . S
O1012 C1019 1.266 . S
H1013 C1015 0.959 . S
H1014 C1015 0.961 . S
C1015 C1005 1.510 . S
C1015 H1013 0.959 . S
C1015 H1014 0.961 . S
C1015 H1016 0.960 . S
H1016 C1015 0.960 . S
H1017 N997 0.862 . S
O1018 Co986 1.920 . S
O1018 C991 1.289 . S
C1019 O1011 1.258 . S
C1019 O1012 1.266 . S
Co1020 O1023 1.970 . S
Co1020 N1037 1.989 . S
Co1020 O1045 1.967 . S
Co1020 O1052 1.920 . S
Co1021 O1024 1.966 . S
Co1021 N1030 2.022 . S
Co1021 N1038 1.993 . S
Co1021 O1046 1.941 . S
C1022 O1023 1.258 . S
C1022 O1024 1.263 . S
O1023 Co1020 1.970 . S
O1023 C1022 1.258 . S
O1024 Co1021 1.966 . S
O1024 C1022 1.263 . S
C1025 O1026 1.235 . S
C1025 O1052 1.289 . S
O1026 C1025 1.235 . S
C1027 C1029 1.400 . S
C1027 N1030 1.351 . S
C1027 C1032 1.501 . S
C1028 C1029 1.387 . S
C1028 N1031 1.341 . S
C1029 C1027 1.400 . S
C1029 C1028 1.387 . S
N1030 Co1021 2.022 . S
N1030 C1027 1.351 . S
N1030 N1031 1.365 . S
N1031 C1028 1.341 . S
N1031 N1030 1.365 . S
N1031 H1051 0.862 . S
C1032 C1027 1.501 . S
C1032 H1033 0.961 . S
C1032 H1034 0.961 . S
C1032 H1035 0.960 . S
H1033 C1032 0.961 . S
H1034 C1032 0.961 . S
H1035 C1032 0.960 . S
C1036 N1037 1.342 . S
C1036 C1040 1.401 . S
C1036 C1041 1.499 . S
N1037 Co1020 1.989 . S
N1037 C1036 1.342 . S
N1037 N1038 1.388 . S
N1038 Co1021 1.993 . S
N1038 N1037 1.388 . S
N1038 C1039 1.346 . S
C1039 N1038 1.346 . S
C1039 C1040 1.396 . S
C1039 C1049 1.510 . S
C1040 C1036 1.401 . S
C1040 C1039 1.396 . S
C1041 C1036 1.499 . S
C1041 H1042 0.959 . S
C1041 H1043 0.960 . S
C1041 H1044 0.961 . S
H1042 C1041 0.959 . S
H1043 C1041 0.960 . S
H1044 C1041 0.961 . S
O1045 Co1020 1.967 . S
O1045 C1053 1.258 . S
O1046 Co1021 1.941 . S
O1046 C1053 1.266 . S
H1047 C1049 0.959 . S
H1048 C1049 0.961 . S
C1049 C1039 1.510 . S
C1049 H1047 0.959 . S
C1049 H1048 0.961 . S
C1049 H1050 0.960 . S
H1050 C1049 0.960 . S
H1051 N1031 0.862 . S
O1052 Co1020 1.920 . S
O1052 C1025 1.289 . S
C1053 O1045 1.258 . S
C1053 O1046 1.266 . S
Co1054 O1057 1.970 . S
Co1054 N1071 1.989 . S
Co1054 O1079 1.967 . S
Co1054 O1086 1.920 . S
Co1055 O1058 1.966 . S
Co1055 N1064 2.022 . S
Co1055 N1072 1.993 . S
Co1055 O1080 1.941 . S
C1056 O1057 1.258 . S
C1056 O1058 1.263 . S
O1057 Co1054 1.970 . S
O1057 C1056 1.258 . S
O1058 Co1055 1.966 . S
O1058 C1056 1.263 . S
C1059 O1060 1.235 . S
C1059 O1086 1.289 . S
O1060 C1059 1.235 . S
C1061 C1063 1.400 . S
C1061 N1064 1.351 . S
C1061 C1066 1.501 . S
C1062 C1063 1.387 . S
C1062 N1065 1.341 . S
C1063 C1061 1.400 . S
C1063 C1062 1.387 . S
N1064 Co1055 2.022 . S
N1064 C1061 1.351 . S
N1064 N1065 1.365 . S
N1065 C1062 1.341 . S
N1065 N1064 1.365 . S
N1065 H1085 0.862 . S
C1066 C1061 1.501 . S
C1066 H1067 0.961 . S
C1066 H1068 0.961 . S
C1066 H1069 0.960 . S
H1067 C1066 0.961 . S
H1068 C1066 0.961 . S
H1069 C1066 0.960 . S
C1070 N1071 1.342 . S
C1070 C1074 1.401 . S
C1070 C1075 1.499 . S
N1071 Co1054 1.989 . S
N1071 C1070 1.342 . S
N1071 N1072 1.388 . S
N1072 Co1055 1.993 . S
N1072 N1071 1.388 . S
N1072 C1073 1.346 . S
C1073 N1072 1.346 . S
C1073 C1074 1.396 . S
C1073 C1083 1.510 . S
C1074 C1070 1.401 . S
C1074 C1073 1.396 . S
C1075 C1070 1.499 . S
C1075 H1076 0.959 . S
C1075 H1077 0.960 . S
C1075 H1078 0.961 . S
H1076 C1075 0.959 . S
H1077 C1075 0.960 . S
H1078 C1075 0.961 . S
O1079 Co1054 1.967 . S
O1079 C1087 1.258 . S
O1080 Co1055 1.941 . S
O1080 C1087 1.266 . S
H1081 C1083 0.959 . S
H1082 C1083 0.961 . S
C1083 C1073 1.510 . S
C1083 H1081 0.959 . S
C1083 H1082 0.961 . S
C1083 H1084 0.960 . S
H1084 C1083 0.960 . S
H1085 N1065 0.862 . S
O1086 Co1054 1.920 . S
O1086 C1059 1.289 . S
C1087 O1079 1.258 . S
C1087 O1080 1.266 . S
Co1088 O1091 1.970 . S
Co1088 N1105 1.989 . S
Co1088 O1113 1.967 . S
Co1088 O1120 1.920 . S
Co1089 O1092 1.966 . S
Co1089 N1098 2.022 . S
Co1089 N1106 1.993 . S
Co1089 O1114 1.941 . S
C1090 O1091 1.258 . S
C1090 O1092 1.263 . S
O1091 Co1088 1.970 . S
O1091 C1090 1.258 . S
O1092 Co1089 1.966 . S
O1092 C1090 1.263 . S
C1093 O1094 1.235 . S
C1093 O1120 1.289 . S
O1094 C1093 1.235 . S
C1095 C1097 1.400 . S
C1095 N1098 1.351 . S
C1095 C1100 1.501 . S
C1096 C1097 1.387 . S
C1096 N1099 1.341 . S
C1097 C1095 1.400 . S
C1097 C1096 1.387 . S
N1098 Co1089 2.022 . S
N1098 C1095 1.351 . S
N1098 N1099 1.365 . S
N1099 C1096 1.341 . S
N1099 N1098 1.365 . S
N1099 H1119 0.862 . S
C1100 C1095 1.501 . S
C1100 H1101 0.961 . S
C1100 H1102 0.961 . S
C1100 H1103 0.960 . S
H1101 C1100 0.961 . S
H1102 C1100 0.961 . S
H1103 C1100 0.960 . S
C1104 N1105 1.342 . S
C1104 C1108 1.401 . S
C1104 C1109 1.499 . S
N1105 Co1088 1.989 . S
N1105 C1104 1.342 . S
N1105 N1106 1.388 . S
N1106 Co1089 1.993 . S
N1106 N1105 1.388 . S
N1106 C1107 1.346 . S
C1107 N1106 1.346 . S
C1107 C1108 1.396 . S
C1107 C1117 1.510 . S
C1108 C1104 1.401 . S
C1108 C1107 1.396 . S
C1109 C1104 1.499 . S
C1109 H1110 0.959 . S
C1109 H1111 0.960 . S
C1109 H1112 0.961 . S
H1110 C1109 0.959 . S
H1111 C1109 0.960 . S
H1112 C1109 0.961 . S
O1113 Co1088 1.967 . S
O1113 C1121 1.258 . S
O1114 Co1089 1.941 . S
O1114 C1121 1.266 . S
H1115 C1117 0.959 . S
H1116 C1117 0.961 . S
C1117 C1107 1.510 . S
C1117 H1115 0.959 . S
C1117 H1116 0.961 . S
C1117 H1118 0.960 . S
H1118 C1117 0.960 . S
H1119 N1099 0.862 . S
O1120 Co1088 1.920 . S
O1120 C1093 1.289 . S
C1121 O1113 1.258 . S
C1121 O1114 1.266 . S
Co1122 O1125 1.970 . S
Co1122 N1139 1.989 . S
Co1122 O1147 1.967 . S
Co1122 O1154 1.920 . S
Co1123 O1126 1.966 . S
Co1123 N1132 2.022 . S
Co1123 N1140 1.993 . S
Co1123 O1148 1.941 . S
C1124 O1125 1.258 . S
C1124 O1126 1.263 . S
O1125 Co1122 1.970 . S
O1125 C1124 1.258 . S
O1126 Co1123 1.966 . S
O1126 C1124 1.263 . S
C1127 O1128 1.235 . S
C1127 O1154 1.289 . S
O1128 C1127 1.235 . S
C1129 C1131 1.400 . S
C1129 N1132 1.351 . S
C1129 C1134 1.501 . S
C1130 C1131 1.387 . S
C1130 N1133 1.341 . S
C1131 C1129 1.400 . S
C1131 C1130 1.387 . S
N1132 Co1123 2.022 . S
N1132 C1129 1.351 . S
N1132 N1133 1.365 . S
N1133 C1130 1.341 . S
N1133 N1132 1.365 . S
N1133 H1153 0.862 . S
C1134 C1129 1.501 . S
C1134 H1135 0.961 . S
C1134 H1136 0.961 . S
C1134 H1137 0.960 . S
H1135 C1134 0.961 . S
H1136 C1134 0.961 . S
H1137 C1134 0.960 . S
C1138 N1139 1.342 . S
C1138 C1142 1.401 . S
C1138 C1143 1.499 . S
N1139 Co1122 1.989 . S
N1139 C1138 1.342 . S
N1139 N1140 1.388 . S
N1140 Co1123 1.993 . S
N1140 N1139 1.388 . S
N1140 C1141 1.346 . S
C1141 N1140 1.346 . S
C1141 C1142 1.396 . S
C1141 C1151 1.510 . S
C1142 C1138 1.401 . S
C1142 C1141 1.396 . S
C1143 C1138 1.499 . S
C1143 H1144 0.959 . S
C1143 H1145 0.960 . S
C1143 H1146 0.961 . S
H1144 C1143 0.959 . S
H1145 C1143 0.960 . S
H1146 C1143 0.961 . S
O1147 Co1122 1.967 . S
O1147 C1155 1.258 . S
O1148 Co1123 1.941 . S
O1148 C1155 1.266 . S
H1149 C1151 0.959 . S
H1150 C1151 0.961 . S
C1151 C1141 1.510 . S
C1151 H1149 0.959 . S
C1151 H1150 0.961 . S
C1151 H1152 0.960 . S
H1152 C1151 0.960 . S
H1153 N1133 0.862 . S
O1154 Co1122 1.920 . S
O1154 C1127 1.289 . S
C1155 O1147 1.258 . S
C1155 O1148 1.266 . S
Co1156 O1159 1.970 . S
Co1156 N1173 1.989 . S
Co1156 O1181 1.967 . S
Co1156 O1188 1.920 . S
Co1157 O1160 1.966 . S
Co1157 N1166 2.022 . S
Co1157 N1174 1.993 . S
Co1157 O1182 1.941 . S
C1158 O1159 1.258 . S
C1158 O1160 1.263 . S
O1159 Co1156 1.970 . S
O1159 C1158 1.258 . S
O1160 Co1157 1.966 . S
O1160 C1158 1.263 . S
C1161 O1162 1.235 . S
C1161 O1188 1.289 . S
O1162 C1161 1.235 . S
C1163 C1165 1.400 . S
C1163 N1166 1.351 . S
C1163 C1168 1.501 . S
C1164 C1165 1.387 . S
C1164 N1167 1.341 . S
C1165 C1163 1.400 . S
C1165 C1164 1.387 . S
N1166 Co1157 2.022 . S
N1166 C1163 1.351 . S
N1166 N1167 1.365 . S
N1167 C1164 1.341 . S
N1167 N1166 1.365 . S
N1167 H1187 0.862 . S
C1168 C1163 1.501 . S
C1168 H1169 0.961 . S
C1168 H1170 0.961 . S
C1168 H1171 0.960 . S
H1169 C1168 0.961 . S
H1170 C1168 0.961 . S
H1171 C1168 0.960 . S
C1172 N1173 1.342 . S
C1172 C1176 1.401 . S
C1172 C1177 1.499 . S
N1173 Co1156 1.989 . S
N1173 C1172 1.342 . S
N1173 N1174 1.388 . S
N1174 Co1157 1.993 . S
N1174 N1173 1.388 . S
N1174 C1175 1.346 . S
C1175 N1174 1.346 . S
C1175 C1176 1.396 . S
C1175 C1185 1.510 . S
C1176 C1172 1.401 . S
C1176 C1175 1.396 . S
C1177 C1172 1.499 . S
C1177 H1178 0.959 . S
C1177 H1179 0.960 . S
C1177 H1180 0.961 . S
H1178 C1177 0.959 . S
H1179 C1177 0.960 . S
H1180 C1177 0.961 . S
O1181 Co1156 1.967 . S
O1181 C1189 1.258 . S
O1182 Co1157 1.941 . S
O1182 C1189 1.266 . S
H1183 C1185 0.959 . S
H1184 C1185 0.961 . S
C1185 C1175 1.510 . S
C1185 H1183 0.959 . S
C1185 H1184 0.961 . S
C1185 H1186 0.960 . S
H1186 C1185 0.960 . S
H1187 N1167 0.862 . S
O1188 Co1156 1.920 . S
O1188 C1161 1.289 . S
C1189 O1181 1.258 . S
C1189 O1182 1.266 . S
Co1190 O1193 1.970 . S
Co1190 N1207 1.989 . S
Co1190 O1215 1.967 . S
Co1190 O1222 1.920 . S
Co1191 O1194 1.966 . S
Co1191 N1200 2.022 . S
Co1191 N1208 1.993 . S
Co1191 O1216 1.941 . S
C1192 O1193 1.258 . S
C1192 O1194 1.263 . S
O1193 Co1190 1.970 . S
O1193 C1192 1.258 . S
O1194 Co1191 1.966 . S
O1194 C1192 1.263 . S
C1195 O1196 1.235 . S
C1195 O1222 1.289 . S
O1196 C1195 1.235 . S
C1197 C1199 1.400 . S
C1197 N1200 1.351 . S
C1197 C1202 1.501 . S
C1198 C1199 1.387 . S
C1198 N1201 1.341 . S
C1199 C1197 1.400 . S
C1199 C1198 1.387 . S
N1200 Co1191 2.022 . S
N1200 C1197 1.351 . S
N1200 N1201 1.365 . S
N1201 C1198 1.341 . S
N1201 N1200 1.365 . S
N1201 H1221 0.862 . S
C1202 C1197 1.501 . S
C1202 H1203 0.961 . S
C1202 H1204 0.961 . S
C1202 H1205 0.960 . S
H1203 C1202 0.961 . S
H1204 C1202 0.961 . S
H1205 C1202 0.960 . S
C1206 N1207 1.342 . S
C1206 C1210 1.401 . S
C1206 C1211 1.499 . S
N1207 Co1190 1.989 . S
N1207 C1206 1.342 . S
N1207 N1208 1.388 . S
N1208 Co1191 1.993 . S
N1208 N1207 1.388 . S
N1208 C1209 1.346 . S
C1209 N1208 1.346 . S
C1209 C1210 1.396 . S
C1209 C1219 1.510 . S
C1210 C1206 1.401 . S
C1210 C1209 1.396 . S
C1211 C1206 1.499 . S
C1211 H1212 0.959 . S
C1211 H1213 0.960 . S
C1211 H1214 0.961 . S
H1212 C1211 0.959 . S
H1213 C1211 0.960 . S
H1214 C1211 0.961 . S
O1215 Co1190 1.967 . S
O1215 C1223 1.258 . S
O1216 Co1191 1.941 . S
O1216 C1223 1.266 . S
H1217 C1219 0.959 . S
H1218 C1219 0.961 . S
C1219 C1209 1.510 . S
C1219 H1217 0.959 . S
C1219 H1218 0.961 . S
C1219 H1220 0.960 . S
H1220 C1219 0.960 . S
H1221 N1201 0.862 . S
O1222 Co1190 1.920 . S
O1222 C1195 1.289 . S
C1223 O1215 1.258 . S
C1223 O1216 1.266 . S
Co1224 O1227 1.970 . S
Co1224 N1241 1.989 . S
Co1224 O1249 1.967 . S
Co1224 O1256 1.920 . S
Co1225 O1228 1.966 . S
Co1225 N1234 2.022 . S
Co1225 N1242 1.993 . S
Co1225 O1250 1.941 . S
C1226 O1227 1.258 . S
C1226 O1228 1.263 . S
O1227 Co1224 1.970 . S
O1227 C1226 1.258 . S
O1228 Co1225 1.966 . S
O1228 C1226 1.263 . S
C1229 O1230 1.235 . S
C1229 O1256 1.289 . S
O1230 C1229 1.235 . S
C1231 C1233 1.400 . S
C1231 N1234 1.351 . S
C1231 C1236 1.501 . S
C1232 C1233 1.387 . S
C1232 N1235 1.341 . S
C1233 C1231 1.400 . S
C1233 C1232 1.387 . S
N1234 Co1225 2.022 . S
N1234 C1231 1.351 . S
N1234 N1235 1.365 . S
N1235 C1232 1.341 . S
N1235 N1234 1.365 . S
N1235 H1255 0.862 . S
C1236 C1231 1.501 . S
C1236 H1237 0.961 . S
C1236 H1238 0.961 . S
C1236 H1239 0.960 . S
H1237 C1236 0.961 . S
H1238 C1236 0.961 . S
H1239 C1236 0.960 . S
C1240 N1241 1.342 . S
C1240 C1244 1.401 . S
C1240 C1245 1.499 . S
N1241 Co1224 1.989 . S
N1241 C1240 1.342 . S
N1241 N1242 1.388 . S
N1242 Co1225 1.993 . S
N1242 N1241 1.388 . S
N1242 C1243 1.346 . S
C1243 N1242 1.346 . S
C1243 C1244 1.396 . S
C1243 C1253 1.510 . S
C1244 C1240 1.401 . S
C1244 C1243 1.396 . S
C1245 C1240 1.499 . S
C1245 H1246 0.959 . S
C1245 H1247 0.960 . S
C1245 H1248 0.961 . S
H1246 C1245 0.959 . S
H1247 C1245 0.960 . S
H1248 C1245 0.961 . S
O1249 Co1224 1.967 . S
O1249 C1257 1.258 . S
O1250 Co1225 1.941 . S
O1250 C1257 1.266 . S
H1251 C1253 0.959 . S
H1252 C1253 0.961 . S
C1253 C1243 1.510 . S
C1253 H1251 0.959 . S
C1253 H1252 0.961 . S
C1253 H1254 0.960 . S
H1254 C1253 0.960 . S
H1255 N1235 0.862 . S
O1256 Co1224 1.920 . S
O1256 C1229 1.289 . S
C1257 O1249 1.258 . S
C1257 O1250 1.266 . S
Co1258 O1261 1.970 . S
Co1258 N1275 1.989 . S
Co1258 O1283 1.967 . S
Co1258 O1290 1.920 . S
Co1259 O1262 1.966 . S
Co1259 N1268 2.022 . S
Co1259 N1276 1.993 . S
Co1259 O1284 1.941 . S
C1260 O1261 1.258 . S
C1260 O1262 1.263 . S
O1261 Co1258 1.970 . S
O1261 C1260 1.258 . S
O1262 Co1259 1.966 . S
O1262 C1260 1.263 . S
C1263 O1264 1.235 . S
C1263 O1290 1.289 . S
O1264 C1263 1.235 . S
C1265 C1267 1.400 . S
C1265 N1268 1.351 . S
C1265 C1270 1.501 . S
C1266 C1267 1.387 . S
C1266 N1269 1.341 . S
C1267 C1265 1.400 . S
C1267 C1266 1.387 . S
N1268 Co1259 2.022 . S
N1268 C1265 1.351 . S
N1268 N1269 1.365 . S
N1269 C1266 1.341 . S
N1269 N1268 1.365 . S
N1269 H1289 0.862 . S
C1270 C1265 1.501 . S
C1270 H1271 0.961 . S
C1270 H1272 0.961 . S
C1270 H1273 0.960 . S
H1271 C1270 0.961 . S
H1272 C1270 0.961 . S
H1273 C1270 0.960 . S
C1274 N1275 1.342 . S
C1274 C1278 1.401 . S
C1274 C1279 1.499 . S
N1275 Co1258 1.989 . S
N1275 C1274 1.342 . S
N1275 N1276 1.388 . S
N1276 Co1259 1.993 . S
N1276 N1275 1.388 . S
N1276 C1277 1.346 . S
C1277 N1276 1.346 . S
C1277 C1278 1.396 . S
C1277 C1287 1.510 . S
C1278 C1274 1.401 . S
C1278 C1277 1.396 . S
C1279 C1274 1.499 . S
C1279 H1280 0.959 . S
C1279 H1281 0.960 . S
C1279 H1282 0.961 . S
H1280 C1279 0.959 . S
H1281 C1279 0.960 . S
H1282 C1279 0.961 . S
O1283 Co1258 1.967 . S
O1283 C1291 1.258 . S
O1284 Co1259 1.941 . S
O1284 C1291 1.266 . S
H1285 C1287 0.959 . S
H1286 C1287 0.961 . S
C1287 C1277 1.510 . S
C1287 H1285 0.959 . S
C1287 H1286 0.961 . S
C1287 H1288 0.960 . S
H1288 C1287 0.960 . S
H1289 N1269 0.862 . S
O1290 Co1258 1.920 . S
O1290 C1263 1.289 . S
C1291 O1283 1.258 . S
C1291 O1284 1.266 . S
Co1292 O1295 1.970 . S
Co1292 N1309 1.989 . S
Co1292 O1317 1.967 . S
Co1292 O1324 1.920 . S
Co1293 O1296 1.966 . S
Co1293 N1302 2.022 . S
Co1293 N1310 1.993 . S
Co1293 O1318 1.941 . S
C1294 O1295 1.258 . S
C1294 O1296 1.263 . S
O1295 Co1292 1.970 . S
O1295 C1294 1.258 . S
O1296 Co1293 1.966 . S
O1296 C1294 1.263 . S
C1297 O1298 1.235 . S
C1297 O1324 1.289 . S
O1298 C1297 1.235 . S
C1299 C1301 1.400 . S
C1299 N1302 1.351 . S
C1299 C1304 1.501 . S
C1300 C1301 1.387 . S
C1300 N1303 1.341 . S
C1301 C1299 1.400 . S
C1301 C1300 1.387 . S
N1302 Co1293 2.022 . S
N1302 C1299 1.351 . S
N1302 N1303 1.365 . S
N1303 C1300 1.341 . S
N1303 N1302 1.365 . S
N1303 H1323 0.862 . S
C1304 C1299 1.501 . S
C1304 H1305 0.961 . S
C1304 H1306 0.961 . S
C1304 H1307 0.960 . S
H1305 C1304 0.961 . S
H1306 C1304 0.961 . S
H1307 C1304 0.960 . S
C1308 N1309 1.342 . S
C1308 C1312 1.401 . S
C1308 C1313 1.499 . S
N1309 Co1292 1.989 . S
N1309 C1308 1.342 . S
N1309 N1310 1.388 . S
N1310 Co1293 1.993 . S
N1310 N1309 1.388 . S
N1310 C1311 1.346 . S
C1311 N1310 1.346 . S
C1311 C1312 1.396 . S
C1311 C1321 1.510 . S
C1312 C1308 1.401 . S
C1312 C1311 1.396 . S
C1313 C1308 1.499 . S
C1313 H1314 0.959 . S
C1313 H1315 0.960 . S
C1313 H1316 0.961 . S
H1314 C1313 0.959 . S
H1315 C1313 0.960 . S
H1316 C1313 0.961 . S
O1317 Co1292 1.967 . S
O1317 C1325 1.258 . S
O1318 Co1293 1.941 . S
O1318 C1325 1.266 . S
H1319 C1321 0.959 . S
H1320 C1321 0.961 . S
C1321 C1311 1.510 . S
C1321 H1319 0.959 . S
C1321 H1320 0.961 . S
C1321 H1322 0.960 . S
H1322 C1321 0.960 . S
H1323 N1303 0.862 . S
O1324 Co1292 1.920 . S
O1324 C1297 1.289 . S
C1325 O1317 1.258 . S
C1325 O1318 1.266 . S
Co1326 O1329 1.970 . S
Co1326 N1343 1.989 . S
Co1326 O1351 1.967 . S
Co1326 O1358 1.920 . S
Co1327 O1330 1.966 . S
Co1327 N1336 2.022 . S
Co1327 N1344 1.993 . S
Co1327 O1352 1.941 . S
C1328 O1329 1.258 . S
C1328 O1330 1.263 . S
O1329 Co1326 1.970 . S
O1329 C1328 1.258 . S
O1330 Co1327 1.966 . S
O1330 C1328 1.263 . S
C1331 O1332 1.235 . S
C1331 O1358 1.289 . S
O1332 C1331 1.235 . S
C1333 C1335 1.400 . S
C1333 N1336 1.351 . S
C1333 C1338 1.501 . S
C1334 C1335 1.387 . S
C1334 N1337 1.341 . S
C1335 C1333 1.400 . S
C1335 C1334 1.387 . S
N1336 Co1327 2.022 . S
N1336 C1333 1.351 . S
N1336 N1337 1.365 . S
N1337 C1334 1.341 . S
N1337 N1336 1.365 . S
N1337 H1357 0.862 . S
C1338 C1333 1.501 . S
C1338 H1339 0.961 . S
C1338 H1340 0.961 . S
C1338 H1341 0.960 . S
H1339 C1338 0.961 . S
H1340 C1338 0.961 . S
H1341 C1338 0.960 . S
C1342 N1343 1.342 . S
C1342 C1346 1.401 . S
C1342 C1347 1.499 . S
N1343 Co1326 1.989 . S
N1343 C1342 1.342 . S
N1343 N1344 1.388 . S
N1344 Co1327 1.993 . S
N1344 N1343 1.388 . S
N1344 C1345 1.346 . S
C1345 N1344 1.346 . S
C1345 C1346 1.396 . S
C1345 C1355 1.510 . S
C1346 C1342 1.401 . S
C1346 C1345 1.396 . S
C1347 C1342 1.499 . S
C1347 H1348 0.959 . S
C1347 H1349 0.960 . S
C1347 H1350 0.961 . S
H1348 C1347 0.959 . S
H1349 C1347 0.960 . S
H1350 C1347 0.961 . S
O1351 Co1326 1.967 . S
O1351 C1359 1.258 . S
O1352 Co1327 1.941 . S
O1352 C1359 1.266 . S
H1353 C1355 0.959 . S
H1354 C1355 0.961 . S
C1355 C1345 1.510 . S
C1355 H1353 0.959 . S
C1355 H1354 0.961 . S
C1355 H1356 0.960 . S
H1356 C1355 0.960 . S
H1357 N1337 0.862 . S
O1358 Co1326 1.920 . S
O1358 C1331 1.289 . S
C1359 O1351 1.258 . S
C1359 O1352 1.266 . S
Co1360 O1363 1.970 . S
Co1360 N1377 1.989 . S
Co1360 O1385 1.967 . S
Co1360 O1392 1.920 . S
Co1361 O1364 1.966 . S
Co1361 N1370 2.022 . S
Co1361 N1378 1.993 . S
Co1361 O1386 1.941 . S
C1362 O1363 1.258 . S
C1362 O1364 1.263 . S
O1363 Co1360 1.970 . S
O1363 C1362 1.258 . S
O1364 Co1361 1.966 . S
O1364 C1362 1.263 . S
C1365 O1366 1.235 . S
C1365 O1392 1.289 . S
O1366 C1365 1.235 . S
C1367 C1369 1.400 . S
C1367 N1370 1.351 . S
C1367 C1372 1.501 . S
C1368 C1369 1.387 . S
C1368 N1371 1.341 . S
C1369 C1367 1.400 . S
C1369 C1368 1.387 . S
N1370 Co1361 2.022 . S
N1370 C1367 1.351 . S
N1370 N1371 1.365 . S
N1371 C1368 1.341 . S
N1371 N1370 1.365 . S
N1371 H1391 0.862 . S
C1372 C1367 1.501 . S
C1372 H1373 0.961 . S
C1372 H1374 0.961 . S
C1372 H1375 0.960 . S
H1373 C1372 0.961 . S
H1374 C1372 0.961 . S
H1375 C1372 0.960 . S
C1376 N1377 1.342 . S
C1376 C1380 1.401 . S
C1376 C1381 1.499 . S
N1377 Co1360 1.989 . S
N1377 C1376 1.342 . S
N1377 N1378 1.388 . S
N1378 Co1361 1.993 . S
N1378 N1377 1.388 . S
N1378 C1379 1.346 . S
C1379 N1378 1.346 . S
C1379 C1380 1.396 . S
C1379 C1389 1.510 . S
C1380 C1376 1.401 . S
C1380 C1379 1.396 . S
C1381 C1376 1.499 . S
C1381 H1382 0.959 . S
C1381 H1383 0.960 . S
C1381 H1384 0.961 . S
H1382 C1381 0.959 . S
H1383 C1381 0.960 . S
H1384 C1381 0.961 . S
O1385 Co1360 1.967 . S
O1385 C1393 1.258 . S
O1386 Co1361 1.941 . S
O1386 C1393 1.266 . S
H1387 C1389 0.959 . S
H1388 C1389 0.961 . S
C1389 C1379 1.510 . S
C1389 H1387 0.959 . S
C1389 H1388 0.961 . S
C1389 H1390 0.960 . S
H1390 C1389 0.960 . S
H1391 N1371 0.862 . S
O1392 Co1360 1.920 . S
O1392 C1365 1.289 . S
C1393 O1385 1.258 . S
C1393 O1386 1.266 . S
Co1394 O1397 1.970 . S
Co1394 N1411 1.989 . S
Co1394 O1419 1.967 . S
Co1394 O1426 1.920 . S
Co1395 O1398 1.966 . S
Co1395 N1404 2.022 . S
Co1395 N1412 1.993 . S
Co1395 O1420 1.941 . S
C1396 O1397 1.258 . S
C1396 O1398 1.263 . S
O1397 Co1394 1.970 . S
O1397 C1396 1.258 . S
O1398 Co1395 1.966 . S
O1398 C1396 1.263 . S
C1399 O1400 1.235 . S
C1399 O1426 1.289 . S
O1400 C1399 1.235 . S
C1401 C1403 1.400 . S
C1401 N1404 1.351 . S
C1401 C1406 1.501 . S
C1402 C1403 1.387 . S
C1402 N1405 1.341 . S
C1403 C1401 1.400 . S
C1403 C1402 1.387 . S
N1404 Co1395 2.022 . S
N1404 C1401 1.351 . S
N1404 N1405 1.365 . S
N1405 C1402 1.341 . S
N1405 N1404 1.365 . S
N1405 H1425 0.862 . S
C1406 C1401 1.501 . S
C1406 H1407 0.961 . S
C1406 H1408 0.961 . S
C1406 H1409 0.960 . S
H1407 C1406 0.961 . S
H1408 C1406 0.961 . S
H1409 C1406 0.960 . S
C1410 N1411 1.342 . S
C1410 C1414 1.401 . S
C1410 C1415 1.499 . S
N1411 Co1394 1.989 . S
N1411 C1410 1.342 . S
N1411 N1412 1.388 . S
N1412 Co1395 1.993 . S
N1412 N1411 1.388 . S
N1412 C1413 1.346 . S
C1413 N1412 1.346 . S
C1413 C1414 1.396 . S
C1413 C1423 1.510 . S
C1414 C1410 1.401 . S
C1414 C1413 1.396 . S
C1415 C1410 1.499 . S
C1415 H1416 0.959 . S
C1415 H1417 0.960 . S
C1415 H1418 0.961 . S
H1416 C1415 0.959 . S
H1417 C1415 0.960 . S
H1418 C1415 0.961 . S
O1419 Co1394 1.967 . S
O1419 C1427 1.258 . S
O1420 Co1395 1.941 . S
O1420 C1427 1.266 . S
H1421 C1423 0.959 . S
H1422 C1423 0.961 . S
C1423 C1413 1.510 . S
C1423 H1421 0.959 . S
C1423 H1422 0.961 . S
C1423 H1424 0.960 . S
H1424 C1423 0.960 . S
H1425 N1405 0.862 . S
O1426 Co1394 1.920 . S
O1426 C1399 1.289 . S
C1427 O1419 1.258 . S
C1427 O1420 1.266 . S
Co1428 O1431 1.970 . S
Co1428 N1445 1.989 . S
Co1428 O1453 1.967 . S
Co1428 O1460 1.920 . S
Co1429 O1432 1.966 . S
Co1429 N1438 2.022 . S
Co1429 N1446 1.993 . S
Co1429 O1454 1.941 . S
C1430 O1431 1.258 . S
C1430 O1432 1.263 . S
O1431 Co1428 1.970 . S
O1431 C1430 1.258 . S
O1432 Co1429 1.966 . S
O1432 C1430 1.263 . S
C1433 O1434 1.235 . S
C1433 O1460 1.289 . S
O1434 C1433 1.235 . S
C1435 C1437 1.400 . S
C1435 N1438 1.351 . S
C1435 C1440 1.501 . S
C1436 C1437 1.387 . S
C1436 N1439 1.341 . S
C1437 C1435 1.400 . S
C1437 C1436 1.387 . S
N1438 Co1429 2.022 . S
N1438 C1435 1.351 . S
N1438 N1439 1.365 . S
N1439 C1436 1.341 . S
N1439 N1438 1.365 . S
N1439 H1459 0.862 . S
C1440 C1435 1.501 . S
C1440 H1441 0.961 . S
C1440 H1442 0.961 . S
C1440 H1443 0.960 . S
H1441 C1440 0.961 . S
H1442 C1440 0.961 . S
H1443 C1440 0.960 . S
C1444 N1445 1.342 . S
C1444 C1448 1.401 . S
C1444 C1449 1.499 . S
N1445 Co1428 1.989 . S
N1445 C1444 1.342 . S
N1445 N1446 1.388 . S
N1446 Co1429 1.993 . S
N1446 N1445 1.388 . S
N1446 C1447 1.346 . S
C1447 N1446 1.346 . S
C1447 C1448 1.396 . S
C1447 C1457 1.510 . S
C1448 C1444 1.401 . S
C1448 C1447 1.396 . S
C1449 C1444 1.499 . S
C1449 H1450 0.959 . S
C1449 H1451 0.960 . S
C1449 H1452 0.961 . S
H1450 C1449 0.959 . S
H1451 C1449 0.960 . S
H1452 C1449 0.961 . S
O1453 Co1428 1.967 . S
O1453 C1461 1.258 . S
O1454 Co1429 1.941 . S
O1454 C1461 1.266 . S
H1455 C1457 0.959 . S
H1456 C1457 0.961 . S
C1457 C1447 1.510 . S
C1457 H1455 0.959 . S
C1457 H1456 0.961 . S
C1457 H1458 0.960 . S
H1458 C1457 0.960 . S
H1459 N1439 0.862 . S
O1460 Co1428 1.920 . S
O1460 C1433 1.289 . S
C1461 O1453 1.258 . S
C1461 O1454 1.266 . S
Co1462 O1465 1.970 . S
Co1462 N1479 1.989 . S
Co1462 O1487 1.967 . S
Co1462 O1494 1.920 . S
Co1463 O1466 1.966 . S
Co1463 N1472 2.022 . S
Co1463 N1480 1.993 . S
Co1463 O1488 1.941 . S
C1464 O1465 1.258 . S
C1464 O1466 1.263 . S
O1465 Co1462 1.970 . S
O1465 C1464 1.258 . S
O1466 Co1463 1.966 . S
O1466 C1464 1.263 . S
C1467 O1468 1.235 . S
C1467 O1494 1.289 . S
O1468 C1467 1.235 . S
C1469 C1471 1.400 . S
C1469 N1472 1.351 . S
C1469 C1474 1.501 . S
C1470 C1471 1.387 . S
C1470 N1473 1.341 . S
C1471 C1469 1.400 . S
C1471 C1470 1.387 . S
N1472 Co1463 2.022 . S
N1472 C1469 1.351 . S
N1472 N1473 1.365 . S
N1473 C1470 1.341 . S
N1473 N1472 1.365 . S
N1473 H1493 0.862 . S
C1474 C1469 1.501 . S
C1474 H1475 0.961 . S
C1474 H1476 0.961 . S
C1474 H1477 0.960 . S
H1475 C1474 0.961 . S
H1476 C1474 0.961 . S
H1477 C1474 0.960 . S
C1478 N1479 1.342 . S
C1478 C1482 1.401 . S
C1478 C1483 1.499 . S
N1479 Co1462 1.989 . S
N1479 C1478 1.342 . S
N1479 N1480 1.388 . S
N1480 Co1463 1.993 . S
N1480 N1479 1.388 . S
N1480 C1481 1.346 . S
C1481 N1480 1.346 . S
C1481 C1482 1.396 . S
C1481 C1491 1.510 . S
C1482 C1478 1.401 . S
C1482 C1481 1.396 . S
C1483 C1478 1.499 . S
C1483 H1484 0.959 . S
C1483 H1485 0.960 . S
C1483 H1486 0.961 . S
H1484 C1483 0.959 . S
H1485 C1483 0.960 . S
H1486 C1483 0.961 . S
O1487 Co1462 1.967 . S
O1487 C1495 1.258 . S
O1488 Co1463 1.941 . S
O1488 C1495 1.266 . S
H1489 C1491 0.959 . S
H1490 C1491 0.961 . S
C1491 C1481 1.510 . S
C1491 H1489 0.959 . S
C1491 H1490 0.961 . S
C1491 H1492 0.960 . S
H1492 C1491 0.960 . S
H1493 N1473 0.862 . S
O1494 Co1462 1.920 . S
O1494 C1467 1.289 . S
C1495 O1487 1.258 . S
C1495 O1488 1.266 . S
Co1496 O1499 1.970 . S
Co1496 N1513 1.989 . S
Co1496 O1521 1.967 . S
Co1496 O1528 1.920 . S
Co1497 O1500 1.966 . S
Co1497 N1506 2.022 . S
Co1497 N1514 1.993 . S
Co1497 O1522 1.941 . S
C1498 O1499 1.258 . S
C1498 O1500 1.263 . S
O1499 Co1496 1.970 . S
O1499 C1498 1.258 . S
O1500 Co1497 1.966 . S
O1500 C1498 1.263 . S
C1501 O1502 1.235 . S
C1501 O1528 1.289 . S
O1502 C1501 1.235 . S
C1503 C1505 1.400 . S
C1503 N1506 1.351 . S
C1503 C1508 1.501 . S
C1504 C1505 1.387 . S
C1504 N1507 1.341 . S
C1505 C1503 1.400 . S
C1505 C1504 1.387 . S
N1506 Co1497 2.022 . S
N1506 C1503 1.351 . S
N1506 N1507 1.365 . S
N1507 C1504 1.341 . S
N1507 N1506 1.365 . S
N1507 H1527 0.862 . S
C1508 C1503 1.501 . S
C1508 H1509 0.961 . S
C1508 H1510 0.961 . S
C1508 H1511 0.960 . S
H1509 C1508 0.961 . S
H1510 C1508 0.961 . S
H1511 C1508 0.960 . S
C1512 N1513 1.342 . S
C1512 C1516 1.401 . S
C1512 C1517 1.499 . S
N1513 Co1496 1.989 . S
N1513 C1512 1.342 . S
N1513 N1514 1.388 . S
N1514 Co1497 1.993 . S
N1514 N1513 1.388 . S
N1514 C1515 1.346 . S
C1515 N1514 1.346 . S
C1515 C1516 1.396 . S
C1515 C1525 1.510 . S
C1516 C1512 1.401 . S
C1516 C1515 1.396 . S
C1517 C1512 1.499 . S
C1517 H1518 0.959 . S
C1517 H1519 0.960 . S
C1517 H1520 0.961 . S
H1518 C1517 0.959 . S
H1519 C1517 0.960 . S
H1520 C1517 0.961 . S
O1521 Co1496 1.967 . S
O1521 C1529 1.258 . S
O1522 Co1497 1.941 . S
O1522 C1529 1.266 . S
H1523 C1525 0.959 . S
H1524 C1525 0.961 . S
C1525 C1515 1.510 . S
C1525 H1523 0.959 . S
C1525 H1524 0.961 . S
C1525 H1526 0.960 . S
H1526 C1525 0.960 . S
H1527 N1507 0.862 . S
O1528 Co1496 1.920 . S
O1528 C1501 1.289 . S
C1529 O1521 1.258 . S
C1529 O1522 1.266 . S
Co1530 O1533 1.970 . S
Co1530 N1547 1.989 . S
Co1530 O1555 1.967 . S
Co1530 O1562 1.920 . S
Co1531 O1534 1.966 . S
Co1531 N1540 2.022 . S
Co1531 N1548 1.993 . S
Co1531 O1556 1.941 . S
C1532 O1533 1.258 . S
C1532 O1534 1.263 . S
O1533 Co1530 1.970 . S
O1533 C1532 1.258 . S
O1534 Co1531 1.966 . S
O1534 C1532 1.263 . S
C1535 O1536 1.235 . S
C1535 O1562 1.289 . S
O1536 C1535 1.235 . S
C1537 C1539 1.400 . S
C1537 N1540 1.351 . S
C1537 C1542 1.501 . S
C1538 C1539 1.387 . S
C1538 N1541 1.341 . S
C1539 C1537 1.400 . S
C1539 C1538 1.387 . S
N1540 Co1531 2.022 . S
N1540 C1537 1.351 . S
N1540 N1541 1.365 . S
N1541 C1538 1.341 . S
N1541 N1540 1.365 . S
N1541 H1561 0.862 . S
C1542 C1537 1.501 . S
C1542 H1543 0.961 . S
C1542 H1544 0.961 . S
C1542 H1545 0.960 . S
H1543 C1542 0.961 . S
H1544 C1542 0.961 . S
H1545 C1542 0.960 . S
C1546 N1547 1.342 . S
C1546 C1550 1.401 . S
C1546 C1551 1.499 . S
N1547 Co1530 1.989 . S
N1547 C1546 1.342 . S
N1547 N1548 1.388 . S
N1548 Co1531 1.993 . S
N1548 N1547 1.388 . S
N1548 C1549 1.346 . S
C1549 N1548 1.346 . S
C1549 C1550 1.396 . S
C1549 C1559 1.510 . S
C1550 C1546 1.401 . S
C1550 C1549 1.396 . S
C1551 C1546 1.499 . S
C1551 H1552 0.959 . S
C1551 H1553 0.960 . S
C1551 H1554 0.961 . S
H1552 C1551 0.959 . S
H1553 C1551 0.960 . S
H1554 C1551 0.961 . S
O1555 Co1530 1.967 . S
O1555 C1563 1.258 . S
O1556 Co1531 1.941 . S
O1556 C1563 1.266 . S
H1557 C1559 0.959 . S
H1558 C1559 0.961 . S
C1559 C1549 1.510 . S
C1559 H1557 0.959 . S
C1559 H1558 0.961 . S
C1559 H1560 0.960 . S
H1560 C1559 0.960 . S
H1561 N1541 0.862 . S
O1562 Co1530 1.920 . S
O1562 C1535 1.289 . S
C1563 O1555 1.258 . S
C1563 O1556 1.266 . S
Co1564 O1567 1.970 . S
Co1564 N1581 1.989 . S
Co1564 O1589 1.967 . S
Co1564 O1596 1.920 . S
Co1565 O1568 1.966 . S
Co1565 N1574 2.022 . S
Co1565 N1582 1.993 . S
Co1565 O1590 1.941 . S
C1566 O1567 1.258 . S
C1566 O1568 1.263 . S
O1567 Co1564 1.970 . S
O1567 C1566 1.258 . S
O1568 Co1565 1.966 . S
O1568 C1566 1.263 . S
C1569 O1570 1.235 . S
C1569 O1596 1.289 . S
O1570 C1569 1.235 . S
C1571 C1573 1.400 . S
C1571 N1574 1.351 . S
C1571 C1576 1.501 . S
C1572 C1573 1.387 . S
C1572 N1575 1.341 . S
C1573 C1571 1.400 . S
C1573 C1572 1.387 . S
N1574 Co1565 2.022 . S
N1574 C1571 1.351 . S
N1574 N1575 1.365 . S
N1575 C1572 1.341 . S
N1575 N1574 1.365 . S
N1575 H1595 0.862 . S
C1576 C1571 1.501 . S
C1576 H1577 0.961 . S
C1576 H1578 0.961 . S
C1576 H1579 0.960 . S
H1577 C1576 0.961 . S
H1578 C1576 0.961 . S
H1579 C1576 0.960 . S
C1580 N1581 1.342 . S
C1580 C1584 1.401 . S
C1580 C1585 1.499 . S
N1581 Co1564 1.989 . S
N1581 C1580 1.342 . S
N1581 N1582 1.388 . S
N1582 Co1565 1.993 . S
N1582 N1581 1.388 . S
N1582 C1583 1.346 . S
C1583 N1582 1.346 . S
C1583 C1584 1.396 . S
C1583 C1593 1.510 . S
C1584 C1580 1.401 . S
C1584 C1583 1.396 . S
C1585 C1580 1.499 . S
C1585 H1586 0.959 . S
C1585 H1587 0.960 . S
C1585 H1588 0.961 . S
H1586 C1585 0.959 . S
H1587 C1585 0.960 . S
H1588 C1585 0.961 . S
O1589 Co1564 1.967 . S
O1589 C1597 1.258 . S
O1590 Co1565 1.941 . S
O1590 C1597 1.266 . S
H1591 C1593 0.959 . S
H1592 C1593 0.961 . S
C1593 C1583 1.510 . S
C1593 H1591 0.959 . S
C1593 H1592 0.961 . S
C1593 H1594 0.960 . S
H1594 C1593 0.960 . S
H1595 N1575 0.862 . S
O1596 Co1564 1.920 . S
O1596 C1569 1.289 . S
C1597 O1589 1.258 . S
C1597 O1590 1.266 . S
Co1598 O1601 1.970 . S
Co1598 N1615 1.989 . S
Co1598 O1623 1.967 . S
Co1598 O1630 1.920 . S
Co1599 O1602 1.966 . S
Co1599 N1608 2.022 . S
Co1599 N1616 1.993 . S
Co1599 O1624 1.941 . S
C1600 O1601 1.258 . S
C1600 O1602 1.263 . S
O1601 Co1598 1.970 . S
O1601 C1600 1.258 . S
O1602 Co1599 1.966 . S
O1602 C1600 1.263 . S
C1603 O1604 1.235 . S
C1603 O1630 1.289 . S
O1604 C1603 1.235 . S
C1605 C1607 1.400 . S
C1605 N1608 1.351 . S
C1605 C1610 1.501 . S
C1606 C1607 1.387 . S
C1606 N1609 1.341 . S
C1607 C1605 1.400 . S
C1607 C1606 1.387 . S
N1608 Co1599 2.022 . S
N1608 C1605 1.351 . S
N1608 N1609 1.365 . S
N1609 C1606 1.341 . S
N1609 N1608 1.365 . S
N1609 H1629 0.862 . S
C1610 C1605 1.501 . S
C1610 H1611 0.961 . S
C1610 H1612 0.961 . S
C1610 H1613 0.960 . S
H1611 C1610 0.961 . S
H1612 C1610 0.961 . S
H1613 C1610 0.960 . S
C1614 N1615 1.342 . S
C1614 C1618 1.401 . S
C1614 C1619 1.499 . S
N1615 Co1598 1.989 . S
N1615 C1614 1.342 . S
N1615 N1616 1.388 . S
N1616 Co1599 1.993 . S
N1616 N1615 1.388 . S
N1616 C1617 1.346 . S
C1617 N1616 1.346 . S
C1617 C1618 1.396 . S
C1617 C1627 1.510 . S
C1618 C1614 1.401 . S
C1618 C1617 1.396 . S
C1619 C1614 1.499 . S
C1619 H1620 0.959 . S
C1619 H1621 0.960 . S
C1619 H1622 0.961 . S
H1620 C1619 0.959 . S
H1621 C1619 0.960 . S
H1622 C1619 0.961 . S
O1623 Co1598 1.967 . S
O1623 C1631 1.258 . S
O1624 Co1599 1.941 . S
O1624 C1631 1.266 . S
H1625 C1627 0.959 . S
H1626 C1627 0.961 . S
C1627 C1617 1.510 . S
C1627 H1625 0.959 . S
C1627 H1626 0.961 . S
C1627 H1628 0.960 . S
H1628 C1627 0.960 . S
H1629 N1609 0.862 . S
O1630 Co1598 1.920 . S
O1630 C1603 1.289 . S
C1631 O1623 1.258 . S
C1631 O1624 1.266 . S
C1505 C20 0.841 . S
C1396 C43 1.666 . S
C1448 C70 2.600 . S
C107 C1464 2.004 . S
C156 C1603 1.560 . S
C175 C1550 1.970 . S
C206 C1566 3.010 . S
C1380 C247 1.109 . S
C1335 C281 0.522 . S
C1229 C311 0.872 . S
C342 C1267 2.704 . S
C1312 C379 2.729 . S
C413 C1127 0.871 . S
C451 C1158 2.704 . S
C1195 C496 2.729 . S
C1097 C519 0.523 . S
C564 C1063 1.109 . S
C859 C580 1.666 . S
C886 C632 2.600 . S
C923 C648 2.004 . S
C689 C836 0.841 . S
C734 C991 1.970 . S
C1022 C750 3.010 . S
C787 C972 1.560 . S
C1108 C258 2.297 . S
C1124 C141 2.120 . S
C172 C1165 1.143 . S
C1192 C213 1.687 . S
C1226 C54 2.603 . S
C1278 C77 1.326 . S
C1297 C104 1.343 . S
C5 C1346 2.054 . S
C700 C1365 2.815 . S
C587 C1600 2.527 . S
C1535 C617 1.275 . S
C1573 C655 0.393 . S
C784 C1403 2.527 . S
C719 C1433 1.275 . S
C1471 C757 0.392 . S
C1516 C549 2.815 . S
C821 C530 2.054 . S
C308 C957 2.120 . S
C349 C988 1.144 . S
C376 C1029 1.687 . S
C1074 C292 2.297 . S
C893 C462 1.326 . S
C481 C920 1.343 . S
C870 C410 2.603 . S
C2 C122 0.857 . S
C39 C9 1.457 . S
C36 C88 2.336 1_545 S
C73 C111 1.202 1_655 S
C138 C190 0.996 1_565 S
C209 C179 1.832 1_655 S
C240 C224 2.288 1_565 S
C243 C145 1.084 1_655 S
C277 C621 0.998 . S
C315 C651 0.404 1_554 S
C682 C360 3.193 1_556 S
C383 C583 1.707 1_554 S
C417 C753 1.078 . S
C447 C553 1.633 1_556 S
C478 C802 3.110 1_556 S
C723 C515 0.660 . S
C326 C546 1.539 1_655 S
C598 C512 1.794 1_455 S
C614 C428 2.681 1_545 S
C444 C666 1.891 1_455 S
C685 C485 0.730 . S
C716 C394 1.702 1_655 S
C768 C274 2.795 1_565 S
C345 C791 0.826 . S
C818 C938 0.857 . S
C855 C825 1.457 . S
C852 C904 2.336 . S
C889 C927 1.202 . S
C954 C1006 0.996 . S
C995 C1025 1.846 . S
C1040 C1056 2.288 . S
C961 C1059 1.084 . S
C1437 C1093 0.998 . S
C1467 C1131 0.404 . S
C1176 C1498 3.193 . S
C1399 C1199 1.707 . S
C1233 C1569 1.078 . S
C1369 C1263 1.633 . S
C1618 C1294 3.110 . S
C1331 C1539 0.646 . S
C1142 C1362 1.539 . S
C1414 C1328 1.794 . S
C1430 C1244 2.681 . S
C1482 C1260 1.890 . S
C1501 C1301 0.730 . S
C1532 C1210 1.702 . S
C1090 C1584 2.795 . S
C1161 C1607 0.827 . S
C33 C203 2.101 . S
C237 C67 2.736 . S
C271 C101 2.635 . S
C169 C135 2.276 . S
C815 C305 2.198 . S
C339 C747 1.673 . S
C781 C373 2.082 . S
C407 C577 2.049 . S
C713 C441 2.178 . S
C475 C611 2.182 . S
C645 C509 2.341 . S
C679 C543 1.819 . S
C1019 C849 2.101 1_554 S
C883 C1053 2.736 1_556 S
C1087 C917 2.635 1_554 S
C951 C985 2.276 1_556 S
C1121 C1631 2.198 1_655 S
C1563 C1155 1.672 1_545 S
C1189 C1597 2.082 1_455 S
C1393 C1223 2.049 1_565 S
C1529 C1257 2.178 1_455 S
C1427 C1291 2.182 1_545 S
C1461 C1325 2.341 1_655 S
C1495 C1359 1.819 1_565 S
