# Generated by pormake.
# Topology sxb, (6)-cn, num edge types: 1
# Building blocks:
#     Node 0, Type 0, BuildingBlock: NUHQIS_clean_sbu_0, # of connection points: 6
#     Node 1, Type 0, BuildingBlock: NUHQIS_clean_sbu_0, # of connection points: 6
#     Node 2, Type 0, BuildingBlock: NUHQIS_clean_sbu_0, # of connection points: 6
#     Node 3, Type 0, BuildingBlock: NUHQIS_clean_sbu_0, # of connection points: 6
#     Edge 4, Type (0, 0), BuildingBlock: CIFDUS_clean_linker_0, # of connection points: 2
#     Edge 5, Type (0, 0), BuildingBlock: CIFDUS_clean_linker_0, # of connection points: 2
#     Edge 6, Type (0, 0), BuildingBlock: CIFDUS_clean_linker_0, # of connection points: 2
#     Edge 7, Type (0, 0), BuildingBlock: CIFDUS_clean_linker_0, # of connection points: 2
#     Edge 8, Type (0, 0), BuildingBlock: CIFDUS_clean_linker_0, # of connection points: 2
#     Edge 9, Type (0, 0), BuildingBlock: CIFDUS_clean_linker_0, # of connection points: 2
#     Edge 10, Type (0, 0), BuildingBlock: CIFDUS_clean_linker_0, # of connection points: 2
#     Edge 11, Type (0, 0), BuildingBlock: CIFDUS_clean_linker_0, # of connection points: 2
#     Edge 12, Type (0, 0), BuildingBlock: CIFDUS_clean_linker_0, # of connection points: 2
#     Edge 13, Type (0, 0), BuildingBlock: CIFDUS_clean_linker_0, # of connection points: 2
#     Edge 14, Type (0, 0), BuildingBlock: CIFDUS_clean_linker_0, # of connection points: 2
#     Edge 15, Type (0, 0), BuildingBlock: CIFDUS_clean_linker_0, # of connection points: 2
# Relax obj value: 0.096
# Max RMSD: 0.201
# Mean RMSD: 0.201
data_MOF--net-sxb--node1-NUHQIS_clean_sbu_0--edge1-CIFDUS_clean_linker_0
_symmetry_space_group_name_H-M    P1
_symmetry_Int_Tables_number       1
_symmetry_cell_setting            triclinic
loop_
_symmetry_equiv_pos_as_xyz
'x, y, z'
_cell_length_a     22.200437
_cell_length_b     13.542159
_cell_length_c     26.446639
_cell_angle_alpha  87.954595
_cell_angle_beta   95.847915
_cell_angle_gamma 90.158981
loop_
_atom_site_label
_atom_site_type_symbol
_atom_site_fract_x
_atom_site_fract_y
_atom_site_fract_z
_atom_type_partial_charge
Tb0 Tb 0.98425 0.87853 0.01692 0.0
Eu1 Eu 0.08597 0.05072 0.02085 0.0
C2 C 1.02475 -0.02865 0.91764 0.0
C3 C 0.11957 0.82422 0.01277 0.0
C4 C 0.8293 0.8031 0.02253 0.0
C5 C 0.7355 0.87922 0.98436 0.0
C6 C 0.79527 0.8501 0.9809 0.0
C7 C 0.80346 0.79143 0.06858 0.0
C8 C 0.7445 0.82369 0.07266 0.0
C9 C 0.7084 0.86537 0.0302 0.0
C10 C 0.89257 0.77126 0.01939 0.0
O11 O 1.03607 0.86752 0.09104 0.0
O12 O 0.05328 0.03228 0.09819 0.0
O13 O 0.99767 0.13147 0.00069 0.0
O14 O 0.94346 0.01313 0.03966 0.0
C15 C 0.04786 0.94408 0.11934 0.0
O16 O 0.15952 0.12436 0.06595 0.0
O17 O 0.14352 0.15781 0.98495 0.0
O18 O 0.07737 -0.01114 0.94275 0.0
O19 O 0.97735 0.95272 0.94215 0.0
O20 O 0.06383 0.80204 -0.00533 0.0
O21 O 0.13103 0.90476 0.03777 0.0
C22 C 0.94683 0.10051 0.01732 0.0
O23 O 0.91656 0.79367 0.97742 0.0
O24 O 0.93007 0.78716 0.05937 0.0
C25 C 0.24519 0.12635 0.02005 0.0
C26 C 0.36393 0.05713 0.01202 0.0
C27 C 0.3476 0.09065 0.05845 0.0
C28 C 0.2889 0.12476 0.06242 0.0
C29 C 0.26113 0.09054 0.97388 0.0
C30 C 0.31989 0.05668 0.96989 0.0
C31 C 0.1825 0.15894 0.02546 0.0
H32 H 0.71059 0.90896 0.95004 0.0
H33 H 0.81405 0.86181 0.94494 0.0
H34 H 0.82912 0.7578 0.10178 0.0
H35 H 0.72791 0.81552 0.10958 0.0
H36 H 0.38067 0.09281 0.09146 0.0
H37 H 0.27779 0.15096 0.09857 0.0
H38 H 0.22835 0.08886 0.94066 0.0
H39 H 0.33094 0.03026 0.93378 0.0
Tb40 Tb 0.10328 0.85216 0.52634 0.0
Eu41 Eu 1.0008 0.02588 0.51289 0.0
C42 C 0.05423 0.94101 0.62006 0.0
C43 C 0.968 0.80178 0.5082 0.0
C44 C 0.2562 0.76838 0.52752 0.0
C45 C 0.36087 0.79699 0.56125 0.0
C46 C 0.30259 0.76181 0.56774 0.0
C47 C 0.26935 0.81108 0.48066 0.0
C48 C 0.32761 0.84477 0.47391 0.0
C49 C 0.37438 0.83905 0.51414 0.0
C50 C 0.19333 0.73942 0.53579 0.0
O51 O 0.0786 0.87828 0.44449 0.0
O52 O 0.04833 0.0404 0.44294 0.0
O53 O 0.08799 0.11298 0.52651 0.0
O54 O 0.15279 -0.01459 0.51208 0.0
C55 C 0.06801 -0.0357 0.42027 0.0
O56 O 0.92608 0.09261 0.46368 0.0
O57 O 0.93812 0.12699 0.54349 0.0
O58 O 1.00311 -0.04207 0.59204 0.0
O59 O 0.10323 0.92321 0.59846 0.0
O60 O 1.01759 0.77746 0.5374 0.0
O61 O 0.96661 0.88388 0.48104 0.0
C62 C 0.14223 0.07856 0.51991 0.0
O63 O 0.1718 0.77862 0.5744 0.0
O64 O 0.15362 0.74188 0.49588 0.0
C65 C 0.83837 0.08756 0.50686 0.0
C66 C 0.72292 0.00124 0.51388 0.0
C67 C 0.74084 0.0332 0.4665 0.0
C68 C 0.79796 0.07532 0.46302 0.0
C69 C 0.82026 0.0564 0.55433 0.0
C70 C 0.76326 0.01375 0.55775 0.0
C71 C 0.9005 0.12524 0.50206 0.0
H72 H 0.39485 0.79286 0.59362 0.0
H73 H 0.29348 0.73085 0.60453 0.0
H74 H 0.23465 0.81846 0.44886 0.0
H75 H 0.33586 0.874 0.43664 0.0
H76 H 0.71112 0.02401 0.43191 0.0
H77 H 0.81072 0.09789 0.42588 0.0
H78 H 0.85026 0.064 0.5889 0.0
H79 H 0.75059 -0.00878 0.59492 0.0
Tb80 Tb 0.47904 0.38746 0.96657 0.0
Eu81 Eu 0.58096 0.5572 0.96853 0.0
C82 C 0.516 0.48139 0.86669 0.0
C83 C 0.61486 0.3305 0.97096 0.0
C84 C 0.32378 0.31657 0.96941 0.0
C85 C 0.22485 0.36829 0.92948 0.0
C86 C 0.28227 0.32888 0.92601 0.0
C87 C 0.30648 0.3445 0.01651 0.0
C88 C 0.24826 0.38059 0.02034 0.0
C89 C 0.20628 0.39342 0.97685 0.0
C90 C 0.38617 0.28267 0.96438 0.0
O91 O 0.48494 0.45392 0.04049 0.0
O92 O 0.58589 0.48427 0.04677 0.0
O93 O 0.49768 0.63667 0.98827 0.0
O94 O 0.43352 0.52692 0.94686 0.0
C95 C 0.53627 0.46741 0.06838 0.0
O96 O 0.65233 0.64633 0.00721 0.0
O97 O 0.63966 0.64853 0.92484 0.0
O98 O 0.52837 0.56205 0.89153 0.0
O99 O 0.51111 0.39652 0.89152 0.0
O100 O 0.56327 0.30589 0.98845 0.0
O101 O 0.62051 0.41542 0.94695 0.0
C102 C 0.44285 0.61028 0.96999 0.0
O103 O 0.40916 0.31428 0.9234 0.0
O104 O 0.42537 0.28685 0.00456 0.0
C105 C 0.73999 0.63292 0.96291 0.0
C106 C 0.85857 0.56351 0.95591 0.0
C107 C 0.83028 0.54542 0.00047 0.0
C108 C 0.77144 0.57919 0.00385 0.0
C109 C 0.76834 0.65062 0.91832 0.0
C110 C 0.82699 0.61605 0.9148 0.0
C111 C 0.67671 0.66557 0.96502 0.0
H112 H 0.19574 0.38021 0.8945 0.0
H113 H 0.29466 0.30994 0.88898 0.0
H114 H 0.33753 0.33701 0.05076 0.0
H115 H 0.23633 0.39628 0.05785 0.0
H116 H 0.85343 0.50396 0.03244 0.0
H117 H 0.75071 0.56301 0.03854 0.0
H118 H 0.74506 0.6913 0.88614 0.0
H119 H 0.84794 0.63127 0.88012 0.0
Tb120 Tb 0.59861 0.35521 0.48494 0.0
Eu121 Eu 0.49623 0.52612 0.45813 0.0
C122 C 0.52399 0.42141 0.56998 0.0
C123 C 0.46288 0.2944 0.4689 0.0
C124 C 0.7573 0.293 0.4965 0.0
C125 C 0.8558 0.34776 0.5343 0.0
C126 C 0.79882 0.30664 0.53944 0.0
C127 C 0.77402 0.32136 0.44821 0.0
C128 C 0.83101 0.36241 0.44307 0.0
C129 C 0.87247 0.3767 0.48607 0.0
C130 C 0.69514 0.25894 0.50329 0.0
O131 O 0.58703 0.37241 0.40158 0.0
O132 O 0.54148 0.52458 0.38731 0.0
O133 O 0.58321 0.61088 0.45472 0.0
O134 O 0.63477 0.49735 0.50776 0.0
C135 C 0.56913 0.44841 0.37134 0.0
O136 O 0.41855 0.57937 0.40744 0.0
O137 O 0.43877 0.64336 0.48116 0.0
O138 O 0.51219 0.50428 0.54355 0.0
O139 O 0.54795 0.34536 0.55028 0.0
O140 O 0.51694 0.26826 0.49 0.0
O141 O 0.45399 0.37799 0.44296 0.0
C142 C 0.63305 0.58138 0.4819 0.0
O143 O 0.66956 0.3048 0.53781 0.0
O144 O 0.65782 0.24768 0.46237 0.0
C145 C 0.33641 0.6019 0.45478 0.0
C146 C 0.22003 0.53295 0.47467 0.0
C147 C 0.23053 0.57188 0.42615 0.0
C148 C 0.28785 0.6065 0.4165 0.0
C149 C 0.32677 0.56087 0.50282 0.0
C150 C 0.26927 0.52809 0.51284 0.0
C151 C 0.39784 0.63034 0.44278 0.0
H152 H 0.88636 0.35859 0.56824 0.0
H153 H 0.78686 0.28653 0.57715 0.0
H154 H 0.74291 0.31296 0.41434 0.0
H155 H 0.8427 0.3826 0.40531 0.0
H156 H 0.19489 0.57432 0.39503 0.0
H157 H 0.29454 0.63542 0.37875 0.0
H158 H 0.3636 0.55449 0.53295 0.0
H159 H 0.26364 0.50081 0.55099 0.0
H160 H 0.32765 0.58527 0.92725 0.0
H161 H 0.43588 0.75674 0.0372 0.0
H162 H 0.34398 0.83266 0.06207 0.0
H163 H 0.23452 0.84595 0.05444 0.0
H164 H 0.125 0.67821 0.94352 0.0
H165 H 0.21682 0.60159 0.91827 0.0
C166 C 0.33138 0.64021 0.95627 0.0
C167 C 0.38876 0.66667 0.97994 0.0
C168 C 0.27843 0.68181 0.97098 0.0
C169 C 0.39254 0.73722 0.01762 0.0
C170 C 0.34002 0.77939 0.0323 0.0
C171 C 0.23027 0.7921 0.02488 0.0
C172 C 0.17273 0.76691 0.00125 0.0
C173 C 0.28292 0.75126 0.00964 0.0
C174 C 0.16856 0.69761 0.96288 0.0
C175 C 0.22106 0.65474 0.9481 0.0
H176 H 0.72364 0.3659 0.93677 0.0
H177 H 0.63203 0.16258 0.03253 0.0
H178 H 0.72802 0.07608 0.05737 0.0
H179 H 0.83766 0.06007 0.05193 0.0
H180 H 0.92818 0.2691 0.9583 0.0
H181 H 0.83166 0.35224 0.93274 0.0
C182 C 0.72411 0.30202 0.96276 0.0
C183 C 0.67031 0.26986 0.98224 0.0
C184 C 0.7793 0.25475 0.97774 0.0
C185 C 0.67243 0.18765 0.01622 0.0
C186 C 0.7274 0.13885 0.03076 0.0
C187 C 0.83666 0.12478 0.02648 0.0
C188 C 0.89036 0.15887 0.00726 0.0
C189 C 0.78115 0.17232 0.01196 0.0
C190 C 0.88788 0.24226 0.97412 0.0
C191 C 0.83276 0.28942 0.95928 0.0
H192 H 0.2554 0.05394 0.5631 0.0
H193 H 0.14431 0.2408 0.45644 0.0
H194 H 0.23526 0.32113 0.42887 0.0
H195 H 0.3459 0.33005 0.43185 0.0
H196 H 0.45697 0.1416 0.53868 0.0
H197 H 0.3661 0.06662 0.56813 0.0
C198 C 0.25127 0.11442 0.53488 0.0
C199 C 0.19351 0.14443 0.51305 0.0
C200 C 0.30355 0.15686 0.51802 0.0
C201 C 0.18832 0.21977 0.47518 0.0
C202 C 0.24029 0.26398 0.45875 0.0
C203 C 0.35048 0.27181 0.46122 0.0
C204 C 0.40848 0.23957 0.482 0.0
C205 C 0.2981 0.23156 0.47921 0.0
C206 C 0.41313 0.16581 0.52091 0.0
C207 C 0.36116 0.12402 0.53837 0.0
H208 H 0.861 0.84731 0.45416 0.0
H209 H 0.94527 0.63158 0.56318 0.0
H210 H 0.84725 0.54944 0.56711 0.0
H211 H 0.73917 0.53792 0.53847 0.0
H212 H 0.65536 0.75413 0.42942 0.0
H213 H 0.75303 0.8372 0.42647 0.0
C214 C 0.85847 0.78167 0.47857 0.0
C215 C 0.91077 0.74525 0.50824 0.0
C216 C 0.80225 0.73545 0.48073 0.0
C217 C 0.906 0.66076 0.53981 0.0
C218 C 0.84995 0.61401 0.54209 0.0
C219 C 0.74174 0.60405 0.51442 0.0
C220 C 0.68966 0.63999 0.48421 0.0
C221 C 0.79791 0.6509 0.51275 0.0
C222 C 0.69441 0.72527 0.45321 0.0
C223 C 0.75029 0.77251 0.45142 0.0
H224 H 0.43677 0.93761 0.07671 0.0
H225 H 0.43356 0.10767 0.93546 0.0
H226 H 0.54014 0.07035 0.93074 0.0
H227 H 0.63388 -0.0073 0.96746 0.0
H228 H 0.63091 0.79361 0.09924 0.0
H229 H 0.52762 0.84067 0.10697 0.0
C230 C 0.45932 -0.03394 0.04475 0.0
C231 C 0.42742 0.02714 0.00713 0.0
C232 C 0.51979 0.93978 0.04071 0.0
C233 C 0.45707 0.06178 0.96544 0.0
C234 C 0.51808 0.04016 0.96259 0.0
C235 C 0.61129 -0.04302 -0.00253 0.0
C236 C 0.6429 0.89118 0.03345 0.0
C237 C 0.54995 -0.02071 0.00012 0.0
C238 C 0.6106 0.84834 0.07209 0.0
C239 C 0.55047 0.87395 0.07628 0.0
H240 H 0.48465 0.77136 0.55936 0.0
H241 H 0.40525 -0.00571 0.45183 0.0
H242 H 0.50504 0.0593 0.44056 0.0
H243 H 0.61468 0.05938 0.46386 0.0
H244 H 0.69485 0.83931 0.57195 0.0
H245 H 0.59492 0.76834 0.58081 0.0
C246 C 0.48872 0.83492 0.53386 0.0
C247 C 0.43646 0.87758 0.50687 0.0
C248 C 0.54666 0.87332 0.52781 0.0
C249 C 0.44392 -0.04194 0.47278 0.0
C250 C 0.50127 -0.00372 0.46649 0.0
C251 C 0.61046 -0.00447 0.48913 0.0
C252 C 0.66226 -0.04427 0.51768 0.0
C253 C 0.55288 -0.0448 0.49414 0.0
C254 C 0.65565 0.87297 0.55036 0.0
C255 C 0.59853 0.83193 0.55523 0.0
H256 H 0.95823 0.58651 0.02317 0.0
H257 H 0.89796 0.45831 0.87988 0.0
H258 H 0.99889 0.38968 0.87528 0.0
H259 H 0.10232 0.36234 0.91316 0.0
H260 H 0.16717 0.51427 0.04946 0.0
H261 H 0.06569 0.57408 0.05636 0.0
C262 C 0.96736 0.54392 0.99086 0.0
C263 C 0.92066 0.52655 0.95218 0.0
C264 C 1.02597 0.50759 0.9876 0.0
C265 C 0.93324 0.47253 0.91014 0.0
C266 C 0.99084 0.43306 0.90759 0.0
C267 C 0.09547 0.4105 0.94386 0.0
C268 C 0.14372 0.43225 0.98078 0.0
C269 C 1.03748 0.4499 0.94622 0.0
C270 C 0.1316 0.49236 0.02109 0.0
C271 C 0.07334 0.52832 0.02482 0.0
H272 H 0.10875 0.599 0.43108 0.0
H273 H 0.19066 0.38677 0.54346 0.0
H274 H 0.09137 0.32417 0.55818 0.0
H275 H 0.98145 0.32165 0.53589 0.0
H276 H 0.8992 0.53358 0.42419 0.0
H277 H 0.9987 0.60232 0.41195 0.0
C278 C 0.1055 0.53823 0.45842 0.0
C279 C 0.15834 0.49734 0.48531 0.0
C280 C 0.0479 0.5015 0.46664 0.0
C281 C 0.15167 0.42124 0.52211 0.0
C282 C 0.09457 0.38432 0.53042 0.0
C283 C 0.98513 0.38345 0.50919 0.0
C284 C 0.93288 0.4213 0.48047 0.0
C285 C 0.04246 0.42295 0.50244 0.0
C286 C 0.93875 0.50126 0.44588 0.0
C287 C 0.99562 0.54111 0.4391 0.0
H288 H 0.0647 0.81854 0.35216 0.0
H289 H 0.08252 0.13434 0.36542 0.0
H290 H 0.08064 0.15551 0.27333 0.0
H291 H 0.06769 0.08574 0.189 0.0
H292 H 0.04622 0.77054 0.17503 0.0
H293 H 0.05583 0.74786 0.26743 0.0
C294 C 0.06895 0.89176 0.33486 0.0
C295 C 0.07328 -0.02526 0.36534 0.0
C296 C 0.0666 0.9037 0.2818 0.0
C297 C 0.07847 0.06935 0.34257 0.0
C298 C 0.0774 0.0816 0.28996 0.0
C299 C 0.06537 0.01201 0.20612 0.0
C300 C 0.05585 0.93017 0.17519 0.0
C301 C 0.07031 -0.00049 0.25917 0.0
C302 C 0.05315 0.83503 0.198 0.0
C303 C 0.05872 0.82187 0.25084 0.0
H304 H 0.11573 0.95337 0.85784 0.0
H305 H 0.92165 -0.01658 0.85159 0.0
H306 H 0.91333 -0.02214 0.75874 0.0
H307 H 0.96151 -0.03661 0.67927 0.0
H308 H 0.1556 0.92788 0.68711 0.0
H309 H 0.16337 0.93632 0.7793 0.0
C310 C 0.0716 -0.04075 0.83618 0.0
C311 C 1.01944 -0.03068 0.86152 0.0
C312 C 0.06709 -0.04538 0.78303 0.0
C313 C 0.96252 -0.0245 0.83294 0.0
C314 C 0.95773 -0.02761 0.77986 0.0
C315 C 1.00548 -0.04243 0.70115 0.0
C316 C 0.05785 0.94531 0.67616 0.0
C317 C 1.00974 -0.03827 0.75448 0.0
C318 C 0.11447 0.93742 0.7052 0.0
C319 C 0.11907 0.94235 0.75802 0.0
H320 H 0.49163 0.52677 0.29606 0.0
H321 H 0.65768 0.36019 0.32329 0.0
H322 H 0.66442 0.35576 0.23122 0.0
H323 H 0.62134 0.39804 0.14262 0.0
H324 H 0.45034 0.5516 0.11769 0.0
H325 H 0.4473 0.56308 0.20929 0.0
C326 C 0.5296 0.4901 0.28188 0.0
C327 C 0.57449 0.44486 0.31624 0.0
C328 C 0.5321 0.48556 0.22933 0.0
C329 C 0.62267 0.39567 0.29741 0.0
C330 C 0.62652 0.39332 0.24487 0.0
C331 C 0.58373 0.4343 0.15752 0.0
C332 C 0.53624 0.47433 0.12379 0.0
C333 C 0.58135 0.43787 0.21043 0.0
C334 C 0.4872 0.51996 0.14314 0.0
C335 C 0.4855 0.52671 0.19541 0.0
H336 H 0.50986 0.5738 0.6314 0.0
H337 H 0.51745 0.25533 0.63041 0.0
H338 H 0.51164 0.24555 0.72214 0.0
H339 H 0.5113 0.32773 0.80321 0.0
H340 H 0.50821 0.64647 0.80439 0.0
H341 H 0.50515 0.65568 0.71193 0.0
C342 C 0.50953 0.50223 0.65116 0.0
C343 C 0.51455 0.41552 0.62433 0.0
C344 C 0.50746 0.49715 0.70397 0.0
C345 C 0.51426 0.32327 0.65041 0.0
C346 C 0.51093 0.31755 0.70282 0.0
C347 C 0.50947 0.39917 0.78321 0.0
C348 C 0.51042 0.48618 0.81063 0.0
C349 C 0.50868 0.40407 0.73011 0.0
C350 C 0.50805 0.57826 0.78419 0.0
C351 C 0.50622 0.58371 0.7313 0.0
loop_
_geom_bond_atom_site_label_1
_geom_bond_atom_site_label_2
_geom_bond_distance
_geom_bond_site_symmetry_2
_ccdc_geom_bond_type
Tb0 C10 2.825 . S
Tb0 O11 2.347 1_556 S
Tb0 O14 2.366 1_565 S
Tb0 O19 2.418 . S
Tb0 O20 2.384 1_655 S
Tb0 O23 2.479 . S
Tb0 O24 2.471 1_556 S
Eu1 O12 2.418 . S
Eu1 O13 2.384 1_455 S
Eu1 O16 2.479 . S
Eu1 O17 2.471 1_554 S
Eu1 O18 2.347 1_554 S
Eu1 O21 2.366 1_545 S
Eu1 C31 2.825 . S
C2 O18 1.259 1_665 S
C2 O19 1.265 . S
C3 O20 1.255 1_554 S
C3 O21 1.265 . S
C4 C6 1.380 1_554 S
C4 C7 1.374 . S
C4 C10 1.507 1_554 S
C5 C6 1.384 . S
C5 C9 1.387 1_556 S
C5 H32 0.930 . S
C6 C4 1.380 1_556 S
C6 C5 1.384 . S
C6 H33 0.931 . S
C7 C4 1.374 . S
C7 C8 1.390 . S
C7 H34 0.930 . S
C8 C7 1.390 . S
C8 C9 1.391 . S
C8 H35 0.930 . S
C9 C5 1.387 1_554 S
C9 C8 1.391 . S
C10 Tb0 2.825 . S
C10 C4 1.507 1_556 S
C10 O23 1.238 . S
C10 O24 1.247 1_556 S
O11 Tb0 2.347 1_554 S
O11 C15 1.259 1_665 S
O12 Eu1 2.418 . S
O12 C15 1.265 . S
O13 Eu1 2.384 1_655 S
O13 C22 1.255 1_554 S
O14 Tb0 2.366 1_545 S
O14 C22 1.265 . S
C15 O11 1.259 1_445 S
C15 O12 1.265 . S
O16 Eu1 2.479 . S
O16 C31 1.238 . S
O17 Eu1 2.471 1_556 S
O17 C31 1.247 1_556 S
O18 Eu1 2.347 1_556 S
O18 C2 1.259 1_445 S
O19 Tb0 2.418 . S
O19 C2 1.265 . S
O20 Tb0 2.384 1_455 S
O20 C3 1.255 1_556 S
O21 Eu1 2.366 1_565 S
O21 C3 1.265 . S
C22 O13 1.255 1_556 S
C22 O14 1.265 . S
O23 Tb0 2.479 . S
O23 C10 1.238 . S
O24 Tb0 2.471 1_554 S
O24 C10 1.247 1_554 S
C25 C28 1.380 1_556 S
C25 C29 1.374 . S
C25 C31 1.507 1_556 S
C26 C27 1.387 1_556 S
C26 C30 1.391 . S
C27 C26 1.387 1_554 S
C27 C28 1.384 . S
C27 H36 0.930 . S
C28 C25 1.380 1_554 S
C28 C27 1.384 . S
C28 H37 0.931 . S
C29 C25 1.374 . S
C29 C30 1.390 . S
C29 H38 0.930 . S
C30 C26 1.391 . S
C30 C29 1.390 . S
C30 H39 0.930 . S
C31 Eu1 2.825 . S
C31 O16 1.238 . S
C31 O17 1.247 1_554 S
C31 C25 1.507 1_554 S
H32 C5 0.930 . S
H33 C6 0.931 . S
H34 C7 0.930 . S
H35 C8 0.930 . S
H36 C27 0.930 . S
H37 C28 0.931 . S
H38 C29 0.930 . S
H39 C30 0.930 . S
Tb40 C50 2.825 . S
Tb40 O51 2.347 . S
Tb40 O54 2.366 1_565 S
Tb40 O59 2.418 . S
Tb40 O60 2.384 1_455 S
Tb40 O63 2.479 . S
Tb40 O64 2.471 . S
Eu41 O52 2.418 . S
Eu41 O53 2.384 1_655 S
Eu41 O56 2.479 . S
Eu41 O57 2.471 . S
Eu41 O58 2.347 . S
Eu41 O61 2.366 1_545 S
Eu41 C71 2.825 . S
C42 O58 1.259 1_465 S
C42 O59 1.265 . S
C43 O60 1.255 . S
C43 O61 1.265 . S
C44 C46 1.380 . S
C44 C47 1.374 . S
C44 C50 1.507 . S
C45 C46 1.384 . S
C45 C49 1.387 . S
C45 H72 0.930 . S
C46 C44 1.380 . S
C46 C45 1.384 . S
C46 H73 0.931 . S
C47 C44 1.374 . S
C47 C48 1.390 . S
C47 H74 0.930 . S
C48 C47 1.390 . S
C48 C49 1.391 . S
C48 H75 0.930 . S
C49 C45 1.387 . S
C49 C48 1.391 . S
C50 Tb40 2.825 . S
C50 C44 1.507 . S
C50 O63 1.238 . S
C50 O64 1.247 . S
O51 Tb40 2.347 . S
O51 C55 1.259 1_465 S
O52 Eu41 2.418 . S
O52 C55 1.265 . S
O53 Eu41 2.384 1_455 S
O53 C62 1.255 . S
O54 Tb40 2.366 1_545 S
O54 C62 1.265 . S
C55 O51 1.259 1_645 S
C55 O52 1.265 . S
O56 Eu41 2.479 . S
O56 C71 1.238 . S
O57 Eu41 2.471 . S
O57 C71 1.247 . S
O58 Eu41 2.347 . S
O58 C42 1.259 1_645 S
O59 Tb40 2.418 . S
O59 C42 1.265 . S
O60 Tb40 2.384 1_655 S
O60 C43 1.255 . S
O61 Eu41 2.366 1_565 S
O61 C43 1.265 . S
C62 O53 1.255 . S
C62 O54 1.265 . S
O63 Tb40 2.479 . S
O63 C50 1.238 . S
O64 Tb40 2.471 . S
O64 C50 1.247 . S
C65 C68 1.380 . S
C65 C69 1.374 . S
C65 C71 1.507 . S
C66 C67 1.387 . S
C66 C70 1.391 . S
C67 C66 1.387 . S
C67 C68 1.384 . S
C67 H76 0.930 . S
C68 C65 1.380 . S
C68 C67 1.384 . S
C68 H77 0.931 . S
C69 C65 1.374 . S
C69 C70 1.390 . S
C69 H78 0.930 . S
C70 C66 1.391 . S
C70 C69 1.390 . S
C70 H79 0.930 . S
C71 Eu41 2.825 . S
C71 O56 1.238 . S
C71 O57 1.247 . S
C71 C65 1.507 . S
H72 C45 0.930 . S
H73 C46 0.931 . S
H74 C47 0.930 . S
H75 C48 0.930 . S
H76 C67 0.930 . S
H77 C68 0.931 . S
H78 C69 0.930 . S
H79 C70 0.930 . S
Tb80 C90 2.825 . S
Tb80 O91 2.347 1_556 S
Tb80 O94 2.366 . S
Tb80 O99 2.418 . S
Tb80 O100 2.384 . S
Tb80 O103 2.479 . S
Tb80 O104 2.471 1_556 S
Eu81 O92 2.418 . S
Eu81 O93 2.384 . S
Eu81 O96 2.479 . S
Eu81 O97 2.471 1_554 S
Eu81 O98 2.347 1_554 S
Eu81 O101 2.366 . S
Eu81 C111 2.825 . S
C82 O98 1.259 . S
C82 O99 1.265 . S
C83 O100 1.255 1_554 S
C83 O101 1.265 . S
C84 C86 1.380 1_554 S
C84 C87 1.374 . S
C84 C90 1.507 1_554 S
C85 C86 1.384 . S
C85 C89 1.387 1_556 S
C85 H112 0.930 . S
C86 C84 1.380 1_556 S
C86 C85 1.384 . S
C86 H113 0.931 . S
C87 C84 1.374 . S
C87 C88 1.390 . S
C87 H114 0.930 . S
C88 C87 1.390 . S
C88 C89 1.391 . S
C88 H115 0.930 . S
C89 C85 1.387 1_554 S
C89 C88 1.391 . S
C90 Tb80 2.825 . S
C90 C84 1.507 1_556 S
C90 O103 1.238 . S
C90 O104 1.247 1_556 S
O91 Tb80 2.347 1_554 S
O91 C95 1.259 . S
O92 Eu81 2.418 . S
O92 C95 1.265 . S
O93 Eu81 2.384 . S
O93 C102 1.255 1_554 S
O94 Tb80 2.366 . S
O94 C102 1.265 . S
C95 O91 1.259 . S
C95 O92 1.265 . S
O96 Eu81 2.479 . S
O96 C111 1.238 . S
O97 Eu81 2.471 1_556 S
O97 C111 1.247 1_556 S
O98 Eu81 2.347 1_556 S
O98 C82 1.259 . S
O99 Tb80 2.418 . S
O99 C82 1.265 . S
O100 Tb80 2.384 . S
O100 C83 1.255 1_556 S
O101 Eu81 2.366 . S
O101 C83 1.265 . S
C102 O93 1.255 1_556 S
C102 O94 1.265 . S
O103 Tb80 2.479 . S
O103 C90 1.238 . S
O104 Tb80 2.471 1_554 S
O104 C90 1.247 1_554 S
C105 C108 1.380 1_556 S
C105 C109 1.374 . S
C105 C111 1.507 1_556 S
C106 C107 1.387 1_556 S
C106 C110 1.391 . S
C107 C106 1.387 1_554 S
C107 C108 1.384 . S
C107 H116 0.930 . S
C108 C105 1.380 1_554 S
C108 C107 1.384 . S
C108 H117 0.931 . S
C109 C105 1.374 . S
C109 C110 1.390 . S
C109 H118 0.930 . S
C110 C106 1.391 . S
C110 C109 1.390 . S
C110 H119 0.930 . S
C111 Eu81 2.825 . S
C111 O96 1.238 . S
C111 O97 1.247 1_554 S
C111 C105 1.507 1_554 S
H112 C85 0.930 . S
H113 C86 0.931 . S
H114 C87 0.930 . S
H115 C88 0.930 . S
H116 C107 0.930 . S
H117 C108 0.931 . S
H118 C109 0.930 . S
H119 C110 0.930 . S
Tb120 C130 2.825 . S
Tb120 O131 2.347 . S
Tb120 O134 2.366 . S
Tb120 O139 2.418 . S
Tb120 O140 2.384 . S
Tb120 O143 2.479 . S
Tb120 O144 2.471 . S
Eu121 O132 2.418 . S
Eu121 O133 2.384 . S
Eu121 O136 2.479 . S
Eu121 O137 2.471 . S
Eu121 O138 2.347 . S
Eu121 O141 2.366 . S
Eu121 C151 2.825 . S
C122 O138 1.259 . S
C122 O139 1.265 . S
C123 O140 1.255 . S
C123 O141 1.265 . S
C124 C126 1.380 . S
C124 C127 1.374 . S
C124 C130 1.507 . S
C125 C126 1.384 . S
C125 C129 1.387 . S
C125 H152 0.930 . S
C126 C124 1.380 . S
C126 C125 1.384 . S
C126 H153 0.931 . S
C127 C124 1.374 . S
C127 C128 1.390 . S
C127 H154 0.930 . S
C128 C127 1.390 . S
C128 C129 1.391 . S
C128 H155 0.930 . S
C129 C125 1.387 . S
C129 C128 1.391 . S
C130 Tb120 2.825 . S
C130 C124 1.507 . S
C130 O143 1.238 . S
C130 O144 1.247 . S
O131 Tb120 2.347 . S
O131 C135 1.259 . S
O132 Eu121 2.418 . S
O132 C135 1.265 . S
O133 Eu121 2.384 . S
O133 C142 1.255 . S
O134 Tb120 2.366 . S
O134 C142 1.265 . S
C135 O131 1.259 . S
C135 O132 1.265 . S
O136 Eu121 2.479 . S
O136 C151 1.238 . S
O137 Eu121 2.471 . S
O137 C151 1.247 . S
O138 Eu121 2.347 . S
O138 C122 1.259 . S
O139 Tb120 2.418 . S
O139 C122 1.265 . S
O140 Tb120 2.384 . S
O140 C123 1.255 . S
O141 Eu121 2.366 . S
O141 C123 1.265 . S
C142 O133 1.255 . S
C142 O134 1.265 . S
O143 Tb120 2.479 . S
O143 C130 1.238 . S
O144 Tb120 2.471 . S
O144 C130 1.247 . S
C145 C148 1.380 . S
C145 C149 1.374 . S
C145 C151 1.507 . S
C146 C147 1.387 . S
C146 C150 1.391 . S
C147 C146 1.387 . S
C147 C148 1.384 . S
C147 H156 0.930 . S
C148 C145 1.380 . S
C148 C147 1.384 . S
C148 H157 0.931 . S
C149 C145 1.374 . S
C149 C150 1.390 . S
C149 H158 0.930 . S
C150 C146 1.391 . S
C150 C149 1.390 . S
C150 H159 0.930 . S
C151 Eu121 2.825 . S
C151 O136 1.238 . S
C151 O137 1.247 . S
C151 C145 1.507 . S
H152 C125 0.930 . S
H153 C126 0.931 . S
H154 C127 0.930 . S
H155 C128 0.930 . S
H156 C147 0.930 . S
H157 C148 0.931 . S
H158 C149 0.930 . S
H159 C150 0.930 . S
H160 C166 0.930 . S
H161 C169 0.930 . S
H162 C170 0.930 . S
H163 C171 0.930 . S
H164 C174 0.930 . S
H165 C175 0.930 . S
C166 H160 0.930 . S
C166 C167 1.355 . S
C166 C168 1.415 . S
C167 C166 1.355 . S
C167 C169 1.419 1_556 S
C168 C166 1.415 . S
C168 C173 1.425 1_556 S
C168 C175 1.409 . S
C169 H161 0.930 . S
C169 C167 1.419 1_554 S
C169 C170 1.362 . S
C170 H162 0.930 . S
C170 C169 1.362 . S
C170 C173 1.409 . S
C171 H163 0.930 . S
C171 C172 1.355 . S
C171 C173 1.415 . S
C172 C171 1.355 . S
C172 C174 1.419 1_554 S
C173 C168 1.425 1_554 S
C173 C170 1.409 . S
C173 C171 1.415 . S
C174 H164 0.930 . S
C174 C172 1.419 1_556 S
C174 C175 1.362 . S
C175 H165 0.930 . S
C175 C168 1.409 . S
C175 C174 1.362 . S
H176 C182 0.930 . S
H177 C185 0.930 . S
H178 C186 0.930 . S
H179 C187 0.930 . S
H180 C190 0.930 . S
H181 C191 0.930 . S
C182 H176 0.930 . S
C182 C183 1.355 . S
C182 C184 1.411 1_554 S
C183 C182 1.355 . S
C183 C185 1.419 . S
C184 C182 1.411 1_556 S
C184 C189 1.427 1_556 S
C184 C191 1.412 . S
C185 H177 0.930 . S
C185 C183 1.419 . S
C185 C186 1.362 . S
C186 H178 0.930 . S
C186 C185 1.362 . S
C186 C189 1.413 . S
C187 H179 0.930 . S
C187 C188 1.355 . S
C187 C189 1.410 1_556 S
C188 C187 1.355 . S
C188 C190 1.419 . S
C189 C184 1.427 1_554 S
C189 C186 1.413 . S
C189 C187 1.410 1_554 S
C190 H180 0.930 . S
C190 C188 1.419 . S
C190 C191 1.362 . S
C191 H181 0.930 . S
C191 C184 1.412 . S
C191 C190 1.362 . S
H192 C198 0.930 . S
H193 C201 0.930 . S
H194 C202 0.930 . S
H195 C203 0.930 . S
H196 C206 0.930 . S
H197 C207 0.930 . S
C198 H192 0.930 . S
C198 C199 1.355 . S
C198 C200 1.415 . S
C199 C198 1.355 . S
C199 C201 1.419 . S
C200 C198 1.415 . S
C200 C205 1.425 . S
C200 C207 1.409 . S
C201 H193 0.930 . S
C201 C199 1.419 . S
C201 C202 1.362 . S
C202 H194 0.930 . S
C202 C201 1.362 . S
C202 C205 1.409 . S
C203 H195 0.930 . S
C203 C204 1.355 . S
C203 C205 1.415 . S
C204 C203 1.355 . S
C204 C206 1.419 . S
C205 C200 1.425 . S
C205 C202 1.409 . S
C205 C203 1.415 . S
C206 H196 0.930 . S
C206 C204 1.419 . S
C206 C207 1.362 . S
C207 H197 0.930 . S
C207 C200 1.409 . S
C207 C206 1.362 . S
H208 C214 0.930 . S
H209 C217 0.930 . S
H210 C218 0.930 . S
H211 C219 0.930 . S
H212 C222 0.930 . S
H213 C223 0.930 . S
C214 H208 0.930 . S
C214 C215 1.355 . S
C214 C216 1.415 . S
C215 C214 1.355 . S
C215 C217 1.419 . S
C216 C214 1.415 . S
C216 C221 1.425 . S
C216 C223 1.409 . S
C217 H209 0.930 . S
C217 C215 1.419 . S
C217 C218 1.362 . S
C218 H210 0.930 . S
C218 C217 1.362 . S
C218 C221 1.409 . S
C219 H211 0.930 . S
C219 C220 1.355 . S
C219 C221 1.415 . S
C220 C219 1.355 . S
C220 C222 1.419 . S
C221 C216 1.425 . S
C221 C218 1.409 . S
C221 C219 1.415 . S
C222 H212 0.930 . S
C222 C220 1.419 . S
C222 C223 1.362 . S
C223 H213 0.930 . S
C223 C216 1.409 . S
C223 C222 1.362 . S
H224 C230 0.930 1_565 S
H225 C233 0.930 . S
H226 C234 0.930 . S
H227 C235 0.930 1_545 S
H228 C238 0.930 . S
H229 C239 0.930 . S
C230 H224 0.930 1_545 S
C230 C231 1.355 . S
C230 C232 1.415 1_546 S
C231 C230 1.355 . S
C231 C233 1.419 . S
C232 C230 1.415 1_564 S
C232 C237 1.425 1_565 S
C232 C239 1.409 . S
C233 H225 0.930 . S
C233 C231 1.419 . S
C233 C234 1.362 . S
C234 H226 0.930 . S
C234 C233 1.362 . S
C234 C237 1.409 1_556 S
C235 H227 0.930 1_565 S
C235 C236 1.355 . S
C235 C237 1.415 1_565 S
C236 C235 1.355 . S
C236 C238 1.419 . S
C237 C232 1.425 1_545 S
C237 C234 1.409 1_554 S
C237 C235 1.415 1_545 S
C238 H228 0.930 . S
C238 C236 1.419 . S
C238 C239 1.362 . S
C239 H229 0.930 . S
C239 C232 1.409 . S
C239 C238 1.362 . S
H240 C246 0.930 . S
H241 C249 0.930 1_545 S
H242 C250 0.930 . S
H243 C251 0.930 . S
H244 C254 0.930 1_565 S
H245 C255 0.930 . S
C246 H240 0.930 . S
C246 C247 1.355 . S
C246 C248 1.415 . S
C247 C246 1.355 . S
C247 C249 1.419 . S
C248 C246 1.415 . S
C248 C253 1.425 1_565 S
C248 C255 1.409 . S
C249 H241 0.930 1_565 S
C249 C247 1.419 . S
C249 C250 1.362 1_565 S
C250 H242 0.930 . S
C250 C249 1.362 1_545 S
C250 C253 1.409 . S
C251 H243 0.930 . S
C251 C252 1.355 . S
C251 C253 1.415 . S
C252 C251 1.355 . S
C252 C254 1.419 . S
C253 C248 1.425 1_545 S
C253 C250 1.409 . S
C253 C251 1.415 . S
C254 H244 0.930 1_545 S
C254 C252 1.419 . S
C254 C255 1.362 1_545 S
C255 H245 0.930 . S
C255 C248 1.409 . S
C255 C254 1.362 1_565 S
H256 C262 0.930 . S
H257 C265 0.930 . S
H258 C266 0.930 . S
H259 C267 0.930 . S
H260 C270 0.930 . S
H261 C271 0.930 . S
C262 H256 0.930 . S
C262 C263 1.355 1_554 S
C262 C264 1.415 1_655 S
C263 C262 1.355 1_556 S
C263 C265 1.419 . S
C264 C262 1.415 1_455 S
C264 C269 1.425 1_454 S
C264 C271 1.409 . S
C265 H257 0.930 . S
C265 C263 1.419 . S
C265 C266 1.362 . S
C266 H258 0.930 . S
C266 C265 1.362 . S
C266 C269 1.409 . S
C267 H259 0.930 . S
C267 C268 1.355 1_556 S
C267 C269 1.415 1_455 S
C268 C267 1.355 1_554 S
C268 C270 1.419 . S
C269 C264 1.425 1_656 S
C269 C266 1.409 . S
C269 C267 1.415 1_655 S
C270 H260 0.930 . S
C270 C268 1.419 . S
C270 C271 1.362 . S
C271 H261 0.930 . S
C271 C264 1.409 . S
C271 C270 1.362 . S
H272 C278 0.930 . S
H273 C281 0.930 . S
H274 C282 0.930 . S
H275 C283 0.930 . S
H276 C286 0.930 . S
H277 C287 0.930 . S
C278 H272 0.930 . S
C278 C279 1.355 . S
C278 C280 1.415 1_455 S
C279 C278 1.355 . S
C279 C281 1.419 . S
C280 C278 1.415 1_655 S
C280 C285 1.425 1_655 S
C280 C287 1.409 . S
C281 H273 0.930 . S
C281 C279 1.419 . S
C281 C282 1.362 . S
C282 H274 0.930 . S
C282 C281 1.362 . S
C282 C285 1.409 . S
C283 H275 0.930 . S
C283 C284 1.355 . S
C283 C285 1.415 1_655 S
C284 C283 1.355 . S
C284 C286 1.419 . S
C285 C280 1.425 1_455 S
C285 C282 1.409 . S
C285 C283 1.415 1_455 S
C286 H276 0.930 . S
C286 C284 1.419 . S
C286 C287 1.362 . S
C287 H277 0.930 . S
C287 C280 1.409 . S
C287 C286 1.362 . S
H288 C294 0.930 . S
H289 C297 0.930 . S
H290 C298 0.930 . S
H291 C299 0.930 . S
H292 C302 0.930 . S
H293 C303 0.930 . S
C294 H288 0.930 . S
C294 C295 1.355 1_655 S
C294 C296 1.415 . S
C295 C294 1.355 1_455 S
C295 C297 1.419 1_565 S
C296 C294 1.415 . S
C296 C301 1.425 1_665 S
C296 C303 1.409 . S
C297 H289 0.930 . S
C297 C295 1.419 1_545 S
C297 C298 1.362 . S
C298 H290 0.930 . S
C298 C297 1.362 . S
C298 C301 1.409 . S
C299 H291 0.930 . S
C299 C300 1.355 1_445 S
C299 C301 1.415 . S
C300 C299 1.355 1_665 S
C300 C302 1.419 . S
C301 C296 1.425 1_445 S
C301 C298 1.409 . S
C301 C299 1.415 . S
C302 H292 0.930 . S
C302 C300 1.419 . S
C302 C303 1.362 . S
C303 H293 0.930 . S
C303 C296 1.409 . S
C303 C302 1.362 . S
H304 C310 0.930 . S
H305 C313 0.930 . S
H306 C314 0.930 . S
H307 C315 0.930 . S
H308 C318 0.930 . S
H309 C319 0.930 . S
C310 H304 0.930 . S
C310 C311 1.355 1_465 S
C310 C312 1.415 . S
C311 C310 1.355 1_645 S
C311 C313 1.419 . S
C312 C310 1.415 . S
C312 C317 1.425 1_465 S
C312 C319 1.409 . S
C313 H305 0.930 . S
C313 C311 1.419 . S
C313 C314 1.362 . S
C314 H306 0.930 . S
C314 C313 1.362 . S
C314 C317 1.409 . S
C315 H307 0.930 . S
C315 C316 1.357 1_655 S
C315 C317 1.415 . S
C316 C315 1.357 1_455 S
C316 C318 1.416 1_545 S
C317 C312 1.425 1_645 S
C317 C314 1.409 . S
C317 C315 1.415 . S
C318 H308 0.930 . S
C318 C316 1.416 1_565 S
C318 C319 1.362 . S
C319 H309 0.930 . S
C319 C312 1.409 . S
C319 C318 1.362 . S
H320 C326 0.930 . S
H321 C329 0.930 . S
H322 C330 0.930 . S
H323 C331 0.930 . S
H324 C334 0.930 . S
H325 C335 0.930 . S
C326 H320 0.930 . S
C326 C327 1.355 . S
C326 C328 1.415 . S
C327 C326 1.355 . S
C327 C329 1.419 . S
C328 C326 1.415 . S
C328 C333 1.425 . S
C328 C335 1.409 . S
C329 H321 0.930 . S
C329 C327 1.419 . S
C329 C330 1.362 . S
C330 H322 0.930 . S
C330 C329 1.362 . S
C330 C333 1.409 . S
C331 H323 0.930 . S
C331 C332 1.355 . S
C331 C333 1.415 . S
C332 C331 1.355 . S
C332 C334 1.419 . S
C333 C328 1.425 . S
C333 C330 1.409 . S
C333 C331 1.415 . S
C334 H324 0.930 . S
C334 C332 1.419 . S
C334 C335 1.362 . S
C335 H325 0.930 . S
C335 C328 1.409 . S
C335 C334 1.362 . S
H336 C342 0.930 . S
H337 C345 0.930 . S
H338 C346 0.930 . S
H339 C347 0.930 . S
H340 C350 0.930 . S
H341 C351 0.930 . S
C342 H336 0.930 . S
C342 C343 1.355 . S
C342 C344 1.415 . S
C343 C342 1.355 . S
C343 C345 1.419 . S
C344 C342 1.415 . S
C344 C349 1.425 . S
C344 C351 1.409 . S
C345 H337 0.930 . S
C345 C343 1.419 . S
C345 C346 1.362 . S
C346 H338 0.930 . S
C346 C345 1.362 . S
C346 C349 1.409 . S
C347 H339 0.930 . S
C347 C348 1.355 . S
C347 C349 1.415 . S
C348 C347 1.355 . S
C348 C350 1.419 . S
C349 C344 1.425 . S
C349 C346 1.409 . S
C349 C347 1.415 . S
C350 H340 0.930 . S
C350 C348 1.419 . S
C350 C351 1.362 . S
C351 H341 0.930 . S
C351 C344 1.409 . S
C351 C350 1.362 . S
C167 C102 1.650 . S
C172 C3 1.650 . S
C183 C83 1.645 . S
C188 C22 1.645 . S
C199 C62 1.646 . S
C204 C123 1.646 . S
C215 C43 1.640 . S
C220 C142 1.640 . S
C231 C26 1.810 . S
C236 C9 1.810 . S
C247 C49 1.739 . S
C252 C66 1.739 . S
C263 C106 1.761 . S
C268 C89 1.761 . S
C279 C146 1.751 . S
C284 C129 1.751 . S
C295 C55 1.484 1_465 S
C300 C15 1.483 1_665 S
C311 C2 1.470 1_545 S
C316 C42 1.440 1_545 S
C327 C135 1.494 . S
C332 C95 1.464 . S
C343 C122 1.455 . S
C348 C82 1.493 . S
