# Generated by pormake.
# Topology ukr, (4)-cn, num edge types: 1
# Building blocks:
#     Node 0, Type 0, BuildingBlock: TATPOV_clean_sbu_0, # of connection points: 4
#     Node 1, Type 0, BuildingBlock: TATPOV_clean_sbu_0, # of connection points: 4
#     Node 2, Type 0, BuildingBlock: TATPOV_clean_sbu_0, # of connection points: 4
#     Node 3, Type 0, BuildingBlock: TATPOV_clean_sbu_0, # of connection points: 4
#     Node 4, Type 0, BuildingBlock: TATPOV_clean_sbu_0, # of connection points: 4
#     Node 5, Type 0, BuildingBlock: TATPOV_clean_sbu_0, # of connection points: 4
#     Node 6, Type 0, BuildingBlock: TATPOV_clean_sbu_0, # of connection points: 4
#     Node 7, Type 0, BuildingBlock: TATPOV_clean_sbu_0, # of connection points: 4
#     Node 8, Type 0, BuildingBlock: TATPOV_clean_sbu_0, # of connection points: 4
#     Node 9, Type 0, BuildingBlock: TATPOV_clean_sbu_0, # of connection points: 4
#     Node 10, Type 0, BuildingBlock: TATPOV_clean_sbu_0, # of connection points: 4
#     Node 11, Type 0, BuildingBlock: TATPOV_clean_sbu_0, # of connection points: 4
#     Node 12, Type 0, BuildingBlock: TATPOV_clean_sbu_0, # of connection points: 4
#     Node 13, Type 0, BuildingBlock: TATPOV_clean_sbu_0, # of connection points: 4
#     Node 14, Type 0, BuildingBlock: TATPOV_clean_sbu_0, # of connection points: 4
#     Node 15, Type 0, BuildingBlock: TATPOV_clean_sbu_0, # of connection points: 4
#     Node 16, Type 0, BuildingBlock: TATPOV_clean_sbu_0, # of connection points: 4
#     Node 17, Type 0, BuildingBlock: TATPOV_clean_sbu_0, # of connection points: 4
#     Node 18, Type 0, BuildingBlock: TATPOV_clean_sbu_0, # of connection points: 4
#     Node 19, Type 0, BuildingBlock: TATPOV_clean_sbu_0, # of connection points: 4
#     Node 20, Type 0, BuildingBlock: TATPOV_clean_sbu_0, # of connection points: 4
#     Node 21, Type 0, BuildingBlock: TATPOV_clean_sbu_0, # of connection points: 4
#     Node 22, Type 0, BuildingBlock: TATPOV_clean_sbu_0, # of connection points: 4
#     Node 23, Type 0, BuildingBlock: TATPOV_clean_sbu_0, # of connection points: 4
#     Node 24, Type 0, BuildingBlock: TATPOV_clean_sbu_0, # of connection points: 4
#     Node 25, Type 0, BuildingBlock: TATPOV_clean_sbu_0, # of connection points: 4
#     Node 26, Type 0, BuildingBlock: TATPOV_clean_sbu_0, # of connection points: 4
#     Node 27, Type 0, BuildingBlock: TATPOV_clean_sbu_0, # of connection points: 4
#     Node 28, Type 0, BuildingBlock: TATPOV_clean_sbu_0, # of connection points: 4
#     Node 29, Type 0, BuildingBlock: TATPOV_clean_sbu_0, # of connection points: 4
#     Node 30, Type 0, BuildingBlock: TATPOV_clean_sbu_0, # of connection points: 4
#     Node 31, Type 0, BuildingBlock: TATPOV_clean_sbu_0, # of connection points: 4
#     Node 32, Type 0, BuildingBlock: TATPOV_clean_sbu_0, # of connection points: 4
#     Node 33, Type 0, BuildingBlock: TATPOV_clean_sbu_0, # of connection points: 4
#     Node 34, Type 0, BuildingBlock: TATPOV_clean_sbu_0, # of connection points: 4
#     Node 35, Type 0, BuildingBlock: TATPOV_clean_sbu_0, # of connection points: 4
#     Node 36, Type 0, BuildingBlock: TATPOV_clean_sbu_0, # of connection points: 4
#     Node 37, Type 0, BuildingBlock: TATPOV_clean_sbu_0, # of connection points: 4
#     Node 38, Type 0, BuildingBlock: TATPOV_clean_sbu_0, # of connection points: 4
#     Node 39, Type 0, BuildingBlock: TATPOV_clean_sbu_0, # of connection points: 4
#     Node 40, Type 0, BuildingBlock: TATPOV_clean_sbu_0, # of connection points: 4
#     Node 41, Type 0, BuildingBlock: TATPOV_clean_sbu_0, # of connection points: 4
#     Node 42, Type 0, BuildingBlock: TATPOV_clean_sbu_0, # of connection points: 4
#     Node 43, Type 0, BuildingBlock: TATPOV_clean_sbu_0, # of connection points: 4
#     Node 44, Type 0, BuildingBlock: TATPOV_clean_sbu_0, # of connection points: 4
#     Node 45, Type 0, BuildingBlock: TATPOV_clean_sbu_0, # of connection points: 4
#     Node 46, Type 0, BuildingBlock: TATPOV_clean_sbu_0, # of connection points: 4
#     Node 47, Type 0, BuildingBlock: TATPOV_clean_sbu_0, # of connection points: 4
#     Edge 48, Type (0, 0), BuildingBlock: CIFDUS_clean_linker_0, # of connection points: 2
#     Edge 49, Type (0, 0), BuildingBlock: CIFDUS_clean_linker_0, # of connection points: 2
#     Edge 50, Type (0, 0), BuildingBlock: CIFDUS_clean_linker_0, # of connection points: 2
#     Edge 51, Type (0, 0), BuildingBlock: CIFDUS_clean_linker_0, # of connection points: 2
#     Edge 52, Type (0, 0), BuildingBlock: CIFDUS_clean_linker_0, # of connection points: 2
#     Edge 53, Type (0, 0), BuildingBlock: CIFDUS_clean_linker_0, # of connection points: 2
#     Edge 54, Type (0, 0), BuildingBlock: CIFDUS_clean_linker_0, # of connection points: 2
#     Edge 55, Type (0, 0), BuildingBlock: CIFDUS_clean_linker_0, # of connection points: 2
#     Edge 56, Type (0, 0), BuildingBlock: CIFDUS_clean_linker_0, # of connection points: 2
#     Edge 57, Type (0, 0), BuildingBlock: CIFDUS_clean_linker_0, # of connection points: 2
#     Edge 58, Type (0, 0), BuildingBlock: CIFDUS_clean_linker_0, # of connection points: 2
#     Edge 59, Type (0, 0), BuildingBlock: CIFDUS_clean_linker_0, # of connection points: 2
#     Edge 60, Type (0, 0), BuildingBlock: CIFDUS_clean_linker_0, # of connection points: 2
#     Edge 61, Type (0, 0), BuildingBlock: CIFDUS_clean_linker_0, # of connection points: 2
#     Edge 62, Type (0, 0), BuildingBlock: CIFDUS_clean_linker_0, # of connection points: 2
#     Edge 63, Type (0, 0), BuildingBlock: CIFDUS_clean_linker_0, # of connection points: 2
#     Edge 64, Type (0, 0), BuildingBlock: CIFDUS_clean_linker_0, # of connection points: 2
#     Edge 65, Type (0, 0), BuildingBlock: CIFDUS_clean_linker_0, # of connection points: 2
#     Edge 66, Type (0, 0), BuildingBlock: CIFDUS_clean_linker_0, # of connection points: 2
#     Edge 67, Type (0, 0), BuildingBlock: CIFDUS_clean_linker_0, # of connection points: 2
#     Edge 68, Type (0, 0), BuildingBlock: CIFDUS_clean_linker_0, # of connection points: 2
#     Edge 69, Type (0, 0), BuildingBlock: CIFDUS_clean_linker_0, # of connection points: 2
#     Edge 70, Type (0, 0), BuildingBlock: CIFDUS_clean_linker_0, # of connection points: 2
#     Edge 71, Type (0, 0), BuildingBlock: CIFDUS_clean_linker_0, # of connection points: 2
#     Edge 72, Type (0, 0), BuildingBlock: CIFDUS_clean_linker_0, # of connection points: 2
#     Edge 73, Type (0, 0), BuildingBlock: CIFDUS_clean_linker_0, # of connection points: 2
#     Edge 74, Type (0, 0), BuildingBlock: CIFDUS_clean_linker_0, # of connection points: 2
#     Edge 75, Type (0, 0), BuildingBlock: CIFDUS_clean_linker_0, # of connection points: 2
#     Edge 76, Type (0, 0), BuildingBlock: CIFDUS_clean_linker_0, # of connection points: 2
#     Edge 77, Type (0, 0), BuildingBlock: CIFDUS_clean_linker_0, # of connection points: 2
#     Edge 78, Type (0, 0), BuildingBlock: CIFDUS_clean_linker_0, # of connection points: 2
#     Edge 79, Type (0, 0), BuildingBlock: CIFDUS_clean_linker_0, # of connection points: 2
#     Edge 80, Type (0, 0), BuildingBlock: CIFDUS_clean_linker_0, # of connection points: 2
#     Edge 81, Type (0, 0), BuildingBlock: CIFDUS_clean_linker_0, # of connection points: 2
#     Edge 82, Type (0, 0), BuildingBlock: CIFDUS_clean_linker_0, # of connection points: 2
#     Edge 83, Type (0, 0), BuildingBlock: CIFDUS_clean_linker_0, # of connection points: 2
#     Edge 84, Type (0, 0), BuildingBlock: CIFDUS_clean_linker_0, # of connection points: 2
#     Edge 85, Type (0, 0), BuildingBlock: CIFDUS_clean_linker_0, # of connection points: 2
#     Edge 86, Type (0, 0), BuildingBlock: CIFDUS_clean_linker_0, # of connection points: 2
#     Edge 87, Type (0, 0), BuildingBlock: CIFDUS_clean_linker_0, # of connection points: 2
#     Edge 88, Type (0, 0), BuildingBlock: CIFDUS_clean_linker_0, # of connection points: 2
#     Edge 89, Type (0, 0), BuildingBlock: CIFDUS_clean_linker_0, # of connection points: 2
#     Edge 90, Type (0, 0), BuildingBlock: CIFDUS_clean_linker_0, # of connection points: 2
#     Edge 91, Type (0, 0), BuildingBlock: CIFDUS_clean_linker_0, # of connection points: 2
#     Edge 92, Type (0, 0), BuildingBlock: CIFDUS_clean_linker_0, # of connection points: 2
#     Edge 93, Type (0, 0), BuildingBlock: CIFDUS_clean_linker_0, # of connection points: 2
#     Edge 94, Type (0, 0), BuildingBlock: CIFDUS_clean_linker_0, # of connection points: 2
#     Edge 95, Type (0, 0), BuildingBlock: CIFDUS_clean_linker_0, # of connection points: 2
#     Edge 96, Type (0, 0), BuildingBlock: CIFDUS_clean_linker_0, # of connection points: 2
#     Edge 97, Type (0, 0), BuildingBlock: CIFDUS_clean_linker_0, # of connection points: 2
#     Edge 98, Type (0, 0), BuildingBlock: CIFDUS_clean_linker_0, # of connection points: 2
#     Edge 99, Type (0, 0), BuildingBlock: CIFDUS_clean_linker_0, # of connection points: 2
#     Edge 100, Type (0, 0), BuildingBlock: CIFDUS_clean_linker_0, # of connection points: 2
#     Edge 101, Type (0, 0), BuildingBlock: CIFDUS_clean_linker_0, # of connection points: 2
#     Edge 102, Type (0, 0), BuildingBlock: CIFDUS_clean_linker_0, # of connection points: 2
#     Edge 103, Type (0, 0), BuildingBlock: CIFDUS_clean_linker_0, # of connection points: 2
#     Edge 104, Type (0, 0), BuildingBlock: CIFDUS_clean_linker_0, # of connection points: 2
#     Edge 105, Type (0, 0), BuildingBlock: CIFDUS_clean_linker_0, # of connection points: 2
#     Edge 106, Type (0, 0), BuildingBlock: CIFDUS_clean_linker_0, # of connection points: 2
#     Edge 107, Type (0, 0), BuildingBlock: CIFDUS_clean_linker_0, # of connection points: 2
#     Edge 108, Type (0, 0), BuildingBlock: CIFDUS_clean_linker_0, # of connection points: 2
#     Edge 109, Type (0, 0), BuildingBlock: CIFDUS_clean_linker_0, # of connection points: 2
#     Edge 110, Type (0, 0), BuildingBlock: CIFDUS_clean_linker_0, # of connection points: 2
#     Edge 111, Type (0, 0), BuildingBlock: CIFDUS_clean_linker_0, # of connection points: 2
#     Edge 112, Type (0, 0), BuildingBlock: CIFDUS_clean_linker_0, # of connection points: 2
#     Edge 113, Type (0, 0), BuildingBlock: CIFDUS_clean_linker_0, # of connection points: 2
#     Edge 114, Type (0, 0), BuildingBlock: CIFDUS_clean_linker_0, # of connection points: 2
#     Edge 115, Type (0, 0), BuildingBlock: CIFDUS_clean_linker_0, # of connection points: 2
#     Edge 116, Type (0, 0), BuildingBlock: CIFDUS_clean_linker_0, # of connection points: 2
#     Edge 117, Type (0, 0), BuildingBlock: CIFDUS_clean_linker_0, # of connection points: 2
#     Edge 118, Type (0, 0), BuildingBlock: CIFDUS_clean_linker_0, # of connection points: 2
#     Edge 119, Type (0, 0), BuildingBlock: CIFDUS_clean_linker_0, # of connection points: 2
#     Edge 120, Type (0, 0), BuildingBlock: CIFDUS_clean_linker_0, # of connection points: 2
#     Edge 121, Type (0, 0), BuildingBlock: CIFDUS_clean_linker_0, # of connection points: 2
#     Edge 122, Type (0, 0), BuildingBlock: CIFDUS_clean_linker_0, # of connection points: 2
#     Edge 123, Type (0, 0), BuildingBlock: CIFDUS_clean_linker_0, # of connection points: 2
#     Edge 124, Type (0, 0), BuildingBlock: CIFDUS_clean_linker_0, # of connection points: 2
#     Edge 125, Type (0, 0), BuildingBlock: CIFDUS_clean_linker_0, # of connection points: 2
#     Edge 126, Type (0, 0), BuildingBlock: CIFDUS_clean_linker_0, # of connection points: 2
#     Edge 127, Type (0, 0), BuildingBlock: CIFDUS_clean_linker_0, # of connection points: 2
#     Edge 128, Type (0, 0), BuildingBlock: CIFDUS_clean_linker_0, # of connection points: 2
#     Edge 129, Type (0, 0), BuildingBlock: CIFDUS_clean_linker_0, # of connection points: 2
#     Edge 130, Type (0, 0), BuildingBlock: CIFDUS_clean_linker_0, # of connection points: 2
#     Edge 131, Type (0, 0), BuildingBlock: CIFDUS_clean_linker_0, # of connection points: 2
#     Edge 132, Type (0, 0), BuildingBlock: CIFDUS_clean_linker_0, # of connection points: 2
#     Edge 133, Type (0, 0), BuildingBlock: CIFDUS_clean_linker_0, # of connection points: 2
#     Edge 134, Type (0, 0), BuildingBlock: CIFDUS_clean_linker_0, # of connection points: 2
#     Edge 135, Type (0, 0), BuildingBlock: CIFDUS_clean_linker_0, # of connection points: 2
#     Edge 136, Type (0, 0), BuildingBlock: CIFDUS_clean_linker_0, # of connection points: 2
#     Edge 137, Type (0, 0), BuildingBlock: CIFDUS_clean_linker_0, # of connection points: 2
#     Edge 138, Type (0, 0), BuildingBlock: CIFDUS_clean_linker_0, # of connection points: 2
#     Edge 139, Type (0, 0), BuildingBlock: CIFDUS_clean_linker_0, # of connection points: 2
#     Edge 140, Type (0, 0), BuildingBlock: CIFDUS_clean_linker_0, # of connection points: 2
#     Edge 141, Type (0, 0), BuildingBlock: CIFDUS_clean_linker_0, # of connection points: 2
#     Edge 142, Type (0, 0), BuildingBlock: CIFDUS_clean_linker_0, # of connection points: 2
#     Edge 143, Type (0, 0), BuildingBlock: CIFDUS_clean_linker_0, # of connection points: 2
# Relax obj value: 0.365
# Max RMSD: 0.167
# Mean RMSD: 0.167
data_MOF--net-ukr--node1-TATPOV_clean_sbu_0--edge1-CIFDUS_clean_linker_0
_symmetry_space_group_name_H-M    P1
_symmetry_Int_Tables_number       1
_symmetry_cell_setting            triclinic
loop_
_symmetry_equiv_pos_as_xyz
'x, y, z'
_cell_length_a     61.722465
_cell_length_b     61.934257
_cell_length_c     62.008846
_cell_angle_alpha  90.397112
_cell_angle_beta   90.370105
_cell_angle_gamma 90.220853
loop_
_atom_site_label
_atom_site_type_symbol
_atom_site_fract_x
_atom_site_fract_y
_atom_site_fract_z
_atom_type_partial_charge
Zn0 Zn 0.12792 0.2797 0.15754 0.0
Zn1 Zn 0.08988 0.26699 0.16063 0.0
O2 O 0.10191 0.2439 0.18084 0.0
O3 O 0.13533 0.25636 0.17974 0.0
O4 O 0.05726 0.26271 0.15944 0.0
O5 O 0.12507 0.31004 0.1667 0.0
O6 O 0.09336 0.29736 0.17617 0.0
C7 C 0.12165 0.24283 0.18686 0.0
C8 C 0.11737 0.26276 0.11831 0.0
O9 O 0.10037 0.2588 0.1293 0.0
O10 O 0.13244 0.27385 0.12668 0.0
C11 C 0.04861 0.24479 0.15403 0.0
O12 O 0.06119 0.2284 0.14924 0.0
C13 C 0.10749 0.31253 0.17661 0.0
Zn14 Zn 0.17004 0.64511 0.66124 0.0
Zn15 Zn 0.18689 0.60809 0.66643 0.0
O16 O 0.20893 0.62421 0.68545 0.0
O17 O 0.19399 0.65619 0.68164 0.0
O18 O 0.19585 0.5767 0.66673 0.0
O19 O 0.1409 0.6383 0.67257 0.0
O20 O 0.15638 0.60773 0.68133 0.0
C21 C 0.20879 0.64439 0.68957 0.0
C22 C 0.18675 0.63283 0.62235 0.0
O23 O 0.19259 0.61739 0.63462 0.0
O24 O 0.17428 0.64723 0.6296 0.0
C25 C 0.21435 0.57093 0.65993 0.0
O26 O 0.2279 0.58577 0.65309 0.0
C27 C 0.14005 0.62034 0.68205 0.0
Zn28 Zn 0.85996 0.71406 0.22108 0.0
Zn29 Zn 0.88786 0.71083 0.19261 0.0
O30 O 0.89255 0.73992 0.20984 0.0
O31 O 0.871 0.739 0.2377 0.0
O32 O 0.91699 0.70771 0.17781 0.0
O33 O 0.86244 0.6856 0.23447 0.0
O34 O 0.88309 0.67991 0.20633 0.0
C35 C 0.88543 0.74862 0.2271 0.0
C36 C 0.84396 0.71943 0.17606 0.0
O37 O 0.86361 0.71641 0.17049 0.0
O38 O 0.83895 0.71891 0.19589 0.0
C39 C 0.92751 0.72402 0.17106 0.0
O40 O 0.918 0.74296 0.171 0.0
C41 C 0.87343 0.67286 0.22306 0.0
Zn42 Zn 0.7499 0.34215 0.7182 0.0
Zn43 Zn 0.75069 0.3686 0.68783 0.0
O44 O 0.72455 0.37594 0.70816 0.0
O45 O 0.72748 0.3554 0.73663 0.0
O46 O 0.75397 0.39698 0.6718 0.0
O47 O 0.78043 0.34389 0.72787 0.0
O48 O 0.78287 0.36212 0.69775 0.0
C49 C 0.71763 0.37007 0.72657 0.0
C50 C 0.73767 0.32482 0.67455 0.0
O51 O 0.74061 0.34401 0.6677 0.0
O52 O 0.74084 0.32068 0.69438 0.0
C53 C 0.73767 0.40818 0.66611 0.0
O54 O 0.71819 0.39976 0.66784 0.0
C55 C 0.79194 0.35308 0.71391 0.0
Zn56 Zn 0.12295 0.68191 0.81341 0.0
Zn57 Zn 0.08723 0.6985 0.80305 0.0
O58 O 0.10462 0.71935 0.78456 0.0
O59 O 0.1359 0.7044 0.79278 0.0
O60 O 0.05551 0.70605 0.79916 0.0
O61 O 0.1182 0.65189 0.80301 0.0
O62 O 0.08962 0.66755 0.78913 0.0
C63 C 0.12516 0.71864 0.78268 0.0
C64 C 0.10819 0.70224 0.84936 0.0
O65 O 0.09412 0.70714 0.83503 0.0
O66 O 0.12257 0.68851 0.84483 0.0
C67 C 0.04134 0.69195 0.80402 0.0
O68 O 0.04781 0.67323 0.81148 0.0
C69 C 0.10195 0.65107 0.79057 0.0
Zn70 Zn 0.76308 0.61787 0.2978 0.0
Zn71 Zn 0.76906 0.5824 0.31421 0.0
O72 O 0.74118 0.57868 0.29534 0.0
O73 O 0.73179 0.61248 0.29085 0.0
O74 O 0.77204 0.55232 0.32508 0.0
O75 O 0.78605 0.61279 0.27536 0.0
O76 O 0.79779 0.58815 0.29778 0.0
C77 C 0.72737 0.59261 0.28924 0.0
C78 C 0.76937 0.62159 0.34282 0.0
O79 O 0.766 0.60132 0.34173 0.0
O80 O 0.77109 0.6325 0.32574 0.0
C81 C 0.75727 0.54475 0.33708 0.0
O82 O 0.74186 0.55768 0.34383 0.0
C83 C 0.80074 0.59989 0.28124 0.0
Zn84 Zn 0.86968 0.2419 0.76981 0.0
Zn85 Zn 0.90518 0.25004 0.78384 0.0
O86 O 0.90889 0.22252 0.76433 0.0
O87 O 0.8753 0.211 0.76289 0.0
O88 O 0.93647 0.25631 0.79124 0.0
O89 O 0.87015 0.26455 0.74673 0.0
O90 O 0.89428 0.2783 0.769 0.0
C91 C 0.89517 0.20779 0.75955 0.0
C92 C 0.8684 0.24755 0.81485 0.0
O93 O 0.8888 0.24503 0.81284 0.0
O94 O 0.85652 0.24917 0.79827 0.0
C95 C 0.94756 0.24302 0.80224 0.0
O96 O 0.93783 0.22617 0.8106 0.0
C97 C 0.88116 0.28061 0.75318 0.0
Zn98 Zn 0.19414 0.3276 0.30043 0.0
Zn99 Zn 0.20409 0.36707 0.29298 0.0
O100 O 0.22878 0.35344 0.27541 0.0
O101 O 0.21991 0.31955 0.28142 0.0
O102 O 0.20687 0.39943 0.28954 0.0
O103 O 0.16425 0.3283 0.28863 0.0
O104 O 0.17326 0.36128 0.27939 0.0
C105 C 0.23247 0.33333 0.27292 0.0
C106 C 0.20795 0.34664 0.33866 0.0
O107 O 0.21115 0.36203 0.32546 0.0
O108 O 0.19854 0.32963 0.33219 0.0
C109 C 0.21998 0.41143 0.30012 0.0
O110 O 0.23358 0.40258 0.3138 0.0
C111 C 0.15956 0.34575 0.27932 0.0
Zn112 Zn 0.22981 0.13195 0.26386 0.0
Zn113 Zn 0.19551 0.11006 0.2642 0.0
O114 O 0.21462 0.10137 0.23782 0.0
O115 O 0.24631 0.11712 0.24084 0.0
O116 O 0.17478 0.08463 0.26478 0.0
O117 O 0.23876 0.12772 0.29417 0.0
O118 O 0.20609 0.11385 0.29646 0.0
C119 C 0.23363 0.1047 0.23057 0.0
C120 C 0.18897 0.15529 0.25242 0.0
O121 O 0.17933 0.13727 0.25516 0.0
O122 O 0.20931 0.1567 0.25551 0.0
C123 C 0.16578 0.07854 0.24724 0.0
O124 O 0.168 0.09064 0.23006 0.0
C125 C 0.22363 0.12031 0.30555 0.0
Zn126 Zn 0.33849 0.73479 0.75145 0.0
Zn127 Zn 0.36296 0.70223 0.7535 0.0
O128 O 0.37243 0.72096 0.72707 0.0
O129 O 0.35354 0.75082 0.72838 0.0
O130 O 0.38892 0.68244 0.75606 0.0
O131 O 0.34195 0.74483 0.7816 0.0
O132 O 0.35875 0.71386 0.78528 0.0
C133 C 0.36783 0.73945 0.71935 0.0
C134 C 0.31748 0.69273 0.74114 0.0
O135 O 0.33618 0.68458 0.74438 0.0
O136 O 0.31475 0.71294 0.74342 0.0
C137 C 0.39605 0.67266 0.73947 0.0
O138 O 0.38481 0.67357 0.72143 0.0
C139 C 0.35087 0.73104 0.79357 0.0
Zn140 Zn 0.77588 0.83869 0.23903 0.0
Zn141 Zn 0.78715 0.87724 0.24763 0.0
O142 O 0.7738 0.87931 0.2167 0.0
O143 O 0.77141 0.845 0.20763 0.0
O144 O 0.79383 0.90811 0.25427 0.0
O145 O 0.75106 0.83953 0.26009 0.0
O146 O 0.76668 0.86895 0.27274 0.0
C147 C 0.77011 0.86468 0.20258 0.0
C148 C 0.82056 0.84214 0.25102 0.0
O149 O 0.817 0.86228 0.24927 0.0
O150 O 0.80522 0.82867 0.24898 0.0
C151 C 0.80737 0.91841 0.24292 0.0
O152 O 0.81751 0.90825 0.22731 0.0
C153 C 0.75246 0.85409 0.27445 0.0
Zn154 Zn 0.60745 0.28298 0.72968 0.0
Zn155 Zn 0.57174 0.29671 0.73375 0.0
O156 O 0.57005 0.27899 0.70477 0.0
O157 O 0.60488 0.27739 0.69813 0.0
O158 O 0.5403 0.3039 0.73897 0.0
O159 O 0.6058 0.25888 0.75105 0.0
O160 O 0.58175 0.28195 0.76269 0.0
C161 C 0.58554 0.27491 0.69186 0.0
C162 C 0.60789 0.3282 0.73539 0.0
O163 O 0.58811 0.32579 0.72979 0.0
O164 O 0.6193 0.31177 0.73938 0.0
C165 C 0.52997 0.31749 0.72762 0.0
O166 O 0.54029 0.32814 0.71255 0.0
C167 C 0.59442 0.26609 0.76632 0.0
Zn168 Zn 0.22447 0.84062 0.72176 0.0
Zn169 Zn 0.19232 0.86572 0.71745 0.0
O170 O 0.20962 0.87289 0.74565 0.0
O171 O 0.23989 0.85468 0.74656 0.0
O172 O 0.17485 0.8932 0.71451 0.0
O173 O 0.23605 0.84339 0.69203 0.0
O174 O 0.20524 0.86016 0.68662 0.0
C175 C 0.22733 0.8682 0.7552 0.0
C176 C 0.18016 0.82164 0.72896 0.0
O177 O 0.1727 0.84036 0.72484 0.0
O178 O 0.20048 0.81834 0.72829 0.0
C179 C 0.16568 0.90087 0.7312 0.0
O180 O 0.165 0.88901 0.74867 0.0
C181 C 0.22262 0.85185 0.67923 0.0
Zn182 Zn 0.64924 0.66796 0.20322 0.0
Zn183 Zn 0.61067 0.67265 0.21642 0.0
O184 O 0.62422 0.69394 0.23815 0.0
O185 O 0.65755 0.69055 0.22616 0.0
O186 O 0.57839 0.67256 0.22165 0.0
O187 O 0.6448 0.67625 0.17278 0.0
O188 O 0.61235 0.6842 0.18461 0.0
C189 C 0.64426 0.69886 0.23936 0.0
C190 C 0.63688 0.63004 0.22248 0.0
O191 O 0.62043 0.64195 0.22602 0.0
O192 O 0.65185 0.63691 0.2105 0.0
C193 C 0.56971 0.67024 0.24003 0.0
O194 O 0.58218 0.66816 0.25713 0.0
C195 C 0.62627 0.68413 0.16944 0.0
Zn196 Zn 0.81199 0.1387 0.67408 0.0
Zn197 Zn 0.80319 0.10182 0.68887 0.0
O198 O 0.78496 0.11789 0.7114 0.0
O199 O 0.79172 0.14993 0.69771 0.0
O200 O 0.8002 0.06964 0.69441 0.0
O201 O 0.80102 0.13508 0.64425 0.0
O202 O 0.78889 0.1049 0.65806 0.0
C203 C 0.78249 0.13832 0.71177 0.0
C204 C 0.84936 0.12343 0.69173 0.0
O205 O 0.8356 0.10873 0.69634 0.0
O206 O 0.8437 0.13866 0.67952 0.0
C207 C 0.81184 0.05926 0.70779 0.0
O208 O 0.82601 0.06984 0.71976 0.0
C209 C 0.78966 0.11818 0.64237 0.0
Zn210 Zn 0.3597 0.22552 0.22045 0.0
Zn211 Zn 0.37882 0.26001 0.22096 0.0
O212 O 0.38471 0.24246 0.24926 0.0
O213 O 0.37262 0.20949 0.24496 0.0
O214 O 0.40644 0.27787 0.21876 0.0
O215 O 0.36399 0.21481 0.19051 0.0
O216 O 0.37351 0.24884 0.18912 0.0
C217 C 0.38213 0.22343 0.2566 0.0
C218 C 0.33401 0.26672 0.2293 0.0
O219 O 0.35171 0.27735 0.22784 0.0
O220 O 0.33414 0.24629 0.2267 0.0
C221 C 0.41585 0.28602 0.23526 0.0
O222 O 0.40585 0.2857 0.25389 0.0
C223 C 0.36848 0.23122 0.17943 0.0
Zn224 Zn 0.24102 0.19441 0.11197 0.0
Zn225 Zn 0.24712 0.17113 0.07807 0.0
O226 O 0.22069 0.19083 0.07018 0.0
O227 O 0.21488 0.20881 0.10034 0.0
O228 O 0.2521 0.15583 0.04992 0.0
O229 O 0.26986 0.20904 0.11035 0.0
O230 O 0.2774 0.18476 0.08552 0.0
C231 C 0.20968 0.20439 0.08109 0.0
C232 C 0.23717 0.14847 0.11953 0.0
O233 O 0.23965 0.14679 0.09924 0.0
O234 O 0.23784 0.16677 0.12875 0.0
C235 C 0.23689 0.14459 0.04161 0.0
O236 O 0.21865 0.14246 0.05221 0.0
C237 C 0.28346 0.20011 0.09806 0.0
Zn238 Zn 0.22948 0.77493 0.8631 0.0
Zn239 Zn 0.24144 0.78849 0.89895 0.0
O240 O 0.21141 0.77304 0.90356 0.0
O241 O 0.19863 0.77026 0.87055 0.0
O242 O 0.24823 0.79796 0.92939 0.0
O243 O 0.25092 0.75049 0.86379 0.0
O244 O 0.26699 0.76853 0.89003 0.0
C245 C 0.19586 0.76858 0.89061 0.0
C246 C 0.24156 0.81873 0.86064 0.0
O247 O 0.24216 0.817 0.88111 0.0
O248 O 0.23773 0.8024 0.8489 0.0
C249 C 0.23651 0.81253 0.93788 0.0
O250 O 0.22141 0.82169 0.92609 0.0
C251 C 0.26711 0.75323 0.87614 0.0
Zn252 Zn 0.73169 0.75619 0.37223 0.0
Zn253 Zn 0.69944 0.75809 0.39381 0.0
O254 O 0.71733 0.72995 0.4006 0.0
O255 O 0.74857 0.73221 0.38438 0.0
O256 O 0.68338 0.76301 0.422 0.0
O257 O 0.74419 0.78549 0.37524 0.0
O258 O 0.71017 0.78911 0.38408 0.0
C259 C 0.7359 0.72197 0.39648 0.0
C260 C 0.68818 0.74683 0.35064 0.0
O261 O 0.67966 0.74891 0.36923 0.0
O262 O 0.70853 0.7496 0.34846 0.0
C263 C 0.67656 0.74703 0.43291 0.0
O264 O 0.67748 0.7276 0.42432 0.0
C265 C 0.72811 0.79756 0.37827 0.0
Zn266 Zn 0.72465 0.23784 0.83486 0.0
Zn267 Zn 0.72388 0.20779 0.86106 0.0
O268 O 0.75152 0.22725 0.86636 0.0
O269 O 0.74844 0.25617 0.84651 0.0
O270 O 0.72012 0.19316 0.89023 0.0
O271 O 0.69448 0.24859 0.83642 0.0
O272 O 0.69196 0.21771 0.8533 0.0
C273 C 0.75897 0.24543 0.86022 0.0
C274 C 0.73484 0.19314 0.81802 0.0
O275 O 0.73251 0.18652 0.83733 0.0
O276 O 0.7321 0.21302 0.81378 0.0
C277 C 0.73595 0.18981 0.90306 0.0
O278 O 0.75576 0.19342 0.89631 0.0
C279 C 0.68287 0.23399 0.84452 0.0
Zn280 Zn 0.28771 0.23282 0.36837 0.0
Zn281 Zn 0.30297 0.2289 0.40353 0.0
O282 O 0.28217 0.25543 0.40545 0.0
O283 O 0.28133 0.26433 0.37136 0.0
O284 O 0.31283 0.22716 0.43439 0.0
O285 O 0.2644 0.21058 0.37333 0.0
O286 O 0.28798 0.19922 0.39717 0.0
C287 C 0.27743 0.26894 0.39079 0.0
C288 C 0.33243 0.2278 0.36544 0.0
O289 O 0.33092 0.23324 0.38524 0.0
O290 O 0.31548 0.22371 0.3546 0.0
C291 C 0.32007 0.24427 0.44337 0.0
O292 O 0.32311 0.26151 0.43152 0.0
C293 C 0.27112 0.1958 0.38561 0.0
Zn294 Zn 0.70046 0.79184 0.10943 0.0
Zn295 Zn 0.71842 0.78122 0.07697 0.0
O296 O 0.74126 0.7636 0.09217 0.0
O297 O 0.72517 0.7729 0.12247 0.0
O298 O 0.72217 0.77923 0.0444 0.0
O299 O 0.67088 0.77987 0.10742 0.0
O300 O 0.68938 0.76361 0.08216 0.0
C301 C 0.74027 0.76291 0.11267 0.0
C302 C 0.72041 0.82739 0.0998 0.0
O303 O 0.72746 0.81275 0.08702 0.0
O304 O 0.70353 0.82359 0.11048 0.0
C305 C 0.73323 0.79183 0.0326 0.0
O306 O 0.74456 0.80745 0.04171 0.0
C307 C 0.67229 0.76487 0.09369 0.0
Zn308 Zn 0.65754 0.17926 0.62233 0.0
Zn309 Zn 0.66338 0.19529 0.58643 0.0
O310 O 0.68189 0.21864 0.6013 0.0
O311 O 0.67737 0.20388 0.63317 0.0
O312 O 0.66356 0.20077 0.5541 0.0
O313 O 0.66942 0.15005 0.61857 0.0
O314 O 0.68008 0.16555 0.5888 0.0
C315 C 0.68549 0.21866 0.62157 0.0
C316 C 0.61874 0.19526 0.61105 0.0
O317 O 0.63126 0.2016 0.59598 0.0
O318 O 0.62585 0.18219 0.62487 0.0
C319 C 0.65851 0.21867 0.54552 0.0
O320 O 0.65314 0.23497 0.55803 0.0
C321 C 0.68061 0.14948 0.60165 0.0
Zn322 Zn 0.28424 0.74112 0.60798 0.0
Zn323 Zn 0.29737 0.74486 0.57285 0.0
O324 O 0.2776 0.71726 0.57145 0.0
O325 O 0.27932 0.7093 0.60577 0.0
O326 O 0.30508 0.7487 0.54157 0.0
O327 O 0.25955 0.76197 0.60496 0.0
O328 O 0.28309 0.7743 0.58187 0.0
C329 C 0.27466 0.70384 0.58665 0.0
C330 C 0.32897 0.74641 0.60899 0.0
O331 O 0.32628 0.73982 0.58963 0.0
O332 O 0.31264 0.75175 0.61999 0.0
C333 C 0.3127 0.73287 0.53092 0.0
O334 O 0.31698 0.7148 0.54106 0.0
C335 C 0.26661 0.77744 0.59382 0.0
Zn336 Zn 0.8535 0.71546 0.72371 0.0
Zn337 Zn 0.88083 0.71646 0.75433 0.0
O338 O 0.88762 0.74177 0.73301 0.0
O339 O 0.86681 0.7375 0.70456 0.0
O340 O 0.90884 0.71418 0.77151 0.0
O341 O 0.85511 0.6842 0.71614 0.0
O342 O 0.87421 0.68409 0.74608 0.0
C343 C 0.88146 0.748 0.71439 0.0
C344 C 0.83697 0.72896 0.76712 0.0
O345 O 0.85637 0.72654 0.77389 0.0
O346 O 0.8324 0.72527 0.7474 0.0
C347 C 0.92121 0.73037 0.77484 0.0
O348 O 0.91466 0.74962 0.76896 0.0
C349 C 0.86454 0.67379 0.73088 0.0
Zn350 Zn 0.73339 0.34412 0.27123 0.0
Zn351 Zn 0.74353 0.38119 0.28721 0.0
O352 O 0.71168 0.38619 0.27653 0.0
O353 O 0.70276 0.35301 0.26688 0.0
O354 O 0.75303 0.41027 0.29763 0.0
O355 O 0.75461 0.3463 0.24697 0.0
O356 O 0.76747 0.37448 0.26463 0.0
C357 C 0.69763 0.37253 0.2698 0.0
C358 C 0.74563 0.34204 0.31585 0.0
O359 O 0.7458 0.36251 0.31448 0.0
O360 O 0.74196 0.3304 0.29936 0.0
C361 C 0.74482 0.41979 0.3138 0.0
O362 O 0.72897 0.41047 0.32433 0.0
C363 C 0.7689 0.36082 0.24923 0.0
Zn364 Zn 0.15794 0.25616 0.80335 0.0
Zn365 Zn 0.11912 0.24742 0.79543 0.0
O366 O 0.12863 0.22299 0.77588 0.0
O367 O 0.16247 0.22747 0.78658 0.0
O368 O 0.08627 0.24676 0.79678 0.0
O369 O 0.16067 0.28447 0.78908 0.0
O370 O 0.12683 0.27706 0.78076 0.0
C371 C 0.14824 0.21662 0.77618 0.0
C372 C 0.14414 0.24056 0.83951 0.0
O373 O 0.12954 0.2362 0.82545 0.0
O374 O 0.15759 0.25537 0.83555 0.0
C375 C 0.07478 0.25714 0.78329 0.0
O376 O 0.08445 0.26784 0.76785 0.0
C377 C 0.14329 0.28954 0.77963 0.0
Zn378 Zn 0.22087 0.60305 0.24084 0.0
Zn379 Zn 0.22017 0.57806 0.27124 0.0
O380 O 0.25072 0.57719 0.25667 0.0
O381 O 0.24924 0.59625 0.2271 0.0
O382 O 0.21767 0.54848 0.28452 0.0
O383 O 0.19301 0.59709 0.22536 0.0
O384 O 0.18936 0.58349 0.25758 0.0
C385 C 0.2599 0.58444 0.2398 0.0
C386 C 0.22064 0.62084 0.28696 0.0
O387 O 0.22242 0.60161 0.29385 0.0
O388 O 0.21949 0.62443 0.26678 0.0
C389 C 0.23303 0.53983 0.29509 0.0
O390 O 0.25052 0.55125 0.29946 0.0
C391 C 0.18077 0.59027 0.24009 0.0
Zn392 Zn 0.85247 0.25273 0.21509 0.0
Zn393 Zn 0.87913 0.25818 0.18579 0.0
O394 O 0.88619 0.22968 0.20263 0.0
O395 O 0.86556 0.22866 0.23115 0.0
O396 O 0.90777 0.26364 0.17069 0.0
O397 O 0.85324 0.28143 0.22872 0.0
O398 O 0.8718 0.28864 0.19956 0.0
C399 C 0.8803 0.2203 0.2199 0.0
C400 C 0.83579 0.24607 0.17015 0.0
O401 O 0.85503 0.25049 0.16408 0.0
O402 O 0.83131 0.2463 0.19014 0.0
C403 C 0.91958 0.24806 0.16431 0.0
O404 O 0.91171 0.22833 0.16486 0.0
C405 C 0.86232 0.29501 0.21671 0.0
Zn406 Zn 0.23985 0.35818 0.67914 0.0
Zn407 Zn 0.22681 0.39724 0.67425 0.0
O408 O 0.25777 0.4008 0.68805 0.0
O409 O 0.26805 0.36703 0.69188 0.0
O410 O 0.21718 0.42826 0.67068 0.0
O411 O 0.21437 0.35098 0.69764 0.0
O412 O 0.20448 0.38509 0.6961 0.0
C413 C 0.27189 0.38699 0.69387 0.0
C414 C 0.23051 0.3652 0.6357 0.0
O415 O 0.22428 0.38352 0.64295 0.0
O416 O 0.23869 0.35146 0.64824 0.0
C417 C 0.2301 0.44274 0.66392 0.0
O418 O 0.2498 0.43718 0.65829 0.0
C419 C 0.2016 0.36595 0.70303 0.0
Zn420 Zn 0.10838 0.72065 0.23976 0.0
Zn421 Zn 0.09017 0.72439 0.20449 0.0
O422 O 0.08373 0.75111 0.22443 0.0
O423 O 0.09462 0.74401 0.25724 0.0
O424 O 0.06392 0.72368 0.18459 0.0
O425 O 0.10384 0.68947 0.24651 0.0
O426 O 0.09422 0.69175 0.21257 0.0
C427 C 0.08577 0.75685 0.24415 0.0
C428 C 0.13542 0.7333 0.20091 0.0
O429 O 0.11814 0.73255 0.18951 0.0
O430 O 0.13463 0.729 0.22095 0.0
C431 C 0.05471 0.74084 0.17817 0.0
O432 O 0.06424 0.75951 0.18191 0.0
C433 C 0.09905 0.68021 0.2289 0.0
Zn434 Zn 0.74208 0.59175 0.72715 0.0
Zn435 Zn 0.74128 0.57244 0.69229 0.0
O436 O 0.71244 0.56853 0.70935 0.0
O437 O 0.7156 0.58086 0.74235 0.0
O438 O 0.74304 0.54469 0.6746 0.0
O439 O 0.77219 0.58657 0.73812 0.0
O440 O 0.77287 0.57754 0.70396 0.0
C441 C 0.70417 0.57184 0.72789 0.0
C442 C 0.73602 0.61709 0.68513 0.0
O443 O 0.73587 0.59933 0.67458 0.0
O444 O 0.7384 0.61697 0.70557 0.0
C445 C 0.72599 0.53583 0.66693 0.0
O446 O 0.70762 0.54644 0.66792 0.0
C447 C 0.783 0.58249 0.72136 0.0
Zn448 Zn 0.79532 0.84844 0.71881 0.0
Zn449 Zn 0.80381 0.88864 0.71498 0.0
O450 O 0.79108 0.8869 0.74606 0.0
O451 O 0.78748 0.85175 0.74988 0.0
O452 O 0.80875 0.92084 0.71181 0.0
O453 O 0.77337 0.84771 0.69542 0.0
O454 O 0.78154 0.8819 0.68993 0.0
C455 C 0.78641 0.87063 0.75766 0.0
C456 C 0.8395 0.85424 0.71014 0.0
O457 O 0.83469 0.87423 0.7121 0.0
O458 O 0.82497 0.83994 0.71146 0.0
C459 C 0.8201 0.93149 0.72541 0.0
O460 O 0.82977 0.92111 0.74115 0.0
C461 C 0.77107 0.8648 0.68468 0.0
Zn462 Zn 0.62892 0.28865 0.19555 0.0
Zn463 Zn 0.58904 0.28652 0.20518 0.0
O464 O 0.60132 0.26883 0.23083 0.0
O465 O 0.63561 0.26976 0.22134 0.0
O466 O 0.55616 0.28536 0.20759 0.0
O467 O 0.62747 0.27645 0.16624 0.0
O468 O 0.59344 0.27099 0.1749 0.0
C469 C 0.62105 0.2637 0.23433 0.0
C470 C 0.6143 0.32997 0.20574 0.0
O471 O 0.59705 0.31932 0.20983 0.0
O472 O 0.63063 0.32034 0.19828 0.0
C473 C 0.54439 0.29512 0.22132 0.0
O474 O 0.55369 0.30707 0.23635 0.0
C475 C 0.60901 0.26896 0.16152 0.0
Zn476 Zn 0.23822 0.08006 0.71453 0.0
Zn477 Zn 0.20166 0.06447 0.71622 0.0
O478 O 0.22215 0.05306 0.74059 0.0
O479 O 0.25589 0.06047 0.73314 0.0
O480 O 0.18082 0.03949 0.71175 0.0
O481 O 0.24331 0.08237 0.68285 0.0
O482 O 0.20885 0.07435 0.68497 0.0
C483 C 0.24222 0.05176 0.74545 0.0
C484 C 0.20134 0.10671 0.73387 0.0
O485 O 0.18833 0.09122 0.72941 0.0
O486 O 0.22141 0.10497 0.72951 0.0
C487 C 0.17427 0.02799 0.72735 0.0
O488 O 0.17822 0.03458 0.74718 0.0
C489 C 0.22496 0.08071 0.67384 0.0
Zn490 Zn 0.35954 0.68656 0.20972 0.0
Zn491 Zn 0.39627 0.67797 0.21392 0.0
O492 O 0.39012 0.69294 0.24336 0.0
O493 O 0.36245 0.71115 0.23083 0.0
O494 O 0.42859 0.67223 0.21382 0.0
O495 O 0.35978 0.69257 0.1781 0.0
O496 O 0.39273 0.70025 0.18869 0.0
C497 C 0.37637 0.70808 0.24553 0.0
C498 C 0.36137 0.64329 0.2162 0.0
O499 O 0.38087 0.64754 0.21082 0.0
O500 O 0.34835 0.6585 0.21982 0.0
C501 C 0.4403 0.67073 0.2307 0.0
O502 O 0.4311 0.67181 0.24972 0.0
C503 C 0.37738 0.70245 0.17499 0.0
Zn504 Zn 0.77798 0.12223 0.22663 0.0
Zn505 Zn 0.79065 0.08465 0.23575 0.0
O506 O 0.77696 0.08141 0.20501 0.0
O507 O 0.77395 0.11532 0.19528 0.0
O508 O 0.79944 0.05429 0.24169 0.0
O509 O 0.75306 0.12028 0.24747 0.0
O510 O 0.76966 0.09198 0.26081 0.0
C511 C 0.77292 0.09545 0.19062 0.0
C512 C 0.82234 0.12175 0.23922 0.0
O513 O 0.81968 0.10142 0.23772 0.0
O514 O 0.80648 0.13437 0.23671 0.0
C515 C 0.8135 0.04544 0.2297 0.0
O516 O 0.82244 0.05679 0.21427 0.0
C517 C 0.75478 0.10617 0.26204 0.0
Zn518 Zn 0.32622 0.30958 0.79404 0.0
Zn519 Zn 0.36118 0.30371 0.77309 0.0
O520 O 0.34275 0.289 0.75003 0.0
O521 O 0.31244 0.29354 0.76808 0.0
O522 O 0.39258 0.30153 0.76422 0.0
O523 O 0.33309 0.29276 0.82062 0.0
O524 O 0.36051 0.28403 0.80012 0.0
C525 C 0.32232 0.28653 0.75153 0.0
C526 C 0.33989 0.34921 0.7803 0.0
O527 O 0.35357 0.33638 0.77175 0.0
O528 O 0.32655 0.34189 0.79383 0.0
C529 C 0.40298 0.3151 0.75293 0.0
O530 O 0.39281 0.33193 0.74509 0.0
C531 C 0.34948 0.28109 0.81719 0.0
Zn532 Zn 0.17656 0.87391 0.24887 0.0
Zn533 Zn 0.16059 0.90768 0.25535 0.0
O534 O 0.18266 0.91197 0.22989 0.0
O535 O 0.1835 0.87868 0.21789 0.0
O536 O 0.15134 0.93839 0.26177 0.0
O537 O 0.19964 0.8775 0.27174 0.0
O538 O 0.17397 0.89792 0.28472 0.0
C539 C 0.18785 0.89839 0.21526 0.0
C540 C 0.13189 0.86889 0.25204 0.0
O541 O 0.13296 0.88905 0.24791 0.0
O542 O 0.14904 0.85864 0.25627 0.0
C543 C 0.14683 0.9517 0.24688 0.0
O544 O 0.14591 0.94471 0.22684 0.0
C545 C 0.19133 0.88722 0.28761 0.0
Zn546 Zn 0.60534 0.67467 0.74698 0.0
Zn547 Zn 0.56812 0.66539 0.75492 0.0
O548 O 0.56701 0.67801 0.72358 0.0
O549 O 0.59802 0.69547 0.72362 0.0
O550 O 0.5363 0.66028 0.76131 0.0
O551 O 0.61256 0.68531 0.77669 0.0
O552 O 0.5772 0.68751 0.77921 0.0
C553 C 0.57999 0.69132 0.71477 0.0
C554 C 0.60141 0.63012 0.74781 0.0
O555 O 0.58388 0.63541 0.7573 0.0
O556 O 0.61283 0.64447 0.73897 0.0
C557 C 0.52316 0.65277 0.74722 0.0
O558 O 0.53074 0.64644 0.72847 0.0
C559 C 0.59606 0.69176 0.78675 0.0
Zn560 Zn 0.69096 0.80105 0.82907 0.0
Zn561 Zn 0.70977 0.79205 0.86313 0.0
O562 O 0.73225 0.77541 0.84609 0.0
O563 O 0.71574 0.78323 0.81553 0.0
O564 O 0.71762 0.79021 0.89507 0.0
O565 O 0.66223 0.78766 0.833 0.0
O566 O 0.68033 0.77447 0.86042 0.0
C567 C 0.73126 0.77422 0.82558 0.0
C568 C 0.70841 0.8383 0.84132 0.0
O569 O 0.71583 0.82433 0.85451 0.0
O570 O 0.69309 0.83296 0.8288 0.0
C571 C 0.73252 0.80166 0.90374 0.0
O572 O 0.74389 0.81469 0.89155 0.0
C573 C 0.66332 0.77464 0.8485 0.0
Zn574 Zn 0.6948 0.1662 0.10537 0.0
Zn575 Zn 0.7113 0.17767 0.07185 0.0
O576 O 0.73307 0.19651 0.08807 0.0
O577 O 0.71835 0.18636 0.11866 0.0
O578 O 0.7169 0.17986 0.03958 0.0
O579 O 0.66474 0.17648 0.10327 0.0
O580 O 0.6807 0.19262 0.07634 0.0
C581 C 0.73261 0.19718 0.1086 0.0
C582 C 0.71566 0.13142 0.09326 0.0
O583 O 0.72137 0.14635 0.08031 0.0
O584 O 0.69974 0.13468 0.10548 0.0
C585 C 0.73557 0.17674 0.03157 0.0
O586 O 0.75186 0.17248 0.04458 0.0
C587 C 0.66423 0.19047 0.08861 0.0
Zn588 Zn 0.22409 0.22605 0.62503 0.0
Zn589 Zn 0.25722 0.22653 0.59932 0.0
O590 O 0.2378 0.25232 0.59025 0.0
O591 O 0.20815 0.24953 0.60935 0.0
O592 O 0.27819 0.2239 0.57487 0.0
O593 O 0.21673 0.19467 0.62047 0.0
O594 O 0.24666 0.19483 0.60161 0.0
C595 C 0.21913 0.25943 0.59534 0.0
C596 C 0.26659 0.23787 0.64498 0.0
O597 O 0.27434 0.23514 0.62617 0.0
O598 O 0.24649 0.23488 0.64822 0.0
C599 C 0.28808 0.23957 0.56617 0.0
O600 O 0.28586 0.25909 0.57428 0.0
C601 C 0.23091 0.18451 0.60989 0.0
Zn602 Zn 0.27642 0.81162 0.15041 0.0
Zn603 Zn 0.26524 0.80805 0.11028 0.0
O604 O 0.24083 0.78939 0.12202 0.0
O605 O 0.25053 0.79151 0.15621 0.0
O606 O 0.26211 0.80643 0.07793 0.0
O607 O 0.30635 0.79977 0.14752 0.0
O608 O 0.29526 0.79327 0.11442 0.0
C609 C 0.23759 0.78461 0.14168 0.0
C610 C 0.26161 0.85144 0.13582 0.0
O611 O 0.25836 0.83983 0.11899 0.0
O612 O 0.27149 0.84349 0.15181 0.0
C613 C 0.25153 0.81917 0.06587 0.0
O614 O 0.24078 0.83525 0.07457 0.0
C615 C 0.30963 0.79149 0.12917 0.0
Zn616 Zn 0.67283 0.76346 0.64299 0.0
Zn617 Zn 0.66905 0.75666 0.60294 0.0
O618 O 0.68575 0.72896 0.61151 0.0
O619 O 0.69105 0.7366 0.64584 0.0
O620 O 0.66633 0.75491 0.57023 0.0
O621 O 0.68616 0.7922 0.64218 0.0
O622 O 0.68745 0.78548 0.60735 0.0
C623 C 0.69358 0.72397 0.6299 0.0
C624 C 0.62919 0.75707 0.63315 0.0
O625 O 0.63698 0.75418 0.61429 0.0
O626 O 0.64159 0.76197 0.64869 0.0
C627 C 0.66061 0.73769 0.5604 0.0
O628 O 0.65584 0.72051 0.57176 0.0
C629 C 0.69193 0.79768 0.62354 0.0
Zn630 Zn 0.27156 0.14895 0.83361 0.0
Zn631 Zn 0.27203 0.13986 0.87451 0.0
O632 O 0.24105 0.15163 0.87105 0.0
O633 O 0.23952 0.1558 0.83584 0.0
O634 O 0.27414 0.13404 0.90626 0.0
O635 O 0.29421 0.17188 0.83672 0.0
O636 O 0.29507 0.16425 0.87133 0.0
C637 C 0.23045 0.15648 0.8541 0.0
C638 C 0.28096 0.105 0.83988 0.0
O639 O 0.27684 0.10975 0.8595 0.0
O640 O 0.28085 0.11948 0.82565 0.0
C641 C 0.25873 0.12577 0.91692 0.0
O642 O 0.24114 0.11933 0.90667 0.0
C643 C 0.30189 0.1752 0.8554 0.0
Zn644 Zn 0.25975 0.76832 0.3279 0.0
Zn645 Zn 0.27721 0.76528 0.36412 0.0
O646 O 0.25992 0.7361 0.36064 0.0
O647 O 0.24606 0.73951 0.32812 0.0
O648 O 0.28687 0.76531 0.39522 0.0
O649 O 0.24139 0.79363 0.33337 0.0
O650 O 0.26229 0.79589 0.36208 0.0
C651 C 0.24876 0.72842 0.34492 0.0
C652 C 0.30653 0.76782 0.32613 0.0
O653 O 0.30501 0.76351 0.34612 0.0
O654 O 0.28965 0.77195 0.31519 0.0
C655 C 0.29647 0.74978 0.4045 0.0
O656 O 0.30118 0.73235 0.39332 0.0
C657 C 0.2478 0.80398 0.34979 0.0
Zn658 Zn 0.728 0.20679 0.35965 0.0
Zn659 Zn 0.69405 0.20435 0.37704 0.0
O660 O 0.70987 0.23419 0.38227 0.0
O661 O 0.74352 0.23208 0.37189 0.0
O662 O 0.67815 0.19927 0.40531 0.0
O663 O 0.74133 0.17805 0.36372 0.0
O664 O 0.70643 0.17375 0.36763 0.0
C665 C 0.72849 0.24296 0.38022 0.0
C666 C 0.68536 0.21367 0.33406 0.0
O667 O 0.6749 0.21146 0.3516 0.0
O668 O 0.70598 0.21191 0.33421 0.0
C669 C 0.67231 0.21501 0.41726 0.0
O670 O 0.67385 0.23473 0.40975 0.0
C671 C 0.72511 0.16567 0.36408 0.0
H672 H 0.94975 0.21784 0.15388 0.0
H673 H 0.94218 0.28624 0.1652 0.0
H674 H 0.98132 0.29136 0.16244 0.0
H675 H 0.01794 0.27611 0.15899 0.0
H676 H 0.02533 0.20766 0.14786 0.0
H677 H 0.98609 0.20294 0.14843 0.0
C678 C 0.95659 0.23393 0.15551 0.0
C679 C 0.94296 0.2516 0.15986 0.0
C680 C 0.97916 0.23674 0.15417 0.0
C681 C 0.95221 0.27232 0.16187 0.0
C682 C 0.97464 0.27526 0.1604 0.0
C683 C 0.01098 0.26016 0.15662 0.0
C684 C 0.02466 0.24225 0.15356 0.0
C685 C -0.01168 0.25754 0.15694 0.0
C686 C 0.01528 0.22174 0.15033 0.0
C687 C -0.00721 0.21901 0.15065 0.0
H688 H 0.18939 0.53611 0.6704 0.0
H689 H 0.25313 0.55363 0.64801 0.0
H690 H 0.26339 0.51565 0.64681 0.0
H691 H 0.25448 0.47747 0.65241 0.0
H692 H 0.19079 0.45982 0.67481 0.0
H693 H 0.18032 0.4978 0.67558 0.0
C694 C 0.20554 0.53165 0.66527 0.0
C695 C 0.22047 0.54778 0.65936 0.0
C696 C 0.21135 0.50971 0.66456 0.0
C697 C 0.24129 0.54162 0.65268 0.0
C698 C 0.24719 0.51987 0.65197 0.0
C699 C 0.23827 0.48188 0.65739 0.0
C700 C 0.22347 0.46575 0.66356 0.0
C701 C 0.23237 0.50378 0.65789 0.0
C702 C 0.20254 0.47185 0.66998 0.0
C703 C 0.19653 0.4936 0.67046 0.0
H704 H 0.02769 0.70582 0.17561 0.0
H705 H 0.02985 0.77452 0.16443 0.0
H706 H -0.00927 0.77486 0.15862 0.0
H707 H 0.9555 0.75655 0.16111 0.0
H708 H 0.95314 0.68808 0.17351 0.0
H709 H -0.00734 0.68677 0.17413 0.0
C710 C 0.01969 0.72082 0.17151 0.0
C711 C 0.03175 0.74017 0.17075 0.0
C712 C -0.00295 0.72099 0.1686 0.0
C713 C 0.02103 0.7594 0.16532 0.0
C714 C -0.0014 0.75964 0.16206 0.0
C715 C 0.96359 0.74125 0.16359 0.0
C716 C 0.95127 0.72251 0.16755 0.0
C717 C -0.01364 0.74066 0.16434 0.0
C718 C 0.96213 0.70281 0.17058 0.0
C719 C 0.98478 0.70205 0.17101 0.0
H720 H 0.70641 0.43674 0.65414 0.0
H721 H 0.77471 0.43264 0.66887 0.0
H722 H 0.77766 0.47194 0.66813 0.0
H723 H 0.76001 0.50756 0.66748 0.0
H724 H 0.69158 0.51144 0.6532 0.0
H725 H 0.68967 0.47229 0.64937 0.0
C726 C 0.72203 0.44439 0.65686 0.0
C727 C 0.74023 0.43166 0.66183 0.0
C728 C 0.72359 0.46707 0.65668 0.0
C729 C 0.76037 0.44195 0.6651 0.0
C730 C 0.76207 0.46449 0.66479 0.0
C731 C 0.74474 0.4999 0.66317 0.0
C732 C 0.72591 0.51252 0.66093 0.0
C733 C 0.74366 0.47724 0.66123 0.0
C734 C 0.70632 0.50222 0.65521 0.0
C735 C 0.70517 0.47977 0.65307 0.0
H736 H 0.94016 0.69296 0.78807 0.0
H737 H 0.95337 0.76068 0.77828 0.0
H738 H -0.00844 0.75494 0.7868 0.0
H739 H 0.02166 0.73035 0.7952 0.0
H740 H 0.00824 0.66275 0.80542 0.0
H741 H 0.96981 0.66883 0.79856 0.0
C742 C 0.95133 0.70652 0.78799 0.0
C743 C 0.94385 0.72719 0.78239 0.0
C744 C 0.97334 0.70311 0.79282 0.0
C745 C 0.95861 0.74457 0.78249 0.0
C746 C 0.98052 0.7413 0.78728 0.0
C747 C 0.01032 0.71696 0.79598 0.0
C748 C 0.0179 0.6961 0.80066 0.0
C749 C -0.01186 0.72058 0.79213 0.0
C750 C 0.00292 0.67898 0.80182 0.0
C751 C 0.98089 0.68243 0.79788 0.0
H752 H 0.78263 0.51377 0.31947 0.0
H753 H 0.72644 0.52265 0.35963 0.0
H754 H 0.71878 0.48395 0.35776 0.0
H755 H 0.72562 0.44844 0.34111 0.0
H756 H 0.78083 0.44047 0.29941 0.0
H757 H 0.79127 0.47797 0.30556 0.0
C758 C 0.7689 0.50724 0.32813 0.0
C759 C 0.75497 0.52113 0.33942 0.0
C760 C 0.76423 0.48515 0.32647 0.0
C761 C 0.73734 0.51234 0.35066 0.0
C762 C 0.73288 0.49022 0.34952 0.0
C763 C 0.74009 0.45485 0.33361 0.0
C764 C 0.75224 0.44178 0.31959 0.0
C765 C 0.74581 0.47659 0.33688 0.0
C766 C 0.77101 0.45027 0.31004 0.0
C767 C 0.77703 0.47171 0.31357 0.0
H768 H 0.04922 0.23448 0.81103 0.0
H769 H 0.04644 0.28102 0.75957 0.0
H770 H 0.00706 0.2819 0.76199 0.0
H771 H 0.9733 0.26863 0.77775 0.0
H772 H 0.97568 0.2211 0.82826 0.0
H773 H 0.01527 0.22164 0.82732 0.0
C774 C 0.04001 0.24485 0.80038 0.0
C775 C 0.05083 0.2576 0.78509 0.0
C776 C 0.01726 0.24517 0.80172 0.0
C777 C 0.03859 0.27094 0.77142 0.0
C778 C 0.01603 0.27151 0.77281 0.0
C779 C 0.98245 0.25856 0.78874 0.0
C780 C 0.97151 0.24487 0.80308 0.0
C781 C 0.00519 0.25861 0.7878 0.0
C782 C 0.98368 0.23179 0.81705 0.0
C783 C 0.00633 0.23204 0.81649 0.0
H784 H 0.2466 0.44166 0.31871 0.0
H785 H 0.19159 0.43478 0.27578 0.0
H786 H 0.18999 0.47384 0.27159 0.0
H787 H 0.20463 0.50991 0.27932 0.0
H788 H 0.26031 0.51701 0.32126 0.0
H789 H 0.26104 0.47797 0.32679 0.0
C790 C 0.23425 0.44869 0.30844 0.0
C791 C 0.21929 0.43522 0.29754 0.0
C792 C 0.23346 0.47124 0.30599 0.0
C793 C 0.20339 0.44468 0.28431 0.0
C794 C 0.20241 0.46706 0.28193 0.0
C795 C 0.21681 0.50297 0.28985 0.0
C796 C 0.23237 0.51641 0.29989 0.0
C797 C 0.21739 0.48049 0.29263 0.0
C798 C 0.24814 0.50707 0.31332 0.0
C799 C 0.2486 0.48472 0.31645 0.0
H800 H 0.13885 0.98444 0.21883 0.0
H801 H 0.15407 0.97199 0.28564 0.0
H802 H 0.15901 0.01059 0.29225 0.0
H803 H 0.16295 0.04743 0.27817 0.0
H804 H 0.14829 0.05967 0.21119 0.0
H805 H 0.13897 0.02174 0.2057 0.0
C806 C 0.14294 -0.00984 0.23492 0.0
C807 C 0.14636 0.97524 0.25162 0.0
C808 C 0.14603 0.0124 0.23859 0.0
C809 C 0.15147 0.98304 0.27241 0.0
C810 C 0.15437 0.00515 0.27622 0.0
C811 C 0.15738 0.0419 0.26245 0.0
C812 C 0.15662 0.05641 0.24507 0.0
C813 C 0.1523 0.01992 0.25929 0.0
C814 C 0.14921 0.0489 0.22485 0.0
C815 C 0.14393 0.02715 0.22165 0.0
H816 H 0.49083 0.6415 0.71916 0.0
H817 H 0.50198 0.66709 0.78323 0.0
H818 H 0.46321 0.67345 0.78735 0.0
H819 H 0.42662 0.67497 0.77148 0.0
H820 H 0.41577 0.65036 0.70698 0.0
H821 H 0.45382 0.64022 0.70448 0.0
C822 C 0.48479 0.64822 0.73415 0.0
C823 C 0.4994 0.65399 0.75076 0.0
C824 C 0.46248 0.65215 0.73631 0.0
C825 C 0.49118 0.66259 0.7701 0.0
C826 C 0.46898 0.66629 0.77246 0.0
C827 C 0.43248 0.66708 0.75699 0.0
C828 C 0.41832 0.66363 0.73938 0.0
C829 C 0.45453 0.66161 0.75548 0.0
C830 C 0.42627 0.65336 0.72075 0.0
C831 C 0.44808 0.64759 0.71927 0.0
H832 H 0.79778 0.01798 0.25971 0.0
H833 H 0.83882 0.02041 0.20364 0.0
H834 H 0.84223 0.98115 0.20402 0.0
H835 H 0.83075 0.94604 0.21824 0.0
H836 H 0.78892 0.94384 0.27376 0.0
H837 H 0.78882 0.98315 0.2757 0.0
C838 C 0.80766 0.00997 0.24768 0.0
C839 C 0.81778 0.02208 0.23151 0.0
C840 C 0.80931 -0.01258 0.24782 0.0
C841 C 0.83071 0.01145 0.2162 0.0
C842 C 0.83263 -0.01101 0.21636 0.0
C843 C 0.82182 0.95415 0.23092 0.0
C844 C 0.80964 0.94202 0.24564 0.0
C845 C 0.82157 0.97679 0.23178 0.0
C846 C 0.79827 0.95278 0.26208 0.0
C847 C 0.79817 0.97527 0.2632 0.0
H848 H 0.50271 0.29266 0.75129 0.0
H849 H 0.504 0.3486 0.71019 0.0
H850 H 0.46486 0.35272 0.71417 0.0
H851 H 0.43019 0.34036 0.72928 0.0
H852 H 0.4291 0.2839 0.76975 0.0
H853 H 0.46816 0.28005 0.76592 0.0
C854 C 0.49447 0.30583 0.74327 0.0
C855 C 0.50632 0.32035 0.73053 0.0
C856 C 0.47193 0.30796 0.74542 0.0
C857 C 0.4953 0.33719 0.72011 0.0
C858 C 0.4729 0.33956 0.72236 0.0
C859 C 0.43847 0.32718 0.73722 0.0
C860 C 0.42665 0.31247 0.7498 0.0
C861 C 0.46103 0.325 0.73494 0.0
C862 C 0.43771 0.29547 0.75994 0.0
C863 C 0.4601 0.29326 0.75781 0.0
H864 H 0.15939 -0.0011 0.75656 0.0
H865 H 0.17358 0.006 0.68889 0.0
H866 H 0.16948 0.96715 0.68348 0.0
H867 H 0.16694 0.93073 0.69894 0.0
H868 H 0.15299 0.92374 0.76668 0.0
H869 H 0.15164 0.96285 0.77092 0.0
C870 C 0.16118 -0.00797 0.74053 0.0
C871 C 0.16716 0.00538 0.72327 0.0
C872 C 0.15908 0.96958 0.73755 0.0
C873 C 0.16914 -0.00384 0.70256 0.0
C874 C 0.16691 0.97388 0.69944 0.0
C875 C 0.16319 0.93774 0.71455 0.0
C876 C 0.16046 0.92424 0.73252 0.0
C877 C 0.16267 0.96035 0.71698 0.0
C878 C 0.15537 0.93366 0.75257 0.0
C879 C 0.15468 0.95609 0.75506 0.0
H880 H 0.47009 0.66899 0.26335 0.0
H881 H 0.4644 0.66963 0.1939 0.0
H882 H 0.50376 0.66945 0.19074 0.0
H883 H 0.53981 0.66996 0.20757 0.0
H884 H 0.54571 0.66917 0.27697 0.0
H885 H 0.50628 0.66858 0.28021 0.0
C886 C 0.47743 0.66898 0.24751 0.0
C887 C 0.46423 0.66938 0.2289 0.0
C888 C 0.50015 0.66895 0.24577 0.0
C889 C 0.4741 0.66934 0.20852 0.0
C890 C 0.49665 0.66928 0.20668 0.0
C891 C 0.53251 0.66967 0.22343 0.0
C892 C 0.54576 0.66971 0.242 0.0
C893 C 0.50983 0.66926 0.22518 0.0
C894 C 0.53595 0.66918 0.26239 0.0
C895 C 0.51338 0.66884 0.26427 0.0
H896 H 0.83499 0.0323 0.73368 0.0
H897 H 0.7855 0.03231 0.68416 0.0
H898 H 0.78405 -0.00707 0.68487 0.0
H899 H 0.79693 0.95839 0.69939 0.0
H900 H 0.84611 0.95845 0.74921 0.0
H901 H 0.84763 -0.00218 0.7484 0.0
C902 C 0.82383 0.02372 0.72307 0.0
C903 C 0.81038 0.03534 0.70889 0.0
C904 C 0.82309 0.00103 0.72352 0.0
C905 C 0.79603 0.02386 0.69527 0.0
C906 C 0.79522 0.0013 0.69562 0.0
C907 C 0.80806 0.96699 0.71001 0.0
C908 C 0.82143 0.9554 0.72429 0.0
C909 C 0.80873 -0.0103 0.70962 0.0
C910 C 0.83563 0.96689 0.73804 0.0
C911 C 0.8365 -0.01055 0.73762 0.0
H912 H 0.51449 0.31017 0.25006 0.0
H913 H 0.52017 0.27543 0.18977 0.0
H914 H 0.48091 0.27129 0.18783 0.0
H915 H 0.445 0.27601 0.20394 0.0
H916 H 0.43922 0.3093 0.26497 0.0
H917 H 0.47832 0.31576 0.26574 0.0
C918 C 0.50715 0.30177 0.23645 0.0
C919 C 0.52038 0.29306 0.22015 0.0
C920 C 0.48446 0.29923 0.23551 0.0
C921 C 0.5105 0.28221 0.20264 0.0
C922 C 0.48798 0.27986 0.20147 0.0
C923 C 0.45222 0.28496 0.21727 0.0
C924 C 0.43912 0.2922 0.23435 0.0
C925 C 0.47481 0.28814 0.21789 0.0
C926 C 0.44887 0.30355 0.2516 0.0
C927 C 0.47127 0.30718 0.2521 0.0
H928 H 0.27205 0.14652 0.0155 0.0
H929 H 0.20585 0.12388 0.0175 0.0
H930 H 0.20748 0.11402 0.97937 0.0
H931 H 0.22655 0.115 0.94476 0.0
H932 H 0.2925 0.13843 0.94276 0.0
H933 H 0.29213 0.14455 0.98162 0.0
C934 C 0.25803 0.13922 0.00768 0.0
C935 C 0.23877 0.13621 0.01929 0.0
C936 C 0.25898 0.13381 -0.01431 0.0
C937 C 0.22085 0.12653 0.00893 0.0
C938 C 0.22174 0.12092 -0.01291 0.0
C939 C 0.24095 0.12116 0.95285 0.0
C940 C 0.25942 0.12649 0.94078 0.0
C941 C 0.24055 0.12496 0.9752 0.0
C942 C 0.27798 0.13436 0.95159 0.0
C943 C 0.27778 0.13792 0.97383 0.0
H944 H 0.22992 0.84227 0.03525 0.0
H945 H 0.2735 0.78847 0.04315 0.0
H946 H 0.27357 0.78242 0.00429 0.0
H947 H 0.26057 0.79166 0.96811 0.0
H948 H 0.2164 0.84491 0.96007 0.0
H949 H 0.21744 0.85198 -0.00115 0.0
C950 C 0.23947 0.82925 0.02848 0.0
C951 C 0.25161 0.81582 0.04217 0.0
C952 C 0.23939 0.82576 0.00605 0.0
C953 C 0.26392 0.79903 0.03306 0.0
C954 C 0.26401 0.79555 0.0108 0.0
C955 C 0.2513 0.80492 0.9748 0.0
C956 C 0.23842 0.81771 0.96118 0.0
C957 C 0.25173 0.80873 -0.00285 0.0
C958 C 0.22643 0.83477 0.97017 0.0
C959 C 0.22698 0.83882 -0.00763 0.0
H960 H 0.66775 0.77047 0.53188 0.0
H961 H 0.6532 0.70231 0.53488 0.0
H962 H 0.65521 0.6996 0.4957 0.0
H963 H 0.66319 0.71597 0.46074 0.0
H964 H 0.67798 0.78404 0.45745 0.0
H965 H 0.67348 0.78738 0.49645 0.0
C966 C 0.66489 0.75504 0.52397 0.0
C967 C 0.6605 0.73659 0.53642 0.0
C968 C 0.6661 0.75355 0.50132 0.0
C969 C 0.65669 0.71678 0.5258 0.0
C970 C 0.65785 0.71519 0.50334 0.0
C971 C 0.66521 0.73162 0.46847 0.0
C972 C 0.67106 0.74969 0.4561 0.0
C973 C 0.66283 0.73339 0.49096 0.0
C974 C 0.6735 0.76983 0.4665 0.0
C975 C 0.67102 0.77174 0.48886 0.0
H976 H 0.70493 0.17929 -0.00042 0.0
H977 H 0.77406 0.17659 0.01018 0.0
H978 H 0.78016 0.1791 0.97145 0.0
H979 H 0.76608 0.18334 0.93465 0.0
H980 H 0.697 0.18587 0.92375 0.0
H981 H 0.69074 0.18187 0.96239 0.0
C982 C 0.72133 0.17924 -0.00658 0.0
C983 C 0.739 0.1779 0.00787 0.0
C984 C 0.72477 0.18057 0.97102 0.0
C985 C 0.76013 0.17765 -0.00048 0.0
C986 C 0.76366 0.17908 0.97733 0.0
C987 C 0.74962 0.18283 0.94065 0.0
C988 C 0.73206 0.185 0.92621 0.0
C989 C 0.74613 0.18069 0.96294 0.0
C990 C 0.71086 0.18424 0.9344 0.0
C991 C 0.70725 0.18204 0.95655 0.0
H992 H 0.30657 0.2699 0.54035 0.0
H993 H 0.29357 0.20149 0.54454 0.0
H994 H 0.30518 0.19648 0.5074 0.0
H995 H 0.31436 0.21211 0.47245 0.0
H996 H 0.32672 0.28057 0.46787 0.0
H997 H 0.32041 0.28483 0.50646 0.0
C998 C 0.30662 0.25384 0.53327 0.0
C999 C 0.2988 0.2362 0.54512 0.0
C1000 C 0.31305 0.25106 0.51174 0.0
C1001 C 0.29923 0.21545 0.53574 0.0
C1002 C 0.30583 0.21253 0.51444 0.0
C1003 C 0.31605 0.22791 0.47994 0.0
C1004 C 0.32061 0.24603 0.46719 0.0
C1005 C 0.31205 0.23033 0.50208 0.0
C1006 C 0.32303 0.26635 0.47724 0.0
C1007 C 0.31932 0.26883 0.49932 0.0
H1008 H 0.75518 0.81531 0.0026 0.0
H1009 H 0.70831 0.76383 0.0087 0.0
H1010 H 0.7044 0.76188 0.96956 0.0
H1011 H 0.71319 0.77567 0.93352 0.0
H1012 H 0.76023 0.82701 0.92744 0.0
H1013 H 0.76514 0.82802 0.9665 0.0
C1014 C 0.74418 0.80357 -0.0046 0.0
C1015 C 0.732 0.78982 0.00869 0.0
C1016 C 0.74196 0.80253 0.97279 0.0
C1017 C 0.7179 0.77466 -0.00104 0.0
C1018 C 0.7156 0.77355 0.97652 0.0
C1019 C 0.7246 0.78703 0.94071 0.0
C1020 C 0.73622 0.80131 0.92747 0.0
C1021 C 0.72738 0.78755 0.96327 0.0
C1022 C 0.751 0.81583 0.93715 0.0
C1023 C 0.75382 0.81645 0.95954 0.0
H1024 H 0.66396 0.18727 0.51484 0.0
H1025 H 0.6539 0.25583 0.52251 0.0
H1026 H 0.65575 0.26046 0.48351 0.0
H1027 H 0.66186 0.24541 0.44736 0.0
H1028 H 0.67197 0.17688 0.43949 0.0
H1029 H 0.66815 0.1719 0.47834 0.0
C1030 C 0.66212 0.20323 0.508 0.0
C1031 C 0.65896 0.2212 0.52169 0.0
C1032 C 0.66314 0.2058 0.48547 0.0
C1033 C 0.65642 0.24171 0.51244 0.0
C1034 C 0.65747 0.24439 0.4901 0.0
C1035 C 0.663 0.22932 0.45406 0.0
C1036 C 0.6673 0.21157 0.44043 0.0
C1037 C 0.66102 0.22659 0.47647 0.0
C1038 C 0.66868 0.19086 0.44952 0.0
C1039 C 0.6666 0.188 0.47179 0.0
H1040 H 0.31422 0.71875 0.43008 0.0
H1041 H 0.2883 0.78339 0.43193 0.0
H1042 H 0.2926 0.78445 0.47101 0.0
H1043 H 0.30144 0.76626 0.50489 0.0
H1044 H 0.32674 0.70139 0.5033 0.0
H1045 H 0.32517 0.70133 0.46395 0.0
C1046 C 0.30967 0.73313 0.439 0.0
C1047 C 0.30078 0.75087 0.42804 0.0
C1048 C 0.31202 0.73361 0.46157 0.0
C1049 C 0.29507 0.76943 0.4399 0.0
C1050 C 0.29751 0.77007 0.46229 0.0
C1051 C 0.30683 0.75218 0.49596 0.0
C1052 C 0.31404 0.73381 0.50709 0.0
C1053 C 0.30563 0.75213 0.47333 0.0
C1054 C 0.32102 0.71574 0.49519 0.0
C1055 C 0.32008 0.71565 0.47266 0.0
H1056 H 0.15308 0.36881 0.24264 0.0
H1057 H 0.12242 0.32267 0.28444 0.0
H1058 H 0.09698 0.31268 0.25582 0.0
H1059 H 0.09115 0.30965 0.21681 0.0
H1060 H 0.12448 0.35307 0.17426 0.0
H1061 H 0.14032 0.37215 0.20514 0.0
C1062 C 0.14025 0.35725 0.24574 0.0
C1063 C 0.14 0.34606 0.26539 0.0
C1064 C 0.12627 0.35085 0.22884 0.0
C1065 C 0.12321 0.33119 0.26925 0.0
C1066 C 0.1087 0.32538 0.25285 0.0
C1067 C 0.10095 0.32399 0.21434 0.0
C1068 C 0.10708 0.32963 0.19333 0.0
C1069 C 0.11113 0.33397 0.23216 0.0
C1070 C 0.11976 0.34828 0.19034 0.0
C1071 C 0.1291 0.359 0.20801 0.0
H1072 H 0.07961 0.65104 0.75254 0.0
H1073 H 0.12362 0.61266 0.79049 0.0
H1074 H 0.13573 0.59398 0.75807 0.0
H1075 H 0.14165 0.59705 0.71905 0.0
H1076 H 0.0995 0.63753 0.68127 0.0
H1077 H 0.07848 0.64626 0.71327 0.0
C1078 C 0.09116 0.63794 0.75386 0.0
C1079 C 0.10135 0.6339 0.77378 0.0
C1080 C 0.09881 0.62793 0.73499 0.0
C1081 C 0.11594 0.61654 0.77525 0.0
C1082 C 0.12303 0.60593 0.75665 0.0
C1083 C 0.12726 0.60695 0.71763 0.0
C1084 C 0.12259 0.61722 0.69799 0.0
C1085 C 0.11584 0.61276 0.73634 0.0
C1086 C 0.10373 0.62982 0.69635 0.0
C1087 C 0.09179 0.63499 0.7147 0.0
H1088 H 0.81105 0.60068 0.23888 0.0
H1089 H 0.83844 0.6068 0.3027 0.0
H1090 H 0.86942 0.62654 0.28828 0.0
H1091 H 0.88204 0.65061 0.25938 0.0
H1092 H 0.85481 0.64431 0.19556 0.0
H1093 H 0.83098 0.61537 0.20778 0.0
C1094 C 0.82437 0.60542 0.24941 0.0
C1095 C 0.82239 0.6027 0.2718 0.0
C1096 C 0.842 0.61697 0.241 0.0
C1097 C 0.83967 0.60876 0.28539 0.0
C1098 C 0.85727 0.62028 0.27717 0.0
C1099 C 0.87183 0.64194 0.2479 0.0
C1100 C 0.86988 0.64969 0.22673 0.0
C1101 C 0.85777 0.62573 0.25525 0.0
C1102 C 0.85661 0.63852 0.21193 0.0
C1103 C 0.84267 0.62224 0.21903 0.0
H1104 H 0.87015 0.29331 0.71277 0.0
H1105 H 0.87489 0.3158 0.77856 0.0
H1106 H 0.84981 0.34513 0.77064 0.0
H1107 H 0.81982 0.3578 0.74749 0.0
H1108 H 0.8156 0.33594 0.68151 0.0
H1109 H 0.8476 0.31341 0.68673 0.0
C1110 C 0.86643 0.30524 0.72508 0.0
C1111 C 0.87401 0.30223 0.74629 0.0
C1112 C 0.85182 0.32197 0.72044 0.0
C1113 C 0.86925 0.3178 0.76212 0.0
C1114 C 0.85467 0.33443 0.75765 0.0
C1115 C 0.82661 0.34893 0.734 0.0
C1116 C 0.81531 0.34827 0.71424 0.0
C1117 C 0.84485 0.33579 0.73724 0.0
C1118 C 0.82412 0.33676 0.69683 0.0
C1119 C 0.84225 0.32361 0.69991 0.0
H1120 H 0.22929 0.18368 0.37955 0.0
H1121 H 0.29441 0.15895 0.38165 0.0
H1122 H 0.28323 0.12764 0.36011 0.0
H1123 H 0.25766 0.11399 0.33247 0.0
H1124 H 0.19263 0.13888 0.33014 0.0
H1125 H 0.20069 0.16288 0.36056 0.0
C1126 C 0.24075 0.17089 0.37614 0.0
C1127 C 0.26271 0.17378 0.38171 0.0
C1128 C 0.23426 0.15313 0.3634 0.0
C1129 C 0.27744 0.15709 0.37745 0.0
C1130 C 0.27109 0.1393 0.36489 0.0
C1131 C 0.24495 0.12383 0.33942 0.0
C1132 C 0.22475 0.12506 0.32886 0.0
C1133 C 0.24993 0.13803 0.35652 0.0
C1134 C 0.20831 0.13771 0.33799 0.0
C1135 C 0.21305 0.15172 0.35518 0.0
H1136 H 0.30702 0.77057 0.87193 0.0
H1137 H 0.27162 0.71072 0.86621 0.0
H1138 H 0.30033 0.69542 0.84395 0.0
H1139 H 0.32961 0.70287 0.81845 0.0
H1140 H 0.36127 0.7649 0.8197 0.0
H1141 H 0.34073 0.77535 0.85166 0.0
C1142 C 0.30614 0.75385 0.86664 0.0
C1143 C 0.28726 0.74178 0.87057 0.0
C1144 C 0.32203 0.74571 0.85262 0.0
C1145 C 0.28605 0.72027 0.86333 0.0
C1146 C 0.30237 0.71161 0.85043 0.0
C1147 C 0.3328 0.71819 0.82648 0.0
C1148 C 0.34691 0.73309 0.81688 0.0
C1149 C 0.31967 0.72468 0.8438 0.0
C1150 C 0.35058 0.75314 0.82699 0.0
C1151 C 0.33858 0.75922 0.84507 0.0
H1152 H 0.70066 0.81123 0.34779 0.0
H1153 H 0.75836 0.82942 0.38292 0.0
H1154 H 0.76868 0.85403 0.35403 0.0
H1155 H 0.7661 0.8623 0.31533 0.0
H1156 H 0.71139 0.83877 0.27845 0.0
H1157 H 0.69494 0.82458 0.31118 0.0
C1158 C 0.71488 0.82147 0.34959 0.0
C1159 C 0.72871 0.81864 0.36744 0.0
C1160 C 0.7216 0.8341 0.3321 0.0
C1161 C 0.74739 0.83154 0.36939 0.0
C1162 C 0.75347 0.84531 0.35268 0.0
C1163 C 0.75021 0.85478 0.31465 0.0
C1164 C 0.74002 0.85139 0.29454 0.0
C1165 C 0.74147 0.84554 0.33337 0.0
C1166 C 0.71957 0.84139 0.29376 0.0
C1167 C 0.71021 0.83321 0.31247 0.0
H1168 H 0.65425 0.26713 0.84556 0.0
H1169 H 0.66037 0.20002 0.828 0.0
H1170 H 0.62894 0.20284 0.80406 0.0
H1171 H 0.60617 0.22683 0.78177 0.0
H1172 H 0.59932 0.29368 0.80015 0.0
H1173 H 0.62405 0.28844 0.83052 0.0
C1174 C 0.64804 0.25291 0.83726 0.0
C1175 C 0.65974 0.23349 0.83828 0.0
C1176 C 0.63005 0.25472 0.82336 0.0
C1177 C 0.65158 0.21512 0.82752 0.0
C1178 C 0.63376 0.21681 0.81358 0.0
C1179 C 0.60935 0.23997 0.79302 0.0
C1180 C 0.60125 0.26068 0.78853 0.0
C1181 C 0.62376 0.23687 0.81039 0.0
C1182 C 0.60534 0.27758 0.80326 0.0
C1183 C 0.61973 0.27466 0.8205 0.0
H1184 H 0.22577 0.79185 0.60077 0.0
H1185 H 0.29277 0.81163 0.60251 0.0
H1186 H 0.28394 0.84126 0.62707 0.0
H1187 H 0.25884 0.85483 0.65487 0.0
H1188 H 0.19166 0.8358 0.65242 0.0
H1189 H 0.19866 0.81307 0.62089 0.0
C1190 C 0.23821 0.8033 0.60574 0.0
C1191 C 0.25991 0.79942 0.60016 0.0
C1192 C 0.23303 0.8202 0.62004 0.0
C1193 C 0.27594 0.81433 0.60657 0.0
C1194 C 0.27094 0.83112 0.62087 0.0
C1195 C 0.24557 0.8465 0.64676 0.0
C1196 C 0.22486 0.84668 0.65608 0.0
C1197 C 0.24979 0.83329 0.62876 0.0
C1198 C 0.20773 0.83594 0.64549 0.0
C1199 C 0.2118 0.82268 0.62762 0.0
H1200 H 0.63268 0.76404 0.11257 0.0
H1201 H 0.67922 0.7232 0.08069 0.0
H1202 H 0.66414 0.69165 0.09855 0.0
H1203 H 0.6454 0.67823 0.13067 0.0
H1204 H 0.60062 0.71958 0.16428 0.0
H1205 H 0.60691 0.74813 0.13806 0.0
C1206 C 0.63896 0.74811 0.10887 0.0
C1207 C 0.65757 0.74608 0.09595 0.0
C1208 C 0.63083 0.73016 0.11996 0.0
C1209 C 0.66516 0.72531 0.09084 0.0
C1210 C 0.6567 0.70725 0.10129 0.0
C1211 C 0.6364 0.69321 0.13176 0.0
C1212 C 0.62308 0.69707 0.14972 0.0
C1213 C 0.6407 0.70981 0.11708 0.0
C1214 C 0.61114 0.7163 0.15074 0.0
C1215 C 0.61493 0.73275 0.13586 0.0
H1216 H 0.75229 0.09462 0.6402 0.0
H1217 H 0.79091 0.13989 0.60428 0.0
H1218 H 0.75936 0.1498 0.5828 0.0
H1219 H 0.71972 0.1531 0.58202 0.0
H1220 H 0.68092 0.10951 0.61968 0.0
H1221 H 0.71346 0.091 0.63199 0.0
C1222 C 0.75402 0.10597 0.62708 0.0
C1223 C 0.77373 0.11706 0.62439 0.0
C1224 C 0.73556 0.11226 0.61531 0.0
C1225 C 0.77576 0.1315 0.60707 0.0
C1226 C 0.75766 0.1373 0.59483 0.0
C1227 C 0.71831 0.13893 0.5921 0.0
C1228 C 0.69802 0.13314 0.60049 0.0
C1229 C 0.73721 0.12897 0.59994 0.0
C1230 C 0.69644 0.11458 0.61336 0.0
C1231 C 0.71509 0.10409 0.6206 0.0
H1232 H 0.30261 0.23876 0.10614 0.0
H1233 H 0.31574 0.17063 0.10133 0.0
H1234 H 0.34841 0.17533 0.12335 0.0
H1235 H 0.36675 0.19714 0.15151 0.0
H1236 H 0.35338 0.2653 0.15635 0.0
H1237 H 0.32789 0.26245 0.12627 0.0
C1238 C 0.3132 0.22514 0.10911 0.0
C1239 C 0.30662 0.20434 0.10252 0.0
C1240 C 0.33172 0.22792 0.12214 0.0
C1241 C 0.32047 0.1868 0.10626 0.0
C1242 C 0.33902 0.18945 0.11911 0.0
C1243 C 0.35895 0.21153 0.14536 0.0
C1244 C 0.36147 0.23126 0.15654 0.0
C1245 C 0.34391 0.20968 0.12831 0.0
C1246 C 0.35159 0.24986 0.1482 0.0
C1247 C 0.33676 0.24819 0.13112 0.0
H1248 H 0.80978 0.59456 0.75469 0.0
H1249 H 0.8075 0.58843 0.68531 0.0
H1250 H 0.83732 0.61401 0.68223 0.0
H1251 H 0.85694 0.64467 0.69874 0.0
H1252 H 0.85914 0.65116 0.76798 0.0
H1253 H 0.83696 0.61868 0.77159 0.0
C1254 C 0.81633 0.59818 0.73892 0.0
C1255 C 0.80584 0.59013 0.72025 0.0
C1256 C 0.83325 0.61336 0.7372 0.0
C1257 C 0.81491 0.59464 0.69999 0.0
C1258 C 0.8319 0.60948 0.69817 0.0
C1259 C 0.85328 0.63846 0.71463 0.0
C1260 C 0.85925 0.65056 0.73304 0.0
C1261 C 0.84014 0.62 0.71657 0.0
C1262 C 0.85467 0.64222 0.75354 0.0
C1263 C 0.84173 0.62374 0.75561 0.0
H1264 H 0.83664 0.31816 0.19114 0.0
H1265 H 0.87214 0.32081 0.25103 0.0
H1266 H 0.84736 0.3482 0.26494 0.0
H1267 H 0.81018 0.36232 0.26378 0.0
H1268 H 0.77173 0.35375 0.20613 0.0
H1269 H 0.80279 0.33824 0.18743 0.0
C1270 C 0.83962 0.32572 0.20673 0.0
C1271 C 0.85615 0.31765 0.22005 0.0
C1272 C 0.82413 0.33992 0.21527 0.0
C1273 C 0.85962 0.32703 0.24045 0.0
C1274 C 0.84518 0.34238 0.24854 0.0
C1275 C 0.80897 0.35793 0.24684 0.0
C1276 C 0.78878 0.359 0.23631 0.0
C1277 C 0.8265 0.34765 0.2367 0.0
C1278 C 0.78716 0.35296 0.2145 0.0
C1279 C 0.80488 0.34396 0.20388 0.0
H1280 H 0.16228 0.32853 0.78572 0.0
H1281 H 0.12674 0.29043 0.73897 0.0
H1282 H 0.13896 0.31421 0.71011 0.0
H1283 H 0.16633 0.34058 0.69781 0.0
H1284 H 0.2013 0.37903 0.74462 0.0
H1285 H 0.18245 0.36073 0.77396 0.0
C1286 C 0.15656 0.32599 0.76931 0.0
C1287 C 0.14394 0.30765 0.76434 0.0
C1288 C 0.16381 0.33961 0.75283 0.0
C1289 C 0.13645 0.30448 0.74313 0.0
C1290 C 0.14364 0.31793 0.7266 0.0
C1291 C 0.16904 0.34554 0.71443 0.0
C1292 C 0.18509 0.36101 0.71922 0.0
C1293 C 0.15828 0.3348 0.73115 0.0
C1294 C 0.1888 0.36729 0.74069 0.0
C1295 C 0.17821 0.35665 0.75744 0.0
H1296 H 0.15644 0.60272 0.20546 0.0
H1297 H 0.15339 0.59395 0.27436 0.0
H1298 H 0.12299 0.61879 0.27641 0.0
H1299 H 0.10431 0.64973 0.26001 0.0
H1300 H 0.10785 0.65901 0.19122 0.0
H1301 H 0.13046 0.62702 0.18775 0.0
C1302 C 0.14859 0.60558 0.22082 0.0
C1303 C 0.1577 0.59702 0.2398 0.0
C1304 C 0.13142 0.62041 0.22199 0.0
C1305 C 0.147 0.60053 0.25949 0.0
C1306 C 0.1297 0.61498 0.26074 0.0
C1307 C 0.10937 0.6443 0.24416 0.0
C1308 C 0.10493 0.65715 0.22601 0.0
C1309 C 0.12282 0.62611 0.24231 0.0
C1310 C 0.11123 0.64964 0.20553 0.0
C1311 C 0.12438 0.6314 0.20354 0.0
H1312 H 0.77554 0.84443 0.64655 0.0
H1313 H 0.73092 0.8821 0.68416 0.0
H1314 H 0.7005 0.86771 0.66297 0.0
H1315 H 0.68687 0.83719 0.6411 0.0
H1316 H 0.73145 0.79841 0.60453 0.0
H1317 H 0.76168 0.82089 0.6172 0.0
C1318 C 0.75924 0.8503 0.64927 0.0
C1319 C 0.75533 0.86424 0.66681 0.0
C1320 C 0.74184 0.84142 0.63742 0.0
C1321 C 0.73422 0.87158 0.67056 0.0
C1322 C 0.71683 0.8631 0.65862 0.0
C1323 C 0.70309 0.83441 0.63505 0.0
C1324 C 0.70706 0.81608 0.62216 0.0
C1325 C 0.7204 0.84696 0.64303 0.0
C1326 C 0.72804 0.8125 0.61438 0.0
C1327 C 0.74537 0.82516 0.62193 0.0
H1328 H 0.62805 0.27518 0.123 0.0
H1329 H 0.58729 0.2307 0.15741 0.0
H1330 H 0.59704 0.20177 0.13227 0.0
H1331 H 0.62467 0.18773 0.10744 0.0
H1332 H 0.66696 0.23212 0.0746 0.0
H1333 H 0.64852 0.26255 0.09147 0.0
C1334 C 0.62061 0.25935 0.12441 0.0
C1335 C 0.60736 0.25489 0.14224 0.0
C1336 C 0.62688 0.24269 0.11034 0.0
C1337 C 0.59758 0.23448 0.14385 0.0
C1338 C 0.60339 0.21786 0.12961 0.0
C1339 C 0.62927 0.2041 0.1033 0.0
C1340 C 0.64764 0.20763 0.09034 0.0
C1341 C 0.61916 0.2215 0.11378 0.0
C1342 C 0.6531 0.2289 0.08472 0.0
C1343 C 0.64272 0.24634 0.09462 0.0
H1344 H 0.19749 0.15687 0.61762 0.0
H1345 H 0.26635 0.15864 0.60622 0.0
H1346 H 0.27002 0.12244 0.62096 0.0
H1347 H 0.25499 0.09488 0.64507 0.0
H1348 H 0.18615 0.09337 0.65679 0.0
H1349 H 0.1811 0.1243 0.63331 0.0
C1350 C 0.21318 0.14903 0.6177 0.0
C1351 C 0.23169 0.16067 0.61144 0.0
C1352 C 0.21525 0.12831 0.62654 0.0
C1353 C 0.25185 0.15016 0.61118 0.0
C1354 C 0.25401 0.12948 0.61979 0.0
C1355 C 0.23878 0.1008 0.64185 0.0
C1356 C 0.22111 0.0923 0.65332 0.0
C1357 C 0.23603 0.11902 0.62874 0.0
C1358 C 0.20014 0.09981 0.64852 0.0
C1359 C 0.19724 0.11771 0.63524 0.0
H1360 H 0.34886 0.79248 0.14931 0.0
H1361 H 0.31025 0.75515 0.1043 0.0
H1362 H 0.33286 0.7236 0.11074 0.0
H1363 H 0.35686 0.70491 0.13635 0.0
H1364 H 0.39525 0.74214 0.18157 0.0
H1365 H 0.38012 0.77551 0.16734 0.0
C1366 C 0.34594 0.77765 0.14031 0.0
C1367 C 0.32759 0.77594 0.12682 0.0
C1368 C 0.35883 0.75946 0.14434 0.0
C1369 C 0.32416 0.75682 0.11493 0.0
C1370 C 0.33699 0.73868 0.11876 0.0
C1371 C 0.36266 0.7204 0.14235 0.0
C1372 C 0.37672 0.72108 0.16029 0.0
C1373 C 0.35342 0.73949 0.13449 0.0
C1374 C 0.38436 0.74118 0.16782 0.0
C1375 C 0.37544 0.76029 0.1599 0.0
H1376 H 0.69945 0.14941 0.33277 0.0
H1377 H 0.75713 0.13604 0.3697 0.0
H1378 H 0.76935 0.11087 0.34181 0.0
H1379 H 0.76801 0.10061 0.30339 0.0
H1380 H 0.71286 0.11892 0.26478 0.0
H1381 H 0.69511 0.13385 0.29663 0.0
C1382 C 0.71415 0.14014 0.33518 0.0
C1383 C 0.7274 0.14454 0.35321 0.0
C1384 C 0.72183 0.12703 0.31832 0.0
C1385 C 0.74664 0.1328 0.35597 0.0
C1386 C 0.75377 0.11866 0.33985 0.0
C1387 C 0.75176 0.10712 0.30217 0.0
C1388 C 0.74179 0.10885 0.2818 0.0
C1389 C 0.74221 0.1168 0.32036 0.0
C1390 C 0.72086 0.11757 0.28031 0.0
C1391 C 0.71077 0.1262 0.2985 0.0
H1392 H 0.3384 0.18424 0.8336 0.0
H1393 H 0.29657 0.20851 0.88343 0.0
H1394 H 0.312 0.24472 0.87933 0.0
H1395 H 0.33082 0.27022 0.85544 0.0
H1396 H 0.37274 0.24552 0.80564 0.0
H1397 H 0.36459 0.20871 0.81647 0.0
C1398 C 0.33336 0.19732 0.84414 0.0
C1399 C 0.31627 0.19395 0.85857 0.0
C1400 C 0.34213 0.21806 0.84151 0.0
C1401 C 0.30979 0.21083 0.87226 0.0
C1402 C 0.31845 0.23157 0.86974 0.0
C1403 C 0.33881 0.25681 0.84748 0.0
C1404 C 0.35175 0.26063 0.82926 0.0
C1405 C 0.33369 0.23557 0.85351 0.0
C1406 C 0.36239 0.24311 0.81947 0.0
C1407 C 0.35757 0.22196 0.82551 0.0
H1408 H 0.20814 0.82074 0.3569 0.0
H1409 H 0.27413 0.83783 0.34263 0.0
H1410 H 0.26194 0.87059 0.32461 0.0
H1411 H 0.23209 0.88736 0.30405 0.0
H1412 H 0.16607 0.87064 0.31882 0.0
H1413 H 0.17854 0.84514 0.34604 0.0
C1414 C 0.21986 0.83236 0.35101 0.0
C1415 C 0.24192 0.8269 0.35082 0.0
C1416 C 0.21264 0.85092 0.34026 0.0
C1417 C 0.25706 0.84186 0.34304 0.0
C1418 C 0.25005 0.8604 0.33238 0.0
C1419 C 0.22049 0.87895 0.31406 0.0
C1420 C 0.19827 0.88052 0.3093 0.0
C1421 C 0.22781 0.86415 0.32953 0.0
C1422 C 0.18327 0.86965 0.32228 0.0
C1423 C 0.19041 0.85485 0.33766 0.0
H1424 H 0.62493 0.68779 0.81934 0.0
H1425 H 0.5755 0.72982 0.79425 0.0
H1426 H 0.58969 0.75968 0.81631 0.0
H1427 H 0.62122 0.77523 0.83559 0.0
H1428 H 0.67077 0.73306 0.86038 0.0
H1429 H 0.65107 0.7017 0.84632 0.0
C1430 C 0.6168 0.7033 0.81937 0.0
C1431 C 0.59946 0.7068 0.80501 0.0
C1432 C 0.62524 0.72039 0.83187 0.0
C1433 C 0.58888 0.72681 0.80521 0.0
C1434 C 0.59714 0.74393 0.81766 0.0
C1435 C 0.62723 0.7591 0.83868 0.0
C1436 C 0.64766 0.75649 0.84857 0.0
C1437 C 0.61606 0.74117 0.83005 0.0
C1438 C 0.65515 0.73553 0.85274 0.0
C1439 C 0.64402 0.71758 0.84442 0.0
H1440 H 0.15862 0.24228 0.21042 0.0
H1441 H 0.10178 0.20411 0.19563 0.0
H1442 H 0.11675 0.1739 0.2162 0.0
H1443 H 0.14759 0.15739 0.23586 0.0
H1444 H 0.20412 0.19643 0.25014 0.0
H1445 H 0.18756 0.22717 0.23247 0.0
C1446 C 0.14939 0.22741 0.21181 0.0
C1447 C 0.12924 0.22537 0.20128 0.0
C1448 C 0.1581 0.21018 0.22353 0.0
C1449 C 0.11737 0.2061 0.20354 0.0
C1450 C 0.12597 0.18879 0.21523 0.0
C1451 C 0.15613 0.17271 0.23537 0.0
C1452 C 0.17721 0.17444 0.24413 0.0
C1453 C 0.14655 0.19049 0.22494 0.0
C1454 C 0.188 0.19448 0.24337 0.0
C1455 C 0.17856 0.21213 0.23323 0.0
H1456 H 0.27559 0.70495 0.73763 0.0
H1457 H 0.31748 0.65018 0.72781 0.0
H1458 H 0.28702 0.62957 0.71246 0.0
H1459 H 0.24894 0.62819 0.69941 0.0
H1460 H 0.20811 0.68391 0.70874 0.0
H1461 H 0.2377 0.70295 0.72679 0.0
C1462 C 0.27813 0.68845 0.73227 0.0
C1463 C 0.29889 0.67923 0.73372 0.0
C1464 C 0.26069 0.67686 0.72328 0.0
C1465 C 0.3017 0.65773 0.72687 0.0
C1466 C 0.28429 0.64595 0.71802 0.0
C1467 C 0.24647 0.64439 0.70566 0.0
C1468 C 0.22633 0.65464 0.70257 0.0
C1469 C 0.26377 0.65549 0.7158 0.0
C1470 C 0.22344 0.67568 0.7107 0.0
C1471 C 0.24038 0.68661 0.72104 0.0
H1472 H 0.85165 0.83882 0.22097 0.0
H1473 H 0.83706 0.82463 0.28717 0.0
H1474 H 0.86443 0.79629 0.28748 0.0
H1475 H 0.88271 0.76905 0.26559 0.0
H1476 H 0.89373 0.78056 0.1981 0.0
H1477 H 0.87873 0.81678 0.2017 0.0
C1478 C 0.85541 0.83028 0.23574 0.0
C1479 C 0.84247 0.83357 0.254 0.0
C1480 C 0.87028 0.81314 0.23535 0.0
C1481 C 0.84701 0.8223 0.27301 0.0
C1482 C 0.86248 0.80593 0.27308 0.0
C1483 C 0.8828 0.77992 0.25194 0.0
C1484 C 0.88847 0.77192 0.23147 0.0
C1485 C 0.87286 0.80014 0.25386 0.0
C1486 C 0.88909 0.78621 0.21398 0.0
C1487 C 0.88014 0.80685 0.21596 0.0
H1488 H 0.63138 0.34798 0.76625 0.0
H1489 H 0.61159 0.3532 0.69985 0.0
H1490 H 0.64425 0.37409 0.69188 0.0
H1491 H 0.68264 0.37995 0.70171 0.0
H1492 H 0.70303 0.37171 0.76778 0.0
H1493 H 0.66586 0.36385 0.77823 0.0
C1494 C 0.63369 0.3548 0.75034 0.0
C1495 C 0.61941 0.34891 0.73358 0.0
C1496 C 0.65297 0.36584 0.74575 0.0
C1497 C 0.6224 0.35765 0.713 0.0
C1498 C 0.6413 0.36927 0.70838 0.0
C1499 C 0.67876 0.37751 0.71856 0.0
C1500 C 0.6956 0.37574 0.73386 0.0
C1501 C 0.65744 0.37191 0.72427 0.0
C1502 C 0.69036 0.37273 0.75566 0.0
C1503 C 0.66911 0.36802 0.76161 0.0
H1504 H 0.11067 0.75781 0.76826 0.0
H1505 H 0.16641 0.71588 0.76801 0.0
H1506 H 0.1876 0.74344 0.74986 0.0
H1507 H 0.19129 0.78011 0.7365 0.0
H1508 H 0.13645 0.82313 0.73747 0.0
H1509 H 0.11392 0.79442 0.75265 0.0
C1510 C 0.12736 0.75463 0.76397 0.0
C1511 C 0.13695 0.73483 0.76966 0.0
C1512 C 0.13969 0.77079 0.75378 0.0
C1513 C 0.15865 0.73102 0.76404 0.0
C1514 C 0.17082 0.74678 0.75364 0.0
C1515 C 0.17436 0.78325 0.73984 0.0
C1516 C 0.16566 0.80385 0.73598 0.0
C1517 C 0.16165 0.76685 0.74884 0.0
C1518 C 0.14362 0.80746 0.74031 0.0
C1519 C 0.13073 0.79106 0.74907 0.0
H1520 H 0.66295 0.59565 0.21481 0.0
H1521 H 0.62442 0.62578 0.26425 0.0
H1522 H 0.64844 0.61154 0.29197 0.0
H1523 H 0.68609 0.60101 0.30033 0.0
H1524 H 0.72507 0.57157 0.25097 0.0
H1525 H 0.69522 0.57478 0.22505 0.0
C1526 C 0.65919 0.59812 0.23172 0.0
C1527 C 0.64249 0.61243 0.23744 0.0
C1528 C 0.67361 0.59058 0.24754 0.0
C1529 C 0.6374 0.61511 0.25936 0.0
C1530 C 0.6514 0.60727 0.27527 0.0
C1531 C 0.68758 0.59436 0.28417 0.0
C1532 C 0.70766 0.58636 0.27733 0.0
C1533 C 0.67048 0.5966 0.26934 0.0
C1534 C 0.70965 0.57776 0.25647 0.0
C1535 C 0.69266 0.5798 0.24161 0.0
H1536 H 0.88729 0.16636 0.76973 0.0
H1537 H 0.91472 0.20668 0.72059 0.0
H1538 H 0.90855 0.17829 0.69362 0.0
H1539 H 0.88503 0.14775 0.68316 0.0
H1540 H 0.85623 0.10834 0.73244 0.0
H1541 H 0.87428 0.1298 0.76028 0.0
C1542 C 0.89294 0.1684 0.75333 0.0
C1543 C 0.90107 0.18856 0.74694 0.0
C1544 C 0.88876 0.15223 0.73788 0.0
C1545 C 0.90843 0.19122 0.72577 0.0
C1546 C 0.90463 0.17507 0.71031 0.0
C1547 C 0.88359 0.1432 0.69995 0.0
C1548 C 0.86851 0.12717 0.70577 0.0
C1549 C 0.89327 0.15627 0.71594 0.0
C1550 C 0.86732 0.12094 0.7275 0.0
C1551 C 0.8774 0.13346 0.74351 0.0
H1552 H 0.32597 0.30973 0.23846 0.0
H1553 H 0.29462 0.24744 0.2322 0.0
H1554 H 0.26051 0.26293 0.24341 0.0
H1555 H 0.23979 0.29323 0.25724 0.0
H1556 H 0.26978 0.35593 0.26385 0.0
H1557 H 0.30389 0.34133 0.24998 0.0
C1558 C 0.31164 0.29961 0.2394 0.0
C1559 C 0.31311 0.27734 0.23469 0.0
C1560 C 0.29172 0.30867 0.24595 0.0
C1561 C 0.29423 0.26456 0.23588 0.0
C1562 C 0.27458 0.27339 0.2423 0.0
C1563 C 0.25371 0.30381 0.25548 0.0
C1564 C 0.25224 0.3256 0.26175 0.0
C1565 C 0.2732 0.2953 0.24771 0.0
C1566 C 0.27042 0.33909 0.25911 0.0
C1567 C 0.28999 0.33069 0.2513 0.0
H1568 H 0.26771 0.12759 0.14187 0.0
H1569 H 0.1992 0.12871 0.12869 0.0
H1570 H 0.19226 0.10787 0.16136 0.0
H1571 H 0.2051 0.09869 0.19764 0.0
H1572 H 0.27349 0.10126 0.21219 0.0
H1573 H 0.28127 0.11022 0.17479 0.0
C1574 C 0.2514 0.12229 0.14569 0.0
C1575 C 0.23396 0.12948 0.1331 0.0
C1576 C 0.24755 0.11122 0.16496 0.0
C1577 C 0.21282 0.12304 0.13818 0.0
C1578 C 0.20887 0.11136 0.15697 0.0
C1579 C 0.22177 0.10022 0.19241 0.0
C1580 C 0.23867 0.09992 0.20776 0.0
C1581 C 0.226 0.10664 0.17116 0.0
C1582 C 0.26019 0.10178 0.20072 0.0
C1583 C 0.26463 0.10715 0.17937 0.0
H1584 H 0.35022 0.77705 0.63148 0.0
H1585 H 0.35205 0.70964 0.61441 0.0
H1586 H 0.37175 0.70172 0.64776 0.0
H1587 H 0.37715 0.71266 0.68576 0.0
H1588 H 0.37225 0.77994 0.70336 0.0
H1589 H 0.36597 0.78941 0.66578 0.0
C1590 C 0.35609 0.76085 0.63454 0.0
C1591 C 0.34951 0.7439 0.62082 0.0
C1592 C 0.3664 0.75635 0.65421 0.0
C1593 C 0.35704 0.72294 0.62478 0.0
C1594 C 0.36796 0.71836 0.64407 0.0
C1595 C 0.37581 0.72949 0.68121 0.0
C1596 C 0.37448 0.74553 0.69735 0.0
C1597 C 0.37111 0.7347 0.65962 0.0
C1598 C 0.37289 0.76728 0.69123 0.0
C1599 C 0.3691 0.77269 0.66975 0.0
H1600 H 0.78841 0.85293 0.16502 0.0
H1601 H 0.73403 0.88709 0.19159 0.0
H1602 H 0.7148 0.88412 0.15701 0.0
H1603 H 0.71027 0.86319 0.12337 0.0
H1604 H 0.76458 0.82813 0.09747 0.0
H1605 H 0.78747 0.84115 0.12694 0.0
C1606 C 0.77273 0.86051 0.16288 0.0
C1607 C 0.76242 0.86993 0.18073 0.0
C1608 C 0.76173 0.85843 0.14308 0.0
C1609 C 0.74219 0.87978 0.17797 0.0
C1610 C 0.73115 0.87791 0.15826 0.0
C1611 C 0.72739 0.85925 0.1236 0.0
C1612 C 0.73544 0.84396 0.10875 0.0
C1613 C 0.74024 0.86604 0.14119 0.0
C1614 C 0.75777 0.8395 0.10889 0.0
C1615 C 0.77084 0.84666 0.12601 0.0
H1616 H 0.56554 0.2375 0.68028 0.0
H1617 H 0.59904 0.29276 0.65487 0.0
H1618 H 0.60623 0.27324 0.62138 0.0
H1619 H 0.61233 0.23788 0.60494 0.0
H1620 H 0.58291 0.18137 0.63256 0.0
H1621 H 0.56388 0.20383 0.65873 0.0
C1622 C 0.57345 0.24551 0.66695 0.0
C1623 C 0.58191 0.26639 0.66994 0.0
C1624 C 0.57857 0.23372 0.64817 0.0
C1625 C 0.59245 0.27663 0.65279 0.0
C1626 C 0.59671 0.2654 0.63372 0.0
C1627 C 0.60084 0.23058 0.61591 0.0
C1628 C 0.5995 0.20798 0.61724 0.0
C1629 C 0.59123 0.24348 0.63191 0.0
C1630 C 0.58445 0.19876 0.63146 0.0
C1631 C 0.57384 0.21159 0.64669 0.0
H1632 H 0.26409 0.86512 0.77945 0.0
H1633 H 0.19634 0.88137 0.78363 0.0
H1634 H 0.19646 0.87257 0.82184 0.0
H1635 H 0.21284 0.84951 0.84981 0.0
H1636 H 0.27991 0.8316 0.84483 0.0
H1637 H 0.2833 0.85225 0.81163 0.0
C1638 C 0.24959 0.86764 0.78894 0.0
C1639 C 0.23004 0.873 0.77852 0.0
C1640 C 0.24959 0.86183 0.8108 0.0
C1641 C 0.21154 0.87679 0.79111 0.0
C1642 C 0.21152 0.87153 0.81299 0.0
C1643 C 0.22848 0.85129 0.84212 0.0
C1644 C 0.24608 0.83908 0.84956 0.0
C1645 C 0.22999 0.86242 0.82249 0.0
C1646 C 0.26622 0.84108 0.83939 0.0
C1647 C 0.26805 0.8526 0.8202 0.0
H1648 H 0.62648 0.70616 0.27911 0.0
H1649 H 0.68169 0.72193 0.23974 0.0
H1650 H 0.69919 0.73973 0.27039 0.0
H1651 H 0.70052 0.74775 0.30887 0.0
H1652 H 0.64635 0.73121 0.34926 0.0
H1653 H 0.62669 0.71699 0.31772 0.0
C1654 C 0.64214 0.71388 0.27717 0.0
C1655 C 0.65281 0.7126 0.25717 0.0
C1656 C 0.65243 0.72372 0.2951 0.0
C1657 C 0.67319 0.72253 0.25497 0.0
C1658 C 0.68325 0.73268 0.27251 0.0
C1659 C 0.68434 0.74118 0.31084 0.0
C1660 C 0.67506 0.74031 0.33149 0.0
C1661 C 0.67331 0.73283 0.29276 0.0
C1662 C 0.65395 0.73201 0.33358 0.0
C1663 C 0.64272 0.72381 0.31555 0.0
H1664 H 0.77435 0.12444 0.75297 0.0
H1665 H 0.76235 0.1769 0.70904 0.0
H1666 H 0.7452 0.19756 0.73769 0.0
H1667 H 0.73613 0.2021 0.77546 0.0
H1668 H 0.74886 0.15093 0.82062 0.0
H1669 H 0.763 0.12837 0.79127 0.0
C1670 C 0.76765 0.14024 0.74965 0.0
C1671 C 0.76974 0.14915 0.72889 0.0
C1672 C 0.75813 0.15236 0.76645 0.0
C1673 C 0.76113 0.16972 0.72487 0.0
C1674 C 0.75132 0.18158 0.74126 0.0
C1675 C 0.74186 0.18596 0.77899 0.0
C1676 C 0.7416 0.17834 0.80032 0.0
C1677 C 0.75017 0.17328 0.76218 0.0
C1678 C 0.74891 0.15727 0.80439 0.0
C1679 C 0.75705 0.14437 0.7876 0.0
H1680 H 0.38797 0.25282 0.28916 0.0
H1681 H 0.38096 0.18446 0.27678 0.0
H1682 H 0.36972 0.17883 0.31389 0.0
H1683 H 0.35206 0.19479 0.34553 0.0
H1684 H 0.35704 0.26316 0.35742 0.0
H1685 H 0.37929 0.26735 0.32515 0.0
C1686 C 0.38486 0.23657 0.2948 0.0
C1687 C 0.38454 0.21919 0.28 0.0
C1688 C 0.37761 0.23353 0.31603 0.0
C1689 C 0.38082 0.1982 0.2877 0.0
C1690 C 0.37423 0.19497 0.30891 0.0
C1691 C 0.35903 0.21039 0.34162 0.0
C1692 C 0.35295 0.22866 0.35361 0.0
C1693 C 0.37106 0.21271 0.32266 0.0
C1694 C 0.36175 0.24887 0.34845 0.0
C1695 C 0.37418 0.25129 0.32981 0.0
H1696 H 0.16875 0.18968 0.08287 0.0
H1697 H 0.20758 0.24342 0.06214 0.0
H1698 H 0.17644 0.26742 0.06523 0.0
H1699 H 0.14301 0.27437 0.08513 0.0
H1700 H 0.10568 0.22108 0.10958 0.0
H1701 H 0.13054 0.19558 0.0928 0.0
C1702 C 0.16994 0.20639 0.07782 0.0
C1703 C 0.19029 0.2149 0.07234 0.0
C1704 C 0.15222 0.22027 0.0808 0.0
C1705 C 0.19196 0.23658 0.06621 0.0
C1706 C 0.17421 0.25035 0.06828 0.0
C1707 C 0.13969 0.25716 0.08577 0.0
C1708 C 0.12306 0.24959 0.09921 0.0
C1709 C 0.15485 0.24265 0.07723 0.0
C1710 C 0.11857 0.22734 0.09959 0.0
C1711 C 0.13307 0.21271 0.09031 0.0
H1712 H 0.15469 0.7805 0.8826 0.0
H1713 H 0.19309 0.73129 0.91295 0.0
H1714 H 0.16349 0.70529 0.90835 0.0
H1715 H 0.13248 0.69476 0.88537 0.0
H1716 H 0.09492 0.74404 0.85376 0.0
H1717 H 0.11762 0.77193 0.87014 0.0
C1718 C 0.15604 0.7644 0.88926 0.0
C1719 C 0.17602 0.7576 0.89773 0.0
C1720 C 0.1392 0.74943 0.88594 0.0
C1721 C 0.17778 0.73681 0.90638 0.0
C1722 C 0.16095 0.72186 0.90346 0.0
C1723 C 0.1286 0.71165 0.88293 0.0
C1724 C 0.11272 0.71727 0.86755 0.0
C1725 C 0.14234 0.72762 0.89171 0.0
C1726 C 0.10739 0.73918 0.86509 0.0
C1727 C 0.12061 0.75521 0.87423 0.0
H1728 H 0.77507 0.70266 0.39758 0.0
H1729 H 0.70672 0.68928 0.40278 0.0
H1730 H 0.71273 0.65198 0.39143 0.0
H1731 H 0.73556 0.62773 0.36945 0.0
H1732 H 0.80293 0.64331 0.36058 0.0
H1733 H 0.79946 0.67476 0.38423 0.0
C1734 C 0.76163 0.6913 0.39712 0.0
C1735 C 0.74043 0.69887 0.40024 0.0
C1736 C 0.76506 0.67028 0.3894 0.0
C1737 C 0.72319 0.68395 0.40012 0.0
C1738 C 0.72659 0.66265 0.39332 0.0
C1739 C 0.74965 0.63742 0.37369 0.0
C1740 C 0.76944 0.63343 0.36337 0.0
C1741 C 0.74717 0.65621 0.38629 0.0
C1742 C 0.7876 0.64618 0.36851 0.0
C1743 C 0.78554 0.66428 0.38182 0.0
H1744 H 0.79287 0.21871 0.86858 0.0
H1745 H 0.7766 0.28573 0.85967 0.0
H1746 H 0.81405 0.29389 0.85044 0.0
H1747 H 0.84737 0.27982 0.83438 0.0
H1748 H 0.8628 0.21244 0.84012 0.0
H1749 H 0.8302 0.20656 0.86159 0.0
C1750 C 0.79775 0.23527 0.86562 0.0
C1751 C 0.78188 0.2515 0.86423 0.0
C1752 C 0.81918 0.23965 0.85928 0.0
C1753 C 0.78846 0.2729 0.86047 0.0
C1754 C 0.80986 0.27754 0.855 0.0
C1755 C 0.84419 0.26414 0.84145 0.0
C1756 C 0.85729 0.24657 0.83571 0.0
C1757 C 0.82487 0.26076 0.85277 0.0
C1758 C 0.85301 0.22623 0.84458 0.0
C1759 C 0.83413 0.22281 0.85652 0.0
H1760 H 0.2862 0.31041 0.3812 0.0
H1761 H 0.23757 0.26902 0.40859 0.0
H1762 H 0.20954 0.29548 0.40011 0.0
H1763 H 0.19868 0.32397 0.37481 0.0
H1764 H 0.2475 0.36471 0.34657 0.0
H1765 H 0.27565 0.34577 0.36646 0.0
C1766 C 0.26962 0.30779 0.38632 0.0
C1767 C 0.26374 0.2878 0.39511 0.0
C1768 C 0.25359 0.32287 0.38094 0.0
C1769 C 0.24234 0.28438 0.40179 0.0
C1770 C 0.22629 0.2994 0.39669 0.0
C1771 C 0.21537 0.32945 0.37395 0.0
C1772 C 0.22112 0.34502 0.35856 0.0
C1773 C 0.23158 0.31786 0.38477 0.0
C1774 C 0.24266 0.35245 0.35797 0.0
C1775 C 0.25888 0.34134 0.36909 0.0
H1776 H 0.7819 0.75233 0.10135 0.0
H1777 H 0.73588 0.74793 0.15331 0.0
H1778 H 0.76352 0.73258 0.17668 0.0
H1779 H 0.801 0.72289 0.18339 0.0
H1780 H 0.84823 0.72819 0.13268 0.0
H1781 H 0.81986 0.74045 0.10776 0.0
C1782 C 0.7779 0.74771 0.11769 0.0
C1783 C 0.75684 0.7514 0.12559 0.0
C1784 C 0.7941 0.73919 0.13132 0.0
C1785 C 0.75196 0.74546 0.14685 0.0
C1786 C 0.76776 0.73666 0.16026 0.0
C1787 C 0.80519 0.72656 0.16685 0.0
C1788 C 0.82681 0.72477 0.16002 0.0
C1789 C 0.78895 0.73388 0.15282 0.0
C1790 C 0.83175 0.72945 0.13843 0.0
C1791 C 0.81552 0.73654 0.12419 0.0
H1792 H 0.73506 0.28239 0.68401 0.0
H1793 H 0.72234 0.32736 0.63267 0.0
H1794 H 0.70645 0.29808 0.61077 0.0
H1795 H 0.6939 0.25989 0.6074 0.0
H1796 H 0.70622 0.21621 0.66003 0.0
H1797 H 0.72459 0.24479 0.68009 0.0
C1798 C 0.72894 0.2859 0.66798 0.0
C1799 C 0.72975 0.30715 0.66012 0.0
C1800 C 0.71965 0.26915 0.65569 0.0
C1801 C 0.7219 0.31118 0.63918 0.0
C1802 C 0.71275 0.29444 0.62667 0.0
C1803 C 0.70087 0.25661 0.62313 0.0
C1804 C 0.69853 0.23592 0.63223 0.0
C1805 C 0.71122 0.27338 0.6349 0.0
C1806 C 0.70757 0.23198 0.65269 0.0
C1807 C 0.71811 0.24833 0.66422 0.0
H1808 H 0.22825 0.62188 0.61429 0.0
H1809 H 0.17433 0.65711 0.5878 0.0
H1810 H 0.19917 0.68029 0.56797 0.0
H1811 H 0.23544 0.69715 0.56807 0.0
H1812 H 0.28849 0.66464 0.59925 0.0
H1813 H 0.26517 0.63377 0.60698 0.0
C1814 C 0.22189 0.63392 0.60334 0.0
C1815 C 0.19954 0.63821 0.60302 0.0
C1816 C 0.23632 0.6482 0.59331 0.0
C1817 C 0.19153 0.65375 0.5886 0.0
C1818 C 0.20576 0.66723 0.57749 0.0
C1819 C 0.24204 0.68282 0.5756 0.0
C1820 C 0.26348 0.68308 0.58327 0.0
C1821 C 0.22815 0.66571 0.58119 0.0
C1822 C 0.27194 0.66467 0.5933 0.0
C1823 C 0.25856 0.64712 0.59787 0.0
H1824 H 0.85819 0.83464 0.67644 0.0
H1825 H 0.8693 0.85374 0.74237 0.0
H1826 H 0.8907 0.82125 0.74847 0.0
H1827 H 0.89439 0.78287 0.73831 0.0
H1828 H 0.87945 0.76276 0.67315 0.0
H1829 H 0.87208 0.80003 0.66324 0.0
C1830 C 0.86655 0.83235 0.6917 0.0
C1831 C 0.86185 0.84624 0.70905 0.0
C1832 C 0.87745 0.81284 0.69542 0.0
C1833 C 0.87269 0.84323 0.72877 0.0
C1834 C 0.8845 0.82432 0.73239 0.0
C1835 C 0.89054 0.78677 0.7217 0.0
C1836 C 0.88676 0.76999 0.70666 0.0
C1837 C 0.88525 0.80819 0.71637 0.0
C1838 C 0.88198 0.77534 0.68515 0.0
C1839 C 0.87761 0.79667 0.6795 0.0
H1840 H 0.60856 0.34334 0.24667 0.0
H1841 H 0.63098 0.36444 0.18471 0.0
H1842 H 0.65793 0.38775 0.20201 0.0
H1843 H 0.68269 0.39037 0.23319 0.0
H1844 H 0.66262 0.36552 0.29453 0.0
H1845 H 0.62719 0.35596 0.27952 0.0
C1846 C 0.61839 0.35414 0.23705 0.0
C1847 C 0.61827 0.35179 0.2145 0.0
C1848 C 0.63495 0.36626 0.24715 0.0
C1849 C 0.631 0.36585 0.20214 0.0
C1850 C 0.64675 0.37887 0.21205 0.0
C1851 C 0.67002 0.38414 0.24352 0.0
C1852 C 0.67516 0.37848 0.26481 0.0
C1853 C 0.65014 0.37754 0.23438 0.0
C1854 C 0.65887 0.37008 0.27808 0.0
C1855 C 0.63871 0.3643 0.26938 0.0
H1856 H 0.16065 0.12452 0.73249 0.0
H1857 H 0.22528 0.1348 0.75768 0.0
H1858 H 0.21462 0.16961 0.77243 0.0
H1859 H 0.18754 0.19746 0.77768 0.0
H1860 H 0.12273 0.18842 0.75257 0.0
H1861 H 0.13294 0.153 0.73811 0.0
C1862 C 0.17229 0.13433 0.74137 0.0
C1863 C 0.19373 0.12705 0.74394 0.0
C1864 C 0.16614 0.15469 0.74959 0.0
C1865 C 0.20871 0.14004 0.75533 0.0
C1866 C 0.20265 0.16 0.76378 0.0
C1867 C 0.1756 0.18788 0.76892 0.0
C1868 C 0.15443 0.19573 0.7661 0.0
C1869 C 0.18152 0.16758 0.76081 0.0
C1870 C 0.1392 0.18288 0.75486 0.0
C1871 C 0.14501 0.16256 0.74666 0.0
H1872 H 0.35298 0.61756 0.24999 0.0
H1873 H 0.34675 0.62198 0.18102 0.0
H1874 H 0.31483 0.59858 0.18167 0.0
H1875 H 0.28364 0.58627 0.20304 0.0
H1876 H 0.28971 0.58223 0.27221 0.0
H1877 H 0.32692 0.59546 0.27034 0.0
C1878 C 0.3454 0.61226 0.23502 0.0
C1879 C 0.35208 0.62144 0.2155 0.0
C1880 C 0.32659 0.5994 0.23566 0.0
C1881 C 0.342 0.61484 0.19619 0.0
C1882 C 0.32347 0.6018 0.19662 0.0
C1883 C 0.29343 0.58745 0.2176 0.0
C1884 C 0.28377 0.58386 0.23776 0.0
C1885 C 0.31477 0.59537 0.21643 0.0
C1886 C 0.29669 0.58509 0.25649 0.0
C1887 C 0.31795 0.59286 0.25546 0.0
H1888 H 0.85353 0.12797 0.20981 0.0
H1889 H 0.83743 0.13896 0.27639 0.0
H1890 H 0.86268 0.16935 0.27822 0.0
H1891 H 0.87889 0.19869 0.25761 0.0
H1892 H 0.89144 0.18991 0.18984 0.0
H1893 H 0.87924 0.1525 0.19184 0.0
C1894 C 0.85657 0.1363 0.22498 0.0
C1895 C 0.84371 0.13149 0.24292 0.0
C1896 C 0.87019 0.15454 0.22549 0.0
C1897 C 0.84733 0.14246 0.26247 0.0
C1898 C 0.86156 0.16 0.26341 0.0
C1899 C 0.87995 0.18824 0.24354 0.0
C1900 C 0.88512 0.19724 0.22345 0.0
C1901 C 0.87162 0.16719 0.24454 0.0
C1902 C 0.88708 0.18349 0.20544 0.0
C1903 C 0.87974 0.16213 0.20649 0.0
H1904 H 0.27523 0.40445 0.73361 0.0
H1905 H 0.31287 0.38105 0.68023 0.0
H1906 H 0.34321 0.37343 0.70439 0.0
H1907 H 0.35323 0.36259 0.74087 0.0
H1908 H 0.31328 0.38159 0.7945 0.0
H1909 H 0.29036 0.40263 0.77044 0.0
C1910 C 0.29056 0.39889 0.7272 0.0
C1911 C 0.2919 0.39318 0.7053 0.0
C1912 C 0.30738 0.39318 0.74146 0.0
C1913 C 0.31162 0.38562 0.69708 0.0
C1914 C 0.32884 0.38097 0.71096 0.0
C1915 C 0.34013 0.37213 0.7475 0.0
C1916 C 0.33438 0.3697 0.76929 0.0
C1917 C 0.32616 0.38302 0.73332 0.0
C1918 C 0.3177 0.38266 0.77766 0.0
C1919 C 0.30438 0.39451 0.76383 0.0
H1920 H 0.11255 0.8449 0.28219 0.0
H1921 H 0.10848 0.86247 0.21528 0.0
H1922 H 0.08808 0.82935 0.20724 0.0
H1923 H 0.0804 0.79177 0.2179 0.0
H1924 H 0.08648 0.77391 0.28483 0.0
H1925 H 0.09636 0.81089 0.29434 0.0
C1926 C 0.10617 0.84197 0.26608 0.0
C1927 C 0.11197 0.85598 0.24933 0.0
C1928 C 0.09524 0.82252 0.26151 0.0
C1929 C 0.10393 0.85201 0.22845 0.0
C1930 C 0.0926 0.83286 0.22381 0.0
C1931 C 0.08306 0.79612 0.23468 0.0
C1932 C 0.08335 0.77988 0.25053 0.0
C1933 C 0.08945 0.81738 0.23998 0.0
C1934 C 0.08658 0.78593 0.27223 0.0
C1935 C 0.09237 0.8071 0.27769 0.0
H1936 H 0.68068 0.57651 0.76491 0.0
H1937 H 0.67366 0.56545 0.6964 0.0
H1938 H 0.63638 0.57791 0.69774 0.0
H1939 H 0.61029 0.60138 0.71638 0.0
H1940 H 0.61719 0.61296 0.78457 0.0
H1941 H 0.64956 0.59036 0.78554 0.0
C1942 C 0.67074 0.57603 0.75042 0.0
C1943 C 0.68026 0.57082 0.73046 0.0
C1944 C 0.64929 0.58361 0.75121 0.0
C1945 C 0.66698 0.5698 0.71194 0.0
C1946 C 0.64561 0.57709 0.71263 0.0
C1947 C 0.61817 0.59785 0.73164 0.0
C1948 C 0.61154 0.60884 0.75034 0.0
C1949 C 0.63717 0.58542 0.73188 0.0
C1950 C 0.62192 0.60446 0.77002 0.0
C1951 C 0.64069 0.59185 0.77048 0.0
H1952 H 0.75191 0.84186 0.8451 0.0
H1953 H 0.69571 0.87532 0.82109 0.0
H1954 H 0.71799 0.89382 0.79453 0.0
H1955 H 0.75053 0.89142 0.77162 0.0
H1956 H 0.80487 0.85368 0.79312 0.0
H1957 H 0.7866 0.8461 0.82705 0.0
C1958 C 0.7447 0.854 0.83479 0.0
C1959 C 0.72209 0.85674 0.83465 0.0
C1960 C 0.75731 0.8633 0.8185 0.0
C1961 C 0.71306 0.87268 0.82129 0.0
C1962 C 0.72575 0.88301 0.80584 0.0
C1963 C 0.75867 0.8824 0.78421 0.0
C1964 C 0.77889 0.87301 0.78001 0.0
C1965 C 0.7475 0.87709 0.8032 0.0
C1966 C 0.78926 0.86101 0.79615 0.0
C1967 C 0.77874 0.85657 0.81547 0.0
H1968 H 0.65833 0.24194 0.24049 0.0
H1969 H 0.59901 0.25906 0.27258 0.0
H1970 H 0.6129 0.24364 0.3063 0.0
H1971 H 0.64354 0.228 0.32736 0.0
H1972 H 0.70256 0.21161 0.29403 0.0
H1973 H 0.6871 0.22396 0.26025 0.0
C1974 C 0.6483 0.24216 0.25479 0.0
C1975 C 0.62775 0.25186 0.25404 0.0
C1976 C 0.65644 0.2335 0.27403 0.0
C1977 C 0.61489 0.2517 0.27269 0.0
C1978 C 0.6229 0.24299 0.29201 0.0
C1979 C 0.65288 0.22689 0.31265 0.0
C1980 C 0.67433 0.21911 0.31341 0.0
C1981 C 0.64389 0.23424 0.29301 0.0
C1982 C 0.68615 0.21776 0.29411 0.0
C1983 C 0.67732 0.22481 0.27469 0.0
H1984 H 0.28308 0.04975 0.76225 0.0
H1985 H 0.21585 0.04321 0.77976 0.0
H1986 H 0.22462 0.0532 0.81684 0.0
H1987 H 0.24873 0.07571 0.83955 0.0
H1988 H 0.31487 0.08565 0.82041 0.0
H1989 H 0.30957 0.06179 0.78938 0.0
C1990 C 0.27047 0.04959 0.77437 0.0
C1991 C 0.2487 0.04682 0.76799 0.0
C1992 C 0.27548 0.0564 0.79549 0.0
C1993 C 0.23269 0.04593 0.78403 0.0
C1994 C 0.23767 0.05187 0.80529 0.0
C1995 C 0.26231 0.07147 0.82935 0.0
C1996 C 0.28203 0.08263 0.83195 0.0
C1997 C 0.25864 0.05895 0.81065 0.0
C1998 C 0.29953 0.07723 0.81863 0.0
C1999 C 0.29636 0.06391 0.80061 0.0
H2000 H 0.33665 0.7365 0.33208 0.0
H2001 H 0.32135 0.79189 0.29316 0.0
H2002 H 0.34714 0.78014 0.26592 0.0
H2003 H 0.36647 0.74995 0.2496 0.0
H2004 H 0.37977 0.69297 0.28674 0.0
H2005 H 0.36287 0.70957 0.31843 0.0
C2006 C 0.3397 0.74641 0.31806 0.0
C2007 C 0.32698 0.76485 0.31439 0.0
C2008 C 0.35386 0.73899 0.30195 0.0
C2009 C 0.33087 0.77753 0.29614 0.0
C2010 C 0.34548 0.77074 0.2805 0.0
C2011 C 0.36635 0.74152 0.26489 0.0
C2012 C 0.37392 0.72022 0.26586 0.0
C2013 C 0.35595 0.75084 0.28264 0.0
C2014 C 0.37397 0.70942 0.28569 0.0
C2015 C 0.36408 0.71882 0.30371 0.0
H2016 H 0.70801 0.09483 0.11614 0.0
H2017 H 0.75943 0.1317 0.08709 0.0
H2018 H 0.7848 0.11889 0.11428 0.0
H2019 H 0.78874 0.10713 0.15203 0.0
H2020 H 0.73724 0.07121 0.18179 0.0
H2021 H 0.71558 0.07353 0.14868 0.0
C2022 C 0.72501 0.0992 0.11513 0.0
C2023 C 0.73157 0.11498 0.10023 0.0
C2024 C 0.73934 0.09251 0.13145 0.0
C2025 C 0.75376 0.11997 0.09867 0.0
C2026 C 0.76827 0.11293 0.11449 0.0
C2027 C 0.77318 0.09898 0.15084 0.0
C2028 C 0.76434 0.08933 0.16925 0.0
C2029 C 0.76073 0.10074 0.13191 0.0
C2030 C 0.74427 0.07872 0.16772 0.0
C2031 C 0.73182 0.08024 0.14886 0.0
H2032 H 0.33617 0.27464 0.71128 0.0
H2033 H 0.27984 0.27467 0.75228 0.0
H2034 H 0.25813 0.25888 0.72331 0.0
H2035 H 0.25458 0.24626 0.68617 0.0
H2036 H 0.31026 0.24662 0.64439 0.0
H2037 H 0.33273 0.26092 0.67388 0.0
C2038 C 0.31918 0.27107 0.71391 0.0
C2039 C 0.30969 0.27595 0.73395 0.0
C2040 C 0.30662 0.26209 0.69704 0.0
C2041 C 0.28761 0.27122 0.73703 0.0
C2042 C 0.27513 0.26216 0.72046 0.0
C2043 C 0.27166 0.24934 0.68346 0.0
C2044 C 0.28066 0.2454 0.66303 0.0
C2045 C 0.2844 0.25772 0.70037 0.0
C2046 C 0.30286 0.2495 0.65993 0.0
C2047 C 0.31572 0.25772 0.67679 0.0
H2048 H 0.18147 0.89211 0.17261 0.0
H2049 H 0.2282 0.9151 0.21928 0.0
H2050 H 0.25762 0.90757 0.19414 0.0
H2051 H 0.26958 0.88449 0.16398 0.0
H2052 H 0.22257 0.86104 0.1176 0.0
H2053 H 0.19381 0.87961 0.13689 0.0
C2054 C 0.19801 0.89655 0.17675 0.0
C2055 C 0.20281 0.90386 0.19775 0.0
C2056 C 0.21483 0.8917 0.16237 0.0
C2057 C 0.2242 0.90954 0.20312 0.0
C2058 C 0.24105 0.90493 0.18884 0.0
C2059 C 0.25321 0.88435 0.1575 0.0
C2060 C 0.2481 0.87074 0.13988 0.0
C2061 C 0.23659 0.89454 0.1691 0.0
C2062 C 0.22694 0.87109 0.13134 0.0
C2063 C 0.21036 0.88147 0.14258 0.0
H2064 H 0.61066 0.71805 0.62649 0.0
H2065 H 0.59959 0.78065 0.6548 0.0
H2066 H 0.57644 0.76462 0.68211 0.0
H2067 H 0.57043 0.73223 0.70405 0.0
H2068 H 0.58343 0.66943 0.67716 0.0
H2069 H 0.59442 0.68582 0.64314 0.0
C2070 C 0.60202 0.72828 0.63778 0.0
C2071 C 0.60708 0.75041 0.63894 0.0
C2072 C 0.58974 0.71871 0.65425 0.0
C2073 C 0.59595 0.76354 0.65371 0.0
C2074 C 0.58305 0.7543 0.66961 0.0
C2075 C 0.5745 0.72216 0.69029 0.0
C2076 C 0.57627 0.69976 0.69298 0.0
C2077 C 0.58142 0.73178 0.67106 0.0
C2078 C 0.58182 0.68674 0.67528 0.0
C2079 C 0.58838 0.69615 0.65592 0.0
H2080 H 0.79462 0.73444 0.7571 0.0
H2081 H 0.83993 0.73998 0.81017 0.0
H2082 H 0.8109 0.75319 0.83354 0.0
H2083 H 0.77273 0.76463 0.83833 0.0
H2084 H 0.72841 0.75962 0.78434 0.0
H2085 H 0.75698 0.74458 0.76201 0.0
C2086 C 0.79825 0.73845 0.7738 0.0
C2087 C 0.81951 0.7363 0.7818 0.0
C2088 C 0.78159 0.74613 0.78702 0.0
C2089 C 0.82375 0.74153 0.80354 0.0
C2090 C 0.80713 0.74908 0.81691 0.0
C2091 C 0.7693 0.75999 0.82176 0.0
C2092 C 0.74844 0.7633 0.81303 0.0
C2093 C 0.786 0.75162 0.80877 0.0
C2094 C 0.74431 0.75738 0.79146 0.0
C2095 C 0.76065 0.74878 0.77864 0.0
H2096 H 0.79324 0.24028 0.17847 0.0
H2097 H 0.83942 0.23731 0.1266 0.0
H2098 H 0.81104 0.22358 0.10218 0.0
H2099 H 0.77347 0.20984 0.09645 0.0
H2100 H 0.72852 0.21211 0.14949 0.0
H2101 H 0.75604 0.22879 0.17245 0.0
C2102 C 0.79719 0.23678 0.16179 0.0
C2103 C 0.81854 0.23967 0.15448 0.0
C2104 C 0.78095 0.22867 0.14802 0.0
C2105 C 0.82316 0.23521 0.13272 0.0
C2106 C 0.80693 0.22729 0.11876 0.0
C2107 C 0.76965 0.2143 0.11294 0.0
C2108 C 0.74896 0.20961 0.12125 0.0
C2109 C 0.78581 0.2236 0.12633 0.0
C2110 C 0.74432 0.21535 0.1427 0.0
C2111 C 0.76007 0.2249 0.15588 0.0
H2112 H 0.19279 0.34992 0.62027 0.0
H2113 H 0.25924 0.36113 0.60315 0.0
H2114 H 0.25938 0.32816 0.58143 0.0
H2115 H 0.24484 0.29125 0.57914 0.0
H2116 H 0.17958 0.27855 0.60023 0.0
H2117 H 0.17442 0.3168 0.60789 0.0
C2118 C 0.20679 0.34587 0.61056 0.0
C2119 C 0.2261 0.35761 0.61361 0.0
C2120 C 0.20719 0.32595 0.59954 0.0
C2121 C 0.24419 0.35226 0.60107 0.0
C2122 C 0.24441 0.33308 0.58905 0.0
C2123 C 0.22915 0.29695 0.58447 0.0
C2124 C 0.21294 0.28193 0.58999 0.0
C2125 C 0.22666 0.31889 0.58992 0.0
C2126 C 0.19256 0.28968 0.59644 0.0
C2127 C 0.18964 0.3116 0.60099 0.0
H2128 H 0.22965 0.76606 0.18022 0.0
H2129 H 0.20105 0.77626 0.11748 0.0
H2130 H 0.16698 0.76028 0.12975 0.0
H2131 H 0.14449 0.74574 0.15937 0.0
H2132 H 0.17413 0.73584 0.22184 0.0
H2133 H 0.20844 0.7493 0.20855 0.0
C2134 C 0.21604 0.76464 0.16913 0.0
C2135 C 0.21787 0.77253 0.14804 0.0
C2136 C 0.19654 0.7556 0.17631 0.0
C2137 C 0.20011 0.77032 0.13383 0.0
C2138 C 0.18057 0.76127 0.14088 0.0
C2139 C 0.1585 0.74637 0.16999 0.0
C2140 C 0.15653 0.73997 0.19166 0.0
C2141 C 0.17845 0.75423 0.16224 0.0
C2142 C 0.17497 0.74079 0.20515 0.0
C2143 C 0.1947 0.7485 0.19758 0.0
H2144 H 0.71682 0.62617 0.64591 0.0
H2145 H 0.74934 0.65579 0.70052 0.0
H2146 H 0.74129 0.69143 0.68668 0.0
H2147 H 0.7218 0.71425 0.66157 0.0
H2148 H 0.68825 0.68602 0.60705 0.0
H2149 H 0.70023 0.64995 0.61804 0.0
C2150 C 0.72241 0.64045 0.65454 0.0
C2151 C 0.73334 0.63826 0.67444 0.0
C2152 C 0.71745 0.66119 0.64658 0.0
C2153 C 0.74055 0.65694 0.68539 0.0
C2154 C 0.736 0.6774 0.67748 0.0
C2155 C 0.71734 0.70025 0.65188 0.0
C2156 C 0.70394 0.70278 0.6337 0.0
C2157 C 0.72393 0.6797 0.65849 0.0
C2158 C 0.69857 0.68451 0.62115 0.0
C2159 C 0.70528 0.66386 0.62753 0.0
H2160 H 0.14256 0.19814 0.83076 0.0
H2161 H 0.16519 0.24404 0.87844 0.0
H2162 H 0.19229 0.21817 0.89097 0.0
H2163 H 0.21532 0.18699 0.88157 0.0
H2164 H 0.19631 0.14525 0.82882 0.0
H2165 H 0.16226 0.16482 0.82485 0.0
C2166 C 0.15271 0.20214 0.84459 0.0
C2167 C 0.15197 0.22305 0.85357 0.0
C2168 C 0.16954 0.18807 0.85019 0.0
C2169 C 0.16542 0.22802 0.87131 0.0
C2170 C 0.18119 0.21336 0.87818 0.0
C2171 C 0.20331 0.1818 0.86975 0.0
C2172 C 0.20819 0.16481 0.85545 0.0
C2173 C 0.18436 0.194 0.86671 0.0
C2174 C 0.19282 0.15836 0.83991 0.0
C2175 C 0.17339 0.16956 0.83764 0.0
H2176 H 0.21296 0.71336 0.32533 0.0
H2177 H 0.26865 0.69267 0.36181 0.0
H2178 H 0.26263 0.65534 0.34954 0.0
H2179 H 0.24567 0.63037 0.32251 0.0
H2180 H 0.19202 0.65314 0.28412 0.0
H2181 H 0.19291 0.6877 0.30307 0.0
C2182 C 0.22339 0.70054 0.33113 0.0
C2183 C 0.24134 0.70572 0.3442 0.0
C2184 C 0.2204 0.67951 0.32325 0.0
C2185 C 0.25466 0.68903 0.35178 0.0
C2186 C 0.25139 0.66774 0.3445 0.0
C2187 C 0.23387 0.64275 0.3188 0.0
C2188 C 0.21897 0.63943 0.30181 0.0
C2189 C 0.23496 0.66301 0.32933 0.0
C2190 C 0.20379 0.65553 0.29697 0.0
C2191 C 0.20429 0.67528 0.30779 0.0
H2192 H 0.71525 0.3336 0.34544 0.0
H2193 H 0.78275 0.32479 0.33094 0.0
H2194 H 0.78494 0.29527 0.35683 0.0
H2195 H 0.76524 0.26656 0.37519 0.0
H2196 H 0.69663 0.27306 0.38634 0.0
H2197 H 0.69741 0.3093 0.37126 0.0
C2198 C 0.73062 0.32583 0.34882 0.0
C2199 C 0.74883 0.33117 0.3365 0.0
C2200 C 0.73141 0.30819 0.3629 0.0
C2201 C 0.76863 0.32091 0.34049 0.0
C2202 C 0.76979 0.30391 0.35511 0.0
C2203 C 0.7506 0.27621 0.37508 0.0
C2204 C 0.73075 0.26678 0.38103 0.0
C2205 C 0.75093 0.29652 0.36524 0.0
C2206 C 0.71206 0.27971 0.3814 0.0
C2207 C 0.71244 0.30039 0.37252 0.0
loop_
_geom_bond_atom_site_label_1
_geom_bond_atom_site_label_2
_geom_bond_distance
_geom_bond_site_symmetry_2
_ccdc_geom_bond_type
Zn0 O3 2.031 . S
Zn0 O5 2.049 . S
Zn0 O10 2.067 . S
Zn1 O2 1.962 . S
Zn1 O4 1.986 . S
Zn1 O6 1.996 . S
Zn1 O9 1.943 . S
O2 Zn1 1.962 . S
O2 C7 1.254 . S
O3 Zn0 2.031 . S
O3 C7 1.269 . S
O4 Zn1 1.986 . S
O4 C11 1.262 . S
O5 Zn0 2.049 . S
O5 C13 1.260 . S
O6 Zn1 1.996 . S
O6 C13 1.257 . S
C7 O2 1.254 . S
C7 O3 1.269 . S
C8 O9 1.249 . S
C8 O10 1.270 . S
O9 Zn1 1.943 . S
O9 C8 1.249 . S
O10 Zn0 2.067 . S
O10 C8 1.270 . S
C11 O4 1.262 . S
C11 O12 1.232 . S
O12 C11 1.232 . S
C13 O5 1.260 . S
C13 O6 1.257 . S
Zn14 O17 2.031 . S
Zn14 O19 2.049 . S
Zn14 O24 2.067 . S
Zn15 O16 1.962 . S
Zn15 O18 1.986 . S
Zn15 O20 1.996 . S
Zn15 O23 1.943 . S
O16 Zn15 1.962 . S
O16 C21 1.254 . S
O17 Zn14 2.031 . S
O17 C21 1.269 . S
O18 Zn15 1.986 . S
O18 C25 1.262 . S
O19 Zn14 2.049 . S
O19 C27 1.260 . S
O20 Zn15 1.996 . S
O20 C27 1.257 . S
C21 O16 1.254 . S
C21 O17 1.269 . S
C22 O23 1.249 . S
C22 O24 1.270 . S
O23 Zn15 1.943 . S
O23 C22 1.249 . S
O24 Zn14 2.067 . S
O24 C22 1.270 . S
C25 O18 1.262 . S
C25 O26 1.232 . S
O26 C25 1.232 . S
C27 O19 1.260 . S
C27 O20 1.257 . S
Zn28 O31 2.031 . S
Zn28 O33 2.049 . S
Zn28 O38 2.067 . S
Zn29 O30 1.962 . S
Zn29 O32 1.986 . S
Zn29 O34 1.996 . S
Zn29 O37 1.943 . S
O30 Zn29 1.962 . S
O30 C35 1.254 . S
O31 Zn28 2.031 . S
O31 C35 1.269 . S
O32 Zn29 1.986 . S
O32 C39 1.262 . S
O33 Zn28 2.049 . S
O33 C41 1.260 . S
O34 Zn29 1.996 . S
O34 C41 1.257 . S
C35 O30 1.254 . S
C35 O31 1.269 . S
C36 O37 1.249 . S
C36 O38 1.270 . S
O37 Zn29 1.943 . S
O37 C36 1.249 . S
O38 Zn28 2.067 . S
O38 C36 1.270 . S
C39 O32 1.262 . S
C39 O40 1.232 . S
O40 C39 1.232 . S
C41 O33 1.260 . S
C41 O34 1.257 . S
Zn42 O45 2.031 . S
Zn42 O47 2.049 . S
Zn42 O52 2.067 . S
Zn43 O44 1.962 . S
Zn43 O46 1.986 . S
Zn43 O48 1.996 . S
Zn43 O51 1.943 . S
O44 Zn43 1.962 . S
O44 C49 1.254 . S
O45 Zn42 2.031 . S
O45 C49 1.269 . S
O46 Zn43 1.986 . S
O46 C53 1.262 . S
O47 Zn42 2.049 . S
O47 C55 1.260 . S
O48 Zn43 1.996 . S
O48 C55 1.257 . S
C49 O44 1.254 . S
C49 O45 1.269 . S
C50 O51 1.249 . S
C50 O52 1.270 . S
O51 Zn43 1.943 . S
O51 C50 1.249 . S
O52 Zn42 2.067 . S
O52 C50 1.270 . S
C53 O46 1.262 . S
C53 O54 1.232 . S
O54 C53 1.232 . S
C55 O47 1.260 . S
C55 O48 1.257 . S
Zn56 O59 2.031 . S
Zn56 O61 2.049 . S
Zn56 O66 2.067 . S
Zn57 O58 1.962 . S
Zn57 O60 1.986 . S
Zn57 O62 1.996 . S
Zn57 O65 1.943 . S
O58 Zn57 1.962 . S
O58 C63 1.254 . S
O59 Zn56 2.031 . S
O59 C63 1.269 . S
O60 Zn57 1.986 . S
O60 C67 1.262 . S
O61 Zn56 2.049 . S
O61 C69 1.260 . S
O62 Zn57 1.996 . S
O62 C69 1.257 . S
C63 O58 1.254 . S
C63 O59 1.269 . S
C64 O65 1.249 . S
C64 O66 1.270 . S
O65 Zn57 1.943 . S
O65 C64 1.249 . S
O66 Zn56 2.067 . S
O66 C64 1.270 . S
C67 O60 1.262 . S
C67 O68 1.232 . S
O68 C67 1.232 . S
C69 O61 1.260 . S
C69 O62 1.257 . S
Zn70 O73 2.031 . S
Zn70 O75 2.049 . S
Zn70 O80 2.067 . S
Zn71 O72 1.962 . S
Zn71 O74 1.986 . S
Zn71 O76 1.996 . S
Zn71 O79 1.943 . S
O72 Zn71 1.962 . S
O72 C77 1.254 . S
O73 Zn70 2.031 . S
O73 C77 1.269 . S
O74 Zn71 1.986 . S
O74 C81 1.262 . S
O75 Zn70 2.049 . S
O75 C83 1.260 . S
O76 Zn71 1.996 . S
O76 C83 1.257 . S
C77 O72 1.254 . S
C77 O73 1.269 . S
C78 O79 1.249 . S
C78 O80 1.270 . S
O79 Zn71 1.943 . S
O79 C78 1.249 . S
O80 Zn70 2.067 . S
O80 C78 1.270 . S
C81 O74 1.262 . S
C81 O82 1.232 . S
O82 C81 1.232 . S
C83 O75 1.260 . S
C83 O76 1.257 . S
Zn84 O87 2.031 . S
Zn84 O89 2.049 . S
Zn84 O94 2.067 . S
Zn85 O86 1.962 . S
Zn85 O88 1.986 . S
Zn85 O90 1.996 . S
Zn85 O93 1.943 . S
O86 Zn85 1.962 . S
O86 C91 1.254 . S
O87 Zn84 2.031 . S
O87 C91 1.269 . S
O88 Zn85 1.986 . S
O88 C95 1.262 . S
O89 Zn84 2.049 . S
O89 C97 1.260 . S
O90 Zn85 1.996 . S
O90 C97 1.257 . S
C91 O86 1.254 . S
C91 O87 1.269 . S
C92 O93 1.249 . S
C92 O94 1.270 . S
O93 Zn85 1.943 . S
O93 C92 1.249 . S
O94 Zn84 2.067 . S
O94 C92 1.270 . S
C95 O88 1.262 . S
C95 O96 1.232 . S
O96 C95 1.232 . S
C97 O89 1.260 . S
C97 O90 1.257 . S
Zn98 O101 2.031 . S
Zn98 O103 2.049 . S
Zn98 O108 2.067 . S
Zn99 O100 1.962 . S
Zn99 O102 1.986 . S
Zn99 O104 1.996 . S
Zn99 O107 1.943 . S
O100 Zn99 1.962 . S
O100 C105 1.254 . S
O101 Zn98 2.031 . S
O101 C105 1.269 . S
O102 Zn99 1.986 . S
O102 C109 1.262 . S
O103 Zn98 2.049 . S
O103 C111 1.260 . S
O104 Zn99 1.996 . S
O104 C111 1.257 . S
C105 O100 1.254 . S
C105 O101 1.269 . S
C106 O107 1.249 . S
C106 O108 1.270 . S
O107 Zn99 1.943 . S
O107 C106 1.249 . S
O108 Zn98 2.067 . S
O108 C106 1.270 . S
C109 O102 1.262 . S
C109 O110 1.232 . S
O110 C109 1.232 . S
C111 O103 1.260 . S
C111 O104 1.257 . S
Zn112 O115 2.031 . S
Zn112 O117 2.049 . S
Zn112 O122 2.067 . S
Zn113 O114 1.962 . S
Zn113 O116 1.986 . S
Zn113 O118 1.996 . S
Zn113 O121 1.943 . S
O114 Zn113 1.962 . S
O114 C119 1.254 . S
O115 Zn112 2.031 . S
O115 C119 1.269 . S
O116 Zn113 1.986 . S
O116 C123 1.262 . S
O117 Zn112 2.049 . S
O117 C125 1.260 . S
O118 Zn113 1.996 . S
O118 C125 1.257 . S
C119 O114 1.254 . S
C119 O115 1.269 . S
C120 O121 1.249 . S
C120 O122 1.270 . S
O121 Zn113 1.943 . S
O121 C120 1.249 . S
O122 Zn112 2.067 . S
O122 C120 1.270 . S
C123 O116 1.262 . S
C123 O124 1.232 . S
O124 C123 1.232 . S
C125 O117 1.260 . S
C125 O118 1.257 . S
Zn126 O129 2.031 . S
Zn126 O131 2.049 . S
Zn126 O136 2.067 . S
Zn127 O128 1.962 . S
Zn127 O130 1.986 . S
Zn127 O132 1.996 . S
Zn127 O135 1.943 . S
O128 Zn127 1.962 . S
O128 C133 1.254 . S
O129 Zn126 2.031 . S
O129 C133 1.269 . S
O130 Zn127 1.986 . S
O130 C137 1.262 . S
O131 Zn126 2.049 . S
O131 C139 1.260 . S
O132 Zn127 1.996 . S
O132 C139 1.257 . S
C133 O128 1.254 . S
C133 O129 1.269 . S
C134 O135 1.249 . S
C134 O136 1.270 . S
O135 Zn127 1.943 . S
O135 C134 1.249 . S
O136 Zn126 2.067 . S
O136 C134 1.270 . S
C137 O130 1.262 . S
C137 O138 1.232 . S
O138 C137 1.232 . S
C139 O131 1.260 . S
C139 O132 1.257 . S
Zn140 O143 2.031 . S
Zn140 O145 2.049 . S
Zn140 O150 2.067 . S
Zn141 O142 1.962 . S
Zn141 O144 1.986 . S
Zn141 O146 1.996 . S
Zn141 O149 1.943 . S
O142 Zn141 1.962 . S
O142 C147 1.254 . S
O143 Zn140 2.031 . S
O143 C147 1.269 . S
O144 Zn141 1.986 . S
O144 C151 1.262 . S
O145 Zn140 2.049 . S
O145 C153 1.260 . S
O146 Zn141 1.996 . S
O146 C153 1.257 . S
C147 O142 1.254 . S
C147 O143 1.269 . S
C148 O149 1.249 . S
C148 O150 1.270 . S
O149 Zn141 1.943 . S
O149 C148 1.249 . S
O150 Zn140 2.067 . S
O150 C148 1.270 . S
C151 O144 1.262 . S
C151 O152 1.232 . S
O152 C151 1.232 . S
C153 O145 1.260 . S
C153 O146 1.257 . S
Zn154 O157 2.031 . S
Zn154 O159 2.049 . S
Zn154 O164 2.067 . S
Zn155 O156 1.962 . S
Zn155 O158 1.986 . S
Zn155 O160 1.996 . S
Zn155 O163 1.943 . S
O156 Zn155 1.962 . S
O156 C161 1.254 . S
O157 Zn154 2.031 . S
O157 C161 1.269 . S
O158 Zn155 1.986 . S
O158 C165 1.262 . S
O159 Zn154 2.049 . S
O159 C167 1.260 . S
O160 Zn155 1.996 . S
O160 C167 1.257 . S
C161 O156 1.254 . S
C161 O157 1.269 . S
C162 O163 1.249 . S
C162 O164 1.270 . S
O163 Zn155 1.943 . S
O163 C162 1.249 . S
O164 Zn154 2.067 . S
O164 C162 1.270 . S
C165 O158 1.262 . S
C165 O166 1.232 . S
O166 C165 1.232 . S
C167 O159 1.260 . S
C167 O160 1.257 . S
Zn168 O171 2.031 . S
Zn168 O173 2.049 . S
Zn168 O178 2.067 . S
Zn169 O170 1.962 . S
Zn169 O172 1.986 . S
Zn169 O174 1.996 . S
Zn169 O177 1.943 . S
O170 Zn169 1.962 . S
O170 C175 1.254 . S
O171 Zn168 2.031 . S
O171 C175 1.269 . S
O172 Zn169 1.986 . S
O172 C179 1.262 . S
O173 Zn168 2.049 . S
O173 C181 1.260 . S
O174 Zn169 1.996 . S
O174 C181 1.257 . S
C175 O170 1.254 . S
C175 O171 1.269 . S
C176 O177 1.249 . S
C176 O178 1.270 . S
O177 Zn169 1.943 . S
O177 C176 1.249 . S
O178 Zn168 2.067 . S
O178 C176 1.270 . S
C179 O172 1.262 . S
C179 O180 1.232 . S
O180 C179 1.232 . S
C181 O173 1.260 . S
C181 O174 1.257 . S
Zn182 O185 2.031 . S
Zn182 O187 2.049 . S
Zn182 O192 2.067 . S
Zn183 O184 1.962 . S
Zn183 O186 1.986 . S
Zn183 O188 1.996 . S
Zn183 O191 1.943 . S
O184 Zn183 1.962 . S
O184 C189 1.254 . S
O185 Zn182 2.031 . S
O185 C189 1.269 . S
O186 Zn183 1.986 . S
O186 C193 1.262 . S
O187 Zn182 2.049 . S
O187 C195 1.260 . S
O188 Zn183 1.996 . S
O188 C195 1.257 . S
C189 O184 1.254 . S
C189 O185 1.269 . S
C190 O191 1.249 . S
C190 O192 1.270 . S
O191 Zn183 1.943 . S
O191 C190 1.249 . S
O192 Zn182 2.067 . S
O192 C190 1.270 . S
C193 O186 1.262 . S
C193 O194 1.232 . S
O194 C193 1.232 . S
C195 O187 1.260 . S
C195 O188 1.257 . S
Zn196 O199 2.031 . S
Zn196 O201 2.049 . S
Zn196 O206 2.067 . S
Zn197 O198 1.962 . S
Zn197 O200 1.986 . S
Zn197 O202 1.996 . S
Zn197 O205 1.943 . S
O198 Zn197 1.962 . S
O198 C203 1.254 . S
O199 Zn196 2.031 . S
O199 C203 1.269 . S
O200 Zn197 1.986 . S
O200 C207 1.262 . S
O201 Zn196 2.049 . S
O201 C209 1.260 . S
O202 Zn197 1.996 . S
O202 C209 1.257 . S
C203 O198 1.254 . S
C203 O199 1.269 . S
C204 O205 1.249 . S
C204 O206 1.270 . S
O205 Zn197 1.943 . S
O205 C204 1.249 . S
O206 Zn196 2.067 . S
O206 C204 1.270 . S
C207 O200 1.262 . S
C207 O208 1.232 . S
O208 C207 1.232 . S
C209 O201 1.260 . S
C209 O202 1.257 . S
Zn210 O213 2.031 . S
Zn210 O215 2.049 . S
Zn210 O220 2.067 . S
Zn211 O212 1.962 . S
Zn211 O214 1.986 . S
Zn211 O216 1.996 . S
Zn211 O219 1.943 . S
O212 Zn211 1.962 . S
O212 C217 1.254 . S
O213 Zn210 2.031 . S
O213 C217 1.269 . S
O214 Zn211 1.986 . S
O214 C221 1.262 . S
O215 Zn210 2.049 . S
O215 C223 1.260 . S
O216 Zn211 1.996 . S
O216 C223 1.257 . S
C217 O212 1.254 . S
C217 O213 1.269 . S
C218 O219 1.249 . S
C218 O220 1.270 . S
O219 Zn211 1.943 . S
O219 C218 1.249 . S
O220 Zn210 2.067 . S
O220 C218 1.270 . S
C221 O214 1.262 . S
C221 O222 1.232 . S
O222 C221 1.232 . S
C223 O215 1.260 . S
C223 O216 1.257 . S
Zn224 O227 2.031 . S
Zn224 O229 2.049 . S
Zn224 O234 2.067 . S
Zn225 O226 1.962 . S
Zn225 O228 1.986 . S
Zn225 O230 1.996 . S
Zn225 O233 1.943 . S
O226 Zn225 1.962 . S
O226 C231 1.254 . S
O227 Zn224 2.031 . S
O227 C231 1.269 . S
O228 Zn225 1.986 . S
O228 C235 1.262 . S
O229 Zn224 2.049 . S
O229 C237 1.260 . S
O230 Zn225 1.996 . S
O230 C237 1.257 . S
C231 O226 1.254 . S
C231 O227 1.269 . S
C232 O233 1.249 . S
C232 O234 1.270 . S
O233 Zn225 1.943 . S
O233 C232 1.249 . S
O234 Zn224 2.067 . S
O234 C232 1.270 . S
C235 O228 1.262 . S
C235 O236 1.232 . S
O236 C235 1.232 . S
C237 O229 1.260 . S
C237 O230 1.257 . S
Zn238 O241 2.031 . S
Zn238 O243 2.049 . S
Zn238 O248 2.067 . S
Zn239 O240 1.962 . S
Zn239 O242 1.986 . S
Zn239 O244 1.996 . S
Zn239 O247 1.943 . S
O240 Zn239 1.962 . S
O240 C245 1.254 . S
O241 Zn238 2.031 . S
O241 C245 1.269 . S
O242 Zn239 1.986 . S
O242 C249 1.262 . S
O243 Zn238 2.049 . S
O243 C251 1.260 . S
O244 Zn239 1.996 . S
O244 C251 1.257 . S
C245 O240 1.254 . S
C245 O241 1.269 . S
C246 O247 1.249 . S
C246 O248 1.270 . S
O247 Zn239 1.943 . S
O247 C246 1.249 . S
O248 Zn238 2.067 . S
O248 C246 1.270 . S
C249 O242 1.262 . S
C249 O250 1.232 . S
O250 C249 1.232 . S
C251 O243 1.260 . S
C251 O244 1.257 . S
Zn252 O255 2.031 . S
Zn252 O257 2.049 . S
Zn252 O262 2.067 . S
Zn253 O254 1.962 . S
Zn253 O256 1.986 . S
Zn253 O258 1.996 . S
Zn253 O261 1.943 . S
O254 Zn253 1.962 . S
O254 C259 1.254 . S
O255 Zn252 2.031 . S
O255 C259 1.269 . S
O256 Zn253 1.986 . S
O256 C263 1.262 . S
O257 Zn252 2.049 . S
O257 C265 1.260 . S
O258 Zn253 1.996 . S
O258 C265 1.257 . S
C259 O254 1.254 . S
C259 O255 1.269 . S
C260 O261 1.249 . S
C260 O262 1.270 . S
O261 Zn253 1.943 . S
O261 C260 1.249 . S
O262 Zn252 2.067 . S
O262 C260 1.270 . S
C263 O256 1.262 . S
C263 O264 1.232 . S
O264 C263 1.232 . S
C265 O257 1.260 . S
C265 O258 1.257 . S
Zn266 O269 2.031 . S
Zn266 O271 2.049 . S
Zn266 O276 2.067 . S
Zn267 O268 1.962 . S
Zn267 O270 1.986 . S
Zn267 O272 1.996 . S
Zn267 O275 1.943 . S
O268 Zn267 1.962 . S
O268 C273 1.254 . S
O269 Zn266 2.031 . S
O269 C273 1.269 . S
O270 Zn267 1.986 . S
O270 C277 1.262 . S
O271 Zn266 2.049 . S
O271 C279 1.260 . S
O272 Zn267 1.996 . S
O272 C279 1.257 . S
C273 O268 1.254 . S
C273 O269 1.269 . S
C274 O275 1.249 . S
C274 O276 1.270 . S
O275 Zn267 1.943 . S
O275 C274 1.249 . S
O276 Zn266 2.067 . S
O276 C274 1.270 . S
C277 O270 1.262 . S
C277 O278 1.232 . S
O278 C277 1.232 . S
C279 O271 1.260 . S
C279 O272 1.257 . S
Zn280 O283 2.031 . S
Zn280 O285 2.049 . S
Zn280 O290 2.067 . S
Zn281 O282 1.962 . S
Zn281 O284 1.986 . S
Zn281 O286 1.996 . S
Zn281 O289 1.943 . S
O282 Zn281 1.962 . S
O282 C287 1.254 . S
O283 Zn280 2.031 . S
O283 C287 1.269 . S
O284 Zn281 1.986 . S
O284 C291 1.262 . S
O285 Zn280 2.049 . S
O285 C293 1.260 . S
O286 Zn281 1.996 . S
O286 C293 1.257 . S
C287 O282 1.254 . S
C287 O283 1.269 . S
C288 O289 1.249 . S
C288 O290 1.270 . S
O289 Zn281 1.943 . S
O289 C288 1.249 . S
O290 Zn280 2.067 . S
O290 C288 1.270 . S
C291 O284 1.262 . S
C291 O292 1.232 . S
O292 C291 1.232 . S
C293 O285 1.260 . S
C293 O286 1.257 . S
Zn294 O297 2.031 . S
Zn294 O299 2.049 . S
Zn294 O304 2.067 . S
Zn295 O296 1.962 . S
Zn295 O298 1.986 . S
Zn295 O300 1.996 . S
Zn295 O303 1.943 . S
O296 Zn295 1.962 . S
O296 C301 1.254 . S
O297 Zn294 2.031 . S
O297 C301 1.269 . S
O298 Zn295 1.986 . S
O298 C305 1.262 . S
O299 Zn294 2.049 . S
O299 C307 1.260 . S
O300 Zn295 1.996 . S
O300 C307 1.257 . S
C301 O296 1.254 . S
C301 O297 1.269 . S
C302 O303 1.249 . S
C302 O304 1.270 . S
O303 Zn295 1.943 . S
O303 C302 1.249 . S
O304 Zn294 2.067 . S
O304 C302 1.270 . S
C305 O298 1.262 . S
C305 O306 1.232 . S
O306 C305 1.232 . S
C307 O299 1.260 . S
C307 O300 1.257 . S
Zn308 O311 2.031 . S
Zn308 O313 2.049 . S
Zn308 O318 2.067 . S
Zn309 O310 1.962 . S
Zn309 O312 1.986 . S
Zn309 O314 1.996 . S
Zn309 O317 1.943 . S
O310 Zn309 1.962 . S
O310 C315 1.254 . S
O311 Zn308 2.031 . S
O311 C315 1.269 . S
O312 Zn309 1.986 . S
O312 C319 1.262 . S
O313 Zn308 2.049 . S
O313 C321 1.260 . S
O314 Zn309 1.996 . S
O314 C321 1.257 . S
C315 O310 1.254 . S
C315 O311 1.269 . S
C316 O317 1.249 . S
C316 O318 1.270 . S
O317 Zn309 1.943 . S
O317 C316 1.249 . S
O318 Zn308 2.067 . S
O318 C316 1.270 . S
C319 O312 1.262 . S
C319 O320 1.232 . S
O320 C319 1.232 . S
C321 O313 1.260 . S
C321 O314 1.257 . S
Zn322 O325 2.031 . S
Zn322 O327 2.049 . S
Zn322 O332 2.067 . S
Zn323 O324 1.962 . S
Zn323 O326 1.986 . S
Zn323 O328 1.996 . S
Zn323 O331 1.943 . S
O324 Zn323 1.962 . S
O324 C329 1.254 . S
O325 Zn322 2.031 . S
O325 C329 1.269 . S
O326 Zn323 1.986 . S
O326 C333 1.262 . S
O327 Zn322 2.049 . S
O327 C335 1.260 . S
O328 Zn323 1.996 . S
O328 C335 1.257 . S
C329 O324 1.254 . S
C329 O325 1.269 . S
C330 O331 1.249 . S
C330 O332 1.270 . S
O331 Zn323 1.943 . S
O331 C330 1.249 . S
O332 Zn322 2.067 . S
O332 C330 1.270 . S
C333 O326 1.262 . S
C333 O334 1.232 . S
O334 C333 1.232 . S
C335 O327 1.260 . S
C335 O328 1.257 . S
Zn336 O339 2.031 . S
Zn336 O341 2.049 . S
Zn336 O346 2.067 . S
Zn337 O338 1.962 . S
Zn337 O340 1.986 . S
Zn337 O342 1.996 . S
Zn337 O345 1.943 . S
O338 Zn337 1.962 . S
O338 C343 1.254 . S
O339 Zn336 2.031 . S
O339 C343 1.269 . S
O340 Zn337 1.986 . S
O340 C347 1.262 . S
O341 Zn336 2.049 . S
O341 C349 1.260 . S
O342 Zn337 1.996 . S
O342 C349 1.257 . S
C343 O338 1.254 . S
C343 O339 1.269 . S
C344 O345 1.249 . S
C344 O346 1.270 . S
O345 Zn337 1.943 . S
O345 C344 1.249 . S
O346 Zn336 2.067 . S
O346 C344 1.270 . S
C347 O340 1.262 . S
C347 O348 1.232 . S
O348 C347 1.232 . S
C349 O341 1.260 . S
C349 O342 1.257 . S
Zn350 O353 2.031 . S
Zn350 O355 2.049 . S
Zn350 O360 2.067 . S
Zn351 O352 1.962 . S
Zn351 O354 1.986 . S
Zn351 O356 1.996 . S
Zn351 O359 1.943 . S
O352 Zn351 1.962 . S
O352 C357 1.254 . S
O353 Zn350 2.031 . S
O353 C357 1.269 . S
O354 Zn351 1.986 . S
O354 C361 1.262 . S
O355 Zn350 2.049 . S
O355 C363 1.260 . S
O356 Zn351 1.996 . S
O356 C363 1.257 . S
C357 O352 1.254 . S
C357 O353 1.269 . S
C358 O359 1.249 . S
C358 O360 1.270 . S
O359 Zn351 1.943 . S
O359 C358 1.249 . S
O360 Zn350 2.067 . S
O360 C358 1.270 . S
C361 O354 1.262 . S
C361 O362 1.232 . S
O362 C361 1.232 . S
C363 O355 1.260 . S
C363 O356 1.257 . S
Zn364 O367 2.031 . S
Zn364 O369 2.049 . S
Zn364 O374 2.067 . S
Zn365 O366 1.962 . S
Zn365 O368 1.986 . S
Zn365 O370 1.996 . S
Zn365 O373 1.943 . S
O366 Zn365 1.962 . S
O366 C371 1.254 . S
O367 Zn364 2.031 . S
O367 C371 1.269 . S
O368 Zn365 1.986 . S
O368 C375 1.262 . S
O369 Zn364 2.049 . S
O369 C377 1.260 . S
O370 Zn365 1.996 . S
O370 C377 1.257 . S
C371 O366 1.254 . S
C371 O367 1.269 . S
C372 O373 1.249 . S
C372 O374 1.270 . S
O373 Zn365 1.943 . S
O373 C372 1.249 . S
O374 Zn364 2.067 . S
O374 C372 1.270 . S
C375 O368 1.262 . S
C375 O376 1.232 . S
O376 C375 1.232 . S
C377 O369 1.260 . S
C377 O370 1.257 . S
Zn378 O381 2.031 . S
Zn378 O383 2.049 . S
Zn378 O388 2.067 . S
Zn379 O380 1.962 . S
Zn379 O382 1.986 . S
Zn379 O384 1.996 . S
Zn379 O387 1.943 . S
O380 Zn379 1.962 . S
O380 C385 1.254 . S
O381 Zn378 2.031 . S
O381 C385 1.269 . S
O382 Zn379 1.986 . S
O382 C389 1.262 . S
O383 Zn378 2.049 . S
O383 C391 1.260 . S
O384 Zn379 1.996 . S
O384 C391 1.257 . S
C385 O380 1.254 . S
C385 O381 1.269 . S
C386 O387 1.249 . S
C386 O388 1.270 . S
O387 Zn379 1.943 . S
O387 C386 1.249 . S
O388 Zn378 2.067 . S
O388 C386 1.270 . S
C389 O382 1.262 . S
C389 O390 1.232 . S
O390 C389 1.232 . S
C391 O383 1.260 . S
C391 O384 1.257 . S
Zn392 O395 2.031 . S
Zn392 O397 2.049 . S
Zn392 O402 2.067 . S
Zn393 O394 1.962 . S
Zn393 O396 1.986 . S
Zn393 O398 1.996 . S
Zn393 O401 1.943 . S
O394 Zn393 1.962 . S
O394 C399 1.254 . S
O395 Zn392 2.031 . S
O395 C399 1.269 . S
O396 Zn393 1.986 . S
O396 C403 1.262 . S
O397 Zn392 2.049 . S
O397 C405 1.260 . S
O398 Zn393 1.996 . S
O398 C405 1.257 . S
C399 O394 1.254 . S
C399 O395 1.269 . S
C400 O401 1.249 . S
C400 O402 1.270 . S
O401 Zn393 1.943 . S
O401 C400 1.249 . S
O402 Zn392 2.067 . S
O402 C400 1.270 . S
C403 O396 1.262 . S
C403 O404 1.232 . S
O404 C403 1.232 . S
C405 O397 1.260 . S
C405 O398 1.257 . S
Zn406 O409 2.031 . S
Zn406 O411 2.049 . S
Zn406 O416 2.067 . S
Zn407 O408 1.962 . S
Zn407 O410 1.986 . S
Zn407 O412 1.996 . S
Zn407 O415 1.943 . S
O408 Zn407 1.962 . S
O408 C413 1.254 . S
O409 Zn406 2.031 . S
O409 C413 1.269 . S
O410 Zn407 1.986 . S
O410 C417 1.262 . S
O411 Zn406 2.049 . S
O411 C419 1.260 . S
O412 Zn407 1.996 . S
O412 C419 1.257 . S
C413 O408 1.254 . S
C413 O409 1.269 . S
C414 O415 1.249 . S
C414 O416 1.270 . S
O415 Zn407 1.943 . S
O415 C414 1.249 . S
O416 Zn406 2.067 . S
O416 C414 1.270 . S
C417 O410 1.262 . S
C417 O418 1.232 . S
O418 C417 1.232 . S
C419 O411 1.260 . S
C419 O412 1.257 . S
Zn420 O423 2.031 . S
Zn420 O425 2.049 . S
Zn420 O430 2.067 . S
Zn421 O422 1.962 . S
Zn421 O424 1.986 . S
Zn421 O426 1.996 . S
Zn421 O429 1.943 . S
O422 Zn421 1.962 . S
O422 C427 1.254 . S
O423 Zn420 2.031 . S
O423 C427 1.269 . S
O424 Zn421 1.986 . S
O424 C431 1.262 . S
O425 Zn420 2.049 . S
O425 C433 1.260 . S
O426 Zn421 1.996 . S
O426 C433 1.257 . S
C427 O422 1.254 . S
C427 O423 1.269 . S
C428 O429 1.249 . S
C428 O430 1.270 . S
O429 Zn421 1.943 . S
O429 C428 1.249 . S
O430 Zn420 2.067 . S
O430 C428 1.270 . S
C431 O424 1.262 . S
C431 O432 1.232 . S
O432 C431 1.232 . S
C433 O425 1.260 . S
C433 O426 1.257 . S
Zn434 O437 2.031 . S
Zn434 O439 2.049 . S
Zn434 O444 2.067 . S
Zn435 O436 1.962 . S
Zn435 O438 1.986 . S
Zn435 O440 1.996 . S
Zn435 O443 1.943 . S
O436 Zn435 1.962 . S
O436 C441 1.254 . S
O437 Zn434 2.031 . S
O437 C441 1.269 . S
O438 Zn435 1.986 . S
O438 C445 1.262 . S
O439 Zn434 2.049 . S
O439 C447 1.260 . S
O440 Zn435 1.996 . S
O440 C447 1.257 . S
C441 O436 1.254 . S
C441 O437 1.269 . S
C442 O443 1.249 . S
C442 O444 1.270 . S
O443 Zn435 1.943 . S
O443 C442 1.249 . S
O444 Zn434 2.067 . S
O444 C442 1.270 . S
C445 O438 1.262 . S
C445 O446 1.232 . S
O446 C445 1.232 . S
C447 O439 1.260 . S
C447 O440 1.257 . S
Zn448 O451 2.031 . S
Zn448 O453 2.049 . S
Zn448 O458 2.067 . S
Zn449 O450 1.962 . S
Zn449 O452 1.986 . S
Zn449 O454 1.996 . S
Zn449 O457 1.943 . S
O450 Zn449 1.962 . S
O450 C455 1.254 . S
O451 Zn448 2.031 . S
O451 C455 1.269 . S
O452 Zn449 1.986 . S
O452 C459 1.262 . S
O453 Zn448 2.049 . S
O453 C461 1.260 . S
O454 Zn449 1.996 . S
O454 C461 1.257 . S
C455 O450 1.254 . S
C455 O451 1.269 . S
C456 O457 1.249 . S
C456 O458 1.270 . S
O457 Zn449 1.943 . S
O457 C456 1.249 . S
O458 Zn448 2.067 . S
O458 C456 1.270 . S
C459 O452 1.262 . S
C459 O460 1.232 . S
O460 C459 1.232 . S
C461 O453 1.260 . S
C461 O454 1.257 . S
Zn462 O465 2.031 . S
Zn462 O467 2.049 . S
Zn462 O472 2.067 . S
Zn463 O464 1.962 . S
Zn463 O466 1.986 . S
Zn463 O468 1.996 . S
Zn463 O471 1.943 . S
O464 Zn463 1.962 . S
O464 C469 1.254 . S
O465 Zn462 2.031 . S
O465 C469 1.269 . S
O466 Zn463 1.986 . S
O466 C473 1.262 . S
O467 Zn462 2.049 . S
O467 C475 1.260 . S
O468 Zn463 1.996 . S
O468 C475 1.257 . S
C469 O464 1.254 . S
C469 O465 1.269 . S
C470 O471 1.249 . S
C470 O472 1.270 . S
O471 Zn463 1.943 . S
O471 C470 1.249 . S
O472 Zn462 2.067 . S
O472 C470 1.270 . S
C473 O466 1.262 . S
C473 O474 1.232 . S
O474 C473 1.232 . S
C475 O467 1.260 . S
C475 O468 1.257 . S
Zn476 O479 2.031 . S
Zn476 O481 2.049 . S
Zn476 O486 2.067 . S
Zn477 O478 1.962 . S
Zn477 O480 1.986 . S
Zn477 O482 1.996 . S
Zn477 O485 1.943 . S
O478 Zn477 1.962 . S
O478 C483 1.254 . S
O479 Zn476 2.031 . S
O479 C483 1.269 . S
O480 Zn477 1.986 . S
O480 C487 1.262 . S
O481 Zn476 2.049 . S
O481 C489 1.260 . S
O482 Zn477 1.996 . S
O482 C489 1.257 . S
C483 O478 1.254 . S
C483 O479 1.269 . S
C484 O485 1.249 . S
C484 O486 1.270 . S
O485 Zn477 1.943 . S
O485 C484 1.249 . S
O486 Zn476 2.067 . S
O486 C484 1.270 . S
C487 O480 1.262 . S
C487 O488 1.232 . S
O488 C487 1.232 . S
C489 O481 1.260 . S
C489 O482 1.257 . S
Zn490 O493 2.031 . S
Zn490 O495 2.049 . S
Zn490 O500 2.067 . S
Zn491 O492 1.962 . S
Zn491 O494 1.986 . S
Zn491 O496 1.996 . S
Zn491 O499 1.943 . S
O492 Zn491 1.962 . S
O492 C497 1.254 . S
O493 Zn490 2.031 . S
O493 C497 1.269 . S
O494 Zn491 1.986 . S
O494 C501 1.262 . S
O495 Zn490 2.049 . S
O495 C503 1.260 . S
O496 Zn491 1.996 . S
O496 C503 1.257 . S
C497 O492 1.254 . S
C497 O493 1.269 . S
C498 O499 1.249 . S
C498 O500 1.270 . S
O499 Zn491 1.943 . S
O499 C498 1.249 . S
O500 Zn490 2.067 . S
O500 C498 1.270 . S
C501 O494 1.262 . S
C501 O502 1.232 . S
O502 C501 1.232 . S
C503 O495 1.260 . S
C503 O496 1.257 . S
Zn504 O507 2.031 . S
Zn504 O509 2.049 . S
Zn504 O514 2.067 . S
Zn505 O506 1.962 . S
Zn505 O508 1.986 . S
Zn505 O510 1.996 . S
Zn505 O513 1.943 . S
O506 Zn505 1.962 . S
O506 C511 1.254 . S
O507 Zn504 2.031 . S
O507 C511 1.269 . S
O508 Zn505 1.986 . S
O508 C515 1.262 . S
O509 Zn504 2.049 . S
O509 C517 1.260 . S
O510 Zn505 1.996 . S
O510 C517 1.257 . S
C511 O506 1.254 . S
C511 O507 1.269 . S
C512 O513 1.249 . S
C512 O514 1.270 . S
O513 Zn505 1.943 . S
O513 C512 1.249 . S
O514 Zn504 2.067 . S
O514 C512 1.270 . S
C515 O508 1.262 . S
C515 O516 1.232 . S
O516 C515 1.232 . S
C517 O509 1.260 . S
C517 O510 1.257 . S
Zn518 O521 2.031 . S
Zn518 O523 2.049 . S
Zn518 O528 2.067 . S
Zn519 O520 1.962 . S
Zn519 O522 1.986 . S
Zn519 O524 1.996 . S
Zn519 O527 1.943 . S
O520 Zn519 1.962 . S
O520 C525 1.254 . S
O521 Zn518 2.031 . S
O521 C525 1.269 . S
O522 Zn519 1.986 . S
O522 C529 1.262 . S
O523 Zn518 2.049 . S
O523 C531 1.260 . S
O524 Zn519 1.996 . S
O524 C531 1.257 . S
C525 O520 1.254 . S
C525 O521 1.269 . S
C526 O527 1.249 . S
C526 O528 1.270 . S
O527 Zn519 1.943 . S
O527 C526 1.249 . S
O528 Zn518 2.067 . S
O528 C526 1.270 . S
C529 O522 1.262 . S
C529 O530 1.232 . S
O530 C529 1.232 . S
C531 O523 1.260 . S
C531 O524 1.257 . S
Zn532 O535 2.031 . S
Zn532 O537 2.049 . S
Zn532 O542 2.067 . S
Zn533 O534 1.962 . S
Zn533 O536 1.986 . S
Zn533 O538 1.996 . S
Zn533 O541 1.943 . S
O534 Zn533 1.962 . S
O534 C539 1.254 . S
O535 Zn532 2.031 . S
O535 C539 1.269 . S
O536 Zn533 1.986 . S
O536 C543 1.262 . S
O537 Zn532 2.049 . S
O537 C545 1.260 . S
O538 Zn533 1.996 . S
O538 C545 1.257 . S
C539 O534 1.254 . S
C539 O535 1.269 . S
C540 O541 1.249 . S
C540 O542 1.270 . S
O541 Zn533 1.943 . S
O541 C540 1.249 . S
O542 Zn532 2.067 . S
O542 C540 1.270 . S
C543 O536 1.262 . S
C543 O544 1.232 . S
O544 C543 1.232 . S
C545 O537 1.260 . S
C545 O538 1.257 . S
Zn546 O549 2.031 . S
Zn546 O551 2.049 . S
Zn546 O556 2.067 . S
Zn547 O548 1.962 . S
Zn547 O550 1.986 . S
Zn547 O552 1.996 . S
Zn547 O555 1.943 . S
O548 Zn547 1.962 . S
O548 C553 1.254 . S
O549 Zn546 2.031 . S
O549 C553 1.269 . S
O550 Zn547 1.986 . S
O550 C557 1.262 . S
O551 Zn546 2.049 . S
O551 C559 1.260 . S
O552 Zn547 1.996 . S
O552 C559 1.257 . S
C553 O548 1.254 . S
C553 O549 1.269 . S
C554 O555 1.249 . S
C554 O556 1.270 . S
O555 Zn547 1.943 . S
O555 C554 1.249 . S
O556 Zn546 2.067 . S
O556 C554 1.270 . S
C557 O550 1.262 . S
C557 O558 1.232 . S
O558 C557 1.232 . S
C559 O551 1.260 . S
C559 O552 1.257 . S
Zn560 O563 2.031 . S
Zn560 O565 2.049 . S
Zn560 O570 2.067 . S
Zn561 O562 1.962 . S
Zn561 O564 1.986 . S
Zn561 O566 1.996 . S
Zn561 O569 1.943 . S
O562 Zn561 1.962 . S
O562 C567 1.254 . S
O563 Zn560 2.031 . S
O563 C567 1.269 . S
O564 Zn561 1.986 . S
O564 C571 1.262 . S
O565 Zn560 2.049 . S
O565 C573 1.260 . S
O566 Zn561 1.996 . S
O566 C573 1.257 . S
C567 O562 1.254 . S
C567 O563 1.269 . S
C568 O569 1.249 . S
C568 O570 1.270 . S
O569 Zn561 1.943 . S
O569 C568 1.249 . S
O570 Zn560 2.067 . S
O570 C568 1.270 . S
C571 O564 1.262 . S
C571 O572 1.232 . S
O572 C571 1.232 . S
C573 O565 1.260 . S
C573 O566 1.257 . S
Zn574 O577 2.031 . S
Zn574 O579 2.049 . S
Zn574 O584 2.067 . S
Zn575 O576 1.962 . S
Zn575 O578 1.986 . S
Zn575 O580 1.996 . S
Zn575 O583 1.943 . S
O576 Zn575 1.962 . S
O576 C581 1.254 . S
O577 Zn574 2.031 . S
O577 C581 1.269 . S
O578 Zn575 1.986 . S
O578 C585 1.262 . S
O579 Zn574 2.049 . S
O579 C587 1.260 . S
O580 Zn575 1.996 . S
O580 C587 1.257 . S
C581 O576 1.254 . S
C581 O577 1.269 . S
C582 O583 1.249 . S
C582 O584 1.270 . S
O583 Zn575 1.943 . S
O583 C582 1.249 . S
O584 Zn574 2.067 . S
O584 C582 1.270 . S
C585 O578 1.262 . S
C585 O586 1.232 . S
O586 C585 1.232 . S
C587 O579 1.260 . S
C587 O580 1.257 . S
Zn588 O591 2.031 . S
Zn588 O593 2.049 . S
Zn588 O598 2.067 . S
Zn589 O590 1.962 . S
Zn589 O592 1.986 . S
Zn589 O594 1.996 . S
Zn589 O597 1.943 . S
O590 Zn589 1.962 . S
O590 C595 1.254 . S
O591 Zn588 2.031 . S
O591 C595 1.269 . S
O592 Zn589 1.986 . S
O592 C599 1.262 . S
O593 Zn588 2.049 . S
O593 C601 1.260 . S
O594 Zn589 1.996 . S
O594 C601 1.257 . S
C595 O590 1.254 . S
C595 O591 1.269 . S
C596 O597 1.249 . S
C596 O598 1.270 . S
O597 Zn589 1.943 . S
O597 C596 1.249 . S
O598 Zn588 2.067 . S
O598 C596 1.270 . S
C599 O592 1.262 . S
C599 O600 1.232 . S
O600 C599 1.232 . S
C601 O593 1.260 . S
C601 O594 1.257 . S
Zn602 O605 2.031 . S
Zn602 O607 2.049 . S
Zn602 O612 2.067 . S
Zn603 O604 1.962 . S
Zn603 O606 1.986 . S
Zn603 O608 1.996 . S
Zn603 O611 1.943 . S
O604 Zn603 1.962 . S
O604 C609 1.254 . S
O605 Zn602 2.031 . S
O605 C609 1.269 . S
O606 Zn603 1.986 . S
O606 C613 1.262 . S
O607 Zn602 2.049 . S
O607 C615 1.260 . S
O608 Zn603 1.996 . S
O608 C615 1.257 . S
C609 O604 1.254 . S
C609 O605 1.269 . S
C610 O611 1.249 . S
C610 O612 1.270 . S
O611 Zn603 1.943 . S
O611 C610 1.249 . S
O612 Zn602 2.067 . S
O612 C610 1.270 . S
C613 O606 1.262 . S
C613 O614 1.232 . S
O614 C613 1.232 . S
C615 O607 1.260 . S
C615 O608 1.257 . S
Zn616 O619 2.031 . S
Zn616 O621 2.049 . S
Zn616 O626 2.067 . S
Zn617 O618 1.962 . S
Zn617 O620 1.986 . S
Zn617 O622 1.996 . S
Zn617 O625 1.943 . S
O618 Zn617 1.962 . S
O618 C623 1.254 . S
O619 Zn616 2.031 . S
O619 C623 1.269 . S
O620 Zn617 1.986 . S
O620 C627 1.262 . S
O621 Zn616 2.049 . S
O621 C629 1.260 . S
O622 Zn617 1.996 . S
O622 C629 1.257 . S
C623 O618 1.254 . S
C623 O619 1.269 . S
C624 O625 1.249 . S
C624 O626 1.270 . S
O625 Zn617 1.943 . S
O625 C624 1.249 . S
O626 Zn616 2.067 . S
O626 C624 1.270 . S
C627 O620 1.262 . S
C627 O628 1.232 . S
O628 C627 1.232 . S
C629 O621 1.260 . S
C629 O622 1.257 . S
Zn630 O633 2.031 . S
Zn630 O635 2.049 . S
Zn630 O640 2.067 . S
Zn631 O632 1.962 . S
Zn631 O634 1.986 . S
Zn631 O636 1.996 . S
Zn631 O639 1.943 . S
O632 Zn631 1.962 . S
O632 C637 1.254 . S
O633 Zn630 2.031 . S
O633 C637 1.269 . S
O634 Zn631 1.986 . S
O634 C641 1.262 . S
O635 Zn630 2.049 . S
O635 C643 1.260 . S
O636 Zn631 1.996 . S
O636 C643 1.257 . S
C637 O632 1.254 . S
C637 O633 1.269 . S
C638 O639 1.249 . S
C638 O640 1.270 . S
O639 Zn631 1.943 . S
O639 C638 1.249 . S
O640 Zn630 2.067 . S
O640 C638 1.270 . S
C641 O634 1.262 . S
C641 O642 1.232 . S
O642 C641 1.232 . S
C643 O635 1.260 . S
C643 O636 1.257 . S
Zn644 O647 2.031 . S
Zn644 O649 2.049 . S
Zn644 O654 2.067 . S
Zn645 O646 1.962 . S
Zn645 O648 1.986 . S
Zn645 O650 1.996 . S
Zn645 O653 1.943 . S
O646 Zn645 1.962 . S
O646 C651 1.254 . S
O647 Zn644 2.031 . S
O647 C651 1.269 . S
O648 Zn645 1.986 . S
O648 C655 1.262 . S
O649 Zn644 2.049 . S
O649 C657 1.260 . S
O650 Zn645 1.996 . S
O650 C657 1.257 . S
C651 O646 1.254 . S
C651 O647 1.269 . S
C652 O653 1.249 . S
C652 O654 1.270 . S
O653 Zn645 1.943 . S
O653 C652 1.249 . S
O654 Zn644 2.067 . S
O654 C652 1.270 . S
C655 O648 1.262 . S
C655 O656 1.232 . S
O656 C655 1.232 . S
C657 O649 1.260 . S
C657 O650 1.257 . S
Zn658 O661 2.031 . S
Zn658 O663 2.049 . S
Zn658 O668 2.067 . S
Zn659 O660 1.962 . S
Zn659 O662 1.986 . S
Zn659 O664 1.996 . S
Zn659 O667 1.943 . S
O660 Zn659 1.962 . S
O660 C665 1.254 . S
O661 Zn658 2.031 . S
O661 C665 1.269 . S
O662 Zn659 1.986 . S
O662 C669 1.262 . S
O663 Zn658 2.049 . S
O663 C671 1.260 . S
O664 Zn659 1.996 . S
O664 C671 1.257 . S
C665 O660 1.254 . S
C665 O661 1.269 . S
C666 O667 1.249 . S
C666 O668 1.270 . S
O667 Zn659 1.943 . S
O667 C666 1.249 . S
O668 Zn658 2.067 . S
O668 C666 1.270 . S
C669 O662 1.262 . S
C669 O670 1.232 . S
O670 C669 1.232 . S
C671 O663 1.260 . S
C671 O664 1.257 . S
H672 C678 0.930 . S
H673 C681 0.930 . S
H674 C682 0.930 . S
H675 C683 0.930 . S
H676 C686 0.930 . S
H677 C687 0.930 . S
C678 H672 0.930 . S
C678 C679 1.355 . S
C678 C680 1.415 . S
C679 C678 1.355 . S
C679 C681 1.419 . S
C680 C678 1.415 . S
C680 C685 1.425 1_655 S
C680 C687 1.409 1_655 S
C681 H673 0.930 . S
C681 C679 1.419 . S
C681 C682 1.362 . S
C682 H674 0.930 . S
C682 C681 1.362 . S
C682 C685 1.409 1_655 S
C683 H675 0.930 . S
C683 C684 1.355 . S
C683 C685 1.415 . S
C684 C683 1.355 . S
C684 C686 1.419 . S
C685 C680 1.425 1_455 S
C685 C682 1.409 1_455 S
C685 C683 1.415 . S
C686 H676 0.930 . S
C686 C684 1.419 . S
C686 C687 1.362 . S
C687 H677 0.930 . S
C687 C680 1.409 1_455 S
C687 C686 1.362 . S
H688 C694 0.930 . S
H689 C697 0.930 . S
H690 C698 0.930 . S
H691 C699 0.930 . S
H692 C702 0.930 . S
H693 C703 0.930 . S
C694 H688 0.930 . S
C694 C695 1.355 . S
C694 C696 1.415 . S
C695 C694 1.355 . S
C695 C697 1.419 . S
C696 C694 1.415 . S
C696 C701 1.425 . S
C696 C703 1.409 . S
C697 H689 0.930 . S
C697 C695 1.419 . S
C697 C698 1.362 . S
C698 H690 0.930 . S
C698 C697 1.362 . S
C698 C701 1.409 . S
C699 H691 0.930 . S
C699 C700 1.355 . S
C699 C701 1.415 . S
C700 C699 1.355 . S
C700 C702 1.419 . S
C701 C696 1.425 . S
C701 C698 1.409 . S
C701 C699 1.415 . S
C702 H692 0.930 . S
C702 C700 1.419 . S
C702 C703 1.362 . S
C703 H693 0.930 . S
C703 C696 1.409 . S
C703 C702 1.362 . S
H704 C710 0.930 . S
H705 C713 0.930 . S
H706 C714 0.930 . S
H707 C715 0.930 . S
H708 C718 0.930 . S
H709 C719 0.930 . S
C710 H704 0.930 . S
C710 C711 1.355 . S
C710 C712 1.415 . S
C711 C710 1.355 . S
C711 C713 1.419 . S
C712 C710 1.415 . S
C712 C717 1.425 1_455 S
C712 C719 1.409 1_455 S
C713 H705 0.930 . S
C713 C711 1.419 . S
C713 C714 1.362 . S
C714 H706 0.930 . S
C714 C713 1.362 . S
C714 C717 1.409 1_455 S
C715 H707 0.930 . S
C715 C716 1.355 . S
C715 C717 1.415 . S
C716 C715 1.355 . S
C716 C718 1.419 . S
C717 C712 1.425 1_655 S
C717 C714 1.409 1_655 S
C717 C715 1.415 . S
C718 H708 0.930 . S
C718 C716 1.419 . S
C718 C719 1.362 . S
C719 H709 0.930 . S
C719 C712 1.409 1_655 S
C719 C718 1.362 . S
H720 C726 0.930 . S
H721 C729 0.930 . S
H722 C730 0.930 . S
H723 C731 0.930 . S
H724 C734 0.930 . S
H725 C735 0.930 . S
C726 H720 0.930 . S
C726 C727 1.355 . S
C726 C728 1.415 . S
C727 C726 1.355 . S
C727 C729 1.419 . S
C728 C726 1.415 . S
C728 C733 1.425 . S
C728 C735 1.409 . S
C729 H721 0.930 . S
C729 C727 1.419 . S
C729 C730 1.362 . S
C730 H722 0.930 . S
C730 C729 1.362 . S
C730 C733 1.409 . S
C731 H723 0.930 . S
C731 C732 1.355 . S
C731 C733 1.415 . S
C732 C731 1.355 . S
C732 C734 1.419 . S
C733 C728 1.425 . S
C733 C730 1.409 . S
C733 C731 1.415 . S
C734 H724 0.930 . S
C734 C732 1.419 . S
C734 C735 1.362 . S
C735 H725 0.930 . S
C735 C728 1.409 . S
C735 C734 1.362 . S
H736 C742 0.930 . S
H737 C745 0.930 . S
H738 C746 0.930 . S
H739 C747 0.930 . S
H740 C750 0.930 . S
H741 C751 0.930 . S
C742 H736 0.930 . S
C742 C743 1.355 . S
C742 C744 1.415 . S
C743 C742 1.355 . S
C743 C745 1.419 . S
C744 C742 1.415 . S
C744 C749 1.425 1_655 S
C744 C751 1.409 1_655 S
C745 H737 0.930 . S
C745 C743 1.419 . S
C745 C746 1.362 . S
C746 H738 0.930 . S
C746 C745 1.362 . S
C746 C749 1.409 1_655 S
C747 H739 0.930 . S
C747 C748 1.355 . S
C747 C749 1.415 . S
C748 C747 1.355 . S
C748 C750 1.419 . S
C749 C744 1.425 1_455 S
C749 C746 1.409 1_455 S
C749 C747 1.415 . S
C750 H740 0.930 . S
C750 C748 1.419 . S
C750 C751 1.362 . S
C751 H741 0.930 . S
C751 C744 1.409 1_455 S
C751 C750 1.362 . S
H752 C758 0.930 . S
H753 C761 0.930 . S
H754 C762 0.930 . S
H755 C763 0.930 . S
H756 C766 0.930 . S
H757 C767 0.930 . S
C758 H752 0.930 . S
C758 C759 1.355 . S
C758 C760 1.415 . S
C759 C758 1.355 . S
C759 C761 1.419 . S
C760 C758 1.415 . S
C760 C765 1.425 . S
C760 C767 1.409 . S
C761 H753 0.930 . S
C761 C759 1.419 . S
C761 C762 1.362 . S
C762 H754 0.930 . S
C762 C761 1.362 . S
C762 C765 1.409 . S
C763 H755 0.930 . S
C763 C764 1.355 . S
C763 C765 1.415 . S
C764 C763 1.355 . S
C764 C766 1.419 . S
C765 C760 1.425 . S
C765 C762 1.409 . S
C765 C763 1.415 . S
C766 H756 0.930 . S
C766 C764 1.419 . S
C766 C767 1.362 . S
C767 H757 0.930 . S
C767 C760 1.409 . S
C767 C766 1.362 . S
H768 C774 0.930 . S
H769 C777 0.930 . S
H770 C778 0.930 . S
H771 C779 0.930 . S
H772 C782 0.930 . S
H773 C783 0.930 . S
C774 H768 0.930 . S
C774 C775 1.355 . S
C774 C776 1.415 . S
C775 C774 1.355 . S
C775 C777 1.419 . S
C776 C774 1.415 . S
C776 C781 1.425 1_455 S
C776 C783 1.409 1_455 S
C777 H769 0.930 . S
C777 C775 1.419 . S
C777 C778 1.362 . S
C778 H770 0.930 . S
C778 C777 1.362 . S
C778 C781 1.409 1_455 S
C779 H771 0.930 . S
C779 C780 1.355 . S
C779 C781 1.415 . S
C780 C779 1.355 . S
C780 C782 1.419 . S
C781 C776 1.425 1_655 S
C781 C778 1.409 1_655 S
C781 C779 1.415 . S
C782 H772 0.930 . S
C782 C780 1.419 . S
C782 C783 1.362 . S
C783 H773 0.930 . S
C783 C776 1.409 1_655 S
C783 C782 1.362 . S
H784 C790 0.930 . S
H785 C793 0.930 . S
H786 C794 0.930 . S
H787 C795 0.930 . S
H788 C798 0.930 . S
H789 C799 0.930 . S
C790 H784 0.930 . S
C790 C791 1.355 . S
C790 C792 1.415 . S
C791 C790 1.355 . S
C791 C793 1.419 . S
C792 C790 1.415 . S
C792 C797 1.425 . S
C792 C799 1.409 . S
C793 H785 0.930 . S
C793 C791 1.419 . S
C793 C794 1.362 . S
C794 H786 0.930 . S
C794 C793 1.362 . S
C794 C797 1.409 . S
C795 H787 0.930 . S
C795 C796 1.355 . S
C795 C797 1.415 . S
C796 C795 1.355 . S
C796 C798 1.419 . S
C797 C792 1.425 . S
C797 C794 1.409 . S
C797 C795 1.415 . S
C798 H788 0.930 . S
C798 C796 1.419 . S
C798 C799 1.362 . S
C799 H789 0.930 . S
C799 C792 1.409 . S
C799 C798 1.362 . S
H800 C806 0.930 . S
H801 C809 0.930 . S
H802 C810 0.930 . S
H803 C811 0.930 . S
H804 C814 0.930 . S
H805 C815 0.930 . S
C806 H800 0.930 . S
C806 C807 1.355 . S
C806 C808 1.415 . S
C807 C806 1.355 . S
C807 C809 1.419 . S
C808 C806 1.415 . S
C808 C813 1.425 1_565 S
C808 C815 1.409 1_565 S
C809 H801 0.930 . S
C809 C807 1.419 . S
C809 C810 1.362 . S
C810 H802 0.930 . S
C810 C809 1.362 . S
C810 C813 1.409 1_565 S
C811 H803 0.930 . S
C811 C812 1.355 . S
C811 C813 1.415 . S
C812 C811 1.355 . S
C812 C814 1.419 . S
C813 C808 1.425 1_545 S
C813 C810 1.409 1_545 S
C813 C811 1.415 . S
C814 H804 0.930 . S
C814 C812 1.419 . S
C814 C815 1.362 . S
C815 H805 0.930 . S
C815 C808 1.409 1_545 S
C815 C814 1.362 . S
H816 C822 0.930 . S
H817 C825 0.930 . S
H818 C826 0.930 . S
H819 C827 0.930 . S
H820 C830 0.930 . S
H821 C831 0.930 . S
C822 H816 0.930 . S
C822 C823 1.355 . S
C822 C824 1.415 . S
C823 C822 1.355 . S
C823 C825 1.419 . S
C824 C822 1.415 . S
C824 C829 1.425 . S
C824 C831 1.409 . S
C825 H817 0.930 . S
C825 C823 1.419 . S
C825 C826 1.362 . S
C826 H818 0.930 . S
C826 C825 1.362 . S
C826 C829 1.409 . S
C827 H819 0.930 . S
C827 C828 1.355 . S
C827 C829 1.415 . S
C828 C827 1.355 . S
C828 C830 1.419 . S
C829 C824 1.425 . S
C829 C826 1.409 . S
C829 C827 1.415 . S
C830 H820 0.930 . S
C830 C828 1.419 . S
C830 C831 1.362 . S
C831 H821 0.930 . S
C831 C824 1.409 . S
C831 C830 1.362 . S
H832 C838 0.930 . S
H833 C841 0.930 . S
H834 C842 0.930 . S
H835 C843 0.930 . S
H836 C846 0.930 . S
H837 C847 0.930 . S
C838 H832 0.930 . S
C838 C839 1.355 . S
C838 C840 1.415 . S
C839 C838 1.355 . S
C839 C841 1.419 . S
C840 C838 1.415 . S
C840 C845 1.425 1_545 S
C840 C847 1.409 1_545 S
C841 H833 0.930 . S
C841 C839 1.419 . S
C841 C842 1.362 . S
C842 H834 0.930 . S
C842 C841 1.362 . S
C842 C845 1.409 1_545 S
C843 H835 0.930 . S
C843 C844 1.355 . S
C843 C845 1.415 . S
C844 C843 1.355 . S
C844 C846 1.419 . S
C845 C840 1.425 1_565 S
C845 C842 1.409 1_565 S
C845 C843 1.415 . S
C846 H836 0.930 . S
C846 C844 1.419 . S
C846 C847 1.362 . S
C847 H837 0.930 . S
C847 C840 1.409 1_565 S
C847 C846 1.362 . S
H848 C854 0.930 . S
H849 C857 0.930 . S
H850 C858 0.930 . S
H851 C859 0.930 . S
H852 C862 0.930 . S
H853 C863 0.930 . S
C854 H848 0.930 . S
C854 C855 1.355 . S
C854 C856 1.415 . S
C855 C854 1.355 . S
C855 C857 1.419 . S
C856 C854 1.415 . S
C856 C861 1.425 . S
C856 C863 1.409 . S
C857 H849 0.930 . S
C857 C855 1.419 . S
C857 C858 1.362 . S
C858 H850 0.930 . S
C858 C857 1.362 . S
C858 C861 1.409 . S
C859 H851 0.930 . S
C859 C860 1.355 . S
C859 C861 1.415 . S
C860 C859 1.355 . S
C860 C862 1.419 . S
C861 C856 1.425 . S
C861 C858 1.409 . S
C861 C859 1.415 . S
C862 H852 0.930 . S
C862 C860 1.419 . S
C862 C863 1.362 . S
C863 H853 0.930 . S
C863 C856 1.409 . S
C863 C862 1.362 . S
H864 C870 0.930 . S
H865 C873 0.930 . S
H866 C874 0.930 . S
H867 C875 0.930 . S
H868 C878 0.930 . S
H869 C879 0.930 . S
C870 H864 0.930 . S
C870 C871 1.355 . S
C870 C872 1.415 . S
C871 C870 1.355 . S
C871 C873 1.419 . S
C872 C870 1.415 . S
C872 C877 1.425 1_545 S
C872 C879 1.409 1_545 S
C873 H865 0.930 . S
C873 C871 1.419 . S
C873 C874 1.362 . S
C874 H866 0.930 . S
C874 C873 1.362 . S
C874 C877 1.409 1_545 S
C875 H867 0.930 . S
C875 C876 1.355 . S
C875 C877 1.415 . S
C876 C875 1.355 . S
C876 C878 1.419 . S
C877 C872 1.425 1_565 S
C877 C874 1.409 1_565 S
C877 C875 1.415 . S
C878 H868 0.930 . S
C878 C876 1.419 . S
C878 C879 1.362 . S
C879 H869 0.930 . S
C879 C872 1.409 1_565 S
C879 C878 1.362 . S
H880 C886 0.930 . S
H881 C889 0.930 . S
H882 C890 0.930 . S
H883 C891 0.930 . S
H884 C894 0.930 . S
H885 C895 0.930 . S
C886 H880 0.930 . S
C886 C887 1.355 . S
C886 C888 1.415 . S
C887 C886 1.355 . S
C887 C889 1.419 . S
C888 C886 1.415 . S
C888 C893 1.425 . S
C888 C895 1.409 . S
C889 H881 0.930 . S
C889 C887 1.419 . S
C889 C890 1.362 . S
C890 H882 0.930 . S
C890 C889 1.362 . S
C890 C893 1.409 . S
C891 H883 0.930 . S
C891 C892 1.355 . S
C891 C893 1.415 . S
C892 C891 1.355 . S
C892 C894 1.419 . S
C893 C888 1.425 . S
C893 C890 1.409 . S
C893 C891 1.415 . S
C894 H884 0.930 . S
C894 C892 1.419 . S
C894 C895 1.362 . S
C895 H885 0.930 . S
C895 C888 1.409 . S
C895 C894 1.362 . S
H896 C902 0.930 . S
H897 C905 0.930 . S
H898 C906 0.930 . S
H899 C907 0.930 . S
H900 C910 0.930 . S
H901 C911 0.930 . S
C902 H896 0.930 . S
C902 C903 1.355 . S
C902 C904 1.415 . S
C903 C902 1.355 . S
C903 C905 1.419 . S
C904 C902 1.415 . S
C904 C909 1.425 1_545 S
C904 C911 1.409 1_545 S
C905 H897 0.930 . S
C905 C903 1.419 . S
C905 C906 1.362 . S
C906 H898 0.930 . S
C906 C905 1.362 . S
C906 C909 1.409 1_545 S
C907 H899 0.930 . S
C907 C908 1.355 . S
C907 C909 1.415 . S
C908 C907 1.355 . S
C908 C910 1.419 . S
C909 C904 1.425 1_565 S
C909 C906 1.409 1_565 S
C909 C907 1.415 . S
C910 H900 0.930 . S
C910 C908 1.419 . S
C910 C911 1.362 . S
C911 H901 0.930 . S
C911 C904 1.409 1_565 S
C911 C910 1.362 . S
H912 C918 0.930 . S
H913 C921 0.930 . S
H914 C922 0.930 . S
H915 C923 0.930 . S
H916 C926 0.930 . S
H917 C927 0.930 . S
C918 H912 0.930 . S
C918 C919 1.355 . S
C918 C920 1.415 . S
C919 C918 1.355 . S
C919 C921 1.419 . S
C920 C918 1.415 . S
C920 C925 1.425 . S
C920 C927 1.409 . S
C921 H913 0.930 . S
C921 C919 1.419 . S
C921 C922 1.362 . S
C922 H914 0.930 . S
C922 C921 1.362 . S
C922 C925 1.409 . S
C923 H915 0.930 . S
C923 C924 1.355 . S
C923 C925 1.415 . S
C924 C923 1.355 . S
C924 C926 1.419 . S
C925 C920 1.425 . S
C925 C922 1.409 . S
C925 C923 1.415 . S
C926 H916 0.930 . S
C926 C924 1.419 . S
C926 C927 1.362 . S
C927 H917 0.930 . S
C927 C920 1.409 . S
C927 C926 1.362 . S
H928 C934 0.930 . S
H929 C937 0.930 . S
H930 C938 0.930 . S
H931 C939 0.930 . S
H932 C942 0.930 . S
H933 C943 0.930 . S
C934 H928 0.930 . S
C934 C935 1.355 . S
C934 C936 1.415 . S
C935 C934 1.355 . S
C935 C937 1.419 . S
C936 C934 1.415 . S
C936 C941 1.425 1_554 S
C936 C943 1.409 1_554 S
C937 H929 0.930 . S
C937 C935 1.419 . S
C937 C938 1.362 . S
C938 H930 0.930 . S
C938 C937 1.362 . S
C938 C941 1.409 1_554 S
C939 H931 0.930 . S
C939 C940 1.355 . S
C939 C941 1.415 . S
C940 C939 1.355 . S
C940 C942 1.419 . S
C941 C936 1.425 1_556 S
C941 C938 1.409 1_556 S
C941 C939 1.415 . S
C942 H932 0.930 . S
C942 C940 1.419 . S
C942 C943 1.362 . S
C943 H933 0.930 . S
C943 C936 1.409 1_556 S
C943 C942 1.362 . S
H944 C950 0.930 . S
H945 C953 0.930 . S
H946 C954 0.930 . S
H947 C955 0.930 . S
H948 C958 0.930 . S
H949 C959 0.930 . S
C950 H944 0.930 . S
C950 C951 1.355 . S
C950 C952 1.415 . S
C951 C950 1.355 . S
C951 C953 1.419 . S
C952 C950 1.415 . S
C952 C957 1.425 1_554 S
C952 C959 1.409 1_554 S
C953 H945 0.930 . S
C953 C951 1.419 . S
C953 C954 1.362 . S
C954 H946 0.930 . S
C954 C953 1.362 . S
C954 C957 1.409 1_554 S
C955 H947 0.930 . S
C955 C956 1.355 . S
C955 C957 1.415 . S
C956 C955 1.355 . S
C956 C958 1.419 . S
C957 C952 1.425 1_556 S
C957 C954 1.409 1_556 S
C957 C955 1.415 . S
C958 H948 0.930 . S
C958 C956 1.419 . S
C958 C959 1.362 . S
C959 H949 0.930 . S
C959 C952 1.409 1_556 S
C959 C958 1.362 . S
H960 C966 0.930 . S
H961 C969 0.930 . S
H962 C970 0.930 . S
H963 C971 0.930 . S
H964 C974 0.930 . S
H965 C975 0.930 . S
C966 H960 0.930 . S
C966 C967 1.355 . S
C966 C968 1.415 . S
C967 C966 1.355 . S
C967 C969 1.419 . S
C968 C966 1.415 . S
C968 C973 1.425 . S
C968 C975 1.409 . S
C969 H961 0.930 . S
C969 C967 1.419 . S
C969 C970 1.362 . S
C970 H962 0.930 . S
C970 C969 1.362 . S
C970 C973 1.409 . S
C971 H963 0.930 . S
C971 C972 1.355 . S
C971 C973 1.415 . S
C972 C971 1.355 . S
C972 C974 1.419 . S
C973 C968 1.425 . S
C973 C970 1.409 . S
C973 C971 1.415 . S
C974 H964 0.930 . S
C974 C972 1.419 . S
C974 C975 1.362 . S
C975 H965 0.930 . S
C975 C968 1.409 . S
C975 C974 1.362 . S
H976 C982 0.930 . S
H977 C985 0.930 . S
H978 C986 0.930 . S
H979 C987 0.930 . S
H980 C990 0.930 . S
H981 C991 0.930 . S
C982 H976 0.930 . S
C982 C983 1.355 . S
C982 C984 1.415 . S
C983 C982 1.355 . S
C983 C985 1.419 . S
C984 C982 1.415 . S
C984 C989 1.425 1_554 S
C984 C991 1.409 1_554 S
C985 H977 0.930 . S
C985 C983 1.419 . S
C985 C986 1.362 . S
C986 H978 0.930 . S
C986 C985 1.362 . S
C986 C989 1.409 1_554 S
C987 H979 0.930 . S
C987 C988 1.355 . S
C987 C989 1.415 . S
C988 C987 1.355 . S
C988 C990 1.419 . S
C989 C984 1.425 1_556 S
C989 C986 1.409 1_556 S
C989 C987 1.415 . S
C990 H980 0.930 . S
C990 C988 1.419 . S
C990 C991 1.362 . S
C991 H981 0.930 . S
C991 C984 1.409 1_556 S
C991 C990 1.362 . S
H992 C998 0.930 . S
H993 C1001 0.930 . S
H994 C1002 0.930 . S
H995 C1003 0.930 . S
H996 C1006 0.930 . S
H997 C1007 0.930 . S
C998 H992 0.930 . S
C998 C999 1.355 . S
C998 C1000 1.415 . S
C999 C998 1.355 . S
C999 C1001 1.419 . S
C1000 C998 1.415 . S
C1000 C1005 1.425 . S
C1000 C1007 1.409 . S
C1001 H993 0.930 . S
C1001 C999 1.419 . S
C1001 C1002 1.362 . S
C1002 H994 0.930 . S
C1002 C1001 1.362 . S
C1002 C1005 1.409 . S
C1003 H995 0.930 . S
C1003 C1004 1.355 . S
C1003 C1005 1.415 . S
C1004 C1003 1.355 . S
C1004 C1006 1.419 . S
C1005 C1000 1.425 . S
C1005 C1002 1.409 . S
C1005 C1003 1.415 . S
C1006 H996 0.930 . S
C1006 C1004 1.419 . S
C1006 C1007 1.362 . S
C1007 H997 0.930 . S
C1007 C1000 1.409 . S
C1007 C1006 1.362 . S
H1008 C1014 0.930 . S
H1009 C1017 0.930 . S
H1010 C1018 0.930 . S
H1011 C1019 0.930 . S
H1012 C1022 0.930 . S
H1013 C1023 0.930 . S
C1014 H1008 0.930 . S
C1014 C1015 1.355 . S
C1014 C1016 1.415 . S
C1015 C1014 1.355 . S
C1015 C1017 1.419 . S
C1016 C1014 1.415 . S
C1016 C1021 1.425 1_554 S
C1016 C1023 1.409 1_554 S
C1017 H1009 0.930 . S
C1017 C1015 1.419 . S
C1017 C1018 1.362 . S
C1018 H1010 0.930 . S
C1018 C1017 1.362 . S
C1018 C1021 1.409 1_554 S
C1019 H1011 0.930 . S
C1019 C1020 1.355 . S
C1019 C1021 1.415 . S
C1020 C1019 1.355 . S
C1020 C1022 1.419 . S
C1021 C1016 1.425 1_556 S
C1021 C1018 1.409 1_556 S
C1021 C1019 1.415 . S
C1022 H1012 0.930 . S
C1022 C1020 1.419 . S
C1022 C1023 1.362 . S
C1023 H1013 0.930 . S
C1023 C1016 1.409 1_556 S
C1023 C1022 1.362 . S
H1024 C1030 0.930 . S
H1025 C1033 0.930 . S
H1026 C1034 0.930 . S
H1027 C1035 0.930 . S
H1028 C1038 0.930 . S
H1029 C1039 0.930 . S
C1030 H1024 0.930 . S
C1030 C1031 1.355 . S
C1030 C1032 1.415 . S
C1031 C1030 1.355 . S
C1031 C1033 1.419 . S
C1032 C1030 1.415 . S
C1032 C1037 1.425 . S
C1032 C1039 1.409 . S
C1033 H1025 0.930 . S
C1033 C1031 1.419 . S
C1033 C1034 1.362 . S
C1034 H1026 0.930 . S
C1034 C1033 1.362 . S
C1034 C1037 1.409 . S
C1035 H1027 0.930 . S
C1035 C1036 1.355 . S
C1035 C1037 1.415 . S
C1036 C1035 1.355 . S
C1036 C1038 1.419 . S
C1037 C1032 1.425 . S
C1037 C1034 1.409 . S
C1037 C1035 1.415 . S
C1038 H1028 0.930 . S
C1038 C1036 1.419 . S
C1038 C1039 1.362 . S
C1039 H1029 0.930 . S
C1039 C1032 1.409 . S
C1039 C1038 1.362 . S
H1040 C1046 0.930 . S
H1041 C1049 0.930 . S
H1042 C1050 0.930 . S
H1043 C1051 0.930 . S
H1044 C1054 0.930 . S
H1045 C1055 0.930 . S
C1046 H1040 0.930 . S
C1046 C1047 1.355 . S
C1046 C1048 1.415 . S
C1047 C1046 1.355 . S
C1047 C1049 1.419 . S
C1048 C1046 1.415 . S
C1048 C1053 1.425 . S
C1048 C1055 1.409 . S
C1049 H1041 0.930 . S
C1049 C1047 1.419 . S
C1049 C1050 1.362 . S
C1050 H1042 0.930 . S
C1050 C1049 1.362 . S
C1050 C1053 1.409 . S
C1051 H1043 0.930 . S
C1051 C1052 1.355 . S
C1051 C1053 1.415 . S
C1052 C1051 1.355 . S
C1052 C1054 1.419 . S
C1053 C1048 1.425 . S
C1053 C1050 1.409 . S
C1053 C1051 1.415 . S
C1054 H1044 0.930 . S
C1054 C1052 1.419 . S
C1054 C1055 1.362 . S
C1055 H1045 0.930 . S
C1055 C1048 1.409 . S
C1055 C1054 1.362 . S
H1056 C1062 0.930 . S
H1057 C1065 0.930 . S
H1058 C1066 0.930 . S
H1059 C1067 0.930 . S
H1060 C1070 0.930 . S
H1061 C1071 0.930 . S
C1062 H1056 0.930 . S
C1062 C1063 1.355 . S
C1062 C1064 1.415 . S
C1063 C1062 1.355 . S
C1063 C1065 1.419 . S
C1064 C1062 1.415 . S
C1064 C1069 1.425 . S
C1064 C1071 1.409 . S
C1065 H1057 0.930 . S
C1065 C1063 1.419 . S
C1065 C1066 1.362 . S
C1066 H1058 0.930 . S
C1066 C1065 1.362 . S
C1066 C1069 1.409 . S
C1067 H1059 0.930 . S
C1067 C1068 1.355 . S
C1067 C1069 1.415 . S
C1068 C1067 1.355 . S
C1068 C1070 1.419 . S
C1069 C1064 1.425 . S
C1069 C1066 1.409 . S
C1069 C1067 1.415 . S
C1070 H1060 0.930 . S
C1070 C1068 1.419 . S
C1070 C1071 1.362 . S
C1071 H1061 0.930 . S
C1071 C1064 1.409 . S
C1071 C1070 1.362 . S
H1072 C1078 0.930 . S
H1073 C1081 0.930 . S
H1074 C1082 0.930 . S
H1075 C1083 0.930 . S
H1076 C1086 0.930 . S
H1077 C1087 0.930 . S
C1078 H1072 0.930 . S
C1078 C1079 1.355 . S
C1078 C1080 1.415 . S
C1079 C1078 1.355 . S
C1079 C1081 1.419 . S
C1080 C1078 1.415 . S
C1080 C1085 1.425 . S
C1080 C1087 1.409 . S
C1081 H1073 0.930 . S
C1081 C1079 1.419 . S
C1081 C1082 1.362 . S
C1082 H1074 0.930 . S
C1082 C1081 1.362 . S
C1082 C1085 1.409 . S
C1083 H1075 0.930 . S
C1083 C1084 1.355 . S
C1083 C1085 1.415 . S
C1084 C1083 1.355 . S
C1084 C1086 1.419 . S
C1085 C1080 1.425 . S
C1085 C1082 1.409 . S
C1085 C1083 1.415 . S
C1086 H1076 0.930 . S
C1086 C1084 1.419 . S
C1086 C1087 1.362 . S
C1087 H1077 0.930 . S
C1087 C1080 1.409 . S
C1087 C1086 1.362 . S
H1088 C1094 0.930 . S
H1089 C1097 0.930 . S
H1090 C1098 0.930 . S
H1091 C1099 0.930 . S
H1092 C1102 0.930 . S
H1093 C1103 0.930 . S
C1094 H1088 0.930 . S
C1094 C1095 1.355 . S
C1094 C1096 1.415 . S
C1095 C1094 1.355 . S
C1095 C1097 1.419 . S
C1096 C1094 1.415 . S
C1096 C1101 1.425 . S
C1096 C1103 1.409 . S
C1097 H1089 0.930 . S
C1097 C1095 1.419 . S
C1097 C1098 1.362 . S
C1098 H1090 0.930 . S
C1098 C1097 1.362 . S
C1098 C1101 1.409 . S
C1099 H1091 0.930 . S
C1099 C1100 1.355 . S
C1099 C1101 1.415 . S
C1100 C1099 1.355 . S
C1100 C1102 1.419 . S
C1101 C1096 1.425 . S
C1101 C1098 1.409 . S
C1101 C1099 1.415 . S
C1102 H1092 0.930 . S
C1102 C1100 1.419 . S
C1102 C1103 1.362 . S
C1103 H1093 0.930 . S
C1103 C1096 1.409 . S
C1103 C1102 1.362 . S
H1104 C1110 0.930 . S
H1105 C1113 0.930 . S
H1106 C1114 0.930 . S
H1107 C1115 0.930 . S
H1108 C1118 0.930 . S
H1109 C1119 0.930 . S
C1110 H1104 0.930 . S
C1110 C1111 1.355 . S
C1110 C1112 1.415 . S
C1111 C1110 1.355 . S
C1111 C1113 1.419 . S
C1112 C1110 1.415 . S
C1112 C1117 1.425 . S
C1112 C1119 1.409 . S
C1113 H1105 0.930 . S
C1113 C1111 1.419 . S
C1113 C1114 1.362 . S
C1114 H1106 0.930 . S
C1114 C1113 1.362 . S
C1114 C1117 1.409 . S
C1115 H1107 0.930 . S
C1115 C1116 1.355 . S
C1115 C1117 1.415 . S
C1116 C1115 1.355 . S
C1116 C1118 1.419 . S
C1117 C1112 1.425 . S
C1117 C1114 1.409 . S
C1117 C1115 1.415 . S
C1118 H1108 0.930 . S
C1118 C1116 1.419 . S
C1118 C1119 1.362 . S
C1119 H1109 0.930 . S
C1119 C1112 1.409 . S
C1119 C1118 1.362 . S
H1120 C1126 0.930 . S
H1121 C1129 0.930 . S
H1122 C1130 0.930 . S
H1123 C1131 0.930 . S
H1124 C1134 0.930 . S
H1125 C1135 0.930 . S
C1126 H1120 0.930 . S
C1126 C1127 1.355 . S
C1126 C1128 1.415 . S
C1127 C1126 1.355 . S
C1127 C1129 1.419 . S
C1128 C1126 1.415 . S
C1128 C1133 1.425 . S
C1128 C1135 1.409 . S
C1129 H1121 0.930 . S
C1129 C1127 1.419 . S
C1129 C1130 1.362 . S
C1130 H1122 0.930 . S
C1130 C1129 1.362 . S
C1130 C1133 1.409 . S
C1131 H1123 0.930 . S
C1131 C1132 1.355 . S
C1131 C1133 1.415 . S
C1132 C1131 1.355 . S
C1132 C1134 1.419 . S
C1133 C1128 1.425 . S
C1133 C1130 1.409 . S
C1133 C1131 1.415 . S
C1134 H1124 0.930 . S
C1134 C1132 1.419 . S
C1134 C1135 1.362 . S
C1135 H1125 0.930 . S
C1135 C1128 1.409 . S
C1135 C1134 1.362 . S
H1136 C1142 0.930 . S
H1137 C1145 0.930 . S
H1138 C1146 0.930 . S
H1139 C1147 0.930 . S
H1140 C1150 0.930 . S
H1141 C1151 0.930 . S
C1142 H1136 0.930 . S
C1142 C1143 1.355 . S
C1142 C1144 1.415 . S
C1143 C1142 1.355 . S
C1143 C1145 1.419 . S
C1144 C1142 1.415 . S
C1144 C1149 1.425 . S
C1144 C1151 1.409 . S
C1145 H1137 0.930 . S
C1145 C1143 1.419 . S
C1145 C1146 1.362 . S
C1146 H1138 0.930 . S
C1146 C1145 1.362 . S
C1146 C1149 1.409 . S
C1147 H1139 0.930 . S
C1147 C1148 1.355 . S
C1147 C1149 1.415 . S
C1148 C1147 1.355 . S
C1148 C1150 1.419 . S
C1149 C1144 1.425 . S
C1149 C1146 1.409 . S
C1149 C1147 1.415 . S
C1150 H1140 0.930 . S
C1150 C1148 1.419 . S
C1150 C1151 1.362 . S
C1151 H1141 0.930 . S
C1151 C1144 1.409 . S
C1151 C1150 1.362 . S
H1152 C1158 0.930 . S
H1153 C1161 0.930 . S
H1154 C1162 0.930 . S
H1155 C1163 0.930 . S
H1156 C1166 0.930 . S
H1157 C1167 0.930 . S
C1158 H1152 0.930 . S
C1158 C1159 1.355 . S
C1158 C1160 1.415 . S
C1159 C1158 1.355 . S
C1159 C1161 1.419 . S
C1160 C1158 1.415 . S
C1160 C1165 1.425 . S
C1160 C1167 1.409 . S
C1161 H1153 0.930 . S
C1161 C1159 1.419 . S
C1161 C1162 1.362 . S
C1162 H1154 0.930 . S
C1162 C1161 1.362 . S
C1162 C1165 1.409 . S
C1163 H1155 0.930 . S
C1163 C1164 1.355 . S
C1163 C1165 1.415 . S
C1164 C1163 1.355 . S
C1164 C1166 1.419 . S
C1165 C1160 1.425 . S
C1165 C1162 1.409 . S
C1165 C1163 1.415 . S
C1166 H1156 0.930 . S
C1166 C1164 1.419 . S
C1166 C1167 1.362 . S
C1167 H1157 0.930 . S
C1167 C1160 1.409 . S
C1167 C1166 1.362 . S
H1168 C1174 0.930 . S
H1169 C1177 0.930 . S
H1170 C1178 0.930 . S
H1171 C1179 0.930 . S
H1172 C1182 0.930 . S
H1173 C1183 0.930 . S
C1174 H1168 0.930 . S
C1174 C1175 1.355 . S
C1174 C1176 1.415 . S
C1175 C1174 1.355 . S
C1175 C1177 1.419 . S
C1176 C1174 1.415 . S
C1176 C1181 1.425 . S
C1176 C1183 1.409 . S
C1177 H1169 0.930 . S
C1177 C1175 1.419 . S
C1177 C1178 1.362 . S
C1178 H1170 0.930 . S
C1178 C1177 1.362 . S
C1178 C1181 1.409 . S
C1179 H1171 0.930 . S
C1179 C1180 1.355 . S
C1179 C1181 1.415 . S
C1180 C1179 1.355 . S
C1180 C1182 1.419 . S
C1181 C1176 1.425 . S
C1181 C1178 1.409 . S
C1181 C1179 1.415 . S
C1182 H1172 0.930 . S
C1182 C1180 1.419 . S
C1182 C1183 1.362 . S
C1183 H1173 0.930 . S
C1183 C1176 1.409 . S
C1183 C1182 1.362 . S
H1184 C1190 0.930 . S
H1185 C1193 0.930 . S
H1186 C1194 0.930 . S
H1187 C1195 0.930 . S
H1188 C1198 0.930 . S
H1189 C1199 0.930 . S
C1190 H1184 0.930 . S
C1190 C1191 1.355 . S
C1190 C1192 1.415 . S
C1191 C1190 1.355 . S
C1191 C1193 1.419 . S
C1192 C1190 1.415 . S
C1192 C1197 1.425 . S
C1192 C1199 1.409 . S
C1193 H1185 0.930 . S
C1193 C1191 1.419 . S
C1193 C1194 1.362 . S
C1194 H1186 0.930 . S
C1194 C1193 1.362 . S
C1194 C1197 1.409 . S
C1195 H1187 0.930 . S
C1195 C1196 1.355 . S
C1195 C1197 1.415 . S
C1196 C1195 1.355 . S
C1196 C1198 1.419 . S
C1197 C1192 1.425 . S
C1197 C1194 1.409 . S
C1197 C1195 1.415 . S
C1198 H1188 0.930 . S
C1198 C1196 1.419 . S
C1198 C1199 1.362 . S
C1199 H1189 0.930 . S
C1199 C1192 1.409 . S
C1199 C1198 1.362 . S
H1200 C1206 0.930 . S
H1201 C1209 0.930 . S
H1202 C1210 0.930 . S
H1203 C1211 0.930 . S
H1204 C1214 0.930 . S
H1205 C1215 0.930 . S
C1206 H1200 0.930 . S
C1206 C1207 1.355 . S
C1206 C1208 1.415 . S
C1207 C1206 1.355 . S
C1207 C1209 1.419 . S
C1208 C1206 1.415 . S
C1208 C1213 1.425 . S
C1208 C1215 1.409 . S
C1209 H1201 0.930 . S
C1209 C1207 1.419 . S
C1209 C1210 1.362 . S
C1210 H1202 0.930 . S
C1210 C1209 1.362 . S
C1210 C1213 1.409 . S
C1211 H1203 0.930 . S
C1211 C1212 1.355 . S
C1211 C1213 1.415 . S
C1212 C1211 1.355 . S
C1212 C1214 1.419 . S
C1213 C1208 1.425 . S
C1213 C1210 1.409 . S
C1213 C1211 1.415 . S
C1214 H1204 0.930 . S
C1214 C1212 1.419 . S
C1214 C1215 1.362 . S
C1215 H1205 0.930 . S
C1215 C1208 1.409 . S
C1215 C1214 1.362 . S
H1216 C1222 0.930 . S
H1217 C1225 0.930 . S
H1218 C1226 0.930 . S
H1219 C1227 0.930 . S
H1220 C1230 0.930 . S
H1221 C1231 0.930 . S
C1222 H1216 0.930 . S
C1222 C1223 1.355 . S
C1222 C1224 1.415 . S
C1223 C1222 1.355 . S
C1223 C1225 1.419 . S
C1224 C1222 1.415 . S
C1224 C1229 1.425 . S
C1224 C1231 1.409 . S
C1225 H1217 0.930 . S
C1225 C1223 1.419 . S
C1225 C1226 1.362 . S
C1226 H1218 0.930 . S
C1226 C1225 1.362 . S
C1226 C1229 1.409 . S
C1227 H1219 0.930 . S
C1227 C1228 1.355 . S
C1227 C1229 1.415 . S
C1228 C1227 1.355 . S
C1228 C1230 1.419 . S
C1229 C1224 1.425 . S
C1229 C1226 1.409 . S
C1229 C1227 1.415 . S
C1230 H1220 0.930 . S
C1230 C1228 1.419 . S
C1230 C1231 1.362 . S
C1231 H1221 0.930 . S
C1231 C1224 1.409 . S
C1231 C1230 1.362 . S
H1232 C1238 0.930 . S
H1233 C1241 0.930 . S
H1234 C1242 0.930 . S
H1235 C1243 0.930 . S
H1236 C1246 0.930 . S
H1237 C1247 0.930 . S
C1238 H1232 0.930 . S
C1238 C1239 1.355 . S
C1238 C1240 1.415 . S
C1239 C1238 1.355 . S
C1239 C1241 1.419 . S
C1240 C1238 1.415 . S
C1240 C1245 1.425 . S
C1240 C1247 1.409 . S
C1241 H1233 0.930 . S
C1241 C1239 1.419 . S
C1241 C1242 1.362 . S
C1242 H1234 0.930 . S
C1242 C1241 1.362 . S
C1242 C1245 1.409 . S
C1243 H1235 0.930 . S
C1243 C1244 1.355 . S
C1243 C1245 1.415 . S
C1244 C1243 1.355 . S
C1244 C1246 1.419 . S
C1245 C1240 1.425 . S
C1245 C1242 1.409 . S
C1245 C1243 1.415 . S
C1246 H1236 0.930 . S
C1246 C1244 1.419 . S
C1246 C1247 1.362 . S
C1247 H1237 0.930 . S
C1247 C1240 1.409 . S
C1247 C1246 1.362 . S
H1248 C1254 0.930 . S
H1249 C1257 0.930 . S
H1250 C1258 0.930 . S
H1251 C1259 0.930 . S
H1252 C1262 0.930 . S
H1253 C1263 0.930 . S
C1254 H1248 0.930 . S
C1254 C1255 1.355 . S
C1254 C1256 1.415 . S
C1255 C1254 1.355 . S
C1255 C1257 1.419 . S
C1256 C1254 1.415 . S
C1256 C1261 1.425 . S
C1256 C1263 1.409 . S
C1257 H1249 0.930 . S
C1257 C1255 1.419 . S
C1257 C1258 1.362 . S
C1258 H1250 0.930 . S
C1258 C1257 1.362 . S
C1258 C1261 1.409 . S
C1259 H1251 0.930 . S
C1259 C1260 1.355 . S
C1259 C1261 1.415 . S
C1260 C1259 1.355 . S
C1260 C1262 1.419 . S
C1261 C1256 1.425 . S
C1261 C1258 1.409 . S
C1261 C1259 1.415 . S
C1262 H1252 0.930 . S
C1262 C1260 1.419 . S
C1262 C1263 1.362 . S
C1263 H1253 0.930 . S
C1263 C1256 1.409 . S
C1263 C1262 1.362 . S
H1264 C1270 0.930 . S
H1265 C1273 0.930 . S
H1266 C1274 0.930 . S
H1267 C1275 0.930 . S
H1268 C1278 0.930 . S
H1269 C1279 0.930 . S
C1270 H1264 0.930 . S
C1270 C1271 1.355 . S
C1270 C1272 1.415 . S
C1271 C1270 1.355 . S
C1271 C1273 1.419 . S
C1272 C1270 1.415 . S
C1272 C1277 1.425 . S
C1272 C1279 1.409 . S
C1273 H1265 0.930 . S
C1273 C1271 1.419 . S
C1273 C1274 1.362 . S
C1274 H1266 0.930 . S
C1274 C1273 1.362 . S
C1274 C1277 1.409 . S
C1275 H1267 0.930 . S
C1275 C1276 1.355 . S
C1275 C1277 1.415 . S
C1276 C1275 1.355 . S
C1276 C1278 1.419 . S
C1277 C1272 1.425 . S
C1277 C1274 1.409 . S
C1277 C1275 1.415 . S
C1278 H1268 0.930 . S
C1278 C1276 1.419 . S
C1278 C1279 1.362 . S
C1279 H1269 0.930 . S
C1279 C1272 1.409 . S
C1279 C1278 1.362 . S
H1280 C1286 0.930 . S
H1281 C1289 0.930 . S
H1282 C1290 0.930 . S
H1283 C1291 0.930 . S
H1284 C1294 0.930 . S
H1285 C1295 0.930 . S
C1286 H1280 0.930 . S
C1286 C1287 1.355 . S
C1286 C1288 1.415 . S
C1287 C1286 1.355 . S
C1287 C1289 1.419 . S
C1288 C1286 1.415 . S
C1288 C1293 1.425 . S
C1288 C1295 1.409 . S
C1289 H1281 0.930 . S
C1289 C1287 1.419 . S
C1289 C1290 1.362 . S
C1290 H1282 0.930 . S
C1290 C1289 1.362 . S
C1290 C1293 1.409 . S
C1291 H1283 0.930 . S
C1291 C1292 1.355 . S
C1291 C1293 1.415 . S
C1292 C1291 1.355 . S
C1292 C1294 1.419 . S
C1293 C1288 1.425 . S
C1293 C1290 1.409 . S
C1293 C1291 1.415 . S
C1294 H1284 0.930 . S
C1294 C1292 1.419 . S
C1294 C1295 1.362 . S
C1295 H1285 0.930 . S
C1295 C1288 1.409 . S
C1295 C1294 1.362 . S
H1296 C1302 0.930 . S
H1297 C1305 0.930 . S
H1298 C1306 0.930 . S
H1299 C1307 0.930 . S
H1300 C1310 0.930 . S
H1301 C1311 0.930 . S
C1302 H1296 0.930 . S
C1302 C1303 1.355 . S
C1302 C1304 1.415 . S
C1303 C1302 1.355 . S
C1303 C1305 1.419 . S
C1304 C1302 1.415 . S
C1304 C1309 1.425 . S
C1304 C1311 1.409 . S
C1305 H1297 0.930 . S
C1305 C1303 1.419 . S
C1305 C1306 1.362 . S
C1306 H1298 0.930 . S
C1306 C1305 1.362 . S
C1306 C1309 1.409 . S
C1307 H1299 0.930 . S
C1307 C1308 1.355 . S
C1307 C1309 1.415 . S
C1308 C1307 1.355 . S
C1308 C1310 1.419 . S
C1309 C1304 1.425 . S
C1309 C1306 1.409 . S
C1309 C1307 1.415 . S
C1310 H1300 0.930 . S
C1310 C1308 1.419 . S
C1310 C1311 1.362 . S
C1311 H1301 0.930 . S
C1311 C1304 1.409 . S
C1311 C1310 1.362 . S
H1312 C1318 0.930 . S
H1313 C1321 0.930 . S
H1314 C1322 0.930 . S
H1315 C1323 0.930 . S
H1316 C1326 0.930 . S
H1317 C1327 0.930 . S
C1318 H1312 0.930 . S
C1318 C1319 1.355 . S
C1318 C1320 1.415 . S
C1319 C1318 1.355 . S
C1319 C1321 1.419 . S
C1320 C1318 1.415 . S
C1320 C1325 1.425 . S
C1320 C1327 1.409 . S
C1321 H1313 0.930 . S
C1321 C1319 1.419 . S
C1321 C1322 1.362 . S
C1322 H1314 0.930 . S
C1322 C1321 1.362 . S
C1322 C1325 1.409 . S
C1323 H1315 0.930 . S
C1323 C1324 1.355 . S
C1323 C1325 1.415 . S
C1324 C1323 1.355 . S
C1324 C1326 1.419 . S
C1325 C1320 1.425 . S
C1325 C1322 1.409 . S
C1325 C1323 1.415 . S
C1326 H1316 0.930 . S
C1326 C1324 1.419 . S
C1326 C1327 1.362 . S
C1327 H1317 0.930 . S
C1327 C1320 1.409 . S
C1327 C1326 1.362 . S
H1328 C1334 0.930 . S
H1329 C1337 0.930 . S
H1330 C1338 0.930 . S
H1331 C1339 0.930 . S
H1332 C1342 0.930 . S
H1333 C1343 0.930 . S
C1334 H1328 0.930 . S
C1334 C1335 1.355 . S
C1334 C1336 1.415 . S
C1335 C1334 1.355 . S
C1335 C1337 1.419 . S
C1336 C1334 1.415 . S
C1336 C1341 1.425 . S
C1336 C1343 1.409 . S
C1337 H1329 0.930 . S
C1337 C1335 1.419 . S
C1337 C1338 1.362 . S
C1338 H1330 0.930 . S
C1338 C1337 1.362 . S
C1338 C1341 1.409 . S
C1339 H1331 0.930 . S
C1339 C1340 1.355 . S
C1339 C1341 1.415 . S
C1340 C1339 1.355 . S
C1340 C1342 1.419 . S
C1341 C1336 1.425 . S
C1341 C1338 1.409 . S
C1341 C1339 1.415 . S
C1342 H1332 0.930 . S
C1342 C1340 1.419 . S
C1342 C1343 1.362 . S
C1343 H1333 0.930 . S
C1343 C1336 1.409 . S
C1343 C1342 1.362 . S
H1344 C1350 0.930 . S
H1345 C1353 0.930 . S
H1346 C1354 0.930 . S
H1347 C1355 0.930 . S
H1348 C1358 0.930 . S
H1349 C1359 0.930 . S
C1350 H1344 0.930 . S
C1350 C1351 1.355 . S
C1350 C1352 1.415 . S
C1351 C1350 1.355 . S
C1351 C1353 1.419 . S
C1352 C1350 1.415 . S
C1352 C1357 1.425 . S
C1352 C1359 1.409 . S
C1353 H1345 0.930 . S
C1353 C1351 1.419 . S
C1353 C1354 1.362 . S
C1354 H1346 0.930 . S
C1354 C1353 1.362 . S
C1354 C1357 1.409 . S
C1355 H1347 0.930 . S
C1355 C1356 1.355 . S
C1355 C1357 1.415 . S
C1356 C1355 1.355 . S
C1356 C1358 1.419 . S
C1357 C1352 1.425 . S
C1357 C1354 1.409 . S
C1357 C1355 1.415 . S
C1358 H1348 0.930 . S
C1358 C1356 1.419 . S
C1358 C1359 1.362 . S
C1359 H1349 0.930 . S
C1359 C1352 1.409 . S
C1359 C1358 1.362 . S
H1360 C1366 0.930 . S
H1361 C1369 0.930 . S
H1362 C1370 0.930 . S
H1363 C1371 0.930 . S
H1364 C1374 0.930 . S
H1365 C1375 0.930 . S
C1366 H1360 0.930 . S
C1366 C1367 1.355 . S
C1366 C1368 1.415 . S
C1367 C1366 1.355 . S
C1367 C1369 1.419 . S
C1368 C1366 1.415 . S
C1368 C1373 1.425 . S
C1368 C1375 1.409 . S
C1369 H1361 0.930 . S
C1369 C1367 1.419 . S
C1369 C1370 1.362 . S
C1370 H1362 0.930 . S
C1370 C1369 1.362 . S
C1370 C1373 1.409 . S
C1371 H1363 0.930 . S
C1371 C1372 1.355 . S
C1371 C1373 1.415 . S
C1372 C1371 1.355 . S
C1372 C1374 1.419 . S
C1373 C1368 1.425 . S
C1373 C1370 1.409 . S
C1373 C1371 1.415 . S
C1374 H1364 0.930 . S
C1374 C1372 1.419 . S
C1374 C1375 1.362 . S
C1375 H1365 0.930 . S
C1375 C1368 1.409 . S
C1375 C1374 1.362 . S
H1376 C1382 0.930 . S
H1377 C1385 0.930 . S
H1378 C1386 0.930 . S
H1379 C1387 0.930 . S
H1380 C1390 0.930 . S
H1381 C1391 0.930 . S
C1382 H1376 0.930 . S
C1382 C1383 1.355 . S
C1382 C1384 1.415 . S
C1383 C1382 1.355 . S
C1383 C1385 1.419 . S
C1384 C1382 1.415 . S
C1384 C1389 1.425 . S
C1384 C1391 1.409 . S
C1385 H1377 0.930 . S
C1385 C1383 1.419 . S
C1385 C1386 1.362 . S
C1386 H1378 0.930 . S
C1386 C1385 1.362 . S
C1386 C1389 1.409 . S
C1387 H1379 0.930 . S
C1387 C1388 1.355 . S
C1387 C1389 1.415 . S
C1388 C1387 1.355 . S
C1388 C1390 1.419 . S
C1389 C1384 1.425 . S
C1389 C1386 1.409 . S
C1389 C1387 1.415 . S
C1390 H1380 0.930 . S
C1390 C1388 1.419 . S
C1390 C1391 1.362 . S
C1391 H1381 0.930 . S
C1391 C1384 1.409 . S
C1391 C1390 1.362 . S
H1392 C1398 0.930 . S
H1393 C1401 0.930 . S
H1394 C1402 0.930 . S
H1395 C1403 0.930 . S
H1396 C1406 0.930 . S
H1397 C1407 0.930 . S
C1398 H1392 0.930 . S
C1398 C1399 1.355 . S
C1398 C1400 1.415 . S
C1399 C1398 1.355 . S
C1399 C1401 1.419 . S
C1400 C1398 1.415 . S
C1400 C1405 1.425 . S
C1400 C1407 1.409 . S
C1401 H1393 0.930 . S
C1401 C1399 1.419 . S
C1401 C1402 1.362 . S
C1402 H1394 0.930 . S
C1402 C1401 1.362 . S
C1402 C1405 1.409 . S
C1403 H1395 0.930 . S
C1403 C1404 1.355 . S
C1403 C1405 1.415 . S
C1404 C1403 1.355 . S
C1404 C1406 1.419 . S
C1405 C1400 1.425 . S
C1405 C1402 1.409 . S
C1405 C1403 1.415 . S
C1406 H1396 0.930 . S
C1406 C1404 1.419 . S
C1406 C1407 1.362 . S
C1407 H1397 0.930 . S
C1407 C1400 1.409 . S
C1407 C1406 1.362 . S
H1408 C1414 0.930 . S
H1409 C1417 0.930 . S
H1410 C1418 0.930 . S
H1411 C1419 0.930 . S
H1412 C1422 0.930 . S
H1413 C1423 0.930 . S
C1414 H1408 0.930 . S
C1414 C1415 1.355 . S
C1414 C1416 1.415 . S
C1415 C1414 1.355 . S
C1415 C1417 1.419 . S
C1416 C1414 1.415 . S
C1416 C1421 1.425 . S
C1416 C1423 1.409 . S
C1417 H1409 0.930 . S
C1417 C1415 1.419 . S
C1417 C1418 1.362 . S
C1418 H1410 0.930 . S
C1418 C1417 1.362 . S
C1418 C1421 1.409 . S
C1419 H1411 0.930 . S
C1419 C1420 1.355 . S
C1419 C1421 1.415 . S
C1420 C1419 1.355 . S
C1420 C1422 1.419 . S
C1421 C1416 1.425 . S
C1421 C1418 1.409 . S
C1421 C1419 1.415 . S
C1422 H1412 0.930 . S
C1422 C1420 1.419 . S
C1422 C1423 1.362 . S
C1423 H1413 0.930 . S
C1423 C1416 1.409 . S
C1423 C1422 1.362 . S
H1424 C1430 0.930 . S
H1425 C1433 0.930 . S
H1426 C1434 0.930 . S
H1427 C1435 0.930 . S
H1428 C1438 0.930 . S
H1429 C1439 0.930 . S
C1430 H1424 0.930 . S
C1430 C1431 1.355 . S
C1430 C1432 1.415 . S
C1431 C1430 1.355 . S
C1431 C1433 1.419 . S
C1432 C1430 1.415 . S
C1432 C1437 1.425 . S
C1432 C1439 1.409 . S
C1433 H1425 0.930 . S
C1433 C1431 1.419 . S
C1433 C1434 1.362 . S
C1434 H1426 0.930 . S
C1434 C1433 1.362 . S
C1434 C1437 1.409 . S
C1435 H1427 0.930 . S
C1435 C1436 1.355 . S
C1435 C1437 1.415 . S
C1436 C1435 1.355 . S
C1436 C1438 1.419 . S
C1437 C1432 1.425 . S
C1437 C1434 1.409 . S
C1437 C1435 1.415 . S
C1438 H1428 0.930 . S
C1438 C1436 1.419 . S
C1438 C1439 1.362 . S
C1439 H1429 0.930 . S
C1439 C1432 1.409 . S
C1439 C1438 1.362 . S
H1440 C1446 0.930 . S
H1441 C1449 0.930 . S
H1442 C1450 0.930 . S
H1443 C1451 0.930 . S
H1444 C1454 0.930 . S
H1445 C1455 0.930 . S
C1446 H1440 0.930 . S
C1446 C1447 1.355 . S
C1446 C1448 1.415 . S
C1447 C1446 1.355 . S
C1447 C1449 1.419 . S
C1448 C1446 1.415 . S
C1448 C1453 1.425 . S
C1448 C1455 1.409 . S
C1449 H1441 0.930 . S
C1449 C1447 1.419 . S
C1449 C1450 1.362 . S
C1450 H1442 0.930 . S
C1450 C1449 1.362 . S
C1450 C1453 1.409 . S
C1451 H1443 0.930 . S
C1451 C1452 1.355 . S
C1451 C1453 1.415 . S
C1452 C1451 1.355 . S
C1452 C1454 1.419 . S
C1453 C1448 1.425 . S
C1453 C1450 1.409 . S
C1453 C1451 1.415 . S
C1454 H1444 0.930 . S
C1454 C1452 1.419 . S
C1454 C1455 1.362 . S
C1455 H1445 0.930 . S
C1455 C1448 1.409 . S
C1455 C1454 1.362 . S
H1456 C1462 0.930 . S
H1457 C1465 0.930 . S
H1458 C1466 0.930 . S
H1459 C1467 0.930 . S
H1460 C1470 0.930 . S
H1461 C1471 0.930 . S
C1462 H1456 0.930 . S
C1462 C1463 1.355 . S
C1462 C1464 1.415 . S
C1463 C1462 1.355 . S
C1463 C1465 1.419 . S
C1464 C1462 1.415 . S
C1464 C1469 1.425 . S
C1464 C1471 1.409 . S
C1465 H1457 0.930 . S
C1465 C1463 1.419 . S
C1465 C1466 1.362 . S
C1466 H1458 0.930 . S
C1466 C1465 1.362 . S
C1466 C1469 1.409 . S
C1467 H1459 0.930 . S
C1467 C1468 1.355 . S
C1467 C1469 1.415 . S
C1468 C1467 1.355 . S
C1468 C1470 1.419 . S
C1469 C1464 1.425 . S
C1469 C1466 1.409 . S
C1469 C1467 1.415 . S
C1470 H1460 0.930 . S
C1470 C1468 1.419 . S
C1470 C1471 1.362 . S
C1471 H1461 0.930 . S
C1471 C1464 1.409 . S
C1471 C1470 1.362 . S
H1472 C1478 0.930 . S
H1473 C1481 0.930 . S
H1474 C1482 0.930 . S
H1475 C1483 0.930 . S
H1476 C1486 0.930 . S
H1477 C1487 0.930 . S
C1478 H1472 0.930 . S
C1478 C1479 1.355 . S
C1478 C1480 1.415 . S
C1479 C1478 1.355 . S
C1479 C1481 1.419 . S
C1480 C1478 1.415 . S
C1480 C1485 1.425 . S
C1480 C1487 1.409 . S
C1481 H1473 0.930 . S
C1481 C1479 1.419 . S
C1481 C1482 1.362 . S
C1482 H1474 0.930 . S
C1482 C1481 1.362 . S
C1482 C1485 1.409 . S
C1483 H1475 0.930 . S
C1483 C1484 1.355 . S
C1483 C1485 1.415 . S
C1484 C1483 1.355 . S
C1484 C1486 1.419 . S
C1485 C1480 1.425 . S
C1485 C1482 1.409 . S
C1485 C1483 1.415 . S
C1486 H1476 0.930 . S
C1486 C1484 1.419 . S
C1486 C1487 1.362 . S
C1487 H1477 0.930 . S
C1487 C1480 1.409 . S
C1487 C1486 1.362 . S
H1488 C1494 0.930 . S
H1489 C1497 0.930 . S
H1490 C1498 0.930 . S
H1491 C1499 0.930 . S
H1492 C1502 0.930 . S
H1493 C1503 0.930 . S
C1494 H1488 0.930 . S
C1494 C1495 1.355 . S
C1494 C1496 1.415 . S
C1495 C1494 1.355 . S
C1495 C1497 1.419 . S
C1496 C1494 1.415 . S
C1496 C1501 1.425 . S
C1496 C1503 1.409 . S
C1497 H1489 0.930 . S
C1497 C1495 1.419 . S
C1497 C1498 1.362 . S
C1498 H1490 0.930 . S
C1498 C1497 1.362 . S
C1498 C1501 1.409 . S
C1499 H1491 0.930 . S
C1499 C1500 1.355 . S
C1499 C1501 1.415 . S
C1500 C1499 1.355 . S
C1500 C1502 1.419 . S
C1501 C1496 1.425 . S
C1501 C1498 1.409 . S
C1501 C1499 1.415 . S
C1502 H1492 0.930 . S
C1502 C1500 1.419 . S
C1502 C1503 1.362 . S
C1503 H1493 0.930 . S
C1503 C1496 1.409 . S
C1503 C1502 1.362 . S
H1504 C1510 0.930 . S
H1505 C1513 0.930 . S
H1506 C1514 0.930 . S
H1507 C1515 0.930 . S
H1508 C1518 0.930 . S
H1509 C1519 0.930 . S
C1510 H1504 0.930 . S
C1510 C1511 1.355 . S
C1510 C1512 1.415 . S
C1511 C1510 1.355 . S
C1511 C1513 1.419 . S
C1512 C1510 1.415 . S
C1512 C1517 1.425 . S
C1512 C1519 1.409 . S
C1513 H1505 0.930 . S
C1513 C1511 1.419 . S
C1513 C1514 1.362 . S
C1514 H1506 0.930 . S
C1514 C1513 1.362 . S
C1514 C1517 1.409 . S
C1515 H1507 0.930 . S
C1515 C1516 1.355 . S
C1515 C1517 1.415 . S
C1516 C1515 1.355 . S
C1516 C1518 1.419 . S
C1517 C1512 1.425 . S
C1517 C1514 1.409 . S
C1517 C1515 1.415 . S
C1518 H1508 0.930 . S
C1518 C1516 1.419 . S
C1518 C1519 1.362 . S
C1519 H1509 0.930 . S
C1519 C1512 1.409 . S
C1519 C1518 1.362 . S
H1520 C1526 0.930 . S
H1521 C1529 0.930 . S
H1522 C1530 0.930 . S
H1523 C1531 0.930 . S
H1524 C1534 0.930 . S
H1525 C1535 0.930 . S
C1526 H1520 0.930 . S
C1526 C1527 1.355 . S
C1526 C1528 1.415 . S
C1527 C1526 1.355 . S
C1527 C1529 1.419 . S
C1528 C1526 1.415 . S
C1528 C1533 1.425 . S
C1528 C1535 1.409 . S
C1529 H1521 0.930 . S
C1529 C1527 1.419 . S
C1529 C1530 1.362 . S
C1530 H1522 0.930 . S
C1530 C1529 1.362 . S
C1530 C1533 1.409 . S
C1531 H1523 0.930 . S
C1531 C1532 1.355 . S
C1531 C1533 1.415 . S
C1532 C1531 1.355 . S
C1532 C1534 1.419 . S
C1533 C1528 1.425 . S
C1533 C1530 1.409 . S
C1533 C1531 1.415 . S
C1534 H1524 0.930 . S
C1534 C1532 1.419 . S
C1534 C1535 1.362 . S
C1535 H1525 0.930 . S
C1535 C1528 1.409 . S
C1535 C1534 1.362 . S
H1536 C1542 0.930 . S
H1537 C1545 0.930 . S
H1538 C1546 0.930 . S
H1539 C1547 0.930 . S
H1540 C1550 0.930 . S
H1541 C1551 0.930 . S
C1542 H1536 0.930 . S
C1542 C1543 1.355 . S
C1542 C1544 1.415 . S
C1543 C1542 1.355 . S
C1543 C1545 1.419 . S
C1544 C1542 1.415 . S
C1544 C1549 1.425 . S
C1544 C1551 1.409 . S
C1545 H1537 0.930 . S
C1545 C1543 1.419 . S
C1545 C1546 1.362 . S
C1546 H1538 0.930 . S
C1546 C1545 1.362 . S
C1546 C1549 1.409 . S
C1547 H1539 0.930 . S
C1547 C1548 1.355 . S
C1547 C1549 1.415 . S
C1548 C1547 1.355 . S
C1548 C1550 1.419 . S
C1549 C1544 1.425 . S
C1549 C1546 1.409 . S
C1549 C1547 1.415 . S
C1550 H1540 0.930 . S
C1550 C1548 1.419 . S
C1550 C1551 1.362 . S
C1551 H1541 0.930 . S
C1551 C1544 1.409 . S
C1551 C1550 1.362 . S
H1552 C1558 0.930 . S
H1553 C1561 0.930 . S
H1554 C1562 0.930 . S
H1555 C1563 0.930 . S
H1556 C1566 0.930 . S
H1557 C1567 0.930 . S
C1558 H1552 0.930 . S
C1558 C1559 1.355 . S
C1558 C1560 1.415 . S
C1559 C1558 1.355 . S
C1559 C1561 1.419 . S
C1560 C1558 1.415 . S
C1560 C1565 1.425 . S
C1560 C1567 1.409 . S
C1561 H1553 0.930 . S
C1561 C1559 1.419 . S
C1561 C1562 1.362 . S
C1562 H1554 0.930 . S
C1562 C1561 1.362 . S
C1562 C1565 1.409 . S
C1563 H1555 0.930 . S
C1563 C1564 1.355 . S
C1563 C1565 1.415 . S
C1564 C1563 1.355 . S
C1564 C1566 1.419 . S
C1565 C1560 1.425 . S
C1565 C1562 1.409 . S
C1565 C1563 1.415 . S
C1566 H1556 0.930 . S
C1566 C1564 1.419 . S
C1566 C1567 1.362 . S
C1567 H1557 0.930 . S
C1567 C1560 1.409 . S
C1567 C1566 1.362 . S
H1568 C1574 0.930 . S
H1569 C1577 0.930 . S
H1570 C1578 0.930 . S
H1571 C1579 0.930 . S
H1572 C1582 0.930 . S
H1573 C1583 0.930 . S
C1574 H1568 0.930 . S
C1574 C1575 1.355 . S
C1574 C1576 1.415 . S
C1575 C1574 1.355 . S
C1575 C1577 1.419 . S
C1576 C1574 1.415 . S
C1576 C1581 1.425 . S
C1576 C1583 1.409 . S
C1577 H1569 0.930 . S
C1577 C1575 1.419 . S
C1577 C1578 1.362 . S
C1578 H1570 0.930 . S
C1578 C1577 1.362 . S
C1578 C1581 1.409 . S
C1579 H1571 0.930 . S
C1579 C1580 1.355 . S
C1579 C1581 1.415 . S
C1580 C1579 1.355 . S
C1580 C1582 1.419 . S
C1581 C1576 1.425 . S
C1581 C1578 1.409 . S
C1581 C1579 1.415 . S
C1582 H1572 0.930 . S
C1582 C1580 1.419 . S
C1582 C1583 1.362 . S
C1583 H1573 0.930 . S
C1583 C1576 1.409 . S
C1583 C1582 1.362 . S
H1584 C1590 0.930 . S
H1585 C1593 0.930 . S
H1586 C1594 0.930 . S
H1587 C1595 0.930 . S
H1588 C1598 0.930 . S
H1589 C1599 0.930 . S
C1590 H1584 0.930 . S
C1590 C1591 1.355 . S
C1590 C1592 1.415 . S
C1591 C1590 1.355 . S
C1591 C1593 1.419 . S
C1592 C1590 1.415 . S
C1592 C1597 1.425 . S
C1592 C1599 1.409 . S
C1593 H1585 0.930 . S
C1593 C1591 1.419 . S
C1593 C1594 1.362 . S
C1594 H1586 0.930 . S
C1594 C1593 1.362 . S
C1594 C1597 1.409 . S
C1595 H1587 0.930 . S
C1595 C1596 1.355 . S
C1595 C1597 1.415 . S
C1596 C1595 1.355 . S
C1596 C1598 1.419 . S
C1597 C1592 1.425 . S
C1597 C1594 1.409 . S
C1597 C1595 1.415 . S
C1598 H1588 0.930 . S
C1598 C1596 1.419 . S
C1598 C1599 1.362 . S
C1599 H1589 0.930 . S
C1599 C1592 1.409 . S
C1599 C1598 1.362 . S
H1600 C1606 0.930 . S
H1601 C1609 0.930 . S
H1602 C1610 0.930 . S
H1603 C1611 0.930 . S
H1604 C1614 0.930 . S
H1605 C1615 0.930 . S
C1606 H1600 0.930 . S
C1606 C1607 1.355 . S
C1606 C1608 1.415 . S
C1607 C1606 1.355 . S
C1607 C1609 1.419 . S
C1608 C1606 1.415 . S
C1608 C1613 1.425 . S
C1608 C1615 1.409 . S
C1609 H1601 0.930 . S
C1609 C1607 1.419 . S
C1609 C1610 1.362 . S
C1610 H1602 0.930 . S
C1610 C1609 1.362 . S
C1610 C1613 1.409 . S
C1611 H1603 0.930 . S
C1611 C1612 1.355 . S
C1611 C1613 1.415 . S
C1612 C1611 1.355 . S
C1612 C1614 1.419 . S
C1613 C1608 1.425 . S
C1613 C1610 1.409 . S
C1613 C1611 1.415 . S
C1614 H1604 0.930 . S
C1614 C1612 1.419 . S
C1614 C1615 1.362 . S
C1615 H1605 0.930 . S
C1615 C1608 1.409 . S
C1615 C1614 1.362 . S
H1616 C1622 0.930 . S
H1617 C1625 0.930 . S
H1618 C1626 0.930 . S
H1619 C1627 0.930 . S
H1620 C1630 0.930 . S
H1621 C1631 0.930 . S
C1622 H1616 0.930 . S
C1622 C1623 1.355 . S
C1622 C1624 1.415 . S
C1623 C1622 1.355 . S
C1623 C1625 1.419 . S
C1624 C1622 1.415 . S
C1624 C1629 1.425 . S
C1624 C1631 1.409 . S
C1625 H1617 0.930 . S
C1625 C1623 1.419 . S
C1625 C1626 1.362 . S
C1626 H1618 0.930 . S
C1626 C1625 1.362 . S
C1626 C1629 1.409 . S
C1627 H1619 0.930 . S
C1627 C1628 1.355 . S
C1627 C1629 1.415 . S
C1628 C1627 1.355 . S
C1628 C1630 1.419 . S
C1629 C1624 1.425 . S
C1629 C1626 1.409 . S
C1629 C1627 1.415 . S
C1630 H1620 0.930 . S
C1630 C1628 1.419 . S
C1630 C1631 1.362 . S
C1631 H1621 0.930 . S
C1631 C1624 1.409 . S
C1631 C1630 1.362 . S
H1632 C1638 0.930 . S
H1633 C1641 0.930 . S
H1634 C1642 0.930 . S
H1635 C1643 0.930 . S
H1636 C1646 0.930 . S
H1637 C1647 0.930 . S
C1638 H1632 0.930 . S
C1638 C1639 1.355 . S
C1638 C1640 1.415 . S
C1639 C1638 1.355 . S
C1639 C1641 1.419 . S
C1640 C1638 1.415 . S
C1640 C1645 1.425 . S
C1640 C1647 1.409 . S
C1641 H1633 0.930 . S
C1641 C1639 1.419 . S
C1641 C1642 1.362 . S
C1642 H1634 0.930 . S
C1642 C1641 1.362 . S
C1642 C1645 1.409 . S
C1643 H1635 0.930 . S
C1643 C1644 1.355 . S
C1643 C1645 1.415 . S
C1644 C1643 1.355 . S
C1644 C1646 1.419 . S
C1645 C1640 1.425 . S
C1645 C1642 1.409 . S
C1645 C1643 1.415 . S
C1646 H1636 0.930 . S
C1646 C1644 1.419 . S
C1646 C1647 1.362 . S
C1647 H1637 0.930 . S
C1647 C1640 1.409 . S
C1647 C1646 1.362 . S
H1648 C1654 0.930 . S
H1649 C1657 0.930 . S
H1650 C1658 0.930 . S
H1651 C1659 0.930 . S
H1652 C1662 0.930 . S
H1653 C1663 0.930 . S
C1654 H1648 0.930 . S
C1654 C1655 1.355 . S
C1654 C1656 1.415 . S
C1655 C1654 1.355 . S
C1655 C1657 1.419 . S
C1656 C1654 1.415 . S
C1656 C1661 1.425 . S
C1656 C1663 1.409 . S
C1657 H1649 0.930 . S
C1657 C1655 1.419 . S
C1657 C1658 1.362 . S
C1658 H1650 0.930 . S
C1658 C1657 1.362 . S
C1658 C1661 1.409 . S
C1659 H1651 0.930 . S
C1659 C1660 1.355 . S
C1659 C1661 1.415 . S
C1660 C1659 1.355 . S
C1660 C1662 1.419 . S
C1661 C1656 1.425 . S
C1661 C1658 1.409 . S
C1661 C1659 1.415 . S
C1662 H1652 0.930 . S
C1662 C1660 1.419 . S
C1662 C1663 1.362 . S
C1663 H1653 0.930 . S
C1663 C1656 1.409 . S
C1663 C1662 1.362 . S
H1664 C1670 0.930 . S
H1665 C1673 0.930 . S
H1666 C1674 0.930 . S
H1667 C1675 0.930 . S
H1668 C1678 0.930 . S
H1669 C1679 0.930 . S
C1670 H1664 0.930 . S
C1670 C1671 1.355 . S
C1670 C1672 1.415 . S
C1671 C1670 1.355 . S
C1671 C1673 1.419 . S
C1672 C1670 1.415 . S
C1672 C1677 1.425 . S
C1672 C1679 1.409 . S
C1673 H1665 0.930 . S
C1673 C1671 1.419 . S
C1673 C1674 1.362 . S
C1674 H1666 0.930 . S
C1674 C1673 1.362 . S
C1674 C1677 1.409 . S
C1675 H1667 0.930 . S
C1675 C1676 1.355 . S
C1675 C1677 1.415 . S
C1676 C1675 1.355 . S
C1676 C1678 1.419 . S
C1677 C1672 1.425 . S
C1677 C1674 1.409 . S
C1677 C1675 1.415 . S
C1678 H1668 0.930 . S
C1678 C1676 1.419 . S
C1678 C1679 1.362 . S
C1679 H1669 0.930 . S
C1679 C1672 1.409 . S
C1679 C1678 1.362 . S
H1680 C1686 0.930 . S
H1681 C1689 0.930 . S
H1682 C1690 0.930 . S
H1683 C1691 0.930 . S
H1684 C1694 0.930 . S
H1685 C1695 0.930 . S
C1686 H1680 0.930 . S
C1686 C1687 1.355 . S
C1686 C1688 1.415 . S
C1687 C1686 1.355 . S
C1687 C1689 1.419 . S
C1688 C1686 1.415 . S
C1688 C1693 1.425 . S
C1688 C1695 1.409 . S
C1689 H1681 0.930 . S
C1689 C1687 1.419 . S
C1689 C1690 1.362 . S
C1690 H1682 0.930 . S
C1690 C1689 1.362 . S
C1690 C1693 1.409 . S
C1691 H1683 0.930 . S
C1691 C1692 1.355 . S
C1691 C1693 1.415 . S
C1692 C1691 1.355 . S
C1692 C1694 1.419 . S
C1693 C1688 1.425 . S
C1693 C1690 1.409 . S
C1693 C1691 1.415 . S
C1694 H1684 0.930 . S
C1694 C1692 1.419 . S
C1694 C1695 1.362 . S
C1695 H1685 0.930 . S
C1695 C1688 1.409 . S
C1695 C1694 1.362 . S
H1696 C1702 0.930 . S
H1697 C1705 0.930 . S
H1698 C1706 0.930 . S
H1699 C1707 0.930 . S
H1700 C1710 0.930 . S
H1701 C1711 0.930 . S
C1702 H1696 0.930 . S
C1702 C1703 1.355 . S
C1702 C1704 1.415 . S
C1703 C1702 1.355 . S
C1703 C1705 1.419 . S
C1704 C1702 1.415 . S
C1704 C1709 1.425 . S
C1704 C1711 1.409 . S
C1705 H1697 0.930 . S
C1705 C1703 1.419 . S
C1705 C1706 1.362 . S
C1706 H1698 0.930 . S
C1706 C1705 1.362 . S
C1706 C1709 1.409 . S
C1707 H1699 0.930 . S
C1707 C1708 1.355 . S
C1707 C1709 1.415 . S
C1708 C1707 1.355 . S
C1708 C1710 1.419 . S
C1709 C1704 1.425 . S
C1709 C1706 1.409 . S
C1709 C1707 1.415 . S
C1710 H1700 0.930 . S
C1710 C1708 1.419 . S
C1710 C1711 1.362 . S
C1711 H1701 0.930 . S
C1711 C1704 1.409 . S
C1711 C1710 1.362 . S
H1712 C1718 0.930 . S
H1713 C1721 0.930 . S
H1714 C1722 0.930 . S
H1715 C1723 0.930 . S
H1716 C1726 0.930 . S
H1717 C1727 0.930 . S
C1718 H1712 0.930 . S
C1718 C1719 1.355 . S
C1718 C1720 1.415 . S
C1719 C1718 1.355 . S
C1719 C1721 1.419 . S
C1720 C1718 1.415 . S
C1720 C1725 1.425 . S
C1720 C1727 1.409 . S
C1721 H1713 0.930 . S
C1721 C1719 1.419 . S
C1721 C1722 1.362 . S
C1722 H1714 0.930 . S
C1722 C1721 1.362 . S
C1722 C1725 1.409 . S
C1723 H1715 0.930 . S
C1723 C1724 1.355 . S
C1723 C1725 1.415 . S
C1724 C1723 1.355 . S
C1724 C1726 1.419 . S
C1725 C1720 1.425 . S
C1725 C1722 1.409 . S
C1725 C1723 1.415 . S
C1726 H1716 0.930 . S
C1726 C1724 1.419 . S
C1726 C1727 1.362 . S
C1727 H1717 0.930 . S
C1727 C1720 1.409 . S
C1727 C1726 1.362 . S
H1728 C1734 0.930 . S
H1729 C1737 0.930 . S
H1730 C1738 0.930 . S
H1731 C1739 0.930 . S
H1732 C1742 0.930 . S
H1733 C1743 0.930 . S
C1734 H1728 0.930 . S
C1734 C1735 1.355 . S
C1734 C1736 1.415 . S
C1735 C1734 1.355 . S
C1735 C1737 1.419 . S
C1736 C1734 1.415 . S
C1736 C1741 1.425 . S
C1736 C1743 1.409 . S
C1737 H1729 0.930 . S
C1737 C1735 1.419 . S
C1737 C1738 1.362 . S
C1738 H1730 0.930 . S
C1738 C1737 1.362 . S
C1738 C1741 1.409 . S
C1739 H1731 0.930 . S
C1739 C1740 1.355 . S
C1739 C1741 1.415 . S
C1740 C1739 1.355 . S
C1740 C1742 1.419 . S
C1741 C1736 1.425 . S
C1741 C1738 1.409 . S
C1741 C1739 1.415 . S
C1742 H1732 0.930 . S
C1742 C1740 1.419 . S
C1742 C1743 1.362 . S
C1743 H1733 0.930 . S
C1743 C1736 1.409 . S
C1743 C1742 1.362 . S
H1744 C1750 0.930 . S
H1745 C1753 0.930 . S
H1746 C1754 0.930 . S
H1747 C1755 0.930 . S
H1748 C1758 0.930 . S
H1749 C1759 0.930 . S
C1750 H1744 0.930 . S
C1750 C1751 1.355 . S
C1750 C1752 1.415 . S
C1751 C1750 1.355 . S
C1751 C1753 1.419 . S
C1752 C1750 1.415 . S
C1752 C1757 1.425 . S
C1752 C1759 1.409 . S
C1753 H1745 0.930 . S
C1753 C1751 1.419 . S
C1753 C1754 1.362 . S
C1754 H1746 0.930 . S
C1754 C1753 1.362 . S
C1754 C1757 1.409 . S
C1755 H1747 0.930 . S
C1755 C1756 1.355 . S
C1755 C1757 1.415 . S
C1756 C1755 1.355 . S
C1756 C1758 1.419 . S
C1757 C1752 1.425 . S
C1757 C1754 1.409 . S
C1757 C1755 1.415 . S
C1758 H1748 0.930 . S
C1758 C1756 1.419 . S
C1758 C1759 1.362 . S
C1759 H1749 0.930 . S
C1759 C1752 1.409 . S
C1759 C1758 1.362 . S
H1760 C1766 0.930 . S
H1761 C1769 0.930 . S
H1762 C1770 0.930 . S
H1763 C1771 0.930 . S
H1764 C1774 0.930 . S
H1765 C1775 0.930 . S
C1766 H1760 0.930 . S
C1766 C1767 1.355 . S
C1766 C1768 1.415 . S
C1767 C1766 1.355 . S
C1767 C1769 1.419 . S
C1768 C1766 1.415 . S
C1768 C1773 1.425 . S
C1768 C1775 1.409 . S
C1769 H1761 0.930 . S
C1769 C1767 1.419 . S
C1769 C1770 1.362 . S
C1770 H1762 0.930 . S
C1770 C1769 1.362 . S
C1770 C1773 1.409 . S
C1771 H1763 0.930 . S
C1771 C1772 1.355 . S
C1771 C1773 1.415 . S
C1772 C1771 1.355 . S
C1772 C1774 1.419 . S
C1773 C1768 1.425 . S
C1773 C1770 1.409 . S
C1773 C1771 1.415 . S
C1774 H1764 0.930 . S
C1774 C1772 1.419 . S
C1774 C1775 1.362 . S
C1775 H1765 0.930 . S
C1775 C1768 1.409 . S
C1775 C1774 1.362 . S
H1776 C1782 0.930 . S
H1777 C1785 0.930 . S
H1778 C1786 0.930 . S
H1779 C1787 0.930 . S
H1780 C1790 0.930 . S
H1781 C1791 0.930 . S
C1782 H1776 0.930 . S
C1782 C1783 1.355 . S
C1782 C1784 1.415 . S
C1783 C1782 1.355 . S
C1783 C1785 1.419 . S
C1784 C1782 1.415 . S
C1784 C1789 1.425 . S
C1784 C1791 1.409 . S
C1785 H1777 0.930 . S
C1785 C1783 1.419 . S
C1785 C1786 1.362 . S
C1786 H1778 0.930 . S
C1786 C1785 1.362 . S
C1786 C1789 1.409 . S
C1787 H1779 0.930 . S
C1787 C1788 1.355 . S
C1787 C1789 1.415 . S
C1788 C1787 1.355 . S
C1788 C1790 1.419 . S
C1789 C1784 1.425 . S
C1789 C1786 1.409 . S
C1789 C1787 1.415 . S
C1790 H1780 0.930 . S
C1790 C1788 1.419 . S
C1790 C1791 1.362 . S
C1791 H1781 0.930 . S
C1791 C1784 1.409 . S
C1791 C1790 1.362 . S
H1792 C1798 0.930 . S
H1793 C1801 0.930 . S
H1794 C1802 0.930 . S
H1795 C1803 0.930 . S
H1796 C1806 0.930 . S
H1797 C1807 0.930 . S
C1798 H1792 0.930 . S
C1798 C1799 1.355 . S
C1798 C1800 1.415 . S
C1799 C1798 1.355 . S
C1799 C1801 1.419 . S
C1800 C1798 1.415 . S
C1800 C1805 1.425 . S
C1800 C1807 1.409 . S
C1801 H1793 0.930 . S
C1801 C1799 1.419 . S
C1801 C1802 1.362 . S
C1802 H1794 0.930 . S
C1802 C1801 1.362 . S
C1802 C1805 1.409 . S
C1803 H1795 0.930 . S
C1803 C1804 1.355 . S
C1803 C1805 1.415 . S
C1804 C1803 1.355 . S
C1804 C1806 1.419 . S
C1805 C1800 1.425 . S
C1805 C1802 1.409 . S
C1805 C1803 1.415 . S
C1806 H1796 0.930 . S
C1806 C1804 1.419 . S
C1806 C1807 1.362 . S
C1807 H1797 0.930 . S
C1807 C1800 1.409 . S
C1807 C1806 1.362 . S
H1808 C1814 0.930 . S
H1809 C1817 0.930 . S
H1810 C1818 0.930 . S
H1811 C1819 0.930 . S
H1812 C1822 0.930 . S
H1813 C1823 0.930 . S
C1814 H1808 0.930 . S
C1814 C1815 1.355 . S
C1814 C1816 1.415 . S
C1815 C1814 1.355 . S
C1815 C1817 1.419 . S
C1816 C1814 1.415 . S
C1816 C1821 1.425 . S
C1816 C1823 1.409 . S
C1817 H1809 0.930 . S
C1817 C1815 1.419 . S
C1817 C1818 1.362 . S
C1818 H1810 0.930 . S
C1818 C1817 1.362 . S
C1818 C1821 1.409 . S
C1819 H1811 0.930 . S
C1819 C1820 1.355 . S
C1819 C1821 1.415 . S
C1820 C1819 1.355 . S
C1820 C1822 1.419 . S
C1821 C1816 1.425 . S
C1821 C1818 1.409 . S
C1821 C1819 1.415 . S
C1822 H1812 0.930 . S
C1822 C1820 1.419 . S
C1822 C1823 1.362 . S
C1823 H1813 0.930 . S
C1823 C1816 1.409 . S
C1823 C1822 1.362 . S
H1824 C1830 0.930 . S
H1825 C1833 0.930 . S
H1826 C1834 0.930 . S
H1827 C1835 0.930 . S
H1828 C1838 0.930 . S
H1829 C1839 0.930 . S
C1830 H1824 0.930 . S
C1830 C1831 1.355 . S
C1830 C1832 1.415 . S
C1831 C1830 1.355 . S
C1831 C1833 1.419 . S
C1832 C1830 1.415 . S
C1832 C1837 1.425 . S
C1832 C1839 1.409 . S
C1833 H1825 0.930 . S
C1833 C1831 1.419 . S
C1833 C1834 1.362 . S
C1834 H1826 0.930 . S
C1834 C1833 1.362 . S
C1834 C1837 1.409 . S
C1835 H1827 0.930 . S
C1835 C1836 1.355 . S
C1835 C1837 1.415 . S
C1836 C1835 1.355 . S
C1836 C1838 1.419 . S
C1837 C1832 1.425 . S
C1837 C1834 1.409 . S
C1837 C1835 1.415 . S
C1838 H1828 0.930 . S
C1838 C1836 1.419 . S
C1838 C1839 1.362 . S
C1839 H1829 0.930 . S
C1839 C1832 1.409 . S
C1839 C1838 1.362 . S
H1840 C1846 0.930 . S
H1841 C1849 0.930 . S
H1842 C1850 0.930 . S
H1843 C1851 0.930 . S
H1844 C1854 0.930 . S
H1845 C1855 0.930 . S
C1846 H1840 0.930 . S
C1846 C1847 1.355 . S
C1846 C1848 1.415 . S
C1847 C1846 1.355 . S
C1847 C1849 1.419 . S
C1848 C1846 1.415 . S
C1848 C1853 1.425 . S
C1848 C1855 1.409 . S
C1849 H1841 0.930 . S
C1849 C1847 1.419 . S
C1849 C1850 1.362 . S
C1850 H1842 0.930 . S
C1850 C1849 1.362 . S
C1850 C1853 1.409 . S
C1851 H1843 0.930 . S
C1851 C1852 1.355 . S
C1851 C1853 1.415 . S
C1852 C1851 1.355 . S
C1852 C1854 1.419 . S
C1853 C1848 1.425 . S
C1853 C1850 1.409 . S
C1853 C1851 1.415 . S
C1854 H1844 0.930 . S
C1854 C1852 1.419 . S
C1854 C1855 1.362 . S
C1855 H1845 0.930 . S
C1855 C1848 1.409 . S
C1855 C1854 1.362 . S
H1856 C1862 0.930 . S
H1857 C1865 0.930 . S
H1858 C1866 0.930 . S
H1859 C1867 0.930 . S
H1860 C1870 0.930 . S
H1861 C1871 0.930 . S
C1862 H1856 0.930 . S
C1862 C1863 1.355 . S
C1862 C1864 1.415 . S
C1863 C1862 1.355 . S
C1863 C1865 1.419 . S
C1864 C1862 1.415 . S
C1864 C1869 1.425 . S
C1864 C1871 1.409 . S
C1865 H1857 0.930 . S
C1865 C1863 1.419 . S
C1865 C1866 1.362 . S
C1866 H1858 0.930 . S
C1866 C1865 1.362 . S
C1866 C1869 1.409 . S
C1867 H1859 0.930 . S
C1867 C1868 1.355 . S
C1867 C1869 1.415 . S
C1868 C1867 1.355 . S
C1868 C1870 1.419 . S
C1869 C1864 1.425 . S
C1869 C1866 1.409 . S
C1869 C1867 1.415 . S
C1870 H1860 0.930 . S
C1870 C1868 1.419 . S
C1870 C1871 1.362 . S
C1871 H1861 0.930 . S
C1871 C1864 1.409 . S
C1871 C1870 1.362 . S
H1872 C1878 0.930 . S
H1873 C1881 0.930 . S
H1874 C1882 0.930 . S
H1875 C1883 0.930 . S
H1876 C1886 0.930 . S
H1877 C1887 0.930 . S
C1878 H1872 0.930 . S
C1878 C1879 1.355 . S
C1878 C1880 1.415 . S
C1879 C1878 1.355 . S
C1879 C1881 1.419 . S
C1880 C1878 1.415 . S
C1880 C1885 1.425 . S
C1880 C1887 1.409 . S
C1881 H1873 0.930 . S
C1881 C1879 1.419 . S
C1881 C1882 1.362 . S
C1882 H1874 0.930 . S
C1882 C1881 1.362 . S
C1882 C1885 1.409 . S
C1883 H1875 0.930 . S
C1883 C1884 1.355 . S
C1883 C1885 1.415 . S
C1884 C1883 1.355 . S
C1884 C1886 1.419 . S
C1885 C1880 1.425 . S
C1885 C1882 1.409 . S
C1885 C1883 1.415 . S
C1886 H1876 0.930 . S
C1886 C1884 1.419 . S
C1886 C1887 1.362 . S
C1887 H1877 0.930 . S
C1887 C1880 1.409 . S
C1887 C1886 1.362 . S
H1888 C1894 0.930 . S
H1889 C1897 0.930 . S
H1890 C1898 0.930 . S
H1891 C1899 0.930 . S
H1892 C1902 0.930 . S
H1893 C1903 0.930 . S
C1894 H1888 0.930 . S
C1894 C1895 1.355 . S
C1894 C1896 1.415 . S
C1895 C1894 1.355 . S
C1895 C1897 1.419 . S
C1896 C1894 1.415 . S
C1896 C1901 1.425 . S
C1896 C1903 1.409 . S
C1897 H1889 0.930 . S
C1897 C1895 1.419 . S
C1897 C1898 1.362 . S
C1898 H1890 0.930 . S
C1898 C1897 1.362 . S
C1898 C1901 1.409 . S
C1899 H1891 0.930 . S
C1899 C1900 1.355 . S
C1899 C1901 1.415 . S
C1900 C1899 1.355 . S
C1900 C1902 1.419 . S
C1901 C1896 1.425 . S
C1901 C1898 1.409 . S
C1901 C1899 1.415 . S
C1902 H1892 0.930 . S
C1902 C1900 1.419 . S
C1902 C1903 1.362 . S
C1903 H1893 0.930 . S
C1903 C1896 1.409 . S
C1903 C1902 1.362 . S
H1904 C1910 0.930 . S
H1905 C1913 0.930 . S
H1906 C1914 0.930 . S
H1907 C1915 0.930 . S
H1908 C1918 0.930 . S
H1909 C1919 0.930 . S
C1910 H1904 0.930 . S
C1910 C1911 1.355 . S
C1910 C1912 1.415 . S
C1911 C1910 1.355 . S
C1911 C1913 1.419 . S
C1912 C1910 1.415 . S
C1912 C1917 1.425 . S
C1912 C1919 1.409 . S
C1913 H1905 0.930 . S
C1913 C1911 1.419 . S
C1913 C1914 1.362 . S
C1914 H1906 0.930 . S
C1914 C1913 1.362 . S
C1914 C1917 1.409 . S
C1915 H1907 0.930 . S
C1915 C1916 1.355 . S
C1915 C1917 1.415 . S
C1916 C1915 1.355 . S
C1916 C1918 1.419 . S
C1917 C1912 1.425 . S
C1917 C1914 1.409 . S
C1917 C1915 1.415 . S
C1918 H1908 0.930 . S
C1918 C1916 1.419 . S
C1918 C1919 1.362 . S
C1919 H1909 0.930 . S
C1919 C1912 1.409 . S
C1919 C1918 1.362 . S
H1920 C1926 0.930 . S
H1921 C1929 0.930 . S
H1922 C1930 0.930 . S
H1923 C1931 0.930 . S
H1924 C1934 0.930 . S
H1925 C1935 0.930 . S
C1926 H1920 0.930 . S
C1926 C1927 1.355 . S
C1926 C1928 1.415 . S
C1927 C1926 1.355 . S
C1927 C1929 1.419 . S
C1928 C1926 1.415 . S
C1928 C1933 1.425 . S
C1928 C1935 1.409 . S
C1929 H1921 0.930 . S
C1929 C1927 1.419 . S
C1929 C1930 1.362 . S
C1930 H1922 0.930 . S
C1930 C1929 1.362 . S
C1930 C1933 1.409 . S
C1931 H1923 0.930 . S
C1931 C1932 1.355 . S
C1931 C1933 1.415 . S
C1932 C1931 1.355 . S
C1932 C1934 1.419 . S
C1933 C1928 1.425 . S
C1933 C1930 1.409 . S
C1933 C1931 1.415 . S
C1934 H1924 0.930 . S
C1934 C1932 1.419 . S
C1934 C1935 1.362 . S
C1935 H1925 0.930 . S
C1935 C1928 1.409 . S
C1935 C1934 1.362 . S
H1936 C1942 0.930 . S
H1937 C1945 0.930 . S
H1938 C1946 0.930 . S
H1939 C1947 0.930 . S
H1940 C1950 0.930 . S
H1941 C1951 0.930 . S
C1942 H1936 0.930 . S
C1942 C1943 1.355 . S
C1942 C1944 1.415 . S
C1943 C1942 1.355 . S
C1943 C1945 1.419 . S
C1944 C1942 1.415 . S
C1944 C1949 1.425 . S
C1944 C1951 1.409 . S
C1945 H1937 0.930 . S
C1945 C1943 1.419 . S
C1945 C1946 1.362 . S
C1946 H1938 0.930 . S
C1946 C1945 1.362 . S
C1946 C1949 1.409 . S
C1947 H1939 0.930 . S
C1947 C1948 1.355 . S
C1947 C1949 1.415 . S
C1948 C1947 1.355 . S
C1948 C1950 1.419 . S
C1949 C1944 1.425 . S
C1949 C1946 1.409 . S
C1949 C1947 1.415 . S
C1950 H1940 0.930 . S
C1950 C1948 1.419 . S
C1950 C1951 1.362 . S
C1951 H1941 0.930 . S
C1951 C1944 1.409 . S
C1951 C1950 1.362 . S
H1952 C1958 0.930 . S
H1953 C1961 0.930 . S
H1954 C1962 0.930 . S
H1955 C1963 0.930 . S
H1956 C1966 0.930 . S
H1957 C1967 0.930 . S
C1958 H1952 0.930 . S
C1958 C1959 1.355 . S
C1958 C1960 1.415 . S
C1959 C1958 1.355 . S
C1959 C1961 1.419 . S
C1960 C1958 1.415 . S
C1960 C1965 1.425 . S
C1960 C1967 1.409 . S
C1961 H1953 0.930 . S
C1961 C1959 1.419 . S
C1961 C1962 1.362 . S
C1962 H1954 0.930 . S
C1962 C1961 1.362 . S
C1962 C1965 1.409 . S
C1963 H1955 0.930 . S
C1963 C1964 1.355 . S
C1963 C1965 1.415 . S
C1964 C1963 1.355 . S
C1964 C1966 1.419 . S
C1965 C1960 1.425 . S
C1965 C1962 1.409 . S
C1965 C1963 1.415 . S
C1966 H1956 0.930 . S
C1966 C1964 1.419 . S
C1966 C1967 1.362 . S
C1967 H1957 0.930 . S
C1967 C1960 1.409 . S
C1967 C1966 1.362 . S
H1968 C1974 0.930 . S
H1969 C1977 0.930 . S
H1970 C1978 0.930 . S
H1971 C1979 0.930 . S
H1972 C1982 0.930 . S
H1973 C1983 0.930 . S
C1974 H1968 0.930 . S
C1974 C1975 1.355 . S
C1974 C1976 1.415 . S
C1975 C1974 1.355 . S
C1975 C1977 1.419 . S
C1976 C1974 1.415 . S
C1976 C1981 1.425 . S
C1976 C1983 1.409 . S
C1977 H1969 0.930 . S
C1977 C1975 1.419 . S
C1977 C1978 1.362 . S
C1978 H1970 0.930 . S
C1978 C1977 1.362 . S
C1978 C1981 1.409 . S
C1979 H1971 0.930 . S
C1979 C1980 1.355 . S
C1979 C1981 1.415 . S
C1980 C1979 1.355 . S
C1980 C1982 1.419 . S
C1981 C1976 1.425 . S
C1981 C1978 1.409 . S
C1981 C1979 1.415 . S
C1982 H1972 0.930 . S
C1982 C1980 1.419 . S
C1982 C1983 1.362 . S
C1983 H1973 0.930 . S
C1983 C1976 1.409 . S
C1983 C1982 1.362 . S
H1984 C1990 0.930 . S
H1985 C1993 0.930 . S
H1986 C1994 0.930 . S
H1987 C1995 0.930 . S
H1988 C1998 0.930 . S
H1989 C1999 0.930 . S
C1990 H1984 0.930 . S
C1990 C1991 1.355 . S
C1990 C1992 1.415 . S
C1991 C1990 1.355 . S
C1991 C1993 1.419 . S
C1992 C1990 1.415 . S
C1992 C1997 1.425 . S
C1992 C1999 1.409 . S
C1993 H1985 0.930 . S
C1993 C1991 1.419 . S
C1993 C1994 1.362 . S
C1994 H1986 0.930 . S
C1994 C1993 1.362 . S
C1994 C1997 1.409 . S
C1995 H1987 0.930 . S
C1995 C1996 1.355 . S
C1995 C1997 1.415 . S
C1996 C1995 1.355 . S
C1996 C1998 1.419 . S
C1997 C1992 1.425 . S
C1997 C1994 1.409 . S
C1997 C1995 1.415 . S
C1998 H1988 0.930 . S
C1998 C1996 1.419 . S
C1998 C1999 1.362 . S
C1999 H1989 0.930 . S
C1999 C1992 1.409 . S
C1999 C1998 1.362 . S
H2000 C2006 0.930 . S
H2001 C2009 0.930 . S
H2002 C2010 0.930 . S
H2003 C2011 0.930 . S
H2004 C2014 0.930 . S
H2005 C2015 0.930 . S
C2006 H2000 0.930 . S
C2006 C2007 1.355 . S
C2006 C2008 1.415 . S
C2007 C2006 1.355 . S
C2007 C2009 1.419 . S
C2008 C2006 1.415 . S
C2008 C2013 1.425 . S
C2008 C2015 1.409 . S
C2009 H2001 0.930 . S
C2009 C2007 1.419 . S
C2009 C2010 1.362 . S
C2010 H2002 0.930 . S
C2010 C2009 1.362 . S
C2010 C2013 1.409 . S
C2011 H2003 0.930 . S
C2011 C2012 1.355 . S
C2011 C2013 1.415 . S
C2012 C2011 1.355 . S
C2012 C2014 1.419 . S
C2013 C2008 1.425 . S
C2013 C2010 1.409 . S
C2013 C2011 1.415 . S
C2014 H2004 0.930 . S
C2014 C2012 1.419 . S
C2014 C2015 1.362 . S
C2015 H2005 0.930 . S
C2015 C2008 1.409 . S
C2015 C2014 1.362 . S
H2016 C2022 0.930 . S
H2017 C2025 0.930 . S
H2018 C2026 0.930 . S
H2019 C2027 0.930 . S
H2020 C2030 0.930 . S
H2021 C2031 0.930 . S
C2022 H2016 0.930 . S
C2022 C2023 1.355 . S
C2022 C2024 1.415 . S
C2023 C2022 1.355 . S
C2023 C2025 1.419 . S
C2024 C2022 1.415 . S
C2024 C2029 1.425 . S
C2024 C2031 1.409 . S
C2025 H2017 0.930 . S
C2025 C2023 1.419 . S
C2025 C2026 1.362 . S
C2026 H2018 0.930 . S
C2026 C2025 1.362 . S
C2026 C2029 1.409 . S
C2027 H2019 0.930 . S
C2027 C2028 1.355 . S
C2027 C2029 1.415 . S
C2028 C2027 1.355 . S
C2028 C2030 1.419 . S
C2029 C2024 1.425 . S
C2029 C2026 1.409 . S
C2029 C2027 1.415 . S
C2030 H2020 0.930 . S
C2030 C2028 1.419 . S
C2030 C2031 1.362 . S
C2031 H2021 0.930 . S
C2031 C2024 1.409 . S
C2031 C2030 1.362 . S
H2032 C2038 0.930 . S
H2033 C2041 0.930 . S
H2034 C2042 0.930 . S
H2035 C2043 0.930 . S
H2036 C2046 0.930 . S
H2037 C2047 0.930 . S
C2038 H2032 0.930 . S
C2038 C2039 1.355 . S
C2038 C2040 1.415 . S
C2039 C2038 1.355 . S
C2039 C2041 1.419 . S
C2040 C2038 1.415 . S
C2040 C2045 1.425 . S
C2040 C2047 1.409 . S
C2041 H2033 0.930 . S
C2041 C2039 1.419 . S
C2041 C2042 1.362 . S
C2042 H2034 0.930 . S
C2042 C2041 1.362 . S
C2042 C2045 1.409 . S
C2043 H2035 0.930 . S
C2043 C2044 1.355 . S
C2043 C2045 1.415 . S
C2044 C2043 1.355 . S
C2044 C2046 1.419 . S
C2045 C2040 1.425 . S
C2045 C2042 1.409 . S
C2045 C2043 1.415 . S
C2046 H2036 0.930 . S
C2046 C2044 1.419 . S
C2046 C2047 1.362 . S
C2047 H2037 0.930 . S
C2047 C2040 1.409 . S
C2047 C2046 1.362 . S
H2048 C2054 0.930 . S
H2049 C2057 0.930 . S
H2050 C2058 0.930 . S
H2051 C2059 0.930 . S
H2052 C2062 0.930 . S
H2053 C2063 0.930 . S
C2054 H2048 0.930 . S
C2054 C2055 1.355 . S
C2054 C2056 1.415 . S
C2055 C2054 1.355 . S
C2055 C2057 1.419 . S
C2056 C2054 1.415 . S
C2056 C2061 1.425 . S
C2056 C2063 1.409 . S
C2057 H2049 0.930 . S
C2057 C2055 1.419 . S
C2057 C2058 1.362 . S
C2058 H2050 0.930 . S
C2058 C2057 1.362 . S
C2058 C2061 1.409 . S
C2059 H2051 0.930 . S
C2059 C2060 1.355 . S
C2059 C2061 1.415 . S
C2060 C2059 1.355 . S
C2060 C2062 1.419 . S
C2061 C2056 1.425 . S
C2061 C2058 1.409 . S
C2061 C2059 1.415 . S
C2062 H2052 0.930 . S
C2062 C2060 1.419 . S
C2062 C2063 1.362 . S
C2063 H2053 0.930 . S
C2063 C2056 1.409 . S
C2063 C2062 1.362 . S
H2064 C2070 0.930 . S
H2065 C2073 0.930 . S
H2066 C2074 0.930 . S
H2067 C2075 0.930 . S
H2068 C2078 0.930 . S
H2069 C2079 0.930 . S
C2070 H2064 0.930 . S
C2070 C2071 1.355 . S
C2070 C2072 1.415 . S
C2071 C2070 1.355 . S
C2071 C2073 1.419 . S
C2072 C2070 1.415 . S
C2072 C2077 1.425 . S
C2072 C2079 1.409 . S
C2073 H2065 0.930 . S
C2073 C2071 1.419 . S
C2073 C2074 1.362 . S
C2074 H2066 0.930 . S
C2074 C2073 1.362 . S
C2074 C2077 1.409 . S
C2075 H2067 0.930 . S
C2075 C2076 1.355 . S
C2075 C2077 1.415 . S
C2076 C2075 1.355 . S
C2076 C2078 1.419 . S
C2077 C2072 1.425 . S
C2077 C2074 1.409 . S
C2077 C2075 1.415 . S
C2078 H2068 0.930 . S
C2078 C2076 1.419 . S
C2078 C2079 1.362 . S
C2079 H2069 0.930 . S
C2079 C2072 1.409 . S
C2079 C2078 1.362 . S
H2080 C2086 0.930 . S
H2081 C2089 0.930 . S
H2082 C2090 0.930 . S
H2083 C2091 0.930 . S
H2084 C2094 0.930 . S
H2085 C2095 0.930 . S
C2086 H2080 0.930 . S
C2086 C2087 1.355 . S
C2086 C2088 1.415 . S
C2087 C2086 1.355 . S
C2087 C2089 1.419 . S
C2088 C2086 1.415 . S
C2088 C2093 1.425 . S
C2088 C2095 1.409 . S
C2089 H2081 0.930 . S
C2089 C2087 1.419 . S
C2089 C2090 1.362 . S
C2090 H2082 0.930 . S
C2090 C2089 1.362 . S
C2090 C2093 1.409 . S
C2091 H2083 0.930 . S
C2091 C2092 1.355 . S
C2091 C2093 1.415 . S
C2092 C2091 1.355 . S
C2092 C2094 1.419 . S
C2093 C2088 1.425 . S
C2093 C2090 1.409 . S
C2093 C2091 1.415 . S
C2094 H2084 0.930 . S
C2094 C2092 1.419 . S
C2094 C2095 1.362 . S
C2095 H2085 0.930 . S
C2095 C2088 1.409 . S
C2095 C2094 1.362 . S
H2096 C2102 0.930 . S
H2097 C2105 0.930 . S
H2098 C2106 0.930 . S
H2099 C2107 0.930 . S
H2100 C2110 0.930 . S
H2101 C2111 0.930 . S
C2102 H2096 0.930 . S
C2102 C2103 1.355 . S
C2102 C2104 1.415 . S
C2103 C2102 1.355 . S
C2103 C2105 1.419 . S
C2104 C2102 1.415 . S
C2104 C2109 1.425 . S
C2104 C2111 1.409 . S
C2105 H2097 0.930 . S
C2105 C2103 1.419 . S
C2105 C2106 1.362 . S
C2106 H2098 0.930 . S
C2106 C2105 1.362 . S
C2106 C2109 1.409 . S
C2107 H2099 0.930 . S
C2107 C2108 1.355 . S
C2107 C2109 1.415 . S
C2108 C2107 1.355 . S
C2108 C2110 1.419 . S
C2109 C2104 1.425 . S
C2109 C2106 1.409 . S
C2109 C2107 1.415 . S
C2110 H2100 0.930 . S
C2110 C2108 1.419 . S
C2110 C2111 1.362 . S
C2111 H2101 0.930 . S
C2111 C2104 1.409 . S
C2111 C2110 1.362 . S
H2112 C2118 0.930 . S
H2113 C2121 0.930 . S
H2114 C2122 0.930 . S
H2115 C2123 0.930 . S
H2116 C2126 0.930 . S
H2117 C2127 0.930 . S
C2118 H2112 0.930 . S
C2118 C2119 1.355 . S
C2118 C2120 1.415 . S
C2119 C2118 1.355 . S
C2119 C2121 1.419 . S
C2120 C2118 1.415 . S
C2120 C2125 1.425 . S
C2120 C2127 1.409 . S
C2121 H2113 0.930 . S
C2121 C2119 1.419 . S
C2121 C2122 1.362 . S
C2122 H2114 0.930 . S
C2122 C2121 1.362 . S
C2122 C2125 1.409 . S
C2123 H2115 0.930 . S
C2123 C2124 1.355 . S
C2123 C2125 1.415 . S
C2124 C2123 1.355 . S
C2124 C2126 1.419 . S
C2125 C2120 1.425 . S
C2125 C2122 1.409 . S
C2125 C2123 1.415 . S
C2126 H2116 0.930 . S
C2126 C2124 1.419 . S
C2126 C2127 1.362 . S
C2127 H2117 0.930 . S
C2127 C2120 1.409 . S
C2127 C2126 1.362 . S
H2128 C2134 0.930 . S
H2129 C2137 0.930 . S
H2130 C2138 0.930 . S
H2131 C2139 0.930 . S
H2132 C2142 0.930 . S
H2133 C2143 0.930 . S
C2134 H2128 0.930 . S
C2134 C2135 1.355 . S
C2134 C2136 1.415 . S
C2135 C2134 1.355 . S
C2135 C2137 1.419 . S
C2136 C2134 1.415 . S
C2136 C2141 1.425 . S
C2136 C2143 1.409 . S
C2137 H2129 0.930 . S
C2137 C2135 1.419 . S
C2137 C2138 1.362 . S
C2138 H2130 0.930 . S
C2138 C2137 1.362 . S
C2138 C2141 1.409 . S
C2139 H2131 0.930 . S
C2139 C2140 1.355 . S
C2139 C2141 1.415 . S
C2140 C2139 1.355 . S
C2140 C2142 1.419 . S
C2141 C2136 1.425 . S
C2141 C2138 1.409 . S
C2141 C2139 1.415 . S
C2142 H2132 0.930 . S
C2142 C2140 1.419 . S
C2142 C2143 1.362 . S
C2143 H2133 0.930 . S
C2143 C2136 1.409 . S
C2143 C2142 1.362 . S
H2144 C2150 0.930 . S
H2145 C2153 0.930 . S
H2146 C2154 0.930 . S
H2147 C2155 0.930 . S
H2148 C2158 0.930 . S
H2149 C2159 0.930 . S
C2150 H2144 0.930 . S
C2150 C2151 1.355 . S
C2150 C2152 1.415 . S
C2151 C2150 1.355 . S
C2151 C2153 1.419 . S
C2152 C2150 1.415 . S
C2152 C2157 1.425 . S
C2152 C2159 1.409 . S
C2153 H2145 0.930 . S
C2153 C2151 1.419 . S
C2153 C2154 1.362 . S
C2154 H2146 0.930 . S
C2154 C2153 1.362 . S
C2154 C2157 1.409 . S
C2155 H2147 0.930 . S
C2155 C2156 1.355 . S
C2155 C2157 1.415 . S
C2156 C2155 1.355 . S
C2156 C2158 1.419 . S
C2157 C2152 1.425 . S
C2157 C2154 1.409 . S
C2157 C2155 1.415 . S
C2158 H2148 0.930 . S
C2158 C2156 1.419 . S
C2158 C2159 1.362 . S
C2159 H2149 0.930 . S
C2159 C2152 1.409 . S
C2159 C2158 1.362 . S
H2160 C2166 0.930 . S
H2161 C2169 0.930 . S
H2162 C2170 0.930 . S
H2163 C2171 0.930 . S
H2164 C2174 0.930 . S
H2165 C2175 0.930 . S
C2166 H2160 0.930 . S
C2166 C2167 1.355 . S
C2166 C2168 1.415 . S
C2167 C2166 1.355 . S
C2167 C2169 1.419 . S
C2168 C2166 1.415 . S
C2168 C2173 1.425 . S
C2168 C2175 1.409 . S
C2169 H2161 0.930 . S
C2169 C2167 1.419 . S
C2169 C2170 1.362 . S
C2170 H2162 0.930 . S
C2170 C2169 1.362 . S
C2170 C2173 1.409 . S
C2171 H2163 0.930 . S
C2171 C2172 1.355 . S
C2171 C2173 1.415 . S
C2172 C2171 1.355 . S
C2172 C2174 1.419 . S
C2173 C2168 1.425 . S
C2173 C2170 1.409 . S
C2173 C2171 1.415 . S
C2174 H2164 0.930 . S
C2174 C2172 1.419 . S
C2174 C2175 1.362 . S
C2175 H2165 0.930 . S
C2175 C2168 1.409 . S
C2175 C2174 1.362 . S
H2176 C2182 0.930 . S
H2177 C2185 0.930 . S
H2178 C2186 0.930 . S
H2179 C2187 0.930 . S
H2180 C2190 0.930 . S
H2181 C2191 0.930 . S
C2182 H2176 0.930 . S
C2182 C2183 1.355 . S
C2182 C2184 1.415 . S
C2183 C2182 1.355 . S
C2183 C2185 1.419 . S
C2184 C2182 1.415 . S
C2184 C2189 1.425 . S
C2184 C2191 1.409 . S
C2185 H2177 0.930 . S
C2185 C2183 1.419 . S
C2185 C2186 1.362 . S
C2186 H2178 0.930 . S
C2186 C2185 1.362 . S
C2186 C2189 1.409 . S
C2187 H2179 0.930 . S
C2187 C2188 1.355 . S
C2187 C2189 1.415 . S
C2188 C2187 1.355 . S
C2188 C2190 1.419 . S
C2189 C2184 1.425 . S
C2189 C2186 1.409 . S
C2189 C2187 1.415 . S
C2190 H2180 0.930 . S
C2190 C2188 1.419 . S
C2190 C2191 1.362 . S
C2191 H2181 0.930 . S
C2191 C2184 1.409 . S
C2191 C2190 1.362 . S
H2192 C2198 0.930 . S
H2193 C2201 0.930 . S
H2194 C2202 0.930 . S
H2195 C2203 0.930 . S
H2196 C2206 0.930 . S
H2197 C2207 0.930 . S
C2198 H2192 0.930 . S
C2198 C2199 1.355 . S
C2198 C2200 1.415 . S
C2199 C2198 1.355 . S
C2199 C2201 1.419 . S
C2200 C2198 1.415 . S
C2200 C2205 1.425 . S
C2200 C2207 1.409 . S
C2201 H2193 0.930 . S
C2201 C2199 1.419 . S
C2201 C2202 1.362 . S
C2202 H2194 0.930 . S
C2202 C2201 1.362 . S
C2202 C2205 1.409 . S
C2203 H2195 0.930 . S
C2203 C2204 1.355 . S
C2203 C2205 1.415 . S
C2204 C2203 1.355 . S
C2204 C2206 1.419 . S
C2205 C2200 1.425 . S
C2205 C2202 1.409 . S
C2205 C2203 1.415 . S
C2206 H2196 0.930 . S
C2206 C2204 1.419 . S
C2206 C2207 1.362 . S
C2207 H2197 0.930 . S
C2207 C2200 1.409 . S
C2207 C2206 1.362 . S
C679 C403 1.120 . S
C684 C11 1.071 . S
C695 C25 1.063 . S
C700 C417 1.128 . S
C711 C431 1.118 . S
C716 C39 1.073 . S
C727 C53 1.124 . S
C732 C445 1.067 . S
C743 C347 1.058 . S
C748 C67 1.132 . S
C759 C81 1.062 . S
C764 C361 1.129 . S
C775 C375 1.061 . S
C780 C95 1.130 . S
C791 C109 1.070 . S
C796 C389 1.120 . S
C807 C543 1.076 . S
C812 C123 1.115 . S
C823 C557 1.132 . S
C828 C137 1.058 . S
C839 C515 1.078 . S
C844 C151 1.113 . S
C855 C165 1.084 . S
C860 C529 1.107 . S
C871 C487 1.101 . S
C876 C179 1.090 . S
C887 C501 1.112 . S
C892 C193 1.079 . S
C903 C207 1.108 . S
C908 C459 1.083 . S
C919 C473 1.066 . S
C924 C221 1.125 . S
C935 C235 1.107 . S
C940 C641 1.085 . S
C951 C613 1.081 . S
C956 C249 1.110 . S
C967 C627 1.128 . S
C972 C263 1.062 . S
C983 C585 1.110 . S
C988 C277 1.081 . S
C999 C599 1.090 . S
C1004 C291 1.102 . S
C1015 C305 1.132 . S
C1020 C571 1.058 . S
C1031 C319 1.058 . S
C1036 C669 1.132 . S
C1047 C655 1.120 . S
C1052 C333 1.071 . S
C1063 C111 1.344 . S
C1068 C13 1.246 . S
C1079 C69 1.355 . S
C1084 C27 1.221 . S
C1095 C83 1.346 . S
C1100 C41 1.218 . S
C1111 C97 1.327 . S
C1116 C55 1.269 . S
C1127 C293 1.258 . S
C1132 C125 1.336 . S
C1143 C251 1.258 . S
C1148 C139 1.294 . S
C1159 C265 1.291 . S
C1164 C153 1.261 . S
C1175 C279 1.353 . S
C1180 C167 1.228 . S
C1191 C335 1.230 . S
C1196 C181 1.353 . S
C1207 C307 1.217 . S
C1212 C195 1.347 . S
C1223 C209 1.293 . S
C1228 C321 1.306 . S
C1239 C237 1.279 . S
C1244 C223 1.318 . S
C1255 C447 1.341 . S
C1260 C349 1.250 . S
C1271 C405 1.353 . S
C1276 C363 1.217 . S
C1287 C377 1.217 . S
C1292 C419 1.349 . S
C1303 C391 1.345 . S
C1308 C433 1.245 . S
C1319 C461 1.270 . S
C1324 C629 1.282 . S
C1335 C475 1.355 . S
C1340 C587 1.219 . S
C1351 C601 1.326 . S
C1356 C489 1.270 . S
C1367 C615 1.351 . S
C1372 C503 1.216 . S
C1383 C671 1.322 . S
C1388 C517 1.234 . S
C1399 C643 1.222 . S
C1404 C531 1.338 . S
C1415 C657 1.354 . S
C1420 C545 1.227 . S
C1431 C559 1.308 . S
C1436 C573 1.245 . S
C1447 C7 1.146 . S
C1452 C120 0.962 . S
C1463 C134 1.091 . S
C1468 C21 1.085 . S
C1479 C148 0.992 . S
C1484 C35 1.137 . S
C1495 C162 1.087 . S
C1500 C49 1.087 . S
C1511 C63 1.147 . S
C1516 C176 0.958 . S
C1527 C190 0.981 . S
C1532 C77 1.133 . S
C1543 C91 1.143 . S
C1548 C204 0.962 . S
C1559 C218 0.962 . S
C1564 C105 1.146 . S
C1575 C232 1.075 . S
C1580 C119 1.092 . S
C1591 C330 1.100 . S
C1596 C133 1.082 . S
C1607 C147 1.147 . S
C1612 C302 0.959 . S
C1623 C161 1.147 . S
C1628 C316 0.960 . S
C1639 C175 1.082 . S
C1644 C246 1.108 . S
C1655 C189 1.082 . S
C1660 C260 1.099 . S
C1671 C203 1.104 . S
C1676 C274 1.046 . S
C1687 C217 1.099 . S
C1692 C288 1.057 . S
C1703 C231 1.086 . S
C1708 C8 1.090 . S
C1719 C245 1.094 . S
C1724 C64 1.069 . S
C1735 C259 1.110 . S
C1740 C78 1.058 . S
C1751 C273 1.138 . S
C1756 C92 0.970 . S
C1767 C287 1.118 . S
C1772 C106 1.014 . S
C1783 C301 1.135 . S
C1788 C36 0.977 . S
C1799 C50 1.103 . S
C1804 C315 1.081 . S
C1815 C22 1.040 . S
C1820 C329 1.118 . S
C1831 C456 1.109 . S
C1836 C343 1.080 . S
C1847 C470 1.104 . S
C1852 C357 1.086 . S
C1863 C484 1.015 . S
C1868 C371 1.128 . S
C1879 C498 1.068 . S
C1884 C385 1.105 . S
C1895 C512 0.983 . S
C1900 C399 1.140 . S
C1911 C413 1.132 . S
C1916 C526 1.006 . S
C1927 C540 0.958 . S
C1932 C427 1.145 . S
C1943 C441 1.147 . S
C1948 C554 0.957 . S
C1959 C568 1.107 . S
C1964 C455 1.083 . S
C1975 C469 1.097 . S
C1980 C666 1.084 . S
C1991 C483 1.133 . S
C1996 C638 1.002 . S
C2007 C652 1.108 . S
C2012 C497 1.083 . S
C2023 C582 1.022 . S
C2028 C511 1.114 . S
C2039 C525 1.086 . S
C2044 C596 1.090 . S
C2055 C539 1.082 . S
C2060 C610 1.102 . S
C2071 C624 1.038 . S
C2076 C553 1.119 . S
C2087 C344 1.108 . S
C2092 C567 1.082 . S
C2103 C400 1.062 . S
C2108 C581 1.097 . S
C2119 C414 0.961 . S
C2124 C595 1.143 . S
C2135 C609 1.095 . S
C2140 C428 1.088 . S
C2151 C442 0.978 . S
C2156 C623 1.142 . S
C2167 C372 0.986 . S
C2172 C637 1.139 . S
C2183 C651 1.126 . S
C2188 C386 1.020 . S
C2199 C358 1.069 . S
C2204 C665 1.105 . S
