# Generated by pormake.
# Topology lcv-e, (6)-cn, num edge types: 1
# Building blocks:
#     Node 0, Type 0, BuildingBlock: MAKGUD_clean_sbu_1, # of connection points: 6
#     Node 1, Type 0, BuildingBlock: MAKGUD_clean_sbu_1, # of connection points: 6
#     Node 2, Type 0, BuildingBlock: MAKGUD_clean_sbu_1, # of connection points: 6
#     Node 3, Type 0, BuildingBlock: MAKGUD_clean_sbu_1, # of connection points: 6
#     Node 4, Type 0, BuildingBlock: MAKGUD_clean_sbu_1, # of connection points: 6
#     Node 5, Type 0, BuildingBlock: MAKGUD_clean_sbu_1, # of connection points: 6
#     Node 6, Type 0, BuildingBlock: MAKGUD_clean_sbu_1, # of connection points: 6
#     Node 7, Type 0, BuildingBlock: MAKGUD_clean_sbu_1, # of connection points: 6
#     Node 8, Type 0, BuildingBlock: MAKGUD_clean_sbu_1, # of connection points: 6
#     Node 9, Type 0, BuildingBlock: MAKGUD_clean_sbu_1, # of connection points: 6
#     Node 10, Type 0, BuildingBlock: MAKGUD_clean_sbu_1, # of connection points: 6
#     Node 11, Type 0, BuildingBlock: MAKGUD_clean_sbu_1, # of connection points: 6
#     Node 12, Type 0, BuildingBlock: MAKGUD_clean_sbu_1, # of connection points: 6
#     Node 13, Type 0, BuildingBlock: MAKGUD_clean_sbu_1, # of connection points: 6
#     Node 14, Type 0, BuildingBlock: MAKGUD_clean_sbu_1, # of connection points: 6
#     Node 15, Type 0, BuildingBlock: MAKGUD_clean_sbu_1, # of connection points: 6
#     Node 16, Type 0, BuildingBlock: MAKGUD_clean_sbu_1, # of connection points: 6
#     Node 17, Type 0, BuildingBlock: MAKGUD_clean_sbu_1, # of connection points: 6
#     Node 18, Type 0, BuildingBlock: MAKGUD_clean_sbu_1, # of connection points: 6
#     Node 19, Type 0, BuildingBlock: MAKGUD_clean_sbu_1, # of connection points: 6
#     Node 20, Type 0, BuildingBlock: MAKGUD_clean_sbu_1, # of connection points: 6
#     Node 21, Type 0, BuildingBlock: MAKGUD_clean_sbu_1, # of connection points: 6
#     Node 22, Type 0, BuildingBlock: MAKGUD_clean_sbu_1, # of connection points: 6
#     Node 23, Type 0, BuildingBlock: MAKGUD_clean_sbu_1, # of connection points: 6
#     Edge 24, Type (0, 0), BuildingBlock: AJUNOK_clean_linker_0, # of connection points: 2
#     Edge 25, Type (0, 0), BuildingBlock: AJUNOK_clean_linker_0, # of connection points: 2
#     Edge 26, Type (0, 0), BuildingBlock: AJUNOK_clean_linker_0, # of connection points: 2
#     Edge 27, Type (0, 0), BuildingBlock: AJUNOK_clean_linker_0, # of connection points: 2
#     Edge 28, Type (0, 0), BuildingBlock: AJUNOK_clean_linker_0, # of connection points: 2
#     Edge 29, Type (0, 0), BuildingBlock: AJUNOK_clean_linker_0, # of connection points: 2
#     Edge 30, Type (0, 0), BuildingBlock: AJUNOK_clean_linker_0, # of connection points: 2
#     Edge 31, Type (0, 0), BuildingBlock: AJUNOK_clean_linker_0, # of connection points: 2
#     Edge 32, Type (0, 0), BuildingBlock: AJUNOK_clean_linker_0, # of connection points: 2
#     Edge 33, Type (0, 0), BuildingBlock: AJUNOK_clean_linker_0, # of connection points: 2
#     Edge 34, Type (0, 0), BuildingBlock: AJUNOK_clean_linker_0, # of connection points: 2
#     Edge 35, Type (0, 0), BuildingBlock: AJUNOK_clean_linker_0, # of connection points: 2
#     Edge 36, Type (0, 0), BuildingBlock: AJUNOK_clean_linker_0, # of connection points: 2
#     Edge 37, Type (0, 0), BuildingBlock: AJUNOK_clean_linker_0, # of connection points: 2
#     Edge 38, Type (0, 0), BuildingBlock: AJUNOK_clean_linker_0, # of connection points: 2
#     Edge 39, Type (0, 0), BuildingBlock: AJUNOK_clean_linker_0, # of connection points: 2
#     Edge 40, Type (0, 0), BuildingBlock: AJUNOK_clean_linker_0, # of connection points: 2
#     Edge 41, Type (0, 0), BuildingBlock: AJUNOK_clean_linker_0, # of connection points: 2
#     Edge 42, Type (0, 0), BuildingBlock: AJUNOK_clean_linker_0, # of connection points: 2
#     Edge 43, Type (0, 0), BuildingBlock: AJUNOK_clean_linker_0, # of connection points: 2
#     Edge 44, Type (0, 0), BuildingBlock: AJUNOK_clean_linker_0, # of connection points: 2
#     Edge 45, Type (0, 0), BuildingBlock: AJUNOK_clean_linker_0, # of connection points: 2
#     Edge 46, Type (0, 0), BuildingBlock: AJUNOK_clean_linker_0, # of connection points: 2
#     Edge 47, Type (0, 0), BuildingBlock: AJUNOK_clean_linker_0, # of connection points: 2
#     Edge 48, Type (0, 0), BuildingBlock: AJUNOK_clean_linker_0, # of connection points: 2
#     Edge 49, Type (0, 0), BuildingBlock: AJUNOK_clean_linker_0, # of connection points: 2
#     Edge 50, Type (0, 0), BuildingBlock: AJUNOK_clean_linker_0, # of connection points: 2
#     Edge 51, Type (0, 0), BuildingBlock: AJUNOK_clean_linker_0, # of connection points: 2
#     Edge 52, Type (0, 0), BuildingBlock: AJUNOK_clean_linker_0, # of connection points: 2
#     Edge 53, Type (0, 0), BuildingBlock: AJUNOK_clean_linker_0, # of connection points: 2
#     Edge 54, Type (0, 0), BuildingBlock: AJUNOK_clean_linker_0, # of connection points: 2
#     Edge 55, Type (0, 0), BuildingBlock: AJUNOK_clean_linker_0, # of connection points: 2
#     Edge 56, Type (0, 0), BuildingBlock: AJUNOK_clean_linker_0, # of connection points: 2
#     Edge 57, Type (0, 0), BuildingBlock: AJUNOK_clean_linker_0, # of connection points: 2
#     Edge 58, Type (0, 0), BuildingBlock: AJUNOK_clean_linker_0, # of connection points: 2
#     Edge 59, Type (0, 0), BuildingBlock: AJUNOK_clean_linker_0, # of connection points: 2
#     Edge 60, Type (0, 0), BuildingBlock: AJUNOK_clean_linker_0, # of connection points: 2
#     Edge 61, Type (0, 0), BuildingBlock: AJUNOK_clean_linker_0, # of connection points: 2
#     Edge 62, Type (0, 0), BuildingBlock: AJUNOK_clean_linker_0, # of connection points: 2
#     Edge 63, Type (0, 0), BuildingBlock: AJUNOK_clean_linker_0, # of connection points: 2
#     Edge 64, Type (0, 0), BuildingBlock: AJUNOK_clean_linker_0, # of connection points: 2
#     Edge 65, Type (0, 0), BuildingBlock: AJUNOK_clean_linker_0, # of connection points: 2
#     Edge 66, Type (0, 0), BuildingBlock: AJUNOK_clean_linker_0, # of connection points: 2
#     Edge 67, Type (0, 0), BuildingBlock: AJUNOK_clean_linker_0, # of connection points: 2
#     Edge 68, Type (0, 0), BuildingBlock: AJUNOK_clean_linker_0, # of connection points: 2
#     Edge 69, Type (0, 0), BuildingBlock: AJUNOK_clean_linker_0, # of connection points: 2
#     Edge 70, Type (0, 0), BuildingBlock: AJUNOK_clean_linker_0, # of connection points: 2
#     Edge 71, Type (0, 0), BuildingBlock: AJUNOK_clean_linker_0, # of connection points: 2
#     Edge 72, Type (0, 0), BuildingBlock: AJUNOK_clean_linker_0, # of connection points: 2
#     Edge 73, Type (0, 0), BuildingBlock: AJUNOK_clean_linker_0, # of connection points: 2
#     Edge 74, Type (0, 0), BuildingBlock: AJUNOK_clean_linker_0, # of connection points: 2
#     Edge 75, Type (0, 0), BuildingBlock: AJUNOK_clean_linker_0, # of connection points: 2
#     Edge 76, Type (0, 0), BuildingBlock: AJUNOK_clean_linker_0, # of connection points: 2
#     Edge 77, Type (0, 0), BuildingBlock: AJUNOK_clean_linker_0, # of connection points: 2
#     Edge 78, Type (0, 0), BuildingBlock: AJUNOK_clean_linker_0, # of connection points: 2
#     Edge 79, Type (0, 0), BuildingBlock: AJUNOK_clean_linker_0, # of connection points: 2
#     Edge 80, Type (0, 0), BuildingBlock: AJUNOK_clean_linker_0, # of connection points: 2
#     Edge 81, Type (0, 0), BuildingBlock: AJUNOK_clean_linker_0, # of connection points: 2
#     Edge 82, Type (0, 0), BuildingBlock: AJUNOK_clean_linker_0, # of connection points: 2
#     Edge 83, Type (0, 0), BuildingBlock: AJUNOK_clean_linker_0, # of connection points: 2
#     Edge 84, Type (0, 0), BuildingBlock: AJUNOK_clean_linker_0, # of connection points: 2
#     Edge 85, Type (0, 0), BuildingBlock: AJUNOK_clean_linker_0, # of connection points: 2
#     Edge 86, Type (0, 0), BuildingBlock: AJUNOK_clean_linker_0, # of connection points: 2
#     Edge 87, Type (0, 0), BuildingBlock: AJUNOK_clean_linker_0, # of connection points: 2
#     Edge 88, Type (0, 0), BuildingBlock: AJUNOK_clean_linker_0, # of connection points: 2
#     Edge 89, Type (0, 0), BuildingBlock: AJUNOK_clean_linker_0, # of connection points: 2
#     Edge 90, Type (0, 0), BuildingBlock: AJUNOK_clean_linker_0, # of connection points: 2
#     Edge 91, Type (0, 0), BuildingBlock: AJUNOK_clean_linker_0, # of connection points: 2
#     Edge 92, Type (0, 0), BuildingBlock: AJUNOK_clean_linker_0, # of connection points: 2
#     Edge 93, Type (0, 0), BuildingBlock: AJUNOK_clean_linker_0, # of connection points: 2
#     Edge 94, Type (0, 0), BuildingBlock: AJUNOK_clean_linker_0, # of connection points: 2
#     Edge 95, Type (0, 0), BuildingBlock: AJUNOK_clean_linker_0, # of connection points: 2
# Relax obj value: 0.241
# Max RMSD: 0.210
# Mean RMSD: 0.189
data_MOF--net-lcv-e--node1-MAKGUD_clean_sbu_1--edge1-AJUNOK_clean_linker_0
_symmetry_space_group_name_H-M    P1
_symmetry_Int_Tables_number       1
_symmetry_cell_setting            triclinic
loop_
_symmetry_equiv_pos_as_xyz
'x, y, z'
_cell_length_a     46.030428
_cell_length_b     47.321167
_cell_length_c     46.240937
_cell_angle_alpha  89.829019
_cell_angle_beta   91.755632
_cell_angle_gamma 88.576182
loop_
_atom_site_label
_atom_site_type_symbol
_atom_site_fract_x
_atom_site_fract_y
_atom_site_fract_z
_atom_type_partial_charge
O0 O 0.10752 0.20163 0.37712 0.0
Tb1 Tb 0.09801 0.20776 0.3305 0.0
C2 C 0.11799 0.19382 0.26994 0.0
O3 O 1.04005 0.24659 0.3035 0.0
Tb4 Tb 0.0536 0.21834 0.2684 0.0
C5 C 0.05233 0.25193 0.22267 0.0
O6 O 0.08249 0.25308 0.32914 0.0
O7 O 1.01212 0.19859 0.25958 0.0
C8 C 0.98869 0.21519 0.25766 0.0
O9 O 0.9843 0.23275 0.27914 0.0
O10 O 0.12458 0.20893 0.29279 0.0
O11 O 0.09052 0.18811 0.26386 0.0
O12 O 0.07945 0.16487 0.32154 0.0
C13 C 0.05766 0.2636 0.31779 0.0
C14 C 0.13572 0.19955 0.37522 0.0
O15 O 0.06439 0.25809 0.24761 0.0
O16 O 0.04296 0.22643 0.22309 0.0
C17 C 0.08236 0.14334 0.34042 0.0
O18 O 0.09178 0.14888 0.3668 0.0
O19 O 0.14234 0.20292 0.34835 0.0
O20 O 0.18148 0.73912 0.50605 0.0
Tb21 Tb 0.19395 0.78001 0.52451 0.0
C22 C 0.18119 0.84407 0.52579 0.0
O23 O 0.24074 0.79305 0.58196 0.0
Tb24 Tb 0.22046 0.83495 0.57917 0.0
C25 C 0.25826 0.86998 0.55741 0.0
O26 O 0.24121 0.7762 0.53554 0.0
O27 O 0.20623 0.85627 0.61839 0.0
C28 C 0.22477 0.86204 0.63978 0.0
O29 O 0.24892 0.84673 0.64234 0.0
O30 O 0.19256 0.82351 0.51051 0.0
O31 O 0.18008 0.84237 0.55415 0.0
O32 O 0.15319 0.782 0.5488 0.0
C33 C 0.25538 0.78328 0.5598 0.0
C34 C 0.1781 0.74771 0.47929 0.0
O35 O 0.25322 0.86708 0.58462 0.0
O36 O 0.2427 0.85235 0.54254 0.0
C37 C 0.12964 0.79218 0.53453 0.0
O38 O 0.13275 0.80201 0.50826 0.0
O39 O 0.18503 0.77417 0.47801 0.0
O40 O 0.48927 0.96622 0.88191 0.0
Tb41 Tb 0.49711 0.95555 0.83629 0.0
C42 C 0.46576 0.97112 0.77827 0.0
O43 O 0.50257 0.89447 0.7915 0.0
Tb44 Tb 0.51076 0.92824 0.76044 0.0
C45 C 0.49113 0.91272 0.70784 0.0
O46 O 0.51989 0.91262 0.83536 0.0
O47 O 0.55784 0.92664 0.75605 0.0
C48 C 0.57159 0.90185 0.75579 0.0
O49 O 0.55836 0.87983 0.766 0.0
O50 O 0.46255 0.95868 0.80325 0.0
O51 O 0.49141 0.97001 0.76661 0.0
O52 O 0.51352 0.99968 0.82815 0.0
C53 C 0.51306 0.89067 0.81824 0.0
C54 C 0.46255 0.9576 0.88204 0.0
O55 O 0.47634 0.91236 0.73136 0.0
O56 O 0.51703 0.9214 0.7141 0.0
C57 C 0.52529 1.01677 0.84821 0.0
O58 O 0.53222 1.00592 0.87374 0.0
O59 O 0.45604 0.94731 0.85678 0.0
O60 O 0.45226 0.36649 1.02642 0.0
Tb61 Tb 0.43679 0.32349 1.03459 0.0
C62 C 0.44405 0.2655 1.00624 0.0
O63 O 0.3795 0.28476 1.03869 0.0
Tb64 Tb 0.41053 0.25596 0.06084 0.0
C65 C 0.38354 0.2076 1.05701 0.0
O66 O 0.39363 0.32834 1.05404 0.0
O67 O 0.41328 0.25661 0.10791 0.0
C68 C 0.38845 0.25918 0.12141 0.0
O69 O 0.37028 0.27942 0.11241 0.0
O70 O 0.43042 0.28996 1.00357 0.0
O71 O 0.44686 0.25336 1.03181 0.0
O72 O 0.47913 0.3099 1.05534 0.0
C73 C 0.37276 0.31059 1.04693 0.0
C74 C 0.44751 0.36609 0.99844 0.0
O75 O 0.371 0.23232 1.05835 0.0
O76 O 0.41155 0.20999 1.05619 0.0
C77 C 0.50142 0.30364 1.03864 0.0
O78 O 0.49687 0.30461 1.01047 0.0
O79 O 0.43615 0.34218 0.99147 0.0
O80 O 0.09777 0.96693 0.27418 0.0
Tb81 Tb 0.09775 0.95479 0.32011 0.0
C82 C 0.12862 0.97582 0.37482 0.0
O83 O 0.10148 0.89701 0.36475 0.0
Tb84 Tb 0.09232 0.93023 0.39599 0.0
C85 C 0.12401 0.91658 0.44321 0.0
O86 O 0.0758 0.91252 0.3242 0.0
O87 O 0.04704 0.92218 0.40426 0.0
C88 C 1.0397 0.89559 0.40663 0.0
O89 O 0.05923 0.87576 0.40127 0.0
O90 O 0.13345 0.96184 0.35097 0.0
O91 O 0.10319 0.97323 0.38636 0.0
O92 O 0.07897 0.9983 0.32828 0.0
C93 C 0.0847 0.89145 0.34208 0.0
C94 C 0.12511 0.96065 0.27011 0.0
O95 O 0.13321 0.91652 0.41696 0.0
O96 O 0.09666 0.92407 0.44289 0.0
C97 C 0.09196 1.02078 0.31723 0.0
O98 O 0.11527 1.01614 0.30212 0.0
O99 O 0.1361 0.94926 0.29377 0.0
O100 O 0.44937 0.75211 0.62167 0.0
Tb101 Tb 0.44531 0.79233 0.59722 0.0
C102 C 0.45414 0.85518 0.60467 0.0
O103 O 0.39412 0.8145 0.5398 0.0
Tb104 Tb 0.41632 0.85389 0.55026 0.0
C105 C 0.3781 0.88665 0.57658 0.0
O106 O 0.39993 0.787 0.58141 0.0
O107 O 0.41931 0.8774 0.50963 0.0
C108 C 0.39543 0.88339 0.49396 0.0
O109 O 0.37298 0.86714 0.49703 0.0
O110 O 0.43895 0.83428 0.61387 0.0
O111 O 0.45601 0.85948 0.57667 0.0
O112 O 0.48887 0.79583 0.57741 0.0
C113 C 0.38356 0.79752 0.5596 0.0
C114 C 0.44902 0.76387 0.64718 0.0
O115 O 0.38444 0.86062 0.58384 0.0
O116 O 0.39331 0.89397 0.55496 0.0
C117 C 0.51161 0.77981 0.58651 0.0
O118 O 0.50715 0.75973 0.6054 0.0
O119 O 0.44746 0.7911 0.64419 0.0
O120 O 0.59768 0.21483 0.87391 0.0
Tb121 Tb 0.55102 0.20525 0.86939 0.0
C122 C 0.49617 0.22279 0.90155 0.0
O123 O 0.49714 0.14876 0.85278 0.0
Tb124 Tb 0.46844 0.18592 0.85705 0.0
C125 C 0.42491 0.16879 0.88909 0.0
O126 O 0.54644 0.16156 0.84967 0.0
O127 O 0.45113 0.18619 0.81265 0.0
C128 C 0.4405 0.16202 0.80373 0.0
O129 O 0.44242 0.14017 0.82131 0.0
O130 O 0.52115 0.20928 0.90411 0.0
O131 O 0.4832 0.22508 0.87594 0.0
O132 O 0.54683 0.25008 0.85193 0.0
C133 C 0.5249 0.14261 0.84851 0.0
C134 C 0.60091 0.20772 0.90111 0.0
O135 O 0.45243 0.16386 0.89468 0.0
O136 O 0.4219 0.1837 0.86551 0.0
C137 C 0.55395 0.27116 0.86997 0.0
O138 O 0.56 0.26386 0.89698 0.0
O139 O 0.57646 0.19803 0.90963 0.0
O140 O 0.18586 0.2663 1.00882 0.0
Tb141 Tb 0.18571 0.29916 1.04164 0.0
C142 C 0.17646 0.29849 0.1092 0.0
O143 O 0.1328 0.34043 0.06554 0.0
Tb144 Tb 0.12456 0.33745 0.11137 0.0
C145 C 0.0745 0.31534 0.12546 0.0
O146 O 0.13972 0.30968 1.02879 0.0
O147 O 0.13323 0.37224 0.14067 0.0
C148 C 0.11651 0.39519 0.13917 0.0
O149 O 0.10022 0.39935 0.11563 0.0
O150 O 0.17812 0.3134 0.08535 0.0
O151 O 0.15763 0.30758 0.1279 0.0
O152 O 0.22806 0.31682 1.0306 0.0
C153 C 0.12162 0.32262 1.04663 0.0
C154 C 0.19099 0.24522 1.02652 0.0
O155 O 0.079 0.34222 0.12267 0.0
O156 O 0.09786 0.30131 0.11862 0.0
C157 C 0.24597 0.32901 1.04954 0.0
O158 O 0.23553 0.33831 0.07394 0.0
O159 O 0.19293 0.25456 1.05304 0.0
O160 O 0.22933 1.03141 0.21185 0.0
Tb161 Tb 0.23622 0.0752 0.1979 0.0
C162 C 0.21141 0.13473 0.20818 0.0
O163 O 0.25975 0.11189 0.13193 0.0
Tb164 Tb 0.25779 0.14575 0.16428 0.0
C165 C 0.23173 0.19052 0.1382 0.0
O166 O 0.25978 0.06822 0.15659 0.0
O167 O 0.30098 0.16289 0.17331 0.0
C168 C 0.32142 0.16201 0.15384 0.0
O169 O 0.31874 0.14443 0.13206 0.0
O170 O 0.20535 0.11083 0.19527 0.0
O171 O 0.23785 0.14445 0.20652 0.0
O172 O 0.25341 0.08655 0.24223 0.0
C173 C 0.26252 0.08395 0.1327 0.0
C174 C 0.20144 1.03123 0.20634 0.0
O175 O 0.25941 0.18676 0.14293 0.0
O176 O 0.21841 0.16858 0.14776 0.0
C177 C 0.26193 0.06797 0.2628 0.0
O178 O 0.26681 1.04157 0.25537 0.0
O179 O 0.1935 1.05556 0.19522 0.0
O180 O 0.24279 0.13013 0.4468 0.0
Tb181 Tb 0.24778 0.0845 0.45524 0.0
C182 C 0.22581 1.02706 0.43808 0.0
O183 O 0.30108 1.05023 0.49956 0.0
Tb184 Tb 0.2875 1.0187 0.46719 0.0
C185 C 0.27692 0.97268 0.49702 0.0
O186 O 0.26109 0.08036 0.50177 0.0
O187 O 0.32968 1.00275 0.45291 0.0
C188 C 0.34992 0.99631 0.47292 0.0
O189 O 0.34778 1.00827 0.49838 0.0
O190 O 0.21942 1.04921 0.45364 0.0
O191 O 0.25325 1.02078 0.43274 0.0
O192 O 0.26593 0.07745 0.41135 0.0
C193 C 0.28312 0.06618 0.51467 0.0
C194 C 0.21443 0.13122 0.44684 0.0
O195 O 0.26892 0.99811 0.50462 0.0
O196 O 0.28929 0.97332 0.47236 0.0
C197 C 0.24941 0.08604 0.38853 0.0
O198 O 0.22361 0.09695 0.39371 0.0
O199 O 0.20522 0.10615 0.45267 0.0
O200 O 0.33723 0.11607 0.71644 0.0
Tb201 Tb 0.33147 0.07145 0.70426 0.0
C202 C 0.36093 1.01509 0.71667 0.0
O203 O 0.28277 1.03884 0.65732 0.0
Tb204 Tb 0.302 1.00556 0.68591 0.0
C205 C 0.32404 0.96818 0.64995 0.0
O206 O 0.31767 0.07287 0.65773 0.0
O207 O 0.26385 0.98181 0.69725 0.0
C208 C 0.24424 0.97662 0.67662 0.0
O209 O 0.24293 0.99356 0.65405 0.0
O210 O 0.36325 1.0376 0.70064 0.0
O211 O 0.33475 1.0058 0.72157 0.0
O212 O 0.31207 1.05676 0.74542 0.0
C213 C 0.29758 1.05815 0.64361 0.0
C214 C 0.36556 0.11453 0.71888 0.0
O215 O 0.30658 0.96266 0.67042 0.0
O216 O 0.32986 0.99495 0.64991 0.0
C217 C 0.30758 0.07387 0.76787 0.0
O218 O 0.30938 0.1012 0.76376 0.0
O219 O 0.37418 0.08918 0.71208 0.0
O220 O 0.34243 0.99799 0.94735 0.0
Tb221 Tb 0.3258 1.04069 0.95774 0.0
C222 C 0.33635 0.10318 0.94203 0.0
O223 O 0.26682 1.06038 0.99297 0.0
Tb224 Tb 0.28288 0.10024 0.97892 0.0
C225 C 0.31424 0.11813 1.02414 0.0
O226 O 0.30979 1.03834 1.00301 0.0
O227 O 0.24627 0.1299 0.97416 0.0
C228 C 0.22771 0.13173 0.99524 0.0
O229 O 0.22844 0.11171 1.015 0.0
O230 O 0.34709 0.08086 0.95599 0.0
O231 O 0.30808 0.10858 0.9407 0.0
O232 O 0.3049 1.04755 0.91378 0.0
C233 C 0.28403 1.04723 1.01202 0.0
C234 C 0.37 1.00363 0.95041 0.0
O235 O 0.32294 0.09936 1.00577 0.0
O236 O 0.28826 0.12691 1.01659 0.0
C237 C 0.3191 1.03907 0.8904 0.0
O238 O 0.34388 1.02513 0.8945 0.0
O239 O 0.37221 1.02974 0.9586 0.0
O240 O 0.68148 0.24761 1.01523 0.0
Tb241 Tb 0.68722 0.28856 1.03655 0.0
C242 C 0.66326 0.34885 1.04021 0.0
O243 O 0.74163 0.31301 0.0882 0.0
Tb244 Tb 0.71649 0.35254 0.0813 0.0
C245 C 0.7427 0.3873 1.04644 0.0
O246 O 0.73517 0.28681 1.04604 0.0
O247 O 0.71085 0.37881 0.11987 0.0
C248 C 0.73312 0.38726 0.13609 0.0
O249 O 0.75809 0.37341 0.13454 0.0
O250 O 0.67984 0.33226 1.02486 0.0
O251 O 0.67126 0.35592 0.06669 0.0
O252 O 0.64484 0.27889 1.05618 0.0
C253 C 0.75227 0.29757 0.0669 0.0
C254 C 0.6762 0.25735 0.98917 0.0
O255 O 0.74385 0.3883 0.07439 0.0
O256 O 0.7281 0.36558 1.03785 0.0
C257 C 0.6265 0.29593 0.06988 0.0
O258 O 0.63673 0.31676 0.08543 0.0
O259 O 0.67897 0.28467 0.98964 0.0
O260 O 0.99593 0.46672 0.35763 0.0
Tb261 Tb 1.00579 0.45442 0.31327 0.0
C262 C 0.95714 0.46034 0.26553 0.0
O263 O 1.00228 0.3833 0.28221 0.0
Tb264 Tb 0.99752 0.41434 0.24855 0.0
C265 C 0.984 0.39502 0.19594 0.0
O266 O 1.02836 0.4101 0.31582 0.0
O267 O 1.03715 0.43744 0.24332 0.0
C268 C 0.06207 0.42322 0.24457 0.0
O269 O 0.06395 0.40067 0.26121 0.0
O270 O 0.98041 0.47275 0.2761 0.0
O271 O 0.95797 0.43298 0.26378 0.0
O272 O 1.02893 0.49598 0.31693 0.0
C273 C 1.01979 0.3848 0.30507 0.0
C274 C 0.96893 0.45913 0.35688 0.0
O275 O 0.9969 0.38015 0.2166 0.0
O276 O 0.97842 0.42038 0.20526 0.0
C277 C 1.01343 0.52046 0.31743 0.0
O278 O 0.985 0.51915 0.31523 0.0
O279 O 0.96311 0.44762 0.33186 0.0
O280 O 0.95168 0.85247 0.50507 0.0
Tb281 Tb 0.94181 0.80992 0.5204 0.0
C282 C 0.94359 0.74744 0.50218 0.0
O283 O 0.90622 0.78607 0.57117 0.0
Tb284 Tb 0.91039 0.74238 0.55844 0.0
C285 C 0.86104 0.7253 0.53387 0.0
O286 O 0.89795 0.81879 0.53657 0.0
O287 O 0.91711 0.71186 0.59359 0.0
C288 C 0.90486 0.71767 0.61832 0.0
O289 O 0.89685 0.74406 0.6229 0.0
O290 O 0.9282 0.77108 0.4997 0.0
O291 O 0.94425 0.73337 0.52701 0.0
O292 O 0.9836 0.80056 0.54405 0.0
C293 C 0.8875 0.80293 0.55708 0.0
C294 C 0.95609 0.84519 0.47834 0.0
O295 O 0.86723 0.72503 0.56136 0.0
O296 O 0.88213 0.73682 0.52057 0.0
C297 C 1.00505 0.78851 0.52952 0.0
O298 O 0.99933 0.78028 0.50292 0.0
O299 O 0.95153 0.81835 0.47546 0.0
O300 O 0.0981 0.71071 0.36332 0.0
Tb301 Tb 0.05091 0.70375 0.35761 0.0
C302 C 0.99251 0.71145 0.39273 0.0
O303 O 1.00563 0.64845 0.35874 0.0
Tb304 Tb 0.96749 0.67396 0.34475 0.0
C305 C 0.92 0.6504 0.36455 0.0
O306 O 0.04561 0.66195 0.33424 0.0
O307 O 0.95636 0.67622 0.29843 0.0
C308 C 0.9551 0.65237 0.28374 0.0
O309 O 0.96676 0.62936 0.2956 0.0
O310 O 1.02069 0.70618 0.39294 0.0
O311 O 0.97707 0.71269 0.36823 0.0
O312 O 0.04832 0.74856 0.33989 0.0
C313 C 1.02687 0.64193 0.3414 0.0
C314 C 0.10038 0.70292 0.39039 0.0
O315 O 0.94327 0.63687 0.35652 0.0
O316 O 0.92399 0.67744 0.36275 0.0
C317 C 0.05962 0.7698 0.35547 0.0
O318 O 0.07009 0.76358 0.38152 0.0
O319 O 0.07516 0.69456 0.39816 0.0
O320 O 0.58024 0.47152 0.78671 0.0
Tb321 Tb 0.58237 0.45772 0.83235 0.0
C322 C 0.62327 0.47124 0.884 0.0
O323 O 0.59026 0.40533 0.87596 0.0
Tb324 Tb 0.57525 0.43538 0.90826 0.0
C325 C 0.59235 0.40972 0.95733 0.0
O326 O 0.56282 0.41446 0.83558 0.0
O327 O 0.52908 0.44215 0.91458 0.0
C328 C 0.51215 0.42039 0.91091 0.0
O329 O 0.52099 0.39983 0.89405 0.0
O330 O 0.62128 0.45606 0.86036 0.0
O331 O 0.60145 0.47237 0.90169 0.0
O332 O 0.56727 0.50041 0.84853 0.0
C333 C 0.57313 0.39572 0.85521 0.0
C334 C 0.60797 0.46846 0.78208 0.0
O335 O 0.58069 0.39766 0.93488 0.0
O336 O 0.59487 0.43654 0.95207 0.0
C337 C 0.5568 0.52146 0.83145 0.0
O338 O 0.54911 0.51545 0.80465 0.0
O339 O 0.62046 0.45764 0.80523 0.0
O340 O 0.59064 0.7014 0.89287 0.0
Tb341 Tb 0.57085 0.71003 0.84974 0.0
C342 C 0.5766 0.69358 0.78654 0.0
O343 O 0.5096 0.74941 0.82999 0.0
Tb344 Tb 0.51845 0.72526 0.79109 0.0
C345 C 0.53435 0.76312 0.75275 0.0
O346 O 0.55482 0.75515 0.85057 0.0
O347 O 0.48067 0.70564 0.77122 0.0
C348 C 0.45757 0.72157 0.76485 0.0
O349 O 0.44989 0.7405 0.78411 0.0
O350 O 0.58829 0.70889 0.80712 0.0
O351 O 0.54845 0.68927 0.78587 0.0
O352 O 0.55219 0.66656 0.84685 0.0
C353 C 0.52941 0.76628 0.8412 0.0
C354 C 0.61766 0.70274 0.88524 0.0
O355 O 0.55106 0.75197 0.7731 0.0
O356 O 0.50855 0.75314 0.75426 0.0
C357 C 0.56968 0.64415 0.85314 0.0
O358 O 0.59674 0.64907 0.86083 0.0
O359 O 0.61791 0.70921 0.85792 0.0
O360 O 0.95394 0.24522 0.11781 0.0
Tb361 Tb 0.94067 0.28262 0.09164 0.0
C362 C 0.93739 0.34753 0.09007 0.0
O363 O 0.89488 0.3029 1.04051 0.0
Tb364 Tb 0.88927 0.34823 1.0434 0.0
C365 C 0.844 0.36247 0.07459 0.0
O366 O 0.89695 0.26976 0.07574 0.0
O367 O 0.89434 0.3777 1.0076 0.0
C368 C 0.87413 0.38159 0.98707 0.0
O369 O 0.85252 0.364 0.98534 0.0
O370 O 0.92307 0.32502 0.09709 0.0
O371 O 0.92738 0.36245 0.06768 0.0
O372 O 0.98075 0.29366 0.0687 0.0
C373 C 0.88091 0.28576 1.05752 0.0
C374 C 0.95321 0.25787 0.14284 0.0
O375 O 0.84341 0.36057 1.0465 0.0
O376 O 0.86991 0.35606 0.08466 0.0
C377 C 1.00571 0.27923 0.07253 0.0
O378 O 1.0056 0.25567 0.08757 0.0
O379 O 0.94538 0.28423 0.13879 0.0
O380 O 0.69265 0.74409 0.52016 0.0
Tb381 Tb 0.69719 0.76827 0.55982 0.0
C382 C 0.68109 0.75374 0.62514 0.0
O383 O 0.6506 0.81049 0.59065 0.0
Tb384 Tb 0.63941 0.80301 0.635 0.0
C385 C 0.58371 0.79477 0.64667 0.0
O386 O 0.65245 0.78543 0.54939 0.0
O387 O 0.65225 0.83315 0.66838 0.0
C388 C 0.64298 0.85964 0.66538 0.0
O389 O 0.63445 0.86813 0.63934 0.0
O390 O 0.68929 0.77233 0.60589 0.0
O391 O 0.66344 0.76352 0.64483 0.0
O392 O 0.74048 0.78709 0.55292 0.0
C393 C 0.63654 0.79877 0.56883 0.0
C394 C 0.69605 0.71928 0.53213 0.0
O395 O 0.59524 0.81891 0.64123 0.0
O396 O 0.60322 0.77536 0.64122 0.0
C397 C 0.76157 0.78517 0.57321 0.0
O398 O 0.75476 0.77563 0.59872 0.0
O399 O 0.70053 0.72202 0.56002 0.0
O400 O 0.82768 0.60853 0.66249 0.0
Tb401 Tb 0.78091 0.60621 0.67194 0.0
C402 C 0.72491 0.63983 0.65051 0.0
O403 O 0.73172 0.59783 0.73311 0.0
Tb404 Tb 0.70106 0.60068 0.69607 0.0
C405 C 0.65924 0.63512 0.7151 0.0
O406 O 0.77961 0.59005 0.71768 0.0
O407 O 0.68466 0.5579 0.70061 0.0
C408 C 0.67274 0.55217 0.72552 0.0
O409 O 0.67278 0.57162 0.74571 0.0
O410 O 0.75063 0.6413 0.66325 0.0
O411 O 0.70984 0.6167 0.65296 0.0
O412 O 0.77482 0.58179 0.6305 0.0
C413 C 0.75965 0.59196 0.73822 0.0
C414 C 0.83003 0.63542 0.66794 0.0
O415 O 0.68699 0.63942 0.7175 0.0
O416 O 0.65497 0.6115 0.70155 0.0
C417 C 0.78785 0.58986 0.60641 0.0
O418 O 0.80336 0.61276 0.60766 0.0
O419 O 0.80507 0.64519 0.67614 0.0
O420 O 0.74238 0.63544 0.92281 0.0
Tb421 Tb 0.75345 0.59033 0.931 0.0
C422 C 0.72765 0.53396 0.91479 0.0
O423 O 0.80735 0.55231 0.97119 0.0
Tb424 Tb 0.78796 0.52198 0.94084 0.0
C425 C 0.76834 0.48087 0.97295 0.0
O426 O 0.77224 0.58731 0.97628 0.0
O427 O 0.82688 0.49993 0.92614 0.0
C428 C 0.8483 0.49457 0.94511 0.0
O429 O 0.85161 0.51215 0.96681 0.0
O430 O 0.72421 0.55547 0.93211 0.0
O431 O 0.75405 0.52675 0.90699 0.0
O432 O 0.76785 0.58038 0.88587 0.0
C433 C 0.7931 0.57034 0.98775 0.0
C434 C 0.71472 0.63355 0.92786 0.0
O435 O 0.76322 0.50765 0.97743 0.0
O436 O 0.78396 0.47751 0.95043 0.0
C437 C 0.77342 0.59957 0.86562 0.0
O438 O 0.776 0.62603 0.87354 0.0
O439 O 0.70944 0.60766 0.93477 0.0
O440 O 0.84254 0.61298 0.20303 0.0
Tb441 Tb 0.83472 0.57229 0.1811 0.0
C442 C 0.86264 0.51449 0.19625 0.0
O443 O 0.82311 0.5315 0.12369 0.0
Tb444 Tb 0.80571 0.50692 0.15942 0.0
C445 C 0.80368 0.45566 0.13688 0.0
O446 O 0.8139 0.57742 0.13673 0.0
O447 O 0.76437 0.51847 0.17872 0.0
C448 C 0.74108 0.50261 0.18046 0.0
O449 O 0.71773 0.51397 0.19176 0.0
O450 O 0.86653 0.5376 0.18139 0.0
O451 O 0.83699 0.50288 0.19576 0.0
O452 O 0.81175 0.55978 0.22072 0.0
C453 C 0.81567 0.5577 0.11622 0.0
C454 C 0.87045 0.61352 0.19887 0.0
O455 O 0.78944 0.47769 0.12663 0.0
O456 O 0.81845 0.46242 0.16003 0.0
C457 C 0.82734 0.55618 0.24528 0.0
O458 O 0.85559 0.55915 0.24437 0.0
O459 O 0.87733 0.59189 0.18303 0.0
O460 O 0.84835 0.49359 0.42481 0.0
Tb461 Tb 0.82394 0.53364 0.42998 0.0
C462 C 0.82147 0.59599 0.411 0.0
O463 O 0.76777 0.55452 0.46877 0.0
Tb464 Tb 0.77265 0.59753 0.45426 0.0
C465 C 0.80048 0.6286 0.49312 0.0
O466 O 0.81077 0.53113 0.47605 0.0
O467 O 0.72978 0.61704 0.44951 0.0
C468 C 0.71222 0.61395 0.47113 0.0
O469 O 0.71501 0.59059 0.48644 0.0
O470 O 0.83291 0.57827 0.43023 0.0
O471 O 0.79488 0.60631 0.41436 0.0
O472 O 0.80791 0.52767 0.38435 0.0
C473 C 0.78729 0.54337 0.48701 0.0
C474 C 0.87404 0.50449 0.42391 0.0
O475 O 0.81219 0.60859 0.47794 0.0
O476 O 0.7728 0.63007 0.48741 0.0
C477 C 0.79325 0.54546 0.36667 0.0
O478 O 0.77717 0.56577 0.37759 0.0
O479 O 0.87143 0.5316 0.42817 0.0
C480 C 0.04599 0.2586 0.1698 0.0
C481 C 0.0497 0.27054 0.19739 0.0
C482 C 0.04944 0.27492 0.14501 0.0
C483 C 0.05586 0.30367 0.14722 0.0
H484 H 0.04308 0.23607 0.16734 0.0
H485 H 0.05049 0.2643 0.12435 0.0
S486 S 0.05991 0.34603 0.21445 0.0
N487 N 0.05459 0.31345 0.2256 0.0
N488 N 0.06014 0.34452 0.17879 0.0
C489 C 0.05525 0.31661 0.17452 0.0
C490 C 0.05257 0.29983 0.19981 0.0
C491 C 0.1402 0.87771 0.51341 0.0
C492 C 0.16914 0.8687 0.50985 0.0
C493 C 0.126 0.89537 0.49272 0.0
C494 C 0.14057 0.90452 0.46819 0.0
H495 H 0.12786 0.8693 0.53087 0.0
H496 H 0.10304 0.90017 0.49491 0.0
S497 S 0.21839 0.89182 0.45296 0.0
N498 N 0.21313 0.87366 0.48281 0.0
N499 N 0.18676 0.90732 0.44432 0.0
C500 C 0.17036 0.8981 0.46625 0.0
C501 C 0.18461 0.88 0.48704 0.0
C502 C 0.50102 0.89551 0.65771 0.0
C503 C 0.4809 0.90287 0.67901 0.0
C504 C 0.49197 0.88239 0.63177 0.0
C505 C 0.46255 0.87656 0.62631 0.0
H506 H 0.52405 0.89841 0.6618 0.0
H507 H 0.50827 0.87499 0.61695 0.0
S508 S 0.40094 0.8958 0.67292 0.0
N509 N 0.43 0.90643 0.69124 0.0
N510 N 0.41308 0.88194 0.64274 0.0
C511 C 0.44212 0.88582 0.64647 0.0
C512 C 0.45127 0.89895 0.67278 0.0
C513 C 0.44801 0.26377 0.95247 0.0
C514 C 0.45612 0.25244 0.97991 0.0
C515 C 0.46022 0.25338 0.9271 0.0
C516 C 0.48129 0.23147 0.92818 0.0
H517 H 0.43231 0.28115 0.95046 0.0
H518 H 0.45378 0.26322 0.90664 0.0
S519 S 0.50847 0.19286 0.9942 0.0
N520 N 0.48527 0.21686 1.00632 0.0
N521 N 0.50845 0.19738 0.9588 0.0
C522 C 0.48896 0.21928 0.95536 0.0
C523 C 0.4763 0.22972 0.98117 0.0
C524 C 0.13635 0.1571 0.23491 0.0
C525 C 0.14205 0.17995 0.2535 0.0
C526 C 0.15882 0.14271 0.22054 0.0
C527 C 0.18806 0.15083 0.22356 0.0
H528 H 0.11435 0.14994 0.23166 0.0
H529 H 0.15308 0.12504 0.20686 0.0
S530 S 0.21465 0.21062 0.26811 0.0
N531 N 0.17932 0.21071 0.27322 0.0
N532 N 0.22118 0.1842 0.24581 0.0
C533 C 0.194 0.17416 0.24146 0.0
C534 C 0.17116 0.18855 0.25646 0.0
C535 C 0.27854 0.92071 0.50017 0.0
C536 C 0.275 0.94684 0.51413 0.0
C537 C 0.27568 0.89543 0.51519 0.0
C538 C 0.26968 0.89554 0.5447 0.0
H539 H 0.28239 0.91974 0.47719 0.0
H540 H 0.27667 0.87574 0.50331 0.0
S541 S 0.26356 0.95839 0.59218 0.0
N542 N 0.26872 0.9715 0.55964 0.0
N543 N 0.26383 0.92369 0.5883 0.0
C544 C 0.26857 0.92146 0.55951 0.0
C545 C 0.27096 0.94729 0.54404 0.0
C546 C 0.38608 0.98626 0.75641 0.0
C547 C 0.38774 1.00271 0.7312 0.0
C548 C 0.41136 0.97622 0.77139 0.0
C549 C 0.43943 0.98191 0.76161 0.0
H550 H 0.36512 0.9816 0.76507 0.0
H551 H 0.40878 0.96392 0.79088 0.0
S552 S 0.45576 1.02309 0.69592 0.0
N553 N 0.41992 1.02355 0.69658 0.0
N554 N 0.46712 1.00463 0.7246 0.0
C555 C 0.44136 0.99788 0.73611 0.0
C556 C 0.41565 1.00827 0.72097 0.0
C557 C 0.38063 0.15659 1.04523 0.0
C558 C 0.36785 0.1812 1.05662 0.0
C559 C 0.36354 0.13336 1.03843 0.0
C560 C 0.33347 0.13457 1.04281 0.0
H561 H 0.40323 0.15615 1.03929 0.0
H562 H 0.37328 0.11576 1.02702 0.0
S563 S 0.292 0.19085 0.07998 0.0
N564 N 0.32518 0.203 0.07797 0.0
N565 N 0.2932 0.15911 0.06539 0.0
C566 C 0.32164 0.1572 1.05835 0.0
C567 C 0.33884 0.18084 0.06501 0.0
C568 C 0.18171 0.98694 0.38108 0.0
C569 C 0.15325 0.98841 0.39164 0.0
C570 C 0.20532 0.99866 0.39651 0.0
C571 C 0.20136 1.01256 0.42299 0.0
H572 H 0.18586 0.97677 0.36062 0.0
H573 H 0.22664 0.99741 0.38725 0.0
S574 S 0.13167 1.02108 0.46095 0.0
N575 N 0.12289 1.00417 0.43091 0.0
N576 N 0.16697 1.02601 0.45975 0.0
C577 C 0.17314 1.01374 0.43403 0.0
C578 C 0.14919 1.00176 0.41841 0.0
C579 C 0.35184 0.95567 0.60678 0.0
C580 C 0.33527 0.94705 0.62996 0.0
C581 C 0.36432 0.93576 0.58849 0.0
C582 C 0.36084 0.90669 0.59315 0.0
H583 H 0.35571 0.97787 0.60307 0.0
H584 H 0.37778 0.94321 0.57136 0.0
S585 S 0.31656 0.87349 0.64871 0.0
N586 N 0.31362 0.90775 0.65503 0.0
N587 N 0.33765 0.87023 0.62062 0.0
C588 C 0.34307 0.89782 0.61524 0.0
C589 C 0.33012 0.9181 0.63374 0.0
C590 C 0.3731 0.15385 0.89158 0.0
C591 C 0.40104 0.15581 0.90469 0.0
C592 C 0.35145 0.13795 0.90442 0.0
C593 C 0.35721 0.12344 0.93063 0.0
H594 H 0.36833 0.1636 0.87069 0.0
H595 H 0.33067 0.13587 0.8931 0.0
S596 S 0.42532 0.12574 0.97574 0.0
N597 N 0.43203 0.14477 0.94685 0.0
N598 N 0.39174 0.11488 0.97081 0.0
C599 C 0.38449 0.12677 0.9447 0.0
C600 C 0.40632 0.14297 0.93176 0.0
C601 C 0.17413 0.24723 0.12095 0.0
C602 C 0.19075 0.27056 0.11347 0.0
C603 C 0.18743 0.22092 0.12767 0.0
C604 C 0.21784 0.21727 0.12768 0.0
H605 H 0.15068 0.24945 0.1219 0.0
H606 H 0.17388 0.20362 0.13377 0.0
S607 S 0.27097 0.27217 0.11021 0.0
N608 N 0.23892 0.28842 0.10649 0.0
N609 N 0.26414 0.2394 0.11967 0.0
C610 C 0.23461 0.24044 0.11991 0.0
C611 C 0.22101 0.26703 0.11271 0.0
C612 C 0.75821 0.4067 0.99973 0.0
C613 C 0.74932 0.41123 1.02805 0.0
C614 C 0.76399 0.4296 0.98184 0.0
C615 C 0.76045 0.45756 0.99167 0.0
H616 H 0.76105 0.38542 0.99153 0.0
H617 H 0.77133 0.42535 0.96021 0.0
S618 S 0.7361 0.48036 0.06367 0.0
N619 N 0.73594 0.44548 0.06485 0.0
N620 N 0.74705 0.48854 1.03112 0.0
C621 C 0.75103 0.46232 1.01975 0.0
C622 C 0.74537 0.43907 1.03802 0.0
C623 C 0.90766 0.46121 0.24156 0.0
C624 C 0.93297 0.47586 0.24959 0.0
C625 C 0.88517 0.47394 0.22461 0.0
C626 C 0.88695 0.50189 0.21458 0.0
H627 H 0.9052 0.43945 0.24821 0.0
H628 H 0.8664 0.4615 0.21895 0.0
S629 S 0.94781 0.55024 0.2308 0.0
N630 N 0.95786 0.52042 0.24726 0.0
N631 N 0.91581 0.5444 0.21511 0.0
C632 C 0.9119 0.51708 0.22288 0.0
C633 C 0.93476 0.50411 0.2405 0.0
C634 C 0.81833 0.69456 0.53451 0.0
C635 C 0.8433 0.70344 0.5207 0.0
C636 C 0.80466 0.66975 0.52588 0.0
C637 C 0.81641 0.6527 0.50414 0.0
H638 H 0.80972 0.70658 0.55237 0.0
H639 H 0.78507 0.66366 0.53647 0.0
S640 S 0.88126 0.66695 0.46117 0.0
N641 N 0.87865 0.69386 0.4836 0.0
N642 N 0.8538 0.6466 0.46843 0.0
C643 C 0.84127 0.66144 0.49012 0.0
C644 C 0.85449 0.68709 0.49811 0.0
C645 C 0.84498 0.64006 0.39454 0.0
C646 C 0.84223 0.61059 0.39293 0.0
C647 C 0.86993 0.65307 0.3845 0.0
C648 C 0.89281 0.63694 0.37274 0.0
H649 H 0.82882 0.65286 0.40537 0.0
H650 H 0.87187 0.67569 0.38715 0.0
S651 S 0.89356 0.5596 0.35957 0.0
N652 N 0.86257 0.56622 0.37558 0.0
N653 N 0.9093 0.59042 0.35687 0.0
C654 C 0.88922 0.60775 0.36919 0.0
C655 C 0.86391 0.59465 0.37924 0.0
C656 C 0.6756 0.52176 0.9207 0.0
C657 C 0.70178 0.5173 0.90613 0.0
C658 C 0.65064 0.5066 0.91356 0.0
C659 C 0.65045 0.48658 0.89117 0.0
H660 H 0.67429 0.537 0.93806 0.0
H661 H 0.63125 0.51084 0.92566 0.0
S662 S 0.71336 0.46664 0.84626 0.0
N663 N 0.7261 0.49097 0.86846 0.0
N664 N 0.67901 0.46288 0.85448 0.0
C665 C 0.67647 0.48188 0.87628 0.0
C666 C 0.70212 0.4971 0.8839 0.0
C667 C 0.52727 0.78084 0.70214 0.0
C668 C 0.54506 0.77769 0.72741 0.0
C669 C 0.53928 0.78791 0.6756 0.0
C670 C 0.56921 0.79198 0.67406 0.0
H671 H 0.50437 0.77614 0.7025 0.0
H672 H 0.5255 0.78887 0.6562 0.0
S673 S 0.6244 0.78784 0.7342 0.0
N674 N 0.59339 0.78123 0.74944 0.0
N675 N 0.61601 0.79377 0.69975 0.0
C676 C 0.58672 0.79054 0.69948 0.0
C677 C 0.57459 0.78365 0.72623 0.0
C678 C 0.63769 0.39376 1.0252 0.0
C679 C 0.63944 0.36409 1.0247 0.0
C680 C 0.62073 0.40872 1.00426 0.0
C681 C 0.60495 0.39432 0.98259 0.0
H682 H 0.65125 0.40545 1.04028 0.0
H683 H 0.62136 0.43159 1.00403 0.0
S684 S 0.599 0.31659 0.97518 0.0
N685 N 0.62177 0.32088 1.00301 0.0
N686 N 0.58921 0.34879 0.96433 0.0
C687 C 0.60449 0.36466 0.98367 0.0
C688 C 0.62198 0.34956 1.00461 0.0
C689 C 0.97258 0.34569 0.13224 0.0
C690 C 0.95401 0.36175 0.11348 0.0
C691 C 0.98297 0.35681 0.15859 0.0
C692 C 0.97547 0.38455 0.16686 0.0
H693 H 0.97841 0.32409 0.12691 0.0
H694 H 0.99616 0.3433 0.17295 0.0
S695 S 0.92987 0.43633 0.12408 0.0
N696 N 0.93019 0.40748 0.10413 0.0
N697 N 0.95033 0.42862 0.15311 0.0
C698 C 0.95853 0.40146 0.1474 0.0
C699 C 0.94775 0.39005 0.12074 0.0
C700 C 0.95272 0.73367 0.42184 0.0
C701 C 0.97896 0.71795 0.42099 0.0
C702 C 0.9411 0.74216 0.44827 0.0
C703 C 0.95486 0.73488 0.47509 0.0
H704 H 0.94153 0.74036 0.40193 0.0
H705 H 0.92127 0.75501 0.4476 0.0
S706 S 1.02268 0.69175 0.48513 0.0
N707 N 1.01751 0.69385 0.44968 0.0
N708 N 0.99522 0.70957 0.49912 0.0
C709 C 0.9803 0.71799 0.47467 0.0
C710 C 0.99246 0.70966 0.44772 0.0
C711 C 0.60906 0.64106 0.73387 0.0
C712 C 0.63667 0.65218 0.72943 0.0
C713 C 0.58894 0.65519 0.75133 0.0
C714 C 0.59591 0.68079 0.76493 0.0
H715 H 0.60345 0.62073 0.72488 0.0
H716 H 0.56843 0.64534 0.75529 0.0
S717 S 0.66361 0.72072 0.7563 0.0
N718 N 0.6686 0.6917 0.73721 0.0
N719 N 0.63103 0.71827 0.76989 0.0
C720 C 0.62275 0.69293 0.75905 0.0
C721 C 0.64308 0.67861 0.74131 0.0
C722 C 0.80984 0.40309 0.0769 0.0
C723 C 0.82418 0.38024 0.09105 0.0
C724 C 0.80105 0.42691 0.09243 0.0
C725 C 0.8063 0.42836 0.12241 0.0
H726 H 0.80826 0.40396 1.05349 0.0
H727 H 0.7928 0.44528 0.08056 0.0
S728 S 0.83884 0.37201 0.16983 0.0
N729 N 0.8397 0.35873 0.13688 0.0
N730 N 0.82359 0.40381 0.16615 0.0
C731 C 0.81819 0.4046 0.13708 0.0
C732 C 0.82685 0.38029 0.12133 0.0
C733 C 0.71984 0.71552 0.62257 0.0
C734 C 0.69051 0.72334 0.62582 0.0
C735 C 0.73021 0.68792 0.62887 0.0
C736 C 0.71169 0.66677 0.63855 0.0
H737 H 0.73529 0.73113 0.61673 0.0
H738 H 0.75331 0.68345 0.62726 0.0
S739 S 0.63218 0.6756 0.64769 0.0
N740 N 0.64252 0.70716 0.63738 0.0
N741 N 0.66184 0.65518 0.64856 0.0
C742 C 0.68189 0.6738 0.64007 0.0
C743 C 0.67141 0.7021 0.63403 0.0
C744 C 0.07719 1.06226 0.34951 0.0
C745 C 0.08271 1.05145 0.32182 0.0
C746 C 0.07543 0.09185 0.35474 0.0
C747 C 0.07867 0.11232 0.33257 0.0
H748 H 0.07607 1.04786 0.36766 0.0
H749 H 0.07261 0.09873 0.37682 0.0
S750 S 0.09081 0.09506 0.25558 0.0
N751 N 0.08958 1.06385 0.27151 0.0
N752 N 0.08573 0.11874 0.28123 0.0
C753 C 0.08247 0.10166 0.3045 0.0
C754 C 0.08469 0.07158 0.29924 0.0
C755 C 0.33414 0.79032 0.53374 0.0
C756 C 0.3512 0.79195 0.55954 0.0
C757 C 0.30363 0.78642 0.53403 0.0
C758 C 0.28837 0.78474 0.56013 0.0
H759 H 0.34443 0.79207 0.51308 0.0
H760 H 0.29179 0.78554 0.51347 0.0
S761 S 0.32234 0.78955 0.63383 0.0
N762 N 0.34992 0.79226 0.61209 0.0
N763 N 0.29326 0.78582 0.61254 0.0
C764 C 0.30518 0.78668 0.58603 0.0
C765 C 0.33624 0.79004 0.58576 0.0
C766 C 0.54674 1.06432 0.86359 0.0
C767 C 0.52903 1.04874 0.84392 0.0
C768 C 0.54768 0.09444 0.86322 0.0
C769 C 0.53077 0.11104 0.84329 0.0
H770 H 0.5594 1.05317 0.88034 0.0
H771 H 0.5604 0.10484 0.87996 0.0
S772 S 0.48188 0.08159 0.78582 0.0
N773 N 0.49534 1.05315 0.8027 0.0
N774 N 0.49666 0.10893 0.80225 0.0
C775 C 0.51385 0.09572 0.82278 0.0
C776 C 0.51316 1.06504 0.82294 0.0
C777 C 0.3281 0.33658 0.06583 0.0
C778 C 0.34111 0.31944 1.04475 0.0
C779 C 0.2975 0.34063 0.06643 0.0
C780 C 0.2785 0.32803 1.04579 0.0
H781 H 0.34148 0.34573 0.08286 0.0
H782 H 0.28866 0.353 0.0839 0.0
S783 S 0.30193 0.28358 0.9842 0.0
N784 N 0.33258 0.29153 1.00139 0.0
N785 N 0.27582 0.29927 1.00237 0.0
C786 C 0.2915 0.31212 1.02373 0.0
C787 C 0.32249 0.30779 1.02328 0.0
C788 C 0.25076 1.05897 1.05391 0.0
C789 C 0.27899 1.05233 1.04421 0.0
C790 C 0.24561 0.06766 0.08274 0.0
C791 C 0.26829 0.06993 0.10382 0.0
H792 H 0.23236 1.05818 1.0388 0.0
H793 H 0.22359 0.07347 0.08836 0.0
S794 S 0.34642 1.05593 0.0905 0.0
N795 N 0.33016 1.04908 1.05903 0.0
N796 N 0.32034 1.06523 0.11259 0.0
C797 C 0.29654 1.06295 0.09474 0.0
C798 C 0.30188 1.0541 0.06532 0.0
C799 C 0.27444 1.05553 0.31572 0.0
C800 C 0.2629 0.07527 0.29488 0.0
C801 C 0.27205 1.05973 0.346 0.0
C802 C 0.25769 0.08379 0.35709 0.0
H803 H 0.28468 1.03603 0.30858 0.0
H804 H 0.28013 1.04328 0.3607 0.0
S805 S 0.22542 0.14313 0.31272 0.0
N806 N 0.2381 0.12083 0.28848 0.0
N807 N 0.2334 0.12859 0.34456 0.0
C808 C 0.24717 0.10423 0.3366 0.0
C809 C 0.24984 0.10008 0.30588 0.0
C810 C 0.31214 0.07324 0.56254 0.0
C811 C 0.2861 0.06609 0.54763 0.0
C812 C 0.3151 0.07189 0.59332 0.0
C813 C 0.29256 1.06241 0.61094 0.0
H814 H 0.33046 0.07995 0.55033 0.0
H815 H 0.33574 0.07747 0.60331 0.0
S816 S 0.22041 1.03952 0.58258 0.0
N817 N 0.23747 1.04872 0.55321 0.0
N818 N 0.24331 1.04505 0.61007 0.0
C819 C 0.26657 1.05487 0.59611 0.0
C820 C 0.2633 1.05699 0.56491 0.0
C821 C 0.31933 1.02844 0.83671 0.0
C822 C 0.3101 1.04632 0.8594 0.0
C823 C 0.3166 1.03649 0.80718 0.0
C824 C 0.30493 1.06315 0.79866 0.0
H825 H 0.32985 1.00824 0.84187 0.0
H826 H 0.32524 1.02228 0.79107 0.0
S827 S 0.27575 0.11746 0.84906 0.0
N828 N 0.28717 0.0914 0.87072 0.0
N829 N 0.28234 0.10683 0.81584 0.0
C830 C 0.29444 0.08077 0.82107 0.0
C831 C 0.29688 0.07232 0.85114 0.0
C832 C 1.03938 0.31936 1.06011 0.0
C833 C 1.03442 0.29011 0.06254 0.0
C834 C 0.06739 0.32973 1.05462 0.0
C835 C 0.0916 0.31136 1.05059 0.0
H836 H 1.0218 0.33444 0.06373 0.0
H837 H 0.0702 0.35237 1.05392 0.0
S838 S 0.09049 0.23303 1.05371 0.0
N839 N 0.05661 0.24303 1.05983 0.0
N840 N 0.10834 0.26242 1.04885 0.0
C841 C 0.08671 0.28214 1.05197 0.0
C842 C 0.05847 0.2716 1.05813 0.0
C843 C 0.54418 0.31305 0.0733 0.0
C844 C 0.53203 0.29765 1.05008 0.0
C845 C 0.57437 0.31133 0.08043 0.0
C846 C 0.59387 0.29374 0.06506 0.0
H847 H 0.53059 0.32776 0.08505 0.0
H848 H 0.58261 0.32474 0.09759 0.0
S849 S 0.5724 0.24657 1.00426 0.0
N850 N 0.54169 0.2627 1.01299 0.0
N851 N 0.5976 0.25879 1.02677 0.0
C852 C 0.58153 0.27694 1.04291 0.0
C853 C 0.55097 0.27911 1.03533 0.0
C854 C 1.01958 0.30397 0.3159 0.0
C855 C 0.04895 0.29518 0.3202 0.0
C856 C 1.01074 0.33288 0.31394 0.0
C857 C 1.0305 0.35543 0.31582 0.0
H858 H 1.00305 0.28824 0.3131 0.0
H859 H 0.98788 0.3376 0.30946 0.0
S860 S 0.11026 0.34491 0.3274 0.0
N861 N 0.09806 0.31233 0.32718 0.0
N862 N 0.08146 0.36621 0.32282 0.0
C863 C 0.05993 0.34717 0.32114 0.0
C864 C 0.06905 0.31741 0.32344 0.0
C865 C 0.0845 0.76403 0.5343 0.0
C866 C 0.09915 0.7882 0.54385 0.0
C867 C 0.05384 0.76348 0.53236 0.0
C868 C 1.03627 0.78699 0.54008 0.0
H869 H 0.09681 0.74622 0.52587 0.0
H870 H 0.04384 0.74506 0.52291 0.0
S871 S 0.06378 0.85501 0.56797 0.0
N872 N 0.09358 0.83585 0.56239 0.0
N873 N 1.03619 0.83467 0.55925 0.0
C874 C 0.0506 0.8106 0.55154 0.0
C875 C 0.08191 0.81127 0.55319 0.0
C876 C 0.58396 0.8166 0.57248 0.0
C877 C 0.60429 0.79384 0.57032 0.0
C878 C 0.55378 0.81216 0.57578 0.0
C879 C 0.54262 0.78471 0.57789 0.0
H880 H 0.59151 0.83808 0.57202 0.0
H881 H 0.53934 0.83038 0.57811 0.0
S882 S 0.58668 0.7179 0.57395 0.0
N883 N 0.61071 0.74288 0.57016 0.0
N884 N 0.55495 0.73445 0.5774 0.0
C885 C 0.56283 0.76186 0.57553 0.0
C886 C 0.59328 0.76641 0.57146 0.0
C887 C 0.09936 0.8395 0.34531 0.0
C888 C 0.07765 0.86016 0.33779 0.0
C889 C 0.09334 0.81044 0.3485 0.0
C890 C 0.06516 0.79967 0.34434 0.0
H891 H 0.12135 0.84606 0.35018 0.0
H892 H 0.111 0.7963 0.35571 0.0
S893 S 0.99972 0.84404 0.3246 0.0
N894 N 1.02617 0.86707 0.32603 0.0
N895 N 1.01495 0.81271 0.33198 0.0
C896 C 0.04319 0.81976 0.33579 0.0
C897 C 0.04938 0.84971 0.3325 0.0
C898 C 0.57881 0.31739 0.87939 0.0
C899 C 0.55887 0.30224 0.8619 0.0
C900 C 0.58319 0.34664 0.87611 0.0
C901 C 0.56791 0.36359 0.85511 0.0
H902 H 0.59136 0.30651 0.89643 0.0
H903 H 0.59882 0.35606 0.89091 0.0
S904 S 0.51304 0.33525 0.80269 0.0
N905 N 0.52371 0.30703 0.82179 0.0
N906 N 0.53175 0.36204 0.81571 0.0
C907 C 0.54813 0.34884 0.83681 0.0
C908 C 0.54373 0.31845 0.84012 0.0
C909 C 0.54254 0.57344 0.82199 0.0
C910 C 0.55621 0.55255 0.84036 0.0
C911 C 0.54489 0.60294 0.82713 0.0
C912 C 0.56129 0.61331 0.85084 0.0
H913 H 0.53059 0.56699 0.80268 0.0
H914 H 0.53513 0.61768 0.81148 0.0
S915 S 0.59959 0.56849 0.9071 0.0
N916 N 0.58525 0.54529 0.88455 0.0
N917 N 0.5899 0.59996 0.89404 0.0
C918 C 0.574 0.59274 0.87005 0.0
C919 C 0.57139 0.56275 0.86495 0.0
C920 C 0.82933 0.29105 1.03594 0.0
C921 C 0.84817 0.28835 0.06053 0.0
C922 C 0.79864 0.29295 1.03824 0.0
C923 C 0.78506 0.2932 0.0653 0.0
H924 H 0.83838 0.29137 1.0146 0.0
H925 H 0.78544 0.295 1.01852 0.0
S926 S 0.82433 0.28802 0.13661 0.0
N927 N 0.85057 0.28631 0.11303 0.0
N928 N 0.79359 0.29128 0.11735 0.0
C929 C 0.80372 0.29109 0.09007 0.0
C930 C 0.83491 0.28827 0.0877 0.0
C931 C 1.026 0.56076 0.35135 0.0
C932 C 1.02579 0.54962 0.32304 0.0
C933 C 1.02852 0.59017 0.35691 0.0
C934 C 1.03123 0.61047 0.33459 0.0
H935 H 1.02226 0.5468 0.36939 0.0
H936 H 1.02697 0.59725 0.37908 0.0
S937 S 1.03086 0.59308 0.25633 0.0
N938 N 1.02777 0.56199 0.27219 0.0
N939 N 1.03342 0.61657 0.28263 0.0
C940 C 1.03203 0.59956 0.3062 0.0
C941 C 1.02897 0.56954 0.30049 0.0
C942 C 0.81447 0.78518 0.59008 0.0
C943 C 0.79323 0.79133 0.568 0.0
C944 C 0.8444 0.78923 0.58633 0.0
C945 C 0.85507 0.79991 0.56037 0.0
H946 H 0.80806 0.77675 0.61066 0.0
H947 H 0.85936 0.78403 0.60417 0.0
S948 S 0.80932 0.81941 0.49529 0.0
N949 N 0.7856 0.80864 0.51879 0.0
N950 N 0.84158 0.81655 0.51186 0.0
C951 C 0.83419 0.80647 0.53808 0.0
C952 C 0.80352 0.80208 0.54183 0.0
C953 C 0.8126 0.57213 0.56147 0.0
C954 C 0.78713 0.5739 0.57787 0.0
C955 C 0.81271 0.56102 0.53302 0.0
C956 C 0.78712 0.5518 0.5188 0.0
H957 H 0.83282 0.57994 0.57058 0.0
H958 H 0.83291 0.56087 0.5216 0.0
S959 S 0.71444 0.55101 0.55178 0.0
N960 N 0.73561 0.56441 0.57753 0.0
N961 N 0.73554 0.54427 0.5242 0.0
C962 C 0.76153 0.55298 0.53506 0.0
C963 C 0.76158 0.56375 0.5644 0.0
C964 C 0.78798 0.607 0.78382 0.0
C965 C 0.76812 0.58867 0.77019 0.0
C966 C 0.79057 0.60924 0.81448 0.0
C967 C 0.77397 0.59284 0.83336 0.0
H968 H 0.80028 0.62113 0.77071 0.0
H969 H 0.80511 0.62479 0.8235 0.0
S970 S 0.71977 0.54046 0.80897 0.0
N971 N 0.7321 0.55313 0.77848 0.0
N972 N 0.73769 0.55662 0.83536 0.0
C973 C 0.75516 0.57338 0.81998 0.0
C974 C 0.75203 0.57156 0.78878 0.0
C975 C 0.82252 0.54458 0.06322 0.0
C976 C 0.81135 0.56399 0.08363 0.0
C977 C 0.81742 0.54763 1.03292 0.0
C978 C 0.80041 0.57016 1.02053 0.0
H979 H 0.83526 0.5263 0.0707 0.0
H980 H 0.82636 0.53138 1.0191 0.0
S981 S 0.76581 0.62749 0.06361 0.0
N982 N 0.78255 0.6073 0.08849 0.0
N983 N 0.77252 0.61276 1.03206 0.0
C984 C 0.78927 0.59005 1.04058 0.0
C985 C 0.79485 0.5871 0.0717 0.0
C986 C 0.82326 0.53083 0.32382 0.0
C987 C 0.79836 0.54485 0.3344 0.0
C988 C 0.83139 0.53359 0.29475 0.0
C989 C 0.81475 0.54991 0.27432 0.0
H990 H 0.83755 0.51868 0.33845 0.0
H991 H 0.85153 0.52338 0.2884 0.0
S992 S 0.74623 0.58916 0.28965 0.0
N993 N 0.75617 0.57468 0.3211 0.0
N994 N 0.77112 0.57905 0.26658 0.0
C995 C 0.78895 0.56279 0.28405 0.0
C996 C 0.7809 0.56048 0.31393 0.0
C997 C 0.50147 0.80989 0.82127 0.0
C998 C 0.5245 0.79851 0.83898 0.0
C999 C 0.4978 0.83931 0.81584 0.0
C1000 C 0.51657 0.8597 0.82803 0.0
H1001 H 0.48643 0.79582 0.81053 0.0
H1002 H 0.48002 0.8461 0.80137 0.0
S1003 S 0.58005 0.84213 0.87691 0.0
N1004 N 0.56636 0.81095 0.86931 0.0
N1005 N 0.55902 0.86583 0.85956 0.0
C1006 C 0.53922 0.84888 0.84655 0.0
C1007 C 0.54329 0.81864 0.85181 0.0
C1008 C 0.14604 0.17055 0.41993 0.0
C1009 C 0.1563 0.18766 0.39771 0.0
C1010 C 0.1653 0.15372 0.43725 0.0
C1011 C 0.19553 0.15386 0.4334 0.0
H1012 H 0.12289 0.1686 0.42268 0.0
H1013 H 0.15632 0.13943 0.45279 0.0
S1014 S 0.23357 0.19774 0.38054 0.0
N1015 N 0.19875 0.20557 0.37443 0.0
N1016 N 0.2349 0.17465 0.40742 0.0
C1017 C 0.20617 0.17258 0.41279 0.0
C1018 C 0.18655 0.18929 0.39481 0.0
C1019 C 0.24302 0.89634 0.67723 0.0
C1020 C 0.22344 0.89036 0.65413 0.0
C1021 C 0.24759 0.92424 0.68654 0.0
C1022 C 0.23298 0.94743 0.67293 0.0
H1023 H 0.25628 0.8795 0.68712 0.0
H1024 H 0.26435 0.92768 0.70301 0.0
S1025 S 0.1761 0.94323 0.61452 0.0
N1026 N 0.18661 0.91006 0.62037 0.0
N1027 N 0.19537 0.96218 0.63767 0.0
C1028 C 0.2115 0.94156 0.65157 0.0
C1029 C 0.20668 0.91316 0.64223 0.0
C1030 C 0.4457 0.98595 0.92441 0.0
C1031 C 0.44063 0.96445 0.90409 0.0
C1032 C 0.42303 0.9971 0.941 0.0
C1033 C 0.39452 0.98701 0.9381 0.0
H1034 H 0.46682 0.9955 0.9262 0.0
H1035 H 0.42758 1.01484 0.95505 0.0
S1036 S 0.37092 0.92811 0.8909 0.0
N1037 N 0.40571 0.93142 0.88423 0.0
N1038 N 0.36336 0.95216 0.91555 0.0
C1039 C 0.38976 0.964 0.91956 0.0
C1040 C 0.41276 0.9528 0.9025 0.0
C1041 C 0.33211 0.2137 0.15686 0.0
C1042 C 0.34192 0.18586 0.15147 0.0
C1043 C 0.34831 0.23715 0.14879 0.0
C1044 C 0.37539 0.23393 0.13544 0.0
H1045 H 0.31081 0.21753 0.1656 0.0
H1046 H 0.33881 0.25805 0.15186 0.0
S1047 S 0.41302 0.16516 0.12126 0.0
N1048 N 0.38164 0.15624 0.13461 0.0
N1049 N 0.41293 0.20007 0.12109 0.0
C1050 C 0.38659 0.20608 0.13233 0.0
C1051 C 0.36962 0.18217 0.1398 0.0
C1052 C 0.17364 0.96959 0.24943 0.0
C1053 C 0.14326 0.97408 0.24804 0.0
C1054 C 0.19228 0.98702 0.23427 0.0
C1055 C 0.1813 1.00971 0.21713 0.0
H1056 H 0.18328 0.95351 0.26371 0.0
H1057 H 0.21554 0.98364 0.23733 0.0
S1058 S 0.10329 1.02826 0.20311 0.0
N1059 N 0.10295 1.00115 0.22567 0.0
N1060 N 0.13789 1.03388 0.19727 0.0
C1061 C 0.15089 1.01314 0.21383 0.0
C1062 C 0.1319 0.99531 0.22922 0.0
C1063 C 0.35514 0.94557 0.45724 0.0
C1064 C 0.36705 0.96911 0.47145 0.0
C1065 C 0.36607 0.91794 0.46281 0.0
C1066 C 0.38978 0.91267 0.4823 0.0
H1067 H 0.33573 0.94815 0.44355 0.0
H1068 H 0.3547 0.90042 0.45307 0.0
S1069 S 0.4316 0.96756 0.52156 0.0
N1070 N 0.4058 0.98559 0.50342 0.0
N1071 N 0.42692 0.93407 0.51313 0.0
C1072 C 0.40361 0.93632 0.49444 0.0
C1073 C 0.3921 0.96438 0.48922 0.0
C1074 C 0.41504 0.12975 0.73407 0.0
C1075 C 0.38471 0.13438 0.73472 0.0
C1076 C 0.43381 0.14186 0.75477 0.0
C1077 C 0.42299 0.1592 0.77673 0.0
H1078 H 0.42419 0.11492 0.71881 0.0
H1079 H 0.45667 0.13584 0.75493 0.0
S1080 S 0.34592 0.18045 0.78639 0.0
N1081 N 0.3451 0.15977 0.75765 0.0
N1082 N 0.38051 0.18232 0.79668 0.0
C1083 C 0.39309 0.16597 0.77621 0.0
C1084 C 0.37389 0.15367 0.75508 0.0
C1085 C 0.20048 0.1943 1.03858 0.0
C1086 C 0.19666 0.21567 1.01756 0.0
C1087 C 0.20867 0.16667 1.03084 0.0
C1088 C 0.21378 0.15946 1.00183 0.0
H1089 H 0.1979 0.19911 0.06127 0.0
H1090 H 0.21243 0.15126 1.04801 0.0
S1091 S 0.20456 0.20723 0.93835 0.0
N1092 N 0.19663 0.22737 0.96627 0.0
N1093 N 0.2126 0.17556 0.95188 0.0
C1094 C 0.20891 0.18038 0.98051 0.0
C1095 C 0.2002 0.20845 0.98833 0.0
C1096 C 0.11958 0.39904 0.1932 0.0
C1097 C 0.10874 0.40983 0.16646 0.0
C1098 C 0.10628 0.40615 0.21916 0.0
C1099 C 0.08156 0.4243 0.21947 0.0
H1100 H 0.13696 0.38317 0.19398 0.0
H1101 H 0.11396 0.39543 0.23877 0.0
S1102 S 0.04963 0.46416 0.15635 0.0
N1103 N 0.07563 0.4441 0.1427 0.0
N1104 N 0.0506 0.4574 0.1914 0.0
C1105 C 0.07299 0.43814 0.19344 0.0
C1106 C 0.08656 0.43088 0.16695 0.0
C1107 C 0.6401 0.24138 0.91583 0.0
C1108 C 0.62461 0.21676 0.92142 0.0
C1109 C 0.65799 0.25369 0.93741 0.0
C1110 C 0.66157 0.24152 0.96519 0.0
H1111 H 0.63697 0.25223 0.89526 0.0
H1112 H 0.6682 0.27348 0.93263 0.0
S1113 S 0.62743 0.1758 0.99 0.0
N1114 N 0.61513 0.17995 0.9563 0.0
N1115 N 0.64927 0.20239 0.99636 0.0
C1116 C 0.64748 0.21601 0.97043 0.0
C1117 C 0.62887 0.20383 0.94869 0.0
C1118 C 1.00087 0.86105 0.41369 0.0
C1119 C 1.01276 0.88733 0.42066 0.0
C1120 C 0.9804 0.84875 0.43127 0.0
C1121 C 0.97141 0.86204 0.45678 0.0
H1122 H 1.00871 0.84912 0.39541 0.0
H1123 H 0.97313 0.82777 0.42581 0.0
S1124 S 0.99339 0.93265 0.4828 0.0
N1125 N 1.01185 0.92766 0.45308 0.0
N1126 N 0.97362 0.90427 0.4865 0.0
C1127 C 0.98138 0.88932 0.4628 0.0
C1128 C 1.00202 0.90205 0.44461 0.0
C1129 C 0.95472 0.26063 0.19677 0.0
C1130 C 0.9605 0.24506 0.17166 0.0
C1131 C 0.96248 0.2501 0.2244 0.0
C1132 C 0.97679 0.22358 0.22827 0.0
H1133 H 0.94443 0.28144 0.19511 0.0
H1134 H 0.95806 0.26347 0.2428 0.0
S1135 S 0.99584 0.17384 0.16941 0.0
N1136 N 0.98038 0.20126 0.15233 0.0
N1137 N 0.99518 0.1814 0.20424 0.0
C1138 C 0.98191 0.20737 0.2033 0.0
C1139 C 0.9738 0.21812 0.17505 0.0
C1140 C 0.43471 0.75286 0.72635 0.0
C1141 C 0.45087 0.72806 0.73366 0.0
C1142 C 0.43365 0.76356 0.69808 0.0
C1143 C 0.44805 0.74963 0.67564 0.0
H1144 H 0.42404 0.76514 0.74286 0.0
H1145 H 0.42198 0.7834 0.69392 0.0
S1146 S 0.49058 0.68236 0.68194 0.0
N1147 N 0.47978 0.68858 0.71512 0.0
N1148 N 0.477 0.70867 0.66176 0.0
C1149 C 0.46255 0.72383 0.68192 0.0
C1150 C 0.46409 0.71303 0.71095 0.0
C1151 C 0.16174 0.74321 0.42711 0.0
C1152 C 0.16242 0.73242 0.45559 0.0
C1153 C 0.14323 0.73209 0.40535 0.0
C1154 C 0.12431 0.71004 0.41136 0.0
H1155 H 0.17478 0.76116 0.42184 0.0
H1156 H 0.14248 0.742 0.38418 0.0
S1157 S 0.11893 0.67306 0.48181 0.0
N1158 N 0.14379 0.69707 0.48794 0.0
N1159 N 0.10871 0.67672 0.44744 0.0
C1160 C 0.12576 0.69823 0.43936 0.0
C1161 C 0.14488 0.70925 0.46136 0.0
C1162 C 0.45326 0.38071 0.94721 0.0
C1163 C 0.45901 0.38582 0.9768 0.0
C1164 C 0.46878 0.39416 0.92573 0.0
C1165 C 0.49049 0.41353 0.93289 0.0
H1166 H 0.43791 0.36481 0.94056 0.0
H1167 H 0.465 0.38801 0.9034 0.0
S1168 S 0.51154 0.43685 1.0071 0.0
N1169 N 0.48601 0.41355 1.01208 0.0
N1170 N 0.51508 0.43912 0.97173 0.0
C1171 C 0.49475 0.42066 0.96229 0.0
C1172 C 0.47903 0.40673 0.98425 0.0
C1173 C 0.69517 0.67652 0.90104 0.0
C1174 C 0.69152 0.65536 0.92192 0.0
C1175 C 0.67137 0.69333 0.89069 0.0
C1176 C 0.64324 0.68993 0.90124 0.0
H1177 H 0.71605 0.67884 0.89122 0.0
H1178 H 0.67477 0.70809 0.87324 0.0
S1179 S 0.62313 0.63983 0.9587 0.0
N1180 N 0.65822 0.63363 0.95464 0.0
N1181 N 0.61387 0.66553 0.93575 0.0
C1182 C 0.63987 0.67034 0.92372 0.0
C1183 C 0.66393 0.65295 0.93389 0.0
C1184 C 0.75606 0.45094 0.18145 0.0
C1185 C 0.7392 0.4733 0.16907 0.0
C1186 C 0.75296 0.42287 0.17171 0.0
C1187 C 0.7325 0.41599 0.14964 0.0
H1188 H 0.77198 0.45519 0.19852 0.0
H1189 H 0.767 0.40646 0.18126 0.0
S1190 S 0.67933 0.46641 0.1142 0.0
N1191 N 0.69884 0.48625 0.13634 0.0
N1192 N 0.69276 0.43392 0.11826 0.0
C1193 C 0.71413 0.43801 0.13864 0.0
C1194 C 0.71749 0.4665 0.14837 0.0
C1195 C 0.89698 0.46552 0.39509 0.0
C1196 C 0.90006 0.49037 0.4115 0.0
C1197 C 0.91978 0.45479 0.37837 0.0
C1198 C 0.94675 0.46813 0.37793 0.0
H1199 H 0.87628 0.45511 0.39385 0.0
H1200 H 0.91596 0.43641 0.365 0.0
S1201 S 0.96654 0.53288 0.41836 0.0
N1202 N 0.93261 0.52737 0.42705 0.0
N1203 N 0.97558 0.50687 0.39641 0.0
C1204 C 0.95059 0.49214 0.39542 0.0
C1205 C 0.92723 0.50334 0.412 0.0
C1206 C 0.87237 0.64671 0.63705 0.0
C1207 C 0.85425 0.65386 0.66002 0.0
C1208 C 0.89064 0.66683 0.62497 0.0
C1209 C 0.8916 0.69477 0.63557 0.0
H1210 H 0.87096 0.62611 0.62703 0.0
H1211 H 0.90267 0.6609 0.60607 0.0
S1212 S 0.85191 0.72231 0.69883 0.0
N1213 N 0.84094 0.68955 0.69511 0.0
N1214 N 0.87548 0.72697 0.67316 0.0
C1215 C 0.87542 0.70121 0.66023 0.0
C1216 C 0.85667 0.68089 0.67221 0.0
C1217 C 0.62612 0.52756 0.7308 0.0
C1218 C 0.6567 0.52607 0.73092 0.0
C1219 C 0.61005 0.50695 0.74487 0.0
C1220 C 0.62407 0.48442 0.76011 0.0
H1221 H 0.61463 0.5459 0.72161 0.0
H1222 H 0.58671 0.5101 0.74586 0.0
S1223 S 0.70367 0.46946 0.76414 0.0
N1224 N 0.70019 0.49899 0.74506 0.0
N1225 N 0.67032 0.46041 0.77179 0.0
C1226 C 0.65454 0.48162 0.75846 0.0
C1227 C 0.6708 0.50247 0.74389 0.0
C1228 C 0.88791 0.43218 0.98114 0.0
C1229 C 0.87223 0.40891 0.97083 0.0
C1230 C 0.88185 0.45963 0.97063 0.0
C1231 C 0.86004 0.46504 0.94914 0.0
H1232 H 0.90367 0.42961 0.9989 0.0
H1233 H 0.89316 0.47697 0.98079 0.0
S1234 S 0.81712 0.41055 0.91047 0.0
N1235 N 0.83701 0.3925 0.93481 0.0
N1236 N 0.82609 0.4439 0.91456 0.0
C1237 C 0.84639 0.44155 0.93645 0.0
C1238 C 0.8523 0.41358 0.94748 0.0
C1239 C 0.92201 0.62204 0.2148 0.0
C1240 C 0.89226 0.62948 0.21657 0.0
C1241 C 0.94269 0.63125 0.23551 0.0
C1242 C 0.93473 0.64909 0.25837 0.0
H1243 H 0.92921 0.60745 0.19834 0.0
H1244 H 0.96489 0.62326 0.2344 0.0
S1245 S 0.86027 0.677 0.27147 0.0
N1246 N 0.8563 0.65731 0.24223 0.0
N1247 N 0.89528 0.67536 0.28049 0.0
C1248 C 0.90547 0.65843 0.2592 0.0
C1249 C 0.88423 0.64851 0.23845 0.0
C1250 C 0.69881 0.66649 0.53113 0.0
C1251 C 0.69608 0.69228 0.51609 0.0
C1252 C 0.70152 0.64082 0.51627 0.0
C1253 C 0.70196 0.64004 0.48577 0.0
H1254 H 0.69978 0.66617 0.55458 0.0
H1255 H 0.70504 0.62168 0.52893 0.0
S1256 S 0.69222 0.70153 0.43626 0.0
N1257 N 0.69124 0.71533 0.46899 0.0
N1258 N 0.69681 0.66712 0.44114 0.0
C1259 C 0.6976 0.66557 0.47051 0.0
C1260 C 0.69458 0.69168 0.48563 0.0
C1261 C 0.61424 0.87223 0.74032 0.0
C1262 C 0.59642 0.89665 0.73636 0.0
C1263 C 0.63227 0.86225 0.71835 0.0
C1264 C 0.63228 0.87553 0.69108 0.0
H1265 H 0.61304 0.85981 0.75995 0.0
H1266 H 0.64475 0.84289 0.72212 0.0
S1267 S 0.59431 0.94354 0.67178 0.0
N1268 N 0.58398 0.93668 0.70489 0.0
N1269 N 0.61684 0.91737 0.66335 0.0
C1270 C 0.617 0.90164 0.688 0.0
C1271 C 0.59921 0.91224 0.71065 0.0
loop_
_geom_bond_atom_site_label_1
_geom_bond_atom_site_label_2
_geom_bond_distance
_geom_bond_site_symmetry_2
_ccdc_geom_bond_type
O0 Tb1 2.506 . S
O0 C14 1.265 . S
Tb1 O0 2.506 . S
Tb1 O6 2.312 . S
Tb1 O10 2.271 . S
Tb1 O12 2.338 . S
Tb1 O19 2.441 . S
C2 O10 1.252 . S
C2 O11 1.253 . S
O3 Tb4 2.271 . S
O3 C13 1.252 . S
Tb4 O3 2.271 . S
Tb4 O7 2.338 1_455 S
Tb4 O11 2.312 . S
Tb4 O15 2.441 . S
Tb4 O16 2.506 . S
C5 O15 1.244 . S
C5 O16 1.265 . S
O6 Tb1 2.312 . S
O6 C13 1.253 . S
O7 Tb4 2.338 1_655 S
O7 C8 1.258 . S
C8 O7 1.258 . S
C8 O9 1.251 . S
O9 C8 1.251 . S
O10 Tb1 2.271 . S
O10 C2 1.252 . S
O11 C2 1.253 . S
O11 Tb4 2.312 . S
O12 Tb1 2.338 . S
O12 C17 1.258 . S
C13 O3 1.252 . S
C13 O6 1.253 . S
C14 O0 1.265 . S
C14 O19 1.244 . S
O15 Tb4 2.441 . S
O15 C5 1.244 . S
O16 Tb4 2.506 . S
O16 C5 1.265 . S
C17 O12 1.258 . S
C17 O18 1.251 . S
O18 C17 1.251 . S
O19 Tb1 2.441 . S
O19 C14 1.244 . S
O20 Tb21 2.506 . S
O20 C34 1.265 . S
Tb21 O20 2.506 . S
Tb21 O26 2.312 . S
Tb21 O30 2.271 . S
Tb21 O32 2.338 . S
Tb21 O39 2.441 . S
C22 O30 1.252 . S
C22 O31 1.253 . S
O23 Tb24 2.271 . S
O23 C33 1.252 . S
Tb24 O23 2.271 . S
Tb24 O27 2.338 . S
Tb24 O31 2.312 . S
Tb24 O35 2.441 . S
Tb24 O36 2.506 . S
C25 O35 1.244 . S
C25 O36 1.265 . S
O26 Tb21 2.312 . S
O26 C33 1.253 . S
O27 Tb24 2.338 . S
O27 C28 1.258 . S
C28 O27 1.258 . S
C28 O29 1.251 . S
O29 C28 1.251 . S
O30 Tb21 2.271 . S
O30 C22 1.252 . S
O31 C22 1.253 . S
O31 Tb24 2.312 . S
O32 Tb21 2.338 . S
O32 C37 1.258 . S
C33 O23 1.252 . S
C33 O26 1.253 . S
C34 O20 1.265 . S
C34 O39 1.244 . S
O35 Tb24 2.441 . S
O35 C25 1.244 . S
O36 Tb24 2.506 . S
O36 C25 1.265 . S
C37 O32 1.258 . S
C37 O38 1.251 . S
O38 C37 1.251 . S
O39 Tb21 2.441 . S
O39 C34 1.244 . S
O40 Tb41 2.506 . S
O40 C54 1.265 . S
Tb41 O40 2.506 . S
Tb41 O46 2.312 . S
Tb41 O50 2.271 . S
Tb41 O52 2.338 . S
Tb41 O59 2.441 . S
C42 O50 1.252 . S
C42 O51 1.253 . S
O43 Tb44 2.271 . S
O43 C53 1.252 . S
Tb44 O43 2.271 . S
Tb44 O47 2.338 . S
Tb44 O51 2.312 . S
Tb44 O55 2.441 . S
Tb44 O56 2.506 . S
C45 O55 1.244 . S
C45 O56 1.265 . S
O46 Tb41 2.312 . S
O46 C53 1.253 . S
O47 Tb44 2.338 . S
O47 C48 1.258 . S
C48 O47 1.258 . S
C48 O49 1.251 . S
O49 C48 1.251 . S
O50 Tb41 2.271 . S
O50 C42 1.252 . S
O51 C42 1.253 . S
O51 Tb44 2.312 . S
O52 Tb41 2.338 . S
O52 C57 1.258 . S
C53 O43 1.252 . S
C53 O46 1.253 . S
C54 O40 1.265 . S
C54 O59 1.244 . S
O55 Tb44 2.441 . S
O55 C45 1.244 . S
O56 Tb44 2.506 . S
O56 C45 1.265 . S
C57 O52 1.258 . S
C57 O58 1.251 . S
O58 C57 1.251 . S
O59 Tb41 2.441 . S
O59 C54 1.244 . S
O60 Tb61 2.506 . S
O60 C74 1.265 . S
Tb61 O60 2.506 . S
Tb61 O66 2.312 1_556 S
Tb61 O70 2.271 . S
Tb61 O72 2.338 1_556 S
Tb61 O79 2.441 . S
C62 O70 1.252 . S
C62 O71 1.253 . S
O63 Tb64 2.271 . S
O63 C73 1.252 1_556 S
Tb64 O63 2.271 . S
Tb64 O67 2.338 1_556 S
Tb64 O71 2.312 . S
Tb64 O75 2.441 . S
Tb64 O76 2.506 . S
C65 O75 1.244 . S
C65 O76 1.265 . S
O66 Tb61 2.312 1_554 S
O66 C73 1.253 . S
O67 Tb64 2.338 1_554 S
O67 C68 1.258 . S
C68 O67 1.258 . S
C68 O69 1.251 . S
O69 C68 1.251 . S
O70 Tb61 2.271 . S
O70 C62 1.252 . S
O71 C62 1.253 . S
O71 Tb64 2.312 . S
O72 Tb61 2.338 1_554 S
O72 C77 1.258 . S
C73 O63 1.252 1_554 S
C73 O66 1.253 . S
C74 O60 1.265 . S
C74 O79 1.244 . S
O75 Tb64 2.441 . S
O75 C65 1.244 . S
O76 Tb64 2.506 . S
O76 C65 1.265 . S
C77 O72 1.258 . S
C77 O78 1.251 . S
O78 C77 1.251 . S
O79 Tb61 2.441 . S
O79 C74 1.244 . S
O80 Tb81 2.506 . S
O80 C94 1.265 . S
Tb81 O80 2.506 . S
Tb81 O86 2.312 . S
Tb81 O90 2.271 . S
Tb81 O92 2.338 . S
Tb81 O99 2.441 . S
C82 O90 1.252 . S
C82 O91 1.253 . S
O83 Tb84 2.271 . S
O83 C93 1.252 . S
Tb84 O83 2.271 . S
Tb84 O87 2.338 . S
Tb84 O91 2.312 . S
Tb84 O95 2.441 . S
Tb84 O96 2.506 . S
C85 O95 1.244 . S
C85 O96 1.265 . S
O86 Tb81 2.312 . S
O86 C93 1.253 . S
O87 Tb84 2.338 . S
O87 C88 1.258 1_455 S
C88 O87 1.258 1_655 S
C88 O89 1.251 . S
O89 C88 1.251 . S
O90 Tb81 2.271 . S
O90 C82 1.252 . S
O91 C82 1.253 . S
O91 Tb84 2.312 . S
O92 Tb81 2.338 . S
O92 C97 1.258 . S
C93 O83 1.252 . S
C93 O86 1.253 . S
C94 O80 1.265 . S
C94 O99 1.244 . S
O95 Tb84 2.441 . S
O95 C85 1.244 . S
O96 Tb84 2.506 . S
O96 C85 1.265 . S
C97 O92 1.258 . S
C97 O98 1.251 . S
O98 C97 1.251 . S
O99 Tb81 2.441 . S
O99 C94 1.244 . S
O100 Tb101 2.506 . S
O100 C114 1.265 . S
Tb101 O100 2.506 . S
Tb101 O106 2.312 . S
Tb101 O110 2.271 . S
Tb101 O112 2.338 . S
Tb101 O119 2.441 . S
C102 O110 1.252 . S
C102 O111 1.253 . S
O103 Tb104 2.271 . S
O103 C113 1.252 . S
Tb104 O103 2.271 . S
Tb104 O107 2.338 . S
Tb104 O111 2.312 . S
Tb104 O115 2.441 . S
Tb104 O116 2.506 . S
C105 O115 1.244 . S
C105 O116 1.265 . S
O106 Tb101 2.312 . S
O106 C113 1.253 . S
O107 Tb104 2.338 . S
O107 C108 1.258 . S
C108 O107 1.258 . S
C108 O109 1.251 . S
O109 C108 1.251 . S
O110 Tb101 2.271 . S
O110 C102 1.252 . S
O111 C102 1.253 . S
O111 Tb104 2.312 . S
O112 Tb101 2.338 . S
O112 C117 1.258 . S
C113 O103 1.252 . S
C113 O106 1.253 . S
C114 O100 1.265 . S
C114 O119 1.244 . S
O115 Tb104 2.441 . S
O115 C105 1.244 . S
O116 Tb104 2.506 . S
O116 C105 1.265 . S
C117 O112 1.258 . S
C117 O118 1.251 . S
O118 C117 1.251 . S
O119 Tb101 2.441 . S
O119 C114 1.244 . S
O120 Tb121 2.506 . S
O120 C134 1.265 . S
Tb121 O120 2.506 . S
Tb121 O126 2.312 . S
Tb121 O130 2.271 . S
Tb121 O132 2.338 . S
Tb121 O139 2.441 . S
C122 O130 1.252 . S
C122 O131 1.253 . S
O123 Tb124 2.271 . S
O123 C133 1.252 . S
Tb124 O123 2.271 . S
Tb124 O127 2.338 . S
Tb124 O131 2.312 . S
Tb124 O135 2.441 . S
Tb124 O136 2.506 . S
C125 O135 1.244 . S
C125 O136 1.265 . S
O126 Tb121 2.312 . S
O126 C133 1.253 . S
O127 Tb124 2.338 . S
O127 C128 1.258 . S
C128 O127 1.258 . S
C128 O129 1.251 . S
O129 C128 1.251 . S
O130 Tb121 2.271 . S
O130 C122 1.252 . S
O131 C122 1.253 . S
O131 Tb124 2.312 . S
O132 Tb121 2.338 . S
O132 C137 1.258 . S
C133 O123 1.252 . S
C133 O126 1.253 . S
C134 O120 1.265 . S
C134 O139 1.244 . S
O135 Tb124 2.441 . S
O135 C125 1.244 . S
O136 Tb124 2.506 . S
O136 C125 1.265 . S
C137 O132 1.258 . S
C137 O138 1.251 . S
O138 C137 1.251 . S
O139 Tb121 2.441 . S
O139 C134 1.244 . S
O140 Tb141 2.506 . S
O140 C154 1.265 . S
Tb141 O140 2.506 . S
Tb141 O146 2.312 . S
Tb141 O150 2.271 1_556 S
Tb141 O152 2.338 . S
Tb141 O159 2.441 . S
C142 O150 1.252 . S
C142 O151 1.253 . S
O143 Tb144 2.271 . S
O143 C153 1.274 . S
Tb144 O143 2.271 . S
Tb144 O147 2.338 . S
Tb144 O151 2.312 . S
Tb144 O155 2.441 . S
Tb144 O156 2.506 . S
C145 O155 1.244 . S
C145 O156 1.265 . S
O146 Tb141 2.312 . S
O146 C153 1.235 1_556 S
O147 Tb144 2.338 . S
O147 C148 1.258 . S
C148 O147 1.258 . S
C148 O149 1.251 . S
O149 C148 1.251 . S
O150 Tb141 2.271 1_554 S
O150 C142 1.252 . S
O151 C142 1.253 . S
O151 Tb144 2.312 . S
O152 Tb141 2.338 . S
O152 C157 1.258 . S
C153 O143 1.274 . S
C153 O146 1.235 1_554 S
C154 O140 1.265 . S
C154 O159 1.244 . S
O155 Tb144 2.441 . S
O155 C145 1.244 . S
O156 Tb144 2.506 . S
O156 C145 1.265 . S
C157 O152 1.258 . S
C157 O158 1.218 1_556 S
O158 C157 1.218 1_554 S
O159 Tb141 2.441 . S
O159 C154 1.244 . S
O160 Tb161 2.506 . S
O160 C174 1.265 . S
Tb161 O160 2.506 . S
Tb161 O166 2.312 1_565 S
Tb161 O170 2.271 1_565 S
Tb161 O172 2.338 . S
Tb161 O179 2.441 . S
C162 O170 1.252 . S
C162 O171 1.253 . S
O163 Tb164 2.271 . S
O163 C173 1.252 . S
Tb164 O163 2.271 . S
Tb164 O167 2.338 . S
Tb164 O171 2.312 . S
Tb164 O175 2.441 . S
Tb164 O176 2.506 . S
C165 O175 1.244 . S
C165 O176 1.265 . S
O166 Tb161 2.312 1_545 S
O166 C173 1.253 . S
O167 Tb164 2.338 . S
O167 C168 1.258 . S
C168 O167 1.258 . S
C168 O169 1.251 . S
O169 C168 1.251 . S
O170 Tb161 2.271 1_545 S
O170 C162 1.252 . S
O171 C162 1.253 . S
O171 Tb164 2.312 . S
O172 Tb161 2.338 . S
O172 C177 1.258 1_565 S
C173 O163 1.252 . S
C173 O166 1.253 . S
C174 O160 1.265 . S
C174 O179 1.244 . S
O175 Tb164 2.441 . S
O175 C165 1.244 . S
O176 Tb164 2.506 . S
O176 C165 1.265 . S
C177 O172 1.258 1_545 S
C177 O178 1.251 . S
O178 C177 1.251 . S
O179 Tb161 2.441 . S
O179 C174 1.244 . S
O180 Tb181 2.506 . S
O180 C194 1.265 . S
Tb181 O180 2.506 . S
Tb181 O186 2.312 . S
Tb181 O190 2.271 1_545 S
Tb181 O192 2.338 . S
Tb181 O199 2.441 . S
C182 O190 1.252 . S
C182 O191 1.253 . S
O183 Tb184 2.271 . S
O183 C193 1.252 . S
Tb184 O183 2.271 . S
Tb184 O187 2.338 . S
Tb184 O191 2.312 . S
Tb184 O195 2.441 . S
Tb184 O196 2.506 . S
C185 O195 1.244 . S
C185 O196 1.265 . S
O186 Tb181 2.312 . S
O186 C193 1.253 1_545 S
O187 Tb184 2.338 . S
O187 C188 1.258 . S
C188 O187 1.258 . S
C188 O189 1.251 . S
O189 C188 1.251 . S
O190 Tb181 2.271 1_565 S
O190 C182 1.252 . S
O191 C182 1.253 . S
O191 Tb184 2.312 . S
O192 Tb181 2.338 . S
O192 C197 1.258 . S
C193 O183 1.252 . S
C193 O186 1.253 1_565 S
C194 O180 1.265 . S
C194 O199 1.244 . S
O195 Tb184 2.441 . S
O195 C185 1.244 . S
O196 Tb184 2.506 . S
O196 C185 1.265 . S
C197 O192 1.258 . S
C197 O198 1.251 1_545 S
O198 C197 1.251 1_565 S
O199 Tb181 2.441 . S
O199 C194 1.244 . S
O200 Tb201 2.506 . S
O200 C214 1.265 . S
Tb201 O200 2.506 . S
Tb201 O206 2.312 . S
Tb201 O210 2.271 1_545 S
Tb201 O212 2.338 . S
Tb201 O219 2.441 . S
C202 O210 1.252 . S
C202 O211 1.253 . S
O203 Tb204 2.271 . S
O203 C213 1.252 . S
Tb204 O203 2.271 . S
Tb204 O207 2.338 . S
Tb204 O211 2.312 . S
Tb204 O215 2.441 . S
Tb204 O216 2.506 . S
C205 O215 1.244 . S
C205 O216 1.265 . S
O206 Tb201 2.312 . S
O206 C213 1.253 1_545 S
O207 Tb204 2.338 . S
O207 C208 1.258 . S
C208 O207 1.258 . S
C208 O209 1.251 . S
O209 C208 1.251 . S
O210 Tb201 2.271 1_565 S
O210 C202 1.252 . S
O211 C202 1.253 . S
O211 Tb204 2.312 . S
O212 Tb201 2.338 . S
O212 C217 1.258 . S
C213 O203 1.252 . S
C213 O206 1.253 1_565 S
C214 O200 1.265 . S
C214 O219 1.244 . S
O215 Tb204 2.441 . S
O215 C205 1.244 . S
O216 Tb204 2.506 . S
O216 C205 1.265 . S
C217 O212 1.258 . S
C217 O218 1.251 1_545 S
O218 C217 1.251 1_565 S
O219 Tb201 2.441 . S
O219 C214 1.244 . S
O220 Tb221 2.506 . S
O220 C234 1.265 . S
Tb221 O220 2.506 . S
Tb221 O226 2.312 . S
Tb221 O230 2.271 1_565 S
Tb221 O232 2.338 . S
Tb221 O239 2.441 . S
C222 O230 1.252 . S
C222 O231 1.253 . S
O223 Tb224 2.271 . S
O223 C233 1.252 . S
Tb224 O223 2.271 . S
Tb224 O227 2.338 . S
Tb224 O231 2.312 . S
Tb224 O235 2.441 . S
Tb224 O236 2.506 . S
C225 O235 1.244 . S
C225 O236 1.265 . S
O226 Tb221 2.312 . S
O226 C233 1.253 1_565 S
O227 Tb224 2.338 . S
O227 C228 1.258 . S
C228 O227 1.258 . S
C228 O229 1.251 . S
O229 C228 1.251 . S
O230 Tb221 2.271 1_545 S
O230 C222 1.252 . S
O231 C222 1.253 . S
O231 Tb224 2.312 . S
O232 Tb221 2.338 . S
O232 C237 1.258 . S
C233 O223 1.252 . S
C233 O226 1.253 1_545 S
C234 O220 1.265 . S
C234 O239 1.244 . S
O235 Tb224 2.441 . S
O235 C225 1.244 . S
O236 Tb224 2.506 . S
O236 C225 1.265 . S
C237 O232 1.258 . S
C237 O238 1.251 1_565 S
O238 C237 1.251 1_545 S
O239 Tb221 2.441 . S
O239 C234 1.244 . S
O240 Tb241 2.506 . S
O240 C254 1.265 . S
Tb241 O240 2.506 . S
Tb241 O246 2.312 . S
Tb241 O250 2.271 . S
Tb241 O252 2.338 1_556 S
Tb241 O259 2.441 . S
C242 O250 1.252 . S
C242 O251 1.253 . S
O243 Tb244 2.271 . S
O243 C253 1.246 1_556 S
Tb244 O243 2.271 . S
Tb244 O247 2.338 1_556 S
Tb244 O251 2.312 . S
Tb244 O255 2.441 . S
Tb244 O256 2.506 . S
C245 O255 1.244 . S
C245 O256 1.265 . S
O246 Tb241 2.312 . S
O246 C253 1.248 1_556 S
O247 Tb244 2.338 1_554 S
O247 C248 1.258 . S
C248 O247 1.258 . S
C248 O249 1.251 . S
O249 C248 1.251 . S
O250 Tb241 2.271 . S
O250 C242 1.252 . S
O251 C242 1.253 . S
O251 Tb244 2.312 . S
O252 Tb241 2.338 1_554 S
O252 C257 1.258 . S
C253 O243 1.246 1_554 S
C253 O246 1.248 1_554 S
C254 O240 1.265 . S
C254 O259 1.244 . S
O255 Tb244 2.441 . S
O255 C245 1.244 . S
O256 Tb244 2.506 . S
O256 C245 1.265 . S
C257 O252 1.258 . S
C257 O258 1.251 . S
O258 C257 1.251 . S
O259 Tb241 2.441 . S
O259 C254 1.244 . S
O260 Tb261 2.506 . S
O260 C274 1.265 . S
Tb261 O260 2.506 . S
Tb261 O266 2.312 . S
Tb261 O270 2.271 . S
Tb261 O272 2.338 . S
Tb261 O279 2.441 . S
C262 O270 1.252 . S
C262 O271 1.253 . S
O263 Tb264 2.271 . S
O263 C273 1.252 . S
Tb264 O263 2.271 . S
Tb264 O267 2.338 1_655 S
Tb264 O271 2.312 . S
Tb264 O275 2.441 . S
Tb264 O276 2.506 . S
C265 O275 1.244 . S
C265 O276 1.265 . S
O266 Tb261 2.312 . S
O266 C273 1.253 . S
O267 Tb264 2.338 1_455 S
O267 C268 1.258 . S
C268 O267 1.258 . S
C268 O269 1.251 . S
O269 C268 1.251 . S
O270 Tb261 2.271 . S
O270 C262 1.252 . S
O271 C262 1.253 . S
O271 Tb264 2.312 . S
O272 Tb261 2.338 . S
O272 C277 1.258 . S
C273 O263 1.252 . S
C273 O266 1.253 . S
C274 O260 1.265 . S
C274 O279 1.244 . S
O275 Tb264 2.441 . S
O275 C265 1.244 . S
O276 Tb264 2.506 . S
O276 C265 1.265 . S
C277 O272 1.258 . S
C277 O278 1.251 . S
O278 C277 1.251 . S
O279 Tb261 2.441 . S
O279 C274 1.244 . S
O280 Tb281 2.506 . S
O280 C294 1.265 . S
Tb281 O280 2.506 . S
Tb281 O286 2.312 . S
Tb281 O290 2.271 . S
Tb281 O292 2.338 . S
Tb281 O299 2.441 . S
C282 O290 1.252 . S
C282 O291 1.253 . S
O283 Tb284 2.271 . S
O283 C293 1.252 . S
Tb284 O283 2.271 . S
Tb284 O287 2.338 . S
Tb284 O291 2.312 . S
Tb284 O295 2.441 . S
Tb284 O296 2.506 . S
C285 O295 1.244 . S
C285 O296 1.265 . S
O286 Tb281 2.312 . S
O286 C293 1.253 . S
O287 Tb284 2.338 . S
O287 C288 1.258 . S
C288 O287 1.258 . S
C288 O289 1.251 . S
O289 C288 1.251 . S
O290 Tb281 2.271 . S
O290 C282 1.252 . S
O291 C282 1.253 . S
O291 Tb284 2.312 . S
O292 Tb281 2.338 . S
O292 C297 1.258 . S
C293 O283 1.252 . S
C293 O286 1.253 . S
C294 O280 1.265 . S
C294 O299 1.244 . S
O295 Tb284 2.441 . S
O295 C285 1.244 . S
O296 Tb284 2.506 . S
O296 C285 1.265 . S
C297 O292 1.258 . S
C297 O298 1.251 . S
O298 C297 1.251 . S
O299 Tb281 2.441 . S
O299 C294 1.244 . S
O300 Tb301 2.506 . S
O300 C314 1.265 . S
Tb301 O300 2.506 . S
Tb301 O306 2.312 1_455 S
Tb301 O310 2.271 1_455 S
Tb301 O312 2.338 . S
Tb301 O319 2.441 . S
C302 O310 1.252 . S
C302 O311 1.253 . S
O303 Tb304 2.271 . S
O303 C313 1.252 . S
Tb304 O303 2.271 . S
Tb304 O307 2.338 . S
Tb304 O311 2.312 . S
Tb304 O315 2.441 . S
Tb304 O316 2.506 . S
C305 O315 1.244 . S
C305 O316 1.265 . S
O306 Tb301 2.312 1_655 S
O306 C313 1.253 . S
O307 Tb304 2.338 . S
O307 C308 1.258 . S
C308 O307 1.258 . S
C308 O309 1.251 . S
O309 C308 1.251 . S
O310 Tb301 2.271 1_655 S
O310 C302 1.252 . S
O311 C302 1.253 . S
O311 Tb304 2.312 . S
O312 Tb301 2.338 . S
O312 C317 1.258 . S
C313 O303 1.252 . S
C313 O306 1.253 . S
C314 O300 1.265 . S
C314 O319 1.244 . S
O315 Tb304 2.441 . S
O315 C305 1.244 . S
O316 Tb304 2.506 . S
O316 C305 1.265 . S
C317 O312 1.258 . S
C317 O318 1.251 1_455 S
O318 C317 1.251 1_655 S
O319 Tb301 2.441 . S
O319 C314 1.244 . S
O320 Tb321 2.506 . S
O320 C334 1.265 . S
Tb321 O320 2.506 . S
Tb321 O326 2.312 . S
Tb321 O330 2.271 . S
Tb321 O332 2.338 . S
Tb321 O339 2.441 . S
C322 O330 1.252 . S
C322 O331 1.253 . S
O323 Tb324 2.271 . S
O323 C333 1.252 . S
Tb324 O323 2.271 . S
Tb324 O327 2.338 . S
Tb324 O331 2.312 . S
Tb324 O335 2.441 . S
Tb324 O336 2.506 . S
C325 O335 1.244 . S
C325 O336 1.265 . S
O326 Tb321 2.312 . S
O326 C333 1.253 . S
O327 Tb324 2.338 . S
O327 C328 1.258 . S
C328 O327 1.258 . S
C328 O329 1.251 . S
O329 C328 1.251 . S
O330 Tb321 2.271 . S
O330 C322 1.252 . S
O331 C322 1.253 . S
O331 Tb324 2.312 . S
O332 Tb321 2.338 . S
O332 C337 1.258 . S
C333 O323 1.252 . S
C333 O326 1.253 . S
C334 O320 1.265 . S
C334 O339 1.244 . S
O335 Tb324 2.441 . S
O335 C325 1.244 . S
O336 Tb324 2.506 . S
O336 C325 1.265 . S
C337 O332 1.258 . S
C337 O338 1.251 . S
O338 C337 1.251 . S
O339 Tb321 2.441 . S
O339 C334 1.244 . S
O340 Tb341 2.506 . S
O340 C354 1.265 . S
Tb341 O340 2.506 . S
Tb341 O346 2.312 . S
Tb341 O350 2.271 . S
Tb341 O352 2.338 . S
Tb341 O359 2.441 . S
C342 O350 1.252 . S
C342 O351 1.253 . S
O343 Tb344 2.271 . S
O343 C353 1.252 . S
Tb344 O343 2.271 . S
Tb344 O347 2.338 . S
Tb344 O351 2.312 . S
Tb344 O355 2.441 . S
Tb344 O356 2.506 . S
C345 O355 1.244 . S
C345 O356 1.265 . S
O346 Tb341 2.312 . S
O346 C353 1.253 . S
O347 Tb344 2.338 . S
O347 C348 1.258 . S
C348 O347 1.258 . S
C348 O349 1.251 . S
O349 C348 1.251 . S
O350 Tb341 2.271 . S
O350 C342 1.252 . S
O351 C342 1.253 . S
O351 Tb344 2.312 . S
O352 Tb341 2.338 . S
O352 C357 1.258 . S
C353 O343 1.252 . S
C353 O346 1.253 . S
C354 O340 1.265 . S
C354 O359 1.244 . S
O355 Tb344 2.441 . S
O355 C345 1.244 . S
O356 Tb344 2.506 . S
O356 C345 1.265 . S
C357 O352 1.258 . S
C357 O358 1.251 . S
O358 C357 1.251 . S
O359 Tb341 2.441 . S
O359 C354 1.244 . S
O360 Tb361 2.506 . S
O360 C374 1.265 . S
Tb361 O360 2.506 . S
Tb361 O366 2.312 1_554 S
Tb361 O370 2.271 . S
Tb361 O372 2.338 1_554 S
Tb361 O379 2.441 . S
C362 O370 1.252 . S
C362 O371 1.253 . S
O363 Tb364 2.271 1_556 S
O363 C373 1.252 . S
Tb364 O363 2.271 1_554 S
Tb364 O367 2.338 1_554 S
Tb364 O371 2.312 . S
Tb364 O375 2.441 . S
Tb364 O376 2.506 . S
C365 O375 1.244 . S
C365 O376 1.265 . S
O366 Tb361 2.312 1_556 S
O366 C373 1.253 . S
O367 Tb364 2.338 1_556 S
O367 C368 1.258 . S
C368 O367 1.258 . S
C368 O369 1.251 . S
O369 C368 1.251 . S
O370 Tb361 2.271 . S
O370 C362 1.252 . S
O371 C362 1.253 . S
O371 Tb364 2.312 . S
O372 Tb361 2.338 1_556 S
O372 C377 1.258 . S
C373 O363 1.252 . S
C373 O366 1.253 . S
C374 O360 1.265 . S
C374 O379 1.244 . S
O375 Tb364 2.441 . S
O375 C365 1.244 . S
O376 Tb364 2.506 . S
O376 C365 1.265 . S
C377 O372 1.258 . S
C377 O378 1.251 . S
O378 C377 1.251 . S
O379 Tb361 2.441 . S
O379 C374 1.244 . S
O380 Tb381 2.506 . S
O380 C394 1.265 . S
Tb381 O380 2.506 . S
Tb381 O386 2.312 . S
Tb381 O390 2.271 . S
Tb381 O392 2.338 . S
Tb381 O399 2.441 . S
C382 O390 1.252 . S
C382 O391 1.253 . S
O383 Tb384 2.271 . S
O383 C393 1.252 . S
Tb384 O383 2.271 . S
Tb384 O387 2.338 . S
Tb384 O391 2.312 . S
Tb384 O395 2.441 . S
Tb384 O396 2.506 . S
C385 O395 1.244 . S
C385 O396 1.265 . S
O386 Tb381 2.312 . S
O386 C393 1.253 . S
O387 Tb384 2.338 . S
O387 C388 1.258 . S
C388 O387 1.258 . S
C388 O389 1.251 . S
O389 C388 1.251 . S
O390 Tb381 2.271 . S
O390 C382 1.252 . S
O391 C382 1.253 . S
O391 Tb384 2.312 . S
O392 Tb381 2.338 . S
O392 C397 1.258 . S
C393 O383 1.252 . S
C393 O386 1.253 . S
C394 O380 1.265 . S
C394 O399 1.244 . S
O395 Tb384 2.441 . S
O395 C385 1.244 . S
O396 Tb384 2.506 . S
O396 C385 1.265 . S
C397 O392 1.258 . S
C397 O398 1.251 . S
O398 C397 1.251 . S
O399 Tb381 2.441 . S
O399 C394 1.244 . S
O400 Tb401 2.506 . S
O400 C414 1.265 . S
Tb401 O400 2.506 . S
Tb401 O406 2.312 . S
Tb401 O410 2.271 . S
Tb401 O412 2.338 . S
Tb401 O419 2.441 . S
C402 O410 1.252 . S
C402 O411 1.253 . S
O403 Tb404 2.271 . S
O403 C413 1.252 . S
Tb404 O403 2.271 . S
Tb404 O407 2.338 . S
Tb404 O411 2.312 . S
Tb404 O415 2.441 . S
Tb404 O416 2.506 . S
C405 O415 1.244 . S
C405 O416 1.265 . S
O406 Tb401 2.312 . S
O406 C413 1.253 . S
O407 Tb404 2.338 . S
O407 C408 1.258 . S
C408 O407 1.258 . S
C408 O409 1.251 . S
O409 C408 1.251 . S
O410 Tb401 2.271 . S
O410 C402 1.252 . S
O411 C402 1.253 . S
O411 Tb404 2.312 . S
O412 Tb401 2.338 . S
O412 C417 1.258 . S
C413 O403 1.252 . S
C413 O406 1.253 . S
C414 O400 1.265 . S
C414 O419 1.244 . S
O415 Tb404 2.441 . S
O415 C405 1.244 . S
O416 Tb404 2.506 . S
O416 C405 1.265 . S
C417 O412 1.258 . S
C417 O418 1.251 . S
O418 C417 1.251 . S
O419 Tb401 2.441 . S
O419 C414 1.244 . S
O420 Tb421 2.506 . S
O420 C434 1.265 . S
Tb421 O420 2.506 . S
Tb421 O426 2.312 . S
Tb421 O430 2.271 . S
Tb421 O432 2.338 . S
Tb421 O439 2.441 . S
C422 O430 1.252 . S
C422 O431 1.253 . S
O423 Tb424 2.271 . S
O423 C433 1.252 . S
Tb424 O423 2.271 . S
Tb424 O427 2.338 . S
Tb424 O431 2.312 . S
Tb424 O435 2.441 . S
Tb424 O436 2.506 . S
C425 O435 1.244 . S
C425 O436 1.265 . S
O426 Tb421 2.312 . S
O426 C433 1.253 . S
O427 Tb424 2.338 . S
O427 C428 1.258 . S
C428 O427 1.258 . S
C428 O429 1.251 . S
O429 C428 1.251 . S
O430 Tb421 2.271 . S
O430 C422 1.252 . S
O431 C422 1.253 . S
O431 Tb424 2.312 . S
O432 Tb421 2.338 . S
O432 C437 1.258 . S
C433 O423 1.252 . S
C433 O426 1.253 . S
C434 O420 1.265 . S
C434 O439 1.244 . S
O435 Tb424 2.441 . S
O435 C425 1.244 . S
O436 Tb424 2.506 . S
O436 C425 1.265 . S
C437 O432 1.258 . S
C437 O438 1.251 . S
O438 C437 1.251 . S
O439 Tb421 2.441 . S
O439 C434 1.244 . S
O440 Tb441 2.506 . S
O440 C454 1.265 . S
Tb441 O440 2.506 . S
Tb441 O446 2.312 . S
Tb441 O450 2.271 . S
Tb441 O452 2.338 . S
Tb441 O459 2.441 . S
C442 O450 1.252 . S
C442 O451 1.253 . S
O443 Tb444 2.271 . S
O443 C453 1.252 . S
Tb444 O443 2.271 . S
Tb444 O447 2.338 . S
Tb444 O451 2.312 . S
Tb444 O455 2.441 . S
Tb444 O456 2.506 . S
C445 O455 1.244 . S
C445 O456 1.265 . S
O446 Tb441 2.312 . S
O446 C453 1.253 . S
O447 Tb444 2.338 . S
O447 C448 1.258 . S
C448 O447 1.258 . S
C448 O449 1.251 . S
O449 C448 1.251 . S
O450 Tb441 2.271 . S
O450 C442 1.252 . S
O451 C442 1.253 . S
O451 Tb444 2.312 . S
O452 Tb441 2.338 . S
O452 C457 1.258 . S
C453 O443 1.252 . S
C453 O446 1.253 . S
C454 O440 1.265 . S
C454 O459 1.244 . S
O455 Tb444 2.441 . S
O455 C445 1.244 . S
O456 Tb444 2.506 . S
O456 C445 1.265 . S
C457 O452 1.258 . S
C457 O458 1.251 . S
O458 C457 1.251 . S
O459 Tb441 2.441 . S
O459 C454 1.244 . S
O460 Tb461 2.506 . S
O460 C474 1.265 . S
Tb461 O460 2.506 . S
Tb461 O466 2.312 . S
Tb461 O470 2.271 . S
Tb461 O472 2.338 . S
Tb461 O479 2.441 . S
C462 O470 1.252 . S
C462 O471 1.253 . S
O463 Tb464 2.271 . S
O463 C473 1.252 . S
Tb464 O463 2.271 . S
Tb464 O467 2.338 . S
Tb464 O471 2.312 . S
Tb464 O475 2.441 . S
Tb464 O476 2.506 . S
C465 O475 1.244 . S
C465 O476 1.265 . S
O466 Tb461 2.312 . S
O466 C473 1.253 . S
O467 Tb464 2.338 . S
O467 C468 1.258 . S
C468 O467 1.258 . S
C468 O469 1.251 . S
O469 C468 1.251 . S
O470 Tb461 2.271 . S
O470 C462 1.252 . S
O471 C462 1.253 . S
O471 Tb464 2.312 . S
O472 Tb461 2.338 . S
O472 C477 1.258 . S
C473 O463 1.252 . S
C473 O466 1.253 . S
C474 O460 1.265 . S
C474 O479 1.244 . S
O475 Tb464 2.441 . S
O475 C465 1.244 . S
O476 Tb464 2.506 . S
O476 C465 1.265 . S
C477 O472 1.258 . S
C477 O478 1.251 . S
O478 C477 1.251 . S
O479 Tb461 2.441 . S
O479 C474 1.244 . S
C480 C481 1.369 . S
C480 C482 1.419 . S
C480 H484 0.930 . S
C481 C480 1.369 . S
C481 C490 1.429 . S
C482 C480 1.419 . S
C482 C483 1.363 . S
C482 H485 0.929 . S
C483 C482 1.363 . S
C483 C489 1.428 . S
H484 C480 0.930 . S
H485 C482 0.929 . S
S486 N487 1.613 . S
S486 N488 1.610 . S
N487 S486 1.613 . S
N487 C490 1.350 . S
N488 S486 1.610 . S
N488 C489 1.351 . S
C489 C483 1.428 . S
C489 N488 1.351 . S
C489 C490 1.434 . S
C490 C481 1.429 . S
C490 N487 1.350 . S
C490 C489 1.434 . S
C491 C492 1.369 . S
C491 C493 1.419 . S
C491 H495 0.930 . S
C492 C491 1.369 . S
C492 C501 1.429 . S
C493 C491 1.419 . S
C493 C494 1.363 . S
C493 H496 0.929 . S
C494 C493 1.363 . S
C494 C500 1.428 . S
H495 C491 0.930 . S
H496 C493 0.929 . S
S497 N498 1.613 . S
S497 N499 1.610 . S
N498 S497 1.613 . S
N498 C501 1.350 . S
N499 S497 1.610 . S
N499 C500 1.351 . S
C500 C494 1.428 . S
C500 N499 1.351 . S
C500 C501 1.434 . S
C501 C492 1.429 . S
C501 N498 1.350 . S
C501 C500 1.434 . S
C502 C503 1.369 . S
C502 C504 1.419 . S
C502 H506 0.930 . S
C503 C502 1.369 . S
C503 C512 1.429 . S
C504 C502 1.419 . S
C504 C505 1.363 . S
C504 H507 0.929 . S
C505 C504 1.363 . S
C505 C511 1.428 . S
H506 C502 0.930 . S
H507 C504 0.929 . S
S508 N509 1.613 . S
S508 N510 1.610 . S
N509 S508 1.613 . S
N509 C512 1.350 . S
N510 S508 1.610 . S
N510 C511 1.351 . S
C511 C505 1.428 . S
C511 N510 1.351 . S
C511 C512 1.434 . S
C512 C503 1.429 . S
C512 N509 1.350 . S
C512 C511 1.434 . S
C513 C514 1.369 . S
C513 C515 1.419 . S
C513 H517 0.930 . S
C514 C513 1.369 . S
C514 C523 1.429 . S
C515 C513 1.419 . S
C515 C516 1.363 . S
C515 H518 0.929 . S
C516 C515 1.363 . S
C516 C522 1.428 . S
H517 C513 0.930 . S
H518 C515 0.929 . S
S519 N520 1.613 . S
S519 N521 1.610 . S
N520 S519 1.613 . S
N520 C523 1.350 . S
N521 S519 1.610 . S
N521 C522 1.351 . S
C522 C516 1.428 . S
C522 N521 1.351 . S
C522 C523 1.434 . S
C523 C514 1.429 . S
C523 N520 1.350 . S
C523 C522 1.434 . S
C524 C525 1.369 . S
C524 C526 1.419 . S
C524 H528 0.930 . S
C525 C524 1.369 . S
C525 C534 1.429 . S
C526 C524 1.419 . S
C526 C527 1.363 . S
C526 H529 0.929 . S
C527 C526 1.363 . S
C527 C533 1.428 . S
H528 C524 0.930 . S
H529 C526 0.929 . S
S530 N531 1.613 . S
S530 N532 1.610 . S
N531 S530 1.613 . S
N531 C534 1.350 . S
N532 S530 1.610 . S
N532 C533 1.351 . S
C533 C527 1.428 . S
C533 N532 1.351 . S
C533 C534 1.434 . S
C534 C525 1.429 . S
C534 N531 1.350 . S
C534 C533 1.434 . S
C535 C536 1.369 . S
C535 C537 1.419 . S
C535 H539 0.930 . S
C536 C535 1.369 . S
C536 C545 1.429 . S
C537 C535 1.419 . S
C537 C538 1.363 . S
C537 H540 0.929 . S
C538 C537 1.363 . S
C538 C544 1.428 . S
H539 C535 0.930 . S
H540 C537 0.929 . S
S541 N542 1.613 . S
S541 N543 1.610 . S
N542 S541 1.613 . S
N542 C545 1.350 . S
N543 S541 1.610 . S
N543 C544 1.351 . S
C544 C538 1.428 . S
C544 N543 1.351 . S
C544 C545 1.434 . S
C545 C536 1.429 . S
C545 N542 1.350 . S
C545 C544 1.434 . S
C546 C547 1.369 . S
C546 C548 1.419 . S
C546 H550 0.930 . S
C547 C546 1.369 . S
C547 C556 1.429 . S
C548 C546 1.419 . S
C548 C549 1.363 . S
C548 H551 0.929 . S
C549 C548 1.363 . S
C549 C555 1.428 . S
H550 C546 0.930 . S
H551 C548 0.929 . S
S552 N553 1.613 . S
S552 N554 1.610 . S
N553 S552 1.613 . S
N553 C556 1.350 . S
N554 S552 1.610 . S
N554 C555 1.351 . S
C555 C549 1.428 . S
C555 N554 1.351 . S
C555 C556 1.434 . S
C556 C547 1.429 . S
C556 N553 1.350 . S
C556 C555 1.434 . S
C557 C558 1.369 . S
C557 C559 1.419 . S
C557 H561 0.930 . S
C558 C557 1.369 . S
C558 C567 1.429 . S
C559 C557 1.419 . S
C559 C560 1.363 . S
C559 H562 0.929 . S
C560 C559 1.363 . S
C560 C566 1.428 . S
H561 C557 0.930 . S
H562 C559 0.929 . S
S563 N564 1.608 1_554 S
S563 N565 1.604 1_554 S
N564 S563 1.608 1_556 S
N564 C567 1.350 . S
N565 S563 1.604 1_556 S
N565 C566 1.351 . S
C566 C560 1.428 . S
C566 N565 1.351 . S
C566 C567 1.434 . S
C567 C558 1.429 . S
C567 N564 1.350 . S
C567 C566 1.434 . S
C568 C569 1.369 . S
C568 C570 1.419 . S
C568 H572 0.930 . S
C569 C568 1.369 . S
C569 C578 1.429 . S
C570 C568 1.419 . S
C570 C571 1.363 . S
C570 H573 0.929 . S
C571 C570 1.363 . S
C571 C577 1.428 . S
H572 C568 0.930 . S
H573 C570 0.929 . S
S574 N575 1.613 . S
S574 N576 1.610 . S
N575 S574 1.613 . S
N575 C578 1.350 . S
N576 S574 1.610 . S
N576 C577 1.351 . S
C577 C571 1.428 . S
C577 N576 1.351 . S
C577 C578 1.434 . S
C578 C569 1.429 . S
C578 N575 1.350 . S
C578 C577 1.434 . S
C579 C580 1.369 . S
C579 C581 1.419 . S
C579 H583 0.930 . S
C580 C579 1.369 . S
C580 C589 1.429 . S
C581 C579 1.419 . S
C581 C582 1.363 . S
C581 H584 0.929 . S
C582 C581 1.363 . S
C582 C588 1.428 . S
H583 C579 0.930 . S
H584 C581 0.929 . S
S585 N586 1.613 . S
S585 N587 1.610 . S
N586 S585 1.613 . S
N586 C589 1.350 . S
N587 S585 1.610 . S
N587 C588 1.351 . S
C588 C582 1.428 . S
C588 N587 1.351 . S
C588 C589 1.434 . S
C589 C580 1.429 . S
C589 N586 1.350 . S
C589 C588 1.434 . S
C590 C591 1.369 . S
C590 C592 1.419 . S
C590 H594 0.930 . S
C591 C590 1.369 . S
C591 C600 1.429 . S
C592 C590 1.419 . S
C592 C593 1.363 . S
C592 H595 0.929 . S
C593 C592 1.363 . S
C593 C599 1.428 . S
H594 C590 0.930 . S
H595 C592 0.929 . S
S596 N597 1.613 1_565 S
S596 N598 1.603 1_565 S
N597 S596 1.613 1_545 S
N597 C600 1.350 . S
N598 S596 1.603 1_545 S
N598 C599 1.370 . S
C599 C593 1.428 . S
C599 N598 1.370 . S
C599 C600 1.434 . S
C600 C591 1.429 . S
C600 N597 1.350 . S
C600 C599 1.434 . S
C601 C602 1.369 . S
C601 C603 1.419 . S
C601 H605 0.930 . S
C602 C601 1.369 . S
C602 C611 1.429 . S
C603 C601 1.419 . S
C603 C604 1.363 . S
C603 H606 0.929 . S
C604 C603 1.363 . S
C604 C610 1.428 . S
H605 C601 0.930 . S
H606 C603 0.929 . S
S607 N608 1.613 . S
S607 N609 1.610 . S
N608 S607 1.613 . S
N608 C611 1.350 1_556 S
N609 S607 1.610 . S
N609 C610 1.351 1_556 S
C610 C604 1.428 . S
C610 N609 1.351 1_554 S
C610 C611 1.434 . S
C611 C602 1.429 . S
C611 N608 1.350 1_554 S
C611 C610 1.434 . S
C612 C613 1.369 . S
C612 C614 1.419 . S
C612 H616 0.930 . S
C613 C612 1.369 . S
C613 C622 1.429 . S
C614 C612 1.419 . S
C614 C615 1.363 . S
C614 H617 0.929 . S
C615 C614 1.363 . S
C615 C621 1.428 . S
H616 C612 0.930 . S
H617 C614 0.929 . S
S618 N619 1.613 1_554 S
S618 N620 1.610 1_554 S
N619 S618 1.613 1_556 S
N619 C622 1.350 . S
N620 S618 1.610 1_556 S
N620 C621 1.351 . S
C621 C615 1.428 . S
C621 N620 1.351 . S
C621 C622 1.434 . S
C622 C613 1.429 . S
C622 N619 1.350 . S
C622 C621 1.434 . S
C623 C624 1.369 . S
C623 C625 1.419 . S
C623 H627 0.930 . S
C624 C623 1.369 . S
C624 C633 1.429 . S
C625 C623 1.419 . S
C625 C626 1.363 . S
C625 H628 0.929 . S
C626 C625 1.363 . S
C626 C632 1.428 . S
H627 C623 0.930 . S
H628 C625 0.929 . S
S629 N630 1.613 . S
S629 N631 1.610 . S
N630 S629 1.613 . S
N630 C633 1.350 . S
N631 S629 1.610 . S
N631 C632 1.351 . S
C632 C626 1.428 . S
C632 N631 1.351 . S
C632 C633 1.434 . S
C633 C624 1.429 . S
C633 N630 1.350 . S
C633 C632 1.434 . S
C634 C635 1.369 . S
C634 C636 1.419 . S
C634 H638 0.930 . S
C635 C634 1.369 . S
C635 C644 1.429 . S
C636 C634 1.419 . S
C636 C637 1.363 . S
C636 H639 0.929 . S
C637 C636 1.363 . S
C637 C643 1.428 . S
H638 C634 0.930 . S
H639 C636 0.929 . S
S640 N641 1.613 . S
S640 N642 1.610 . S
N641 S640 1.613 . S
N641 C644 1.350 . S
N642 S640 1.610 . S
N642 C643 1.351 . S
C643 C637 1.428 . S
C643 N642 1.351 . S
C643 C644 1.434 . S
C644 C635 1.429 . S
C644 N641 1.350 . S
C644 C643 1.434 . S
C645 C646 1.369 . S
C645 C647 1.419 . S
C645 H649 0.930 . S
C646 C645 1.369 . S
C646 C655 1.429 . S
C647 C645 1.419 . S
C647 C648 1.363 . S
C647 H650 0.929 . S
C648 C647 1.363 . S
C648 C654 1.428 . S
H649 C645 0.930 . S
H650 C647 0.929 . S
S651 N652 1.613 . S
S651 N653 1.610 . S
N652 S651 1.613 . S
N652 C655 1.350 . S
N653 S651 1.610 . S
N653 C654 1.351 . S
C654 C648 1.428 . S
C654 N653 1.351 . S
C654 C655 1.434 . S
C655 C646 1.429 . S
C655 N652 1.350 . S
C655 C654 1.434 . S
C656 C657 1.369 . S
C656 C658 1.419 . S
C656 H660 0.930 . S
C657 C656 1.369 . S
C657 C666 1.429 . S
C658 C656 1.419 . S
C658 C659 1.363 . S
C658 H661 0.929 . S
C659 C658 1.363 . S
C659 C665 1.428 . S
H660 C656 0.930 . S
H661 C658 0.929 . S
S662 N663 1.613 . S
S662 N664 1.610 . S
N663 S662 1.613 . S
N663 C666 1.350 . S
N664 S662 1.610 . S
N664 C665 1.351 . S
C665 C659 1.428 . S
C665 N664 1.351 . S
C665 C666 1.434 . S
C666 C657 1.429 . S
C666 N663 1.350 . S
C666 C665 1.434 . S
C667 C668 1.369 . S
C667 C669 1.419 . S
C667 H671 0.930 . S
C668 C667 1.369 . S
C668 C677 1.429 . S
C669 C667 1.419 . S
C669 C670 1.363 . S
C669 H672 0.929 . S
C670 C669 1.363 . S
C670 C676 1.428 . S
H671 C667 0.930 . S
H672 C669 0.929 . S
S673 N674 1.613 . S
S673 N675 1.610 . S
N674 S673 1.613 . S
N674 C677 1.350 . S
N675 S673 1.610 . S
N675 C676 1.351 . S
C676 C670 1.428 . S
C676 N675 1.351 . S
C676 C677 1.434 . S
C677 C668 1.429 . S
C677 N674 1.350 . S
C677 C676 1.434 . S
C678 C679 1.369 . S
C678 C680 1.419 . S
C678 H682 0.930 . S
C679 C678 1.369 . S
C679 C688 1.429 . S
C680 C678 1.419 . S
C680 C681 1.363 . S
C680 H683 0.929 . S
C681 C680 1.363 . S
C681 C687 1.428 . S
H682 C678 0.930 . S
H683 C680 0.929 . S
S684 N685 1.613 . S
S684 N686 1.610 . S
N685 S684 1.613 . S
N685 C688 1.350 . S
N686 S684 1.610 . S
N686 C687 1.351 . S
C687 C681 1.428 . S
C687 N686 1.351 . S
C687 C688 1.434 . S
C688 C679 1.429 . S
C688 N685 1.350 . S
C688 C687 1.434 . S
C689 C690 1.369 . S
C689 C691 1.419 . S
C689 H693 0.930 . S
C690 C689 1.369 . S
C690 C699 1.429 . S
C691 C689 1.419 . S
C691 C692 1.363 . S
C691 H694 0.929 . S
C692 C691 1.363 . S
C692 C698 1.428 . S
H693 C689 0.930 . S
H694 C691 0.929 . S
S695 N696 1.613 . S
S695 N697 1.610 . S
N696 S695 1.613 . S
N696 C699 1.350 . S
N697 S695 1.610 . S
N697 C698 1.351 . S
C698 C692 1.428 . S
C698 N697 1.351 . S
C698 C699 1.434 . S
C699 C690 1.429 . S
C699 N696 1.350 . S
C699 C698 1.434 . S
C700 C701 1.369 . S
C700 C702 1.419 . S
C700 H704 0.930 . S
C701 C700 1.369 . S
C701 C710 1.429 . S
C702 C700 1.419 . S
C702 C703 1.363 . S
C702 H705 0.929 . S
C703 C702 1.363 . S
C703 C709 1.428 . S
H704 C700 0.930 . S
H705 C702 0.929 . S
S706 N707 1.613 . S
S706 N708 1.610 . S
N707 S706 1.613 . S
N707 C710 1.350 . S
N708 S706 1.610 . S
N708 C709 1.351 . S
C709 C703 1.428 . S
C709 N708 1.351 . S
C709 C710 1.434 . S
C710 C701 1.429 . S
C710 N707 1.350 . S
C710 C709 1.434 . S
C711 C712 1.369 . S
C711 C713 1.419 . S
C711 H715 0.930 . S
C712 C711 1.369 . S
C712 C721 1.429 . S
C713 C711 1.419 . S
C713 C714 1.363 . S
C713 H716 0.929 . S
C714 C713 1.363 . S
C714 C720 1.428 . S
H715 C711 0.930 . S
H716 C713 0.929 . S
S717 N718 1.613 . S
S717 N719 1.610 . S
N718 S717 1.613 . S
N718 C721 1.350 . S
N719 S717 1.610 . S
N719 C720 1.351 . S
C720 C714 1.428 . S
C720 N719 1.351 . S
C720 C721 1.434 . S
C721 C712 1.429 . S
C721 N718 1.350 . S
C721 C720 1.434 . S
C722 C723 1.369 1_556 S
C722 C724 1.419 1_556 S
C722 H726 0.930 . S
C723 C722 1.369 1_554 S
C723 C732 1.429 . S
C724 C722 1.419 1_554 S
C724 C725 1.363 . S
C724 H727 0.929 1_554 S
C725 C724 1.363 . S
C725 C731 1.428 . S
H726 C722 0.930 . S
H727 C724 0.929 1_556 S
S728 N729 1.613 . S
S728 N730 1.610 . S
N729 S728 1.613 . S
N729 C732 1.350 . S
N730 S728 1.610 . S
N730 C731 1.351 . S
C731 C725 1.428 . S
C731 N730 1.351 . S
C731 C732 1.434 . S
C732 C723 1.429 . S
C732 N729 1.350 . S
C732 C731 1.434 . S
C733 C734 1.369 . S
C733 C735 1.419 . S
C733 H737 0.930 . S
C734 C733 1.369 . S
C734 C743 1.429 . S
C735 C733 1.419 . S
C735 C736 1.363 . S
C735 H738 0.929 . S
C736 C735 1.363 . S
C736 C742 1.428 . S
H737 C733 0.930 . S
H738 C735 0.929 . S
S739 N740 1.613 . S
S739 N741 1.610 . S
N740 S739 1.613 . S
N740 C743 1.350 . S
N741 S739 1.610 . S
N741 C742 1.351 . S
C742 C736 1.428 . S
C742 N741 1.351 . S
C742 C743 1.434 . S
C743 C734 1.429 . S
C743 N740 1.350 . S
C743 C742 1.434 . S
C744 C745 1.369 1_545 S
C744 C746 1.419 . S
C744 H748 0.930 1_545 S
C745 C744 1.369 1_565 S
C745 C754 1.443 . S
C746 C744 1.419 . S
C746 C747 1.363 . S
C746 H749 0.929 . S
C747 C746 1.363 . S
C747 C753 1.428 . S
H748 C744 0.930 1_565 S
H749 C746 0.929 . S
S750 N751 1.613 1_545 S
S750 N752 1.610 . S
N751 S750 1.613 1_565 S
N751 C754 1.365 1_655 S
N752 S750 1.610 . S
N752 C753 1.351 1_655 S
C753 C747 1.428 . S
C753 N752 1.351 1_455 S
C753 C754 1.403 1_545 S
C754 C745 1.443 . S
C754 N751 1.365 1_455 S
C754 C753 1.403 1_565 S
C755 C756 1.369 . S
C755 C757 1.419 . S
C755 H759 0.930 . S
C756 C755 1.369 . S
C756 C765 1.429 . S
C757 C755 1.419 . S
C757 C758 1.363 . S
C757 H760 0.929 . S
C758 C757 1.363 . S
C758 C764 1.428 . S
H759 C755 0.930 . S
H760 C757 0.929 . S
S761 N762 1.613 . S
S761 N763 1.610 . S
N762 S761 1.613 . S
N762 C765 1.350 . S
N763 S761 1.610 . S
N763 C764 1.351 . S
C764 C758 1.428 . S
C764 N763 1.351 . S
C764 C765 1.434 . S
C765 C756 1.429 . S
C765 N762 1.350 . S
C765 C764 1.434 . S
C766 C767 1.369 . S
C766 C768 1.419 1_565 S
C766 H770 0.930 . S
C767 C766 1.369 . S
C767 C776 1.438 . S
C768 C766 1.419 1_545 S
C768 C769 1.363 . S
C768 H771 0.929 . S
C769 C768 1.363 . S
C769 C775 1.428 . S
H770 C766 0.930 . S
H771 C768 0.929 . S
S772 N773 1.613 1_545 S
S772 N774 1.610 . S
N773 S772 1.613 1_565 S
N773 C776 1.356 . S
N774 S772 1.610 . S
N774 C775 1.351 . S
C775 C769 1.428 . S
C775 N774 1.351 . S
C775 C776 1.417 1_545 S
C776 C767 1.438 . S
C776 N773 1.356 . S
C776 C775 1.417 1_565 S
C777 C778 1.369 . S
C777 C779 1.419 . S
C777 H781 0.930 . S
C778 C777 1.369 . S
C778 C787 1.429 1_554 S
C779 C777 1.419 . S
C779 C780 1.363 1_554 S
C779 H782 0.929 . S
C780 C779 1.363 1_556 S
C780 C786 1.428 . S
H781 C777 0.930 . S
H782 C779 0.929 . S
S783 N784 1.613 . S
S783 N785 1.610 . S
N784 S783 1.613 . S
N784 C787 1.350 . S
N785 S783 1.610 . S
N785 C786 1.351 . S
C786 C780 1.428 . S
C786 N785 1.351 . S
C786 C787 1.434 . S
C787 C778 1.429 1_556 S
C787 N784 1.350 . S
C787 C786 1.434 . S
C788 C789 1.369 . S
C788 C790 1.419 1_556 S
C788 H792 0.930 . S
C789 C788 1.369 . S
C789 C798 1.429 . S
C790 C788 1.419 1_554 S
C790 C791 1.363 . S
C790 H793 0.929 . S
C791 C790 1.363 . S
C791 C797 1.428 . S
H792 C788 0.930 . S
H793 C790 0.929 . S
S794 N795 1.613 1_554 S
S794 N796 1.610 1_565 S
N795 S794 1.613 1_556 S
N795 C798 1.350 1_565 S
N796 S794 1.610 1_545 S
N796 C797 1.351 . S
C797 C791 1.428 . S
C797 N796 1.351 . S
C797 C798 1.434 1_554 S
C798 C789 1.429 . S
C798 N795 1.350 1_545 S
C798 C797 1.434 1_556 S
C799 C800 1.369 1_565 S
C799 C801 1.421 . S
C799 H803 0.930 . S
C800 C799 1.369 1_545 S
C800 C809 1.429 . S
C801 C799 1.421 . S
C801 C802 1.348 1_565 S
C801 H804 0.943 . S
C802 C801 1.348 1_545 S
C802 C808 1.428 . S
H803 C799 0.930 . S
H804 C801 0.943 . S
S805 N806 1.613 . S
S805 N807 1.610 . S
N806 S805 1.613 . S
N806 C809 1.350 . S
N807 S805 1.610 . S
N807 C808 1.351 . S
C808 C802 1.428 . S
C808 N807 1.351 . S
C808 C809 1.434 . S
C809 C800 1.429 . S
C809 N806 1.350 . S
C809 C808 1.434 . S
C810 C811 1.369 1_545 S
C810 C812 1.419 . S
C810 H814 0.930 . S
C811 C810 1.369 1_565 S
C811 C820 1.429 . S
C812 C810 1.419 . S
C812 C813 1.363 1_545 S
C812 H815 0.929 . S
C813 C812 1.363 1_565 S
C813 C819 1.428 . S
H814 C810 0.930 . S
H815 C812 0.929 . S
S816 N817 1.613 . S
S816 N818 1.610 . S
N817 S816 1.613 . S
N817 C820 1.350 . S
N818 S816 1.610 . S
N818 C819 1.351 . S
C819 C813 1.428 . S
C819 N818 1.351 . S
C819 C820 1.434 . S
C820 C811 1.429 . S
C820 N817 1.350 . S
C820 C819 1.434 . S
C821 C822 1.369 . S
C821 C823 1.419 . S
C821 H825 0.930 . S
C822 C821 1.369 . S
C822 C831 1.429 . S
C823 C821 1.419 . S
C823 C824 1.363 1_565 S
C823 H826 0.929 . S
C824 C823 1.363 1_545 S
C824 C830 1.428 . S
H825 C821 0.930 . S
H826 C823 0.929 . S
S827 N828 1.613 1_545 S
S827 N829 1.610 . S
N828 S827 1.613 1_565 S
N828 C831 1.350 . S
N829 S827 1.610 . S
N829 C830 1.351 . S
C830 C824 1.428 . S
C830 N829 1.351 . S
C830 C831 1.434 1_545 S
C831 C822 1.429 . S
C831 N828 1.350 . S
C831 C830 1.434 1_565 S
C832 C833 1.369 . S
C832 C834 1.419 . S
C832 H836 0.930 1_455 S
C833 C832 1.369 . S
C833 C842 1.429 1_556 S
C834 C832 1.419 . S
C834 C835 1.363 . S
C834 H837 0.929 . S
C835 C834 1.363 . S
C835 C841 1.428 1_556 S
H836 C832 0.930 1_655 S
H837 C834 0.929 . S
S838 N839 1.613 . S
S838 N840 1.610 . S
N839 S838 1.613 . S
N839 C842 1.350 . S
N840 S838 1.610 . S
N840 C841 1.351 . S
C841 C835 1.428 1_554 S
C841 N840 1.351 . S
C841 C842 1.434 . S
C842 C833 1.429 1_554 S
C842 N839 1.350 . S
C842 C841 1.434 . S
C843 C844 1.372 . S
C843 C845 1.419 . S
C843 H847 0.930 . S
C844 C843 1.372 . S
C844 C853 1.425 1_554 S
C845 C843 1.419 . S
C845 C846 1.335 1_554 S
C845 H848 0.929 . S
C846 C845 1.335 1_556 S
C846 C852 1.455 . S
H847 C843 0.930 . S
H848 C845 0.929 . S
S849 N850 1.613 . S
S849 N851 1.610 . S
N850 S849 1.613 . S
N850 C853 1.350 . S
N851 S849 1.610 . S
N851 C852 1.351 . S
C852 C846 1.455 . S
C852 N851 1.351 . S
C852 C853 1.434 . S
C853 C844 1.425 1_556 S
C853 N850 1.350 . S
C853 C852 1.434 . S
C854 C855 1.362 1_455 S
C854 C856 1.419 . S
C854 H858 0.930 . S
C855 C854 1.362 1_655 S
C855 C864 1.437 . S
C856 C854 1.419 . S
C856 C857 1.363 1_455 S
C856 H859 0.929 . S
C857 C856 1.363 1_655 S
C857 C863 1.428 . S
H858 C854 0.930 . S
H859 C856 0.929 . S
S860 N861 1.613 . S
S860 N862 1.610 . S
N861 S860 1.613 . S
N861 C864 1.350 . S
N862 S860 1.610 . S
N862 C863 1.351 . S
C863 C857 1.428 . S
C863 N862 1.351 . S
C863 C864 1.434 . S
C864 C855 1.437 . S
C864 N861 1.350 . S
C864 C863 1.434 . S
C865 C866 1.369 . S
C865 C867 1.419 . S
C865 H869 0.930 . S
C866 C865 1.369 . S
C866 C875 1.429 . S
C867 C865 1.419 . S
C867 C868 1.363 1_455 S
C867 H870 0.929 1_455 S
C868 C867 1.363 1_655 S
C868 C874 1.428 1_655 S
H869 C865 0.930 . S
H870 C867 0.929 1_655 S
S871 N872 1.613 . S
S871 N873 1.610 . S
N872 S871 1.613 . S
N872 C875 1.350 . S
N873 S871 1.610 . S
N873 C874 1.351 . S
C874 C868 1.428 1_455 S
C874 N873 1.351 . S
C874 C875 1.434 . S
C875 C866 1.429 . S
C875 N872 1.350 . S
C875 C874 1.434 . S
C876 C877 1.369 . S
C876 C878 1.419 . S
C876 H880 0.930 . S
C877 C876 1.369 . S
C877 C886 1.429 . S
C878 C876 1.419 . S
C878 C879 1.363 . S
C878 H881 0.929 . S
C879 C878 1.363 . S
C879 C885 1.428 . S
H880 C876 0.930 . S
H881 C878 0.929 . S
S882 N883 1.613 . S
S882 N884 1.610 . S
N883 S882 1.613 . S
N883 C886 1.350 . S
N884 S882 1.610 . S
N884 C885 1.351 . S
C885 C879 1.428 . S
C885 N884 1.351 . S
C885 C886 1.434 . S
C886 C877 1.429 . S
C886 N883 1.350 . S
C886 C885 1.434 . S
C887 C888 1.369 . S
C887 C889 1.419 . S
C887 H891 0.930 . S
C888 C887 1.369 . S
C888 C897 1.429 1_455 S
C889 C887 1.419 . S
C889 C890 1.363 . S
C889 H892 0.929 . S
C890 C889 1.363 . S
C890 C896 1.428 1_455 S
H891 C887 0.930 . S
H892 C889 0.929 . S
S893 N894 1.613 . S
S893 N895 1.610 . S
N894 S893 1.613 . S
N894 C897 1.350 . S
N895 S893 1.610 . S
N895 C896 1.351 . S
C896 C890 1.428 1_655 S
C896 N895 1.351 . S
C896 C897 1.434 . S
C897 C888 1.429 1_655 S
C897 N894 1.350 . S
C897 C896 1.434 . S
C898 C899 1.369 . S
C898 C900 1.419 . S
C898 H902 0.930 . S
C899 C898 1.369 . S
C899 C908 1.429 . S
C900 C898 1.419 . S
C900 C901 1.363 . S
C900 H903 0.929 . S
C901 C900 1.363 . S
C901 C907 1.428 . S
H902 C898 0.930 . S
H903 C900 0.929 . S
S904 N905 1.613 . S
S904 N906 1.610 . S
N905 S904 1.613 . S
N905 C908 1.350 . S
N906 S904 1.610 . S
N906 C907 1.351 . S
C907 C901 1.428 . S
C907 N906 1.351 . S
C907 C908 1.434 . S
C908 C899 1.429 . S
C908 N905 1.350 . S
C908 C907 1.434 . S
C909 C910 1.369 . S
C909 C911 1.419 . S
C909 H913 0.930 . S
C910 C909 1.369 . S
C910 C919 1.429 . S
C911 C909 1.419 . S
C911 C912 1.363 . S
C911 H914 0.929 . S
C912 C911 1.363 . S
C912 C918 1.428 . S
H913 C909 0.930 . S
H914 C911 0.929 . S
S915 N916 1.613 . S
S915 N917 1.610 . S
N916 S915 1.613 . S
N916 C919 1.350 . S
N917 S915 1.610 . S
N917 C918 1.351 . S
C918 C912 1.428 . S
C918 N917 1.351 . S
C918 C919 1.434 . S
C919 C910 1.429 . S
C919 N916 1.350 . S
C919 C918 1.434 . S
C920 C921 1.369 . S
C920 C922 1.419 . S
C920 H924 0.930 . S
C921 C920 1.369 . S
C921 C930 1.429 1_556 S
C922 C920 1.419 . S
C922 C923 1.357 1_556 S
C922 H925 0.929 . S
C923 C922 1.357 1_554 S
C923 C929 1.433 . S
H924 C920 0.930 . S
H925 C922 0.929 . S
S926 N927 1.613 . S
S926 N928 1.610 . S
N927 S926 1.613 . S
N927 C930 1.350 . S
N928 S926 1.610 . S
N928 C929 1.351 . S
C929 C923 1.433 . S
C929 N928 1.351 . S
C929 C930 1.434 . S
C930 C921 1.429 1_554 S
C930 N927 1.350 . S
C930 C929 1.434 . S
C931 C932 1.369 . S
C931 C933 1.419 . S
C931 H935 0.930 1_655 S
C932 C931 1.369 . S
C932 C941 1.429 . S
C933 C931 1.419 . S
C933 C934 1.363 . S
C933 H936 0.929 1_655 S
C934 C933 1.363 . S
C934 C940 1.428 . S
H935 C931 0.930 1_455 S
H936 C933 0.929 1_455 S
S937 N938 1.613 . S
S937 N939 1.610 . S
N938 S937 1.613 . S
N938 C941 1.350 . S
N939 S937 1.610 . S
N939 C940 1.351 . S
C940 C934 1.428 . S
C940 N939 1.351 . S
C940 C941 1.434 . S
C941 C932 1.429 . S
C941 N938 1.350 . S
C941 C940 1.434 . S
C942 C943 1.369 . S
C942 C944 1.419 . S
C942 H946 0.930 . S
C943 C942 1.369 . S
C943 C952 1.429 . S
C944 C942 1.419 . S
C944 C945 1.363 . S
C944 H947 0.929 . S
C945 C944 1.363 . S
C945 C951 1.428 . S
H946 C942 0.930 . S
H947 C944 0.929 . S
S948 N949 1.613 . S
S948 N950 1.610 . S
N949 S948 1.613 . S
N949 C952 1.350 . S
N950 S948 1.610 . S
N950 C951 1.351 . S
C951 C945 1.428 . S
C951 N950 1.351 . S
C951 C952 1.434 . S
C952 C943 1.429 . S
C952 N949 1.350 . S
C952 C951 1.434 . S
C953 C954 1.369 . S
C953 C955 1.419 . S
C953 H957 0.930 . S
C954 C953 1.369 . S
C954 C963 1.429 . S
C955 C953 1.419 . S
C955 C956 1.363 . S
C955 H958 0.929 . S
C956 C955 1.363 . S
C956 C962 1.428 . S
H957 C953 0.930 . S
H958 C955 0.929 . S
S959 N960 1.613 . S
S959 N961 1.610 . S
N960 S959 1.613 . S
N960 C963 1.350 . S
N961 S959 1.610 . S
N961 C962 1.351 . S
C962 C956 1.428 . S
C962 N961 1.351 . S
C962 C963 1.434 . S
C963 C954 1.429 . S
C963 N960 1.350 . S
C963 C962 1.434 . S
C964 C965 1.369 . S
C964 C966 1.419 . S
C964 H968 0.930 . S
C965 C964 1.369 . S
C965 C974 1.429 . S
C966 C964 1.419 . S
C966 C967 1.363 . S
C966 H969 0.929 . S
C967 C966 1.363 . S
C967 C973 1.428 . S
H968 C964 0.930 . S
H969 C966 0.929 . S
S970 N971 1.613 . S
S970 N972 1.610 . S
N971 S970 1.613 . S
N971 C974 1.350 . S
N972 S970 1.610 . S
N972 C973 1.351 . S
C973 C967 1.428 . S
C973 N972 1.351 . S
C973 C974 1.434 . S
C974 C965 1.429 . S
C974 N971 1.350 . S
C974 C973 1.434 . S
C975 C976 1.369 . S
C975 C977 1.419 1_554 S
C975 H979 0.930 . S
C976 C975 1.369 . S
C976 C985 1.429 . S
C977 C975 1.419 1_556 S
C977 C978 1.363 . S
C977 H980 0.929 . S
C978 C977 1.363 . S
C978 C984 1.428 . S
H979 C975 0.930 . S
H980 C977 0.929 . S
S981 N982 1.613 . S
S981 N983 1.610 1_554 S
N982 S981 1.613 . S
N982 C985 1.350 . S
N983 S981 1.610 1_556 S
N983 C984 1.351 . S
C984 C978 1.428 . S
C984 N983 1.351 . S
C984 C985 1.434 1_556 S
C985 C976 1.429 . S
C985 N982 1.350 . S
C985 C984 1.434 1_554 S
C986 C987 1.369 . S
C986 C988 1.419 . S
C986 H990 0.930 . S
C987 C986 1.369 . S
C987 C996 1.429 . S
C988 C986 1.419 . S
C988 C989 1.363 . S
C988 H991 0.929 . S
C989 C988 1.363 . S
C989 C995 1.428 . S
H990 C986 0.930 . S
H991 C988 0.929 . S
S992 N993 1.613 . S
S992 N994 1.610 . S
N993 S992 1.613 . S
N993 C996 1.350 . S
N994 S992 1.610 . S
N994 C995 1.351 . S
C995 C989 1.428 . S
C995 N994 1.351 . S
C995 C996 1.434 . S
C996 C987 1.429 . S
C996 N993 1.350 . S
C996 C995 1.434 . S
C997 C998 1.369 . S
C997 C999 1.419 . S
C997 H1001 0.930 . S
C998 C997 1.369 . S
C998 C1007 1.429 . S
C999 C997 1.419 . S
C999 C1000 1.363 . S
C999 H1002 0.929 . S
C1000 C999 1.363 . S
C1000 C1006 1.428 . S
H1001 C997 0.930 . S
H1002 C999 0.929 . S
S1003 N1004 1.613 . S
S1003 N1005 1.610 . S
N1004 S1003 1.613 . S
N1004 C1007 1.350 . S
N1005 S1003 1.610 . S
N1005 C1006 1.351 . S
C1006 C1000 1.428 . S
C1006 N1005 1.351 . S
C1006 C1007 1.434 . S
C1007 C998 1.429 . S
C1007 N1004 1.350 . S
C1007 C1006 1.434 . S
C1008 C1009 1.369 . S
C1008 C1010 1.419 . S
C1008 H1012 0.930 . S
C1009 C1008 1.369 . S
C1009 C1018 1.429 . S
C1010 C1008 1.419 . S
C1010 C1011 1.363 . S
C1010 H1013 0.929 . S
C1011 C1010 1.363 . S
C1011 C1017 1.428 . S
H1012 C1008 0.930 . S
H1013 C1010 0.929 . S
S1014 N1015 1.613 . S
S1014 N1016 1.610 . S
N1015 S1014 1.613 . S
N1015 C1018 1.350 . S
N1016 S1014 1.610 . S
N1016 C1017 1.351 . S
C1017 C1011 1.428 . S
C1017 N1016 1.351 . S
C1017 C1018 1.434 . S
C1018 C1009 1.429 . S
C1018 N1015 1.350 . S
C1018 C1017 1.434 . S
C1019 C1020 1.369 . S
C1019 C1021 1.419 . S
C1019 H1023 0.930 . S
C1020 C1019 1.369 . S
C1020 C1029 1.429 . S
C1021 C1019 1.419 . S
C1021 C1022 1.363 . S
C1021 H1024 0.929 . S
C1022 C1021 1.363 . S
C1022 C1028 1.428 . S
H1023 C1019 0.930 . S
H1024 C1021 0.929 . S
S1025 N1026 1.613 . S
S1025 N1027 1.610 . S
N1026 S1025 1.613 . S
N1026 C1029 1.350 . S
N1027 S1025 1.610 . S
N1027 C1028 1.351 . S
C1028 C1022 1.428 . S
C1028 N1027 1.351 . S
C1028 C1029 1.434 . S
C1029 C1020 1.429 . S
C1029 N1026 1.350 . S
C1029 C1028 1.434 . S
C1030 C1031 1.369 . S
C1030 C1032 1.419 . S
C1030 H1034 0.930 . S
C1031 C1030 1.369 . S
C1031 C1040 1.429 . S
C1032 C1030 1.419 . S
C1032 C1033 1.363 . S
C1032 H1035 0.929 . S
C1033 C1032 1.363 . S
C1033 C1039 1.428 . S
H1034 C1030 0.930 . S
H1035 C1032 0.929 . S
S1036 N1037 1.613 . S
S1036 N1038 1.610 . S
N1037 S1036 1.613 . S
N1037 C1040 1.350 . S
N1038 S1036 1.610 . S
N1038 C1039 1.351 . S
C1039 C1033 1.428 . S
C1039 N1038 1.351 . S
C1039 C1040 1.434 . S
C1040 C1031 1.429 . S
C1040 N1037 1.350 . S
C1040 C1039 1.434 . S
C1041 C1042 1.369 . S
C1041 C1043 1.419 . S
C1041 H1045 0.930 . S
C1042 C1041 1.369 . S
C1042 C1051 1.429 . S
C1043 C1041 1.419 . S
C1043 C1044 1.363 . S
C1043 H1046 0.929 . S
C1044 C1043 1.363 . S
C1044 C1050 1.428 . S
H1045 C1041 0.930 . S
H1046 C1043 0.929 . S
S1047 N1048 1.613 . S
S1047 N1049 1.610 . S
N1048 S1047 1.613 . S
N1048 C1051 1.350 . S
N1049 S1047 1.610 . S
N1049 C1050 1.351 . S
C1050 C1044 1.428 . S
C1050 N1049 1.351 . S
C1050 C1051 1.434 . S
C1051 C1042 1.429 . S
C1051 N1048 1.350 . S
C1051 C1050 1.434 . S
C1052 C1053 1.369 . S
C1052 C1054 1.419 . S
C1052 H1056 0.930 . S
C1053 C1052 1.369 . S
C1053 C1062 1.429 . S
C1054 C1052 1.419 . S
C1054 C1055 1.363 . S
C1054 H1057 0.929 . S
C1055 C1054 1.363 . S
C1055 C1061 1.428 . S
H1056 C1052 0.930 . S
H1057 C1054 0.929 . S
S1058 N1059 1.613 1_545 S
S1058 N1060 1.610 1_545 S
N1059 S1058 1.613 1_565 S
N1059 C1062 1.350 . S
N1060 S1058 1.610 1_565 S
N1060 C1061 1.351 . S
C1061 C1055 1.428 . S
C1061 N1060 1.351 . S
C1061 C1062 1.434 . S
C1062 C1053 1.429 . S
C1062 N1059 1.350 . S
C1062 C1061 1.434 . S
C1063 C1064 1.369 . S
C1063 C1065 1.419 . S
C1063 H1067 0.930 . S
C1064 C1063 1.369 . S
C1064 C1073 1.429 . S
C1065 C1063 1.419 . S
C1065 C1066 1.363 . S
C1065 H1068 0.929 . S
C1066 C1065 1.363 . S
C1066 C1072 1.428 . S
H1067 C1063 0.930 . S
H1068 C1065 0.929 . S
S1069 N1070 1.613 . S
S1069 N1071 1.610 . S
N1070 S1069 1.613 . S
N1070 C1073 1.350 . S
N1071 S1069 1.610 . S
N1071 C1072 1.351 . S
C1072 C1066 1.428 . S
C1072 N1071 1.351 . S
C1072 C1073 1.434 . S
C1073 C1064 1.429 . S
C1073 N1070 1.350 . S
C1073 C1072 1.434 . S
C1074 C1075 1.369 . S
C1074 C1076 1.419 . S
C1074 H1078 0.930 . S
C1075 C1074 1.369 . S
C1075 C1084 1.429 . S
C1076 C1074 1.419 . S
C1076 C1077 1.363 . S
C1076 H1079 0.929 . S
C1077 C1076 1.363 . S
C1077 C1083 1.428 . S
H1078 C1074 0.930 . S
H1079 C1076 0.929 . S
S1080 N1081 1.613 . S
S1080 N1082 1.610 . S
N1081 S1080 1.613 . S
N1081 C1084 1.350 . S
N1082 S1080 1.610 . S
N1082 C1083 1.351 . S
C1083 C1077 1.428 . S
C1083 N1082 1.351 . S
C1083 C1084 1.434 . S
C1084 C1075 1.429 . S
C1084 N1081 1.350 . S
C1084 C1083 1.434 . S
C1085 C1086 1.369 . S
C1085 C1087 1.419 . S
C1085 H1089 0.930 . S
C1086 C1085 1.369 . S
C1086 C1095 1.429 . S
C1087 C1085 1.419 . S
C1087 C1088 1.363 . S
C1087 H1090 0.929 . S
C1088 C1087 1.363 . S
C1088 C1094 1.428 . S
H1089 C1085 0.930 . S
H1090 C1087 0.929 . S
S1091 N1092 1.613 . S
S1091 N1093 1.610 . S
N1092 S1091 1.613 . S
N1092 C1095 1.350 . S
N1093 S1091 1.610 . S
N1093 C1094 1.351 . S
C1094 C1088 1.428 . S
C1094 N1093 1.351 . S
C1094 C1095 1.434 . S
C1095 C1086 1.429 . S
C1095 N1092 1.350 . S
C1095 C1094 1.434 . S
C1096 C1097 1.369 . S
C1096 C1098 1.419 . S
C1096 H1100 0.930 . S
C1097 C1096 1.369 . S
C1097 C1106 1.429 . S
C1098 C1096 1.419 . S
C1098 C1099 1.363 . S
C1098 H1101 0.929 . S
C1099 C1098 1.363 . S
C1099 C1105 1.428 . S
H1100 C1096 0.930 . S
H1101 C1098 0.929 . S
S1102 N1103 1.613 . S
S1102 N1104 1.610 . S
N1103 S1102 1.613 . S
N1103 C1106 1.350 . S
N1104 S1102 1.610 . S
N1104 C1105 1.351 . S
C1105 C1099 1.428 . S
C1105 N1104 1.351 . S
C1105 C1106 1.434 . S
C1106 C1097 1.429 . S
C1106 N1103 1.350 . S
C1106 C1105 1.434 . S
C1107 C1108 1.369 . S
C1107 C1109 1.419 . S
C1107 H1111 0.930 . S
C1108 C1107 1.369 . S
C1108 C1117 1.429 . S
C1109 C1107 1.419 . S
C1109 C1110 1.363 . S
C1109 H1112 0.929 . S
C1110 C1109 1.363 . S
C1110 C1116 1.428 . S
H1111 C1107 0.930 . S
H1112 C1109 0.929 . S
S1113 N1114 1.613 . S
S1113 N1115 1.610 . S
N1114 S1113 1.613 . S
N1114 C1117 1.350 . S
N1115 S1113 1.610 . S
N1115 C1116 1.351 . S
C1116 C1110 1.428 . S
C1116 N1115 1.351 . S
C1116 C1117 1.434 . S
C1117 C1108 1.429 . S
C1117 N1114 1.350 . S
C1117 C1116 1.434 . S
C1118 C1119 1.369 . S
C1118 C1120 1.419 . S
C1118 H1122 0.930 . S
C1119 C1118 1.369 . S
C1119 C1128 1.429 . S
C1120 C1118 1.419 . S
C1120 C1121 1.363 . S
C1120 H1123 0.929 . S
C1121 C1120 1.363 . S
C1121 C1127 1.428 . S
H1122 C1118 0.930 . S
H1123 C1120 0.929 . S
S1124 N1125 1.613 . S
S1124 N1126 1.610 1_455 S
N1125 S1124 1.613 . S
N1125 C1128 1.350 1_455 S
N1126 S1124 1.610 1_655 S
N1126 C1127 1.351 . S
C1127 C1121 1.428 . S
C1127 N1126 1.351 . S
C1127 C1128 1.434 . S
C1128 C1119 1.429 . S
C1128 N1125 1.350 1_655 S
C1128 C1127 1.434 . S
C1129 C1130 1.369 . S
C1129 C1131 1.419 . S
C1129 H1133 0.930 . S
C1130 C1129 1.369 . S
C1130 C1139 1.429 . S
C1131 C1129 1.419 . S
C1131 C1132 1.363 . S
C1131 H1134 0.929 . S
C1132 C1131 1.363 . S
C1132 C1138 1.428 . S
H1133 C1129 0.930 . S
H1134 C1131 0.929 . S
S1135 N1136 1.613 . S
S1135 N1137 1.610 . S
N1136 S1135 1.613 . S
N1136 C1139 1.350 . S
N1137 S1135 1.610 . S
N1137 C1138 1.351 . S
C1138 C1132 1.428 . S
C1138 N1137 1.351 . S
C1138 C1139 1.434 . S
C1139 C1130 1.429 . S
C1139 N1136 1.350 . S
C1139 C1138 1.434 . S
C1140 C1141 1.369 . S
C1140 C1142 1.419 . S
C1140 H1144 0.930 . S
C1141 C1140 1.369 . S
C1141 C1150 1.429 . S
C1142 C1140 1.419 . S
C1142 C1143 1.363 . S
C1142 H1145 0.929 . S
C1143 C1142 1.363 . S
C1143 C1149 1.428 . S
H1144 C1140 0.930 . S
H1145 C1142 0.929 . S
S1146 N1147 1.613 . S
S1146 N1148 1.610 . S
N1147 S1146 1.613 . S
N1147 C1150 1.350 . S
N1148 S1146 1.610 . S
N1148 C1149 1.351 . S
C1149 C1143 1.428 . S
C1149 N1148 1.351 . S
C1149 C1150 1.434 . S
C1150 C1141 1.429 . S
C1150 N1147 1.350 . S
C1150 C1149 1.434 . S
C1151 C1152 1.369 . S
C1151 C1153 1.419 . S
C1151 H1155 0.930 . S
C1152 C1151 1.369 . S
C1152 C1161 1.429 . S
C1153 C1151 1.419 . S
C1153 C1154 1.363 . S
C1153 H1156 0.929 . S
C1154 C1153 1.363 . S
C1154 C1160 1.428 . S
H1155 C1151 0.930 . S
H1156 C1153 0.929 . S
S1157 N1158 1.613 . S
S1157 N1159 1.610 . S
N1158 S1157 1.613 . S
N1158 C1161 1.350 . S
N1159 S1157 1.610 . S
N1159 C1160 1.351 . S
C1160 C1154 1.428 . S
C1160 N1159 1.351 . S
C1160 C1161 1.434 . S
C1161 C1152 1.429 . S
C1161 N1158 1.350 . S
C1161 C1160 1.434 . S
C1162 C1163 1.369 . S
C1162 C1164 1.419 . S
C1162 H1166 0.930 . S
C1163 C1162 1.369 . S
C1163 C1172 1.429 . S
C1164 C1162 1.419 . S
C1164 C1165 1.363 . S
C1164 H1167 0.929 . S
C1165 C1164 1.363 . S
C1165 C1171 1.428 . S
H1166 C1162 0.930 . S
H1167 C1164 0.929 . S
S1168 N1169 1.613 . S
S1168 N1170 1.610 . S
N1169 S1168 1.613 . S
N1169 C1172 1.350 . S
N1170 S1168 1.610 . S
N1170 C1171 1.351 . S
C1171 C1165 1.428 . S
C1171 N1170 1.351 . S
C1171 C1172 1.434 . S
C1172 C1163 1.429 . S
C1172 N1169 1.350 . S
C1172 C1171 1.434 . S
C1173 C1174 1.369 . S
C1173 C1175 1.419 . S
C1173 H1177 0.930 . S
C1174 C1173 1.369 . S
C1174 C1183 1.429 . S
C1175 C1173 1.419 . S
C1175 C1176 1.363 . S
C1175 H1178 0.929 . S
C1176 C1175 1.363 . S
C1176 C1182 1.428 . S
H1177 C1173 0.930 . S
H1178 C1175 0.929 . S
S1179 N1180 1.613 . S
S1179 N1181 1.610 . S
N1180 S1179 1.613 . S
N1180 C1183 1.350 . S
N1181 S1179 1.610 . S
N1181 C1182 1.351 . S
C1182 C1176 1.428 . S
C1182 N1181 1.351 . S
C1182 C1183 1.434 . S
C1183 C1174 1.429 . S
C1183 N1180 1.350 . S
C1183 C1182 1.434 . S
C1184 C1185 1.369 . S
C1184 C1186 1.419 . S
C1184 H1188 0.930 . S
C1185 C1184 1.369 . S
C1185 C1194 1.429 . S
C1186 C1184 1.419 . S
C1186 C1187 1.363 . S
C1186 H1189 0.929 . S
C1187 C1186 1.363 . S
C1187 C1193 1.428 . S
H1188 C1184 0.930 . S
H1189 C1186 0.929 . S
S1190 N1191 1.613 1_556 S
S1190 N1192 1.610 1_556 S
N1191 S1190 1.613 1_554 S
N1191 C1194 1.350 . S
N1192 S1190 1.610 1_554 S
N1192 C1193 1.351 . S
C1193 C1187 1.428 . S
C1193 N1192 1.351 . S
C1193 C1194 1.434 . S
C1194 C1185 1.429 . S
C1194 N1191 1.350 . S
C1194 C1193 1.434 . S
C1195 C1196 1.369 . S
C1195 C1197 1.419 . S
C1195 H1199 0.930 . S
C1196 C1195 1.369 . S
C1196 C1205 1.429 . S
C1197 C1195 1.419 . S
C1197 C1198 1.363 . S
C1197 H1200 0.929 . S
C1198 C1197 1.363 . S
C1198 C1204 1.428 . S
H1199 C1195 0.930 . S
H1200 C1197 0.929 . S
S1201 N1202 1.613 . S
S1201 N1203 1.610 . S
N1202 S1201 1.613 . S
N1202 C1205 1.350 . S
N1203 S1201 1.610 . S
N1203 C1204 1.351 . S
C1204 C1198 1.428 . S
C1204 N1203 1.351 . S
C1204 C1205 1.434 . S
C1205 C1196 1.429 . S
C1205 N1202 1.350 . S
C1205 C1204 1.434 . S
C1206 C1207 1.369 . S
C1206 C1208 1.419 . S
C1206 H1210 0.930 . S
C1207 C1206 1.369 . S
C1207 C1216 1.429 . S
C1208 C1206 1.419 . S
C1208 C1209 1.363 . S
C1208 H1211 0.929 . S
C1209 C1208 1.363 . S
C1209 C1215 1.428 . S
H1210 C1206 0.930 . S
H1211 C1208 0.929 . S
S1212 N1213 1.613 . S
S1212 N1214 1.610 . S
N1213 S1212 1.613 . S
N1213 C1216 1.350 . S
N1214 S1212 1.610 . S
N1214 C1215 1.351 . S
C1215 C1209 1.428 . S
C1215 N1214 1.351 . S
C1215 C1216 1.434 . S
C1216 C1207 1.429 . S
C1216 N1213 1.350 . S
C1216 C1215 1.434 . S
C1217 C1218 1.369 . S
C1217 C1219 1.419 . S
C1217 H1221 0.930 . S
C1218 C1217 1.369 . S
C1218 C1227 1.429 . S
C1219 C1217 1.419 . S
C1219 C1220 1.363 . S
C1219 H1222 0.929 . S
C1220 C1219 1.363 . S
C1220 C1226 1.428 . S
H1221 C1217 0.930 . S
H1222 C1219 0.929 . S
S1223 N1224 1.613 . S
S1223 N1225 1.610 . S
N1224 S1223 1.613 . S
N1224 C1227 1.350 . S
N1225 S1223 1.610 . S
N1225 C1226 1.351 . S
C1226 C1220 1.428 . S
C1226 N1225 1.351 . S
C1226 C1227 1.434 . S
C1227 C1218 1.429 . S
C1227 N1224 1.350 . S
C1227 C1226 1.434 . S
C1228 C1229 1.369 . S
C1228 C1230 1.419 . S
C1228 H1232 0.930 . S
C1229 C1228 1.369 . S
C1229 C1238 1.429 . S
C1230 C1228 1.419 . S
C1230 C1231 1.363 . S
C1230 H1233 0.929 . S
C1231 C1230 1.363 . S
C1231 C1237 1.428 . S
H1232 C1228 0.930 . S
H1233 C1230 0.929 . S
S1234 N1235 1.613 . S
S1234 N1236 1.610 . S
N1235 S1234 1.613 . S
N1235 C1238 1.350 . S
N1236 S1234 1.610 . S
N1236 C1237 1.351 . S
C1237 C1231 1.428 . S
C1237 N1236 1.351 . S
C1237 C1238 1.434 . S
C1238 C1229 1.429 . S
C1238 N1235 1.350 . S
C1238 C1237 1.434 . S
C1239 C1240 1.369 . S
C1239 C1241 1.419 . S
C1239 H1243 0.930 . S
C1240 C1239 1.369 . S
C1240 C1249 1.429 . S
C1241 C1239 1.419 . S
C1241 C1242 1.363 . S
C1241 H1244 0.929 . S
C1242 C1241 1.363 . S
C1242 C1248 1.428 . S
H1243 C1239 0.930 . S
H1244 C1241 0.929 . S
S1245 N1246 1.613 . S
S1245 N1247 1.610 . S
N1246 S1245 1.613 . S
N1246 C1249 1.350 . S
N1247 S1245 1.610 . S
N1247 C1248 1.351 . S
C1248 C1242 1.428 . S
C1248 N1247 1.351 . S
C1248 C1249 1.434 . S
C1249 C1240 1.429 . S
C1249 N1246 1.350 . S
C1249 C1248 1.434 . S
C1250 C1251 1.369 . S
C1250 C1252 1.419 . S
C1250 H1254 0.930 . S
C1251 C1250 1.369 . S
C1251 C1260 1.429 . S
C1252 C1250 1.419 . S
C1252 C1253 1.363 . S
C1252 H1255 0.929 . S
C1253 C1252 1.363 . S
C1253 C1259 1.428 . S
H1254 C1250 0.930 . S
H1255 C1252 0.929 . S
S1256 N1257 1.613 . S
S1256 N1258 1.610 . S
N1257 S1256 1.613 . S
N1257 C1260 1.350 . S
N1258 S1256 1.610 . S
N1258 C1259 1.351 . S
C1259 C1253 1.428 . S
C1259 N1258 1.351 . S
C1259 C1260 1.434 . S
C1260 C1251 1.429 . S
C1260 N1257 1.350 . S
C1260 C1259 1.434 . S
C1261 C1262 1.369 . S
C1261 C1263 1.419 . S
C1261 H1265 0.930 . S
C1262 C1261 1.369 . S
C1262 C1271 1.429 . S
C1263 C1261 1.419 . S
C1263 C1264 1.363 . S
C1263 H1266 0.929 . S
C1264 C1263 1.363 . S
C1264 C1270 1.428 . S
H1265 C1261 0.930 . S
H1266 C1263 0.929 . S
S1267 N1268 1.613 . S
S1267 N1269 1.610 . S
N1268 S1267 1.613 . S
N1268 C1271 1.350 . S
N1269 S1267 1.610 . S
N1269 C1270 1.351 . S
C1270 C1264 1.428 . S
C1270 N1269 1.351 . S
C1270 C1271 1.434 . S
C1271 C1262 1.429 . S
C1271 N1268 1.350 . S
C1271 C1270 1.434 . S
C481 C5 0.729 . S
C483 C145 0.730 . S
C492 C22 1.385 . S
C494 C85 1.306 . S
C503 C45 1.599 . S
C505 C102 1.660 . S
C514 C62 2.309 . S
C516 C122 2.359 . S
C525 C2 2.376 . S
C527 C162 2.427 . S
C536 C185 0.956 . S
C538 C25 0.897 . S
C547 C202 2.435 . S
C549 C42 2.450 . S
C558 C65 0.678 . S
C560 C225 0.721 . S
C569 C82 2.324 . S
C571 C182 2.264 . S
C580 C205 0.703 . S
C582 C105 0.721 . S
C591 C125 1.504 . S
C593 C222 1.605 . S
C602 C142 1.499 . S
C604 C165 1.472 . S
C613 C245 0.908 . S
C615 C425 0.951 . S
C624 C262 2.444 . S
C626 C442 2.426 . S
C635 C285 0.577 . S
C637 C465 0.660 . S
C646 C462 1.563 . S
C648 C305 1.468 . S
C657 C422 2.363 . S
C659 C322 2.440 . S
C668 C345 0.747 . S
C670 C385 0.726 . S
C679 C242 1.350 . S
C681 C325 1.265 . S
C690 C362 1.669 . S
C692 C265 1.600 . S
C701 C302 2.415 . S
C703 C282 2.379 . S
C712 C405 1.438 . S
C714 C342 1.534 . S
C723 C365 0.757 . S
C725 C445 0.739 . S
C734 C382 2.431 . S
C736 C402 2.479 . S
C745 C97 1.994 . S
C747 C17 2.016 . S
C756 C113 2.010 . S
C758 C33 2.017 . S
C767 C57 2.618 . S
C769 C133 2.585 . S
C778 C73 1.883 . S
C780 C157 2.034 . S
C789 C233 2.517 . S
C791 C173 2.571 . S
C800 C177 2.133 . S
C802 C197 2.149 . S
C811 C193 2.128 . S
C813 C213 2.170 . S
C822 C237 1.874 . S
C824 C217 1.805 . S
C833 C377 1.955 1_455 S
C835 C153 1.788 1_556 S
C844 C77 1.928 . S
C846 C257 1.910 1_556 S
C855 C13 2.607 1_655 S
C857 C273 2.625 . S
C866 C37 1.720 . S
C868 C297 1.724 . S
C877 C393 1.801 . S
C879 C117 1.942 . S
C888 C93 2.456 . S
C890 C317 2.461 . S
C899 C137 2.596 . S
C901 C333 2.580 . S
C910 C337 1.787 . S
C912 C357 1.867 . S
C921 C373 2.091 . S
C923 C253 2.124 . S
C932 C277 2.584 . S
C934 C313 2.547 . S
C943 C397 2.139 . S
C945 C293 2.046 . S
C954 C417 2.143 . S
C956 C473 2.069 . S
C965 C413 2.556 . S
C967 C437 2.608 . S
C976 C453 2.279 . S
C978 C433 2.227 . S
C987 C477 1.783 . S
C989 C457 1.696 . S
C998 C353 2.543 . S
C1000 C53 2.573 . S
C1009 C14 1.995 . S
C1011 C194 2.014 . S
C1020 C28 1.907 . S
C1022 C208 1.912 . S
C1031 C54 2.239 . S
C1033 C234 2.212 . S
C1042 C168 1.535 . S
C1044 C68 1.617 . S
C1053 C94 1.806 . S
C1055 C174 1.814 . S
C1064 C188 1.900 . S
C1066 C108 1.933 . S
C1075 C214 1.928 . S
C1077 C128 1.812 . S
C1086 C154 2.230 . S
C1088 C228 2.000 . S
C1097 C148 1.836 . S
C1099 C268 1.779 . S
C1108 C134 1.982 . S
C1110 C254 1.957 . S
C1119 C88 1.661 . S
C1121 C294 1.786 . S
C1130 C374 2.407 . S
C1132 C8 2.193 . S
C1141 C348 2.169 . S
C1143 C114 2.398 . S
C1152 C34 2.097 . S
C1154 C314 2.123 . S
C1163 C74 1.599 . S
C1165 C328 1.473 . S
C1174 C434 2.245 . S
C1176 C354 2.199 . S
C1185 C448 1.901 . S
C1187 C248 1.888 . S
C1196 C474 2.174 . S
C1198 C274 2.216 . S
C1207 C414 1.738 . S
C1209 C288 1.629 . S
C1218 C408 1.669 . S
C1220 C334 1.738 . S
C1229 C368 1.947 . S
C1231 C428 1.925 . S
C1240 C454 1.951 . S
C1242 C308 1.849 . S
C1251 C394 1.901 . S
C1253 C468 1.707 . S
C1262 C48 1.771 . S
C1264 C388 1.822 . S
