# Generated by pormake.
# Topology upc, (4)-cn, num edge types: 1
# Building blocks:
#     Node 0, Type 0, BuildingBlock: ESEHIV_clean_sbu_0, # of connection points: 4
#     Node 1, Type 0, BuildingBlock: ESEHIV_clean_sbu_0, # of connection points: 4
#     Node 2, Type 0, BuildingBlock: ESEHIV_clean_sbu_0, # of connection points: 4
#     Node 3, Type 0, BuildingBlock: ESEHIV_clean_sbu_0, # of connection points: 4
#     Node 4, Type 0, BuildingBlock: ESEHIV_clean_sbu_0, # of connection points: 4
#     Node 5, Type 0, BuildingBlock: ESEHIV_clean_sbu_0, # of connection points: 4
#     Node 6, Type 0, BuildingBlock: ESEHIV_clean_sbu_0, # of connection points: 4
#     Node 7, Type 0, BuildingBlock: ESEHIV_clean_sbu_0, # of connection points: 4
#     Node 8, Type 0, BuildingBlock: ESEHIV_clean_sbu_0, # of connection points: 4
#     Node 9, Type 0, BuildingBlock: ESEHIV_clean_sbu_0, # of connection points: 4
#     Node 10, Type 0, BuildingBlock: ESEHIV_clean_sbu_0, # of connection points: 4
#     Node 11, Type 0, BuildingBlock: ESEHIV_clean_sbu_0, # of connection points: 4
#     Node 12, Type 0, BuildingBlock: ESEHIV_clean_sbu_0, # of connection points: 4
#     Node 13, Type 0, BuildingBlock: ESEHIV_clean_sbu_0, # of connection points: 4
#     Node 14, Type 0, BuildingBlock: ESEHIV_clean_sbu_0, # of connection points: 4
#     Node 15, Type 0, BuildingBlock: ESEHIV_clean_sbu_0, # of connection points: 4
#     Edge 16, Type (0, 0), BuildingBlock: EZIPEK_clean_linker_0, # of connection points: 2
#     Edge 17, Type (0, 0), BuildingBlock: EZIPEK_clean_linker_0, # of connection points: 2
#     Edge 18, Type (0, 0), BuildingBlock: EZIPEK_clean_linker_0, # of connection points: 2
#     Edge 19, Type (0, 0), BuildingBlock: EZIPEK_clean_linker_0, # of connection points: 2
#     Edge 20, Type (0, 0), BuildingBlock: EZIPEK_clean_linker_0, # of connection points: 2
#     Edge 21, Type (0, 0), BuildingBlock: EZIPEK_clean_linker_0, # of connection points: 2
#     Edge 22, Type (0, 0), BuildingBlock: EZIPEK_clean_linker_0, # of connection points: 2
#     Edge 23, Type (0, 0), BuildingBlock: EZIPEK_clean_linker_0, # of connection points: 2
#     Edge 24, Type (0, 0), BuildingBlock: EZIPEK_clean_linker_0, # of connection points: 2
#     Edge 25, Type (0, 0), BuildingBlock: EZIPEK_clean_linker_0, # of connection points: 2
#     Edge 26, Type (0, 0), BuildingBlock: EZIPEK_clean_linker_0, # of connection points: 2
#     Edge 27, Type (0, 0), BuildingBlock: EZIPEK_clean_linker_0, # of connection points: 2
#     Edge 28, Type (0, 0), BuildingBlock: EZIPEK_clean_linker_0, # of connection points: 2
#     Edge 29, Type (0, 0), BuildingBlock: EZIPEK_clean_linker_0, # of connection points: 2
#     Edge 30, Type (0, 0), BuildingBlock: EZIPEK_clean_linker_0, # of connection points: 2
#     Edge 31, Type (0, 0), BuildingBlock: EZIPEK_clean_linker_0, # of connection points: 2
#     Edge 32, Type (0, 0), BuildingBlock: EZIPEK_clean_linker_0, # of connection points: 2
#     Edge 33, Type (0, 0), BuildingBlock: EZIPEK_clean_linker_0, # of connection points: 2
#     Edge 34, Type (0, 0), BuildingBlock: EZIPEK_clean_linker_0, # of connection points: 2
#     Edge 35, Type (0, 0), BuildingBlock: EZIPEK_clean_linker_0, # of connection points: 2
#     Edge 36, Type (0, 0), BuildingBlock: EZIPEK_clean_linker_0, # of connection points: 2
#     Edge 37, Type (0, 0), BuildingBlock: EZIPEK_clean_linker_0, # of connection points: 2
#     Edge 38, Type (0, 0), BuildingBlock: EZIPEK_clean_linker_0, # of connection points: 2
#     Edge 39, Type (0, 0), BuildingBlock: EZIPEK_clean_linker_0, # of connection points: 2
#     Edge 40, Type (0, 0), BuildingBlock: EZIPEK_clean_linker_0, # of connection points: 2
#     Edge 41, Type (0, 0), BuildingBlock: EZIPEK_clean_linker_0, # of connection points: 2
#     Edge 42, Type (0, 0), BuildingBlock: EZIPEK_clean_linker_0, # of connection points: 2
#     Edge 43, Type (0, 0), BuildingBlock: EZIPEK_clean_linker_0, # of connection points: 2
#     Edge 44, Type (0, 0), BuildingBlock: EZIPEK_clean_linker_0, # of connection points: 2
#     Edge 45, Type (0, 0), BuildingBlock: EZIPEK_clean_linker_0, # of connection points: 2
#     Edge 46, Type (0, 0), BuildingBlock: EZIPEK_clean_linker_0, # of connection points: 2
#     Edge 47, Type (0, 0), BuildingBlock: EZIPEK_clean_linker_0, # of connection points: 2
# Relax obj value: 0.174
# Max RMSD: 0.226
# Mean RMSD: 0.192
data_MOF--net-upc--node1-ESEHIV_clean_sbu_0--edge1-EZIPEK_clean_linker_0
_symmetry_space_group_name_H-M    P1
_symmetry_Int_Tables_number       1
_symmetry_cell_setting            triclinic
loop_
_symmetry_equiv_pos_as_xyz
'x, y, z'
_cell_length_a     24.889418
_cell_length_b     30.34433
_cell_length_c     33.988747
_cell_angle_alpha  89.91885
_cell_angle_beta   89.693562
_cell_angle_gamma 89.709916
loop_
_atom_site_label
_atom_site_type_symbol
_atom_site_fract_x
_atom_site_fract_y
_atom_site_fract_z
_atom_type_partial_charge
Cu0 Cu 0.13612 0.64424 0.17871 0.0
N1 N 0.07067 0.67446 0.17729 0.0
N2 N 1.00376 0.71949 0.19426 0.0
C3 C 0.05409 0.70608 0.20215 0.0
C4 C 0.98699 0.69517 0.16371 0.0
C5 C 0.02863 0.66728 0.15321 0.0
O6 O 0.19595 0.68749 0.18482 0.0
C7 C 0.12536 0.59816 0.25451 0.0
O8 O 0.14392 0.63321 0.27236 0.0
H9 H 0.07773 0.71886 0.22599 0.0
H10 H 0.02789 0.64317 0.1299 0.0
N11 N 0.14262 0.61627 0.12984 0.0
N12 N 0.11988 0.57418 0.07877 0.0
C13 C 0.11116 0.58325 0.11709 0.0
C14 C 0.17258 0.62819 0.0985 0.0
C15 C 0.15853 0.6022 0.06681 0.0
C16 C 0.20304 0.71614 0.21198 0.0
O17 O 0.17218 0.716 0.24335 0.0
H18 H 0.08018 0.56798 0.13488 0.0
H19 H 0.20063 0.6553 0.09821 0.0
O20 O 0.12514 0.59665 0.21708 0.0
H21 H 0.9479 0.69766 0.15006 0.0
H22 H 0.17354 0.605 0.03696 0.0
Cu23 Cu 0.91168 0.15535 0.13233 0.0
N24 N 0.8662 0.10879 0.14551 0.0
N25 N 0.82149 0.06288 0.18473 0.0
C26 C 0.84091 0.10383 0.18021 0.0
C27 C 0.83435 1.0409 0.1516 0.0
C28 C 0.86184 0.06957 0.1272 0.0
O29 O 0.87583 0.21313 0.14011 0.0
C30 C 0.9809 0.1293 0.19585 0.0
O31 O 0.93907 0.13511 0.2189 0.0
H32 H 0.83947 0.1289 0.20281 0.0
H33 H 0.88085 0.06143 0.09944 0.0
N34 N 0.92874 0.15041 0.07916 0.0
N35 N 0.97003 0.1286 0.02425 0.0
C36 C 0.96911 0.12619 0.0638 0.0
C37 C 0.90345 0.16883 0.04825 0.0
C38 C 0.92891 0.15527 0.01413 0.0
C39 C 0.82455 0.21703 0.14087 0.0
O40 O 0.79489 0.18141 0.14041 0.0
H41 H 0.99668 0.10656 0.0811 0.0
H42 H 0.86864 0.19016 0.0504 0.0
O43 O 0.97924 0.14339 0.16048 0.0
H44 H 0.82715 1.00623 0.14652 0.0
H45 H 0.91772 0.1636 0.98428 0.0
Cu46 Cu 0.41814 0.93681 0.18433 0.0
N47 N 0.48101 0.904 0.18547 0.0
N48 N 0.54154 0.85736 0.20935 0.0
C49 C 0.49104 0.87282 0.21233 0.0
C50 C 0.56501 0.87995 0.17985 0.0
C51 C 0.52716 0.90896 0.16498 0.0
O52 O 0.35894 0.89632 0.19921 0.0
C53 C 0.42625 0.98781 0.25676 0.0
O54 O 0.39865 0.95692 0.27475 0.0
H55 H 0.46239 0.86267 0.23461 0.0
H56 H 0.53346 0.93298 0.14193 0.0
N57 N 0.41208 0.96098 0.13407 0.0
N58 N 0.43621 1.00142 0.08209 0.0
C59 C 0.44474 0.99281 0.12041 0.0
C60 C 0.38144 0.9492 0.1033 0.0
C61 C 0.39644 0.97419 0.07097 0.0
C62 C 0.35349 0.85978 0.18078 0.0
O63 O 0.38527 0.85156 0.15065 0.0
H64 H 0.47588 1.00802 0.1378 0.0
H65 H 0.35172 0.92333 0.10394 0.0
O66 O 0.43311 0.98591 0.2197 0.0
H67 H 0.60646 0.87641 0.17055 0.0
H68 H 0.38077 0.97162 0.04142 0.0
Cu69 Cu 0.62954 0.45051 0.1257 0.0
N70 N 0.67506 0.49376 0.14526 0.0
N71 N 0.72323 0.53116 0.18877 0.0
C72 C 0.70027 0.49237 0.18008 0.0
C73 C 0.71234 0.55828 0.15842 0.0
C74 C 0.68266 0.5349 0.13135 0.0
O75 O 0.66193 0.39182 0.13428 0.0
C76 C 0.55534 0.46349 0.18865 0.0
O77 O 0.59583 0.45157 0.21086 0.0
H78 H 0.69979 0.46416 0.19959 0.0
H79 H 0.66534 0.54764 0.1045 0.0
N80 N 0.61962 0.46097 0.07214 0.0
N81 N 0.58625 0.4898 0.01703 0.0
C82 C 0.57972 0.48514 0.0562 0.0
C83 C 0.65241 0.45005 0.04201 0.0
C84 C 0.63185 0.46794 0.00782 0.0
C85 C 0.71283 0.38629 0.13161 0.0
O86 O 0.74356 0.42008 0.1232 0.0
H87 H 0.54774 0.50046 0.0731 0.0
H88 H 0.68952 0.43167 0.04491 0.0
O89 O 0.56003 0.46081 0.15142 0.0
H90 H 0.72324 0.59273 0.15679 0.0
H91 H 0.64965 0.46619 0.97873 0.0
Cu92 Cu 0.10054 0.93408 0.33527 0.0
N93 N 0.03772 0.90517 0.32119 0.0
N94 N 0.98118 0.85957 0.29176 0.0
C95 C 0.03294 0.86903 0.29884 0.0
C96 C 0.95172 0.8907 0.31009 0.0
C97 C 0.98696 0.91897 0.32835 0.0
O98 O 0.16233 0.89187 0.33594 0.0
C99 C 0.1088 0.98961 0.26526 0.0
O100 O 0.12924 0.95587 0.24612 0.0
H101 H 0.06642 0.85062 0.28683 0.0
H102 H 0.97638 0.94841 0.34456 0.0
N103 N 0.08785 0.95492 0.38606 0.0
N104 N 0.04846 0.99366 0.43396 0.0
C105 C 0.0575 0.99046 0.39497 0.0
C106 C 0.0985 0.93512 0.42065 0.0
C107 C 0.07412 0.95909 0.45041 0.0
C108 C 0.18063 0.86802 0.30777 0.0
O109 O 0.16158 0.87297 0.27214 0.0
H110 H 0.03986 1.01212 0.37318 0.0
H111 H 0.1202 0.90435 0.42378 0.0
O112 O 0.102 0.9871 0.30232 0.0
H113 H 0.90837 0.8935 0.30912 0.0
H114 H 0.0734 0.95092 0.48142 0.0
Cu115 Cu 0.64014 0.14289 0.38863 0.0
N116 N 0.68801 0.09818 0.37475 0.0
N117 N 0.73721 0.05651 0.3345 0.0
C118 C 0.71599 0.0967 0.34095 0.0
C119 C 0.72283 1.03155 0.36557 0.0
C120 C 0.69248 0.0576 0.39064 0.0
O121 O 0.67192 0.20067 0.3758 0.0
C122 C 0.56983 0.11445 0.32735 0.0
O123 O 0.61173 0.11895 0.30416 0.0
H124 H 0.71699 0.12343 0.31983 0.0
H125 H 0.67162 0.04681 0.41691 0.0
N126 N 0.62743 0.1391 0.44261 0.0
N127 N 0.59235 0.11725 0.49977 0.0
C128 C 0.58969 0.11419 0.4603 0.0
C129 C 0.65485 0.15835 0.47196 0.0
C130 C 0.63315 0.14485 0.50741 0.0
C131 C 0.72172 0.20753 0.38262 0.0
O132 O 0.75125 0.17547 0.39708 0.0
H133 H 0.56166 0.09352 0.44467 0.0
H134 H 0.68884 0.17994 0.46788 0.0
O135 O 0.57209 0.12838 0.3627 0.0
H136 H 0.73045 0.99654 0.36843 0.0
H137 H 0.64664 0.15379 0.53652 0.0
Cu138 Cu 0.40034 0.64872 0.33378 0.0
N139 N 0.46291 0.68213 0.33628 0.0
N140 N 0.52714 0.72806 0.3167 0.0
C141 C 0.47919 0.71021 0.30821 0.0
C142 C 0.54248 0.71014 0.35112 0.0
C143 C 0.5023 0.68204 0.36343 0.0
O144 O 0.33895 0.68989 0.32561 0.0
C145 C 0.42022 0.56832 0.29001 0.0
O146 O 0.41053 0.54741 0.32307 0.0
H147 H 0.45649 0.71721 0.28181 0.0
H148 H 0.50221 0.66299 0.39028 0.0
N149 N 0.39673 0.61529 0.38031 0.0
N150 N 0.42419 0.56958 0.42784 0.0
C151 C 0.43752 0.59051 0.39431 0.0
C152 C 0.35613 0.60999 0.40626 0.0
C153 C 0.37306 0.58164 0.43578 0.0
C154 C 0.33807 0.72872 0.34038 0.0
O155 O 0.37712 0.74069 0.36383 0.0
H156 H 0.47613 0.58718 0.37977 0.0
H157 H 0.31706 0.62549 0.40382 0.0
O158 O 0.41178 0.60985 0.28802 0.0
H159 H 0.57961 0.71721 0.36624 0.0
H160 H 0.34983 0.57067 0.46093 0.0
Cu161 Cu 0.91814 0.43756 0.38828 0.0
N162 N 0.87134 0.48317 0.37466 0.0
N163 N 0.82151 0.52528 0.33548 0.0
C164 C 0.84533 0.48586 0.34026 0.0
C165 C 0.83247 0.5487 0.36806 0.0
C166 C 0.86321 0.52235 0.39248 0.0
O167 O 0.88448 0.38015 0.37582 0.0
C168 C 0.98989 0.46535 0.32683 0.0
O169 O 0.94904 0.45878 0.30339 0.0
H170 H 0.84573 0.46006 0.31828 0.0
H171 H 0.88088 0.53192 0.42016 0.0
N172 N 0.92945 0.43865 0.44254 0.0
N173 N 0.95743 0.45813 0.50218 0.0
C174 C 0.95627 0.46891 0.46367 0.0
C175 C 0.91362 0.40781 0.46862 0.0
C176 C 0.93068 0.41986 0.50557 0.0
C177 C 0.83339 0.37608 0.37914 0.0
O178 O 0.80428 0.41115 0.38723 0.0
H179 H 0.97472 0.49801 0.45117 0.0
H180 H 0.89192 0.37824 0.46117 0.0
O181 O 0.98685 0.45263 0.36259 0.0
H182 H 0.82094 0.5827 0.37298 0.0
H183 H 0.92454 0.40186 0.53273 0.0
Cu184 Cu 0.9108 0.4035 0.89923 0.0
N185 N 0.9609 0.37267 0.86946 0.0
N186 N 0.98874 0.33767 0.81556 0.0
C187 C 0.9463 0.34905 0.83795 0.0
C188 C 0.03216 0.35462 0.83351 0.0
C189 C 1.01473 0.3764 0.86704 0.0
O190 O 0.85277 0.36152 0.90699 0.0
C191 C 0.88458 0.49301 0.87774 0.0
O192 O 0.87353 0.50067 0.91495 0.0
H193 H 0.90491 0.34346 0.82977 0.0
H194 H 0.03895 0.3962 0.88648 0.0
N195 N 0.93929 0.42108 0.94758 0.0
N196 N 0.98605 0.4568 0.99335 0.0
C197 C 0.97974 0.44948 0.95446 0.0
C198 C 0.9198 0.41014 0.98329 0.0
C199 C 0.94857 0.43219 0.01163 0.0
C200 C 0.81086 0.35767 0.88601 0.0
O201 O 0.79812 0.38887 0.86089 0.0
H202 H 1.00299 0.46537 0.93154 0.0
H203 H 0.886 0.38852 0.98827 0.0
O204 O 0.89464 0.454 0.86628 0.0
H205 H 0.07271 0.35378 0.82185 0.0
H206 H 0.94177 0.43117 0.0431 0.0
Cu207 Cu 0.11374 0.97434 0.85057 0.0
N208 N 0.05706 0.95785 0.81872 0.0
N209 N 0.9936 0.97291 0.77466 0.0
C210 C 0.02295 0.98835 0.80464 0.0
C211 C 1.00952 0.93073 0.76953 0.0
C212 C 0.04903 0.92144 0.79695 0.0
O213 O 0.08146 1.00945 0.89197 0.0
C214 C 0.20909 1.00787 0.81612 0.0
O215 O 0.23401 0.99144 0.84678 0.0
H216 H 0.02359 1.02261 0.81352 0.0
H217 H 0.07339 0.89187 0.79844 0.0
N218 N 0.15269 0.92622 0.87081 0.0
N219 N 0.21301 0.8716 0.87653 0.0
C220 C 0.1839 0.89668 0.85141 0.0
C221 C 0.16223 0.91903 0.90925 0.0
C222 C 0.19923 0.88543 0.91286 0.0
C223 C 0.1059 1.0325 0.91729 0.0
O224 O 0.15865 1.03365 0.91739 0.0
H225 H 0.18735 0.89506 0.8197 0.0
H226 H 0.14549 0.93837 0.93301 0.0
O227 O 0.15818 1.00909 0.81571 0.0
H228 H 0.99697 0.90965 0.74565 0.0
H229 H 0.21616 0.87298 0.94 0.0
Cu230 Cu 0.65734 0.15221 0.89921 0.0
N231 N 0.63672 0.20294 0.87205 0.0
N232 N 0.61936 0.24726 0.82123 0.0
C233 C 0.64973 0.21367 0.83474 0.0
C234 C 0.58647 0.25863 0.85118 0.0
C235 C 0.59724 0.23116 0.88251 0.0
O236 O 0.73436 0.14791 0.90812 0.0
C237 C 0.65427 0.09051 0.8356 0.0
O238 O 0.69496 0.1124 0.8207 0.0
H239 H 0.67834 0.19564 0.8169 0.0
H240 H 0.5756 0.23016 0.91016 0.0
N241 N 0.61987 0.14797 0.94686 0.0
N242 N 0.56735 0.11975 0.99388 0.0
C243 C 0.59018 0.11318 0.95831 0.0
C244 C 0.61533 0.17762 0.97618 0.0
C245 C 0.583 0.16016 1.0054 0.0
C246 C 0.77178 0.17646 0.90724 0.0
O247 O 0.82115 0.16342 0.91441 0.0
H248 H 0.58538 0.08356 0.94099 0.0
H249 H 0.63356 0.20987 0.97609 0.0
O250 O 0.63471 0.1017 0.86876 0.0
H251 H 0.55557 0.28381 0.84984 0.0
H252 H 0.57159 0.17584 0.0328 0.0
Cu253 Cu 0.44529 0.62685 0.83095 0.0
N254 N 0.49962 0.62649 0.79323 0.0
N255 N 0.55872 0.59923 0.75015 0.0
C256 C 0.5236 0.5899 0.77921 0.0
C257 C 0.557 0.64335 0.74556 0.0
C258 C 0.52041 0.6602 0.77242 0.0
O259 O 0.46896 0.5885 0.87351 0.0
C260 C 0.368 0.56808 0.79548 0.0
O261 O 0.39939 0.53453 0.80404 0.0
H262 H 0.51399 0.5569 0.78904 0.0
H263 H 0.50858 0.69435 0.77575 0.0
N264 N 0.42999 0.68419 0.84768 0.0
N265 N 0.38217 0.74533 0.85922 0.0
C266 C 0.38267 0.70513 0.8424 0.0
C267 C 0.46075 0.71238 0.86808 0.0
C268 C 0.43116 0.7502 0.8754 0.0
C269 C 0.46319 0.59633 0.91004 0.0
O270 O 0.43594 0.63114 0.92172 0.0
H271 H 0.34878 0.69086 0.82728 0.0
H272 H 0.50139 0.70559 0.87749 0.0
O273 O 0.38057 0.60682 0.80592 0.0
H274 H 0.57924 0.6617 0.72358 0.0
H275 H 0.44423 0.77883 0.89166 0.0
Cu276 Cu 0.85718 0.15868 0.6193 0.0
N277 N 0.89362 0.20995 0.6331 0.0
N278 N 0.93802 0.25826 0.67002 0.0
C279 C 0.90033 0.22645 0.66949 0.0
C280 C 0.95603 0.26184 0.63271 0.0
C281 C 0.92834 0.23211 0.60995 0.0
O282 O 0.78031 0.15973 0.63107 0.0
C283 C 0.8803 0.10302 0.68486 0.0
O284 O 0.84771 0.12904 0.70471 0.0
H285 H 0.88058 0.21365 0.6955 0.0
H286 H 0.93536 0.22525 0.57913 0.0
N287 N 0.87103 0.1457 0.56656 0.0
N288 N 0.90976 0.11326 0.51481 0.0
C289 C 0.90372 0.11301 0.55417 0.0
C290 C 0.85614 0.16752 0.53379 0.0
C291 C 0.87999 0.14737 0.50161 0.0
C292 C 0.74448 0.18994 0.63124 0.0
O293 O 0.69482 0.17912 0.6399 0.0
H294 H 0.92394 0.09017 0.57368 0.0
H295 H 0.83138 0.19686 0.53344 0.0
O296 O 0.88853 0.11005 0.64846 0.0
H297 H 0.98814 0.28329 0.62305 0.0
H298 H 0.87697 0.15754 0.47116 0.0
Cu299 Cu 0.43545 0.95069 0.66104 0.0
N300 N 0.49309 0.94046 0.69447 0.0
N301 N 0.55281 0.95975 0.73987 0.0
C302 C 0.52357 0.97305 0.70884 0.0
C303 C 0.54079 0.91688 0.74527 0.0
C304 C 0.50375 0.90498 0.71702 0.0
O305 O 0.46128 0.98498 0.61641 0.0
C306 C 0.34707 1.00821 0.68234 0.0
O307 O 0.34488 1.02175 0.64568 0.0
H308 H 0.52033 1.00701 0.6995 0.0
H309 H 0.4826 0.87399 0.71532 0.0
N310 N 0.40405 0.89833 0.64411 0.0
N311 N 0.34381 0.84428 0.63909 0.0
C312 C 0.36423 0.87607 0.66235 0.0
C313 C 0.40928 0.87969 0.60839 0.0
C314 C 0.37217 0.84629 0.60522 0.0
C315 C 0.47114 1.02603 0.61847 0.0
O316 O 0.45944 0.04787 0.65074 0.0
H317 H 0.34847 0.88459 0.69112 0.0
H318 H 0.43632 0.89109 0.58558 0.0
O319 O 0.38261 0.98066 0.69301 0.0
H320 H 0.55427 0.89688 0.76973 0.0
H321 H 0.36509 0.82608 0.57955 0.0
Cu322 Cu 0.66782 0.41059 0.58986 0.0
N323 N 0.63615 0.36286 0.6153 0.0
N324 N 0.61392 0.3202 0.66631 0.0
C325 C 0.65188 0.34597 0.65 0.0
C326 C 0.5725 0.32071 0.6409 0.0
C327 C 0.58643 0.34702 0.60933 0.0
O328 O 0.74566 0.40395 0.58335 0.0
C329 C 0.6662 0.46708 0.6574 0.0
O330 O 0.69927 0.43879 0.67383 0.0
H331 H 0.68826 0.35544 0.66484 0.0
H332 H 0.5606 0.35668 0.58529 0.0
N333 N 0.63398 0.42279 0.54181 0.0
N334 N 0.57733 0.45562 0.49998 0.0
C335 C 0.58697 0.44473 0.53783 0.0
C336 C 0.65471 0.42011 0.50516 0.0
C337 C 0.61963 0.44009 0.47928 0.0
C338 C 0.77868 0.37198 0.58838 0.0
O339 O 0.82996 0.37919 0.58196 0.0
H340 H 0.56207 0.45501 0.5624 0.0
H341 H 0.69419 0.40745 0.49796 0.0
O342 O 0.65182 0.46177 0.6219 0.0
H343 H 0.53402 0.30513 0.6459 0.0
H344 H 0.62613 0.44523 0.44809 0.0
Cu345 Cu 0.07907 0.62123 0.67944 0.0
N346 N 1.01825 0.62623 0.7114 0.0
N347 N 0.95687 0.60849 0.7566 0.0
C348 C 1.00459 0.59793 0.74022 0.0
C349 C 0.93961 0.64489 0.73766 0.0
C350 C 0.97768 0.65572 0.70951 0.0
O351 O 0.05855 0.58884 0.63285 0.0
C352 C 0.18241 0.58856 0.69811 0.0
O353 O 0.19515 0.60247 0.66267 0.0
H354 H 0.02888 0.56985 0.7488 0.0
H355 H 0.9757 0.68281 0.68884 0.0
N356 N 0.10451 0.67677 0.66409 0.0
N357 N 0.16004 0.73334 0.65336 0.0
C358 C 0.14962 0.69751 0.67574 0.0
C359 C 0.08551 0.70084 0.63387 0.0
C360 C 0.11967 0.73572 0.62716 0.0
C361 C 0.05246 0.54729 0.63309 0.0
O362 O 0.06274 0.52465 0.66515 0.0
H363 H 0.17604 0.68532 0.6985 0.0
H364 H 0.05068 0.69227 0.61664 0.0
O365 O 0.13378 0.59059 0.70947 0.0
H366 H 0.90228 0.66211 0.7437 0.0
H367 H 0.11648 0.75991 0.60383 0.0
C368 C 0.29749 0.74683 0.21188 0.0
C369 C 0.24165 0.7535 0.20622 0.0
C370 C 0.25826 0.83251 0.19288 0.0
C371 C 0.31463 0.82467 0.19384 0.0
N372 N 0.38848 0.77401 0.20408 0.0
N373 N 0.16822 0.80188 0.18932 0.0
C374 C 0.3343 0.78166 0.2033 0.0
C375 C 0.22184 0.79629 0.19664 0.0
N376 N 0.31517 0.70761 0.22704 0.0
N377 N 0.23939 0.87455 0.18804 0.0
H378 H 0.14039 0.77646 0.19186 0.0
H379 H 0.15147 0.83068 0.17803 0.0
H380 H 0.26431 0.90145 0.18296 0.0
H381 H 0.19927 0.88355 0.19164 0.0
H382 H 0.35434 0.70204 0.23648 0.0
H383 H 0.28946 0.68142 0.23323 0.0
H384 H 0.40564 0.7427 0.20547 0.0
H385 H 0.41681 0.79907 0.20208 0.0
C386 C 0.76071 0.26949 0.10678 0.0
C387 C 0.79721 0.26112 0.1382 0.0
C388 C 0.77246 0.33266 0.1678 0.0
C389 C 0.73824 0.34179 0.1354 0.0
N390 N 0.70415 0.32182 0.07178 0.0
N391 N 0.84125 0.28604 0.19709 0.0
C392 C 0.73312 0.31077 0.10449 0.0
C393 C 0.80425 0.29323 0.16817 0.0
N394 N 0.75256 0.23798 0.07873 0.0
N395 N 0.77273 0.36102 0.19906 0.0
H396 H 0.86213 0.25642 0.20034 0.0
H397 H 0.85371 0.3102 0.21666 0.0
H398 H 0.74973 0.38984 0.19981 0.0
H399 H 0.79213 0.35463 0.22551 0.0
H400 H 0.72024 0.23842 0.05944 0.0
H401 H 0.77686 0.21014 0.07556 0.0
H402 H 0.70396 0.3034 0.04601 0.0
H403 H 0.68245 0.35115 0.06926 0.0
C404 C 0.27544 0.83735 0.3039 0.0
C405 C 0.22085 0.83202 0.31538 0.0
C406 C 0.24172 0.75738 0.33991 0.0
C407 C 0.29652 0.76245 0.32886 0.0
N408 N 0.36418 0.80448 0.29469 0.0
N409 N 0.15112 0.78561 0.34227 0.0
C410 C 0.31297 0.80182 0.30931 0.0
C411 C 0.20392 0.79165 0.33254 0.0
N412 N 0.29157 0.87698 0.28881 0.0
N413 N 0.22402 0.7203 0.35839 0.0
H414 H 0.12158 0.80951 0.33763 0.0
H415 H 0.13698 0.75637 0.35471 0.0
H416 H 0.24847 0.69347 0.36558 0.0
H417 H 0.24847 0.69347 0.36558 0.0
H418 H 0.33132 0.88523 0.28313 0.0
H419 H 0.26508 0.90313 0.28386 0.0
H420 H 0.37848 0.83037 0.27761 0.0
H421 H 0.39191 0.77877 0.29693 0.0
C422 C 0.81228 0.30201 0.3474 0.0
C423 C 0.80621 0.33202 0.37923 0.0
C424 C 0.73595 0.28441 0.40768 0.0
C425 C 0.74629 0.25215 0.37848 0.0
N426 N 0.79824 0.22788 0.32245 0.0
N427 N 0.77066 0.34609 0.44432 0.0
C428 C 0.78581 0.26024 0.34896 0.0
C429 C 0.7701 0.32174 0.41052 0.0
N430 N 0.84114 0.31412 0.31487 0.0
N431 N 0.69353 0.27949 0.43298 0.0
H432 H 0.79698 0.3721 0.44905 0.0
H433 H 0.74928 0.33738 0.46947 0.0
H434 H 0.66853 0.25206 0.43286 0.0
H435 H 0.67999 0.30463 0.45143 0.0
H436 H 0.84245 0.29566 0.2891 0.0
H437 H 0.8602 0.34451 0.31235 0.0
H438 H 0.83084 0.22956 0.30319 0.0
H439 H 0.77757 0.19808 0.32124 0.0
C440 C 0.78217 0.28627 0.85432 0.0
C441 C 0.78147 0.31495 0.88747 0.0
C442 C 0.75377 0.25335 0.9298 0.0
C443 C 0.76255 0.22375 0.89827 0.0
N444 N 0.7856 0.21076 0.83048 0.0
N445 N 0.75555 0.32644 0.95555 0.0
C446 C 0.77568 0.24001 0.86026 0.0
C447 C 0.76328 0.29888 0.92442 0.0
N448 N 0.78957 0.30293 0.81731 0.0
N449 N 0.73931 0.23781 0.96601 0.0
H450 H 0.76024 0.36058 0.95401 0.0
H451 H 0.76024 0.36058 0.95401 0.0
H452 H 0.7326 0.20445 0.97159 0.0
H453 H 0.73367 0.25853 0.99014 0.0
H454 H 0.78477 0.28451 0.79178 0.0
H455 H 0.79572 0.33616 0.8115 0.0
H456 H 0.8024 0.21936 0.80346 0.0
H457 H 0.77886 0.177 0.83349 0.0
C458 C 0.2901 0.76504 0.88146 0.0
C459 C 0.33781 0.77614 0.86082 0.0
C460 C 0.30248 0.85056 0.84912 0.0
C461 C 0.25341 0.83862 0.86767 0.0
N462 N 0.19609 0.78207 0.89358 0.0
N463 N 0.38468 0.82547 0.81741 0.0
C464 C 0.24591 0.79495 0.88132 0.0
C465 C 0.34248 0.81776 0.84226 0.0
N466 N 0.28807 0.72697 0.90287 0.0
N467 N 0.31214 0.89362 0.84009 0.0
H468 H 0.41397 0.80166 0.81141 0.0
H469 H 0.38777 0.85364 0.80001 0.0
H470 H 0.2845 0.9186 0.84589 0.0
H471 H 0.34923 0.90504 0.83018 0.0
H472 H 0.2563 0.71906 0.92161 0.0
H473 H 0.32044 0.70515 0.90475 0.0
H474 H 0.1866 0.74959 0.90058 0.0
H475 H 0.16295 0.80327 0.89299 0.0
C476 C 0.77872 0.31194 0.6395 0.0
C477 C 0.76261 0.32715 0.60176 0.0
C478 C 0.74093 0.25143 0.58253 0.0
C479 C 0.7557 0.23634 0.62046 0.0
N480 N 0.77641 0.25296 0.68795 0.0
N481 N 0.71553 0.31327 0.54155 0.0
C482 C 0.77111 0.26684 0.64987 0.0
C483 C 0.73972 0.29742 0.57457 0.0
N484 N 0.80035 0.34094 0.66565 0.0
N485 N 0.72925 0.22162 0.55374 0.0
H486 H 0.7141 0.34673 0.5351 0.0
H487 H 0.69239 0.29396 0.52294 0.0
H488 H 0.7304 0.18765 0.55847 0.0
H489 H 0.72363 0.23023 0.52438 0.0
H490 H 0.8173 0.33154 0.69232 0.0
H491 H 0.80282 0.3747 0.66006 0.0
H492 H 0.78132 0.27417 0.71168 0.0
H493 H 0.77265 0.22 0.69629 0.0
C494 C 0.20197 0.80656 0.66044 0.0
C495 C 0.20739 0.76072 0.65365 0.0
C496 C 0.30467 0.76993 0.64554 0.0
C497 C 0.29809 0.81629 0.64674 0.0
N498 N 0.23857 0.87918 0.64863 0.0
N499 N 0.26273 0.69969 0.63254 0.0
C500 C 0.24623 0.83485 0.65272 0.0
C501 C 0.25856 0.74248 0.64453 0.0
N502 N 0.15459 0.82286 0.67482 0.0
N503 N 0.35518 0.75222 0.64595 0.0
H504 H 0.22945 0.67938 0.62925 0.0
H505 H 0.29834 0.68579 0.622 0.0
H506 H 0.38954 0.77168 0.64753 0.0
H507 H 0.36264 0.71854 0.64872 0.0
H508 H 0.14961 0.85541 0.68391 0.0
H509 H 0.12191 0.80261 0.68123 0.0
H510 H 0.20071 0.89398 0.64884 0.0
H511 H 0.26946 0.90068 0.64108 0.0
C512 C 0.02559 0.54255 0.32481 0.0
C513 C 0.03182 0.49757 0.31417 0.0
C514 C 0.10754 0.51802 0.27101 0.0
C515 C 0.0958 0.56344 0.2772 0.0
N516 N 0.03478 0.61824 0.30392 0.0
N517 N 0.0764 0.44228 0.27504 0.0
C518 C 0.05284 0.57561 0.30282 0.0
C519 C 0.07229 0.48523 0.2867 0.0
N520 N 0.99305 0.554 0.35568 0.0
N521 N 0.15315 0.50621 0.25101 0.0
H522 H 0.05307 0.4173 0.28743 0.0
H523 H 0.10066 0.43187 0.25176 0.0
H524 H 0.18024 0.52929 0.23992 0.0
H525 H 0.16668 0.4738 0.24859 0.0
H526 H 0.99129 0.58579 0.36719 0.0
H527 H 0.9721 0.53103 0.37244 0.0
H528 H 0.99984 0.62776 0.31869 0.0
H529 H 0.05072 0.64339 0.28663 0.0
C530 C 1.01943 0.05262 0.19284 0.0
C531 C 0.02232 0.09617 0.20798 0.0
C532 C 0.09175 0.07116 0.25449 0.0
C533 C 0.08239 1.02668 0.24344 0.0
N534 N 0.02664 0.97518 0.20799 0.0
N535 N 0.05908 0.14684 0.25498 0.0
C536 C 0.0439 1.01739 0.21384 0.0
C537 C 0.05804 0.10544 0.2393 0.0
N538 N 0.99224 0.04433 0.15887 0.0
N539 N 0.13362 0.08074 0.27881 0.0
H540 H 0.03721 0.17308 0.24313 0.0
H541 H 0.0793 0.1546 0.28078 0.0
H542 H 0.15951 0.05656 0.28976 0.0
H543 H 0.1457 0.11273 0.28518 0.0
H544 H 0.99398 1.01405 0.14445 0.0
H545 H 0.97231 0.06851 0.14287 0.0
H546 H 0.99426 0.96751 0.19 0.0
H547 H 0.03986 0.94829 0.22441 0.0
C548 C 0.52377 1.04087 0.32951 0.0
C549 C 0.52563 0.08467 0.31466 0.0
C550 C 0.45267 0.06688 0.26881 0.0
C551 C 0.45653 1.02168 0.27956 0.0
N552 N 0.50292 0.96465 0.31604 0.0
N553 N 0.49405 0.13926 0.26872 0.0
C554 C 0.49335 1.00843 0.30926 0.0
C555 C 0.49053 0.09766 0.28394 0.0
N556 N 0.55208 1.02974 0.36246 0.0
N557 N 0.41183 0.08055 0.24493 0.0
H558 H 0.51905 0.16329 0.28057 0.0
H559 H 0.47445 0.14924 0.24321 0.0
H560 H 0.38281 0.05907 0.23415 0.0
H561 H 0.40361 0.11353 0.23884 0.0
H562 H 0.547 1.00004 0.37738 0.0
H563 H 0.57724 0.05142 0.37712 0.0
H564 H 0.53335 0.95315 0.33431 0.0
H565 H 0.48442 0.93934 0.30061 0.0
C566 C 0.52121 0.53745 0.20898 0.0
C567 C 0.51243 0.49154 0.20633 0.0
C568 C 0.43232 0.50027 0.24805 0.0
C569 C 0.44823 0.54403 0.25746 0.0
N570 N 0.51723 0.60009 0.25199 0.0
N571 N 0.46002 0.42815 0.22406 0.0
C572 C 0.49467 0.56194 0.23886 0.0
C573 C 0.46785 0.47259 0.22594 0.0
N574 N 0.55565 0.55775 0.18343 0.0
N575 N 0.38287 0.48554 0.25946 0.0
H576 H 0.48398 0.40755 0.20665 0.0
H577 H 0.4318 0.41166 0.24129 0.0
H578 H 0.35509 0.50561 0.27409 0.0
H579 H 0.36734 0.45528 0.25079 0.0
H580 H 0.55981 0.5919 0.18207 0.0
H581 H 0.57565 0.54088 0.16102 0.0
H582 H 0.55449 0.61094 0.24193 0.0
H583 H 0.50308 0.61785 0.27609 0.0
C584 C 0.95163 0.59081 0.82704 0.0
C585 C 0.93126 0.58561 0.78867 0.0
C586 C 0.86858 0.52954 0.81269 0.0
C587 C 0.89494 0.52968 0.84966 0.0
N588 N 0.9662 0.55786 0.89084 0.0
N589 N 0.87275 0.54914 0.7434 0.0
C590 C 0.93711 0.56018 0.85688 0.0
C591 C 0.88982 0.55509 0.78112 0.0
N592 N 0.98529 0.62512 0.83466 0.0
N593 N 0.82295 0.50528 0.80803 0.0
H594 H 0.88739 0.5678 0.71991 0.0
H595 H 0.84691 0.52401 0.73499 0.0
H596 H 0.80617 0.4868 0.83088 0.0
H597 H 0.79912 0.50667 0.78297 0.0
H598 H 0.99758 0.63367 0.86287 0.0
H599 H 0.9969 0.64755 0.81295 0.0
H600 H 1.00133 0.57558 0.89543 0.0
H601 H 0.95808 0.53578 0.91347 0.0
C602 C 0.90777 1.00428 0.75153 0.0
C603 C 0.96412 1.00035 0.74772 0.0
C604 C 0.96603 0.06334 0.70262 0.0
C605 C 0.90902 0.06644 0.70512 0.0
N606 N 0.8248 1.03371 0.7249 0.0
N607 N 0.04591 1.01903 0.71406 0.0
C608 C 0.87955 1.03509 0.72757 0.0
C609 C 0.99281 1.02757 0.72123 0.0
N610 N 0.88165 0.97941 0.77904 0.0
N611 N 0.99501 0.09593 0.68469 0.0
H612 H 0.06657 0.99329 0.72774 0.0
H613 H 0.0681 1.0347 0.69212 0.0
H614 H 0.97757 0.12335 0.67136 0.0
H615 H 0.03671 0.09797 0.68603 0.0
H616 H 0.84145 0.98405 0.78668 0.0
H617 H 0.90149 0.95576 0.79601 0.0
H618 H 0.80154 1.00906 0.73767 0.0
H619 H 0.80285 0.05483 0.70677 0.0
C620 C 0.57162 0.05548 0.80736 0.0
C621 C 0.62831 0.05492 0.81259 0.0
C622 C 0.6351 0.98987 0.76985 0.0
C623 C 0.57848 0.98886 0.76727 0.0
N624 N 0.49242 1.01328 0.79132 0.0
N625 N 0.71268 1.01579 0.80565 0.0
C626 C 0.54665 1.01933 0.78863 0.0
C627 C 0.65982 1.02045 0.79574 0.0
N628 N 0.54179 0.09159 0.81792 0.0
N629 N 0.66512 0.9625 0.7466 0.0
H630 H 0.73183 1.03653 0.82552 0.0
H631 H 0.73608 0.98883 0.79722 0.0
H632 H 0.64774 0.93943 0.72789 0.0
H633 H 0.70671 0.96484 0.74381 0.0
H634 H 0.50132 0.09525 0.81086 0.0
H635 H 0.55828 0.12003 0.82986 0.0
H636 H 0.46766 1.03198 0.80971 0.0
H637 H 0.47315 0.98656 0.77838 0.0
C638 C 0.58216 0.50376 0.68227 0.0
C639 C 0.63925 0.50149 0.68155 0.0
C640 C 0.64293 0.5627 0.72859 0.0
C641 C 0.5865 0.56765 0.7258 0.0
N642 N 0.50357 0.5493 0.69406 0.0
N643 N 0.72459 0.53304 0.69948 0.0
C644 C 0.55649 0.54007 0.70079 0.0
C645 C 0.66995 0.53209 0.70356 0.0
N646 N 0.55224 0.47009 0.66728 0.0
N647 N 0.67029 0.5863 0.75608 0.0
H648 H 0.74572 0.51171 0.68093 0.0
H649 H 0.74855 0.55736 0.71183 0.0
H650 H 0.6513 0.60894 0.77466 0.0
H651 H 0.71064 0.58093 0.76258 0.0
H652 H 0.51068 0.46823 0.67061 0.0
H653 H 0.5691 0.44152 0.65537 0.0
H654 H 0.48081 0.53292 0.67306 0.0
H655 H 0.48394 0.57628 0.7067 0.0
C656 C 0.9619 0.74647 0.25463 0.0
C657 C 0.97611 0.75392 0.21494 0.0
C658 C 0.96668 0.83331 0.22483 0.0
C659 C 0.96367 0.82562 0.26574 0.0
N660 N 0.94963 0.7749 0.31951 0.0
N661 N 0.98978 0.80355 0.16066 0.0
C662 C 0.9573 0.78249 0.28046 0.0
C663 C 0.97612 0.79716 0.19918 0.0
N664 N 0.9563 0.70447 0.26824 0.0
N665 N 0.9621 0.87543 0.21117 0.0
H666 H 0.99647 0.77747 0.1413 0.0
H667 H 0.99655 0.83438 0.1482 0.0
H668 H 0.95501 0.90186 0.23014 0.0
H669 H 0.96057 0.88368 0.18146 0.0
H670 H 0.94699 0.69752 0.29759 0.0
H671 H 0.95937 0.6772 0.24962 0.0
H672 H 0.94614 0.80008 0.34029 0.0
H673 H 0.94614 0.80008 0.34029 0.0
C674 C 0.83606 1.04007 0.25303 0.0
C675 C 0.80059 0.04564 0.22097 0.0
C676 C 0.72353 1.03844 0.2651 0.0
C677 C 0.75878 0.04225 0.29743 0.0
N678 N 0.84778 0.04332 0.32394 0.0
N679 N 0.71142 0.04762 0.19469 0.0
C680 C 0.81503 1.04094 0.29193 0.0
C681 C 0.74441 0.0429 0.22638 0.0
N682 N 0.88973 1.0351 0.24574 0.0
N683 N 0.67011 1.03168 0.27199 0.0
H684 H 0.72632 0.05025 0.16603 0.0
H685 H 0.66983 0.05061 0.19674 0.0
H686 H 0.6546 1.02842 0.30044 0.0
H687 H 0.64216 1.02583 0.24997 0.0
H688 H 0.9181 1.02835 0.26734 0.0
H689 H 0.90513 1.03433 0.21714 0.0
H690 H 0.88929 0.04684 0.32224 0.0
H691 H 0.83263 0.04316 0.35264 0.0
C692 C 0.55735 0.80433 0.30451 0.0
C693 C 0.55448 0.75973 0.29257 0.0
C694 C 0.56693 0.78088 0.22391 0.0
C695 C 0.56419 0.82546 0.23556 0.0
N696 N 0.57803 0.87952 0.28545 0.0
N697 N 0.57642 0.70467 0.24478 0.0
C698 C 0.56766 0.83691 0.27562 0.0
C699 C 0.56681 0.74784 0.25338 0.0
N700 N 0.5452 0.81593 0.3423 0.0
N701 N 0.56517 0.77038 0.18495 0.0
H702 H 0.57731 0.68084 0.26695 0.0
H703 H 0.58853 0.69358 0.21712 0.0
H704 H 0.566 0.79436 0.16296 0.0
H705 H 0.56085 0.7383 0.17463 0.0
H706 H 0.54052 0.8485 0.35138 0.0
H707 H 0.53685 0.79292 0.36421 0.0
H708 H 0.5859 0.88949 0.31414 0.0
H709 H 0.58411 0.90367 0.26396 0.0
C710 C 0.80438 0.544 0.22827 0.0
C711 C 0.74778 0.54182 0.22565 0.0
C712 C 0.73959 0.53957 0.29736 0.0
C713 C 0.79622 0.53974 0.2999 0.0
N714 N 0.88225 0.55318 0.27034 0.0
N715 N 0.66105 0.54912 0.25607 0.0
C716 C 0.82849 0.54604 0.26599 0.0
C717 C 0.71523 0.54372 0.25988 0.0
N718 N 0.83481 0.54131 0.19481 0.0
N719 N 0.70959 0.53268 0.33052 0.0
H720 H 0.64305 0.55254 0.22861 0.0
H721 H 0.63488 0.55402 0.27967 0.0
H722 H 0.72678 0.53011 0.35836 0.0
H723 H 0.66831 0.52738 0.33035 0.0
H724 H 0.87646 0.53812 0.19473 0.0
H725 H 0.81784 0.53998 0.16686 0.0
H726 H 0.90801 0.56116 0.2472 0.0
H727 H 0.90017 0.55472 0.298 0.0
C728 C 0.98482 0.25508 0.73397 0.0
C729 C 0.95882 0.28012 0.70429 0.0
C730 C 0.96585 0.34618 0.74549 0.0
C731 C 0.98529 0.31953 0.77664 0.0
N732 N 1.01638 0.24939 0.80057 0.0
N733 N 0.92447 0.34959 0.68093 0.0
C734 C 0.99595 0.27437 0.77073 0.0
C735 C 0.95007 0.32599 0.70956 0.0
N736 N 0.9998 0.21248 0.72781 0.0
N737 N 0.96304 0.39079 0.7506 0.0
H738 H 0.91233 0.33566 0.65446 0.0
H739 H 0.91222 0.38222 0.68403 0.0
H740 H 0.97472 0.40598 0.77669 0.0
H741 H 0.95316 0.41306 0.72847 0.0
H742 H 0.9954 0.1963 0.70096 0.0
H743 H 0.9954 0.1963 0.70096 0.0
H744 H 0.02418 0.21572 0.79749 0.0
H745 H 0.0251 0.2625 0.82816 0.0
C746 C 0.32108 0.04247 0.74652 0.0
C747 C 0.30551 1.02058 0.71156 0.0
C748 C 0.22455 0.99335 0.74399 0.0
C749 C 0.23938 1.01577 0.7791 0.0
N750 N 0.29446 0.07017 0.81076 0.0
N751 N 0.23504 0.98745 0.67344 0.0
C752 C 0.2854 0.04315 0.77938 0.0
C753 C 0.25442 1.0007 0.70901 0.0
N754 N 0.37062 0.06151 0.74853 0.0
N755 N 0.18541 0.96182 0.74454 0.0
H756 H 0.25629 0.99122 0.64719 0.0
H757 H 0.19559 0.97703 0.66953 0.0
H758 H 0.16455 0.95233 0.76973 0.0
H759 H 0.17763 0.94128 0.72072 0.0
H760 H 0.38723 0.07327 0.77451 0.0
H761 H 0.39613 0.06389 0.72415 0.0
H762 H 0.32475 0.0937 0.81131 0.0
H763 H 0.26849 0.07185 0.83492 0.0
C764 C 0.63129 0.31013 0.77605 0.0
C765 C 0.61871 0.26519 0.78197 0.0
C766 C 0.60704 0.25591 0.71089 0.0
C767 C 0.61473 0.30168 0.70541 0.0
N768 N 0.62021 0.37407 0.73428 0.0
N769 N 0.58823 0.19604 0.75405 0.0
C770 C 0.62322 0.32937 0.73843 0.0
C771 C 0.60479 0.23839 0.74938 0.0
N772 N 0.6526 0.33402 0.80612 0.0
N773 N 0.60153 0.22869 0.67927 0.0
H774 H 0.58274 0.18084 0.7813 0.0
H775 H 0.58274 0.18084 0.7813 0.0
H776 H 0.60583 0.23958 0.65032 0.0
H777 H 0.5953 0.19485 0.68232 0.0
H778 H 0.66756 0.36578 0.80245 0.0
H779 H 0.6603 0.32039 0.83373 0.0
H780 H 0.62154 0.39577 0.75798 0.0
H781 H 0.61006 0.38921 0.70779 0.0
C782 C 0.27017 0.58265 0.78982 0.0
C783 C 0.31681 0.56239 0.77398 0.0
C784 C 0.26763 0.54729 0.71323 0.0
C785 C 0.22562 0.5758 0.72605 0.0
N786 N 0.19198 0.62673 0.77567 0.0
N787 N 0.36179 0.52804 0.71867 0.0
C788 C 0.22763 0.59466 0.76436 0.0
C789 C 0.31596 0.54474 0.73533 0.0
N790 N 0.26683 0.59078 0.8293 0.0
N791 N 0.26104 0.52216 0.6803 0.0
H792 H 0.39809 0.52547 0.73361 0.0
H793 H 0.36474 0.51973 0.689 0.0
H794 H 0.22549 0.52221 0.66416 0.0
H795 H 0.28842 0.49794 0.67158 0.0
H796 H 0.23178 0.60194 0.84303 0.0
H797 H 0.29723 0.58164 0.84878 0.0
H798 H 0.19598 0.64452 0.80168 0.0
H799 H 0.16186 0.63927 0.7577 0.0
C800 C 0.10492 0.50125 0.04877 0.0
C801 C 0.08818 0.54545 0.05449 0.0
C802 C 1.00622 0.53204 0.01641 0.0
C803 C 0.02202 0.48737 0.01198 0.0
N804 N 0.08436 0.42828 0.02307 0.0
N805 N 0.02555 0.60452 0.04368 0.0
C806 C 0.07112 0.47172 0.02778 0.0
C807 C 0.03958 0.56137 0.038 0.0
N808 N 0.15336 0.48806 0.06356 0.0
N809 N 0.95882 0.54577 1.00025 0.0
H810 H 0.05012 0.6266 0.05856 0.0
H811 H 0.99006 0.61897 0.03402 0.0
H812 H 0.93327 0.5244 0.98543 0.0
H813 H 0.94447 0.57796 1.00082 0.0
H814 H 0.17022 0.45699 0.05947 0.0
H815 H 0.17807 0.50927 0.07935 0.0
H816 H 0.11783 0.41312 0.03537 0.0
H817 H 0.06059 0.40663 0.00697 0.0
C818 C 0.03565 1.03446 0.97043 0.0
C819 C 0.07385 0.05733 0.9469 0.0
C820 C 0.04684 0.12697 0.97808 0.0
C821 C 1.00518 0.10464 0.99819 0.0
N822 N 0.95401 1.03895 0.00951 0.0
N823 N 0.11045 0.12641 0.92387 0.0
C824 C 0.99801 0.05882 0.9933 0.0
C825 C 0.07835 0.10392 0.94967 0.0
N826 N 0.03656 0.98945 0.97203 0.0
N827 N 0.05675 0.17005 0.98686 0.0
H828 H 0.13342 0.11096 0.90213 0.0
H829 H 0.1109 0.16064 0.9218 0.0
H830 H 0.03386 0.18759 0.0074 0.0
H831 H 0.09001 0.18718 0.97633 0.0
H832 H 1.01338 0.97117 0.99169 0.0
H833 H 0.06422 0.97035 0.9564 0.0
H834 H 0.9432 1.00652 1.00363 0.0
H835 H 0.92553 0.05615 0.02616 0.0
C836 C 0.52202 1.01867 0.04898 0.0
C837 C 0.46799 1.03011 0.05755 0.0
C838 C 0.4782 0.09879 0.02023 0.0
C839 C 0.53365 0.08942 0.01526 0.0
N840 N 0.61053 0.04399 0.02942 0.0
N841 N 0.3956 0.08266 0.05574 0.0
C842 C 0.55618 0.05018 0.03078 0.0
C843 C 0.44621 0.07061 0.04423 0.0
N844 N 0.54002 0.97714 0.05735 0.0
N845 N 0.45603 0.13391 1.00099 0.0
H846 H 0.37146 0.06248 0.07323 0.0
H847 H 0.37911 0.11369 0.05043 0.0
H848 H 0.47858 0.15465 0.98289 0.0
H849 H 0.41492 0.14033 1.0003 0.0
H850 H 0.57757 0.96523 0.04872 0.0
H851 H 0.51525 0.95318 0.06979 0.0
H852 H 0.63018 1.01814 0.04359 0.0
H853 H 0.63654 0.06698 0.01688 0.0
C854 C 0.53697 0.58809 0.95967 0.0
C855 C 0.49327 0.5692 0.93897 0.0
C856 C 0.51287 0.49715 0.96885 0.0
C857 C 0.55435 0.51667 0.99106 0.0
N858 N 0.60261 0.58069 0.01195 0.0
N859 N 0.43494 0.50756 0.92697 0.0
C860 C 0.56523 0.56224 0.98781 0.0
C861 C 0.47998 0.5241 0.94433 0.0
N862 N 0.55332 0.62996 0.95086 0.0
N863 N 0.50577 0.4526 0.97098 0.0
H864 H 0.40999 0.52648 0.90897 0.0
H865 H 0.41996 0.47619 0.93247 0.0
H866 H 0.52826 0.4326 0.98977 0.0
H867 H 0.48013 0.43509 0.95274 0.0
H868 H 0.58835 0.64394 0.96169 0.0
H869 H 0.53421 0.64987 0.93015 0.0
H870 H 0.6084 0.6145 0.01457 0.0
H871 H 0.6257 0.56211 0.03147 0.0
C872 C 0.03475 0.06294 0.4706 0.0
C873 C 1.01311 1.02451 0.45339 0.0
C874 C 0.92264 0.04559 0.47574 0.0
C875 C 0.94414 0.08444 0.49225 0.0
N876 N 1.01802 0.13337 0.50284 0.0
N877 N 0.93737 0.98013 0.43577 0.0
C878 C 0.99961 0.09405 0.4889 0.0
C879 C 0.95714 1.01617 0.45479 0.0
N880 N 0.08911 0.06897 0.46975 0.0
N881 N 0.86943 1.03652 0.48137 0.0
H882 H 0.96216 0.9571 0.4218 0.0
H883 H 0.89666 0.97383 0.43216 0.0
H884 H 0.84345 0.05812 0.49602 0.0
H885 H 0.85131 1.00709 0.47335 0.0
H886 H 0.10885 0.09421 0.48432 0.0
H887 H 0.11517 0.04709 0.4555 0.0
H888 H 0.05714 0.14455 0.49911 0.0
H889 H 0.99286 0.1563 0.5166 0.0
C890 C 0.50963 0.10943 0.53938 0.0
C891 C 0.56085 0.09333 0.52814 0.0
C892 C 0.55422 1.03399 0.57677 0.0
C893 C 0.50123 0.04827 0.58635 0.0
N894 N 0.4251 0.09533 0.57294 0.0
N895 N 0.62887 1.03716 0.53057 0.0
C896 C 0.47794 0.08491 0.5666 0.0
C897 C 0.58215 0.05455 0.54517 0.0
N898 N 0.49213 0.14881 0.52463 0.0
N899 N 0.57903 1.00251 0.59918 0.0
H900 H 0.65043 0.05205 0.50778 0.0
H901 H 0.6439 1.0064 0.5387 0.0
H902 H 0.56061 0.98717 0.62313 0.0
H903 H 0.6195 0.99423 0.59628 0.0
H904 H 0.4577 0.16504 0.53455 0.0
H905 H 0.51439 0.16685 0.50414 0.0
H906 H 0.40425 0.1189 0.55672 0.0
H907 H 0.40064 0.07783 0.59239 0.0
C908 C 0.54045 0.53056 0.48913 0.0
C909 C 0.53556 0.48425 0.4852 0.0
C910 C 0.45473 0.49426 0.445 0.0
C911 C 0.45872 0.54048 0.44995 0.0
N912 N 0.49924 0.60286 0.48094 0.0
N913 N 0.48519 0.42122 0.46487 0.0
C914 C 0.49978 0.55864 0.47348 0.0
C915 C 0.49159 0.46588 0.4648 0.0
N916 N 0.58526 0.54754 0.50635 0.0
N917 N 0.41703 0.47787 0.41999 0.0
H918 H 0.51215 0.40006 0.47894 0.0
H919 H 0.45165 0.40539 0.45359 0.0
H920 H 0.38941 0.49805 0.4055 0.0
H921 H 0.41499 0.44491 0.41175 0.0
H922 H 0.59431 0.58097 0.50681 0.0
H923 H 0.61556 0.52771 0.51807 0.0
H924 H 0.52498 0.61818 0.50062 0.0
H925 H 0.46992 0.62389 0.46947 0.0
C926 C 0.03629 0.47306 0.54365 0.0
C927 C 0.98222 0.4821 0.53366 0.0
C928 C 0.97347 0.53231 0.58976 0.0
C929 C 0.02858 0.52514 0.59858 0.0
N930 N 0.11465 0.49346 0.58177 0.0
N931 N 0.9008 0.5234 0.54294 0.0
C932 C 0.06067 0.49672 0.57495 0.0
C933 C 0.95129 0.51278 0.55549 0.0
N934 N 0.06366 0.441 0.52359 0.0
N935 N 0.94186 0.55615 0.61509 0.0
H936 H 0.8834 0.50865 0.51842 0.0
H937 H 0.87767 0.54877 0.55489 0.0
H938 H 0.95656 0.5708 0.64058 0.0
H939 H 0.90031 0.55877 0.61263 0.0
H940 H 0.10132 0.42915 0.53171 0.0
H941 H 0.04702 0.42423 0.49984 0.0
H942 H 0.14137 0.4768 0.56336 0.0
H943 H 0.13363 0.51012 0.60461 0.0
loop_
_geom_bond_atom_site_label_1
_geom_bond_atom_site_label_2
_geom_bond_distance
_geom_bond_site_symmetry_2
_ccdc_geom_bond_type
Cu0 N1 1.999 . S
Cu0 O6 1.974 . S
Cu0 N11 1.985 . S
Cu0 O20 1.959 . S
N1 Cu0 1.999 . S
N1 C3 1.263 . S
N1 C5 1.389 . S
N2 C3 1.358 . S
N2 C4 1.400 . S
C3 N1 1.263 . S
C3 N2 1.358 . S
C3 H9 0.930 . S
C4 N2 1.400 . S
C4 C5 1.351 . S
C4 H21 0.930 . S
C5 N1 1.389 . S
C5 C4 1.351 . S
C5 H10 0.930 . S
O6 Cu0 1.974 . S
O6 C16 1.282 . S
C7 O8 1.261 . S
C7 O20 1.251 . S
O8 C7 1.261 . S
H9 C3 0.930 . S
H10 C5 0.930 . S
N11 Cu0 1.985 . S
N11 C13 1.335 . S
N11 C14 1.390 . S
N12 C13 1.345 . S
N12 C15 1.336 . S
C13 N11 1.335 . S
C13 N12 1.345 . S
C13 H18 0.930 . S
C14 N11 1.390 . S
C14 C15 1.346 . S
C14 H19 0.930 . S
C15 N12 1.336 . S
C15 C14 1.346 . S
C15 H22 0.929 . S
C16 O6 1.282 . S
C16 O17 1.216 . S
O17 C16 1.216 . S
H18 C13 0.930 . S
H19 C14 0.930 . S
O20 Cu0 1.959 . S
O20 C7 1.251 . S
H21 C4 0.930 . S
H22 C15 0.929 . S
Cu23 N24 1.999 . S
Cu23 O29 1.974 . S
Cu23 N34 1.985 . S
Cu23 O43 1.959 . S
N24 Cu23 1.999 . S
N24 C26 1.263 . S
N24 C28 1.389 . S
N25 C26 1.358 . S
N25 C27 1.400 . S
C26 N24 1.263 . S
C26 N25 1.358 . S
C26 H32 0.930 . S
C27 N25 1.400 . S
C27 C28 1.351 . S
C27 H44 0.930 . S
C28 N24 1.389 . S
C28 C27 1.351 . S
C28 H33 0.930 . S
O29 Cu23 1.974 . S
O29 C39 1.282 . S
C30 O31 1.261 1_655 S
C30 O43 1.251 . S
O31 C30 1.261 1_455 S
H32 C26 0.930 . S
H33 C28 0.930 . S
N34 Cu23 1.985 . S
N34 C36 1.335 . S
N34 C37 1.390 . S
N35 C36 1.345 1_455 S
N35 C38 1.336 1_455 S
C36 N34 1.335 . S
C36 N35 1.345 1_655 S
C36 H41 0.930 . S
C37 N34 1.390 . S
C37 C38 1.346 . S
C37 H42 0.930 . S
C38 N35 1.336 1_655 S
C38 C37 1.346 . S
C38 H45 0.929 1_554 S
C39 O29 1.282 . S
C39 O40 1.216 . S
O40 C39 1.216 . S
H41 C36 0.930 . S
H42 C37 0.930 . S
O43 Cu23 1.959 . S
O43 C30 1.251 . S
H44 C27 0.930 . S
H45 C38 0.929 1_556 S
Cu46 N47 1.999 . S
Cu46 O52 1.974 . S
Cu46 N57 1.985 . S
Cu46 O66 1.959 . S
N47 Cu46 1.999 . S
N47 C49 1.263 . S
N47 C51 1.389 . S
N48 C49 1.358 . S
N48 C50 1.400 . S
C49 N47 1.263 . S
C49 N48 1.358 . S
C49 H55 0.930 . S
C50 N48 1.400 . S
C50 C51 1.351 . S
C50 H67 0.930 . S
C51 N47 1.389 . S
C51 C50 1.351 . S
C51 H56 0.930 . S
O52 Cu46 1.974 . S
O52 C62 1.282 . S
C53 O54 1.261 . S
C53 O66 1.251 . S
O54 C53 1.261 . S
H55 C49 0.930 . S
H56 C51 0.930 . S
N57 Cu46 1.985 . S
N57 C59 1.335 . S
N57 C60 1.390 . S
N58 C59 1.345 . S
N58 C61 1.336 . S
C59 N57 1.335 . S
C59 N58 1.345 . S
C59 H64 0.930 . S
C60 N57 1.390 . S
C60 C61 1.346 . S
C60 H65 0.930 . S
C61 N58 1.336 . S
C61 C60 1.346 . S
C61 H68 0.929 . S
C62 O52 1.282 . S
C62 O63 1.216 . S
O63 C62 1.216 . S
H64 C59 0.930 . S
H65 C60 0.930 . S
O66 Cu46 1.959 . S
O66 C53 1.251 . S
H67 C50 0.930 . S
H68 C61 0.929 . S
Cu69 N70 1.999 . S
Cu69 O75 1.974 . S
Cu69 N80 1.985 . S
Cu69 O89 1.959 . S
N70 Cu69 1.999 . S
N70 C72 1.263 . S
N70 C74 1.389 . S
N71 C72 1.358 . S
N71 C73 1.400 . S
C72 N70 1.263 . S
C72 N71 1.358 . S
C72 H78 0.930 . S
C73 N71 1.400 . S
C73 C74 1.351 . S
C73 H90 0.930 . S
C74 N70 1.389 . S
C74 C73 1.351 . S
C74 H79 0.930 . S
O75 Cu69 1.974 . S
O75 C85 1.282 . S
C76 O77 1.261 . S
C76 O89 1.251 . S
O77 C76 1.261 . S
H78 C72 0.930 . S
H79 C74 0.930 . S
N80 Cu69 1.985 . S
N80 C82 1.335 . S
N80 C83 1.390 . S
N81 C82 1.345 . S
N81 C84 1.336 . S
C82 N80 1.335 . S
C82 N81 1.345 . S
C82 H87 0.930 . S
C83 N80 1.390 . S
C83 C84 1.346 . S
C83 H88 0.930 . S
C84 N81 1.336 . S
C84 C83 1.346 . S
C84 H91 0.929 1_554 S
C85 O75 1.282 . S
C85 O86 1.216 . S
O86 C85 1.216 . S
H87 C82 0.930 . S
H88 C83 0.930 . S
O89 Cu69 1.959 . S
O89 C76 1.251 . S
H90 C73 0.930 . S
H91 C84 0.929 1_556 S
Cu92 N93 1.999 . S
Cu92 O98 1.974 . S
Cu92 N103 1.985 . S
Cu92 O112 1.959 . S
N93 Cu92 1.999 . S
N93 C95 1.263 . S
N93 C97 1.389 . S
N94 C95 1.358 . S
N94 C96 1.400 . S
C95 N93 1.263 . S
C95 N94 1.358 . S
C95 H101 0.930 . S
C96 N94 1.400 . S
C96 C97 1.351 . S
C96 H113 0.930 . S
C97 N93 1.389 . S
C97 C96 1.351 . S
C97 H102 0.930 . S
O98 Cu92 1.974 . S
O98 C108 1.282 . S
C99 O100 1.261 . S
C99 O112 1.251 . S
O100 C99 1.261 . S
H101 C95 0.930 . S
H102 C97 0.930 . S
N103 Cu92 1.985 . S
N103 C105 1.335 . S
N103 C106 1.390 . S
N104 C105 1.345 . S
N104 C107 1.336 . S
C105 N103 1.335 . S
C105 N104 1.345 . S
C105 H110 0.930 . S
C106 N103 1.390 . S
C106 C107 1.346 . S
C106 H111 0.930 . S
C107 N104 1.336 . S
C107 C106 1.346 . S
C107 H114 0.929 . S
C108 O98 1.282 . S
C108 O109 1.216 . S
O109 C108 1.216 . S
H110 C105 0.930 . S
H111 C106 0.930 . S
O112 Cu92 1.959 . S
O112 C99 1.251 . S
H113 C96 0.930 . S
H114 C107 0.929 . S
Cu115 N116 1.999 . S
Cu115 O121 1.974 . S
Cu115 N126 1.985 . S
Cu115 O135 1.959 . S
N116 Cu115 1.999 . S
N116 C118 1.263 . S
N116 C120 1.389 . S
N117 C118 1.358 . S
N117 C119 1.400 . S
C118 N116 1.263 . S
C118 N117 1.358 . S
C118 H124 0.930 . S
C119 N117 1.400 . S
C119 C120 1.351 . S
C119 H136 0.930 . S
C120 N116 1.389 . S
C120 C119 1.351 . S
C120 H125 0.930 . S
O121 Cu115 1.974 . S
O121 C131 1.282 . S
C122 O123 1.261 . S
C122 O135 1.251 . S
O123 C122 1.261 . S
H124 C118 0.930 . S
H125 C120 0.930 . S
N126 Cu115 1.985 . S
N126 C128 1.335 . S
N126 C129 1.390 . S
N127 C128 1.345 . S
N127 C130 1.336 . S
C128 N126 1.335 . S
C128 N127 1.345 . S
C128 H133 0.930 . S
C129 N126 1.390 . S
C129 C130 1.346 . S
C129 H134 0.930 . S
C130 N127 1.336 . S
C130 C129 1.346 . S
C130 H137 0.929 . S
C131 O121 1.282 . S
C131 O132 1.216 . S
O132 C131 1.216 . S
H133 C128 0.930 . S
H134 C129 0.930 . S
O135 Cu115 1.959 . S
O135 C122 1.251 . S
H136 C119 0.930 . S
H137 C130 0.929 . S
Cu138 N139 1.999 . S
Cu138 O144 1.974 . S
Cu138 N149 1.985 . S
Cu138 O158 1.959 . S
N139 Cu138 1.999 . S
N139 C141 1.263 . S
N139 C143 1.389 . S
N140 C141 1.358 . S
N140 C142 1.400 . S
C141 N139 1.263 . S
C141 N140 1.358 . S
C141 H147 0.930 . S
C142 N140 1.400 . S
C142 C143 1.351 . S
C142 H159 0.930 . S
C143 N139 1.389 . S
C143 C142 1.351 . S
C143 H148 0.930 . S
O144 Cu138 1.974 . S
O144 C154 1.282 . S
C145 O146 1.261 . S
C145 O158 1.251 . S
O146 C145 1.261 . S
H147 C141 0.930 . S
H148 C143 0.930 . S
N149 Cu138 1.985 . S
N149 C151 1.335 . S
N149 C152 1.390 . S
N150 C151 1.345 . S
N150 C153 1.336 . S
C151 N149 1.335 . S
C151 N150 1.345 . S
C151 H156 0.930 . S
C152 N149 1.390 . S
C152 C153 1.346 . S
C152 H157 0.930 . S
C153 N150 1.336 . S
C153 C152 1.346 . S
C153 H160 0.929 . S
C154 O144 1.282 . S
C154 O155 1.216 . S
O155 C154 1.216 . S
H156 C151 0.930 . S
H157 C152 0.930 . S
O158 Cu138 1.959 . S
O158 C145 1.251 . S
H159 C142 0.930 . S
H160 C153 0.929 . S
Cu161 N162 1.999 . S
Cu161 O167 1.974 . S
Cu161 N172 1.985 . S
Cu161 O181 1.959 . S
N162 Cu161 1.999 . S
N162 C164 1.263 . S
N162 C166 1.389 . S
N163 C164 1.358 . S
N163 C165 1.400 . S
C164 N162 1.263 . S
C164 N163 1.358 . S
C164 H170 0.930 . S
C165 N163 1.400 . S
C165 C166 1.351 . S
C165 H182 0.930 . S
C166 N162 1.389 . S
C166 C165 1.351 . S
C166 H171 0.930 . S
O167 Cu161 1.974 . S
O167 C177 1.282 . S
C168 O169 1.261 1_655 S
C168 O181 1.251 . S
O169 C168 1.261 1_455 S
H170 C164 0.930 . S
H171 C166 0.930 . S
N172 Cu161 1.985 . S
N172 C174 1.335 . S
N172 C175 1.390 . S
N173 C174 1.345 1_455 S
N173 C176 1.336 1_455 S
C174 N172 1.335 . S
C174 N173 1.345 1_655 S
C174 H179 0.930 . S
C175 N172 1.390 . S
C175 C176 1.346 . S
C175 H180 0.930 . S
C176 N173 1.336 1_655 S
C176 C175 1.346 . S
C176 H183 0.929 . S
C177 O167 1.282 . S
C177 O178 1.216 . S
O178 C177 1.216 . S
H179 C174 0.930 . S
H180 C175 0.930 . S
O181 Cu161 1.959 . S
O181 C168 1.251 . S
H182 C165 0.930 . S
H183 C176 0.929 . S
Cu184 N185 1.999 . S
Cu184 O190 1.974 . S
Cu184 N195 1.985 . S
Cu184 O204 1.959 . S
N185 Cu184 1.999 . S
N185 C187 1.263 . S
N185 C189 1.389 . S
N186 C187 1.358 . S
N186 C188 1.400 . S
C187 N185 1.263 . S
C187 N186 1.358 . S
C187 H193 0.930 . S
C188 N186 1.400 . S
C188 C189 1.351 . S
C188 H205 0.930 . S
C189 N185 1.389 . S
C189 C188 1.351 . S
C189 H194 0.930 . S
O190 Cu184 1.974 . S
O190 C200 1.282 . S
C191 O192 1.261 . S
C191 O204 1.251 . S
O192 C191 1.261 . S
H193 C187 0.930 . S
H194 C189 0.930 . S
N195 Cu184 1.985 . S
N195 C197 1.335 . S
N195 C198 1.390 . S
N196 C197 1.345 . S
N196 C199 1.336 . S
C197 N195 1.335 . S
C197 N196 1.345 . S
C197 H202 0.930 . S
C198 N195 1.390 . S
C198 C199 1.346 . S
C198 H203 0.930 . S
C199 N196 1.336 . S
C199 C198 1.346 . S
C199 H206 0.929 1_556 S
C200 O190 1.282 . S
C200 O201 1.216 . S
O201 C200 1.216 . S
H202 C197 0.930 . S
H203 C198 0.930 . S
O204 Cu184 1.959 . S
O204 C191 1.251 . S
H205 C188 0.930 . S
H206 C199 0.929 1_554 S
Cu207 N208 1.999 . S
Cu207 O213 1.974 . S
Cu207 N218 1.985 . S
Cu207 O227 1.959 . S
N208 Cu207 1.999 . S
N208 C210 1.263 . S
N208 C212 1.389 . S
N209 C210 1.358 1_655 S
N209 C211 1.400 . S
C210 N208 1.263 . S
C210 N209 1.358 1_455 S
C210 H216 0.930 . S
C211 N209 1.400 . S
C211 C212 1.351 1_655 S
C211 H228 0.930 . S
C212 N208 1.389 . S
C212 C211 1.351 1_455 S
C212 H217 0.930 . S
O213 Cu207 1.974 . S
O213 C223 1.282 . S
C214 O215 1.261 . S
C214 O227 1.251 . S
O215 C214 1.261 . S
H216 C210 0.930 . S
H217 C212 0.930 . S
N218 Cu207 1.985 . S
N218 C220 1.335 . S
N218 C221 1.390 . S
N219 C220 1.345 . S
N219 C222 1.336 . S
C220 N218 1.335 . S
C220 N219 1.345 . S
C220 H225 0.930 . S
C221 N218 1.390 . S
C221 C222 1.346 . S
C221 H226 0.930 . S
C222 N219 1.336 . S
C222 C221 1.346 . S
C222 H229 0.929 . S
C223 O213 1.282 . S
C223 O224 1.216 . S
O224 C223 1.216 . S
H225 C220 0.930 . S
H226 C221 0.930 . S
O227 Cu207 1.959 . S
O227 C214 1.251 . S
H228 C211 0.930 . S
H229 C222 0.929 . S
Cu230 N231 1.999 . S
Cu230 O236 1.974 . S
Cu230 N241 1.985 . S
Cu230 O250 1.959 . S
N231 Cu230 1.999 . S
N231 C233 1.263 . S
N231 C235 1.389 . S
N232 C233 1.358 . S
N232 C234 1.400 . S
C233 N231 1.263 . S
C233 N232 1.358 . S
C233 H239 0.930 . S
C234 N232 1.400 . S
C234 C235 1.351 . S
C234 H251 0.930 . S
C235 N231 1.389 . S
C235 C234 1.351 . S
C235 H240 0.930 . S
O236 Cu230 1.974 . S
O236 C246 1.282 . S
C237 O238 1.261 . S
C237 O250 1.251 . S
O238 C237 1.261 . S
H239 C233 0.930 . S
H240 C235 0.930 . S
N241 Cu230 1.985 . S
N241 C243 1.335 . S
N241 C244 1.390 . S
N242 C243 1.345 . S
N242 C245 1.336 . S
C243 N241 1.335 . S
C243 N242 1.345 . S
C243 H248 0.930 . S
C244 N241 1.390 . S
C244 C245 1.346 . S
C244 H249 0.930 . S
C245 N242 1.336 . S
C245 C244 1.346 . S
C245 H252 0.929 1_556 S
C246 O236 1.282 . S
C246 O247 1.216 . S
O247 C246 1.216 . S
H248 C243 0.930 . S
H249 C244 0.930 . S
O250 Cu230 1.959 . S
O250 C237 1.251 . S
H251 C234 0.930 . S
H252 C245 0.929 1_554 S
Cu253 N254 1.999 . S
Cu253 O259 1.974 . S
Cu253 N264 1.985 . S
Cu253 O273 1.959 . S
N254 Cu253 1.999 . S
N254 C256 1.263 . S
N254 C258 1.389 . S
N255 C256 1.358 . S
N255 C257 1.400 . S
C256 N254 1.263 . S
C256 N255 1.358 . S
C256 H262 0.930 . S
C257 N255 1.400 . S
C257 C258 1.351 . S
C257 H274 0.930 . S
C258 N254 1.389 . S
C258 C257 1.351 . S
C258 H263 0.930 . S
O259 Cu253 1.974 . S
O259 C269 1.282 . S
C260 O261 1.261 . S
C260 O273 1.251 . S
O261 C260 1.261 . S
H262 C256 0.930 . S
H263 C258 0.930 . S
N264 Cu253 1.985 . S
N264 C266 1.335 . S
N264 C267 1.390 . S
N265 C266 1.345 . S
N265 C268 1.336 . S
C266 N264 1.335 . S
C266 N265 1.345 . S
C266 H271 0.930 . S
C267 N264 1.390 . S
C267 C268 1.346 . S
C267 H272 0.930 . S
C268 N265 1.336 . S
C268 C267 1.346 . S
C268 H275 0.929 . S
C269 O259 1.282 . S
C269 O270 1.216 . S
O270 C269 1.216 . S
H271 C266 0.930 . S
H272 C267 0.930 . S
O273 Cu253 1.959 . S
O273 C260 1.251 . S
H274 C257 0.930 . S
H275 C268 0.929 . S
Cu276 N277 1.999 . S
Cu276 O282 1.974 . S
Cu276 N287 1.985 . S
Cu276 O296 1.959 . S
N277 Cu276 1.999 . S
N277 C279 1.263 . S
N277 C281 1.389 . S
N278 C279 1.358 . S
N278 C280 1.400 . S
C279 N277 1.263 . S
C279 N278 1.358 . S
C279 H285 0.930 . S
C280 N278 1.400 . S
C280 C281 1.351 . S
C280 H297 0.930 . S
C281 N277 1.389 . S
C281 C280 1.351 . S
C281 H286 0.930 . S
O282 Cu276 1.974 . S
O282 C292 1.282 . S
C283 O284 1.261 . S
C283 O296 1.251 . S
O284 C283 1.261 . S
H285 C279 0.930 . S
H286 C281 0.930 . S
N287 Cu276 1.985 . S
N287 C289 1.335 . S
N287 C290 1.390 . S
N288 C289 1.345 . S
N288 C291 1.336 . S
C289 N287 1.335 . S
C289 N288 1.345 . S
C289 H294 0.930 . S
C290 N287 1.390 . S
C290 C291 1.346 . S
C290 H295 0.930 . S
C291 N288 1.336 . S
C291 C290 1.346 . S
C291 H298 0.929 . S
C292 O282 1.282 . S
C292 O293 1.216 . S
O293 C292 1.216 . S
H294 C289 0.930 . S
H295 C290 0.930 . S
O296 Cu276 1.959 . S
O296 C283 1.251 . S
H297 C280 0.930 . S
H298 C291 0.929 . S
Cu299 N300 1.999 . S
Cu299 O305 1.974 . S
Cu299 N310 1.985 . S
Cu299 O319 1.959 . S
N300 Cu299 1.999 . S
N300 C302 1.263 . S
N300 C304 1.389 . S
N301 C302 1.358 . S
N301 C303 1.400 . S
C302 N300 1.263 . S
C302 N301 1.358 . S
C302 H308 0.930 . S
C303 N301 1.400 . S
C303 C304 1.351 . S
C303 H320 0.930 . S
C304 N300 1.389 . S
C304 C303 1.351 . S
C304 H309 0.930 . S
O305 Cu299 1.974 . S
O305 C315 1.282 . S
C306 O307 1.261 . S
C306 O319 1.251 . S
O307 C306 1.261 . S
H308 C302 0.930 . S
H309 C304 0.930 . S
N310 Cu299 1.985 . S
N310 C312 1.335 . S
N310 C313 1.390 . S
N311 C312 1.345 . S
N311 C314 1.336 . S
C312 N310 1.335 . S
C312 N311 1.345 . S
C312 H317 0.930 . S
C313 N310 1.390 . S
C313 C314 1.346 . S
C313 H318 0.930 . S
C314 N311 1.336 . S
C314 C313 1.346 . S
C314 H321 0.929 . S
C315 O305 1.282 . S
C315 O316 1.216 . S
O316 C315 1.216 . S
H317 C312 0.930 . S
H318 C313 0.930 . S
O319 Cu299 1.959 . S
O319 C306 1.251 . S
H320 C303 0.930 . S
H321 C314 0.929 . S
Cu322 N323 1.999 . S
Cu322 O328 1.974 . S
Cu322 N333 1.985 . S
Cu322 O342 1.959 . S
N323 Cu322 1.999 . S
N323 C325 1.263 . S
N323 C327 1.389 . S
N324 C325 1.358 . S
N324 C326 1.400 . S
C325 N323 1.263 . S
C325 N324 1.358 . S
C325 H331 0.930 . S
C326 N324 1.400 . S
C326 C327 1.351 . S
C326 H343 0.930 . S
C327 N323 1.389 . S
C327 C326 1.351 . S
C327 H332 0.930 . S
O328 Cu322 1.974 . S
O328 C338 1.282 . S
C329 O330 1.261 . S
C329 O342 1.251 . S
O330 C329 1.261 . S
H331 C325 0.930 . S
H332 C327 0.930 . S
N333 Cu322 1.985 . S
N333 C335 1.335 . S
N333 C336 1.390 . S
N334 C335 1.345 . S
N334 C337 1.336 . S
C335 N333 1.335 . S
C335 N334 1.345 . S
C335 H340 0.930 . S
C336 N333 1.390 . S
C336 C337 1.346 . S
C336 H341 0.930 . S
C337 N334 1.336 . S
C337 C336 1.346 . S
C337 H344 0.929 . S
C338 O328 1.282 . S
C338 O339 1.216 . S
O339 C338 1.216 . S
H340 C335 0.930 . S
H341 C336 0.930 . S
O342 Cu322 1.959 . S
O342 C329 1.251 . S
H343 C326 0.930 . S
H344 C337 0.929 . S
Cu345 N346 1.999 . S
Cu345 O351 1.974 . S
Cu345 N356 1.985 . S
Cu345 O365 1.959 . S
N346 Cu345 1.999 . S
N346 C348 1.263 . S
N346 C350 1.389 . S
N347 C348 1.358 1_655 S
N347 C349 1.400 . S
C348 N346 1.263 . S
C348 N347 1.358 1_455 S
C348 H354 0.930 . S
C349 N347 1.400 . S
C349 C350 1.351 1_655 S
C349 H366 0.930 . S
C350 N346 1.389 . S
C350 C349 1.351 1_455 S
C350 H355 0.930 . S
O351 Cu345 1.974 . S
O351 C361 1.282 . S
C352 O353 1.261 . S
C352 O365 1.251 . S
O353 C352 1.261 . S
H354 C348 0.930 . S
H355 C350 0.930 . S
N356 Cu345 1.985 . S
N356 C358 1.335 . S
N356 C359 1.390 . S
N357 C358 1.345 . S
N357 C360 1.336 . S
C358 N356 1.335 . S
C358 N357 1.345 . S
C358 H363 0.930 . S
C359 N356 1.390 . S
C359 C360 1.346 . S
C359 H364 0.930 . S
C360 N357 1.336 . S
C360 C359 1.346 . S
C360 H367 0.929 . S
C361 O351 1.282 . S
C361 O362 1.216 . S
O362 C361 1.216 . S
H363 C358 0.930 . S
H364 C359 0.930 . S
O365 Cu345 1.959 . S
O365 C352 1.251 . S
H366 C349 0.930 . S
H367 C360 0.929 . S
C368 C369 1.363 . S
C368 C374 1.379 . S
C368 N376 1.356 . S
C369 C368 1.363 . S
C369 C375 1.363 . S
C370 C371 1.363 . S
C370 C375 1.379 . S
C370 N377 1.356 . S
C371 C370 1.363 . S
C371 C374 1.363 . S
N372 C374 1.356 . S
N372 H384 0.984 . S
N372 H385 0.985 . S
N373 C375 1.356 . S
N373 H378 0.984 . S
N373 H379 0.985 . S
C374 C368 1.379 . S
C374 C371 1.363 . S
C374 N372 1.356 . S
C375 C369 1.363 . S
C375 C370 1.379 . S
C375 N373 1.356 . S
N376 C368 1.356 . S
N376 H382 0.984 . S
N376 H383 0.984 . S
N377 C370 1.356 . S
N377 H380 0.984 . S
N377 H381 0.985 . S
H378 N373 0.984 . S
H379 N373 0.985 . S
H380 N377 0.984 . S
H381 N377 0.985 . S
H382 N376 0.984 . S
H383 N376 0.984 . S
H384 N372 0.984 . S
H385 N372 0.985 . S
C386 C387 1.363 . S
C386 C392 1.379 . S
C386 N394 1.356 . S
C387 C386 1.363 . S
C387 C393 1.363 . S
C388 C389 1.363 . S
C388 C393 1.379 . S
C388 N395 1.356 . S
C389 C388 1.363 . S
C389 C392 1.363 . S
N390 C392 1.356 . S
N390 H402 0.984 . S
N390 H403 0.985 . S
N391 C393 1.356 . S
N391 H396 0.984 . S
N391 H397 0.985 . S
C392 C386 1.379 . S
C392 C389 1.363 . S
C392 N390 1.356 . S
C393 C387 1.363 . S
C393 C388 1.379 . S
C393 N391 1.356 . S
N394 C386 1.356 . S
N394 H400 0.984 . S
N394 H401 0.984 . S
N395 C388 1.356 . S
N395 H398 0.984 . S
N395 H399 0.985 . S
H396 N391 0.984 . S
H397 N391 0.985 . S
H398 N395 0.984 . S
H399 N395 0.985 . S
H400 N394 0.984 . S
H401 N394 0.984 . S
H402 N390 0.984 . S
H403 N390 0.985 . S
C404 C405 1.363 . S
C404 C410 1.379 . S
C404 N412 1.356 . S
C405 C404 1.363 . S
C405 C411 1.363 . S
C406 C407 1.363 . S
C406 C411 1.379 . S
C406 N413 1.356 . S
C407 C406 1.363 . S
C407 C410 1.363 . S
N408 C410 1.356 . S
N408 H420 0.984 . S
N408 H421 0.985 . S
N409 C411 1.356 . S
N409 H414 0.984 . S
N409 H415 0.985 . S
C410 C404 1.379 . S
C410 C407 1.363 . S
C410 N408 1.356 . S
C411 C405 1.363 . S
C411 C406 1.379 . S
C411 N409 1.356 . S
N412 C404 1.356 . S
N412 H418 0.984 . S
N412 H419 0.984 . S
N413 C406 1.356 . S
N413 H416 0.984 . S
N413 H417 0.985 . S
H414 N409 0.984 . S
H415 N409 0.985 . S
H416 N413 0.984 . S
H417 N413 0.985 . S
H418 N412 0.984 . S
H419 N412 0.984 . S
H420 N408 0.984 . S
H421 N408 0.985 . S
C422 C423 1.363 . S
C422 C428 1.379 . S
C422 N430 1.356 . S
C423 C422 1.363 . S
C423 C429 1.363 . S
C424 C425 1.363 . S
C424 C429 1.379 . S
C424 N431 1.356 . S
C425 C424 1.363 . S
C425 C428 1.363 . S
N426 C428 1.356 . S
N426 H438 0.984 . S
N426 H439 0.985 . S
N427 C429 1.356 . S
N427 H432 0.984 . S
N427 H433 0.985 . S
C428 C422 1.379 . S
C428 C425 1.363 . S
C428 N426 1.356 . S
C429 C423 1.363 . S
C429 C424 1.379 . S
C429 N427 1.356 . S
N430 C422 1.356 . S
N430 H436 0.984 . S
N430 H437 0.984 . S
N431 C424 1.356 . S
N431 H434 0.984 . S
N431 H435 0.985 . S
H432 N427 0.984 . S
H433 N427 0.985 . S
H434 N431 0.984 . S
H435 N431 0.985 . S
H436 N430 0.984 . S
H437 N430 0.984 . S
H438 N426 0.984 . S
H439 N426 0.985 . S
C440 C441 1.363 . S
C440 C446 1.379 . S
C440 N448 1.356 . S
C441 C440 1.363 . S
C441 C447 1.363 . S
C442 C443 1.363 . S
C442 C447 1.379 . S
C442 N449 1.356 . S
C443 C442 1.363 . S
C443 C446 1.363 . S
N444 C446 1.356 . S
N444 H456 0.984 . S
N444 H457 0.985 . S
N445 C447 1.356 . S
N445 H450 0.984 . S
N445 H451 0.985 . S
C446 C440 1.379 . S
C446 C443 1.363 . S
C446 N444 1.356 . S
C447 C441 1.363 . S
C447 C442 1.379 . S
C447 N445 1.356 . S
N448 C440 1.356 . S
N448 H454 0.984 . S
N448 H455 0.984 . S
N449 C442 1.356 . S
N449 H452 0.984 . S
N449 H453 0.985 . S
H450 N445 0.984 . S
H451 N445 0.985 . S
H452 N449 0.984 . S
H453 N449 0.985 . S
H454 N448 0.984 . S
H455 N448 0.984 . S
H456 N444 0.984 . S
H457 N444 0.985 . S
C458 C459 1.363 . S
C458 C464 1.379 . S
C458 N466 1.356 . S
C459 C458 1.363 . S
C459 C465 1.363 . S
C460 C461 1.363 . S
C460 C465 1.379 . S
C460 N467 1.356 . S
C461 C460 1.363 . S
C461 C464 1.363 . S
N462 C464 1.356 . S
N462 H474 0.984 . S
N462 H475 0.985 . S
N463 C465 1.356 . S
N463 H468 0.984 . S
N463 H469 0.985 . S
C464 C458 1.379 . S
C464 C461 1.363 . S
C464 N462 1.356 . S
C465 C459 1.363 . S
C465 C460 1.379 . S
C465 N463 1.356 . S
N466 C458 1.356 . S
N466 H472 0.984 . S
N466 H473 0.984 . S
N467 C460 1.356 . S
N467 H470 0.984 . S
N467 H471 0.985 . S
H468 N463 0.984 . S
H469 N463 0.985 . S
H470 N467 0.984 . S
H471 N467 0.985 . S
H472 N466 0.984 . S
H473 N466 0.984 . S
H474 N462 0.984 . S
H475 N462 0.985 . S
C476 C477 1.363 . S
C476 C482 1.379 . S
C476 N484 1.356 . S
C477 C476 1.363 . S
C477 C483 1.363 . S
C478 C479 1.363 . S
C478 C483 1.379 . S
C478 N485 1.356 . S
C479 C478 1.363 . S
C479 C482 1.363 . S
N480 C482 1.356 . S
N480 H492 0.984 . S
N480 H493 0.985 . S
N481 C483 1.356 . S
N481 H486 0.984 . S
N481 H487 0.985 . S
C482 C476 1.379 . S
C482 C479 1.363 . S
C482 N480 1.356 . S
C483 C477 1.363 . S
C483 C478 1.379 . S
C483 N481 1.356 . S
N484 C476 1.356 . S
N484 H490 0.984 . S
N484 H491 0.984 . S
N485 C478 1.356 . S
N485 H488 0.984 . S
N485 H489 0.985 . S
H486 N481 0.984 . S
H487 N481 0.985 . S
H488 N485 0.984 . S
H489 N485 0.985 . S
H490 N484 0.984 . S
H491 N484 0.984 . S
H492 N480 0.984 . S
H493 N480 0.985 . S
C494 C495 1.363 . S
C494 C500 1.379 . S
C494 N502 1.356 . S
C495 C494 1.363 . S
C495 C501 1.363 . S
C496 C497 1.363 . S
C496 C501 1.379 . S
C496 N503 1.356 . S
C497 C496 1.363 . S
C497 C500 1.363 . S
N498 C500 1.356 . S
N498 H510 0.984 . S
N498 H511 0.985 . S
N499 C501 1.356 . S
N499 H504 0.984 . S
N499 H505 0.985 . S
C500 C494 1.379 . S
C500 C497 1.363 . S
C500 N498 1.356 . S
C501 C495 1.363 . S
C501 C496 1.379 . S
C501 N499 1.356 . S
N502 C494 1.356 . S
N502 H508 0.984 . S
N502 H509 0.984 . S
N503 C496 1.356 . S
N503 H506 0.984 . S
N503 H507 0.985 . S
H504 N499 0.984 . S
H505 N499 0.985 . S
H506 N503 0.984 . S
H507 N503 0.985 . S
H508 N502 0.984 . S
H509 N502 0.984 . S
H510 N498 0.984 . S
H511 N498 0.985 . S
C512 C513 1.363 . S
C512 C518 1.379 . S
C512 N520 1.356 1_455 S
C513 C512 1.363 . S
C513 C519 1.363 . S
C514 C515 1.363 . S
C514 C519 1.379 . S
C514 N521 1.356 . S
C515 C514 1.363 . S
C515 C518 1.363 . S
N516 C518 1.356 . S
N516 H528 0.984 1_455 S
N516 H529 0.985 . S
N517 C519 1.356 . S
N517 H522 0.984 . S
N517 H523 0.985 . S
C518 C512 1.379 . S
C518 C515 1.363 . S
C518 N516 1.356 . S
C519 C513 1.363 . S
C519 C514 1.379 . S
C519 N517 1.356 . S
N520 C512 1.356 1_655 S
N520 H526 0.984 . S
N520 H527 0.984 . S
N521 C514 1.356 . S
N521 H524 0.984 . S
N521 H525 0.985 . S
H522 N517 0.984 . S
H523 N517 0.985 . S
H524 N521 0.984 . S
H525 N521 0.985 . S
H526 N520 0.984 . S
H527 N520 0.984 . S
H528 N516 0.984 1_655 S
H529 N516 0.985 . S
C530 C531 1.363 . S
C530 C536 1.379 1_545 S
C530 N538 1.356 1_455 S
C531 C530 1.363 . S
C531 C537 1.363 . S
C532 C533 1.363 . S
C532 C537 1.379 . S
C532 N539 1.356 . S
C533 C532 1.363 . S
C533 C536 1.363 1_545 S
N534 C536 1.356 . S
N534 H546 0.984 . S
N534 H547 0.985 . S
N535 C537 1.356 . S
N535 H540 0.984 . S
N535 H541 0.985 . S
C536 C530 1.379 1_565 S
C536 C533 1.363 1_565 S
C536 N534 1.356 . S
C537 C531 1.363 . S
C537 C532 1.379 . S
C537 N535 1.356 . S
N538 C530 1.356 1_655 S
N538 H544 0.984 1_545 S
N538 H545 0.984 . S
N539 C532 1.356 . S
N539 H542 0.984 . S
N539 H543 0.985 . S
H540 N535 0.984 . S
H541 N535 0.985 . S
H542 N539 0.984 . S
H543 N539 0.985 . S
H544 N538 0.984 1_565 S
H545 N538 0.984 . S
H546 N534 0.984 . S
H547 N534 0.985 . S
C548 C549 1.363 . S
C548 C554 1.379 1_545 S
C548 N556 1.357 . S
C549 C548 1.363 . S
C549 C555 1.363 . S
C550 C551 1.363 . S
C550 C555 1.379 . S
C550 N557 1.356 . S
C551 C550 1.363 . S
C551 C554 1.363 1_545 S
N552 C554 1.356 . S
N552 H564 0.984 . S
N552 H565 0.985 . S
N553 C555 1.356 . S
N553 H558 0.984 . S
N553 H559 0.985 . S
C554 C548 1.379 1_565 S
C554 C551 1.363 1_565 S
C554 N552 1.356 . S
C555 C549 1.363 . S
C555 C550 1.379 . S
C555 N553 1.356 . S
N556 C548 1.357 . S
N556 H562 0.982 1_545 S
N556 H563 0.987 . S
N557 C550 1.356 . S
N557 H560 0.984 . S
N557 H561 0.985 . S
H558 N553 0.984 . S
H559 N553 0.985 . S
H560 N557 0.984 . S
H561 N557 0.985 . S
H562 N556 0.982 1_565 S
H563 N556 0.987 . S
H564 N552 0.984 . S
H565 N552 0.985 . S
C566 C567 1.363 . S
C566 C572 1.379 . S
C566 N574 1.356 . S
C567 C566 1.363 . S
C567 C573 1.363 . S
C568 C569 1.363 . S
C568 C573 1.379 . S
C568 N575 1.356 . S
C569 C568 1.363 . S
C569 C572 1.363 . S
N570 C572 1.356 . S
N570 H582 0.984 . S
N570 H583 0.985 . S
N571 C573 1.356 . S
N571 H576 0.984 . S
N571 H577 0.985 . S
C572 C566 1.379 . S
C572 C569 1.363 . S
C572 N570 1.356 . S
C573 C567 1.363 . S
C573 C568 1.379 . S
C573 N571 1.356 . S
N574 C566 1.356 . S
N574 H580 0.984 . S
N574 H581 0.984 . S
N575 C568 1.356 . S
N575 H578 0.984 . S
N575 H579 0.985 . S
H576 N571 0.984 . S
H577 N571 0.985 . S
H578 N575 0.984 . S
H579 N575 0.985 . S
H580 N574 0.984 . S
H581 N574 0.984 . S
H582 N570 0.984 . S
H583 N570 0.985 . S
C584 C585 1.363 . S
C584 C590 1.379 . S
C584 N592 1.356 1_655 S
C585 C584 1.363 . S
C585 C591 1.363 . S
C586 C587 1.363 . S
C586 C591 1.379 . S
C586 N593 1.356 . S
C587 C586 1.363 . S
C587 C590 1.363 . S
N588 C590 1.356 . S
N588 H600 0.984 . S
N588 H601 0.985 . S
N589 C591 1.356 . S
N589 H594 0.984 . S
N589 H595 0.985 . S
C590 C584 1.379 . S
C590 C587 1.363 . S
C590 N588 1.356 . S
C591 C585 1.363 . S
C591 C586 1.379 . S
C591 N589 1.356 . S
N592 C584 1.356 1_455 S
N592 H598 0.984 . S
N592 H599 0.984 . S
N593 C586 1.356 . S
N593 H596 0.984 . S
N593 H597 0.985 . S
H594 N589 0.984 . S
H595 N589 0.985 . S
H596 N593 0.984 . S
H597 N593 0.985 . S
H598 N592 0.984 . S
H599 N592 0.984 . S
H600 N588 0.984 . S
H601 N588 0.985 . S
C602 C603 1.363 1_565 S
C602 C608 1.379 . S
C602 N610 1.356 . S
C603 C602 1.363 1_545 S
C603 C609 1.363 . S
C604 C605 1.363 . S
C604 C609 1.379 . S
C604 N611 1.356 . S
C605 C604 1.363 . S
C605 C608 1.363 1_545 S
N606 C608 1.356 . S
N606 H618 0.984 . S
N606 H619 0.985 . S
N607 C609 1.356 . S
N607 H612 0.984 . S
N607 H613 0.985 . S
C608 C602 1.379 . S
C608 C605 1.363 1_565 S
C608 N606 1.356 . S
C609 C603 1.363 . S
C609 C604 1.379 . S
C609 N607 1.356 . S
N610 C602 1.356 . S
N610 H616 0.984 . S
N610 H617 0.984 . S
N611 C604 1.356 . S
N611 H614 0.984 . S
N611 H615 0.985 . S
H612 N607 0.984 . S
H613 N607 0.985 . S
H614 N611 0.984 . S
H615 N611 0.985 . S
H616 N610 0.984 . S
H617 N610 0.984 . S
H618 N606 0.984 . S
H619 N606 0.985 . S
C620 C621 1.363 . S
C620 C626 1.379 . S
C620 N628 1.356 . S
C621 C620 1.363 . S
C621 C627 1.363 1_545 S
C622 C623 1.363 1_565 S
C622 C627 1.379 . S
C622 N629 1.356 . S
C623 C622 1.363 1_545 S
C623 C626 1.363 . S
N624 C626 1.356 . S
N624 H636 0.984 . S
N624 H637 0.985 . S
N625 C627 1.356 . S
N625 H630 0.984 . S
N625 H631 0.985 . S
C626 C620 1.379 . S
C626 C623 1.363 . S
C626 N624 1.356 . S
C627 C621 1.363 1_565 S
C627 C622 1.379 . S
C627 N625 1.356 . S
N628 C620 1.356 . S
N628 H634 0.984 . S
N628 H635 0.984 . S
N629 C622 1.356 . S
N629 H632 0.984 . S
N629 H633 0.985 . S
H630 N625 0.984 . S
H631 N625 0.985 . S
H632 N629 0.984 . S
H633 N629 0.985 . S
H634 N628 0.984 . S
H635 N628 0.984 . S
H636 N624 0.984 . S
H637 N624 0.985 . S
C638 C639 1.363 . S
C638 C644 1.379 . S
C638 N646 1.356 . S
C639 C638 1.363 . S
C639 C645 1.363 . S
C640 C641 1.363 . S
C640 C645 1.379 . S
C640 N647 1.356 . S
C641 C640 1.363 . S
C641 C644 1.363 . S
N642 C644 1.356 . S
N642 H654 0.984 . S
N642 H655 0.985 . S
N643 C645 1.356 . S
N643 H648 0.984 . S
N643 H649 0.985 . S
C644 C638 1.379 . S
C644 C641 1.363 . S
C644 N642 1.356 . S
C645 C639 1.363 . S
C645 C640 1.379 . S
C645 N643 1.356 . S
N646 C638 1.356 . S
N646 H652 0.984 . S
N646 H653 0.984 . S
N647 C640 1.356 . S
N647 H650 0.984 . S
N647 H651 0.985 . S
H648 N643 0.984 . S
H649 N643 0.985 . S
H650 N647 0.984 . S
H651 N647 0.985 . S
H652 N646 0.984 . S
H653 N646 0.984 . S
H654 N642 0.984 . S
H655 N642 0.985 . S
C656 C657 1.363 . S
C656 C662 1.379 . S
C656 N664 1.356 . S
C657 C656 1.363 . S
C657 C663 1.363 . S
C658 C659 1.363 . S
C658 C663 1.379 . S
C658 N665 1.356 . S
C659 C658 1.363 . S
C659 C662 1.363 . S
N660 C662 1.356 . S
N660 H672 0.984 . S
N660 H673 0.985 . S
N661 C663 1.356 . S
N661 H666 0.984 . S
N661 H667 0.985 . S
C662 C656 1.379 . S
C662 C659 1.363 . S
C662 N660 1.356 . S
C663 C657 1.363 . S
C663 C658 1.379 . S
C663 N661 1.356 . S
N664 C656 1.356 . S
N664 H670 0.984 . S
N664 H671 0.984 . S
N665 C658 1.356 . S
N665 H668 0.984 . S
N665 H669 0.985 . S
H666 N661 0.984 . S
H667 N661 0.985 . S
H668 N665 0.984 . S
H669 N665 0.985 . S
H670 N664 0.984 . S
H671 N664 0.984 . S
H672 N660 0.984 . S
H673 N660 0.985 . S
C674 C675 1.363 . S
C674 C680 1.379 . S
C674 N682 1.356 . S
C675 C674 1.363 . S
C675 C681 1.363 . S
C676 C677 1.363 . S
C676 C681 1.379 . S
C676 N683 1.356 . S
C677 C676 1.363 . S
C677 C680 1.363 . S
N678 C680 1.356 . S
N678 H690 0.984 . S
N678 H691 0.985 . S
N679 C681 1.356 . S
N679 H684 0.984 . S
N679 H685 0.985 . S
C680 C674 1.379 . S
C680 C677 1.363 . S
C680 N678 1.356 . S
C681 C675 1.363 . S
C681 C676 1.379 . S
C681 N679 1.356 . S
N682 C674 1.356 . S
N682 H688 0.984 . S
N682 H689 0.984 . S
N683 C676 1.356 . S
N683 H686 0.984 . S
N683 H687 0.985 . S
H684 N679 0.984 . S
H685 N679 0.985 . S
H686 N683 0.984 . S
H687 N683 0.985 . S
H688 N682 0.984 . S
H689 N682 0.984 . S
H690 N678 0.984 . S
H691 N678 0.985 . S
C692 C693 1.363 . S
C692 C698 1.379 . S
C692 N700 1.356 . S
C693 C692 1.363 . S
C693 C699 1.363 . S
C694 C695 1.363 . S
C694 C699 1.379 . S
C694 N701 1.356 . S
C695 C694 1.363 . S
C695 C698 1.363 . S
N696 C698 1.356 . S
N696 H708 0.984 . S
N696 H709 0.985 . S
N697 C699 1.356 . S
N697 H702 0.984 . S
N697 H703 0.985 . S
C698 C692 1.379 . S
C698 C695 1.363 . S
C698 N696 1.356 . S
C699 C693 1.363 . S
C699 C694 1.379 . S
C699 N697 1.356 . S
N700 C692 1.356 . S
N700 H706 0.984 . S
N700 H707 0.984 . S
N701 C694 1.356 . S
N701 H704 0.984 . S
N701 H705 0.985 . S
H702 N697 0.984 . S
H703 N697 0.985 . S
H704 N701 0.984 . S
H705 N701 0.985 . S
H706 N700 0.984 . S
H707 N700 0.984 . S
H708 N696 0.984 . S
H709 N696 0.985 . S
C710 C711 1.363 . S
C710 C716 1.379 . S
C710 N718 1.356 . S
C711 C710 1.363 . S
C711 C717 1.363 . S
C712 C713 1.363 . S
C712 C717 1.379 . S
C712 N719 1.356 . S
C713 C712 1.363 . S
C713 C716 1.363 . S
N714 C716 1.356 . S
N714 H726 0.984 . S
N714 H727 0.985 . S
N715 C717 1.356 . S
N715 H720 0.984 . S
N715 H721 0.985 . S
C716 C710 1.379 . S
C716 C713 1.363 . S
C716 N714 1.356 . S
C717 C711 1.363 . S
C717 C712 1.379 . S
C717 N715 1.356 . S
N718 C710 1.356 . S
N718 H724 0.984 . S
N718 H725 0.984 . S
N719 C712 1.356 . S
N719 H722 0.984 . S
N719 H723 0.985 . S
H720 N715 0.984 . S
H721 N715 0.985 . S
H722 N719 0.984 . S
H723 N719 0.985 . S
H724 N718 0.984 . S
H725 N718 0.984 . S
H726 N714 0.984 . S
H727 N714 0.985 . S
C728 C729 1.363 . S
C728 C734 1.379 . S
C728 N736 1.356 . S
C729 C728 1.363 . S
C729 C735 1.363 . S
C730 C731 1.363 . S
C730 C735 1.379 . S
C730 N737 1.356 . S
C731 C730 1.363 . S
C731 C734 1.363 . S
N732 C734 1.356 . S
N732 H744 0.984 . S
N732 H745 0.985 . S
N733 C735 1.356 . S
N733 H738 0.984 . S
N733 H739 0.985 . S
C734 C728 1.379 . S
C734 C731 1.363 . S
C734 N732 1.356 . S
C735 C729 1.363 . S
C735 C730 1.379 . S
C735 N733 1.356 . S
N736 C728 1.356 . S
N736 H742 0.984 . S
N736 H743 0.984 . S
N737 C730 1.356 . S
N737 H740 0.984 . S
N737 H741 0.985 . S
H738 N733 0.984 . S
H739 N733 0.985 . S
H740 N737 0.984 . S
H741 N737 0.985 . S
H742 N736 0.984 . S
H743 N736 0.984 . S
H744 N732 0.984 . S
H745 N732 0.985 . S
C746 C747 1.363 . S
C746 C752 1.379 . S
C746 N754 1.356 . S
C747 C746 1.363 . S
C747 C753 1.363 . S
C748 C749 1.363 . S
C748 C753 1.379 . S
C748 N755 1.356 . S
C749 C748 1.363 . S
C749 C752 1.363 . S
N750 C752 1.356 . S
N750 H762 0.984 . S
N750 H763 0.985 . S
N751 C753 1.356 . S
N751 H756 0.984 . S
N751 H757 0.985 . S
C752 C746 1.379 . S
C752 C749 1.363 . S
C752 N750 1.356 . S
C753 C747 1.363 . S
C753 C748 1.379 . S
C753 N751 1.356 . S
N754 C746 1.356 . S
N754 H760 0.984 . S
N754 H761 0.984 . S
N755 C748 1.356 . S
N755 H758 0.984 . S
N755 H759 0.985 . S
H756 N751 0.984 . S
H757 N751 0.985 . S
H758 N755 0.984 . S
H759 N755 0.985 . S
H760 N754 0.984 . S
H761 N754 0.984 . S
H762 N750 0.984 . S
H763 N750 0.985 . S
C764 C765 1.363 . S
C764 C770 1.379 . S
C764 N772 1.356 . S
C765 C764 1.363 . S
C765 C771 1.363 . S
C766 C767 1.363 . S
C766 C771 1.379 . S
C766 N773 1.356 . S
C767 C766 1.363 . S
C767 C770 1.363 . S
N768 C770 1.356 . S
N768 H780 0.984 . S
N768 H781 0.985 . S
N769 C771 1.356 . S
N769 H774 0.984 . S
N769 H775 0.985 . S
C770 C764 1.379 . S
C770 C767 1.363 . S
C770 N768 1.356 . S
C771 C765 1.363 . S
C771 C766 1.379 . S
C771 N769 1.356 . S
N772 C764 1.356 . S
N772 H778 0.984 . S
N772 H779 0.984 . S
N773 C766 1.356 . S
N773 H776 0.984 . S
N773 H777 0.985 . S
H774 N769 0.984 . S
H775 N769 0.985 . S
H776 N773 0.984 . S
H777 N773 0.985 . S
H778 N772 0.984 . S
H779 N772 0.984 . S
H780 N768 0.984 . S
H781 N768 0.985 . S
C782 C783 1.363 . S
C782 C788 1.379 . S
C782 N790 1.356 . S
C783 C782 1.363 . S
C783 C789 1.363 . S
C784 C785 1.363 . S
C784 C789 1.379 . S
C784 N791 1.356 . S
C785 C784 1.363 . S
C785 C788 1.363 . S
N786 C788 1.356 . S
N786 H798 0.984 . S
N786 H799 0.985 . S
N787 C789 1.356 . S
N787 H792 0.984 . S
N787 H793 0.985 . S
C788 C782 1.379 . S
C788 C785 1.363 . S
C788 N786 1.356 . S
C789 C783 1.363 . S
C789 C784 1.379 . S
C789 N787 1.356 . S
N790 C782 1.356 . S
N790 H796 0.984 . S
N790 H797 0.984 . S
N791 C784 1.356 . S
N791 H794 0.984 . S
N791 H795 0.985 . S
H792 N787 0.984 . S
H793 N787 0.985 . S
H794 N791 0.984 . S
H795 N791 0.985 . S
H796 N790 0.984 . S
H797 N790 0.984 . S
H798 N786 0.984 . S
H799 N786 0.985 . S
C800 C801 1.363 . S
C800 C806 1.379 1_455 S
C800 N808 1.356 . S
C801 C800 1.363 . S
C801 C807 1.363 . S
C802 C803 1.364 . S
C802 C807 1.386 1_655 S
C802 N809 1.348 1_554 S
C803 C802 1.364 . S
C803 C806 1.363 . S
N804 C806 1.356 . S
N804 H816 0.984 . S
N804 H817 0.985 . S
N805 C807 1.356 . S
N805 H810 0.984 . S
N805 H811 0.985 . S
C806 C800 1.379 1_655 S
C806 C803 1.363 . S
C806 N804 1.356 . S
C807 C801 1.363 . S
C807 C802 1.386 1_455 S
C807 N805 1.356 . S
N808 C800 1.356 . S
N808 H814 0.984 . S
N808 H815 0.984 . S
N809 C802 1.348 1_556 S
N809 H812 0.984 . S
N809 H813 0.985 . S
H810 N805 0.984 . S
H811 N805 0.985 . S
H812 N809 0.984 . S
H813 N809 0.985 . S
H814 N808 0.984 . S
H815 N808 0.984 . S
H816 N804 0.984 . S
H817 N804 0.985 . S
C818 C819 1.363 1_655 S
C818 C824 1.379 1_566 S
C818 N826 1.356 . S
C819 C818 1.363 1_455 S
C819 C825 1.363 1_565 S
C820 C821 1.363 . S
C820 C825 1.379 . S
C820 N827 1.356 . S
C821 C820 1.363 . S
C821 C824 1.363 1_456 S
N822 C824 1.356 . S
N822 H834 0.984 . S
N822 H835 0.985 . S
N823 C825 1.356 1_565 S
N823 H828 0.984 . S
N823 H829 0.985 1_565 S
C824 C818 1.379 1_544 S
C824 C821 1.363 1_654 S
C824 N822 1.356 . S
C825 C819 1.363 1_545 S
C825 C820 1.379 . S
C825 N823 1.356 1_545 S
N826 C818 1.356 . S
N826 H832 0.984 1_556 S
N826 H833 0.984 . S
N827 C820 1.356 . S
N827 H830 0.984 . S
N827 H831 0.985 . S
H828 N823 0.984 . S
H829 N823 0.985 1_545 S
H830 N827 0.984 . S
H831 N827 0.985 . S
H832 N826 0.984 1_554 S
H833 N826 0.984 . S
H834 N822 0.984 . S
H835 N822 0.985 . S
C836 C837 1.363 1_565 S
C836 C842 1.379 1_554 S
C836 N844 1.356 . S
C837 C836 1.363 1_545 S
C837 C843 1.363 . S
C838 C839 1.363 . S
C838 C843 1.379 . S
C838 N845 1.356 . S
C839 C838 1.363 . S
C839 C842 1.363 1_544 S
N840 C842 1.356 . S
N840 H852 0.984 . S
N840 H853 0.985 . S
N841 C843 1.356 . S
N841 H846 0.984 . S
N841 H847 0.985 . S
C842 C836 1.379 1_556 S
C842 C839 1.363 1_566 S
C842 N840 1.356 . S
C843 C837 1.363 . S
C843 C838 1.379 . S
C843 N841 1.356 . S
N844 C836 1.356 . S
N844 H850 0.984 1_554 S
N844 H851 0.984 . S
N845 C838 1.356 . S
N845 H848 0.984 . S
N845 H849 0.985 . S
H846 N841 0.984 . S
H847 N841 0.985 . S
H848 N845 0.984 . S
H849 N845 0.985 . S
H850 N844 0.984 1_556 S
H851 N844 0.984 . S
H852 N840 0.984 . S
H853 N840 0.985 . S
C854 C855 1.363 . S
C854 C860 1.379 1_556 S
C854 N862 1.356 . S
C855 C854 1.363 . S
C855 C861 1.363 . S
C856 C857 1.363 . S
C856 C861 1.379 . S
C856 N863 1.356 . S
C857 C856 1.363 . S
C857 C860 1.363 1_556 S
N858 C860 1.356 . S
N858 H870 0.984 . S
N858 H871 0.985 . S
N859 C861 1.356 . S
N859 H864 0.984 . S
N859 H865 0.985 . S
C860 C854 1.379 1_554 S
C860 C857 1.363 1_554 S
C860 N858 1.356 . S
C861 C855 1.363 . S
C861 C856 1.379 . S
C861 N859 1.356 . S
N862 C854 1.356 . S
N862 H868 0.984 1_556 S
N862 H869 0.984 . S
N863 C856 1.356 . S
N863 H866 0.984 . S
N863 H867 0.985 . S
H864 N859 0.984 . S
H865 N859 0.985 . S
H866 N863 0.984 . S
H867 N863 0.985 . S
H868 N862 0.984 1_554 S
H869 N862 0.984 . S
H870 N858 0.984 . S
H871 N858 0.985 . S
C872 C873 1.363 . S
C872 C878 1.379 1_455 S
C872 N880 1.356 . S
C873 C872 1.363 . S
C873 C879 1.365 1_545 S
C874 C875 1.363 . S
C874 C879 1.377 1_645 S
C874 N881 1.356 . S
C875 C874 1.363 . S
C875 C878 1.363 . S
N876 C878 1.356 . S
N876 H888 0.984 . S
N876 H889 0.985 . S
N877 C879 1.357 . S
N877 H882 0.984 . S
N877 H883 0.981 1_455 S
C878 C872 1.379 1_655 S
C878 C875 1.363 . S
C878 N876 1.356 . S
C879 C873 1.365 1_565 S
C879 C874 1.377 1_465 S
C879 N877 1.357 . S
N880 C872 1.356 . S
N880 H886 0.984 . S
N880 H887 0.984 . S
N881 C874 1.356 . S
N881 H884 0.984 . S
N881 H885 0.985 1_545 S
H882 N877 0.984 . S
H883 N877 0.981 1_655 S
H884 N881 0.984 . S
H885 N881 0.985 1_565 S
H886 N880 0.984 . S
H887 N880 0.984 . S
H888 N876 0.984 . S
H889 N876 0.985 . S
C890 C891 1.363 . S
C890 C896 1.379 1_545 S
C890 N898 1.356 . S
C891 C890 1.363 . S
C891 C897 1.363 . S
C892 C893 1.363 1_545 S
C892 C897 1.379 . S
C892 N899 1.356 1_545 S
C893 C892 1.363 1_565 S
C893 C896 1.363 . S
N894 C896 1.356 . S
N894 H906 0.984 . S
N894 H907 0.985 . S
N895 C897 1.356 . S
N895 H900 0.984 . S
N895 H901 0.985 . S
C896 C890 1.379 1_565 S
C896 C893 1.363 . S
C896 N894 1.356 . S
C897 C891 1.363 . S
C897 C892 1.379 . S
C897 N895 1.356 . S
N898 C890 1.356 . S
N898 H904 0.984 . S
N898 H905 0.984 . S
N899 C892 1.356 1_565 S
N899 H902 0.984 . S
N899 H903 0.985 1_565 S
H900 N895 0.984 . S
H901 N895 0.985 . S
H902 N899 0.984 . S
H903 N899 0.985 1_545 S
H904 N898 0.984 . S
H905 N898 0.984 . S
H906 N894 0.984 . S
H907 N894 0.985 . S
C908 C909 1.363 . S
C908 C914 1.379 . S
C908 N916 1.356 . S
C909 C908 1.363 . S
C909 C915 1.363 . S
C910 C911 1.363 . S
C910 C915 1.379 . S
C910 N917 1.356 . S
C911 C910 1.363 . S
C911 C914 1.363 . S
N912 C914 1.356 . S
N912 H924 0.984 . S
N912 H925 0.985 . S
N913 C915 1.356 . S
N913 H918 0.984 . S
N913 H919 0.985 . S
C914 C908 1.379 . S
C914 C911 1.363 . S
C914 N912 1.356 . S
C915 C909 1.363 . S
C915 C910 1.379 . S
C915 N913 1.356 . S
N916 C908 1.356 . S
N916 H922 0.984 . S
N916 H923 0.984 . S
N917 C910 1.356 . S
N917 H920 0.984 . S
N917 H921 0.985 . S
H918 N913 0.984 . S
H919 N913 0.985 . S
H920 N917 0.984 . S
H921 N917 0.985 . S
H922 N916 0.984 . S
H923 N916 0.984 . S
H924 N912 0.984 . S
H925 N912 0.985 . S
C926 C927 1.363 . S
C926 C932 1.379 . S
C926 N934 1.356 . S
C927 C926 1.363 . S
C927 C933 1.363 1_455 S
C928 C929 1.363 1_655 S
C928 C933 1.379 . S
C928 N935 1.356 . S
C929 C928 1.363 1_455 S
C929 C932 1.363 . S
N930 C932 1.356 . S
N930 H942 0.984 . S
N930 H943 0.985 . S
N931 C933 1.356 . S
N931 H936 0.984 . S
N931 H937 0.985 . S
C932 C926 1.379 . S
C932 C929 1.363 . S
C932 N930 1.356 . S
C933 C927 1.363 1_655 S
C933 C928 1.379 . S
C933 N931 1.356 . S
N934 C926 1.356 . S
N934 H940 0.984 . S
N934 H941 0.984 . S
N935 C928 1.356 . S
N935 H938 0.984 . S
N935 H939 0.985 . S
H936 N931 0.984 . S
H937 N931 0.985 . S
H938 N935 0.984 . S
H939 N935 0.985 . S
H940 N934 0.984 . S
H941 N934 0.984 . S
H942 N930 0.984 . S
H943 N930 0.985 . S
C369 C16 2.074 . S
C371 C62 2.074 . S
C387 C39 2.166 . S
C389 C85 2.166 . S
C405 C108 2.074 . S
C407 C154 2.074 . S
C423 C177 2.166 . S
C425 C131 2.166 . S
C441 C200 1.594 . S
C443 C246 1.594 . S
C459 N265 1.364 . S
C461 N219 1.364 . S
C477 C338 1.594 . S
C479 C292 1.594 . S
C495 N357 1.364 . S
C497 N311 1.364 . S
C513 C168 2.285 1_455 S
C515 C7 2.310 . S
C531 C30 2.285 1_455 S
C533 C99 2.310 1_545 S
C549 C122 2.285 . S
C551 C53 2.310 1_545 S
C567 C76 2.285 . S
C569 C145 2.310 . S
C585 N347 1.536 . S
C587 C191 1.691 . S
C603 N209 1.536 1_545 S
C605 C283 1.691 . S
C621 C237 1.691 . S
C623 N301 1.536 1_545 S
C639 C329 1.691 . S
C641 N255 1.536 . S
C657 N2 1.138 . S
C659 N94 1.138 . S
C675 N25 0.931 . S
C677 N117 0.931 . S
C693 N140 1.138 . S
C695 N48 1.138 . S
C711 N71 0.931 . S
C713 N163 0.931 . S
C729 N278 1.128 . S
C731 N186 1.128 . S
C747 C306 1.344 . S
C749 C214 1.344 . S
C765 N232 1.128 . S
C767 N324 1.128 . S
C783 C260 1.344 . S
C785 C352 1.344 . S
C801 N12 2.244 . S
C803 N196 2.258 1_554 S
C819 C223 1.961 . S
C821 N35 2.099 1_556 S
C837 N58 2.243 1_545 S
C839 N242 2.258 1_554 S
C855 C269 1.961 . S
C857 N81 2.099 1_556 S
C873 N104 2.244 1_545 S
C875 N288 2.258 . S
C891 N127 2.099 . S
C893 C315 1.961 . S
C909 N334 2.258 . S
C911 N150 2.243 . S
C927 N173 2.099 . S
C929 C361 1.961 . S
