# Generated by pormake.
# Topology dia-g, (3)-cn, num edge types: 1
# Building blocks:
#     Node 0, Type 0, BuildingBlock: OLANEW_clean_sbu_2, # of connection points: 3
#     Node 1, Type 0, BuildingBlock: OLANEW_clean_sbu_2, # of connection points: 3
#     Node 2, Type 0, BuildingBlock: OLANEW_clean_sbu_2, # of connection points: 3
#     Node 3, Type 0, BuildingBlock: OLANEW_clean_sbu_2, # of connection points: 3
#     Node 4, Type 0, BuildingBlock: OLANEW_clean_sbu_2, # of connection points: 3
#     Node 5, Type 0, BuildingBlock: OLANEW_clean_sbu_2, # of connection points: 3
#     Node 6, Type 0, BuildingBlock: OLANEW_clean_sbu_2, # of connection points: 3
#     Node 7, Type 0, BuildingBlock: OLANEW_clean_sbu_2, # of connection points: 3
#     Node 8, Type 0, BuildingBlock: OLANEW_clean_sbu_2, # of connection points: 3
#     Node 9, Type 0, BuildingBlock: OLANEW_clean_sbu_2, # of connection points: 3
#     Node 10, Type 0, BuildingBlock: OLANEW_clean_sbu_2, # of connection points: 3
#     Node 11, Type 0, BuildingBlock: OLANEW_clean_sbu_2, # of connection points: 3
#     Node 12, Type 0, BuildingBlock: OLANEW_clean_sbu_2, # of connection points: 3
#     Node 13, Type 0, BuildingBlock: OLANEW_clean_sbu_2, # of connection points: 3
#     Node 14, Type 0, BuildingBlock: OLANEW_clean_sbu_2, # of connection points: 3
#     Node 15, Type 0, BuildingBlock: OLANEW_clean_sbu_2, # of connection points: 3
#     Edge 16, Type (0, 0), BuildingBlock: KIFKEQ_clean_linker_1, # of connection points: 2
#     Edge 17, Type (0, 0), BuildingBlock: KIFKEQ_clean_linker_1, # of connection points: 2
#     Edge 18, Type (0, 0), BuildingBlock: KIFKEQ_clean_linker_1, # of connection points: 2
#     Edge 19, Type (0, 0), BuildingBlock: KIFKEQ_clean_linker_1, # of connection points: 2
#     Edge 20, Type (0, 0), BuildingBlock: KIFKEQ_clean_linker_1, # of connection points: 2
#     Edge 21, Type (0, 0), BuildingBlock: KIFKEQ_clean_linker_1, # of connection points: 2
#     Edge 22, Type (0, 0), BuildingBlock: KIFKEQ_clean_linker_1, # of connection points: 2
#     Edge 23, Type (0, 0), BuildingBlock: KIFKEQ_clean_linker_1, # of connection points: 2
#     Edge 24, Type (0, 0), BuildingBlock: KIFKEQ_clean_linker_1, # of connection points: 2
#     Edge 25, Type (0, 0), BuildingBlock: KIFKEQ_clean_linker_1, # of connection points: 2
#     Edge 26, Type (0, 0), BuildingBlock: KIFKEQ_clean_linker_1, # of connection points: 2
#     Edge 27, Type (0, 0), BuildingBlock: KIFKEQ_clean_linker_1, # of connection points: 2
#     Edge 28, Type (0, 0), BuildingBlock: KIFKEQ_clean_linker_1, # of connection points: 2
#     Edge 29, Type (0, 0), BuildingBlock: KIFKEQ_clean_linker_1, # of connection points: 2
#     Edge 30, Type (0, 0), BuildingBlock: KIFKEQ_clean_linker_1, # of connection points: 2
#     Edge 31, Type (0, 0), BuildingBlock: KIFKEQ_clean_linker_1, # of connection points: 2
#     Edge 32, Type (0, 0), BuildingBlock: KIFKEQ_clean_linker_1, # of connection points: 2
#     Edge 33, Type (0, 0), BuildingBlock: KIFKEQ_clean_linker_1, # of connection points: 2
#     Edge 34, Type (0, 0), BuildingBlock: KIFKEQ_clean_linker_1, # of connection points: 2
#     Edge 35, Type (0, 0), BuildingBlock: KIFKEQ_clean_linker_1, # of connection points: 2
#     Edge 36, Type (0, 0), BuildingBlock: KIFKEQ_clean_linker_1, # of connection points: 2
#     Edge 37, Type (0, 0), BuildingBlock: KIFKEQ_clean_linker_1, # of connection points: 2
#     Edge 38, Type (0, 0), BuildingBlock: KIFKEQ_clean_linker_1, # of connection points: 2
#     Edge 39, Type (0, 0), BuildingBlock: KIFKEQ_clean_linker_1, # of connection points: 2
# Relax obj value: 0.011
# Max RMSD: 0.029
# Mean RMSD: 0.029
data_MOF--net-dia-g--node1-OLANEW_clean_sbu_2--edge1-KIFKEQ_clean_linker_1
_symmetry_space_group_name_H-M    P1
_symmetry_Int_Tables_number       1
_symmetry_cell_setting            triclinic
loop_
_symmetry_equiv_pos_as_xyz
'x, y, z'
_cell_length_a     59.568818
_cell_length_b     59.571589
_cell_length_c     85.679097
_cell_angle_alpha  90.002288
_cell_angle_beta   89.998204
_cell_angle_gamma 89.948133
loop_
_atom_site_label
_atom_site_type_symbol
_atom_site_fract_x
_atom_site_fract_y
_atom_site_fract_z
_atom_type_partial_charge
O0 O 0.12517 0.16044 0.43561 0.0
Cd1 Cd 0.12398 0.16396 0.40724 0.0
O2 O 0.10614 0.12925 0.43317 0.0
Cd3 Cd 0.09086 0.09753 0.44042 0.0
O4 O 0.07102 0.06748 0.445 0.0
C5 C 0.05299 0.06895 0.45286 0.0
O6 O 0.04699 0.08859 0.45848 0.0
C7 C 0.11605 0.14341 0.4419 0.0
C8 C 0.16727 0.16116 0.39505 0.0
O9 O 0.15817 0.18026 0.39781 0.0
O10 O 0.15579 0.14344 0.39789 0.0
O11 O 0.84621 0.63125 0.68757 0.0
Cd12 Cd 0.83791 0.62868 0.65973 0.0
O13 O 0.87559 0.60952 0.68474 0.0
Cd14 Cd 0.90639 0.59187 0.69143 0.0
O15 O 0.93556 0.57056 0.69583 0.0
C16 C 0.93266 0.55058 0.70063 0.0
O17 O 0.91212 0.54342 0.70315 0.0
C18 C 0.86297 0.62122 0.69355 0.0
C19 C 0.83788 0.67128 0.64624 0.0
O20 O 0.82002 0.66307 0.65232 0.0
O21 O 0.85572 0.65923 0.64641 0.0
O22 O 0.37552 0.33961 0.93157 0.0
Cd23 Cd 0.37492 0.33651 0.90316 0.0
O24 O 0.39075 0.37277 0.92855 0.0
Cd25 Cd 0.40681 0.40369 0.93657 0.0
O26 O 0.4268 0.43353 0.94152 0.0
C27 C 0.44518 0.43172 0.94895 0.0
O28 O 0.4515 0.41183 0.95391 0.0
C29 C 0.3831 0.3576 0.93753 0.0
C30 C 0.33092 0.33776 0.89214 0.0
O31 O 0.34091 0.319 0.89449 0.0
O32 O 0.3418 0.35589 0.89486 0.0
O33 O 0.6613 0.8751 0.18997 0.0
Cd34 Cd 0.67093 0.87637 0.16228 0.0
O35 O 0.62824 0.8896 0.18492 0.0
Cd36 Cd 0.5961 0.90464 0.19152 0.0
O37 O 0.56638 0.92556 0.19501 0.0
C38 C 0.56853 0.94667 0.19349 0.0
O39 O 0.58844 0.95489 0.19021 0.0
C40 C 0.64224 0.88181 0.19472 0.0
C41 C 0.66877 0.83367 0.14904 0.0
O42 O 0.68687 0.84081 0.15542 0.0
O43 O 0.65171 0.84681 0.14884 0.0
O44 O 0.12493 0.34639 0.81595 0.0
Cd45 Cd 0.12574 0.3444 0.8444 0.0
O46 O 0.10947 0.37956 0.81836 0.0
Cd47 Cd 0.09309 0.41005 0.80982 0.0
O48 O 0.07272 0.43961 0.80469 0.0
C49 C 0.05394 0.43739 0.79783 0.0
O50 O 0.04745 0.41725 0.79352 0.0
C51 C 0.11717 0.36408 0.80966 0.0
C52 C 0.16985 0.34286 0.85521 0.0
O53 O 0.15852 0.32479 0.85327 0.0
O54 O 0.16026 0.36162 0.85216 0.0
O55 O 0.6517 0.63427 0.0638 0.0
Cd56 Cd 0.65787 0.6337 0.09198 0.0
O57 O 0.62025 0.61571 0.06682 0.0
Cd58 Cd 0.59092 0.59686 0.05882 0.0
O59 O 0.56243 0.57467 0.05447 0.0
C60 C 0.56495 0.55369 0.05652 0.0
O61 O 0.58471 0.54609 0.06085 0.0
C62 C 0.63436 0.62524 0.05788 0.0
C63 C 0.66014 0.67703 0.10419 0.0
O64 O 0.67774 0.66714 0.09899 0.0
O65 O 0.64146 0.66639 0.10364 0.0
O66 O 0.37034 0.14699 0.31588 0.0
Cd67 Cd 0.37065 0.1478 0.34437 0.0
O68 O 0.39192 0.11733 0.3169 0.0
Cd69 Cd 0.4102 0.08771 0.30869 0.0
O70 O 0.4326 0.05961 0.30366 0.0
C71 C 0.45313 0.06349 0.30064 0.0
O72 O 0.46014 0.08438 0.30023 0.0
C73 C 0.38094 0.13151 0.30882 0.0
C74 C 0.32696 0.15068 0.35585 0.0
O75 O 0.33897 0.16834 0.35409 0.0
O76 O 0.33569 0.13168 0.35233 0.0
O77 O 0.84606 0.87167 0.56207 0.0
Cd78 Cd 0.84009 0.87214 0.59026 0.0
O79 O 0.87831 0.88889 0.5649 0.0
Cd80 Cd 0.90822 0.90653 0.55658 0.0
O81 O 0.93709 0.92793 0.55157 0.0
C82 C 0.93394 0.94792 0.54686 0.0
O83 O 0.91329 0.95505 0.54472 0.0
C84 C 0.86369 0.87997 0.55605 0.0
C85 C 0.83955 0.82869 0.60235 0.0
O86 O 0.82156 0.83792 0.59721 0.0
O87 O 0.85779 0.84007 0.60184 0.0
O88 O 0.62649 0.65276 0.93389 0.0
Cd89 Cd 0.62615 0.65331 0.9054 0.0
O90 O 0.60706 0.62168 0.93282 0.0
Cd91 Cd 0.59077 0.59094 0.94101 0.0
O92 O 0.56997 0.56157 0.94571 0.0
C93 C 0.54996 0.56429 0.9505 0.0
O94 O 0.54254 0.58478 0.95293 0.0
C95 C 0.61693 0.63661 0.94093 0.0
C96 C 0.66986 0.65474 0.8938 0.0
O97 O 0.65839 0.67279 0.89554 0.0
O98 O 0.66058 0.63605 0.89741 0.0
O99 O 0.34449 0.12712 0.18629 0.0
Cd100 Cd 0.33782 0.12671 0.15818 0.0
O101 O 0.37661 0.10977 0.18297 0.0
Cd102 Cd 0.40665 0.09191 0.19085 0.0
O103 O 0.43534 0.06996 0.19531 0.0
C104 C 0.43404 0.04961 0.19094 0.0
O105 O 0.41549 0.04264 0.18421 0.0
C106 C 0.36226 0.11871 0.19205 0.0
C107 C 0.3375 0.17011 0.146 0.0
O108 O 0.31953 0.16113 0.15133 0.0
O109 O 0.35563 0.15851 0.14637 0.0
O110 O 0.86904 0.85141 0.43209 0.0
Cd111 Cd 0.86876 0.85103 0.40359 0.0
O112 O 0.88915 0.88206 0.4309 0.0
Cd113 Cd 0.90603 0.91232 0.43938 0.0
O114 O 0.92713 0.94104 0.4452 0.0
C115 C 0.94685 0.93774 0.45039 0.0
O116 O 0.95382 0.91703 0.45251 0.0
C117 C 0.87911 0.86731 0.43906 0.0
C118 C 0.82499 0.84715 0.39242 0.0
O119 O 0.83756 0.8298 0.39388 0.0
O120 O 0.83318 0.86631 0.39612 0.0
O121 O 0.15445 0.36815 0.68767 0.0
Cd122 Cd 0.16312 0.36969 0.65984 0.0
O123 O 0.12452 0.38887 0.68409 0.0
Cd124 Cd 0.09313 0.40584 0.69027 0.0
O125 O 0.06324 0.42636 0.69411 0.0
C126 C 0.06479 0.44477 0.70154 0.0
O127 O 0.08441 0.45085 0.70712 0.0
C128 C 0.13731 0.37798 0.69327 0.0
C129 C 0.16356 0.32663 0.6471 0.0
O130 O 0.18131 0.33517 0.6531 0.0
O131 O 0.14563 0.33855 0.647 0.0
O132 O 0.62205 0.83652 0.31373 0.0
Cd133 Cd 0.62189 0.8299 0.34185 0.0
O134 O 0.61057 0.87064 0.31895 0.0
Cd135 Cd 0.59783 0.90379 0.31249 0.0
O136 O 0.57842 0.9343 0.30839 0.0
C137 C 0.56132 0.93348 0.29954 0.0
O138 O 0.55625 0.91441 0.29269 0.0
C139 C 0.61658 0.85598 0.30901 0.0
C140 C 0.6653 0.83341 0.35372 0.0
O141 O 0.657 0.81424 0.35016 0.0
O142 O 0.65299 0.85085 0.35183 0.0
O143 O 0.15572 0.12739 0.56329 0.0
Cd144 Cd 0.16309 0.12567 0.59129 0.0
O145 O 0.12351 0.11023 0.56646 0.0
Cd146 Cd 0.09291 0.09339 0.55856 0.0
O147 O 0.06325 0.0729 0.55396 0.0
C148 C 0.06508 0.05456 0.54648 0.0
O149 O 0.08491 0.04851 0.54123 0.0
C150 C 0.13773 0.11955 0.55749 0.0
C151 C 0.16352 0.16872 0.60405 0.0
O152 O 0.18142 0.15991 0.59844 0.0
O153 O 0.14544 0.15707 0.60374 0.0
O154 O 0.87454 0.65816 0.81566 0.0
Cd155 Cd 0.87405 0.66132 0.84407 0.0
O156 O 0.89064 0.62538 0.81864 0.0
Cd157 Cd 0.90747 0.59497 0.81038 0.0
O158 O 0.92828 0.56584 0.80494 0.0
C159 C 0.94759 0.56868 0.79894 0.0
O160 O 0.95432 0.58917 0.79576 0.0
C161 C 0.88255 0.64036 0.80968 0.0
C162 C 0.83013 0.66001 0.85526 0.0
O163 O 0.84001 0.67879 0.85279 0.0
O164 O 0.84108 0.6419 0.85255 0.0
O165 O 0.34535 0.3663 0.05939 0.0
Cd166 Cd 0.33652 0.36921 0.08714 0.0
O167 O 0.37445 0.38827 0.06247 0.0
Cd168 Cd 0.40519 0.40624 0.05614 0.0
O169 O 0.43404 0.42824 0.05253 0.0
C170 C 0.43218 0.44872 0.05647 0.0
O171 O 0.41303 0.45576 0.06232 0.0
C172 C 0.36214 0.37642 0.05355 0.0
C173 C 0.33637 0.32685 0.10097 0.0
O174 O 0.31858 0.33496 0.0947 0.0
O175 O 0.35419 0.33889 0.10082 0.0
H176 H 0.09787 0.12652 0.5424 0.0
H177 H 0.16886 0.11766 0.53442 0.0
H178 H 0.09198 0.13188 0.51447 0.0
H179 H 0.16305 0.12261 0.50648 0.0
H180 H 0.14958 0.15806 0.46073 0.0
H181 H 0.15415 0.15182 0.48861 0.0
H182 H 0.09221 0.11408 0.48942 0.0
H183 H 0.08695 0.12171 0.46172 0.0
C184 C 0.11212 0.12511 0.53462 0.0
C185 C 0.13377 0.12133 0.54053 0.0
C186 C 0.10878 0.12829 0.51861 0.0
C187 C 0.12704 0.12774 0.5082 0.0
C188 C 0.14865 0.12356 0.51417 0.0
C189 C 0.15198 0.12057 0.53016 0.0
C190 C 0.13689 0.14851 0.46688 0.0
C191 C 0.11824 0.13979 0.45891 0.0
C192 C 0.13963 0.1447 0.48284 0.0
C193 C 0.12377 0.13208 0.49124 0.0
C194 C 0.1048 0.12381 0.48332 0.0
C195 C 0.10201 0.12776 0.46735 0.0
H196 H 0.88358 0.59148 0.71352 0.0
H197 H 0.85163 0.65651 0.71195 0.0
H198 H 0.89117 0.59651 0.74121 0.0
H199 H 0.85769 0.66091 0.73984 0.0
H200 H 0.888 0.67227 0.78731 0.0
H201 H 0.8854 0.66757 0.75907 0.0
H202 H 0.87198 0.59684 0.76547 0.0
H203 H 0.87512 0.60159 0.79361 0.0
C204 C 0.8786 0.60705 0.71899 0.0
C205 C 0.86765 0.6239 0.71041 0.0
C206 C 0.88249 0.60974 0.73498 0.0
C207 C 0.87519 0.62921 0.7428 0.0
C208 C 0.86403 0.64593 0.73419 0.0
C209 C 0.86033 0.64331 0.71821 0.0
C210 C 0.88473 0.6557 0.78262 0.0
C211 C 0.88216 0.63722 0.7926 0.0
C212 C 0.88309 0.653 0.76645 0.0
C213 C 0.87845 0.63181 0.75994 0.0
C214 C 0.87606 0.6133 0.77001 0.0
C215 C 0.87792 0.61599 0.78616 0.0
H216 H 0.3751 0.39628 0.95363 0.0
H217 H 0.38897 0.32576 0.9599 0.0
H218 H 0.37177 0.40094 0.98176 0.0
H219 H 0.38612 0.33037 0.98814 0.0
H220 H 0.35148 0.34102 0.03507 0.0
H221 H 0.35801 0.3367 0.00722 0.0
H222 H 0.39086 0.40136 0.00611 0.0
H223 H 0.38287 0.40628 0.03377 0.0
C224 C 0.3781 0.38191 0.96107 0.0
C225 C 0.38267 0.36074 0.95461 0.0
C226 C 0.37611 0.38454 0.97722 0.0
C227 C 0.37869 0.36604 0.98727 0.0
C228 C 0.38368 0.34492 0.98076 0.0
C229 C 0.38545 0.34228 0.9646 0.0
C230 C 0.36015 0.3543 0.02888 0.0
C231 C 0.36717 0.37375 0.03674 0.0
C232 C 0.36411 0.35172 0.01292 0.0
C233 C 0.37522 0.36856 0.0044 0.0
C234 C 0.38224 0.38805 0.01228 0.0
C235 C 0.37811 0.39069 0.02825 0.0
H236 H 0.60217 0.87033 0.2079 0.0
H237 H 0.67014 0.88941 0.21921 0.0
H238 H 0.59394 0.86556 0.23574 0.0
H239 H 0.66186 0.88484 0.24701 0.0
H240 H 0.63065 0.89501 0.29574 0.0
H241 H 0.63508 0.90312 0.26791 0.0
H242 H 0.61013 0.83706 0.25667 0.0
H243 H 0.60582 0.82888 0.28455 0.0
C244 C 0.61517 0.87397 0.21636 0.0
C245 C 0.6367 0.8805 0.21147 0.0
C246 C 0.61053 0.87103 0.23223 0.0
C247 C 0.62726 0.87493 0.24346 0.0
C248 C 0.64863 0.88195 0.23857 0.0
C249 C 0.65338 0.88446 0.22271 0.0
C250 C 0.62564 0.88243 0.28731 0.0
C251 C 0.61761 0.86144 0.29224 0.0
C252 C 0.62839 0.88698 0.27143 0.0
C253 C 0.62286 0.87073 0.2602 0.0
C254 C 0.61429 0.84994 0.26511 0.0
C255 C 0.61193 0.84524 0.28102 0.0
H256 H 0.11158 0.33122 0.78798 0.0
H257 H 0.12455 0.40214 0.79273 0.0
H258 H 0.11422 0.33463 0.75966 0.0
H259 H 0.12761 0.40561 0.7645 0.0
H260 H 0.11601 0.40836 0.71238 0.0
H261 H 0.10821 0.40461 0.74016 0.0
H262 H 0.14241 0.34057 0.74047 0.0
H263 H 0.1488 0.34371 0.71252 0.0
C264 C 0.11485 0.34757 0.78293 0.0
C265 C 0.11745 0.36649 0.79252 0.0
C266 C 0.1165 0.34953 0.76672 0.0
C267 C 0.12116 0.37041 0.75975 0.0
C268 C 0.12353 0.38937 0.7694 0.0
C269 C 0.12168 0.38742 0.7856 0.0
C270 C 0.12113 0.39314 0.71825 0.0
C271 C 0.13241 0.37603 0.71014 0.0
C272 C 0.1171 0.39118 0.73428 0.0
C273 C 0.12454 0.3722 0.74258 0.0
C274 C 0.13599 0.35519 0.73443 0.0
C275 C 0.13987 0.35709 0.71842 0.0
H276 H 0.58754 0.61645 0.9614 0.0
H277 H 0.64932 0.65417 0.95953 0.0
H278 H 0.59187 0.6121 0.98949 0.0
H279 H 0.65285 0.65132 0.98773 0.0
H280 H 0.66659 0.62294 0.03558 0.0
H281 H 0.66184 0.62497 0.00737 0.0
H282 H 0.59013 0.63205 0.01352 0.0
H283 H 0.59499 0.62945 0.04173 0.0
C284 C 0.60223 0.6235 0.96693 0.0
C285 C 0.61851 0.63493 0.95814 0.0
C286 C 0.60447 0.62145 0.98312 0.0
C287 C 0.62288 0.63111 0.99091 0.0
C288 C 0.63877 0.64315 0.98212 0.0
C289 C 0.63661 0.64501 0.96595 0.0
C290 C 0.64981 0.62477 0.03086 0.0
C291 C 0.63113 0.62567 0.04081 0.0
C292 C 0.64707 0.6261 0.0147 0.0
C293 C 0.62559 0.62876 0.00811 0.0
C294 C 0.60687 0.62958 0.01813 0.0
C295 C 0.60962 0.62801 0.03431 0.0
H296 H 0.40164 0.12475 0.20786 0.0
H297 H 0.33058 0.11465 0.2146 0.0
H298 H 0.40682 0.12772 0.23603 0.0
H299 H 0.33569 0.11695 0.24276 0.0
H300 H 0.34723 0.14695 0.29042 0.0
H301 H 0.34343 0.1437 0.26228 0.0
H302 H 0.40667 0.10817 0.26013 0.0
H303 H 0.41122 0.11304 0.28816 0.0
C304 C 0.38723 0.1226 0.21541 0.0
C305 C 0.36576 0.11918 0.20909 0.0
C306 C 0.39016 0.12437 0.23156 0.0
C307 C 0.37167 0.12264 0.24173 0.0
C308 C 0.35025 0.11883 0.23532 0.0
C309 C 0.34732 0.11734 0.21919 0.0
C310 C 0.36038 0.13852 0.28393 0.0
C311 C 0.37921 0.12962 0.29163 0.0
C312 C 0.35808 0.13642 0.26779 0.0
C313 C 0.37452 0.12527 0.2589 0.0
C314 C 0.39363 0.11681 0.26657 0.0
C315 C 0.39602 0.11913 0.28274 0.0
H316 H 0.90971 0.88603 0.45929 0.0
H317 H 0.84624 0.85118 0.45789 0.0
H318 H 0.90594 0.89073 0.4874 0.0
H319 H 0.84321 0.85432 0.48611 0.0
H320 H 0.83134 0.8837 0.53392 0.0
H321 H 0.83566 0.88124 0.5057 0.0
H322 H 0.90704 0.87091 0.51147 0.0
H323 H 0.90264 0.87393 0.5397 0.0
C324 C 0.89478 0.8797 0.46493 0.0
C325 C 0.87787 0.869 0.45627 0.0
C326 C 0.89285 0.88192 0.48113 0.0
C327 C 0.8741 0.87317 0.48905 0.0
C328 C 0.85758 0.8618 0.48039 0.0
C329 C 0.85944 0.85977 0.46421 0.0
C330 C 0.84796 0.88107 0.52911 0.0
C331 C 0.8667 0.87938 0.53896 0.0
C332 C 0.85045 0.87949 0.51295 0.0
C333 C 0.8717 0.87578 0.50626 0.0
C334 C 0.89049 0.87418 0.51617 0.0
C335 C 0.888 0.876 0.53235 0.0
H336 H 0.93765 0.98251 0.44733 0.0
H337 H 0.99093 0.9363 0.45928 0.0
H338 H 0.96371 0.01382 0.4497 0.0
H339 H 0.01692 0.96771 0.46186 0.0
H340 H 0.06045 0.0261 0.44267 0.0
H341 H 0.03484 0.9943 0.44387 0.0
H342 H 0.98644 0.03509 0.4685 0.0
H343 H 0.01193 0.06707 0.46712 0.0
C344 C 0.95486 0.97904 0.45062 0.0
C345 C 0.96224 0.95688 0.453 0.0
C346 C 0.96977 0.99701 0.45208 0.0
C347 C 0.9924 0.99324 0.45592 0.0
C348 C 0.99964 0.97113 0.4587 0.0
C349 C 0.98472 0.95315 0.45729 0.0
C350 C 0.04443 0.02826 0.44845 0.0
C351 C 0.03818 0.04918 0.45469 0.0
C352 C 0.0298 0.00998 0.44922 0.0
C353 C 0.00857 0.0122 0.45623 0.0
C354 C 0.00256 0.03294 0.46285 0.0
C355 C 0.01723 0.05123 0.46211 0.0
H356 H 0.06295 0.48624 0.7152 0.0
H357 H 0.02194 0.43721 0.69137 0.0
H358 H 0.03088 0.51167 0.71654 0.0
H359 H 0.99003 0.46277 0.69251 0.0
H360 H 0.93198 0.50627 0.70895 0.0
H361 H 0.9637 0.48048 0.71074 0.0
H362 H 0.00883 0.53421 0.69809 0.0
H363 H 0.9772 0.56008 0.69653 0.0
C364 C 0.04709 0.48084 0.7103 0.0
C365 C 0.04504 0.45972 0.70311 0.0
C366 C 0.02875 0.49547 0.711 0.0
C367 C 0.00793 0.48928 0.70458 0.0
C368 C 0.00576 0.46796 0.69772 0.0
C369 C 0.0241 0.45335 0.69698 0.0
C370 C 0.94868 0.51263 0.70666 0.0
C371 C 0.95204 0.53522 0.70252 0.0
C372 C 0.96684 0.49781 0.7076 0.0
C373 C 0.98877 0.50527 0.70449 0.0
C374 C 0.99218 0.52798 0.70072 0.0
C375 C 0.97402 0.54278 0.69973 0.0
H376 H 0.50568 0.56455 0.95894 0.0
H377 H 0.55982 0.51989 0.94605 0.0
H378 H 0.48011 0.53267 0.96032 0.0
H379 H 0.53416 0.48812 0.9472 0.0
H380 H 0.48645 0.4332 0.96291 0.0
H381 H 0.51163 0.46533 0.96506 0.0
H382 H 0.46263 0.50695 0.9417 0.0
H383 H 0.43732 0.47499 0.93977 0.0
C384 C 0.51217 0.54794 0.95647 0.0
C385 C 0.53478 0.54479 0.9523 0.0
C386 C 0.49747 0.52969 0.95718 0.0
C387 C 0.50507 0.50788 0.95379 0.0
C388 C 0.52782 0.50466 0.95004 0.0
C389 C 0.54251 0.52291 0.94929 0.0
C390 C 0.48097 0.44924 0.95834 0.0
C391 C 0.45991 0.45149 0.9511 0.0
C392 C 0.49546 0.46762 0.95951 0.0
C393 C 0.48917 0.48867 0.9535 0.0
C394 C 0.46788 0.49104 0.94661 0.0
C395 C 0.45342 0.47266 0.94542 0.0
H396 H 0.56731 0.99207 0.1892 0.0
H397 H 0.52511 0.93537 0.20046 0.0
H398 H 0.53466 0.01664 0.18972 0.0
H399 H 0.49247 0.96008 0.20134 0.0
H400 H 0.43723 0.006 0.18139 0.0
H401 H 0.46959 0.98117 0.18319 0.0
H402 H 0.50689 0.03327 0.20679 0.0
H403 H 0.47463 0.05834 0.20467 0.0
C404 C 0.5511 0.98487 0.19194 0.0
C405 C 0.54881 0.96173 0.1947 0.0
C406 C 0.53237 0.999 0.19234 0.0
C407 C 0.51092 0.99034 0.19554 0.0
C408 C 0.5087 0.96725 0.19862 0.0
C409 C 0.52744 0.9531 0.19819 0.0
C410 C 0.45229 0.01215 0.18703 0.0
C411 C 0.45338 0.0342 0.19281 0.0
C412 C 0.47081 0.99784 0.18815 0.0
C413 C 0.49086 0.00522 0.19511 0.0
C414 C 0.49181 0.02715 0.20116 0.0
C415 C 0.47328 0.04149 0.20002 0.0
H416 H 0.99082 0.56927 0.7882 0.0
H417 H 0.93888 0.52429 0.80436 0.0
H418 H 0.01669 0.53766 0.78592 0.0
H419 H 0.96484 0.49282 0.80231 0.0
H420 H 0.01165 0.43798 0.78538 0.0
H421 H 0.98595 0.4698 0.78366 0.0
H422 H 0.03633 0.51277 0.80416 0.0
H423 H 0.06214 0.48112 0.80566 0.0
C424 C 0.98487 0.55264 0.79119 0.0
C425 C 0.96282 0.54933 0.79656 0.0
C426 C 0.99974 0.53455 0.78996 0.0
C427 C 0.99286 0.51275 0.794 0.0
C428 C 0.97061 0.50936 0.79894 0.0
C429 C 0.95576 0.52744 0.80021 0.0
C430 C 0.01733 0.45426 0.78939 0.0
C431 C 0.03891 0.45698 0.79575 0.0
C432 C 0.00255 0.47246 0.78847 0.0
C433 C 0.00906 0.49378 0.79384 0.0
C434 C 0.03087 0.49662 0.79977 0.0
C435 C 0.04563 0.47843 0.80072 0.0
H436 H 0.47389 0.43994 0.04445 0.0
H437 H 0.43411 0.4927 0.06532 0.0
H438 H 0.50591 0.46535 0.04294 0.0
H439 H 0.46621 0.51788 0.06414 0.0
H440 H 0.52195 0.5638 0.04769 0.0
H441 H 0.4899 0.53845 0.04621 0.0
H442 H 0.53223 0.48324 0.06055 0.0
H443 H 0.56434 0.50844 0.06168 0.0
C444 C 0.47196 0.45695 0.04871 0.0
C445 C 0.45146 0.46427 0.05505 0.0
C446 C 0.49036 0.47148 0.04792 0.0
C447 C 0.48865 0.49365 0.05345 0.0
C448 C 0.46803 0.50103 0.05957 0.0
C449 C 0.44965 0.48652 0.06034 0.0
C450 C 0.52445 0.54622 0.05042 0.0
C451 C 0.54569 0.53817 0.05487 0.0
C452 C 0.50604 0.53172 0.04966 0.0
C453 C 0.50846 0.50883 0.05334 0.0
C454 C 0.52982 0.50071 0.05746 0.0
C455 C 0.54822 0.5152 0.05821 0.0
H456 H 0.4984 0.06602 0.29568 0.0
H457 H 0.44417 0.01846 0.30094 0.0
H458 H 0.52511 0.03509 0.29373 0.0
H459 H 0.47093 0.9876 0.29923 0.0
H460 H 0.52238 0.93664 0.28277 0.0
H461 H 0.49667 0.96847 0.28136 0.0
H462 H 0.54064 0.00671 0.31134 0.0
H463 H 0.56652 0.97508 0.31256 0.0
C464 C 0.49215 0.04898 0.29636 0.0
C465 C 0.46916 0.04471 0.29854 0.0
C466 C 0.50749 0.03126 0.29532 0.0
C467 C 0.50016 0.00889 0.29639 0.0
C468 C 0.4771 0.00463 0.29819 0.0
C469 C 0.46177 0.02234 0.29926 0.0
C470 C 0.52666 0.9519 0.28896 0.0
C471 C 0.54645 0.95327 0.29785 0.0
C472 C 0.51186 0.97009 0.28821 0.0
C473 C 0.51655 0.99008 0.2963 0.0
C474 C 0.53664 0.99165 0.30484 0.0
C475 C 0.55142 0.97345 0.30561 0.0
H476 H 0.06373 0.01331 0.53248 0.0
H477 H 0.02199 0.06181 0.5563 0.0
H478 H 0.03189 0.98769 0.53079 0.0
H479 H 0.99033 0.03607 0.55482 0.0
H480 H 0.9328 0.9922 0.53846 0.0
H481 H 0.96426 0.01823 0.53659 0.0
H482 H 0.00999 0.96481 0.54899 0.0
H483 H 0.97862 0.9387 0.55062 0.0
C484 C 0.04775 0.01856 0.53729 0.0
C485 C 0.04544 0.03957 0.54459 0.0
C486 C 0.02954 0.00382 0.53639 0.0
C487 C 0.0086 0.00979 0.54273 0.0
C488 C 0.00616 0.03104 0.54967 0.0
C489 C 0.02436 0.04575 0.5506 0.0
C490 C 0.94958 0.98595 0.54067 0.0
C491 C 0.95317 0.96339 0.54478 0.0
C492 C 0.96759 0.00091 0.53968 0.0
C493 C 0.98962 0.99362 0.54272 0.0
C494 C 0.99327 0.97091 0.54641 0.0
C495 C 0.97525 0.95597 0.54744 0.0
H496 H 0.29437 0.11861 0.35428 0.0
H497 H 0.30677 0.18617 0.37037 0.0
H498 H 0.25567 0.1213 0.36317 0.0
H499 H 0.26837 0.18856 0.37998 0.0
H500 H 0.1925 0.19445 0.38193 0.0
H501 H 0.23078 0.19185 0.3721 0.0
H502 H 0.2331 0.1219 0.38554 0.0
H503 H 0.19449 0.12432 0.39464 0.0
C504 C 0.28887 0.13397 0.35988 0.0
C505 C 0.30361 0.15219 0.36162 0.0
C506 C 0.26669 0.13548 0.36507 0.0
C507 C 0.25878 0.15514 0.37235 0.0
C508 C 0.27366 0.1733 0.37418 0.0
C509 C 0.29576 0.17189 0.36878 0.0
C510 C 0.2012 0.17851 0.38272 0.0
C511 C 0.19047 0.15958 0.38902 0.0
C512 C 0.22323 0.17704 0.37719 0.0
C513 C 0.23517 0.15667 0.37803 0.0
C514 C 0.22437 0.13776 0.3844 0.0
C515 C 0.20224 0.13917 0.38972 0.0
H516 H 0.80419 0.7024 0.64694 0.0
H517 H 0.87181 0.69182 0.63021 0.0
H518 H 0.80469 0.74037 0.63641 0.0
H519 H 0.87207 0.72957 0.61925 0.0
H520 H 0.87381 0.8061 0.61665 0.0
H521 H 0.87325 0.76812 0.62717 0.0
H522 H 0.80431 0.7607 0.61232 0.0
H523 H 0.80468 0.79892 0.60223 0.0
C524 C 0.8191 0.70812 0.6409 0.0
C525 C 0.83797 0.69411 0.63943 0.0
C526 C 0.81935 0.72986 0.63478 0.0
C527 C 0.83842 0.73807 0.62697 0.0
C528 C 0.85723 0.72394 0.6254 0.0
C529 C 0.85703 0.70224 0.6316 0.0
C530 C 0.85853 0.79636 0.61564 0.0
C531 C 0.83927 0.80555 0.60863 0.0
C532 C 0.85825 0.77452 0.62159 0.0
C533 C 0.83875 0.7613 0.62059 0.0
C534 C 0.81952 0.7705 0.61351 0.0
C535 C 0.81976 0.79239 0.60764 0.0
H536 H 0.3066 0.30378 0.87904 0.0
H537 H 0.30215 0.37339 0.89277 0.0
H538 H 0.26796 0.30507 0.8698 0.0
H539 H 0.26319 0.37448 0.88428 0.0
H540 H 0.20109 0.37624 0.85378 0.0
H541 H 0.24006 0.37485 0.86221 0.0
H542 H 0.23046 0.3066 0.87809 0.0
H543 H 0.19178 0.30774 0.86892 0.0
C544 C 0.29728 0.31932 0.8802 0.0
C545 C 0.30742 0.3385 0.88659 0.0
C546 C 0.27504 0.32004 0.875 0.0
C547 C 0.26231 0.33988 0.87629 0.0
C548 C 0.27252 0.35902 0.8828 0.0
C549 C 0.29485 0.35838 0.88777 0.0
C550 C 0.20733 0.36095 0.85907 0.0
C551 C 0.19338 0.3421 0.86068 0.0
C552 C 0.22967 0.36017 0.86401 0.0
C553 C 0.23852 0.34062 0.8709 0.0
C554 C 0.22443 0.32182 0.87259 0.0
C555 C 0.20217 0.3225 0.86744 0.0
H556 H 0.6341 0.81499 0.13267 0.0
H557 H 0.70069 0.80074 0.15006 0.0
H558 H 0.63211 0.77741 0.12152 0.0
H559 H 0.69845 0.76296 0.13932 0.0
H560 H 0.69635 0.70515 0.10455 0.0
H561 H 0.69835 0.74314 0.11497 0.0
H562 H 0.62887 0.73877 0.12918 0.0
H563 H 0.62671 0.70102 0.11834 0.0
C564 C 0.64828 0.8038 0.13417 0.0
C565 C 0.66756 0.81087 0.14223 0.0
C566 C 0.64708 0.7822 0.12786 0.0
C567 C 0.66511 0.76711 0.12954 0.0
C568 C 0.68439 0.77422 0.13761 0.0
C569 C 0.68563 0.79586 0.14385 0.0
C570 C 0.68149 0.71231 0.10989 0.0
C571 C 0.66137 0.70006 0.11062 0.0
C572 C 0.68267 0.73405 0.11595 0.0
C573 C 0.66378 0.74404 0.12295 0.0
C574 C 0.64365 0.73175 0.12367 0.0
C575 C 0.64245 0.71004 0.11754 0.0
H576 H 0.80164 0.62418 0.85517 0.0
H577 H 0.80567 0.69412 0.86812 0.0
H578 H 0.76282 0.62302 0.86397 0.0
H579 H 0.76717 0.69277 0.87764 0.0
H580 H 0.69109 0.68957 0.87927 0.0
H581 H 0.72953 0.69073 0.86963 0.0
H582 H 0.74015 0.62303 0.88632 0.0
H583 H 0.70141 0.62159 0.89525 0.0
C584 C 0.79428 0.63926 0.86005 0.0
C585 C 0.8067 0.65925 0.86094 0.0
C586 C 0.77203 0.63857 0.8652 0.0
C587 C 0.76175 0.65779 0.87157 0.0
C588 C 0.77432 0.67774 0.87255 0.0
C589 C 0.79647 0.6785 0.86719 0.0
C590 C 0.70165 0.67493 0.88082 0.0
C591 C 0.69321 0.65548 0.88798 0.0
C592 C 0.72377 0.67563 0.8754 0.0
C593 C 0.73808 0.65699 0.8772 0.0
C594 C 0.72958 0.63757 0.88444 0.0
C595 C 0.70737 0.63677 0.88966 0.0
H596 H 0.30258 0.29588 0.10055 0.0
H597 H 0.37022 0.30644 0.11719 0.0
H598 H 0.30296 0.25811 0.11142 0.0
H599 H 0.37037 0.26889 0.12848 0.0
H600 H 0.37182 0.19232 0.13153 0.0
H601 H 0.3714 0.23018 0.12078 0.0
H602 H 0.30257 0.23824 0.13575 0.0
H603 H 0.30281 0.20015 0.14608 0.0
C604 C 0.31747 0.2902 0.10664 0.0
C605 C 0.33639 0.30415 0.10798 0.0
C606 C 0.31765 0.26858 0.11296 0.0
C607 C 0.3367 0.26042 0.12084 0.0
C608 C 0.35555 0.27448 0.12228 0.0
C609 C 0.35541 0.29607 0.1159 0.0
C610 C 0.3566 0.20217 0.13251 0.0
C611 C 0.33733 0.1932 0.13962 0.0
C612 C 0.3564 0.22394 0.12644 0.0
C613 C 0.33696 0.2373 0.1274 0.0
C614 C 0.31773 0.22833 0.13459 0.0
C615 C 0.3179 0.20651 0.14059 0.0
H616 H 0.79128 0.87793 0.39502 0.0
H617 H 0.80593 0.81176 0.37711 0.0
H618 H 0.7526 0.87439 0.38625 0.0
H619 H 0.76755 0.80858 0.36759 0.0
H620 H 0.69195 0.8002 0.36558 0.0
H621 H 0.73021 0.80352 0.37533 0.0
H622 H 0.72975 0.87432 0.36411 0.0
H623 H 0.69114 0.87111 0.35515 0.0
C624 C 0.78627 0.86271 0.38905 0.0
C625 C 0.80163 0.84512 0.38676 0.0
C626 C 0.76409 0.86071 0.38392 0.0
C627 C 0.75682 0.8412 0.37614 0.0
C628 C 0.77233 0.82368 0.37377 0.0
C629 C 0.79442 0.82555 0.37913 0.0
C630 C 0.70003 0.81648 0.36526 0.0
C631 C 0.68853 0.8354 0.35964 0.0
C632 C 0.72206 0.81838 0.37074 0.0
C633 C 0.73322 0.8392 0.3705 0.0
C634 C 0.72164 0.8581 0.36479 0.0
C635 C 0.69951 0.85625 0.35954 0.0
H636 H 0.12974 0.30517 0.63155 0.0
H637 H 0.19766 0.29595 0.64807 0.0
H638 H 0.12991 0.26717 0.62103 0.0
H639 H 0.19761 0.25773 0.63796 0.0
H640 H 0.19804 0.1989 0.60382 0.0
H641 H 0.19802 0.23712 0.61392 0.0
H642 H 0.12947 0.22869 0.62936 0.0
H643 H 0.12929 0.19069 0.61884 0.0
C644 C 0.14468 0.295 0.63299 0.0
C645 C 0.1637 0.30359 0.64063 0.0
C646 C 0.14473 0.27315 0.62705 0.0
C647 C 0.16375 0.25934 0.62868 0.0
C648 C 0.18278 0.26799 0.6363 0.0
C649 C 0.18277 0.28987 0.64218 0.0
C650 C 0.18297 0.2052 0.60938 0.0
C651 C 0.16366 0.19176 0.61051 0.0
C652 C 0.18299 0.22708 0.61525 0.0
C653 C 0.16374 0.23602 0.62246 0.0
C654 C 0.14447 0.22249 0.62366 0.0
C655 C 0.14442 0.20064 0.61773 0.0
loop_
_geom_bond_atom_site_label_1
_geom_bond_atom_site_label_2
_geom_bond_distance
_geom_bond_site_symmetry_2
_ccdc_geom_bond_type
O0 Cd1 2.300 . S
O0 C7 1.275 . S
Cd1 O0 2.300 . S
Cd1 O9 2.381 . S
Cd1 O10 2.378 . S
O2 Cd3 2.385 . S
O2 C7 1.255 . S
Cd3 O2 2.385 . S
Cd3 O4 2.317 . S
O4 Cd3 2.317 . S
O4 C5 1.232 . S
C5 O4 1.232 . S
C5 O6 1.218 . S
O6 C5 1.218 . S
C7 O0 1.275 . S
C7 O2 1.255 . S
C8 O9 1.258 . S
C8 O10 1.256 . S
O9 Cd1 2.381 . S
O9 C8 1.258 . S
O10 Cd1 2.378 . S
O10 C8 1.256 . S
O11 Cd12 2.300 . S
O11 C18 1.275 . S
Cd12 O11 2.300 . S
Cd12 O20 2.381 . S
Cd12 O21 2.378 . S
O13 Cd14 2.385 . S
O13 C18 1.255 . S
Cd14 O13 2.385 . S
Cd14 O15 2.317 . S
O15 Cd14 2.317 . S
O15 C16 1.232 . S
C16 O15 1.232 . S
C16 O17 1.218 . S
O17 C16 1.218 . S
C18 O11 1.275 . S
C18 O13 1.255 . S
C19 O20 1.258 . S
C19 O21 1.256 . S
O20 Cd12 2.381 . S
O20 C19 1.258 . S
O21 Cd12 2.378 . S
O21 C19 1.256 . S
O22 Cd23 2.300 . S
O22 C29 1.275 . S
Cd23 O22 2.300 . S
Cd23 O31 2.381 . S
Cd23 O32 2.378 . S
O24 Cd25 2.385 . S
O24 C29 1.255 . S
Cd25 O24 2.385 . S
Cd25 O26 2.317 . S
O26 Cd25 2.317 . S
O26 C27 1.232 . S
C27 O26 1.232 . S
C27 O28 1.218 . S
O28 C27 1.218 . S
C29 O22 1.275 . S
C29 O24 1.255 . S
C30 O31 1.258 . S
C30 O32 1.256 . S
O31 Cd23 2.381 . S
O31 C30 1.258 . S
O32 Cd23 2.378 . S
O32 C30 1.256 . S
O33 Cd34 2.300 . S
O33 C40 1.275 . S
Cd34 O33 2.300 . S
Cd34 O42 2.381 . S
Cd34 O43 2.378 . S
O35 Cd36 2.385 . S
O35 C40 1.255 . S
Cd36 O35 2.385 . S
Cd36 O37 2.317 . S
O37 Cd36 2.317 . S
O37 C38 1.232 . S
C38 O37 1.232 . S
C38 O39 1.218 . S
O39 C38 1.218 . S
C40 O33 1.275 . S
C40 O35 1.255 . S
C41 O42 1.258 . S
C41 O43 1.256 . S
O42 Cd34 2.381 . S
O42 C41 1.258 . S
O43 Cd34 2.378 . S
O43 C41 1.256 . S
O44 Cd45 2.300 . S
O44 C51 1.275 . S
Cd45 O44 2.300 . S
Cd45 O53 2.381 . S
Cd45 O54 2.378 . S
O46 Cd47 2.385 . S
O46 C51 1.255 . S
Cd47 O46 2.385 . S
Cd47 O48 2.317 . S
O48 Cd47 2.317 . S
O48 C49 1.232 . S
C49 O48 1.232 . S
C49 O50 1.218 . S
O50 C49 1.218 . S
C51 O44 1.275 . S
C51 O46 1.255 . S
C52 O53 1.258 . S
C52 O54 1.256 . S
O53 Cd45 2.381 . S
O53 C52 1.258 . S
O54 Cd45 2.378 . S
O54 C52 1.256 . S
O55 Cd56 2.300 . S
O55 C62 1.275 . S
Cd56 O55 2.300 . S
Cd56 O64 2.381 . S
Cd56 O65 2.378 . S
O57 Cd58 2.385 . S
O57 C62 1.255 . S
Cd58 O57 2.385 . S
Cd58 O59 2.317 . S
O59 Cd58 2.317 . S
O59 C60 1.232 . S
C60 O59 1.232 . S
C60 O61 1.218 . S
O61 C60 1.218 . S
C62 O55 1.275 . S
C62 O57 1.255 . S
C63 O64 1.258 . S
C63 O65 1.256 . S
O64 Cd56 2.381 . S
O64 C63 1.258 . S
O65 Cd56 2.378 . S
O65 C63 1.256 . S
O66 Cd67 2.300 . S
O66 C73 1.275 . S
Cd67 O66 2.300 . S
Cd67 O75 2.381 . S
Cd67 O76 2.378 . S
O68 Cd69 2.385 . S
O68 C73 1.255 . S
Cd69 O68 2.385 . S
Cd69 O70 2.317 . S
O70 Cd69 2.317 . S
O70 C71 1.232 . S
C71 O70 1.232 . S
C71 O72 1.218 . S
O72 C71 1.218 . S
C73 O66 1.275 . S
C73 O68 1.255 . S
C74 O75 1.258 . S
C74 O76 1.256 . S
O75 Cd67 2.381 . S
O75 C74 1.258 . S
O76 Cd67 2.378 . S
O76 C74 1.256 . S
O77 Cd78 2.300 . S
O77 C84 1.275 . S
Cd78 O77 2.300 . S
Cd78 O86 2.381 . S
Cd78 O87 2.378 . S
O79 Cd80 2.385 . S
O79 C84 1.255 . S
Cd80 O79 2.385 . S
Cd80 O81 2.317 . S
O81 Cd80 2.317 . S
O81 C82 1.232 . S
C82 O81 1.232 . S
C82 O83 1.218 . S
O83 C82 1.218 . S
C84 O77 1.275 . S
C84 O79 1.255 . S
C85 O86 1.258 . S
C85 O87 1.256 . S
O86 Cd78 2.381 . S
O86 C85 1.258 . S
O87 Cd78 2.378 . S
O87 C85 1.256 . S
O88 Cd89 2.300 . S
O88 C95 1.275 . S
Cd89 O88 2.300 . S
Cd89 O97 2.381 . S
Cd89 O98 2.378 . S
O90 Cd91 2.385 . S
O90 C95 1.255 . S
Cd91 O90 2.385 . S
Cd91 O92 2.317 . S
O92 Cd91 2.317 . S
O92 C93 1.232 . S
C93 O92 1.232 . S
C93 O94 1.218 . S
O94 C93 1.218 . S
C95 O88 1.275 . S
C95 O90 1.255 . S
C96 O97 1.258 . S
C96 O98 1.256 . S
O97 Cd89 2.381 . S
O97 C96 1.258 . S
O98 Cd89 2.378 . S
O98 C96 1.256 . S
O99 Cd100 2.300 . S
O99 C106 1.275 . S
Cd100 O99 2.300 . S
Cd100 O108 2.381 . S
Cd100 O109 2.378 . S
O101 Cd102 2.385 . S
O101 C106 1.255 . S
Cd102 O101 2.385 . S
Cd102 O103 2.317 . S
O103 Cd102 2.317 . S
O103 C104 1.232 . S
C104 O103 1.232 . S
C104 O105 1.218 . S
O105 C104 1.218 . S
C106 O99 1.275 . S
C106 O101 1.255 . S
C107 O108 1.258 . S
C107 O109 1.256 . S
O108 Cd100 2.381 . S
O108 C107 1.258 . S
O109 Cd100 2.378 . S
O109 C107 1.256 . S
O110 Cd111 2.300 . S
O110 C117 1.275 . S
Cd111 O110 2.300 . S
Cd111 O119 2.381 . S
Cd111 O120 2.378 . S
O112 Cd113 2.385 . S
O112 C117 1.255 . S
Cd113 O112 2.385 . S
Cd113 O114 2.317 . S
O114 Cd113 2.317 . S
O114 C115 1.232 . S
C115 O114 1.232 . S
C115 O116 1.218 . S
O116 C115 1.218 . S
C117 O110 1.275 . S
C117 O112 1.255 . S
C118 O119 1.258 . S
C118 O120 1.256 . S
O119 Cd111 2.381 . S
O119 C118 1.258 . S
O120 Cd111 2.378 . S
O120 C118 1.256 . S
O121 Cd122 2.300 . S
O121 C128 1.275 . S
Cd122 O121 2.300 . S
Cd122 O130 2.381 . S
Cd122 O131 2.378 . S
O123 Cd124 2.385 . S
O123 C128 1.255 . S
Cd124 O123 2.385 . S
Cd124 O125 2.317 . S
O125 Cd124 2.317 . S
O125 C126 1.232 . S
C126 O125 1.232 . S
C126 O127 1.218 . S
O127 C126 1.218 . S
C128 O121 1.275 . S
C128 O123 1.255 . S
C129 O130 1.258 . S
C129 O131 1.256 . S
O130 Cd122 2.381 . S
O130 C129 1.258 . S
O131 Cd122 2.378 . S
O131 C129 1.256 . S
O132 Cd133 2.300 . S
O132 C139 1.275 . S
Cd133 O132 2.300 . S
Cd133 O141 2.381 . S
Cd133 O142 2.378 . S
O134 Cd135 2.385 . S
O134 C139 1.255 . S
Cd135 O134 2.385 . S
Cd135 O136 2.317 . S
O136 Cd135 2.317 . S
O136 C137 1.232 . S
C137 O136 1.232 . S
C137 O138 1.218 . S
O138 C137 1.218 . S
C139 O132 1.275 . S
C139 O134 1.255 . S
C140 O141 1.258 . S
C140 O142 1.256 . S
O141 Cd133 2.381 . S
O141 C140 1.258 . S
O142 Cd133 2.378 . S
O142 C140 1.256 . S
O143 Cd144 2.300 . S
O143 C150 1.275 . S
Cd144 O143 2.300 . S
Cd144 O152 2.381 . S
Cd144 O153 2.378 . S
O145 Cd146 2.385 . S
O145 C150 1.255 . S
Cd146 O145 2.385 . S
Cd146 O147 2.317 . S
O147 Cd146 2.317 . S
O147 C148 1.232 . S
C148 O147 1.232 . S
C148 O149 1.218 . S
O149 C148 1.218 . S
C150 O143 1.275 . S
C150 O145 1.255 . S
C151 O152 1.258 . S
C151 O153 1.256 . S
O152 Cd144 2.381 . S
O152 C151 1.258 . S
O153 Cd144 2.378 . S
O153 C151 1.256 . S
O154 Cd155 2.300 . S
O154 C161 1.275 . S
Cd155 O154 2.300 . S
Cd155 O163 2.381 . S
Cd155 O164 2.378 . S
O156 Cd157 2.385 . S
O156 C161 1.255 . S
Cd157 O156 2.385 . S
Cd157 O158 2.317 . S
O158 Cd157 2.317 . S
O158 C159 1.232 . S
C159 O158 1.232 . S
C159 O160 1.218 . S
O160 C159 1.218 . S
C161 O154 1.275 . S
C161 O156 1.255 . S
C162 O163 1.258 . S
C162 O164 1.256 . S
O163 Cd155 2.381 . S
O163 C162 1.258 . S
O164 Cd155 2.378 . S
O164 C162 1.256 . S
O165 Cd166 2.300 . S
O165 C172 1.275 . S
Cd166 O165 2.300 . S
Cd166 O174 2.381 . S
Cd166 O175 2.378 . S
O167 Cd168 2.385 . S
O167 C172 1.255 . S
Cd168 O167 2.385 . S
Cd168 O169 2.317 . S
O169 Cd168 2.317 . S
O169 C170 1.232 . S
C170 O169 1.232 . S
C170 O171 1.218 . S
O171 C170 1.218 . S
C172 O165 1.275 . S
C172 O167 1.255 . S
C173 O174 1.258 . S
C173 O175 1.256 . S
O174 Cd166 2.381 . S
O174 C173 1.258 . S
O175 Cd166 2.378 . S
O175 C173 1.256 . S
H176 C184 0.950 . S
H177 C189 0.950 . S
H178 C186 0.950 . S
H179 C188 0.950 . S
H180 C190 0.950 . S
H181 C192 0.950 . S
H182 C194 0.950 . S
H183 C195 0.950 . S
C184 H176 0.950 . S
C184 C185 1.386 . S
C184 C186 1.391 . S
C185 C184 1.386 . S
C185 C189 1.393 . S
C186 H178 0.950 . S
C186 C184 1.391 . S
C186 C187 1.400 . S
C187 C186 1.400 . S
C187 C188 1.398 . S
C187 C193 1.491 . S
C188 H179 0.950 . S
C188 C187 1.398 . S
C188 C189 1.391 . S
C189 H177 0.950 . S
C189 C185 1.393 . S
C189 C188 1.391 . S
C190 H180 0.950 . S
C190 C191 1.386 . S
C190 C192 1.391 . S
C191 C190 1.386 . S
C191 C195 1.393 . S
C192 H181 0.950 . S
C192 C190 1.391 . S
C192 C193 1.400 . S
C193 C187 1.491 . S
C193 C192 1.400 . S
C193 C194 1.398 . S
C194 H182 0.950 . S
C194 C193 1.398 . S
C194 C195 1.391 . S
C195 H183 0.950 . S
C195 C191 1.393 . S
C195 C194 1.391 . S
H196 C204 0.950 . S
H197 C209 0.950 . S
H198 C206 0.950 . S
H199 C208 0.950 . S
H200 C210 0.950 . S
H201 C212 0.950 . S
H202 C214 0.950 . S
H203 C215 0.950 . S
C204 H196 0.950 . S
C204 C205 1.386 . S
C204 C206 1.391 . S
C205 C204 1.386 . S
C205 C209 1.393 . S
C206 H198 0.950 . S
C206 C204 1.391 . S
C206 C207 1.400 . S
C207 C206 1.400 . S
C207 C208 1.398 . S
C207 C213 1.491 . S
C208 H199 0.950 . S
C208 C207 1.398 . S
C208 C209 1.391 . S
C209 H197 0.950 . S
C209 C205 1.393 . S
C209 C208 1.391 . S
C210 H200 0.950 . S
C210 C211 1.386 . S
C210 C212 1.391 . S
C211 C210 1.386 . S
C211 C215 1.393 . S
C212 H201 0.950 . S
C212 C210 1.391 . S
C212 C213 1.400 . S
C213 C207 1.491 . S
C213 C212 1.400 . S
C213 C214 1.398 . S
C214 H202 0.950 . S
C214 C213 1.398 . S
C214 C215 1.391 . S
C215 H203 0.950 . S
C215 C211 1.393 . S
C215 C214 1.391 . S
H216 C224 0.950 . S
H217 C229 0.950 . S
H218 C226 0.950 . S
H219 C228 0.950 . S
H220 C230 0.950 . S
H221 C232 0.950 . S
H222 C234 0.950 . S
H223 C235 0.950 . S
C224 H216 0.950 . S
C224 C225 1.386 . S
C224 C226 1.391 . S
C225 C224 1.386 . S
C225 C229 1.393 . S
C226 H218 0.950 . S
C226 C224 1.391 . S
C226 C227 1.400 . S
C227 C226 1.400 . S
C227 C228 1.398 . S
C227 C233 1.491 1_556 S
C228 H219 0.950 . S
C228 C227 1.398 . S
C228 C229 1.391 . S
C229 H217 0.950 . S
C229 C225 1.393 . S
C229 C228 1.391 . S
C230 H220 0.950 . S
C230 C231 1.386 . S
C230 C232 1.391 . S
C231 C230 1.386 . S
C231 C235 1.393 . S
C232 H221 0.950 . S
C232 C230 1.391 . S
C232 C233 1.400 . S
C233 C227 1.491 1_554 S
C233 C232 1.400 . S
C233 C234 1.398 . S
C234 H222 0.950 . S
C234 C233 1.398 . S
C234 C235 1.391 . S
C235 H223 0.950 . S
C235 C231 1.393 . S
C235 C234 1.391 . S
H236 C244 0.950 . S
H237 C249 0.950 . S
H238 C246 0.950 . S
H239 C248 0.950 . S
H240 C250 0.950 . S
H241 C252 0.950 . S
H242 C254 0.950 . S
H243 C255 0.950 . S
C244 H236 0.950 . S
C244 C245 1.386 . S
C244 C246 1.391 . S
C245 C244 1.386 . S
C245 C249 1.393 . S
C246 H238 0.950 . S
C246 C244 1.391 . S
C246 C247 1.400 . S
C247 C246 1.400 . S
C247 C248 1.398 . S
C247 C253 1.491 . S
C248 H239 0.950 . S
C248 C247 1.398 . S
C248 C249 1.391 . S
C249 H237 0.950 . S
C249 C245 1.393 . S
C249 C248 1.391 . S
C250 H240 0.950 . S
C250 C251 1.386 . S
C250 C252 1.391 . S
C251 C250 1.386 . S
C251 C255 1.393 . S
C252 H241 0.950 . S
C252 C250 1.391 . S
C252 C253 1.400 . S
C253 C247 1.491 . S
C253 C252 1.400 . S
C253 C254 1.398 . S
C254 H242 0.950 . S
C254 C253 1.398 . S
C254 C255 1.391 . S
C255 H243 0.950 . S
C255 C251 1.393 . S
C255 C254 1.391 . S
H256 C264 0.950 . S
H257 C269 0.950 . S
H258 C266 0.950 . S
H259 C268 0.950 . S
H260 C270 0.950 . S
H261 C272 0.950 . S
H262 C274 0.950 . S
H263 C275 0.950 . S
C264 H256 0.950 . S
C264 C265 1.386 . S
C264 C266 1.391 . S
C265 C264 1.386 . S
C265 C269 1.393 . S
C266 H258 0.950 . S
C266 C264 1.391 . S
C266 C267 1.400 . S
C267 C266 1.400 . S
C267 C268 1.398 . S
C267 C273 1.491 . S
C268 H259 0.950 . S
C268 C267 1.398 . S
C268 C269 1.391 . S
C269 H257 0.950 . S
C269 C265 1.393 . S
C269 C268 1.391 . S
C270 H260 0.950 . S
C270 C271 1.386 . S
C270 C272 1.391 . S
C271 C270 1.386 . S
C271 C275 1.393 . S
C272 H261 0.950 . S
C272 C270 1.391 . S
C272 C273 1.400 . S
C273 C267 1.491 . S
C273 C272 1.400 . S
C273 C274 1.398 . S
C274 H262 0.950 . S
C274 C273 1.398 . S
C274 C275 1.391 . S
C275 H263 0.950 . S
C275 C271 1.393 . S
C275 C274 1.391 . S
H276 C284 0.950 . S
H277 C289 0.950 . S
H278 C286 0.950 . S
H279 C288 0.950 . S
H280 C290 0.950 . S
H281 C292 0.950 . S
H282 C294 0.950 . S
H283 C295 0.950 . S
C284 H276 0.950 . S
C284 C285 1.386 . S
C284 C286 1.391 . S
C285 C284 1.386 . S
C285 C289 1.393 . S
C286 H278 0.950 . S
C286 C284 1.391 . S
C286 C287 1.400 . S
C287 C286 1.400 . S
C287 C288 1.398 . S
C287 C293 1.491 1_556 S
C288 H279 0.950 . S
C288 C287 1.398 . S
C288 C289 1.391 . S
C289 H277 0.950 . S
C289 C285 1.393 . S
C289 C288 1.391 . S
C290 H280 0.950 . S
C290 C291 1.386 . S
C290 C292 1.391 . S
C291 C290 1.386 . S
C291 C295 1.393 . S
C292 H281 0.950 . S
C292 C290 1.391 . S
C292 C293 1.400 . S
C293 C287 1.491 1_554 S
C293 C292 1.400 . S
C293 C294 1.398 . S
C294 H282 0.950 . S
C294 C293 1.398 . S
C294 C295 1.391 . S
C295 H283 0.950 . S
C295 C291 1.393 . S
C295 C294 1.391 . S
H296 C304 0.950 . S
H297 C309 0.950 . S
H298 C306 0.950 . S
H299 C308 0.950 . S
H300 C310 0.950 . S
H301 C312 0.950 . S
H302 C314 0.950 . S
H303 C315 0.950 . S
C304 H296 0.950 . S
C304 C305 1.386 . S
C304 C306 1.391 . S
C305 C304 1.386 . S
C305 C309 1.393 . S
C306 H298 0.950 . S
C306 C304 1.391 . S
C306 C307 1.400 . S
C307 C306 1.400 . S
C307 C308 1.398 . S
C307 C313 1.491 . S
C308 H299 0.950 . S
C308 C307 1.398 . S
C308 C309 1.391 . S
C309 H297 0.950 . S
C309 C305 1.393 . S
C309 C308 1.391 . S
C310 H300 0.950 . S
C310 C311 1.386 . S
C310 C312 1.391 . S
C311 C310 1.386 . S
C311 C315 1.393 . S
C312 H301 0.950 . S
C312 C310 1.391 . S
C312 C313 1.400 . S
C313 C307 1.491 . S
C313 C312 1.400 . S
C313 C314 1.398 . S
C314 H302 0.950 . S
C314 C313 1.398 . S
C314 C315 1.391 . S
C315 H303 0.950 . S
C315 C311 1.393 . S
C315 C314 1.391 . S
H316 C324 0.950 . S
H317 C329 0.950 . S
H318 C326 0.950 . S
H319 C328 0.950 . S
H320 C330 0.950 . S
H321 C332 0.950 . S
H322 C334 0.950 . S
H323 C335 0.950 . S
C324 H316 0.950 . S
C324 C325 1.386 . S
C324 C326 1.391 . S
C325 C324 1.386 . S
C325 C329 1.393 . S
C326 H318 0.950 . S
C326 C324 1.391 . S
C326 C327 1.400 . S
C327 C326 1.400 . S
C327 C328 1.398 . S
C327 C333 1.491 . S
C328 H319 0.950 . S
C328 C327 1.398 . S
C328 C329 1.391 . S
C329 H317 0.950 . S
C329 C325 1.393 . S
C329 C328 1.391 . S
C330 H320 0.950 . S
C330 C331 1.386 . S
C330 C332 1.391 . S
C331 C330 1.386 . S
C331 C335 1.393 . S
C332 H321 0.950 . S
C332 C330 1.391 . S
C332 C333 1.400 . S
C333 C327 1.491 . S
C333 C332 1.400 . S
C333 C334 1.398 . S
C334 H322 0.950 . S
C334 C333 1.398 . S
C334 C335 1.391 . S
C335 H323 0.950 . S
C335 C331 1.393 . S
C335 C334 1.391 . S
H336 C344 0.950 . S
H337 C349 0.950 . S
H338 C346 0.950 1_545 S
H339 C348 0.950 1_455 S
H340 C350 0.950 . S
H341 C352 0.950 1_565 S
H342 C354 0.950 1_655 S
H343 C355 0.950 . S
C344 H336 0.950 . S
C344 C345 1.386 . S
C344 C346 1.391 . S
C345 C344 1.386 . S
C345 C349 1.393 . S
C346 H338 0.950 1_565 S
C346 C344 1.391 . S
C346 C347 1.400 . S
C347 C346 1.400 . S
C347 C348 1.398 . S
C347 C353 1.491 1_665 S
C348 H339 0.950 1_655 S
C348 C347 1.398 . S
C348 C349 1.391 . S
C349 H337 0.950 . S
C349 C345 1.393 . S
C349 C348 1.391 . S
C350 H340 0.950 . S
C350 C351 1.386 . S
C350 C352 1.391 . S
C351 C350 1.386 . S
C351 C355 1.393 . S
C352 H341 0.950 1_545 S
C352 C350 1.391 . S
C352 C353 1.400 . S
C353 C347 1.491 1_445 S
C353 C352 1.400 . S
C353 C354 1.398 . S
C354 H342 0.950 1_455 S
C354 C353 1.398 . S
C354 C355 1.391 . S
C355 H343 0.950 . S
C355 C351 1.393 . S
C355 C354 1.391 . S
H356 C364 0.950 . S
H357 C369 0.950 . S
H358 C366 0.950 . S
H359 C368 0.950 1_655 S
H360 C370 0.950 . S
H361 C372 0.950 . S
H362 C374 0.950 1_455 S
H363 C375 0.950 . S
C364 H356 0.950 . S
C364 C365 1.386 . S
C364 C366 1.391 . S
C365 C364 1.386 . S
C365 C369 1.393 . S
C366 H358 0.950 . S
C366 C364 1.391 . S
C366 C367 1.400 . S
C367 C366 1.400 . S
C367 C368 1.398 . S
C367 C373 1.491 1_455 S
C368 H359 0.950 1_455 S
C368 C367 1.398 . S
C368 C369 1.391 . S
C369 H357 0.950 . S
C369 C365 1.393 . S
C369 C368 1.391 . S
C370 H360 0.950 . S
C370 C371 1.386 . S
C370 C372 1.391 . S
C371 C370 1.386 . S
C371 C375 1.393 . S
C372 H361 0.950 . S
C372 C370 1.391 . S
C372 C373 1.400 . S
C373 C367 1.491 1_655 S
C373 C372 1.400 . S
C373 C374 1.398 . S
C374 H362 0.950 1_655 S
C374 C373 1.398 . S
C374 C375 1.391 . S
C375 H363 0.950 . S
C375 C371 1.393 . S
C375 C374 1.391 . S
H376 C384 0.950 . S
H377 C389 0.950 . S
H378 C386 0.950 . S
H379 C388 0.950 . S
H380 C390 0.950 . S
H381 C392 0.950 . S
H382 C394 0.950 . S
H383 C395 0.950 . S
C384 H376 0.950 . S
C384 C385 1.386 . S
C384 C386 1.391 . S
C385 C384 1.386 . S
C385 C389 1.393 . S
C386 H378 0.950 . S
C386 C384 1.391 . S
C386 C387 1.400 . S
C387 C386 1.400 . S
C387 C388 1.398 . S
C387 C393 1.491 . S
C388 H379 0.950 . S
C388 C387 1.398 . S
C388 C389 1.391 . S
C389 H377 0.950 . S
C389 C385 1.393 . S
C389 C388 1.391 . S
C390 H380 0.950 . S
C390 C391 1.386 . S
C390 C392 1.391 . S
C391 C390 1.386 . S
C391 C395 1.393 . S
C392 H381 0.950 . S
C392 C390 1.391 . S
C392 C393 1.400 . S
C393 C387 1.491 . S
C393 C392 1.400 . S
C393 C394 1.398 . S
C394 H382 0.950 . S
C394 C393 1.398 . S
C394 C395 1.391 . S
C395 H383 0.950 . S
C395 C391 1.393 . S
C395 C394 1.391 . S
H396 C404 0.950 . S
H397 C409 0.950 . S
H398 C406 0.950 1_545 S
H399 C408 0.950 . S
H400 C410 0.950 . S
H401 C412 0.950 1_565 S
H402 C414 0.950 . S
H403 C415 0.950 . S
C404 H396 0.950 . S
C404 C405 1.386 . S
C404 C406 1.391 . S
C405 C404 1.386 . S
C405 C409 1.393 . S
C406 H398 0.950 1_565 S
C406 C404 1.391 . S
C406 C407 1.400 . S
C407 C406 1.400 . S
C407 C408 1.398 . S
C407 C413 1.491 1_565 S
C408 H399 0.950 . S
C408 C407 1.398 . S
C408 C409 1.391 . S
C409 H397 0.950 . S
C409 C405 1.393 . S
C409 C408 1.391 . S
C410 H400 0.950 . S
C410 C411 1.386 . S
C410 C412 1.391 . S
C411 C410 1.386 . S
C411 C415 1.393 . S
C412 H401 0.950 1_545 S
C412 C410 1.391 . S
C412 C413 1.400 . S
C413 C407 1.491 1_545 S
C413 C412 1.400 . S
C413 C414 1.398 . S
C414 H402 0.950 . S
C414 C413 1.398 . S
C414 C415 1.391 . S
C415 H403 0.950 . S
C415 C411 1.393 . S
C415 C414 1.391 . S
H416 C424 0.950 . S
H417 C429 0.950 . S
H418 C426 0.950 1_455 S
H419 C428 0.950 . S
H420 C430 0.950 . S
H421 C432 0.950 1_655 S
H422 C434 0.950 . S
H423 C435 0.950 . S
C424 H416 0.950 . S
C424 C425 1.386 . S
C424 C426 1.391 . S
C425 C424 1.386 . S
C425 C429 1.393 . S
C426 H418 0.950 1_655 S
C426 C424 1.391 . S
C426 C427 1.400 . S
C427 C426 1.400 . S
C427 C428 1.398 . S
C427 C433 1.491 1_655 S
C428 H419 0.950 . S
C428 C427 1.398 . S
C428 C429 1.391 . S
C429 H417 0.950 . S
C429 C425 1.393 . S
C429 C428 1.391 . S
C430 H420 0.950 . S
C430 C431 1.386 . S
C430 C432 1.391 . S
C431 C430 1.386 . S
C431 C435 1.393 . S
C432 H421 0.950 1_455 S
C432 C430 1.391 . S
C432 C433 1.400 . S
C433 C427 1.491 1_455 S
C433 C432 1.400 . S
C433 C434 1.398 . S
C434 H422 0.950 . S
C434 C433 1.398 . S
C434 C435 1.391 . S
C435 H423 0.950 . S
C435 C431 1.393 . S
C435 C434 1.391 . S
H436 C444 0.950 . S
H437 C449 0.950 . S
H438 C446 0.950 . S
H439 C448 0.950 . S
H440 C450 0.950 . S
H441 C452 0.950 . S
H442 C454 0.950 . S
H443 C455 0.950 . S
C444 H436 0.950 . S
C444 C445 1.386 . S
C444 C446 1.391 . S
C445 C444 1.386 . S
C445 C449 1.393 . S
C446 H438 0.950 . S
C446 C444 1.391 . S
C446 C447 1.400 . S
C447 C446 1.400 . S
C447 C448 1.398 . S
C447 C453 1.491 . S
C448 H439 0.950 . S
C448 C447 1.398 . S
C448 C449 1.391 . S
C449 H437 0.950 . S
C449 C445 1.393 . S
C449 C448 1.391 . S
C450 H440 0.950 . S
C450 C451 1.386 . S
C450 C452 1.391 . S
C451 C450 1.386 . S
C451 C455 1.393 . S
C452 H441 0.950 . S
C452 C450 1.391 . S
C452 C453 1.400 . S
C453 C447 1.491 . S
C453 C452 1.400 . S
C453 C454 1.398 . S
C454 H442 0.950 . S
C454 C453 1.398 . S
C454 C455 1.391 . S
C455 H443 0.950 . S
C455 C451 1.393 . S
C455 C454 1.391 . S
H456 C464 0.950 . S
H457 C469 0.950 . S
H458 C466 0.950 . S
H459 C468 0.950 1_565 S
H460 C470 0.950 . S
H461 C472 0.950 . S
H462 C474 0.950 1_545 S
H463 C475 0.950 . S
C464 H456 0.950 . S
C464 C465 1.386 . S
C464 C466 1.391 . S
C465 C464 1.386 . S
C465 C469 1.393 . S
C466 H458 0.950 . S
C466 C464 1.391 . S
C466 C467 1.400 . S
C467 C466 1.400 . S
C467 C468 1.398 . S
C467 C473 1.491 1_545 S
C468 H459 0.950 1_545 S
C468 C467 1.398 . S
C468 C469 1.391 . S
C469 H457 0.950 . S
C469 C465 1.393 . S
C469 C468 1.391 . S
C470 H460 0.950 . S
C470 C471 1.386 . S
C470 C472 1.391 . S
C471 C470 1.386 . S
C471 C475 1.393 . S
C472 H461 0.950 . S
C472 C470 1.391 . S
C472 C473 1.400 . S
C473 C467 1.491 1_565 S
C473 C472 1.400 . S
C473 C474 1.398 . S
C474 H462 0.950 1_565 S
C474 C473 1.398 . S
C474 C475 1.391 . S
C475 H463 0.950 . S
C475 C471 1.393 . S
C475 C474 1.391 . S
H476 C484 0.950 . S
H477 C489 0.950 . S
H478 C486 0.950 1_565 S
H479 C488 0.950 1_655 S
H480 C490 0.950 . S
H481 C492 0.950 1_545 S
H482 C494 0.950 1_455 S
H483 C495 0.950 . S
C484 H476 0.950 . S
C484 C485 1.386 . S
C484 C486 1.391 . S
C485 C484 1.386 . S
C485 C489 1.393 . S
C486 H478 0.950 1_545 S
C486 C484 1.391 . S
C486 C487 1.400 . S
C487 C486 1.400 . S
C487 C488 1.398 . S
C487 C493 1.491 1_445 S
C488 H479 0.950 1_455 S
C488 C487 1.398 . S
C488 C489 1.391 . S
C489 H477 0.950 . S
C489 C485 1.393 . S
C489 C488 1.391 . S
C490 H480 0.950 . S
C490 C491 1.386 . S
C490 C492 1.391 . S
C491 C490 1.386 . S
C491 C495 1.393 . S
C492 H481 0.950 1_565 S
C492 C490 1.391 . S
C492 C493 1.400 . S
C493 C487 1.491 1_665 S
C493 C492 1.400 . S
C493 C494 1.398 . S
C494 H482 0.950 1_655 S
C494 C493 1.398 . S
C494 C495 1.391 . S
C495 H483 0.950 . S
C495 C491 1.393 . S
C495 C494 1.391 . S
H496 C504 0.950 . S
H497 C509 0.950 . S
H498 C506 0.950 . S
H499 C508 0.950 . S
H500 C510 0.950 . S
H501 C512 0.950 . S
H502 C514 0.950 . S
H503 C515 0.950 . S
C504 H496 0.950 . S
C504 C505 1.386 . S
C504 C506 1.391 . S
C505 C504 1.386 . S
C505 C509 1.393 . S
C506 H498 0.950 . S
C506 C504 1.391 . S
C506 C507 1.400 . S
C507 C506 1.400 . S
C507 C508 1.398 . S
C507 C513 1.491 . S
C508 H499 0.950 . S
C508 C507 1.398 . S
C508 C509 1.391 . S
C509 H497 0.950 . S
C509 C505 1.393 . S
C509 C508 1.391 . S
C510 H500 0.950 . S
C510 C511 1.386 . S
C510 C512 1.391 . S
C511 C510 1.386 . S
C511 C515 1.393 . S
C512 H501 0.950 . S
C512 C510 1.391 . S
C512 C513 1.400 . S
C513 C507 1.491 . S
C513 C512 1.400 . S
C513 C514 1.398 . S
C514 H502 0.950 . S
C514 C513 1.398 . S
C514 C515 1.391 . S
C515 H503 0.950 . S
C515 C511 1.393 . S
C515 C514 1.391 . S
H516 C524 0.950 . S
H517 C529 0.950 . S
H518 C526 0.950 . S
H519 C528 0.950 . S
H520 C530 0.950 . S
H521 C532 0.950 . S
H522 C534 0.950 . S
H523 C535 0.950 . S
C524 H516 0.950 . S
C524 C525 1.386 . S
C524 C526 1.391 . S
C525 C524 1.386 . S
C525 C529 1.393 . S
C526 H518 0.950 . S
C526 C524 1.391 . S
C526 C527 1.400 . S
C527 C526 1.400 . S
C527 C528 1.398 . S
C527 C533 1.491 . S
C528 H519 0.950 . S
C528 C527 1.398 . S
C528 C529 1.391 . S
C529 H517 0.950 . S
C529 C525 1.393 . S
C529 C528 1.391 . S
C530 H520 0.950 . S
C530 C531 1.386 . S
C530 C532 1.391 . S
C531 C530 1.386 . S
C531 C535 1.393 . S
C532 H521 0.950 . S
C532 C530 1.391 . S
C532 C533 1.400 . S
C533 C527 1.491 . S
C533 C532 1.400 . S
C533 C534 1.398 . S
C534 H522 0.950 . S
C534 C533 1.398 . S
C534 C535 1.391 . S
C535 H523 0.950 . S
C535 C531 1.393 . S
C535 C534 1.391 . S
H536 C544 0.950 . S
H537 C549 0.950 . S
H538 C546 0.950 . S
H539 C548 0.950 . S
H540 C550 0.950 . S
H541 C552 0.950 . S
H542 C554 0.950 . S
H543 C555 0.950 . S
C544 H536 0.950 . S
C544 C545 1.386 . S
C544 C546 1.391 . S
C545 C544 1.386 . S
C545 C549 1.393 . S
C546 H538 0.950 . S
C546 C544 1.391 . S
C546 C547 1.400 . S
C547 C546 1.400 . S
C547 C548 1.398 . S
C547 C553 1.491 . S
C548 H539 0.950 . S
C548 C547 1.398 . S
C548 C549 1.391 . S
C549 H537 0.950 . S
C549 C545 1.393 . S
C549 C548 1.391 . S
C550 H540 0.950 . S
C550 C551 1.386 . S
C550 C552 1.391 . S
C551 C550 1.386 . S
C551 C555 1.393 . S
C552 H541 0.950 . S
C552 C550 1.391 . S
C552 C553 1.400 . S
C553 C547 1.491 . S
C553 C552 1.400 . S
C553 C554 1.398 . S
C554 H542 0.950 . S
C554 C553 1.398 . S
C554 C555 1.391 . S
C555 H543 0.950 . S
C555 C551 1.393 . S
C555 C554 1.391 . S
H556 C564 0.950 . S
H557 C569 0.950 . S
H558 C566 0.950 . S
H559 C568 0.950 . S
H560 C570 0.950 . S
H561 C572 0.950 . S
H562 C574 0.950 . S
H563 C575 0.950 . S
C564 H556 0.950 . S
C564 C565 1.386 . S
C564 C566 1.391 . S
C565 C564 1.386 . S
C565 C569 1.393 . S
C566 H558 0.950 . S
C566 C564 1.391 . S
C566 C567 1.400 . S
C567 C566 1.400 . S
C567 C568 1.398 . S
C567 C573 1.491 . S
C568 H559 0.950 . S
C568 C567 1.398 . S
C568 C569 1.391 . S
C569 H557 0.950 . S
C569 C565 1.393 . S
C569 C568 1.391 . S
C570 H560 0.950 . S
C570 C571 1.386 . S
C570 C572 1.391 . S
C571 C570 1.386 . S
C571 C575 1.393 . S
C572 H561 0.950 . S
C572 C570 1.391 . S
C572 C573 1.400 . S
C573 C567 1.491 . S
C573 C572 1.400 . S
C573 C574 1.398 . S
C574 H562 0.950 . S
C574 C573 1.398 . S
C574 C575 1.391 . S
C575 H563 0.950 . S
C575 C571 1.393 . S
C575 C574 1.391 . S
H576 C584 0.950 . S
H577 C589 0.950 . S
H578 C586 0.950 . S
H579 C588 0.950 . S
H580 C590 0.950 . S
H581 C592 0.950 . S
H582 C594 0.950 . S
H583 C595 0.950 . S
C584 H576 0.950 . S
C584 C585 1.386 . S
C584 C586 1.391 . S
C585 C584 1.386 . S
C585 C589 1.393 . S
C586 H578 0.950 . S
C586 C584 1.391 . S
C586 C587 1.400 . S
C587 C586 1.400 . S
C587 C588 1.398 . S
C587 C593 1.491 . S
C588 H579 0.950 . S
C588 C587 1.398 . S
C588 C589 1.391 . S
C589 H577 0.950 . S
C589 C585 1.393 . S
C589 C588 1.391 . S
C590 H580 0.950 . S
C590 C591 1.386 . S
C590 C592 1.391 . S
C591 C590 1.386 . S
C591 C595 1.393 . S
C592 H581 0.950 . S
C592 C590 1.391 . S
C592 C593 1.400 . S
C593 C587 1.491 . S
C593 C592 1.400 . S
C593 C594 1.398 . S
C594 H582 0.950 . S
C594 C593 1.398 . S
C594 C595 1.391 . S
C595 H583 0.950 . S
C595 C591 1.393 . S
C595 C594 1.391 . S
H596 C604 0.950 . S
H597 C609 0.950 . S
H598 C606 0.950 . S
H599 C608 0.950 . S
H600 C610 0.950 . S
H601 C612 0.950 . S
H602 C614 0.950 . S
H603 C615 0.950 . S
C604 H596 0.950 . S
C604 C605 1.386 . S
C604 C606 1.391 . S
C605 C604 1.386 . S
C605 C609 1.393 . S
C606 H598 0.950 . S
C606 C604 1.391 . S
C606 C607 1.400 . S
C607 C606 1.400 . S
C607 C608 1.398 . S
C607 C613 1.491 . S
C608 H599 0.950 . S
C608 C607 1.398 . S
C608 C609 1.391 . S
C609 H597 0.950 . S
C609 C605 1.393 . S
C609 C608 1.391 . S
C610 H600 0.950 . S
C610 C611 1.386 . S
C610 C612 1.391 . S
C611 C610 1.386 . S
C611 C615 1.393 . S
C612 H601 0.950 . S
C612 C610 1.391 . S
C612 C613 1.400 . S
C613 C607 1.491 . S
C613 C612 1.400 . S
C613 C614 1.398 . S
C614 H602 0.950 . S
C614 C613 1.398 . S
C614 C615 1.391 . S
C615 H603 0.950 . S
C615 C611 1.393 . S
C615 C614 1.391 . S
H616 C624 0.950 . S
H617 C629 0.950 . S
H618 C626 0.950 . S
H619 C628 0.950 . S
H620 C630 0.950 . S
H621 C632 0.950 . S
H622 C634 0.950 . S
H623 C635 0.950 . S
C624 H616 0.950 . S
C624 C625 1.386 . S
C624 C626 1.391 . S
C625 C624 1.386 . S
C625 C629 1.393 . S
C626 H618 0.950 . S
C626 C624 1.391 . S
C626 C627 1.400 . S
C627 C626 1.400 . S
C627 C628 1.398 . S
C627 C633 1.491 . S
C628 H619 0.950 . S
C628 C627 1.398 . S
C628 C629 1.391 . S
C629 H617 0.950 . S
C629 C625 1.393 . S
C629 C628 1.391 . S
C630 H620 0.950 . S
C630 C631 1.386 . S
C630 C632 1.391 . S
C631 C630 1.386 . S
C631 C635 1.393 . S
C632 H621 0.950 . S
C632 C630 1.391 . S
C632 C633 1.400 . S
C633 C627 1.491 . S
C633 C632 1.400 . S
C633 C634 1.398 . S
C634 H622 0.950 . S
C634 C633 1.398 . S
C634 C635 1.391 . S
C635 H623 0.950 . S
C635 C631 1.393 . S
C635 C634 1.391 . S
H636 C644 0.950 . S
H637 C649 0.950 . S
H638 C646 0.950 . S
H639 C648 0.950 . S
H640 C650 0.950 . S
H641 C652 0.950 . S
H642 C654 0.950 . S
H643 C655 0.950 . S
C644 H636 0.950 . S
C644 C645 1.386 . S
C644 C646 1.391 . S
C645 C644 1.386 . S
C645 C649 1.393 . S
C646 H638 0.950 . S
C646 C644 1.391 . S
C646 C647 1.400 . S
C647 C646 1.400 . S
C647 C648 1.398 . S
C647 C653 1.491 . S
C648 H639 0.950 . S
C648 C647 1.398 . S
C648 C649 1.391 . S
C649 H637 0.950 . S
C649 C645 1.393 . S
C649 C648 1.391 . S
C650 H640 0.950 . S
C650 C651 1.386 . S
C650 C652 1.391 . S
C651 C650 1.386 . S
C651 C655 1.393 . S
C652 H641 0.950 . S
C652 C650 1.391 . S
C652 C653 1.400 . S
C653 C647 1.491 . S
C653 C652 1.400 . S
C653 C654 1.398 . S
C654 H642 0.950 . S
C654 C653 1.398 . S
C654 C655 1.391 . S
C655 H643 0.950 . S
C655 C651 1.393 . S
C655 C654 1.391 . S
C185 C150 1.513 . S
C191 C7 1.514 . S
C205 C18 1.513 . S
C211 C161 1.512 . S
C225 C29 1.512 . S
C231 C172 1.512 . S
C245 C40 1.527 . S
C251 C139 1.530 . S
C265 C51 1.546 . S
C271 C128 1.545 . S
C285 C95 1.514 . S
C291 C62 1.513 . S
C305 C106 1.518 . S
C311 C73 1.521 . S
C325 C117 1.513 . S
C331 C84 1.513 . S
C345 C115 1.300 . S
C351 C5 1.336 . S
C365 C126 1.336 . S
C371 C16 1.300 . S
C385 C93 1.330 . S
C391 C27 1.297 . S
C405 C38 1.348 . S
C411 C104 1.316 . S
C425 C159 1.333 . S
C431 C49 1.299 . S
C445 C170 1.340 . S
C451 C60 1.345 . S
C465 C71 1.320 . S
C471 C137 1.295 . S
C485 C148 1.342 . S
C491 C82 1.306 . S
C505 C74 1.625 . S
C511 C8 1.636 . S
C525 C19 1.617 . S
C531 C85 1.619 . S
C545 C30 1.617 . S
C551 C52 1.629 . S
C565 C41 1.636 . S
C571 C63 1.626 . S
C585 C162 1.636 . S
C591 C96 1.625 . S
C605 C173 1.618 . S
C611 C107 1.618 . S
C625 C118 1.627 . S
C631 C140 1.637 . S
C645 C129 1.632 . S
C651 C151 1.636 . S
