# Generated by pormake.
# Topology crs, (6)-cn, num edge types: 1
# Building blocks:
#     Node 0, Type 0, BuildingBlock: BETDEL_clean_sbu_0, # of connection points: 6
#     Node 1, Type 0, BuildingBlock: BETDEL_clean_sbu_0, # of connection points: 6
#     Node 2, Type 0, BuildingBlock: BETDEL_clean_sbu_0, # of connection points: 6
#     Node 3, Type 0, BuildingBlock: BETDEL_clean_sbu_0, # of connection points: 6
#     Node 4, Type 0, BuildingBlock: BETDEL_clean_sbu_0, # of connection points: 6
#     Node 5, Type 0, BuildingBlock: BETDEL_clean_sbu_0, # of connection points: 6
#     Node 6, Type 0, BuildingBlock: BETDEL_clean_sbu_0, # of connection points: 6
#     Node 7, Type 0, BuildingBlock: BETDEL_clean_sbu_0, # of connection points: 6
#     Node 8, Type 0, BuildingBlock: BETDEL_clean_sbu_0, # of connection points: 6
#     Node 9, Type 0, BuildingBlock: BETDEL_clean_sbu_0, # of connection points: 6
#     Node 10, Type 0, BuildingBlock: BETDEL_clean_sbu_0, # of connection points: 6
#     Node 11, Type 0, BuildingBlock: BETDEL_clean_sbu_0, # of connection points: 6
#     Node 12, Type 0, BuildingBlock: BETDEL_clean_sbu_0, # of connection points: 6
#     Node 13, Type 0, BuildingBlock: BETDEL_clean_sbu_0, # of connection points: 6
#     Node 14, Type 0, BuildingBlock: BETDEL_clean_sbu_0, # of connection points: 6
#     Node 15, Type 0, BuildingBlock: BETDEL_clean_sbu_0, # of connection points: 6
#     Edge 16, Type (0, 0), BuildingBlock: ZUJKAS_clean_linker_0, # of connection points: 2
#     Edge 17, Type (0, 0), BuildingBlock: ZUJKAS_clean_linker_0, # of connection points: 2
#     Edge 18, Type (0, 0), BuildingBlock: ZUJKAS_clean_linker_0, # of connection points: 2
#     Edge 19, Type (0, 0), BuildingBlock: ZUJKAS_clean_linker_0, # of connection points: 2
#     Edge 20, Type (0, 0), BuildingBlock: ZUJKAS_clean_linker_0, # of connection points: 2
#     Edge 21, Type (0, 0), BuildingBlock: ZUJKAS_clean_linker_0, # of connection points: 2
#     Edge 22, Type (0, 0), BuildingBlock: ZUJKAS_clean_linker_0, # of connection points: 2
#     Edge 23, Type (0, 0), BuildingBlock: ZUJKAS_clean_linker_0, # of connection points: 2
#     Edge 24, Type (0, 0), BuildingBlock: ZUJKAS_clean_linker_0, # of connection points: 2
#     Edge 25, Type (0, 0), BuildingBlock: ZUJKAS_clean_linker_0, # of connection points: 2
#     Edge 26, Type (0, 0), BuildingBlock: ZUJKAS_clean_linker_0, # of connection points: 2
#     Edge 27, Type (0, 0), BuildingBlock: ZUJKAS_clean_linker_0, # of connection points: 2
#     Edge 28, Type (0, 0), BuildingBlock: ZUJKAS_clean_linker_0, # of connection points: 2
#     Edge 29, Type (0, 0), BuildingBlock: ZUJKAS_clean_linker_0, # of connection points: 2
#     Edge 30, Type (0, 0), BuildingBlock: ZUJKAS_clean_linker_0, # of connection points: 2
#     Edge 31, Type (0, 0), BuildingBlock: ZUJKAS_clean_linker_0, # of connection points: 2
#     Edge 32, Type (0, 0), BuildingBlock: ZUJKAS_clean_linker_0, # of connection points: 2
#     Edge 33, Type (0, 0), BuildingBlock: ZUJKAS_clean_linker_0, # of connection points: 2
#     Edge 34, Type (0, 0), BuildingBlock: ZUJKAS_clean_linker_0, # of connection points: 2
#     Edge 35, Type (0, 0), BuildingBlock: ZUJKAS_clean_linker_0, # of connection points: 2
#     Edge 36, Type (0, 0), BuildingBlock: ZUJKAS_clean_linker_0, # of connection points: 2
#     Edge 37, Type (0, 0), BuildingBlock: ZUJKAS_clean_linker_0, # of connection points: 2
#     Edge 38, Type (0, 0), BuildingBlock: ZUJKAS_clean_linker_0, # of connection points: 2
#     Edge 39, Type (0, 0), BuildingBlock: ZUJKAS_clean_linker_0, # of connection points: 2
#     Edge 40, Type (0, 0), BuildingBlock: ZUJKAS_clean_linker_0, # of connection points: 2
#     Edge 41, Type (0, 0), BuildingBlock: ZUJKAS_clean_linker_0, # of connection points: 2
#     Edge 42, Type (0, 0), BuildingBlock: ZUJKAS_clean_linker_0, # of connection points: 2
#     Edge 43, Type (0, 0), BuildingBlock: ZUJKAS_clean_linker_0, # of connection points: 2
#     Edge 44, Type (0, 0), BuildingBlock: ZUJKAS_clean_linker_0, # of connection points: 2
#     Edge 45, Type (0, 0), BuildingBlock: ZUJKAS_clean_linker_0, # of connection points: 2
#     Edge 46, Type (0, 0), BuildingBlock: ZUJKAS_clean_linker_0, # of connection points: 2
#     Edge 47, Type (0, 0), BuildingBlock: ZUJKAS_clean_linker_0, # of connection points: 2
#     Edge 48, Type (0, 0), BuildingBlock: ZUJKAS_clean_linker_0, # of connection points: 2
#     Edge 49, Type (0, 0), BuildingBlock: ZUJKAS_clean_linker_0, # of connection points: 2
#     Edge 50, Type (0, 0), BuildingBlock: ZUJKAS_clean_linker_0, # of connection points: 2
#     Edge 51, Type (0, 0), BuildingBlock: ZUJKAS_clean_linker_0, # of connection points: 2
#     Edge 52, Type (0, 0), BuildingBlock: ZUJKAS_clean_linker_0, # of connection points: 2
#     Edge 53, Type (0, 0), BuildingBlock: ZUJKAS_clean_linker_0, # of connection points: 2
#     Edge 54, Type (0, 0), BuildingBlock: ZUJKAS_clean_linker_0, # of connection points: 2
#     Edge 55, Type (0, 0), BuildingBlock: ZUJKAS_clean_linker_0, # of connection points: 2
#     Edge 56, Type (0, 0), BuildingBlock: ZUJKAS_clean_linker_0, # of connection points: 2
#     Edge 57, Type (0, 0), BuildingBlock: ZUJKAS_clean_linker_0, # of connection points: 2
#     Edge 58, Type (0, 0), BuildingBlock: ZUJKAS_clean_linker_0, # of connection points: 2
#     Edge 59, Type (0, 0), BuildingBlock: ZUJKAS_clean_linker_0, # of connection points: 2
#     Edge 60, Type (0, 0), BuildingBlock: ZUJKAS_clean_linker_0, # of connection points: 2
#     Edge 61, Type (0, 0), BuildingBlock: ZUJKAS_clean_linker_0, # of connection points: 2
#     Edge 62, Type (0, 0), BuildingBlock: ZUJKAS_clean_linker_0, # of connection points: 2
#     Edge 63, Type (0, 0), BuildingBlock: ZUJKAS_clean_linker_0, # of connection points: 2
# Relax obj value: 0.334
# Max RMSD: 0.288
# Mean RMSD: 0.249
data_MOF--net-crs--node1-BETDEL_clean_sbu_0--edge1-ZUJKAS_clean_linker_0
_symmetry_space_group_name_H-M    P1
_symmetry_Int_Tables_number       1
_symmetry_cell_setting            triclinic
loop_
_symmetry_equiv_pos_as_xyz
'x, y, z'
_cell_length_a     54.461263
_cell_length_b     54.9359
_cell_length_c     55.02409
_cell_angle_alpha  86.376661
_cell_angle_beta   87.251772
_cell_angle_gamma 82.410162
loop_
_atom_site_label
_atom_site_type_symbol
_atom_site_fract_x
_atom_site_fract_y
_atom_site_fract_z
_atom_type_partial_charge
Dy0 Dy 0.97496 0.98695 -0.00209 0.0
C1 C 0.07758 0.00185 0.98097 0.0
C2 C 0.92519 0.98543 -0.00024 0.0
Dy3 Dy 0.0279 0.00043 0.98599 0.0
O4 O 0.93842 0.98662 0.01855 0.0
O5 O 0.93922 0.98464 0.98001 0.0
O6 O 0.98918 0.9604 0.02839 0.0
O7 O 0.00634 0.99196 0.01893 0.0
C8 C 0.00774 0.97224 0.03202 0.0
C9 C 0.99447 0.01521 0.95257 0.0
O10 O 0.03225 0.95959 0.98208 0.0
O11 O 0.99107 0.95376 0.97865 0.0
O12 O 0.06323 -0.00012 0.96325 0.0
O13 O 0.06472 0.00358 0.00143 0.0
O14 O 0.01242 0.02775 0.9564 0.0
O15 O -0.00336 -0.00471 0.96524 0.0
O16 O 0.9709 0.02766 0.00304 0.0
O17 O 0.01225 0.03331 0.00589 0.0
C18 C 0.01514 0.94601 0.97645 0.0
C19 C 0.98822 0.04111 0.00849 0.0
Dy20 Dy 0.01325 0.26611 0.25345 0.0
C21 C 0.9663 0.20504 0.19368 0.0
C22 C 0.02972 0.29659 0.2844 0.0
Dy23 Dy 0.98229 0.23606 0.22438 0.0
O24 O 0.03397 0.27276 0.28615 0.0
O25 O 0.01667 0.30386 0.26551 0.0
O26 O 0.04701 0.23946 0.24551 0.0
O27 O 0.01193 0.22716 0.24957 0.0
C28 C 0.03449 0.22107 0.24401 0.0
C29 C 0.96125 0.28134 0.23338 0.0
O30 O 0.96879 0.22474 0.26159 0.0
O31 O 0.9822 0.25742 0.27977 0.0
O32 O 0.95802 0.2282 0.19476 0.0
O33 O 0.98309 0.19867 0.20968 0.0
O34 O 0.94867 0.26295 0.23208 0.0
O35 O 0.98378 0.275 0.228 0.0
O36 O 0.02634 0.27812 0.21623 0.0
O37 O 0.01141 0.24692 0.19691 0.0
C38 C 0.969 0.2387 0.28033 0.0
C39 C 0.02478 0.26548 0.19676 0.0
Dy40 Dy 0.73457 0.22076 0.49682 0.0
C41 C 0.75225 0.32198 0.50171 0.0
C42 C 0.72846 0.17241 0.50343 0.0
Dy43 Dy 0.74452 0.2739 0.50526 0.0
O44 O 0.7268 0.18518 0.48275 0.0
O45 O 0.73305 0.18614 0.52054 0.0
O46 O 0.72415 0.23197 0.45832 0.0
O47 O 0.71803 0.25768 0.48529 0.0
C48 C 0.71777 0.25495 0.46278 0.0
C49 C 0.76194 0.2389 0.5386 0.0
O50 O 0.70542 0.27553 0.51981 0.0
O51 O 0.70464 0.2333 0.52467 0.0
O52 O 0.74893 0.30918 0.52195 0.0
O53 O 0.75156 0.30846 0.4833 0.0
O54 O 0.75476 0.2615 0.54381 0.0
O55 O 0.76142 0.23707 0.51604 0.0
O56 O 0.77278 0.21961 0.47996 0.0
O57 O 0.77428 0.26187 0.47708 0.0
C58 C 0.69535 0.25621 0.52934 0.0
C59 C 0.78305 0.23914 0.47127 0.0
Dy60 Dy 0.73239 0.98332 0.73112 0.0
C61 C 0.80156 0.02181 0.7912 0.0
C62 C 0.69577 0.97175 0.70385 0.0
Dy63 Dy 0.76573 0.00878 0.7638 0.0
O64 O 0.71862 0.97234 0.69611 0.0
O65 O 0.69296 0.97745 0.72643 0.0
O66 O 0.76161 0.95072 0.72911 0.0
O67 O 0.77162 0.98598 0.7328 0.0
C68 C 0.77951 0.9634 0.73277 0.0
C69 C 0.71843 0.02855 0.76164 0.0
O70 O 0.7714 0.02962 0.72843 0.0
O71 O 0.73697 0.01906 0.70996 0.0
O72 O 0.77805 0.02939 0.79401 0.0
O73 O 0.80549 0.00695 0.77358 0.0
O74 O 0.73633 0.04144 0.76463 0.0
O75 O 0.72652 0.00603 0.76206 0.0
O76 O 0.72857 0.96053 0.76576 0.0
O77 O 0.76015 0.97423 0.78639 0.0
C78 C 0.75526 0.03276 0.71085 0.0
C79 C 0.74351 0.9589 0.78432 0.0
Dy80 Dy 0.51028 0.76241 0.26626 0.0
C81 C 0.46343 0.69527 0.2125 0.0
C82 C 0.52821 0.79863 0.28894 0.0
Dy83 Dy 0.48309 0.73019 0.23559 0.0
O84 O 0.54009 0.77691 0.28577 0.0
O85 O 0.5067 0.80075 0.27922 0.0
O86 O 0.52707 0.72874 0.28758 0.0
O87 O 0.51947 0.72678 0.25069 0.0
C88 C 0.52644 0.71445 0.26976 0.0
C89 C 0.46765 0.7784 0.23226 0.0
O90 O 0.46946 0.72003 0.27357 0.0
O91 O 0.48083 0.75285 0.29321 0.0
O92 O 0.45214 0.71707 0.21642 0.0
O93 O 0.48522 0.69242 0.22163 0.0
O94 O 0.46786 0.76442 0.21409 0.0
O95 O 0.47382 0.76577 0.25137 0.0
O96 O 0.52556 0.77093 0.2283 0.0
O97 O 0.51374 0.73786 0.20938 0.0
C98 C 0.46927 0.73311 0.29306 0.0
C99 C 0.52615 0.75703 0.2093 0.0
Dy100 Dy 0.24322 0.71541 0.4959 0.0
C101 C 0.26429 0.81408 0.50943 0.0
C102 C 0.2382 0.66677 0.49638 0.0
Dy103 Dy 0.2595 0.76564 0.50745 0.0
O104 O 0.23103 0.68302 0.47911 0.0
O105 O 0.24795 0.67712 0.51343 0.0
O106 O 0.22268 0.7339 0.46369 0.0
O107 O 0.25473 0.74681 0.47496 0.0
C108 C 0.23716 0.75098 0.46067 0.0
C109 C 0.26605 0.72974 0.54222 0.0
O110 O 0.21786 0.77275 0.50943 0.0
O111 O 0.20853 0.73258 0.51436 0.0
O112 O 0.26035 0.79939 0.52823 0.0
O113 O 0.26611 0.8022 0.48964 0.0
O114 O 0.28083 0.74652 0.53876 0.0
O115 O 0.24805 0.73421 0.52842 0.0
O116 O 0.28463 0.70895 0.48904 0.0
O117 O 0.29494 0.74876 0.49016 0.0
C118 C 0.20196 0.75668 0.51484 0.0
C119 C 0.30088 0.72508 0.48621 0.0
Dy120 Dy 0.22972 0.48182 0.73007 0.0
C121 C 0.30113 0.51571 0.79111 0.0
C122 C 0.193 0.47412 0.70074 0.0
Dy123 Dy 0.26587 0.50486 0.76157 0.0
O124 O 0.21595 0.46422 0.69845 0.0
O125 O 0.1901 0.48805 0.71913 0.0
O126 O 0.2528 0.44513 0.73471 0.0
O127 O 0.26951 0.47766 0.73431 0.0
C128 C 0.27301 0.4546 0.73783 0.0
C129 C 0.22215 0.53155 0.75362 0.0
O130 O 0.27826 0.51879 0.72481 0.0
O131 O 0.24328 0.51164 0.70498 0.0
O132 O 0.27818 0.52575 0.79158 0.0
O133 O 0.30483 0.4996 0.77459 0.0
O134 O 0.24235 0.54132 0.75572 0.0
O135 O 0.22606 0.50862 0.7576 0.0
O136 O 0.21894 0.46584 0.76663 0.0
O137 O 0.25327 0.47464 0.78663 0.0
C138 C 0.26401 0.52187 0.70571 0.0
C139 C 0.23336 0.46315 0.78564 0.0
Dy140 Dy 0.96798 0.49815 0.49666 0.0
C141 C 0.06762 0.52238 0.48934 0.0
C142 C 0.91983 0.48982 0.49697 0.0
Dy143 Dy 0.01884 0.518 0.48603 0.0
O144 O 0.93234 0.49083 0.51632 0.0
O145 O 0.93366 0.49325 0.47751 0.0
O146 O 0.9854 0.47249 0.52655 0.0
O147 O -0.00249 0.50692 0.51801 0.0
C148 C 0.00154 0.48708 0.53066 0.0
C149 C 0.98581 0.52925 0.45166 0.0
O150 O 0.02705 0.4793 0.47368 0.0
O151 O 0.98774 0.46647 0.47725 0.0
O152 O 0.05274 0.53568 0.47443 0.0
O153 O 0.05584 0.50679 0.50235 0.0
O154 O 0.00274 0.54321 0.45516 0.0
O155 O 0.98931 0.50958 0.46469 0.0
O156 O 0.95901 0.53848 0.50339 0.0
O157 O -0.00103 0.54761 0.50815 0.0
C158 C 0.01173 0.46279 0.47105 0.0
C159 C 0.97453 0.55335 0.51006 0.0
Dy160 Dy 0.2346 0.21442 0.98331 0.0
C161 C 0.26303 0.30826 0.00382 0.0
C162 C 0.22701 0.16738 0.97717 0.0
Dy163 Dy 0.25435 0.26129 -0.00125 0.0
O164 O 0.23493 0.18219 0.96014 0.0
O165 O 0.22261 0.17845 0.99738 0.0
O166 O 0.2149 0.23644 0.95253 0.0
O167 O 0.24832 0.24602 0.96448 0.0
C168 C 0.23065 0.25239 0.95056 0.0
C169 C 0.25792 0.22341 0.03172 0.0
O170 O 0.2129 0.27138 0.00079 0.0
O171 O 0.20007 0.23259 0.00107 0.0
O172 O 0.25601 0.29356 0.02144 0.0
O173 O 0.26576 0.29716 0.98356 0.0
O174 O 0.27361 0.23944 0.02998 0.0
O175 O 0.2405 0.2298 0.01754 0.0
O176 O 0.27587 0.20385 0.9829 0.0
O177 O 0.28919 0.2424 0.98209 0.0
C178 C 0.19552 0.25652 0.00422 0.0
C179 C 0.29354 0.21833 0.97972 0.0
Dy180 Dy 0.22033 0.98158 0.23825 0.0
C181 C 0.29701 0.01469 0.29254 0.0
C182 C 0.18232 0.97129 0.21197 0.0
Dy183 Dy 0.25842 0.00404 0.26726 0.0
O184 O 0.2055 0.96854 0.20474 0.0
O185 O 0.17982 0.97985 0.23354 0.0
O186 O 0.24618 0.9464 0.23725 0.0
O187 O 0.26054 0.98014 0.23712 0.0
C188 C 0.26595 0.95713 0.23825 0.0
C189 C 0.21286 0.02874 0.2666 0.0
O190 O 0.26468 0.02212 0.23052 0.0
O191 O 0.22702 0.01572 0.21546 0.0
O192 O 0.27437 0.02538 0.29468 0.0
O193 O 0.29862 -0.00207 0.27669 0.0
O194 O 0.23267 0.0394 0.26766 0.0
O195 O 0.21836 0.00576 0.26795 0.0
O196 O 0.2145 0.96221 0.27434 0.0
O197 O 0.24989 0.9717 0.29194 0.0
C198 C 0.24732 0.02682 0.21416 0.0
C199 C 0.23056 0.95924 0.29196 0.0
Dy200 Dy 0.5073 0.24718 0.77626 0.0
C201 C 0.45777 0.19192 0.7125 0.0
C202 C 0.52078 0.27679 0.80974 0.0
Dy203 Dy 0.47532 0.21911 0.74592 0.0
O204 O 0.53621 0.26212 0.79693 0.0
O205 O 0.49819 0.27551 0.80395 0.0
O206 O 0.5418 0.22356 0.76386 0.0
O207 O 0.50781 0.20919 0.76736 0.0
C208 C 0.53006 0.20517 0.75986 0.0
C209 C 0.45286 0.26086 0.76333 0.0
O210 O 0.46775 0.20024 0.78203 0.0
O211 O 0.48516 0.22737 0.80488 0.0
O212 O 0.44821 0.21396 0.71772 0.0
O213 O 0.47675 0.18462 0.72574 0.0
O214 O 0.44145 0.24191 0.76067 0.0
O215 O 0.47482 0.25723 0.75481 0.0
O216 O 0.51376 0.26594 0.73994 0.0
O217 O 0.50128 0.23517 0.71815 0.0
C218 C 0.47205 0.20884 0.80319 0.0
C219 C 0.51264 0.25499 0.71931 0.0
Dy220 Dy 0.0186 0.76706 0.75239 0.0
C221 C 0.96296 0.7085 0.69794 0.0
C222 C 0.03887 0.79564 0.78262 0.0
Dy223 Dy 0.98355 0.73795 0.72702 0.0
O224 O 0.04549 0.77226 0.78069 0.0
O225 O 0.02148 0.80355 0.76763 0.0
O226 O 0.05128 0.74292 0.73737 0.0
O227 O 0.01778 0.72842 0.74611 0.0
C228 C 0.0393 0.72403 0.73656 0.0
C229 C 0.96319 0.78123 0.7427 0.0
O230 O 0.97745 0.72279 0.76493 0.0
O231 O 0.99365 0.75405 0.78287 0.0
O232 O 0.95487 0.73143 0.70099 0.0
O233 O 0.98216 0.70156 0.71099 0.0
O234 O 0.95091 0.76254 0.74196 0.0
O235 O 0.9846 0.77644 0.73318 0.0
O236 O 0.02462 0.78246 0.71454 0.0
O237 O 0.00779 0.75169 0.69627 0.0
C238 C 0.98112 0.73484 0.78427 0.0
C239 C 0.02052 0.77078 0.69508 0.0
Dy240 Dy 0.72687 0.48052 0.23081 0.0
C241 C 0.79502 0.51916 0.29068 0.0
C242 C 0.69101 0.46301 0.2067 0.0
Dy243 Dy 0.75798 0.5027 0.2674 0.0
O244 O 0.71451 0.45508 0.20476 0.0
O245 O 0.68713 0.4805 0.22176 0.0
O246 O 0.76152 0.47138 0.20762 0.0
O247 O 0.76313 0.47076 0.24581 0.0
C248 C 0.77578 0.46896 0.22613 0.0
C249 C 0.70902 0.51526 0.27178 0.0
O250 O 0.76436 0.52489 0.23225 0.0
O251 O 0.73123 0.51615 0.21054 0.0
O252 O 0.77227 0.52981 0.29035 0.0
O253 O 0.79748 0.49951 0.27839 0.0
O254 O 0.72337 0.51344 0.29022 0.0
O255 O 0.72182 0.51259 0.25227 0.0
O256 O 0.72116 0.45727 0.26535 0.0
O257 O 0.75198 0.46817 0.28891 0.0
C258 C 0.74981 0.52894 0.2133 0.0
C259 C 0.73447 0.45435 0.2852 0.0
Dy260 Dy 0.75383 0.71709 0.99375 0.0
C261 C 0.77166 0.81657 0.00673 0.0
C262 C 0.74413 0.66968 0.99466 0.0
Dy263 Dy 0.76391 0.7687 0.00696 0.0
O264 O 0.74821 0.68323 0.97507 0.0
O265 O 0.74518 0.68208 0.01381 0.0
O266 O 0.75129 0.73032 0.95423 0.0
O267 O 0.74071 0.75484 0.98161 0.0
C268 C 0.74455 0.75312 0.95906 0.0
C269 C 0.7732 0.73264 0.04158 0.0
O270 O 0.7231 0.77182 0.01442 0.0
O271 O 0.7201 0.72998 0.01718 0.0
O272 O 0.76527 0.80346 0.02585 0.0
O273 O 0.77444 0.80339 0.98778 0.0
O274 O 0.76639 0.7554 0.04648 0.0
O275 O 0.77706 0.73105 0.01904 0.0
O276 O 0.79451 0.71398 0.98523 0.0
O277 O 0.79789 0.75584 0.98385 0.0
C278 C 0.71097 0.75303 0.02139 0.0
C279 C 0.80684 0.73286 0.97905 0.0
Dy280 Dy 0.46904 0.9913 0.50366 0.0
C281 C 0.56859 0.0159 0.49625 0.0
C282 C 0.42053 0.9841 0.50567 0.0
Dy283 Dy 0.51994 0.01088 0.49305 0.0
O284 O 0.4333 0.98674 0.52443 0.0
O285 O 0.43434 0.98503 0.48582 0.0
O286 O 0.48593 0.96603 0.534 0.0
O287 O 0.49842 0.00027 0.52515 0.0
C288 C 0.50215 0.98055 0.53807 0.0
C289 C 0.48729 0.0212 0.45809 0.0
O290 O 0.52825 0.97179 0.48196 0.0
O291 O 0.48869 0.95959 0.48402 0.0
O292 O 0.55351 0.02912 0.48149 0.0
O293 O 0.55712 -4e-05 0.50909 0.0
O294 O 0.50421 0.03526 0.4613 0.0
O295 O 0.49068 0.00198 0.47171 0.0
O296 O 0.46022 0.03199 0.50865 0.0
O297 O 0.49998 0.0407 0.51479 0.0
C298 C 0.51286 0.95554 0.47852 0.0
C299 C 0.47558 0.04673 0.51588 0.0
Dy300 Dy 0.46827 0.48416 0.00876 0.0
C301 C 0.56766 0.51096 0.99585 0.0
C302 C 0.41962 0.47759 0.01133 0.0
Dy303 Dy 0.51926 0.50319 0.99732 0.0
O304 O 0.4332 0.47806 0.03001 0.0
O305 O 0.43271 0.48033 0.99123 0.0
O306 O 0.48571 0.45626 0.03659 0.0
O307 O 0.49925 0.49034 0.02965 0.0
C308 C 0.50287 0.46961 0.04093 0.0
C309 C 0.48452 0.51672 0.96473 0.0
O310 O 0.52728 0.46312 0.98915 0.0
O311 O 0.48695 0.45361 0.98727 0.0
O312 O 0.55466 0.50999 0.97683 0.0
O313 O 0.55418 0.50781 0.0156 0.0
O314 O 0.50139 0.53051 0.96885 0.0
O315 O 0.48855 0.4964 0.97654 0.0
O316 O 0.46039 0.52401 0.01724 0.0
O317 O 0.50063 0.53348 0.01928 0.0
C318 C 0.51128 0.44813 0.98379 0.0
C319 C 0.47634 0.53878 0.0231 0.0
H320 H 0.94088 0.06183 0.01997 0.0
H321 H 0.92852 0.09543 0.04684 0.0
H322 H 0.00518 0.10562 0.05237 0.0
H323 H 0.01774 0.07238 0.02536 0.0
H324 H 0.94295 0.09236 0.09381 0.0
H325 H 0.97165 0.17611 0.04584 0.0
H326 H 0.96827 0.14888 0.03018 0.0
H327 H -0.00376 0.15094 0.04568 0.0
C328 C 0.9551 0.07163 0.02637 0.0
C329 C 0.98035 0.06424 0.02069 0.0
C330 C 0.94796 0.09082 0.04174 0.0
C331 C 0.96591 0.1031 0.05146 0.0
C332 C 0.99098 0.09672 0.04469 0.0
H333 H 0.98448 0.15719 0.18769 0.0
H334 H 0.97895 0.1331 0.15292 0.0
C335 C -0.00185 0.07755 0.02934 0.0
C336 C 0.95901 0.12011 0.07115 0.0
H337 H 0.96829 0.17602 0.08992 0.0
C338 C 0.948 0.11086 0.0928 0.0
C339 C 0.96532 0.14431 0.06972 0.0
C340 C 0.97579 0.15573 0.04649 0.0
C341 C 0.94463 0.12461 0.11358 0.0
C342 C 0.95283 0.148 0.1127 0.0
C343 C 0.9623 0.15792 0.09061 0.0
C344 C 0.95372 0.1616 0.13489 0.0
C345 C 0.93292 0.11373 0.13644 0.0
C346 C 0.94135 0.18557 0.13623 0.0
C347 C 0.94453 0.19935 0.15605 0.0
C348 C 0.96032 0.18942 0.17465 0.0
C349 C 0.97208 0.16518 0.17365 0.0
C350 C 0.96885 0.15139 0.15387 0.0
H351 H 0.92086 0.09987 0.13217 0.0
H352 H 0.94772 0.10434 0.14818 0.0
H353 H 0.92171 0.12821 0.14691 0.0
H354 H 0.92974 0.19379 0.12166 0.0
H355 H 0.93533 0.21807 0.15638 0.0
H356 H 0.80162 0.19735 0.44862 0.0
H357 H 0.83626 0.19228 0.41858 0.0
H358 H 0.8486 0.26738 0.4256 0.0
H359 H 0.81395 0.27277 0.45553 0.0
H360 H 0.83816 0.22516 0.37326 0.0
H361 H 0.91857 0.22372 0.43212 0.0
H362 H 0.88888 0.21573 0.44372 0.0
H363 H 0.893 0.24739 0.4372 0.0
C364 C 0.81188 0.21272 0.44403 0.0
C365 C 0.80503 0.23548 0.45447 0.0
C366 C 0.83162 0.20976 0.42686 0.0
C367 C 0.84503 0.22938 0.42015 0.0
C368 C 0.83861 0.25195 0.43085 0.0
H369 H 0.95764 0.26849 0.31818 0.0
H370 H 0.92834 0.26327 0.35239 0.0
C371 C 0.81874 0.25501 0.44785 0.0
C372 C 0.86461 0.22693 0.40068 0.0
H373 H 0.92656 0.22804 0.38936 0.0
C374 C 0.85756 0.22547 0.37671 0.0
C375 C 0.88976 0.22747 0.40542 0.0
C376 C 0.89817 0.22848 0.43102 0.0
C377 C 0.87495 0.22559 0.35708 0.0
C378 C 0.90014 0.2265 0.36174 0.0
C379 C 0.90725 0.22728 0.38586 0.0
C380 C 0.91907 0.22845 0.34175 0.0
C381 C 0.86596 0.22596 0.33151 0.0
C382 C 0.924 0.21029 0.3247 0.0
C383 C 0.94059 0.21334 0.30489 0.0
C384 C 0.95278 0.23443 0.30206 0.0
C385 C 0.94855 0.25204 0.31976 0.0
C386 C 0.93182 0.24909 0.33938 0.0
H387 H 0.84557 0.23118 0.33089 0.0
H388 H 0.87516 0.23904 0.31912 0.0
H389 H 0.87046 0.20733 0.32449 0.0
H390 H 0.91479 0.19393 0.32653 0.0
H391 H 0.94366 0.19931 0.29171 0.0
H392 H 0.73192 0.0404 0.66751 0.0
H393 H 0.73527 0.07381 0.63645 0.0
H394 H 0.78574 0.10417 0.68063 0.0
H395 H 0.78313 0.07053 0.71134 0.0
H396 H 0.72283 0.12197 0.63914 0.0
H397 H 0.82329 0.10375 0.61613 0.0
H398 H 0.80687 0.08195 0.63405 0.0
H399 H 0.81734 0.10726 0.64812 0.0
C400 C 0.74391 0.05407 0.67051 0.0
C401 C 0.75743 0.05268 0.6918 0.0
C402 C 0.74579 0.07315 0.65274 0.0
C403 C 0.76114 0.09122 0.65598 0.0
C404 C 0.77438 0.09004 0.67737 0.0
H405 H 0.74727 0.23785 0.58665 0.0
H406 H 0.74782 0.20149 0.61494 0.0
C407 C 0.77273 0.07084 0.695 0.0
C408 C 0.76246 0.11196 0.63756 0.0
H409 H 0.80295 0.14351 0.60309 0.0
C410 C 0.74033 0.12655 0.63111 0.0
C411 C 0.78527 0.11768 0.62674 0.0
C412 C 0.80949 0.10166 0.63141 0.0
C413 C 0.74046 0.14715 0.61471 0.0
C414 C 0.76339 0.15372 0.6051 0.0
C415 C 0.78544 0.1387 0.6109 0.0
C416 C 0.76479 0.17596 0.58871 0.0
C417 C 0.71602 0.16148 0.60758 0.0
C418 C 0.77532 0.17378 0.56505 0.0
C419 C 0.77538 0.19454 0.54905 0.0
C420 C 0.76478 0.21773 0.55645 0.0
C421 C 0.75539 0.22011 0.58049 0.0
C422 C 0.75545 0.19935 0.59654 0.0
H423 H 0.70049 0.15029 0.61094 0.0
H424 H 0.71201 0.17785 0.61864 0.0
H425 H 0.71659 0.1679 0.58804 0.0
H426 H 0.78282 0.15592 0.55873 0.0
H427 H 0.78296 0.19233 0.53064 0.0
H428 H 0.96457 0.9854 0.93551 0.0
H429 H 0.93069 -0.00354 0.90796 0.0
H430 H 0.94566 0.07186 0.90296 0.0
H431 H 0.98009 0.06071 0.93068 0.0
H432 H 0.8887 0.03076 0.91516 0.0
H433 H 0.94424 0.05412 0.83121 0.0
H434 H 0.95825 0.03741 0.85742 0.0
H435 H 0.94832 0.06982 0.85817 0.0
C436 C 0.96064 0.00436 0.9286 0.0
C437 C 0.97475 0.02227 0.93526 0.0
C438 C 0.94132 0.01064 0.91286 0.0
C439 C 0.93576 0.03493 0.90342 0.0
C440 C 0.9499 0.05295 0.90988 0.0
H441 H 0.79672 0.05669 0.82472 0.0
H442 H 0.82858 0.06602 0.85147 0.0
C443 C 0.96945 0.0466 0.92567 0.0
C444 C 0.91488 0.04081 0.88699 0.0
H445 H 0.90179 0.05264 0.82709 0.0
C446 C 0.89136 0.03599 0.89596 0.0
C447 C 0.91863 0.04753 0.86202 0.0
C448 C 0.94371 0.05242 0.85145 0.0
C449 C 0.87178 0.03615 0.88034 0.0
C450 C 0.87575 0.04199 0.85516 0.0
C451 C 0.89888 0.04824 0.84642 0.0
C452 C 0.85717 0.03875 0.83734 0.0
C453 C 0.84762 0.02843 0.8907 0.0
C454 C 0.86304 0.02109 0.81991 0.0
C455 C 0.84504 0.01599 0.80446 0.0
C456 C 0.82088 0.02841 0.80633 0.0
C457 C 0.8152 0.04669 0.82317 0.0
C458 C 0.83331 0.05198 0.83846 0.0
H459 H 0.84937 0.01986 0.90948 0.0
H460 H 0.8334 0.04484 0.89141 0.0
H461 H 0.84088 0.01514 0.87904 0.0
H462 H 0.88136 0.01068 0.81877 0.0
H463 H 0.84986 0.00188 0.79153 0.0
H464 H 0.00945 0.93379 0.06633 0.0
H465 H 0.03451 0.92786 0.10276 0.0
H466 H 0.06751 0.99338 0.0806 0.0
H467 H 0.04215 -0.00021 0.04495 0.0
H468 H 0.08516 0.92184 0.10786 0.0
H469 H 0.04219 0.00673 0.14965 0.0
H470 H 0.02862 0.99405 0.12476 0.0
H471 H 0.05288 0.01326 0.11891 0.0
C472 C 0.02211 0.94684 0.0693 0.0
C473 C 0.02389 0.96725 0.0529 0.0
C474 C 0.03634 0.94347 0.09006 0.0
C475 C 0.05238 0.96052 0.09462 0.0
C476 C 0.05475 0.98038 0.07775 0.0
H477 H 0.18523 0.95811 0.16519 0.0
H478 H 0.15122 0.95137 0.1402 0.0
C479 C 0.04049 0.98384 0.05721 0.0
C480 C 0.06717 0.9577 0.11667 0.0
H481 H 0.08347 0.99071 0.16233 0.0
C482 C 0.0845 0.93665 0.12011 0.0
C483 C 0.06579 0.97671 0.13305 0.0
C484 C 0.04615 -0.00119 0.13157 0.0
C485 C 0.10185 0.935 0.13837 0.0
C486 C 0.10217 0.95522 0.15304 0.0
C487 C 0.08354 0.97538 0.15082 0.0
C488 C 0.12287 0.95704 0.16902 0.0
C489 C 0.11995 0.91184 0.14141 0.0
C490 C 0.11819 0.96316 0.19337 0.0
C491 C 0.1376 0.96756 0.20753 0.0
C492 C 0.16192 0.96585 0.19753 0.0
C493 C 0.16664 0.95937 0.17335 0.0
C494 C 0.14725 0.95523 0.15915 0.0
H495 H 0.11166 0.89559 0.13619 0.0
H496 H 0.13653 0.91352 0.12919 0.0
H497 H 0.12596 0.90852 0.16046 0.0
H498 H 0.09947 0.96493 0.20126 0.0
H499 H 0.13354 0.97256 0.22617 0.0
H500 H 0.99226 0.41951 0.4721 0.0
H501 H 0.00232 0.38677 0.44383 0.0
H502 H 0.06058 0.42482 0.40984 0.0
H503 H 0.05126 0.45707 0.43864 0.0
H504 H 0.99579 0.39537 0.39722 0.0
H505 H 0.09343 0.35526 0.40876 0.0
H506 H 0.07619 0.37417 0.43106 0.0
H507 H 0.0903 0.38813 0.40435 0.0
C508 C 0.00768 0.42051 0.45906 0.0
C509 C 0.02086 0.4409 0.45746 0.0
C510 C 0.01342 0.4018 0.44292 0.0
C511 C 0.03226 0.40328 0.42475 0.0
C512 C 0.04636 0.42295 0.42402 0.0
H513 H 0.02281 0.34666 0.28287 0.0
H514 H 0.02642 0.37281 0.31665 0.0
C515 C 0.0409 0.44148 0.44044 0.0
C516 C 0.03457 0.38642 0.40455 0.0
H517 H 0.07573 0.34848 0.37085 0.0
C518 C 0.01325 0.38491 0.39167 0.0
C519 C 0.05731 0.37271 0.39733 0.0
C520 C 0.08053 0.37244 0.41127 0.0
C521 C 0.01404 0.3704 0.37159 0.0
C522 C 0.03699 0.35768 0.3636 0.0
C523 C 0.05827 0.35868 0.37674 0.0
C524 C 0.03882 0.34253 0.34215 0.0
C525 C 0.99013 0.36855 0.35939 0.0
C526 C 0.04607 0.31709 0.34493 0.0
C527 C 0.0444 0.30222 0.32557 0.0
C528 C 0.03537 0.31261 0.30324 0.0
C529 C 0.02961 0.33822 0.3 0.0
C530 C 0.03154 0.35312 0.31928 0.0
H531 H 0.97367 0.37376 0.37159 0.0
H532 H 0.98874 0.3813 0.3429 0.0
H533 H 0.9895 0.34961 0.35373 0.0
H534 H 0.05187 0.30861 0.36239 0.0
H535 H 0.04904 0.28249 0.32848 0.0
H536 H 0.66847 0.30012 0.54044 0.0
H537 H 0.63451 0.30684 0.57105 0.0
H538 H 0.63865 0.22857 0.5868 0.0
H539 H 0.67259 0.22156 0.55639 0.0
H540 H 0.58674 0.28641 0.57631 0.0
H541 H 0.64949 0.25936 0.6528 0.0
H542 H 0.66072 0.26785 0.62242 0.0
H543 H 0.65187 0.23773 0.62935 0.0
C544 C 0.66203 0.2843 0.55026 0.0
C545 C 0.67335 0.2603 0.54608 0.0
C546 C 0.64262 0.28821 0.56769 0.0
C547 C 0.6344 0.26821 0.5813 0.0
C548 C 0.64502 0.24422 0.5766 0.0
H549 H 0.51218 0.23925 0.6733 0.0
H550 H 0.53989 0.24816 0.63878 0.0
C551 C 0.66433 0.24027 0.55914 0.0
C552 C 0.61533 0.27228 0.60109 0.0
H553 H 0.60617 0.26257 0.66244 0.0
C554 C 0.59095 0.28149 0.59519 0.0
C555 C 0.62109 0.26629 0.62569 0.0
C556 C 0.64725 0.25746 0.63307 0.0
C557 C 0.57183 0.28365 0.61327 0.0
C558 C 0.57735 0.27621 0.63769 0.0
C559 C 0.60197 0.2682 0.64368 0.0
C560 C 0.55781 0.27436 0.65707 0.0
C561 C 0.54588 0.29357 0.60606 0.0
C562 C 0.55854 0.28629 0.67878 0.0
C563 C 0.5428 0.28111 0.69869 0.0
C564 C 0.52627 0.26368 0.69727 0.0
C565 C 0.52474 0.25272 0.67506 0.0
C566 C 0.54043 0.25796 0.65518 0.0
H567 H 0.54605 0.30551 0.58901 0.0
H568 H 0.53568 0.27797 0.60275 0.0
H569 H 0.53566 0.30425 0.6207 0.0
H570 H 0.57198 0.29889 0.68061 0.0
H571 H 0.54445 0.28987 0.71552 0.0
H572 H 0.7689 0.95037 0.82646 0.0
H573 H 0.76812 0.91566 0.85637 0.0
H574 H 0.71505 0.8863 0.81452 0.0
H575 H 0.71528 0.92116 0.78473 0.0
H576 H 0.70295 0.88454 0.86352 0.0
H577 H 0.80124 0.84595 0.84653 0.0
H578 H 0.79719 0.87743 0.85456 0.0
H579 H 0.7853 0.86956 0.82657 0.0
C580 C 0.75698 0.9366 0.82361 0.0
C581 C 0.74222 0.93853 0.80311 0.0
C582 C 0.75671 0.91667 0.84067 0.0
C583 C 0.74189 0.89818 0.83741 0.0
C584 C 0.72672 0.90032 0.81729 0.0
H585 H 0.75643 0.75247 0.91044 0.0
H586 H 0.75478 0.78775 0.8807 0.0
C587 C 0.72689 0.92028 0.80028 0.0
C588 C 0.74209 0.87661 0.85501 0.0
H589 H 0.77984 0.82795 0.88026 0.0
C590 C 0.71974 0.87212 0.86715 0.0
C591 C 0.76396 0.86025 0.85942 0.0
C592 C 0.78824 0.86334 0.84593 0.0
C593 C 0.71871 0.85187 0.88388 0.0
C594 C 0.74074 0.83599 0.8889 0.0
C595 C 0.76302 0.84029 0.87651 0.0
C596 C 0.74107 0.81468 0.90683 0.0
C597 C 0.69397 0.84744 0.89566 0.0
C598 C 0.73401 0.81816 0.93136 0.0
C599 C 0.73473 0.79805 0.94827 0.0
C600 C 0.74287 0.77417 0.941 0.0
C601 C 0.75 0.77069 0.91648 0.0
C602 C 0.74915 0.79081 0.89953 0.0
H603 H 0.6783 0.85694 0.88502 0.0
H604 H 0.69225 0.82748 0.89758 0.0
H605 H 0.69226 0.8547 0.91411 0.0
H606 H 0.72823 0.83646 0.93749 0.0
H607 H 0.72913 0.80123 0.96708 0.0
H608 H 0.18056 0.30352 0.01767 0.0
H609 H 0.14525 0.31677 0.04493 0.0
H610 H 0.12077 0.24538 0.04387 0.0
H611 H 0.15584 0.2319 0.01655 0.0
H612 H 0.08122 0.2886 0.04604 0.0
H613 H 0.15342 0.28342 0.11549 0.0
H614 H 0.15689 0.30276 0.08825 0.0
H615 H 0.15984 0.27001 0.0864 0.0
C616 C 0.16732 0.29081 0.02267 0.0
C617 C 0.17134 0.26644 0.01539 0.0
C618 C 0.14717 0.29846 0.03825 0.0
C619 C 0.13078 0.28188 0.04667 0.0
C620 C 0.13335 0.25838 0.03757 0.0
H621 H 0.02962 0.24105 0.15485 0.0
H622 H 0.05264 0.25113 0.11745 0.0
C623 C 0.15348 0.25069 0.02203 0.0
C624 C 0.11338 0.28735 0.06756 0.0
H625 H 0.11209 0.28781 0.12953 0.0
C626 C 0.08785 0.28892 0.06428 0.0
C627 C 0.12221 0.28787 0.09127 0.0
C628 C 0.14957 0.28581 0.09577 0.0
C629 C 0.07089 0.28997 0.08431 0.0
C630 C 0.07987 0.28874 0.10814 0.0
C631 C 0.10527 0.28871 0.11125 0.0
C632 C 0.06391 0.28437 0.13007 0.0
C633 C 0.04359 0.29182 0.07978 0.0
C634 C 0.06314 0.29933 0.14992 0.0
C635 C 0.05028 0.29337 0.17162 0.0
C636 C 0.03807 0.27227 0.17381 0.0
C637 C 0.03869 0.25751 0.15378 0.0
C638 C 0.05161 0.26342 0.13221 0.0
H639 H 0.03923 0.30167 0.06194 0.0
H640 H 0.03831 0.27303 0.07925 0.0
H641 H 0.03215 0.30151 0.09435 0.0
H642 H 0.07281 0.31541 0.14873 0.0
H643 H 0.05009 0.30516 0.18669 0.0
H644 H 0.75719 0.44288 0.32847 0.0
H645 H 0.75117 0.40897 0.35804 0.0
H646 H 0.69629 0.38641 0.31334 0.0
H647 H 0.7019 0.4205 0.28367 0.0
H648 H 0.68254 0.38646 0.36357 0.0
H649 H 0.7767 0.33658 0.34676 0.0
H650 H 0.77651 0.36795 0.35426 0.0
H651 H 0.76325 0.36137 0.32648 0.0
C652 C 0.74379 0.43077 0.32487 0.0
C653 C 0.73017 0.43432 0.30356 0.0
C654 C 0.74046 0.41134 0.34177 0.0
C655 C 0.72359 0.39499 0.33764 0.0
C656 C 0.70949 0.39879 0.31675 0.0
H657 H 0.72445 0.25177 0.41379 0.0
H658 H 0.72313 0.28574 0.38268 0.0
C659 C 0.71278 0.41826 0.29981 0.0
C660 C 0.72092 0.37377 0.35502 0.0
H661 H 0.75324 0.32191 0.38079 0.0
C662 C 0.69792 0.37225 0.36728 0.0
C663 C 0.74095 0.35512 0.35951 0.0
C664 C 0.76569 0.35513 0.34591 0.0
C665 C 0.6946 0.35279 0.38442 0.0
C666 C 0.71492 0.33466 0.38957 0.0
C667 C 0.73774 0.33594 0.3769 0.0
C668 C 0.71316 0.31422 0.40814 0.0
C669 C 0.66935 0.35167 0.39663 0.0
C670 C 0.70771 0.319 0.43271 0.0
C671 C 0.70827 0.29961 0.45047 0.0
C672 C 0.71465 0.27522 0.44394 0.0
C673 C 0.71948 0.27043 0.41929 0.0
C674 C 0.71879 0.28979 0.40154 0.0
H675 H 0.6545 0.36269 0.38598 0.0
H676 H 0.66517 0.3324 0.39913 0.0
H677 H 0.66895 0.35929 0.41487 0.0
H678 H 0.70379 0.33772 0.43826 0.0
H679 H 0.70436 0.30374 0.46936 0.0
H680 H 0.53232 0.0124 0.55124 0.0
H681 H 0.56415 0.00529 0.58139 0.0
H682 H 0.54498 0.93223 0.59873 0.0
H683 H 0.51367 0.93891 0.56745 0.0
H684 H 0.55878 -0.00417 0.6296 0.0
H685 H 0.61965 0.919 0.58774 0.0
H686 H 0.59511 0.93752 0.57156 0.0
H687 H 0.58801 0.91378 0.59376 0.0
C688 C 0.5351 0.99468 0.56121 0.0
C689 C 0.52086 0.97603 0.55678 0.0
C690 C 0.55318 0.9907 0.57855 0.0
C691 C 0.55714 0.96813 0.59207 0.0
C692 C 0.54258 0.94959 0.58809 0.0
H693 H 0.64917 0.96379 0.71918 0.0
H694 H 0.61457 0.95917 0.69373 0.0
C695 C 0.52462 0.95347 0.57041 0.0
C696 C 0.57625 0.96463 0.61062 0.0
H697 H 0.63159 0.93147 0.62519 0.0
C698 C 0.57464 0.98166 0.62877 0.0
C699 C 0.59698 0.94626 0.60927 0.0
C700 C 0.60027 0.9282 0.58943 0.0
C701 C 0.59357 0.98136 0.64517 0.0
C702 C 0.61427 0.96291 0.64392 0.0
C703 C 0.61557 0.94544 0.6262 0.0
C704 C 0.63563 0.96269 0.65958 0.0
C705 C 0.59174 0.00159 0.66279 0.0
C706 C 0.65921 0.96488 0.64886 0.0
C707 C 0.67907 0.96698 0.66336 0.0
C708 C 0.67555 0.96712 0.68877 0.0
C709 C 0.65222 0.96398 0.69957 0.0
C710 C 0.63245 0.96149 0.68508 0.0
H711 H 0.57804 0.01754 0.65717 0.0
H712 H 0.58564 0.99441 0.68108 0.0
H713 H 0.60997 0.00821 0.66436 0.0
H714 H 0.66207 0.96577 0.62921 0.0
H715 H 0.69693 0.96933 0.65464 0.0
H716 H 0.98629 0.91576 0.95683 0.0
H717 H -2e-05 0.88388 0.92858 0.0
H718 H 0.07625 0.89259 0.93907 0.0
H719 H 0.06276 0.9248 0.96719 0.0
H720 H 0.06425 0.89906 0.89153 0.0
H721 H 0.03269 0.81312 0.93137 0.0
H722 H 0.00823 0.83838 0.93209 0.0
H723 H 0.03536 0.83894 0.94941 0.0
C724 C 0.00601 0.91045 0.95373 0.0
C725 C 0.0234 0.92307 0.96405 0.0
C726 C 0.01382 0.89207 0.93765 0.0
C727 C 0.03914 0.88579 0.93183 0.0
C728 C 0.05662 0.89715 0.94338 0.0
H729 H 0.07014 0.7791 0.8189 0.0
H730 H 0.07659 0.80041 0.85542 0.0
C731 C 0.04884 0.91556 0.95946 0.0
C732 C 0.04689 0.87021 0.91116 0.0
H733 H 0.03772 0.81654 0.88727 0.0
C734 C 0.05896 0.88077 0.89079 0.0
C735 C 0.04027 0.84628 0.9103 0.0
C736 C 0.02865 0.83343 0.93209 0.0
C737 C 0.06303 0.8687 0.86899 0.0
C738 C 0.05448 0.84569 0.86751 0.0
C739 C 0.04401 0.83435 0.88838 0.0
C740 C 0.0539 0.83417 0.84404 0.0
C741 C 0.07577 0.881 0.84755 0.0
C742 C 0.03938 0.8463 0.82542 0.0
C743 C 0.03566 0.8342 0.80462 0.0
C744 C 0.04632 0.80976 0.80222 0.0
C745 C 0.0618 0.79801 0.82031 0.0
C746 C 0.06545 0.8101 0.84116 0.0
H747 H 0.08803 0.8939 0.8536 0.0
H748 H 0.08697 0.86724 0.83622 0.0
H749 H 0.06156 0.89179 0.83601 0.0
H750 H 0.02989 0.86471 0.82752 0.0
H751 H 0.02351 0.84358 0.791 0.0
H752 H 0.10677 -0.00364 0.93968 0.0
H753 H 0.14808 0.00894 0.93239 0.0
H754 H 0.14832 0.02725 0.00754 0.0
H755 H 0.10758 0.01397 0.015 0.0
H756 H 0.15156 0.05517 0.93541 0.0
H757 H 0.22042 0.00506 0.99609 0.0
H758 H 0.19238 0.99281 0.98955 0.0
H759 H 0.19249 0.01349 0.01376 0.0
C760 C 0.11608 0.0023 0.95479 0.0
C761 C 0.10398 0.00465 0.97779 0.0
C762 C 0.13971 0.00931 0.95065 0.0
C763 C 0.15143 0.01886 0.96943 0.0
C764 C 0.14004 0.01934 0.9929 0.0
H765 H 0.20656 0.13645 0.01016 0.0
H766 H 0.19632 0.09548 0.0036 0.0
C767 C 0.11655 0.01209 0.99709 0.0
C768 C 0.17203 0.03358 0.96363 0.0
H769 H 0.22265 0.05005 0.98931 0.0
C770 C 0.1677 0.05355 0.94651 0.0
C771 C 0.19315 0.03137 0.97795 0.0
C772 C 0.19996 0.00931 0.99515 0.0
C773 C 0.182 0.07298 0.94555 0.0
C774 C 0.20143 0.07205 0.96186 0.0
C775 C 0.20753 0.0508 0.97704 0.0
C776 C 0.21199 0.09456 0.96669 0.0
C777 C 0.1745 0.09539 0.92889 0.0
C778 C 0.2248 0.10726 0.94832 0.0
C779 C 0.23023 0.1309 0.95189 0.0
C780 C 0.22322 0.14186 0.97398 0.0
C781 C 0.2119 0.12846 0.99288 0.0
C782 C 0.20627 0.105 0.98923 0.0
H783 H 0.15712 0.09415 0.91952 0.0
H784 H 0.17179 0.11225 0.93934 0.0
H785 H 0.1894 0.09742 0.91473 0.0
H786 H 0.22966 0.09933 0.93094 0.0
H787 H 0.23934 0.14081 0.93719 0.0
H788 H 0.68058 0.53074 0.31143 0.0
H789 H 0.64053 0.55688 0.31085 0.0
H790 H 0.63891 0.55112 0.23311 0.0
H791 H 0.67927 0.52607 0.23343 0.0
H792 H 0.63844 0.59767 0.24636 0.0
H793 H 0.56712 0.55332 0.30172 0.0
H794 H 0.5957 0.55282 0.31683 0.0
H795 H 0.59526 0.53617 0.28978 0.0
C796 C 0.67131 0.53453 0.29436 0.0
C797 C 0.68301 0.52654 0.27246 0.0
C798 C 0.64832 0.54922 0.29408 0.0
C799 C 0.63668 0.55572 0.27196 0.0
C800 C 0.64752 0.54611 0.25039 0.0
H801 H 0.53253 0.68422 0.23205 0.0
H802 H 0.55465 0.64249 0.23217 0.0
C803 C 0.67057 0.53176 0.25061 0.0
C804 C 0.61624 0.57618 0.27048 0.0
H805 H 0.55862 0.59713 0.29366 0.0
C806 C 0.62079 0.59738 0.25634 0.0
C807 C 0.59346 0.5758 0.28381 0.0
C808 C 0.58745 0.55322 0.29873 0.0
C809 C 0.60353 0.61856 0.25573 0.0
C810 C 0.58083 0.61835 0.26928 0.0
C811 C 0.576 0.59705 0.28316 0.0
C812 C 0.5629 0.64084 0.27037 0.0
C813 C 0.61024 0.64133 0.24146 0.0
C814 C 0.55919 0.65306 0.29211 0.0
C815 C 0.54627 0.67674 0.29216 0.0
C816 C 0.53703 0.68844 0.27044 0.0
C817 C 0.53943 0.67557 0.24904 0.0
C818 C 0.55211 0.6518 0.24906 0.0
H819 H 0.63037 0.63989 0.23645 0.0
H820 H 0.59996 0.64399 0.22437 0.0
H821 H 0.60508 0.65792 0.25207 0.0
H822 H 0.56744 0.64483 0.30871 0.0
H823 H 0.54445 0.68627 0.30893 0.0
H824 H 0.25946 0.84142 0.54931 0.0
H825 H 0.27218 0.88221 0.55221 0.0
H826 H 0.29141 0.88504 0.47514 0.0
H827 H 0.27811 0.84468 0.47209 0.0
H828 H 0.31932 0.88709 0.54334 0.0
H829 H 0.26443 0.95583 0.48359 0.0
H830 H 0.25408 0.92676 0.49355 0.0
H831 H 0.27538 0.92881 0.46762 0.0
C832 C 0.26577 0.8511 0.5329 0.0
C833 C 0.26819 0.8399 0.51054 0.0
C834 C 0.27287 0.87442 0.53454 0.0
C835 C 0.28251 0.88679 0.51386 0.0
C836 C 0.28344 0.87618 0.49122 0.0
H837 H 0.39567 0.96772 0.46965 0.0
H838 H 0.3567 0.94999 0.47431 0.0
C839 C 0.27616 0.85296 0.48955 0.0
C840 C 0.29618 0.90791 0.51665 0.0
H841 H 0.30694 0.96341 0.48979 0.0
C842 C 0.31618 0.90413 0.53218 0.0
C843 C 0.29211 0.93002 0.50197 0.0
C844 C 0.27015 0.93568 0.48594 0.0
C845 C 0.33343 0.92086 0.53199 0.0
C846 C 0.33021 0.94232 0.51624 0.0
C847 C 0.30933 0.94693 0.50183 0.0
C848 C 0.35012 0.95814 0.51225 0.0
C849 C 0.35598 0.91436 0.54726 0.0
C850 C 0.35862 0.96962 0.5317 0.0
C851 C 0.38113 0.97925 0.52922 0.0
C852 C 0.39506 0.97797 0.50709 0.0
C853 C 0.38533 0.96868 0.48696 0.0
C854 C 0.36302 0.95871 0.48956 0.0
H855 H 0.35777 0.89501 0.55486 0.0
H856 H 0.37317 0.91708 0.53633 0.0
H857 H 0.35451 0.92649 0.56277 0.0
H858 H 0.34861 0.9698 0.54919 0.0
H859 H 0.38814 0.98671 0.54488 0.0
H860 H 0.01946 0.68069 0.74139 0.0
H861 H 0.04146 0.63935 0.73579 0.0
H862 H 0.10788 0.67097 0.71306 0.0
H863 H 0.08589 0.71214 0.71787 0.0
H864 H 0.10124 0.63001 0.6871 0.0
H865 H 0.09035 0.61175 0.78776 0.0
H866 H 0.0626 0.619 0.77092 0.0
H867 H 0.08266 0.64209 0.77353 0.0
C868 C 0.0386 0.67877 0.7347 0.0
C869 C 0.05115 0.69948 0.73038 0.0
C870 C 0.05114 0.65519 0.73161 0.0
C871 C 0.07638 0.65214 0.72444 0.0
C872 C 0.0884 0.67295 0.71865 0.0
H873 H 0.21506 0.57721 0.7315 0.0
H874 H 0.17571 0.60096 0.72023 0.0
C875 C 0.07589 0.69643 0.72157 0.0
C876 C 0.09139 0.62769 0.7255 0.0
H877 H 0.11943 0.58519 0.76664 0.0
C878 C 0.1048 0.61981 0.70438 0.0
C879 C 0.09585 0.61433 0.74806 0.0
C880 C 0.08227 0.62217 0.77144 0.0
C881 C 0.1239 0.60003 0.70556 0.0
C882 C 0.12976 0.58814 0.72844 0.0
C883 C 0.11487 0.59451 0.74914 0.0
C884 C 0.15345 0.57222 0.73217 0.0
C885 C 0.13843 0.5928 0.68253 0.0
C886 C 0.15389 0.54834 0.74292 0.0
C887 C 0.17638 0.53481 0.74955 0.0
C888 C 0.19859 0.54516 0.74574 0.0
C889 C 0.19814 0.56889 0.73466 0.0
C890 C 0.17574 0.58231 0.72791 0.0
H891 H 0.12694 0.59727 0.6663 0.0
H892 H 0.15456 0.60325 0.6801 0.0
H893 H 0.14542 0.57285 0.68338 0.0
H894 H 0.13681 0.54044 0.7467 0.0
H895 H 0.17632 0.51658 0.75828 0.0
H896 H 0.75274 0.35196 0.53891 0.0
H897 H 0.77137 0.39012 0.53805 0.0
H898 H 0.78675 0.38608 0.46066 0.0
H899 H 0.76768 0.34806 0.46134 0.0
H900 H 0.82101 0.38665 0.52405 0.0
H901 H 0.76683 0.4603 0.46784 0.0
H902 H 0.75372 0.43377 0.48128 0.0
H903 H 0.77317 0.43125 0.454 0.0
C904 C 0.75946 0.3596 0.5216 0.0
C905 C 0.75912 0.34701 0.50024 0.0
C906 C 0.76998 0.38143 0.52112 0.0
C907 C 0.78029 0.39098 0.49928 0.0
C908 C 0.77846 0.37929 0.4776 0.0
H909 H 0.89609 0.47713 0.45825 0.0
H910 H 0.85845 0.45706 0.45972 0.0
C911 C 0.76779 0.35747 0.47805 0.0
C912 C 0.79687 0.4101 0.50007 0.0
H913 H 0.80838 0.46645 0.47595 0.0
C914 C 0.81804 0.40429 0.51388 0.0
C915 C 0.79307 0.43285 0.48644 0.0
C916 C 0.77036 0.44007 0.47169 0.0
C917 C 0.836 0.42026 0.51388 0.0
C918 C 0.83232 0.44304 0.50021 0.0
C919 C 0.81096 0.44908 0.48662 0.0
C920 C 0.85155 0.45975 0.49859 0.0
C921 C 0.85931 0.41197 0.52759 0.0
C922 C 0.85937 0.46893 0.51975 0.0
C923 C 0.88109 0.47993 0.51904 0.0
C924 C 0.89492 0.48234 0.49704 0.0
C925 C 0.88581 0.47526 0.47547 0.0
C926 C 0.86428 0.46392 0.47626 0.0
H927 H 0.86173 0.39184 0.53222 0.0
H928 H 0.87598 0.41662 0.51678 0.0
H929 H 0.85828 0.42146 0.5449 0.0
H930 H 0.84946 0.4663 0.53706 0.0
H931 H 0.8876 0.48558 0.53584 0.0
H932 H 0.30918 0.97706 0.22986 0.0
H933 H 0.35114 0.95464 0.22545 0.0
H934 H 0.3215 0.88599 0.24082 0.0
H935 H 0.27972 0.90814 0.24481 0.0
H936 H 0.38009 0.92135 0.25688 0.0
H937 H 0.35806 0.87717 0.17465 0.0
H938 H 0.33849 0.90323 0.1865 0.0
H939 H 0.33592 0.87256 0.19913 0.0
C940 C 0.31174 0.95719 0.23241 0.0
C941 C 0.29131 0.94421 0.23736 0.0
C942 C 0.33563 0.94447 0.22989 0.0
C943 C 0.33924 0.91869 0.23227 0.0
C944 C 0.31894 0.90587 0.23831 0.0
H945 H 0.44725 0.80414 0.27038 0.0
H946 H 0.42157 0.844 0.26806 0.0
C947 C 0.29514 0.91851 0.24067 0.0
C948 C 0.36398 0.90475 0.22807 0.0
H949 H 0.39211 0.85616 0.19747 0.0
C950 C 0.38304 0.9074 0.24357 0.0
C951 C 0.36806 0.88723 0.21012 0.0
C952 C 0.34912 0.88507 0.19147 0.0
C953 C 0.40538 0.89139 0.24297 0.0
C954 C 0.40824 0.87194 0.22694 0.0
C955 C 0.38995 0.8708 0.21005 0.0
C956 C 0.42812 0.85081 0.22917 0.0
C957 C 0.42537 0.89524 0.25984 0.0
C958 C 0.4405 0.84125 0.20816 0.0
C959 C 0.45437 0.818 0.20935 0.0
C960 C 0.45648 0.80421 0.23165 0.0
C961 C 0.44587 0.81452 0.25298 0.0
C962 C 0.43145 0.83749 0.25169 0.0
H963 H 0.42541 0.91515 0.26233 0.0
H964 H 0.42158 0.88629 0.27803 0.0
H965 H 0.44404 0.88742 0.25288 0.0
H966 H 0.43823 0.85115 0.19058 0.0
H967 H 0.46268 0.81042 0.19272 0.0
H968 H 0.2777 0.40871 0.75942 0.0
H969 H 0.31546 0.38431 0.77383 0.0
H970 H 0.35702 0.44446 0.75275 0.0
H971 H 0.31911 0.46891 0.73778 0.0
H972 H 0.37668 0.40122 0.73373 0.0
H973 H 0.35798 0.38482 0.83235 0.0
H974 H 0.33235 0.37879 0.8154 0.0
H975 H 0.34075 0.40949 0.81446 0.0
C976 C 0.29485 0.41681 0.75806 0.0
C977 C 0.29563 0.44059 0.74747 0.0
C978 C 0.31632 0.40302 0.76666 0.0
C979 C 0.33892 0.4128 0.76487 0.0
C980 C 0.33966 0.43677 0.75464 0.0
H981 H 0.47283 0.30383 0.7646 0.0
H982 H 0.45023 0.34484 0.77063 0.0
C983 C 0.31809 0.45064 0.74608 0.0
C984 C 0.36198 0.3965 0.77047 0.0
H985 H 0.38543 0.35232 0.81247 0.0
C986 C 0.37915 0.39102 0.75116 0.0
C987 C 0.36515 0.38342 0.79329 0.0
C988 C 0.34817 0.38964 0.81511 0.0
C989 C 0.39787 0.37099 0.75324 0.0
C990 C 0.39965 0.35647 0.77543 0.0
C991 C 0.3839 0.3634 0.79545 0.0
C992 C 0.41445 0.33192 0.77665 0.0
C993 C 0.41406 0.36422 0.73099 0.0
C994 C 0.40198 0.31108 0.77937 0.0
C995 C 0.4148 0.28776 0.77618 0.0
C996 C 0.44028 0.28495 0.77012 0.0
C997 C 0.4531 0.3056 0.76901 0.0
C998 C 0.44025 0.32898 0.77239 0.0
H999 H 0.40799 0.37557 0.71439 0.0
H1000 H 0.43344 0.36703 0.73413 0.0
H1001 H 0.41395 0.34455 0.72748 0.0
H1002 H 0.38206 0.31298 0.78269 0.0
H1003 H 0.40455 0.27209 0.77738 0.0
H1004 H 0.16321 0.73048 0.5262 0.0
H1005 H 0.1248 0.74442 0.54876 0.0
H1006 H 0.14547 0.81759 0.54779 0.0
H1007 H 0.18396 0.80391 0.52517 0.0
H1008 H 0.1388 0.79406 0.59444 0.0
H1009 H 0.05855 0.78967 0.53747 0.0
H1010 H 0.08168 0.76319 0.53616 0.0
H1011 H 0.08929 0.79276 0.52468 0.0
C1012 C 0.15933 0.74969 0.5302 0.0
C1013 C 0.17683 0.76598 0.52422 0.0
C1014 C 0.13723 0.75769 0.54289 0.0
C1015 C 0.13227 0.78207 0.54973 0.0
C1016 C 0.14892 0.79876 0.54244 0.0
H1017 H 0.03813 0.81424 0.68117 0.0
H1018 H 0.06143 0.8237 0.64329 0.0
C1019 C 0.17096 0.79083 0.52961 0.0
C1020 C 0.11232 0.78861 0.56818 0.0
H1021 H 0.05072 0.78688 0.58099 0.0
C1022 C 0.1194 0.79314 0.59145 0.0
C1023 C 0.08718 0.78722 0.56408 0.0
C1024 C 0.07863 0.78317 0.53917 0.0
C1025 C 0.10232 0.79435 0.61131 0.0
C1026 C 0.07727 0.79179 0.60752 0.0
C1027 C 0.0699 0.78888 0.58385 0.0
C1028 C 0.05947 0.78855 0.62827 0.0
C1029 C 0.11175 0.79636 0.6364 0.0
C1030 C 0.04935 0.76633 0.63164 0.0
C1031 C 0.03567 0.76111 0.65292 0.0
C1032 C 0.03208 0.77793 0.67138 0.0
C1033 C 0.041 0.80078 0.66741 0.0
C1034 C 0.05434 0.80617 0.64584 0.0
H1035 H 0.13232 0.79306 0.6366 0.0
H1036 H 0.10571 0.81513 0.64254 0.0
H1037 H 0.10422 0.78295 0.64975 0.0
H1038 H 0.05304 0.75248 0.6183 0.0
H1039 H 0.02898 0.74337 0.65538 0.0
H1040 H 0.26389 0.94047 0.32609 0.0
H1041 H 0.26009 0.90652 0.35633 0.0
H1042 H 0.18629 0.90179 0.33348 0.0
H1043 H 0.19007 0.93537 0.3028 0.0
H1044 H 0.2268 0.89998 0.39501 0.0
H1045 H 0.22121 0.83255 0.32487 0.0
H1046 H 0.23003 0.86272 0.31735 0.0
H1047 H 0.19796 0.85894 0.32326 0.0
C1048 C 0.24676 0.93236 0.3276 0.0
C1049 C 0.22739 0.94043 0.31185 0.0
C1050 C 0.24463 0.91296 0.34489 0.0
C1051 C 0.22311 0.90136 0.34677 0.0
C1052 C 0.20328 0.91013 0.33189 0.0
H1053 H 0.1955 0.769 0.43624 0.0
H1054 H 0.18945 0.80663 0.40934 0.0
C1055 C 0.20546 0.92939 0.31445 0.0
C1056 C 0.22186 0.87961 0.36381 0.0
H1057 H 0.21799 0.81799 0.36596 0.0
C1058 C 0.22474 0.88208 0.3887 0.0
C1059 C 0.21918 0.85629 0.35546 0.0
C1060 C 0.21713 0.85231 0.32877 0.0
C1061 C 0.2253 0.86174 0.40548 0.0
C1062 C 0.22312 0.83838 0.39703 0.0
C1063 C 0.21952 0.83601 0.37229 0.0
C1064 C 0.22643 0.81586 0.41326 0.0
C1065 C 0.22845 0.86537 0.43206 0.0
C1066 C 0.24938 0.80842 0.4237 0.0
C1067 C 0.25289 0.78701 0.43875 0.0
C1068 C 0.23349 0.77273 0.44367 0.0
C1069 C 0.21068 0.77981 0.43275 0.0
C1070 C 0.20719 0.80127 0.41754 0.0
H1071 H 0.22274 0.88479 0.43654 0.0
H1072 H 0.21752 0.85333 0.44399 0.0
H1073 H 0.24829 0.86055 0.43625 0.0
H1074 H 0.26464 0.81911 0.42006 0.0
H1075 H 0.27084 0.7816 0.44652 0.0
H1076 H 0.98197 0.66235 0.68627 0.0
H1077 H 0.97124 0.64019 0.65197 0.0
H1078 H 0.91308 0.69897 0.63413 0.0
H1079 H 0.92414 0.72154 0.66824 0.0
H1080 H 0.9279 0.62365 0.63841 0.0
H1081 H 0.95775 0.69605 0.57213 0.0
H1082 H 0.96425 0.69505 0.60404 0.0
H1083 H 0.93352 0.7056 0.59416 0.0
C1084 C 0.96667 0.67038 0.67525 0.0
C1085 C 0.95404 0.69371 0.67967 0.0
C1086 C 0.96053 0.65772 0.6557 0.0
C1087 C 0.94165 0.66816 0.6403 0.0
C1088 C 0.92801 0.69084 0.64555 0.0
H1089 H 0.92605 0.56842 0.52399 0.0
H1090 H 0.91122 0.60015 0.55248 0.0
C1091 C 0.93425 0.70361 0.66507 0.0
C1092 C 0.9378 0.65581 0.61794 0.0
H1093 H 0.9494 0.65959 0.55641 0.0
C1094 C 0.93206 0.63161 0.62038 0.0
C1095 C 0.94332 0.66638 0.59452 0.0
C1096 C 0.95022 0.69213 0.59089 0.0
C1097 C 0.93337 0.61705 0.60021 0.0
C1098 C 0.94009 0.62723 0.57695 0.0
C1099 C 0.94412 0.65197 0.57427 0.0
C1100 C 0.94736 0.61143 0.55634 0.0
C1101 C 0.92944 0.59037 0.60431 0.0
C1102 C 0.97224 0.60838 0.54798 0.0
C1103 C 0.98072 0.59053 0.53161 0.0
C1104 C 0.96446 0.5753 0.52332 0.0
C1105 C 0.93911 0.57967 0.53024 0.0
C1106 C 0.93061 0.59769 0.54661 0.0
H1107 H 0.92786 0.5846 0.62398 0.0
H1108 H 0.9121 0.58743 0.59579 0.0
H1109 H 0.945 0.5783 0.59574 0.0
H1110 H 0.98545 0.61891 0.55517 0.0
H1111 H 0.00029 0.58788 0.52646 0.0
H1112 H 0.3381 0.75296 0.47399 0.0
H1113 H 0.37378 0.74231 0.44652 0.0
H1114 H 0.3553 0.66854 0.44473 0.0
H1115 H 0.31925 0.67901 0.47206 0.0
H1116 H 0.41604 0.70369 0.44354 0.0
H1117 H 0.34484 0.70005 0.37465 0.0
H1118 H 0.3369 0.7126 0.40393 0.0
H1119 H 0.34384 0.67994 0.40166 0.0
C1120 C 0.34187 0.73428 0.46828 0.0
C1121 C 0.32543 0.71703 0.4747 0.0
C1122 C 0.36237 0.7282 0.45265 0.0
C1123 C 0.36678 0.70482 0.44328 0.0
C1124 C 0.3519 0.6868 0.45155 0.0
H1125 H 0.44906 0.69028 0.30296 0.0
H1126 H 0.42783 0.67736 0.34089 0.0
C1127 C 0.33132 0.69286 0.46716 0.0
C1128 C 0.38444 0.7009 0.42231 0.0
H1129 H 0.38576 0.70033 0.36034 0.0
C1130 C 0.40959 0.70243 0.42537 0.0
C1131 C 0.37588 0.69917 0.39868 0.0
C1132 C 0.3489 0.69797 0.39433 0.0
C1133 C 0.42625 0.70346 0.40521 0.0
C1134 C 0.4173 0.70354 0.38148 0.0
C1135 C 0.39252 0.70034 0.37857 0.0
C1136 C 0.43225 0.70998 0.35946 0.0
C1137 C 0.45311 0.70512 0.40949 0.0
C1138 C 0.44142 0.73274 0.35726 0.0
C1139 C 0.45346 0.74018 0.3357 0.0
C1140 C 0.45628 0.72515 0.31575 0.0
C1141 C 0.44707 0.70234 0.31795 0.0
C1142 C 0.4351 0.69484 0.33964 0.0
H1143 H 0.45866 0.69586 0.4273 0.0
H1144 H 0.46551 0.6967 0.39483 0.0
H1145 H 0.45583 0.72475 0.40994 0.0
H1146 H 0.43868 0.74509 0.37202 0.0
H1147 H 0.46022 0.75792 0.3346 0.0
H1148 H 0.21377 0.04507 0.18007 0.0
H1149 H 0.21789 0.07754 0.14829 0.0
H1150 H 0.29099 0.08432 0.17173 0.0
H1151 H 0.28724 0.05165 0.20344 0.0
H1152 H 0.22614 0.1261 0.15636 0.0
H1153 H 0.30103 0.07886 0.09734 0.0
H1154 H 0.28317 0.06241 0.11976 0.0
H1155 H 0.30756 0.07837 0.12909 0.0
C1156 C 0.23087 0.05323 0.17833 0.0
C1157 C 0.25023 0.04569 0.19425 0.0
C1158 C 0.23315 0.07181 0.16019 0.0
C1159 C 0.25485 0.08306 0.15752 0.0
C1160 C 0.27428 0.07552 0.17324 0.0
H1161 H 0.2952 0.20545 0.06191 0.0
H1162 H 0.29512 0.17134 0.09302 0.0
C1163 C 0.27202 0.05695 0.19143 0.0
C1164 C 0.25657 0.10357 0.1391 0.0
H1165 H 0.28847 0.12114 0.08744 0.0
C1166 C 0.23972 0.12502 0.14125 0.0
C1167 C 0.27444 0.10208 0.11957 0.0
C1168 C 0.29249 0.07914 0.11608 0.0
C1169 C 0.24029 0.14515 0.12438 0.0
C1170 C 0.25792 0.14355 0.10464 0.0
C1171 C 0.275 0.12223 0.10264 0.0
C1172 C 0.25836 0.16361 0.08552 0.0
C1173 C 0.22222 0.16807 0.12798 0.0
C1174 C 0.23791 0.17015 0.07085 0.0
C1175 C 0.23789 0.18956 0.05326 0.0
C1176 C 0.25843 0.20257 0.04989 0.0
C1177 C 0.27912 0.19572 0.06425 0.0
C1178 C 0.27912 0.17627 0.08192 0.0
H1179 H 0.21463 0.16879 0.14707 0.0
H1180 H 0.23114 0.18489 0.12324 0.0
H1181 H 0.20646 0.16823 0.11589 0.0
H1182 H 0.22189 0.16032 0.07311 0.0
H1183 H 0.22164 0.19459 0.04255 0.0
H1184 H 0.83741 0.76638 0.96185 0.0
H1185 H 0.87324 0.75927 0.93347 0.0
H1186 H 0.86598 0.68198 0.93608 0.0
H1187 H 0.83023 0.6887 0.96453 0.0
H1188 H 0.92136 0.71647 0.93547 0.0
H1189 H 0.85287 0.71783 0.86295 0.0
H1190 H 0.84497 0.73349 0.8907 0.0
H1191 H 0.84847 0.70056 0.89144 0.0
C1192 C 0.84372 0.74777 0.95684 0.0
C1193 C 0.83077 0.72816 0.96523 0.0
C1194 C 0.86423 0.74376 0.9407 0.0
C1195 C 0.87203 0.72015 0.93275 0.0
C1196 C 0.86014 0.7003 0.94215 0.0
H1197 H 0.95695 0.69476 0.79637 0.0
H1198 H 0.9339 0.68619 0.83454 0.0
C1199 C 0.83968 0.70425 0.95833 0.0
C1200 C 0.89048 0.7169 0.91241 0.0
H1201 H 0.89476 0.71549 0.85056 0.0
C1202 C 0.9157 0.71597 0.9169 0.0
C1203 C 0.88286 0.71604 0.88836 0.0
C1204 C 0.85584 0.71708 0.88284 0.0
C1205 C 0.93362 0.71475 0.89765 0.0
C1206 C 0.92588 0.71511 0.87341 0.0
C1207 C 0.90068 0.71513 0.86914 0.0
C1208 C 0.94301 0.71789 0.85201 0.0
C1209 C 0.96058 0.71319 0.90348 0.0
C1210 C 0.95598 0.73837 0.84929 0.0
C1211 C 0.96925 0.74322 0.82762 0.0
C1212 C 0.96945 0.72791 0.80805 0.0
C1213 C 0.95708 0.70696 0.81105 0.0
C1214 C 0.94396 0.702 0.83287 0.0
H1215 H 0.96405 0.70414 0.92185 0.0
H1216 H 0.97277 0.70288 0.88983 0.0
H1217 H 0.96575 0.73206 0.90353 0.0
H1218 H 0.95493 0.7513 0.86348 0.0
H1219 H 0.97846 0.75959 0.82592 0.0
H1220 H 0.23546 0.5398 0.66755 0.0
H1221 H 0.24378 0.5717 0.63668 0.0
H1222 H 0.31531 0.57425 0.66619 0.0
H1223 H 0.30692 0.54261 0.69764 0.0
H1224 H 0.28887 0.6188 0.66211 0.0
H1225 H 0.28652 0.57419 0.57521 0.0
H1226 H 0.25937 0.57049 0.59407 0.0
H1227 H 0.28936 0.55679 0.60413 0.0
C1228 C 0.2532 0.54673 0.66723 0.0
C1229 C 0.27049 0.53873 0.68513 0.0
C1230 C 0.25801 0.56486 0.6494 0.0
C1231 C 0.28034 0.57507 0.64889 0.0
C1232 C 0.29804 0.56647 0.66618 0.0
H1233 H 0.30899 0.7108 0.56389 0.0
H1234 H 0.31635 0.67242 0.58946 0.0
C1235 C 0.29318 0.54843 0.68415 0.0
C1236 C 0.28372 0.59667 0.63224 0.0
H1237 H 0.27789 0.61869 0.57315 0.0
C1238 C 0.28705 0.61868 0.64257 0.0
C1239 C 0.28134 0.59643 0.60677 0.0
C1240 C 0.27921 0.57311 0.5944 0.0
C1241 C 0.28652 0.64079 0.62833 0.0
C1242 C 0.28278 0.64074 0.60312 0.0
C1243 C 0.28063 0.61858 0.59256 0.0
C1244 C 0.27883 0.66381 0.58782 0.0
C1245 C 0.28856 0.66426 0.6405 0.0
C1246 C 0.25537 0.67148 0.57855 0.0
C1247 C 0.25114 0.69328 0.56417 0.0
C1248 C 0.2704 0.70759 0.55858 0.0
C1249 C 0.29385 0.70006 0.56805 0.0
C1250 C 0.29808 0.67821 0.58256 0.0
H1251 H 0.28787 0.66163 0.6607 0.0
H1252 H 0.30641 0.67092 0.63466 0.0
H1253 H 0.27337 0.67879 0.63496 0.0
H1254 H 0.2403 0.6606 0.58254 0.0
H1255 H 0.23283 0.69885 0.55724 0.0
H1256 H 0.3438 0.99012 0.29422 0.0
H1257 H 0.37677 -0.00221 0.32047 0.0
H1258 H 0.32954 0.06 0.34838 0.0
H1259 H 0.29636 0.05206 0.32265 0.0
H1260 H 0.40154 0.03906 0.32564 0.0
H1261 H 0.3461 0.01551 0.40938 0.0
H1262 H 0.33763 0.00917 0.37935 0.0
H1263 H 0.33138 0.03985 0.38967 0.0
C1264 C 0.34056 0.0055 0.30587 0.0
C1265 C 0.31752 0.02031 0.30673 0.0
C1266 C 0.35938 0.00992 0.32074 0.0
C1267 C 0.3554 0.02924 0.33658 0.0
C1268 C 0.33278 0.04474 0.33659 0.0
H1269 H 0.47262 0.06328 0.43017 0.0
H1270 H 0.44051 0.06876 0.39951 0.0
C1271 C 0.3139 0.04021 0.32189 0.0
C1272 C 0.37438 0.03215 0.3541 0.0
H1273 H 0.38539 0.02711 0.41482 0.0
C1274 C 0.39802 0.03669 0.34516 0.0
C1275 C 0.36964 0.02885 0.37952 0.0
C1276 C 0.3449 0.02287 0.39013 0.0
C1277 C 0.41729 0.03748 0.36104 0.0
C1278 C 0.41258 0.0339 0.38639 0.0
C1279 C 0.38877 0.03006 0.39533 0.0
C1280 C 0.4326 0.03109 0.40387 0.0
C1281 C 0.44279 0.041 0.35062 0.0
C1282 C 0.43857 0.00822 0.41636 0.0
C1283 C 0.45661 0.00513 0.43372 0.0
C1284 C 0.46895 0.02491 0.43904 0.0
C1285 C 0.46331 0.04779 0.42632 0.0
C1286 C 0.44511 0.0509 0.40883 0.0
H1287 H 0.4441 0.04023 0.33046 0.0
H1288 H 0.44733 0.05919 0.35535 0.0
H1289 H 0.45692 0.02669 0.35862 0.0
H1290 H 0.42917 0.99272 0.41271 0.0
H1291 H 0.4609 0.98718 0.44297 0.0
H1292 H 0.79213 0.84369 0.97003 0.0
H1293 H 0.80489 0.88453 0.97237 0.0
H1294 H 0.77317 0.88858 0.04561 0.0
H1295 H 0.76109 0.84736 0.04365 0.0
H1296 H 0.78224 0.93264 0.98375 0.0
H1297 H 0.84725 0.88888 0.05397 0.0
H1298 H 0.83038 0.87099 0.03593 0.0
H1299 H 0.81483 0.88759 0.06057 0.0
C1300 C 0.78762 0.85345 0.98649 0.0
C1301 C 0.77621 0.84229 0.00687 0.0
C1302 C 0.79471 0.87682 0.98775 0.0
C1303 C 0.79028 0.88932 0.00931 0.0
C1304 C 0.77708 0.87899 0.02898 0.0
H1305 H 0.89329 0.98935 0.03927 0.0
H1306 H 0.85257 0.97496 0.04352 0.0
C1307 C 0.77028 0.85549 0.02785 0.0
C1308 C 0.80264 0.91126 0.01213 0.0
H1309 H 0.85223 0.92834 0.03892 0.0
C1310 C 0.79724 0.93201 0.99614 0.0
C1311 C 0.82206 0.91038 0.02845 0.0
C1312 C 0.82918 0.88826 0.04562 0.0
C1313 C 0.81172 0.95141 0.99513 0.0
C1314 C 0.83226 0.94965 0.0102 0.0
C1315 C 0.83642 0.92974 0.02742 0.0
C1316 C 0.8522 0.96548 0.00595 0.0
C1317 C 0.80534 0.97316 0.97743 0.0
C1318 C 0.86494 0.966 0.98315 0.0
C1319 C 0.88805 0.9744 0.98067 0.0
C1320 C 0.89891 0.98193 0.00106 0.0
C1321 C 0.88533 0.98335 0.02336 0.0
C1322 C 0.86205 0.97528 0.02576 0.0
H1323 H 0.78498 0.97689 0.97528 0.0
H1324 H 0.812 0.98999 0.9834 0.0
H1325 H 0.81407 0.96895 0.95928 0.0
H1326 H 0.85809 0.958 0.96774 0.0
H1327 H 0.89817 0.97324 0.96325 0.0
H1328 H 0.73114 0.14367 0.54578 0.0
H1329 H 0.71865 0.1024 0.55264 0.0
H1330 H 0.70259 0.1027 0.47651 0.0
H1331 H 0.71559 0.14331 0.46957 0.0
H1332 H 0.67339 0.09397 0.54785 0.0
H1333 H 0.73113 0.03266 0.48714 0.0
H1334 H 0.74046 0.0614 0.49515 0.0
H1335 H 0.72099 0.06042 0.46964 0.0
C1336 C 0.72552 0.13456 0.53045 0.0
C1337 C 0.72408 0.14662 0.50718 0.0
C1338 C 0.71854 0.11098 0.53436 0.0
C1339 C 0.71013 0.0992 0.51501 0.0
C1340 C 0.7098 0.11095 0.49158 0.0
H1341 H 0.59589 0.04565 0.46835 0.0
H1342 H 0.63599 0.05745 0.47762 0.0
C1343 C 0.71688 0.13437 0.48766 0.0
C1344 C 0.69736 0.07708 0.5196 0.0
H1345 H 0.68607 0.0271 0.49029 0.0
C1346 C 0.67675 0.07871 0.53602 0.0
C1347 C 0.70191 0.05693 0.5045 0.0
C1348 C 0.72504 0.05268 0.48835 0.0
C1349 C 0.65882 0.06273 0.53531 0.0
C1350 C 0.66173 0.04477 0.51776 0.0
C1351 C 0.68376 0.0412 0.50345 0.0
C1352 C 0.64015 0.03377 0.51052 0.0
C1353 C 0.63562 0.0668 0.55146 0.0
C1354 C 0.62969 0.01608 0.52568 0.0
C1355 C 0.60677 0.00927 0.52036 0.0
C1356 C 0.59412 0.02027 0.49997 0.0
C1357 C 0.60526 0.03701 0.48421 0.0
C1358 C 0.62818 0.04363 0.48941 0.0
H1359 H 0.63621 0.08174 0.56405 0.0
H1360 H 0.61917 0.07159 0.5401 0.0
H1361 H 0.63314 0.04962 0.56249 0.0
H1362 H 0.63872 0.00835 0.54206 0.0
H1363 H 0.59847 -0.00371 0.53279 0.0
H1364 H 0.80773 0.47173 0.18665 0.0
H1365 H 0.85087 0.45208 0.18349 0.0
H1366 H 0.84609 0.42685 0.25929 0.0
H1367 H 0.80385 0.4476 0.26282 0.0
H1368 H 0.89242 0.43504 0.24637 0.0
H1369 H 0.85648 0.37959 0.17757 0.0
H1370 H 0.85617 0.41179 0.16968 0.0
H1371 H 0.83626 0.40175 0.19431 0.0
C1372 C 0.8162 0.4624 0.20269 0.0
C1373 C 0.80246 0.46055 0.2248 0.0
C1374 C 0.84075 0.45119 0.20088 0.0
C1375 C 0.85139 0.43735 0.22095 0.0
C1376 C 0.83824 0.43733 0.24352 0.0
H1377 H 0.91408 0.29727 0.24766 0.0
H1378 H 0.89292 0.33928 0.24356 0.0
C1379 C 0.81402 0.44901 0.24548 0.0
C1380 C 0.87419 0.41972 0.21812 0.0
H1381 H 0.89387 0.36427 0.19447 0.0
C1382 C 0.89313 0.41984 0.23459 0.0
C1383 C 0.87499 0.39987 0.20271 0.0
C1384 C 0.85487 0.39802 0.18517 0.0
C1385 C 0.91159 0.39961 0.2376 0.0
C1386 C 0.91117 0.37918 0.22344 0.0
C1387 C 0.89381 0.38009 0.20535 0.0
C1388 C 0.92548 0.35512 0.22956 0.0
C1389 C 0.93014 0.39924 0.25713 0.0
C1390 C 0.95093 0.35045 0.22375 0.0
C1391 C 0.96311 0.32642 0.22629 0.0
C1392 C 0.94978 0.30696 0.23428 0.0
C1393 C 0.92464 0.31197 0.24125 0.0
C1394 C 0.9126 0.33589 0.23895 0.0
H1395 H 0.9277 0.41655 0.26689 0.0
H1396 H 0.92828 0.38357 0.27056 0.0
H1397 H 0.94922 0.3965 0.24885 0.0
H1398 H 0.96105 0.36509 0.21629 0.0
H1399 H 0.98258 0.32291 0.22084 0.0
H1400 H 0.09875 0.49974 0.52366 0.0
H1401 H 0.14095 0.50824 0.53064 0.0
H1402 H 0.13682 0.56077 0.4688 0.0
H1403 H 0.09492 0.55231 0.46169 0.0
H1404 H 0.18459 0.52842 0.47405 0.0
H1405 H 0.14916 0.5757 0.55811 0.0
H1406 H 0.14424 0.54431 0.55486 0.0
H1407 H 0.12799 0.56855 0.53617 0.0
C1408 C 0.10707 0.51282 0.51138 0.0
C1409 C 0.09364 0.52557 0.49225 0.0
C1410 C 0.1311 0.51762 0.51539 0.0
C1411 C 0.14186 0.53517 0.50028 0.0
C1412 C 0.12882 0.54705 0.48056 0.0
H1413 H 0.21812 0.64353 0.46182 0.0
H1414 H 0.20385 0.60331 0.46615 0.0
C1415 C 0.10487 0.54234 0.4766 0.0
C1416 C 0.16546 0.54353 0.50598 0.0
H1417 H 0.1856 0.58673 0.53909 0.0
C1418 C 0.18529 0.54056 0.48874 0.0
C1419 C 0.16654 0.55888 0.52547 0.0
C1420 C 0.14592 0.5622 0.54478 0.0
C1421 C 0.20489 0.55469 0.48896 0.0
C1422 C 0.20413 0.5726 0.50644 0.0
C1423 C 0.18599 0.57323 0.52548 0.0
C1424 C 0.21782 0.59413 0.50228 0.0
C1425 C 0.22533 0.55146 0.46952 0.0
C1426 C 0.23047 0.60247 0.52114 0.0
C1427 C 0.23836 0.62576 0.51877 0.0
C1428 C 0.23349 0.641 0.4976 0.0
C1429 C 0.22209 0.63211 0.4783 0.0
C1430 C 0.21423 0.60894 0.48065 0.0
H1431 H 0.22958 0.5318 0.46528 0.0
H1432 H 0.21912 0.56196 0.45254 0.0
H1433 H 0.24252 0.55802 0.47513 0.0
H1434 H 0.23315 0.59149 0.53809 0.0
H1435 H 0.24717 0.63227 0.53392 0.0
H1436 H 0.67648 0.00625 0.76368 0.0
H1437 H 0.63481 0.02488 0.75204 0.0
H1438 H 0.66353 0.09305 0.73111 0.0
H1439 H 0.70488 0.07455 0.7424 0.0
H1440 H 0.61052 0.06516 0.77465 0.0
H1441 H 0.61752 0.08734 0.67583 0.0
H1442 H 0.63866 0.06371 0.69106 0.0
H1443 H 0.6439 0.09548 0.69022 0.0
C1444 C 0.67385 0.02505 0.7561 0.0
C1445 C 0.69369 0.03907 0.75394 0.0
C1446 C 0.65017 0.03558 0.7494 0.0
C1447 C 0.64626 0.06012 0.74018 0.0
C1448 C 0.66629 0.07386 0.7375 0.0
H1449 H 0.57732 0.19452 0.74244 0.0
H1450 H 0.59869 0.15422 0.73262 0.0
C1451 C 0.68981 0.06344 0.74435 0.0
C1452 C 0.621 0.07305 0.73707 0.0
H1453 H 0.59071 0.11778 0.69977 0.0
C1454 C 0.60551 0.076 0.75804 0.0
C1455 C 0.61445 0.08684 0.71528 0.0
C1456 C 0.62943 0.08295 0.69177 0.0
C1457 C 0.58556 0.09489 0.75875 0.0
C1458 C 0.58095 0.11079 0.73775 0.0
C1459 C 0.59452 0.10575 0.71592 0.0
C1460 C 0.56641 0.13526 0.73969 0.0
C1461 C 0.57139 0.09935 0.78267 0.0
C1462 C 0.54106 0.13799 0.74631 0.0
C1463 C 0.52891 0.161 0.75227 0.0
C1464 C 0.54197 0.18149 0.75142 0.0
C1465 C 0.56694 0.17895 0.74344 0.0
C1466 C 0.57907 0.15601 0.73763 0.0
H1467 H 0.57878 0.08642 0.79772 0.0
H1468 H 0.57211 0.11844 0.78786 0.0
H1469 H 0.55166 0.09705 0.78072 0.0
H1470 H 0.53096 0.12222 0.74777 0.0
H1471 H 0.5096 0.16254 0.75839 0.0
H1472 H 0.71653 0.55397 0.18232 0.0
H1473 H 0.72331 0.58745 0.15247 0.0
H1474 H 0.79971 0.58169 0.17216 0.0
H1475 H 0.79272 0.54885 0.20287 0.0
H1476 H 0.78072 0.62765 0.16875 0.0
H1477 H 0.75636 0.5847 0.08653 0.0
H1478 H 0.73137 0.58621 0.10899 0.0
H1479 H 0.76041 0.56764 0.11547 0.0
C1480 C 0.73483 0.55972 0.18017 0.0
C1481 C 0.75413 0.54876 0.19485 0.0
C1482 C 0.73873 0.57874 0.16295 0.0
C1483 C 0.76218 0.58671 0.15962 0.0
C1484 C 0.7815 0.57575 0.1743 0.0
H1485 H 0.79502 0.68587 0.03557 0.0
H1486 H 0.79457 0.65026 0.06463 0.0
C1487 C 0.77748 0.55702 0.19184 0.0
C1488 C 0.76622 0.60729 0.14171 0.0
H1489 H 0.75744 0.62829 0.08265 0.0
C1490 C 0.77589 0.62766 0.14985 0.0
C1491 C 0.76034 0.60716 0.11693 0.0
C1492 C 0.75181 0.58512 0.10642 0.0
C1493 C 0.7792 0.64816 0.13411 0.0
C1494 C 0.7718 0.64868 0.10976 0.0
C1495 C 0.76279 0.62804 0.10142 0.0
C1496 C 0.77299 0.6705 0.09265 0.0
C1497 C 0.79093 0.66884 0.14373 0.0
C1498 C 0.76093 0.69367 0.09868 0.0
C1499 C 0.76155 0.71407 0.08228 0.0
C1500 C 0.77373 0.71148 0.05936 0.0
C1501 C 0.78558 0.6883 0.0532 0.0
C1502 C 0.78528 0.66798 0.06974 0.0
H1503 H 0.80283 0.66221 0.15927 0.0
H1504 H 0.80237 0.67764 0.12934 0.0
H1505 H 0.77613 0.68298 0.15043 0.0
H1506 H 0.75066 0.69593 0.11591 0.0
H1507 H 0.75196 0.73171 0.08728 0.0
H1508 H 0.95915 0.49622 0.43488 0.0
H1509 H 0.92613 0.50374 0.40591 0.0
H1510 H 0.9367 0.58031 0.39739 0.0
H1511 H 0.96992 0.57287 0.42688 0.0
H1512 H 0.88178 0.53941 0.41127 0.0
H1513 H 0.9391 0.55474 0.32633 0.0
H1514 H 0.95235 0.53897 0.35339 0.0
H1515 H 0.94348 0.57161 0.3525 0.0
C1516 C 0.95436 0.51471 0.42699 0.0
C1517 C 0.96678 0.53406 0.4333 0.0
C1518 C 0.9356 0.51894 0.41037 0.0
C1519 C 0.92906 0.54254 0.39958 0.0
C1520 C 0.94167 0.56193 0.40548 0.0
H1521 H 0.79217 0.55942 0.31774 0.0
H1522 H 0.82439 0.5707 0.343 0.0
C1523 C 0.96054 0.55769 0.42226 0.0
C1524 C 0.9086 0.5464 0.38257 0.0
H1525 H 0.89688 0.55184 0.32199 0.0
C1526 C 0.88486 0.54263 0.39177 0.0
C1527 C 0.91295 0.5504 0.35721 0.0
C1528 C 0.93833 0.55408 0.34657 0.0
C1529 C 0.86552 0.54154 0.37615 0.0
C1530 C 0.87005 0.5447 0.35069 0.0
C1531 C 0.89352 0.54958 0.34154 0.0
C1532 C 0.85155 0.54006 0.33335 0.0
C1533 C 0.84088 0.53547 0.38693 0.0
C1534 C 0.85655 0.51965 0.31898 0.0
C1535 C 0.83831 0.51326 0.30453 0.0
C1536 C 0.81481 0.52723 0.30425 0.0
C1537 C 0.81013 0.54826 0.31783 0.0
C1538 C 0.82844 0.55469 0.33226 0.0
H1539 H 0.84184 0.52948 0.40657 0.0
H1540 H 0.82688 0.55202 0.38512 0.0
H1541 H 0.83437 0.52067 0.37705 0.0
H1542 H 0.8743 0.50814 0.31961 0.0
H1543 H 0.8424 0.49702 0.29412 0.0
H1544 H 0.19632 0.44469 0.66237 0.0
H1545 H 0.16428 0.44176 0.63326 0.0
H1546 H 0.11396 0.49463 0.67203 0.0
H1547 H 0.14573 0.49729 0.70139 0.0
H1548 H 0.09194 0.45475 0.65884 0.0
H1549 H 0.1439 0.49557 0.58044 0.0
H1550 H 0.16027 0.4688 0.59565 0.0
H1551 H 0.15264 0.49655 0.61154 0.0
C1552 C 0.17836 0.45556 0.66471 0.0
C1553 C 0.17346 0.47129 0.684 0.0
C1554 C 0.16016 0.45396 0.64804 0.0
C1555 C 0.13692 0.46826 0.65032 0.0
C1556 C 0.13182 0.4835 0.66995 0.0
H1557 H 0.02841 0.52017 0.54713 0.0
H1558 H 0.06152 0.51276 0.57599 0.0
C1559 C 0.14996 0.48502 0.68667 0.0
C1560 C 0.11796 0.46783 0.63205 0.0
H1561 H 0.10561 0.48284 0.57237 0.0
C1562 C 0.09492 0.46072 0.63988 0.0
C1563 C 0.12194 0.47588 0.60741 0.0
C1564 C 0.14592 0.48485 0.59821 0.0
C1565 C 0.07551 0.46188 0.62381 0.0
C1566 C 0.0795 0.46989 0.59918 0.0
C1567 C 0.10272 0.4765 0.59124 0.0
C1568 C 0.05926 0.47377 0.58183 0.0
C1569 C 0.05062 0.45555 0.63357 0.0
C1570 C 0.04703 0.45424 0.57549 0.0
C1571 C 0.02791 0.45848 0.55901 0.0
C1572 C 0.02108 0.48222 0.54851 0.0
C1573 C 0.03339 0.50165 0.55488 0.0
C1574 C 0.05233 0.49745 0.57134 0.0
H1575 H 0.04919 0.45481 0.65381 0.0
H1576 H 0.03539 0.46919 0.62645 0.0
H1577 H 0.04789 0.43722 0.62756 0.0
H1578 H 0.05241 0.43575 0.58309 0.0
H1579 H 0.01874 0.44321 0.55423 0.0
H1580 H 0.55271 0.79597 0.19961 0.0
H1581 H 0.57954 0.80329 0.16353 0.0
H1582 H 0.56196 0.73708 0.13399 0.0
H1583 H 0.53495 0.7299 0.16935 0.0
H1584 H 0.62041 0.77359 0.14918 0.0
H1585 H 0.55399 0.78453 0.07527 0.0
H1586 H 0.54411 0.78639 0.10699 0.0
H1587 H 0.55135 0.75694 0.09386 0.0
C1588 C 0.55435 0.78315 0.18528 0.0
C1589 C 0.54169 0.76237 0.18737 0.0
C1590 C 0.5696 0.78741 0.16467 0.0
C1591 C 0.57229 0.77101 0.14586 0.0
C1592 C 0.55955 0.75038 0.1479 0.0
H1593 H 0.6811 0.71972 0.04062 0.0
H1594 H 0.64527 0.72769 0.06888 0.0
C1595 C 0.54429 0.74619 0.16833 0.0
C1596 C 0.59024 0.77383 0.12519 0.0
H1597 H 0.59701 0.77155 0.0633 0.0
C1598 C 0.61523 0.77372 0.13038 0.0
C1599 C 0.5834 0.77402 0.10066 0.0
C1600 C 0.5567 0.77574 0.09387 0.0
C1601 C 0.63373 0.77234 0.11176 0.0
C1602 C 0.62699 0.77105 0.08748 0.0
C1603 C 0.60199 0.7723 0.08207 0.0
C1604 C 0.64605 0.76699 0.0678 0.0
C1605 C 0.66051 0.77119 0.11816 0.0
C1606 C 0.65771 0.78662 0.0575 0.0
C1607 C 0.67812 0.78219 0.04134 0.0
C1608 C 0.68721 0.75801 0.03538 0.0
C1609 C 0.67461 0.73853 0.04485 0.0
C1610 C 0.65414 0.74302 0.06095 0.0
H1611 H 0.66271 0.77169 0.13809 0.0
H1612 H 0.67129 0.75407 0.11167 0.0
H1613 H 0.6686 0.78696 0.1088 0.0
H1614 H 0.65161 0.80522 0.06269 0.0
H1615 H 0.68733 0.79763 0.03433 0.0
H1616 H 0.6964 0.42623 0.17507 0.0
H1617 H 0.66531 0.41639 0.14768 0.0
H1618 H 0.61183 0.47268 0.17792 0.0
H1619 H 0.64254 0.48213 0.20566 0.0
H1620 H 0.59146 0.43037 0.16852 0.0
H1621 H 0.64765 0.46364 0.08895 0.0
H1622 H 0.66256 0.43862 0.10777 0.0
H1623 H 0.65451 0.46835 0.1199 0.0
C1624 C 0.67789 0.43622 0.17606 0.0
C1625 C 0.67186 0.45512 0.1922 0.0
C1626 C 0.66022 0.43064 0.1604 0.0
C1627 C 0.63646 0.44411 0.16053 0.0
C1628 C 0.6301 0.4621 0.17754 0.0
H1629 H 0.5319 0.49962 0.05946 0.0
H1630 H 0.56521 0.48836 0.08775 0.0
C1631 C 0.64765 0.46755 0.19329 0.0
C1632 C 0.6187 0.4412 0.14179 0.0
H1633 H 0.60826 0.45404 0.08142 0.0
C1634 C 0.59519 0.4351 0.14938 0.0
C1635 C 0.62372 0.44756 0.11689 0.0
C1636 C 0.64838 0.45509 0.10779 0.0
C1637 C 0.57612 0.43639 0.13291 0.0
C1638 C 0.58093 0.44364 0.10823 0.0
C1639 C 0.60479 0.44842 0.10039 0.0
C1640 C 0.56083 0.44968 0.09095 0.0
C1641 C 0.55062 0.43153 0.14226 0.0
C1642 C 0.54742 0.43158 0.08336 0.0
C1643 C 0.52834 0.43801 0.06709 0.0
C1644 C 0.52269 0.46254 0.05815 0.0
C1645 C 0.53617 0.48053 0.06579 0.0
C1646 C 0.55511 0.47414 0.08199 0.0
H1647 H 0.54923 0.42941 0.16247 0.0
H1648 H 0.53643 0.44677 0.13603 0.0
H1649 H 0.54621 0.41437 0.13485 0.0
H1650 H 0.5518 0.41256 0.08989 0.0
H1651 H 0.51819 0.42383 0.06135 0.0
H1652 H 0.39239 0.46746 0.97405 0.0
H1653 H 0.3533 0.45012 0.97751 0.0
H1654 H 0.34978 0.45801 0.05521 0.0
H1655 H 0.38943 0.4746 0.05189 0.0
H1656 H 0.34977 0.41218 0.0449 0.0
H1657 H 0.28016 0.46841 0.98853 0.0
H1658 H 0.30889 0.46237 0.97139 0.0
H1659 H 0.30745 0.48018 -0.00203 0.0
C1660 C 0.38292 0.4661 0.99176 0.0
C1661 C 0.39399 0.47192 0.01277 0.0
C1662 C 0.3604 0.45649 0.99369 0.0
C1663 C 0.34845 0.45301 0.0166 0.0
C1664 C 0.35862 0.46068 0.03735 0.0
H1665 H 0.25553 0.33449 0.04447 0.0
H1666 H 0.26958 0.37422 0.05042 0.0
C1667 C 0.3813 0.47001 0.03546 0.0
C1668 C 0.32868 0.43689 0.01933 0.0
H1669 H 0.27675 0.42423 0.99291 0.0
C1670 C 0.33336 0.41516 0.03412 0.0
C1671 C 0.30738 0.44076 0.00517 0.0
C1672 C 0.30057 0.46435 0.99009 0.0
C1673 C 0.31854 0.39629 0.0336 0.0
C1674 C 0.29815 0.39949 0.01821 0.0
C1675 C 0.29245 0.42186 0.00463 0.0
C1676 C 0.28492 0.37858 0.01363 0.0
C1677 C 0.32602 0.37236 0.04807 0.0
C1678 C 0.28777 0.36867 0.99063 0.0
C1679 C 0.27962 0.34618 0.98715 0.0
C1680 C 0.26863 0.33329 0.00667 0.0
C1681 C 0.2643 0.34398 0.02925 0.0
C1682 C 0.27226 0.36662 0.03266 0.0
H1683 H 0.34463 0.37158 0.05574 0.0
H1684 H 0.3124 0.3703 0.06347 0.0
H1685 H 0.32622 0.35648 0.03651 0.0
H1686 H 0.29751 0.37767 0.97573 0.0
H1687 H 0.28292 0.33839 0.9695 0.0
H1688 H 0.01199 0.17931 0.24773 0.0
H1689 H 0.03196 0.13695 0.24353 0.0
H1690 H 0.10211 0.16394 0.22689 0.0
H1691 H 0.08222 0.20613 0.23044 0.0
H1692 H 0.09301 0.12445 0.19819 0.0
H1693 H 0.07687 0.10498 0.29814 0.0
H1694 H 0.05061 0.11515 0.27977 0.0
H1695 H 0.07242 0.13596 0.28468 0.0
C1696 C 0.03158 0.17615 0.24274 0.0
C1697 C 0.04569 0.19586 0.23959 0.0
C1698 C 0.04293 0.15201 0.24045 0.0
C1699 C 0.0685 0.14739 0.23516 0.0
C1700 C 0.08231 0.16718 0.23093 0.0
H1701 H 0.20396 0.07478 0.24591 0.0
H1702 H 0.16419 0.09695 0.23403 0.0
C1703 C 0.071 0.19123 0.23314 0.0
C1704 C 0.08186 0.1222 0.23628 0.0
H1705 H 0.1074 0.07891 0.27805 0.0
C1706 C 0.09564 0.11402 0.21548 0.0
C1707 C 0.08496 0.1085 0.25882 0.0
C1708 C 0.07056 0.11649 0.28172 0.0
C1709 C 0.11422 0.09384 0.21716 0.0
C1710 C 0.11919 0.08192 0.24023 0.0
C1711 C 0.10356 0.0883 0.26043 0.0
C1712 C 0.14319 0.06691 0.24483 0.0
C1713 C 0.1295 0.0865 0.19459 0.0
C1714 C 0.14444 0.04284 0.25528 0.0
C1715 C 0.16724 0.03015 0.26223 0.0
C1716 C 0.18884 0.04162 0.25915 0.0
C1717 C 0.18752 0.06561 0.24859 0.0
C1718 C 0.16489 0.07814 0.24146 0.0
H1719 H 0.11846 0.09069 0.17803 0.0
H1720 H 0.14551 0.09715 0.19251 0.0
H1721 H 0.1367 0.06659 0.19576 0.0
H1722 H 0.12778 0.03409 0.25839 0.0
H1723 H 0.1679 0.01167 0.2705 0.0
H1724 H 0.2661 0.28197 0.93898 0.0
H1725 H 0.26257 0.31966 0.91264 0.0
H1726 H 0.1876 0.30991 0.89745 0.0
H1727 H 0.19076 0.27255 0.92465 0.0
H1728 H 0.25369 0.32433 0.86401 0.0
H1729 H 0.17992 0.38132 0.9162 0.0
H1730 H 0.19662 0.35325 0.92908 0.0
H1731 H 0.17206 0.35203 0.90869 0.0
C1732 C 0.24873 0.28811 0.93036 0.0
C1733 C 0.22855 0.27466 0.93411 0.0
C1734 C 0.24679 0.30953 0.91521 0.0
C1735 C 0.22468 0.31779 0.90344 0.0
C1736 C 0.20461 0.30415 0.90683 0.0
H1737 H 0.19495 0.43533 0.79094 0.0
H1738 H 0.19095 0.40078 0.8206 0.0
C1739 C 0.20651 0.28274 0.92214 0.0
C1740 C 0.22324 0.34013 0.88685 0.0
H1741 H 0.19285 0.39828 0.8777 0.0
C1742 C 0.24039 0.34049 0.86701 0.0
C1743 C 0.20585 0.36116 0.89086 0.0
C1744 C 0.18769 0.36212 0.91247 0.0
C1745 C 0.24067 0.36135 0.85106 0.0
C1746 C 0.22342 0.38238 0.85517 0.0
C1747 C 0.20599 0.382 0.87472 0.0
C1748 C 0.22388 0.40507 0.83948 0.0
C1749 C 0.25942 0.36086 0.82992 0.0
C1750 C 0.24329 0.41921 0.84092 0.0
C1751 C 0.24564 0.43894 0.82413 0.0
C1752 C 0.22861 0.44478 0.80553 0.0
C1753 C 0.20843 0.43128 0.80495 0.0
C1754 C 0.20607 0.41157 0.82187 0.0
H1755 H 0.26853 0.34192 0.82685 0.0
H1756 H 0.25047 0.3687 0.81294 0.0
H1757 H 0.27398 0.37233 0.83367 0.0
H1758 H 0.25711 0.41444 0.85454 0.0
H1759 H 0.26138 0.44894 0.82518 0.0
H1760 H 0.33424 0.24169 0.96794 0.0
H1761 H 0.37159 0.22523 0.945 0.0
H1762 H 0.34625 0.15399 0.94774 0.0
H1763 H 0.30879 0.17014 0.97073 0.0
H1764 H 0.41039 0.17835 0.95043 0.0
H1765 H 0.34551 0.18378 0.87412 0.0
H1766 H 0.33726 0.20025 0.9013 0.0
H1767 H 0.33819 0.16745 0.90238 0.0
C1768 C 0.33685 0.22236 0.96426 0.0
C1769 C 0.31828 0.20738 0.97071 0.0
C1770 C 0.35827 0.21296 0.95127 0.0
C1771 C 0.36142 0.18851 0.94456 0.0
C1772 C 0.34401 0.17294 0.95274 0.0
H1773 H 0.44885 0.16731 0.80929 0.0
H1774 H 0.42651 0.15314 0.84605 0.0
C1775 C 0.32258 0.18229 0.96579 0.0
C1776 C 0.38055 0.18091 0.92574 0.0
H1777 H 0.38779 0.17891 0.8641 0.0
C1778 C 0.40557 0.17788 0.93158 0.0
C1779 C 0.37407 0.17995 0.90129 0.0
C1780 C 0.34734 0.18308 0.89419 0.0
C1781 C 0.4244 0.17539 0.91324 0.0
C1782 C 0.41786 0.17683 0.88855 0.0
C1783 C 0.39284 0.17787 0.883 0.0
C1784 C 0.43572 0.1816 0.8682 0.0
C1785 C 0.45104 0.17199 0.92051 0.0
C1786 C 0.4487 0.202 0.86856 0.0
C1787 C 0.46154 0.21001 0.84772 0.0
C1788 C 0.46128 0.1981 0.82589 0.0
C1789 C 0.44923 0.177 0.82578 0.0
C1790 C 0.43658 0.1688 0.8468 0.0
H1791 H 0.45318 0.16083 0.93801 0.0
H1792 H 0.46364 0.16288 0.90638 0.0
H1793 H 0.45676 0.19023 0.92333 0.0
H1794 H 0.44767 0.21273 0.8845 0.0
H1795 H 0.47056 0.22636 0.84847 0.0
H1796 H 0.45706 0.48445 0.94787 0.0
H1797 H 0.4252 0.4923 0.91779 0.0
H1798 H 0.43744 0.56843 0.90923 0.0
H1799 H 0.46962 0.56062 0.93978 0.0
H1800 H 0.38142 0.52698 0.92015 0.0
H1801 H 0.44311 0.5435 0.83865 0.0
H1802 H 0.45493 0.52857 0.86667 0.0
H1803 H 0.44538 0.56112 0.86477 0.0
C1804 C 0.45286 0.50294 0.93978 0.0
C1805 C 0.46557 0.52202 0.9463 0.0
C1806 C 0.43473 0.50736 0.92253 0.0
C1807 C 0.42906 0.53089 0.91128 0.0
C1808 C 0.44177 0.55008 0.9176 0.0
H1809 H 0.29669 0.55199 0.82308 0.0
H1810 H 0.32749 0.56022 0.8515 0.0
C1811 C 0.46002 0.54564 0.93502 0.0
C1812 C 0.40961 0.5348 0.89313 0.0
H1813 H 0.40108 0.54184 0.83193 0.0
C1814 C 0.38554 0.53064 0.90088 0.0
C1815 C 0.41528 0.53932 0.86806 0.0
C1816 C 0.44107 0.54327 0.85885 0.0
C1817 C 0.36714 0.52982 0.88411 0.0
C1818 C 0.37292 0.53379 0.85895 0.0
C1819 C 0.39675 0.53891 0.85126 0.0
C1820 C 0.35511 0.53058 0.84032 0.0
C1821 C 0.34214 0.52335 0.89341 0.0
C1822 C 0.36083 0.51178 0.82404 0.0
C1823 C 0.3434 0.50721 0.80766 0.0
C1824 C 0.32 0.52137 0.80738 0.0
C1825 C 0.31455 0.54066 0.82315 0.0
C1826 C 0.33206 0.54534 0.8394 0.0
H1827 H 0.3425 0.51577 0.91262 0.0
H1828 H 0.32838 0.54015 0.89256 0.0
H1829 H 0.33572 0.50965 0.882 0.0
H1830 H 0.37854 0.5002 0.82447 0.0
H1831 H 0.34805 0.49228 0.79561 0.0
H1832 H 0.72786 0.64238 0.03375 0.0
H1833 H 0.70699 0.60569 0.03258 0.0
H1834 H 0.7215 0.60512 0.95481 0.0
H1835 H 0.74189 0.64209 0.95583 0.0
H1836 H 0.67246 0.60925 0.96815 0.0
H1837 H 0.72334 0.53222 0.02274 0.0
H1838 H 0.71774 0.56038 0.03818 0.0
H1839 H 0.73748 0.55878 0.01102 0.0
C1840 C 0.72715 0.63401 0.01653 0.0
C1841 C 0.7361 0.64516 0.99482 0.0
C1842 C 0.71545 0.61292 0.01591 0.0
C1843 C 0.71287 0.60259 0.99362 0.0
C1844 C 0.72343 0.61276 0.9722 0.0
H1845 H 0.59915 0.51475 0.95626 0.0
H1846 H 0.63839 0.5322 0.9544 0.0
C1847 C 0.73497 0.6339 0.97279 0.0
C1848 C 0.69543 0.58435 0.99199 0.0
H1849 H 0.68079 0.52875 0.01521 0.0
C1850 C 0.67452 0.59142 0.97805 0.0
C1851 C 0.69804 0.56132 0.00523 0.0
C1852 C 0.72049 0.5526 0.01997 0.0
C1853 C 0.65558 0.57658 0.97772 0.0
C1854 C 0.65796 0.55365 0.9912 0.0
C1855 C 0.67916 0.54625 0.00474 0.0
C1856 C 0.63752 0.53831 0.99293 0.0
C1857 C 0.63261 0.58627 0.96397 0.0
C1858 C 0.625 0.53453 0.01545 0.0
C1859 C 0.60284 0.52424 0.0166 0.0
C1860 C 0.59288 0.51779 0.9952 0.0
C1861 C 0.60633 0.51992 0.97294 0.0
C1862 C 0.62867 0.5299 0.97186 0.0
H1863 H 0.6314 0.60637 0.95938 0.0
H1864 H 0.63304 0.5769 0.94664 0.0
H1865 H 0.61558 0.58262 0.97474 0.0
H1866 H 0.6316 0.54082 0.03193 0.0
H1867 H 0.59287 0.52257 0.03402 0.0
H1868 H 0.91707 0.794 0.76224 0.0
H1869 H 0.89689 0.8354 0.76944 0.0
H1870 H 0.96463 0.86504 0.74751 0.0
H1871 H 0.98466 0.82358 0.73923 0.0
H1872 H 0.90563 0.87392 0.79749 0.0
H1873 H 0.91642 0.89802 0.69771 0.0
H1874 H 0.92333 0.86678 0.70992 0.0
H1875 H 0.94396 0.88889 0.71447 0.0
C1876 C 0.92773 0.80931 0.75918 0.0
C1877 C 0.95226 0.80572 0.7499 0.0
C1878 C 0.91628 0.83292 0.7635 0.0
C1879 C 0.9292 0.85329 0.7587 0.0
C1880 C 0.95426 0.84958 0.75096 0.0
H1881 H 0.82222 0.98456 0.73009 0.0
H1882 H 0.86361 0.96501 0.74178 0.0
C1883 C 0.96568 0.82592 0.74639 0.0
C1884 C 0.91512 0.87816 0.75911 0.0
H1885 H 0.88626 0.92216 0.71996 0.0
C1886 C 0.90192 0.88496 0.78069 0.0
C1887 C 0.91059 0.89274 0.73723 0.0
C1888 C 0.92418 0.88632 0.71344 0.0
C1889 C 0.88243 0.90435 0.7804 0.0
C1890 C 0.87605 0.91696 0.75799 0.0
C1891 C 0.89119 0.91222 0.73707 0.0
C1892 C 0.85112 0.93047 0.75452 0.0
C1893 C 0.86762 0.90996 0.80369 0.0
C1894 C 0.83063 0.91738 0.75765 0.0
C1895 C 0.80732 0.92826 0.75066 0.0
C1896 C 0.80409 0.95245 0.74054 0.0
C1897 C 0.82439 0.96586 0.73796 0.0
C1898 C 0.84789 0.95483 0.74472 0.0
H1899 H 0.87937 0.90574 0.81976 0.0
H1900 H 0.85932 0.92956 0.80349 0.0
H1901 H 0.85241 0.89829 0.80583 0.0
H1902 H 0.83287 0.89834 0.76456 0.0
H1903 H 0.79187 0.91764 0.75297 0.0
H1904 H 0.47903 0.14761 0.69761 0.0
H1905 H 0.47017 0.1277 0.66111 0.0
H1906 H 0.4109 0.18602 0.64539 0.0
H1907 H 0.42001 0.20632 0.6818 0.0
H1908 H 0.42719 0.11121 0.64573 0.0
H1909 H 0.45685 0.18724 0.58397 0.0
H1910 H 0.46304 0.18448 0.61601 0.0
H1911 H 0.43233 0.19526 0.60622 0.0
C1912 C 0.46393 0.15603 0.68653 0.0
C1913 C 0.45032 0.17855 0.69233 0.0
C1914 C 0.45886 0.14466 0.66573 0.0
C1915 C 0.44012 0.15561 0.6504 0.0
C1916 C 0.4257 0.17753 0.65678 0.0
H1917 H 0.42684 0.06181 0.52881 0.0
H1918 H 0.41155 0.09256 0.55815 0.0
C1919 C 0.43083 0.18899 0.67761 0.0
C1920 C 0.43695 0.14444 0.6272 0.0
H1921 H 0.44935 0.1516 0.56596 0.0
C1922 C 0.43151 0.12015 0.62818 0.0
C1923 C 0.44267 0.15626 0.60443 0.0
C1924 C 0.44922 0.18219 0.60241 0.0
C1925 C 0.43323 0.10674 0.60719 0.0
C1926 C 0.44009 0.11819 0.58455 0.0
C1927 C 0.44394 0.143 0.58334 0.0
C1928 C 0.44759 0.10359 0.56312 0.0
C1929 C 0.42957 0.07991 0.60975 0.0
C1930 C 0.47256 0.10086 0.55505 0.0
C1931 C 0.48131 0.08357 0.53819 0.0
C1932 C 0.46523 0.06859 0.52914 0.0
C1933 C 0.43978 0.07286 0.53564 0.0
C1934 C 0.43101 0.09031 0.5525 0.0
H1935 H 0.42794 0.07307 0.62913 0.0
H1936 H 0.41233 0.07732 0.60083 0.0
H1937 H 0.44528 0.06845 0.6007 0.0
H1938 H 0.48564 0.11106 0.56293 0.0
H1939 H 0.50096 0.081 0.53337 0.0
H1940 H 0.56717 0.28412 0.82232 0.0
H1941 H 0.57756 0.30779 0.85611 0.0
H1942 H 0.49975 0.3251 0.8752 0.0
H1943 H 0.48929 0.30197 0.84153 0.0
H1944 H 0.55588 0.36131 0.86337 0.0
H1945 H 0.5359 0.29513 0.93972 0.0
H1946 H 0.54433 0.28591 0.90913 0.0
H1947 H 0.51323 0.29945 0.91661 0.0
C1948 C 0.55236 0.29304 0.83376 0.0
C1949 C 0.52745 0.29131 0.82939 0.0
C1950 C 0.55831 0.30641 0.85302 0.0
C1951 C 0.5394 0.31777 0.86826 0.0
C1952 C 0.51457 0.3161 0.8638 0.0
H1953 H 0.48434 0.41326 0.97004 0.0
H1954 H 0.49837 0.37905 0.94474 0.0
C1955 C 0.50863 0.30304 0.84449 0.0
C1956 C 0.54496 0.33257 0.88825 0.0
H1957 H 0.53357 0.33751 0.94928 0.0
C1958 C 0.55178 0.35598 0.8823 0.0
C1959 C 0.53961 0.32534 0.91279 0.0
C1960 C 0.53306 0.29998 0.92006 0.0
C1961 C 0.55106 0.37332 0.90007 0.0
C1962 C 0.5438 0.3667 0.9244 0.0
C1963 C 0.53907 0.34254 0.93062 0.0
C1964 C 0.53679 0.3855 0.94244 0.0
C1965 C 0.55598 0.39914 0.89228 0.0
C1966 C 0.55393 0.40002 0.95021 0.0
C1967 C 0.5459 0.41987 0.96462 0.0
C1968 C 0.52064 0.42535 0.97153 0.0
C1969 C 0.50388 0.40977 0.9649 0.0
C1970 C 0.51189 0.3901 0.95049 0.0
H1971 H 0.55808 0.402 0.87215 0.0
H1972 H 0.54064 0.41277 0.89894 0.0
H1973 H 0.57333 0.40283 0.90029 0.0
H1974 H 0.57332 0.39646 0.94454 0.0
H1975 H 0.55933 0.43138 0.96961 0.0
H1976 H 0.50382 0.84346 0.29915 0.0
H1977 H 0.51198 0.86875 0.33211 0.0
H1978 H 0.577 0.81805 0.34961 0.0
H1979 H 0.56888 0.79259 0.31663 0.0
H1980 H 0.54293 0.82644 0.38888 0.0
H1981 H 0.56395 0.91435 0.34299 0.0
H1982 H 0.53667 0.90424 0.33206 0.0
H1983 H 0.56634 0.88613 0.32733 0.0
C1984 C 0.52021 0.83808 0.3096 0.0
C1985 C 0.5357 0.8161 0.30545 0.0
C1986 C 0.52491 0.85257 0.32836 0.0
C1987 C 0.5452 0.84533 0.34315 0.0
C1988 C 0.56135 0.82397 0.33828 0.0
H1989 H 0.55976 0.94368 0.45889 0.0
H1990 H 0.57278 0.91334 0.42872 0.0
C1991 C 0.55672 0.80952 0.31943 0.0
C1992 C 0.54763 0.85851 0.36532 0.0
H1993 H 0.54913 0.91587 0.38492 0.0
C1994 C 0.5448 0.84589 0.38808 0.0
C1995 C 0.55036 0.88376 0.36421 0.0
C1996 C 0.55475 0.89787 0.34033 0.0
C1997 C 0.54301 0.85829 0.40972 0.0
C1998 C 0.54384 0.88392 0.40845 0.0
C1999 C 0.54831 0.8962 0.38583 0.0
C2000 C 0.53768 0.89887 0.42984 0.0
C2001 C 0.5396 0.84398 0.43368 0.0
C2002 C 0.51383 0.90028 0.44091 0.0
C2003 C 0.50626 0.91762 0.45813 0.0
C2004 C 0.52238 0.93399 0.46442 0.0
C2005 C 0.5468 0.93144 0.45442 0.0
C2006 C 0.55432 0.91413 0.43715 0.0
H2007 H 0.54719 0.82428 0.43247 0.0
H2008 H 0.54874 0.85171 0.44852 0.0
H2009 H 0.5195 0.84493 0.43858 0.0
H2010 H 0.50055 0.88895 0.43522 0.0
H2011 H 0.48734 0.91903 0.46546 0.0
H2012 H 0.50287 0.573 0.03921 0.0
H2013 H 0.48931 0.60278 0.06965 0.0
H2014 H 0.41524 0.58303 0.07023 0.0
H2015 H 0.42866 0.55283 0.03991 0.0
H2016 H 0.45097 0.64317 0.07343 0.0
H2017 H 0.43819 0.56502 0.14051 0.0
H2018 H 0.45417 0.56051 0.11134 0.0
H2019 H 0.421 0.56723 0.11318 0.0
C2020 C 0.48357 0.57525 0.04541 0.0
C2021 C 0.46697 0.56019 0.03743 0.0
C2022 C 0.47585 0.59234 0.0628 0.0
C2023 C 0.45142 0.59469 0.0725 0.0
C2024 C 0.43429 0.58112 0.06323 0.0
H2025 H 0.42166 0.70228 0.18612 0.0
H2026 H 0.41229 0.67768 0.15284 0.0
C2027 C 0.44199 0.56396 0.04582 0.0
C2028 C 0.44494 0.60964 0.09383 0.0
H2029 H 0.43549 0.60421 0.15561 0.0
C2030 C 0.44705 0.63484 0.09136 0.0
C2031 C 0.44008 0.59851 0.11717 0.0
C2032 C 0.43835 0.57131 0.12091 0.0
C2033 C 0.44563 0.64904 0.11181 0.0
C2034 C 0.44166 0.6377 0.13523 0.0
C2035 C 0.43833 0.61278 0.13757 0.0
C2036 C 0.44452 0.65048 0.15755 0.0
C2037 C 0.45 0.67563 0.10836 0.0
C2038 C 0.46499 0.64257 0.1719 0.0
C2039 C 0.47028 0.65643 0.1909 0.0
C2040 C 0.45512 0.67839 0.19585 0.0
C2041 C 0.43367 0.68543 0.18258 0.0
C2042 C 0.42838 0.67152 0.16352 0.0
H2043 H 0.45634 0.68054 0.0894 0.0
H2044 H 0.4325 0.68765 0.11257 0.0
H2045 H 0.46409 0.67959 0.12099 0.0
H2046 H 0.47761 0.62632 0.16759 0.0
H2047 H 0.4869 0.65059 0.20091 0.0
loop_
_geom_bond_atom_site_label_1
_geom_bond_atom_site_label_2
_geom_bond_distance
_geom_bond_site_symmetry_2
_ccdc_geom_bond_type
Dy0 O4 2.398 . S
Dy0 O5 2.491 1_554 S
Dy0 O6 2.403 1_655 S
Dy0 O7 2.664 1_655 S
Dy0 O11 2.326 1_654 S
Dy0 O15 2.310 1_564 S
Dy0 O16 2.351 1_565 S
C1 O12 1.185 . S
C1 O13 1.355 1_556 S
C2 O4 1.185 . S
C2 O5 1.355 1_554 S
Dy3 O7 2.310 1_546 S
Dy3 O10 2.351 1_545 S
Dy3 O12 2.398 . S
Dy3 O13 2.491 1_556 S
Dy3 O14 2.403 1_455 S
Dy3 O15 2.664 1_455 S
Dy3 O17 2.326 1_456 S
O4 Dy0 2.398 . S
O4 C2 1.185 . S
O5 Dy0 2.491 1_556 S
O5 C2 1.355 1_556 S
O6 Dy0 2.403 1_455 S
O6 C8 1.254 . S
O7 Dy0 2.664 1_455 S
O7 Dy3 2.310 1_564 S
O7 C8 1.268 . S
C8 O6 1.254 . S
C8 O7 1.268 . S
C9 O14 1.254 . S
C9 O15 1.268 . S
O10 Dy3 2.351 1_565 S
O10 C18 1.249 . S
O11 Dy0 2.326 1_456 S
O11 C18 1.267 . S
O12 C1 1.185 . S
O12 Dy3 2.398 . S
O13 C1 1.355 1_554 S
O13 Dy3 2.491 1_554 S
O14 Dy3 2.403 1_655 S
O14 C9 1.254 . S
O15 Dy0 2.310 1_546 S
O15 Dy3 2.664 1_655 S
O15 C9 1.268 . S
O16 Dy0 2.351 1_545 S
O16 C19 1.249 . S
O17 Dy3 2.326 1_654 S
O17 C19 1.267 . S
C18 O10 1.249 . S
C18 O11 1.267 . S
C19 O16 1.249 . S
C19 O17 1.267 . S
Dy20 O24 2.398 . S
Dy20 O25 2.491 1_455 S
Dy20 O26 2.403 . S
Dy20 O27 2.664 . S
Dy20 O31 2.326 1_455 S
Dy20 O35 2.310 1_455 S
Dy20 O36 2.351 . S
C21 O32 1.185 . S
C21 O33 1.355 1_655 S
C22 O24 1.185 . S
C22 O25 1.355 1_455 S
Dy23 O27 2.310 1_655 S
Dy23 O30 2.351 . S
Dy23 O32 2.398 . S
Dy23 O33 2.491 1_655 S
Dy23 O34 2.403 . S
Dy23 O35 2.664 . S
Dy23 O37 2.326 1_655 S
O24 Dy20 2.398 . S
O24 C22 1.185 . S
O25 Dy20 2.491 1_655 S
O25 C22 1.355 1_655 S
O26 Dy20 2.403 . S
O26 C28 1.254 . S
O27 Dy20 2.664 . S
O27 Dy23 2.310 1_455 S
O27 C28 1.268 . S
C28 O26 1.254 . S
C28 O27 1.268 . S
C29 O34 1.254 . S
C29 O35 1.268 . S
O30 Dy23 2.351 . S
O30 C38 1.249 . S
O31 Dy20 2.326 1_655 S
O31 C38 1.267 . S
O32 C21 1.185 . S
O32 Dy23 2.398 . S
O33 C21 1.355 1_455 S
O33 Dy23 2.491 1_455 S
O34 Dy23 2.403 . S
O34 C29 1.254 . S
O35 Dy20 2.310 1_655 S
O35 Dy23 2.664 . S
O35 C29 1.268 . S
O36 Dy20 2.351 . S
O36 C39 1.249 . S
O37 Dy23 2.326 1_455 S
O37 C39 1.267 . S
C38 O30 1.249 . S
C38 O31 1.267 . S
C39 O36 1.249 . S
C39 O37 1.267 . S
Dy40 O44 2.398 . S
Dy40 O45 2.491 . S
Dy40 O46 2.403 . S
Dy40 O47 2.664 . S
Dy40 O51 2.326 . S
Dy40 O55 2.310 . S
Dy40 O56 2.351 . S
C41 O52 1.185 . S
C41 O53 1.355 . S
C42 O44 1.185 . S
C42 O45 1.355 . S
Dy43 O47 2.310 . S
Dy43 O50 2.351 . S
Dy43 O52 2.398 . S
Dy43 O53 2.491 . S
Dy43 O54 2.403 . S
Dy43 O55 2.664 . S
Dy43 O57 2.326 . S
O44 Dy40 2.398 . S
O44 C42 1.185 . S
O45 Dy40 2.491 . S
O45 C42 1.355 . S
O46 Dy40 2.403 . S
O46 C48 1.254 . S
O47 Dy40 2.664 . S
O47 Dy43 2.310 . S
O47 C48 1.268 . S
C48 O46 1.254 . S
C48 O47 1.268 . S
C49 O54 1.254 . S
C49 O55 1.268 . S
O50 Dy43 2.351 . S
O50 C58 1.249 . S
O51 Dy40 2.326 . S
O51 C58 1.267 . S
O52 C41 1.185 . S
O52 Dy43 2.398 . S
O53 C41 1.355 . S
O53 Dy43 2.491 . S
O54 Dy43 2.403 . S
O54 C49 1.254 . S
O55 Dy40 2.310 . S
O55 Dy43 2.664 . S
O55 C49 1.268 . S
O56 Dy40 2.351 . S
O56 C59 1.249 . S
O57 Dy43 2.326 . S
O57 C59 1.267 . S
C58 O50 1.249 . S
C58 O51 1.267 . S
C59 O56 1.249 . S
C59 O57 1.267 . S
Dy60 O64 2.398 . S
Dy60 O65 2.491 1_565 S
Dy60 O66 2.403 . S
Dy60 O67 2.664 . S
Dy60 O71 2.326 1_565 S
Dy60 O75 2.310 1_565 S
Dy60 O76 2.351 . S
C61 O72 1.185 . S
C61 O73 1.355 1_545 S
C62 O64 1.185 . S
C62 O65 1.355 1_565 S
Dy63 O67 2.310 1_545 S
Dy63 O70 2.351 . S
Dy63 O72 2.398 . S
Dy63 O73 2.491 1_545 S
Dy63 O74 2.403 . S
Dy63 O75 2.664 . S
Dy63 O77 2.326 1_545 S
O64 Dy60 2.398 . S
O64 C62 1.185 . S
O65 Dy60 2.491 1_545 S
O65 C62 1.355 1_545 S
O66 Dy60 2.403 . S
O66 C68 1.254 . S
O67 Dy60 2.664 . S
O67 Dy63 2.310 1_565 S
O67 C68 1.268 . S
C68 O66 1.254 . S
C68 O67 1.268 . S
C69 O74 1.254 . S
C69 O75 1.268 . S
O70 Dy63 2.351 . S
O70 C78 1.249 . S
O71 Dy60 2.326 1_545 S
O71 C78 1.267 . S
O72 C61 1.185 . S
O72 Dy63 2.398 . S
O73 C61 1.355 1_565 S
O73 Dy63 2.491 1_565 S
O74 Dy63 2.403 . S
O74 C69 1.254 . S
O75 Dy60 2.310 1_545 S
O75 Dy63 2.664 . S
O75 C69 1.268 . S
O76 Dy60 2.351 . S
O76 C79 1.249 . S
O77 Dy63 2.326 1_565 S
O77 C79 1.267 . S
C78 O70 1.249 . S
C78 O71 1.267 . S
C79 O76 1.249 . S
C79 O77 1.267 . S
Dy80 O84 2.398 . S
Dy80 O85 2.491 . S
Dy80 O86 2.403 . S
Dy80 O87 2.664 . S
Dy80 O91 2.326 . S
Dy80 O95 2.310 . S
Dy80 O96 2.351 . S
C81 O92 1.185 . S
C81 O93 1.355 . S
C82 O84 1.185 . S
C82 O85 1.355 . S
Dy83 O87 2.310 . S
Dy83 O90 2.351 . S
Dy83 O92 2.398 . S
Dy83 O93 2.491 . S
Dy83 O94 2.403 . S
Dy83 O95 2.664 . S
Dy83 O97 2.326 . S
O84 Dy80 2.398 . S
O84 C82 1.185 . S
O85 Dy80 2.491 . S
O85 C82 1.355 . S
O86 Dy80 2.403 . S
O86 C88 1.254 . S
O87 Dy80 2.664 . S
O87 Dy83 2.310 . S
O87 C88 1.268 . S
C88 O86 1.254 . S
C88 O87 1.268 . S
C89 O94 1.254 . S
C89 O95 1.268 . S
O90 Dy83 2.351 . S
O90 C98 1.249 . S
O91 Dy80 2.326 . S
O91 C98 1.267 . S
O92 C81 1.185 . S
O92 Dy83 2.398 . S
O93 C81 1.355 . S
O93 Dy83 2.491 . S
O94 Dy83 2.403 . S
O94 C89 1.254 . S
O95 Dy80 2.310 . S
O95 Dy83 2.664 . S
O95 C89 1.268 . S
O96 Dy80 2.351 . S
O96 C99 1.249 . S
O97 Dy83 2.326 . S
O97 C99 1.267 . S
C98 O90 1.249 . S
C98 O91 1.267 . S
C99 O96 1.249 . S
C99 O97 1.267 . S
Dy100 O104 2.398 . S
Dy100 O105 2.491 . S
Dy100 O106 2.403 . S
Dy100 O107 2.664 . S
Dy100 O111 2.326 . S
Dy100 O115 2.310 . S
Dy100 O116 2.351 . S
C101 O112 1.185 . S
C101 O113 1.355 . S
C102 O104 1.185 . S
C102 O105 1.355 . S
Dy103 O107 2.310 . S
Dy103 O110 2.351 . S
Dy103 O112 2.398 . S
Dy103 O113 2.491 . S
Dy103 O114 2.403 . S
Dy103 O115 2.664 . S
Dy103 O117 2.326 . S
O104 Dy100 2.398 . S
O104 C102 1.185 . S
O105 Dy100 2.491 . S
O105 C102 1.355 . S
O106 Dy100 2.403 . S
O106 C108 1.254 . S
O107 Dy100 2.664 . S
O107 Dy103 2.310 . S
O107 C108 1.268 . S
C108 O106 1.254 . S
C108 O107 1.268 . S
C109 O114 1.254 . S
C109 O115 1.268 . S
O110 Dy103 2.351 . S
O110 C118 1.249 . S
O111 Dy100 2.326 . S
O111 C118 1.267 . S
O112 C101 1.185 . S
O112 Dy103 2.398 . S
O113 C101 1.355 . S
O113 Dy103 2.491 . S
O114 Dy103 2.403 . S
O114 C109 1.254 . S
O115 Dy100 2.310 . S
O115 Dy103 2.664 . S
O115 C109 1.268 . S
O116 Dy100 2.351 . S
O116 C119 1.249 . S
O117 Dy103 2.326 . S
O117 C119 1.267 . S
C118 O110 1.249 . S
C118 O111 1.267 . S
C119 O116 1.249 . S
C119 O117 1.267 . S
Dy120 O124 2.398 . S
Dy120 O125 2.491 . S
Dy120 O126 2.403 . S
Dy120 O127 2.664 . S
Dy120 O131 2.326 . S
Dy120 O135 2.310 . S
Dy120 O136 2.351 . S
C121 O132 1.185 . S
C121 O133 1.355 . S
C122 O124 1.185 . S
C122 O125 1.355 . S
Dy123 O127 2.310 . S
Dy123 O130 2.351 . S
Dy123 O132 2.398 . S
Dy123 O133 2.491 . S
Dy123 O134 2.403 . S
Dy123 O135 2.664 . S
Dy123 O137 2.326 . S
O124 Dy120 2.398 . S
O124 C122 1.185 . S
O125 Dy120 2.491 . S
O125 C122 1.355 . S
O126 Dy120 2.403 . S
O126 C128 1.254 . S
O127 Dy120 2.664 . S
O127 Dy123 2.310 . S
O127 C128 1.268 . S
C128 O126 1.254 . S
C128 O127 1.268 . S
C129 O134 1.254 . S
C129 O135 1.268 . S
O130 Dy123 2.351 . S
O130 C138 1.249 . S
O131 Dy120 2.326 . S
O131 C138 1.267 . S
O132 C121 1.185 . S
O132 Dy123 2.398 . S
O133 C121 1.355 . S
O133 Dy123 2.491 . S
O134 Dy123 2.403 . S
O134 C129 1.254 . S
O135 Dy120 2.310 . S
O135 Dy123 2.664 . S
O135 C129 1.268 . S
O136 Dy120 2.351 . S
O136 C139 1.249 . S
O137 Dy123 2.326 . S
O137 C139 1.267 . S
C138 O130 1.249 . S
C138 O131 1.267 . S
C139 O136 1.249 . S
C139 O137 1.267 . S
Dy140 O144 2.398 . S
Dy140 O145 2.491 . S
Dy140 O146 2.403 1_655 S
Dy140 O147 2.664 1_655 S
Dy140 O151 2.326 1_655 S
Dy140 O155 2.310 . S
Dy140 O156 2.351 . S
C141 O152 1.185 . S
C141 O153 1.355 . S
C142 O144 1.185 . S
C142 O145 1.355 . S
Dy143 O147 2.310 . S
Dy143 O150 2.351 . S
Dy143 O152 2.398 . S
Dy143 O153 2.491 . S
Dy143 O154 2.403 1_455 S
Dy143 O155 2.664 1_455 S
Dy143 O157 2.326 1_455 S
O144 Dy140 2.398 . S
O144 C142 1.185 . S
O145 Dy140 2.491 . S
O145 C142 1.355 . S
O146 Dy140 2.403 1_455 S
O146 C148 1.254 . S
O147 Dy140 2.664 1_455 S
O147 Dy143 2.310 . S
O147 C148 1.268 . S
C148 O146 1.254 . S
C148 O147 1.268 . S
C149 O154 1.254 . S
C149 O155 1.268 . S
O150 Dy143 2.351 . S
O150 C158 1.249 . S
O151 Dy140 2.326 1_455 S
O151 C158 1.267 . S
O152 C141 1.185 . S
O152 Dy143 2.398 . S
O153 C141 1.355 . S
O153 Dy143 2.491 . S
O154 Dy143 2.403 1_655 S
O154 C149 1.254 . S
O155 Dy140 2.310 . S
O155 Dy143 2.664 1_655 S
O155 C149 1.268 . S
O156 Dy140 2.351 . S
O156 C159 1.249 . S
O157 Dy143 2.326 1_655 S
O157 C159 1.267 . S
C158 O150 1.249 . S
C158 O151 1.267 . S
C159 O156 1.249 . S
C159 O157 1.267 . S
Dy160 O164 2.398 . S
Dy160 O165 2.491 1_556 S
Dy160 O166 2.403 . S
Dy160 O167 2.664 . S
Dy160 O171 2.326 1_556 S
Dy160 O175 2.310 1_556 S
Dy160 O176 2.351 . S
C161 O172 1.185 . S
C161 O173 1.355 1_554 S
C162 O164 1.185 . S
C162 O165 1.355 1_556 S
Dy163 O167 2.310 1_554 S
Dy163 O170 2.351 . S
Dy163 O172 2.398 . S
Dy163 O173 2.491 1_554 S
Dy163 O174 2.403 . S
Dy163 O175 2.664 . S
Dy163 O177 2.326 1_554 S
O164 Dy160 2.398 . S
O164 C162 1.185 . S
O165 Dy160 2.491 1_554 S
O165 C162 1.355 1_554 S
O166 Dy160 2.403 . S
O166 C168 1.254 . S
O167 Dy160 2.664 . S
O167 Dy163 2.310 1_556 S
O167 C168 1.268 . S
C168 O166 1.254 . S
C168 O167 1.268 . S
C169 O174 1.254 . S
C169 O175 1.268 . S
O170 Dy163 2.351 . S
O170 C178 1.249 . S
O171 Dy160 2.326 1_554 S
O171 C178 1.267 . S
O172 C161 1.185 . S
O172 Dy163 2.398 . S
O173 C161 1.355 1_556 S
O173 Dy163 2.491 1_556 S
O174 Dy163 2.403 . S
O174 C169 1.254 . S
O175 Dy160 2.310 1_554 S
O175 Dy163 2.664 . S
O175 C169 1.268 . S
O176 Dy160 2.351 . S
O176 C179 1.249 . S
O177 Dy163 2.326 1_556 S
O177 C179 1.267 . S
C178 O170 1.249 . S
C178 O171 1.267 . S
C179 O176 1.249 . S
C179 O177 1.267 . S
Dy180 O184 2.398 . S
Dy180 O185 2.491 1_565 S
Dy180 O186 2.403 . S
Dy180 O187 2.664 . S
Dy180 O191 2.326 1_565 S
Dy180 O195 2.310 1_565 S
Dy180 O196 2.351 . S
C181 O192 1.185 . S
C181 O193 1.355 1_545 S
C182 O184 1.185 . S
C182 O185 1.355 1_565 S
Dy183 O187 2.310 1_545 S
Dy183 O190 2.351 . S
Dy183 O192 2.398 . S
Dy183 O193 2.491 1_545 S
Dy183 O194 2.403 . S
Dy183 O195 2.664 . S
Dy183 O197 2.326 1_545 S
O184 Dy180 2.398 . S
O184 C182 1.185 . S
O185 Dy180 2.491 1_545 S
O185 C182 1.355 1_545 S
O186 Dy180 2.403 . S
O186 C188 1.254 . S
O187 Dy180 2.664 . S
O187 Dy183 2.310 1_565 S
O187 C188 1.268 . S
C188 O186 1.254 . S
C188 O187 1.268 . S
C189 O194 1.254 . S
C189 O195 1.268 . S
O190 Dy183 2.351 . S
O190 C198 1.249 . S
O191 Dy180 2.326 1_545 S
O191 C198 1.267 . S
O192 C181 1.185 . S
O192 Dy183 2.398 . S
O193 C181 1.355 1_565 S
O193 Dy183 2.491 1_565 S
O194 Dy183 2.403 . S
O194 C189 1.254 . S
O195 Dy180 2.310 1_545 S
O195 Dy183 2.664 . S
O195 C189 1.268 . S
O196 Dy180 2.351 . S
O196 C199 1.249 . S
O197 Dy183 2.326 1_565 S
O197 C199 1.267 . S
C198 O190 1.249 . S
C198 O191 1.267 . S
C199 O196 1.249 . S
C199 O197 1.267 . S
Dy200 O204 2.398 . S
Dy200 O205 2.491 . S
Dy200 O206 2.403 . S
Dy200 O207 2.664 . S
Dy200 O211 2.326 . S
Dy200 O215 2.310 . S
Dy200 O216 2.351 . S
C201 O212 1.185 . S
C201 O213 1.355 . S
C202 O204 1.185 . S
C202 O205 1.355 . S
Dy203 O207 2.310 . S
Dy203 O210 2.351 . S
Dy203 O212 2.398 . S
Dy203 O213 2.491 . S
Dy203 O214 2.403 . S
Dy203 O215 2.664 . S
Dy203 O217 2.326 . S
O204 Dy200 2.398 . S
O204 C202 1.185 . S
O205 Dy200 2.491 . S
O205 C202 1.355 . S
O206 Dy200 2.403 . S
O206 C208 1.254 . S
O207 Dy200 2.664 . S
O207 Dy203 2.310 . S
O207 C208 1.268 . S
C208 O206 1.254 . S
C208 O207 1.268 . S
C209 O214 1.254 . S
C209 O215 1.268 . S
O210 Dy203 2.351 . S
O210 C218 1.249 . S
O211 Dy200 2.326 . S
O211 C218 1.267 . S
O212 C201 1.185 . S
O212 Dy203 2.398 . S
O213 C201 1.355 . S
O213 Dy203 2.491 . S
O214 Dy203 2.403 . S
O214 C209 1.254 . S
O215 Dy200 2.310 . S
O215 Dy203 2.664 . S
O215 C209 1.268 . S
O216 Dy200 2.351 . S
O216 C219 1.249 . S
O217 Dy203 2.326 . S
O217 C219 1.267 . S
C218 O210 1.249 . S
C218 O211 1.267 . S
C219 O216 1.249 . S
C219 O217 1.267 . S
Dy220 O224 2.398 . S
Dy220 O225 2.491 1_455 S
Dy220 O226 2.403 . S
Dy220 O227 2.664 . S
Dy220 O231 2.326 1_455 S
Dy220 O235 2.310 1_455 S
Dy220 O236 2.351 . S
C221 O232 1.185 . S
C221 O233 1.355 1_655 S
C222 O224 1.185 . S
C222 O225 1.355 1_455 S
Dy223 O227 2.310 1_655 S
Dy223 O230 2.351 . S
Dy223 O232 2.398 . S
Dy223 O233 2.491 1_655 S
Dy223 O234 2.403 . S
Dy223 O235 2.664 . S
Dy223 O237 2.326 1_655 S
O224 Dy220 2.398 . S
O224 C222 1.185 . S
O225 Dy220 2.491 1_655 S
O225 C222 1.355 1_655 S
O226 Dy220 2.403 . S
O226 C228 1.254 . S
O227 Dy220 2.664 . S
O227 Dy223 2.310 1_455 S
O227 C228 1.268 . S
C228 O226 1.254 . S
C228 O227 1.268 . S
C229 O234 1.254 . S
C229 O235 1.268 . S
O230 Dy223 2.351 . S
O230 C238 1.249 . S
O231 Dy220 2.326 1_655 S
O231 C238 1.267 . S
O232 C221 1.185 . S
O232 Dy223 2.398 . S
O233 C221 1.355 1_455 S
O233 Dy223 2.491 1_455 S
O234 Dy223 2.403 . S
O234 C229 1.254 . S
O235 Dy220 2.310 1_655 S
O235 Dy223 2.664 . S
O235 C229 1.268 . S
O236 Dy220 2.351 . S
O236 C239 1.249 . S
O237 Dy223 2.326 1_455 S
O237 C239 1.267 . S
C238 O230 1.249 . S
C238 O231 1.267 . S
C239 O236 1.249 . S
C239 O237 1.267 . S
Dy240 O244 2.398 . S
Dy240 O245 2.491 . S
Dy240 O246 2.403 . S
Dy240 O247 2.664 . S
Dy240 O251 2.326 . S
Dy240 O255 2.310 . S
Dy240 O256 2.351 . S
C241 O252 1.185 . S
C241 O253 1.355 . S
C242 O244 1.185 . S
C242 O245 1.355 . S
Dy243 O247 2.310 . S
Dy243 O250 2.351 . S
Dy243 O252 2.398 . S
Dy243 O253 2.491 . S
Dy243 O254 2.403 . S
Dy243 O255 2.664 . S
Dy243 O257 2.326 . S
O244 Dy240 2.398 . S
O244 C242 1.185 . S
O245 Dy240 2.491 . S
O245 C242 1.355 . S
O246 Dy240 2.403 . S
O246 C248 1.254 . S
O247 Dy240 2.664 . S
O247 Dy243 2.310 . S
O247 C248 1.268 . S
C248 O246 1.254 . S
C248 O247 1.268 . S
C249 O254 1.254 . S
C249 O255 1.268 . S
O250 Dy243 2.351 . S
O250 C258 1.249 . S
O251 Dy240 2.326 . S
O251 C258 1.267 . S
O252 C241 1.185 . S
O252 Dy243 2.398 . S
O253 C241 1.355 . S
O253 Dy243 2.491 . S
O254 Dy243 2.403 . S
O254 C249 1.254 . S
O255 Dy240 2.310 . S
O255 Dy243 2.664 . S
O255 C249 1.268 . S
O256 Dy240 2.351 . S
O256 C259 1.249 . S
O257 Dy243 2.326 . S
O257 C259 1.267 . S
C258 O250 1.249 . S
C258 O251 1.267 . S
C259 O256 1.249 . S
C259 O257 1.267 . S
Dy260 O264 2.398 . S
Dy260 O265 2.491 1_556 S
Dy260 O266 2.403 . S
Dy260 O267 2.664 . S
Dy260 O271 2.326 1_556 S
Dy260 O275 2.310 1_556 S
Dy260 O276 2.351 . S
C261 O272 1.185 . S
C261 O273 1.355 1_554 S
C262 O264 1.185 . S
C262 O265 1.355 1_556 S
Dy263 O267 2.310 1_554 S
Dy263 O270 2.351 . S
Dy263 O272 2.398 . S
Dy263 O273 2.491 1_554 S
Dy263 O274 2.403 . S
Dy263 O275 2.664 . S
Dy263 O277 2.326 1_554 S
O264 Dy260 2.398 . S
O264 C262 1.185 . S
O265 Dy260 2.491 1_554 S
O265 C262 1.355 1_554 S
O266 Dy260 2.403 . S
O266 C268 1.254 . S
O267 Dy260 2.664 . S
O267 Dy263 2.310 1_556 S
O267 C268 1.268 . S
C268 O266 1.254 . S
C268 O267 1.268 . S
C269 O274 1.254 . S
C269 O275 1.268 . S
O270 Dy263 2.351 . S
O270 C278 1.249 . S
O271 Dy260 2.326 1_554 S
O271 C278 1.267 . S
O272 C261 1.185 . S
O272 Dy263 2.398 . S
O273 C261 1.355 1_556 S
O273 Dy263 2.491 1_556 S
O274 Dy263 2.403 . S
O274 C269 1.254 . S
O275 Dy260 2.310 1_554 S
O275 Dy263 2.664 . S
O275 C269 1.268 . S
O276 Dy260 2.351 . S
O276 C279 1.249 . S
O277 Dy263 2.326 1_556 S
O277 C279 1.267 . S
C278 O270 1.249 . S
C278 O271 1.267 . S
C279 O276 1.249 . S
C279 O277 1.267 . S
Dy280 O284 2.398 . S
Dy280 O285 2.491 . S
Dy280 O286 2.403 . S
Dy280 O287 2.664 . S
Dy280 O291 2.326 . S
Dy280 O295 2.310 1_565 S
Dy280 O296 2.351 1_565 S
C281 O292 1.185 . S
C281 O293 1.355 . S
C282 O284 1.185 . S
C282 O285 1.355 . S
Dy283 O287 2.310 1_545 S
Dy283 O290 2.351 1_545 S
Dy283 O292 2.398 . S
Dy283 O293 2.491 . S
Dy283 O294 2.403 . S
Dy283 O295 2.664 . S
Dy283 O297 2.326 . S
O284 Dy280 2.398 . S
O284 C282 1.185 . S
O285 Dy280 2.491 . S
O285 C282 1.355 . S
O286 Dy280 2.403 . S
O286 C288 1.254 . S
O287 Dy280 2.664 . S
O287 Dy283 2.310 1_565 S
O287 C288 1.268 . S
C288 O286 1.254 . S
C288 O287 1.268 . S
C289 O294 1.254 . S
C289 O295 1.268 . S
O290 Dy283 2.351 1_565 S
O290 C298 1.249 . S
O291 Dy280 2.326 . S
O291 C298 1.267 . S
O292 C281 1.185 . S
O292 Dy283 2.398 . S
O293 C281 1.355 . S
O293 Dy283 2.491 . S
O294 Dy283 2.403 . S
O294 C289 1.254 . S
O295 Dy280 2.310 1_545 S
O295 Dy283 2.664 . S
O295 C289 1.268 . S
O296 Dy280 2.351 1_545 S
O296 C299 1.249 . S
O297 Dy283 2.326 . S
O297 C299 1.267 . S
C298 O290 1.249 . S
C298 O291 1.267 . S
C299 O296 1.249 . S
C299 O297 1.267 . S
Dy300 O304 2.398 . S
Dy300 O305 2.491 1_554 S
Dy300 O306 2.403 . S
Dy300 O307 2.664 . S
Dy300 O311 2.326 1_554 S
Dy300 O315 2.310 1_554 S
Dy300 O316 2.351 . S
C301 O312 1.185 . S
C301 O313 1.355 1_556 S
C302 O304 1.185 . S
C302 O305 1.355 1_554 S
Dy303 O307 2.310 1_556 S
Dy303 O310 2.351 . S
Dy303 O312 2.398 . S
Dy303 O313 2.491 1_556 S
Dy303 O314 2.403 . S
Dy303 O315 2.664 . S
Dy303 O317 2.326 1_556 S
O304 Dy300 2.398 . S
O304 C302 1.185 . S
O305 Dy300 2.491 1_556 S
O305 C302 1.355 1_556 S
O306 Dy300 2.403 . S
O306 C308 1.254 . S
O307 Dy300 2.664 . S
O307 Dy303 2.310 1_554 S
O307 C308 1.268 . S
C308 O306 1.254 . S
C308 O307 1.268 . S
C309 O314 1.254 . S
C309 O315 1.268 . S
O310 Dy303 2.351 . S
O310 C318 1.249 . S
O311 Dy300 2.326 1_556 S
O311 C318 1.267 . S
O312 C301 1.185 . S
O312 Dy303 2.398 . S
O313 C301 1.355 1_554 S
O313 Dy303 2.491 1_554 S
O314 Dy303 2.403 . S
O314 C309 1.254 . S
O315 Dy300 2.310 1_556 S
O315 Dy303 2.664 . S
O315 C309 1.268 . S
O316 Dy300 2.351 . S
O316 C319 1.249 . S
O317 Dy303 2.326 1_554 S
O317 C319 1.267 . S
C318 O310 1.249 . S
C318 O311 1.267 . S
C319 O316 1.249 . S
C319 O317 1.267 . S
H320 C328 0.929 . S
H321 C330 0.930 . S
H322 C332 0.930 . S
H323 C335 0.929 . S
H324 C338 0.930 . S
H325 C340 0.960 . S
H326 C340 0.960 1_655 S
H327 C340 0.960 . S
C328 H320 0.929 . S
C328 C329 1.377 . S
C328 C330 1.384 . S
C329 C328 1.377 . S
C329 C335 1.390 1_655 S
C330 H321 0.930 . S
C330 C328 1.384 . S
C330 C331 1.372 . S
C331 C330 1.372 . S
C331 C332 1.400 1_655 S
C331 C336 1.490 . S
C332 H322 0.930 . S
C332 C331 1.400 1_455 S
C332 C335 1.386 . S
H333 C349 0.930 . S
H334 C350 0.931 . S
C335 H323 0.929 . S
C335 C329 1.390 1_455 S
C335 C332 1.386 . S
C336 C331 1.490 . S
C336 C338 1.395 . S
C336 C339 1.403 . S
H337 C343 0.930 1_455 S
C338 H324 0.930 . S
C338 C336 1.395 . S
C338 C341 1.403 . S
C339 C336 1.403 . S
C339 C340 1.524 1_655 S
C339 C343 1.400 . S
C340 H325 0.960 . S
C340 H326 0.960 1_455 S
C340 H327 0.960 . S
C340 C339 1.524 1_455 S
C341 C338 1.403 . S
C341 C342 1.392 . S
C341 C345 1.495 . S
C342 C341 1.392 . S
C342 C343 1.385 . S
C342 C344 1.478 . S
C343 H337 0.930 1_655 S
C343 C339 1.400 . S
C343 C342 1.385 . S
C344 C342 1.478 . S
C344 C346 1.381 . S
C344 C350 1.383 1_655 S
C345 C341 1.495 . S
C345 H351 0.959 . S
C345 H352 0.961 . S
C345 H353 0.960 . S
C346 C344 1.381 . S
C346 C347 1.394 . S
C346 H354 0.930 . S
C347 C346 1.394 . S
C347 C348 1.383 . S
C347 H355 0.929 . S
C348 C347 1.383 . S
C348 C349 1.377 1_655 S
C349 H333 0.930 . S
C349 C348 1.377 1_455 S
C349 C350 1.379 . S
C350 H334 0.931 . S
C350 C344 1.383 1_455 S
C350 C349 1.379 . S
H351 C345 0.959 . S
H352 C345 0.961 . S
H353 C345 0.960 . S
H354 C346 0.930 . S
H355 C347 0.929 . S
H356 C364 0.929 . S
H357 C366 0.930 . S
H358 C368 0.930 . S
H359 C371 0.929 . S
H360 C374 0.930 . S
H361 C376 0.960 . S
H362 C376 0.960 . S
H363 C376 0.960 . S
C364 H356 0.929 . S
C364 C365 1.377 . S
C364 C366 1.384 . S
C365 C364 1.377 . S
C365 C371 1.390 . S
C366 H357 0.930 . S
C366 C364 1.384 . S
C366 C367 1.372 . S
C367 C366 1.372 . S
C367 C368 1.400 . S
C367 C372 1.490 . S
C368 H358 0.930 . S
C368 C367 1.400 . S
C368 C371 1.386 . S
H369 C385 0.930 . S
H370 C386 0.931 . S
C371 H359 0.929 . S
C371 C365 1.390 . S
C371 C368 1.386 . S
C372 C367 1.490 . S
C372 C374 1.395 . S
C372 C375 1.403 . S
H373 C379 0.930 . S
C374 H360 0.930 . S
C374 C372 1.395 . S
C374 C377 1.403 . S
C375 C372 1.403 . S
C375 C376 1.524 . S
C375 C379 1.400 . S
C376 H361 0.960 . S
C376 H362 0.960 . S
C376 H363 0.960 . S
C376 C375 1.524 . S
C377 C374 1.403 . S
C377 C378 1.392 . S
C377 C381 1.495 . S
C378 C377 1.392 . S
C378 C379 1.385 . S
C378 C380 1.478 . S
C379 H373 0.930 . S
C379 C375 1.400 . S
C379 C378 1.385 . S
C380 C378 1.478 . S
C380 C382 1.381 . S
C380 C386 1.383 . S
C381 C377 1.495 . S
C381 H387 0.959 . S
C381 H388 0.961 . S
C381 H389 0.960 . S
C382 C380 1.381 . S
C382 C383 1.394 . S
C382 H390 0.930 . S
C383 C382 1.394 . S
C383 C384 1.383 . S
C383 H391 0.929 . S
C384 C383 1.383 . S
C384 C385 1.377 . S
C385 H369 0.930 . S
C385 C384 1.377 . S
C385 C386 1.379 . S
C386 H370 0.931 . S
C386 C380 1.383 . S
C386 C385 1.379 . S
H387 C381 0.959 . S
H388 C381 0.961 . S
H389 C381 0.960 . S
H390 C382 0.930 . S
H391 C383 0.929 . S
H392 C400 0.929 . S
H393 C402 0.930 . S
H394 C404 0.930 . S
H395 C407 0.929 . S
H396 C410 0.930 . S
H397 C412 0.960 . S
H398 C412 0.960 . S
H399 C412 0.960 . S
C400 H392 0.929 . S
C400 C401 1.377 . S
C400 C402 1.384 . S
C401 C400 1.377 . S
C401 C407 1.390 . S
C402 H393 0.930 . S
C402 C400 1.384 . S
C402 C403 1.372 . S
C403 C402 1.372 . S
C403 C404 1.400 . S
C403 C408 1.490 . S
C404 H394 0.930 . S
C404 C403 1.400 . S
C404 C407 1.386 . S
H405 C421 0.930 . S
H406 C422 0.931 . S
C407 H395 0.929 . S
C407 C401 1.390 . S
C407 C404 1.386 . S
C408 C403 1.490 . S
C408 C410 1.395 . S
C408 C411 1.403 . S
H409 C415 0.930 . S
C410 H396 0.930 . S
C410 C408 1.395 . S
C410 C413 1.403 . S
C411 C408 1.403 . S
C411 C412 1.524 . S
C411 C415 1.400 . S
C412 H397 0.960 . S
C412 H398 0.960 . S
C412 H399 0.960 . S
C412 C411 1.524 . S
C413 C410 1.403 . S
C413 C414 1.392 . S
C413 C417 1.495 . S
C414 C413 1.392 . S
C414 C415 1.385 . S
C414 C416 1.478 . S
C415 H409 0.930 . S
C415 C411 1.400 . S
C415 C414 1.385 . S
C416 C414 1.478 . S
C416 C418 1.381 . S
C416 C422 1.383 . S
C417 C413 1.495 . S
C417 H423 0.959 . S
C417 H424 0.961 . S
C417 H425 0.960 . S
C418 C416 1.381 . S
C418 C419 1.394 . S
C418 H426 0.930 . S
C419 C418 1.394 . S
C419 C420 1.383 . S
C419 H427 0.929 . S
C420 C419 1.383 . S
C420 C421 1.377 . S
C421 H405 0.930 . S
C421 C420 1.377 . S
C421 C422 1.379 . S
C422 H406 0.931 . S
C422 C416 1.383 . S
C422 C421 1.379 . S
H423 C417 0.959 . S
H424 C417 0.961 . S
H425 C417 0.960 . S
H426 C418 0.930 . S
H427 C419 0.929 . S
H428 C436 0.934 . S
H429 C438 0.930 . S
H430 C440 0.930 . S
H431 C443 0.929 . S
H432 C446 0.930 . S
H433 C448 0.960 . S
H434 C448 0.960 . S
H435 C448 0.960 . S
C436 H428 0.934 . S
C436 C437 1.372 1_565 S
C436 C438 1.385 . S
C437 C436 1.372 1_545 S
C437 C443 1.390 . S
C438 H429 0.930 . S
C438 C436 1.385 . S
C438 C439 1.372 1_565 S
C439 C438 1.372 1_545 S
C439 C440 1.400 . S
C439 C444 1.490 . S
C440 H430 0.930 . S
C440 C439 1.400 . S
C440 C443 1.386 . S
H441 C457 0.930 . S
H442 C458 0.931 . S
C443 H431 0.929 . S
C443 C437 1.390 . S
C443 C440 1.386 . S
C444 C439 1.490 . S
C444 C446 1.395 1_545 S
C444 C447 1.403 . S
H445 C451 0.930 . S
C446 H432 0.930 . S
C446 C444 1.395 1_565 S
C446 C449 1.403 . S
C447 C444 1.403 . S
C447 C448 1.524 . S
C447 C451 1.400 . S
C448 H433 0.960 . S
C448 H434 0.960 . S
C448 H435 0.960 . S
C448 C447 1.524 . S
C449 C446 1.403 . S
C449 C450 1.392 1_565 S
C449 C453 1.495 . S
C450 C449 1.392 1_545 S
C450 C451 1.385 . S
C450 C452 1.478 . S
C451 H445 0.930 . S
C451 C447 1.400 . S
C451 C450 1.385 . S
C452 C450 1.478 . S
C452 C454 1.381 1_545 S
C452 C458 1.383 . S
C453 C449 1.495 . S
C453 H459 0.959 . S
C453 H460 0.961 . S
C453 H461 0.960 . S
C454 C452 1.381 1_565 S
C454 C455 1.394 . S
C454 H462 0.930 . S
C455 C454 1.394 . S
C455 C456 1.383 1_565 S
C455 H463 0.929 . S
C456 C455 1.383 1_545 S
C456 C457 1.377 . S
C457 H441 0.930 . S
C457 C456 1.377 . S
C457 C458 1.379 . S
C458 H442 0.931 . S
C458 C452 1.383 . S
C458 C457 1.379 . S
H459 C453 0.959 . S
H460 C453 0.961 . S
H461 C453 0.960 . S
H462 C454 0.930 . S
H463 C455 0.929 . S
H464 C472 0.929 . S
H465 C474 0.930 . S
H466 C476 0.930 . S
H467 C479 0.929 . S
H468 C482 0.930 . S
H469 C484 0.960 . S
H470 C484 0.960 . S
H471 C484 0.960 . S
C472 H464 0.929 . S
C472 C473 1.377 . S
C472 C474 1.384 . S
C473 C472 1.377 . S
C473 C479 1.390 . S
C474 H465 0.930 . S
C474 C472 1.384 . S
C474 C475 1.372 . S
C475 C474 1.372 . S
C475 C476 1.400 . S
C475 C480 1.490 . S
C476 H466 0.930 . S
C476 C475 1.400 . S
C476 C479 1.386 . S
H477 C493 0.930 . S
H478 C494 0.931 . S
C479 H467 0.929 . S
C479 C473 1.390 . S
C479 C476 1.386 . S
C480 C475 1.490 . S
C480 C482 1.395 . S
C480 C483 1.403 1_565 S
H481 C487 0.930 . S
C482 H468 0.930 . S
C482 C480 1.395 . S
C482 C485 1.403 . S
C483 C480 1.403 1_545 S
C483 C484 1.524 . S
C483 C487 1.400 . S
C484 H469 0.960 . S
C484 H470 0.960 . S
C484 H471 0.960 . S
C484 C483 1.524 . S
C485 C482 1.403 . S
C485 C486 1.392 . S
C485 C489 1.495 . S
C486 C485 1.392 . S
C486 C487 1.385 1_565 S
C486 C488 1.478 . S
C487 H481 0.930 . S
C487 C483 1.400 . S
C487 C486 1.385 1_545 S
C488 C486 1.478 . S
C488 C490 1.381 . S
C488 C494 1.383 . S
C489 C485 1.495 . S
C489 H495 0.959 . S
C489 H496 0.961 . S
C489 H497 0.960 . S
C490 C488 1.381 . S
C490 C491 1.394 . S
C490 H498 0.930 . S
C491 C490 1.394 . S
C491 C492 1.383 . S
C491 H499 0.929 . S
C492 C491 1.383 . S
C492 C493 1.377 . S
C493 H477 0.930 . S
C493 C492 1.377 . S
C493 C494 1.379 . S
C494 H478 0.931 . S
C494 C488 1.383 . S
C494 C493 1.379 . S
H495 C489 0.959 . S
H496 C489 0.961 . S
H497 C489 0.960 . S
H498 C490 0.930 . S
H499 C491 0.929 . S
H500 C508 0.929 . S
H501 C510 0.930 . S
H502 C512 0.930 1_655 S
H503 C515 0.929 1_655 S
H504 C518 0.930 . S
H505 C520 0.960 . S
H506 C520 0.960 . S
H507 C520 0.960 . S
C508 H500 0.929 . S
C508 C509 1.377 . S
C508 C510 1.384 . S
C509 C508 1.377 . S
C509 C515 1.390 . S
C510 H501 0.930 . S
C510 C508 1.384 . S
C510 C511 1.372 . S
C511 C510 1.372 . S
C511 C512 1.400 . S
C511 C516 1.490 . S
C512 H502 0.930 1_455 S
C512 C511 1.400 . S
C512 C515 1.386 . S
H513 C529 0.930 . S
H514 C530 0.931 . S
C515 H503 0.929 1_455 S
C515 C509 1.390 . S
C515 C512 1.386 . S
C516 C511 1.490 . S
C516 C518 1.395 1_455 S
C516 C519 1.403 . S
H517 C523 0.930 . S
C518 H504 0.930 . S
C518 C516 1.395 1_655 S
C518 C521 1.403 . S
C519 C516 1.403 . S
C519 C520 1.524 . S
C519 C523 1.400 . S
C520 H505 0.960 . S
C520 H506 0.960 . S
C520 H507 0.960 . S
C520 C519 1.524 . S
C521 C518 1.403 . S
C521 C522 1.392 1_655 S
C521 C525 1.495 . S
C522 C521 1.392 1_455 S
C522 C523 1.385 . S
C522 C524 1.478 . S
C523 H517 0.930 . S
C523 C519 1.400 . S
C523 C522 1.385 . S
C524 C522 1.478 . S
C524 C526 1.381 . S
C524 C530 1.383 1_455 S
C525 C521 1.495 . S
C525 H531 0.959 . S
C525 H532 0.961 . S
C525 H533 0.960 . S
C526 C524 1.381 . S
C526 C527 1.394 . S
C526 H534 0.930 . S
C527 C526 1.394 . S
C527 C528 1.383 . S
C527 H535 0.929 . S
C528 C527 1.383 . S
C528 C529 1.377 1_455 S
C529 H513 0.930 . S
C529 C528 1.377 1_655 S
C529 C530 1.379 . S
C530 H514 0.931 . S
C530 C524 1.383 1_655 S
C530 C529 1.379 . S
H531 C525 0.959 . S
H532 C525 0.961 . S
H533 C525 0.960 . S
H534 C526 0.930 . S
H535 C527 0.929 . S
H536 C544 0.929 . S
H537 C546 0.930 . S
H538 C548 0.930 . S
H539 C551 0.929 . S
H540 C554 0.930 . S
H541 C556 0.960 . S
H542 C556 0.960 . S
H543 C556 0.960 . S
C544 H536 0.929 . S
C544 C545 1.377 . S
C544 C546 1.384 . S
C545 C544 1.377 . S
C545 C551 1.390 . S
C546 H537 0.930 . S
C546 C544 1.384 . S
C546 C547 1.372 . S
C547 C546 1.372 . S
C547 C548 1.400 . S
C547 C552 1.490 . S
C548 H538 0.930 . S
C548 C547 1.400 . S
C548 C551 1.386 . S
H549 C565 0.930 . S
H550 C566 0.931 . S
C551 H539 0.929 . S
C551 C545 1.390 . S
C551 C548 1.386 . S
C552 C547 1.490 . S
C552 C554 1.395 . S
C552 C555 1.403 . S
H553 C559 0.930 . S
C554 H540 0.930 . S
C554 C552 1.395 . S
C554 C557 1.403 . S
C555 C552 1.403 . S
C555 C556 1.524 . S
C555 C559 1.400 . S
C556 H541 0.960 . S
C556 H542 0.960 . S
C556 H543 0.960 . S
C556 C555 1.524 . S
C557 C554 1.403 . S
C557 C558 1.392 . S
C557 C561 1.495 . S
C558 C557 1.392 . S
C558 C559 1.385 . S
C558 C560 1.478 . S
C559 H553 0.930 . S
C559 C555 1.400 . S
C559 C558 1.385 . S
C560 C558 1.478 . S
C560 C562 1.381 . S
C560 C566 1.383 . S
C561 C557 1.495 . S
C561 H567 0.959 . S
C561 H568 0.961 . S
C561 H569 0.960 . S
C562 C560 1.381 . S
C562 C563 1.394 . S
C562 H570 0.930 . S
C563 C562 1.394 . S
C563 C564 1.383 . S
C563 H571 0.929 . S
C564 C563 1.383 . S
C564 C565 1.377 . S
C565 H549 0.930 . S
C565 C564 1.377 . S
C565 C566 1.379 . S
C566 H550 0.931 . S
C566 C560 1.383 . S
C566 C565 1.379 . S
H567 C561 0.959 . S
H568 C561 0.961 . S
H569 C561 0.960 . S
H570 C562 0.930 . S
H571 C563 0.929 . S
H572 C580 0.929 . S
H573 C582 0.930 . S
H574 C584 0.930 . S
H575 C587 0.929 . S
H576 C590 0.930 . S
H577 C592 0.960 . S
H578 C592 0.960 . S
H579 C592 0.960 . S
C580 H572 0.929 . S
C580 C581 1.377 . S
C580 C582 1.384 . S
C581 C580 1.377 . S
C581 C587 1.390 . S
C582 H573 0.930 . S
C582 C580 1.384 . S
C582 C583 1.372 . S
C583 C582 1.372 . S
C583 C584 1.400 . S
C583 C588 1.490 . S
C584 H574 0.930 . S
C584 C583 1.400 . S
C584 C587 1.386 . S
H585 C601 0.930 . S
H586 C602 0.931 . S
C587 H575 0.929 . S
C587 C581 1.390 . S
C587 C584 1.386 . S
C588 C583 1.490 . S
C588 C590 1.395 . S
C588 C591 1.403 . S
H589 C595 0.930 . S
C590 H576 0.930 . S
C590 C588 1.395 . S
C590 C593 1.403 . S
C591 C588 1.403 . S
C591 C592 1.524 . S
C591 C595 1.400 . S
C592 H577 0.960 . S
C592 H578 0.960 . S
C592 H579 0.960 . S
C592 C591 1.524 . S
C593 C590 1.403 . S
C593 C594 1.392 . S
C593 C597 1.495 . S
C594 C593 1.392 . S
C594 C595 1.385 . S
C594 C596 1.478 . S
C595 H589 0.930 . S
C595 C591 1.400 . S
C595 C594 1.385 . S
C596 C594 1.478 . S
C596 C598 1.381 . S
C596 C602 1.383 . S
C597 C593 1.495 . S
C597 H603 0.959 . S
C597 H604 0.961 . S
C597 H605 0.960 . S
C598 C596 1.381 . S
C598 C599 1.394 . S
C598 H606 0.930 . S
C599 C598 1.394 . S
C599 C600 1.383 . S
C599 H607 0.929 . S
C600 C599 1.383 . S
C600 C601 1.377 . S
C601 H585 0.930 . S
C601 C600 1.377 . S
C601 C602 1.379 . S
C602 H586 0.931 . S
C602 C596 1.383 . S
C602 C601 1.379 . S
H603 C597 0.959 . S
H604 C597 0.961 . S
H605 C597 0.960 . S
H606 C598 0.930 . S
H607 C599 0.929 . S
H608 C616 0.929 . S
H609 C618 0.930 . S
H610 C620 0.930 . S
H611 C623 0.929 . S
H612 C626 0.930 . S
H613 C628 0.960 . S
H614 C628 0.960 . S
H615 C628 0.960 . S
C616 H608 0.929 . S
C616 C617 1.377 . S
C616 C618 1.384 . S
C617 C616 1.377 . S
C617 C623 1.390 . S
C618 H609 0.930 . S
C618 C616 1.384 . S
C618 C619 1.372 . S
C619 C618 1.372 . S
C619 C620 1.400 . S
C619 C624 1.490 . S
C620 H610 0.930 . S
C620 C619 1.400 . S
C620 C623 1.386 . S
H621 C637 0.930 . S
H622 C638 0.931 . S
C623 H611 0.929 . S
C623 C617 1.390 . S
C623 C620 1.386 . S
C624 C619 1.490 . S
C624 C626 1.395 . S
C624 C627 1.403 . S
H625 C631 0.930 . S
C626 H612 0.930 . S
C626 C624 1.395 . S
C626 C629 1.403 . S
C627 C624 1.403 . S
C627 C628 1.524 . S
C627 C631 1.400 . S
C628 H613 0.960 . S
C628 H614 0.960 . S
C628 H615 0.960 . S
C628 C627 1.524 . S
C629 C626 1.403 . S
C629 C630 1.392 . S
C629 C633 1.495 . S
C630 C629 1.392 . S
C630 C631 1.385 . S
C630 C632 1.478 . S
C631 H625 0.930 . S
C631 C627 1.400 . S
C631 C630 1.385 . S
C632 C630 1.478 . S
C632 C634 1.381 . S
C632 C638 1.383 . S
C633 C629 1.495 . S
C633 H639 0.959 . S
C633 H640 0.961 . S
C633 H641 0.960 . S
C634 C632 1.381 . S
C634 C635 1.394 . S
C634 H642 0.930 . S
C635 C634 1.394 . S
C635 C636 1.383 . S
C635 H643 0.929 . S
C636 C635 1.383 . S
C636 C637 1.377 . S
C637 H621 0.930 . S
C637 C636 1.377 . S
C637 C638 1.379 . S
C638 H622 0.931 . S
C638 C632 1.383 . S
C638 C637 1.379 . S
H639 C633 0.959 . S
H640 C633 0.961 . S
H641 C633 0.960 . S
H642 C634 0.930 . S
H643 C635 0.929 . S
H644 C652 0.929 . S
H645 C654 0.930 . S
H646 C656 0.930 . S
H647 C659 0.929 . S
H648 C662 0.930 . S
H649 C664 0.960 . S
H650 C664 0.960 . S
H651 C664 0.960 . S
C652 H644 0.929 . S
C652 C653 1.377 . S
C652 C654 1.384 . S
C653 C652 1.377 . S
C653 C659 1.390 . S
C654 H645 0.930 . S
C654 C652 1.384 . S
C654 C655 1.372 . S
C655 C654 1.372 . S
C655 C656 1.400 . S
C655 C660 1.490 . S
C656 H646 0.930 . S
C656 C655 1.400 . S
C656 C659 1.386 . S
H657 C673 0.930 . S
H658 C674 0.931 . S
C659 H647 0.929 . S
C659 C653 1.390 . S
C659 C656 1.386 . S
C660 C655 1.490 . S
C660 C662 1.395 . S
C660 C663 1.403 . S
H661 C667 0.930 . S
C662 H648 0.930 . S
C662 C660 1.395 . S
C662 C665 1.403 . S
C663 C660 1.403 . S
C663 C664 1.524 . S
C663 C667 1.400 . S
C664 H649 0.960 . S
C664 H650 0.960 . S
C664 H651 0.960 . S
C664 C663 1.524 . S
C665 C662 1.403 . S
C665 C666 1.392 . S
C665 C669 1.495 . S
C666 C665 1.392 . S
C666 C667 1.385 . S
C666 C668 1.478 . S
C667 H661 0.930 . S
C667 C663 1.400 . S
C667 C666 1.385 . S
C668 C666 1.478 . S
C668 C670 1.381 . S
C668 C674 1.383 . S
C669 C665 1.495 . S
C669 H675 0.959 . S
C669 H676 0.961 . S
C669 H677 0.960 . S
C670 C668 1.381 . S
C670 C671 1.394 . S
C670 H678 0.930 . S
C671 C670 1.394 . S
C671 C672 1.383 . S
C671 H679 0.929 . S
C672 C671 1.383 . S
C672 C673 1.377 . S
C673 H657 0.930 . S
C673 C672 1.377 . S
C673 C674 1.379 . S
C674 H658 0.931 . S
C674 C668 1.383 . S
C674 C673 1.379 . S
H675 C669 0.959 . S
H676 C669 0.961 . S
H677 C669 0.960 . S
H678 C670 0.930 . S
H679 C671 0.929 . S
H680 C688 0.929 . S
H681 C690 0.930 . S
H682 C692 0.930 . S
H683 C695 0.929 . S
H684 C698 0.930 . S
H685 C700 0.960 . S
H686 C700 0.960 . S
H687 C700 0.960 . S
C688 H680 0.929 . S
C688 C689 1.377 . S
C688 C690 1.384 . S
C689 C688 1.377 . S
C689 C695 1.390 . S
C690 H681 0.930 . S
C690 C688 1.384 . S
C690 C691 1.372 . S
C691 C690 1.372 . S
C691 C692 1.400 . S
C691 C696 1.490 . S
C692 H682 0.930 . S
C692 C691 1.400 . S
C692 C695 1.386 . S
H693 C709 0.930 . S
H694 C710 0.931 . S
C695 H683 0.929 . S
C695 C689 1.390 . S
C695 C692 1.386 . S
C696 C691 1.490 . S
C696 C698 1.395 1_565 S
C696 C699 1.403 . S
H697 C703 0.930 . S
C698 H684 0.930 . S
C698 C696 1.395 1_545 S
C698 C701 1.403 . S
C699 C696 1.403 . S
C699 C700 1.524 . S
C699 C703 1.400 . S
C700 H685 0.960 . S
C700 H686 0.960 . S
C700 H687 0.960 . S
C700 C699 1.524 . S
C701 C698 1.403 . S
C701 C702 1.392 1_545 S
C701 C705 1.495 . S
C702 C701 1.392 1_565 S
C702 C703 1.385 . S
C702 C704 1.478 . S
C703 H697 0.930 . S
C703 C699 1.400 . S
C703 C702 1.385 . S
C704 C702 1.478 . S
C704 C706 1.381 . S
C704 C710 1.383 . S
C705 C701 1.495 . S
C705 H711 0.959 . S
C705 H712 0.961 . S
C705 H713 0.960 . S
C706 C704 1.381 . S
C706 C707 1.394 . S
C706 H714 0.930 . S
C707 C706 1.394 . S
C707 C708 1.383 . S
C707 H715 0.929 . S
C708 C707 1.383 . S
C708 C709 1.377 . S
C709 H693 0.930 . S
C709 C708 1.377 . S
C709 C710 1.379 . S
C710 H694 0.931 . S
C710 C704 1.383 . S
C710 C709 1.379 . S
H711 C705 0.959 . S
H712 C705 0.961 . S
H713 C705 0.960 . S
H714 C706 0.930 . S
H715 C707 0.929 . S
H716 C724 0.929 . S
H717 C726 0.930 . S
H718 C728 0.930 . S
H719 C731 0.929 . S
H720 C734 0.928 1_655 S
H721 C736 0.960 . S
H722 C736 0.960 . S
H723 C736 0.960 . S
C724 H716 0.929 . S
C724 C725 1.377 1_655 S
C724 C726 1.384 . S
C725 C724 1.377 1_455 S
C725 C731 1.390 . S
C726 H717 0.930 . S
C726 C724 1.384 . S
C726 C727 1.372 1_655 S
C727 C726 1.372 1_455 S
C727 C728 1.400 . S
C727 C732 1.490 . S
C728 H718 0.930 . S
C728 C727 1.400 . S
C728 C731 1.386 . S
H729 C745 0.930 . S
H730 C746 0.931 . S
C731 H719 0.929 . S
C731 C725 1.390 . S
C731 C728 1.386 . S
C732 C727 1.490 . S
C732 C734 1.398 . S
C732 C735 1.403 . S
H733 C739 0.930 . S
C734 H720 0.928 1_455 S
C734 C732 1.398 . S
C734 C737 1.398 1_455 S
C735 C732 1.403 . S
C735 C736 1.524 . S
C735 C739 1.400 . S
C736 H721 0.960 . S
C736 H722 0.960 . S
C736 H723 0.960 . S
C736 C735 1.524 . S
C737 C734 1.398 1_655 S
C737 C738 1.387 1_655 S
C737 C741 1.505 . S
C738 C737 1.387 1_455 S
C738 C739 1.385 . S
C738 C740 1.478 . S
C739 H733 0.930 . S
C739 C735 1.400 . S
C739 C738 1.385 . S
C740 C738 1.478 . S
C740 C742 1.381 1_455 S
C740 C746 1.383 . S
C741 C737 1.505 . S
C741 H747 0.959 . S
C741 H748 0.961 1_655 S
C741 H749 0.960 . S
C742 C740 1.381 1_655 S
C742 C743 1.394 . S
C742 H750 0.930 . S
C743 C742 1.394 . S
C743 C744 1.383 1_655 S
C743 H751 0.929 . S
C744 C743 1.383 1_455 S
C744 C745 1.377 . S
C745 H729 0.930 . S
C745 C744 1.377 . S
C745 C746 1.379 . S
C746 H730 0.931 . S
C746 C740 1.383 . S
C746 C745 1.379 . S
H747 C741 0.959 . S
H748 C741 0.961 1_455 S
H749 C741 0.960 . S
H750 C742 0.930 . S
H751 C743 0.929 . S
H752 C760 0.929 . S
H753 C762 0.930 . S
H754 C764 0.930 . S
H755 C767 0.929 . S
H756 C770 0.930 . S
H757 C772 0.960 . S
H758 C772 0.960 . S
H759 C772 0.960 . S
C760 H752 0.929 . S
C760 C761 1.377 . S
C760 C762 1.384 . S
C761 C760 1.377 . S
C761 C767 1.390 1_556 S
C762 H753 0.930 . S
C762 C760 1.384 . S
C762 C763 1.372 . S
C763 C762 1.372 . S
C763 C764 1.400 1_556 S
C763 C768 1.490 . S
C764 H754 0.930 . S
C764 C763 1.400 1_554 S
C764 C767 1.386 . S
H765 C781 0.930 . S
H766 C782 0.931 . S
C767 H755 0.929 . S
C767 C761 1.390 1_554 S
C767 C764 1.386 . S
C768 C763 1.490 . S
C768 C770 1.395 . S
C768 C771 1.422 . S
H769 C775 0.930 1_554 S
C770 H756 0.930 . S
C770 C768 1.395 . S
C770 C773 1.403 . S
C771 C768 1.422 . S
C771 C772 1.508 1_556 S
C771 C775 1.398 . S
C772 H757 0.960 . S
C772 H758 0.960 . S
C772 H759 0.960 . S
C772 C771 1.508 1_554 S
C773 C770 1.403 . S
C773 C774 1.392 . S
C773 C777 1.495 . S
C774 C773 1.392 . S
C774 C775 1.385 . S
C774 C776 1.478 . S
C775 H769 0.930 1_556 S
C775 C771 1.398 . S
C775 C774 1.385 . S
C776 C774 1.478 . S
C776 C778 1.381 . S
C776 C782 1.383 1_556 S
C777 C773 1.495 . S
C777 H783 0.959 . S
C777 H784 0.961 . S
C777 H785 0.960 . S
C778 C776 1.381 . S
C778 C779 1.394 . S
C778 H786 0.930 . S
C779 C778 1.394 . S
C779 C780 1.383 . S
C779 H787 0.929 . S
C780 C779 1.383 . S
C780 C781 1.377 1_556 S
C781 H765 0.930 . S
C781 C780 1.377 1_554 S
C781 C782 1.379 . S
C782 H766 0.931 . S
C782 C776 1.383 1_554 S
C782 C781 1.379 . S
H783 C777 0.959 . S
H784 C777 0.961 . S
H785 C777 0.960 . S
H786 C778 0.930 . S
H787 C779 0.929 . S
H788 C796 0.929 . S
H789 C798 0.930 . S
H790 C800 0.930 . S
H791 C803 0.929 . S
H792 C806 0.930 . S
H793 C808 0.960 . S
H794 C808 0.960 . S
H795 C808 0.960 . S
C796 H788 0.929 . S
C796 C797 1.377 . S
C796 C798 1.384 . S
C797 C796 1.377 . S
C797 C803 1.390 . S
C798 H789 0.930 . S
C798 C796 1.384 . S
C798 C799 1.372 . S
C799 C798 1.372 . S
C799 C800 1.400 . S
C799 C804 1.490 . S
C800 H790 0.930 . S
C800 C799 1.400 . S
C800 C803 1.386 . S
H801 C817 0.930 . S
H802 C818 0.931 . S
C803 H791 0.929 . S
C803 C797 1.390 . S
C803 C800 1.386 . S
C804 C799 1.490 . S
C804 C806 1.395 . S
C804 C807 1.403 . S
H805 C811 0.930 . S
C806 H792 0.930 . S
C806 C804 1.395 . S
C806 C809 1.403 . S
C807 C804 1.403 . S
C807 C808 1.524 . S
C807 C811 1.400 . S
C808 H793 0.960 . S
C808 H794 0.960 . S
C808 H795 0.960 . S
C808 C807 1.524 . S
C809 C806 1.403 . S
C809 C810 1.392 . S
C809 C813 1.495 . S
C810 C809 1.392 . S
C810 C811 1.385 . S
C810 C812 1.478 . S
C811 H805 0.930 . S
C811 C807 1.400 . S
C811 C810 1.385 . S
C812 C810 1.478 . S
C812 C814 1.381 . S
C812 C818 1.383 . S
C813 C809 1.495 . S
C813 H819 0.959 . S
C813 H820 0.961 . S
C813 H821 0.960 . S
C814 C812 1.381 . S
C814 C815 1.394 . S
C814 H822 0.930 . S
C815 C814 1.394 . S
C815 C816 1.383 . S
C815 H823 0.929 . S
C816 C815 1.383 . S
C816 C817 1.377 . S
C817 H801 0.930 . S
C817 C816 1.377 . S
C817 C818 1.379 . S
C818 H802 0.931 . S
C818 C812 1.383 . S
C818 C817 1.379 . S
H819 C813 0.959 . S
H820 C813 0.961 . S
H821 C813 0.960 . S
H822 C814 0.930 . S
H823 C815 0.929 . S
H824 C832 0.929 . S
H825 C834 0.930 . S
H826 C836 0.930 . S
H827 C839 0.929 . S
H828 C842 0.930 . S
H829 C844 0.960 . S
H830 C844 0.960 . S
H831 C844 0.960 . S
C832 H824 0.929 . S
C832 C833 1.377 . S
C832 C834 1.384 . S
C833 C832 1.377 . S
C833 C839 1.390 . S
C834 H825 0.930 . S
C834 C832 1.384 . S
C834 C835 1.372 . S
C835 C834 1.372 . S
C835 C836 1.400 . S
C835 C840 1.490 . S
C836 H826 0.930 . S
C836 C835 1.400 . S
C836 C839 1.386 . S
H837 C853 0.930 . S
H838 C854 0.931 . S
C839 H827 0.929 . S
C839 C833 1.390 . S
C839 C836 1.386 . S
C840 C835 1.490 . S
C840 C842 1.395 . S
C840 C843 1.403 . S
H841 C847 0.930 . S
C842 H828 0.930 . S
C842 C840 1.395 . S
C842 C845 1.403 . S
C843 C840 1.403 . S
C843 C844 1.524 . S
C843 C847 1.400 . S
C844 H829 0.960 . S
C844 H830 0.960 . S
C844 H831 0.960 . S
C844 C843 1.524 . S
C845 C842 1.403 . S
C845 C846 1.392 . S
C845 C849 1.495 . S
C846 C845 1.392 . S
C846 C847 1.385 . S
C846 C848 1.478 . S
C847 H841 0.930 . S
C847 C843 1.400 . S
C847 C846 1.385 . S
C848 C846 1.478 . S
C848 C850 1.381 . S
C848 C854 1.383 . S
C849 C845 1.495 . S
C849 H855 0.959 . S
C849 H856 0.961 . S
C849 H857 0.960 . S
C850 C848 1.381 . S
C850 C851 1.394 . S
C850 H858 0.930 . S
C851 C850 1.394 . S
C851 C852 1.383 . S
C851 H859 0.929 . S
C852 C851 1.383 . S
C852 C853 1.377 . S
C853 H837 0.930 . S
C853 C852 1.377 . S
C853 C854 1.379 . S
C854 H838 0.931 . S
C854 C848 1.383 . S
C854 C853 1.379 . S
H855 C849 0.959 . S
H856 C849 0.961 . S
H857 C849 0.960 . S
H858 C850 0.930 . S
H859 C851 0.929 . S
H860 C868 0.929 . S
H861 C870 0.930 . S
H862 C872 0.930 . S
H863 C875 0.929 . S
H864 C878 0.930 . S
H865 C880 0.960 . S
H866 C880 0.960 . S
H867 C880 0.960 . S
C868 H860 0.929 . S
C868 C869 1.377 . S
C868 C870 1.384 . S
C869 C868 1.377 . S
C869 C875 1.390 . S
C870 H861 0.930 . S
C870 C868 1.384 . S
C870 C871 1.372 . S
C871 C870 1.372 . S
C871 C872 1.400 . S
C871 C876 1.490 . S
C872 H862 0.930 . S
C872 C871 1.400 . S
C872 C875 1.386 . S
H873 C889 0.930 . S
H874 C890 0.931 . S
C875 H863 0.929 . S
C875 C869 1.390 . S
C875 C872 1.386 . S
C876 C871 1.490 . S
C876 C878 1.395 . S
C876 C879 1.403 . S
H877 C883 0.930 . S
C878 H864 0.930 . S
C878 C876 1.395 . S
C878 C881 1.403 . S
C879 C876 1.403 . S
C879 C880 1.524 . S
C879 C883 1.400 . S
C880 H865 0.960 . S
C880 H866 0.960 . S
C880 H867 0.960 . S
C880 C879 1.524 . S
C881 C878 1.403 . S
C881 C882 1.392 . S
C881 C885 1.495 . S
C882 C881 1.392 . S
C882 C883 1.385 . S
C882 C884 1.478 . S
C883 H877 0.930 . S
C883 C879 1.400 . S
C883 C882 1.385 . S
C884 C882 1.478 . S
C884 C886 1.381 . S
C884 C890 1.383 . S
C885 C881 1.495 . S
C885 H891 0.959 . S
C885 H892 0.961 . S
C885 H893 0.960 . S
C886 C884 1.381 . S
C886 C887 1.394 . S
C886 H894 0.930 . S
C887 C886 1.394 . S
C887 C888 1.383 . S
C887 H895 0.929 . S
C888 C887 1.383 . S
C888 C889 1.377 . S
C889 H873 0.930 . S
C889 C888 1.377 . S
C889 C890 1.379 . S
C890 H874 0.931 . S
C890 C884 1.383 . S
C890 C889 1.379 . S
H891 C885 0.959 . S
H892 C885 0.961 . S
H893 C885 0.960 . S
H894 C886 0.930 . S
H895 C887 0.929 . S
H896 C904 0.929 . S
H897 C906 0.930 . S
H898 C908 0.930 . S
H899 C911 0.929 . S
H900 C914 0.930 . S
H901 C916 0.960 . S
H902 C916 0.960 . S
H903 C916 0.960 . S
C904 H896 0.929 . S
C904 C905 1.377 . S
C904 C906 1.384 . S
C905 C904 1.377 . S
C905 C911 1.390 . S
C906 H897 0.930 . S
C906 C904 1.384 . S
C906 C907 1.372 . S
C907 C906 1.372 . S
C907 C908 1.400 . S
C907 C912 1.490 . S
C908 H898 0.930 . S
C908 C907 1.400 . S
C908 C911 1.386 . S
H909 C925 0.930 . S
H910 C926 0.931 . S
C911 H899 0.929 . S
C911 C905 1.390 . S
C911 C908 1.386 . S
C912 C907 1.490 . S
C912 C914 1.395 . S
C912 C915 1.403 . S
H913 C919 0.930 . S
C914 H900 0.930 . S
C914 C912 1.395 . S
C914 C917 1.403 . S
C915 C912 1.403 . S
C915 C916 1.524 . S
C915 C919 1.400 . S
C916 H901 0.960 . S
C916 H902 0.960 . S
C916 H903 0.960 . S
C916 C915 1.524 . S
C917 C914 1.403 . S
C917 C918 1.392 . S
C917 C921 1.495 . S
C918 C917 1.392 . S
C918 C919 1.385 . S
C918 C920 1.478 . S
C919 H913 0.930 . S
C919 C915 1.400 . S
C919 C918 1.385 . S
C920 C918 1.478 . S
C920 C922 1.381 . S
C920 C926 1.383 . S
C921 C917 1.495 . S
C921 H927 0.959 . S
C921 H928 0.961 . S
C921 H929 0.960 . S
C922 C920 1.381 . S
C922 C923 1.394 . S
C922 H930 0.930 . S
C923 C922 1.394 . S
C923 C924 1.383 . S
C923 H931 0.929 . S
C924 C923 1.383 . S
C924 C925 1.377 . S
C925 H909 0.930 . S
C925 C924 1.377 . S
C925 C926 1.379 . S
C926 H910 0.931 . S
C926 C920 1.383 . S
C926 C925 1.379 . S
H927 C921 0.959 . S
H928 C921 0.961 . S
H929 C921 0.960 . S
H930 C922 0.930 . S
H931 C923 0.929 . S
H932 C940 0.929 . S
H933 C942 0.930 . S
H934 C944 0.930 . S
H935 C947 0.929 . S
H936 C950 0.930 . S
H937 C952 0.960 . S
H938 C952 0.960 . S
H939 C952 0.960 . S
C940 H932 0.929 . S
C940 C941 1.377 . S
C940 C942 1.384 . S
C941 C940 1.377 . S
C941 C947 1.390 . S
C942 H933 0.930 . S
C942 C940 1.384 . S
C942 C943 1.372 . S
C943 C942 1.372 . S
C943 C944 1.400 . S
C943 C948 1.490 . S
C944 H934 0.930 . S
C944 C943 1.400 . S
C944 C947 1.386 . S
H945 C961 0.930 . S
H946 C962 0.931 . S
C947 H935 0.929 . S
C947 C941 1.390 . S
C947 C944 1.386 . S
C948 C943 1.490 . S
C948 C950 1.395 . S
C948 C951 1.403 . S
H949 C955 0.930 . S
C950 H936 0.930 . S
C950 C948 1.395 . S
C950 C953 1.403 . S
C951 C948 1.403 . S
C951 C952 1.524 . S
C951 C955 1.400 . S
C952 H937 0.960 . S
C952 H938 0.960 . S
C952 H939 0.960 . S
C952 C951 1.524 . S
C953 C950 1.403 . S
C953 C954 1.392 . S
C953 C957 1.495 . S
C954 C953 1.392 . S
C954 C955 1.385 . S
C954 C956 1.478 . S
C955 H949 0.930 . S
C955 C951 1.400 . S
C955 C954 1.385 . S
C956 C954 1.478 . S
C956 C958 1.381 . S
C956 C962 1.383 . S
C957 C953 1.495 . S
C957 H963 0.959 . S
C957 H964 0.961 . S
C957 H965 0.960 . S
C958 C956 1.381 . S
C958 C959 1.394 . S
C958 H966 0.930 . S
C959 C958 1.394 . S
C959 C960 1.383 . S
C959 H967 0.929 . S
C960 C959 1.383 . S
C960 C961 1.377 . S
C961 H945 0.930 . S
C961 C960 1.377 . S
C961 C962 1.379 . S
C962 H946 0.931 . S
C962 C956 1.383 . S
C962 C961 1.379 . S
H963 C957 0.959 . S
H964 C957 0.961 . S
H965 C957 0.960 . S
H966 C958 0.930 . S
H967 C959 0.929 . S
H968 C976 0.929 . S
H969 C978 0.930 . S
H970 C980 0.930 . S
H971 C983 0.929 . S
H972 C986 0.930 . S
H973 C988 0.960 . S
H974 C988 0.960 . S
H975 C988 0.960 . S
C976 H968 0.929 . S
C976 C977 1.377 . S
C976 C978 1.384 . S
C977 C976 1.377 . S
C977 C983 1.390 . S
C978 H969 0.930 . S
C978 C976 1.384 . S
C978 C979 1.372 . S
C979 C978 1.372 . S
C979 C980 1.400 . S
C979 C984 1.490 . S
C980 H970 0.930 . S
C980 C979 1.400 . S
C980 C983 1.386 . S
H981 C997 0.930 . S
H982 C998 0.931 . S
C983 H971 0.929 . S
C983 C977 1.390 . S
C983 C980 1.386 . S
C984 C979 1.490 . S
C984 C986 1.395 . S
C984 C987 1.403 . S
H985 C991 0.930 . S
C986 H972 0.930 . S
C986 C984 1.395 . S
C986 C989 1.403 . S
C987 C984 1.403 . S
C987 C988 1.524 . S
C987 C991 1.400 . S
C988 H973 0.960 . S
C988 H974 0.960 . S
C988 H975 0.960 . S
C988 C987 1.524 . S
C989 C986 1.403 . S
C989 C990 1.392 . S
C989 C993 1.495 . S
C990 C989 1.392 . S
C990 C991 1.385 . S
C990 C992 1.478 . S
C991 H985 0.930 . S
C991 C987 1.400 . S
C991 C990 1.385 . S
C992 C990 1.478 . S
C992 C994 1.381 . S
C992 C998 1.383 . S
C993 C989 1.495 . S
C993 H999 0.959 . S
C993 H1000 0.961 . S
C993 H1001 0.960 . S
C994 C992 1.381 . S
C994 C995 1.394 . S
C994 H1002 0.930 . S
C995 C994 1.394 . S
C995 C996 1.383 . S
C995 H1003 0.929 . S
C996 C995 1.383 . S
C996 C997 1.377 . S
C997 H981 0.930 . S
C997 C996 1.377 . S
C997 C998 1.379 . S
C998 H982 0.931 . S
C998 C992 1.383 . S
C998 C997 1.379 . S
H999 C993 0.959 . S
H1000 C993 0.961 . S
H1001 C993 0.960 . S
H1002 C994 0.930 . S
H1003 C995 0.929 . S
H1004 C1012 0.929 . S
H1005 C1014 0.930 . S
H1006 C1016 0.930 . S
H1007 C1019 0.929 . S
H1008 C1022 0.930 . S
H1009 C1024 0.960 . S
H1010 C1024 0.960 . S
H1011 C1024 0.960 . S
C1012 H1004 0.929 . S
C1012 C1013 1.377 . S
C1012 C1014 1.384 . S
C1013 C1012 1.377 . S
C1013 C1019 1.390 . S
C1014 H1005 0.930 . S
C1014 C1012 1.384 . S
C1014 C1015 1.372 . S
C1015 C1014 1.372 . S
C1015 C1016 1.400 . S
C1015 C1020 1.490 . S
C1016 H1006 0.930 . S
C1016 C1015 1.400 . S
C1016 C1019 1.386 . S
H1017 C1033 0.930 . S
H1018 C1034 0.931 . S
C1019 H1007 0.929 . S
C1019 C1013 1.390 . S
C1019 C1016 1.386 . S
C1020 C1015 1.490 . S
C1020 C1022 1.395 . S
C1020 C1023 1.403 . S
H1021 C1027 0.930 . S
C1022 H1008 0.930 . S
C1022 C1020 1.395 . S
C1022 C1025 1.403 . S
C1023 C1020 1.403 . S
C1023 C1024 1.524 . S
C1023 C1027 1.400 . S
C1024 H1009 0.960 . S
C1024 H1010 0.960 . S
C1024 H1011 0.960 . S
C1024 C1023 1.524 . S
C1025 C1022 1.403 . S
C1025 C1026 1.392 . S
C1025 C1029 1.495 . S
C1026 C1025 1.392 . S
C1026 C1027 1.385 . S
C1026 C1028 1.478 . S
C1027 H1021 0.930 . S
C1027 C1023 1.400 . S
C1027 C1026 1.385 . S
C1028 C1026 1.478 . S
C1028 C1030 1.381 . S
C1028 C1034 1.383 . S
C1029 C1025 1.495 . S
C1029 H1035 0.959 . S
C1029 H1036 0.961 . S
C1029 H1037 0.960 . S
C1030 C1028 1.381 . S
C1030 C1031 1.394 . S
C1030 H1038 0.930 . S
C1031 C1030 1.394 . S
C1031 C1032 1.383 . S
C1031 H1039 0.929 . S
C1032 C1031 1.383 . S
C1032 C1033 1.377 . S
C1033 H1017 0.930 . S
C1033 C1032 1.377 . S
C1033 C1034 1.379 . S
C1034 H1018 0.931 . S
C1034 C1028 1.383 . S
C1034 C1033 1.379 . S
H1035 C1029 0.959 . S
H1036 C1029 0.961 . S
H1037 C1029 0.960 . S
H1038 C1030 0.930 . S
H1039 C1031 0.929 . S
H1040 C1048 0.929 . S
H1041 C1050 0.930 . S
H1042 C1052 0.930 . S
H1043 C1055 0.929 . S
H1044 C1058 0.930 . S
H1045 C1060 0.960 . S
H1046 C1060 0.960 . S
H1047 C1060 0.960 . S
C1048 H1040 0.929 . S
C1048 C1049 1.377 . S
C1048 C1050 1.384 . S
C1049 C1048 1.377 . S
C1049 C1055 1.390 . S
C1050 H1041 0.930 . S
C1050 C1048 1.384 . S
C1050 C1051 1.372 . S
C1051 C1050 1.372 . S
C1051 C1052 1.400 . S
C1051 C1056 1.490 . S
C1052 H1042 0.930 . S
C1052 C1051 1.400 . S
C1052 C1055 1.386 . S
H1053 C1069 0.930 . S
H1054 C1070 0.931 . S
C1055 H1043 0.929 . S
C1055 C1049 1.390 . S
C1055 C1052 1.386 . S
C1056 C1051 1.490 . S
C1056 C1058 1.395 . S
C1056 C1059 1.403 . S
H1057 C1063 0.930 . S
C1058 H1044 0.930 . S
C1058 C1056 1.395 . S
C1058 C1061 1.403 . S
C1059 C1056 1.403 . S
C1059 C1060 1.524 . S
C1059 C1063 1.400 . S
C1060 H1045 0.960 . S
C1060 H1046 0.960 . S
C1060 H1047 0.960 . S
C1060 C1059 1.524 . S
C1061 C1058 1.403 . S
C1061 C1062 1.392 . S
C1061 C1065 1.495 . S
C1062 C1061 1.392 . S
C1062 C1063 1.385 . S
C1062 C1064 1.478 . S
C1063 H1057 0.930 . S
C1063 C1059 1.400 . S
C1063 C1062 1.385 . S
C1064 C1062 1.478 . S
C1064 C1066 1.381 . S
C1064 C1070 1.383 . S
C1065 C1061 1.495 . S
C1065 H1071 0.959 . S
C1065 H1072 0.961 . S
C1065 H1073 0.960 . S
C1066 C1064 1.381 . S
C1066 C1067 1.394 . S
C1066 H1074 0.930 . S
C1067 C1066 1.394 . S
C1067 C1068 1.383 . S
C1067 H1075 0.929 . S
C1068 C1067 1.383 . S
C1068 C1069 1.377 . S
C1069 H1053 0.930 . S
C1069 C1068 1.377 . S
C1069 C1070 1.379 . S
C1070 H1054 0.931 . S
C1070 C1064 1.383 . S
C1070 C1069 1.379 . S
H1071 C1065 0.959 . S
H1072 C1065 0.961 . S
H1073 C1065 0.960 . S
H1074 C1066 0.930 . S
H1075 C1067 0.929 . S
H1076 C1084 0.929 . S
H1077 C1086 0.930 . S
H1078 C1088 0.930 . S
H1079 C1091 0.929 . S
H1080 C1094 0.930 . S
H1081 C1096 0.960 . S
H1082 C1096 0.960 . S
H1083 C1096 0.960 . S
C1084 H1076 0.929 . S
C1084 C1085 1.377 1_455 S
C1084 C1086 1.384 . S
C1085 C1084 1.377 1_655 S
C1085 C1091 1.390 . S
C1086 H1077 0.930 . S
C1086 C1084 1.384 . S
C1086 C1087 1.372 1_455 S
C1087 C1086 1.372 1_655 S
C1087 C1088 1.400 . S
C1087 C1092 1.490 . S
C1088 H1078 0.930 . S
C1088 C1087 1.400 . S
C1088 C1091 1.386 . S
H1089 C1105 0.930 . S
H1090 C1106 0.931 . S
C1091 H1079 0.929 . S
C1091 C1085 1.390 . S
C1091 C1088 1.386 . S
C1092 C1087 1.490 . S
C1092 C1094 1.395 1_655 S
C1092 C1095 1.403 . S
H1093 C1099 0.930 . S
C1094 H1080 0.930 . S
C1094 C1092 1.395 1_455 S
C1094 C1097 1.403 . S
C1095 C1092 1.403 . S
C1095 C1096 1.524 . S
C1095 C1099 1.400 . S
C1096 H1081 0.960 . S
C1096 H1082 0.960 . S
C1096 H1083 0.960 . S
C1096 C1095 1.524 . S
C1097 C1094 1.403 . S
C1097 C1098 1.392 1_455 S
C1097 C1101 1.495 . S
C1098 C1097 1.392 1_655 S
C1098 C1099 1.385 . S
C1098 C1100 1.478 . S
C1099 H1093 0.930 . S
C1099 C1095 1.400 . S
C1099 C1098 1.385 . S
C1100 C1098 1.478 . S
C1100 C1102 1.381 1_655 S
C1100 C1106 1.383 . S
C1101 C1097 1.495 . S
C1101 H1107 0.959 . S
C1101 H1108 0.961 . S
C1101 H1109 0.960 . S
C1102 C1100 1.381 1_455 S
C1102 C1103 1.394 . S
C1102 H1110 0.930 . S
C1103 C1102 1.394 . S
C1103 C1104 1.383 1_455 S
C1103 H1111 0.929 . S
C1104 C1103 1.383 1_655 S
C1104 C1105 1.377 . S
C1105 H1089 0.930 . S
C1105 C1104 1.377 . S
C1105 C1106 1.379 . S
C1106 H1090 0.931 . S
C1106 C1100 1.383 . S
C1106 C1105 1.379 . S
H1107 C1101 0.959 . S
H1108 C1101 0.961 . S
H1109 C1101 0.960 . S
H1110 C1102 0.930 . S
H1111 C1103 0.929 . S
H1112 C1120 0.929 . S
H1113 C1122 0.930 . S
H1114 C1124 0.930 . S
H1115 C1127 0.929 . S
H1116 C1130 0.930 . S
H1117 C1132 0.960 . S
H1118 C1132 0.960 . S
H1119 C1132 0.960 . S
C1120 H1112 0.929 . S
C1120 C1121 1.377 . S
C1120 C1122 1.384 . S
C1121 C1120 1.377 . S
C1121 C1127 1.390 . S
C1122 H1113 0.930 . S
C1122 C1120 1.384 . S
C1122 C1123 1.372 . S
C1123 C1122 1.372 . S
C1123 C1124 1.400 . S
C1123 C1128 1.490 . S
C1124 H1114 0.930 . S
C1124 C1123 1.400 . S
C1124 C1127 1.386 . S
H1125 C1141 0.930 . S
H1126 C1142 0.931 . S
C1127 H1115 0.929 . S
C1127 C1121 1.390 . S
C1127 C1124 1.386 . S
C1128 C1123 1.490 . S
C1128 C1130 1.395 . S
C1128 C1131 1.403 . S
H1129 C1135 0.930 . S
C1130 H1116 0.930 . S
C1130 C1128 1.395 . S
C1130 C1133 1.403 . S
C1131 C1128 1.403 . S
C1131 C1132 1.524 . S
C1131 C1135 1.400 . S
C1132 H1117 0.960 . S
C1132 H1118 0.960 . S
C1132 H1119 0.960 . S
C1132 C1131 1.524 . S
C1133 C1130 1.403 . S
C1133 C1134 1.392 . S
C1133 C1137 1.495 . S
C1134 C1133 1.392 . S
C1134 C1135 1.385 . S
C1134 C1136 1.478 . S
C1135 H1129 0.930 . S
C1135 C1131 1.400 . S
C1135 C1134 1.385 . S
C1136 C1134 1.478 . S
C1136 C1138 1.381 . S
C1136 C1142 1.383 . S
C1137 C1133 1.495 . S
C1137 H1143 0.959 . S
C1137 H1144 0.961 . S
C1137 H1145 0.960 . S
C1138 C1136 1.381 . S
C1138 C1139 1.394 . S
C1138 H1146 0.930 . S
C1139 C1138 1.394 . S
C1139 C1140 1.383 . S
C1139 H1147 0.929 . S
C1140 C1139 1.383 . S
C1140 C1141 1.377 . S
C1141 H1125 0.930 . S
C1141 C1140 1.377 . S
C1141 C1142 1.379 . S
C1142 H1126 0.931 . S
C1142 C1136 1.383 . S
C1142 C1141 1.379 . S
H1143 C1137 0.959 . S
H1144 C1137 0.961 . S
H1145 C1137 0.960 . S
H1146 C1138 0.930 . S
H1147 C1139 0.929 . S
H1148 C1156 0.929 . S
H1149 C1158 0.930 . S
H1150 C1160 0.930 . S
H1151 C1163 0.929 . S
H1152 C1166 0.930 . S
H1153 C1168 0.960 . S
H1154 C1168 0.960 . S
H1155 C1168 0.960 . S
C1156 H1148 0.929 . S
C1156 C1157 1.377 . S
C1156 C1158 1.384 . S
C1157 C1156 1.377 . S
C1157 C1163 1.390 . S
C1158 H1149 0.930 . S
C1158 C1156 1.384 . S
C1158 C1159 1.372 . S
C1159 C1158 1.372 . S
C1159 C1160 1.400 . S
C1159 C1164 1.490 . S
C1160 H1150 0.930 . S
C1160 C1159 1.400 . S
C1160 C1163 1.386 . S
H1161 C1177 0.930 . S
H1162 C1178 0.931 . S
C1163 H1151 0.929 . S
C1163 C1157 1.390 . S
C1163 C1160 1.386 . S
C1164 C1159 1.490 . S
C1164 C1166 1.395 . S
C1164 C1167 1.403 . S
H1165 C1171 0.930 . S
C1166 H1152 0.930 . S
C1166 C1164 1.395 . S
C1166 C1169 1.403 . S
C1167 C1164 1.403 . S
C1167 C1168 1.524 . S
C1167 C1171 1.400 . S
C1168 H1153 0.960 . S
C1168 H1154 0.960 . S
C1168 H1155 0.960 . S
C1168 C1167 1.524 . S
C1169 C1166 1.403 . S
C1169 C1170 1.392 . S
C1169 C1173 1.495 . S
C1170 C1169 1.392 . S
C1170 C1171 1.385 . S
C1170 C1172 1.478 . S
C1171 H1165 0.930 . S
C1171 C1167 1.400 . S
C1171 C1170 1.385 . S
C1172 C1170 1.478 . S
C1172 C1174 1.381 . S
C1172 C1178 1.383 . S
C1173 C1169 1.495 . S
C1173 H1179 0.959 . S
C1173 H1180 0.961 . S
C1173 H1181 0.960 . S
C1174 C1172 1.381 . S
C1174 C1175 1.394 . S
C1174 H1182 0.930 . S
C1175 C1174 1.394 . S
C1175 C1176 1.383 . S
C1175 H1183 0.929 . S
C1176 C1175 1.383 . S
C1176 C1177 1.377 . S
C1177 H1161 0.930 . S
C1177 C1176 1.377 . S
C1177 C1178 1.379 . S
C1178 H1162 0.931 . S
C1178 C1172 1.383 . S
C1178 C1177 1.379 . S
H1179 C1173 0.959 . S
H1180 C1173 0.961 . S
H1181 C1173 0.960 . S
H1182 C1174 0.930 . S
H1183 C1175 0.929 . S
H1184 C1192 0.929 . S
H1185 C1194 0.930 . S
H1186 C1196 0.930 . S
H1187 C1199 0.929 . S
H1188 C1202 0.930 . S
H1189 C1204 0.960 . S
H1190 C1204 0.960 . S
H1191 C1204 0.960 . S
C1192 H1184 0.929 . S
C1192 C1193 1.377 . S
C1192 C1194 1.384 . S
C1193 C1192 1.377 . S
C1193 C1199 1.390 . S
C1194 H1185 0.930 . S
C1194 C1192 1.384 . S
C1194 C1195 1.372 . S
C1195 C1194 1.372 . S
C1195 C1196 1.400 . S
C1195 C1200 1.490 . S
C1196 H1186 0.930 . S
C1196 C1195 1.400 . S
C1196 C1199 1.386 . S
H1197 C1213 0.930 . S
H1198 C1214 0.931 . S
C1199 H1187 0.929 . S
C1199 C1193 1.390 . S
C1199 C1196 1.386 . S
C1200 C1195 1.490 . S
C1200 C1202 1.395 . S
C1200 C1203 1.403 . S
H1201 C1207 0.930 . S
C1202 H1188 0.930 . S
C1202 C1200 1.395 . S
C1202 C1205 1.403 . S
C1203 C1200 1.403 . S
C1203 C1204 1.524 . S
C1203 C1207 1.400 . S
C1204 H1189 0.960 . S
C1204 H1190 0.960 . S
C1204 H1191 0.960 . S
C1204 C1203 1.524 . S
C1205 C1202 1.403 . S
C1205 C1206 1.392 . S
C1205 C1209 1.495 . S
C1206 C1205 1.392 . S
C1206 C1207 1.385 . S
C1206 C1208 1.478 . S
C1207 H1201 0.930 . S
C1207 C1203 1.400 . S
C1207 C1206 1.385 . S
C1208 C1206 1.478 . S
C1208 C1210 1.381 . S
C1208 C1214 1.383 . S
C1209 C1205 1.495 . S
C1209 H1215 0.959 . S
C1209 H1216 0.961 . S
C1209 H1217 0.960 . S
C1210 C1208 1.381 . S
C1210 C1211 1.394 . S
C1210 H1218 0.930 . S
C1211 C1210 1.394 . S
C1211 C1212 1.383 . S
C1211 H1219 0.929 . S
C1212 C1211 1.383 . S
C1212 C1213 1.377 . S
C1213 H1197 0.930 . S
C1213 C1212 1.377 . S
C1213 C1214 1.379 . S
C1214 H1198 0.931 . S
C1214 C1208 1.383 . S
C1214 C1213 1.379 . S
H1215 C1209 0.959 . S
H1216 C1209 0.961 . S
H1217 C1209 0.960 . S
H1218 C1210 0.930 . S
H1219 C1211 0.929 . S
H1220 C1228 0.929 . S
H1221 C1230 0.930 . S
H1222 C1232 0.930 . S
H1223 C1235 0.929 . S
H1224 C1238 0.930 . S
H1225 C1240 0.960 . S
H1226 C1240 0.960 . S
H1227 C1240 0.960 . S
C1228 H1220 0.929 . S
C1228 C1229 1.377 . S
C1228 C1230 1.384 . S
C1229 C1228 1.377 . S
C1229 C1235 1.390 . S
C1230 H1221 0.930 . S
C1230 C1228 1.384 . S
C1230 C1231 1.372 . S
C1231 C1230 1.372 . S
C1231 C1232 1.400 . S
C1231 C1236 1.490 . S
C1232 H1222 0.930 . S
C1232 C1231 1.400 . S
C1232 C1235 1.386 . S
H1233 C1249 0.930 . S
H1234 C1250 0.931 . S
C1235 H1223 0.929 . S
C1235 C1229 1.390 . S
C1235 C1232 1.386 . S
C1236 C1231 1.490 . S
C1236 C1238 1.395 . S
C1236 C1239 1.403 . S
H1237 C1243 0.930 . S
C1238 H1224 0.930 . S
C1238 C1236 1.395 . S
C1238 C1241 1.403 . S
C1239 C1236 1.403 . S
C1239 C1240 1.524 . S
C1239 C1243 1.400 . S
C1240 H1225 0.960 . S
C1240 H1226 0.960 . S
C1240 H1227 0.960 . S
C1240 C1239 1.524 . S
C1241 C1238 1.403 . S
C1241 C1242 1.392 . S
C1241 C1245 1.495 . S
C1242 C1241 1.392 . S
C1242 C1243 1.385 . S
C1242 C1244 1.478 . S
C1243 H1237 0.930 . S
C1243 C1239 1.400 . S
C1243 C1242 1.385 . S
C1244 C1242 1.478 . S
C1244 C1246 1.381 . S
C1244 C1250 1.383 . S
C1245 C1241 1.495 . S
C1245 H1251 0.959 . S
C1245 H1252 0.961 . S
C1245 H1253 0.960 . S
C1246 C1244 1.381 . S
C1246 C1247 1.394 . S
C1246 H1254 0.930 . S
C1247 C1246 1.394 . S
C1247 C1248 1.383 . S
C1247 H1255 0.929 . S
C1248 C1247 1.383 . S
C1248 C1249 1.377 . S
C1249 H1233 0.930 . S
C1249 C1248 1.377 . S
C1249 C1250 1.379 . S
C1250 H1234 0.931 . S
C1250 C1244 1.383 . S
C1250 C1249 1.379 . S
H1251 C1245 0.959 . S
H1252 C1245 0.961 . S
H1253 C1245 0.960 . S
H1254 C1246 0.930 . S
H1255 C1247 0.929 . S
H1256 C1264 0.929 . S
H1257 C1266 0.930 . S
H1258 C1268 0.930 . S
H1259 C1271 0.929 . S
H1260 C1274 0.934 . S
H1261 C1276 0.960 . S
H1262 C1276 0.960 . S
H1263 C1276 0.960 . S
C1264 H1256 0.929 . S
C1264 C1265 1.377 1_565 S
C1264 C1266 1.384 . S
C1265 C1264 1.377 1_545 S
C1265 C1271 1.390 . S
C1266 H1257 0.930 . S
C1266 C1264 1.384 . S
C1266 C1267 1.372 1_565 S
C1267 C1266 1.372 1_545 S
C1267 C1268 1.400 . S
C1267 C1272 1.490 . S
C1268 H1258 0.930 . S
C1268 C1267 1.400 . S
C1268 C1271 1.386 . S
H1269 C1285 0.930 . S
H1270 C1286 0.931 . S
C1271 H1259 0.929 . S
C1271 C1265 1.390 . S
C1271 C1268 1.386 . S
C1272 C1267 1.490 . S
C1272 C1274 1.395 . S
C1272 C1275 1.403 . S
H1273 C1279 0.930 . S
C1274 H1260 0.934 . S
C1274 C1272 1.395 . S
C1274 C1277 1.403 . S
C1275 C1272 1.403 . S
C1275 C1276 1.524 . S
C1275 C1279 1.400 . S
C1276 H1261 0.960 . S
C1276 H1262 0.960 . S
C1276 H1263 0.960 . S
C1276 C1275 1.524 . S
C1277 C1274 1.403 . S
C1277 C1278 1.392 . S
C1277 C1281 1.501 . S
C1278 C1277 1.392 . S
C1278 C1279 1.385 . S
C1278 C1280 1.478 . S
C1279 H1273 0.930 . S
C1279 C1275 1.400 . S
C1279 C1278 1.385 . S
C1280 C1278 1.478 . S
C1280 C1282 1.381 1_545 S
C1280 C1286 1.383 . S
C1281 C1277 1.501 . S
C1281 H1287 0.945 1_545 S
C1281 H1288 1.002 . S
C1281 H1289 0.930 1_545 S
C1282 C1280 1.381 1_565 S
C1282 C1283 1.394 . S
C1282 H1290 0.930 . S
C1283 C1282 1.394 . S
C1283 C1284 1.383 1_565 S
C1283 H1291 0.929 . S
C1284 C1283 1.383 1_545 S
C1284 C1285 1.377 . S
C1285 H1269 0.930 . S
C1285 C1284 1.377 . S
C1285 C1286 1.379 . S
C1286 H1270 0.931 . S
C1286 C1280 1.383 . S
C1286 C1285 1.379 . S
H1287 C1281 0.945 1_565 S
H1288 C1281 1.002 . S
H1289 C1281 0.930 1_565 S
H1290 C1282 0.930 . S
H1291 C1283 0.929 . S
H1292 C1300 0.929 . S
H1293 C1302 0.930 . S
H1294 C1304 0.930 . S
H1295 C1307 0.929 . S
H1296 C1310 0.930 . S
H1297 C1312 0.960 . S
H1298 C1312 0.960 . S
H1299 C1312 0.960 . S
C1300 H1292 0.929 . S
C1300 C1301 1.377 1_556 S
C1300 C1302 1.384 . S
C1301 C1300 1.377 1_554 S
C1301 C1307 1.390 . S
C1302 H1293 0.930 . S
C1302 C1300 1.384 . S
C1302 C1303 1.372 1_556 S
C1303 C1302 1.372 1_554 S
C1303 C1304 1.400 . S
C1303 C1308 1.490 . S
C1304 H1294 0.930 . S
C1304 C1303 1.400 . S
C1304 C1307 1.386 . S
H1305 C1321 0.930 . S
H1306 C1322 0.931 . S
C1307 H1295 0.929 . S
C1307 C1301 1.390 . S
C1307 C1304 1.386 . S
C1308 C1303 1.490 . S
C1308 C1310 1.395 1_554 S
C1308 C1311 1.403 . S
H1309 C1315 0.930 . S
C1310 H1296 0.930 . S
C1310 C1308 1.395 1_556 S
C1310 C1313 1.403 . S
C1311 C1308 1.403 . S
C1311 C1312 1.524 . S
C1311 C1315 1.400 . S
C1312 H1297 0.960 . S
C1312 H1298 0.960 . S
C1312 H1299 0.960 . S
C1312 C1311 1.524 . S
C1313 C1310 1.403 . S
C1313 C1314 1.392 1_556 S
C1313 C1317 1.495 . S
C1314 C1313 1.392 1_554 S
C1314 C1315 1.385 . S
C1314 C1316 1.478 . S
C1315 H1309 0.930 . S
C1315 C1311 1.400 . S
C1315 C1314 1.385 . S
C1316 C1314 1.478 . S
C1316 C1318 1.381 1_554 S
C1316 C1322 1.383 . S
C1317 C1313 1.495 . S
C1317 H1323 0.959 . S
C1317 H1324 0.961 . S
C1317 H1325 0.960 . S
C1318 C1316 1.381 1_556 S
C1318 C1319 1.394 . S
C1318 H1326 0.930 . S
C1319 C1318 1.394 . S
C1319 C1320 1.383 1_556 S
C1319 H1327 0.929 . S
C1320 C1319 1.383 1_554 S
C1320 C1321 1.377 . S
C1321 H1305 0.930 . S
C1321 C1320 1.377 . S
C1321 C1322 1.379 . S
C1322 H1306 0.931 . S
C1322 C1316 1.383 . S
C1322 C1321 1.379 . S
H1323 C1317 0.959 . S
H1324 C1317 0.961 . S
H1325 C1317 0.960 . S
H1326 C1318 0.930 . S
H1327 C1319 0.929 . S
H1328 C1336 0.929 . S
H1329 C1338 0.930 . S
H1330 C1340 0.930 . S
H1331 C1343 0.929 . S
H1332 C1346 0.930 . S
H1333 C1348 0.960 . S
H1334 C1348 0.960 . S
H1335 C1348 0.960 . S
C1336 H1328 0.929 . S
C1336 C1337 1.377 . S
C1336 C1338 1.384 . S
C1337 C1336 1.377 . S
C1337 C1343 1.390 . S
C1338 H1329 0.930 . S
C1338 C1336 1.384 . S
C1338 C1339 1.372 . S
C1339 C1338 1.372 . S
C1339 C1340 1.400 . S
C1339 C1344 1.490 . S
C1340 H1330 0.930 . S
C1340 C1339 1.400 . S
C1340 C1343 1.386 . S
H1341 C1357 0.930 . S
H1342 C1358 0.931 . S
C1343 H1331 0.929 . S
C1343 C1337 1.390 . S
C1343 C1340 1.386 . S
C1344 C1339 1.490 . S
C1344 C1346 1.395 . S
C1344 C1347 1.403 . S
H1345 C1351 0.930 . S
C1346 H1332 0.930 . S
C1346 C1344 1.395 . S
C1346 C1349 1.403 . S
C1347 C1344 1.403 . S
C1347 C1348 1.524 . S
C1347 C1351 1.400 . S
C1348 H1333 0.960 . S
C1348 H1334 0.960 . S
C1348 H1335 0.960 . S
C1348 C1347 1.524 . S
C1349 C1346 1.403 . S
C1349 C1350 1.392 . S
C1349 C1353 1.495 . S
C1350 C1349 1.392 . S
C1350 C1351 1.385 . S
C1350 C1352 1.478 . S
C1351 H1345 0.930 . S
C1351 C1347 1.400 . S
C1351 C1350 1.385 . S
C1352 C1350 1.478 . S
C1352 C1354 1.381 . S
C1352 C1358 1.383 . S
C1353 C1349 1.495 . S
C1353 H1359 0.959 . S
C1353 H1360 0.961 . S
C1353 H1361 0.960 . S
C1354 C1352 1.381 . S
C1354 C1355 1.394 . S
C1354 H1362 0.930 . S
C1355 C1354 1.394 . S
C1355 C1356 1.383 . S
C1355 H1363 0.929 . S
C1356 C1355 1.383 . S
C1356 C1357 1.377 . S
C1357 H1341 0.930 . S
C1357 C1356 1.377 . S
C1357 C1358 1.379 . S
C1358 H1342 0.931 . S
C1358 C1352 1.383 . S
C1358 C1357 1.379 . S
H1359 C1353 0.959 . S
H1360 C1353 0.961 . S
H1361 C1353 0.960 . S
H1362 C1354 0.930 . S
H1363 C1355 0.929 . S
H1364 C1372 0.929 . S
H1365 C1374 0.930 . S
H1366 C1376 0.930 . S
H1367 C1379 0.929 . S
H1368 C1382 0.930 . S
H1369 C1384 0.960 . S
H1370 C1384 0.960 . S
H1371 C1384 0.960 . S
C1372 H1364 0.929 . S
C1372 C1373 1.377 . S
C1372 C1374 1.384 . S
C1373 C1372 1.377 . S
C1373 C1379 1.390 . S
C1374 H1365 0.930 . S
C1374 C1372 1.384 . S
C1374 C1375 1.372 . S
C1375 C1374 1.372 . S
C1375 C1376 1.400 . S
C1375 C1380 1.490 . S
C1376 H1366 0.930 . S
C1376 C1375 1.400 . S
C1376 C1379 1.386 . S
H1377 C1393 0.930 . S
H1378 C1394 0.931 . S
C1379 H1367 0.929 . S
C1379 C1373 1.390 . S
C1379 C1376 1.386 . S
C1380 C1375 1.490 . S
C1380 C1382 1.395 . S
C1380 C1383 1.403 . S
H1381 C1387 0.930 . S
C1382 H1368 0.930 . S
C1382 C1380 1.395 . S
C1382 C1385 1.403 . S
C1383 C1380 1.403 . S
C1383 C1384 1.524 . S
C1383 C1387 1.400 . S
C1384 H1369 0.960 . S
C1384 H1370 0.960 . S
C1384 H1371 0.960 . S
C1384 C1383 1.524 . S
C1385 C1382 1.403 . S
C1385 C1386 1.392 . S
C1385 C1389 1.495 . S
C1386 C1385 1.392 . S
C1386 C1387 1.385 . S
C1386 C1388 1.478 . S
C1387 H1381 0.930 . S
C1387 C1383 1.400 . S
C1387 C1386 1.385 . S
C1388 C1386 1.478 . S
C1388 C1390 1.381 . S
C1388 C1394 1.383 . S
C1389 C1385 1.495 . S
C1389 H1395 0.959 . S
C1389 H1396 0.961 . S
C1389 H1397 0.960 . S
C1390 C1388 1.381 . S
C1390 C1391 1.394 . S
C1390 H1398 0.930 . S
C1391 C1390 1.394 . S
C1391 C1392 1.383 . S
C1391 H1399 0.929 . S
C1392 C1391 1.383 . S
C1392 C1393 1.377 . S
C1393 H1377 0.930 . S
C1393 C1392 1.377 . S
C1393 C1394 1.379 . S
C1394 H1378 0.931 . S
C1394 C1388 1.383 . S
C1394 C1393 1.379 . S
H1395 C1389 0.959 . S
H1396 C1389 0.961 . S
H1397 C1389 0.960 . S
H1398 C1390 0.930 . S
H1399 C1391 0.929 . S
H1400 C1408 0.929 . S
H1401 C1410 0.930 . S
H1402 C1412 0.930 . S
H1403 C1415 0.929 . S
H1404 C1418 0.930 . S
H1405 C1420 0.960 . S
H1406 C1420 0.960 . S
H1407 C1420 0.960 . S
C1408 H1400 0.929 . S
C1408 C1409 1.377 . S
C1408 C1410 1.384 . S
C1409 C1408 1.377 . S
C1409 C1415 1.390 . S
C1410 H1401 0.930 . S
C1410 C1408 1.384 . S
C1410 C1411 1.372 . S
C1411 C1410 1.372 . S
C1411 C1412 1.400 . S
C1411 C1416 1.490 . S
C1412 H1402 0.930 . S
C1412 C1411 1.400 . S
C1412 C1415 1.386 . S
H1413 C1429 0.930 . S
H1414 C1430 0.931 . S
C1415 H1403 0.929 . S
C1415 C1409 1.390 . S
C1415 C1412 1.386 . S
C1416 C1411 1.490 . S
C1416 C1418 1.395 . S
C1416 C1419 1.403 . S
H1417 C1423 0.930 . S
C1418 H1404 0.930 . S
C1418 C1416 1.395 . S
C1418 C1421 1.403 . S
C1419 C1416 1.403 . S
C1419 C1420 1.524 . S
C1419 C1423 1.400 . S
C1420 H1405 0.960 . S
C1420 H1406 0.960 . S
C1420 H1407 0.960 . S
C1420 C1419 1.524 . S
C1421 C1418 1.403 . S
C1421 C1422 1.392 . S
C1421 C1425 1.495 . S
C1422 C1421 1.392 . S
C1422 C1423 1.385 . S
C1422 C1424 1.478 . S
C1423 H1417 0.930 . S
C1423 C1419 1.400 . S
C1423 C1422 1.385 . S
C1424 C1422 1.478 . S
C1424 C1426 1.381 . S
C1424 C1430 1.383 . S
C1425 C1421 1.495 . S
C1425 H1431 0.959 . S
C1425 H1432 0.961 . S
C1425 H1433 0.960 . S
C1426 C1424 1.381 . S
C1426 C1427 1.394 . S
C1426 H1434 0.930 . S
C1427 C1426 1.394 . S
C1427 C1428 1.383 . S
C1427 H1435 0.929 . S
C1428 C1427 1.383 . S
C1428 C1429 1.377 . S
C1429 H1413 0.930 . S
C1429 C1428 1.377 . S
C1429 C1430 1.379 . S
C1430 H1414 0.931 . S
C1430 C1424 1.383 . S
C1430 C1429 1.379 . S
H1431 C1425 0.959 . S
H1432 C1425 0.961 . S
H1433 C1425 0.960 . S
H1434 C1426 0.930 . S
H1435 C1427 0.929 . S
H1436 C1444 0.929 . S
H1437 C1446 0.930 . S
H1438 C1448 0.930 . S
H1439 C1451 0.929 . S
H1440 C1454 0.930 . S
H1441 C1456 0.960 . S
H1442 C1456 0.960 . S
H1443 C1456 0.960 . S
C1444 H1436 0.929 . S
C1444 C1445 1.377 . S
C1444 C1446 1.384 . S
C1445 C1444 1.377 . S
C1445 C1451 1.390 . S
C1446 H1437 0.930 . S
C1446 C1444 1.384 . S
C1446 C1447 1.372 . S
C1447 C1446 1.372 . S
C1447 C1448 1.400 . S
C1447 C1452 1.490 . S
C1448 H1438 0.930 . S
C1448 C1447 1.400 . S
C1448 C1451 1.386 . S
H1449 C1465 0.930 . S
H1450 C1466 0.931 . S
C1451 H1439 0.929 . S
C1451 C1445 1.390 . S
C1451 C1448 1.386 . S
C1452 C1447 1.490 . S
C1452 C1454 1.395 . S
C1452 C1455 1.403 . S
H1453 C1459 0.930 . S
C1454 H1440 0.930 . S
C1454 C1452 1.395 . S
C1454 C1457 1.403 . S
C1455 C1452 1.403 . S
C1455 C1456 1.524 . S
C1455 C1459 1.400 . S
C1456 H1441 0.960 . S
C1456 H1442 0.960 . S
C1456 H1443 0.960 . S
C1456 C1455 1.524 . S
C1457 C1454 1.403 . S
C1457 C1458 1.392 . S
C1457 C1461 1.495 . S
C1458 C1457 1.392 . S
C1458 C1459 1.385 . S
C1458 C1460 1.478 . S
C1459 H1453 0.930 . S
C1459 C1455 1.400 . S
C1459 C1458 1.385 . S
C1460 C1458 1.478 . S
C1460 C1462 1.381 . S
C1460 C1466 1.383 . S
C1461 C1457 1.495 . S
C1461 H1467 0.959 . S
C1461 H1468 0.961 . S
C1461 H1469 0.960 . S
C1462 C1460 1.381 . S
C1462 C1463 1.394 . S
C1462 H1470 0.930 . S
C1463 C1462 1.394 . S
C1463 C1464 1.383 . S
C1463 H1471 0.929 . S
C1464 C1463 1.383 . S
C1464 C1465 1.377 . S
C1465 H1449 0.930 . S
C1465 C1464 1.377 . S
C1465 C1466 1.379 . S
C1466 H1450 0.931 . S
C1466 C1460 1.383 . S
C1466 C1465 1.379 . S
H1467 C1461 0.959 . S
H1468 C1461 0.961 . S
H1469 C1461 0.960 . S
H1470 C1462 0.930 . S
H1471 C1463 0.929 . S
H1472 C1480 0.929 . S
H1473 C1482 0.930 . S
H1474 C1484 0.930 . S
H1475 C1487 0.929 . S
H1476 C1490 0.930 . S
H1477 C1492 0.960 . S
H1478 C1492 0.960 . S
H1479 C1492 0.960 . S
C1480 H1472 0.929 . S
C1480 C1481 1.377 . S
C1480 C1482 1.384 . S
C1481 C1480 1.377 . S
C1481 C1487 1.390 . S
C1482 H1473 0.930 . S
C1482 C1480 1.384 . S
C1482 C1483 1.372 . S
C1483 C1482 1.372 . S
C1483 C1484 1.400 . S
C1483 C1488 1.490 . S
C1484 H1474 0.930 . S
C1484 C1483 1.400 . S
C1484 C1487 1.386 . S
H1485 C1501 0.930 . S
H1486 C1502 0.931 . S
C1487 H1475 0.929 . S
C1487 C1481 1.390 . S
C1487 C1484 1.386 . S
C1488 C1483 1.490 . S
C1488 C1490 1.395 . S
C1488 C1491 1.403 . S
H1489 C1495 0.930 . S
C1490 H1476 0.930 . S
C1490 C1488 1.395 . S
C1490 C1493 1.403 . S
C1491 C1488 1.403 . S
C1491 C1492 1.524 . S
C1491 C1495 1.400 . S
C1492 H1477 0.960 . S
C1492 H1478 0.960 . S
C1492 H1479 0.960 . S
C1492 C1491 1.524 . S
C1493 C1490 1.403 . S
C1493 C1494 1.392 . S
C1493 C1497 1.495 . S
C1494 C1493 1.392 . S
C1494 C1495 1.385 . S
C1494 C1496 1.478 . S
C1495 H1489 0.930 . S
C1495 C1491 1.400 . S
C1495 C1494 1.385 . S
C1496 C1494 1.478 . S
C1496 C1498 1.381 . S
C1496 C1502 1.383 . S
C1497 C1493 1.495 . S
C1497 H1503 0.959 . S
C1497 H1504 0.961 . S
C1497 H1505 0.960 . S
C1498 C1496 1.381 . S
C1498 C1499 1.394 . S
C1498 H1506 0.930 . S
C1499 C1498 1.394 . S
C1499 C1500 1.383 . S
C1499 H1507 0.929 . S
C1500 C1499 1.383 . S
C1500 C1501 1.377 . S
C1501 H1485 0.930 . S
C1501 C1500 1.377 . S
C1501 C1502 1.379 . S
C1502 H1486 0.931 . S
C1502 C1496 1.383 . S
C1502 C1501 1.379 . S
H1503 C1497 0.959 . S
H1504 C1497 0.961 . S
H1505 C1497 0.960 . S
H1506 C1498 0.930 . S
H1507 C1499 0.929 . S
H1508 C1516 0.929 . S
H1509 C1518 0.930 . S
H1510 C1520 0.930 . S
H1511 C1523 0.929 . S
H1512 C1526 0.930 . S
H1513 C1528 0.960 . S
H1514 C1528 0.960 . S
H1515 C1528 0.960 . S
C1516 H1508 0.929 . S
C1516 C1517 1.377 . S
C1516 C1518 1.384 . S
C1517 C1516 1.377 . S
C1517 C1523 1.390 . S
C1518 H1509 0.930 . S
C1518 C1516 1.384 . S
C1518 C1519 1.372 . S
C1519 C1518 1.372 . S
C1519 C1520 1.400 . S
C1519 C1524 1.490 . S
C1520 H1510 0.930 . S
C1520 C1519 1.400 . S
C1520 C1523 1.386 . S
H1521 C1537 0.930 . S
H1522 C1538 0.931 . S
C1523 H1511 0.929 . S
C1523 C1517 1.390 . S
C1523 C1520 1.386 . S
C1524 C1519 1.490 . S
C1524 C1526 1.395 . S
C1524 C1527 1.403 . S
H1525 C1531 0.930 . S
C1526 H1512 0.930 . S
C1526 C1524 1.395 . S
C1526 C1529 1.403 . S
C1527 C1524 1.403 . S
C1527 C1528 1.524 . S
C1527 C1531 1.400 . S
C1528 H1513 0.960 . S
C1528 H1514 0.960 . S
C1528 H1515 0.960 . S
C1528 C1527 1.524 . S
C1529 C1526 1.403 . S
C1529 C1530 1.392 . S
C1529 C1533 1.495 . S
C1530 C1529 1.392 . S
C1530 C1531 1.385 . S
C1530 C1532 1.478 . S
C1531 H1525 0.930 . S
C1531 C1527 1.400 . S
C1531 C1530 1.385 . S
C1532 C1530 1.478 . S
C1532 C1534 1.381 . S
C1532 C1538 1.383 . S
C1533 C1529 1.495 . S
C1533 H1539 0.959 . S
C1533 H1540 0.961 . S
C1533 H1541 0.960 . S
C1534 C1532 1.381 . S
C1534 C1535 1.394 . S
C1534 H1542 0.930 . S
C1535 C1534 1.394 . S
C1535 C1536 1.383 . S
C1535 H1543 0.929 . S
C1536 C1535 1.383 . S
C1536 C1537 1.377 . S
C1537 H1521 0.930 . S
C1537 C1536 1.377 . S
C1537 C1538 1.379 . S
C1538 H1522 0.931 . S
C1538 C1532 1.383 . S
C1538 C1537 1.379 . S
H1539 C1533 0.959 . S
H1540 C1533 0.961 . S
H1541 C1533 0.960 . S
H1542 C1534 0.930 . S
H1543 C1535 0.929 . S
H1544 C1552 0.929 . S
H1545 C1554 0.930 . S
H1546 C1556 0.930 . S
H1547 C1559 0.929 . S
H1548 C1562 0.930 . S
H1549 C1564 0.960 . S
H1550 C1564 0.960 . S
H1551 C1564 0.960 . S
C1552 H1544 0.929 . S
C1552 C1553 1.377 . S
C1552 C1554 1.384 . S
C1553 C1552 1.377 . S
C1553 C1559 1.390 . S
C1554 H1545 0.930 . S
C1554 C1552 1.384 . S
C1554 C1555 1.372 . S
C1555 C1554 1.372 . S
C1555 C1556 1.400 . S
C1555 C1560 1.490 . S
C1556 H1546 0.930 . S
C1556 C1555 1.400 . S
C1556 C1559 1.386 . S
H1557 C1573 0.930 . S
H1558 C1574 0.931 . S
C1559 H1547 0.929 . S
C1559 C1553 1.390 . S
C1559 C1556 1.386 . S
C1560 C1555 1.490 . S
C1560 C1562 1.395 . S
C1560 C1563 1.403 . S
H1561 C1567 0.930 . S
C1562 H1548 0.930 . S
C1562 C1560 1.395 . S
C1562 C1565 1.403 . S
C1563 C1560 1.403 . S
C1563 C1564 1.524 . S
C1563 C1567 1.400 . S
C1564 H1549 0.960 . S
C1564 H1550 0.960 . S
C1564 H1551 0.960 . S
C1564 C1563 1.524 . S
C1565 C1562 1.403 . S
C1565 C1566 1.392 . S
C1565 C1569 1.495 . S
C1566 C1565 1.392 . S
C1566 C1567 1.385 . S
C1566 C1568 1.478 . S
C1567 H1561 0.930 . S
C1567 C1563 1.400 . S
C1567 C1566 1.385 . S
C1568 C1566 1.478 . S
C1568 C1570 1.381 . S
C1568 C1574 1.383 . S
C1569 C1565 1.495 . S
C1569 H1575 0.959 . S
C1569 H1576 0.961 . S
C1569 H1577 0.960 . S
C1570 C1568 1.381 . S
C1570 C1571 1.394 . S
C1570 H1578 0.930 . S
C1571 C1570 1.394 . S
C1571 C1572 1.383 . S
C1571 H1579 0.929 . S
C1572 C1571 1.383 . S
C1572 C1573 1.377 . S
C1573 H1557 0.930 . S
C1573 C1572 1.377 . S
C1573 C1574 1.379 . S
C1574 H1558 0.931 . S
C1574 C1568 1.383 . S
C1574 C1573 1.379 . S
H1575 C1569 0.959 . S
H1576 C1569 0.961 . S
H1577 C1569 0.960 . S
H1578 C1570 0.930 . S
H1579 C1571 0.929 . S
H1580 C1588 0.929 . S
H1581 C1590 0.930 . S
H1582 C1592 0.930 . S
H1583 C1595 0.929 . S
H1584 C1598 0.930 . S
H1585 C1600 0.960 . S
H1586 C1600 0.960 . S
H1587 C1600 0.960 . S
C1588 H1580 0.929 . S
C1588 C1589 1.377 . S
C1588 C1590 1.384 . S
C1589 C1588 1.377 . S
C1589 C1595 1.390 . S
C1590 H1581 0.930 . S
C1590 C1588 1.384 . S
C1590 C1591 1.372 . S
C1591 C1590 1.372 . S
C1591 C1592 1.400 . S
C1591 C1596 1.490 . S
C1592 H1582 0.930 . S
C1592 C1591 1.400 . S
C1592 C1595 1.386 . S
H1593 C1609 0.930 . S
H1594 C1610 0.931 . S
C1595 H1583 0.929 . S
C1595 C1589 1.390 . S
C1595 C1592 1.386 . S
C1596 C1591 1.490 . S
C1596 C1598 1.395 . S
C1596 C1599 1.403 . S
H1597 C1603 0.930 . S
C1598 H1584 0.930 . S
C1598 C1596 1.395 . S
C1598 C1601 1.403 . S
C1599 C1596 1.403 . S
C1599 C1600 1.524 . S
C1599 C1603 1.400 . S
C1600 H1585 0.960 . S
C1600 H1586 0.960 . S
C1600 H1587 0.960 . S
C1600 C1599 1.524 . S
C1601 C1598 1.403 . S
C1601 C1602 1.392 . S
C1601 C1605 1.495 . S
C1602 C1601 1.392 . S
C1602 C1603 1.385 . S
C1602 C1604 1.478 . S
C1603 H1597 0.930 . S
C1603 C1599 1.400 . S
C1603 C1602 1.385 . S
C1604 C1602 1.478 . S
C1604 C1606 1.381 . S
C1604 C1610 1.383 . S
C1605 C1601 1.495 . S
C1605 H1611 0.959 . S
C1605 H1612 0.961 . S
C1605 H1613 0.960 . S
C1606 C1604 1.381 . S
C1606 C1607 1.394 . S
C1606 H1614 0.930 . S
C1607 C1606 1.394 . S
C1607 C1608 1.383 . S
C1607 H1615 0.929 . S
C1608 C1607 1.383 . S
C1608 C1609 1.377 . S
C1609 H1593 0.930 . S
C1609 C1608 1.377 . S
C1609 C1610 1.379 . S
C1610 H1594 0.931 . S
C1610 C1604 1.383 . S
C1610 C1609 1.379 . S
H1611 C1605 0.959 . S
H1612 C1605 0.961 . S
H1613 C1605 0.960 . S
H1614 C1606 0.930 . S
H1615 C1607 0.929 . S
H1616 C1624 0.929 . S
H1617 C1626 0.930 . S
H1618 C1628 0.930 . S
H1619 C1631 0.929 . S
H1620 C1634 0.930 . S
H1621 C1636 0.960 . S
H1622 C1636 0.960 . S
H1623 C1636 0.960 . S
C1624 H1616 0.929 . S
C1624 C1625 1.377 . S
C1624 C1626 1.384 . S
C1625 C1624 1.377 . S
C1625 C1631 1.390 . S
C1626 H1617 0.930 . S
C1626 C1624 1.384 . S
C1626 C1627 1.372 . S
C1627 C1626 1.372 . S
C1627 C1628 1.400 . S
C1627 C1632 1.490 . S
C1628 H1618 0.930 . S
C1628 C1627 1.400 . S
C1628 C1631 1.386 . S
H1629 C1645 0.930 . S
H1630 C1646 0.931 . S
C1631 H1619 0.929 . S
C1631 C1625 1.390 . S
C1631 C1628 1.386 . S
C1632 C1627 1.490 . S
C1632 C1634 1.395 . S
C1632 C1635 1.403 . S
H1633 C1639 0.930 . S
C1634 H1620 0.930 . S
C1634 C1632 1.395 . S
C1634 C1637 1.403 . S
C1635 C1632 1.403 . S
C1635 C1636 1.524 . S
C1635 C1639 1.400 . S
C1636 H1621 0.960 . S
C1636 H1622 0.960 . S
C1636 H1623 0.960 . S
C1636 C1635 1.524 . S
C1637 C1634 1.403 . S
C1637 C1638 1.392 . S
C1637 C1641 1.495 . S
C1638 C1637 1.392 . S
C1638 C1639 1.385 . S
C1638 C1640 1.478 . S
C1639 H1633 0.930 . S
C1639 C1635 1.400 . S
C1639 C1638 1.385 . S
C1640 C1638 1.478 . S
C1640 C1642 1.381 . S
C1640 C1646 1.383 . S
C1641 C1637 1.495 . S
C1641 H1647 0.959 . S
C1641 H1648 0.961 . S
C1641 H1649 0.960 . S
C1642 C1640 1.381 . S
C1642 C1643 1.394 . S
C1642 H1650 0.930 . S
C1643 C1642 1.394 . S
C1643 C1644 1.383 . S
C1643 H1651 0.929 . S
C1644 C1643 1.383 . S
C1644 C1645 1.377 . S
C1645 H1629 0.930 . S
C1645 C1644 1.377 . S
C1645 C1646 1.379 . S
C1646 H1630 0.931 . S
C1646 C1640 1.383 . S
C1646 C1645 1.379 . S
H1647 C1641 0.959 . S
H1648 C1641 0.961 . S
H1649 C1641 0.960 . S
H1650 C1642 0.930 . S
H1651 C1643 0.929 . S
H1652 C1660 0.929 . S
H1653 C1662 0.930 . S
H1654 C1664 0.930 . S
H1655 C1667 0.929 . S
H1656 C1670 0.930 . S
H1657 C1672 0.960 . S
H1658 C1672 0.960 1_556 S
H1659 C1672 0.960 . S
C1660 H1652 0.929 . S
C1660 C1661 1.377 1_556 S
C1660 C1662 1.384 . S
C1661 C1660 1.377 1_554 S
C1661 C1667 1.390 . S
C1662 H1653 0.930 . S
C1662 C1660 1.384 . S
C1662 C1663 1.372 1_556 S
C1663 C1662 1.372 1_554 S
C1663 C1664 1.400 . S
C1663 C1668 1.490 . S
C1664 H1654 0.930 . S
C1664 C1663 1.400 . S
C1664 C1667 1.386 . S
H1665 C1681 0.930 . S
H1666 C1682 0.931 . S
C1667 H1655 0.929 . S
C1667 C1661 1.390 . S
C1667 C1664 1.386 . S
C1668 C1663 1.490 . S
C1668 C1670 1.395 . S
C1668 C1671 1.403 . S
H1669 C1675 0.930 . S
C1670 H1656 0.930 . S
C1670 C1668 1.395 . S
C1670 C1673 1.403 . S
C1671 C1668 1.403 . S
C1671 C1672 1.524 . S
C1671 C1675 1.400 . S
C1672 H1657 0.960 . S
C1672 H1658 0.960 1_554 S
C1672 H1659 0.960 . S
C1672 C1671 1.524 . S
C1673 C1670 1.403 . S
C1673 C1674 1.392 . S
C1673 C1677 1.495 . S
C1674 C1673 1.392 . S
C1674 C1675 1.385 . S
C1674 C1676 1.478 . S
C1675 H1669 0.930 . S
C1675 C1671 1.400 . S
C1675 C1674 1.385 . S
C1676 C1674 1.478 . S
C1676 C1678 1.381 1_554 S
C1676 C1682 1.383 . S
C1677 C1673 1.495 . S
C1677 H1683 0.959 . S
C1677 H1684 0.961 . S
C1677 H1685 0.960 . S
C1678 C1676 1.381 1_556 S
C1678 C1679 1.394 . S
C1678 H1686 0.930 . S
C1679 C1678 1.394 . S
C1679 C1680 1.383 1_556 S
C1679 H1687 0.929 . S
C1680 C1679 1.383 1_554 S
C1680 C1681 1.377 . S
C1681 H1665 0.930 . S
C1681 C1680 1.377 . S
C1681 C1682 1.379 . S
C1682 H1666 0.931 . S
C1682 C1676 1.383 . S
C1682 C1681 1.379 . S
H1683 C1677 0.959 . S
H1684 C1677 0.961 . S
H1685 C1677 0.960 . S
H1686 C1678 0.930 . S
H1687 C1679 0.929 . S
H1688 C1696 0.929 . S
H1689 C1698 0.930 . S
H1690 C1700 0.930 . S
H1691 C1703 0.929 . S
H1692 C1706 0.930 . S
H1693 C1708 0.960 . S
H1694 C1708 0.960 . S
H1695 C1708 0.960 . S
C1696 H1688 0.929 . S
C1696 C1697 1.377 . S
C1696 C1698 1.384 . S
C1697 C1696 1.377 . S
C1697 C1703 1.390 . S
C1698 H1689 0.930 . S
C1698 C1696 1.384 . S
C1698 C1699 1.372 . S
C1699 C1698 1.372 . S
C1699 C1700 1.400 . S
C1699 C1704 1.490 . S
C1700 H1690 0.930 . S
C1700 C1699 1.400 . S
C1700 C1703 1.386 . S
H1701 C1717 0.930 . S
H1702 C1718 0.931 . S
C1703 H1691 0.929 . S
C1703 C1697 1.390 . S
C1703 C1700 1.386 . S
C1704 C1699 1.490 . S
C1704 C1706 1.395 . S
C1704 C1707 1.403 . S
H1705 C1711 0.930 . S
C1706 H1692 0.930 . S
C1706 C1704 1.395 . S
C1706 C1709 1.403 . S
C1707 C1704 1.403 . S
C1707 C1708 1.524 . S
C1707 C1711 1.400 . S
C1708 H1693 0.960 . S
C1708 H1694 0.960 . S
C1708 H1695 0.960 . S
C1708 C1707 1.524 . S
C1709 C1706 1.403 . S
C1709 C1710 1.392 . S
C1709 C1713 1.495 . S
C1710 C1709 1.392 . S
C1710 C1711 1.385 . S
C1710 C1712 1.478 . S
C1711 H1705 0.930 . S
C1711 C1707 1.400 . S
C1711 C1710 1.385 . S
C1712 C1710 1.478 . S
C1712 C1714 1.381 . S
C1712 C1718 1.383 . S
C1713 C1709 1.495 . S
C1713 H1719 0.959 . S
C1713 H1720 0.961 . S
C1713 H1721 0.960 . S
C1714 C1712 1.381 . S
C1714 C1715 1.394 . S
C1714 H1722 0.930 . S
C1715 C1714 1.394 . S
C1715 C1716 1.383 . S
C1715 H1723 0.929 . S
C1716 C1715 1.383 . S
C1716 C1717 1.377 . S
C1717 H1701 0.930 . S
C1717 C1716 1.377 . S
C1717 C1718 1.379 . S
C1718 H1702 0.931 . S
C1718 C1712 1.383 . S
C1718 C1717 1.379 . S
H1719 C1713 0.959 . S
H1720 C1713 0.961 . S
H1721 C1713 0.960 . S
H1722 C1714 0.930 . S
H1723 C1715 0.929 . S
H1724 C1732 0.929 . S
H1725 C1734 0.930 . S
H1726 C1736 0.930 . S
H1727 C1739 0.929 . S
H1728 C1742 0.930 . S
H1729 C1744 0.960 . S
H1730 C1744 0.960 . S
H1731 C1744 0.960 . S
C1732 H1724 0.929 . S
C1732 C1733 1.377 . S
C1732 C1734 1.384 . S
C1733 C1732 1.377 . S
C1733 C1739 1.390 . S
C1734 H1725 0.930 . S
C1734 C1732 1.384 . S
C1734 C1735 1.372 . S
C1735 C1734 1.372 . S
C1735 C1736 1.400 . S
C1735 C1740 1.490 . S
C1736 H1726 0.930 . S
C1736 C1735 1.400 . S
C1736 C1739 1.386 . S
H1737 C1753 0.930 . S
H1738 C1754 0.931 . S
C1739 H1727 0.929 . S
C1739 C1733 1.390 . S
C1739 C1736 1.386 . S
C1740 C1735 1.490 . S
C1740 C1742 1.395 . S
C1740 C1743 1.403 . S
H1741 C1747 0.930 . S
C1742 H1728 0.930 . S
C1742 C1740 1.395 . S
C1742 C1745 1.403 . S
C1743 C1740 1.403 . S
C1743 C1744 1.524 . S
C1743 C1747 1.400 . S
C1744 H1729 0.960 . S
C1744 H1730 0.960 . S
C1744 H1731 0.960 . S
C1744 C1743 1.524 . S
C1745 C1742 1.403 . S
C1745 C1746 1.392 . S
C1745 C1749 1.495 . S
C1746 C1745 1.392 . S
C1746 C1747 1.385 . S
C1746 C1748 1.478 . S
C1747 H1741 0.930 . S
C1747 C1743 1.400 . S
C1747 C1746 1.385 . S
C1748 C1746 1.478 . S
C1748 C1750 1.381 . S
C1748 C1754 1.383 . S
C1749 C1745 1.495 . S
C1749 H1755 0.959 . S
C1749 H1756 0.961 . S
C1749 H1757 0.960 . S
C1750 C1748 1.381 . S
C1750 C1751 1.394 . S
C1750 H1758 0.930 . S
C1751 C1750 1.394 . S
C1751 C1752 1.383 . S
C1751 H1759 0.929 . S
C1752 C1751 1.383 . S
C1752 C1753 1.377 . S
C1753 H1737 0.930 . S
C1753 C1752 1.377 . S
C1753 C1754 1.379 . S
C1754 H1738 0.931 . S
C1754 C1748 1.383 . S
C1754 C1753 1.379 . S
H1755 C1749 0.959 . S
H1756 C1749 0.961 . S
H1757 C1749 0.960 . S
H1758 C1750 0.930 . S
H1759 C1751 0.929 . S
H1760 C1768 0.929 . S
H1761 C1770 0.930 . S
H1762 C1772 0.930 . S
H1763 C1775 0.929 . S
H1764 C1778 0.930 . S
H1765 C1780 0.960 . S
H1766 C1780 0.960 . S
H1767 C1780 0.960 . S
C1768 H1760 0.929 . S
C1768 C1769 1.377 . S
C1768 C1770 1.384 . S
C1769 C1768 1.377 . S
C1769 C1775 1.390 . S
C1770 H1761 0.930 . S
C1770 C1768 1.384 . S
C1770 C1771 1.372 . S
C1771 C1770 1.372 . S
C1771 C1772 1.400 . S
C1771 C1776 1.490 . S
C1772 H1762 0.930 . S
C1772 C1771 1.400 . S
C1772 C1775 1.386 . S
H1773 C1789 0.930 . S
H1774 C1790 0.931 . S
C1775 H1763 0.929 . S
C1775 C1769 1.390 . S
C1775 C1772 1.386 . S
C1776 C1771 1.490 . S
C1776 C1778 1.395 . S
C1776 C1779 1.403 . S
H1777 C1783 0.930 . S
C1778 H1764 0.930 . S
C1778 C1776 1.395 . S
C1778 C1781 1.403 . S
C1779 C1776 1.403 . S
C1779 C1780 1.524 . S
C1779 C1783 1.400 . S
C1780 H1765 0.960 . S
C1780 H1766 0.960 . S
C1780 H1767 0.960 . S
C1780 C1779 1.524 . S
C1781 C1778 1.403 . S
C1781 C1782 1.392 . S
C1781 C1785 1.495 . S
C1782 C1781 1.392 . S
C1782 C1783 1.385 . S
C1782 C1784 1.478 . S
C1783 H1777 0.930 . S
C1783 C1779 1.400 . S
C1783 C1782 1.385 . S
C1784 C1782 1.478 . S
C1784 C1786 1.381 . S
C1784 C1790 1.383 . S
C1785 C1781 1.495 . S
C1785 H1791 0.959 . S
C1785 H1792 0.961 . S
C1785 H1793 0.960 . S
C1786 C1784 1.381 . S
C1786 C1787 1.394 . S
C1786 H1794 0.930 . S
C1787 C1786 1.394 . S
C1787 C1788 1.383 . S
C1787 H1795 0.929 . S
C1788 C1787 1.383 . S
C1788 C1789 1.377 . S
C1789 H1773 0.930 . S
C1789 C1788 1.377 . S
C1789 C1790 1.379 . S
C1790 H1774 0.931 . S
C1790 C1784 1.383 . S
C1790 C1789 1.379 . S
H1791 C1785 0.959 . S
H1792 C1785 0.961 . S
H1793 C1785 0.960 . S
H1794 C1786 0.930 . S
H1795 C1787 0.929 . S
H1796 C1804 0.929 . S
H1797 C1806 0.930 . S
H1798 C1808 0.930 . S
H1799 C1811 0.929 . S
H1800 C1814 0.930 . S
H1801 C1816 0.960 . S
H1802 C1816 0.960 . S
H1803 C1816 0.960 . S
C1804 H1796 0.929 . S
C1804 C1805 1.377 . S
C1804 C1806 1.384 . S
C1805 C1804 1.377 . S
C1805 C1811 1.390 . S
C1806 H1797 0.930 . S
C1806 C1804 1.384 . S
C1806 C1807 1.372 . S
C1807 C1806 1.372 . S
C1807 C1808 1.400 . S
C1807 C1812 1.490 . S
C1808 H1798 0.930 . S
C1808 C1807 1.400 . S
C1808 C1811 1.386 . S
H1809 C1825 0.930 . S
H1810 C1826 0.931 . S
C1811 H1799 0.929 . S
C1811 C1805 1.390 . S
C1811 C1808 1.386 . S
C1812 C1807 1.490 . S
C1812 C1814 1.395 . S
C1812 C1815 1.403 . S
H1813 C1819 0.930 . S
C1814 H1800 0.930 . S
C1814 C1812 1.395 . S
C1814 C1817 1.403 . S
C1815 C1812 1.403 . S
C1815 C1816 1.524 . S
C1815 C1819 1.400 . S
C1816 H1801 0.960 . S
C1816 H1802 0.960 . S
C1816 H1803 0.960 . S
C1816 C1815 1.524 . S
C1817 C1814 1.403 . S
C1817 C1818 1.392 . S
C1817 C1821 1.495 . S
C1818 C1817 1.392 . S
C1818 C1819 1.385 . S
C1818 C1820 1.478 . S
C1819 H1813 0.930 . S
C1819 C1815 1.400 . S
C1819 C1818 1.385 . S
C1820 C1818 1.478 . S
C1820 C1822 1.381 . S
C1820 C1826 1.383 . S
C1821 C1817 1.495 . S
C1821 H1827 0.959 . S
C1821 H1828 0.961 . S
C1821 H1829 0.960 . S
C1822 C1820 1.381 . S
C1822 C1823 1.394 . S
C1822 H1830 0.930 . S
C1823 C1822 1.394 . S
C1823 C1824 1.383 . S
C1823 H1831 0.929 . S
C1824 C1823 1.383 . S
C1824 C1825 1.377 . S
C1825 H1809 0.930 . S
C1825 C1824 1.377 . S
C1825 C1826 1.379 . S
C1826 H1810 0.931 . S
C1826 C1820 1.383 . S
C1826 C1825 1.379 . S
H1827 C1821 0.959 . S
H1828 C1821 0.961 . S
H1829 C1821 0.960 . S
H1830 C1822 0.930 . S
H1831 C1823 0.929 . S
H1832 C1840 0.929 . S
H1833 C1842 0.930 . S
H1834 C1844 0.930 . S
H1835 C1847 0.929 . S
H1836 C1850 0.930 . S
H1837 C1852 0.960 . S
H1838 C1852 0.960 1_554 S
H1839 C1852 0.960 . S
C1840 H1832 0.929 . S
C1840 C1841 1.377 1_554 S
C1840 C1842 1.384 . S
C1841 C1840 1.377 1_556 S
C1841 C1847 1.390 . S
C1842 H1833 0.930 . S
C1842 C1840 1.384 . S
C1842 C1843 1.372 1_554 S
C1843 C1842 1.372 1_556 S
C1843 C1844 1.400 . S
C1843 C1848 1.490 . S
C1844 H1834 0.930 . S
C1844 C1843 1.400 . S
C1844 C1847 1.386 . S
H1845 C1861 0.930 . S
H1846 C1862 0.931 . S
C1847 H1835 0.929 . S
C1847 C1841 1.390 . S
C1847 C1844 1.386 . S
C1848 C1843 1.490 . S
C1848 C1850 1.395 . S
C1848 C1851 1.403 . S
H1849 C1855 0.930 . S
C1850 H1836 0.930 . S
C1850 C1848 1.395 . S
C1850 C1853 1.403 . S
C1851 C1848 1.403 . S
C1851 C1852 1.524 . S
C1851 C1855 1.400 . S
C1852 H1837 0.960 . S
C1852 H1838 0.960 1_556 S
C1852 H1839 0.960 . S
C1852 C1851 1.524 . S
C1853 C1850 1.403 . S
C1853 C1854 1.392 . S
C1853 C1857 1.495 . S
C1854 C1853 1.392 . S
C1854 C1855 1.385 . S
C1854 C1856 1.478 . S
C1855 H1849 0.930 . S
C1855 C1851 1.400 . S
C1855 C1854 1.385 . S
C1856 C1854 1.478 . S
C1856 C1858 1.381 1_556 S
C1856 C1862 1.383 . S
C1857 C1853 1.495 . S
C1857 H1863 0.959 . S
C1857 H1864 0.961 . S
C1857 H1865 0.960 1_556 S
C1858 C1856 1.381 1_554 S
C1858 C1859 1.394 . S
C1858 H1866 0.930 . S
C1859 C1858 1.394 . S
C1859 C1860 1.383 1_554 S
C1859 H1867 0.929 . S
C1860 C1859 1.383 1_556 S
C1860 C1861 1.377 . S
C1861 H1845 0.930 . S
C1861 C1860 1.377 . S
C1861 C1862 1.379 . S
C1862 H1846 0.931 . S
C1862 C1856 1.383 . S
C1862 C1861 1.379 . S
H1863 C1857 0.959 . S
H1864 C1857 0.961 . S
H1865 C1857 0.960 1_554 S
H1866 C1858 0.930 . S
H1867 C1859 0.929 . S
H1868 C1876 0.929 . S
H1869 C1878 0.930 . S
H1870 C1880 0.930 . S
H1871 C1883 0.929 . S
H1872 C1886 0.930 . S
H1873 C1888 0.960 . S
H1874 C1888 0.960 . S
H1875 C1888 0.960 . S
C1876 H1868 0.929 . S
C1876 C1877 1.377 . S
C1876 C1878 1.384 . S
C1877 C1876 1.377 . S
C1877 C1883 1.390 . S
C1878 H1869 0.930 . S
C1878 C1876 1.384 . S
C1878 C1879 1.372 . S
C1879 C1878 1.372 . S
C1879 C1880 1.400 . S
C1879 C1884 1.490 . S
C1880 H1870 0.930 . S
C1880 C1879 1.400 . S
C1880 C1883 1.386 . S
H1881 C1897 0.930 . S
H1882 C1898 0.931 . S
C1883 H1871 0.929 . S
C1883 C1877 1.390 . S
C1883 C1880 1.386 . S
C1884 C1879 1.490 . S
C1884 C1886 1.395 . S
C1884 C1887 1.403 . S
H1885 C1891 0.930 . S
C1886 H1872 0.930 . S
C1886 C1884 1.395 . S
C1886 C1889 1.403 . S
C1887 C1884 1.403 . S
C1887 C1888 1.524 . S
C1887 C1891 1.400 . S
C1888 H1873 0.960 . S
C1888 H1874 0.960 . S
C1888 H1875 0.960 . S
C1888 C1887 1.524 . S
C1889 C1886 1.403 . S
C1889 C1890 1.392 . S
C1889 C1893 1.495 . S
C1890 C1889 1.392 . S
C1890 C1891 1.385 . S
C1890 C1892 1.478 . S
C1891 H1885 0.930 . S
C1891 C1887 1.400 . S
C1891 C1890 1.385 . S
C1892 C1890 1.478 . S
C1892 C1894 1.381 . S
C1892 C1898 1.383 . S
C1893 C1889 1.495 . S
C1893 H1899 0.959 . S
C1893 H1900 0.961 . S
C1893 H1901 0.960 . S
C1894 C1892 1.381 . S
C1894 C1895 1.394 . S
C1894 H1902 0.930 . S
C1895 C1894 1.394 . S
C1895 C1896 1.383 . S
C1895 H1903 0.929 . S
C1896 C1895 1.383 . S
C1896 C1897 1.377 . S
C1897 H1881 0.930 . S
C1897 C1896 1.377 . S
C1897 C1898 1.379 . S
C1898 H1882 0.931 . S
C1898 C1892 1.383 . S
C1898 C1897 1.379 . S
H1899 C1893 0.959 . S
H1900 C1893 0.961 . S
H1901 C1893 0.960 . S
H1902 C1894 0.930 . S
H1903 C1895 0.929 . S
H1904 C1912 0.929 . S
H1905 C1914 0.930 . S
H1906 C1916 0.930 . S
H1907 C1919 0.929 . S
H1908 C1922 0.930 . S
H1909 C1924 0.960 . S
H1910 C1924 0.960 . S
H1911 C1924 0.960 . S
C1912 H1904 0.929 . S
C1912 C1913 1.377 . S
C1912 C1914 1.384 . S
C1913 C1912 1.377 . S
C1913 C1919 1.390 . S
C1914 H1905 0.930 . S
C1914 C1912 1.384 . S
C1914 C1915 1.372 . S
C1915 C1914 1.372 . S
C1915 C1916 1.400 . S
C1915 C1920 1.490 . S
C1916 H1906 0.930 . S
C1916 C1915 1.400 . S
C1916 C1919 1.386 . S
H1917 C1933 0.930 . S
H1918 C1934 0.931 . S
C1919 H1907 0.929 . S
C1919 C1913 1.390 . S
C1919 C1916 1.386 . S
C1920 C1915 1.490 . S
C1920 C1922 1.395 . S
C1920 C1923 1.403 . S
H1921 C1927 0.930 . S
C1922 H1908 0.930 . S
C1922 C1920 1.395 . S
C1922 C1925 1.403 . S
C1923 C1920 1.403 . S
C1923 C1924 1.524 . S
C1923 C1927 1.400 . S
C1924 H1909 0.960 . S
C1924 H1910 0.960 . S
C1924 H1911 0.960 . S
C1924 C1923 1.524 . S
C1925 C1922 1.403 . S
C1925 C1926 1.392 . S
C1925 C1929 1.495 . S
C1926 C1925 1.392 . S
C1926 C1927 1.385 . S
C1926 C1928 1.478 . S
C1927 H1921 0.930 . S
C1927 C1923 1.400 . S
C1927 C1926 1.385 . S
C1928 C1926 1.478 . S
C1928 C1930 1.381 . S
C1928 C1934 1.383 . S
C1929 C1925 1.495 . S
C1929 H1935 0.959 . S
C1929 H1936 0.961 . S
C1929 H1937 0.960 . S
C1930 C1928 1.381 . S
C1930 C1931 1.394 . S
C1930 H1938 0.930 . S
C1931 C1930 1.394 . S
C1931 C1932 1.383 . S
C1931 H1939 0.929 . S
C1932 C1931 1.383 . S
C1932 C1933 1.377 . S
C1933 H1917 0.930 . S
C1933 C1932 1.377 . S
C1933 C1934 1.379 . S
C1934 H1918 0.931 . S
C1934 C1928 1.383 . S
C1934 C1933 1.379 . S
H1935 C1929 0.959 . S
H1936 C1929 0.961 . S
H1937 C1929 0.960 . S
H1938 C1930 0.930 . S
H1939 C1931 0.929 . S
H1940 C1948 0.929 . S
H1941 C1950 0.930 . S
H1942 C1952 0.930 . S
H1943 C1955 0.929 . S
H1944 C1958 0.930 . S
H1945 C1960 0.960 . S
H1946 C1960 0.960 . S
H1947 C1960 0.960 . S
C1948 H1940 0.929 . S
C1948 C1949 1.377 . S
C1948 C1950 1.384 . S
C1949 C1948 1.377 . S
C1949 C1955 1.390 . S
C1950 H1941 0.930 . S
C1950 C1948 1.384 . S
C1950 C1951 1.372 . S
C1951 C1950 1.372 . S
C1951 C1952 1.400 . S
C1951 C1956 1.490 . S
C1952 H1942 0.930 . S
C1952 C1951 1.400 . S
C1952 C1955 1.386 . S
H1953 C1969 0.930 . S
H1954 C1970 0.931 . S
C1955 H1943 0.929 . S
C1955 C1949 1.390 . S
C1955 C1952 1.386 . S
C1956 C1951 1.490 . S
C1956 C1958 1.395 . S
C1956 C1959 1.403 . S
H1957 C1963 0.930 . S
C1958 H1944 0.930 . S
C1958 C1956 1.395 . S
C1958 C1961 1.403 . S
C1959 C1956 1.403 . S
C1959 C1960 1.524 . S
C1959 C1963 1.400 . S
C1960 H1945 0.960 . S
C1960 H1946 0.960 . S
C1960 H1947 0.960 . S
C1960 C1959 1.524 . S
C1961 C1958 1.403 . S
C1961 C1962 1.392 . S
C1961 C1965 1.495 . S
C1962 C1961 1.392 . S
C1962 C1963 1.385 . S
C1962 C1964 1.478 . S
C1963 H1957 0.930 . S
C1963 C1959 1.400 . S
C1963 C1962 1.385 . S
C1964 C1962 1.478 . S
C1964 C1966 1.381 . S
C1964 C1970 1.383 . S
C1965 C1961 1.495 . S
C1965 H1971 0.959 . S
C1965 H1972 0.961 . S
C1965 H1973 0.960 . S
C1966 C1964 1.381 . S
C1966 C1967 1.394 . S
C1966 H1974 0.930 . S
C1967 C1966 1.394 . S
C1967 C1968 1.383 . S
C1967 H1975 0.929 . S
C1968 C1967 1.383 . S
C1968 C1969 1.377 . S
C1969 H1953 0.930 . S
C1969 C1968 1.377 . S
C1969 C1970 1.379 . S
C1970 H1954 0.931 . S
C1970 C1964 1.383 . S
C1970 C1969 1.379 . S
H1971 C1965 0.959 . S
H1972 C1965 0.961 . S
H1973 C1965 0.960 . S
H1974 C1966 0.930 . S
H1975 C1967 0.929 . S
H1976 C1984 0.929 . S
H1977 C1986 0.930 . S
H1978 C1988 0.930 . S
H1979 C1991 0.929 . S
H1980 C1994 0.930 . S
H1981 C1996 0.960 . S
H1982 C1996 0.960 . S
H1983 C1996 0.960 . S
C1984 H1976 0.929 . S
C1984 C1985 1.377 . S
C1984 C1986 1.384 . S
C1985 C1984 1.377 . S
C1985 C1991 1.390 . S
C1986 H1977 0.930 . S
C1986 C1984 1.384 . S
C1986 C1987 1.372 . S
C1987 C1986 1.372 . S
C1987 C1988 1.400 . S
C1987 C1992 1.490 . S
C1988 H1978 0.930 . S
C1988 C1987 1.400 . S
C1988 C1991 1.386 . S
H1989 C2005 0.930 . S
H1990 C2006 0.931 . S
C1991 H1979 0.929 . S
C1991 C1985 1.390 . S
C1991 C1988 1.386 . S
C1992 C1987 1.490 . S
C1992 C1994 1.395 . S
C1992 C1995 1.403 . S
H1993 C1999 0.930 . S
C1994 H1980 0.930 . S
C1994 C1992 1.395 . S
C1994 C1997 1.403 . S
C1995 C1992 1.403 . S
C1995 C1996 1.524 . S
C1995 C1999 1.400 . S
C1996 H1981 0.960 . S
C1996 H1982 0.960 . S
C1996 H1983 0.960 . S
C1996 C1995 1.524 . S
C1997 C1994 1.403 . S
C1997 C1998 1.392 . S
C1997 C2001 1.495 . S
C1998 C1997 1.392 . S
C1998 C1999 1.385 . S
C1998 C2000 1.478 . S
C1999 H1993 0.930 . S
C1999 C1995 1.400 . S
C1999 C1998 1.385 . S
C2000 C1998 1.478 . S
C2000 C2002 1.381 . S
C2000 C2006 1.383 . S
C2001 C1997 1.495 . S
C2001 H2007 0.959 . S
C2001 H2008 0.961 . S
C2001 H2009 0.960 . S
C2002 C2000 1.381 . S
C2002 C2003 1.394 . S
C2002 H2010 0.930 . S
C2003 C2002 1.394 . S
C2003 C2004 1.383 . S
C2003 H2011 0.929 . S
C2004 C2003 1.383 . S
C2004 C2005 1.377 . S
C2005 H1989 0.930 . S
C2005 C2004 1.377 . S
C2005 C2006 1.379 . S
C2006 H1990 0.931 . S
C2006 C2000 1.383 . S
C2006 C2005 1.379 . S
H2007 C2001 0.959 . S
H2008 C2001 0.961 . S
H2009 C2001 0.960 . S
H2010 C2002 0.930 . S
H2011 C2003 0.929 . S
H2012 C2020 0.929 . S
H2013 C2022 0.930 . S
H2014 C2024 0.930 . S
H2015 C2027 0.929 . S
H2016 C2030 0.930 . S
H2017 C2032 0.960 . S
H2018 C2032 0.960 . S
H2019 C2032 0.960 . S
C2020 H2012 0.929 . S
C2020 C2021 1.377 . S
C2020 C2022 1.384 . S
C2021 C2020 1.377 . S
C2021 C2027 1.390 . S
C2022 H2013 0.930 . S
C2022 C2020 1.384 . S
C2022 C2023 1.372 . S
C2023 C2022 1.372 . S
C2023 C2024 1.400 . S
C2023 C2028 1.490 . S
C2024 H2014 0.930 . S
C2024 C2023 1.400 . S
C2024 C2027 1.386 . S
H2025 C2041 0.930 . S
H2026 C2042 0.931 . S
C2027 H2015 0.929 . S
C2027 C2021 1.390 . S
C2027 C2024 1.386 . S
C2028 C2023 1.490 . S
C2028 C2030 1.395 . S
C2028 C2031 1.403 . S
H2029 C2035 0.930 . S
C2030 H2016 0.930 . S
C2030 C2028 1.395 . S
C2030 C2033 1.403 . S
C2031 C2028 1.403 . S
C2031 C2032 1.524 . S
C2031 C2035 1.400 . S
C2032 H2017 0.960 . S
C2032 H2018 0.960 . S
C2032 H2019 0.960 . S
C2032 C2031 1.524 . S
C2033 C2030 1.403 . S
C2033 C2034 1.392 . S
C2033 C2037 1.495 . S
C2034 C2033 1.392 . S
C2034 C2035 1.385 . S
C2034 C2036 1.478 . S
C2035 H2029 0.930 . S
C2035 C2031 1.400 . S
C2035 C2034 1.385 . S
C2036 C2034 1.478 . S
C2036 C2038 1.381 . S
C2036 C2042 1.383 . S
C2037 C2033 1.495 . S
C2037 H2043 0.959 . S
C2037 H2044 0.961 . S
C2037 H2045 0.960 . S
C2038 C2036 1.381 . S
C2038 C2039 1.394 . S
C2038 H2046 0.930 . S
C2039 C2038 1.394 . S
C2039 C2040 1.383 . S
C2039 H2047 0.929 . S
C2040 C2039 1.383 . S
C2040 C2041 1.377 . S
C2041 H2025 0.930 . S
C2041 C2040 1.377 . S
C2041 C2042 1.379 . S
C2042 H2026 0.931 . S
C2042 C2036 1.383 . S
C2042 C2041 1.379 . S
H2043 C2037 0.959 . S
H2044 C2037 0.961 . S
H2045 C2037 0.960 . S
H2046 C2038 0.930 . S
H2047 C2039 0.929 . S
C329 C19 0.807 . S
C348 C21 0.767 . S
C365 C59 1.118 . S
C384 C38 1.117 . S
C401 C78 1.255 . S
C420 C49 1.213 . S
C437 C9 0.884 . S
C456 C61 0.928 . S
C473 C8 0.884 . S
C492 C182 0.861 . S
C509 C158 0.807 . S
C528 C22 0.837 . S
C545 C58 1.117 . S
C564 C219 1.110 . S
C581 C79 1.257 . S
C600 C268 1.256 . S
C617 C178 1.119 . S
C636 C39 1.106 . S
C653 C259 1.257 . S
C672 C48 1.255 . S
C689 C288 0.899 . S
C708 C62 0.923 . S
C725 C18 0.807 . S
C744 C222 0.782 . S
C761 C1 0.237 . S
C780 C162 0.331 . S
C797 C249 0.927 . S
C816 C88 0.894 . S
C833 C101 0.282 . S
C852 C282 0.333 . S
C869 C228 0.924 . S
C888 C129 0.961 . S
C905 C41 0.268 . S
C924 C142 0.331 . S
C941 C188 0.926 . S
C960 C89 0.961 . S
C977 C128 0.922 . S
C996 C209 0.959 . S
C1013 C118 1.119 . S
C1032 C239 1.108 . S
C1049 C199 1.257 . S
C1068 C108 1.256 . S
C1085 C221 0.809 . S
C1104 C159 0.804 . S
C1121 C119 1.119 . S
C1140 C98 1.114 . S
C1157 C198 1.256 . S
C1176 C169 1.209 . S
C1193 C279 1.119 . S
C1212 C238 1.116 . S
C1229 C138 1.257 . S
C1248 C109 1.202 . S
C1265 C181 0.899 . S
C1284 C289 0.856 . S
C1301 C261 0.304 . S
C1320 C2 0.240 . S
C1337 C42 0.292 . S
C1356 C281 0.330 . S
C1373 C248 0.927 . S
C1392 C29 0.956 . S
C1409 C141 0.271 . S
C1428 C102 0.245 . S
C1445 C69 0.927 . S
C1464 C208 0.957 . S
C1481 C258 1.257 . S
C1500 C269 1.201 . S
C1517 C149 0.884 . S
C1536 C241 0.927 . S
C1553 C122 0.892 . S
C1572 C148 0.865 . S
C1589 C99 1.117 . S
C1608 C278 1.110 . S
C1625 C242 0.897 . S
C1644 C308 0.889 . S
C1661 C302 0.256 . S
C1680 C161 0.353 . S
C1697 C28 0.926 . S
C1716 C189 0.960 . S
C1733 C168 1.232 . S
C1752 C139 1.249 . S
C1769 C179 1.118 . S
C1788 C218 1.124 . S
C1805 C309 0.885 . S
C1824 C121 0.926 . S
C1841 C262 0.291 . S
C1860 C301 0.334 . S
C1877 C229 0.922 . S
C1896 C68 0.960 . S
C1913 C201 0.808 . S
C1932 C299 0.801 . S
C1949 C202 0.804 . S
C1968 C318 0.804 . S
C1985 C82 0.804 . S
C2004 C298 0.812 . S
C2021 C319 0.806 . S
C2040 C81 0.825 . S
