# Generated by pormake.
# Topology npo, (4)-cn, num edge types: 1
# Building blocks:
#     Node 0, Type 0, BuildingBlock: NAHDIM_clean_sbu_0, # of connection points: 4
#     Node 1, Type 0, BuildingBlock: NAHDIM_clean_sbu_0, # of connection points: 4
#     Node 2, Type 0, BuildingBlock: NAHDIM_clean_sbu_0, # of connection points: 4
#     Node 3, Type 0, BuildingBlock: NAHDIM_clean_sbu_0, # of connection points: 4
#     Node 4, Type 0, BuildingBlock: NAHDIM_clean_sbu_0, # of connection points: 4
#     Node 5, Type 0, BuildingBlock: NAHDIM_clean_sbu_0, # of connection points: 4
#     Edge 6, Type (0, 0), BuildingBlock: XIVTED_clean_linker_0, # of connection points: 2
#     Edge 7, Type (0, 0), BuildingBlock: XIVTED_clean_linker_0, # of connection points: 2
#     Edge 8, Type (0, 0), BuildingBlock: XIVTED_clean_linker_0, # of connection points: 2
#     Edge 9, Type (0, 0), BuildingBlock: XIVTED_clean_linker_0, # of connection points: 2
#     Edge 10, Type (0, 0), BuildingBlock: XIVTED_clean_linker_0, # of connection points: 2
#     Edge 11, Type (0, 0), BuildingBlock: XIVTED_clean_linker_0, # of connection points: 2
#     Edge 12, Type (0, 0), BuildingBlock: XIVTED_clean_linker_0, # of connection points: 2
#     Edge 13, Type (0, 0), BuildingBlock: XIVTED_clean_linker_0, # of connection points: 2
#     Edge 14, Type (0, 0), BuildingBlock: XIVTED_clean_linker_0, # of connection points: 2
#     Edge 15, Type (0, 0), BuildingBlock: XIVTED_clean_linker_0, # of connection points: 2
#     Edge 16, Type (0, 0), BuildingBlock: XIVTED_clean_linker_0, # of connection points: 2
#     Edge 17, Type (0, 0), BuildingBlock: XIVTED_clean_linker_0, # of connection points: 2
# Relax obj value: 0.248
# Max RMSD: 0.225
# Mean RMSD: 0.223
data_MOF--net-npo--node1-NAHDIM_clean_sbu_0--edge1-XIVTED_clean_linker_0
_symmetry_space_group_name_H-M    P1
_symmetry_Int_Tables_number       1
_symmetry_cell_setting            triclinic
loop_
_symmetry_equiv_pos_as_xyz
'x, y, z'
_cell_length_a     41.162082
_cell_length_b     43.424004
_cell_length_c     25.11736
_cell_angle_alpha  92.102608
_cell_angle_beta   89.851172
_cell_angle_gamma 118.53581
loop_
_atom_site_label
_atom_site_type_symbol
_atom_site_fract_x
_atom_site_fract_y
_atom_site_fract_z
_atom_type_partial_charge
C0 C 0.49503 0.05859 0.33373 0.0
O1 O 0.51205 0.0539 0.29239 0.0
O2 O 0.56066 0.14088 0.27045 0.0
Zn3 Zn 0.50509 0.11405 0.27093 0.0
O4 O 0.48721 0.08171 0.20606 0.0
C5 C 0.47024 0.15299 0.23035 0.0
O6 O 0.46144 0.13047 0.18962 0.0
O7 O 0.48837 0.08432 0.33491 0.0
C8 C 0.50566 0.08841 0.16349 0.0
O9 O 0.53672 0.118 0.16087 0.0
C10 C 0.58061 0.1492 0.3125 0.0
O11 O 0.56472 0.13916 0.35871 0.0
O12 O 0.48694 0.1497 0.27047 0.0
C13 C 0.45865 0.55877 0.51307 0.0
O14 O 0.42415 0.54977 0.52428 0.0
O15 O 0.41677 0.55097 0.63896 0.0
Zn16 Zn 0.47169 0.5765 0.62635 0.0
O17 O 0.49626 0.55733 0.6738 0.0
C18 C 0.49156 0.63761 0.69391 0.0
O19 O 0.4844 0.61482 0.73109 0.0
O20 O 0.48304 0.57074 0.55011 0.0
C21 C 0.52989 0.57427 0.68898 0.0
O22 O 0.55091 0.6058 0.67149 0.0
C23 C 0.40446 0.53782 0.68377 0.0
O24 O 0.42779 0.53944 0.72073 0.0
O25 O 0.48922 0.62745 0.64529 0.0
C26 C 0.90039 0.44388 0.45817 0.0
O27 O 0.87489 0.45309 0.44887 0.0
O28 O 0.85746 0.44233 0.3339 0.0
Zn29 Zn 0.88619 0.41662 0.34816 0.0
O30 O 0.92598 0.42953 0.29376 0.0
C31 C 0.83355 0.3504 0.29933 0.0
O32 O 0.8434 0.3684 0.25585 0.0
O33 O 0.90927 0.42865 0.42128 0.0
C34 C 0.93725 0.40916 0.27352 0.0
O35 O 0.92308 0.37682 0.28927 0.0
C36 C 0.85581 0.45175 0.28708 0.0
O37 O 0.87496 0.44658 0.24923 0.0
O38 O 0.8495 0.36526 0.3433 0.0
C39 C 0.43473 0.90188 0.64259 0.0
O40 O 0.44084 0.87482 0.63912 0.0
O41 O 0.45218 0.85867 0.7436 0.0
Zn42 Zn 0.42176 0.88336 0.75239 0.0
O43 O 0.44024 0.91745 0.81526 0.0
C44 C 0.34705 0.82885 0.72606 0.0
O45 O 0.3576 0.83636 0.67668 0.0
O46 O 0.42545 0.91004 0.687 0.0
C47 C 0.42381 0.91027 0.85957 0.0
O48 O 0.39455 0.87953 0.8648 0.0
C49 C 0.45817 0.844 0.7824 0.0
O50 O 0.44604 0.84689 0.82976 0.0
O51 O 0.36937 0.84625 0.76402 0.0
C52 C 0.59436 0.4985 0.02319 0.0
O53 O 0.62358 0.51974 0.05227 0.0
O54 O 0.62604 0.47092 0.1361 0.0
Zn55 Zn 0.5738 0.45998 0.11886 0.0
O56 O 0.55917 0.48828 0.16835 0.0
C57 C 0.53107 0.39804 0.17699 0.0
O58 O 0.54157 0.42119 0.2171 0.0
O59 O 0.56939 0.47091 0.04335 0.0
C60 C 0.52601 0.48271 0.17132 0.0
O61 O 0.50066 0.45878 0.13921 0.0
C62 C 0.63847 0.47937 0.18368 0.0
O63 O 0.61733 0.48214 0.22072 0.0
O64 O 0.54085 0.40858 0.13014 0.0
C65 C 0.08593 0.484 0.94286 0.0
O66 O 0.08813 0.46099 0.90966 0.0
O67 O 0.15375 0.51276 0.83659 0.0
Zn68 Zn 0.11553 0.52783 0.85409 0.0
O69 O 0.0732 0.50458 0.80176 0.0
C70 C 0.14334 0.59235 0.80061 0.0
O71 O 0.12827 0.57039 0.75953 0.0
O72 O 0.09677 0.51501 0.92801 0.0
C73 C 0.04822 0.51367 0.79797 0.0
O74 O 0.04892 0.53815 0.83101 0.0
C75 C 0.15784 0.50541 0.7884 0.0
O76 O 0.13539 0.50562 0.75153 0.0
O77 O 0.14042 0.58024 0.84675 0.0
H78 H 0.44913 0.17521 0.14271 0.0
H79 H 0.5149 0.36681 0.27315 0.0
H80 H 0.48473 0.20473 0.3069 0.0
H81 H 0.50344 0.34282 0.10367 0.0
H82 H 0.49012 0.30445 0.28884 0.0
H83 H 0.45476 0.23318 0.1313 0.0
C84 C 0.45752 0.19364 0.17664 0.0
C85 C 0.46709 0.1853 0.22562 0.0
C86 C 0.49266 0.31281 0.24824 0.0
C87 C 0.47373 0.25171 0.21266 0.0
C88 C 0.50676 0.34841 0.23921 0.0
C89 C 0.5118 0.36012 0.18697 0.0
C90 C 0.48343 0.28873 0.20474 0.0
C91 C 0.50048 0.33502 0.14459 0.0
C92 C 0.46087 0.22678 0.16999 0.0
C93 C 0.47756 0.21018 0.26823 0.0
N94 N 0.48713 0.30053 0.15441 0.0
N95 N 0.48099 0.2424 0.2606 0.0
H96 H 0.348 0.52897 0.6166 0.0
H97 H 0.20958 0.5027 0.85379 0.0
H98 H 0.37118 0.51711 0.7799 0.0
H99 H 0.18036 0.4993 0.68788 0.0
H100 H 0.26703 0.50343 0.82699 0.0
H101 H 0.28474 0.51371 0.641 0.0
C102 C 0.33969 0.52281 0.65748 0.0
C103 C 0.36504 0.52471 0.69639 0.0
C104 C 0.24785 0.50212 0.79643 0.0
C105 C 0.29276 0.50749 0.72469 0.0
C106 C 0.21504 0.50171 0.81172 0.0
C107 C 0.19032 0.50135 0.77303 0.0
C108 C 0.25617 0.50249 0.74208 0.0
C109 C 0.19873 0.49985 0.71911 0.0
C110 C 0.30354 0.51407 0.67139 0.0
C111 C 0.35266 0.51622 0.74865 0.0
N112 N 0.23114 0.5009 0.70525 0.0
N113 N 0.31752 0.50838 0.76139 0.0
H114 H 0.63149 0.17493 0.39468 0.0
H115 H 0.79068 0.312 0.21338 0.0
H116 H 0.62151 0.17763 0.22403 0.0
H117 H 0.80141 0.30869 0.38376 0.0
H118 H 0.73183 0.2579 0.215 0.0
H119 H 0.69657 0.219 0.39007 0.0
C120 C 0.64305 0.18453 0.35617 0.0
C121 C 0.62087 0.17291 0.30977 0.0
C122 C 0.74724 0.26879 0.25197 0.0
C123 C 0.69532 0.22347 0.30423 0.0
C124 C 0.78091 0.29968 0.25106 0.0
C125 C 0.80078 0.31518 0.2986 0.0
C126 C 0.73322 0.25337 0.30082 0.0
C127 C 0.78686 0.29787 0.34618 0.0
C128 C 0.68023 0.2097 0.35356 0.0
C129 C 0.63745 0.18608 0.26092 0.0
N130 N 0.75374 0.26812 0.34616 0.0
N131 N 0.67356 0.21091 0.25952 0.0
H132 H 0.47028 0.80453 0.85444 0.0
H133 H 0.50433 0.69057 0.62705 0.0
H134 H 0.48135 0.82839 0.68785 0.0
H135 H 0.49195 0.66583 0.79329 0.0
H136 H 0.50553 0.74616 0.65055 0.0
H137 H 0.48772 0.75892 0.83485 0.0
C138 C 0.47683 0.8005 0.81385 0.0
C139 C 0.47379 0.81995 0.7726 0.0
C140 C 0.50296 0.72876 0.68198 0.0
C141 C 0.49351 0.76761 0.74984 0.0
C142 C 0.5023 0.697 0.66858 0.0
C143 C 0.49746 0.67326 0.70818 0.0
C144 C 0.49855 0.73677 0.73531 0.0
C145 C 0.49531 0.68315 0.76137 0.0
C146 C 0.48675 0.77441 0.80268 0.0
C147 C 0.48291 0.81376 0.72084 0.0
N148 N 0.49543 0.71396 0.7733 0.0
N149 N 0.49193 0.78786 0.71084 0.0
H150 H 0.69055 0.4778 0.11713 0.0
H151 H 0.81077 0.46452 0.35467 0.0
H152 H 0.66915 0.48838 0.28334 0.0
H153 H 0.8394 0.46636 0.18888 0.0
H154 H 0.76151 0.47771 0.32983 0.0
H155 H 0.74773 0.4778 0.14279 0.0
C156 C 0.69802 0.48041 0.15901 0.0
C157 C 0.67484 0.48274 0.19817 0.0
C158 C 0.77883 0.47559 0.29894 0.0
C159 C 0.74016 0.48255 0.22787 0.0
C160 C 0.80698 0.46808 0.31311 0.0
C161 C 0.829 0.46396 0.27373 0.0
C162 C 0.77247 0.47875 0.24497 0.0
C163 C 0.82294 0.46904 0.22056 0.0
C164 C 0.73071 0.48046 0.17365 0.0
C165 C 0.68605 0.48631 0.2518 0.0
N166 N 0.79501 0.4758 0.20769 0.0
N167 N 0.71773 0.48575 0.26509 0.0
H168 H 0.29375 0.78372 0.65488 0.0
H169 H 0.18343 0.64483 0.87515 0.0
H170 H 0.31937 0.80298 0.82338 0.0
H171 H 0.15769 0.62599 0.70666 0.0
H172 H 0.22825 0.70557 0.85823 0.0
H173 H 0.23887 0.72876 0.67424 0.0
C174 C 0.28764 0.7766 0.69599 0.0
C175 C 0.31146 0.79779 0.7375 0.0
C176 C 0.21253 0.68824 0.82502 0.0
C177 C 0.24879 0.73477 0.75995 0.0
C178 C 0.18688 0.65354 0.83468 0.0
C179 C 0.16711 0.63015 0.79217 0.0
C180 C 0.21854 0.69958 0.77248 0.0
C181 C 0.17258 0.64298 0.7406 0.0
C182 C 0.25629 0.74517 0.70704 0.0
C183 C 0.30199 0.78732 0.79005 0.0
N184 N 0.19804 0.67672 0.73215 0.0
N185 N 0.27161 0.75638 0.79972 0.0
H186 H 0.48365 0.97608 0.86255 0.0
H187 H 0.44431 0.02383 0.15795 0.0
H188 H 0.39341 0.90473 0.95804 0.0
H189 H 0.53792 0.09372 0.0663 0.0
H190 H 0.42455 0.98044 0.0841 0.0
H191 H 0.50356 0.01989 0.93607 0.0
C192 C 0.46805 0.96959 0.89901 0.0
C193 C 0.43678 0.93669 0.90415 0.0
C194 C 0.4494 0.00527 0.08007 0.0
C195 C 0.45937 0.98677 0.98835 0.0
C196 C 0.46067 0.03012 0.12221 0.0
C197 C 0.49286 0.06246 0.1183 0.0
C198 C 0.47041 0.01278 0.03359 0.0
C199 C 0.51295 0.06912 0.07104 0.0
C200 C 0.47943 -0.00536 0.94096 0.0
C201 C 0.41767 0.92974 0.9523 0.0
N202 N 0.5014 0.04445 0.0305 0.0
N203 N 0.42924 0.9546 0.9925 0.0
H204 H 0.45661 0.47147 0.19817 0.0
H205 H 0.52803 0.58038 0.47473 0.0
H206 H 0.57172 0.53239 0.24487 0.0
H207 H 0.41274 0.52437 0.42732 0.0
H208 H 0.5445 0.56714 0.3869 0.0
H209 H 0.43992 0.49479 0.27761 0.0
C210 C 0.4784 0.49005 0.22474 0.0
C211 C 0.51559 0.49968 0.21518 0.0
C212 C 0.51559 0.55792 0.39546 0.0
C213 C 0.49669 0.52624 0.30618 0.0
C214 C 0.50615 0.56544 0.44572 0.0
C215 C 0.46891 0.55314 0.45858 0.0
C216 C 0.4876 0.5377 0.35778 0.0
C217 C 0.44179 0.53419 0.41919 0.0
C218 C 0.46884 0.50331 0.27013 0.0
C219 C 0.54266 0.52395 0.25086 0.0
N220 N 0.45165 0.52674 0.37067 0.0
N221 N 0.53264 0.53612 0.29497 0.0
H222 H 0.05759 0.41935 0.98629 0.0
H223 H 0.97501 0.47543 0.23706 0.0
H224 H 0.07497 0.52449 0.01922 0.0
H225 H 0.96027 0.37073 0.20986 0.0
H226 H 0.01524 0.49446 0.16041 0.0
H227 H 0.0254 0.40164 0.07078 0.0
C228 C 0.05487 0.43877 0.01141 0.0
C229 C 0.06875 0.4734 -0.00456 0.0
C230 C 0.00344 0.46736 0.17131 0.0
C231 C 0.03187 0.45327 0.09203 0.0
C232 C 0.98041 0.45645 0.21515 0.0
C233 C 0.964 0.42134 0.2297 0.0
C234 C 0.01002 0.44299 0.14142 0.0
C235 C 0.97223 0.39801 0.19995 0.0
C236 C 0.03648 0.42863 0.05965 0.0
C237 C 0.06454 0.49746 0.02972 0.0
N238 N -0.00554 0.4092 0.15692 0.0
N239 N 0.04629 0.48688 0.07618 0.0
H240 H 0.50238 -0.00039 0.34024 0.0
H241 H 0.42439 0.95945 0.63583 0.0
H242 H 0.46312 0.06234 0.42809 0.0
H243 H 0.45829 0.89411 0.54356 0.0
H244 H 0.4371 -0.00319 0.55977 0.0
H245 H 0.4854 0.96023 0.41409 0.0
C246 C 0.49015 0.00511 0.37507 0.0
C247 C 0.48425 0.03438 0.37806 0.0
C248 C 0.44161 0.97422 0.5561 0.0
C249 C 0.46473 0.98932 0.4629 0.0
C250 C 0.43435 0.95286 0.59951 0.0
C251 C 0.44043 0.92368 0.59612 0.0
C252 C 0.45516 0.96642 0.50903 0.0
C253 C 0.45328 0.91637 0.54803 0.0
C254 C 0.48039 0.98254 0.41723 0.0
C255 C 0.46819 0.04009 0.42413 0.0
N256 N 0.46036 0.93769 0.50647 0.0
N257 N 0.45908 0.01781 0.46485 0.0
H258 H 0.49479 0.50886 0.72905 0.0
H259 H 0.63961 0.55758 0.96979 0.0
H260 H 0.59568 0.60751 0.74506 0.0
H261 H 0.53742 0.46017 0.95277 0.0
H262 H 0.62778 0.57392 0.88264 0.0
H263 H 0.51394 0.48811 0.80542 0.0
C264 C 0.52117 0.52607 0.74834 0.0
C265 C 0.54348 0.56014 0.731 0.0
C266 C 0.60811 0.54886 0.89783 0.0
C267 C 0.56547 0.53659 0.81897 0.0
C268 C 0.61484 0.53951 0.94758 0.0
C269 C 0.58926 0.50762 0.96887 0.0
C270 C 0.57556 0.52617 0.86925 0.0
C271 C 0.55775 0.48515 0.93819 0.0
C272 C 0.53209 0.5142 0.79204 0.0
C273 C 0.57752 0.58114 0.75728 0.0
N274 N 0.55169 0.49498 0.89015 0.0
N275 N 0.58732 0.56915 0.80036 0.0
H276 H -0.00486 0.5317 0.77047 0.0
H277 H 0.94852 0.4221 0.49296 0.0
H278 H 0.04092 0.46413 0.72195 0.0
H279 H 0.89474 0.48241 0.54345 0.0
H280 H 0.98068 0.4358 0.57874 0.0
H281 H 0.95579 0.51217 0.69011 0.0
C282 C -0.00333 0.51252 0.74324 0.0
C283 C 0.02157 0.49973 0.75274 0.0
C284 C 0.96175 0.44596 0.57128 0.0
C285 C 0.97689 0.47751 0.66074 0.0
C286 C 0.94341 0.43821 0.52215 0.0
C287 C 0.91905 0.4513 0.51086 0.0
C288 C 0.95595 0.46719 0.60948 0.0
C289 C 0.91337 0.47184 0.55044 0.0
C290 C 0.97425 0.50144 0.69735 0.0
C291 C 0.02233 0.47489 0.71614 0.0
N292 N 0.93188 0.47935 0.59795 0.0
N293 N 0.00054 0.46481 0.67166 0.0
loop_
_geom_bond_atom_site_label_1
_geom_bond_atom_site_label_2
_geom_bond_distance
_geom_bond_site_symmetry_2
_ccdc_geom_bond_type
C0 O1 1.160 . S
C0 O7 1.185 . S
O1 C0 1.160 . S
O2 Zn3 1.899 . S
O2 C10 1.284 . S
Zn3 O2 1.899 . S
Zn3 O4 2.032 . S
Zn3 O7 2.086 . S
Zn3 O12 1.977 . S
O4 Zn3 2.032 . S
O4 C8 1.278 . S
C5 O6 1.203 . S
C5 O12 1.267 . S
O6 C5 1.203 . S
O7 C0 1.185 . S
O7 Zn3 2.086 . S
C8 O4 1.278 . S
C8 O9 1.211 . S
O9 C8 1.211 . S
C10 O2 1.284 . S
C10 O11 1.273 . S
O11 C10 1.273 . S
O12 Zn3 1.977 . S
O12 C5 1.267 . S
C13 O14 1.160 . S
C13 O20 1.185 . S
O14 C13 1.160 . S
O15 Zn16 1.899 . S
O15 C23 1.284 . S
Zn16 O15 1.899 . S
Zn16 O17 2.032 . S
Zn16 O20 2.086 . S
Zn16 O25 1.977 . S
O17 Zn16 2.032 . S
O17 C21 1.278 . S
C18 O19 1.203 . S
C18 O25 1.267 . S
O19 C18 1.203 . S
O20 C13 1.185 . S
O20 Zn16 2.086 . S
C21 O17 1.278 . S
C21 O22 1.211 . S
O22 C21 1.211 . S
C23 O15 1.284 . S
C23 O24 1.273 . S
O24 C23 1.273 . S
O25 Zn16 1.977 . S
O25 C18 1.267 . S
C26 O27 1.160 . S
C26 O33 1.185 . S
O27 C26 1.160 . S
O28 Zn29 1.899 . S
O28 C36 1.284 . S
Zn29 O28 1.899 . S
Zn29 O30 2.032 . S
Zn29 O33 2.086 . S
Zn29 O38 1.977 . S
O30 Zn29 2.032 . S
O30 C34 1.278 . S
C31 O32 1.203 . S
C31 O38 1.267 . S
O32 C31 1.203 . S
O33 C26 1.185 . S
O33 Zn29 2.086 . S
C34 O30 1.278 . S
C34 O35 1.211 . S
O35 C34 1.211 . S
C36 O28 1.284 . S
C36 O37 1.273 . S
O37 C36 1.273 . S
O38 Zn29 1.977 . S
O38 C31 1.267 . S
C39 O40 1.160 . S
C39 O46 1.185 . S
O40 C39 1.160 . S
O41 Zn42 1.899 . S
O41 C49 1.284 . S
Zn42 O41 1.899 . S
Zn42 O43 2.032 . S
Zn42 O46 2.086 . S
Zn42 O51 1.977 . S
O43 Zn42 2.032 . S
O43 C47 1.278 . S
C44 O45 1.203 . S
C44 O51 1.267 . S
O45 C44 1.203 . S
O46 C39 1.185 . S
O46 Zn42 2.086 . S
C47 O43 1.278 . S
C47 O48 1.211 . S
O48 C47 1.211 . S
C49 O41 1.284 . S
C49 O50 1.273 . S
O50 C49 1.273 . S
O51 Zn42 1.977 . S
O51 C44 1.267 . S
C52 O53 1.160 . S
C52 O59 1.185 . S
O53 C52 1.160 . S
O54 Zn55 1.899 . S
O54 C62 1.284 . S
Zn55 O54 1.899 . S
Zn55 O56 2.032 . S
Zn55 O59 2.086 . S
Zn55 O64 1.977 . S
O56 Zn55 2.032 . S
O56 C60 1.278 . S
C57 O58 1.203 . S
C57 O64 1.267 . S
O58 C57 1.203 . S
O59 C52 1.185 . S
O59 Zn55 2.086 . S
C60 O56 1.278 . S
C60 O61 1.211 . S
O61 C60 1.211 . S
C62 O54 1.284 . S
C62 O63 1.273 . S
O63 C62 1.273 . S
O64 Zn55 1.977 . S
O64 C57 1.267 . S
C65 O66 1.160 . S
C65 O72 1.185 . S
O66 C65 1.160 . S
O67 Zn68 1.899 . S
O67 C75 1.284 . S
Zn68 O67 1.899 . S
Zn68 O69 2.032 . S
Zn68 O72 2.086 . S
Zn68 O77 1.977 . S
O69 Zn68 2.032 . S
O69 C73 1.278 . S
C70 O71 1.203 . S
C70 O77 1.267 . S
O71 C70 1.203 . S
O72 C65 1.185 . S
O72 Zn68 2.086 . S
C73 O69 1.278 . S
C73 O74 1.211 . S
O74 C73 1.211 . S
C75 O67 1.284 . S
C75 O76 1.273 . S
O76 C75 1.273 . S
O77 Zn68 1.977 . S
O77 C70 1.267 . S
H78 C84 0.930 . S
H79 C88 0.930 . S
H80 C93 0.929 . S
H81 C91 0.929 . S
H82 C86 0.929 . S
H83 C92 0.929 . S
C84 H78 0.930 . S
C84 C85 1.367 . S
C84 C92 1.378 . S
C85 C84 1.367 . S
C85 C93 1.433 . S
C86 H82 0.929 . S
C86 C88 1.378 . S
C86 C90 1.350 . S
C87 C90 1.463 . S
C87 C92 1.350 . S
C87 N95 1.427 . S
C88 H79 0.930 . S
C88 C86 1.378 . S
C88 C89 1.367 . S
C89 C88 1.367 . S
C89 C91 1.433 . S
C90 C86 1.350 . S
C90 C87 1.463 . S
C90 N94 1.427 . S
C91 H81 0.929 . S
C91 C89 1.433 . S
C91 N94 1.384 . S
C92 H83 0.929 . S
C92 C84 1.378 . S
C92 C87 1.350 . S
C93 H80 0.929 . S
C93 C85 1.433 . S
C93 N95 1.384 . S
N94 C90 1.427 . S
N94 C91 1.384 . S
N95 C87 1.427 . S
N95 C93 1.384 . S
H96 C102 0.930 . S
H97 C106 0.930 . S
H98 C111 0.929 . S
H99 C109 0.929 . S
H100 C104 0.929 . S
H101 C110 0.929 . S
C102 H96 0.930 . S
C102 C103 1.367 . S
C102 C110 1.378 . S
C103 C102 1.367 . S
C103 C111 1.433 . S
C104 H100 0.929 . S
C104 C106 1.378 . S
C104 C108 1.350 . S
C105 C108 1.463 . S
C105 C110 1.350 . S
C105 N113 1.427 . S
C106 H97 0.930 . S
C106 C104 1.378 . S
C106 C107 1.367 . S
C107 C106 1.367 . S
C107 C109 1.433 . S
C108 C104 1.350 . S
C108 C105 1.463 . S
C108 N112 1.427 . S
C109 H99 0.929 . S
C109 C107 1.433 . S
C109 N112 1.384 . S
C110 H101 0.929 . S
C110 C102 1.378 . S
C110 C105 1.350 . S
C111 H98 0.929 . S
C111 C103 1.433 . S
C111 N113 1.384 . S
N112 C108 1.427 . S
N112 C109 1.384 . S
N113 C105 1.427 . S
N113 C111 1.384 . S
H114 C120 0.930 . S
H115 C124 0.930 . S
H116 C129 0.929 . S
H117 C127 0.929 . S
H118 C122 0.929 . S
H119 C128 0.929 . S
C120 H114 0.930 . S
C120 C121 1.367 . S
C120 C128 1.378 . S
C121 C120 1.367 . S
C121 C129 1.433 . S
C122 H118 0.929 . S
C122 C124 1.378 . S
C122 C126 1.350 . S
C123 C126 1.463 . S
C123 C128 1.350 . S
C123 N131 1.427 . S
C124 H115 0.930 . S
C124 C122 1.378 . S
C124 C125 1.367 . S
C125 C124 1.367 . S
C125 C127 1.433 . S
C126 C122 1.350 . S
C126 C123 1.463 . S
C126 N130 1.427 . S
C127 H117 0.929 . S
C127 C125 1.433 . S
C127 N130 1.384 . S
C128 H119 0.929 . S
C128 C120 1.378 . S
C128 C123 1.350 . S
C129 H116 0.929 . S
C129 C121 1.433 . S
C129 N131 1.384 . S
N130 C126 1.427 . S
N130 C127 1.384 . S
N131 C123 1.427 . S
N131 C129 1.384 . S
H132 C138 0.930 . S
H133 C142 0.930 . S
H134 C147 0.929 . S
H135 C145 0.929 . S
H136 C140 0.929 . S
H137 C146 0.929 . S
C138 H132 0.930 . S
C138 C139 1.367 . S
C138 C146 1.378 . S
C139 C138 1.367 . S
C139 C147 1.433 . S
C140 H136 0.929 . S
C140 C142 1.378 . S
C140 C144 1.350 . S
C141 C144 1.463 . S
C141 C146 1.350 . S
C141 N149 1.427 . S
C142 H133 0.930 . S
C142 C140 1.378 . S
C142 C143 1.367 . S
C143 C142 1.367 . S
C143 C145 1.433 . S
C144 C140 1.350 . S
C144 C141 1.463 . S
C144 N148 1.427 . S
C145 H135 0.929 . S
C145 C143 1.433 . S
C145 N148 1.384 . S
C146 H137 0.929 . S
C146 C138 1.378 . S
C146 C141 1.350 . S
C147 H134 0.929 . S
C147 C139 1.433 . S
C147 N149 1.384 . S
N148 C144 1.427 . S
N148 C145 1.384 . S
N149 C141 1.427 . S
N149 C147 1.384 . S
H150 C156 0.930 . S
H151 C160 0.930 . S
H152 C165 0.929 . S
H153 C163 0.929 . S
H154 C158 0.929 . S
H155 C164 0.929 . S
C156 H150 0.930 . S
C156 C157 1.367 . S
C156 C164 1.378 . S
C157 C156 1.367 . S
C157 C165 1.433 . S
C158 H154 0.929 . S
C158 C160 1.378 . S
C158 C162 1.350 . S
C159 C162 1.463 . S
C159 C164 1.350 . S
C159 N167 1.427 . S
C160 H151 0.930 . S
C160 C158 1.378 . S
C160 C161 1.367 . S
C161 C160 1.367 . S
C161 C163 1.433 . S
C162 C158 1.350 . S
C162 C159 1.463 . S
C162 N166 1.427 . S
C163 H153 0.929 . S
C163 C161 1.433 . S
C163 N166 1.384 . S
C164 H155 0.929 . S
C164 C156 1.378 . S
C164 C159 1.350 . S
C165 H152 0.929 . S
C165 C157 1.433 . S
C165 N167 1.384 . S
N166 C162 1.427 . S
N166 C163 1.384 . S
N167 C159 1.427 . S
N167 C165 1.384 . S
H168 C174 0.930 . S
H169 C178 0.930 . S
H170 C183 0.929 . S
H171 C181 0.929 . S
H172 C176 0.929 . S
H173 C182 0.929 . S
C174 H168 0.930 . S
C174 C175 1.367 . S
C174 C182 1.378 . S
C175 C174 1.367 . S
C175 C183 1.433 . S
C176 H172 0.929 . S
C176 C178 1.378 . S
C176 C180 1.350 . S
C177 C180 1.463 . S
C177 C182 1.350 . S
C177 N185 1.427 . S
C178 H169 0.930 . S
C178 C176 1.378 . S
C178 C179 1.367 . S
C179 C178 1.367 . S
C179 C181 1.433 . S
C180 C176 1.350 . S
C180 C177 1.463 . S
C180 N184 1.427 . S
C181 H171 0.929 . S
C181 C179 1.433 . S
C181 N184 1.384 . S
C182 H173 0.929 . S
C182 C174 1.378 . S
C182 C177 1.350 . S
C183 H170 0.929 . S
C183 C175 1.433 . S
C183 N185 1.384 . S
N184 C180 1.427 . S
N184 C181 1.384 . S
N185 C177 1.427 . S
N185 C183 1.384 . S
H186 C192 0.930 . S
H187 C196 0.930 . S
H188 C201 0.929 . S
H189 C199 0.929 . S
H190 C194 0.929 . S
H191 C200 0.929 . S
C192 H186 0.930 . S
C192 C193 1.367 . S
C192 C200 1.378 1_565 S
C193 C192 1.367 . S
C193 C201 1.433 . S
C194 H190 0.929 . S
C194 C196 1.378 1_565 S
C194 C198 1.350 1_565 S
C195 C198 1.463 1_566 S
C195 C200 1.350 1_565 S
C195 N203 1.427 . S
C196 H187 0.930 . S
C196 C194 1.378 1_545 S
C196 C197 1.367 . S
C197 C196 1.367 . S
C197 C199 1.433 . S
C198 C194 1.350 1_545 S
C198 C195 1.463 1_544 S
C198 N202 1.427 . S
C199 H189 0.929 . S
C199 C197 1.433 . S
C199 N202 1.384 . S
C200 H191 0.929 . S
C200 C192 1.378 1_545 S
C200 C195 1.350 1_545 S
C201 H188 0.929 . S
C201 C193 1.433 . S
C201 N203 1.384 . S
N202 C198 1.427 . S
N202 C199 1.384 . S
N203 C195 1.427 . S
N203 C201 1.384 . S
H204 C210 0.930 . S
H205 C214 0.930 . S
H206 C219 0.929 . S
H207 C217 0.929 . S
H208 C212 0.929 . S
H209 C218 0.929 . S
C210 H204 0.930 . S
C210 C211 1.367 . S
C210 C218 1.378 . S
C211 C210 1.367 . S
C211 C219 1.433 . S
C212 H208 0.929 . S
C212 C214 1.378 . S
C212 C216 1.350 . S
C213 C216 1.463 . S
C213 C218 1.350 . S
C213 N221 1.427 . S
C214 H205 0.930 . S
C214 C212 1.378 . S
C214 C215 1.367 . S
C215 C214 1.367 . S
C215 C217 1.433 . S
C216 C212 1.350 . S
C216 C213 1.463 . S
C216 N220 1.427 . S
C217 H207 0.929 . S
C217 C215 1.433 . S
C217 N220 1.384 . S
C218 H209 0.929 . S
C218 C210 1.378 . S
C218 C213 1.350 . S
C219 H206 0.929 . S
C219 C211 1.433 . S
C219 N221 1.384 . S
N220 C216 1.427 . S
N220 C217 1.384 . S
N221 C213 1.427 . S
N221 C219 1.384 . S
H222 C228 0.930 . S
H223 C232 0.930 . S
H224 C237 0.929 . S
H225 C235 0.929 . S
H226 C230 0.929 . S
H227 C236 0.928 . S
C228 H222 0.930 . S
C228 C229 1.367 . S
C228 C236 1.378 . S
C229 C228 1.367 . S
C229 C237 1.433 . S
C230 H226 0.929 . S
C230 C232 1.378 . S
C230 C234 1.350 . S
C231 C234 1.450 1_456 S
C231 C236 1.359 . S
C231 N239 1.430 . S
C232 H223 0.930 . S
C232 C230 1.378 . S
C232 C233 1.367 . S
C233 C232 1.367 . S
C233 C235 1.433 . S
C234 C230 1.350 . S
C234 C231 1.450 1_654 S
C234 N238 1.427 . S
C235 H225 0.929 . S
C235 C233 1.433 . S
C235 N238 1.384 . S
C236 H227 0.928 . S
C236 C228 1.378 . S
C236 C231 1.359 . S
C237 H224 0.929 . S
C237 C229 1.433 . S
C237 N239 1.384 . S
N238 C234 1.427 . S
N238 C235 1.384 . S
N239 C231 1.430 . S
N239 C237 1.384 . S
H240 C246 0.930 . S
H241 C250 0.930 . S
H242 C255 0.929 . S
H243 C253 0.929 . S
H244 C248 0.929 1_545 S
H245 C254 0.929 1_565 S
C246 H240 0.930 . S
C246 C247 1.367 . S
C246 C254 1.378 . S
C247 C246 1.367 . S
C247 C255 1.433 . S
C248 H244 0.929 1_565 S
C248 C250 1.378 . S
C248 C252 1.350 . S
C249 C252 1.463 1_545 S
C249 C254 1.350 . S
C249 N257 1.427 . S
C250 H241 0.930 . S
C250 C248 1.378 . S
C250 C251 1.367 . S
C251 C250 1.367 . S
C251 C253 1.433 . S
C252 C248 1.350 . S
C252 C249 1.463 1_565 S
C252 N256 1.427 . S
C253 H243 0.929 . S
C253 C251 1.433 . S
C253 N256 1.384 . S
C254 H245 0.929 1_545 S
C254 C246 1.378 . S
C254 C249 1.350 . S
C255 H242 0.929 . S
C255 C247 1.433 . S
C255 N257 1.384 . S
N256 C252 1.427 . S
N256 C253 1.384 . S
N257 C249 1.427 . S
N257 C255 1.384 . S
H258 C264 0.930 . S
H259 C268 0.930 . S
H260 C273 0.929 . S
H261 C271 0.929 . S
H262 C266 0.929 . S
H263 C272 0.929 . S
C264 H258 0.930 . S
C264 C265 1.367 . S
C264 C272 1.378 . S
C265 C264 1.367 . S
C265 C273 1.433 . S
C266 H262 0.929 . S
C266 C268 1.378 . S
C266 C270 1.350 . S
C267 C270 1.463 1_556 S
C267 C272 1.350 . S
C267 N275 1.427 . S
C268 H259 0.930 . S
C268 C266 1.378 . S
C268 C269 1.367 . S
C269 C268 1.367 . S
C269 C271 1.433 . S
C270 C266 1.350 . S
C270 C267 1.463 1_554 S
C270 N274 1.427 . S
C271 H261 0.929 . S
C271 C269 1.433 . S
C271 N274 1.386 . S
C272 H263 0.929 . S
C272 C264 1.378 . S
C272 C267 1.350 . S
C273 H260 0.929 . S
C273 C265 1.433 . S
C273 N275 1.384 . S
N274 C270 1.427 . S
N274 C271 1.386 . S
N275 C267 1.427 . S
N275 C273 1.384 . S
H276 C282 0.930 . S
H277 C286 0.930 . S
H278 C291 0.929 . S
H279 C289 0.927 1_455 S
H280 C284 0.929 . S
H281 C290 0.929 . S
C282 H276 0.930 . S
C282 C283 1.367 . S
C282 C290 1.378 . S
C283 C282 1.367 . S
C283 C291 1.433 . S
C284 H280 0.929 . S
C284 C286 1.378 . S
C284 C288 1.350 . S
C285 C288 1.463 1_455 S
C285 C290 1.350 . S
C285 N293 1.427 1_455 S
C286 H277 0.930 . S
C286 C284 1.378 . S
C286 C287 1.367 . S
C287 C286 1.367 . S
C287 C289 1.433 . S
C288 C284 1.350 . S
C288 C285 1.463 1_655 S
C288 N292 1.427 1_655 S
C289 H279 0.927 1_655 S
C289 C287 1.433 . S
C289 N292 1.384 1_655 S
C290 H281 0.929 . S
C290 C282 1.378 . S
C290 C285 1.350 . S
C291 H278 0.929 . S
C291 C283 1.433 . S
C291 N293 1.384 1_455 S
N292 C288 1.427 1_455 S
N292 C289 1.384 1_455 S
N293 C285 1.427 1_655 S
N293 C291 1.384 1_655 S
C85 C5 0.930 . S
C89 C57 0.914 . S
C103 C23 1.000 . S
C107 C75 0.991 . S
C121 C10 0.994 . S
C125 C31 0.934 . S
C139 C49 0.981 . S
C143 C18 0.949 . S
C157 C62 0.996 . S
C161 C36 0.999 . S
C175 C44 0.915 . S
C179 C70 0.938 . S
C193 C47 1.307 . S
C197 C8 1.310 . S
C211 C60 1.336 . S
C215 C13 1.340 . S
C229 C65 1.321 . S
C233 C34 1.341 . S
C247 C0 1.334 . S
C251 C39 1.343 . S
C265 C21 1.343 . S
C269 C52 1.324 . S
C283 C73 1.336 . S
C287 C26 1.334 . S
