# Generated by pormake.
# Topology bcu-l, (5)-cn, num edge types: 1
# Building blocks:
#     Node 0, Type 0, BuildingBlock: BEQFEK_clean_sbu_0, # of connection points: 5
#     Node 1, Type 0, BuildingBlock: BEQFEK_clean_sbu_0, # of connection points: 5
#     Node 2, Type 0, BuildingBlock: BEQFEK_clean_sbu_0, # of connection points: 5
#     Node 3, Type 0, BuildingBlock: BEQFEK_clean_sbu_0, # of connection points: 5
#     Node 4, Type 0, BuildingBlock: BEQFEK_clean_sbu_0, # of connection points: 5
#     Node 5, Type 0, BuildingBlock: BEQFEK_clean_sbu_0, # of connection points: 5
#     Node 6, Type 0, BuildingBlock: BEQFEK_clean_sbu_0, # of connection points: 5
#     Node 7, Type 0, BuildingBlock: BEQFEK_clean_sbu_0, # of connection points: 5
#     Node 8, Type 0, BuildingBlock: BEQFEK_clean_sbu_0, # of connection points: 5
#     Node 9, Type 0, BuildingBlock: BEQFEK_clean_sbu_0, # of connection points: 5
#     Node 10, Type 0, BuildingBlock: BEQFEK_clean_sbu_0, # of connection points: 5
#     Node 11, Type 0, BuildingBlock: BEQFEK_clean_sbu_0, # of connection points: 5
#     Node 12, Type 0, BuildingBlock: BEQFEK_clean_sbu_0, # of connection points: 5
#     Node 13, Type 0, BuildingBlock: BEQFEK_clean_sbu_0, # of connection points: 5
#     Node 14, Type 0, BuildingBlock: BEQFEK_clean_sbu_0, # of connection points: 5
#     Node 15, Type 0, BuildingBlock: BEQFEK_clean_sbu_0, # of connection points: 5
#     Node 16, Type 0, BuildingBlock: BEQFEK_clean_sbu_0, # of connection points: 5
#     Node 17, Type 0, BuildingBlock: BEQFEK_clean_sbu_0, # of connection points: 5
#     Node 18, Type 0, BuildingBlock: BEQFEK_clean_sbu_0, # of connection points: 5
#     Node 19, Type 0, BuildingBlock: BEQFEK_clean_sbu_0, # of connection points: 5
#     Node 20, Type 0, BuildingBlock: BEQFEK_clean_sbu_0, # of connection points: 5
#     Node 21, Type 0, BuildingBlock: BEQFEK_clean_sbu_0, # of connection points: 5
#     Node 22, Type 0, BuildingBlock: BEQFEK_clean_sbu_0, # of connection points: 5
#     Node 23, Type 0, BuildingBlock: BEQFEK_clean_sbu_0, # of connection points: 5
#     Node 24, Type 0, BuildingBlock: BEQFEK_clean_sbu_0, # of connection points: 5
#     Node 25, Type 0, BuildingBlock: BEQFEK_clean_sbu_0, # of connection points: 5
#     Node 26, Type 0, BuildingBlock: BEQFEK_clean_sbu_0, # of connection points: 5
#     Node 27, Type 0, BuildingBlock: BEQFEK_clean_sbu_0, # of connection points: 5
#     Node 28, Type 0, BuildingBlock: BEQFEK_clean_sbu_0, # of connection points: 5
#     Node 29, Type 0, BuildingBlock: BEQFEK_clean_sbu_0, # of connection points: 5
#     Node 30, Type 0, BuildingBlock: BEQFEK_clean_sbu_0, # of connection points: 5
#     Node 31, Type 0, BuildingBlock: BEQFEK_clean_sbu_0, # of connection points: 5
#     Node 32, Type 0, BuildingBlock: BEQFEK_clean_sbu_0, # of connection points: 5
#     Node 33, Type 0, BuildingBlock: BEQFEK_clean_sbu_0, # of connection points: 5
#     Node 34, Type 0, BuildingBlock: BEQFEK_clean_sbu_0, # of connection points: 5
#     Node 35, Type 0, BuildingBlock: BEQFEK_clean_sbu_0, # of connection points: 5
#     Node 36, Type 0, BuildingBlock: BEQFEK_clean_sbu_0, # of connection points: 5
#     Node 37, Type 0, BuildingBlock: BEQFEK_clean_sbu_0, # of connection points: 5
#     Node 38, Type 0, BuildingBlock: BEQFEK_clean_sbu_0, # of connection points: 5
#     Node 39, Type 0, BuildingBlock: BEQFEK_clean_sbu_0, # of connection points: 5
#     Node 40, Type 0, BuildingBlock: BEQFEK_clean_sbu_0, # of connection points: 5
#     Node 41, Type 0, BuildingBlock: BEQFEK_clean_sbu_0, # of connection points: 5
#     Node 42, Type 0, BuildingBlock: BEQFEK_clean_sbu_0, # of connection points: 5
#     Node 43, Type 0, BuildingBlock: BEQFEK_clean_sbu_0, # of connection points: 5
#     Node 44, Type 0, BuildingBlock: BEQFEK_clean_sbu_0, # of connection points: 5
#     Node 45, Type 0, BuildingBlock: BEQFEK_clean_sbu_0, # of connection points: 5
#     Node 46, Type 0, BuildingBlock: BEQFEK_clean_sbu_0, # of connection points: 5
#     Node 47, Type 0, BuildingBlock: BEQFEK_clean_sbu_0, # of connection points: 5
#     Edge 48, Type (0, 0), BuildingBlock: EZIPEK_clean_linker_0, # of connection points: 2
#     Edge 49, Type (0, 0), BuildingBlock: EZIPEK_clean_linker_0, # of connection points: 2
#     Edge 50, Type (0, 0), BuildingBlock: EZIPEK_clean_linker_0, # of connection points: 2
#     Edge 51, Type (0, 0), BuildingBlock: EZIPEK_clean_linker_0, # of connection points: 2
#     Edge 52, Type (0, 0), BuildingBlock: EZIPEK_clean_linker_0, # of connection points: 2
#     Edge 53, Type (0, 0), BuildingBlock: EZIPEK_clean_linker_0, # of connection points: 2
#     Edge 54, Type (0, 0), BuildingBlock: EZIPEK_clean_linker_0, # of connection points: 2
#     Edge 55, Type (0, 0), BuildingBlock: EZIPEK_clean_linker_0, # of connection points: 2
#     Edge 56, Type (0, 0), BuildingBlock: EZIPEK_clean_linker_0, # of connection points: 2
#     Edge 57, Type (0, 0), BuildingBlock: EZIPEK_clean_linker_0, # of connection points: 2
#     Edge 58, Type (0, 0), BuildingBlock: EZIPEK_clean_linker_0, # of connection points: 2
#     Edge 59, Type (0, 0), BuildingBlock: EZIPEK_clean_linker_0, # of connection points: 2
#     Edge 60, Type (0, 0), BuildingBlock: EZIPEK_clean_linker_0, # of connection points: 2
#     Edge 61, Type (0, 0), BuildingBlock: EZIPEK_clean_linker_0, # of connection points: 2
#     Edge 62, Type (0, 0), BuildingBlock: EZIPEK_clean_linker_0, # of connection points: 2
#     Edge 63, Type (0, 0), BuildingBlock: EZIPEK_clean_linker_0, # of connection points: 2
#     Edge 64, Type (0, 0), BuildingBlock: EZIPEK_clean_linker_0, # of connection points: 2
#     Edge 65, Type (0, 0), BuildingBlock: EZIPEK_clean_linker_0, # of connection points: 2
#     Edge 66, Type (0, 0), BuildingBlock: EZIPEK_clean_linker_0, # of connection points: 2
#     Edge 67, Type (0, 0), BuildingBlock: EZIPEK_clean_linker_0, # of connection points: 2
#     Edge 68, Type (0, 0), BuildingBlock: EZIPEK_clean_linker_0, # of connection points: 2
#     Edge 69, Type (0, 0), BuildingBlock: EZIPEK_clean_linker_0, # of connection points: 2
#     Edge 70, Type (0, 0), BuildingBlock: EZIPEK_clean_linker_0, # of connection points: 2
#     Edge 71, Type (0, 0), BuildingBlock: EZIPEK_clean_linker_0, # of connection points: 2
#     Edge 72, Type (0, 0), BuildingBlock: EZIPEK_clean_linker_0, # of connection points: 2
#     Edge 73, Type (0, 0), BuildingBlock: EZIPEK_clean_linker_0, # of connection points: 2
#     Edge 74, Type (0, 0), BuildingBlock: EZIPEK_clean_linker_0, # of connection points: 2
#     Edge 75, Type (0, 0), BuildingBlock: EZIPEK_clean_linker_0, # of connection points: 2
#     Edge 76, Type (0, 0), BuildingBlock: EZIPEK_clean_linker_0, # of connection points: 2
#     Edge 77, Type (0, 0), BuildingBlock: EZIPEK_clean_linker_0, # of connection points: 2
#     Edge 78, Type (0, 0), BuildingBlock: EZIPEK_clean_linker_0, # of connection points: 2
#     Edge 79, Type (0, 0), BuildingBlock: EZIPEK_clean_linker_0, # of connection points: 2
#     Edge 80, Type (0, 0), BuildingBlock: EZIPEK_clean_linker_0, # of connection points: 2
#     Edge 81, Type (0, 0), BuildingBlock: EZIPEK_clean_linker_0, # of connection points: 2
#     Edge 82, Type (0, 0), BuildingBlock: EZIPEK_clean_linker_0, # of connection points: 2
#     Edge 83, Type (0, 0), BuildingBlock: EZIPEK_clean_linker_0, # of connection points: 2
#     Edge 84, Type (0, 0), BuildingBlock: EZIPEK_clean_linker_0, # of connection points: 2
#     Edge 85, Type (0, 0), BuildingBlock: EZIPEK_clean_linker_0, # of connection points: 2
#     Edge 86, Type (0, 0), BuildingBlock: EZIPEK_clean_linker_0, # of connection points: 2
#     Edge 87, Type (0, 0), BuildingBlock: EZIPEK_clean_linker_0, # of connection points: 2
#     Edge 88, Type (0, 0), BuildingBlock: EZIPEK_clean_linker_0, # of connection points: 2
#     Edge 89, Type (0, 0), BuildingBlock: EZIPEK_clean_linker_0, # of connection points: 2
#     Edge 90, Type (0, 0), BuildingBlock: EZIPEK_clean_linker_0, # of connection points: 2
#     Edge 91, Type (0, 0), BuildingBlock: EZIPEK_clean_linker_0, # of connection points: 2
#     Edge 92, Type (0, 0), BuildingBlock: EZIPEK_clean_linker_0, # of connection points: 2
#     Edge 93, Type (0, 0), BuildingBlock: EZIPEK_clean_linker_0, # of connection points: 2
#     Edge 94, Type (0, 0), BuildingBlock: EZIPEK_clean_linker_0, # of connection points: 2
#     Edge 95, Type (0, 0), BuildingBlock: EZIPEK_clean_linker_0, # of connection points: 2
#     Edge 96, Type (0, 0), BuildingBlock: EZIPEK_clean_linker_0, # of connection points: 2
#     Edge 97, Type (0, 0), BuildingBlock: EZIPEK_clean_linker_0, # of connection points: 2
#     Edge 98, Type (0, 0), BuildingBlock: EZIPEK_clean_linker_0, # of connection points: 2
#     Edge 99, Type (0, 0), BuildingBlock: EZIPEK_clean_linker_0, # of connection points: 2
#     Edge 100, Type (0, 0), BuildingBlock: EZIPEK_clean_linker_0, # of connection points: 2
#     Edge 101, Type (0, 0), BuildingBlock: EZIPEK_clean_linker_0, # of connection points: 2
#     Edge 102, Type (0, 0), BuildingBlock: EZIPEK_clean_linker_0, # of connection points: 2
#     Edge 103, Type (0, 0), BuildingBlock: EZIPEK_clean_linker_0, # of connection points: 2
#     Edge 104, Type (0, 0), BuildingBlock: EZIPEK_clean_linker_0, # of connection points: 2
#     Edge 105, Type (0, 0), BuildingBlock: EZIPEK_clean_linker_0, # of connection points: 2
#     Edge 106, Type (0, 0), BuildingBlock: EZIPEK_clean_linker_0, # of connection points: 2
#     Edge 107, Type (0, 0), BuildingBlock: EZIPEK_clean_linker_0, # of connection points: 2
#     Edge 108, Type (0, 0), BuildingBlock: EZIPEK_clean_linker_0, # of connection points: 2
#     Edge 109, Type (0, 0), BuildingBlock: EZIPEK_clean_linker_0, # of connection points: 2
#     Edge 110, Type (0, 0), BuildingBlock: EZIPEK_clean_linker_0, # of connection points: 2
#     Edge 111, Type (0, 0), BuildingBlock: EZIPEK_clean_linker_0, # of connection points: 2
#     Edge 112, Type (0, 0), BuildingBlock: EZIPEK_clean_linker_0, # of connection points: 2
#     Edge 113, Type (0, 0), BuildingBlock: EZIPEK_clean_linker_0, # of connection points: 2
#     Edge 114, Type (0, 0), BuildingBlock: EZIPEK_clean_linker_0, # of connection points: 2
#     Edge 115, Type (0, 0), BuildingBlock: EZIPEK_clean_linker_0, # of connection points: 2
#     Edge 116, Type (0, 0), BuildingBlock: EZIPEK_clean_linker_0, # of connection points: 2
#     Edge 117, Type (0, 0), BuildingBlock: EZIPEK_clean_linker_0, # of connection points: 2
#     Edge 118, Type (0, 0), BuildingBlock: EZIPEK_clean_linker_0, # of connection points: 2
#     Edge 119, Type (0, 0), BuildingBlock: EZIPEK_clean_linker_0, # of connection points: 2
#     Edge 120, Type (0, 0), BuildingBlock: EZIPEK_clean_linker_0, # of connection points: 2
#     Edge 121, Type (0, 0), BuildingBlock: EZIPEK_clean_linker_0, # of connection points: 2
#     Edge 122, Type (0, 0), BuildingBlock: EZIPEK_clean_linker_0, # of connection points: 2
#     Edge 123, Type (0, 0), BuildingBlock: EZIPEK_clean_linker_0, # of connection points: 2
#     Edge 124, Type (0, 0), BuildingBlock: EZIPEK_clean_linker_0, # of connection points: 2
#     Edge 125, Type (0, 0), BuildingBlock: EZIPEK_clean_linker_0, # of connection points: 2
#     Edge 126, Type (0, 0), BuildingBlock: EZIPEK_clean_linker_0, # of connection points: 2
#     Edge 127, Type (0, 0), BuildingBlock: EZIPEK_clean_linker_0, # of connection points: 2
#     Edge 128, Type (0, 0), BuildingBlock: EZIPEK_clean_linker_0, # of connection points: 2
#     Edge 129, Type (0, 0), BuildingBlock: EZIPEK_clean_linker_0, # of connection points: 2
#     Edge 130, Type (0, 0), BuildingBlock: EZIPEK_clean_linker_0, # of connection points: 2
#     Edge 131, Type (0, 0), BuildingBlock: EZIPEK_clean_linker_0, # of connection points: 2
#     Edge 132, Type (0, 0), BuildingBlock: EZIPEK_clean_linker_0, # of connection points: 2
#     Edge 133, Type (0, 0), BuildingBlock: EZIPEK_clean_linker_0, # of connection points: 2
#     Edge 134, Type (0, 0), BuildingBlock: EZIPEK_clean_linker_0, # of connection points: 2
#     Edge 135, Type (0, 0), BuildingBlock: EZIPEK_clean_linker_0, # of connection points: 2
#     Edge 136, Type (0, 0), BuildingBlock: EZIPEK_clean_linker_0, # of connection points: 2
#     Edge 137, Type (0, 0), BuildingBlock: EZIPEK_clean_linker_0, # of connection points: 2
#     Edge 138, Type (0, 0), BuildingBlock: EZIPEK_clean_linker_0, # of connection points: 2
#     Edge 139, Type (0, 0), BuildingBlock: EZIPEK_clean_linker_0, # of connection points: 2
#     Edge 140, Type (0, 0), BuildingBlock: EZIPEK_clean_linker_0, # of connection points: 2
#     Edge 141, Type (0, 0), BuildingBlock: EZIPEK_clean_linker_0, # of connection points: 2
#     Edge 142, Type (0, 0), BuildingBlock: EZIPEK_clean_linker_0, # of connection points: 2
#     Edge 143, Type (0, 0), BuildingBlock: EZIPEK_clean_linker_0, # of connection points: 2
#     Edge 144, Type (0, 0), BuildingBlock: EZIPEK_clean_linker_0, # of connection points: 2
#     Edge 145, Type (0, 0), BuildingBlock: EZIPEK_clean_linker_0, # of connection points: 2
#     Edge 146, Type (0, 0), BuildingBlock: EZIPEK_clean_linker_0, # of connection points: 2
#     Edge 147, Type (0, 0), BuildingBlock: EZIPEK_clean_linker_0, # of connection points: 2
#     Edge 148, Type (0, 0), BuildingBlock: EZIPEK_clean_linker_0, # of connection points: 2
#     Edge 149, Type (0, 0), BuildingBlock: EZIPEK_clean_linker_0, # of connection points: 2
#     Edge 150, Type (0, 0), BuildingBlock: EZIPEK_clean_linker_0, # of connection points: 2
#     Edge 151, Type (0, 0), BuildingBlock: EZIPEK_clean_linker_0, # of connection points: 2
#     Edge 152, Type (0, 0), BuildingBlock: EZIPEK_clean_linker_0, # of connection points: 2
#     Edge 153, Type (0, 0), BuildingBlock: EZIPEK_clean_linker_0, # of connection points: 2
#     Edge 154, Type (0, 0), BuildingBlock: EZIPEK_clean_linker_0, # of connection points: 2
#     Edge 155, Type (0, 0), BuildingBlock: EZIPEK_clean_linker_0, # of connection points: 2
#     Edge 156, Type (0, 0), BuildingBlock: EZIPEK_clean_linker_0, # of connection points: 2
#     Edge 157, Type (0, 0), BuildingBlock: EZIPEK_clean_linker_0, # of connection points: 2
#     Edge 158, Type (0, 0), BuildingBlock: EZIPEK_clean_linker_0, # of connection points: 2
#     Edge 159, Type (0, 0), BuildingBlock: EZIPEK_clean_linker_0, # of connection points: 2
#     Edge 160, Type (0, 0), BuildingBlock: EZIPEK_clean_linker_0, # of connection points: 2
#     Edge 161, Type (0, 0), BuildingBlock: EZIPEK_clean_linker_0, # of connection points: 2
#     Edge 162, Type (0, 0), BuildingBlock: EZIPEK_clean_linker_0, # of connection points: 2
#     Edge 163, Type (0, 0), BuildingBlock: EZIPEK_clean_linker_0, # of connection points: 2
#     Edge 164, Type (0, 0), BuildingBlock: EZIPEK_clean_linker_0, # of connection points: 2
#     Edge 165, Type (0, 0), BuildingBlock: EZIPEK_clean_linker_0, # of connection points: 2
#     Edge 166, Type (0, 0), BuildingBlock: EZIPEK_clean_linker_0, # of connection points: 2
#     Edge 167, Type (0, 0), BuildingBlock: EZIPEK_clean_linker_0, # of connection points: 2
# Relax obj value: 0.137
# Max RMSD: 0.105
# Mean RMSD: 0.105
data_MOF--net-bcu-l--node1-BEQFEK_clean_sbu_0--edge1-EZIPEK_clean_linker_0
_symmetry_space_group_name_H-M    P1
_symmetry_Int_Tables_number       1
_symmetry_cell_setting            triclinic
loop_
_symmetry_equiv_pos_as_xyz
'x, y, z'
_cell_length_a     51.892383
_cell_length_b     52.128365
_cell_length_c     52.027576
_cell_angle_alpha  90.023515
_cell_angle_beta   90.012838
_cell_angle_gamma 90.053259
loop_
_atom_site_label
_atom_site_type_symbol
_atom_site_fract_x
_atom_site_fract_y
_atom_site_fract_z
_atom_type_partial_charge
Co0 Co 0.03407 0.25328 0.39412 0.0
Co1 Co 0.99291 0.21877 0.36674 0.0
C2 C 0.97842 0.2553 0.41083 0.0
O3 O 1.00178 0.26242 0.41232 0.0
O4 O 0.972 0.2378 0.39478 0.0
C5 C 0.06271 0.26373 0.4371 0.0
O6 O 0.04723 0.24553 0.44529 0.0
C7 C 0.95802 0.17362 0.36946 0.0
C8 C 0.95502 0.16116 0.3291 0.0
C9 C 0.94765 0.15441 0.35386 0.0
N10 N 0.97107 0.19058 0.3547 0.0
N11 N 0.96895 0.18302 0.33053 0.0
C12 C 0.95597 0.17579 0.39805 0.0
H13 H 0.94523 0.19353 0.40294 0.0
H14 H 0.97556 0.1776 0.40643 0.0
H15 H 0.94585 0.15909 0.40657 0.0
C16 C 0.06448 0.20545 0.39233 0.0
N17 N 0.04154 0.21771 0.39107 0.0
N18 N 0.02499 0.20334 0.37839 0.0
C19 C 0.03724 0.18157 0.37091 0.0
C20 C 0.06262 0.18212 0.37965 0.0
C21 C 0.08905 0.2177 0.40099 0.0
H22 H 0.09177 0.23588 0.39032 0.0
H23 H 0.08797 0.2218 0.42182 0.0
H24 H 0.106 0.20518 0.39773 0.0
O25 O 0.03271 0.26736 0.3593 0.0
O26 O 1.00265 0.24492 0.33828 0.0
H27 H 0.02169 0.17366 0.33376 0.0
H28 H 0.0408 0.14779 0.34692 0.0
C29 C 0.02673 0.16312 0.35158 0.0
H30 H 1.009 0.15422 0.35923 0.0
H31 H 0.97763 0.19236 0.31505 0.0
O32 O 0.06109 0.2709 0.41389 0.0
C33 C 0.01971 0.26288 0.33899 0.0
Co34 Co 0.81427 0.03246 0.39027 0.0
Co35 Co 0.85224 0.99312 0.36534 0.0
C36 C 0.81366 0.97714 0.40734 0.0
O37 O 0.80549 1.00006 0.40822 0.0
O38 O 0.83223 0.97138 0.39219 0.0
C39 C 0.8021 0.06172 0.43244 0.0
O40 O 0.82118 0.04764 0.44121 0.0
C41 C 0.89839 0.95942 0.36903 0.0
C42 C 0.91107 0.95602 0.32875 0.0
C43 C 0.91769 0.94893 0.3536 0.0
N44 N 0.88143 0.97223 0.35407 0.0
N45 N 0.88916 0.96993 0.32996 0.0
C46 C 0.8961 0.95762 0.39762 0.0
H47 H 0.87865 0.94631 0.4025 0.0
H48 H 0.8935 0.97713 0.40577 0.0
H49 H 0.91321 0.9483 0.40634 0.0
C50 C 0.86137 0.06493 0.39051 0.0
N51 N 0.85003 0.04154 0.38914 0.0
N52 N 0.86605 0.02533 0.37813 0.0
C53 C 0.88796 0.03819 0.37196 0.0
C54 C 0.88586 0.06367 0.37981 0.0
C55 C 0.84745 0.08912 0.39728 0.0
H56 H 0.82923 0.08999 0.38624 0.0
H57 H 0.84308 0.08923 0.41809 0.0
H58 H 0.85905 0.10649 0.3931 0.0
O59 O 0.80192 0.03112 0.3546 0.0
O60 O 0.82833 1.00333 0.33525 0.0
H61 H 0.89903 0.02281 0.33558 0.0
H62 H 0.92366 0.04221 0.35075 0.0
C63 C 0.90809 0.028 0.35418 0.0
H64 H 0.91653 1.01049 0.36257 0.0
H65 H 0.87976 0.9783 0.31434 0.0
O66 O 0.79484 0.05853 0.40941 0.0
C67 C 0.80928 0.01913 0.33455 0.0
Co68 Co 0.0369 0.81739 0.39699 0.0
Co69 Co 0.07748 0.85053 0.36766 0.0
C70 C 0.09319 0.81509 0.41211 0.0
O71 O 0.06984 0.80817 0.41439 0.0
O72 O 0.09925 0.83216 0.3955 0.0
C73 C 1.01267 0.80569 0.44245 0.0
O74 O 0.03269 0.81851 0.45089 0.0
C75 C 0.11188 0.8957 0.36883 0.0
C76 C 0.11411 0.90757 0.32824 0.0
C77 C 0.12167 0.91482 0.35282 0.0
N78 N 0.09895 0.87831 0.35449 0.0
N79 N 0.10061 0.88548 0.33018 0.0
C80 C 0.11421 0.89409 0.39744 0.0
H81 H 0.09474 0.89197 0.40602 0.0
H82 H 0.12402 0.91117 0.4056 0.0
H83 H 0.12542 0.87671 0.40254 0.0
C84 C 1.00663 0.86451 0.39433 0.0
N85 N 0.02973 0.8526 0.39321 0.0
N86 N 0.04589 0.86656 0.37967 0.0
C87 C 0.03326 0.88788 0.3716 0.0
C88 C 1.00806 0.88741 0.38086 0.0
C89 C 0.98228 0.85187 0.4032 0.0
H90 H 0.97902 0.8341 0.3919 0.0
H91 H 0.98413 0.84651 0.42362 0.0
H92 H 0.96533 0.86465 0.40115 0.0
O93 O 0.03657 0.8024 0.36235 0.0
O94 O 0.06666 0.82375 0.34026 0.0
H95 H 0.04731 0.89397 0.33352 0.0
H96 H 0.02871 0.92047 0.34616 0.0
C97 C 0.04297 0.90537 0.351 0.0
H98 H 0.06098 0.91461 0.35747 0.0
H99 H 0.0918 0.87579 0.31497 0.0
O100 O 1.00982 0.80221 0.41845 0.0
C101 C 0.04925 0.80615 0.34167 0.0
Co102 Co 0.25442 0.03503 0.39012 0.0
Co103 Co 0.2179 0.07537 0.36443 0.0
C104 C 0.2565 0.09037 0.40676 0.0
O105 O 0.26393 0.06722 0.40792 0.0
O106 O 0.23834 0.09662 0.39133 0.0
C107 C 0.26683 1.00661 0.43283 0.0
O108 O 0.24829 0.02135 0.44163 0.0
C109 C 0.17224 0.10979 0.36799 0.0
C110 C 0.15967 0.11331 0.32768 0.0
C111 C 0.15297 0.12036 0.35254 0.0
N112 N 0.18919 0.09694 0.35304 0.0
N113 N 0.18156 0.09935 0.32891 0.0
C114 C 0.17438 0.11139 0.39661 0.0
H115 H 0.1753 0.09172 0.40471 0.0
H116 H 0.15795 0.12198 0.40517 0.0
H117 H 0.19262 0.12125 0.40173 0.0
C118 C 0.20627 1.00423 0.3903 0.0
N119 N 0.21839 0.0272 0.38884 0.0
N120 N 0.2031 0.04373 0.3773 0.0
C121 C 0.18099 0.03145 0.37069 0.0
C122 C 0.18215 1.00608 0.37895 0.0
C123 C 0.21929 0.97963 0.39713 0.0
H124 H 0.22618 0.98049 0.4172 0.0
H125 H 0.20617 0.96291 0.39546 0.0
H126 H 0.23583 0.97686 0.38396 0.0
O127 O 0.26711 0.03584 0.35459 0.0
O128 O 0.24181 0.06424 0.33465 0.0
H129 H 0.14623 0.02774 0.3479 0.0
H130 H 0.15325 0.05945 0.35972 0.0
C131 C 0.16184 0.04175 0.35191 0.0
H132 H 0.17181 0.04661 0.3337 0.0
H133 H 0.19092 0.09093 0.3133 0.0
O134 O 0.27335 1.00868 0.40944 0.0
C135 C 0.26039 0.04787 0.33435 0.0
Co136 Co 0.03437 0.81759 0.67801 0.0
Co137 Co 0.99391 0.85138 0.70692 0.0
C138 C 0.97852 0.81492 0.66281 0.0
O139 O 1.00183 0.80783 0.66092 0.0
O140 O 0.97242 0.83249 0.67892 0.0
C141 C 0.05923 0.78781 0.63901 0.0
O142 O 0.03608 0.77923 0.63352 0.0
C143 C 0.96068 0.89748 0.70456 0.0
C144 C 0.95622 0.90874 0.74514 0.0
C145 C 0.95008 0.91639 0.72031 0.0
N146 N 0.97261 0.87974 0.7193 0.0
N147 N 0.96971 0.88662 0.74359 0.0
C148 C 0.96001 0.89639 0.67585 0.0
H149 H 0.94929 0.879 0.66976 0.0
H150 H 0.97997 0.89462 0.66838 0.0
H151 H 0.9506 0.91357 0.66749 0.0
C152 C 0.06364 0.86544 0.67719 0.0
N153 N 0.04094 0.85308 0.68021 0.0
N154 N 0.02565 0.86685 0.69483 0.0
C155 C 0.03877 0.88805 0.7025 0.0
C156 C 0.06329 0.88794 0.69145 0.0
C157 C 0.08672 0.85415 0.66419 0.0
H158 H 0.0944 0.83821 0.67607 0.0
H159 H 0.08108 0.84637 0.64515 0.0
H160 H 0.10212 0.8687 0.66151 0.0
O161 O 0.03429 0.80352 0.71305 0.0
O162 O 1.00415 0.82502 0.73488 0.0
H163 H 0.025 0.89341 0.74082 0.0
H164 H 0.04525 0.91929 0.72922 0.0
C165 C 0.03013 0.90521 0.72383 0.0
H166 H 1.01266 0.91567 0.71775 0.0
H167 H 0.97751 0.8766 0.75911 0.0
O168 O 0.06262 0.80261 0.65805 0.0
C169 C 0.02152 0.80742 0.73364 0.0
Co170 Co 0.25682 0.03413 0.67839 0.0
Co171 Co 0.22049 0.9934 0.7041 0.0
C172 C 0.25888 0.97877 0.66128 0.0
O173 O 0.26632 1.00197 0.66016 0.0
O174 O 0.24073 0.9725 0.67674 0.0
C175 C 0.2679 0.06273 0.63574 0.0
O176 O 0.25 0.04697 0.62735 0.0
C177 C 0.17395 0.95994 0.70051 0.0
C178 C 0.16357 0.9535 0.74107 0.0
C179 C 0.15549 0.94827 0.71616 0.0
N180 N 0.19179 0.97167 0.71543 0.0
N181 N 0.18541 0.96756 0.73969 0.0
C182 C 0.17449 0.96041 0.67179 0.0
H183 H 0.17407 0.98062 0.66511 0.0
H184 H 0.15801 0.9497 0.66343 0.0
H185 H 0.19282 0.95185 0.66496 0.0
C186 C 0.20891 0.06501 0.67956 0.0
N187 N 0.22083 0.04193 0.68042 0.0
N188 N 0.20571 0.02538 0.69216 0.0
C189 C 0.18396 0.03779 0.69961 0.0
C190 C 0.1851 0.06328 0.69162 0.0
C191 C 0.22187 0.08946 0.67193 0.0
H192 H 0.23995 0.09149 0.68307 0.0
H193 H 0.22639 0.08885 0.65117 0.0
H194 H 0.20955 0.10648 0.67539 0.0
O195 O 0.27004 0.03266 0.71383 0.0
O196 O 0.24493 1.00391 0.73365 0.0
H197 H 0.1759 0.02122 0.73629 0.0
H198 H 0.15043 0.04163 0.72415 0.0
C199 C 0.16531 0.02731 0.7188 0.0
H200 H 0.15574 1.01028 0.71059 0.0
H201 H 0.1957 0.97476 0.75535 0.0
O202 O 0.27483 0.0613 0.65906 0.0
C203 C 0.26361 0.02021 0.73395 0.0
Co204 Co 0.04004 0.24965 0.67454 0.0
Co205 Co 0.08008 0.21813 0.70621 0.0
C206 C 0.09625 0.25498 0.66263 0.0
O207 O 0.07285 0.26058 0.65841 0.0
O208 O 0.10211 0.23848 0.6799 0.0
C209 C 0.01554 0.27978 0.63567 0.0
O210 O 0.03837 0.28994 0.63174 0.0
C211 C 0.1145 0.17314 0.70445 0.0
C212 C 0.11754 0.16099 0.74488 0.0
C213 C 0.12471 0.15398 0.72012 0.0
N214 N 0.10181 0.19039 0.71913 0.0
N215 N 0.10388 0.18301 0.74335 0.0
C216 C 0.11674 0.17522 0.67588 0.0
H217 H 0.13159 0.18984 0.67128 0.0
H218 H 0.09817 0.18183 0.66762 0.0
H219 H 0.12257 0.15677 0.66701 0.0
C220 C 1.01214 0.20126 0.67396 0.0
N221 N 0.03459 0.21407 0.67691 0.0
N222 N 0.04958 0.20136 0.69276 0.0
C223 C 0.03653 0.18043 0.70118 0.0
C224 C 1.01231 0.17965 0.68953 0.0
C225 C 0.98915 0.21173 0.66012 0.0
H226 H 0.98077 0.2277 0.67147 0.0
H227 H 0.99508 0.21923 0.64107 0.0
H228 H 0.97418 0.19674 0.6574 0.0
O229 O 0.03771 0.26369 0.70972 0.0
O230 O 0.06738 0.24382 0.73355 0.0
H231 H 0.04951 0.17752 0.74005 0.0
H232 H 0.02946 0.15097 0.72972 0.0
C233 C 0.04471 0.16466 0.72374 0.0
H234 H 0.06225 0.15374 0.71868 0.0
H235 H 0.0953 0.19252 0.75878 0.0
O236 O 1.01218 0.26369 0.6536 0.0
C237 C 0.04936 0.26062 0.73112 0.0
Co238 Co 0.82107 0.03737 0.67525 0.0
Co239 Co 0.85461 0.07721 0.70501 0.0
C240 C 0.81805 0.09306 0.66104 0.0
O241 O 0.81177 0.06978 0.6576 0.0
O242 O 0.83468 0.09895 0.67824 0.0
C243 C 0.81072 1.00769 0.63245 0.0
O244 O 0.82996 0.02172 0.62387 0.0
C245 C 0.9013 0.10973 0.702 0.0
C246 C 0.91128 0.11717 0.74247 0.0
C247 C 0.91971 0.12155 0.71752 0.0
N248 N 0.88307 0.09878 0.71697 0.0
N249 N 0.88922 0.1034 0.7412 0.0
C250 C 0.90092 0.10902 0.67328 0.0
H251 H 0.88829 0.09327 0.66635 0.0
H252 H 0.92066 0.10662 0.6655 0.0
H253 H 0.89329 0.12754 0.66605 0.0
C254 C 0.86907 1.00687 0.67732 0.0
N255 N 0.85673 0.02974 0.67846 0.0
N256 N 0.87033 0.04568 0.69265 0.0
C257 C 0.89142 0.03308 0.70147 0.0
C258 C 0.8915 1.00816 0.6918 0.0
C259 C 0.85728 0.98262 0.66738 0.0
H260 H 0.83852 0.97961 0.67699 0.0
H261 H 0.85432 0.98412 0.64639 0.0
H262 H 0.86969 0.96567 0.67093 0.0
O263 O 0.80697 0.03736 0.71032 0.0
O264 O 0.82872 0.06645 0.73317 0.0
H265 H 0.89516 0.04842 0.7394 0.0
H266 H 0.92145 0.0276 0.72991 0.0
C267 C 0.90773 0.04248 0.7232 0.0
H268 H 0.91872 0.05946 0.71686 0.0
H269 H 0.87864 0.09677 0.75691 0.0
O270 O 0.80299 1.01117 0.65525 0.0
C271 C 0.81094 0.04929 0.73138 0.0
Co272 Co 0.39218 0.03257 0.25554 0.0
Co273 Co 0.36846 0.992 0.21814 0.0
C274 C 0.41043 0.97776 0.25732 0.0
O275 O 0.41079 1.00082 0.26513 0.0
O276 O 0.39553 0.97138 0.23878 0.0
C277 C 0.43356 0.06292 0.26837 0.0
O278 O 0.4432 0.04896 0.24966 0.0
C279 C 0.37463 0.96086 0.17105 0.0
C280 C 0.33526 0.94773 0.16212 0.0
C281 C 0.36047 0.94672 0.15327 0.0
N282 N 0.35867 0.9699 0.18942 0.0
N283 N 0.33512 0.96182 0.18395 0.0
C284 C 0.40288 0.96646 0.17002 0.0
H285 H 0.40787 0.98265 0.18295 0.0
H286 H 0.40876 0.97092 0.15 0.0
H287 H 0.41373 0.94924 0.1763 0.0
C288 C 0.3924 0.06395 0.20797 0.0
N289 N 0.3913 0.04081 0.21972 0.0
N290 N 0.38099 0.02401 0.20386 0.0
C291 C 0.37519 0.03613 0.1815 0.0
C292 C 0.38237 0.06184 0.18331 0.0
C293 C 0.39799 0.08861 0.22157 0.0
H294 H 0.41856 0.08924 0.22709 0.0
H295 H 0.39411 0.1056 0.20936 0.0
H296 H 0.3859 0.08969 0.23907 0.0
O297 O 0.35645 0.03074 0.26741 0.0
O298 O 0.33768 1.00218 0.24137 0.0
H299 H 0.35196 0.03962 0.14707 0.0
H300 H 0.37032 1.01048 0.14988 0.0
C301 C 0.35883 0.02476 0.16072 0.0
H302 H 0.34201 0.01485 0.16932 0.0
H303 H 0.31887 0.96618 0.19493 0.0
O304 O 0.41034 0.05933 0.27495 0.0
C305 C 0.33659 0.01835 0.26009 0.0
Co306 Co 0.03882 0.39607 0.25179 0.0
Co307 Co 0.07945 0.36527 0.22033 0.0
C308 C 0.09451 0.40967 0.25679 0.0
O309 O 0.07105 0.41371 0.26226 0.0
O310 O 0.10053 0.3921 0.24072 0.0
C311 C 1.0134 0.43329 0.2829 0.0
O312 O 0.03581 0.4363 0.29423 0.0
C313 C 0.11027 0.36757 0.17237 0.0
C314 C 0.13129 0.33087 0.17217 0.0
C315 C 0.12846 0.35358 0.15846 0.0
N316 N 0.10282 0.35385 0.19316 0.0
N317 N 0.11549 0.33186 0.19279 0.0
C318 C 0.10071 0.39402 0.16639 0.0
H319 H 0.07947 0.39475 0.16769 0.0
H320 H 0.10663 0.40028 0.14689 0.0
H321 H 0.10845 0.40762 0.18085 0.0
C322 C 1.01063 0.39538 0.20339 0.0
N323 N 0.03314 0.39297 0.21621 0.0
N324 N 0.04837 0.3773 0.2036 0.0
C325 C 0.03544 0.3684 0.18276 0.0
C326 C 1.01105 0.37966 0.18185 0.0
C327 C 0.98752 0.40916 0.21365 0.0
H328 H 0.99333 0.42827 0.22107 0.0
H329 H 0.97263 0.41168 0.19855 0.0
H330 H 0.9791 0.39793 0.22971 0.0
O331 O 0.03779 0.361 0.2663 0.0
O332 O 0.06766 0.33762 0.24616 0.0
H333 H 0.02805 0.33618 0.15765 0.0
H334 H 0.0569 0.35409 0.15087 0.0
C335 C 0.04452 0.34652 0.16651 0.0
H336 H 0.05615 0.33303 0.17822 0.0
H337 H 0.11366 0.31767 0.20681 0.0
O338 O 1.01046 0.41629 0.26574 0.0
C339 C 0.04977 0.33982 0.26318 0.0
Co340 Co 0.67892 0.03557 0.25481 0.0
Co341 Co 0.70335 0.07478 0.21613 0.0
C342 C 0.66278 0.0911 0.25554 0.0
O343 O 0.66125 0.06814 0.2634 0.0
O344 O 0.67797 0.09692 0.23706 0.0
C345 C 0.64165 1.01275 0.28836 0.0
O346 O 0.6394 0.0356 0.29875 0.0
C347 C 0.70075 0.1079 0.16937 0.0
C348 C 0.74164 0.11387 0.15963 0.0
C349 C 0.71687 0.11962 0.15146 0.0
N350 N 0.71524 0.09568 0.18715 0.0
N351 N 0.73972 0.09945 0.18113 0.0
C352 C 0.67197 0.10844 0.1696 0.0
H353 H 0.66427 0.09327 0.18246 0.0
H354 H 0.66433 0.10586 0.14984 0.0
H355 H 0.66544 0.12744 0.17668 0.0
C356 C 0.68023 1.00289 0.20955 0.0
N357 N 0.68046 0.02669 0.21976 0.0
N358 N 0.68898 0.04316 0.20264 0.0
C359 C 0.69328 0.03023 0.18041 0.0
C360 C 0.6883 1.00409 0.18411 0.0
C361 C 0.67711 0.97905 0.22534 0.0
H362 H 0.68841 0.98086 0.24336 0.0
H363 H 0.6565 0.97673 0.23054 0.0
H364 H 0.68363 0.96164 0.21497 0.0
O365 O 0.71434 0.03624 0.26728 0.0
O366 O 0.73347 0.06333 0.23983 0.0
H367 H 0.72312 0.05055 0.16062 0.0
H368 H 0.70528 0.02827 0.1406 0.0
C369 C 0.70385 0.04227 0.15661 0.0
H370 H 0.69077 0.05797 0.15078 0.0
H371 H 0.75516 0.09198 0.19156 0.0
O372 O 0.65858 1.00861 0.2713 0.0
C373 C 0.73437 0.04784 0.25914 0.0
Co374 Co 0.03573 0.67469 0.25377 0.0
Co375 Co 0.99417 0.70261 0.22024 0.0
C376 C 0.97994 0.65853 0.25682 0.0
O377 O 1.0034 0.65679 0.26358 0.0
O378 O 0.97346 0.67461 0.2394 0.0
C379 C 0.06467 0.63159 0.26307 0.0
O380 O 0.04866 0.6235 0.24523 0.0
C381 C 0.95947 0.6996 0.17504 0.0
C382 C 0.95543 0.73988 0.16292 0.0
C383 C 0.94879 0.71503 0.15586 0.0
N384 N 0.97199 0.71454 0.19224 0.0
N385 N 0.96925 0.73866 0.1849 0.0
C386 C 0.95828 0.67099 0.17687 0.0
H387 H 0.94795 0.66557 0.19473 0.0
H388 H 0.97813 0.66321 0.17829 0.0
H389 H 0.94818 0.66238 0.16017 0.0
C390 C 0.06528 0.6768 0.20528 0.0
N391 N 0.04256 0.67799 0.218 0.0
N392 N 0.02596 0.69118 0.2042 0.0
C393 C 0.03798 0.6992 0.18247 0.0
C394 C 0.06324 0.69017 0.18233 0.0
C395 C 0.08994 0.66754 0.21685 0.0
H396 H 0.09318 0.67774 0.23523 0.0
H397 H 0.08863 0.64668 0.22045 0.0
H398 H 0.1067 0.67085 0.20405 0.0
O399 O 0.03489 0.70944 0.26816 0.0
O400 O 1.0043 0.73066 0.24668 0.0
H401 H 0.02233 0.73659 0.17643 0.0
H402 H 0.04175 0.72495 0.15 0.0
C403 C 0.02757 0.71942 0.16497 0.0
H404 H 1.00997 0.7122 0.15548 0.0
H405 H 0.97748 0.75427 0.19444 0.0
O406 O 0.06311 0.65467 0.27055 0.0
C407 C 0.02173 0.72973 0.26431 0.0
Co408 Co 0.39516 0.03595 0.81744 0.0
Co409 Co 0.3682 0.07607 0.85311 0.0
C410 C 0.41054 0.09151 0.81462 0.0
O411 O 0.41207 0.06833 0.80737 0.0
O412 O 0.39508 0.09763 0.8328 0.0
C413 C 0.43381 1.01194 0.78655 0.0
O414 O 0.4385 0.03504 0.77765 0.0
C415 C 0.3714 0.11056 0.89836 0.0
C416 C 0.33111 0.11306 0.91152 0.0
C417 C 0.35596 0.12075 0.9178 0.0
N418 N 0.35645 0.09737 0.88167 0.0
N419 N 0.33233 0.09914 0.88966 0.0
C420 C 0.39999 0.11297 0.89569 0.0
H421 H 0.40861 0.09355 0.89409 0.0
H422 H 0.40867 0.12343 0.91212 0.0
H423 H 0.40447 0.1234 0.87765 0.0
C424 C 0.3975 1.00635 0.86525 0.0
N425 N 0.39448 0.02913 0.85323 0.0
N426 N 0.38126 0.04469 0.86808 0.0
C427 C 0.37451 0.03172 0.88967 0.0
C428 C 0.38456 1.00689 0.88863 0.0
C429 C 0.40914 0.98312 0.85296 0.0
H430 H 0.3965 0.97646 0.83709 0.0
H431 H 0.42825 0.98812 0.8448 0.0
H432 H 0.41157 0.9673 0.86702 0.0
O433 O 0.35936 0.03579 0.80455 0.0
O434 O 0.33893 0.06474 0.82886 0.0
H435 H 0.33682 0.04599 0.89781 0.0
H436 H 0.35024 0.02632 0.92314 0.0
C437 C 0.35471 0.04098 0.90835 0.0
H438 H 0.36188 0.05851 0.91796 0.0
H439 H 0.31675 0.0903 0.88056 0.0
O440 O 0.41509 1.00817 0.80174 0.0
C441 C 0.33897 0.04804 0.81061 0.0
Co442 Co 0.0339 0.39133 0.81701 0.0
Co443 Co 0.99384 0.36414 0.85274 0.0
C444 C 0.97839 0.40801 0.81646 0.0
O445 O 1.00153 0.40939 0.80872 0.0
O446 O 0.97237 0.3921 0.8342 0.0
C447 C 0.06326 0.43375 0.80462 0.0
O448 O 0.04937 0.44285 0.82367 0.0
C449 C 0.96068 0.36701 0.89916 0.0
C450 C 0.95607 0.32655 0.91054 0.0
C451 C 0.9499 0.35136 0.91808 0.0
N452 N 0.97275 0.35222 0.88154 0.0
N453 N 0.96975 0.32801 0.88849 0.0
C454 C 0.95983 0.39565 0.89784 0.0
H455 H 0.94803 0.40145 0.88103 0.0
H456 H 0.9796 0.4032 0.89478 0.0
H457 H 0.95138 0.40412 0.91548 0.0
C458 C 0.06567 0.39029 0.86435 0.0
N459 N 0.04251 0.38867 0.85246 0.0
N460 N 0.0264 0.37585 0.8672 0.0
C461 C 0.03918 0.3685 0.88873 0.0
C462 C 0.06443 0.3776 0.88776 0.0
C463 C 0.08987 0.39953 0.85176 0.0
H464 H 0.09268 0.38882 0.83362 0.0
H465 H 0.08822 0.42025 0.8475 0.0
H466 H 0.10702 0.39684 0.86417 0.0
O467 O 0.0321 0.35648 0.80325 0.0
O468 O 1.00268 0.33555 0.82652 0.0
H469 H 0.02349 0.33144 0.89658 0.0
H470 H 0.04389 0.34386 0.92194 0.0
C471 C 0.02926 0.34896 0.90725 0.0
H472 H 1.01203 0.35663 0.91699 0.0
H473 H 0.97751 0.31247 0.8785 0.0
O474 O 0.06001 0.41063 0.79785 0.0
C475 C 0.01927 0.33621 0.80813 0.0
Co476 Co 0.67968 0.03497 0.81839 0.0
Co477 Co 0.70711 0.99365 0.85234 0.0
C478 C 0.66274 0.97966 0.81565 0.0
O479 O 0.66127 1.00297 0.80871 0.0
O480 O 0.67881 0.97316 0.83314 0.0
C481 C 0.63705 0.06411 0.80726 0.0
O482 O 0.62804 0.04845 0.82489 0.0
C483 C 0.70448 0.95931 0.89769 0.0
C484 C 0.74519 0.95486 0.9089 0.0
C485 C 0.72033 0.94843 0.9164 0.0
N486 N 0.71922 0.97175 0.88027 0.0
N487 N 0.74359 0.9688 0.88708 0.0
C488 C 0.6757 0.95837 0.89646 0.0
H489 H 0.66802 0.97821 0.89541 0.0
H490 H 0.66736 0.94825 0.91326 0.0
H491 H 0.66978 0.94831 0.87861 0.0
C492 C 0.68169 0.06475 0.86661 0.0
N493 N 0.68268 0.04199 0.85412 0.0
N494 N 0.6958 0.0255 0.86809 0.0
C495 C 0.70402 0.03763 0.88967 0.0
C496 C 0.69521 0.06287 0.88952 0.0
C497 C 0.67262 0.08925 0.85478 0.0
H498 H 0.68374 0.09273 0.83696 0.0
H499 H 0.65189 0.08769 0.85009 0.0
H500 H 0.6751 0.10586 0.86787 0.0
O501 O 0.71466 0.03357 0.80446 0.0
O502 O 0.73562 1.00321 0.82635 0.0
H503 H 0.74145 0.0218 0.89586 0.0
H504 H 0.72988 0.0414 0.92217 0.0
C505 C 0.72423 0.02723 0.90726 0.0
H506 H 0.71682 1.00981 0.91683 0.0
H507 H 0.75912 0.97688 0.87723 0.0
O508 O 0.66053 0.06236 0.80081 0.0
C509 C 0.73495 0.02046 0.80867 0.0
Co510 Co 0.03982 0.67276 0.81861 0.0
Co511 Co 0.08043 0.70274 0.8511 0.0
C512 C 0.09553 0.65918 0.81343 0.0
O513 O 0.07202 0.65536 0.80791 0.0
O514 O 0.10171 0.67633 0.83 0.0
C515 C 1.01416 0.63749 0.78542 0.0
O516 O 0.03611 0.63622 0.77291 0.0
C517 C 0.11383 0.69885 0.89713 0.0
C518 C 0.12092 0.73902 0.90816 0.0
C519 C 0.12568 0.71395 0.91584 0.0
N520 N 0.10253 0.71416 0.87944 0.0
N521 N 0.10693 0.73822 0.88624 0.0
C522 C 0.11349 0.6702 0.8959 0.0
H523 H 0.09744 0.66345 0.88351 0.0
H524 H 0.1117 0.66179 0.91539 0.0
H525 H 0.13198 0.66351 0.88759 0.0
C526 C 1.01159 0.6719 0.86697 0.0
N527 N 0.03409 0.67475 0.85422 0.0
N528 N 0.04944 0.68987 0.86739 0.0
C529 C 0.0366 0.69799 0.88858 0.0
C530 C 1.01215 0.6868 0.88909 0.0
C531 C 0.98835 0.65871 0.85618 0.0
H532 H 0.98019 0.67051 0.84041 0.0
H533 H 0.99394 0.63977 0.84824 0.0
H534 H 0.97333 0.65593 0.87112 0.0
O535 O 0.03894 0.70814 0.80486 0.0
O536 O 0.06864 0.731 0.82587 0.0
H537 H 0.05126 0.73614 0.89252 0.0
H538 H 0.03003 0.72628 0.9184 0.0
C539 C 0.04535 0.71989 0.90497 0.0
H540 H 0.06238 0.71389 0.91623 0.0
H541 H 0.09995 0.75411 0.87624 0.0
O542 O 1.01155 0.65286 0.80408 0.0
C543 C 0.05094 0.72923 0.80859 0.0
Co544 Co 0.25988 0.39036 0.03469 0.0
Co545 Co 0.2201 0.36735 0.99537 0.0
C546 C 0.26003 0.40739 0.97908 0.0
O547 O 0.26819 0.40831 1.00205 0.0
O548 O 0.24113 0.39271 0.9732 0.0
C549 C 0.2678 0.43206 0.06568 0.0
O550 O 0.24662 0.43833 0.05335 0.0
C551 C 0.17343 0.36958 0.96142 0.0
C552 C 0.16157 0.32902 0.95929 0.0
C553 C 0.15455 0.3534 0.95123 0.0
N554 N 0.19061 0.35546 0.97491 0.0
N555 N 0.18331 0.33119 0.97341 0.0
C556 C 0.17529 0.39802 0.95826 0.0
H557 H 0.18448 0.40671 0.97546 0.0
H558 H 0.15603 0.40662 0.95494 0.0
H559 H 0.18761 0.40226 0.94135 0.0
C560 C 0.21463 0.38688 0.06822 0.0
N561 N 0.22469 0.38817 0.04433 0.0
N562 N 0.20713 0.38125 0.02748 0.0
C563 C 0.18476 0.37699 0.04033 0.0
C564 C 0.1888 0.38015 0.06672 0.0
C565 C 0.23061 0.38662 0.09215 0.0
H566 H 0.24978 0.3783 0.08789 0.0
H567 H 0.23301 0.40654 0.09922 0.0
H568 H 0.22134 0.37517 0.10758 0.0
O569 O 0.27212 0.35515 0.03322 0.0
O570 O 0.24369 0.33702 1.00632 0.0
H571 H 0.16286 0.34877 0.02003 0.0
H572 H 0.144 0.3685 0.04159 0.0
C573 C 0.16037 0.36838 0.02786 0.0
H574 H 0.15611 0.3816 1.0118 0.0
H575 H 0.19296 0.31608 0.98236 0.0
O576 O 0.27843 0.4107 0.06071 0.0
C577 C 0.2633 0.33555 0.02149 0.0
Co578 Co 0.25569 0.67488 0.03917 0.0
Co579 Co 0.21942 0.7035 0.07767 0.0
C580 C 0.25752 0.66137 0.09521 0.0
O581 O 0.26471 0.6581 0.07215 0.0
O582 O 0.23996 0.67784 0.10046 0.0
C583 C 0.28853 0.63693 0.01654 0.0
O584 O 0.29821 0.63411 0.03969 0.0
C585 C 0.17288 0.70137 0.11079 0.0
C586 C 0.161 0.74185 0.11363 0.0
C587 C 0.15376 0.71724 0.12086 0.0
N588 N 0.19039 0.71584 0.09816 0.0
N589 N 0.18312 0.74007 0.10007 0.0
C590 C 0.17474 0.67287 0.1133 0.0
H591 H 0.1871 0.66832 0.13008 0.0
H592 H 0.1839 0.66459 0.09589 0.0
H593 H 0.15554 0.66407 0.11649 0.0
C594 C 0.20852 0.67298 1.00807 0.0
N595 N 0.22 0.67604 0.03122 0.0
N596 N 0.20499 0.68976 0.04619 0.0
C597 C 0.18387 0.69673 0.03249 0.0
C598 C 0.18531 0.6863 1.00779 0.0
C599 C 0.22132 0.66098 0.98526 0.0
H600 H 0.22905 0.64189 0.99067 0.0
H601 H 0.20764 0.65864 0.96902 0.0
H602 H 0.23763 0.67324 0.97898 0.0
O603 O 0.26907 0.7107 0.03879 0.0
O604 O 0.24373 0.73227 0.06604 0.0
H605 H 0.15125 0.7218 0.02569 0.0
H606 H 0.15512 0.71054 0.05823 0.0
C607 C 0.16549 0.71713 0.0409 0.0
H608 H 0.17643 0.73469 0.04606 0.0
H609 H 0.19297 0.75538 0.09166 0.0
O610 O 0.27202 0.65431 1.01214 0.0
C611 C 0.26262 0.73153 0.05005 0.0
Co612 Co 0.39314 0.25447 0.03843 0.0
Co613 Co 0.36718 0.21724 0.07767 0.0
C614 C 0.40865 0.25633 0.09396 0.0
O615 O 0.41078 0.26362 0.07082 0.0
O616 O 0.39289 0.23833 0.09981 0.0
C617 C 0.43574 0.2663 1.00976 0.0
O618 O 0.44406 0.24687 0.02356 0.0
C619 C 0.37064 0.17186 0.1122 0.0
C620 C 0.33074 0.15736 0.11277 0.0
C621 C 0.35543 0.15175 0.12137 0.0
N622 N 0.35574 0.18823 0.0986 0.0
N623 N 0.33183 0.17947 0.09929 0.0
C624 C 0.39892 0.1756 0.11615 0.0
H625 H 0.40817 0.18058 0.09757 0.0
H626 H 0.40813 0.15833 0.12453 0.0
H627 H 0.40186 0.19198 0.12944 0.0
C628 C 0.39375 0.20738 1.00635 0.0
N629 N 0.39214 0.21887 0.02966 0.0
N630 N 0.3809 0.20309 0.04593 0.0
C631 C 0.37494 0.18111 0.03322 0.0
C632 C 0.38305 0.18299 1.00777 0.0
C633 C 0.4004 0.22113 0.982 0.0
H634 H 0.42121 0.22574 0.98185 0.0
H635 H 0.39631 0.2094 0.96469 0.0
H636 H 0.38913 0.23913 0.98098 0.0
O637 O 0.35737 0.26687 0.03915 0.0
O638 O 0.33714 0.24056 0.06642 0.0
H639 H 0.35417 0.14523 0.02933 0.0
H640 H 0.3647 0.15319 0.06133 0.0
C641 C 0.35693 0.16112 0.04328 0.0
H642 H 0.33799 0.17005 0.04742 0.0
H643 H 0.31635 0.18815 0.08991 0.0
O644 O 0.41273 0.27378 1.01279 0.0
C645 C 0.33694 0.25956 0.05063 0.0
Co646 Co 0.81921 0.39482 0.03831 0.0
Co647 Co 0.85315 0.36576 0.07873 0.0
C648 C 0.81629 0.40992 0.0939 0.0
O649 O 0.81025 0.41328 0.07049 0.0
O650 O 0.83276 0.39266 0.10001 0.0
C651 C 0.80841 0.43786 1.00972 0.0
O652 O 0.82603 0.44646 0.02571 0.0
C653 C 0.9002 0.3687 0.11124 0.0
C654 C 0.90948 0.3282 0.11895 0.0
C655 C 0.91836 0.35299 0.12315 0.0
N656 N 0.88167 0.35396 0.10041 0.0
N657 N 0.88743 0.32972 0.1052 0.0
C658 C 0.90036 0.39735 0.11029 0.0
H659 H 0.88699 0.40439 0.0952 0.0
H660 H 0.9201 0.40464 0.10662 0.0
H661 H 0.89407 0.40491 0.12921 0.0
C662 C 0.86735 0.39299 1.00808 0.0
N663 N 0.85491 0.39162 0.03092 0.0
N664 N 0.86867 0.37776 0.04698 0.0
C665 C 0.88991 0.36924 0.03441 0.0
C666 C 0.88995 0.37887 1.00944 0.0
C667 C 0.85567 0.40311 0.98387 0.0
H668 H 0.83744 0.39271 0.98013 0.0
H669 H 0.85165 0.42382 0.98605 0.0
H670 H 0.86863 0.4007 0.9671 0.0
O671 O 0.80481 0.35966 0.03955 0.0
O672 O 0.8276 0.33736 0.06833 0.0
H673 H 0.89427 0.33162 0.05012 0.0
H674 H 0.92036 0.3413 0.02907 0.0
C675 C 0.90657 0.34792 0.04396 0.0
H676 H 0.91749 0.35462 0.06087 0.0
H677 H 0.87657 0.31416 0.0987 0.0
O678 O 0.80175 0.4145 1.01114 0.0
C679 C 0.80938 0.3388 0.05161 0.0
Co680 Co 0.68033 0.81476 0.03448 0.0
Co681 Co 0.70622 0.84993 0.07573 0.0
C682 C 0.66358 0.81131 0.08948 0.0
O683 O 0.66164 0.80452 0.06616 0.0
O684 O 0.67956 0.82882 0.09592 0.0
C685 C 0.63748 0.80421 1.00657 0.0
O686 O 0.62962 0.82204 0.02262 0.0
C687 C 0.70163 0.89773 0.10673 0.0
C688 C 0.73829 0.89874 0.12808 0.0
C689 C 0.71525 0.91195 0.125 0.0
N690 N 0.71601 0.87737 0.09935 0.0
N691 N 0.73791 0.87819 0.11229 0.0
C692 C 0.67504 0.90313 0.09687 0.0
H693 H 0.6732 0.8975 0.07648 0.0
H694 H 0.67009 0.92371 0.09912 0.0
H695 H 0.66094 0.89145 0.10782 0.0
C696 C 0.68119 0.86308 1.00446 0.0
N697 N 0.68236 0.85069 0.02729 0.0
N698 N 0.69449 0.86532 0.044 0.0
C699 C 0.70197 0.88719 0.03197 0.0
C700 C 0.69349 0.88666 1.00656 0.0
C701 C 0.67299 0.85079 0.97981 0.0
H702 H 0.65225 0.84598 0.98081 0.0
H703 H 0.67586 0.86358 0.96303 0.0
H704 H 0.68428 0.83299 0.97696 0.0
O705 O 0.716 0.80165 0.03595 0.0
O706 O 0.73603 0.82623 0.06506 0.0
H707 H 0.73128 0.91639 0.02744 0.0
H708 H 0.7106 0.92011 0.05488 0.0
C709 C 0.72097 0.90588 0.04289 0.0
H710 H 0.73515 0.89574 0.05517 0.0
H711 H 0.75251 0.86454 0.11058 0.0
O712 O 0.66086 0.79722 1.00732 0.0
C713 C 0.73621 0.80787 0.04849 0.0
Co714 Co 0.81743 0.67632 0.03282 0.0
Co715 Co 0.855 0.70263 0.99384 0.0
C716 C 0.81584 0.66118 0.97723 0.0
O717 O 0.80847 0.65861 1.00033 0.0
O718 O 0.83379 0.67711 0.97167 0.0
C719 C 0.80478 0.63438 0.06234 0.0
O720 O 0.82376 0.62519 0.04836 0.0
C721 C 0.90199 0.69843 0.96112 0.0
C722 C 0.91325 0.73873 0.95496 0.0
C723 C 0.92081 0.71375 0.94964 0.0
N724 N 0.88437 0.71359 0.97279 0.0
N725 N 0.89131 0.7377 0.9689 0.0
C726 C 0.90061 0.6698 0.96081 0.0
H727 H 0.88871 0.66277 0.97708 0.0
H728 H 0.92018 0.6613 0.9617 0.0
H729 H 0.89152 0.66355 0.94254 0.0
C730 C 0.8645 0.67624 0.06529 0.0
N731 N 0.85314 0.67763 0.04187 0.0
N732 N 0.86886 0.68934 0.02584 0.0
C733 C 0.8905 0.69607 0.03886 0.0
C734 C 0.88863 0.68776 0.06425 0.0
C735 C 0.85077 0.6688 0.08945 0.0
H736 H 0.83253 0.6797 0.09073 0.0
H737 H 0.84649 0.64801 0.08906 0.0
H738 H 0.86247 0.67263 0.10687 0.0
O739 O 0.80486 0.71193 0.03163 0.0
O740 O 0.83134 0.73245 1.00466 0.0
H741 H 0.89993 0.73262 0.02284 0.0
H742 H 0.9246 0.71962 0.04373 0.0
C743 C 0.90989 0.71483 0.02901 0.0
H744 H 0.91957 0.7065 1.01209 0.0
H745 H 0.88126 0.75349 0.97607 0.0
O746 O 0.79788 0.65741 0.05886 0.0
C747 C 0.81206 0.73238 0.02023 0.0
Co748 Co 0.39351 0.81394 0.03261 0.0
Co749 Co 0.36702 0.85072 0.99323 0.0
C750 C 0.40817 0.81158 0.97684 0.0
O751 O 0.41074 0.80441 0.99999 0.0
O752 O 0.39233 0.82951 0.97115 0.0
C753 C 0.4362 0.80641 0.06251 0.0
O754 O 0.44271 0.82668 0.04898 0.0
C755 C 0.37156 0.89738 0.96089 0.0
C756 C 0.33124 0.908 0.95303 0.0
C757 C 0.35645 0.9159 0.94882 0.0
N758 N 0.35609 0.87958 0.97181 0.0
N759 N 0.33196 0.88612 0.96692 0.0
C760 C 0.40034 0.89612 0.96138 0.0
H761 H 0.40699 0.88378 0.97744 0.0
H762 H 0.40882 0.91557 0.96315 0.0
H763 H 0.40716 0.88772 0.943 0.0
C764 C 0.39337 0.86072 0.06398 0.0
N765 N 0.39226 0.84957 0.04061 0.0
N766 N 0.38129 0.86533 0.02439 0.0
C767 C 0.37522 0.88726 0.03707 0.0
C768 C 0.38552 0.88648 0.06228 0.0
C769 C 0.39196 0.84463 0.08787 0.0
H770 H 0.38312 0.82581 0.08329 0.0
H771 H 0.41158 0.84128 0.09551 0.0
H772 H 0.37991 0.85369 0.10293 0.0
O773 O 0.35793 0.80109 0.03241 0.0
O774 O 0.33732 0.82699 1.00493 0.0
H775 H 0.3419 0.91115 0.04537 0.0
H776 H 0.3585 0.91812 0.01542 0.0
C777 C 0.35233 0.90279 0.02879 0.0
H778 H 0.33846 0.89033 0.01847 0.0
H779 H 0.31595 0.87585 0.97337 0.0
O780 O 0.4143 0.79624 0.0588 0.0
C781 C 0.33743 0.80804 0.02084 0.0
Co782 Co 0.67627 0.25061 0.03192 0.0
Co783 Co 0.70816 0.21855 0.99252 0.0
C784 C 0.66415 0.25456 0.97579 0.0
O785 O 0.65998 0.26049 0.99904 0.0
O786 O 0.68161 0.23816 0.97011 0.0
C787 C 0.63894 0.28347 0.05471 0.0
O788 O 0.63813 0.29466 0.03212 0.0
C789 C 0.7072 0.17287 0.95909 0.0
C790 C 0.74802 0.16172 0.95589 0.0
C791 C 0.72333 0.15402 0.94901 0.0
N792 N 0.72157 0.19064 0.97142 0.0
N793 N 0.74602 0.18385 0.96929 0.0
C794 C 0.67849 0.17414 0.95705 0.0
H795 H 0.67025 0.18233 0.97495 0.0
H796 H 0.66998 0.15502 0.95313 0.0
H797 H 0.6734 0.1871 0.94092 0.0
C798 C 0.67565 0.20255 0.06047 0.0
N799 N 0.67889 0.21517 0.03803 0.0
N800 N 0.69484 0.20229 0.0233 0.0
C801 C 0.70311 0.18146 0.03653 0.0
C802 C 0.69115 0.18083 0.06056 0.0
C803 C 0.66134 0.21318 0.08305 0.0
H804 H 0.67248 0.22933 0.09142 0.0
H805 H 0.64234 0.2206 0.0767 0.0
H806 H 0.65839 0.19835 0.09807 0.0
O807 O 0.71147 0.26509 0.03376 0.0
O808 O 0.7353 0.24474 1.00443 0.0
H809 H 0.73182 0.15222 0.04412 0.0
H810 H 0.72095 0.15456 1.01131 0.0
C811 C 0.72585 0.16569 0.02872 0.0
H812 H 0.74218 0.17856 0.02388 0.0
H813 H 0.76131 0.1939 0.9776 0.0
O814 O 0.65476 0.26544 0.05895 0.0
C815 C 0.73286 0.26193 0.02202 0.0
Co816 Co 0.53277 0.7494 0.89674 0.0
Co817 Co 0.49335 0.7177 0.86443 0.0
C818 C 0.47651 0.75361 0.90861 0.0
O819 O 0.49982 0.75948 0.91304 0.0
O820 O 0.47094 0.7374 0.89094 0.0
C821 C 0.55674 0.78011 0.93548 0.0
O822 O 0.53383 0.79017 0.93903 0.0
C823 C 0.46025 0.67172 0.86592 0.0
C824 C 0.456 0.66062 0.82528 0.0
C825 C 0.44985 0.6528 0.85006 0.0
N826 N 0.47206 0.68965 0.85132 0.0
N827 N 0.46931 0.68287 0.82698 0.0
C828 C 0.45896 0.67288 0.8946 0.0
H829 H 0.47626 0.68274 0.90236 0.0
H830 H 0.45714 0.65348 0.90312 0.0
H831 H 0.44172 0.68415 0.90018 0.0
C832 C 0.56114 0.70122 0.89718 0.0
N833 N 0.53869 0.71394 0.89399 0.0
N834 N 0.52401 0.70129 0.87779 0.0
C835 C 0.53729 0.68057 0.86928 0.0
C836 C 0.56126 0.67974 0.88141 0.0
C837 C 0.58382 0.71166 0.91156 0.0
H838 H 0.57748 0.7191 0.93051 0.0
H839 H 0.59873 0.69668 0.91451 0.0
H840 H 0.59244 0.7277 0.90048 0.0
O841 O 0.53493 0.76396 0.8617 0.0
O842 O 0.50579 0.74384 0.83737 0.0
H843 H 0.52483 0.67851 0.83017 0.0
H844 H 0.54528 0.65209 0.83998 0.0
C845 C 0.5297 0.66529 0.84616 0.0
H846 H 0.5123 0.65392 0.85063 0.0
H847 H 0.47715 0.693 0.81155 0.0
O848 O 0.56037 0.76373 0.91785 0.0
C849 C 0.52351 0.76093 0.84015 0.0
Co850 Co 0.32134 0.53256 0.89627 0.0
Co851 Co 0.35451 0.49192 0.86672 0.0
C852 C 0.31773 0.47684 0.91096 0.0
O853 O 0.31165 0.50022 0.91419 0.0
O854 O 0.33435 0.47067 0.89384 0.0
C855 C 0.31105 0.56103 0.93979 0.0
O856 O 0.32865 0.54502 0.9483 0.0
C857 C 0.40029 0.45791 0.86876 0.0
C858 C 0.41093 0.45309 0.82805 0.0
C859 C 0.41885 0.44693 0.85279 0.0
N860 N 0.3825 0.47008 0.85422 0.0
N861 N 0.389 0.46694 0.82985 0.0
C862 C 0.39924 0.45675 0.89744 0.0
H863 H 0.3905 0.47458 0.9052 0.0
H864 H 0.41864 0.45375 0.90586 0.0
H865 H 0.38685 0.44035 0.90312 0.0
C866 C 0.36969 0.56221 0.894 0.0
N867 N 0.35716 0.53944 0.89294 0.0
N868 N 0.37064 0.52333 0.87886 0.0
C869 C 0.39184 0.53577 0.87 0.0
C870 C 0.39204 0.56078 0.87944 0.0
C871 C 0.35815 0.58648 0.90405 0.0
H872 H 0.35399 0.58438 0.92478 0.0
H873 H 0.37127 0.60312 0.90168 0.0
H874 H 0.34002 0.59031 0.89351 0.0
O875 O 0.30707 0.53228 0.86109 0.0
O876 O 0.32881 0.50287 0.83863 0.0
H877 H 0.42264 0.54059 0.84228 0.0
H878 H 0.41862 0.50869 0.85493 0.0
C879 C 0.40831 0.52607 0.84854 0.0
H880 H 0.39588 0.52074 0.83201 0.0
H881 H 0.37885 0.47481 0.81443 0.0
O882 O 0.30429 0.55967 0.91641 0.0
C883 C 0.31116 0.52012 0.84016 0.0
Co884 Co 0.53968 0.31624 0.89448 0.0
Co885 Co 0.57955 0.35011 0.86499 0.0
C886 C 0.5957 0.31307 0.90822 0.0
O887 O 0.57238 0.30662 0.91165 0.0
O888 O 0.60147 0.32998 0.89136 0.0
C889 C 0.51044 0.30554 0.93751 0.0
O890 O 0.52476 0.32452 0.94611 0.0
C891 C 0.61261 0.39623 0.86935 0.0
C892 C 0.61957 0.40779 0.82924 0.0
C893 C 0.62436 0.41515 0.85447 0.0
N894 N 0.60128 0.37876 0.85376 0.0
N895 N 0.60564 0.38586 0.82975 0.0
C896 C 0.61241 0.39454 0.89802 0.0
H897 H 0.59539 0.38346 0.90467 0.0
H898 H 0.61245 0.4139 0.90687 0.0
H899 H 0.63009 0.38442 0.90438 0.0
C900 C 0.50916 0.3642 0.89344 0.0
N901 N 0.53205 0.35182 0.89182 0.0
N902 N 0.54802 0.3656 0.87783 0.0
C903 C 0.53544 0.38691 0.8697 0.0
C904 C 0.51046 0.38687 0.87951 0.0
C905 C 0.48486 0.35243 0.90349 0.0
H906 H 0.48157 0.33396 0.89356 0.0
H907 H 0.48667 0.34908 0.92439 0.0
H908 H 0.46788 0.36496 0.90045 0.0
O909 O 0.53942 0.30258 0.85929 0.0
O910 O 0.56852 0.32447 0.83652 0.0
H911 H 0.55115 0.39197 0.83206 0.0
H912 H 0.53002 0.41769 0.84222 0.0
C913 C 0.54499 0.4039 0.84861 0.0
H914 H 0.56192 0.41476 0.8555 0.0
H915 H 0.5987 0.37603 0.8137 0.0
O916 O 0.51356 0.2981 0.91456 0.0
C917 C 0.55132 0.30668 0.83823 0.0
Co918 Co 0.75444 0.53729 0.89555 0.0
Co919 Co 0.71852 0.57617 0.86707 0.0
C920 C 0.75707 0.59306 0.90919 0.0
O921 O 0.76383 0.56994 0.91258 0.0
O922 O 0.73963 0.59853 0.89263 0.0
C923 C 0.78722 0.51417 0.93323 0.0
O924 O 0.79729 0.53712 0.93602 0.0
C925 C 0.67147 0.60837 0.87032 0.0
C926 C 0.66145 0.61549 0.8298 0.0
C927 C 0.65317 0.62019 0.85473 0.0
N928 N 0.68956 0.59715 0.8554 0.0
N929 N 0.68337 0.60156 0.83115 0.0
C930 C 0.67192 0.60801 0.89904 0.0
H931 H 0.68558 0.59325 0.90614 0.0
H932 H 0.65235 0.60426 0.90675 0.0
H933 H 0.67814 0.62712 0.90612 0.0
C934 C 0.70708 0.50661 0.8971 0.0
N935 N 0.71872 0.52967 0.89435 0.0
N936 N 0.70393 0.54478 0.88056 0.0
C937 C 0.68285 0.53125 0.87316 0.0
C938 C 0.68402 0.50654 0.88347 0.0
C939 C 0.71965 0.48367 0.90902 0.0
H940 H 0.7359 0.47732 0.89671 0.0
H941 H 0.72742 0.48889 0.92819 0.0
H942 H 0.70581 0.46757 0.91121 0.0
O943 O 0.76774 0.53721 0.85967 0.0
O944 O 0.74256 0.56458 0.83808 0.0
H945 H 0.67623 0.54622 0.83549 0.0
H946 H 0.65138 0.5244 0.8466 0.0
C947 C 0.66491 0.53985 0.85242 0.0
H948 H 0.65373 0.55645 0.85944 0.0
H949 H 0.69391 0.59479 0.81547 0.0
O950 O 0.77054 0.51004 0.9159 0.0
C951 C 0.76139 0.54855 0.83883 0.0
Co952 Co 0.53446 0.31945 0.17407 0.0
Co953 Co 0.49405 0.35174 0.20463 0.0
C954 C 0.47822 0.31483 0.16103 0.0
O955 O 0.50166 0.30898 0.15727 0.0
O956 O 0.47227 0.33146 0.17814 0.0
C957 C 0.56258 0.30886 0.13028 0.0
O958 O 0.54656 0.32636 0.12161 0.0
C959 C 0.45906 0.39651 0.20252 0.0
C960 C 0.45582 0.40869 0.24293 0.0
C961 C 0.44856 0.41556 0.21816 0.0
N962 N 0.47204 0.37949 0.21723 0.0
N963 N 0.4698 0.38688 0.24144 0.0
C964 C 0.45673 0.39426 0.17397 0.0
H965 H 0.44186 0.37961 0.16952 0.0
H966 H 0.47527 0.38762 0.16569 0.0
H967 H 0.45082 0.41264 0.16503 0.0
C968 C 0.56348 0.36811 0.17489 0.0
N969 N 0.54092 0.35518 0.17684 0.0
N970 N 0.52501 0.3683 0.19151 0.0
C971 C 0.53738 0.38971 0.19979 0.0
C972 C 0.56214 0.39036 0.18946 0.0
C973 C 0.58767 0.35714 0.16381 0.0
H974 H 0.5923 0.33911 0.17402 0.0
H975 H 0.58484 0.35309 0.14314 0.0
H976 H 0.60421 0.37052 0.16561 0.0
O977 O 0.53569 0.30575 0.20923 0.0
O978 O 0.50599 0.32611 0.23252 0.0
H979 H 0.52313 0.39393 0.23808 0.0
H980 H 0.54257 0.42064 0.22718 0.0
C981 C 0.52797 0.4062 0.22135 0.0
H982 H 0.51028 0.41629 0.21526 0.0
H983 H 0.47846 0.37749 0.2569 0.0
O984 O 0.56125 0.30241 0.1537 0.0
C985 C 0.52384 0.30908 0.23045 0.0
Co986 Co 0.7595 0.5332 0.18098 0.0
Co987 Co 0.71923 0.4944 0.20374 0.0
C988 C 0.75923 0.47774 0.16399 0.0
O989 O 0.7677 0.50056 0.16318 0.0
O990 O 0.74014 0.47208 0.1785 0.0
C991 C 0.76804 0.56358 0.13911 0.0
O992 O 0.74685 0.55129 0.13274 0.0
C993 C 0.67191 0.46161 0.2009 0.0
C994 C 0.66051 0.45814 0.24155 0.0
C995 C 0.65306 0.45119 0.21691 0.0
N996 N 0.68952 0.47421 0.21534 0.0
N997 N 0.68249 0.47192 0.23967 0.0
C998 C 0.67323 0.45953 0.17228 0.0
H999 H 0.68213 0.44089 0.16711 0.0
H1000 H 0.68526 0.47522 0.16425 0.0
H1001 H 0.65362 0.4601 0.16378 0.0
C1002 C 0.71445 0.56698 0.18374 0.0
N1003 N 0.72437 0.54306 0.18274 0.0
N1004 N 0.7066 0.52641 0.18952 0.0
C1005 C 0.68426 0.53937 0.19336 0.0
C1006 C 0.68854 0.56566 0.19012 0.0
C1007 C 0.73058 0.59077 0.18403 0.0
H1008 H 0.74964 0.58648 0.19263 0.0
H1009 H 0.73326 0.59766 0.16405 0.0
H1010 H 0.72129 0.60631 0.19528 0.0
O1011 O 0.77148 0.53183 0.21629 0.0
O1012 O 0.74268 0.50532 0.23433 0.0
H1013 H 0.662 0.5188 0.22112 0.0
H1014 H 0.64352 0.54112 0.20189 0.0
C1015 C 0.65964 0.52715 0.20167 0.0
H1016 H 0.65503 0.51154 0.18801 0.0
H1017 H 0.69252 0.48008 0.25503 0.0
O1018 O 0.77843 0.55885 0.16067 0.0
C1019 C 0.76242 0.52031 0.2359 0.0
Co1020 Co 0.53865 0.75043 0.17278 0.0
Co1021 Co 0.57947 0.71899 0.20314 0.0
C1022 C 0.59412 0.75459 0.15803 0.0
O1023 O 0.57065 0.76033 0.15444 0.0
O1024 O 0.60033 0.73868 0.17567 0.0
C1025 C 0.51339 0.78387 0.13798 0.0
O1026 O 0.53512 0.79681 0.13813 0.0
C1027 C 0.61046 0.67132 0.20131 0.0
C1028 C 0.63097 0.6713 0.23839 0.0
C1029 C 0.62844 0.65753 0.21565 0.0
N1030 N 0.60281 0.6921 0.21488 0.0
N1031 N 0.61518 0.69185 0.23709 0.0
C1032 C 0.60126 0.66517 0.17471 0.0
H1033 H 0.58032 0.66858 0.17298 0.0
H1034 H 0.60551 0.64497 0.16951 0.0
H1035 H 0.61099 0.67809 0.16083 0.0
C1036 C 0.51005 0.70228 0.17418 0.0
N1037 N 0.53263 0.71503 0.17631 0.0
N1038 N 0.54817 0.70229 0.19158 0.0
C1039 C 0.53544 0.68133 0.20041 0.0
C1040 C 0.51082 0.68056 0.1896 0.0
C1041 C 0.4867 0.71274 0.16097 0.0
H1042 H 0.47888 0.72899 0.17233 0.0
H1043 H 0.49207 0.71995 0.14163 0.0
H1044 H 0.47151 0.69787 0.15894 0.0
O1045 O 0.5382 0.76541 0.20771 0.0
O1046 O 0.56827 0.74514 0.23073 0.0
H1047 H 0.52883 0.65527 0.23205 0.0
H1048 H 0.5577 0.64963 0.21375 0.0
C1049 C 0.54503 0.66474 0.22183 0.0
H1050 H 0.5565 0.67633 0.23559 0.0
H1051 H 0.61313 0.70589 0.25124 0.0
O1052 O 0.51052 0.76456 0.15247 0.0
C1053 C 0.55051 0.76228 0.22875 0.0
Co1054 Co 0.31584 0.5375 0.18006 0.0
Co1055 Co 0.3535 0.57644 0.20636 0.0
C1056 C 0.31453 0.59301 0.16462 0.0
O1057 O 0.30705 0.56996 0.16217 0.0
O1058 O 0.33245 0.59855 0.18064 0.0
C1059 C 0.30344 0.50821 0.13783 0.0
O1060 O 0.32241 0.52234 0.12886 0.0
C1061 C 0.40089 0.60864 0.20212 0.0
C1062 C 0.41159 0.61561 0.24251 0.0
C1063 C 0.41954 0.62035 0.21748 0.0
N1064 N 0.38296 0.59741 0.2173 0.0
N1065 N 0.38958 0.60176 0.24146 0.0
C1066 C 0.39998 0.60832 0.17342 0.0
H1067 H 0.38703 0.59283 0.16652 0.0
H1068 H 0.41959 0.60574 0.16533 0.0
H1069 H 0.39251 0.62704 0.16655 0.0
C1070 C 0.36294 0.50508 0.17991 0.0
N1071 N 0.35156 0.52844 0.18136 0.0
N1072 N 0.36728 0.54447 0.19307 0.0
C1073 C 0.38893 0.53151 0.19977 0.0
C1074 C 0.3871 0.50618 0.19141 0.0
C1075 C 0.34925 0.48096 0.17237 0.0
H1076 H 0.33097 0.47963 0.18325 0.0
H1077 H 0.34502 0.48138 0.15153 0.0
H1078 H 0.36095 0.4636 0.17619 0.0
O1079 O 0.30329 0.53867 0.21587 0.0
O1080 O 0.32986 0.56562 0.23632 0.0
H1081 H 0.39837 0.54801 0.23618 0.0
H1082 H 0.42282 0.52659 0.22364 0.0
C1083 C 0.40834 0.54139 0.21852 0.0
H1084 H 0.4183 0.55797 0.20991 0.0
H1085 H 0.37925 0.59502 0.25728 0.0
O1086 O 0.29638 0.51146 0.1609 0.0
C1087 C 0.31058 0.55004 0.23635 0.0
Co1088 Co 0.89297 0.53304 0.75757 0.0
Co1089 Co 0.86769 0.49292 0.72065 0.0
C1090 C 0.9094 0.47758 0.75952 0.0
O1091 O 0.91053 0.50069 0.76715 0.0
O1092 O 0.89423 0.47149 0.74111 0.0
C1093 C 0.93559 0.56297 0.76531 0.0
O1094 O 0.94239 0.54881 0.74555 0.0
C1095 C 0.8712 0.45997 0.67412 0.0
C1096 C 0.83052 0.45306 0.66406 0.0
C1097 C 0.8555 0.44818 0.65582 0.0
N1098 N 0.85625 0.47137 0.69206 0.0
N1099 N 0.83192 0.46696 0.68591 0.0
C1100 C 0.9 0.46072 0.6745 0.0
H1101 H 0.90652 0.48063 0.67063 0.0
H1102 H 0.90839 0.44761 0.65993 0.0
H1103 H 0.90707 0.45537 0.69388 0.0
C1104 C 0.89257 0.56403 0.71058 0.0
N1105 N 0.89173 0.54074 0.72179 0.0
N1106 N 0.88122 0.52429 0.70591 0.0
C1107 C 0.87513 0.53678 0.68385 0.0
C1108 C 0.88495 0.56214 0.68471 0.0
C1109 C 0.89087 0.5879 0.72665 0.0
H1110 H 0.88211 0.58329 0.74553 0.0
H1111 H 0.91041 0.59574 0.72998 0.0
H1112 H 0.87864 0.60276 0.71753 0.0
O1113 O 0.85749 0.53246 0.7703 0.0
O1114 O 0.83792 0.50402 0.74462 0.0
H1115 H 0.84202 0.54428 0.65933 0.0
H1116 H 0.85924 0.51462 0.65283 0.0
C1117 C 0.85263 0.528 0.66798 0.0
H1118 H 0.83874 0.51761 0.68034 0.0
H1119 H 0.81622 0.47386 0.69637 0.0
O1120 O 0.91349 0.55965 0.77519 0.0
C1121 C 0.8374 0.5202 0.76334 0.0
Co1122 Co 0.53858 0.89265 0.75508 0.0
Co1123 Co 0.58026 0.86626 0.72047 0.0
C1124 C 0.59393 0.91021 0.75764 0.0
O1125 O 0.57054 0.91126 0.76476 0.0
O1126 O 0.6006 0.89447 0.73995 0.0
C1127 C 0.50932 0.9348 0.76634 0.0
O1128 O 0.52531 0.94378 0.74896 0.0
C1129 C 0.61532 0.86962 0.67532 0.0
C1130 C 0.61869 0.8294 0.66275 0.0
C1131 C 0.62586 0.85419 0.65605 0.0
N1132 N 0.60236 0.85471 0.69224 0.0
N1133 N 0.60471 0.83063 0.68461 0.0
C1134 C 0.61708 0.89817 0.67755 0.0
H1135 H 0.62724 0.90316 0.69564 0.0
H1136 H 0.59737 0.90634 0.67875 0.0
H1137 H 0.6276 0.90674 0.6611 0.0
C1138 C 0.50866 0.89149 0.70678 0.0
N1139 N 0.53146 0.89007 0.71932 0.0
N1140 N 0.54815 0.87763 0.70493 0.0
C1141 C 0.5361 0.87039 0.68291 0.0
C1142 C 0.51072 0.87909 0.6833 0.0
C1143 C 0.48399 0.90012 0.71879 0.0
H1144 H 0.48526 0.9208 0.72339 0.0
H1145 H 0.46722 0.89736 0.70587 0.0
H1146 H 0.48083 0.88906 0.73667 0.0
O1147 O 0.54034 0.85775 0.76876 0.0
O1148 O 0.57081 0.83744 0.74631 0.0
H1149 H 0.55196 0.8335 0.67475 0.0
H1150 H 0.5328 0.84668 0.64887 0.0
C1151 C 0.5468 0.85132 0.66432 0.0
H1152 H 0.56449 0.85918 0.65553 0.0
H1153 H 0.59614 0.81507 0.69389 0.0
O1154 O 0.5109 0.9114 0.7727 0.0
C1155 C 0.55364 0.83771 0.76418 0.0
Co1156 Co 0.17915 0.53607 0.75242 0.0
Co1157 Co 0.20844 0.576 0.71849 0.0
C1158 C 0.16441 0.59177 0.75478 0.0
O1159 O 0.16148 0.56859 0.76157 0.0
O1160 O 0.18128 0.59768 0.73786 0.0
C1161 C 0.13604 0.50652 0.76267 0.0
O1162 O 0.12771 0.5202 0.74313 0.0
C1163 C 0.20605 0.61011 0.67308 0.0
C1164 C 0.2466 0.61366 0.66105 0.0
C1165 C 0.22173 0.62057 0.654 0.0
N1166 N 0.22085 0.59748 0.6903 0.0
N1167 N 0.24514 0.59988 0.68299 0.0
C1168 C 0.17737 0.612 0.67511 0.0
H1169 H 0.16921 0.59298 0.68024 0.0
H1170 H 0.16858 0.61909 0.65703 0.0
H1171 H 0.17251 0.62553 0.69083 0.0
C1172 C 0.18145 0.50523 0.70466 0.0
N1173 N 0.18254 0.52818 0.71685 0.0
N1174 N 0.19612 0.54431 0.70285 0.0
C1175 C 0.2043 0.53182 0.68146 0.0
C1176 C 0.19514 0.50669 0.68179 0.0
C1177 C 0.17238 0.48087 0.71685 0.0
H1178 H 0.15142 0.48195 0.72052 0.0
H1179 H 0.17583 0.46391 0.70445 0.0
H1180 H 0.18273 0.47821 0.73524 0.0
O1181 O 0.21414 0.53647 0.76669 0.0
O1182 O 0.23655 0.56575 0.74475 0.0
H1183 H 0.24207 0.54692 0.67536 0.0
H1184 H 0.23022 0.5274 0.64911 0.0
C1185 C 0.22479 0.54176 0.6639 0.0
H1186 H 0.21777 0.55924 0.65419 0.0
H1187 H 0.26068 0.59154 0.69258 0.0
O1188 O 0.15887 0.51002 0.77055 0.0
C1189 C 0.23501 0.54878 0.76267 0.0
Co1190 Co 0.53445 0.17526 0.75118 0.0
Co1191 Co 0.49311 0.20363 0.71806 0.0
C1192 C 0.47896 0.15959 0.75503 0.0
O1193 O 0.5024 0.15777 0.76164 0.0
O1194 O 0.47251 0.17559 0.73753 0.0
C1195 C 0.55948 0.13808 0.78273 0.0
O1196 O 0.53658 0.13436 0.79278 0.0
C1197 C 0.46367 0.20211 0.66876 0.0
C1198 C 0.43951 0.23676 0.67124 0.0
C1199 C 0.44442 0.21562 0.65572 0.0
N1200 N 0.46979 0.21475 0.69068 0.0
N1201 N 0.45522 0.2355 0.69189 0.0
C1202 C 0.47518 0.17688 0.66102 0.0
H1203 H 0.49609 0.17655 0.66471 0.0
H1204 H 0.47173 0.17274 0.64039 0.0
H1205 H 0.46654 0.1614 0.67286 0.0
C1206 C 0.56318 0.17528 0.70307 0.0
N1207 N 0.54048 0.17768 0.71553 0.0
N1208 N 0.52512 0.19273 0.70229 0.0
C1209 C 0.53829 0.20146 0.68153 0.0
C1210 C 0.5628 0.19047 0.68116 0.0
C1211 C 0.58623 0.16179 0.71383 0.0
H1212 H 0.59444 0.17336 0.72976 0.0
H1213 H 0.5804 0.14282 0.72156 0.0
H1214 H 0.60128 0.15903 0.69892 0.0
O1215 O 0.53409 0.21041 0.76502 0.0
O1216 O 0.50324 0.23184 0.74407 0.0
H1217 H 0.54581 0.2348 0.65817 0.0
H1218 H 0.51974 0.21484 0.64745 0.0
C1219 C 0.52928 0.22295 0.66472 0.0
H1220 H 0.51525 0.23517 0.67513 0.0
H1221 H 0.45559 0.24855 0.7071 0.0
O1222 O 0.56291 0.15555 0.76612 0.0
C1223 C 0.52108 0.23084 0.76127 0.0
Co1224 Co 0.89252 0.53522 0.31627 0.0
Co1225 Co 0.86799 0.57543 0.35368 0.0
C1226 C 0.90997 0.59044 0.31475 0.0
O1227 O 0.91062 0.56738 0.30691 0.0
O1228 O 0.89494 0.59664 0.33325 0.0
C1229 C 0.93489 0.50698 0.30405 0.0
O1230 O 0.94346 0.52227 0.32224 0.0
C1231 C 0.87165 0.6101 0.39912 0.0
C1232 C 0.83159 0.61127 0.41314 0.0
C1233 C 0.85632 0.61959 0.41903 0.0
N1234 N 0.85675 0.5966 0.38262 0.0
N1235 N 0.83276 0.59766 0.39109 0.0
C1236 C 0.90011 0.61331 0.39596 0.0
H1237 H 0.9093 0.59411 0.3949 0.0
H1238 H 0.90866 0.62455 0.41194 0.0
H1239 H 0.90403 0.62325 0.37752 0.0
C1240 C 0.89341 0.50393 0.36374 0.0
N1241 N 0.89176 0.52706 0.35205 0.0
N1242 N 0.88088 0.54353 0.36786 0.0
C1243 C 0.87504 0.53108 0.39002 0.0
C1244 C 0.88296 0.50562 0.38823 0.0
C1245 C 0.90023 0.47954 0.35023 0.0
H1246 H 0.92102 0.47968 0.34551 0.0
H1247 H 0.89646 0.46237 0.36223 0.0
H1248 H 0.88887 0.47813 0.33226 0.0
O1249 O 0.85672 0.5365 0.30419 0.0
O1250 O 0.83769 0.5649 0.33016 0.0
H1251 H 0.85466 0.52766 0.42619 0.0
H1252 H 0.86561 0.55941 0.41799 0.0
C1253 C 0.85744 0.54147 0.4102 0.0
H1254 H 0.83847 0.54588 0.40144 0.0
H1255 H 0.81726 0.58845 0.38224 0.0
O1256 O 0.91145 0.50858 0.2974 0.0
C1257 C 0.83677 0.54877 0.31144 0.0
Co1258 Co 0.53608 0.89289 0.31677 0.0
Co1259 Co 0.49487 0.86505 0.35088 0.0
C1260 C 0.48042 0.90927 0.31456 0.0
O1261 O 0.50379 0.91101 0.30753 0.0
O1262 O 0.47405 0.89308 0.33192 0.0
C1263 C 0.56487 0.93595 0.30736 0.0
O1264 O 0.54908 0.94382 0.32546 0.0
C1265 C 0.46042 0.86796 0.39629 0.0
C1266 C 0.45692 0.82769 0.40865 0.0
C1267 C 0.45006 0.85249 0.41562 0.0
N1268 N 0.47299 0.85307 0.37908 0.0
N1269 N 0.47056 0.82896 0.38657 0.0
C1270 C 0.45891 0.89654 0.39431 0.0
H1271 H 0.47867 0.90455 0.39263 0.0
H1272 H 0.44892 0.90511 0.41108 0.0
H1273 H 0.44832 0.90173 0.37654 0.0
C1274 C 0.5662 0.8909 0.36495 0.0
N1275 N 0.54337 0.88956 0.35243 0.0
N1276 N 0.52684 0.87657 0.36654 0.0
C1277 C 0.53901 0.86889 0.38831 0.0
C1278 C 0.56427 0.87793 0.38813 0.0
C1279 C 0.5908 0.89995 0.35305 0.0
H1280 H 0.59359 0.88987 0.33453 0.0
H1281 H 0.58971 0.92086 0.34964 0.0
H1282 H 0.60772 0.89634 0.36555 0.0
O1283 O 0.53479 0.8582 0.30227 0.0
O1284 O 0.50467 0.83694 0.32443 0.0
H1285 H 0.52359 0.83152 0.39514 0.0
H1286 H 0.5429 0.84389 0.42135 0.0
C1287 C 0.5287 0.84898 0.40623 0.0
H1288 H 0.51105 0.85626 0.41553 0.0
H1289 H 0.4789 0.81341 0.37707 0.0
O1290 O 0.56327 0.91292 0.29971 0.0
C1291 C 0.52175 0.83787 0.30648 0.0
Co1292 Co 0.17952 0.53293 0.31549 0.0
Co1293 Co 0.20399 0.49398 0.35442 0.0
C1294 C 0.16368 0.47722 0.31489 0.0
O1295 O 0.16212 0.50015 0.30693 0.0
O1296 O 0.17879 0.47157 0.33348 0.0
C1297 C 0.14198 0.55534 0.28196 0.0
O1298 O 0.13965 0.53238 0.27181 0.0
C1299 C 0.20119 0.46124 0.40143 0.0
C1300 C 0.24203 0.45536 0.41141 0.0
C1301 C 0.21721 0.4497 0.41953 0.0
N1302 N 0.21578 0.47328 0.38359 0.0
N1303 N 0.24022 0.46956 0.38976 0.0
C1304 C 0.17241 0.46072 0.40111 0.0
H1305 H 0.16584 0.44154 0.39454 0.0
H1306 H 0.16478 0.47556 0.38784 0.0
H1307 H 0.16474 0.46384 0.42078 0.0
C1308 C 0.18037 0.56576 0.3607 0.0
N1309 N 0.18087 0.54194 0.35053 0.0
N1310 N 0.18945 0.5256 0.36772 0.0
C1311 C 0.19355 0.53862 0.38995 0.0
C1312 C 0.18835 0.5647 0.38618 0.0
C1313 C 0.17702 0.58955 0.34488 0.0
H1314 H 0.18845 0.58789 0.32693 0.0
H1315 H 0.15642 0.59155 0.33954 0.0
H1316 H 0.18324 0.60705 0.35528 0.0
O1317 O 0.21502 0.53246 0.30318 0.0
O1318 O 0.23414 0.50544 0.33069 0.0
H1319 H 0.22338 0.51848 0.40989 0.0
H1320 H 0.20554 0.54085 0.42976 0.0
C1321 C 0.20411 0.52676 0.41383 0.0
H1322 H 0.19101 0.51109 0.41976 0.0
H1323 H 0.25572 0.47694 0.37933 0.0
O1324 O 0.15905 0.5597 0.29883 0.0
C1325 C 0.23504 0.52091 0.31135 0.0
Co1326 Co 0.53863 0.17808 0.31443 0.0
Co1327 Co 0.57995 0.20298 0.3503 0.0
C1328 C 0.59353 0.15975 0.31259 0.0
O1329 O 0.57006 0.15803 0.30598 0.0
O1330 O 0.60029 0.176 0.32972 0.0
C1331 C 0.50565 0.13732 0.30797 0.0
O1332 O 0.51765 0.13102 0.3293 0.0
C1333 C 0.61235 0.19846 0.39707 0.0
C1334 C 0.62866 0.23725 0.40154 0.0
C1335 C 0.62849 0.21309 0.41284 0.0
N1336 N 0.60325 0.21336 0.37785 0.0
N1337 N 0.61325 0.23652 0.38064 0.0
C1338 C 0.6054 0.17075 0.40032 0.0
H1339 H 0.58653 0.16657 0.39125 0.0
H1340 H 0.60504 0.16546 0.42098 0.0
H1341 H 0.61995 0.15867 0.39051 0.0
C1342 C 0.50672 0.18379 0.36046 0.0
N1343 N 0.53026 0.18253 0.34956 0.0
N1344 N 0.54759 0.19145 0.36569 0.0
C1345 C 0.53547 0.19718 0.38819 0.0
C1346 C 0.50898 0.19244 0.38556 0.0
C1347 C 0.48214 0.18272 0.34546 0.0
H1348 H 0.48552 0.19051 0.32595 0.0
H1349 H 0.47545 0.16257 0.3441 0.0
H1350 H 0.46669 0.19416 0.35472 0.0
O1351 O 0.54153 0.21249 0.30017 0.0
O1352 O 0.57043 0.23258 0.32496 0.0
H1353 H 0.55942 0.22638 0.40476 0.0
H1354 H 0.53445 0.21454 0.4261 0.0
C1355 C 0.54845 0.20919 0.41093 0.0
H1356 H 0.56215 0.19535 0.41944 0.0
H1357 H 0.60955 0.25186 0.3683 0.0
O1358 O 0.51136 0.15834 0.29706 0.0
C1359 C 0.55428 0.23256 0.3061 0.0
Co1360 Co 0.75849 0.89023 0.53264 0.0
Co1361 Co 0.72026 0.86473 0.494 0.0
C1362 C 0.75823 0.90687 0.47715 0.0
O1363 O 0.76661 0.90798 0.50002 0.0
O1364 O 0.73979 0.89148 0.47162 0.0
C1365 C 0.77109 0.93271 0.56101 0.0
O1366 O 0.75145 0.9411 0.54746 0.0
C1367 C 0.6738 0.86753 0.46052 0.0
C1368 C 0.6612 0.8272 0.4581 0.0
C1369 C 0.65445 0.85182 0.45049 0.0
N1370 N 0.69091 0.85294 0.47355 0.0
N1371 N 0.68323 0.8288 0.47185 0.0
C1372 C 0.67602 0.89601 0.45802 0.0
H1373 H 0.69311 0.90064 0.44607 0.0
H1374 H 0.67922 0.90459 0.4773 0.0
H1375 H 0.65864 0.90449 0.44899 0.0
C1376 C 0.71185 0.89058 0.56579 0.0
N1377 N 0.72291 0.889 0.54225 0.0
N1378 N 0.70671 0.87784 0.52627 0.0
C1379 C 0.68493 0.87183 0.53943 0.0
C1380 C 0.68733 0.87989 0.56487 0.0
C1381 C 0.7261 0.89754 0.5898 0.0
H1382 H 0.74423 0.88639 0.59063 0.0
H1383 H 0.7307 0.91827 0.58959 0.0
H1384 H 0.71464 0.89367 0.60736 0.0
O1385 O 0.77108 0.85479 0.53169 0.0
O1386 O 0.74445 0.83494 0.50439 0.0
H1387 H 0.67348 0.83539 0.52456 0.0
H1388 H 0.64909 0.85096 0.5439 0.0
C1389 C 0.6646 0.85409 0.52955 0.0
H1390 H 0.65612 0.8623 0.51194 0.0
H1391 H 0.69274 0.81344 0.4805 0.0
O1392 O 0.77839 0.90973 0.55795 0.0
C1393 C 0.76366 0.83457 0.52006 0.0
Co1394 Co 0.75961 0.17836 0.53719 0.0
Co1395 Co 0.71978 0.2012 0.57634 0.0
C1396 C 0.75991 0.16163 0.59288 0.0
O1397 O 0.76799 0.16053 0.56988 0.0
O1398 O 0.741 0.17628 0.59868 0.0
C1399 C 0.76726 0.13684 0.50584 0.0
O1400 O 0.74603 0.13054 0.51808 0.0
C1401 C 0.67268 0.19897 0.60947 0.0
C1402 C 0.66222 0.23976 0.61343 0.0
C1403 C 0.65432 0.21526 0.6202 0.0
N1404 N 0.69046 0.21312 0.59681 0.0
N1405 N 0.684 0.23753 0.59939 0.0
C1406 C 0.6733 0.17038 0.6113 0.0
H1407 H 0.68631 0.16224 0.59647 0.0
H1408 H 0.65359 0.16239 0.60908 0.0
H1409 H 0.6805 0.16484 0.63061 0.0
C1410 C 0.71435 0.18165 0.50369 0.0
N1411 N 0.72442 0.18043 0.52757 0.0
N1412 N 0.70672 0.18683 0.54445 0.0
C1413 C 0.68419 0.19042 0.53165 0.0
C1414 C 0.68832 0.18755 0.5052 0.0
C1415 C 0.7304 0.18269 0.47983 0.0
H1416 H 0.74956 0.19096 0.48438 0.0
H1417 H 0.73286 0.16301 0.47214 0.0
H1418 H 0.72114 0.19459 0.46475 0.0
O1419 O 0.77191 0.21353 0.53859 0.0
O1420 O 0.74323 0.23161 0.56518 0.0
H1421 H 0.66148 0.21734 0.5528 0.0
H1422 H 0.64323 0.19794 0.53039 0.0
C1423 C 0.65949 0.19797 0.54423 0.0
H1424 H 0.65527 0.18413 0.55981 0.0
H1425 H 0.6943 0.25271 0.59129 0.0
O1426 O 0.77807 0.15805 0.51111 0.0
C1427 C 0.76295 0.23313 0.55018 0.0
Co1428 Co 0.89404 0.75288 0.53821 0.0
Co1429 Co 0.86842 0.71693 0.57875 0.0
C1430 C 0.90997 0.75598 0.5941 0.0
O1431 O 0.91135 0.76313 0.57082 0.0
O1432 O 0.89478 0.73766 0.60029 0.0
C1433 C 0.93881 0.76393 0.51368 0.0
O1434 O 0.94658 0.74942 0.53273 0.0
C1435 C 0.8736 0.67042 0.61036 0.0
C1436 C 0.83401 0.6614 0.62269 0.0
C1437 C 0.85923 0.65267 0.62425 0.0
N1438 N 0.85778 0.68865 0.60091 0.0
N1439 N 0.83408 0.68316 0.60851 0.0
C1440 C 0.90196 0.66942 0.60528 0.0
H1441 H 0.90736 0.68282 0.58963 0.0
H1442 H 0.90776 0.64956 0.60022 0.0
H1443 H 0.91253 0.67498 0.62295 0.0
C1444 C 0.89302 0.70596 0.50734 0.0
N1445 N 0.89229 0.71742 0.53064 0.0
N1446 N 0.88163 0.7018 0.54738 0.0
C1447 C 0.87556 0.6796 0.53512 0.0
C1448 C 0.88277 0.68143 0.50934 0.0
C1449 C 0.89785 0.72008 0.48271 0.0
H1450 H 0.88517 0.73719 0.4818 0.0
H1451 H 0.91801 0.72678 0.48208 0.0
H1452 H 0.89446 0.70789 0.46558 0.0
O1453 O 0.85859 0.76581 0.5382 0.0
O1454 O 0.83864 0.74069 0.56691 0.0
H1455 H 0.84181 0.66788 0.55573 0.0
H1456 H 0.8522 0.64532 0.53142 0.0
C1457 C 0.85881 0.65907 0.54632 0.0
H1458 H 0.86987 0.64837 0.56105 0.0
H1459 H 0.81789 0.69402 0.60373 0.0
O1460 O 0.91497 0.76893 0.51131 0.0
C1461 C 0.83831 0.75908 0.55032 0.0
Co1462 Co 0.31805 0.89234 0.53681 0.0
Co1463 Co 0.35476 0.86672 0.57694 0.0
C1464 C 0.31656 0.90932 0.59226 0.0
O1465 O 0.30894 0.91039 0.5691 0.0
O1466 O 0.33473 0.89386 0.59839 0.0
C1467 C 0.3058 0.93458 0.50751 0.0
O1468 O 0.32474 0.94354 0.52171 0.0
C1469 C 0.40082 0.86944 0.61113 0.0
C1470 C 0.41269 0.82897 0.61424 0.0
C1471 C 0.4199 0.8536 0.62144 0.0
N1472 N 0.38348 0.8549 0.59828 0.0
N1473 N 0.3907 0.83068 0.60045 0.0
C1474 C 0.39924 0.89802 0.61294 0.0
H1475 H 0.39884 0.90627 0.59328 0.0
H1476 H 0.41566 0.90615 0.62391 0.0
H1477 H 0.38093 0.90342 0.62251 0.0
C1478 C 0.36589 0.8917 0.50526 0.0
N1479 N 0.35402 0.89064 0.52844 0.0
N1480 N 0.36942 0.87919 0.54497 0.0
C1481 C 0.39134 0.87231 0.53249 0.0
C1482 C 0.38995 0.88023 0.50696 0.0
C1483 C 0.35263 0.89829 0.48065 0.0
H1484 H 0.3459 0.91837 0.48129 0.0
H1485 H 0.36557 0.89635 0.4638 0.0
H1486 H 0.33601 0.88519 0.4782 0.0
O1487 O 0.30499 0.85702 0.53795 0.0
O1488 O 0.33051 0.83712 0.56618 0.0
H1489 H 0.42609 0.84959 0.5288 0.0
H1490 H 0.41915 0.86152 0.56054 0.0
C1491 C 0.41052 0.85364 0.54285 0.0
H1492 H 0.40056 0.83546 0.54779 0.0
H1493 H 0.38099 0.81532 0.59196 0.0
O1494 O 0.29896 0.91142 0.51043 0.0
C1495 C 0.31172 0.83684 0.55001 0.0
Co1496 Co 0.17468 0.31984 0.53884 0.0
Co1497 Co 0.20762 0.35094 0.57825 0.0
C1498 C 0.16353 0.31484 0.59508 0.0
O1499 O 0.15881 0.3093 0.57181 0.0
O1500 O 0.18125 0.33103 0.60066 0.0
C1501 C 0.13648 0.28824 0.51525 0.0
O1502 O 0.13459 0.27703 0.53777 0.0
C1503 C 0.20681 0.39631 0.61219 0.0
C1504 C 0.24761 0.40754 0.61549 0.0
C1505 C 0.22292 0.41516 0.62243 0.0
N1506 N 0.22119 0.37865 0.59972 0.0
N1507 N 0.24564 0.38549 0.60194 0.0
C1508 C 0.1781 0.39495 0.61418 0.0
H1509 H 0.16984 0.38763 0.59591 0.0
H1510 H 0.16962 0.41386 0.61902 0.0
H1511 H 0.17299 0.3812 0.62963 0.0
C1512 C 0.17442 0.36824 0.51099 0.0
N1513 N 0.1776 0.35536 0.53329 0.0
N1514 N 0.19402 0.36778 0.54795 0.0
C1515 C 0.20264 0.38853 0.53479 0.0
C1516 C 0.19046 0.38959 0.51089 0.0
C1517 C 0.15974 0.35807 0.48841 0.0
H1518 H 0.14071 0.35078 0.49484 0.0
H1519 H 0.15683 0.37316 0.47364 0.0
H1520 H 0.1706 0.34195 0.47967 0.0
O1521 O 0.20966 0.30518 0.5361 0.0
O1522 O 0.23439 0.3247 0.56529 0.0
H1523 H 0.24184 0.39048 0.54731 0.0
H1524 H 0.23209 0.41703 0.52705 0.0
C1525 C 0.22583 0.40375 0.5425 0.0
H1526 H 0.2213 0.41504 0.5599 0.0
H1527 H 0.26093 0.37556 0.59354 0.0
O1528 O 0.15301 0.30577 0.51157 0.0
C1529 C 0.23134 0.30786 0.54741 0.0
Co1530 Co 0.31606 0.1761 0.53169 0.0
Co1531 Co 0.35152 0.20231 0.49077 0.0
C1532 C 0.3146 0.15873 0.47629 0.0
O1533 O 0.30703 0.1578 0.49946 0.0
O1534 O 0.33267 0.17418 0.47001 0.0
C1535 C 0.28651 0.13646 0.5565 0.0
O1536 O 0.27733 0.13122 0.53357 0.0
C1537 C 0.39977 0.20015 0.46027 0.0
C1538 C 0.40162 0.23832 0.44217 0.0
C1539 C 0.41483 0.21518 0.44381 0.0
N1540 N 0.37915 0.21391 0.46813 0.0
N1541 N 0.38041 0.2367 0.4571 0.0
C1542 C 0.40474 0.173 0.46837 0.0
H1543 H 0.39681 0.16933 0.48777 0.0
H1544 H 0.42567 0.16865 0.46799 0.0
H1545 H 0.39464 0.15974 0.45508 0.0
C1546 C 0.36227 0.17987 0.56308 0.0
N1547 N 0.35132 0.18009 0.53955 0.0
N1548 N 0.36683 0.1914 0.52312 0.0
C1549 C 0.38866 0.1983 0.53586 0.0
C1550 C 0.38646 0.19126 0.56178 0.0
C1551 C 0.34781 0.17337 0.58717 0.0
H1552 H 0.32932 0.18402 0.58749 0.0
H1553 H 0.34348 0.15252 0.58735 0.0
H1554 H 0.35869 0.17834 0.60481 0.0
O1555 O 0.3016 0.21057 0.53028 0.0
O1556 O 0.32491 0.23073 0.50022 0.0
H1557 H 0.40192 0.23003 0.51312 0.0
H1558 H 0.42366 0.22101 0.5389 0.0
C1559 C 0.41004 0.21375 0.52419 0.0
H1560 H 0.42119 0.20153 0.51083 0.0
H1561 H 0.36673 0.25114 0.45966 0.0
O1562 O 0.30122 0.15563 0.55974 0.0
C1563 C 0.30663 0.23054 0.51702 0.0
Co1564 Co 0.8929 0.31487 0.53591 0.0
Co1565 Co 0.86768 0.35157 0.49565 0.0
C1566 C 0.90967 0.31287 0.4804 0.0
O1567 O 0.91069 0.30524 0.50355 0.0
O1568 O 0.8945 0.33124 0.4743 0.0
C1569 C 0.93567 0.30244 0.56362 0.0
O1570 O 0.94425 0.32026 0.54794 0.0
C1571 C 0.87143 0.39662 0.46095 0.0
C1572 C 0.83125 0.41014 0.45862 0.0
C1573 C 0.85613 0.41616 0.45083 0.0
N1574 N 0.85638 0.38016 0.47428 0.0
N1575 N 0.83233 0.38834 0.47257 0.0
C1576 C 0.89997 0.39366 0.45839 0.0
H1577 H 0.90869 0.39192 0.47779 0.0
H1578 H 0.90876 0.41001 0.44792 0.0
H1579 H 0.90418 0.37564 0.44784 0.0
C1580 C 0.89395 0.36262 0.56693 0.0
N1581 N 0.89208 0.35069 0.54388 0.0
N1582 N 0.88052 0.36609 0.52749 0.0
C1583 C 0.87423 0.3881 0.53996 0.0
C1584 C 0.88265 0.38673 0.56537 0.0
C1585 C 0.90196 0.34961 0.59125 0.0
H1586 H 0.89029 0.33199 0.59376 0.0
H1587 H 0.92258 0.3444 0.59001 0.0
H1588 H 0.89951 0.3621 0.60833 0.0
O1589 O 0.85707 0.30253 0.53485 0.0
O1590 O 0.83765 0.32794 0.50621 0.0
H1591 H 0.8522 0.4232 0.5437 0.0
H1592 H 0.86385 0.416 0.51189 0.0
C1593 C 0.85585 0.40759 0.52966 0.0
H1594 H 0.83734 0.39808 0.52484 0.0
H1595 H 0.8167 0.37941 0.48149 0.0
O1596 O 0.91208 0.29621 0.56258 0.0
C1597 C 0.83701 0.30937 0.52248 0.0
Co1598 Co 0.18052 0.75447 0.53663 0.0
Co1599 Co 0.20513 0.71917 0.49469 0.0
C1600 C 0.16232 0.7578 0.48163 0.0
O1601 O 0.16172 0.76503 0.50495 0.0
O1602 O 0.17741 0.7396 0.475 0.0
C1603 C 0.13851 0.76609 0.56612 0.0
O1604 O 0.12929 0.74896 0.55003 0.0
C1605 C 0.20066 0.67127 0.46369 0.0
C1606 C 0.23716 0.67068 0.44207 0.0
C1607 C 0.21428 0.6572 0.44532 0.0
N1608 N 0.21489 0.6918 0.47095 0.0
N1609 N 0.23669 0.69124 0.45784 0.0
C1610 C 0.17422 0.66556 0.47378 0.0
H1611 H 0.17256 0.67112 0.49422 0.0
H1612 H 0.16943 0.64492 0.47152 0.0
H1613 H 0.15992 0.67713 0.46302 0.0
C1614 C 0.18161 0.70596 0.56646 0.0
N1615 N 0.18242 0.7184 0.54363 0.0
N1616 N 0.19416 0.70374 0.52669 0.0
C1617 C 0.20179 0.68184 0.53857 0.0
C1618 C 0.19378 0.68235 0.56413 0.0
C1619 C 0.17385 0.71818 0.59125 0.0
H1620 H 0.15324 0.72348 0.59038 0.0
H1621 H 0.17651 0.70515 0.60788 0.0
H1622 H 0.18564 0.73567 0.59419 0.0
O1623 O 0.21612 0.7673 0.53475 0.0
O1624 O 0.23523 0.74311 0.50481 0.0
H1625 H 0.23115 0.65268 0.54257 0.0
H1626 H 0.20992 0.64887 0.51557 0.0
C1627 C 0.22054 0.66314 0.52731 0.0
H1628 H 0.23448 0.67326 0.51473 0.0
H1629 H 0.25116 0.70506 0.45944 0.0
O1630 O 0.16212 0.77217 0.56464 0.0
C1631 C 0.23597 0.76122 0.52166 0.0
C1632 C 0.09114 0.28911 0.49914 0.0
C1633 C 0.11746 0.28306 0.49496 0.0
C1634 C 0.10845 0.27361 0.44986 0.0
C1635 C 0.08164 0.27505 0.45516 0.0
N1636 N 0.04706 0.28606 0.48409 0.0
N1637 N 0.15102 0.26665 0.46747 0.0
C1638 C 0.07289 0.28336 0.47965 0.0
C1639 C 0.12611 0.27462 0.47059 0.0
N1640 N 0.0838 0.30149 0.52116 0.0
N1641 N 0.11724 0.27204 0.42518 0.0
H1642 H 0.16453 0.26682 0.48233 0.0
H1643 H 0.15761 0.25755 0.45089 0.0
H1644 H 0.10527 0.27323 0.40923 0.0
H1645 H 0.13669 0.27308 0.42035 0.0
H1646 H 0.06538 0.30874 0.52421 0.0
H1647 H 0.09667 0.30652 0.53571 0.0
H1648 H 0.0391 0.28832 0.50231 0.0
H1649 H 0.03344 0.28545 0.46935 0.0
C1650 C 0.78348 0.1262 0.46126 0.0
C1651 C 0.77825 0.11857 0.48698 0.0
C1652 C 0.78445 0.07349 0.47523 0.0
C1653 C 0.7901 0.08101 0.44967 0.0
N1654 N 0.78746 0.11382 0.41672 0.0
N1655 N 0.78062 0.08603 0.51981 0.0
C1656 C 0.78751 0.10713 0.44214 0.0
C1657 C 0.78053 0.09247 0.49432 0.0
N1658 N 0.78572 0.1516 0.4551 0.0
N1659 N 0.78119 0.04806 0.48086 0.0
H1660 H 0.77932 0.09961 0.53449 0.0
H1661 H 0.78493 0.06772 0.52656 0.0
H1662 H 0.78213 0.03375 0.46686 0.0
H1663 H 0.77457 0.04135 0.49851 0.0
H1664 H 0.79305 0.15815 0.43768 0.0
H1665 H 0.78298 0.16648 0.46805 0.0
H1666 H 0.78239 0.13196 0.41008 0.0
H1667 H 0.78933 0.10091 0.40169 0.0
C1668 C 0.9734 0.7577 0.48076 0.0
C1669 C 0.95781 0.77457 0.49555 0.0
C1670 C 0.98007 0.81181 0.47734 0.0
C1671 C 0.99395 0.79504 0.46085 0.0
N1672 N 1.00357 0.75232 0.44566 0.0
N1673 N 0.94516 0.81748 0.50771 0.0
C1674 C 0.99047 0.76808 0.46216 0.0
C1675 C 0.96076 0.80157 0.49371 0.0
N1676 N 0.97244 0.73178 0.4849 0.0
N1677 N 0.98575 0.83746 0.47788 0.0
H1678 H 0.93268 0.81101 0.522 0.0
H1679 H 0.94362 0.83711 0.50447 0.0
H1680 H 0.99883 0.84622 0.46551 0.0
H1681 H 0.97879 0.85008 0.49173 0.0
H1682 H 0.98563 0.71884 0.47727 0.0
H1683 H 0.95949 0.72299 0.49737 0.0
H1684 H 0.99912 0.73304 0.44293 0.0
H1685 H 0.0183 0.75865 0.43361 0.0
C1686 C 0.28498 0.99587 0.47566 0.0
C1687 C 0.27919 0.9878 0.45031 0.0
C1688 C 0.29033 0.94352 0.46208 0.0
C1689 C 0.29357 0.9515 0.48808 0.0
N1690 N 0.28638 0.98392 0.52041 0.0
N1691 N 0.27492 0.95314 0.41948 0.0
C1692 C 0.28866 0.9773 0.49508 0.0
C1693 C 0.28165 0.96147 0.44346 0.0
N1694 N 0.28807 0.02137 0.48099 0.0
N1695 N 0.29631 0.91911 0.45465 0.0
H1696 H 0.27209 0.96518 0.40391 0.0
H1697 H 0.27145 0.93394 0.41509 0.0
H1698 H 0.29906 0.90402 0.46729 0.0
H1699 H 0.29922 0.91383 0.43556 0.0
H1700 H 0.29448 0.02815 0.49873 0.0
H1701 H 0.28732 0.03544 0.46676 0.0
H1702 H 0.28061 1.00209 0.52648 0.0
H1703 H 0.28711 0.97042 0.53518 0.0
C1704 C 0.07777 0.79362 0.59508 0.0
C1705 C 0.08052 0.78444 0.62062 0.0
C1706 C 0.1255 0.77369 0.612 0.0
C1707 C 0.12102 0.77758 0.5854 0.0
N1708 N 0.0938 0.79331 0.55136 0.0
N1709 N 0.1063 0.76374 0.65317 0.0
C1710 C 0.09737 0.78821 0.57688 0.0
C1711 C 0.10427 0.77411 0.62912 0.0
N1712 N 0.05716 0.80863 0.58858 0.0
N1713 N 0.14993 0.7703 0.62108 0.0
H1714 H 0.09103 0.76334 0.6662 0.0
H1715 H 0.12235 0.75342 0.65929 0.0
H1716 H 0.16614 0.77205 0.60949 0.0
H1717 H 0.15434 0.7693 0.64059 0.0
H1718 H 0.05534 0.81785 0.57093 0.0
H1719 H 0.04299 0.81405 0.60169 0.0
H1720 H 0.07594 0.79761 0.54332 0.0
H1721 H 0.10883 0.79256 0.53806 0.0
C1722 C 0.28754 0.07367 0.5934 0.0
C1723 C 0.27876 0.082 0.61783 0.0
C1724 C 0.27517 0.12597 0.60203 0.0
C1725 C 0.28391 0.11773 0.57759 0.0
N1726 N 0.30631 0.08566 0.55257 0.0
N1727 N 0.27454 0.11741 0.6476 0.0
C1728 C 0.29237 0.09208 0.57392 0.0
C1729 C 0.27588 0.10858 0.62294 0.0
N1730 N 0.29154 0.04814 0.58894 0.0
N1731 N 0.2652 0.15004 0.60509 0.0
H1732 H 0.27721 0.10566 0.6635 0.0
H1733 H 0.27437 0.13686 0.65223 0.0
H1734 H 0.26384 0.16324 0.59009 0.0
H1735 H 0.25602 0.15601 0.62186 0.0
H1736 H 0.29436 0.04044 0.57068 0.0
H1737 H 0.29128 0.0345 0.60362 0.0
H1738 H 0.31496 0.06783 0.54996 0.0
H1739 H 0.31167 0.09897 0.53864 0.0
C1740 C 0.99777 0.27644 0.59115 0.0
C1741 C 0.9945 0.28389 0.61719 0.0
C1742 C 0.94911 0.29322 0.60909 0.0
C1743 C 0.95371 0.29083 0.58232 0.0
N1744 N 0.98156 0.27809 0.54752 0.0
N1745 N 0.96796 0.30194 0.6507 0.0
C1746 C 0.97784 0.28178 0.57327 0.0
C1747 C 0.97036 0.29283 0.62616 0.0
N1748 N 0.01927 0.26316 0.5838 0.0
N1749 N 0.92459 0.29519 0.6184 0.0
H1750 H 0.98324 0.30237 0.66373 0.0
H1751 H 0.95154 0.31133 0.65732 0.0
H1752 H 0.90834 0.29353 0.60686 0.0
H1753 H 0.92026 0.29494 0.63794 0.0
H1754 H 0.02159 0.25503 0.56567 0.0
H1755 H 0.03399 0.25815 0.59648 0.0
H1756 H 0.99958 0.27517 0.53921 0.0
H1757 H 0.96643 0.27859 0.53431 0.0
C1758 C 0.78834 0.94324 0.60539 0.0
C1759 C 0.78396 0.95034 0.57935 0.0
C1760 C 0.79415 0.99507 0.58938 0.0
C1761 C 0.7988 0.98819 0.61534 0.0
N1762 N 0.794 0.95661 0.64941 0.0
N1763 N 0.79099 0.98087 0.54531 0.0
C1764 C 0.7942 0.96256 0.6238 0.0
C1765 C 0.78917 0.97568 0.57102 0.0
N1766 N 0.78822 0.91799 0.61259 0.0
N1767 N 0.79265 0.02038 0.58256 0.0
H1768 H 0.78938 0.96664 0.5313 0.0
H1769 H 0.79726 0.9984 0.53801 0.0
H1770 H 0.79422 0.03531 0.59583 0.0
H1771 H 0.78667 0.02655 0.56448 0.0
H1772 H 0.79514 0.9115 0.6302 0.0
H1773 H 0.78399 0.90282 0.60044 0.0
H1774 H 0.78677 0.93945 0.65668 0.0
H1775 H 0.79835 0.96927 0.66411 0.0
C1776 C 0.49431 0.09306 0.29404 0.0
C1777 C 0.4869 0.11912 0.29659 0.0
C1778 C 0.4426 0.10812 0.28398 0.0
C1779 C 0.45025 0.08204 0.28137 0.0
N1780 N 0.48064 0.04878 0.29196 0.0
N1781 N 0.45532 0.15246 0.28901 0.0
C1782 C 0.47537 0.07428 0.28865 0.0
C1783 C 0.46143 0.12698 0.29022 0.0
N1784 N 0.51981 0.08646 0.29502 0.0
N1785 N 0.41724 0.1149 0.28178 0.0
H1786 H 0.46789 0.16714 0.29385 0.0
H1787 H 0.43843 0.15948 0.28084 0.0
H1788 H 0.4025 0.10217 0.27758 0.0
H1789 H 0.41006 0.13283 0.28686 0.0
H1790 H 0.52662 0.0682 0.29055 0.0
H1791 H 0.53457 0.09987 0.29733 0.0
H1792 H 0.49782 0.04196 0.29973 0.0
H1793 H 0.46664 0.03456 0.28992 0.0
C1794 C 0.99699 0.47819 0.27962 0.0
C1795 C 0.99274 0.45221 0.28659 0.0
C1796 C 0.94727 0.46136 0.29445 0.0
C1797 C 0.9527 0.48799 0.29262 0.0
N1798 N 0.98186 0.52212 0.28114 0.0
N1799 N 0.96462 0.41915 0.30293 0.0
C1800 C 0.97736 0.49649 0.28446 0.0
C1801 C 0.96804 0.44376 0.29447 0.0
N1802 N 0.01922 0.48513 0.26727 0.0
N1803 N 0.92245 0.45271 0.29545 0.0
H1804 H 0.97948 0.4057 0.30351 0.0
H1805 H 0.9477 0.4128 0.31164 0.0
H1806 H 0.90657 0.46467 0.29347 0.0
H1807 H 0.91756 0.43334 0.29475 0.0
H1808 H 0.02235 0.50324 0.25947 0.0
H1809 H 0.03381 0.47216 0.26272 0.0
H1810 H 1.00016 0.53 0.27889 0.0
H1811 H 0.96706 0.53565 0.28123 0.0
C1812 C 0.59579 0.99811 0.28562 0.0
C1813 C 0.62178 0.99302 0.29251 0.0
C1814 C 0.61121 0.94785 0.29922 0.0
C1815 C 0.5846 0.95392 0.29733 0.0
N1816 N 0.55121 0.98444 0.28709 0.0
N1817 N 0.65388 0.96388 0.30889 0.0
C1818 C 0.57681 0.97901 0.29009 0.0
C1819 C 0.62941 0.96809 0.30009 0.0
N1820 N 0.58949 0.02052 0.27346 0.0
N1821 N 0.61937 0.92296 0.29929 0.0
H1822 H 0.66772 0.97835 0.31014 0.0
H1823 H 0.65962 0.94668 0.31732 0.0
H1824 H 0.60712 0.90747 0.29635 0.0
H1825 H 0.63874 0.91778 0.29862 0.0
H1826 H 0.57139 0.02414 0.26563 0.0
H1827 H 0.6029 0.03471 0.26898 0.0
H1828 H 0.54397 1.00301 0.28559 0.0
H1829 H 0.53705 0.97023 0.28677 0.0
C1830 C 0.09609 0.56977 0.28502 0.0
C1831 C 0.12198 0.57494 0.27783 0.0
C1832 C 0.11116 0.61998 0.2708 0.0
C1833 C 0.08459 0.61378 0.273 0.0
N1834 N 0.05144 0.58316 0.28384 0.0
N1835 N 0.15379 0.60411 0.26086 0.0
C1836 C 0.07698 0.58871 0.28054 0.0
C1837 C 0.12943 0.59984 0.26994 0.0
N1838 N 0.09 0.54745 0.29746 0.0
N1839 N 0.11922 0.64492 0.27042 0.0
H1840 H 0.16768 0.5897 0.25962 0.0
H1841 H 0.15938 0.62125 0.2522 0.0
H1842 H 0.10696 0.66036 0.27336 0.0
H1843 H 0.13859 0.6502 0.27085 0.0
H1844 H 0.072 0.5438 0.30551 0.0
H1845 H 0.10352 0.53338 0.30197 0.0
H1846 H 0.0443 0.56455 0.28557 0.0
H1847 H 0.03722 0.59729 0.2842 0.0
C1848 C 0.44516 0.96711 0.77399 0.0
C1849 C 0.45299 0.99138 0.78339 0.0
C1850 C 0.49751 0.97641 0.78676 0.0
C1851 C 0.4896 0.95211 0.77733 0.0
N1852 N 0.45455 0.92185 0.77221 0.0
N1853 N 0.48465 0.01642 0.8065 0.0
C1854 C 0.463 0.94657 0.7742 0.0
C1855 C 0.47865 0.99534 0.79202 0.0
N1856 N 0.42101 0.96387 0.76398 0.0
N1857 N 0.52306 0.98125 0.79099 0.0
H1858 H 0.471 0.02995 0.8121 0.0
H1859 H 0.50248 0.01914 0.81529 0.0
H1860 H 0.53705 0.96689 0.79042 0.0
H1861 H 0.53043 0.99955 0.7943 0.0
H1862 H 0.41532 0.9473 0.75431 0.0
H1863 H 0.40745 0.97861 0.76314 0.0
H1864 H 0.4351 0.91689 0.7718 0.0
H1865 H 0.46657 0.90611 0.77466 0.0
C1866 C 0.108 0.44317 0.78716 0.0
C1867 C 0.08202 0.45082 0.7915 0.0
C1868 C 0.09271 0.495 0.77969 0.0
C1869 C 0.11856 0.48756 0.77494 0.0
N1870 N 0.1522 0.45552 0.77966 0.0
N1871 N 0.04834 0.48161 0.78345 0.0
C1872 C 0.12664 0.46194 0.78014 0.0
C1873 C 0.07403 0.47609 0.78543 0.0
N1874 N 0.11487 0.41786 0.7884 0.0
N1875 N 0.0863 0.52045 0.78052 0.0
H1876 H 0.03405 0.4677 0.78552 0.0
H1877 H 0.04133 0.49903 0.77657 0.0
H1878 H 0.09979 0.53513 0.77832 0.0
H1879 H 0.06834 0.52707 0.78653 0.0
H1880 H 0.13228 0.41075 0.7815 0.0
H1881 H 0.10265 0.40311 0.79377 0.0
H1882 H 0.15949 0.4386 0.78738 0.0
H1883 H 0.1669 0.46764 0.77391 0.0
C1884 C 0.57634 0.09334 0.77968 0.0
C1885 C 0.58017 0.11928 0.78703 0.0
C1886 C 0.62496 0.10992 0.79789 0.0
C1887 C 0.61958 0.08329 0.79561 0.0
N1888 N 0.59084 0.0493 0.78254 0.0
N1889 N 0.60722 0.15218 0.80537 0.0
C1890 C 0.59541 0.07491 0.78596 0.0
C1891 C 0.60429 0.12762 0.79659 0.0
N1892 N 0.55516 0.08658 0.76555 0.0
N1893 N 0.64968 0.11849 0.80056 0.0
H1894 H 0.59243 0.16571 0.80493 0.0
H1895 H 0.62353 0.15842 0.81526 0.0
H1896 H 0.6656 0.10649 0.79949 0.0
H1897 H 0.65465 0.13785 0.80027 0.0
H1898 H 0.55248 0.06847 0.75755 0.0
H1899 H 0.54132 0.09977 0.75959 0.0
H1900 H 0.57259 0.04165 0.77918 0.0
H1901 H 0.60536 0.03553 0.78376 0.0
C1902 C 0.99913 0.59196 0.78611 0.0
C1903 C 0.99389 0.61822 0.78118 0.0
C1904 C 0.94818 0.60841 0.77553 0.0
C1905 C 0.95418 0.58186 0.77569 0.0
N1906 N 0.98476 0.54786 0.78298 0.0
N1907 N 0.96418 0.65146 0.76858 0.0
C1908 C 0.97955 0.57351 0.78151 0.0
C1909 C 0.96858 0.62649 0.77532 0.0
N1910 N 0.02229 0.58481 0.79647 0.0
N1911 N 0.92317 0.61649 0.77627 0.0
H1912 H 0.97875 0.66526 0.7679 0.0
H1913 H 0.94665 0.65793 0.76132 0.0
H1914 H 0.90762 0.60402 0.77785 0.0
H1915 H 0.91793 0.63565 0.77847 0.0
H1916 H 0.02629 0.56634 0.80291 0.0
H1917 H 0.03697 0.59778 0.80078 0.0
H1918 H 1.00332 0.54029 0.7834 0.0
H1919 H 0.97024 0.53401 0.78321 0.0
C1920 C 0.28163 0.4765 0.0764 0.0
C1921 C 0.27902 0.45056 0.08421 0.0
C1922 C 0.28848 0.46268 0.12883 0.0
C1923 C 0.2914 0.48866 0.12084 0.0
N1924 N 0.28293 0.52114 0.089 0.0
N1925 N 0.28618 0.41802 0.11662 0.0
C1926 C 0.28585 0.49578 0.09513 0.0
C1927 C 0.2842 0.44334 0.11003 0.0
N1928 N 0.28179 0.48246 0.05078 0.0
N1929 N 0.28831 0.45638 0.15435 0.0
H1930 H 0.2832 0.40296 0.10394 0.0
H1931 H 0.29352 0.4117 0.13413 0.0
H1932 H 0.29038 0.46943 0.16922 0.0
H1933 H 0.28293 0.43841 0.16124 0.0
H1934 H 0.28637 0.50058 0.04369 0.0
H1935 H 0.28026 0.46863 0.03636 0.0
H1936 H 0.27626 0.52753 0.07124 0.0
H1937 H 0.28423 0.53578 0.10262 0.0
C1938 C 0.29177 0.57268 0.98224 0.0
C1939 C 0.30031 0.58059 0.95753 0.0
C1940 C 0.30204 0.62518 0.97207 0.0
C1941 C 0.29315 0.61741 0.99657 0.0
N1942 N 0.2727 0.58505 0.02287 0.0
N1943 N 0.3038 0.61542 0.92683 0.0
C1944 C 0.28609 0.59149 1.00115 0.0
C1945 C 0.30237 0.60715 0.95169 0.0
N1946 N 0.28873 0.54716 0.98751 0.0
N1947 N 0.31101 0.64959 0.96844 0.0
H1948 H 0.30182 0.60333 0.9111 0.0
H1949 H 0.30328 0.63474 0.92173 0.0
H1950 H 0.3114 0.66331 0.98303 0.0
H1951 H 0.3204 0.65542 0.95173 0.0
H1952 H 0.28624 0.53996 1.00601 0.0
H1953 H 0.28945 0.533 0.97333 0.0
H1954 H 0.26474 0.56698 0.02601 0.0
H1955 H 0.26731 0.59836 0.03682 0.0
C1956 C 0.49829 0.28867 0.98057 0.0
C1957 C 0.49104 0.2936 0.95475 0.0
C1958 C 0.446 0.28318 0.96517 0.0
C1959 C 0.45344 0.27869 0.99113 0.0
N1960 N 0.48471 0.28524 0.0248 0.0
N1961 N 0.45885 0.28925 0.92105 0.0
C1962 C 0.47906 0.28365 0.99915 0.0
C1963 C 0.46518 0.28917 0.94659 0.0
N1964 N 0.52381 0.28693 0.987 0.0
N1965 N 0.42057 0.28302 0.95821 0.0
H1966 H 0.47134 0.29384 0.90624 0.0
H1967 H 0.44154 0.2821 0.9139 0.0
H1968 H 0.40546 0.27832 0.97032 0.0
H1969 H 0.41383 0.2902 0.94079 0.0
H1970 H 0.53024 0.28074 1.00492 0.0
H1971 H 0.53862 0.28855 0.97354 0.0
H1972 H 0.50243 0.29153 0.0318 0.0
H1973 H 0.47078 0.28336 0.03913 0.0
C1974 C 0.78951 0.48027 0.99777 0.0
C1975 C 0.79771 0.45545 0.99002 0.0
C1976 C 0.79979 0.46961 0.94527 0.0
C1977 C 0.79138 0.49428 0.9529 0.0
N1978 N 0.77121 0.52106 0.98505 0.0
N1979 N 0.80062 0.4245 0.95532 0.0
C1980 C 0.78426 0.49912 0.9788 0.0
C1981 C 0.79969 0.44939 0.96345 0.0
N1982 N 0.78643 0.48571 0.0233 0.0
N1983 N 0.80873 0.46566 0.92087 0.0
H1984 H 0.79825 0.40893 0.96752 0.0
H1985 H 0.80006 0.41928 0.936 0.0
H1986 H 0.80941 0.48012 0.90702 0.0
H1987 H 0.8178 0.44877 0.91515 0.0
H1988 H 0.78419 0.50425 0.03041 0.0
H1989 H 0.78684 0.47162 0.03753 0.0
H1990 H 0.76322 0.52443 1.00309 0.0
H1991 H 0.76613 0.53499 0.97161 0.0
C1992 C 0.60167 0.79428 0.94447 0.0
C1993 C 0.57775 0.78511 0.95378 0.0
C1994 C 0.59473 0.78422 0.99763 0.0
C1995 C 0.61883 0.79305 0.98817 0.0
N1996 N 0.64746 0.79739 0.95165 0.0
N1997 N 0.55336 0.76497 0.98782 0.0
C1998 C 0.6231 0.79517 0.9613 0.0
C1999 C 0.57472 0.77828 0.98001 0.0
N2000 N 0.60369 0.8031 0.9198 0.0
N2001 N 0.59107 0.78128 0.0235 0.0
H2002 H 0.53855 0.75963 0.97538 0.0
H2003 H 0.55129 0.75717 1.00612 0.0
H2004 H 0.60611 0.78237 0.03678 0.0
H2005 H 0.57305 0.77853 0.03187 0.0
H2006 H 0.61991 0.81267 0.9129 0.0
H2007 H 0.58826 0.80317 0.90694 0.0
H2008 H 0.65155 0.79685 0.93206 0.0
H2009 H 0.66391 0.79632 0.96296 0.0
C2010 C 0.78687 0.59201 0.07513 0.0
C2011 C 0.79255 0.61773 0.08202 0.0
C2012 C 0.78487 0.60757 0.12748 0.0
C2013 C 0.77955 0.58175 0.12048 0.0
N2014 N 0.7824 0.54796 0.08896 0.0
N2015 N 0.78944 0.6516 0.11397 0.0
C2016 C 0.78236 0.5736 0.09463 0.0
C2017 C 0.78947 0.62605 0.10793 0.0
N2018 N 0.78409 0.5856 0.04977 0.0
N2019 N 0.78665 0.61445 0.15279 0.0
H2020 H 0.79179 0.66629 0.10078 0.0
H2021 H 0.78392 0.65872 0.13183 0.0
H2022 H 0.78338 0.60204 0.168 0.0
H2023 H 0.79411 0.63193 0.15899 0.0
H2024 H 0.77734 0.56784 0.04352 0.0
H2025 H 0.78559 0.599 0.03496 0.0
H2026 H 0.7871 0.54063 0.07094 0.0
H2027 H 0.78065 0.53375 0.10297 0.0
C2028 C 0.46809 0.79426 0.12643 0.0
C2029 C 0.49359 0.78896 0.11844 0.0
C2030 C 0.48041 0.7911 0.07336 0.0
C2031 C 0.45472 0.79599 0.08142 0.0
N2032 N 0.42294 0.79353 0.11548 0.0
N2033 N 0.52298 0.77592 0.08488 0.0
C2034 C 0.44811 0.79478 0.10789 0.0
C2035 C 0.49955 0.78562 0.09204 0.0
N2036 N 0.46309 0.79979 0.15165 0.0
N2037 N 0.48643 0.79145 0.04776 0.0
H2038 H 0.53739 0.77111 0.09798 0.0
H2039 H 0.52747 0.77049 0.06616 0.0
H2040 H 0.47248 0.79221 0.03334 0.0
H2041 H 0.50525 0.79174 0.04082 0.0
H2042 H 0.44539 0.80669 0.15807 0.0
H2043 H 0.47733 0.79991 0.16581 0.0
H2044 H 0.41737 0.79024 0.13443 0.0
H2045 H 0.40757 0.79267 0.10273 0.0
C2046 C 0.59303 0.28333 0.06914 0.0
C2047 C 0.61926 0.28912 0.07422 0.0
C2048 C 0.60881 0.29903 0.11888 0.0
C2049 C 0.58212 0.29778 0.11269 0.0
N2050 N 0.54848 0.28703 0.08245 0.0
N2051 N 0.65199 0.30562 0.10263 0.0
C2052 C 0.57415 0.28945 0.0879 0.0
C2053 C 0.62713 0.29776 0.09875 0.0
N2054 N 0.58634 0.27083 0.04697 0.0
N2055 N 0.61693 0.30054 0.14381 0.0
H2056 H 0.666 0.30514 0.08826 0.0
H2057 H 0.65807 0.31493 0.11929 0.0
H2058 H 0.60467 0.29947 0.15951 0.0
H2059 H 0.63624 0.29928 0.14914 0.0
H2060 H 0.56797 0.26366 0.04334 0.0
H2061 H 0.59965 0.2656 0.03291 0.0
H2062 H 0.54126 0.28478 0.06391 0.0
H2063 H 0.53419 0.2879 0.09654 0.0
C2064 C 0.93453 0.79274 0.65454 0.0
C2065 C 0.95894 0.80173 0.64552 0.0
C2066 C 0.9528 0.77542 0.60668 0.0
C2067 C 0.92699 0.76958 0.61357 0.0
N2068 N 0.89177 0.77764 0.64288 0.0
N2069 N 0.98659 0.80716 0.60851 0.0
C2070 C 0.91737 0.77963 0.63721 0.0
C2071 C 0.96658 0.79477 0.6202 0.0
N2072 N 0.92801 0.79544 0.67981 0.0
N2073 N 0.96481 0.76155 0.58797 0.0
H2074 H 0.99594 0.82281 0.61684 0.0
H2075 H 0.99158 0.80391 0.58936 0.0
H2076 H 0.95629 0.74537 0.57979 0.0
H2077 H 0.98425 0.76391 0.58345 0.0
H2078 H 0.91167 0.78691 0.68776 0.0
H2079 H 0.94004 0.8039 0.6934 0.0
H2080 H 0.88337 0.78692 0.65852 0.0
H2081 H 0.8785 0.76881 0.63071 0.0
C2082 C 0.29725 0.95235 0.60425 0.0
C2083 C 0.30346 0.92682 0.61166 0.0
C2084 C 0.28157 0.93532 0.65321 0.0
C2085 C 0.27225 0.95939 0.64397 0.0
N2086 N 0.2658 0.98636 0.60681 0.0
N2087 N 0.29628 0.8925 0.64211 0.0
C2088 C 0.27853 0.96655 0.61834 0.0
C2089 C 0.2942 0.91785 0.63588 0.0
N2090 N 0.30998 0.96365 0.58427 0.0
N2091 N 0.27953 0.92939 0.67868 0.0
H2092 H 0.30456 0.87893 0.62998 0.0
H2093 H 0.28749 0.88456 0.65827 0.0
H2094 H 0.27133 0.94168 0.69218 0.0
H2095 H 0.28834 0.91337 0.6868 0.0
H2096 H 0.3077 0.98297 0.5796 0.0
H2097 H 0.32507 0.95468 0.57455 0.0
H2098 H 0.26818 0.99091 0.58743 0.0
H2099 H 0.25061 0.99603 0.61565 0.0
C2100 C 0.11728 0.2972 0.65048 0.0
C2101 C 0.11662 0.26994 0.64826 0.0
C2102 C 0.15155 0.27271 0.61624 0.0
C2103 C 0.14933 0.29996 0.61558 0.0
N2104 N 0.12794 0.33806 0.6306 0.0
N2105 N 0.1315 0.23187 0.62669 0.0
C2106 C 0.13177 0.31221 0.6325 0.0
C2107 C 0.13351 0.2577 0.63066 0.0
N2108 N 0.10454 0.30876 0.67031 0.0
N2109 N 0.17143 0.26117 0.60352 0.0
H2110 H 0.11848 0.22037 0.63669 0.0
H2111 H 0.14118 0.22223 0.61207 0.0
H2112 H 0.18537 0.27162 0.59359 0.0
H2113 H 0.17565 0.2417 0.60507 0.0
H2114 H 0.10611 0.32823 0.67454 0.0
H2115 H 0.09452 0.29834 0.6842 0.0
H2116 H 0.11332 0.34775 0.64027 0.0
H2117 H 0.13815 0.34958 0.61776 0.0
C2118 C 0.80166 0.14905 0.61507 0.0
C2119 C 0.77433 0.14649 0.61306 0.0
C2120 C 0.776 0.11372 0.64719 0.0
C2121 C 0.80347 0.11333 0.64615 0.0
N2122 N 0.84241 0.12919 0.62662 0.0
N2123 N 0.73586 0.12369 0.62544 0.0
C2124 C 0.81631 0.13078 0.62956 0.0
C2125 C 0.76157 0.12822 0.62881 0.0
N2126 N 0.81361 0.16952 0.60378 0.0
N2127 N 0.76363 0.10082 0.66641 0.0
H2128 H 0.72464 0.13359 0.61212 0.0
H2129 H 0.72613 0.10858 0.63425 0.0
H2130 H 0.77357 0.09099 0.68072 0.0
H2131 H 0.7439 0.10228 0.66981 0.0
H2132 H 0.833 0.17388 0.60658 0.0
H2133 H 0.80356 0.18373 0.59385 0.0
H2134 H 0.85255 0.13935 0.61267 0.0
H2135 H 0.8537 0.11609 0.63672 0.0
C2136 C 0.91766 0.29072 0.43666 0.0
C2137 C 0.92691 0.29961 0.46092 0.0
C2138 C 0.9663 0.27418 0.454 0.0
C2139 C 0.95902 0.26839 0.4283 0.0
N2140 N 0.92898 0.27655 0.39366 0.0
N2141 N 0.96419 0.30554 0.48805 0.0
C2142 C 0.93499 0.27812 0.41916 0.0
C2143 C 0.95246 0.29301 0.46819 0.0
N2144 N 0.89221 0.29319 0.43053 0.0
N2145 N 0.98589 0.26099 0.46545 0.0
H2146 H 0.95555 0.32085 0.49764 0.0
H2147 H 0.98357 0.30284 0.49265 0.0
H2148 H 0.99532 0.24577 0.45646 0.0
H2149 H 0.99044 0.2631 0.48487 0.0
H2150 H 0.88407 0.2847 0.4143 0.0
H2151 H 0.87872 0.30144 0.44282 0.0
H2152 H 0.91299 0.28565 0.3857 0.0
H2153 H 0.94118 0.26843 0.38003 0.0
C2154 C 0.79441 0.96485 0.45036 0.0
C2155 C 0.80086 0.95755 0.42481 0.0
C2156 C 0.77988 0.91557 0.43325 0.0
C2157 C 0.77056 0.92452 0.45745 0.0
N2158 N 0.76321 0.96133 0.48462 0.0
N2159 N 0.79451 0.927 0.39039 0.0
C2160 C 0.77613 0.95026 0.46464 0.0
C2161 C 0.79218 0.93315 0.41579 0.0
N2162 N 0.80657 0.98518 0.46166 0.0
N2163 N 0.7781 0.89015 0.42719 0.0
H2164 H 0.80259 0.93932 0.37685 0.0
H2165 H 0.78613 0.91068 0.38236 0.0
H2166 H 0.76983 0.8766 0.43938 0.0
H2167 H 0.78699 0.88218 0.4111 0.0
H2168 H 0.80413 0.98985 0.481 0.0
H2169 H 0.8214 0.99528 0.45267 0.0
H2170 H 0.76495 0.98075 0.48914 0.0
H2171 H 0.74852 0.95194 0.49457 0.0
C2172 C 0.15391 0.77936 0.4376 0.0
C2173 C 0.14507 0.77148 0.46239 0.0
C2174 C 0.10648 0.79809 0.45565 0.0
C2175 C 0.11297 0.80247 0.42951 0.0
N2176 N 0.14178 0.79231 0.39442 0.0
N2177 N 0.10826 0.76781 0.4906 0.0
C2178 C 0.13644 0.79174 0.4201 0.0
C2179 C 0.11997 0.77923 0.4701 0.0
N2180 N 0.17917 0.77627 0.43096 0.0
N2181 N 0.08812 0.81278 0.46723 0.0
H2182 H 0.11642 0.75235 0.50035 0.0
H2183 H 0.08916 0.77154 0.49561 0.0
H2184 H 0.07988 0.82855 0.45802 0.0
H2185 H 0.08392 0.81145 0.48679 0.0
H2186 H 0.18699 0.78393 0.41418 0.0
H2187 H 0.19292 0.76856 0.44331 0.0
H2188 H 0.15727 0.78246 0.38636 0.0
H2189 H 0.12949 0.80048 0.38088 0.0
C2190 C 0.29435 0.11614 0.46424 0.0
C2191 C 0.30119 0.14152 0.45688 0.0
C2192 C 0.2795 0.13353 0.41513 0.0
C2193 C 0.26972 0.10962 0.42424 0.0
N2194 N 0.2622 0.08276 0.46128 0.0
N2195 N 0.29462 0.17611 0.42654 0.0
C2196 C 0.27549 0.10233 0.44994 0.0
C2197 C 0.29223 0.15074 0.43262 0.0
N2198 N 0.30661 0.1046 0.48436 0.0
N2199 N 0.27772 0.13957 0.38967 0.0
H2200 H 0.30277 0.1896 0.43887 0.0
H2201 H 0.28608 0.18418 0.41032 0.0
H2202 H 0.26929 0.12749 0.37611 0.0
H2203 H 0.28689 0.15547 0.38166 0.0
H2204 H 0.30374 0.08537 0.48912 0.0
H2205 H 0.32188 0.11323 0.49414 0.0
H2206 H 0.26417 0.07822 0.4807 0.0
H2207 H 0.24701 0.0733 0.45218 0.0
C2208 C 0.60563 0.95323 0.77727 0.0
C2209 C 0.61313 0.92774 0.77101 0.0
C2210 C 0.65476 0.93635 0.79279 0.0
C2211 C 0.64541 0.96033 0.80223 0.0
N2212 N 0.60803 0.9871 0.80885 0.0
N2213 N 0.64361 0.89343 0.77854 0.0
C2214 C 0.61967 0.9674 0.79605 0.0
C2215 C 0.63739 0.91881 0.78034 0.0
N2216 N 0.58566 0.96454 0.76451 0.0
N2217 N 0.68036 0.93058 0.79446 0.0
H2218 H 0.63136 0.87971 0.77063 0.0
H2219 H 0.65985 0.88563 0.78736 0.0
H2220 H 0.69398 0.943 0.80229 0.0
H2221 H 0.68843 0.91456 0.78558 0.0
H2222 H 0.58083 0.9838 0.76695 0.0
H2223 H 0.57617 0.95566 0.74923 0.0
H2224 H 0.58859 0.99158 0.80646 0.0
H2225 H 0.61684 0.99673 0.82408 0.0
C2226 C 0.11495 0.64467 0.77095 0.0
C2227 C 0.11566 0.64445 0.7984 0.0
C2228 C 0.15267 0.6149 0.79603 0.0
C2229 C 0.14925 0.61203 0.76901 0.0
N2230 N 0.12501 0.62256 0.73104 0.0
N2231 N 0.1336 0.62636 0.83707 0.0
C2232 C 0.1299 0.62663 0.75651 0.0
C2233 C 0.13425 0.6289 0.81095 0.0
N2234 N 0.10063 0.66282 0.75857 0.0
N2235 N 0.17411 0.60483 0.80738 0.0
H2236 H 0.12021 0.63584 0.84856 0.0
H2237 H 0.14479 0.61314 0.84708 0.0
H2238 H 0.18841 0.59566 0.79677 0.0
H2239 H 0.17907 0.60812 0.8265 0.0
H2240 H 0.10116 0.66566 0.73876 0.0
H2241 H 0.09036 0.67689 0.76841 0.0
H2242 H 0.10923 0.63038 0.72148 0.0
H2243 H 0.13563 0.60973 0.71989 0.0
C2244 C 0.46694 0.11709 0.77521 0.0
C2245 C 0.4596 0.14256 0.76874 0.0
C2246 C 0.41842 0.13484 0.7917 0.0
C2247 C 0.42771 0.11086 0.80114 0.0
N2248 N 0.46501 0.08393 0.80749 0.0
N2249 N 0.4297 0.17737 0.77641 0.0
C2250 C 0.45324 0.10347 0.79456 0.0
C2251 C 0.43567 0.15196 0.7785 0.0
N2252 N 0.48647 0.1053 0.76219 0.0
N2253 N 0.39299 0.14102 0.79422 0.0
H2254 H 0.44188 0.19079 0.76792 0.0
H2255 H 0.41379 0.18553 0.78549 0.0
H2256 H 0.37956 0.12901 0.80297 0.0
H2257 H 0.38481 0.15699 0.78536 0.0
H2258 H 0.4911 0.08602 0.76488 0.0
H2259 H 0.49573 0.11376 0.74654 0.0
H2260 H 0.48435 0.07924 0.80477 0.0
H2261 H 0.45645 0.07469 0.8231 0.0
C2262 C 0.93451 0.41661 0.79455 0.0
C2263 C 0.95884 0.42555 0.80378 0.0
C2264 C 0.95231 0.46524 0.77894 0.0
C2265 C 0.9266 0.45816 0.77276 0.0
N2266 N 0.89165 0.42828 0.77991 0.0
N2267 N 0.98634 0.46237 0.81041 0.0
C2268 C 0.91721 0.43413 0.78201 0.0
C2269 C 0.96633 0.45107 0.79765 0.0
N2270 N 0.92821 0.39126 0.79651 0.0
N2271 N 0.96401 0.48492 0.76614 0.0
H2272 H 0.99599 0.4534 0.82552 0.0
H2273 H 0.99109 0.48167 0.80807 0.0
H2274 H 0.95511 0.4948 0.75113 0.0
H2275 H 0.98353 0.48918 0.76836 0.0
H2276 H 0.91196 0.3834 0.78772 0.0
H2277 H 0.94035 0.37761 0.80464 0.0
H2278 H 0.88343 0.41226 0.78867 0.0
H2279 H 0.87821 0.44061 0.77166 0.0
C2280 C 0.61341 0.14431 0.2706 0.0
C2281 C 0.61323 0.14396 0.29806 0.0
C2282 C 0.64967 0.11356 0.29678 0.0
C2283 C 0.64724 0.11116 0.26957 0.0
N2284 N 0.624 0.12204 0.231 0.0
N2285 N 0.62931 0.12512 0.33719 0.0
C2286 C 0.62846 0.12608 0.25658 0.0
C2287 C 0.63101 0.12787 0.31113 0.0
N2288 N 0.59986 0.16274 0.25776 0.0
N2289 N 0.67032 0.1027 0.3089 0.0
H2290 H 0.61567 0.13473 0.34829 0.0
H2291 H 0.63981 0.11155 0.3475 0.0
H2292 H 0.68469 0.09272 0.29906 0.0
H2293 H 0.67464 0.10584 0.3282 0.0
H2294 H 0.60139 0.16577 0.23803 0.0
H2295 H 0.58915 0.17676 0.26715 0.0
H2296 H 0.6085 0.13007 0.22116 0.0
H2297 H 0.63445 0.10893 0.22005 0.0
C2298 C 0.95314 0.60199 0.2953 0.0
C2299 C 0.92763 0.60962 0.30164 0.0
C2300 C 0.93648 0.65101 0.27992 0.0
C2301 C 0.96042 0.64149 0.27031 0.0
N2302 N 0.98696 0.60403 0.26354 0.0
N2303 N 0.89345 0.64039 0.2949 0.0
C2304 C 0.96737 0.61582 0.27645 0.0
C2305 C 0.91881 0.63389 0.29255 0.0
N2306 N 0.96442 0.58207 0.30806 0.0
N2307 N 0.93089 0.67654 0.27826 0.0
H2308 H 0.87976 0.6284 0.30329 0.0
H2309 H 0.88559 0.65662 0.28624 0.0
H2310 H 0.94341 0.68998 0.2703 0.0
H2311 H 0.91494 0.68475 0.28724 0.0
H2312 H 0.98376 0.57721 0.30561 0.0
H2313 H 0.95544 0.57264 0.3233 0.0
H2314 H 0.99127 0.58464 0.26592 0.0
H2315 H 0.9966 0.61268 0.24823 0.0
C2316 C 0.46772 0.95232 0.29587 0.0
C2317 C 0.46087 0.92649 0.30143 0.0
C2318 C 0.41933 0.93422 0.27918 0.0
C2319 C 0.42808 0.95871 0.27056 0.0
N2320 N 0.46466 0.98687 0.26515 0.0
N2321 N 0.43153 0.8914 0.29277 0.0
C2322 C 0.45348 0.96649 0.27729 0.0
C2323 C 0.43701 0.91699 0.29157 0.0
N2324 N 0.48727 0.96389 0.30908 0.0
N2325 N 0.39399 0.92762 0.27668 0.0
H2326 H 0.44405 0.87792 0.30063 0.0
H2327 H 0.41568 0.88325 0.28355 0.0
H2328 H 0.38022 0.93972 0.26862 0.0
H2329 H 0.3862 0.91116 0.285 0.0
H2330 H 0.49153 0.98336 0.3072 0.0
H2331 H 0.49699 0.9549 0.32413 0.0
H2332 H 0.48394 0.99187 0.26784 0.0
H2333 H 0.4557 0.99669 0.25014 0.0
C2334 C 0.12958 0.44192 0.31332 0.0
C2335 C 0.14851 0.45698 0.30065 0.0
C2336 C 0.13308 0.44021 0.25878 0.0
C2337 C 0.11482 0.42439 0.27154 0.0
N2338 N 0.10071 0.40534 0.31135 0.0
N2339 N 0.17239 0.46541 0.26179 0.0
C2340 C 0.11462 0.42383 0.29895 0.0
C2341 C 0.15147 0.45455 0.27349 0.0
N2342 N 0.1249 0.44569 0.33889 0.0
N2343 N 0.13214 0.44257 0.23265 0.0
H2344 H 0.18656 0.47539 0.27192 0.0
H2345 H 0.17709 0.46229 0.24258 0.0
H2346 H 0.11904 0.4325 0.22128 0.0
H2347 H 0.14289 0.45602 0.22244 0.0
H2348 H 0.10933 0.43754 0.34853 0.0
H2349 H 0.13532 0.45866 0.35007 0.0
H2350 H 0.10168 0.40223 0.3311 0.0
H2351 H 0.09039 0.39128 0.30152 0.0
C2352 C 0.75913 0.63086 0.94058 0.0
C2353 C 0.77177 0.6136 0.92364 0.0
C2354 C 0.81391 0.62867 0.94039 0.0
C2355 C 0.80129 0.64654 0.9567 0.0
N2356 N 0.76211 0.66914 0.96708 0.0
N2357 N 0.81134 0.60123 0.90273 0.0
C2358 C 0.77394 0.64898 0.95515 0.0
C2359 C 0.79923 0.61413 0.92214 0.0
N2360 N 0.73306 0.62917 0.94385 0.0
N2361 N 0.83975 0.62454 0.94314 0.0
H2362 H 0.80132 0.59107 0.88862 0.0
H2363 H 0.83099 0.60282 0.89902 0.0
H2364 H 0.85109 0.63465 0.95622 0.0
H2365 H 0.84953 0.60969 0.93398 0.0
H2366 H 0.7231 0.63909 0.9581 0.0
H2367 H 0.7216 0.61625 0.93369 0.0
H2368 H 0.74268 0.6735 0.96467 0.0
H2369 H 0.77228 0.68312 0.97726 0.0
C2370 C 0.77417 0.42559 0.1135 0.0
C2371 C 0.8017 0.42508 0.11409 0.0
C2372 C 0.80024 0.45431 0.15146 0.0
C2373 C 0.77314 0.45767 0.14831 0.0
N2374 N 0.73487 0.44868 0.1237 0.0
N2375 N 0.841 0.44198 0.13207 0.0
C2376 C 0.76023 0.44374 0.12873 0.0
C2377 C 0.81476 0.4401 0.13282 0.0
N2378 N 0.76115 0.40804 0.09896 0.0
N2379 N 0.81209 0.46417 0.17275 0.0
H2380 H 0.85222 0.43235 0.11857 0.0
H2381 H 0.85146 0.45484 0.14331 0.0
H2382 H 0.8021 0.47406 0.18705 0.0
H2383 H 0.83118 0.46028 0.17755 0.0
H2384 H 0.74125 0.40556 0.09978 0.0
H2385 H 0.7705 0.39411 0.08814 0.0
H2386 H 0.72522 0.44146 0.10769 0.0
H2387 H 0.72397 0.46174 0.13427 0.0
C2388 C 0.64997 0.76991 0.11133 0.0
C2389 C 0.64785 0.79712 0.10931 0.0
C2390 C 0.61483 0.79619 0.14339 0.0
C2391 C 0.61428 0.76884 0.14269 0.0
N2392 N 0.62978 0.72965 0.12369 0.0
N2393 N 0.62582 0.8359 0.12157 0.0
C2394 C 0.63159 0.75568 0.12616 0.0
C2395 C 0.62974 0.81021 0.125 0.0
N2396 N 0.67011 0.75766 0.09969 0.0
N2397 N 0.60173 0.80883 0.16231 0.0
H2398 H 0.63621 0.84683 0.10836 0.0
H2399 H 0.61083 0.84596 0.13024 0.0
H2400 H 0.59139 0.79925 0.17654 0.0
H2401 H 0.60332 0.82849 0.16553 0.0
H2402 H 0.67429 0.73833 0.1025 0.0
H2403 H 0.68425 0.76738 0.08926 0.0
H2404 H 0.63974 0.71923 0.10981 0.0
H2405 H 0.6167 0.71864 0.13416 0.0
C2406 C 0.27293 0.61496 0.1512 0.0
C2407 C 0.30035 0.61349 0.14956 0.0
C2408 C 0.29915 0.64821 0.11726 0.0
C2409 C 0.27171 0.6467 0.11597 0.0
N2410 N 0.23269 0.62599 0.13004 0.0
N2411 N 0.33936 0.62716 0.12852 0.0
C2412 C 0.25864 0.62952 0.13268 0.0
C2413 C 0.31343 0.62989 0.13208 0.0
N2414 N 0.2605 0.60296 0.17099 0.0
N2415 N 0.31161 0.66768 0.10481 0.0
H2416 H 0.35043 0.61398 0.13874 0.0
H2417 H 0.34952 0.63642 0.11395 0.0
H2418 H 0.30188 0.68179 0.09443 0.0
H2419 H 0.33121 0.67141 0.10698 0.0
H2420 H 0.24093 0.60532 0.17476 0.0
H2421 H 0.27024 0.59284 0.1853 0.0
H2422 H 0.22251 0.61163 0.13958 0.0
H2423 H 0.22165 0.63597 0.11665 0.0
C2424 C 0.44229 0.25821 0.12985 0.0
C2425 C 0.42388 0.27078 0.11409 0.0
C2426 C 0.44036 0.31269 0.12958 0.0
C2427 C 0.45781 0.30008 0.14637 0.0
N2428 N 0.47041 0.26067 0.16706 0.0
N2429 N 0.40126 0.30993 0.10405 0.0
C2430 C 0.45722 0.27277 0.14787 0.0
C2431 C 0.42168 0.29802 0.11557 0.0
N2432 N 0.44662 0.23256 0.12674 0.0
N2433 N 0.44245 0.33854 0.12587 0.0
H2434 H 0.38688 0.29988 0.09428 0.0
H2435 H 0.39715 0.32933 0.10646 0.0
H2436 H 0.45613 0.34976 0.1353 0.0
H2437 H 0.43222 0.34844 0.1118 0.0
H2438 H 0.46175 0.22286 0.1356 0.0
H2439 H 0.43651 0.22139 0.11353 0.0
H2440 H 0.46883 0.24109 0.17076 0.0
H2441 H 0.48072 0.27068 0.18103 0.0
C2442 C 0.31608 0.439 0.94238 0.0
C2443 C 0.30312 0.45673 0.92619 0.0
C2444 C 0.26139 0.44163 0.94393 0.0
C2445 C 0.27427 0.42293 0.95903 0.0
N2446 N 0.31361 0.39977 0.96745 0.0
N2447 N 0.26295 0.46991 0.90701 0.0
C2448 C 0.30156 0.42043 0.95666 0.0
C2449 C 0.27561 0.45651 0.92566 0.0
N2450 N 0.34219 0.44064 0.94523 0.0
N2451 N 0.23576 0.44618 0.94782 0.0
H2452 H 0.27267 0.48016 0.89285 0.0
H2453 H 0.24317 0.46856 0.90388 0.0
H2454 H 0.2247 0.43597 0.96105 0.0
H2455 H 0.22599 0.46156 0.93957 0.0
H2456 H 0.35245 0.43018 0.95887 0.0
H2457 H 0.35336 0.45417 0.93556 0.0
H2458 H 0.33296 0.39547 0.96433 0.0
H2459 H 0.30366 0.38541 0.97729 0.0
C2460 C 0.63232 0.25659 0.93839 0.0
C2461 C 0.64956 0.26918 0.9554 0.0
C2462 C 0.6327 0.31111 0.94057 0.0
C2463 C 0.6162 0.29854 0.92282 0.0
N2464 N 0.60562 0.25958 0.90023 0.0
N2465 N 0.67077 0.30849 0.96756 0.0
C2466 C 0.61766 0.27133 0.92038 0.0
C2467 C 0.65112 0.29649 0.95488 0.0
N2468 N 0.62895 0.23066 0.9402 0.0
N2469 N 0.63003 0.33684 0.94473 0.0
H2470 H 0.68507 0.29833 0.97725 0.0
H2471 H 0.67448 0.32807 0.96612 0.0
H2472 H 0.61676 0.34807 0.93477 0.0
H2473 H 0.63942 0.34662 0.95947 0.0
H2474 H 0.61456 0.22075 0.93038 0.0
H2475 H 0.63919 0.21932 0.95315 0.0
H2476 H 0.60778 0.2402 0.89589 0.0
H2477 H 0.59578 0.26992 0.8862 0.0
C2478 C 0.45527 0.79537 0.92171 0.0
C2479 C 0.45591 0.76807 0.92314 0.0
C2480 C 0.42064 0.76991 0.95489 0.0
C2481 C 0.42293 0.79715 0.95641 0.0
N2482 N 0.44488 0.83559 0.94288 0.0
N2483 N 0.44071 0.72939 0.94337 0.0
C2484 C 0.44075 0.80985 0.94006 0.0
C2485 C 0.43881 0.75532 0.94019 0.0
N2486 N 0.46808 0.8075 0.90226 0.0
N2487 N 0.40056 0.75796 0.96698 0.0
H2488 H 0.45373 0.71817 0.93307 0.0
H2489 H 0.4309 0.71933 0.95762 0.0
H2490 H 0.38652 0.76796 0.97725 0.0
H2491 H 0.39631 0.73857 0.96462 0.0
H2492 H 0.46648 0.82707 0.89858 0.0
H2493 H 0.4781 0.79749 0.88809 0.0
H2494 H 0.4597 0.84541 0.93363 0.0
H2495 H 0.43489 0.8468 0.95613 0.0
C2496 C 0.10994 0.12551 0.3758 0.0
C2497 C 0.12972 0.13602 0.35995 0.0
C2498 C 0.10284 0.17441 0.35323 0.0
C2499 C 0.08472 0.1653 0.37155 0.0
N2500 N 0.0724 0.13335 0.40258 0.0
N2501 N 0.14674 0.1728 0.33748 0.0
C2502 C 0.08866 0.14115 0.38346 0.0
C2503 C 0.12658 0.1611 0.34967 0.0
N2504 N 0.11082 0.10026 0.38269 0.0
N2505 N 0.09715 0.19558 0.33883 0.0
H2506 H 0.16472 0.16417 0.33526 0.0
H2507 H 0.14651 0.192 0.33196 0.0
H2508 H 0.07989 0.20566 0.34071 0.0
H2509 H 0.10836 0.20164 0.32337 0.0
H2510 H 0.09565 0.09076 0.3917 0.0
H2511 H 0.12583 0.08816 0.37744 0.0
H2512 H 0.07594 0.11745 0.41417 0.0
H2513 H 0.05622 0.14385 0.40812 0.0
C2514 C 0.90727 0.12737 0.34986 0.0
C2515 C 0.93199 0.1311 0.36106 0.0
C2516 C 0.92639 0.09059 0.38513 0.0
C2517 C 0.9027 0.08602 0.37228 0.0
N2518 N 0.87413 0.09699 0.33751 0.0
N2519 N 0.96736 0.113 0.38519 0.0
C2520 C 0.89427 0.10349 0.35311 0.0
C2521 C 0.9422 0.1118 0.37759 0.0
N2522 N 0.89559 0.14703 0.33701 0.0
N2523 N 0.93361 0.07499 0.40495 0.0
H2524 H 0.97965 0.12784 0.37984 0.0
H2525 H 0.97665 0.09817 0.39486 0.0
H2526 H 0.92294 0.05895 0.41052 0.0
H2527 H 0.9491 0.07902 0.41703 0.0
H2528 H 0.87654 0.14624 0.33071 0.0
H2529 H 0.90391 0.16514 0.33503 0.0
H2530 H 0.86862 0.10781 0.32161 0.0
H2531 H 0.86475 0.07937 0.3389 0.0
C2532 C 0.9821 0.92839 0.38429 0.0
C2533 C 0.98576 0.90396 0.37284 0.0
C2534 C 0.94373 0.90795 0.35126 0.0
C2535 C 0.94088 0.93326 0.36107 0.0
N2536 N 0.96013 0.96936 0.38295 0.0
N2537 N 0.97276 0.87293 0.34104 0.0
C2538 C 0.96084 0.94397 0.37654 0.0
C2539 C 0.96738 0.89451 0.35496 0.0
N2540 N 0.99862 0.9365 0.40308 0.0
N2541 N 0.9234 0.89622 0.33936 0.0
H2542 H 0.98994 0.86274 0.34304 0.0
H2543 H 0.96137 0.86656 0.32583 0.0
H2544 H 0.90553 0.90503 0.33695 0.0
H2545 H 0.9234 0.87691 0.33421 0.0
H2546 H 0.9953 0.95267 0.41436 0.0
H2547 H 1.01479 0.92602 0.4087 0.0
H2548 H 0.97542 0.97898 0.39165 0.0
H2549 H 0.94511 0.98141 0.37762 0.0
C2550 C 0.14163 0.97921 0.38356 0.0
C2551 C 0.16532 0.984 0.37084 0.0
C2552 C 0.16141 0.94265 0.34837 0.0
C2553 C 0.13678 0.93855 0.35961 0.0
N2554 N 0.10107 0.95616 0.38362 0.0
N2555 N 0.19422 0.97346 0.33624 0.0
C2556 C 0.1262 0.95776 0.37604 0.0
C2557 C 0.17407 0.96669 0.35169 0.0
N2558 N 0.1341 0.99483 0.40326 0.0
N2559 N 0.17338 0.92316 0.33547 0.0
H2560 H 0.20334 0.99122 0.33772 0.0
H2561 H 0.2 0.96274 0.32036 0.0
H2562 H 0.16531 0.90495 0.33342 0.0
H2563 H 0.1924 0.92423 0.32917 0.0
H2564 H 0.11864 0.99064 0.41532 0.0
H2565 H 0.14443 1.01113 0.40871 0.0
H2566 H 0.09149 0.97088 0.3932 0.0
H2567 H 0.08905 0.94107 0.37838 0.0
C2568 C 0.1109 0.94441 0.69568 0.0
C2569 C 0.13198 0.93287 0.7089 0.0
C2570 C 0.10614 0.89349 0.71409 0.0
C2571 C 0.0863 0.90404 0.69854 0.0
N2572 N 0.07108 0.93847 0.67176 0.0
N2573 N 0.15124 0.89449 0.72621 0.0
C2574 C 0.08906 0.92922 0.68857 0.0
C2575 C 0.12999 0.90686 0.71689 0.0
N2576 N 0.11118 0.97015 0.69085 0.0
N2577 N 0.10194 0.87098 0.7269 0.0
H2578 H 0.16922 0.9033 0.72786 0.0
H2579 H 0.15172 0.87484 0.7298 0.0
H2580 H 0.08463 0.86086 0.72574 0.0
H2581 H 0.11459 0.86367 0.7406 0.0
H2582 H 0.09528 0.98024 0.68401 0.0
H2583 H 0.12665 0.98187 0.69566 0.0
H2584 H 0.07345 0.95541 0.66141 0.0
H2585 H 0.05455 0.92824 0.6667 0.0
C2586 C 0.14407 0.08973 0.68877 0.0
C2587 C 0.16848 0.08537 0.70025 0.0
C2588 C 0.16502 0.12675 0.72286 0.0
C2589 C 0.13982 0.13041 0.7128 0.0
N2590 N 0.1032 0.1122 0.69068 0.0
N2591 N 0.19889 0.09653 0.73338 0.0
C2592 C 0.12872 0.11098 0.69699 0.0
C2593 C 0.17791 0.10292 0.71891 0.0
N2594 N 0.13574 0.0739 0.66954 0.0
N2595 N 0.17722 0.14642 0.73527 0.0
H2596 H 0.20819 0.07893 0.7315 0.0
H2597 H 0.20528 0.10738 0.74895 0.0
H2598 H 0.16887 0.16441 0.7379 0.0
H2599 H 0.19655 0.14573 0.74064 0.0
H2600 H 0.11957 0.07775 0.65833 0.0
H2601 H 0.14606 0.0578 0.66356 0.0
H2602 H 0.09334 0.09732 0.68161 0.0
H2603 H 0.09127 0.12717 0.69649 0.0
C2604 C 0.96925 0.17595 0.71217 0.0
C2605 C 0.98917 0.16422 0.69757 0.0
C2606 C 0.96472 0.12369 0.69797 0.0
C2607 C 0.94347 0.13628 0.70987 0.0
N2608 N 0.92412 0.17582 0.72421 0.0
N2609 N 1.00468 0.12767 0.67393 0.0
C2610 C 0.9454 0.16282 0.71587 0.0
C2611 C 0.98656 0.13828 0.68974 0.0
N2612 N 0.97341 0.19934 0.7233 0.0
N2613 N 0.96459 0.09762 0.69549 0.0
H2614 H 0.02121 0.13749 0.66811 0.0
H2615 H 1.00242 0.10989 0.66508 0.0
H2616 H 0.94913 0.08632 0.70129 0.0
H2617 H 0.98057 0.08703 0.6897 0.0
H2618 H 0.96069 0.20767 0.73633 0.0
H2619 H 0.99076 0.20931 0.72156 0.0
H2620 H 0.92359 0.19569 0.72625 0.0
H2621 H 0.90619 0.1671 0.72667 0.0
C2622 C 0.9097 0.94368 0.72198 0.0
C2623 C 0.93537 0.94023 0.71303 0.0
C2624 C 0.93242 0.98167 0.69016 0.0
C2625 C 0.90751 0.98577 0.7006 0.0
N2626 N 0.87488 0.97338 0.73111 0.0
N2627 N 0.97294 0.95871 0.69285 0.0
C2628 C 0.89695 0.96759 0.718 0.0
C2629 C 0.94723 0.96002 0.69828 0.0
N2630 N 0.89696 0.92366 0.73323 0.0
N2631 N 0.94175 0.99815 0.67198 0.0
H2632 H 0.98446 0.9434 0.69849 0.0
H2633 H 0.98333 0.97376 0.68471 0.0
H2634 H 0.93188 0.01461 0.66622 0.0
H2635 H 0.95836 0.9946 0.66133 0.0
H2636 H 0.87739 0.92413 0.73766 0.0
H2637 H 0.90522 0.90562 0.73582 0.0
H2638 H 0.86766 0.96211 0.74599 0.0
H2639 H 0.86513 0.99072 0.72883 0.0
C2640 C 0.35065 0.12419 0.16107 0.0
C2641 C 0.3629 0.12863 0.13704 0.0
C2642 C 0.3882 0.08897 0.1432 0.0
C2643 C 0.37444 0.0837 0.16615 0.0
N2644 N 0.33799 0.093 0.19321 0.0
N2645 N 0.38944 0.11196 0.10274 0.0
C2646 C 0.35422 0.10031 0.17389 0.0
C2647 C 0.38064 0.1101 0.1274 0.0
N2648 N 0.33647 0.14321 0.17231 0.0
N2649 N 0.40888 0.07412 0.13672 0.0
H2650 H 0.38427 0.12686 0.09051 0.0
H2651 H 0.40006 0.09761 0.09371 0.0
H2652 H 0.41444 0.05808 0.14735 0.0
H2653 H 0.42156 0.07874 0.12191 0.0
H2654 H 0.32929 0.14196 0.19097 0.0
H2655 H 0.33417 0.16131 0.16412 0.0
H2656 H 0.32143 0.10315 0.19815 0.0
H2657 H 0.33962 0.07532 0.2024 0.0
C2658 C 0.94391 0.35433 0.16458 0.0
C2659 C 0.94222 0.36027 0.13797 0.0
C2660 C 0.9858 0.37935 0.14007 0.0
C2661 C 0.98809 0.37162 0.16611 0.0
N2662 N 0.9716 0.34639 0.20128 0.0
N2663 N 0.96388 0.37391 0.09927 0.0
C2664 C 0.96779 0.35751 0.1778 0.0
C2665 C 0.96382 0.37157 0.1254 0.0
N2666 N 0.92238 0.34656 0.17757 0.0
N2667 N 1.00433 0.39469 0.12947 0.0
H2668 H 0.94835 0.36839 0.08792 0.0
H2669 H 0.98006 0.37927 0.0887 0.0
H2670 H 0.02095 0.40017 0.13934 0.0
H2671 H 1.00235 0.40349 0.11161 0.0
H2672 H 0.92174 0.34459 0.19748 0.0
H2673 H 0.90442 0.34451 0.16879 0.0
H2674 H 0.95854 0.33371 0.20963 0.0
H2675 H 0.98897 0.34776 0.21129 0.0
C2676 C 0.68371 0.93817 0.15196 0.0
C2677 C 0.70766 0.93622 0.13885 0.0
C2678 C 0.72017 0.97778 0.15755 0.0
C2679 C 0.69478 0.98151 0.16713 0.0
N2680 N 0.65066 0.96679 0.16791 0.0
N2681 N 0.74605 0.95818 0.12429 0.0
C2682 C 0.67596 0.96224 0.16241 0.0
C2683 C 0.7251 0.95726 0.14013 0.0
N2684 N 0.66913 0.9168 0.15625 0.0
N2685 N 0.74006 0.99264 0.16617 0.0
H2686 H 0.74964 0.94438 0.11024 0.0
H2687 H 0.75806 0.97419 0.12316 0.0
H2688 H 0.73785 1.0065 0.18043 0.0
H2689 H 0.75921 0.98905 0.16133 0.0
H2690 H 0.65257 0.91699 0.1676 0.0
H2691 H 0.67529 0.89844 0.15122 0.0
H2692 H 0.63599 0.95406 0.16287 0.0
H2693 H 0.64417 0.98431 0.17512 0.0
C2694 C 0.10373 0.71627 0.17513 0.0
C2695 C 0.08522 0.69863 0.1655 0.0
C2696 C 0.11002 0.69542 0.12527 0.0
C2697 C 0.13024 0.71029 0.1363 0.0
N2698 N 0.14788 0.7314 0.17366 0.0
N2699 N 0.07184 0.66933 0.1323 0.0
C2700 C 0.12745 0.71986 0.16174 0.0
C2701 C 0.08865 0.68767 0.14077 0.0
N2702 N 0.09844 0.73 0.19687 0.0
N2703 N 0.11065 0.68954 0.0997 0.0
H2704 H 0.05559 0.66377 0.14272 0.0
H2705 H 0.07495 0.65838 0.11585 0.0
H2706 H 0.12576 0.69495 0.08772 0.0
H2707 H 0.09524 0.68125 0.08991 0.0
H2708 H 0.10998 0.745 0.20342 0.0
H2709 H 0.08119 0.72811 0.20699 0.0
H2710 H 0.1479 0.7363 0.19307 0.0
H2711 H 0.16578 0.7338 0.16487 0.0
C2712 C 0.3578 0.94079 0.90716 0.0
C2713 C 0.3646 0.93905 0.93355 0.0
C2714 C 0.38576 0.98141 0.93033 0.0
C2715 C 0.37688 0.98401 0.90464 0.0
N2716 N 0.34878 0.96864 0.87106 0.0
N2717 N 0.38067 0.96025 0.97156 0.0
C2718 C 0.36125 0.96439 0.89378 0.0
C2719 C 0.37743 0.96007 0.94551 0.0
N2720 N 0.34884 0.9196 0.89451 0.0
N2721 N 0.40261 0.99904 0.94012 0.0
H2722 H 0.37467 0.94521 0.98329 0.0
H2723 H 0.38728 0.97615 0.98173 0.0
H2724 H 0.40871 0.01509 0.9298 0.0
H2725 H 0.41202 0.99673 0.95765 0.0
H2726 H 0.34611 0.91904 0.87468 0.0
H2727 H 0.34668 0.90178 0.90336 0.0
H2728 H 0.3351 0.9561 0.86348 0.0
H2729 H 0.35005 0.98597 0.86119 0.0
C2730 C 0.08941 0.38143 0.9295 0.0
C2731 C 0.08676 0.37035 0.90473 0.0
C2732 C 0.12947 0.35028 0.90955 0.0
C2733 C 0.13134 0.35981 0.93509 0.0
N2734 N 0.10986 0.37917 0.9713 0.0
N2735 N 0.10153 0.33924 0.87379 0.0
C2736 C 0.1104 0.37397 0.9456 0.0
C2737 C 0.10598 0.35323 0.89556 0.0
N2738 N 0.07215 0.39953 0.93753 0.0
N2739 N 0.15045 0.33919 0.89822 0.0
H2740 H 0.08443 0.34053 0.86333 0.0
H2741 H 0.11365 0.32458 0.86755 0.0
H2742 H 0.16809 0.33709 0.90758 0.0
H2743 H 0.1511 0.33433 0.87881 0.0
H2744 H 0.07471 0.41044 0.95411 0.0
H2745 H 0.05624 0.40504 0.92659 0.0
H2746 H 0.09401 0.38716 0.9806 0.0
H2747 H 0.12422 0.37298 0.98378 0.0
C2748 C 0.72187 0.10304 0.89579 0.0
C2749 C 0.70415 0.0849 0.90593 0.0
C2750 C 0.7016 0.11028 0.94577 0.0
C2751 C 0.71643 0.13018 0.93418 0.0
N2752 N 0.73727 0.14693 0.89627 0.0
N2753 N 0.67513 0.07228 0.93973 0.0
C2754 C 0.72574 0.12688 0.9087 0.0
C2755 C 0.69351 0.08878 0.93074 0.0
N2756 N 0.73541 0.09728 0.87402 0.0
N2757 N 0.69604 0.11138 0.9714 0.0
H2758 H 0.66934 0.05595 0.92966 0.0
H2759 H 0.66437 0.07572 0.95627 0.0
H2760 H 0.70164 0.12662 0.98305 0.0
H2761 H 0.68782 0.09623 0.98156 0.0
H2762 H 0.75046 0.10857 0.86711 0.0
H2763 H 0.73334 0.07991 0.86427 0.0
H2764 H 0.74196 0.14655 0.87681 0.0
H2765 H 0.73988 0.1649 0.90469 0.0
C2766 C 0.96542 0.69355 0.94607 0.0
C2767 C 0.9441 0.70602 0.9342 0.0
C2768 C 0.96927 0.70946 0.89417 0.0
C2769 C 0.98929 0.69444 0.90515 0.0
N2770 N 1.00515 0.66947 0.94068 0.0
N2771 N 0.92423 0.72176 0.8954 0.0
C2772 C 0.98699 0.68573 0.93088 0.0
C2773 C 0.94565 0.71285 0.9078 0.0
N2774 N 0.96565 0.69015 0.97208 0.0
N2775 N 0.97313 0.72127 0.87104 0.0
H2776 H 0.90647 0.72404 0.9045 0.0
H2777 H 0.92338 0.72447 0.87558 0.0
H2778 H 0.99031 0.71976 0.86075 0.0
H2779 H 0.96035 0.73459 0.86329 0.0
H2780 H 0.98173 0.68388 0.98227 0.0
H2781 H 0.95041 0.69566 0.9838 0.0
H2782 H 1.00308 0.66003 0.9582 0.0
H2783 H 0.02149 0.6639 0.93042 0.0
C2784 C 0.16791 0.39208 0.10908 0.0
C2785 C 0.17149 0.37376 0.08915 0.0
C2786 C 0.14332 0.34401 0.11287 0.0
C2787 C 0.14283 0.36092 0.13435 0.0
N2788 N 0.16141 0.3983 0.15468 0.0
N2789 N 0.16804 0.3293 0.07634 0.0
C2790 C 0.15697 0.38426 0.13296 0.0
C2791 C 0.16066 0.34886 0.09215 0.0
N2792 N 0.17473 0.41709 0.10522 0.0
N2793 N 0.12682 0.32363 0.11178 0.0
H2794 H 0.18206 0.33142 0.06216 0.0
H2795 H 0.16243 0.31032 0.07931 0.0
H2796 H 0.11306 0.31997 0.12592 0.0
H2797 H 0.12493 0.31212 0.09549 0.0
H2798 H 0.17043 0.4316 0.11833 0.0
H2799 H 0.18223 0.42371 0.08784 0.0
H2800 H 0.17359 0.41421 0.15502 0.0
H2801 H 0.15537 0.39239 0.17285 0.0
C2802 C 0.12878 0.69307 0.96014 0.0
C2803 C 0.14089 0.70588 0.93917 0.0
C2804 C 0.18073 0.70897 0.96476 0.0
C2805 C 0.16963 0.69359 0.98445 0.0
N2806 N 0.13389 0.66812 0.99928 0.0
N2807 N 0.1801 0.7216 0.91994 0.0
C2808 C 0.14385 0.68482 0.98166 0.0
C2809 C 0.16736 0.71256 0.94107 0.0
N2810 N 0.10268 0.68977 0.96012 0.0
N2811 N 0.20365 0.72111 0.96906 0.0
H2812 H 0.17123 0.724 0.90211 0.0
H2813 H 0.2 0.72424 0.9194 0.0
H2814 H 0.21354 0.71961 0.9864 0.0
H2815 H 0.21144 0.73467 0.95657 0.0
H2816 H 0.09236 0.68324 0.97599 0.0
H2817 H 0.09102 0.69558 0.94493 0.0
H2818 H 0.11632 0.65875 0.99685 0.0
H2819 H 0.14412 0.66205 0.01543 0.0
C2820 C 0.3882 0.14254 0.981 0.0
C2821 C 0.37536 0.16615 0.98551 0.0
C2822 C 0.35224 0.16116 0.9445 0.0
C2823 C 0.36344 0.13655 0.94087 0.0
N2824 N 0.38795 0.10155 0.95893 0.0
N2825 N 0.34033 0.19446 0.97473 0.0
C2826 C 0.38032 0.1266 0.96004 0.0
C2827 C 0.35588 0.17437 0.96821 0.0
N2828 N 0.40827 0.13553 0.99645 0.0
N2829 N 0.33899 0.17254 0.92487 0.0
H2830 H 0.34199 0.20401 0.99225 0.0
H2831 H 0.32422 0.19982 0.96408 0.0
H2832 H 0.33667 0.16402 0.90688 0.0
H2833 H 0.33267 0.19149 0.92554 0.0
H2834 H 0.42032 0.12007 0.99244 0.0
H2835 H 0.41408 0.14632 1.01233 0.0
H2836 H 0.39792 0.09245 0.97371 0.0
H2837 H 0.38232 0.08916 0.94428 0.0
C2838 C 0.90905 0.34967 0.94466 0.0
C2839 C 0.93477 0.35863 0.9417 0.0
C2840 C 0.9312 0.38099 0.98343 0.0
C2841 C 0.90625 0.37046 0.98708 0.0
N2842 N 0.87384 0.34009 0.97382 0.0
N2843 N 0.97204 0.37868 0.96095 0.0
C2844 C 0.89595 0.35332 0.96849 0.0
C2845 C 0.94633 0.37318 0.96185 0.0
N2846 N 0.89659 0.33869 0.92427 0.0
N2847 N 0.94025 0.399 1.00027 0.0
H2848 H 0.98375 0.37331 0.94567 0.0
H2849 H 0.9822 0.38664 0.97627 0.0
H2850 H 0.93013 0.40457 0.01667 0.0
H2851 H 0.95689 0.40971 0.99706 0.0
H2852 H 0.87702 0.33427 0.92441 0.0
H2853 H 0.90513 0.33637 0.90628 0.0
H2854 H 0.86678 0.32539 0.96221 0.0
H2855 H 0.86389 0.34205 0.99113 0.0
C2856 C 0.6902 0.92806 0.98107 0.0
C2857 C 0.70174 0.90367 0.98468 0.0
C2858 C 0.72316 0.90772 0.94269 0.0
C2859 C 0.71321 0.93294 0.93978 0.0
N2860 N 0.69158 0.9691 0.95918 0.0
N2861 N 0.73438 0.8734 0.97201 0.0
C2862 C 0.6979 0.94369 0.95982 0.0
C2863 C 0.71986 0.8945 0.96642 0.0
N2864 N 0.6714 0.9361 0.99759 0.0
N2865 N 0.73479 0.89579 0.92237 0.0
H2866 H 0.7329 0.86375 0.98948 0.0
H2867 H 0.74963 0.86719 0.96059 0.0
H2868 H 0.73676 0.90433 0.90436 0.0
H2869 H 0.74003 0.8765 0.92258 0.0
H2870 H 0.66009 0.95227 0.99432 0.0
H2871 H 0.66585 0.92557 1.01371 0.0
H2872 H 0.68292 0.97867 0.97448 0.0
H2873 H 0.697 0.98121 0.94424 0.0
C2874 C 0.90859 0.71801 0.1284 0.0
C2875 C 0.93359 0.70756 0.13229 0.0
C2876 C 0.92907 0.68359 0.09151 0.0
C2877 C 0.90505 0.6957 0.08681 0.0
N2878 N 0.87535 0.72943 0.09777 0.0
N2879 N 0.96979 0.68461 0.11433 0.0
C2880 C 0.89589 0.71447 0.10436 0.0
C2881 C 0.94445 0.69147 0.11295 0.0
N2882 N 0.89637 0.7304 0.14807 0.0
N2883 N 0.93702 0.66414 0.0758 0.0
H2884 H 0.98179 0.6902 0.12934 0.0
H2885 H 0.97951 0.67533 0.09949 0.0
H2886 H 0.92668 0.65838 0.05959 0.0
H2887 H 0.95282 0.65252 0.07989 0.0
H2888 H 0.87715 0.73612 0.14715 0.0
H2889 H 0.90447 0.73257 0.16628 0.0
H2890 H 0.86926 0.74508 0.10864 0.0
H2891 H 0.86617 0.72784 0.08003 0.0
C2892 C 0.38698 0.91247 0.13109 0.0
C2893 C 0.36991 0.93366 0.12934 0.0
C2894 C 0.37303 0.93072 0.0821 0.0
C2895 C 0.38439 0.90609 0.08438 0.0
N2896 N 0.41998 0.88899 0.10852 0.0
N2897 N 0.34835 0.96467 0.10231 0.0
C2898 C 0.39681 0.90127 0.1082 0.0
C2899 C 0.36341 0.94334 0.10456 0.0
N2900 N 0.39318 0.90223 0.15442 0.0
N2901 N 0.37584 0.94398 0.05972 0.0
H2902 H 0.34237 0.97547 0.11809 0.0
H2903 H 0.34083 0.97076 0.08476 0.0
H2904 H 0.38744 0.93701 0.0449 0.0
H2905 H 0.37008 0.96299 0.05741 0.0
H2906 H 0.40375 0.88531 0.15621 0.0
H2907 H 0.38593 0.90931 0.17171 0.0
H2908 H 0.43101 0.88694 0.12515 0.0
H2909 H 0.42946 0.884 0.09154 0.0
C2910 C 0.6915 0.13847 0.08456 0.0
C2911 C 0.69837 0.16482 0.08352 0.0
C2912 C 0.71493 0.162 0.12784 0.0
C2913 C 0.7099 0.13522 0.12818 0.0
N2914 N 0.69872 0.09705 0.10451 0.0
N2915 N 0.72235 0.19997 0.10195 0.0
C2916 C 0.69961 0.12319 0.10587 0.0
C2917 C 0.71172 0.17611 0.10455 0.0
N2918 N 0.67677 0.12809 0.06541 0.0
N2919 N 0.72214 0.17418 0.14997 0.0
H2920 H 0.7212 0.21056 0.08498 0.0
H2921 H 0.7345 0.20815 0.11563 0.0
H2922 H 0.72459 0.16458 0.16739 0.0
H2923 H 0.72339 0.19406 0.1516 0.0
H2924 H 0.66871 0.10982 0.06645 0.0
H2925 H 0.67091 0.1385 0.04932 0.0
H2926 H 0.69387 0.08703 0.08788 0.0
H2927 H 0.70539 0.08533 0.11928 0.0
C2928 C 0.58636 0.63804 0.88169 0.0
C2929 C 0.5844 0.66407 0.87395 0.0
C2930 C 0.62847 0.66197 0.85646 0.0
C2931 C 0.6297 0.63536 0.86227 0.0
N2932 N 0.60765 0.59702 0.8761 0.0
N2933 N 0.60139 0.69912 0.8489 0.0
C2934 C 0.60804 0.62311 0.87376 0.0
C2935 C 0.60485 0.67554 0.85987 0.0
N2936 N 0.56774 0.62769 0.89711 0.0
N2937 N 0.65015 0.67457 0.84851 0.0
H2938 H 0.58424 0.70942 0.85044 0.0
H2939 H 0.61453 0.70732 0.83619 0.0
H2940 H 0.66789 0.66547 0.8462 0.0
H2941 H 0.65118 0.69443 0.84662 0.0
H2942 H 0.56947 0.60981 0.90587 0.0
H2943 H 0.55133 0.63778 0.90273 0.0
H2944 H 0.59139 0.58668 0.88162 0.0
H2945 H 0.62296 0.58548 0.87043 0.0
C2946 C 0.39687 0.6014 0.8532 0.0
C2947 C 0.40789 0.58314 0.87021 0.0
C2948 C 0.44772 0.60885 0.87145 0.0
C2949 C 0.4354 0.62879 0.85731 0.0
N2950 N 0.39651 0.64541 0.83815 0.0
N2951 N 0.44303 0.57053 0.89761 0.0
C2952 C 0.40952 0.62536 0.84901 0.0
C2953 C 0.43315 0.58714 0.87986 0.0
N2954 N 0.37449 0.59563 0.84059 0.0
N2955 N 0.47361 0.61012 0.87602 0.0
H2956 H 0.43331 0.55404 0.90358 0.0
H2957 H 0.46 0.57399 0.90773 0.0
H2958 H 0.48493 0.62553 0.87019 0.0
H2959 H 0.48423 0.59499 0.88365 0.0
H2960 H 0.36685 0.607 0.826 0.0
H2961 H 0.36488 0.5782 0.84291 0.0
H2962 H 0.37682 0.64495 0.83426 0.0
H2963 H 0.40478 0.66342 0.83529 0.0
C2964 C 0.46313 0.44334 0.87379 0.0
C2965 C 0.44257 0.4318 0.85976 0.0
C2966 C 0.4691 0.39297 0.85436 0.0
C2967 C 0.48801 0.40319 0.87126 0.0
N2968 N 0.5019 0.43726 0.89928 0.0
N2969 N 0.42458 0.39375 0.84033 0.0
C2970 C 0.48472 0.42818 0.88156 0.0
C2971 C 0.44524 0.40611 0.85095 0.0
N2972 N 0.46263 0.46905 0.87882 0.0
N2973 N 0.47416 0.3709 0.84111 0.0
H2974 H 0.40657 0.40235 0.83815 0.0
H2975 H 0.42453 0.37423 0.83605 0.0
H2976 H 0.49151 0.36095 0.84284 0.0
H2977 H 0.46228 0.36388 0.82658 0.0
H2978 H 0.47823 0.4791 0.88639 0.0
H2979 H 0.44738 0.4808 0.87339 0.0
H2980 H 0.49895 0.45401 0.9098 0.0
H2981 H 0.51828 0.42709 0.90482 0.0
C2982 C 0.66605 0.44031 0.85624 0.0
C2983 C 0.63958 0.43833 0.86288 0.0
C2984 C 0.64255 0.48049 0.88451 0.0
C2985 C 0.66832 0.48336 0.8758 0.0
N2986 N 0.70241 0.46832 0.8482 0.0
N2987 N 0.6014 0.45895 0.87941 0.0
C2988 C 0.67944 0.46389 0.86019 0.0
C2989 C 0.62749 0.45909 0.876 0.0
N2990 N 0.67878 0.41933 0.84692 0.0
N2991 N 0.63258 0.49792 0.90141 0.0
H2992 H 0.58977 0.44378 0.87352 0.0
H2993 H 0.59106 0.47469 0.88615 0.0
H2994 H 0.6428 0.51401 0.90764 0.0
H2995 H 0.61503 0.49541 0.91077 0.0
H2996 H 0.69867 0.41881 0.8443 0.0
H2997 H 0.66988 0.40157 0.84425 0.0
H2998 H 0.71024 0.45602 0.83448 0.0
H2999 H 0.71234 0.48558 0.85001 0.0
C3000 C 0.60411 0.39605 0.21376 0.0
C3001 C 0.58455 0.40668 0.19788 0.0
C3002 C 0.60828 0.44759 0.19732 0.0
C3003 C 0.6295 0.43583 0.21001 0.0
N3004 N 0.64885 0.39747 0.22722 0.0
N3005 N 0.56923 0.44193 0.17219 0.0
C3006 C 0.62771 0.40966 0.21744 0.0
C3007 C 0.58699 0.4323 0.189 0.0
N3008 N 0.59987 0.37321 0.22594 0.0
N3009 N 0.60782 0.4736 0.19436 0.0
H3010 H 0.55307 0.4316 0.16625 0.0
H3011 H 0.57152 0.45939 0.16273 0.0
H3012 H 0.62241 0.4854 0.20134 0.0
H3013 H 0.59188 0.48362 0.18752 0.0
H3014 H 0.61228 0.36572 0.23976 0.0
H3015 H 0.58269 0.36297 0.22415 0.0
H3016 H 0.64955 0.37775 0.2304 0.0
H3017 H 0.66652 0.40662 0.22994 0.0
C3018 C 0.66805 0.60796 0.17775 0.0
C3019 C 0.67132 0.58815 0.19623 0.0
C3020 C 0.64298 0.61206 0.22562 0.0
C3021 C 0.6428 0.63341 0.2086 0.0
N3022 N 0.66193 0.65348 0.17133 0.0
N3023 N 0.66734 0.57557 0.24079 0.0
C3024 C 0.65716 0.63187 0.18538 0.0
C3025 C 0.66026 0.5913 0.22104 0.0
N3026 N 0.67511 0.60396 0.15279 0.0
N3027 N 0.62622 0.61112 0.24582 0.0
H3028 H 0.68129 0.56133 0.23888 0.0
H3029 H 0.66154 0.57865 0.25972 0.0
H3030 H 0.61247 0.62529 0.24925 0.0
H3031 H 0.62412 0.59491 0.25738 0.0
H3032 H 0.67105 0.617 0.13816 0.0
H3033 H 0.6826 0.58655 0.14631 0.0
H3034 H 0.67425 0.65368 0.15551 0.0
H3035 H 0.65606 0.67168 0.17721 0.0
C3036 C 0.48602 0.63859 0.1897 0.0
C3037 C 0.48812 0.66453 0.19772 0.0
C3038 C 0.44433 0.66215 0.21589 0.0
C3039 C 0.44294 0.63562 0.20972 0.0
N3040 N 0.46488 0.59749 0.19522 0.0
N3041 N 0.47163 0.69915 0.22366 0.0
C3042 C 0.46446 0.62354 0.1978 0.0
C3043 C 0.46794 0.67576 0.21235 0.0
N3044 N 0.50433 0.62846 0.17379 0.0
N3045 N 0.42279 0.67467 0.22428 0.0
H3046 H 0.48882 0.70942 0.22206 0.0
H3047 H 0.4587 0.70716 0.23669 0.0
H3048 H 0.40504 0.66558 0.22665 0.0
H3049 H 0.42186 0.69451 0.22647 0.0
H3050 H 0.5024 0.6107 0.16481 0.0
H3051 H 0.52065 0.63864 0.16801 0.0
H3052 H 0.48106 0.58725 0.18935 0.0
H3053 H 0.4497 0.58587 0.2011 0.0
C3054 C 0.4079 0.44221 0.22128 0.0
C3055 C 0.433 0.43886 0.21089 0.0
C3056 C 0.42792 0.4796 0.18713 0.0
C3057 C 0.40373 0.48376 0.19914 0.0
N3058 N 0.37402 0.47207 0.2327 0.0
N3059 N 0.46904 0.45757 0.18825 0.0
C3060 C 0.39476 0.46596 0.21778 0.0
C3061 C 0.44362 0.45846 0.19498 0.0
N3062 N 0.39604 0.42232 0.23366 0.0
N3063 N 0.43573 0.49554 0.16779 0.0
H3064 H 0.48123 0.44271 0.19377 0.0
H3065 H 0.47858 0.4726 0.17912 0.0
H3066 H 0.42512 0.51152 0.16201 0.0
H3067 H 0.4517 0.49184 0.15626 0.0
H3068 H 0.37678 0.4228 0.2393 0.0
H3069 H 0.40456 0.40435 0.23592 0.0
H3070 H 0.36803 0.46103 0.24828 0.0
H3071 H 0.36455 0.48961 0.23116 0.0
C3072 C 0.86251 0.60408 0.62769 0.0
C3073 C 0.8686 0.62888 0.63752 0.0
C3074 C 0.89567 0.60811 0.67002 0.0
C3075 C 0.88362 0.58417 0.66506 0.0
N3076 N 0.87566 0.55953 0.62695 0.0
N3077 N 0.89128 0.65415 0.66931 0.0
C3078 C 0.8724 0.58177 0.64031 0.0
C3079 C 0.88552 0.63082 0.65888 0.0
N3080 N 0.84762 0.60166 0.6062 0.0
N3081 N 0.91883 0.60874 0.68237 0.0
H3082 H 0.88373 0.67132 0.66231 0.0
H3083 H 0.90177 0.65602 0.68632 0.0
H3084 H 0.92853 0.59192 0.68734 0.0
H3085 H 0.9296 0.62551 0.68451 0.0
H3086 H 0.8404 0.58404 0.59998 0.0
H3087 H 0.84144 0.61734 0.59541 0.0
H3088 H 0.87004 0.55719 0.60787 0.0
H3089 H 0.88744 0.54491 0.63397 0.0
C3090 C 0.44657 0.84985 0.66201 0.0
C3091 C 0.44339 0.86047 0.63703 0.0
C3092 C 0.48482 0.88333 0.64219 0.0
C3093 C 0.48871 0.87115 0.66625 0.0
N3094 N 0.4761 0.83825 0.69623 0.0
N3095 N 0.4624 0.88325 0.60132 0.0
C3096 C 0.47044 0.85295 0.67523 0.0
C3097 C 0.46334 0.87612 0.62655 0.0
N3098 N 0.42632 0.83783 0.67373 0.0
N3099 N 0.50131 0.90227 0.63449 0.0
H3100 H 0.44725 0.87829 0.58922 0.0
H3101 H 0.47763 0.89215 0.59182 0.0
H3102 H 0.51765 0.90745 0.64497 0.0
H3103 H 0.49784 0.91404 0.61869 0.0
H3104 H 0.42663 0.83208 0.6929 0.0
H3105 H 0.40822 0.83597 0.6652 0.0
H3106 H 0.46473 0.82287 0.70217 0.0
H3107 H 0.49347 0.83978 0.70622 0.0
C3108 C 0.22156 0.46629 0.67563 0.0
C3109 C 0.20382 0.48441 0.66552 0.0
C3110 C 0.20107 0.45885 0.62575 0.0
C3111 C 0.216 0.43901 0.63729 0.0
N3112 N 0.23704 0.42243 0.67515 0.0
N3113 N 0.1746 0.49681 0.63182 0.0
C3114 C 0.22542 0.44242 0.66274 0.0
C3115 C 0.19304 0.48039 0.64077 0.0
N3116 N 0.23515 0.4721 0.69738 0.0
N3117 N 0.19539 0.45769 0.60014 0.0
H3118 H 0.16885 0.51316 0.64187 0.0
H3119 H 0.16376 0.49329 0.61534 0.0
H3120 H 0.20097 0.44246 0.58848 0.0
H3121 H 0.18709 0.47279 0.58999 0.0
H3122 H 0.25023 0.46087 0.70426 0.0
H3123 H 0.23304 0.48944 0.70716 0.0
H3124 H 0.24181 0.42286 0.69459 0.0
H3125 H 0.23963 0.40446 0.66674 0.0
C3126 C 0.62994 0.21472 0.66228 0.0
C3127 C 0.63077 0.20871 0.63567 0.0
C3128 C 0.58706 0.1903 0.63882 0.0
C3129 C 0.5856 0.19795 0.66497 0.0
N3130 N 0.60335 0.22302 0.69969 0.0
N3131 N 0.60783 0.196 0.59744 0.0
C3132 C 0.60641 0.21178 0.67615 0.0
C3133 C 0.60867 0.19792 0.6236 0.0
N3134 N 0.65187 0.22254 0.67455 0.0
N3135 N 0.56809 0.17519 0.62864 0.0
H3136 H 0.62289 0.20211 0.58573 0.0
H3137 H 0.59136 0.19074 0.58727 0.0
H3138 H 0.55179 0.16967 0.63898 0.0
H3139 H 0.56945 0.16657 0.61063 0.0
H3140 H 0.65318 0.22452 0.69443 0.0
H3141 H 0.66946 0.22483 0.66513 0.0
H3142 H 0.61682 0.23548 0.70774 0.0
H3143 H 0.58619 0.222 0.71008 0.0
C3144 C 0.88843 0.47906 0.42872 0.0
C3145 C 0.87531 0.48356 0.40523 0.0
C3146 C 0.85226 0.44263 0.41034 0.0
C3147 C 0.86368 0.43904 0.43491 0.0
N3148 N 0.88869 0.45701 0.46972 0.0
N3149 N 0.84006 0.47277 0.37709 0.0
C3150 C 0.88073 0.45814 0.44473 0.0
C3151 C 0.85577 0.46629 0.39711 0.0
N3152 N 0.90861 0.49447 0.43555 0.0
N3153 N 0.83893 0.42302 0.39903 0.0
H3154 H 0.84164 0.49025 0.36752 0.0
H3155 H 0.8239 0.46212 0.37183 0.0
H3156 H 0.83674 0.40504 0.40755 0.0
H3157 H 0.83244 0.42367 0.38009 0.0
H3158 H 0.92085 0.49044 0.45089 0.0
H3159 H 0.91429 0.51034 0.42471 0.0
H3160 H 0.89876 0.47176 0.47877 0.0
H3161 H 0.8833 0.44233 0.48214 0.0
C3162 C 0.61122 0.87444 0.44515 0.0
C3163 C 0.63118 0.85883 0.43471 0.0
C3164 C 0.6046 0.85188 0.39606 0.0
C3165 C 0.58629 0.86998 0.40511 0.0
N3166 N 0.57342 0.90072 0.43714 0.0
N3167 N 0.64857 0.83639 0.39805 0.0
C3168 C 0.58995 0.88186 0.42938 0.0
C3169 C 0.62827 0.84848 0.40958 0.0
N3170 N 0.61198 0.88134 0.47045 0.0
N3171 N 0.59917 0.83754 0.37473 0.0
H3172 H 0.66647 0.8342 0.40689 0.0
H3173 H 0.64853 0.83084 0.37881 0.0
H3174 H 0.58198 0.83934 0.36449 0.0
H3175 H 0.61052 0.82222 0.36869 0.0
H3176 H 0.59672 0.89021 0.47992 0.0
H3177 H 0.62702 0.87624 0.48262 0.0
H3178 H 0.57673 0.91229 0.45313 0.0
H3179 H 0.55722 0.90607 0.42654 0.0
C3180 C 0.18295 0.63053 0.41845 0.0
C3181 C 0.2069 0.6328 0.43155 0.0
C3182 C 0.21989 0.59142 0.4128 0.0
C3183 C 0.19455 0.58737 0.40318 0.0
N3184 N 0.15026 0.6015 0.40234 0.0
N3185 N 0.24554 0.61135 0.44608 0.0
C3186 C 0.1755 0.60638 0.40791 0.0
C3187 C 0.22457 0.61199 0.43025 0.0
N3188 N 0.16808 0.6517 0.41427 0.0
N3189 N 0.23994 0.5768 0.40422 0.0
H3190 H 0.24898 0.6252 0.46014 0.0
H3191 H 0.25774 0.5955 0.44721 0.0
H3192 H 0.23788 0.56289 0.38998 0.0
H3193 H 0.25905 0.58063 0.40908 0.0
H3194 H 0.15152 0.65131 0.40292 0.0
H3195 H 0.17397 0.67012 0.41942 0.0
H3196 H 0.13543 0.614 0.40741 0.0
H3197 H 0.144 0.58392 0.39505 0.0
C3198 C 0.46765 0.17858 0.40718 0.0
C3199 C 0.48661 0.19791 0.40331 0.0
C3200 C 0.46067 0.22668 0.43038 0.0
C3201 C 0.43987 0.20882 0.43045 0.0
N3202 N 0.42191 0.171 0.41039 0.0
N3203 N 0.49627 0.24327 0.40545 0.0
C3204 C 0.44288 0.18553 0.4166 0.0
C3205 C 0.48186 0.22283 0.41334 0.0
N3206 N 0.47307 0.15357 0.40162 0.0
N3207 N 0.46074 0.24701 0.44692 0.0
H3208 H 0.51063 0.24176 0.39154 0.0
H3209 H 0.49192 0.2621 0.41066 0.0
H3210 H 0.44658 0.24968 0.46087 0.0
H3211 H 0.47648 0.25933 0.44873 0.0
H3212 H 0.46035 0.13866 0.40587 0.0
H3213 H 0.4912 0.1476 0.39534 0.0
H3214 H 0.4231 0.15488 0.39857 0.0
H3215 H 0.40312 0.17698 0.41415 0.0
C3216 C 0.63125 0.87794 0.61337 0.0
C3217 C 0.64152 0.86153 0.63276 0.0
C3218 C 0.67922 0.85363 0.6051 0.0
C3219 C 0.67067 0.8726 0.58748 0.0
N3220 N 0.63971 0.9051 0.57635 0.0
N3221 N 0.67805 0.83782 0.64883 0.0
C3222 C 0.64699 0.88541 0.59206 0.0
C3223 C 0.66628 0.85047 0.62906 0.0
N3224 N 0.60608 0.88546 0.61457 0.0
N3225 N 0.69935 0.83807 0.59865 0.0
H3226 H 0.66978 0.83593 0.66699 0.0
H3227 H 0.69712 0.83162 0.64805 0.0
H3228 H 0.70865 0.83935 0.58096 0.0
H3229 H 0.70493 0.82228 0.60959 0.0
H3230 H 0.59674 0.89502 0.59967 0.0
H3231 H 0.59383 0.88018 0.62948 0.0
H3232 H 0.62421 0.91714 0.58036 0.0
H3233 H 0.65033 0.91063 0.56026 0.0
C3234 C 0.65824 0.21742 0.48021 0.0
C3235 C 0.67085 0.19334 0.4827 0.0
C3236 C 0.6584 0.18353 0.43812 0.0
C3237 C 0.64242 0.20563 0.43718 0.0
N3238 N 0.62235 0.24 0.46115 0.0
N3239 N 0.67715 0.15083 0.46528 0.0
C3240 C 0.64083 0.22147 0.45941 0.0
C3241 C 0.66895 0.1755 0.46209 0.0
N3242 N 0.66401 0.23714 0.49651 0.0
N3243 N 0.66528 0.17123 0.41601 0.0
H3244 H 0.68427 0.144 0.48274 0.0
H3245 H 0.67431 0.13668 0.45139 0.0
H3246 H 0.66022 0.17807 0.39787 0.0
H3247 H 0.67861 0.15629 0.41563 0.0
H3248 H 0.65682 0.25563 0.49395 0.0
H3249 H 0.67825 0.23586 0.51056 0.0
H3250 H 0.61929 0.25058 0.47788 0.0
H3251 H 0.60823 0.24264 0.44714 0.0
C3252 C 0.85476 0.67198 0.47067 0.0
C3253 C 0.87495 0.66432 0.48739 0.0
C3254 C 0.88138 0.62569 0.46089 0.0
C3255 C 0.86367 0.63525 0.44225 0.0
N3256 N 0.83726 0.67043 0.42757 0.0
N3257 N 0.90953 0.63513 0.49702 0.0
C3258 C 0.85135 0.6592 0.44669 0.0
C3259 C 0.88884 0.6415 0.4821 0.0
N3260 N 0.83845 0.69119 0.47796 0.0
N3261 N 0.89022 0.6011 0.45909 0.0
H3262 H 0.91503 0.64575 0.51312 0.0
H3263 H 0.92229 0.62043 0.49238 0.0
H3264 H 0.88501 0.5888 0.44423 0.0
H3265 H 0.90084 0.59216 0.47351 0.0
H3266 H 0.82191 0.69606 0.46771 0.0
H3267 H 0.83998 0.70036 0.4957 0.0
H3268 H 0.83002 0.68902 0.42885 0.0
H3269 H 0.83515 0.66233 0.40936 0.0
C3270 C 0.39751 0.85281 0.46747 0.0
C3271 C 0.40659 0.87186 0.48475 0.0
C3272 C 0.44581 0.87625 0.45842 0.0
C3273 C 0.43497 0.8599 0.43926 0.0
N3274 N 0.39789 0.83643 0.42392 0.0
N3275 N 0.43836 0.90381 0.49537 0.0
C3276 C 0.41011 0.84917 0.4434 0.0
C3277 C 0.43049 0.88416 0.47986 0.0
N3278 N 0.37711 0.83773 0.47432 0.0
N3279 N 0.47108 0.88337 0.45683 0.0
H3280 H 0.42811 0.90955 0.51163 0.0
H3281 H 0.45403 0.91556 0.4911 0.0
H3282 H 0.48302 0.87781 0.44179 0.0
H3283 H 0.48081 0.89287 0.47154 0.0
H3284 H 0.37108 0.82192 0.46363 0.0
H3285 H 0.36802 0.8394 0.49209 0.0
H3286 H 0.37875 0.8305 0.425 0.0
H3287 H 0.4059 0.83419 0.40568 0.0
C3288 C 0.19166 0.43179 0.48663 0.0
C3289 C 0.19806 0.40535 0.48786 0.0
C3290 C 0.21471 0.40756 0.44354 0.0
C3291 C 0.21009 0.43441 0.44298 0.0
N3292 N 0.19956 0.47293 0.46631 0.0
N3293 N 0.22139 0.36967 0.46973 0.0
C3294 C 0.20001 0.44677 0.46518 0.0
C3295 C 0.21122 0.39368 0.46693 0.0
N3296 N 0.17717 0.44255 0.50572 0.0
N3297 N 0.22178 0.39512 0.42153 0.0
H3298 H 0.22 0.35921 0.48676 0.0
H3299 H 0.23341 0.36118 0.45614 0.0
H3300 H 0.22446 0.40455 0.40405 0.0
H3301 H 0.22271 0.37521 0.42005 0.0
H3302 H 0.16942 0.46093 0.50455 0.0
H3303 H 0.1712 0.43237 0.52192 0.0
H3304 H 0.19485 0.48317 0.48285 0.0
H3305 H 0.20644 0.48442 0.45146 0.0
C3306 C 0.41088 0.1778 0.60168 0.0
C3307 C 0.40345 0.19762 0.58447 0.0
C3308 C 0.4269 0.22833 0.61177 0.0
C3309 C 0.43075 0.20918 0.6309 0.0
N3310 N 0.41754 0.16748 0.6464 0.0
N3311 N 0.39832 0.24332 0.5783 0.0
C3312 C 0.42037 0.18431 0.62652 0.0
C3313 C 0.40975 0.22339 0.5909 0.0
N3314 N 0.40862 0.1527 0.59456 0.0
N3315 N 0.44002 0.251 0.61292 0.0
H3316 H 0.38439 0.24069 0.5641 0.0
H3317 H 0.40068 0.26237 0.58396 0.0
H3318 H 0.4539 0.25487 0.62688 0.0
H3319 H 0.43923 0.2646 0.59824 0.0
H3320 H 0.41561 0.1377 0.60583 0.0
H3321 H 0.40218 0.14716 0.57638 0.0
H3322 H 0.40816 0.1499 0.64441 0.0
H3323 H 0.42156 0.17247 0.66539 0.0
C3324 C 0.85352 0.40725 0.62973 0.0
C3325 C 0.86286 0.43275 0.63246 0.0
C3326 C 0.88586 0.4281 0.59115 0.0
C3327 C 0.87468 0.40348 0.5876 0.0
N3328 N 0.84224 0.37297 0.60042 0.0
N3329 N 0.88333 0.46934 0.61262 0.0
C3330 C 0.85675 0.39412 0.60596 0.0
C3331 C 0.8778 0.44373 0.61229 0.0
N3332 N 0.84258 0.39499 0.65022 0.0
N3333 N 0.90455 0.4364 0.57465 0.0
H3334 H 0.87725 0.48152 0.62727 0.0
H3335 H 0.89182 0.47895 0.59724 0.0
H3336 H 0.91044 0.4258 0.55869 0.0
H3337 H 0.91549 0.45286 0.57785 0.0
H3338 H 0.8378 0.37557 0.64999 0.0
H3339 H 0.84089 0.40337 0.66834 0.0
H3340 H 0.82714 0.36666 0.61201 0.0
H3341 H 0.8435 0.36344 0.58287 0.0
C3342 C 0.22448 0.66121 0.62755 0.0
C3343 C 0.21442 0.63604 0.63066 0.0
C3344 C 0.19082 0.64092 0.58968 0.0
C3345 C 0.20237 0.6653 0.58588 0.0
N3346 N 0.23532 0.6955 0.59802 0.0
N3347 N 0.19235 0.59991 0.61164 0.0
C3348 C 0.22081 0.67444 0.60386 0.0
C3349 C 0.19878 0.6253 0.61085 0.0
N3350 N 0.23658 0.67308 0.64764 0.0
N3351 N 0.17176 0.63288 0.57344 0.0
H3352 H 0.19789 0.58783 0.62656 0.0
H3353 H 0.18344 0.59032 0.59648 0.0
H3354 H 0.16601 0.6434 0.55738 0.0
H3355 H 0.16046 0.61672 0.57688 0.0
H3356 H 0.24191 0.69235 0.64735 0.0
H3357 H 0.23893 0.6645 0.66559 0.0
H3358 H 0.25078 0.70171 0.60919 0.0
H3359 H 0.23361 0.7051 0.58055 0.0
C3360 C 0.03145 0.27366 0.29223 0.0
C3361 C 0.02372 0.28144 0.3173 0.0
C3362 C 0.03808 0.32513 0.30766 0.0
C3363 C 0.04304 0.3185 0.2816 0.0
N3364 N 0.03913 0.28665 0.248 0.0
N3365 N 1.01215 0.31658 0.34515 0.0
C3366 C 0.03826 0.29276 0.2735 0.0
C3367 C 0.02456 0.30784 0.3237 0.0
N3368 N 0.03324 0.24818 0.2865 0.0
N3369 N 0.04745 0.3475 0.31769 0.0
H3370 H 1.00104 0.30463 0.35684 0.0
H3371 H 1.01045 0.33605 0.34946 0.0
H3372 H 0.0594 0.35979 0.30735 0.0
H3373 H 0.04612 0.35207 0.33716 0.0
H3374 H 0.04142 0.24139 0.26952 0.0
H3375 H 0.02827 0.23381 0.29953 0.0
H3376 H 0.03337 0.26886 0.24089 0.0
H3377 H 0.04332 0.30002 0.23373 0.0
C3378 C 0.77298 0.06013 0.28648 0.0
C3379 C 0.75911 0.04136 0.27242 0.0
C3380 C 0.78235 1.00703 0.29541 0.0
C3381 C 0.79579 0.02581 0.30994 0.0
N3382 N 0.8099 0.06972 0.31343 0.0
N3383 N 0.75645 0.99768 0.25761 0.0
C3384 C 0.79307 0.05221 0.30342 0.0
C3385 C 0.76588 0.01503 0.27493 0.0
N3386 N 0.76594 0.08533 0.28504 0.0
N3387 N 0.78386 0.98175 0.30215 0.0
H3388 H 0.74472 1.00311 0.24224 0.0
H3389 H 0.76233 0.97859 0.25691 0.0
H3390 H 0.79567 0.97508 0.31689 0.0
H3391 H 0.77208 0.9676 0.29428 0.0
H3392 H 0.77315 0.09943 0.29728 0.0
H3393 H 0.75161 0.09196 0.27268 0.0
H3394 H 0.81056 0.08885 0.30771 0.0
H3395 H 0.82498 0.06438 0.32554 0.0
C3396 C 0.03214 0.77673 0.27539 0.0
C3397 C 0.02609 0.75121 0.28311 0.0
C3398 C 0.04136 0.76129 0.32655 0.0
C3399 C 0.04419 0.7876 0.3201 0.0
N3400 N 0.03774 0.82113 0.2887 0.0
N3401 N 0.01756 0.7224 0.31845 0.0
C3402 C 0.03836 0.79562 0.29455 0.0
C3403 C 0.0284 0.74455 0.30946 0.0
N3404 N 0.03293 0.7828 0.24989 0.0
N3405 N 0.05189 0.75192 0.34872 0.0
H3406 H 1.0065 0.71028 0.30688 0.0
H3407 H 0.01695 0.71779 0.33795 0.0
H3408 H 0.06314 0.76312 0.361 0.0
H3409 H 0.05211 0.73241 0.35315 0.0
H3410 H 0.03984 0.80031 0.24309 0.0
H3411 H 0.0286 0.76963 0.23544 0.0
H3412 H 0.03106 0.8281 0.27116 0.0
H3413 H 0.04185 0.83543 0.30209 0.0
C3414 C 0.30504 0.05135 0.27566 0.0
C3415 C 0.3118 0.02497 0.27335 0.0
C3416 C 0.27722 0.01445 0.30379 0.0
C3417 C 0.27441 0.04092 0.31009 0.0
N3418 N 0.287 0.08484 0.30252 0.0
N3419 N 0.30471 0.98113 0.28629 0.0
C3420 C 0.2883 0.05953 0.29581 0.0
C3421 C 0.29766 1.00635 0.28733 0.0
N3422 N 0.31471 0.06861 0.25843 0.0
N3423 N 0.26014 0.99705 0.31354 0.0
H3424 H 0.31936 0.97436 0.27441 0.0
H3425 H 0.29721 0.96717 0.29851 0.0
H3426 H 0.24482 1.00249 0.3253 0.0
H3427 H 0.25955 0.97788 0.30791 0.0
H3428 H 0.30876 0.08767 0.25747 0.0
H3429 H 0.32673 0.06309 0.24336 0.0
H3430 H 0.29914 0.09881 0.29488 0.0
H3431 H 0.27509 0.09171 0.31708 0.0
C3432 C 0.02714 0.76219 0.74808 0.0
C3433 C 0.02591 0.78847 0.75495 0.0
C3434 C 0.03965 0.77646 0.79886 0.0
C3435 C 0.04467 0.7509 0.79042 0.0
N3436 N 0.05016 0.72263 0.75394 0.0
N3437 N 0.03459 0.82124 0.78655 0.0
C3438 C 0.04042 0.74474 0.76413 0.0
C3439 C 0.0331 0.79586 0.78032 0.0
N3440 N 1.01519 0.75367 0.72627 0.0
N3441 N 0.04006 0.78214 0.82446 0.0
H3442 H 0.02989 0.8358 0.77365 0.0
H3443 H 0.04234 0.82779 0.80383 0.0
H3444 H 0.04415 0.76854 0.83856 0.0
H3445 H 0.03408 0.79975 0.8318 0.0
H3446 H 1.01379 0.73426 0.7216 0.0
H3447 H 1.0041 0.76563 0.71459 0.0
H3448 H 0.04936 0.71841 0.73436 0.0
H3449 H 0.0619 0.71025 0.76438 0.0
C3450 C 0.30796 0.01533 0.79291 0.0
C3451 C 0.31498 0.04159 0.79582 0.0
C3452 C 0.28108 0.05297 0.76491 0.0
C3453 C 0.27797 0.02665 0.75817 0.0
N3454 N 0.2902 0.98252 0.765 0.0
N3455 N 0.30916 0.08562 0.78268 0.0
C3456 C 0.29155 1.00767 0.77225 0.0
C3457 C 0.3015 0.06056 0.78163 0.0
N3458 N 0.31682 0.99772 0.81019 0.0
N3459 N 0.26428 0.07074 0.7554 0.0
H3460 H 0.32406 0.09211 0.79442 0.0
H3461 H 0.30205 0.09969 0.77036 0.0
H3462 H 0.24892 0.06571 0.74351 0.0
H3463 H 0.26394 0.0898 0.76143 0.0
H3464 H 0.31063 0.9787 0.8106 0.0
H3465 H 0.32821 1.00292 0.82586 0.0
H3466 H 0.30209 0.96834 0.77262 0.0
H3467 H 0.27862 0.97604 0.74998 0.0
C3468 C 0.03771 0.27083 0.77822 0.0
C3469 C 0.04226 0.27892 0.75241 0.0
C3470 C 0.02342 0.32073 0.76312 0.0
C3471 C 0.02296 0.31445 0.7896 0.0
N3472 N 0.03303 0.28387 0.8229 0.0
N3473 N 0.04618 0.31499 0.72331 0.0
C3474 C 0.03095 0.28952 0.79738 0.0
C3475 C 0.037 0.30486 0.74574 0.0
N3476 N 0.03878 0.24541 0.78437 0.0
N3477 N 1.01068 0.34196 0.75443 0.0
H3478 H 0.05826 0.30488 0.71095 0.0
H3479 H 0.04456 0.3344 0.71875 0.0
H3480 H 0.99957 0.35353 0.76648 0.0
H3481 H 1.00875 0.34618 0.73493 0.0
H3482 H 0.03322 0.23831 0.80225 0.0
H3483 H 0.04287 0.23115 0.77094 0.0
H3484 H 0.04141 0.26701 0.82965 0.0
H3485 H 0.02809 0.29686 0.83732 0.0
C3486 C 0.80078 0.03806 0.77859 0.0
C3487 C 0.79254 0.0434 0.75297 0.0
C3488 C 0.74997 0.02598 0.76367 0.0
C3489 C 0.75661 0.02448 0.79002 0.0
N3490 N 0.78798 0.03267 0.82327 0.0
N3491 N 0.75622 0.04945 0.72444 0.0
C3492 C 0.78198 0.03145 0.79777 0.0
C3493 C 0.76622 0.0394 0.74653 0.0
N3494 N 0.8264 0.03821 0.78448 0.0
N3495 N 0.72815 0.01423 0.7548 0.0
H3496 H 0.76687 0.06125 0.71229 0.0
H3497 H 0.73662 0.04878 0.72004 0.0
H3498 H 0.71632 1.00308 0.76659 0.0
H3499 H 0.72362 1.0131 0.7353 0.0
H3500 H 0.83354 0.032 0.80213 0.0
H3501 H 0.84069 0.04237 0.77105 0.0
H3502 H 0.80528 0.04024 0.83006 0.0
H3503 H 0.77489 0.02787 0.83769 0.0
C3504 C 0.29785 0.28664 0.06234 0.0
C3505 C 0.31256 0.27331 0.04362 0.0
C3506 C 0.28996 0.29673 1.0091 0.0
C3507 C 0.27584 0.31053 0.02784 0.0
N3508 N 0.26025 0.31292 0.07133 0.0
N3509 N 0.31673 0.25981 0.99952 0.0
C3510 C 0.27775 0.30343 0.05416 0.0
C3511 C 0.30655 0.27643 0.01708 0.0
N3512 N 0.30414 0.28478 0.08777 0.0
N3513 N 0.28885 0.30398 0.98389 0.0
H3514 H 0.3286 0.24461 1.0049 0.0
H3515 H 0.31138 0.25947 0.98023 0.0
H3516 H 0.27662 0.31839 0.97727 0.0
H3517 H 0.30115 0.2968 0.96982 0.0
H3518 H 0.29618 0.29645 0.10193 0.0
H3519 H 0.31864 0.27277 0.09461 0.0
H3520 H 0.25909 0.30685 0.09036 0.0
H3521 H 0.24517 0.32494 0.06575 0.0
C3522 C 0.30664 0.79081 0.05378 0.0
C3523 C 0.3134 0.79351 0.02742 0.0
C3524 C 0.28025 0.76166 0.01646 0.0
C3525 C 0.27726 0.75537 0.04294 0.0
N3526 N 0.28942 0.7631 0.08705 0.0
N3527 N 0.3076 0.78001 0.98345 0.0
C3528 C 0.2906 0.77 0.06174 0.0
C3529 C 0.30018 0.77883 1.00862 0.0
N3530 N 0.31555 0.80832 0.07121 0.0
N3531 N 0.26369 0.75145 0.99882 0.0
H3532 H 0.32191 0.79239 0.97683 0.0
H3533 H 0.30084 0.76741 0.96944 0.0
H3534 H 0.24856 0.7394 1.0041 0.0
H3535 H 0.26323 0.75703 0.9796 0.0
H3536 H 0.3095 0.80886 0.0903 0.0
H3537 H 0.32693 0.82396 0.06587 0.0
H3538 H 0.30113 0.77116 0.10117 0.0
H3539 H 0.27824 0.7479 0.09374 0.0
C3540 C 0.74716 0.30665 0.03275 0.0
C3541 C 0.75408 0.28065 0.02832 0.0
C3542 C 0.79906 0.29209 0.03927 0.0
C3543 C 0.79093 0.31706 0.04685 0.0
N3544 N 0.75517 0.3441 0.05857 0.0
N3545 N 0.78655 0.24765 0.03241 0.0
C3546 C 0.76432 0.32301 0.04601 0.0
C3547 C 0.78007 0.27301 0.03295 0.0
N3548 N 0.72456 0.31627 0.02335 0.0
N3549 N 0.82471 0.28674 0.03717 0.0
H3550 H 0.77327 0.23313 0.0286 0.0
H3551 H 0.80457 0.24091 0.03809 0.0
H3552 H 0.83903 0.3001 0.04151 0.0
H3553 H 0.83165 0.26977 0.02917 0.0
H3554 H 0.71982 0.33568 0.02441 0.0
H3555 H 0.71221 0.30563 1.01171 0.0
H3556 H 0.73556 0.34816 0.0602 0.0
H3557 H 0.767 0.35545 0.07007 0.0
C3558 C 0.7845 0.77087 1.00806 0.0
C3559 C 0.79776 0.75644 0.02701 0.0
C3560 C 0.77364 0.77903 0.06108 0.0
C3561 C 0.76038 0.79345 0.04213 0.0
N3562 N 0.75888 0.80855 0.9984 0.0
N3563 N 0.81054 0.75243 0.07135 0.0
C3564 C 0.76777 0.79114 0.01587 0.0
C3565 C 0.79415 0.76248 0.05347 0.0
N3566 N 0.78644 0.76425 0.98272 0.0
N3567 N 0.76567 0.77972 0.0861 0.0
H3568 H 0.82588 0.74056 0.06631 0.0
H3569 H 0.81057 0.75792 0.09061 0.0
H3570 H 0.75076 0.79143 0.09255 0.0
H3571 H 0.77256 0.76723 0.10013 0.0
H3572 H 0.77478 0.77205 0.96842 0.0
H3573 H 0.79837 0.7496 0.97612 0.0
H3574 H 0.76536 0.80947 0.97948 0.0
H3575 H 0.74699 0.82379 1.00365 0.0
C3576 C 0.53567 0.7718 0.79331 0.0
C3577 C 0.53053 0.77958 0.81912 0.0
C3578 C 0.54864 0.82193 0.80904 0.0
C3579 C 0.54979 0.81581 0.78254 0.0
N3580 N 0.54098 0.78525 0.74882 0.0
N3581 N 0.5254 0.81529 0.84846 0.0
C3582 C 0.54245 0.79077 0.77442 0.0
C3583 C 0.53512 0.80558 0.82607 0.0
N3584 N 0.53518 0.74641 0.78695 0.0
N3585 N 0.56071 0.8434 0.81813 0.0
H3586 H 0.51342 0.80477 0.86058 0.0
H3587 H 0.52649 0.8347 0.85322 0.0
H3588 H 0.57179 0.85533 0.80638 0.0
H3589 H 0.56218 0.84755 0.83769 0.0
H3590 H 0.54119 0.73955 0.76912 0.0
H3591 H 0.53106 0.73198 0.80018 0.0
H3592 H 0.53308 0.76827 0.74178 0.0
H3593 H 0.54594 0.79845 0.73461 0.0
C3594 C 0.2663 0.52792 0.82464 0.0
C3595 C 0.29278 0.52547 0.81845 0.0
C3596 C 0.28221 0.53814 0.77387 0.0
C3597 C 0.25647 0.54392 0.78149 0.0
N3598 N 0.22739 0.55164 0.81696 0.0
N3599 N 0.32673 0.53265 0.78751 0.0
C3600 C 0.24963 0.54109 0.80776 0.0
C3601 C 0.30105 0.53177 0.7931 0.0
N3602 N 0.25666 0.51682 0.84637 0.0
N3603 N 0.28854 0.53767 0.74842 0.0
H3604 H 0.34096 0.52842 0.80099 0.0
H3605 H 0.33386 0.53965 0.77016 0.0
H3606 H 0.27539 0.54189 0.73389 0.0
H3607 H 0.30623 0.53103 0.74171 0.0
H3608 H 0.23701 0.51628 0.85057 0.0
H3609 H 0.2679 0.50542 0.85835 0.0
H3610 H 0.22275 0.55191 0.83647 0.0
H3611 H 0.21526 0.56277 0.8056 0.0
C3612 C 0.52809 0.24572 0.8062 0.0
C3613 C 0.52592 0.25233 0.77989 0.0
C3614 C 0.53962 0.29641 0.79109 0.0
C3615 C 0.54544 0.28829 0.81663 0.0
N3616 N 0.55225 0.25221 0.84506 0.0
N3617 N 0.53338 0.2836 0.74651 0.0
C3618 C 0.54176 0.26204 0.8231 0.0
C3619 C 0.53267 0.27764 0.77204 0.0
N3620 N 0.51661 0.22394 0.81531 0.0
N3621 N 0.53964 0.3219 0.78517 0.0
H3622 H 0.52841 0.27051 0.73218 0.0
H3623 H 0.54076 0.30085 0.73958 0.0
H3624 H 0.54416 0.33614 0.7985 0.0
H3625 H 0.53305 0.32899 0.76764 0.0
H3626 H 0.51591 0.21944 0.83483 0.0
H3627 H 0.50519 0.21208 0.8038 0.0
H3628 H 0.55189 0.23269 0.84944 0.0
H3629 H 0.56404 0.26298 0.85713 0.0
C3630 C 0.80582 0.55263 0.77986 0.0
C3631 C 0.81304 0.52642 0.77744 0.0
C3632 C 0.77958 0.51519 0.80885 0.0
C3633 C 0.7762 0.54159 0.81504 0.0
N3634 N 0.78797 0.58575 0.80729 0.0
N3635 N 0.80762 0.48252 0.79105 0.0
C3636 C 0.78948 0.56047 0.80048 0.0
C3637 C 0.79985 0.50754 0.792 0.0
N3638 N 0.8146 0.57004 0.76228 0.0
N3639 N 0.76306 0.49741 0.81885 0.0
H3640 H 0.8222 0.47604 0.77892 0.0
H3641 H 0.80083 0.46851 0.80361 0.0
H3642 H 0.74769 0.50256 0.83064 0.0
H3643 H 0.76291 0.47821 0.81331 0.0
H3644 H 0.80824 0.58898 0.76155 0.0
H3645 H 0.82618 0.56478 0.74674 0.0
H3646 H 0.79962 0.59993 0.79928 0.0
H3647 H 0.77659 0.59237 0.82238 0.0
C3648 C 0.5507 0.24938 0.26169 0.0
C3649 C 0.55082 0.25497 0.28828 0.0
C3650 C 0.53475 0.29837 0.27778 0.0
C3651 C 0.53054 0.29065 0.25176 0.0
N3652 N 0.52725 0.25479 0.2223 0.0
N3653 N 0.53966 0.28448 0.32221 0.0
C3654 C 0.5364 0.26496 0.24473 0.0
C3655 C 0.542 0.27946 0.29659 0.0
N3656 N 0.56448 0.22908 0.2525 0.0
N3657 N 0.53288 0.32361 0.28446 0.0
H3658 H 0.54507 0.27134 0.33632 0.0
H3659 H 0.53076 0.30093 0.32931 0.0
H3660 H 0.5283 0.33798 0.27133 0.0
H3661 H 0.53813 0.33048 0.30252 0.0
H3662 H 0.56641 0.22523 0.23292 0.0
H3663 H 0.57648 0.2183 0.26438 0.0
H3664 H 0.52955 0.23551 0.21748 0.0
H3665 H 0.51459 0.26465 0.21032 0.0
C3666 C 0.77739 0.55302 0.26777 0.0
C3667 C 0.77489 0.52669 0.26102 0.0
C3668 C 0.80531 0.51583 0.29541 0.0
C3669 C 0.81204 0.54221 0.29803 0.0
N3670 N 0.8046 0.58626 0.28592 0.0
N3671 N 0.78684 0.48265 0.26833 0.0
C3672 C 0.79773 0.561 0.28443 0.0
C3673 C 0.78853 0.5079 0.27518 0.0
N3674 N 0.76026 0.57038 0.25804 0.0
N3675 N 0.815 0.49839 0.31242 0.0
H3676 H 0.77448 0.47607 0.25398 0.0
H3677 H 0.79881 0.46846 0.27579 0.0
H3678 H 0.82694 0.50378 0.3276 0.0
H3679 H 0.80916 0.47928 0.31309 0.0
H3680 H 0.75954 0.58949 0.26383 0.0
H3681 H 0.74501 0.56493 0.24611 0.0
H3682 H 0.79693 0.60039 0.27403 0.0
H3683 H 0.81926 0.59295 0.29786 0.0
C3684 C 0.53954 0.77254 0.27598 0.0
C3685 C 0.54428 0.78069 0.25022 0.0
C3686 C 0.52662 0.82296 0.26124 0.0
C3687 C 0.52573 0.81639 0.28766 0.0
N3688 N 0.53498 0.78532 0.32074 0.0
N3689 N 0.54905 0.8167 0.22127 0.0
C3690 C 0.53313 0.79122 0.29526 0.0
C3691 C 0.53974 0.80679 0.24374 0.0
N3692 N 0.54005 0.74705 0.28194 0.0
N3693 N 0.51453 0.84461 0.25266 0.0
H3694 H 0.56062 0.80619 0.20876 0.0
H3695 H 0.54805 0.83617 0.21678 0.0
H3696 H 0.50364 0.85637 0.26472 0.0
H3697 H 0.51283 0.84906 0.2332 0.0
H3698 H 0.53426 0.73994 0.29974 0.0
H3699 H 0.54396 0.73281 0.26844 0.0
H3700 H 0.54293 0.76822 0.32739 0.0
H3701 H 0.53036 0.79832 0.33525 0.0
C3702 C 0.28345 0.56172 0.27548 0.0
C3703 C 0.29663 0.54301 0.26064 0.0
C3704 C 0.27327 0.50862 0.28356 0.0
C3705 C 0.25979 0.52733 0.29803 0.0
N3706 N 0.25769 0.57082 0.31342 0.0
N3707 N 0.30984 0.49892 0.25623 0.0
C3708 C 0.26689 0.55362 0.29586 0.0
C3709 C 0.29341 0.51653 0.26665 0.0
N3710 N 0.28527 0.58708 0.26912 0.0
N3711 N 0.26583 0.4835 0.28465 0.0
H3712 H 0.32492 0.50421 0.2441 0.0
H3713 H 0.31018 0.47968 0.26159 0.0
H3714 H 0.25149 0.47688 0.29702 0.0
H3715 H 0.27271 0.4695 0.27213 0.0
H3716 H 0.2737 0.60125 0.27722 0.0
H3717 H 0.29708 0.59384 0.25441 0.0
H3718 H 0.26384 0.58982 0.31441 0.0
H3719 H 0.24587 0.56533 0.3287 0.0
C3720 C 0.79093 0.79565 0.50856 0.0
C3721 C 0.77726 0.81018 0.52712 0.0
C3722 C 0.80005 0.78729 0.5619 0.0
C3723 C 0.814 0.77299 0.54335 0.0
N3724 N 0.81699 0.75805 0.49962 0.0
N3725 N 0.76297 0.8141 0.57098 0.0
C3726 C 0.80743 0.77537 0.51685 0.0
C3727 C 0.77991 0.80399 0.55365 0.0
N3728 N 0.78956 0.80218 0.48317 0.0
N3729 N 0.80707 0.78638 0.5872 0.0
H3730 H 0.74791 0.82608 0.56541 0.0
H3731 H 0.76221 0.80857 0.5902 0.0
H3732 H 0.8216 0.77447 0.59413 0.0
H3733 H 0.79973 0.7988 0.60107 0.0
H3734 H 0.80153 0.79436 0.46914 0.0
H3735 H 0.77765 0.81672 0.47628 0.0
H3736 H 0.81115 0.75715 0.48049 0.0
H3737 H 0.82883 0.74289 0.5052 0.0
C3738 C 0.78894 0.27238 0.56292 0.0
C3739 C 0.77554 0.25817 0.54393 0.0
C3740 C 0.79854 0.28175 0.50984 0.0
C3741 C 0.81249 0.29551 0.52884 0.0
N3742 N 0.81485 0.30988 0.57279 0.0
N3743 N 0.76133 0.25518 0.49999 0.0
C3744 C 0.80556 0.29277 0.55519 0.0
C3745 C 0.77825 0.26496 0.51759 0.0
N3746 N 0.78717 0.26544 0.58818 0.0
N3747 N 0.80571 0.28321 0.48462 0.0
H3748 H 0.74608 0.24318 0.50525 0.0
H3749 H 0.76076 0.26101 0.48085 0.0
H3750 H 0.8204 0.29517 0.47807 0.0
H3751 H 0.79829 0.27123 0.4704 0.0
H3752 H 0.79897 0.27299 0.6025 0.0
H3753 H 0.77497 0.25092 0.59463 0.0
H3754 H 0.80883 0.31043 0.59188 0.0
H3755 H 0.82658 0.32523 0.56752 0.0
C3756 C 0.2942 0.80643 0.51676 0.0
C3757 C 0.29757 0.81264 0.54324 0.0
C3758 C 0.26774 0.77771 0.5542 0.0
C3759 C 0.26037 0.77539 0.52792 0.0
N3760 N 0.26592 0.78907 0.48397 0.0
N3761 N 0.28594 0.80481 0.58746 0.0
C3762 C 0.27373 0.78982 0.50904 0.0
C3763 C 0.28427 0.79814 0.56211 0.0
N3764 N 0.31079 0.81635 0.49898 0.0
N3765 N 0.25899 0.76016 0.57161 0.0
H3766 H 0.29765 0.81962 0.59415 0.0
H3767 H 0.27423 0.7969 0.60165 0.0
H3768 H 0.2473 0.74479 0.56626 0.0
H3769 H 0.26546 0.75927 0.59055 0.0
H3770 H 0.31095 0.81075 0.47975 0.0
H3771 H 0.32617 0.82818 0.50409 0.0
H3772 H 0.2729 0.80157 0.46998 0.0
H3773 H 0.25109 0.77728 0.47743 0.0
C3774 C 0.27818 0.29662 0.53525 0.0
C3775 C 0.25219 0.28908 0.54012 0.0
C3776 C 0.26186 0.24689 0.5215 0.0
C3777 C 0.28851 0.25267 0.52069 0.0
N3778 N 0.32264 0.28268 0.53019 0.0
N3779 N 0.22228 0.25362 0.54451 0.0
C3780 C 0.29692 0.27751 0.52841 0.0
C3781 C 0.24489 0.26323 0.53509 0.0
N3782 N 0.28489 0.32193 0.53609 0.0
N3783 N 0.2526 0.22567 0.50912 0.0
H3784 H 0.21018 0.26407 0.55656 0.0
H3785 H 0.21729 0.23429 0.54309 0.0
H3786 H 0.26435 0.21373 0.49807 0.0
H3787 H 0.23295 0.22178 0.50742 0.0
H3788 H 0.3029 0.32863 0.5303 0.0
H3789 H 0.27177 0.33647 0.54022 0.0
H3790 H 0.32984 0.29947 0.53838 0.0
H3791 H 0.33677 0.26938 0.5252 0.0
loop_
_geom_bond_atom_site_label_1
_geom_bond_atom_site_label_2
_geom_bond_distance
_geom_bond_site_symmetry_2
_ccdc_geom_bond_type
Co0 O3 1.996 . S
Co0 N17 1.989 . S
Co0 O25 1.967 . S
Co0 O32 1.920 . S
Co1 O4 1.966 . S
Co1 N10 2.022 . S
Co1 N18 1.993 1_655 S
Co1 O26 1.941 . S
C2 O3 1.229 1_655 S
C2 O4 1.263 . S
O3 Co0 1.996 . S
O3 C2 1.229 1_455 S
O4 Co1 1.966 . S
O4 C2 1.263 . S
C5 O6 1.235 . S
C5 O32 1.289 . S
O6 C5 1.235 . S
C7 C9 1.400 . S
C7 N10 1.351 . S
C7 C12 1.501 . S
C8 C9 1.387 . S
C8 N11 1.341 . S
C9 C7 1.400 . S
C9 C8 1.387 . S
N10 Co1 2.022 . S
N10 C7 1.351 . S
N10 N11 1.365 . S
N11 C8 1.341 . S
N11 N10 1.365 . S
N11 H31 0.862 . S
C12 C7 1.501 . S
C12 H13 0.961 . S
C12 H14 0.961 . S
C12 H15 0.960 . S
H13 C12 0.961 . S
H14 C12 0.961 . S
H15 C12 0.960 . S
C16 N17 1.342 . S
C16 C20 1.401 . S
C16 C21 1.499 . S
N17 Co0 1.989 . S
N17 C16 1.342 . S
N17 N18 1.388 . S
N18 Co1 1.993 1_455 S
N18 N17 1.388 . S
N18 C19 1.346 . S
C19 N18 1.346 . S
C19 C20 1.396 . S
C19 C29 1.510 . S
C20 C16 1.401 . S
C20 C19 1.396 . S
C21 C16 1.499 . S
C21 H22 0.959 . S
C21 H23 0.960 . S
C21 H24 0.961 . S
H22 C21 0.959 . S
H23 C21 0.960 . S
H24 C21 0.961 . S
O25 Co0 1.967 . S
O25 C33 1.258 . S
O26 Co1 1.941 . S
O26 C33 1.266 1_655 S
H27 C29 0.959 . S
H28 C29 0.961 . S
C29 C19 1.510 . S
C29 H27 0.959 . S
C29 H28 0.961 . S
C29 H30 0.960 1_455 S
H30 C29 0.960 1_655 S
H31 N11 0.862 . S
O32 Co0 1.920 . S
O32 C5 1.289 . S
C33 O25 1.258 . S
C33 O26 1.266 1_455 S
Co34 O37 1.996 . S
Co34 N51 1.989 . S
Co34 O59 1.967 . S
Co34 O66 1.920 . S
Co35 O38 1.966 . S
Co35 N44 2.022 . S
Co35 N52 1.993 1_565 S
Co35 O60 1.941 . S
C36 O37 1.229 1_565 S
C36 O38 1.263 . S
O37 Co34 1.996 . S
O37 C36 1.229 1_545 S
O38 Co35 1.966 . S
O38 C36 1.263 . S
C39 O40 1.235 . S
C39 O66 1.289 . S
O40 C39 1.235 . S
C41 C43 1.400 . S
C41 N44 1.351 . S
C41 C46 1.501 . S
C42 C43 1.387 . S
C42 N45 1.341 . S
C43 C41 1.400 . S
C43 C42 1.387 . S
N44 Co35 2.022 . S
N44 C41 1.351 . S
N44 N45 1.365 . S
N45 C42 1.341 . S
N45 N44 1.365 . S
N45 H65 0.862 . S
C46 C41 1.501 . S
C46 H47 0.961 . S
C46 H48 0.961 . S
C46 H49 0.960 . S
H47 C46 0.961 . S
H48 C46 0.961 . S
H49 C46 0.960 . S
C50 N51 1.342 . S
C50 C54 1.401 . S
C50 C55 1.499 . S
N51 Co34 1.989 . S
N51 C50 1.342 . S
N51 N52 1.388 . S
N52 Co35 1.993 1_545 S
N52 N51 1.388 . S
N52 C53 1.346 . S
C53 N52 1.346 . S
C53 C54 1.396 . S
C53 C63 1.510 . S
C54 C50 1.401 . S
C54 C53 1.396 . S
C55 C50 1.499 . S
C55 H56 0.959 . S
C55 H57 0.960 . S
C55 H58 0.961 . S
H56 C55 0.959 . S
H57 C55 0.960 . S
H58 C55 0.961 . S
O59 Co34 1.967 . S
O59 C67 1.258 . S
O60 Co35 1.941 . S
O60 C67 1.266 1_565 S
H61 C63 0.959 . S
H62 C63 0.961 . S
C63 C53 1.510 . S
C63 H61 0.959 . S
C63 H62 0.961 . S
C63 H64 0.960 1_545 S
H64 C63 0.960 1_565 S
H65 N45 0.862 . S
O66 Co34 1.920 . S
O66 C39 1.289 . S
C67 O59 1.258 . S
C67 O60 1.266 1_545 S
Co68 O71 1.970 . S
Co68 N85 1.989 . S
Co68 O93 1.967 . S
Co68 O100 1.920 1_455 S
Co69 O72 1.966 . S
Co69 N78 2.022 . S
Co69 N86 1.993 . S
Co69 O94 1.941 . S
C70 O71 1.258 . S
C70 O72 1.263 . S
O71 Co68 1.970 . S
O71 C70 1.258 . S
O72 Co69 1.966 . S
O72 C70 1.263 . S
C73 O74 1.235 . S
C73 O100 1.289 . S
O74 C73 1.235 . S
C75 C77 1.400 . S
C75 N78 1.351 . S
C75 C80 1.501 . S
C76 C77 1.387 . S
C76 N79 1.341 . S
C77 C75 1.400 . S
C77 C76 1.387 . S
N78 Co69 2.022 . S
N78 C75 1.351 . S
N78 N79 1.365 . S
N79 C76 1.341 . S
N79 N78 1.365 . S
N79 H99 0.862 . S
C80 C75 1.501 . S
C80 H81 0.961 . S
C80 H82 0.961 . S
C80 H83 0.960 . S
H81 C80 0.961 . S
H82 C80 0.961 . S
H83 C80 0.960 . S
C84 N85 1.342 1_655 S
C84 C88 1.401 . S
C84 C89 1.499 . S
N85 Co68 1.989 . S
N85 C84 1.342 1_455 S
N85 N86 1.388 . S
N86 Co69 1.993 . S
N86 N85 1.388 . S
N86 C87 1.346 . S
C87 N86 1.346 . S
C87 C88 1.396 1_455 S
C87 C97 1.510 . S
C88 C84 1.401 . S
C88 C87 1.396 1_655 S
C89 C84 1.499 . S
C89 H90 0.959 . S
C89 H91 0.960 . S
C89 H92 0.961 . S
H90 C89 0.959 . S
H91 C89 0.960 . S
H92 C89 0.961 . S
O93 Co68 1.967 . S
O93 C101 1.258 . S
O94 Co69 1.941 . S
O94 C101 1.266 . S
H95 C97 0.959 . S
H96 C97 0.961 . S
C97 C87 1.510 . S
C97 H95 0.959 . S
C97 H96 0.961 . S
C97 H98 0.960 . S
H98 C97 0.960 . S
H99 N79 0.862 . S
O100 Co68 1.920 1_655 S
O100 C73 1.289 . S
C101 O93 1.258 . S
C101 O94 1.266 . S
Co102 O105 1.970 . S
Co102 N119 1.989 . S
Co102 O127 1.967 . S
Co102 O134 1.920 1_545 S
Co103 O106 1.966 . S
Co103 N112 2.022 . S
Co103 N120 1.993 . S
Co103 O128 1.941 . S
C104 O105 1.258 . S
C104 O106 1.263 . S
O105 Co102 1.970 . S
O105 C104 1.258 . S
O106 Co103 1.966 . S
O106 C104 1.263 . S
C107 O108 1.235 . S
C107 O134 1.289 . S
O108 C107 1.235 . S
C109 C111 1.400 . S
C109 N112 1.351 . S
C109 C114 1.501 . S
C110 C111 1.387 . S
C110 N113 1.341 . S
C111 C109 1.400 . S
C111 C110 1.387 . S
N112 Co103 2.022 . S
N112 C109 1.351 . S
N112 N113 1.365 . S
N113 C110 1.341 . S
N113 N112 1.365 . S
N113 H133 0.862 . S
C114 C109 1.501 . S
C114 H115 0.961 . S
C114 H116 0.961 . S
C114 H117 0.960 . S
H115 C114 0.961 . S
H116 C114 0.961 . S
H117 C114 0.960 . S
C118 N119 1.342 1_565 S
C118 C122 1.401 . S
C118 C123 1.499 . S
N119 Co102 1.989 . S
N119 C118 1.342 1_545 S
N119 N120 1.388 . S
N120 Co103 1.993 . S
N120 N119 1.388 . S
N120 C121 1.346 . S
C121 N120 1.346 . S
C121 C122 1.396 1_545 S
C121 C131 1.510 . S
C122 C118 1.401 . S
C122 C121 1.396 1_565 S
C123 C118 1.499 . S
C123 H124 0.959 . S
C123 H125 0.960 . S
C123 H126 0.961 . S
H124 C123 0.959 . S
H125 C123 0.960 . S
H126 C123 0.961 . S
O127 Co102 1.967 . S
O127 C135 1.258 . S
O128 Co103 1.941 . S
O128 C135 1.266 . S
H129 C131 0.959 . S
H130 C131 0.961 . S
C131 C121 1.510 . S
C131 H129 0.959 . S
C131 H130 0.961 . S
C131 H132 0.960 . S
H132 C131 0.960 . S
H133 N113 0.862 . S
O134 Co102 1.920 1_565 S
O134 C107 1.289 . S
C135 O127 1.258 . S
C135 O128 1.266 . S
Co136 O139 1.996 . S
Co136 N153 1.989 . S
Co136 O161 1.967 . S
Co136 O168 1.920 . S
Co137 O140 1.966 . S
Co137 N146 2.022 . S
Co137 N154 1.993 1_655 S
Co137 O162 1.941 . S
C138 O139 1.229 1_655 S
C138 O140 1.263 . S
O139 Co136 1.996 . S
O139 C138 1.229 1_455 S
O140 Co137 1.966 . S
O140 C138 1.263 . S
C141 O142 1.235 . S
C141 O168 1.289 . S
O142 C141 1.235 . S
C143 C145 1.400 . S
C143 N146 1.351 . S
C143 C148 1.501 . S
C144 C145 1.387 . S
C144 N147 1.341 . S
C145 C143 1.400 . S
C145 C144 1.387 . S
N146 Co137 2.022 . S
N146 C143 1.351 . S
N146 N147 1.365 . S
N147 C144 1.341 . S
N147 N146 1.365 . S
N147 H167 0.862 . S
C148 C143 1.501 . S
C148 H149 0.961 . S
C148 H150 0.961 . S
C148 H151 0.960 . S
H149 C148 0.961 . S
H150 C148 0.961 . S
H151 C148 0.960 . S
C152 N153 1.342 . S
C152 C156 1.401 . S
C152 C157 1.499 . S
N153 Co136 1.989 . S
N153 C152 1.342 . S
N153 N154 1.388 . S
N154 Co137 1.993 1_455 S
N154 N153 1.388 . S
N154 C155 1.346 . S
C155 N154 1.346 . S
C155 C156 1.396 . S
C155 C165 1.510 . S
C156 C152 1.401 . S
C156 C155 1.396 . S
C157 C152 1.499 . S
C157 H158 0.959 . S
C157 H159 0.960 . S
C157 H160 0.961 . S
H158 C157 0.959 . S
H159 C157 0.960 . S
H160 C157 0.961 . S
O161 Co136 1.967 . S
O161 C169 1.258 . S
O162 Co137 1.941 . S
O162 C169 1.266 1_655 S
H163 C165 0.959 . S
H164 C165 0.961 . S
C165 C155 1.510 . S
C165 H163 0.959 . S
C165 H164 0.961 . S
C165 H166 0.960 1_455 S
H166 C165 0.960 1_655 S
H167 N147 0.862 . S
O168 Co136 1.920 . S
O168 C141 1.289 . S
C169 O161 1.258 . S
C169 O162 1.266 1_455 S
Co170 O173 1.996 . S
Co170 N187 1.989 . S
Co170 O195 1.967 . S
Co170 O202 1.920 . S
Co171 O174 1.966 . S
Co171 N180 2.022 . S
Co171 N188 1.993 1_565 S
Co171 O196 1.941 . S
C172 O173 1.229 1_565 S
C172 O174 1.263 . S
O173 Co170 1.996 . S
O173 C172 1.229 1_545 S
O174 Co171 1.966 . S
O174 C172 1.263 . S
C175 O176 1.235 . S
C175 O202 1.289 . S
O176 C175 1.235 . S
C177 C179 1.400 . S
C177 N180 1.351 . S
C177 C182 1.501 . S
C178 C179 1.387 . S
C178 N181 1.341 . S
C179 C177 1.400 . S
C179 C178 1.387 . S
N180 Co171 2.022 . S
N180 C177 1.351 . S
N180 N181 1.365 . S
N181 C178 1.341 . S
N181 N180 1.365 . S
N181 H201 0.862 . S
C182 C177 1.501 . S
C182 H183 0.961 . S
C182 H184 0.961 . S
C182 H185 0.960 . S
H183 C182 0.961 . S
H184 C182 0.961 . S
H185 C182 0.960 . S
C186 N187 1.342 . S
C186 C190 1.401 . S
C186 C191 1.499 . S
N187 Co170 1.989 . S
N187 C186 1.342 . S
N187 N188 1.388 . S
N188 Co171 1.993 1_545 S
N188 N187 1.388 . S
N188 C189 1.346 . S
C189 N188 1.346 . S
C189 C190 1.396 . S
C189 C199 1.510 . S
C190 C186 1.401 . S
C190 C189 1.396 . S
C191 C186 1.499 . S
C191 H192 0.959 . S
C191 H193 0.960 . S
C191 H194 0.961 . S
H192 C191 0.959 . S
H193 C191 0.960 . S
H194 C191 0.961 . S
O195 Co170 1.967 . S
O195 C203 1.258 . S
O196 Co171 1.941 . S
O196 C203 1.266 1_565 S
H197 C199 0.959 . S
H198 C199 0.961 . S
C199 C189 1.510 . S
C199 H197 0.959 . S
C199 H198 0.961 . S
C199 H200 0.960 1_545 S
H200 C199 0.960 1_565 S
H201 N181 0.862 . S
O202 Co170 1.920 . S
O202 C175 1.289 . S
C203 O195 1.258 . S
C203 O196 1.266 1_545 S
Co204 O207 1.970 . S
Co204 N221 1.989 . S
Co204 O229 1.967 . S
Co204 O236 1.920 1_455 S
Co205 O208 1.966 . S
Co205 N214 2.022 . S
Co205 N222 1.993 . S
Co205 O230 1.941 . S
C206 O207 1.258 . S
C206 O208 1.263 . S
O207 Co204 1.970 . S
O207 C206 1.258 . S
O208 Co205 1.966 . S
O208 C206 1.263 . S
C209 O210 1.235 . S
C209 O236 1.289 . S
O210 C209 1.235 . S
C211 C213 1.400 . S
C211 N214 1.351 . S
C211 C216 1.501 . S
C212 C213 1.387 . S
C212 N215 1.341 . S
C213 C211 1.400 . S
C213 C212 1.387 . S
N214 Co205 2.022 . S
N214 C211 1.351 . S
N214 N215 1.365 . S
N215 C212 1.341 . S
N215 N214 1.365 . S
N215 H235 0.862 . S
C216 C211 1.501 . S
C216 H217 0.961 . S
C216 H218 0.961 . S
C216 H219 0.960 . S
H217 C216 0.961 . S
H218 C216 0.961 . S
H219 C216 0.960 . S
C220 N221 1.342 1_655 S
C220 C224 1.401 . S
C220 C225 1.499 . S
N221 Co204 1.989 . S
N221 C220 1.342 1_455 S
N221 N222 1.388 . S
N222 Co205 1.993 . S
N222 N221 1.388 . S
N222 C223 1.346 . S
C223 N222 1.346 . S
C223 C224 1.396 1_455 S
C223 C233 1.510 . S
C224 C220 1.401 . S
C224 C223 1.396 1_655 S
C225 C220 1.499 . S
C225 H226 0.959 . S
C225 H227 0.960 . S
C225 H228 0.961 . S
H226 C225 0.959 . S
H227 C225 0.960 . S
H228 C225 0.961 . S
O229 Co204 1.967 . S
O229 C237 1.258 . S
O230 Co205 1.941 . S
O230 C237 1.266 . S
H231 C233 0.959 . S
H232 C233 0.961 . S
C233 C223 1.510 . S
C233 H231 0.959 . S
C233 H232 0.961 . S
C233 H234 0.960 . S
H234 C233 0.960 . S
H235 N215 0.862 . S
O236 Co204 1.920 1_655 S
O236 C209 1.289 . S
C237 O229 1.258 . S
C237 O230 1.266 . S
Co238 O241 1.970 . S
Co238 N255 1.989 . S
Co238 O263 1.967 . S
Co238 O270 1.920 1_545 S
Co239 O242 1.966 . S
Co239 N248 2.022 . S
Co239 N256 1.993 . S
Co239 O264 1.941 . S
C240 O241 1.258 . S
C240 O242 1.263 . S
O241 Co238 1.970 . S
O241 C240 1.258 . S
O242 Co239 1.966 . S
O242 C240 1.263 . S
C243 O244 1.235 . S
C243 O270 1.289 . S
O244 C243 1.235 . S
C245 C247 1.400 . S
C245 N248 1.351 . S
C245 C250 1.501 . S
C246 C247 1.387 . S
C246 N249 1.341 . S
C247 C245 1.400 . S
C247 C246 1.387 . S
N248 Co239 2.022 . S
N248 C245 1.351 . S
N248 N249 1.365 . S
N249 C246 1.341 . S
N249 N248 1.365 . S
N249 H269 0.862 . S
C250 C245 1.501 . S
C250 H251 0.961 . S
C250 H252 0.961 . S
C250 H253 0.960 . S
H251 C250 0.961 . S
H252 C250 0.961 . S
H253 C250 0.960 . S
C254 N255 1.342 1_565 S
C254 C258 1.401 . S
C254 C259 1.499 . S
N255 Co238 1.989 . S
N255 C254 1.342 1_545 S
N255 N256 1.388 . S
N256 Co239 1.993 . S
N256 N255 1.388 . S
N256 C257 1.346 . S
C257 N256 1.346 . S
C257 C258 1.396 1_545 S
C257 C267 1.510 . S
C258 C254 1.401 . S
C258 C257 1.396 1_565 S
C259 C254 1.499 . S
C259 H260 0.959 . S
C259 H261 0.960 . S
C259 H262 0.961 . S
H260 C259 0.959 . S
H261 C259 0.960 . S
H262 C259 0.961 . S
O263 Co238 1.967 . S
O263 C271 1.258 . S
O264 Co239 1.941 . S
O264 C271 1.266 . S
H265 C267 0.959 . S
H266 C267 0.961 . S
C267 C257 1.510 . S
C267 H265 0.959 . S
C267 H266 0.961 . S
C267 H268 0.960 . S
H268 C267 0.960 . S
H269 N249 0.862 . S
O270 Co238 1.920 1_565 S
O270 C243 1.289 . S
C271 O263 1.258 . S
C271 O264 1.266 . S
Co272 O275 1.996 . S
Co272 N289 1.989 . S
Co272 O297 1.967 . S
Co272 O304 1.920 . S
Co273 O276 1.966 . S
Co273 N282 2.022 . S
Co273 N290 1.993 1_565 S
Co273 O298 1.941 . S
C274 O275 1.229 1_565 S
C274 O276 1.263 . S
O275 Co272 1.996 . S
O275 C274 1.229 1_545 S
O276 Co273 1.966 . S
O276 C274 1.263 . S
C277 O278 1.235 . S
C277 O304 1.289 . S
O278 C277 1.235 . S
C279 C281 1.400 . S
C279 N282 1.351 . S
C279 C284 1.501 . S
C280 C281 1.387 . S
C280 N283 1.341 . S
C281 C279 1.400 . S
C281 C280 1.387 . S
N282 Co273 2.022 . S
N282 C279 1.351 . S
N282 N283 1.365 . S
N283 C280 1.341 . S
N283 N282 1.365 . S
N283 H303 0.862 . S
C284 C279 1.501 . S
C284 H285 0.961 . S
C284 H286 0.961 . S
C284 H287 0.960 . S
H285 C284 0.961 . S
H286 C284 0.961 . S
H287 C284 0.960 . S
C288 N289 1.342 . S
C288 C292 1.401 . S
C288 C293 1.499 . S
N289 Co272 1.989 . S
N289 C288 1.342 . S
N289 N290 1.388 . S
N290 Co273 1.993 1_545 S
N290 N289 1.388 . S
N290 C291 1.346 . S
C291 N290 1.346 . S
C291 C292 1.396 . S
C291 C301 1.510 . S
C292 C288 1.401 . S
C292 C291 1.396 . S
C293 C288 1.499 . S
C293 H294 0.959 . S
C293 H295 0.960 . S
C293 H296 0.961 . S
H294 C293 0.959 . S
H295 C293 0.960 . S
H296 C293 0.961 . S
O297 Co272 1.967 . S
O297 C305 1.258 . S
O298 Co273 1.941 . S
O298 C305 1.266 1_565 S
H299 C301 0.959 . S
H300 C301 0.961 . S
C301 C291 1.510 . S
C301 H299 0.959 . S
C301 H300 0.961 . S
C301 H302 0.960 1_545 S
H302 C301 0.960 1_565 S
H303 N283 0.862 . S
O304 Co272 1.920 . S
O304 C277 1.289 . S
C305 O297 1.258 . S
C305 O298 1.266 1_545 S
Co306 O309 1.970 . S
Co306 N323 1.989 . S
Co306 O331 1.967 . S
Co306 O338 1.920 1_455 S
Co307 O310 1.966 . S
Co307 N316 2.022 . S
Co307 N324 1.993 . S
Co307 O332 1.941 . S
C308 O309 1.258 . S
C308 O310 1.263 . S
O309 Co306 1.970 . S
O309 C308 1.258 . S
O310 Co307 1.966 . S
O310 C308 1.263 . S
C311 O312 1.235 . S
C311 O338 1.289 . S
O312 C311 1.235 . S
C313 C315 1.400 . S
C313 N316 1.351 . S
C313 C318 1.501 . S
C314 C315 1.387 . S
C314 N317 1.341 . S
C315 C313 1.400 . S
C315 C314 1.387 . S
N316 Co307 2.022 . S
N316 C313 1.351 . S
N316 N317 1.365 . S
N317 C314 1.341 . S
N317 N316 1.365 . S
N317 H337 0.862 . S
C318 C313 1.501 . S
C318 H319 0.961 . S
C318 H320 0.961 . S
C318 H321 0.960 . S
H319 C318 0.961 . S
H320 C318 0.961 . S
H321 C318 0.960 . S
C322 N323 1.342 1_655 S
C322 C326 1.401 . S
C322 C327 1.499 . S
N323 Co306 1.989 . S
N323 C322 1.342 1_455 S
N323 N324 1.388 . S
N324 Co307 1.993 . S
N324 N323 1.388 . S
N324 C325 1.346 . S
C325 N324 1.346 . S
C325 C326 1.396 1_455 S
C325 C335 1.510 . S
C326 C322 1.401 . S
C326 C325 1.396 1_655 S
C327 C322 1.499 . S
C327 H328 0.959 . S
C327 H329 0.960 . S
C327 H330 0.961 . S
H328 C327 0.959 . S
H329 C327 0.960 . S
H330 C327 0.961 . S
O331 Co306 1.967 . S
O331 C339 1.258 . S
O332 Co307 1.941 . S
O332 C339 1.266 . S
H333 C335 0.959 . S
H334 C335 0.961 . S
C335 C325 1.510 . S
C335 H333 0.959 . S
C335 H334 0.961 . S
C335 H336 0.960 . S
H336 C335 0.960 . S
H337 N317 0.862 . S
O338 Co306 1.920 1_655 S
O338 C311 1.289 . S
C339 O331 1.258 . S
C339 O332 1.266 . S
Co340 O343 1.970 . S
Co340 N357 1.989 . S
Co340 O365 1.967 . S
Co340 O372 1.920 1_545 S
Co341 O344 1.966 . S
Co341 N350 2.022 . S
Co341 N358 1.993 . S
Co341 O366 1.941 . S
C342 O343 1.258 . S
C342 O344 1.263 . S
O343 Co340 1.970 . S
O343 C342 1.258 . S
O344 Co341 1.966 . S
O344 C342 1.263 . S
C345 O346 1.235 . S
C345 O372 1.289 . S
O346 C345 1.235 . S
C347 C349 1.400 . S
C347 N350 1.351 . S
C347 C352 1.501 . S
C348 C349 1.387 . S
C348 N351 1.341 . S
C349 C347 1.400 . S
C349 C348 1.387 . S
N350 Co341 2.022 . S
N350 C347 1.351 . S
N350 N351 1.365 . S
N351 C348 1.341 . S
N351 N350 1.365 . S
N351 H371 0.862 . S
C352 C347 1.501 . S
C352 H353 0.961 . S
C352 H354 0.961 . S
C352 H355 0.960 . S
H353 C352 0.961 . S
H354 C352 0.961 . S
H355 C352 0.960 . S
C356 N357 1.342 1_565 S
C356 C360 1.401 . S
C356 C361 1.499 . S
N357 Co340 1.989 . S
N357 C356 1.342 1_545 S
N357 N358 1.388 . S
N358 Co341 1.993 . S
N358 N357 1.388 . S
N358 C359 1.346 . S
C359 N358 1.346 . S
C359 C360 1.396 1_545 S
C359 C369 1.510 . S
C360 C356 1.401 . S
C360 C359 1.396 1_565 S
C361 C356 1.499 . S
C361 H362 0.959 . S
C361 H363 0.960 . S
C361 H364 0.961 . S
H362 C361 0.959 . S
H363 C361 0.960 . S
H364 C361 0.961 . S
O365 Co340 1.967 . S
O365 C373 1.258 . S
O366 Co341 1.941 . S
O366 C373 1.266 . S
H367 C369 0.959 . S
H368 C369 0.961 . S
C369 C359 1.510 . S
C369 H367 0.959 . S
C369 H368 0.961 . S
C369 H370 0.960 . S
H370 C369 0.960 . S
H371 N351 0.862 . S
O372 Co340 1.920 1_565 S
O372 C345 1.289 . S
C373 O365 1.258 . S
C373 O366 1.266 . S
Co374 O377 1.996 . S
Co374 N391 1.989 . S
Co374 O399 1.967 . S
Co374 O406 1.920 . S
Co375 O378 1.966 . S
Co375 N384 2.022 . S
Co375 N392 1.993 1_655 S
Co375 O400 1.941 . S
C376 O377 1.229 1_655 S
C376 O378 1.263 . S
O377 Co374 1.996 . S
O377 C376 1.229 1_455 S
O378 Co375 1.966 . S
O378 C376 1.263 . S
C379 O380 1.235 . S
C379 O406 1.289 . S
O380 C379 1.235 . S
C381 C383 1.400 . S
C381 N384 1.351 . S
C381 C386 1.501 . S
C382 C383 1.387 . S
C382 N385 1.341 . S
C383 C381 1.400 . S
C383 C382 1.387 . S
N384 Co375 2.022 . S
N384 C381 1.351 . S
N384 N385 1.365 . S
N385 C382 1.341 . S
N385 N384 1.365 . S
N385 H405 0.862 . S
C386 C381 1.501 . S
C386 H387 0.961 . S
C386 H388 0.961 . S
C386 H389 0.960 . S
H387 C386 0.961 . S
H388 C386 0.961 . S
H389 C386 0.960 . S
C390 N391 1.342 . S
C390 C394 1.401 . S
C390 C395 1.499 . S
N391 Co374 1.989 . S
N391 C390 1.342 . S
N391 N392 1.388 . S
N392 Co375 1.993 1_455 S
N392 N391 1.388 . S
N392 C393 1.346 . S
C393 N392 1.346 . S
C393 C394 1.396 . S
C393 C403 1.510 . S
C394 C390 1.401 . S
C394 C393 1.396 . S
C395 C390 1.499 . S
C395 H396 0.959 . S
C395 H397 0.960 . S
C395 H398 0.961 . S
H396 C395 0.959 . S
H397 C395 0.960 . S
H398 C395 0.961 . S
O399 Co374 1.967 . S
O399 C407 1.258 . S
O400 Co375 1.941 . S
O400 C407 1.266 1_655 S
H401 C403 0.959 . S
H402 C403 0.961 . S
C403 C393 1.510 . S
C403 H401 0.959 . S
C403 H402 0.961 . S
C403 H404 0.960 1_455 S
H404 C403 0.960 1_655 S
H405 N385 0.862 . S
O406 Co374 1.920 . S
O406 C379 1.289 . S
C407 O399 1.258 . S
C407 O400 1.266 1_455 S
Co408 O411 1.970 . S
Co408 N425 1.989 . S
Co408 O433 1.967 . S
Co408 O440 1.920 1_545 S
Co409 O412 1.966 . S
Co409 N418 2.022 . S
Co409 N426 1.993 . S
Co409 O434 1.941 . S
C410 O411 1.258 . S
C410 O412 1.263 . S
O411 Co408 1.970 . S
O411 C410 1.258 . S
O412 Co409 1.966 . S
O412 C410 1.263 . S
C413 O414 1.235 . S
C413 O440 1.289 . S
O414 C413 1.235 . S
C415 C417 1.400 . S
C415 N418 1.351 . S
C415 C420 1.501 . S
C416 C417 1.387 . S
C416 N419 1.341 . S
C417 C415 1.400 . S
C417 C416 1.387 . S
N418 Co409 2.022 . S
N418 C415 1.351 . S
N418 N419 1.365 . S
N419 C416 1.341 . S
N419 N418 1.365 . S
N419 H439 0.862 . S
C420 C415 1.501 . S
C420 H421 0.961 . S
C420 H422 0.961 . S
C420 H423 0.960 . S
H421 C420 0.961 . S
H422 C420 0.961 . S
H423 C420 0.960 . S
C424 N425 1.342 1_565 S
C424 C428 1.401 . S
C424 C429 1.499 . S
N425 Co408 1.989 . S
N425 C424 1.342 1_545 S
N425 N426 1.388 . S
N426 Co409 1.993 . S
N426 N425 1.388 . S
N426 C427 1.346 . S
C427 N426 1.346 . S
C427 C428 1.396 1_545 S
C427 C437 1.510 . S
C428 C424 1.401 . S
C428 C427 1.396 1_565 S
C429 C424 1.499 . S
C429 H430 0.959 . S
C429 H431 0.960 . S
C429 H432 0.961 . S
H430 C429 0.959 . S
H431 C429 0.960 . S
H432 C429 0.961 . S
O433 Co408 1.967 . S
O433 C441 1.258 . S
O434 Co409 1.941 . S
O434 C441 1.266 . S
H435 C437 0.959 . S
H436 C437 0.961 . S
C437 C427 1.510 . S
C437 H435 0.959 . S
C437 H436 0.961 . S
C437 H438 0.960 . S
H438 C437 0.960 . S
H439 N419 0.862 . S
O440 Co408 1.920 1_565 S
O440 C413 1.289 . S
C441 O433 1.258 . S
C441 O434 1.266 . S
Co442 O445 1.996 . S
Co442 N459 1.989 . S
Co442 O467 1.967 . S
Co442 O474 1.920 . S
Co443 O446 1.966 . S
Co443 N452 2.022 . S
Co443 N460 1.993 1_655 S
Co443 O468 1.941 . S
C444 O445 1.229 1_655 S
C444 O446 1.263 . S
O445 Co442 1.996 . S
O445 C444 1.229 1_455 S
O446 Co443 1.966 . S
O446 C444 1.263 . S
C447 O448 1.235 . S
C447 O474 1.289 . S
O448 C447 1.235 . S
C449 C451 1.400 . S
C449 N452 1.351 . S
C449 C454 1.501 . S
C450 C451 1.387 . S
C450 N453 1.341 . S
C451 C449 1.400 . S
C451 C450 1.387 . S
N452 Co443 2.022 . S
N452 C449 1.351 . S
N452 N453 1.365 . S
N453 C450 1.341 . S
N453 N452 1.365 . S
N453 H473 0.862 . S
C454 C449 1.501 . S
C454 H455 0.961 . S
C454 H456 0.961 . S
C454 H457 0.960 . S
H455 C454 0.961 . S
H456 C454 0.961 . S
H457 C454 0.960 . S
C458 N459 1.342 . S
C458 C462 1.401 . S
C458 C463 1.499 . S
N459 Co442 1.989 . S
N459 C458 1.342 . S
N459 N460 1.388 . S
N460 Co443 1.993 1_455 S
N460 N459 1.388 . S
N460 C461 1.346 . S
C461 N460 1.346 . S
C461 C462 1.396 . S
C461 C471 1.510 . S
C462 C458 1.401 . S
C462 C461 1.396 . S
C463 C458 1.499 . S
C463 H464 0.959 . S
C463 H465 0.960 . S
C463 H466 0.961 . S
H464 C463 0.959 . S
H465 C463 0.960 . S
H466 C463 0.961 . S
O467 Co442 1.967 . S
O467 C475 1.258 . S
O468 Co443 1.941 . S
O468 C475 1.266 1_655 S
H469 C471 0.959 . S
H470 C471 0.961 . S
C471 C461 1.510 . S
C471 H469 0.959 . S
C471 H470 0.961 . S
C471 H472 0.960 1_455 S
H472 C471 0.960 1_655 S
H473 N453 0.862 . S
O474 Co442 1.920 . S
O474 C447 1.289 . S
C475 O467 1.258 . S
C475 O468 1.266 1_455 S
Co476 O479 1.996 . S
Co476 N493 1.989 . S
Co476 O501 1.967 . S
Co476 O508 1.920 . S
Co477 O480 1.966 . S
Co477 N486 2.022 . S
Co477 N494 1.993 1_565 S
Co477 O502 1.941 . S
C478 O479 1.229 1_565 S
C478 O480 1.263 . S
O479 Co476 1.996 . S
O479 C478 1.229 1_545 S
O480 Co477 1.966 . S
O480 C478 1.263 . S
C481 O482 1.235 . S
C481 O508 1.289 . S
O482 C481 1.235 . S
C483 C485 1.400 . S
C483 N486 1.351 . S
C483 C488 1.501 . S
C484 C485 1.387 . S
C484 N487 1.341 . S
C485 C483 1.400 . S
C485 C484 1.387 . S
N486 Co477 2.022 . S
N486 C483 1.351 . S
N486 N487 1.365 . S
N487 C484 1.341 . S
N487 N486 1.365 . S
N487 H507 0.862 . S
C488 C483 1.501 . S
C488 H489 0.961 . S
C488 H490 0.961 . S
C488 H491 0.960 . S
H489 C488 0.961 . S
H490 C488 0.961 . S
H491 C488 0.960 . S
C492 N493 1.342 . S
C492 C496 1.401 . S
C492 C497 1.499 . S
N493 Co476 1.989 . S
N493 C492 1.342 . S
N493 N494 1.388 . S
N494 Co477 1.993 1_545 S
N494 N493 1.388 . S
N494 C495 1.346 . S
C495 N494 1.346 . S
C495 C496 1.396 . S
C495 C505 1.510 . S
C496 C492 1.401 . S
C496 C495 1.396 . S
C497 C492 1.499 . S
C497 H498 0.959 . S
C497 H499 0.960 . S
C497 H500 0.961 . S
H498 C497 0.959 . S
H499 C497 0.960 . S
H500 C497 0.961 . S
O501 Co476 1.967 . S
O501 C509 1.258 . S
O502 Co477 1.941 . S
O502 C509 1.266 1_565 S
H503 C505 0.959 . S
H504 C505 0.961 . S
C505 C495 1.510 . S
C505 H503 0.959 . S
C505 H504 0.961 . S
C505 H506 0.960 1_545 S
H506 C505 0.960 1_565 S
H507 N487 0.862 . S
O508 Co476 1.920 . S
O508 C481 1.289 . S
C509 O501 1.258 . S
C509 O502 1.266 1_545 S
Co510 O513 1.970 . S
Co510 N527 1.989 . S
Co510 O535 1.967 . S
Co510 O542 1.920 1_455 S
Co511 O514 1.966 . S
Co511 N520 2.022 . S
Co511 N528 1.993 . S
Co511 O536 1.941 . S
C512 O513 1.258 . S
C512 O514 1.263 . S
O513 Co510 1.970 . S
O513 C512 1.258 . S
O514 Co511 1.966 . S
O514 C512 1.263 . S
C515 O516 1.235 . S
C515 O542 1.289 . S
O516 C515 1.235 . S
C517 C519 1.400 . S
C517 N520 1.351 . S
C517 C522 1.501 . S
C518 C519 1.387 . S
C518 N521 1.341 . S
C519 C517 1.400 . S
C519 C518 1.387 . S
N520 Co511 2.022 . S
N520 C517 1.351 . S
N520 N521 1.365 . S
N521 C518 1.341 . S
N521 N520 1.365 . S
N521 H541 0.862 . S
C522 C517 1.501 . S
C522 H523 0.961 . S
C522 H524 0.961 . S
C522 H525 0.960 . S
H523 C522 0.961 . S
H524 C522 0.961 . S
H525 C522 0.960 . S
C526 N527 1.342 1_655 S
C526 C530 1.401 . S
C526 C531 1.499 . S
N527 Co510 1.989 . S
N527 C526 1.342 1_455 S
N527 N528 1.388 . S
N528 Co511 1.993 . S
N528 N527 1.388 . S
N528 C529 1.346 . S
C529 N528 1.346 . S
C529 C530 1.396 1_455 S
C529 C539 1.510 . S
C530 C526 1.401 . S
C530 C529 1.396 1_655 S
C531 C526 1.499 . S
C531 H532 0.959 . S
C531 H533 0.960 . S
C531 H534 0.961 . S
H532 C531 0.959 . S
H533 C531 0.960 . S
H534 C531 0.961 . S
O535 Co510 1.967 . S
O535 C543 1.258 . S
O536 Co511 1.941 . S
O536 C543 1.266 . S
H537 C539 0.959 . S
H538 C539 0.961 . S
C539 C529 1.510 . S
C539 H537 0.959 . S
C539 H538 0.961 . S
C539 H540 0.960 . S
H540 C539 0.960 . S
H541 N521 0.862 . S
O542 Co510 1.920 1_655 S
O542 C515 1.289 . S
C543 O535 1.258 . S
C543 O536 1.266 . S
Co544 O547 1.996 . S
Co544 N561 1.989 . S
Co544 O569 1.967 . S
Co544 O576 1.920 . S
Co545 O548 1.966 . S
Co545 N554 2.022 . S
Co545 N562 1.993 1_556 S
Co545 O570 1.941 . S
C546 O547 1.229 1_556 S
C546 O548 1.263 . S
O547 Co544 1.996 . S
O547 C546 1.229 1_554 S
O548 Co545 1.966 . S
O548 C546 1.263 . S
C549 O550 1.235 . S
C549 O576 1.289 . S
O550 C549 1.235 . S
C551 C553 1.400 . S
C551 N554 1.351 . S
C551 C556 1.501 . S
C552 C553 1.387 . S
C552 N555 1.341 . S
C553 C551 1.400 . S
C553 C552 1.387 . S
N554 Co545 2.022 . S
N554 C551 1.351 . S
N554 N555 1.365 . S
N555 C552 1.341 . S
N555 N554 1.365 . S
N555 H575 0.862 . S
C556 C551 1.501 . S
C556 H557 0.961 . S
C556 H558 0.961 . S
C556 H559 0.960 . S
H557 C556 0.961 . S
H558 C556 0.961 . S
H559 C556 0.960 . S
C560 N561 1.342 . S
C560 C564 1.401 . S
C560 C565 1.499 . S
N561 Co544 1.989 . S
N561 C560 1.342 . S
N561 N562 1.388 . S
N562 Co545 1.993 1_554 S
N562 N561 1.388 . S
N562 C563 1.346 . S
C563 N562 1.346 . S
C563 C564 1.396 . S
C563 C573 1.510 . S
C564 C560 1.401 . S
C564 C563 1.396 . S
C565 C560 1.499 . S
C565 H566 0.959 . S
C565 H567 0.960 . S
C565 H568 0.961 . S
H566 C565 0.959 . S
H567 C565 0.960 . S
H568 C565 0.961 . S
O569 Co544 1.967 . S
O569 C577 1.258 . S
O570 Co545 1.941 . S
O570 C577 1.266 1_556 S
H571 C573 0.959 . S
H572 C573 0.961 . S
C573 C563 1.510 . S
C573 H571 0.959 . S
C573 H572 0.961 . S
C573 H574 0.960 1_554 S
H574 C573 0.960 1_556 S
H575 N555 0.862 . S
O576 Co544 1.920 . S
O576 C549 1.289 . S
C577 O569 1.258 . S
C577 O570 1.266 1_554 S
Co578 O581 1.970 . S
Co578 N595 1.989 . S
Co578 O603 1.967 . S
Co578 O610 1.920 1_554 S
Co579 O582 1.966 . S
Co579 N588 2.022 . S
Co579 N596 1.993 . S
Co579 O604 1.941 . S
C580 O581 1.258 . S
C580 O582 1.263 . S
O581 Co578 1.970 . S
O581 C580 1.258 . S
O582 Co579 1.966 . S
O582 C580 1.263 . S
C583 O584 1.235 . S
C583 O610 1.289 . S
O584 C583 1.235 . S
C585 C587 1.400 . S
C585 N588 1.351 . S
C585 C590 1.501 . S
C586 C587 1.387 . S
C586 N589 1.341 . S
C587 C585 1.400 . S
C587 C586 1.387 . S
N588 Co579 2.022 . S
N588 C585 1.351 . S
N588 N589 1.365 . S
N589 C586 1.341 . S
N589 N588 1.365 . S
N589 H609 0.862 . S
C590 C585 1.501 . S
C590 H591 0.961 . S
C590 H592 0.961 . S
C590 H593 0.960 . S
H591 C590 0.961 . S
H592 C590 0.961 . S
H593 C590 0.960 . S
C594 N595 1.342 1_556 S
C594 C598 1.401 . S
C594 C599 1.499 . S
N595 Co578 1.989 . S
N595 C594 1.342 1_554 S
N595 N596 1.388 . S
N596 Co579 1.993 . S
N596 N595 1.388 . S
N596 C597 1.346 . S
C597 N596 1.346 . S
C597 C598 1.396 1_554 S
C597 C607 1.510 . S
C598 C594 1.401 . S
C598 C597 1.396 1_556 S
C599 C594 1.499 . S
C599 H600 0.959 . S
C599 H601 0.960 . S
C599 H602 0.961 . S
H600 C599 0.959 . S
H601 C599 0.960 . S
H602 C599 0.961 . S
O603 Co578 1.967 . S
O603 C611 1.258 . S
O604 Co579 1.941 . S
O604 C611 1.266 . S
H605 C607 0.959 . S
H606 C607 0.961 . S
C607 C597 1.510 . S
C607 H605 0.959 . S
C607 H606 0.961 . S
C607 H608 0.960 . S
H608 C607 0.960 . S
H609 N589 0.862 . S
O610 Co578 1.920 1_556 S
O610 C583 1.289 . S
C611 O603 1.258 . S
C611 O604 1.266 . S
Co612 O615 1.970 . S
Co612 N629 1.989 . S
Co612 O637 1.967 . S
Co612 O644 1.920 1_554 S
Co613 O616 1.966 . S
Co613 N622 2.022 . S
Co613 N630 1.993 . S
Co613 O638 1.941 . S
C614 O615 1.258 . S
C614 O616 1.263 . S
O615 Co612 1.970 . S
O615 C614 1.258 . S
O616 Co613 1.966 . S
O616 C614 1.263 . S
C617 O618 1.235 . S
C617 O644 1.289 . S
O618 C617 1.235 . S
C619 C621 1.400 . S
C619 N622 1.351 . S
C619 C624 1.501 . S
C620 C621 1.387 . S
C620 N623 1.341 . S
C621 C619 1.400 . S
C621 C620 1.387 . S
N622 Co613 2.022 . S
N622 C619 1.351 . S
N622 N623 1.365 . S
N623 C620 1.341 . S
N623 N622 1.365 . S
N623 H643 0.862 . S
C624 C619 1.501 . S
C624 H625 0.961 . S
C624 H626 0.961 . S
C624 H627 0.960 . S
H625 C624 0.961 . S
H626 C624 0.961 . S
H627 C624 0.960 . S
C628 N629 1.342 1_556 S
C628 C632 1.401 . S
C628 C633 1.499 . S
N629 Co612 1.989 . S
N629 C628 1.342 1_554 S
N629 N630 1.388 . S
N630 Co613 1.993 . S
N630 N629 1.388 . S
N630 C631 1.346 . S
C631 N630 1.346 . S
C631 C632 1.396 1_554 S
C631 C641 1.510 . S
C632 C628 1.401 . S
C632 C631 1.396 1_556 S
C633 C628 1.499 . S
C633 H634 0.959 . S
C633 H635 0.960 . S
C633 H636 0.961 . S
H634 C633 0.959 . S
H635 C633 0.960 . S
H636 C633 0.961 . S
O637 Co612 1.967 . S
O637 C645 1.258 . S
O638 Co613 1.941 . S
O638 C645 1.266 . S
H639 C641 0.959 . S
H640 C641 0.961 . S
C641 C631 1.510 . S
C641 H639 0.959 . S
C641 H640 0.961 . S
C641 H642 0.960 . S
H642 C641 0.960 . S
H643 N623 0.862 . S
O644 Co612 1.920 1_556 S
O644 C617 1.289 . S
C645 O637 1.258 . S
C645 O638 1.266 . S
Co646 O649 1.970 . S
Co646 N663 1.989 . S
Co646 O671 1.967 . S
Co646 O678 1.920 1_554 S
Co647 O650 1.966 . S
Co647 N656 2.022 . S
Co647 N664 1.993 . S
Co647 O672 1.941 . S
C648 O649 1.258 . S
C648 O650 1.263 . S
O649 Co646 1.970 . S
O649 C648 1.258 . S
O650 Co647 1.966 . S
O650 C648 1.263 . S
C651 O652 1.235 . S
C651 O678 1.289 . S
O652 C651 1.235 . S
C653 C655 1.400 . S
C653 N656 1.351 . S
C653 C658 1.501 . S
C654 C655 1.387 . S
C654 N657 1.341 . S
C655 C653 1.400 . S
C655 C654 1.387 . S
N656 Co647 2.022 . S
N656 C653 1.351 . S
N656 N657 1.365 . S
N657 C654 1.341 . S
N657 N656 1.365 . S
N657 H677 0.862 . S
C658 C653 1.501 . S
C658 H659 0.961 . S
C658 H660 0.961 . S
C658 H661 0.960 . S
H659 C658 0.961 . S
H660 C658 0.961 . S
H661 C658 0.960 . S
C662 N663 1.342 1_556 S
C662 C666 1.401 . S
C662 C667 1.499 . S
N663 Co646 1.989 . S
N663 C662 1.342 1_554 S
N663 N664 1.388 . S
N664 Co647 1.993 . S
N664 N663 1.388 . S
N664 C665 1.346 . S
C665 N664 1.346 . S
C665 C666 1.396 1_554 S
C665 C675 1.510 . S
C666 C662 1.401 . S
C666 C665 1.396 1_556 S
C667 C662 1.499 . S
C667 H668 0.959 . S
C667 H669 0.960 . S
C667 H670 0.961 . S
H668 C667 0.959 . S
H669 C667 0.960 . S
H670 C667 0.961 . S
O671 Co646 1.967 . S
O671 C679 1.258 . S
O672 Co647 1.941 . S
O672 C679 1.266 . S
H673 C675 0.959 . S
H674 C675 0.961 . S
C675 C665 1.510 . S
C675 H673 0.959 . S
C675 H674 0.961 . S
C675 H676 0.960 . S
H676 C675 0.960 . S
H677 N657 0.862 . S
O678 Co646 1.920 1_556 S
O678 C651 1.289 . S
C679 O671 1.258 . S
C679 O672 1.266 . S
Co680 O683 1.970 . S
Co680 N697 1.989 . S
Co680 O705 1.967 . S
Co680 O712 1.920 1_554 S
Co681 O684 1.966 . S
Co681 N690 2.022 . S
Co681 N698 1.993 . S
Co681 O706 1.941 . S
C682 O683 1.258 . S
C682 O684 1.263 . S
O683 Co680 1.970 . S
O683 C682 1.258 . S
O684 Co681 1.966 . S
O684 C682 1.263 . S
C685 O686 1.235 . S
C685 O712 1.289 . S
O686 C685 1.235 . S
C687 C689 1.400 . S
C687 N690 1.351 . S
C687 C692 1.501 . S
C688 C689 1.387 . S
C688 N691 1.341 . S
C689 C687 1.400 . S
C689 C688 1.387 . S
N690 Co681 2.022 . S
N690 C687 1.351 . S
N690 N691 1.365 . S
N691 C688 1.341 . S
N691 N690 1.365 . S
N691 H711 0.862 . S
C692 C687 1.501 . S
C692 H693 0.961 . S
C692 H694 0.961 . S
C692 H695 0.960 . S
H693 C692 0.961 . S
H694 C692 0.961 . S
H695 C692 0.960 . S
C696 N697 1.342 1_556 S
C696 C700 1.401 . S
C696 C701 1.499 . S
N697 Co680 1.989 . S
N697 C696 1.342 1_554 S
N697 N698 1.388 . S
N698 Co681 1.993 . S
N698 N697 1.388 . S
N698 C699 1.346 . S
C699 N698 1.346 . S
C699 C700 1.396 1_554 S
C699 C709 1.510 . S
C700 C696 1.401 . S
C700 C699 1.396 1_556 S
C701 C696 1.499 . S
C701 H702 0.959 . S
C701 H703 0.960 . S
C701 H704 0.961 . S
H702 C701 0.959 . S
H703 C701 0.960 . S
H704 C701 0.961 . S
O705 Co680 1.967 . S
O705 C713 1.258 . S
O706 Co681 1.941 . S
O706 C713 1.266 . S
H707 C709 0.959 . S
H708 C709 0.961 . S
C709 C699 1.510 . S
C709 H707 0.959 . S
C709 H708 0.961 . S
C709 H710 0.960 . S
H710 C709 0.960 . S
H711 N691 0.862 . S
O712 Co680 1.920 1_556 S
O712 C685 1.289 . S
C713 O705 1.258 . S
C713 O706 1.266 . S
Co714 O717 1.996 . S
Co714 N731 1.989 . S
Co714 O739 1.967 . S
Co714 O746 1.920 . S
Co715 O718 1.966 . S
Co715 N724 2.022 . S
Co715 N732 1.993 1_556 S
Co715 O740 1.941 . S
C716 O717 1.229 1_556 S
C716 O718 1.263 . S
O717 Co714 1.996 . S
O717 C716 1.229 1_554 S
O718 Co715 1.966 . S
O718 C716 1.263 . S
C719 O720 1.235 . S
C719 O746 1.289 . S
O720 C719 1.235 . S
C721 C723 1.400 . S
C721 N724 1.351 . S
C721 C726 1.501 . S
C722 C723 1.387 . S
C722 N725 1.341 . S
C723 C721 1.400 . S
C723 C722 1.387 . S
N724 Co715 2.022 . S
N724 C721 1.351 . S
N724 N725 1.365 . S
N725 C722 1.341 . S
N725 N724 1.365 . S
N725 H745 0.862 . S
C726 C721 1.501 . S
C726 H727 0.961 . S
C726 H728 0.961 . S
C726 H729 0.960 . S
H727 C726 0.961 . S
H728 C726 0.961 . S
H729 C726 0.960 . S
C730 N731 1.342 . S
C730 C734 1.401 . S
C730 C735 1.499 . S
N731 Co714 1.989 . S
N731 C730 1.342 . S
N731 N732 1.388 . S
N732 Co715 1.993 1_554 S
N732 N731 1.388 . S
N732 C733 1.346 . S
C733 N732 1.346 . S
C733 C734 1.396 . S
C733 C743 1.510 . S
C734 C730 1.401 . S
C734 C733 1.396 . S
C735 C730 1.499 . S
C735 H736 0.959 . S
C735 H737 0.960 . S
C735 H738 0.961 . S
H736 C735 0.959 . S
H737 C735 0.960 . S
H738 C735 0.961 . S
O739 Co714 1.967 . S
O739 C747 1.258 . S
O740 Co715 1.941 . S
O740 C747 1.266 1_556 S
H741 C743 0.959 . S
H742 C743 0.961 . S
C743 C733 1.510 . S
C743 H741 0.959 . S
C743 H742 0.961 . S
C743 H744 0.960 1_554 S
H744 C743 0.960 1_556 S
H745 N725 0.862 . S
O746 Co714 1.920 . S
O746 C719 1.289 . S
C747 O739 1.258 . S
C747 O740 1.266 1_554 S
Co748 O751 1.996 . S
Co748 N765 1.989 . S
Co748 O773 1.967 . S
Co748 O780 1.920 . S
Co749 O752 1.966 . S
Co749 N758 2.022 . S
Co749 N766 1.993 1_556 S
Co749 O774 1.941 . S
C750 O751 1.229 1_556 S
C750 O752 1.263 . S
O751 Co748 1.996 . S
O751 C750 1.229 1_554 S
O752 Co749 1.966 . S
O752 C750 1.263 . S
C753 O754 1.235 . S
C753 O780 1.289 . S
O754 C753 1.235 . S
C755 C757 1.400 . S
C755 N758 1.351 . S
C755 C760 1.501 . S
C756 C757 1.387 . S
C756 N759 1.341 . S
C757 C755 1.400 . S
C757 C756 1.387 . S
N758 Co749 2.022 . S
N758 C755 1.351 . S
N758 N759 1.365 . S
N759 C756 1.341 . S
N759 N758 1.365 . S
N759 H779 0.862 . S
C760 C755 1.501 . S
C760 H761 0.961 . S
C760 H762 0.961 . S
C760 H763 0.960 . S
H761 C760 0.961 . S
H762 C760 0.961 . S
H763 C760 0.960 . S
C764 N765 1.342 . S
C764 C768 1.401 . S
C764 C769 1.499 . S
N765 Co748 1.989 . S
N765 C764 1.342 . S
N765 N766 1.388 . S
N766 Co749 1.993 1_554 S
N766 N765 1.388 . S
N766 C767 1.346 . S
C767 N766 1.346 . S
C767 C768 1.396 . S
C767 C777 1.510 . S
C768 C764 1.401 . S
C768 C767 1.396 . S
C769 C764 1.499 . S
C769 H770 0.959 . S
C769 H771 0.960 . S
C769 H772 0.961 . S
H770 C769 0.959 . S
H771 C769 0.960 . S
H772 C769 0.961 . S
O773 Co748 1.967 . S
O773 C781 1.258 . S
O774 Co749 1.941 . S
O774 C781 1.266 1_556 S
H775 C777 0.959 . S
H776 C777 0.961 . S
C777 C767 1.510 . S
C777 H775 0.959 . S
C777 H776 0.961 . S
C777 H778 0.960 1_554 S
H778 C777 0.960 1_556 S
H779 N759 0.862 . S
O780 Co748 1.920 . S
O780 C753 1.289 . S
C781 O773 1.258 . S
C781 O774 1.266 1_554 S
Co782 O785 1.996 . S
Co782 N799 1.989 . S
Co782 O807 1.967 . S
Co782 O814 1.920 . S
Co783 O786 1.966 . S
Co783 N792 2.022 . S
Co783 N800 1.993 1_556 S
Co783 O808 1.941 . S
C784 O785 1.229 1_556 S
C784 O786 1.263 . S
O785 Co782 1.996 . S
O785 C784 1.229 1_554 S
O786 Co783 1.966 . S
O786 C784 1.263 . S
C787 O788 1.235 . S
C787 O814 1.289 . S
O788 C787 1.235 . S
C789 C791 1.400 . S
C789 N792 1.351 . S
C789 C794 1.501 . S
C790 C791 1.387 . S
C790 N793 1.341 . S
C791 C789 1.400 . S
C791 C790 1.387 . S
N792 Co783 2.022 . S
N792 C789 1.351 . S
N792 N793 1.365 . S
N793 C790 1.341 . S
N793 N792 1.365 . S
N793 H813 0.862 . S
C794 C789 1.501 . S
C794 H795 0.961 . S
C794 H796 0.961 . S
C794 H797 0.960 . S
H795 C794 0.961 . S
H796 C794 0.961 . S
H797 C794 0.960 . S
C798 N799 1.342 . S
C798 C802 1.401 . S
C798 C803 1.499 . S
N799 Co782 1.989 . S
N799 C798 1.342 . S
N799 N800 1.388 . S
N800 Co783 1.993 1_554 S
N800 N799 1.388 . S
N800 C801 1.346 . S
C801 N800 1.346 . S
C801 C802 1.396 . S
C801 C811 1.510 . S
C802 C798 1.401 . S
C802 C801 1.396 . S
C803 C798 1.499 . S
C803 H804 0.959 . S
C803 H805 0.960 . S
C803 H806 0.961 . S
H804 C803 0.959 . S
H805 C803 0.960 . S
H806 C803 0.961 . S
O807 Co782 1.967 . S
O807 C815 1.258 . S
O808 Co783 1.941 . S
O808 C815 1.266 1_556 S
H809 C811 0.959 . S
H810 C811 0.961 . S
C811 C801 1.510 . S
C811 H809 0.959 . S
C811 H810 0.961 . S
C811 H812 0.960 1_554 S
H812 C811 0.960 1_556 S
H813 N793 0.862 . S
O814 Co782 1.920 . S
O814 C787 1.289 . S
C815 O807 1.258 . S
C815 O808 1.266 1_554 S
Co816 O819 1.970 . S
Co816 N833 1.989 . S
Co816 O841 1.967 . S
Co816 O848 1.920 . S
Co817 O820 1.966 . S
Co817 N826 2.022 . S
Co817 N834 1.993 . S
Co817 O842 1.941 . S
C818 O819 1.258 . S
C818 O820 1.263 . S
O819 Co816 1.970 . S
O819 C818 1.258 . S
O820 Co817 1.966 . S
O820 C818 1.263 . S
C821 O822 1.235 . S
C821 O848 1.289 . S
O822 C821 1.235 . S
C823 C825 1.400 . S
C823 N826 1.351 . S
C823 C828 1.501 . S
C824 C825 1.387 . S
C824 N827 1.341 . S
C825 C823 1.400 . S
C825 C824 1.387 . S
N826 Co817 2.022 . S
N826 C823 1.351 . S
N826 N827 1.365 . S
N827 C824 1.341 . S
N827 N826 1.365 . S
N827 H847 0.862 . S
C828 C823 1.501 . S
C828 H829 0.961 . S
C828 H830 0.961 . S
C828 H831 0.960 . S
H829 C828 0.961 . S
H830 C828 0.961 . S
H831 C828 0.960 . S
C832 N833 1.342 . S
C832 C836 1.401 . S
C832 C837 1.499 . S
N833 Co816 1.989 . S
N833 C832 1.342 . S
N833 N834 1.388 . S
N834 Co817 1.993 . S
N834 N833 1.388 . S
N834 C835 1.346 . S
C835 N834 1.346 . S
C835 C836 1.396 . S
C835 C845 1.510 . S
C836 C832 1.401 . S
C836 C835 1.396 . S
C837 C832 1.499 . S
C837 H838 0.959 . S
C837 H839 0.960 . S
C837 H840 0.961 . S
H838 C837 0.959 . S
H839 C837 0.960 . S
H840 C837 0.961 . S
O841 Co816 1.967 . S
O841 C849 1.258 . S
O842 Co817 1.941 . S
O842 C849 1.266 . S
H843 C845 0.959 . S
H844 C845 0.961 . S
C845 C835 1.510 . S
C845 H843 0.959 . S
C845 H844 0.961 . S
C845 H846 0.960 . S
H846 C845 0.960 . S
H847 N827 0.862 . S
O848 Co816 1.920 . S
O848 C821 1.289 . S
C849 O841 1.258 . S
C849 O842 1.266 . S
Co850 O853 1.970 . S
Co850 N867 1.989 . S
Co850 O875 1.967 . S
Co850 O882 1.920 . S
Co851 O854 1.966 . S
Co851 N860 2.022 . S
Co851 N868 1.993 . S
Co851 O876 1.941 . S
C852 O853 1.258 . S
C852 O854 1.263 . S
O853 Co850 1.970 . S
O853 C852 1.258 . S
O854 Co851 1.966 . S
O854 C852 1.263 . S
C855 O856 1.235 . S
C855 O882 1.289 . S
O856 C855 1.235 . S
C857 C859 1.400 . S
C857 N860 1.351 . S
C857 C862 1.501 . S
C858 C859 1.387 . S
C858 N861 1.341 . S
C859 C857 1.400 . S
C859 C858 1.387 . S
N860 Co851 2.022 . S
N860 C857 1.351 . S
N860 N861 1.365 . S
N861 C858 1.341 . S
N861 N860 1.365 . S
N861 H881 0.862 . S
C862 C857 1.501 . S
C862 H863 0.961 . S
C862 H864 0.961 . S
C862 H865 0.960 . S
H863 C862 0.961 . S
H864 C862 0.961 . S
H865 C862 0.960 . S
C866 N867 1.342 . S
C866 C870 1.401 . S
C866 C871 1.499 . S
N867 Co850 1.989 . S
N867 C866 1.342 . S
N867 N868 1.388 . S
N868 Co851 1.993 . S
N868 N867 1.388 . S
N868 C869 1.346 . S
C869 N868 1.346 . S
C869 C870 1.396 . S
C869 C879 1.510 . S
C870 C866 1.401 . S
C870 C869 1.396 . S
C871 C866 1.499 . S
C871 H872 0.959 . S
C871 H873 0.960 . S
C871 H874 0.961 . S
H872 C871 0.959 . S
H873 C871 0.960 . S
H874 C871 0.961 . S
O875 Co850 1.967 . S
O875 C883 1.258 . S
O876 Co851 1.941 . S
O876 C883 1.266 . S
H877 C879 0.959 . S
H878 C879 0.961 . S
C879 C869 1.510 . S
C879 H877 0.959 . S
C879 H878 0.961 . S
C879 H880 0.960 . S
H880 C879 0.960 . S
H881 N861 0.862 . S
O882 Co850 1.920 . S
O882 C855 1.289 . S
C883 O875 1.258 . S
C883 O876 1.266 . S
Co884 O887 1.970 . S
Co884 N901 1.989 . S
Co884 O909 1.967 . S
Co884 O916 1.920 . S
Co885 O888 1.966 . S
Co885 N894 2.022 . S
Co885 N902 1.993 . S
Co885 O910 1.941 . S
C886 O887 1.258 . S
C886 O888 1.263 . S
O887 Co884 1.970 . S
O887 C886 1.258 . S
O888 Co885 1.966 . S
O888 C886 1.263 . S
C889 O890 1.235 . S
C889 O916 1.289 . S
O890 C889 1.235 . S
C891 C893 1.400 . S
C891 N894 1.351 . S
C891 C896 1.501 . S
C892 C893 1.387 . S
C892 N895 1.341 . S
C893 C891 1.400 . S
C893 C892 1.387 . S
N894 Co885 2.022 . S
N894 C891 1.351 . S
N894 N895 1.365 . S
N895 C892 1.341 . S
N895 N894 1.365 . S
N895 H915 0.862 . S
C896 C891 1.501 . S
C896 H897 0.961 . S
C896 H898 0.961 . S
C896 H899 0.960 . S
H897 C896 0.961 . S
H898 C896 0.961 . S
H899 C896 0.960 . S
C900 N901 1.342 . S
C900 C904 1.401 . S
C900 C905 1.499 . S
N901 Co884 1.989 . S
N901 C900 1.342 . S
N901 N902 1.388 . S
N902 Co885 1.993 . S
N902 N901 1.388 . S
N902 C903 1.346 . S
C903 N902 1.346 . S
C903 C904 1.396 . S
C903 C913 1.510 . S
C904 C900 1.401 . S
C904 C903 1.396 . S
C905 C900 1.499 . S
C905 H906 0.959 . S
C905 H907 0.960 . S
C905 H908 0.961 . S
H906 C905 0.959 . S
H907 C905 0.960 . S
H908 C905 0.961 . S
O909 Co884 1.967 . S
O909 C917 1.258 . S
O910 Co885 1.941 . S
O910 C917 1.266 . S
H911 C913 0.959 . S
H912 C913 0.961 . S
C913 C903 1.510 . S
C913 H911 0.959 . S
C913 H912 0.961 . S
C913 H914 0.960 . S
H914 C913 0.960 . S
H915 N895 0.862 . S
O916 Co884 1.920 . S
O916 C889 1.289 . S
C917 O909 1.258 . S
C917 O910 1.266 . S
Co918 O921 1.970 . S
Co918 N935 1.989 . S
Co918 O943 1.967 . S
Co918 O950 1.920 . S
Co919 O922 1.966 . S
Co919 N928 2.022 . S
Co919 N936 1.993 . S
Co919 O944 1.941 . S
C920 O921 1.258 . S
C920 O922 1.263 . S
O921 Co918 1.970 . S
O921 C920 1.258 . S
O922 Co919 1.966 . S
O922 C920 1.263 . S
C923 O924 1.235 . S
C923 O950 1.289 . S
O924 C923 1.235 . S
C925 C927 1.400 . S
C925 N928 1.351 . S
C925 C930 1.501 . S
C926 C927 1.387 . S
C926 N929 1.341 . S
C927 C925 1.400 . S
C927 C926 1.387 . S
N928 Co919 2.022 . S
N928 C925 1.351 . S
N928 N929 1.365 . S
N929 C926 1.341 . S
N929 N928 1.365 . S
N929 H949 0.862 . S
C930 C925 1.501 . S
C930 H931 0.961 . S
C930 H932 0.961 . S
C930 H933 0.960 . S
H931 C930 0.961 . S
H932 C930 0.961 . S
H933 C930 0.960 . S
C934 N935 1.342 . S
C934 C938 1.401 . S
C934 C939 1.499 . S
N935 Co918 1.989 . S
N935 C934 1.342 . S
N935 N936 1.388 . S
N936 Co919 1.993 . S
N936 N935 1.388 . S
N936 C937 1.346 . S
C937 N936 1.346 . S
C937 C938 1.396 . S
C937 C947 1.510 . S
C938 C934 1.401 . S
C938 C937 1.396 . S
C939 C934 1.499 . S
C939 H940 0.959 . S
C939 H941 0.960 . S
C939 H942 0.961 . S
H940 C939 0.959 . S
H941 C939 0.960 . S
H942 C939 0.961 . S
O943 Co918 1.967 . S
O943 C951 1.258 . S
O944 Co919 1.941 . S
O944 C951 1.266 . S
H945 C947 0.959 . S
H946 C947 0.961 . S
C947 C937 1.510 . S
C947 H945 0.959 . S
C947 H946 0.961 . S
C947 H948 0.960 . S
H948 C947 0.960 . S
H949 N929 0.862 . S
O950 Co918 1.920 . S
O950 C923 1.289 . S
C951 O943 1.258 . S
C951 O944 1.266 . S
Co952 O955 1.970 . S
Co952 N969 1.989 . S
Co952 O977 1.967 . S
Co952 O984 1.920 . S
Co953 O956 1.966 . S
Co953 N962 2.022 . S
Co953 N970 1.993 . S
Co953 O978 1.941 . S
C954 O955 1.258 . S
C954 O956 1.263 . S
O955 Co952 1.970 . S
O955 C954 1.258 . S
O956 Co953 1.966 . S
O956 C954 1.263 . S
C957 O958 1.235 . S
C957 O984 1.289 . S
O958 C957 1.235 . S
C959 C961 1.400 . S
C959 N962 1.351 . S
C959 C964 1.501 . S
C960 C961 1.387 . S
C960 N963 1.341 . S
C961 C959 1.400 . S
C961 C960 1.387 . S
N962 Co953 2.022 . S
N962 C959 1.351 . S
N962 N963 1.365 . S
N963 C960 1.341 . S
N963 N962 1.365 . S
N963 H983 0.862 . S
C964 C959 1.501 . S
C964 H965 0.961 . S
C964 H966 0.961 . S
C964 H967 0.960 . S
H965 C964 0.961 . S
H966 C964 0.961 . S
H967 C964 0.960 . S
C968 N969 1.342 . S
C968 C972 1.401 . S
C968 C973 1.499 . S
N969 Co952 1.989 . S
N969 C968 1.342 . S
N969 N970 1.388 . S
N970 Co953 1.993 . S
N970 N969 1.388 . S
N970 C971 1.346 . S
C971 N970 1.346 . S
C971 C972 1.396 . S
C971 C981 1.510 . S
C972 C968 1.401 . S
C972 C971 1.396 . S
C973 C968 1.499 . S
C973 H974 0.959 . S
C973 H975 0.960 . S
C973 H976 0.961 . S
H974 C973 0.959 . S
H975 C973 0.960 . S
H976 C973 0.961 . S
O977 Co952 1.967 . S
O977 C985 1.258 . S
O978 Co953 1.941 . S
O978 C985 1.266 . S
H979 C981 0.959 . S
H980 C981 0.961 . S
C981 C971 1.510 . S
C981 H979 0.959 . S
C981 H980 0.961 . S
C981 H982 0.960 . S
H982 C981 0.960 . S
H983 N963 0.862 . S
O984 Co952 1.920 . S
O984 C957 1.289 . S
C985 O977 1.258 . S
C985 O978 1.266 . S
Co986 O989 1.970 . S
Co986 N1003 1.989 . S
Co986 O1011 1.967 . S
Co986 O1018 1.920 . S
Co987 O990 1.966 . S
Co987 N996 2.022 . S
Co987 N1004 1.993 . S
Co987 O1012 1.941 . S
C988 O989 1.258 . S
C988 O990 1.263 . S
O989 Co986 1.970 . S
O989 C988 1.258 . S
O990 Co987 1.966 . S
O990 C988 1.263 . S
C991 O992 1.235 . S
C991 O1018 1.289 . S
O992 C991 1.235 . S
C993 C995 1.400 . S
C993 N996 1.351 . S
C993 C998 1.501 . S
C994 C995 1.387 . S
C994 N997 1.341 . S
C995 C993 1.400 . S
C995 C994 1.387 . S
N996 Co987 2.022 . S
N996 C993 1.351 . S
N996 N997 1.365 . S
N997 C994 1.341 . S
N997 N996 1.365 . S
N997 H1017 0.862 . S
C998 C993 1.501 . S
C998 H999 0.961 . S
C998 H1000 0.961 . S
C998 H1001 0.960 . S
H999 C998 0.961 . S
H1000 C998 0.961 . S
H1001 C998 0.960 . S
C1002 N1003 1.342 . S
C1002 C1006 1.401 . S
C1002 C1007 1.499 . S
N1003 Co986 1.989 . S
N1003 C1002 1.342 . S
N1003 N1004 1.388 . S
N1004 Co987 1.993 . S
N1004 N1003 1.388 . S
N1004 C1005 1.346 . S
C1005 N1004 1.346 . S
C1005 C1006 1.396 . S
C1005 C1015 1.510 . S
C1006 C1002 1.401 . S
C1006 C1005 1.396 . S
C1007 C1002 1.499 . S
C1007 H1008 0.959 . S
C1007 H1009 0.960 . S
C1007 H1010 0.961 . S
H1008 C1007 0.959 . S
H1009 C1007 0.960 . S
H1010 C1007 0.961 . S
O1011 Co986 1.967 . S
O1011 C1019 1.258 . S
O1012 Co987 1.941 . S
O1012 C1019 1.266 . S
H1013 C1015 0.959 . S
H1014 C1015 0.961 . S
C1015 C1005 1.510 . S
C1015 H1013 0.959 . S
C1015 H1014 0.961 . S
C1015 H1016 0.960 . S
H1016 C1015 0.960 . S
H1017 N997 0.862 . S
O1018 Co986 1.920 . S
O1018 C991 1.289 . S
C1019 O1011 1.258 . S
C1019 O1012 1.266 . S
Co1020 O1023 1.970 . S
Co1020 N1037 1.989 . S
Co1020 O1045 1.967 . S
Co1020 O1052 1.920 . S
Co1021 O1024 1.966 . S
Co1021 N1030 2.022 . S
Co1021 N1038 1.993 . S
Co1021 O1046 1.941 . S
C1022 O1023 1.258 . S
C1022 O1024 1.263 . S
O1023 Co1020 1.970 . S
O1023 C1022 1.258 . S
O1024 Co1021 1.966 . S
O1024 C1022 1.263 . S
C1025 O1026 1.235 . S
C1025 O1052 1.289 . S
O1026 C1025 1.235 . S
C1027 C1029 1.400 . S
C1027 N1030 1.351 . S
C1027 C1032 1.501 . S
C1028 C1029 1.387 . S
C1028 N1031 1.341 . S
C1029 C1027 1.400 . S
C1029 C1028 1.387 . S
N1030 Co1021 2.022 . S
N1030 C1027 1.351 . S
N1030 N1031 1.365 . S
N1031 C1028 1.341 . S
N1031 N1030 1.365 . S
N1031 H1051 0.862 . S
C1032 C1027 1.501 . S
C1032 H1033 0.961 . S
C1032 H1034 0.961 . S
C1032 H1035 0.960 . S
H1033 C1032 0.961 . S
H1034 C1032 0.961 . S
H1035 C1032 0.960 . S
C1036 N1037 1.342 . S
C1036 C1040 1.401 . S
C1036 C1041 1.499 . S
N1037 Co1020 1.989 . S
N1037 C1036 1.342 . S
N1037 N1038 1.388 . S
N1038 Co1021 1.993 . S
N1038 N1037 1.388 . S
N1038 C1039 1.346 . S
C1039 N1038 1.346 . S
C1039 C1040 1.396 . S
C1039 C1049 1.510 . S
C1040 C1036 1.401 . S
C1040 C1039 1.396 . S
C1041 C1036 1.499 . S
C1041 H1042 0.959 . S
C1041 H1043 0.960 . S
C1041 H1044 0.961 . S
H1042 C1041 0.959 . S
H1043 C1041 0.960 . S
H1044 C1041 0.961 . S
O1045 Co1020 1.967 . S
O1045 C1053 1.258 . S
O1046 Co1021 1.941 . S
O1046 C1053 1.266 . S
H1047 C1049 0.959 . S
H1048 C1049 0.961 . S
C1049 C1039 1.510 . S
C1049 H1047 0.959 . S
C1049 H1048 0.961 . S
C1049 H1050 0.960 . S
H1050 C1049 0.960 . S
H1051 N1031 0.862 . S
O1052 Co1020 1.920 . S
O1052 C1025 1.289 . S
C1053 O1045 1.258 . S
C1053 O1046 1.266 . S
Co1054 O1057 1.970 . S
Co1054 N1071 1.989 . S
Co1054 O1079 1.967 . S
Co1054 O1086 1.920 . S
Co1055 O1058 1.966 . S
Co1055 N1064 2.022 . S
Co1055 N1072 1.993 . S
Co1055 O1080 1.941 . S
C1056 O1057 1.258 . S
C1056 O1058 1.263 . S
O1057 Co1054 1.970 . S
O1057 C1056 1.258 . S
O1058 Co1055 1.966 . S
O1058 C1056 1.263 . S
C1059 O1060 1.235 . S
C1059 O1086 1.289 . S
O1060 C1059 1.235 . S
C1061 C1063 1.400 . S
C1061 N1064 1.351 . S
C1061 C1066 1.501 . S
C1062 C1063 1.387 . S
C1062 N1065 1.341 . S
C1063 C1061 1.400 . S
C1063 C1062 1.387 . S
N1064 Co1055 2.022 . S
N1064 C1061 1.351 . S
N1064 N1065 1.365 . S
N1065 C1062 1.341 . S
N1065 N1064 1.365 . S
N1065 H1085 0.862 . S
C1066 C1061 1.501 . S
C1066 H1067 0.961 . S
C1066 H1068 0.961 . S
C1066 H1069 0.960 . S
H1067 C1066 0.961 . S
H1068 C1066 0.961 . S
H1069 C1066 0.960 . S
C1070 N1071 1.342 . S
C1070 C1074 1.401 . S
C1070 C1075 1.499 . S
N1071 Co1054 1.989 . S
N1071 C1070 1.342 . S
N1071 N1072 1.388 . S
N1072 Co1055 1.993 . S
N1072 N1071 1.388 . S
N1072 C1073 1.346 . S
C1073 N1072 1.346 . S
C1073 C1074 1.396 . S
C1073 C1083 1.510 . S
C1074 C1070 1.401 . S
C1074 C1073 1.396 . S
C1075 C1070 1.499 . S
C1075 H1076 0.959 . S
C1075 H1077 0.960 . S
C1075 H1078 0.961 . S
H1076 C1075 0.959 . S
H1077 C1075 0.960 . S
H1078 C1075 0.961 . S
O1079 Co1054 1.967 . S
O1079 C1087 1.258 . S
O1080 Co1055 1.941 . S
O1080 C1087 1.266 . S
H1081 C1083 0.959 . S
H1082 C1083 0.961 . S
C1083 C1073 1.510 . S
C1083 H1081 0.959 . S
C1083 H1082 0.961 . S
C1083 H1084 0.960 . S
H1084 C1083 0.960 . S
H1085 N1065 0.862 . S
O1086 Co1054 1.920 . S
O1086 C1059 1.289 . S
C1087 O1079 1.258 . S
C1087 O1080 1.266 . S
Co1088 O1091 1.970 . S
Co1088 N1105 1.989 . S
Co1088 O1113 1.967 . S
Co1088 O1120 1.920 . S
Co1089 O1092 1.966 . S
Co1089 N1098 2.022 . S
Co1089 N1106 1.993 . S
Co1089 O1114 1.941 . S
C1090 O1091 1.258 . S
C1090 O1092 1.263 . S
O1091 Co1088 1.970 . S
O1091 C1090 1.258 . S
O1092 Co1089 1.966 . S
O1092 C1090 1.263 . S
C1093 O1094 1.235 . S
C1093 O1120 1.289 . S
O1094 C1093 1.235 . S
C1095 C1097 1.400 . S
C1095 N1098 1.351 . S
C1095 C1100 1.501 . S
C1096 C1097 1.387 . S
C1096 N1099 1.341 . S
C1097 C1095 1.400 . S
C1097 C1096 1.387 . S
N1098 Co1089 2.022 . S
N1098 C1095 1.351 . S
N1098 N1099 1.365 . S
N1099 C1096 1.341 . S
N1099 N1098 1.365 . S
N1099 H1119 0.862 . S
C1100 C1095 1.501 . S
C1100 H1101 0.961 . S
C1100 H1102 0.961 . S
C1100 H1103 0.960 . S
H1101 C1100 0.961 . S
H1102 C1100 0.961 . S
H1103 C1100 0.960 . S
C1104 N1105 1.342 . S
C1104 C1108 1.401 . S
C1104 C1109 1.499 . S
N1105 Co1088 1.989 . S
N1105 C1104 1.342 . S
N1105 N1106 1.388 . S
N1106 Co1089 1.993 . S
N1106 N1105 1.388 . S
N1106 C1107 1.346 . S
C1107 N1106 1.346 . S
C1107 C1108 1.396 . S
C1107 C1117 1.510 . S
C1108 C1104 1.401 . S
C1108 C1107 1.396 . S
C1109 C1104 1.499 . S
C1109 H1110 0.959 . S
C1109 H1111 0.960 . S
C1109 H1112 0.961 . S
H1110 C1109 0.959 . S
H1111 C1109 0.960 . S
H1112 C1109 0.961 . S
O1113 Co1088 1.967 . S
O1113 C1121 1.258 . S
O1114 Co1089 1.941 . S
O1114 C1121 1.266 . S
H1115 C1117 0.959 . S
H1116 C1117 0.961 . S
C1117 C1107 1.510 . S
C1117 H1115 0.959 . S
C1117 H1116 0.961 . S
C1117 H1118 0.960 . S
H1118 C1117 0.960 . S
H1119 N1099 0.862 . S
O1120 Co1088 1.920 . S
O1120 C1093 1.289 . S
C1121 O1113 1.258 . S
C1121 O1114 1.266 . S
Co1122 O1125 1.970 . S
Co1122 N1139 1.989 . S
Co1122 O1147 1.967 . S
Co1122 O1154 1.920 . S
Co1123 O1126 1.966 . S
Co1123 N1132 2.022 . S
Co1123 N1140 1.993 . S
Co1123 O1148 1.941 . S
C1124 O1125 1.258 . S
C1124 O1126 1.263 . S
O1125 Co1122 1.970 . S
O1125 C1124 1.258 . S
O1126 Co1123 1.966 . S
O1126 C1124 1.263 . S
C1127 O1128 1.235 . S
C1127 O1154 1.289 . S
O1128 C1127 1.235 . S
C1129 C1131 1.400 . S
C1129 N1132 1.351 . S
C1129 C1134 1.501 . S
C1130 C1131 1.387 . S
C1130 N1133 1.341 . S
C1131 C1129 1.400 . S
C1131 C1130 1.387 . S
N1132 Co1123 2.022 . S
N1132 C1129 1.351 . S
N1132 N1133 1.365 . S
N1133 C1130 1.341 . S
N1133 N1132 1.365 . S
N1133 H1153 0.862 . S
C1134 C1129 1.501 . S
C1134 H1135 0.961 . S
C1134 H1136 0.961 . S
C1134 H1137 0.960 . S
H1135 C1134 0.961 . S
H1136 C1134 0.961 . S
H1137 C1134 0.960 . S
C1138 N1139 1.342 . S
C1138 C1142 1.401 . S
C1138 C1143 1.499 . S
N1139 Co1122 1.989 . S
N1139 C1138 1.342 . S
N1139 N1140 1.388 . S
N1140 Co1123 1.993 . S
N1140 N1139 1.388 . S
N1140 C1141 1.346 . S
C1141 N1140 1.346 . S
C1141 C1142 1.396 . S
C1141 C1151 1.510 . S
C1142 C1138 1.401 . S
C1142 C1141 1.396 . S
C1143 C1138 1.499 . S
C1143 H1144 0.959 . S
C1143 H1145 0.960 . S
C1143 H1146 0.961 . S
H1144 C1143 0.959 . S
H1145 C1143 0.960 . S
H1146 C1143 0.961 . S
O1147 Co1122 1.967 . S
O1147 C1155 1.258 . S
O1148 Co1123 1.941 . S
O1148 C1155 1.266 . S
H1149 C1151 0.959 . S
H1150 C1151 0.961 . S
C1151 C1141 1.510 . S
C1151 H1149 0.959 . S
C1151 H1150 0.961 . S
C1151 H1152 0.960 . S
H1152 C1151 0.960 . S
H1153 N1133 0.862 . S
O1154 Co1122 1.920 . S
O1154 C1127 1.289 . S
C1155 O1147 1.258 . S
C1155 O1148 1.266 . S
Co1156 O1159 1.970 . S
Co1156 N1173 1.989 . S
Co1156 O1181 1.967 . S
Co1156 O1188 1.920 . S
Co1157 O1160 1.966 . S
Co1157 N1166 2.022 . S
Co1157 N1174 1.993 . S
Co1157 O1182 1.941 . S
C1158 O1159 1.258 . S
C1158 O1160 1.263 . S
O1159 Co1156 1.970 . S
O1159 C1158 1.258 . S
O1160 Co1157 1.966 . S
O1160 C1158 1.263 . S
C1161 O1162 1.235 . S
C1161 O1188 1.289 . S
O1162 C1161 1.235 . S
C1163 C1165 1.400 . S
C1163 N1166 1.351 . S
C1163 C1168 1.501 . S
C1164 C1165 1.387 . S
C1164 N1167 1.341 . S
C1165 C1163 1.400 . S
C1165 C1164 1.387 . S
N1166 Co1157 2.022 . S
N1166 C1163 1.351 . S
N1166 N1167 1.365 . S
N1167 C1164 1.341 . S
N1167 N1166 1.365 . S
N1167 H1187 0.862 . S
C1168 C1163 1.501 . S
C1168 H1169 0.961 . S
C1168 H1170 0.961 . S
C1168 H1171 0.960 . S
H1169 C1168 0.961 . S
H1170 C1168 0.961 . S
H1171 C1168 0.960 . S
C1172 N1173 1.342 . S
C1172 C1176 1.401 . S
C1172 C1177 1.499 . S
N1173 Co1156 1.989 . S
N1173 C1172 1.342 . S
N1173 N1174 1.388 . S
N1174 Co1157 1.993 . S
N1174 N1173 1.388 . S
N1174 C1175 1.346 . S
C1175 N1174 1.346 . S
C1175 C1176 1.396 . S
C1175 C1185 1.510 . S
C1176 C1172 1.401 . S
C1176 C1175 1.396 . S
C1177 C1172 1.499 . S
C1177 H1178 0.959 . S
C1177 H1179 0.960 . S
C1177 H1180 0.961 . S
H1178 C1177 0.959 . S
H1179 C1177 0.960 . S
H1180 C1177 0.961 . S
O1181 Co1156 1.967 . S
O1181 C1189 1.258 . S
O1182 Co1157 1.941 . S
O1182 C1189 1.266 . S
H1183 C1185 0.959 . S
H1184 C1185 0.961 . S
C1185 C1175 1.510 . S
C1185 H1183 0.959 . S
C1185 H1184 0.961 . S
C1185 H1186 0.960 . S
H1186 C1185 0.960 . S
H1187 N1167 0.862 . S
O1188 Co1156 1.920 . S
O1188 C1161 1.289 . S
C1189 O1181 1.258 . S
C1189 O1182 1.266 . S
Co1190 O1193 1.970 . S
Co1190 N1207 1.989 . S
Co1190 O1215 1.967 . S
Co1190 O1222 1.920 . S
Co1191 O1194 1.966 . S
Co1191 N1200 2.022 . S
Co1191 N1208 1.993 . S
Co1191 O1216 1.941 . S
C1192 O1193 1.258 . S
C1192 O1194 1.263 . S
O1193 Co1190 1.970 . S
O1193 C1192 1.258 . S
O1194 Co1191 1.966 . S
O1194 C1192 1.263 . S
C1195 O1196 1.235 . S
C1195 O1222 1.289 . S
O1196 C1195 1.235 . S
C1197 C1199 1.400 . S
C1197 N1200 1.351 . S
C1197 C1202 1.501 . S
C1198 C1199 1.387 . S
C1198 N1201 1.341 . S
C1199 C1197 1.400 . S
C1199 C1198 1.387 . S
N1200 Co1191 2.022 . S
N1200 C1197 1.351 . S
N1200 N1201 1.365 . S
N1201 C1198 1.341 . S
N1201 N1200 1.365 . S
N1201 H1221 0.862 . S
C1202 C1197 1.501 . S
C1202 H1203 0.961 . S
C1202 H1204 0.961 . S
C1202 H1205 0.960 . S
H1203 C1202 0.961 . S
H1204 C1202 0.961 . S
H1205 C1202 0.960 . S
C1206 N1207 1.342 . S
C1206 C1210 1.401 . S
C1206 C1211 1.499 . S
N1207 Co1190 1.989 . S
N1207 C1206 1.342 . S
N1207 N1208 1.388 . S
N1208 Co1191 1.993 . S
N1208 N1207 1.388 . S
N1208 C1209 1.346 . S
C1209 N1208 1.346 . S
C1209 C1210 1.396 . S
C1209 C1219 1.510 . S
C1210 C1206 1.401 . S
C1210 C1209 1.396 . S
C1211 C1206 1.499 . S
C1211 H1212 0.959 . S
C1211 H1213 0.960 . S
C1211 H1214 0.961 . S
H1212 C1211 0.959 . S
H1213 C1211 0.960 . S
H1214 C1211 0.961 . S
O1215 Co1190 1.967 . S
O1215 C1223 1.258 . S
O1216 Co1191 1.941 . S
O1216 C1223 1.266 . S
H1217 C1219 0.959 . S
H1218 C1219 0.961 . S
C1219 C1209 1.510 . S
C1219 H1217 0.959 . S
C1219 H1218 0.961 . S
C1219 H1220 0.960 . S
H1220 C1219 0.960 . S
H1221 N1201 0.862 . S
O1222 Co1190 1.920 . S
O1222 C1195 1.289 . S
C1223 O1215 1.258 . S
C1223 O1216 1.266 . S
Co1224 O1227 1.970 . S
Co1224 N1241 1.989 . S
Co1224 O1249 1.967 . S
Co1224 O1256 1.920 . S
Co1225 O1228 1.966 . S
Co1225 N1234 2.022 . S
Co1225 N1242 1.993 . S
Co1225 O1250 1.941 . S
C1226 O1227 1.258 . S
C1226 O1228 1.263 . S
O1227 Co1224 1.970 . S
O1227 C1226 1.258 . S
O1228 Co1225 1.966 . S
O1228 C1226 1.263 . S
C1229 O1230 1.235 . S
C1229 O1256 1.289 . S
O1230 C1229 1.235 . S
C1231 C1233 1.400 . S
C1231 N1234 1.351 . S
C1231 C1236 1.501 . S
C1232 C1233 1.387 . S
C1232 N1235 1.341 . S
C1233 C1231 1.400 . S
C1233 C1232 1.387 . S
N1234 Co1225 2.022 . S
N1234 C1231 1.351 . S
N1234 N1235 1.365 . S
N1235 C1232 1.341 . S
N1235 N1234 1.365 . S
N1235 H1255 0.862 . S
C1236 C1231 1.501 . S
C1236 H1237 0.961 . S
C1236 H1238 0.961 . S
C1236 H1239 0.960 . S
H1237 C1236 0.961 . S
H1238 C1236 0.961 . S
H1239 C1236 0.960 . S
C1240 N1241 1.342 . S
C1240 C1244 1.401 . S
C1240 C1245 1.499 . S
N1241 Co1224 1.989 . S
N1241 C1240 1.342 . S
N1241 N1242 1.388 . S
N1242 Co1225 1.993 . S
N1242 N1241 1.388 . S
N1242 C1243 1.346 . S
C1243 N1242 1.346 . S
C1243 C1244 1.396 . S
C1243 C1253 1.510 . S
C1244 C1240 1.401 . S
C1244 C1243 1.396 . S
C1245 C1240 1.499 . S
C1245 H1246 0.959 . S
C1245 H1247 0.960 . S
C1245 H1248 0.961 . S
H1246 C1245 0.959 . S
H1247 C1245 0.960 . S
H1248 C1245 0.961 . S
O1249 Co1224 1.967 . S
O1249 C1257 1.258 . S
O1250 Co1225 1.941 . S
O1250 C1257 1.266 . S
H1251 C1253 0.959 . S
H1252 C1253 0.961 . S
C1253 C1243 1.510 . S
C1253 H1251 0.959 . S
C1253 H1252 0.961 . S
C1253 H1254 0.960 . S
H1254 C1253 0.960 . S
H1255 N1235 0.862 . S
O1256 Co1224 1.920 . S
O1256 C1229 1.289 . S
C1257 O1249 1.258 . S
C1257 O1250 1.266 . S
Co1258 O1261 1.970 . S
Co1258 N1275 1.989 . S
Co1258 O1283 1.967 . S
Co1258 O1290 1.920 . S
Co1259 O1262 1.966 . S
Co1259 N1268 2.022 . S
Co1259 N1276 1.993 . S
Co1259 O1284 1.941 . S
C1260 O1261 1.258 . S
C1260 O1262 1.263 . S
O1261 Co1258 1.970 . S
O1261 C1260 1.258 . S
O1262 Co1259 1.966 . S
O1262 C1260 1.263 . S
C1263 O1264 1.235 . S
C1263 O1290 1.289 . S
O1264 C1263 1.235 . S
C1265 C1267 1.400 . S
C1265 N1268 1.351 . S
C1265 C1270 1.501 . S
C1266 C1267 1.387 . S
C1266 N1269 1.341 . S
C1267 C1265 1.400 . S
C1267 C1266 1.387 . S
N1268 Co1259 2.022 . S
N1268 C1265 1.351 . S
N1268 N1269 1.365 . S
N1269 C1266 1.341 . S
N1269 N1268 1.365 . S
N1269 H1289 0.862 . S
C1270 C1265 1.501 . S
C1270 H1271 0.961 . S
C1270 H1272 0.961 . S
C1270 H1273 0.960 . S
H1271 C1270 0.961 . S
H1272 C1270 0.961 . S
H1273 C1270 0.960 . S
C1274 N1275 1.342 . S
C1274 C1278 1.401 . S
C1274 C1279 1.499 . S
N1275 Co1258 1.989 . S
N1275 C1274 1.342 . S
N1275 N1276 1.388 . S
N1276 Co1259 1.993 . S
N1276 N1275 1.388 . S
N1276 C1277 1.346 . S
C1277 N1276 1.346 . S
C1277 C1278 1.396 . S
C1277 C1287 1.510 . S
C1278 C1274 1.401 . S
C1278 C1277 1.396 . S
C1279 C1274 1.499 . S
C1279 H1280 0.959 . S
C1279 H1281 0.960 . S
C1279 H1282 0.961 . S
H1280 C1279 0.959 . S
H1281 C1279 0.960 . S
H1282 C1279 0.961 . S
O1283 Co1258 1.967 . S
O1283 C1291 1.258 . S
O1284 Co1259 1.941 . S
O1284 C1291 1.266 . S
H1285 C1287 0.959 . S
H1286 C1287 0.961 . S
C1287 C1277 1.510 . S
C1287 H1285 0.959 . S
C1287 H1286 0.961 . S
C1287 H1288 0.960 . S
H1288 C1287 0.960 . S
H1289 N1269 0.862 . S
O1290 Co1258 1.920 . S
O1290 C1263 1.289 . S
C1291 O1283 1.258 . S
C1291 O1284 1.266 . S
Co1292 O1295 1.970 . S
Co1292 N1309 1.989 . S
Co1292 O1317 1.967 . S
Co1292 O1324 1.920 . S
Co1293 O1296 1.966 . S
Co1293 N1302 2.022 . S
Co1293 N1310 1.993 . S
Co1293 O1318 1.941 . S
C1294 O1295 1.258 . S
C1294 O1296 1.263 . S
O1295 Co1292 1.970 . S
O1295 C1294 1.258 . S
O1296 Co1293 1.966 . S
O1296 C1294 1.263 . S
C1297 O1298 1.235 . S
C1297 O1324 1.289 . S
O1298 C1297 1.235 . S
C1299 C1301 1.400 . S
C1299 N1302 1.351 . S
C1299 C1304 1.501 . S
C1300 C1301 1.387 . S
C1300 N1303 1.341 . S
C1301 C1299 1.400 . S
C1301 C1300 1.387 . S
N1302 Co1293 2.022 . S
N1302 C1299 1.351 . S
N1302 N1303 1.365 . S
N1303 C1300 1.341 . S
N1303 N1302 1.365 . S
N1303 H1323 0.862 . S
C1304 C1299 1.501 . S
C1304 H1305 0.961 . S
C1304 H1306 0.961 . S
C1304 H1307 0.960 . S
H1305 C1304 0.961 . S
H1306 C1304 0.961 . S
H1307 C1304 0.960 . S
C1308 N1309 1.342 . S
C1308 C1312 1.401 . S
C1308 C1313 1.499 . S
N1309 Co1292 1.989 . S
N1309 C1308 1.342 . S
N1309 N1310 1.388 . S
N1310 Co1293 1.993 . S
N1310 N1309 1.388 . S
N1310 C1311 1.346 . S
C1311 N1310 1.346 . S
C1311 C1312 1.396 . S
C1311 C1321 1.510 . S
C1312 C1308 1.401 . S
C1312 C1311 1.396 . S
C1313 C1308 1.499 . S
C1313 H1314 0.959 . S
C1313 H1315 0.960 . S
C1313 H1316 0.961 . S
H1314 C1313 0.959 . S
H1315 C1313 0.960 . S
H1316 C1313 0.961 . S
O1317 Co1292 1.967 . S
O1317 C1325 1.258 . S
O1318 Co1293 1.941 . S
O1318 C1325 1.266 . S
H1319 C1321 0.959 . S
H1320 C1321 0.961 . S
C1321 C1311 1.510 . S
C1321 H1319 0.959 . S
C1321 H1320 0.961 . S
C1321 H1322 0.960 . S
H1322 C1321 0.960 . S
H1323 N1303 0.862 . S
O1324 Co1292 1.920 . S
O1324 C1297 1.289 . S
C1325 O1317 1.258 . S
C1325 O1318 1.266 . S
Co1326 O1329 1.970 . S
Co1326 N1343 1.989 . S
Co1326 O1351 1.967 . S
Co1326 O1358 1.920 . S
Co1327 O1330 1.966 . S
Co1327 N1336 2.022 . S
Co1327 N1344 1.993 . S
Co1327 O1352 1.941 . S
C1328 O1329 1.258 . S
C1328 O1330 1.263 . S
O1329 Co1326 1.970 . S
O1329 C1328 1.258 . S
O1330 Co1327 1.966 . S
O1330 C1328 1.263 . S
C1331 O1332 1.235 . S
C1331 O1358 1.289 . S
O1332 C1331 1.235 . S
C1333 C1335 1.400 . S
C1333 N1336 1.351 . S
C1333 C1338 1.501 . S
C1334 C1335 1.387 . S
C1334 N1337 1.341 . S
C1335 C1333 1.400 . S
C1335 C1334 1.387 . S
N1336 Co1327 2.022 . S
N1336 C1333 1.351 . S
N1336 N1337 1.365 . S
N1337 C1334 1.341 . S
N1337 N1336 1.365 . S
N1337 H1357 0.862 . S
C1338 C1333 1.501 . S
C1338 H1339 0.961 . S
C1338 H1340 0.961 . S
C1338 H1341 0.960 . S
H1339 C1338 0.961 . S
H1340 C1338 0.961 . S
H1341 C1338 0.960 . S
C1342 N1343 1.342 . S
C1342 C1346 1.401 . S
C1342 C1347 1.499 . S
N1343 Co1326 1.989 . S
N1343 C1342 1.342 . S
N1343 N1344 1.388 . S
N1344 Co1327 1.993 . S
N1344 N1343 1.388 . S
N1344 C1345 1.346 . S
C1345 N1344 1.346 . S
C1345 C1346 1.396 . S
C1345 C1355 1.510 . S
C1346 C1342 1.401 . S
C1346 C1345 1.396 . S
C1347 C1342 1.499 . S
C1347 H1348 0.959 . S
C1347 H1349 0.960 . S
C1347 H1350 0.961 . S
H1348 C1347 0.959 . S
H1349 C1347 0.960 . S
H1350 C1347 0.961 . S
O1351 Co1326 1.967 . S
O1351 C1359 1.258 . S
O1352 Co1327 1.941 . S
O1352 C1359 1.266 . S
H1353 C1355 0.959 . S
H1354 C1355 0.961 . S
C1355 C1345 1.510 . S
C1355 H1353 0.959 . S
C1355 H1354 0.961 . S
C1355 H1356 0.960 . S
H1356 C1355 0.960 . S
H1357 N1337 0.862 . S
O1358 Co1326 1.920 . S
O1358 C1331 1.289 . S
C1359 O1351 1.258 . S
C1359 O1352 1.266 . S
Co1360 O1363 1.970 . S
Co1360 N1377 1.989 . S
Co1360 O1385 1.967 . S
Co1360 O1392 1.920 . S
Co1361 O1364 1.966 . S
Co1361 N1370 2.022 . S
Co1361 N1378 1.993 . S
Co1361 O1386 1.941 . S
C1362 O1363 1.258 . S
C1362 O1364 1.263 . S
O1363 Co1360 1.970 . S
O1363 C1362 1.258 . S
O1364 Co1361 1.966 . S
O1364 C1362 1.263 . S
C1365 O1366 1.235 . S
C1365 O1392 1.289 . S
O1366 C1365 1.235 . S
C1367 C1369 1.400 . S
C1367 N1370 1.351 . S
C1367 C1372 1.501 . S
C1368 C1369 1.387 . S
C1368 N1371 1.341 . S
C1369 C1367 1.400 . S
C1369 C1368 1.387 . S
N1370 Co1361 2.022 . S
N1370 C1367 1.351 . S
N1370 N1371 1.365 . S
N1371 C1368 1.341 . S
N1371 N1370 1.365 . S
N1371 H1391 0.862 . S
C1372 C1367 1.501 . S
C1372 H1373 0.961 . S
C1372 H1374 0.961 . S
C1372 H1375 0.960 . S
H1373 C1372 0.961 . S
H1374 C1372 0.961 . S
H1375 C1372 0.960 . S
C1376 N1377 1.342 . S
C1376 C1380 1.401 . S
C1376 C1381 1.499 . S
N1377 Co1360 1.989 . S
N1377 C1376 1.342 . S
N1377 N1378 1.388 . S
N1378 Co1361 1.993 . S
N1378 N1377 1.388 . S
N1378 C1379 1.346 . S
C1379 N1378 1.346 . S
C1379 C1380 1.396 . S
C1379 C1389 1.510 . S
C1380 C1376 1.401 . S
C1380 C1379 1.396 . S
C1381 C1376 1.499 . S
C1381 H1382 0.959 . S
C1381 H1383 0.960 . S
C1381 H1384 0.961 . S
H1382 C1381 0.959 . S
H1383 C1381 0.960 . S
H1384 C1381 0.961 . S
O1385 Co1360 1.967 . S
O1385 C1393 1.258 . S
O1386 Co1361 1.941 . S
O1386 C1393 1.266 . S
H1387 C1389 0.959 . S
H1388 C1389 0.961 . S
C1389 C1379 1.510 . S
C1389 H1387 0.959 . S
C1389 H1388 0.961 . S
C1389 H1390 0.960 . S
H1390 C1389 0.960 . S
H1391 N1371 0.862 . S
O1392 Co1360 1.920 . S
O1392 C1365 1.289 . S
C1393 O1385 1.258 . S
C1393 O1386 1.266 . S
Co1394 O1397 1.970 . S
Co1394 N1411 1.989 . S
Co1394 O1419 1.967 . S
Co1394 O1426 1.920 . S
Co1395 O1398 1.966 . S
Co1395 N1404 2.022 . S
Co1395 N1412 1.993 . S
Co1395 O1420 1.941 . S
C1396 O1397 1.258 . S
C1396 O1398 1.263 . S
O1397 Co1394 1.970 . S
O1397 C1396 1.258 . S
O1398 Co1395 1.966 . S
O1398 C1396 1.263 . S
C1399 O1400 1.235 . S
C1399 O1426 1.289 . S
O1400 C1399 1.235 . S
C1401 C1403 1.400 . S
C1401 N1404 1.351 . S
C1401 C1406 1.501 . S
C1402 C1403 1.387 . S
C1402 N1405 1.341 . S
C1403 C1401 1.400 . S
C1403 C1402 1.387 . S
N1404 Co1395 2.022 . S
N1404 C1401 1.351 . S
N1404 N1405 1.365 . S
N1405 C1402 1.341 . S
N1405 N1404 1.365 . S
N1405 H1425 0.862 . S
C1406 C1401 1.501 . S
C1406 H1407 0.961 . S
C1406 H1408 0.961 . S
C1406 H1409 0.960 . S
H1407 C1406 0.961 . S
H1408 C1406 0.961 . S
H1409 C1406 0.960 . S
C1410 N1411 1.342 . S
C1410 C1414 1.401 . S
C1410 C1415 1.499 . S
N1411 Co1394 1.989 . S
N1411 C1410 1.342 . S
N1411 N1412 1.388 . S
N1412 Co1395 1.993 . S
N1412 N1411 1.388 . S
N1412 C1413 1.346 . S
C1413 N1412 1.346 . S
C1413 C1414 1.396 . S
C1413 C1423 1.510 . S
C1414 C1410 1.401 . S
C1414 C1413 1.396 . S
C1415 C1410 1.499 . S
C1415 H1416 0.959 . S
C1415 H1417 0.960 . S
C1415 H1418 0.961 . S
H1416 C1415 0.959 . S
H1417 C1415 0.960 . S
H1418 C1415 0.961 . S
O1419 Co1394 1.967 . S
O1419 C1427 1.258 . S
O1420 Co1395 1.941 . S
O1420 C1427 1.266 . S
H1421 C1423 0.959 . S
H1422 C1423 0.961 . S
C1423 C1413 1.510 . S
C1423 H1421 0.959 . S
C1423 H1422 0.961 . S
C1423 H1424 0.960 . S
H1424 C1423 0.960 . S
H1425 N1405 0.862 . S
O1426 Co1394 1.920 . S
O1426 C1399 1.289 . S
C1427 O1419 1.258 . S
C1427 O1420 1.266 . S
Co1428 O1431 1.970 . S
Co1428 N1445 1.989 . S
Co1428 O1453 1.967 . S
Co1428 O1460 1.920 . S
Co1429 O1432 1.966 . S
Co1429 N1438 2.022 . S
Co1429 N1446 1.993 . S
Co1429 O1454 1.941 . S
C1430 O1431 1.258 . S
C1430 O1432 1.263 . S
O1431 Co1428 1.970 . S
O1431 C1430 1.258 . S
O1432 Co1429 1.966 . S
O1432 C1430 1.263 . S
C1433 O1434 1.235 . S
C1433 O1460 1.289 . S
O1434 C1433 1.235 . S
C1435 C1437 1.400 . S
C1435 N1438 1.351 . S
C1435 C1440 1.501 . S
C1436 C1437 1.387 . S
C1436 N1439 1.341 . S
C1437 C1435 1.400 . S
C1437 C1436 1.387 . S
N1438 Co1429 2.022 . S
N1438 C1435 1.351 . S
N1438 N1439 1.365 . S
N1439 C1436 1.341 . S
N1439 N1438 1.365 . S
N1439 H1459 0.862 . S
C1440 C1435 1.501 . S
C1440 H1441 0.961 . S
C1440 H1442 0.961 . S
C1440 H1443 0.960 . S
H1441 C1440 0.961 . S
H1442 C1440 0.961 . S
H1443 C1440 0.960 . S
C1444 N1445 1.342 . S
C1444 C1448 1.401 . S
C1444 C1449 1.499 . S
N1445 Co1428 1.989 . S
N1445 C1444 1.342 . S
N1445 N1446 1.388 . S
N1446 Co1429 1.993 . S
N1446 N1445 1.388 . S
N1446 C1447 1.346 . S
C1447 N1446 1.346 . S
C1447 C1448 1.396 . S
C1447 C1457 1.510 . S
C1448 C1444 1.401 . S
C1448 C1447 1.396 . S
C1449 C1444 1.499 . S
C1449 H1450 0.959 . S
C1449 H1451 0.960 . S
C1449 H1452 0.961 . S
H1450 C1449 0.959 . S
H1451 C1449 0.960 . S
H1452 C1449 0.961 . S
O1453 Co1428 1.967 . S
O1453 C1461 1.258 . S
O1454 Co1429 1.941 . S
O1454 C1461 1.266 . S
H1455 C1457 0.959 . S
H1456 C1457 0.961 . S
C1457 C1447 1.510 . S
C1457 H1455 0.959 . S
C1457 H1456 0.961 . S
C1457 H1458 0.960 . S
H1458 C1457 0.960 . S
H1459 N1439 0.862 . S
O1460 Co1428 1.920 . S
O1460 C1433 1.289 . S
C1461 O1453 1.258 . S
C1461 O1454 1.266 . S
Co1462 O1465 1.970 . S
Co1462 N1479 1.989 . S
Co1462 O1487 1.967 . S
Co1462 O1494 1.920 . S
Co1463 O1466 1.966 . S
Co1463 N1472 2.022 . S
Co1463 N1480 1.993 . S
Co1463 O1488 1.941 . S
C1464 O1465 1.258 . S
C1464 O1466 1.263 . S
O1465 Co1462 1.970 . S
O1465 C1464 1.258 . S
O1466 Co1463 1.966 . S
O1466 C1464 1.263 . S
C1467 O1468 1.235 . S
C1467 O1494 1.289 . S
O1468 C1467 1.235 . S
C1469 C1471 1.400 . S
C1469 N1472 1.351 . S
C1469 C1474 1.501 . S
C1470 C1471 1.387 . S
C1470 N1473 1.341 . S
C1471 C1469 1.400 . S
C1471 C1470 1.387 . S
N1472 Co1463 2.022 . S
N1472 C1469 1.351 . S
N1472 N1473 1.365 . S
N1473 C1470 1.341 . S
N1473 N1472 1.365 . S
N1473 H1493 0.862 . S
C1474 C1469 1.501 . S
C1474 H1475 0.961 . S
C1474 H1476 0.961 . S
C1474 H1477 0.960 . S
H1475 C1474 0.961 . S
H1476 C1474 0.961 . S
H1477 C1474 0.960 . S
C1478 N1479 1.342 . S
C1478 C1482 1.401 . S
C1478 C1483 1.499 . S
N1479 Co1462 1.989 . S
N1479 C1478 1.342 . S
N1479 N1480 1.388 . S
N1480 Co1463 1.993 . S
N1480 N1479 1.388 . S
N1480 C1481 1.346 . S
C1481 N1480 1.346 . S
C1481 C1482 1.396 . S
C1481 C1491 1.510 . S
C1482 C1478 1.401 . S
C1482 C1481 1.396 . S
C1483 C1478 1.499 . S
C1483 H1484 0.959 . S
C1483 H1485 0.960 . S
C1483 H1486 0.961 . S
H1484 C1483 0.959 . S
H1485 C1483 0.960 . S
H1486 C1483 0.961 . S
O1487 Co1462 1.967 . S
O1487 C1495 1.258 . S
O1488 Co1463 1.941 . S
O1488 C1495 1.266 . S
H1489 C1491 0.959 . S
H1490 C1491 0.961 . S
C1491 C1481 1.510 . S
C1491 H1489 0.959 . S
C1491 H1490 0.961 . S
C1491 H1492 0.960 . S
H1492 C1491 0.960 . S
H1493 N1473 0.862 . S
O1494 Co1462 1.920 . S
O1494 C1467 1.289 . S
C1495 O1487 1.258 . S
C1495 O1488 1.266 . S
Co1496 O1499 1.970 . S
Co1496 N1513 1.989 . S
Co1496 O1521 1.967 . S
Co1496 O1528 1.920 . S
Co1497 O1500 1.966 . S
Co1497 N1506 2.022 . S
Co1497 N1514 1.993 . S
Co1497 O1522 1.941 . S
C1498 O1499 1.258 . S
C1498 O1500 1.263 . S
O1499 Co1496 1.970 . S
O1499 C1498 1.258 . S
O1500 Co1497 1.966 . S
O1500 C1498 1.263 . S
C1501 O1502 1.235 . S
C1501 O1528 1.289 . S
O1502 C1501 1.235 . S
C1503 C1505 1.400 . S
C1503 N1506 1.351 . S
C1503 C1508 1.501 . S
C1504 C1505 1.387 . S
C1504 N1507 1.341 . S
C1505 C1503 1.400 . S
C1505 C1504 1.387 . S
N1506 Co1497 2.022 . S
N1506 C1503 1.351 . S
N1506 N1507 1.365 . S
N1507 C1504 1.341 . S
N1507 N1506 1.365 . S
N1507 H1527 0.862 . S
C1508 C1503 1.501 . S
C1508 H1509 0.961 . S
C1508 H1510 0.961 . S
C1508 H1511 0.960 . S
H1509 C1508 0.961 . S
H1510 C1508 0.961 . S
H1511 C1508 0.960 . S
C1512 N1513 1.342 . S
C1512 C1516 1.401 . S
C1512 C1517 1.499 . S
N1513 Co1496 1.989 . S
N1513 C1512 1.342 . S
N1513 N1514 1.388 . S
N1514 Co1497 1.993 . S
N1514 N1513 1.388 . S
N1514 C1515 1.346 . S
C1515 N1514 1.346 . S
C1515 C1516 1.396 . S
C1515 C1525 1.510 . S
C1516 C1512 1.401 . S
C1516 C1515 1.396 . S
C1517 C1512 1.499 . S
C1517 H1518 0.959 . S
C1517 H1519 0.960 . S
C1517 H1520 0.961 . S
H1518 C1517 0.959 . S
H1519 C1517 0.960 . S
H1520 C1517 0.961 . S
O1521 Co1496 1.967 . S
O1521 C1529 1.258 . S
O1522 Co1497 1.941 . S
O1522 C1529 1.266 . S
H1523 C1525 0.959 . S
H1524 C1525 0.961 . S
C1525 C1515 1.510 . S
C1525 H1523 0.959 . S
C1525 H1524 0.961 . S
C1525 H1526 0.960 . S
H1526 C1525 0.960 . S
H1527 N1507 0.862 . S
O1528 Co1496 1.920 . S
O1528 C1501 1.289 . S
C1529 O1521 1.258 . S
C1529 O1522 1.266 . S
Co1530 O1533 1.970 . S
Co1530 N1547 1.989 . S
Co1530 O1555 1.967 . S
Co1530 O1562 1.920 . S
Co1531 O1534 1.966 . S
Co1531 N1540 2.022 . S
Co1531 N1548 1.993 . S
Co1531 O1556 1.941 . S
C1532 O1533 1.258 . S
C1532 O1534 1.263 . S
O1533 Co1530 1.970 . S
O1533 C1532 1.258 . S
O1534 Co1531 1.966 . S
O1534 C1532 1.263 . S
C1535 O1536 1.235 . S
C1535 O1562 1.289 . S
O1536 C1535 1.235 . S
C1537 C1539 1.400 . S
C1537 N1540 1.351 . S
C1537 C1542 1.501 . S
C1538 C1539 1.387 . S
C1538 N1541 1.341 . S
C1539 C1537 1.400 . S
C1539 C1538 1.387 . S
N1540 Co1531 2.022 . S
N1540 C1537 1.351 . S
N1540 N1541 1.365 . S
N1541 C1538 1.341 . S
N1541 N1540 1.365 . S
N1541 H1561 0.862 . S
C1542 C1537 1.501 . S
C1542 H1543 0.961 . S
C1542 H1544 0.961 . S
C1542 H1545 0.960 . S
H1543 C1542 0.961 . S
H1544 C1542 0.961 . S
H1545 C1542 0.960 . S
C1546 N1547 1.342 . S
C1546 C1550 1.401 . S
C1546 C1551 1.499 . S
N1547 Co1530 1.989 . S
N1547 C1546 1.342 . S
N1547 N1548 1.388 . S
N1548 Co1531 1.993 . S
N1548 N1547 1.388 . S
N1548 C1549 1.346 . S
C1549 N1548 1.346 . S
C1549 C1550 1.396 . S
C1549 C1559 1.510 . S
C1550 C1546 1.401 . S
C1550 C1549 1.396 . S
C1551 C1546 1.499 . S
C1551 H1552 0.959 . S
C1551 H1553 0.960 . S
C1551 H1554 0.961 . S
H1552 C1551 0.959 . S
H1553 C1551 0.960 . S
H1554 C1551 0.961 . S
O1555 Co1530 1.967 . S
O1555 C1563 1.258 . S
O1556 Co1531 1.941 . S
O1556 C1563 1.266 . S
H1557 C1559 0.959 . S
H1558 C1559 0.961 . S
C1559 C1549 1.510 . S
C1559 H1557 0.959 . S
C1559 H1558 0.961 . S
C1559 H1560 0.960 . S
H1560 C1559 0.960 . S
H1561 N1541 0.862 . S
O1562 Co1530 1.920 . S
O1562 C1535 1.289 . S
C1563 O1555 1.258 . S
C1563 O1556 1.266 . S
Co1564 O1567 1.970 . S
Co1564 N1581 1.989 . S
Co1564 O1589 1.967 . S
Co1564 O1596 1.920 . S
Co1565 O1568 1.966 . S
Co1565 N1574 2.022 . S
Co1565 N1582 1.993 . S
Co1565 O1590 1.941 . S
C1566 O1567 1.258 . S
C1566 O1568 1.263 . S
O1567 Co1564 1.970 . S
O1567 C1566 1.258 . S
O1568 Co1565 1.966 . S
O1568 C1566 1.263 . S
C1569 O1570 1.235 . S
C1569 O1596 1.289 . S
O1570 C1569 1.235 . S
C1571 C1573 1.400 . S
C1571 N1574 1.351 . S
C1571 C1576 1.501 . S
C1572 C1573 1.387 . S
C1572 N1575 1.341 . S
C1573 C1571 1.400 . S
C1573 C1572 1.387 . S
N1574 Co1565 2.022 . S
N1574 C1571 1.351 . S
N1574 N1575 1.365 . S
N1575 C1572 1.341 . S
N1575 N1574 1.365 . S
N1575 H1595 0.862 . S
C1576 C1571 1.501 . S
C1576 H1577 0.961 . S
C1576 H1578 0.961 . S
C1576 H1579 0.960 . S
H1577 C1576 0.961 . S
H1578 C1576 0.961 . S
H1579 C1576 0.960 . S
C1580 N1581 1.342 . S
C1580 C1584 1.401 . S
C1580 C1585 1.499 . S
N1581 Co1564 1.989 . S
N1581 C1580 1.342 . S
N1581 N1582 1.388 . S
N1582 Co1565 1.993 . S
N1582 N1581 1.388 . S
N1582 C1583 1.346 . S
C1583 N1582 1.346 . S
C1583 C1584 1.396 . S
C1583 C1593 1.510 . S
C1584 C1580 1.401 . S
C1584 C1583 1.396 . S
C1585 C1580 1.499 . S
C1585 H1586 0.959 . S
C1585 H1587 0.960 . S
C1585 H1588 0.961 . S
H1586 C1585 0.959 . S
H1587 C1585 0.960 . S
H1588 C1585 0.961 . S
O1589 Co1564 1.967 . S
O1589 C1597 1.258 . S
O1590 Co1565 1.941 . S
O1590 C1597 1.266 . S
H1591 C1593 0.959 . S
H1592 C1593 0.961 . S
C1593 C1583 1.510 . S
C1593 H1591 0.959 . S
C1593 H1592 0.961 . S
C1593 H1594 0.960 . S
H1594 C1593 0.960 . S
H1595 N1575 0.862 . S
O1596 Co1564 1.920 . S
O1596 C1569 1.289 . S
C1597 O1589 1.258 . S
C1597 O1590 1.266 . S
Co1598 O1601 1.970 . S
Co1598 N1615 1.989 . S
Co1598 O1623 1.967 . S
Co1598 O1630 1.920 . S
Co1599 O1602 1.966 . S
Co1599 N1608 2.022 . S
Co1599 N1616 1.993 . S
Co1599 O1624 1.941 . S
C1600 O1601 1.258 . S
C1600 O1602 1.263 . S
O1601 Co1598 1.970 . S
O1601 C1600 1.258 . S
O1602 Co1599 1.966 . S
O1602 C1600 1.263 . S
C1603 O1604 1.235 . S
C1603 O1630 1.289 . S
O1604 C1603 1.235 . S
C1605 C1607 1.400 . S
C1605 N1608 1.351 . S
C1605 C1610 1.501 . S
C1606 C1607 1.387 . S
C1606 N1609 1.341 . S
C1607 C1605 1.400 . S
C1607 C1606 1.387 . S
N1608 Co1599 2.022 . S
N1608 C1605 1.351 . S
N1608 N1609 1.365 . S
N1609 C1606 1.341 . S
N1609 N1608 1.365 . S
N1609 H1629 0.862 . S
C1610 C1605 1.501 . S
C1610 H1611 0.961 . S
C1610 H1612 0.961 . S
C1610 H1613 0.960 . S
H1611 C1610 0.961 . S
H1612 C1610 0.961 . S
H1613 C1610 0.960 . S
C1614 N1615 1.342 . S
C1614 C1618 1.401 . S
C1614 C1619 1.499 . S
N1615 Co1598 1.989 . S
N1615 C1614 1.342 . S
N1615 N1616 1.388 . S
N1616 Co1599 1.993 . S
N1616 N1615 1.388 . S
N1616 C1617 1.346 . S
C1617 N1616 1.346 . S
C1617 C1618 1.396 . S
C1617 C1627 1.510 . S
C1618 C1614 1.401 . S
C1618 C1617 1.396 . S
C1619 C1614 1.499 . S
C1619 H1620 0.959 . S
C1619 H1621 0.960 . S
C1619 H1622 0.961 . S
H1620 C1619 0.959 . S
H1621 C1619 0.960 . S
H1622 C1619 0.961 . S
O1623 Co1598 1.967 . S
O1623 C1631 1.258 . S
O1624 Co1599 1.941 . S
O1624 C1631 1.266 . S
H1625 C1627 0.959 . S
H1626 C1627 0.961 . S
C1627 C1617 1.510 . S
C1627 H1625 0.959 . S
C1627 H1626 0.961 . S
C1627 H1628 0.960 . S
H1628 C1627 0.960 . S
H1629 N1609 0.862 . S
O1630 Co1598 1.920 . S
O1630 C1603 1.289 . S
C1631 O1623 1.258 . S
C1631 O1624 1.266 . S
C1632 C1633 1.363 . S
C1632 C1638 1.379 . S
C1632 N1640 1.356 . S
C1633 C1632 1.363 . S
C1633 C1639 1.363 . S
C1634 C1635 1.363 . S
C1634 C1639 1.379 . S
C1634 N1641 1.356 . S
C1635 C1634 1.363 . S
C1635 C1638 1.363 . S
N1636 C1638 1.356 . S
N1636 H1648 0.984 . S
N1636 H1649 0.985 . S
N1637 C1639 1.356 . S
N1637 H1642 0.984 . S
N1637 H1643 0.985 . S
C1638 C1632 1.379 . S
C1638 C1635 1.363 . S
C1638 N1636 1.356 . S
C1639 C1633 1.363 . S
C1639 C1634 1.379 . S
C1639 N1637 1.356 . S
N1640 C1632 1.356 . S
N1640 H1646 0.984 . S
N1640 H1647 0.984 . S
N1641 C1634 1.356 . S
N1641 H1644 0.984 . S
N1641 H1645 0.985 . S
H1642 N1637 0.984 . S
H1643 N1637 0.985 . S
H1644 N1641 0.984 . S
H1645 N1641 0.985 . S
H1646 N1640 0.984 . S
H1647 N1640 0.984 . S
H1648 N1636 0.984 . S
H1649 N1636 0.985 . S
C1650 C1651 1.363 . S
C1650 C1656 1.379 . S
C1650 N1658 1.356 . S
C1651 C1650 1.363 . S
C1651 C1657 1.363 . S
C1652 C1653 1.363 . S
C1652 C1657 1.379 . S
C1652 N1659 1.356 . S
C1653 C1652 1.363 . S
C1653 C1656 1.363 . S
N1654 C1656 1.356 . S
N1654 H1666 0.984 . S
N1654 H1667 0.985 . S
N1655 C1657 1.356 . S
N1655 H1660 0.984 . S
N1655 H1661 0.985 . S
C1656 C1650 1.379 . S
C1656 C1653 1.363 . S
C1656 N1654 1.356 . S
C1657 C1651 1.363 . S
C1657 C1652 1.379 . S
C1657 N1655 1.356 . S
N1658 C1650 1.356 . S
N1658 H1664 0.984 . S
N1658 H1665 0.984 . S
N1659 C1652 1.356 . S
N1659 H1662 0.984 . S
N1659 H1663 0.985 . S
H1660 N1655 0.984 . S
H1661 N1655 0.985 . S
H1662 N1659 0.984 . S
H1663 N1659 0.985 . S
H1664 N1658 0.984 . S
H1665 N1658 0.984 . S
H1666 N1654 0.984 . S
H1667 N1654 0.985 . S
C1668 C1669 1.363 . S
C1668 C1674 1.379 . S
C1668 N1676 1.356 . S
C1669 C1668 1.363 . S
C1669 C1675 1.363 . S
C1670 C1671 1.363 . S
C1670 C1675 1.379 . S
C1670 N1677 1.356 . S
C1671 C1670 1.363 . S
C1671 C1674 1.363 . S
N1672 C1674 1.356 . S
N1672 H1684 0.984 . S
N1672 H1685 0.985 . S
N1673 C1675 1.356 . S
N1673 H1678 0.984 . S
N1673 H1679 0.985 . S
C1674 C1668 1.379 . S
C1674 C1671 1.363 . S
C1674 N1672 1.356 . S
C1675 C1669 1.363 . S
C1675 C1670 1.379 . S
C1675 N1673 1.356 . S
N1676 C1668 1.356 . S
N1676 H1682 0.984 . S
N1676 H1683 0.984 . S
N1677 C1670 1.356 . S
N1677 H1680 0.984 . S
N1677 H1681 0.985 . S
H1678 N1673 0.984 . S
H1679 N1673 0.985 . S
H1680 N1677 0.984 . S
H1681 N1677 0.985 . S
H1682 N1676 0.984 . S
H1683 N1676 0.984 . S
H1684 N1672 0.984 . S
H1685 N1672 0.985 . S
C1686 C1687 1.363 . S
C1686 C1692 1.379 . S
C1686 N1694 1.356 . S
C1687 C1686 1.363 . S
C1687 C1693 1.363 . S
C1688 C1689 1.363 . S
C1688 C1693 1.379 . S
C1688 N1695 1.356 . S
C1689 C1688 1.363 . S
C1689 C1692 1.363 . S
N1690 C1692 1.356 . S
N1690 H1702 0.984 . S
N1690 H1703 0.985 . S
N1691 C1693 1.356 . S
N1691 H1696 0.984 . S
N1691 H1697 0.985 . S
C1692 C1686 1.379 . S
C1692 C1689 1.363 . S
C1692 N1690 1.356 . S
C1693 C1687 1.363 . S
C1693 C1688 1.379 . S
C1693 N1691 1.356 . S
N1694 C1686 1.356 . S
N1694 H1700 0.984 . S
N1694 H1701 0.984 . S
N1695 C1688 1.356 . S
N1695 H1698 0.984 . S
N1695 H1699 0.985 . S
H1696 N1691 0.984 . S
H1697 N1691 0.985 . S
H1698 N1695 0.984 . S
H1699 N1695 0.985 . S
H1700 N1694 0.984 . S
H1701 N1694 0.984 . S
H1702 N1690 0.984 . S
H1703 N1690 0.985 . S
C1704 C1705 1.363 . S
C1704 C1710 1.379 . S
C1704 N1712 1.356 . S
C1705 C1704 1.363 . S
C1705 C1711 1.363 . S
C1706 C1707 1.363 . S
C1706 C1711 1.379 . S
C1706 N1713 1.356 . S
C1707 C1706 1.363 . S
C1707 C1710 1.363 . S
N1708 C1710 1.356 . S
N1708 H1720 0.984 . S
N1708 H1721 0.985 . S
N1709 C1711 1.356 . S
N1709 H1714 0.984 . S
N1709 H1715 0.985 . S
C1710 C1704 1.379 . S
C1710 C1707 1.363 . S
C1710 N1708 1.356 . S
C1711 C1705 1.363 . S
C1711 C1706 1.379 . S
C1711 N1709 1.356 . S
N1712 C1704 1.356 . S
N1712 H1718 0.984 . S
N1712 H1719 0.984 . S
N1713 C1706 1.356 . S
N1713 H1716 0.984 . S
N1713 H1717 0.985 . S
H1714 N1709 0.984 . S
H1715 N1709 0.985 . S
H1716 N1713 0.984 . S
H1717 N1713 0.985 . S
H1718 N1712 0.984 . S
H1719 N1712 0.984 . S
H1720 N1708 0.984 . S
H1721 N1708 0.985 . S
C1722 C1723 1.363 . S
C1722 C1728 1.379 . S
C1722 N1730 1.356 . S
C1723 C1722 1.363 . S
C1723 C1729 1.363 . S
C1724 C1725 1.363 . S
C1724 C1729 1.379 . S
C1724 N1731 1.356 . S
C1725 C1724 1.363 . S
C1725 C1728 1.363 . S
N1726 C1728 1.356 . S
N1726 H1738 0.984 . S
N1726 H1739 0.985 . S
N1727 C1729 1.356 . S
N1727 H1732 0.984 . S
N1727 H1733 0.985 . S
C1728 C1722 1.379 . S
C1728 C1725 1.363 . S
C1728 N1726 1.356 . S
C1729 C1723 1.363 . S
C1729 C1724 1.379 . S
C1729 N1727 1.356 . S
N1730 C1722 1.356 . S
N1730 H1736 0.984 . S
N1730 H1737 0.984 . S
N1731 C1724 1.356 . S
N1731 H1734 0.984 . S
N1731 H1735 0.985 . S
H1732 N1727 0.984 . S
H1733 N1727 0.985 . S
H1734 N1731 0.984 . S
H1735 N1731 0.985 . S
H1736 N1730 0.984 . S
H1737 N1730 0.984 . S
H1738 N1726 0.984 . S
H1739 N1726 0.985 . S
C1740 C1741 1.363 . S
C1740 C1746 1.379 . S
C1740 N1748 1.356 . S
C1741 C1740 1.363 . S
C1741 C1747 1.363 . S
C1742 C1743 1.363 . S
C1742 C1747 1.379 . S
C1742 N1749 1.356 . S
C1743 C1742 1.363 . S
C1743 C1746 1.363 . S
N1744 C1746 1.356 . S
N1744 H1756 0.984 . S
N1744 H1757 0.985 . S
N1745 C1747 1.356 . S
N1745 H1750 0.984 . S
N1745 H1751 0.985 . S
C1746 C1740 1.379 . S
C1746 C1743 1.363 . S
C1746 N1744 1.356 . S
C1747 C1741 1.363 . S
C1747 C1742 1.379 . S
C1747 N1745 1.356 . S
N1748 C1740 1.356 . S
N1748 H1754 0.984 . S
N1748 H1755 0.984 . S
N1749 C1742 1.356 . S
N1749 H1752 0.984 . S
N1749 H1753 0.985 . S
H1750 N1745 0.984 . S
H1751 N1745 0.985 . S
H1752 N1749 0.984 . S
H1753 N1749 0.985 . S
H1754 N1748 0.984 . S
H1755 N1748 0.984 . S
H1756 N1744 0.984 . S
H1757 N1744 0.985 . S
C1758 C1759 1.363 . S
C1758 C1764 1.379 . S
C1758 N1766 1.356 . S
C1759 C1758 1.363 . S
C1759 C1765 1.363 . S
C1760 C1761 1.363 . S
C1760 C1765 1.379 . S
C1760 N1767 1.356 . S
C1761 C1760 1.363 . S
C1761 C1764 1.363 . S
N1762 C1764 1.356 . S
N1762 H1774 0.984 . S
N1762 H1775 0.985 . S
N1763 C1765 1.356 . S
N1763 H1768 0.984 . S
N1763 H1769 0.985 . S
C1764 C1758 1.379 . S
C1764 C1761 1.363 . S
C1764 N1762 1.356 . S
C1765 C1759 1.363 . S
C1765 C1760 1.379 . S
C1765 N1763 1.356 . S
N1766 C1758 1.356 . S
N1766 H1772 0.984 . S
N1766 H1773 0.984 . S
N1767 C1760 1.356 . S
N1767 H1770 0.984 . S
N1767 H1771 0.985 . S
H1768 N1763 0.984 . S
H1769 N1763 0.985 . S
H1770 N1767 0.984 . S
H1771 N1767 0.985 . S
H1772 N1766 0.984 . S
H1773 N1766 0.984 . S
H1774 N1762 0.984 . S
H1775 N1762 0.985 . S
C1776 C1777 1.363 . S
C1776 C1782 1.379 . S
C1776 N1784 1.356 . S
C1777 C1776 1.363 . S
C1777 C1783 1.363 . S
C1778 C1779 1.363 . S
C1778 C1783 1.379 . S
C1778 N1785 1.356 . S
C1779 C1778 1.363 . S
C1779 C1782 1.363 . S
N1780 C1782 1.356 . S
N1780 H1792 0.984 . S
N1780 H1793 0.985 . S
N1781 C1783 1.356 . S
N1781 H1786 0.984 . S
N1781 H1787 0.985 . S
C1782 C1776 1.379 . S
C1782 C1779 1.363 . S
C1782 N1780 1.356 . S
C1783 C1777 1.363 . S
C1783 C1778 1.379 . S
C1783 N1781 1.356 . S
N1784 C1776 1.356 . S
N1784 H1790 0.984 . S
N1784 H1791 0.984 . S
N1785 C1778 1.356 . S
N1785 H1788 0.984 . S
N1785 H1789 0.985 . S
H1786 N1781 0.984 . S
H1787 N1781 0.985 . S
H1788 N1785 0.984 . S
H1789 N1785 0.985 . S
H1790 N1784 0.984 . S
H1791 N1784 0.984 . S
H1792 N1780 0.984 . S
H1793 N1780 0.985 . S
C1794 C1795 1.363 . S
C1794 C1800 1.379 . S
C1794 N1802 1.356 . S
C1795 C1794 1.363 . S
C1795 C1801 1.363 . S
C1796 C1797 1.363 . S
C1796 C1801 1.379 . S
C1796 N1803 1.356 . S
C1797 C1796 1.363 . S
C1797 C1800 1.363 . S
N1798 C1800 1.356 . S
N1798 H1810 0.984 . S
N1798 H1811 0.985 . S
N1799 C1801 1.356 . S
N1799 H1804 0.984 . S
N1799 H1805 0.985 . S
C1800 C1794 1.379 . S
C1800 C1797 1.363 . S
C1800 N1798 1.356 . S
C1801 C1795 1.363 . S
C1801 C1796 1.379 . S
C1801 N1799 1.356 . S
N1802 C1794 1.356 . S
N1802 H1808 0.984 . S
N1802 H1809 0.984 . S
N1803 C1796 1.356 . S
N1803 H1806 0.984 . S
N1803 H1807 0.985 . S
H1804 N1799 0.984 . S
H1805 N1799 0.985 . S
H1806 N1803 0.984 . S
H1807 N1803 0.985 . S
H1808 N1802 0.984 . S
H1809 N1802 0.984 . S
H1810 N1798 0.984 . S
H1811 N1798 0.985 . S
C1812 C1813 1.363 . S
C1812 C1818 1.379 . S
C1812 N1820 1.356 . S
C1813 C1812 1.363 . S
C1813 C1819 1.363 . S
C1814 C1815 1.363 . S
C1814 C1819 1.379 . S
C1814 N1821 1.356 . S
C1815 C1814 1.363 . S
C1815 C1818 1.363 . S
N1816 C1818 1.356 . S
N1816 H1828 0.984 . S
N1816 H1829 0.985 . S
N1817 C1819 1.356 . S
N1817 H1822 0.984 . S
N1817 H1823 0.985 . S
C1818 C1812 1.379 . S
C1818 C1815 1.363 . S
C1818 N1816 1.356 . S
C1819 C1813 1.363 . S
C1819 C1814 1.379 . S
C1819 N1817 1.356 . S
N1820 C1812 1.356 . S
N1820 H1826 0.984 . S
N1820 H1827 0.984 . S
N1821 C1814 1.356 . S
N1821 H1824 0.984 . S
N1821 H1825 0.985 . S
H1822 N1817 0.984 . S
H1823 N1817 0.985 . S
H1824 N1821 0.984 . S
H1825 N1821 0.985 . S
H1826 N1820 0.984 . S
H1827 N1820 0.984 . S
H1828 N1816 0.984 . S
H1829 N1816 0.985 . S
C1830 C1831 1.363 . S
C1830 C1836 1.379 . S
C1830 N1838 1.356 . S
C1831 C1830 1.363 . S
C1831 C1837 1.363 . S
C1832 C1833 1.363 . S
C1832 C1837 1.379 . S
C1832 N1839 1.356 . S
C1833 C1832 1.363 . S
C1833 C1836 1.363 . S
N1834 C1836 1.356 . S
N1834 H1846 0.984 . S
N1834 H1847 0.985 . S
N1835 C1837 1.356 . S
N1835 H1840 0.984 . S
N1835 H1841 0.985 . S
C1836 C1830 1.379 . S
C1836 C1833 1.363 . S
C1836 N1834 1.356 . S
C1837 C1831 1.363 . S
C1837 C1832 1.379 . S
C1837 N1835 1.356 . S
N1838 C1830 1.356 . S
N1838 H1844 0.984 . S
N1838 H1845 0.984 . S
N1839 C1832 1.356 . S
N1839 H1842 0.984 . S
N1839 H1843 0.985 . S
H1840 N1835 0.984 . S
H1841 N1835 0.985 . S
H1842 N1839 0.984 . S
H1843 N1839 0.985 . S
H1844 N1838 0.984 . S
H1845 N1838 0.984 . S
H1846 N1834 0.984 . S
H1847 N1834 0.985 . S
C1848 C1849 1.363 . S
C1848 C1854 1.379 . S
C1848 N1856 1.356 . S
C1849 C1848 1.363 . S
C1849 C1855 1.363 . S
C1850 C1851 1.363 . S
C1850 C1855 1.379 . S
C1850 N1857 1.356 . S
C1851 C1850 1.363 . S
C1851 C1854 1.363 . S
N1852 C1854 1.356 . S
N1852 H1864 0.984 . S
N1852 H1865 0.985 . S
N1853 C1855 1.356 . S
N1853 H1858 0.984 . S
N1853 H1859 0.985 . S
C1854 C1848 1.379 . S
C1854 C1851 1.363 . S
C1854 N1852 1.356 . S
C1855 C1849 1.363 . S
C1855 C1850 1.379 . S
C1855 N1853 1.356 . S
N1856 C1848 1.356 . S
N1856 H1862 0.984 . S
N1856 H1863 0.984 . S
N1857 C1850 1.356 . S
N1857 H1860 0.984 . S
N1857 H1861 0.985 . S
H1858 N1853 0.984 . S
H1859 N1853 0.985 . S
H1860 N1857 0.984 . S
H1861 N1857 0.985 . S
H1862 N1856 0.984 . S
H1863 N1856 0.984 . S
H1864 N1852 0.984 . S
H1865 N1852 0.985 . S
C1866 C1867 1.363 . S
C1866 C1872 1.379 . S
C1866 N1874 1.356 . S
C1867 C1866 1.363 . S
C1867 C1873 1.363 . S
C1868 C1869 1.363 . S
C1868 C1873 1.379 . S
C1868 N1875 1.356 . S
C1869 C1868 1.363 . S
C1869 C1872 1.363 . S
N1870 C1872 1.356 . S
N1870 H1882 0.984 . S
N1870 H1883 0.985 . S
N1871 C1873 1.356 . S
N1871 H1876 0.984 . S
N1871 H1877 0.985 . S
C1872 C1866 1.379 . S
C1872 C1869 1.363 . S
C1872 N1870 1.356 . S
C1873 C1867 1.363 . S
C1873 C1868 1.379 . S
C1873 N1871 1.356 . S
N1874 C1866 1.356 . S
N1874 H1880 0.984 . S
N1874 H1881 0.984 . S
N1875 C1868 1.356 . S
N1875 H1878 0.984 . S
N1875 H1879 0.985 . S
H1876 N1871 0.984 . S
H1877 N1871 0.985 . S
H1878 N1875 0.984 . S
H1879 N1875 0.985 . S
H1880 N1874 0.984 . S
H1881 N1874 0.984 . S
H1882 N1870 0.984 . S
H1883 N1870 0.985 . S
C1884 C1885 1.363 . S
C1884 C1890 1.379 . S
C1884 N1892 1.356 . S
C1885 C1884 1.363 . S
C1885 C1891 1.363 . S
C1886 C1887 1.363 . S
C1886 C1891 1.379 . S
C1886 N1893 1.356 . S
C1887 C1886 1.363 . S
C1887 C1890 1.363 . S
N1888 C1890 1.356 . S
N1888 H1900 0.984 . S
N1888 H1901 0.985 . S
N1889 C1891 1.356 . S
N1889 H1894 0.984 . S
N1889 H1895 0.985 . S
C1890 C1884 1.379 . S
C1890 C1887 1.363 . S
C1890 N1888 1.356 . S
C1891 C1885 1.363 . S
C1891 C1886 1.379 . S
C1891 N1889 1.356 . S
N1892 C1884 1.356 . S
N1892 H1898 0.984 . S
N1892 H1899 0.984 . S
N1893 C1886 1.356 . S
N1893 H1896 0.984 . S
N1893 H1897 0.985 . S
H1894 N1889 0.984 . S
H1895 N1889 0.985 . S
H1896 N1893 0.984 . S
H1897 N1893 0.985 . S
H1898 N1892 0.984 . S
H1899 N1892 0.984 . S
H1900 N1888 0.984 . S
H1901 N1888 0.985 . S
C1902 C1903 1.363 . S
C1902 C1908 1.379 . S
C1902 N1910 1.356 . S
C1903 C1902 1.363 . S
C1903 C1909 1.363 . S
C1904 C1905 1.363 . S
C1904 C1909 1.379 . S
C1904 N1911 1.356 . S
C1905 C1904 1.363 . S
C1905 C1908 1.363 . S
N1906 C1908 1.356 . S
N1906 H1918 0.984 . S
N1906 H1919 0.985 . S
N1907 C1909 1.356 . S
N1907 H1912 0.984 . S
N1907 H1913 0.985 . S
C1908 C1902 1.379 . S
C1908 C1905 1.363 . S
C1908 N1906 1.356 . S
C1909 C1903 1.363 . S
C1909 C1904 1.379 . S
C1909 N1907 1.356 . S
N1910 C1902 1.356 . S
N1910 H1916 0.984 . S
N1910 H1917 0.984 . S
N1911 C1904 1.356 . S
N1911 H1914 0.984 . S
N1911 H1915 0.985 . S
H1912 N1907 0.984 . S
H1913 N1907 0.985 . S
H1914 N1911 0.984 . S
H1915 N1911 0.985 . S
H1916 N1910 0.984 . S
H1917 N1910 0.984 . S
H1918 N1906 0.984 . S
H1919 N1906 0.985 . S
C1920 C1921 1.363 . S
C1920 C1926 1.379 . S
C1920 N1928 1.356 . S
C1921 C1920 1.363 . S
C1921 C1927 1.363 . S
C1922 C1923 1.363 . S
C1922 C1927 1.379 . S
C1922 N1929 1.356 . S
C1923 C1922 1.363 . S
C1923 C1926 1.363 . S
N1924 C1926 1.356 . S
N1924 H1936 0.984 . S
N1924 H1937 0.985 . S
N1925 C1927 1.356 . S
N1925 H1930 0.984 . S
N1925 H1931 0.985 . S
C1926 C1920 1.379 . S
C1926 C1923 1.363 . S
C1926 N1924 1.356 . S
C1927 C1921 1.363 . S
C1927 C1922 1.379 . S
C1927 N1925 1.356 . S
N1928 C1920 1.356 . S
N1928 H1934 0.984 . S
N1928 H1935 0.984 . S
N1929 C1922 1.356 . S
N1929 H1932 0.984 . S
N1929 H1933 0.985 . S
H1930 N1925 0.984 . S
H1931 N1925 0.985 . S
H1932 N1929 0.984 . S
H1933 N1929 0.985 . S
H1934 N1928 0.984 . S
H1935 N1928 0.984 . S
H1936 N1924 0.984 . S
H1937 N1924 0.985 . S
C1938 C1939 1.363 . S
C1938 C1944 1.379 . S
C1938 N1946 1.356 . S
C1939 C1938 1.363 . S
C1939 C1945 1.363 . S
C1940 C1941 1.363 . S
C1940 C1945 1.379 . S
C1940 N1947 1.356 . S
C1941 C1940 1.363 . S
C1941 C1944 1.363 . S
N1942 C1944 1.356 . S
N1942 H1954 0.984 . S
N1942 H1955 0.985 . S
N1943 C1945 1.356 . S
N1943 H1948 0.984 . S
N1943 H1949 0.985 . S
C1944 C1938 1.379 . S
C1944 C1941 1.363 . S
C1944 N1942 1.356 . S
C1945 C1939 1.363 . S
C1945 C1940 1.379 . S
C1945 N1943 1.356 . S
N1946 C1938 1.356 . S
N1946 H1952 0.984 . S
N1946 H1953 0.984 . S
N1947 C1940 1.356 . S
N1947 H1950 0.984 . S
N1947 H1951 0.985 . S
H1948 N1943 0.984 . S
H1949 N1943 0.985 . S
H1950 N1947 0.984 . S
H1951 N1947 0.985 . S
H1952 N1946 0.984 . S
H1953 N1946 0.984 . S
H1954 N1942 0.984 . S
H1955 N1942 0.985 . S
C1956 C1957 1.363 . S
C1956 C1962 1.379 . S
C1956 N1964 1.356 . S
C1957 C1956 1.363 . S
C1957 C1963 1.363 . S
C1958 C1959 1.363 . S
C1958 C1963 1.379 . S
C1958 N1965 1.356 . S
C1959 C1958 1.363 . S
C1959 C1962 1.363 . S
N1960 C1962 1.356 . S
N1960 H1972 0.984 . S
N1960 H1973 0.985 . S
N1961 C1963 1.356 . S
N1961 H1966 0.984 . S
N1961 H1967 0.985 . S
C1962 C1956 1.379 . S
C1962 C1959 1.363 . S
C1962 N1960 1.356 . S
C1963 C1957 1.363 . S
C1963 C1958 1.379 . S
C1963 N1961 1.356 . S
N1964 C1956 1.356 . S
N1964 H1970 0.984 . S
N1964 H1971 0.984 . S
N1965 C1958 1.356 . S
N1965 H1968 0.984 . S
N1965 H1969 0.985 . S
H1966 N1961 0.984 . S
H1967 N1961 0.985 . S
H1968 N1965 0.984 . S
H1969 N1965 0.985 . S
H1970 N1964 0.984 . S
H1971 N1964 0.984 . S
H1972 N1960 0.984 . S
H1973 N1960 0.985 . S
C1974 C1975 1.363 . S
C1974 C1980 1.379 . S
C1974 N1982 1.356 . S
C1975 C1974 1.363 . S
C1975 C1981 1.363 . S
C1976 C1977 1.363 . S
C1976 C1981 1.379 . S
C1976 N1983 1.356 . S
C1977 C1976 1.363 . S
C1977 C1980 1.363 . S
N1978 C1980 1.356 . S
N1978 H1990 0.984 . S
N1978 H1991 0.985 . S
N1979 C1981 1.356 . S
N1979 H1984 0.984 . S
N1979 H1985 0.985 . S
C1980 C1974 1.379 . S
C1980 C1977 1.363 . S
C1980 N1978 1.356 . S
C1981 C1975 1.363 . S
C1981 C1976 1.379 . S
C1981 N1979 1.356 . S
N1982 C1974 1.356 . S
N1982 H1988 0.984 . S
N1982 H1989 0.984 . S
N1983 C1976 1.356 . S
N1983 H1986 0.984 . S
N1983 H1987 0.985 . S
H1984 N1979 0.984 . S
H1985 N1979 0.985 . S
H1986 N1983 0.984 . S
H1987 N1983 0.985 . S
H1988 N1982 0.984 . S
H1989 N1982 0.984 . S
H1990 N1978 0.984 . S
H1991 N1978 0.985 . S
C1992 C1993 1.363 . S
C1992 C1998 1.379 . S
C1992 N2000 1.356 . S
C1993 C1992 1.363 . S
C1993 C1999 1.363 . S
C1994 C1995 1.363 . S
C1994 C1999 1.379 . S
C1994 N2001 1.356 . S
C1995 C1994 1.363 . S
C1995 C1998 1.363 . S
N1996 C1998 1.356 . S
N1996 H2008 0.984 . S
N1996 H2009 0.985 . S
N1997 C1999 1.356 . S
N1997 H2002 0.984 . S
N1997 H2003 0.985 . S
C1998 C1992 1.379 . S
C1998 C1995 1.363 . S
C1998 N1996 1.356 . S
C1999 C1993 1.363 . S
C1999 C1994 1.379 . S
C1999 N1997 1.356 . S
N2000 C1992 1.356 . S
N2000 H2006 0.984 . S
N2000 H2007 0.984 . S
N2001 C1994 1.356 . S
N2001 H2004 0.984 . S
N2001 H2005 0.985 . S
H2002 N1997 0.984 . S
H2003 N1997 0.985 . S
H2004 N2001 0.984 . S
H2005 N2001 0.985 . S
H2006 N2000 0.984 . S
H2007 N2000 0.984 . S
H2008 N1996 0.984 . S
H2009 N1996 0.985 . S
C2010 C2011 1.363 . S
C2010 C2016 1.379 . S
C2010 N2018 1.356 . S
C2011 C2010 1.363 . S
C2011 C2017 1.363 . S
C2012 C2013 1.363 . S
C2012 C2017 1.379 . S
C2012 N2019 1.356 . S
C2013 C2012 1.363 . S
C2013 C2016 1.363 . S
N2014 C2016 1.356 . S
N2014 H2026 0.984 . S
N2014 H2027 0.985 . S
N2015 C2017 1.356 . S
N2015 H2020 0.984 . S
N2015 H2021 0.985 . S
C2016 C2010 1.379 . S
C2016 C2013 1.363 . S
C2016 N2014 1.356 . S
C2017 C2011 1.363 . S
C2017 C2012 1.379 . S
C2017 N2015 1.356 . S
N2018 C2010 1.356 . S
N2018 H2024 0.984 . S
N2018 H2025 0.984 . S
N2019 C2012 1.356 . S
N2019 H2022 0.984 . S
N2019 H2023 0.985 . S
H2020 N2015 0.984 . S
H2021 N2015 0.985 . S
H2022 N2019 0.984 . S
H2023 N2019 0.985 . S
H2024 N2018 0.984 . S
H2025 N2018 0.984 . S
H2026 N2014 0.984 . S
H2027 N2014 0.985 . S
C2028 C2029 1.363 . S
C2028 C2034 1.379 . S
C2028 N2036 1.356 . S
C2029 C2028 1.363 . S
C2029 C2035 1.363 . S
C2030 C2031 1.363 . S
C2030 C2035 1.379 . S
C2030 N2037 1.356 . S
C2031 C2030 1.363 . S
C2031 C2034 1.363 . S
N2032 C2034 1.356 . S
N2032 H2044 0.984 . S
N2032 H2045 0.985 . S
N2033 C2035 1.356 . S
N2033 H2038 0.984 . S
N2033 H2039 0.985 . S
C2034 C2028 1.379 . S
C2034 C2031 1.363 . S
C2034 N2032 1.356 . S
C2035 C2029 1.363 . S
C2035 C2030 1.379 . S
C2035 N2033 1.356 . S
N2036 C2028 1.356 . S
N2036 H2042 0.984 . S
N2036 H2043 0.984 . S
N2037 C2030 1.356 . S
N2037 H2040 0.984 . S
N2037 H2041 0.985 . S
H2038 N2033 0.984 . S
H2039 N2033 0.985 . S
H2040 N2037 0.984 . S
H2041 N2037 0.985 . S
H2042 N2036 0.984 . S
H2043 N2036 0.984 . S
H2044 N2032 0.984 . S
H2045 N2032 0.985 . S
C2046 C2047 1.363 . S
C2046 C2052 1.379 . S
C2046 N2054 1.356 . S
C2047 C2046 1.363 . S
C2047 C2053 1.363 . S
C2048 C2049 1.363 . S
C2048 C2053 1.379 . S
C2048 N2055 1.356 . S
C2049 C2048 1.363 . S
C2049 C2052 1.363 . S
N2050 C2052 1.356 . S
N2050 H2062 0.984 . S
N2050 H2063 0.985 . S
N2051 C2053 1.356 . S
N2051 H2056 0.984 . S
N2051 H2057 0.985 . S
C2052 C2046 1.379 . S
C2052 C2049 1.363 . S
C2052 N2050 1.356 . S
C2053 C2047 1.363 . S
C2053 C2048 1.379 . S
C2053 N2051 1.356 . S
N2054 C2046 1.356 . S
N2054 H2060 0.984 . S
N2054 H2061 0.984 . S
N2055 C2048 1.356 . S
N2055 H2058 0.984 . S
N2055 H2059 0.985 . S
H2056 N2051 0.984 . S
H2057 N2051 0.985 . S
H2058 N2055 0.984 . S
H2059 N2055 0.985 . S
H2060 N2054 0.984 . S
H2061 N2054 0.984 . S
H2062 N2050 0.984 . S
H2063 N2050 0.985 . S
C2064 C2065 1.363 . S
C2064 C2070 1.379 . S
C2064 N2072 1.356 . S
C2065 C2064 1.363 . S
C2065 C2071 1.363 . S
C2066 C2067 1.363 . S
C2066 C2071 1.379 . S
C2066 N2073 1.356 . S
C2067 C2066 1.363 . S
C2067 C2070 1.363 . S
N2068 C2070 1.356 . S
N2068 H2080 0.984 . S
N2068 H2081 0.985 . S
N2069 C2071 1.356 . S
N2069 H2074 0.984 . S
N2069 H2075 0.985 . S
C2070 C2064 1.379 . S
C2070 C2067 1.363 . S
C2070 N2068 1.356 . S
C2071 C2065 1.363 . S
C2071 C2066 1.379 . S
C2071 N2069 1.356 . S
N2072 C2064 1.356 . S
N2072 H2078 0.984 . S
N2072 H2079 0.984 . S
N2073 C2066 1.356 . S
N2073 H2076 0.984 . S
N2073 H2077 0.985 . S
H2074 N2069 0.984 . S
H2075 N2069 0.985 . S
H2076 N2073 0.984 . S
H2077 N2073 0.985 . S
H2078 N2072 0.984 . S
H2079 N2072 0.984 . S
H2080 N2068 0.984 . S
H2081 N2068 0.985 . S
C2082 C2083 1.363 . S
C2082 C2088 1.379 . S
C2082 N2090 1.356 . S
C2083 C2082 1.363 . S
C2083 C2089 1.363 . S
C2084 C2085 1.363 . S
C2084 C2089 1.379 . S
C2084 N2091 1.356 . S
C2085 C2084 1.363 . S
C2085 C2088 1.363 . S
N2086 C2088 1.356 . S
N2086 H2098 0.984 . S
N2086 H2099 0.985 . S
N2087 C2089 1.356 . S
N2087 H2092 0.984 . S
N2087 H2093 0.985 . S
C2088 C2082 1.379 . S
C2088 C2085 1.363 . S
C2088 N2086 1.356 . S
C2089 C2083 1.363 . S
C2089 C2084 1.379 . S
C2089 N2087 1.356 . S
N2090 C2082 1.356 . S
N2090 H2096 0.984 . S
N2090 H2097 0.984 . S
N2091 C2084 1.356 . S
N2091 H2094 0.984 . S
N2091 H2095 0.985 . S
H2092 N2087 0.984 . S
H2093 N2087 0.985 . S
H2094 N2091 0.984 . S
H2095 N2091 0.985 . S
H2096 N2090 0.984 . S
H2097 N2090 0.984 . S
H2098 N2086 0.984 . S
H2099 N2086 0.985 . S
C2100 C2101 1.363 . S
C2100 C2106 1.379 . S
C2100 N2108 1.356 . S
C2101 C2100 1.363 . S
C2101 C2107 1.363 . S
C2102 C2103 1.363 . S
C2102 C2107 1.379 . S
C2102 N2109 1.356 . S
C2103 C2102 1.363 . S
C2103 C2106 1.363 . S
N2104 C2106 1.356 . S
N2104 H2116 0.984 . S
N2104 H2117 0.985 . S
N2105 C2107 1.356 . S
N2105 H2110 0.984 . S
N2105 H2111 0.985 . S
C2106 C2100 1.379 . S
C2106 C2103 1.363 . S
C2106 N2104 1.356 . S
C2107 C2101 1.363 . S
C2107 C2102 1.379 . S
C2107 N2105 1.356 . S
N2108 C2100 1.356 . S
N2108 H2114 0.984 . S
N2108 H2115 0.984 . S
N2109 C2102 1.356 . S
N2109 H2112 0.984 . S
N2109 H2113 0.985 . S
H2110 N2105 0.984 . S
H2111 N2105 0.985 . S
H2112 N2109 0.984 . S
H2113 N2109 0.985 . S
H2114 N2108 0.984 . S
H2115 N2108 0.984 . S
H2116 N2104 0.984 . S
H2117 N2104 0.985 . S
C2118 C2119 1.363 . S
C2118 C2124 1.379 . S
C2118 N2126 1.356 . S
C2119 C2118 1.363 . S
C2119 C2125 1.363 . S
C2120 C2121 1.363 . S
C2120 C2125 1.379 . S
C2120 N2127 1.356 . S
C2121 C2120 1.363 . S
C2121 C2124 1.363 . S
N2122 C2124 1.356 . S
N2122 H2134 0.984 . S
N2122 H2135 0.985 . S
N2123 C2125 1.356 . S
N2123 H2128 0.984 . S
N2123 H2129 0.985 . S
C2124 C2118 1.379 . S
C2124 C2121 1.363 . S
C2124 N2122 1.356 . S
C2125 C2119 1.363 . S
C2125 C2120 1.379 . S
C2125 N2123 1.356 . S
N2126 C2118 1.356 . S
N2126 H2132 0.984 . S
N2126 H2133 0.984 . S
N2127 C2120 1.356 . S
N2127 H2130 0.984 . S
N2127 H2131 0.985 . S
H2128 N2123 0.984 . S
H2129 N2123 0.985 . S
H2130 N2127 0.984 . S
H2131 N2127 0.985 . S
H2132 N2126 0.984 . S
H2133 N2126 0.984 . S
H2134 N2122 0.984 . S
H2135 N2122 0.985 . S
C2136 C2137 1.363 . S
C2136 C2142 1.379 . S
C2136 N2144 1.356 . S
C2137 C2136 1.363 . S
C2137 C2143 1.363 . S
C2138 C2139 1.363 . S
C2138 C2143 1.379 . S
C2138 N2145 1.356 . S
C2139 C2138 1.363 . S
C2139 C2142 1.363 . S
N2140 C2142 1.356 . S
N2140 H2152 0.984 . S
N2140 H2153 0.985 . S
N2141 C2143 1.356 . S
N2141 H2146 0.984 . S
N2141 H2147 0.985 . S
C2142 C2136 1.379 . S
C2142 C2139 1.363 . S
C2142 N2140 1.356 . S
C2143 C2137 1.363 . S
C2143 C2138 1.379 . S
C2143 N2141 1.356 . S
N2144 C2136 1.356 . S
N2144 H2150 0.984 . S
N2144 H2151 0.984 . S
N2145 C2138 1.356 . S
N2145 H2148 0.984 . S
N2145 H2149 0.985 . S
H2146 N2141 0.984 . S
H2147 N2141 0.985 . S
H2148 N2145 0.984 . S
H2149 N2145 0.985 . S
H2150 N2144 0.984 . S
H2151 N2144 0.984 . S
H2152 N2140 0.984 . S
H2153 N2140 0.985 . S
C2154 C2155 1.363 . S
C2154 C2160 1.379 . S
C2154 N2162 1.356 . S
C2155 C2154 1.363 . S
C2155 C2161 1.363 . S
C2156 C2157 1.363 . S
C2156 C2161 1.379 . S
C2156 N2163 1.356 . S
C2157 C2156 1.363 . S
C2157 C2160 1.363 . S
N2158 C2160 1.356 . S
N2158 H2170 0.984 . S
N2158 H2171 0.985 . S
N2159 C2161 1.356 . S
N2159 H2164 0.984 . S
N2159 H2165 0.985 . S
C2160 C2154 1.379 . S
C2160 C2157 1.363 . S
C2160 N2158 1.356 . S
C2161 C2155 1.363 . S
C2161 C2156 1.379 . S
C2161 N2159 1.356 . S
N2162 C2154 1.356 . S
N2162 H2168 0.984 . S
N2162 H2169 0.984 . S
N2163 C2156 1.356 . S
N2163 H2166 0.984 . S
N2163 H2167 0.985 . S
H2164 N2159 0.984 . S
H2165 N2159 0.985 . S
H2166 N2163 0.984 . S
H2167 N2163 0.985 . S
H2168 N2162 0.984 . S
H2169 N2162 0.984 . S
H2170 N2158 0.984 . S
H2171 N2158 0.985 . S
C2172 C2173 1.363 . S
C2172 C2178 1.379 . S
C2172 N2180 1.356 . S
C2173 C2172 1.363 . S
C2173 C2179 1.363 . S
C2174 C2175 1.363 . S
C2174 C2179 1.379 . S
C2174 N2181 1.356 . S
C2175 C2174 1.363 . S
C2175 C2178 1.363 . S
N2176 C2178 1.356 . S
N2176 H2188 0.984 . S
N2176 H2189 0.985 . S
N2177 C2179 1.356 . S
N2177 H2182 0.984 . S
N2177 H2183 0.985 . S
C2178 C2172 1.379 . S
C2178 C2175 1.363 . S
C2178 N2176 1.356 . S
C2179 C2173 1.363 . S
C2179 C2174 1.379 . S
C2179 N2177 1.356 . S
N2180 C2172 1.356 . S
N2180 H2186 0.984 . S
N2180 H2187 0.984 . S
N2181 C2174 1.356 . S
N2181 H2184 0.984 . S
N2181 H2185 0.985 . S
H2182 N2177 0.984 . S
H2183 N2177 0.985 . S
H2184 N2181 0.984 . S
H2185 N2181 0.985 . S
H2186 N2180 0.984 . S
H2187 N2180 0.984 . S
H2188 N2176 0.984 . S
H2189 N2176 0.985 . S
C2190 C2191 1.363 . S
C2190 C2196 1.379 . S
C2190 N2198 1.356 . S
C2191 C2190 1.363 . S
C2191 C2197 1.363 . S
C2192 C2193 1.363 . S
C2192 C2197 1.379 . S
C2192 N2199 1.356 . S
C2193 C2192 1.363 . S
C2193 C2196 1.363 . S
N2194 C2196 1.356 . S
N2194 H2206 0.984 . S
N2194 H2207 0.985 . S
N2195 C2197 1.356 . S
N2195 H2200 0.984 . S
N2195 H2201 0.985 . S
C2196 C2190 1.379 . S
C2196 C2193 1.363 . S
C2196 N2194 1.356 . S
C2197 C2191 1.363 . S
C2197 C2192 1.379 . S
C2197 N2195 1.356 . S
N2198 C2190 1.356 . S
N2198 H2204 0.984 . S
N2198 H2205 0.984 . S
N2199 C2192 1.356 . S
N2199 H2202 0.984 . S
N2199 H2203 0.985 . S
H2200 N2195 0.984 . S
H2201 N2195 0.985 . S
H2202 N2199 0.984 . S
H2203 N2199 0.985 . S
H2204 N2198 0.984 . S
H2205 N2198 0.984 . S
H2206 N2194 0.984 . S
H2207 N2194 0.985 . S
C2208 C2209 1.363 . S
C2208 C2214 1.379 . S
C2208 N2216 1.356 . S
C2209 C2208 1.363 . S
C2209 C2215 1.363 . S
C2210 C2211 1.363 . S
C2210 C2215 1.379 . S
C2210 N2217 1.356 . S
C2211 C2210 1.363 . S
C2211 C2214 1.363 . S
N2212 C2214 1.356 . S
N2212 H2224 0.984 . S
N2212 H2225 0.985 . S
N2213 C2215 1.356 . S
N2213 H2218 0.984 . S
N2213 H2219 0.985 . S
C2214 C2208 1.379 . S
C2214 C2211 1.363 . S
C2214 N2212 1.356 . S
C2215 C2209 1.363 . S
C2215 C2210 1.379 . S
C2215 N2213 1.356 . S
N2216 C2208 1.356 . S
N2216 H2222 0.984 . S
N2216 H2223 0.984 . S
N2217 C2210 1.356 . S
N2217 H2220 0.984 . S
N2217 H2221 0.985 . S
H2218 N2213 0.984 . S
H2219 N2213 0.985 . S
H2220 N2217 0.984 . S
H2221 N2217 0.985 . S
H2222 N2216 0.984 . S
H2223 N2216 0.984 . S
H2224 N2212 0.984 . S
H2225 N2212 0.985 . S
C2226 C2227 1.363 . S
C2226 C2232 1.379 . S
C2226 N2234 1.356 . S
C2227 C2226 1.363 . S
C2227 C2233 1.363 . S
C2228 C2229 1.363 . S
C2228 C2233 1.379 . S
C2228 N2235 1.356 . S
C2229 C2228 1.363 . S
C2229 C2232 1.363 . S
N2230 C2232 1.356 . S
N2230 H2242 0.984 . S
N2230 H2243 0.985 . S
N2231 C2233 1.356 . S
N2231 H2236 0.984 . S
N2231 H2237 0.985 . S
C2232 C2226 1.379 . S
C2232 C2229 1.363 . S
C2232 N2230 1.356 . S
C2233 C2227 1.363 . S
C2233 C2228 1.379 . S
C2233 N2231 1.356 . S
N2234 C2226 1.356 . S
N2234 H2240 0.984 . S
N2234 H2241 0.984 . S
N2235 C2228 1.356 . S
N2235 H2238 0.984 . S
N2235 H2239 0.985 . S
H2236 N2231 0.984 . S
H2237 N2231 0.985 . S
H2238 N2235 0.984 . S
H2239 N2235 0.985 . S
H2240 N2234 0.984 . S
H2241 N2234 0.984 . S
H2242 N2230 0.984 . S
H2243 N2230 0.985 . S
C2244 C2245 1.363 . S
C2244 C2250 1.379 . S
C2244 N2252 1.356 . S
C2245 C2244 1.363 . S
C2245 C2251 1.363 . S
C2246 C2247 1.363 . S
C2246 C2251 1.379 . S
C2246 N2253 1.356 . S
C2247 C2246 1.363 . S
C2247 C2250 1.363 . S
N2248 C2250 1.356 . S
N2248 H2260 0.984 . S
N2248 H2261 0.985 . S
N2249 C2251 1.356 . S
N2249 H2254 0.984 . S
N2249 H2255 0.985 . S
C2250 C2244 1.379 . S
C2250 C2247 1.363 . S
C2250 N2248 1.356 . S
C2251 C2245 1.363 . S
C2251 C2246 1.379 . S
C2251 N2249 1.356 . S
N2252 C2244 1.356 . S
N2252 H2258 0.984 . S
N2252 H2259 0.984 . S
N2253 C2246 1.356 . S
N2253 H2256 0.984 . S
N2253 H2257 0.985 . S
H2254 N2249 0.984 . S
H2255 N2249 0.985 . S
H2256 N2253 0.984 . S
H2257 N2253 0.985 . S
H2258 N2252 0.984 . S
H2259 N2252 0.984 . S
H2260 N2248 0.984 . S
H2261 N2248 0.985 . S
C2262 C2263 1.363 . S
C2262 C2268 1.379 . S
C2262 N2270 1.356 . S
C2263 C2262 1.363 . S
C2263 C2269 1.363 . S
C2264 C2265 1.363 . S
C2264 C2269 1.379 . S
C2264 N2271 1.356 . S
C2265 C2264 1.363 . S
C2265 C2268 1.363 . S
N2266 C2268 1.356 . S
N2266 H2278 0.984 . S
N2266 H2279 0.985 . S
N2267 C2269 1.356 . S
N2267 H2272 0.984 . S
N2267 H2273 0.985 . S
C2268 C2262 1.379 . S
C2268 C2265 1.363 . S
C2268 N2266 1.356 . S
C2269 C2263 1.363 . S
C2269 C2264 1.379 . S
C2269 N2267 1.356 . S
N2270 C2262 1.356 . S
N2270 H2276 0.984 . S
N2270 H2277 0.984 . S
N2271 C2264 1.356 . S
N2271 H2274 0.984 . S
N2271 H2275 0.985 . S
H2272 N2267 0.984 . S
H2273 N2267 0.985 . S
H2274 N2271 0.984 . S
H2275 N2271 0.985 . S
H2276 N2270 0.984 . S
H2277 N2270 0.984 . S
H2278 N2266 0.984 . S
H2279 N2266 0.985 . S
C2280 C2281 1.363 . S
C2280 C2286 1.379 . S
C2280 N2288 1.356 . S
C2281 C2280 1.363 . S
C2281 C2287 1.363 . S
C2282 C2283 1.363 . S
C2282 C2287 1.379 . S
C2282 N2289 1.356 . S
C2283 C2282 1.363 . S
C2283 C2286 1.363 . S
N2284 C2286 1.356 . S
N2284 H2296 0.984 . S
N2284 H2297 0.985 . S
N2285 C2287 1.356 . S
N2285 H2290 0.984 . S
N2285 H2291 0.985 . S
C2286 C2280 1.379 . S
C2286 C2283 1.363 . S
C2286 N2284 1.356 . S
C2287 C2281 1.363 . S
C2287 C2282 1.379 . S
C2287 N2285 1.356 . S
N2288 C2280 1.356 . S
N2288 H2294 0.984 . S
N2288 H2295 0.984 . S
N2289 C2282 1.356 . S
N2289 H2292 0.984 . S
N2289 H2293 0.985 . S
H2290 N2285 0.984 . S
H2291 N2285 0.985 . S
H2292 N2289 0.984 . S
H2293 N2289 0.985 . S
H2294 N2288 0.984 . S
H2295 N2288 0.984 . S
H2296 N2284 0.984 . S
H2297 N2284 0.985 . S
C2298 C2299 1.363 . S
C2298 C2304 1.379 . S
C2298 N2306 1.356 . S
C2299 C2298 1.363 . S
C2299 C2305 1.363 . S
C2300 C2301 1.363 . S
C2300 C2305 1.379 . S
C2300 N2307 1.356 . S
C2301 C2300 1.363 . S
C2301 C2304 1.363 . S
N2302 C2304 1.356 . S
N2302 H2314 0.984 . S
N2302 H2315 0.985 . S
N2303 C2305 1.356 . S
N2303 H2308 0.984 . S
N2303 H2309 0.985 . S
C2304 C2298 1.379 . S
C2304 C2301 1.363 . S
C2304 N2302 1.356 . S
C2305 C2299 1.363 . S
C2305 C2300 1.379 . S
C2305 N2303 1.356 . S
N2306 C2298 1.356 . S
N2306 H2312 0.984 . S
N2306 H2313 0.984 . S
N2307 C2300 1.356 . S
N2307 H2310 0.984 . S
N2307 H2311 0.985 . S
H2308 N2303 0.984 . S
H2309 N2303 0.985 . S
H2310 N2307 0.984 . S
H2311 N2307 0.985 . S
H2312 N2306 0.984 . S
H2313 N2306 0.984 . S
H2314 N2302 0.984 . S
H2315 N2302 0.985 . S
C2316 C2317 1.363 . S
C2316 C2322 1.379 . S
C2316 N2324 1.356 . S
C2317 C2316 1.363 . S
C2317 C2323 1.363 . S
C2318 C2319 1.363 . S
C2318 C2323 1.379 . S
C2318 N2325 1.356 . S
C2319 C2318 1.363 . S
C2319 C2322 1.363 . S
N2320 C2322 1.356 . S
N2320 H2332 0.984 . S
N2320 H2333 0.985 . S
N2321 C2323 1.356 . S
N2321 H2326 0.984 . S
N2321 H2327 0.985 . S
C2322 C2316 1.379 . S
C2322 C2319 1.363 . S
C2322 N2320 1.356 . S
C2323 C2317 1.363 . S
C2323 C2318 1.379 . S
C2323 N2321 1.356 . S
N2324 C2316 1.356 . S
N2324 H2330 0.984 . S
N2324 H2331 0.984 . S
N2325 C2318 1.356 . S
N2325 H2328 0.984 . S
N2325 H2329 0.985 . S
H2326 N2321 0.984 . S
H2327 N2321 0.985 . S
H2328 N2325 0.984 . S
H2329 N2325 0.985 . S
H2330 N2324 0.984 . S
H2331 N2324 0.984 . S
H2332 N2320 0.984 . S
H2333 N2320 0.985 . S
C2334 C2335 1.363 . S
C2334 C2340 1.379 . S
C2334 N2342 1.356 . S
C2335 C2334 1.363 . S
C2335 C2341 1.363 . S
C2336 C2337 1.363 . S
C2336 C2341 1.379 . S
C2336 N2343 1.356 . S
C2337 C2336 1.363 . S
C2337 C2340 1.363 . S
N2338 C2340 1.356 . S
N2338 H2350 0.984 . S
N2338 H2351 0.985 . S
N2339 C2341 1.356 . S
N2339 H2344 0.984 . S
N2339 H2345 0.985 . S
C2340 C2334 1.379 . S
C2340 C2337 1.363 . S
C2340 N2338 1.356 . S
C2341 C2335 1.363 . S
C2341 C2336 1.379 . S
C2341 N2339 1.356 . S
N2342 C2334 1.356 . S
N2342 H2348 0.984 . S
N2342 H2349 0.984 . S
N2343 C2336 1.356 . S
N2343 H2346 0.984 . S
N2343 H2347 0.985 . S
H2344 N2339 0.984 . S
H2345 N2339 0.985 . S
H2346 N2343 0.984 . S
H2347 N2343 0.985 . S
H2348 N2342 0.984 . S
H2349 N2342 0.984 . S
H2350 N2338 0.984 . S
H2351 N2338 0.985 . S
C2352 C2353 1.363 . S
C2352 C2358 1.379 . S
C2352 N2360 1.356 . S
C2353 C2352 1.363 . S
C2353 C2359 1.363 . S
C2354 C2355 1.363 . S
C2354 C2359 1.379 . S
C2354 N2361 1.356 . S
C2355 C2354 1.363 . S
C2355 C2358 1.363 . S
N2356 C2358 1.356 . S
N2356 H2368 0.984 . S
N2356 H2369 0.985 . S
N2357 C2359 1.356 . S
N2357 H2362 0.984 . S
N2357 H2363 0.985 . S
C2358 C2352 1.379 . S
C2358 C2355 1.363 . S
C2358 N2356 1.356 . S
C2359 C2353 1.363 . S
C2359 C2354 1.379 . S
C2359 N2357 1.356 . S
N2360 C2352 1.356 . S
N2360 H2366 0.984 . S
N2360 H2367 0.984 . S
N2361 C2354 1.356 . S
N2361 H2364 0.984 . S
N2361 H2365 0.985 . S
H2362 N2357 0.984 . S
H2363 N2357 0.985 . S
H2364 N2361 0.984 . S
H2365 N2361 0.985 . S
H2366 N2360 0.984 . S
H2367 N2360 0.984 . S
H2368 N2356 0.984 . S
H2369 N2356 0.985 . S
C2370 C2371 1.363 . S
C2370 C2376 1.379 . S
C2370 N2378 1.356 . S
C2371 C2370 1.363 . S
C2371 C2377 1.363 . S
C2372 C2373 1.363 . S
C2372 C2377 1.379 . S
C2372 N2379 1.356 . S
C2373 C2372 1.363 . S
C2373 C2376 1.363 . S
N2374 C2376 1.356 . S
N2374 H2386 0.984 . S
N2374 H2387 0.985 . S
N2375 C2377 1.356 . S
N2375 H2380 0.984 . S
N2375 H2381 0.985 . S
C2376 C2370 1.379 . S
C2376 C2373 1.363 . S
C2376 N2374 1.356 . S
C2377 C2371 1.363 . S
C2377 C2372 1.379 . S
C2377 N2375 1.356 . S
N2378 C2370 1.356 . S
N2378 H2384 0.984 . S
N2378 H2385 0.984 . S
N2379 C2372 1.356 . S
N2379 H2382 0.984 . S
N2379 H2383 0.985 . S
H2380 N2375 0.984 . S
H2381 N2375 0.985 . S
H2382 N2379 0.984 . S
H2383 N2379 0.985 . S
H2384 N2378 0.984 . S
H2385 N2378 0.984 . S
H2386 N2374 0.984 . S
H2387 N2374 0.985 . S
C2388 C2389 1.363 . S
C2388 C2394 1.379 . S
C2388 N2396 1.356 . S
C2389 C2388 1.363 . S
C2389 C2395 1.363 . S
C2390 C2391 1.363 . S
C2390 C2395 1.379 . S
C2390 N2397 1.356 . S
C2391 C2390 1.363 . S
C2391 C2394 1.363 . S
N2392 C2394 1.356 . S
N2392 H2404 0.984 . S
N2392 H2405 0.985 . S
N2393 C2395 1.356 . S
N2393 H2398 0.984 . S
N2393 H2399 0.985 . S
C2394 C2388 1.379 . S
C2394 C2391 1.363 . S
C2394 N2392 1.356 . S
C2395 C2389 1.363 . S
C2395 C2390 1.379 . S
C2395 N2393 1.356 . S
N2396 C2388 1.356 . S
N2396 H2402 0.984 . S
N2396 H2403 0.984 . S
N2397 C2390 1.356 . S
N2397 H2400 0.984 . S
N2397 H2401 0.985 . S
H2398 N2393 0.984 . S
H2399 N2393 0.985 . S
H2400 N2397 0.984 . S
H2401 N2397 0.985 . S
H2402 N2396 0.984 . S
H2403 N2396 0.984 . S
H2404 N2392 0.984 . S
H2405 N2392 0.985 . S
C2406 C2407 1.363 . S
C2406 C2412 1.379 . S
C2406 N2414 1.356 . S
C2407 C2406 1.363 . S
C2407 C2413 1.363 . S
C2408 C2409 1.363 . S
C2408 C2413 1.379 . S
C2408 N2415 1.356 . S
C2409 C2408 1.363 . S
C2409 C2412 1.363 . S
N2410 C2412 1.356 . S
N2410 H2422 0.984 . S
N2410 H2423 0.985 . S
N2411 C2413 1.356 . S
N2411 H2416 0.984 . S
N2411 H2417 0.985 . S
C2412 C2406 1.379 . S
C2412 C2409 1.363 . S
C2412 N2410 1.356 . S
C2413 C2407 1.363 . S
C2413 C2408 1.379 . S
C2413 N2411 1.356 . S
N2414 C2406 1.356 . S
N2414 H2420 0.984 . S
N2414 H2421 0.984 . S
N2415 C2408 1.356 . S
N2415 H2418 0.984 . S
N2415 H2419 0.985 . S
H2416 N2411 0.984 . S
H2417 N2411 0.985 . S
H2418 N2415 0.984 . S
H2419 N2415 0.985 . S
H2420 N2414 0.984 . S
H2421 N2414 0.984 . S
H2422 N2410 0.984 . S
H2423 N2410 0.985 . S
C2424 C2425 1.363 . S
C2424 C2430 1.379 . S
C2424 N2432 1.356 . S
C2425 C2424 1.363 . S
C2425 C2431 1.363 . S
C2426 C2427 1.363 . S
C2426 C2431 1.379 . S
C2426 N2433 1.356 . S
C2427 C2426 1.363 . S
C2427 C2430 1.363 . S
N2428 C2430 1.356 . S
N2428 H2440 0.984 . S
N2428 H2441 0.985 . S
N2429 C2431 1.356 . S
N2429 H2434 0.984 . S
N2429 H2435 0.985 . S
C2430 C2424 1.379 . S
C2430 C2427 1.363 . S
C2430 N2428 1.356 . S
C2431 C2425 1.363 . S
C2431 C2426 1.379 . S
C2431 N2429 1.356 . S
N2432 C2424 1.356 . S
N2432 H2438 0.984 . S
N2432 H2439 0.984 . S
N2433 C2426 1.356 . S
N2433 H2436 0.984 . S
N2433 H2437 0.985 . S
H2434 N2429 0.984 . S
H2435 N2429 0.985 . S
H2436 N2433 0.984 . S
H2437 N2433 0.985 . S
H2438 N2432 0.984 . S
H2439 N2432 0.984 . S
H2440 N2428 0.984 . S
H2441 N2428 0.985 . S
C2442 C2443 1.363 . S
C2442 C2448 1.379 . S
C2442 N2450 1.356 . S
C2443 C2442 1.363 . S
C2443 C2449 1.363 . S
C2444 C2445 1.363 . S
C2444 C2449 1.379 . S
C2444 N2451 1.356 . S
C2445 C2444 1.363 . S
C2445 C2448 1.363 . S
N2446 C2448 1.356 . S
N2446 H2458 0.984 . S
N2446 H2459 0.985 . S
N2447 C2449 1.356 . S
N2447 H2452 0.984 . S
N2447 H2453 0.985 . S
C2448 C2442 1.379 . S
C2448 C2445 1.363 . S
C2448 N2446 1.356 . S
C2449 C2443 1.363 . S
C2449 C2444 1.379 . S
C2449 N2447 1.356 . S
N2450 C2442 1.356 . S
N2450 H2456 0.984 . S
N2450 H2457 0.984 . S
N2451 C2444 1.356 . S
N2451 H2454 0.984 . S
N2451 H2455 0.985 . S
H2452 N2447 0.984 . S
H2453 N2447 0.985 . S
H2454 N2451 0.984 . S
H2455 N2451 0.985 . S
H2456 N2450 0.984 . S
H2457 N2450 0.984 . S
H2458 N2446 0.984 . S
H2459 N2446 0.985 . S
C2460 C2461 1.363 . S
C2460 C2466 1.379 . S
C2460 N2468 1.356 . S
C2461 C2460 1.363 . S
C2461 C2467 1.363 . S
C2462 C2463 1.363 . S
C2462 C2467 1.379 . S
C2462 N2469 1.356 . S
C2463 C2462 1.363 . S
C2463 C2466 1.363 . S
N2464 C2466 1.356 . S
N2464 H2476 0.984 . S
N2464 H2477 0.985 . S
N2465 C2467 1.356 . S
N2465 H2470 0.984 . S
N2465 H2471 0.985 . S
C2466 C2460 1.379 . S
C2466 C2463 1.363 . S
C2466 N2464 1.356 . S
C2467 C2461 1.363 . S
C2467 C2462 1.379 . S
C2467 N2465 1.356 . S
N2468 C2460 1.356 . S
N2468 H2474 0.984 . S
N2468 H2475 0.984 . S
N2469 C2462 1.356 . S
N2469 H2472 0.984 . S
N2469 H2473 0.985 . S
H2470 N2465 0.984 . S
H2471 N2465 0.985 . S
H2472 N2469 0.984 . S
H2473 N2469 0.985 . S
H2474 N2468 0.984 . S
H2475 N2468 0.984 . S
H2476 N2464 0.984 . S
H2477 N2464 0.985 . S
C2478 C2479 1.363 . S
C2478 C2484 1.379 . S
C2478 N2486 1.356 . S
C2479 C2478 1.363 . S
C2479 C2485 1.363 . S
C2480 C2481 1.363 . S
C2480 C2485 1.379 . S
C2480 N2487 1.356 . S
C2481 C2480 1.363 . S
C2481 C2484 1.363 . S
N2482 C2484 1.356 . S
N2482 H2494 0.984 . S
N2482 H2495 0.985 . S
N2483 C2485 1.356 . S
N2483 H2488 0.984 . S
N2483 H2489 0.985 . S
C2484 C2478 1.379 . S
C2484 C2481 1.363 . S
C2484 N2482 1.356 . S
C2485 C2479 1.363 . S
C2485 C2480 1.379 . S
C2485 N2483 1.356 . S
N2486 C2478 1.356 . S
N2486 H2492 0.984 . S
N2486 H2493 0.984 . S
N2487 C2480 1.356 . S
N2487 H2490 0.984 . S
N2487 H2491 0.985 . S
H2488 N2483 0.984 . S
H2489 N2483 0.985 . S
H2490 N2487 0.984 . S
H2491 N2487 0.985 . S
H2492 N2486 0.984 . S
H2493 N2486 0.984 . S
H2494 N2482 0.984 . S
H2495 N2482 0.985 . S
C2496 C2497 1.363 . S
C2496 C2502 1.379 . S
C2496 N2504 1.356 . S
C2497 C2496 1.363 . S
C2497 C2503 1.363 . S
C2498 C2499 1.363 . S
C2498 C2503 1.379 . S
C2498 N2505 1.356 . S
C2499 C2498 1.363 . S
C2499 C2502 1.363 . S
N2500 C2502 1.356 . S
N2500 H2512 0.984 . S
N2500 H2513 0.985 . S
N2501 C2503 1.356 . S
N2501 H2506 0.984 . S
N2501 H2507 0.985 . S
C2502 C2496 1.379 . S
C2502 C2499 1.363 . S
C2502 N2500 1.356 . S
C2503 C2497 1.363 . S
C2503 C2498 1.379 . S
C2503 N2501 1.356 . S
N2504 C2496 1.356 . S
N2504 H2510 0.984 . S
N2504 H2511 0.984 . S
N2505 C2498 1.356 . S
N2505 H2508 0.984 . S
N2505 H2509 0.985 . S
H2506 N2501 0.984 . S
H2507 N2501 0.985 . S
H2508 N2505 0.984 . S
H2509 N2505 0.985 . S
H2510 N2504 0.984 . S
H2511 N2504 0.984 . S
H2512 N2500 0.984 . S
H2513 N2500 0.985 . S
C2514 C2515 1.363 . S
C2514 C2520 1.379 . S
C2514 N2522 1.356 . S
C2515 C2514 1.363 . S
C2515 C2521 1.363 . S
C2516 C2517 1.363 . S
C2516 C2521 1.379 . S
C2516 N2523 1.356 . S
C2517 C2516 1.363 . S
C2517 C2520 1.363 . S
N2518 C2520 1.356 . S
N2518 H2530 0.984 . S
N2518 H2531 0.985 . S
N2519 C2521 1.356 . S
N2519 H2524 0.984 . S
N2519 H2525 0.985 . S
C2520 C2514 1.379 . S
C2520 C2517 1.363 . S
C2520 N2518 1.356 . S
C2521 C2515 1.363 . S
C2521 C2516 1.379 . S
C2521 N2519 1.356 . S
N2522 C2514 1.356 . S
N2522 H2528 0.984 . S
N2522 H2529 0.984 . S
N2523 C2516 1.356 . S
N2523 H2526 0.984 . S
N2523 H2527 0.985 . S
H2524 N2519 0.984 . S
H2525 N2519 0.985 . S
H2526 N2523 0.984 . S
H2527 N2523 0.985 . S
H2528 N2522 0.984 . S
H2529 N2522 0.984 . S
H2530 N2518 0.984 . S
H2531 N2518 0.985 . S
C2532 C2533 1.363 . S
C2532 C2538 1.379 . S
C2532 N2540 1.356 . S
C2533 C2532 1.363 . S
C2533 C2539 1.363 . S
C2534 C2535 1.363 . S
C2534 C2539 1.379 . S
C2534 N2541 1.356 . S
C2535 C2534 1.363 . S
C2535 C2538 1.363 . S
N2536 C2538 1.356 . S
N2536 H2548 0.984 . S
N2536 H2549 0.985 . S
N2537 C2539 1.356 . S
N2537 H2542 0.984 . S
N2537 H2543 0.985 . S
C2538 C2532 1.379 . S
C2538 C2535 1.363 . S
C2538 N2536 1.356 . S
C2539 C2533 1.363 . S
C2539 C2534 1.379 . S
C2539 N2537 1.356 . S
N2540 C2532 1.356 . S
N2540 H2546 0.984 . S
N2540 H2547 0.984 . S
N2541 C2534 1.356 . S
N2541 H2544 0.984 . S
N2541 H2545 0.985 . S
H2542 N2537 0.984 . S
H2543 N2537 0.985 . S
H2544 N2541 0.984 . S
H2545 N2541 0.985 . S
H2546 N2540 0.984 . S
H2547 N2540 0.984 . S
H2548 N2536 0.984 . S
H2549 N2536 0.985 . S
C2550 C2551 1.363 . S
C2550 C2556 1.379 . S
C2550 N2558 1.356 . S
C2551 C2550 1.363 . S
C2551 C2557 1.363 . S
C2552 C2553 1.363 . S
C2552 C2557 1.379 . S
C2552 N2559 1.356 . S
C2553 C2552 1.363 . S
C2553 C2556 1.363 . S
N2554 C2556 1.356 . S
N2554 H2566 0.984 . S
N2554 H2567 0.985 . S
N2555 C2557 1.356 . S
N2555 H2560 0.984 . S
N2555 H2561 0.985 . S
C2556 C2550 1.379 . S
C2556 C2553 1.363 . S
C2556 N2554 1.356 . S
C2557 C2551 1.363 . S
C2557 C2552 1.379 . S
C2557 N2555 1.356 . S
N2558 C2550 1.356 . S
N2558 H2564 0.984 . S
N2558 H2565 0.984 1_565 S
N2559 C2552 1.356 . S
N2559 H2562 0.984 . S
N2559 H2563 0.985 . S
H2560 N2555 0.984 . S
H2561 N2555 0.985 . S
H2562 N2559 0.984 . S
H2563 N2559 0.985 . S
H2564 N2558 0.984 . S
H2565 N2558 0.984 1_545 S
H2566 N2554 0.984 . S
H2567 N2554 0.985 . S
C2568 C2569 1.363 . S
C2568 C2574 1.379 . S
C2568 N2576 1.356 . S
C2569 C2568 1.363 . S
C2569 C2575 1.363 . S
C2570 C2571 1.363 . S
C2570 C2575 1.379 . S
C2570 N2577 1.356 . S
C2571 C2570 1.363 . S
C2571 C2574 1.363 . S
N2572 C2574 1.356 . S
N2572 H2584 0.984 . S
N2572 H2585 0.985 . S
N2573 C2575 1.356 . S
N2573 H2578 0.984 . S
N2573 H2579 0.985 . S
C2574 C2568 1.379 . S
C2574 C2571 1.363 . S
C2574 N2572 1.356 . S
C2575 C2569 1.363 . S
C2575 C2570 1.379 . S
C2575 N2573 1.356 . S
N2576 C2568 1.356 . S
N2576 H2582 0.984 . S
N2576 H2583 0.984 . S
N2577 C2570 1.356 . S
N2577 H2580 0.984 . S
N2577 H2581 0.985 . S
H2578 N2573 0.984 . S
H2579 N2573 0.985 . S
H2580 N2577 0.984 . S
H2581 N2577 0.985 . S
H2582 N2576 0.984 . S
H2583 N2576 0.984 . S
H2584 N2572 0.984 . S
H2585 N2572 0.985 . S
C2586 C2587 1.363 . S
C2586 C2592 1.379 . S
C2586 N2594 1.356 . S
C2587 C2586 1.363 . S
C2587 C2593 1.363 . S
C2588 C2589 1.363 . S
C2588 C2593 1.379 . S
C2588 N2595 1.356 . S
C2589 C2588 1.363 . S
C2589 C2592 1.363 . S
N2590 C2592 1.356 . S
N2590 H2602 0.984 . S
N2590 H2603 0.985 . S
N2591 C2593 1.356 . S
N2591 H2596 0.984 . S
N2591 H2597 0.985 . S
C2592 C2586 1.379 . S
C2592 C2589 1.363 . S
C2592 N2590 1.356 . S
C2593 C2587 1.363 . S
C2593 C2588 1.379 . S
C2593 N2591 1.356 . S
N2594 C2586 1.356 . S
N2594 H2600 0.984 . S
N2594 H2601 0.984 . S
N2595 C2588 1.356 . S
N2595 H2598 0.984 . S
N2595 H2599 0.985 . S
H2596 N2591 0.984 . S
H2597 N2591 0.985 . S
H2598 N2595 0.984 . S
H2599 N2595 0.985 . S
H2600 N2594 0.984 . S
H2601 N2594 0.984 . S
H2602 N2590 0.984 . S
H2603 N2590 0.985 . S
C2604 C2605 1.363 . S
C2604 C2610 1.379 . S
C2604 N2612 1.356 . S
C2605 C2604 1.363 . S
C2605 C2611 1.363 . S
C2606 C2607 1.363 . S
C2606 C2611 1.379 . S
C2606 N2613 1.356 . S
C2607 C2606 1.363 . S
C2607 C2610 1.363 . S
N2608 C2610 1.356 . S
N2608 H2620 0.984 . S
N2608 H2621 0.985 . S
N2609 C2611 1.356 . S
N2609 H2614 0.984 . S
N2609 H2615 0.985 . S
C2610 C2604 1.379 . S
C2610 C2607 1.363 . S
C2610 N2608 1.356 . S
C2611 C2605 1.363 . S
C2611 C2606 1.379 . S
C2611 N2609 1.356 . S
N2612 C2604 1.356 . S
N2612 H2618 0.984 . S
N2612 H2619 0.984 . S
N2613 C2606 1.356 . S
N2613 H2616 0.984 . S
N2613 H2617 0.985 . S
H2614 N2609 0.984 . S
H2615 N2609 0.985 . S
H2616 N2613 0.984 . S
H2617 N2613 0.985 . S
H2618 N2612 0.984 . S
H2619 N2612 0.984 . S
H2620 N2608 0.984 . S
H2621 N2608 0.985 . S
C2622 C2623 1.363 . S
C2622 C2628 1.379 . S
C2622 N2630 1.356 . S
C2623 C2622 1.363 . S
C2623 C2629 1.363 . S
C2624 C2625 1.363 . S
C2624 C2629 1.379 . S
C2624 N2631 1.356 . S
C2625 C2624 1.363 . S
C2625 C2628 1.363 . S
N2626 C2628 1.356 . S
N2626 H2638 0.984 . S
N2626 H2639 0.985 . S
N2627 C2629 1.356 . S
N2627 H2632 0.984 . S
N2627 H2633 0.985 . S
C2628 C2622 1.379 . S
C2628 C2625 1.363 . S
C2628 N2626 1.356 . S
C2629 C2623 1.363 . S
C2629 C2624 1.379 . S
C2629 N2627 1.356 . S
N2630 C2622 1.356 . S
N2630 H2636 0.984 . S
N2630 H2637 0.984 . S
N2631 C2624 1.356 . S
N2631 H2634 0.984 . S
N2631 H2635 0.985 . S
H2632 N2627 0.984 . S
H2633 N2627 0.985 . S
H2634 N2631 0.984 . S
H2635 N2631 0.985 . S
H2636 N2630 0.984 . S
H2637 N2630 0.984 . S
H2638 N2626 0.984 . S
H2639 N2626 0.985 . S
C2640 C2641 1.363 . S
C2640 C2646 1.379 . S
C2640 N2648 1.356 . S
C2641 C2640 1.363 . S
C2641 C2647 1.363 . S
C2642 C2643 1.363 . S
C2642 C2647 1.379 . S
C2642 N2649 1.356 . S
C2643 C2642 1.363 . S
C2643 C2646 1.363 . S
N2644 C2646 1.356 . S
N2644 H2656 0.984 . S
N2644 H2657 0.985 . S
N2645 C2647 1.356 . S
N2645 H2650 0.984 . S
N2645 H2651 0.985 . S
C2646 C2640 1.379 . S
C2646 C2643 1.363 . S
C2646 N2644 1.356 . S
C2647 C2641 1.363 . S
C2647 C2642 1.379 . S
C2647 N2645 1.356 . S
N2648 C2640 1.356 . S
N2648 H2654 0.984 . S
N2648 H2655 0.984 . S
N2649 C2642 1.356 . S
N2649 H2652 0.984 . S
N2649 H2653 0.985 . S
H2650 N2645 0.984 . S
H2651 N2645 0.985 . S
H2652 N2649 0.984 . S
H2653 N2649 0.985 . S
H2654 N2648 0.984 . S
H2655 N2648 0.984 . S
H2656 N2644 0.984 . S
H2657 N2644 0.985 . S
C2658 C2659 1.363 . S
C2658 C2664 1.379 . S
C2658 N2666 1.356 . S
C2659 C2658 1.363 . S
C2659 C2665 1.363 . S
C2660 C2661 1.363 . S
C2660 C2665 1.379 . S
C2660 N2667 1.356 . S
C2661 C2660 1.363 . S
C2661 C2664 1.363 . S
N2662 C2664 1.356 . S
N2662 H2674 0.984 . S
N2662 H2675 0.985 . S
N2663 C2665 1.356 . S
N2663 H2668 0.984 . S
N2663 H2669 0.985 . S
C2664 C2658 1.379 . S
C2664 C2661 1.363 . S
C2664 N2662 1.356 . S
C2665 C2659 1.363 . S
C2665 C2660 1.379 . S
C2665 N2663 1.356 . S
N2666 C2658 1.356 . S
N2666 H2672 0.984 . S
N2666 H2673 0.984 . S
N2667 C2660 1.356 . S
N2667 H2670 1.007 . S
N2667 H2671 0.985 . S
H2668 N2663 0.984 . S
H2669 N2663 0.985 . S
H2670 N2667 1.007 . S
H2671 N2667 0.985 . S
H2672 N2666 0.984 . S
H2673 N2666 0.984 . S
H2674 N2662 0.984 . S
H2675 N2662 0.985 . S
C2676 C2677 1.363 . S
C2676 C2682 1.379 . S
C2676 N2684 1.356 . S
C2677 C2676 1.363 . S
C2677 C2683 1.363 . S
C2678 C2679 1.363 . S
C2678 C2683 1.379 . S
C2678 N2685 1.356 . S
C2679 C2678 1.363 . S
C2679 C2682 1.363 . S
N2680 C2682 1.356 . S
N2680 H2692 0.984 . S
N2680 H2693 0.985 . S
N2681 C2683 1.356 . S
N2681 H2686 0.984 . S
N2681 H2687 0.985 . S
C2682 C2676 1.379 . S
C2682 C2679 1.363 . S
C2682 N2680 1.356 . S
C2683 C2677 1.363 . S
C2683 C2678 1.379 . S
C2683 N2681 1.356 . S
N2684 C2676 1.356 . S
N2684 H2690 0.984 . S
N2684 H2691 0.984 . S
N2685 C2678 1.356 . S
N2685 H2688 0.984 1_565 S
N2685 H2689 1.004 . S
H2686 N2681 0.984 . S
H2687 N2681 0.985 . S
H2688 N2685 0.984 1_545 S
H2689 N2685 1.004 . S
H2690 N2684 0.984 . S
H2691 N2684 0.984 . S
H2692 N2680 0.984 . S
H2693 N2680 0.985 . S
C2694 C2695 1.363 . S
C2694 C2700 1.379 . S
C2694 N2702 1.356 . S
C2695 C2694 1.363 . S
C2695 C2701 1.363 . S
C2696 C2697 1.363 . S
C2696 C2701 1.379 . S
C2696 N2703 1.356 . S
C2697 C2696 1.363 . S
C2697 C2700 1.363 . S
N2698 C2700 1.356 . S
N2698 H2710 0.984 . S
N2698 H2711 0.985 . S
N2699 C2701 1.356 . S
N2699 H2704 0.984 . S
N2699 H2705 0.985 . S
C2700 C2694 1.379 . S
C2700 C2697 1.363 . S
C2700 N2698 1.356 . S
C2701 C2695 1.363 . S
C2701 C2696 1.379 . S
C2701 N2699 1.356 . S
N2702 C2694 1.356 . S
N2702 H2708 0.984 . S
N2702 H2709 0.984 . S
N2703 C2696 1.356 . S
N2703 H2706 0.984 . S
N2703 H2707 0.985 . S
H2704 N2699 0.984 . S
H2705 N2699 0.985 . S
H2706 N2703 0.984 . S
H2707 N2703 0.985 . S
H2708 N2702 0.984 . S
H2709 N2702 0.984 . S
H2710 N2698 0.984 . S
H2711 N2698 0.985 . S
C2712 C2713 1.363 . S
C2712 C2718 1.379 . S
C2712 N2720 1.356 . S
C2713 C2712 1.363 . S
C2713 C2719 1.363 . S
C2714 C2715 1.363 . S
C2714 C2719 1.379 . S
C2714 N2721 1.356 . S
C2715 C2714 1.363 . S
C2715 C2718 1.363 . S
N2716 C2718 1.356 . S
N2716 H2728 0.984 . S
N2716 H2729 0.985 . S
N2717 C2719 1.356 . S
N2717 H2722 0.984 . S
N2717 H2723 0.985 . S
C2718 C2712 1.379 . S
C2718 C2715 1.363 . S
C2718 N2716 1.356 . S
C2719 C2713 1.363 . S
C2719 C2714 1.379 . S
C2719 N2717 1.356 . S
N2720 C2712 1.356 . S
N2720 H2726 0.984 . S
N2720 H2727 0.984 . S
N2721 C2714 1.356 . S
N2721 H2724 0.984 . S
N2721 H2725 0.985 . S
H2722 N2717 0.984 . S
H2723 N2717 0.985 . S
H2724 N2721 0.984 . S
H2725 N2721 0.985 . S
H2726 N2720 0.984 . S
H2727 N2720 0.984 . S
H2728 N2716 0.984 . S
H2729 N2716 0.985 . S
C2730 C2731 1.363 . S
C2730 C2736 1.379 . S
C2730 N2738 1.356 . S
C2731 C2730 1.363 . S
C2731 C2737 1.363 . S
C2732 C2733 1.363 . S
C2732 C2737 1.379 . S
C2732 N2739 1.356 . S
C2733 C2732 1.363 . S
C2733 C2736 1.363 . S
N2734 C2736 1.356 . S
N2734 H2746 0.984 . S
N2734 H2747 0.985 . S
N2735 C2737 1.356 . S
N2735 H2740 0.984 . S
N2735 H2741 0.985 . S
C2736 C2730 1.379 . S
C2736 C2733 1.363 . S
C2736 N2734 1.356 . S
C2737 C2731 1.363 . S
C2737 C2732 1.379 . S
C2737 N2735 1.356 . S
N2738 C2730 1.356 . S
N2738 H2744 0.984 . S
N2738 H2745 0.984 . S
N2739 C2732 1.356 . S
N2739 H2742 0.984 . S
N2739 H2743 0.985 . S
H2740 N2735 0.984 . S
H2741 N2735 0.985 . S
H2742 N2739 0.984 . S
H2743 N2739 0.985 . S
H2744 N2738 0.984 . S
H2745 N2738 0.984 . S
H2746 N2734 0.984 . S
H2747 N2734 0.985 . S
C2748 C2749 1.363 . S
C2748 C2754 1.379 . S
C2748 N2756 1.356 . S
C2749 C2748 1.363 . S
C2749 C2755 1.363 . S
C2750 C2751 1.363 . S
C2750 C2755 1.379 . S
C2750 N2757 1.356 . S
C2751 C2750 1.363 . S
C2751 C2754 1.363 . S
N2752 C2754 1.356 . S
N2752 H2764 0.984 . S
N2752 H2765 0.985 . S
N2753 C2755 1.356 . S
N2753 H2758 0.984 . S
N2753 H2759 0.985 . S
C2754 C2748 1.379 . S
C2754 C2751 1.363 . S
C2754 N2752 1.356 . S
C2755 C2749 1.363 . S
C2755 C2750 1.379 . S
C2755 N2753 1.356 . S
N2756 C2748 1.356 . S
N2756 H2762 0.984 . S
N2756 H2763 0.984 . S
N2757 C2750 1.356 . S
N2757 H2760 0.984 . S
N2757 H2761 0.985 . S
H2758 N2753 0.984 . S
H2759 N2753 0.985 . S
H2760 N2757 0.984 . S
H2761 N2757 0.985 . S
H2762 N2756 0.984 . S
H2763 N2756 0.984 . S
H2764 N2752 0.984 . S
H2765 N2752 0.985 . S
C2766 C2767 1.363 . S
C2766 C2772 1.379 . S
C2766 N2774 1.356 . S
C2767 C2766 1.363 . S
C2767 C2773 1.363 . S
C2768 C2769 1.363 . S
C2768 C2773 1.379 . S
C2768 N2775 1.356 . S
C2769 C2768 1.363 . S
C2769 C2772 1.363 . S
N2770 C2772 1.356 . S
N2770 H2782 0.984 . S
N2770 H2783 0.985 . S
N2771 C2773 1.356 . S
N2771 H2776 0.984 . S
N2771 H2777 0.985 . S
C2772 C2766 1.379 . S
C2772 C2769 1.363 . S
C2772 N2770 1.356 . S
C2773 C2767 1.363 . S
C2773 C2768 1.379 . S
C2773 N2771 1.356 . S
N2774 C2766 1.356 . S
N2774 H2780 0.984 . S
N2774 H2781 0.984 . S
N2775 C2768 1.356 . S
N2775 H2778 0.984 . S
N2775 H2779 0.985 . S
H2776 N2771 0.984 . S
H2777 N2771 0.985 . S
H2778 N2775 0.984 . S
H2779 N2775 0.985 . S
H2780 N2774 0.984 . S
H2781 N2774 0.984 . S
H2782 N2770 0.984 . S
H2783 N2770 0.985 . S
C2784 C2785 1.363 . S
C2784 C2790 1.379 . S
C2784 N2792 1.356 . S
C2785 C2784 1.363 . S
C2785 C2791 1.363 . S
C2786 C2787 1.363 . S
C2786 C2791 1.379 . S
C2786 N2793 1.356 . S
C2787 C2786 1.363 . S
C2787 C2790 1.363 . S
N2788 C2790 1.356 . S
N2788 H2800 0.984 . S
N2788 H2801 0.985 . S
N2789 C2791 1.356 . S
N2789 H2794 0.984 . S
N2789 H2795 0.985 . S
C2790 C2784 1.379 . S
C2790 C2787 1.363 . S
C2790 N2788 1.356 . S
C2791 C2785 1.363 . S
C2791 C2786 1.379 . S
C2791 N2789 1.356 . S
N2792 C2784 1.356 . S
N2792 H2798 0.984 . S
N2792 H2799 0.984 . S
N2793 C2786 1.356 . S
N2793 H2796 0.984 . S
N2793 H2797 0.985 . S
H2794 N2789 0.984 . S
H2795 N2789 0.985 . S
H2796 N2793 0.984 . S
H2797 N2793 0.985 . S
H2798 N2792 0.984 . S
H2799 N2792 0.984 . S
H2800 N2788 0.984 . S
H2801 N2788 0.985 . S
C2802 C2803 1.363 . S
C2802 C2808 1.379 . S
C2802 N2810 1.356 . S
C2803 C2802 1.363 . S
C2803 C2809 1.363 . S
C2804 C2805 1.363 . S
C2804 C2809 1.379 . S
C2804 N2811 1.356 . S
C2805 C2804 1.363 . S
C2805 C2808 1.363 . S
N2806 C2808 1.356 . S
N2806 H2818 0.984 . S
N2806 H2819 0.985 1_556 S
N2807 C2809 1.356 . S
N2807 H2812 0.984 . S
N2807 H2813 0.985 . S
C2808 C2802 1.379 . S
C2808 C2805 1.363 . S
C2808 N2806 1.356 . S
C2809 C2803 1.363 . S
C2809 C2804 1.379 . S
C2809 N2807 1.356 . S
N2810 C2802 1.356 . S
N2810 H2816 0.984 . S
N2810 H2817 0.984 . S
N2811 C2804 1.356 . S
N2811 H2814 0.984 . S
N2811 H2815 0.985 . S
H2812 N2807 0.984 . S
H2813 N2807 0.985 . S
H2814 N2811 0.984 . S
H2815 N2811 0.985 . S
H2816 N2810 0.984 . S
H2817 N2810 0.984 . S
H2818 N2806 0.984 . S
H2819 N2806 0.985 1_554 S
C2820 C2821 1.363 . S
C2820 C2826 1.379 . S
C2820 N2828 1.356 . S
C2821 C2820 1.363 . S
C2821 C2827 1.363 . S
C2822 C2823 1.363 . S
C2822 C2827 1.379 . S
C2822 N2829 1.356 . S
C2823 C2822 1.363 . S
C2823 C2826 1.363 . S
N2824 C2826 1.356 . S
N2824 H2836 0.984 . S
N2824 H2837 0.985 . S
N2825 C2827 1.356 . S
N2825 H2830 0.984 . S
N2825 H2831 0.985 . S
C2826 C2820 1.379 . S
C2826 C2823 1.363 . S
C2826 N2824 1.356 . S
C2827 C2821 1.363 . S
C2827 C2822 1.379 . S
C2827 N2825 1.356 . S
N2828 C2820 1.356 . S
N2828 H2834 0.984 . S
N2828 H2835 0.984 1_556 S
N2829 C2822 1.356 . S
N2829 H2832 0.984 . S
N2829 H2833 0.985 . S
H2830 N2825 0.984 . S
H2831 N2825 0.985 . S
H2832 N2829 0.984 . S
H2833 N2829 0.985 . S
H2834 N2828 0.984 . S
H2835 N2828 0.984 1_554 S
H2836 N2824 0.984 . S
H2837 N2824 0.985 . S
C2838 C2839 1.363 . S
C2838 C2844 1.379 . S
C2838 N2846 1.356 . S
C2839 C2838 1.363 . S
C2839 C2845 1.363 . S
C2840 C2841 1.363 . S
C2840 C2845 1.379 . S
C2840 N2847 1.356 . S
C2841 C2840 1.363 . S
C2841 C2844 1.363 . S
N2842 C2844 1.356 . S
N2842 H2854 0.984 . S
N2842 H2855 0.985 . S
N2843 C2845 1.356 . S
N2843 H2848 0.984 . S
N2843 H2849 0.985 . S
C2844 C2838 1.379 . S
C2844 C2841 1.363 . S
C2844 N2842 1.356 . S
C2845 C2839 1.363 . S
C2845 C2840 1.379 . S
C2845 N2843 1.356 . S
N2846 C2838 1.356 . S
N2846 H2852 0.984 . S
N2846 H2853 0.984 . S
N2847 C2840 1.356 . S
N2847 H2850 0.984 . S
N2847 H2851 0.985 . S
H2848 N2843 0.984 . S
H2849 N2843 0.985 . S
H2850 N2847 0.984 . S
H2851 N2847 0.985 . S
H2852 N2846 0.984 . S
H2853 N2846 0.984 . S
H2854 N2842 0.984 . S
H2855 N2842 0.985 . S
C2856 C2857 1.363 . S
C2856 C2862 1.379 . S
C2856 N2864 1.356 . S
C2857 C2856 1.363 . S
C2857 C2863 1.363 . S
C2858 C2859 1.363 . S
C2858 C2863 1.379 . S
C2858 N2865 1.356 . S
C2859 C2858 1.363 . S
C2859 C2862 1.363 . S
N2860 C2862 1.356 . S
N2860 H2872 0.984 . S
N2860 H2873 0.985 . S
N2861 C2863 1.356 . S
N2861 H2866 0.984 . S
N2861 H2867 0.985 . S
C2862 C2856 1.379 . S
C2862 C2859 1.363 . S
C2862 N2860 1.356 . S
C2863 C2857 1.363 . S
C2863 C2858 1.379 . S
C2863 N2861 1.356 . S
N2864 C2856 1.356 . S
N2864 H2870 0.984 . S
N2864 H2871 0.999 . S
N2865 C2858 1.356 . S
N2865 H2868 0.984 . S
N2865 H2869 0.985 . S
H2866 N2861 0.984 . S
H2867 N2861 0.985 . S
H2868 N2865 0.984 . S
H2869 N2865 0.985 . S
H2870 N2864 0.984 . S
H2871 N2864 0.999 . S
H2872 N2860 0.984 . S
H2873 N2860 0.985 . S
C2874 C2875 1.363 . S
C2874 C2880 1.379 . S
C2874 N2882 1.356 . S
C2875 C2874 1.363 . S
C2875 C2881 1.363 . S
C2876 C2877 1.363 . S
C2876 C2881 1.379 . S
C2876 N2883 1.356 . S
C2877 C2876 1.363 . S
C2877 C2880 1.363 . S
N2878 C2880 1.356 . S
N2878 H2890 0.984 . S
N2878 H2891 0.985 . S
N2879 C2881 1.356 . S
N2879 H2884 0.984 . S
N2879 H2885 0.985 . S
C2880 C2874 1.379 . S
C2880 C2877 1.363 . S
C2880 N2878 1.356 . S
C2881 C2875 1.363 . S
C2881 C2876 1.379 . S
C2881 N2879 1.356 . S
N2882 C2874 1.356 . S
N2882 H2888 0.984 . S
N2882 H2889 0.984 . S
N2883 C2876 1.356 . S
N2883 H2886 0.984 . S
N2883 H2887 0.985 . S
H2884 N2879 0.984 . S
H2885 N2879 0.985 . S
H2886 N2883 0.984 . S
H2887 N2883 0.985 . S
H2888 N2882 0.984 . S
H2889 N2882 0.984 . S
H2890 N2878 0.984 . S
H2891 N2878 0.985 . S
C2892 C2893 1.363 . S
C2892 C2898 1.379 . S
C2892 N2900 1.356 . S
C2893 C2892 1.363 . S
C2893 C2899 1.363 . S
C2894 C2895 1.363 . S
C2894 C2899 1.379 . S
C2894 N2901 1.356 . S
C2895 C2894 1.363 . S
C2895 C2898 1.363 . S
N2896 C2898 1.356 . S
N2896 H2908 0.984 . S
N2896 H2909 0.985 . S
N2897 C2899 1.356 . S
N2897 H2902 0.984 . S
N2897 H2903 0.985 . S
C2898 C2892 1.379 . S
C2898 C2895 1.363 . S
C2898 N2896 1.356 . S
C2899 C2893 1.363 . S
C2899 C2894 1.379 . S
C2899 N2897 1.356 . S
N2900 C2892 1.356 . S
N2900 H2906 0.984 . S
N2900 H2907 0.984 . S
N2901 C2894 1.356 . S
N2901 H2904 0.984 . S
N2901 H2905 0.985 . S
H2902 N2897 0.984 . S
H2903 N2897 0.985 . S
H2904 N2901 0.984 . S
H2905 N2901 0.985 . S
H2906 N2900 0.984 . S
H2907 N2900 0.984 . S
H2908 N2896 0.984 . S
H2909 N2896 0.985 . S
C2910 C2911 1.363 . S
C2910 C2916 1.379 . S
C2910 N2918 1.356 . S
C2911 C2910 1.363 . S
C2911 C2917 1.363 . S
C2912 C2913 1.363 . S
C2912 C2917 1.379 . S
C2912 N2919 1.356 . S
C2913 C2912 1.363 . S
C2913 C2916 1.363 . S
N2914 C2916 1.356 . S
N2914 H2926 0.984 . S
N2914 H2927 0.985 . S
N2915 C2917 1.356 . S
N2915 H2920 0.984 . S
N2915 H2921 0.985 . S
C2916 C2910 1.379 . S
C2916 C2913 1.363 . S
C2916 N2914 1.356 . S
C2917 C2911 1.363 . S
C2917 C2912 1.379 . S
C2917 N2915 1.356 . S
N2918 C2910 1.356 . S
N2918 H2924 0.984 . S
N2918 H2925 0.984 . S
N2919 C2912 1.356 . S
N2919 H2922 0.984 . S
N2919 H2923 0.985 . S
H2920 N2915 0.984 . S
H2921 N2915 0.985 . S
H2922 N2919 0.984 . S
H2923 N2919 0.985 . S
H2924 N2918 0.984 . S
H2925 N2918 0.984 . S
H2926 N2914 0.984 . S
H2927 N2914 0.985 . S
C2928 C2929 1.363 . S
C2928 C2934 1.379 . S
C2928 N2936 1.356 . S
C2929 C2928 1.363 . S
C2929 C2935 1.363 . S
C2930 C2931 1.363 . S
C2930 C2935 1.379 . S
C2930 N2937 1.356 . S
C2931 C2930 1.363 . S
C2931 C2934 1.363 . S
N2932 C2934 1.356 . S
N2932 H2944 0.984 . S
N2932 H2945 0.985 . S
N2933 C2935 1.356 . S
N2933 H2938 0.984 . S
N2933 H2939 0.985 . S
C2934 C2928 1.379 . S
C2934 C2931 1.363 . S
C2934 N2932 1.356 . S
C2935 C2929 1.363 . S
C2935 C2930 1.379 . S
C2935 N2933 1.356 . S
N2936 C2928 1.356 . S
N2936 H2942 0.984 . S
N2936 H2943 0.984 . S
N2937 C2930 1.356 . S
N2937 H2940 0.984 . S
N2937 H2941 0.985 . S
H2938 N2933 0.984 . S
H2939 N2933 0.985 . S
H2940 N2937 0.984 . S
H2941 N2937 0.985 . S
H2942 N2936 0.984 . S
H2943 N2936 0.984 . S
H2944 N2932 0.984 . S
H2945 N2932 0.985 . S
C2946 C2947 1.363 . S
C2946 C2952 1.379 . S
C2946 N2954 1.356 . S
C2947 C2946 1.363 . S
C2947 C2953 1.363 . S
C2948 C2949 1.363 . S
C2948 C2953 1.379 . S
C2948 N2955 1.356 . S
C2949 C2948 1.363 . S
C2949 C2952 1.363 . S
N2950 C2952 1.356 . S
N2950 H2962 0.984 . S
N2950 H2963 0.985 . S
N2951 C2953 1.356 . S
N2951 H2956 0.984 . S
N2951 H2957 0.985 . S
C2952 C2946 1.379 . S
C2952 C2949 1.363 . S
C2952 N2950 1.356 . S
C2953 C2947 1.363 . S
C2953 C2948 1.379 . S
C2953 N2951 1.356 . S
N2954 C2946 1.356 . S
N2954 H2960 0.984 . S
N2954 H2961 0.984 . S
N2955 C2948 1.356 . S
N2955 H2958 0.984 . S
N2955 H2959 0.985 . S
H2956 N2951 0.984 . S
H2957 N2951 0.985 . S
H2958 N2955 0.984 . S
H2959 N2955 0.985 . S
H2960 N2954 0.984 . S
H2961 N2954 0.984 . S
H2962 N2950 0.984 . S
H2963 N2950 0.985 . S
C2964 C2965 1.363 . S
C2964 C2970 1.379 . S
C2964 N2972 1.356 . S
C2965 C2964 1.363 . S
C2965 C2971 1.363 . S
C2966 C2967 1.363 . S
C2966 C2971 1.379 . S
C2966 N2973 1.356 . S
C2967 C2966 1.363 . S
C2967 C2970 1.363 . S
N2968 C2970 1.356 . S
N2968 H2980 0.984 . S
N2968 H2981 0.985 . S
N2969 C2971 1.356 . S
N2969 H2974 0.984 . S
N2969 H2975 0.985 . S
C2970 C2964 1.379 . S
C2970 C2967 1.363 . S
C2970 N2968 1.356 . S
C2971 C2965 1.363 . S
C2971 C2966 1.379 . S
C2971 N2969 1.356 . S
N2972 C2964 1.356 . S
N2972 H2978 0.984 . S
N2972 H2979 0.984 . S
N2973 C2966 1.356 . S
N2973 H2976 0.984 . S
N2973 H2977 0.985 . S
H2974 N2969 0.984 . S
H2975 N2969 0.985 . S
H2976 N2973 0.984 . S
H2977 N2973 0.985 . S
H2978 N2972 0.984 . S
H2979 N2972 0.984 . S
H2980 N2968 0.984 . S
H2981 N2968 0.985 . S
C2982 C2983 1.363 . S
C2982 C2988 1.379 . S
C2982 N2990 1.356 . S
C2983 C2982 1.363 . S
C2983 C2989 1.363 . S
C2984 C2985 1.363 . S
C2984 C2989 1.379 . S
C2984 N2991 1.356 . S
C2985 C2984 1.363 . S
C2985 C2988 1.363 . S
N2986 C2988 1.356 . S
N2986 H2998 0.984 . S
N2986 H2999 0.985 . S
N2987 C2989 1.356 . S
N2987 H2992 0.984 . S
N2987 H2993 0.985 . S
C2988 C2982 1.379 . S
C2988 C2985 1.363 . S
C2988 N2986 1.356 . S
C2989 C2983 1.363 . S
C2989 C2984 1.379 . S
C2989 N2987 1.356 . S
N2990 C2982 1.356 . S
N2990 H2996 0.984 . S
N2990 H2997 0.984 . S
N2991 C2984 1.356 . S
N2991 H2994 0.984 . S
N2991 H2995 0.985 . S
H2992 N2987 0.984 . S
H2993 N2987 0.985 . S
H2994 N2991 0.984 . S
H2995 N2991 0.985 . S
H2996 N2990 0.984 . S
H2997 N2990 0.984 . S
H2998 N2986 0.984 . S
H2999 N2986 0.985 . S
C3000 C3001 1.363 . S
C3000 C3006 1.379 . S
C3000 N3008 1.356 . S
C3001 C3000 1.363 . S
C3001 C3007 1.363 . S
C3002 C3003 1.363 . S
C3002 C3007 1.379 . S
C3002 N3009 1.356 . S
C3003 C3002 1.363 . S
C3003 C3006 1.363 . S
N3004 C3006 1.356 . S
N3004 H3016 0.984 . S
N3004 H3017 0.985 . S
N3005 C3007 1.356 . S
N3005 H3010 0.984 . S
N3005 H3011 0.985 . S
C3006 C3000 1.379 . S
C3006 C3003 1.363 . S
C3006 N3004 1.356 . S
C3007 C3001 1.363 . S
C3007 C3002 1.379 . S
C3007 N3005 1.356 . S
N3008 C3000 1.356 . S
N3008 H3014 0.984 . S
N3008 H3015 0.984 . S
N3009 C3002 1.356 . S
N3009 H3012 0.984 . S
N3009 H3013 0.985 . S
H3010 N3005 0.984 . S
H3011 N3005 0.985 . S
H3012 N3009 0.984 . S
H3013 N3009 0.985 . S
H3014 N3008 0.984 . S
H3015 N3008 0.984 . S
H3016 N3004 0.984 . S
H3017 N3004 0.985 . S
C3018 C3019 1.363 . S
C3018 C3024 1.379 . S
C3018 N3026 1.356 . S
C3019 C3018 1.363 . S
C3019 C3025 1.363 . S
C3020 C3021 1.363 . S
C3020 C3025 1.379 . S
C3020 N3027 1.356 . S
C3021 C3020 1.363 . S
C3021 C3024 1.363 . S
N3022 C3024 1.356 . S
N3022 H3034 0.984 . S
N3022 H3035 0.985 . S
N3023 C3025 1.356 . S
N3023 H3028 0.984 . S
N3023 H3029 0.985 . S
C3024 C3018 1.379 . S
C3024 C3021 1.363 . S
C3024 N3022 1.356 . S
C3025 C3019 1.363 . S
C3025 C3020 1.379 . S
C3025 N3023 1.356 . S
N3026 C3018 1.356 . S
N3026 H3032 0.984 . S
N3026 H3033 0.984 . S
N3027 C3020 1.356 . S
N3027 H3030 0.984 . S
N3027 H3031 0.985 . S
H3028 N3023 0.984 . S
H3029 N3023 0.985 . S
H3030 N3027 0.984 . S
H3031 N3027 0.985 . S
H3032 N3026 0.984 . S
H3033 N3026 0.984 . S
H3034 N3022 0.984 . S
H3035 N3022 0.985 . S
C3036 C3037 1.363 . S
C3036 C3042 1.379 . S
C3036 N3044 1.356 . S
C3037 C3036 1.363 . S
C3037 C3043 1.363 . S
C3038 C3039 1.363 . S
C3038 C3043 1.379 . S
C3038 N3045 1.356 . S
C3039 C3038 1.363 . S
C3039 C3042 1.363 . S
N3040 C3042 1.356 . S
N3040 H3052 0.984 . S
N3040 H3053 0.985 . S
N3041 C3043 1.356 . S
N3041 H3046 0.984 . S
N3041 H3047 0.985 . S
C3042 C3036 1.379 . S
C3042 C3039 1.363 . S
C3042 N3040 1.356 . S
C3043 C3037 1.363 . S
C3043 C3038 1.379 . S
C3043 N3041 1.356 . S
N3044 C3036 1.356 . S
N3044 H3050 0.984 . S
N3044 H3051 0.984 . S
N3045 C3038 1.356 . S
N3045 H3048 0.984 . S
N3045 H3049 0.985 . S
H3046 N3041 0.984 . S
H3047 N3041 0.985 . S
H3048 N3045 0.984 . S
H3049 N3045 0.985 . S
H3050 N3044 0.984 . S
H3051 N3044 0.984 . S
H3052 N3040 0.984 . S
H3053 N3040 0.985 . S
C3054 C3055 1.363 . S
C3054 C3060 1.379 . S
C3054 N3062 1.356 . S
C3055 C3054 1.363 . S
C3055 C3061 1.363 . S
C3056 C3057 1.363 . S
C3056 C3061 1.379 . S
C3056 N3063 1.356 . S
C3057 C3056 1.363 . S
C3057 C3060 1.363 . S
N3058 C3060 1.356 . S
N3058 H3070 0.984 . S
N3058 H3071 0.985 . S
N3059 C3061 1.356 . S
N3059 H3064 0.984 . S
N3059 H3065 0.985 . S
C3060 C3054 1.379 . S
C3060 C3057 1.363 . S
C3060 N3058 1.356 . S
C3061 C3055 1.363 . S
C3061 C3056 1.379 . S
C3061 N3059 1.356 . S
N3062 C3054 1.356 . S
N3062 H3068 0.984 . S
N3062 H3069 0.984 . S
N3063 C3056 1.356 . S
N3063 H3066 0.984 . S
N3063 H3067 0.985 . S
H3064 N3059 0.984 . S
H3065 N3059 0.985 . S
H3066 N3063 0.984 . S
H3067 N3063 0.985 . S
H3068 N3062 0.984 . S
H3069 N3062 0.984 . S
H3070 N3058 0.984 . S
H3071 N3058 0.985 . S
C3072 C3073 1.363 . S
C3072 C3078 1.379 . S
C3072 N3080 1.356 . S
C3073 C3072 1.363 . S
C3073 C3079 1.363 . S
C3074 C3075 1.363 . S
C3074 C3079 1.379 . S
C3074 N3081 1.356 . S
C3075 C3074 1.363 . S
C3075 C3078 1.363 . S
N3076 C3078 1.356 . S
N3076 H3088 0.984 . S
N3076 H3089 0.985 . S
N3077 C3079 1.356 . S
N3077 H3082 0.984 . S
N3077 H3083 0.985 . S
C3078 C3072 1.379 . S
C3078 C3075 1.363 . S
C3078 N3076 1.356 . S
C3079 C3073 1.363 . S
C3079 C3074 1.379 . S
C3079 N3077 1.356 . S
N3080 C3072 1.356 . S
N3080 H3086 0.984 . S
N3080 H3087 0.984 . S
N3081 C3074 1.356 . S
N3081 H3084 0.984 . S
N3081 H3085 0.985 . S
H3082 N3077 0.984 . S
H3083 N3077 0.985 . S
H3084 N3081 0.984 . S
H3085 N3081 0.985 . S
H3086 N3080 0.984 . S
H3087 N3080 0.984 . S
H3088 N3076 0.984 . S
H3089 N3076 0.985 . S
C3090 C3091 1.363 . S
C3090 C3096 1.379 . S
C3090 N3098 1.356 . S
C3091 C3090 1.363 . S
C3091 C3097 1.363 . S
C3092 C3093 1.363 . S
C3092 C3097 1.379 . S
C3092 N3099 1.356 . S
C3093 C3092 1.363 . S
C3093 C3096 1.363 . S
N3094 C3096 1.356 . S
N3094 H3106 0.984 . S
N3094 H3107 0.985 . S
N3095 C3097 1.356 . S
N3095 H3100 0.984 . S
N3095 H3101 0.985 . S
C3096 C3090 1.379 . S
C3096 C3093 1.363 . S
C3096 N3094 1.356 . S
C3097 C3091 1.363 . S
C3097 C3092 1.379 . S
C3097 N3095 1.356 . S
N3098 C3090 1.356 . S
N3098 H3104 0.984 . S
N3098 H3105 0.984 . S
N3099 C3092 1.356 . S
N3099 H3102 0.984 . S
N3099 H3103 0.985 . S
H3100 N3095 0.984 . S
H3101 N3095 0.985 . S
H3102 N3099 0.984 . S
H3103 N3099 0.985 . S
H3104 N3098 0.984 . S
H3105 N3098 0.984 . S
H3106 N3094 0.984 . S
H3107 N3094 0.985 . S
C3108 C3109 1.363 . S
C3108 C3114 1.379 . S
C3108 N3116 1.356 . S
C3109 C3108 1.363 . S
C3109 C3115 1.363 . S
C3110 C3111 1.363 . S
C3110 C3115 1.379 . S
C3110 N3117 1.356 . S
C3111 C3110 1.363 . S
C3111 C3114 1.363 . S
N3112 C3114 1.356 . S
N3112 H3124 0.984 . S
N3112 H3125 0.985 . S
N3113 C3115 1.356 . S
N3113 H3118 0.984 . S
N3113 H3119 0.985 . S
C3114 C3108 1.379 . S
C3114 C3111 1.363 . S
C3114 N3112 1.356 . S
C3115 C3109 1.363 . S
C3115 C3110 1.379 . S
C3115 N3113 1.356 . S
N3116 C3108 1.356 . S
N3116 H3122 0.984 . S
N3116 H3123 0.984 . S
N3117 C3110 1.356 . S
N3117 H3120 0.984 . S
N3117 H3121 0.985 . S
H3118 N3113 0.984 . S
H3119 N3113 0.985 . S
H3120 N3117 0.984 . S
H3121 N3117 0.985 . S
H3122 N3116 0.984 . S
H3123 N3116 0.984 . S
H3124 N3112 0.984 . S
H3125 N3112 0.985 . S
C3126 C3127 1.363 . S
C3126 C3132 1.379 . S
C3126 N3134 1.356 . S
C3127 C3126 1.363 . S
C3127 C3133 1.363 . S
C3128 C3129 1.363 . S
C3128 C3133 1.379 . S
C3128 N3135 1.356 . S
C3129 C3128 1.363 . S
C3129 C3132 1.363 . S
N3130 C3132 1.356 . S
N3130 H3142 0.984 . S
N3130 H3143 0.985 . S
N3131 C3133 1.356 . S
N3131 H3136 0.984 . S
N3131 H3137 0.985 . S
C3132 C3126 1.379 . S
C3132 C3129 1.363 . S
C3132 N3130 1.356 . S
C3133 C3127 1.363 . S
C3133 C3128 1.379 . S
C3133 N3131 1.356 . S
N3134 C3126 1.356 . S
N3134 H3140 0.984 . S
N3134 H3141 0.984 . S
N3135 C3128 1.356 . S
N3135 H3138 0.984 . S
N3135 H3139 0.985 . S
H3136 N3131 0.984 . S
H3137 N3131 0.985 . S
H3138 N3135 0.984 . S
H3139 N3135 0.985 . S
H3140 N3134 0.984 . S
H3141 N3134 0.984 . S
H3142 N3130 0.984 . S
H3143 N3130 0.985 . S
C3144 C3145 1.363 . S
C3144 C3150 1.379 . S
C3144 N3152 1.356 . S
C3145 C3144 1.363 . S
C3145 C3151 1.363 . S
C3146 C3147 1.363 . S
C3146 C3151 1.379 . S
C3146 N3153 1.356 . S
C3147 C3146 1.363 . S
C3147 C3150 1.363 . S
N3148 C3150 1.356 . S
N3148 H3160 0.984 . S
N3148 H3161 0.985 . S
N3149 C3151 1.356 . S
N3149 H3154 0.984 . S
N3149 H3155 0.985 . S
C3150 C3144 1.379 . S
C3150 C3147 1.363 . S
C3150 N3148 1.356 . S
C3151 C3145 1.363 . S
C3151 C3146 1.379 . S
C3151 N3149 1.356 . S
N3152 C3144 1.356 . S
N3152 H3158 0.984 . S
N3152 H3159 0.984 . S
N3153 C3146 1.356 . S
N3153 H3156 0.984 . S
N3153 H3157 0.985 . S
H3154 N3149 0.984 . S
H3155 N3149 0.985 . S
H3156 N3153 0.984 . S
H3157 N3153 0.985 . S
H3158 N3152 0.984 . S
H3159 N3152 0.984 . S
H3160 N3148 0.984 . S
H3161 N3148 0.985 . S
C3162 C3163 1.363 . S
C3162 C3168 1.379 . S
C3162 N3170 1.356 . S
C3163 C3162 1.363 . S
C3163 C3169 1.363 . S
C3164 C3165 1.363 . S
C3164 C3169 1.379 . S
C3164 N3171 1.356 . S
C3165 C3164 1.363 . S
C3165 C3168 1.363 . S
N3166 C3168 1.356 . S
N3166 H3178 0.984 . S
N3166 H3179 0.985 . S
N3167 C3169 1.356 . S
N3167 H3172 0.984 . S
N3167 H3173 0.985 . S
C3168 C3162 1.379 . S
C3168 C3165 1.363 . S
C3168 N3166 1.356 . S
C3169 C3163 1.363 . S
C3169 C3164 1.379 . S
C3169 N3167 1.356 . S
N3170 C3162 1.356 . S
N3170 H3176 0.984 . S
N3170 H3177 0.984 . S
N3171 C3164 1.356 . S
N3171 H3174 0.984 . S
N3171 H3175 0.985 . S
H3172 N3167 0.984 . S
H3173 N3167 0.985 . S
H3174 N3171 0.984 . S
H3175 N3171 0.985 . S
H3176 N3170 0.984 . S
H3177 N3170 0.984 . S
H3178 N3166 0.984 . S
H3179 N3166 0.985 . S
C3180 C3181 1.363 . S
C3180 C3186 1.379 . S
C3180 N3188 1.356 . S
C3181 C3180 1.363 . S
C3181 C3187 1.363 . S
C3182 C3183 1.363 . S
C3182 C3187 1.379 . S
C3182 N3189 1.356 . S
C3183 C3182 1.363 . S
C3183 C3186 1.363 . S
N3184 C3186 1.356 . S
N3184 H3196 0.984 . S
N3184 H3197 0.985 . S
N3185 C3187 1.356 . S
N3185 H3190 0.984 . S
N3185 H3191 0.985 . S
C3186 C3180 1.379 . S
C3186 C3183 1.363 . S
C3186 N3184 1.356 . S
C3187 C3181 1.363 . S
C3187 C3182 1.379 . S
C3187 N3185 1.356 . S
N3188 C3180 1.356 . S
N3188 H3194 0.984 . S
N3188 H3195 0.984 . S
N3189 C3182 1.356 . S
N3189 H3192 0.984 . S
N3189 H3193 0.985 . S
H3190 N3185 0.984 . S
H3191 N3185 0.985 . S
H3192 N3189 0.984 . S
H3193 N3189 0.985 . S
H3194 N3188 0.984 . S
H3195 N3188 0.984 . S
H3196 N3184 0.984 . S
H3197 N3184 0.985 . S
C3198 C3199 1.363 . S
C3198 C3204 1.379 . S
C3198 N3206 1.356 . S
C3199 C3198 1.363 . S
C3199 C3205 1.363 . S
C3200 C3201 1.363 . S
C3200 C3205 1.379 . S
C3200 N3207 1.356 . S
C3201 C3200 1.363 . S
C3201 C3204 1.363 . S
N3202 C3204 1.356 . S
N3202 H3214 0.984 . S
N3202 H3215 0.985 . S
N3203 C3205 1.356 . S
N3203 H3208 0.984 . S
N3203 H3209 0.985 . S
C3204 C3198 1.379 . S
C3204 C3201 1.363 . S
C3204 N3202 1.356 . S
C3205 C3199 1.363 . S
C3205 C3200 1.379 . S
C3205 N3203 1.356 . S
N3206 C3198 1.356 . S
N3206 H3212 0.984 . S
N3206 H3213 0.984 . S
N3207 C3200 1.356 . S
N3207 H3210 0.984 . S
N3207 H3211 0.985 . S
H3208 N3203 0.984 . S
H3209 N3203 0.985 . S
H3210 N3207 0.984 . S
H3211 N3207 0.985 . S
H3212 N3206 0.984 . S
H3213 N3206 0.984 . S
H3214 N3202 0.984 . S
H3215 N3202 0.985 . S
C3216 C3217 1.363 . S
C3216 C3222 1.379 . S
C3216 N3224 1.356 . S
C3217 C3216 1.363 . S
C3217 C3223 1.363 . S
C3218 C3219 1.363 . S
C3218 C3223 1.379 . S
C3218 N3225 1.356 . S
C3219 C3218 1.363 . S
C3219 C3222 1.363 . S
N3220 C3222 1.356 . S
N3220 H3232 0.984 . S
N3220 H3233 0.985 . S
N3221 C3223 1.356 . S
N3221 H3226 0.984 . S
N3221 H3227 0.985 . S
C3222 C3216 1.379 . S
C3222 C3219 1.363 . S
C3222 N3220 1.356 . S
C3223 C3217 1.363 . S
C3223 C3218 1.379 . S
C3223 N3221 1.356 . S
N3224 C3216 1.356 . S
N3224 H3230 0.984 . S
N3224 H3231 0.984 . S
N3225 C3218 1.356 . S
N3225 H3228 0.984 . S
N3225 H3229 0.985 . S
H3226 N3221 0.984 . S
H3227 N3221 0.985 . S
H3228 N3225 0.984 . S
H3229 N3225 0.985 . S
H3230 N3224 0.984 . S
H3231 N3224 0.984 . S
H3232 N3220 0.984 . S
H3233 N3220 0.985 . S
C3234 C3235 1.363 . S
C3234 C3240 1.379 . S
C3234 N3242 1.356 . S
C3235 C3234 1.363 . S
C3235 C3241 1.363 . S
C3236 C3237 1.363 . S
C3236 C3241 1.379 . S
C3236 N3243 1.356 . S
C3237 C3236 1.363 . S
C3237 C3240 1.363 . S
N3238 C3240 1.356 . S
N3238 H3250 0.984 . S
N3238 H3251 0.985 . S
N3239 C3241 1.356 . S
N3239 H3244 0.984 . S
N3239 H3245 0.985 . S
C3240 C3234 1.379 . S
C3240 C3237 1.363 . S
C3240 N3238 1.356 . S
C3241 C3235 1.363 . S
C3241 C3236 1.379 . S
C3241 N3239 1.356 . S
N3242 C3234 1.356 . S
N3242 H3248 0.984 . S
N3242 H3249 0.984 . S
N3243 C3236 1.356 . S
N3243 H3246 0.984 . S
N3243 H3247 0.985 . S
H3244 N3239 0.984 . S
H3245 N3239 0.985 . S
H3246 N3243 0.984 . S
H3247 N3243 0.985 . S
H3248 N3242 0.984 . S
H3249 N3242 0.984 . S
H3250 N3238 0.984 . S
H3251 N3238 0.985 . S
C3252 C3253 1.363 . S
C3252 C3258 1.379 . S
C3252 N3260 1.356 . S
C3253 C3252 1.363 . S
C3253 C3259 1.363 . S
C3254 C3255 1.363 . S
C3254 C3259 1.379 . S
C3254 N3261 1.356 . S
C3255 C3254 1.363 . S
C3255 C3258 1.363 . S
N3256 C3258 1.356 . S
N3256 H3268 0.984 . S
N3256 H3269 0.985 . S
N3257 C3259 1.356 . S
N3257 H3262 0.984 . S
N3257 H3263 0.985 . S
C3258 C3252 1.379 . S
C3258 C3255 1.363 . S
C3258 N3256 1.356 . S
C3259 C3253 1.363 . S
C3259 C3254 1.379 . S
C3259 N3257 1.356 . S
N3260 C3252 1.356 . S
N3260 H3266 0.984 . S
N3260 H3267 0.984 . S
N3261 C3254 1.356 . S
N3261 H3264 0.984 . S
N3261 H3265 0.985 . S
H3262 N3257 0.984 . S
H3263 N3257 0.985 . S
H3264 N3261 0.984 . S
H3265 N3261 0.985 . S
H3266 N3260 0.984 . S
H3267 N3260 0.984 . S
H3268 N3256 0.984 . S
H3269 N3256 0.985 . S
C3270 C3271 1.363 . S
C3270 C3276 1.379 . S
C3270 N3278 1.356 . S
C3271 C3270 1.363 . S
C3271 C3277 1.363 . S
C3272 C3273 1.363 . S
C3272 C3277 1.379 . S
C3272 N3279 1.356 . S
C3273 C3272 1.363 . S
C3273 C3276 1.363 . S
N3274 C3276 1.356 . S
N3274 H3286 0.984 . S
N3274 H3287 0.985 . S
N3275 C3277 1.356 . S
N3275 H3280 0.984 . S
N3275 H3281 0.985 . S
C3276 C3270 1.379 . S
C3276 C3273 1.363 . S
C3276 N3274 1.356 . S
C3277 C3271 1.363 . S
C3277 C3272 1.379 . S
C3277 N3275 1.356 . S
N3278 C3270 1.356 . S
N3278 H3284 0.984 . S
N3278 H3285 0.984 . S
N3279 C3272 1.356 . S
N3279 H3282 0.984 . S
N3279 H3283 0.985 . S
H3280 N3275 0.984 . S
H3281 N3275 0.985 . S
H3282 N3279 0.984 . S
H3283 N3279 0.985 . S
H3284 N3278 0.984 . S
H3285 N3278 0.984 . S
H3286 N3274 0.984 . S
H3287 N3274 0.985 . S
C3288 C3289 1.363 . S
C3288 C3294 1.379 . S
C3288 N3296 1.356 . S
C3289 C3288 1.363 . S
C3289 C3295 1.363 . S
C3290 C3291 1.363 . S
C3290 C3295 1.379 . S
C3290 N3297 1.356 . S
C3291 C3290 1.363 . S
C3291 C3294 1.363 . S
N3292 C3294 1.356 . S
N3292 H3304 0.984 . S
N3292 H3305 0.985 . S
N3293 C3295 1.356 . S
N3293 H3298 0.984 . S
N3293 H3299 0.985 . S
C3294 C3288 1.379 . S
C3294 C3291 1.363 . S
C3294 N3292 1.356 . S
C3295 C3289 1.363 . S
C3295 C3290 1.379 . S
C3295 N3293 1.356 . S
N3296 C3288 1.356 . S
N3296 H3302 0.984 . S
N3296 H3303 0.984 . S
N3297 C3290 1.356 . S
N3297 H3300 0.984 . S
N3297 H3301 0.985 . S
H3298 N3293 0.984 . S
H3299 N3293 0.985 . S
H3300 N3297 0.984 . S
H3301 N3297 0.985 . S
H3302 N3296 0.984 . S
H3303 N3296 0.984 . S
H3304 N3292 0.984 . S
H3305 N3292 0.985 . S
C3306 C3307 1.363 . S
C3306 C3312 1.379 . S
C3306 N3314 1.356 . S
C3307 C3306 1.363 . S
C3307 C3313 1.363 . S
C3308 C3309 1.363 . S
C3308 C3313 1.379 . S
C3308 N3315 1.356 . S
C3309 C3308 1.363 . S
C3309 C3312 1.363 . S
N3310 C3312 1.356 . S
N3310 H3322 0.984 . S
N3310 H3323 0.985 . S
N3311 C3313 1.356 . S
N3311 H3316 0.984 . S
N3311 H3317 0.985 . S
C3312 C3306 1.379 . S
C3312 C3309 1.363 . S
C3312 N3310 1.356 . S
C3313 C3307 1.363 . S
C3313 C3308 1.379 . S
C3313 N3311 1.356 . S
N3314 C3306 1.356 . S
N3314 H3320 0.984 . S
N3314 H3321 0.984 . S
N3315 C3308 1.356 . S
N3315 H3318 0.984 . S
N3315 H3319 0.985 . S
H3316 N3311 0.984 . S
H3317 N3311 0.985 . S
H3318 N3315 0.984 . S
H3319 N3315 0.985 . S
H3320 N3314 0.984 . S
H3321 N3314 0.984 . S
H3322 N3310 0.984 . S
H3323 N3310 0.985 . S
C3324 C3325 1.363 . S
C3324 C3330 1.379 . S
C3324 N3332 1.356 . S
C3325 C3324 1.363 . S
C3325 C3331 1.363 . S
C3326 C3327 1.363 . S
C3326 C3331 1.379 . S
C3326 N3333 1.356 . S
C3327 C3326 1.363 . S
C3327 C3330 1.363 . S
N3328 C3330 1.356 . S
N3328 H3340 0.984 . S
N3328 H3341 0.985 . S
N3329 C3331 1.356 . S
N3329 H3334 0.984 . S
N3329 H3335 0.985 . S
C3330 C3324 1.379 . S
C3330 C3327 1.363 . S
C3330 N3328 1.356 . S
C3331 C3325 1.363 . S
C3331 C3326 1.379 . S
C3331 N3329 1.356 . S
N3332 C3324 1.356 . S
N3332 H3338 0.984 . S
N3332 H3339 0.984 . S
N3333 C3326 1.356 . S
N3333 H3336 0.984 . S
N3333 H3337 0.985 . S
H3334 N3329 0.984 . S
H3335 N3329 0.985 . S
H3336 N3333 0.984 . S
H3337 N3333 0.985 . S
H3338 N3332 0.984 . S
H3339 N3332 0.984 . S
H3340 N3328 0.984 . S
H3341 N3328 0.985 . S
C3342 C3343 1.363 . S
C3342 C3348 1.379 . S
C3342 N3350 1.356 . S
C3343 C3342 1.363 . S
C3343 C3349 1.363 . S
C3344 C3345 1.363 . S
C3344 C3349 1.379 . S
C3344 N3351 1.356 . S
C3345 C3344 1.363 . S
C3345 C3348 1.363 . S
N3346 C3348 1.356 . S
N3346 H3358 0.984 . S
N3346 H3359 0.985 . S
N3347 C3349 1.356 . S
N3347 H3352 0.984 . S
N3347 H3353 0.985 . S
C3348 C3342 1.379 . S
C3348 C3345 1.363 . S
C3348 N3346 1.356 . S
C3349 C3343 1.363 . S
C3349 C3344 1.379 . S
C3349 N3347 1.356 . S
N3350 C3342 1.356 . S
N3350 H3356 0.984 . S
N3350 H3357 0.984 . S
N3351 C3344 1.356 . S
N3351 H3354 0.984 . S
N3351 H3355 0.985 . S
H3352 N3347 0.984 . S
H3353 N3347 0.985 . S
H3354 N3351 0.984 . S
H3355 N3351 0.985 . S
H3356 N3350 0.984 . S
H3357 N3350 0.984 . S
H3358 N3346 0.984 . S
H3359 N3346 0.985 . S
C3360 C3361 1.363 . S
C3360 C3366 1.379 . S
C3360 N3368 1.356 . S
C3361 C3360 1.363 . S
C3361 C3367 1.363 . S
C3362 C3363 1.363 . S
C3362 C3367 1.379 . S
C3362 N3369 1.356 . S
C3363 C3362 1.363 . S
C3363 C3366 1.363 . S
N3364 C3366 1.356 . S
N3364 H3376 0.984 . S
N3364 H3377 0.985 . S
N3365 C3367 1.356 1_655 S
N3365 H3370 0.984 . S
N3365 H3371 0.985 . S
C3366 C3360 1.379 . S
C3366 C3363 1.363 . S
C3366 N3364 1.356 . S
C3367 C3361 1.363 . S
C3367 C3362 1.379 . S
C3367 N3365 1.356 1_455 S
N3368 C3360 1.356 . S
N3368 H3374 0.984 . S
N3368 H3375 0.984 . S
N3369 C3362 1.356 . S
N3369 H3372 0.984 . S
N3369 H3373 0.985 . S
H3370 N3365 0.984 . S
H3371 N3365 0.985 . S
H3372 N3369 0.984 . S
H3373 N3369 0.985 . S
H3374 N3368 0.984 . S
H3375 N3368 0.984 . S
H3376 N3364 0.984 . S
H3377 N3364 0.985 . S
C3378 C3379 1.363 . S
C3378 C3384 1.379 . S
C3378 N3386 1.356 . S
C3379 C3378 1.363 . S
C3379 C3385 1.363 . S
C3380 C3381 1.363 1_565 S
C3380 C3385 1.379 1_565 S
C3380 N3387 1.356 . S
C3381 C3380 1.363 1_545 S
C3381 C3384 1.363 . S
N3382 C3384 1.356 . S
N3382 H3394 0.984 . S
N3382 H3395 0.985 . S
N3383 C3385 1.356 1_565 S
N3383 H3388 0.984 1_565 S
N3383 H3389 0.985 . S
C3384 C3378 1.379 . S
C3384 C3381 1.363 . S
C3384 N3382 1.356 . S
C3385 C3379 1.363 . S
C3385 C3380 1.379 1_545 S
C3385 N3383 1.356 1_545 S
N3386 C3378 1.356 . S
N3386 H3392 0.984 . S
N3386 H3393 0.984 . S
N3387 C3380 1.356 . S
N3387 H3390 0.984 . S
N3387 H3391 0.985 . S
H3388 N3383 0.984 1_545 S
H3389 N3383 0.985 . S
H3390 N3387 0.984 . S
H3391 N3387 0.985 . S
H3392 N3386 0.984 . S
H3393 N3386 0.984 . S
H3394 N3382 0.984 . S
H3395 N3382 0.985 . S
C3396 C3397 1.363 . S
C3396 C3402 1.379 . S
C3396 N3404 1.356 . S
C3397 C3396 1.363 . S
C3397 C3403 1.363 . S
C3398 C3399 1.363 . S
C3398 C3403 1.379 . S
C3398 N3405 1.356 . S
C3399 C3398 1.363 . S
C3399 C3402 1.363 . S
N3400 C3402 1.356 . S
N3400 H3412 0.984 . S
N3400 H3413 0.985 . S
N3401 C3403 1.356 . S
N3401 H3406 0.984 . S
N3401 H3407 0.985 . S
C3402 C3396 1.379 . S
C3402 C3399 1.363 . S
C3402 N3400 1.356 . S
C3403 C3397 1.363 . S
C3403 C3398 1.379 . S
C3403 N3401 1.356 . S
N3404 C3396 1.356 . S
N3404 H3410 0.984 . S
N3404 H3411 0.982 1_455 S
N3405 C3398 1.356 . S
N3405 H3408 0.984 . S
N3405 H3409 0.985 . S
H3406 N3401 0.984 . S
H3407 N3401 0.985 . S
H3408 N3405 0.984 . S
H3409 N3405 0.985 . S
H3410 N3404 0.984 . S
H3411 N3404 0.982 1_655 S
H3412 N3400 0.984 . S
H3413 N3400 0.985 . S
C3414 C3415 1.363 . S
C3414 C3420 1.379 . S
C3414 N3422 1.356 . S
C3415 C3414 1.363 . S
C3415 C3421 1.363 1_545 S
C3416 C3417 1.363 . S
C3416 C3421 1.379 1_545 S
C3416 N3423 1.356 1_545 S
C3417 C3416 1.363 . S
C3417 C3420 1.363 . S
N3418 C3420 1.356 . S
N3418 H3430 0.984 . S
N3418 H3431 0.985 . S
N3419 C3421 1.356 . S
N3419 H3424 0.984 . S
N3419 H3425 0.985 . S
C3420 C3414 1.379 . S
C3420 C3417 1.363 . S
C3420 N3418 1.356 . S
C3421 C3415 1.363 1_565 S
C3421 C3416 1.379 1_565 S
C3421 N3419 1.356 . S
N3422 C3414 1.356 . S
N3422 H3428 0.984 . S
N3422 H3429 0.984 . S
N3423 C3416 1.356 1_565 S
N3423 H3426 0.984 1_565 S
N3423 H3427 0.985 . S
H3424 N3419 0.984 . S
H3425 N3419 0.985 . S
H3426 N3423 0.984 1_545 S
H3427 N3423 0.985 . S
H3428 N3422 0.984 . S
H3429 N3422 0.984 . S
H3430 N3418 0.984 . S
H3431 N3418 0.985 . S
C3432 C3433 1.363 . S
C3432 C3438 1.379 . S
C3432 N3440 1.356 1_455 S
C3433 C3432 1.363 . S
C3433 C3439 1.363 . S
C3434 C3435 1.363 . S
C3434 C3439 1.379 . S
C3434 N3441 1.356 . S
C3435 C3434 1.363 . S
C3435 C3438 1.363 . S
N3436 C3438 1.356 . S
N3436 H3448 1.010 . S
N3436 H3449 0.985 . S
N3437 C3439 1.356 . S
N3437 H3442 0.984 . S
N3437 H3443 0.985 . S
C3438 C3432 1.379 . S
C3438 C3435 1.363 . S
C3438 N3436 1.356 . S
C3439 C3433 1.363 . S
C3439 C3434 1.379 . S
C3439 N3437 1.356 . S
N3440 C3432 1.356 1_655 S
N3440 H3446 0.984 . S
N3440 H3447 0.984 . S
N3441 C3434 1.356 . S
N3441 H3444 0.984 . S
N3441 H3445 0.985 . S
H3442 N3437 0.984 . S
H3443 N3437 0.985 . S
H3444 N3441 0.984 . S
H3445 N3441 0.985 . S
H3446 N3440 0.984 . S
H3447 N3440 0.984 . S
H3448 N3436 1.010 . S
H3449 N3436 0.985 . S
C3450 C3451 1.363 . S
C3450 C3456 1.388 . S
C3450 N3458 1.365 . S
C3451 C3450 1.363 . S
C3451 C3457 1.363 . S
C3452 C3453 1.363 . S
C3452 C3457 1.379 . S
C3452 N3459 1.356 . S
C3453 C3452 1.363 . S
C3453 C3456 1.379 . S
N3454 C3456 1.333 1_565 S
N3454 H3466 0.984 . S
N3454 H3467 0.985 . S
N3455 C3457 1.356 . S
N3455 H3460 0.984 . S
N3455 H3461 0.985 . S
C3456 C3450 1.388 . S
C3456 C3453 1.379 . S
C3456 N3454 1.333 1_545 S
C3457 C3451 1.363 . S
C3457 C3452 1.379 . S
C3457 N3455 1.356 . S
N3458 C3450 1.365 . S
N3458 H3464 0.961 1_545 S
N3458 H3465 1.000 . S
N3459 C3452 1.356 . S
N3459 H3462 0.984 . S
N3459 H3463 0.985 . S
H3460 N3455 0.984 . S
H3461 N3455 0.985 . S
H3462 N3459 0.984 . S
H3463 N3459 0.985 . S
H3464 N3458 0.961 1_565 S
H3465 N3458 1.000 . S
H3466 N3454 0.984 . S
H3467 N3454 0.985 . S
C3468 C3469 1.363 . S
C3468 C3474 1.379 . S
C3468 N3476 1.356 . S
C3469 C3468 1.363 . S
C3469 C3475 1.363 . S
C3470 C3471 1.363 . S
C3470 C3475 1.379 . S
C3470 N3477 1.356 . S
C3471 C3470 1.363 . S
C3471 C3474 1.363 . S
N3472 C3474 1.356 . S
N3472 H3484 0.984 . S
N3472 H3485 0.986 . S
N3473 C3475 1.356 . S
N3473 H3478 0.984 . S
N3473 H3479 0.985 . S
C3474 C3468 1.379 . S
C3474 C3471 1.363 . S
C3474 N3472 1.356 . S
C3475 C3469 1.363 . S
C3475 C3470 1.379 . S
C3475 N3473 1.356 . S
N3476 C3468 1.356 . S
N3476 H3482 0.984 . S
N3476 H3483 0.984 . S
N3477 C3470 1.356 . S
N3477 H3480 0.984 . S
N3477 H3481 0.985 . S
H3478 N3473 0.984 . S
H3479 N3473 0.985 . S
H3480 N3477 0.984 . S
H3481 N3477 0.985 . S
H3482 N3476 0.984 . S
H3483 N3476 0.984 . S
H3484 N3472 0.984 . S
H3485 N3472 0.986 . S
C3486 C3487 1.363 . S
C3486 C3492 1.379 . S
C3486 N3494 1.356 . S
C3487 C3486 1.363 . S
C3487 C3493 1.363 . S
C3488 C3489 1.363 . S
C3488 C3493 1.379 . S
C3488 N3495 1.356 1_545 S
C3489 C3488 1.363 . S
C3489 C3492 1.363 . S
N3490 C3492 1.356 . S
N3490 H3502 0.984 . S
N3490 H3503 0.985 . S
N3491 C3493 1.356 . S
N3491 H3496 0.984 . S
N3491 H3497 0.985 . S
C3492 C3486 1.379 . S
C3492 C3489 1.363 . S
C3492 N3490 1.356 . S
C3493 C3487 1.363 . S
C3493 C3488 1.379 . S
C3493 N3491 1.356 . S
N3494 C3486 1.356 . S
N3494 H3500 0.984 . S
N3494 H3501 0.984 . S
N3495 C3488 1.356 1_565 S
N3495 H3498 0.984 . S
N3495 H3499 0.985 . S
H3496 N3491 0.984 . S
H3497 N3491 0.985 . S
H3498 N3495 0.984 . S
H3499 N3495 0.985 . S
H3500 N3494 0.984 . S
H3501 N3494 0.984 . S
H3502 N3490 0.984 . S
H3503 N3490 0.985 . S
C3504 C3505 1.363 . S
C3504 C3510 1.379 . S
C3504 N3512 1.356 . S
C3505 C3504 1.363 . S
C3505 C3511 1.363 . S
C3506 C3507 1.363 . S
C3506 C3511 1.379 . S
C3506 N3513 1.356 1_554 S
C3507 C3506 1.363 . S
C3507 C3510 1.363 . S
N3508 C3510 1.356 . S
N3508 H3520 0.984 . S
N3508 H3521 0.985 . S
N3509 C3511 1.356 . S
N3509 H3514 0.984 . S
N3509 H3515 0.985 1_554 S
C3510 C3504 1.379 . S
C3510 C3507 1.363 . S
C3510 N3508 1.356 . S
C3511 C3505 1.363 . S
C3511 C3506 1.379 . S
C3511 N3509 1.356 . S
N3512 C3504 1.356 . S
N3512 H3518 0.984 . S
N3512 H3519 0.984 . S
N3513 C3506 1.356 1_556 S
N3513 H3516 0.984 . S
N3513 H3517 0.985 . S
H3514 N3509 0.984 . S
H3515 N3509 0.985 1_556 S
H3516 N3513 0.984 . S
H3517 N3513 0.985 . S
H3518 N3512 0.984 . S
H3519 N3512 0.984 . S
H3520 N3508 0.984 . S
H3521 N3508 0.985 . S
C3522 C3523 1.363 . S
C3522 C3528 1.379 . S
C3522 N3530 1.356 . S
C3523 C3522 1.363 . S
C3523 C3529 1.363 1_554 S
C3524 C3525 1.363 . S
C3524 C3529 1.379 1_554 S
C3524 N3531 1.356 1_554 S
C3525 C3524 1.363 . S
C3525 C3528 1.363 . S
N3526 C3528 1.356 . S
N3526 H3538 0.984 . S
N3526 H3539 0.985 . S
N3527 C3529 1.356 . S
N3527 H3532 0.984 . S
N3527 H3533 0.985 . S
C3528 C3522 1.379 . S
C3528 C3525 1.363 . S
C3528 N3526 1.356 . S
C3529 C3523 1.363 1_556 S
C3529 C3524 1.379 1_556 S
C3529 N3527 1.356 . S
N3530 C3522 1.356 . S
N3530 H3536 0.984 . S
N3530 H3537 0.984 . S
N3531 C3524 1.356 1_556 S
N3531 H3534 0.984 1_556 S
N3531 H3535 0.985 . S
H3532 N3527 0.984 . S
H3533 N3527 0.985 . S
H3534 N3531 0.984 1_554 S
H3535 N3531 0.985 . S
H3536 N3530 0.984 . S
H3537 N3530 0.984 . S
H3538 N3526 0.984 . S
H3539 N3526 0.985 . S
C3540 C3541 1.363 . S
C3540 C3546 1.379 . S
C3540 N3548 1.356 . S
C3541 C3540 1.363 . S
C3541 C3547 1.363 . S
C3542 C3543 1.363 . S
C3542 C3547 1.379 . S
C3542 N3549 1.356 . S
C3543 C3542 1.363 . S
C3543 C3546 1.363 . S
N3544 C3546 1.356 . S
N3544 H3556 0.984 . S
N3544 H3557 0.985 . S
N3545 C3547 1.356 1_556 S
N3545 H3550 0.984 . S
N3545 H3551 0.985 . S
C3546 C3540 1.379 . S
C3546 C3543 1.363 . S
C3546 N3544 1.356 . S
C3547 C3541 1.363 . S
C3547 C3542 1.379 . S
C3547 N3545 1.356 1_554 S
N3548 C3540 1.356 . S
N3548 H3554 0.984 . S
N3548 H3555 0.984 . S
N3549 C3542 1.356 . S
N3549 H3552 0.984 . S
N3549 H3553 0.985 1_554 S
H3550 N3545 0.984 . S
H3551 N3545 0.985 . S
H3552 N3549 0.984 . S
H3553 N3549 0.985 1_556 S
H3554 N3548 0.984 . S
H3555 N3548 0.984 . S
H3556 N3544 0.984 . S
H3557 N3544 0.985 . S
C3558 C3559 1.380 . S
C3558 C3564 1.389 . S
C3558 N3566 1.332 1_554 S
C3559 C3558 1.380 . S
C3559 C3565 1.363 . S
C3560 C3561 1.363 . S
C3560 C3565 1.379 . S
C3560 N3567 1.356 . S
C3561 C3560 1.363 . S
C3561 C3564 1.363 . S
N3562 C3564 1.366 . S
N3562 H3574 0.959 1_554 S
N3562 H3575 1.001 . S
N3563 C3565 1.356 . S
N3563 H3568 0.984 . S
N3563 H3569 0.985 . S
C3564 C3558 1.389 . S
C3564 C3561 1.363 . S
C3564 N3562 1.366 . S
C3565 C3559 1.363 . S
C3565 C3560 1.379 . S
C3565 N3563 1.356 . S
N3566 C3558 1.332 1_556 S
N3566 H3572 0.984 . S
N3566 H3573 0.984 . S
N3567 C3560 1.356 . S
N3567 H3570 0.984 . S
N3567 H3571 0.985 . S
H3568 N3563 0.984 . S
H3569 N3563 0.985 . S
H3570 N3567 0.984 . S
H3571 N3567 0.985 . S
H3572 N3566 0.984 . S
H3573 N3566 0.984 . S
H3574 N3562 0.959 1_556 S
H3575 N3562 1.001 . S
C3576 C3577 1.363 . S
C3576 C3582 1.379 . S
C3576 N3584 1.356 . S
C3577 C3576 1.363 . S
C3577 C3583 1.363 . S
C3578 C3579 1.363 . S
C3578 C3583 1.379 . S
C3578 N3585 1.356 . S
C3579 C3578 1.363 . S
C3579 C3582 1.363 . S
N3580 C3582 1.356 . S
N3580 H3592 0.984 . S
N3580 H3593 0.985 . S
N3581 C3583 1.356 . S
N3581 H3586 0.984 . S
N3581 H3587 0.985 . S
C3582 C3576 1.379 . S
C3582 C3579 1.363 . S
C3582 N3580 1.356 . S
C3583 C3577 1.363 . S
C3583 C3578 1.379 . S
C3583 N3581 1.356 . S
N3584 C3576 1.356 . S
N3584 H3590 0.984 . S
N3584 H3591 0.984 . S
N3585 C3578 1.356 . S
N3585 H3588 0.984 . S
N3585 H3589 0.985 . S
H3586 N3581 0.984 . S
H3587 N3581 0.985 . S
H3588 N3585 0.984 . S
H3589 N3585 0.985 . S
H3590 N3584 0.984 . S
H3591 N3584 0.984 . S
H3592 N3580 0.984 . S
H3593 N3580 0.985 . S
C3594 C3595 1.363 . S
C3594 C3600 1.379 . S
C3594 N3602 1.356 . S
C3595 C3594 1.363 . S
C3595 C3601 1.363 . S
C3596 C3597 1.363 . S
C3596 C3601 1.379 . S
C3596 N3603 1.356 . S
C3597 C3596 1.363 . S
C3597 C3600 1.363 . S
N3598 C3600 1.356 . S
N3598 H3610 0.984 . S
N3598 H3611 0.985 . S
N3599 C3601 1.356 . S
N3599 H3604 0.984 . S
N3599 H3605 0.985 . S
C3600 C3594 1.379 . S
C3600 C3597 1.363 . S
C3600 N3598 1.356 . S
C3601 C3595 1.363 . S
C3601 C3596 1.379 . S
C3601 N3599 1.356 . S
N3602 C3594 1.356 . S
N3602 H3608 0.984 . S
N3602 H3609 0.984 . S
N3603 C3596 1.356 . S
N3603 H3606 0.984 . S
N3603 H3607 0.985 . S
H3604 N3599 0.984 . S
H3605 N3599 0.985 . S
H3606 N3603 0.984 . S
H3607 N3603 0.985 . S
H3608 N3602 0.984 . S
H3609 N3602 0.984 . S
H3610 N3598 0.984 . S
H3611 N3598 0.985 . S
C3612 C3613 1.363 . S
C3612 C3618 1.379 . S
C3612 N3620 1.356 . S
C3613 C3612 1.363 . S
C3613 C3619 1.363 . S
C3614 C3615 1.363 . S
C3614 C3619 1.379 . S
C3614 N3621 1.356 . S
C3615 C3614 1.363 . S
C3615 C3618 1.363 . S
N3616 C3618 1.356 . S
N3616 H3628 0.984 . S
N3616 H3629 0.985 . S
N3617 C3619 1.356 . S
N3617 H3622 0.984 . S
N3617 H3623 0.985 . S
C3618 C3612 1.379 . S
C3618 C3615 1.363 . S
C3618 N3616 1.356 . S
C3619 C3613 1.363 . S
C3619 C3614 1.379 . S
C3619 N3617 1.356 . S
N3620 C3612 1.356 . S
N3620 H3626 0.984 . S
N3620 H3627 0.984 . S
N3621 C3614 1.356 . S
N3621 H3624 0.984 . S
N3621 H3625 0.985 . S
H3622 N3617 0.984 . S
H3623 N3617 0.985 . S
H3624 N3621 0.984 . S
H3625 N3621 0.985 . S
H3626 N3620 0.984 . S
H3627 N3620 0.984 . S
H3628 N3616 0.984 . S
H3629 N3616 0.985 . S
C3630 C3631 1.363 . S
C3630 C3636 1.379 . S
C3630 N3638 1.356 . S
C3631 C3630 1.363 . S
C3631 C3637 1.363 . S
C3632 C3633 1.363 . S
C3632 C3637 1.379 . S
C3632 N3639 1.356 . S
C3633 C3632 1.363 . S
C3633 C3636 1.363 . S
N3634 C3636 1.356 . S
N3634 H3646 0.984 . S
N3634 H3647 0.985 . S
N3635 C3637 1.356 . S
N3635 H3640 0.984 . S
N3635 H3641 0.985 . S
C3636 C3630 1.379 . S
C3636 C3633 1.363 . S
C3636 N3634 1.356 . S
C3637 C3631 1.363 . S
C3637 C3632 1.379 . S
C3637 N3635 1.356 . S
N3638 C3630 1.356 . S
N3638 H3644 0.984 . S
N3638 H3645 0.984 . S
N3639 C3632 1.356 . S
N3639 H3642 0.984 . S
N3639 H3643 0.985 . S
H3640 N3635 0.984 . S
H3641 N3635 0.985 . S
H3642 N3639 0.984 . S
H3643 N3639 0.985 . S
H3644 N3638 0.984 . S
H3645 N3638 0.984 . S
H3646 N3634 0.984 . S
H3647 N3634 0.985 . S
C3648 C3649 1.363 . S
C3648 C3654 1.379 . S
C3648 N3656 1.356 . S
C3649 C3648 1.363 . S
C3649 C3655 1.363 . S
C3650 C3651 1.363 . S
C3650 C3655 1.379 . S
C3650 N3657 1.356 . S
C3651 C3650 1.363 . S
C3651 C3654 1.363 . S
N3652 C3654 1.356 . S
N3652 H3664 0.984 . S
N3652 H3665 0.985 . S
N3653 C3655 1.356 . S
N3653 H3658 0.984 . S
N3653 H3659 0.985 . S
C3654 C3648 1.379 . S
C3654 C3651 1.363 . S
C3654 N3652 1.356 . S
C3655 C3649 1.363 . S
C3655 C3650 1.379 . S
C3655 N3653 1.356 . S
N3656 C3648 1.356 . S
N3656 H3662 0.984 . S
N3656 H3663 0.984 . S
N3657 C3650 1.356 . S
N3657 H3660 0.984 . S
N3657 H3661 0.985 . S
H3658 N3653 0.984 . S
H3659 N3653 0.985 . S
H3660 N3657 0.984 . S
H3661 N3657 0.985 . S
H3662 N3656 0.984 . S
H3663 N3656 0.984 . S
H3664 N3652 0.984 . S
H3665 N3652 0.985 . S
C3666 C3667 1.363 . S
C3666 C3672 1.379 . S
C3666 N3674 1.356 . S
C3667 C3666 1.363 . S
C3667 C3673 1.363 . S
C3668 C3669 1.363 . S
C3668 C3673 1.379 . S
C3668 N3675 1.356 . S
C3669 C3668 1.363 . S
C3669 C3672 1.363 . S
N3670 C3672 1.356 . S
N3670 H3682 0.984 . S
N3670 H3683 0.985 . S
N3671 C3673 1.356 . S
N3671 H3676 0.984 . S
N3671 H3677 0.985 . S
C3672 C3666 1.379 . S
C3672 C3669 1.363 . S
C3672 N3670 1.356 . S
C3673 C3667 1.363 . S
C3673 C3668 1.379 . S
C3673 N3671 1.356 . S
N3674 C3666 1.356 . S
N3674 H3680 0.984 . S
N3674 H3681 0.984 . S
N3675 C3668 1.356 . S
N3675 H3678 0.984 . S
N3675 H3679 0.985 . S
H3676 N3671 0.984 . S
H3677 N3671 0.985 . S
H3678 N3675 0.984 . S
H3679 N3675 0.985 . S
H3680 N3674 0.984 . S
H3681 N3674 0.984 . S
H3682 N3670 0.984 . S
H3683 N3670 0.985 . S
C3684 C3685 1.363 . S
C3684 C3690 1.379 . S
C3684 N3692 1.356 . S
C3685 C3684 1.363 . S
C3685 C3691 1.363 . S
C3686 C3687 1.363 . S
C3686 C3691 1.379 . S
C3686 N3693 1.356 . S
C3687 C3686 1.363 . S
C3687 C3690 1.363 . S
N3688 C3690 1.356 . S
N3688 H3700 0.984 . S
N3688 H3701 0.985 . S
N3689 C3691 1.356 . S
N3689 H3694 0.984 . S
N3689 H3695 0.985 . S
C3690 C3684 1.379 . S
C3690 C3687 1.363 . S
C3690 N3688 1.356 . S
C3691 C3685 1.363 . S
C3691 C3686 1.379 . S
C3691 N3689 1.356 . S
N3692 C3684 1.356 . S
N3692 H3698 0.984 . S
N3692 H3699 0.984 . S
N3693 C3686 1.356 . S
N3693 H3696 0.984 . S
N3693 H3697 0.985 . S
H3694 N3689 0.984 . S
H3695 N3689 0.985 . S
H3696 N3693 0.984 . S
H3697 N3693 0.985 . S
H3698 N3692 0.984 . S
H3699 N3692 0.984 . S
H3700 N3688 0.984 . S
H3701 N3688 0.985 . S
C3702 C3703 1.363 . S
C3702 C3708 1.379 . S
C3702 N3710 1.356 . S
C3703 C3702 1.363 . S
C3703 C3709 1.363 . S
C3704 C3705 1.363 . S
C3704 C3709 1.379 . S
C3704 N3711 1.356 . S
C3705 C3704 1.363 . S
C3705 C3708 1.363 . S
N3706 C3708 1.356 . S
N3706 H3718 0.984 . S
N3706 H3719 0.985 . S
N3707 C3709 1.356 . S
N3707 H3712 0.984 . S
N3707 H3713 0.985 . S
C3708 C3702 1.379 . S
C3708 C3705 1.363 . S
C3708 N3706 1.356 . S
C3709 C3703 1.363 . S
C3709 C3704 1.379 . S
C3709 N3707 1.356 . S
N3710 C3702 1.356 . S
N3710 H3716 0.984 . S
N3710 H3717 0.984 . S
N3711 C3704 1.356 . S
N3711 H3714 0.984 . S
N3711 H3715 0.985 . S
H3712 N3707 0.984 . S
H3713 N3707 0.985 . S
H3714 N3711 0.984 . S
H3715 N3711 0.985 . S
H3716 N3710 0.984 . S
H3717 N3710 0.984 . S
H3718 N3706 0.984 . S
H3719 N3706 0.985 . S
C3720 C3721 1.363 . S
C3720 C3726 1.379 . S
C3720 N3728 1.356 . S
C3721 C3720 1.363 . S
C3721 C3727 1.363 . S
C3722 C3723 1.363 . S
C3722 C3727 1.379 . S
C3722 N3729 1.356 . S
C3723 C3722 1.363 . S
C3723 C3726 1.363 . S
N3724 C3726 1.356 . S
N3724 H3736 0.984 . S
N3724 H3737 0.985 . S
N3725 C3727 1.356 . S
N3725 H3730 0.984 . S
N3725 H3731 0.985 . S
C3726 C3720 1.379 . S
C3726 C3723 1.363 . S
C3726 N3724 1.356 . S
C3727 C3721 1.363 . S
C3727 C3722 1.379 . S
C3727 N3725 1.356 . S
N3728 C3720 1.356 . S
N3728 H3734 0.984 . S
N3728 H3735 0.984 . S
N3729 C3722 1.356 . S
N3729 H3732 0.984 . S
N3729 H3733 0.985 . S
H3730 N3725 0.984 . S
H3731 N3725 0.985 . S
H3732 N3729 0.984 . S
H3733 N3729 0.985 . S
H3734 N3728 0.984 . S
H3735 N3728 0.984 . S
H3736 N3724 0.984 . S
H3737 N3724 0.985 . S
C3738 C3739 1.363 . S
C3738 C3744 1.379 . S
C3738 N3746 1.356 . S
C3739 C3738 1.363 . S
C3739 C3745 1.363 . S
C3740 C3741 1.363 . S
C3740 C3745 1.379 . S
C3740 N3747 1.356 . S
C3741 C3740 1.363 . S
C3741 C3744 1.363 . S
N3742 C3744 1.356 . S
N3742 H3754 0.984 . S
N3742 H3755 0.985 . S
N3743 C3745 1.356 . S
N3743 H3748 0.984 . S
N3743 H3749 0.985 . S
C3744 C3738 1.379 . S
C3744 C3741 1.363 . S
C3744 N3742 1.356 . S
C3745 C3739 1.363 . S
C3745 C3740 1.379 . S
C3745 N3743 1.356 . S
N3746 C3738 1.356 . S
N3746 H3752 0.984 . S
N3746 H3753 0.984 . S
N3747 C3740 1.356 . S
N3747 H3750 0.984 . S
N3747 H3751 0.985 . S
H3748 N3743 0.984 . S
H3749 N3743 0.985 . S
H3750 N3747 0.984 . S
H3751 N3747 0.985 . S
H3752 N3746 0.984 . S
H3753 N3746 0.984 . S
H3754 N3742 0.984 . S
H3755 N3742 0.985 . S
C3756 C3757 1.363 . S
C3756 C3762 1.379 . S
C3756 N3764 1.356 . S
C3757 C3756 1.363 . S
C3757 C3763 1.363 . S
C3758 C3759 1.363 . S
C3758 C3763 1.379 . S
C3758 N3765 1.356 . S
C3759 C3758 1.363 . S
C3759 C3762 1.363 . S
N3760 C3762 1.356 . S
N3760 H3772 0.984 . S
N3760 H3773 0.985 . S
N3761 C3763 1.356 . S
N3761 H3766 0.984 . S
N3761 H3767 0.985 . S
C3762 C3756 1.379 . S
C3762 C3759 1.363 . S
C3762 N3760 1.356 . S
C3763 C3757 1.363 . S
C3763 C3758 1.379 . S
C3763 N3761 1.356 . S
N3764 C3756 1.356 . S
N3764 H3770 0.984 . S
N3764 H3771 0.984 . S
N3765 C3758 1.356 . S
N3765 H3768 0.984 . S
N3765 H3769 0.985 . S
H3766 N3761 0.984 . S
H3767 N3761 0.985 . S
H3768 N3765 0.984 . S
H3769 N3765 0.985 . S
H3770 N3764 0.984 . S
H3771 N3764 0.984 . S
H3772 N3760 0.984 . S
H3773 N3760 0.985 . S
C3774 C3775 1.363 . S
C3774 C3780 1.379 . S
C3774 N3782 1.356 . S
C3775 C3774 1.363 . S
C3775 C3781 1.363 . S
C3776 C3777 1.363 . S
C3776 C3781 1.379 . S
C3776 N3783 1.356 . S
C3777 C3776 1.363 . S
C3777 C3780 1.363 . S
N3778 C3780 1.356 . S
N3778 H3790 0.984 . S
N3778 H3791 0.985 . S
N3779 C3781 1.356 . S
N3779 H3784 0.984 . S
N3779 H3785 0.985 . S
C3780 C3774 1.379 . S
C3780 C3777 1.363 . S
C3780 N3778 1.356 . S
C3781 C3775 1.363 . S
C3781 C3776 1.379 . S
C3781 N3779 1.356 . S
N3782 C3774 1.356 . S
N3782 H3788 0.984 . S
N3782 H3789 0.984 . S
N3783 C3776 1.356 . S
N3783 H3786 0.984 . S
N3783 H3787 0.985 . S
H3784 N3779 0.984 . S
H3785 N3779 0.985 . S
H3786 N3783 0.984 . S
H3787 N3783 0.985 . S
H3788 N3782 0.984 . S
H3789 N3782 0.984 . S
H3790 N3778 0.984 . S
H3791 N3778 0.985 . S
C1633 C1501 1.289 . S
C1635 C5 1.289 . S
C1651 C1399 1.289 . S
C1653 C39 1.289 . S
C1669 C1433 1.289 . S
C1671 C73 1.289 . S
C1687 C107 1.289 . S
C1689 C1467 1.289 . S
C1705 C141 1.289 . S
C1707 C1603 1.289 . S
C1723 C175 1.289 . S
C1725 C1535 1.289 . S
C1741 C209 1.289 . S
C1743 C1569 1.289 . S
C1759 C1365 1.289 . S
C1761 C243 1.289 . S
C1777 C1331 1.289 . S
C1779 C277 1.289 . S
C1795 C311 1.289 . S
C1797 C1229 1.289 . S
C1813 C345 1.289 . S
C1815 C1263 1.289 . S
C1831 C1297 1.289 . S
C1833 C379 1.289 . S
C1849 C413 1.289 . S
C1851 C1127 1.289 . S
C1867 C447 1.289 . S
C1869 C1161 1.289 . S
C1885 C1195 1.289 . S
C1887 C481 1.289 . S
C1903 C515 1.289 . S
C1905 C1093 1.289 . S
C1921 C549 1.289 . S
C1923 C1059 1.289 . S
C1939 C855 1.289 . S
C1941 C583 1.289 . S
C1957 C889 1.289 . S
C1959 C617 1.289 . S
C1975 C651 1.289 . S
C1977 C923 1.289 . S
C1993 C821 1.289 . S
C1995 C685 1.289 . S
C2011 C719 1.289 . S
C2013 C991 1.289 . S
C2029 C1025 1.289 . S
C2031 C753 1.289 . S
C2047 C787 1.289 . S
C2049 C957 1.289 . S
C2065 C138 2.307 . S
C2067 C1430 2.307 . S
C2083 C1464 2.307 . S
C2085 C172 2.307 . S
C2101 C206 2.307 . S
C2103 C1498 2.307 . S
C2119 C1396 2.307 . S
C2121 C240 2.307 . S
C2137 C1566 2.307 . S
C2139 C2 2.307 . S
C2155 C36 2.307 . S
C2157 C1362 2.307 . S
C2173 C1600 2.307 . S
C2175 C70 2.307 . S
C2191 C1532 2.307 . S
C2193 C104 2.307 . S
C2209 C1124 2.307 . S
C2211 C478 2.307 . S
C2227 C512 2.307 . S
C2229 C1158 2.307 . S
C2245 C1192 2.307 . S
C2247 C410 2.307 . S
C2263 C444 2.307 . S
C2265 C1090 2.307 . S
C2281 C1328 2.307 . S
C2283 C342 2.307 . S
C2299 C1226 2.307 . S
C2301 C376 2.307 . S
C2317 C1260 2.307 . S
C2319 C274 2.307 . S
C2335 C1294 2.307 . S
C2337 C308 2.307 . S
C2353 C920 2.307 . S
C2355 C716 2.307 . S
C2371 C648 2.307 . S
C2373 C988 2.307 . S
C2389 C682 2.307 . S
C2391 C1022 2.307 . S
C2407 C1056 2.307 . S
C2409 C580 2.307 . S
C2425 C614 2.307 . S
C2427 C954 2.307 . S
C2443 C852 2.307 . S
C2445 C546 2.307 . S
C2461 C784 2.307 . S
C2463 C886 2.307 . S
C2479 C818 2.307 . S
C2481 C750 2.307 . S
C2497 C111 1.658 . S
C2499 C20 1.641 . S
C2515 C9 1.658 . S
C2517 C54 1.641 . S
C2533 C88 1.641 . S
C2535 C43 1.658 . S
C2551 C122 1.641 . S
C2553 C77 1.658 . S
C2569 C179 1.658 . S
C2571 C156 1.641 . S
C2587 C190 1.641 . S
C2589 C213 1.658 . S
C2605 C224 1.641 . S
C2607 C247 1.658 . S
C2623 C145 1.658 . S
C2625 C258 1.641 . S
C2641 C621 1.658 . S
C2643 C292 1.641 . S
C2659 C655 1.658 . S
C2661 C326 1.641 . S
C2677 C689 1.658 . S
C2679 C360 1.641 . S
C2695 C394 1.641 . S
C2697 C587 1.658 . S
C2713 C757 1.658 . S
C2715 C428 1.641 . S
C2731 C462 1.641 . S
C2733 C553 1.658 . S
C2749 C496 1.641 . S
C2751 C791 1.658 . S
C2767 C723 1.658 . S
C2769 C530 1.641 . S
C2785 C564 1.641 . S
C2787 C315 1.658 . S
C2803 C519 1.658 . S
C2805 C598 1.641 . S
C2821 C632 1.641 . S
C2823 C417 1.658 . S
C2839 C451 1.658 . S
C2841 C666 1.641 . S
C2857 C700 1.641 . S
C2859 C485 1.658 . S
C2875 C383 1.658 . S
C2877 C734 1.641 . S
C2893 C281 1.658 . S
C2895 C768 1.641 . S
C2911 C802 1.641 . S
C2913 C349 1.658 . S
C2929 C836 1.641 . S
C2931 C927 1.658 . S
C2947 C870 1.641 . S
C2949 C825 1.658 . S
C2965 C859 1.658 . S
C2967 C904 1.641 . S
C2983 C893 1.658 . S
C2985 C938 1.641 . S
C3001 C972 1.641 . S
C3003 C995 1.658 . S
C3019 C1006 1.641 . S
C3021 C1029 1.658 . S
C3037 C1040 1.641 . S
C3039 C1063 1.658 . S
C3055 C961 1.658 . S
C3057 C1074 1.641 . S
C3073 C1437 1.658 . S
C3075 C1108 1.641 . S
C3091 C1471 1.658 . S
C3093 C1142 1.641 . S
C3109 C1176 1.641 . S
C3111 C1505 1.658 . S
C3127 C1403 1.658 . S
C3129 C1210 1.641 . S
C3145 C1244 1.641 . S
C3147 C1573 1.658 . S
C3163 C1369 1.658 . S
C3165 C1278 1.641 . S
C3181 C1607 1.658 . S
C3183 C1312 1.641 . S
C3199 C1346 1.641 . S
C3201 C1539 1.658 . S
C3217 C1131 1.658 . S
C3219 C1380 1.641 . S
C3235 C1414 1.641 . S
C3237 C1335 1.658 . S
C3253 C1448 1.641 . S
C3255 C1233 1.658 . S
C3271 C1482 1.641 . S
C3273 C1267 1.658 . S
C3289 C1516 1.641 . S
C3291 C1301 1.658 . S
C3307 C1550 1.641 . S
C3309 C1199 1.658 . S
C3325 C1097 1.658 . S
C3327 C1584 1.641 . S
C3343 C1165 1.658 . S
C3345 C1618 1.641 . S
C3361 C33 1.601 . S
C3363 C339 1.601 . S
C3379 C373 1.602 . S
C3381 C67 1.602 . S
C3397 C407 1.601 . S
C3399 C101 1.601 . S
C3415 C305 1.601 . S
C3417 C135 1.601 . S
C3433 C169 1.601 . S
C3435 C543 1.601 . S
C3451 C441 1.601 . S
C3453 C203 1.601 . S
C3469 C237 1.602 . S
C3471 C475 1.602 . S
C3487 C271 1.601 . S
C3489 C509 1.601 . S
C3505 C645 1.601 . S
C3507 C577 1.601 . S
C3523 C781 1.602 . S
C3525 C611 1.602 . S
C3541 C815 1.601 . S
C3543 C679 1.601 . S
C3559 C747 1.601 . S
C3561 C713 1.601 . S
C3577 C849 1.601 . S
C3579 C1155 1.601 . S
C3595 C883 1.601 . S
C3597 C1189 1.601 . S
C3613 C1223 1.601 . S
C3615 C917 1.601 . S
C3631 C1121 1.601 . S
C3633 C951 1.601 . S
C3649 C1359 1.601 . S
C3651 C985 1.601 . S
C3667 C1019 1.601 . S
C3669 C1257 1.601 . S
C3685 C1053 1.601 . S
C3687 C1291 1.601 . S
C3703 C1087 1.601 . S
C3705 C1325 1.601 . S
C3721 C1393 1.601 . S
C3723 C1461 1.601 . S
C3739 C1427 1.601 . S
C3741 C1597 1.601 . S
C3757 C1495 1.601 . S
C3759 C1631 1.601 . S
C3775 C1529 1.601 . S
C3777 C1563 1.601 . S
