# Generated by pormake.
# Topology acs-a, (4)-cn, num edge types: 1
# Building blocks:
#     Node 0, Type 0, BuildingBlock: UXUYUI_clean_sbu_0, # of connection points: 4
#     Node 1, Type 0, BuildingBlock: UXUYUI_clean_sbu_0, # of connection points: 4
#     Node 2, Type 0, BuildingBlock: UXUYUI_clean_sbu_0, # of connection points: 4
#     Node 3, Type 0, BuildingBlock: UXUYUI_clean_sbu_0, # of connection points: 4
#     Node 4, Type 0, BuildingBlock: UXUYUI_clean_sbu_0, # of connection points: 4
#     Node 5, Type 0, BuildingBlock: UXUYUI_clean_sbu_0, # of connection points: 4
#     Node 6, Type 0, BuildingBlock: UXUYUI_clean_sbu_0, # of connection points: 4
#     Node 7, Type 0, BuildingBlock: UXUYUI_clean_sbu_0, # of connection points: 4
#     Node 8, Type 0, BuildingBlock: UXUYUI_clean_sbu_0, # of connection points: 4
#     Node 9, Type 0, BuildingBlock: UXUYUI_clean_sbu_0, # of connection points: 4
#     Node 10, Type 0, BuildingBlock: UXUYUI_clean_sbu_0, # of connection points: 4
#     Node 11, Type 0, BuildingBlock: UXUYUI_clean_sbu_0, # of connection points: 4
#     Edge 12, Type (0, 0), BuildingBlock: UVAHIK_clean_linker_0, # of connection points: 2
#     Edge 13, Type (0, 0), BuildingBlock: UVAHIK_clean_linker_0, # of connection points: 2
#     Edge 14, Type (0, 0), BuildingBlock: UVAHIK_clean_linker_0, # of connection points: 2
#     Edge 15, Type (0, 0), BuildingBlock: UVAHIK_clean_linker_0, # of connection points: 2
#     Edge 16, Type (0, 0), BuildingBlock: UVAHIK_clean_linker_0, # of connection points: 2
#     Edge 17, Type (0, 0), BuildingBlock: UVAHIK_clean_linker_0, # of connection points: 2
#     Edge 18, Type (0, 0), BuildingBlock: UVAHIK_clean_linker_0, # of connection points: 2
#     Edge 19, Type (0, 0), BuildingBlock: UVAHIK_clean_linker_0, # of connection points: 2
#     Edge 20, Type (0, 0), BuildingBlock: UVAHIK_clean_linker_0, # of connection points: 2
#     Edge 21, Type (0, 0), BuildingBlock: UVAHIK_clean_linker_0, # of connection points: 2
#     Edge 22, Type (0, 0), BuildingBlock: UVAHIK_clean_linker_0, # of connection points: 2
#     Edge 23, Type (0, 0), BuildingBlock: UVAHIK_clean_linker_0, # of connection points: 2
#     Edge 24, Type (0, 0), BuildingBlock: UVAHIK_clean_linker_0, # of connection points: 2
#     Edge 25, Type (0, 0), BuildingBlock: UVAHIK_clean_linker_0, # of connection points: 2
#     Edge 26, Type (0, 0), BuildingBlock: UVAHIK_clean_linker_0, # of connection points: 2
#     Edge 27, Type (0, 0), BuildingBlock: UVAHIK_clean_linker_0, # of connection points: 2
#     Edge 28, Type (0, 0), BuildingBlock: UVAHIK_clean_linker_0, # of connection points: 2
#     Edge 29, Type (0, 0), BuildingBlock: UVAHIK_clean_linker_0, # of connection points: 2
#     Edge 30, Type (0, 0), BuildingBlock: UVAHIK_clean_linker_0, # of connection points: 2
#     Edge 31, Type (0, 0), BuildingBlock: UVAHIK_clean_linker_0, # of connection points: 2
#     Edge 32, Type (0, 0), BuildingBlock: UVAHIK_clean_linker_0, # of connection points: 2
#     Edge 33, Type (0, 0), BuildingBlock: UVAHIK_clean_linker_0, # of connection points: 2
#     Edge 34, Type (0, 0), BuildingBlock: UVAHIK_clean_linker_0, # of connection points: 2
#     Edge 35, Type (0, 0), BuildingBlock: UVAHIK_clean_linker_0, # of connection points: 2
# Relax obj value: 0.500
# Max RMSD: 0.243
# Mean RMSD: 0.227
data_MOF--net-acs-a--node1-UXUYUI_clean_sbu_0--edge1-UVAHIK_clean_linker_0
_symmetry_space_group_name_H-M    P1
_symmetry_Int_Tables_number       1
_symmetry_cell_setting            triclinic
loop_
_symmetry_equiv_pos_as_xyz
'x, y, z'
_cell_length_a     67.418271
_cell_length_b     83.023476
_cell_length_c     81.555183
_cell_angle_alpha  90.003141
_cell_angle_beta   90.002113
_cell_angle_gamma 110.96794
loop_
_atom_site_label
_atom_site_type_symbol
_atom_site_fract_x
_atom_site_fract_y
_atom_site_fract_z
_atom_type_partial_charge
Li0 Li 0.58586 0.13037 0.08299 0.0
Li1 Li 0.62346 0.1335 0.0844 0.0
Li2 Li 0.59564 0.10562 0.07617 0.0
Li3 Li 0.59905 0.11534 0.10475 0.0
C4 C 0.59918 0.13558 0.05161 0.0
N5 N 0.58795 0.15032 0.02449 0.0
C6 C 0.61165 0.1523 0.04681 0.0
C7 C 0.58116 0.12626 0.04251 0.0
C8 C 0.60567 0.15955 0.03309 0.0
C9 C 0.57571 0.13397 0.02887 0.0
C10 C 0.62055 0.15519 0.10803 0.0
C11 C 0.65047 0.16899 0.12574 0.0
N12 N 0.64914 0.18458 0.12217 0.0
C13 C 0.61935 0.17131 0.10464 0.0
C14 C 0.63611 0.15398 0.11877 0.0
C15 C 0.634 0.18603 0.11187 0.0
C16 C 0.54524 0.13257 0.08156 0.0
N17 N 0.5661 0.14139 0.07832 0.0
C18 C 0.55811 0.16552 0.06856 0.0
C19 C 0.57276 0.15761 0.07203 0.0
C20 C 0.53637 0.15663 0.07161 0.0
C21 C 0.53003 0.1399 0.07817 0.0
H22 H 0.54036 0.11984 0.08688 0.0
H23 H 0.58947 0.16449 0.06984 0.0
C24 C 0.66484 0.13792 0.0767 0.0
N25 N 0.65208 0.1471 0.07963 0.0
C26 C 0.68598 0.14627 0.07226 0.0
C27 C 0.68052 0.17348 0.07364 0.0
C28 C 0.6594 0.16456 0.0781 0.0
C29 C 0.69409 0.16428 0.07065 0.0
H30 H 0.65847 0.12402 0.0775 0.0
H31 H 0.64881 0.17153 0.08006 0.0
C32 C 0.5559 0.09122 0.0892 0.0
N33 N 0.52186 0.06073 0.08493 0.0
C34 C 0.55135 0.07818 0.10099 0.0
C35 C 0.54301 0.08881 0.0753 0.0
C36 C 0.53409 0.06285 0.0986 0.0
C37 C 0.52592 0.07329 0.07334 0.0
C38 C 0.6287 0.09986 0.09977 0.0
C39 C 0.6212 0.08197 0.09767 0.0
C40 C 0.64543 0.10766 0.11063 0.0
C41 C 0.63033 0.07212 0.10673 0.0
C42 C 0.65411 0.09736 0.11948 0.0
N43 N 0.64643 0.07996 0.11737 0.0
C44 C 0.60231 0.09285 0.04661 0.0
C45 C 0.57806 0.07106 0.06299 0.0
C46 C 0.59889 0.08158 0.0334 0.0
N47 N 0.59135 0.08763 0.06081 0.0
C48 C 0.574 0.05936 0.05003 0.0
C49 C 0.58402 0.06476 0.03483 0.0
H50 H 0.61328 0.10598 0.04538 0.0
H51 H 0.57013 0.06701 0.07458 0.0
C52 C 0.59368 0.12106 0.13768 0.0
N53 N 0.59626 0.10915 0.12731 0.0
C54 C 0.59257 0.11824 0.15455 0.0
C55 C 0.59614 0.09066 0.14981 0.0
C56 C 0.59703 0.09398 0.13299 0.0
C57 C 0.59407 0.10298 0.16081 0.0
H58 H 0.59274 0.13288 0.13285 0.0
H59 H 0.59832 0.08443 0.12453 0.0
O60 O 0.60468 0.12832 0.0651 0.0
O61 O 0.60644 0.14064 0.101 0.0
O62 O 0.57265 0.10635 0.0914 0.0
O63 O 0.62 0.1097 0.09097 0.0
H64 H 0.62569 0.15965 0.05369 0.0
H65 H 0.57153 0.11322 0.04593 0.0
H66 H 0.61509 0.17253 0.02929 0.0
H67 H 0.56175 0.12694 0.02174 0.0
H68 H 0.66265 0.16825 0.13403 0.0
H69 H 0.60729 0.17246 0.09648 0.0
H70 H 0.63704 0.14157 0.1217 0.0
H71 H 0.63332 0.1986 0.10929 0.0
H72 H 0.56385 0.17858 0.06387 0.0
H73 H 0.51348 0.1325 0.08063 0.0
H74 H 0.69575 0.13866 0.06975 0.0
H75 H 0.68618 0.1874 0.07261 0.0
H76 H 0.56104 0.07987 0.11187 0.0
H77 H 0.54619 0.0988 0.06612 0.0
H78 H 0.53043 0.05263 0.1076 0.0
H79 H 0.51588 0.07122 0.06261 0.0
H80 H 0.60834 0.07574 0.08926 0.0
H81 H 0.65171 0.12151 0.11216 0.0
H82 H 0.62458 0.05825 0.10531 0.0
H83 H 0.667 0.10322 0.12799 0.0
H84 H 0.60734 0.08615 0.02203 0.0
H85 H 0.56237 0.04651 0.05169 0.0
H86 H 0.59112 0.12812 0.16262 0.0
H87 H 0.59699 0.0786 0.15417 0.0
Li88 Li 0.5166 0.64334 0.58089 0.0
Li89 Li 0.51357 0.62505 0.60564 0.0
Li90 Li 0.51462 0.61412 0.57861 0.0
Li91 Li 0.48314 0.61981 0.58725 0.0
C92 C 0.55496 0.62969 0.58644 0.0
N93 N 0.59016 0.62117 0.57974 0.0
C94 C 0.56073 0.61891 0.59707 0.0
C95 C 0.56729 0.63637 0.57255 0.0
C96 C 0.57852 0.61468 0.59343 0.0
C97 C 0.58498 0.63185 0.56933 0.0
C98 C 0.48499 0.64214 0.61263 0.0
C99 C 0.46111 0.62968 0.63506 0.0
N100 N 0.45836 0.64498 0.63729 0.0
C101 C 0.48188 0.65771 0.6151 0.0
C102 C 0.47449 0.62797 0.62264 0.0
C103 C 0.46837 0.6589 0.62765 0.0
C104 C 0.51148 0.67096 0.565 0.0
N105 N 0.52628 0.66627 0.57294 0.0
C106 C 0.55121 0.69523 0.57189 0.0
C107 C 0.54596 0.6779 0.57633 0.0
C108 C 0.53614 0.70032 0.56363 0.0
C109 C 0.51623 0.68792 0.55995 0.0
H110 H 0.4957 0.66163 0.56308 0.0
H111 H 0.55723 0.67384 0.58301 0.0
C112 C 0.52181 0.61033 0.63484 0.0
N113 N 0.52154 0.62512 0.62789 0.0
C114 C 0.52681 0.61001 0.65143 0.0
C115 C 0.5311 0.64014 0.65333 0.0
C116 C 0.52625 0.63992 0.63668 0.0
C117 C 0.53134 0.62502 0.66097 0.0
H118 H 0.51808 0.59878 0.62749 0.0
H119 H 0.52586 0.65148 0.6308 0.0
C120 C 0.49873 0.63146 0.55055 0.0
N121 N 0.50014 0.64472 0.51932 0.0
C122 C 0.47993 0.63014 0.54247 0.0
C123 C 0.51823 0.63942 0.5427 0.0
C124 C 0.48098 0.63695 0.5267 0.0
C125 C 0.51862 0.64607 0.52693 0.0
C126 C 0.48207 0.58627 0.59256 0.0
C127 C 0.47326 0.58279 0.57683 0.0
C128 C 0.4785 0.57277 0.60374 0.0
C129 C 0.46103 0.56584 0.57258 0.0
C130 C 0.46615 0.55599 0.59901 0.0
N131 N 0.45776 0.5529 0.58366 0.0
C132 C 0.52746 0.58561 0.57542 0.0
C133 C 0.52008 0.59646 0.55019 0.0
C134 C 0.52919 0.57126 0.56753 0.0
N135 N 0.52264 0.59769 0.56672 0.0
C136 C 0.52154 0.58229 0.54182 0.0
C137 C 0.52559 0.56921 0.55055 0.0
H138 H 0.52879 0.58663 0.58862 0.0
H139 H 0.51561 0.60587 0.54359 0.0
C140 C 0.44808 0.62794 0.58004 0.0
N141 N 0.45337 0.61486 0.5863 0.0
C142 C 0.42691 0.62661 0.57935 0.0
C143 C 0.41686 0.59831 0.59163 0.0
C144 C 0.43833 0.60026 0.59221 0.0
C145 C 0.4109 0.61163 0.58516 0.0
H146 H 0.46046 0.63956 0.57582 0.0
H147 H 0.44293 0.59023 0.59758 0.0
O148 O 0.53748 0.63383 0.58974 0.0
O149 O 0.49789 0.6407 0.60022 0.0
O150 O 0.49799 0.62514 0.56613 0.0
O151 O 0.49468 0.60267 0.59692 0.0
H152 H 0.55143 0.61371 0.60792 0.0
H153 H 0.56334 0.64504 0.5644 0.0
H154 H 0.58306 0.60623 0.60148 0.0
H155 H 0.59462 0.63687 0.55859 0.0
H156 H 0.45288 0.61883 0.6429 0.0
H157 H 0.4898 0.66875 0.60736 0.0
H158 H 0.47656 0.61576 0.62081 0.0
H159 H 0.46582 0.67089 0.62972 0.0
H160 H 0.56659 0.70458 0.57515 0.0
H161 H 0.50403 0.6915 0.55401 0.0
H162 H 0.52712 0.59813 0.65669 0.0
H163 H 0.5341 0.65194 0.66019 0.0
H164 H 0.46469 0.62389 0.54831 0.0
H165 H 0.53289 0.6405 0.54877 0.0
H166 H 0.46655 0.63605 0.52031 0.0
H167 H 0.53361 0.65233 0.52074 0.0
H168 H 0.47584 0.593 0.56797 0.0
H169 H 0.48527 0.57523 0.61592 0.0
H170 H 0.45416 0.56296 0.56045 0.0
H171 H 0.46328 0.54542 0.60754 0.0
H172 H 0.53252 0.56157 0.57474 0.0
H173 H 0.51821 0.58113 0.52879 0.0
H174 H 0.42321 0.6374 0.57465 0.0
H175 H 0.4051 0.58652 0.59621 0.0
Li176 Li 0.86543 0.36405 0.08566 0.0
Li177 Li 0.89459 0.36657 0.10424 0.0
Li178 Li 0.90213 0.37858 0.07659 0.0
Li179 Li 0.88965 0.34828 0.08154 0.0
C180 C 0.88155 0.39919 0.09025 0.0
N181 N 0.87107 0.42733 0.08162 0.0
C182 C 0.8829 0.41195 0.10182 0.0
C183 C 0.87479 0.4007 0.0743 0.0
C184 C 0.87755 0.42609 0.09722 0.0
C185 C 0.86959 0.41503 0.07018 0.0
C186 C 0.86273 0.33906 0.11477 0.0
C187 C 0.86941 0.32675 0.14005 0.0
N188 N 0.85023 0.32609 0.14586 0.0
C189 C 0.84297 0.33803 0.12092 0.0
C190 C 0.87594 0.33313 0.12434 0.0
C191 C 0.83697 0.33152 0.13668 0.0
C192 C 0.82491 0.36204 0.07163 0.0
N193 N 0.83775 0.36563 0.08505 0.0
C194 C 0.81303 0.37478 0.09988 0.0
C195 C 0.83223 0.37203 0.09896 0.0
C196 C 0.79923 0.37088 0.08633 0.0
C197 C 0.80543 0.36441 0.07207 0.0
H198 H 0.82975 0.35758 0.06047 0.0
H199 H 0.84296 0.37519 0.10933 0.0
C200 C 0.92047 0.36983 0.13262 0.0
N201 N 0.90225 0.37096 0.12653 0.0
C202 C 0.92478 0.372 0.14939 0.0
C203 C 0.89177 0.37687 0.1531 0.0
C204 C 0.88816 0.3747 0.13629 0.0
C205 C 0.9102 0.3754 0.15989 0.0
H206 H 0.93147 0.36702 0.12449 0.0
H207 H 0.87381 0.3755 0.13103 0.0
C208 C 0.86452 0.34968 0.05446 0.0
N209 N 0.83567 0.32674 0.03364 0.0
C210 C 0.84997 0.33419 0.06056 0.0
C211 C 0.86436 0.35346 0.03777 0.0
C212 C 0.83555 0.32277 0.04983 0.0
C213 C 0.84963 0.34172 0.02746 0.0
C214 C 0.9298 0.35711 0.08412 0.0
C215 C 0.93918 0.36017 0.0686 0.0
C216 C 0.93297 0.34473 0.09434 0.0
C217 C 0.95149 0.35067 0.06349 0.0
C218 C 0.94536 0.33548 0.08877 0.0
N219 N 0.95427 0.33861 0.07359 0.0
C220 C 0.92852 0.41282 0.07161 0.0
C221 C 0.92121 0.3955 0.04761 0.0
C222 C 0.93928 0.42751 0.06244 0.0
N223 N 0.9194 0.39734 0.06403 0.0
C224 C 0.93227 0.4098 0.038 0.0
C225 C 0.94103 0.42604 0.04544 0.0
H226 H 0.92685 0.41383 0.08472 0.0
H227 H 0.91369 0.38299 0.04197 0.0
C228 C 0.88475 0.31331 0.08399 0.0
N229 N 0.89047 0.32695 0.07356 0.0
C230 C 0.88059 0.29672 0.07803 0.0
C231 C 0.8894 0.30858 0.05077 0.0
C232 C 0.89379 0.32503 0.05734 0.0
C233 C 0.88194 0.29414 0.06111 0.0
H234 H 0.88208 0.31516 0.09677 0.0
H235 H 0.8984 0.33614 0.04932 0.0
O236 O 0.88663 0.38524 0.09466 0.0
O237 O 0.86893 0.34557 0.0994 0.0
O238 O 0.87931 0.36089 0.06455 0.0
O239 O 0.91723 0.36596 0.08914 0.0
H240 H 0.88802 0.41092 0.11423 0.0
H241 H 0.87355 0.39092 0.06519 0.0
H242 H 0.87853 0.43608 0.10604 0.0
H243 H 0.86436 0.41637 0.05788 0.0
H244 H 0.87962 0.32236 0.14766 0.0
H245 H 0.83227 0.34208 0.11356 0.0
H246 H 0.89129 0.33382 0.11982 0.0
H247 H 0.82175 0.33073 0.1416 0.0
H248 H 0.80924 0.38017 0.11101 0.0
H249 H 0.7953 0.36111 0.06134 0.0
H250 H 0.93932 0.37099 0.15408 0.0
H251 H 0.87991 0.37919 0.16072 0.0
H252 H 0.84979 0.33096 0.0734 0.0
H253 H 0.87555 0.36535 0.03284 0.0
H254 H 0.82427 0.31073 0.05437 0.0
H255 H 0.84934 0.3445 0.01452 0.0
H256 H 0.93683 0.36965 0.06052 0.0
H257 H 0.92572 0.34211 0.10634 0.0
H258 H 0.95876 0.35283 0.05147 0.0
H259 H 0.94783 0.32578 0.0965 0.0
H260 H 0.94599 0.43989 0.06851 0.0
H261 H 0.93332 0.40832 0.02486 0.0
H262 H 0.87455 0.28592 0.08639 0.0
H263 H 0.89058 0.30707 0.03765 0.0
Li264 Li 0.40259 0.88766 0.57408 0.0
Li265 Li 0.40017 0.87893 0.60369 0.0
Li266 Li 0.40871 0.86126 0.58139 0.0
Li267 Li 0.37463 0.8637 0.58372 0.0
C268 C 0.44296 0.89947 0.59119 0.0
N269 N 0.47866 0.92846 0.59665 0.0
C270 C 0.44137 0.91341 0.59998 0.0
C271 C 0.4627 0.90028 0.58516 0.0
C272 C 0.4596 0.92794 0.60263 0.0
C273 C 0.48056 0.91505 0.58804 0.0
C274 C 0.36213 0.88881 0.59309 0.0
C275 C 0.33153 0.88487 0.61016 0.0
N276 N 0.32161 0.88915 0.59726 0.0
C277 C 0.35171 0.8933 0.58005 0.0
C278 C 0.35202 0.88464 0.6083 0.0
C279 C 0.3312 0.89334 0.58238 0.0
C280 C 0.39514 0.90249 0.54574 0.0
N281 N 0.40919 0.90567 0.55838 0.0
C282 C 0.43153 0.93175 0.54573 0.0
C283 C 0.42701 0.92007 0.55871 0.0
C284 C 0.41768 0.92843 0.53226 0.0
C285 C 0.39915 0.91371 0.53242 0.0
H286 H 0.38111 0.8909 0.54578 0.0
H287 H 0.43809 0.92233 0.5687 0.0
C288 C 0.41097 0.87497 0.63594 0.0
N289 N 0.40496 0.88544 0.6259 0.0
C290 C 0.41248 0.87791 0.6528 0.0
C291 C 0.40235 0.90276 0.64856 0.0
C292 C 0.40089 0.89925 0.63178 0.0
C293 C 0.40782 0.89182 0.65935 0.0
H294 H 0.41388 0.86398 0.63086 0.0
H295 H 0.39596 0.90728 0.62349 0.0
C296 C 0.40134 0.86489 0.54899 0.0
N297 N 0.42246 0.86541 0.51983 0.0
C298 C 0.39028 0.85589 0.53535 0.0
C299 C 0.42316 0.87416 0.54778 0.0
C300 C 0.40124 0.8563 0.52072 0.0
C301 C 0.43354 0.87427 0.53294 0.0
C302 C 0.3753 0.83735 0.60322 0.0
C303 C 0.36928 0.82518 0.5906 0.0
C304 C 0.36733 0.83271 0.61903 0.0
C305 C 0.35525 0.80851 0.59401 0.0
C306 C 0.35334 0.8159 0.62195 0.0
N307 N 0.34763 0.80425 0.60948 0.0
C308 C 0.44381 0.85106 0.58525 0.0
C309 C 0.4191 0.835 0.56526 0.0
C310 C 0.45707 0.84184 0.58194 0.0
N311 N 0.42531 0.84756 0.57687 0.0
C312 C 0.43184 0.82544 0.56158 0.0
C313 C 0.45113 0.82883 0.56996 0.0
H314 H 0.44825 0.86107 0.5945 0.0
H315 H 0.40434 0.8325 0.55874 0.0
C316 C 0.33739 0.85169 0.56515 0.0
N317 N 0.34494 0.85206 0.58065 0.0
C318 C 0.31559 0.8448 0.56214 0.0
C319 C 0.30977 0.83878 0.59112 0.0
C320 C 0.33167 0.84578 0.59356 0.0
C321 C 0.30148 0.8383 0.57525 0.0
H322 H 0.3483 0.85716 0.55519 0.0
H323 H 0.33803 0.84661 0.60582 0.0
O324 O 0.42539 0.88501 0.58867 0.0
O325 O 0.38204 0.88832 0.59095 0.0
O326 O 0.39066 0.86456 0.56335 0.0
O327 O 0.38884 0.85378 0.6001 0.0
H328 H 0.42617 0.91316 0.6044 0.0
H329 H 0.46422 0.88962 0.57829 0.0
H330 H 0.45858 0.93885 0.60935 0.0
H331 H 0.49593 0.91586 0.58343 0.0
H332 H 0.32345 0.88153 0.62182 0.0
H333 H 0.35929 0.89657 0.5682 0.0
H334 H 0.35973 0.8809 0.61848 0.0
H335 H 0.32288 0.89667 0.57235 0.0
H336 H 0.44616 0.94286 0.54591 0.0
H337 H 0.38807 0.91078 0.52226 0.0
H338 H 0.41641 0.86896 0.66064 0.0
H339 H 0.39888 0.91374 0.65305 0.0
H340 H 0.3734 0.84862 0.53607 0.0
H341 H 0.43203 0.88122 0.55814 0.0
H342 H 0.39287 0.84938 0.51007 0.0
H343 H 0.45041 0.8814 0.53185 0.0
H344 H 0.37513 0.82865 0.57826 0.0
H345 H 0.3718 0.84203 0.62891 0.0
H346 H 0.35035 0.79897 0.58434 0.0
H347 H 0.34699 0.81212 0.63411 0.0
H348 H 0.47165 0.8447 0.58885 0.0
H349 H 0.42676 0.81564 0.55214 0.0
H350 H 0.30984 0.84484 0.54975 0.0
H351 H 0.29947 0.83373 0.60154 0.0
Li352 Li 0.48616 0.36646 0.10803 0.0
Li353 Li 0.48416 0.34657 0.08514 0.0
Li354 Li 0.51776 0.36981 0.09183 0.0
Li355 Li 0.48779 0.37561 0.07957 0.0
C356 C 0.50007 0.34212 0.12015 0.0
N357 N 0.49669 0.3263 0.15037 0.0
C358 C 0.48622 0.3251 0.12227 0.0
C359 C 0.51229 0.35106 0.13338 0.0
C360 C 0.48473 0.31733 0.13765 0.0
C361 C 0.51031 0.34285 0.14856 0.0
C362 C 0.44752 0.36262 0.08595 0.0
C363 C 0.42256 0.36369 0.0652 0.0
N364 N 0.41609 0.37407 0.07507 0.0
C365 C 0.44057 0.37322 0.09593 0.0
C366 C 0.43841 0.35772 0.0705 0.0
C367 C 0.42467 0.3789 0.09019 0.0
C368 C 0.48321 0.38534 0.13584 0.0
N369 N 0.4768 0.36914 0.12953 0.0
C370 C 0.46074 0.35718 0.155 0.0
C371 C 0.46501 0.35523 0.13852 0.0
C372 C 0.46812 0.37369 0.16218 0.0
C373 C 0.47888 0.38794 0.15215 0.0
H374 H 0.49205 0.39624 0.12829 0.0
H375 H 0.4596 0.34253 0.13307 0.0
C376 C 0.48962 0.31639 0.07767 0.0
N377 N 0.47413 0.32323 0.07835 0.0
C378 C 0.48495 0.29949 0.07251 0.0
C379 C 0.44808 0.29652 0.06963 0.0
C380 C 0.4536 0.31376 0.07453 0.0
C381 C 0.464 0.28936 0.06842 0.0
H382 H 0.50569 0.32416 0.08113 0.0
H383 H 0.44158 0.31953 0.07536 0.0
C384 C 0.52396 0.40178 0.10033 0.0
N385 N 0.5612 0.42976 0.1043 0.0
C386 C 0.5312 0.41403 0.08785 0.0
C387 C 0.5356 0.40379 0.11485 0.0
C388 C 0.55007 0.42809 0.0901 0.0
C389 C 0.55442 0.41801 0.11661 0.0
C390 C 0.50658 0.35284 0.05752 0.0
C391 C 0.52516 0.34917 0.05577 0.0
C392 C 0.48965 0.34544 0.04672 0.0
C393 C 0.52639 0.338 0.04333 0.0
C394 C 0.49149 0.33431 0.03445 0.0
N395 N 0.50966 0.33084 0.03303 0.0
C396 C 0.55536 0.36605 0.10243 0.0
C397 C 0.56081 0.38767 0.08217 0.0
C398 C 0.57699 0.36881 0.10272 0.0
N399 N 0.54773 0.37548 0.09233 0.0
C400 C 0.58265 0.39092 0.08211 0.0
C401 C 0.59099 0.38136 0.09245 0.0
H402 H 0.5446 0.35604 0.10996 0.0
H403 H 0.55424 0.39464 0.07391 0.0
C404 C 0.47744 0.40459 0.07228 0.0
N405 N 0.48149 0.39118 0.06539 0.0
C406 C 0.47619 0.41795 0.06248 0.0
C407 C 0.48235 0.40305 0.03864 0.0
C408 C 0.48358 0.39 0.04892 0.0
C409 C 0.4792 0.41748 0.04547 0.0
H410 H 0.47619 0.40527 0.08546 0.0
H411 H 0.48721 0.37938 0.04382 0.0
O412 O 0.50167 0.34998 0.10521 0.0
O413 O 0.46337 0.35724 0.09121 0.0
O414 O 0.50567 0.3878 0.0983 0.0
O415 O 0.50492 0.36349 0.06982 0.0
H416 H 0.47658 0.318 0.11221 0.0
H417 H 0.52305 0.36425 0.13196 0.0
H418 H 0.47402 0.30419 0.13948 0.0
H419 H 0.51957 0.34965 0.15892 0.0
H420 H 0.41544 0.36009 0.05323 0.0
H421 H 0.44752 0.37715 0.10791 0.0
H422 H 0.44363 0.34952 0.06264 0.0
H423 H 0.4192 0.38718 0.09774 0.0
H424 H 0.45249 0.34574 0.16214 0.0
H425 H 0.48428 0.40098 0.15688 0.0
H426 H 0.49754 0.29426 0.07206 0.0
H427 H 0.43172 0.28894 0.06671 0.0
H428 H 0.52252 0.41261 0.07646 0.0
H429 H 0.53022 0.39442 0.12462 0.0
H430 H 0.55592 0.43763 0.08051 0.0
H431 H 0.56363 0.41969 0.12776 0.0
H432 H 0.53841 0.35474 0.06403 0.0
H433 H 0.4751 0.34803 0.04796 0.0
H434 H 0.54062 0.33497 0.04189 0.0
H435 H 0.47844 0.32837 0.02611 0.0
H436 H 0.58255 0.36078 0.11056 0.0
H437 H 0.59283 0.40072 0.07399 0.0
H438 H 0.47358 0.42881 0.06819 0.0
H439 H 0.48504 0.4023 0.02562 0.0
Li440 Li 0.10166 0.62037 0.60321 0.0
Li441 Li 0.13434 0.6251 0.5876 0.0
Li442 Li 0.11391 0.64419 0.58479 0.0
Li443 Li 0.1006 0.61519 0.57379 0.0
C444 C 0.13243 0.64218 0.6207 0.0
N445 N 0.13807 0.64421 0.6543 0.0
C446 C 0.14742 0.6364 0.62801 0.0
C447 C 0.12042 0.6491 0.63047 0.0
C448 C 0.15003 0.63753 0.64502 0.0
C449 C 0.12345 0.64996 0.64744 0.0
C450 C 0.1011 0.58648 0.58723 0.0
C451 C 0.09851 0.5624 0.5697 0.0
N452 N 0.08061 0.55259 0.57778 0.0
C453 C 0.08273 0.57614 0.5954 0.0
C454 C 0.10914 0.57954 0.57433 0.0
C455 C 0.0726 0.55904 0.59043 0.0
C456 C 0.07109 0.61547 0.62862 0.0
N457 N 0.08858 0.61231 0.62366 0.0
C458 C 0.09118 0.59985 0.64954 0.0
C459 C 0.09832 0.60426 0.63355 0.0
C460 C 0.07366 0.60359 0.65533 0.0
C461 C 0.06329 0.61117 0.64452 0.0
H462 H 0.06354 0.62172 0.62041 0.0
H463 H 0.11218 0.60189 0.62919 0.0
C464 C 0.17955 0.63807 0.58736 0.0
N465 N 0.16187 0.62358 0.58841 0.0
C466 C 0.19968 0.63686 0.58726 0.0
C467 C 0.18307 0.60594 0.59024 0.0
C468 C 0.16327 0.60773 0.59006 0.0
C469 C 0.20158 0.62061 0.58866 0.0
H470 H 0.17798 0.65055 0.58646 0.0
H471 H 0.14901 0.59645 0.59121 0.0
C472 C 0.07315 0.63664 0.58234 0.0
N473 N 0.05141 0.65777 0.57311 0.0
C474 C 0.06517 0.63577 0.56641 0.0
C475 C 0.06999 0.64819 0.5936 0.0
C476 C 0.05422 0.64656 0.56198 0.0
C477 C 0.059 0.65879 0.58868 0.0
C478 C 0.14491 0.63974 0.55864 0.0
C479 C 0.15725 0.65731 0.55783 0.0
C480 C 0.15218 0.62773 0.55116 0.0
C481 C 0.17668 0.66257 0.54957 0.0
C482 C 0.17173 0.63351 0.54305 0.0
N483 N 0.18347 0.65066 0.54243 0.0
C484 C 0.12303 0.67898 0.59312 0.0
C485 C 0.11231 0.67199 0.56553 0.0
C486 C 0.12685 0.69636 0.59017 0.0
N487 N 0.11622 0.66729 0.58081 0.0
C488 C 0.11605 0.68928 0.56199 0.0
C489 C 0.12386 0.70176 0.57434 0.0
H490 H 0.1263 0.67493 0.60507 0.0
H491 H 0.10704 0.66238 0.55595 0.0
C492 C 0.06529 0.58924 0.56031 0.0
N493 N 0.0849 0.60078 0.55679 0.0
C494 C 0.05437 0.57685 0.54878 0.0
C495 C 0.08347 0.58928 0.52984 0.0
C496 C 0.09387 0.60136 0.54179 0.0
C497 C 0.06368 0.57655 0.53341 0.0
H498 H 0.05852 0.58923 0.57234 0.0
H499 H 0.10931 0.61091 0.53923 0.0
O500 O 0.12933 0.64083 0.60409 0.0
O501 O 0.11098 0.60336 0.59167 0.0
O502 O 0.08427 0.62642 0.58681 0.0
O503 O 0.12593 0.63431 0.56682 0.0
H504 H 0.15682 0.63095 0.62068 0.0
H505 H 0.10853 0.65341 0.62506 0.0
H506 H 0.16151 0.63304 0.65085 0.0
H507 H 0.1141 0.65512 0.65516 0.0
H508 H 0.10444 0.55692 0.55964 0.0
H509 H 0.07621 0.58131 0.60534 0.0
H510 H 0.12325 0.5874 0.5678 0.0
H511 H 0.05831 0.55092 0.59659 0.0
H512 H 0.0999 0.59428 0.65746 0.0
H513 H 0.04954 0.61404 0.64838 0.0
H514 H 0.21362 0.6485 0.58627 0.0
H515 H 0.18387 0.59318 0.59131 0.0
H516 H 0.06757 0.62697 0.55752 0.0
H517 H 0.07628 0.64918 0.60591 0.0
H518 H 0.04803 0.64608 0.54968 0.0
H519 H 0.05658 0.66789 0.59722 0.0
H520 H 0.15202 0.66679 0.56367 0.0
H521 H 0.143 0.61408 0.55183 0.0
H522 H 0.18641 0.67611 0.5489 0.0
H523 H 0.17761 0.62435 0.53732 0.0
H524 H 0.1333 0.70558 0.59995 0.0
H525 H 0.11355 0.69293 0.54963 0.0
H526 H 0.03924 0.5672 0.55213 0.0
H527 H 0.09101 0.58973 0.51803 0.0
Li528 Li 0.86221 0.3663 0.41039 0.0
Li529 Li 0.89956 0.37577 0.41858 0.0
Li530 Li 0.88856 0.36382 0.39141 0.0
Li531 Li 0.87972 0.34574 0.41605 0.0
C532 C 0.87869 0.39779 0.40001 0.0
N533 N 0.86038 0.4227 0.39928 0.0
C534 C 0.88173 0.40935 0.41306 0.0
C535 C 0.86637 0.39892 0.38658 0.0
C536 C 0.87235 0.42186 0.41245 0.0
C537 C 0.85723 0.4116 0.38645 0.0
C538 C 0.86776 0.35277 0.4452 0.0
C539 C 0.875 0.33841 0.46892 0.0
N540 N 0.85387 0.33186 0.47237 0.0
C541 C 0.84612 0.34596 0.44901 0.0
C542 C 0.88234 0.34905 0.45526 0.0
C543 C 0.83942 0.3354 0.46279 0.0
C544 C 0.82226 0.36622 0.39993 0.0
N545 N 0.83665 0.371 0.41233 0.0
C546 C 0.81484 0.38318 0.4272 0.0
C547 C 0.83336 0.37938 0.4258 0.0
C548 C 0.79987 0.37857 0.41445 0.0
C549 C 0.80375 0.37002 0.40068 0.0
H550 H 0.82517 0.3595 0.38943 0.0
H551 H 0.84516 0.38311 0.43545 0.0
C552 C 0.9356 0.40543 0.41976 0.0
N553 N 0.92115 0.39363 0.4294 0.0
C554 C 0.95064 0.42003 0.42671 0.0
C555 C 0.93561 0.41004 0.4534 0.0
C556 C 0.92094 0.39553 0.44593 0.0
C557 C 0.95051 0.42266 0.44371 0.0
H558 H 0.93502 0.40372 0.4066 0.0
H559 H 0.90889 0.38616 0.45322 0.0
C560 C 0.85464 0.33647 0.38343 0.0
N561 N 0.84323 0.31765 0.35475 0.0
C562 C 0.85512 0.31979 0.38254 0.0
C563 C 0.84837 0.34356 0.36971 0.0
C564 C 0.84926 0.31048 0.36794 0.0
C565 C 0.84267 0.33385 0.35533 0.0
C566 C 0.92939 0.36442 0.40892 0.0
C567 C 0.94282 0.37324 0.39622 0.0
C568 C 0.93803 0.36244 0.42403 0.0
C569 C 0.96472 0.38014 0.39894 0.0
C570 C 0.96001 0.36956 0.42627 0.0
N571 N 0.97279 0.3782 0.41379 0.0
C572 C 0.90165 0.38158 0.36202 0.0
C573 C 0.89821 0.35221 0.36046 0.0
C574 C 0.90653 0.38386 0.3454 0.0
N575 N 0.89704 0.36585 0.36908 0.0
C576 C 0.90269 0.35382 0.34369 0.0
C577 C 0.90652 0.36975 0.33586 0.0
H578 H 0.90132 0.39236 0.36929 0.0
H579 H 0.89501 0.33994 0.36649 0.0
C580 C 0.85422 0.31386 0.42811 0.0
N581 N 0.87476 0.32344 0.42463 0.0
C582 C 0.84892 0.2973 0.43444 0.0
C583 C 0.88597 0.30044 0.43301 0.0
C584 C 0.89062 0.31714 0.42691 0.0
C585 C 0.86487 0.29037 0.43692 0.0
H586 H 0.84192 0.31909 0.42579 0.0
H587 H 0.9068 0.32501 0.42384 0.0
O588 O 0.88715 0.38509 0.40061 0.0
O589 O 0.8746 0.36288 0.43159 0.0
O590 O 0.86027 0.34577 0.39764 0.0
O591 O 0.90789 0.3578 0.40658 0.0
H592 H 0.89101 0.40854 0.42364 0.0
H593 H 0.86363 0.38994 0.37647 0.0
H594 H 0.8745 0.43085 0.42249 0.0
H595 H 0.84754 0.41255 0.37619 0.0
H596 H 0.8861 0.33533 0.47675 0.0
H597 H 0.83459 0.34857 0.44129 0.0
H598 H 0.89913 0.35416 0.45246 0.0
H599 H 0.82271 0.32996 0.46584 0.0
H600 H 0.81237 0.38984 0.43799 0.0
H601 H 0.79242 0.36606 0.3907 0.0
H602 H 0.96197 0.42932 0.4188 0.0
H603 H 0.93467 0.41169 0.46651 0.0
H604 H 0.86003 0.31409 0.39296 0.0
H605 H 0.84842 0.3566 0.36999 0.0
H606 H 0.84958 0.29757 0.36708 0.0
H607 H 0.83796 0.33924 0.34459 0.0
H608 H 0.93641 0.37487 0.38445 0.0
H609 H 0.92786 0.35562 0.43396 0.0
H610 H 0.9753 0.38709 0.38926 0.0
H611 H 0.96691 0.36823 0.43793 0.0
H612 H 0.91006 0.39651 0.34005 0.0
H613 H 0.90244 0.34255 0.33687 0.0
H614 H 0.8324 0.28979 0.43693 0.0
H615 H 0.89864 0.29544 0.43465 0.0
Li616 Li 0.38633 0.87031 0.89069 0.0
Li617 Li 0.39902 0.88608 0.91587 0.0
Li618 Li 0.39701 0.85636 0.91322 0.0
Li619 Li 0.36524 0.86372 0.91577 0.0
C620 C 0.43385 0.87498 0.90073 0.0
N621 N 0.47219 0.86997 0.90248 0.0
C622 C 0.4483 0.88274 0.91324 0.0
C623 C 0.43894 0.8647 0.88909 0.0
C624 C 0.4676 0.88007 0.9139 0.0
C625 C 0.45838 0.86231 0.89021 0.0
C626 C 0.37674 0.90211 0.90221 0.0
C627 C 0.37666 0.92805 0.91548 0.0
N628 N 0.38463 0.93713 0.9016 0.0
C629 C 0.38486 0.91169 0.88805 0.0
C630 C 0.37251 0.91032 0.91602 0.0
C631 C 0.38875 0.92938 0.88799 0.0
C632 C 0.36799 0.87013 0.8592 0.0
N633 N 0.38639 0.87327 0.86764 0.0
C634 C 0.40686 0.88297 0.84332 0.0
C635 C 0.4056 0.87973 0.86011 0.0
C636 C 0.38814 0.87959 0.83422 0.0
C637 C 0.36849 0.87302 0.84232 0.0
H638 H 0.35297 0.86555 0.86561 0.0
H639 H 0.41999 0.88263 0.86718 0.0
C640 C 0.41735 0.91212 0.93958 0.0
N641 N 0.4166 0.90786 0.92347 0.0
C642 C 0.43216 0.92769 0.94504 0.0
C643 C 0.44487 0.93414 0.91716 0.0
C644 C 0.42975 0.91851 0.91224 0.0
C645 C 0.44637 0.93874 0.93378 0.0
H646 H 0.40693 0.90321 0.94823 0.0
H647 H 0.42885 0.91459 0.89953 0.0
C648 C 0.36041 0.83826 0.88685 0.0
N649 N 0.33998 0.82122 0.85905 0.0
C650 C 0.33854 0.83417 0.88497 0.0
C651 C 0.37188 0.83366 0.87458 0.0
C652 C 0.3285 0.82554 0.87084 0.0
C653 C 0.36127 0.82508 0.86061 0.0
C654 C 0.37705 0.86135 0.9459 0.0
C655 C 0.37381 0.84462 0.9513 0.0
C656 C 0.36771 0.87143 0.95441 0.0
C657 C 0.36119 0.83822 0.96512 0.0
C658 C 0.35516 0.86455 0.96814 0.0
N659 N 0.35218 0.84823 0.97317 0.0
C660 C 0.42405 0.84516 0.93255 0.0
C661 C 0.41136 0.8285 0.90856 0.0
C662 C 0.43775 0.83631 0.93579 0.0
N663 N 0.41153 0.84133 0.91895 0.0
C664 C 0.425 0.81949 0.9112 0.0
C665 C 0.43868 0.82361 0.9248 0.0
H666 H 0.42404 0.8556 0.94047 0.0
H667 H 0.4013 0.82576 0.89785 0.0
C668 C 0.32605 0.86677 0.92515 0.0
N669 N 0.33726 0.85605 0.92434 0.0
C670 C 0.30521 0.86069 0.93105 0.0
C671 C 0.30804 0.83275 0.93522 0.0
C672 C 0.32875 0.83936 0.92926 0.0
C673 C 0.2959 0.84342 0.93607 0.0
H674 H 0.33316 0.87995 0.92101 0.0
H675 H 0.33796 0.83109 0.92823 0.0
O676 O 0.41456 0.87695 0.90018 0.0
O677 O 0.37326 0.88483 0.90264 0.0
O678 O 0.37054 0.84675 0.90058 0.0
O679 O 0.38902 0.86773 0.93222 0.0
H680 H 0.44453 0.8905 0.92251 0.0
H681 H 0.42782 0.85837 0.87947 0.0
H682 H 0.47887 0.88592 0.92356 0.0
H683 H 0.46244 0.85427 0.88137 0.0
H684 H 0.37362 0.9346 0.92612 0.0
H685 H 0.38829 0.90558 0.87727 0.0
H686 H 0.36645 0.90315 0.92714 0.0
H687 H 0.39512 0.93697 0.87715 0.0
H688 H 0.42231 0.88799 0.8375 0.0
H689 H 0.35373 0.8705 0.83573 0.0
H690 H 0.43307 0.9307 0.958 0.0
H691 H 0.45548 0.94239 0.90813 0.0
H692 H 0.3294 0.83771 0.89425 0.0
H693 H 0.38887 0.83704 0.87564 0.0
H694 H 0.3116 0.82232 0.86922 0.0
H695 H 0.36999 0.82158 0.85098 0.0
H696 H 0.38072 0.83657 0.94478 0.0
H697 H 0.36986 0.88433 0.95029 0.0
H698 H 0.35846 0.82527 0.96939 0.0
H699 H 0.34772 0.87216 0.97477 0.0
H700 H 0.44815 0.83987 0.94636 0.0
H701 H 0.42513 0.80962 0.90257 0.0
H702 H 0.29644 0.86935 0.93152 0.0
H703 H 0.30138 0.81925 0.93857 0.0
Li704 Li 0.48507 0.37261 0.42105 0.0
Li705 Li 0.47894 0.34316 0.41243 0.0
Li706 Li 0.51409 0.3658 0.40952 0.0
Li707 Li 0.48401 0.36495 0.39209 0.0
C708 C 0.5132 0.3546 0.43983 0.0
N709 N 0.54515 0.35052 0.4587 0.0
C710 C 0.51393 0.33817 0.44238 0.0
C711 C 0.52871 0.36895 0.44693 0.0
C712 C 0.5302 0.33638 0.45196 0.0
C713 C 0.54474 0.36663 0.45639 0.0
C714 C 0.4416 0.34524 0.41274 0.0
C715 C 0.41172 0.31915 0.40744 0.0
N716 N 0.40375 0.32043 0.42251 0.0
C717 C 0.4331 0.34634 0.42815 0.0
C718 C 0.43082 0.33159 0.40226 0.0
C719 C 0.41394 0.33365 0.43286 0.0
C720 C 0.46918 0.39813 0.4314 0.0
N721 N 0.4788 0.38716 0.43652 0.0
C722 C 0.4861 0.40084 0.4627 0.0
C723 C 0.48638 0.38781 0.45203 0.0
C724 C 0.47797 0.41329 0.45725 0.0
C725 C 0.46879 0.41151 0.44159 0.0
H726 H 0.463 0.39711 0.41906 0.0
H727 H 0.49358 0.37872 0.45587 0.0
C728 C 0.46869 0.30788 0.40723 0.0
N729 N 0.466 0.31946 0.41792 0.0
C730 C 0.46397 0.2908 0.41196 0.0
C731 C 0.45263 0.29761 0.43835 0.0
C732 C 0.45756 0.31462 0.43307 0.0
C733 C 0.45659 0.2856 0.42792 0.0
H734 H 0.47588 0.31214 0.39543 0.0
H735 H 0.456 0.32421 0.44144 0.0
C736 C 0.50787 0.4018 0.40571 0.0
N737 N 0.51205 0.43566 0.41149 0.0
C738 C 0.4973 0.40983 0.39574 0.0
C739 C 0.52071 0.41103 0.41854 0.0
C740 C 0.49962 0.42696 0.39887 0.0
C741 C 0.52254 0.42811 0.4213 0.0
C742 C 0.50153 0.3451 0.37751 0.0
C743 C 0.52163 0.35289 0.37049 0.0
C744 C 0.48453 0.33508 0.36777 0.0
C745 C 0.52434 0.3506 0.35378 0.0
C746 C 0.48789 0.33314 0.3511 0.0
N747 N 0.50755 0.34088 0.34451 0.0
C748 C 0.55048 0.35693 0.41223 0.0
C749 C 0.55787 0.38688 0.40876 0.0
C750 C 0.57209 0.35976 0.41356 0.0
N751 N 0.54382 0.37044 0.41019 0.0
C752 C 0.57968 0.39028 0.4098 0.0
C753 C 0.58697 0.37662 0.4124 0.0
H754 H 0.53894 0.34395 0.41293 0.0
H755 H 0.55217 0.39734 0.40685 0.0
C756 C 0.45704 0.36386 0.36477 0.0
N757 N 0.47728 0.36996 0.37055 0.0
C758 C 0.45295 0.3665 0.34838 0.0
C759 C 0.49055 0.38195 0.34443 0.0
C760 C 0.49386 0.37915 0.36088 0.0
C761 C 0.46989 0.37544 0.33789 0.0
H762 H 0.44415 0.35668 0.37279 0.0
H763 H 0.50978 0.38385 0.36586 0.0
O764 O 0.49758 0.35667 0.43027 0.0
O765 O 0.46049 0.35737 0.40801 0.0
O766 O 0.50548 0.38493 0.40303 0.0
O767 O 0.49844 0.3475 0.39378 0.0
H768 H 0.50228 0.32692 0.43686 0.0
H769 H 0.52855 0.38178 0.44495 0.0
H770 H 0.531 0.32374 0.45397 0.0
H771 H 0.55691 0.37763 0.46186 0.0
H772 H 0.40327 0.30845 0.39951 0.0
H773 H 0.44129 0.35681 0.43642 0.0
H774 H 0.43728 0.3305 0.39034 0.0
H775 H 0.4072 0.33429 0.44478 0.0
H776 H 0.49335 0.40179 0.47468 0.0
H777 H 0.46212 0.42075 0.43705 0.0
H778 H 0.46771 0.28216 0.40359 0.0
H779 H 0.44687 0.29413 0.45072 0.0
H780 H 0.48723 0.40287 0.38581 0.0
H781 H 0.52888 0.40498 0.42644 0.0
H782 H 0.49145 0.43331 0.39131 0.0
H783 H 0.53223 0.43535 0.43129 0.0
H784 H 0.53494 0.36075 0.37781 0.0
H785 H 0.46882 0.32911 0.37296 0.0
H786 H 0.53978 0.35661 0.34817 0.0
H787 H 0.47483 0.32556 0.34338 0.0
H788 H 0.57712 0.34886 0.41527 0.0
H789 H 0.5907 0.40346 0.40882 0.0
H790 H 0.43674 0.36148 0.34397 0.0
H791 H 0.50417 0.38864 0.33683 0.0
Li792 Li 0.09421 0.61584 0.91193 0.0
Li793 Li 0.13028 0.62298 0.90105 0.0
Li794 Li 0.11497 0.64521 0.90573 0.0
Li795 Li 0.10233 0.62436 0.88325 0.0
C796 C 0.13003 0.64062 0.93478 0.0
N797 N 0.14821 0.66369 0.95973 0.0
C798 C 0.15209 0.64731 0.93667 0.0
C799 C 0.1172 0.64551 0.94567 0.0
C800 C 0.16098 0.65899 0.94935 0.0
C801 C 0.1267 0.65724 0.95817 0.0
C802 C 0.11129 0.59065 0.89388 0.0
C803 C 0.13081 0.5753 0.88013 0.0
N804 N 0.1281 0.56481 0.8934 0.0
C805 C 0.10862 0.57969 0.90736 0.0
C806 C 0.12239 0.58842 0.88011 0.0
C807 C 0.11725 0.5667 0.90688 0.0
C808 C 0.05496 0.59014 0.91997 0.0
N809 N 0.07407 0.60043 0.92601 0.0
C810 C 0.06646 0.58615 0.95189 0.0
C811 C 0.07996 0.59879 0.94166 0.0
C812 C 0.04657 0.5752 0.94601 0.0
C813 C 0.04073 0.57763 0.9299 0.0
H814 H 0.05097 0.59136 0.90732 0.0
H815 H 0.09552 0.60682 0.94597 0.0
C816 C 0.16987 0.62258 0.8901 0.0
N817 N 0.15548 0.61772 0.90248 0.0
C818 C 0.18847 0.61889 0.89087 0.0
C819 C 0.17726 0.60547 0.91727 0.0
C820 C 0.15877 0.6093 0.91592 0.0
C821 C 0.19238 0.61028 0.90461 0.0
H822 H 0.16702 0.62946 0.87968 0.0
H823 H 0.14704 0.60565 0.92561 0.0
C824 C 0.06451 0.62844 0.90226 0.0
N825 N 0.02183 0.6193 0.90936 0.0
C826 C 0.04925 0.62043 0.89036 0.0
C827 C 0.05808 0.63196 0.91772 0.0
C828 C 0.02774 0.61588 0.8942 0.0
C829 C 0.03642 0.62718 0.92109 0.0
C830 C 0.13634 0.64989 0.87154 0.0
C831 C 0.13643 0.6666 0.86921 0.0
C832 C 0.14108 0.64108 0.85839 0.0
C833 C 0.14123 0.6742 0.85372 0.0
C834 C 0.14576 0.64912 0.84309 0.0
N835 N 0.14574 0.66537 0.84109 0.0
C836 C 0.14261 0.67781 0.91461 0.0
C837 C 0.10633 0.67484 0.91623 0.0
C838 C 0.14886 0.69443 0.92098 0.0
N839 N 0.12168 0.66831 0.91267 0.0
C840 C 0.11191 0.69159 0.92241 0.0
C841 C 0.1334 0.70144 0.92509 0.0
H842 H 0.15443 0.67232 0.91142 0.0
H843 H 0.08981 0.66702 0.91443 0.0
C844 C 0.08414 0.60328 0.85656 0.0
N845 N 0.09118 0.61995 0.86164 0.0
C846 C 0.077 0.59907 0.84054 0.0
C847 C 0.08385 0.62925 0.83538 0.0
C848 C 0.09044 0.63281 0.85164 0.0
C849 C 0.07734 0.61219 0.82952 0.0
H850 H 0.08427 0.59322 0.86492 0.0
H851 H 0.09556 0.64591 0.85614 0.0
O852 O 0.12104 0.62946 0.92223 0.0
O853 O 0.10351 0.60376 0.89428 0.0
O854 O 0.08564 0.63296 0.89873 0.0
O855 O 0.13175 0.64226 0.88663 0.0
H856 H 0.16226 0.64373 0.9283 0.0
H857 H 0.1001 0.64041 0.94439 0.0
H858 H 0.17804 0.66437 0.9509 0.0
H859 H 0.11698 0.66124 0.96661 0.0
H860 H 0.13957 0.57349 0.86961 0.0
H861 H 0.10016 0.58129 0.91814 0.0
H862 H 0.12469 0.59687 0.86962 0.0
H863 H 0.11539 0.55817 0.91726 0.0
H864 H 0.072 0.58457 0.96402 0.0
H865 H 0.02551 0.56974 0.92484 0.0
H866 H 0.19988 0.62309 0.88097 0.0
H867 H 0.17965 0.59873 0.92803 0.0
H868 H 0.05395 0.61767 0.87831 0.0
H869 H 0.06969 0.63816 0.92707 0.0
H870 H 0.01575 0.60961 0.88513 0.0
H871 H 0.03121 0.62972 0.93304 0.0
H872 H 0.13274 0.6736 0.87922 0.0
H873 H 0.14077 0.62804 0.85989 0.0
H874 H 0.14132 0.68711 0.85174 0.0
H875 H 0.1493 0.6424 0.83278 0.0
H876 H 0.16563 0.7018 0.92256 0.0
H877 H 0.0996 0.69666 0.92537 0.0
H878 H 0.07148 0.58567 0.83682 0.0
H879 H 0.08454 0.63986 0.8274 0.0
Li880 Li 0.60054 0.13733 0.41589 0.0
Li881 Li 0.63154 0.13046 0.41799 0.0
Li882 Li 0.61103 0.12491 0.39155 0.0
Li883 Li 0.5983 0.10775 0.41686 0.0
C884 C 0.62726 0.16359 0.39876 0.0
N885 N 0.62802 0.19631 0.39142 0.0
C886 C 0.63126 0.17607 0.41108 0.0
C887 C 0.62377 0.1678 0.38268 0.0
C888 C 0.63152 0.19252 0.40713 0.0
C889 C 0.6242 0.18441 0.37922 0.0
C890 C 0.6205 0.13013 0.44799 0.0
C891 C 0.64226 0.12427 0.46895 0.0
N892 N 0.64681 0.14046 0.475 0.0
C893 C 0.62538 0.14671 0.45443 0.0
C894 C 0.62897 0.11879 0.45533 0.0
C895 C 0.63869 0.15169 0.46809 0.0
C896 C 0.5767 0.14972 0.43766 0.0
N897 N 0.58455 0.15137 0.42214 0.0
C898 C 0.56471 0.16902 0.41466 0.0
C899 C 0.57875 0.16072 0.41066 0.0
C900 C 0.55627 0.16747 0.43058 0.0
C901 C 0.5626 0.15781 0.44221 0.0
H902 H 0.58069 0.14153 0.44635 0.0
H903 H 0.58434 0.16121 0.3982 0.0
C904 C 0.67075 0.12667 0.42635 0.0
N905 N 0.65985 0.13765 0.42625 0.0
C906 C 0.69168 0.13223 0.43207 0.0
C907 C 0.68963 0.16021 0.43752 0.0
C908 C 0.66888 0.15415 0.43162 0.0
C909 C 0.70138 0.14923 0.43772 0.0
H910 H 0.66333 0.11368 0.42181 0.0
H911 H 0.66 0.16267 0.43122 0.0
C912 C 0.56303 0.11794 0.40296 0.0
N913 N 0.52287 0.11938 0.40596 0.0
C914 C 0.55104 0.11172 0.41712 0.0
C915 C 0.55458 0.12489 0.39032 0.0
C916 C 0.53078 0.11256 0.4184 0.0
C917 C 0.53424 0.1255 0.39207 0.0
C918 C 0.62101 0.09283 0.40198 0.0
C919 C 0.61372 0.08418 0.38721 0.0
C920 C 0.6248 0.08377 0.41534 0.0
C921 C 0.61014 0.06657 0.38612 0.0
C922 C 0.62099 0.06616 0.41376 0.0
N923 N 0.61379 0.05799 0.3993 0.0
C924 C 0.62953 0.12915 0.35989 0.0
C925 C 0.59236 0.11389 0.36124 0.0
C926 C 0.62945 0.12622 0.34301 0.0
N927 N 0.61114 0.12297 0.36855 0.0
C928 C 0.59153 0.11069 0.34445 0.0
C929 C 0.61026 0.11673 0.33512 0.0
H930 H 0.64428 0.13606 0.36615 0.0
H931 H 0.5781 0.10876 0.36854 0.0
C932 C 0.5793 0.07967 0.4386 0.0
N933 N 0.58045 0.08537 0.42291 0.0
C934 C 0.56438 0.06366 0.44286 0.0
C935 C 0.55223 0.05977 0.4147 0.0
C936 C 0.56751 0.07577 0.41097 0.0
C937 C 0.55039 0.05367 0.43087 0.0
H938 H 0.58948 0.08777 0.44789 0.0
H939 H 0.56872 0.08079 0.39862 0.0
O940 O 0.62704 0.14742 0.40232 0.0
O941 O 0.60781 0.12512 0.43441 0.0
O942 O 0.58319 0.11777 0.40171 0.0
O943 O 0.62411 0.10999 0.40342 0.0
H944 H 0.63372 0.17302 0.42361 0.0
H945 H 0.62065 0.15835 0.37298 0.0
H946 H 0.63443 0.20225 0.41657 0.0
H947 H 0.62146 0.18782 0.36685 0.0
H948 H 0.64903 0.11567 0.47468 0.0
H949 H 0.61926 0.15577 0.4488 0.0
H950 H 0.62561 0.106 0.45044 0.0
H951 H 0.64268 0.16451 0.47313 0.0
H952 H 0.56033 0.1764 0.40532 0.0
H953 H 0.55615 0.15601 0.45452 0.0
H954 H 0.7002 0.12337 0.43199 0.0
H955 H 0.69662 0.17354 0.44139 0.0
H956 H 0.55746 0.10658 0.42714 0.0
H957 H 0.56377 0.13004 0.3794 0.0
H958 H 0.52138 0.10788 0.42932 0.0
H959 H 0.52756 0.13093 0.38243 0.0
H960 H 0.61074 0.09094 0.37673 0.0
H961 H 0.63027 0.09019 0.4269 0.0
H962 H 0.60441 0.05971 0.37478 0.0
H963 H 0.62368 0.05898 0.42405 0.0
H964 H 0.64429 0.13092 0.33631 0.0
H965 H 0.57636 0.10351 0.33885 0.0
H966 H 0.56317 0.05947 0.45552 0.0
H967 H 0.54174 0.05239 0.40514 0.0
Li968 Li 0.5115 0.64306 0.91588 0.0
Li969 Li 0.50712 0.61364 0.91652 0.0
Li970 Li 0.51121 0.62861 0.89042 0.0
Li971 Li 0.47842 0.6222 0.90699 0.0
C972 C 0.54874 0.63598 0.91936 0.0
N973 N 0.58148 0.64196 0.94165 0.0
C974 C 0.54525 0.63793 0.93602 0.0
C975 C 0.56889 0.6371 0.91404 0.0
C976 C 0.56199 0.64093 0.94709 0.0
C977 C 0.58524 0.64012 0.9255 0.0
C978 C 0.47659 0.61358 0.93942 0.0
C979 C 0.45124 0.58512 0.94498 0.0
N980 N 0.44801 0.5904 0.96021 0.0
C981 C 0.47301 0.61872 0.95511 0.0
C982 C 0.46561 0.59663 0.93429 0.0
C983 C 0.4585 0.60681 0.96544 0.0
C984 C 0.50697 0.66853 0.93539 0.0
N985 N 0.52186 0.66475 0.92665 0.0
C986 C 0.54588 0.69391 0.92849 0.0
C987 C 0.54139 0.67679 0.92371 0.0
C988 C 0.53012 0.69847 0.93641 0.0
C989 C 0.51079 0.68538 0.94047 0.0
H990 H 0.49148 0.65871 0.93729 0.0
H991 H 0.55284 0.67342 0.91654 0.0
C992 C 0.51328 0.58205 0.91931 0.0
N993 N 0.51264 0.59583 0.92797 0.0
C994 C 0.51408 0.56752 0.92748 0.0
C995 C 0.51442 0.58198 0.95328 0.0
C996 C 0.51371 0.59623 0.94462 0.0
C997 C 0.51413 0.56721 0.94472 0.0
H998 H 0.51246 0.58215 0.90607 0.0
H999 H 0.51303 0.6073 0.95123 0.0
C1000 C 0.50079 0.66114 0.89326 0.0
N1001 N 0.51277 0.69648 0.8897 0.0
C1002 C 0.48639 0.66931 0.89672 0.0
C1003 C 0.52124 0.67095 0.88782 0.0
C1004 C 0.49278 0.68719 0.89492 0.0
C1005 C 0.52699 0.68879 0.8861 0.0
C1006 C 0.47862 0.59797 0.8828 0.0
C1007 C 0.47121 0.60761 0.87197 0.0
C1008 C 0.47461 0.58057 0.87952 0.0
C1009 C 0.45991 0.59965 0.85802 0.0
C1010 C 0.46323 0.57308 0.86545 0.0
N1011 N 0.45619 0.58269 0.85507 0.0
C1012 C 0.53094 0.61845 0.86389 0.0
C1013 C 0.51718 0.64031 0.8576 0.0
C1014 C 0.53683 0.61783 0.84752 0.0
N1015 N 0.52128 0.62956 0.86855 0.0
C1016 C 0.52317 0.64038 0.84124 0.0
C1017 C 0.53296 0.62894 0.83603 0.0
H1018 H 0.5336 0.6098 0.87282 0.0
H1019 H 0.50871 0.64851 0.86143 0.0
C1020 C 0.44157 0.62848 0.91445 0.0
N1021 N 0.44837 0.61663 0.90724 0.0
C1022 C 0.41993 0.62568 0.91536 0.0
C1023 C 0.41253 0.59816 0.90202 0.0
C1024 C 0.43434 0.60147 0.90142 0.0
C1025 C 0.40509 0.61042 0.90894 0.0
H1026 H 0.45303 0.64009 0.91958 0.0
H1027 H 0.43994 0.59183 0.89646 0.0
O1028 O 0.53266 0.63301 0.9082 0.0
O1029 O 0.4908 0.62519 0.92925 0.0
O1030 O 0.49509 0.64371 0.89544 0.0
O1031 O 0.49004 0.60549 0.89643 0.0
H1032 H 0.52981 0.63716 0.94039 0.0
H1033 H 0.57185 0.63562 0.90118 0.0
H1034 H 0.5595 0.64245 0.96001 0.0
H1035 H 0.60091 0.64101 0.92155 0.0
H1036 H 0.44266 0.57197 0.94118 0.0
H1037 H 0.48138 0.63179 0.95926 0.0
H1038 H 0.46815 0.59236 0.92222 0.0
H1039 H 0.45558 0.61062 0.97763 0.0
H1040 H 0.56099 0.70361 0.92518 0.0
H1041 H 0.49805 0.68832 0.94628 0.0
H1042 H 0.51418 0.55652 0.92039 0.0
H1043 H 0.51416 0.58226 0.96655 0.0
H1044 H 0.47047 0.66197 0.9008 0.0
H1045 H 0.53269 0.66489 0.88528 0.0
H1046 H 0.48183 0.69368 0.89767 0.0
H1047 H 0.54281 0.69654 0.88206 0.0
H1048 H 0.47405 0.62106 0.87428 0.0
H1049 H 0.48023 0.57292 0.88777 0.0
H1050 H 0.45409 0.60695 0.84954 0.0
H1051 H 0.46001 0.55962 0.86276 0.0
H1052 H 0.54424 0.60877 0.84388 0.0
H1053 H 0.51952 0.64886 0.83263 0.0
H1054 H 0.4149 0.63549 0.92081 0.0
H1055 H 0.40161 0.58604 0.89729 0.0
C1056 C 0.62169 0.1256 0.30618 0.0
C1057 C 0.60969 0.11294 0.31731 0.0
C1058 C 0.62039 0.12221 0.28936 0.0
C1059 C 0.58438 0.095 0.25852 0.0
H1060 H 0.63402 0.11117 0.23042 0.0
C1061 C 0.58001 0.1046 0.18892 0.0
C1062 C 0.59419 0.10031 0.17875 0.0
C1063 C 0.58138 0.10359 0.20593 0.0
C1064 C 0.62004 0.10638 0.23812 0.0
H1065 H 0.58763 0.08656 0.31956 0.0
H1066 H 0.5852 0.08075 0.29019 0.0
H1067 H 0.63831 0.11438 0.2601 0.0
H1068 H 0.62054 0.09115 0.17837 0.0
H1069 H 0.62286 0.0893 0.20818 0.0
H1070 H 0.56609 0.08717 0.23653 0.0
C1071 C 0.59538 0.09335 0.29447 0.0
C1072 C 0.62248 0.10839 0.25509 0.0
C1073 C 0.59673 0.09671 0.31128 0.0
C1074 C 0.60932 0.09444 0.18591 0.0
C1075 C 0.61078 0.09353 0.20295 0.0
C1076 C 0.58193 0.09307 0.24155 0.0
C1077 C 0.60703 0.10612 0.28333 0.0
C1078 C 0.60465 0.10293 0.26544 0.0
C1079 C 0.59702 0.09836 0.21313 0.0
C1080 C 0.59971 0.09895 0.23117 0.0
H1081 H 0.63163 0.13828 0.31041 0.0
H1082 H 0.62935 0.13237 0.28103 0.0
H1083 H 0.57033 0.09077 0.26618 0.0
H1084 H 0.56805 0.10899 0.18372 0.0
H1085 H 0.57067 0.10753 0.21346 0.0
C1086 C 0.55029 0.6394 0.6866 0.0
C1087 C 0.53564 0.62484 0.67887 0.0
C1088 C 0.55318 0.63968 0.70357 0.0
C1089 C 0.54575 0.6125 0.74027 0.0
H1090 H 0.54017 0.65172 0.7629 0.0
C1091 C 0.53035 0.61242 0.80998 0.0
C1092 C 0.53801 0.62814 0.81848 0.0
C1093 C 0.53291 0.61198 0.793 0.0
C1094 C 0.54225 0.64083 0.75684 0.0
H1095 H 0.51287 0.59899 0.68304 0.0
H1096 H 0.51835 0.5994 0.7126 0.0
H1097 H 0.53984 0.65099 0.73312 0.0
H1098 H 0.55537 0.65557 0.81619 0.0
H1099 H 0.56066 0.65481 0.78666 0.0
H1100 H 0.5483 0.60235 0.76397 0.0
C1101 C 0.5276 0.61057 0.70545 0.0
C1102 C 0.54195 0.6404 0.73974 0.0
C1103 C 0.52451 0.61034 0.68849 0.0
C1104 C 0.54913 0.64331 0.80985 0.0
C1105 C 0.552 0.64286 0.79292 0.0
C1106 C 0.54633 0.61302 0.75741 0.0
C1107 C 0.54169 0.62535 0.71318 0.0
C1108 C 0.54345 0.62616 0.73129 0.0
C1109 C 0.54343 0.62726 0.78419 0.0
C1110 C 0.54433 0.62711 0.76594 0.0
H1111 H 0.55949 0.65065 0.67956 0.0
H1112 H 0.56433 0.65117 0.70922 0.0
H1113 H 0.54712 0.60143 0.73402 0.0
H1114 H 0.52153 0.60057 0.81637 0.0
H1115 H 0.52584 0.59977 0.78672 0.0
C1116 C 0.92167 0.36553 0.18616 0.0
C1117 C 0.91365 0.37677 0.17789 0.0
C1118 C 0.92312 0.36584 0.20326 0.0
C1119 C 0.89763 0.37621 0.23894 0.0
H1120 H 0.94644 0.37484 0.26325 0.0
C1121 C 0.90078 0.38193 0.30892 0.0
C1122 C 0.90948 0.37152 0.3178 0.0
C1123 C 0.9028 0.38325 0.29192 0.0
C1124 C 0.93259 0.37501 0.25663 0.0
H1125 H 0.90204 0.39781 0.18106 0.0
H1126 H 0.90421 0.39809 0.2109 0.0
H1127 H 0.94768 0.37609 0.23328 0.0
H1128 H 0.9275 0.35457 0.31566 0.0
H1129 H 0.93024 0.35632 0.28586 0.0
H1130 H 0.88223 0.37464 0.26204 0.0
C1131 C 0.90913 0.38893 0.20413 0.0
C1132 C 0.93336 0.37579 0.2395 0.0
C1133 C 0.90784 0.38873 0.18706 0.0
C1134 C 0.92038 0.36255 0.30921 0.0
C1135 C 0.92221 0.36373 0.29213 0.0
C1136 C 0.89677 0.37524 0.256 0.0
C1137 C 0.91644 0.3773 0.2124 0.0
C1138 C 0.91592 0.37652 0.23053 0.0
C1139 C 0.91327 0.374 0.28328 0.0
C1140 C 0.91429 0.37476 0.26508 0.0
H1141 H 0.92605 0.35603 0.17949 0.0
H1142 H 0.92866 0.35665 0.20936 0.0
H1143 H 0.8838 0.37641 0.2323 0.0
H1144 H 0.89199 0.38883 0.31504 0.0
H1145 H 0.89603 0.39152 0.28555 0.0
C1146 C 0.37611 0.87067 0.8055 0.0
C1147 C 0.38927 0.88298 0.81637 0.0
C1148 C 0.37801 0.87349 0.7886 0.0
C1149 C 0.41613 0.89879 0.75739 0.0
H1150 H 0.36674 0.88287 0.72906 0.0
C1151 C 0.42221 0.8908 0.68759 0.0
C1152 C 0.40733 0.89414 0.67738 0.0
C1153 C 0.4205 0.89142 0.70462 0.0
C1154 C 0.38069 0.88763 0.73679 0.0
H1155 H 0.41412 0.90818 0.81821 0.0
H1156 H 0.41723 0.91326 0.78871 0.0
H1157 H 0.36208 0.88045 0.75864 0.0
H1158 H 0.37929 0.90122 0.67713 0.0
H1159 H 0.37679 0.9029 0.70678 0.0
H1160 H 0.43472 0.90624 0.73554 0.0
C1161 C 0.40581 0.90124 0.79318 0.0
C1162 C 0.37803 0.886 0.75376 0.0
C1163 C 0.404 0.89836 0.81006 0.0
C1164 C 0.39117 0.89874 0.6846 0.0
C1165 C 0.38954 0.89946 0.70162 0.0
C1166 C 0.41879 0.9005 0.74042 0.0
C1167 C 0.39301 0.88875 0.78223 0.0
C1168 C 0.39573 0.89137 0.76425 0.0
C1169 C 0.40394 0.89549 0.71184 0.0
C1170 C 0.40112 0.89476 0.72991 0.0
H1171 H 0.36477 0.85863 0.81004 0.0
H1172 H 0.36813 0.86348 0.78051 0.0
H1173 H 0.43014 0.9029 0.7651 0.0
H1174 H 0.43503 0.88746 0.68243 0.0
H1175 H 0.43177 0.88814 0.71211 0.0
C1176 C 0.45148 0.36376 0.31126 0.0
C1177 C 0.46636 0.37732 0.32009 0.0
C1178 C 0.44966 0.36488 0.29425 0.0
C1179 C 0.48194 0.38392 0.25897 0.0
H1180 H 0.42886 0.3724 0.23518 0.0
C1181 C 0.48183 0.38872 0.18887 0.0
C1182 C 0.4658 0.37594 0.18014 0.0
C1183 C 0.48051 0.3902 0.20584 0.0
C1184 C 0.44381 0.37545 0.24161 0.0
H1185 H 0.49003 0.40311 0.31797 0.0
H1186 H 0.48728 0.40474 0.28825 0.0
H1187 H 0.42867 0.37239 0.26516 0.0
H1188 H 0.43531 0.35509 0.18261 0.0
H1189 H 0.43364 0.357 0.21227 0.0
H1190 H 0.49714 0.38622 0.23572 0.0
C1191 C 0.47714 0.39325 0.29455 0.0
C1192 C 0.44367 0.37554 0.25877 0.0
C1193 C 0.47878 0.39225 0.31155 0.0
C1194 C 0.44818 0.3649 0.18888 0.0
C1195 C 0.44704 0.36618 0.20593 0.0
C1196 C 0.48207 0.38357 0.24187 0.0
C1197 C 0.46284 0.37946 0.28572 0.0
C1198 C 0.46275 0.37981 0.26758 0.0
C1199 C 0.46335 0.37871 0.21467 0.0
C1200 C 0.46303 0.37937 0.23293 0.0
H1201 H 0.44185 0.35197 0.31735 0.0
H1202 H 0.43862 0.35401 0.28769 0.0
H1203 H 0.49684 0.38697 0.26548 0.0
H1204 H 0.49583 0.39734 0.18272 0.0
H1205 H 0.49317 0.40026 0.21204 0.0
C1206 C 0.06173 0.61307 0.68158 0.0
C1207 C 0.06738 0.60073 0.67286 0.0
C1208 C 0.05851 0.61155 0.69851 0.0
C1209 C 0.07768 0.59517 0.73377 0.0
H1210 H 0.03314 0.60434 0.75769 0.0
C1211 C 0.07744 0.5953 0.80399 0.0
C1212 C 0.07201 0.6082 0.8119 0.0
C1213 C 0.07371 0.59217 0.78727 0.0
C1214 C 0.0458 0.60191 0.7512 0.0
H1215 H 0.07259 0.57648 0.67497 0.0
H1216 H 0.06747 0.57411 0.70462 0.0
H1217 H 0.03173 0.60272 0.72775 0.0
H1218 H 0.05754 0.62748 0.80834 0.0
H1219 H 0.05215 0.62271 0.77901 0.0
H1220 H 0.09242 0.5952 0.75688 0.0
C1221 C 0.06569 0.58499 0.69831 0.0
C1222 C 0.04489 0.60089 0.73408 0.0
C1223 C 0.06871 0.58641 0.68136 0.0
C1224 C 0.06231 0.61765 0.80265 0.0
C1225 C 0.05887 0.61471 0.78583 0.0
C1226 C 0.07875 0.59642 0.75081 0.0
C1227 C 0.06106 0.59776 0.70708 0.0
C1228 C 0.0609 0.59759 0.72522 0.0
C1229 C 0.06482 0.60209 0.77788 0.0
C1230 C 0.0629 0.5999 0.75977 0.0
H1231 H 0.06084 0.62438 0.67549 0.0
H1232 H 0.05515 0.62167 0.70502 0.0
H1233 H 0.09044 0.59294 0.72722 0.0
H1234 H 0.0852 0.58788 0.81057 0.0
H1235 H 0.07811 0.58211 0.78166 0.0
C1236 C 0.57225 0.03564 0.02145 0.0
C1237 C 0.5774 0.05354 0.0202 0.0
C1238 C 0.56281 0.02488 0.00829 0.0
C1239 C 0.54712 0.00475 0.97686 0.0
H1240 H 0.4994 0.01529 0.95983 0.0
C1241 C 0.48453 0.95811 0.93421 0.0
C1242 C 0.46354 0.95443 0.93956 0.0
C1243 C 0.50109 0.97203 0.9408 0.0
C1244 C 0.51274 0.01225 0.96439 0.0
H1245 H 0.57784 0.0743 0.00381 0.0
H1246 H 0.56187 0.05556 0.98079 0.0
H1247 H 0.52531 0.03606 0.97739 0.0
H1248 H 0.44324 0.96274 0.95539 0.0
H1249 H 0.47217 0.987 0.96701 0.0
H1250 H 0.53377 0.98048 0.96456 0.0
C1251 C 0.56486 0.04983 0.99202 0.0
C1252 C 0.52773 0.02421 0.97429 0.0
C1253 C 0.57422 0.06057 0.00517 0.0
C1254 C 0.4593 0.96525 0.95116 0.0
C1255 C 0.47582 0.97921 0.95766 0.0
C1256 C 0.53212 0.99278 0.96691 0.0
C1257 C 0.55837 0.03185 0.99364 0.0
C1258 C 0.54473 0.02037 0.98101 0.0
C1259 C 0.4969 0.98256 0.95275 0.0
C1260 C 0.51446 -0.00377 0.96101 0.0
H1261 H 0.57482 0.02988 0.03279 0.0
H1262 H 0.55787 0.01106 0.00996 0.0
H1263 H 0.56018 0.00154 0.98175 0.0
H1264 H 0.48825 0.94986 0.92538 0.0
H1265 H 0.51719 0.97439 0.93676 0.0
C1266 C 0.51358 0.53691 0.55002 0.0
C1267 C 0.52388 0.55284 0.54223 0.0
C1268 C 0.50969 0.52145 0.54159 0.0
C1269 C 0.52393 0.50272 0.50397 0.0
H1270 H 0.46843 0.46727 0.5104 0.0
C1271 C 0.48975 0.44528 0.45994 0.0
C1272 C 0.48112 0.4289 0.46721 0.0
C1273 C 0.49493 0.46015 0.46951 0.0
C1274 C 0.48405 0.477 0.50859 0.0
H1275 H 0.53909 0.56494 0.51968 0.0
H1276 H 0.53169 0.53802 0.5048 0.0
H1277 H 0.47865 0.49367 0.5266 0.0
H1278 H 0.47057 0.41519 0.49006 0.0
H1279 H 0.47945 0.44129 0.50683 0.0
H1280 H 0.52902 0.48614 0.48565 0.0
C1281 C 0.52684 0.53744 0.51751 0.0
C1282 C 0.48997 0.49209 0.51792 0.0
C1283 C 0.53088 0.55291 0.52598 0.0
C1284 C 0.47723 0.42767 0.48417 0.0
C1285 C 0.48222 0.44257 0.49373 0.0
C1286 C 0.51791 0.48769 0.49455 0.0
C1287 C 0.51585 0.52153 0.52512 0.0
C1288 C 0.50997 0.50517 0.51568 0.0
C1289 C 0.49145 0.45894 0.48652 0.0
C1290 C 0.49788 0.47473 0.49671 0.0
H1291 H 0.50773 0.53635 0.56246 0.0
H1292 H 0.50153 0.50943 0.54792 0.0
H1293 H 0.53957 0.51238 0.50212 0.0
H1294 H 0.49319 0.4466 0.44693 0.0
H1295 H 0.50182 0.47262 0.46362 0.0
C1296 C 0.03257 0.56195 0.97338 0.0
C1297 C 0.0328 0.56061 0.95619 0.0
C1298 C 0.02133 0.54767 0.98298 0.0
C1299 C -0.00195 0.49985 0.9805 0.0
H1300 H 0.97453 0.50469 0.02275 0.0
C1301 C 0.96858 0.44291 0.02544 0.0
C1302 C 0.95115 0.44155 0.03542 0.0
C1303 C 0.97808 0.45764 0.01593 0.0
C1304 C 0.98072 0.50302 0.01088 0.0
H1305 H 0.02057 0.54312 0.93569 0.0
H1306 H -0.00017 0.5188 0.95226 0.0
H1307 H 0.99004 0.52989 0.00551 0.0
H1308 H 0.92957 0.45405 0.04322 0.0
H1309 H 0.94538 0.47945 0.02602 0.0
H1310 H 0.98771 0.47288 0.98542 0.0
C1311 C 0.00904 0.53068 0.95842 0.0
C1312 C 0.98996 0.51758 0.00108 0.0
C1313 C 0.02065 0.54482 0.94885 0.0
C1314 C 0.94318 0.45499 0.03568 0.0
C1315 C 0.95236 0.46956 0.02592 0.0
C1316 C 0.98843 0.48527 0.99013 0.0
C1317 C 0.00966 0.53177 0.97562 0.0
C1318 C -0.00108 0.51621 0.98581 0.0
C1319 C 0.96999 0.47112 0.01594 0.0
C1320 C 0.97981 0.48666 0.00553 0.0
H1321 H 0.04134 0.57397 0.9795 0.0
H1322 H 0.02237 0.54904 0.99618 0.0
H1323 H 0.0051 0.49826 0.96897 0.0
H1324 H 0.97501 0.43267 0.02519 0.0
H1325 H 0.9919 0.4585 0.00872 0.0
C1326 C 0.53706 0.02558 0.44582 0.0
C1327 C 0.53303 0.03759 0.43552 0.0
C1328 C 0.52032 0.01136 0.4517 0.0
C1329 C 0.4821 0.97888 0.45795 0.0
H1330 H 0.43925 0.99194 0.4802 0.0
C1331 C 0.4227 0.93236 0.50199 0.0
C1332 C 0.42348 0.93964 0.51764 0.0
C1333 C 0.43107 0.94289 0.48846 0.0
C1334 C 0.45093 0.98806 0.47386 0.0
H1335 H 0.50853 0.04396 0.42283 0.0
H1336 H 0.47916 0.01908 0.43325 0.0
H1337 H 0.46467 0.01253 0.46201 0.0
H1338 H 0.43218 0.96355 0.5313 0.0
H1339 H 0.44688 0.98197 0.50768 0.0
H1340 H 0.46915 0.95478 0.47052 0.0
C1341 C 0.49527 0.02066 0.43669 0.0
C1342 C 0.46537 -0.00024 0.46337 0.0
C1343 C 0.51205 0.0348 0.43067 0.0
C1344 C 0.43157 0.95764 0.51937 0.0
C1345 C 0.43977 0.96817 0.50583 0.0
C1346 C 0.46758 0.96714 0.46835 0.0
C1347 C 0.49924 0.00901 0.4475 0.0
C1348 C 0.48156 0.99549 0.45582 0.0
C1349 C 0.44017 0.96086 0.49035 0.0
C1350 C 0.45238 0.97186 0.47686 0.0
H1351 H 0.55312 0.02741 0.44963 0.0
H1352 H 0.52381 0.00269 0.46017 0.0
H1353 H 0.49433 0.97525 0.45214 0.0
H1354 H 0.41664 0.91849 0.50035 0.0
H1355 H 0.43111 0.93696 0.47663 0.0
C1356 C 0.52318 0.55209 0.96867 0.0
C1357 C 0.51235 0.55123 0.95378 0.0
C1358 C 0.51991 0.53721 0.97793 0.0
C1359 C 0.48058 0.49336 0.9842 0.0
H1360 H 0.5264 0.48663 0.00854 0.0
C1361 C 0.47181 0.43052 0.01945 0.0
C1362 C 0.48111 0.43262 0.03511 0.0
C1363 C 0.47517 0.44479 0.00925 0.0
C1364 C 0.51342 0.48842 0.00191 0.0
H1365 H 0.48989 0.53395 0.9368 0.0
H1366 H 0.48477 0.50796 0.95268 0.0
H1367 H 0.534 0.51168 0.9907 0.0
H1368 H 0.50111 0.45129 0.05238 0.0
H1369 H 0.50677 0.47616 0.03464 0.0
H1370 H 0.46005 0.46999 0.99538 0.0
C1371 C 0.49549 0.52019 0.95735 0.0
C1372 C 0.51776 0.50277 0.9917 0.0
C1373 C 0.49869 0.53507 0.94812 0.0
C1374 C 0.49351 0.44928 0.04046 0.0
C1375 C 0.49698 0.46349 0.03024 0.0
C1376 C 0.47626 0.47895 0.99434 0.0
C1377 C 0.50581 0.52112 0.97249 0.0
C1378 C 0.50137 0.50548 0.98282 0.0
C1379 C 0.48806 0.46137 0.01446 0.0
C1380 C 0.49261 0.47642 0.0034 0.0
H1381 H 0.534 0.5643 0.97329 0.0
H1382 H 0.52799 0.53843 0.9896 0.0
H1383 H 0.46751 0.49521 0.97775 0.0
H1384 H 0.46211 0.41784 0.01505 0.0
H1385 H 0.46817 0.44278 -0.00288 0.0
C1386 C 0.96866 0.45478 0.44306 0.0
C1387 C 0.96483 0.43899 0.45114 0.0
C1388 C 0.98104 0.47029 0.45042 0.0
C1389 C 0.01985 0.48871 0.48375 0.0
H1390 H -0.00061 0.52673 0.48076 0.0
C1391 C 0.06561 0.55467 0.51294 0.0
C1392 C 0.05338 0.56243 0.52163 0.0
C1393 C 0.05584 0.54049 0.50282 0.0
C1394 C 0.00526 0.51622 0.48176 0.0
H1395 H 0.97152 0.42709 0.47309 0.0
H1396 H 0.99262 0.45421 0.48617 0.0
H1397 H 0.98058 0.4999 0.46637 0.0
H1398 H 0.02137 0.56178 0.52602 0.0
H1399 H 0.00427 0.53674 0.50871 0.0
H1400 H 0.04398 0.50476 0.49971 0.0
C1401 C 0.9863 0.45458 0.47403 0.0
C1402 C 0.99464 0.50091 0.47335 0.0
C1403 C 0.97399 0.43905 0.46662 0.0
C1404 C 0.03121 0.55597 0.51964 0.0
C1405 C 0.02144 0.54174 0.50956 0.0
C1406 C 0.03041 0.50399 0.49222 0.0
C1407 C 0.98976 0.47038 0.46608 0.0
C1408 C 0.00171 0.48693 0.47436 0.0
C1409 C 0.03363 0.5337 0.50121 0.0
C1410 C 0.02312 0.51786 0.49144 0.0
H1411 H 0.96162 0.45524 0.43122 0.0
H1412 H 0.98363 0.48223 0.44389 0.0
H1413 H 0.02584 0.47825 0.48462 0.0
H1414 H 0.0827 0.5592 0.51435 0.0
H1415 H 0.06569 0.53473 0.49638 0.0
C1416 C 0.50356 0.1626 0.07941 0.0
C1417 C 0.52057 0.16502 0.06852 0.0
C1418 C 0.48965 0.17149 0.0772 0.0
C1419 C 0.47426 0.1996 0.04784 0.0
H1420 H 0.46458 0.22109 0.08773 0.0
C1421 C 0.47124 0.26719 0.05146 0.0
C1422 C 0.45921 0.27118 0.06377 0.0
C1423 C 0.47081 0.25037 0.04966 0.0
C1424 C 0.46657 0.21488 0.07648 0.0
H1425 H 0.53546 0.17795 0.04618 0.0
H1426 H 0.51187 0.19402 0.04274 0.0
H1427 H 0.47945 0.19854 0.0894 0.0
H1428 H 0.43599 0.26068 0.08296 0.0
H1429 H 0.43527 0.2311 0.07989 0.0
H1430 H 0.46261 0.2169 0.03493 0.0
C1431 C 0.509 0.18503 0.05286 0.0
C1432 C 0.47517 0.20192 0.07744 0.0
C1433 C 0.5228 0.17603 0.055 0.0
C1434 C 0.44534 0.25785 0.07335 0.0
C1435 C 0.44506 0.24099 0.07166 0.0
C1436 C 0.46578 0.21268 0.04688 0.0
C1437 C 0.49251 0.18313 0.06412 0.0
C1438 C 0.47984 0.19455 0.0631 0.0
C1439 C 0.45849 0.23726 0.06026 0.0
C1440 C 0.46256 0.22087 0.06118 0.0
H1441 H 0.5014 0.15431 0.09003 0.0
H1442 H 0.47696 0.16953 0.08598 0.0
H1443 H 0.4772 0.19392 0.03657 0.0
H1444 H 0.48202 0.27731 0.04393 0.0
H1445 H 0.48147 0.24798 0.04086 0.0
C1446 C 0.37457 0.60259 0.59798 0.0
C1447 C 0.38828 0.61028 0.58489 0.0
C1448 C 0.3537 0.60229 0.59814 0.0
C1449 C 0.31214 0.60865 0.57153 0.0
H1450 H 0.28961 0.61733 0.61298 0.0
C1451 C 0.2378 0.6276 0.57644 0.0
C1452 C 0.22272 0.6189 0.58836 0.0
C1453 C 0.25755 0.62567 0.57591 0.0
C1454 C 0.29562 0.61474 0.60135 0.0
H1455 H 0.39039 0.62307 0.5614 0.0
H1456 H 0.35444 0.62318 0.56201 0.0
H1457 H 0.32472 0.61521 0.61212 0.0
H1458 H 0.21656 0.6016 0.60919 0.0
H1459 H 0.25119 0.59835 0.60835 0.0
H1460 H 0.28318 0.60869 0.56075 0.0
C1461 C 0.35964 0.61713 0.57205 0.0
C1462 C 0.31571 0.61344 0.60084 0.0
C1463 C 0.38042 0.6173 0.57182 0.0
C1464 C 0.22784 0.60836 0.59982 0.0
C1465 C 0.24769 0.6066 0.5994 0.0
C1466 C 0.29215 0.61014 0.57202 0.0
C1467 C 0.34606 0.60978 0.58529 0.0
C1468 C 0.32429 0.61045 0.58591 0.0
C1469 C 0.2627 0.61517 0.5874 0.0
C1470 C 0.28373 0.61326 0.58692 0.0
H1471 H 0.38009 0.59718 0.60833 0.0
H1472 H 0.3436 0.59626 0.60842 0.0
H1473 H 0.31803 0.60602 0.55986 0.0
H1474 H 0.2342 0.63569 0.56738 0.0
H1475 H 0.2689 0.63254 0.56661 0.0
C1476 C 0.87417 0.26232 0.06201 0.0
C1477 C 0.87155 0.27658 0.05436 0.0
C1478 C 0.85954 0.24571 0.05925 0.0
C1479 C 0.80942 0.22083 0.03656 0.0
H1480 H 0.79097 0.20238 0.07992 0.0
C1481 C 0.72197 0.18694 0.05443 0.0
C1482 C 0.71654 0.17332 0.06579 0.0
C1483 C 0.74318 0.19572 0.0502 0.0
C1484 C 0.79605 0.20704 0.06765 0.0
H1485 H 0.85303 0.28452 0.03652 0.0
H1486 H 0.82742 0.2558 0.03194 0.0
H1487 H 0.8259 0.22414 0.0764 0.0
H1488 H 0.72905 0.15801 0.08136 0.0
H1489 H 0.76608 0.1733 0.07389 0.0
H1490 H 0.77874 0.20436 0.02812 0.0
C1491 C 0.8408 0.2572 0.03989 0.0
C1492 C 0.81622 0.21952 0.06559 0.0
C1493 C 0.85554 0.27376 0.04252 0.0
C1494 C 0.73272 0.1684 0.07251 0.0
C1495 C 0.75393 0.1772 0.0683 0.0
C1496 C 0.78913 0.20839 0.03866 0.0
C1497 C 0.84189 0.24314 0.04898 0.0
C1498 C 0.82287 0.22706 0.05014 0.0
C1499 C 0.75941 0.1911 0.05726 0.0
C1500 C 0.78199 0.20184 0.05434 0.0
H1501 H 0.88657 0.26417 0.07104 0.0
H1502 H 0.86117 0.23508 0.0661 0.0
H1503 H 0.81418 0.22614 0.02445 0.0
H1504 H 0.70983 0.19086 0.04887 0.0
H1505 H 0.74692 0.20652 0.04182 0.0
C1506 C 0.48694 0.82653 0.56544 0.0
C1507 C 0.46471 0.81858 0.56644 0.0
C1508 C 0.49962 0.81672 0.5623 0.0
C1509 C 0.4966 0.77398 0.54651 0.0
H1510 H 0.547 0.78156 0.57287 0.0
C1511 C 0.53586 0.72401 0.54498 0.0
C1512 C 0.53959 0.71864 0.56061 0.0
C1513 C 0.53323 0.73982 0.54294 0.0
C1514 C 0.53301 0.7793 0.56536 0.0
H1515 H 0.43844 0.79411 0.56522 0.0
H1516 H 0.46043 0.77704 0.55992 0.0
H1517 H 0.52809 0.80164 0.57482 0.0
H1518 H 0.54515 0.72595 0.58613 0.0
H1519 H 0.53989 0.75328 0.5828 0.0
H1520 H 0.50044 0.75107 0.53789 0.0
C1521 C 0.4681 0.79088 0.56113 0.0
C1522 C 0.52229 0.79092 0.56636 0.0
C1523 C 0.45546 0.80066 0.56422 0.0
C1524 C 0.54247 0.72993 0.57393 0.0
C1525 C 0.53947 0.74562 0.57197 0.0
C1526 C 0.50718 0.76234 0.5456 0.0
C1527 C 0.49032 0.79877 0.56011 0.0
C1528 C 0.50355 0.78805 0.55734 0.0
C1529 C 0.53376 0.75036 0.55659 0.0
C1530 C 0.52517 0.76454 0.55538 0.0
H1531 H 0.49451 0.84035 0.56691 0.0
H1532 H 0.51667 0.82319 0.56146 0.0
H1533 H 0.48249 0.7716 0.53912 0.0
H1534 H 0.53369 0.71549 0.53452 0.0
H1535 H 0.52947 0.74328 0.53084 0.0
C1536 C 0.62506 0.38617 0.07716 0.0
C1537 C 0.61391 0.38372 0.0921 0.0
C1538 C 0.64599 0.38663 0.07672 0.0
C1539 C 0.68127 0.36987 0.09906 0.0
H1540 H 0.72648 0.40281 0.07385 0.0
C1541 C 0.76665 0.37029 0.10169 0.0
C1542 C 0.77855 0.37355 0.0871 0.0
C1543 C 0.74718 0.37264 0.10243 0.0
C1544 C 0.71396 0.39337 0.08078 0.0
H1545 H 0.61655 0.38093 0.11838 0.0
H1546 H 0.65289 0.38142 0.11753 0.0
H1547 H 0.69148 0.40536 0.07481 0.0
H1548 H 0.77933 0.38221 0.06191 0.0
H1549 H 0.74496 0.38557 0.06301 0.0
H1550 H 0.7033 0.35753 0.1047 0.0
C1551 C 0.64531 0.38276 0.10616 0.0
C1552 C 0.69397 0.3949 0.08137 0.0
C1553 C 0.62448 0.38244 0.10663 0.0
C1554 C 0.77048 0.3793 0.07329 0.0
C1555 C 0.75088 0.3815 0.07399 0.0
C1556 C 0.70114 0.36823 0.09834 0.0
C1557 C 0.65613 0.38453 0.09118 0.0
C1558 C 0.67747 0.3832 0.09058 0.0
C1559 C 0.73894 0.37813 0.08856 0.0
C1560 C 0.71779 0.37999 0.08925 0.0
H1561 H 0.61735 0.38702 0.06572 0.0
H1562 H 0.65393 0.3879 0.06498 0.0
H1563 H 0.66872 0.36047 0.10601 0.0
H1564 H 0.7722 0.36566 0.11253 0.0
H1565 H 0.73862 0.37019 0.11395 0.0
C1566 C 0.14494 0.72651 0.5567 0.0
C1567 C 0.13179 0.72042 0.57041 0.0
C1568 C 0.15682 0.74405 0.55505 0.0
C1569 C 0.18271 0.77944 0.58281 0.0
H1570 H 0.20739 0.80244 0.54236 0.0
C1571 C 0.26394 0.83363 0.58343 0.0
C1572 C 0.27826 0.83064 0.57238 0.0
C1573 C 0.24208 0.82494 0.58166 0.0
C1574 C 0.20055 0.79626 0.55377 0.0
H1575 H 0.11875 0.72806 0.59207 0.0
H1576 H 0.1394 0.75881 0.58912 0.0
H1577 H 0.17365 0.7781 0.54161 0.0
H1578 H 0.28085 0.81684 0.55039 0.0
H1579 H 0.24284 0.80159 0.5474 0.0
H1580 H 0.21006 0.79684 0.59489 0.0
C1581 C 0.14092 0.74997 0.57985 0.0
C1582 C 0.18123 0.78234 0.55335 0.0
C1583 C 0.12909 0.73239 0.58154 0.0
C1584 C 0.27023 0.81952 0.55903 0.0
C1585 C 0.2484 0.81084 0.55728 0.0
C1586 C 0.20194 0.79334 0.58323 0.0
C1587 C 0.15576 0.75587 0.56706 0.0
C1588 C 0.17264 0.77325 0.56778 0.0
C1589 C 0.23412 0.81309 0.56882 0.0
C1590 C 0.21156 0.80137 0.56864 0.0
H1591 H 0.14749 0.71761 0.54796 0.0
H1592 H 0.1682 0.74805 0.54512 0.0
H1593 H 0.17675 0.77267 0.59416 0.0
H1594 H 0.26966 0.84242 0.59364 0.0
H1595 H 0.23145 0.8271 0.59063 0.0
C1596 C 0.76688 0.3772 0.42939 0.0
C1597 C 0.77998 0.38221 0.41552 0.0
C1598 C 0.7471 0.3791 0.4297 0.0
C1599 C 0.70653 0.38363 0.40124 0.0
H1600 H 0.68084 0.39195 0.44136 0.0
C1601 C 0.6243 0.39037 0.40218 0.0
C1602 C 0.60999 0.37985 0.41369 0.0
C1603 C 0.64585 0.39266 0.4029 0.0
C1604 C 0.68785 0.3896 0.43008 0.0
H1605 H 0.78337 0.39402 0.39152 0.0
H1606 H 0.74922 0.39793 0.39222 0.0
H1607 H 0.71749 0.39296 0.44174 0.0
H1608 H 0.60702 0.36401 0.43534 0.0
H1609 H 0.64476 0.3681 0.43666 0.0
H1610 H 0.6769 0.38039 0.3896 0.0
C1611 C 0.75377 0.39197 0.40265 0.0
C1612 C 0.7088 0.3901 0.43029 0.0
C1613 C 0.77339 0.38984 0.40226 0.0
C1614 C 0.61771 0.37206 0.42622 0.0
C1615 C 0.6393 0.37452 0.42707 0.0
C1616 C 0.68571 0.38335 0.40101 0.0
C1617 C 0.74013 0.38626 0.41621 0.0
C1618 C 0.71834 0.38691 0.4159 0.0
C1619 C 0.65352 0.38465 0.41528 0.0
C1620 C 0.67608 0.38613 0.41545 0.0
H1621 H 0.77156 0.37116 0.43972 0.0
H1622 H 0.73696 0.37434 0.44026 0.0
H1623 H 0.71311 0.38075 0.38999 0.0
H1624 H 0.61874 0.39646 0.39236 0.0
H1625 H 0.65652 0.40061 0.39373 0.0
C1626 C 0.25768 0.83987 0.93191 0.0
C1627 C 0.2732 0.836 0.94091 0.0
C1628 C 0.23612 0.83032 0.93429 0.0
C1629 C 0.19818 0.79454 0.95933 0.0
H1630 H 0.17488 0.77754 0.91659 0.0
C1631 C 0.15511 0.72406 0.9445 0.0
C1632 C 0.14008 0.71911 0.93181 0.0
C1633 C 0.16433 0.74134 0.94902 0.0
C1634 C 0.18068 0.78237 0.92867 0.0
H1635 H 0.27822 0.82048 0.96073 0.0
H1636 H 0.24088 0.80342 0.96442 0.0
H1637 H 0.20518 0.80412 0.91855 0.0
H1638 H 0.12161 0.72801 0.91475 0.0
H1639 H 0.13797 0.75843 0.92255 0.0
H1640 H 0.17455 0.77184 0.96923 0.0
C1641 C 0.24515 0.81388 0.95563 0.0
C1642 C 0.19815 0.79771 0.92983 0.0
C1643 C 0.26665 0.82349 0.95333 0.0
C1644 C 0.13322 0.73154 0.92455 0.0
C1645 C 0.1426 0.74891 0.92898 0.0
C1646 C 0.18075 0.77911 0.95816 0.0
C1647 C 0.22967 0.81664 0.94561 0.0
C1648 C 0.20783 0.80349 0.94508 0.0
C1649 C 0.15882 0.75405 0.94084 0.0
C1650 C 0.17257 0.77243 0.94273 0.0
H1651 H 0.26217 0.84946 0.92226 0.0
H1652 H 0.22458 0.833 0.92658 0.0
H1653 H 0.20493 0.79887 0.9713 0.0
H1654 H 0.16045 0.71465 0.95041 0.0
H1655 H 0.17692 0.74485 0.95807 0.0
C1656 C 0.54189 0.18418 0.4499 0.0
C1657 C 0.54062 0.17562 0.43485 0.0
C1658 C 0.52793 0.19275 0.45343 0.0
C1659 C 0.47796 0.19819 0.43981 0.0
H1660 H 0.5062 0.24514 0.45487 0.0
C1661 C 0.45068 0.25423 0.42387 0.0
C1662 C 0.45642 0.26874 0.4342 0.0
C1663 C 0.4558 0.23988 0.42809 0.0
C1664 C 0.49781 0.23194 0.45107 0.0
H1665 H 0.52292 0.16848 0.41212 0.0
H1666 H 0.49898 0.1838 0.41807 0.0
H1667 H 0.52549 0.2255 0.45445 0.0
H1668 H 0.47 0.27875 0.45788 0.0
H1669 H 0.47819 0.25351 0.46546 0.0
H1670 H 0.4505 0.20495 0.43581 0.0
C1671 C 0.51062 0.18379 0.42723 0.0
C1672 C 0.50895 0.22066 0.4508 0.0
C1673 C 0.52457 0.17524 0.4237 0.0
C1674 C 0.46532 0.26783 0.44961 0.0
C1675 C 0.47029 0.25342 0.45388 0.0
C1676 C 0.46677 0.20949 0.44012 0.0
C1677 C 0.51239 0.19291 0.442 0.0
C1678 C 0.49937 0.20382 0.44471 0.0
C1679 C 0.46663 0.23969 0.44279 0.0
C1680 C 0.47678 0.22666 0.44529 0.0
H1681 H 0.5541 0.18472 0.45874 0.0
H1682 H 0.52957 0.19953 0.46499 0.0
H1683 H 0.47003 0.18518 0.43531 0.0
H1684 H 0.44344 0.2544 0.41205 0.0
H1685 H 0.45271 0.22956 0.41923 0.0
C1686 C 0.22435 0.61036 0.92042 0.0
C1687 C 0.21248 0.60686 0.90583 0.0
C1688 C 0.24414 0.6085 0.92112 0.0
C1689 C 0.28769 0.60811 0.89394 0.0
H1690 H 0.30824 0.59227 0.93288 0.0
C1691 C 0.36933 0.60065 0.8954 0.0
C1692 C 0.38203 0.60749 0.9092 0.0
C1693 C 0.34789 0.59876 0.89526 0.0
C1694 C 0.30274 0.59681 0.92195 0.0
H1695 H 0.21147 0.59778 0.88081 0.0
H1696 H 0.24584 0.5943 0.88207 0.0
H1697 H 0.27185 0.59191 0.93215 0.0
H1698 H 0.38199 0.61711 0.93392 0.0
H1699 H 0.3446 0.61403 0.9336 0.0
H1700 H 0.31857 0.61314 0.88379 0.0
C1701 C 0.24015 0.59891 0.89286 0.0
C1702 C 0.28192 0.59662 0.92153 0.0
C1703 C 0.22044 0.60087 0.89214 0.0
C1704 C 0.37268 0.612 0.92302 0.0
C1705 C 0.35121 0.61005 0.92291 0.0
C1706 C 0.30844 0.60824 0.89434 0.0
C1707 C 0.25242 0.60301 0.90726 0.0
C1708 C 0.27419 0.60238 0.90755 0.0
C1709 C 0.33865 0.60362 0.90894 0.0
C1710 C 0.31626 0.6027 0.90838 0.0
H1711 H 0.2187 0.61517 0.93111 0.0
H1712 H 0.25326 0.61197 0.93234 0.0
H1713 H 0.28244 0.61297 0.88309 0.0
H1714 H 0.37608 0.59717 0.88451 0.0
H1715 H 0.33857 0.59359 0.88438 0.0
C1716 C 0.73055 0.16756 0.456 0.0
C1717 C 0.72403 0.15609 0.44273 0.0
C1718 C 0.75206 0.17675 0.45878 0.0
C1719 C 0.79957 0.19474 0.43393 0.0
H1720 H 0.82317 0.21603 0.47531 0.0
C1721 C 0.8653 0.26052 0.43364 0.0
C1722 C 0.85889 0.27231 0.44253 0.0
C1723 C 0.85578 0.24281 0.43662 0.0
C1724 C 0.81696 0.21007 0.46367 0.0
H1725 H 0.73502 0.14402 0.42289 0.0
H1726 H 0.77269 0.15985 0.42792 0.0
H1727 H 0.79214 0.18935 0.47521 0.0
H1728 H 0.83938 0.27513 0.46261 0.0
H1729 H 0.82262 0.24436 0.46771 0.0
H1730 H 0.82341 0.21592 0.42234 0.0
C1731 C 0.76112 0.16198 0.436 0.0
C1732 C 0.79917 0.19481 0.46361 0.0
C1733 C 0.73954 0.15281 0.4332 0.0
C1734 C 0.84438 0.26626 0.45545 0.0
C1735 C 0.83496 0.24862 0.45848 0.0
C1736 C 0.81735 0.20992 0.434 0.0
C1737 C 0.76758 0.17462 0.44836 0.0
C1738 C 0.78958 0.18752 0.44872 0.0
C1739 C 0.83981 0.23665 0.44859 0.0
C1740 C 0.82552 0.21826 0.44884 0.0
H1741 H 0.71895 0.1701 0.46376 0.0
H1742 H 0.75636 0.18643 0.46835 0.0
H1743 H 0.79259 0.1896 0.42222 0.0
H1744 H 0.87649 0.26487 0.42361 0.0
H1745 H 0.86001 0.2339 0.42892 0.0
C1746 C 0.53916 0.72798 0.92456 0.0
C1747 C 0.53204 0.71677 0.93799 0.0
C1748 C 0.5359 0.74366 0.92416 0.0
C1749 C 0.51721 0.77374 0.94802 0.0
H1750 H 0.48795 0.77544 0.9075 0.0
C1751 C 0.45643 0.80788 0.94225 0.0
C1752 C 0.45436 0.8151 0.92707 0.0
C1753 C 0.47042 0.79898 0.944 0.0
C1754 C 0.49647 0.7755 0.91876 0.0
H1755 H 0.51806 0.71401 0.96223 0.0
H1756 H 0.51205 0.74127 0.96142 0.0
H1757 H 0.50621 0.75523 0.91014 0.0
H1758 H 0.4662 0.81976 0.90217 0.0
H1759 H 0.49097 0.8046 0.90527 0.0
H1760 H 0.50688 0.79379 0.95675 0.0
C1761 C 0.52018 0.73799 0.95122 0.0
C1762 C 0.507 0.76387 0.92028 0.0
C1763 C 0.52346 0.7223 0.95164 0.0
C1764 C 0.46718 0.81396 0.9139 0.0
C1765 C 0.48134 0.80527 0.9157 0.0
C1766 C 0.50674 0.7855 0.94647 0.0
C1767 C 0.52543 0.74842 0.93714 0.0
C1768 C 0.51714 0.76261 0.93501 0.0
C1769 C 0.4828 0.79732 0.93065 0.0
C1770 C 0.49588 0.78626 0.93192 0.0
H1771 H 0.54572 0.72408 0.9138 0.0
H1772 H 0.54044 0.75158 0.91325 0.0
H1773 H 0.52502 0.77313 0.95948 0.0
H1774 H 0.44668 0.8086 0.95258 0.0
H1775 H 0.47091 0.79285 0.95563 0.0
loop_
_geom_bond_atom_site_label_1
_geom_bond_atom_site_label_2
_geom_bond_distance
_geom_bond_site_symmetry_2
_ccdc_geom_bond_type
Li0 N17 1.990 . S
Li0 O60 1.956 . S
Li0 O61 1.970 . S
Li0 O62 1.961 . S
Li1 N25 1.990 . S
Li1 O60 1.970 . S
Li1 O61 1.956 . S
Li1 O63 1.961 . S
Li2 N47 1.990 . S
Li2 O60 1.961 . S
Li2 O62 1.956 . S
Li2 O63 1.970 . S
Li3 N53 1.990 . S
Li3 O61 1.961 . S
Li3 O62 1.970 . S
Li3 O63 1.956 . S
C4 C6 1.348 . S
C4 C7 1.356 . S
C4 O60 1.325 . S
N5 C8 1.314 . S
N5 C9 1.279 . S
C6 C4 1.348 . S
C6 C8 1.353 . S
C6 H64 0.929 . S
C7 C4 1.356 . S
C7 C9 1.358 . S
C7 H65 0.930 . S
C8 N5 1.314 . S
C8 C6 1.353 . S
C8 H66 0.930 . S
C9 N5 1.279 . S
C9 C7 1.358 . S
C9 H67 0.930 . S
C10 C13 1.348 . S
C10 C14 1.356 . S
C10 O61 1.325 . S
C11 N12 1.279 . S
C11 C14 1.358 . S
C11 H68 0.930 . S
N12 C11 1.279 . S
N12 C15 1.314 . S
C13 C10 1.348 . S
C13 C15 1.353 . S
C13 H69 0.929 . S
C14 C10 1.356 . S
C14 C11 1.358 . S
C14 H70 0.930 . S
C15 N12 1.314 . S
C15 C13 1.353 . S
C15 H71 0.930 . S
C16 N17 1.314 . S
C16 C21 1.353 . S
C16 H22 0.930 . S
N17 Li0 1.990 . S
N17 C16 1.314 . S
N17 C19 1.279 . S
C18 C19 1.358 . S
C18 C20 1.356 . S
C18 H72 0.930 . S
C19 N17 1.279 . S
C19 C18 1.358 . S
C19 H23 0.930 . S
C20 C18 1.356 . S
C20 C21 1.348 . S
C21 C16 1.353 . S
C21 C20 1.348 . S
C21 H73 0.929 . S
H22 C16 0.930 . S
H23 C19 0.930 . S
C24 N25 1.314 . S
C24 C26 1.353 . S
C24 H30 0.930 . S
N25 Li1 1.990 . S
N25 C24 1.314 . S
N25 C28 1.279 . S
C26 C24 1.353 . S
C26 C29 1.348 . S
C26 H74 0.929 . S
C27 C28 1.358 . S
C27 C29 1.356 . S
C27 H75 0.930 . S
C28 N25 1.279 . S
C28 C27 1.358 . S
C28 H31 0.930 . S
C29 C26 1.348 . S
C29 C27 1.356 . S
H30 C24 0.930 . S
H31 C28 0.930 . S
C32 C34 1.348 . S
C32 C35 1.356 . S
C32 O62 1.325 . S
N33 C36 1.314 . S
N33 C37 1.279 . S
C34 C32 1.348 . S
C34 C36 1.353 . S
C34 H76 0.929 . S
C35 C32 1.356 . S
C35 C37 1.358 . S
C35 H77 0.930 . S
C36 N33 1.314 . S
C36 C34 1.353 . S
C36 H78 0.930 . S
C37 N33 1.279 . S
C37 C35 1.358 . S
C37 H79 0.930 . S
C38 C39 1.348 . S
C38 C40 1.356 . S
C38 O63 1.325 . S
C39 C38 1.348 . S
C39 C41 1.353 . S
C39 H80 0.929 . S
C40 C38 1.356 . S
C40 C42 1.358 . S
C40 H81 0.930 . S
C41 C39 1.353 . S
C41 N43 1.314 . S
C41 H82 0.930 . S
C42 C40 1.358 . S
C42 N43 1.279 . S
C42 H83 0.930 . S
N43 C41 1.314 . S
N43 C42 1.279 . S
C44 C46 1.353 . S
C44 N47 1.314 . S
C44 H50 0.930 . S
C45 N47 1.279 . S
C45 C48 1.358 . S
C45 H51 0.930 . S
C46 C44 1.353 . S
C46 C49 1.348 . S
C46 H84 0.929 . S
N47 Li2 1.990 . S
N47 C44 1.314 . S
N47 C45 1.279 . S
C48 C45 1.358 . S
C48 C49 1.356 . S
C48 H85 0.930 . S
C49 C46 1.348 . S
C49 C48 1.356 . S
H50 C44 0.930 . S
H51 C45 0.930 . S
C52 N53 1.314 . S
C52 C54 1.353 . S
C52 H58 0.930 . S
N53 Li3 1.990 . S
N53 C52 1.314 . S
N53 C56 1.279 . S
C54 C52 1.353 . S
C54 C57 1.348 . S
C54 H86 0.929 . S
C55 C56 1.358 . S
C55 C57 1.356 . S
C55 H87 0.930 . S
C56 N53 1.279 . S
C56 C55 1.358 . S
C56 H59 0.930 . S
C57 C54 1.348 . S
C57 C55 1.356 . S
H58 C52 0.930 . S
H59 C56 0.930 . S
O60 Li0 1.956 . S
O60 Li1 1.970 . S
O60 Li2 1.961 . S
O60 C4 1.325 . S
O61 Li0 1.970 . S
O61 Li1 1.956 . S
O61 Li3 1.961 . S
O61 C10 1.325 . S
O62 Li0 1.961 . S
O62 Li2 1.956 . S
O62 Li3 1.970 . S
O62 C32 1.325 . S
O63 Li1 1.961 . S
O63 Li2 1.970 . S
O63 Li3 1.956 . S
O63 C38 1.325 . S
H64 C6 0.929 . S
H65 C7 0.930 . S
H66 C8 0.930 . S
H67 C9 0.930 . S
H68 C11 0.930 . S
H69 C13 0.929 . S
H70 C14 0.930 . S
H71 C15 0.930 . S
H72 C18 0.930 . S
H73 C21 0.929 . S
H74 C26 0.929 . S
H75 C27 0.930 . S
H76 C34 0.929 . S
H77 C35 0.930 . S
H78 C36 0.930 . S
H79 C37 0.930 . S
H80 C39 0.929 . S
H81 C40 0.930 . S
H82 C41 0.930 . S
H83 C42 0.930 . S
H84 C46 0.929 . S
H85 C48 0.930 . S
H86 C54 0.929 . S
H87 C55 0.930 . S
Li88 N105 1.990 . S
Li88 O148 1.956 . S
Li88 O149 1.970 . S
Li88 O150 1.961 . S
Li89 N113 1.990 . S
Li89 O148 1.970 . S
Li89 O149 1.956 . S
Li89 O151 1.961 . S
Li90 N135 1.990 . S
Li90 O148 1.961 . S
Li90 O150 1.956 . S
Li90 O151 1.970 . S
Li91 N141 1.990 . S
Li91 O149 1.961 . S
Li91 O150 1.970 . S
Li91 O151 1.956 . S
C92 C94 1.348 . S
C92 C95 1.356 . S
C92 O148 1.325 . S
N93 C96 1.314 . S
N93 C97 1.279 . S
C94 C92 1.348 . S
C94 C96 1.353 . S
C94 H152 0.929 . S
C95 C92 1.356 . S
C95 C97 1.358 . S
C95 H153 0.930 . S
C96 N93 1.314 . S
C96 C94 1.353 . S
C96 H154 0.930 . S
C97 N93 1.279 . S
C97 C95 1.358 . S
C97 H155 0.930 . S
C98 C101 1.348 . S
C98 C102 1.356 . S
C98 O149 1.325 . S
C99 N100 1.279 . S
C99 C102 1.358 . S
C99 H156 0.930 . S
N100 C99 1.279 . S
N100 C103 1.314 . S
C101 C98 1.348 . S
C101 C103 1.353 . S
C101 H157 0.929 . S
C102 C98 1.356 . S
C102 C99 1.358 . S
C102 H158 0.930 . S
C103 N100 1.314 . S
C103 C101 1.353 . S
C103 H159 0.930 . S
C104 N105 1.314 . S
C104 C109 1.353 . S
C104 H110 0.930 . S
N105 Li88 1.990 . S
N105 C104 1.314 . S
N105 C107 1.279 . S
C106 C107 1.358 . S
C106 C108 1.356 . S
C106 H160 0.930 . S
C107 N105 1.279 . S
C107 C106 1.358 . S
C107 H111 0.930 . S
C108 C106 1.356 . S
C108 C109 1.348 . S
C109 C104 1.353 . S
C109 C108 1.348 . S
C109 H161 0.929 . S
H110 C104 0.930 . S
H111 C107 0.930 . S
C112 N113 1.314 . S
C112 C114 1.353 . S
C112 H118 0.930 . S
N113 Li89 1.990 . S
N113 C112 1.314 . S
N113 C116 1.279 . S
C114 C112 1.353 . S
C114 C117 1.348 . S
C114 H162 0.929 . S
C115 C116 1.358 . S
C115 C117 1.356 . S
C115 H163 0.930 . S
C116 N113 1.279 . S
C116 C115 1.358 . S
C116 H119 0.930 . S
C117 C114 1.348 . S
C117 C115 1.356 . S
H118 C112 0.930 . S
H119 C116 0.930 . S
C120 C122 1.348 . S
C120 C123 1.356 . S
C120 O150 1.325 . S
N121 C124 1.314 . S
N121 C125 1.279 . S
C122 C120 1.348 . S
C122 C124 1.353 . S
C122 H164 0.929 . S
C123 C120 1.356 . S
C123 C125 1.358 . S
C123 H165 0.930 . S
C124 N121 1.314 . S
C124 C122 1.353 . S
C124 H166 0.930 . S
C125 N121 1.279 . S
C125 C123 1.358 . S
C125 H167 0.930 . S
C126 C127 1.348 . S
C126 C128 1.356 . S
C126 O151 1.325 . S
C127 C126 1.348 . S
C127 C129 1.353 . S
C127 H168 0.929 . S
C128 C126 1.356 . S
C128 C130 1.358 . S
C128 H169 0.930 . S
C129 C127 1.353 . S
C129 N131 1.314 . S
C129 H170 0.930 . S
C130 C128 1.358 . S
C130 N131 1.279 . S
C130 H171 0.930 . S
N131 C129 1.314 . S
N131 C130 1.279 . S
C132 C134 1.353 . S
C132 N135 1.314 . S
C132 H138 0.930 . S
C133 N135 1.279 . S
C133 C136 1.358 . S
C133 H139 0.930 . S
C134 C132 1.353 . S
C134 C137 1.348 . S
C134 H172 0.929 . S
N135 Li90 1.990 . S
N135 C132 1.314 . S
N135 C133 1.279 . S
C136 C133 1.358 . S
C136 C137 1.356 . S
C136 H173 0.930 . S
C137 C134 1.348 . S
C137 C136 1.356 . S
H138 C132 0.930 . S
H139 C133 0.930 . S
C140 N141 1.314 . S
C140 C142 1.353 . S
C140 H146 0.930 . S
N141 Li91 1.990 . S
N141 C140 1.314 . S
N141 C144 1.279 . S
C142 C140 1.353 . S
C142 C145 1.348 . S
C142 H174 0.929 . S
C143 C144 1.358 . S
C143 C145 1.356 . S
C143 H175 0.930 . S
C144 N141 1.279 . S
C144 C143 1.358 . S
C144 H147 0.930 . S
C145 C142 1.348 . S
C145 C143 1.356 . S
H146 C140 0.930 . S
H147 C144 0.930 . S
O148 Li88 1.956 . S
O148 Li89 1.970 . S
O148 Li90 1.961 . S
O148 C92 1.325 . S
O149 Li88 1.970 . S
O149 Li89 1.956 . S
O149 Li91 1.961 . S
O149 C98 1.325 . S
O150 Li88 1.961 . S
O150 Li90 1.956 . S
O150 Li91 1.970 . S
O150 C120 1.325 . S
O151 Li89 1.961 . S
O151 Li90 1.970 . S
O151 Li91 1.956 . S
O151 C126 1.325 . S
H152 C94 0.929 . S
H153 C95 0.930 . S
H154 C96 0.930 . S
H155 C97 0.930 . S
H156 C99 0.930 . S
H157 C101 0.929 . S
H158 C102 0.930 . S
H159 C103 0.930 . S
H160 C106 0.930 . S
H161 C109 0.929 . S
H162 C114 0.929 . S
H163 C115 0.930 . S
H164 C122 0.929 . S
H165 C123 0.930 . S
H166 C124 0.930 . S
H167 C125 0.930 . S
H168 C127 0.929 . S
H169 C128 0.930 . S
H170 C129 0.930 . S
H171 C130 0.930 . S
H172 C134 0.929 . S
H173 C136 0.930 . S
H174 C142 0.929 . S
H175 C143 0.930 . S
Li176 N193 1.990 . S
Li176 O236 1.956 . S
Li176 O237 1.970 . S
Li176 O238 1.961 . S
Li177 N201 1.990 . S
Li177 O236 1.970 . S
Li177 O237 1.956 . S
Li177 O239 1.961 . S
Li178 N223 1.990 . S
Li178 O236 1.961 . S
Li178 O238 1.956 . S
Li178 O239 1.970 . S
Li179 N229 1.990 . S
Li179 O237 1.961 . S
Li179 O238 1.970 . S
Li179 O239 1.956 . S
C180 C182 1.348 . S
C180 C183 1.356 . S
C180 O236 1.325 . S
N181 C184 1.314 . S
N181 C185 1.279 . S
C182 C180 1.348 . S
C182 C184 1.353 . S
C182 H240 0.929 . S
C183 C180 1.356 . S
C183 C185 1.358 . S
C183 H241 0.930 . S
C184 N181 1.314 . S
C184 C182 1.353 . S
C184 H242 0.930 . S
C185 N181 1.279 . S
C185 C183 1.358 . S
C185 H243 0.930 . S
C186 C189 1.348 . S
C186 C190 1.356 . S
C186 O237 1.325 . S
C187 N188 1.279 . S
C187 C190 1.358 . S
C187 H244 0.930 . S
N188 C187 1.279 . S
N188 C191 1.314 . S
C189 C186 1.348 . S
C189 C191 1.353 . S
C189 H245 0.929 . S
C190 C186 1.356 . S
C190 C187 1.358 . S
C190 H246 0.930 . S
C191 N188 1.314 . S
C191 C189 1.353 . S
C191 H247 0.930 . S
C192 N193 1.314 . S
C192 C197 1.353 . S
C192 H198 0.930 . S
N193 Li176 1.990 . S
N193 C192 1.314 . S
N193 C195 1.279 . S
C194 C195 1.358 . S
C194 C196 1.356 . S
C194 H248 0.930 . S
C195 N193 1.279 . S
C195 C194 1.358 . S
C195 H199 0.930 . S
C196 C194 1.356 . S
C196 C197 1.348 . S
C197 C192 1.353 . S
C197 C196 1.348 . S
C197 H249 0.929 . S
H198 C192 0.930 . S
H199 C195 0.930 . S
C200 N201 1.314 . S
C200 C202 1.353 . S
C200 H206 0.930 . S
N201 Li177 1.990 . S
N201 C200 1.314 . S
N201 C204 1.279 . S
C202 C200 1.353 . S
C202 C205 1.348 . S
C202 H250 0.929 . S
C203 C204 1.358 . S
C203 C205 1.356 . S
C203 H251 0.930 . S
C204 N201 1.279 . S
C204 C203 1.358 . S
C204 H207 0.930 . S
C205 C202 1.348 . S
C205 C203 1.356 . S
H206 C200 0.930 . S
H207 C204 0.930 . S
C208 C210 1.348 . S
C208 C211 1.356 . S
C208 O238 1.325 . S
N209 C212 1.314 . S
N209 C213 1.279 . S
C210 C208 1.348 . S
C210 C212 1.353 . S
C210 H252 0.929 . S
C211 C208 1.356 . S
C211 C213 1.358 . S
C211 H253 0.930 . S
C212 N209 1.314 . S
C212 C210 1.353 . S
C212 H254 0.930 . S
C213 N209 1.279 . S
C213 C211 1.358 . S
C213 H255 0.930 . S
C214 C215 1.348 . S
C214 C216 1.356 . S
C214 O239 1.325 . S
C215 C214 1.348 . S
C215 C217 1.353 . S
C215 H256 0.929 . S
C216 C214 1.356 . S
C216 C218 1.358 . S
C216 H257 0.930 . S
C217 C215 1.353 . S
C217 N219 1.314 . S
C217 H258 0.930 . S
C218 C216 1.358 . S
C218 N219 1.279 . S
C218 H259 0.930 . S
N219 C217 1.314 . S
N219 C218 1.279 . S
C220 C222 1.353 . S
C220 N223 1.314 . S
C220 H226 0.930 . S
C221 N223 1.279 . S
C221 C224 1.358 . S
C221 H227 0.930 . S
C222 C220 1.353 . S
C222 C225 1.348 . S
C222 H260 0.929 . S
N223 Li178 1.990 . S
N223 C220 1.314 . S
N223 C221 1.279 . S
C224 C221 1.358 . S
C224 C225 1.356 . S
C224 H261 0.930 . S
C225 C222 1.348 . S
C225 C224 1.356 . S
H226 C220 0.930 . S
H227 C221 0.930 . S
C228 N229 1.314 . S
C228 C230 1.353 . S
C228 H234 0.930 . S
N229 Li179 1.990 . S
N229 C228 1.314 . S
N229 C232 1.279 . S
C230 C228 1.353 . S
C230 C233 1.348 . S
C230 H262 0.929 . S
C231 C232 1.358 . S
C231 C233 1.356 . S
C231 H263 0.930 . S
C232 N229 1.279 . S
C232 C231 1.358 . S
C232 H235 0.930 . S
C233 C230 1.348 . S
C233 C231 1.356 . S
H234 C228 0.930 . S
H235 C232 0.930 . S
O236 Li176 1.956 . S
O236 Li177 1.970 . S
O236 Li178 1.961 . S
O236 C180 1.325 . S
O237 Li176 1.970 . S
O237 Li177 1.956 . S
O237 Li179 1.961 . S
O237 C186 1.325 . S
O238 Li176 1.961 . S
O238 Li178 1.956 . S
O238 Li179 1.970 . S
O238 C208 1.325 . S
O239 Li177 1.961 . S
O239 Li178 1.970 . S
O239 Li179 1.956 . S
O239 C214 1.325 . S
H240 C182 0.929 . S
H241 C183 0.930 . S
H242 C184 0.930 . S
H243 C185 0.930 . S
H244 C187 0.930 . S
H245 C189 0.929 . S
H246 C190 0.930 . S
H247 C191 0.930 . S
H248 C194 0.930 . S
H249 C197 0.929 . S
H250 C202 0.929 . S
H251 C203 0.930 . S
H252 C210 0.929 . S
H253 C211 0.930 . S
H254 C212 0.930 . S
H255 C213 0.930 . S
H256 C215 0.929 . S
H257 C216 0.930 . S
H258 C217 0.930 . S
H259 C218 0.930 . S
H260 C222 0.929 . S
H261 C224 0.930 . S
H262 C230 0.929 . S
H263 C231 0.930 . S
Li264 N281 1.990 . S
Li264 O324 1.956 . S
Li264 O325 1.970 . S
Li264 O326 1.961 . S
Li265 N289 1.990 . S
Li265 O324 1.970 . S
Li265 O325 1.956 . S
Li265 O327 1.961 . S
Li266 N311 1.990 . S
Li266 O324 1.961 . S
Li266 O326 1.956 . S
Li266 O327 1.970 . S
Li267 N317 1.990 . S
Li267 O325 1.961 . S
Li267 O326 1.970 . S
Li267 O327 1.956 . S
C268 C270 1.348 . S
C268 C271 1.356 . S
C268 O324 1.325 . S
N269 C272 1.314 . S
N269 C273 1.279 . S
C270 C268 1.348 . S
C270 C272 1.353 . S
C270 H328 0.929 . S
C271 C268 1.356 . S
C271 C273 1.358 . S
C271 H329 0.930 . S
C272 N269 1.314 . S
C272 C270 1.353 . S
C272 H330 0.930 . S
C273 N269 1.279 . S
C273 C271 1.358 . S
C273 H331 0.930 . S
C274 C277 1.348 . S
C274 C278 1.356 . S
C274 O325 1.325 . S
C275 N276 1.279 . S
C275 C278 1.358 . S
C275 H332 0.930 . S
N276 C275 1.279 . S
N276 C279 1.314 . S
C277 C274 1.348 . S
C277 C279 1.353 . S
C277 H333 0.929 . S
C278 C274 1.356 . S
C278 C275 1.358 . S
C278 H334 0.930 . S
C279 N276 1.314 . S
C279 C277 1.353 . S
C279 H335 0.930 . S
C280 N281 1.314 . S
C280 C285 1.353 . S
C280 H286 0.930 . S
N281 Li264 1.990 . S
N281 C280 1.314 . S
N281 C283 1.279 . S
C282 C283 1.358 . S
C282 C284 1.356 . S
C282 H336 0.930 . S
C283 N281 1.279 . S
C283 C282 1.358 . S
C283 H287 0.930 . S
C284 C282 1.356 . S
C284 C285 1.348 . S
C285 C280 1.353 . S
C285 C284 1.348 . S
C285 H337 0.929 . S
H286 C280 0.930 . S
H287 C283 0.930 . S
C288 N289 1.314 . S
C288 C290 1.353 . S
C288 H294 0.930 . S
N289 Li265 1.990 . S
N289 C288 1.314 . S
N289 C292 1.279 . S
C290 C288 1.353 . S
C290 C293 1.348 . S
C290 H338 0.929 . S
C291 C292 1.358 . S
C291 C293 1.356 . S
C291 H339 0.930 . S
C292 N289 1.279 . S
C292 C291 1.358 . S
C292 H295 0.930 . S
C293 C290 1.348 . S
C293 C291 1.356 . S
H294 C288 0.930 . S
H295 C292 0.930 . S
C296 C298 1.348 . S
C296 C299 1.356 . S
C296 O326 1.325 . S
N297 C300 1.314 . S
N297 C301 1.279 . S
C298 C296 1.348 . S
C298 C300 1.353 . S
C298 H340 0.929 . S
C299 C296 1.356 . S
C299 C301 1.358 . S
C299 H341 0.930 . S
C300 N297 1.314 . S
C300 C298 1.353 . S
C300 H342 0.930 . S
C301 N297 1.279 . S
C301 C299 1.358 . S
C301 H343 0.930 . S
C302 C303 1.348 . S
C302 C304 1.356 . S
C302 O327 1.325 . S
C303 C302 1.348 . S
C303 C305 1.353 . S
C303 H344 0.929 . S
C304 C302 1.356 . S
C304 C306 1.358 . S
C304 H345 0.930 . S
C305 C303 1.353 . S
C305 N307 1.314 . S
C305 H346 0.930 . S
C306 C304 1.358 . S
C306 N307 1.279 . S
C306 H347 0.930 . S
N307 C305 1.314 . S
N307 C306 1.279 . S
C308 C310 1.353 . S
C308 N311 1.314 . S
C308 H314 0.930 . S
C309 N311 1.279 . S
C309 C312 1.358 . S
C309 H315 0.930 . S
C310 C308 1.353 . S
C310 C313 1.348 . S
C310 H348 0.929 . S
N311 Li266 1.990 . S
N311 C308 1.314 . S
N311 C309 1.279 . S
C312 C309 1.358 . S
C312 C313 1.356 . S
C312 H349 0.930 . S
C313 C310 1.348 . S
C313 C312 1.356 . S
H314 C308 0.930 . S
H315 C309 0.930 . S
C316 N317 1.314 . S
C316 C318 1.353 . S
C316 H322 0.930 . S
N317 Li267 1.990 . S
N317 C316 1.314 . S
N317 C320 1.279 . S
C318 C316 1.353 . S
C318 C321 1.348 . S
C318 H350 0.929 . S
C319 C320 1.358 . S
C319 C321 1.356 . S
C319 H351 0.930 . S
C320 N317 1.279 . S
C320 C319 1.358 . S
C320 H323 0.930 . S
C321 C318 1.348 . S
C321 C319 1.356 . S
H322 C316 0.930 . S
H323 C320 0.930 . S
O324 Li264 1.956 . S
O324 Li265 1.970 . S
O324 Li266 1.961 . S
O324 C268 1.325 . S
O325 Li264 1.970 . S
O325 Li265 1.956 . S
O325 Li267 1.961 . S
O325 C274 1.325 . S
O326 Li264 1.961 . S
O326 Li266 1.956 . S
O326 Li267 1.970 . S
O326 C296 1.325 . S
O327 Li265 1.961 . S
O327 Li266 1.970 . S
O327 Li267 1.956 . S
O327 C302 1.325 . S
H328 C270 0.929 . S
H329 C271 0.930 . S
H330 C272 0.930 . S
H331 C273 0.930 . S
H332 C275 0.930 . S
H333 C277 0.929 . S
H334 C278 0.930 . S
H335 C279 0.930 . S
H336 C282 0.930 . S
H337 C285 0.929 . S
H338 C290 0.929 . S
H339 C291 0.930 . S
H340 C298 0.929 . S
H341 C299 0.930 . S
H342 C300 0.930 . S
H343 C301 0.930 . S
H344 C303 0.929 . S
H345 C304 0.930 . S
H346 C305 0.930 . S
H347 C306 0.930 . S
H348 C310 0.929 . S
H349 C312 0.930 . S
H350 C318 0.929 . S
H351 C319 0.930 . S
Li352 N369 1.990 . S
Li352 O412 1.956 . S
Li352 O413 1.970 . S
Li352 O414 1.961 . S
Li353 N377 1.990 . S
Li353 O412 1.970 . S
Li353 O413 1.956 . S
Li353 O415 1.961 . S
Li354 N399 1.990 . S
Li354 O412 1.961 . S
Li354 O414 1.956 . S
Li354 O415 1.970 . S
Li355 N405 1.990 . S
Li355 O413 1.961 . S
Li355 O414 1.970 . S
Li355 O415 1.956 . S
C356 C358 1.348 . S
C356 C359 1.356 . S
C356 O412 1.325 . S
N357 C360 1.314 . S
N357 C361 1.279 . S
C358 C356 1.348 . S
C358 C360 1.353 . S
C358 H416 0.929 . S
C359 C356 1.356 . S
C359 C361 1.358 . S
C359 H417 0.930 . S
C360 N357 1.314 . S
C360 C358 1.353 . S
C360 H418 0.930 . S
C361 N357 1.279 . S
C361 C359 1.358 . S
C361 H419 0.930 . S
C362 C365 1.348 . S
C362 C366 1.356 . S
C362 O413 1.325 . S
C363 N364 1.279 . S
C363 C366 1.358 . S
C363 H420 0.930 . S
N364 C363 1.279 . S
N364 C367 1.314 . S
C365 C362 1.348 . S
C365 C367 1.353 . S
C365 H421 0.929 . S
C366 C362 1.356 . S
C366 C363 1.358 . S
C366 H422 0.930 . S
C367 N364 1.314 . S
C367 C365 1.353 . S
C367 H423 0.930 . S
C368 N369 1.314 . S
C368 C373 1.353 . S
C368 H374 0.930 . S
N369 Li352 1.990 . S
N369 C368 1.314 . S
N369 C371 1.279 . S
C370 C371 1.358 . S
C370 C372 1.356 . S
C370 H424 0.930 . S
C371 N369 1.279 . S
C371 C370 1.358 . S
C371 H375 0.930 . S
C372 C370 1.356 . S
C372 C373 1.348 . S
C373 C368 1.353 . S
C373 C372 1.348 . S
C373 H425 0.929 . S
H374 C368 0.930 . S
H375 C371 0.930 . S
C376 N377 1.314 . S
C376 C378 1.353 . S
C376 H382 0.930 . S
N377 Li353 1.990 . S
N377 C376 1.314 . S
N377 C380 1.279 . S
C378 C376 1.353 . S
C378 C381 1.348 . S
C378 H426 0.929 . S
C379 C380 1.358 . S
C379 C381 1.356 . S
C379 H427 0.930 . S
C380 N377 1.279 . S
C380 C379 1.358 . S
C380 H383 0.930 . S
C381 C378 1.348 . S
C381 C379 1.356 . S
H382 C376 0.930 . S
H383 C380 0.930 . S
C384 C386 1.348 . S
C384 C387 1.356 . S
C384 O414 1.325 . S
N385 C388 1.314 . S
N385 C389 1.279 . S
C386 C384 1.348 . S
C386 C388 1.353 . S
C386 H428 0.929 . S
C387 C384 1.356 . S
C387 C389 1.358 . S
C387 H429 0.930 . S
C388 N385 1.314 . S
C388 C386 1.353 . S
C388 H430 0.930 . S
C389 N385 1.279 . S
C389 C387 1.358 . S
C389 H431 0.930 . S
C390 C391 1.348 . S
C390 C392 1.356 . S
C390 O415 1.325 . S
C391 C390 1.348 . S
C391 C393 1.353 . S
C391 H432 0.929 . S
C392 C390 1.356 . S
C392 C394 1.358 . S
C392 H433 0.930 . S
C393 C391 1.353 . S
C393 N395 1.314 . S
C393 H434 0.930 . S
C394 C392 1.358 . S
C394 N395 1.279 . S
C394 H435 0.930 . S
N395 C393 1.314 . S
N395 C394 1.279 . S
C396 C398 1.353 . S
C396 N399 1.314 . S
C396 H402 0.930 . S
C397 N399 1.279 . S
C397 C400 1.358 . S
C397 H403 0.930 . S
C398 C396 1.353 . S
C398 C401 1.348 . S
C398 H436 0.929 . S
N399 Li354 1.990 . S
N399 C396 1.314 . S
N399 C397 1.279 . S
C400 C397 1.358 . S
C400 C401 1.356 . S
C400 H437 0.930 . S
C401 C398 1.348 . S
C401 C400 1.356 . S
H402 C396 0.930 . S
H403 C397 0.930 . S
C404 N405 1.314 . S
C404 C406 1.353 . S
C404 H410 0.930 . S
N405 Li355 1.990 . S
N405 C404 1.314 . S
N405 C408 1.279 . S
C406 C404 1.353 . S
C406 C409 1.348 . S
C406 H438 0.929 . S
C407 C408 1.358 . S
C407 C409 1.356 . S
C407 H439 0.930 . S
C408 N405 1.279 . S
C408 C407 1.358 . S
C408 H411 0.930 . S
C409 C406 1.348 . S
C409 C407 1.356 . S
H410 C404 0.930 . S
H411 C408 0.930 . S
O412 Li352 1.956 . S
O412 Li353 1.970 . S
O412 Li354 1.961 . S
O412 C356 1.325 . S
O413 Li352 1.970 . S
O413 Li353 1.956 . S
O413 Li355 1.961 . S
O413 C362 1.325 . S
O414 Li352 1.961 . S
O414 Li354 1.956 . S
O414 Li355 1.970 . S
O414 C384 1.325 . S
O415 Li353 1.961 . S
O415 Li354 1.970 . S
O415 Li355 1.956 . S
O415 C390 1.325 . S
H416 C358 0.929 . S
H417 C359 0.930 . S
H418 C360 0.930 . S
H419 C361 0.930 . S
H420 C363 0.930 . S
H421 C365 0.929 . S
H422 C366 0.930 . S
H423 C367 0.930 . S
H424 C370 0.930 . S
H425 C373 0.929 . S
H426 C378 0.929 . S
H427 C379 0.930 . S
H428 C386 0.929 . S
H429 C387 0.930 . S
H430 C388 0.930 . S
H431 C389 0.930 . S
H432 C391 0.929 . S
H433 C392 0.930 . S
H434 C393 0.930 . S
H435 C394 0.930 . S
H436 C398 0.929 . S
H437 C400 0.930 . S
H438 C406 0.929 . S
H439 C407 0.930 . S
Li440 N457 1.990 . S
Li440 O500 1.956 . S
Li440 O501 1.970 . S
Li440 O502 1.961 . S
Li441 N465 1.990 . S
Li441 O500 1.970 . S
Li441 O501 1.956 . S
Li441 O503 1.961 . S
Li442 N487 1.990 . S
Li442 O500 1.961 . S
Li442 O502 1.956 . S
Li442 O503 1.970 . S
Li443 N493 1.990 . S
Li443 O501 1.961 . S
Li443 O502 1.970 . S
Li443 O503 1.956 . S
C444 C446 1.348 . S
C444 C447 1.356 . S
C444 O500 1.325 . S
N445 C448 1.314 . S
N445 C449 1.279 . S
C446 C444 1.348 . S
C446 C448 1.353 . S
C446 H504 0.929 . S
C447 C444 1.356 . S
C447 C449 1.358 . S
C447 H505 0.930 . S
C448 N445 1.314 . S
C448 C446 1.353 . S
C448 H506 0.930 . S
C449 N445 1.279 . S
C449 C447 1.358 . S
C449 H507 0.930 . S
C450 C453 1.348 . S
C450 C454 1.356 . S
C450 O501 1.325 . S
C451 N452 1.279 . S
C451 C454 1.358 . S
C451 H508 0.930 . S
N452 C451 1.279 . S
N452 C455 1.314 . S
C453 C450 1.348 . S
C453 C455 1.353 . S
C453 H509 0.929 . S
C454 C450 1.356 . S
C454 C451 1.358 . S
C454 H510 0.930 . S
C455 N452 1.314 . S
C455 C453 1.353 . S
C455 H511 0.930 . S
C456 N457 1.314 . S
C456 C461 1.353 . S
C456 H462 0.930 . S
N457 Li440 1.990 . S
N457 C456 1.314 . S
N457 C459 1.279 . S
C458 C459 1.358 . S
C458 C460 1.356 . S
C458 H512 0.930 . S
C459 N457 1.279 . S
C459 C458 1.358 . S
C459 H463 0.930 . S
C460 C458 1.356 . S
C460 C461 1.348 . S
C461 C456 1.353 . S
C461 C460 1.348 . S
C461 H513 0.929 . S
H462 C456 0.930 . S
H463 C459 0.930 . S
C464 N465 1.314 . S
C464 C466 1.353 . S
C464 H470 0.930 . S
N465 Li441 1.990 . S
N465 C464 1.314 . S
N465 C468 1.279 . S
C466 C464 1.353 . S
C466 C469 1.348 . S
C466 H514 0.929 . S
C467 C468 1.358 . S
C467 C469 1.356 . S
C467 H515 0.930 . S
C468 N465 1.279 . S
C468 C467 1.358 . S
C468 H471 0.930 . S
C469 C466 1.348 . S
C469 C467 1.356 . S
H470 C464 0.930 . S
H471 C468 0.930 . S
C472 C474 1.348 . S
C472 C475 1.356 . S
C472 O502 1.325 . S
N473 C476 1.314 . S
N473 C477 1.279 . S
C474 C472 1.348 . S
C474 C476 1.353 . S
C474 H516 0.929 . S
C475 C472 1.356 . S
C475 C477 1.358 . S
C475 H517 0.930 . S
C476 N473 1.314 . S
C476 C474 1.353 . S
C476 H518 0.930 . S
C477 N473 1.279 . S
C477 C475 1.358 . S
C477 H519 0.930 . S
C478 C479 1.348 . S
C478 C480 1.356 . S
C478 O503 1.325 . S
C479 C478 1.348 . S
C479 C481 1.353 . S
C479 H520 0.929 . S
C480 C478 1.356 . S
C480 C482 1.358 . S
C480 H521 0.930 . S
C481 C479 1.353 . S
C481 N483 1.314 . S
C481 H522 0.930 . S
C482 C480 1.358 . S
C482 N483 1.279 . S
C482 H523 0.930 . S
N483 C481 1.314 . S
N483 C482 1.279 . S
C484 C486 1.353 . S
C484 N487 1.314 . S
C484 H490 0.930 . S
C485 N487 1.279 . S
C485 C488 1.358 . S
C485 H491 0.930 . S
C486 C484 1.353 . S
C486 C489 1.348 . S
C486 H524 0.929 . S
N487 Li442 1.990 . S
N487 C484 1.314 . S
N487 C485 1.279 . S
C488 C485 1.358 . S
C488 C489 1.356 . S
C488 H525 0.930 . S
C489 C486 1.348 . S
C489 C488 1.356 . S
H490 C484 0.930 . S
H491 C485 0.930 . S
C492 N493 1.314 . S
C492 C494 1.353 . S
C492 H498 0.930 . S
N493 Li443 1.990 . S
N493 C492 1.314 . S
N493 C496 1.279 . S
C494 C492 1.353 . S
C494 C497 1.348 . S
C494 H526 0.929 . S
C495 C496 1.358 . S
C495 C497 1.356 . S
C495 H527 0.930 . S
C496 N493 1.279 . S
C496 C495 1.358 . S
C496 H499 0.930 . S
C497 C494 1.348 . S
C497 C495 1.356 . S
H498 C492 0.930 . S
H499 C496 0.930 . S
O500 Li440 1.956 . S
O500 Li441 1.970 . S
O500 Li442 1.961 . S
O500 C444 1.325 . S
O501 Li440 1.970 . S
O501 Li441 1.956 . S
O501 Li443 1.961 . S
O501 C450 1.325 . S
O502 Li440 1.961 . S
O502 Li442 1.956 . S
O502 Li443 1.970 . S
O502 C472 1.325 . S
O503 Li441 1.961 . S
O503 Li442 1.970 . S
O503 Li443 1.956 . S
O503 C478 1.325 . S
H504 C446 0.929 . S
H505 C447 0.930 . S
H506 C448 0.930 . S
H507 C449 0.930 . S
H508 C451 0.930 . S
H509 C453 0.929 . S
H510 C454 0.930 . S
H511 C455 0.930 . S
H512 C458 0.930 . S
H513 C461 0.929 . S
H514 C466 0.929 . S
H515 C467 0.930 . S
H516 C474 0.929 . S
H517 C475 0.930 . S
H518 C476 0.930 . S
H519 C477 0.930 . S
H520 C479 0.929 . S
H521 C480 0.930 . S
H522 C481 0.930 . S
H523 C482 0.930 . S
H524 C486 0.929 . S
H525 C488 0.930 . S
H526 C494 0.929 . S
H527 C495 0.930 . S
Li528 N545 1.990 . S
Li528 O588 1.956 . S
Li528 O589 1.970 . S
Li528 O590 1.961 . S
Li529 N553 1.990 . S
Li529 O588 1.970 . S
Li529 O589 1.956 . S
Li529 O591 1.961 . S
Li530 N575 1.990 . S
Li530 O588 1.961 . S
Li530 O590 1.956 . S
Li530 O591 1.970 . S
Li531 N581 1.990 . S
Li531 O589 1.961 . S
Li531 O590 1.970 . S
Li531 O591 1.956 . S
C532 C534 1.348 . S
C532 C535 1.356 . S
C532 O588 1.325 . S
N533 C536 1.314 . S
N533 C537 1.279 . S
C534 C532 1.348 . S
C534 C536 1.353 . S
C534 H592 0.929 . S
C535 C532 1.356 . S
C535 C537 1.358 . S
C535 H593 0.930 . S
C536 N533 1.314 . S
C536 C534 1.353 . S
C536 H594 0.930 . S
C537 N533 1.279 . S
C537 C535 1.358 . S
C537 H595 0.930 . S
C538 C541 1.348 . S
C538 C542 1.356 . S
C538 O589 1.325 . S
C539 N540 1.279 . S
C539 C542 1.358 . S
C539 H596 0.930 . S
N540 C539 1.279 . S
N540 C543 1.314 . S
C541 C538 1.348 . S
C541 C543 1.353 . S
C541 H597 0.929 . S
C542 C538 1.356 . S
C542 C539 1.358 . S
C542 H598 0.930 . S
C543 N540 1.314 . S
C543 C541 1.353 . S
C543 H599 0.930 . S
C544 N545 1.314 . S
C544 C549 1.353 . S
C544 H550 0.930 . S
N545 Li528 1.990 . S
N545 C544 1.314 . S
N545 C547 1.279 . S
C546 C547 1.358 . S
C546 C548 1.356 . S
C546 H600 0.930 . S
C547 N545 1.279 . S
C547 C546 1.358 . S
C547 H551 0.930 . S
C548 C546 1.356 . S
C548 C549 1.348 . S
C549 C544 1.353 . S
C549 C548 1.348 . S
C549 H601 0.929 . S
H550 C544 0.930 . S
H551 C547 0.930 . S
C552 N553 1.314 . S
C552 C554 1.353 . S
C552 H558 0.930 . S
N553 Li529 1.990 . S
N553 C552 1.314 . S
N553 C556 1.279 . S
C554 C552 1.353 . S
C554 C557 1.348 . S
C554 H602 0.929 . S
C555 C556 1.358 . S
C555 C557 1.356 . S
C555 H603 0.930 . S
C556 N553 1.279 . S
C556 C555 1.358 . S
C556 H559 0.930 . S
C557 C554 1.348 . S
C557 C555 1.356 . S
H558 C552 0.930 . S
H559 C556 0.930 . S
C560 C562 1.348 . S
C560 C563 1.356 . S
C560 O590 1.325 . S
N561 C564 1.314 . S
N561 C565 1.279 . S
C562 C560 1.348 . S
C562 C564 1.353 . S
C562 H604 0.929 . S
C563 C560 1.356 . S
C563 C565 1.358 . S
C563 H605 0.930 . S
C564 N561 1.314 . S
C564 C562 1.353 . S
C564 H606 0.930 . S
C565 N561 1.279 . S
C565 C563 1.358 . S
C565 H607 0.930 . S
C566 C567 1.348 . S
C566 C568 1.356 . S
C566 O591 1.325 . S
C567 C566 1.348 . S
C567 C569 1.353 . S
C567 H608 0.929 . S
C568 C566 1.356 . S
C568 C570 1.358 . S
C568 H609 0.930 . S
C569 C567 1.353 . S
C569 N571 1.314 . S
C569 H610 0.930 . S
C570 C568 1.358 . S
C570 N571 1.279 . S
C570 H611 0.930 . S
N571 C569 1.314 . S
N571 C570 1.279 . S
C572 C574 1.353 . S
C572 N575 1.314 . S
C572 H578 0.930 . S
C573 N575 1.279 . S
C573 C576 1.358 . S
C573 H579 0.930 . S
C574 C572 1.353 . S
C574 C577 1.348 . S
C574 H612 0.929 . S
N575 Li530 1.990 . S
N575 C572 1.314 . S
N575 C573 1.279 . S
C576 C573 1.358 . S
C576 C577 1.356 . S
C576 H613 0.930 . S
C577 C574 1.348 . S
C577 C576 1.356 . S
H578 C572 0.930 . S
H579 C573 0.930 . S
C580 N581 1.314 . S
C580 C582 1.353 . S
C580 H586 0.930 . S
N581 Li531 1.990 . S
N581 C580 1.314 . S
N581 C584 1.279 . S
C582 C580 1.353 . S
C582 C585 1.348 . S
C582 H614 0.929 . S
C583 C584 1.358 . S
C583 C585 1.356 . S
C583 H615 0.930 . S
C584 N581 1.279 . S
C584 C583 1.358 . S
C584 H587 0.930 . S
C585 C582 1.348 . S
C585 C583 1.356 . S
H586 C580 0.930 . S
H587 C584 0.930 . S
O588 Li528 1.956 . S
O588 Li529 1.970 . S
O588 Li530 1.961 . S
O588 C532 1.325 . S
O589 Li528 1.970 . S
O589 Li529 1.956 . S
O589 Li531 1.961 . S
O589 C538 1.325 . S
O590 Li528 1.961 . S
O590 Li530 1.956 . S
O590 Li531 1.970 . S
O590 C560 1.325 . S
O591 Li529 1.961 . S
O591 Li530 1.970 . S
O591 Li531 1.956 . S
O591 C566 1.325 . S
H592 C534 0.929 . S
H593 C535 0.930 . S
H594 C536 0.930 . S
H595 C537 0.930 . S
H596 C539 0.930 . S
H597 C541 0.929 . S
H598 C542 0.930 . S
H599 C543 0.930 . S
H600 C546 0.930 . S
H601 C549 0.929 . S
H602 C554 0.929 . S
H603 C555 0.930 . S
H604 C562 0.929 . S
H605 C563 0.930 . S
H606 C564 0.930 . S
H607 C565 0.930 . S
H608 C567 0.929 . S
H609 C568 0.930 . S
H610 C569 0.930 . S
H611 C570 0.930 . S
H612 C574 0.929 . S
H613 C576 0.930 . S
H614 C582 0.929 . S
H615 C583 0.930 . S
Li616 N633 1.990 . S
Li616 O676 1.956 . S
Li616 O677 1.970 . S
Li616 O678 1.961 . S
Li617 N641 1.990 . S
Li617 O676 1.970 . S
Li617 O677 1.956 . S
Li617 O679 1.961 . S
Li618 N663 1.990 . S
Li618 O676 1.961 . S
Li618 O678 1.956 . S
Li618 O679 1.970 . S
Li619 N669 1.990 . S
Li619 O677 1.961 . S
Li619 O678 1.970 . S
Li619 O679 1.956 . S
C620 C622 1.348 . S
C620 C623 1.356 . S
C620 O676 1.325 . S
N621 C624 1.314 . S
N621 C625 1.279 . S
C622 C620 1.348 . S
C622 C624 1.353 . S
C622 H680 0.929 . S
C623 C620 1.356 . S
C623 C625 1.358 . S
C623 H681 0.930 . S
C624 N621 1.314 . S
C624 C622 1.353 . S
C624 H682 0.930 . S
C625 N621 1.279 . S
C625 C623 1.358 . S
C625 H683 0.930 . S
C626 C629 1.348 . S
C626 C630 1.356 . S
C626 O677 1.325 . S
C627 N628 1.279 . S
C627 C630 1.358 . S
C627 H684 0.930 . S
N628 C627 1.279 . S
N628 C631 1.314 . S
C629 C626 1.348 . S
C629 C631 1.353 . S
C629 H685 0.929 . S
C630 C626 1.356 . S
C630 C627 1.358 . S
C630 H686 0.930 . S
C631 N628 1.314 . S
C631 C629 1.353 . S
C631 H687 0.930 . S
C632 N633 1.314 . S
C632 C637 1.353 . S
C632 H638 0.930 . S
N633 Li616 1.990 . S
N633 C632 1.314 . S
N633 C635 1.279 . S
C634 C635 1.358 . S
C634 C636 1.356 . S
C634 H688 0.930 . S
C635 N633 1.279 . S
C635 C634 1.358 . S
C635 H639 0.930 . S
C636 C634 1.356 . S
C636 C637 1.348 . S
C637 C632 1.353 . S
C637 C636 1.348 . S
C637 H689 0.929 . S
H638 C632 0.930 . S
H639 C635 0.930 . S
C640 N641 1.314 . S
C640 C642 1.353 . S
C640 H646 0.930 . S
N641 Li617 1.990 . S
N641 C640 1.314 . S
N641 C644 1.279 . S
C642 C640 1.353 . S
C642 C645 1.348 . S
C642 H690 0.929 . S
C643 C644 1.358 . S
C643 C645 1.356 . S
C643 H691 0.930 . S
C644 N641 1.279 . S
C644 C643 1.358 . S
C644 H647 0.930 . S
C645 C642 1.348 . S
C645 C643 1.356 . S
H646 C640 0.930 . S
H647 C644 0.930 . S
C648 C650 1.348 . S
C648 C651 1.356 . S
C648 O678 1.325 . S
N649 C652 1.314 . S
N649 C653 1.279 . S
C650 C648 1.348 . S
C650 C652 1.353 . S
C650 H692 0.929 . S
C651 C648 1.356 . S
C651 C653 1.358 . S
C651 H693 0.930 . S
C652 N649 1.314 . S
C652 C650 1.353 . S
C652 H694 0.930 . S
C653 N649 1.279 . S
C653 C651 1.358 . S
C653 H695 0.930 . S
C654 C655 1.348 . S
C654 C656 1.356 . S
C654 O679 1.325 . S
C655 C654 1.348 . S
C655 C657 1.353 . S
C655 H696 0.929 . S
C656 C654 1.356 . S
C656 C658 1.358 . S
C656 H697 0.930 . S
C657 C655 1.353 . S
C657 N659 1.314 . S
C657 H698 0.930 . S
C658 C656 1.358 . S
C658 N659 1.279 . S
C658 H699 0.930 . S
N659 C657 1.314 . S
N659 C658 1.279 . S
C660 C662 1.353 . S
C660 N663 1.314 . S
C660 H666 0.930 . S
C661 N663 1.279 . S
C661 C664 1.358 . S
C661 H667 0.930 . S
C662 C660 1.353 . S
C662 C665 1.348 . S
C662 H700 0.929 . S
N663 Li618 1.990 . S
N663 C660 1.314 . S
N663 C661 1.279 . S
C664 C661 1.358 . S
C664 C665 1.356 . S
C664 H701 0.930 . S
C665 C662 1.348 . S
C665 C664 1.356 . S
H666 C660 0.930 . S
H667 C661 0.930 . S
C668 N669 1.314 . S
C668 C670 1.353 . S
C668 H674 0.930 . S
N669 Li619 1.990 . S
N669 C668 1.314 . S
N669 C672 1.279 . S
C670 C668 1.353 . S
C670 C673 1.348 . S
C670 H702 0.929 . S
C671 C672 1.358 . S
C671 C673 1.356 . S
C671 H703 0.930 . S
C672 N669 1.279 . S
C672 C671 1.358 . S
C672 H675 0.930 . S
C673 C670 1.348 . S
C673 C671 1.356 . S
H674 C668 0.930 . S
H675 C672 0.930 . S
O676 Li616 1.956 . S
O676 Li617 1.970 . S
O676 Li618 1.961 . S
O676 C620 1.325 . S
O677 Li616 1.970 . S
O677 Li617 1.956 . S
O677 Li619 1.961 . S
O677 C626 1.325 . S
O678 Li616 1.961 . S
O678 Li618 1.956 . S
O678 Li619 1.970 . S
O678 C648 1.325 . S
O679 Li617 1.961 . S
O679 Li618 1.970 . S
O679 Li619 1.956 . S
O679 C654 1.325 . S
H680 C622 0.929 . S
H681 C623 0.930 . S
H682 C624 0.930 . S
H683 C625 0.930 . S
H684 C627 0.930 . S
H685 C629 0.929 . S
H686 C630 0.930 . S
H687 C631 0.930 . S
H688 C634 0.930 . S
H689 C637 0.929 . S
H690 C642 0.929 . S
H691 C643 0.930 . S
H692 C650 0.929 . S
H693 C651 0.930 . S
H694 C652 0.930 . S
H695 C653 0.930 . S
H696 C655 0.929 . S
H697 C656 0.930 . S
H698 C657 0.930 . S
H699 C658 0.930 . S
H700 C662 0.929 . S
H701 C664 0.930 . S
H702 C670 0.929 . S
H703 C671 0.930 . S
Li704 N721 1.990 . S
Li704 O764 1.956 . S
Li704 O765 1.970 . S
Li704 O766 1.961 . S
Li705 N729 1.990 . S
Li705 O764 1.970 . S
Li705 O765 1.956 . S
Li705 O767 1.961 . S
Li706 N751 1.990 . S
Li706 O764 1.961 . S
Li706 O766 1.956 . S
Li706 O767 1.970 . S
Li707 N757 1.990 . S
Li707 O765 1.961 . S
Li707 O766 1.970 . S
Li707 O767 1.956 . S
C708 C710 1.348 . S
C708 C711 1.356 . S
C708 O764 1.325 . S
N709 C712 1.314 . S
N709 C713 1.279 . S
C710 C708 1.348 . S
C710 C712 1.353 . S
C710 H768 0.929 . S
C711 C708 1.356 . S
C711 C713 1.358 . S
C711 H769 0.930 . S
C712 N709 1.314 . S
C712 C710 1.353 . S
C712 H770 0.930 . S
C713 N709 1.279 . S
C713 C711 1.358 . S
C713 H771 0.930 . S
C714 C717 1.348 . S
C714 C718 1.356 . S
C714 O765 1.325 . S
C715 N716 1.279 . S
C715 C718 1.358 . S
C715 H772 0.930 . S
N716 C715 1.279 . S
N716 C719 1.314 . S
C717 C714 1.348 . S
C717 C719 1.353 . S
C717 H773 0.929 . S
C718 C714 1.356 . S
C718 C715 1.358 . S
C718 H774 0.930 . S
C719 N716 1.314 . S
C719 C717 1.353 . S
C719 H775 0.930 . S
C720 N721 1.314 . S
C720 C725 1.353 . S
C720 H726 0.930 . S
N721 Li704 1.990 . S
N721 C720 1.314 . S
N721 C723 1.279 . S
C722 C723 1.358 . S
C722 C724 1.356 . S
C722 H776 0.930 . S
C723 N721 1.279 . S
C723 C722 1.358 . S
C723 H727 0.930 . S
C724 C722 1.356 . S
C724 C725 1.348 . S
C725 C720 1.353 . S
C725 C724 1.348 . S
C725 H777 0.929 . S
H726 C720 0.930 . S
H727 C723 0.930 . S
C728 N729 1.314 . S
C728 C730 1.353 . S
C728 H734 0.930 . S
N729 Li705 1.990 . S
N729 C728 1.314 . S
N729 C732 1.279 . S
C730 C728 1.353 . S
C730 C733 1.348 . S
C730 H778 0.929 . S
C731 C732 1.358 . S
C731 C733 1.356 . S
C731 H779 0.930 . S
C732 N729 1.279 . S
C732 C731 1.358 . S
C732 H735 0.930 . S
C733 C730 1.348 . S
C733 C731 1.356 . S
H734 C728 0.930 . S
H735 C732 0.930 . S
C736 C738 1.348 . S
C736 C739 1.356 . S
C736 O766 1.325 . S
N737 C740 1.314 . S
N737 C741 1.279 . S
C738 C736 1.348 . S
C738 C740 1.353 . S
C738 H780 0.929 . S
C739 C736 1.356 . S
C739 C741 1.358 . S
C739 H781 0.930 . S
C740 N737 1.314 . S
C740 C738 1.353 . S
C740 H782 0.930 . S
C741 N737 1.279 . S
C741 C739 1.358 . S
C741 H783 0.930 . S
C742 C743 1.348 . S
C742 C744 1.356 . S
C742 O767 1.325 . S
C743 C742 1.348 . S
C743 C745 1.353 . S
C743 H784 0.929 . S
C744 C742 1.356 . S
C744 C746 1.358 . S
C744 H785 0.930 . S
C745 C743 1.353 . S
C745 N747 1.314 . S
C745 H786 0.930 . S
C746 C744 1.358 . S
C746 N747 1.279 . S
C746 H787 0.930 . S
N747 C745 1.314 . S
N747 C746 1.279 . S
C748 C750 1.353 . S
C748 N751 1.314 . S
C748 H754 0.930 . S
C749 N751 1.279 . S
C749 C752 1.358 . S
C749 H755 0.930 . S
C750 C748 1.353 . S
C750 C753 1.348 . S
C750 H788 0.929 . S
N751 Li706 1.990 . S
N751 C748 1.314 . S
N751 C749 1.279 . S
C752 C749 1.358 . S
C752 C753 1.356 . S
C752 H789 0.930 . S
C753 C750 1.348 . S
C753 C752 1.356 . S
H754 C748 0.930 . S
H755 C749 0.930 . S
C756 N757 1.314 . S
C756 C758 1.353 . S
C756 H762 0.930 . S
N757 Li707 1.990 . S
N757 C756 1.314 . S
N757 C760 1.279 . S
C758 C756 1.353 . S
C758 C761 1.348 . S
C758 H790 0.929 . S
C759 C760 1.358 . S
C759 C761 1.356 . S
C759 H791 0.930 . S
C760 N757 1.279 . S
C760 C759 1.358 . S
C760 H763 0.930 . S
C761 C758 1.348 . S
C761 C759 1.356 . S
H762 C756 0.930 . S
H763 C760 0.930 . S
O764 Li704 1.956 . S
O764 Li705 1.970 . S
O764 Li706 1.961 . S
O764 C708 1.325 . S
O765 Li704 1.970 . S
O765 Li705 1.956 . S
O765 Li707 1.961 . S
O765 C714 1.325 . S
O766 Li704 1.961 . S
O766 Li706 1.956 . S
O766 Li707 1.970 . S
O766 C736 1.325 . S
O767 Li705 1.961 . S
O767 Li706 1.970 . S
O767 Li707 1.956 . S
O767 C742 1.325 . S
H768 C710 0.929 . S
H769 C711 0.930 . S
H770 C712 0.930 . S
H771 C713 0.930 . S
H772 C715 0.930 . S
H773 C717 0.929 . S
H774 C718 0.930 . S
H775 C719 0.930 . S
H776 C722 0.930 . S
H777 C725 0.929 . S
H778 C730 0.929 . S
H779 C731 0.930 . S
H780 C738 0.929 . S
H781 C739 0.930 . S
H782 C740 0.930 . S
H783 C741 0.930 . S
H784 C743 0.929 . S
H785 C744 0.930 . S
H786 C745 0.930 . S
H787 C746 0.930 . S
H788 C750 0.929 . S
H789 C752 0.930 . S
H790 C758 0.929 . S
H791 C759 0.930 . S
Li792 N809 1.990 . S
Li792 O852 1.956 . S
Li792 O853 1.970 . S
Li792 O854 1.961 . S
Li793 N817 1.990 . S
Li793 O852 1.970 . S
Li793 O853 1.956 . S
Li793 O855 1.961 . S
Li794 N839 1.990 . S
Li794 O852 1.961 . S
Li794 O854 1.956 . S
Li794 O855 1.970 . S
Li795 N845 1.990 . S
Li795 O853 1.961 . S
Li795 O854 1.970 . S
Li795 O855 1.956 . S
C796 C798 1.348 . S
C796 C799 1.356 . S
C796 O852 1.325 . S
N797 C800 1.314 . S
N797 C801 1.279 . S
C798 C796 1.348 . S
C798 C800 1.353 . S
C798 H856 0.929 . S
C799 C796 1.356 . S
C799 C801 1.358 . S
C799 H857 0.930 . S
C800 N797 1.314 . S
C800 C798 1.353 . S
C800 H858 0.930 . S
C801 N797 1.279 . S
C801 C799 1.358 . S
C801 H859 0.930 . S
C802 C805 1.348 . S
C802 C806 1.356 . S
C802 O853 1.325 . S
C803 N804 1.279 . S
C803 C806 1.358 . S
C803 H860 0.930 . S
N804 C803 1.279 . S
N804 C807 1.314 . S
C805 C802 1.348 . S
C805 C807 1.353 . S
C805 H861 0.929 . S
C806 C802 1.356 . S
C806 C803 1.358 . S
C806 H862 0.930 . S
C807 N804 1.314 . S
C807 C805 1.353 . S
C807 H863 0.930 . S
C808 N809 1.314 . S
C808 C813 1.353 . S
C808 H814 0.930 . S
N809 Li792 1.990 . S
N809 C808 1.314 . S
N809 C811 1.279 . S
C810 C811 1.358 . S
C810 C812 1.356 . S
C810 H864 0.930 . S
C811 N809 1.279 . S
C811 C810 1.358 . S
C811 H815 0.930 . S
C812 C810 1.356 . S
C812 C813 1.348 . S
C813 C808 1.353 . S
C813 C812 1.348 . S
C813 H865 0.929 . S
H814 C808 0.930 . S
H815 C811 0.930 . S
C816 N817 1.314 . S
C816 C818 1.353 . S
C816 H822 0.930 . S
N817 Li793 1.990 . S
N817 C816 1.314 . S
N817 C820 1.279 . S
C818 C816 1.353 . S
C818 C821 1.348 . S
C818 H866 0.929 . S
C819 C820 1.358 . S
C819 C821 1.356 . S
C819 H867 0.930 . S
C820 N817 1.279 . S
C820 C819 1.358 . S
C820 H823 0.930 . S
C821 C818 1.348 . S
C821 C819 1.356 . S
H822 C816 0.930 . S
H823 C820 0.930 . S
C824 C826 1.348 . S
C824 C827 1.356 . S
C824 O854 1.325 . S
N825 C828 1.314 . S
N825 C829 1.279 . S
C826 C824 1.348 . S
C826 C828 1.353 . S
C826 H868 0.929 . S
C827 C824 1.356 . S
C827 C829 1.358 . S
C827 H869 0.930 . S
C828 N825 1.314 . S
C828 C826 1.353 . S
C828 H870 0.930 . S
C829 N825 1.279 . S
C829 C827 1.358 . S
C829 H871 0.930 . S
C830 C831 1.348 . S
C830 C832 1.356 . S
C830 O855 1.325 . S
C831 C830 1.348 . S
C831 C833 1.353 . S
C831 H872 0.929 . S
C832 C830 1.356 . S
C832 C834 1.358 . S
C832 H873 0.930 . S
C833 C831 1.353 . S
C833 N835 1.314 . S
C833 H874 0.930 . S
C834 C832 1.358 . S
C834 N835 1.279 . S
C834 H875 0.930 . S
N835 C833 1.314 . S
N835 C834 1.279 . S
C836 C838 1.353 . S
C836 N839 1.314 . S
C836 H842 0.930 . S
C837 N839 1.279 . S
C837 C840 1.358 . S
C837 H843 0.930 . S
C838 C836 1.353 . S
C838 C841 1.348 . S
C838 H876 0.929 . S
N839 Li794 1.990 . S
N839 C836 1.314 . S
N839 C837 1.279 . S
C840 C837 1.358 . S
C840 C841 1.356 . S
C840 H877 0.930 . S
C841 C838 1.348 . S
C841 C840 1.356 . S
H842 C836 0.930 . S
H843 C837 0.930 . S
C844 N845 1.314 . S
C844 C846 1.353 . S
C844 H850 0.930 . S
N845 Li795 1.990 . S
N845 C844 1.314 . S
N845 C848 1.279 . S
C846 C844 1.353 . S
C846 C849 1.348 . S
C846 H878 0.929 . S
C847 C848 1.358 . S
C847 C849 1.356 . S
C847 H879 0.930 . S
C848 N845 1.279 . S
C848 C847 1.358 . S
C848 H851 0.930 . S
C849 C846 1.348 . S
C849 C847 1.356 . S
H850 C844 0.930 . S
H851 C848 0.930 . S
O852 Li792 1.956 . S
O852 Li793 1.970 . S
O852 Li794 1.961 . S
O852 C796 1.325 . S
O853 Li792 1.970 . S
O853 Li793 1.956 . S
O853 Li795 1.961 . S
O853 C802 1.325 . S
O854 Li792 1.961 . S
O854 Li794 1.956 . S
O854 Li795 1.970 . S
O854 C824 1.325 . S
O855 Li793 1.961 . S
O855 Li794 1.970 . S
O855 Li795 1.956 . S
O855 C830 1.325 . S
H856 C798 0.929 . S
H857 C799 0.930 . S
H858 C800 0.930 . S
H859 C801 0.930 . S
H860 C803 0.930 . S
H861 C805 0.929 . S
H862 C806 0.930 . S
H863 C807 0.930 . S
H864 C810 0.930 . S
H865 C813 0.929 . S
H866 C818 0.929 . S
H867 C819 0.930 . S
H868 C826 0.929 . S
H869 C827 0.930 . S
H870 C828 0.930 . S
H871 C829 0.930 . S
H872 C831 0.929 . S
H873 C832 0.930 . S
H874 C833 0.930 . S
H875 C834 0.930 . S
H876 C838 0.929 . S
H877 C840 0.930 . S
H878 C846 0.929 . S
H879 C847 0.930 . S
Li880 N897 1.990 . S
Li880 O940 1.956 . S
Li880 O941 1.970 . S
Li880 O942 1.961 . S
Li881 N905 1.990 . S
Li881 O940 1.970 . S
Li881 O941 1.956 . S
Li881 O943 1.961 . S
Li882 N927 1.990 . S
Li882 O940 1.961 . S
Li882 O942 1.956 . S
Li882 O943 1.970 . S
Li883 N933 1.990 . S
Li883 O941 1.961 . S
Li883 O942 1.970 . S
Li883 O943 1.956 . S
C884 C886 1.348 . S
C884 C887 1.356 . S
C884 O940 1.325 . S
N885 C888 1.314 . S
N885 C889 1.279 . S
C886 C884 1.348 . S
C886 C888 1.353 . S
C886 H944 0.929 . S
C887 C884 1.356 . S
C887 C889 1.358 . S
C887 H945 0.930 . S
C888 N885 1.314 . S
C888 C886 1.353 . S
C888 H946 0.930 . S
C889 N885 1.279 . S
C889 C887 1.358 . S
C889 H947 0.930 . S
C890 C893 1.348 . S
C890 C894 1.356 . S
C890 O941 1.325 . S
C891 N892 1.279 . S
C891 C894 1.358 . S
C891 H948 0.930 . S
N892 C891 1.279 . S
N892 C895 1.314 . S
C893 C890 1.348 . S
C893 C895 1.353 . S
C893 H949 0.929 . S
C894 C890 1.356 . S
C894 C891 1.358 . S
C894 H950 0.930 . S
C895 N892 1.314 . S
C895 C893 1.353 . S
C895 H951 0.930 . S
C896 N897 1.314 . S
C896 C901 1.353 . S
C896 H902 0.930 . S
N897 Li880 1.990 . S
N897 C896 1.314 . S
N897 C899 1.279 . S
C898 C899 1.358 . S
C898 C900 1.356 . S
C898 H952 0.930 . S
C899 N897 1.279 . S
C899 C898 1.358 . S
C899 H903 0.930 . S
C900 C898 1.356 . S
C900 C901 1.348 . S
C901 C896 1.353 . S
C901 C900 1.348 . S
C901 H953 0.929 . S
H902 C896 0.930 . S
H903 C899 0.930 . S
C904 N905 1.314 . S
C904 C906 1.353 . S
C904 H910 0.930 . S
N905 Li881 1.990 . S
N905 C904 1.314 . S
N905 C908 1.279 . S
C906 C904 1.353 . S
C906 C909 1.348 . S
C906 H954 0.929 . S
C907 C908 1.358 . S
C907 C909 1.356 . S
C907 H955 0.930 . S
C908 N905 1.279 . S
C908 C907 1.358 . S
C908 H911 0.930 . S
C909 C906 1.348 . S
C909 C907 1.356 . S
H910 C904 0.930 . S
H911 C908 0.930 . S
C912 C914 1.348 . S
C912 C915 1.356 . S
C912 O942 1.325 . S
N913 C916 1.314 . S
N913 C917 1.279 . S
C914 C912 1.348 . S
C914 C916 1.353 . S
C914 H956 0.929 . S
C915 C912 1.356 . S
C915 C917 1.358 . S
C915 H957 0.930 . S
C916 N913 1.314 . S
C916 C914 1.353 . S
C916 H958 0.930 . S
C917 N913 1.279 . S
C917 C915 1.358 . S
C917 H959 0.930 . S
C918 C919 1.348 . S
C918 C920 1.356 . S
C918 O943 1.325 . S
C919 C918 1.348 . S
C919 C921 1.353 . S
C919 H960 0.929 . S
C920 C918 1.356 . S
C920 C922 1.358 . S
C920 H961 0.930 . S
C921 C919 1.353 . S
C921 N923 1.314 . S
C921 H962 0.930 . S
C922 C920 1.358 . S
C922 N923 1.279 . S
C922 H963 0.930 . S
N923 C921 1.314 . S
N923 C922 1.279 . S
C924 C926 1.353 . S
C924 N927 1.314 . S
C924 H930 0.930 . S
C925 N927 1.279 . S
C925 C928 1.358 . S
C925 H931 0.930 . S
C926 C924 1.353 . S
C926 C929 1.348 . S
C926 H964 0.929 . S
N927 Li882 1.990 . S
N927 C924 1.314 . S
N927 C925 1.279 . S
C928 C925 1.358 . S
C928 C929 1.356 . S
C928 H965 0.930 . S
C929 C926 1.348 . S
C929 C928 1.356 . S
H930 C924 0.930 . S
H931 C925 0.930 . S
C932 N933 1.314 . S
C932 C934 1.353 . S
C932 H938 0.930 . S
N933 Li883 1.990 . S
N933 C932 1.314 . S
N933 C936 1.279 . S
C934 C932 1.353 . S
C934 C937 1.348 . S
C934 H966 0.929 . S
C935 C936 1.358 . S
C935 C937 1.356 . S
C935 H967 0.930 . S
C936 N933 1.279 . S
C936 C935 1.358 . S
C936 H939 0.930 . S
C937 C934 1.348 . S
C937 C935 1.356 . S
H938 C932 0.930 . S
H939 C936 0.930 . S
O940 Li880 1.956 . S
O940 Li881 1.970 . S
O940 Li882 1.961 . S
O940 C884 1.325 . S
O941 Li880 1.970 . S
O941 Li881 1.956 . S
O941 Li883 1.961 . S
O941 C890 1.325 . S
O942 Li880 1.961 . S
O942 Li882 1.956 . S
O942 Li883 1.970 . S
O942 C912 1.325 . S
O943 Li881 1.961 . S
O943 Li882 1.970 . S
O943 Li883 1.956 . S
O943 C918 1.325 . S
H944 C886 0.929 . S
H945 C887 0.930 . S
H946 C888 0.930 . S
H947 C889 0.930 . S
H948 C891 0.930 . S
H949 C893 0.929 . S
H950 C894 0.930 . S
H951 C895 0.930 . S
H952 C898 0.930 . S
H953 C901 0.929 . S
H954 C906 0.929 . S
H955 C907 0.930 . S
H956 C914 0.929 . S
H957 C915 0.930 . S
H958 C916 0.930 . S
H959 C917 0.930 . S
H960 C919 0.929 . S
H961 C920 0.930 . S
H962 C921 0.930 . S
H963 C922 0.930 . S
H964 C926 0.929 . S
H965 C928 0.930 . S
H966 C934 0.929 . S
H967 C935 0.930 . S
Li968 N985 1.990 . S
Li968 O1028 1.956 . S
Li968 O1029 1.970 . S
Li968 O1030 1.961 . S
Li969 N993 1.990 . S
Li969 O1028 1.970 . S
Li969 O1029 1.956 . S
Li969 O1031 1.961 . S
Li970 N1015 1.990 . S
Li970 O1028 1.961 . S
Li970 O1030 1.956 . S
Li970 O1031 1.970 . S
Li971 N1021 1.990 . S
Li971 O1029 1.961 . S
Li971 O1030 1.970 . S
Li971 O1031 1.956 . S
C972 C974 1.348 . S
C972 C975 1.356 . S
C972 O1028 1.325 . S
N973 C976 1.314 . S
N973 C977 1.279 . S
C974 C972 1.348 . S
C974 C976 1.353 . S
C974 H1032 0.929 . S
C975 C972 1.356 . S
C975 C977 1.358 . S
C975 H1033 0.930 . S
C976 N973 1.314 . S
C976 C974 1.353 . S
C976 H1034 0.930 . S
C977 N973 1.279 . S
C977 C975 1.358 . S
C977 H1035 0.930 . S
C978 C981 1.348 . S
C978 C982 1.356 . S
C978 O1029 1.325 . S
C979 N980 1.279 . S
C979 C982 1.358 . S
C979 H1036 0.930 . S
N980 C979 1.279 . S
N980 C983 1.314 . S
C981 C978 1.348 . S
C981 C983 1.353 . S
C981 H1037 0.929 . S
C982 C978 1.356 . S
C982 C979 1.358 . S
C982 H1038 0.930 . S
C983 N980 1.314 . S
C983 C981 1.353 . S
C983 H1039 0.930 . S
C984 N985 1.314 . S
C984 C989 1.353 . S
C984 H990 0.930 . S
N985 Li968 1.990 . S
N985 C984 1.314 . S
N985 C987 1.279 . S
C986 C987 1.358 . S
C986 C988 1.356 . S
C986 H1040 0.930 . S
C987 N985 1.279 . S
C987 C986 1.358 . S
C987 H991 0.930 . S
C988 C986 1.356 . S
C988 C989 1.348 . S
C989 C984 1.353 . S
C989 C988 1.348 . S
C989 H1041 0.929 . S
H990 C984 0.930 . S
H991 C987 0.930 . S
C992 N993 1.314 . S
C992 C994 1.353 . S
C992 H998 0.930 . S
N993 Li969 1.990 . S
N993 C992 1.314 . S
N993 C996 1.279 . S
C994 C992 1.353 . S
C994 C997 1.348 . S
C994 H1042 0.929 . S
C995 C996 1.358 . S
C995 C997 1.356 . S
C995 H1043 0.930 . S
C996 N993 1.279 . S
C996 C995 1.358 . S
C996 H999 0.930 . S
C997 C994 1.348 . S
C997 C995 1.356 . S
H998 C992 0.930 . S
H999 C996 0.930 . S
C1000 C1002 1.348 . S
C1000 C1003 1.356 . S
C1000 O1030 1.325 . S
N1001 C1004 1.314 . S
N1001 C1005 1.279 . S
C1002 C1000 1.348 . S
C1002 C1004 1.353 . S
C1002 H1044 0.929 . S
C1003 C1000 1.356 . S
C1003 C1005 1.358 . S
C1003 H1045 0.930 . S
C1004 N1001 1.314 . S
C1004 C1002 1.353 . S
C1004 H1046 0.930 . S
C1005 N1001 1.279 . S
C1005 C1003 1.358 . S
C1005 H1047 0.930 . S
C1006 C1007 1.348 . S
C1006 C1008 1.356 . S
C1006 O1031 1.325 . S
C1007 C1006 1.348 . S
C1007 C1009 1.353 . S
C1007 H1048 0.929 . S
C1008 C1006 1.356 . S
C1008 C1010 1.358 . S
C1008 H1049 0.930 . S
C1009 C1007 1.353 . S
C1009 N1011 1.314 . S
C1009 H1050 0.930 . S
C1010 C1008 1.358 . S
C1010 N1011 1.279 . S
C1010 H1051 0.930 . S
N1011 C1009 1.314 . S
N1011 C1010 1.279 . S
C1012 C1014 1.353 . S
C1012 N1015 1.314 . S
C1012 H1018 0.930 . S
C1013 N1015 1.279 . S
C1013 C1016 1.358 . S
C1013 H1019 0.930 . S
C1014 C1012 1.353 . S
C1014 C1017 1.348 . S
C1014 H1052 0.929 . S
N1015 Li970 1.990 . S
N1015 C1012 1.314 . S
N1015 C1013 1.279 . S
C1016 C1013 1.358 . S
C1016 C1017 1.356 . S
C1016 H1053 0.930 . S
C1017 C1014 1.348 . S
C1017 C1016 1.356 . S
H1018 C1012 0.930 . S
H1019 C1013 0.930 . S
C1020 N1021 1.314 . S
C1020 C1022 1.353 . S
C1020 H1026 0.930 . S
N1021 Li971 1.990 . S
N1021 C1020 1.314 . S
N1021 C1024 1.279 . S
C1022 C1020 1.353 . S
C1022 C1025 1.348 . S
C1022 H1054 0.929 . S
C1023 C1024 1.358 . S
C1023 C1025 1.356 . S
C1023 H1055 0.930 . S
C1024 N1021 1.279 . S
C1024 C1023 1.358 . S
C1024 H1027 0.930 . S
C1025 C1022 1.348 . S
C1025 C1023 1.356 . S
H1026 C1020 0.930 . S
H1027 C1024 0.930 . S
O1028 Li968 1.956 . S
O1028 Li969 1.970 . S
O1028 Li970 1.961 . S
O1028 C972 1.325 . S
O1029 Li968 1.970 . S
O1029 Li969 1.956 . S
O1029 Li971 1.961 . S
O1029 C978 1.325 . S
O1030 Li968 1.961 . S
O1030 Li970 1.956 . S
O1030 Li971 1.970 . S
O1030 C1000 1.325 . S
O1031 Li969 1.961 . S
O1031 Li970 1.970 . S
O1031 Li971 1.956 . S
O1031 C1006 1.325 . S
H1032 C974 0.929 . S
H1033 C975 0.930 . S
H1034 C976 0.930 . S
H1035 C977 0.930 . S
H1036 C979 0.930 . S
H1037 C981 0.929 . S
H1038 C982 0.930 . S
H1039 C983 0.930 . S
H1040 C986 0.930 . S
H1041 C989 0.929 . S
H1042 C994 0.929 . S
H1043 C995 0.930 . S
H1044 C1002 0.929 . S
H1045 C1003 0.930 . S
H1046 C1004 0.930 . S
H1047 C1005 0.930 . S
H1048 C1007 0.929 . S
H1049 C1008 0.930 . S
H1050 C1009 0.930 . S
H1051 C1010 0.930 . S
H1052 C1014 0.929 . S
H1053 C1016 0.930 . S
H1054 C1022 0.929 . S
H1055 C1023 0.930 . S
C1056 C1057 1.349 . S
C1056 C1058 1.327 . S
C1056 H1081 0.950 . S
C1057 C1056 1.349 . S
C1057 C1073 1.349 . S
C1058 C1056 1.327 . S
C1058 C1077 1.429 . S
C1058 H1082 0.950 . S
C1059 C1076 1.574 . S
C1059 C1078 1.368 . S
C1059 H1083 0.949 . S
H1060 C1064 0.949 . S
C1061 C1062 1.349 . S
C1061 C1063 1.327 . S
C1061 H1084 0.950 . S
C1062 C1061 1.349 . S
C1062 C1074 1.349 . S
C1063 C1061 1.327 . S
C1063 C1079 1.429 . S
C1063 H1085 0.950 . S
C1064 H1060 0.949 . S
C1064 C1072 1.574 . S
C1064 C1080 1.368 . S
H1065 C1073 0.950 . S
H1066 C1071 0.950 . S
H1067 C1072 0.949 . S
H1068 C1074 0.950 . S
H1069 C1075 0.950 . S
H1070 C1076 0.949 . S
C1071 H1066 0.950 . S
C1071 C1073 1.327 . S
C1071 C1077 1.429 . S
C1072 C1064 1.574 . S
C1072 H1067 0.949 . S
C1072 C1078 1.368 . S
C1073 C1057 1.349 . S
C1073 H1065 0.950 . S
C1073 C1071 1.327 . S
C1074 C1062 1.349 . S
C1074 H1068 0.950 . S
C1074 C1075 1.327 . S
C1075 H1069 0.950 . S
C1075 C1074 1.327 . S
C1075 C1079 1.429 . S
C1076 C1059 1.574 . S
C1076 H1070 0.949 . S
C1076 C1080 1.368 . S
C1077 C1058 1.429 . S
C1077 C1071 1.429 . S
C1077 C1078 1.523 . S
C1078 C1059 1.368 . S
C1078 C1072 1.368 . S
C1078 C1077 1.523 . S
C1079 C1063 1.429 . S
C1079 C1075 1.429 . S
C1079 C1080 1.523 . S
C1080 C1064 1.368 . S
C1080 C1076 1.368 . S
C1080 C1079 1.523 . S
H1081 C1056 0.950 . S
H1082 C1058 0.950 . S
H1083 C1059 0.949 . S
H1084 C1061 0.950 . S
H1085 C1063 0.950 . S
C1086 C1087 1.349 . S
C1086 C1088 1.327 . S
C1086 H1111 0.950 . S
C1087 C1086 1.349 . S
C1087 C1103 1.349 . S
C1088 C1086 1.327 . S
C1088 C1107 1.429 . S
C1088 H1112 0.950 . S
C1089 C1106 1.574 . S
C1089 C1108 1.368 . S
C1089 H1113 0.949 . S
H1090 C1094 0.949 . S
C1091 C1092 1.349 . S
C1091 C1093 1.327 . S
C1091 H1114 0.950 . S
C1092 C1091 1.349 . S
C1092 C1104 1.349 . S
C1093 C1091 1.327 . S
C1093 C1109 1.429 . S
C1093 H1115 0.950 . S
C1094 H1090 0.949 . S
C1094 C1102 1.574 . S
C1094 C1110 1.368 . S
H1095 C1103 0.950 . S
H1096 C1101 0.950 . S
H1097 C1102 0.949 . S
H1098 C1104 0.950 . S
H1099 C1105 0.950 . S
H1100 C1106 0.949 . S
C1101 H1096 0.950 . S
C1101 C1103 1.327 . S
C1101 C1107 1.429 . S
C1102 C1094 1.574 . S
C1102 H1097 0.949 . S
C1102 C1108 1.368 . S
C1103 C1087 1.349 . S
C1103 H1095 0.950 . S
C1103 C1101 1.327 . S
C1104 C1092 1.349 . S
C1104 H1098 0.950 . S
C1104 C1105 1.327 . S
C1105 H1099 0.950 . S
C1105 C1104 1.327 . S
C1105 C1109 1.429 . S
C1106 C1089 1.574 . S
C1106 H1100 0.949 . S
C1106 C1110 1.368 . S
C1107 C1088 1.429 . S
C1107 C1101 1.429 . S
C1107 C1108 1.523 . S
C1108 C1089 1.368 . S
C1108 C1102 1.368 . S
C1108 C1107 1.523 . S
C1109 C1093 1.429 . S
C1109 C1105 1.429 . S
C1109 C1110 1.523 . S
C1110 C1094 1.368 . S
C1110 C1106 1.368 . S
C1110 C1109 1.523 . S
H1111 C1086 0.950 . S
H1112 C1088 0.950 . S
H1113 C1089 0.949 . S
H1114 C1091 0.950 . S
H1115 C1093 0.950 . S
C1116 C1117 1.349 . S
C1116 C1118 1.327 . S
C1116 H1141 0.950 . S
C1117 C1116 1.349 . S
C1117 C1133 1.349 . S
C1118 C1116 1.327 . S
C1118 C1137 1.429 . S
C1118 H1142 0.950 . S
C1119 C1136 1.574 . S
C1119 C1138 1.368 . S
C1119 H1143 0.949 . S
H1120 C1124 0.949 . S
C1121 C1122 1.349 . S
C1121 C1123 1.327 . S
C1121 H1144 0.950 . S
C1122 C1121 1.349 . S
C1122 C1134 1.349 . S
C1123 C1121 1.327 . S
C1123 C1139 1.429 . S
C1123 H1145 0.950 . S
C1124 H1120 0.949 . S
C1124 C1132 1.574 . S
C1124 C1140 1.368 . S
H1125 C1133 0.950 . S
H1126 C1131 0.950 . S
H1127 C1132 0.949 . S
H1128 C1134 0.950 . S
H1129 C1135 0.950 . S
H1130 C1136 0.949 . S
C1131 H1126 0.950 . S
C1131 C1133 1.327 . S
C1131 C1137 1.429 . S
C1132 C1124 1.574 . S
C1132 H1127 0.949 . S
C1132 C1138 1.368 . S
C1133 C1117 1.349 . S
C1133 H1125 0.950 . S
C1133 C1131 1.327 . S
C1134 C1122 1.349 . S
C1134 H1128 0.950 . S
C1134 C1135 1.327 . S
C1135 H1129 0.950 . S
C1135 C1134 1.327 . S
C1135 C1139 1.429 . S
C1136 C1119 1.574 . S
C1136 H1130 0.949 . S
C1136 C1140 1.368 . S
C1137 C1118 1.429 . S
C1137 C1131 1.429 . S
C1137 C1138 1.523 . S
C1138 C1119 1.368 . S
C1138 C1132 1.368 . S
C1138 C1137 1.523 . S
C1139 C1123 1.429 . S
C1139 C1135 1.429 . S
C1139 C1140 1.523 . S
C1140 C1124 1.368 . S
C1140 C1136 1.368 . S
C1140 C1139 1.523 . S
H1141 C1116 0.950 . S
H1142 C1118 0.950 . S
H1143 C1119 0.949 . S
H1144 C1121 0.950 . S
H1145 C1123 0.950 . S
C1146 C1147 1.349 . S
C1146 C1148 1.327 . S
C1146 H1171 0.950 . S
C1147 C1146 1.349 . S
C1147 C1163 1.349 . S
C1148 C1146 1.327 . S
C1148 C1167 1.429 . S
C1148 H1172 0.950 . S
C1149 C1166 1.574 . S
C1149 C1168 1.368 . S
C1149 H1173 0.949 . S
H1150 C1154 0.949 . S
C1151 C1152 1.349 . S
C1151 C1153 1.327 . S
C1151 H1174 0.950 . S
C1152 C1151 1.349 . S
C1152 C1164 1.349 . S
C1153 C1151 1.327 . S
C1153 C1169 1.429 . S
C1153 H1175 0.950 . S
C1154 H1150 0.949 . S
C1154 C1162 1.574 . S
C1154 C1170 1.368 . S
H1155 C1163 0.950 . S
H1156 C1161 0.950 . S
H1157 C1162 0.949 . S
H1158 C1164 0.950 . S
H1159 C1165 0.950 . S
H1160 C1166 0.949 . S
C1161 H1156 0.950 . S
C1161 C1163 1.327 . S
C1161 C1167 1.429 . S
C1162 C1154 1.574 . S
C1162 H1157 0.949 . S
C1162 C1168 1.368 . S
C1163 C1147 1.349 . S
C1163 H1155 0.950 . S
C1163 C1161 1.327 . S
C1164 C1152 1.349 . S
C1164 H1158 0.950 . S
C1164 C1165 1.327 . S
C1165 H1159 0.950 . S
C1165 C1164 1.327 . S
C1165 C1169 1.429 . S
C1166 C1149 1.574 . S
C1166 H1160 0.949 . S
C1166 C1170 1.368 . S
C1167 C1148 1.429 . S
C1167 C1161 1.429 . S
C1167 C1168 1.523 . S
C1168 C1149 1.368 . S
C1168 C1162 1.368 . S
C1168 C1167 1.523 . S
C1169 C1153 1.429 . S
C1169 C1165 1.429 . S
C1169 C1170 1.523 . S
C1170 C1154 1.368 . S
C1170 C1166 1.368 . S
C1170 C1169 1.523 . S
H1171 C1146 0.950 . S
H1172 C1148 0.950 . S
H1173 C1149 0.949 . S
H1174 C1151 0.950 . S
H1175 C1153 0.950 . S
C1176 C1177 1.349 . S
C1176 C1178 1.327 . S
C1176 H1201 0.950 . S
C1177 C1176 1.349 . S
C1177 C1193 1.349 . S
C1178 C1176 1.327 . S
C1178 C1197 1.429 . S
C1178 H1202 0.950 . S
C1179 C1196 1.574 . S
C1179 C1198 1.368 . S
C1179 H1203 0.949 . S
H1180 C1184 0.949 . S
C1181 C1182 1.349 . S
C1181 C1183 1.327 . S
C1181 H1204 0.950 . S
C1182 C1181 1.349 . S
C1182 C1194 1.349 . S
C1183 C1181 1.327 . S
C1183 C1199 1.429 . S
C1183 H1205 0.950 . S
C1184 H1180 0.949 . S
C1184 C1192 1.574 . S
C1184 C1200 1.368 . S
H1185 C1193 0.950 . S
H1186 C1191 0.950 . S
H1187 C1192 0.949 . S
H1188 C1194 0.950 . S
H1189 C1195 0.950 . S
H1190 C1196 0.949 . S
C1191 H1186 0.950 . S
C1191 C1193 1.327 . S
C1191 C1197 1.429 . S
C1192 C1184 1.574 . S
C1192 H1187 0.949 . S
C1192 C1198 1.368 . S
C1193 C1177 1.349 . S
C1193 H1185 0.950 . S
C1193 C1191 1.327 . S
C1194 C1182 1.349 . S
C1194 H1188 0.950 . S
C1194 C1195 1.327 . S
C1195 H1189 0.950 . S
C1195 C1194 1.327 . S
C1195 C1199 1.429 . S
C1196 C1179 1.574 . S
C1196 H1190 0.949 . S
C1196 C1200 1.368 . S
C1197 C1178 1.429 . S
C1197 C1191 1.429 . S
C1197 C1198 1.523 . S
C1198 C1179 1.368 . S
C1198 C1192 1.368 . S
C1198 C1197 1.523 . S
C1199 C1183 1.429 . S
C1199 C1195 1.429 . S
C1199 C1200 1.523 . S
C1200 C1184 1.368 . S
C1200 C1196 1.368 . S
C1200 C1199 1.523 . S
H1201 C1176 0.950 . S
H1202 C1178 0.950 . S
H1203 C1179 0.949 . S
H1204 C1181 0.950 . S
H1205 C1183 0.950 . S
C1206 C1207 1.349 . S
C1206 C1208 1.327 . S
C1206 H1231 0.950 . S
C1207 C1206 1.349 . S
C1207 C1223 1.349 . S
C1208 C1206 1.327 . S
C1208 C1227 1.429 . S
C1208 H1232 0.950 . S
C1209 C1226 1.574 . S
C1209 C1228 1.368 . S
C1209 H1233 0.949 . S
H1210 C1214 0.949 . S
C1211 C1212 1.349 . S
C1211 C1213 1.327 . S
C1211 H1234 0.950 . S
C1212 C1211 1.349 . S
C1212 C1224 1.349 . S
C1213 C1211 1.327 . S
C1213 C1229 1.429 . S
C1213 H1235 0.950 . S
C1214 H1210 0.949 . S
C1214 C1222 1.574 . S
C1214 C1230 1.368 . S
H1215 C1223 0.950 . S
H1216 C1221 0.950 . S
H1217 C1222 0.949 . S
H1218 C1224 0.950 . S
H1219 C1225 0.950 . S
H1220 C1226 0.949 . S
C1221 H1216 0.950 . S
C1221 C1223 1.327 . S
C1221 C1227 1.429 . S
C1222 C1214 1.574 . S
C1222 H1217 0.949 . S
C1222 C1228 1.368 . S
C1223 C1207 1.349 . S
C1223 H1215 0.950 . S
C1223 C1221 1.327 . S
C1224 C1212 1.349 . S
C1224 H1218 0.950 . S
C1224 C1225 1.327 . S
C1225 H1219 0.950 . S
C1225 C1224 1.327 . S
C1225 C1229 1.429 . S
C1226 C1209 1.574 . S
C1226 H1220 0.949 . S
C1226 C1230 1.368 . S
C1227 C1208 1.429 . S
C1227 C1221 1.429 . S
C1227 C1228 1.523 . S
C1228 C1209 1.368 . S
C1228 C1222 1.368 . S
C1228 C1227 1.523 . S
C1229 C1213 1.429 . S
C1229 C1225 1.429 . S
C1229 C1230 1.523 . S
C1230 C1214 1.368 . S
C1230 C1226 1.368 . S
C1230 C1229 1.523 . S
H1231 C1206 0.950 . S
H1232 C1208 0.950 . S
H1233 C1209 0.949 . S
H1234 C1211 0.950 . S
H1235 C1213 0.950 . S
C1236 C1237 1.349 . S
C1236 C1238 1.327 . S
C1236 H1261 0.950 . S
C1237 C1236 1.349 . S
C1237 C1253 1.349 . S
C1238 C1236 1.327 . S
C1238 C1257 1.429 . S
C1238 H1262 0.950 . S
C1239 C1256 1.574 1_545 S
C1239 C1258 1.368 1_556 S
C1239 H1263 0.949 . S
H1240 C1244 0.949 . S
C1241 C1242 1.349 . S
C1241 C1243 1.327 . S
C1241 H1264 0.950 . S
C1242 C1241 1.349 . S
C1242 C1254 1.349 . S
C1243 C1241 1.327 . S
C1243 C1259 1.429 . S
C1243 H1265 0.950 . S
C1244 H1240 0.949 . S
C1244 C1252 1.574 1_565 S
C1244 C1260 1.368 1_554 S
H1245 C1253 0.950 . S
H1246 C1251 0.950 . S
H1247 C1252 0.949 . S
H1248 C1254 0.950 . S
H1249 C1255 0.950 . S
H1250 C1256 0.949 . S
C1251 H1246 0.950 . S
C1251 C1253 1.327 . S
C1251 C1257 1.429 . S
C1252 C1244 1.574 1_545 S
C1252 H1247 0.949 . S
C1252 C1258 1.368 . S
C1253 C1237 1.349 . S
C1253 H1245 0.950 . S
C1253 C1251 1.327 . S
C1254 C1242 1.349 . S
C1254 H1248 0.950 . S
C1254 C1255 1.327 . S
C1255 H1249 0.950 . S
C1255 C1254 1.327 . S
C1255 C1259 1.429 . S
C1256 C1239 1.574 1_565 S
C1256 H1250 0.949 . S
C1256 C1260 1.368 . S
C1257 C1238 1.429 . S
C1257 C1251 1.429 . S
C1257 C1258 1.523 . S
C1258 C1239 1.368 1_554 S
C1258 C1252 1.368 . S
C1258 C1257 1.523 . S
C1259 C1243 1.429 . S
C1259 C1255 1.429 . S
C1259 C1260 1.523 . S
C1260 C1244 1.368 1_556 S
C1260 C1256 1.368 . S
C1260 C1259 1.523 . S
H1261 C1236 0.950 . S
H1262 C1238 0.950 . S
H1263 C1239 0.949 . S
H1264 C1241 0.950 . S
H1265 C1243 0.950 . S
C1266 C1267 1.349 . S
C1266 C1268 1.327 . S
C1266 H1291 0.950 . S
C1267 C1266 1.349 . S
C1267 C1283 1.349 . S
C1268 C1266 1.327 . S
C1268 C1287 1.429 . S
C1268 H1292 0.950 . S
C1269 C1286 1.574 . S
C1269 C1288 1.368 . S
C1269 H1293 0.949 . S
H1270 C1274 0.949 . S
C1271 C1272 1.349 . S
C1271 C1273 1.327 . S
C1271 H1294 0.950 . S
C1272 C1271 1.349 . S
C1272 C1284 1.349 . S
C1273 C1271 1.327 . S
C1273 C1289 1.429 . S
C1273 H1295 0.950 . S
C1274 H1270 0.949 . S
C1274 C1282 1.574 . S
C1274 C1290 1.368 . S
H1275 C1283 0.950 . S
H1276 C1281 0.950 . S
H1277 C1282 0.949 . S
H1278 C1284 0.950 . S
H1279 C1285 0.950 . S
H1280 C1286 0.949 . S
C1281 H1276 0.950 . S
C1281 C1283 1.327 . S
C1281 C1287 1.429 . S
C1282 C1274 1.574 . S
C1282 H1277 0.949 . S
C1282 C1288 1.368 . S
C1283 C1267 1.349 . S
C1283 H1275 0.950 . S
C1283 C1281 1.327 . S
C1284 C1272 1.349 . S
C1284 H1278 0.950 . S
C1284 C1285 1.327 . S
C1285 H1279 0.950 . S
C1285 C1284 1.327 . S
C1285 C1289 1.429 . S
C1286 C1269 1.574 . S
C1286 H1280 0.949 . S
C1286 C1290 1.368 . S
C1287 C1268 1.429 . S
C1287 C1281 1.429 . S
C1287 C1288 1.523 . S
C1288 C1269 1.368 . S
C1288 C1282 1.368 . S
C1288 C1287 1.523 . S
C1289 C1273 1.429 . S
C1289 C1285 1.429 . S
C1289 C1290 1.523 . S
C1290 C1274 1.368 . S
C1290 C1286 1.368 . S
C1290 C1289 1.523 . S
H1291 C1266 0.950 . S
H1292 C1268 0.950 . S
H1293 C1269 0.949 . S
H1294 C1271 0.950 . S
H1295 C1273 0.950 . S
C1296 C1297 1.349 . S
C1296 C1298 1.327 . S
C1296 H1321 0.950 . S
C1297 C1296 1.349 . S
C1297 C1313 1.349 . S
C1298 C1296 1.327 . S
C1298 C1317 1.429 . S
C1298 H1322 0.950 . S
C1299 C1316 1.571 1_455 S
C1299 C1318 1.368 . S
C1299 H1323 0.949 . S
H1300 C1304 0.949 . S
C1301 C1302 1.349 . S
C1301 C1303 1.327 . S
C1301 H1324 0.950 . S
C1302 C1301 1.349 . S
C1302 C1314 1.349 . S
C1303 C1301 1.327 . S
C1303 C1319 1.429 . S
C1303 H1325 0.950 1_554 S
C1304 H1300 0.949 . S
C1304 C1312 1.574 . S
C1304 C1320 1.368 . S
H1305 C1313 0.950 . S
H1306 C1311 0.950 . S
H1307 C1312 0.949 . S
H1308 C1314 0.950 . S
H1309 C1315 0.950 . S
H1310 C1316 0.940 . S
C1311 H1306 0.950 . S
C1311 C1313 1.327 . S
C1311 C1317 1.429 . S
C1312 C1304 1.574 . S
C1312 H1307 0.949 . S
C1312 C1318 1.368 1_654 S
C1313 C1297 1.349 . S
C1313 H1305 0.950 . S
C1313 C1311 1.327 . S
C1314 C1302 1.349 . S
C1314 H1308 0.950 . S
C1314 C1315 1.327 . S
C1315 H1309 0.950 . S
C1315 C1314 1.327 . S
C1315 C1319 1.429 . S
C1316 C1299 1.571 1_655 S
C1316 H1310 0.940 . S
C1316 C1320 1.385 1_556 S
C1317 C1298 1.429 . S
C1317 C1311 1.429 . S
C1317 C1318 1.523 . S
C1318 C1299 1.368 . S
C1318 C1312 1.368 1_456 S
C1318 C1317 1.523 . S
C1319 C1303 1.429 . S
C1319 C1315 1.429 . S
C1319 C1320 1.523 . S
C1320 C1304 1.368 . S
C1320 C1316 1.385 1_554 S
C1320 C1319 1.523 . S
H1321 C1296 0.950 . S
H1322 C1298 0.950 . S
H1323 C1299 0.949 . S
H1324 C1301 0.950 . S
H1325 C1303 0.950 1_556 S
C1326 C1327 1.349 . S
C1326 C1328 1.327 . S
C1326 H1351 0.950 . S
C1327 C1326 1.349 . S
C1327 C1343 1.349 . S
C1328 C1326 1.327 . S
C1328 C1347 1.429 . S
C1328 H1352 0.950 . S
C1329 C1346 1.574 . S
C1329 C1348 1.368 1_565 S
C1329 H1353 0.949 . S
H1330 C1334 0.949 . S
C1331 C1332 1.349 . S
C1331 C1333 1.327 . S
C1331 H1354 0.950 . S
C1332 C1331 1.349 . S
C1332 C1344 1.349 . S
C1333 C1331 1.327 . S
C1333 C1349 1.429 . S
C1333 H1355 0.950 . S
C1334 H1330 0.949 . S
C1334 C1342 1.574 . S
C1334 C1350 1.368 1_545 S
H1335 C1343 0.950 . S
H1336 C1341 0.950 . S
H1337 C1342 0.949 . S
H1338 C1344 0.950 . S
H1339 C1345 0.950 . S
H1340 C1346 0.949 . S
C1341 H1336 0.950 . S
C1341 C1343 1.327 . S
C1341 C1347 1.429 . S
C1342 C1334 1.574 . S
C1342 H1337 0.949 . S
C1342 C1348 1.368 . S
C1343 C1327 1.349 . S
C1343 H1335 0.950 . S
C1343 C1341 1.327 . S
C1344 C1332 1.349 . S
C1344 H1338 0.950 . S
C1344 C1345 1.327 . S
C1345 H1339 0.950 . S
C1345 C1344 1.327 . S
C1345 C1349 1.429 . S
C1346 C1329 1.574 . S
C1346 H1340 0.949 . S
C1346 C1350 1.368 . S
C1347 C1328 1.429 . S
C1347 C1341 1.429 . S
C1347 C1348 1.523 . S
C1348 C1329 1.368 1_545 S
C1348 C1342 1.368 . S
C1348 C1347 1.523 . S
C1349 C1333 1.429 . S
C1349 C1345 1.429 . S
C1349 C1350 1.523 . S
C1350 C1334 1.368 1_565 S
C1350 C1346 1.368 . S
C1350 C1349 1.523 . S
H1351 C1326 0.950 . S
H1352 C1328 0.950 . S
H1353 C1329 0.949 . S
H1354 C1331 0.950 . S
H1355 C1333 0.950 . S
C1356 C1357 1.349 . S
C1356 C1358 1.327 . S
C1356 H1381 0.950 . S
C1357 C1356 1.349 . S
C1357 C1373 1.349 . S
C1358 C1356 1.327 . S
C1358 C1377 1.429 . S
C1358 H1382 0.950 . S
C1359 C1376 1.574 1_556 S
C1359 C1378 1.368 . S
C1359 H1383 0.949 . S
H1360 C1364 0.949 . S
C1361 C1362 1.349 . S
C1361 C1363 1.327 . S
C1361 H1384 0.950 . S
C1362 C1361 1.349 . S
C1362 C1374 1.349 . S
C1363 C1361 1.327 . S
C1363 C1379 1.429 . S
C1363 H1385 0.950 . S
C1364 H1360 0.949 . S
C1364 C1372 1.593 . S
C1364 C1380 1.368 . S
H1365 C1373 0.950 . S
H1366 C1371 0.950 . S
H1367 C1372 0.945 1_556 S
H1368 C1374 0.950 . S
H1369 C1375 0.950 . S
H1370 C1376 0.949 . S
C1371 H1366 0.950 . S
C1371 C1373 1.327 . S
C1371 C1377 1.429 . S
C1372 C1364 1.593 . S
C1372 H1367 0.945 1_554 S
C1372 C1378 1.354 1_554 S
C1373 C1357 1.349 . S
C1373 H1365 0.950 . S
C1373 C1371 1.327 . S
C1374 C1362 1.349 . S
C1374 H1368 0.950 . S
C1374 C1375 1.327 . S
C1375 H1369 0.950 . S
C1375 C1374 1.327 . S
C1375 C1379 1.429 . S
C1376 C1359 1.574 1_554 S
C1376 H1370 0.949 . S
C1376 C1380 1.368 . S
C1377 C1358 1.429 . S
C1377 C1371 1.429 . S
C1377 C1378 1.523 . S
C1378 C1359 1.368 . S
C1378 C1372 1.354 1_556 S
C1378 C1377 1.523 . S
C1379 C1363 1.429 . S
C1379 C1375 1.429 . S
C1379 C1380 1.523 . S
C1380 C1364 1.368 . S
C1380 C1376 1.368 . S
C1380 C1379 1.523 . S
H1381 C1356 0.950 . S
H1382 C1358 0.950 . S
H1383 C1359 0.949 . S
H1384 C1361 0.950 . S
H1385 C1363 0.950 . S
C1386 C1387 1.349 . S
C1386 C1388 1.327 . S
C1386 H1411 0.950 . S
C1387 C1386 1.349 . S
C1387 C1403 1.349 . S
C1388 C1386 1.327 . S
C1388 C1407 1.429 . S
C1388 H1412 0.950 . S
C1389 C1406 1.574 . S
C1389 C1408 1.368 1_455 S
C1389 H1413 0.949 . S
H1390 C1394 0.949 . S
C1391 C1392 1.349 . S
C1391 C1393 1.327 . S
C1391 H1414 0.950 . S
C1392 C1391 1.349 . S
C1392 C1404 1.349 . S
C1393 C1391 1.327 . S
C1393 C1409 1.429 . S
C1393 H1415 0.950 . S
C1394 H1390 0.949 . S
C1394 C1402 1.574 . S
C1394 C1410 1.368 1_655 S
H1395 C1403 0.950 . S
H1396 C1401 0.963 . S
H1397 C1402 0.949 . S
H1398 C1404 0.950 . S
H1399 C1405 0.950 . S
H1400 C1406 0.949 . S
C1401 H1396 0.963 . S
C1401 C1403 1.327 . S
C1401 C1407 1.429 . S
C1402 C1394 1.574 . S
C1402 H1397 0.949 . S
C1402 C1408 1.368 . S
C1403 C1387 1.349 . S
C1403 H1395 0.950 . S
C1403 C1401 1.327 . S
C1404 C1392 1.349 . S
C1404 H1398 0.950 . S
C1404 C1405 1.327 . S
C1405 H1399 0.950 . S
C1405 C1404 1.327 . S
C1405 C1409 1.429 . S
C1406 C1389 1.574 . S
C1406 H1400 0.949 . S
C1406 C1410 1.368 . S
C1407 C1388 1.429 . S
C1407 C1401 1.429 . S
C1407 C1408 1.523 . S
C1408 C1389 1.368 1_655 S
C1408 C1402 1.368 . S
C1408 C1407 1.523 . S
C1409 C1393 1.429 . S
C1409 C1405 1.429 . S
C1409 C1410 1.523 . S
C1410 C1394 1.368 1_455 S
C1410 C1406 1.368 . S
C1410 C1409 1.523 . S
H1411 C1386 0.950 . S
H1412 C1388 0.950 . S
H1413 C1389 0.949 . S
H1414 C1391 0.950 . S
H1415 C1393 0.950 . S
C1416 C1417 1.349 . S
C1416 C1418 1.327 . S
C1416 H1441 0.950 . S
C1417 C1416 1.349 . S
C1417 C1433 1.349 . S
C1418 C1416 1.327 . S
C1418 C1437 1.429 . S
C1418 H1442 0.950 . S
C1419 C1436 1.574 . S
C1419 C1438 1.368 . S
C1419 H1443 0.949 . S
H1420 C1424 0.949 . S
C1421 C1422 1.349 . S
C1421 C1423 1.327 . S
C1421 H1444 0.950 . S
C1422 C1421 1.349 . S
C1422 C1434 1.349 . S
C1423 C1421 1.327 . S
C1423 C1439 1.429 . S
C1423 H1445 0.950 . S
C1424 H1420 0.949 . S
C1424 C1432 1.574 . S
C1424 C1440 1.368 . S
H1425 C1433 0.950 . S
H1426 C1431 0.950 . S
H1427 C1432 0.949 . S
H1428 C1434 0.950 . S
H1429 C1435 0.950 . S
H1430 C1436 0.949 . S
C1431 H1426 0.950 . S
C1431 C1433 1.327 . S
C1431 C1437 1.429 . S
C1432 C1424 1.574 . S
C1432 H1427 0.949 . S
C1432 C1438 1.368 . S
C1433 C1417 1.349 . S
C1433 H1425 0.950 . S
C1433 C1431 1.327 . S
C1434 C1422 1.349 . S
C1434 H1428 0.950 . S
C1434 C1435 1.327 . S
C1435 H1429 0.950 . S
C1435 C1434 1.327 . S
C1435 C1439 1.429 . S
C1436 C1419 1.574 . S
C1436 H1430 0.949 . S
C1436 C1440 1.368 . S
C1437 C1418 1.429 . S
C1437 C1431 1.429 . S
C1437 C1438 1.523 . S
C1438 C1419 1.368 . S
C1438 C1432 1.368 . S
C1438 C1437 1.523 . S
C1439 C1423 1.429 . S
C1439 C1435 1.429 . S
C1439 C1440 1.523 . S
C1440 C1424 1.368 . S
C1440 C1436 1.368 . S
C1440 C1439 1.523 . S
H1441 C1416 0.950 . S
H1442 C1418 0.950 . S
H1443 C1419 0.949 . S
H1444 C1421 0.950 . S
H1445 C1423 0.950 . S
C1446 C1447 1.349 . S
C1446 C1448 1.327 . S
C1446 H1471 0.950 . S
C1447 C1446 1.349 . S
C1447 C1463 1.349 . S
C1448 C1446 1.327 . S
C1448 C1467 1.429 . S
C1448 H1472 0.950 . S
C1449 C1466 1.574 . S
C1449 C1468 1.368 . S
C1449 H1473 0.949 . S
H1450 C1454 0.949 . S
C1451 C1452 1.349 . S
C1451 C1453 1.327 . S
C1451 H1474 0.950 . S
C1452 C1451 1.349 . S
C1452 C1464 1.349 . S
C1453 C1451 1.327 . S
C1453 C1469 1.429 . S
C1453 H1475 0.950 . S
C1454 H1450 0.949 . S
C1454 C1462 1.574 . S
C1454 C1470 1.368 . S
H1455 C1463 0.950 . S
H1456 C1461 0.950 . S
H1457 C1462 0.949 . S
H1458 C1464 0.950 . S
H1459 C1465 0.950 . S
H1460 C1466 0.949 . S
C1461 H1456 0.950 . S
C1461 C1463 1.327 . S
C1461 C1467 1.429 . S
C1462 C1454 1.574 . S
C1462 H1457 0.949 . S
C1462 C1468 1.368 . S
C1463 C1447 1.349 . S
C1463 H1455 0.950 . S
C1463 C1461 1.327 . S
C1464 C1452 1.349 . S
C1464 H1458 0.950 . S
C1464 C1465 1.327 . S
C1465 H1459 0.950 . S
C1465 C1464 1.327 . S
C1465 C1469 1.429 . S
C1466 C1449 1.574 . S
C1466 H1460 0.949 . S
C1466 C1470 1.368 . S
C1467 C1448 1.429 . S
C1467 C1461 1.429 . S
C1467 C1468 1.523 . S
C1468 C1449 1.368 . S
C1468 C1462 1.368 . S
C1468 C1467 1.523 . S
C1469 C1453 1.429 . S
C1469 C1465 1.429 . S
C1469 C1470 1.523 . S
C1470 C1454 1.368 . S
C1470 C1466 1.368 . S
C1470 C1469 1.523 . S
H1471 C1446 0.950 . S
H1472 C1448 0.950 . S
H1473 C1449 0.949 . S
H1474 C1451 0.950 . S
H1475 C1453 0.950 . S
C1476 C1477 1.349 . S
C1476 C1478 1.327 . S
C1476 H1501 0.950 . S
C1477 C1476 1.349 . S
C1477 C1493 1.349 . S
C1478 C1476 1.327 . S
C1478 C1497 1.429 . S
C1478 H1502 0.950 . S
C1479 C1496 1.574 . S
C1479 C1498 1.368 . S
C1479 H1503 0.949 . S
H1480 C1484 0.949 . S
C1481 C1482 1.349 . S
C1481 C1483 1.327 . S
C1481 H1504 0.950 . S
C1482 C1481 1.349 . S
C1482 C1494 1.349 . S
C1483 C1481 1.327 . S
C1483 C1499 1.429 . S
C1483 H1505 0.950 . S
C1484 H1480 0.949 . S
C1484 C1492 1.574 . S
C1484 C1500 1.368 . S
H1485 C1493 0.950 . S
H1486 C1491 0.950 . S
H1487 C1492 0.949 . S
H1488 C1494 0.950 . S
H1489 C1495 0.950 . S
H1490 C1496 0.949 . S
C1491 H1486 0.950 . S
C1491 C1493 1.327 . S
C1491 C1497 1.429 . S
C1492 C1484 1.574 . S
C1492 H1487 0.949 . S
C1492 C1498 1.368 . S
C1493 C1477 1.349 . S
C1493 H1485 0.950 . S
C1493 C1491 1.327 . S
C1494 C1482 1.349 . S
C1494 H1488 0.950 . S
C1494 C1495 1.327 . S
C1495 H1489 0.950 . S
C1495 C1494 1.327 . S
C1495 C1499 1.429 . S
C1496 C1479 1.574 . S
C1496 H1490 0.949 . S
C1496 C1500 1.368 . S
C1497 C1478 1.429 . S
C1497 C1491 1.429 . S
C1497 C1498 1.523 . S
C1498 C1479 1.368 . S
C1498 C1492 1.368 . S
C1498 C1497 1.523 . S
C1499 C1483 1.429 . S
C1499 C1495 1.429 . S
C1499 C1500 1.523 . S
C1500 C1484 1.368 . S
C1500 C1496 1.368 . S
C1500 C1499 1.523 . S
H1501 C1476 0.950 . S
H1502 C1478 0.950 . S
H1503 C1479 0.949 . S
H1504 C1481 0.950 . S
H1505 C1483 0.950 . S
C1506 C1507 1.349 . S
C1506 C1508 1.327 . S
C1506 H1531 0.950 . S
C1507 C1506 1.349 . S
C1507 C1523 1.349 . S
C1508 C1506 1.327 . S
C1508 C1527 1.429 . S
C1508 H1532 0.950 . S
C1509 C1526 1.574 . S
C1509 C1528 1.368 . S
C1509 H1533 0.949 . S
H1510 C1514 0.949 . S
C1511 C1512 1.349 . S
C1511 C1513 1.327 . S
C1511 H1534 0.950 . S
C1512 C1511 1.349 . S
C1512 C1524 1.349 . S
C1513 C1511 1.327 . S
C1513 C1529 1.429 . S
C1513 H1535 0.950 . S
C1514 H1510 0.949 . S
C1514 C1522 1.574 . S
C1514 C1530 1.368 . S
H1515 C1523 0.950 . S
H1516 C1521 0.950 . S
H1517 C1522 0.949 . S
H1518 C1524 0.950 . S
H1519 C1525 0.950 . S
H1520 C1526 0.949 . S
C1521 H1516 0.950 . S
C1521 C1523 1.327 . S
C1521 C1527 1.429 . S
C1522 C1514 1.574 . S
C1522 H1517 0.949 . S
C1522 C1528 1.368 . S
C1523 C1507 1.349 . S
C1523 H1515 0.950 . S
C1523 C1521 1.327 . S
C1524 C1512 1.349 . S
C1524 H1518 0.950 . S
C1524 C1525 1.327 . S
C1525 H1519 0.950 . S
C1525 C1524 1.327 . S
C1525 C1529 1.429 . S
C1526 C1509 1.574 . S
C1526 H1520 0.949 . S
C1526 C1530 1.368 . S
C1527 C1508 1.429 . S
C1527 C1521 1.429 . S
C1527 C1528 1.523 . S
C1528 C1509 1.368 . S
C1528 C1522 1.368 . S
C1528 C1527 1.523 . S
C1529 C1513 1.429 . S
C1529 C1525 1.429 . S
C1529 C1530 1.523 . S
C1530 C1514 1.368 . S
C1530 C1526 1.368 . S
C1530 C1529 1.523 . S
H1531 C1506 0.950 . S
H1532 C1508 0.950 . S
H1533 C1509 0.949 . S
H1534 C1511 0.950 . S
H1535 C1513 0.950 . S
C1536 C1537 1.349 . S
C1536 C1538 1.327 . S
C1536 H1561 0.950 . S
C1537 C1536 1.349 . S
C1537 C1553 1.349 . S
C1538 C1536 1.327 . S
C1538 C1557 1.429 . S
C1538 H1562 0.950 . S
C1539 C1556 1.574 . S
C1539 C1558 1.368 . S
C1539 H1563 0.949 . S
H1540 C1544 0.949 . S
C1541 C1542 1.349 . S
C1541 C1543 1.327 . S
C1541 H1564 0.950 . S
C1542 C1541 1.349 . S
C1542 C1554 1.349 . S
C1543 C1541 1.327 . S
C1543 C1559 1.429 . S
C1543 H1565 0.950 . S
C1544 H1540 0.949 . S
C1544 C1552 1.574 . S
C1544 C1560 1.368 . S
H1545 C1553 0.950 . S
H1546 C1551 0.950 . S
H1547 C1552 0.949 . S
H1548 C1554 0.950 . S
H1549 C1555 0.950 . S
H1550 C1556 0.949 . S
C1551 H1546 0.950 . S
C1551 C1553 1.327 . S
C1551 C1557 1.429 . S
C1552 C1544 1.574 . S
C1552 H1547 0.949 . S
C1552 C1558 1.368 . S
C1553 C1537 1.349 . S
C1553 H1545 0.950 . S
C1553 C1551 1.327 . S
C1554 C1542 1.349 . S
C1554 H1548 0.950 . S
C1554 C1555 1.327 . S
C1555 H1549 0.950 . S
C1555 C1554 1.327 . S
C1555 C1559 1.429 . S
C1556 C1539 1.574 . S
C1556 H1550 0.949 . S
C1556 C1560 1.368 . S
C1557 C1538 1.429 . S
C1557 C1551 1.429 . S
C1557 C1558 1.523 . S
C1558 C1539 1.368 . S
C1558 C1552 1.368 . S
C1558 C1557 1.523 . S
C1559 C1543 1.429 . S
C1559 C1555 1.429 . S
C1559 C1560 1.523 . S
C1560 C1544 1.368 . S
C1560 C1556 1.368 . S
C1560 C1559 1.523 . S
H1561 C1536 0.950 . S
H1562 C1538 0.950 . S
H1563 C1539 0.949 . S
H1564 C1541 0.950 . S
H1565 C1543 0.950 . S
C1566 C1567 1.349 . S
C1566 C1568 1.327 . S
C1566 H1591 0.950 . S
C1567 C1566 1.349 . S
C1567 C1583 1.349 . S
C1568 C1566 1.327 . S
C1568 C1587 1.429 . S
C1568 H1592 0.950 . S
C1569 C1586 1.574 . S
C1569 C1588 1.368 . S
C1569 H1593 0.949 . S
H1570 C1574 0.949 . S
C1571 C1572 1.349 . S
C1571 C1573 1.327 . S
C1571 H1594 0.950 . S
C1572 C1571 1.349 . S
C1572 C1584 1.349 . S
C1573 C1571 1.327 . S
C1573 C1589 1.429 . S
C1573 H1595 0.950 . S
C1574 H1570 0.949 . S
C1574 C1582 1.574 . S
C1574 C1590 1.368 . S
H1575 C1583 0.950 . S
H1576 C1581 0.950 . S
H1577 C1582 0.949 . S
H1578 C1584 0.950 . S
H1579 C1585 0.950 . S
H1580 C1586 0.949 . S
C1581 H1576 0.950 . S
C1581 C1583 1.327 . S
C1581 C1587 1.429 . S
C1582 C1574 1.574 . S
C1582 H1577 0.949 . S
C1582 C1588 1.368 . S
C1583 C1567 1.349 . S
C1583 H1575 0.950 . S
C1583 C1581 1.327 . S
C1584 C1572 1.349 . S
C1584 H1578 0.950 . S
C1584 C1585 1.327 . S
C1585 H1579 0.950 . S
C1585 C1584 1.327 . S
C1585 C1589 1.429 . S
C1586 C1569 1.574 . S
C1586 H1580 0.949 . S
C1586 C1590 1.368 . S
C1587 C1568 1.429 . S
C1587 C1581 1.429 . S
C1587 C1588 1.523 . S
C1588 C1569 1.368 . S
C1588 C1582 1.368 . S
C1588 C1587 1.523 . S
C1589 C1573 1.429 . S
C1589 C1585 1.429 . S
C1589 C1590 1.523 . S
C1590 C1574 1.368 . S
C1590 C1586 1.368 . S
C1590 C1589 1.523 . S
H1591 C1566 0.950 . S
H1592 C1568 0.950 . S
H1593 C1569 0.949 . S
H1594 C1571 0.950 . S
H1595 C1573 0.950 . S
C1596 C1597 1.349 . S
C1596 C1598 1.327 . S
C1596 H1621 0.950 . S
C1597 C1596 1.349 . S
C1597 C1613 1.349 . S
C1598 C1596 1.327 . S
C1598 C1617 1.429 . S
C1598 H1622 0.950 . S
C1599 C1616 1.574 . S
C1599 C1618 1.368 . S
C1599 H1623 0.949 . S
H1600 C1604 0.949 . S
C1601 C1602 1.349 . S
C1601 C1603 1.327 . S
C1601 H1624 0.950 . S
C1602 C1601 1.349 . S
C1602 C1614 1.349 . S
C1603 C1601 1.327 . S
C1603 C1619 1.429 . S
C1603 H1625 0.950 . S
C1604 H1600 0.949 . S
C1604 C1612 1.574 . S
C1604 C1620 1.368 . S
H1605 C1613 0.950 . S
H1606 C1611 0.950 . S
H1607 C1612 0.949 . S
H1608 C1614 0.950 . S
H1609 C1615 0.950 . S
H1610 C1616 0.949 . S
C1611 H1606 0.950 . S
C1611 C1613 1.327 . S
C1611 C1617 1.429 . S
C1612 C1604 1.574 . S
C1612 H1607 0.949 . S
C1612 C1618 1.368 . S
C1613 C1597 1.349 . S
C1613 H1605 0.950 . S
C1613 C1611 1.327 . S
C1614 C1602 1.349 . S
C1614 H1608 0.950 . S
C1614 C1615 1.327 . S
C1615 H1609 0.950 . S
C1615 C1614 1.327 . S
C1615 C1619 1.429 . S
C1616 C1599 1.574 . S
C1616 H1610 0.949 . S
C1616 C1620 1.368 . S
C1617 C1598 1.429 . S
C1617 C1611 1.429 . S
C1617 C1618 1.523 . S
C1618 C1599 1.368 . S
C1618 C1612 1.368 . S
C1618 C1617 1.523 . S
C1619 C1603 1.429 . S
C1619 C1615 1.429 . S
C1619 C1620 1.523 . S
C1620 C1604 1.368 . S
C1620 C1616 1.368 . S
C1620 C1619 1.523 . S
H1621 C1596 0.950 . S
H1622 C1598 0.950 . S
H1623 C1599 0.949 . S
H1624 C1601 0.950 . S
H1625 C1603 0.950 . S
C1626 C1627 1.349 . S
C1626 C1628 1.327 . S
C1626 H1651 0.950 . S
C1627 C1626 1.349 . S
C1627 C1643 1.349 . S
C1628 C1626 1.327 . S
C1628 C1647 1.429 . S
C1628 H1652 0.950 . S
C1629 C1646 1.574 . S
C1629 C1648 1.368 . S
C1629 H1653 0.949 . S
H1630 C1634 0.949 . S
C1631 C1632 1.349 . S
C1631 C1633 1.327 . S
C1631 H1654 0.950 . S
C1632 C1631 1.349 . S
C1632 C1644 1.349 . S
C1633 C1631 1.327 . S
C1633 C1649 1.429 . S
C1633 H1655 0.950 . S
C1634 H1630 0.949 . S
C1634 C1642 1.574 . S
C1634 C1650 1.368 . S
H1635 C1643 0.950 . S
H1636 C1641 0.950 . S
H1637 C1642 0.949 . S
H1638 C1644 0.950 . S
H1639 C1645 0.950 . S
H1640 C1646 0.949 . S
C1641 H1636 0.950 . S
C1641 C1643 1.327 . S
C1641 C1647 1.429 . S
C1642 C1634 1.574 . S
C1642 H1637 0.949 . S
C1642 C1648 1.368 . S
C1643 C1627 1.349 . S
C1643 H1635 0.950 . S
C1643 C1641 1.327 . S
C1644 C1632 1.349 . S
C1644 H1638 0.950 . S
C1644 C1645 1.327 . S
C1645 H1639 0.950 . S
C1645 C1644 1.327 . S
C1645 C1649 1.429 . S
C1646 C1629 1.574 . S
C1646 H1640 0.949 . S
C1646 C1650 1.368 . S
C1647 C1628 1.429 . S
C1647 C1641 1.429 . S
C1647 C1648 1.523 . S
C1648 C1629 1.368 . S
C1648 C1642 1.368 . S
C1648 C1647 1.523 . S
C1649 C1633 1.429 . S
C1649 C1645 1.429 . S
C1649 C1650 1.523 . S
C1650 C1634 1.368 . S
C1650 C1646 1.368 . S
C1650 C1649 1.523 . S
H1651 C1626 0.950 . S
H1652 C1628 0.950 . S
H1653 C1629 0.949 . S
H1654 C1631 0.950 . S
H1655 C1633 0.950 . S
C1656 C1657 1.349 . S
C1656 C1658 1.327 . S
C1656 H1681 0.950 . S
C1657 C1656 1.349 . S
C1657 C1673 1.349 . S
C1658 C1656 1.327 . S
C1658 C1677 1.429 . S
C1658 H1682 0.950 . S
C1659 C1676 1.574 . S
C1659 C1678 1.368 . S
C1659 H1683 0.949 . S
H1660 C1664 0.949 . S
C1661 C1662 1.349 . S
C1661 C1663 1.327 . S
C1661 H1684 0.950 . S
C1662 C1661 1.349 . S
C1662 C1674 1.349 . S
C1663 C1661 1.327 . S
C1663 C1679 1.429 . S
C1663 H1685 0.950 . S
C1664 H1660 0.949 . S
C1664 C1672 1.574 . S
C1664 C1680 1.368 . S
H1665 C1673 0.950 . S
H1666 C1671 0.950 . S
H1667 C1672 0.949 . S
H1668 C1674 0.950 . S
H1669 C1675 0.950 . S
H1670 C1676 0.949 . S
C1671 H1666 0.950 . S
C1671 C1673 1.327 . S
C1671 C1677 1.429 . S
C1672 C1664 1.574 . S
C1672 H1667 0.949 . S
C1672 C1678 1.368 . S
C1673 C1657 1.349 . S
C1673 H1665 0.950 . S
C1673 C1671 1.327 . S
C1674 C1662 1.349 . S
C1674 H1668 0.950 . S
C1674 C1675 1.327 . S
C1675 H1669 0.950 . S
C1675 C1674 1.327 . S
C1675 C1679 1.429 . S
C1676 C1659 1.574 . S
C1676 H1670 0.949 . S
C1676 C1680 1.368 . S
C1677 C1658 1.429 . S
C1677 C1671 1.429 . S
C1677 C1678 1.523 . S
C1678 C1659 1.368 . S
C1678 C1672 1.368 . S
C1678 C1677 1.523 . S
C1679 C1663 1.429 . S
C1679 C1675 1.429 . S
C1679 C1680 1.523 . S
C1680 C1664 1.368 . S
C1680 C1676 1.368 . S
C1680 C1679 1.523 . S
H1681 C1656 0.950 . S
H1682 C1658 0.950 . S
H1683 C1659 0.949 . S
H1684 C1661 0.950 . S
H1685 C1663 0.950 . S
C1686 C1687 1.349 . S
C1686 C1688 1.327 . S
C1686 H1711 0.950 . S
C1687 C1686 1.349 . S
C1687 C1703 1.349 . S
C1688 C1686 1.327 . S
C1688 C1707 1.429 . S
C1688 H1712 0.950 . S
C1689 C1706 1.574 . S
C1689 C1708 1.368 . S
C1689 H1713 0.949 . S
H1690 C1694 0.949 . S
C1691 C1692 1.349 . S
C1691 C1693 1.327 . S
C1691 H1714 0.950 . S
C1692 C1691 1.349 . S
C1692 C1704 1.349 . S
C1693 C1691 1.327 . S
C1693 C1709 1.429 . S
C1693 H1715 0.950 . S
C1694 H1690 0.949 . S
C1694 C1702 1.574 . S
C1694 C1710 1.368 . S
H1695 C1703 0.950 . S
H1696 C1701 0.950 . S
H1697 C1702 0.949 . S
H1698 C1704 0.950 . S
H1699 C1705 0.950 . S
H1700 C1706 0.949 . S
C1701 H1696 0.950 . S
C1701 C1703 1.327 . S
C1701 C1707 1.429 . S
C1702 C1694 1.574 . S
C1702 H1697 0.949 . S
C1702 C1708 1.368 . S
C1703 C1687 1.349 . S
C1703 H1695 0.950 . S
C1703 C1701 1.327 . S
C1704 C1692 1.349 . S
C1704 H1698 0.950 . S
C1704 C1705 1.327 . S
C1705 H1699 0.950 . S
C1705 C1704 1.327 . S
C1705 C1709 1.429 . S
C1706 C1689 1.574 . S
C1706 H1700 0.949 . S
C1706 C1710 1.368 . S
C1707 C1688 1.429 . S
C1707 C1701 1.429 . S
C1707 C1708 1.523 . S
C1708 C1689 1.368 . S
C1708 C1702 1.368 . S
C1708 C1707 1.523 . S
C1709 C1693 1.429 . S
C1709 C1705 1.429 . S
C1709 C1710 1.523 . S
C1710 C1694 1.368 . S
C1710 C1706 1.368 . S
C1710 C1709 1.523 . S
H1711 C1686 0.950 . S
H1712 C1688 0.950 . S
H1713 C1689 0.949 . S
H1714 C1691 0.950 . S
H1715 C1693 0.950 . S
C1716 C1717 1.349 . S
C1716 C1718 1.327 . S
C1716 H1741 0.950 . S
C1717 C1716 1.349 . S
C1717 C1733 1.349 . S
C1718 C1716 1.327 . S
C1718 C1737 1.429 . S
C1718 H1742 0.950 . S
C1719 C1736 1.574 . S
C1719 C1738 1.368 . S
C1719 H1743 0.949 . S
H1720 C1724 0.949 . S
C1721 C1722 1.349 . S
C1721 C1723 1.327 . S
C1721 H1744 0.950 . S
C1722 C1721 1.349 . S
C1722 C1734 1.349 . S
C1723 C1721 1.327 . S
C1723 C1739 1.429 . S
C1723 H1745 0.950 . S
C1724 H1720 0.949 . S
C1724 C1732 1.574 . S
C1724 C1740 1.368 . S
H1725 C1733 0.950 . S
H1726 C1731 0.950 . S
H1727 C1732 0.949 . S
H1728 C1734 0.950 . S
H1729 C1735 0.950 . S
H1730 C1736 0.949 . S
C1731 H1726 0.950 . S
C1731 C1733 1.327 . S
C1731 C1737 1.429 . S
C1732 C1724 1.574 . S
C1732 H1727 0.949 . S
C1732 C1738 1.368 . S
C1733 C1717 1.349 . S
C1733 H1725 0.950 . S
C1733 C1731 1.327 . S
C1734 C1722 1.349 . S
C1734 H1728 0.950 . S
C1734 C1735 1.327 . S
C1735 H1729 0.950 . S
C1735 C1734 1.327 . S
C1735 C1739 1.429 . S
C1736 C1719 1.574 . S
C1736 H1730 0.949 . S
C1736 C1740 1.368 . S
C1737 C1718 1.429 . S
C1737 C1731 1.429 . S
C1737 C1738 1.523 . S
C1738 C1719 1.368 . S
C1738 C1732 1.368 . S
C1738 C1737 1.523 . S
C1739 C1723 1.429 . S
C1739 C1735 1.429 . S
C1739 C1740 1.523 . S
C1740 C1724 1.368 . S
C1740 C1736 1.368 . S
C1740 C1739 1.523 . S
H1741 C1716 0.950 . S
H1742 C1718 0.950 . S
H1743 C1719 0.949 . S
H1744 C1721 0.950 . S
H1745 C1723 0.950 . S
C1746 C1747 1.349 . S
C1746 C1748 1.327 . S
C1746 H1771 0.950 . S
C1747 C1746 1.349 . S
C1747 C1763 1.349 . S
C1748 C1746 1.327 . S
C1748 C1767 1.429 . S
C1748 H1772 0.950 . S
C1749 C1766 1.574 . S
C1749 C1768 1.368 . S
C1749 H1773 0.949 . S
H1750 C1754 0.949 . S
C1751 C1752 1.349 . S
C1751 C1753 1.327 . S
C1751 H1774 0.950 . S
C1752 C1751 1.349 . S
C1752 C1764 1.349 . S
C1753 C1751 1.327 . S
C1753 C1769 1.429 . S
C1753 H1775 0.950 . S
C1754 H1750 0.949 . S
C1754 C1762 1.574 . S
C1754 C1770 1.368 . S
H1755 C1763 0.950 . S
H1756 C1761 0.950 . S
H1757 C1762 0.949 . S
H1758 C1764 0.950 . S
H1759 C1765 0.950 . S
H1760 C1766 0.949 . S
C1761 H1756 0.950 . S
C1761 C1763 1.327 . S
C1761 C1767 1.429 . S
C1762 C1754 1.574 . S
C1762 H1757 0.949 . S
C1762 C1768 1.368 . S
C1763 C1747 1.349 . S
C1763 H1755 0.950 . S
C1763 C1761 1.327 . S
C1764 C1752 1.349 . S
C1764 H1758 0.950 . S
C1764 C1765 1.327 . S
C1765 H1759 0.950 . S
C1765 C1764 1.327 . S
C1765 C1769 1.429 . S
C1766 C1749 1.574 . S
C1766 H1760 0.949 . S
C1766 C1770 1.368 . S
C1767 C1748 1.429 . S
C1767 C1761 1.429 . S
C1767 C1768 1.523 . S
C1768 C1749 1.368 . S
C1768 C1762 1.368 . S
C1768 C1767 1.523 . S
C1769 C1753 1.429 . S
C1769 C1765 1.429 . S
C1769 C1770 1.523 . S
C1770 C1754 1.368 . S
C1770 C1766 1.368 . S
C1770 C1769 1.523 . S
H1771 C1746 0.950 . S
H1772 C1748 0.950 . S
H1773 C1749 0.949 . S
H1774 C1751 0.950 . S
H1775 C1753 0.950 . S
C1057 C929 1.570 . S
C1062 C57 1.571 . S
C1087 C117 1.444 . S
C1092 C1017 1.446 . S
C1117 C205 1.509 . S
C1122 C577 1.507 . S
C1147 C636 1.570 . S
C1152 C293 1.571 . S
C1177 C761 1.446 . S
C1182 C372 1.444 . S
C1207 C460 1.509 . S
C1212 C849 1.507 . S
C1237 C49 0.346 . S
C1242 C645 0.326 . S
C1267 C137 1.016 . S
C1272 C724 1.010 . S
C1297 C812 0.962 . S
C1302 C225 0.957 . S
C1327 C937 0.326 . S
C1332 C284 0.346 . S
C1357 C997 1.009 . S
C1362 C409 1.016 . S
C1387 C557 0.962 . S
C1392 C497 0.956 . S
C1417 C20 0.738 . S
C1422 C381 0.742 . S
C1447 C145 0.616 . S
C1452 C469 0.614 . S
C1477 C233 0.655 . S
C1482 C29 0.632 . S
C1507 C313 0.738 . S
C1512 C108 0.742 . S
C1537 C401 0.616 . S
C1542 C196 0.614 . S
C1567 C489 0.655 . S
C1572 C321 0.632 . S
C1597 C548 0.617 . S
C1602 C753 0.615 . S
C1627 C673 0.643 . S
C1632 C841 0.664 . S
C1657 C900 0.722 . S
C1662 C733 0.731 . S
C1687 C821 0.617 . S
C1692 C1025 0.615 . S
C1717 C909 0.644 . S
C1722 C585 0.664 . S
C1747 C988 0.731 . S
C1752 C665 0.722 . S
