# Generated by pormake.
# Topology lcy-e, (6)-cn, num edge types: 1
# Building blocks:
#     Node 0, Type 0, BuildingBlock: KUMBOL_clean_sbu_1, # of connection points: 6
#     Node 1, Type 0, BuildingBlock: KUMBOL_clean_sbu_1, # of connection points: 6
#     Node 2, Type 0, BuildingBlock: KUMBOL_clean_sbu_1, # of connection points: 6
#     Node 3, Type 0, BuildingBlock: KUMBOL_clean_sbu_1, # of connection points: 6
#     Node 4, Type 0, BuildingBlock: KUMBOL_clean_sbu_1, # of connection points: 6
#     Node 5, Type 0, BuildingBlock: KUMBOL_clean_sbu_1, # of connection points: 6
#     Node 6, Type 0, BuildingBlock: KUMBOL_clean_sbu_1, # of connection points: 6
#     Node 7, Type 0, BuildingBlock: KUMBOL_clean_sbu_1, # of connection points: 6
#     Node 8, Type 0, BuildingBlock: KUMBOL_clean_sbu_1, # of connection points: 6
#     Node 9, Type 0, BuildingBlock: KUMBOL_clean_sbu_1, # of connection points: 6
#     Node 10, Type 0, BuildingBlock: KUMBOL_clean_sbu_1, # of connection points: 6
#     Node 11, Type 0, BuildingBlock: KUMBOL_clean_sbu_1, # of connection points: 6
#     Edge 12, Type (0, 0), BuildingBlock: XIVTED_clean_linker_0, # of connection points: 2
#     Edge 13, Type (0, 0), BuildingBlock: XIVTED_clean_linker_0, # of connection points: 2
#     Edge 14, Type (0, 0), BuildingBlock: XIVTED_clean_linker_0, # of connection points: 2
#     Edge 15, Type (0, 0), BuildingBlock: XIVTED_clean_linker_0, # of connection points: 2
#     Edge 16, Type (0, 0), BuildingBlock: XIVTED_clean_linker_0, # of connection points: 2
#     Edge 17, Type (0, 0), BuildingBlock: XIVTED_clean_linker_0, # of connection points: 2
#     Edge 18, Type (0, 0), BuildingBlock: XIVTED_clean_linker_0, # of connection points: 2
#     Edge 19, Type (0, 0), BuildingBlock: XIVTED_clean_linker_0, # of connection points: 2
#     Edge 20, Type (0, 0), BuildingBlock: XIVTED_clean_linker_0, # of connection points: 2
#     Edge 21, Type (0, 0), BuildingBlock: XIVTED_clean_linker_0, # of connection points: 2
#     Edge 22, Type (0, 0), BuildingBlock: XIVTED_clean_linker_0, # of connection points: 2
#     Edge 23, Type (0, 0), BuildingBlock: XIVTED_clean_linker_0, # of connection points: 2
#     Edge 24, Type (0, 0), BuildingBlock: XIVTED_clean_linker_0, # of connection points: 2
#     Edge 25, Type (0, 0), BuildingBlock: XIVTED_clean_linker_0, # of connection points: 2
#     Edge 26, Type (0, 0), BuildingBlock: XIVTED_clean_linker_0, # of connection points: 2
#     Edge 27, Type (0, 0), BuildingBlock: XIVTED_clean_linker_0, # of connection points: 2
#     Edge 28, Type (0, 0), BuildingBlock: XIVTED_clean_linker_0, # of connection points: 2
#     Edge 29, Type (0, 0), BuildingBlock: XIVTED_clean_linker_0, # of connection points: 2
#     Edge 30, Type (0, 0), BuildingBlock: XIVTED_clean_linker_0, # of connection points: 2
#     Edge 31, Type (0, 0), BuildingBlock: XIVTED_clean_linker_0, # of connection points: 2
#     Edge 32, Type (0, 0), BuildingBlock: XIVTED_clean_linker_0, # of connection points: 2
#     Edge 33, Type (0, 0), BuildingBlock: XIVTED_clean_linker_0, # of connection points: 2
#     Edge 34, Type (0, 0), BuildingBlock: XIVTED_clean_linker_0, # of connection points: 2
#     Edge 35, Type (0, 0), BuildingBlock: XIVTED_clean_linker_0, # of connection points: 2
#     Edge 36, Type (0, 0), BuildingBlock: XIVTED_clean_linker_0, # of connection points: 2
#     Edge 37, Type (0, 0), BuildingBlock: XIVTED_clean_linker_0, # of connection points: 2
#     Edge 38, Type (0, 0), BuildingBlock: XIVTED_clean_linker_0, # of connection points: 2
#     Edge 39, Type (0, 0), BuildingBlock: XIVTED_clean_linker_0, # of connection points: 2
#     Edge 40, Type (0, 0), BuildingBlock: XIVTED_clean_linker_0, # of connection points: 2
#     Edge 41, Type (0, 0), BuildingBlock: XIVTED_clean_linker_0, # of connection points: 2
#     Edge 42, Type (0, 0), BuildingBlock: XIVTED_clean_linker_0, # of connection points: 2
#     Edge 43, Type (0, 0), BuildingBlock: XIVTED_clean_linker_0, # of connection points: 2
#     Edge 44, Type (0, 0), BuildingBlock: XIVTED_clean_linker_0, # of connection points: 2
#     Edge 45, Type (0, 0), BuildingBlock: XIVTED_clean_linker_0, # of connection points: 2
#     Edge 46, Type (0, 0), BuildingBlock: XIVTED_clean_linker_0, # of connection points: 2
#     Edge 47, Type (0, 0), BuildingBlock: XIVTED_clean_linker_0, # of connection points: 2
# Relax obj value: 0.092
# Max RMSD: 0.242
# Mean RMSD: 0.240
data_MOF--net-lcy-e--node1-KUMBOL_clean_sbu_1--edge1-XIVTED_clean_linker_0
_symmetry_space_group_name_H-M    P1
_symmetry_Int_Tables_number       1
_symmetry_cell_setting            triclinic
loop_
_symmetry_equiv_pos_as_xyz
'x, y, z'
_cell_length_a     44.297481
_cell_length_b     44.117969
_cell_length_c     44.378774
_cell_angle_alpha  89.925905
_cell_angle_beta   90.075718
_cell_angle_gamma 89.842632
loop_
_atom_site_label
_atom_site_type_symbol
_atom_site_fract_x
_atom_site_fract_y
_atom_site_fract_z
_atom_type_partial_charge
C0 C 0.05542 0.30199 0.4544 0.0
C1 C 0.05553 0.34821 0.48395 0.0
C2 C 0.07051 0.32243 0.47256 0.0
C3 C 0.02459 0.35217 0.47814 0.0
C4 C 0.02497 0.30713 0.44659 0.0
C5 C 0.00934 0.33168 0.45943 0.0
N6 N 0.0713 0.27869 0.44219 0.0
C7 C 0.05914 0.26195 0.41928 0.0
C8 C 0.01158 0.28829 0.42506 0.0
C9 C 0.02898 0.26611 0.41078 0.0
Gd10 Gd 0.14491 0.20737 0.52494 0.0
Gd11 Gd 0.12102 0.27211 0.46032 0.0
N12 N 0.10042 0.31808 0.47746 0.0
C13 C 0.07236 0.36973 0.49989 0.0
C14 C 0.11736 0.34001 0.491 0.0
C15 C 0.10355 0.36589 0.50292 0.0
H16 H 0.14142 0.33723 0.49293 0.0
H17 H 0.11695 0.38281 0.51439 0.0
H18 H 0.12539 0.15258 0.47424 0.0
H19 H 0.0725 0.24469 0.40821 0.0
H20 H 0.14919 0.10906 0.44971 0.0
H21 H 0.06169 0.38983 0.50906 0.0
H22 H 0.01254 0.37157 0.48707 0.0
H23 H 0.19976 0.24071 0.56516 0.0
H24 H 0.98824 0.29148 0.41843 0.0
H25 H 0.01913 0.2521 0.39337 0.0
H26 H 0.25181 0.11155 0.48376 0.0
H27 H 0.98578 0.33568 0.45413 0.0
H28 H 0.28168 0.1917 0.54993 0.0
H29 H 0.25428 0.23417 0.57393 0.0
N30 N 0.19657 0.20336 0.535 0.0
C31 C 0.21096 0.17932 0.52222 0.0
C32 C 0.21153 0.22257 0.55386 0.0
C33 C 0.25776 0.19462 0.54571 0.0
C34 C 0.2424 0.2187 0.55921 0.0
C35 C 0.24205 0.17445 0.52712 0.0
H36 H 0.2804 0.14572 0.51681 0.0
N37 N 0.16502 0.16619 0.49773 0.0
C38 C 0.19474 0.16013 0.50323 0.0
C39 C 0.19268 0.11692 0.46985 0.0
C40 C 0.20939 0.13551 0.48912 0.0
C41 C 0.14876 0.14817 0.47874 0.0
C42 C 0.16227 0.1233 0.46464 0.0
O43 O 0.10553 0.28116 0.50855 0.0
O44 O 0.1005 0.2326 0.52579 0.0
O45 O 0.13174 0.16554 0.54789 0.0
O46 O 0.14588 0.20532 0.57385 0.0
O47 O 0.16396 0.27509 0.48811 0.0
O48 O 0.15616 0.25655 0.53619 0.0
O49 O 0.17724 0.21933 0.48795 0.0
O50 O 0.14423 0.22734 0.44952 0.0
O51 O 0.14784 0.30742 0.43857 0.0
O52 O 0.12776 0.27207 0.41197 0.0
O53 O 0.10344 0.1949 0.49769 0.0
O54 O 0.09026 0.23144 0.46134 0.0
C55 C 0.09656 0.26178 0.52931 0.0
C56 C 0.16603 0.27781 0.51758 0.0
C57 C 0.13236 0.16027 0.60273 0.0
C58 C 0.11038 0.11869 0.6321 0.0
C59 C 0.14385 0.1552 0.65597 0.0
C60 C 0.14704 0.17059 0.62879 0.0
C61 C 0.1257 0.12957 0.65767 0.0
C62 C 0.1142 0.13391 0.60431 0.0
C63 C 0.13675 0.17722 0.57431 0.0
C64 C 0.24024 0.13038 0.49439 0.0
C65 C 0.25654 0.14984 0.51323 0.0
H66 H 0.20309 0.0977 0.45873 0.0
C67 C 0.17164 0.22123 0.45909 0.0
C68 C 0.08623 0.20552 0.47566 0.0
C69 C 0.13336 0.31956 0.38852 0.0
C70 C 0.14603 0.35332 0.3469 0.0
C71 C 0.09366 0.34563 0.36084 0.0
C72 C 0.10264 0.32602 0.38385 0.0
C73 C 0.11521 0.3593 0.34251 0.0
C74 C 0.15511 0.33322 0.36984 0.0
C75 C 0.14272 0.29734 0.41154 0.0
H76 H 0.15552 0.1632 0.67586 0.0
H77 H 0.16133 0.19047 0.62812 0.0
H78 H 0.1238 0.11803 0.67915 0.0
H79 H 0.10267 0.12573 0.58438 0.0
H80 H 0.06991 0.35009 0.35709 0.0
H81 H 0.08551 0.31568 0.39766 0.0
H82 H 0.10782 0.37421 0.32451 0.0
H83 H 0.17886 0.32809 0.37295 0.0
C84 C 0.96112 0.79935 0.71591 0.0
C85 C 0.91318 0.80149 0.74206 0.0
C86 C 0.93895 0.81604 0.73043 0.0
C87 C 0.91083 0.76978 0.74023 0.0
C88 C 0.95796 0.76775 0.71233 0.0
C89 C 0.93317 0.75295 0.72536 0.0
N90 N 0.98449 0.81439 0.70309 0.0
C91 C 1.00299 0.80003 0.6832 0.0
C92 C 0.979 0.75228 0.69448 0.0
C93 C 1.00121 0.76864 0.67925 0.0
Gd94 Gd 0.05128 0.89652 0.77182 0.0
Gd95 Gd 0.9869 0.86664 0.71209 0.0
N96 N 0.94163 0.84673 0.73123 0.0
C97 C 0.88997 0.81937 0.75403 0.0
C98 C 0.91813 0.86428 0.74069 0.0
C99 C 0.89222 0.85092 0.7528 0.0
H100 H 0.91905 0.88859 0.73844 0.0
H101 H 0.87385 0.86498 0.7608 0.0
H102 H 0.10835 0.87383 0.72939 0.0
H103 H 0.01863 0.81292 0.66983 0.0
H104 H 0.15491 0.89573 0.7075 0.0
H105 H 0.86974 0.80908 0.76311 0.0
H106 H 0.8913 0.75818 0.74927 0.0
H107 H 0.01958 0.95185 0.81457 0.0
H108 H 0.97734 0.72803 0.69108 0.0
H109 H 0.01655 0.75723 0.66403 0.0
H110 H 0.15112 1.00041 0.7365 0.0
H111 H 0.9305 0.72865 0.72311 0.0
H112 H 0.07035 0.03264 0.80046 0.0
H113 H 0.02772 0.0059 0.82445 0.0
N114 N 0.05488 0.94852 0.78197 0.0
C115 C 0.07898 0.96257 0.76914 0.0
C116 C 0.03707 0.9635 0.80227 0.0
C117 C 0.06618 0.00908 0.79501 0.0
C118 C 0.04205 0.9941 0.80855 0.0
C119 C 0.08535 0.99322 0.77553 0.0
H120 H 0.11643 0.03027 0.76793 0.0
N121 N 0.09228 0.91614 0.74565 0.0
C122 C 0.09838 0.94585 0.75083 0.0
C123 C 0.145 0.94099 0.72296 0.0
C124 C 0.12482 0.95917 0.73924 0.0
C125 C 0.11262 0.89787 0.73134 0.0
C126 C 0.139 0.91014 0.71924 0.0
O127 O 0.99319 0.84031 0.75633 0.0
O128 O 0.01009 0.87575 0.79127 0.0
O129 O 0.08237 0.86413 0.79322 0.0
O130 O 0.07402 0.90791 0.81353 0.0
O131 O 0.97136 0.90695 0.73936 0.0
O132 O 1.00303 0.9136 0.78151 0.0
O133 O 0.05281 0.90801 0.72211 0.0
O134 O 1.00319 0.91493 0.71079 0.0
O135 O 0.94862 0.87579 0.68167 0.0
O136 O 0.99423 0.86755 0.664 0.0
O137 O 0.05422 0.8489 0.75436 0.0
O138 O 0.03627 0.85379 0.70605 0.0
C139 C 0.99582 0.85072 0.78414 0.0
C140 C 0.97775 0.91867 0.76598 0.0
C141 C 0.09861 0.87124 0.84462 0.0
C142 C 0.13935 0.85367 0.87778 0.0
C143 C 0.09064 0.86804 0.89864 0.0
C144 C 0.07982 0.87484 0.86981 0.0
C145 C 0.12028 0.85783 0.90266 0.0
C146 C 0.12828 0.86012 0.84868 0.0
C147 C 0.08945 0.88284 0.81473 0.0
C148 C 0.13089 0.9898 0.74519 0.0
C149 C 0.11114 0.0068 0.76314 0.0
H150 H 0.16568 0.95035 0.71392 0.0
C151 C 0.03141 0.92302 0.70822 0.0
C152 C 0.05264 0.83947 0.72643 0.0
C153 C 0.95517 0.87596 0.62672 0.0
C154 C 0.92196 0.89709 0.58796 0.0
C155 C 0.95939 0.85903 0.57486 0.0
C156 C 0.96895 0.85778 0.60472 0.0
C157 C 0.93611 0.87854 0.56651 0.0
C158 C 0.93137 0.89573 0.61832 0.0
C159 C 0.96595 0.87348 0.6581 0.0
H160 H 0.0762 0.87128 0.91804 0.0
H161 H 0.05712 0.88368 0.86726 0.0
H162 H 0.12842 0.85329 0.92527 0.0
H163 H 0.14316 0.85783 0.82943 0.0
H164 H 0.97004 0.84478 0.55811 0.0
H165 H 0.98702 0.84228 0.6107 0.0
H166 H 0.92902 0.87916 0.54312 0.0
H167 H 0.92045 0.90986 0.63505 0.0
C168 C 0.30317 0.79673 0.05251 0.0
C169 C 0.30559 0.76794 0.09908 0.0
C170 C 0.31976 0.77996 0.07328 0.0
C171 C 0.27438 0.77207 0.10308 0.0
C172 C 0.27209 0.80191 0.05703 0.0
C173 C 0.25767 0.78899 0.0821 0.0
N174 N 0.31769 0.80887 0.02843 0.0
C175 C 0.30332 0.82879 0.00983 0.0
C176 C 0.25661 0.82053 0.03659 0.0
C177 C 0.27244 0.83446 0.01317 0.0
Gd178 Gd 0.39335 0.73384 0.96008 0.0
Gd179 Gd 0.36865 0.79598 0.02319 0.0
N180 N 0.34988 0.77608 0.06858 0.0
C181 C 0.32332 0.75261 0.12035 0.0
C182 C 0.36748 0.76252 0.08994 0.0
C183 C 0.35447 0.75028 0.11596 0.0
H184 H 0.39157 0.7617 0.08736 0.0
H185 H 0.3685 0.7392 0.13267 0.0
H186 H 0.37021 0.77093 0.89944 0.0
H187 H 0.31581 0.84078 0.99281 0.0
H188 H 0.39224 0.79169 0.85243 0.0
H189 H 0.31331 0.74309 0.1405 0.0
H190 H 0.26305 0.76275 0.12262 0.0
H191 H 0.45101 0.69796 0.99703 0.0
H192 H 0.23271 0.82509 0.03926 0.0
H193 H 0.26097 0.84984 0.99793 0.0
H194 H 0.49825 0.77038 0.86169 0.0
H195 H 0.23374 0.7925 0.08581 0.0
H196 H 0.53213 0.71602 0.94886 0.0
H197 H 0.50575 0.69288 0.99214 0.0
N198 N 0.44607 0.72711 0.95882 0.0
C199 C 0.45997 0.73876 0.93404 0.0
C200 C 0.46204 0.70991 0.97899 0.0
C201 C 0.508 0.71924 0.95137 0.0
C202 C 0.49322 0.70627 0.9759 0.0
C203 C 0.49134 0.73523 0.92975 0.0
H204 H 0.52906 0.74462 0.90015 0.0
N205 N 0.41255 0.75684 0.91704 0.0
C206 C 0.44264 0.7534 0.91225 0.0
C207 C 0.43775 0.77883 0.8642 0.0
C208 C 0.45614 0.76469 0.88579 0.0
C209 C 0.39429 0.76966 0.89577 0.0
C210 C 0.40667 0.78118 0.86916 0.0
O211 O 0.33819 0.75415 0.01822 0.0
O212 O 0.36969 0.71621 1.00061 0.0
O213 O 0.36253 0.70982 0.92883 0.0
O214 O 0.4058 0.69019 0.94276 0.0
O215 O 0.41004 0.76808 0.03416 0.0
O216 O 0.40565 0.72214 0.00901 0.0
O217 O 0.40731 0.7832 0.95691 0.0
O218 O 0.41632 0.79514 0.00577 0.0
O219 O 0.38192 0.82421 0.06104 0.0
O220 O 0.37333 0.84447 0.017 0.0
O221 O 0.34754 0.75594 0.95467 0.0
O222 O 0.35484 0.80378 0.97434 0.0
C223 C 0.34421 0.7254 0.01237 0.0
C224 C 0.41516 0.73881 0.03195 0.0
C225 C 0.3761 0.65885 0.90989 0.0
C226 C 0.35407 0.63004 0.86821 0.0
C227 C 0.38625 0.60494 0.90511 0.0
C228 C 0.39 0.63218 0.92036 0.0
C229 C 0.3685 0.60384 0.87929 0.0
C230 C 0.35807 0.65781 0.88356 0.0
C231 C 0.38143 0.68724 0.92671 0.0
C232 C 0.48743 0.76165 0.88177 0.0
C233 C 0.50498 0.74706 0.90373 0.0
H234 H 0.44728 0.7878 0.84358 0.0
C235 C 0.42388 0.79664 0.97738 0.0
C236 C 0.33978 0.78466 0.95712 0.0
C237 C 0.37524 0.87767 0.05935 0.0
C238 C 0.39244 0.92007 0.08984 0.0
C239 C 0.34249 0.92099 0.0672 0.0
C240 C 0.34766 0.89253 0.05445 0.0
C241 C 0.36475 0.93472 0.08479 0.0
C242 C 0.39763 0.89146 0.07717 0.0
C243 C 0.38227 0.84878 0.04474 0.0
H244 H 0.3972 0.58458 0.91333 0.0
H245 H 0.40388 0.63232 0.94049 0.0
H246 H 0.36621 0.58234 0.86772 0.0
H247 H 0.34725 0.67822 0.87521 0.0
H248 H 0.32127 0.93254 0.06328 0.0
H249 H 0.33034 0.88232 0.04057 0.0
H250 H 0.36044 0.95688 0.0944 0.0
H251 H 0.41912 0.88017 0.08083 0.0
C252 C 0.54678 0.21141 0.21176 0.0
C253 C 0.59382 0.21052 0.23997 0.0
C254 C 0.56835 0.19543 0.22825 0.0
C255 C 0.59733 0.24174 0.23485 0.0
C256 C 0.5506 0.24262 0.20606 0.0
C257 C 0.57584 0.25771 0.21789 0.0
N258 N 0.52255 0.19629 0.20055 0.0
C259 C 0.5028 0.2103 0.18151 0.0
C260 C 0.52927 0.2576 0.18805 0.0
C261 C 0.50544 0.24127 0.17545 0.0
Gd262 Gd 0.46022 0.11507 0.27379 0.0
Gd263 Gd 0.52098 0.14438 0.21078 0.0
N264 N 0.56452 0.16514 0.23265 0.0
C265 C 0.61518 0.19372 0.25624 0.0
C266 C 0.58573 0.14855 0.24769 0.0
C267 C 0.61116 0.16258 0.26 0.0
H268 H 0.58345 0.12452 0.24995 0.0
H269 H 0.62779 0.1493 0.27213 0.0
H270 H 0.40253 0.13838 0.23119 0.0
H271 H 0.48547 0.19742 0.17032 0.0
H272 H 0.35468 0.1176 0.21144 0.0
H273 H 0.63502 0.20449 0.26563 0.0
H274 H 0.61678 0.25367 0.24365 0.0
H275 H 0.49392 0.05834 0.31319 0.0
H276 H 0.53145 0.28155 0.18309 0.0
H277 H 0.48941 0.25239 0.16066 0.0
H278 H 0.35356 0.01499 0.24756 0.0
H279 H 0.57912 0.28169 0.21377 0.0
H280 H 0.43717 0.98052 0.30706 0.0
H281 H 0.48395 0.00494 0.32518 0.0
N282 N 0.45431 0.0638 0.28632 0.0
C283 C 0.42792 0.05116 0.27705 0.0
C284 C 0.47402 0.0478 0.30397 0.0
C285 C 0.44161 1.00396 0.3013 0.0
C286 C 0.46815 0.01759 0.31138 0.0
C287 C 0.42101 0.02076 0.28408 0.0
H288 H 0.38846 0.98462 0.27848 0.0
N289 N 0.41625 0.09688 0.25134 0.0
C290 C 0.40837 0.06815 0.25907 0.0
C291 C 0.36198 0.07334 0.23079 0.0
C292 C 0.38126 0.05538 0.24842 0.0
C293 C 0.39696 0.11499 0.2354 0.0
C294 C 0.36975 0.10335 0.22449 0.0
O295 O 0.51604 0.17128 0.25496 0.0
O296 O 0.5033 0.13517 0.29052 0.0
O297 O 0.42893 0.14681 0.29662 0.0
O298 O 0.44534 0.10576 0.31907 0.0
O299 O 0.53507 0.10153 0.23446 0.0
O300 O 0.50876 0.09792 0.28006 0.0
O301 O 0.45666 0.09659 0.22605 0.0
O302 O 0.50525 0.09613 0.20737 0.0
O303 O 0.56026 0.13512 0.18172 0.0
O304 O 0.5158 0.14592 0.16243 0.0
O305 O 0.45562 0.16165 0.25351 0.0
O306 O 0.47098 0.1534 0.20498 0.0
C307 C 0.51535 0.16116 0.283 0.0
C308 C 0.5316 0.0908 0.26196 0.0
C309 C 0.41103 0.13648 0.34841 0.0
C310 C 0.36756 0.15738 0.37576 0.0
C311 C 0.40676 0.12958 0.40259 0.0
C312 C 0.42233 0.12505 0.37577 0.0
C313 C 0.37967 0.14559 0.40263 0.0
C314 C 0.38332 0.15269 0.34839 0.0
C315 C 0.42789 0.12945 0.32041 0.0
C316 C 0.37424 0.02522 0.25565 0.0
C317 C 0.39409 0.00795 0.27333 0.0
H318 H 0.3409 0.06436 0.22225 0.0
C319 C 0.47811 0.08459 0.20928 0.0
C320 C 0.45508 0.16872 0.2248 0.0
C321 C 0.55592 0.13712 0.12639 0.0
C322 C 0.58946 0.11608 0.08782 0.0
C323 C 0.55242 0.15456 0.07456 0.0
C324 C 0.54258 0.15564 0.1043 0.0
C325 C 0.57561 0.13494 0.06636 0.0
C326 C 0.57967 0.11719 0.11812 0.0
C327 C 0.54399 0.13886 0.15749 0.0
H328 H 0.4157 0.12054 0.42347 0.0
H329 H 0.44333 0.1124 0.37646 0.0
H330 H 0.36794 0.14863 0.42384 0.0
H331 H 0.37413 0.16141 0.32746 0.0
H332 H 0.54199 0.16898 0.05775 0.0
H333 H 0.52449 0.17115 0.11006 0.0
H334 H 0.58285 0.13446 0.04304 0.0
H335 H 0.59017 0.10268 0.13486 0.0
C336 C 0.54872 0.20783 0.54636 0.0
C337 C 0.55137 0.1606 0.51843 0.0
C338 C 0.56551 0.18657 0.53034 0.0
C339 C 0.52022 0.15646 0.52259 0.0
C340 C 0.51763 0.20324 0.55138 0.0
C341 C 0.50343 0.17765 0.5391 0.0
N342 N 0.56296 0.23249 0.55784 0.0
C343 C 0.54825 0.25181 0.57677 0.0
C344 C 0.5019 0.22417 0.56918 0.0
C345 C 0.5174 0.24834 0.58227 0.0
Gd346 Gd 0.64194 0.29785 0.48504 0.0
Gd347 Gd 0.61458 0.23604 0.54775 0.0
N348 N 0.5957 0.19109 0.52681 0.0
C349 C 0.56907 0.13933 0.50306 0.0
C350 C 0.61322 0.16975 0.51312 0.0
C351 C 0.60017 0.14379 0.50067 0.0
H352 H 0.63727 0.17232 0.51216 0.0
H353 H 0.61416 0.12712 0.48946 0.0
H354 H 0.61748 0.35844 0.5219 0.0
H355 H 0.56043 0.26953 0.58819 0.0
H356 H 0.63854 0.40607 0.54264 0.0
H357 H 0.55905 0.11912 0.49352 0.0
H358 H 0.50898 0.13667 0.51354 0.0
H359 H 0.70004 0.26211 0.44953 0.0
H360 H 0.47803 0.22139 0.57365 0.0
H361 H 0.50571 0.26404 0.59693 0.0
H362 H 0.74458 0.39927 0.52112 0.0
H363 H 0.47953 0.17383 0.5426 0.0
H364 H 0.78017 0.31252 0.46691 0.0
H365 H 0.75469 0.26836 0.44412 0.0
N366 N 0.69451 0.30052 0.47828 0.0
C367 C 0.70787 0.32571 0.48982 0.0
C368 C 0.71081 0.28056 0.46121 0.0
C369 C 0.75615 0.30943 0.47022 0.0
C370 C 0.74188 0.2844 0.45743 0.0
C371 C 0.73909 0.33076 0.48618 0.0
H372 H 0.77613 0.36139 0.49536 0.0
N373 N 0.66015 0.34164 0.5079 0.0
C374 C 0.6901 0.34716 0.50442 0.0
C375 C 0.68423 0.39529 0.52975 0.0
C376 C 0.70303 0.37406 0.51561 0.0
C377 C 0.64147 0.36263 0.52063 0.0
C378 C 0.65329 0.3896 0.53213 0.0
O379 O 0.58639 0.24069 0.50434 0.0
O380 O 0.62066 0.25541 0.46786 0.0
O381 O 0.6108 0.32816 0.45978 0.0
O382 O 0.65454 0.31442 0.4414 0.0
O383 O 0.65746 0.22372 0.52326 0.0
O384 O 0.65679 0.24878 0.47691 0.0
O385 O 0.65498 0.30187 0.53429 0.0
O386 O 0.66255 0.2531 0.54934 0.0
O387 O 0.62395 0.19751 0.57807 0.0
O388 O 0.61476 0.24306 0.59583 0.0
O389 O 0.59531 0.30282 0.50479 0.0
O390 O 0.60209 0.28565 0.55333 0.0
C391 C 0.59486 0.2435 0.47592 0.0
C392 C 0.66581 0.22649 0.4949 0.0
C393 C 0.62477 0.34623 0.4088 0.0
C394 C 0.60264 0.38713 0.37841 0.0
C395 C 0.63621 0.35004 0.35542 0.0
C396 C 0.63954 0.33539 0.38296 0.0
C397 C 0.61803 0.37567 0.35312 0.0
C398 C 0.60624 0.37234 0.40653 0.0
C399 C 0.62998 0.33013 0.43762 0.0
C400 C 0.73419 0.37884 0.51247 0.0
C401 C 0.75217 0.35721 0.49789 0.0
H402 H 0.69333 0.4162 0.53869 0.0
C403 C 0.67121 0.28144 0.54849 0.0
C404 C 0.58712 0.30175 0.53322 0.0
C405 C 0.62427 0.20402 0.63327 0.0
C406 C 0.64315 0.16891 0.67178 0.0
C407 C 0.61407 0.21326 0.68628 0.0
C408 C 0.61123 0.22166 0.65619 0.0
C409 C 0.6299 0.18716 0.69404 0.0
C410 C 0.64035 0.1773 0.64114 0.0
C411 C 0.62133 0.2148 0.60175 0.0
H412 H 0.64792 0.34158 0.33575 0.0
H413 H 0.65385 0.31546 0.38401 0.0
H414 H 0.61637 0.38686 0.33143 0.0
H415 H 0.59484 0.38103 0.42632 0.0
H416 H 0.60397 0.22709 0.70371 0.0
H417 H 0.59875 0.24214 0.65089 0.0
H418 H 0.63187 0.18112 0.71765 0.0
H419 H 0.65065 0.16343 0.62382 0.0
C420 C 0.95996 0.45991 0.71223 0.0
C421 C 0.98372 0.46021 0.66298 0.0
C422 C 0.97381 0.44441 0.68875 0.0
C423 C 0.98075 0.49191 0.66177 0.0
C424 C 0.95577 0.49157 0.7105 0.0
C425 C 0.96689 0.50756 0.68551 0.0
N426 N 0.94928 0.44381 0.73606 0.0
C427 C 0.93095 0.45737 0.75675 0.0
C428 C 0.93963 0.50606 0.73348 0.0
C429 C 0.92662 0.48877 0.75637 0.0
Gd430 Gd 0.02403 0.36402 0.79743 0.0
Gd431 Gd 0.96003 0.39161 0.73587 0.0
N432 N 0.97671 0.41374 0.69074 0.0
C433 C 0.99564 0.4436 0.63891 0.0
C434 C 0.9868 0.39733 0.66676 0.0
C435 C 0.99671 0.41199 0.64062 0.0
H436 H 0.98673 0.37291 0.66751 0.0
H437 H 1.00503 0.39888 0.62176 0.0
H438 H 0.98743 0.38836 0.8579 0.0
H439 H 0.91943 0.44402 0.77353 0.0
H440 H 0.96692 0.36704 0.90534 0.0
H441 H 1.00333 0.45488 0.61863 0.0
H442 H 0.98851 0.50447 0.64228 0.0
H443 H 0.06005 0.30588 0.762 0.0
H444 H 0.93601 0.53036 0.73305 0.0
H445 H 0.9129 0.49953 0.77348 0.0
H446 H 0.98867 0.26059 0.89844 0.0
H447 H 0.96414 0.53192 0.68393 0.0
H448 H 0.04382 0.22537 0.81263 0.0
H449 H 0.0664 0.25112 0.76866 0.0
N450 N 0.03098 0.3112 0.80001 0.0
C451 C 0.01944 0.29767 0.82505 0.0
C452 C 0.04842 0.29498 0.78036 0.0
C453 C 0.04004 0.24942 0.80933 0.0
C454 C 0.05273 0.26385 0.78442 0.0
C455 C 0.02359 0.26638 0.8303 0.0
H456 H 0.01499 0.22915 0.861 0.0
N457 N 1.00111 0.34551 0.84092 0.0
C458 C 1.00458 0.31539 0.84632 0.0
C459 C 0.97957 0.32114 0.89438 0.0
C460 C 0.99357 0.30232 0.87314 0.0
C461 C 0.98863 0.36423 0.86199 0.0
C462 C 0.97725 0.35226 0.88884 0.0
O463 O 1.00334 0.41973 0.73844 0.0
O464 O 0.04122 0.38775 0.75637 0.0
O465 O 0.04776 0.39421 0.82937 0.0
O466 O 0.06862 0.35231 0.81304 0.0
O467 O 0.98832 0.35224 0.71953 0.0
O468 O 0.03256 0.34936 0.7487 0.0
O469 O 0.97475 0.3515 0.8022 0.0
O470 O 0.9607 0.34352 0.75356 0.0
O471 O 0.93008 0.38037 0.69774 0.0
O472 O 0.91175 0.39094 0.74241 0.0
O473 O 1.00453 0.41088 0.80131 0.0
O474 O 0.95559 0.4036 0.78561 0.0
C475 C 0.03197 0.41283 0.74334 0.0
C476 C 0.01629 0.34302 0.72438 0.0
C477 C 0.09932 0.38197 0.84674 0.0
C478 C 0.12751 0.40224 0.88966 0.0
C479 C 0.15393 0.37714 0.84873 0.0
C480 C 0.12662 0.37201 0.83406 0.0
C481 C 0.15442 0.39221 0.87625 0.0
C482 C 0.09975 0.39707 0.87484 0.0
C483 C 0.07097 0.37604 0.8302 0.0
C484 C 0.9971 0.27107 0.87803 0.0
C485 C 0.01203 0.25315 0.85666 0.0
H486 H 0.97082 0.31194 0.91525 0.0
C487 C 0.95942 0.33615 0.78211 0.0
C488 C 0.97601 0.41883 0.80102 0.0
C489 C 0.87482 0.38109 0.7034 0.0
C490 C 0.83658 0.36092 0.66903 0.0
C491 C 0.8229 0.39865 0.70645 0.0
C492 C 0.85258 0.39939 0.71673 0.0
C493 C 0.81494 0.37959 0.68282 0.0
C494 C 0.86677 0.36167 0.67928 0.0
C495 C 0.90621 0.38383 0.71442 0.0
H496 H 0.17483 0.36937 0.83872 0.0
H497 H 0.1269 0.36036 0.81258 0.0
H498 H 0.17593 0.3958 0.88735 0.0
H499 H 0.07884 0.40467 0.88503 0.0
H500 H 0.806 0.41302 0.71676 0.0
H501 H 0.85824 0.41473 0.73491 0.0
H502 H 0.79169 0.37943 0.67517 0.0
H503 H 0.8837 0.34756 0.66858 0.0
C504 C 0.95902 0.79941 0.04409 0.0
C505 C 0.95666 0.84698 0.01637 0.0
C506 C 0.94247 0.82099 0.02809 0.0
C507 C 0.98796 0.85049 0.01992 0.0
C508 C 0.99019 0.80368 0.04892 0.0
C509 C 1.00467 0.82891 0.03615 0.0
N510 N 0.94429 0.77541 0.05657 0.0
C511 C 0.95864 0.75709 0.07679 0.0
C512 C 1.00562 0.7831 0.06745 0.0
C513 C 0.98963 0.76006 0.08194 0.0
Gd514 Gd 0.86524 0.7093 0.98242 0.0
Gd515 Gd 0.89239 0.7727 0.0462 0.0
N516 N 0.91225 0.81666 0.0244 0.0
C517 C 0.93879 0.86906 1.00221 0.0
C518 C 0.89447 0.83911 0.01289 0.0
C519 C 0.90746 0.86542 1.00109 0.0
H520 H 0.87033 0.83696 0.01334 0.0
H521 H 0.89332 0.88289 0.99129 0.0
H522 H 0.88831 0.65572 0.03222 0.0
H523 H 0.94584 0.74111 0.08989 0.0
H524 H 0.86683 0.61048 0.05628 0.0
H525 H 0.94882 0.88943 0.99298 0.0
H526 H 0.99933 0.8702 0.01085 0.0
H527 H 0.80913 0.74222 0.94369 0.0
H528 H 0.02956 0.78563 0.07181 0.0
H529 H 1.00101 0.74506 0.0976 0.0
H530 H 0.76472 0.60742 0.0204 0.0
H531 H 0.02865 0.8324 0.03942 0.0
H532 H 0.73073 0.68682 0.95472 0.0
H533 H 0.75535 0.73212 0.93296 0.0
N534 N 0.81424 0.7037 0.97213 0.0
C535 C 0.80127 0.6788 0.98456 0.0
C536 C 0.79833 0.72282 0.95386 0.0
C537 C 0.75422 0.69135 0.9598 0.0
C538 C 0.768 0.717 0.94752 0.0
C539 C 0.77083 0.67188 0.97855 0.0
H540 H 0.73459 0.64017 0.987 0.0
N541 N 0.84738 0.6683 0.01033 0.0
C542 C 0.81827 0.66059 1.00406 0.0
C543 C 0.82291 0.61661 0.03625 0.0
C544 C 0.80521 0.63465 0.01714 0.0
C545 C 0.86489 0.65056 0.02852 0.0
C546 C 0.85286 0.62458 0.04191 0.0
O547 O 0.91491 0.77605 1.00022 0.0
O548 O 0.89878 0.74114 0.96431 0.0
O549 O 0.88763 0.67004 0.96137 0.0
O550 O 0.85722 0.69958 0.93549 0.0
O551 O 0.8501 0.78049 0.01889 0.0
O552 O 0.85513 0.75874 0.97146 0.0
O553 O 0.83394 0.72334 0.01978 0.0
O554 O 0.86357 0.73293 0.06142 0.0
O555 O 0.86084 0.80182 0.07118 0.0
O556 O 0.90528 0.79226 0.08871 0.0
O557 O 0.90919 0.70147 0.00632 0.0
O558 O 0.90585 0.72372 0.05341 0.0
C559 C 0.91609 0.76313 0.97352 0.0
C560 C 0.84674 0.78114 0.98944 0.0
C561 C 0.8807 0.65882 0.90739 0.0
C562 C 0.9026 0.61604 0.87979 0.0
C563 C 0.87815 0.65722 0.85271 0.0
C564 C 0.87182 0.67173 0.87979 0.0
C565 C 0.89351 0.62968 0.85265 0.0
C566 C 0.89607 0.63063 0.90737 0.0
C567 C 0.87544 0.67634 0.93533 0.0
C568 C 0.77506 0.62737 0.01064 0.0
C569 C 0.7579 0.64598 0.99154 0.0
H570 H 0.81374 0.59635 0.04655 0.0
C571 C 0.83735 0.72597 0.04909 0.0
C572 C 0.91974 0.7065 0.03349 0.0
C573 C 0.86902 0.80656 0.12439 0.0
C574 C 0.85096 0.83517 0.16782 0.0
C575 C 0.86819 0.78323 0.17396 0.0
C576 C 0.87423 0.78143 0.14319 0.0
C577 C 0.85669 0.80993 0.18623 0.0
C578 C 0.85726 0.83354 0.13681 0.0
C579 C 0.87993 0.80633 0.09308 0.0
H580 H 0.87123 0.66746 0.83162 0.0
H581 H 0.86032 0.69342 0.87902 0.0
H582 H 0.89806 0.61878 0.83126 0.0
H583 H 0.90331 0.62042 0.92841 0.0
H584 H 0.87283 0.76401 0.18843 0.0
H585 H 0.88384 0.76072 0.13422 0.0
H586 H 0.85246 0.81102 0.21026 0.0
H587 H 0.85381 0.8533 0.12265 0.0
C588 C 0.55052 0.55426 0.21077 0.0
C589 C 0.52152 0.55438 0.16432 0.0
C590 C 0.53312 0.56958 0.18976 0.0
C591 C 0.52696 0.52321 0.16083 0.0
C592 C 0.55751 0.52333 0.2064 0.0
C593 C 0.54501 0.50774 0.18178 0.0
N594 N 0.56243 0.5701 0.23418 0.0
C595 C 0.58431 0.55713 0.25185 0.0
C596 C 0.57778 0.50931 0.22621 0.0
C597 C 0.59171 0.52646 0.24864 0.0
Gd598 Gd 0.47935 0.64363 0.30213 0.0
Gd599 Gd 0.546 0.62108 0.23898 0.0
N600 N 0.52848 0.59974 0.19363 0.0
C601 C 0.50534 0.57112 0.14284 0.0
C602 C 0.51477 0.61654 0.17164 0.0
C603 C 0.50235 0.60245 0.14631 0.0
H604 H 0.51308 0.64073 0.17397 0.0
H605 H 0.49065 0.61577 0.12942 0.0
H606 H 0.53009 0.62361 0.3558 0.0
H607 H 0.59579 0.57031 0.26888 0.0
H608 H 0.55164 0.64585 0.40179 0.0
H609 H 0.49587 0.56024 0.12311 0.0
H610 H 0.51803 0.51107 0.14159 0.0
H611 H 0.44069 0.69988 0.26762 0.0
H612 H 0.58372 0.48561 0.22364 0.0
H613 H 0.60827 0.5161 0.26339 0.0
H614 H 0.51065 0.74649 0.4047 0.0
H615 H 0.54987 0.48392 0.17827 0.0
H616 H 0.44797 0.77891 0.32279 0.0
H617 H 0.42912 0.75373 0.27675 0.0
N618 N 0.46739 0.69498 0.30728 0.0
C619 C 0.47779 0.70824 0.33293 0.0
C620 C 0.44978 0.71073 0.28741 0.0
C621 C 0.45339 0.75529 0.31881 0.0
C622 C 0.44283 0.74119 0.2927 0.0
C623 C 0.47102 0.73884 0.33934 0.0
H624 H 0.47767 0.77573 0.37082 0.0
N625 N 0.50513 0.66301 0.34395 0.0
C626 C 0.49714 0.69183 0.35177 0.0
C627 C 0.5289 0.68867 0.39599 0.0
C628 C 0.50921 0.70554 0.37782 0.0
C629 C 0.52436 0.64654 0.36154 0.0
C630 C 0.53651 0.65908 0.38779 0.0
O631 O 0.49809 0.60382 0.22981 0.0
O632 O 0.47677 0.59924 0.27692 0.0
O633 O 0.45733 0.62801 0.34323 0.0
O634 O 0.43042 0.64583 0.3056 0.0
O635 O 0.51714 0.66354 0.23593 0.0
O636 O 0.46872 0.65486 0.25321 0.0
O637 O 0.5162 0.67705 0.2918 0.0
O638 O 0.55801 0.64834 0.28106 0.0
O639 O 0.56843 0.64604 0.20242 0.0
O640 O 0.59434 0.62688 0.23876 0.0
O641 O 0.50533 0.6008 0.31261 0.0
O642 O 0.5485 0.59499 0.28254 0.0
C643 C 0.47622 0.59462 0.24773 0.0
C644 C 0.48764 0.66481 0.23239 0.0
C645 C 0.40272 0.62928 0.35034 0.0
C646 C 0.37577 0.60769 0.39349 0.0
C647 C 0.34811 0.63295 0.3533 0.0
C648 C 0.37501 0.63892 0.33826 0.0
C649 C 0.34842 0.61724 0.38055 0.0
C650 C 0.40311 0.61401 0.37845 0.0
C651 C 0.43062 0.63449 0.3328 0.0
C652 C 0.50161 0.73567 0.38474 0.0
C653 C 0.48274 0.75231 0.36549 0.0
H654 H 0.53846 0.69833 0.4163 0.0
C655 C 0.54559 0.67428 0.28899 0.0
C656 C 0.53072 0.5872 0.30495 0.0
C657 C 0.61998 0.63252 0.19281 0.0
C658 C 0.6637 0.64698 0.16254 0.0
C659 C 0.65483 0.59404 0.17462 0.0
C660 C 0.62876 0.60197 0.1904 0.0
C661 C 0.67221 0.61637 0.1608 0.0
C662 C 0.63753 0.65506 0.17865 0.0
C663 C 0.59529 0.64139 0.21336 0.0
H664 H 0.32688 0.64036 0.34368 0.0
H665 H 0.37405 0.65089 0.31695 0.0
H666 H 0.32717 0.61273 0.39174 0.0
H667 H 0.42429 0.60647 0.38821 0.0
H668 H 0.66182 0.57055 0.1734 0.0
H669 H 0.61599 0.5843 0.20144 0.0
H670 H 0.69255 0.6098 0.14888 0.0
H671 H 0.63123 0.67873 0.18067 0.0
C672 C 0.21006 0.54862 0.20514 0.0
C673 C 0.23807 0.59588 0.20492 0.0
C674 C 0.22681 0.57024 0.18969 0.0
C675 C 0.233 0.59904 0.23599 0.0
C676 C 0.20396 0.55235 0.23611 0.0
C677 C 0.21601 0.57734 0.25155 0.0
N678 N 0.19867 0.52466 0.18966 0.0
C679 C 0.17872 0.50533 0.20299 0.0
C680 C 0.18527 0.53127 0.25047 0.0
C681 C 0.17217 0.50798 0.2337 0.0
Gd682 Gd 0.27185 0.45628 0.11079 0.0
Gd683 Gd 0.21269 0.52174 0.13882 0.0
N684 N 0.23159 0.56651 0.15965 0.0
C685 C 0.25387 0.61771 0.18836 0.0
C686 C 0.24582 0.58827 0.14318 0.0
C687 C 0.25746 0.61404 0.1573 0.0
H688 H 0.24773 0.58609 0.11911 0.0
H689 H 0.26899 0.63115 0.14418 0.0
H690 H 0.23261 0.3971 0.13372 0.0
H691 H 0.1679 0.48769 0.19007 0.0
H692 H 0.20876 0.35145 0.11151 0.0
H693 H 0.26288 0.63773 0.19922 0.0
H694 H 0.24172 0.61845 0.24812 0.0
H695 H 0.31056 0.49044 0.0539 0.0
H696 H 0.1801 0.5333 0.27424 0.0
H697 H 0.15696 0.49212 0.24439 0.0
H698 H 0.2279 0.36128 0.00549 0.0
H699 H 0.21179 0.58041 0.2754 0.0
H700 H 0.28873 0.44433 0.97245 0.0
H701 H 0.31545 0.48536 0.99922 0.0
N702 N 0.27788 0.45515 0.0582 0.0
C703 C 0.26393 0.43164 0.04408 0.0
C704 C 0.297 0.47369 0.04258 0.0
C705 C 0.28545 0.44716 0.99647 0.0
C706 C 0.3005 0.47041 0.01148 0.0
C707 C 0.26742 0.42702 0.01282 0.0
H708 H 0.25632 0.398 0.97506 0.0
N709 N 0.24506 0.41543 0.09134 0.0
C710 C 0.24758 0.41092 0.06118 0.0
C711 C 0.22017 0.36384 0.06591 0.0
C712 C 0.23478 0.38511 0.04758 0.0
C713 C 0.23243 0.39401 0.10958 0.0
C714 C 0.21925 0.36817 0.09709 0.0
O715 O 0.25749 0.51843 0.16549 0.0
O716 O 0.29229 0.49678 0.13267 0.0
O717 O 0.29333 0.4232 0.14061 0.0
O718 O 0.31329 0.43383 0.09737 0.0
O719 O 0.23949 0.53452 0.09764 0.0
O720 O 0.28364 0.50518 0.09669 0.0
O721 O 0.22176 0.45419 0.1011 0.0
O722 O 0.2133 0.50358 0.09149 0.0
O723 O 0.1838 0.56028 0.12727 0.0
O724 O 0.16482 0.51499 0.1321 0.0
O725 O 0.25511 0.4534 0.1585 0.0
O726 O 0.20722 0.47307 0.15381 0.0
C727 C 0.28549 0.51056 0.15801 0.0
C728 C 0.26757 0.52961 0.08928 0.0
C729 C 0.34468 0.40824 0.13301 0.0
C730 C 0.37694 0.36893 0.15488 0.0
C731 C 0.39863 0.41638 0.13747 0.0
C732 C 0.37008 0.42668 0.12872 0.0
C733 C 0.40207 0.38775 0.15056 0.0
C734 C 0.34824 0.37929 0.14602 0.0
C735 C 0.31475 0.41714 0.12151 0.0
C736 C 0.23764 0.38094 0.01637 0.0
C737 C 0.25381 0.40188 0.99903 0.0
H738 H 0.21019 0.34364 0.0563 0.0
C739 C 0.20834 0.47518 0.08521 0.0
C740 C 0.22786 0.45801 0.16898 0.0
C741 C 0.12992 0.55648 0.13167 0.0
C742 C 0.08823 0.5894 0.11624 0.0
C743 C 0.08236 0.55509 0.15869 0.0
C744 C 0.11191 0.54475 0.15491 0.0
C745 C 0.07059 0.57724 0.13952 0.0
C746 C 0.11795 0.5789 0.11226 0.0
C747 C 0.15981 0.54336 0.1251 0.0
H748 H 0.41823 0.4305 0.1338 0.0
H749 H 0.36792 0.44874 0.11818 0.0
H750 H 0.42446 0.38003 0.15683 0.0
H751 H 0.32878 0.36471 0.14891 0.0
H752 H 0.0684 0.5457 0.17637 0.0
H753 H 0.12044 0.52719 0.16974 0.0
H754 H 0.0475 0.58478 0.14269 0.0
H755 H 0.1315 0.58779 0.09395 0.0
C756 C 0.71366 0.95628 0.80236 0.0
C757 C 0.74217 0.90933 0.80549 0.0
C758 C 0.73015 0.93547 0.81929 0.0
C759 C 0.73809 0.90485 0.7744 0.0
C760 C 0.7085 0.95123 0.7714 0.0
C761 C 0.7213 0.92575 0.75741 0.0
N762 N 0.70136 0.98063 0.81648 0.0
C763 C 0.68083 0.99852 0.80203 0.0
C764 C 0.68973 0.97141 0.75568 0.0
C765 C 0.67535 0.99483 0.77123 0.0
Gd766 Gd 0.77101 0.0515 0.89456 0.0
Gd767 Gd 0.71228 0.98533 0.8678 0.0
N768 N 0.73387 0.94049 0.84935 0.0
C769 C 0.75774 0.88834 0.82343 0.0
C770 C 0.74794 0.91956 0.86711 0.0
C771 C 0.76042 0.89337 0.8544 0.0
H772 H 0.74896 0.92261 0.89111 0.0
H773 H 0.77184 0.87694 0.86855 0.0
H774 H 0.73001 0.11007 0.8728 0.0
H775 H 0.66811 0.01516 0.81443 0.0
H776 H 0.70874 0.15696 0.8953 0.0
H777 H 0.76735 0.86798 0.81368 0.0
H778 H 0.74738 0.88502 0.76338 0.0
H779 H 0.81099 0.0164 0.95059 0.0
H780 H 0.6852 0.96834 0.73188 0.0
H781 H 0.65962 0.00966 0.75968 0.0
H782 H 0.73384 0.14881 1.00033 0.0
H783 H 0.71778 0.92163 0.7336 0.0
H784 H 0.79315 0.06381 0.03228 0.0
H785 H 0.81765 0.02159 1.00508 0.0
N786 N 0.77931 0.05288 0.94692 0.0
C787 C 0.76661 0.077 0.96126 0.0
C788 C 0.79833 0.03374 0.96213 0.0
C789 C 0.78909 0.06099 0.00836 0.0
C790 C 0.80288 0.03706 0.99311 0.0
C791 C 0.77128 0.08173 0.99236 0.0
H792 H 0.76228 0.11141 0.03019 0.0
N793 N 0.74558 0.09284 0.9147 0.0
C794 C 0.75007 0.09798 0.94454 0.0
C795 C 0.72321 0.14558 0.94035 0.0
C796 C 0.7385 0.12434 0.95829 0.0
C797 C 0.73177 0.11388 0.89681 0.0
C798 C 0.72 0.14041 0.90943 0.0
O799 O 0.75611 0.99028 0.84016 0.0
O800 O 0.79159 0.01108 0.87271 0.0
O801 O 0.79164 0.0838 0.8634 0.0
O802 O 0.81255 0.07432 0.90654 0.0
O803 O 0.73813 0.97542 0.91051 0.0
O804 O 0.78316 1.00273 0.90809 0.0
O805 O 0.72129 0.05245 0.90675 0.0
O806 O 0.71033 1.00291 0.91552 0.0
O807 O 0.68312 0.94577 0.87756 0.0
O808 O 0.66423 0.99113 0.86905 0.0
O809 O 0.75206 0.05466 0.84745 0.0
O810 O 0.70488 0.03421 0.85372 0.0
C811 C 0.78417 0.99798 0.84724 0.0
C812 C 0.7668 0.97933 0.9173 0.0
C813 C 0.84342 0.09795 0.86951 0.0
C814 C 0.8774 0.13699 0.85023 0.0
C815 C 0.89692 0.08736 0.86421 0.0
C816 C 0.86795 0.07795 0.87232 0.0
C817 C 0.90171 0.11678 0.85356 0.0
C818 C 0.84818 0.12734 0.85794 0.0
C819 C 0.81355 0.09025 0.88186 0.0
C820 C 0.74274 0.1288 0.98932 0.0
C821 C 0.7589 0.10745 0.00634 0.0
H822 H 0.71413 0.16619 0.95006 0.0
C823 C 0.7085 0.03147 0.92333 0.0
C824 C 0.72435 0.05021 0.838 0.0
C825 C 0.62755 0.95169 0.87639 0.0
C826 C 0.58814 0.9181 0.89548 0.0
C827 C 0.5758 0.95722 0.85895 0.0
C828 C 0.60583 0.96636 0.85841 0.0
C829 C 0.56699 0.93331 0.87734 0.0
C830 C 0.61865 0.92727 0.89506 0.0
C831 C 0.65903 0.96271 0.8753 0.0
H832 H 0.91584 0.07199 0.86679 0.0
H833 H 0.86482 0.05539 0.88145 0.0
H834 H 0.92444 0.12387 0.84804 0.0
H835 H 0.82943 0.14312 0.85626 0.0
H836 H 0.55926 0.96871 0.84503 0.0
H837 H 0.61209 0.98498 0.84378 0.0
H838 H 0.54347 0.92656 0.87741 0.0
H839 H 0.6351 0.91565 0.90903 0.0
C840 C 0.79659 0.05033 0.30145 0.0
C841 C 0.76707 0.09672 0.30221 0.0
C842 C 0.77957 0.07145 0.31721 0.0
C843 C 0.77106 0.09985 0.27095 0.0
C844 C 0.80181 0.05411 0.27033 0.0
C845 C 0.78836 0.07858 0.25504 0.0
N846 N 0.80951 0.02709 0.31691 0.0
C847 C 0.83058 0.00909 0.3035 0.0
C848 C 0.82124 0.03379 0.25577 0.0
C849 C 0.83619 0.01156 0.27259 0.0
Gd850 Gd 0.73974 0.9565 0.3958 0.0
Gd851 Gd 0.79664 0.02328 0.368 0.0
N852 N 0.77612 0.06776 0.34743 0.0
C853 C 0.75153 0.11842 0.31922 0.0
C854 C 0.76233 0.08951 0.36431 0.0
C855 C 0.74952 0.115 0.35047 0.0
H856 H 0.76172 0.08754 0.38849 0.0
H857 H 0.73833 0.1321 0.36394 0.0
H858 H 0.78124 0.89842 0.37409 0.0
H859 H 0.84341 0.99311 0.31675 0.0
H860 H 0.80293 0.85163 0.39657 0.0
H861 H 0.74169 0.13824 0.30858 0.0
H862 H 0.76142 0.119 0.25898 0.0
H863 H 0.69848 0.99031 0.45182 0.0
H864 H 0.82582 0.03587 0.23188 0.0
H865 H 0.85233 0.99662 0.26186 0.0
H866 H 0.77773 0.85905 0.50151 0.0
H867 H 0.79188 0.0817 0.23108 0.0
H868 H 0.71723 0.94299 0.53341 0.0
H869 H 0.69194 0.98481 0.50618 0.0
N870 N 0.73121 0.95471 0.44816 0.0
C871 C 0.74431 0.93075 0.46251 0.0
C872 C 0.71165 0.97328 0.46333 0.0
C873 C 0.72134 0.94605 0.50954 0.0
C874 C 0.70711 0.96974 0.49427 0.0
C875 C 0.73957 0.92574 0.49357 0.0
H876 H 0.74876 0.89591 0.53133 0.0
N877 N 0.7656 0.91538 0.41599 0.0
C878 C 0.76118 0.91009 0.44582 0.0
C879 C 0.78845 0.86273 0.44161 0.0
C880 C 0.77299 0.88377 0.45955 0.0
C881 C 0.77955 0.8945 0.3981 0.0
C882 C 0.79156 0.86804 0.4107 0.0
O883 O 0.75167 0.01988 0.34187 0.0
O884 O 0.71767 0.99602 0.37414 0.0
O885 O 0.72085 0.92321 0.36499 0.0
O886 O 0.69821 0.93326 0.40701 0.0
O887 O 0.76972 0.03507 0.40937 0.0
O888 O 0.72651 1.00475 0.41037 0.0
O889 O 0.78948 0.95568 0.40702 0.0
O890 O 0.79704 0.00549 0.41556 0.0
O891 O 0.82333 0.06212 0.38148 0.0
O892 O 0.84527 0.01884 0.37235 0.0
O893 O 0.75706 0.95549 0.34813 0.0
O894 O 0.80467 0.97468 0.35389 0.0
C895 C 0.72391 0.01292 0.35057 0.0
C896 C 0.74173 0.02961 0.41753 0.0
C897 C 0.66878 0.91169 0.36799 0.0
C898 C 0.63336 0.87504 0.34701 0.0
C899 C 0.61781 0.92738 0.35564 0.0
C900 C 0.6465 0.93428 0.36669 0.0
C901 C 0.61117 0.89794 0.34609 0.0
C902 C 0.66234 0.88228 0.3576 0.0
C903 C 0.69804 0.91724 0.38241 0.0
C904 C 0.76869 0.87906 0.49053 0.0
C905 C 0.75222 0.90009 0.50752 0.0
H906 H 0.79767 0.84215 0.4513 0.0
C907 C 0.80203 0.97726 0.42279 0.0
C908 C 0.78484 0.95881 0.33861 0.0
C909 C 0.87606 0.06306 0.37309 0.0
C910 C 0.91763 0.09524 0.38884 0.0
C911 C 0.91498 0.07682 0.33736 0.0
C912 C 0.88821 0.06154 0.34398 0.0
C913 C 0.92959 0.09369 0.35962 0.0
C914 C 0.89089 0.07983 0.39554 0.0
C915 C 0.84852 0.04684 0.38131 0.0
H916 H 0.6005 0.94473 0.35501 0.0
H917 H 0.6511 0.95699 0.37475 0.0
H918 H 0.58856 0.89298 0.33822 0.0
H919 H 0.67941 0.86468 0.35923 0.0
H920 H 0.92452 0.07548 0.31496 0.0
H921 H 0.87717 0.04851 0.32654 0.0
H922 H 0.95047 0.10519 0.3542 0.0
H923 H 0.88171 0.0808 0.41818 0.0
C924 C 0.2107 0.54633 0.55091 0.0
C925 C 0.16219 0.52096 0.55403 0.0
C926 C 0.18876 0.53164 0.5679 0.0
C927 C 0.15828 0.52466 0.52282 0.0
C928 C 0.20643 0.55082 0.51973 0.0
C929 C 0.1803 0.53959 0.50574 0.0
N930 N 0.23593 0.5567 0.56501 0.0
C931 C 0.2564 0.57391 0.54975 0.0
C932 C 0.22833 0.56691 0.50362 0.0
C933 C 0.25323 0.57884 0.51879 0.0
Gd934 Gd 0.29572 0.47964 0.64326 0.0
Gd935 Gd 0.23898 0.54719 0.61703 0.0
N936 N 0.19337 0.528 0.59805 0.0
C937 C 0.1401 0.50738 0.57205 0.0
C938 C 0.17097 0.51694 0.61593 0.0
C939 C 0.14429 0.50586 0.60321 0.0
H940 H 0.17315 0.51748 0.64001 0.0
H941 H 0.12684 0.49652 0.6175 0.0
H942 H 0.35181 0.52606 0.61951 0.0
H943 H 0.27469 0.58465 0.56164 0.0
H944 H 0.39613 0.55126 0.64105 0.0
H945 H 0.11938 0.49886 0.56226 0.0
H946 H 0.13807 0.51648 0.51176 0.0
H947 H 0.26381 0.44114 0.69951 0.0
H948 H 0.22584 0.57091 0.47965 0.0
H949 H 0.26977 0.59219 0.50676 0.0
H950 H 0.39732 0.51908 0.7443 0.0
H951 H 0.17671 0.5427 0.48178 0.0
H952 H 0.3182 0.4536 0.77838 0.0
H953 H 0.27344 0.43126 0.75356 0.0
N954 N 0.30239 0.46918 0.69429 0.0
C955 C 0.32707 0.4818 0.70739 0.0
C956 C 0.28319 0.45126 0.71033 0.0
C957 C 0.31402 0.45811 0.75474 0.0
C958 C 0.28868 0.4455 0.74083 0.0
C959 C 0.33356 0.47654 0.73805 0.0
H960 H 0.36447 0.48619 0.77464 0.0
N961 N 0.33766 0.5067 0.66102 0.0
C962 C 0.34523 0.50102 0.6903 0.0
C963 C 0.38903 0.53317 0.68556 0.0
C964 C 0.37086 0.51453 0.70344 0.0
C965 C 0.35605 0.52376 0.64321 0.0
C966 C 0.38172 0.53759 0.65527 0.0
O967 O 0.24001 0.50401 0.58778 0.0
O968 O 0.2557 0.4635 0.61755 0.0
O969 O 0.3326 0.4573 0.61892 0.0
O970 O 0.30473 0.43188 0.65093 0.0
O971 O 0.22669 0.5209 0.65931 0.0
O972 O 0.24626 0.47197 0.65447 0.0
O973 O 0.28428 0.51635 0.6765 0.0
O974 O 0.2775 0.5596 0.64855 0.0
O975 O 0.20492 0.57589 0.64088 0.0
O976 O 0.23534 0.59415 0.60671 0.0
O977 O 0.30247 0.50212 0.59793 0.0
O978 O 0.28854 0.55129 0.60664 0.0
C979 C 0.24241 0.47472 0.59363 0.0
C980 C 0.22555 0.49138 0.6641 0.0
C981 C 0.34461 0.40345 0.62594 0.0
C982 C 0.38893 0.37691 0.60616 0.0
C983 C 0.34709 0.34843 0.62712 0.0
C984 C 0.33179 0.37533 0.63335 0.0
C985 C 0.3754 0.34917 0.61353 0.0
C986 C 0.37348 0.4042 0.61237 0.0
C987 C 0.32721 0.43144 0.63205 0.0
C988 C 0.37769 0.50889 0.73387 0.0
C989 C 0.35904 0.49007 0.75114 0.0
H990 H 0.40902 0.54382 0.69478 0.0
C991 C 0.28354 0.54596 0.67421 0.0
C992 C 0.30274 0.53089 0.59051 0.0
C993 C 0.19995 0.63031 0.62607 0.0
C994 C 0.16599 0.66896 0.6464 0.0
C995 C 0.19752 0.68051 0.60328 0.0
C996 C 0.2093 0.65132 0.60404 0.0
C997 C 0.17606 0.68929 0.62425 0.0
C998 C 0.17806 0.63928 0.64753 0.0
C999 C 0.21318 0.59939 0.62503 0.0
H1000 H 0.33694 0.32689 0.63284 0.0
H1001 H 0.3097 0.37407 0.64372 0.0
H1002 H 0.38697 0.32799 0.609 0.0
H1003 H 0.3838 0.4257 0.60664 0.0
H1004 H 0.20498 0.69637 0.58624 0.0
H1005 H 0.22578 0.64525 0.58707 0.0
H1006 H 0.16715 0.71218 0.62318 0.0
H1007 H 0.17033 0.62346 0.66453 0.0
H1008 H 0.14931 0.30888 0.56832 0.0
H1009 H 0.26932 0.44108 0.55037 0.0
H1010 H 0.21045 0.31227 0.49287 0.0
H1011 H 0.18477 0.45428 0.59615 0.0
H1012 H 0.25076 0.39245 0.53101 0.0
H1013 H 0.16567 0.36003 0.58295 0.0
C1014 C 0.1666 0.32015 0.55523 0.0
C1015 C 0.17873 0.30632 0.52951 0.0
C1016 C 0.23594 0.40635 0.54465 0.0
C1017 C 0.19724 0.36472 0.5458 0.0
C1018 C 0.24634 0.43428 0.55525 0.0
C1019 C 0.22813 0.45205 0.57406 0.0
C1020 C 0.20747 0.39576 0.55373 0.0
C1021 C 0.19912 0.44158 0.58105 0.0
C1022 C 0.17558 0.34946 0.56328 0.0
C1023 C 0.20064 0.32213 0.51294 0.0
N1024 N 0.18979 0.41391 0.57124 0.0
N1025 N 0.20929 0.35041 0.52143 0.0
H1026 H 0.79394 0.94335 0.81903 0.0
H1027 H 0.96372 0.97917 0.76991 0.0
H1028 H 0.83419 0.03052 0.83523 0.0
H1029 H 0.93246 0.8903 0.79469 0.0
H1030 H 0.91476 1.00038 0.78636 0.0
H1031 H 0.84234 0.92515 0.79912 0.0
C1032 C 0.81264 0.95885 0.81756 0.0
C1033 C 0.81006 0.98839 0.82866 0.0
C1034 C 0.91882 0.97624 0.78836 0.0
C1035 C 0.8656 0.9678 0.80679 0.0
C1036 C 0.94676 0.96429 0.77936 0.0
C1037 C 0.95201 0.93304 0.78128 0.0
C1038 C 0.89599 0.95655 0.79842 0.0
C1039 C 0.92928 0.91453 0.79314 0.0
C1040 C 0.84041 0.9484 0.8067 0.0
C1041 C 0.83535 0.0075 0.82689 0.0
N1042 N 0.90212 0.92644 0.80086 0.0
N1043 N 0.86212 0.99687 0.81633 0.0
H1044 H 0.31679 0.68311 0.97842 0.0
H1045 H 0.31123 0.56525 0.1128 0.0
H1046 H 0.3313 0.70997 0.07042 0.0
H1047 H 0.25428 0.55449 0.03485 0.0
H1048 H 0.32542 0.61593 0.09474 0.0
H1049 H 0.2982 0.6339 0.99605 0.0
C1050 C 0.3148 0.67905 1.00243 0.0
C1051 C 0.32453 0.70095 0.02314 0.0
C1052 C 0.31027 0.60223 0.08132 0.0
C1053 C 0.30507 0.64425 0.04335 0.0
C1054 C 0.30275 0.57314 0.09125 0.0
C1055 C 0.2823 0.55555 0.07476 0.0
C1056 C 0.29777 0.61339 0.05437 0.0
C1057 C 0.27067 0.56725 0.04775 0.0
C1058 C 0.30461 0.65088 0.01244 0.0
C1059 C 0.32295 0.69414 0.05392 0.0
N1060 N 0.27874 0.5954 0.03822 0.0
N1061 N 0.31381 0.66618 0.06315 0.0
H1062 H 0.5772 0.06313 0.23071 0.0
H1063 H 0.67047 0.0232 0.37768 0.0
H1064 H 0.54668 0.08202 0.32117 0.0
H1065 H 0.71496 0.03332 0.29162 0.0
H1066 H 0.62398 0.04028 0.35576 0.0
H1067 H 0.62575 0.04617 0.25107 0.0
C1068 C 0.58047 0.06317 0.2549 0.0
C1069 C 0.55784 0.0742 0.27431 0.0
C1070 C 0.64379 0.03905 0.34152 0.0
C1071 C 0.61332 0.05501 0.29747 0.0
C1072 C 0.67064 0.02927 0.35401 0.0
C1073 C 0.69698 0.02687 0.33649 0.0
C1074 C 0.64255 0.04595 0.31086 0.0
C1075 C 0.6953 0.03508 0.30599 0.0
C1076 C 0.60832 0.05386 0.26637 0.0
C1077 C 0.56329 0.07361 0.30536 0.0
N1078 N 0.66828 0.044 0.29394 0.0
N1079 N 0.59054 0.06436 0.31593 0.0
H1080 H 0.70311 0.18746 0.52444 0.0
H1081 H 0.70052 0.06629 0.39133 0.0
H1082 H 0.66449 0.20541 0.43689 0.0
H1083 H 0.75128 0.05352 0.47302 0.0
H1084 H 0.68421 0.11593 0.40901 0.0
H1085 H 0.72035 0.13812 0.50657 0.0
C1086 C 0.69885 0.18124 0.50121 0.0
C1087 C 0.68223 0.20043 0.48212 0.0
C1088 C 0.69829 0.10205 0.42348 0.0
C1089 C 0.7014 0.14378 0.46171 0.0
C1090 C 0.70682 0.07327 0.41373 0.0
C1091 C 0.72601 0.05528 0.43138 0.0
C1092 C 0.70906 0.11286 0.45118 0.0
C1093 C 0.73575 0.06651 0.4592 0.0
C1094 C 0.7085 0.15298 0.4911 0.0
C1095 C 0.67732 0.19131 0.45228 0.0
N1096 N 0.72712 0.09462 0.46832 0.0
N1097 N 0.68655 0.16341 0.44307 0.0
H1098 H 0.07409 0.44162 0.77643 0.0
H1099 H 0.19382 0.44104 0.64862 0.0
H1100 H 0.04573 0.42658 0.68483 0.0
H1101 H 0.19441 0.51546 0.71145 0.0
H1102 H 0.14331 0.42695 0.66657 0.0
H1103 H 0.12175 0.46288 0.75774 0.0
C1104 C 0.07765 0.44357 0.75235 0.0
C1105 C 0.05603 0.43262 0.73204 0.0
C1106 C 0.15467 0.44623 0.67649 0.0
C1107 C 0.11078 0.45506 0.71078 0.0
C1108 C 0.18352 0.45403 0.66656 0.0
C1109 C 0.19812 0.47944 0.67857 0.0
C1110 C 0.14095 0.46329 0.69937 0.0
C1111 C 0.18379 0.49569 0.70169 0.0
C1112 C 0.10483 0.45539 0.74177 0.0
C1113 C 0.06184 0.4349 0.70111 0.0
N1114 N 0.15605 0.48714 0.71162 0.0
N1115 N 0.08905 0.44526 0.69134 0.0
H1116 H 0.74613 0.94746 0.96517 0.0
H1117 H 0.8565 0.80761 0.93455 0.0
H1118 H 0.81928 0.95145 0.90137 0.0
H1119 H 0.80437 0.81691 0.01608 0.0
H1120 H 0.83839 0.85772 0.91826 0.0
H1121 H 0.76432 0.89785 0.98215 0.0
C1122 C 0.76651 0.93812 0.95533 0.0
C1123 C 0.78162 0.95361 0.93229 0.0
C1124 C 0.83084 0.84864 0.93963 0.0
C1125 C 0.80174 0.89649 0.95051 0.0
C1126 C 0.84077 0.81992 0.94867 0.0
C1127 C 0.83191 0.80821 0.97664 0.0
C1128 C 0.81173 0.86547 0.95861 0.0
C1129 C 0.81179 0.8252 0.99434 0.0
C1130 C 0.7767 0.90975 0.96477 0.0
C1131 C 0.80752 0.94044 0.91973 0.0
N1132 N 0.80247 0.85301 0.98509 0.0
N1133 N 0.81657 0.91236 0.92873 0.0
H1134 H 0.47099 0.54729 0.20766 0.0
H1135 H 0.28941 0.55561 0.20159 0.0
H1136 H 0.41823 0.61186 0.25791 0.0
H1137 H 0.34253 0.48816 0.15526 0.0
H1138 H 0.33599 0.57545 0.22418 0.0
H1139 H 0.42399 0.52492 0.18834 0.0
C1140 C 0.44953 0.55689 0.2144 0.0
C1141 C 0.44845 0.58128 0.23459 0.0
C1142 C 0.33737 0.55625 0.20908 0.0
C1143 C 0.39457 0.55604 0.21264 0.0
C1144 C 0.3107 0.54488 0.19631 0.0
C1145 C 0.31199 0.52073 0.17588 0.0
C1146 C 0.36548 0.54329 0.20141 0.0
C1147 C 0.34038 0.50737 0.17027 0.0
C1148 C 0.42267 0.54404 0.20357 0.0
C1149 C 0.42002 0.59272 0.24283 0.0
N1150 N 0.36588 0.51895 0.18266 0.0
N1151 N 0.39429 0.58013 0.23177 0.0
H1152 H 0.56245 0.14074 0.31555 0.0
H1153 H 0.54844 0.26811 0.44381 0.0
H1154 H 0.50144 0.21645 0.30774 0.0
H1155 H 0.60532 0.18915 0.45009 0.0
H1156 H 0.53017 0.25032 0.39447 0.0
H1157 H 0.57976 0.16003 0.36407 0.0
C1158 C 0.5533 0.16194 0.32382 0.0
C1159 C 0.53093 0.17733 0.3075 0.0
C1160 C 0.54614 0.23654 0.40694 0.0
C1161 C 0.54967 0.1991 0.36377 0.0
C1162 C 0.55613 0.24642 0.43528 0.0
C1163 C 0.57747 0.22939 0.45144 0.0
C1164 C 0.55803 0.2097 0.39459 0.0
C1165 C 0.588 0.20229 0.43883 0.0
C1166 C 0.56288 0.17279 0.35172 0.0
C1167 C 0.51927 0.20435 0.31942 0.0
N1168 N 0.57826 0.19334 0.41119 0.0
N1169 N 0.52861 0.21431 0.34701 0.0
H1170 H 0.08457 0.22883 0.58035 0.0
H1171 H 0.04487 0.37377 0.68058 0.0
H1172 H 0.08093 0.31996 0.5451 0.0
H1173 H 0.02279 0.28317 0.70856 0.0
H1174 H 0.06373 0.35406 0.63271 0.0
H1175 H 0.06702 0.24775 0.62902 0.0
C1176 C 0.07989 0.25282 0.5827 0.0
C1177 C 0.0843 0.27288 0.55843 0.0
C1178 C 0.05504 0.33836 0.64933 0.0
C1179 C 0.06431 0.29464 0.61436 0.0
C1180 C 0.04439 0.34963 0.67665 0.0
C1181 C 0.03199 0.3301 0.69815 0.0
C1182 C 0.05406 0.30707 0.64378 0.0
C1183 C 0.03208 0.29892 0.69231 0.0
C1184 C 0.06989 0.26357 0.61057 0.0
C1185 C 0.07801 0.3037 0.56306 0.0
N1186 N 0.04299 0.28828 0.6656 0.0
N1187 N 0.06842 0.31363 0.59045 0.0
H1188 H 0.99245 0.78939 0.79665 0.0
H1189 H 0.91814 0.82235 0.95766 0.0
H1190 H 0.96893 0.87783 0.83085 0.0
H1191 H 0.95159 0.73414 0.93309 0.0
H1192 H 0.93758 0.84279 0.91075 0.0
H1193 H 0.97645 0.76722 0.84524 0.0
C1194 C 0.9831 0.80392 0.81396 0.0
C1195 C 0.98143 0.83534 0.80966 0.0
C1196 C 0.94138 0.81905 0.91578 0.0
C1197 C 0.96381 0.81068 0.86475 0.0
C1198 C 0.93087 0.80765 0.94301 0.0
C1199 C 0.93414 0.7769 0.94959 0.0
C1200 C 0.95491 0.79937 0.89479 0.0
C1201 C 0.9491 0.75819 0.9288 0.0
C1202 C 0.9744 0.79143 0.84172 0.0
C1203 C 0.97001 0.85343 0.83298 0.0
N1204 N 0.95881 0.76967 0.90212 0.0
N1205 N 0.96167 0.84087 0.85938 0.0
H1206 H 0.5137 0.70785 0.19712 0.0
H1207 H 0.40067 0.68455 0.05828 0.0
H1208 H 0.43586 0.64956 0.20222 0.0
H1209 H 0.46043 0.76105 0.06661 0.0
H1210 H 0.41778 0.66645 0.10795 0.0
H1211 H 0.49795 0.72381 0.14676 0.0
C1212 C 0.49302 0.69875 0.18776 0.0
C1213 C 0.47588 0.67755 0.20391 0.0
C1214 C 0.42737 0.68699 0.09869 0.0
C1215 C 0.45807 0.69521 0.14597 0.0
C1216 C 0.418 0.69702 0.07019 0.0
C1217 C 0.42943 0.72414 0.0583 0.0
C1218 C 0.44854 0.70405 0.11508 0.0
C1219 C 0.45124 0.73992 0.07496 0.0
C1220 C 0.48413 0.70774 0.15896 0.0
C1221 C 0.44945 0.66627 0.19064 0.0
N1222 N 0.46003 0.72969 0.10248 0.0
N1223 N 0.44145 0.67504 0.16228 0.0
H1224 H 0.17731 0.32544 0.30214 0.0
H1225 H 0.24046 0.47621 0.22604 0.0
H1226 H 0.16247 0.41261 0.34324 0.0
H1227 H 0.19777 0.40486 0.17549 0.0
H1228 H 0.22716 0.44971 0.27318 0.0
H1229 H 0.20255 0.35073 0.25966 0.0
C1230 C 0.18027 0.3498 0.3026 0.0
C1231 C 0.16788 0.36711 0.32596 0.0
C1232 C 0.22101 0.43982 0.25171 0.0
C1233 C 0.19621 0.39594 0.2778 0.0
C1234 C 0.22843 0.45488 0.22499 0.0
C1235 C 0.21975 0.44269 0.19716 0.0
C1236 C 0.20594 0.41193 0.25025 0.0
C1237 C 0.20455 0.41496 0.19664 0.0
C1238 C 0.19433 0.36418 0.27835 0.0
C1239 C 0.17186 0.39863 0.32551 0.0
N1240 N 0.19824 0.40036 0.22285 0.0
N1241 N 0.18557 0.41216 0.30164 0.0
H1242 H 0.86385 0.8813 0.57807 0.0
H1243 H 0.8206 0.01616 0.46769 0.0
H1244 H 0.92531 0.95634 0.57026 0.0
H1245 H 0.82242 0.92199 0.44194 0.0
H1246 H 0.84525 1.00235 0.51567 0.0
H1247 H 0.83058 0.9056 0.54094 0.0
C1248 C 0.86957 0.90361 0.56962 0.0
C1249 C 0.89724 0.91691 0.57717 0.0
C1250 C 0.83949 0.9848 0.49964 0.0
C1251 C 0.85988 0.94431 0.53437 0.0
C1252 C 0.82563 0.99256 0.47226 0.0
C1253 C 0.81814 0.96992 0.45122 0.0
C1254 C 0.84503 0.95419 0.5062 0.0
C1255 C 0.82596 0.93991 0.45808 0.0
C1256 C 0.85084 0.91722 0.54821 0.0
C1257 C 0.90399 0.94556 0.56512 0.0
N1258 N 0.83846 0.93284 0.48512 0.0
N1259 N 0.88565 0.95819 0.54382 0.0
H1260 H 0.28001 0.5246 0.73125 0.0
H1261 H 0.35786 0.66177 0.81452 0.0
H1262 H 0.29903 0.60677 0.68194 0.0
H1263 H 0.30849 0.59044 0.85872 0.0
H1264 H 0.33584 0.64575 0.7659 0.0
H1265 H 0.29159 0.55021 0.77773 0.0
C1266 C 0.2866 0.54819 0.73011 0.0
C1267 C 0.28888 0.56336 0.70239 0.0
C1268 C 0.3294 0.63409 0.78638 0.0
C1269 C 0.30189 0.59346 0.75654 0.0
C1270 C 0.34175 0.64335 0.8141 0.0
C1271 C 0.33533 0.62704 0.84056 0.0
C1272 C 0.31084 0.60827 0.78537 0.0
C1273 C 0.31441 0.60333 0.83881 0.0
C1274 C 0.29297 0.56299 0.75692 0.0
C1275 C 0.29709 0.59416 0.70278 0.0
N1276 N 0.30339 0.5944 0.81174 0.0
N1277 N 0.30367 0.60819 0.72949 0.0
H1278 H 0.64712 0.13218 0.07608 0.0
H1279 H 0.69023 0.99413 0.96975 0.0
H1280 H 0.58644 0.05624 0.07167 0.0
H1281 H 0.68842 0.08741 0.94086 0.0
H1282 H 0.66563 0.00944 0.01723 0.0
H1283 H 0.67985 0.10732 0.03899 0.0
C1284 C 0.64147 0.10959 0.06838 0.0
C1285 C 0.61414 0.09618 0.07697 0.0
C1286 C 0.67134 0.02649 1.00063 0.0
C1287 C 0.65096 0.06806 0.03411 0.0
C1288 C 0.68519 0.01787 0.97351 0.0
C1289 C 0.69266 0.03981 0.95169 0.0
C1290 C 0.66573 0.05729 0.00617 0.0
C1291 C 0.6849 0.07003 0.9576 0.0
C1292 C 0.65988 0.09566 0.04695 0.0
C1293 C 0.6075 0.06714 0.0658 0.0
N1294 N 0.67238 0.07794 0.98438 0.0
N1295 N 0.62556 0.05416 0.0445 0.0
H1296 H 0.61844 0.11583 0.68952 0.0
H1297 H 0.75962 0.06429 0.78924 0.0
H1298 H 0.7038 0.16147 0.68127 0.0
H1299 H 0.66777 0.06881 0.82106 0.0
H1300 H 0.74306 0.08629 0.74088 0.0
H1301 H 0.64086 0.08152 0.72686 0.0
C1302 C 0.64231 0.11765 0.69452 0.0
C1303 C 0.65932 0.14144 0.68233 0.0
C1304 C 0.7266 0.0821 0.75842 0.0
C1305 C 0.6848 0.10305 0.72568 0.0
C1306 C 0.73599 0.06982 0.78605 0.0
C1307 C 0.71492 0.06433 0.8091 0.0
C1308 C 0.6959 0.08848 0.75374 0.0
C1309 C 0.68465 0.07198 0.80374 0.0
C1310 C 0.65494 0.09844 0.71617 0.0
C1311 C 0.69004 0.14324 0.69003 0.0
N1312 N 0.67603 0.08337 0.77658 0.0
N1313 N 0.70176 0.12461 0.71166 0.0
H1314 H 0.2002 0.50947 0.03456 0.0
H1315 H 0.10916 0.38106 0.94463 0.0
H1316 H 0.17835 0.42237 0.07281 0.0
H1317 H 0.15304 0.45672 0.9019 0.0
H1318 H 0.12505 0.4007 0.99406 0.0
H1319 H 0.17454 0.49479 0.98797 0.0
C1320 C 0.18982 0.48731 0.03322 0.0
C1321 C 0.1917 0.46695 0.05745 0.0
C1322 C 0.13071 0.41329 0.97389 0.0
C1323 C 0.1621 0.45005 1.00423 0.0
C1324 C 0.12131 0.40231 0.94579 0.0
C1325 C 0.12966 0.41747 0.91931 0.0
C1326 C 0.14844 0.43966 0.97539 0.0
C1327 C 0.14599 0.44454 0.92188 0.0
C1328 C 0.17524 0.4789 0.00659 0.0
C1329 C 0.17782 0.43854 0.05446 0.0
N1330 N 0.15499 0.45468 0.94937 0.0
N1331 N 0.16368 0.43087 0.0283 0.0
H1332 H 0.74818 0.94543 0.29085 0.0
H1333 H 0.88357 0.88268 0.18922 0.0
H1334 H 0.84084 0.93965 0.32037 0.0
H1335 H 0.79274 0.8491 0.18128 0.0
H1336 H 0.8663 0.91887 0.22762 0.0
H1337 H 0.76288 0.92261 0.24258 0.0
C1338 C 0.77164 0.93952 0.28713 0.0
C1339 C 0.79343 0.94478 0.30954 0.0
C1340 C 0.85004 0.90406 0.21693 0.0
C1341 C 0.81037 0.91947 0.25423 0.0
C1342 C 0.8598 0.88376 0.19482 0.0
C1343 C 0.83947 0.86301 0.18228 0.0
C1344 C 0.81983 0.90341 0.22649 0.0
C1345 C 0.80897 0.86491 0.19047 0.0
C1346 C 0.77998 0.92677 0.25953 0.0
C1347 C 0.82344 0.93664 0.3035 0.0
N1348 N 0.80007 0.8845 0.21239 0.0
N1349 N 0.83106 0.92456 0.27638 0.0
H1350 H 0.3341 0.58352 0.58018 0.0
H1351 H 0.35034 0.55286 0.40445 0.0
H1352 H 0.30917 0.49905 0.53844 0.0
H1353 H 0.39656 0.62612 0.44874 0.0
H1354 H 0.33724 0.53161 0.45366 0.0
H1355 H 0.35841 0.5992 0.53292 0.0
C1356 C 0.33399 0.56822 0.56111 0.0
C1357 C 0.3195 0.54004 0.5631 0.0
C1358 C 0.35076 0.55201 0.45276 0.0
C1359 C 0.34711 0.55776 0.50904 0.0
C1360 C 0.35837 0.56402 0.42466 0.0
C1361 C 0.37457 0.59121 0.42262 0.0
C1362 C 0.35888 0.56762 0.47913 0.0
C1363 C 0.38419 0.605 0.44942 0.0
C1364 C 0.34793 0.57709 0.53421 0.0
C1365 C 0.32015 0.52094 0.53786 0.0
N1366 N 0.37578 0.59333 0.47661 0.0
N1367 N 0.33336 0.53028 0.51181 0.0
H1368 H 0.17633 0.19223 0.4038 0.0
H1369 H 0.35675 0.20794 0.40846 0.0
H1370 H 0.22731 0.24359 0.46875 0.0
H1371 H 0.31233 0.14454 0.34964 0.0
H1372 H 0.30782 0.22865 0.42277 0.0
H1373 H 0.2238 0.18132 0.37647 0.0
C1374 C 0.19732 0.20184 0.41182 0.0
C1375 C 0.19793 0.21883 0.43855 0.0
C1376 C 0.30855 0.21057 0.4063 0.0
C1377 C 0.25202 0.20639 0.40776 0.0
C1378 C 0.3366 0.19893 0.39794 0.0
C1379 C 0.33862 0.17453 0.37783 0.0
C1380 C 0.28197 0.1976 0.39482 0.0
C1381 C 0.31173 0.16351 0.36508 0.0
C1382 C 0.2244 0.19541 0.39641 0.0
C1383 C 0.22578 0.23031 0.44829 0.0
N1384 N 0.28441 0.17483 0.37411 0.0
N1385 N 0.25152 0.22379 0.43307 0.0
H1386 H 0.10955 0.06565 0.59875 0.0
H1387 H 0.02617 0.97886 0.73275 0.0
H1388 H 0.06707 0.10962 0.67437 0.0
H1389 H 0.052 0.9332 0.65107 0.0
H1390 H 0.04029 0.02726 0.71006 0.0
H1391 H 0.08576 0.01756 0.61404 0.0
C1392 C 0.09471 0.06534 0.61812 0.0
C1393 C 0.09082 0.0915 0.63574 0.0
C1394 C 0.0426 0.0068 0.6968 0.0
C1395 C 0.06423 0.03672 0.6537 0.0
C1396 C 0.0348 0.97918 0.70993 0.0
C1397 C 0.03859 0.95222 0.6939 0.0
C1398 C 0.05386 0.00755 0.66715 0.0
C1399 C 0.04931 0.95369 0.66421 0.0
C1400 C 0.08135 0.03787 0.627 0.0
C1401 C 0.07125 0.08985 0.66054 0.0
N1402 N 0.05672 0.98095 0.65174 0.0
N1403 N 0.05916 0.06294 0.66902 0.0
H1404 H 0.16501 0.79812 0.86732 0.0
H1405 H 0.32481 0.84302 0.94043 0.0
H1406 H 0.18527 0.88728 0.90094 0.0
H1407 H 0.29345 0.7508 0.93383 0.0
H1408 H 0.2776 0.86036 0.9172 0.0
H1409 H 0.21589 0.78121 0.88246 0.0
C1410 C 0.18042 0.81421 0.87741 0.0
C1411 C 0.17111 0.84409 0.8829 0.0
C1412 C 0.28111 0.83632 0.92074 0.0
C1413 C 0.22909 0.82507 0.90033 0.0
C1414 C 0.308 0.8264 0.93417 0.0
C1415 C 0.31278 0.79547 0.94005 0.0
C1416 C 0.259 0.81512 0.91238 0.0
C1417 C 0.29064 0.77492 0.93021 0.0
C1418 C 0.20932 0.80457 0.88621 0.0
C1419 C 0.19171 0.86406 0.89632 0.0
N1420 N 0.2647 0.78509 0.91705 0.0
N1421 N 0.21969 0.85421 0.9046 0.0
H1422 H 0.49789 0.06959 0.15253 0.0
H1423 H 0.39773 0.91919 0.15066 0.0
H1424 H 0.44707 0.03464 0.22697 0.0
H1425 H 0.43815 0.95653 0.07068 0.0
H1426 H 0.42654 0.95501 0.18126 0.0
H1427 H 0.48602 0.02317 0.12408 0.0
C1428 C 0.48402 0.05229 0.1629 0.0
C1429 C 0.47198 0.05667 0.19185 0.0
C1430 C 0.42964 0.95509 0.15706 0.0
C1431 C 0.45901 1.0035 0.15994 0.0
C1432 C 0.41337 0.93448 0.1397 0.0
C1433 C 0.41549 0.93534 0.10829 0.0
C1434 C 0.44766 0.97704 0.14276 0.0
C1435 C 0.4359 0.95552 0.09495 0.0
C1436 C 0.4774 0.02581 0.14674 0.0
C1437 C 0.45502 0.03325 0.20443 0.0
N1438 N 0.45088 0.97604 0.11224 0.0
N1439 N 0.44884 0.00788 0.18848 0.0
H1440 H 0.8214 0.30085 0.67038 0.0
H1441 H 0.68894 0.33786 0.56618 0.0
H1442 H 0.82463 0.37865 0.61184 0.0
H1443 H 0.71795 0.24456 0.5673 0.0
H1444 H 0.73749 0.35275 0.58732 0.0
H1445 H 0.78445 0.27727 0.63618 0.0
C1446 C 0.81546 0.31228 0.64957 0.0
C1447 C 0.82606 0.34169 0.6438 0.0
C1448 C 0.73343 0.32903 0.58255 0.0
C1449 C 0.783 0.31572 0.60571 0.0
C1450 C 0.70581 0.32058 0.57014 0.0
C1451 C 0.69985 0.29018 0.56353 0.0
C1452 C 0.75482 0.30676 0.59003 0.0
C1453 C 0.72178 0.2684 0.57154 0.0
C1454 C 0.79415 0.29899 0.63029 0.0
C1455 C 0.81705 0.35591 0.61698 0.0
N1456 N 0.74824 0.27707 0.58472 0.0
N1457 N 0.79544 0.34318 0.59935 0.0
H1458 H 0.0087 0.47049 0.80596 0.0
H1459 H 0.88348 0.56095 0.90082 0.0
H1460 H 0.92426 0.43071 0.83324 0.0
H1461 H 0.95626 0.60376 0.85276 0.0
H1462 H 0.90335 0.5111 0.88558 0.0
H1463 H 0.99435 0.51758 0.83122 0.0
C1464 C 0.98722 0.47162 0.81758 0.0
C1465 C 0.96752 0.44679 0.81738 0.0
C1466 C 0.91525 0.5314 0.87883 0.0
C1467 C 0.951 0.5006 0.84661 0.0
C1468 C 0.90415 0.55977 0.88785 0.0
C1469 C 0.91833 0.58638 0.87803 0.0
C1470 C 0.94075 0.52978 0.86003 0.0
C1471 C 0.94475 0.5837 0.86082 0.0
C1472 C 0.979 0.49853 0.83192 0.0
C1473 C 0.93992 0.44949 0.83265 0.0
N1474 N 0.95497 0.55597 0.85219 0.0
N1475 N 0.93243 0.47597 0.84662 0.0
H1476 H 0.77998 0.71893 0.02851 0.0
H1477 H 0.70432 0.68584 0.18836 0.0
H1478 H 0.83029 0.72551 0.11166 0.0
H1479 H 0.66827 0.65783 0.1027 0.0
H1480 H 0.74537 0.71252 0.16185 0.0
H1481 H 0.73488 0.70789 0.05665 0.0
C1482 C 0.78176 0.71788 0.05278 0.0
C1483 C 0.80957 0.72202 0.06755 0.0
C1484 C 0.72813 0.70101 0.1489 0.0
C1485 C 0.75678 0.71015 0.10039 0.0
C1486 C 0.7046 0.68613 0.16396 0.0
C1487 C 0.68305 0.6697 0.14756 0.0
C1488 C 0.72991 0.69933 0.11734 0.0
C1489 C 0.68446 0.67035 0.11607 0.0
C1490 C 0.75565 0.71184 0.06892 0.0
C1491 C 0.8096 0.72173 0.09923 0.0
N1492 N 0.70761 0.68464 0.10202 0.0
N1493 N 0.78361 0.71556 0.11465 0.0
H1494 H 0.60207 0.43946 0.41258 0.0
H1495 H 0.52594 0.53271 0.27838 0.0
H1496 H 0.56138 0.39859 0.33428 0.0
H1497 H 0.54892 0.5744 0.36304 0.0
H1498 H 0.53771 0.48307 0.29986 0.0
H1499 H 0.58011 0.48853 0.39756 0.0
C1500 C 0.58796 0.44064 0.39266 0.0
C1501 C 0.58401 0.41501 0.37435 0.0
C1502 C 0.54 0.50296 0.31395 0.0
C1503 C 0.55952 0.471 0.35669 0.0
C1504 C 0.53352 0.53129 0.30158 0.0
C1505 C 0.53695 0.55755 0.31889 0.0
C1506 C 0.55011 0.50081 0.34394 0.0
C1507 C 0.54619 0.55462 0.34896 0.0
C1508 C 0.57566 0.46869 0.38394 0.0
C1509 C 0.56555 0.41789 0.34873 0.0
N1510 N 0.55278 0.52671 0.36051 0.0
N1511 N 0.55445 0.44536 0.34045 0.0
H1512 H 0.39734 0.35434 0.21088 0.0
H1513 H 0.42918 0.18119 0.1698 0.0
H1514 H 0.36734 0.3141 0.12775 0.0
H1515 H 0.44208 0.21859 0.25859 0.0
H1516 H 0.40468 0.2287 0.15418 0.0
H1517 H 0.41139 0.30397 0.22955 0.0
C1518 C 0.39342 0.33473 0.19675 0.0
C1519 C 0.38134 0.33824 0.16777 0.0
C1520 C 0.4126 0.22639 0.17716 0.0
C1521 C 0.398 0.2806 0.18853 0.0
C1522 C 0.42667 0.19934 0.18603 0.0
C1523 C 0.43807 0.19613 0.21538 0.0
C1524 C 0.40997 0.2504 0.19782 0.0
C1525 C 0.43381 0.22014 0.23567 0.0
C1526 C 0.40145 0.30599 0.20733 0.0
C1527 C 0.37658 0.31221 0.15027 0.0
N1528 N 0.42043 0.24632 0.22643 0.0
N1529 N 0.38533 0.28449 0.16075 0.0
H1530 H 0.94056 0.32197 0.83905 0.0
H1531 H 0.86303 0.16405 0.79639 0.0
H1532 H 0.9358 0.29011 0.74741 0.0
H1533 H 0.90576 0.1812 0.88189 0.0
H1534 H 0.8786 0.21486 0.77914 0.0
H1535 H 0.91712 0.27497 0.85607 0.0
C1536 C 0.93488 0.30496 0.82251 0.0
C1537 C 0.94155 0.30942 0.79193 0.0
C1538 C 0.88429 0.20755 0.80175 0.0
C1539 C 0.91294 0.25613 0.81109 0.0
C1540 C 0.8753 0.17874 0.81161 0.0
C1541 C 0.88329 0.16858 0.84051 0.0
C1542 C 0.90092 0.22635 0.82117 0.0
C1543 C 0.89929 0.18827 0.85941 0.0
C1544 C 0.92112 0.27827 0.83221 0.0
C1545 C 0.93174 0.28736 0.7713 0.0
N1546 N 0.90756 0.2162 0.84944 0.0
N1547 N 0.91806 0.26157 0.78126 0.0
H1548 H 0.07552 0.64755 0.13071 0.0
H1549 H 0.96378 0.68477 0.99602 0.0
H1550 H 0.06784 0.58324 0.05818 0.0
H1551 H 0.93895 0.68967 0.08989 0.0
H1552 H 0.01157 0.66021 0.01063 0.0
H1553 H 0.03743 0.67954 0.10605 0.0
C1554 C 0.06656 0.64076 0.10903 0.0
C1555 C 0.07443 0.6127 0.09656 0.0
C1556 C 0.99572 0.66711 0.02789 0.0
C1557 C 0.0307 0.64864 0.06873 0.0
C1558 C 0.96842 0.68088 0.0197 0.0
C1559 C 0.94771 0.69012 0.04194 0.0
C1560 C 1.00248 0.66323 0.05849 0.0
C1561 C 0.95474 0.68415 0.07212 0.0
C1562 C 0.04471 0.65879 0.09518 0.0
C1563 C 0.0622 0.60477 0.06844 0.0
N1564 N 0.98173 0.67155 0.07954 0.0
N1565 N 0.04041 0.62246 0.05559 0.0
H1566 H 0.58622 0.84321 0.36898 0.0
H1567 H 0.60864 0.6843 0.28683 0.0
H1568 H 0.66228 0.83424 0.30911 0.0
H1569 H 0.52399 0.72969 0.30352 0.0
H1570 H 0.63502 0.73199 0.30108 0.0
H1571 H 0.57006 0.79244 0.35527 0.0
C1572 C 0.59947 0.83052 0.3528 0.0
C1573 C 0.62517 0.84322 0.33964 0.0
C1574 C 0.61062 0.73088 0.30205 0.0
C1575 C 0.60672 0.78472 0.32364 0.0
C1576 C 0.59557 0.70376 0.29402 0.0
C1577 C 0.56379 0.70209 0.29561 0.0
C1578 C 0.59362 0.75587 0.31231 0.0
C1579 C 0.54821 0.72858 0.30383 0.0
C1580 C 0.59033 0.80147 0.34503 0.0
C1581 C 0.64208 0.82527 0.31948 0.0
N1582 N 0.56312 0.75379 0.31228 0.0
N1583 N 0.63235 0.7969 0.3117 0.0
H1584 H 0.53822 0.31539 0.49837 0.0
H1585 H 0.44276 0.38888 0.63345 0.0
H1586 H 0.57307 0.32622 0.58847 0.0
H1587 H 0.40401 0.3608 0.549 0.0
H1588 H 0.49307 0.37503 0.61445 0.0
H1589 H 0.49135 0.3402 0.5139 0.0
C1590 C 0.53611 0.32325 0.52139 0.0
C1591 C 0.55947 0.31843 0.54226 0.0
C1592 C 0.47364 0.37245 0.59985 0.0
C1593 C 0.50577 0.34697 0.56022 0.0
C1594 C 0.44505 0.38069 0.61056 0.0
C1595 C 0.41942 0.37621 0.59259 0.0
C1596 C 0.4765 0.35966 0.57097 0.0
C1597 C 0.42335 0.36484 0.56337 0.0
C1598 C 0.50928 0.33733 0.53027 0.0
C1599 C 0.55546 0.32911 0.57178 0.0
N1600 N 0.45131 0.35679 0.55352 0.0
N1601 N 0.52907 0.34273 0.57993 0.0
H1602 H 0.10708 0.67872 0.63399 0.0
H1603 H 0.07324 0.79523 0.76477 0.0
H1604 H 0.17338 0.68864 0.70432 0.0
H1605 H 0.07012 0.81929 0.67052 0.0
H1606 H 0.09705 0.74675 0.75118 0.0
H1607 H 0.07663 0.71864 0.65753 0.0
C1608 C 0.11441 0.6882 0.65528 0.0
C1609 C 0.14271 0.68046 0.66729 0.0
C1610 C 0.09067 0.76259 0.7336 0.0
C1611 C 0.1085 0.72636 0.69376 0.0
C1612 C 0.07729 0.79029 0.74122 0.0
C1613 C 0.06867 0.81099 0.71859 0.0
C1614 C 0.09476 0.75534 0.70319 0.0
C1615 C 0.07509 0.80354 0.68858 0.0
C1616 C 0.09734 0.71127 0.66834 0.0
C1617 C 0.15155 0.69386 0.69458 0.0
N1618 N 0.08723 0.7761 0.6817 0.0
N1619 N 0.13469 0.71665 0.70675 0.0
H1620 H 0.47022 0.81576 0.01403 0.0
H1621 H 0.57459 0.86173 0.87617 0.0
H1622 H 0.44094 0.81595 0.92132 0.0
H1623 H 0.57296 0.91822 0.95523 0.0
H1624 H 0.53733 0.82826 0.89967 0.0
H1625 H 0.51732 0.84076 0.99846 0.0
C1626 C 0.47381 0.8206 0.99037 0.0
C1627 C 0.45201 0.81263 0.9687 0.0
C1628 C 0.54587 0.84748 0.91221 0.0
C1629 C 0.50602 0.84009 0.95097 0.0
C1630 C 0.56742 0.86625 0.89906 0.0
C1631 C 0.57684 0.89262 0.91388 0.0
C1632 C 0.53374 0.85516 0.94034 0.0
C1633 C 0.56639 0.8979 0.94327 0.0
C1634 C 0.5007 0.83468 0.98161 0.0
C1635 C 0.45769 0.82006 0.93853 0.0
N1636 N 0.54493 0.87954 0.95549 0.0
N1637 N 0.48428 0.83296 0.93049 0.0
H1638 H 0.95101 0.07211 0.43496 0.0
H1639 H 0.03123 0.23098 0.46533 0.0
H1640 H 0.92227 0.15633 0.39483 0.0
H1641 H 0.07463 0.14427 0.47717 0.0
H1642 H 0.98414 0.20517 0.45281 0.0
H1643 H 0.98839 0.09993 0.46505 0.0
C1644 C 0.95209 0.09657 0.43319 0.0
C1645 C 0.93414 0.11209 0.41221 0.0
C1646 C 1.00402 0.1918 0.45805 0.0
C1647 C 0.97662 0.14377 0.44595 0.0
C1648 C 0.03105 0.20649 0.46447 0.0
C1649 C 0.05743 0.18973 0.4701 0.0
C1650 C 1.00323 0.16004 0.45779 0.0
C1651 C 0.05523 0.15808 0.47166 0.0
C1652 C 0.97345 0.11237 0.45013 0.0
C1653 C 0.93614 0.14369 0.41058 0.0
N1654 N 0.02867 0.14419 0.46508 0.0
N1655 N 0.95734 0.15854 0.42698 0.0
loop_
_geom_bond_atom_site_label_1
_geom_bond_atom_site_label_2
_geom_bond_distance
_geom_bond_site_symmetry_2
_ccdc_geom_bond_type
C0 C2 1.422 . S
C0 C4 1.415 . S
C0 N6 1.369 . S
C1 C2 1.421 . S
C1 C3 1.417 . S
C1 C13 1.422 . S
C2 C0 1.422 . S
C2 C1 1.421 . S
C2 N12 1.359 . S
C3 C1 1.417 . S
C3 C5 1.329 1_455 S
C3 H22 0.930 1_455 S
C4 C0 1.415 . S
C4 C5 1.437 1_455 S
C4 C8 1.413 1_455 S
C5 C3 1.329 1_655 S
C5 C4 1.437 1_655 S
C5 H27 0.929 . S
N6 C0 1.369 . S
N6 C7 1.338 . S
N6 Gd11 2.622 . S
C7 N6 1.338 . S
C7 C9 1.379 . S
C7 H19 0.929 . S
C8 C4 1.413 1_655 S
C8 C9 1.347 1_655 S
C8 H24 0.931 . S
C9 C7 1.379 . S
C9 C8 1.347 1_455 S
C9 H25 0.929 1_455 S
Gd10 N30 2.622 . S
Gd10 N37 2.570 . S
Gd10 O44 2.353 . S
Gd10 O45 2.468 . S
Gd10 O46 2.427 . S
Gd10 O48 2.388 . S
Gd10 O49 2.386 . S
Gd10 O53 2.307 . S
Gd10 C63 2.805 . S
Gd11 N6 2.622 . S
Gd11 N12 2.570 . S
Gd11 O43 2.386 . S
Gd11 O47 2.307 . S
Gd11 O50 2.353 . S
Gd11 O51 2.468 . S
Gd11 O52 2.427 . S
Gd11 O54 2.388 . S
Gd11 C75 2.805 . S
N12 C2 1.359 . S
N12 Gd11 2.570 . S
N12 C14 1.343 . S
C13 C1 1.422 . S
C13 C15 1.321 . S
C13 H21 0.931 . S
C14 N12 1.343 . S
C14 C15 1.390 . S
C14 H16 0.931 . S
C15 C13 1.321 . S
C15 C14 1.390 . S
C15 H17 0.930 . S
H16 C14 0.931 . S
H17 C15 0.930 . S
H18 C41 0.931 . S
H19 C7 0.929 . S
H20 C42 0.930 . S
H21 C13 0.931 . S
H22 C3 0.930 1_655 S
H23 C32 0.929 . S
H24 C8 0.931 . S
H25 C9 0.929 1_655 S
H26 C64 0.930 . S
H27 C5 0.929 . S
H28 C33 0.931 . S
H29 C34 0.930 . S
N30 Gd10 2.622 . S
N30 C31 1.369 . S
N30 C32 1.338 . S
C31 N30 1.369 . S
C31 C35 1.415 . S
C31 C38 1.422 . S
C32 H23 0.929 . S
C32 N30 1.338 . S
C32 C34 1.378 . S
C33 H28 0.931 . S
C33 C34 1.348 . S
C33 C35 1.413 . S
C34 H29 0.930 . S
C34 C32 1.378 . S
C34 C33 1.348 . S
C35 C31 1.415 . S
C35 C33 1.413 . S
C35 C65 1.437 . S
H36 C65 0.929 . S
N37 Gd10 2.570 . S
N37 C38 1.359 . S
N37 C41 1.343 . S
C38 C31 1.422 . S
C38 N37 1.359 . S
C38 C40 1.421 . S
C39 C40 1.422 . S
C39 C42 1.321 . S
C39 H66 0.931 . S
C40 C38 1.421 . S
C40 C39 1.422 . S
C40 C64 1.417 . S
C41 H18 0.931 . S
C41 N37 1.343 . S
C41 C42 1.390 . S
C42 H20 0.930 . S
C42 C39 1.321 . S
C42 C41 1.390 . S
O43 Gd11 2.386 . S
O43 C55 1.265 . S
O44 Gd10 2.353 . S
O44 C55 1.242 . S
O45 Gd10 2.468 . S
O45 C63 1.263 . S
O46 Gd10 2.427 . S
O46 C63 1.252 . S
O47 Gd11 2.307 . S
O47 C56 1.261 . S
O48 Gd10 2.388 . S
O48 C56 1.252 . S
O49 Gd10 2.386 . S
O49 C67 1.265 . S
O50 Gd11 2.353 . S
O50 C67 1.242 . S
O51 Gd11 2.468 . S
O51 C75 1.263 . S
O52 Gd11 2.427 . S
O52 C75 1.252 . S
O53 Gd10 2.307 . S
O53 C68 1.261 . S
O54 Gd11 2.388 . S
O54 C68 1.252 . S
C55 O43 1.265 . S
C55 O44 1.242 . S
C56 O47 1.261 . S
C56 O48 1.252 . S
C57 C60 1.394 . S
C57 C62 1.370 . S
C57 C63 1.500 . S
C58 C61 1.383 . S
C58 C62 1.395 . S
C59 C60 1.396 . S
C59 C61 1.365 . S
C59 H76 0.929 . S
C60 C57 1.394 . S
C60 C59 1.396 . S
C60 H77 0.930 . S
C61 C58 1.383 . S
C61 C59 1.365 . S
C61 H78 0.931 . S
C62 C57 1.370 . S
C62 C58 1.395 . S
C62 H79 0.930 . S
C63 Gd10 2.805 . S
C63 O45 1.263 . S
C63 O46 1.252 . S
C63 C57 1.500 . S
C64 H26 0.930 . S
C64 C40 1.417 . S
C64 C65 1.329 . S
C65 C35 1.437 . S
C65 H36 0.929 . S
C65 C64 1.329 . S
H66 C39 0.931 . S
C67 O49 1.265 . S
C67 O50 1.242 . S
C68 O53 1.261 . S
C68 O54 1.252 . S
C69 C72 1.394 . S
C69 C74 1.370 . S
C69 C75 1.500 . S
C70 C73 1.383 . S
C70 C74 1.395 . S
C71 C72 1.396 . S
C71 C73 1.365 . S
C71 H80 0.929 . S
C72 C69 1.394 . S
C72 C71 1.396 . S
C72 H81 0.930 . S
C73 C70 1.383 . S
C73 C71 1.365 . S
C73 H82 0.931 . S
C74 C69 1.370 . S
C74 C70 1.395 . S
C74 H83 0.930 . S
C75 Gd11 2.805 . S
C75 O51 1.263 . S
C75 O52 1.252 . S
C75 C69 1.500 . S
H76 C59 0.929 . S
H77 C60 0.930 . S
H78 C61 0.931 . S
H79 C62 0.930 . S
H80 C71 0.929 . S
H81 C72 0.930 . S
H82 C73 0.931 . S
H83 C74 0.930 . S
C84 C86 1.422 . S
C84 C88 1.415 . S
C84 N90 1.369 . S
C85 C86 1.421 . S
C85 C87 1.417 . S
C85 C97 1.422 . S
C86 C84 1.422 . S
C86 C85 1.421 . S
C86 N96 1.359 . S
C87 C85 1.417 . S
C87 C89 1.329 . S
C87 H106 0.930 . S
C88 C84 1.415 . S
C88 C89 1.437 . S
C88 C92 1.413 . S
C89 C87 1.329 . S
C89 C88 1.437 . S
C89 H111 0.929 . S
N90 C84 1.369 . S
N90 C91 1.338 . S
N90 Gd95 2.622 . S
C91 N90 1.338 . S
C91 C93 1.378 . S
C91 H103 0.929 1_655 S
C92 C88 1.413 . S
C92 C93 1.348 . S
C92 H108 0.931 . S
C93 C91 1.378 . S
C93 C92 1.348 . S
C93 H109 0.930 1_655 S
Gd94 N114 2.622 . S
Gd94 N121 2.570 . S
Gd94 O128 2.353 . S
Gd94 O129 2.468 . S
Gd94 O130 2.427 . S
Gd94 O132 2.388 1_455 S
Gd94 O133 2.386 . S
Gd94 O137 2.307 . S
Gd94 C147 2.805 . S
Gd95 N90 2.622 . S
Gd95 N96 2.570 . S
Gd95 O127 2.386 . S
Gd95 O131 2.307 . S
Gd95 O134 2.353 1_655 S
Gd95 O135 2.468 . S
Gd95 O136 2.427 . S
Gd95 O138 2.388 1_655 S
Gd95 C159 2.805 . S
N96 C86 1.359 . S
N96 Gd95 2.570 . S
N96 C98 1.343 . S
C97 C85 1.422 . S
C97 C99 1.321 . S
C97 H105 0.931 . S
C98 N96 1.343 . S
C98 C99 1.390 . S
C98 H100 0.931 . S
C99 C97 1.321 . S
C99 C98 1.390 . S
C99 H101 0.930 . S
H100 C98 0.931 . S
H101 C99 0.930 . S
H102 C125 0.931 . S
H103 C91 0.929 1_455 S
H104 C126 0.930 . S
H105 C97 0.931 . S
H106 C87 0.930 . S
H107 C116 0.929 . S
H108 C92 0.931 . S
H109 C93 0.930 1_455 S
H110 C148 0.930 1_545 S
H111 C89 0.929 . S
H112 C117 0.931 . S
H113 C118 0.913 1_545 S
N114 Gd94 2.622 . S
N114 C115 1.369 . S
N114 C116 1.338 . S
C115 N114 1.369 . S
C115 C119 1.415 . S
C115 C122 1.422 . S
C116 H107 0.929 . S
C116 N114 1.338 . S
C116 C118 1.412 . S
C117 H112 0.931 . S
C117 C118 1.332 1_545 S
C117 C119 1.413 1_545 S
C118 H113 0.913 1_565 S
C118 C116 1.412 . S
C118 C117 1.332 1_565 S
C119 C115 1.415 . S
C119 C117 1.413 1_565 S
C119 C149 1.437 1_565 S
H120 C149 0.929 . S
N121 Gd94 2.570 . S
N121 C122 1.359 . S
N121 C125 1.343 . S
C122 C115 1.422 . S
C122 N121 1.359 . S
C122 C124 1.421 . S
C123 C124 1.422 . S
C123 C126 1.321 . S
C123 H150 0.931 . S
C124 C122 1.421 . S
C124 C123 1.422 . S
C124 C148 1.417 . S
C125 H102 0.931 . S
C125 N121 1.343 . S
C125 C126 1.390 . S
C126 H104 0.930 . S
C126 C123 1.321 . S
C126 C125 1.390 . S
O127 Gd95 2.386 . S
O127 C139 1.265 . S
O128 Gd94 2.353 . S
O128 C139 1.242 1_455 S
O129 Gd94 2.468 . S
O129 C147 1.263 . S
O130 Gd94 2.427 . S
O130 C147 1.252 . S
O131 Gd95 2.307 . S
O131 C140 1.261 . S
O132 Gd94 2.388 1_655 S
O132 C140 1.252 . S
O133 Gd94 2.386 . S
O133 C151 1.265 . S
O134 Gd95 2.353 1_455 S
O134 C151 1.242 . S
O135 Gd95 2.468 . S
O135 C159 1.263 . S
O136 Gd95 2.427 . S
O136 C159 1.252 . S
O137 Gd94 2.307 . S
O137 C152 1.261 . S
O138 Gd95 2.388 1_455 S
O138 C152 1.252 . S
C139 O127 1.265 . S
C139 O128 1.242 1_655 S
C140 O131 1.261 . S
C140 O132 1.252 . S
C141 C144 1.394 . S
C141 C146 1.370 . S
C141 C147 1.500 . S
C142 C145 1.383 . S
C142 C146 1.395 . S
C143 C144 1.396 . S
C143 C145 1.365 . S
C143 H160 0.929 . S
C144 C141 1.394 . S
C144 C143 1.396 . S
C144 H161 0.930 . S
C145 C142 1.383 . S
C145 C143 1.365 . S
C145 H162 0.931 . S
C146 C141 1.370 . S
C146 C142 1.395 . S
C146 H163 0.930 . S
C147 Gd94 2.805 . S
C147 O129 1.263 . S
C147 O130 1.252 . S
C147 C141 1.500 . S
C148 H110 0.930 1_565 S
C148 C124 1.417 . S
C148 C149 1.329 1_565 S
C149 C119 1.437 1_545 S
C149 H120 0.929 . S
C149 C148 1.329 1_545 S
H150 C123 0.931 . S
C151 O133 1.265 . S
C151 O134 1.242 . S
C152 O137 1.261 . S
C152 O138 1.252 . S
C153 C156 1.394 . S
C153 C158 1.370 . S
C153 C159 1.500 . S
C154 C157 1.383 . S
C154 C158 1.395 . S
C155 C156 1.396 . S
C155 C157 1.365 . S
C155 H164 0.929 . S
C156 C153 1.394 . S
C156 C155 1.396 . S
C156 H165 0.930 . S
C157 C154 1.383 . S
C157 C155 1.365 . S
C157 H166 0.931 . S
C158 C153 1.370 . S
C158 C154 1.395 . S
C158 H167 0.930 . S
C159 Gd95 2.805 . S
C159 O135 1.263 . S
C159 O136 1.252 . S
C159 C153 1.500 . S
H160 C143 0.929 . S
H161 C144 0.930 . S
H162 C145 0.931 . S
H163 C146 0.930 . S
H164 C155 0.929 . S
H165 C156 0.930 . S
H166 C157 0.931 . S
H167 C158 0.930 . S
C168 C170 1.422 . S
C168 C172 1.415 . S
C168 N174 1.369 . S
C169 C170 1.421 . S
C169 C171 1.417 . S
C169 C181 1.422 . S
C170 C168 1.422 . S
C170 C169 1.421 . S
C170 N180 1.359 . S
C171 C169 1.417 . S
C171 C173 1.329 . S
C171 H190 0.930 . S
C172 C168 1.415 . S
C172 C173 1.437 . S
C172 C176 1.413 . S
C173 C171 1.329 . S
C173 C172 1.437 . S
C173 H195 0.929 . S
N174 C168 1.369 . S
N174 C175 1.338 . S
N174 Gd179 2.622 . S
C175 N174 1.338 . S
C175 C177 1.378 . S
C175 H187 0.929 1_554 S
C176 C172 1.413 . S
C176 C177 1.348 . S
C176 H192 0.931 . S
C177 C175 1.378 . S
C177 C176 1.348 . S
C177 H193 0.930 1_554 S
Gd178 N198 2.622 . S
Gd178 N205 2.570 . S
Gd178 O212 2.353 . S
Gd178 O213 2.468 . S
Gd178 O214 2.427 . S
Gd178 O216 2.388 1_556 S
Gd178 O217 2.386 . S
Gd178 O221 2.307 . S
Gd178 C231 2.805 . S
Gd179 N174 2.622 . S
Gd179 N180 2.570 . S
Gd179 O211 2.386 . S
Gd179 O215 2.307 . S
Gd179 O218 2.353 1_554 S
Gd179 O219 2.468 . S
Gd179 O220 2.427 . S
Gd179 O222 2.388 1_554 S
Gd179 C243 2.805 . S
N180 C170 1.359 . S
N180 Gd179 2.570 . S
N180 C182 1.343 . S
C181 C169 1.422 . S
C181 C183 1.321 . S
C181 H189 0.931 . S
C182 N180 1.343 . S
C182 C183 1.390 . S
C182 H184 0.931 . S
C183 C181 1.321 . S
C183 C182 1.390 . S
C183 H185 0.930 . S
H184 C182 0.931 . S
H185 C183 0.930 . S
H186 C209 0.931 . S
H187 C175 0.929 1_556 S
H188 C210 0.930 . S
H189 C181 0.931 . S
H190 C171 0.930 . S
H191 C200 0.929 . S
H192 C176 0.931 . S
H193 C177 0.930 1_556 S
H194 C232 0.930 . S
H195 C173 0.929 . S
H196 C201 0.931 . S
H197 C202 0.930 . S
N198 Gd178 2.622 . S
N198 C199 1.369 . S
N198 C200 1.338 . S
C199 N198 1.369 . S
C199 C203 1.415 . S
C199 C206 1.422 . S
C200 H191 0.929 . S
C200 N198 1.338 . S
C200 C202 1.378 . S
C201 H196 0.931 . S
C201 C202 1.348 . S
C201 C203 1.413 . S
C202 H197 0.930 . S
C202 C200 1.378 . S
C202 C201 1.348 . S
C203 C199 1.415 . S
C203 C201 1.413 . S
C203 C233 1.437 . S
H204 C233 0.929 . S
N205 Gd178 2.570 . S
N205 C206 1.359 . S
N205 C209 1.343 . S
C206 C199 1.422 . S
C206 N205 1.359 . S
C206 C208 1.421 . S
C207 C208 1.422 . S
C207 C210 1.321 . S
C207 H234 0.931 . S
C208 C206 1.421 . S
C208 C207 1.422 . S
C208 C232 1.417 . S
C209 H186 0.931 . S
C209 N205 1.343 . S
C209 C210 1.390 . S
C210 H188 0.930 . S
C210 C207 1.321 . S
C210 C209 1.390 . S
O211 Gd179 2.386 . S
O211 C223 1.265 . S
O212 Gd178 2.353 . S
O212 C223 1.242 1_556 S
O213 Gd178 2.468 . S
O213 C231 1.263 . S
O214 Gd178 2.427 . S
O214 C231 1.252 . S
O215 Gd179 2.307 . S
O215 C224 1.261 . S
O216 Gd178 2.388 1_554 S
O216 C224 1.252 . S
O217 Gd178 2.386 . S
O217 C235 1.265 . S
O218 Gd179 2.353 1_556 S
O218 C235 1.242 . S
O219 Gd179 2.468 . S
O219 C243 1.263 . S
O220 Gd179 2.427 . S
O220 C243 1.252 . S
O221 Gd178 2.307 . S
O221 C236 1.261 . S
O222 Gd179 2.388 1_556 S
O222 C236 1.252 . S
C223 O211 1.265 . S
C223 O212 1.242 1_554 S
C224 O215 1.261 . S
C224 O216 1.252 . S
C225 C228 1.394 . S
C225 C230 1.370 . S
C225 C231 1.500 . S
C226 C229 1.383 . S
C226 C230 1.395 . S
C227 C228 1.396 . S
C227 C229 1.365 . S
C227 H244 0.929 . S
C228 C225 1.394 . S
C228 C227 1.396 . S
C228 H245 0.930 . S
C229 C226 1.383 . S
C229 C227 1.365 . S
C229 H246 0.931 . S
C230 C225 1.370 . S
C230 C226 1.395 . S
C230 H247 0.930 . S
C231 Gd178 2.805 . S
C231 O213 1.263 . S
C231 O214 1.252 . S
C231 C225 1.500 . S
C232 H194 0.930 . S
C232 C208 1.417 . S
C232 C233 1.329 . S
C233 C203 1.437 . S
C233 H204 0.929 . S
C233 C232 1.329 . S
H234 C207 0.931 . S
C235 O217 1.265 . S
C235 O218 1.242 . S
C236 O221 1.261 . S
C236 O222 1.252 . S
C237 C240 1.394 . S
C237 C242 1.370 . S
C237 C243 1.500 . S
C238 C241 1.383 . S
C238 C242 1.395 . S
C239 C240 1.396 . S
C239 C241 1.365 . S
C239 H248 0.929 . S
C240 C237 1.394 . S
C240 C239 1.396 . S
C240 H249 0.930 . S
C241 C238 1.383 . S
C241 C239 1.365 . S
C241 H250 0.931 . S
C242 C237 1.370 . S
C242 C238 1.395 . S
C242 H251 0.930 . S
C243 Gd179 2.805 . S
C243 O219 1.263 . S
C243 O220 1.252 . S
C243 C237 1.500 . S
H244 C227 0.929 . S
H245 C228 0.930 . S
H246 C229 0.931 . S
H247 C230 0.930 . S
H248 C239 0.929 . S
H249 C240 0.930 . S
H250 C241 0.931 . S
H251 C242 0.930 . S
C252 C254 1.422 . S
C252 C256 1.415 . S
C252 N258 1.369 . S
C253 C254 1.421 . S
C253 C255 1.417 . S
C253 C265 1.422 . S
C254 C252 1.422 . S
C254 C253 1.421 . S
C254 N264 1.359 . S
C255 C253 1.417 . S
C255 C257 1.329 . S
C255 H274 0.930 . S
C256 C252 1.415 . S
C256 C257 1.437 . S
C256 C260 1.413 . S
C257 C255 1.329 . S
C257 C256 1.437 . S
C257 H279 0.929 . S
N258 C252 1.369 . S
N258 C259 1.338 . S
N258 Gd263 2.622 . S
C259 N258 1.338 . S
C259 C261 1.378 . S
C259 H271 0.929 . S
C260 C256 1.413 . S
C260 C261 1.348 . S
C260 H276 0.931 . S
C261 C259 1.378 . S
C261 C260 1.348 . S
C261 H277 0.930 . S
Gd262 N282 2.622 . S
Gd262 N289 2.570 . S
Gd262 O296 2.353 . S
Gd262 O297 2.468 . S
Gd262 O298 2.427 . S
Gd262 O300 2.388 . S
Gd262 O301 2.386 . S
Gd262 O305 2.307 . S
Gd262 C315 2.805 . S
Gd263 N258 2.622 . S
Gd263 N264 2.570 . S
Gd263 O295 2.386 . S
Gd263 O299 2.307 . S
Gd263 O302 2.353 . S
Gd263 O303 2.468 . S
Gd263 O304 2.427 . S
Gd263 O306 2.388 . S
Gd263 C327 2.805 . S
N264 C254 1.359 . S
N264 Gd263 2.570 . S
N264 C266 1.343 . S
C265 C253 1.422 . S
C265 C267 1.321 . S
C265 H273 0.931 . S
C266 N264 1.343 . S
C266 C267 1.390 . S
C266 H268 0.931 . S
C267 C265 1.321 . S
C267 C266 1.390 . S
C267 H269 0.930 . S
H268 C266 0.931 . S
H269 C267 0.930 . S
H270 C293 0.931 . S
H271 C259 0.929 . S
H272 C294 0.930 . S
H273 C265 0.931 . S
H274 C255 0.930 . S
H275 C284 0.929 . S
H276 C260 0.931 . S
H277 C261 0.930 . S
H278 C316 0.919 1_565 S
H279 C257 0.929 . S
H280 C285 0.931 . S
H281 C286 0.930 1_565 S
N282 Gd262 2.622 . S
N282 C283 1.369 . S
N282 C284 1.338 . S
C283 N282 1.369 . S
C283 C287 1.415 . S
C283 C290 1.422 . S
C284 H275 0.929 . S
C284 N282 1.338 . S
C284 C286 1.378 . S
C285 H280 0.931 . S
C285 C286 1.348 1_565 S
C285 C287 1.413 1_565 S
C286 H281 0.930 1_545 S
C286 C284 1.378 . S
C286 C285 1.348 1_545 S
C287 C283 1.415 . S
C287 C285 1.413 1_545 S
C287 C317 1.437 1_545 S
H288 C317 0.929 . S
N289 Gd262 2.570 . S
N289 C290 1.359 . S
N289 C293 1.343 . S
C290 C283 1.422 . S
C290 N289 1.359 . S
C290 C292 1.421 . S
C291 C292 1.422 . S
C291 C294 1.321 . S
C291 H318 0.931 . S
C292 C290 1.421 . S
C292 C291 1.422 . S
C292 C316 1.417 . S
C293 H270 0.931 . S
C293 N289 1.343 . S
C293 C294 1.390 . S
C294 H272 0.930 . S
C294 C291 1.321 . S
C294 C293 1.390 . S
O295 Gd263 2.386 . S
O295 C307 1.265 . S
O296 Gd262 2.353 . S
O296 C307 1.242 . S
O297 Gd262 2.468 . S
O297 C315 1.263 . S
O298 Gd262 2.427 . S
O298 C315 1.252 . S
O299 Gd263 2.307 . S
O299 C308 1.261 . S
O300 Gd262 2.388 . S
O300 C308 1.252 . S
O301 Gd262 2.386 . S
O301 C319 1.265 . S
O302 Gd263 2.353 . S
O302 C319 1.242 . S
O303 Gd263 2.468 . S
O303 C327 1.263 . S
O304 Gd263 2.427 . S
O304 C327 1.252 . S
O305 Gd262 2.307 . S
O305 C320 1.261 . S
O306 Gd263 2.388 . S
O306 C320 1.252 . S
C307 O295 1.265 . S
C307 O296 1.242 . S
C308 O299 1.261 . S
C308 O300 1.252 . S
C309 C312 1.394 . S
C309 C314 1.370 . S
C309 C315 1.500 . S
C310 C313 1.383 . S
C310 C314 1.395 . S
C311 C312 1.396 . S
C311 C313 1.365 . S
C311 H328 0.929 . S
C312 C309 1.394 . S
C312 C311 1.396 . S
C312 H329 0.930 . S
C313 C310 1.383 . S
C313 C311 1.365 . S
C313 H330 0.931 . S
C314 C309 1.370 . S
C314 C310 1.395 . S
C314 H331 0.930 . S
C315 Gd262 2.805 . S
C315 O297 1.263 . S
C315 O298 1.252 . S
C315 C309 1.500 . S
C316 H278 0.919 1_545 S
C316 C292 1.417 . S
C316 C317 1.329 1_545 S
C317 C287 1.437 1_565 S
C317 H288 0.929 . S
C317 C316 1.329 1_565 S
H318 C291 0.931 . S
C319 O301 1.265 . S
C319 O302 1.242 . S
C320 O305 1.261 . S
C320 O306 1.252 . S
C321 C324 1.394 . S
C321 C326 1.370 . S
C321 C327 1.500 . S
C322 C325 1.383 . S
C322 C326 1.395 . S
C323 C324 1.396 . S
C323 C325 1.365 . S
C323 H332 0.929 . S
C324 C321 1.394 . S
C324 C323 1.396 . S
C324 H333 0.930 . S
C325 C322 1.383 . S
C325 C323 1.365 . S
C325 H334 0.931 . S
C326 C321 1.370 . S
C326 C322 1.395 . S
C326 H335 0.930 . S
C327 Gd263 2.805 . S
C327 O303 1.263 . S
C327 O304 1.252 . S
C327 C321 1.500 . S
H328 C311 0.929 . S
H329 C312 0.930 . S
H330 C313 0.931 . S
H331 C314 0.930 . S
H332 C323 0.929 . S
H333 C324 0.930 . S
H334 C325 0.931 . S
H335 C326 0.930 . S
C336 C338 1.422 . S
C336 C340 1.415 . S
C336 N342 1.369 . S
C337 C338 1.421 . S
C337 C339 1.417 . S
C337 C349 1.422 . S
C338 C336 1.422 . S
C338 C337 1.421 . S
C338 N348 1.359 . S
C339 C337 1.417 . S
C339 C341 1.329 . S
C339 H358 0.930 . S
C340 C336 1.415 . S
C340 C341 1.437 . S
C340 C344 1.413 . S
C341 C339 1.329 . S
C341 C340 1.437 . S
C341 H363 0.929 . S
N342 C336 1.369 . S
N342 C343 1.338 . S
N342 Gd347 2.622 . S
C343 N342 1.338 . S
C343 C345 1.378 . S
C343 H355 0.929 . S
C344 C340 1.413 . S
C344 C345 1.348 . S
C344 H360 0.931 . S
C345 C343 1.378 . S
C345 C344 1.348 . S
C345 H361 0.930 . S
Gd346 N366 2.622 . S
Gd346 N373 2.570 . S
Gd346 O380 2.353 . S
Gd346 O381 2.468 . S
Gd346 O382 2.427 . S
Gd346 O384 2.388 . S
Gd346 O385 2.386 . S
Gd346 O389 2.307 . S
Gd346 C399 2.805 . S
Gd347 N342 2.622 . S
Gd347 N348 2.570 . S
Gd347 O379 2.386 . S
Gd347 O383 2.307 . S
Gd347 O386 2.353 . S
Gd347 O387 2.468 . S
Gd347 O388 2.427 . S
Gd347 O390 2.388 . S
Gd347 C411 2.805 . S
N348 C338 1.359 . S
N348 Gd347 2.570 . S
N348 C350 1.343 . S
C349 C337 1.422 . S
C349 C351 1.321 . S
C349 H357 0.931 . S
C350 N348 1.343 . S
C350 C351 1.390 . S
C350 H352 0.931 . S
C351 C349 1.321 . S
C351 C350 1.390 . S
C351 H353 0.930 . S
H352 C350 0.931 . S
H353 C351 0.930 . S
H354 C377 0.931 . S
H355 C343 0.929 . S
H356 C378 0.930 . S
H357 C349 0.931 . S
H358 C339 0.930 . S
H359 C368 0.929 . S
H360 C344 0.931 . S
H361 C345 0.930 . S
H362 C400 0.930 . S
H363 C341 0.929 . S
H364 C369 0.931 . S
H365 C370 0.930 . S
N366 Gd346 2.622 . S
N366 C367 1.369 . S
N366 C368 1.338 . S
C367 N366 1.369 . S
C367 C371 1.415 . S
C367 C374 1.422 . S
C368 H359 0.929 . S
C368 N366 1.338 . S
C368 C370 1.378 . S
C369 H364 0.931 . S
C369 C370 1.348 . S
C369 C371 1.413 . S
C370 H365 0.930 . S
C370 C368 1.378 . S
C370 C369 1.348 . S
C371 C367 1.415 . S
C371 C369 1.413 . S
C371 C401 1.437 . S
H372 C401 0.929 . S
N373 Gd346 2.570 . S
N373 C374 1.359 . S
N373 C377 1.343 . S
C374 C367 1.422 . S
C374 N373 1.359 . S
C374 C376 1.421 . S
C375 C376 1.422 . S
C375 C378 1.321 . S
C375 H402 0.931 . S
C376 C374 1.421 . S
C376 C375 1.422 . S
C376 C400 1.417 . S
C377 H354 0.931 . S
C377 N373 1.343 . S
C377 C378 1.390 . S
C378 H356 0.930 . S
C378 C375 1.321 . S
C378 C377 1.390 . S
O379 Gd347 2.386 . S
O379 C391 1.265 . S
O380 Gd346 2.353 . S
O380 C391 1.242 . S
O381 Gd346 2.468 . S
O381 C399 1.263 . S
O382 Gd346 2.427 . S
O382 C399 1.252 . S
O383 Gd347 2.307 . S
O383 C392 1.261 . S
O384 Gd346 2.388 . S
O384 C392 1.252 . S
O385 Gd346 2.386 . S
O385 C403 1.265 . S
O386 Gd347 2.353 . S
O386 C403 1.242 . S
O387 Gd347 2.468 . S
O387 C411 1.263 . S
O388 Gd347 2.427 . S
O388 C411 1.252 . S
O389 Gd346 2.307 . S
O389 C404 1.261 . S
O390 Gd347 2.388 . S
O390 C404 1.252 . S
C391 O379 1.265 . S
C391 O380 1.242 . S
C392 O383 1.261 . S
C392 O384 1.252 . S
C393 C396 1.394 . S
C393 C398 1.370 . S
C393 C399 1.500 . S
C394 C397 1.383 . S
C394 C398 1.395 . S
C395 C396 1.396 . S
C395 C397 1.365 . S
C395 H412 0.929 . S
C396 C393 1.394 . S
C396 C395 1.396 . S
C396 H413 0.930 . S
C397 C394 1.383 . S
C397 C395 1.365 . S
C397 H414 0.931 . S
C398 C393 1.370 . S
C398 C394 1.395 . S
C398 H415 0.930 . S
C399 Gd346 2.805 . S
C399 O381 1.263 . S
C399 O382 1.252 . S
C399 C393 1.500 . S
C400 H362 0.930 . S
C400 C376 1.417 . S
C400 C401 1.329 . S
C401 C371 1.437 . S
C401 H372 0.929 . S
C401 C400 1.329 . S
H402 C375 0.931 . S
C403 O385 1.265 . S
C403 O386 1.242 . S
C404 O389 1.261 . S
C404 O390 1.252 . S
C405 C408 1.394 . S
C405 C410 1.370 . S
C405 C411 1.500 . S
C406 C409 1.383 . S
C406 C410 1.395 . S
C407 C408 1.396 . S
C407 C409 1.365 . S
C407 H416 0.929 . S
C408 C405 1.394 . S
C408 C407 1.396 . S
C408 H417 0.930 . S
C409 C406 1.383 . S
C409 C407 1.365 . S
C409 H418 0.931 . S
C410 C405 1.370 . S
C410 C406 1.395 . S
C410 H419 0.930 . S
C411 Gd347 2.805 . S
C411 O387 1.263 . S
C411 O388 1.252 . S
C411 C405 1.500 . S
H412 C395 0.929 . S
H413 C396 0.930 . S
H414 C397 0.931 . S
H415 C398 0.930 . S
H416 C407 0.929 . S
H417 C408 0.930 . S
H418 C409 0.931 . S
H419 C410 0.930 . S
C420 C422 1.422 . S
C420 C424 1.415 . S
C420 N426 1.369 . S
C421 C422 1.421 . S
C421 C423 1.417 . S
C421 C433 1.422 . S
C422 C420 1.422 . S
C422 C421 1.421 . S
C422 N432 1.359 . S
C423 C421 1.417 . S
C423 C425 1.329 . S
C423 H442 0.930 . S
C424 C420 1.415 . S
C424 C425 1.437 . S
C424 C428 1.413 . S
C425 C423 1.329 . S
C425 C424 1.437 . S
C425 H447 0.929 . S
N426 C420 1.369 . S
N426 C427 1.338 . S
N426 Gd431 2.622 . S
C427 N426 1.338 . S
C427 C429 1.378 . S
C427 H439 0.929 . S
C428 C424 1.413 . S
C428 C429 1.348 . S
C428 H444 0.931 . S
C429 C427 1.378 . S
C429 C428 1.348 . S
C429 H445 0.930 . S
Gd430 N450 2.622 . S
Gd430 N457 2.573 . S
Gd430 O464 2.353 . S
Gd430 O465 2.468 . S
Gd430 O466 2.427 . S
Gd430 O468 2.388 . S
Gd430 O469 2.386 1_455 S
Gd430 O473 2.307 1_455 S
Gd430 C483 2.805 . S
Gd431 N426 2.622 . S
Gd431 N432 2.570 . S
Gd431 O463 2.386 . S
Gd431 O467 2.307 . S
Gd431 O470 2.353 . S
Gd431 O471 2.468 . S
Gd431 O472 2.427 . S
Gd431 O474 2.388 . S
Gd431 C495 2.805 . S
N432 C422 1.359 . S
N432 Gd431 2.570 . S
N432 C434 1.343 . S
C433 C421 1.422 . S
C433 C435 1.321 . S
C433 H441 0.931 1_655 S
C434 N432 1.343 . S
C434 C435 1.390 . S
C434 H436 0.931 . S
C435 C433 1.321 . S
C435 C434 1.390 . S
C435 H437 0.930 1_655 S
H436 C434 0.931 . S
H437 C435 0.930 1_455 S
H438 C461 0.931 . S
H439 C427 0.929 . S
H440 C462 0.930 . S
H441 C433 0.931 1_455 S
H442 C423 0.930 . S
H443 C452 0.929 . S
H444 C428 0.931 . S
H445 C429 0.930 . S
H446 C484 0.930 . S
H447 C425 0.929 . S
H448 C453 0.931 . S
H449 C454 0.930 . S
N450 Gd430 2.622 . S
N450 C451 1.369 . S
N450 C452 1.338 . S
C451 N450 1.369 . S
C451 C455 1.415 . S
C451 C458 1.422 . S
C452 H443 0.929 . S
C452 N450 1.338 . S
C452 C454 1.378 . S
C453 H448 0.931 . S
C453 C454 1.348 . S
C453 C455 1.413 . S
C454 H449 0.930 . S
C454 C452 1.378 . S
C454 C453 1.348 . S
C455 C451 1.415 . S
C455 C453 1.413 . S
C455 C485 1.437 . S
H456 C485 0.929 . S
N457 Gd430 2.573 . S
N457 C458 1.360 . S
N457 C461 1.338 1_455 S
C458 C451 1.422 . S
C458 N457 1.360 . S
C458 C460 1.421 1_455 S
C459 C460 1.422 . S
C459 C462 1.321 . S
C459 H486 0.931 . S
C460 C458 1.421 1_655 S
C460 C459 1.422 . S
C460 C484 1.417 . S
C461 H438 0.931 . S
C461 N457 1.338 1_655 S
C461 C462 1.390 . S
C462 H440 0.930 . S
C462 C459 1.321 . S
C462 C461 1.390 . S
O463 Gd431 2.386 . S
O463 C475 1.265 1_655 S
O464 Gd430 2.353 . S
O464 C475 1.242 . S
O465 Gd430 2.468 . S
O465 C483 1.263 . S
O466 Gd430 2.427 . S
O466 C483 1.252 . S
O467 Gd431 2.307 . S
O467 C476 1.261 1_655 S
O468 Gd430 2.388 . S
O468 C476 1.252 . S
O469 Gd430 2.386 1_655 S
O469 C487 1.265 . S
O470 Gd431 2.353 . S
O470 C487 1.242 . S
O471 Gd431 2.468 . S
O471 C495 1.263 . S
O472 Gd431 2.427 . S
O472 C495 1.252 . S
O473 Gd430 2.307 1_655 S
O473 C488 1.261 . S
O474 Gd431 2.388 . S
O474 C488 1.252 . S
C475 O463 1.265 1_455 S
C475 O464 1.242 . S
C476 O467 1.261 1_455 S
C476 O468 1.252 . S
C477 C480 1.394 . S
C477 C482 1.370 . S
C477 C483 1.500 . S
C478 C481 1.383 . S
C478 C482 1.395 . S
C479 C480 1.396 . S
C479 C481 1.365 . S
C479 H496 0.929 . S
C480 C477 1.394 . S
C480 C479 1.396 . S
C480 H497 0.930 . S
C481 C478 1.383 . S
C481 C479 1.365 . S
C481 H498 0.931 . S
C482 C477 1.370 . S
C482 C478 1.395 . S
C482 H499 0.930 . S
C483 Gd430 2.805 . S
C483 O465 1.263 . S
C483 O466 1.252 . S
C483 C477 1.500 . S
C484 H446 0.930 . S
C484 C460 1.417 . S
C484 C485 1.329 1_655 S
C485 C455 1.437 . S
C485 H456 0.929 . S
C485 C484 1.329 1_455 S
H486 C459 0.931 . S
C487 O469 1.265 . S
C487 O470 1.242 . S
C488 O473 1.261 . S
C488 O474 1.252 . S
C489 C492 1.394 . S
C489 C494 1.370 . S
C489 C495 1.500 . S
C490 C493 1.383 . S
C490 C494 1.395 . S
C491 C492 1.396 . S
C491 C493 1.365 . S
C491 H500 0.929 . S
C492 C489 1.394 . S
C492 C491 1.396 . S
C492 H501 0.930 . S
C493 C490 1.383 . S
C493 C491 1.365 . S
C493 H502 0.931 . S
C494 C489 1.370 . S
C494 C490 1.395 . S
C494 H503 0.930 . S
C495 Gd431 2.805 . S
C495 O471 1.263 . S
C495 O472 1.252 . S
C495 C489 1.500 . S
H496 C479 0.929 . S
H497 C480 0.930 . S
H498 C481 0.931 . S
H499 C482 0.930 . S
H500 C491 0.929 . S
H501 C492 0.930 . S
H502 C493 0.931 . S
H503 C494 0.930 . S
C504 C506 1.422 . S
C504 C508 1.415 . S
C504 N510 1.369 . S
C505 C506 1.421 . S
C505 C507 1.417 . S
C505 C517 1.422 . S
C506 C504 1.422 . S
C506 C505 1.421 . S
C506 N516 1.359 . S
C507 C505 1.417 . S
C507 C509 1.329 1_655 S
C507 H526 0.930 . S
C508 C504 1.415 . S
C508 C509 1.437 1_655 S
C508 C512 1.413 1_655 S
C509 C507 1.329 1_455 S
C509 C508 1.437 1_455 S
C509 H531 0.929 . S
N510 C504 1.369 . S
N510 C511 1.338 . S
N510 Gd515 2.622 . S
C511 N510 1.338 . S
C511 C513 1.378 . S
C511 H523 0.929 . S
C512 C508 1.413 1_455 S
C512 C513 1.348 1_455 S
C512 H528 0.931 . S
C513 C511 1.378 . S
C513 C512 1.348 1_655 S
C513 H529 0.930 1_655 S
Gd514 N534 2.622 . S
Gd514 N541 2.570 . S
Gd514 O548 2.353 . S
Gd514 O549 2.468 . S
Gd514 O550 2.427 . S
Gd514 O552 2.388 . S
Gd514 O553 2.386 1_556 S
Gd514 O557 2.307 1_556 S
Gd514 C567 2.805 . S
Gd515 N510 2.622 . S
Gd515 N516 2.570 . S
Gd515 O547 2.354 1_554 S
Gd515 O551 2.307 . S
Gd515 O554 2.353 . S
Gd515 O555 2.468 . S
Gd515 O556 2.427 . S
Gd515 O558 2.388 . S
Gd515 C579 2.805 . S
N516 C506 1.359 . S
N516 Gd515 2.570 . S
N516 C518 1.343 . S
C517 C505 1.422 . S
C517 C519 1.321 . S
C517 H525 0.931 1_554 S
C518 N516 1.343 . S
C518 C519 1.390 . S
C518 H520 0.931 . S
C519 C517 1.321 . S
C519 C518 1.390 . S
C519 H521 0.930 1_554 S
H520 C518 0.931 . S
H521 C519 0.930 1_556 S
H522 C545 0.931 . S
H523 C511 0.929 . S
H524 C546 0.930 . S
H525 C517 0.931 1_556 S
H526 C507 0.930 . S
H527 C536 0.929 . S
H528 C512 0.931 . S
H529 C513 0.930 1_455 S
H530 C568 0.930 . S
H531 C509 0.929 . S
H532 C537 0.931 . S
H533 C538 0.930 . S
N534 Gd514 2.622 . S
N534 C535 1.369 . S
N534 C536 1.338 . S
C535 N534 1.369 . S
C535 C539 1.415 . S
C535 C542 1.422 . S
C536 H527 0.929 . S
C536 N534 1.338 . S
C536 C538 1.378 . S
C537 H532 0.931 . S
C537 C538 1.348 . S
C537 C539 1.413 . S
C538 H533 0.930 . S
C538 C536 1.378 . S
C538 C537 1.348 . S
C539 C535 1.415 . S
C539 C537 1.413 . S
C539 C569 1.437 . S
H540 C569 0.929 . S
N541 Gd514 2.570 . S
N541 C542 1.359 . S
N541 C545 1.343 1_556 S
C542 C535 1.422 . S
C542 N541 1.359 . S
C542 C544 1.421 1_556 S
C543 C544 1.422 . S
C543 C546 1.321 . S
C543 H570 0.931 . S
C544 C542 1.421 1_554 S
C544 C543 1.422 . S
C544 C568 1.417 . S
C545 H522 0.931 . S
C545 N541 1.343 1_554 S
C545 C546 1.390 . S
C546 H524 0.930 . S
C546 C543 1.321 . S
C546 C545 1.390 . S
O547 Gd515 2.354 1_556 S
O547 C559 1.300 . S
O548 Gd514 2.353 . S
O548 C559 1.242 . S
O549 Gd514 2.468 . S
O549 C567 1.263 . S
O550 Gd514 2.427 . S
O550 C567 1.252 . S
O551 Gd515 2.307 . S
O551 C560 1.261 1_554 S
O552 Gd514 2.388 . S
O552 C560 1.252 . S
O553 Gd514 2.386 1_554 S
O553 C571 1.265 . S
O554 Gd515 2.353 . S
O554 C571 1.242 . S
O555 Gd515 2.468 . S
O555 C579 1.263 . S
O556 Gd515 2.427 . S
O556 C579 1.252 . S
O557 Gd514 2.307 1_554 S
O557 C572 1.261 . S
O558 Gd515 2.388 . S
O558 C572 1.252 . S
C559 O547 1.300 . S
C559 O548 1.242 . S
C560 O551 1.261 1_556 S
C560 O552 1.252 . S
C561 C564 1.394 . S
C561 C566 1.370 . S
C561 C567 1.500 . S
C562 C565 1.383 . S
C562 C566 1.395 . S
C563 C564 1.396 . S
C563 C565 1.365 . S
C563 H580 0.929 . S
C564 C561 1.394 . S
C564 C563 1.396 . S
C564 H581 0.930 . S
C565 C562 1.383 . S
C565 C563 1.365 . S
C565 H582 0.931 . S
C566 C561 1.370 . S
C566 C562 1.395 . S
C566 H583 0.930 . S
C567 Gd514 2.805 . S
C567 O549 1.263 . S
C567 O550 1.252 . S
C567 C561 1.500 . S
C568 H530 0.930 . S
C568 C544 1.417 . S
C568 C569 1.329 1_554 S
C569 C539 1.437 . S
C569 H540 0.929 . S
C569 C568 1.329 1_556 S
H570 C543 0.931 . S
C571 O553 1.265 . S
C571 O554 1.242 . S
C572 O557 1.261 . S
C572 O558 1.252 . S
C573 C576 1.394 . S
C573 C578 1.370 . S
C573 C579 1.500 . S
C574 C577 1.383 . S
C574 C578 1.395 . S
C575 C576 1.396 . S
C575 C577 1.365 . S
C575 H584 0.929 . S
C576 C573 1.394 . S
C576 C575 1.396 . S
C576 H585 0.930 . S
C577 C574 1.383 . S
C577 C575 1.365 . S
C577 H586 0.931 . S
C578 C573 1.370 . S
C578 C574 1.395 . S
C578 H587 0.930 . S
C579 Gd515 2.805 . S
C579 O555 1.263 . S
C579 O556 1.252 . S
C579 C573 1.500 . S
H580 C563 0.929 . S
H581 C564 0.930 . S
H582 C565 0.931 . S
H583 C566 0.930 . S
H584 C575 0.929 . S
H585 C576 0.930 . S
H586 C577 0.931 . S
H587 C578 0.930 . S
C588 C590 1.422 . S
C588 C592 1.415 . S
C588 N594 1.369 . S
C589 C590 1.421 . S
C589 C591 1.417 . S
C589 C601 1.422 . S
C590 C588 1.422 . S
C590 C589 1.421 . S
C590 N600 1.359 . S
C591 C589 1.417 . S
C591 C593 1.329 . S
C591 H610 0.930 . S
C592 C588 1.415 . S
C592 C593 1.437 . S
C592 C596 1.413 . S
C593 C591 1.329 . S
C593 C592 1.437 . S
C593 H615 0.929 . S
N594 C588 1.369 . S
N594 C595 1.338 . S
N594 Gd599 2.622 . S
C595 N594 1.338 . S
C595 C597 1.378 . S
C595 H607 0.929 . S
C596 C592 1.413 . S
C596 C597 1.348 . S
C596 H612 0.931 . S
C597 C595 1.378 . S
C597 C596 1.348 . S
C597 H613 0.930 . S
Gd598 N618 2.622 . S
Gd598 N625 2.570 . S
Gd598 O632 2.353 . S
Gd598 O633 2.468 . S
Gd598 O634 2.427 . S
Gd598 O636 2.388 . S
Gd598 O637 2.386 . S
Gd598 O641 2.307 . S
Gd598 C651 2.805 . S
Gd599 N594 2.622 . S
Gd599 N600 2.570 . S
Gd599 O631 2.386 . S
Gd599 O635 2.307 . S
Gd599 O638 2.353 . S
Gd599 O639 2.468 . S
Gd599 O640 2.427 . S
Gd599 O642 2.388 . S
Gd599 C663 2.805 . S
N600 C590 1.359 . S
N600 Gd599 2.570 . S
N600 C602 1.343 . S
C601 C589 1.422 . S
C601 C603 1.321 . S
C601 H609 0.931 . S
C602 N600 1.343 . S
C602 C603 1.390 . S
C602 H604 0.931 . S
C603 C601 1.321 . S
C603 C602 1.390 . S
C603 H605 0.930 . S
H604 C602 0.931 . S
H605 C603 0.930 . S
H606 C629 0.931 . S
H607 C595 0.929 . S
H608 C630 0.930 . S
H609 C601 0.931 . S
H610 C591 0.930 . S
H611 C620 0.929 . S
H612 C596 0.931 . S
H613 C597 0.930 . S
H614 C652 0.930 . S
H615 C593 0.929 . S
H616 C621 0.931 . S
H617 C622 0.930 . S
N618 Gd598 2.622 . S
N618 C619 1.369 . S
N618 C620 1.338 . S
C619 N618 1.369 . S
C619 C623 1.415 . S
C619 C626 1.422 . S
C620 H611 0.929 . S
C620 N618 1.338 . S
C620 C622 1.378 . S
C621 H616 0.931 . S
C621 C622 1.348 . S
C621 C623 1.413 . S
C622 H617 0.930 . S
C622 C620 1.378 . S
C622 C621 1.348 . S
C623 C619 1.415 . S
C623 C621 1.413 . S
C623 C653 1.437 . S
H624 C653 0.929 . S
N625 Gd598 2.570 . S
N625 C626 1.359 . S
N625 C629 1.343 . S
C626 C619 1.422 . S
C626 N625 1.359 . S
C626 C628 1.421 . S
C627 C628 1.422 . S
C627 C630 1.321 . S
C627 H654 0.931 . S
C628 C626 1.421 . S
C628 C627 1.422 . S
C628 C652 1.417 . S
C629 H606 0.931 . S
C629 N625 1.343 . S
C629 C630 1.390 . S
C630 H608 0.930 . S
C630 C627 1.321 . S
C630 C629 1.390 . S
O631 Gd599 2.386 . S
O631 C643 1.265 . S
O632 Gd598 2.353 . S
O632 C643 1.242 . S
O633 Gd598 2.468 . S
O633 C651 1.263 . S
O634 Gd598 2.427 . S
O634 C651 1.252 . S
O635 Gd599 2.307 . S
O635 C644 1.261 . S
O636 Gd598 2.388 . S
O636 C644 1.252 . S
O637 Gd598 2.386 . S
O637 C655 1.265 . S
O638 Gd599 2.353 . S
O638 C655 1.242 . S
O639 Gd599 2.468 . S
O639 C663 1.263 . S
O640 Gd599 2.427 . S
O640 C663 1.252 . S
O641 Gd598 2.307 . S
O641 C656 1.261 . S
O642 Gd599 2.388 . S
O642 C656 1.252 . S
C643 O631 1.265 . S
C643 O632 1.242 . S
C644 O635 1.261 . S
C644 O636 1.252 . S
C645 C648 1.394 . S
C645 C650 1.370 . S
C645 C651 1.500 . S
C646 C649 1.383 . S
C646 C650 1.395 . S
C647 C648 1.396 . S
C647 C649 1.365 . S
C647 H664 0.929 . S
C648 C645 1.394 . S
C648 C647 1.396 . S
C648 H665 0.930 . S
C649 C646 1.383 . S
C649 C647 1.365 . S
C649 H666 0.931 . S
C650 C645 1.370 . S
C650 C646 1.395 . S
C650 H667 0.930 . S
C651 Gd598 2.805 . S
C651 O633 1.263 . S
C651 O634 1.252 . S
C651 C645 1.500 . S
C652 H614 0.930 . S
C652 C628 1.417 . S
C652 C653 1.329 . S
C653 C623 1.437 . S
C653 H624 0.929 . S
C653 C652 1.329 . S
H654 C627 0.931 . S
C655 O637 1.265 . S
C655 O638 1.242 . S
C656 O641 1.261 . S
C656 O642 1.252 . S
C657 C660 1.394 . S
C657 C662 1.370 . S
C657 C663 1.500 . S
C658 C661 1.383 . S
C658 C662 1.395 . S
C659 C660 1.396 . S
C659 C661 1.365 . S
C659 H668 0.929 . S
C660 C657 1.394 . S
C660 C659 1.396 . S
C660 H669 0.930 . S
C661 C658 1.383 . S
C661 C659 1.365 . S
C661 H670 0.931 . S
C662 C657 1.370 . S
C662 C658 1.395 . S
C662 H671 0.930 . S
C663 Gd599 2.805 . S
C663 O639 1.263 . S
C663 O640 1.252 . S
C663 C657 1.500 . S
H664 C647 0.929 . S
H665 C648 0.930 . S
H666 C649 0.931 . S
H667 C650 0.930 . S
H668 C659 0.929 . S
H669 C660 0.930 . S
H670 C661 0.931 . S
H671 C662 0.930 . S
C672 C674 1.422 . S
C672 C676 1.415 . S
C672 N678 1.369 . S
C673 C674 1.421 . S
C673 C675 1.417 . S
C673 C685 1.422 . S
C674 C672 1.422 . S
C674 C673 1.421 . S
C674 N684 1.359 . S
C675 C673 1.417 . S
C675 C677 1.329 . S
C675 H694 0.930 . S
C676 C672 1.415 . S
C676 C677 1.437 . S
C676 C680 1.413 . S
C677 C675 1.329 . S
C677 C676 1.437 . S
C677 H699 0.929 . S
N678 C672 1.369 . S
N678 C679 1.338 . S
N678 Gd683 2.622 . S
C679 N678 1.338 . S
C679 C681 1.378 . S
C679 H691 0.929 . S
C680 C676 1.413 . S
C680 C681 1.348 . S
C680 H696 0.931 . S
C681 C679 1.378 . S
C681 C680 1.348 . S
C681 H697 0.930 . S
Gd682 N702 2.622 . S
Gd682 N709 2.570 . S
Gd682 O716 2.353 . S
Gd682 O717 2.468 . S
Gd682 O718 2.427 . S
Gd682 O720 2.388 . S
Gd682 O721 2.386 . S
Gd682 O725 2.307 . S
Gd682 C735 2.805 . S
Gd683 N678 2.622 . S
Gd683 N684 2.570 . S
Gd683 O715 2.386 . S
Gd683 O719 2.307 . S
Gd683 O722 2.353 . S
Gd683 O723 2.468 . S
Gd683 O724 2.427 . S
Gd683 O726 2.388 . S
Gd683 C747 2.805 . S
N684 C674 1.359 . S
N684 Gd683 2.570 . S
N684 C686 1.343 . S
C685 C673 1.422 . S
C685 C687 1.321 . S
C685 H693 0.931 . S
C686 N684 1.343 . S
C686 C687 1.390 . S
C686 H688 0.931 . S
C687 C685 1.321 . S
C687 C686 1.390 . S
C687 H689 0.930 . S
H688 C686 0.931 . S
H689 C687 0.930 . S
H690 C713 0.931 . S
H691 C679 0.929 . S
H692 C714 0.930 . S
H693 C685 0.931 . S
H694 C675 0.930 . S
H695 C704 0.929 . S
H696 C680 0.931 . S
H697 C681 0.930 . S
H698 C736 0.930 1_556 S
H699 C677 0.929 . S
H700 C705 0.931 . S
H701 C706 0.911 1_556 S
N702 Gd682 2.622 . S
N702 C703 1.369 . S
N702 C704 1.338 . S
C703 N702 1.369 . S
C703 C707 1.415 . S
C703 C710 1.422 . S
C704 H695 0.929 . S
C704 N702 1.338 . S
C704 C706 1.414 . S
C705 H700 0.931 . S
C705 C706 1.330 1_556 S
C705 C707 1.413 1_556 S
C706 H701 0.911 1_554 S
C706 C704 1.414 . S
C706 C705 1.330 1_554 S
C707 C703 1.415 . S
C707 C705 1.413 1_554 S
C707 C737 1.437 1_554 S
H708 C737 0.929 . S
N709 Gd682 2.570 . S
N709 C710 1.359 . S
N709 C713 1.343 . S
C710 C703 1.422 . S
C710 N709 1.359 . S
C710 C712 1.421 . S
C711 C712 1.422 . S
C711 C714 1.321 . S
C711 H738 0.931 . S
C712 C710 1.421 . S
C712 C711 1.422 . S
C712 C736 1.417 . S
C713 H690 0.931 . S
C713 N709 1.343 . S
C713 C714 1.390 . S
C714 H692 0.930 . S
C714 C711 1.321 . S
C714 C713 1.390 . S
O715 Gd683 2.386 . S
O715 C727 1.265 . S
O716 Gd682 2.353 . S
O716 C727 1.242 . S
O717 Gd682 2.468 . S
O717 C735 1.263 . S
O718 Gd682 2.427 . S
O718 C735 1.252 . S
O719 Gd683 2.307 . S
O719 C728 1.261 . S
O720 Gd682 2.388 . S
O720 C728 1.252 . S
O721 Gd682 2.386 . S
O721 C739 1.265 . S
O722 Gd683 2.353 . S
O722 C739 1.242 . S
O723 Gd683 2.468 . S
O723 C747 1.263 . S
O724 Gd683 2.427 . S
O724 C747 1.252 . S
O725 Gd682 2.307 . S
O725 C740 1.261 . S
O726 Gd683 2.388 . S
O726 C740 1.252 . S
C727 O715 1.265 . S
C727 O716 1.242 . S
C728 O719 1.261 . S
C728 O720 1.252 . S
C729 C732 1.394 . S
C729 C734 1.370 . S
C729 C735 1.500 . S
C730 C733 1.383 . S
C730 C734 1.395 . S
C731 C732 1.396 . S
C731 C733 1.365 . S
C731 H748 0.929 . S
C732 C729 1.394 . S
C732 C731 1.396 . S
C732 H749 0.930 . S
C733 C730 1.383 . S
C733 C731 1.365 . S
C733 H750 0.931 . S
C734 C729 1.370 . S
C734 C730 1.395 . S
C734 H751 0.930 . S
C735 Gd682 2.805 . S
C735 O717 1.263 . S
C735 O718 1.252 . S
C735 C729 1.500 . S
C736 H698 0.930 1_554 S
C736 C712 1.417 . S
C736 C737 1.329 1_554 S
C737 C707 1.437 1_556 S
C737 H708 0.929 . S
C737 C736 1.329 1_556 S
H738 C711 0.931 . S
C739 O721 1.265 . S
C739 O722 1.242 . S
C740 O725 1.261 . S
C740 O726 1.252 . S
C741 C744 1.394 . S
C741 C746 1.370 . S
C741 C747 1.500 . S
C742 C745 1.383 . S
C742 C746 1.395 . S
C743 C744 1.396 . S
C743 C745 1.365 . S
C743 H752 0.929 . S
C744 C741 1.394 . S
C744 C743 1.396 . S
C744 H753 0.930 . S
C745 C742 1.383 . S
C745 C743 1.365 . S
C745 H754 0.931 . S
C746 C741 1.370 . S
C746 C742 1.395 . S
C746 H755 0.930 . S
C747 Gd683 2.805 . S
C747 O723 1.263 . S
C747 O724 1.252 . S
C747 C741 1.500 . S
H748 C731 0.929 . S
H749 C732 0.930 . S
H750 C733 0.931 . S
H751 C734 0.930 . S
H752 C743 0.929 . S
H753 C744 0.930 . S
H754 C745 0.931 . S
H755 C746 0.930 . S
C756 C758 1.422 . S
C756 C760 1.415 . S
C756 N762 1.369 . S
C757 C758 1.421 . S
C757 C759 1.417 . S
C757 C769 1.422 . S
C758 C756 1.422 . S
C758 C757 1.421 . S
C758 N768 1.359 . S
C759 C757 1.417 . S
C759 C761 1.329 . S
C759 H778 0.930 . S
C760 C756 1.415 . S
C760 C761 1.437 . S
C760 C764 1.413 . S
C761 C759 1.329 . S
C761 C760 1.437 . S
C761 H783 0.929 . S
N762 C756 1.369 . S
N762 C763 1.338 . S
N762 Gd767 2.622 . S
C763 N762 1.338 . S
C763 C765 1.378 . S
C763 H775 0.929 1_565 S
C764 C760 1.413 . S
C764 C765 1.348 . S
C764 H780 0.931 . S
C765 C763 1.378 . S
C765 C764 1.348 . S
C765 H781 0.930 1_565 S
Gd766 N786 2.622 . S
Gd766 N793 2.570 . S
Gd766 O800 2.353 . S
Gd766 O801 2.468 . S
Gd766 O802 2.427 . S
Gd766 O804 2.388 1_545 S
Gd766 O805 2.386 . S
Gd766 O809 2.307 . S
Gd766 C819 2.805 . S
Gd767 N762 2.622 . S
Gd767 N768 2.570 . S
Gd767 O799 2.386 . S
Gd767 O803 2.307 . S
Gd767 O806 2.353 1_565 S
Gd767 O807 2.468 . S
Gd767 O808 2.427 . S
Gd767 O810 2.388 1_565 S
Gd767 C831 2.805 . S
N768 C758 1.359 . S
N768 Gd767 2.570 . S
N768 C770 1.343 . S
C769 C757 1.422 . S
C769 C771 1.321 . S
C769 H777 0.931 . S
C770 N768 1.343 . S
C770 C771 1.390 . S
C770 H772 0.931 . S
C771 C769 1.321 . S
C771 C770 1.390 . S
C771 H773 0.930 . S
H772 C770 0.931 . S
H773 C771 0.930 . S
H774 C797 0.931 . S
H775 C763 0.929 1_545 S
H776 C798 0.930 . S
H777 C769 0.931 . S
H778 C759 0.930 . S
H779 C788 0.929 . S
H780 C764 0.931 . S
H781 C765 0.930 1_545 S
H782 C820 0.930 . S
H783 C761 0.929 . S
H784 C789 0.931 . S
H785 C790 0.930 1_554 S
N786 Gd766 2.622 . S
N786 C787 1.369 . S
N786 C788 1.338 . S
C787 N786 1.369 . S
C787 C791 1.415 . S
C787 C794 1.422 . S
C788 H779 0.929 . S
C788 N786 1.338 . S
C788 C790 1.378 . S
C789 H784 0.931 . S
C789 C790 1.348 1_554 S
C789 C791 1.413 1_554 S
C790 H785 0.930 1_556 S
C790 C788 1.378 . S
C790 C789 1.348 1_556 S
C791 C787 1.415 . S
C791 C789 1.413 1_556 S
C791 C821 1.437 1_556 S
H792 C821 0.929 . S
N793 Gd766 2.570 . S
N793 C794 1.359 . S
N793 C797 1.343 . S
C794 C787 1.422 . S
C794 N793 1.359 . S
C794 C796 1.421 . S
C795 C796 1.422 . S
C795 C798 1.321 . S
C795 H822 0.931 . S
C796 C794 1.421 . S
C796 C795 1.422 . S
C796 C820 1.417 . S
C797 H774 0.931 . S
C797 N793 1.343 . S
C797 C798 1.390 . S
C798 H776 0.930 . S
C798 C795 1.321 . S
C798 C797 1.390 . S
O799 Gd767 2.386 . S
O799 C811 1.265 . S
O800 Gd766 2.353 . S
O800 C811 1.242 1_545 S
O801 Gd766 2.468 . S
O801 C819 1.263 . S
O802 Gd766 2.427 . S
O802 C819 1.252 . S
O803 Gd767 2.307 . S
O803 C812 1.261 . S
O804 Gd766 2.388 1_565 S
O804 C812 1.252 . S
O805 Gd766 2.386 . S
O805 C823 1.265 . S
O806 Gd767 2.353 1_545 S
O806 C823 1.242 . S
O807 Gd767 2.468 . S
O807 C831 1.263 . S
O808 Gd767 2.427 . S
O808 C831 1.252 . S
O809 Gd766 2.307 . S
O809 C824 1.261 . S
O810 Gd767 2.388 1_545 S
O810 C824 1.252 . S
C811 O799 1.265 . S
C811 O800 1.242 1_565 S
C812 O803 1.261 . S
C812 O804 1.252 . S
C813 C816 1.394 . S
C813 C818 1.370 . S
C813 C819 1.500 . S
C814 C817 1.383 . S
C814 C818 1.395 . S
C815 C816 1.396 . S
C815 C817 1.365 . S
C815 H832 0.929 . S
C816 C813 1.394 . S
C816 C815 1.396 . S
C816 H833 0.930 . S
C817 C814 1.383 . S
C817 C815 1.365 . S
C817 H834 0.931 . S
C818 C813 1.370 . S
C818 C814 1.395 . S
C818 H835 0.930 . S
C819 Gd766 2.805 . S
C819 O801 1.263 . S
C819 O802 1.252 . S
C819 C813 1.500 . S
C820 H782 0.930 . S
C820 C796 1.417 . S
C820 C821 1.329 1_556 S
C821 C791 1.437 1_554 S
C821 H792 0.929 . S
C821 C820 1.329 1_554 S
H822 C795 0.931 . S
C823 O805 1.265 . S
C823 O806 1.242 . S
C824 O809 1.261 . S
C824 O810 1.252 . S
C825 C828 1.394 . S
C825 C830 1.370 . S
C825 C831 1.500 . S
C826 C829 1.383 . S
C826 C830 1.395 . S
C827 C828 1.396 . S
C827 C829 1.365 . S
C827 H836 0.929 . S
C828 C825 1.394 . S
C828 C827 1.396 . S
C828 H837 0.930 . S
C829 C826 1.383 . S
C829 C827 1.365 . S
C829 H838 0.931 . S
C830 C825 1.370 . S
C830 C826 1.395 . S
C830 H839 0.930 . S
C831 Gd767 2.805 . S
C831 O807 1.263 . S
C831 O808 1.252 . S
C831 C825 1.500 . S
H832 C815 0.929 . S
H833 C816 0.930 . S
H834 C817 0.931 . S
H835 C818 0.930 . S
H836 C827 0.929 . S
H837 C828 0.930 . S
H838 C829 0.931 . S
H839 C830 0.930 . S
C840 C842 1.422 . S
C840 C844 1.415 . S
C840 N846 1.369 . S
C841 C842 1.421 . S
C841 C843 1.417 . S
C841 C853 1.422 . S
C842 C840 1.422 . S
C842 C841 1.421 . S
C842 N852 1.359 . S
C843 C841 1.417 . S
C843 C845 1.329 . S
C843 H862 0.930 . S
C844 C840 1.415 . S
C844 C845 1.437 . S
C844 C848 1.413 . S
C845 C843 1.329 . S
C845 C844 1.437 . S
C845 H867 0.929 . S
N846 C840 1.369 . S
N846 C847 1.338 . S
N846 Gd851 2.622 . S
C847 N846 1.338 . S
C847 C849 1.378 . S
C847 H859 0.929 1_545 S
C848 C844 1.413 . S
C848 C849 1.348 . S
C848 H864 0.931 . S
C849 C847 1.378 . S
C849 C848 1.348 . S
C849 H865 0.930 1_545 S
Gd850 N870 2.622 . S
Gd850 N877 2.570 . S
Gd850 O884 2.353 . S
Gd850 O885 2.468 . S
Gd850 O886 2.427 . S
Gd850 O888 2.388 1_565 S
Gd850 O889 2.386 . S
Gd850 O893 2.307 . S
Gd850 C903 2.805 . S
Gd851 N846 2.622 . S
Gd851 N852 2.570 . S
Gd851 O883 2.386 . S
Gd851 O887 2.307 . S
Gd851 O890 2.353 1_545 S
Gd851 O891 2.468 . S
Gd851 O892 2.427 . S
Gd851 O894 2.388 1_545 S
Gd851 C915 2.805 . S
N852 C842 1.359 . S
N852 Gd851 2.570 . S
N852 C854 1.343 . S
C853 C841 1.422 . S
C853 C855 1.321 . S
C853 H861 0.931 . S
C854 N852 1.343 . S
C854 C855 1.390 . S
C854 H856 0.931 . S
C855 C853 1.321 . S
C855 C854 1.390 . S
C855 H857 0.930 . S
H856 C854 0.931 . S
H857 C855 0.930 . S
H858 C881 0.931 . S
H859 C847 0.929 1_565 S
H860 C882 0.930 . S
H861 C853 0.931 . S
H862 C843 0.930 . S
H863 C872 0.929 . S
H864 C848 0.931 . S
H865 C849 0.930 1_565 S
H866 C904 0.930 . S
H867 C845 0.929 . S
H868 C873 0.931 . S
H869 C874 0.930 . S
N870 Gd850 2.622 . S
N870 C871 1.369 . S
N870 C872 1.338 . S
C871 N870 1.369 . S
C871 C875 1.415 . S
C871 C878 1.422 . S
C872 H863 0.929 . S
C872 N870 1.338 . S
C872 C874 1.378 . S
C873 H868 0.931 . S
C873 C874 1.348 . S
C873 C875 1.413 . S
C874 H869 0.930 . S
C874 C872 1.378 . S
C874 C873 1.348 . S
C875 C871 1.415 . S
C875 C873 1.413 . S
C875 C905 1.437 . S
H876 C905 0.929 . S
N877 Gd850 2.570 . S
N877 C878 1.359 . S
N877 C881 1.343 . S
C878 C871 1.422 . S
C878 N877 1.359 . S
C878 C880 1.421 . S
C879 C880 1.422 . S
C879 C882 1.321 . S
C879 H906 0.931 . S
C880 C878 1.421 . S
C880 C879 1.422 . S
C880 C904 1.417 . S
C881 H858 0.931 . S
C881 N877 1.343 . S
C881 C882 1.390 . S
C882 H860 0.930 . S
C882 C879 1.321 . S
C882 C881 1.390 . S
O883 Gd851 2.386 . S
O883 C895 1.265 . S
O884 Gd850 2.353 . S
O884 C895 1.242 1_565 S
O885 Gd850 2.468 . S
O885 C903 1.263 . S
O886 Gd850 2.427 . S
O886 C903 1.252 . S
O887 Gd851 2.307 . S
O887 C896 1.261 . S
O888 Gd850 2.388 1_545 S
O888 C896 1.252 . S
O889 Gd850 2.386 . S
O889 C907 1.265 . S
O890 Gd851 2.353 1_565 S
O890 C907 1.242 . S
O891 Gd851 2.468 . S
O891 C915 1.263 . S
O892 Gd851 2.427 . S
O892 C915 1.252 . S
O893 Gd850 2.307 . S
O893 C908 1.261 . S
O894 Gd851 2.388 1_565 S
O894 C908 1.252 . S
C895 O883 1.265 . S
C895 O884 1.242 1_545 S
C896 O887 1.261 . S
C896 O888 1.252 . S
C897 C900 1.394 . S
C897 C902 1.370 . S
C897 C903 1.500 . S
C898 C901 1.383 . S
C898 C902 1.395 . S
C899 C900 1.396 . S
C899 C901 1.365 . S
C899 H916 0.929 . S
C900 C897 1.394 . S
C900 C899 1.396 . S
C900 H917 0.930 . S
C901 C898 1.383 . S
C901 C899 1.365 . S
C901 H918 0.931 . S
C902 C897 1.370 . S
C902 C898 1.395 . S
C902 H919 0.930 . S
C903 Gd850 2.805 . S
C903 O885 1.263 . S
C903 O886 1.252 . S
C903 C897 1.500 . S
C904 H866 0.930 . S
C904 C880 1.417 . S
C904 C905 1.329 . S
C905 C875 1.437 . S
C905 H876 0.929 . S
C905 C904 1.329 . S
H906 C879 0.931 . S
C907 O889 1.265 . S
C907 O890 1.242 . S
C908 O893 1.261 . S
C908 O894 1.252 . S
C909 C912 1.394 . S
C909 C914 1.370 . S
C909 C915 1.500 . S
C910 C913 1.383 . S
C910 C914 1.395 . S
C911 C912 1.396 . S
C911 C913 1.365 . S
C911 H920 0.929 . S
C912 C909 1.394 . S
C912 C911 1.396 . S
C912 H921 0.930 . S
C913 C910 1.383 . S
C913 C911 1.365 . S
C913 H922 0.931 . S
C914 C909 1.370 . S
C914 C910 1.395 . S
C914 H923 0.930 . S
C915 Gd851 2.805 . S
C915 O891 1.263 . S
C915 O892 1.252 . S
C915 C909 1.500 . S
H916 C899 0.929 . S
H917 C900 0.930 . S
H918 C901 0.931 . S
H919 C902 0.930 . S
H920 C911 0.929 . S
H921 C912 0.930 . S
H922 C913 0.931 . S
H923 C914 0.930 . S
C924 C926 1.422 . S
C924 C928 1.415 . S
C924 N930 1.369 . S
C925 C926 1.421 . S
C925 C927 1.417 . S
C925 C937 1.422 . S
C926 C924 1.422 . S
C926 C925 1.421 . S
C926 N936 1.359 . S
C927 C925 1.417 . S
C927 C929 1.329 . S
C927 H946 0.930 . S
C928 C924 1.415 . S
C928 C929 1.437 . S
C928 C932 1.413 . S
C929 C927 1.329 . S
C929 C928 1.437 . S
C929 H951 0.929 . S
N930 C924 1.369 . S
N930 C931 1.338 . S
N930 Gd935 2.622 . S
C931 N930 1.338 . S
C931 C933 1.378 . S
C931 H943 0.929 . S
C932 C928 1.413 . S
C932 C933 1.348 . S
C932 H948 0.931 . S
C933 C931 1.378 . S
C933 C932 1.348 . S
C933 H949 0.930 . S
Gd934 N954 2.622 . S
Gd934 N961 2.570 . S
Gd934 O968 2.353 . S
Gd934 O969 2.468 . S
Gd934 O970 2.427 . S
Gd934 O972 2.388 . S
Gd934 O973 2.386 . S
Gd934 O977 2.307 . S
Gd934 C987 2.805 . S
Gd935 N930 2.622 . S
Gd935 N936 2.570 . S
Gd935 O967 2.386 . S
Gd935 O971 2.307 . S
Gd935 O974 2.353 . S
Gd935 O975 2.468 . S
Gd935 O976 2.427 . S
Gd935 O978 2.388 . S
Gd935 C999 2.805 . S
N936 C926 1.359 . S
N936 Gd935 2.570 . S
N936 C938 1.343 . S
C937 C925 1.422 . S
C937 C939 1.321 . S
C937 H945 0.931 . S
C938 N936 1.343 . S
C938 C939 1.390 . S
C938 H940 0.931 . S
C939 C937 1.321 . S
C939 C938 1.390 . S
C939 H941 0.930 . S
H940 C938 0.931 . S
H941 C939 0.930 . S
H942 C965 0.931 . S
H943 C931 0.929 . S
H944 C966 0.930 . S
H945 C937 0.931 . S
H946 C927 0.930 . S
H947 C956 0.929 . S
H948 C932 0.931 . S
H949 C933 0.930 . S
H950 C988 0.930 . S
H951 C929 0.929 . S
H952 C957 0.931 . S
H953 C958 0.930 . S
N954 Gd934 2.622 . S
N954 C955 1.369 . S
N954 C956 1.338 . S
C955 N954 1.369 . S
C955 C959 1.415 . S
C955 C962 1.422 . S
C956 H947 0.929 . S
C956 N954 1.338 . S
C956 C958 1.378 . S
C957 H952 0.931 . S
C957 C958 1.348 . S
C957 C959 1.413 . S
C958 H953 0.930 . S
C958 C956 1.378 . S
C958 C957 1.348 . S
C959 C955 1.415 . S
C959 C957 1.413 . S
C959 C989 1.437 . S
H960 C989 0.929 . S
N961 Gd934 2.570 . S
N961 C962 1.359 . S
N961 C965 1.343 . S
C962 C955 1.422 . S
C962 N961 1.359 . S
C962 C964 1.421 . S
C963 C964 1.422 . S
C963 C966 1.321 . S
C963 H990 0.931 . S
C964 C962 1.421 . S
C964 C963 1.422 . S
C964 C988 1.417 . S
C965 H942 0.931 . S
C965 N961 1.343 . S
C965 C966 1.390 . S
C966 H944 0.930 . S
C966 C963 1.321 . S
C966 C965 1.390 . S
O967 Gd935 2.386 . S
O967 C979 1.265 . S
O968 Gd934 2.353 . S
O968 C979 1.242 . S
O969 Gd934 2.468 . S
O969 C987 1.263 . S
O970 Gd934 2.427 . S
O970 C987 1.252 . S
O971 Gd935 2.307 . S
O971 C980 1.261 . S
O972 Gd934 2.388 . S
O972 C980 1.252 . S
O973 Gd934 2.386 . S
O973 C991 1.265 . S
O974 Gd935 2.353 . S
O974 C991 1.242 . S
O975 Gd935 2.468 . S
O975 C999 1.263 . S
O976 Gd935 2.427 . S
O976 C999 1.252 . S
O977 Gd934 2.307 . S
O977 C992 1.261 . S
O978 Gd935 2.388 . S
O978 C992 1.252 . S
C979 O967 1.265 . S
C979 O968 1.242 . S
C980 O971 1.261 . S
C980 O972 1.252 . S
C981 C984 1.394 . S
C981 C986 1.370 . S
C981 C987 1.500 . S
C982 C985 1.383 . S
C982 C986 1.395 . S
C983 C984 1.396 . S
C983 C985 1.365 . S
C983 H1000 0.929 . S
C984 C981 1.394 . S
C984 C983 1.396 . S
C984 H1001 0.930 . S
C985 C982 1.383 . S
C985 C983 1.365 . S
C985 H1002 0.931 . S
C986 C981 1.370 . S
C986 C982 1.395 . S
C986 H1003 0.930 . S
C987 Gd934 2.805 . S
C987 O969 1.263 . S
C987 O970 1.252 . S
C987 C981 1.500 . S
C988 H950 0.930 . S
C988 C964 1.417 . S
C988 C989 1.329 . S
C989 C959 1.437 . S
C989 H960 0.929 . S
C989 C988 1.329 . S
H990 C963 0.931 . S
C991 O973 1.265 . S
C991 O974 1.242 . S
C992 O977 1.261 . S
C992 O978 1.252 . S
C993 C996 1.394 . S
C993 C998 1.370 . S
C993 C999 1.500 . S
C994 C997 1.383 . S
C994 C998 1.395 . S
C995 C996 1.396 . S
C995 C997 1.365 . S
C995 H1004 0.929 . S
C996 C993 1.394 . S
C996 C995 1.396 . S
C996 H1005 0.930 . S
C997 C994 1.383 . S
C997 C995 1.365 . S
C997 H1006 0.931 . S
C998 C993 1.370 . S
C998 C994 1.395 . S
C998 H1007 0.930 . S
C999 Gd935 2.805 . S
C999 O975 1.263 . S
C999 O976 1.252 . S
C999 C993 1.500 . S
H1000 C983 0.929 . S
H1001 C984 0.930 . S
H1002 C985 0.931 . S
H1003 C986 0.930 . S
H1004 C995 0.929 . S
H1005 C996 0.930 . S
H1006 C997 0.931 . S
H1007 C998 0.930 . S
H1008 C1014 0.930 . S
H1009 C1018 0.930 . S
H1010 C1023 0.929 . S
H1011 C1021 0.929 . S
H1012 C1016 0.929 . S
H1013 C1022 0.929 . S
C1014 H1008 0.930 . S
C1014 C1015 1.367 . S
C1014 C1022 1.378 . S
C1015 C1014 1.367 . S
C1015 C1023 1.433 . S
C1016 H1012 0.929 . S
C1016 C1018 1.378 . S
C1016 C1020 1.350 . S
C1017 C1020 1.463 . S
C1017 C1022 1.350 . S
C1017 N1025 1.427 . S
C1018 H1009 0.930 . S
C1018 C1016 1.378 . S
C1018 C1019 1.367 . S
C1019 C1018 1.367 . S
C1019 C1021 1.433 . S
C1020 C1016 1.350 . S
C1020 C1017 1.463 . S
C1020 N1024 1.427 . S
C1021 H1011 0.929 . S
C1021 C1019 1.433 . S
C1021 N1024 1.384 . S
C1022 H1013 0.929 . S
C1022 C1014 1.378 . S
C1022 C1017 1.350 . S
C1023 H1010 0.929 . S
C1023 C1015 1.433 . S
C1023 N1025 1.384 . S
N1024 C1020 1.427 . S
N1024 C1021 1.384 . S
N1025 C1017 1.427 . S
N1025 C1023 1.384 . S
H1026 C1032 0.930 . S
H1027 C1036 0.930 . S
H1028 C1041 0.929 . S
H1029 C1039 0.929 . S
H1030 C1034 0.929 . S
H1031 C1040 0.929 . S
C1032 H1026 0.930 . S
C1032 C1033 1.367 . S
C1032 C1040 1.378 . S
C1033 C1032 1.367 . S
C1033 C1041 1.433 1_565 S
C1034 H1030 0.929 . S
C1034 C1036 1.378 . S
C1034 C1038 1.350 . S
C1035 C1038 1.463 . S
C1035 C1040 1.350 . S
C1035 N1043 1.427 . S
C1036 H1027 0.930 . S
C1036 C1034 1.378 . S
C1036 C1037 1.367 . S
C1037 C1036 1.367 . S
C1037 C1039 1.433 . S
C1038 C1034 1.350 . S
C1038 C1035 1.463 . S
C1038 N1042 1.427 . S
C1039 H1029 0.929 . S
C1039 C1037 1.433 . S
C1039 N1042 1.384 . S
C1040 H1031 0.929 . S
C1040 C1032 1.378 . S
C1040 C1035 1.350 . S
C1041 H1028 0.929 . S
C1041 C1033 1.433 1_545 S
C1041 N1043 1.384 1_545 S
N1042 C1038 1.427 . S
N1042 C1039 1.384 . S
N1043 C1035 1.427 . S
N1043 C1041 1.384 1_565 S
H1044 C1050 0.930 . S
H1045 C1054 0.930 . S
H1046 C1059 0.929 . S
H1047 C1057 0.929 . S
H1048 C1052 0.929 . S
H1049 C1058 0.929 1_556 S
C1050 H1044 0.930 . S
C1050 C1051 1.367 1_556 S
C1050 C1058 1.378 1_556 S
C1051 C1050 1.367 1_554 S
C1051 C1059 1.433 . S
C1052 H1048 0.929 . S
C1052 C1054 1.378 . S
C1052 C1056 1.350 . S
C1053 C1056 1.463 . S
C1053 C1058 1.350 . S
C1053 N1061 1.427 . S
C1054 H1045 0.930 . S
C1054 C1052 1.378 . S
C1054 C1055 1.367 . S
C1055 C1054 1.367 . S
C1055 C1057 1.433 . S
C1056 C1052 1.350 . S
C1056 C1053 1.463 . S
C1056 N1060 1.427 . S
C1057 H1047 0.929 . S
C1057 C1055 1.433 . S
C1057 N1060 1.384 . S
C1058 H1049 0.929 1_554 S
C1058 C1050 1.378 1_554 S
C1058 C1053 1.350 . S
C1059 H1046 0.929 . S
C1059 C1051 1.433 . S
C1059 N1061 1.384 . S
N1060 C1056 1.427 . S
N1060 C1057 1.384 . S
N1061 C1053 1.427 . S
N1061 C1059 1.384 . S
H1062 C1068 0.930 . S
H1063 C1072 0.930 . S
H1064 C1077 0.929 . S
H1065 C1075 0.929 . S
H1066 C1070 0.929 . S
H1067 C1076 0.929 . S
C1068 H1062 0.930 . S
C1068 C1069 1.367 . S
C1068 C1076 1.378 . S
C1069 C1068 1.367 . S
C1069 C1077 1.433 . S
C1070 H1066 0.929 . S
C1070 C1072 1.378 . S
C1070 C1074 1.350 . S
C1071 C1074 1.463 . S
C1071 C1076 1.350 . S
C1071 N1079 1.427 . S
C1072 H1063 0.930 . S
C1072 C1070 1.378 . S
C1072 C1073 1.367 . S
C1073 C1072 1.367 . S
C1073 C1075 1.433 . S
C1074 C1070 1.350 . S
C1074 C1071 1.463 . S
C1074 N1078 1.427 . S
C1075 H1065 0.929 . S
C1075 C1073 1.433 . S
C1075 N1078 1.384 . S
C1076 H1067 0.929 . S
C1076 C1068 1.378 . S
C1076 C1071 1.350 . S
C1077 H1064 0.929 . S
C1077 C1069 1.433 . S
C1077 N1079 1.384 . S
N1078 C1074 1.427 . S
N1078 C1075 1.384 . S
N1079 C1071 1.427 . S
N1079 C1077 1.384 . S
H1080 C1086 0.930 . S
H1081 C1090 0.930 . S
H1082 C1095 0.929 . S
H1083 C1093 0.929 . S
H1084 C1088 0.929 . S
H1085 C1094 0.929 . S
C1086 H1080 0.930 . S
C1086 C1087 1.367 . S
C1086 C1094 1.378 . S
C1087 C1086 1.367 . S
C1087 C1095 1.433 . S
C1088 H1084 0.929 . S
C1088 C1090 1.378 . S
C1088 C1092 1.350 . S
C1089 C1092 1.463 . S
C1089 C1094 1.350 . S
C1089 N1097 1.427 . S
C1090 H1081 0.930 . S
C1090 C1088 1.378 . S
C1090 C1091 1.367 . S
C1091 C1090 1.367 . S
C1091 C1093 1.433 . S
C1092 C1088 1.350 . S
C1092 C1089 1.463 . S
C1092 N1096 1.427 . S
C1093 H1083 0.929 . S
C1093 C1091 1.433 . S
C1093 N1096 1.384 . S
C1094 H1085 0.929 . S
C1094 C1086 1.378 . S
C1094 C1089 1.350 . S
C1095 H1082 0.929 . S
C1095 C1087 1.433 . S
C1095 N1097 1.384 . S
N1096 C1092 1.427 . S
N1096 C1093 1.384 . S
N1097 C1089 1.427 . S
N1097 C1095 1.384 . S
H1098 C1104 0.930 . S
H1099 C1108 0.930 . S
H1100 C1113 0.929 . S
H1101 C1111 0.929 . S
H1102 C1106 0.929 . S
H1103 C1112 0.929 . S
C1104 H1098 0.930 . S
C1104 C1105 1.367 . S
C1104 C1112 1.378 . S
C1105 C1104 1.367 . S
C1105 C1113 1.433 . S
C1106 H1102 0.929 . S
C1106 C1108 1.378 . S
C1106 C1110 1.350 . S
C1107 C1110 1.463 . S
C1107 C1112 1.350 . S
C1107 N1115 1.427 . S
C1108 H1099 0.930 . S
C1108 C1106 1.378 . S
C1108 C1109 1.367 . S
C1109 C1108 1.367 . S
C1109 C1111 1.433 . S
C1110 C1106 1.350 . S
C1110 C1107 1.463 . S
C1110 N1114 1.427 . S
C1111 H1101 0.929 . S
C1111 C1109 1.433 . S
C1111 N1114 1.384 . S
C1112 H1103 0.929 . S
C1112 C1104 1.378 . S
C1112 C1107 1.350 . S
C1113 H1100 0.929 . S
C1113 C1105 1.433 . S
C1113 N1115 1.384 . S
N1114 C1110 1.427 . S
N1114 C1111 1.384 . S
N1115 C1107 1.427 . S
N1115 C1113 1.384 . S
H1116 C1122 0.930 . S
H1117 C1126 0.930 . S
H1118 C1131 0.929 . S
H1119 C1129 0.937 . S
H1120 C1124 0.929 . S
H1121 C1130 0.929 . S
C1122 H1116 0.930 . S
C1122 C1123 1.367 . S
C1122 C1130 1.378 . S
C1123 C1122 1.367 . S
C1123 C1131 1.433 . S
C1124 H1120 0.929 . S
C1124 C1126 1.378 . S
C1124 C1128 1.350 . S
C1125 C1128 1.463 . S
C1125 C1130 1.350 . S
C1125 N1133 1.427 . S
C1126 H1117 0.930 . S
C1126 C1124 1.378 . S
C1126 C1127 1.367 . S
C1127 C1126 1.367 . S
C1127 C1129 1.428 1_556 S
C1128 C1124 1.350 . S
C1128 C1125 1.463 . S
C1128 N1132 1.427 . S
C1129 H1119 0.937 . S
C1129 C1127 1.428 1_554 S
C1129 N1132 1.380 1_554 S
C1130 H1121 0.929 . S
C1130 C1122 1.378 . S
C1130 C1125 1.350 . S
C1131 H1118 0.929 . S
C1131 C1123 1.433 . S
C1131 N1133 1.384 . S
N1132 C1128 1.427 . S
N1132 C1129 1.380 1_556 S
N1133 C1125 1.427 . S
N1133 C1131 1.384 . S
H1134 C1140 0.930 . S
H1135 C1144 0.930 . S
H1136 C1149 0.929 . S
H1137 C1147 0.929 . S
H1138 C1142 0.929 . S
H1139 C1148 0.929 . S
C1140 H1134 0.930 . S
C1140 C1141 1.367 . S
C1140 C1148 1.378 . S
C1141 C1140 1.367 . S
C1141 C1149 1.433 . S
C1142 H1138 0.929 . S
C1142 C1144 1.378 . S
C1142 C1146 1.350 . S
C1143 C1146 1.463 . S
C1143 C1148 1.350 . S
C1143 N1151 1.427 . S
C1144 H1135 0.930 . S
C1144 C1142 1.378 . S
C1144 C1145 1.367 . S
C1145 C1144 1.367 . S
C1145 C1147 1.433 . S
C1146 C1142 1.350 . S
C1146 C1143 1.463 . S
C1146 N1150 1.427 . S
C1147 H1137 0.929 . S
C1147 C1145 1.433 . S
C1147 N1150 1.384 . S
C1148 H1139 0.929 . S
C1148 C1140 1.378 . S
C1148 C1143 1.350 . S
C1149 H1136 0.929 . S
C1149 C1141 1.433 . S
C1149 N1151 1.384 . S
N1150 C1146 1.427 . S
N1150 C1147 1.384 . S
N1151 C1143 1.427 . S
N1151 C1149 1.384 . S
H1152 C1158 0.930 . S
H1153 C1162 0.930 . S
H1154 C1167 0.929 . S
H1155 C1165 0.929 . S
H1156 C1160 0.929 . S
H1157 C1166 0.929 . S
C1158 H1152 0.930 . S
C1158 C1159 1.367 . S
C1158 C1166 1.378 . S
C1159 C1158 1.367 . S
C1159 C1167 1.433 . S
C1160 H1156 0.929 . S
C1160 C1162 1.378 . S
C1160 C1164 1.350 . S
C1161 C1164 1.463 . S
C1161 C1166 1.350 . S
C1161 N1169 1.427 . S
C1162 H1153 0.930 . S
C1162 C1160 1.378 . S
C1162 C1163 1.367 . S
C1163 C1162 1.367 . S
C1163 C1165 1.433 . S
C1164 C1160 1.350 . S
C1164 C1161 1.463 . S
C1164 N1168 1.427 . S
C1165 H1155 0.929 . S
C1165 C1163 1.433 . S
C1165 N1168 1.384 . S
C1166 H1157 0.929 . S
C1166 C1158 1.378 . S
C1166 C1161 1.350 . S
C1167 H1154 0.929 . S
C1167 C1159 1.433 . S
C1167 N1169 1.384 . S
N1168 C1164 1.427 . S
N1168 C1165 1.384 . S
N1169 C1161 1.427 . S
N1169 C1167 1.384 . S
H1170 C1176 0.930 . S
H1171 C1180 0.930 1_655 S
H1172 C1185 0.929 . S
H1173 C1183 0.929 . S
H1174 C1178 0.929 . S
H1175 C1184 0.929 . S
C1176 H1170 0.930 . S
C1176 C1177 1.367 . S
C1176 C1184 1.378 . S
C1177 C1176 1.367 . S
C1177 C1185 1.433 . S
C1178 H1174 0.929 . S
C1178 C1180 1.378 . S
C1178 C1182 1.350 . S
C1179 C1182 1.463 . S
C1179 C1184 1.350 . S
C1179 N1187 1.427 . S
C1180 H1171 0.930 1_455 S
C1180 C1178 1.378 . S
C1180 C1181 1.367 . S
C1181 C1180 1.367 . S
C1181 C1183 1.433 . S
C1182 C1178 1.350 . S
C1182 C1179 1.463 . S
C1182 N1186 1.427 . S
C1183 H1173 0.929 . S
C1183 C1181 1.433 . S
C1183 N1186 1.384 . S
C1184 H1175 0.929 . S
C1184 C1176 1.378 . S
C1184 C1179 1.350 . S
C1185 H1172 0.929 . S
C1185 C1177 1.433 . S
C1185 N1187 1.384 . S
N1186 C1182 1.427 . S
N1186 C1183 1.384 . S
N1187 C1179 1.427 . S
N1187 C1185 1.384 . S
H1188 C1194 0.930 1_455 S
H1189 C1198 0.930 . S
H1190 C1203 0.929 . S
H1191 C1201 0.929 . S
H1192 C1196 0.929 . S
H1193 C1202 0.929 . S
C1194 H1188 0.930 1_655 S
C1194 C1195 1.367 . S
C1194 C1202 1.378 . S
C1195 C1194 1.367 . S
C1195 C1203 1.433 . S
C1196 H1192 0.929 . S
C1196 C1198 1.378 . S
C1196 C1200 1.350 . S
C1197 C1200 1.463 . S
C1197 C1202 1.350 . S
C1197 N1205 1.427 . S
C1198 H1189 0.930 . S
C1198 C1196 1.378 . S
C1198 C1199 1.367 . S
C1199 C1198 1.367 . S
C1199 C1201 1.433 . S
C1200 C1196 1.350 . S
C1200 C1197 1.463 . S
C1200 N1204 1.427 . S
C1201 H1191 0.929 . S
C1201 C1199 1.433 . S
C1201 N1204 1.384 . S
C1202 H1193 0.929 . S
C1202 C1194 1.378 . S
C1202 C1197 1.350 . S
C1203 H1190 0.929 . S
C1203 C1195 1.433 . S
C1203 N1205 1.384 . S
N1204 C1200 1.427 . S
N1204 C1201 1.384 . S
N1205 C1197 1.427 . S
N1205 C1203 1.384 . S
H1206 C1212 0.930 . S
H1207 C1216 0.930 . S
H1208 C1221 0.929 . S
H1209 C1219 0.929 . S
H1210 C1214 0.929 . S
H1211 C1220 0.929 . S
C1212 H1206 0.930 . S
C1212 C1213 1.367 . S
C1212 C1220 1.378 . S
C1213 C1212 1.367 . S
C1213 C1221 1.433 . S
C1214 H1210 0.929 . S
C1214 C1216 1.378 . S
C1214 C1218 1.350 . S
C1215 C1218 1.463 . S
C1215 C1220 1.350 . S
C1215 N1223 1.427 . S
C1216 H1207 0.930 . S
C1216 C1214 1.378 . S
C1216 C1217 1.367 . S
C1217 C1216 1.367 . S
C1217 C1219 1.433 . S
C1218 C1214 1.350 . S
C1218 C1215 1.463 . S
C1218 N1222 1.427 . S
C1219 H1209 0.929 . S
C1219 C1217 1.433 . S
C1219 N1222 1.384 . S
C1220 H1211 0.929 . S
C1220 C1212 1.378 . S
C1220 C1215 1.350 . S
C1221 H1208 0.929 . S
C1221 C1213 1.433 . S
C1221 N1223 1.384 . S
N1222 C1218 1.427 . S
N1222 C1219 1.384 . S
N1223 C1215 1.427 . S
N1223 C1221 1.384 . S
H1224 C1230 0.930 . S
H1225 C1234 0.930 . S
H1226 C1239 0.929 . S
H1227 C1237 0.929 . S
H1228 C1232 0.929 . S
H1229 C1238 0.929 . S
C1230 H1224 0.930 . S
C1230 C1231 1.367 . S
C1230 C1238 1.378 . S
C1231 C1230 1.367 . S
C1231 C1239 1.433 . S
C1232 H1228 0.929 . S
C1232 C1234 1.378 . S
C1232 C1236 1.350 . S
C1233 C1236 1.463 . S
C1233 C1238 1.350 . S
C1233 N1241 1.427 . S
C1234 H1225 0.930 . S
C1234 C1232 1.378 . S
C1234 C1235 1.367 . S
C1235 C1234 1.367 . S
C1235 C1237 1.433 . S
C1236 C1232 1.350 . S
C1236 C1233 1.463 . S
C1236 N1240 1.427 . S
C1237 H1227 0.929 . S
C1237 C1235 1.433 . S
C1237 N1240 1.384 . S
C1238 H1229 0.929 . S
C1238 C1230 1.378 . S
C1238 C1233 1.350 . S
C1239 H1226 0.929 . S
C1239 C1231 1.433 . S
C1239 N1241 1.384 . S
N1240 C1236 1.427 . S
N1240 C1237 1.384 . S
N1241 C1233 1.427 . S
N1241 C1239 1.384 . S
H1242 C1248 0.930 . S
H1243 C1252 0.910 1_545 S
H1244 C1257 0.929 . S
H1245 C1255 0.929 . S
H1246 C1250 0.929 . S
H1247 C1256 0.929 . S
C1248 H1242 0.930 . S
C1248 C1249 1.367 . S
C1248 C1256 1.378 . S
C1249 C1248 1.367 . S
C1249 C1257 1.433 . S
C1250 H1246 0.929 . S
C1250 C1252 1.378 . S
C1250 C1254 1.350 . S
C1251 C1254 1.463 . S
C1251 C1256 1.350 . S
C1251 N1259 1.427 . S
C1252 H1243 0.910 1_565 S
C1252 C1250 1.378 . S
C1252 C1253 1.367 . S
C1253 C1252 1.367 . S
C1253 C1255 1.433 . S
C1254 C1250 1.350 . S
C1254 C1251 1.463 . S
C1254 N1258 1.427 . S
C1255 H1245 0.929 . S
C1255 C1253 1.433 . S
C1255 N1258 1.384 . S
C1256 H1247 0.929 . S
C1256 C1248 1.378 . S
C1256 C1251 1.350 . S
C1257 H1244 0.929 . S
C1257 C1249 1.433 . S
C1257 N1259 1.384 . S
N1258 C1254 1.427 . S
N1258 C1255 1.384 . S
N1259 C1251 1.427 . S
N1259 C1257 1.384 . S
H1260 C1266 0.930 . S
H1261 C1270 0.930 . S
H1262 C1275 0.929 . S
H1263 C1273 0.929 . S
H1264 C1268 0.929 . S
H1265 C1274 0.929 . S
C1266 H1260 0.930 . S
C1266 C1267 1.367 . S
C1266 C1274 1.378 . S
C1267 C1266 1.367 . S
C1267 C1275 1.433 . S
C1268 H1264 0.929 . S
C1268 C1270 1.378 . S
C1268 C1272 1.350 . S
C1269 C1272 1.463 . S
C1269 C1274 1.350 . S
C1269 N1277 1.427 . S
C1270 H1261 0.930 . S
C1270 C1268 1.378 . S
C1270 C1271 1.367 . S
C1271 C1270 1.367 . S
C1271 C1273 1.433 . S
C1272 C1268 1.350 . S
C1272 C1269 1.463 . S
C1272 N1276 1.427 . S
C1273 H1263 0.929 . S
C1273 C1271 1.433 . S
C1273 N1276 1.384 . S
C1274 H1265 0.929 . S
C1274 C1266 1.378 . S
C1274 C1269 1.350 . S
C1275 H1262 0.929 . S
C1275 C1267 1.433 . S
C1275 N1277 1.384 . S
N1276 C1272 1.427 . S
N1276 C1273 1.384 . S
N1277 C1269 1.427 . S
N1277 C1275 1.384 . S
H1278 C1284 0.930 . S
H1279 C1288 0.930 1_565 S
H1280 C1293 0.929 . S
H1281 C1291 0.929 . S
H1282 C1286 0.951 . S
H1283 C1292 0.929 . S
C1284 H1278 0.930 . S
C1284 C1285 1.367 . S
C1284 C1292 1.378 . S
C1285 C1284 1.367 . S
C1285 C1293 1.433 . S
C1286 H1282 0.951 . S
C1286 C1288 1.378 . S
C1286 C1290 1.350 . S
C1287 C1290 1.463 1_554 S
C1287 C1292 1.350 . S
C1287 N1295 1.427 . S
C1288 H1279 0.930 1_545 S
C1288 C1286 1.378 . S
C1288 C1289 1.367 . S
C1289 C1288 1.367 . S
C1289 C1291 1.433 . S
C1290 C1286 1.350 . S
C1290 C1287 1.463 1_556 S
C1290 N1294 1.427 . S
C1291 H1281 0.929 . S
C1291 C1289 1.433 . S
C1291 N1294 1.384 . S
C1292 H1283 0.929 . S
C1292 C1284 1.378 . S
C1292 C1287 1.350 . S
C1293 H1280 0.929 . S
C1293 C1285 1.433 . S
C1293 N1295 1.384 . S
N1294 C1290 1.427 . S
N1294 C1291 1.384 . S
N1295 C1287 1.427 . S
N1295 C1293 1.384 . S
H1296 C1302 0.930 . S
H1297 C1306 0.930 . S
H1298 C1311 0.929 . S
H1299 C1309 0.929 . S
H1300 C1304 0.929 . S
H1301 C1310 0.929 . S
C1302 H1296 0.930 . S
C1302 C1303 1.367 . S
C1302 C1310 1.378 . S
C1303 C1302 1.367 . S
C1303 C1311 1.433 . S
C1304 H1300 0.929 . S
C1304 C1306 1.378 . S
C1304 C1308 1.350 . S
C1305 C1308 1.463 . S
C1305 C1310 1.350 . S
C1305 N1313 1.427 . S
C1306 H1297 0.930 . S
C1306 C1304 1.378 . S
C1306 C1307 1.367 . S
C1307 C1306 1.367 . S
C1307 C1309 1.433 . S
C1308 C1304 1.350 . S
C1308 C1305 1.463 . S
C1308 N1312 1.427 . S
C1309 H1299 0.929 . S
C1309 C1307 1.433 . S
C1309 N1312 1.384 . S
C1310 H1301 0.929 . S
C1310 C1302 1.378 . S
C1310 C1305 1.350 . S
C1311 H1298 0.929 . S
C1311 C1303 1.433 . S
C1311 N1313 1.384 . S
N1312 C1308 1.427 . S
N1312 C1309 1.384 . S
N1313 C1305 1.427 . S
N1313 C1311 1.384 . S
H1314 C1320 0.930 . S
H1315 C1324 0.930 . S
H1316 C1329 0.929 . S
H1317 C1327 0.929 . S
H1318 C1322 0.929 . S
H1319 C1328 0.929 1_556 S
C1320 H1314 0.930 . S
C1320 C1321 1.367 . S
C1320 C1328 1.378 . S
C1321 C1320 1.367 . S
C1321 C1329 1.433 . S
C1322 H1318 0.929 . S
C1322 C1324 1.378 . S
C1322 C1326 1.350 . S
C1323 C1326 1.463 . S
C1323 C1328 1.350 1_556 S
C1323 N1331 1.427 1_556 S
C1324 H1315 0.930 . S
C1324 C1322 1.378 . S
C1324 C1325 1.367 . S
C1325 C1324 1.367 . S
C1325 C1327 1.433 . S
C1326 C1322 1.350 . S
C1326 C1323 1.463 . S
C1326 N1330 1.427 . S
C1327 H1317 0.929 . S
C1327 C1325 1.433 . S
C1327 N1330 1.384 . S
C1328 H1319 0.929 1_554 S
C1328 C1320 1.378 . S
C1328 C1323 1.350 1_554 S
C1329 H1316 0.929 . S
C1329 C1321 1.433 . S
C1329 N1331 1.384 . S
N1330 C1326 1.427 . S
N1330 C1327 1.384 . S
N1331 C1323 1.427 1_554 S
N1331 C1329 1.384 . S
H1332 C1338 0.930 . S
H1333 C1342 0.930 . S
H1334 C1347 0.929 . S
H1335 C1345 0.929 . S
H1336 C1340 0.929 . S
H1337 C1346 0.929 . S
C1338 H1332 0.930 . S
C1338 C1339 1.367 . S
C1338 C1346 1.378 . S
C1339 C1338 1.367 . S
C1339 C1347 1.433 . S
C1340 H1336 0.929 . S
C1340 C1342 1.378 . S
C1340 C1344 1.350 . S
C1341 C1344 1.463 . S
C1341 C1346 1.350 . S
C1341 N1349 1.427 . S
C1342 H1333 0.930 . S
C1342 C1340 1.378 . S
C1342 C1343 1.367 . S
C1343 C1342 1.367 . S
C1343 C1345 1.433 . S
C1344 C1340 1.350 . S
C1344 C1341 1.463 . S
C1344 N1348 1.427 . S
C1345 H1335 0.929 . S
C1345 C1343 1.433 . S
C1345 N1348 1.384 . S
C1346 H1337 0.929 . S
C1346 C1338 1.378 . S
C1346 C1341 1.350 . S
C1347 H1334 0.929 . S
C1347 C1339 1.433 . S
C1347 N1349 1.384 . S
N1348 C1344 1.427 . S
N1348 C1345 1.384 . S
N1349 C1341 1.427 . S
N1349 C1347 1.384 . S
H1350 C1356 0.930 . S
H1351 C1360 0.930 . S
H1352 C1365 0.929 . S
H1353 C1363 0.929 . S
H1354 C1358 0.929 . S
H1355 C1364 0.929 . S
C1356 H1350 0.930 . S
C1356 C1357 1.367 . S
C1356 C1364 1.378 . S
C1357 C1356 1.367 . S
C1357 C1365 1.433 . S
C1358 H1354 0.929 . S
C1358 C1360 1.378 . S
C1358 C1362 1.350 . S
C1359 C1362 1.463 . S
C1359 C1364 1.350 . S
C1359 N1367 1.427 . S
C1360 H1351 0.930 . S
C1360 C1358 1.378 . S
C1360 C1361 1.367 . S
C1361 C1360 1.367 . S
C1361 C1363 1.433 . S
C1362 C1358 1.350 . S
C1362 C1359 1.463 . S
C1362 N1366 1.427 . S
C1363 H1353 0.929 . S
C1363 C1361 1.433 . S
C1363 N1366 1.384 . S
C1364 H1355 0.929 . S
C1364 C1356 1.378 . S
C1364 C1359 1.350 . S
C1365 H1352 0.929 . S
C1365 C1357 1.433 . S
C1365 N1367 1.384 . S
N1366 C1362 1.427 . S
N1366 C1363 1.384 . S
N1367 C1359 1.427 . S
N1367 C1365 1.384 . S
H1368 C1374 0.930 . S
H1369 C1378 0.930 . S
H1370 C1383 0.929 . S
H1371 C1381 0.929 . S
H1372 C1376 0.929 . S
H1373 C1382 0.929 . S
C1374 H1368 0.930 . S
C1374 C1375 1.367 . S
C1374 C1382 1.378 . S
C1375 C1374 1.367 . S
C1375 C1383 1.433 . S
C1376 H1372 0.929 . S
C1376 C1378 1.378 . S
C1376 C1380 1.350 . S
C1377 C1380 1.463 . S
C1377 C1382 1.350 . S
C1377 N1385 1.427 . S
C1378 H1369 0.930 . S
C1378 C1376 1.378 . S
C1378 C1379 1.367 . S
C1379 C1378 1.367 . S
C1379 C1381 1.433 . S
C1380 C1376 1.350 . S
C1380 C1377 1.463 . S
C1380 N1384 1.427 . S
C1381 H1371 0.929 . S
C1381 C1379 1.433 . S
C1381 N1384 1.384 . S
C1382 H1373 0.929 . S
C1382 C1374 1.378 . S
C1382 C1377 1.350 . S
C1383 H1370 0.929 . S
C1383 C1375 1.433 . S
C1383 N1385 1.384 . S
N1384 C1380 1.427 . S
N1384 C1381 1.384 . S
N1385 C1377 1.427 . S
N1385 C1383 1.384 . S
H1386 C1392 0.930 . S
H1387 C1396 0.930 . S
H1388 C1401 0.929 . S
H1389 C1399 0.929 . S
H1390 C1394 0.929 1_545 S
H1391 C1400 0.929 . S
C1392 H1386 0.930 . S
C1392 C1393 1.367 . S
C1392 C1400 1.378 . S
C1393 C1392 1.367 . S
C1393 C1401 1.433 . S
C1394 H1390 0.929 1_565 S
C1394 C1396 1.378 . S
C1394 C1398 1.350 1_565 S
C1395 C1398 1.463 . S
C1395 C1400 1.350 . S
C1395 N1403 1.427 . S
C1396 H1387 0.930 . S
C1396 C1394 1.378 . S
C1396 C1397 1.367 . S
C1397 C1396 1.367 . S
C1397 C1399 1.433 . S
C1398 C1394 1.350 1_545 S
C1398 C1395 1.463 . S
C1398 N1402 1.427 1_545 S
C1399 H1389 0.929 . S
C1399 C1397 1.433 . S
C1399 N1402 1.384 . S
C1400 H1391 0.929 . S
C1400 C1392 1.378 . S
C1400 C1395 1.350 . S
C1401 H1388 0.929 . S
C1401 C1393 1.433 . S
C1401 N1403 1.384 . S
N1402 C1398 1.427 1_565 S
N1402 C1399 1.384 . S
N1403 C1395 1.427 . S
N1403 C1401 1.384 . S
H1404 C1410 0.930 . S
H1405 C1414 0.930 . S
H1406 C1419 0.929 . S
H1407 C1417 0.929 . S
H1408 C1412 0.929 . S
H1409 C1418 0.929 . S
C1410 H1404 0.930 . S
C1410 C1411 1.367 . S
C1410 C1418 1.378 . S
C1411 C1410 1.367 . S
C1411 C1419 1.433 . S
C1412 H1408 0.929 . S
C1412 C1414 1.378 . S
C1412 C1416 1.350 . S
C1413 C1416 1.463 . S
C1413 C1418 1.350 . S
C1413 N1421 1.427 . S
C1414 H1405 0.930 . S
C1414 C1412 1.378 . S
C1414 C1415 1.367 . S
C1415 C1414 1.367 . S
C1415 C1417 1.433 . S
C1416 C1412 1.350 . S
C1416 C1413 1.463 . S
C1416 N1420 1.427 . S
C1417 H1407 0.929 . S
C1417 C1415 1.433 . S
C1417 N1420 1.384 . S
C1418 H1409 0.929 . S
C1418 C1410 1.378 . S
C1418 C1413 1.350 . S
C1419 H1406 0.929 . S
C1419 C1411 1.433 . S
C1419 N1421 1.384 . S
N1420 C1416 1.427 . S
N1420 C1417 1.384 . S
N1421 C1413 1.427 . S
N1421 C1419 1.384 . S
H1422 C1428 0.930 . S
H1423 C1432 0.930 . S
H1424 C1437 0.929 . S
H1425 C1435 0.929 . S
H1426 C1430 0.929 . S
H1427 C1436 0.929 . S
C1428 H1422 0.930 . S
C1428 C1429 1.367 . S
C1428 C1436 1.378 . S
C1429 C1428 1.367 . S
C1429 C1437 1.433 . S
C1430 H1426 0.929 . S
C1430 C1432 1.378 . S
C1430 C1434 1.350 . S
C1431 C1434 1.455 1_545 S
C1431 C1436 1.355 . S
C1431 N1439 1.429 . S
C1432 H1423 0.930 . S
C1432 C1430 1.378 . S
C1432 C1433 1.367 . S
C1433 C1432 1.367 . S
C1433 C1435 1.433 . S
C1434 C1430 1.350 . S
C1434 C1431 1.455 1_565 S
C1434 N1438 1.427 . S
C1435 H1425 0.929 . S
C1435 C1433 1.433 . S
C1435 N1438 1.384 . S
C1436 H1427 0.929 . S
C1436 C1428 1.378 . S
C1436 C1431 1.355 . S
C1437 H1424 0.929 . S
C1437 C1429 1.433 . S
C1437 N1439 1.384 . S
N1438 C1434 1.427 . S
N1438 C1435 1.384 . S
N1439 C1431 1.429 . S
N1439 C1437 1.384 . S
H1440 C1446 0.930 . S
H1441 C1450 0.930 . S
H1442 C1455 0.929 . S
H1443 C1453 0.929 . S
H1444 C1448 0.929 . S
H1445 C1454 0.929 . S
C1446 H1440 0.930 . S
C1446 C1447 1.367 . S
C1446 C1454 1.378 . S
C1447 C1446 1.367 . S
C1447 C1455 1.433 . S
C1448 H1444 0.929 . S
C1448 C1450 1.378 . S
C1448 C1452 1.350 . S
C1449 C1452 1.463 . S
C1449 C1454 1.350 . S
C1449 N1457 1.427 . S
C1450 H1441 0.930 . S
C1450 C1448 1.378 . S
C1450 C1451 1.367 . S
C1451 C1450 1.367 . S
C1451 C1453 1.433 . S
C1452 C1448 1.350 . S
C1452 C1449 1.463 . S
C1452 N1456 1.427 . S
C1453 H1443 0.929 . S
C1453 C1451 1.433 . S
C1453 N1456 1.384 . S
C1454 H1445 0.929 . S
C1454 C1446 1.378 . S
C1454 C1449 1.350 . S
C1455 H1442 0.929 . S
C1455 C1447 1.433 . S
C1455 N1457 1.384 . S
N1456 C1452 1.427 . S
N1456 C1453 1.384 . S
N1457 C1449 1.427 . S
N1457 C1455 1.384 . S
H1458 C1464 0.930 . S
H1459 C1468 0.930 . S
H1460 C1473 0.929 . S
H1461 C1471 0.929 . S
H1462 C1466 0.929 . S
H1463 C1472 0.929 . S
C1464 H1458 0.930 . S
C1464 C1465 1.367 . S
C1464 C1472 1.378 . S
C1465 C1464 1.367 . S
C1465 C1473 1.433 . S
C1466 H1462 0.929 . S
C1466 C1468 1.378 . S
C1466 C1470 1.350 . S
C1467 C1470 1.463 . S
C1467 C1472 1.350 . S
C1467 N1475 1.427 . S
C1468 H1459 0.930 . S
C1468 C1466 1.378 . S
C1468 C1469 1.367 . S
C1469 C1468 1.367 . S
C1469 C1471 1.433 . S
C1470 C1466 1.350 . S
C1470 C1467 1.463 . S
C1470 N1474 1.427 . S
C1471 H1461 0.929 . S
C1471 C1469 1.433 . S
C1471 N1474 1.384 . S
C1472 H1463 0.929 . S
C1472 C1464 1.378 . S
C1472 C1467 1.350 . S
C1473 H1460 0.929 . S
C1473 C1465 1.433 . S
C1473 N1475 1.384 . S
N1474 C1470 1.427 . S
N1474 C1471 1.384 . S
N1475 C1467 1.427 . S
N1475 C1473 1.384 . S
H1476 C1482 0.930 . S
H1477 C1486 0.930 . S
H1478 C1491 0.929 . S
H1479 C1489 0.929 . S
H1480 C1484 0.929 . S
H1481 C1490 0.929 . S
C1482 H1476 0.930 . S
C1482 C1483 1.367 . S
C1482 C1490 1.378 . S
C1483 C1482 1.367 . S
C1483 C1491 1.433 . S
C1484 H1480 0.929 . S
C1484 C1486 1.378 . S
C1484 C1488 1.350 . S
C1485 C1488 1.463 . S
C1485 C1490 1.350 . S
C1485 N1493 1.427 . S
C1486 H1477 0.930 . S
C1486 C1484 1.378 . S
C1486 C1487 1.367 . S
C1487 C1486 1.367 . S
C1487 C1489 1.433 . S
C1488 C1484 1.350 . S
C1488 C1485 1.463 . S
C1488 N1492 1.427 . S
C1489 H1479 0.929 . S
C1489 C1487 1.433 . S
C1489 N1492 1.384 . S
C1490 H1481 0.929 . S
C1490 C1482 1.378 . S
C1490 C1485 1.350 . S
C1491 H1478 0.929 . S
C1491 C1483 1.433 . S
C1491 N1493 1.384 . S
N1492 C1488 1.427 . S
N1492 C1489 1.384 . S
N1493 C1485 1.427 . S
N1493 C1491 1.384 . S
H1494 C1500 0.930 . S
H1495 C1504 0.930 . S
H1496 C1509 0.929 . S
H1497 C1507 0.929 . S
H1498 C1502 0.929 . S
H1499 C1508 0.929 . S
C1500 H1494 0.930 . S
C1500 C1501 1.367 . S
C1500 C1508 1.378 . S
C1501 C1500 1.367 . S
C1501 C1509 1.433 . S
C1502 H1498 0.929 . S
C1502 C1504 1.378 . S
C1502 C1506 1.350 . S
C1503 C1506 1.463 . S
C1503 C1508 1.350 . S
C1503 N1511 1.427 . S
C1504 H1495 0.930 . S
C1504 C1502 1.378 . S
C1504 C1505 1.367 . S
C1505 C1504 1.367 . S
C1505 C1507 1.433 . S
C1506 C1502 1.350 . S
C1506 C1503 1.463 . S
C1506 N1510 1.427 . S
C1507 H1497 0.929 . S
C1507 C1505 1.433 . S
C1507 N1510 1.384 . S
C1508 H1499 0.929 . S
C1508 C1500 1.378 . S
C1508 C1503 1.350 . S
C1509 H1496 0.929 . S
C1509 C1501 1.433 . S
C1509 N1511 1.384 . S
N1510 C1506 1.427 . S
N1510 C1507 1.384 . S
N1511 C1503 1.427 . S
N1511 C1509 1.384 . S
H1512 C1518 0.930 . S
H1513 C1522 0.930 . S
H1514 C1527 0.929 . S
H1515 C1525 0.929 . S
H1516 C1520 0.929 . S
H1517 C1526 0.929 . S
C1518 H1512 0.930 . S
C1518 C1519 1.367 . S
C1518 C1526 1.378 . S
C1519 C1518 1.367 . S
C1519 C1527 1.433 . S
C1520 H1516 0.929 . S
C1520 C1522 1.378 . S
C1520 C1524 1.350 . S
C1521 C1524 1.463 . S
C1521 C1526 1.350 . S
C1521 N1529 1.427 . S
C1522 H1513 0.930 . S
C1522 C1520 1.378 . S
C1522 C1523 1.367 . S
C1523 C1522 1.367 . S
C1523 C1525 1.433 . S
C1524 C1520 1.350 . S
C1524 C1521 1.463 . S
C1524 N1528 1.427 . S
C1525 H1515 0.929 . S
C1525 C1523 1.433 . S
C1525 N1528 1.384 . S
C1526 H1517 0.929 . S
C1526 C1518 1.378 . S
C1526 C1521 1.350 . S
C1527 H1514 0.929 . S
C1527 C1519 1.433 . S
C1527 N1529 1.384 . S
N1528 C1524 1.427 . S
N1528 C1525 1.384 . S
N1529 C1521 1.427 . S
N1529 C1527 1.384 . S
H1530 C1536 0.930 . S
H1531 C1540 0.930 . S
H1532 C1545 0.929 . S
H1533 C1543 0.929 . S
H1534 C1538 0.929 . S
H1535 C1544 0.929 . S
C1536 H1530 0.930 . S
C1536 C1537 1.367 . S
C1536 C1544 1.378 . S
C1537 C1536 1.367 . S
C1537 C1545 1.433 . S
C1538 H1534 0.929 . S
C1538 C1540 1.378 . S
C1538 C1542 1.350 . S
C1539 C1542 1.463 . S
C1539 C1544 1.350 . S
C1539 N1547 1.427 . S
C1540 H1531 0.930 . S
C1540 C1538 1.378 . S
C1540 C1541 1.367 . S
C1541 C1540 1.367 . S
C1541 C1543 1.433 . S
C1542 C1538 1.350 . S
C1542 C1539 1.463 . S
C1542 N1546 1.427 . S
C1543 H1533 0.929 . S
C1543 C1541 1.433 . S
C1543 N1546 1.384 . S
C1544 H1535 0.929 . S
C1544 C1536 1.378 . S
C1544 C1539 1.350 . S
C1545 H1532 0.929 . S
C1545 C1537 1.433 . S
C1545 N1547 1.384 . S
N1546 C1542 1.427 . S
N1546 C1543 1.384 . S
N1547 C1539 1.427 . S
N1547 C1545 1.384 . S
H1548 C1554 0.930 . S
H1549 C1558 0.930 . S
H1550 C1563 0.929 . S
H1551 C1561 0.929 . S
H1552 C1556 0.929 . S
H1553 C1562 0.929 . S
C1554 H1548 0.930 . S
C1554 C1555 1.367 . S
C1554 C1562 1.378 . S
C1555 C1554 1.367 . S
C1555 C1563 1.433 . S
C1556 H1552 0.929 . S
C1556 C1558 1.378 . S
C1556 C1560 1.350 . S
C1557 C1560 1.463 1_455 S
C1557 C1562 1.350 . S
C1557 N1565 1.427 . S
C1558 H1549 0.930 . S
C1558 C1556 1.378 . S
C1558 C1559 1.367 . S
C1559 C1558 1.367 . S
C1559 C1561 1.433 . S
C1560 C1556 1.350 . S
C1560 C1557 1.463 1_655 S
C1560 N1564 1.427 . S
C1561 H1551 0.929 . S
C1561 C1559 1.433 . S
C1561 N1564 1.384 . S
C1562 H1553 0.929 . S
C1562 C1554 1.378 . S
C1562 C1557 1.350 . S
C1563 H1550 0.929 . S
C1563 C1555 1.433 . S
C1563 N1565 1.384 . S
N1564 C1560 1.427 . S
N1564 C1561 1.384 . S
N1565 C1557 1.427 . S
N1565 C1563 1.384 . S
H1566 C1572 0.930 . S
H1567 C1576 0.930 . S
H1568 C1581 0.929 . S
H1569 C1579 0.929 . S
H1570 C1574 0.929 . S
H1571 C1580 0.929 . S
C1572 H1566 0.930 . S
C1572 C1573 1.367 . S
C1572 C1580 1.378 . S
C1573 C1572 1.367 . S
C1573 C1581 1.433 . S
C1574 H1570 0.929 . S
C1574 C1576 1.378 . S
C1574 C1578 1.350 . S
C1575 C1578 1.463 . S
C1575 C1580 1.350 . S
C1575 N1583 1.427 . S
C1576 H1567 0.930 . S
C1576 C1574 1.378 . S
C1576 C1577 1.367 . S
C1577 C1576 1.367 . S
C1577 C1579 1.433 . S
C1578 C1574 1.350 . S
C1578 C1575 1.463 . S
C1578 N1582 1.427 . S
C1579 H1569 0.929 . S
C1579 C1577 1.433 . S
C1579 N1582 1.384 . S
C1580 H1571 0.929 . S
C1580 C1572 1.378 . S
C1580 C1575 1.350 . S
C1581 H1568 0.929 . S
C1581 C1573 1.433 . S
C1581 N1583 1.384 . S
N1582 C1578 1.427 . S
N1582 C1579 1.384 . S
N1583 C1575 1.427 . S
N1583 C1581 1.384 . S
H1584 C1590 0.930 . S
H1585 C1594 0.930 . S
H1586 C1599 0.929 . S
H1587 C1597 0.929 . S
H1588 C1592 0.929 . S
H1589 C1598 0.929 . S
C1590 H1584 0.930 . S
C1590 C1591 1.367 . S
C1590 C1598 1.378 . S
C1591 C1590 1.367 . S
C1591 C1599 1.433 . S
C1592 H1588 0.929 . S
C1592 C1594 1.378 . S
C1592 C1596 1.350 . S
C1593 C1596 1.463 . S
C1593 C1598 1.350 . S
C1593 N1601 1.427 . S
C1594 H1585 0.930 . S
C1594 C1592 1.378 . S
C1594 C1595 1.367 . S
C1595 C1594 1.367 . S
C1595 C1597 1.433 . S
C1596 C1592 1.350 . S
C1596 C1593 1.463 . S
C1596 N1600 1.427 . S
C1597 H1587 0.929 . S
C1597 C1595 1.433 . S
C1597 N1600 1.384 . S
C1598 H1589 0.929 . S
C1598 C1590 1.378 . S
C1598 C1593 1.350 . S
C1599 H1586 0.929 . S
C1599 C1591 1.433 . S
C1599 N1601 1.384 . S
N1600 C1596 1.427 . S
N1600 C1597 1.384 . S
N1601 C1593 1.427 . S
N1601 C1599 1.384 . S
H1602 C1608 0.930 . S
H1603 C1612 0.930 . S
H1604 C1617 0.929 . S
H1605 C1615 0.929 . S
H1606 C1610 0.929 . S
H1607 C1616 0.929 . S
C1608 H1602 0.930 . S
C1608 C1609 1.367 . S
C1608 C1616 1.378 . S
C1609 C1608 1.367 . S
C1609 C1617 1.433 . S
C1610 H1606 0.929 . S
C1610 C1612 1.378 . S
C1610 C1614 1.350 . S
C1611 C1614 1.463 . S
C1611 C1616 1.350 . S
C1611 N1619 1.427 . S
C1612 H1603 0.930 . S
C1612 C1610 1.378 . S
C1612 C1613 1.367 . S
C1613 C1612 1.367 . S
C1613 C1615 1.433 . S
C1614 C1610 1.350 . S
C1614 C1611 1.463 . S
C1614 N1618 1.427 . S
C1615 H1605 0.929 . S
C1615 C1613 1.433 . S
C1615 N1618 1.384 . S
C1616 H1607 0.929 . S
C1616 C1608 1.378 . S
C1616 C1611 1.350 . S
C1617 H1604 0.929 . S
C1617 C1609 1.433 . S
C1617 N1619 1.384 . S
N1618 C1614 1.427 . S
N1618 C1615 1.384 . S
N1619 C1611 1.427 . S
N1619 C1617 1.384 . S
H1620 C1626 0.930 1_554 S
H1621 C1630 0.930 . S
H1622 C1635 0.929 . S
H1623 C1633 0.929 . S
H1624 C1628 0.929 . S
H1625 C1634 0.929 . S
C1626 H1620 0.930 1_556 S
C1626 C1627 1.367 . S
C1626 C1634 1.378 . S
C1627 C1626 1.367 . S
C1627 C1635 1.433 . S
C1628 H1624 0.929 . S
C1628 C1630 1.378 . S
C1628 C1632 1.350 . S
C1629 C1632 1.463 . S
C1629 C1634 1.350 . S
C1629 N1637 1.427 . S
C1630 H1621 0.930 . S
C1630 C1628 1.378 . S
C1630 C1631 1.367 . S
C1631 C1630 1.367 . S
C1631 C1633 1.433 . S
C1632 C1628 1.350 . S
C1632 C1629 1.463 . S
C1632 N1636 1.427 . S
C1633 H1623 0.929 . S
C1633 C1631 1.433 . S
C1633 N1636 1.384 . S
C1634 H1625 0.929 . S
C1634 C1626 1.378 . S
C1634 C1629 1.350 . S
C1635 H1622 0.929 . S
C1635 C1627 1.433 . S
C1635 N1637 1.384 . S
N1636 C1632 1.427 . S
N1636 C1633 1.384 . S
N1637 C1629 1.427 . S
N1637 C1635 1.384 . S
H1638 C1644 0.930 . S
H1639 C1648 0.930 . S
H1640 C1653 0.929 . S
H1641 C1651 0.929 . S
H1642 C1646 0.929 1_655 S
H1643 C1652 0.929 . S
C1644 H1638 0.930 . S
C1644 C1645 1.367 . S
C1644 C1652 1.378 . S
C1645 C1644 1.367 . S
C1645 C1653 1.433 . S
C1646 H1642 0.929 1_455 S
C1646 C1648 1.378 . S
C1646 C1650 1.350 1_455 S
C1647 C1650 1.463 . S
C1647 C1652 1.350 . S
C1647 N1655 1.427 . S
C1648 H1639 0.930 . S
C1648 C1646 1.378 . S
C1648 C1649 1.367 . S
C1649 C1648 1.367 . S
C1649 C1651 1.433 . S
C1650 C1646 1.350 1_655 S
C1650 C1647 1.463 . S
C1650 N1654 1.427 1_655 S
C1651 H1641 0.929 . S
C1651 C1649 1.433 . S
C1651 N1654 1.384 . S
C1652 H1643 0.929 . S
C1652 C1644 1.378 . S
C1652 C1647 1.350 . S
C1653 H1640 0.929 . S
C1653 C1645 1.433 . S
C1653 N1655 1.384 . S
N1654 C1650 1.427 1_455 S
N1654 C1651 1.384 . S
N1655 C1647 1.427 . S
N1655 C1653 1.384 . S
C1015 C56 1.619 . S
C1019 C979 1.669 . S
C1033 C811 1.706 . S
C1037 C140 1.665 . S
C1051 C223 1.674 . S
C1055 C728 1.627 . S
C1069 C308 1.669 . S
C1073 C895 1.705 . S
C1087 C392 1.668 . S
C1091 C896 1.658 . S
C1105 C475 1.687 . S
C1109 C980 1.641 . S
C1123 C812 1.677 . S
C1127 C560 1.664 . S
C1141 C643 1.669 . S
C1145 C727 1.668 . S
C1159 C307 1.665 . S
C1163 C391 1.669 . S
C1177 C55 1.696 . S
C1181 C476 1.654 . S
C1195 C139 1.677 . S
C1199 C559 1.674 . S
C1213 C644 1.687 . S
C1217 C224 1.677 . S
C1231 C70 1.394 . S
C1235 C740 1.641 . S
C1249 C154 1.422 . S
C1253 C907 1.652 . S
C1267 C991 1.648 . S
C1271 C226 1.635 . S
C1285 C322 1.382 . S
C1289 C823 1.605 . S
C1303 C406 1.387 . S
C1307 C824 1.638 . S
C1321 C739 1.637 . S
C1325 C478 1.616 . S
C1339 C908 1.637 . S
C1343 C574 1.385 . S
C1357 C992 1.703 . S
C1361 C646 1.666 . S
C1375 C67 1.646 . S
C1379 C310 1.616 . S
C1393 C58 1.568 . S
C1397 C151 1.585 . S
C1411 C142 1.618 . S
C1415 C236 1.646 . S
C1429 C319 1.602 . S
C1433 C238 1.385 . S
C1447 C490 1.440 . S
C1451 C403 1.657 . S
C1465 C488 1.670 . S
C1469 C562 1.620 . S
C1483 C571 1.651 . S
C1487 C658 1.425 . S
C1501 C394 1.626 . S
C1505 C656 1.661 . S
C1519 C730 1.573 . S
C1523 C320 1.608 . S
C1537 C487 1.618 . S
C1541 C814 1.601 . S
C1555 C742 1.380 . S
C1559 C572 1.627 . S
C1573 C898 1.612 . S
C1577 C655 1.654 . S
C1591 C404 1.654 . S
C1595 C982 1.605 . S
C1609 C994 1.401 . S
C1613 C152 1.647 . S
C1627 C235 1.638 . S
C1631 C826 1.408 . S
C1645 C910 1.412 . S
C1649 C68 1.652 . S
