# Generated by pormake.
# Topology umh, (4)-cn, num edge types: 1
# Building blocks:
#     Node 0, Type 0, BuildingBlock: GALJAG_clean_sbu_0, # of connection points: 4
#     Node 1, Type 0, BuildingBlock: GALJAG_clean_sbu_0, # of connection points: 4
#     Node 2, Type 0, BuildingBlock: GALJAG_clean_sbu_0, # of connection points: 4
#     Node 3, Type 0, BuildingBlock: GALJAG_clean_sbu_0, # of connection points: 4
#     Node 4, Type 0, BuildingBlock: GALJAG_clean_sbu_0, # of connection points: 4
#     Node 5, Type 0, BuildingBlock: GALJAG_clean_sbu_0, # of connection points: 4
#     Node 6, Type 0, BuildingBlock: GALJAG_clean_sbu_0, # of connection points: 4
#     Node 7, Type 0, BuildingBlock: GALJAG_clean_sbu_0, # of connection points: 4
#     Node 8, Type 0, BuildingBlock: GALJAG_clean_sbu_0, # of connection points: 4
#     Node 9, Type 0, BuildingBlock: GALJAG_clean_sbu_0, # of connection points: 4
#     Node 10, Type 0, BuildingBlock: GALJAG_clean_sbu_0, # of connection points: 4
#     Node 11, Type 0, BuildingBlock: GALJAG_clean_sbu_0, # of connection points: 4
#     Node 12, Type 0, BuildingBlock: GALJAG_clean_sbu_0, # of connection points: 4
#     Node 13, Type 0, BuildingBlock: GALJAG_clean_sbu_0, # of connection points: 4
#     Node 14, Type 0, BuildingBlock: GALJAG_clean_sbu_0, # of connection points: 4
#     Node 15, Type 0, BuildingBlock: GALJAG_clean_sbu_0, # of connection points: 4
#     Edge 16, Type (0, 0), BuildingBlock: XIVTED_clean_linker_0, # of connection points: 2
#     Edge 17, Type (0, 0), BuildingBlock: XIVTED_clean_linker_0, # of connection points: 2
#     Edge 18, Type (0, 0), BuildingBlock: XIVTED_clean_linker_0, # of connection points: 2
#     Edge 19, Type (0, 0), BuildingBlock: XIVTED_clean_linker_0, # of connection points: 2
#     Edge 20, Type (0, 0), BuildingBlock: XIVTED_clean_linker_0, # of connection points: 2
#     Edge 21, Type (0, 0), BuildingBlock: XIVTED_clean_linker_0, # of connection points: 2
#     Edge 22, Type (0, 0), BuildingBlock: XIVTED_clean_linker_0, # of connection points: 2
#     Edge 23, Type (0, 0), BuildingBlock: XIVTED_clean_linker_0, # of connection points: 2
#     Edge 24, Type (0, 0), BuildingBlock: XIVTED_clean_linker_0, # of connection points: 2
#     Edge 25, Type (0, 0), BuildingBlock: XIVTED_clean_linker_0, # of connection points: 2
#     Edge 26, Type (0, 0), BuildingBlock: XIVTED_clean_linker_0, # of connection points: 2
#     Edge 27, Type (0, 0), BuildingBlock: XIVTED_clean_linker_0, # of connection points: 2
#     Edge 28, Type (0, 0), BuildingBlock: XIVTED_clean_linker_0, # of connection points: 2
#     Edge 29, Type (0, 0), BuildingBlock: XIVTED_clean_linker_0, # of connection points: 2
#     Edge 30, Type (0, 0), BuildingBlock: XIVTED_clean_linker_0, # of connection points: 2
#     Edge 31, Type (0, 0), BuildingBlock: XIVTED_clean_linker_0, # of connection points: 2
#     Edge 32, Type (0, 0), BuildingBlock: XIVTED_clean_linker_0, # of connection points: 2
#     Edge 33, Type (0, 0), BuildingBlock: XIVTED_clean_linker_0, # of connection points: 2
#     Edge 34, Type (0, 0), BuildingBlock: XIVTED_clean_linker_0, # of connection points: 2
#     Edge 35, Type (0, 0), BuildingBlock: XIVTED_clean_linker_0, # of connection points: 2
#     Edge 36, Type (0, 0), BuildingBlock: XIVTED_clean_linker_0, # of connection points: 2
#     Edge 37, Type (0, 0), BuildingBlock: XIVTED_clean_linker_0, # of connection points: 2
#     Edge 38, Type (0, 0), BuildingBlock: XIVTED_clean_linker_0, # of connection points: 2
#     Edge 39, Type (0, 0), BuildingBlock: XIVTED_clean_linker_0, # of connection points: 2
#     Edge 40, Type (0, 0), BuildingBlock: XIVTED_clean_linker_0, # of connection points: 2
#     Edge 41, Type (0, 0), BuildingBlock: XIVTED_clean_linker_0, # of connection points: 2
#     Edge 42, Type (0, 0), BuildingBlock: XIVTED_clean_linker_0, # of connection points: 2
#     Edge 43, Type (0, 0), BuildingBlock: XIVTED_clean_linker_0, # of connection points: 2
#     Edge 44, Type (0, 0), BuildingBlock: XIVTED_clean_linker_0, # of connection points: 2
#     Edge 45, Type (0, 0), BuildingBlock: XIVTED_clean_linker_0, # of connection points: 2
#     Edge 46, Type (0, 0), BuildingBlock: XIVTED_clean_linker_0, # of connection points: 2
#     Edge 47, Type (0, 0), BuildingBlock: XIVTED_clean_linker_0, # of connection points: 2
# Relax obj value: 0.114
# Max RMSD: 0.279
# Mean RMSD: 0.279
data_MOF--net-umh--node1-GALJAG_clean_sbu_0--edge1-XIVTED_clean_linker_0
_symmetry_space_group_name_H-M    P1
_symmetry_Int_Tables_number       1
_symmetry_cell_setting            triclinic
loop_
_symmetry_equiv_pos_as_xyz
'x, y, z'
_cell_length_a     40.802397
_cell_length_b     40.753722
_cell_length_c     52.543241
_cell_angle_alpha  89.769162
_cell_angle_beta   90.164766
_cell_angle_gamma 90.27204
loop_
_atom_site_label
_atom_site_type_symbol
_atom_site_fract_x
_atom_site_fract_y
_atom_site_fract_z
_atom_type_partial_charge
In0 In 0.34808 0.09863 0.14161 0.0
O1 O 0.3337 0.09337 0.09982 0.0
O2 O 0.37517 0.12343 0.10941 0.0
C3 C 0.31128 0.06962 0.17724 0.0
C4 C 0.39573 0.05482 0.14621 0.0
C5 C 0.32226 0.15623 0.15322 0.0
O6 O 0.30376 0.06796 0.15374 0.0
O7 O 0.33755 0.08504 0.18223 0.0
O8 O 0.35249 0.15074 0.15754 0.0
O9 O 0.30641 0.1332 0.14274 0.0
C10 C 0.35679 0.11195 0.09211 0.0
O11 O 0.3987 0.0832 0.15602 0.0
O12 O 0.36939 0.04966 0.13403 0.0
In13 In 0.39851 0.34664 0.64188 0.0
O14 O 0.3854 0.39193 0.6651 0.0
O15 O 0.42591 0.3944 0.63924 0.0
C16 C 0.35207 0.30077 0.64872 0.0
C17 C 0.39058 0.35848 0.59182 0.0
C18 C 0.44293 0.31987 0.67381 0.0
O19 O 0.34847 0.32973 0.65696 0.0
O20 O 0.37842 0.29572 0.63693 0.0
O21 O 0.4433 0.31363 0.65018 0.0
O22 O 0.42132 0.33996 0.68056 0.0
C23 C 0.40863 0.40878 0.65569 0.0
O24 O 0.41634 0.34515 0.6006 0.0
O25 O 0.36918 0.36544 0.60828 0.0
In26 In 0.15171 0.41023 0.13776 0.0
O27 O 0.10528 0.40096 0.16084 0.0
O28 O 0.10512 0.4392 0.13283 0.0
C29 C 0.18801 0.35727 0.14907 0.0
C30 C 0.14476 0.40553 0.08682 0.0
C31 C 0.18263 0.45293 0.16904 0.0
O32 O 0.15739 0.35777 0.15276 0.0
O33 O 0.19979 0.38304 0.13935 0.0
O34 O 0.1918 0.44889 0.14626 0.0
O35 O 0.15728 0.43706 0.17509 0.0
C36 C 0.08961 0.42377 0.14992 0.0
O37 O 0.1578 0.43044 0.09718 0.0
O38 O 0.13589 0.38326 0.10212 0.0
In39 In 0.10186 0.13847 0.63784 0.0
O40 O 0.09144 0.15549 0.59713 0.0
O41 O 0.11115 0.10753 0.60284 0.0
C42 C 0.08093 0.18512 0.67003 0.0
C43 C 0.05805 0.09238 0.65032 0.0
C44 C 0.16594 0.14897 0.64514 0.0
O45 O 0.07945 0.18916 0.6461 0.0
O46 O 0.09273 0.15807 0.67715 0.0
O47 O 0.15069 0.12754 0.65803 0.0
O48 O 0.14916 0.164 0.62873 0.0
C49 C 0.10164 0.12914 0.58718 0.0
O50 O 0.08854 0.0873 0.65279 0.0
O51 O 0.05038 0.12 0.64111 0.0
In52 In 0.34117 0.39645 0.35417 0.0
O53 O 0.39252 0.37863 0.3437 0.0
O54 O 0.38456 0.43005 0.34946 0.0
C55 C 0.29577 0.34939 0.34714 0.0
C56 C 0.35032 0.39313 0.40488 0.0
C57 C 0.31679 0.43565 0.31769 0.0
O58 O 0.32452 0.3468 0.33826 0.0
O59 O 0.29064 0.37505 0.35988 0.0
O60 O 0.31066 0.44075 0.34105 0.0
O61 O 0.33529 0.41156 0.3133 0.0
C62 C 0.40448 0.40741 0.34423 0.0
O63 O 0.33558 0.41729 0.39473 0.0
O64 O 0.35945 0.37128 0.38954 0.0
In65 In 0.11291 0.37852 0.84661 0.0
O66 O 0.13381 0.39918 0.88285 0.0
O67 O 0.09326 0.36627 0.88669 0.0
C68 C 0.08261 0.34559 0.80927 0.0
C69 C 0.08874 0.43788 0.8365 0.0
C70 C 0.16754 0.34366 0.84026 0.0
O71 O 0.07604 0.34015 0.83255 0.0
O72 O 0.10329 0.36823 0.80523 0.0
O73 O 0.14197 0.3324 0.85062 0.0
O74 O 0.1662 0.37357 0.8335 0.0
C75 C 0.11424 0.38455 0.89764 0.0
O76 O 0.11936 0.43273 0.83632 0.0
O77 O 0.07089 0.41327 0.84148 0.0
In78 In 0.11606 0.10738 0.34806 0.0
O79 O 0.1361 0.12642 0.38564 0.0
O80 O 0.11587 0.07858 0.38613 0.0
C81 C 0.15485 0.07108 0.3179 0.0
C82 C 0.05253 0.08971 0.34052 0.0
C83 C 0.13433 0.16806 0.33171 0.0
O84 O 0.16198 0.07622 0.34107 0.0
O85 O 0.12793 0.08319 0.31067 0.0
O86 O 0.14677 0.14192 0.32383 0.0
O87 O 0.11063 0.16389 0.34679 0.0
C88 C 0.12805 0.1019 0.39882 0.0
O89 O 0.06028 0.11651 0.3509 0.0
O90 O 0.07647 0.07277 0.3335 0.0
In91 In 0.41074 0.15846 0.85687 0.0
O92 O 0.40356 0.10487 0.84487 0.0
O93 O 0.44452 0.118 0.86843 0.0
C94 C 0.3596 0.19507 0.84278 0.0
C95 C 0.39909 0.15928 0.90723 0.0
C96 C 0.45151 0.18357 0.82161 0.0
O97 O 0.35937 0.16414 0.83994 0.0
O98 O 0.38532 0.20684 0.85263 0.0
O99 O 0.45167 0.19382 0.84439 0.0
O100 O 0.43227 0.15982 0.81739 0.0
C101 C 0.4285 0.09554 0.85739 0.0
O102 O 0.42522 0.17151 0.89801 0.0
O103 O 0.37922 0.14791 0.89099 0.0
In104 In 0.61127 0.86869 0.88449 0.0
O105 O 0.55929 0.87098 0.86781 0.0
O106 O 0.57431 0.90578 0.89614 0.0
C107 C 0.64718 0.81778 0.86963 0.0
C108 C 0.60941 0.85356 0.93424 0.0
C109 C 0.64021 0.91014 0.85171 0.0
O110 O 0.6161 0.81679 0.86796 0.0
O111 O 0.65909 0.84376 0.87887 0.0
O112 O 0.64864 0.90907 0.87501 0.0
O113 O 0.61668 0.89143 0.84568 0.0
C114 C 0.55203 0.89567 0.88133 0.0
O115 O 0.62558 0.87807 0.92593 0.0
O116 O 0.59469 0.83693 0.9174 0.0
In117 In 0.60519 0.60102 0.39013 0.0
O118 O 0.58643 0.60854 0.43067 0.0
O119 O 0.63224 0.58424 0.42553 0.0
C120 C 0.5637 0.62764 0.35599 0.0
C121 C 0.58942 0.53872 0.37955 0.0
C122 C 0.65407 0.64398 0.38156 0.0
O123 O 0.5617 0.63433 0.37951 0.0
O124 O 0.58558 0.60718 0.35035 0.0
O125 O 0.65788 0.6135 0.37774 0.0
O126 O 0.62633 0.65195 0.38999 0.0
C127 C 0.61085 0.59447 0.44093 0.0
O128 O 0.61393 0.55261 0.3692 0.0
O129 O 0.57387 0.55602 0.39529 0.0
In130 In 0.8567 0.59492 0.88664 0.0
O131 O 0.85478 0.57657 0.9279 0.0
O132 O 0.87152 0.62543 0.92085 0.0
C133 C 0.82916 0.54783 0.85744 0.0
C134 C 0.91943 0.58755 0.873 0.0
C135 C 0.81215 0.64135 0.87595 0.0
O136 O 0.82269 0.55019 0.88092 0.0
O137 O 0.85056 0.56774 0.84953 0.0
O138 O 0.84224 0.64544 0.87093 0.0
O139 O 0.80519 0.61458 0.88675 0.0
C140 C 0.86571 0.60321 0.93707 0.0
O141 O 0.90115 0.60858 0.86235 0.0
O142 O 0.90611 0.57079 0.89044 0.0
In143 In 0.87624 0.86032 0.38181 0.0
O144 O 0.89261 0.85306 0.42316 0.0
O145 O 0.84615 0.8753 0.41575 0.0
C146 C 0.91942 0.8342 0.3492 0.0
C147 C 0.8907 0.92344 0.37269 0.0
C148 C 0.82852 0.81624 0.3729 0.0
O149 O 0.92081 0.8281 0.37289 0.0
O150 O 0.89732 0.8541 0.3426 0.0
O151 O 0.82421 0.84658 0.36848 0.0
O152 O 0.85638 0.80889 0.3816 0.0
C153 C 0.86675 0.86574 0.43216 0.0
O154 O 0.86724 0.9092 0.36121 0.0
O155 O 0.90614 0.90595 0.38856 0.0
In156 In 0.64581 0.5686 0.68125 0.0
O157 O 0.65658 0.54643 0.6416 0.0
O158 O 0.62689 0.58904 0.64414 0.0
C159 C 0.67922 0.535 0.71699 0.0
C160 C 0.58426 0.55018 0.69191 0.0
C161 C 0.67831 0.62513 0.68881 0.0
O162 O 0.68518 0.53154 0.69347 0.0
O163 O 0.65604 0.55434 0.72201 0.0
O164 O 0.64887 0.62126 0.69573 0.0
O165 O 0.69093 0.60071 0.678 0.0
C166 C 0.63986 0.56796 0.62996 0.0
O167 O 0.59274 0.58006 0.69125 0.0
O168 O 0.60682 0.52985 0.68753 0.0
In169 In 0.90647 0.648 0.17487 0.0
O170 O 0.90105 0.59396 0.18552 0.0
O171 O 0.94915 0.61341 0.179 0.0
C172 C 0.84884 0.67636 0.18491 0.0
C173 C 0.90314 0.64136 0.1238 0.0
C174 C 0.93939 0.68397 0.20931 0.0
O175 O 0.85485 0.64712 0.19163 0.0
O176 O 0.87161 0.69065 0.17298 0.0
O177 O 0.94069 0.69062 0.18571 0.0
O178 O 0.92264 0.65886 0.21499 0.0
C179 C 0.93157 0.58878 0.18449 0.0
O180 O 0.92416 0.6602 0.13405 0.0
O181 O 0.88443 0.62681 0.13922 0.0
In182 In 0.82169 0.89746 0.67046 0.0
O183 O 0.80649 0.90996 0.6294 0.0
O184 O 0.84534 0.87589 0.6358 0.0
C185 C 0.78621 0.92612 0.70686 0.0
C186 C 0.87478 0.93474 0.67666 0.0
C187 C 0.79695 0.83829 0.68084 0.0
O188 O 0.77791 0.92793 0.68355 0.0
O189 O 0.81246 0.9107 0.71128 0.0
O190 O 0.82678 0.84496 0.6856 0.0
O191 O 0.78064 0.86109 0.67062 0.0
C192 C 0.82795 0.89122 0.61983 0.0
O193 O 0.87524 0.9044 0.68228 0.0
O194 O 0.8478 0.94551 0.66825 0.0
In195 In 0.57039 0.80165 0.17096 0.0
O196 O 0.55943 0.78489 0.12996 0.0
O197 O 0.59592 0.82172 0.13634 0.0
C198 C 0.53972 0.76663 0.20718 0.0
C199 C 0.53479 0.85633 0.17283 0.0
C200 C 0.62923 0.77888 0.18413 0.0
O201 O 0.53977 0.75749 0.18409 0.0
O202 O 0.55383 0.79377 0.21139 0.0
O203 O 0.622 0.80888 0.1872 0.0
O204 O 0.60704 0.76127 0.17434 0.0
C205 C 0.5803 0.80458 0.12039 0.0
O206 O 0.56391 0.85568 0.18138 0.0
O207 O 0.52406 0.82941 0.16418 0.0
H208 H 0.4386 0.17696 0.94766 0.0
H209 H 0.319 0.0945 0.05105 0.0
H210 H 0.34481 0.13337 0.92969 0.0
H211 H 0.4069 0.14772 0.07123 0.0
H212 H 0.32869 0.10815 1.0063 0.0
H213 H 0.42796 0.16673 0.99303 0.0
C214 C 0.4157 0.16551 0.95326 0.0
C215 C 0.39261 0.15596 0.93486 0.0
C216 C 0.34585 0.11692 0.02051 0.0
C217 C 0.38039 0.14388 0.98657 0.0
C218 C 0.34033 0.10904 0.04606 0.0
C219 C 0.36217 0.11993 0.0649 0.0
C220 C 0.37352 0.1357 0.01367 0.0
C221 C 0.38941 0.13879 0.05733 0.0
C222 C 0.40965 0.15959 0.97912 0.0
C223 C 0.36338 0.1411 0.94318 0.0
N224 N 0.39437 0.14599 0.03232 0.0
N225 N 0.35821 0.1354 0.96833 0.0
H226 H 0.39235 0.35074 0.42774 0.0
H227 H 0.34185 0.39484 0.56996 0.0
H228 H 0.32436 0.42828 0.44486 0.0
H229 H 0.42762 0.33842 0.55129 0.0
H230 H 0.33283 0.40542 0.52458 0.0
H231 H 0.40327 0.34391 0.47304 0.0
C232 C 0.37968 0.36639 0.44107 0.0
C233 C 0.35728 0.39007 0.43249 0.0
C234 C 0.3537 0.39086 0.53041 0.0
C235 C 0.36965 0.38219 0.48465 0.0
C236 C 0.35882 0.38469 0.55631 0.0
C237 C 0.3855 0.3656 0.56442 0.0
C238 C 0.37516 0.37751 0.51243 0.0
C239 C 0.40675 0.35323 0.5459 0.0
C240 C 0.38605 0.36253 0.46697 0.0
C241 C 0.3418 0.40975 0.45066 0.0
N242 N 0.40099 0.35922 0.52078 0.0
N243 N 0.34809 0.4052 0.47595 0.0
H244 H 0.15106 0.42937 0.92325 0.0
H245 H 0.11192 0.35699 0.06151 0.0
H246 H 0.08346 0.3492 0.93567 0.0
H247 H 0.16491 0.44742 0.04883 0.0
H248 H 0.10268 0.3524 0.01565 0.0
H249 H 0.15757 0.43514 0.96912 0.0
C250 C 0.13747 0.41298 0.93566 0.0
C251 C 0.11672 0.38868 0.92558 0.0
C252 C 0.11627 0.37328 0.02288 0.0
C253 C 0.12427 0.39509 0.97837 0.0
C254 C 0.12167 0.37589 0.04906 0.0
C255 C 0.13932 0.40262 0.05902 0.0
C256 C 0.1288 0.39745 1.00643 0.0
C257 C 0.15123 0.42639 0.04199 0.0
C258 C 0.14119 0.41635 0.9619 0.0
C259 C 0.09968 0.36827 0.94263 0.0
N260 N 0.14586 0.42318 0.01654 0.0
N261 N 0.10399 0.37181 0.96821 0.0
H262 H 0.09935 0.17595 0.5498 0.0
H263 H 0.11257 0.0527 0.43293 0.0
H264 H 0.11069 0.07175 0.56134 0.0
H265 H 0.14245 0.15429 0.42879 0.0
H266 H 0.10606 0.05843 0.47924 0.0
H267 H 0.10782 0.16805 0.5041 0.0
C268 C 0.10333 0.15138 0.54268 0.0
C269 C 0.10436 0.12448 0.55936 0.0
C270 C 0.11434 0.07931 0.46814 0.0
C271 C 0.11405 0.11524 0.50715 0.0
C272 C 0.11817 0.07603 0.44178 0.0
C273 C 0.12812 0.10303 0.42699 0.0
C274 C 0.11989 0.10996 0.47961 0.0
C275 C 0.13481 0.13278 0.43942 0.0
C276 C 0.10841 0.14691 0.51665 0.0
C277 C 0.10981 0.09317 0.54911 0.0
N278 N 0.13023 0.13553 0.46491 0.0
N279 N 0.11431 0.08937 0.52364 0.0
H280 H 0.54934 0.7733 0.08046 0.0
H281 H 0.63981 0.88351 0.97462 0.0
H282 H 0.62329 0.84616 0.09725 0.0
H283 H 0.5731 0.8046 0.9562 0.0
H284 H 0.63386 0.86993 0.01978 0.0
H285 H 0.55749 0.78388 0.03483 0.0
C286 C 0.56737 0.79135 0.07456 0.0
C287 C 0.58559 0.8089 0.09269 0.0
C288 C 0.62058 0.85549 1.00587 0.0
C289 C 0.59493 0.8213 0.04067 0.0
C290 C 0.62399 0.86328 0.98008 0.0
C291 C 0.60692 0.84521 0.96162 0.0
C292 C 0.59982 0.82953 0.01332 0.0
C293 C 0.58673 0.81921 0.9698 0.0
C294 C 0.57201 0.79742 0.04854 0.0
C295 C 0.60863 0.83207 0.08398 0.0
N296 N 0.58365 0.81222 0.99502 0.0
N297 N 0.61252 0.83765 0.05868 0.0
H298 H 0.6716 0.53259 0.59274 0.0
H299 H 0.57146 0.61819 0.47875 0.0
H300 H 0.59766 0.60656 0.60346 0.0
H301 H 0.65776 0.55961 0.46653 0.0
H302 H 0.57781 0.60999 0.52467 0.0
H303 H 0.66404 0.5378 0.54641 0.0
C304 C 0.65372 0.54977 0.58537 0.0
C305 C 0.63535 0.56925 0.60197 0.0
C306 C 0.59538 0.59891 0.51195 0.0
C307 C 0.62648 0.57529 0.5492 0.0
C308 C 0.59173 0.60359 0.48573 0.0
C309 C 0.61418 0.5897 0.46879 0.0
C310 C 0.62156 0.58002 0.52135 0.0
C311 C 0.63995 0.57091 0.47892 0.0
C312 C 0.64947 0.55282 0.55897 0.0
C313 C 0.61251 0.59116 0.5914 0.0
N314 N 0.64293 0.56659 0.50451 0.0
N315 N 0.60874 0.59355 0.56579 0.0
H316 H 0.85017 0.56212 0.97671 0.0
H317 H 0.93208 0.67568 0.0843 0.0
H318 H 0.89591 0.65538 0.96002 0.0
H319 H 0.8669 0.59449 0.10011 0.0
H320 H 0.92409 0.66612 0.03846 0.0
H321 H 0.86096 0.57101 0.02202 0.0
C322 C 0.86249 0.58445 0.98258 0.0
C323 C 0.872 0.60809 0.96458 0.0
C324 C 0.9116 0.65042 0.05203 0.0
C325 C 0.88467 0.6184 0.01641 0.0
C326 C 0.91624 0.65582 0.07814 0.0
C327 C 0.90003 0.63597 0.09603 0.0
C328 C 0.89091 0.62478 0.04385 0.0
C329 C 0.87976 0.61056 0.08702 0.0
C330 C 0.86864 0.58956 1.00845 0.0
C331 C 0.88799 0.63657 0.97328 0.0
N332 N 0.87583 0.60569 0.06165 0.0
N333 N 0.89387 0.64092 0.99855 0.0
H334 H 0.81508 0.89598 0.45493 0.0
H335 H 0.87551 0.85577 0.59657 0.0
H336 H 0.90471 0.84461 0.4722 0.0
H337 H 0.7929 0.91813 0.58004 0.0
H338 H 0.88508 0.84965 0.55109 0.0
H339 H 0.80522 0.90257 0.50046 0.0
C340 C 0.83271 0.88605 0.46832 0.0
C341 C 0.86079 0.86968 0.45975 0.0
C342 C 0.86486 0.8647 0.55734 0.0
C343 C 0.84956 0.87713 0.51198 0.0
C344 C 0.8593 0.86818 0.58334 0.0
C345 C 0.8333 0.8875 0.59214 0.0
C346 C 0.84421 0.88053 0.53983 0.0
C347 C 0.8132 0.90301 0.57409 0.0
C348 C 0.82706 0.88989 0.49432 0.0
C349 C 0.88277 0.85739 0.47796 0.0
N350 N 0.81905 0.89914 0.54876 0.0
N351 N 0.87665 0.86131 0.50321 0.0
H352 H 0.16886 0.29742 0.16767 0.0
H353 H 0.34792 0.21876 0.15631 0.0
H354 H 0.25439 0.35249 0.14448 0.0
H355 H 0.25826 0.16322 0.16426 0.0
H356 H 0.31619 0.26972 0.16052 0.0
H357 H 0.20355 0.2495 0.1749 0.0
C358 C 0.19496 0.29945 0.16424 0.0
C359 C 0.20872 0.32873 0.15511 0.0
C360 C 0.30362 0.2463 0.16166 0.0
C361 C 0.24856 0.27417 0.16333 0.0
C362 C 0.32172 0.21735 0.15941 0.0
C363 C 0.30552 0.18698 0.15958 0.0
C364 C 0.26933 0.24452 0.16436 0.0
C365 C 0.27157 0.18627 0.1636 0.0
C366 C 0.21477 0.27214 0.16838 0.0
C367 C 0.24275 0.33018 0.15122 0.0
N368 N 0.25459 0.21459 0.16566 0.0
N369 N 0.26151 0.30318 0.15517 0.0
H370 H 0.298 0.29988 0.67982 0.0
H371 H 0.21707 0.14916 0.61271 0.0
H372 H 0.3509 0.24146 0.62544 0.0
H373 H 0.18897 0.17611 0.68871 0.0
H374 H 0.26694 0.18221 0.61715 0.0
H375 H 0.25714 0.25561 0.6835 0.0
C376 C 0.30104 0.27774 0.66876 0.0
C377 C 0.32759 0.27442 0.65211 0.0
C378 C 0.25038 0.18021 0.63316 0.0
C379 C 0.2813 0.22402 0.65618 0.0
C380 C 0.22215 0.16116 0.63067 0.0
C381 C 0.19947 0.15966 0.65054 0.0
C382 C 0.25517 0.19882 0.65531 0.0
C383 C 0.20641 0.1763 0.67321 0.0
C384 C 0.27796 0.25242 0.67103 0.0
C385 C 0.33065 0.24513 0.63838 0.0
N386 N 0.23341 0.1959 0.67483 0.0
N387 N 0.30756 0.22125 0.64047 0.0
H388 H 0.23425 0.34849 0.36732 0.0
H389 H 0.18236 0.18216 0.29756 0.0
H390 H 0.29712 0.29524 0.31628 0.0
H391 H 0.12611 0.2255 0.35805 0.0
H392 H 0.21964 0.22911 0.29858 0.0
H393 H 0.19065 0.30845 0.35954 0.0
C394 C 0.23889 0.32835 0.35445 0.0
C395 C 0.26948 0.32501 0.34258 0.0
C396 C 0.1989 0.22863 0.3114 0.0
C397 C 0.21948 0.27928 0.3334 0.0
C398 C 0.17742 0.20196 0.31068 0.0
C399 C 0.15127 0.1998 0.32792 0.0
C400 C 0.19431 0.25333 0.32955 0.0
C401 C 0.14599 0.22618 0.34445 0.0
C402 C 0.21392 0.30557 0.34998 0.0
C403 C 0.27402 0.29858 0.32599 0.0
N404 N 0.16763 0.2517 0.3451 0.0
N405 N 0.2493 0.27669 0.32193 0.0
H406 H 0.29621 0.17674 0.83255 0.0
H407 H 0.23053 0.36183 0.82786 0.0
H408 H 0.35922 0.26163 0.8392 0.0
H409 H 0.16948 0.27728 0.84307 0.0
H410 H 0.27787 0.32522 0.8235 0.0
H411 H 0.2491 0.21332 0.82742 0.0
C412 C 0.30015 0.20304 0.83259 0.0
C413 C 0.33148 0.21623 0.83661 0.0
C414 C 0.25402 0.31477 0.82764 0.0
C415 C 0.27801 0.25808 0.83081 0.0
C416 C 0.22709 0.33561 0.8301 0.0
C417 C 0.19625 0.32255 0.83615 0.0
C418 C 0.2498 0.28074 0.83096 0.0
C419 C 0.19297 0.2884 0.83874 0.0
C420 C 0.27331 0.22389 0.82978 0.0
C421 C 0.33534 0.25049 0.83646 0.0
N422 N 0.21942 0.26869 0.83619 0.0
N423 N 0.30887 0.27026 0.83377 0.0
H424 H 0.71028 0.82249 0.85469 0.0
H425 H 0.74611 0.63413 0.88096 0.0
H426 H 0.6339 0.75155 0.8696 0.0
H427 H 0.81998 0.70367 0.85695 0.0
H428 H 0.704 0.67531 0.87319 0.0
H429 H 0.74968 0.77812 0.85089 0.0
C430 C 0.70175 0.7974 0.8568 0.0
C431 C 0.66894 0.79056 0.86275 0.0
C432 C 0.72935 0.68151 0.86939 0.0
C433 C 0.71405 0.73962 0.85892 0.0
C434 C 0.75346 0.65808 0.87394 0.0
C435 C 0.78664 0.6657 0.86991 0.0
C436 C 0.7385 0.71292 0.86093 0.0
C437 C 0.79472 0.69691 0.86052 0.0
C438 C 0.72427 0.77207 0.85465 0.0
C439 C 0.65905 0.75774 0.86504 0.0
N440 N 0.77082 0.71951 0.85659 0.0
N441 N 0.6817 0.7334 0.86354 0.0
H442 H 0.64625 0.71012 0.38041 0.0
H443 H 0.83689 0.75014 0.37247 0.0
H444 H 0.71965 0.63519 0.3715 0.0
H445 H 0.76221 0.82431 0.36586 0.0
H446 H 0.79454 0.70775 0.37113 0.0
H447 H 0.68827 0.75209 0.37442 0.0
C448 C 0.67127 0.70248 0.37712 0.0
C449 C 0.67955 0.66908 0.37666 0.0
C450 C 0.78736 0.73324 0.36973 0.0
C451 C 0.7279 0.7172 0.36983 0.0
C452 C 0.81152 0.75751 0.37053 0.0
C453 C 0.80299 0.79082 0.36947 0.0
C454 C 0.75431 0.7423 0.36815 0.0
C455 C 0.76982 0.79892 0.36678 0.0
C456 C 0.69523 0.72651 0.37359 0.0
C457 C 0.71227 0.66065 0.37209 0.0
N458 N 0.74661 0.7748 0.3665 0.0
N459 N 0.73535 0.6846 0.36908 0.0
H460 H 0.82634 0.77855 0.68899 0.0
H461 H 0.65451 0.68454 0.70384 0.0
H462 H 0.73209 0.82599 0.68584 0.0
H463 H 0.74365 0.63591 0.68165 0.0
H464 H 0.68481 0.73641 0.70629 0.0
H465 H 0.79826 0.72552 0.6951 0.0
C466 C 0.79983 0.7778 0.68986 0.0
C467 C 0.78143 0.80647 0.68664 0.0
C468 C 0.69776 0.71432 0.70104 0.0
C469 C 0.7494 0.74652 0.69378 0.0
C470 C 0.6805 0.68476 0.6997 0.0
C471 C 0.69655 0.65607 0.69225 0.0
C472 C 0.73131 0.71507 0.69509 0.0
C473 C 0.7303 0.65762 0.6872 0.0
C474 C 0.78385 0.74766 0.69325 0.0
C475 C 0.74715 0.80434 0.68793 0.0
N476 N 0.74658 0.6867 0.68861 0.0
N477 N 0.73225 0.77488 0.69135 0.0
H478 H 0.8349 0.74122 0.17923 0.0
H479 H 0.64354 0.71482 0.19209 0.0
H480 H 0.79155 0.64891 0.20198 0.0
H481 H 0.68801 0.81104 0.19007 0.0
H482 H 0.69761 0.69054 0.1973 0.0
H483 H 0.78179 0.76767 0.18438 0.0
C484 C 0.8142 0.72656 0.18547 0.0
C485 C 0.81745 0.69276 0.18992 0.0
C486 C 0.69561 0.71698 0.19605 0.0
C487 C 0.75665 0.72284 0.19575 0.0
C488 C 0.66476 0.73086 0.19299 0.0
C489 C 0.66146 0.76494 0.19039 0.0
C490 C 0.72345 0.73729 0.19606 0.0
C491 C 0.68962 0.78463 0.19194 0.0
C492 C 0.78394 0.74171 0.18853 0.0
C493 C 0.78999 0.67499 0.19821 0.0
N494 N 0.7196 0.77046 0.1943 0.0
N495 N 0.76059 0.69019 0.20057 0.0
H496 H 0.22077 0.06019 0.32394 0.0
H497 H 0.24773 0.04754 0.17367 0.0
H498 H 0.1423 0.05259 0.26906 0.0
H499 H 0.32519 0.06578 0.22793 0.0
H500 H 0.20997 0.03737 0.20905 0.0
H501 H 0.26028 0.04994 0.28989 0.0
C502 C 0.21181 0.05556 0.30487 0.0
C503 C 0.17826 0.05764 0.29925 0.0
C504 C 0.23536 0.04312 0.21321 0.0
C505 C 0.22324 0.0464 0.26016 0.0
C506 C 0.25693 0.0488 0.193 0.0
C507 C 0.28951 0.05793 0.19788 0.0
C508 C 0.24649 0.04662 0.23843 0.0
C509 C 0.30015 0.05919 0.2233 0.0
C510 C 0.23437 0.04993 0.28538 0.0
C511 C 0.168 0.05156 0.27417 0.0
N512 N 0.27863 0.05399 0.24261 0.0
N513 N 0.1904 0.04664 0.25551 0.0
H514 H 0.46214 0.34155 0.72027 0.0
H515 H 0.46252 0.16133 0.77353 0.0
H516 H 0.4648 0.25638 0.67201 0.0
H517 H 0.47502 0.24672 0.82082 0.0
H518 H 0.47461 0.19481 0.73604 0.0
H519 H 0.47837 0.30756 0.75646 0.0
C520 C 0.46708 0.31577 0.71718 0.0
C521 C 0.46183 0.30164 0.69321 0.0
C522 C 0.47549 0.20616 0.75463 0.0
C523 C 0.47939 0.26226 0.73475 0.0
C524 C 0.46864 0.18701 0.77608 0.0
C525 C 0.46729 0.20139 0.80029 0.0
C526 C 0.48044 0.24009 0.75733 0.0
C527 C 0.47561 0.23468 0.8025 0.0
C528 C 0.47623 0.29631 0.73789 0.0
C529 C 0.46859 0.26819 0.6902 0.0
N530 N 0.48113 0.25307 0.78124 0.0
N531 N 0.47627 0.24945 0.71088 0.0
H532 H 0.16331 0.47444 0.2156 0.0
H533 H 0.33991 0.44304 0.26963 0.0
H534 H 0.24876 0.46494 0.16818 0.0
H535 H 0.25796 0.46819 0.31721 0.0
H536 H 0.30932 0.46162 0.23237 0.0
H537 H 0.19884 0.48357 0.25239 0.0
C538 C 0.18961 0.47525 0.21281 0.0
C539 C 0.20315 0.46845 0.18889 0.0
C540 C 0.29815 0.46377 0.25096 0.0
C541 C 0.24403 0.47797 0.23107 0.0
C542 C 0.31564 0.45315 0.27226 0.0
C543 C 0.30123 0.45369 0.29646 0.0
C544 C 0.26566 0.47435 0.25376 0.0
C545 C 0.26988 0.46725 0.29885 0.0
C546 C 0.20991 0.48033 0.23387 0.0
C547 C 0.23731 0.46993 0.18631 0.0
N548 N 0.25283 0.47638 0.27767 0.0
N549 N 0.25661 0.47376 0.20727 0.0
H550 H 0.07281 0.25151 0.6628 0.0
H551 H 0.05384 0.28476 0.81235 0.0
H552 H 0.0675 0.17558 0.72009 0.0
H553 H 0.08551 0.35825 0.75834 0.0
H554 H 0.04476 0.24655 0.77708 0.0
H555 H 0.06406 0.29275 0.69611 0.0
C556 C 0.06925 0.24352 0.68229 0.0
C557 C 0.07129 0.21019 0.68879 0.0
C558 C 0.05321 0.27123 0.77294 0.0
C559 C 0.0612 0.25693 0.72681 0.0
C560 C 0.05817 0.29308 0.79305 0.0
C561 C 0.07081 0.32455 0.78827 0.0
C562 C 0.06077 0.28102 0.74792 0.0
C563 C 0.07609 0.33405 0.76288 0.0
C564 C 0.06438 0.267 0.70128 0.0
C565 C 0.06653 0.20109 0.71431 0.0
N566 N 0.07136 0.31228 0.74367 0.0
N567 N 0.06192 0.22431 0.73239 0.0
H568 H 0.62079 0.92539 0.80352 0.0
H569 H 0.80402 0.93551 0.75625 0.0
H570 H 0.70364 0.93244 0.85437 0.0
H571 H 0.72082 0.94167 0.70568 0.0
H572 H 0.7677 0.94364 0.79246 0.0
H573 H 0.65616 0.94087 0.76802 0.0
C574 C 0.64634 0.93095 0.80729 0.0
C575 C 0.65943 0.92723 0.83186 0.0
C576 C 0.75736 0.94382 0.77345 0.0
C577 C 0.70027 0.94427 0.79118 0.0
C578 C 0.77811 0.93917 0.75275 0.0
C579 C 0.76532 0.93747 0.72797 0.0
C580 C 0.72343 0.94627 0.76942 0.0
C581 C 0.73165 0.94265 0.7245 0.0
C582 C 0.66656 0.93972 0.78698 0.0
C583 C 0.6926 0.93491 0.8357 0.0
N584 N 0.71176 0.94621 0.74505 0.0
N585 N 0.71204 0.94243 0.81548 0.0
H586 H 0.5347 0.68823 0.35829 0.0
H587 H 0.52617 0.70062 0.20647 0.0
H588 H 0.55295 0.60766 0.30738 0.0
H589 H 0.52948 0.78421 0.25652 0.0
H590 H 0.52021 0.66462 0.24368 0.0
H591 H 0.51702 0.72155 0.32175 0.0
C592 C 0.53411 0.67728 0.33954 0.0
C593 C 0.54568 0.64534 0.33576 0.0
C594 C 0.52161 0.69091 0.24647 0.0
C595 C 0.52588 0.68322 0.29397 0.0
C596 C 0.52482 0.71146 0.22522 0.0
C597 C 0.52879 0.74538 0.22846 0.0
C598 C 0.52231 0.70443 0.27107 0.0
C599 C 0.52692 0.75812 0.25321 0.0
C600 C 0.52426 0.69634 0.31867 0.0
C601 C 0.54458 0.63237 0.31106 0.0
N602 N 0.52423 0.73763 0.27357 0.0
N603 N 0.53529 0.65145 0.29108 0.0
H604 H 0.76682 0.52395 0.8639 0.0
H605 H 0.74184 0.51115 0.7135 0.0
H606 H 0.84511 0.53017 0.80912 0.0
H607 H 0.66432 0.52892 0.76727 0.0
H608 H 0.77938 0.5006 0.74915 0.0
H609 H 0.72919 0.50776 0.82968 0.0
C610 C 0.77633 0.52084 0.84484 0.0
C611 C 0.80898 0.52887 0.83924 0.0
C612 C 0.75397 0.50613 0.75311 0.0
C613 C 0.7661 0.5109 0.80001 0.0
C614 C 0.73252 0.51198 0.73277 0.0
C615 C 0.7001 0.52142 0.73749 0.0
C616 C 0.74279 0.5096 0.77826 0.0
C617 C 0.68929 0.52219 0.76282 0.0
C618 C 0.75479 0.51189 0.82527 0.0
C619 C 0.81998 0.5246 0.81418 0.0
N620 N 0.71066 0.5168 0.78225 0.0
N621 N 0.79849 0.51642 0.79542 0.0
H622 H 0.93149 0.85242 0.30025 0.0
H623 H 0.95181 0.66872 0.25886 0.0
H624 H 0.94809 0.77374 0.35378 0.0
H625 H 0.95438 0.7495 0.20565 0.0
H626 H 0.95992 0.70723 0.29379 0.0
H627 H 0.94926 0.81679 0.26577 0.0
C628 C 0.93966 0.82782 0.30481 0.0
C629 C 0.93794 0.81584 0.32984 0.0
C630 C 0.95943 0.71658 0.27447 0.0
C631 C 0.95757 0.77458 0.29035 0.0
C632 C 0.95482 0.69456 0.2545 0.0
C633 C 0.95199 0.70602 0.22937 0.0
C634 C 0.96056 0.75041 0.26935 0.0
C635 C 0.95628 0.73968 0.22477 0.0
C636 C 0.94976 0.80744 0.28509 0.0
C637 C 0.94896 0.78388 0.33471 0.0
N638 N 0.95965 0.76079 0.24463 0.0
N639 N 0.95762 0.7641 0.31506 0.0
H640 H 0.45217 0.05405 0.17559 0.0
H641 H 0.47261 0.86136 0.15533 0.0
H642 H 0.39334 -0.00549 0.12512 0.0
H643 H 0.55161 0.91964 0.18648 0.0
H644 H 0.44072 0.91075 0.14923 0.0
H645 H 0.48766 0.0062 0.18355 0.0
C646 C 0.44692 0.03111 0.16604 0.0
C647 C 0.41967 0.02816 0.1498 0.0
C648 C 0.46502 0.91293 0.1574 0.0
C649 C 0.45949 0.97375 0.15904 0.0
C650 C 0.48323 0.88463 0.16102 0.0
C651 C 0.5149 0.88641 0.17128 0.0
C652 C 0.47839 0.94349 0.1641 0.0
C653 C 0.52727 0.91728 0.17843 0.0
C654 C 0.46706 0.0039 0.17063 0.0
C655 C 0.41389 -0.00206 0.13793 0.0
N656 N 0.50895 0.94479 0.17465 0.0
N657 N 0.43344 0.97199 0.14292 0.0
H658 H 0.53003 0.57836 0.67114 0.0
H659 H 0.41733 0.42427 0.70539 0.0
H660 H 0.56139 0.49712 0.71785 0.0
H661 H 0.42667 0.46338 0.62944 0.0
H662 H 0.45297 0.46863 0.72111 0.0
H663 H 0.47551 0.55265 0.66741 0.0
C664 C 0.52501 0.55575 0.68135 0.0
C665 C 0.55005 0.53949 0.69459 0.0
C666 C 0.44602 0.46818 0.70119 0.0
C667 C 0.48822 0.51071 0.69089 0.0
C668 C 0.42558 0.44314 0.69228 0.0
C669 C 0.41938 0.44034 0.66614 0.0
C670 C 0.45956 0.49068 0.68384 0.0
C671 C 0.43111 0.46485 0.64973 0.0
C672 C 0.49408 0.54116 0.67917 0.0
C673 C 0.54265 0.51012 0.70727 0.0
N674 N 0.45101 0.48892 0.65882 0.0
N675 N 0.51238 0.49648 0.70498 0.0
H676 H 0.06971 0.43111 0.19885 0.0
H677 H 0.91026 0.53286 0.16168 0.0
H678 H 0.03824 0.44434 0.12112 0.0
H679 H 0.986 0.57105 0.21081 0.0
H680 H 0.94197 0.48197 0.15698 0.0
H681 H 0.02281 0.46406 0.21297 0.0
C682 C 0.05217 0.43985 0.18489 0.0
C683 C 0.05769 0.43536 0.15883 0.0
C684 C 0.95095 0.50114 0.16945 0.0
C685 C 0.00433 0.47212 0.17475 0.0
C686 C 0.93294 0.52996 0.17221 0.0
C687 C 0.94584 0.55594 0.18653 0.0
C688 C 0.98139 0.49825 0.1817 0.0
C689 C 0.97549 0.55145 0.19952 0.0
C690 C 0.02567 0.45867 0.19293 0.0
C691 C 0.03472 0.44754 0.14138 0.0
N692 N -0.00756 0.52312 0.19671 0.0
N693 N 0.00904 0.46562 0.14964 0.0
H694 H 0.94015 0.91819 0.67975 0.0
H695 H -0.00634 0.10463 0.65677 0.0
H696 H 0.8746 0.00093 0.67755 0.0
H697 H 0.06452 0.02657 0.66181 0.0
H698 H 0.95064 0.06615 0.66793 0.0
H699 H 0.98698 0.95643 0.67709 0.0
C700 C 0.93568 0.94436 0.67911 0.0
C701 C 0.90356 0.9565 0.67854 0.0
C702 C 0.97553 0.05721 0.66672 0.0
C703 C 0.95649 -1e-05 0.67543 0.0
C704 C 0.00016 0.07925 0.66023 0.0
C705 C 0.03262 0.06866 0.65809 0.0
C706 C 0.98317 0.02406 0.67085 0.0
C707 C 0.03967 0.03559 0.66316 0.0
C708 C 0.96232 0.9661 0.6775 0.0
C709 C 0.89896 0.9905 0.67767 0.0
N710 N 0.015 0.01425 0.66908 0.0
N711 N 0.92507 0.01096 0.67598 0.0
H712 H 0.56509 0.48975 0.40914 0.0
H713 H 0.43263 0.45322 0.31382 0.0
H714 H 0.58071 0.51762 0.33092 0.0
H715 H 0.45514 0.37954 0.37013 0.0
H716 H 0.48846 0.47493 0.31786 0.0
H717 H 0.52776 0.44623 0.39504 0.0
C718 C 0.56149 0.48586 0.38893 0.0
C719 C 0.57586 0.50711 0.37112 0.0
C720 C 0.48159 0.45335 0.32874 0.0
C721 C 0.5323 0.45856 0.35495 0.0
C722 C 0.44979 0.44103 0.32645 0.0
C723 C 0.43959 0.41461 0.34162 0.0
C724 C 0.50275 0.43998 0.34712 0.0
C725 C 0.46238 0.39982 0.35797 0.0
C726 C 0.54021 0.46109 0.38088 0.0
C727 C 0.5702 0.50148 0.34518 0.0
N728 N 0.49273 0.41333 0.36088 0.0
N729 N 0.54799 0.47833 0.33785 0.0
H730 H 0.10562 0.4928 0.86272 0.0
H731 H 0.94026 0.58424 0.82389 0.0
H732 H 0.03778 0.45605 0.80656 0.0
H733 H 0.97261 0.57131 0.90143 0.0
H734 H 0.99048 0.55707 0.80923 0.0
H735 H 0.07084 0.54149 0.86797 0.0
C736 C 0.08417 0.49574 0.85073 0.0
C737 C 0.07427 0.47062 0.83426 0.0
C738 C 0.98698 0.56126 0.82938 0.0
C739 C 0.035 0.52575 0.83994 0.0
C740 C 0.95854 0.57681 0.83773 0.0
C741 C 0.95241 0.5796 0.86386 0.0
C742 C 0.00952 0.5493 0.84735 0.0
C743 C 0.9765 0.56927 0.88112 0.0
C744 C 0.06433 0.52329 0.85384 0.0
C745 C 0.04601 0.47503 0.81948 0.0
N746 N 0.00398 0.55429 0.87257 0.0
N747 N 0.02714 0.50202 0.8228 0.0
H748 H 0.9139 0.96906 0.4056 0.0
H749 H 0.02617 0.04752 0.30608 0.0
H750 H 0.8949 0.95275 0.32592 0.0
H751 H 0.00352 0.09986 0.37489 0.0
H752 H 0.97622 0.01478 0.31149 0.0
H753 H 0.94427 0.01905 0.39469 0.0
C754 C 0.91548 0.97655 0.38583 0.0
C755 C 0.90206 0.95688 0.36659 0.0
C756 C 0.98165 0.03404 0.32503 0.0
C757 C 0.93758 0.01328 0.35392 0.0
C758 C 0.01015 0.05268 0.32196 0.0
C759 C 0.01896 0.07621 0.34016 0.0
C760 C 0.96249 0.03826 0.3469 0.0
C761 C -0.0025 0.08194 0.36044 0.0
C762 C 0.93273 0.00507 0.37961 0.0
C763 C 0.90484 0.96744 0.34127 0.0
N764 N 0.97064 0.06244 0.36366 0.0
N765 N 0.92309 -0.00546 0.33557 0.0
H766 H 0.51884 0.92574 0.91875 0.0
H767 H 0.42081 0.04385 0.82402 0.0
H768 H 0.5173 0.90946 0.83776 0.0
H769 H 0.45667 0.06878 0.8988 0.0
H770 H 0.44145 0.98742 0.83028 0.0
H771 H 0.47887 0.96944 0.91338 0.0
C772 C 0.50934 0.93088 0.89987 0.0
C773 C 0.52154 0.91441 0.87862 0.0
C774 C 0.44429 0.00526 0.84536 0.0
C775 C 0.47674 0.96514 0.87218 0.0
C776 C 0.43259 0.03728 0.84181 0.0
C777 C 0.4376 0.06091 0.8608 0.0
C778 C 0.46023 -0.00298 0.86826 0.0
C779 C 0.45284 0.05139 0.88353 0.0
C780 C 0.48672 0.95596 0.89677 0.0
C781 C 0.50839 0.92177 0.85458 0.0
N782 N 0.46362 0.02028 0.88659 0.0
N783 N 0.48713 0.94726 0.85187 0.0
loop_
_geom_bond_atom_site_label_1
_geom_bond_atom_site_label_2
_geom_bond_distance
_geom_bond_site_symmetry_2
_ccdc_geom_bond_type
In0 O1 2.294 . S
In0 O2 2.326 . S
In0 O6 2.266 . S
In0 O7 2.326 . S
In0 O8 2.266 . S
In0 O9 2.326 . S
In0 O11 2.294 . S
In0 O12 2.326 . S
O1 In0 2.294 . S
O1 C10 1.240 . S
O2 In0 2.326 . S
O2 C10 1.252 . S
C3 O6 1.252 . S
C3 O7 1.260 . S
C4 O11 1.240 . S
C4 O12 1.252 . S
C5 O8 1.252 . S
C5 O9 1.260 . S
O6 In0 2.266 . S
O6 C3 1.252 . S
O7 In0 2.326 . S
O7 C3 1.260 . S
O8 In0 2.266 . S
O8 C5 1.252 . S
O9 In0 2.326 . S
O9 C5 1.260 . S
C10 O1 1.240 . S
C10 O2 1.252 . S
O11 In0 2.294 . S
O11 C4 1.240 . S
O12 In0 2.326 . S
O12 C4 1.252 . S
In13 O14 2.294 . S
In13 O15 2.326 . S
In13 O19 2.266 . S
In13 O20 2.326 . S
In13 O21 2.266 . S
In13 O22 2.326 . S
In13 O24 2.294 . S
In13 O25 2.326 . S
O14 In13 2.294 . S
O14 C23 1.240 . S
O15 In13 2.326 . S
O15 C23 1.252 . S
C16 O19 1.252 . S
C16 O20 1.260 . S
C17 O24 1.240 . S
C17 O25 1.252 . S
C18 O21 1.252 . S
C18 O22 1.260 . S
O19 In13 2.266 . S
O19 C16 1.252 . S
O20 In13 2.326 . S
O20 C16 1.260 . S
O21 In13 2.266 . S
O21 C18 1.252 . S
O22 In13 2.326 . S
O22 C18 1.260 . S
C23 O14 1.240 . S
C23 O15 1.252 . S
O24 In13 2.294 . S
O24 C17 1.240 . S
O25 In13 2.326 . S
O25 C17 1.252 . S
In26 O27 2.294 . S
In26 O28 2.326 . S
In26 O32 2.266 . S
In26 O33 2.326 . S
In26 O34 2.266 . S
In26 O35 2.326 . S
In26 O37 2.294 . S
In26 O38 2.326 . S
O27 In26 2.294 . S
O27 C36 1.240 . S
O28 In26 2.326 . S
O28 C36 1.252 . S
C29 O32 1.252 . S
C29 O33 1.260 . S
C30 O37 1.240 . S
C30 O38 1.252 . S
C31 O34 1.252 . S
C31 O35 1.260 . S
O32 In26 2.266 . S
O32 C29 1.252 . S
O33 In26 2.326 . S
O33 C29 1.260 . S
O34 In26 2.266 . S
O34 C31 1.252 . S
O35 In26 2.326 . S
O35 C31 1.260 . S
C36 O27 1.240 . S
C36 O28 1.252 . S
O37 In26 2.294 . S
O37 C30 1.240 . S
O38 In26 2.326 . S
O38 C30 1.252 . S
In39 O40 2.294 . S
In39 O41 2.326 . S
In39 O45 2.266 . S
In39 O46 2.326 . S
In39 O47 2.266 . S
In39 O48 2.326 . S
In39 O50 2.294 . S
In39 O51 2.326 . S
O40 In39 2.294 . S
O40 C49 1.240 . S
O41 In39 2.326 . S
O41 C49 1.252 . S
C42 O45 1.252 . S
C42 O46 1.260 . S
C43 O50 1.240 . S
C43 O51 1.252 . S
C44 O47 1.252 . S
C44 O48 1.260 . S
O45 In39 2.266 . S
O45 C42 1.252 . S
O46 In39 2.326 . S
O46 C42 1.260 . S
O47 In39 2.266 . S
O47 C44 1.252 . S
O48 In39 2.326 . S
O48 C44 1.260 . S
C49 O40 1.240 . S
C49 O41 1.252 . S
O50 In39 2.294 . S
O50 C43 1.240 . S
O51 In39 2.326 . S
O51 C43 1.252 . S
In52 O53 2.294 . S
In52 O54 2.326 . S
In52 O58 2.266 . S
In52 O59 2.326 . S
In52 O60 2.266 . S
In52 O61 2.326 . S
In52 O63 2.294 . S
In52 O64 2.326 . S
O53 In52 2.294 . S
O53 C62 1.240 . S
O54 In52 2.326 . S
O54 C62 1.252 . S
C55 O58 1.252 . S
C55 O59 1.260 . S
C56 O63 1.240 . S
C56 O64 1.252 . S
C57 O60 1.252 . S
C57 O61 1.260 . S
O58 In52 2.266 . S
O58 C55 1.252 . S
O59 In52 2.326 . S
O59 C55 1.260 . S
O60 In52 2.266 . S
O60 C57 1.252 . S
O61 In52 2.326 . S
O61 C57 1.260 . S
C62 O53 1.240 . S
C62 O54 1.252 . S
O63 In52 2.294 . S
O63 C56 1.240 . S
O64 In52 2.326 . S
O64 C56 1.252 . S
In65 O66 2.294 . S
In65 O67 2.326 . S
In65 O71 2.266 . S
In65 O72 2.326 . S
In65 O73 2.266 . S
In65 O74 2.326 . S
In65 O76 2.294 . S
In65 O77 2.326 . S
O66 In65 2.294 . S
O66 C75 1.240 . S
O67 In65 2.326 . S
O67 C75 1.252 . S
C68 O71 1.252 . S
C68 O72 1.260 . S
C69 O76 1.240 . S
C69 O77 1.252 . S
C70 O73 1.252 . S
C70 O74 1.260 . S
O71 In65 2.266 . S
O71 C68 1.252 . S
O72 In65 2.326 . S
O72 C68 1.260 . S
O73 In65 2.266 . S
O73 C70 1.252 . S
O74 In65 2.326 . S
O74 C70 1.260 . S
C75 O66 1.240 . S
C75 O67 1.252 . S
O76 In65 2.294 . S
O76 C69 1.240 . S
O77 In65 2.326 . S
O77 C69 1.252 . S
In78 O79 2.294 . S
In78 O80 2.326 . S
In78 O84 2.266 . S
In78 O85 2.326 . S
In78 O86 2.266 . S
In78 O87 2.326 . S
In78 O89 2.294 . S
In78 O90 2.326 . S
O79 In78 2.294 . S
O79 C88 1.240 . S
O80 In78 2.326 . S
O80 C88 1.252 . S
C81 O84 1.252 . S
C81 O85 1.260 . S
C82 O89 1.240 . S
C82 O90 1.252 . S
C83 O86 1.252 . S
C83 O87 1.260 . S
O84 In78 2.266 . S
O84 C81 1.252 . S
O85 In78 2.326 . S
O85 C81 1.260 . S
O86 In78 2.266 . S
O86 C83 1.252 . S
O87 In78 2.326 . S
O87 C83 1.260 . S
C88 O79 1.240 . S
C88 O80 1.252 . S
O89 In78 2.294 . S
O89 C82 1.240 . S
O90 In78 2.326 . S
O90 C82 1.252 . S
In91 O92 2.294 . S
In91 O93 2.326 . S
In91 O97 2.266 . S
In91 O98 2.326 . S
In91 O99 2.266 . S
In91 O100 2.326 . S
In91 O102 2.294 . S
In91 O103 2.326 . S
O92 In91 2.294 . S
O92 C101 1.240 . S
O93 In91 2.326 . S
O93 C101 1.252 . S
C94 O97 1.252 . S
C94 O98 1.260 . S
C95 O102 1.240 . S
C95 O103 1.252 . S
C96 O99 1.252 . S
C96 O100 1.260 . S
O97 In91 2.266 . S
O97 C94 1.252 . S
O98 In91 2.326 . S
O98 C94 1.260 . S
O99 In91 2.266 . S
O99 C96 1.252 . S
O100 In91 2.326 . S
O100 C96 1.260 . S
C101 O92 1.240 . S
C101 O93 1.252 . S
O102 In91 2.294 . S
O102 C95 1.240 . S
O103 In91 2.326 . S
O103 C95 1.252 . S
In104 O105 2.294 . S
In104 O106 2.326 . S
In104 O110 2.266 . S
In104 O111 2.326 . S
In104 O112 2.266 . S
In104 O113 2.326 . S
In104 O115 2.294 . S
In104 O116 2.326 . S
O105 In104 2.294 . S
O105 C114 1.240 . S
O106 In104 2.326 . S
O106 C114 1.252 . S
C107 O110 1.252 . S
C107 O111 1.260 . S
C108 O115 1.240 . S
C108 O116 1.252 . S
C109 O112 1.252 . S
C109 O113 1.260 . S
O110 In104 2.266 . S
O110 C107 1.252 . S
O111 In104 2.326 . S
O111 C107 1.260 . S
O112 In104 2.266 . S
O112 C109 1.252 . S
O113 In104 2.326 . S
O113 C109 1.260 . S
C114 O105 1.240 . S
C114 O106 1.252 . S
O115 In104 2.294 . S
O115 C108 1.240 . S
O116 In104 2.326 . S
O116 C108 1.252 . S
In117 O118 2.294 . S
In117 O119 2.326 . S
In117 O123 2.266 . S
In117 O124 2.326 . S
In117 O125 2.266 . S
In117 O126 2.326 . S
In117 O128 2.294 . S
In117 O129 2.326 . S
O118 In117 2.294 . S
O118 C127 1.240 . S
O119 In117 2.326 . S
O119 C127 1.252 . S
C120 O123 1.252 . S
C120 O124 1.260 . S
C121 O128 1.240 . S
C121 O129 1.252 . S
C122 O125 1.252 . S
C122 O126 1.260 . S
O123 In117 2.266 . S
O123 C120 1.252 . S
O124 In117 2.326 . S
O124 C120 1.260 . S
O125 In117 2.266 . S
O125 C122 1.252 . S
O126 In117 2.326 . S
O126 C122 1.260 . S
C127 O118 1.240 . S
C127 O119 1.252 . S
O128 In117 2.294 . S
O128 C121 1.240 . S
O129 In117 2.326 . S
O129 C121 1.252 . S
In130 O131 2.294 . S
In130 O132 2.326 . S
In130 O136 2.266 . S
In130 O137 2.326 . S
In130 O138 2.266 . S
In130 O139 2.326 . S
In130 O141 2.294 . S
In130 O142 2.326 . S
O131 In130 2.294 . S
O131 C140 1.240 . S
O132 In130 2.326 . S
O132 C140 1.252 . S
C133 O136 1.252 . S
C133 O137 1.260 . S
C134 O141 1.240 . S
C134 O142 1.252 . S
C135 O138 1.252 . S
C135 O139 1.260 . S
O136 In130 2.266 . S
O136 C133 1.252 . S
O137 In130 2.326 . S
O137 C133 1.260 . S
O138 In130 2.266 . S
O138 C135 1.252 . S
O139 In130 2.326 . S
O139 C135 1.260 . S
C140 O131 1.240 . S
C140 O132 1.252 . S
O141 In130 2.294 . S
O141 C134 1.240 . S
O142 In130 2.326 . S
O142 C134 1.252 . S
In143 O144 2.294 . S
In143 O145 2.326 . S
In143 O149 2.266 . S
In143 O150 2.326 . S
In143 O151 2.266 . S
In143 O152 2.326 . S
In143 O154 2.294 . S
In143 O155 2.326 . S
O144 In143 2.294 . S
O144 C153 1.240 . S
O145 In143 2.326 . S
O145 C153 1.252 . S
C146 O149 1.252 . S
C146 O150 1.260 . S
C147 O154 1.240 . S
C147 O155 1.252 . S
C148 O151 1.252 . S
C148 O152 1.260 . S
O149 In143 2.266 . S
O149 C146 1.252 . S
O150 In143 2.326 . S
O150 C146 1.260 . S
O151 In143 2.266 . S
O151 C148 1.252 . S
O152 In143 2.326 . S
O152 C148 1.260 . S
C153 O144 1.240 . S
C153 O145 1.252 . S
O154 In143 2.294 . S
O154 C147 1.240 . S
O155 In143 2.326 . S
O155 C147 1.252 . S
In156 O157 2.294 . S
In156 O158 2.326 . S
In156 O162 2.266 . S
In156 O163 2.326 . S
In156 O164 2.266 . S
In156 O165 2.326 . S
In156 O167 2.294 . S
In156 O168 2.326 . S
O157 In156 2.294 . S
O157 C166 1.240 . S
O158 In156 2.326 . S
O158 C166 1.252 . S
C159 O162 1.252 . S
C159 O163 1.260 . S
C160 O167 1.240 . S
C160 O168 1.252 . S
C161 O164 1.252 . S
C161 O165 1.260 . S
O162 In156 2.266 . S
O162 C159 1.252 . S
O163 In156 2.326 . S
O163 C159 1.260 . S
O164 In156 2.266 . S
O164 C161 1.252 . S
O165 In156 2.326 . S
O165 C161 1.260 . S
C166 O157 1.240 . S
C166 O158 1.252 . S
O167 In156 2.294 . S
O167 C160 1.240 . S
O168 In156 2.326 . S
O168 C160 1.252 . S
In169 O170 2.294 . S
In169 O171 2.326 . S
In169 O175 2.266 . S
In169 O176 2.326 . S
In169 O177 2.266 . S
In169 O178 2.326 . S
In169 O180 2.294 . S
In169 O181 2.326 . S
O170 In169 2.294 . S
O170 C179 1.240 . S
O171 In169 2.326 . S
O171 C179 1.252 . S
C172 O175 1.252 . S
C172 O176 1.260 . S
C173 O180 1.240 . S
C173 O181 1.252 . S
C174 O177 1.252 . S
C174 O178 1.260 . S
O175 In169 2.266 . S
O175 C172 1.252 . S
O176 In169 2.326 . S
O176 C172 1.260 . S
O177 In169 2.266 . S
O177 C174 1.252 . S
O178 In169 2.326 . S
O178 C174 1.260 . S
C179 O170 1.240 . S
C179 O171 1.252 . S
O180 In169 2.294 . S
O180 C173 1.240 . S
O181 In169 2.326 . S
O181 C173 1.252 . S
In182 O183 2.294 . S
In182 O184 2.326 . S
In182 O188 2.266 . S
In182 O189 2.326 . S
In182 O190 2.266 . S
In182 O191 2.326 . S
In182 O193 2.294 . S
In182 O194 2.326 . S
O183 In182 2.294 . S
O183 C192 1.240 . S
O184 In182 2.326 . S
O184 C192 1.252 . S
C185 O188 1.252 . S
C185 O189 1.260 . S
C186 O193 1.240 . S
C186 O194 1.252 . S
C187 O190 1.252 . S
C187 O191 1.260 . S
O188 In182 2.266 . S
O188 C185 1.252 . S
O189 In182 2.326 . S
O189 C185 1.260 . S
O190 In182 2.266 . S
O190 C187 1.252 . S
O191 In182 2.326 . S
O191 C187 1.260 . S
C192 O183 1.240 . S
C192 O184 1.252 . S
O193 In182 2.294 . S
O193 C186 1.240 . S
O194 In182 2.326 . S
O194 C186 1.252 . S
In195 O196 2.294 . S
In195 O197 2.326 . S
In195 O201 2.266 . S
In195 O202 2.326 . S
In195 O203 2.266 . S
In195 O204 2.326 . S
In195 O206 2.294 . S
In195 O207 2.326 . S
O196 In195 2.294 . S
O196 C205 1.240 . S
O197 In195 2.326 . S
O197 C205 1.252 . S
C198 O201 1.252 . S
C198 O202 1.260 . S
C199 O206 1.240 . S
C199 O207 1.252 . S
C200 O203 1.252 . S
C200 O204 1.260 . S
O201 In195 2.266 . S
O201 C198 1.252 . S
O202 In195 2.326 . S
O202 C198 1.260 . S
O203 In195 2.266 . S
O203 C200 1.252 . S
O204 In195 2.326 . S
O204 C200 1.260 . S
C205 O196 1.240 . S
C205 O197 1.252 . S
O206 In195 2.294 . S
O206 C199 1.240 . S
O207 In195 2.326 . S
O207 C199 1.252 . S
H208 C214 0.930 . S
H209 C218 0.930 . S
H210 C223 0.929 . S
H211 C221 0.929 . S
H212 C216 0.929 . S
H213 C222 0.929 . S
C214 H208 0.930 . S
C214 C215 1.367 . S
C214 C222 1.378 . S
C215 C214 1.367 . S
C215 C223 1.433 . S
C216 H212 0.929 . S
C216 C218 1.378 . S
C216 C220 1.350 . S
C217 C220 1.463 1_556 S
C217 C222 1.350 . S
C217 N225 1.427 . S
C218 H209 0.930 . S
C218 C216 1.378 . S
C218 C219 1.367 . S
C219 C218 1.367 . S
C219 C221 1.433 . S
C220 C216 1.350 . S
C220 C217 1.463 1_554 S
C220 N224 1.427 . S
C221 H211 0.929 . S
C221 C219 1.433 . S
C221 N224 1.384 . S
C222 H213 0.929 . S
C222 C214 1.378 . S
C222 C217 1.350 . S
C223 H210 0.929 . S
C223 C215 1.433 . S
C223 N225 1.384 . S
N224 C220 1.427 . S
N224 C221 1.384 . S
N225 C217 1.427 . S
N225 C223 1.384 . S
H226 C232 0.930 . S
H227 C236 0.930 . S
H228 C241 0.929 . S
H229 C239 0.929 . S
H230 C234 0.929 . S
H231 C240 0.929 . S
C232 H226 0.930 . S
C232 C233 1.367 . S
C232 C240 1.378 . S
C233 C232 1.367 . S
C233 C241 1.433 . S
C234 H230 0.929 . S
C234 C236 1.378 . S
C234 C238 1.350 . S
C235 C238 1.463 . S
C235 C240 1.350 . S
C235 N243 1.427 . S
C236 H227 0.930 . S
C236 C234 1.378 . S
C236 C237 1.367 . S
C237 C236 1.367 . S
C237 C239 1.433 . S
C238 C234 1.350 . S
C238 C235 1.463 . S
C238 N242 1.427 . S
C239 H229 0.929 . S
C239 C237 1.433 . S
C239 N242 1.384 . S
C240 H231 0.929 . S
C240 C232 1.378 . S
C240 C235 1.350 . S
C241 H228 0.929 . S
C241 C233 1.433 . S
C241 N243 1.384 . S
N242 C238 1.427 . S
N242 C239 1.384 . S
N243 C235 1.427 . S
N243 C241 1.384 . S
H244 C250 0.930 . S
H245 C254 0.930 . S
H246 C259 0.929 . S
H247 C257 0.929 . S
H248 C252 0.929 . S
H249 C258 0.929 . S
C250 H244 0.930 . S
C250 C251 1.367 . S
C250 C258 1.378 . S
C251 C250 1.367 . S
C251 C259 1.433 . S
C252 H248 0.929 . S
C252 C254 1.378 . S
C252 C256 1.350 . S
C253 C256 1.463 1_556 S
C253 C258 1.350 . S
C253 N261 1.427 . S
C254 H245 0.930 . S
C254 C252 1.378 . S
C254 C255 1.367 . S
C255 C254 1.367 . S
C255 C257 1.433 . S
C256 C252 1.350 . S
C256 C253 1.463 1_554 S
C256 N260 1.427 . S
C257 H247 0.929 . S
C257 C255 1.433 . S
C257 N260 1.384 . S
C258 H249 0.929 . S
C258 C250 1.378 . S
C258 C253 1.350 . S
C259 H246 0.929 . S
C259 C251 1.433 . S
C259 N261 1.384 . S
N260 C256 1.427 . S
N260 C257 1.384 . S
N261 C253 1.427 . S
N261 C259 1.384 . S
H262 C268 0.930 . S
H263 C272 0.930 . S
H264 C277 0.929 . S
H265 C275 0.929 . S
H266 C270 0.929 . S
H267 C276 0.929 . S
C268 H262 0.930 . S
C268 C269 1.367 . S
C268 C276 1.378 . S
C269 C268 1.367 . S
C269 C277 1.433 . S
C270 H266 0.929 . S
C270 C272 1.378 . S
C270 C274 1.350 . S
C271 C274 1.463 . S
C271 C276 1.350 . S
C271 N279 1.427 . S
C272 H263 0.930 . S
C272 C270 1.378 . S
C272 C273 1.367 . S
C273 C272 1.367 . S
C273 C275 1.433 . S
C274 C270 1.350 . S
C274 C271 1.463 . S
C274 N278 1.427 . S
C275 H265 0.929 . S
C275 C273 1.433 . S
C275 N278 1.384 . S
C276 H267 0.929 . S
C276 C268 1.378 . S
C276 C271 1.350 . S
C277 H264 0.929 . S
C277 C269 1.433 . S
C277 N279 1.384 . S
N278 C274 1.427 . S
N278 C275 1.384 . S
N279 C271 1.427 . S
N279 C277 1.384 . S
H280 C286 0.930 . S
H281 C290 0.930 . S
H282 C295 0.929 . S
H283 C293 0.929 . S
H284 C288 0.946 . S
H285 C294 0.946 . S
C286 H280 0.930 . S
C286 C287 1.367 . S
C286 C294 1.378 . S
C287 C286 1.367 . S
C287 C295 1.433 . S
C288 H284 0.946 . S
C288 C290 1.378 . S
C288 C292 1.350 . S
C289 C292 1.463 1_554 S
C289 C294 1.350 . S
C289 N297 1.427 . S
C290 H281 0.930 . S
C290 C288 1.378 . S
C290 C291 1.367 . S
C291 C290 1.367 . S
C291 C293 1.433 . S
C292 C288 1.350 . S
C292 C289 1.463 1_556 S
C292 N296 1.427 . S
C293 H283 0.929 . S
C293 C291 1.433 . S
C293 N296 1.384 . S
C294 H285 0.946 . S
C294 C286 1.378 . S
C294 C289 1.350 . S
C295 H282 0.929 . S
C295 C287 1.433 . S
C295 N297 1.384 . S
N296 C292 1.427 . S
N296 C293 1.384 . S
N297 C289 1.427 . S
N297 C295 1.384 . S
H298 C304 0.930 . S
H299 C308 0.930 . S
H300 C313 0.929 . S
H301 C311 0.929 . S
H302 C306 0.929 . S
H303 C312 0.929 . S
C304 H298 0.930 . S
C304 C305 1.367 . S
C304 C312 1.378 . S
C305 C304 1.367 . S
C305 C313 1.433 . S
C306 H302 0.929 . S
C306 C308 1.378 . S
C306 C310 1.350 . S
C307 C310 1.463 . S
C307 C312 1.350 . S
C307 N315 1.427 . S
C308 H299 0.930 . S
C308 C306 1.378 . S
C308 C309 1.367 . S
C309 C308 1.367 . S
C309 C311 1.433 . S
C310 C306 1.350 . S
C310 C307 1.463 . S
C310 N314 1.427 . S
C311 H301 0.929 . S
C311 C309 1.433 . S
C311 N314 1.384 . S
C312 H303 0.929 . S
C312 C304 1.378 . S
C312 C307 1.350 . S
C313 H300 0.929 . S
C313 C305 1.433 . S
C313 N315 1.384 . S
N314 C310 1.427 . S
N314 C311 1.384 . S
N315 C307 1.427 . S
N315 C313 1.384 . S
H316 C322 0.930 . S
H317 C326 0.930 . S
H318 C331 0.929 . S
H319 C329 0.929 . S
H320 C324 0.929 . S
H321 C330 0.929 . S
C322 H316 0.930 . S
C322 C323 1.367 . S
C322 C330 1.378 . S
C323 C322 1.367 . S
C323 C331 1.433 . S
C324 H320 0.929 . S
C324 C326 1.378 . S
C324 C328 1.350 . S
C325 C328 1.463 1_556 S
C325 C330 1.350 . S
C325 N333 1.427 . S
C326 H317 0.930 . S
C326 C324 1.378 . S
C326 C327 1.367 . S
C327 C326 1.367 . S
C327 C329 1.433 . S
C328 C324 1.350 . S
C328 C325 1.463 1_554 S
C328 N332 1.427 . S
C329 H319 0.929 . S
C329 C327 1.433 . S
C329 N332 1.384 . S
C330 H321 0.929 . S
C330 C322 1.378 . S
C330 C325 1.350 . S
C331 H318 0.929 . S
C331 C323 1.433 . S
C331 N333 1.384 . S
N332 C328 1.427 . S
N332 C329 1.384 . S
N333 C325 1.427 . S
N333 C331 1.384 . S
H334 C340 0.930 . S
H335 C344 0.930 . S
H336 C349 0.929 . S
H337 C347 0.929 . S
H338 C342 0.929 . S
H339 C348 0.929 . S
C340 H334 0.930 . S
C340 C341 1.367 . S
C340 C348 1.378 . S
C341 C340 1.367 . S
C341 C349 1.433 . S
C342 H338 0.929 . S
C342 C344 1.378 . S
C342 C346 1.350 . S
C343 C346 1.463 . S
C343 C348 1.350 . S
C343 N351 1.427 . S
C344 H335 0.930 . S
C344 C342 1.378 . S
C344 C345 1.367 . S
C345 C344 1.367 . S
C345 C347 1.433 . S
C346 C342 1.350 . S
C346 C343 1.463 . S
C346 N350 1.427 . S
C347 H337 0.929 . S
C347 C345 1.433 . S
C347 N350 1.384 . S
C348 H339 0.929 . S
C348 C340 1.378 . S
C348 C343 1.350 . S
C349 H336 0.929 . S
C349 C341 1.433 . S
C349 N351 1.384 . S
N350 C346 1.427 . S
N350 C347 1.384 . S
N351 C343 1.427 . S
N351 C349 1.384 . S
H352 C358 0.930 . S
H353 C362 0.930 . S
H354 C367 0.929 . S
H355 C365 0.929 . S
H356 C360 0.929 . S
H357 C366 0.929 . S
C358 H352 0.930 . S
C358 C359 1.367 . S
C358 C366 1.378 . S
C359 C358 1.367 . S
C359 C367 1.433 . S
C360 H356 0.929 . S
C360 C362 1.378 . S
C360 C364 1.350 . S
C361 C364 1.463 . S
C361 C366 1.350 . S
C361 N369 1.427 . S
C362 H353 0.930 . S
C362 C360 1.378 . S
C362 C363 1.367 . S
C363 C362 1.367 . S
C363 C365 1.433 . S
C364 C360 1.350 . S
C364 C361 1.463 . S
C364 N368 1.427 . S
C365 H355 0.929 . S
C365 C363 1.433 . S
C365 N368 1.384 . S
C366 H357 0.929 . S
C366 C358 1.378 . S
C366 C361 1.350 . S
C367 H354 0.929 . S
C367 C359 1.433 . S
C367 N369 1.384 . S
N368 C364 1.427 . S
N368 C365 1.384 . S
N369 C361 1.427 . S
N369 C367 1.384 . S
H370 C376 0.930 . S
H371 C380 0.930 . S
H372 C385 0.929 . S
H373 C383 0.929 . S
H374 C378 0.929 . S
H375 C384 0.929 . S
C376 H370 0.930 . S
C376 C377 1.367 . S
C376 C384 1.378 . S
C377 C376 1.367 . S
C377 C385 1.433 . S
C378 H374 0.929 . S
C378 C380 1.378 . S
C378 C382 1.350 . S
C379 C382 1.463 . S
C379 C384 1.350 . S
C379 N387 1.427 . S
C380 H371 0.930 . S
C380 C378 1.378 . S
C380 C381 1.367 . S
C381 C380 1.367 . S
C381 C383 1.433 . S
C382 C378 1.350 . S
C382 C379 1.463 . S
C382 N386 1.427 . S
C383 H373 0.929 . S
C383 C381 1.433 . S
C383 N386 1.384 . S
C384 H375 0.929 . S
C384 C376 1.378 . S
C384 C379 1.350 . S
C385 H372 0.929 . S
C385 C377 1.433 . S
C385 N387 1.384 . S
N386 C382 1.427 . S
N386 C383 1.384 . S
N387 C379 1.427 . S
N387 C385 1.384 . S
H388 C394 0.930 . S
H389 C398 0.930 . S
H390 C403 0.929 . S
H391 C401 0.929 . S
H392 C396 0.929 . S
H393 C402 0.929 . S
C394 H388 0.930 . S
C394 C395 1.367 . S
C394 C402 1.378 . S
C395 C394 1.367 . S
C395 C403 1.433 . S
C396 H392 0.929 . S
C396 C398 1.378 . S
C396 C400 1.350 . S
C397 C400 1.463 . S
C397 C402 1.350 . S
C397 N405 1.427 . S
C398 H389 0.930 . S
C398 C396 1.378 . S
C398 C399 1.367 . S
C399 C398 1.367 . S
C399 C401 1.433 . S
C400 C396 1.350 . S
C400 C397 1.463 . S
C400 N404 1.427 . S
C401 H391 0.929 . S
C401 C399 1.433 . S
C401 N404 1.384 . S
C402 H393 0.929 . S
C402 C394 1.378 . S
C402 C397 1.350 . S
C403 H390 0.929 . S
C403 C395 1.433 . S
C403 N405 1.384 . S
N404 C400 1.427 . S
N404 C401 1.384 . S
N405 C397 1.427 . S
N405 C403 1.384 . S
H406 C412 0.930 . S
H407 C416 0.930 . S
H408 C421 0.929 . S
H409 C419 0.929 . S
H410 C414 0.929 . S
H411 C420 0.929 . S
C412 H406 0.930 . S
C412 C413 1.367 . S
C412 C420 1.378 . S
C413 C412 1.367 . S
C413 C421 1.433 . S
C414 H410 0.929 . S
C414 C416 1.378 . S
C414 C418 1.350 . S
C415 C418 1.463 . S
C415 C420 1.350 . S
C415 N423 1.427 . S
C416 H407 0.930 . S
C416 C414 1.378 . S
C416 C417 1.367 . S
C417 C416 1.367 . S
C417 C419 1.433 . S
C418 C414 1.350 . S
C418 C415 1.463 . S
C418 N422 1.427 . S
C419 H409 0.929 . S
C419 C417 1.433 . S
C419 N422 1.384 . S
C420 H411 0.929 . S
C420 C412 1.378 . S
C420 C415 1.350 . S
C421 H408 0.929 . S
C421 C413 1.433 . S
C421 N423 1.384 . S
N422 C418 1.427 . S
N422 C419 1.384 . S
N423 C415 1.427 . S
N423 C421 1.384 . S
H424 C430 0.930 . S
H425 C434 0.930 . S
H426 C439 0.929 . S
H427 C437 0.929 . S
H428 C432 0.929 . S
H429 C438 0.929 . S
C430 H424 0.930 . S
C430 C431 1.367 . S
C430 C438 1.378 . S
C431 C430 1.367 . S
C431 C439 1.433 . S
C432 H428 0.929 . S
C432 C434 1.378 . S
C432 C436 1.350 . S
C433 C436 1.463 . S
C433 C438 1.350 . S
C433 N441 1.427 . S
C434 H425 0.930 . S
C434 C432 1.378 . S
C434 C435 1.367 . S
C435 C434 1.367 . S
C435 C437 1.433 . S
C436 C432 1.350 . S
C436 C433 1.463 . S
C436 N440 1.427 . S
C437 H427 0.929 . S
C437 C435 1.433 . S
C437 N440 1.384 . S
C438 H429 0.929 . S
C438 C430 1.378 . S
C438 C433 1.350 . S
C439 H426 0.929 . S
C439 C431 1.433 . S
C439 N441 1.384 . S
N440 C436 1.427 . S
N440 C437 1.384 . S
N441 C433 1.427 . S
N441 C439 1.384 . S
H442 C448 0.930 . S
H443 C452 0.930 . S
H444 C457 0.929 . S
H445 C455 0.929 . S
H446 C450 0.929 . S
H447 C456 0.929 . S
C448 H442 0.930 . S
C448 C449 1.367 . S
C448 C456 1.378 . S
C449 C448 1.367 . S
C449 C457 1.433 . S
C450 H446 0.929 . S
C450 C452 1.378 . S
C450 C454 1.350 . S
C451 C454 1.463 . S
C451 C456 1.350 . S
C451 N459 1.427 . S
C452 H443 0.930 . S
C452 C450 1.378 . S
C452 C453 1.367 . S
C453 C452 1.367 . S
C453 C455 1.433 . S
C454 C450 1.350 . S
C454 C451 1.463 . S
C454 N458 1.427 . S
C455 H445 0.929 . S
C455 C453 1.433 . S
C455 N458 1.384 . S
C456 H447 0.929 . S
C456 C448 1.378 . S
C456 C451 1.350 . S
C457 H444 0.929 . S
C457 C449 1.433 . S
C457 N459 1.384 . S
N458 C454 1.427 . S
N458 C455 1.384 . S
N459 C451 1.427 . S
N459 C457 1.384 . S
H460 C466 0.930 . S
H461 C470 0.930 . S
H462 C475 0.929 . S
H463 C473 0.929 . S
H464 C468 0.929 . S
H465 C474 0.929 . S
C466 H460 0.930 . S
C466 C467 1.367 . S
C466 C474 1.378 . S
C467 C466 1.367 . S
C467 C475 1.433 . S
C468 H464 0.929 . S
C468 C470 1.378 . S
C468 C472 1.350 . S
C469 C472 1.463 . S
C469 C474 1.350 . S
C469 N477 1.427 . S
C470 H461 0.930 . S
C470 C468 1.378 . S
C470 C471 1.367 . S
C471 C470 1.367 . S
C471 C473 1.433 . S
C472 C468 1.350 . S
C472 C469 1.463 . S
C472 N476 1.427 . S
C473 H463 0.929 . S
C473 C471 1.433 . S
C473 N476 1.384 . S
C474 H465 0.929 . S
C474 C466 1.378 . S
C474 C469 1.350 . S
C475 H462 0.929 . S
C475 C467 1.433 . S
C475 N477 1.384 . S
N476 C472 1.427 . S
N476 C473 1.384 . S
N477 C469 1.427 . S
N477 C475 1.384 . S
H478 C484 0.930 . S
H479 C488 0.930 . S
H480 C493 0.929 . S
H481 C491 0.929 . S
H482 C486 0.929 . S
H483 C492 0.929 . S
C484 H478 0.930 . S
C484 C485 1.367 . S
C484 C492 1.378 . S
C485 C484 1.367 . S
C485 C493 1.433 . S
C486 H482 0.929 . S
C486 C488 1.378 . S
C486 C490 1.350 . S
C487 C490 1.463 . S
C487 C492 1.350 . S
C487 N495 1.427 . S
C488 H479 0.930 . S
C488 C486 1.378 . S
C488 C489 1.367 . S
C489 C488 1.367 . S
C489 C491 1.433 . S
C490 C486 1.350 . S
C490 C487 1.463 . S
C490 N494 1.427 . S
C491 H481 0.929 . S
C491 C489 1.433 . S
C491 N494 1.384 . S
C492 H483 0.929 . S
C492 C484 1.378 . S
C492 C487 1.350 . S
C493 H480 0.929 . S
C493 C485 1.433 . S
C493 N495 1.384 . S
N494 C490 1.427 . S
N494 C491 1.384 . S
N495 C487 1.427 . S
N495 C493 1.384 . S
H496 C502 0.930 . S
H497 C506 0.930 . S
H498 C511 0.929 . S
H499 C509 0.929 . S
H500 C504 0.929 . S
H501 C510 0.929 . S
C502 H496 0.930 . S
C502 C503 1.367 . S
C502 C510 1.378 . S
C503 C502 1.367 . S
C503 C511 1.433 . S
C504 H500 0.929 . S
C504 C506 1.378 . S
C504 C508 1.350 . S
C505 C508 1.463 . S
C505 C510 1.350 . S
C505 N513 1.427 . S
C506 H497 0.930 . S
C506 C504 1.378 . S
C506 C507 1.367 . S
C507 C506 1.367 . S
C507 C509 1.433 . S
C508 C504 1.350 . S
C508 C505 1.463 . S
C508 N512 1.427 . S
C509 H499 0.929 . S
C509 C507 1.433 . S
C509 N512 1.384 . S
C510 H501 0.929 . S
C510 C502 1.378 . S
C510 C505 1.350 . S
C511 H498 0.929 . S
C511 C503 1.433 . S
C511 N513 1.384 . S
N512 C508 1.427 . S
N512 C509 1.384 . S
N513 C505 1.427 . S
N513 C511 1.384 . S
H514 C520 0.930 . S
H515 C524 0.930 . S
H516 C529 0.929 . S
H517 C527 0.929 . S
H518 C522 0.929 . S
H519 C528 0.929 . S
C520 H514 0.930 . S
C520 C521 1.367 . S
C520 C528 1.378 . S
C521 C520 1.367 . S
C521 C529 1.433 . S
C522 H518 0.929 . S
C522 C524 1.378 . S
C522 C526 1.350 . S
C523 C526 1.463 . S
C523 C528 1.350 . S
C523 N531 1.427 . S
C524 H515 0.930 . S
C524 C522 1.378 . S
C524 C525 1.367 . S
C525 C524 1.367 . S
C525 C527 1.433 . S
C526 C522 1.350 . S
C526 C523 1.463 . S
C526 N530 1.427 . S
C527 H517 0.929 . S
C527 C525 1.433 . S
C527 N530 1.384 . S
C528 H519 0.929 . S
C528 C520 1.378 . S
C528 C523 1.350 . S
C529 H516 0.929 . S
C529 C521 1.433 . S
C529 N531 1.384 . S
N530 C526 1.427 . S
N530 C527 1.384 . S
N531 C523 1.427 . S
N531 C529 1.384 . S
H532 C538 0.930 . S
H533 C542 0.930 . S
H534 C547 0.929 . S
H535 C545 0.929 . S
H536 C540 0.929 . S
H537 C546 0.929 . S
C538 H532 0.930 . S
C538 C539 1.367 . S
C538 C546 1.378 . S
C539 C538 1.367 . S
C539 C547 1.433 . S
C540 H536 0.929 . S
C540 C542 1.378 . S
C540 C544 1.350 . S
C541 C544 1.463 . S
C541 C546 1.350 . S
C541 N549 1.427 . S
C542 H533 0.930 . S
C542 C540 1.378 . S
C542 C543 1.367 . S
C543 C542 1.367 . S
C543 C545 1.433 . S
C544 C540 1.350 . S
C544 C541 1.463 . S
C544 N548 1.427 . S
C545 H535 0.929 . S
C545 C543 1.433 . S
C545 N548 1.384 . S
C546 H537 0.929 . S
C546 C538 1.378 . S
C546 C541 1.350 . S
C547 H534 0.929 . S
C547 C539 1.433 . S
C547 N549 1.384 . S
N548 C544 1.427 . S
N548 C545 1.384 . S
N549 C541 1.427 . S
N549 C547 1.384 . S
H550 C556 0.930 . S
H551 C560 0.930 . S
H552 C565 0.929 . S
H553 C563 0.929 . S
H554 C558 0.929 . S
H555 C564 0.929 . S
C556 H550 0.930 . S
C556 C557 1.367 . S
C556 C564 1.378 . S
C557 C556 1.367 . S
C557 C565 1.433 . S
C558 H554 0.929 . S
C558 C560 1.378 . S
C558 C562 1.350 . S
C559 C562 1.463 . S
C559 C564 1.350 . S
C559 N567 1.427 . S
C560 H551 0.930 . S
C560 C558 1.378 . S
C560 C561 1.367 . S
C561 C560 1.367 . S
C561 C563 1.433 . S
C562 C558 1.350 . S
C562 C559 1.463 . S
C562 N566 1.427 . S
C563 H553 0.929 . S
C563 C561 1.433 . S
C563 N566 1.384 . S
C564 H555 0.929 . S
C564 C556 1.378 . S
C564 C559 1.350 . S
C565 H552 0.929 . S
C565 C557 1.433 . S
C565 N567 1.384 . S
N566 C562 1.427 . S
N566 C563 1.384 . S
N567 C559 1.427 . S
N567 C565 1.384 . S
H568 C574 0.930 . S
H569 C578 0.930 . S
H570 C583 0.929 . S
H571 C581 0.929 . S
H572 C576 0.929 . S
H573 C582 0.929 . S
C574 H568 0.930 . S
C574 C575 1.367 . S
C574 C582 1.378 . S
C575 C574 1.367 . S
C575 C583 1.433 . S
C576 H572 0.929 . S
C576 C578 1.378 . S
C576 C580 1.350 . S
C577 C580 1.463 . S
C577 C582 1.350 . S
C577 N585 1.427 . S
C578 H569 0.930 . S
C578 C576 1.378 . S
C578 C579 1.367 . S
C579 C578 1.367 . S
C579 C581 1.433 . S
C580 C576 1.350 . S
C580 C577 1.463 . S
C580 N584 1.427 . S
C581 H571 0.929 . S
C581 C579 1.433 . S
C581 N584 1.384 . S
C582 H573 0.929 . S
C582 C574 1.378 . S
C582 C577 1.350 . S
C583 H570 0.929 . S
C583 C575 1.433 . S
C583 N585 1.384 . S
N584 C580 1.427 . S
N584 C581 1.384 . S
N585 C577 1.427 . S
N585 C583 1.384 . S
H586 C592 0.930 . S
H587 C596 0.930 . S
H588 C601 0.929 . S
H589 C599 0.929 . S
H590 C594 0.929 . S
H591 C600 0.929 . S
C592 H586 0.930 . S
C592 C593 1.367 . S
C592 C600 1.378 . S
C593 C592 1.367 . S
C593 C601 1.433 . S
C594 H590 0.929 . S
C594 C596 1.378 . S
C594 C598 1.350 . S
C595 C598 1.463 . S
C595 C600 1.350 . S
C595 N603 1.427 . S
C596 H587 0.930 . S
C596 C594 1.378 . S
C596 C597 1.367 . S
C597 C596 1.367 . S
C597 C599 1.433 . S
C598 C594 1.350 . S
C598 C595 1.463 . S
C598 N602 1.427 . S
C599 H589 0.929 . S
C599 C597 1.433 . S
C599 N602 1.384 . S
C600 H591 0.929 . S
C600 C592 1.378 . S
C600 C595 1.350 . S
C601 H588 0.929 . S
C601 C593 1.433 . S
C601 N603 1.384 . S
N602 C598 1.427 . S
N602 C599 1.384 . S
N603 C595 1.427 . S
N603 C601 1.384 . S
H604 C610 0.930 . S
H605 C614 0.930 . S
H606 C619 0.929 . S
H607 C617 0.929 . S
H608 C612 0.929 . S
H609 C618 0.929 . S
C610 H604 0.930 . S
C610 C611 1.367 . S
C610 C618 1.378 . S
C611 C610 1.367 . S
C611 C619 1.433 . S
C612 H608 0.929 . S
C612 C614 1.378 . S
C612 C616 1.350 . S
C613 C616 1.463 . S
C613 C618 1.350 . S
C613 N621 1.427 . S
C614 H605 0.930 . S
C614 C612 1.378 . S
C614 C615 1.367 . S
C615 C614 1.367 . S
C615 C617 1.433 . S
C616 C612 1.350 . S
C616 C613 1.463 . S
C616 N620 1.427 . S
C617 H607 0.929 . S
C617 C615 1.433 . S
C617 N620 1.384 . S
C618 H609 0.929 . S
C618 C610 1.378 . S
C618 C613 1.350 . S
C619 H606 0.929 . S
C619 C611 1.433 . S
C619 N621 1.384 . S
N620 C616 1.427 . S
N620 C617 1.384 . S
N621 C613 1.427 . S
N621 C619 1.384 . S
H622 C628 0.930 . S
H623 C632 0.930 . S
H624 C637 0.929 . S
H625 C635 0.929 . S
H626 C630 0.929 . S
H627 C636 0.929 . S
C628 H622 0.930 . S
C628 C629 1.367 . S
C628 C636 1.378 . S
C629 C628 1.367 . S
C629 C637 1.433 . S
C630 H626 0.929 . S
C630 C632 1.378 . S
C630 C634 1.350 . S
C631 C634 1.463 . S
C631 C636 1.350 . S
C631 N639 1.427 . S
C632 H623 0.930 . S
C632 C630 1.378 . S
C632 C633 1.367 . S
C633 C632 1.367 . S
C633 C635 1.433 . S
C634 C630 1.350 . S
C634 C631 1.463 . S
C634 N638 1.427 . S
C635 H625 0.929 . S
C635 C633 1.433 . S
C635 N638 1.384 . S
C636 H627 0.929 . S
C636 C628 1.378 . S
C636 C631 1.350 . S
C637 H624 0.929 . S
C637 C629 1.433 . S
C637 N639 1.384 . S
N638 C634 1.427 . S
N638 C635 1.384 . S
N639 C631 1.427 . S
N639 C637 1.384 . S
H640 C646 0.930 . S
H641 C650 0.930 . S
H642 C655 0.929 . S
H643 C653 0.929 . S
H644 C648 0.929 . S
H645 C654 0.929 . S
C646 H640 0.930 . S
C646 C647 1.367 . S
C646 C654 1.378 . S
C647 C646 1.367 . S
C647 C655 1.433 . S
C648 H644 0.929 . S
C648 C650 1.378 . S
C648 C652 1.350 . S
C649 C652 1.483 . S
C649 C654 1.324 1_565 S
C649 N657 1.435 . S
C650 H641 0.930 . S
C650 C648 1.378 . S
C650 C651 1.367 . S
C651 C650 1.367 . S
C651 C653 1.433 . S
C652 C648 1.350 . S
C652 C649 1.483 . S
C652 N656 1.427 . S
C653 H643 0.929 . S
C653 C651 1.433 . S
C653 N656 1.384 . S
C654 H645 0.929 . S
C654 C646 1.378 . S
C654 C649 1.324 1_545 S
C655 H642 0.929 . S
C655 C647 1.433 . S
C655 N657 1.384 1_545 S
N656 C652 1.427 . S
N656 C653 1.384 . S
N657 C649 1.435 . S
N657 C655 1.384 1_565 S
H658 C664 0.930 . S
H659 C668 0.930 . S
H660 C673 0.929 . S
H661 C671 0.929 . S
H662 C666 0.929 . S
H663 C672 0.929 . S
C664 H658 0.930 . S
C664 C665 1.367 . S
C664 C672 1.378 . S
C665 C664 1.367 . S
C665 C673 1.433 . S
C666 H662 0.929 . S
C666 C668 1.378 . S
C666 C670 1.350 . S
C667 C670 1.463 . S
C667 C672 1.350 . S
C667 N675 1.427 . S
C668 H659 0.930 . S
C668 C666 1.378 . S
C668 C669 1.367 . S
C669 C668 1.367 . S
C669 C671 1.433 . S
C670 C666 1.350 . S
C670 C667 1.463 . S
C670 N674 1.427 . S
C671 H661 0.929 . S
C671 C669 1.433 . S
C671 N674 1.384 . S
C672 H663 0.929 . S
C672 C664 1.378 . S
C672 C667 1.350 . S
C673 H660 0.929 . S
C673 C665 1.433 . S
C673 N675 1.384 . S
N674 C670 1.427 . S
N674 C671 1.384 . S
N675 C667 1.427 . S
N675 C673 1.384 . S
H676 C682 0.930 . S
H677 C686 0.930 . S
H678 C691 0.929 . S
H679 C689 0.929 . S
H680 C684 0.929 . S
H681 C690 0.929 . S
C682 H676 0.930 . S
C682 C683 1.367 . S
C682 C690 1.378 . S
C683 C682 1.367 . S
C683 C691 1.433 . S
C684 H680 0.929 . S
C684 C686 1.378 . S
C684 C688 1.324 1_655 S
C685 C688 1.483 . S
C685 C690 1.350 . S
C685 N693 1.427 . S
C686 H677 0.930 . S
C686 C684 1.378 . S
C686 C687 1.367 . S
C687 C686 1.367 . S
C687 C689 1.433 . S
C688 C684 1.324 1_455 S
C688 C685 1.483 . S
C688 N692 1.435 . S
C689 H679 0.929 . S
C689 C687 1.433 . S
C689 N692 1.384 1_655 S
C690 H681 0.929 . S
C690 C682 1.378 . S
C690 C685 1.350 . S
C691 H678 0.929 . S
C691 C683 1.433 . S
C691 N693 1.384 . S
N692 C688 1.435 . S
N692 C689 1.384 1_455 S
N693 C685 1.427 . S
N693 C691 1.384 . S
H694 C700 0.930 . S
H695 C704 0.930 . S
H696 C709 0.929 . S
H697 C707 0.929 . S
H698 C702 0.929 . S
H699 C708 0.929 . S
C700 H694 0.930 . S
C700 C701 1.367 . S
C700 C708 1.378 . S
C701 C700 1.367 . S
C701 C709 1.433 . S
C702 H698 0.929 . S
C702 C704 1.378 1_655 S
C702 C706 1.350 . S
C703 C706 1.463 . S
C703 C708 1.350 1_545 S
C703 N711 1.427 . S
C704 H695 0.930 . S
C704 C702 1.378 1_455 S
C704 C705 1.367 . S
C705 C704 1.367 . S
C705 C707 1.433 . S
C706 C702 1.350 . S
C706 C703 1.463 . S
C706 N710 1.427 1_655 S
C707 H697 0.929 . S
C707 C705 1.433 . S
C707 N710 1.384 . S
C708 H699 0.929 . S
C708 C700 1.378 . S
C708 C703 1.350 1_565 S
C709 H696 0.929 . S
C709 C701 1.433 . S
C709 N711 1.384 1_565 S
N710 C706 1.427 1_455 S
N710 C707 1.384 . S
N711 C703 1.427 . S
N711 C709 1.384 1_545 S
H712 C718 0.930 . S
H713 C722 0.930 . S
H714 C727 0.929 . S
H715 C725 0.929 . S
H716 C720 0.929 . S
H717 C726 0.929 . S
C718 H712 0.930 . S
C718 C719 1.367 . S
C718 C726 1.378 . S
C719 C718 1.367 . S
C719 C727 1.433 . S
C720 H716 0.929 . S
C720 C722 1.378 . S
C720 C724 1.350 . S
C721 C724 1.463 . S
C721 C726 1.350 . S
C721 N729 1.427 . S
C722 H713 0.930 . S
C722 C720 1.378 . S
C722 C723 1.367 . S
C723 C722 1.367 . S
C723 C725 1.433 . S
C724 C720 1.350 . S
C724 C721 1.463 . S
C724 N728 1.427 . S
C725 H715 0.929 . S
C725 C723 1.433 . S
C725 N728 1.384 . S
C726 H717 0.929 . S
C726 C718 1.378 . S
C726 C721 1.350 . S
C727 H714 0.929 . S
C727 C719 1.433 . S
C727 N729 1.384 . S
N728 C724 1.427 . S
N728 C725 1.384 . S
N729 C721 1.427 . S
N729 C727 1.384 . S
H730 C736 0.930 . S
H731 C740 0.930 . S
H732 C745 0.929 . S
H733 C743 0.929 . S
H734 C738 0.929 . S
H735 C744 0.929 . S
C736 H730 0.930 . S
C736 C737 1.367 . S
C736 C744 1.378 . S
C737 C736 1.367 . S
C737 C745 1.433 . S
C738 H734 0.929 . S
C738 C740 1.378 . S
C738 C742 1.350 . S
C739 C742 1.463 . S
C739 C744 1.350 1_655 S
C739 N747 1.427 . S
C740 H731 0.930 . S
C740 C738 1.378 . S
C740 C741 1.367 . S
C741 C740 1.367 . S
C741 C743 1.433 . S
C742 C738 1.350 . S
C742 C739 1.463 . S
C742 N746 1.427 . S
C743 H733 0.929 . S
C743 C741 1.433 . S
C743 N746 1.384 . S
C744 H735 0.929 . S
C744 C736 1.378 . S
C744 C739 1.350 1_455 S
C745 H732 0.929 . S
C745 C737 1.433 . S
C745 N747 1.384 1_455 S
N746 C742 1.427 . S
N746 C743 1.384 . S
N747 C739 1.427 . S
N747 C745 1.384 1_655 S
H748 C754 0.930 . S
H749 C758 0.930 . S
H750 C763 0.929 . S
H751 C761 0.929 . S
H752 C756 0.929 1_565 S
H753 C762 0.929 . S
C754 H748 0.930 . S
C754 C755 1.367 . S
C754 C762 1.378 . S
C755 C754 1.367 . S
C755 C763 1.433 . S
C756 H752 0.929 1_545 S
C756 C758 1.378 . S
C756 C760 1.350 1_545 S
C757 C760 1.463 . S
C757 C762 1.350 1_455 S
C757 N765 1.427 1_455 S
C758 H749 0.930 . S
C758 C756 1.378 . S
C758 C759 1.367 . S
C759 C758 1.367 . S
C759 C761 1.433 . S
C760 C756 1.350 1_565 S
C760 C757 1.463 . S
C760 N764 1.427 1_565 S
C761 H751 0.929 . S
C761 C759 1.433 . S
C761 N764 1.384 . S
C762 H753 0.929 . S
C762 C754 1.378 . S
C762 C757 1.350 1_655 S
C763 H750 0.929 . S
C763 C755 1.433 . S
C763 N765 1.384 . S
N764 C760 1.427 1_545 S
N764 C761 1.384 . S
N765 C757 1.427 1_655 S
N765 C763 1.384 . S
H766 C772 0.930 . S
H767 C776 0.930 . S
H768 C781 0.929 . S
H769 C779 0.929 . S
H770 C774 0.929 . S
H771 C780 0.929 1_545 S
C772 H766 0.930 . S
C772 C773 1.367 . S
C772 C780 1.378 . S
C773 C772 1.367 . S
C773 C781 1.433 . S
C774 H770 0.929 . S
C774 C776 1.378 . S
C774 C778 1.350 . S
C775 C778 1.463 . S
C775 C780 1.350 1_545 S
C775 N783 1.427 1_545 S
C776 H767 0.930 . S
C776 C774 1.378 . S
C776 C777 1.367 . S
C777 C776 1.367 . S
C777 C779 1.433 . S
C778 C774 1.350 . S
C778 C775 1.463 . S
C778 N782 1.427 . S
C779 H769 0.929 . S
C779 C777 1.433 . S
C779 N782 1.384 . S
C780 H771 0.929 1_565 S
C780 C772 1.378 . S
C780 C775 1.350 1_565 S
C781 H768 0.929 . S
C781 C773 1.433 . S
C781 N783 1.384 . S
N782 C778 1.427 . S
N782 C779 1.384 . S
N783 C775 1.427 1_565 S
N783 C781 1.384 . S
C215 C95 1.511 . S
C219 C10 1.509 . S
C233 C56 1.505 . S
C237 C17 1.507 . S
C251 C75 1.510 . S
C255 C30 1.512 . S
C269 C49 1.510 . S
C273 C88 1.512 . S
C287 C205 1.517 . S
C291 C108 1.516 . S
C305 C166 1.508 . S
C309 C127 1.511 . S
C323 C140 1.512 . S
C327 C173 1.510 . S
C341 C153 1.503 . S
C345 C192 1.503 . S
C359 C29 1.192 . S
C363 C5 1.187 . S
C377 C16 1.190 . S
C381 C44 1.184 . S
C395 C55 1.184 . S
C399 C83 1.189 . S
C413 C94 1.192 . S
C417 C70 1.186 . S
C431 C107 1.180 . S
C435 C135 1.178 . S
C449 C122 1.185 . S
C453 C148 1.180 . S
C467 C187 1.191 . S
C471 C161 1.196 . S
C485 C172 1.182 . S
C489 C200 1.187 . S
C503 C81 1.354 . S
C507 C3 1.361 . S
C521 C18 1.348 . S
C525 C96 1.353 . S
C539 C31 1.350 . S
C543 C57 1.350 . S
C557 C42 1.361 . S
C561 C68 1.356 . S
C575 C109 1.357 . S
C579 C185 1.349 . S
C593 C120 1.361 . S
C597 C198 1.357 . S
C611 C133 1.360 . S
C615 C159 1.351 . S
C629 C146 1.353 . S
C633 C174 1.349 . S
C647 C4 1.301 . S
C651 C199 1.293 . S
C665 C160 1.294 . S
C669 C23 1.300 . S
C683 C36 1.294 . S
C687 C179 1.300 . S
C701 C186 1.297 . S
C705 C43 1.297 . S
C719 C121 1.294 . S
C723 C62 1.300 . S
C737 C69 1.297 . S
C741 C134 1.297 . S
C755 C147 1.296 . S
C759 C82 1.298 . S
C773 C114 1.294 . S
C777 C101 1.300 . S
