# Generated by pormake.
# Topology ske, (6)-cn, num edge types: 1
# Building blocks:
#     Node 0, Type 0, BuildingBlock: VOLQOD_clean_sbu_1, # of connection points: 6
#     Node 1, Type 0, BuildingBlock: VOLQOD_clean_sbu_1, # of connection points: 6
#     Node 2, Type 0, BuildingBlock: VOLQOD_clean_sbu_1, # of connection points: 6
#     Node 3, Type 0, BuildingBlock: VOLQOD_clean_sbu_1, # of connection points: 6
#     Node 4, Type 0, BuildingBlock: VOLQOD_clean_sbu_1, # of connection points: 6
#     Node 5, Type 0, BuildingBlock: VOLQOD_clean_sbu_1, # of connection points: 6
#     Node 6, Type 0, BuildingBlock: VOLQOD_clean_sbu_1, # of connection points: 6
#     Node 7, Type 0, BuildingBlock: VOLQOD_clean_sbu_1, # of connection points: 6
#     Edge 8, Type (0, 0), BuildingBlock: ZUJKAS_clean_linker_0, # of connection points: 2
#     Edge 9, Type (0, 0), BuildingBlock: ZUJKAS_clean_linker_0, # of connection points: 2
#     Edge 10, Type (0, 0), BuildingBlock: ZUJKAS_clean_linker_0, # of connection points: 2
#     Edge 11, Type (0, 0), BuildingBlock: ZUJKAS_clean_linker_0, # of connection points: 2
#     Edge 12, Type (0, 0), BuildingBlock: ZUJKAS_clean_linker_0, # of connection points: 2
#     Edge 13, Type (0, 0), BuildingBlock: ZUJKAS_clean_linker_0, # of connection points: 2
#     Edge 14, Type (0, 0), BuildingBlock: ZUJKAS_clean_linker_0, # of connection points: 2
#     Edge 15, Type (0, 0), BuildingBlock: ZUJKAS_clean_linker_0, # of connection points: 2
#     Edge 16, Type (0, 0), BuildingBlock: ZUJKAS_clean_linker_0, # of connection points: 2
#     Edge 17, Type (0, 0), BuildingBlock: ZUJKAS_clean_linker_0, # of connection points: 2
#     Edge 18, Type (0, 0), BuildingBlock: ZUJKAS_clean_linker_0, # of connection points: 2
#     Edge 19, Type (0, 0), BuildingBlock: ZUJKAS_clean_linker_0, # of connection points: 2
#     Edge 20, Type (0, 0), BuildingBlock: ZUJKAS_clean_linker_0, # of connection points: 2
#     Edge 21, Type (0, 0), BuildingBlock: ZUJKAS_clean_linker_0, # of connection points: 2
#     Edge 22, Type (0, 0), BuildingBlock: ZUJKAS_clean_linker_0, # of connection points: 2
#     Edge 23, Type (0, 0), BuildingBlock: ZUJKAS_clean_linker_0, # of connection points: 2
#     Edge 24, Type (0, 0), BuildingBlock: ZUJKAS_clean_linker_0, # of connection points: 2
#     Edge 25, Type (0, 0), BuildingBlock: ZUJKAS_clean_linker_0, # of connection points: 2
#     Edge 26, Type (0, 0), BuildingBlock: ZUJKAS_clean_linker_0, # of connection points: 2
#     Edge 27, Type (0, 0), BuildingBlock: ZUJKAS_clean_linker_0, # of connection points: 2
#     Edge 28, Type (0, 0), BuildingBlock: ZUJKAS_clean_linker_0, # of connection points: 2
#     Edge 29, Type (0, 0), BuildingBlock: ZUJKAS_clean_linker_0, # of connection points: 2
#     Edge 30, Type (0, 0), BuildingBlock: ZUJKAS_clean_linker_0, # of connection points: 2
#     Edge 31, Type (0, 0), BuildingBlock: ZUJKAS_clean_linker_0, # of connection points: 2
# Relax obj value: 0.030
# Max RMSD: 0.058
# Mean RMSD: 0.058
data_MOF--net-ske--node1-VOLQOD_clean_sbu_1--edge1-ZUJKAS_clean_linker_0
_symmetry_space_group_name_H-M    P1
_symmetry_Int_Tables_number       1
_symmetry_cell_setting            triclinic
loop_
_symmetry_equiv_pos_as_xyz
'x, y, z'
_cell_length_a     83.986221
_cell_length_b     42.287862
_cell_length_c     21.655197
_cell_angle_alpha  90.060881
_cell_angle_beta   90.08212
_cell_angle_gamma 90.062766
loop_
_atom_site_label
_atom_site_type_symbol
_atom_site_fract_x
_atom_site_fract_y
_atom_site_fract_z
_atom_type_partial_charge
O0 O 0.11303 0.27065 0.72597 0.0
Zn1 Zn 0.10882 0.27519 0.63468 0.0
O2 O 0.121 0.24395 0.58827 0.0
Zn3 Zn 0.13834 0.26425 0.54304 0.0
Zn4 Zn 0.12935 0.2126 0.64505 0.0
Zn5 Zn 0.1071 0.22305 0.5302 0.0
O6 O 0.13686 0.25544 0.45115 0.0
O7 O 0.11281 0.23389 0.44362 0.0
O8 O 0.11466 0.31931 0.60731 0.0
O9 O 0.13618 0.31135 0.54977 0.0
O10 O 0.15987 0.25147 0.57731 0.0
O11 O 0.15304 0.21571 0.6475 0.0
O12 O 0.12364 0.1679 0.62042 0.0
O13 O 0.08515 0.26888 0.62178 0.0
O14 O 0.10899 0.17623 0.53678 0.0
O15 O 0.08433 0.23378 0.5456 0.0
C16 C 0.11753 0.2469 0.75769 0.0
C17 C 0.12531 0.24502 0.41866 0.0
C18 C 0.1636 0.23183 0.61958 0.0
C19 C 0.12608 0.32987 0.5745 0.0
C20 C 0.11563 0.15748 0.57471 0.0
C21 C 0.07731 0.25176 0.58398 0.0
O22 O 0.12254 0.22172 0.73195 0.0
O23 O 0.86958 0.22172 0.71506 0.0
Zn24 Zn 0.8747 0.21403 0.62545 0.0
O25 O 0.86328 0.24407 0.57329 0.0
Zn26 Zn 0.84637 0.22281 0.52747 0.0
Zn27 Zn 0.85398 0.27727 0.62363 0.0
Zn28 Zn 0.87818 0.26253 0.51575 0.0
O29 O 0.84794 0.23194 0.43607 0.0
O30 O 0.87222 0.25245 0.42878 0.0
O31 O 0.86882 0.16928 0.60201 0.0
O32 O 0.8488 0.17592 0.5361 0.0
O33 O 0.8246 0.23498 0.55923 0.0
O34 O 0.83023 0.27632 0.61853 0.0
O35 O 0.86157 0.32063 0.59902 0.0
O36 O 0.89853 0.2186 0.61564 0.0
O37 O 0.87834 0.30961 0.52291 0.0
O38 O 0.90049 0.24865 0.53213 0.0
C39 C 0.8637 0.2456 0.74278 0.0
C40 C 0.85954 0.24204 0.40372 0.0
C41 C 0.82017 0.25759 0.59412 0.0
C42 C 0.8582 0.15799 0.56606 0.0
C43 C 0.87134 0.32949 0.55755 0.0
C44 C 0.90691 0.2324 0.57476 0.0
O45 O 0.85841 0.26936 0.7131 0.0
O46 O 0.11728 0.72026 0.24994 0.0
Zn47 Zn 0.11212 0.71307 0.33961 0.0
O48 O 0.1239 0.74286 0.39101 0.0
Zn49 Zn 0.14094 0.7215 0.43566 0.0
Zn50 Zn 0.13272 0.77617 0.33991 0.0
Zn51 Zn 0.10947 0.76122 0.45008 0.0
O52 O 0.13943 0.72966 0.52772 0.0
O53 O 0.11464 0.74745 0.53566 0.0
O54 O 0.11759 0.66822 0.36362 0.0
O55 O 0.1384 0.67462 0.42597 0.0
O56 O 0.16262 0.73423 0.40339 0.0
O57 O 0.15646 0.77458 0.34243 0.0
O58 O 0.126 0.81968 0.36799 0.0
O59 O 0.08837 0.71919 0.34903 0.0
O60 O 0.11124 0.80827 0.44986 0.0
O61 O 0.08683 0.75101 0.43029 0.0
C62 C 0.12259 0.74446 0.22153 0.0
C63 C 0.12746 0.73761 0.56037 0.0
C64 C 0.16674 0.7565 0.36712 0.0
C65 C 0.12854 0.6568 0.39779 0.0
C66 C 0.11779 0.82838 0.4144 0.0
C67 C 0.08017 0.73474 0.38808 0.0
O68 O 0.12753 0.76877 0.25062 0.0
O69 O 0.87279 0.76699 0.2533 0.0
Zn70 Zn 0.87782 0.7741 0.34322 0.0
O71 O 0.8665 0.74327 0.39405 0.0
Zn72 Zn 0.84959 0.76379 0.44076 0.0
Zn73 Zn 0.85718 0.71058 0.34245 0.0
Zn74 Zn 0.88148 0.72414 0.45064 0.0
O75 O 0.8516 0.75446 0.53179 0.0
O76 O 0.87599 0.7344 0.53794 0.0
O77 O 0.87174 0.8186 0.36792 0.0
O78 O 0.85168 0.81072 0.43292 0.0
O79 O 0.82775 0.75134 0.40986 0.0
O80 O 0.83344 0.7116 0.34679 0.0
O81 O 0.86446 0.66696 0.36627 0.0
O82 O 0.90166 0.76958 0.35269 0.0
O83 O 0.88114 0.67703 0.44335 0.0
O84 O 0.90384 0.73731 0.43292 0.0
C85 C 0.8671 0.74313 0.22477 0.0
C86 C 0.86338 0.74462 0.56356 0.0
C87 C 0.82334 0.72948 0.37308 0.0
C88 C 0.86098 0.82922 0.40381 0.0
C89 C 0.87402 0.65756 0.40804 0.0
C90 C 0.91016 0.75453 0.39154 0.0
O91 O 0.86186 0.71907 0.25361 0.0
O92 O 0.61701 0.76968 0.23006 0.0
Zn93 Zn 0.61194 0.77688 0.14038 0.0
O94 O 0.62372 0.74699 0.08928 0.0
Zn95 Zn 0.64064 0.76856 0.0441 0.0
Zn96 Zn 0.63293 0.7141 0.14044 0.0
Zn97 Zn 0.60911 0.72794 0.03129 0.0
O98 O 0.63894 0.76002 0.95233 0.0
O99 O 0.61446 0.74035 0.94518 0.0
O100 O 0.6174 0.82174 0.11631 0.0
O101 O 0.63798 0.81547 0.05305 0.0
O102 O 0.6625 0.75638 0.07584 0.0
O103 O 0.65663 0.71607 0.13727 0.0
O104 O 0.62631 0.67036 0.1136 0.0
O105 O 0.58816 0.77102 0.1307 0.0
O106 O 0.61028 0.68082 0.03474 0.0
O107 O 0.58655 0.7392 0.0495 0.0
C108 C 0.62257 0.74574 0.25853 0.0
C109 C 0.62708 0.7509 0.92009 0.0
C110 C 0.66679 0.73425 0.11213 0.0
C111 C 0.62819 0.83323 0.08152 0.0
C112 C 0.61733 0.66115 0.06968 0.0
C113 C 0.57993 0.75567 0.09133 0.0
O114 O 0.62783 0.72169 0.22957 0.0
O115 O 0.37266 0.72496 0.22543 0.0
Zn116 Zn 0.37728 0.71682 0.13582 0.0
O117 O 0.36611 0.74766 0.0845 0.0
Zn118 Zn 0.34923 0.72734 0.03708 0.0
Zn119 Zn 0.35684 0.78051 0.13556 0.0
Zn120 Zn 0.38116 0.7666 0.02822 0.0
O121 O 0.35128 0.73673 0.94613 0.0
O122 O 0.37596 0.7555 0.94116 0.0
O123 O 0.37066 0.67229 0.11302 0.0
O124 O 0.35138 0.68047 0.04448 0.0
O125 O 0.32736 0.73953 0.06783 0.0
O126 O 0.33311 0.77877 0.13215 0.0
O127 O 0.36363 0.82406 0.10933 0.0
O128 O 0.40119 0.72047 0.12566 0.0
O129 O 0.38057 0.81374 0.03346 0.0
O130 O 0.40345 0.75365 0.04692 0.0
C131 C 0.36728 0.74915 0.25364 0.0
C132 C 0.3633 0.74577 0.91495 0.0
C133 C 0.32299 0.76106 0.10534 0.0
C134 C 0.3602 0.66184 0.07541 0.0
C135 C 0.37317 0.83333 0.06744 0.0
C136 C 0.40973 0.73587 0.08748 0.0
O137 O 0.362 0.77309 0.22449 0.0
O138 O 0.6144 0.22099 0.75487 0.0
Zn139 Zn 0.60978 0.21601 0.84564 0.0
O140 O 0.62192 0.24687 0.89349 0.0
Zn141 Zn 0.63899 0.22581 0.93888 0.0
Zn142 Zn 0.63083 0.27846 0.83842 0.0
Zn143 Zn 0.60782 0.26768 0.95099 0.0
O144 O 0.63764 0.23517 0.03044 0.0
O145 O 0.6139 0.25802 0.0379 0.0
O146 O 0.61514 0.17154 0.87263 0.0
O147 O 0.63633 0.17882 0.93253 0.0
O148 O 0.66068 0.2375 0.90483 0.0
O149 O 0.65453 0.27578 0.83891 0.0
O150 O 0.62478 0.32297 0.86212 0.0
O151 O 0.58611 0.22264 0.85694 0.0
O152 O 0.60889 0.31459 0.94217 0.0
O153 O 0.58514 0.25587 0.9362 0.0
C154 C 0.61945 0.2446 0.72401 0.0
C155 C 0.62634 0.24654 0.06285 0.0
C156 C 0.6648 0.25836 0.86545 0.0
C157 C 0.62625 0.16061 0.90662 0.0
C158 C 0.61591 0.33331 0.90525 0.0
C159 C 0.57819 0.23873 0.89604 0.0
O160 O 0.62469 0.2694 0.75064 0.0
O161 O 0.37158 0.2742 0.7601 0.0
Zn162 Zn 0.37588 0.27961 0.85107 0.0
O163 O 0.36473 0.24731 0.89867 0.0
Zn164 Zn 0.34724 0.26594 0.9455 0.0
Zn165 Zn 0.35655 0.21546 0.8427 0.0
Zn166 Zn 0.37947 0.22757 0.9552 0.0
O167 O 0.34887 0.2554 0.03629 0.0
O168 O 0.37341 0.23608 0.04259 0.0
O169 O 0.36907 0.32315 0.87836 0.0
O170 O 0.34901 0.31314 0.94232 0.0
O171 O 0.32576 0.25305 0.91047 0.0
O172 O 0.33285 0.21738 0.84047 0.0
O173 O 0.36302 0.17139 0.867 0.0
O174 O 0.39973 0.27592 0.86281 0.0
O175 O 0.37944 0.18065 0.94528 0.0
O176 O 0.40175 0.24184 0.94028 0.0
C177 C 0.3676 0.24977 0.72918 0.0
C178 C 0.36062 0.24548 0.06813 0.0
C179 C 0.32218 0.23326 0.86819 0.0
C180 C 0.35819 0.33257 0.91502 0.0
C181 C 0.37239 0.16156 0.90903 0.0
C182 C 0.40814 0.26029 0.90112 0.0
O183 O 0.36315 0.22441 0.75571 0.0
H184 H 0.19042 0.25734 0.56657 0.0
H185 H 0.21776 0.25491 0.60615 0.0
H186 H 0.20167 0.19923 0.7608 0.0
H187 H 0.17461 0.20063 0.72098 0.0
H188 H 0.2292 0.27734 0.71325 0.0
H189 H 0.23912 0.14811 0.70494 0.0
H190 H 0.22252 0.16678 0.66662 0.0
H191 H 0.22158 0.15797 0.7479 0.0
C192 C 0.19276 0.24419 0.60851 0.0
C193 C 0.18034 0.22902 0.64032 0.0
C194 C 0.20837 0.24288 0.63113 0.0
C195 C 0.21179 0.22643 0.68589 0.0
C196 C 0.19941 0.21129 0.71758 0.0
H197 H 0.29514 0.25909 0.91899 0.0
H198 H 0.26805 0.25695 0.87691 0.0
C199 C 0.18389 0.2123 0.69479 0.0
C200 C 0.2281 0.22645 0.71201 0.0
H201 H 0.25726 0.17798 0.76727 0.0
C202 C 0.23541 0.25562 0.72459 0.0
C203 C 0.23624 0.19809 0.72626 0.0
C204 C 0.22952 0.16599 0.71012 0.0
C205 C 0.25055 0.25723 0.75192 0.0
C206 C 0.25836 0.22888 0.76877 0.0
C207 C 0.25114 0.19971 0.75532 0.0
C208 C 0.27444 0.22881 0.79709 0.0
C209 C 0.25815 0.28926 0.7611 0.0
C210 C 0.28683 0.21248 0.76783 0.0
C211 C 0.30217 0.21312 0.7923 0.0
C212 C 0.30551 0.2303 0.84652 0.0
C213 C 0.29299 0.24588 0.87692 0.0
C214 C 0.27754 0.24491 0.85263 0.0
H215 H 0.25266 0.30746 0.73084 0.0
H216 H 0.25645 0.29686 0.8097 0.0
H217 H 0.27112 0.28843 0.75148 0.0
H218 H 0.2847 0.19977 0.72513 0.0
H219 H 0.3115 0.20082 0.76756 0.0
H220 H 0.67824 0.30496 0.79591 0.0
H221 H 0.70471 0.30536 0.74987 0.0
H222 H 0.71574 0.21734 0.84062 0.0
H223 H 0.68923 0.21685 0.88781 0.0
H224 H 0.74076 0.26144 0.84283 0.0
H225 H 0.71633 0.24631 0.60638 0.0
H226 H 0.70828 0.27962 0.64718 0.0
H227 H 0.7045 0.24026 0.6749 0.0
C228 C 0.68632 0.28579 0.80667 0.0
C229 C 0.68156 0.26066 0.84501 0.0
C230 C 0.70141 0.28599 0.77996 0.0
C231 C 0.71198 0.26097 0.79058 0.0
C232 C 0.70764 0.2367 0.8314 0.0
H233 H 0.7961 0.21477 0.57526 0.0
H234 H 0.76951 0.21571 0.6214 0.0
C235 C 0.69253 0.23652 0.85846 0.0
C236 C 0.72742 0.25991 0.75794 0.0
H237 H 0.74397 0.25806 0.61402 0.0
C238 C 0.74149 0.26058 0.79285 0.0
C239 C 0.72829 0.2583 0.69273 0.0
C240 C 0.71356 0.25577 0.65303 0.0
C241 C 0.75645 0.26043 0.76417 0.0
C242 C 0.7573 0.26015 0.69888 0.0
C243 C 0.74325 0.2587 0.66402 0.0
C244 C 0.77273 0.26105 0.66613 0.0
C245 C 0.7712 0.26018 0.80403 0.0
C246 C 0.78303 0.28685 0.67389 0.0
C247 C 0.79819 0.2864 0.64775 0.0
C248 C 0.80329 0.26021 0.61287 0.0
C249 C 0.79256 0.23527 0.60193 0.0
C250 C 0.77739 0.2357 0.62841 0.0
H251 H 0.76857 0.25209 0.85175 0.0
H252 H 0.7805 0.24459 0.78403 0.0
H253 H 0.77611 0.28451 0.80696 0.0
H254 H 0.77947 0.30701 0.70152 0.0
H255 H 0.80608 0.30618 0.65651 0.0
H256 H 0.2986 0.71969 0.08103 0.0
H257 H 0.27168 0.72103 0.12415 0.0
H258 H 0.28227 0.80974 0.21377 0.0
H259 H 0.30919 0.80844 0.1718 0.0
H260 H 0.27015 0.7649 0.29331 0.0
H261 H 0.23275 0.775 0.08263 0.0
H262 H 0.24679 0.74299 0.08081 0.0
H263 H 0.25386 0.78311 0.08249 0.0
C264 C 0.2951 0.73979 0.1089 0.0
C265 C 0.30606 0.76388 0.1232 0.0
C266 C 0.2797 0.74055 0.13341 0.0
C267 C 0.27499 0.76556 0.17192 0.0
C268 C 0.2857 0.79021 0.18424 0.0
H269 H 0.17998 0.80493 0.30183 0.0
H270 H 0.20674 0.80762 0.25872 0.0
C271 C 0.30107 0.78943 0.16007 0.0
C272 C 0.25933 0.76506 0.20303 0.0
H273 H 0.2193 0.76408 0.17667 0.0
C274 C 0.25901 0.76483 0.26787 0.0
C275 C 0.24487 0.76522 0.16964 0.0
C276 C 0.24451 0.76688 0.10005 0.0
C277 C 0.24458 0.7645 0.30034 0.0
C278 C 0.23012 0.76386 0.26694 0.0
C279 C 0.23043 0.76436 0.2021 0.0
C280 C 0.21447 0.76324 0.29813 0.0
C281 C 0.24492 0.76544 0.36998 0.0
C282 C 0.21006 0.7376 0.33554 0.0
C283 C 0.19475 0.73603 0.36069 0.0
C284 C 0.18357 0.75994 0.34819 0.0
C285 C 0.18825 0.78604 0.31224 0.0
C286 C 0.20354 0.78762 0.28739 0.0
H287 H 0.25659 0.77388 0.38781 0.0
H288 H 0.2354 0.78107 0.38822 0.0
H289 H 0.24287 0.74126 0.38816 0.0
H290 H 0.21827 0.7183 0.34359 0.0
H291 H 0.19149 0.71552 0.38779 0.0
H292 H 0.69133 0.77596 0.09244 0.0
H293 H 0.71821 0.7733 0.13608 0.0
H294 H 0.70723 0.68289 0.21761 0.0
H295 H 0.68038 0.68545 0.17508 0.0
H296 H 0.71963 0.72588 0.30123 0.0
H297 H 0.75679 0.71907 0.08969 0.0
H298 H 0.74291 0.75136 0.09076 0.0
H299 H 0.73564 0.71139 0.08902 0.0
C300 C 0.69474 0.75524 0.11866 0.0
C301 C 0.68369 0.73099 0.13047 0.0
C302 C 0.71011 0.75374 0.14348 0.0
C303 C 0.7147 0.72783 0.17985 0.0
C304 C 0.70389 0.70311 0.18978 0.0
H305 H 0.80955 0.68245 0.30516 0.0
H306 H 0.78263 0.68132 0.26285 0.0
C307 C 0.68855 0.70462 0.16528 0.0
C308 C 0.73038 0.72724 0.21098 0.0
H309 H 0.7704 0.72704 0.18459 0.0
C310 C 0.73075 0.72605 0.27579 0.0
C311 C 0.74481 0.72718 0.17757 0.0
C312 C 0.7451 0.72703 0.1079 0.0
C313 C 0.74521 0.72503 0.3082 0.0
C314 C 0.75964 0.72573 0.27483 0.0
C315 C 0.75928 0.72668 0.21001 0.0
C316 C 0.77533 0.72511 0.30597 0.0
C317 C 0.74491 0.72262 0.3777 0.0
C318 C 0.78002 0.74984 0.34529 0.0
C319 C 0.79542 0.7505 0.36997 0.0
C320 C 0.8064 0.7266 0.35509 0.0
C321 C 0.80142 0.70131 0.31741 0.0
C322 C 0.78605 0.70063 0.29302 0.0
H323 H 0.73317 0.71426 0.39482 0.0
H324 H 0.75428 0.70625 0.39456 0.0
H325 H 0.7472 0.74631 0.39793 0.0
H326 H 0.77199 0.76921 0.35509 0.0
H327 H 0.7989 0.77041 0.39847 0.0
H328 H 0.10357 0.85458 0.51545 0.0
H329 H 0.10233 0.91029 0.54369 0.0
H330 H 0.12724 0.93507 0.37654 0.0
H331 H 0.12885 0.8791 0.34821 0.0
H332 H 0.13969 0.9638 0.48 0.0
H333 H 0.07414 0.97908 0.47199 0.0
H334 H 0.08043 0.94705 0.52051 0.0
H335 H 0.08402 0.94524 0.43872 0.0
C336 C 0.10867 0.87183 0.48425 0.0
C337 C 0.11628 0.86236 0.4294 0.0
C338 C 0.10787 0.9037 0.50042 0.0
C339 C 0.11447 0.92678 0.46176 0.0
C340 C 0.122 0.91754 0.40682 0.0
H341 H 0.101 0.12795 0.47806 0.0
H342 H 0.10082 0.07171 0.45403 0.0
C343 C 0.12288 0.88558 0.39067 0.0
C344 C 0.11411 0.96044 0.48008 0.0
H345 H 0.08905 0.02088 0.51768 0.0
C346 C 0.12863 0.97636 0.48803 0.0
C347 C 0.09964 0.97672 0.49013 0.0
C348 C 0.08367 0.96126 0.47935 0.0
C349 C 0.1291 0.00819 0.50613 0.0
C350 C 0.11464 0.02422 0.5178 0.0
C351 C 0.10011 0.00835 0.50948 0.0
C352 C 0.11429 0.05805 0.53492 0.0
C353 C 0.14503 0.02456 0.5111 0.0
C354 C 0.12165 0.06892 0.58919 0.0
C355 C 0.12187 0.10123 0.60305 0.0
C356 C 0.11459 0.12308 0.56306 0.0
C357 C 0.10678 0.11185 0.50985 0.0
C358 C 0.10663 0.07967 0.49598 0.0
H359 H 0.15453 0.0113 0.48657 0.0
H360 H 0.14444 0.04885 0.49184 0.0
H361 H 0.14847 0.02635 0.56047 0.0
H362 H 0.12733 0.05246 0.62051 0.0
H363 H 0.12789 0.10907 0.6446 0.0
H364 H 0.89566 0.35652 0.49307 0.0
H365 H 0.89953 0.41252 0.47027 0.0
H366 H 0.85714 0.4352 0.57352 0.0
H367 H 0.85345 0.37931 0.59817 0.0
H368 H 0.8805 0.44982 0.40559 0.0
H369 H 0.88772 0.49991 0.63995 0.0
H370 H 0.88865 0.45796 0.62501 0.0
H371 H 0.8697 0.4774 0.63328 0.0
C372 C 0.88727 0.37347 0.51162 0.0
C373 C 0.87425 0.36352 0.54748 0.0
C374 C 0.88951 0.40545 0.49854 0.0
C375 C 0.87875 0.42806 0.52084 0.0
C376 C 0.86582 0.41824 0.55718 0.0
H377 H 0.85557 0.60878 0.36611 0.0
H378 H 0.85837 0.55271 0.39056 0.0
C379 C 0.86368 0.38627 0.57092 0.0
C380 C 0.8804 0.46158 0.5025 0.0
H381 H 0.88114 0.53673 0.55949 0.0
C382 C 0.88084 0.46882 0.43925 0.0
C383 C 0.88114 0.4863 0.54641 0.0
C384 C 0.88196 0.47999 0.61492 0.0
C385 C 0.8814 0.50021 0.41869 0.0
C386 C 0.88102 0.52497 0.46258 0.0
C387 C 0.8812 0.51771 0.52584 0.0
C388 C 0.87996 0.55858 0.44419 0.0
C389 C 0.88246 0.50645 0.35021 0.0
C390 C 0.89101 0.58056 0.46707 0.0
C391 C 0.88928 0.61268 0.45411 0.0
C392 C 0.87648 0.62338 0.4178 0.0
C393 C 0.86563 0.60124 0.39372 0.0
C394 C 0.86728 0.56915 0.40734 0.0
H395 H 0.88796 0.48619 0.32546 0.0
H396 H 0.87029 0.50974 0.33131 0.0
H397 H 0.88953 0.52807 0.34038 0.0
H398 H 0.90086 0.57291 0.49574 0.0
H399 H 0.89787 0.62916 0.47316 0.0
H400 H 0.83745 0.86031 0.46586 0.0
H401 H 0.83628 0.91638 0.49177 0.0
H402 H 0.88055 0.93205 0.39578 0.0
H403 H 0.88171 0.87594 0.36853 0.0
H404 H 0.85789 0.94945 0.56118 0.0
H405 H 0.85221 0.00184 0.32732 0.0
H406 H 0.84909 0.96029 0.34197 0.0
H407 H 0.86896 0.97585 0.33587 0.0
C408 C 0.84687 0.87569 0.44957 0.0
C409 C 0.85969 0.86363 0.41505 0.0
C410 C 0.84618 0.90773 0.46455 0.0
C411 C 0.85825 0.92838 0.4453 0.0
C412 C 0.87096 0.91659 0.4101 0.0
H413 H 0.87945 0.11265 0.60307 0.0
H414 H 0.87918 0.05646 0.5764 0.0
C415 C 0.87162 0.8845 0.39475 0.0
C416 C 0.85786 0.9619 0.46474 0.0
H417 H 0.85711 0.03749 0.4101 0.0
C418 C 0.85766 0.96873 0.5282 0.0
C419 C 0.85739 0.98692 0.42155 0.0
C420 C 0.85677 0.98095 0.35287 0.0
C421 C 0.85715 -0.0 0.54973 0.0
C422 C 0.85717 0.02504 0.50655 0.0
C423 C 0.85721 0.0182 0.44308 0.0
C424 C 0.85693 0.05858 0.52597 0.0
C425 C 0.8563 0.00589 0.61839 0.0
C426 C 0.84458 0.07839 0.50606 0.0
C427 C 0.84477 0.11052 0.5207 0.0
C428 C 0.85734 0.12347 0.55552 0.0
C429 C 0.86953 0.1034 0.5766 0.0
C430 C 0.86937 0.07125 0.56159 0.0
H431 H 0.85204 0.98467 0.64372 0.0
H432 H 0.86836 0.01181 0.63589 0.0
H433 H 0.84826 0.026 0.62903 0.0
H434 H 0.83488 0.06904 0.47849 0.0
H435 H 0.83517 0.12527 0.50381 0.0
H436 H 0.10685 0.61167 0.36278 0.0
H437 H 0.10658 0.55582 0.39231 0.0
H438 H 0.15131 0.56801 0.48745 0.0
H439 H 0.15161 0.62383 0.45911 0.0
H440 H 0.12811 0.50661 0.37185 0.0
H441 H 0.1219 0.53293 0.62177 0.0
H442 H 0.11895 0.56248 0.56277 0.0
H443 H 0.13875 0.55169 0.5863 0.0
C444 C 0.1167 0.60243 0.38953 0.0
C445 C 0.12916 0.62232 0.40919 0.0
C446 C 0.11651 0.57053 0.40642 0.0
C447 C 0.12874 0.55805 0.44321 0.0
C448 C 0.14156 0.57743 0.46034 0.0
H449 H 0.1497 0.36111 0.51278 0.0
H450 H 0.15016 0.41657 0.48192 0.0
C451 C 0.14174 0.60929 0.44375 0.0
C452 C 0.12799 0.5249 0.46465 0.0
H453 H 0.12701 0.47941 0.59472 0.0
C454 C 0.12781 0.50061 0.42053 0.0
C455 C 0.12734 0.51726 0.5282 0.0
C456 C 0.12658 0.54244 0.57755 0.0
C457 C 0.12737 0.46874 0.43835 0.0
C458 C 0.12738 0.46108 0.50196 0.0
C459 C 0.12719 0.48539 0.54603 0.0
C460 C 0.12749 0.42794 0.52366 0.0
C461 C 0.12667 0.44358 0.38893 0.0
C462 C 0.11491 0.41634 0.55973 0.0
C463 C 0.11467 0.38467 0.57809 0.0
C464 C 0.12703 0.3641 0.56072 0.0
C465 C 0.1399 0.37619 0.5265 0.0
C466 C 0.14015 0.40784 0.50841 0.0
H467 H 0.12244 0.45329 0.34416 0.0
H468 H 0.13877 0.43378 0.3817 0.0
H469 H 0.11867 0.4239 0.40274 0.0
H470 H 0.1051 0.43161 0.57242 0.0
H471 H 0.10459 0.37616 0.60447 0.0
H472 H 0.59439 0.63269 -0.00015 0.0
H473 H 0.59227 0.57679 0.97281 0.0
H474 H 0.63435 0.55688 0.08042 0.0
H475 H 0.63627 0.61266 0.10934 0.0
H476 H 0.61274 0.54186 0.9089 0.0
H477 H 0.60466 0.48912 0.14069 0.0
H478 H 0.60301 0.53107 0.12707 0.0
H479 H 0.62228 0.51301 0.13614 0.0
C480 C 0.60309 0.61635 0.01841 0.0
C481 C 0.61548 0.62705 0.05689 0.0
C482 C 0.60187 0.58444 0.00283 0.0
C483 C 0.61304 0.56262 0.02517 0.0
C484 C 0.62537 0.57317 0.0639 0.0
H485 H 0.63551 0.38055 0.86446 0.0
H486 H 0.634 0.43677 0.89037 0.0
C487 C 0.6265 0.60508 0.08017 0.0
C488 C 0.61222 0.52917 0.00526 0.0
H489 H 0.61126 0.45347 0.05906 0.0
C490 C 0.61228 0.52251 0.94171 0.0
C491 C 0.61138 0.50401 0.04808 0.0
C492 C 0.61016 0.50964 0.11675 0.0
C493 C 0.61184 0.49131 0.91978 0.0
C494 C 0.61182 0.46612 0.96268 0.0
C495 C 0.61144 0.47281 0.0262 0.0
C496 C 0.6122 0.43258 0.94309 0.0
C497 C 0.61114 0.48573 0.85098 0.0
C498 C 0.60057 0.41151 0.96475 0.0
C499 C 0.60158 0.37936 0.95101 0.0
C500 C 0.61419 0.36768 0.91499 0.0
C501 C 0.62557 0.38892 0.8918 0.0
C502 C 0.62468 0.42108 0.90632 0.0
H503 H 0.60621 0.50656 0.82628 0.0
H504 H 0.62337 0.48163 0.8334 0.0
H505 H 0.60375 0.46473 0.8396 0.0
H506 H 0.59085 0.41989 -0.0068 0.0
H507 H 0.59258 0.3636 0.96931 0.0
H508 H 0.35369 0.88137 0.10465 0.0
H509 H 0.3554 0.93707 0.07545 0.0
H510 H 0.39872 0.91828 0.97508 0.0
H511 H 0.39682 0.86236 0.00234 0.0
H512 H 0.37738 0.98195 0.09571 0.0
H513 H 0.37179 0.95974 0.844 0.0
H514 H 0.36833 0.92937 0.90083 0.0
H515 H 0.38832 0.9397 0.87887 0.0
C516 C 0.36363 0.88912 0.07665 0.0
C517 C 0.37502 0.86745 0.0552 0.0
C518 C 0.36458 0.92092 0.05994 0.0
C519 C 0.37698 0.93161 0.02191 0.0
C520 C 0.38879 0.91032 0.0029 0.0
H521 H 0.39641 0.13223 0.97126 0.0
H522 H 0.39866 0.07604 -0.00435 0.0
C523 C 0.38774 0.87844 0.0189 0.0
C524 C 0.37742 0.96501 0.00192 0.0
H525 H 0.37741 0.01246 0.87452 0.0
C526 C 0.37739 0.98866 0.04737 0.0
C527 C 0.3772 0.97361 0.93877 0.0
C528 C 0.37625 0.9493 0.88778 0.0
C529 C 0.3771 0.02075 0.03146 0.0
C530 C 0.37735 0.02936 0.96832 0.0
C531 C 0.3774 0.00573 0.92285 0.0
C532 C 0.37689 0.0628 0.94859 0.0
C533 C 0.37603 0.04503 0.08248 0.0
C534 C 0.36439 0.07363 0.91111 0.0
C535 C 0.36324 0.10564 0.89605 0.0
C536 C 0.37452 0.12731 0.91868 0.0
C537 C 0.3874 0.11614 0.95396 0.0
C538 C 0.38866 0.0841 0.96826 0.0
H539 H 0.37155 0.03449 0.12612 0.0
H540 H 0.38806 0.05482 0.09174 0.0
H541 H 0.36805 0.06483 0.06927 0.0
H542 H 0.35525 0.05747 0.89508 0.0
H543 H 0.35319 0.11354 0.86871 0.0
H544 H 0.34231 0.35946 0.01142 0.0
H545 H 0.34177 0.41509 0.04075 0.0
H546 H 0.37026 0.43849 0.88156 0.0
H547 H 0.37134 0.38254 0.85292 0.0
H548 H 0.38151 0.46622 0.98325 0.0
H549 H 0.31646 0.48661 0.96959 0.0
H550 H 0.32151 0.45461 0.02019 0.0
H551 H 0.32572 0.4515 0.93891 0.0
C552 C 0.3483 0.37645 0.98212 0.0
C553 C 0.35682 0.3666 0.92964 0.0
C554 C 0.34791 0.4083 -0.00114 0.0
C555 C 0.35574 0.43101 0.96279 0.0
C556 C 0.36408 0.42133 0.90992 0.0
H557 H 0.34423 0.63264 0.98178 0.0
H558 H 0.34336 0.57641 0.95808 0.0
C559 C 0.36466 0.38939 0.89354 0.0
C560 C 0.35588 0.46464 0.98185 0.0
H561 H 0.33182 0.5268 0.01871 0.0
C562 C 0.37065 0.47954 -0.00929 0.0
C563 C 0.34169 0.482 -0.00884 0.0
C564 C 0.32546 0.46796 0.97887 0.0
C565 C 0.37165 0.51136 0.00859 0.0
C566 C 0.35746 0.52843 0.01976 0.0
C567 C 0.34269 0.51353 0.01091 0.0
C568 C 0.35763 0.56237 0.03666 0.0
C569 C 0.38788 0.52656 0.01346 0.0
C570 C 0.36571 0.57314 0.0895 0.0
C571 C 0.36642 0.60548 0.10287 0.0
C572 C 0.3588 0.62746 0.06418 0.0
C573 C 0.35023 0.61639 0.01264 0.0
C574 C 0.34971 0.58421 -0.00104 0.0
H575 H 0.39704 0.51292 0.98782 0.0
H576 H 0.3877 0.5511 -0.00468 0.0
H577 H 0.39153 0.52742 0.06269 0.0
H578 H 0.37155 0.55658 0.12015 0.0
H579 H 0.37298 0.61324 0.14324 0.0
H580 H 0.6044 0.11496 0.87591 0.0
H581 H 0.60448 0.05938 0.90736 0.0
H582 H 0.64963 0.07305 -0.00134 0.0
H583 H 0.64958 0.1286 0.96846 0.0
H584 H 0.62592 0.01107 0.88487 0.0
H585 H 0.62182 0.03647 0.13566 0.0
H586 H 0.61826 0.06618 0.07748 0.0
H587 H 0.63829 0.05575 0.09865 0.0
C588 C 0.6144 0.10612 0.90236 0.0
C589 C 0.62691 0.12633 0.92016 0.0
C590 C 0.6144 0.07438 0.92039 0.0
C591 C 0.62688 0.06235 0.95651 0.0
C592 C 0.63968 0.0821 0.97218 0.0
H593 H 0.65085 0.86638 0.01825 0.0
H594 H 0.65031 0.92217 -0.01023 0.0
C595 C 0.63967 0.11381 0.95446 0.0
C596 C 0.62657 0.02913 0.97782 0.0
H597 H 0.62748 0.98321 0.10738 0.0
C598 C 0.62619 0.00494 0.93349 0.0
C599 C 0.62665 0.02127 0.04134 0.0
C600 C 0.62612 0.04626 0.09109 0.0
C601 C 0.6263 0.97302 0.95095 0.0
C602 C 0.62711 0.96517 0.0144 0.0
C603 C 0.62707 0.98934 0.05878 0.0
C604 C 0.62796 0.93195 0.03549 0.0
C605 C 0.62536 0.94799 0.90133 0.0
C606 C 0.61594 0.91936 0.07313 0.0
C607 C 0.61628 0.88748 0.09013 0.0
C608 C 0.62867 0.8677 0.06976 0.0
C609 C 0.64104 0.88082 0.03422 0.0
C610 C 0.64071 0.91267 0.01751 0.0
H611 H 0.62047 0.95762 0.85752 0.0
H612 H 0.63749 0.93889 0.89177 0.0
H613 H 0.61781 0.92783 0.91625 0.0
H614 H 0.60608 0.93399 0.08792 0.0
H615 H 0.60659 0.87817 0.11762 0.0
H616 H 0.10575 0.21526 0.33688 0.0
H617 H 0.10583 0.21925 0.22476 0.0
H618 H 0.14611 0.28249 0.23334 0.0
H619 H 0.14634 0.27814 0.34625 0.0
H620 H 0.10158 0.27262 0.15519 0.0
H621 H 0.16021 0.21704 0.10609 0.0
H622 H 0.15066 0.21417 0.18048 0.0
H623 H 0.16073 0.24994 0.15862 0.0
C624 C 0.11473 0.22988 0.31509 0.0
C625 C 0.12606 0.24638 0.35052 0.0
C626 C 0.11473 0.23215 0.25095 0.0
C627 C 0.12603 0.25099 0.22078 0.0
C628 C 0.13745 0.2674 0.25575 0.0
H629 H 0.11379 0.29969 0.8297 0.0
H630 H 0.11617 0.30331 0.9421 0.0
C631 C 0.13754 0.26495 0.3202 0.0
C632 C 0.12539 0.25381 0.15275 0.0
H633 H 0.14577 0.23665 0.0208 0.0
C634 C 0.11127 0.26492 0.12569 0.0
C635 C 0.13802 0.24352 0.11464 0.0
C636 C 0.15322 0.23024 0.14121 0.0
C637 C 0.10926 0.26537 0.06142 0.0
C638 C 0.12189 0.25509 0.02328 0.0
C639 C 0.13615 0.24462 0.0503 0.0
C640 C 0.12025 0.25324 0.95535 0.0
C641 C 0.09344 0.27565 0.03513 0.0
C642 C 0.12199 0.22399 0.92558 0.0
C643 C 0.1208 0.22188 0.86149 0.0
C644 C 0.11782 0.24901 0.82584 0.0
C645 C 0.11593 0.27829 0.85586 0.0
C646 C 0.11725 0.28041 0.92008 0.0
H647 H 0.08389 0.27545 0.07059 0.0
H648 H 0.09452 0.30015 0.01728 0.0
H649 H 0.08977 0.26009 -0.00371 0.0
H650 H 0.1243 0.20274 0.95204 0.0
H651 H 0.12232 0.19896 0.83989 0.0
H652 H 0.88338 0.25344 0.32153 0.0
H653 H 0.88171 0.25424 0.20936 0.0
H654 H 0.83168 0.23167 0.21865 0.0
H655 H 0.83327 0.23014 0.33167 0.0
H656 H 0.84754 0.19676 0.13099 0.0
H657 H 0.86194 0.32381 0.10594 0.0
H658 H 0.87666 0.30318 0.15037 0.0
H659 H 0.85662 0.30641 0.17913 0.0
C660 C 0.87198 0.24873 0.29995 0.0
C661 C 0.85841 0.24198 0.33562 0.0
C662 C 0.87105 0.24937 0.23576 0.0
C663 C 0.85651 0.24373 0.20588 0.0
C664 C 0.84298 0.23637 0.24105 0.0
H665 H 0.84618 0.2855 0.81466 0.0
H666 H 0.84293 0.28402 0.9265 0.0
C667 C 0.84392 0.23551 0.30551 0.0
C668 C 0.85565 0.24497 0.13779 0.0
H669 H 0.86452 0.29204 0.01483 0.0
C670 C 0.85107 0.21767 0.10546 0.0
C671 C 0.85999 0.27248 0.10473 0.0
C672 C 0.86392 0.30322 0.13684 0.0
C673 C 0.85133 0.21676 0.04072 0.0
C674 C 0.85669 0.24362 0.00782 0.0
C675 C 0.86066 0.27129 0.04018 0.0
C676 C 0.85836 0.24365 0.93984 0.0
C677 C 0.84577 0.18712 0.0083 0.0
C678 C 0.86829 0.22166 0.91033 0.0
C679 C 0.8701 0.22228 0.84624 0.0
C680 C 0.86222 0.24526 0.81074 0.0
C681 C 0.85249 0.26757 0.84065 0.0
C682 C 0.85057 0.26672 0.90456 0.0
H683 H 0.8376 0.17308 0.0379 0.0
H684 H 0.83956 0.19278 0.96439 0.0
H685 H 0.85623 0.1721 -0.00246 0.0
H686 H 0.87478 0.20421 0.93691 0.0
H687 H 0.87776 0.20491 0.82461 0.0
H688 H 0.10985 0.70103 0.14154 0.0
H689 H 0.11279 0.69935 0.0293 0.0
H690 H 0.14157 0.78386 0.03562 0.0
H691 H 0.13837 0.78624 0.14748 0.0
H692 H 0.1196 0.78716 0.94688 0.0
H693 H 0.15119 0.6726 0.92988 0.0
H694 H 0.13266 0.66937 0.97052 0.0
H695 H 0.14849 0.69307 0.00229 0.0
C696 C 0.11681 0.71925 0.11906 0.0
C697 C 0.12388 0.74376 0.15347 0.0
C698 C 0.11861 0.71808 0.05498 0.0
C699 C 0.12769 0.74108 0.02434 0.0
C700 C 0.13461 0.76574 0.05846 0.0
H701 H 0.15395 0.72943 0.6332 0.0
H702 H 0.15516 0.73076 0.7464 0.0
C703 C 0.13271 0.7671 0.12239 0.0
C704 C 0.12939 0.74033 0.95636 0.0
H705 H 0.14054 0.69342 0.83556 0.0
C706 C 0.12432 0.76677 0.9226 0.0
C707 C 0.13583 0.71396 0.92483 0.0
C708 C 0.14251 0.68578 0.95878 0.0
C709 C 0.12499 0.76713 0.85801 0.0
C710 C 0.13049 0.74 0.82635 0.0
C711 C 0.13613 0.71401 0.86004 0.0
C712 C 0.12983 0.73782 0.7583 0.0
C713 C 0.11982 0.79664 0.82432 0.0
C714 C 0.11516 0.74048 0.72793 0.0
C715 C 0.11443 0.73994 0.66371 0.0
C716 C 0.12837 0.7363 0.62848 0.0
C717 C 0.14302 0.73239 0.65905 0.0
C718 C 0.14374 0.73315 0.7236 0.0
H719 H 0.12072 0.81789 0.85434 0.0
H720 H 0.12711 0.80061 0.78229 0.0
H721 H 0.10719 0.79407 0.81007 0.0
H722 H 0.10424 0.74323 0.75398 0.0
H723 H 0.10292 0.74256 0.64172 0.0
H724 H 0.88754 0.73367 0.64484 0.0
H725 H 0.88629 0.73365 0.75715 0.0
H726 H 0.83622 0.7559 0.74949 0.0
H727 H 0.83739 0.75666 0.63645 0.0
H728 H 0.85245 0.79163 0.83519 0.0
H729 H 0.86682 0.66468 0.86312 0.0
H730 H 0.88139 0.68522 0.81781 0.0
H731 H 0.86129 0.68159 0.78968 0.0
C732 C 0.87622 0.73846 0.66685 0.0
C733 C 0.86252 0.74492 0.63167 0.0
C734 C 0.87553 0.73828 0.73109 0.0
C735 C 0.8611 0.7441 0.76143 0.0
C736 C 0.84744 0.7511 0.72671 0.0
H737 H 0.84967 0.70369 0.1515 0.0
H738 H 0.84698 0.70522 0.03946 0.0
C739 C 0.84813 0.75151 0.66224 0.0
C740 C 0.86046 0.74335 0.82953 0.0
H741 H 0.86914 0.69686 0.95353 0.0
C742 C 0.85594 0.77085 0.86122 0.0
C743 C 0.86477 0.71602 0.86315 0.0
C744 C 0.86868 0.68511 0.8317 0.0
C745 C 0.85612 0.77207 0.92593 0.0
C746 C 0.86134 0.7453 0.95942 0.0
C747 C 0.86537 0.71751 0.92768 0.0
C748 C 0.86266 0.74539 0.02748 0.0
C749 C 0.85058 0.80187 0.95767 0.0
C750 C 0.87251 0.7673 0.05782 0.0
C751 C 0.87399 0.76667 0.12205 0.0
C752 C 0.86585 0.74374 0.1568 0.0
C753 C 0.85617 0.72156 0.12608 0.0
C754 C 0.85457 0.72244 0.06206 0.0
H755 H 0.84263 0.816 0.92736 0.0
H756 H 0.84415 0.7964 0.00112 0.0
H757 H 0.86108 0.81672 0.96919 0.0
H758 H 0.8792 0.78466 0.03179 0.0
H759 H 0.88162 0.78392 0.14437 0.0
H760 H 0.63883 0.70498 0.33318 0.0
H761 H 0.64113 0.70672 0.44546 0.0
H762 H 0.61092 0.78911 0.4505 0.0
H763 H 0.60885 0.78808 0.33785 0.0
H764 H 0.63734 0.795 0.52505 0.0
H765 H 0.60675 0.68053 0.56637 0.0
H766 H 0.62355 0.67766 0.51558 0.0
H767 H 0.60638 0.70012 0.49244 0.0
C768 C 0.63258 0.72338 0.35811 0.0
C769 C 0.62354 0.74626 0.32662 0.0
C770 C 0.63389 0.72428 0.42229 0.0
C771 C 0.626 0.74774 0.4562 0.0
C772 C 0.61707 0.77076 0.42502 0.0
H773 H 0.60231 0.74542 0.83979 0.0
H774 H 0.60318 0.74615 0.72751 0.0
C775 C 0.61586 0.77006 0.36073 0.0
C776 C 0.62705 0.74833 0.52428 0.0
H777 H 0.61871 0.70511 0.65303 0.0
C778 C 0.63326 0.7754 0.55318 0.0
C779 C 0.6216 0.72277 0.56061 0.0
C780 C 0.61405 0.69374 0.5323 0.0
C781 C 0.63412 0.77766 0.61774 0.0
C782 C 0.6289 0.75187 0.65397 0.0
C783 C 0.62281 0.72474 0.62498 0.0
C784 C 0.62867 0.75308 0.72215 0.0
C785 C 0.64012 0.80793 0.64652 0.0
C786 C 0.64275 0.75688 0.7564 0.0
C787 C 0.64229 0.75676 0.82097 0.0
C788 C 0.62777 0.75235 0.85203 0.0
C789 C 0.61372 0.74867 0.81736 0.0
C790 C 0.61418 0.7491 0.75314 0.0
H791 H 0.64003 0.82785 0.61311 0.0
H792 H 0.63281 0.8146 0.68716 0.0
H793 H 0.65257 0.80446 0.66236 0.0
H794 H 0.65411 0.75937 0.73327 0.0
H795 H 0.65332 0.75946 0.84645 0.0
H796 H 0.33725 0.73718 0.8402 0.0
H797 H 0.33667 0.73746 0.72709 0.0
H798 H 0.38749 0.75224 0.72335 0.0
H799 H 0.38817 0.75278 0.83571 0.0
H800 H 0.37172 0.79239 0.64739 0.0
H801 H 0.35165 0.66864 0.60926 0.0
H802 H 0.33878 0.69175 0.65766 0.0
H803 H 0.35862 0.68265 0.68328 0.0
C804 C 0.3483 0.74032 0.81522 0.0
C805 C 0.36275 0.74499 0.84687 0.0
C806 C 0.34796 0.7403 0.75068 0.0
C807 C 0.36207 0.74448 0.71705 0.0
C808 C 0.37648 0.74896 0.74857 0.0
H809 H 0.38164 0.7078 0.33313 0.0
H810 H 0.38 0.70753 0.44587 0.0
C811 C 0.37682 0.74927 0.81281 0.0
C812 C 0.36195 0.74529 0.64892 0.0
H813 H 0.35387 0.70118 0.52072 0.0
C814 C 0.36781 0.77247 0.61961 0.0
C815 C 0.35699 0.7191 0.6131 0.0
C816 C 0.35128 0.68875 0.64229 0.0
C817 C 0.36898 0.77415 0.55523 0.0
C818 C 0.36373 0.74821 0.51932 0.0
C819 C 0.35779 0.72106 0.54856 0.0
C820 C 0.36465 0.74852 0.45128 0.0
C821 C 0.37624 0.8033 0.52648 0.0
C822 C 0.35646 0.77152 0.41725 0.0
C823 C 0.35752 0.77198 0.35303 0.0
C824 C 0.36659 0.7491 0.32169 0.0
C825 C 0.37459 0.72578 0.35594 0.0
C826 C 0.37363 0.72553 0.42025 0.0
H827 H 0.3835 0.81686 0.56029 0.0
H828 H 0.38388 0.79702 0.48653 0.0
H829 H 0.36658 0.81902 0.5098 0.0
H830 H 0.34916 0.789 0.44033 0.0
H831 H 0.35104 0.79001 0.32796 0.0
H832 H 0.60766 0.27845 0.14435 0.0
H833 H 0.60797 0.27517 0.2566 0.0
H834 H 0.64693 0.20892 0.24842 0.0
H835 H 0.64695 0.21256 0.13546 0.0
H836 H 0.60273 0.22251 0.32669 0.0
H837 H 0.66255 0.27332 0.37502 0.0
H838 H 0.653 0.27675 0.30062 0.0
H839 H 0.66238 0.2403 0.32277 0.0
C840 C 0.6164 0.26334 0.16628 0.0
C841 C 0.62729 0.24576 0.13097 0.0
C842 C 0.61654 0.26148 0.23048 0.0
C843 C 0.62753 0.24198 0.26078 0.0
C844 C 0.63854 0.22455 0.2259 0.0
H845 H 0.61484 0.19256 0.65066 0.0
H846 H 0.61715 0.18951 0.53823 0.0
C847 C 0.6385 0.22658 0.16142 0.0
C848 C 0.62693 0.23934 0.32882 0.0
H849 H 0.64797 0.2543 0.4605 0.0
C850 C 0.61263 0.22934 0.35604 0.0
C851 C 0.63985 0.24847 0.36676 0.0
C852 C 0.65528 0.26058 0.34002 0.0
C853 C 0.61077 0.2288 0.42033 0.0
C854 C 0.6237 0.23781 0.45831 0.0
C855 C 0.63811 0.24727 0.43112 0.0
C856 C 0.62228 0.2393 0.52631 0.0
C857 C 0.59479 0.21974 0.44684 0.0
C858 C 0.62468 0.26817 0.55683 0.0
C859 C 0.62353 0.26995 0.62097 0.0
C860 C 0.61993 0.24285 0.65586 0.0
C861 C 0.61746 0.21393 0.62509 0.0
C862 C 0.61874 0.21214 0.56085 0.0
H863 H 0.58517 0.22103 0.41167 0.0
H864 H 0.59534 0.19505 0.46401 0.0
H865 H 0.59158 0.23533 0.48618 0.0
H866 H 0.62742 0.2894 0.53093 0.0
H867 H 0.62551 0.29259 0.64315 0.0
H868 H 0.38091 0.21685 0.1487 0.0
H869 H 0.38072 0.21986 0.26103 0.0
H870 H 0.3388 0.27861 0.25464 0.0
H871 H 0.33868 0.27524 0.14169 0.0
H872 H 0.38358 0.27343 0.33155 0.0
H873 H 0.32668 0.21114 0.38071 0.0
H874 H 0.33621 0.20959 0.30613 0.0
H875 H 0.32507 0.24398 0.32854 0.0
C876 C 0.37154 0.23022 0.17105 0.0
C877 C 0.35979 0.24581 0.13625 0.0
C878 C 0.37148 0.23193 0.23527 0.0
C879 C 0.3597 0.24927 0.26606 0.0
C880 C 0.34784 0.26465 0.2317 0.0
H881 H 0.36996 0.30212 0.65534 0.0
H882 H 0.36776 0.30419 0.54275 0.0
C883 C 0.34781 0.26277 0.16723 0.0
C884 C 0.36033 0.25195 0.33406 0.0
H885 H 0.3403 0.2333 0.46596 0.0
C886 C 0.37411 0.26476 0.36105 0.0
C887 C 0.34798 0.2404 0.37214 0.0
C888 C 0.3332 0.22524 0.34561 0.0
C889 C 0.37601 0.26586 0.42532 0.0
C890 C 0.36362 0.25448 0.46344 0.0
C891 C 0.34973 0.24213 0.43646 0.0
C892 C 0.36515 0.25358 0.53141 0.0
C893 C 0.39148 0.27813 0.45167 0.0
C894 C 0.36416 0.22452 0.56224 0.0
C895 C 0.36524 0.22327 0.62641 0.0
C896 C 0.36736 0.25112 0.66103 0.0
C897 C 0.36849 0.28022 0.62996 0.0
C898 C 0.36728 0.28145 0.56565 0.0
H899 H 0.40109 0.27859 0.41646 0.0
H900 H 0.38971 0.30266 0.46855 0.0
H901 H 0.39548 0.26342 0.49118 0.0
H902 H 0.36253 0.20274 0.53656 0.0
H903 H 0.36433 0.20047 0.64887 0.0
H904 H 0.05705 0.22213 0.50414 0.0
H905 H 0.02811 0.2192 0.50965 0.0
H906 H 0.02861 0.27666 0.6743 0.0
H907 H 0.05769 0.2802 0.66876 0.0
H908 H 0.00978 0.19445 0.60484 0.0
H909 H -0.0039 0.32131 0.56321 0.0
H910 H 0.01546 0.30452 0.54815 0.0
H911 H 0.00959 0.31363 0.62589 0.0
C912 C 0.05105 0.23439 0.54137 0.0
C913 C 0.0597 0.25149 0.58596 0.0
C914 C 0.0345 0.23258 0.54449 0.0
C915 C 0.02624 0.24786 0.5921 0.0
C916 C 0.03477 0.2651 0.63663 0.0
H917 H 0.92547 0.21047 0.6699 0.0
H918 H 0.95452 0.21319 0.6783 0.0
C919 C 0.05138 0.26704 0.63344 0.0
C920 C 0.00872 0.24508 0.59518 0.0
H921 H 0.97436 0.2876 0.5839 0.0
C922 C 0.002 0.21479 0.60056 0.0
C923 C -0.00133 0.27169 0.58909 0.0
C924 C 0.00526 0.30463 0.58073 0.0
C925 C 0.98545 0.21032 0.59909 0.0
C926 C 0.97541 0.23694 0.59315 0.0
C927 C 0.98212 0.26727 0.58874 0.0
C928 C 0.95792 0.23385 0.58785 0.0
C929 C 0.97889 0.17711 0.60172 0.0
C930 C 0.95024 0.24471 0.53444 0.0
C931 C 0.93371 0.24342 0.52967 0.0
C932 C 0.92449 0.23124 0.57834 0.0
C933 C 0.93223 0.21977 0.63142 0.0
C934 C 0.94882 0.22124 0.63627 0.0
H935 H 0.98821 0.15912 0.59215 0.0
H936 H 0.97408 0.17257 0.64857 0.0
H937 H 0.96905 0.17398 0.56796 0.0
H938 H 0.95707 0.25447 0.49653 0.0
H939 H 0.92815 0.25239 0.48806 0.0
H940 H 0.92837 0.78088 0.29976 0.0
H941 H 0.95734 0.77748 0.28804 0.0
H942 H 0.96056 0.72661 0.46006 0.0
H943 H 0.93176 0.72945 0.4719 0.0
H944 H 0.98188 0.79853 0.36414 0.0
H945 H 0.98357 0.66825 0.3389 0.0
H946 H 0.96538 0.69073 0.33241 0.0
H947 H 0.97324 0.68068 0.40721 0.0
C948 C 0.93525 0.7691 0.33524 0.0
C949 C 0.92772 0.75518 0.38648 0.0
C950 C 0.95178 0.76712 0.32836 0.0
C951 C 0.961 0.75112 0.37244 0.0
C952 C 0.95359 0.73829 0.42469 0.0
H953 H 0.0591 0.7616 0.46822 0.0
H954 H 0.03031 0.76566 0.45729 0.0
C955 C 0.93712 0.74016 0.43155 0.0
C956 C 0.97842 0.74807 0.36475 0.0
H957 H 0.0084 0.69369 0.36228 0.0
C958 C 0.98769 0.77564 0.36296 0.0
C959 C 0.98592 0.71816 0.36197 0.0
C960 C 0.9765 0.68777 0.35955 0.0
C961 C 0.00437 0.77406 0.36165 0.0
C962 C 0.01189 0.74415 0.36334 0.0
C963 C 0.0026 0.71659 0.36188 0.0
C964 C 0.02934 0.74099 0.36978 0.0
C965 C 0.01377 0.80446 0.35894 0.0
C966 C 0.03827 0.72461 0.32537 0.0
C967 C 0.05479 0.72191 0.33175 0.0
C968 C 0.06261 0.73547 0.38284 0.0
C969 C 0.05351 0.75111 0.428 0.0
C970 C 0.03705 0.7537 0.42164 0.0
H971 H 0.00661 0.82398 0.33882 0.0
H972 H 0.01724 0.81152 0.40646 0.0
H973 H 0.02478 0.80154 0.33117 0.0
H974 H 0.03248 0.71433 0.28534 0.0
H975 H 0.06144 0.70968 0.29619 0.0
H976 H 0.55889 0.7303 0.00901 0.0
H977 H 0.53003 0.72701 0.01806 0.0
H978 H 0.53213 0.77605 0.1926 0.0
H979 H 0.56115 0.77994 0.18361 0.0
H980 H 0.51261 0.69753 0.11107 0.0
H981 H 0.49862 0.82584 0.09501 0.0
H982 H 0.51781 0.80997 0.07405 0.0
H983 H 0.51267 0.81499 0.15394 0.0
C984 C 0.55326 0.74064 0.04919 0.0
C985 C 0.56234 0.75547 0.09555 0.0
C986 C 0.53675 0.73863 0.05433 0.0
C987 C 0.52896 0.75142 0.10578 0.0
C988 C 0.53792 0.76644 0.15207 0.0
H989 H 0.42805 0.71023 0.17989 0.0
H990 H 0.4571 0.71283 0.18997 0.0
C991 C 0.55449 0.76859 0.14688 0.0
C992 C 0.51147 0.7484 0.11074 0.0
H993 H 0.47703 0.79104 0.10979 0.0
C994 C 0.5048 0.71794 0.11122 0.0
C995 C 0.50138 0.77513 0.11056 0.0
C996 C 0.50791 0.80836 0.10787 0.0
C997 C 0.48825 0.71345 0.11013 0.0
C998 C 0.47817 0.74018 0.10954 0.0
C999 C 0.48484 0.77063 0.1105 0.0
C1000 C 0.46069 0.73724 0.10331 0.0
C1001 C 0.48171 0.68023 0.10712 0.0
C1002 C 0.45314 0.7502 0.05145 0.0
C1003 C 0.43663 0.74895 0.04572 0.0
C1004 C 0.4273 0.73471 0.09186 0.0
C1005 C 0.43491 0.72116 0.14334 0.0
C1006 C 0.45149 0.72257 0.14915 0.0
H1007 H 0.49106 0.66269 0.09516 0.0
H1008 H 0.47672 0.67375 0.1528 0.0
H1009 H 0.47198 0.67856 0.07247 0.0
H1010 H 0.46005 0.76155 0.01549 0.0
H1011 H 0.43119 0.75953 0.00537 0.0
H1012 H 0.42668 0.28726 0.81108 0.0
H1013 H 0.45571 0.28399 0.80122 0.0
H1014 H 0.45825 0.23322 0.97354 0.0
H1015 H 0.4294 0.23594 0.9835 0.0
H1016 H 0.48028 0.30449 0.87861 0.0
H1017 H 0.481 0.17416 0.85263 0.0
H1018 H 0.46301 0.19722 0.8456 0.0
H1019 H 0.47064 0.18694 0.92062 0.0
C1020 C 0.43344 0.27561 0.84709 0.0
C1021 C 0.42571 0.26155 0.89772 0.0
C1022 C 0.45 0.27369 0.84127 0.0
C1023 C 0.45903 0.25766 0.88589 0.0
C1024 C 0.45143 0.24492 0.93777 0.0
H1025 H 0.55769 0.26545 0.97853 0.0
H1026 H 0.52886 0.27002 0.97001 0.0
C1027 C 0.43493 0.2467 0.94353 0.0
C1028 C 0.47643 0.25414 0.87873 0.0
H1029 H 0.50599 0.19886 0.87561 0.0
C1030 C 0.48592 0.28143 0.87726 0.0
C1031 C 0.48371 0.22401 0.87574 0.0
C1032 C 0.47406 0.19392 0.87307 0.0
C1033 C 0.50258 0.27936 0.87583 0.0
C1034 C 0.50987 0.2492 0.87707 0.0
C1035 C 0.50036 0.22194 0.87555 0.0
C1036 C 0.52731 0.24548 0.88248 0.0
C1037 C 0.51221 0.30947 0.87324 0.0
C1038 C 0.53592 0.2289 0.83738 0.0
C1039 C 0.55245 0.22588 0.84243 0.0
C1040 C 0.5606 0.23935 0.8928 0.0
C1041 C 0.55183 0.25506 0.9388 0.0
C1042 C 0.53535 0.25794 0.93381 0.0
H1043 H 0.50516 0.3293 0.85366 0.0
H1044 H 0.51584 0.31624 0.92075 0.0
H1045 H 0.52313 0.30632 0.84506 0.0
H1046 H 0.52987 0.2188 0.79776 0.0
H1047 H 0.55885 0.21361 0.80624 0.0
loop_
_geom_bond_atom_site_label_1
_geom_bond_atom_site_label_2
_geom_bond_distance
_geom_bond_site_symmetry_2
_ccdc_geom_bond_type
O0 Zn1 1.953 . S
O0 C16 1.225 . S
Zn1 O0 1.953 . S
Zn1 O2 1.949 . S
Zn1 O8 1.919 . S
Zn1 O13 1.924 . S
O2 Zn1 1.949 . S
O2 Zn3 1.923 . S
O2 Zn4 1.950 . S
O2 Zn5 1.945 . S
Zn3 O2 1.923 . S
Zn3 O6 1.933 . S
Zn3 O9 1.941 . S
Zn3 O10 1.965 . S
Zn4 O2 1.950 . S
Zn4 O11 1.938 . S
Zn4 O12 1.906 . S
Zn4 O22 1.953 . S
Zn5 O2 1.945 . S
Zn5 O7 1.932 . S
Zn5 O14 1.977 . S
Zn5 O15 1.910 . S
O6 Zn3 1.933 . S
O6 C17 1.226 . S
O7 Zn5 1.932 . S
O7 C17 1.307 . S
O8 Zn1 1.919 . S
O8 C19 1.253 . S
O9 Zn3 1.941 . S
O9 C19 1.283 . S
O10 Zn3 1.965 . S
O10 C18 1.303 . S
O11 Zn4 1.938 . S
O11 C18 1.247 . S
O12 Zn4 1.906 . S
O12 C20 1.304 . S
O13 Zn1 1.924 . S
O13 C21 1.311 . S
O14 Zn5 1.977 . S
O14 C20 1.272 . S
O15 Zn5 1.910 . S
O15 C21 1.231 . S
C16 O0 1.225 . S
C16 O22 1.298 . S
C17 O6 1.226 . S
C17 O7 1.307 . S
C18 O10 1.303 . S
C18 O11 1.247 . S
C19 O8 1.253 . S
C19 O9 1.283 . S
C20 O12 1.304 . S
C20 O14 1.272 . S
C21 O13 1.311 . S
C21 O15 1.231 . S
O22 Zn4 1.953 . S
O22 C16 1.298 . S
O23 Zn24 1.953 . S
O23 C39 1.225 . S
Zn24 O23 1.953 . S
Zn24 O25 1.949 . S
Zn24 O31 1.919 . S
Zn24 O36 1.924 . S
O25 Zn24 1.949 . S
O25 Zn26 1.923 . S
O25 Zn27 1.950 . S
O25 Zn28 1.945 . S
Zn26 O25 1.923 . S
Zn26 O29 1.933 . S
Zn26 O32 1.941 . S
Zn26 O33 1.965 . S
Zn27 O25 1.950 . S
Zn27 O34 1.938 . S
Zn27 O35 1.906 . S
Zn27 O45 1.953 . S
Zn28 O25 1.945 . S
Zn28 O30 1.932 . S
Zn28 O37 1.977 . S
Zn28 O38 1.910 . S
O29 Zn26 1.933 . S
O29 C40 1.226 . S
O30 Zn28 1.932 . S
O30 C40 1.307 . S
O31 Zn24 1.919 . S
O31 C42 1.253 . S
O32 Zn26 1.941 . S
O32 C42 1.283 . S
O33 Zn26 1.965 . S
O33 C41 1.303 . S
O34 Zn27 1.938 . S
O34 C41 1.247 . S
O35 Zn27 1.906 . S
O35 C43 1.304 . S
O36 Zn24 1.924 . S
O36 C44 1.311 . S
O37 Zn28 1.977 . S
O37 C43 1.272 . S
O38 Zn28 1.910 . S
O38 C44 1.231 . S
C39 O23 1.225 . S
C39 O45 1.298 . S
C40 O29 1.226 . S
C40 O30 1.307 . S
C41 O33 1.303 . S
C41 O34 1.247 . S
C42 O31 1.253 . S
C42 O32 1.283 . S
C43 O35 1.304 . S
C43 O37 1.272 . S
C44 O36 1.311 . S
C44 O38 1.231 . S
O45 Zn27 1.953 . S
O45 C39 1.298 . S
O46 Zn47 1.953 . S
O46 C62 1.225 . S
Zn47 O46 1.953 . S
Zn47 O48 1.949 . S
Zn47 O54 1.919 . S
Zn47 O59 1.924 . S
O48 Zn47 1.949 . S
O48 Zn49 1.923 . S
O48 Zn50 1.950 . S
O48 Zn51 1.945 . S
Zn49 O48 1.923 . S
Zn49 O52 1.933 . S
Zn49 O55 1.941 . S
Zn49 O56 1.965 . S
Zn50 O48 1.950 . S
Zn50 O57 1.938 . S
Zn50 O58 1.906 . S
Zn50 O68 1.953 . S
Zn51 O48 1.945 . S
Zn51 O53 1.932 . S
Zn51 O60 1.977 . S
Zn51 O61 1.910 . S
O52 Zn49 1.933 . S
O52 C63 1.226 . S
O53 Zn51 1.932 . S
O53 C63 1.307 . S
O54 Zn47 1.919 . S
O54 C65 1.253 . S
O55 Zn49 1.941 . S
O55 C65 1.283 . S
O56 Zn49 1.965 . S
O56 C64 1.303 . S
O57 Zn50 1.938 . S
O57 C64 1.247 . S
O58 Zn50 1.906 . S
O58 C66 1.304 . S
O59 Zn47 1.924 . S
O59 C67 1.311 . S
O60 Zn51 1.977 . S
O60 C66 1.272 . S
O61 Zn51 1.910 . S
O61 C67 1.231 . S
C62 O46 1.225 . S
C62 O68 1.298 . S
C63 O52 1.226 . S
C63 O53 1.307 . S
C64 O56 1.303 . S
C64 O57 1.247 . S
C65 O54 1.253 . S
C65 O55 1.283 . S
C66 O58 1.304 . S
C66 O60 1.272 . S
C67 O59 1.311 . S
C67 O61 1.231 . S
O68 Zn50 1.953 . S
O68 C62 1.298 . S
O69 Zn70 1.953 . S
O69 C85 1.225 . S
Zn70 O69 1.953 . S
Zn70 O71 1.949 . S
Zn70 O77 1.919 . S
Zn70 O82 1.924 . S
O71 Zn70 1.949 . S
O71 Zn72 1.923 . S
O71 Zn73 1.950 . S
O71 Zn74 1.945 . S
Zn72 O71 1.923 . S
Zn72 O75 1.933 . S
Zn72 O78 1.941 . S
Zn72 O79 1.965 . S
Zn73 O71 1.950 . S
Zn73 O80 1.938 . S
Zn73 O81 1.906 . S
Zn73 O91 1.953 . S
Zn74 O71 1.945 . S
Zn74 O76 1.932 . S
Zn74 O83 1.977 . S
Zn74 O84 1.910 . S
O75 Zn72 1.933 . S
O75 C86 1.226 . S
O76 Zn74 1.932 . S
O76 C86 1.307 . S
O77 Zn70 1.919 . S
O77 C88 1.253 . S
O78 Zn72 1.941 . S
O78 C88 1.283 . S
O79 Zn72 1.965 . S
O79 C87 1.303 . S
O80 Zn73 1.938 . S
O80 C87 1.247 . S
O81 Zn73 1.906 . S
O81 C89 1.304 . S
O82 Zn70 1.924 . S
O82 C90 1.311 . S
O83 Zn74 1.977 . S
O83 C89 1.272 . S
O84 Zn74 1.910 . S
O84 C90 1.231 . S
C85 O69 1.225 . S
C85 O91 1.298 . S
C86 O75 1.226 . S
C86 O76 1.307 . S
C87 O79 1.303 . S
C87 O80 1.247 . S
C88 O77 1.253 . S
C88 O78 1.283 . S
C89 O81 1.304 . S
C89 O83 1.272 . S
C90 O82 1.311 . S
C90 O84 1.231 . S
O91 Zn73 1.953 . S
O91 C85 1.298 . S
O92 Zn93 1.953 . S
O92 C108 1.225 . S
Zn93 O92 1.953 . S
Zn93 O94 1.949 . S
Zn93 O100 1.919 . S
Zn93 O105 1.924 . S
O94 Zn93 1.949 . S
O94 Zn95 1.923 . S
O94 Zn96 1.950 . S
O94 Zn97 1.945 . S
Zn95 O94 1.923 . S
Zn95 O98 1.933 1_554 S
Zn95 O101 1.941 . S
Zn95 O102 1.965 . S
Zn96 O94 1.950 . S
Zn96 O103 1.938 . S
Zn96 O104 1.906 . S
Zn96 O114 1.953 . S
Zn97 O94 1.945 . S
Zn97 O99 1.932 1_554 S
Zn97 O106 1.977 . S
Zn97 O107 1.910 . S
O98 Zn95 1.933 1_556 S
O98 C109 1.226 . S
O99 Zn97 1.932 1_556 S
O99 C109 1.307 . S
O100 Zn93 1.919 . S
O100 C111 1.253 . S
O101 Zn95 1.941 . S
O101 C111 1.283 . S
O102 Zn95 1.965 . S
O102 C110 1.303 . S
O103 Zn96 1.938 . S
O103 C110 1.247 . S
O104 Zn96 1.906 . S
O104 C112 1.304 . S
O105 Zn93 1.924 . S
O105 C113 1.311 . S
O106 Zn97 1.977 . S
O106 C112 1.272 . S
O107 Zn97 1.910 . S
O107 C113 1.231 . S
C108 O92 1.225 . S
C108 O114 1.298 . S
C109 O98 1.226 . S
C109 O99 1.307 . S
C110 O102 1.303 . S
C110 O103 1.247 . S
C111 O100 1.253 . S
C111 O101 1.283 . S
C112 O104 1.304 . S
C112 O106 1.272 . S
C113 O105 1.311 . S
C113 O107 1.231 . S
O114 Zn96 1.953 . S
O114 C108 1.298 . S
O115 Zn116 1.953 . S
O115 C131 1.225 . S
Zn116 O115 1.953 . S
Zn116 O117 1.949 . S
Zn116 O123 1.919 . S
Zn116 O128 1.924 . S
O117 Zn116 1.949 . S
O117 Zn118 1.923 . S
O117 Zn119 1.950 . S
O117 Zn120 1.945 . S
Zn118 O117 1.923 . S
Zn118 O121 1.933 1_554 S
Zn118 O124 1.941 . S
Zn118 O125 1.965 . S
Zn119 O117 1.950 . S
Zn119 O126 1.938 . S
Zn119 O127 1.906 . S
Zn119 O137 1.953 . S
Zn120 O117 1.945 . S
Zn120 O122 1.932 1_554 S
Zn120 O129 1.977 . S
Zn120 O130 1.910 . S
O121 Zn118 1.933 1_556 S
O121 C132 1.226 . S
O122 Zn120 1.932 1_556 S
O122 C132 1.307 . S
O123 Zn116 1.919 . S
O123 C134 1.253 . S
O124 Zn118 1.941 . S
O124 C134 1.283 . S
O125 Zn118 1.965 . S
O125 C133 1.303 . S
O126 Zn119 1.938 . S
O126 C133 1.247 . S
O127 Zn119 1.906 . S
O127 C135 1.304 . S
O128 Zn116 1.924 . S
O128 C136 1.311 . S
O129 Zn120 1.977 . S
O129 C135 1.272 . S
O130 Zn120 1.910 . S
O130 C136 1.231 . S
C131 O115 1.225 . S
C131 O137 1.298 . S
C132 O121 1.226 . S
C132 O122 1.307 . S
C133 O125 1.303 . S
C133 O126 1.247 . S
C134 O123 1.253 . S
C134 O124 1.283 . S
C135 O127 1.304 . S
C135 O129 1.272 . S
C136 O128 1.311 . S
C136 O130 1.231 . S
O137 Zn119 1.953 . S
O137 C131 1.298 . S
O138 Zn139 1.953 . S
O138 C154 1.225 . S
Zn139 O138 1.953 . S
Zn139 O140 1.949 . S
Zn139 O146 1.919 . S
Zn139 O151 1.924 . S
O140 Zn139 1.949 . S
O140 Zn141 1.923 . S
O140 Zn142 1.950 . S
O140 Zn143 1.945 . S
Zn141 O140 1.923 . S
Zn141 O144 1.933 1_556 S
Zn141 O147 1.941 . S
Zn141 O148 1.965 . S
Zn142 O140 1.950 . S
Zn142 O149 1.938 . S
Zn142 O150 1.906 . S
Zn142 O160 1.953 . S
Zn143 O140 1.945 . S
Zn143 O145 1.932 1_556 S
Zn143 O152 1.977 . S
Zn143 O153 1.910 . S
O144 Zn141 1.933 1_554 S
O144 C155 1.226 . S
O145 Zn143 1.932 1_554 S
O145 C155 1.307 . S
O146 Zn139 1.919 . S
O146 C157 1.253 . S
O147 Zn141 1.941 . S
O147 C157 1.283 . S
O148 Zn141 1.965 . S
O148 C156 1.303 . S
O149 Zn142 1.938 . S
O149 C156 1.247 . S
O150 Zn142 1.906 . S
O150 C158 1.304 . S
O151 Zn139 1.924 . S
O151 C159 1.311 . S
O152 Zn143 1.977 . S
O152 C158 1.272 . S
O153 Zn143 1.910 . S
O153 C159 1.231 . S
C154 O138 1.225 . S
C154 O160 1.298 . S
C155 O144 1.226 . S
C155 O145 1.307 . S
C156 O148 1.303 . S
C156 O149 1.247 . S
C157 O146 1.253 . S
C157 O147 1.283 . S
C158 O150 1.304 . S
C158 O152 1.272 . S
C159 O151 1.311 . S
C159 O153 1.231 . S
O160 Zn142 1.953 . S
O160 C154 1.298 . S
O161 Zn162 1.953 . S
O161 C177 1.225 . S
Zn162 O161 1.953 . S
Zn162 O163 1.949 . S
Zn162 O169 1.919 . S
Zn162 O174 1.924 . S
O163 Zn162 1.949 . S
O163 Zn164 1.923 . S
O163 Zn165 1.950 . S
O163 Zn166 1.945 . S
Zn164 O163 1.923 . S
Zn164 O167 1.933 1_556 S
Zn164 O170 1.941 . S
Zn164 O171 1.965 . S
Zn165 O163 1.950 . S
Zn165 O172 1.938 . S
Zn165 O173 1.906 . S
Zn165 O183 1.953 . S
Zn166 O163 1.945 . S
Zn166 O168 1.932 1_556 S
Zn166 O175 1.977 . S
Zn166 O176 1.910 . S
O167 Zn164 1.933 1_554 S
O167 C178 1.226 . S
O168 Zn166 1.932 1_554 S
O168 C178 1.307 . S
O169 Zn162 1.919 . S
O169 C180 1.253 . S
O170 Zn164 1.941 . S
O170 C180 1.283 . S
O171 Zn164 1.965 . S
O171 C179 1.303 . S
O172 Zn165 1.938 . S
O172 C179 1.247 . S
O173 Zn165 1.906 . S
O173 C181 1.304 . S
O174 Zn162 1.924 . S
O174 C182 1.311 . S
O175 Zn166 1.977 . S
O175 C181 1.272 . S
O176 Zn166 1.910 . S
O176 C182 1.231 . S
C177 O161 1.225 . S
C177 O183 1.298 . S
C178 O167 1.226 . S
C178 O168 1.307 . S
C179 O171 1.303 . S
C179 O172 1.247 . S
C180 O169 1.253 . S
C180 O170 1.283 . S
C181 O173 1.304 . S
C181 O175 1.272 . S
C182 O174 1.311 . S
C182 O176 1.231 . S
O183 Zn165 1.953 . S
O183 C177 1.298 . S
H184 C192 0.929 . S
H185 C194 0.930 . S
H186 C196 0.930 . S
H187 C199 0.929 . S
H188 C202 0.930 . S
H189 C204 0.960 . S
H190 C204 0.960 . S
H191 C204 0.960 . S
C192 H184 0.929 . S
C192 C193 1.377 . S
C192 C194 1.384 . S
C193 C192 1.377 . S
C193 C199 1.390 . S
C194 H185 0.930 . S
C194 C192 1.384 . S
C194 C195 1.372 . S
C195 C194 1.372 . S
C195 C196 1.400 . S
C195 C200 1.490 . S
C196 H186 0.930 . S
C196 C195 1.400 . S
C196 C199 1.386 . S
H197 C213 0.930 . S
H198 C214 0.931 . S
C199 H187 0.929 . S
C199 C193 1.390 . S
C199 C196 1.386 . S
C200 C195 1.490 . S
C200 C202 1.395 . S
C200 C203 1.403 . S
H201 C207 0.930 . S
C202 H188 0.930 . S
C202 C200 1.395 . S
C202 C205 1.403 . S
C203 C200 1.403 . S
C203 C204 1.524 . S
C203 C207 1.400 . S
C204 H189 0.960 . S
C204 H190 0.960 . S
C204 H191 0.960 . S
C204 C203 1.524 . S
C205 C202 1.403 . S
C205 C206 1.392 . S
C205 C209 1.495 . S
C206 C205 1.392 . S
C206 C207 1.385 . S
C206 C208 1.478 . S
C207 H201 0.930 . S
C207 C203 1.400 . S
C207 C206 1.385 . S
C208 C206 1.478 . S
C208 C210 1.381 . S
C208 C214 1.383 . S
C209 C205 1.495 . S
C209 H215 0.959 . S
C209 H216 0.961 . S
C209 H217 0.960 . S
C210 C208 1.381 . S
C210 C211 1.394 . S
C210 H218 0.930 . S
C211 C210 1.394 . S
C211 C212 1.383 . S
C211 H219 0.929 . S
C212 C211 1.383 . S
C212 C213 1.377 . S
C213 H197 0.930 . S
C213 C212 1.377 . S
C213 C214 1.379 . S
C214 H198 0.931 . S
C214 C208 1.383 . S
C214 C213 1.379 . S
H215 C209 0.959 . S
H216 C209 0.961 . S
H217 C209 0.960 . S
H218 C210 0.930 . S
H219 C211 0.929 . S
H220 C228 0.929 . S
H221 C230 0.930 . S
H222 C232 0.930 . S
H223 C235 0.929 . S
H224 C238 0.930 . S
H225 C240 0.960 . S
H226 C240 0.960 . S
H227 C240 0.960 . S
C228 H220 0.929 . S
C228 C229 1.377 . S
C228 C230 1.384 . S
C229 C228 1.377 . S
C229 C235 1.390 . S
C230 H221 0.930 . S
C230 C228 1.384 . S
C230 C231 1.372 . S
C231 C230 1.372 . S
C231 C232 1.400 . S
C231 C236 1.490 . S
C232 H222 0.930 . S
C232 C231 1.400 . S
C232 C235 1.386 . S
H233 C249 0.930 . S
H234 C250 0.931 . S
C235 H223 0.929 . S
C235 C229 1.390 . S
C235 C232 1.386 . S
C236 C231 1.490 . S
C236 C238 1.395 . S
C236 C239 1.403 . S
H237 C243 0.930 . S
C238 H224 0.930 . S
C238 C236 1.395 . S
C238 C241 1.403 . S
C239 C236 1.403 . S
C239 C240 1.524 . S
C239 C243 1.400 . S
C240 H225 0.960 . S
C240 H226 0.960 . S
C240 H227 0.960 . S
C240 C239 1.524 . S
C241 C238 1.403 . S
C241 C242 1.392 . S
C241 C245 1.495 . S
C242 C241 1.392 . S
C242 C243 1.385 . S
C242 C244 1.478 . S
C243 H237 0.930 . S
C243 C239 1.400 . S
C243 C242 1.385 . S
C244 C242 1.478 . S
C244 C246 1.381 . S
C244 C250 1.383 . S
C245 C241 1.495 . S
C245 H251 0.959 . S
C245 H252 0.961 . S
C245 H253 0.960 . S
C246 C244 1.381 . S
C246 C247 1.394 . S
C246 H254 0.930 . S
C247 C246 1.394 . S
C247 C248 1.383 . S
C247 H255 0.929 . S
C248 C247 1.383 . S
C248 C249 1.377 . S
C249 H233 0.930 . S
C249 C248 1.377 . S
C249 C250 1.379 . S
C250 H234 0.931 . S
C250 C244 1.383 . S
C250 C249 1.379 . S
H251 C245 0.959 . S
H252 C245 0.961 . S
H253 C245 0.960 . S
H254 C246 0.930 . S
H255 C247 0.929 . S
H256 C264 0.929 . S
H257 C266 0.930 . S
H258 C268 0.930 . S
H259 C271 0.929 . S
H260 C274 0.930 . S
H261 C276 0.960 . S
H262 C276 0.960 . S
H263 C276 0.960 . S
C264 H256 0.929 . S
C264 C265 1.377 . S
C264 C266 1.384 . S
C265 C264 1.377 . S
C265 C271 1.390 . S
C266 H257 0.930 . S
C266 C264 1.384 . S
C266 C267 1.372 . S
C267 C266 1.372 . S
C267 C268 1.400 . S
C267 C272 1.490 . S
C268 H258 0.930 . S
C268 C267 1.400 . S
C268 C271 1.386 . S
H269 C285 0.930 . S
H270 C286 0.931 . S
C271 H259 0.929 . S
C271 C265 1.390 . S
C271 C268 1.386 . S
C272 C267 1.490 . S
C272 C274 1.395 . S
C272 C275 1.403 . S
H273 C279 0.930 . S
C274 H260 0.930 . S
C274 C272 1.395 . S
C274 C277 1.403 . S
C275 C272 1.403 . S
C275 C276 1.524 . S
C275 C279 1.400 . S
C276 H261 0.960 . S
C276 H262 0.960 . S
C276 H263 0.960 . S
C276 C275 1.524 . S
C277 C274 1.403 . S
C277 C278 1.392 . S
C277 C281 1.495 . S
C278 C277 1.392 . S
C278 C279 1.385 . S
C278 C280 1.478 . S
C279 H273 0.930 . S
C279 C275 1.400 . S
C279 C278 1.385 . S
C280 C278 1.478 . S
C280 C282 1.381 . S
C280 C286 1.383 . S
C281 C277 1.495 . S
C281 H287 0.959 . S
C281 H288 0.961 . S
C281 H289 0.960 . S
C282 C280 1.381 . S
C282 C283 1.394 . S
C282 H290 0.930 . S
C283 C282 1.394 . S
C283 C284 1.383 . S
C283 H291 0.929 . S
C284 C283 1.383 . S
C284 C285 1.377 . S
C285 H269 0.930 . S
C285 C284 1.377 . S
C285 C286 1.379 . S
C286 H270 0.931 . S
C286 C280 1.383 . S
C286 C285 1.379 . S
H287 C281 0.959 . S
H288 C281 0.961 . S
H289 C281 0.960 . S
H290 C282 0.930 . S
H291 C283 0.929 . S
H292 C300 0.929 . S
H293 C302 0.930 . S
H294 C304 0.930 . S
H295 C307 0.929 . S
H296 C310 0.930 . S
H297 C312 0.960 . S
H298 C312 0.960 . S
H299 C312 0.960 . S
C300 H292 0.929 . S
C300 C301 1.377 . S
C300 C302 1.384 . S
C301 C300 1.377 . S
C301 C307 1.390 . S
C302 H293 0.930 . S
C302 C300 1.384 . S
C302 C303 1.372 . S
C303 C302 1.372 . S
C303 C304 1.400 . S
C303 C308 1.490 . S
C304 H294 0.930 . S
C304 C303 1.400 . S
C304 C307 1.386 . S
H305 C321 0.930 . S
H306 C322 0.931 . S
C307 H295 0.929 . S
C307 C301 1.390 . S
C307 C304 1.386 . S
C308 C303 1.490 . S
C308 C310 1.395 . S
C308 C311 1.403 . S
H309 C315 0.930 . S
C310 H296 0.930 . S
C310 C308 1.395 . S
C310 C313 1.403 . S
C311 C308 1.403 . S
C311 C312 1.524 . S
C311 C315 1.400 . S
C312 H297 0.960 . S
C312 H298 0.960 . S
C312 H299 0.960 . S
C312 C311 1.524 . S
C313 C310 1.403 . S
C313 C314 1.392 . S
C313 C317 1.495 . S
C314 C313 1.392 . S
C314 C315 1.385 . S
C314 C316 1.478 . S
C315 H309 0.930 . S
C315 C311 1.400 . S
C315 C314 1.385 . S
C316 C314 1.478 . S
C316 C318 1.381 . S
C316 C322 1.383 . S
C317 C313 1.495 . S
C317 H323 0.959 . S
C317 H324 0.961 . S
C317 H325 0.960 . S
C318 C316 1.381 . S
C318 C319 1.394 . S
C318 H326 0.930 . S
C319 C318 1.394 . S
C319 C320 1.383 . S
C319 H327 0.929 . S
C320 C319 1.383 . S
C320 C321 1.377 . S
C321 H305 0.930 . S
C321 C320 1.377 . S
C321 C322 1.379 . S
C322 H306 0.931 . S
C322 C316 1.383 . S
C322 C321 1.379 . S
H323 C317 0.959 . S
H324 C317 0.961 . S
H325 C317 0.960 . S
H326 C318 0.930 . S
H327 C319 0.929 . S
H328 C336 0.929 . S
H329 C338 0.930 . S
H330 C340 0.930 . S
H331 C343 0.929 . S
H332 C346 0.930 . S
H333 C348 0.960 . S
H334 C348 0.960 . S
H335 C348 0.960 . S
C336 H328 0.929 . S
C336 C337 1.377 . S
C336 C338 1.384 . S
C337 C336 1.377 . S
C337 C343 1.390 . S
C338 H329 0.930 . S
C338 C336 1.384 . S
C338 C339 1.372 . S
C339 C338 1.372 . S
C339 C340 1.400 . S
C339 C344 1.490 . S
C340 H330 0.930 . S
C340 C339 1.400 . S
C340 C343 1.386 . S
H341 C357 0.930 . S
H342 C358 0.931 . S
C343 H331 0.929 . S
C343 C337 1.390 . S
C343 C340 1.386 . S
C344 C339 1.490 . S
C344 C346 1.395 . S
C344 C347 1.403 . S
H345 C351 0.930 . S
C346 H332 0.930 . S
C346 C344 1.395 . S
C346 C349 1.403 1_565 S
C347 C344 1.403 . S
C347 C348 1.524 . S
C347 C351 1.400 1_565 S
C348 H333 0.960 . S
C348 H334 0.960 . S
C348 H335 0.960 . S
C348 C347 1.524 . S
C349 C346 1.403 1_545 S
C349 C350 1.392 . S
C349 C353 1.495 . S
C350 C349 1.392 . S
C350 C351 1.385 . S
C350 C352 1.478 . S
C351 H345 0.930 . S
C351 C347 1.400 1_545 S
C351 C350 1.385 . S
C352 C350 1.478 . S
C352 C354 1.381 . S
C352 C358 1.383 . S
C353 C349 1.495 . S
C353 H359 0.959 . S
C353 H360 0.961 . S
C353 H361 0.960 . S
C354 C352 1.381 . S
C354 C355 1.394 . S
C354 H362 0.930 . S
C355 C354 1.394 . S
C355 C356 1.383 . S
C355 H363 0.929 . S
C356 C355 1.383 . S
C356 C357 1.377 . S
C357 H341 0.930 . S
C357 C356 1.377 . S
C357 C358 1.379 . S
C358 H342 0.931 . S
C358 C352 1.383 . S
C358 C357 1.379 . S
H359 C353 0.959 . S
H360 C353 0.961 . S
H361 C353 0.960 . S
H362 C354 0.930 . S
H363 C355 0.929 . S
H364 C372 0.929 . S
H365 C374 0.930 . S
H366 C376 0.930 . S
H367 C379 0.929 . S
H368 C382 0.930 . S
H369 C384 0.960 . S
H370 C384 0.960 . S
H371 C384 0.960 . S
C372 H364 0.929 . S
C372 C373 1.377 . S
C372 C374 1.384 . S
C373 C372 1.377 . S
C373 C379 1.390 . S
C374 H365 0.930 . S
C374 C372 1.384 . S
C374 C375 1.372 . S
C375 C374 1.372 . S
C375 C376 1.400 . S
C375 C380 1.490 . S
C376 H366 0.930 . S
C376 C375 1.400 . S
C376 C379 1.386 . S
H377 C393 0.930 . S
H378 C394 0.931 . S
C379 H367 0.929 . S
C379 C373 1.390 . S
C379 C376 1.386 . S
C380 C375 1.490 . S
C380 C382 1.395 . S
C380 C383 1.403 . S
H381 C387 0.930 . S
C382 H368 0.930 . S
C382 C380 1.395 . S
C382 C385 1.403 . S
C383 C380 1.403 . S
C383 C384 1.524 . S
C383 C387 1.400 . S
C384 H369 0.960 . S
C384 H370 0.960 . S
C384 H371 0.960 . S
C384 C383 1.524 . S
C385 C382 1.403 . S
C385 C386 1.392 . S
C385 C389 1.495 . S
C386 C385 1.392 . S
C386 C387 1.385 . S
C386 C388 1.478 . S
C387 H381 0.930 . S
C387 C383 1.400 . S
C387 C386 1.385 . S
C388 C386 1.478 . S
C388 C390 1.381 . S
C388 C394 1.383 . S
C389 C385 1.495 . S
C389 H395 0.959 . S
C389 H396 0.961 . S
C389 H397 0.960 . S
C390 C388 1.381 . S
C390 C391 1.394 . S
C390 H398 0.930 . S
C391 C390 1.394 . S
C391 C392 1.383 . S
C391 H399 0.929 . S
C392 C391 1.383 . S
C392 C393 1.377 . S
C393 H377 0.930 . S
C393 C392 1.377 . S
C393 C394 1.379 . S
C394 H378 0.931 . S
C394 C388 1.383 . S
C394 C393 1.379 . S
H395 C389 0.959 . S
H396 C389 0.961 . S
H397 C389 0.960 . S
H398 C390 0.930 . S
H399 C391 0.929 . S
H400 C408 0.929 . S
H401 C410 0.930 . S
H402 C412 0.930 . S
H403 C415 0.929 . S
H404 C418 0.930 . S
H405 C420 0.960 1_545 S
H406 C420 0.960 . S
H407 C420 0.960 . S
C408 H400 0.929 . S
C408 C409 1.377 . S
C408 C410 1.384 . S
C409 C408 1.377 . S
C409 C415 1.390 . S
C410 H401 0.930 . S
C410 C408 1.384 . S
C410 C411 1.372 . S
C411 C410 1.372 . S
C411 C412 1.400 . S
C411 C416 1.490 . S
C412 H402 0.930 . S
C412 C411 1.400 . S
C412 C415 1.386 . S
H413 C429 0.930 . S
H414 C430 0.931 . S
C415 H403 0.929 . S
C415 C409 1.390 . S
C415 C412 1.386 . S
C416 C411 1.490 . S
C416 C418 1.395 . S
C416 C419 1.403 . S
H417 C423 0.930 . S
C418 H404 0.930 . S
C418 C416 1.395 . S
C418 C421 1.403 1_565 S
C419 C416 1.403 . S
C419 C420 1.524 . S
C419 C423 1.400 1_565 S
C420 H405 0.960 1_565 S
C420 H406 0.960 . S
C420 H407 0.960 . S
C420 C419 1.524 . S
C421 C418 1.403 1_545 S
C421 C422 1.392 . S
C421 C425 1.495 . S
C422 C421 1.392 . S
C422 C423 1.385 . S
C422 C424 1.478 . S
C423 H417 0.930 . S
C423 C419 1.400 1_545 S
C423 C422 1.385 . S
C424 C422 1.478 . S
C424 C426 1.381 . S
C424 C430 1.383 . S
C425 C421 1.495 . S
C425 H431 0.959 1_545 S
C425 H432 0.961 . S
C425 H433 0.960 . S
C426 C424 1.381 . S
C426 C427 1.394 . S
C426 H434 0.930 . S
C427 C426 1.394 . S
C427 C428 1.383 . S
C427 H435 0.929 . S
C428 C427 1.383 . S
C428 C429 1.377 . S
C429 H413 0.930 . S
C429 C428 1.377 . S
C429 C430 1.379 . S
C430 H414 0.931 . S
C430 C424 1.383 . S
C430 C429 1.379 . S
H431 C425 0.959 1_565 S
H432 C425 0.961 . S
H433 C425 0.960 . S
H434 C426 0.930 . S
H435 C427 0.929 . S
H436 C444 0.929 . S
H437 C446 0.930 . S
H438 C448 0.930 . S
H439 C451 0.929 . S
H440 C454 0.930 . S
H441 C456 0.960 . S
H442 C456 0.960 . S
H443 C456 0.960 . S
C444 H436 0.929 . S
C444 C445 1.377 . S
C444 C446 1.384 . S
C445 C444 1.377 . S
C445 C451 1.390 . S
C446 H437 0.930 . S
C446 C444 1.384 . S
C446 C447 1.372 . S
C447 C446 1.372 . S
C447 C448 1.400 . S
C447 C452 1.490 . S
C448 H438 0.930 . S
C448 C447 1.400 . S
C448 C451 1.386 . S
H449 C465 0.930 . S
H450 C466 0.931 . S
C451 H439 0.929 . S
C451 C445 1.390 . S
C451 C448 1.386 . S
C452 C447 1.490 . S
C452 C454 1.395 . S
C452 C455 1.403 . S
H453 C459 0.930 . S
C454 H440 0.930 . S
C454 C452 1.395 . S
C454 C457 1.403 . S
C455 C452 1.403 . S
C455 C456 1.524 . S
C455 C459 1.400 . S
C456 H441 0.960 . S
C456 H442 0.960 . S
C456 H443 0.960 . S
C456 C455 1.524 . S
C457 C454 1.403 . S
C457 C458 1.392 . S
C457 C461 1.495 . S
C458 C457 1.392 . S
C458 C459 1.385 . S
C458 C460 1.478 . S
C459 H453 0.930 . S
C459 C455 1.400 . S
C459 C458 1.385 . S
C460 C458 1.478 . S
C460 C462 1.381 . S
C460 C466 1.383 . S
C461 C457 1.495 . S
C461 H467 0.959 . S
C461 H468 0.961 . S
C461 H469 0.960 . S
C462 C460 1.381 . S
C462 C463 1.394 . S
C462 H470 0.930 . S
C463 C462 1.394 . S
C463 C464 1.383 . S
C463 H471 0.929 . S
C464 C463 1.383 . S
C464 C465 1.377 . S
C465 H449 0.930 . S
C465 C464 1.377 . S
C465 C466 1.379 . S
C466 H450 0.931 . S
C466 C460 1.383 . S
C466 C465 1.379 . S
H467 C461 0.959 . S
H468 C461 0.961 . S
H469 C461 0.960 . S
H470 C462 0.930 . S
H471 C463 0.929 . S
H472 C480 0.929 . S
H473 C482 0.930 . S
H474 C484 0.930 1_556 S
H475 C487 0.929 . S
H476 C490 0.930 . S
H477 C492 0.960 . S
H478 C492 0.960 . S
H479 C492 0.960 . S
C480 H472 0.929 . S
C480 C481 1.377 . S
C480 C482 1.384 . S
C481 C480 1.377 . S
C481 C487 1.390 . S
C482 H473 0.930 . S
C482 C480 1.384 . S
C482 C483 1.372 . S
C483 C482 1.372 . S
C483 C484 1.400 . S
C483 C488 1.490 . S
C484 H474 0.930 1_554 S
C484 C483 1.400 . S
C484 C487 1.386 . S
H485 C501 0.930 . S
H486 C502 0.931 . S
C487 H475 0.929 . S
C487 C481 1.390 . S
C487 C484 1.386 . S
C488 C483 1.490 . S
C488 C490 1.395 1_554 S
C488 C491 1.403 . S
H489 C495 0.930 . S
C490 H476 0.930 . S
C490 C488 1.395 1_556 S
C490 C493 1.403 . S
C491 C488 1.403 . S
C491 C492 1.524 . S
C491 C495 1.400 . S
C492 H477 0.960 . S
C492 H478 0.960 . S
C492 H479 0.960 . S
C492 C491 1.524 . S
C493 C490 1.403 . S
C493 C494 1.392 . S
C493 C497 1.495 . S
C494 C493 1.392 . S
C494 C495 1.385 1_556 S
C494 C496 1.478 . S
C495 H489 0.930 . S
C495 C491 1.400 . S
C495 C494 1.385 1_554 S
C496 C494 1.478 . S
C496 C498 1.381 . S
C496 C502 1.383 . S
C497 C493 1.495 . S
C497 H503 0.959 . S
C497 H504 0.961 . S
C497 H505 0.960 . S
C498 C496 1.381 . S
C498 C499 1.394 . S
C498 H506 0.930 1_556 S
C499 C498 1.394 . S
C499 C500 1.383 . S
C499 H507 0.929 . S
C500 C499 1.383 . S
C500 C501 1.377 . S
C501 H485 0.930 . S
C501 C500 1.377 . S
C501 C502 1.379 . S
C502 H486 0.931 . S
C502 C496 1.383 . S
C502 C501 1.379 . S
H503 C497 0.959 . S
H504 C497 0.961 . S
H505 C497 0.960 . S
H506 C498 0.930 1_554 S
H507 C499 0.929 . S
H508 C516 0.929 . S
H509 C518 0.930 . S
H510 C520 0.930 . S
H511 C523 0.929 . S
H512 C526 0.930 . S
H513 C528 0.960 . S
H514 C528 0.960 . S
H515 C528 0.960 . S
C516 H508 0.929 . S
C516 C517 1.377 . S
C516 C518 1.384 . S
C517 C516 1.377 . S
C517 C523 1.390 . S
C518 H509 0.930 . S
C518 C516 1.384 . S
C518 C519 1.372 . S
C519 C518 1.372 . S
C519 C520 1.400 . S
C519 C524 1.490 . S
C520 H510 0.930 . S
C520 C519 1.400 . S
C520 C523 1.386 . S
H521 C537 0.930 . S
H522 C538 0.931 1_554 S
C523 H511 0.929 . S
C523 C517 1.390 . S
C523 C520 1.386 . S
C524 C519 1.490 . S
C524 C526 1.395 . S
C524 C527 1.403 1_554 S
H525 C531 0.930 . S
C526 H512 0.930 . S
C526 C524 1.395 . S
C526 C529 1.403 1_565 S
C527 C524 1.403 1_556 S
C527 C528 1.524 . S
C527 C531 1.400 1_565 S
C528 H513 0.960 . S
C528 H514 0.960 . S
C528 H515 0.960 . S
C528 C527 1.524 . S
C529 C526 1.403 1_545 S
C529 C530 1.392 1_554 S
C529 C533 1.495 . S
C530 C529 1.392 1_556 S
C530 C531 1.385 . S
C530 C532 1.478 . S
C531 H525 0.930 . S
C531 C527 1.400 1_545 S
C531 C530 1.385 . S
C532 C530 1.478 . S
C532 C534 1.381 . S
C532 C538 1.383 . S
C533 C529 1.495 . S
C533 H539 0.959 . S
C533 H540 0.961 . S
C533 H541 0.960 . S
C534 C532 1.381 . S
C534 C535 1.394 . S
C534 H542 0.930 . S
C535 C534 1.394 . S
C535 C536 1.383 . S
C535 H543 0.929 . S
C536 C535 1.383 . S
C536 C537 1.377 . S
C537 H521 0.930 . S
C537 C536 1.377 . S
C537 C538 1.379 . S
C538 H522 0.931 1_556 S
C538 C532 1.383 . S
C538 C537 1.379 . S
H539 C533 0.959 . S
H540 C533 0.961 . S
H541 C533 0.960 . S
H542 C534 0.930 . S
H543 C535 0.929 . S
H544 C552 0.929 1_554 S
H545 C554 0.930 . S
H546 C556 0.930 . S
H547 C559 0.929 . S
H548 C562 0.930 . S
H549 C564 0.960 . S
H550 C564 0.960 . S
H551 C564 0.960 . S
C552 H544 0.929 1_556 S
C552 C553 1.377 . S
C552 C554 1.384 1_556 S
C553 C552 1.377 . S
C553 C559 1.390 . S
C554 H545 0.930 . S
C554 C552 1.384 1_554 S
C554 C555 1.372 1_554 S
C555 C554 1.372 1_556 S
C555 C556 1.400 . S
C555 C560 1.490 . S
C556 H546 0.930 . S
C556 C555 1.400 . S
C556 C559 1.386 . S
H557 C573 0.930 1_556 S
H558 C574 0.931 1_556 S
C559 H547 0.929 . S
C559 C553 1.390 . S
C559 C556 1.386 . S
C560 C555 1.490 . S
C560 C562 1.395 1_556 S
C560 C563 1.403 . S
H561 C567 0.930 . S
C562 H548 0.930 . S
C562 C560 1.395 1_554 S
C562 C565 1.403 . S
C563 C560 1.403 . S
C563 C564 1.524 . S
C563 C567 1.400 . S
C564 H549 0.960 . S
C564 H550 0.960 . S
C564 H551 0.960 . S
C564 C563 1.524 . S
C565 C562 1.403 . S
C565 C566 1.392 . S
C565 C569 1.495 . S
C566 C565 1.392 . S
C566 C567 1.385 1_554 S
C566 C568 1.478 . S
C567 H561 0.930 . S
C567 C563 1.400 . S
C567 C566 1.385 1_556 S
C568 C566 1.478 . S
C568 C570 1.381 . S
C568 C574 1.383 . S
C569 C565 1.495 . S
C569 H575 0.959 . S
C569 H576 0.961 . S
C569 H577 0.960 . S
C570 C568 1.381 . S
C570 C571 1.394 . S
C570 H578 0.930 . S
C571 C570 1.394 . S
C571 C572 1.383 . S
C571 H579 0.929 . S
C572 C571 1.383 . S
C572 C573 1.377 . S
C573 H557 0.930 1_554 S
C573 C572 1.377 . S
C573 C574 1.379 . S
C574 H558 0.931 1_554 S
C574 C568 1.383 . S
C574 C573 1.379 . S
H575 C569 0.959 . S
H576 C569 0.961 . S
H577 C569 0.960 . S
H578 C570 0.930 . S
H579 C571 0.929 . S
H580 C588 0.929 . S
H581 C590 0.930 . S
H582 C592 0.930 . S
H583 C595 0.929 . S
H584 C598 0.930 . S
H585 C600 0.960 . S
H586 C600 0.960 . S
H587 C600 0.960 . S
C588 H580 0.929 . S
C588 C589 1.377 . S
C588 C590 1.384 . S
C589 C588 1.377 . S
C589 C595 1.390 . S
C590 H581 0.930 . S
C590 C588 1.384 . S
C590 C591 1.372 . S
C591 C590 1.372 . S
C591 C592 1.400 . S
C591 C596 1.490 . S
C592 H582 0.930 . S
C592 C591 1.400 . S
C592 C595 1.386 . S
H593 C609 0.930 . S
H594 C610 0.932 . S
C595 H583 0.929 . S
C595 C589 1.390 . S
C595 C592 1.386 . S
C596 C591 1.490 . S
C596 C598 1.395 . S
C596 C599 1.403 1_556 S
H597 C603 0.930 . S
C598 H584 0.930 . S
C598 C596 1.395 . S
C598 C601 1.403 1_545 S
C599 C596 1.403 1_554 S
C599 C600 1.524 . S
C599 C603 1.400 1_545 S
C600 H585 0.960 . S
C600 H586 0.960 . S
C600 H587 0.960 . S
C600 C599 1.524 . S
C601 C598 1.403 1_565 S
C601 C602 1.392 1_556 S
C601 C605 1.495 . S
C602 C601 1.392 1_554 S
C602 C603 1.385 . S
C602 C604 1.478 . S
C603 H597 0.930 . S
C603 C599 1.400 1_565 S
C603 C602 1.385 . S
C604 C602 1.478 . S
C604 C606 1.381 . S
C604 C610 1.383 . S
C605 C601 1.495 . S
C605 H611 0.959 . S
C605 H612 0.961 . S
C605 H613 0.960 . S
C606 C604 1.381 . S
C606 C607 1.394 . S
C606 H614 0.930 . S
C607 C606 1.394 . S
C607 C608 1.383 . S
C607 H615 0.929 . S
C608 C607 1.383 . S
C608 C609 1.377 . S
C609 H593 0.930 . S
C609 C608 1.377 . S
C609 C610 1.379 . S
C610 H594 0.932 . S
C610 C604 1.383 . S
C610 C609 1.379 . S
H611 C605 0.959 . S
H612 C605 0.961 . S
H613 C605 0.960 . S
H614 C606 0.930 . S
H615 C607 0.929 . S
H616 C624 0.929 . S
H617 C626 0.930 . S
H618 C628 0.930 . S
H619 C631 0.929 . S
H620 C634 0.930 . S
H621 C636 0.960 . S
H622 C636 0.960 . S
H623 C636 0.960 . S
C624 H616 0.929 . S
C624 C625 1.377 . S
C624 C626 1.384 . S
C625 C624 1.377 . S
C625 C631 1.390 . S
C626 H617 0.930 . S
C626 C624 1.384 . S
C626 C627 1.372 . S
C627 C626 1.372 . S
C627 C628 1.400 . S
C627 C632 1.490 . S
C628 H618 0.930 . S
C628 C627 1.400 . S
C628 C631 1.386 . S
H629 C645 0.930 . S
H630 C646 0.931 . S
C631 H619 0.929 . S
C631 C625 1.390 . S
C631 C628 1.386 . S
C632 C627 1.490 . S
C632 C634 1.395 . S
C632 C635 1.403 . S
H633 C639 0.930 . S
C634 H620 0.930 . S
C634 C632 1.395 . S
C634 C637 1.403 . S
C635 C632 1.403 . S
C635 C636 1.524 . S
C635 C639 1.400 . S
C636 H621 0.960 . S
C636 H622 0.960 . S
C636 H623 0.960 . S
C636 C635 1.524 . S
C637 C634 1.403 . S
C637 C638 1.392 . S
C637 C641 1.495 . S
C638 C637 1.392 . S
C638 C639 1.385 . S
C638 C640 1.478 1_554 S
C639 H633 0.930 . S
C639 C635 1.400 . S
C639 C638 1.385 . S
C640 C638 1.478 1_556 S
C640 C642 1.381 . S
C640 C646 1.383 . S
C641 C637 1.495 . S
C641 H647 0.959 . S
C641 H648 0.961 . S
C641 H649 0.960 . S
C642 C640 1.381 . S
C642 C643 1.394 . S
C642 H650 0.930 . S
C643 C642 1.394 . S
C643 C644 1.383 . S
C643 H651 0.929 . S
C644 C643 1.383 . S
C644 C645 1.377 . S
C645 H629 0.930 . S
C645 C644 1.377 . S
C645 C646 1.379 . S
C646 H630 0.931 . S
C646 C640 1.383 . S
C646 C645 1.379 . S
H647 C641 0.959 . S
H648 C641 0.961 . S
H649 C641 0.960 . S
H650 C642 0.930 . S
H651 C643 0.929 . S
H652 C660 0.929 . S
H653 C662 0.930 . S
H654 C664 0.930 . S
H655 C667 0.929 . S
H656 C670 0.930 . S
H657 C672 0.960 . S
H658 C672 0.960 . S
H659 C672 0.960 . S
C660 H652 0.929 . S
C660 C661 1.377 . S
C660 C662 1.384 . S
C661 C660 1.377 . S
C661 C667 1.390 . S
C662 H653 0.930 . S
C662 C660 1.384 . S
C662 C663 1.372 . S
C663 C662 1.372 . S
C663 C664 1.400 . S
C663 C668 1.490 . S
C664 H654 0.930 . S
C664 C663 1.400 . S
C664 C667 1.386 . S
H665 C681 0.930 . S
H666 C682 0.931 . S
C667 H655 0.929 . S
C667 C661 1.390 . S
C667 C664 1.386 . S
C668 C663 1.490 . S
C668 C670 1.395 . S
C668 C671 1.403 . S
H669 C675 0.930 . S
C670 H656 0.930 . S
C670 C668 1.395 . S
C670 C673 1.403 . S
C671 C668 1.403 . S
C671 C672 1.524 . S
C671 C675 1.400 . S
C672 H657 0.960 . S
C672 H658 0.960 . S
C672 H659 0.960 . S
C672 C671 1.524 . S
C673 C670 1.403 . S
C673 C674 1.392 . S
C673 C677 1.495 . S
C674 C673 1.392 . S
C674 C675 1.385 . S
C674 C676 1.478 1_554 S
C675 H669 0.930 . S
C675 C671 1.400 . S
C675 C674 1.385 . S
C676 C674 1.478 1_556 S
C676 C678 1.381 . S
C676 C682 1.383 . S
C677 C673 1.495 . S
C677 H683 0.959 . S
C677 H684 0.961 . S
C677 H685 0.960 . S
C678 C676 1.381 . S
C678 C679 1.394 . S
C678 H686 0.930 . S
C679 C678 1.394 . S
C679 C680 1.383 . S
C679 H687 0.929 . S
C680 C679 1.383 . S
C680 C681 1.377 . S
C681 H665 0.930 . S
C681 C680 1.377 . S
C681 C682 1.379 . S
C682 H666 0.931 . S
C682 C676 1.383 . S
C682 C681 1.379 . S
H683 C677 0.959 . S
H684 C677 0.961 . S
H685 C677 0.960 . S
H686 C678 0.930 . S
H687 C679 0.929 . S
H688 C696 0.929 . S
H689 C698 0.930 . S
H690 C700 0.930 . S
H691 C703 0.929 . S
H692 C706 0.930 . S
H693 C708 0.960 . S
H694 C708 0.960 . S
H695 C708 0.960 . S
C696 H688 0.929 . S
C696 C697 1.377 . S
C696 C698 1.384 . S
C697 C696 1.377 . S
C697 C703 1.390 . S
C698 H689 0.930 . S
C698 C696 1.384 . S
C698 C699 1.372 . S
C699 C698 1.372 . S
C699 C700 1.400 . S
C699 C704 1.490 1_554 S
C700 H690 0.930 . S
C700 C699 1.400 . S
C700 C703 1.386 . S
H701 C717 0.930 . S
H702 C718 0.931 . S
C703 H691 0.929 . S
C703 C697 1.390 . S
C703 C700 1.386 . S
C704 C699 1.490 1_556 S
C704 C706 1.395 . S
C704 C707 1.403 . S
H705 C711 0.930 . S
C706 H692 0.930 . S
C706 C704 1.395 . S
C706 C709 1.403 . S
C707 C704 1.403 . S
C707 C708 1.524 . S
C707 C711 1.400 . S
C708 H693 0.960 . S
C708 H694 0.960 . S
C708 H695 0.960 . S
C708 C707 1.524 . S
C709 C706 1.403 . S
C709 C710 1.392 . S
C709 C713 1.495 . S
C710 C709 1.392 . S
C710 C711 1.385 . S
C710 C712 1.478 . S
C711 H705 0.930 . S
C711 C707 1.400 . S
C711 C710 1.385 . S
C712 C710 1.478 . S
C712 C714 1.381 . S
C712 C718 1.383 . S
C713 C709 1.495 . S
C713 H719 0.959 . S
C713 H720 0.961 . S
C713 H721 0.960 . S
C714 C712 1.381 . S
C714 C715 1.394 . S
C714 H722 0.930 . S
C715 C714 1.394 . S
C715 C716 1.383 . S
C715 H723 0.929 . S
C716 C715 1.383 . S
C716 C717 1.377 . S
C717 H701 0.930 . S
C717 C716 1.377 . S
C717 C718 1.379 . S
C718 H702 0.931 . S
C718 C712 1.383 . S
C718 C717 1.379 . S
H719 C713 0.959 . S
H720 C713 0.961 . S
H721 C713 0.960 . S
H722 C714 0.930 . S
H723 C715 0.929 . S
H724 C732 0.929 . S
H725 C734 0.930 . S
H726 C736 0.930 . S
H727 C739 0.929 . S
H728 C742 0.930 . S
H729 C744 0.960 . S
H730 C744 0.960 . S
H731 C744 0.960 . S
C732 H724 0.929 . S
C732 C733 1.377 . S
C732 C734 1.384 . S
C733 C732 1.377 . S
C733 C739 1.390 . S
C734 H725 0.930 . S
C734 C732 1.384 . S
C734 C735 1.372 . S
C735 C734 1.372 . S
C735 C736 1.400 . S
C735 C740 1.490 . S
C736 H726 0.930 . S
C736 C735 1.400 . S
C736 C739 1.386 . S
H737 C753 0.930 . S
H738 C754 0.931 . S
C739 H727 0.929 . S
C739 C733 1.390 . S
C739 C736 1.386 . S
C740 C735 1.490 . S
C740 C742 1.395 . S
C740 C743 1.403 . S
H741 C747 0.930 . S
C742 H728 0.930 . S
C742 C740 1.395 . S
C742 C745 1.403 . S
C743 C740 1.403 . S
C743 C744 1.524 . S
C743 C747 1.400 . S
C744 H729 0.960 . S
C744 H730 0.960 . S
C744 H731 0.960 . S
C744 C743 1.524 . S
C745 C742 1.403 . S
C745 C746 1.392 . S
C745 C749 1.495 . S
C746 C745 1.392 . S
C746 C747 1.385 . S
C746 C748 1.478 1_556 S
C747 H741 0.930 . S
C747 C743 1.400 . S
C747 C746 1.385 . S
C748 C746 1.478 1_554 S
C748 C750 1.381 . S
C748 C754 1.383 . S
C749 C745 1.495 . S
C749 H755 0.959 . S
C749 H756 0.961 . S
C749 H757 0.960 . S
C750 C748 1.381 . S
C750 C751 1.394 . S
C750 H758 0.930 . S
C751 C750 1.394 . S
C751 C752 1.383 . S
C751 H759 0.929 . S
C752 C751 1.383 . S
C752 C753 1.377 . S
C753 H737 0.930 . S
C753 C752 1.377 . S
C753 C754 1.379 . S
C754 H738 0.931 . S
C754 C748 1.383 . S
C754 C753 1.379 . S
H755 C749 0.959 . S
H756 C749 0.961 . S
H757 C749 0.960 . S
H758 C750 0.930 . S
H759 C751 0.929 . S
H760 C768 0.929 . S
H761 C770 0.930 . S
H762 C772 0.930 . S
H763 C775 0.929 . S
H764 C778 0.930 . S
H765 C780 0.960 . S
H766 C780 0.960 . S
H767 C780 0.960 . S
C768 H760 0.929 . S
C768 C769 1.377 . S
C768 C770 1.384 . S
C769 C768 1.377 . S
C769 C775 1.390 . S
C770 H761 0.930 . S
C770 C768 1.384 . S
C770 C771 1.372 . S
C771 C770 1.372 . S
C771 C772 1.400 . S
C771 C776 1.490 . S
C772 H762 0.930 . S
C772 C771 1.400 . S
C772 C775 1.386 . S
H773 C789 0.930 . S
H774 C790 0.931 . S
C775 H763 0.929 . S
C775 C769 1.390 . S
C775 C772 1.386 . S
C776 C771 1.490 . S
C776 C778 1.395 . S
C776 C779 1.403 . S
H777 C783 0.930 . S
C778 H764 0.930 . S
C778 C776 1.395 . S
C778 C781 1.403 . S
C779 C776 1.403 . S
C779 C780 1.524 . S
C779 C783 1.400 . S
C780 H765 0.960 . S
C780 H766 0.960 . S
C780 H767 0.960 . S
C780 C779 1.524 . S
C781 C778 1.403 . S
C781 C782 1.392 . S
C781 C785 1.495 . S
C782 C781 1.392 . S
C782 C783 1.385 . S
C782 C784 1.478 . S
C783 H777 0.930 . S
C783 C779 1.400 . S
C783 C782 1.385 . S
C784 C782 1.478 . S
C784 C786 1.381 . S
C784 C790 1.383 . S
C785 C781 1.495 . S
C785 H791 0.959 . S
C785 H792 0.961 . S
C785 H793 0.960 . S
C786 C784 1.381 . S
C786 C787 1.394 . S
C786 H794 0.930 . S
C787 C786 1.394 . S
C787 C788 1.383 . S
C787 H795 0.929 . S
C788 C787 1.383 . S
C788 C789 1.377 . S
C789 H773 0.930 . S
C789 C788 1.377 . S
C789 C790 1.379 . S
C790 H774 0.931 . S
C790 C784 1.383 . S
C790 C789 1.379 . S
H791 C785 0.959 . S
H792 C785 0.961 . S
H793 C785 0.960 . S
H794 C786 0.930 . S
H795 C787 0.929 . S
H796 C804 0.929 . S
H797 C806 0.930 . S
H798 C808 0.930 . S
H799 C811 0.929 . S
H800 C814 0.930 . S
H801 C816 0.960 . S
H802 C816 0.960 . S
H803 C816 0.960 . S
C804 H796 0.929 . S
C804 C805 1.377 . S
C804 C806 1.384 . S
C805 C804 1.377 . S
C805 C811 1.390 . S
C806 H797 0.930 . S
C806 C804 1.384 . S
C806 C807 1.372 . S
C807 C806 1.372 . S
C807 C808 1.400 . S
C807 C812 1.490 . S
C808 H798 0.930 . S
C808 C807 1.400 . S
C808 C811 1.386 . S
H809 C825 0.930 . S
H810 C826 0.931 . S
C811 H799 0.929 . S
C811 C805 1.390 . S
C811 C808 1.386 . S
C812 C807 1.490 . S
C812 C814 1.395 . S
C812 C815 1.403 . S
H813 C819 0.930 . S
C814 H800 0.930 . S
C814 C812 1.395 . S
C814 C817 1.403 . S
C815 C812 1.403 . S
C815 C816 1.524 . S
C815 C819 1.400 . S
C816 H801 0.960 . S
C816 H802 0.960 . S
C816 H803 0.960 . S
C816 C815 1.524 . S
C817 C814 1.403 . S
C817 C818 1.392 . S
C817 C821 1.495 . S
C818 C817 1.392 . S
C818 C819 1.385 . S
C818 C820 1.478 . S
C819 H813 0.930 . S
C819 C815 1.400 . S
C819 C818 1.385 . S
C820 C818 1.478 . S
C820 C822 1.381 . S
C820 C826 1.383 . S
C821 C817 1.495 . S
C821 H827 0.959 . S
C821 H828 0.961 . S
C821 H829 0.960 . S
C822 C820 1.381 . S
C822 C823 1.394 . S
C822 H830 0.930 . S
C823 C822 1.394 . S
C823 C824 1.383 . S
C823 H831 0.929 . S
C824 C823 1.383 . S
C824 C825 1.377 . S
C825 H809 0.930 . S
C825 C824 1.377 . S
C825 C826 1.379 . S
C826 H810 0.931 . S
C826 C820 1.383 . S
C826 C825 1.379 . S
H827 C821 0.959 . S
H828 C821 0.961 . S
H829 C821 0.960 . S
H830 C822 0.930 . S
H831 C823 0.929 . S
H832 C840 0.929 . S
H833 C842 0.930 . S
H834 C844 0.930 . S
H835 C847 0.929 . S
H836 C850 0.930 . S
H837 C852 0.960 . S
H838 C852 0.960 . S
H839 C852 0.960 . S
C840 H832 0.929 . S
C840 C841 1.377 . S
C840 C842 1.384 . S
C841 C840 1.377 . S
C841 C847 1.390 . S
C842 H833 0.930 . S
C842 C840 1.384 . S
C842 C843 1.372 . S
C843 C842 1.372 . S
C843 C844 1.400 . S
C843 C848 1.490 . S
C844 H834 0.930 . S
C844 C843 1.400 . S
C844 C847 1.386 . S
H845 C861 0.930 . S
H846 C862 0.931 . S
C847 H835 0.929 . S
C847 C841 1.390 . S
C847 C844 1.386 . S
C848 C843 1.490 . S
C848 C850 1.395 . S
C848 C851 1.403 . S
H849 C855 0.930 . S
C850 H836 0.930 . S
C850 C848 1.395 . S
C850 C853 1.403 . S
C851 C848 1.403 . S
C851 C852 1.524 . S
C851 C855 1.400 . S
C852 H837 0.960 . S
C852 H838 0.960 . S
C852 H839 0.960 . S
C852 C851 1.524 . S
C853 C850 1.403 . S
C853 C854 1.392 . S
C853 C857 1.495 . S
C854 C853 1.392 . S
C854 C855 1.385 . S
C854 C856 1.478 . S
C855 H849 0.930 . S
C855 C851 1.400 . S
C855 C854 1.385 . S
C856 C854 1.478 . S
C856 C858 1.381 . S
C856 C862 1.383 . S
C857 C853 1.495 . S
C857 H863 0.959 . S
C857 H864 0.961 . S
C857 H865 0.960 . S
C858 C856 1.381 . S
C858 C859 1.394 . S
C858 H866 0.930 . S
C859 C858 1.394 . S
C859 C860 1.383 . S
C859 H867 0.929 . S
C860 C859 1.383 . S
C860 C861 1.377 . S
C861 H845 0.930 . S
C861 C860 1.377 . S
C861 C862 1.379 . S
C862 H846 0.931 . S
C862 C856 1.383 . S
C862 C861 1.379 . S
H863 C857 0.959 . S
H864 C857 0.961 . S
H865 C857 0.960 . S
H866 C858 0.930 . S
H867 C859 0.929 . S
H868 C876 0.929 . S
H869 C878 0.930 . S
H870 C880 0.930 . S
H871 C883 0.929 . S
H872 C886 0.930 . S
H873 C888 0.960 . S
H874 C888 0.960 . S
H875 C888 0.960 . S
C876 H868 0.929 . S
C876 C877 1.377 . S
C876 C878 1.384 . S
C877 C876 1.377 . S
C877 C883 1.390 . S
C878 H869 0.930 . S
C878 C876 1.384 . S
C878 C879 1.372 . S
C879 C878 1.372 . S
C879 C880 1.400 . S
C879 C884 1.490 . S
C880 H870 0.930 . S
C880 C879 1.400 . S
C880 C883 1.386 . S
H881 C897 0.930 . S
H882 C898 0.931 . S
C883 H871 0.929 . S
C883 C877 1.390 . S
C883 C880 1.386 . S
C884 C879 1.490 . S
C884 C886 1.395 . S
C884 C887 1.403 . S
H885 C891 0.930 . S
C886 H872 0.930 . S
C886 C884 1.395 . S
C886 C889 1.403 . S
C887 C884 1.403 . S
C887 C888 1.524 . S
C887 C891 1.400 . S
C888 H873 0.960 . S
C888 H874 0.960 . S
C888 H875 0.960 . S
C888 C887 1.524 . S
C889 C886 1.403 . S
C889 C890 1.392 . S
C889 C893 1.495 . S
C890 C889 1.392 . S
C890 C891 1.385 . S
C890 C892 1.478 . S
C891 H885 0.930 . S
C891 C887 1.400 . S
C891 C890 1.385 . S
C892 C890 1.478 . S
C892 C894 1.381 . S
C892 C898 1.383 . S
C893 C889 1.495 . S
C893 H899 0.959 . S
C893 H900 0.961 . S
C893 H901 0.960 . S
C894 C892 1.381 . S
C894 C895 1.394 . S
C894 H902 0.930 . S
C895 C894 1.394 . S
C895 C896 1.383 . S
C895 H903 0.929 . S
C896 C895 1.383 . S
C896 C897 1.377 . S
C897 H881 0.930 . S
C897 C896 1.377 . S
C897 C898 1.379 . S
C898 H882 0.931 . S
C898 C892 1.383 . S
C898 C897 1.379 . S
H899 C893 0.959 . S
H900 C893 0.961 . S
H901 C893 0.960 . S
H902 C894 0.930 . S
H903 C895 0.929 . S
H904 C912 0.929 . S
H905 C914 0.930 . S
H906 C916 0.930 . S
H907 C919 0.929 . S
H908 C922 0.930 . S
H909 C924 0.960 . S
H910 C924 0.960 . S
H911 C924 0.960 . S
C912 H904 0.929 . S
C912 C913 1.377 . S
C912 C914 1.384 . S
C913 C912 1.377 . S
C913 C919 1.390 . S
C914 H905 0.930 . S
C914 C912 1.384 . S
C914 C915 1.372 . S
C915 C914 1.372 . S
C915 C916 1.400 . S
C915 C920 1.490 . S
C916 H906 0.930 . S
C916 C915 1.400 . S
C916 C919 1.386 . S
H917 C933 0.930 . S
H918 C934 0.931 . S
C919 H907 0.929 . S
C919 C913 1.390 . S
C919 C916 1.386 . S
C920 C915 1.490 . S
C920 C922 1.395 . S
C920 C923 1.403 . S
H921 C927 0.930 . S
C922 H908 0.930 . S
C922 C920 1.395 . S
C922 C925 1.403 1_455 S
C923 C920 1.403 . S
C923 C924 1.524 . S
C923 C927 1.400 1_455 S
C924 H909 0.960 . S
C924 H910 0.960 . S
C924 H911 0.960 . S
C924 C923 1.524 . S
C925 C922 1.403 1_655 S
C925 C926 1.392 . S
C925 C929 1.495 . S
C926 C925 1.392 . S
C926 C927 1.385 . S
C926 C928 1.478 . S
C927 H921 0.930 . S
C927 C923 1.400 1_655 S
C927 C926 1.385 . S
C928 C926 1.478 . S
C928 C930 1.381 . S
C928 C934 1.383 . S
C929 C925 1.495 . S
C929 H935 0.959 . S
C929 H936 0.961 . S
C929 H937 0.960 . S
C930 C928 1.381 . S
C930 C931 1.394 . S
C930 H938 0.930 . S
C931 C930 1.394 . S
C931 C932 1.383 . S
C931 H939 0.929 . S
C932 C931 1.383 . S
C932 C933 1.377 . S
C933 H917 0.930 . S
C933 C932 1.377 . S
C933 C934 1.379 . S
C934 H918 0.931 . S
C934 C928 1.383 . S
C934 C933 1.379 . S
H935 C929 0.959 . S
H936 C929 0.961 . S
H937 C929 0.960 . S
H938 C930 0.930 . S
H939 C931 0.929 . S
H940 C948 0.929 . S
H941 C950 0.930 . S
H942 C952 0.930 . S
H943 C955 0.929 . S
H944 C958 0.930 . S
H945 C960 0.960 . S
H946 C960 0.960 . S
H947 C960 0.960 . S
C948 H940 0.929 . S
C948 C949 1.377 . S
C948 C950 1.384 . S
C949 C948 1.377 . S
C949 C955 1.390 . S
C950 H941 0.930 . S
C950 C948 1.384 . S
C950 C951 1.372 . S
C951 C950 1.372 . S
C951 C952 1.400 . S
C951 C956 1.490 . S
C952 H942 0.930 . S
C952 C951 1.400 . S
C952 C955 1.386 . S
H953 C969 0.930 . S
H954 C970 0.931 . S
C955 H943 0.929 . S
C955 C949 1.390 . S
C955 C952 1.386 . S
C956 C951 1.490 . S
C956 C958 1.395 . S
C956 C959 1.403 . S
H957 C963 0.930 . S
C958 H944 0.930 . S
C958 C956 1.395 . S
C958 C961 1.403 1_655 S
C959 C956 1.403 . S
C959 C960 1.524 . S
C959 C963 1.400 1_655 S
C960 H945 0.960 . S
C960 H946 0.960 . S
C960 H947 0.960 . S
C960 C959 1.524 . S
C961 C958 1.403 1_455 S
C961 C962 1.392 . S
C961 C965 1.495 . S
C962 C961 1.392 . S
C962 C963 1.385 . S
C962 C964 1.478 . S
C963 H957 0.930 . S
C963 C959 1.400 1_455 S
C963 C962 1.385 . S
C964 C962 1.478 . S
C964 C966 1.381 . S
C964 C970 1.383 . S
C965 C961 1.495 . S
C965 H971 0.959 . S
C965 H972 0.961 . S
C965 H973 0.960 . S
C966 C964 1.381 . S
C966 C967 1.394 . S
C966 H974 0.930 . S
C967 C966 1.394 . S
C967 C968 1.383 . S
C967 H975 0.929 . S
C968 C967 1.383 . S
C968 C969 1.377 . S
C969 H953 0.930 . S
C969 C968 1.377 . S
C969 C970 1.379 . S
C970 H954 0.931 . S
C970 C964 1.383 . S
C970 C969 1.379 . S
H971 C965 0.959 . S
H972 C965 0.961 . S
H973 C965 0.960 . S
H974 C966 0.930 . S
H975 C967 0.929 . S
H976 C984 0.929 . S
H977 C986 0.930 . S
H978 C988 0.930 . S
H979 C991 0.929 . S
H980 C994 0.930 . S
H981 C996 0.960 . S
H982 C996 0.960 . S
H983 C996 0.960 . S
C984 H976 0.929 . S
C984 C985 1.377 . S
C984 C986 1.384 . S
C985 C984 1.377 . S
C985 C991 1.390 . S
C986 H977 0.930 . S
C986 C984 1.384 . S
C986 C987 1.372 . S
C987 C986 1.372 . S
C987 C988 1.400 . S
C987 C992 1.490 . S
C988 H978 0.930 . S
C988 C987 1.400 . S
C988 C991 1.386 . S
H989 C1005 0.930 . S
H990 C1006 0.931 . S
C991 H979 0.929 . S
C991 C985 1.390 . S
C991 C988 1.386 . S
C992 C987 1.490 . S
C992 C994 1.395 . S
C992 C995 1.403 . S
H993 C999 0.930 . S
C994 H980 0.930 . S
C994 C992 1.395 . S
C994 C997 1.403 . S
C995 C992 1.403 . S
C995 C996 1.524 . S
C995 C999 1.400 . S
C996 H981 0.960 . S
C996 H982 0.960 . S
C996 H983 0.960 . S
C996 C995 1.524 . S
C997 C994 1.403 . S
C997 C998 1.392 . S
C997 C1001 1.495 . S
C998 C997 1.392 . S
C998 C999 1.385 . S
C998 C1000 1.478 . S
C999 H993 0.930 . S
C999 C995 1.400 . S
C999 C998 1.385 . S
C1000 C998 1.478 . S
C1000 C1002 1.381 . S
C1000 C1006 1.383 . S
C1001 C997 1.495 . S
C1001 H1007 0.959 . S
C1001 H1008 0.961 . S
C1001 H1009 0.960 . S
C1002 C1000 1.381 . S
C1002 C1003 1.394 . S
C1002 H1010 0.930 . S
C1003 C1002 1.394 . S
C1003 C1004 1.383 . S
C1003 H1011 0.929 . S
C1004 C1003 1.383 . S
C1004 C1005 1.377 . S
C1005 H989 0.930 . S
C1005 C1004 1.377 . S
C1005 C1006 1.379 . S
C1006 H990 0.931 . S
C1006 C1000 1.383 . S
C1006 C1005 1.379 . S
H1007 C1001 0.959 . S
H1008 C1001 0.961 . S
H1009 C1001 0.960 . S
H1010 C1002 0.930 . S
H1011 C1003 0.929 . S
H1012 C1020 0.929 . S
H1013 C1022 0.930 . S
H1014 C1024 0.930 . S
H1015 C1027 0.929 . S
H1016 C1030 0.930 . S
H1017 C1032 0.960 . S
H1018 C1032 0.960 . S
H1019 C1032 0.960 . S
C1020 H1012 0.929 . S
C1020 C1021 1.377 . S
C1020 C1022 1.384 . S
C1021 C1020 1.377 . S
C1021 C1027 1.390 . S
C1022 H1013 0.930 . S
C1022 C1020 1.384 . S
C1022 C1023 1.372 . S
C1023 C1022 1.372 . S
C1023 C1024 1.400 . S
C1023 C1028 1.490 . S
C1024 H1014 0.930 . S
C1024 C1023 1.400 . S
C1024 C1027 1.386 . S
H1025 C1041 0.930 . S
H1026 C1042 0.931 . S
C1027 H1015 0.929 . S
C1027 C1021 1.390 . S
C1027 C1024 1.386 . S
C1028 C1023 1.490 . S
C1028 C1030 1.395 . S
C1028 C1031 1.403 . S
H1029 C1035 0.930 . S
C1030 H1016 0.930 . S
C1030 C1028 1.395 . S
C1030 C1033 1.403 . S
C1031 C1028 1.403 . S
C1031 C1032 1.524 . S
C1031 C1035 1.400 . S
C1032 H1017 0.960 . S
C1032 H1018 0.960 . S
C1032 H1019 0.960 . S
C1032 C1031 1.524 . S
C1033 C1030 1.403 . S
C1033 C1034 1.392 . S
C1033 C1037 1.495 . S
C1034 C1033 1.392 . S
C1034 C1035 1.385 . S
C1034 C1036 1.478 . S
C1035 H1029 0.930 . S
C1035 C1031 1.400 . S
C1035 C1034 1.385 . S
C1036 C1034 1.478 . S
C1036 C1038 1.381 . S
C1036 C1042 1.383 . S
C1037 C1033 1.495 . S
C1037 H1043 0.959 . S
C1037 H1044 0.961 . S
C1037 H1045 0.960 . S
C1038 C1036 1.381 . S
C1038 C1039 1.394 . S
C1038 H1046 0.930 . S
C1039 C1038 1.394 . S
C1039 C1040 1.383 . S
C1039 H1047 0.929 . S
C1040 C1039 1.383 . S
C1040 C1041 1.377 . S
C1041 H1025 0.930 . S
C1041 C1040 1.377 . S
C1041 C1042 1.379 . S
C1042 H1026 0.931 . S
C1042 C1036 1.383 . S
C1042 C1041 1.379 . S
H1043 C1037 0.959 . S
H1044 C1037 0.961 . S
H1045 C1037 0.960 . S
H1046 C1038 0.930 . S
H1047 C1039 0.929 . S
C193 C18 1.440 . S
C212 C179 1.455 . S
C229 C156 1.445 . S
C248 C41 1.431 . S
C265 C133 1.446 . S
C284 C64 1.437 . S
C301 C110 1.446 . S
C320 C87 1.433 . S
C337 C66 1.588 . S
C356 C20 1.595 . S
C373 C43 1.585 . S
C392 C89 1.577 . S
C409 C88 1.515 . S
C428 C42 1.504 . S
C445 C65 1.519 . S
C464 C19 1.525 . S
C481 C112 1.586 . S
C500 C158 1.572 . S
C517 C135 1.589 . S
C536 C181 1.595 . S
C553 C180 1.515 . S
C572 C134 1.506 . S
C589 C157 1.519 . S
C608 C111 1.525 . S
C625 C17 1.349 . S
C644 C16 1.348 . S
C661 C40 1.349 . S
C680 C39 1.342 . S
C697 C62 1.348 . S
C716 C63 1.343 . S
C733 C86 1.349 . S
C752 C85 1.346 . S
C769 C108 1.348 . S
C788 C109 1.350 . S
C805 C132 1.350 . S
C824 C131 1.346 . S
C841 C155 1.350 . S
C860 C154 1.351 . S
C877 C178 1.349 . S
C896 C177 1.347 . S
C913 C21 1.456 . S
C932 C44 1.446 . S
C949 C90 1.463 . S
C968 C67 1.471 . S
C985 C113 1.455 . S
C1004 C136 1.453 . S
C1021 C182 1.463 . S
C1040 C159 1.466 . S
