# Generated by pormake.
# Topology tzs, (4)-cn, num edge types: 1
# Building blocks:
#     Node 0, Type 0, BuildingBlock: QUQFOY_clean_sbu_1, # of connection points: 4
#     Node 1, Type 0, BuildingBlock: QUQFOY_clean_sbu_1, # of connection points: 4
#     Node 2, Type 0, BuildingBlock: QUQFOY_clean_sbu_1, # of connection points: 4
#     Node 3, Type 0, BuildingBlock: QUQFOY_clean_sbu_1, # of connection points: 4
#     Node 4, Type 0, BuildingBlock: QUQFOY_clean_sbu_1, # of connection points: 4
#     Node 5, Type 0, BuildingBlock: QUQFOY_clean_sbu_1, # of connection points: 4
#     Node 6, Type 0, BuildingBlock: QUQFOY_clean_sbu_1, # of connection points: 4
#     Node 7, Type 0, BuildingBlock: QUQFOY_clean_sbu_1, # of connection points: 4
#     Node 8, Type 0, BuildingBlock: QUQFOY_clean_sbu_1, # of connection points: 4
#     Node 9, Type 0, BuildingBlock: QUQFOY_clean_sbu_1, # of connection points: 4
#     Node 10, Type 0, BuildingBlock: QUQFOY_clean_sbu_1, # of connection points: 4
#     Node 11, Type 0, BuildingBlock: QUQFOY_clean_sbu_1, # of connection points: 4
#     Node 12, Type 0, BuildingBlock: QUQFOY_clean_sbu_1, # of connection points: 4
#     Node 13, Type 0, BuildingBlock: QUQFOY_clean_sbu_1, # of connection points: 4
#     Node 14, Type 0, BuildingBlock: QUQFOY_clean_sbu_1, # of connection points: 4
#     Node 15, Type 0, BuildingBlock: QUQFOY_clean_sbu_1, # of connection points: 4
#     Edge 16, Type (0, 0), BuildingBlock: EYOCIG_clean_linker_4, # of connection points: 2
#     Edge 17, Type (0, 0), BuildingBlock: EYOCIG_clean_linker_4, # of connection points: 2
#     Edge 18, Type (0, 0), BuildingBlock: EYOCIG_clean_linker_4, # of connection points: 2
#     Edge 19, Type (0, 0), BuildingBlock: EYOCIG_clean_linker_4, # of connection points: 2
#     Edge 20, Type (0, 0), BuildingBlock: EYOCIG_clean_linker_4, # of connection points: 2
#     Edge 21, Type (0, 0), BuildingBlock: EYOCIG_clean_linker_4, # of connection points: 2
#     Edge 22, Type (0, 0), BuildingBlock: EYOCIG_clean_linker_4, # of connection points: 2
#     Edge 23, Type (0, 0), BuildingBlock: EYOCIG_clean_linker_4, # of connection points: 2
#     Edge 24, Type (0, 0), BuildingBlock: EYOCIG_clean_linker_4, # of connection points: 2
#     Edge 25, Type (0, 0), BuildingBlock: EYOCIG_clean_linker_4, # of connection points: 2
#     Edge 26, Type (0, 0), BuildingBlock: EYOCIG_clean_linker_4, # of connection points: 2
#     Edge 27, Type (0, 0), BuildingBlock: EYOCIG_clean_linker_4, # of connection points: 2
#     Edge 28, Type (0, 0), BuildingBlock: EYOCIG_clean_linker_4, # of connection points: 2
#     Edge 29, Type (0, 0), BuildingBlock: EYOCIG_clean_linker_4, # of connection points: 2
#     Edge 30, Type (0, 0), BuildingBlock: EYOCIG_clean_linker_4, # of connection points: 2
#     Edge 31, Type (0, 0), BuildingBlock: EYOCIG_clean_linker_4, # of connection points: 2
#     Edge 32, Type (0, 0), BuildingBlock: EYOCIG_clean_linker_4, # of connection points: 2
#     Edge 33, Type (0, 0), BuildingBlock: EYOCIG_clean_linker_4, # of connection points: 2
#     Edge 34, Type (0, 0), BuildingBlock: EYOCIG_clean_linker_4, # of connection points: 2
#     Edge 35, Type (0, 0), BuildingBlock: EYOCIG_clean_linker_4, # of connection points: 2
#     Edge 36, Type (0, 0), BuildingBlock: EYOCIG_clean_linker_4, # of connection points: 2
#     Edge 37, Type (0, 0), BuildingBlock: EYOCIG_clean_linker_4, # of connection points: 2
#     Edge 38, Type (0, 0), BuildingBlock: EYOCIG_clean_linker_4, # of connection points: 2
#     Edge 39, Type (0, 0), BuildingBlock: EYOCIG_clean_linker_4, # of connection points: 2
#     Edge 40, Type (0, 0), BuildingBlock: EYOCIG_clean_linker_4, # of connection points: 2
#     Edge 41, Type (0, 0), BuildingBlock: EYOCIG_clean_linker_4, # of connection points: 2
#     Edge 42, Type (0, 0), BuildingBlock: EYOCIG_clean_linker_4, # of connection points: 2
#     Edge 43, Type (0, 0), BuildingBlock: EYOCIG_clean_linker_4, # of connection points: 2
#     Edge 44, Type (0, 0), BuildingBlock: EYOCIG_clean_linker_4, # of connection points: 2
#     Edge 45, Type (0, 0), BuildingBlock: EYOCIG_clean_linker_4, # of connection points: 2
#     Edge 46, Type (0, 0), BuildingBlock: EYOCIG_clean_linker_4, # of connection points: 2
#     Edge 47, Type (0, 0), BuildingBlock: EYOCIG_clean_linker_4, # of connection points: 2
# Relax obj value: 0.144
# Max RMSD: 0.157
# Mean RMSD: 0.157
data_MOF--net-tzs--node1-QUQFOY_clean_sbu_1--edge1-EYOCIG_clean_linker_4
_symmetry_space_group_name_H-M    P1
_symmetry_Int_Tables_number       1
_symmetry_cell_setting            triclinic
loop_
_symmetry_equiv_pos_as_xyz
'x, y, z'
_cell_length_a     38.874567
_cell_length_b     38.866885
_cell_length_c     35.977461
_cell_angle_alpha  90.073229
_cell_angle_beta   90.083181
_cell_angle_gamma 90.018466
loop_
_atom_site_label
_atom_site_type_symbol
_atom_site_fract_x
_atom_site_fract_y
_atom_site_fract_z
_atom_type_partial_charge
O0 O 0.16849 0.39234 0.23589 0.0
Cd1 Cd 0.14677 0.3452 0.22404 0.0
Cd2 Cd 0.12079 0.38172 0.16496 0.0
O3 O 0.14857 0.42176 0.18795 0.0
O4 O 0.16847 0.31536 0.26236 0.0
O5 O 0.17454 0.30626 0.20197 0.0
C6 C 0.18132 0.29748 0.23576 0.0
C7 C 0.12767 0.3685 0.10261 0.0
C8 C 0.16587 0.42022 0.21787 0.0
C9 C 0.06987 0.35334 0.21918 0.0
O10 O 0.07406 0.37083 0.18974 0.0
O11 O 0.09526 0.34027 0.23623 0.0
O12 O 0.11023 0.39503 0.11284 0.0
O13 O 0.14165 0.34932 0.12772 0.0
O14 O 0.59379 0.16802 0.23603 0.0
Cd15 Cd 0.6409 0.1464 0.22406 0.0
Cd16 Cd 0.60435 0.12029 0.1652 0.0
O17 O 0.56427 0.1479 0.18817 0.0
O18 O 0.67105 0.16841 0.26197 0.0
O19 O 0.67957 0.17415 0.20146 0.0
C20 C 0.68865 0.18115 0.23514 0.0
C21 C 0.61755 0.12731 0.10291 0.0
C22 C 0.56585 0.16524 0.21805 0.0
C23 C 0.63296 0.06947 0.21945 0.0
O24 O 0.61541 0.07358 0.18999 0.0
O25 O 0.64601 0.09492 0.23646 0.0
O26 O 0.59108 0.10974 0.11303 0.0
O27 O 0.63668 0.14132 0.1281 0.0
O28 O 0.81758 0.59362 0.23595 0.0
Cd29 Cd 0.83916 0.64071 0.22377 0.0
Cd30 Cd 0.86492 0.60391 0.16495 0.0
O31 O 0.8372 0.56397 0.18801 0.0
O32 O 0.81741 0.67087 0.26178 0.0
O33 O 0.81124 0.67935 0.20129 0.0
C34 C 0.80446 0.68843 0.235 0.0
C35 C 0.85788 0.61705 0.10261 0.0
C36 C 0.8201 0.56565 0.21799 0.0
C37 C 0.91601 0.63256 0.21905 0.0
O38 O 0.91172 0.61484 0.18973 0.0
O39 O 0.89068 0.64583 0.23598 0.0
O40 O 0.87531 0.59051 0.11281 0.0
O41 O 0.84398 0.63627 0.12774 0.0
O42 O 0.39178 0.81754 0.23531 0.0
Cd43 Cd 0.34467 0.8392 0.22336 0.0
Cd44 Cd 0.38122 0.86518 0.16449 0.0
O45 O 0.42127 0.83754 0.18753 0.0
O46 O 0.31473 0.81746 0.26149 0.0
O47 O 0.3058 0.8114 0.20104 0.0
C48 C 0.29693 0.80461 0.23478 0.0
C49 C 0.36804 0.85815 0.10213 0.0
C50 C 0.4197 0.82024 0.21738 0.0
C51 C 0.35269 0.91612 0.2187 0.0
O52 O 0.37021 0.91195 0.18928 0.0
O53 O 0.33965 0.89072 0.23569 0.0
O54 O 0.39453 0.87568 0.11239 0.0
O55 O 0.34888 0.84417 0.12722 0.0
O56 O 0.16802 0.59404 0.28653 0.0
Cd57 Cd 0.14621 0.64108 0.29848 0.0
Cd58 Cd 0.12034 0.60434 0.35732 0.0
O59 O 0.14827 0.56445 0.33437 0.0
O60 O 0.16789 0.67106 0.26034 0.0
O61 O 0.17397 0.67999 0.32078 0.0
C62 C 0.18076 0.68886 0.28703 0.0
C63 C 0.12715 0.61753 0.41971 0.0
C64 C 0.16552 0.56612 0.30449 0.0
C65 C 0.06935 0.6327 0.30302 0.0
O66 O 0.07358 0.6151 0.33238 0.0
O67 O 0.0947 0.64596 0.28613 0.0
O68 O 0.10979 0.59094 0.40938 0.0
O69 O 0.14107 0.63679 0.39467 0.0
O70 O 0.39193 0.16788 0.28654 0.0
Cd71 Cd 0.34482 0.14629 0.29857 0.0
Cd72 Cd 0.3815 0.12013 0.35722 0.0
O73 O 0.42154 0.1478 0.33429 0.0
O74 O 0.31468 0.16832 0.26074 0.0
O75 O 0.30624 0.17413 0.32127 0.0
C76 C 0.29714 0.18113 0.28762 0.0
C77 C 0.36838 0.12705 0.41956 0.0
C78 C 0.4199 0.16513 0.30445 0.0
C79 C 0.35271 0.06937 0.30286 0.0
O80 O 0.37039 0.07345 0.33224 0.0
O81 O 0.33959 0.09483 0.28602 0.0
O82 O 0.39484 0.10952 0.40932 0.0
O83 O 0.34922 0.14109 0.39445 0.0
O84 O 0.81814 0.392 0.2865 0.0
Cd85 Cd 0.83983 0.34488 0.29826 0.0
Cd86 Cd 0.86577 0.38137 0.35737 0.0
O87 O 0.83793 0.4214 0.33461 0.0
O88 O 0.81796 0.31493 0.26007 0.0
O89 O 0.81204 0.30606 0.3205 0.0
C90 C 0.80513 0.29718 0.28674 0.0
C91 C 0.85888 0.36792 0.41963 0.0
C92 C 0.82069 0.41987 0.30466 0.0
C93 C 0.9167 0.35309 0.30303 0.0
O94 O 0.91251 0.3706 0.3325 0.0
O95 O 0.89132 0.33993 0.28599 0.0
O96 O 0.87631 0.39451 0.40959 0.0
O97 O 0.84494 0.3488 0.39438 0.0
O98 O 0.59357 0.81766 0.2862 0.0
Cd99 Cd 0.64072 0.83926 0.29827 0.0
Cd100 Cd 0.60409 0.86528 0.3572 0.0
O101 O 0.56407 0.83758 0.33407 0.0
O102 O 0.67066 0.81745 0.26013 0.0
O103 O 0.67946 0.81135 0.32057 0.0
C104 C 0.68837 0.80454 0.28682 0.0
C105 C 0.61717 0.85835 0.41959 0.0
C106 C 0.56565 0.82032 0.30414 0.0
C107 C 0.63277 0.91618 0.30312 0.0
O108 O 0.61516 0.91201 0.33247 0.0
O109 O 0.64585 0.89077 0.28612 0.0
O110 O 0.5907 0.87585 0.40929 0.0
O111 O 0.63637 0.84434 0.39452 0.0
O112 O 0.89208 0.6681 0.78645 0.0
Cd113 Cd 0.84492 0.64646 0.79815 0.0
Cd114 Cd 0.88132 0.62047 0.85722 0.0
O115 O 0.92141 0.64822 0.8345 0.0
O116 O 0.81494 0.66839 0.76009 0.0
O117 O 0.80617 0.67424 0.82056 0.0
C118 C 0.79723 0.68118 0.78684 0.0
C119 C 0.86802 0.6273 0.91955 0.0
C120 C 0.91993 0.66547 0.8046 0.0
C121 C 0.85295 0.56956 0.80272 0.0
O122 O 0.87043 0.57374 0.83222 0.0
O123 O 0.83988 0.59495 0.78571 0.0
O124 O 0.89455 0.60984 0.90936 0.0
O125 O 0.84889 0.64132 0.89441 0.0
O126 O 0.31744 0.89177 0.78576 0.0
Cd127 Cd 0.3394 0.84481 0.79775 0.0
Cd128 Cd 0.36499 0.88158 0.85678 0.0
O129 O 0.33696 0.92139 0.83383 0.0
O130 O 0.31774 0.81454 0.75971 0.0
O131 O 0.31183 0.80594 0.82019 0.0
C132 C 0.30499 0.79685 0.78648 0.0
C133 C 0.35804 0.86825 0.91905 0.0
C134 C 0.31979 0.91969 0.80385 0.0
C135 C 0.41622 0.85346 0.80269 0.0
O136 O 0.41185 0.87103 0.83208 0.0
O137 O 0.39096 0.84011 0.78562 0.0
O138 O 0.37533 0.89493 0.90897 0.0
O139 O 0.34427 0.84899 0.89383 0.0
O140 O 0.09356 0.31698 0.78635 0.0
Cd141 Cd 0.14068 0.33884 0.79799 0.0
Cd142 Cd 0.10433 0.36494 0.85709 0.0
O143 O 0.06425 0.33712 0.83424 0.0
O144 O 0.17054 0.31701 0.75979 0.0
O145 O 0.17968 0.31125 0.82022 0.0
C146 C 0.18846 0.30434 0.78646 0.0
C147 C 0.11758 0.3582 0.91946 0.0
C148 C 0.06572 0.31968 0.80442 0.0
C149 C 0.13254 0.41576 0.80264 0.0
O150 O 0.11519 0.41164 0.83219 0.0
O151 O 0.14551 0.39033 0.78558 0.0
O152 O 0.09106 0.37564 0.90919 0.0
O153 O 0.13674 0.34416 0.89438 0.0
O154 O 0.66812 0.09396 0.78647 0.0
Cd155 Cd 0.64616 0.14092 0.7985 0.0
Cd156 Cd 0.62066 0.10413 0.85745 0.0
O157 O 0.64867 0.06435 0.83444 0.0
O158 O 0.66767 0.17107 0.76039 0.0
O159 O 0.67379 0.17989 0.82085 0.0
C160 C 0.68051 0.18886 0.78712 0.0
C161 C 0.62759 0.11739 0.91981 0.0
C162 C 0.66581 0.06604 0.80448 0.0
C163 C 0.56936 0.13222 0.80332 0.0
O164 O 0.57377 0.11466 0.83268 0.0
O165 O 0.59459 0.14557 0.78633 0.0
O166 O 0.61033 0.09072 0.90956 0.0
O167 O 0.64136 0.1367 0.89471 0.0
O168 O 0.89162 0.3172 0.73619 0.0
Cd169 Cd 0.84465 0.3391 0.72406 0.0
Cd170 Cd 0.88147 0.36474 0.66517 0.0
O171 O 0.9213 0.33692 0.68839 0.0
O172 O 0.81445 0.31755 0.76208 0.0
O173 O 0.80574 0.31144 0.70161 0.0
C174 C 0.79671 0.30473 0.73532 0.0
C175 C 0.8685 0.3577 0.60275 0.0
C176 C 0.91958 0.31969 0.71829 0.0
C177 C 0.85307 0.41597 0.71917 0.0
O178 O 0.87064 0.41162 0.68982 0.0
O179 O 0.83986 0.39068 0.73621 0.0
O180 O 0.89505 0.3751 0.61311 0.0
O181 O 0.84917 0.34386 0.62777 0.0
O182 O 0.66838 0.89229 0.736 0.0
Cd183 Cd 0.64654 0.84522 0.72407 0.0
Cd184 Cd 0.62066 0.88183 0.6651 0.0
O185 O 0.64863 0.92176 0.68802 0.0
O186 O 0.66836 0.81515 0.76211 0.0
O187 O 0.6742 0.80637 0.70163 0.0
C188 C 0.68111 0.79741 0.73534 0.0
C189 C 0.62737 0.86854 0.60274 0.0
C190 C 0.66589 0.92017 0.71795 0.0
C191 C 0.56968 0.85358 0.71937 0.0
O192 O 0.57392 0.87112 0.68997 0.0
O193 O 0.59503 0.84036 0.73635 0.0
O194 O 0.61005 0.89515 0.61299 0.0
O195 O 0.64131 0.84932 0.62783 0.0
O196 O 0.09384 0.66779 0.73624 0.0
Cd197 Cd 0.14083 0.64601 0.72405 0.0
Cd198 Cd 0.10396 0.62029 0.66516 0.0
O199 O 0.06412 0.64809 0.68832 0.0
O200 O 0.17115 0.66775 0.76199 0.0
O201 O 0.17954 0.67373 0.70148 0.0
C202 C 0.18872 0.68056 0.73517 0.0
C203 C 0.11706 0.62737 0.60284 0.0
C204 C 0.06586 0.66528 0.7183 0.0
C205 C 0.13248 0.56914 0.71911 0.0
O206 O 0.11482 0.57345 0.68977 0.0
O207 O 0.14576 0.59446 0.73615 0.0
O208 O 0.0905 0.60995 0.61299 0.0
O209 O 0.13633 0.64121 0.62801 0.0
O210 O 0.31716 0.09343 0.73561 0.0
Cd211 Cd 0.33911 0.14041 0.72372 0.0
Cd212 Cd 0.36499 0.10365 0.66496 0.0
O213 O 0.33699 0.06378 0.68777 0.0
O214 O 0.3173 0.17064 0.76162 0.0
O215 O 0.31157 0.17925 0.7011 0.0
C216 C 0.30463 0.18832 0.73477 0.0
C217 C 0.35821 0.1169 0.60263 0.0
C218 C 0.31967 0.06548 0.71761 0.0
C219 C 0.41596 0.13195 0.7194 0.0
O220 O 0.41174 0.11436 0.68998 0.0
O221 O 0.3906 0.14523 0.73627 0.0
O222 O 0.37552 0.09029 0.61285 0.0
O223 O 0.34431 0.13615 0.62775 0.0
C224 C 0.24641 0.22263 0.26902 0.0
C225 C 0.26913 0.20393 0.27957 0.0
C226 C 0.22249 0.24667 0.25501 0.0
C227 C 0.20394 0.26943 0.24426 0.0
C228 C 0.76366 0.24646 0.26772 0.0
C229 C 0.78235 0.26918 0.27837 0.0
C230 C 0.73958 0.2225 0.25379 0.0
C231 C 0.71676 0.20386 0.24326 0.0
C232 C 0.76309 0.73921 0.25382 0.0
C233 C 0.78172 0.71646 0.24322 0.0
C234 C 0.7391 0.76319 0.26782 0.0
C235 C 0.71638 0.78182 0.27848 0.0
C236 C 0.24605 0.76348 0.25384 0.0
C237 C 0.26883 0.78201 0.24312 0.0
C238 C 0.22206 0.73959 0.26795 0.0
C239 C 0.20345 0.71688 0.27868 0.0
C240 C 0.72243 0.74657 0.75413 0.0
C241 C 0.70381 0.76934 0.74356 0.0
C242 C 0.74644 0.72256 0.76803 0.0
C243 C 0.76919 0.70391 0.7786 0.0
C244 C 0.2397 0.72185 0.75383 0.0
C245 C 0.21685 0.70324 0.74332 0.0
C246 C 0.26374 0.74588 0.7677 0.0
C247 C 0.28234 0.76872 0.77825 0.0
C248 C 0.23936 0.26321 0.76741 0.0
C249 C 0.21657 0.28175 0.77808 0.0
C250 C 0.26337 0.23924 0.75343 0.0
C251 C 0.28197 0.21644 0.74288 0.0
C252 C 0.72168 0.23974 0.76816 0.0
C253 C 0.70313 0.21696 0.77881 0.0
C254 C 0.7457 0.26367 0.75417 0.0
C255 C 0.76854 0.28217 0.74355 0.0
C256 C 0.12949 0.35459 0.99148 0.0
C257 C 0.12557 0.35518 0.95826 0.0
C258 C 0.13142 0.35657 0.0306 0.0
C259 C 0.13076 0.3605 0.06382 0.0
C260 C 0.63137 0.1293 0.99183 0.0
C261 C 0.63069 0.1254 0.9586 0.0
C262 C 0.62944 0.1312 0.03094 0.0
C263 C 0.62553 0.13049 0.06415 0.0
C264 C 0.85603 0.63094 0.99152 0.0
C265 C 0.85998 0.63034 0.95831 0.0
C266 C 0.85408 0.62895 0.03062 0.0
C267 C 0.85476 0.62503 0.06384 0.0
C268 C 0.35616 0.8543 0.03011 0.0
C269 C 0.36006 0.85499 0.06334 0.0
C270 C 0.35425 0.85625 0.991 0.0
C271 C 0.35493 0.86019 0.9578 0.0
C272 C 0.12888 0.63126 0.53086 0.0
C273 C 0.125 0.63053 0.56407 0.0
C274 C 0.13082 0.62938 0.49174 0.0
C275 C 0.13019 0.62549 0.45851 0.0
C276 C 0.35457 0.12885 0.53065 0.0
C277 C 0.35518 0.12492 0.56386 0.0
C278 C 0.35652 0.1308 0.49155 0.0
C279 C 0.36043 0.13015 0.45833 0.0
C280 C 0.85503 0.35584 0.49157 0.0
C281 C 0.85573 0.35983 0.45836 0.0
C282 C 0.85686 0.35388 0.53068 0.0
C283 C 0.86065 0.35457 0.56393 0.0
C284 C 0.63095 0.85658 0.53073 0.0
C285 C 0.63036 0.86053 0.56395 0.0
C286 C 0.62899 0.85462 0.49162 0.0
C287 C 0.6251 0.85527 0.45839 0.0
C288 C 0.18487 0.50879 0.27127 0.0
C289 C 0.17599 0.53489 0.28656 0.0
C290 C 0.18495 0.47768 0.25107 0.0
C291 C 0.17618 0.45152 0.23578 0.0
C292 C 0.5084 0.18418 0.25119 0.0
C293 C 0.53458 0.17549 0.23596 0.0
C294 C 0.47729 0.18416 0.27129 0.0
C295 C 0.45114 0.17543 0.28652 0.0
C296 C 0.80124 0.50832 0.25141 0.0
C297 C 0.8099 0.53443 0.23604 0.0
C298 C 0.8014 0.47727 0.27163 0.0
C299 C 0.81028 0.45116 0.28689 0.0
C300 C 0.50824 0.80125 0.27082 0.0
C301 C 0.53439 0.81 0.28615 0.0
C302 C 0.47713 0.80123 0.25062 0.0
C303 C 0.45097 0.80996 0.23533 0.0
C304 C 0.84863 0.50864 0.77048 0.0
C305 C 0.85099 0.53615 0.78581 0.0
C306 C 0.84868 0.477 0.75114 0.0
C307 C 0.8511 0.44946 0.73589 0.0
C308 C 0.5088 0.84935 0.75146 0.0
C309 C 0.53628 0.85168 0.73618 0.0
C310 C 0.47719 0.84933 0.77076 0.0
C311 C 0.44967 0.85163 0.78599 0.0
C312 C 0.13686 0.47661 0.77044 0.0
C313 C 0.13449 0.44914 0.78578 0.0
C314 C 0.13684 0.50819 0.75108 0.0
C315 C 0.13443 0.5357 0.73584 0.0
C316 C 0.4768 0.13621 0.75177 0.0
C317 C 0.44933 0.13386 0.73636 0.0
C318 C 0.50839 0.13626 0.77122 0.0
C319 C 0.53589 0.13399 0.78654 0.0
C320 C 0.68517 0.00873 0.77126 0.0
C321 C 0.67629 0.03484 0.78653 0.0
C322 C 0.68519 0.9776 0.75109 0.0
C323 C 0.67633 0.95144 0.73584 0.0
C324 C 0.97745 0.68449 0.7717 0.0
C325 C 0.95127 0.67575 0.78685 0.0
C326 C 0.00857 0.68446 0.7516 0.0
C327 C 0.03468 0.67567 0.73631 0.0
C328 C 0.30034 0.00813 0.75066 0.0
C329 C 0.3092 0.03427 0.73548 0.0
C330 C 0.30037 0.977 0.77074 0.0
C331 C 0.30928 0.95089 0.78596 0.0
C332 C 0.00814 0.30046 0.77155 0.0
C333 C 0.03438 0.30927 0.78665 0.0
C334 C 0.97694 0.30045 0.75152 0.0
C335 C 0.95077 0.30926 0.7363 0.0
C336 C 0.34816 0.00857 0.27043 0.0
C337 C 0.35063 0.03602 0.28584 0.0
C338 C 0.34817 0.977 0.25094 0.0
C339 C 0.35065 0.94953 0.23558 0.0
C340 C 0.97752 0.34886 0.2708 0.0
C341 C 0.95008 0.3512 0.28616 0.0
C342 C 0.00904 0.34892 0.25135 0.0
C343 C 0.03648 0.35136 0.236 0.0
C344 C 0.63736 0.97706 0.27104 0.0
C345 C 0.63485 0.94958 0.28632 0.0
C346 C 0.63741 0.00864 0.25166 0.0
C347 C 0.63498 0.0361 0.23634 0.0
C348 C 0.00849 0.63699 0.27072 0.0
C349 C 0.03596 0.63462 0.2861 0.0
C350 C 0.97691 0.63697 0.25126 0.0
C351 C 0.94942 0.63454 0.23591 0.0
loop_
_geom_bond_atom_site_label_1
_geom_bond_atom_site_label_2
_geom_bond_distance
_geom_bond_site_symmetry_2
_ccdc_geom_bond_type
O0 Cd1 2.223 . S
O0 C8 1.315 . S
Cd1 O0 2.223 . S
Cd1 O4 2.297 . S
Cd1 O5 2.439 . S
Cd1 O11 2.240 . S
Cd2 O3 2.240 . S
Cd2 O10 2.223 . S
Cd2 O12 2.297 . S
Cd2 O13 2.439 . S
O3 Cd2 2.240 . S
O3 C8 1.279 . S
O4 Cd1 2.297 . S
O4 C6 1.247 . S
O5 Cd1 2.439 . S
O5 C6 1.208 . S
C6 O4 1.247 . S
C6 O5 1.208 . S
C7 O12 1.247 . S
C7 O13 1.208 . S
C8 O0 1.315 . S
C8 O3 1.279 . S
C9 O10 1.315 . S
C9 O11 1.279 . S
O10 Cd2 2.223 . S
O10 C9 1.315 . S
O11 Cd1 2.240 . S
O11 C9 1.279 . S
O12 Cd2 2.297 . S
O12 C7 1.247 . S
O13 Cd2 2.439 . S
O13 C7 1.208 . S
O14 Cd15 2.223 . S
O14 C22 1.315 . S
Cd15 O14 2.223 . S
Cd15 O18 2.297 . S
Cd15 O19 2.439 . S
Cd15 O25 2.240 . S
Cd16 O17 2.240 . S
Cd16 O24 2.223 . S
Cd16 O26 2.297 . S
Cd16 O27 2.439 . S
O17 Cd16 2.240 . S
O17 C22 1.279 . S
O18 Cd15 2.297 . S
O18 C20 1.247 . S
O19 Cd15 2.439 . S
O19 C20 1.208 . S
C20 O18 1.247 . S
C20 O19 1.208 . S
C21 O26 1.247 . S
C21 O27 1.208 . S
C22 O14 1.315 . S
C22 O17 1.279 . S
C23 O24 1.315 . S
C23 O25 1.279 . S
O24 Cd16 2.223 . S
O24 C23 1.315 . S
O25 Cd15 2.240 . S
O25 C23 1.279 . S
O26 Cd16 2.297 . S
O26 C21 1.247 . S
O27 Cd16 2.439 . S
O27 C21 1.208 . S
O28 Cd29 2.223 . S
O28 C36 1.315 . S
Cd29 O28 2.223 . S
Cd29 O32 2.297 . S
Cd29 O33 2.439 . S
Cd29 O39 2.240 . S
Cd30 O31 2.240 . S
Cd30 O38 2.223 . S
Cd30 O40 2.297 . S
Cd30 O41 2.439 . S
O31 Cd30 2.240 . S
O31 C36 1.279 . S
O32 Cd29 2.297 . S
O32 C34 1.247 . S
O33 Cd29 2.439 . S
O33 C34 1.208 . S
C34 O32 1.247 . S
C34 O33 1.208 . S
C35 O40 1.247 . S
C35 O41 1.208 . S
C36 O28 1.315 . S
C36 O31 1.279 . S
C37 O38 1.315 . S
C37 O39 1.279 . S
O38 Cd30 2.223 . S
O38 C37 1.315 . S
O39 Cd29 2.240 . S
O39 C37 1.279 . S
O40 Cd30 2.297 . S
O40 C35 1.247 . S
O41 Cd30 2.439 . S
O41 C35 1.208 . S
O42 Cd43 2.223 . S
O42 C50 1.315 . S
Cd43 O42 2.223 . S
Cd43 O46 2.297 . S
Cd43 O47 2.439 . S
Cd43 O53 2.240 . S
Cd44 O45 2.240 . S
Cd44 O52 2.223 . S
Cd44 O54 2.297 . S
Cd44 O55 2.439 . S
O45 Cd44 2.240 . S
O45 C50 1.279 . S
O46 Cd43 2.297 . S
O46 C48 1.247 . S
O47 Cd43 2.439 . S
O47 C48 1.208 . S
C48 O46 1.247 . S
C48 O47 1.208 . S
C49 O54 1.247 . S
C49 O55 1.208 . S
C50 O42 1.315 . S
C50 O45 1.279 . S
C51 O52 1.315 . S
C51 O53 1.279 . S
O52 Cd44 2.223 . S
O52 C51 1.315 . S
O53 Cd43 2.240 . S
O53 C51 1.279 . S
O54 Cd44 2.297 . S
O54 C49 1.247 . S
O55 Cd44 2.439 . S
O55 C49 1.208 . S
O56 Cd57 2.223 . S
O56 C64 1.315 . S
Cd57 O56 2.223 . S
Cd57 O60 2.297 . S
Cd57 O61 2.439 . S
Cd57 O67 2.240 . S
Cd58 O59 2.240 . S
Cd58 O66 2.223 . S
Cd58 O68 2.297 . S
Cd58 O69 2.439 . S
O59 Cd58 2.240 . S
O59 C64 1.279 . S
O60 Cd57 2.297 . S
O60 C62 1.247 . S
O61 Cd57 2.439 . S
O61 C62 1.208 . S
C62 O60 1.247 . S
C62 O61 1.208 . S
C63 O68 1.247 . S
C63 O69 1.208 . S
C64 O56 1.315 . S
C64 O59 1.279 . S
C65 O66 1.315 . S
C65 O67 1.279 . S
O66 Cd58 2.223 . S
O66 C65 1.315 . S
O67 Cd57 2.240 . S
O67 C65 1.279 . S
O68 Cd58 2.297 . S
O68 C63 1.247 . S
O69 Cd58 2.439 . S
O69 C63 1.208 . S
O70 Cd71 2.223 . S
O70 C78 1.315 . S
Cd71 O70 2.223 . S
Cd71 O74 2.297 . S
Cd71 O75 2.439 . S
Cd71 O81 2.240 . S
Cd72 O73 2.240 . S
Cd72 O80 2.223 . S
Cd72 O82 2.297 . S
Cd72 O83 2.439 . S
O73 Cd72 2.240 . S
O73 C78 1.279 . S
O74 Cd71 2.297 . S
O74 C76 1.247 . S
O75 Cd71 2.439 . S
O75 C76 1.208 . S
C76 O74 1.247 . S
C76 O75 1.208 . S
C77 O82 1.247 . S
C77 O83 1.208 . S
C78 O70 1.315 . S
C78 O73 1.279 . S
C79 O80 1.315 . S
C79 O81 1.279 . S
O80 Cd72 2.223 . S
O80 C79 1.315 . S
O81 Cd71 2.240 . S
O81 C79 1.279 . S
O82 Cd72 2.297 . S
O82 C77 1.247 . S
O83 Cd72 2.439 . S
O83 C77 1.208 . S
O84 Cd85 2.223 . S
O84 C92 1.315 . S
Cd85 O84 2.223 . S
Cd85 O88 2.297 . S
Cd85 O89 2.439 . S
Cd85 O95 2.240 . S
Cd86 O87 2.240 . S
Cd86 O94 2.223 . S
Cd86 O96 2.297 . S
Cd86 O97 2.439 . S
O87 Cd86 2.240 . S
O87 C92 1.279 . S
O88 Cd85 2.297 . S
O88 C90 1.247 . S
O89 Cd85 2.439 . S
O89 C90 1.208 . S
C90 O88 1.247 . S
C90 O89 1.208 . S
C91 O96 1.247 . S
C91 O97 1.208 . S
C92 O84 1.315 . S
C92 O87 1.279 . S
C93 O94 1.315 . S
C93 O95 1.279 . S
O94 Cd86 2.223 . S
O94 C93 1.315 . S
O95 Cd85 2.240 . S
O95 C93 1.279 . S
O96 Cd86 2.297 . S
O96 C91 1.247 . S
O97 Cd86 2.439 . S
O97 C91 1.208 . S
O98 Cd99 2.223 . S
O98 C106 1.315 . S
Cd99 O98 2.223 . S
Cd99 O102 2.297 . S
Cd99 O103 2.439 . S
Cd99 O109 2.240 . S
Cd100 O101 2.240 . S
Cd100 O108 2.223 . S
Cd100 O110 2.297 . S
Cd100 O111 2.439 . S
O101 Cd100 2.240 . S
O101 C106 1.279 . S
O102 Cd99 2.297 . S
O102 C104 1.247 . S
O103 Cd99 2.439 . S
O103 C104 1.208 . S
C104 O102 1.247 . S
C104 O103 1.208 . S
C105 O110 1.247 . S
C105 O111 1.208 . S
C106 O98 1.315 . S
C106 O101 1.279 . S
C107 O108 1.315 . S
C107 O109 1.279 . S
O108 Cd100 2.223 . S
O108 C107 1.315 . S
O109 Cd99 2.240 . S
O109 C107 1.279 . S
O110 Cd100 2.297 . S
O110 C105 1.247 . S
O111 Cd100 2.439 . S
O111 C105 1.208 . S
O112 Cd113 2.223 . S
O112 C120 1.315 . S
Cd113 O112 2.223 . S
Cd113 O116 2.297 . S
Cd113 O117 2.439 . S
Cd113 O123 2.240 . S
Cd114 O115 2.240 . S
Cd114 O122 2.223 . S
Cd114 O124 2.297 . S
Cd114 O125 2.439 . S
O115 Cd114 2.240 . S
O115 C120 1.279 . S
O116 Cd113 2.297 . S
O116 C118 1.247 . S
O117 Cd113 2.439 . S
O117 C118 1.208 . S
C118 O116 1.247 . S
C118 O117 1.208 . S
C119 O124 1.247 . S
C119 O125 1.208 . S
C120 O112 1.315 . S
C120 O115 1.279 . S
C121 O122 1.315 . S
C121 O123 1.279 . S
O122 Cd114 2.223 . S
O122 C121 1.315 . S
O123 Cd113 2.240 . S
O123 C121 1.279 . S
O124 Cd114 2.297 . S
O124 C119 1.247 . S
O125 Cd114 2.439 . S
O125 C119 1.208 . S
O126 Cd127 2.223 . S
O126 C134 1.315 . S
Cd127 O126 2.223 . S
Cd127 O130 2.297 . S
Cd127 O131 2.439 . S
Cd127 O137 2.240 . S
Cd128 O129 2.240 . S
Cd128 O136 2.223 . S
Cd128 O138 2.297 . S
Cd128 O139 2.439 . S
O129 Cd128 2.240 . S
O129 C134 1.279 . S
O130 Cd127 2.297 . S
O130 C132 1.247 . S
O131 Cd127 2.439 . S
O131 C132 1.208 . S
C132 O130 1.247 . S
C132 O131 1.208 . S
C133 O138 1.247 . S
C133 O139 1.208 . S
C134 O126 1.315 . S
C134 O129 1.279 . S
C135 O136 1.315 . S
C135 O137 1.279 . S
O136 Cd128 2.223 . S
O136 C135 1.315 . S
O137 Cd127 2.240 . S
O137 C135 1.279 . S
O138 Cd128 2.297 . S
O138 C133 1.247 . S
O139 Cd128 2.439 . S
O139 C133 1.208 . S
O140 Cd141 2.223 . S
O140 C148 1.315 . S
Cd141 O140 2.223 . S
Cd141 O144 2.297 . S
Cd141 O145 2.439 . S
Cd141 O151 2.240 . S
Cd142 O143 2.240 . S
Cd142 O150 2.223 . S
Cd142 O152 2.297 . S
Cd142 O153 2.439 . S
O143 Cd142 2.240 . S
O143 C148 1.279 . S
O144 Cd141 2.297 . S
O144 C146 1.247 . S
O145 Cd141 2.439 . S
O145 C146 1.208 . S
C146 O144 1.247 . S
C146 O145 1.208 . S
C147 O152 1.247 . S
C147 O153 1.208 . S
C148 O140 1.315 . S
C148 O143 1.279 . S
C149 O150 1.315 . S
C149 O151 1.279 . S
O150 Cd142 2.223 . S
O150 C149 1.315 . S
O151 Cd141 2.240 . S
O151 C149 1.279 . S
O152 Cd142 2.297 . S
O152 C147 1.247 . S
O153 Cd142 2.439 . S
O153 C147 1.208 . S
O154 Cd155 2.223 . S
O154 C162 1.315 . S
Cd155 O154 2.223 . S
Cd155 O158 2.297 . S
Cd155 O159 2.439 . S
Cd155 O165 2.240 . S
Cd156 O157 2.240 . S
Cd156 O164 2.223 . S
Cd156 O166 2.297 . S
Cd156 O167 2.439 . S
O157 Cd156 2.240 . S
O157 C162 1.279 . S
O158 Cd155 2.297 . S
O158 C160 1.247 . S
O159 Cd155 2.439 . S
O159 C160 1.208 . S
C160 O158 1.247 . S
C160 O159 1.208 . S
C161 O166 1.247 . S
C161 O167 1.208 . S
C162 O154 1.315 . S
C162 O157 1.279 . S
C163 O164 1.315 . S
C163 O165 1.279 . S
O164 Cd156 2.223 . S
O164 C163 1.315 . S
O165 Cd155 2.240 . S
O165 C163 1.279 . S
O166 Cd156 2.297 . S
O166 C161 1.247 . S
O167 Cd156 2.439 . S
O167 C161 1.208 . S
O168 Cd169 2.223 . S
O168 C176 1.315 . S
Cd169 O168 2.223 . S
Cd169 O172 2.297 . S
Cd169 O173 2.439 . S
Cd169 O179 2.240 . S
Cd170 O171 2.240 . S
Cd170 O178 2.223 . S
Cd170 O180 2.297 . S
Cd170 O181 2.439 . S
O171 Cd170 2.240 . S
O171 C176 1.279 . S
O172 Cd169 2.297 . S
O172 C174 1.247 . S
O173 Cd169 2.439 . S
O173 C174 1.208 . S
C174 O172 1.247 . S
C174 O173 1.208 . S
C175 O180 1.247 . S
C175 O181 1.208 . S
C176 O168 1.315 . S
C176 O171 1.279 . S
C177 O178 1.315 . S
C177 O179 1.279 . S
O178 Cd170 2.223 . S
O178 C177 1.315 . S
O179 Cd169 2.240 . S
O179 C177 1.279 . S
O180 Cd170 2.297 . S
O180 C175 1.247 . S
O181 Cd170 2.439 . S
O181 C175 1.208 . S
O182 Cd183 2.223 . S
O182 C190 1.315 . S
Cd183 O182 2.223 . S
Cd183 O186 2.297 . S
Cd183 O187 2.439 . S
Cd183 O193 2.240 . S
Cd184 O185 2.240 . S
Cd184 O192 2.223 . S
Cd184 O194 2.297 . S
Cd184 O195 2.439 . S
O185 Cd184 2.240 . S
O185 C190 1.279 . S
O186 Cd183 2.297 . S
O186 C188 1.247 . S
O187 Cd183 2.439 . S
O187 C188 1.208 . S
C188 O186 1.247 . S
C188 O187 1.208 . S
C189 O194 1.247 . S
C189 O195 1.208 . S
C190 O182 1.315 . S
C190 O185 1.279 . S
C191 O192 1.315 . S
C191 O193 1.279 . S
O192 Cd184 2.223 . S
O192 C191 1.315 . S
O193 Cd183 2.240 . S
O193 C191 1.279 . S
O194 Cd184 2.297 . S
O194 C189 1.247 . S
O195 Cd184 2.439 . S
O195 C189 1.208 . S
O196 Cd197 2.223 . S
O196 C204 1.315 . S
Cd197 O196 2.223 . S
Cd197 O200 2.297 . S
Cd197 O201 2.439 . S
Cd197 O207 2.240 . S
Cd198 O199 2.240 . S
Cd198 O206 2.223 . S
Cd198 O208 2.297 . S
Cd198 O209 2.439 . S
O199 Cd198 2.240 . S
O199 C204 1.279 . S
O200 Cd197 2.297 . S
O200 C202 1.247 . S
O201 Cd197 2.439 . S
O201 C202 1.208 . S
C202 O200 1.247 . S
C202 O201 1.208 . S
C203 O208 1.247 . S
C203 O209 1.208 . S
C204 O196 1.315 . S
C204 O199 1.279 . S
C205 O206 1.315 . S
C205 O207 1.279 . S
O206 Cd198 2.223 . S
O206 C205 1.315 . S
O207 Cd197 2.240 . S
O207 C205 1.279 . S
O208 Cd198 2.297 . S
O208 C203 1.247 . S
O209 Cd198 2.439 . S
O209 C203 1.208 . S
O210 Cd211 2.223 . S
O210 C218 1.315 . S
Cd211 O210 2.223 . S
Cd211 O214 2.297 . S
Cd211 O215 2.439 . S
Cd211 O221 2.240 . S
Cd212 O213 2.240 . S
Cd212 O220 2.223 . S
Cd212 O222 2.297 . S
Cd212 O223 2.439 . S
O213 Cd212 2.240 . S
O213 C218 1.279 . S
O214 Cd211 2.297 . S
O214 C216 1.247 . S
O215 Cd211 2.439 . S
O215 C216 1.208 . S
C216 O214 1.247 . S
C216 O215 1.208 . S
C217 O222 1.247 . S
C217 O223 1.208 . S
C218 O210 1.315 . S
C218 O213 1.279 . S
C219 O220 1.315 . S
C219 O221 1.279 . S
O220 Cd212 2.223 . S
O220 C219 1.315 . S
O221 Cd211 2.240 . S
O221 C219 1.279 . S
O222 Cd212 2.297 . S
O222 C217 1.247 . S
O223 Cd212 2.439 . S
O223 C217 1.208 . S
C224 C225 1.170 . S
C224 C226 1.380 . S
C225 C224 1.170 . S
C226 C224 1.380 . S
C226 C227 1.170 . S
C227 C226 1.170 . S
C228 C229 1.170 . S
C228 C230 1.380 . S
C229 C228 1.170 . S
C230 C228 1.380 . S
C230 C231 1.170 . S
C231 C230 1.170 . S
C232 C233 1.170 . S
C232 C234 1.380 . S
C233 C232 1.170 . S
C234 C232 1.380 . S
C234 C235 1.170 . S
C235 C234 1.170 . S
C236 C237 1.170 . S
C236 C238 1.380 . S
C237 C236 1.170 . S
C238 C236 1.380 . S
C238 C239 1.170 . S
C239 C238 1.170 . S
C240 C241 1.170 . S
C240 C242 1.380 . S
C241 C240 1.170 . S
C242 C240 1.380 . S
C242 C243 1.170 . S
C243 C242 1.170 . S
C244 C245 1.170 . S
C244 C246 1.380 . S
C245 C244 1.170 . S
C246 C244 1.380 . S
C246 C247 1.170 . S
C247 C246 1.170 . S
C248 C249 1.170 . S
C248 C250 1.380 . S
C249 C248 1.170 . S
C250 C248 1.380 . S
C250 C251 1.170 . S
C251 C250 1.170 . S
C252 C253 1.170 . S
C252 C254 1.380 . S
C253 C252 1.170 . S
C254 C252 1.380 . S
C254 C255 1.170 . S
C255 C254 1.170 . S
C256 C257 1.170 . S
C256 C258 1.380 1_556 S
C257 C256 1.170 . S
C258 C256 1.380 1_554 S
C258 C259 1.170 . S
C259 C258 1.170 . S
C260 C261 1.170 . S
C260 C262 1.380 1_556 S
C261 C260 1.170 . S
C262 C260 1.380 1_554 S
C262 C263 1.170 . S
C263 C262 1.170 . S
C264 C265 1.170 . S
C264 C266 1.380 1_556 S
C265 C264 1.170 . S
C266 C264 1.380 1_554 S
C266 C267 1.170 . S
C267 C266 1.170 . S
C268 C269 1.170 . S
C268 C270 1.380 1_554 S
C269 C268 1.170 . S
C270 C268 1.380 1_556 S
C270 C271 1.170 . S
C271 C270 1.170 . S
C272 C273 1.170 . S
C272 C274 1.380 . S
C273 C272 1.170 . S
C274 C272 1.380 . S
C274 C275 1.170 . S
C275 C274 1.170 . S
C276 C277 1.170 . S
C276 C278 1.380 . S
C277 C276 1.170 . S
C278 C276 1.380 . S
C278 C279 1.170 . S
C279 C278 1.170 . S
C280 C281 1.170 . S
C280 C282 1.380 . S
C281 C280 1.170 . S
C282 C280 1.380 . S
C282 C283 1.170 . S
C283 C282 1.170 . S
C284 C285 1.170 . S
C284 C286 1.380 . S
C285 C284 1.170 . S
C286 C284 1.380 . S
C286 C287 1.170 . S
C287 C286 1.170 . S
C288 C289 1.170 . S
C288 C290 1.380 . S
C289 C288 1.170 . S
C290 C288 1.380 . S
C290 C291 1.170 . S
C291 C290 1.170 . S
C292 C293 1.170 . S
C292 C294 1.380 . S
C293 C292 1.170 . S
C294 C292 1.380 . S
C294 C295 1.170 . S
C295 C294 1.170 . S
C296 C297 1.170 . S
C296 C298 1.380 . S
C297 C296 1.170 . S
C298 C296 1.380 . S
C298 C299 1.170 . S
C299 C298 1.170 . S
C300 C301 1.170 . S
C300 C302 1.380 . S
C301 C300 1.170 . S
C302 C300 1.380 . S
C302 C303 1.170 . S
C303 C302 1.170 . S
C304 C305 1.170 . S
C304 C306 1.380 . S
C305 C304 1.170 . S
C306 C304 1.380 . S
C306 C307 1.170 . S
C307 C306 1.170 . S
C308 C309 1.170 . S
C308 C310 1.380 . S
C309 C308 1.170 . S
C310 C308 1.380 . S
C310 C311 1.170 . S
C311 C310 1.170 . S
C312 C313 1.170 . S
C312 C314 1.380 . S
C313 C312 1.170 . S
C314 C312 1.380 . S
C314 C315 1.170 . S
C315 C314 1.170 . S
C316 C317 1.170 . S
C316 C318 1.380 . S
C317 C316 1.170 . S
C318 C316 1.380 . S
C318 C319 1.170 . S
C319 C318 1.170 . S
C320 C321 1.170 . S
C320 C322 1.380 1_545 S
C321 C320 1.170 . S
C322 C320 1.380 1_565 S
C322 C323 1.170 . S
C323 C322 1.170 . S
C324 C325 1.170 . S
C324 C326 1.380 1_655 S
C325 C324 1.170 . S
C326 C324 1.380 1_455 S
C326 C327 1.170 . S
C327 C326 1.170 . S
C328 C329 1.170 . S
C328 C330 1.380 1_545 S
C329 C328 1.170 . S
C330 C328 1.380 1_565 S
C330 C331 1.170 . S
C331 C330 1.170 . S
C332 C333 1.170 . S
C332 C334 1.380 1_455 S
C333 C332 1.170 . S
C334 C332 1.380 1_655 S
C334 C335 1.170 . S
C335 C334 1.170 . S
C336 C337 1.170 . S
C336 C338 1.380 1_545 S
C337 C336 1.170 . S
C338 C336 1.380 1_565 S
C338 C339 1.170 . S
C339 C338 1.170 . S
C340 C341 1.170 . S
C340 C342 1.380 1_655 S
C341 C340 1.170 . S
C342 C340 1.380 1_455 S
C342 C343 1.170 . S
C343 C342 1.170 . S
C344 C345 1.170 . S
C344 C346 1.380 1_565 S
C345 C344 1.170 . S
C346 C344 1.380 1_545 S
C346 C347 1.170 . S
C347 C346 1.170 . S
C348 C349 1.170 . S
C348 C350 1.380 1_455 S
C349 C348 1.170 . S
C350 C348 1.380 1_655 S
C350 C351 1.170 . S
C351 C350 1.170 . S
C225 C76 1.576 . S
C227 C6 1.544 . S
C229 C90 1.547 . S
C231 C20 1.556 . S
C233 C34 1.577 . S
C235 C104 1.546 . S
C237 C48 1.571 . S
C239 C62 1.540 . S
C241 C188 1.550 . S
C243 C118 1.577 . S
C245 C202 1.543 . S
C247 C132 1.562 . S
C249 C146 1.548 . S
C251 C216 1.577 . S
C253 C160 1.563 . S
C255 C174 1.542 . S
C257 C147 1.496 . S
C259 C7 1.478 . S
C261 C161 1.504 . S
C263 C21 1.510 . S
C265 C119 1.504 . S
C267 C35 1.485 . S
C269 C49 1.485 . S
C271 C133 1.504 . S
C273 C203 1.476 . S
C275 C63 1.493 . S
C277 C217 1.475 . S
C279 C77 1.480 . S
C281 C91 1.510 . S
C283 C175 1.497 . S
C285 C189 1.484 . S
C287 C105 1.474 . S
C289 C64 0.713 . S
C291 C8 0.716 . S
C293 C22 0.698 . S
C295 C78 0.697 . S
C297 C36 0.697 . S
C299 C92 0.700 . S
C301 C106 0.703 . S
C303 C50 0.711 . S
C305 C121 2.195 . S
C307 C177 2.194 . S
C309 C191 2.195 . S
C311 C135 2.197 . S
C313 C149 2.194 . S
C315 C205 2.196 . S
C317 C219 2.195 . S
C319 C163 2.197 . S
C321 C162 0.716 . S
C323 C190 0.712 . S
C325 C120 0.701 . S
C327 C204 0.697 . S
C329 C218 0.716 . S
C331 C134 0.715 . S
C333 C148 0.716 . S
C335 C176 0.714 . S
C337 C79 2.197 . S
C339 C51 2.199 . S
C341 C93 2.198 . S
C343 C9 2.197 . S
C345 C107 2.195 . S
C347 C23 2.194 . S
C349 C65 2.194 . S
C351 C37 2.195 . S
