# Generated by pormake.
# Topology zfn, (5)-cn, num edge types: 1
# Building blocks:
#     Node 0, Type 0, BuildingBlock: BEQFEK_clean_sbu_0, # of connection points: 5
#     Node 1, Type 0, BuildingBlock: BEQFEK_clean_sbu_0, # of connection points: 5
#     Node 2, Type 0, BuildingBlock: BEQFEK_clean_sbu_0, # of connection points: 5
#     Node 3, Type 0, BuildingBlock: BEQFEK_clean_sbu_0, # of connection points: 5
#     Node 4, Type 0, BuildingBlock: BEQFEK_clean_sbu_0, # of connection points: 5
#     Node 5, Type 0, BuildingBlock: BEQFEK_clean_sbu_0, # of connection points: 5
#     Node 6, Type 0, BuildingBlock: BEQFEK_clean_sbu_0, # of connection points: 5
#     Node 7, Type 0, BuildingBlock: BEQFEK_clean_sbu_0, # of connection points: 5
#     Node 8, Type 0, BuildingBlock: BEQFEK_clean_sbu_0, # of connection points: 5
#     Node 9, Type 0, BuildingBlock: BEQFEK_clean_sbu_0, # of connection points: 5
#     Node 10, Type 0, BuildingBlock: BEQFEK_clean_sbu_0, # of connection points: 5
#     Node 11, Type 0, BuildingBlock: BEQFEK_clean_sbu_0, # of connection points: 5
#     Node 12, Type 0, BuildingBlock: BEQFEK_clean_sbu_0, # of connection points: 5
#     Node 13, Type 0, BuildingBlock: BEQFEK_clean_sbu_0, # of connection points: 5
#     Node 14, Type 0, BuildingBlock: BEQFEK_clean_sbu_0, # of connection points: 5
#     Node 15, Type 0, BuildingBlock: BEQFEK_clean_sbu_0, # of connection points: 5
#     Edge 16, Type (0, 0), None
#     Edge 17, Type (0, 0), None
#     Edge 18, Type (0, 0), None
#     Edge 19, Type (0, 0), None
#     Edge 20, Type (0, 0), None
#     Edge 21, Type (0, 0), None
#     Edge 22, Type (0, 0), None
#     Edge 23, Type (0, 0), None
#     Edge 24, Type (0, 0), None
#     Edge 25, Type (0, 0), None
#     Edge 26, Type (0, 0), None
#     Edge 27, Type (0, 0), None
#     Edge 28, Type (0, 0), None
#     Edge 29, Type (0, 0), None
#     Edge 30, Type (0, 0), None
#     Edge 31, Type (0, 0), None
#     Edge 32, Type (0, 0), None
#     Edge 33, Type (0, 0), None
#     Edge 34, Type (0, 0), None
#     Edge 35, Type (0, 0), None
#     Edge 36, Type (0, 0), None
#     Edge 37, Type (0, 0), None
#     Edge 38, Type (0, 0), None
#     Edge 39, Type (0, 0), None
#     Edge 40, Type (0, 0), None
#     Edge 41, Type (0, 0), None
#     Edge 42, Type (0, 0), None
#     Edge 43, Type (0, 0), None
#     Edge 44, Type (0, 0), None
#     Edge 45, Type (0, 0), None
#     Edge 46, Type (0, 0), None
#     Edge 47, Type (0, 0), None
#     Edge 48, Type (0, 0), None
#     Edge 49, Type (0, 0), None
#     Edge 50, Type (0, 0), None
#     Edge 51, Type (0, 0), None
#     Edge 52, Type (0, 0), None
#     Edge 53, Type (0, 0), None
#     Edge 54, Type (0, 0), None
#     Edge 55, Type (0, 0), None
# Relax obj value: 0.185
# Max RMSD: 0.196
# Mean RMSD: 0.196
data_MOF--net-zfn--node1-BEQFEK_clean_sbu_0--edge1-none
_symmetry_space_group_name_H-M    P1
_symmetry_Int_Tables_number       1
_symmetry_cell_setting            triclinic
loop_
_symmetry_equiv_pos_as_xyz
'x, y, z'
_cell_length_a     34.953726
_cell_length_b     34.953459
_cell_length_c     10.788709
_cell_angle_alpha  90.001332
_cell_angle_beta   89.995731
_cell_angle_gamma 90.000325
loop_
_atom_site_label
_atom_site_type_symbol
_atom_site_fract_x
_atom_site_fract_y
_atom_site_fract_z
_atom_type_partial_charge
Co0 Co 0.99093 0.35686 0.97279 0.0
Co1 Co 0.01538 0.38127 0.23739 0.0
C2 C 0.94195 0.40884 0.10741 0.0
O3 O 0.94544 0.38775 0.01208 0.0
O4 O 0.96703 0.40885 0.19316 0.0
C5 C 0.98193 0.36663 0.7237 0.0
O6 O 0.96324 0.39649 0.76567 0.0
C7 C 0.98918 0.37939 0.49145 0.0
C8 C 0.04271 0.37185 0.5969 0.0
C9 C 0.00328 0.37122 0.60796 0.0
N10 N 0.01889 0.38367 0.41331 0.0
N11 N 0.05082 0.37946 0.47716 0.0
C12 C 0.94827 0.37805 0.45163 0.0
H13 H 0.9395 0.40704 0.42119 0.0
H14 H 0.94524 0.35843 0.37134 0.0
H15 H 0.92926 0.36844 0.52794 0.0
C16 C 0.98842 0.27989 0.10312 0.0
N17 N -0.00254 0.31742 0.0948 0.0
N18 N 0.01239 0.32822 0.2009 0.0
C19 C 0.01535 0.29765 0.27692 0.0
C20 C -0.00114 0.2664 0.22061 0.0
C21 C 0.96855 0.25821 1.00258 0.0
H22 H 0.94743 0.27702 0.95574 0.0
H23 H 0.95411 0.2324 0.03997 0.0
H24 H 0.98991 0.24934 0.93216 0.0
O25 O 0.03546 0.39263 0.96055 0.0
O26 O 0.05783 0.40796 0.14589 0.0
H27 H 0.05001 0.26663 0.40891 0.0
H28 H 0.02206 0.30472 0.47223 0.0
C29 C 0.03941 0.29606 0.39133 0.0
H30 H 0.06461 0.31491 0.38055 0.0
H31 H 0.07795 0.37875 0.43693 0.0
O32 O 0.99123 0.34006 0.79866 0.0
C33 C 0.05947 0.41032 0.02773 0.0
Co34 Co 0.13729 0.99092 0.47277 0.0
Co35 Co 0.11287 0.01537 0.73738 0.0
C36 C 0.08531 0.94193 0.60738 0.0
O37 O 0.1064 0.94543 0.51205 0.0
O38 O 0.0853 0.96701 0.69313 0.0
C39 C 0.12752 0.98191 0.22367 0.0
O40 O 0.09767 0.96321 0.26563 0.0
C41 C 0.11476 0.98916 0.99142 0.0
C42 C 0.12227 0.04269 0.09691 0.0
C43 C 0.12292 0.00326 0.10795 0.0
N44 N 0.11047 0.01887 0.91331 0.0
N45 N 0.11466 0.0508 0.97717 0.0
C46 C 0.11611 0.94825 0.95158 0.0
H47 H 0.08713 0.93947 0.92113 0.0
H48 H 0.13574 0.94523 0.87129 0.0
H49 H 0.12573 0.92924 0.02788 0.0
C50 C 0.21426 0.98844 0.6031 0.0
N51 N 0.17673 -0.00254 0.59478 0.0
N52 N 0.16592 0.01239 0.70088 0.0
C53 C 0.19649 0.01537 0.7769 0.0
C54 C 0.22774 -0.00111 0.72059 0.0
C55 C 0.23595 0.96858 0.50255 0.0
H56 H 0.21716 0.94746 0.4557 0.0
H57 H 0.26177 0.95416 0.53995 0.0
H58 H 0.24482 0.98996 0.43215 0.0
O59 O 0.10151 0.03545 0.46054 0.0
O60 O 0.08618 0.05781 0.6459 0.0
H61 H 0.22748 0.05005 0.90888 0.0
H62 H 0.18941 0.02209 0.97221 0.0
C63 C 0.19806 0.03944 0.8913 0.0
H64 H 0.1792 0.06462 0.88052 0.0
H65 H 0.11536 0.07793 0.93694 0.0
O66 O 0.15409 0.99122 0.29863 0.0
C67 C 0.08382 0.05945 0.52773 0.0
Co68 Co 0.5033 0.13728 0.97279 0.0
Co69 Co 0.47884 0.11287 0.23739 0.0
C70 C 0.55226 0.08527 0.10738 0.0
O71 O 0.54877 0.10636 0.01206 0.0
O72 O 0.52718 0.08527 0.19313 0.0
C73 C 0.5123 0.1275 0.72369 0.0
O74 O 0.53098 0.09764 0.76565 0.0
C75 C 0.50505 0.11475 0.49143 0.0
C76 C 0.45152 0.12227 0.59693 0.0
C77 C 0.49095 0.12291 0.60796 0.0
N78 N 0.47534 0.11047 0.41332 0.0
N79 N 0.44341 0.11467 0.47719 0.0
C80 C 0.54596 0.11609 0.45158 0.0
H81 H 0.55473 0.08711 0.42111 0.0
H82 H 0.54898 0.13573 0.3713 0.0
H83 H 0.56497 0.12571 0.52787 0.0
C84 C 0.5058 0.21425 0.10311 0.0
N85 N 0.49678 0.17672 0.0948 0.0
N86 N 0.48185 0.16592 0.20091 0.0
C87 C 0.47888 0.19649 0.27692 0.0
C88 C 0.49535 0.22774 0.22061 0.0
C89 C 0.52566 0.23594 1.00255 0.0
H90 H 0.54679 0.21715 0.95571 0.0
H91 H 0.54007 0.26177 0.03992 0.0
H92 H 0.50428 0.24479 0.93214 0.0
O93 O 0.45875 0.10153 0.96055 0.0
O94 O 0.43638 0.08621 0.14591 0.0
H95 H 0.44421 0.22749 0.40894 0.0
H96 H 0.47216 0.18941 0.47224 0.0
C97 C 0.45481 0.19807 0.39134 0.0
H98 H 0.42962 0.17922 0.38057 0.0
H99 H 0.41628 0.11538 0.43697 0.0
O100 O 0.50301 0.15407 0.79865 0.0
C101 C 0.43473 0.08385 0.02774 0.0
Co102 Co 0.35686 0.50325 0.4728 0.0
Co103 Co 0.38126 0.4788 0.73741 0.0
C104 C 0.40886 0.55222 0.60742 0.0
O105 O 0.38778 0.54873 0.51209 0.0
O106 O 0.40886 0.52714 0.69317 0.0
C107 C 0.36664 0.51225 0.22371 0.0
O108 O 0.3965 0.53093 0.26567 0.0
C109 C 0.37939 0.505 0.99145 0.0
C110 C 0.37185 0.45147 0.09693 0.0
C111 C 0.37123 0.4909 0.10798 0.0
N112 N 0.38366 0.47529 0.91333 0.0
N113 N 0.37945 0.44336 0.97718 0.0
C114 C 0.37806 0.54591 0.95162 0.0
H115 H 0.40704 0.55467 0.92117 0.0
H116 H 0.35843 0.54894 0.87134 0.0
H117 H 0.36845 0.56492 0.02792 0.0
C118 C 0.2799 0.50578 0.60312 0.0
N119 N 0.31742 0.49674 0.59482 0.0
N120 N 0.32822 0.48181 0.70092 0.0
C121 C 0.29764 0.47886 0.77694 0.0
C122 C 0.2664 0.49534 0.72062 0.0
C123 C 0.25822 0.52565 0.50257 0.0
H124 H 0.27702 0.54677 0.45575 0.0
H125 H 0.2324 0.54008 0.53994 0.0
H126 H 0.24936 0.50428 0.43214 0.0
O127 O 0.39262 0.45871 0.46056 0.0
O128 O 0.40793 0.43634 0.64591 0.0
H129 H 0.26662 0.4442 0.90896 0.0
H130 H 0.30472 0.47215 0.97225 0.0
C131 C 0.29606 0.4548 0.89136 0.0
H132 H 0.31489 0.4296 0.8806 0.0
H133 H 0.37874 0.41623 0.93696 0.0
O134 O 0.34007 0.50296 0.29868 0.0
C135 C 0.4103 0.43469 0.52774 0.0
Co136 Co 0.98628 0.13732 0.52399 0.0
Co137 Co 0.00901 0.11152 0.25976 0.0
C138 C 0.93791 0.08249 0.39545 0.0
O139 O 0.94135 0.10499 0.48723 0.0
O140 O 0.96228 0.08224 0.30782 0.0
C141 C 0.97957 0.12409 0.76831 0.0
O142 O 0.96664 0.09258 0.71742 0.0
C143 C 0.9835 0.11719 1.00311 0.0
C144 C 0.0379 0.11175 0.90079 0.0
C145 C -0.00055 0.12005 0.88663 0.0
N146 N 0.01151 0.10858 0.08428 0.0
N147 N 0.04388 0.1054 0.02248 0.0
C148 C 0.94383 0.12913 0.0375 0.0
H149 H 0.93703 0.12163 0.13457 0.0
H150 H 0.9413 0.16059 0.02656 0.0
H151 H 0.92289 0.11583 0.97335 0.0
C152 C 0.98587 0.2146 0.3909 0.0
N153 N 0.99217 0.17652 0.39999 0.0
N154 N 0.00583 0.16452 0.29341 0.0
C155 C 0.01082 0.19452 0.21637 0.0
C156 C 0.99697 0.22704 0.27257 0.0
C157 C 0.96888 0.23811 0.49271 0.0
H158 H 0.94601 0.2216 0.53997 0.0
H159 H 0.9572 0.26547 0.45659 0.0
H160 H 0.99133 0.24436 0.56254 0.0
O161 O 0.03219 0.10322 0.53506 0.0
O162 O 0.05304 0.08665 0.34895 0.0
H163 H 0.0491 0.22199 0.08666 0.0
H164 H 0.01702 0.18792 0.02012 0.0
C165 C 0.03508 0.1939 0.10199 0.0
H166 H 0.05774 0.17196 0.11092 0.0
H167 H 0.07024 0.10209 0.06578 0.0
O168 O 0.98576 0.15318 0.69977 0.0
C169 C 0.05605 0.08562 0.46705 0.0
Co170 Co 0.35681 0.98636 0.024 0.0
Co171 Co 0.38262 0.00908 0.75977 0.0
C172 C 0.41162 0.93797 0.89546 0.0
O173 O 0.38912 0.94141 0.98724 0.0
O174 O 0.41188 0.96234 0.80784 0.0
C175 C 0.37001 0.97961 0.26835 0.0
O176 O 0.4015 0.96661 0.21753 0.0
C177 C 0.37694 0.98356 0.50314 0.0
C178 C 0.38236 0.03796 0.4008 0.0
C179 C 0.37407 -0.0005 0.38666 0.0
N180 N 0.38556 0.01157 0.58429 0.0
N181 N 0.38873 0.04394 0.52248 0.0
C182 C 0.36501 0.94389 0.53755 0.0
H183 H 0.37251 0.93709 0.63461 0.0
H184 H 0.33354 0.94137 0.52665 0.0
H185 H 0.37829 0.92295 0.47337 0.0
C186 C 0.27954 0.98594 0.89089 0.0
N187 N 0.31762 0.99225 0.9 0.0
N188 N 0.32962 0.00592 0.79343 0.0
C189 C 0.29961 0.01089 0.71638 0.0
C190 C 0.2671 0.99703 0.77256 0.0
C191 C 0.25603 0.96893 0.99268 0.0
H192 H 0.27255 0.94606 0.03994 0.0
H193 H 0.22868 0.95724 0.95655 0.0
H194 H 0.24977 0.99137 0.06252 0.0
O195 O 0.39094 0.03225 0.03507 0.0
O196 O 0.40751 0.0531 0.84896 0.0
H197 H 0.27214 0.04917 0.58669 0.0
H198 H 0.30622 0.01709 0.52012 0.0
C199 C 0.30023 0.03515 0.602 0.0
H200 H 0.32216 0.05781 0.61093 0.0
H201 H 0.39203 0.07031 0.56577 0.0
O202 O 0.34094 0.98586 0.19976 0.0
C203 C 0.40854 0.0561 0.96707 0.0
Co204 Co 0.50783 0.35683 0.52398 0.0
Co205 Co 0.4851 0.38263 0.25975 0.0
C206 C 0.5562 0.41167 0.39542 0.0
O207 O 0.55276 0.38917 0.48721 0.0
O208 O 0.53183 0.41191 0.30778 0.0
C209 C 0.51452 0.37008 0.76826 0.0
O210 O 0.5274 0.40161 0.71734 0.0
C211 C 0.51059 0.37696 1.00307 0.0
C212 C 0.45619 0.38239 0.90082 0.0
C213 C 0.49464 0.3741 0.88661 0.0
N214 N 0.48259 0.38556 0.08428 0.0
N215 N 0.45022 0.38874 0.02251 0.0
C216 C 0.55027 0.36504 0.03741 0.0
H217 H 0.55708 0.37253 0.13448 0.0
H218 H 0.55281 0.33358 0.02644 0.0
H219 H 0.5712 0.37835 0.97324 0.0
C220 C 0.50829 0.27956 0.39088 0.0
N221 N 0.50196 0.31764 0.39998 0.0
N222 N 0.4883 0.32963 0.2934 0.0
C223 C 0.48334 0.29961 0.21635 0.0
C224 C 0.49721 0.2671 0.27255 0.0
C225 C 0.5253 0.25606 0.49268 0.0
H226 H 0.54817 0.27259 0.53993 0.0
H227 H 0.537 0.22871 0.45657 0.0
H228 H 0.50286 0.24979 0.56253 0.0
O229 O 0.46192 0.39093 0.53506 0.0
O230 O 0.44107 0.40749 0.34896 0.0
H231 H 0.44509 0.27212 0.08664 0.0
H232 H 0.47716 0.30621 0.02009 0.0
C233 C 0.45909 0.30022 0.10196 0.0
H234 H 0.43642 0.32214 0.11087 0.0
H235 H 0.42386 0.39204 0.06584 0.0
O236 O 0.50836 0.34097 0.69975 0.0
C237 C 0.43806 0.40852 0.46706 0.0
Co238 Co 0.13731 0.50788 0.02397 0.0
Co239 Co 0.11151 0.48514 0.75974 0.0
C240 C 0.08246 0.55624 0.89542 0.0
O241 O 0.10496 0.5528 0.9872 0.0
O242 O 0.08222 0.53187 0.80777 0.0
C243 C 0.12405 0.51456 0.26825 0.0
O244 O 0.09252 0.52743 0.21731 0.0
C245 C 0.11718 0.51064 0.50307 0.0
C246 C 0.11173 0.45623 0.4008 0.0
C247 C 0.12003 0.49469 0.3866 0.0
N248 N 0.10858 0.48264 0.58426 0.0
N249 N 0.10539 0.45026 0.52249 0.0
C250 C 0.1291 0.55032 0.53742 0.0
H251 H 0.12161 0.55712 0.63449 0.0
H252 H 0.16057 0.55285 0.52644 0.0
H253 H 0.1158 0.57125 0.47325 0.0
C254 C 0.21458 0.50832 0.89089 0.0
N255 N 0.1765 0.502 0.89997 0.0
N256 N 0.16451 0.48834 0.79339 0.0
C257 C 0.19452 0.48337 0.71635 0.0
C258 C 0.22704 0.49722 0.77255 0.0
C259 C 0.23809 0.52531 0.9927 0.0
H260 H 0.22157 0.54818 0.03995 0.0
H261 H 0.26544 0.537 0.9566 0.0
H262 H 0.24434 0.50286 0.06254 0.0
O263 O 0.10322 0.46196 0.03505 0.0
O264 O 0.08666 0.44111 0.84895 0.0
H265 H 0.222 0.4451 0.58662 0.0
H266 H 0.18792 0.47719 0.52009 0.0
C267 C 0.19391 0.45912 0.60195 0.0
H268 H 0.17198 0.43646 0.61087 0.0
H269 H 0.10208 0.4239 0.56581 0.0
O270 O 0.15316 0.50841 0.19974 0.0
C271 C 0.08563 0.4381 0.96705 0.0
Co272 Co 0.00321 0.63729 0.03354 0.0
Co273 Co 0.97876 0.61288 0.76894 0.0
C274 C 0.05219 0.58532 0.89891 0.0
O275 O 0.0487 0.6064 0.99425 0.0
O276 O 0.02712 0.5853 0.81317 0.0
C277 C 0.01221 0.62752 0.28263 0.0
O278 O 0.0309 0.59766 0.24066 0.0
C279 C 0.00496 0.61476 0.51488 0.0
C280 C 0.95143 0.6223 0.40943 0.0
C281 C 0.99086 0.62293 0.39837 0.0
N282 N 0.97525 0.61048 0.59302 0.0
N283 N 0.94332 0.61469 0.52917 0.0
C284 C 0.04587 0.61609 0.5547 0.0
H285 H 0.05464 0.58711 0.58513 0.0
H286 H 0.0489 0.63572 0.63498 0.0
H287 H 0.06488 0.62571 0.47839 0.0
C288 C 0.00573 0.71426 0.90321 0.0
N289 N 0.99668 0.67673 0.91153 0.0
N290 N 0.98175 0.66593 0.80543 0.0
C291 C 0.9788 0.6965 0.72941 0.0
C292 C 0.99529 0.72775 0.78572 0.0
C293 C 0.02559 0.73594 0.00375 0.0
H294 H 0.04671 0.71713 0.05059 0.0
H295 H 0.04003 0.76175 0.96636 0.0
H296 H 0.00423 0.74481 0.07418 0.0
O297 O 0.95868 0.60152 0.04579 0.0
O298 O 0.93631 0.58619 0.86044 0.0
H299 H 0.94414 0.72752 0.59742 0.0
H300 H 0.97208 0.68943 0.5341 0.0
C301 C 0.95473 0.69809 0.615 0.0
H302 H 0.92954 0.67924 0.62578 0.0
H303 H 0.91619 0.6154 0.56941 0.0
O304 O 0.00291 0.65409 0.20767 0.0
C305 C 0.93467 0.58383 0.97861 0.0
Co306 Co 0.85686 0.00323 0.53356 0.0
Co307 Co 0.88128 0.97878 0.26895 0.0
C308 C 0.90883 0.05222 0.39894 0.0
O309 O 0.88775 0.04872 0.49428 0.0
O310 O 0.90884 0.02714 0.3132 0.0
C311 C 0.86663 0.01224 0.78265 0.0
O312 O 0.89647 0.03094 0.74069 0.0
C313 C 0.87939 0.00499 0.01491 0.0
C314 C 0.87187 0.95146 0.90942 0.0
C315 C 0.87123 0.99089 0.89838 0.0
N316 N 0.88368 0.97528 0.09302 0.0
N317 N 0.87948 0.94335 0.02916 0.0
C318 C 0.87804 0.0459 0.05475 0.0
H319 H 0.90702 0.05467 0.0852 0.0
H320 H 0.85841 0.04892 0.13503 0.0
H321 H 0.86842 0.06491 0.97845 0.0
C322 C 0.77989 0.00571 0.40323 0.0
N323 N 0.81742 0.99669 0.41155 0.0
N324 N 0.82823 0.98176 0.30545 0.0
C325 C 0.79766 0.97878 0.22943 0.0
C326 C 0.7664 0.99526 0.28574 0.0
C327 C 0.75819 0.02557 0.50378 0.0
H328 H 0.77699 0.04669 0.55063 0.0
H329 H 0.73238 0.03999 0.46638 0.0
H330 H 0.74933 0.00419 0.57418 0.0
O331 O 0.89263 0.9587 0.54579 0.0
O332 O 0.90797 0.93634 0.36044 0.0
H333 H 0.76666 0.9441 0.09745 0.0
H334 H 0.80474 0.97206 0.03412 0.0
C335 C 0.79609 0.95471 0.11503 0.0
H336 H 0.81494 0.92952 0.12581 0.0
H337 H 0.87878 0.91622 0.06939 0.0
O338 O 0.84006 0.00293 0.7077 0.0
C339 C 0.91033 0.9347 0.4786 0.0
Co340 Co 0.49085 0.85687 0.03354 0.0
Co341 Co 0.5153 0.88128 0.76893 0.0
C342 C 0.44188 0.90888 0.89894 0.0
O343 O 0.44537 0.88779 0.99427 0.0
O344 O 0.46696 0.90888 0.81319 0.0
C345 C 0.48184 0.86665 0.28264 0.0
O346 O 0.46316 0.89651 0.24068 0.0
C347 C 0.48909 0.8794 0.5149 0.0
C348 C 0.54262 0.87188 0.4094 0.0
C349 C 0.50319 0.87125 0.39836 0.0
N350 N 0.5188 0.88368 0.59301 0.0
N351 N 0.55073 0.87948 0.52914 0.0
C352 C 0.44818 0.87806 0.55475 0.0
H353 H 0.43942 0.90704 0.58522 0.0
H354 H 0.44516 0.85843 0.63502 0.0
H355 H 0.42918 0.86845 0.47845 0.0
C356 C 0.48834 0.7799 0.90322 0.0
N357 N 0.49736 0.81743 0.91152 0.0
N358 N 0.5123 0.82823 0.80542 0.0
C359 C 0.51527 0.79766 0.72941 0.0
C360 C 0.49879 0.76641 0.78572 0.0
C361 C 0.46849 0.75821 0.00378 0.0
H362 H 0.44736 0.77701 0.05062 0.0
H363 H 0.45407 0.73239 0.96641 0.0
H364 H 0.48986 0.74936 0.07419 0.0
O365 O 0.5354 0.89262 0.04577 0.0
O366 O 0.55776 0.90795 0.86042 0.0
H367 H 0.54994 0.76666 0.59739 0.0
H368 H 0.52198 0.80474 0.53409 0.0
C369 C 0.53933 0.79609 0.61499 0.0
H370 H 0.56452 0.81493 0.62576 0.0
H371 H 0.57786 0.87877 0.56936 0.0
O372 O 0.49114 0.84008 0.20768 0.0
C373 C 0.55941 0.9103 0.97858 0.0
Co374 Co 0.63728 0.4909 0.53352 0.0
Co375 Co 0.61288 0.51536 0.26892 0.0
C376 C 0.58528 0.44193 0.3989 0.0
O377 O 0.60636 0.44542 0.49424 0.0
O378 O 0.58528 0.46701 0.31316 0.0
C379 C 0.6275 0.4819 0.78262 0.0
O380 O 0.59764 0.46322 0.74066 0.0
C381 C 0.61475 0.48915 0.01488 0.0
C382 C 0.62229 0.54268 0.9094 0.0
C383 C 0.62291 0.50325 0.89835 0.0
N384 N 0.61048 0.51886 0.093 0.0
N385 N 0.61469 0.55079 0.02915 0.0
C386 C 0.61608 0.44824 0.05471 0.0
H387 H 0.5871 0.43948 0.08516 0.0
H388 H 0.63571 0.44521 0.13499 0.0
H389 H 0.62569 0.42923 0.9784 0.0
C390 C 0.71424 0.48837 0.40321 0.0
N391 N 0.67672 0.49741 0.41151 0.0
N392 N 0.66592 0.51234 0.30541 0.0
C393 C 0.6965 0.5153 0.22939 0.0
C394 C 0.72774 0.49881 0.28571 0.0
C395 C 0.73592 0.4685 0.50376 0.0
H396 H 0.71712 0.44738 0.55058 0.0
H397 H 0.76174 0.45407 0.46639 0.0
H398 H 0.74478 0.48987 0.57419 0.0
O399 O 0.60152 0.53545 0.54577 0.0
O400 O 0.58621 0.55781 0.36042 0.0
H401 H 0.72752 0.54995 0.09737 0.0
H402 H 0.68943 0.522 0.03408 0.0
C403 C 0.69809 0.53935 0.11497 0.0
H404 H 0.67925 0.56455 0.12573 0.0
H405 H 0.6154 0.57792 0.06937 0.0
O406 O 0.65408 0.49119 0.70765 0.0
C407 C 0.58385 0.55946 0.47859 0.0
Co408 Co 0.00786 0.85682 0.48234 0.0
Co409 Co 0.98513 0.88263 0.74658 0.0
C410 C 0.05624 0.91165 0.61089 0.0
O411 O 0.0528 0.88916 0.5191 0.0
O412 O 0.03187 0.91191 0.69852 0.0
C413 C 0.01458 0.87006 0.23802 0.0
O414 O 0.0275 0.90158 0.28892 0.0
C415 C 0.01064 0.87696 0.00322 0.0
C416 C 0.95624 0.8824 0.10554 0.0
C417 C 0.9947 0.8741 0.1197 0.0
N418 N 0.98263 0.88557 0.92205 0.0
N419 N 0.95027 0.88875 0.98385 0.0
C420 C 0.05031 0.86502 0.96883 0.0
H421 H 0.05711 0.87252 0.87176 0.0
H422 H 0.05284 0.83356 0.97978 0.0
H423 H 0.07125 0.87832 0.03298 0.0
C424 C 0.00827 0.77955 0.61543 0.0
N425 N 0.00197 0.81763 0.60634 0.0
N426 N 0.98831 0.82963 0.71292 0.0
C427 C 0.98333 0.79963 0.78996 0.0
C428 C -0.00283 0.76711 0.73376 0.0
C429 C 0.02526 0.75604 0.51362 0.0
H430 H 0.04814 0.77255 0.46636 0.0
H431 H 0.03694 0.72868 0.54974 0.0
H432 H 0.00281 0.74979 0.44379 0.0
O433 O 0.96196 0.89093 0.47127 0.0
O434 O 0.9411 0.9075 0.65738 0.0
H435 H 0.94504 0.77216 0.91967 0.0
H436 H 0.97713 0.80623 0.98621 0.0
C437 C 0.95907 0.80025 0.90434 0.0
H438 H 0.93641 0.82219 0.89541 0.0
H439 H 0.9239 0.89206 0.94055 0.0
O440 O 0.00838 0.84097 0.30657 0.0
C441 C 0.9381 0.90853 0.53928 0.0
Co442 Co 0.63734 0.00779 0.98233 0.0
Co443 Co 0.61152 0.98507 0.24656 0.0
C444 C 0.58252 0.05619 0.11088 0.0
O445 O 0.60502 0.05274 0.01909 0.0
O446 O 0.58226 0.03181 0.1985 0.0
C447 C 0.62414 0.01454 0.73798 0.0
O448 O 0.59264 0.02754 0.7888 0.0
C449 C 0.6172 0.01059 0.50319 0.0
C450 C 0.61178 0.95619 0.60553 0.0
C451 C 0.62008 0.99465 0.61967 0.0
N452 N 0.60859 0.98258 0.42204 0.0
N453 N 0.60542 0.95021 0.48385 0.0
C454 C 0.62914 0.05026 0.46878 0.0
H455 H 0.62164 0.05706 0.37172 0.0
H456 H 0.6606 0.05278 0.47969 0.0
H457 H 0.61586 0.0712 0.53295 0.0
C458 C 0.7146 0.00822 0.11544 0.0
N459 N 0.67652 0.0019 0.10633 0.0
N460 N 0.66452 0.98823 0.2129 0.0
C461 C 0.69453 0.98326 0.28995 0.0
C462 C 0.72705 -0.00288 0.23377 0.0
C463 C 0.73811 0.02522 0.01365 0.0
H464 H 0.72159 0.04809 0.96639 0.0
H465 H 0.76546 0.03691 0.04978 0.0
H466 H 0.74438 0.00278 0.94381 0.0
O467 O 0.6032 0.96191 0.97126 0.0
O468 O 0.58664 0.94105 0.15737 0.0
H469 H 0.722 0.94498 0.41964 0.0
H470 H 0.68793 0.97706 0.4862 0.0
C471 C 0.69391 0.959 0.40432 0.0
H472 H 0.67198 0.93634 0.39539 0.0
H473 H 0.60211 0.92384 0.44056 0.0
O474 O 0.6532 0.00829 0.80657 0.0
C475 C 0.5856 0.93805 0.03926 0.0
Co476 Co 0.48631 0.63732 0.48235 0.0
Co477 Co 0.50904 0.61152 0.74658 0.0
C478 C 0.43794 0.58249 0.61092 0.0
O479 O 0.44139 0.60498 0.51912 0.0
O480 O 0.46231 0.58224 0.69856 0.0
C481 C 0.47963 0.62407 0.23807 0.0
O482 O 0.46674 0.59254 0.289 0.0
C483 C 0.48355 0.61719 0.00326 0.0
C484 C 0.53796 0.61176 0.10551 0.0
C485 C 0.4995 0.62005 0.11972 0.0
N486 N 0.51155 0.60859 0.92206 0.0
N487 N 0.54392 0.60541 0.98382 0.0
C488 C 0.44387 0.62911 0.96892 0.0
H489 H 0.43707 0.62162 0.87185 0.0
H490 H 0.44133 0.66057 0.9799 0.0
H491 H 0.42294 0.6158 0.03309 0.0
C492 C 0.48585 0.71459 0.61545 0.0
N493 N 0.49218 0.67652 0.60635 0.0
N494 N 0.50584 0.66453 0.71293 0.0
C495 C 0.5108 0.69454 0.78997 0.0
C496 C 0.49693 0.72705 0.73378 0.0
C497 C 0.46884 0.73809 0.51365 0.0
H498 H 0.44598 0.72156 0.4664 0.0
H499 H 0.45714 0.76544 0.54976 0.0
H500 H 0.49128 0.74436 0.4438 0.0
O501 O 0.53222 0.60323 0.47127 0.0
O502 O 0.55307 0.58666 0.65737 0.0
H503 H 0.54906 0.72203 0.91969 0.0
H504 H 0.51699 0.68794 0.98624 0.0
C505 C 0.53505 0.69393 0.90437 0.0
H506 H 0.55772 0.67201 0.89546 0.0
H507 H 0.57029 0.60211 0.94049 0.0
O508 O 0.48579 0.65318 0.30658 0.0
C509 C 0.55608 0.58563 0.53927 0.0
Co510 Co 0.85683 0.48627 0.98236 0.0
Co511 Co 0.88263 0.50901 0.2466 0.0
C512 C 0.91167 0.43791 0.11092 0.0
O513 O 0.88918 0.44135 0.01913 0.0
O514 O 0.91192 0.46228 0.19856 0.0
C515 C 0.87009 0.47959 0.73808 0.0
O516 O 0.90163 0.46673 0.78903 0.0
C517 C 0.87696 0.48351 0.50327 0.0
C518 C 0.88241 0.53792 0.60554 0.0
C519 C 0.87411 0.49946 0.61974 0.0
N520 N 0.88557 0.51151 0.42207 0.0
N521 N 0.88875 0.54389 0.48384 0.0
C522 C 0.86504 0.44383 0.46892 0.0
H523 H 0.87252 0.43703 0.37184 0.0
H524 H 0.83358 0.4413 0.47991 0.0
H525 H 0.87834 0.4229 0.53308 0.0
C526 C 0.77956 0.48583 0.11544 0.0
N527 N 0.81764 0.49215 0.10636 0.0
N528 N 0.82963 0.50581 0.21295 0.0
C529 C 0.79962 0.51078 0.28998 0.0
C530 C 0.7671 0.49693 0.23378 0.0
C531 C 0.75605 0.46884 0.01363 0.0
H532 H 0.77257 0.44597 0.96638 0.0
H533 H 0.7287 0.45715 0.04974 0.0
H534 H 0.7498 0.49129 0.94379 0.0
O535 O 0.89092 0.53219 0.97128 0.0
O536 O 0.90748 0.55304 0.15739 0.0
H537 H 0.77214 0.54905 0.41971 0.0
H538 H 0.80622 0.51697 0.48624 0.0
C539 C 0.80023 0.53503 0.40438 0.0
H540 H 0.82217 0.55769 0.39546 0.0
H541 H 0.89206 0.57025 0.44052 0.0
O542 O 0.84098 0.48574 0.80659 0.0
C543 C 0.90851 0.55605 0.03929 0.0
loop_
_geom_bond_atom_site_label_1
_geom_bond_atom_site_label_2
_geom_bond_distance
_geom_bond_site_symmetry_2
_ccdc_geom_bond_type
Co0 O3 1.970 1_456 S
Co0 N17 1.989 1_556 S
Co0 O25 1.967 1_556 S
Co0 O32 1.920 . S
Co1 O4 1.966 1_455 S
Co1 N10 2.022 . S
Co1 N18 1.993 . S
Co1 O26 1.941 . S
C2 O3 1.258 . S
C2 O4 1.263 . S
O3 Co0 1.970 1_654 S
O3 C2 1.258 . S
O4 Co1 1.966 1_655 S
O4 C2 1.263 . S
C5 O6 1.235 . S
C5 O32 1.289 1_655 S
O6 C5 1.235 . S
C7 C9 1.400 . S
C7 N10 1.351 . S
C7 C12 1.501 1_455 S
C8 C9 1.387 . S
C8 N11 1.341 . S
C9 C7 1.400 . S
C9 C8 1.387 . S
N10 Co1 2.022 . S
N10 C7 1.351 . S
N10 N11 1.365 . S
N11 C8 1.341 . S
N11 N10 1.365 . S
N11 H31 0.862 . S
C12 C7 1.501 1_655 S
C12 H13 0.961 . S
C12 H14 0.961 . S
C12 H15 0.960 . S
H13 C12 0.961 . S
H14 C12 0.961 . S
H15 C12 0.960 . S
C16 N17 1.342 . S
C16 C20 1.401 . S
C16 C21 1.499 1_554 S
N17 Co0 1.989 1_554 S
N17 C16 1.342 . S
N17 N18 1.388 . S
N18 Co1 1.993 . S
N18 N17 1.388 . S
N18 C19 1.346 . S
C19 N18 1.346 . S
C19 C20 1.396 . S
C19 C29 1.510 . S
C20 C16 1.401 . S
C20 C19 1.396 . S
C21 C16 1.499 1_556 S
C21 H22 0.959 . S
C21 H23 0.960 1_455 S
C21 H24 0.961 . S
H22 C21 0.959 . S
H23 C21 0.960 1_655 S
H24 C21 0.961 . S
O25 Co0 1.967 1_554 S
O25 C33 1.259 . S
O26 Co1 1.941 . S
O26 C33 1.266 . S
H27 C29 0.959 . S
H28 C29 0.961 . S
C29 C19 1.510 . S
C29 H27 0.959 . S
C29 H28 0.961 . S
C29 H30 0.960 . S
H30 C29 0.960 . S
H31 N11 0.862 . S
O32 Co0 1.920 . S
O32 C5 1.289 1_455 S
C33 O25 1.259 . S
C33 O26 1.266 . S
Co34 O37 1.970 1_545 S
Co34 N51 1.989 . S
Co34 O59 1.967 . S
Co34 O66 1.920 . S
Co35 O38 1.966 1_545 S
Co35 N44 2.022 . S
Co35 N52 1.993 . S
Co35 O60 1.941 . S
C36 O37 1.258 . S
C36 O38 1.263 . S
O37 Co34 1.970 1_565 S
O37 C36 1.258 . S
O38 Co35 1.966 1_565 S
O38 C36 1.263 . S
C39 O40 1.235 . S
C39 O66 1.289 1_565 S
O40 C39 1.235 . S
C41 C43 1.400 . S
C41 N44 1.351 1_554 S
C41 C46 1.501 1_545 S
C42 C43 1.387 . S
C42 N45 1.341 . S
C43 C41 1.400 . S
C43 C42 1.387 . S
N44 Co35 2.022 . S
N44 C41 1.351 1_556 S
N44 N45 1.365 1_556 S
N45 C42 1.341 . S
N45 N44 1.365 1_554 S
N45 H65 0.862 1_554 S
C46 C41 1.501 1_565 S
C46 H47 0.961 1_554 S
C46 H48 0.961 . S
C46 H49 0.960 . S
H47 C46 0.961 1_556 S
H48 C46 0.961 . S
H49 C46 0.960 . S
C50 N51 1.342 . S
C50 C54 1.401 . S
C50 C55 1.499 . S
N51 Co34 1.989 . S
N51 C50 1.342 . S
N51 N52 1.388 . S
N52 Co35 1.993 . S
N52 N51 1.388 . S
N52 C53 1.346 . S
C53 N52 1.346 . S
C53 C54 1.396 . S
C53 C63 1.510 . S
C54 C50 1.401 . S
C54 C53 1.396 . S
C55 C50 1.499 . S
C55 H56 0.959 . S
C55 H57 0.960 1_545 S
C55 H58 0.961 . S
H56 C55 0.959 . S
H57 C55 0.960 1_565 S
H58 C55 0.961 . S
O59 Co34 1.967 . S
O59 C67 1.258 . S
O60 Co35 1.941 . S
O60 C67 1.266 . S
H61 C63 0.959 . S
H62 C63 0.961 . S
C63 C53 1.510 . S
C63 H61 0.959 . S
C63 H62 0.961 . S
C63 H64 0.960 . S
H64 C63 0.960 . S
H65 N45 0.862 1_556 S
O66 Co34 1.920 . S
O66 C39 1.289 1_545 S
C67 O59 1.258 . S
C67 O60 1.266 . S
Co68 O71 1.970 1_556 S
Co68 N85 1.989 1_556 S
Co68 O93 1.967 1_556 S
Co68 O100 1.920 . S
Co69 O72 1.966 . S
Co69 N78 2.022 . S
Co69 N86 1.993 . S
Co69 O94 1.941 . S
C70 O71 1.258 . S
C70 O72 1.263 . S
O71 Co68 1.970 1_554 S
O71 C70 1.258 . S
O72 Co69 1.966 . S
O72 C70 1.263 . S
C73 O74 1.235 . S
C73 O100 1.289 . S
O74 C73 1.235 . S
C75 C77 1.400 . S
C75 N78 1.351 . S
C75 C80 1.501 . S
C76 C77 1.387 . S
C76 N79 1.341 . S
C77 C75 1.400 . S
C77 C76 1.387 . S
N78 Co69 2.022 . S
N78 C75 1.351 . S
N78 N79 1.365 . S
N79 C76 1.341 . S
N79 N78 1.365 . S
N79 H99 0.862 . S
C80 C75 1.501 . S
C80 H81 0.961 . S
C80 H82 0.961 . S
C80 H83 0.960 . S
H81 C80 0.961 . S
H82 C80 0.961 . S
H83 C80 0.960 . S
C84 N85 1.342 . S
C84 C88 1.401 . S
C84 C89 1.499 1_554 S
N85 Co68 1.989 1_554 S
N85 C84 1.342 . S
N85 N86 1.388 . S
N86 Co69 1.993 . S
N86 N85 1.388 . S
N86 C87 1.346 . S
C87 N86 1.346 . S
C87 C88 1.396 . S
C87 C97 1.510 . S
C88 C84 1.401 . S
C88 C87 1.396 . S
C89 C84 1.499 1_556 S
C89 H90 0.959 . S
C89 H91 0.960 . S
C89 H92 0.961 . S
H90 C89 0.959 . S
H91 C89 0.960 . S
H92 C89 0.961 . S
O93 Co68 1.967 1_554 S
O93 C101 1.259 . S
O94 Co69 1.941 . S
O94 C101 1.266 . S
H95 C97 0.959 . S
H96 C97 0.961 . S
C97 C87 1.510 . S
C97 H95 0.959 . S
C97 H96 0.961 . S
C97 H98 0.960 . S
H98 C97 0.960 . S
H99 N79 0.862 . S
O100 Co68 1.920 . S
O100 C73 1.289 . S
C101 O93 1.259 . S
C101 O94 1.266 . S
Co102 O105 1.970 . S
Co102 N119 1.989 . S
Co102 O127 1.967 . S
Co102 O134 1.920 . S
Co103 O106 1.966 . S
Co103 N112 2.022 . S
Co103 N120 1.993 . S
Co103 O128 1.941 . S
C104 O105 1.258 . S
C104 O106 1.263 . S
O105 Co102 1.970 . S
O105 C104 1.258 . S
O106 Co103 1.966 . S
O106 C104 1.263 . S
C107 O108 1.235 . S
C107 O134 1.289 . S
O108 C107 1.235 . S
C109 C111 1.400 . S
C109 N112 1.351 1_554 S
C109 C114 1.501 . S
C110 C111 1.387 . S
C110 N113 1.341 . S
C111 C109 1.400 . S
C111 C110 1.387 . S
N112 Co103 2.022 . S
N112 C109 1.351 1_556 S
N112 N113 1.365 1_556 S
N113 C110 1.341 . S
N113 N112 1.365 1_554 S
N113 H133 0.862 1_554 S
C114 C109 1.501 . S
C114 H115 0.961 1_554 S
C114 H116 0.961 . S
C114 H117 0.960 . S
H115 C114 0.961 1_556 S
H116 C114 0.961 . S
H117 C114 0.960 . S
C118 N119 1.342 . S
C118 C122 1.401 . S
C118 C123 1.499 . S
N119 Co102 1.989 . S
N119 C118 1.342 . S
N119 N120 1.388 . S
N120 Co103 1.993 . S
N120 N119 1.388 . S
N120 C121 1.346 . S
C121 N120 1.346 . S
C121 C122 1.396 . S
C121 C131 1.510 . S
C122 C118 1.401 . S
C122 C121 1.396 . S
C123 C118 1.499 . S
C123 H124 0.959 . S
C123 H125 0.960 . S
C123 H126 0.961 . S
H124 C123 0.959 . S
H125 C123 0.960 . S
H126 C123 0.961 . S
O127 Co102 1.967 . S
O127 C135 1.258 . S
O128 Co103 1.941 . S
O128 C135 1.266 . S
H129 C131 0.959 . S
H130 C131 0.961 . S
C131 C121 1.510 . S
C131 H129 0.959 . S
C131 H130 0.961 . S
C131 H132 0.960 . S
H132 C131 0.960 . S
H133 N113 0.862 1_556 S
O134 Co102 1.920 . S
O134 C107 1.289 . S
C135 O127 1.258 . S
C135 O128 1.266 . S
Co136 O139 1.970 1_455 S
Co136 N153 1.989 . S
Co136 O161 1.967 . S
Co136 O168 1.920 . S
Co137 O140 1.966 1_455 S
Co137 N146 2.022 . S
Co137 N154 1.993 . S
Co137 O162 1.941 . S
C138 O139 1.258 . S
C138 O140 1.263 . S
O139 Co136 1.970 1_655 S
O139 C138 1.258 . S
O140 Co137 1.966 1_655 S
O140 C138 1.263 . S
C141 O142 1.235 . S
C141 O168 1.289 1_655 S
O142 C141 1.235 . S
C143 C145 1.400 . S
C143 N146 1.351 1_556 S
C143 C148 1.501 1_455 S
C144 C145 1.387 . S
C144 N147 1.341 . S
C145 C143 1.400 . S
C145 C144 1.387 . S
N146 Co137 2.022 . S
N146 C143 1.351 1_554 S
N146 N147 1.365 1_554 S
N147 C144 1.341 . S
N147 N146 1.365 1_556 S
N147 H167 0.862 1_556 S
C148 C143 1.501 1_655 S
C148 H149 0.961 1_556 S
C148 H150 0.961 . S
C148 H151 0.960 . S
H149 C148 0.961 1_554 S
H150 C148 0.961 . S
H151 C148 0.960 . S
C152 N153 1.342 . S
C152 C156 1.401 . S
C152 C157 1.499 . S
N153 Co136 1.989 . S
N153 C152 1.342 . S
N153 N154 1.388 . S
N154 Co137 1.993 . S
N154 N153 1.388 . S
N154 C155 1.346 . S
C155 N154 1.346 . S
C155 C156 1.396 . S
C155 C165 1.510 . S
C156 C152 1.401 . S
C156 C155 1.396 . S
C157 C152 1.499 . S
C157 H158 0.959 . S
C157 H159 0.960 1_455 S
C157 H160 0.961 . S
H158 C157 0.959 . S
H159 C157 0.960 1_655 S
H160 C157 0.961 . S
O161 Co136 1.967 . S
O161 C169 1.258 . S
O162 Co137 1.941 . S
O162 C169 1.266 . S
H163 C165 0.959 . S
H164 C165 0.961 . S
C165 C155 1.510 . S
C165 H163 0.959 . S
C165 H164 0.961 . S
C165 H166 0.960 . S
H166 C165 0.960 . S
H167 N147 0.862 1_554 S
O168 Co136 1.920 . S
O168 C141 1.289 1_455 S
C169 O161 1.258 . S
C169 O162 1.266 . S
Co170 O173 1.970 1_544 S
Co170 N187 1.989 1_554 S
Co170 O195 1.967 1_554 S
Co170 O202 1.920 . S
Co171 O174 1.966 1_545 S
Co171 N180 2.022 . S
Co171 N188 1.993 . S
Co171 O196 1.941 . S
C172 O173 1.258 . S
C172 O174 1.263 . S
O173 Co170 1.970 1_566 S
O173 C172 1.258 . S
O174 Co171 1.966 1_565 S
O174 C172 1.263 . S
C175 O176 1.235 . S
C175 O202 1.289 1_565 S
O176 C175 1.235 . S
C177 C179 1.400 . S
C177 N180 1.351 . S
C177 C182 1.501 1_545 S
C178 C179 1.387 . S
C178 N181 1.341 . S
C179 C177 1.400 . S
C179 C178 1.387 . S
N180 Co171 2.022 . S
N180 C177 1.351 . S
N180 N181 1.365 . S
N181 C178 1.341 . S
N181 N180 1.365 . S
N181 H201 0.862 . S
C182 C177 1.501 1_565 S
C182 H183 0.961 . S
C182 H184 0.961 . S
C182 H185 0.960 . S
H183 C182 0.961 . S
H184 C182 0.961 . S
H185 C182 0.960 . S
C186 N187 1.342 . S
C186 C190 1.401 . S
C186 C191 1.499 1_556 S
N187 Co170 1.989 1_556 S
N187 C186 1.342 . S
N187 N188 1.388 . S
N188 Co171 1.993 . S
N188 N187 1.388 . S
N188 C189 1.346 . S
C189 N188 1.346 . S
C189 C190 1.396 . S
C189 C199 1.510 . S
C190 C186 1.401 . S
C190 C189 1.396 . S
C191 C186 1.499 1_554 S
C191 H192 0.959 . S
C191 H193 0.960 1_545 S
C191 H194 0.961 . S
H192 C191 0.959 . S
H193 C191 0.960 1_565 S
H194 C191 0.961 . S
O195 Co170 1.967 1_556 S
O195 C203 1.259 . S
O196 Co171 1.941 . S
O196 C203 1.266 . S
H197 C199 0.959 . S
H198 C199 0.961 . S
C199 C189 1.510 . S
C199 H197 0.959 . S
C199 H198 0.961 . S
C199 H200 0.960 . S
H200 C199 0.960 . S
H201 N181 0.862 . S
O202 Co170 1.920 . S
O202 C175 1.289 1_545 S
C203 O195 1.259 . S
C203 O196 1.266 . S
Co204 O207 1.970 . S
Co204 N221 1.989 . S
Co204 O229 1.967 . S
Co204 O236 1.920 . S
Co205 O208 1.966 . S
Co205 N214 2.022 . S
Co205 N222 1.993 . S
Co205 O230 1.941 . S
C206 O207 1.258 . S
C206 O208 1.263 . S
O207 Co204 1.970 . S
O207 C206 1.258 . S
O208 Co205 1.966 . S
O208 C206 1.263 . S
C209 O210 1.235 . S
C209 O236 1.289 . S
O210 C209 1.235 . S
C211 C213 1.400 . S
C211 N214 1.351 1_556 S
C211 C216 1.501 . S
C212 C213 1.387 . S
C212 N215 1.341 . S
C213 C211 1.400 . S
C213 C212 1.387 . S
N214 Co205 2.022 . S
N214 C211 1.351 1_554 S
N214 N215 1.365 1_554 S
N215 C212 1.341 . S
N215 N214 1.365 1_556 S
N215 H235 0.862 1_556 S
C216 C211 1.501 . S
C216 H217 0.961 1_556 S
C216 H218 0.961 . S
C216 H219 0.960 . S
H217 C216 0.961 1_554 S
H218 C216 0.961 . S
H219 C216 0.960 . S
C220 N221 1.342 . S
C220 C224 1.401 . S
C220 C225 1.499 . S
N221 Co204 1.989 . S
N221 C220 1.342 . S
N221 N222 1.388 . S
N222 Co205 1.993 . S
N222 N221 1.388 . S
N222 C223 1.346 . S
C223 N222 1.346 . S
C223 C224 1.396 . S
C223 C233 1.510 . S
C224 C220 1.401 . S
C224 C223 1.396 . S
C225 C220 1.499 . S
C225 H226 0.959 . S
C225 H227 0.960 . S
C225 H228 0.961 . S
H226 C225 0.959 . S
H227 C225 0.960 . S
H228 C225 0.961 . S
O229 Co204 1.967 . S
O229 C237 1.258 . S
O230 Co205 1.941 . S
O230 C237 1.266 . S
H231 C233 0.959 . S
H232 C233 0.961 . S
C233 C223 1.510 . S
C233 H231 0.959 . S
C233 H232 0.961 . S
C233 H234 0.960 . S
H234 C233 0.960 . S
H235 N215 0.862 1_554 S
O236 Co204 1.920 . S
O236 C209 1.289 . S
C237 O229 1.258 . S
C237 O230 1.266 . S
Co238 O241 1.970 1_554 S
Co238 N255 1.989 1_554 S
Co238 O263 1.967 1_554 S
Co238 O270 1.920 . S
Co239 O242 1.966 . S
Co239 N248 2.022 . S
Co239 N256 1.993 . S
Co239 O264 1.941 . S
C240 O241 1.258 . S
C240 O242 1.263 . S
O241 Co238 1.970 1_556 S
O241 C240 1.258 . S
O242 Co239 1.966 . S
O242 C240 1.263 . S
C243 O244 1.235 . S
C243 O270 1.289 . S
O244 C243 1.235 . S
C245 C247 1.400 . S
C245 N248 1.351 . S
C245 C250 1.501 . S
C246 C247 1.387 . S
C246 N249 1.341 . S
C247 C245 1.400 . S
C247 C246 1.387 . S
N248 Co239 2.022 . S
N248 C245 1.351 . S
N248 N249 1.365 . S
N249 C246 1.341 . S
N249 N248 1.365 . S
N249 H269 0.862 . S
C250 C245 1.501 . S
C250 H251 0.961 . S
C250 H252 0.961 . S
C250 H253 0.960 . S
H251 C250 0.961 . S
H252 C250 0.961 . S
H253 C250 0.960 . S
C254 N255 1.342 . S
C254 C258 1.401 . S
C254 C259 1.499 1_556 S
N255 Co238 1.989 1_556 S
N255 C254 1.342 . S
N255 N256 1.388 . S
N256 Co239 1.993 . S
N256 N255 1.388 . S
N256 C257 1.346 . S
C257 N256 1.346 . S
C257 C258 1.396 . S
C257 C267 1.510 . S
C258 C254 1.401 . S
C258 C257 1.396 . S
C259 C254 1.499 1_554 S
C259 H260 0.959 . S
C259 H261 0.960 . S
C259 H262 0.961 . S
H260 C259 0.959 . S
H261 C259 0.960 . S
H262 C259 0.961 . S
O263 Co238 1.967 1_556 S
O263 C271 1.259 . S
O264 Co239 1.941 . S
O264 C271 1.266 . S
H265 C267 0.959 . S
H266 C267 0.961 . S
C267 C257 1.510 . S
C267 H265 0.959 . S
C267 H266 0.961 . S
C267 H268 0.960 . S
H268 C267 0.960 . S
H269 N249 0.862 . S
O270 Co238 1.920 . S
O270 C243 1.289 . S
C271 O263 1.259 . S
C271 O264 1.266 . S
Co272 O275 1.970 1_654 S
Co272 N289 1.989 1_554 S
Co272 O297 1.967 1_554 S
Co272 O304 1.920 . S
Co273 O276 1.966 1_655 S
Co273 N282 2.022 . S
Co273 N290 1.993 . S
Co273 O298 1.941 . S
C274 O275 1.258 . S
C274 O276 1.263 . S
O275 Co272 1.970 1_456 S
O275 C274 1.258 . S
O276 Co273 1.966 1_455 S
O276 C274 1.263 . S
C277 O278 1.235 . S
C277 O304 1.289 1_455 S
O278 C277 1.235 . S
C279 C281 1.400 . S
C279 N282 1.351 . S
C279 C284 1.501 1_655 S
C280 C281 1.387 . S
C280 N283 1.341 . S
C281 C279 1.400 . S
C281 C280 1.387 . S
N282 Co273 2.022 . S
N282 C279 1.351 . S
N282 N283 1.365 . S
N283 C280 1.341 . S
N283 N282 1.365 . S
N283 H303 0.862 . S
C284 C279 1.501 1_455 S
C284 H285 0.961 . S
C284 H286 0.961 . S
C284 H287 0.960 . S
H285 C284 0.961 . S
H286 C284 0.961 . S
H287 C284 0.960 . S
C288 N289 1.342 . S
C288 C292 1.401 . S
C288 C293 1.499 1_556 S
N289 Co272 1.989 1_556 S
N289 C288 1.342 . S
N289 N290 1.388 . S
N290 Co273 1.993 . S
N290 N289 1.388 . S
N290 C291 1.346 . S
C291 N290 1.346 . S
C291 C292 1.396 . S
C291 C301 1.510 . S
C292 C288 1.401 . S
C292 C291 1.396 . S
C293 C288 1.499 1_554 S
C293 H294 0.959 . S
C293 H295 0.960 1_655 S
C293 H296 0.961 . S
H294 C293 0.959 . S
H295 C293 0.960 1_455 S
H296 C293 0.961 . S
O297 Co272 1.967 1_556 S
O297 C305 1.259 . S
O298 Co273 1.941 . S
O298 C305 1.266 . S
H299 C301 0.959 . S
H300 C301 0.961 . S
C301 C291 1.510 . S
C301 H299 0.959 . S
C301 H300 0.961 . S
C301 H302 0.960 . S
H302 C301 0.960 . S
H303 N283 0.862 . S
O304 Co272 1.920 . S
O304 C277 1.289 1_655 S
C305 O297 1.259 . S
C305 O298 1.266 . S
Co306 O309 1.970 1_565 S
Co306 N323 1.989 . S
Co306 O331 1.967 . S
Co306 O338 1.920 . S
Co307 O310 1.966 1_565 S
Co307 N316 2.022 . S
Co307 N324 1.993 . S
Co307 O332 1.941 . S
C308 O309 1.258 . S
C308 O310 1.263 . S
O309 Co306 1.970 1_545 S
O309 C308 1.258 . S
O310 Co307 1.966 1_545 S
O310 C308 1.263 . S
C311 O312 1.235 . S
C311 O338 1.289 1_545 S
O312 C311 1.235 . S
C313 C315 1.400 . S
C313 N316 1.351 1_556 S
C313 C318 1.501 1_565 S
C314 C315 1.387 . S
C314 N317 1.341 . S
C315 C313 1.400 . S
C315 C314 1.387 . S
N316 Co307 2.022 . S
N316 C313 1.351 1_554 S
N316 N317 1.365 1_554 S
N317 C314 1.341 . S
N317 N316 1.365 1_556 S
N317 H337 0.862 1_556 S
C318 C313 1.501 1_545 S
C318 H319 0.961 1_556 S
C318 H320 0.961 . S
C318 H321 0.960 . S
H319 C318 0.961 1_554 S
H320 C318 0.961 . S
H321 C318 0.960 . S
C322 N323 1.342 . S
C322 C326 1.401 . S
C322 C327 1.499 . S
N323 Co306 1.989 . S
N323 C322 1.342 . S
N323 N324 1.388 . S
N324 Co307 1.993 . S
N324 N323 1.388 . S
N324 C325 1.346 . S
C325 N324 1.346 . S
C325 C326 1.396 . S
C325 C335 1.510 . S
C326 C322 1.401 . S
C326 C325 1.396 . S
C327 C322 1.499 . S
C327 H328 0.959 . S
C327 H329 0.960 1_565 S
C327 H330 0.961 . S
H328 C327 0.959 . S
H329 C327 0.960 1_545 S
H330 C327 0.961 . S
O331 Co306 1.967 . S
O331 C339 1.258 . S
O332 Co307 1.941 . S
O332 C339 1.266 . S
H333 C335 0.959 . S
H334 C335 0.961 . S
C335 C325 1.510 . S
C335 H333 0.959 . S
C335 H334 0.961 . S
C335 H336 0.960 . S
H336 C335 0.960 . S
H337 N317 0.862 1_554 S
O338 Co306 1.920 . S
O338 C311 1.289 1_565 S
C339 O331 1.258 . S
C339 O332 1.266 . S
Co340 O343 1.970 1_554 S
Co340 N357 1.989 1_554 S
Co340 O365 1.967 1_554 S
Co340 O372 1.920 . S
Co341 O344 1.966 . S
Co341 N350 2.022 . S
Co341 N358 1.993 . S
Co341 O366 1.941 . S
C342 O343 1.258 . S
C342 O344 1.263 . S
O343 Co340 1.970 1_556 S
O343 C342 1.258 . S
O344 Co341 1.966 . S
O344 C342 1.263 . S
C345 O346 1.235 . S
C345 O372 1.289 . S
O346 C345 1.235 . S
C347 C349 1.400 . S
C347 N350 1.351 . S
C347 C352 1.501 . S
C348 C349 1.387 . S
C348 N351 1.341 . S
C349 C347 1.400 . S
C349 C348 1.387 . S
N350 Co341 2.022 . S
N350 C347 1.351 . S
N350 N351 1.365 . S
N351 C348 1.341 . S
N351 N350 1.365 . S
N351 H371 0.862 . S
C352 C347 1.501 . S
C352 H353 0.961 . S
C352 H354 0.961 . S
C352 H355 0.960 . S
H353 C352 0.961 . S
H354 C352 0.961 . S
H355 C352 0.960 . S
C356 N357 1.342 . S
C356 C360 1.401 . S
C356 C361 1.499 1_556 S
N357 Co340 1.989 1_556 S
N357 C356 1.342 . S
N357 N358 1.388 . S
N358 Co341 1.993 . S
N358 N357 1.388 . S
N358 C359 1.346 . S
C359 N358 1.346 . S
C359 C360 1.396 . S
C359 C369 1.510 . S
C360 C356 1.401 . S
C360 C359 1.396 . S
C361 C356 1.499 1_554 S
C361 H362 0.959 . S
C361 H363 0.960 . S
C361 H364 0.961 . S
H362 C361 0.959 . S
H363 C361 0.960 . S
H364 C361 0.961 . S
O365 Co340 1.967 1_556 S
O365 C373 1.259 . S
O366 Co341 1.941 . S
O366 C373 1.266 . S
H367 C369 0.959 . S
H368 C369 0.961 . S
C369 C359 1.510 . S
C369 H367 0.959 . S
C369 H368 0.961 . S
C369 H370 0.960 . S
H370 C369 0.960 . S
H371 N351 0.862 . S
O372 Co340 1.920 . S
O372 C345 1.289 . S
C373 O365 1.259 . S
C373 O366 1.266 . S
Co374 O377 1.970 . S
Co374 N391 1.989 . S
Co374 O399 1.967 . S
Co374 O406 1.920 . S
Co375 O378 1.966 . S
Co375 N384 2.022 . S
Co375 N392 1.993 . S
Co375 O400 1.941 . S
C376 O377 1.258 . S
C376 O378 1.263 . S
O377 Co374 1.970 . S
O377 C376 1.258 . S
O378 Co375 1.966 . S
O378 C376 1.263 . S
C379 O380 1.235 . S
C379 O406 1.289 . S
O380 C379 1.235 . S
C381 C383 1.400 . S
C381 N384 1.351 1_556 S
C381 C386 1.501 . S
C382 C383 1.387 . S
C382 N385 1.341 . S
C383 C381 1.400 . S
C383 C382 1.387 . S
N384 Co375 2.022 . S
N384 C381 1.351 1_554 S
N384 N385 1.365 1_554 S
N385 C382 1.341 . S
N385 N384 1.365 1_556 S
N385 H405 0.862 1_556 S
C386 C381 1.501 . S
C386 H387 0.961 1_556 S
C386 H388 0.961 . S
C386 H389 0.960 . S
H387 C386 0.961 1_554 S
H388 C386 0.961 . S
H389 C386 0.960 . S
C390 N391 1.342 . S
C390 C394 1.401 . S
C390 C395 1.499 . S
N391 Co374 1.989 . S
N391 C390 1.342 . S
N391 N392 1.388 . S
N392 Co375 1.993 . S
N392 N391 1.388 . S
N392 C393 1.346 . S
C393 N392 1.346 . S
C393 C394 1.396 . S
C393 C403 1.510 . S
C394 C390 1.401 . S
C394 C393 1.396 . S
C395 C390 1.499 . S
C395 H396 0.959 . S
C395 H397 0.960 . S
C395 H398 0.961 . S
H396 C395 0.959 . S
H397 C395 0.960 . S
H398 C395 0.961 . S
O399 Co374 1.967 . S
O399 C407 1.258 . S
O400 Co375 1.941 . S
O400 C407 1.266 . S
H401 C403 0.959 . S
H402 C403 0.961 . S
C403 C393 1.510 . S
C403 H401 0.959 . S
C403 H402 0.961 . S
C403 H404 0.960 . S
H404 C403 0.960 . S
H405 N385 0.862 1_554 S
O406 Co374 1.920 . S
O406 C379 1.289 . S
C407 O399 1.258 . S
C407 O400 1.266 . S
Co408 O411 1.970 1_655 S
Co408 N425 1.989 . S
Co408 O433 1.967 . S
Co408 O440 1.920 . S
Co409 O412 1.966 1_655 S
Co409 N418 2.022 . S
Co409 N426 1.993 . S
Co409 O434 1.941 . S
C410 O411 1.258 . S
C410 O412 1.263 . S
O411 Co408 1.970 1_455 S
O411 C410 1.258 . S
O412 Co409 1.966 1_455 S
O412 C410 1.263 . S
C413 O414 1.235 . S
C413 O440 1.289 1_455 S
O414 C413 1.235 . S
C415 C417 1.400 . S
C415 N418 1.351 1_554 S
C415 C420 1.501 1_655 S
C416 C417 1.387 . S
C416 N419 1.341 . S
C417 C415 1.400 . S
C417 C416 1.387 . S
N418 Co409 2.022 . S
N418 C415 1.351 1_556 S
N418 N419 1.365 1_556 S
N419 C416 1.341 . S
N419 N418 1.365 1_554 S
N419 H439 0.862 1_554 S
C420 C415 1.501 1_455 S
C420 H421 0.961 1_554 S
C420 H422 0.961 . S
C420 H423 0.960 . S
H421 C420 0.961 1_556 S
H422 C420 0.961 . S
H423 C420 0.960 . S
C424 N425 1.342 . S
C424 C428 1.401 . S
C424 C429 1.499 . S
N425 Co408 1.989 . S
N425 C424 1.342 . S
N425 N426 1.388 . S
N426 Co409 1.993 . S
N426 N425 1.388 . S
N426 C427 1.346 . S
C427 N426 1.346 . S
C427 C428 1.396 . S
C427 C437 1.510 . S
C428 C424 1.401 . S
C428 C427 1.396 . S
C429 C424 1.499 . S
C429 H430 0.959 . S
C429 H431 0.960 1_655 S
C429 H432 0.961 . S
H430 C429 0.959 . S
H431 C429 0.960 1_455 S
H432 C429 0.961 . S
O433 Co408 1.967 . S
O433 C441 1.258 . S
O434 Co409 1.941 . S
O434 C441 1.266 . S
H435 C437 0.959 . S
H436 C437 0.961 . S
C437 C427 1.510 . S
C437 H435 0.959 . S
C437 H436 0.961 . S
C437 H438 0.960 . S
H438 C437 0.960 . S
H439 N419 0.862 1_556 S
O440 Co408 1.920 . S
O440 C413 1.289 1_655 S
C441 O433 1.258 . S
C441 O434 1.266 . S
Co442 O445 1.970 1_566 S
Co442 N459 1.989 1_556 S
Co442 O467 1.967 1_556 S
Co442 O474 1.920 . S
Co443 O446 1.966 1_565 S
Co443 N452 2.022 . S
Co443 N460 1.993 . S
Co443 O468 1.941 . S
C444 O445 1.258 . S
C444 O446 1.263 . S
O445 Co442 1.970 1_544 S
O445 C444 1.258 . S
O446 Co443 1.966 1_545 S
O446 C444 1.263 . S
C447 O448 1.235 . S
C447 O474 1.289 1_545 S
O448 C447 1.235 . S
C449 C451 1.400 . S
C449 N452 1.351 . S
C449 C454 1.501 1_565 S
C450 C451 1.387 . S
C450 N453 1.341 . S
C451 C449 1.400 . S
C451 C450 1.387 . S
N452 Co443 2.022 . S
N452 C449 1.351 . S
N452 N453 1.365 . S
N453 C450 1.341 . S
N453 N452 1.365 . S
N453 H473 0.862 . S
C454 C449 1.501 1_545 S
C454 H455 0.961 . S
C454 H456 0.961 . S
C454 H457 0.960 . S
H455 C454 0.961 . S
H456 C454 0.961 . S
H457 C454 0.960 . S
C458 N459 1.342 . S
C458 C462 1.401 . S
C458 C463 1.499 1_554 S
N459 Co442 1.989 1_554 S
N459 C458 1.342 . S
N459 N460 1.388 . S
N460 Co443 1.993 . S
N460 N459 1.388 . S
N460 C461 1.346 . S
C461 N460 1.346 . S
C461 C462 1.396 . S
C461 C471 1.510 . S
C462 C458 1.401 . S
C462 C461 1.396 . S
C463 C458 1.499 1_556 S
C463 H464 0.959 . S
C463 H465 0.960 1_565 S
C463 H466 0.961 . S
H464 C463 0.959 . S
H465 C463 0.960 1_545 S
H466 C463 0.961 . S
O467 Co442 1.967 1_554 S
O467 C475 1.259 . S
O468 Co443 1.941 . S
O468 C475 1.266 . S
H469 C471 0.959 . S
H470 C471 0.961 . S
C471 C461 1.510 . S
C471 H469 0.959 . S
C471 H470 0.961 . S
C471 H472 0.960 . S
H472 C471 0.960 . S
H473 N453 0.862 . S
O474 Co442 1.920 . S
O474 C447 1.289 1_565 S
C475 O467 1.259 . S
C475 O468 1.266 . S
Co476 O479 1.970 . S
Co476 N493 1.989 . S
Co476 O501 1.967 . S
Co476 O508 1.920 . S
Co477 O480 1.966 . S
Co477 N486 2.022 . S
Co477 N494 1.993 . S
Co477 O502 1.941 . S
C478 O479 1.258 . S
C478 O480 1.263 . S
O479 Co476 1.970 . S
O479 C478 1.258 . S
O480 Co477 1.966 . S
O480 C478 1.263 . S
C481 O482 1.235 . S
C481 O508 1.289 . S
O482 C481 1.235 . S
C483 C485 1.400 . S
C483 N486 1.351 1_554 S
C483 C488 1.501 . S
C484 C485 1.387 . S
C484 N487 1.341 . S
C485 C483 1.400 . S
C485 C484 1.387 . S
N486 Co477 2.022 . S
N486 C483 1.351 1_556 S
N486 N487 1.365 1_556 S
N487 C484 1.341 . S
N487 N486 1.365 1_554 S
N487 H507 0.862 1_554 S
C488 C483 1.501 . S
C488 H489 0.961 1_554 S
C488 H490 0.961 . S
C488 H491 0.960 . S
H489 C488 0.961 1_556 S
H490 C488 0.961 . S
H491 C488 0.960 . S
C492 N493 1.342 . S
C492 C496 1.401 . S
C492 C497 1.499 . S
N493 Co476 1.989 . S
N493 C492 1.342 . S
N493 N494 1.388 . S
N494 Co477 1.993 . S
N494 N493 1.388 . S
N494 C495 1.346 . S
C495 N494 1.346 . S
C495 C496 1.396 . S
C495 C505 1.510 . S
C496 C492 1.401 . S
C496 C495 1.396 . S
C497 C492 1.499 . S
C497 H498 0.959 . S
C497 H499 0.960 . S
C497 H500 0.961 . S
H498 C497 0.959 . S
H499 C497 0.960 . S
H500 C497 0.961 . S
O501 Co476 1.967 . S
O501 C509 1.258 . S
O502 Co477 1.941 . S
O502 C509 1.266 . S
H503 C505 0.959 . S
H504 C505 0.961 . S
C505 C495 1.510 . S
C505 H503 0.959 . S
C505 H504 0.961 . S
C505 H506 0.960 . S
H506 C505 0.960 . S
H507 N487 0.862 1_556 S
O508 Co476 1.920 . S
O508 C481 1.289 . S
C509 O501 1.258 . S
C509 O502 1.266 . S
Co510 O513 1.970 1_556 S
Co510 N527 1.989 1_556 S
Co510 O535 1.967 1_556 S
Co510 O542 1.920 . S
Co511 O514 1.966 . S
Co511 N520 2.022 . S
Co511 N528 1.993 . S
Co511 O536 1.941 . S
C512 O513 1.258 . S
C512 O514 1.263 . S
O513 Co510 1.970 1_554 S
O513 C512 1.258 . S
O514 Co511 1.966 . S
O514 C512 1.263 . S
C515 O516 1.235 . S
C515 O542 1.289 . S
O516 C515 1.235 . S
C517 C519 1.400 . S
C517 N520 1.351 . S
C517 C522 1.501 . S
C518 C519 1.387 . S
C518 N521 1.341 . S
C519 C517 1.400 . S
C519 C518 1.387 . S
N520 Co511 2.022 . S
N520 C517 1.351 . S
N520 N521 1.365 . S
N521 C518 1.341 . S
N521 N520 1.365 . S
N521 H541 0.862 . S
C522 C517 1.501 . S
C522 H523 0.961 . S
C522 H524 0.961 . S
C522 H525 0.960 . S
H523 C522 0.961 . S
H524 C522 0.961 . S
H525 C522 0.960 . S
C526 N527 1.342 . S
C526 C530 1.401 . S
C526 C531 1.499 1_554 S
N527 Co510 1.989 1_554 S
N527 C526 1.342 . S
N527 N528 1.388 . S
N528 Co511 1.993 . S
N528 N527 1.388 . S
N528 C529 1.346 . S
C529 N528 1.346 . S
C529 C530 1.396 . S
C529 C539 1.510 . S
C530 C526 1.401 . S
C530 C529 1.396 . S
C531 C526 1.499 1_556 S
C531 H532 0.959 . S
C531 H533 0.960 . S
C531 H534 0.961 . S
H532 C531 0.959 . S
H533 C531 0.960 . S
H534 C531 0.961 . S
O535 Co510 1.967 1_554 S
O535 C543 1.259 . S
O536 Co511 1.941 . S
O536 C543 1.266 . S
H537 C539 0.959 . S
H538 C539 0.961 . S
C539 C529 1.510 . S
C539 H537 0.959 . S
C539 H538 0.961 . S
C539 H540 0.960 . S
H540 C539 0.960 . S
H541 N521 0.862 . S
O542 Co510 1.920 . S
O542 C515 1.289 . S
C543 O535 1.259 . S
C543 O536 1.266 . S
C2 C512 1.762 . S
C36 C410 1.762 . S
C444 C70 1.762 . S
C104 C478 1.762 . S
C308 C138 1.762 . S
C342 C172 1.762 . S
C376 C206 1.762 . S
C274 C240 1.762 . S
C33 C271 1.842 1_554 S
C67 C169 1.842 . S
C101 C203 1.842 1_554 S
C135 C237 1.842 . S
C543 C305 1.842 1_554 S
C441 C339 1.842 . S
C475 C373 1.842 1_554 S
C407 C509 1.842 . S
C20 C156 2.038 . S
C190 C54 2.038 . S
C224 C88 2.038 . S
C122 C258 2.038 . S
C428 C292 2.038 . S
C326 C462 2.038 . S
C360 C496 2.038 . S
C530 C394 2.038 . S
C5 C9 2.155 1_655 S
C43 C39 2.155 1_545 S
C73 C77 2.155 . S
C111 C107 2.155 . S
C141 C145 2.155 1_655 S
C175 C179 2.155 1_565 S
C209 C213 2.155 . S
C243 C247 2.155 . S
C281 C277 2.155 1_655 S
C315 C311 2.155 1_565 S
C349 C345 2.155 . S
C383 C379 2.155 . S
C413 C417 2.155 1_455 S
C447 C451 2.155 1_545 S
C485 C481 2.155 . S
C519 C515 2.155 . S
