# Generated by pormake.
# Topology qtz-e, (6)-cn, num edge types: 1
# Building blocks:
#     Node 0, Type 0, BuildingBlock: PAMTOO_clean_sbu_0, # of connection points: 6
#     Node 1, Type 0, BuildingBlock: PAMTOO_clean_sbu_0, # of connection points: 6
#     Node 2, Type 0, BuildingBlock: PAMTOO_clean_sbu_0, # of connection points: 6
#     Node 3, Type 0, BuildingBlock: PAMTOO_clean_sbu_0, # of connection points: 6
#     Node 4, Type 0, BuildingBlock: PAMTOO_clean_sbu_0, # of connection points: 6
#     Node 5, Type 0, BuildingBlock: PAMTOO_clean_sbu_0, # of connection points: 6
#     Edge 6, Type (0, 0), BuildingBlock: MIFKUJ_clean_linker_0, # of connection points: 2
#     Edge 7, Type (0, 0), BuildingBlock: MIFKUJ_clean_linker_0, # of connection points: 2
#     Edge 8, Type (0, 0), BuildingBlock: MIFKUJ_clean_linker_0, # of connection points: 2
#     Edge 9, Type (0, 0), BuildingBlock: MIFKUJ_clean_linker_0, # of connection points: 2
#     Edge 10, Type (0, 0), BuildingBlock: MIFKUJ_clean_linker_0, # of connection points: 2
#     Edge 11, Type (0, 0), BuildingBlock: MIFKUJ_clean_linker_0, # of connection points: 2
#     Edge 12, Type (0, 0), BuildingBlock: MIFKUJ_clean_linker_0, # of connection points: 2
#     Edge 13, Type (0, 0), BuildingBlock: MIFKUJ_clean_linker_0, # of connection points: 2
#     Edge 14, Type (0, 0), BuildingBlock: MIFKUJ_clean_linker_0, # of connection points: 2
#     Edge 15, Type (0, 0), BuildingBlock: MIFKUJ_clean_linker_0, # of connection points: 2
#     Edge 16, Type (0, 0), BuildingBlock: MIFKUJ_clean_linker_0, # of connection points: 2
#     Edge 17, Type (0, 0), BuildingBlock: MIFKUJ_clean_linker_0, # of connection points: 2
#     Edge 18, Type (0, 0), BuildingBlock: MIFKUJ_clean_linker_0, # of connection points: 2
#     Edge 19, Type (0, 0), BuildingBlock: MIFKUJ_clean_linker_0, # of connection points: 2
#     Edge 20, Type (0, 0), BuildingBlock: MIFKUJ_clean_linker_0, # of connection points: 2
#     Edge 21, Type (0, 0), BuildingBlock: MIFKUJ_clean_linker_0, # of connection points: 2
#     Edge 22, Type (0, 0), BuildingBlock: MIFKUJ_clean_linker_0, # of connection points: 2
#     Edge 23, Type (0, 0), BuildingBlock: MIFKUJ_clean_linker_0, # of connection points: 2
# Relax obj value: 0.168
# Max RMSD: 0.200
# Mean RMSD: 0.200
data_MOF--net-qtz-e--node1-PAMTOO_clean_sbu_0--edge1-MIFKUJ_clean_linker_0
_symmetry_space_group_name_H-M    P1
_symmetry_Int_Tables_number       1
_symmetry_cell_setting            triclinic
loop_
_symmetry_equiv_pos_as_xyz
'x, y, z'
_cell_length_a     34.63101
_cell_length_b     34.682154
_cell_length_c     62.344048
_cell_angle_alpha  90.06077
_cell_angle_beta   90.02472
_cell_angle_gamma 119.94762
loop_
_atom_site_label
_atom_site_type_symbol
_atom_site_fract_x
_atom_site_fract_y
_atom_site_fract_z
_atom_type_partial_charge
Dy0 Dy 0.1328 0.34841 0.11376 0.0
Dy1 Dy 0.19509 0.43778 0.1441 0.0
C2 C 0.22866 0.37332 0.12956 0.0
O3 O 0.11711 0.32688 0.14816 0.0
O4 O 0.13429 0.39438 0.16273 0.0
O5 O 0.11291 0.2805 0.10544 0.0
O6 O 0.08654 0.31599 0.08764 0.0
O7 O 0.14372 0.44941 0.12855 0.0
O8 O 0.08945 0.37743 0.12055 0.0
O9 O 0.2298 0.45338 0.11252 0.0
O10 O 0.16969 0.40615 0.09164 0.0
O11 O 0.22563 0.50765 0.15234 0.0
O12 O 0.23698 0.46302 0.17212 0.0
C13 C 0.11443 0.3509 0.16385 0.0
O14 O 0.20233 0.36142 0.11289 0.0
O15 O 0.21928 0.38914 0.14659 0.0
C16 C 0.10496 0.26971 0.06771 0.0
C17 C 0.13136 0.25292 0.0275 0.0
C18 C 0.16068 0.26661 0.04509 0.0
C19 C 0.14776 0.27524 0.06496 0.0
C20 C 0.07554 0.25573 0.0502 0.0
C21 C 0.08866 0.24759 0.03026 0.0
C22 C 0.09177 0.28127 0.08821 0.0
C23 C 0.10283 0.41999 0.12275 0.0
C24 C 0.21038 0.4401 0.09371 0.0
C25 C 0.23625 0.52257 0.18962 0.0
C26 C 0.22563 0.55659 0.22896 0.0
C27 C 0.18835 0.52309 0.21799 0.0
C28 C 0.19365 0.50612 0.1985 0.0
C29 C 0.27332 0.55644 0.20025 0.0
C30 C 0.26811 0.57333 0.21973 0.0
C31 C 0.24302 0.50303 0.17004 0.0
H32 H 0.19399 0.27157 0.04335 0.0
H33 H 0.17149 0.2868 0.07806 0.0
H34 H 0.04257 0.25166 0.0519 0.0
H35 H 0.06531 0.23685 0.017 0.0
H36 H 0.15525 0.50919 0.22475 0.0
H37 H 0.16466 0.47967 0.19055 0.0
H38 H 0.30646 0.56942 0.19364 0.0
H39 H 0.29742 0.59956 0.22756 0.0
Dy40 Dy 0.83425 0.1944 0.40494 0.0
Dy41 Dy 0.80042 0.25615 0.37867 0.0
C42 C 0.74122 0.15109 0.38109 0.0
O43 O 0.87467 0.21625 0.37481 0.0
O44 O 0.82709 0.22902 0.35425 0.0
O45 O 0.82278 0.13068 0.41611 0.0
O46 O 0.88443 0.19034 0.42402 0.0
O47 O 0.87138 0.29854 0.38821 0.0
O48 O 0.86676 0.26242 0.41932 0.0
O49 O 0.77857 0.2551 0.41256 0.0
O50 O 0.78077 0.19356 0.42508 0.0
O51 O 0.80695 0.32021 0.37157 0.0
O52 O 0.75742 0.26101 0.35509 0.0
C53 C 0.8613 0.22278 0.3561 0.0
O54 O 0.77721 0.14819 0.38411 0.0
O55 O 0.74167 0.18898 0.38266 0.0
C56 C 0.8528 0.13387 0.45026 0.0
C57 C 0.83723 0.10233 0.49295 0.0
C58 C 0.81576 0.12445 0.48459 0.0
C59 C 0.82357 0.14013 0.46347 0.0
C60 C 0.87492 0.11265 0.45857 0.0
C61 C 0.86732 0.09711 0.47973 0.0
C62 C 0.85898 0.1479 0.42764 0.0
C63 C 0.88432 0.29911 0.408 0.0
C64 C 0.76842 0.22364 0.42694 0.0
C65 C 0.78989 0.3275 0.33545 0.0
C66 C 0.80964 0.36629 0.29426 0.0
C67 C 0.84202 0.3619 0.30594 0.0
C68 C 0.8321 0.34232 0.32633 0.0
C69 C 0.75791 0.33255 0.32399 0.0
C70 C 0.76762 0.35167 0.30358 0.0
C71 C 0.77742 0.30424 0.3562 0.0
H72 H 0.79204 0.12867 0.49416 0.0
H73 H 0.8062 0.15649 0.45732 0.0
H74 H 0.89773 0.10768 0.44863 0.0
H75 H 0.88506 0.08099 0.48571 0.0
H76 H 0.87455 0.37258 0.29908 0.0
H77 H 0.85707 0.33815 0.33483 0.0
H78 H 0.72511 0.32111 0.33072 0.0
H79 H 0.7422 0.3551 0.29509 0.0
Dy80 Dy 0.63178 0.79586 0.78574 0.0
Dy81 Dy 0.54126 0.76291 0.81583 0.0
C82 C 0.6029 0.86501 0.80317 0.0
O83 O 0.64593 0.77278 0.81683 0.0
O84 O 0.59861 0.78416 0.83817 0.0
O85 O 0.70122 0.84142 0.77857 0.0
O86 O 0.66268 0.78397 0.75841 0.0
O87 O 0.55155 0.70521 0.81178 0.0
O88 O 0.58376 0.7242 0.77878 0.0
O89 O 0.51854 0.7579 0.78174 0.0
O90 O 0.58494 0.80632 0.76537 0.0
O91 O 0.47314 0.71377 0.82298 0.0
O92 O 0.50772 0.77339 0.84243 0.0
C93 C 0.63198 0.77667 0.83591 0.0
O94 O 0.63606 0.8583 0.7984 0.0
O95 O 0.56251 0.83241 0.80711 0.0
C96 C 0.71418 0.84983 0.74123 0.0
C97 C 0.73734 0.89808 0.70237 0.0
C98 C 0.70345 0.89635 0.7155 0.0
C99 C 0.69194 0.87239 0.73473 0.0
C100 C 0.74848 0.85208 0.72845 0.0
C101 C 0.76003 0.87603 0.70921 0.0
C102 C 0.6997 0.82165 0.76052 0.0
C103 C 0.55929 0.69384 0.79297 0.0
C104 C 0.54122 0.78257 0.76527 0.0
C105 C 0.45645 0.70695 0.86027 0.0
C106 C 0.42542 0.65611 0.89819 0.0
C107 C 0.41912 0.63504 0.8782 0.0
C108 C 0.4345 0.66018 0.85942 0.0
C109 C 0.46249 0.72793 0.88027 0.0
C110 C 0.44734 0.70281 0.89903 0.0
C111 C 0.47245 0.73403 0.84052 0.0
H112 H 0.68493 0.91245 0.71064 0.0
H113 H 0.66507 0.87073 0.74433 0.0
H114 H 0.7659 0.83475 0.73319 0.0
H115 H 0.7867 0.87718 0.69966 0.0
H116 H 0.4025 0.59909 0.87709 0.0
H117 H 0.42907 0.64292 0.84426 0.0
H118 H 0.47875 0.76385 0.88143 0.0
H119 H 0.45195 0.71995 0.91417 0.0
Dy120 Dy 0.78914 0.64001 0.07544 0.0
Dy121 Dy 0.74251 0.5424 0.04989 0.0
C122 C 0.84597 0.60545 0.0501 0.0
O123 O 0.78414 0.65643 0.04121 0.0
O124 O 0.72666 0.58778 0.03129 0.0
O125 O 0.842 0.70764 0.08121 0.0
O126 O 0.78242 0.67853 0.1008 0.0
O127 O 0.70243 0.53778 0.07852 0.0
O128 O 0.71483 0.60826 0.07613 0.0
O129 O 0.77323 0.52929 0.07841 0.0
O130 O 0.79113 0.59194 0.09889 0.0
O131 O 0.68068 0.48612 0.03921 0.0
O132 O 0.74364 0.49009 0.03149 0.0
C133 C 0.75228 0.63063 0.02778 0.0
O134 O 0.84293 0.62542 0.06736 0.0
O135 O 0.8116 0.58332 0.03736 0.0
C136 C 0.84995 0.72442 0.11833 0.0
C137 C 0.89378 0.74433 0.15849 0.0
C138 C 0.88625 0.70636 0.14686 0.0
C139 C 0.86458 0.69656 0.12698 0.0
C140 C 0.85807 0.7627 0.1296 0.0
C141 C 0.87989 0.77266 0.14947 0.0
C142 C 0.82303 0.71153 0.09856 0.0
C143 C 0.6897 0.56683 0.08213 0.0
C144 C 0.78788 0.55268 0.09621 0.0
C145 C 0.68415 0.454 0.00653 0.0
C146 C 0.65027 0.4243 0.96479 0.0
C147 C 0.62839 0.39827 0.98289 0.0
C148 C 0.64521 0.41297 0.00351 0.0
C149 C 0.70587 0.48056 0.98863 0.0
C150 C 0.68915 0.46578 0.96793 0.0
C151 C 0.70054 0.46866 0.02852 0.0
H152 H 0.89588 0.68345 0.15338 0.0
H153 H 0.85829 0.66666 0.11857 0.0
H154 H 0.84683 0.78448 0.12323 0.0
H155 H 0.88569 0.80249 0.15782 0.0
H156 H 0.59792 0.36663 0.98118 0.0
H157 H 0.62762 0.3923 0.01716 0.0
H158 H 0.73577 0.51262 0.99063 0.0
H159 H 0.70707 0.48655 0.95439 0.0
Dy160 Dy 0.1965 0.83286 0.4525 0.0
Dy161 Dy 0.24751 0.78561 0.47689 0.0
C162 C 0.14387 0.73993 0.47622 0.0
O163 O 0.20166 0.85307 0.48709 0.0
O164 O 0.2621 0.84593 0.49606 0.0
O165 O 0.13913 0.84113 0.44765 0.0
O166 O 0.19899 0.87947 0.42889 0.0
O167 O 0.28941 0.8257 0.4496 0.0
O168 O 0.27023 0.87958 0.45182 0.0
O169 O 0.2222 0.74603 0.44668 0.0
O170 O 0.20418 0.79147 0.42702 0.0
O171 O 0.30902 0.79169 0.48844 0.0
O172 O 0.2466 0.7305 0.49355 0.0
C173 C 0.2353 0.86174 0.49989 0.0
O174 O 0.14658 0.76189 0.45867 0.0
O175 O 0.17801 0.75455 0.48929 0.0
C176 C 0.1309 0.85408 0.41113 0.0
C177 C 0.08806 0.83212 0.37072 0.0
C178 C 0.09827 0.80244 0.38128 0.0
C179 C 0.1194 0.8133 0.4013 0.0
C180 C 0.12015 0.88346 0.4009 0.0
C181 C 0.09876 0.87253 0.38091 0.0
C182 C 0.157 0.86731 0.43115 0.0
C183 C 0.298 0.86628 0.44588 0.0
C184 C 0.2105 0.7571 0.42861 0.0
C185 C 0.30285 0.75226 0.51996 0.0
C186 C 0.33446 0.75697 0.56209 0.0
C187 C 0.29844 0.764 0.55811 0.0
C188 C 0.2829 0.76191 0.53716 0.0
C189 C 0.33817 0.74446 0.52391 0.0
C190 C 0.3539 0.74684 0.54478 0.0
C191 C 0.28923 0.75285 0.4977 0.0
H192 H 0.09 0.77082 0.37404 0.0
H193 H 0.12745 0.79019 0.40897 0.0
H194 H 0.12914 0.91525 0.40815 0.0
H195 H 0.09182 0.89633 0.37314 0.0
H196 H 0.2831 0.77229 0.5711 0.0
H197 H 0.25589 0.76855 0.53434 0.0
H198 H 0.35406 0.73718 0.51079 0.0
H199 H 0.38135 0.74078 0.54738 0.0
Dy200 Dy 0.36232 0.16187 0.73807 0.0
Dy201 Dy 0.45533 0.21898 0.7095 0.0
C202 C 0.39443 0.26101 0.72208 0.0
O203 O 0.34813 0.12583 0.70655 0.0
O204 O 0.40095 0.18221 0.68562 0.0
O205 O 0.2936 0.14129 0.74541 0.0
O206 O 0.32919 0.11714 0.76449 0.0
O207 O 0.44376 0.15036 0.7125 0.0
O208 O 0.40775 0.13476 0.74466 0.0
O209 O 0.47627 0.23165 0.74399 0.0
O210 O 0.40991 0.21628 0.75959 0.0
O211 O 0.52346 0.23698 0.70291 0.0
O212 O 0.49163 0.26671 0.68466 0.0
C213 C 0.36547 0.14256 0.68767 0.0
O214 O 0.36016 0.22134 0.72576 0.0
O215 O 0.43467 0.26759 0.71894 0.0
C216 C 0.28044 0.13404 0.78284 0.0
C217 C 0.26006 0.15853 0.82271 0.0
C218 C 0.28984 0.19125 0.8084 0.0
C219 C 0.30011 0.17909 0.78869 0.0
C220 C 0.25032 0.10139 0.7969 0.0
C221 C 0.24022 0.11348 0.81665 0.0
C222 C 0.29366 0.12078 0.76293 0.0
C223 C 0.43267 0.12881 0.7307 0.0
C224 C 0.45335 0.23344 0.76041 0.0
C225 C 0.54454 0.25513 0.66683 0.0
C226 C 0.57736 0.24369 0.62752 0.0
C227 C 0.53975 0.20784 0.63703 0.0
C228 C 0.52335 0.21358 0.65655 0.0
C229 C 0.58237 0.29068 0.6576 0.0
C230 C 0.59869 0.28504 0.6381 0.0
C231 C 0.52673 0.26235 0.68676 0.0
H232 H 0.30608 0.22617 0.81267 0.0
H233 H 0.32399 0.20482 0.77818 0.0
H234 H 0.23508 0.06646 0.79274 0.0
H235 H 0.21677 0.0875 0.82717 0.0
H236 H 0.52241 0.17573 0.62915 0.0
H237 H 0.49389 0.18584 0.66348 0.0
H238 H 0.59905 0.32293 0.66539 0.0
H239 H 0.62807 0.31307 0.6313 0.0
H240 H 0.25268 0.71024 0.41989 0.0
H241 H 0.25051 0.67209 0.38646 0.0
H242 H 0.15797 0.70778 0.35951 0.0
H243 H 0.16034 0.74653 0.39285 0.0
H244 H 0.13826 0.61454 0.35185 0.0
H245 H 0.25554 0.76812 0.34589 0.0
H246 H 0.32291 0.83522 0.3588 0.0
H247 H 0.39578 0.76505 0.35721 0.0
H248 H 0.32854 0.69718 0.34484 0.0
H249 H 0.16175 0.57691 0.24132 0.0
H250 H 0.15513 0.60669 0.27587 0.0
H251 H 0.27131 0.60426 0.29902 0.0
H252 H 0.27816 0.57467 0.26456 0.0
H253 H 0.2776 0.68032 0.30908 0.0
H254 H 0.16526 0.52795 0.31636 0.0
H255 H 0.09884 0.45668 0.30668 0.0
H256 H 0.01858 0.51915 0.30786 0.0
H257 H 0.08464 0.59093 0.31736 0.0
C258 C 0.23139 0.70947 0.40696 0.0
C259 C 0.20669 0.7314 0.40899 0.0
C260 C 0.23027 0.68774 0.38788 0.0
C261 C 0.20414 0.68722 0.37055 0.0
C262 C 0.17822 0.70773 0.37275 0.0
C263 C 0.17984 0.73006 0.39174 0.0
C264 C 0.20622 0.66776 0.3497 0.0
C265 C 0.16844 0.62915 0.34229 0.0
C266 C 0.24608 0.68626 0.33765 0.0
C267 C 0.28684 0.72739 0.34465 0.0
C268 C 0.28581 0.76686 0.34849 0.0
C269 C 0.32399 0.80506 0.35571 0.0
C270 C 0.36358 0.80438 0.3589 0.0
C271 C 0.36508 0.76553 0.35482 0.0
C272 C 0.32694 0.72717 0.3477 0.0
C273 C 0.1856 0.58228 0.25385 0.0
C274 C 0.22059 0.57356 0.25013 0.0
C275 C 0.18177 0.59929 0.27362 0.0
C276 C 0.21255 0.60748 0.29016 0.0
C277 C 0.24727 0.59846 0.28651 0.0
C278 C 0.25122 0.58166 0.26676 0.0
C279 C 0.20952 0.62675 0.31103 0.0
C280 C 0.24722 0.66553 0.3185 0.0
C281 C 0.16976 0.60793 0.32328 0.0
C282 C 0.13002 0.56495 0.31733 0.0
C283 C 0.13353 0.5266 0.31436 0.0
C284 C 0.09593 0.48608 0.30896 0.0
C285 C 0.05455 0.48343 0.30659 0.0
C286 C 0.05067 0.52128 0.30966 0.0
C287 C 0.08817 0.56188 0.31508 0.0
H288 H 0.02548 0.45202 0.30242 0.0
H289 H 0.39309 0.83402 0.36445 0.0
H290 H 0.58844 0.17481 0.61373 0.0
H291 H 0.61667 0.16722 0.57886 0.0
H292 H 0.63215 0.29332 0.55902 0.0
H293 H 0.6032 0.30067 0.59359 0.0
H294 H 0.59369 0.23032 0.52791 0.0
H295 H 0.7194 0.28483 0.57561 0.0
H296 H 0.76211 0.28485 0.60723 0.0
H297 H 0.7502 0.1611 0.58688 0.0
H298 H 0.70605 0.15947 0.55546 0.0
H299 H 0.74504 0.28463 0.4404 0.0
H300 H 0.7061 0.28255 0.47352 0.0
H301 H 0.69441 0.15637 0.48997 0.0
H302 H 0.73297 0.15796 0.45705 0.0
H303 H 0.72861 0.21548 0.52261 0.0
H304 H 0.59756 0.15524 0.4781 0.0
H305 H 0.55149 0.15084 0.44697 0.0
H306 H 0.57532 0.28237 0.46051 0.0
H307 H 0.62047 0.28699 0.49213 0.0
C308 C 0.59756 0.20071 0.60186 0.0
C309 C 0.59389 0.23846 0.60641 0.0
C310 C 0.61394 0.19649 0.58203 0.0
C311 C 0.62686 0.22993 0.56647 0.0
C312 C 0.62247 0.26722 0.57085 0.0
C313 C 0.60629 0.27154 0.59065 0.0
C314 C 0.64512 0.22635 0.54558 0.0
C315 C 0.62347 0.22753 0.52676 0.0
C316 C 0.68322 0.22141 0.54412 0.0
C317 C 0.70879 0.22172 0.56332 0.0
C318 C 0.72521 0.25722 0.57804 0.0
C319 C 0.74972 0.25753 0.59593 0.0
C320 C 0.75856 0.22281 0.59914 0.0
C321 C 0.74295 0.18773 0.58445 0.0
C322 C 0.71811 0.18706 0.56662 0.0
C323 C 0.73376 0.25622 0.45095 0.0
C324 C 0.74255 0.22171 0.44617 0.0
C325 C 0.71132 0.25497 0.46981 0.0
C326 C 0.69728 0.2192 0.48413 0.0
C327 C 0.70509 0.18429 0.47914 0.0
C328 C 0.72732 0.18541 0.46033 0.0
C329 C 0.67726 0.21962 0.50502 0.0
C330 C 0.69866 0.21795 0.52382 0.0
C331 C 0.63879 0.22369 0.50651 0.0
C332 C 0.61265 0.22161 0.48731 0.0
C333 C 0.59314 0.1833 0.47435 0.0
C334 C 0.56702 0.18067 0.45671 0.0
C335 C 0.56084 0.21646 0.45164 0.0
C336 C 0.58026 0.25473 0.46441 0.0
C337 C 0.60582 0.25724 0.48229 0.0
H338 H 0.54086 0.21446 0.43787 0.0
H339 H 0.77771 0.22321 0.61295 0.0
H340 H 0.18009 0.42415 0.05239 0.0
H341 H 0.2222 0.45836 0.01982 0.0
H342 H 0.34007 0.53893 0.05762 0.0
H343 H 0.29803 0.50512 0.09043 0.0
H344 H 0.32713 0.58716 0.02733 0.0
H345 H 0.32776 0.44987 0.0303 0.0
H346 H 0.29523 0.36861 0.03314 0.0
H347 H 0.22262 0.35045 0.97463 0.0
H348 H 0.25361 0.43147 0.97175 0.0
H349 H 0.46743 0.67042 0.93692 0.0
H350 H 0.43611 0.63072 0.97055 0.0
H351 H 0.31271 0.54281 0.93812 0.0
H352 H 0.34393 0.58222 0.90442 0.0
H353 H 0.33395 0.49784 0.96673 0.0
H354 H 0.32427 0.63165 0.96618 0.0
H355 H 0.35366 0.71246 0.96305 0.0
H356 H 0.44066 0.7359 0.01664 0.0
H357 H 0.4122 0.6552 0.01989 0.0
C358 C 0.21496 0.44919 0.05385 0.0
C359 C 0.23567 0.46201 0.07405 0.0
C360 C 0.23904 0.46849 0.03517 0.0
C361 C 0.28438 0.5007 0.0363 0.0
C362 C 0.30511 0.51398 0.05642 0.0
C363 C 0.28101 0.4947 0.07515 0.0
C364 C 0.30965 0.52146 0.01644 0.0
C365 C 0.32937 0.56772 0.01424 0.0
C366 C 0.31152 0.49581 0.9992 0.0
C367 C 0.29278 0.44689 0.00091 0.0
C368 C 0.30447 0.42856 0.01815 0.0
C369 C 0.28628 0.38249 0.01978 0.0
C370 C 0.25675 0.35435 0.00412 0.0
C371 C 0.24534 0.37223 0.9868 0.0
C372 C 0.2632 0.41825 0.98517 0.0
C373 C 0.43368 0.64252 0.93696 0.0
C374 C 0.40795 0.62969 0.91811 0.0
C375 C 0.41588 0.61982 0.95615 0.0
C376 C 0.37186 0.58426 0.95688 0.0
C377 C 0.34676 0.57017 0.9379 0.0
C378 C 0.36464 0.59269 0.91866 0.0
C379 C 0.35104 0.56342 0.97762 0.0
C380 C 0.33211 0.51722 0.97995 0.0
C381 C 0.34951 0.58897 0.99497 0.0
C382 C 0.36648 0.63746 0.99312 0.0
C383 C 0.34991 0.65407 0.97719 0.0
C384 C 0.36637 0.69984 0.97541 0.0
C385 C 0.39911 0.72931 0.98959 0.0
C386 C 0.41537 0.71304 0.00563 0.0
C387 C 0.39908 0.6673 0.00746 0.0
H388 H 0.4118 0.76473 0.98819 0.0
H389 H 0.2429 0.31872 0.00535 0.0
H390 H 0.75689 0.33362 0.25882 0.0
H391 H 0.76908 0.36764 0.22336 0.0
H392 H 0.89553 0.47625 0.24443 0.0
H393 H 0.88331 0.44229 0.28016 0.0
H394 H 0.84394 0.50506 0.22503 0.0
H395 H 0.89384 0.40427 0.20947 0.0
H396 H 0.89389 0.33334 0.20769 0.0
H397 H 0.77763 0.27783 0.16753 0.0
H398 H 0.77644 0.34822 0.16928 0.0
H399 H 0.861 0.59653 0.12169 0.0
H400 H 0.88137 0.56728 0.15277 0.0
H401 H 0.76451 0.43865 0.1426 0.0
H402 H 0.74579 0.46732 0.11074 0.0
H403 H 0.82843 0.42682 0.15617 0.0
H404 H 0.77154 0.52416 0.17865 0.0
H405 H 0.77279 0.59585 0.18058 0.0
H406 H 0.90338 0.65742 0.20872 0.0
H407 H 0.90339 0.58642 0.20643 0.0
C408 C 0.78742 0.36463 0.25588 0.0
C409 C 0.81901 0.38546 0.2723 0.0
C410 C 0.79454 0.38384 0.23554 0.0
C411 C 0.83336 0.42434 0.23119 0.0
C412 C 0.86543 0.44488 0.24743 0.0
C413 C 0.8585 0.4254 0.26778 0.0
C414 C 0.8384 0.44647 0.21016 0.0
C415 C 0.8415 0.48836 0.20994 0.0
C416 C 0.83474 0.42443 0.1905 0.0
C417 C 0.83489 0.38163 0.18963 0.0
C418 C 0.86795 0.37684 0.20045 0.0
C419 C 0.86828 0.33673 0.19939 0.0
C420 C 0.83574 0.30108 0.18754 0.0
C421 C 0.80284 0.30549 0.1767 0.0
C422 C 0.80238 0.34555 0.17768 0.0
C423 C 0.83988 0.56197 0.12609 0.0
C424 C 0.80138 0.5343 0.11415 0.0
C425 C 0.85149 0.54526 0.14385 0.0
C426 C 0.82381 0.50103 0.15048 0.0
C427 C 0.78635 0.47294 0.13793 0.0
C428 C 0.77548 0.48933 0.1198 0.0
C429 C 0.83186 0.48447 0.17111 0.0
C430 C 0.83137 0.4437 0.17125 0.0
C431 C 0.83782 0.50747 0.19076 0.0
C432 C 0.83767 0.55011 0.19214 0.0
C433 C 0.80067 0.5531 0.18507 0.0
C434 C 0.80118 0.59363 0.18621 0.0
C435 C 0.83823 0.63124 0.19467 0.0
C436 C 0.87483 0.62838 0.20204 0.0
C437 C 0.87462 0.58802 0.2008 0.0
H438 H 0.8385 0.66253 0.1956 0.0
H439 H 0.83606 0.27006 0.18673 0.0
H440 H 0.45089 0.73907 0.75845 0.0
H441 H 0.41167 0.73732 0.72553 0.0
H442 H 0.53727 0.82474 0.69491 0.0
H443 H 0.5767 0.82741 0.7278 0.0
H444 H 0.47705 0.84775 0.68429 0.0
H445 H 0.48299 0.71234 0.68643 0.0
H446 H 0.47142 0.642 0.702 0.0
H447 H 0.33024 0.59147 0.70395 0.0
H448 H 0.34105 0.66181 0.68867 0.0
H449 H 0.42173 0.80053 0.57438 0.0
H450 H 0.45203 0.80656 0.61044 0.0
H451 H 0.31882 0.72967 0.63568 0.0
H452 H 0.28818 0.7231 0.59948 0.0
H453 H 0.37726 0.70143 0.65033 0.0
H454 H 0.37369 0.83763 0.64458 0.0
H455 H 0.38845 0.90718 0.62682 0.0
H456 H 0.52921 0.95565 0.6297 0.0
H457 H 0.51528 0.88616 0.64725 0.0
C458 C 0.4702 0.75815 0.74477 0.0
C459 C 0.517 0.78307 0.74575 0.0
C460 C 0.4477 0.75701 0.72593 0.0
C461 C 0.47156 0.7804 0.70765 0.0
C462 C 0.51815 0.80638 0.7088 0.0
C463 C 0.54066 0.80768 0.72763 0.0
C464 C 0.44826 0.77668 0.68708 0.0
C465 C 0.45548 0.81577 0.67681 0.0
C466 C 0.41948 0.7349 0.67745 0.0
C467 C 0.41288 0.69255 0.68664 0.0
C468 C 0.44951 0.68638 0.69035 0.0
C469 C 0.44309 0.64648 0.69909 0.0
C470 C 0.40013 0.61233 0.70402 0.0
C471 C 0.3635 0.61798 0.70017 0.0
C472 C 0.36976 0.65785 0.69146 0.0
C473 C 0.39887 0.78474 0.58759 0.0
C474 C 0.35257 0.76124 0.5841 0.0
C475 C 0.41622 0.78851 0.6082 0.0
C476 C 0.38764 0.76886 0.62574 0.0
C477 C 0.3414 0.74519 0.62235 0.0
C478 C 0.32397 0.7417 0.60171 0.0
C479 C 0.40638 0.77244 0.64753 0.0
C480 C 0.39838 0.73334 0.65798 0.0
C481 C 0.43486 0.81419 0.65717 0.0
C482 C 0.4434 0.8565 0.64708 0.0
C483 C 0.40778 0.86299 0.6413 0.0
C484 C 0.416 0.90241 0.63127 0.0
C485 C 0.45974 0.93574 0.62706 0.0
C486 C 0.49534 0.92976 0.63292 0.0
C487 C 0.48731 0.8904 0.64296 0.0
H488 H 0.46604 0.96627 0.61932 0.0
H489 H 0.39523 0.58145 0.71077 0.0
H490 H 0.614 0.33918 0.94939 0.0
H491 H 0.58421 0.31166 0.9137 0.0
H492 H 0.6184 0.44425 0.8942 0.0
H493 H 0.64657 0.47185 0.93031 0.0
H494 H 0.53834 0.3858 0.87904 0.0
H495 H 0.68204 0.39859 0.87874 0.0
H496 H 0.74306 0.38783 0.89207 0.0
H497 H 0.65945 0.24622 0.88619 0.0
H498 H 0.59769 0.25609 0.87312 0.0
H499 H 0.54328 0.28732 0.76679 0.0
H500 H 0.58133 0.32412 0.80016 0.0
H501 H 0.45499 0.26354 0.83308 0.0
H502 H 0.41672 0.22807 0.79981 0.0
H503 H 0.58876 0.29521 0.83884 0.0
H504 H 0.44959 0.3266 0.86722 0.0
H505 H 0.38952 0.33368 0.84951 0.0
H506 H 0.47418 0.39617 0.79529 0.0
H507 H 0.53447 0.38931 0.81252 0.0
C508 C 0.61478 0.36252 0.93763 0.0
C509 C 0.63275 0.40781 0.9428 0.0
C510 C 0.59815 0.34677 0.91711 0.0
C511 C 0.59961 0.37595 0.90112 0.0
C512 C 0.61708 0.42111 0.90623 0.0
C513 C 0.63359 0.43692 0.92683 0.0
C514 C 0.58283 0.35907 0.87914 0.0
C515 C 0.54965 0.36627 0.87025 0.0
C516 C 0.59799 0.33418 0.86735 0.0
C517 C 0.63513 0.32809 0.8751 0.0
C518 C 0.67656 0.36514 0.88043 0.0
C519 C 0.7113 0.3592 0.88792 0.0
C520 C 0.70511 0.31637 0.89001 0.0
C521 C 0.66419 0.27938 0.88457 0.0
C522 C 0.62932 0.28513 0.8771 0.0
C523 C 0.52361 0.28196 0.78114 0.0
C524 C 0.47691 0.25517 0.78057 0.0
C525 C 0.54544 0.30287 0.80021 0.0
C526 C 0.52099 0.29722 0.81906 0.0
C527 C 0.47451 0.26934 0.81864 0.0
C528 C 0.45266 0.24895 0.79958 0.0
C529 C 0.54367 0.32098 0.83914 0.0
C530 C 0.5779 0.31513 0.84761 0.0
C531 C 0.53039 0.34803 0.85028 0.0
C532 C 0.49643 0.3574 0.84116 0.0
C533 C 0.45559 0.3426 0.85171 0.0
C534 C 0.42142 0.34629 0.8417 0.0
C535 C 0.42796 0.36521 0.82133 0.0
C536 C 0.46899 0.38132 0.81104 0.0
C537 C 0.50317 0.37757 0.8209 0.0
H538 H 0.40117 0.36734 0.81354 0.0
H539 H 0.73204 0.31184 0.89581 0.0
H540 H 0.29287 0.39674 0.16037 0.0
H541 H 0.37242 0.42602 0.15421 0.0
H542 H 0.34737 0.39903 0.0865 0.0
H543 H 0.26795 0.36843 0.09256 0.0
H544 H 0.41307 0.38694 0.09814 0.0
H545 H 0.37481 0.50047 0.10686 0.0
H546 H 0.34057 0.53886 0.12537 0.0
H547 H 0.42873 0.56676 0.1789 0.0
H548 H 0.46301 0.52782 0.16088 0.0
H549 H 0.63583 0.60308 0.07729 0.0
H550 H 0.55712 0.56881 0.08761 0.0
H551 H 0.56513 0.46136 0.11811 0.0
H552 H 0.64295 0.49457 0.10733 0.0
H553 H 0.50736 0.54271 0.12329 0.0
H554 H 0.47504 0.36409 0.10563 0.0
H555 H 0.50646 0.32821 0.0829 0.0
H556 H 0.5556 0.43734 0.03862 0.0
H557 H 0.5238 0.47346 0.06087 0.0
C558 C 0.30418 0.39591 0.14426 0.0
C559 C 0.27423 0.38086 0.12692 0.0
C560 C 0.34964 0.41292 0.14075 0.0
C561 C 0.36584 0.4158 0.11983 0.0
C562 C 0.3356 0.39739 0.10276 0.0
C563 C 0.29013 0.37987 0.10629 0.0
C564 C 0.41426 0.44133 0.11541 0.0
C565 C 0.43373 0.42086 0.10376 0.0
C566 C 0.44082 0.48624 0.12201 0.0
C567 C 0.42123 0.51088 0.13261 0.0
C568 C 0.38678 0.51462 0.12262 0.0
C569 C 0.36734 0.53644 0.13303 0.0
C570 C 0.38238 0.55512 0.15332 0.0
C571 C 0.41707 0.55221 0.1632 0.0
C572 C 0.43654 0.53028 0.1529 0.0
C573 C 0.62088 0.57256 0.08651 0.0
C574 C 0.64508 0.551 0.09121 0.0
C575 C 0.57603 0.55306 0.09241 0.0
C576 C 0.55513 0.51206 0.10319 0.0
C577 C 0.58037 0.49247 0.10934 0.0
C578 C 0.62481 0.5115 0.1032 0.0
C579 C 0.50633 0.4878 0.10658 0.0
C580 C 0.48675 0.50864 0.11786 0.0
C581 C 0.47927 0.44381 0.09887 0.0
C582 C 0.4974 0.42167 0.08506 0.0
C583 C 0.49231 0.38028 0.09098 0.0
C584 C 0.51022 0.35993 0.07818 0.0
C585 C 0.53314 0.38055 0.05937 0.0
C586 C 0.53796 0.42146 0.05323 0.0
C587 C 0.52 0.44189 0.06593 0.0
H588 H 0.54709 0.36481 0.04952 0.0
H589 H 0.36721 0.57191 0.16136 0.0
H590 H 0.13554 0.67622 0.50489 0.0
H591 H 0.08461 0.59607 0.50173 0.0
H592 H 0.01849 0.61867 0.44863 0.0
H593 H 0.06843 0.69857 0.45192 0.0
H594 H 0.96034 0.5463 0.47142 0.0
H595 H 0.10766 0.60566 0.44008 0.0
H596 H 0.18972 0.64626 0.44185 0.0
H597 H 0.1859 0.55267 0.48802 0.0
H598 H 0.10363 0.51192 0.48683 0.0
H599 H 0.90608 0.38163 0.39356 0.0
H600 H 0.94634 0.45202 0.41292 0.0
H601 H 0.9688 0.38525 0.46565 0.0
H602 H 0.92764 0.31406 0.44651 0.0
H603 H 0.0463 0.47266 0.45048 0.0
H604 H 0.8959 0.40533 0.47555 0.0
H605 H 0.81428 0.36566 0.47097 0.0
H606 H 0.82417 0.47484 0.4342 0.0
H607 H 0.90598 0.5148 0.43818 0.0
C608 C 0.10923 0.66426 0.49301 0.0
C609 C 0.10663 0.69371 0.47835 0.0
C610 C 0.08025 0.61841 0.49118 0.0
C611 C 0.04852 0.60142 0.47461 0.0
C612 C 0.04292 0.63103 0.46145 0.0
C613 C 0.0717 0.67678 0.4633 0.0
C614 C 0.02569 0.55358 0.46883 0.0
C615 C 0.97908 0.53011 0.46697 0.0
C616 C 0.05016 0.53228 0.46322 0.0
C617 C 0.09956 0.55608 0.46356 0.0
C618 C 0.12432 0.59388 0.45069 0.0
C619 C 0.17086 0.61692 0.45159 0.0
C620 C 0.19303 0.60214 0.46506 0.0
C621 C 0.16868 0.56414 0.47762 0.0
C622 C 0.1221 0.54107 0.47686 0.0
C623 C 0.92004 0.38186 0.40914 0.0
C624 C 0.91354 0.34224 0.41855 0.0
C625 C 0.94284 0.42208 0.42021 0.0
C626 C 0.96 0.42353 0.44075 0.0
C627 C 0.95554 0.38456 0.44982 0.0
C628 C 0.93206 0.34405 0.43888 0.0
C629 C 0.98119 0.46586 0.4528 0.0
C630 C 0.02748 0.48837 0.45561 0.0
C631 C 0.95647 0.48637 0.45907 0.0
C632 C 0.90716 0.46294 0.45704 0.0
C633 C 0.88072 0.42076 0.46635 0.0
C634 C 0.83441 0.39822 0.46388 0.0
C635 C 0.81407 0.41769 0.45227 0.0
C636 C 0.83999 0.4598 0.44318 0.0
C637 C 0.88634 0.48242 0.44555 0.0
H638 H 0.77821 0.40018 0.45036 0.0
H639 H 0.22908 0.62008 0.46575 0.0
H640 H 0.49408 0.11784 0.70798 0.0
H641 H 0.5368 0.08358 0.72041 0.0
H642 H 0.46353 0.04764 0.77991 0.0
H643 H 0.42108 0.08243 0.76779 0.0
H644 H 0.55142 0.08621 0.78709 0.0
H645 H 0.4438 0.97081 0.74137 0.0
H646 H 0.40247 0.93739 0.7079 0.0
H647 H 0.5248 0.96998 0.6759 0.0
H648 H 0.56693 0.0042 0.70907 0.0
H649 H 0.56125 0.90075 0.82539 0.0
H650 H 0.55103 0.96197 0.81351 0.0
H651 H 0.64384 0.98915 0.76175 0.0
H652 H 0.65435 0.92771 0.77371 0.0
H653 H 0.5601 0.9661 0.74809 0.0
H654 H 0.66509 0.07009 0.79743 0.0
H655 H 0.70236 0.09787 0.83231 0.0
H656 H 0.58086 0.08118 0.85924 0.0
H657 H 0.54261 0.05264 0.82462 0.0
C658 C 0.48659 0.10214 0.7236 0.0
C659 C 0.4542 0.10293 0.73693 0.0
C660 C 0.51111 0.08262 0.73068 0.0
C661 C 0.50339 0.0632 0.75109 0.0
C662 C 0.47021 0.06279 0.76416 0.0
C663 C 0.44577 0.0824 0.75714 0.0
C664 C 0.53042 0.04405 0.7591 0.0
C665 C 0.55317 0.05975 0.77866 0.0
C666 C 0.53385 0.01063 0.74769 0.0
C667 C 0.5086 0.99068 0.72762 0.0
C668 C 0.46195 0.97132 0.72712 0.0
C669 C 0.43835 0.95211 0.70822 0.0
C670 C 0.46099 0.95168 0.68977 0.0
C671 C 0.50727 0.97039 0.69018 0.0
C672 C 0.53104 0.98973 0.70902 0.0
C673 C 0.58087 0.92098 0.81202 0.0
C674 C 0.60831 0.90947 0.80036 0.0
C675 C 0.57516 0.95607 0.80528 0.0
C676 C 0.59659 0.97998 0.78671 0.0
C677 C 0.62716 0.97112 0.77617 0.0
C678 C 0.63333 0.93624 0.78309 0.0
C679 C 0.58032 0.00749 0.77635 0.0
C680 C 0.55937 0.99332 0.75632 0.0
C681 C 0.57803 0.04179 0.78749 0.0
C682 C 0.60091 0.05901 0.8084 0.0
C683 C 0.64619 0.07201 0.81082 0.0
C684 C 0.66753 0.08796 0.83055 0.0
C685 C 0.64399 0.09124 0.84798 0.0
C686 C 0.59907 0.07864 0.84571 0.0
C687 C 0.57756 0.06264 0.82602 0.0
H688 H 0.66057 0.1036 0.86325 0.0
H689 H 0.44262 0.93676 0.6752 0.0
H690 H 0.48709 0.626 0.81277 0.0
H691 H 0.4411 0.54986 0.79994 0.0
H692 H 0.52928 0.57843 0.74595 0.0
H693 H 0.57457 0.65527 0.75827 0.0
H694 H 0.44567 0.53416 0.73305 0.0
H695 H 0.52949 0.51269 0.79105 0.0
H696 H 0.55548 0.51901 0.82847 0.0
H697 H 0.42 0.45288 0.85061 0.0
H698 H 0.39333 0.44634 0.8133 0.0
H699 H 0.44412 0.3408 0.70276 0.0
H700 H 0.45058 0.41122 0.71342 0.0
H701 H 0.34239 0.34255 0.75824 0.0
H702 H 0.33604 0.27145 0.74764 0.0
H703 H 0.41448 0.40372 0.77779 0.0
H704 H 0.33413 0.40473 0.71731 0.0
H705 H 0.31005 0.3963 0.67956 0.0
H706 H 0.43991 0.50103 0.66121 0.0
H707 H 0.46509 0.50965 0.69877 0.0
C708 C 0.49708 0.61595 0.79831 0.0
C709 C 0.53466 0.64656 0.78657 0.0
C710 C 0.47068 0.57235 0.79099 0.0
C711 C 0.48189 0.55829 0.77207 0.0
C712 C 0.51986 0.58862 0.76054 0.0
C713 C 0.54592 0.63241 0.76768 0.0
C714 C 0.45416 0.51212 0.76407 0.0
C715 C 0.43914 0.50556 0.74274 0.0
C716 C 0.44352 0.47475 0.77708 0.0
C717 C 0.45949 0.4793 0.79948 0.0
C718 C 0.50532 0.49977 0.80394 0.0
C719 C 0.52015 0.5033 0.8251 0.0
C720 C 0.48941 0.48642 0.84191 0.0
C721 C 0.44378 0.46606 0.83759 0.0
C722 C 0.42879 0.46238 0.81645 0.0
C723 C 0.42073 0.34051 0.71439 0.0
C724 C 0.3898 0.30078 0.72448 0.0
C725 C 0.42421 0.38082 0.72038 0.0
C726 C 0.39684 0.38224 0.73658 0.0
C727 C 0.36367 0.34217 0.74562 0.0
C728 C 0.35993 0.30158 0.73948 0.0
C729 C 0.40853 0.42576 0.74632 0.0
C730 C 0.42025 0.43204 0.76812 0.0
C731 C 0.41639 0.46282 0.73365 0.0
C732 C 0.40156 0.4577 0.71093 0.0
C733 C 0.3577 0.42575 0.70522 0.0
C734 C 0.34383 0.42097 0.68384 0.0
C735 C 0.37344 0.44808 0.668 0.0
C736 C 0.41699 0.48006 0.6735 0.0
C737 C 0.43106 0.48496 0.69486 0.0
H738 H 0.36262 0.44434 0.65146 0.0
H739 H 0.50094 0.48905 0.85827 0.0
H740 H 0.10809 0.49855 0.13405 0.0
H741 H 0.0628 0.52912 0.12025 0.0
H742 H 0.98394 0.40921 0.08363 0.0
H743 H 0.02866 0.37811 0.09754 0.0
H744 H 0.01965 0.48692 0.05921 0.0
H745 H 0.9384 0.42815 0.12348 0.0
H746 H 0.92338 0.414 0.16207 0.0
H747 H 0.96903 0.55246 0.17292 0.0
H748 H 0.98597 0.56785 0.13444 0.0
H749 H 0.84899 0.53779 0.02903 0.0
H750 H 0.89748 0.50816 0.03854 0.0
H751 H 0.97472 0.62172 0.0794 0.0
H752 H 0.92619 0.6514 0.07015 0.0
H753 H 0.9367 0.5435 0.10118 0.0
H754 H 0.02172 0.6018 0.03633 0.0
H755 H 0.03226 0.61335 0.99727 0.0
H756 H 0.97314 0.47248 0.98754 0.0
H757 H 0.96169 0.46001 0.02653 0.0
C758 C 0.08065 0.4784 0.12333 0.0
C759 C 0.07205 0.43604 0.11679 0.0
C760 C 0.05475 0.49584 0.11553 0.0
C761 C 0.02018 0.47138 0.10092 0.0
C762 C 0.01055 0.42852 0.0949 0.0
C763 C 0.036 0.41077 0.10294 0.0
C764 C -0.0034 0.4921 0.09062 0.0
C765 C 0.00101 0.49884 0.06833 0.0
C766 C 0.973 0.50818 0.10267 0.0
C767 C 0.9643 0.49931 0.12602 0.0
C768 C 0.94614 0.4558 0.13411 0.0
C769 C 0.93714 0.44753 0.15599 0.0
C770 C 0.94555 0.48238 0.16998 0.0
C771 C 0.96287 0.52556 0.16209 0.0
C772 C 0.9723 0.53409 0.14024 0.0
C773 C 0.87743 0.55746 0.03931 0.0
C774 C 0.88334 0.59655 0.04916 0.0
C775 C 0.90505 0.54035 0.04479 0.0
C776 C 0.9392 0.56246 0.05993 0.0
C777 C 0.94819 0.60397 0.06786 0.0
C778 C 0.92058 0.62099 0.06246 0.0
C779 C 0.96092 0.53952 0.06991 0.0
C780 C 0.95573 0.53195 0.09211 0.0
C781 C 0.98353 0.52249 0.0578 0.0
C782 C 0.99047 0.52995 0.03435 0.0
C783 C 0.01061 0.57324 0.02585 0.0
C784 C 0.01683 0.57997 0.00372 0.0
C785 C 0.00327 0.54367 0.98993 0.0
C786 C 0.98358 0.50056 0.99824 0.0
C787 C 0.97727 0.49366 0.02036 0.0
H788 H 0.00811 0.54894 0.9728 0.0
H789 H 0.93841 0.47592 0.18691 0.0
H790 H 0.32878 0.85357 0.40833 0.0
H791 H 0.40309 0.89972 0.39306 0.0
H792 H 0.43777 0.99127 0.44624 0.0
H793 H 0.3621 0.94676 0.4605 0.0
H794 H 0.47736 0.03669 0.4146 0.0
H795 H 0.464 0.90382 0.44297 0.0
H796 H 0.43238 0.82315 0.44822 0.0
H797 H 0.45975 0.80873 0.38246 0.0
H798 H 0.49029 0.88909 0.37661 0.0
H799 H 0.71293 0.07507 0.40397 0.0
H800 H 0.63494 0.01987 0.41104 0.0
H801 H 0.59306 0.08115 0.36313 0.0
H802 H 0.67081 0.13748 0.35677 0.0
H803 H 0.55926 0.95906 0.39342 0.0
H804 H 0.5136 0.09895 0.38411 0.0
H805 H 0.55255 0.18103 0.38516 0.0
H806 H 0.65421 0.18313 0.42538 0.0
H807 H 0.61539 0.10119 0.42505 0.0
C808 C 0.35216 0.88414 0.41641 0.0
C809 C 0.34023 0.89695 0.43549 0.0
C810 C 0.3947 0.91021 0.40786 0.0
C811 C 0.42664 0.94832 0.41882 0.0
C812 C 0.4139 0.96199 0.43749 0.0
C813 C 0.37077 0.93667 0.44564 0.0
C814 C 0.47361 0.97297 0.41132 0.0
C815 C 0.49505 0.01955 0.40993 0.0
C816 C 0.49753 0.95093 0.40587 0.0
C817 C 0.47898 0.90246 0.40929 0.0
C818 C 0.46284 0.88338 0.42956 0.0
C819 C 0.44505 0.83768 0.43264 0.0
C820 C 0.4438 0.81078 0.41565 0.0
C821 C 0.46046 0.82955 0.39557 0.0
C822 C 0.47797 0.87517 0.39235 0.0
C823 C 0.68709 0.07561 0.39439 0.0
C824 C 0.6975 0.11057 0.38001 0.0
C825 C 0.64257 0.04417 0.39847 0.0
C826 C 0.60829 0.04727 0.38802 0.0
C827 C 0.61907 0.07888 0.37171 0.0
C828 C 0.66339 0.11082 0.36799 0.0
C829 C 0.56209 0.02222 0.39625 0.0
C830 C 0.5411 0.97583 0.39792 0.0
C831 C 0.53938 0.04453 0.40312 0.0
C832 C 0.56185 0.09388 0.40426 0.0
C833 C 0.54411 0.11692 0.39329 0.0
C834 C 0.56622 0.16344 0.39375 0.0
C835 C 0.60608 0.18729 0.40515 0.0
C836 C 0.62363 0.16466 0.41636 0.0
C837 C 0.60148 0.11818 0.41611 0.0
H838 H 0.62316 0.22329 0.40546 0.0
H839 H 0.43009 0.77541 0.41806 0.0
H840 H 0.24307 0.22599 0.83202 0.0
H841 H 0.22408 0.24467 0.86683 0.0
H842 H 0.23626 0.13876 0.89638 0.0
H843 H 0.25456 0.11959 0.86158 0.0
H844 H 0.16482 0.13487 0.91026 0.0
H845 H 0.31574 0.25285 0.90549 0.0
H846 H 0.38262 0.31693 0.89025 0.0
H847 H 0.31299 0.39009 0.88582 0.0
H848 H 0.24571 0.32645 0.90126 0.0
H849 H 0.17154 0.20394 0.01902 0.0
H850 H 0.19456 0.1899 0.98405 0.0
H851 H 0.1467 0.26938 0.95331 0.0
H852 H 0.12325 0.28326 0.98825 0.0
H853 H 0.23574 0.28764 0.94038 0.0
H854 H 0.08511 0.1656 0.94846 0.0
H855 H 0.02429 0.10193 0.96747 0.0
H856 H 0.10068 0.03533 0.96798 0.0
H857 H 0.16227 0.09894 0.94925 0.0
C858 C 0.24216 0.207 0.84599 0.0
C859 C 0.25012 0.17115 0.84399 0.0
C860 C 0.23143 0.2178 0.86593 0.0
C861 C 0.22907 0.19342 0.88438 0.0
C862 C 0.23762 0.158 0.88243 0.0
C863 C 0.24797 0.14697 0.86249 0.0
C864 C 0.21564 0.20333 0.9055 0.0
C865 C 0.18086 0.16824 0.91691 0.0
C866 C 0.23582 0.24693 0.91418 0.0
C867 C 0.27558 0.28473 0.90428 0.0
C868 C 0.31457 0.28245 0.90108 0.0
C869 C 0.35261 0.31877 0.89251 0.0
C870 C 0.352 0.35749 0.88696 0.0
C871 C 0.31338 0.36004 0.89009 0.0
C872 C 0.27535 0.32393 0.89883 0.0
C873 C 0.16604 0.21849 0.00481 0.0
C874 C 0.14541 0.2445 0.00633 0.0
C875 C 0.17907 0.21036 0.98486 0.0
C876 C 0.17215 0.22847 0.96611 0.0
C877 C 0.15221 0.25503 0.9676 0.0
C878 C 0.13857 0.26265 0.98752 0.0
C879 C 0.18533 0.21921 0.94493 0.0
C880 C 0.21986 0.25439 0.93357 0.0
C881 C 0.16557 0.17559 0.9365 0.0
C882 C 0.12847 0.13723 0.94765 0.0
C883 C 0.0891 0.13755 0.9528 0.0
C884 C 0.05445 0.10144 0.96349 0.0
C885 C 0.05866 0.06466 0.96898 0.0
C886 C 0.09749 0.06387 0.96374 0.0
C887 C 0.13226 0.09992 0.95308 0.0
H888 H 0.0318 0.03673 0.97725 0.0
H889 H 0.38149 0.38555 0.88028 0.0
H890 H 0.92979 0.20484 0.3512 0.0
H891 H 0.97267 0.2134 0.31849 0.0
H892 H 0.89229 0.25597 0.2841 0.0
H893 H 0.84899 0.24656 0.31621 0.0
H894 H 0.90738 0.20534 0.25916 0.0
H895 H -0.00396 0.33242 0.30439 0.0
H896 H 0.03602 0.37165 0.3373 0.0
H897 H 0.11807 0.31138 0.33293 0.0
H898 H 0.07837 0.27165 0.30001 0.0
H899 H 0.10439 0.39199 0.19878 0.0
H900 H 0.06207 0.35833 0.23109 0.0
H901 H 0.02373 0.22773 0.20645 0.0
H902 H 0.06604 0.26144 0.17347 0.0
H903 H 0.07026 0.31056 0.26133 0.0
H904 H 0.91806 0.15683 0.22508 0.0
H905 H 0.8753 0.13298 0.19123 0.0
H906 H 0.91583 0.26888 0.17639 0.0
H907 H 0.95853 0.2934 0.21017 0.0
C908 C 0.92104 0.21559 0.3366 0.0
C909 C 0.88606 0.22514 0.33636 0.0
C910 C 0.94559 0.22053 0.31794 0.0
C911 C 0.93584 0.23559 0.29887 0.0
C912 C 0.90022 0.24396 0.29854 0.0
C913 C 0.87558 0.23874 0.31703 0.0
C914 C 0.96397 0.2454 0.27947 0.0
C915 C 0.94312 0.22781 0.25967 0.0
C916 C 0.01043 0.27541 0.28004 0.0
C917 C 0.03387 0.29862 0.29996 0.0
C918 C 0.02235 0.32726 0.31057 0.0
C919 C 0.04502 0.34966 0.32918 0.0
C920 C 0.07942 0.34384 0.33726 0.0
C921 C 0.09133 0.31574 0.32669 0.0
C922 C 0.0688 0.29331 0.30805 0.0
C923 C 0.08707 0.35606 0.20008 0.0
C924 C 0.08855 0.32938 0.18345 0.0
C925 C 0.06305 0.33688 0.2187 0.0
C926 C 0.03984 0.29057 0.22121 0.0
C927 C 0.04128 0.26359 0.20476 0.0
C928 C 0.06547 0.28287 0.18597 0.0
C929 C 0.01349 0.27134 0.241 0.0
C930 C 0.03474 0.28698 0.26088 0.0
C931 C 0.96707 0.24133 0.2404 0.0
C932 C 0.94198 0.22692 0.21996 0.0
C933 C 0.91788 0.18156 0.21455 0.0
C934 C 0.89366 0.16795 0.19539 0.0
C935 C 0.89303 0.19942 0.18162 0.0
C936 C 0.91656 0.24456 0.18699 0.0
C937 C 0.94087 0.25834 0.20611 0.0
H938 H 0.8742 0.1888 0.16682 0.0
H939 H 0.09695 0.36123 0.35166 0.0
H940 H 0.75502 0.87095 0.66422 0.0
H941 H 0.77281 0.90934 0.62976 0.0
H942 H 0.76117 0.01656 0.65813 0.0
H943 H 0.74341 0.97829 0.6928 0.0
H944 H 0.72109 0.99445 0.61951 0.0
H945 H 0.86321 0.02921 0.64747 0.0
H946 H 0.91919 0.01374 0.66346 0.0
H947 H 0.91049 0.93468 0.60866 0.0
H948 H 0.85395 0.94916 0.59246 0.0
H949 H 0.82376 0.13899 0.52939 0.0
H950 H 0.80665 0.10748 0.56556 0.0
H951 H 0.81179 0.99251 0.54305 0.0
H952 H 0.82812 0.02328 0.50686 0.0
H953 H 0.85751 0.024 0.58002 0.0
H954 H 0.71387 0.98929 0.55243 0.0
H955 H 0.65846 0.00597 0.53679 0.0
H956 H 0.67032 0.08646 0.59149 0.0
H957 H 0.72678 0.07129 0.60722 0.0
C958 C 0.75673 0.90294 0.66324 0.0
C959 C 0.74817 0.92169 0.68136 0.0
C960 C 0.7668 0.92482 0.64348 0.0
C961 C 0.76895 0.96618 0.64139 0.0
C962 C 0.75975 0.98472 0.65935 0.0
C963 C 0.74954 0.96275 0.67915 0.0
C964 C 0.78083 0.98984 0.62043 0.0
C965 C 0.75128 0.0016 0.61102 0.0
C966 C 0.81991 -0.00138 0.60919 0.0
C967 C 0.85405 0.98997 0.61883 0.0
C968 C 0.87298 0.00825 0.6389 0.0
C969 C 0.90486 -0.00029 0.64799 0.0
C970 C 0.91831 0.97316 0.63711 0.0
C971 C 0.9 0.9552 0.61708 0.0
C972 C 0.86807 0.9636 0.60792 0.0
C973 C 0.82085 0.1068 0.53207 0.0
C974 C 0.82744 0.08376 0.51514 0.0
C975 C 0.81115 0.08888 0.55279 0.0
C976 C 0.80767 0.04748 0.55701 0.0
C977 C 0.81449 0.02458 0.5402 0.0
C978 C 0.82407 0.04238 0.51951 0.0
C979 C 0.79745 0.02799 0.57893 0.0
C980 C 0.82743 0.01712 0.58855 0.0
C981 C 0.7589 0.02031 0.59037 0.0
C982 C 0.72505 0.02962 0.58087 0.0
C983 C 0.70511 0.011 0.56101 0.0
C984 C 0.67348 0.02017 0.55214 0.0
C985 C 0.66107 0.04747 0.56309 0.0
C986 C 0.68013 0.0655 0.58298 0.0
C987 C 0.71201 0.05669 0.59187 0.0
H988 H 0.63656 0.05452 0.5562 0.0
H989 H 0.943 0.96659 0.64418 0.0
H990 H 0.70731 0.76933 0.83954 0.0
H991 H 0.73543 0.75124 0.87184 0.0
H992 H 0.62766 0.74653 0.90864 0.0
H993 H 0.60044 0.76596 0.87684 0.0
H994 H 0.69792 0.78296 0.932 0.0
H995 H 0.62588 0.65039 0.8887 0.0
H996 H 0.61254 0.60496 0.85611 0.0
H997 H 0.74682 0.62933 0.8587 0.0
H998 H 0.76107 0.67526 0.8912 0.0
H999 H 0.68711 0.58752 0.99773 0.0
H1000 H 0.67355 0.61784 0.96527 0.0
H1001 H 0.78608 0.74679 0.97995 0.0
H1002 H 0.79943 0.71678 0.01292 0.0
H1003 H 0.71901 0.65166 0.9304 0.0
H1004 H 0.76555 0.82752 0.96069 0.0
H1005 H 0.76636 0.86511 0.99448 0.0
H1006 H 0.66265 0.74146 0.01988 0.0
H1007 H 0.66084 0.70331 0.98618 0.0
C1008 C 0.68991 0.76489 0.85457 0.0
C1009 C 0.65155 0.76901 0.85553 0.0
C1010 C 0.70589 0.75432 0.87302 0.0
C1011 C 0.68334 0.74686 0.89269 0.0
C1012 C 0.64581 0.75221 0.89374 0.0
C1013 C 0.63019 0.76327 0.87544 0.0
C1014 C 0.69744 0.73187 0.91208 0.0
C1015 C 0.70288 0.75445 0.93158 0.0
C1016 C 0.70314 0.69417 0.91176 0.0
C1017 C 0.69468 0.66665 0.89222 0.0
C1018 C 0.65265 0.6463 0.88222 0.0
C1019 C 0.6449 0.62042 0.86379 0.0
C1020 C 0.67885 0.61438 0.8553 0.0
C1021 C 0.72058 0.6341 0.86527 0.0
C1022 C 0.7285 0.66003 0.8837 0.0
C1023 C 0.70901 0.62242 0.99419 0.0
C1024 C 0.74426 0.64976 0.00809 0.0
C1025 C 0.7013 0.63966 0.97548 0.0
C1026 C 0.7286 0.68467 0.97014 0.0
C1027 C 0.76416 0.71207 0.98384 0.0
C1028 C 0.77181 0.69484 0.00268 0.0
C1029 C 0.71917 0.70256 0.95032 0.0
C1030 C 0.71472 0.68058 0.93075 0.0
C1031 C 0.7128 0.73984 0.95072 0.0
C1032 C 0.71352 0.7625 0.97102 0.0
C1033 C 0.7429 0.8084 0.97349 0.0
C1034 C 0.74352 0.82979 0.99262 0.0
C1035 C 0.71471 0.80565 0.00935 0.0
C1036 C 0.6851 0.76009 0.00696 0.0
C1037 C 0.68431 0.73856 0.98786 0.0
H1038 H 0.71525 0.82227 0.02414 0.0
H1039 H 0.6728 0.59434 0.84103 0.0
H1040 H 0.0211 0.84499 0.35533 0.0
H1041 H 0.98857 0.82891 0.31931 0.0
H1042 H 0.0754 0.77881 0.30087 0.0
H1043 H 0.10871 0.79562 0.33672 0.0
H1044 H 0.07288 0.83361 0.27041 0.0
H1045 H 0.96678 0.70762 0.31097 0.0
H1046 H 0.9151 0.66916 0.34086 0.0
H1047 H 0.83706 0.72899 0.3231 0.0
H1048 H 0.88865 0.76832 0.29327 0.0
H1049 H 0.96349 0.7339 0.17218 0.0
H1050 H -0.00383 0.74713 0.20807 0.0
H1051 H 0.90511 0.78976 0.22973 0.0
H1052 H 0.87112 0.77492 0.19414 0.0
H1053 H 0.91032 0.73728 0.2586 0.0
H1054 H 0.01683 0.86472 0.21869 0.0
H1055 H 0.06864 0.90409 0.18896 0.0
H1056 H 0.14597 0.84285 0.2056 0.0
H1057 H 0.09426 0.80264 0.23527 0.0
C1058 C 0.03342 0.83073 0.34359 0.0
C1059 C 0.06743 0.82148 0.34895 0.0
C1060 C 0.01454 0.82122 0.32304 0.0
C1061 C 0.02924 0.80225 0.30741 0.0
C1062 C 0.06341 0.79329 0.31267 0.0
C1063 C 0.08215 0.80259 0.33323 0.0
C1064 C 0.00938 0.79228 0.28552 0.0
C1065 C 0.03741 0.81205 0.2678 0.0
C1066 C 0.96297 0.76494 0.28212 0.0
C1067 C 0.93183 0.74125 0.30001 0.0
C1068 C 0.9388 0.71286 0.31354 0.0
C1069 C 0.90948 0.69085 0.33046 0.0
C1070 C 0.87288 0.69672 0.33391 0.0
C1071 C 0.86546 0.72453 0.32042 0.0
C1072 C 0.8947 0.74665 0.3035 0.0
C1073 C 0.95025 0.7459 0.18459 0.0
C1074 C 0.91481 0.75361 0.18018 0.0
C1075 C 0.96929 0.75388 0.20509 0.0
C1076 C 0.95357 0.77006 0.2216 0.0
C1077 C 0.91799 0.77745 0.21727 0.0
C1078 C 0.89889 0.7694 0.19682 0.0
C1079 C 0.97377 0.77888 0.24344 0.0
C1080 C 0.9458 0.75884 0.26118 0.0
C1081 C 0.02023 0.80611 0.24686 0.0
C1082 C 0.05142 0.83033 0.22906 0.0
C1083 C 0.04469 0.85938 0.21591 0.0
C1084 C 0.07407 0.8819 0.19909 0.0
C1085 C 0.11051 0.87588 0.19536 0.0
C1086 C 0.1177 0.84743 0.20848 0.0
C1087 C 0.08839 0.8248 0.22532 0.0
H1088 H 0.13322 0.89335 0.18233 0.0
H1089 H 0.85022 0.67964 0.34701 0.0
H1090 H 0.28155 0.07086 0.68112 0.0
H1091 H 0.25368 0.02364 0.64913 0.0
H1092 H 0.38157 0.10238 0.6186 0.0
H1093 H 0.40847 0.15082 0.64988 0.0
H1094 H 0.32519 0.0837 0.58999 0.0
H1095 H 0.34306 0.99355 0.64247 0.0
H1096 H 0.33318 0.95556 0.67716 0.0
H1097 H 0.19183 0.88003 0.66665 0.0
H1098 H 0.20086 0.91788 0.63196 0.0
H1099 H 0.31408 0.90917 0.52129 0.0
H1100 H 0.32979 0.95686 0.55281 0.0
H1101 H 0.19331 0.92732 0.55377 0.0
H1102 H 0.1774 0.88027 0.52171 0.0
H1103 H 0.24806 0.91931 0.59652 0.0
H1104 H 0.23985 0.01455 0.54031 0.0
H1105 H 0.26098 0.05067 0.50485 0.0
H1106 H 0.39918 0.11527 0.52265 0.0
H1107 H 0.37885 0.07893 0.55811 0.0
C1108 C 0.30353 0.07824 0.66749 0.0
C1109 C 0.34718 0.11471 0.66807 0.0
C1110 C 0.28771 0.05096 0.64923 0.0
C1111 C 0.31564 0.05868 0.6314 0.0
C1112 C 0.35908 0.09551 0.63196 0.0
C1113 C 0.37451 0.12329 0.64996 0.0
C1114 C 0.30011 0.02866 0.61218 0.0
C1115 C 0.30846 0.0478 0.59159 0.0
C1116 C 0.27818 0.98157 0.61389 0.0
C1117 C 0.27257 0.95892 0.63476 0.0
C1118 C 0.30984 0.96908 0.64764 0.0
C1119 C 0.30441 0.94752 0.66728 0.0
C1120 C 0.26189 0.91552 0.67414 0.0
C1121 C 0.22473 0.9049 0.66133 0.0
C1122 C 0.22999 0.92635 0.64168 0.0
C1123 C 0.28731 0.91278 0.52814 0.0
C1124 C 0.24444 0.89091 0.51894 0.0
C1125 C 0.29642 0.94008 0.54616 0.0
C1126 C 0.26274 0.94557 0.5556 0.0
C1127 C 0.21975 0.92349 0.54667 0.0
C1128 C 0.21078 0.8968 0.52833 0.0
C1129 C 0.27299 0.97461 0.57475 0.0
C1130 C 0.26407 0.95524 0.59519 0.0
C1131 C 0.29572 0.02145 0.57294 0.0
C1132 C 0.30784 0.04366 0.55175 0.0
C1133 C 0.27475 0.0361 0.53658 0.0
C1134 C 0.28658 0.05669 0.5165 0.0
C1135 C 0.3314 0.08515 0.51147 0.0
C1136 C 0.36448 0.09318 0.52655 0.0
C1137 C 0.35282 0.07263 0.54664 0.0
H1138 H 0.3405 0.10105 0.49592 0.0
H1139 H 0.25774 0.89887 0.68934 0.0
loop_
_geom_bond_atom_site_label_1
_geom_bond_atom_site_label_2
_geom_bond_distance
_geom_bond_site_symmetry_2
_ccdc_geom_bond_type
Dy0 O3 2.307 . S
Dy0 O5 2.395 . S
Dy0 O6 2.379 . S
Dy0 O8 2.339 . S
Dy0 O10 2.298 . S
Dy0 O14 2.275 . S
Dy0 C22 2.738 . S
Dy1 O4 2.298 . S
Dy1 O7 2.275 . S
Dy1 O9 2.307 . S
Dy1 O11 2.395 . S
Dy1 O12 2.379 . S
Dy1 O15 2.339 . S
Dy1 C31 2.738 . S
C2 O14 1.254 . S
C2 O15 1.257 . S
O3 Dy0 2.307 . S
O3 C13 1.266 . S
O4 Dy1 2.298 . S
O4 C13 1.236 . S
O5 Dy0 2.395 . S
O5 C22 1.255 . S
O6 Dy0 2.379 . S
O6 C22 1.249 . S
O7 Dy1 2.275 . S
O7 C23 1.254 . S
O8 Dy0 2.339 . S
O8 C23 1.257 . S
O9 Dy1 2.307 . S
O9 C24 1.266 . S
O10 Dy0 2.298 . S
O10 C24 1.236 . S
O11 Dy1 2.395 . S
O11 C31 1.255 . S
O12 Dy1 2.379 . S
O12 C31 1.249 . S
C13 O3 1.266 . S
C13 O4 1.236 . S
O14 Dy0 2.275 . S
O14 C2 1.254 . S
O15 Dy1 2.339 . S
O15 C2 1.257 . S
C16 C19 1.344 . S
C16 C20 1.328 . S
C16 C22 1.516 . S
C17 C18 1.304 . S
C17 C21 1.323 . S
C18 C17 1.304 . S
C18 C19 1.371 . S
C18 H32 0.930 . S
C19 C16 1.344 . S
C19 C18 1.371 . S
C19 H33 0.931 . S
C20 C16 1.328 . S
C20 C21 1.433 . S
C20 H34 0.931 . S
C21 C17 1.323 . S
C21 C20 1.433 . S
C21 H35 0.933 . S
C22 Dy0 2.738 . S
C22 O5 1.255 . S
C22 O6 1.249 . S
C22 C16 1.516 . S
C23 O7 1.254 . S
C23 O8 1.257 . S
C24 O9 1.266 . S
C24 O10 1.236 . S
C25 C28 1.344 . S
C25 C29 1.328 . S
C25 C31 1.516 . S
C26 C27 1.304 . S
C26 C30 1.323 . S
C27 C26 1.304 . S
C27 C28 1.371 . S
C27 H36 0.930 . S
C28 C25 1.344 . S
C28 C27 1.371 . S
C28 H37 0.931 . S
C29 C25 1.328 . S
C29 C30 1.433 . S
C29 H38 0.931 . S
C30 C26 1.323 . S
C30 C29 1.433 . S
C30 H39 0.933 . S
C31 Dy1 2.738 . S
C31 O11 1.255 . S
C31 O12 1.249 . S
C31 C25 1.516 . S
H32 C18 0.930 . S
H33 C19 0.931 . S
H34 C20 0.931 . S
H35 C21 0.933 . S
H36 C27 0.930 . S
H37 C28 0.931 . S
H38 C29 0.931 . S
H39 C30 0.933 . S
Dy40 O43 2.307 . S
Dy40 O45 2.395 . S
Dy40 O46 2.379 . S
Dy40 O48 2.339 . S
Dy40 O50 2.298 . S
Dy40 O54 2.275 . S
Dy40 C62 2.738 . S
Dy41 O44 2.298 . S
Dy41 O47 2.275 . S
Dy41 O49 2.307 . S
Dy41 O51 2.395 . S
Dy41 O52 2.379 . S
Dy41 O55 2.339 . S
Dy41 C71 2.738 . S
C42 O54 1.254 . S
C42 O55 1.257 . S
O43 Dy40 2.307 . S
O43 C53 1.266 . S
O44 Dy41 2.298 . S
O44 C53 1.236 . S
O45 Dy40 2.395 . S
O45 C62 1.255 . S
O46 Dy40 2.379 . S
O46 C62 1.249 . S
O47 Dy41 2.275 . S
O47 C63 1.254 . S
O48 Dy40 2.339 . S
O48 C63 1.257 . S
O49 Dy41 2.307 . S
O49 C64 1.266 . S
O50 Dy40 2.298 . S
O50 C64 1.236 . S
O51 Dy41 2.395 . S
O51 C71 1.255 . S
O52 Dy41 2.379 . S
O52 C71 1.249 . S
C53 O43 1.266 . S
C53 O44 1.236 . S
O54 Dy40 2.275 . S
O54 C42 1.254 . S
O55 Dy41 2.339 . S
O55 C42 1.257 . S
C56 C59 1.344 . S
C56 C60 1.328 . S
C56 C62 1.516 . S
C57 C58 1.304 . S
C57 C61 1.323 . S
C58 C57 1.304 . S
C58 C59 1.371 . S
C58 H72 0.930 . S
C59 C56 1.344 . S
C59 C58 1.371 . S
C59 H73 0.931 . S
C60 C56 1.328 . S
C60 C61 1.433 . S
C60 H74 0.931 . S
C61 C57 1.323 . S
C61 C60 1.433 . S
C61 H75 0.933 . S
C62 Dy40 2.738 . S
C62 O45 1.255 . S
C62 O46 1.249 . S
C62 C56 1.516 . S
C63 O47 1.254 . S
C63 O48 1.257 . S
C64 O49 1.266 . S
C64 O50 1.236 . S
C65 C68 1.344 . S
C65 C69 1.328 . S
C65 C71 1.516 . S
C66 C67 1.304 . S
C66 C70 1.323 . S
C67 C66 1.304 . S
C67 C68 1.371 . S
C67 H76 0.930 . S
C68 C65 1.344 . S
C68 C67 1.371 . S
C68 H77 0.931 . S
C69 C65 1.328 . S
C69 C70 1.433 . S
C69 H78 0.931 . S
C70 C66 1.323 . S
C70 C69 1.433 . S
C70 H79 0.933 . S
C71 Dy41 2.738 . S
C71 O51 1.255 . S
C71 O52 1.249 . S
C71 C65 1.516 . S
H72 C58 0.930 . S
H73 C59 0.931 . S
H74 C60 0.931 . S
H75 C61 0.933 . S
H76 C67 0.930 . S
H77 C68 0.931 . S
H78 C69 0.931 . S
H79 C70 0.933 . S
Dy80 O83 2.307 . S
Dy80 O85 2.395 . S
Dy80 O86 2.379 . S
Dy80 O88 2.339 . S
Dy80 O90 2.298 . S
Dy80 O94 2.275 . S
Dy80 C102 2.738 . S
Dy81 O84 2.298 . S
Dy81 O87 2.275 . S
Dy81 O89 2.307 . S
Dy81 O91 2.395 . S
Dy81 O92 2.379 . S
Dy81 O95 2.339 . S
Dy81 C111 2.738 . S
C82 O94 1.254 . S
C82 O95 1.257 . S
O83 Dy80 2.307 . S
O83 C93 1.266 . S
O84 Dy81 2.298 . S
O84 C93 1.236 . S
O85 Dy80 2.395 . S
O85 C102 1.255 . S
O86 Dy80 2.379 . S
O86 C102 1.249 . S
O87 Dy81 2.275 . S
O87 C103 1.254 . S
O88 Dy80 2.339 . S
O88 C103 1.257 . S
O89 Dy81 2.307 . S
O89 C104 1.266 . S
O90 Dy80 2.298 . S
O90 C104 1.236 . S
O91 Dy81 2.395 . S
O91 C111 1.255 . S
O92 Dy81 2.379 . S
O92 C111 1.249 . S
C93 O83 1.266 . S
C93 O84 1.236 . S
O94 Dy80 2.275 . S
O94 C82 1.254 . S
O95 Dy81 2.339 . S
O95 C82 1.257 . S
C96 C99 1.344 . S
C96 C100 1.328 . S
C96 C102 1.516 . S
C97 C98 1.304 . S
C97 C101 1.323 . S
C98 C97 1.304 . S
C98 C99 1.371 . S
C98 H112 0.930 . S
C99 C96 1.344 . S
C99 C98 1.371 . S
C99 H113 0.931 . S
C100 C96 1.328 . S
C100 C101 1.433 . S
C100 H114 0.931 . S
C101 C97 1.323 . S
C101 C100 1.433 . S
C101 H115 0.933 . S
C102 Dy80 2.738 . S
C102 O85 1.255 . S
C102 O86 1.249 . S
C102 C96 1.516 . S
C103 O87 1.254 . S
C103 O88 1.257 . S
C104 O89 1.266 . S
C104 O90 1.236 . S
C105 C108 1.344 . S
C105 C109 1.328 . S
C105 C111 1.516 . S
C106 C107 1.304 . S
C106 C110 1.323 . S
C107 C106 1.304 . S
C107 C108 1.371 . S
C107 H116 0.930 . S
C108 C105 1.344 . S
C108 C107 1.371 . S
C108 H117 0.931 . S
C109 C105 1.328 . S
C109 C110 1.433 . S
C109 H118 0.931 . S
C110 C106 1.323 . S
C110 C109 1.433 . S
C110 H119 0.933 . S
C111 Dy81 2.738 . S
C111 O91 1.255 . S
C111 O92 1.249 . S
C111 C105 1.516 . S
H112 C98 0.930 . S
H113 C99 0.931 . S
H114 C100 0.931 . S
H115 C101 0.933 . S
H116 C107 0.930 . S
H117 C108 0.931 . S
H118 C109 0.931 . S
H119 C110 0.933 . S
Dy120 O123 2.307 . S
Dy120 O125 2.395 . S
Dy120 O126 2.379 . S
Dy120 O128 2.339 . S
Dy120 O130 2.298 . S
Dy120 O134 2.275 . S
Dy120 C142 2.738 . S
Dy121 O124 2.298 . S
Dy121 O127 2.275 . S
Dy121 O129 2.307 . S
Dy121 O131 2.395 . S
Dy121 O132 2.379 . S
Dy121 O135 2.339 . S
Dy121 C151 2.738 . S
C122 O134 1.254 . S
C122 O135 1.257 . S
O123 Dy120 2.307 . S
O123 C133 1.266 . S
O124 Dy121 2.298 . S
O124 C133 1.236 . S
O125 Dy120 2.395 . S
O125 C142 1.255 . S
O126 Dy120 2.379 . S
O126 C142 1.249 . S
O127 Dy121 2.275 . S
O127 C143 1.254 . S
O128 Dy120 2.339 . S
O128 C143 1.257 . S
O129 Dy121 2.307 . S
O129 C144 1.266 . S
O130 Dy120 2.298 . S
O130 C144 1.236 . S
O131 Dy121 2.395 . S
O131 C151 1.255 . S
O132 Dy121 2.379 . S
O132 C151 1.249 . S
C133 O123 1.266 . S
C133 O124 1.236 . S
O134 Dy120 2.275 . S
O134 C122 1.254 . S
O135 Dy121 2.339 . S
O135 C122 1.257 . S
C136 C139 1.344 . S
C136 C140 1.328 . S
C136 C142 1.516 . S
C137 C138 1.304 . S
C137 C141 1.323 . S
C138 C137 1.304 . S
C138 C139 1.371 . S
C138 H152 0.930 . S
C139 C136 1.344 . S
C139 C138 1.371 . S
C139 H153 0.931 . S
C140 C136 1.328 . S
C140 C141 1.433 . S
C140 H154 0.931 . S
C141 C137 1.323 . S
C141 C140 1.433 . S
C141 H155 0.933 . S
C142 Dy120 2.738 . S
C142 O125 1.255 . S
C142 O126 1.249 . S
C142 C136 1.516 . S
C143 O127 1.254 . S
C143 O128 1.257 . S
C144 O129 1.266 . S
C144 O130 1.236 . S
C145 C148 1.344 . S
C145 C149 1.328 . S
C145 C151 1.516 1_556 S
C146 C147 1.304 . S
C146 C150 1.323 . S
C147 C146 1.304 . S
C147 C148 1.371 . S
C147 H156 0.930 . S
C148 C145 1.344 . S
C148 C147 1.371 . S
C148 H157 0.931 . S
C149 C145 1.328 . S
C149 C150 1.433 . S
C149 H158 0.931 . S
C150 C146 1.323 . S
C150 C149 1.433 . S
C150 H159 0.933 . S
C151 Dy121 2.738 . S
C151 O131 1.255 . S
C151 O132 1.249 . S
C151 C145 1.516 1_554 S
H152 C138 0.930 . S
H153 C139 0.931 . S
H154 C140 0.931 . S
H155 C141 0.933 . S
H156 C147 0.930 . S
H157 C148 0.931 . S
H158 C149 0.931 . S
H159 C150 0.933 . S
Dy160 O163 2.307 . S
Dy160 O165 2.395 . S
Dy160 O166 2.379 . S
Dy160 O168 2.339 . S
Dy160 O170 2.298 . S
Dy160 O174 2.275 . S
Dy160 C182 2.738 . S
Dy161 O164 2.298 . S
Dy161 O167 2.275 . S
Dy161 O169 2.307 . S
Dy161 O171 2.395 . S
Dy161 O172 2.379 . S
Dy161 O175 2.339 . S
Dy161 C191 2.738 . S
C162 O174 1.254 . S
C162 O175 1.257 . S
O163 Dy160 2.307 . S
O163 C173 1.266 . S
O164 Dy161 2.298 . S
O164 C173 1.236 . S
O165 Dy160 2.395 . S
O165 C182 1.255 . S
O166 Dy160 2.379 . S
O166 C182 1.249 . S
O167 Dy161 2.275 . S
O167 C183 1.254 . S
O168 Dy160 2.339 . S
O168 C183 1.257 . S
O169 Dy161 2.307 . S
O169 C184 1.266 . S
O170 Dy160 2.298 . S
O170 C184 1.236 . S
O171 Dy161 2.395 . S
O171 C191 1.255 . S
O172 Dy161 2.379 . S
O172 C191 1.249 . S
C173 O163 1.266 . S
C173 O164 1.236 . S
O174 Dy160 2.275 . S
O174 C162 1.254 . S
O175 Dy161 2.339 . S
O175 C162 1.257 . S
C176 C179 1.344 . S
C176 C180 1.328 . S
C176 C182 1.516 . S
C177 C178 1.304 . S
C177 C181 1.323 . S
C178 C177 1.304 . S
C178 C179 1.371 . S
C178 H192 0.930 . S
C179 C176 1.344 . S
C179 C178 1.371 . S
C179 H193 0.931 . S
C180 C176 1.328 . S
C180 C181 1.433 . S
C180 H194 0.931 . S
C181 C177 1.323 . S
C181 C180 1.433 . S
C181 H195 0.933 . S
C182 Dy160 2.738 . S
C182 O165 1.255 . S
C182 O166 1.249 . S
C182 C176 1.516 . S
C183 O167 1.254 . S
C183 O168 1.257 . S
C184 O169 1.266 . S
C184 O170 1.236 . S
C185 C188 1.344 . S
C185 C189 1.328 . S
C185 C191 1.516 . S
C186 C187 1.304 . S
C186 C190 1.323 . S
C187 C186 1.304 . S
C187 C188 1.371 . S
C187 H196 0.930 . S
C188 C185 1.344 . S
C188 C187 1.371 . S
C188 H197 0.931 . S
C189 C185 1.328 . S
C189 C190 1.433 . S
C189 H198 0.931 . S
C190 C186 1.323 . S
C190 C189 1.433 . S
C190 H199 0.933 . S
C191 Dy161 2.738 . S
C191 O171 1.255 . S
C191 O172 1.249 . S
C191 C185 1.516 . S
H192 C178 0.930 . S
H193 C179 0.931 . S
H194 C180 0.931 . S
H195 C181 0.933 . S
H196 C187 0.930 . S
H197 C188 0.931 . S
H198 C189 0.931 . S
H199 C190 0.933 . S
Dy200 O203 2.307 . S
Dy200 O205 2.395 . S
Dy200 O206 2.379 . S
Dy200 O208 2.339 . S
Dy200 O210 2.298 . S
Dy200 O214 2.275 . S
Dy200 C222 2.738 . S
Dy201 O204 2.298 . S
Dy201 O207 2.275 . S
Dy201 O209 2.307 . S
Dy201 O211 2.395 . S
Dy201 O212 2.379 . S
Dy201 O215 2.339 . S
Dy201 C231 2.738 . S
C202 O214 1.254 . S
C202 O215 1.257 . S
O203 Dy200 2.307 . S
O203 C213 1.266 . S
O204 Dy201 2.298 . S
O204 C213 1.236 . S
O205 Dy200 2.395 . S
O205 C222 1.255 . S
O206 Dy200 2.379 . S
O206 C222 1.249 . S
O207 Dy201 2.275 . S
O207 C223 1.254 . S
O208 Dy200 2.339 . S
O208 C223 1.257 . S
O209 Dy201 2.307 . S
O209 C224 1.266 . S
O210 Dy200 2.298 . S
O210 C224 1.236 . S
O211 Dy201 2.395 . S
O211 C231 1.255 . S
O212 Dy201 2.379 . S
O212 C231 1.249 . S
C213 O203 1.266 . S
C213 O204 1.236 . S
O214 Dy200 2.275 . S
O214 C202 1.254 . S
O215 Dy201 2.339 . S
O215 C202 1.257 . S
C216 C219 1.344 . S
C216 C220 1.328 . S
C216 C222 1.516 . S
C217 C218 1.304 . S
C217 C221 1.323 . S
C218 C217 1.304 . S
C218 C219 1.371 . S
C218 H232 0.930 . S
C219 C216 1.344 . S
C219 C218 1.371 . S
C219 H233 0.931 . S
C220 C216 1.328 . S
C220 C221 1.433 . S
C220 H234 0.931 . S
C221 C217 1.323 . S
C221 C220 1.433 . S
C221 H235 0.933 . S
C222 Dy200 2.738 . S
C222 O205 1.255 . S
C222 O206 1.249 . S
C222 C216 1.516 . S
C223 O207 1.254 . S
C223 O208 1.257 . S
C224 O209 1.266 . S
C224 O210 1.236 . S
C225 C228 1.344 . S
C225 C229 1.328 . S
C225 C231 1.516 . S
C226 C227 1.304 . S
C226 C230 1.323 . S
C227 C226 1.304 . S
C227 C228 1.371 . S
C227 H236 0.930 . S
C228 C225 1.344 . S
C228 C227 1.371 . S
C228 H237 0.931 . S
C229 C225 1.328 . S
C229 C230 1.433 . S
C229 H238 0.931 . S
C230 C226 1.323 . S
C230 C229 1.433 . S
C230 H239 0.933 . S
C231 Dy201 2.738 . S
C231 O211 1.255 . S
C231 O212 1.249 . S
C231 C225 1.516 . S
H232 C218 0.930 . S
H233 C219 0.931 . S
H234 C220 0.931 . S
H235 C221 0.933 . S
H236 C227 0.930 . S
H237 C228 0.931 . S
H238 C229 0.931 . S
H239 C230 0.933 . S
H240 C258 0.951 . S
H241 C260 0.951 . S
H242 C262 0.950 . S
H243 C263 0.950 . S
H244 C265 0.950 . S
H245 C268 0.950 . S
H246 C269 0.950 . S
H247 C271 0.950 . S
H248 C272 0.950 . S
H249 C273 0.951 . S
H250 C275 0.951 . S
H251 C277 0.950 . S
H252 C278 0.950 . S
H253 C280 0.950 . S
H254 C283 0.950 . S
H255 C284 0.950 . S
H256 C286 0.950 . S
H257 C287 0.950 . S
C258 H240 0.951 . S
C258 C259 1.366 . S
C258 C260 1.388 . S
C259 C258 1.366 . S
C259 C263 1.385 . S
C260 H241 0.951 . S
C260 C258 1.388 . S
C260 C261 1.366 . S
C261 C260 1.366 . S
C261 C262 1.414 . S
C261 C264 1.499 . S
C262 H242 0.950 . S
C262 C261 1.414 . S
C262 C263 1.374 . S
C263 H243 0.950 . S
C263 C259 1.385 . S
C263 C262 1.374 . S
C264 C261 1.499 . S
C264 C265 1.373 . S
C264 C266 1.389 . S
C265 H244 0.950 . S
C265 C264 1.373 . S
C265 C281 1.377 . S
C266 C264 1.389 . S
C266 C267 1.524 . S
C266 C280 1.377 . S
C267 C266 1.524 . S
C267 C268 1.397 . S
C267 C272 1.363 . S
C268 H245 0.950 . S
C268 C267 1.397 . S
C268 C269 1.334 . S
C269 H246 0.950 . S
C269 C268 1.334 . S
C269 C270 1.287 . S
C270 C269 1.287 . S
C270 C271 1.524 . S
C270 H289 0.913 . S
C271 H247 0.950 . S
C271 C270 1.524 . S
C271 C272 1.415 . S
C272 H248 0.950 . S
C272 C267 1.363 . S
C272 C271 1.415 . S
C273 H249 0.951 . S
C273 C274 1.366 . S
C273 C275 1.388 . S
C274 C273 1.366 . S
C274 C278 1.385 . S
C275 H250 0.951 . S
C275 C273 1.388 . S
C275 C276 1.366 . S
C276 C275 1.366 . S
C276 C277 1.414 . S
C276 C279 1.499 . S
C277 H251 0.950 . S
C277 C276 1.414 . S
C277 C278 1.374 . S
C278 H252 0.950 . S
C278 C274 1.385 . S
C278 C277 1.374 . S
C279 C276 1.499 . S
C279 C280 1.373 . S
C279 C281 1.389 . S
C280 H253 0.950 . S
C280 C266 1.377 . S
C280 C279 1.373 . S
C281 C265 1.377 . S
C281 C279 1.389 . S
C281 C282 1.524 . S
C282 C281 1.524 . S
C282 C283 1.397 . S
C282 C287 1.363 . S
C283 H254 0.950 . S
C283 C282 1.397 . S
C283 C284 1.334 . S
C284 H255 0.950 . S
C284 C283 1.334 . S
C284 C285 1.287 . S
C285 C284 1.287 . S
C285 C286 1.524 . S
C285 H288 0.999 . S
C286 H256 0.950 . S
C286 C285 1.524 . S
C286 C287 1.415 . S
C287 H257 0.950 . S
C287 C282 1.363 . S
C287 C286 1.415 . S
H288 C285 0.999 . S
H289 C270 0.913 . S
H290 C308 0.951 . S
H291 C310 0.951 . S
H292 C312 0.950 . S
H293 C313 0.950 . S
H294 C315 0.950 . S
H295 C318 0.950 . S
H296 C319 0.950 . S
H297 C321 0.950 . S
H298 C322 0.950 . S
H299 C323 0.951 . S
H300 C325 0.951 . S
H301 C327 0.950 . S
H302 C328 0.950 . S
H303 C330 0.950 . S
H304 C333 0.950 . S
H305 C334 0.950 . S
H306 C336 0.950 . S
H307 C337 0.950 . S
C308 H290 0.951 . S
C308 C309 1.366 . S
C308 C310 1.388 . S
C309 C308 1.366 . S
C309 C313 1.385 . S
C310 H291 0.951 . S
C310 C308 1.388 . S
C310 C311 1.366 . S
C311 C310 1.366 . S
C311 C312 1.414 . S
C311 C314 1.499 . S
C312 H292 0.950 . S
C312 C311 1.414 . S
C312 C313 1.374 . S
C313 H293 0.950 . S
C313 C309 1.385 . S
C313 C312 1.374 . S
C314 C311 1.499 . S
C314 C315 1.373 . S
C314 C316 1.389 . S
C315 H294 0.950 . S
C315 C314 1.373 . S
C315 C331 1.377 . S
C316 C314 1.389 . S
C316 C317 1.524 . S
C316 C330 1.377 . S
C317 C316 1.524 . S
C317 C318 1.397 . S
C317 C322 1.363 . S
C318 H295 0.950 . S
C318 C317 1.397 . S
C318 C319 1.334 . S
C319 H296 0.950 . S
C319 C318 1.334 . S
C319 C320 1.287 . S
C320 C319 1.287 . S
C320 C321 1.524 . S
C320 H339 0.913 . S
C321 H297 0.950 . S
C321 C320 1.524 . S
C321 C322 1.415 . S
C322 H298 0.950 . S
C322 C317 1.363 . S
C322 C321 1.415 . S
C323 H299 0.951 . S
C323 C324 1.366 . S
C323 C325 1.388 . S
C324 C323 1.366 . S
C324 C328 1.385 . S
C325 H300 0.951 . S
C325 C323 1.388 . S
C325 C326 1.366 . S
C326 C325 1.366 . S
C326 C327 1.414 . S
C326 C329 1.499 . S
C327 H301 0.950 . S
C327 C326 1.414 . S
C327 C328 1.374 . S
C328 H302 0.950 . S
C328 C324 1.385 . S
C328 C327 1.374 . S
C329 C326 1.499 . S
C329 C330 1.373 . S
C329 C331 1.389 . S
C330 H303 0.950 . S
C330 C316 1.377 . S
C330 C329 1.373 . S
C331 C315 1.377 . S
C331 C329 1.389 . S
C331 C332 1.524 . S
C332 C331 1.524 . S
C332 C333 1.397 . S
C332 C337 1.363 . S
C333 H304 0.950 . S
C333 C332 1.397 . S
C333 C334 1.334 . S
C334 H305 0.950 . S
C334 C333 1.334 . S
C334 C335 1.287 . S
C335 C334 1.287 . S
C335 C336 1.524 . S
C335 H338 0.999 . S
C336 H306 0.950 . S
C336 C335 1.524 . S
C336 C337 1.415 . S
C337 H307 0.950 . S
C337 C332 1.363 . S
C337 C336 1.415 . S
H338 C335 0.999 . S
H339 C320 0.913 . S
H340 C358 0.951 . S
H341 C360 0.951 . S
H342 C362 0.950 . S
H343 C363 0.950 . S
H344 C365 0.950 . S
H345 C368 0.950 . S
H346 C369 0.950 . S
H347 C371 0.961 . S
H348 C372 0.957 . S
H349 C373 0.951 . S
H350 C375 0.951 . S
H351 C377 0.950 . S
H352 C378 0.950 . S
H353 C380 0.950 . S
H354 C383 0.950 . S
H355 C384 0.950 . S
H356 C386 0.950 . S
H357 C387 0.950 1_554 S
C358 H340 0.951 . S
C358 C359 1.366 . S
C358 C360 1.388 . S
C359 C358 1.366 . S
C359 C363 1.385 . S
C360 H341 0.951 . S
C360 C358 1.388 . S
C360 C361 1.366 . S
C361 C360 1.366 . S
C361 C362 1.414 . S
C361 C364 1.499 . S
C362 H342 0.950 . S
C362 C361 1.414 . S
C362 C363 1.374 . S
C363 H343 0.950 . S
C363 C359 1.385 . S
C363 C362 1.374 . S
C364 C361 1.499 . S
C364 C365 1.373 . S
C364 C366 1.389 . S
C365 H344 0.950 . S
C365 C364 1.373 . S
C365 C381 1.377 1_554 S
C366 C364 1.389 . S
C366 C367 1.524 . S
C366 C380 1.377 1_554 S
C367 C366 1.524 . S
C367 C368 1.397 . S
C367 C372 1.359 1_554 S
C368 H345 0.950 . S
C368 C367 1.397 . S
C368 C369 1.334 . S
C369 H346 0.950 . S
C369 C368 1.334 . S
C369 C370 1.287 . S
C370 C369 1.287 . S
C370 C371 1.524 . S
C370 H389 0.913 . S
C371 H347 0.961 . S
C371 C370 1.524 . S
C371 C372 1.412 1_554 S
C372 H348 0.957 . S
C372 C367 1.359 1_556 S
C372 C371 1.412 1_556 S
C373 H349 0.951 . S
C373 C374 1.366 . S
C373 C375 1.388 . S
C374 C373 1.366 . S
C374 C378 1.385 . S
C375 H350 0.951 . S
C375 C373 1.388 . S
C375 C376 1.366 . S
C376 C375 1.366 . S
C376 C377 1.414 . S
C376 C379 1.499 . S
C377 H351 0.950 . S
C377 C376 1.414 . S
C377 C378 1.374 . S
C378 H352 0.950 . S
C378 C374 1.385 . S
C378 C377 1.374 . S
C379 C376 1.499 . S
C379 C380 1.373 . S
C379 C381 1.389 . S
C380 H353 0.950 . S
C380 C366 1.377 1_556 S
C380 C379 1.373 . S
C381 C365 1.377 1_556 S
C381 C379 1.389 . S
C381 C382 1.524 . S
C382 C381 1.524 . S
C382 C383 1.397 . S
C382 C387 1.363 . S
C383 H354 0.950 . S
C383 C382 1.397 . S
C383 C384 1.334 . S
C384 H355 0.950 . S
C384 C383 1.334 . S
C384 C385 1.287 . S
C385 C384 1.287 . S
C385 C386 1.524 . S
C385 H388 0.999 . S
C386 H356 0.950 . S
C386 C385 1.524 . S
C386 C387 1.415 . S
C387 H357 0.950 1_556 S
C387 C382 1.363 . S
C387 C386 1.415 . S
H388 C385 0.999 . S
H389 C370 0.913 . S
H390 C408 0.951 . S
H391 C410 0.951 . S
H392 C412 0.950 . S
H393 C413 0.950 . S
H394 C415 0.950 . S
H395 C418 0.950 . S
H396 C419 0.950 . S
H397 C421 0.950 . S
H398 C422 0.950 . S
H399 C423 0.951 . S
H400 C425 0.951 . S
H401 C427 0.950 . S
H402 C428 0.950 . S
H403 C430 0.950 . S
H404 C433 0.950 . S
H405 C434 0.950 . S
H406 C436 0.950 . S
H407 C437 0.950 . S
C408 H390 0.951 . S
C408 C409 1.366 . S
C408 C410 1.388 . S
C409 C408 1.366 . S
C409 C413 1.385 . S
C410 H391 0.951 . S
C410 C408 1.388 . S
C410 C411 1.366 . S
C411 C410 1.366 . S
C411 C412 1.414 . S
C411 C414 1.499 . S
C412 H392 0.950 . S
C412 C411 1.414 . S
C412 C413 1.374 . S
C413 H393 0.950 . S
C413 C409 1.385 . S
C413 C412 1.374 . S
C414 C411 1.499 . S
C414 C415 1.373 . S
C414 C416 1.389 . S
C415 H394 0.950 . S
C415 C414 1.373 . S
C415 C431 1.377 . S
C416 C414 1.389 . S
C416 C417 1.524 . S
C416 C430 1.377 . S
C417 C416 1.524 . S
C417 C418 1.397 . S
C417 C422 1.363 . S
C418 H395 0.950 . S
C418 C417 1.397 . S
C418 C419 1.334 . S
C419 H396 0.950 . S
C419 C418 1.334 . S
C419 C420 1.287 . S
C420 C419 1.287 . S
C420 C421 1.524 . S
C420 H439 0.913 . S
C421 H397 0.950 . S
C421 C420 1.524 . S
C421 C422 1.415 . S
C422 H398 0.950 . S
C422 C417 1.363 . S
C422 C421 1.415 . S
C423 H399 0.951 . S
C423 C424 1.366 . S
C423 C425 1.388 . S
C424 C423 1.366 . S
C424 C428 1.385 . S
C425 H400 0.951 . S
C425 C423 1.388 . S
C425 C426 1.366 . S
C426 C425 1.366 . S
C426 C427 1.414 . S
C426 C429 1.499 . S
C427 H401 0.950 . S
C427 C426 1.414 . S
C427 C428 1.374 . S
C428 H402 0.950 . S
C428 C424 1.385 . S
C428 C427 1.374 . S
C429 C426 1.499 . S
C429 C430 1.373 . S
C429 C431 1.389 . S
C430 H403 0.950 . S
C430 C416 1.377 . S
C430 C429 1.373 . S
C431 C415 1.377 . S
C431 C429 1.389 . S
C431 C432 1.524 . S
C432 C431 1.524 . S
C432 C433 1.397 . S
C432 C437 1.363 . S
C433 H404 0.950 . S
C433 C432 1.397 . S
C433 C434 1.334 . S
C434 H405 0.950 . S
C434 C433 1.334 . S
C434 C435 1.287 . S
C435 C434 1.287 . S
C435 C436 1.524 . S
C435 H438 0.999 . S
C436 H406 0.950 . S
C436 C435 1.524 . S
C436 C437 1.415 . S
C437 H407 0.950 . S
C437 C432 1.363 . S
C437 C436 1.415 . S
H438 C435 0.999 . S
H439 C420 0.913 . S
H440 C458 0.951 . S
H441 C460 0.951 . S
H442 C462 0.950 . S
H443 C463 0.950 . S
H444 C465 0.950 . S
H445 C468 0.950 . S
H446 C469 0.950 . S
H447 C471 0.950 . S
H448 C472 0.950 . S
H449 C473 0.951 . S
H450 C475 0.951 . S
H451 C477 0.950 . S
H452 C478 0.950 . S
H453 C480 0.950 . S
H454 C483 0.950 . S
H455 C484 0.950 . S
H456 C486 0.950 . S
H457 C487 0.950 . S
C458 H440 0.951 . S
C458 C459 1.366 . S
C458 C460 1.388 . S
C459 C458 1.366 . S
C459 C463 1.385 . S
C460 H441 0.951 . S
C460 C458 1.388 . S
C460 C461 1.366 . S
C461 C460 1.366 . S
C461 C462 1.414 . S
C461 C464 1.499 . S
C462 H442 0.950 . S
C462 C461 1.414 . S
C462 C463 1.374 . S
C463 H443 0.950 . S
C463 C459 1.385 . S
C463 C462 1.374 . S
C464 C461 1.499 . S
C464 C465 1.373 . S
C464 C466 1.389 . S
C465 H444 0.950 . S
C465 C464 1.373 . S
C465 C481 1.377 . S
C466 C464 1.389 . S
C466 C467 1.524 . S
C466 C480 1.377 . S
C467 C466 1.524 . S
C467 C468 1.397 . S
C467 C472 1.363 . S
C468 H445 0.950 . S
C468 C467 1.397 . S
C468 C469 1.334 . S
C469 H446 0.950 . S
C469 C468 1.334 . S
C469 C470 1.287 . S
C470 C469 1.287 . S
C470 C471 1.524 . S
C470 H489 0.913 . S
C471 H447 0.950 . S
C471 C470 1.524 . S
C471 C472 1.415 . S
C472 H448 0.950 . S
C472 C467 1.363 . S
C472 C471 1.415 . S
C473 H449 0.951 . S
C473 C474 1.366 . S
C473 C475 1.388 . S
C474 C473 1.366 . S
C474 C478 1.385 . S
C475 H450 0.951 . S
C475 C473 1.388 . S
C475 C476 1.366 . S
C476 C475 1.366 . S
C476 C477 1.414 . S
C476 C479 1.499 . S
C477 H451 0.950 . S
C477 C476 1.414 . S
C477 C478 1.374 . S
C478 H452 0.950 . S
C478 C474 1.385 . S
C478 C477 1.374 . S
C479 C476 1.499 . S
C479 C480 1.373 . S
C479 C481 1.389 . S
C480 H453 0.950 . S
C480 C466 1.377 . S
C480 C479 1.373 . S
C481 C465 1.377 . S
C481 C479 1.389 . S
C481 C482 1.524 . S
C482 C481 1.524 . S
C482 C483 1.397 . S
C482 C487 1.363 . S
C483 H454 0.950 . S
C483 C482 1.397 . S
C483 C484 1.334 . S
C484 H455 0.950 . S
C484 C483 1.334 . S
C484 C485 1.287 . S
C485 C484 1.287 . S
C485 C486 1.524 . S
C485 H488 0.999 . S
C486 H456 0.950 . S
C486 C485 1.524 . S
C486 C487 1.415 . S
C487 H457 0.950 . S
C487 C482 1.363 . S
C487 C486 1.415 . S
H488 C485 0.999 . S
H489 C470 0.913 . S
H490 C508 0.951 . S
H491 C510 0.951 . S
H492 C512 0.950 . S
H493 C513 0.950 . S
H494 C515 0.950 . S
H495 C518 0.950 . S
H496 C519 0.950 . S
H497 C521 0.950 . S
H498 C522 0.950 . S
H499 C523 0.951 . S
H500 C525 0.951 . S
H501 C527 0.950 . S
H502 C528 0.950 . S
H503 C530 0.950 . S
H504 C533 0.950 . S
H505 C534 0.950 . S
H506 C536 0.950 . S
H507 C537 0.950 . S
C508 H490 0.951 . S
C508 C509 1.366 . S
C508 C510 1.388 . S
C509 C508 1.366 . S
C509 C513 1.385 . S
C510 H491 0.951 . S
C510 C508 1.388 . S
C510 C511 1.366 . S
C511 C510 1.366 . S
C511 C512 1.414 . S
C511 C514 1.499 . S
C512 H492 0.950 . S
C512 C511 1.414 . S
C512 C513 1.374 . S
C513 H493 0.950 . S
C513 C509 1.385 . S
C513 C512 1.374 . S
C514 C511 1.499 . S
C514 C515 1.373 . S
C514 C516 1.389 . S
C515 H494 0.950 . S
C515 C514 1.373 . S
C515 C531 1.377 . S
C516 C514 1.389 . S
C516 C517 1.524 . S
C516 C530 1.377 . S
C517 C516 1.524 . S
C517 C518 1.397 . S
C517 C522 1.363 . S
C518 H495 0.950 . S
C518 C517 1.397 . S
C518 C519 1.334 . S
C519 H496 0.950 . S
C519 C518 1.334 . S
C519 C520 1.287 . S
C520 C519 1.287 . S
C520 C521 1.524 . S
C520 H539 0.913 . S
C521 H497 0.950 . S
C521 C520 1.524 . S
C521 C522 1.415 . S
C522 H498 0.950 . S
C522 C517 1.363 . S
C522 C521 1.415 . S
C523 H499 0.951 . S
C523 C524 1.366 . S
C523 C525 1.388 . S
C524 C523 1.366 . S
C524 C528 1.385 . S
C525 H500 0.951 . S
C525 C523 1.388 . S
C525 C526 1.366 . S
C526 C525 1.366 . S
C526 C527 1.414 . S
C526 C529 1.499 . S
C527 H501 0.950 . S
C527 C526 1.414 . S
C527 C528 1.374 . S
C528 H502 0.950 . S
C528 C524 1.385 . S
C528 C527 1.374 . S
C529 C526 1.499 . S
C529 C530 1.373 . S
C529 C531 1.389 . S
C530 H503 0.950 . S
C530 C516 1.377 . S
C530 C529 1.373 . S
C531 C515 1.377 . S
C531 C529 1.389 . S
C531 C532 1.524 . S
C532 C531 1.524 . S
C532 C533 1.397 . S
C532 C537 1.363 . S
C533 H504 0.950 . S
C533 C532 1.397 . S
C533 C534 1.334 . S
C534 H505 0.950 . S
C534 C533 1.334 . S
C534 C535 1.287 . S
C535 C534 1.287 . S
C535 C536 1.524 . S
C535 H538 0.999 . S
C536 H506 0.950 . S
C536 C535 1.524 . S
C536 C537 1.415 . S
C537 H507 0.950 . S
C537 C532 1.363 . S
C537 C536 1.415 . S
H538 C535 0.999 . S
H539 C520 0.913 . S
H540 C558 0.951 . S
H541 C560 0.951 . S
H542 C562 0.950 . S
H543 C563 0.950 . S
H544 C565 0.950 . S
H545 C568 0.950 . S
H546 C569 0.950 . S
H547 C571 0.950 . S
H548 C572 0.950 . S
H549 C573 0.951 . S
H550 C575 0.951 . S
H551 C577 0.950 . S
H552 C578 0.950 . S
H553 C580 0.950 . S
H554 C583 0.950 . S
H555 C584 0.950 . S
H556 C586 0.950 . S
H557 C587 0.950 . S
C558 H540 0.951 . S
C558 C559 1.366 . S
C558 C560 1.388 . S
C559 C558 1.366 . S
C559 C563 1.385 . S
C560 H541 0.951 . S
C560 C558 1.388 . S
C560 C561 1.366 . S
C561 C560 1.366 . S
C561 C562 1.414 . S
C561 C564 1.499 . S
C562 H542 0.950 . S
C562 C561 1.414 . S
C562 C563 1.374 . S
C563 H543 0.950 . S
C563 C559 1.385 . S
C563 C562 1.374 . S
C564 C561 1.499 . S
C564 C565 1.373 . S
C564 C566 1.389 . S
C565 H544 0.950 . S
C565 C564 1.373 . S
C565 C581 1.377 . S
C566 C564 1.389 . S
C566 C567 1.524 . S
C566 C580 1.377 . S
C567 C566 1.524 . S
C567 C568 1.397 . S
C567 C572 1.363 . S
C568 H545 0.950 . S
C568 C567 1.397 . S
C568 C569 1.334 . S
C569 H546 0.950 . S
C569 C568 1.334 . S
C569 C570 1.287 . S
C570 C569 1.287 . S
C570 C571 1.524 . S
C570 H589 0.913 . S
C571 H547 0.950 . S
C571 C570 1.524 . S
C571 C572 1.415 . S
C572 H548 0.950 . S
C572 C567 1.363 . S
C572 C571 1.415 . S
C573 H549 0.951 . S
C573 C574 1.366 . S
C573 C575 1.388 . S
C574 C573 1.366 . S
C574 C578 1.385 . S
C575 H550 0.951 . S
C575 C573 1.388 . S
C575 C576 1.366 . S
C576 C575 1.366 . S
C576 C577 1.414 . S
C576 C579 1.499 . S
C577 H551 0.950 . S
C577 C576 1.414 . S
C577 C578 1.374 . S
C578 H552 0.950 . S
C578 C574 1.385 . S
C578 C577 1.374 . S
C579 C576 1.499 . S
C579 C580 1.373 . S
C579 C581 1.389 . S
C580 H553 0.950 . S
C580 C566 1.377 . S
C580 C579 1.373 . S
C581 C565 1.377 . S
C581 C579 1.389 . S
C581 C582 1.524 . S
C582 C581 1.524 . S
C582 C583 1.397 . S
C582 C587 1.363 . S
C583 H554 0.950 . S
C583 C582 1.397 . S
C583 C584 1.334 . S
C584 H555 0.950 . S
C584 C583 1.334 . S
C584 C585 1.287 . S
C585 C584 1.287 . S
C585 C586 1.524 . S
C585 H588 0.999 . S
C586 H556 0.950 . S
C586 C585 1.524 . S
C586 C587 1.415 . S
C587 H557 0.950 . S
C587 C582 1.363 . S
C587 C586 1.415 . S
H588 C585 0.999 . S
H589 C570 0.913 . S
H590 C608 0.951 . S
H591 C610 0.951 . S
H592 C612 0.950 . S
H593 C613 0.950 . S
H594 C615 0.950 . S
H595 C618 0.950 . S
H596 C619 0.950 . S
H597 C621 0.950 . S
H598 C622 0.950 . S
H599 C623 0.951 . S
H600 C625 0.951 . S
H601 C627 0.950 . S
H602 C628 0.950 . S
H603 C630 0.950 . S
H604 C633 0.950 . S
H605 C634 0.950 . S
H606 C636 0.950 1_455 S
H607 C637 0.950 . S
C608 H590 0.951 . S
C608 C609 1.366 . S
C608 C610 1.388 . S
C609 C608 1.366 . S
C609 C613 1.385 . S
C610 H591 0.951 . S
C610 C608 1.388 . S
C610 C611 1.366 . S
C611 C610 1.366 . S
C611 C612 1.414 . S
C611 C614 1.499 . S
C612 H592 0.950 . S
C612 C611 1.414 . S
C612 C613 1.374 . S
C613 H593 0.950 . S
C613 C609 1.385 . S
C613 C612 1.374 . S
C614 C611 1.499 . S
C614 C615 1.373 . S
C614 C616 1.389 . S
C615 H594 0.950 . S
C615 C614 1.373 . S
C615 C631 1.377 . S
C616 C614 1.389 . S
C616 C617 1.524 . S
C616 C630 1.377 . S
C617 C616 1.524 . S
C617 C618 1.397 . S
C617 C622 1.363 . S
C618 H595 0.950 . S
C618 C617 1.397 . S
C618 C619 1.334 . S
C619 H596 0.950 . S
C619 C618 1.334 . S
C619 C620 1.287 . S
C620 C619 1.287 . S
C620 C621 1.524 . S
C620 H639 0.913 . S
C621 H597 0.950 . S
C621 C620 1.524 . S
C621 C622 1.415 . S
C622 H598 0.950 . S
C622 C617 1.363 . S
C622 C621 1.415 . S
C623 H599 0.951 . S
C623 C624 1.366 . S
C623 C625 1.388 1_655 S
C624 C623 1.366 . S
C624 C628 1.385 . S
C625 H600 0.951 . S
C625 C623 1.388 1_455 S
C625 C626 1.366 . S
C626 C625 1.366 . S
C626 C627 1.414 1_455 S
C626 C629 1.499 . S
C627 H601 0.950 . S
C627 C626 1.414 1_655 S
C627 C628 1.374 . S
C628 H602 0.950 . S
C628 C624 1.385 . S
C628 C627 1.374 . S
C629 C626 1.499 . S
C629 C630 1.373 . S
C629 C631 1.389 . S
C630 H603 0.950 . S
C630 C616 1.377 . S
C630 C629 1.373 . S
C631 C615 1.377 . S
C631 C629 1.389 . S
C631 C632 1.524 . S
C632 C631 1.524 . S
C632 C633 1.397 1_455 S
C632 C637 1.363 . S
C633 H604 0.950 . S
C633 C632 1.397 1_655 S
C633 C634 1.334 . S
C634 H605 0.950 . S
C634 C633 1.334 . S
C634 C635 1.287 . S
C635 C634 1.287 . S
C635 C636 1.524 . S
C635 H638 0.999 . S
C636 H606 0.950 1_655 S
C636 C635 1.524 . S
C636 C637 1.415 1_655 S
C637 H607 0.950 . S
C637 C632 1.363 . S
C637 C636 1.415 1_455 S
H638 C635 0.999 . S
H639 C620 0.913 . S
H640 C658 0.951 . S
H641 C660 0.951 . S
H642 C662 0.950 . S
H643 C663 0.950 1_565 S
H644 C665 0.950 . S
H645 C668 0.950 . S
H646 C669 0.950 1_565 S
H647 C671 0.950 . S
H648 C672 0.950 . S
H649 C673 0.951 . S
H650 C675 0.951 . S
H651 C677 0.950 . S
H652 C678 0.950 . S
H653 C680 0.950 . S
H654 C683 0.950 . S
H655 C684 0.950 . S
H656 C686 0.950 . S
H657 C687 0.950 . S
C658 H640 0.951 . S
C658 C659 1.366 . S
C658 C660 1.388 . S
C659 C658 1.366 . S
C659 C663 1.385 . S
C660 H641 0.951 . S
C660 C658 1.388 . S
C660 C661 1.366 1_545 S
C661 C660 1.366 1_565 S
C661 C662 1.414 . S
C661 C664 1.499 . S
C662 H642 0.950 . S
C662 C661 1.414 . S
C662 C663 1.374 1_565 S
C663 H643 0.950 1_545 S
C663 C659 1.385 . S
C663 C662 1.374 1_545 S
C664 C661 1.499 . S
C664 C665 1.373 . S
C664 C666 1.389 . S
C665 H644 0.950 . S
C665 C664 1.373 . S
C665 C681 1.377 . S
C666 C664 1.389 . S
C666 C667 1.524 . S
C666 C680 1.377 . S
C667 C666 1.524 . S
C667 C668 1.397 . S
C667 C672 1.363 1_565 S
C668 H645 0.950 . S
C668 C667 1.397 . S
C668 C669 1.334 1_565 S
C669 H646 0.950 1_545 S
C669 C668 1.334 1_545 S
C669 C670 1.287 . S
C670 C669 1.287 . S
C670 C671 1.524 . S
C670 H689 0.913 . S
C671 H647 0.950 . S
C671 C670 1.524 . S
C671 C672 1.415 . S
C672 H648 0.950 . S
C672 C667 1.363 1_545 S
C672 C671 1.415 . S
C673 H649 0.951 . S
C673 C674 1.366 . S
C673 C675 1.388 . S
C674 C673 1.366 . S
C674 C678 1.385 . S
C675 H650 0.951 . S
C675 C673 1.388 . S
C675 C676 1.366 . S
C676 C675 1.366 . S
C676 C677 1.414 . S
C676 C679 1.499 . S
C677 H651 0.950 . S
C677 C676 1.414 . S
C677 C678 1.374 . S
C678 H652 0.950 . S
C678 C674 1.385 . S
C678 C677 1.374 . S
C679 C676 1.499 . S
C679 C680 1.373 . S
C679 C681 1.389 . S
C680 H653 0.950 . S
C680 C666 1.377 . S
C680 C679 1.373 . S
C681 C665 1.377 . S
C681 C679 1.389 . S
C681 C682 1.524 . S
C682 C681 1.524 . S
C682 C683 1.397 . S
C682 C687 1.363 . S
C683 H654 0.950 . S
C683 C682 1.397 . S
C683 C684 1.334 . S
C684 H655 0.950 . S
C684 C683 1.334 . S
C684 C685 1.287 . S
C685 C684 1.287 . S
C685 C686 1.524 . S
C685 H688 0.999 . S
C686 H656 0.950 . S
C686 C685 1.524 . S
C686 C687 1.415 . S
C687 H657 0.950 . S
C687 C682 1.363 . S
C687 C686 1.415 . S
H688 C685 0.999 . S
H689 C670 0.913 . S
H690 C708 0.951 . S
H691 C710 0.951 . S
H692 C712 0.950 . S
H693 C713 0.950 . S
H694 C715 0.950 . S
H695 C718 0.950 . S
H696 C719 0.950 . S
H697 C721 0.950 . S
H698 C722 0.950 . S
H699 C723 0.951 . S
H700 C725 0.951 . S
H701 C727 0.950 . S
H702 C728 0.950 . S
H703 C730 0.950 . S
H704 C733 0.950 . S
H705 C734 0.950 . S
H706 C736 0.950 . S
H707 C737 0.950 . S
C708 H690 0.951 . S
C708 C709 1.366 . S
C708 C710 1.388 . S
C709 C708 1.366 . S
C709 C713 1.385 . S
C710 H691 0.951 . S
C710 C708 1.388 . S
C710 C711 1.366 . S
C711 C710 1.366 . S
C711 C712 1.414 . S
C711 C714 1.499 . S
C712 H692 0.950 . S
C712 C711 1.414 . S
C712 C713 1.374 . S
C713 H693 0.950 . S
C713 C709 1.385 . S
C713 C712 1.374 . S
C714 C711 1.499 . S
C714 C715 1.373 . S
C714 C716 1.389 . S
C715 H694 0.950 . S
C715 C714 1.373 . S
C715 C731 1.377 . S
C716 C714 1.389 . S
C716 C717 1.524 . S
C716 C730 1.377 . S
C717 C716 1.524 . S
C717 C718 1.397 . S
C717 C722 1.363 . S
C718 H695 0.950 . S
C718 C717 1.397 . S
C718 C719 1.334 . S
C719 H696 0.950 . S
C719 C718 1.334 . S
C719 C720 1.287 . S
C720 C719 1.287 . S
C720 C721 1.524 . S
C720 H739 0.913 . S
C721 H697 0.950 . S
C721 C720 1.524 . S
C721 C722 1.415 . S
C722 H698 0.950 . S
C722 C717 1.363 . S
C722 C721 1.415 . S
C723 H699 0.951 . S
C723 C724 1.366 . S
C723 C725 1.388 . S
C724 C723 1.366 . S
C724 C728 1.385 . S
C725 H700 0.951 . S
C725 C723 1.388 . S
C725 C726 1.366 . S
C726 C725 1.366 . S
C726 C727 1.414 . S
C726 C729 1.499 . S
C727 H701 0.950 . S
C727 C726 1.414 . S
C727 C728 1.374 . S
C728 H702 0.950 . S
C728 C724 1.385 . S
C728 C727 1.374 . S
C729 C726 1.499 . S
C729 C730 1.373 . S
C729 C731 1.389 . S
C730 H703 0.950 . S
C730 C716 1.377 . S
C730 C729 1.373 . S
C731 C715 1.377 . S
C731 C729 1.389 . S
C731 C732 1.524 . S
C732 C731 1.524 . S
C732 C733 1.397 . S
C732 C737 1.363 . S
C733 H704 0.950 . S
C733 C732 1.397 . S
C733 C734 1.334 . S
C734 H705 0.950 . S
C734 C733 1.334 . S
C734 C735 1.287 . S
C735 C734 1.287 . S
C735 C736 1.524 . S
C735 H738 0.999 . S
C736 H706 0.950 . S
C736 C735 1.524 . S
C736 C737 1.415 . S
C737 H707 0.950 . S
C737 C732 1.363 . S
C737 C736 1.415 . S
H738 C735 0.999 . S
H739 C720 0.913 . S
H740 C758 0.951 . S
H741 C760 0.951 . S
H742 C762 0.950 . S
H743 C763 0.950 1_655 S
H744 C765 0.950 . S
H745 C768 0.950 . S
H746 C769 0.950 . S
H747 C771 0.950 . S
H748 C772 0.950 1_455 S
H749 C773 0.951 . S
H750 C775 0.951 . S
H751 C777 0.950 . S
H752 C778 0.950 . S
H753 C780 0.950 . S
H754 C783 0.950 . S
H755 C784 0.950 . S
H756 C786 0.950 . S
H757 C787 0.950 . S
C758 H740 0.951 . S
C758 C759 1.366 . S
C758 C760 1.388 . S
C759 C758 1.366 . S
C759 C763 1.385 . S
C760 H741 0.951 . S
C760 C758 1.388 . S
C760 C761 1.366 1_455 S
C761 C760 1.366 1_655 S
C761 C762 1.414 . S
C761 C764 1.499 . S
C762 H742 0.950 . S
C762 C761 1.414 . S
C762 C763 1.374 1_655 S
C763 H743 0.950 1_455 S
C763 C759 1.385 . S
C763 C762 1.374 1_455 S
C764 C761 1.499 . S
C764 C765 1.373 . S
C764 C766 1.389 . S
C765 H744 0.950 . S
C765 C764 1.373 . S
C765 C781 1.377 . S
C766 C764 1.389 . S
C766 C767 1.524 . S
C766 C780 1.377 . S
C767 C766 1.524 . S
C767 C768 1.397 . S
C767 C772 1.363 . S
C768 H745 0.950 . S
C768 C767 1.397 . S
C768 C769 1.334 . S
C769 H746 0.950 . S
C769 C768 1.334 . S
C769 C770 1.287 . S
C770 C769 1.287 . S
C770 C771 1.524 1_655 S
C770 H789 0.913 . S
C771 H747 0.950 . S
C771 C770 1.524 1_455 S
C771 C772 1.415 1_455 S
C772 H748 0.950 1_655 S
C772 C767 1.363 . S
C772 C771 1.415 1_655 S
C773 H749 0.951 . S
C773 C774 1.366 . S
C773 C775 1.388 . S
C774 C773 1.366 . S
C774 C778 1.385 . S
C775 H750 0.951 . S
C775 C773 1.388 . S
C775 C776 1.366 . S
C776 C775 1.366 . S
C776 C777 1.414 . S
C776 C779 1.499 . S
C777 H751 0.950 . S
C777 C776 1.414 . S
C777 C778 1.374 . S
C778 H752 0.950 . S
C778 C774 1.385 . S
C778 C777 1.374 . S
C779 C776 1.499 . S
C779 C780 1.373 . S
C779 C781 1.389 . S
C780 H753 0.950 . S
C780 C766 1.377 . S
C780 C779 1.373 . S
C781 C765 1.377 . S
C781 C779 1.389 . S
C781 C782 1.524 . S
C782 C781 1.524 . S
C782 C783 1.397 . S
C782 C787 1.363 . S
C783 H754 0.950 . S
C783 C782 1.397 . S
C783 C784 1.334 . S
C784 H755 0.950 . S
C784 C783 1.334 . S
C784 C785 1.287 . S
C785 C784 1.287 . S
C785 C786 1.524 . S
C785 H788 0.999 1_554 S
C786 H756 0.950 . S
C786 C785 1.524 . S
C786 C787 1.415 . S
C787 H757 0.950 . S
C787 C782 1.363 . S
C787 C786 1.415 . S
H788 C785 0.999 1_556 S
H789 C770 0.913 . S
H790 C808 0.951 . S
H791 C810 0.951 . S
H792 C812 0.950 . S
H793 C813 0.950 . S
H794 C815 0.950 . S
H795 C818 0.950 . S
H796 C819 0.950 . S
H797 C821 0.950 . S
H798 C822 0.950 . S
H799 C823 0.951 . S
H800 C825 0.951 . S
H801 C827 0.950 . S
H802 C828 0.950 . S
H803 C830 0.950 . S
H804 C833 0.950 . S
H805 C834 0.950 . S
H806 C836 0.950 . S
H807 C837 0.950 . S
C808 H790 0.951 . S
C808 C809 1.366 . S
C808 C810 1.388 . S
C809 C808 1.366 . S
C809 C813 1.385 . S
C810 H791 0.951 . S
C810 C808 1.388 . S
C810 C811 1.366 1_565 S
C811 C810 1.366 1_545 S
C811 C812 1.414 . S
C811 C814 1.499 . S
C812 H792 0.950 . S
C812 C811 1.414 . S
C812 C813 1.374 1_545 S
C813 H793 0.950 . S
C813 C809 1.385 . S
C813 C812 1.374 1_565 S
C814 C811 1.499 . S
C814 C815 1.373 . S
C814 C816 1.389 . S
C815 H794 0.950 . S
C815 C814 1.373 . S
C815 C831 1.377 . S
C816 C814 1.389 . S
C816 C817 1.524 1_545 S
C816 C830 1.377 . S
C817 C816 1.524 1_565 S
C817 C818 1.397 . S
C817 C822 1.363 . S
C818 H795 0.950 . S
C818 C817 1.397 . S
C818 C819 1.334 . S
C819 H796 0.950 . S
C819 C818 1.334 . S
C819 C820 1.287 . S
C820 C819 1.287 . S
C820 C821 1.524 . S
C820 H839 0.913 . S
C821 H797 0.950 . S
C821 C820 1.524 . S
C821 C822 1.415 . S
C822 H798 0.950 . S
C822 C817 1.363 . S
C822 C821 1.415 . S
C823 H799 0.951 . S
C823 C824 1.366 . S
C823 C825 1.388 . S
C824 C823 1.366 . S
C824 C828 1.385 . S
C825 H800 0.951 . S
C825 C823 1.388 . S
C825 C826 1.366 . S
C826 C825 1.366 . S
C826 C827 1.414 . S
C826 C829 1.499 . S
C827 H801 0.950 . S
C827 C826 1.414 . S
C827 C828 1.374 . S
C828 H802 0.950 . S
C828 C824 1.385 . S
C828 C827 1.374 . S
C829 C826 1.499 . S
C829 C830 1.373 . S
C829 C831 1.389 . S
C830 H803 0.950 . S
C830 C816 1.377 . S
C830 C829 1.373 . S
C831 C815 1.377 . S
C831 C829 1.389 . S
C831 C832 1.524 . S
C832 C831 1.524 . S
C832 C833 1.397 . S
C832 C837 1.363 . S
C833 H804 0.950 . S
C833 C832 1.397 . S
C833 C834 1.334 . S
C834 H805 0.950 . S
C834 C833 1.334 . S
C834 C835 1.287 . S
C835 C834 1.287 . S
C835 C836 1.524 . S
C835 H838 0.999 . S
C836 H806 0.950 . S
C836 C835 1.524 . S
C836 C837 1.415 . S
C837 H807 0.950 . S
C837 C832 1.363 . S
C837 C836 1.415 . S
H838 C835 0.999 . S
H839 C820 0.913 . S
H840 C858 0.951 . S
H841 C860 0.951 . S
H842 C862 0.950 . S
H843 C863 0.950 . S
H844 C865 0.950 . S
H845 C868 0.950 . S
H846 C869 0.950 . S
H847 C871 0.950 . S
H848 C872 0.950 . S
H849 C873 0.951 . S
H850 C875 0.951 . S
H851 C877 0.950 . S
H852 C878 0.950 . S
H853 C880 0.950 . S
H854 C883 0.950 . S
H855 C884 0.950 . S
H856 C886 0.950 . S
H857 C887 0.950 . S
C858 H840 0.951 . S
C858 C859 1.366 . S
C858 C860 1.388 . S
C859 C858 1.366 . S
C859 C863 1.385 . S
C860 H841 0.951 . S
C860 C858 1.388 . S
C860 C861 1.366 . S
C861 C860 1.366 . S
C861 C862 1.414 . S
C861 C864 1.499 . S
C862 H842 0.950 . S
C862 C861 1.414 . S
C862 C863 1.374 . S
C863 H843 0.950 . S
C863 C859 1.385 . S
C863 C862 1.374 . S
C864 C861 1.499 . S
C864 C865 1.373 . S
C864 C866 1.389 . S
C865 H844 0.950 . S
C865 C864 1.373 . S
C865 C881 1.377 . S
C866 C864 1.389 . S
C866 C867 1.524 . S
C866 C880 1.377 . S
C867 C866 1.524 . S
C867 C868 1.397 . S
C867 C872 1.363 . S
C868 H845 0.950 . S
C868 C867 1.397 . S
C868 C869 1.334 . S
C869 H846 0.950 . S
C869 C868 1.334 . S
C869 C870 1.287 . S
C870 C869 1.287 . S
C870 C871 1.524 . S
C870 H889 0.913 . S
C871 H847 0.950 . S
C871 C870 1.524 . S
C871 C872 1.415 . S
C872 H848 0.950 . S
C872 C867 1.363 . S
C872 C871 1.415 . S
C873 H849 0.951 . S
C873 C874 1.366 . S
C873 C875 1.388 1_554 S
C874 C873 1.366 . S
C874 C878 1.385 1_554 S
C875 H850 0.951 . S
C875 C873 1.388 1_556 S
C875 C876 1.366 . S
C876 C875 1.366 . S
C876 C877 1.414 . S
C876 C879 1.499 . S
C877 H851 0.950 . S
C877 C876 1.414 . S
C877 C878 1.374 . S
C878 H852 0.950 . S
C878 C874 1.385 1_556 S
C878 C877 1.374 . S
C879 C876 1.499 . S
C879 C880 1.373 . S
C879 C881 1.389 . S
C880 H853 0.950 . S
C880 C866 1.377 . S
C880 C879 1.373 . S
C881 C865 1.377 . S
C881 C879 1.389 . S
C881 C882 1.524 . S
C882 C881 1.524 . S
C882 C883 1.397 . S
C882 C887 1.363 . S
C883 H854 0.950 . S
C883 C882 1.397 . S
C883 C884 1.334 . S
C884 H855 0.950 . S
C884 C883 1.334 . S
C884 C885 1.287 . S
C885 C884 1.287 . S
C885 C886 1.524 . S
C885 H888 0.999 . S
C886 H856 0.950 . S
C886 C885 1.524 . S
C886 C887 1.415 . S
C887 H857 0.950 . S
C887 C882 1.363 . S
C887 C886 1.415 . S
H888 C885 0.999 . S
H889 C870 0.913 . S
H890 C908 0.951 . S
H891 C910 0.951 . S
H892 C912 0.950 . S
H893 C913 0.950 . S
H894 C915 0.950 . S
H895 C918 0.950 . S
H896 C919 0.950 . S
H897 C921 0.950 . S
H898 C922 0.950 . S
H899 C923 0.951 . S
H900 C925 0.951 . S
H901 C927 0.950 . S
H902 C928 0.950 . S
H903 C930 0.950 . S
H904 C933 0.950 . S
H905 C934 0.950 . S
H906 C936 0.950 . S
H907 C937 0.950 . S
C908 H890 0.951 . S
C908 C909 1.366 . S
C908 C910 1.388 . S
C909 C908 1.366 . S
C909 C913 1.385 . S
C910 H891 0.951 . S
C910 C908 1.388 . S
C910 C911 1.366 . S
C911 C910 1.366 . S
C911 C912 1.414 . S
C911 C914 1.499 . S
C912 H892 0.950 . S
C912 C911 1.414 . S
C912 C913 1.374 . S
C913 H893 0.950 . S
C913 C909 1.385 . S
C913 C912 1.374 . S
C914 C911 1.499 . S
C914 C915 1.373 . S
C914 C916 1.389 1_655 S
C915 H894 0.950 . S
C915 C914 1.373 . S
C915 C931 1.377 . S
C916 C914 1.389 1_455 S
C916 C917 1.524 . S
C916 C930 1.377 . S
C917 C916 1.524 . S
C917 C918 1.397 . S
C917 C922 1.363 . S
C918 H895 0.950 . S
C918 C917 1.397 . S
C918 C919 1.334 . S
C919 H896 0.950 . S
C919 C918 1.334 . S
C919 C920 1.287 . S
C920 C919 1.287 . S
C920 C921 1.524 . S
C920 H939 0.913 . S
C921 H897 0.950 . S
C921 C920 1.524 . S
C921 C922 1.415 . S
C922 H898 0.950 . S
C922 C917 1.363 . S
C922 C921 1.415 . S
C923 H899 0.951 . S
C923 C924 1.366 . S
C923 C925 1.388 . S
C924 C923 1.366 . S
C924 C928 1.385 . S
C925 H900 0.951 . S
C925 C923 1.388 . S
C925 C926 1.366 . S
C926 C925 1.366 . S
C926 C927 1.414 . S
C926 C929 1.499 . S
C927 H901 0.950 . S
C927 C926 1.414 . S
C927 C928 1.374 . S
C928 H902 0.950 . S
C928 C924 1.385 . S
C928 C927 1.374 . S
C929 C926 1.499 . S
C929 C930 1.373 . S
C929 C931 1.389 1_455 S
C930 H903 0.950 . S
C930 C916 1.377 . S
C930 C929 1.373 . S
C931 C915 1.377 . S
C931 C929 1.389 1_655 S
C931 C932 1.524 . S
C932 C931 1.524 . S
C932 C933 1.397 . S
C932 C937 1.363 . S
C933 H904 0.950 . S
C933 C932 1.397 . S
C933 C934 1.334 . S
C934 H905 0.950 . S
C934 C933 1.334 . S
C934 C935 1.287 . S
C935 C934 1.287 . S
C935 C936 1.524 . S
C935 H938 0.999 . S
C936 H906 0.950 . S
C936 C935 1.524 . S
C936 C937 1.415 . S
C937 H907 0.950 . S
C937 C932 1.363 . S
C937 C936 1.415 . S
H938 C935 0.999 . S
H939 C920 0.913 . S
H940 C958 0.951 . S
H941 C960 0.951 . S
H942 C962 0.950 . S
H943 C963 0.950 . S
H944 C965 0.950 . S
H945 C968 0.950 1_545 S
H946 C969 0.952 . S
H947 C971 0.950 . S
H948 C972 0.950 . S
H949 C973 0.951 . S
H950 C975 0.951 . S
H951 C977 0.950 . S
H952 C978 0.950 . S
H953 C980 0.950 . S
H954 C983 0.950 1_565 S
H955 C984 0.950 . S
H956 C986 0.950 . S
H957 C987 0.950 . S
C958 H940 0.951 . S
C958 C959 1.366 . S
C958 C960 1.388 . S
C959 C958 1.366 . S
C959 C963 1.385 . S
C960 H941 0.951 . S
C960 C958 1.388 . S
C960 C961 1.366 . S
C961 C960 1.366 . S
C961 C962 1.414 . S
C961 C964 1.499 . S
C962 H942 0.950 . S
C962 C961 1.414 . S
C962 C963 1.374 . S
C963 H943 0.950 . S
C963 C959 1.385 . S
C963 C962 1.374 . S
C964 C961 1.499 . S
C964 C965 1.373 . S
C964 C966 1.389 . S
C965 H944 0.950 . S
C965 C964 1.373 . S
C965 C981 1.377 1_565 S
C966 C964 1.389 . S
C966 C967 1.524 . S
C966 C980 1.377 1_565 S
C967 C966 1.524 . S
C967 C968 1.397 . S
C967 C972 1.363 . S
C968 H945 0.950 1_565 S
C968 C967 1.397 . S
C968 C969 1.334 . S
C969 H946 0.952 . S
C969 C968 1.334 . S
C969 C970 1.287 . S
C970 C969 1.287 . S
C970 C971 1.524 . S
C970 H989 0.913 . S
C971 H947 0.950 . S
C971 C970 1.524 . S
C971 C972 1.415 . S
C972 H948 0.950 . S
C972 C967 1.363 . S
C972 C971 1.415 . S
C973 H949 0.951 . S
C973 C974 1.366 . S
C973 C975 1.388 . S
C974 C973 1.366 . S
C974 C978 1.385 . S
C975 H950 0.951 . S
C975 C973 1.388 . S
C975 C976 1.366 . S
C976 C975 1.366 . S
C976 C977 1.414 . S
C976 C979 1.499 . S
C977 H951 0.950 . S
C977 C976 1.414 . S
C977 C978 1.374 . S
C978 H952 0.950 . S
C978 C974 1.385 . S
C978 C977 1.374 . S
C979 C976 1.499 . S
C979 C980 1.373 . S
C979 C981 1.389 . S
C980 H953 0.950 . S
C980 C966 1.377 1_545 S
C980 C979 1.373 . S
C981 C965 1.377 1_545 S
C981 C979 1.389 . S
C981 C982 1.524 . S
C982 C981 1.524 . S
C982 C983 1.397 . S
C982 C987 1.363 . S
C983 H954 0.950 1_545 S
C983 C982 1.397 . S
C983 C984 1.334 . S
C984 H955 0.950 . S
C984 C983 1.334 . S
C984 C985 1.287 . S
C985 C984 1.287 . S
C985 C986 1.524 . S
C985 H988 0.999 . S
C986 H956 0.950 . S
C986 C985 1.524 . S
C986 C987 1.415 . S
C987 H957 0.950 . S
C987 C982 1.363 . S
C987 C986 1.415 . S
H988 C985 0.999 . S
H989 C970 0.913 . S
H990 C1008 0.951 . S
H991 C1010 0.951 . S
H992 C1012 0.950 . S
H993 C1013 0.950 . S
H994 C1015 0.950 . S
H995 C1018 0.950 . S
H996 C1019 0.950 . S
H997 C1021 0.950 . S
H998 C1022 0.950 . S
H999 C1023 0.951 . S
H1000 C1025 0.951 . S
H1001 C1027 0.950 . S
H1002 C1028 0.962 . S
H1003 C1030 0.950 . S
H1004 C1033 0.950 . S
H1005 C1034 0.950 1_554 S
H1006 C1036 0.950 . S
H1007 C1037 0.950 . S
C1008 H990 0.951 . S
C1008 C1009 1.366 . S
C1008 C1010 1.388 . S
C1009 C1008 1.366 . S
C1009 C1013 1.385 . S
C1010 H991 0.951 . S
C1010 C1008 1.388 . S
C1010 C1011 1.366 . S
C1011 C1010 1.366 . S
C1011 C1012 1.414 . S
C1011 C1014 1.499 . S
C1012 H992 0.950 . S
C1012 C1011 1.414 . S
C1012 C1013 1.374 . S
C1013 H993 0.950 . S
C1013 C1009 1.385 . S
C1013 C1012 1.374 . S
C1014 C1011 1.499 . S
C1014 C1015 1.373 . S
C1014 C1016 1.389 . S
C1015 H994 0.950 . S
C1015 C1014 1.373 . S
C1015 C1031 1.377 . S
C1016 C1014 1.389 . S
C1016 C1017 1.524 . S
C1016 C1030 1.377 . S
C1017 C1016 1.524 . S
C1017 C1018 1.397 . S
C1017 C1022 1.363 . S
C1018 H995 0.950 . S
C1018 C1017 1.397 . S
C1018 C1019 1.334 . S
C1019 H996 0.950 . S
C1019 C1018 1.334 . S
C1019 C1020 1.287 . S
C1020 C1019 1.287 . S
C1020 C1021 1.524 . S
C1020 H1039 0.913 . S
C1021 H997 0.950 . S
C1021 C1020 1.524 . S
C1021 C1022 1.415 . S
C1022 H998 0.950 . S
C1022 C1017 1.363 . S
C1022 C1021 1.415 . S
C1023 H999 0.951 . S
C1023 C1024 1.366 . S
C1023 C1025 1.388 1_554 S
C1024 C1023 1.366 . S
C1024 C1028 1.385 1_554 S
C1025 H1000 0.951 . S
C1025 C1023 1.388 1_556 S
C1025 C1026 1.366 . S
C1026 C1025 1.366 . S
C1026 C1027 1.414 . S
C1026 C1029 1.499 . S
C1027 H1001 0.950 . S
C1027 C1026 1.414 . S
C1027 C1028 1.374 . S
C1028 H1002 0.962 . S
C1028 C1024 1.385 1_556 S
C1028 C1027 1.374 . S
C1029 C1026 1.499 . S
C1029 C1030 1.373 . S
C1029 C1031 1.389 . S
C1030 H1003 0.950 . S
C1030 C1016 1.377 . S
C1030 C1029 1.373 . S
C1031 C1015 1.377 . S
C1031 C1029 1.389 . S
C1031 C1032 1.524 . S
C1032 C1031 1.524 . S
C1032 C1033 1.397 . S
C1032 C1037 1.363 . S
C1033 H1004 0.950 . S
C1033 C1032 1.397 . S
C1033 C1034 1.334 . S
C1034 H1005 0.950 1_556 S
C1034 C1033 1.334 . S
C1034 C1035 1.287 . S
C1035 C1034 1.287 . S
C1035 C1036 1.524 . S
C1035 H1038 0.999 1_556 S
C1036 H1006 0.950 . S
C1036 C1035 1.524 . S
C1036 C1037 1.415 . S
C1037 H1007 0.950 . S
C1037 C1032 1.363 . S
C1037 C1036 1.415 . S
H1038 C1035 0.999 1_554 S
H1039 C1020 0.913 . S
H1040 C1058 0.951 . S
H1041 C1060 0.951 . S
H1042 C1062 0.950 . S
H1043 C1063 0.950 . S
H1044 C1065 0.950 . S
H1045 C1068 0.950 . S
H1046 C1069 0.950 . S
H1047 C1071 0.950 . S
H1048 C1072 0.950 . S
H1049 C1073 0.951 . S
H1050 C1075 0.951 . S
H1051 C1077 0.950 . S
H1052 C1078 0.950 . S
H1053 C1080 0.950 . S
H1054 C1083 0.950 . S
H1055 C1084 0.950 . S
H1056 C1086 0.950 . S
H1057 C1087 0.950 . S
C1058 H1040 0.951 . S
C1058 C1059 1.366 . S
C1058 C1060 1.388 . S
C1059 C1058 1.366 . S
C1059 C1063 1.385 . S
C1060 H1041 0.951 . S
C1060 C1058 1.388 . S
C1060 C1061 1.366 . S
C1061 C1060 1.366 . S
C1061 C1062 1.414 . S
C1061 C1064 1.499 . S
C1062 H1042 0.950 . S
C1062 C1061 1.414 . S
C1062 C1063 1.374 . S
C1063 H1043 0.950 . S
C1063 C1059 1.385 . S
C1063 C1062 1.374 . S
C1064 C1061 1.499 . S
C1064 C1065 1.373 . S
C1064 C1066 1.389 1_455 S
C1065 H1044 0.950 . S
C1065 C1064 1.373 . S
C1065 C1081 1.377 . S
C1066 C1064 1.389 1_655 S
C1066 C1067 1.524 . S
C1066 C1080 1.377 . S
C1067 C1066 1.524 . S
C1067 C1068 1.397 . S
C1067 C1072 1.363 . S
C1068 H1045 0.950 . S
C1068 C1067 1.397 . S
C1068 C1069 1.334 . S
C1069 H1046 0.950 . S
C1069 C1068 1.334 . S
C1069 C1070 1.287 . S
C1070 C1069 1.287 . S
C1070 C1071 1.524 . S
C1070 H1089 0.913 . S
C1071 H1047 0.950 . S
C1071 C1070 1.524 . S
C1071 C1072 1.415 . S
C1072 H1048 0.950 . S
C1072 C1067 1.363 . S
C1072 C1071 1.415 . S
C1073 H1049 0.951 . S
C1073 C1074 1.366 . S
C1073 C1075 1.388 . S
C1074 C1073 1.366 . S
C1074 C1078 1.385 . S
C1075 H1050 0.951 . S
C1075 C1073 1.388 . S
C1075 C1076 1.366 . S
C1076 C1075 1.366 . S
C1076 C1077 1.414 . S
C1076 C1079 1.499 . S
C1077 H1051 0.950 . S
C1077 C1076 1.414 . S
C1077 C1078 1.374 . S
C1078 H1052 0.950 . S
C1078 C1074 1.385 . S
C1078 C1077 1.374 . S
C1079 C1076 1.499 . S
C1079 C1080 1.373 . S
C1079 C1081 1.389 1_655 S
C1080 H1053 0.950 . S
C1080 C1066 1.377 . S
C1080 C1079 1.373 . S
C1081 C1065 1.377 . S
C1081 C1079 1.389 1_455 S
C1081 C1082 1.524 . S
C1082 C1081 1.524 . S
C1082 C1083 1.397 . S
C1082 C1087 1.363 . S
C1083 H1054 0.950 . S
C1083 C1082 1.397 . S
C1083 C1084 1.334 . S
C1084 H1055 0.950 . S
C1084 C1083 1.334 . S
C1084 C1085 1.287 . S
C1085 C1084 1.287 . S
C1085 C1086 1.524 . S
C1085 H1088 0.999 . S
C1086 H1056 0.950 . S
C1086 C1085 1.524 . S
C1086 C1087 1.415 . S
C1087 H1057 0.950 . S
C1087 C1082 1.363 . S
C1087 C1086 1.415 . S
H1088 C1085 0.999 . S
H1089 C1070 0.913 . S
H1090 C1108 0.951 . S
H1091 C1110 0.951 . S
H1092 C1112 0.950 . S
H1093 C1113 0.950 . S
H1094 C1115 0.950 . S
H1095 C1118 0.950 . S
H1096 C1119 0.950 . S
H1097 C1121 0.950 . S
H1098 C1122 0.950 . S
H1099 C1123 0.951 . S
H1100 C1125 0.951 . S
H1101 C1127 0.950 . S
H1102 C1128 0.950 . S
H1103 C1130 0.950 . S
H1104 C1133 0.950 . S
H1105 C1134 0.950 . S
H1106 C1136 0.950 . S
H1107 C1137 0.950 . S
C1108 H1090 0.951 . S
C1108 C1109 1.366 . S
C1108 C1110 1.388 . S
C1109 C1108 1.366 . S
C1109 C1113 1.385 . S
C1110 H1091 0.951 . S
C1110 C1108 1.388 . S
C1110 C1111 1.366 . S
C1111 C1110 1.366 . S
C1111 C1112 1.414 . S
C1111 C1114 1.499 . S
C1112 H1092 0.950 . S
C1112 C1111 1.414 . S
C1112 C1113 1.374 . S
C1113 H1093 0.950 . S
C1113 C1109 1.385 . S
C1113 C1112 1.374 . S
C1114 C1111 1.499 . S
C1114 C1115 1.373 . S
C1114 C1116 1.389 1_545 S
C1115 H1094 0.950 . S
C1115 C1114 1.373 . S
C1115 C1131 1.377 . S
C1116 C1114 1.389 1_565 S
C1116 C1117 1.524 . S
C1116 C1130 1.377 . S
C1117 C1116 1.524 . S
C1117 C1118 1.397 . S
C1117 C1122 1.363 . S
C1118 H1095 0.950 . S
C1118 C1117 1.397 . S
C1118 C1119 1.334 . S
C1119 H1096 0.950 . S
C1119 C1118 1.334 . S
C1119 C1120 1.287 . S
C1120 C1119 1.287 . S
C1120 C1121 1.524 . S
C1120 H1139 0.913 . S
C1121 H1097 0.950 . S
C1121 C1120 1.524 . S
C1121 C1122 1.415 . S
C1122 H1098 0.950 . S
C1122 C1117 1.363 . S
C1122 C1121 1.415 . S
C1123 H1099 0.951 . S
C1123 C1124 1.366 . S
C1123 C1125 1.388 . S
C1124 C1123 1.366 . S
C1124 C1128 1.385 . S
C1125 H1100 0.951 . S
C1125 C1123 1.388 . S
C1125 C1126 1.366 . S
C1126 C1125 1.366 . S
C1126 C1127 1.414 . S
C1126 C1129 1.499 . S
C1127 H1101 0.950 . S
C1127 C1126 1.414 . S
C1127 C1128 1.374 . S
C1128 H1102 0.950 . S
C1128 C1124 1.385 . S
C1128 C1127 1.374 . S
C1129 C1126 1.499 . S
C1129 C1130 1.373 . S
C1129 C1131 1.389 1_565 S
C1130 H1103 0.950 . S
C1130 C1116 1.377 . S
C1130 C1129 1.373 . S
C1131 C1115 1.377 . S
C1131 C1129 1.389 1_545 S
C1131 C1132 1.524 . S
C1132 C1131 1.524 . S
C1132 C1133 1.397 . S
C1132 C1137 1.363 . S
C1133 H1104 0.950 . S
C1133 C1132 1.397 . S
C1133 C1134 1.334 . S
C1134 H1105 0.950 . S
C1134 C1133 1.334 . S
C1134 C1135 1.287 . S
C1135 C1134 1.287 . S
C1135 C1136 1.524 . S
C1135 H1138 0.999 . S
C1136 H1106 0.950 . S
C1136 C1135 1.524 . S
C1136 C1137 1.415 . S
C1137 H1107 0.950 . S
C1137 C1132 1.363 . S
C1137 C1136 1.415 . S
H1138 C1135 0.999 . S
H1139 C1120 0.913 . S
C259 C184 1.183 . S
C274 C26 1.185 . S
C309 C226 1.184 . S
C324 C64 1.183 . S
C359 C24 1.184 . S
C374 C106 1.185 . S
C409 C66 1.184 . S
C424 C144 1.183 . S
C459 C104 1.183 . S
C474 C186 1.184 . S
C509 C146 1.185 . S
C524 C224 1.184 . S
C559 C2 1.215 . S
C574 C143 1.273 . S
C609 C162 1.215 . S
C624 C63 1.273 . S
C659 C223 1.273 . S
C674 C82 1.214 . S
C709 C103 1.272 . S
C724 C202 1.213 . S
C759 C23 1.273 . S
C774 C122 1.214 . S
C809 C183 1.273 . S
C824 C42 1.215 . S
C859 C217 0.659 . S
C874 C17 0.657 . S
C909 C53 1.480 . S
C924 C13 1.480 . S
C959 C97 0.657 . S
C974 C57 0.659 . S
C1009 C93 1.480 . S
C1024 C133 1.479 . S
C1059 C177 0.659 . S
C1074 C137 0.658 . S
C1109 C213 1.479 . S
C1124 C173 1.480 . S
