# Generated by pormake.
# Topology wjk, (5)-cn, num edge types: 1
# Building blocks:
#     Node 0, Type 0, BuildingBlock: XOMCOT_clean_sbu_0, # of connection points: 5
#     Node 1, Type 0, BuildingBlock: XOMCOT_clean_sbu_0, # of connection points: 5
#     Node 2, Type 0, BuildingBlock: XOMCOT_clean_sbu_0, # of connection points: 5
#     Node 3, Type 0, BuildingBlock: XOMCOT_clean_sbu_0, # of connection points: 5
#     Node 4, Type 0, BuildingBlock: XOMCOT_clean_sbu_0, # of connection points: 5
#     Node 5, Type 0, BuildingBlock: XOMCOT_clean_sbu_0, # of connection points: 5
#     Node 6, Type 0, BuildingBlock: XOMCOT_clean_sbu_0, # of connection points: 5
#     Node 7, Type 0, BuildingBlock: XOMCOT_clean_sbu_0, # of connection points: 5
#     Node 8, Type 0, BuildingBlock: XOMCOT_clean_sbu_0, # of connection points: 5
#     Node 9, Type 0, BuildingBlock: XOMCOT_clean_sbu_0, # of connection points: 5
#     Node 10, Type 0, BuildingBlock: XOMCOT_clean_sbu_0, # of connection points: 5
#     Node 11, Type 0, BuildingBlock: XOMCOT_clean_sbu_0, # of connection points: 5
#     Edge 12, Type (0, 0), BuildingBlock: MIFKUJ_clean_linker_0, # of connection points: 2
#     Edge 13, Type (0, 0), BuildingBlock: MIFKUJ_clean_linker_0, # of connection points: 2
#     Edge 14, Type (0, 0), BuildingBlock: MIFKUJ_clean_linker_0, # of connection points: 2
#     Edge 15, Type (0, 0), BuildingBlock: MIFKUJ_clean_linker_0, # of connection points: 2
#     Edge 16, Type (0, 0), BuildingBlock: MIFKUJ_clean_linker_0, # of connection points: 2
#     Edge 17, Type (0, 0), BuildingBlock: MIFKUJ_clean_linker_0, # of connection points: 2
#     Edge 18, Type (0, 0), BuildingBlock: MIFKUJ_clean_linker_0, # of connection points: 2
#     Edge 19, Type (0, 0), BuildingBlock: MIFKUJ_clean_linker_0, # of connection points: 2
#     Edge 20, Type (0, 0), BuildingBlock: MIFKUJ_clean_linker_0, # of connection points: 2
#     Edge 21, Type (0, 0), BuildingBlock: MIFKUJ_clean_linker_0, # of connection points: 2
#     Edge 22, Type (0, 0), BuildingBlock: MIFKUJ_clean_linker_0, # of connection points: 2
#     Edge 23, Type (0, 0), BuildingBlock: MIFKUJ_clean_linker_0, # of connection points: 2
#     Edge 24, Type (0, 0), BuildingBlock: MIFKUJ_clean_linker_0, # of connection points: 2
#     Edge 25, Type (0, 0), BuildingBlock: MIFKUJ_clean_linker_0, # of connection points: 2
#     Edge 26, Type (0, 0), BuildingBlock: MIFKUJ_clean_linker_0, # of connection points: 2
#     Edge 27, Type (0, 0), BuildingBlock: MIFKUJ_clean_linker_0, # of connection points: 2
#     Edge 28, Type (0, 0), BuildingBlock: MIFKUJ_clean_linker_0, # of connection points: 2
#     Edge 29, Type (0, 0), BuildingBlock: MIFKUJ_clean_linker_0, # of connection points: 2
#     Edge 30, Type (0, 0), BuildingBlock: MIFKUJ_clean_linker_0, # of connection points: 2
#     Edge 31, Type (0, 0), BuildingBlock: MIFKUJ_clean_linker_0, # of connection points: 2
#     Edge 32, Type (0, 0), BuildingBlock: MIFKUJ_clean_linker_0, # of connection points: 2
#     Edge 33, Type (0, 0), BuildingBlock: MIFKUJ_clean_linker_0, # of connection points: 2
#     Edge 34, Type (0, 0), BuildingBlock: MIFKUJ_clean_linker_0, # of connection points: 2
#     Edge 35, Type (0, 0), BuildingBlock: MIFKUJ_clean_linker_0, # of connection points: 2
#     Edge 36, Type (0, 0), BuildingBlock: MIFKUJ_clean_linker_0, # of connection points: 2
#     Edge 37, Type (0, 0), BuildingBlock: MIFKUJ_clean_linker_0, # of connection points: 2
#     Edge 38, Type (0, 0), BuildingBlock: MIFKUJ_clean_linker_0, # of connection points: 2
#     Edge 39, Type (0, 0), BuildingBlock: MIFKUJ_clean_linker_0, # of connection points: 2
#     Edge 40, Type (0, 0), BuildingBlock: MIFKUJ_clean_linker_0, # of connection points: 2
#     Edge 41, Type (0, 0), BuildingBlock: MIFKUJ_clean_linker_0, # of connection points: 2
# Relax obj value: 0.559
# Max RMSD: 0.271
# Mean RMSD: 0.271
data_MOF--net-wjk--node1-XOMCOT_clean_sbu_0--edge1-MIFKUJ_clean_linker_0
_symmetry_space_group_name_H-M    P1
_symmetry_Int_Tables_number       1
_symmetry_cell_setting            triclinic
loop_
_symmetry_equiv_pos_as_xyz
'x, y, z'
_cell_length_a     41.48562
_cell_length_b     41.427974
_cell_length_c     90.555995
_cell_angle_alpha  90.009766
_cell_angle_beta   90.049298
_cell_angle_gamma 120.01026
loop_
_atom_site_label
_atom_site_type_symbol
_atom_site_fract_x
_atom_site_fract_y
_atom_site_fract_z
_atom_type_partial_charge
Co0 Co 0.22334 0.29775 0.24346 0.0
C1 C 0.29063 0.36795 0.23819 0.0
C2 C 0.24697 0.37893 0.24398 0.0
C3 C 0.28033 0.41257 0.24308 0.0
N4 N 0.25374 0.35109 0.24077 0.0
N5 N 0.30746 0.40522 0.23925 0.0
H6 H 0.30555 0.35305 0.2365 0.0
H7 H 0.22032 0.37503 0.24746 0.0
C8 C 0.16661 0.27293 0.21891 0.0
O9 O 0.17805 0.24972 0.21511 0.0
N10 N 0.19442 0.24416 0.2469 0.0
C11 C 0.20678 0.22278 0.25321 0.0
C12 C 0.17801 0.18681 0.25423 0.0
C13 C 0.15747 0.22096 0.24516 0.0
N14 N 0.14706 0.18562 0.24901 0.0
C15 C 0.27061 0.27569 0.22915 0.0
C16 C 0.2742 0.3081 0.20207 0.0
C17 C 0.29553 0.29101 0.20449 0.0
C18 C 0.29363 0.27484 0.21823 0.0
C19 C 0.25181 0.30883 0.21345 0.0
N20 N 0.24911 0.29148 0.22666 0.0
H21 H 0.27183 0.2653 0.23985 0.0
H22 H 0.23739 0.32421 0.21178 0.0
H23 H 0.23456 0.23236 0.25729 0.0
H24 H 0.1382 0.22957 0.24149 0.0
O25 O 0.25767 0.30177 0.25867 0.0
O26 O 0.20676 0.30489 0.26277 0.0
O27 O 0.18152 0.29483 0.23009 0.0
C28 C 0.236 0.30494 0.26815 0.0
H29 H 0.28445 0.44002 0.24539 0.0
H30 H 0.18004 0.16326 0.2582 0.0
H31 H 0.2754 0.32136 0.19161 0.0
H32 H 0.30975 0.26139 0.22056 0.0
Co33 Co 0.93112 0.21709 0.57059 0.0
C34 C 0.91766 0.27974 0.5757 0.0
C35 C 0.87567 0.24051 0.56124 0.0
C36 C 0.87353 0.27284 0.5615 0.0
N37 N 0.90462 0.24542 0.56969 0.0
N38 N 0.90046 0.29769 0.5705 0.0
H39 H 0.94224 0.29339 0.58254 0.0
H40 H 0.85789 0.21601 0.55486 0.0
C41 C 0.88173 0.17092 0.54472 0.0
O42 O 0.89362 0.20149 0.53688 0.0
N43 N 0.95875 0.19114 0.57205 0.0
C44 C 0.99597 0.208 0.5738 0.0
C45 C 0.00602 0.18123 0.57488 0.0
C46 C 0.94651 0.15425 0.57202 0.0
N47 N 0.975 0.14758 0.57375 0.0
C48 C 0.97913 0.28087 0.55309 0.0
C49 C 0.99602 0.24306 0.53222 0.0
C50 C 0.01623 0.28211 0.53245 0.0
C51 C 0.00647 0.30097 0.54266 0.0
C52 C 0.96845 0.22392 0.54278 0.0
N53 N 0.9604 0.2428 0.55319 0.0
H54 H 0.97591 0.29642 0.56183 0.0
H55 H 0.95524 0.19389 0.54314 0.0
H56 H 0.01457 0.23783 0.57415 0.0
H57 H 0.9176 0.13285 0.57096 0.0
O58 O 0.96435 0.25124 0.58529 0.0
O59 O 0.91149 0.19982 0.59041 0.0
O60 O 0.89149 0.17318 0.55834 0.0
C61 C 0.94167 0.22897 0.59525 0.0
H62 H 0.8547 0.27814 0.55505 0.0
H63 H 0.03406 0.18608 0.57611 0.0
H64 H 1.00311 0.22746 0.52458 0.0
H65 H 0.02228 0.33104 0.54354 0.0
Co66 Co 0.70685 0.92387 0.90767 0.0
C67 C 0.63248 0.90363 0.9188 0.0
C68 C 0.62701 0.86771 0.90096 0.0
C69 C 0.59325 0.86613 0.90309 0.0
N70 N 0.65251 0.89289 0.91035 0.0
N71 N 0.5972 0.88992 0.91401 0.0
H72 H 0.6445 0.92518 0.92707 0.0
H73 H 0.63256 0.85358 0.89226 0.0
C74 C 0.70184 0.87048 0.88268 0.0
O75 O 0.68089 0.87903 0.87459 0.0
N76 N 0.75978 0.95563 0.90566 0.0
C77 C 0.77792 0.99315 0.90502 0.0
C78 C 0.81547 0.006 0.90457 0.0
C79 C 0.78631 0.94605 0.90581 0.0
N80 N 0.8206 0.97636 0.90502 0.0
C81 C 0.67621 0.96065 0.89076 0.0
C82 C 0.7247 0.9799 0.86729 0.0
C83 C 0.70185 0.99587 0.86838 0.0
C84 C 0.67617 0.98451 0.87995 0.0
C85 C 0.72346 0.95567 0.87825 0.0
N86 N 0.69983 0.94669 0.89 0.0
H87 H 0.65932 0.95618 0.90033 0.0
H88 H 0.74338 0.94613 0.87777 0.0
H89 H 0.76463 0.00993 0.90491 0.0
H90 H 0.78072 0.91774 0.90691 0.0
O91 O 0.70837 0.95929 0.92194 0.0
O92 O 0.71514 0.91096 0.92746 0.0
O93 O 0.71109 0.8835 0.89588 0.0
C94 C 0.71493 0.94079 0.93195 0.0
H95 H 0.56913 0.85196 0.89598 0.0
H96 H 0.83727 0.03486 0.90373 0.0
H97 H 0.7457 0.98844 0.85877 0.0
H98 H 0.65808 0.99616 0.88129 0.0
Co99 Co 0.77962 0.71433 0.23361 0.0
C100 C 0.72262 0.63728 0.24105 0.0
C101 C 0.75954 0.6362 0.22491 0.0
C102 C 0.72902 0.60076 0.22624 0.0
N103 N 0.7548 0.65964 0.2338 0.0
N104 N 0.70537 0.60171 0.23622 0.0
H105 H 0.70936 0.64764 0.24836 0.0
H106 H 0.7823 0.64402 0.21736 0.0
C107 C 0.82319 0.71244 0.20658 0.0
O108 O 0.79192 0.69393 0.19916 0.0
N109 N 0.80248 0.7679 0.23396 0.0
C110 C 0.78358 0.78641 0.23549 0.0
C111 C 0.80755 0.82361 0.23317 0.0
C112 C 0.83792 0.79413 0.23107 0.0
N113 N 0.84144 0.82825 0.23034 0.0
C114 C 0.7114 0.69327 0.21851 0.0
C115 C 0.74189 0.75257 0.19916 0.0
C116 C 0.70364 0.7349 0.20222 0.0
C117 C 0.68818 0.70311 0.21113 0.0
C118 C 0.76414 0.74131 0.20657 0.0
N119 N 0.74919 0.71362 0.21696 0.0
H120 H 0.69871 0.67225 0.22682 0.0
H121 H 0.79395 0.75823 0.20533 0.0
H122 H 0.75397 0.77349 0.23744 0.0
H123 H 0.86025 0.78839 0.22895 0.0
O124 O 0.74711 0.71307 0.24905 0.0
O125 O 0.80118 0.71621 0.25305 0.0
O126 O 0.82234 0.7195 0.22036 0.0
C127 C 0.77191 0.71595 0.2585 0.0
H128 H 0.7237 0.57679 0.21965 0.0
H129 H 0.80068 0.84559 0.23346 0.0
H130 H 0.75537 0.77743 0.19241 0.0
H131 H 0.65872 0.68815 0.21362 0.0
Co132 Co 0.07224 0.77036 0.57351 0.0
C133 C 0.0954 0.71655 0.57992 0.0
C134 C 0.12858 0.75367 0.56275 0.0
C135 C 0.12963 0.72098 0.56152 0.0
N136 N 0.10601 0.75057 0.57406 0.0
N137 N 0.10839 0.69755 0.57227 0.0
H138 H 0.07319 0.70291 0.58787 0.0
H139 H 0.13844 0.77514 0.5544 0.0
C140 C 0.09547 0.82657 0.54846 0.0
O141 O 0.05997 0.81173 0.5453 0.0
N142 N 0.03652 0.78729 0.57307 0.0
C143 C 0.9994 0.7656 0.57141 0.0
C144 C 0.98364 0.78788 0.57134 0.0
C145 C 0.04272 0.82233 0.57462 0.0
N146 N 0.01091 0.82347 0.5732 0.0
C147 C 0.01913 0.69774 0.56331 0.0
C148 C 0.02852 0.71018 0.53339 0.0
C149 C 0.99926 0.67579 0.53843 0.0
C150 C 0.99727 0.669 0.55363 0.0
C151 C 0.05183 0.73741 0.54354 0.0
N152 N 0.04453 0.73251 0.55834 0.0
H153 H 0.01486 0.69155 0.57491 0.0
H154 H 0.07541 0.76203 0.53927 0.0
H155 H 0.98461 0.73568 0.5702 0.0
H156 H 0.0701 0.84658 0.57595 0.0
O157 O 0.04615 0.74144 0.59071 0.0
O158 O 0.09333 0.79885 0.59178 0.0
O159 O 0.10575 0.81184 0.55867 0.0
C160 C 0.06772 0.76989 0.5988 0.0
H161 H 0.14107 0.71329 0.55232 0.0
H162 H 0.95439 0.77868 0.56991 0.0
H163 H 0.03294 0.71704 0.52178 0.0
H164 H 0.97782 0.6422 0.55824 0.0
Co165 Co 0.29038 0.06019 0.89493 0.0
C166 C 0.36066 0.07511 0.90893 0.0
C167 C 0.3723 0.11336 0.89126 0.0
C168 C 0.40465 0.11336 0.89495 0.0
N169 N 0.34398 0.08803 0.89963 0.0
N170 N 0.39688 0.08826 0.90579 0.0
H171 H 0.3459 0.05286 0.91674 0.0
H172 H 0.36976 0.12864 0.88221 0.0
C173 C 0.30385 0.1196 0.87122 0.0
O174 O 0.32453 0.11047 0.86326 0.0
N175 N 0.23787 0.03123 0.89073 0.0
C176 C 0.21919 0.99414 0.88841 0.0
C177 C 0.1822 0.98259 0.88661 0.0
C178 C 0.21202 0.04183 0.89051 0.0
N179 N 0.17763 0.01251 0.88793 0.0
C180 C 0.31926 0.02083 0.87942 0.0
C181 C 0.27817 0.00813 0.85396 0.0
C182 C 0.29398 0.98561 0.8569 0.0
C183 C 0.31663 0.99409 0.86946 0.0
C184 C 0.28042 0.03378 0.86453 0.0
N185 N 0.30004 0.03922 0.87732 0.0
H186 H 0.33319 0.0231 0.8897 0.0
H187 H 0.26364 0.04677 0.86297 0.0
H188 H 0.23164 0.9766 0.88827 0.0
H189 H 0.21821 0.07016 0.89238 0.0
O190 O 0.28352 0.02117 0.90841 0.0
O191 O 0.27894 0.07024 0.91477 0.0
O192 O 0.29173 0.10441 0.88392 0.0
C193 C 0.27685 0.03891 0.91868 0.0
H194 H 0.43067 0.12758 0.88896 0.0
H195 H 0.16021 0.95406 0.88505 0.0
H196 H 0.26143 0.00395 0.84422 0.0
H197 H 0.32919 0.97769 0.87263 0.0
Co198 Co 0.71351 0.77862 0.43669 0.0
C199 C 0.63873 0.71413 0.42999 0.0
C200 C 0.63428 0.74968 0.44595 0.0
C201 C 0.60127 0.71608 0.44569 0.0
N202 N 0.65875 0.74793 0.43663 0.0
N203 N 0.60441 0.69348 0.43582 0.0
H204 H 0.65051 0.70254 0.42246 0.0
H205 H 0.64008 0.77259 0.45316 0.0
C206 C 0.70669 0.81932 0.46384 0.0
O207 O 0.69032 0.78801 0.47135 0.0
N208 N 0.76729 0.80791 0.4364 0.0
C209 C 0.7904 0.79391 0.43546 0.0
C210 C 0.82624 0.82225 0.4378 0.0
C211 C 0.78941 0.84475 0.43894 0.0
N212 N 0.82548 0.85402 0.44003 0.0
C213 C 0.69949 0.71233 0.45162 0.0
C214 C 0.75185 0.74611 0.47363 0.0
C215 C 0.73528 0.70757 0.47145 0.0
C216 C 0.70761 0.69056 0.46078 0.0
C217 C 0.74247 0.76701 0.46428 0.0
N218 N 0.71684 0.75016 0.45322 0.0
H219 H 0.68215 0.69856 0.44232 0.0
H220 H 0.75797 0.79703 0.46525 0.0
H221 H 0.78156 0.76476 0.43391 0.0
H222 H 0.77936 0.86406 0.44061 0.0
O223 O 0.71637 0.7483 0.4212 0.0
O224 O 0.71213 0.79875 0.4173 0.0
O225 O 0.71354 0.81887 0.45002 0.0
C226 C 0.71561 0.77149 0.4118 0.0
H227 H 0.57777 0.70798 0.45297 0.0
H228 H 0.85095 0.81967 0.43805 0.0
H229 H 0.77408 0.76035 0.4816 0.0
H230 H 0.69463 0.66093 0.45865 0.0
Co231 Co 0.94348 0.71589 0.77652 0.0
C232 C 0.92761 0.64143 0.76699 0.0
C233 C 0.88128 0.63593 0.77931 0.0
C234 C 0.87732 0.60094 0.77745 0.0
N235 N 0.91396 0.66175 0.77335 0.0
N236 N 0.90672 0.6047 0.76972 0.0
H237 H 0.95438 0.65326 0.76162 0.0
H238 H 0.86196 0.64156 0.78508 0.0
C239 C 0.88511 0.70403 0.8005 0.0
O240 O 0.88969 0.67857 0.80729 0.0
N241 N 0.97443 0.76877 0.77928 0.0
C242 C 0.01177 0.7867 0.7807 0.0
C243 C 0.02459 0.82413 0.7822 0.0
C244 C 0.96487 0.79536 0.77987 0.0
N245 N 0.9951 0.82941 0.78172 0.0
C246 C 0.98672 0.69126 0.79233 0.0
C247 C 0.99019 0.72583 0.81878 0.0
C248 C 0.01277 0.70968 0.81689 0.0
C249 C 0.00982 0.69138 0.80349 0.0
C250 C 0.96844 0.72625 0.80707 0.0
N251 N 0.96632 0.70853 0.79407 0.0
H252 H 0.9882 0.68012 0.78182 0.0
H253 H 0.95516 0.74282 0.80822 0.0
H254 H 0.0285 0.77336 0.78066 0.0
H255 H 0.93675 0.79013 0.77857 0.0
O256 O 0.97922 0.71909 0.762 0.0
O257 O 0.92992 0.7243 0.75685 0.0
O258 O 0.90242 0.71843 0.78836 0.0
C259 C 0.95983 0.72475 0.75214 0.0
H260 H 0.85552 0.57504 0.78204 0.0
H261 H 0.0533 0.84578 0.78368 0.0
H262 H 0.99082 0.7401 0.82887 0.0
H263 H 0.02745 0.6798 0.80096 0.0
Co264 Co 0.20827 0.92308 0.09353 0.0
C265 C 0.27894 0.93182 0.10394 0.0
C266 C 0.24097 0.87443 0.09906 0.0
C267 C 0.27556 0.87868 0.10219 0.0
N268 N 0.24297 0.90777 0.10048 0.0
N269 N 0.29946 0.91494 0.10525 0.0
H270 H 0.29062 0.96171 0.10429 0.0
H271 H 0.21661 0.8492 0.09533 0.0
C272 C 0.16279 0.86801 0.11866 0.0
O273 O 0.19066 0.86332 0.12253 0.0
N274 N 0.17498 0.94 0.08642 0.0
C275 C 0.17069 0.94926 0.07253 0.0
C276 C 0.14875 0.96533 0.07294 0.0
C277 C 0.15508 0.95035 0.09503 0.0
N278 N 0.13928 0.96626 0.08706 0.0
C279 C 0.24503 0.99885 0.10138 0.0
C280 C 0.25375 0.99084 0.13117 0.0
C281 C 0.27186 0.02652 0.12486 0.0
C282 C 0.26654 0.03036 0.10986 0.0
C283 C 0.23245 0.95978 0.12221 0.0
N284 N 0.22907 0.9641 0.10744 0.0
H285 H 0.24214 1.00226 0.08971 0.0
H286 H 0.22069 0.9325 0.12701 0.0
H287 H 0.18352 0.94628 0.06269 0.0
H288 H 0.15402 0.94831 0.10696 0.0
O289 O 0.24263 0.94824 0.0776 0.0
O290 O 0.19581 0.89035 0.07626 0.0
O291 O 0.16637 0.88948 0.10781 0.0
C292 C 0.22424 0.91825 0.06977 0.0
H293 H 0.28273 0.85692 0.10172 0.0
H294 H 0.14086 0.97621 0.06362 0.0
H295 H 0.25717 0.98689 0.14277 0.0
H296 H 0.27922 0.05754 0.10467 0.0
Co297 Co 0.29841 0.22805 0.44417 0.0
C298 C 0.37603 0.27836 0.43466 0.0
C299 C 0.37503 0.24177 0.45148 0.0
C300 C 0.41112 0.27084 0.44987 0.0
N301 N 0.3524 0.24733 0.44241 0.0
N302 N 0.4115 0.29431 0.43948 0.0
H303 H 0.36697 0.29272 0.42728 0.0
H304 H 0.36628 0.21986 0.4595 0.0
C305 C 0.29708 0.17806 0.46967 0.0
O306 O 0.31868 0.20757 0.47767 0.0
N307 N 0.2457 0.21049 0.44527 0.0
C308 C 0.23036 0.23246 0.44467 0.0
C309 C 0.19234 0.21034 0.4446 0.0
C310 C 0.21687 0.17522 0.4455 0.0
N311 N 0.18392 0.17444 0.44512 0.0
C312 C 0.333 0.29563 0.46118 0.0
C313 C 0.28084 0.27093 0.48345 0.0
C314 C 0.30731 0.30912 0.48261 0.0
C315 C 0.33477 0.32085 0.47173 0.0
C316 C 0.28082 0.2463 0.47291 0.0
N317 N 0.30621 0.2588 0.46168 0.0
H318 H 0.35151 0.30699 0.45198 0.0
H319 H 0.25878 0.21751 0.47325 0.0
H320 H 0.2459 0.26257 0.44417 0.0
H321 H 0.21988 0.15074 0.44547 0.0
O322 O 0.30178 0.26376 0.42971 0.0
O323 O 0.29087 0.20707 0.42433 0.0
O324 O 0.28944 0.18203 0.45625 0.0
C325 C 0.29456 0.23859 0.4197 0.0
H326 H 0.43461 0.27588 0.4567 0.0
H327 H 0.1724 0.21994 0.44425 0.0
H328 H 0.25838 0.26038 0.4914 0.0
H329 H 0.35588 0.34993 0.47062 0.0
Co330 Co 0.07568 0.29863 0.77205 0.0
C331 C 0.09311 0.37513 0.7646 0.0
C332 C 0.1332 0.37731 0.77999 0.0
C333 C 0.13634 0.4121 0.77925 0.0
N334 N 0.10475 0.35341 0.77128 0.0
N335 N 0.11068 0.41043 0.76968 0.0
H336 H 0.0688 0.36449 0.7576 0.0
H337 H 0.14949 0.37018 0.78708 0.0
C338 C 0.1264 0.30275 0.79779 0.0
O339 O 0.11554 0.32203 0.80579 0.0
N340 N 0.04548 0.24495 0.77242 0.0
C341 C 0.00798 0.2261 0.77166 0.0
C342 C 0.99538 0.18906 0.77414 0.0
C343 C 0.05533 0.21906 0.77517 0.0
N344 N 0.02509 0.18473 0.77642 0.0
C345 C 0.03058 0.32028 0.78841 0.0
C346 C 0.01295 0.26969 0.81108 0.0
C347 C 0.99312 0.28869 0.80964 0.0
C348 C 1.00316 0.31525 0.79849 0.0
C349 C 0.04017 0.27547 0.80071 0.0
N350 N 0.04861 0.30033 0.78939 0.0
H351 H 0.0343 0.3376 0.77904 0.0
H352 H 0.05245 0.25785 0.80119 0.0
H353 H 0.99085 0.23872 0.77006 0.0
H354 H 0.08368 0.22526 0.77689 0.0
O355 O 0.04211 0.29851 0.75726 0.0
O356 O 0.09291 0.29581 0.75229 0.0
O357 O 0.11551 0.29468 0.7843 0.0
C358 C 0.06313 0.29547 0.7474 0.0
H359 H 0.15432 0.43603 0.786 0.0
H360 H 0.96655 0.16703 0.77448 0.0
H361 H 0.00521 0.24809 0.81932 0.0
H362 H 0.9879 0.32989 0.79686 0.0
Co363 Co 0.77977 0.08379 0.10577 0.0
C364 C 0.7196 0.09836 0.10094 0.0
C365 C 0.7582 0.13758 0.1164 0.0
C366 C 0.7242 0.1359 0.11808 0.0
N367 N 0.75511 0.11326 0.10581 0.0
N368 N 0.69963 0.11033 0.10857 0.0
H369 H 0.70704 0.07544 0.09326 0.0
H370 H 0.78151 0.15149 0.12389 0.0
C371 C 0.83299 0.10777 0.13155 0.0
O372 O 0.81814 0.07214 0.13463 0.0
N373 N 0.80207 0.05253 0.10561 0.0
C374 C 0.78469 0.01505 0.10654 0.0
C375 C 0.81103 0.00423 0.10641 0.0
C376 C 0.83859 0.0639 0.10438 0.0
N377 N 0.84483 0.03498 0.10517 0.0
C378 C 0.71196 0.02193 0.11592 0.0
C379 C 0.71951 0.0393 0.14554 0.0
C380 C 0.68941 0.00513 0.14085 0.0
C381 C 0.68442 0.99833 0.12565 0.0
C382 C 0.7453 0.06349 0.13519 0.0
N383 N 0.74348 0.05284 0.12078 0.0
H384 H 0.70779 0.01446 0.10441 0.0
H385 H 0.76672 0.09039 0.13897 0.0
H386 H 0.75506 0.99651 0.10722 0.0
H387 H 0.86017 0.09285 0.10353 0.0
O388 O 0.75179 0.0574 0.08847 0.0
O389 O 0.80725 0.10768 0.08757 0.0
O390 O 0.81944 0.11815 0.12093 0.0
C391 C 0.77912 0.08118 0.08046 0.0
H392 H 0.71713 0.14902 0.12684 0.0
H393 H 0.80571 0.97588 0.10709 0.0
H394 H 0.72416 0.04696 0.15709 0.0
H395 H 0.66023 0.97397 0.12123 0.0
H396 H 0.65881 0.54675 0.21723 0.0
H397 H 0.59098 0.51158 0.21831 0.0
H398 H 0.59389 0.56367 0.25992 0.0
H399 H 0.66163 0.59666 0.25947 0.0
H400 H 0.53858 0.49754 0.2606 0.0
H401 H 0.58102 0.59609 0.22432 0.0
H402 H 0.61455 0.63096 0.20203 0.0
H403 H 0.55169 0.53317 0.1755 0.0
H404 H 0.51795 0.49756 0.19761 0.0
H405 H 0.35209 0.4641 0.25682 0.0
H406 H 0.42068 0.49871 0.25671 0.0
H407 H 0.42037 0.43543 0.21882 0.0
H408 H 0.35233 0.4012 0.21893 0.0
H409 H 0.47379 0.50858 0.21647 0.0
H410 H 0.43143 0.41048 0.25266 0.0
H411 H 0.39641 0.37585 0.27473 0.0
H412 H 0.45868 0.47366 0.30139 0.0
H413 H 0.49366 0.50907 0.27942 0.0
C414 C 0.6452 0.55 0.22683 0.0
C415 C 0.66601 0.5754 0.2381 0.0
C416 C 0.60619 0.53025 0.22732 0.0
C417 C 0.58703 0.53601 0.23891 0.0
C418 C 0.60777 0.5591 0.25071 0.0
C419 C 0.64669 0.57827 0.25037 0.0
C420 C 0.54568 0.51947 0.2385 0.0
C421 C 0.52459 0.50045 0.25099 0.0
C422 C 0.52696 0.52263 0.22594 0.0
C423 C 0.54721 0.54408 0.21264 0.0
C424 C 0.57451 0.58197 0.21375 0.0
C425 C 0.59353 0.60187 0.20115 0.0
C426 C 0.58537 0.58429 0.18739 0.0
C427 C 0.55804 0.54675 0.18617 0.0
C428 C 0.53892 0.5267 0.19872 0.0
C429 C 0.3668 0.45835 0.24829 0.0
C430 C 0.34702 0.42998 0.2379 0.0
C431 C 0.4059 0.47779 0.24831 0.0
C432 C 0.4257 0.46929 0.23786 0.0
C433 C 0.40582 0.44242 0.227 0.0
C434 C 0.36696 0.42285 0.22708 0.0
C435 C 0.46698 0.48685 0.23853 0.0
C436 C 0.48797 0.50597 0.22608 0.0
C437 C 0.48557 0.4839 0.25113 0.0
C438 C 0.46487 0.46254 0.26437 0.0
C439 C 0.43746 0.42469 0.26321 0.0
C440 C 0.41764 0.4049 0.2757 0.0
C441 C 0.42525 0.42257 0.28944 0.0
C442 C 0.45277 0.46003 0.29073 0.0
C443 C 0.47261 0.47997 0.27827 0.0
H444 H 0.40987 0.40721 0.2991 0.0
H445 H 0.60015 0.59977 0.17766 0.0
H446 H 0.06836 0.65315 0.5497 0.0
H447 H 0.03023 0.5848 0.54991 0.0
H448 H 0.06693 0.58294 0.59431 0.0
H449 H 0.10431 0.65158 0.59418 0.0
H450 H 0.06881 0.52915 0.57495 0.0
H451 H 0.98549 0.56939 0.591 0.0
H452 H 0.94921 0.60169 0.59102 0.0
H453 H 0.89656 0.54762 0.55036 0.0
H454 H 0.93308 0.51548 0.54995 0.0
H455 H 0.93871 0.34271 0.59346 0.0
H456 H 0.97304 0.41079 0.59366 0.0
H457 H 0.9303 0.4121 0.55041 0.0
H458 H 0.89634 0.34374 0.54999 0.0
H459 H 0.93159 0.46619 0.56912 0.0
H460 H 0.01753 0.42741 0.553 0.0
H461 H 0.05104 0.39234 0.55443 0.0
H462 H 0.09683 0.4423 0.59645 0.0
H463 H 0.06368 0.47783 0.59525 0.0
C464 C 0.06876 0.63799 0.55937 0.0
C465 C 0.08986 0.65741 0.57182 0.0
C466 C 0.04669 0.59904 0.55956 0.0
C467 C 0.04563 0.57867 0.57214 0.0
C468 C 0.06738 0.59802 0.58447 0.0
C469 C 0.08882 0.63709 0.58439 0.0
C470 C 0.02174 0.53725 0.57241 0.0
C471 C 0.03877 0.51544 0.57385 0.0
C472 C 0.98256 0.5192 0.57068 0.0
C473 C 0.96234 0.54031 0.57037 0.0
C474 C 0.96665 0.56483 0.58193 0.0
C475 C 0.94584 0.58292 0.58207 0.0
C476 C 0.92041 0.57649 0.57075 0.0
C477 C 0.91613 0.5524 0.55916 0.0
C478 C 0.93692 0.53429 0.55896 0.0
C479 C 0.9364 0.35739 0.584 0.0
C480 C 0.91502 0.33754 0.57163 0.0
C481 C 0.95613 0.3964 0.58413 0.0
C482 C 0.95494 0.41668 0.57193 0.0
C483 C 0.93187 0.39709 0.55992 0.0
C484 C 0.91221 0.35793 0.55974 0.0
C485 C 0.97867 0.45816 0.57159 0.0
C486 C 0.96164 0.47997 0.57014 0.0
C487 C 0.01785 0.47625 0.57334 0.0
C488 C 0.03783 0.45497 0.57411 0.0
C489 C 0.03453 0.43071 0.5626 0.0
C490 C 0.05349 0.41078 0.56335 0.0
C491 C 0.07579 0.41484 0.57557 0.0
C492 C 0.07945 0.4391 0.58701 0.0
C493 C 0.06068 0.45924 0.58628 0.0
H494 H 0.09033 0.39927 0.57615 0.0
H495 H 0.90418 0.59037 0.57093 0.0
H496 H 0.47205 0.11876 0.90722 0.0
H497 H 0.50653 0.0854 0.9108 0.0
H498 H 0.40277 0.98177 0.91491 0.0
H499 H 0.3687 0.01459 0.91171 0.0
H500 H 0.44803 0.97957 0.93323 0.0
H501 H 0.45604 0.01106 0.88196 0.0
H502 H 0.47043 0.05237 0.86039 0.0
H503 H 0.58584 0.11178 0.87278 0.0
H504 H 0.57203 0.07112 0.89455 0.0
H505 H 0.52192 0.8587 0.91174 0.0
H506 H 0.48626 0.89168 0.91243 0.0
H507 H 0.58753 0.99531 0.92047 0.0
H508 H 0.62283 0.9632 0.91998 0.0
H509 H 0.54349 0.99664 0.89629 0.0
H510 H 0.53228 0.95977 0.94749 0.0
H511 H 0.51473 0.91493 0.96799 0.0
H512 H 0.40058 0.86054 0.95393 0.0
H513 H 0.41756 0.90469 0.93318 0.0
C514 C 0.45674 0.08894 0.90905 0.0
C515 C 0.41761 0.06963 0.90926 0.0
C516 C 0.4764 0.0698 0.91102 0.0
C517 C 0.4573 0.0308 0.91289 0.0
C518 C 0.41831 0.01176 0.91355 0.0
C519 C 0.39876 0.03082 0.91177 0.0
C520 C 0.47744 0.00935 0.91365 0.0
C521 C 0.46861 0.9831 0.92504 0.0
C522 C 0.50452 0.01384 0.90305 0.0
C523 C 0.51293 0.03832 0.88997 0.0
C524 C 0.48444 0.03312 0.88014 0.0
C525 C 0.4925 0.05639 0.86787 0.0
C526 C 0.52901 0.08476 0.86524 0.0
C527 C 0.55756 0.08985 0.87485 0.0
C528 C 0.54964 0.06669 0.88715 0.0
C529 C 0.5364 0.8884 0.91386 0.0
C530 C 0.57524 0.90799 0.91592 0.0
C531 C 0.51605 0.9072 0.91425 0.0
C532 C 0.53432 0.946 0.91648 0.0
C533 C 0.57286 0.96541 0.91874 0.0
C534 C 0.593 0.94671 0.91859 0.0
C535 C 0.514 0.96708 0.91583 0.0
C536 C 0.52285 0.9932 0.90445 0.0
C537 C 0.48645 0.9619 0.92624 0.0
C538 C 0.47629 0.93522 0.93866 0.0
C539 C 0.50351 0.93797 0.94866 0.0
C540 C 0.49365 0.91274 0.96035 0.0
C541 C 0.45659 0.88481 0.96223 0.0
C542 C 0.4293 0.88212 0.95244 0.0
C543 C 0.43903 0.90724 0.94071 0.0
H544 H 0.44901 0.86533 0.9713 0.0
H545 H 0.5352 0.10274 0.85573 0.0
H546 H 0.57461 0.6463 0.45894 0.0
H547 H 0.54451 0.57809 0.45842 0.0
H548 H 0.55535 0.5809 0.41104 0.0
H549 H 0.58651 0.64949 0.41158 0.0
H550 H 0.47987 0.52396 0.42503 0.0
H551 H 0.61287 0.56911 0.42642 0.0
H552 H 0.6764 0.60494 0.43661 0.0
H553 H 0.63843 0.54695 0.47785 0.0
H554 H 0.57452 0.51124 0.46801 0.0
H555 H 0.42704 0.33556 0.41458 0.0
H556 H 0.46311 0.40366 0.41279 0.0
H557 H 0.49116 0.41042 0.459 0.0
H558 H 0.45583 0.34243 0.4607 0.0
H559 H 0.54793 0.46342 0.44508 0.0
H560 H 0.41849 0.42071 0.44649 0.0
H561 H 0.35285 0.38293 0.43889 0.0
H562 H 0.37945 0.43605 0.39642 0.0
H563 H 0.44557 0.47332 0.40358 0.0
C564 C 0.56994 0.63236 0.44839 0.0
C565 C 0.58251 0.65323 0.43526 0.0
C566 C 0.55303 0.5934 0.44812 0.0
C567 C 0.54777 0.57438 0.4347 0.0
C568 C 0.5591 0.595 0.42152 0.0
C569 C 0.5768 0.63409 0.42182 0.0
C570 C 0.5313 0.53309 0.43455 0.0
C571 C 0.49494 0.51069 0.42917 0.0
C572 C 0.55042 0.51574 0.44052 0.0
C573 C 0.58877 0.53778 0.44652 0.0
C574 C 0.61794 0.56433 0.43772 0.0
C575 C 0.65407 0.58451 0.44342 0.0
C576 C 0.66145 0.5782 0.45787 0.0
C577 C 0.63269 0.55179 0.46666 0.0
C578 C 0.59651 0.53158 0.46103 0.0
C579 C 0.44161 0.35159 0.42426 0.0
C580 C 0.43854 0.33349 0.43776 0.0
C581 C 0.46201 0.39057 0.42327 0.0
C582 C 0.47927 0.41247 0.43584 0.0
C583 C 0.47811 0.39435 0.44913 0.0
C584 C 0.45802 0.35534 0.45008 0.0
C585 C 0.49649 0.45402 0.43539 0.0
C586 C 0.53287 0.47655 0.44078 0.0
C587 C 0.47697 0.47148 0.42984 0.0
C588 C 0.43713 0.44953 0.42552 0.0
C589 C 0.41044 0.42411 0.43547 0.0
C590 C 0.37314 0.40271 0.43123 0.0
C591 C 0.36203 0.4069 0.41713 0.0
C592 C 0.38818 0.43262 0.40728 0.0
C593 C 0.42559 0.45387 0.41142 0.0
H594 H 0.33315 0.39033 0.41386 0.0
H595 H 0.68944 0.59371 0.46225 0.0
H596 H 0.93774 0.59267 0.74573 0.0
H597 H 0.97109 0.55753 0.74486 0.0
H598 H 0.94273 0.52606 0.79041 0.0
H599 H 0.90847 0.56026 0.79114 0.0
H600 H 0.02519 0.56585 0.78089 0.0
H601 H 0.90296 0.46092 0.77014 0.0
H602 H 0.84436 0.4278 0.75605 0.0
H603 H 0.90569 0.43708 0.71657 0.0
H604 H 0.96474 0.47084 0.73039 0.0
H605 H 0.09943 0.44636 0.79224 0.0
H606 H 0.06431 0.47922 0.79141 0.0
H607 H 0.05217 0.46309 0.74419 0.0
H608 H 0.08577 0.42841 0.74524 0.0
H609 H 0.99001 0.44872 0.75382 0.0
H610 H 0.11087 0.55208 0.76242 0.0
H611 H 0.17203 0.5894 0.77442 0.0
H612 H 0.11843 0.58954 0.81494 0.0
H613 H 0.0569 0.55174 0.80325 0.0
C614 C 0.93777 0.5773 0.75539 0.0
C615 C 0.92009 0.57868 0.76843 0.0
C616 C 0.95693 0.55744 0.75492 0.0
C617 C 0.95944 0.53926 0.76759 0.0
C618 C 0.94102 0.53981 0.78051 0.0
C619 C 0.92115 0.55897 0.78088 0.0
C620 C 0.98329 0.52184 0.7676 0.0
C621 C 0.01738 0.53995 0.77516 0.0
C622 C 0.97377 0.489 0.75957 0.0
C623 C 0.93829 0.46884 0.75126 0.0
C624 C 0.90399 0.45631 0.75842 0.0
C625 C 0.87068 0.43732 0.75049 0.0
C626 C 0.8713 0.43046 0.73541 0.0
C627 C 0.90525 0.44249 0.72824 0.0
C628 C 0.93864 0.46154 0.73612 0.0
C629 C 0.0901 0.45071 0.78164 0.0
C630 C 0.09584 0.43533 0.76876 0.0
C631 C 0.06992 0.46952 0.78115 0.0
C632 C 0.0558 0.47434 0.76769 0.0
C633 C 0.06256 0.45987 0.75474 0.0
C634 C 0.08207 0.44035 0.75529 0.0
C635 C 0.0323 0.49249 0.76726 0.0
C636 C 0.9982 0.47466 0.75958 0.0
C637 C 0.04229 0.52619 0.77488 0.0
C638 C 0.07925 0.54874 0.78199 0.0
C639 C 0.11211 0.55979 0.77393 0.0
C640 C 0.14685 0.58108 0.78067 0.0
C641 C 0.14911 0.59175 0.79544 0.0
C642 C 0.11663 0.5812 0.8035 0.0
C643 C 0.08181 0.55987 0.79682 0.0
H644 H 0.17604 0.60825 0.80064 0.0
H645 H 0.84549 0.41573 0.7293 0.0
H646 H 0.34302 0.98123 0.11902 0.0
H647 H 0.41068 0.01465 0.12141 0.0
H648 H 0.41492 0.9241 0.09983 0.0
H649 H 0.34711 0.89056 0.0972 0.0
H650 H 0.46296 0.95154 0.12367 0.0
H651 H 0.43439 1.00193 0.08072 0.0
H652 H 0.40278 0.03052 0.06761 0.0
H653 H 0.45376 0.12499 0.09671 0.0
H654 H 0.48531 0.0967 0.11012 0.0
H655 H 0.64999 0.0379 0.10161 0.0
H656 H 0.58281 0.00637 0.103 0.0
H657 H 0.58862 0.10658 0.11977 0.0
H658 H 0.65681 0.13936 0.11772 0.0
H659 H 0.53507 0.07602 0.10027 0.0
H660 H 0.56863 0.0295 0.14191 0.0
H661 H 0.59749 1.00032 0.15647 0.0
H662 H 0.53623 0.89895 0.13175 0.0
H663 H 0.50765 0.92774 0.11676 0.0
C664 C 0.35821 0.96836 0.11469 0.0
C665 C 0.33934 0.93326 0.10771 0.0
C666 C 0.39702 0.98754 0.11613 0.0
C667 C 0.41809 0.97221 0.11061 0.0
C668 C 0.39934 0.93658 0.10416 0.0
C669 C 0.36043 0.91735 0.10269 0.0
C670 C 0.45965 0.99385 0.11113 0.0
C671 C 0.47882 0.97856 0.1184 0.0
C672 C 0.48034 0.02972 0.10472 0.0
C673 C 0.46194 0.04705 0.0965 0.0
C674 C 0.4387 0.0287 0.08437 0.0
C675 C 0.42081 0.04486 0.07688 0.0
C676 C 0.42619 0.07951 0.08135 0.0
C677 C 0.44959 0.09813 0.09328 0.0
C678 C 0.46751 0.08207 0.10081 0.0
C679 C 0.63738 0.05381 0.10534 0.0
C680 C 0.65928 0.0917 0.10932 0.0
C681 C 0.5986 0.03529 0.1064 0.0
C682 C 0.58034 0.05372 0.11173 0.0
C683 C 0.60194 0.09157 0.11568 0.0
C684 C 0.64097 0.1103 0.11456 0.0
C685 C 0.53875 0.03357 0.11266 0.0
C686 C 0.51945 0.04912 0.10564 0.0
C687 C 0.51799 0.99801 0.11943 0.0
C688 C 0.53615 0.98096 0.12811 0.0
C689 C 0.56165 1.00115 0.13942 0.0
C690 C 0.57793 0.98465 0.14778 0.0
C691 C 0.56865 0.9478 0.14504 0.0
C692 C 0.54337 0.92749 0.13385 0.0
C693 C 0.52715 0.94391 0.12541 0.0
H694 H 0.58086 0.9349 0.15164 0.0
H695 H 0.41229 0.09196 0.07555 0.0
H696 H 0.28344 0.19434 0.39531 0.0
H697 H 0.2743 0.20723 0.36962 0.0
H698 H 0.28271 0.31091 0.38334 0.0
H699 H 0.29296 0.29885 0.40872 0.0
H700 H 0.22318 0.21598 0.35586 0.0
H701 H 0.3224 0.37676 0.35635 0.0
H702 H 0.37957 0.42332 0.36901 0.0
H703 H 0.40997 0.33996 0.37726 0.0
H704 H 0.3536 0.29314 0.36423 0.0
H705 H 0.18843 0.29249 0.29145 0.0
H706 H 0.19875 0.28354 0.3175 0.0
H707 H 0.30952 0.30619 0.30692 0.0
H708 H 0.29963 0.31565 0.28113 0.0
H709 H 0.31089 0.33688 0.33242 0.0
H710 H 0.23687 0.21714 0.31009 0.0
H711 H 0.18311 0.16858 0.29632 0.0
H712 H 0.10921 0.16532 0.33022 0.0
H713 H 0.16251 0.2144 0.34405 0.0
C714 C 0.28358 0.21997 0.3928 0.0
C715 C 0.28932 0.2457 0.40405 0.0
C716 C 0.27814 0.22724 0.37813 0.0
C717 C 0.27828 0.26033 0.37444 0.0
C718 C 0.28325 0.28558 0.38576 0.0
C719 C 0.28904 0.27855 0.40033 0.0
C720 C 0.27348 0.26876 0.35881 0.0
C721 C 0.24237 0.24245 0.35077 0.0
C722 C 0.29878 0.30308 0.35199 0.0
C723 C 0.33345 0.3313 0.35946 0.0
C724 C 0.34139 0.36839 0.36077 0.0
C725 C 0.37368 0.39484 0.36801 0.0
C726 C 0.39825 0.38455 0.37403 0.0
C727 C 0.39082 0.34786 0.37266 0.0
C728 C 0.35873 0.32137 0.36532 0.0
C729 C 0.21518 0.29623 0.29476 0.0
C730 C 0.24311 0.30459 0.28421 0.0
C731 C 0.22098 0.29081 0.30962 0.0
C732 C 0.25476 0.2936 0.31418 0.0
C733 C 0.28321 0.30376 0.30374 0.0
C734 C 0.27743 0.30907 0.28895 0.0
C735 C 0.26025 0.28442 0.32959 0.0
C736 C 0.29157 0.31054 0.33757 0.0
C737 C 0.2357 0.24961 0.33622 0.0
C738 C 0.20365 0.21972 0.32803 0.0
C739 C 0.20913 0.20625 0.31455 0.0
C740 C 0.17875 0.17863 0.30674 0.0
C741 C 0.14276 0.16393 0.31237 0.0
C742 C 0.1371 0.17677 0.32585 0.0
C743 C 0.16739 0.2045 0.33369 0.0
H744 H 0.11927 0.14255 0.30631 0.0
H745 H 0.4231 0.40502 0.37972 0.0
H746 H 0.0097 0.2766 0.60674 0.0
H747 H 0.0287 0.28662 0.63261 0.0
H748 H 0.91653 0.20754 0.64579 0.0
H749 H 0.89724 0.19656 0.61967 0.0
H750 H 0.95753 0.28279 0.66196 0.0
H751 H 0.96901 0.17628 0.64764 0.0
H752 H 0.99063 0.14357 0.63117 0.0
H753 H 0.10411 0.22848 0.63875 0.0
H754 H 0.08312 0.26206 0.65506 0.0
H755 H 0.99328 0.26817 0.73671 0.0
H756 H 0.97234 0.25615 0.71117 0.0
H757 H 0.08542 0.29739 0.69673 0.0
H758 H 0.10627 0.30749 0.72261 0.0
H759 H 0.04354 0.24147 0.68068 0.0
H760 H 0.03703 0.34917 0.69394 0.0
H761 H 0.02012 0.38818 0.70893 0.0
H762 H 0.90413 0.31015 0.70196 0.0
H763 H 0.92033 0.27036 0.68711 0.0
C764 C 0.98889 0.26139 0.6151 0.0
C765 C 0.95188 0.23575 0.61113 0.0
C766 C 0.99989 0.26714 0.6299 0.0
C767 C 0.9741 0.24778 0.64111 0.0
C768 C 0.93687 0.22277 0.63728 0.0
C769 C 0.92591 0.21646 0.62238 0.0
C770 C 0.9866 0.25347 0.65677 0.0
C771 C 0.97579 0.27321 0.66619 0.0
C772 C 0.01177 0.24243 0.66202 0.0
C773 C 0.02446 0.22186 0.65247 0.0
C774 C 0.99856 0.18813 0.6457 0.0
C775 C 0.0107 0.16941 0.63641 0.0
C776 C 0.04872 0.18399 0.63389 0.0
C777 C 0.07467 0.21725 0.6407 0.0
C778 C 0.06266 0.23612 0.64998 0.0
C779 C 0.0138 0.27487 0.72811 0.0
C780 C 0.05154 0.2892 0.73167 0.0
C781 C 1.00177 0.26816 0.71344 0.0
C782 C 0.02729 0.27675 0.70185 0.0
C783 C 0.06508 0.29068 0.7054 0.0
C784 C 0.07705 0.29661 0.72019 0.0
C785 C 0.01423 0.27064 0.68614 0.0
C786 C 0.02512 0.25099 0.67661 0.0
C787 C 0.98979 0.28261 0.68067 0.0
C788 C 0.97991 0.3066 0.68952 0.0
C789 C 0.00791 0.34019 0.69569 0.0
C790 C 0.99845 0.36247 0.70415 0.0
C791 C 0.96107 0.35161 0.70642 0.0
C792 C 0.93307 0.3185 0.7002 0.0
C793 C 0.94238 0.29609 0.69175 0.0
H794 H 0.95381 0.36889 0.71297 0.0
H795 H 0.05806 0.16947 0.62668 0.0
H796 H 0.71779 0.04478 0.0634 0.0
H797 H 0.71391 0.02439 0.03791 0.0
H798 H 0.83374 0.08173 0.03534 0.0
H799 H 0.8378 0.10296 0.06107 0.0
H800 H 0.80287 0.08645 0.00917 0.0
H801 H 0.78786 0.99017 0.04157 0.0
H802 H 0.76274 0.94788 0.06293 0.0
H803 H 0.65301 0.89734 0.04419 0.0
H804 H 0.67736 0.93979 0.02282 0.0
H805 H 0.74206 0.91669 0.95453 0.0
H806 H 0.76037 0.94351 0.97939 0.0
H807 H 0.72494 0.02267 0.96906 0.0
H808 H 0.70749 0.99666 0.94427 0.0
H809 H 0.72511 0.94964 1.00201 0.0
H810 H 0.7779 0.10465 0.98604 0.0
H811 H 0.80857 0.14663 0.96495 0.0
H812 H 0.85391 0.07844 0.95099 0.0
H813 H 0.82404 0.03639 0.97212 0.0
C814 C 0.74341 0.05365 0.05736 0.0
C815 C 0.77812 0.07531 0.06427 0.0
C816 C 0.74113 0.04178 0.04278 0.0
C817 C 0.77348 0.0507 0.03478 0.0
C818 C 0.80837 0.07427 0.04132 0.0
C819 C 0.81069 0.08652 0.05599 0.0
C820 C 0.77017 0.03354 0.01996 0.0
C821 C 0.78599 0.05656 0.00759 0.0
C822 C 0.74918 0.99437 0.01791 0.0
C823 C 0.73442 0.96834 0.03063 0.0
C824 C 0.75833 0.97019 0.04204 0.0
C825 C 0.74423 0.94618 0.05415 0.0
C826 C 0.70629 0.91997 0.05493 0.0
C827 C 0.68239 0.91766 0.04357 0.0
C828 C 0.69633 0.94167 0.03145 0.0
C829 C 0.73805 0.9397 0.95761 0.0
C830 C 0.72347 0.95462 0.94739 0.0
C831 C 0.74859 0.95508 0.97182 0.0
C832 C 0.74478 0.98569 0.97608 0.0
C833 C 0.72913 0.99976 0.96599 0.0
C834 C 0.71886 0.98462 0.95181 0.0
C835 C 0.75643 1.00264 0.99109 0.0
C836 C 0.74223 0.97953 1.00353 0.0
C837 C 0.77978 0.04161 0.99321 0.0
C838 C 0.79845 0.0672 0.98062 0.0
C839 C 0.7946 0.09873 0.97853 0.0
C840 C 0.81181 0.12252 0.96655 0.0
C841 C 0.83309 0.11516 0.95661 0.0
C842 C 0.83733 0.08406 0.95867 0.0
C843 C 0.82023 0.06022 0.97064 0.0
H844 H 0.84634 0.13358 0.94734 0.0
H845 H 0.69542 0.90141 0.06432 0.0
H846 H 0.74512 0.73226 0.39968 0.0
H847 H 0.75553 0.72524 0.37367 0.0
H848 H 0.70873 0.79382 0.3615 0.0
H849 H 0.69897 0.80187 0.38781 0.0
H850 H 0.68114 0.71913 0.34548 0.0
H851 H 0.79303 0.83382 0.35821 0.0
H852 H 0.84816 0.87273 0.37361 0.0
H853 H 0.88953 0.79789 0.36539 0.0
H854 H 0.83431 0.75818 0.35013 0.0
H855 H 0.72589 0.73775 0.27025 0.0
H856 H 0.71774 0.74849 0.29598 0.0
H857 H 0.79849 0.71709 0.30883 0.0
H858 H 0.80813 0.70793 0.28268 0.0
H859 H 0.80867 0.77286 0.32497 0.0
H860 H 0.70071 0.65775 0.31313 0.0
H861 H 0.64539 0.61386 0.29879 0.0
H862 H 0.59572 0.6817 0.30658 0.0
H863 H 0.65102 0.72634 0.32078 0.0
C864 C 0.73694 0.7459 0.39151 0.0
C865 C 0.7211 0.76759 0.39583 0.0
C866 C 0.74305 0.74191 0.37663 0.0
C867 C 0.733 0.75903 0.36565 0.0
C868 C 0.7167 0.78038 0.36983 0.0
C869 C 0.71123 0.78503 0.38483 0.0
C870 C 0.73956 0.75419 0.34986 0.0
C871 C 0.70894 0.73142 0.34087 0.0
C872 C 0.77594 0.76879 0.3441 0.0
C873 C 0.80935 0.79284 0.35314 0.0
C874 C 0.81371 0.82548 0.35979 0.0
C875 C 0.84501 0.84771 0.36848 0.0
C876 C 0.87229 0.83774 0.37051 0.0
C877 C 0.86836 0.80556 0.36382 0.0
C878 C 0.83708 0.7832 0.35514 0.0
C879 C 0.74187 0.73289 0.27852 0.0
C880 C 0.76736 0.7215 0.27441 0.0
C881 C 0.73701 0.73892 0.29331 0.0
C882 C 0.7567 0.73272 0.30451 0.0
C883 C 0.7827 0.72185 0.30045 0.0
C884 C 0.78813 0.71647 0.28551 0.0
C885 C 0.75013 0.73803 0.32036 0.0
C886 C 0.78076 0.76065 0.32945 0.0
C887 C 0.7137 0.72255 0.32633 0.0
C888 C 0.68019 0.69558 0.31791 0.0
C889 C 0.6781 0.66345 0.3117 0.0
C890 C 0.64673 0.63842 0.30361 0.0
C891 C 0.61709 0.64503 0.30175 0.0
C892 C 0.61872 0.67664 0.30802 0.0
C893 C 0.65006 0.7018 0.3161 0.0
H894 H 0.59283 0.62562 0.29547 0.0
H895 H 0.8965 0.85499 0.37724 0.0
H896 H 0.00442 0.72225 0.61327 0.0
H897 H 0.99063 0.72031 0.63954 0.0
H898 H 0.10068 0.81309 0.64738 0.0
H899 H 0.11455 0.81603 0.62074 0.0
H900 H 0.06045 0.7314 0.66635 0.0
H901 H 0.05684 0.8436 0.65197 0.0
H902 H 0.03649 0.87715 0.63534 0.0
H903 H 0.92218 0.79553 0.64354 0.0
H904 H 0.94192 0.76114 0.66001 0.0
H905 H 0.0297 0.74954 0.74166 0.0
H906 H 0.0512 0.76207 0.71615 0.0
H907 H 0.93967 0.7285 0.70159 0.0
H908 H 0.91847 0.71786 0.72736 0.0
H909 H 0.98404 0.78351 0.68569 0.0
H910 H 0.98141 0.67094 0.69887 0.0
H911 H 0.99484 0.62927 0.7138 0.0
H912 H 0.11194 0.70059 0.70631 0.0
H913 H 0.09924 0.74301 0.69151 0.0
C914 C 0.02585 0.74232 0.62053 0.0
C915 C 0.06069 0.76928 0.6149 0.0
C916 C 0.01781 0.74116 0.63556 0.0
C917 C 0.04455 0.76654 0.64539 0.0
C918 C 0.07964 0.79329 0.63993 0.0
C919 C 0.08751 0.79498 0.62474 0.0
C920 C 0.03519 0.76446 0.66132 0.0
C921 C 0.04454 0.74353 0.67073 0.0
C922 C 0.01276 0.77861 0.66676 0.0
C923 C 1.00088 0.79961 0.65709 0.0
C924 C 0.02738 0.83262 0.65011 0.0
C925 C 0.01596 0.85183 0.64074 0.0
C926 C 0.97806 0.83842 0.63835 0.0
C927 C 0.95152 0.80586 0.64538 0.0
C928 C 0.96282 0.78652 0.65474 0.0
C929 C 0.00971 0.74481 0.73303 0.0
C930 C 0.97228 0.73235 0.73652 0.0
C931 C 0.02202 0.75182 0.71839 0.0
C932 C 0.99701 0.74543 0.70677 0.0
C933 C 0.95963 0.73358 0.71028 0.0
C934 C 0.94745 0.72734 0.72501 0.0
C935 C 0.00986 0.75088 0.69103 0.0
C936 C 1.00062 0.77192 0.68153 0.0
C937 C 0.03165 0.73595 0.6854 0.0
C938 C 0.03939 0.71036 0.69421 0.0
C939 C 0.01004 0.67788 0.70049 0.0
C940 C 0.01752 0.6541 0.70892 0.0
C941 C 0.05423 0.66233 0.71104 0.0
C942 C 0.08353 0.69429 0.70469 0.0
C943 C 0.07621 0.7182 0.69627 0.0
H944 H 0.05996 0.64389 0.71757 0.0
H945 H 0.96927 0.85331 0.63108 0.0
H946 H 0.27267 0.07337 0.94411 0.0
H947 H 0.26423 0.04942 0.9695 0.0
H948 H 0.25488 0.94727 0.95317 0.0
H949 H 0.26408 0.97118 0.92803 0.0
H950 H 0.2106 0.99177 0.98385 0.0
H951 H 0.29332 0.91355 0.97744 0.0
H952 H 0.34486 0.91782 0.96237 0.0
H953 H 0.38783 0.03515 0.95639 0.0
H954 H 0.33702 0.03175 0.97166 0.0
H955 H 0.17496 0.87961 0.04742 0.0
H956 H 0.18387 0.89563 0.02104 0.0
H957 H 0.29827 0.97854 0.02948 0.0
H958 H 0.28946 0.9628 0.05572 0.0
H959 H 0.29179 0.94493 1.00299 0.0
H960 H 0.23543 0.00584 0.02826 0.0
H961 H 0.18897 0.01014 0.04378 0.0
H962 H 0.1024 0.93982 0.01344 0.0
H963 H 0.1485 0.93513 0.99772 0.0
C964 C 0.26868 0.04578 0.94596 0.0
C965 C 0.26935 0.02435 0.93405 0.0
C966 C 0.2638 0.03206 0.96047 0.0
C967 C 0.25953 0.99671 0.96333 0.0
C968 C 0.25894 0.9749 0.95136 0.0
C969 C 0.26405 0.98863 0.93694 0.0
C970 C 0.25613 0.98263 0.97878 0.0
C971 C 0.22829 0.9814 0.98797 0.0
C972 C 0.2796 0.96964 0.98436 0.0
C973 C 0.31107 0.97227 0.97558 0.0
C974 C 0.31391 0.94031 0.973 0.0
C975 C 0.34299 0.94258 0.96441 0.0
C976 C 0.36952 0.97671 0.95838 0.0
C977 C 0.3672 0.00871 0.96103 0.0
C978 C 0.33826 0.00662 0.96965 0.0
C979 C 0.20231 0.90031 0.04355 0.0
C980 C 0.23149 0.91995 0.05365 0.0
C981 C 0.2073 0.90978 0.0285 0.0
C982 C 0.24162 0.93876 0.02327 0.0
C983 C 0.27153 0.9562 0.03319 0.0
C984 C 0.26645 0.94709 0.04821 0.0
C985 C 0.24571 0.95329 0.00788 0.0
C986 C 0.27381 0.95483 0.99875 0.0
C987 C 0.22315 0.96742 1.00245 0.0
C988 C 0.1953 0.96981 0.01192 0.0
C989 C 0.20644 0.99105 0.02497 0.0
C990 C 0.18018 0.99363 0.03378 0.0
C991 C 0.14269 0.9751 0.02964 0.0
C992 C 0.13143 0.95408 0.01665 0.0
C993 C 0.15762 0.95153 0.00776 0.0
H994 H 0.12239 0.97715 0.03647 0.0
H995 H 0.39191 0.97837 0.95169 0.0
H996 H 0.11828 0.11961 0.26327 0.0
H997 H 0.06486 0.06077 0.25546 0.0
H998 H 0.04214 0.11741 0.22056 0.0
H999 H 0.09641 0.17642 0.22798 0.0
H1000 H 0.9772 0.0602 0.23737 0.0
H1001 H 0.08186 0.07675 0.2092 0.0
H1002 H 0.14691 0.09227 0.20544 0.0
H1003 H 0.1299 1.00262 0.23415 0.0
H1004 H 0.06486 0.98689 0.23826 0.0
H1005 H 0.8468 0.88137 0.21186 0.0
H1006 H 0.89991 0.94476 0.20964 0.0
H1007 H 0.96208 0.91674 0.24024 0.0
H1008 H 0.90942 0.85296 0.2419 0.0
H1009 H 0.00721 0.9643 0.22029 0.0
H1010 H 0.90703 0.95512 0.25165 0.0
H1011 H 0.84184 0.93876 0.25593 0.0
H1012 H 0.85047 0.01425 0.22164 0.0
H1013 H 0.91562 0.03074 0.21705 0.0
C1014 C 0.10191 0.11966 0.25398 0.0
C1015 C 0.11199 0.15258 0.2461 0.0
C1016 C 0.07136 0.08609 0.24957 0.0
C1017 C 0.0502 0.08492 0.23731 0.0
C1018 C 0.05843 0.11797 0.23002 0.0
C1019 C 0.08929 0.15163 0.23434 0.0
C1020 C 0.02081 0.0486 0.23178 0.0
C1021 C 0.98362 0.0394 0.23332 0.0
C1022 C 0.02952 0.02165 0.22663 0.0
C1023 C 0.06855 0.03082 0.22412 0.0
C1024 C 0.09207 0.06052 0.21481 0.0
C1025 C 0.12893 0.06932 0.21259 0.0
C1026 C 0.14256 0.04849 0.21957 0.0
C1027 C 0.11931 0.01874 0.22876 0.0
C1028 C 0.08243 0.00984 0.23101 0.0
C1029 C 0.87219 0.88881 0.21785 0.0
C1030 C 0.87422 0.86293 0.22723 0.0
C1031 C 0.90237 0.92484 0.2166 0.0
C1032 C 0.93449 0.93567 0.22509 0.0
C1033 C 0.93745 0.90897 0.23364 0.0
C1034 C 0.90751 0.87268 0.23463 0.0
C1035 C 0.96344 0.97534 0.22635 0.0
C1036 C 1.00066 0.98525 0.22402 0.0
C1037 C 0.95472 0.00289 0.23084 0.0
C1038 C 0.91603 0.99393 0.23394 0.0
C1039 C 0.89498 0.96819 0.24502 0.0
C1040 C 0.85806 0.95889 0.2475 0.0
C1041 C 0.84203 0.97546 0.23906 0.0
C1042 C 0.86293 1.00146 0.22817 0.0
C1043 C 0.89986 0.01082 0.22563 0.0
H1044 H 0.8134 0.96811 0.24095 0.0
H1045 H 0.1711 0.05535 0.21785 0.0
H1046 H 0.93155 0.08729 0.55689 0.0
H1047 H 0.93526 0.03006 0.55521 0.0
H1048 H 0.01929 0.07166 0.58935 0.0
H1049 H 0.01615 0.12889 0.59075 0.0
H1050 H 0.04053 0.04683 0.56649 0.0
H1051 H 0.92678 1.00067 0.59563 0.0
H1052 H 0.86295 0.98872 0.59982 0.0
H1053 H 0.82615 0.92361 0.56005 0.0
H1054 H 0.88985 0.93544 0.55558 0.0
H1055 H 0.05015 0.88805 0.58823 0.0
H1056 H 0.04252 0.94292 0.58674 0.0
H1057 H 0.95602 0.88719 0.55408 0.0
H1058 H 0.96311 0.83225 0.55581 0.0
H1059 H 0.93457 0.91855 0.5733 0.0
H1060 H 0.04493 0.95823 0.54501 0.0
H1061 H 0.10846 0.9712 0.53931 0.0
H1062 H 0.15198 0.04965 0.57507 0.0
H1063 H 0.08869 0.03669 0.58117 0.0
C1064 C 0.9503 0.08376 0.56416 0.0
C1065 C 0.97372 0.11236 0.57389 0.0
C1066 C 0.95247 0.05121 0.56319 0.0
C1067 C 0.97757 0.04664 0.57217 0.0
C1068 C 0.99999 0.07475 0.58223 0.0
C1069 C 0.99816 0.10734 0.58305 0.0
C1070 C 0.98179 0.01334 0.57086 0.0
C1071 C 0.01748 0.01876 0.56814 0.0
C1072 C 0.9514 0.97673 0.57237 0.0
C1073 C 0.91306 0.96915 0.57522 0.0
C1074 C 0.90508 0.98393 0.58776 0.0
C1075 C 0.86894 0.97715 0.59019 0.0
C1076 C 0.84053 0.95547 0.58019 0.0
C1077 C 0.84817 0.9404 0.56778 0.0
C1078 C 0.88426 0.94707 0.56531 0.0
C1079 C 0.02973 0.88775 0.58069 0.0
C1080 C 0.00706 0.85596 0.57222 0.0
C1081 C 0.02544 0.91906 0.57979 0.0
C1082 C 0.99895 0.9193 0.57017 0.0
C1083 C 0.97653 0.8876 0.56161 0.0
C1084 C 0.9805 0.8562 0.56265 0.0
C1085 C 0.99364 0.95205 0.5694 0.0
C1086 C 0.95771 0.94655 0.5716 0.0
C1087 C 0.02381 0.98861 0.56722 0.0
C1088 C 0.06193 0.99618 0.56364 0.0
C1089 C 0.06798 0.97798 0.55175 0.0
C1090 C 0.10398 0.98538 0.54843 0.0
C1091 C 0.13419 0.01114 0.55686 0.0
C1092 C 0.12852 0.02964 0.56858 0.0
C1093 C 0.0926 0.02228 0.57197 0.0
H1094 H 0.16201 0.01681 0.55434 0.0
H1095 H 0.81258 0.95031 0.58209 0.0
H1096 H 0.11419 0.96208 0.87427 0.0
H1097 H 0.05298 0.95565 0.8768 0.0
H1098 H 0.09995 0.05568 0.90326 0.0
H1099 H 0.16121 0.061 0.90154 0.0
H1100 H 0.04148 1.00252 0.91624 0.0
H1101 H 0.0525 0.05683 0.866 0.0
H1102 H 0.07042 0.06346 0.83971 0.0
H1103 H 0.00624 0.94466 0.83424 0.0
H1104 H 0.98827 0.93756 0.86059 0.0
H1105 H 0.88669 0.03054 0.91539 0.0
H1106 H 0.94702 0.03442 0.91247 0.0
H1107 H 0.89397 0.92785 0.89033 0.0
H1108 H 0.83352 0.92427 0.89291 0.0
H1109 H 0.95385 0.9814 0.87516 0.0
H1110 H 0.9267 0.93431 0.92458 0.0
H1111 H 0.90823 0.93245 0.95057 0.0
H1112 H 1.00283 0.04118 0.95782 0.0
H1113 H 0.0216 0.04395 0.9318 0.0
C1114 C 0.1116 0.98276 0.88063 0.0
C1115 C 0.14259 0.0118 0.88785 0.0
C1116 C 0.07659 0.97942 0.88184 0.0
C1117 C 0.0719 0.00549 0.89002 0.0
C1118 C 0.10297 0.03528 0.89685 0.0
C1119 C 0.13805 0.03846 0.89576 0.0
C1120 C 0.03412 0.9996 0.8926 0.0
C1121 C 0.02253 0.9985 0.90725 0.0
C1122 C 0.00886 0.99296 0.88093 0.0
C1123 C 0.02001 0.9967 0.86526 0.0
C1124 C 0.04271 0.03218 0.8592 0.0
C1125 C 0.05263 0.03602 0.84428 0.0
C1126 C 0.03972 0.00447 0.83532 0.0
C1127 C 0.01647 0.96905 0.84122 0.0
C1128 C 0.00639 0.96512 0.85613 0.0
C1129 C 0.8879 0.00794 0.90993 0.0
C1130 C 0.85552 0.97717 0.90433 0.0
C1131 C 0.92227 0.01 0.9084 0.0
C1132 C 0.92477 0.98126 0.9013 0.0
C1133 C 0.89244 0.95019 0.8959 0.0
C1134 C 0.85799 0.94806 0.89747 0.0
C1135 C 0.96151 0.98488 0.89877 0.0
C1136 C 0.97279 0.98534 0.88416 0.0
C1137 C 0.98647 0.99114 0.9105 0.0
C1138 C 0.97539 0.98945 0.92619 0.0
C1139 C 0.94342 0.95795 0.93168 0.0
C1140 C 0.93292 0.95671 0.94643 0.0
C1141 C 0.9543 0.98671 0.95583 0.0
C1142 C 0.98629 0.01798 0.95052 0.0
C1143 C 0.99689 0.01938 0.93577 0.0
H1144 H 0.94612 0.9857 0.96724 0.0
H1145 H 0.04761 0.00749 0.82382 0.0
H1146 H 0.88171 0.86804 0.45857 0.0
H1147 H 0.93952 0.92751 0.46178 0.0
H1148 H 0.89843 0.98024 0.43212 0.0
H1149 H 0.84013 0.92059 0.42909 0.0
H1150 H 0.96583 0.98682 0.42344 0.0
H1151 H 0.91962 0.01903 0.4661 0.0
H1152 H 0.89043 0.01329 0.49041 0.0
H1153 H 0.96508 0.98203 0.51006 0.0
H1154 H 0.99551 0.98877 0.48591 0.0
H1155 H 0.12392 0.16778 0.43077 0.0
H1156 H 0.06063 0.11452 0.43126 0.0
H1157 H 0.09707 0.0551 0.45951 0.0
H1158 H 0.16077 0.10869 0.45908 0.0
H1159 H 0.03081 0.05409 0.46913 0.0
H1160 H 0.08093 0.02998 0.42532 0.0
H1161 H 0.11272 0.04544 0.40121 0.0
H1162 H 0.02805 0.06459 0.38309 0.0
H1163 H 0.99603 0.04977 0.40718 0.0
C1164 C 0.88486 0.89253 0.45296 0.0
C1165 C 0.85689 0.88985 0.44343 0.0
C1166 C 0.91765 0.92651 0.45491 0.0
C1167 C 0.92321 0.95825 0.4472 0.0
C1168 C 0.89455 0.95605 0.43821 0.0
C1169 C 0.86137 0.92212 0.43649 0.0
C1170 C 0.96073 0.99174 0.4469 0.0
C1171 C 0.9798 1.00201 0.43339 0.0
C1172 C 0.97925 0.01082 0.45992 0.0
C1173 C 0.95952 0.004 0.4742 0.0
C1174 C 0.92954 0.01057 0.47558 0.0
C1175 C 0.91306 0.00753 0.48935 0.0
C1176 C 0.92582 0.99718 0.50176 0.0
C1177 C 0.95523 0.99003 0.50043 0.0
C1178 C 0.97229 0.99373 0.48673 0.0
C1179 C 0.11843 0.14341 0.43711 0.0
C1180 C 0.14716 0.14233 0.44492 0.0
C1181 C 0.08236 0.11297 0.43731 0.0
C1182 C 0.0743 0.08093 0.44539 0.0
C1183 C 0.10286 0.07965 0.45321 0.0
C1184 C 0.13916 0.11005 0.45288 0.0
C1185 C 0.03583 0.049 0.4457 0.0
C1186 C 0.01675 0.03893 0.45919 0.0
C1187 C 0.01715 0.03036 0.43261 0.0
C1188 C 0.03628 0.03913 0.4181 0.0
C1189 C 0.06926 0.03781 0.41624 0.0
C1190 C 0.08729 0.04639 0.40256 0.0
C1191 C 0.07247 0.05609 0.39064 0.0
C1192 C 0.03953 0.05713 0.39235 0.0
C1193 C 0.02141 0.0486 0.406 0.0
H1194 H 0.08647 0.06273 0.38006 0.0
H1195 H 0.9129 0.9947 0.5124 0.0
H1196 H 0.94658 0.84342 0.79624 0.0
H1197 H 0.95083 0.90435 0.79914 0.0
H1198 H 0.05033 0.95484 0.77241 0.0
H1199 H 0.04673 0.89443 0.77 0.0
H1200 H 0.05948 0.99685 0.79539 0.0
H1201 H 0.96099 0.93203 0.75883 0.0
H1202 H 0.9007 0.88013 0.75032 0.0
H1203 H 0.845 0.90043 0.786 0.0
H1204 H 0.90504 0.95227 0.79479 0.0
H1205 H 0.07346 0.1628 0.76785 0.0
H1206 H 0.06794 0.10197 0.7724 0.0
H1207 H 0.96901 0.06919 0.79834 0.0
H1208 H 0.97406 0.12956 0.79347 0.0
H1209 H 0.95639 0.01704 0.77964 0.0
H1210 H 0.0525 0.08688 0.81431 0.0
H1211 H 0.11189 0.13878 0.82326 0.0
H1212 H 0.17166 0.10922 0.79253 0.0
H1213 H 0.11242 0.05718 0.78328 0.0
C1214 C 0.96912 0.86761 0.79094 0.0
C1215 C 0.9963 0.86448 0.78287 0.0
C1216 C 0.97158 0.90231 0.7926 0.0
C1217 C 1.00074 0.93408 0.78588 0.0
C1218 C 0.02774 0.93077 0.77777 0.0
C1219 C 0.02564 0.89632 0.77635 0.0
C1220 C 0.00336 0.97094 0.78703 0.0
C1221 C 0.03706 1.00138 0.79185 0.0
C1222 C 0.97359 0.97653 0.78296 0.0
C1223 C 0.9375 0.94575 0.77754 0.0
C1224 C 0.93589 0.9253 0.76489 0.0
C1225 C 0.90178 0.89592 0.76002 0.0
C1226 C 0.86906 0.88693 0.76764 0.0
C1227 C 0.87036 0.9074 0.78012 0.0
C1228 C 0.90441 0.9368 0.78504 0.0
C1229 C 0.05093 0.14273 0.77469 0.0
C1230 C 0.02399 0.15058 0.78019 0.0
C1231 C 0.04781 0.10808 0.77733 0.0
C1232 C 0.01815 0.08109 0.7858 0.0
C1233 C 0.99198 0.08949 0.79172 0.0
C1234 C 0.99482 0.12388 0.7889 0.0
C1235 C 0.01297 0.04326 0.7876 0.0
C1236 C 0.97874 0.01259 0.78337 0.0
C1237 C 0.04218 0.03745 0.79232 0.0
C1238 C 0.07796 0.06835 0.798 0.0
C1239 C 0.07828 0.09161 0.80937 0.0
C1240 C 0.11197 0.12106 0.81452 0.0
C1241 C 0.14559 0.12754 0.80839 0.0
C1242 C 0.14558 0.10426 0.79723 0.0
C1243 C 0.11195 0.07471 0.79206 0.0
H1244 H 0.17166 0.15051 0.81228 0.0
H1245 H 0.84268 0.86415 0.76385 0.0
H1246 H 0.90791 0.08492 0.0912 0.0
H1247 H 0.96708 0.08515 0.09067 0.0
H1248 H 0.92054 0.98875 0.11913 0.0
H1249 H 0.86174 0.98879 0.11988 0.0
H1250 H 0.99225 0.03946 0.12666 0.0
H1251 H 0.92203 0.97869 0.08228 0.0
H1252 H 0.88885 0.97589 0.05926 0.0
H1253 H 0.98782 0.06986 0.04215 0.0
H1254 H 0.02144 0.07352 0.06516 0.0
H1255 H 0.08708 0.94067 0.10851 0.0
H1256 H 0.04571 0.96527 0.11459 0.0
H1257 H 0.10494 0.05552 0.08386 0.0
H1258 H 0.14529 0.03037 0.07741 0.0
H1259 H 0.03359 0.01891 0.07797 0.0
H1260 H 0.10728 0.07038 0.12081 0.0
H1261 H 0.13973 0.07469 0.14415 0.0
H1262 H 0.03548 1.0 0.16487 0.0
H1263 H 1.00243 0.99419 0.14153 0.0
C1264 C 0.91054 0.06412 0.09748 0.0
C1265 C 0.88015 0.0365 0.1054 0.0
C1266 C 0.9442 0.06417 0.09711 0.0
C1267 C 0.94795 0.03673 0.10475 0.0
C1268 C 0.91814 0.01012 0.11316 0.0
C1269 C 0.88447 0.0099 0.11343 0.0
C1270 C 0.98194 0.03398 0.10327 0.0
C1271 C 1.00134 0.03466 0.11607 0.0
C1272 C 0.99421 0.02903 0.08936 0.0
C1273 C 0.9741 0.02665 0.07549 0.0
C1274 C 0.93662 0.99892 0.07364 0.0
C1275 C 0.91775 0.99715 0.0606 0.0
C1276 C 0.93618 0.02275 0.04927 0.0
C1277 C 0.97356 0.0501 0.05095 0.0
C1278 C 0.99253 0.05203 0.06398 0.0
C1279 C 0.09165 0.9662 0.10335 0.0
C1280 C 0.11883 0.98339 0.09235 0.0
C1281 C 0.06831 0.98038 0.1069 0.0
C1282 C 0.07249 0.01237 0.09979 0.0
C1283 C 0.10121 0.03079 0.08948 0.0
C1284 C 0.12406 0.01634 0.08575 0.0
C1285 C 0.04383 0.02341 0.10145 0.0
C1286 C 0.02519 0.0242 0.08862 0.0
C1287 C 0.03231 0.02952 0.11539 0.0
C1288 C 0.05234 0.03157 0.1293 0.0
C1289 C 0.09126 0.05434 0.13025 0.0
C1290 C 0.10978 0.05716 0.14352 0.0
C1291 C 0.08968 0.03767 0.15599 0.0
C1292 C 0.05101 0.01519 0.15521 0.0
C1293 C 0.03239 0.01203 0.14194 0.0
H1294 H 0.10407 0.03996 0.16626 0.0
H1295 H 0.92153 0.02134 0.03918 0.0
H1296 H 0.89799 0.16954 0.12228 0.0
H1297 H 0.95565 0.20558 0.13675 0.0
H1298 H 0.89999 0.14132 0.17545 0.0
H1299 H 0.84305 0.10492 0.16103 0.0
H1300 H 0.94609 0.21903 0.18136 0.0
H1301 H 0.95225 0.11847 0.15647 0.0
H1302 H 0.95455 0.08213 0.13531 0.0
H1303 H 0.05021 0.17967 0.11827 0.0
H1304 H 0.04812 0.21674 0.13918 0.0
H1305 H 0.09593 0.2482 0.22921 0.0
H1306 H 0.03962 0.22745 0.21432 0.0
H1307 H 0.10705 0.2682 0.17501 0.0
H1308 H 0.16289 0.28646 0.18987 0.0
H1309 H 0.05525 0.20636 0.16837 0.0
H1310 H 0.05284 0.30777 0.19225 0.0
H1311 H 0.05387 0.34681 0.21301 0.0
H1312 H 0.9547 0.25425 0.23073 0.0
H1313 H 0.95333 0.2145 0.21017 0.0
C1314 C 0.89788 0.16376 0.13395 0.0
C1315 C 0.86579 0.13457 0.14052 0.0
C1316 C 0.93096 0.18412 0.14219 0.0
C1317 C 0.93242 0.17613 0.15724 0.0
C1318 C 0.89979 0.14818 0.16392 0.0
C1319 C 0.86715 0.1274 0.15565 0.0
C1320 C 0.968 0.19537 0.16597 0.0
C1321 C 0.96996 0.21618 0.17856 0.0
C1322 C 0.99965 0.19256 0.1622 0.0
C1323 C 0.99975 0.1705 0.14931 0.0
C1324 C 0.97342 0.13231 0.1481 0.0
C1325 C 0.97477 0.11154 0.13618 0.0
C1326 C 1.00252 0.12862 0.12547 0.0
C1327 C 0.02874 0.16651 0.12658 0.0
C1328 C 0.02746 0.1874 0.13845 0.0
C1329 C 0.09875 0.25377 0.21746 0.0
C1330 C 0.13399 0.26982 0.21076 0.0
C1331 C 0.06639 0.24182 0.20886 0.0
C1332 C 0.06848 0.24642 0.19337 0.0
C1333 C 0.10408 0.26399 0.18685 0.0
C1334 C 0.13623 0.27501 0.19538 0.0
C1335 C 0.03388 0.23063 0.18384 0.0
C1336 C 0.03185 0.21003 0.17113 0.0
C1337 C 1.00247 0.23429 0.18735 0.0
C1338 C 1.00318 0.25808 0.19973 0.0
C1339 C 0.0314 0.29567 0.20063 0.0
C1340 C 0.03202 0.31793 0.21235 0.0
C1341 C 0.00442 0.30299 0.2232 0.0
C1342 C 0.97608 0.26577 0.22233 0.0
C1343 C 0.97534 0.24337 0.21063 0.0
H1344 H 0.00495 0.32028 0.23227 0.0
H1345 H 0.00395 0.11253 0.11636 0.0
H1346 H 0.86031 0.1575 0.5157 0.0
H1347 H 0.83013 0.09843 0.50247 0.0
H1348 H 0.8247 0.04026 0.54269 0.0
H1349 H 0.856 0.0999 0.55604 0.0
H1350 H 0.84369 0.01095 0.52089 0.0
H1351 H 0.746 0.03913 0.5268 0.0
H1352 H 0.71565 0.07724 0.5255 0.0
H1353 H 0.72868 0.08452 0.47837 0.0
H1354 H 0.75957 0.04684 0.47941 0.0
H1355 H 0.71056 0.83047 0.49376 0.0
H1356 H 0.73876 0.88933 0.50732 0.0
H1357 H 0.76445 0.9498 0.46629 0.0
H1358 H 0.73665 0.89072 0.45253 0.0
H1359 H 0.73474 0.9771 0.48854 0.0
H1360 H 0.82779 0.94243 0.48327 0.0
H1361 H 0.85566 0.90238 0.48543 0.0
H1362 H 0.84885 0.90469 0.53269 0.0
H1363 H 0.82011 0.94416 0.53084 0.0
C1364 C 0.85248 0.13223 0.52186 0.0
C1365 C 0.86047 0.13382 0.53707 0.0
C1366 C 0.83499 0.09818 0.51421 0.0
C1367 C 0.82433 0.06432 0.52151 0.0
C1368 C 0.83236 0.06573 0.53671 0.0
C1369 C 0.8501 0.09997 0.54439 0.0
C1370 C 0.80522 0.02783 0.51319 0.0
C1371 C 0.81948 0.00335 0.51403 0.0
C1372 C 0.774 0.01782 0.50387 0.0
C1373 C 0.75542 0.04046 0.5032 0.0
C1374 C 0.74265 0.04909 0.51617 0.0
C1375 C 0.7253 0.07058 0.51548 0.0
C1376 C 0.72033 0.08337 0.50187 0.0
C1377 C 0.7326 0.07463 0.48891 0.0
C1378 C 0.74999 0.05318 0.48954 0.0
C1379 C 0.72183 0.85617 0.48754 0.0
C1380 C 0.72112 0.85556 0.47196 0.0
C1381 C 0.73817 0.88996 0.49537 0.0
C1382 C 0.75406 0.92423 0.48789 0.0
C1383 C 0.75242 0.92381 0.47235 0.0
C1384 C 0.7365 0.88993 0.46448 0.0
C1385 C 0.7731 0.96032 0.49633 0.0
C1386 C 0.75886 0.9847 0.49546 0.0
C1387 C 0.80397 0.96989 0.50575 0.0
C1388 C 0.82118 0.94593 0.5069 0.0
C1389 C 0.83152 0.93388 0.49413 0.0
C1390 C 0.84766 0.91136 0.4953 0.0
C1391 C 0.85389 0.90087 0.50919 0.0
C1392 C 0.844 0.91286 0.52194 0.0
C1393 C 0.82778 0.93533 0.52083 0.0
H1394 H 0.86653 0.88356 0.51008 0.0
H1395 H 0.70689 0.1 0.50136 0.0
H1396 H 0.8902 0.77241 0.79654 0.0
H1397 H 0.86029 0.80013 0.81082 0.0
H1398 H 0.79982 0.69808 0.83563 0.0
H1399 H 0.83149 0.67119 0.82192 0.0
H1400 H 0.79824 0.7928 0.81489 0.0
H1401 H 0.77727 0.71073 0.86971 0.0
H1402 H 0.80857 0.68328 0.88384 0.0
H1403 H 0.91234 0.7582 0.86282 0.0
H1404 H 0.88179 0.78641 0.84873 0.0
H1405 H 0.67671 0.82541 0.85828 0.0
H1406 H 0.70668 0.79642 0.84488 0.0
H1407 H 0.79626 0.84093 0.87665 0.0
H1408 H 0.76501 0.86802 0.89057 0.0
H1409 H 0.78784 0.77938 0.86936 0.0
H1410 H 0.80153 0.87979 0.83996 0.0
H1411 H 0.7833 0.91956 0.82621 0.0
H1412 H 0.71547 0.82833 0.79722 0.0
H1413 H 0.7329 0.78785 0.81093 0.0
C1414 C 0.87047 0.75577 0.80499 0.0
C1415 C 0.86359 0.71953 0.80807 0.0
C1416 C 0.8532 0.77172 0.81322 0.0
C1417 C 0.82805 0.75178 0.82468 0.0
C1418 C 0.81988 0.71488 0.82728 0.0
C1419 C 0.83779 0.69925 0.81927 0.0
C1420 C 0.81061 0.76953 0.83386 0.0
C1421 C 0.79598 0.78968 0.8268 0.0
C1422 C 0.80849 0.76701 0.84953 0.0
C1423 C 0.82712 0.75037 0.85805 0.0
C1424 C 0.80679 0.72142 0.86815 0.0
C1425 C 0.8244 0.70572 0.87614 0.0
C1426 C 0.86239 0.7189 0.87419 0.0
C1427 C 0.88289 0.74791 0.86428 0.0
C1428 C 0.86543 0.76374 0.85628 0.0
C1429 C 0.70259 0.82871 0.86254 0.0
C1430 C 0.71842 0.84942 0.87553 0.0
C1431 C 0.72006 0.81239 0.85473 0.0
C1432 C 0.7546 0.81714 0.85936 0.0
C1433 C 0.76983 0.83675 0.87264 0.0
C1434 C 0.75188 0.85241 0.88065 0.0
C1435 C 0.77475 0.80194 0.85035 0.0
C1436 C 0.78996 0.78235 0.85744 0.0
C1437 C 0.77907 0.80658 0.83478 0.0
C1438 C 0.76821 0.83068 0.82657 0.0
C1439 C 0.78248 0.86812 0.83073 0.0
C1440 C 0.77234 0.8908 0.82293 0.0
C1441 C 0.74817 0.87645 0.81087 0.0
C1442 C 0.73414 0.83939 0.80658 0.0
C1443 C 0.74416 0.81657 0.81435 0.0
H1444 H 0.74036 0.89406 0.80484 0.0
H1445 H 0.87595 0.70668 0.88038 0.0
H1446 H 0.09593 0.86487 0.1129 0.0
H1447 H 0.03987 0.83793 0.12821 0.0
H1448 H 0.09468 0.80625 0.16085 0.0
H1449 H 0.15018 0.83172 0.1453 0.0
H1450 H 0.02729 0.75372 0.15996 0.0
H1451 H 0.08167 0.88434 0.16443 0.0
H1452 H 0.10999 0.94879 0.15518 0.0
H1453 H 0.00666 0.9233 0.13457 0.0
H1454 H 0.978 0.85834 0.14331 0.0
H1455 H 0.89393 0.73522 0.21747 0.0
H1456 H 0.95261 0.76118 0.20342 0.0
H1457 H 0.89323 0.75273 0.16325 0.0
H1458 H 0.83476 0.72579 0.177 0.0
H1459 H 0.96468 0.82693 0.16973 0.0
H1460 H 0.91382 0.6925 0.16578 0.0
H1461 H 0.89014 0.62974 0.1763 0.0
H1462 H 0.99304 0.66777 0.19968 0.0
H1463 H 0.01711 0.73095 0.18945 0.0
C1464 C 0.09606 0.852 0.1233 0.0
C1465 C 0.12789 0.85068 0.1278 0.0
C1466 C 0.06389 0.83674 0.13216 0.0
C1467 C 0.06279 0.82045 0.14597 0.0
C1468 C 0.09438 0.81854 0.15033 0.0
C1469 C 0.12635 0.83333 0.14138 0.0
C1470 C 0.02909 0.8059 0.15591 0.0
C1471 C 0.01407 0.77012 0.16219 0.0
C1472 C 0.01135 0.8269 0.15908 0.0
C1473 C 0.02784 0.86631 0.15435 0.0
C1474 C 0.06503 0.89241 0.15785 0.0
C1475 C 0.08119 0.929 0.15267 0.0
C1476 C 0.06028 0.93998 0.14416 0.0
C1477 C 0.02295 0.91462 0.14103 0.0
C1478 C 0.00672 0.87789 0.14609 0.0
C1479 C 0.89336 0.7387 0.20563 0.0
C1480 C 0.85938 0.728 0.1984 0.0
C1481 C 0.92696 0.75362 0.19761 0.0
C1482 C 0.92749 0.75904 0.18223 0.0
C1483 C 0.89372 0.74894 0.17507 0.0
C1484 C 0.86016 0.73326 0.18298 0.0
C1485 C 0.9629 0.77481 0.17347 0.0
C1486 C 0.9782 0.81082 0.16748 0.0
C1487 C 0.98148 0.75449 0.17092 0.0
C1488 C 0.96707 0.71653 0.177 0.0
C1489 C 0.93124 0.68757 0.17328 0.0
C1490 C 0.91779 0.65191 0.17917 0.0
C1491 C 0.94003 0.6448 0.18869 0.0
C1492 C 0.97582 0.67333 0.19232 0.0
C1493 C 0.98938 0.70906 0.18648 0.0
H1494 H 0.92957 0.61717 0.19323 0.0
H1495 H 0.07308 0.96815 0.13998 0.0
H1496 H 0.0863 0.84456 0.52051 0.0
H1497 H 0.12453 0.90232 0.507 0.0
H1498 H 0.20296 0.94379 0.54302 0.0
H1499 H 0.16451 0.88528 0.55669 0.0
H1500 H 0.18252 0.99506 0.53352 0.0
H1501 H 0.2264 0.92005 0.51064 0.0
H1502 H 0.22022 0.86466 0.49787 0.0
H1503 H 0.16491 0.8835 0.46161 0.0
H1504 H 0.17028 0.93872 0.47425 0.0
H1505 H 0.31271 0.16024 0.49688 0.0
H1506 H 0.28215 0.10041 0.5096 0.0
H1507 H 0.21035 0.04983 0.47202 0.0
H1508 H 0.24154 0.10989 0.45902 0.0
H1509 H 0.22917 1.00259 0.48253 0.0
H1510 H 0.18034 0.07313 0.50472 0.0
H1511 H 0.17996 0.1257 0.51731 0.0
H1512 H 0.23718 0.113 0.55442 0.0
H1513 H 0.23849 0.06074 0.54193 0.0
C1514 C 0.11201 0.86564 0.52552 0.0
C1515 C 0.12235 0.86 0.53971 0.0
C1516 C 0.13397 0.89879 0.51771 0.0
C1517 C 0.16694 0.92766 0.52386 0.0
C1518 C 0.17777 0.922 0.53796 0.0
C1519 C 0.15594 0.88838 0.54574 0.0
C1520 C 0.18864 0.96416 0.5158 0.0
C1521 C 0.19338 0.99683 0.52249 0.0
C1522 C 0.2016 0.96647 0.50112 0.0
C1523 C 0.19848 0.93337 0.49346 0.0
C1524 C 0.21266 0.91222 0.49999 0.0
C1525 C 0.20935 0.88088 0.49276 0.0
C1526 C 0.19211 0.87052 0.47895 0.0
C1527 C 0.17823 0.89154 0.47231 0.0
C1528 C 0.18144 0.92289 0.4795 0.0
C1529 C 0.29055 0.13645 0.49121 0.0
C1530 C 0.2797 0.14029 0.47685 0.0
C1531 C 0.27279 0.10206 0.49861 0.0
C1532 C 0.2432 0.07027 0.49201 0.0
C1533 C 0.23292 0.0737 0.47749 0.0
C1534 C 0.25085 0.10821 0.47002 0.0
C1535 C 0.22322 0.03378 0.50029 0.0
C1536 C 0.21862 1.00104 0.49361 0.0
C1537 C 0.20973 0.03124 0.51492 0.0
C1538 C 0.20994 0.06332 0.5223 0.0
C1539 C 0.19325 0.08183 0.51548 0.0
C1540 C 0.19279 0.11152 0.52262 0.0
C1541 C 0.20865 0.12276 0.53664 0.0
C1542 C 0.22502 0.10435 0.54354 0.0
C1543 C 0.22566 0.07472 0.53643 0.0
H1544 H 0.20816 0.14568 0.54216 0.0
H1545 H 0.18958 0.84624 0.47337 0.0
H1546 H 0.25856 0.144 0.88329 0.0
H1547 H 0.23321 0.17932 0.87113 0.0
H1548 H 0.29273 0.185 0.83132 0.0
H1549 H 0.31908 0.15086 0.84353 0.0
H1550 H 0.29249 0.24745 0.83338 0.0
H1551 H 0.19739 0.12194 0.83336 0.0
H1552 H 0.15953 0.05957 0.84434 0.0
H1553 H 0.11562 0.10428 0.87616 0.0
H1554 H 0.15289 0.16698 0.86519 0.0
H1555 H 0.1656 0.27208 0.78491 0.0
H1556 H 0.19935 0.24504 0.79743 0.0
H1557 H 0.16899 0.26957 0.83968 0.0
H1558 H 0.13624 0.29733 0.82737 0.0
H1559 H 0.15559 0.19329 0.83614 0.0
H1560 H 0.25268 0.32173 0.83015 0.0
H1561 H 0.29208 0.37867 0.81578 0.0
H1562 H 0.33246 0.31957 0.78981 0.0
H1563 H 0.29286 0.2621 0.80391 0.0
C1564 C 0.26669 0.15315 0.87201 0.0
C1565 C 0.29087 0.14424 0.86445 0.0
C1566 C 0.25191 0.17322 0.86499 0.0
C1567 C 0.26033 0.18448 0.85011 0.0
C1568 C 0.28558 0.17683 0.84275 0.0
C1569 C 0.30059 0.15705 0.84979 0.0
C1570 C 0.24139 0.20237 0.84207 0.0
C1571 C 0.2625 0.23521 0.83384 0.0
C1572 C 0.20221 0.1867 0.8424 0.0
C1573 C 0.178 0.14905 0.84854 0.0
C1574 C 0.17953 0.11841 0.84267 0.0
C1575 C 0.15825 0.08308 0.84887 0.0
C1576 C 0.13544 0.07811 0.86096 0.0
C1577 C 0.13341 0.10831 0.86678 0.0
C1578 C 0.15437 0.1437 0.86051 0.0
C1579 C 0.1664 0.27205 0.79686 0.0
C1580 C 0.14836 0.28731 0.80507 0.0
C1581 C 0.18573 0.25654 0.80402 0.0
C1582 C 0.18689 0.25528 0.81955 0.0
C1583 C 0.16864 0.27018 0.82772 0.0
C1584 C 0.15002 0.28629 0.82061 0.0
C1585 C 0.20657 0.23805 0.82735 0.0
C1586 C 0.18552 0.20534 0.8356 0.0
C1587 C 0.2456 0.25298 0.8264 0.0
C1588 C 0.26951 0.28752 0.81798 0.0
C1589 C 0.26969 0.32078 0.82129 0.0
C1590 C 0.29212 0.35318 0.81321 0.0
C1591 C 0.31468 0.35272 0.80186 0.0
C1592 C 0.31493 0.31988 0.79859 0.0
C1593 C 0.29252 0.28739 0.80663 0.0
H1594 H 0.33203 0.37783 0.79562 0.0
H1595 H 0.11895 0.05069 0.86565 0.0
H1596 H 0.36746 0.30614 0.20598 0.0
H1597 H 0.39637 0.28128 0.18942 0.0
H1598 H 0.30153 0.24069 0.16025 0.0
H1599 H 0.27312 0.26593 0.1766 0.0
H1600 H 0.36552 0.2106 0.18748 0.0
H1601 H 0.31493 0.21964 0.12749 0.0
H1602 H 0.31815 0.26837 0.11096 0.0
H1603 H 0.41163 0.35192 0.13529 0.0
H1604 H 0.40944 0.30366 0.15185 0.0
H1605 H 0.2567 0.04524 0.15173 0.0
H1606 H 0.29145 0.10524 0.16421 0.0
H1607 H 0.37589 0.14369 0.13035 0.0
H1608 H 0.34084 0.08358 0.11773 0.0
H1609 H 0.35274 0.19092 0.13332 0.0
H1610 H 0.3995 0.13796 0.16641 0.0
H1611 H 0.4 0.09089 0.1829 0.0
H1612 H 0.32307 0.09956 0.21203 0.0
H1613 H 0.3216 0.14624 0.19562 0.0
C1614 C 0.35359 0.29316 0.19572 0.0
C1615 C 0.31781 0.28724 0.19264 0.0
C1616 C 0.37015 0.27908 0.18626 0.0
C1617 C 0.35108 0.25887 0.17365 0.0
C1618 C 0.31719 0.25667 0.16978 0.0
C1619 C 0.30077 0.27097 0.17917 0.0
C1620 C 0.36131 0.23306 0.16653 0.0
C1621 C 0.36358 0.20674 0.1756 0.0
C1622 C 0.3604 0.22879 0.15102 0.0
C1623 C 0.36202 0.2579 0.14094 0.0
C1624 C 0.33644 0.24833 0.12925 0.0
C1625 C 0.33801 0.27591 0.11989 0.0
C1626 C 0.36507 0.31321 0.12208 0.0
C1627 C 0.39064 0.32301 0.13363 0.0
C1628 C 0.38921 0.29555 0.14302 0.0
C1629 C 0.28319 0.06609 0.14719 0.0
C1630 C 0.2959 0.06005 0.13371 0.0
C1631 C 0.30318 0.10035 0.15435 0.0
C1632 C 0.33645 0.12891 0.14825 0.0
C1633 C 0.35031 0.12207 0.13523 0.0
C1634 C 0.33022 0.08786 0.12803 0.0
C1635 C 0.35326 0.16704 0.1544 0.0
C1636 C 0.35624 0.1956 0.14513 0.0
C1637 C 0.35969 0.17371 0.16971 0.0
C1638 C 0.36052 0.14574 0.17976 0.0
C1639 C 0.38255 0.12974 0.1763 0.0
C1640 C 0.38301 0.10311 0.18564 0.0
C1641 C 0.3616 0.09226 0.19851 0.0
C1642 C 0.33971 0.10805 0.20207 0.0
C1643 C 0.33914 0.13469 0.19277 0.0
H1644 H 0.36198 0.07162 0.20572 0.0
H1645 H 0.36622 0.33452 0.11482 0.0
H1646 H 0.07047 0.26433 0.53081 0.0
H1647 H 0.13353 0.30299 0.52163 0.0
H1648 H 0.10713 0.38659 0.50762 0.0
H1649 H 0.0432 0.34777 0.51701 0.0
H1650 H 0.14979 0.35087 0.48717 0.0
H1651 H 0.1586 0.42622 0.52823 0.0
H1652 H 0.14347 0.43717 0.55338 0.0
H1653 H 0.19267 0.37607 0.57152 0.0
H1654 H 0.20748 0.36413 0.54647 0.0
H1655 H 0.32005 0.37748 0.47308 0.0
H1656 H 0.29037 0.41073 0.48263 0.0
H1657 H 0.24926 0.33605 0.51986 0.0
H1658 H 0.28097 0.30382 0.51091 0.0
H1659 H 0.24908 0.40229 0.52535 0.0
H1660 H 0.20292 0.30168 0.48783 0.0
H1661 H 0.21163 0.27631 0.46456 0.0
H1662 H 0.22795 0.37384 0.44137 0.0
H1663 H 0.2196 0.39991 0.46468 0.0
C1664 C 0.07764 0.29046 0.52545 0.0
C1665 C 0.05186 0.30289 0.52447 0.0
C1666 C 0.11379 0.31273 0.52042 0.0
C1667 C 0.12483 0.34772 0.51424 0.0
C1668 C 0.09895 0.35977 0.51256 0.0
C1669 C 0.06261 0.33756 0.51781 0.0
C1670 C 0.16376 0.37038 0.50952 0.0
C1671 C 0.17207 0.36419 0.49522 0.0
C1672 C 0.19226 0.38669 0.52025 0.0
C1673 C 0.18418 0.39431 0.53543 0.0
C1674 C 0.16602 0.41494 0.53757 0.0
C1675 C 0.1575 0.42132 0.55182 0.0
C1676 C 0.16712 0.40734 0.56404 0.0
C1677 C 0.18531 0.38696 0.56204 0.0
C1678 C 0.19385 0.38045 0.54781 0.0
C1679 C 0.30672 0.36929 0.48377 0.0
C1680 C 0.30161 0.33682 0.49094 0.0
C1681 C 0.28966 0.38854 0.48921 0.0
C1682 C 0.26654 0.37498 0.50162 0.0
C1683 C 0.26658 0.34665 0.51011 0.0
C1684 C 0.28419 0.32776 0.50483 0.0
C1685 C 0.23464 0.38126 0.50316 0.0
C1686 C 0.2277 0.39221 0.51689 0.0
C1687 C 0.20691 0.36851 0.49201 0.0
C1688 C 0.21092 0.35277 0.47793 0.0
C1689 C 0.20834 0.31765 0.47775 0.0
C1690 C 0.21329 0.30319 0.46456 0.0
C1691 C 0.22042 0.32345 0.45145 0.0
C1692 C 0.22248 0.3582 0.45153 0.0
C1693 C 0.21764 0.37284 0.46472 0.0
H1694 H 0.22427 0.31222 0.44124 0.0
H1695 H 0.1605 0.41231 0.57507 0.0
H1696 H 0.92596 0.26902 0.79771 0.0
H1697 H 0.86555 0.23135 0.80923 0.0
H1698 H 0.91925 0.23948 0.85105 0.0
H1699 H 0.98021 0.27614 0.83928 0.0
H1700 H 0.8799 0.17174 0.84413 0.0
H1701 H 0.85438 0.27108 0.84547 0.0
H1702 H 0.85022 0.32493 0.83634 0.0
H1703 H 0.77035 0.25564 0.80368 0.0
H1704 H 0.77441 0.20145 0.81246 0.0
H1705 H 0.70324 0.05932 0.87773 0.0
H1706 H 0.73896 0.12041 0.86651 0.0
H1707 H 0.75818 0.07083 0.82816 0.0
H1708 H 0.7214 0.00903 0.83911 0.0
H1709 H 0.75775 0.16434 0.83674 0.0
H1710 H 0.84584 0.09532 0.83332 0.0
H1711 H 0.84852 0.04216 0.84438 0.0
H1712 H 0.805 0.05794 0.88506 0.0
H1713 H 0.80267 0.11128 0.87432 0.0
C1714 C 0.92488 0.26402 0.80949 0.0
C1715 C 0.95766 0.27518 0.81762 0.0
C1716 C 0.89021 0.24258 0.8161 0.0
C1717 C 0.88775 0.23251 0.83102 0.0
C1718 C 0.92051 0.24679 0.83949 0.0
C1719 C 0.95527 0.26767 0.8328 0.0
C1720 C 0.85236 0.2015 0.8368 0.0
C1721 C 0.85344 0.17073 0.84269 0.0
C1722 C 0.81753 0.19969 0.8349 0.0
C1723 C 0.81487 0.23219 0.82959 0.0
C1724 C 0.83612 0.26735 0.83627 0.0
C1725 C 0.83375 0.29795 0.83117 0.0
C1726 C 0.81008 0.29372 0.81942 0.0
C1727 C 0.78867 0.25887 0.81278 0.0
C1728 C 0.79095 0.22818 0.81783 0.0
C1729 C 0.71303 0.06088 0.86654 0.0
C1730 C 0.71047 0.02933 0.85949 0.0
C1731 C 0.73342 0.09605 0.86011 0.0
C1732 C 0.75167 0.10002 0.84668 0.0
C1733 C 0.74432 0.06814 0.8386 0.0
C1734 C 0.72374 0.03291 0.84496 0.0
C1735 C 0.78608 0.13535 0.84361 0.0
C1736 C 0.7846 0.16631 0.83827 0.0
C1737 C 0.82086 0.13805 0.84631 0.0
C1738 C 0.82379 0.10697 0.85299 0.0
C1739 C 0.83711 0.0875 0.84465 0.0
C1740 C 0.83854 0.05732 0.85087 0.0
C1741 C 0.82691 0.04658 0.86543 0.0
C1742 C 0.81401 0.06613 0.87381 0.0
C1743 C 0.81261 0.09632 0.86766 0.0
H1744 H 0.82784 0.02311 0.8702 0.0
H1745 H 0.80829 0.31745 0.81549 0.0
H1746 H 0.70768 0.7745 0.17727 0.0
H1747 H 0.68223 0.81607 0.1742 0.0
H1748 H 0.62462 0.77894 0.21572 0.0
H1749 H 0.65123 0.73877 0.21936 0.0
H1750 H 0.58736 0.79353 0.18557 0.0
H1751 H 0.68117 0.84587 0.22398 0.0
H1752 H 0.74122 0.86104 0.23534 0.0
H1753 H 0.79941 0.92636 0.19742 0.0
H1754 H 0.73967 0.9109 0.18568 0.0
H1755 H 0.67069 0.01022 0.16991 0.0
H1756 H 0.64688 0.9601 0.18828 0.0
H1757 H 0.63203 0.8813 0.15412 0.0
H1758 H 0.65741 0.93012 0.1362 0.0
H1759 H 0.68686 0.92496 0.19287 0.0
H1760 H 0.56704 0.79774 0.16084 0.0
H1761 H 0.51107 0.78531 0.14686 0.0
H1762 H 0.50633 0.87294 0.17028 0.0
H1763 H 0.56178 0.88543 0.18469 0.0
C1764 C 0.68927 0.77477 0.18568 0.0
C1765 C 0.68188 0.75346 0.1986 0.0
C1766 C 0.67456 0.79831 0.18386 0.0
C1767 C 0.65188 0.80054 0.19481 0.0
C1768 C 0.64201 0.77734 0.20716 0.0
C1769 C 0.65712 0.75417 0.20912 0.0
C1770 C 0.64241 0.83027 0.1939 0.0
C1771 C 0.60855 0.82234 0.18742 0.0
C1772 C 0.66982 0.86755 0.19689 0.0
C1773 C 0.70588 0.87703 0.20393 0.0
C1774 C 0.70674 0.86315 0.218 0.0
C1775 C 0.74073 0.87185 0.22451 0.0
C1776 C 0.77409 0.89464 0.2171 0.0
C1777 C 0.77354 0.90872 0.20315 0.0
C1778 C 0.73962 0.90001 0.19656 0.0
C1779 C 0.66191 0.98214 0.16627 0.0
C1780 C 0.66668 0.97471 0.15149 0.0
C1781 C 0.64777 0.95348 0.17677 0.0
C1782 C 0.63733 0.91696 0.17253 0.0
C1783 C 0.63897 0.90906 0.15762 0.0
C1784 C 0.65367 0.93747 0.14727 0.0
C1785 C 0.63283 0.88851 0.18343 0.0
C1786 C 0.66441 0.89635 0.19178 0.0
C1787 C 0.60332 0.85127 0.1821 0.0
C1788 C 0.56864 0.84241 0.17396 0.0
C1789 C 0.55378 0.81399 0.16323 0.0
C1790 C 0.52218 0.80702 0.15517 0.0
C1791 C 0.50512 0.82828 0.15769 0.0
C1792 C 0.51953 0.85644 0.16835 0.0
C1793 C 0.55105 0.86346 0.17647 0.0
H1794 H 0.48079 0.82296 0.15138 0.0
H1795 H 0.80038 0.90149 0.22218 0.0
H1796 H 0.75701 0.6645 0.45703 0.0
H1797 H 0.79273 0.63739 0.46686 0.0
H1798 H 0.78614 0.6757 0.51051 0.0
H1799 H 0.75129 0.70422 0.50051 0.0
H1800 H 0.85388 0.69935 0.50379 0.0
H1801 H 0.74357 0.58055 0.50063 0.0
H1802 H 0.68767 0.53032 0.48855 0.0
H1803 H 0.7562 0.51637 0.45662 0.0
H1804 H 0.81256 0.56694 0.46838 0.0
H1805 H 0.92669 0.62522 0.5461 0.0
H1806 H 0.8734 0.60209 0.53044 0.0
H1807 H 0.94403 0.64705 0.49237 0.0
H1808 H 0.99889 0.6673 0.50784 0.0
H1809 H 0.84271 0.57572 0.49515 0.0
H1810 H 0.9478 0.71872 0.49656 0.0
H1811 H 0.99934 0.76719 0.51146 0.0
H1812 H 0.93175 0.72724 0.55046 0.0
H1813 H 0.88011 0.67881 0.53579 0.0
C1814 C 0.76233 0.66628 0.4688 0.0
C1815 C 0.75153 0.68645 0.47807 0.0
C1816 C 0.78258 0.65056 0.47441 0.0
C1817 C 0.79188 0.65425 0.48943 0.0
C1818 C 0.77923 0.67257 0.49887 0.0
C1819 C 0.75946 0.68888 0.4932 0.0
C1820 C 0.81934 0.64418 0.4948 0.0
C1821 C 0.85106 0.67219 0.50186 0.0
C1822 C 0.81611 0.60888 0.4922 0.0
C1823 C 0.78232 0.57778 0.48533 0.0
C1824 C 0.74674 0.56694 0.49098 0.0
C1825 C 0.71496 0.53839 0.48419 0.0
C1826 C 0.71836 0.52026 0.47179 0.0
C1827 C 0.7536 0.53049 0.46621 0.0
C1828 C 0.78549 0.55905 0.47296 0.0
C1829 C 0.93183 0.62812 0.53437 0.0
C1830 C 0.96797 0.65009 0.52849 0.0
C1831 C 0.90063 0.61443 0.52532 0.0
C1832 C 0.90484 0.62375 0.51036 0.0
C1833 C 0.94033 0.63986 0.50399 0.0
C1834 C 0.97179 0.65249 0.51299 0.0
C1835 C 0.87674 0.63113 0.50379 0.0
C1836 C 0.84518 0.60283 0.49669 0.0
C1837 C 0.87942 0.66595 0.50647 0.0
C1838 C 0.91033 0.6954 0.51514 0.0
C1839 C 0.94407 0.72051 0.50831 0.0
C1840 C 0.97325 0.7479 0.51671 0.0
C1841 C 0.96876 0.75039 0.53189 0.0
C1842 C 0.93521 0.72544 0.53872 0.0
C1843 C 0.90598 0.69809 0.53037 0.0
H1844 H 0.99119 0.77167 0.53836 0.0
H1845 H 0.69371 0.49822 0.46653 0.0
H1846 H 0.3296 0.94404 0.85365 0.0
H1847 H 0.29865 0.87706 0.84877 0.0
H1848 H 0.19876 0.87767 0.83636 0.0
H1849 H 0.22714 0.94268 0.84258 0.0
H1850 H 0.2171 0.82978 0.86593 0.0
H1851 H 0.18119 0.82103 0.80338 0.0
H1852 H 0.214 0.84904 0.7801 0.0
H1853 H 0.31702 0.86911 0.79936 0.0
H1854 H 0.28476 0.84066 0.8227 0.0
H1855 H 0.04992 0.76998 0.83552 0.0
H1856 H 0.11014 0.79209 0.84647 0.0
H1857 H 0.11078 0.6934 0.83194 0.0
H1858 H 0.04793 0.66852 0.82206 0.0
H1859 H 0.16515 0.76494 0.81842 0.0
H1860 H 0.13451 0.70967 0.86502 0.0
H1861 H 0.09823 0.68526 0.88793 0.0
H1862 H 0.12421 0.79574 0.9003 0.0
H1863 H 0.16013 0.82082 0.87739 0.0
C1864 C 0.30104 0.93014 0.84987 0.0
C1865 C 0.28075 0.94922 0.84911 0.0
C1866 C 0.28367 0.89188 0.84689 0.0
C1867 C 0.24647 0.87265 0.84235 0.0
C1868 C 0.22765 0.89228 0.83984 0.0
C1869 C 0.24435 0.92997 0.8433 0.0
C1870 C 0.22428 0.83164 0.84237 0.0
C1871 C 0.20625 0.81481 0.85564 0.0
C1872 C 0.21117 0.81206 0.82896 0.0
C1873 C 0.2305 0.82861 0.81481 0.0
C1874 C 0.21077 0.83105 0.80263 0.0
C1875 C 0.2293 0.84712 0.78942 0.0
C1876 C 0.26757 0.86084 0.78825 0.0
C1877 C 0.28739 0.85851 0.80028 0.0
C1878 C 0.269 0.84247 0.81352 0.0
C1879 C 0.06127 0.75152 0.83526 0.0
C1880 C 0.04394 0.71775 0.82731 0.0
C1881 C 0.09621 0.76451 0.84156 0.0
C1882 C 0.11504 0.74457 0.83984 0.0
C1883 C 0.09666 0.70924 0.8333 0.0
C1884 C 0.06093 0.69547 0.82742 0.0
C1885 C 0.15582 0.76515 0.8418 0.0
C1886 C 0.17717 0.77838 0.82888 0.0
C1887 C 0.1716 0.78179 0.85551 0.0
C1888 C 0.15034 0.76718 0.86947 0.0
C1889 C 0.13245 0.72879 0.8726 0.0
C1890 C 0.11191 0.71482 0.88559 0.0
C1891 C 0.109 0.73894 0.89558 0.0
C1892 C 0.12662 0.7771 0.89258 0.0
C1893 C 0.1472 0.79124 0.8796 0.0
H1894 H 0.09305 0.72806 0.90562 0.0
H1895 H 0.28186 0.8733 0.77801 0.0
loop_
_geom_bond_atom_site_label_1
_geom_bond_atom_site_label_2
_geom_bond_distance
_geom_bond_site_symmetry_2
_ccdc_geom_bond_type
Co0 N4 2.148 . S
Co0 N10 2.128 . S
Co0 N20 2.194 . S
Co0 O25 2.351 . S
Co0 O26 2.155 . S
Co0 O27 2.096 . S
C1 N4 1.301 . S
C1 N5 1.328 . S
C1 H6 0.930 . S
C2 C3 1.333 . S
C2 N4 1.317 . S
C2 H7 0.930 . S
C3 C2 1.333 . S
C3 N5 1.350 . S
C3 H29 0.931 . S
N4 Co0 2.148 . S
N4 C1 1.301 . S
N4 C2 1.317 . S
N5 C1 1.328 . S
N5 C3 1.350 . S
H6 C1 0.930 . S
H7 C2 0.930 . S
C8 O9 1.224 . S
C8 O27 1.247 . S
O9 C8 1.224 . S
N10 Co0 2.128 . S
N10 C11 1.355 . S
N10 C13 1.311 . S
C11 N10 1.355 . S
C11 C12 1.363 . S
C11 H23 0.929 . S
C12 C11 1.363 . S
C12 N14 1.375 . S
C12 H30 0.931 . S
C13 N10 1.311 . S
C13 N14 1.347 . S
C13 H24 0.929 . S
N14 C12 1.375 . S
N14 C13 1.347 . S
C15 C18 1.365 . S
C15 N20 1.328 . S
C15 H21 0.929 . S
C16 C17 1.362 . S
C16 C19 1.378 . S
C16 H31 0.929 . S
C17 C16 1.362 . S
C17 C18 1.366 . S
C18 C15 1.365 . S
C18 C17 1.366 . S
C18 H32 0.930 . S
C19 C16 1.378 . S
C19 N20 1.315 . S
C19 H22 0.930 . S
N20 Co0 2.194 . S
N20 C15 1.328 . S
N20 C19 1.315 . S
H21 C15 0.929 . S
H22 C19 0.930 . S
H23 C11 0.929 . S
H24 C13 0.929 . S
O25 Co0 2.351 . S
O25 C28 1.244 . S
O26 Co0 2.155 . S
O26 C28 1.240 . S
O27 Co0 2.096 . S
O27 C8 1.247 . S
C28 O25 1.244 . S
C28 O26 1.240 . S
H29 C3 0.931 . S
H30 C12 0.931 . S
H31 C16 0.929 . S
H32 C18 0.930 . S
Co33 N37 2.148 . S
Co33 N43 2.128 . S
Co33 N53 2.194 . S
Co33 O58 2.351 . S
Co33 O59 2.155 . S
Co33 O60 2.096 . S
C34 N37 1.301 . S
C34 N38 1.328 . S
C34 H39 0.930 . S
C35 C36 1.333 . S
C35 N37 1.317 . S
C35 H40 0.930 . S
C36 C35 1.333 . S
C36 N38 1.350 . S
C36 H62 0.931 . S
N37 Co33 2.148 . S
N37 C34 1.301 . S
N37 C35 1.317 . S
N38 C34 1.328 . S
N38 C36 1.350 . S
H39 C34 0.930 . S
H40 C35 0.930 . S
C41 O42 1.224 . S
C41 O60 1.247 . S
O42 C41 1.224 . S
N43 Co33 2.128 . S
N43 C44 1.355 . S
N43 C46 1.311 . S
C44 N43 1.355 . S
C44 C45 1.363 . S
C44 H56 0.929 1_655 S
C45 C44 1.363 . S
C45 N47 1.375 . S
C45 H63 0.931 1_655 S
C46 N43 1.311 . S
C46 N47 1.347 . S
C46 H57 0.929 . S
N47 C45 1.375 . S
N47 C46 1.347 . S
C48 C51 1.365 . S
C48 N53 1.328 1_455 S
C48 H54 0.929 . S
C49 C50 1.362 . S
C49 C52 1.378 1_455 S
C49 H64 0.929 . S
C50 C49 1.362 . S
C50 C51 1.366 . S
C51 C48 1.365 . S
C51 C50 1.366 . S
C51 H65 0.930 . S
C52 C49 1.378 1_655 S
C52 N53 1.315 . S
C52 H55 0.930 . S
N53 Co33 2.194 . S
N53 C48 1.328 1_655 S
N53 C52 1.315 . S
H54 C48 0.929 . S
H55 C52 0.930 . S
H56 C44 0.929 1_455 S
H57 C46 0.929 . S
O58 Co33 2.351 . S
O58 C61 1.244 . S
O59 Co33 2.155 . S
O59 C61 1.240 . S
O60 Co33 2.096 . S
O60 C41 1.247 . S
C61 O58 1.244 . S
C61 O59 1.240 . S
H62 C36 0.931 . S
H63 C45 0.931 1_455 S
H64 C49 0.929 . S
H65 C51 0.930 . S
Co66 N70 2.148 . S
Co66 N76 2.128 . S
Co66 N86 2.194 . S
Co66 O91 2.351 . S
Co66 O92 2.155 . S
Co66 O93 2.096 . S
C67 N70 1.301 . S
C67 N71 1.328 . S
C67 H72 0.930 . S
C68 C69 1.333 . S
C68 N70 1.317 . S
C68 H73 0.930 . S
C69 C68 1.333 . S
C69 N71 1.350 . S
C69 H95 0.931 . S
N70 Co66 2.148 . S
N70 C67 1.301 . S
N70 C68 1.317 . S
N71 C67 1.328 . S
N71 C69 1.350 . S
H72 C67 0.930 . S
H73 C68 0.930 . S
C74 O75 1.224 . S
C74 O93 1.247 . S
O75 C74 1.224 . S
N76 Co66 2.128 . S
N76 C77 1.355 . S
N76 C79 1.311 . S
C77 N76 1.355 . S
C77 C78 1.363 . S
C77 H89 0.929 1_565 S
C78 C77 1.363 . S
C78 N80 1.375 . S
C78 H96 0.931 1_565 S
C79 N76 1.311 . S
C79 N80 1.347 . S
C79 H90 0.929 . S
N80 C78 1.375 . S
N80 C79 1.347 . S
C81 C84 1.365 . S
C81 N86 1.328 1_545 S
C81 H87 0.929 . S
C82 C83 1.362 . S
C82 C85 1.378 1_545 S
C82 H97 0.929 . S
C83 C82 1.362 . S
C83 C84 1.366 . S
C84 C81 1.365 . S
C84 C83 1.366 . S
C84 H98 0.930 . S
C85 C82 1.378 1_565 S
C85 N86 1.315 . S
C85 H88 0.930 . S
N86 Co66 2.194 . S
N86 C81 1.328 1_565 S
N86 C85 1.315 . S
H87 C81 0.929 . S
H88 C85 0.930 . S
H89 C77 0.929 1_545 S
H90 C79 0.929 . S
O91 Co66 2.351 . S
O91 C94 1.244 . S
O92 Co66 2.155 . S
O92 C94 1.240 . S
O93 Co66 2.096 . S
O93 C74 1.247 . S
C94 O91 1.244 . S
C94 O92 1.240 . S
H95 C69 0.931 . S
H96 C78 0.931 1_545 S
H97 C82 0.929 . S
H98 C84 0.930 . S
Co99 N103 2.148 . S
Co99 N109 2.128 . S
Co99 N119 2.194 . S
Co99 O124 2.351 . S
Co99 O125 2.155 . S
Co99 O126 2.096 . S
C100 N103 1.301 . S
C100 N104 1.328 . S
C100 H105 0.930 . S
C101 C102 1.333 . S
C101 N103 1.317 . S
C101 H106 0.930 . S
C102 C101 1.333 . S
C102 N104 1.350 . S
C102 H128 0.931 . S
N103 Co99 2.148 . S
N103 C100 1.301 . S
N103 C101 1.317 . S
N104 C100 1.328 . S
N104 C102 1.350 . S
H105 C100 0.930 . S
H106 C101 0.930 . S
C107 O108 1.224 . S
C107 O126 1.247 . S
O108 C107 1.224 . S
N109 Co99 2.128 . S
N109 C110 1.355 . S
N109 C112 1.311 . S
C110 N109 1.355 . S
C110 C111 1.363 . S
C110 H122 0.929 . S
C111 C110 1.363 . S
C111 N113 1.375 . S
C111 H129 0.931 . S
C112 N109 1.311 . S
C112 N113 1.347 . S
C112 H123 0.929 . S
N113 C111 1.375 . S
N113 C112 1.347 . S
C114 C117 1.365 . S
C114 N119 1.328 . S
C114 H120 0.929 . S
C115 C116 1.362 . S
C115 C118 1.378 . S
C115 H130 0.929 . S
C116 C115 1.362 . S
C116 C117 1.366 . S
C117 C114 1.365 . S
C117 C116 1.366 . S
C117 H131 0.930 . S
C118 C115 1.378 . S
C118 N119 1.315 . S
C118 H121 0.930 . S
N119 Co99 2.194 . S
N119 C114 1.328 . S
N119 C118 1.315 . S
H120 C114 0.929 . S
H121 C118 0.930 . S
H122 C110 0.929 . S
H123 C112 0.929 . S
O124 Co99 2.351 . S
O124 C127 1.244 . S
O125 Co99 2.155 . S
O125 C127 1.240 . S
O126 Co99 2.096 . S
O126 C107 1.247 . S
C127 O124 1.244 . S
C127 O125 1.240 . S
H128 C102 0.931 . S
H129 C111 0.931 . S
H130 C115 0.929 . S
H131 C117 0.930 . S
Co132 N136 2.148 . S
Co132 N142 2.128 . S
Co132 N152 2.194 . S
Co132 O157 2.351 . S
Co132 O158 2.155 . S
Co132 O159 2.096 . S
C133 N136 1.301 . S
C133 N137 1.328 . S
C133 H138 0.930 . S
C134 C135 1.333 . S
C134 N136 1.317 . S
C134 H139 0.930 . S
C135 C134 1.333 . S
C135 N137 1.350 . S
C135 H161 0.931 . S
N136 Co132 2.148 . S
N136 C133 1.301 . S
N136 C134 1.317 . S
N137 C133 1.328 . S
N137 C135 1.350 . S
H138 C133 0.930 . S
H139 C134 0.930 . S
C140 O141 1.224 . S
C140 O159 1.247 . S
O141 C140 1.224 . S
N142 Co132 2.128 . S
N142 C143 1.355 . S
N142 C145 1.311 . S
C143 N142 1.355 . S
C143 C144 1.363 . S
C143 H155 0.929 1_455 S
C144 C143 1.363 . S
C144 N146 1.375 . S
C144 H162 0.931 1_455 S
C145 N142 1.311 . S
C145 N146 1.347 . S
C145 H156 0.929 . S
N146 C144 1.375 . S
N146 C145 1.347 . S
C147 C150 1.365 . S
C147 N152 1.328 1_655 S
C147 H153 0.929 . S
C148 C149 1.362 . S
C148 C151 1.378 1_655 S
C148 H163 0.929 . S
C149 C148 1.362 . S
C149 C150 1.366 . S
C150 C147 1.365 . S
C150 C149 1.366 . S
C150 H164 0.930 . S
C151 C148 1.378 1_455 S
C151 N152 1.315 . S
C151 H154 0.930 . S
N152 Co132 2.194 . S
N152 C147 1.328 1_455 S
N152 C151 1.315 . S
H153 C147 0.929 . S
H154 C151 0.930 . S
H155 C143 0.929 1_655 S
H156 C145 0.929 . S
O157 Co132 2.351 . S
O157 C160 1.244 . S
O158 Co132 2.155 . S
O158 C160 1.240 . S
O159 Co132 2.096 . S
O159 C140 1.247 . S
C160 O157 1.244 . S
C160 O158 1.240 . S
H161 C135 0.931 . S
H162 C144 0.931 1_655 S
H163 C148 0.929 . S
H164 C150 0.930 . S
Co165 N169 2.148 . S
Co165 N175 2.128 . S
Co165 N185 2.194 . S
Co165 O190 2.351 . S
Co165 O191 2.155 . S
Co165 O192 2.096 . S
C166 N169 1.301 . S
C166 N170 1.328 . S
C166 H171 0.930 . S
C167 C168 1.333 . S
C167 N169 1.317 . S
C167 H172 0.930 . S
C168 C167 1.333 . S
C168 N170 1.350 . S
C168 H194 0.931 . S
N169 Co165 2.148 . S
N169 C166 1.301 . S
N169 C167 1.317 . S
N170 C166 1.328 . S
N170 C168 1.350 . S
H171 C166 0.930 . S
H172 C167 0.930 . S
C173 O174 1.224 . S
C173 O192 1.247 . S
O174 C173 1.224 . S
N175 Co165 2.128 . S
N175 C176 1.355 . S
N175 C178 1.311 . S
C176 N175 1.355 . S
C176 C177 1.363 . S
C176 H188 0.929 1_545 S
C177 C176 1.363 . S
C177 N179 1.375 . S
C177 H195 0.931 1_545 S
C178 N175 1.311 . S
C178 N179 1.347 . S
C178 H189 0.929 . S
N179 C177 1.375 . S
N179 C178 1.347 . S
C180 C183 1.365 . S
C180 N185 1.328 1_565 S
C180 H186 0.929 . S
C181 C182 1.362 . S
C181 C184 1.378 1_565 S
C181 H196 0.929 . S
C182 C181 1.362 . S
C182 C183 1.366 . S
C183 C180 1.365 . S
C183 C182 1.366 . S
C183 H197 0.930 . S
C184 C181 1.378 1_545 S
C184 N185 1.315 . S
C184 H187 0.930 . S
N185 Co165 2.194 . S
N185 C180 1.328 1_545 S
N185 C184 1.315 . S
H186 C180 0.929 . S
H187 C184 0.930 . S
H188 C176 0.929 1_565 S
H189 C178 0.929 . S
O190 Co165 2.351 . S
O190 C193 1.244 . S
O191 Co165 2.155 . S
O191 C193 1.240 . S
O192 Co165 2.096 . S
O192 C173 1.247 . S
C193 O190 1.244 . S
C193 O191 1.240 . S
H194 C168 0.931 . S
H195 C177 0.931 1_565 S
H196 C181 0.929 . S
H197 C183 0.930 . S
Co198 N202 2.148 . S
Co198 N208 2.128 . S
Co198 N218 2.194 . S
Co198 O223 2.351 . S
Co198 O224 2.155 . S
Co198 O225 2.096 . S
C199 N202 1.301 . S
C199 N203 1.328 . S
C199 H204 0.930 . S
C200 C201 1.333 . S
C200 N202 1.317 . S
C200 H205 0.930 . S
C201 C200 1.333 . S
C201 N203 1.350 . S
C201 H227 0.931 . S
N202 Co198 2.148 . S
N202 C199 1.301 . S
N202 C200 1.317 . S
N203 C199 1.328 . S
N203 C201 1.350 . S
H204 C199 0.930 . S
H205 C200 0.930 . S
C206 O207 1.224 . S
C206 O225 1.247 . S
O207 C206 1.224 . S
N208 Co198 2.128 . S
N208 C209 1.355 . S
N208 C211 1.311 . S
C209 N208 1.355 . S
C209 C210 1.363 . S
C209 H221 0.929 . S
C210 C209 1.363 . S
C210 N212 1.375 . S
C210 H228 0.931 . S
C211 N208 1.311 . S
C211 N212 1.347 . S
C211 H222 0.929 . S
N212 C210 1.375 . S
N212 C211 1.347 . S
C213 C216 1.365 . S
C213 N218 1.328 . S
C213 H219 0.929 . S
C214 C215 1.362 . S
C214 C217 1.378 . S
C214 H229 0.929 . S
C215 C214 1.362 . S
C215 C216 1.366 . S
C216 C213 1.365 . S
C216 C215 1.366 . S
C216 H230 0.930 . S
C217 C214 1.378 . S
C217 N218 1.315 . S
C217 H220 0.930 . S
N218 Co198 2.194 . S
N218 C213 1.328 . S
N218 C217 1.315 . S
H219 C213 0.929 . S
H220 C217 0.930 . S
H221 C209 0.929 . S
H222 C211 0.929 . S
O223 Co198 2.351 . S
O223 C226 1.244 . S
O224 Co198 2.155 . S
O224 C226 1.240 . S
O225 Co198 2.096 . S
O225 C206 1.247 . S
C226 O223 1.244 . S
C226 O224 1.240 . S
H227 C201 0.931 . S
H228 C210 0.931 . S
H229 C214 0.929 . S
H230 C216 0.930 . S
Co231 N235 2.148 . S
Co231 N241 2.128 . S
Co231 N251 2.194 . S
Co231 O256 2.351 . S
Co231 O257 2.155 . S
Co231 O258 2.096 . S
C232 N235 1.301 . S
C232 N236 1.328 . S
C232 H237 0.930 . S
C233 C234 1.333 . S
C233 N235 1.317 . S
C233 H238 0.930 . S
C234 C233 1.333 . S
C234 N236 1.350 . S
C234 H260 0.931 . S
N235 Co231 2.148 . S
N235 C232 1.301 . S
N235 C233 1.317 . S
N236 C232 1.328 . S
N236 C234 1.350 . S
H237 C232 0.930 . S
H238 C233 0.930 . S
C239 O240 1.224 . S
C239 O258 1.247 . S
O240 C239 1.224 . S
N241 Co231 2.128 . S
N241 C242 1.355 . S
N241 C244 1.311 . S
C242 N241 1.355 . S
C242 C243 1.363 . S
C242 H254 0.929 1_655 S
C243 C242 1.363 . S
C243 N245 1.375 . S
C243 H261 0.931 1_655 S
C244 N241 1.311 . S
C244 N245 1.347 . S
C244 H255 0.929 . S
N245 C243 1.375 . S
N245 C244 1.347 . S
C246 C249 1.365 . S
C246 N251 1.328 1_455 S
C246 H252 0.929 . S
C247 C248 1.362 . S
C247 C250 1.378 1_455 S
C247 H262 0.929 . S
C248 C247 1.362 . S
C248 C249 1.366 . S
C249 C246 1.365 . S
C249 C248 1.366 . S
C249 H263 0.930 . S
C250 C247 1.378 1_655 S
C250 N251 1.315 . S
C250 H253 0.930 . S
N251 Co231 2.194 . S
N251 C246 1.328 1_655 S
N251 C250 1.315 . S
H252 C246 0.929 . S
H253 C250 0.930 . S
H254 C242 0.929 1_455 S
H255 C244 0.929 . S
O256 Co231 2.351 . S
O256 C259 1.244 . S
O257 Co231 2.155 . S
O257 C259 1.240 . S
O258 Co231 2.096 . S
O258 C239 1.247 . S
C259 O256 1.244 . S
C259 O257 1.240 . S
H260 C234 0.931 . S
H261 C243 0.931 1_455 S
H262 C247 0.929 . S
H263 C249 0.930 . S
Co264 N268 2.148 . S
Co264 N274 2.128 . S
Co264 N284 2.194 . S
Co264 O289 2.351 . S
Co264 O290 2.155 . S
Co264 O291 2.096 . S
C265 N268 1.301 . S
C265 N269 1.328 . S
C265 H270 0.930 . S
C266 C267 1.333 . S
C266 N268 1.317 . S
C266 H271 0.930 . S
C267 C266 1.333 . S
C267 N269 1.350 . S
C267 H293 0.931 . S
N268 Co264 2.148 . S
N268 C265 1.301 . S
N268 C266 1.317 . S
N269 C265 1.328 . S
N269 C267 1.350 . S
H270 C265 0.930 . S
H271 C266 0.930 . S
C272 O273 1.224 . S
C272 O291 1.247 . S
O273 C272 1.224 . S
N274 Co264 2.128 . S
N274 C275 1.355 . S
N274 C277 1.311 . S
C275 N274 1.355 . S
C275 C276 1.363 . S
C275 H287 0.929 1_565 S
C276 C275 1.363 . S
C276 N278 1.375 . S
C276 H294 0.931 1_565 S
C277 N274 1.311 . S
C277 N278 1.347 . S
C277 H288 0.929 . S
N278 C276 1.375 . S
N278 C277 1.347 . S
C279 C282 1.365 . S
C279 N284 1.328 1_545 S
C279 H285 0.929 . S
C280 C281 1.362 . S
C280 C283 1.378 1_545 S
C280 H295 0.929 . S
C281 C280 1.362 . S
C281 C282 1.366 . S
C282 C279 1.365 . S
C282 C281 1.366 . S
C282 H296 0.930 . S
C283 C280 1.378 1_565 S
C283 N284 1.315 . S
C283 H286 0.930 . S
N284 Co264 2.194 . S
N284 C279 1.328 1_565 S
N284 C283 1.315 . S
H285 C279 0.929 . S
H286 C283 0.930 . S
H287 C275 0.929 1_545 S
H288 C277 0.929 . S
O289 Co264 2.351 . S
O289 C292 1.244 . S
O290 Co264 2.155 . S
O290 C292 1.240 . S
O291 Co264 2.096 . S
O291 C272 1.247 . S
C292 O289 1.244 . S
C292 O290 1.240 . S
H293 C267 0.931 . S
H294 C276 0.931 1_545 S
H295 C280 0.929 . S
H296 C282 0.930 . S
Co297 N301 2.148 . S
Co297 N307 2.128 . S
Co297 N317 2.194 . S
Co297 O322 2.351 . S
Co297 O323 2.155 . S
Co297 O324 2.096 . S
C298 N301 1.301 . S
C298 N302 1.328 . S
C298 H303 0.930 . S
C299 C300 1.333 . S
C299 N301 1.317 . S
C299 H304 0.930 . S
C300 C299 1.333 . S
C300 N302 1.350 . S
C300 H326 0.931 . S
N301 Co297 2.148 . S
N301 C298 1.301 . S
N301 C299 1.317 . S
N302 C298 1.328 . S
N302 C300 1.350 . S
H303 C298 0.930 . S
H304 C299 0.930 . S
C305 O306 1.224 . S
C305 O324 1.247 . S
O306 C305 1.224 . S
N307 Co297 2.128 . S
N307 C308 1.355 . S
N307 C310 1.311 . S
C308 N307 1.355 . S
C308 C309 1.363 . S
C308 H320 0.929 . S
C309 C308 1.363 . S
C309 N311 1.375 . S
C309 H327 0.931 . S
C310 N307 1.311 . S
C310 N311 1.347 . S
C310 H321 0.929 . S
N311 C309 1.375 . S
N311 C310 1.347 . S
C312 C315 1.365 . S
C312 N317 1.328 . S
C312 H318 0.929 . S
C313 C314 1.362 . S
C313 C316 1.378 . S
C313 H328 0.929 . S
C314 C313 1.362 . S
C314 C315 1.366 . S
C315 C312 1.365 . S
C315 C314 1.366 . S
C315 H329 0.930 . S
C316 C313 1.378 . S
C316 N317 1.315 . S
C316 H319 0.930 . S
N317 Co297 2.194 . S
N317 C312 1.328 . S
N317 C316 1.315 . S
H318 C312 0.929 . S
H319 C316 0.930 . S
H320 C308 0.929 . S
H321 C310 0.929 . S
O322 Co297 2.351 . S
O322 C325 1.244 . S
O323 Co297 2.155 . S
O323 C325 1.240 . S
O324 Co297 2.096 . S
O324 C305 1.247 . S
C325 O322 1.244 . S
C325 O323 1.240 . S
H326 C300 0.931 . S
H327 C309 0.931 . S
H328 C313 0.929 . S
H329 C315 0.930 . S
Co330 N334 2.148 . S
Co330 N340 2.128 . S
Co330 N350 2.194 . S
Co330 O355 2.351 . S
Co330 O356 2.155 . S
Co330 O357 2.096 . S
C331 N334 1.301 . S
C331 N335 1.328 . S
C331 H336 0.930 . S
C332 C333 1.333 . S
C332 N334 1.317 . S
C332 H337 0.930 . S
C333 C332 1.333 . S
C333 N335 1.350 . S
C333 H359 0.931 . S
N334 Co330 2.148 . S
N334 C331 1.301 . S
N334 C332 1.317 . S
N335 C331 1.328 . S
N335 C333 1.350 . S
H336 C331 0.930 . S
H337 C332 0.930 . S
C338 O339 1.224 . S
C338 O357 1.247 . S
O339 C338 1.224 . S
N340 Co330 2.128 . S
N340 C341 1.355 . S
N340 C343 1.311 . S
C341 N340 1.355 . S
C341 C342 1.363 . S
C341 H353 0.929 1_455 S
C342 C341 1.363 . S
C342 N344 1.375 . S
C342 H360 0.931 1_455 S
C343 N340 1.311 . S
C343 N344 1.347 . S
C343 H354 0.929 . S
N344 C342 1.375 . S
N344 C343 1.347 . S
C345 C348 1.365 . S
C345 N350 1.328 1_655 S
C345 H351 0.929 . S
C346 C347 1.362 . S
C346 C349 1.378 1_655 S
C346 H361 0.929 . S
C347 C346 1.362 . S
C347 C348 1.366 . S
C348 C345 1.365 . S
C348 C347 1.366 . S
C348 H362 0.930 . S
C349 C346 1.378 1_455 S
C349 N350 1.315 . S
C349 H352 0.930 . S
N350 Co330 2.194 . S
N350 C345 1.328 1_455 S
N350 C349 1.315 . S
H351 C345 0.929 . S
H352 C349 0.930 . S
H353 C341 0.929 1_655 S
H354 C343 0.929 . S
O355 Co330 2.351 . S
O355 C358 1.244 . S
O356 Co330 2.155 . S
O356 C358 1.240 . S
O357 Co330 2.096 . S
O357 C338 1.247 . S
C358 O355 1.244 . S
C358 O356 1.240 . S
H359 C333 0.931 . S
H360 C342 0.931 1_655 S
H361 C346 0.929 . S
H362 C348 0.930 . S
Co363 N367 2.148 . S
Co363 N373 2.128 . S
Co363 N383 2.194 . S
Co363 O388 2.351 . S
Co363 O389 2.155 . S
Co363 O390 2.096 . S
C364 N367 1.301 . S
C364 N368 1.328 . S
C364 H369 0.930 . S
C365 C366 1.333 . S
C365 N367 1.317 . S
C365 H370 0.930 . S
C366 C365 1.333 . S
C366 N368 1.350 . S
C366 H392 0.931 . S
N367 Co363 2.148 . S
N367 C364 1.301 . S
N367 C365 1.317 . S
N368 C364 1.328 . S
N368 C366 1.350 . S
H369 C364 0.930 . S
H370 C365 0.930 . S
C371 O372 1.224 . S
C371 O390 1.247 . S
O372 C371 1.224 . S
N373 Co363 2.128 . S
N373 C374 1.355 . S
N373 C376 1.311 . S
C374 N373 1.355 . S
C374 C375 1.363 . S
C374 H386 0.929 1_545 S
C375 C374 1.363 . S
C375 N377 1.375 . S
C375 H393 0.931 1_545 S
C376 N373 1.311 . S
C376 N377 1.347 . S
C376 H387 0.929 . S
N377 C375 1.375 . S
N377 C376 1.347 . S
C378 C381 1.365 . S
C378 N383 1.328 1_565 S
C378 H384 0.929 . S
C379 C380 1.362 . S
C379 C382 1.378 1_565 S
C379 H394 0.929 . S
C380 C379 1.362 . S
C380 C381 1.366 . S
C381 C378 1.365 . S
C381 C380 1.366 . S
C381 H395 0.930 . S
C382 C379 1.378 1_545 S
C382 N383 1.315 . S
C382 H385 0.930 . S
N383 Co363 2.194 . S
N383 C378 1.328 1_545 S
N383 C382 1.315 . S
H384 C378 0.929 . S
H385 C382 0.930 . S
H386 C374 0.929 1_565 S
H387 C376 0.929 . S
O388 Co363 2.351 . S
O388 C391 1.244 . S
O389 Co363 2.155 . S
O389 C391 1.240 . S
O390 Co363 2.096 . S
O390 C371 1.247 . S
C391 O388 1.244 . S
C391 O389 1.240 . S
H392 C366 0.931 . S
H393 C375 0.931 1_565 S
H394 C379 0.929 . S
H395 C381 0.930 . S
H396 C414 0.951 . S
H397 C416 0.951 . S
H398 C418 0.950 . S
H399 C419 0.950 . S
H400 C421 0.950 . S
H401 C424 0.950 . S
H402 C425 0.950 . S
H403 C427 0.950 . S
H404 C428 0.950 . S
H405 C429 0.951 . S
H406 C431 0.951 . S
H407 C433 0.950 . S
H408 C434 0.950 . S
H409 C436 0.950 . S
H410 C439 0.950 . S
H411 C440 0.950 . S
H412 C442 0.950 . S
H413 C443 0.950 . S
C414 H396 0.951 . S
C414 C415 1.366 . S
C414 C416 1.388 . S
C415 C414 1.366 . S
C415 C419 1.385 . S
C416 H397 0.951 . S
C416 C414 1.388 . S
C416 C417 1.366 . S
C417 C416 1.366 . S
C417 C418 1.414 . S
C417 C420 1.499 . S
C418 H398 0.950 . S
C418 C417 1.414 . S
C418 C419 1.374 . S
C419 H399 0.950 . S
C419 C415 1.385 . S
C419 C418 1.374 . S
C420 C417 1.499 . S
C420 C421 1.373 . S
C420 C422 1.389 . S
C421 H400 0.950 . S
C421 C420 1.373 . S
C421 C437 1.377 . S
C422 C420 1.389 . S
C422 C423 1.524 . S
C422 C436 1.377 . S
C423 C422 1.524 . S
C423 C424 1.397 . S
C423 C428 1.363 . S
C424 H401 0.950 . S
C424 C423 1.397 . S
C424 C425 1.334 . S
C425 H402 0.950 . S
C425 C424 1.334 . S
C425 C426 1.287 . S
C426 C425 1.287 . S
C426 C427 1.524 . S
C426 H445 0.913 . S
C427 H403 0.950 . S
C427 C426 1.524 . S
C427 C428 1.415 . S
C428 H404 0.950 . S
C428 C423 1.363 . S
C428 C427 1.415 . S
C429 H405 0.951 . S
C429 C430 1.366 . S
C429 C431 1.388 . S
C430 C429 1.366 . S
C430 C434 1.385 . S
C431 H406 0.951 . S
C431 C429 1.388 . S
C431 C432 1.366 . S
C432 C431 1.366 . S
C432 C433 1.414 . S
C432 C435 1.499 . S
C433 H407 0.950 . S
C433 C432 1.414 . S
C433 C434 1.374 . S
C434 H408 0.950 . S
C434 C430 1.385 . S
C434 C433 1.374 . S
C435 C432 1.499 . S
C435 C436 1.373 . S
C435 C437 1.389 . S
C436 H409 0.950 . S
C436 C422 1.377 . S
C436 C435 1.373 . S
C437 C421 1.377 . S
C437 C435 1.389 . S
C437 C438 1.524 . S
C438 C437 1.524 . S
C438 C439 1.397 . S
C438 C443 1.363 . S
C439 H410 0.950 . S
C439 C438 1.397 . S
C439 C440 1.334 . S
C440 H411 0.950 . S
C440 C439 1.334 . S
C440 C441 1.287 . S
C441 C440 1.287 . S
C441 C442 1.524 . S
C441 H444 0.999 . S
C442 H412 0.950 . S
C442 C441 1.524 . S
C442 C443 1.415 . S
C443 H413 0.950 . S
C443 C438 1.363 . S
C443 C442 1.415 . S
H444 C441 0.999 . S
H445 C426 0.913 . S
H446 C464 0.951 . S
H447 C466 0.951 . S
H448 C468 0.950 . S
H449 C469 0.950 . S
H450 C471 0.950 . S
H451 C474 0.950 . S
H452 C475 0.950 . S
H453 C477 0.950 . S
H454 C478 0.950 . S
H455 C479 0.951 . S
H456 C481 0.951 . S
H457 C483 0.950 . S
H458 C484 0.950 . S
H459 C486 0.950 . S
H460 C489 0.950 . S
H461 C490 0.950 . S
H462 C492 0.950 . S
H463 C493 0.950 . S
C464 H446 0.951 . S
C464 C465 1.366 . S
C464 C466 1.388 . S
C465 C464 1.366 . S
C465 C469 1.385 . S
C466 H447 0.951 . S
C466 C464 1.388 . S
C466 C467 1.366 . S
C467 C466 1.366 . S
C467 C468 1.414 . S
C467 C470 1.499 . S
C468 H448 0.950 . S
C468 C467 1.414 . S
C468 C469 1.374 . S
C469 H449 0.950 . S
C469 C465 1.385 . S
C469 C468 1.374 . S
C470 C467 1.499 . S
C470 C471 1.373 . S
C470 C472 1.389 1_455 S
C471 H450 0.950 . S
C471 C470 1.373 . S
C471 C487 1.377 . S
C472 C470 1.389 1_655 S
C472 C473 1.524 . S
C472 C486 1.377 . S
C473 C472 1.524 . S
C473 C474 1.397 . S
C473 C478 1.363 . S
C474 H451 0.950 . S
C474 C473 1.397 . S
C474 C475 1.334 . S
C475 H452 0.950 . S
C475 C474 1.334 . S
C475 C476 1.287 . S
C476 C475 1.287 . S
C476 C477 1.524 . S
C476 H495 0.913 . S
C477 H453 0.950 . S
C477 C476 1.524 . S
C477 C478 1.415 . S
C478 H454 0.950 . S
C478 C473 1.363 . S
C478 C477 1.415 . S
C479 H455 0.951 . S
C479 C480 1.366 . S
C479 C481 1.388 . S
C480 C479 1.366 . S
C480 C484 1.385 . S
C481 H456 0.951 . S
C481 C479 1.388 . S
C481 C482 1.366 . S
C482 C481 1.366 . S
C482 C483 1.414 . S
C482 C485 1.499 . S
C483 H457 0.950 . S
C483 C482 1.414 . S
C483 C484 1.374 . S
C484 H458 0.950 . S
C484 C480 1.385 . S
C484 C483 1.374 . S
C485 C482 1.499 . S
C485 C486 1.373 . S
C485 C487 1.389 1_655 S
C486 H459 0.950 . S
C486 C472 1.377 . S
C486 C485 1.373 . S
C487 C471 1.377 . S
C487 C485 1.389 1_455 S
C487 C488 1.524 . S
C488 C487 1.524 . S
C488 C489 1.397 . S
C488 C493 1.363 . S
C489 H460 0.950 . S
C489 C488 1.397 . S
C489 C490 1.334 . S
C490 H461 0.950 . S
C490 C489 1.334 . S
C490 C491 1.287 . S
C491 C490 1.287 . S
C491 C492 1.524 . S
C491 H494 0.999 . S
C492 H462 0.950 . S
C492 C491 1.524 . S
C492 C493 1.415 . S
C493 H463 0.950 . S
C493 C488 1.363 . S
C493 C492 1.415 . S
H494 C491 0.999 . S
H495 C476 0.913 . S
H496 C514 0.951 . S
H497 C516 0.951 . S
H498 C518 0.950 1_565 S
H499 C519 0.950 . S
H500 C521 0.950 . S
H501 C524 0.950 . S
H502 C525 0.950 . S
H503 C527 0.950 . S
H504 C528 0.950 . S
H505 C529 0.951 . S
H506 C531 0.951 . S
H507 C533 0.950 1_545 S
H508 C534 0.950 . S
H509 C536 0.950 . S
H510 C539 0.950 . S
H511 C540 0.950 . S
H512 C542 0.950 . S
H513 C543 0.950 . S
C514 H496 0.951 . S
C514 C515 1.366 . S
C514 C516 1.388 . S
C515 C514 1.366 . S
C515 C519 1.385 . S
C516 H497 0.951 . S
C516 C514 1.388 . S
C516 C517 1.366 . S
C517 C516 1.366 . S
C517 C518 1.414 . S
C517 C520 1.499 . S
C518 H498 0.950 1_545 S
C518 C517 1.414 . S
C518 C519 1.374 . S
C519 H499 0.950 . S
C519 C515 1.385 . S
C519 C518 1.374 . S
C520 C517 1.499 . S
C520 C521 1.373 1_545 S
C520 C522 1.389 . S
C521 H500 0.950 . S
C521 C520 1.373 1_565 S
C521 C537 1.377 . S
C522 C520 1.389 . S
C522 C523 1.524 . S
C522 C536 1.377 . S
C523 C522 1.524 . S
C523 C524 1.397 . S
C523 C528 1.363 . S
C524 H501 0.950 . S
C524 C523 1.397 . S
C524 C525 1.334 . S
C525 H502 0.950 . S
C525 C524 1.334 . S
C525 C526 1.287 . S
C526 C525 1.287 . S
C526 C527 1.524 . S
C526 H545 0.913 . S
C527 H503 0.950 . S
C527 C526 1.524 . S
C527 C528 1.415 . S
C528 H504 0.950 . S
C528 C523 1.363 . S
C528 C527 1.415 . S
C529 H505 0.951 . S
C529 C530 1.366 . S
C529 C531 1.388 . S
C530 C529 1.366 . S
C530 C534 1.385 . S
C531 H506 0.951 . S
C531 C529 1.388 . S
C531 C532 1.366 . S
C532 C531 1.366 . S
C532 C533 1.414 . S
C532 C535 1.499 . S
C533 H507 0.950 1_565 S
C533 C532 1.414 . S
C533 C534 1.374 . S
C534 H508 0.950 . S
C534 C530 1.385 . S
C534 C533 1.374 . S
C535 C532 1.499 . S
C535 C536 1.373 1_565 S
C535 C537 1.389 . S
C536 H509 0.950 . S
C536 C522 1.377 . S
C536 C535 1.373 1_545 S
C537 C521 1.377 . S
C537 C535 1.389 . S
C537 C538 1.524 . S
C538 C537 1.524 . S
C538 C539 1.397 . S
C538 C543 1.363 . S
C539 H510 0.950 . S
C539 C538 1.397 . S
C539 C540 1.334 . S
C540 H511 0.950 . S
C540 C539 1.334 . S
C540 C541 1.287 . S
C541 C540 1.287 . S
C541 C542 1.524 . S
C541 H544 0.999 . S
C542 H512 0.950 . S
C542 C541 1.524 . S
C542 C543 1.415 . S
C543 H513 0.950 . S
C543 C538 1.363 . S
C543 C542 1.415 . S
H544 C541 0.999 . S
H545 C526 0.913 . S
H546 C564 0.951 . S
H547 C566 0.951 . S
H548 C568 0.950 . S
H549 C569 0.950 . S
H550 C571 0.950 . S
H551 C574 0.950 . S
H552 C575 0.950 . S
H553 C577 0.950 . S
H554 C578 0.950 . S
H555 C579 0.951 . S
H556 C581 0.951 . S
H557 C583 0.950 . S
H558 C584 0.950 . S
H559 C586 0.950 . S
H560 C589 0.950 . S
H561 C590 0.950 . S
H562 C592 0.950 . S
H563 C593 0.950 . S
C564 H546 0.951 . S
C564 C565 1.366 . S
C564 C566 1.388 . S
C565 C564 1.366 . S
C565 C569 1.385 . S
C566 H547 0.951 . S
C566 C564 1.388 . S
C566 C567 1.366 . S
C567 C566 1.366 . S
C567 C568 1.414 . S
C567 C570 1.499 . S
C568 H548 0.950 . S
C568 C567 1.414 . S
C568 C569 1.374 . S
C569 H549 0.950 . S
C569 C565 1.385 . S
C569 C568 1.374 . S
C570 C567 1.499 . S
C570 C571 1.373 . S
C570 C572 1.389 . S
C571 H550 0.950 . S
C571 C570 1.373 . S
C571 C587 1.377 . S
C572 C570 1.389 . S
C572 C573 1.524 . S
C572 C586 1.377 . S
C573 C572 1.524 . S
C573 C574 1.397 . S
C573 C578 1.363 . S
C574 H551 0.950 . S
C574 C573 1.397 . S
C574 C575 1.334 . S
C575 H552 0.950 . S
C575 C574 1.334 . S
C575 C576 1.287 . S
C576 C575 1.287 . S
C576 C577 1.524 . S
C576 H595 0.913 . S
C577 H553 0.950 . S
C577 C576 1.524 . S
C577 C578 1.415 . S
C578 H554 0.950 . S
C578 C573 1.363 . S
C578 C577 1.415 . S
C579 H555 0.951 . S
C579 C580 1.366 . S
C579 C581 1.388 . S
C580 C579 1.366 . S
C580 C584 1.385 . S
C581 H556 0.951 . S
C581 C579 1.388 . S
C581 C582 1.366 . S
C582 C581 1.366 . S
C582 C583 1.414 . S
C582 C585 1.499 . S
C583 H557 0.950 . S
C583 C582 1.414 . S
C583 C584 1.374 . S
C584 H558 0.950 . S
C584 C580 1.385 . S
C584 C583 1.374 . S
C585 C582 1.499 . S
C585 C586 1.373 . S
C585 C587 1.389 . S
C586 H559 0.950 . S
C586 C572 1.377 . S
C586 C585 1.373 . S
C587 C571 1.377 . S
C587 C585 1.389 . S
C587 C588 1.524 . S
C588 C587 1.524 . S
C588 C589 1.397 . S
C588 C593 1.363 . S
C589 H560 0.950 . S
C589 C588 1.397 . S
C589 C590 1.334 . S
C590 H561 0.950 . S
C590 C589 1.334 . S
C590 C591 1.287 . S
C591 C590 1.287 . S
C591 C592 1.524 . S
C591 H594 0.999 . S
C592 H562 0.950 . S
C592 C591 1.524 . S
C592 C593 1.415 . S
C593 H563 0.950 . S
C593 C588 1.363 . S
C593 C592 1.415 . S
H594 C591 0.999 . S
H595 C576 0.913 . S
H596 C614 0.951 . S
H597 C616 0.951 . S
H598 C618 0.950 . S
H599 C619 0.950 . S
H600 C621 0.950 . S
H601 C624 0.950 . S
H602 C625 0.950 . S
H603 C627 0.950 . S
H604 C628 0.950 . S
H605 C629 0.951 . S
H606 C631 0.951 . S
H607 C633 0.950 . S
H608 C634 0.950 . S
H609 C636 0.950 . S
H610 C639 0.950 . S
H611 C640 0.950 . S
H612 C642 0.950 . S
H613 C643 0.950 . S
C614 H596 0.951 . S
C614 C615 1.366 . S
C614 C616 1.388 . S
C615 C614 1.366 . S
C615 C619 1.385 . S
C616 H597 0.951 . S
C616 C614 1.388 . S
C616 C617 1.366 . S
C617 C616 1.366 . S
C617 C618 1.414 . S
C617 C620 1.499 . S
C618 H598 0.950 . S
C618 C617 1.414 . S
C618 C619 1.374 . S
C619 H599 0.950 . S
C619 C615 1.385 . S
C619 C618 1.374 . S
C620 C617 1.499 . S
C620 C621 1.373 1_655 S
C620 C622 1.389 . S
C621 H600 0.950 . S
C621 C620 1.373 1_455 S
C621 C637 1.377 . S
C622 C620 1.389 . S
C622 C623 1.524 . S
C622 C636 1.377 . S
C623 C622 1.524 . S
C623 C624 1.397 . S
C623 C628 1.363 . S
C624 H601 0.950 . S
C624 C623 1.397 . S
C624 C625 1.334 . S
C625 H602 0.950 . S
C625 C624 1.334 . S
C625 C626 1.287 . S
C626 C625 1.287 . S
C626 C627 1.524 . S
C626 H645 0.913 . S
C627 H603 0.950 . S
C627 C626 1.524 . S
C627 C628 1.415 . S
C628 H604 0.950 . S
C628 C623 1.363 . S
C628 C627 1.415 . S
C629 H605 0.951 . S
C629 C630 1.366 . S
C629 C631 1.388 . S
C630 C629 1.366 . S
C630 C634 1.385 . S
C631 H606 0.951 . S
C631 C629 1.388 . S
C631 C632 1.366 . S
C632 C631 1.366 . S
C632 C633 1.414 . S
C632 C635 1.499 . S
C633 H607 0.950 . S
C633 C632 1.414 . S
C633 C634 1.374 . S
C634 H608 0.950 . S
C634 C630 1.385 . S
C634 C633 1.374 . S
C635 C632 1.499 . S
C635 C636 1.373 1_455 S
C635 C637 1.389 . S
C636 H609 0.950 . S
C636 C622 1.377 . S
C636 C635 1.373 1_655 S
C637 C621 1.377 . S
C637 C635 1.389 . S
C637 C638 1.524 . S
C638 C637 1.524 . S
C638 C639 1.397 . S
C638 C643 1.363 . S
C639 H610 0.950 . S
C639 C638 1.397 . S
C639 C640 1.334 . S
C640 H611 0.950 . S
C640 C639 1.334 . S
C640 C641 1.287 . S
C641 C640 1.287 . S
C641 C642 1.524 . S
C641 H644 0.999 . S
C642 H612 0.950 . S
C642 C641 1.524 . S
C642 C643 1.415 . S
C643 H613 0.950 . S
C643 C638 1.363 . S
C643 C642 1.415 . S
H644 C641 0.999 . S
H645 C626 0.913 . S
H646 C664 0.951 . S
H647 C666 0.951 1_545 S
H648 C668 0.950 . S
H649 C669 0.950 . S
H650 C671 0.950 . S
H651 C674 0.950 1_565 S
H652 C675 0.950 . S
H653 C677 0.950 . S
H654 C678 0.950 . S
H655 C679 0.951 . S
H656 C681 0.951 1_565 S
H657 C683 0.950 . S
H658 C684 0.950 . S
H659 C686 0.950 . S
H660 C689 0.950 1_545 S
H661 C690 0.950 . S
H662 C692 0.950 . S
H663 C693 0.950 . S
C664 H646 0.951 . S
C664 C665 1.366 . S
C664 C666 1.388 . S
C665 C664 1.366 . S
C665 C669 1.385 . S
C666 H647 0.951 1_565 S
C666 C664 1.388 . S
C666 C667 1.366 . S
C667 C666 1.366 . S
C667 C668 1.414 . S
C667 C670 1.499 . S
C668 H648 0.950 . S
C668 C667 1.414 . S
C668 C669 1.374 . S
C669 H649 0.950 . S
C669 C665 1.385 . S
C669 C668 1.374 . S
C670 C667 1.499 . S
C670 C671 1.373 . S
C670 C672 1.389 1_565 S
C671 H650 0.950 . S
C671 C670 1.373 . S
C671 C687 1.377 . S
C672 C670 1.389 1_545 S
C672 C673 1.524 . S
C672 C686 1.377 . S
C673 C672 1.524 . S
C673 C674 1.397 . S
C673 C678 1.363 . S
C674 H651 0.950 1_545 S
C674 C673 1.397 . S
C674 C675 1.334 . S
C675 H652 0.950 . S
C675 C674 1.334 . S
C675 C676 1.287 . S
C676 C675 1.287 . S
C676 C677 1.524 . S
C676 H695 0.913 . S
C677 H653 0.950 . S
C677 C676 1.524 . S
C677 C678 1.415 . S
C678 H654 0.950 . S
C678 C673 1.363 . S
C678 C677 1.415 . S
C679 H655 0.951 . S
C679 C680 1.366 . S
C679 C681 1.388 . S
C680 C679 1.366 . S
C680 C684 1.385 . S
C681 H656 0.951 1_545 S
C681 C679 1.388 . S
C681 C682 1.366 . S
C682 C681 1.366 . S
C682 C683 1.414 . S
C682 C685 1.499 . S
C683 H657 0.950 . S
C683 C682 1.414 . S
C683 C684 1.374 . S
C684 H658 0.950 . S
C684 C680 1.385 . S
C684 C683 1.374 . S
C685 C682 1.499 . S
C685 C686 1.373 . S
C685 C687 1.389 1_545 S
C686 H659 0.950 . S
C686 C672 1.377 . S
C686 C685 1.373 . S
C687 C671 1.377 . S
C687 C685 1.389 1_565 S
C687 C688 1.524 . S
C688 C687 1.524 . S
C688 C689 1.397 . S
C688 C693 1.363 . S
C689 H660 0.950 1_565 S
C689 C688 1.397 . S
C689 C690 1.334 . S
C690 H661 0.950 . S
C690 C689 1.334 . S
C690 C691 1.287 . S
C691 C690 1.287 . S
C691 C692 1.524 . S
C691 H694 0.999 . S
C692 H662 0.950 . S
C692 C691 1.524 . S
C692 C693 1.415 . S
C693 H663 0.950 . S
C693 C688 1.363 . S
C693 C692 1.415 . S
H694 C691 0.999 . S
H695 C676 0.913 . S
H696 C714 0.951 . S
H697 C716 0.951 . S
H698 C718 0.950 . S
H699 C719 0.950 . S
H700 C721 0.950 . S
H701 C724 0.950 . S
H702 C725 0.950 . S
H703 C727 0.950 . S
H704 C728 0.950 . S
H705 C729 0.951 . S
H706 C731 0.951 . S
H707 C733 0.950 . S
H708 C734 0.950 . S
H709 C736 0.950 . S
H710 C739 0.950 . S
H711 C740 0.950 . S
H712 C742 0.950 . S
H713 C743 0.950 . S
C714 H696 0.951 . S
C714 C715 1.366 . S
C714 C716 1.388 . S
C715 C714 1.366 . S
C715 C719 1.385 . S
C716 H697 0.951 . S
C716 C714 1.388 . S
C716 C717 1.366 . S
C717 C716 1.366 . S
C717 C718 1.414 . S
C717 C720 1.499 . S
C718 H698 0.950 . S
C718 C717 1.414 . S
C718 C719 1.374 . S
C719 H699 0.950 . S
C719 C715 1.385 . S
C719 C718 1.374 . S
C720 C717 1.499 . S
C720 C721 1.373 . S
C720 C722 1.389 . S
C721 H700 0.950 . S
C721 C720 1.373 . S
C721 C737 1.377 . S
C722 C720 1.389 . S
C722 C723 1.524 . S
C722 C736 1.377 . S
C723 C722 1.524 . S
C723 C724 1.397 . S
C723 C728 1.363 . S
C724 H701 0.950 . S
C724 C723 1.397 . S
C724 C725 1.334 . S
C725 H702 0.950 . S
C725 C724 1.334 . S
C725 C726 1.287 . S
C726 C725 1.287 . S
C726 C727 1.524 . S
C726 H745 0.913 . S
C727 H703 0.950 . S
C727 C726 1.524 . S
C727 C728 1.415 . S
C728 H704 0.950 . S
C728 C723 1.363 . S
C728 C727 1.415 . S
C729 H705 0.951 . S
C729 C730 1.366 . S
C729 C731 1.388 . S
C730 C729 1.366 . S
C730 C734 1.385 . S
C731 H706 0.951 . S
C731 C729 1.388 . S
C731 C732 1.366 . S
C732 C731 1.366 . S
C732 C733 1.414 . S
C732 C735 1.499 . S
C733 H707 0.950 . S
C733 C732 1.414 . S
C733 C734 1.374 . S
C734 H708 0.950 . S
C734 C730 1.385 . S
C734 C733 1.374 . S
C735 C732 1.499 . S
C735 C736 1.373 . S
C735 C737 1.389 . S
C736 H709 0.950 . S
C736 C722 1.377 . S
C736 C735 1.373 . S
C737 C721 1.377 . S
C737 C735 1.389 . S
C737 C738 1.524 . S
C738 C737 1.524 . S
C738 C739 1.397 . S
C738 C743 1.363 . S
C739 H710 0.950 . S
C739 C738 1.397 . S
C739 C740 1.334 . S
C740 H711 0.950 . S
C740 C739 1.334 . S
C740 C741 1.287 . S
C741 C740 1.287 . S
C741 C742 1.524 . S
C741 H744 0.999 . S
C742 H712 0.950 . S
C742 C741 1.524 . S
C742 C743 1.415 . S
C743 H713 0.950 . S
C743 C738 1.363 . S
C743 C742 1.415 . S
H744 C741 0.999 . S
H745 C726 0.913 . S
H746 C764 0.951 . S
H747 C766 0.951 1_455 S
H748 C768 0.950 . S
H749 C769 0.950 . S
H750 C771 0.950 . S
H751 C774 0.950 . S
H752 C775 0.950 . S
H753 C777 0.950 . S
H754 C778 0.950 . S
H755 C779 0.951 . S
H756 C781 0.951 1_655 S
H757 C783 0.950 . S
H758 C784 0.950 . S
H759 C786 0.950 . S
H760 C789 0.950 . S
H761 C790 0.950 . S
H762 C792 0.950 . S
H763 C793 0.950 . S
C764 H746 0.951 . S
C764 C765 1.366 . S
C764 C766 1.388 . S
C765 C764 1.366 . S
C765 C769 1.385 . S
C766 H747 0.951 1_655 S
C766 C764 1.388 . S
C766 C767 1.366 . S
C767 C766 1.366 . S
C767 C768 1.414 . S
C767 C770 1.499 . S
C768 H748 0.950 . S
C768 C767 1.414 . S
C768 C769 1.374 . S
C769 H749 0.950 . S
C769 C765 1.385 . S
C769 C768 1.374 . S
C770 C767 1.499 . S
C770 C771 1.373 . S
C770 C772 1.389 1_655 S
C771 H750 0.950 . S
C771 C770 1.373 . S
C771 C787 1.377 . S
C772 C770 1.389 1_455 S
C772 C773 1.524 . S
C772 C786 1.377 . S
C773 C772 1.524 . S
C773 C774 1.397 . S
C773 C778 1.363 . S
C774 H751 0.950 . S
C774 C773 1.397 . S
C774 C775 1.334 . S
C775 H752 0.950 . S
C775 C774 1.334 . S
C775 C776 1.287 . S
C776 C775 1.287 . S
C776 C777 1.524 . S
C776 H795 0.913 . S
C777 H753 0.950 . S
C777 C776 1.524 . S
C777 C778 1.415 . S
C778 H754 0.950 . S
C778 C773 1.363 . S
C778 C777 1.415 . S
C779 H755 0.951 . S
C779 C780 1.366 . S
C779 C781 1.388 . S
C780 C779 1.366 . S
C780 C784 1.385 . S
C781 H756 0.951 1_455 S
C781 C779 1.388 . S
C781 C782 1.366 . S
C782 C781 1.366 . S
C782 C783 1.414 . S
C782 C785 1.499 . S
C783 H757 0.950 . S
C783 C782 1.414 . S
C783 C784 1.374 . S
C784 H758 0.950 . S
C784 C780 1.385 . S
C784 C783 1.374 . S
C785 C782 1.499 . S
C785 C786 1.373 . S
C785 C787 1.389 1_455 S
C786 H759 0.950 . S
C786 C772 1.377 . S
C786 C785 1.373 . S
C787 C771 1.377 . S
C787 C785 1.389 1_655 S
C787 C788 1.524 . S
C788 C787 1.524 . S
C788 C789 1.397 . S
C788 C793 1.363 . S
C789 H760 0.950 . S
C789 C788 1.397 . S
C789 C790 1.334 . S
C790 H761 0.950 . S
C790 C789 1.334 . S
C790 C791 1.287 . S
C791 C790 1.287 . S
C791 C792 1.524 . S
C791 H794 0.999 . S
C792 H762 0.950 . S
C792 C791 1.524 . S
C792 C793 1.415 . S
C793 H763 0.950 . S
C793 C788 1.363 . S
C793 C792 1.415 . S
H794 C791 0.999 . S
H795 C776 0.913 . S
H796 C814 0.951 . S
H797 C816 0.951 1_565 S
H798 C818 0.950 . S
H799 C819 0.950 . S
H800 C821 0.950 . S
H801 C824 0.950 . S
H802 C825 0.950 . S
H803 C827 0.950 . S
H804 C828 0.950 . S
H805 C829 0.951 . S
H806 C831 0.951 1_545 S
H807 C833 0.950 . S
H808 C834 0.950 . S
H809 C836 0.950 . S
H810 C839 0.950 . S
H811 C840 0.950 . S
H812 C842 0.950 . S
H813 C843 0.950 . S
C814 H796 0.951 . S
C814 C815 1.366 . S
C814 C816 1.388 . S
C815 C814 1.366 . S
C815 C819 1.385 . S
C816 H797 0.951 1_545 S
C816 C814 1.388 . S
C816 C817 1.366 . S
C817 C816 1.366 . S
C817 C818 1.414 . S
C817 C820 1.499 . S
C818 H798 0.950 . S
C818 C817 1.414 . S
C818 C819 1.374 . S
C819 H799 0.950 . S
C819 C815 1.385 . S
C819 C818 1.374 . S
C820 C817 1.499 . S
C820 C821 1.373 . S
C820 C822 1.389 1_545 S
C821 H800 0.950 . S
C821 C820 1.373 . S
C821 C837 1.377 1_554 S
C822 C820 1.389 1_565 S
C822 C823 1.524 . S
C822 C836 1.377 1_554 S
C823 C822 1.524 . S
C823 C824 1.397 . S
C823 C828 1.363 . S
C824 H801 0.950 . S
C824 C823 1.397 . S
C824 C825 1.334 . S
C825 H802 0.950 . S
C825 C824 1.334 . S
C825 C826 1.287 . S
C826 C825 1.287 . S
C826 C827 1.524 . S
C826 H845 0.913 . S
C827 H803 0.950 . S
C827 C826 1.524 . S
C827 C828 1.415 . S
C828 H804 0.950 . S
C828 C823 1.363 . S
C828 C827 1.415 . S
C829 H805 0.951 . S
C829 C830 1.366 . S
C829 C831 1.388 . S
C830 C829 1.366 . S
C830 C834 1.385 . S
C831 H806 0.951 1_565 S
C831 C829 1.388 . S
C831 C832 1.366 . S
C832 C831 1.366 . S
C832 C833 1.414 . S
C832 C835 1.499 . S
C833 H807 0.950 . S
C833 C832 1.414 . S
C833 C834 1.374 . S
C834 H808 0.950 . S
C834 C830 1.385 . S
C834 C833 1.374 . S
C835 C832 1.499 . S
C835 C836 1.373 . S
C835 C837 1.389 1_565 S
C836 H809 0.950 . S
C836 C822 1.377 1_556 S
C836 C835 1.373 . S
C837 C821 1.377 1_556 S
C837 C835 1.389 1_545 S
C837 C838 1.524 . S
C838 C837 1.524 . S
C838 C839 1.397 . S
C838 C843 1.363 . S
C839 H810 0.950 . S
C839 C838 1.397 . S
C839 C840 1.334 . S
C840 H811 0.950 . S
C840 C839 1.334 . S
C840 C841 1.287 . S
C841 C840 1.287 . S
C841 C842 1.524 . S
C841 H844 0.999 . S
C842 H812 0.950 . S
C842 C841 1.524 . S
C842 C843 1.415 . S
C843 H813 0.950 . S
C843 C838 1.363 . S
C843 C842 1.415 . S
H844 C841 0.999 . S
H845 C826 0.913 . S
H846 C864 0.951 . S
H847 C866 0.951 . S
H848 C868 0.950 . S
H849 C869 0.950 . S
H850 C871 0.950 . S
H851 C874 0.950 . S
H852 C875 0.950 . S
H853 C877 0.950 . S
H854 C878 0.950 . S
H855 C879 0.951 . S
H856 C881 0.951 . S
H857 C883 0.950 . S
H858 C884 0.950 . S
H859 C886 0.950 . S
H860 C889 0.950 . S
H861 C890 0.950 . S
H862 C892 0.950 . S
H863 C893 0.950 . S
C864 H846 0.951 . S
C864 C865 1.366 . S
C864 C866 1.388 . S
C865 C864 1.366 . S
C865 C869 1.385 . S
C866 H847 0.951 . S
C866 C864 1.388 . S
C866 C867 1.366 . S
C867 C866 1.366 . S
C867 C868 1.414 . S
C867 C870 1.499 . S
C868 H848 0.950 . S
C868 C867 1.414 . S
C868 C869 1.374 . S
C869 H849 0.950 . S
C869 C865 1.385 . S
C869 C868 1.374 . S
C870 C867 1.499 . S
C870 C871 1.373 . S
C870 C872 1.389 . S
C871 H850 0.950 . S
C871 C870 1.373 . S
C871 C887 1.377 . S
C872 C870 1.389 . S
C872 C873 1.524 . S
C872 C886 1.377 . S
C873 C872 1.524 . S
C873 C874 1.397 . S
C873 C878 1.363 . S
C874 H851 0.950 . S
C874 C873 1.397 . S
C874 C875 1.334 . S
C875 H852 0.950 . S
C875 C874 1.334 . S
C875 C876 1.287 . S
C876 C875 1.287 . S
C876 C877 1.524 . S
C876 H895 0.913 . S
C877 H853 0.950 . S
C877 C876 1.524 . S
C877 C878 1.415 . S
C878 H854 0.950 . S
C878 C873 1.363 . S
C878 C877 1.415 . S
C879 H855 0.951 . S
C879 C880 1.366 . S
C879 C881 1.388 . S
C880 C879 1.366 . S
C880 C884 1.385 . S
C881 H856 0.951 . S
C881 C879 1.388 . S
C881 C882 1.366 . S
C882 C881 1.366 . S
C882 C883 1.414 . S
C882 C885 1.499 . S
C883 H857 0.950 . S
C883 C882 1.414 . S
C883 C884 1.374 . S
C884 H858 0.950 . S
C884 C880 1.385 . S
C884 C883 1.374 . S
C885 C882 1.499 . S
C885 C886 1.373 . S
C885 C887 1.389 . S
C886 H859 0.950 . S
C886 C872 1.377 . S
C886 C885 1.373 . S
C887 C871 1.377 . S
C887 C885 1.389 . S
C887 C888 1.524 . S
C888 C887 1.524 . S
C888 C889 1.397 . S
C888 C893 1.363 . S
C889 H860 0.950 . S
C889 C888 1.397 . S
C889 C890 1.334 . S
C890 H861 0.950 . S
C890 C889 1.334 . S
C890 C891 1.287 . S
C891 C890 1.287 . S
C891 C892 1.524 . S
C891 H894 0.999 . S
C892 H862 0.950 . S
C892 C891 1.524 . S
C892 C893 1.415 . S
C893 H863 0.950 . S
C893 C888 1.363 . S
C893 C892 1.415 . S
H894 C891 0.999 . S
H895 C876 0.913 . S
H896 C914 0.951 1_655 S
H897 C916 0.951 . S
H898 C918 0.950 . S
H899 C919 0.950 . S
H900 C921 0.950 . S
H901 C924 0.950 . S
H902 C925 0.950 . S
H903 C927 0.950 . S
H904 C928 0.950 . S
H905 C929 0.951 1_455 S
H906 C931 0.951 . S
H907 C933 0.950 . S
H908 C934 0.950 . S
H909 C936 0.950 . S
H910 C939 0.950 . S
H911 C940 0.950 . S
H912 C942 0.950 . S
H913 C943 0.950 . S
C914 H896 0.951 1_455 S
C914 C915 1.366 . S
C914 C916 1.388 1_455 S
C915 C914 1.366 . S
C915 C919 1.385 . S
C916 H897 0.951 . S
C916 C914 1.388 1_655 S
C916 C917 1.366 1_655 S
C917 C916 1.366 1_455 S
C917 C918 1.414 . S
C917 C920 1.499 . S
C918 H898 0.950 . S
C918 C917 1.414 . S
C918 C919 1.374 . S
C919 H899 0.950 . S
C919 C915 1.385 . S
C919 C918 1.374 . S
C920 C917 1.499 . S
C920 C921 1.373 . S
C920 C922 1.389 1_455 S
C921 H900 0.950 . S
C921 C920 1.373 . S
C921 C937 1.377 . S
C922 C920 1.389 1_655 S
C922 C923 1.524 . S
C922 C936 1.377 . S
C923 C922 1.524 . S
C923 C924 1.397 . S
C923 C928 1.363 . S
C924 H901 0.950 . S
C924 C923 1.397 . S
C924 C925 1.334 . S
C925 H902 0.950 . S
C925 C924 1.334 . S
C925 C926 1.287 . S
C926 C925 1.287 . S
C926 C927 1.524 . S
C926 H945 0.913 . S
C927 H903 0.950 . S
C927 C926 1.524 . S
C927 C928 1.415 . S
C928 H904 0.950 . S
C928 C923 1.363 . S
C928 C927 1.415 . S
C929 H905 0.951 1_655 S
C929 C930 1.366 . S
C929 C931 1.388 1_655 S
C930 C929 1.366 . S
C930 C934 1.385 . S
C931 H906 0.951 . S
C931 C929 1.388 1_455 S
C931 C932 1.366 1_455 S
C932 C931 1.366 1_655 S
C932 C933 1.414 . S
C932 C935 1.499 . S
C933 H907 0.950 . S
C933 C932 1.414 . S
C933 C934 1.374 . S
C934 H908 0.950 . S
C934 C930 1.385 . S
C934 C933 1.374 . S
C935 C932 1.499 . S
C935 C936 1.373 . S
C935 C937 1.389 1_655 S
C936 H909 0.950 . S
C936 C922 1.377 . S
C936 C935 1.373 . S
C937 C921 1.377 . S
C937 C935 1.389 1_455 S
C937 C938 1.524 . S
C938 C937 1.524 . S
C938 C939 1.397 . S
C938 C943 1.363 . S
C939 H910 0.950 . S
C939 C938 1.397 . S
C939 C940 1.334 . S
C940 H911 0.950 . S
C940 C939 1.334 . S
C940 C941 1.287 . S
C941 C940 1.287 . S
C941 C942 1.524 . S
C941 H944 0.999 . S
C942 H912 0.950 . S
C942 C941 1.524 . S
C942 C943 1.415 . S
C943 H913 0.950 . S
C943 C938 1.363 . S
C943 C942 1.415 . S
H944 C941 0.999 . S
H945 C926 0.913 . S
H946 C964 0.951 . S
H947 C966 0.951 . S
H948 C968 0.950 1_565 S
H949 C969 0.950 . S
H950 C971 0.950 . S
H951 C974 0.950 . S
H952 C975 0.950 . S
H953 C977 0.950 . S
H954 C978 0.950 1_545 S
H955 C979 0.951 . S
H956 C981 0.951 . S
H957 C983 0.950 1_545 S
H958 C984 0.950 . S
H959 C986 0.950 . S
H960 C989 0.950 . S
H961 C990 0.950 . S
H962 C992 0.950 . S
H963 C993 0.950 1_565 S
C964 H946 0.951 . S
C964 C965 1.366 . S
C964 C966 1.388 . S
C965 C964 1.366 . S
C965 C969 1.385 . S
C966 H947 0.951 . S
C966 C964 1.388 . S
C966 C967 1.366 . S
C967 C966 1.366 . S
C967 C968 1.414 . S
C967 C970 1.499 . S
C968 H948 0.950 1_545 S
C968 C967 1.414 . S
C968 C969 1.374 . S
C969 H949 0.950 . S
C969 C965 1.385 . S
C969 C968 1.374 . S
C970 C967 1.499 . S
C970 C971 1.373 . S
C970 C972 1.389 1_545 S
C971 H950 0.950 . S
C971 C970 1.373 . S
C971 C987 1.377 1_556 S
C972 C970 1.389 1_565 S
C972 C973 1.524 . S
C972 C986 1.377 1_556 S
C973 C972 1.524 . S
C973 C974 1.397 . S
C973 C978 1.363 . S
C974 H951 0.950 . S
C974 C973 1.397 . S
C974 C975 1.334 . S
C975 H952 0.950 . S
C975 C974 1.334 . S
C975 C976 1.287 . S
C976 C975 1.287 . S
C976 C977 1.524 . S
C976 H995 0.913 . S
C977 H953 0.950 . S
C977 C976 1.524 . S
C977 C978 1.415 . S
C978 H954 0.950 1_565 S
C978 C973 1.363 . S
C978 C977 1.415 . S
C979 H955 0.951 . S
C979 C980 1.366 . S
C979 C981 1.388 . S
C980 C979 1.366 . S
C980 C984 1.385 . S
C981 H956 0.951 . S
C981 C979 1.388 . S
C981 C982 1.366 . S
C982 C981 1.366 . S
C982 C983 1.414 . S
C982 C985 1.499 . S
C983 H957 0.950 1_565 S
C983 C982 1.414 . S
C983 C984 1.374 . S
C984 H958 0.950 . S
C984 C980 1.385 . S
C984 C983 1.374 . S
C985 C982 1.499 . S
C985 C986 1.373 . S
C985 C987 1.389 1_565 S
C986 H959 0.950 . S
C986 C972 1.377 1_554 S
C986 C985 1.373 . S
C987 C971 1.377 1_554 S
C987 C985 1.389 1_545 S
C987 C988 1.524 . S
C988 C987 1.524 . S
C988 C989 1.397 . S
C988 C993 1.363 . S
C989 H960 0.950 . S
C989 C988 1.397 . S
C989 C990 1.334 . S
C990 H961 0.950 . S
C990 C989 1.334 . S
C990 C991 1.287 . S
C991 C990 1.287 . S
C991 C992 1.524 . S
C991 H994 0.999 . S
C992 H962 0.950 . S
C992 C991 1.524 . S
C992 C993 1.415 . S
C993 H963 0.950 1_545 S
C993 C988 1.363 . S
C993 C992 1.415 . S
H994 C991 0.999 . S
H995 C976 0.913 . S
H996 C1014 0.951 . S
H997 C1016 0.951 . S
H998 C1018 0.950 . S
H999 C1019 0.950 . S
H1000 C1021 0.950 . S
H1001 C1024 0.950 . S
H1002 C1025 0.950 . S
H1003 C1027 0.950 . S
H1004 C1028 0.950 1_565 S
H1005 C1029 0.951 . S
H1006 C1031 0.951 . S
H1007 C1033 0.950 . S
H1008 C1034 0.950 . S
H1009 C1036 0.950 . S
H1010 C1039 0.950 . S
H1011 C1040 0.950 . S
H1012 C1042 0.950 . S
H1013 C1043 0.950 1_545 S
C1014 H996 0.951 . S
C1014 C1015 1.366 . S
C1014 C1016 1.388 . S
C1015 C1014 1.366 . S
C1015 C1019 1.385 . S
C1016 H997 0.951 . S
C1016 C1014 1.388 . S
C1016 C1017 1.366 . S
C1017 C1016 1.366 . S
C1017 C1018 1.414 . S
C1017 C1020 1.499 . S
C1018 H998 0.950 . S
C1018 C1017 1.414 . S
C1018 C1019 1.374 . S
C1019 H999 0.950 . S
C1019 C1015 1.385 . S
C1019 C1018 1.374 . S
C1020 C1017 1.499 . S
C1020 C1021 1.373 1_455 S
C1020 C1022 1.389 . S
C1021 H1000 0.950 . S
C1021 C1020 1.373 1_655 S
C1021 C1037 1.377 1_545 S
C1022 C1020 1.389 . S
C1022 C1023 1.524 . S
C1022 C1036 1.377 1_545 S
C1023 C1022 1.524 . S
C1023 C1024 1.397 . S
C1023 C1028 1.363 . S
C1024 H1001 0.950 . S
C1024 C1023 1.397 . S
C1024 C1025 1.334 . S
C1025 H1002 0.950 . S
C1025 C1024 1.334 . S
C1025 C1026 1.287 . S
C1026 C1025 1.287 . S
C1026 C1027 1.524 . S
C1026 H1045 0.913 . S
C1027 H1003 0.950 . S
C1027 C1026 1.524 . S
C1027 C1028 1.415 . S
C1028 H1004 0.950 1_545 S
C1028 C1023 1.363 . S
C1028 C1027 1.415 . S
C1029 H1005 0.951 . S
C1029 C1030 1.366 . S
C1029 C1031 1.388 . S
C1030 C1029 1.366 . S
C1030 C1034 1.385 . S
C1031 H1006 0.951 . S
C1031 C1029 1.388 . S
C1031 C1032 1.366 . S
C1032 C1031 1.366 . S
C1032 C1033 1.414 . S
C1032 C1035 1.499 . S
C1033 H1007 0.950 . S
C1033 C1032 1.414 . S
C1033 C1034 1.374 . S
C1034 H1008 0.950 . S
C1034 C1030 1.385 . S
C1034 C1033 1.374 . S
C1035 C1032 1.499 . S
C1035 C1036 1.373 1_655 S
C1035 C1037 1.389 . S
C1036 H1009 0.950 . S
C1036 C1022 1.377 1_565 S
C1036 C1035 1.373 1_455 S
C1037 C1021 1.377 1_565 S
C1037 C1035 1.389 . S
C1037 C1038 1.524 . S
C1038 C1037 1.524 . S
C1038 C1039 1.397 . S
C1038 C1043 1.363 . S
C1039 H1010 0.950 . S
C1039 C1038 1.397 . S
C1039 C1040 1.334 . S
C1040 H1011 0.950 . S
C1040 C1039 1.334 . S
C1040 C1041 1.287 . S
C1041 C1040 1.287 . S
C1041 C1042 1.524 . S
C1041 H1044 0.999 . S
C1042 H1012 0.950 . S
C1042 C1041 1.524 . S
C1042 C1043 1.415 . S
C1043 H1013 0.950 1_565 S
C1043 C1038 1.363 . S
C1043 C1042 1.415 . S
H1044 C1041 0.999 . S
H1045 C1026 0.913 . S
H1046 C1064 0.951 . S
H1047 C1066 0.951 . S
H1048 C1068 0.950 1_455 S
H1049 C1069 0.950 . S
H1050 C1071 0.950 . S
H1051 C1074 0.956 . S
H1052 C1075 0.950 1_545 S
H1053 C1077 0.950 . S
H1054 C1078 0.950 . S
H1055 C1079 0.951 . S
H1056 C1081 0.951 . S
H1057 C1083 0.950 1_655 S
H1058 C1084 0.950 . S
H1059 C1086 0.950 . S
H1060 C1089 0.956 . S
H1061 C1090 0.950 1_565 S
H1062 C1092 0.950 . S
H1063 C1093 0.950 . S
C1064 H1046 0.951 . S
C1064 C1065 1.366 . S
C1064 C1066 1.388 . S
C1065 C1064 1.366 . S
C1065 C1069 1.385 . S
C1066 H1047 0.951 . S
C1066 C1064 1.388 . S
C1066 C1067 1.366 . S
C1067 C1066 1.366 . S
C1067 C1068 1.414 . S
C1067 C1070 1.499 . S
C1068 H1048 0.950 1_655 S
C1068 C1067 1.414 . S
C1068 C1069 1.374 . S
C1069 H1049 0.950 . S
C1069 C1065 1.385 . S
C1069 C1068 1.374 . S
C1070 C1067 1.499 . S
C1070 C1071 1.373 1_655 S
C1070 C1072 1.389 1_545 S
C1071 H1050 0.950 . S
C1071 C1070 1.373 1_455 S
C1071 C1087 1.377 . S
C1072 C1070 1.389 1_565 S
C1072 C1073 1.524 . S
C1072 C1086 1.377 . S
C1073 C1072 1.524 . S
C1073 C1074 1.389 1_565 S
C1073 C1078 1.363 . S
C1074 H1051 0.956 . S
C1074 C1073 1.389 1_545 S
C1074 C1075 1.336 1_545 S
C1075 H1052 0.950 1_565 S
C1075 C1074 1.336 1_565 S
C1075 C1076 1.287 . S
C1076 C1075 1.287 . S
C1076 C1077 1.524 . S
C1076 H1095 0.913 . S
C1077 H1053 0.950 . S
C1077 C1076 1.524 . S
C1077 C1078 1.415 . S
C1078 H1054 0.950 . S
C1078 C1073 1.363 . S
C1078 C1077 1.415 . S
C1079 H1055 0.951 . S
C1079 C1080 1.366 . S
C1079 C1081 1.388 . S
C1080 C1079 1.366 . S
C1080 C1084 1.385 . S
C1081 H1056 0.951 . S
C1081 C1079 1.388 . S
C1081 C1082 1.366 . S
C1082 C1081 1.366 . S
C1082 C1083 1.414 . S
C1082 C1085 1.499 . S
C1083 H1057 0.950 1_455 S
C1083 C1082 1.414 . S
C1083 C1084 1.374 . S
C1084 H1058 0.950 . S
C1084 C1080 1.385 . S
C1084 C1083 1.374 . S
C1085 C1082 1.499 . S
C1085 C1086 1.373 1_455 S
C1085 C1087 1.389 1_565 S
C1086 H1059 0.950 . S
C1086 C1072 1.377 . S
C1086 C1085 1.373 1_655 S
C1087 C1071 1.377 . S
C1087 C1085 1.389 1_545 S
C1087 C1088 1.524 . S
C1088 C1087 1.524 . S
C1088 C1089 1.389 1_545 S
C1088 C1093 1.363 . S
C1089 H1060 0.956 . S
C1089 C1088 1.389 1_565 S
C1089 C1090 1.336 1_565 S
C1090 H1061 0.950 1_545 S
C1090 C1089 1.336 1_545 S
C1090 C1091 1.287 . S
C1091 C1090 1.287 . S
C1091 C1092 1.524 . S
C1091 H1094 0.999 . S
C1092 H1062 0.950 . S
C1092 C1091 1.524 . S
C1092 C1093 1.415 . S
C1093 H1063 0.950 . S
C1093 C1088 1.363 . S
C1093 C1092 1.415 . S
H1094 C1091 0.999 . S
H1095 C1076 0.913 . S
H1096 C1114 0.951 . S
H1097 C1116 0.951 1_565 S
H1098 C1118 0.950 . S
H1099 C1119 0.950 . S
H1100 C1121 0.950 . S
H1101 C1124 0.950 . S
H1102 C1125 0.950 . S
H1103 C1127 0.950 . S
H1104 C1128 0.950 . S
H1105 C1129 0.951 . S
H1106 C1131 0.951 1_545 S
H1107 C1133 0.950 . S
H1108 C1134 0.950 . S
H1109 C1136 0.950 . S
H1110 C1139 0.950 . S
H1111 C1140 0.950 . S
H1112 C1142 0.950 . S
H1113 C1143 0.950 . S
C1114 H1096 0.951 . S
C1114 C1115 1.366 . S
C1114 C1116 1.388 . S
C1115 C1114 1.366 . S
C1115 C1119 1.385 . S
C1116 H1097 0.951 1_545 S
C1116 C1114 1.388 . S
C1116 C1117 1.366 . S
C1117 C1116 1.366 . S
C1117 C1118 1.414 . S
C1117 C1120 1.499 . S
C1118 H1098 0.950 . S
C1118 C1117 1.414 . S
C1118 C1119 1.374 . S
C1119 H1099 0.950 . S
C1119 C1115 1.385 . S
C1119 C1118 1.374 . S
C1120 C1117 1.499 . S
C1120 C1121 1.373 . S
C1120 C1122 1.389 1_545 S
C1121 H1100 0.950 . S
C1121 C1120 1.373 . S
C1121 C1137 1.377 1_455 S
C1122 C1120 1.389 1_565 S
C1122 C1123 1.524 . S
C1122 C1136 1.377 1_455 S
C1123 C1122 1.524 . S
C1123 C1124 1.397 1_565 S
C1123 C1128 1.363 . S
C1124 H1101 0.950 . S
C1124 C1123 1.397 1_545 S
C1124 C1125 1.334 . S
C1125 H1102 0.950 . S
C1125 C1124 1.334 . S
C1125 C1126 1.287 . S
C1126 C1125 1.287 . S
C1126 C1127 1.524 1_545 S
C1126 H1145 0.913 . S
C1127 H1103 0.950 . S
C1127 C1126 1.524 1_565 S
C1127 C1128 1.415 . S
C1128 H1104 0.950 . S
C1128 C1123 1.363 . S
C1128 C1127 1.415 . S
C1129 H1105 0.951 . S
C1129 C1130 1.366 . S
C1129 C1131 1.388 . S
C1130 C1129 1.366 . S
C1130 C1134 1.385 . S
C1131 H1106 0.951 1_565 S
C1131 C1129 1.388 . S
C1131 C1132 1.366 . S
C1132 C1131 1.366 . S
C1132 C1133 1.414 . S
C1132 C1135 1.499 . S
C1133 H1107 0.950 . S
C1133 C1132 1.414 . S
C1133 C1134 1.374 . S
C1134 H1108 0.950 . S
C1134 C1130 1.385 . S
C1134 C1133 1.374 . S
C1135 C1132 1.499 . S
C1135 C1136 1.373 . S
C1135 C1137 1.389 1_565 S
C1136 H1109 0.950 . S
C1136 C1122 1.377 1_655 S
C1136 C1135 1.373 . S
C1137 C1121 1.377 1_655 S
C1137 C1135 1.389 1_545 S
C1137 C1138 1.524 . S
C1138 C1137 1.524 . S
C1138 C1139 1.397 1_545 S
C1138 C1143 1.363 . S
C1139 H1110 0.950 . S
C1139 C1138 1.397 1_565 S
C1139 C1140 1.334 . S
C1140 H1111 0.950 . S
C1140 C1139 1.334 . S
C1140 C1141 1.287 . S
C1141 C1140 1.287 . S
C1141 C1142 1.524 1_565 S
C1141 H1144 0.999 . S
C1142 H1112 0.950 . S
C1142 C1141 1.524 1_545 S
C1142 C1143 1.415 . S
C1143 H1113 0.950 . S
C1143 C1138 1.363 . S
C1143 C1142 1.415 . S
H1144 C1141 0.999 . S
H1145 C1126 0.913 . S
H1146 C1164 0.951 . S
H1147 C1166 0.951 . S
H1148 C1168 0.950 . S
H1149 C1169 0.950 . S
H1150 C1171 0.950 . S
H1151 C1174 0.950 . S
H1152 C1175 0.950 . S
H1153 C1177 0.950 . S
H1154 C1178 0.950 . S
H1155 C1179 0.951 . S
H1156 C1181 0.951 . S
H1157 C1183 0.950 . S
H1158 C1184 0.950 . S
H1159 C1186 0.950 . S
H1160 C1189 0.950 . S
H1161 C1190 0.950 . S
H1162 C1192 0.950 . S
H1163 C1193 0.950 . S
C1164 H1146 0.951 . S
C1164 C1165 1.366 . S
C1164 C1166 1.388 . S
C1165 C1164 1.366 . S
C1165 C1169 1.385 . S
C1166 H1147 0.951 . S
C1166 C1164 1.388 . S
C1166 C1167 1.366 . S
C1167 C1166 1.366 . S
C1167 C1168 1.414 . S
C1167 C1170 1.499 . S
C1168 H1148 0.950 . S
C1168 C1167 1.414 . S
C1168 C1169 1.374 . S
C1169 H1149 0.950 . S
C1169 C1165 1.385 . S
C1169 C1168 1.374 . S
C1170 C1167 1.499 . S
C1170 C1171 1.373 . S
C1170 C1172 1.389 1_565 S
C1171 H1150 0.950 . S
C1171 C1170 1.373 . S
C1171 C1187 1.377 1_655 S
C1172 C1170 1.389 1_545 S
C1172 C1173 1.524 . S
C1172 C1186 1.377 1_655 S
C1173 C1172 1.524 . S
C1173 C1174 1.397 . S
C1173 C1178 1.363 . S
C1174 H1151 0.950 . S
C1174 C1173 1.397 . S
C1174 C1175 1.334 . S
C1175 H1152 0.950 . S
C1175 C1174 1.334 . S
C1175 C1176 1.287 . S
C1176 C1175 1.287 . S
C1176 C1177 1.524 . S
C1176 H1195 0.913 . S
C1177 H1153 0.950 . S
C1177 C1176 1.524 . S
C1177 C1178 1.415 . S
C1178 H1154 0.950 . S
C1178 C1173 1.363 . S
C1178 C1177 1.415 . S
C1179 H1155 0.951 . S
C1179 C1180 1.366 . S
C1179 C1181 1.388 . S
C1180 C1179 1.366 . S
C1180 C1184 1.385 . S
C1181 H1156 0.951 . S
C1181 C1179 1.388 . S
C1181 C1182 1.366 . S
C1182 C1181 1.366 . S
C1182 C1183 1.414 . S
C1182 C1185 1.499 . S
C1183 H1157 0.950 . S
C1183 C1182 1.414 . S
C1183 C1184 1.374 . S
C1184 H1158 0.950 . S
C1184 C1180 1.385 . S
C1184 C1183 1.374 . S
C1185 C1182 1.499 . S
C1185 C1186 1.373 . S
C1185 C1187 1.389 1_545 S
C1186 H1159 0.950 . S
C1186 C1172 1.377 1_455 S
C1186 C1185 1.373 . S
C1187 C1171 1.377 1_455 S
C1187 C1185 1.389 1_565 S
C1187 C1188 1.524 . S
C1188 C1187 1.524 . S
C1188 C1189 1.397 . S
C1188 C1193 1.363 . S
C1189 H1160 0.950 . S
C1189 C1188 1.397 . S
C1189 C1190 1.334 . S
C1190 H1161 0.950 . S
C1190 C1189 1.334 . S
C1190 C1191 1.287 . S
C1191 C1190 1.287 . S
C1191 C1192 1.524 . S
C1191 H1194 0.999 . S
C1192 H1162 0.950 . S
C1192 C1191 1.524 . S
C1192 C1193 1.415 . S
C1193 H1163 0.950 . S
C1193 C1188 1.363 . S
C1193 C1192 1.415 . S
H1194 C1191 0.999 . S
H1195 C1176 0.913 . S
H1196 C1214 0.951 . S
H1197 C1216 0.951 . S
H1198 C1218 0.950 1_455 S
H1199 C1219 0.950 . S
H1200 C1221 0.950 . S
H1201 C1224 0.950 . S
H1202 C1225 0.950 . S
H1203 C1227 0.950 . S
H1204 C1228 0.950 . S
H1205 C1229 0.951 . S
H1206 C1231 0.951 . S
H1207 C1233 0.950 1_655 S
H1208 C1234 0.950 . S
H1209 C1236 0.950 . S
H1210 C1239 0.950 . S
H1211 C1240 0.950 . S
H1212 C1242 0.950 . S
H1213 C1243 0.950 . S
C1214 H1196 0.951 . S
C1214 C1215 1.366 . S
C1214 C1216 1.388 . S
C1215 C1214 1.366 . S
C1215 C1219 1.385 . S
C1216 H1197 0.951 . S
C1216 C1214 1.388 . S
C1216 C1217 1.366 . S
C1217 C1216 1.366 . S
C1217 C1218 1.414 . S
C1217 C1220 1.499 . S
C1218 H1198 0.950 1_655 S
C1218 C1217 1.414 . S
C1218 C1219 1.374 . S
C1219 H1199 0.950 . S
C1219 C1215 1.385 . S
C1219 C1218 1.374 . S
C1220 C1217 1.499 . S
C1220 C1221 1.373 1_655 S
C1220 C1222 1.389 . S
C1221 H1200 0.950 . S
C1221 C1220 1.373 1_455 S
C1221 C1237 1.377 1_565 S
C1222 C1220 1.389 . S
C1222 C1223 1.524 . S
C1222 C1236 1.377 1_565 S
C1223 C1222 1.524 . S
C1223 C1224 1.397 . S
C1223 C1228 1.363 . S
C1224 H1201 0.950 . S
C1224 C1223 1.397 . S
C1224 C1225 1.334 . S
C1225 H1202 0.950 . S
C1225 C1224 1.334 . S
C1225 C1226 1.287 . S
C1226 C1225 1.287 . S
C1226 C1227 1.524 . S
C1226 H1245 0.913 . S
C1227 H1203 0.950 . S
C1227 C1226 1.524 . S
C1227 C1228 1.415 . S
C1228 H1204 0.950 . S
C1228 C1223 1.363 . S
C1228 C1227 1.415 . S
C1229 H1205 0.951 . S
C1229 C1230 1.366 . S
C1229 C1231 1.388 . S
C1230 C1229 1.366 . S
C1230 C1234 1.385 . S
C1231 H1206 0.951 . S
C1231 C1229 1.388 . S
C1231 C1232 1.366 . S
C1232 C1231 1.366 . S
C1232 C1233 1.414 . S
C1232 C1235 1.499 . S
C1233 H1207 0.950 1_455 S
C1233 C1232 1.414 . S
C1233 C1234 1.374 . S
C1234 H1208 0.950 . S
C1234 C1230 1.385 . S
C1234 C1233 1.374 . S
C1235 C1232 1.499 . S
C1235 C1236 1.373 1_455 S
C1235 C1237 1.389 . S
C1236 H1209 0.950 . S
C1236 C1222 1.377 1_545 S
C1236 C1235 1.373 1_655 S
C1237 C1221 1.377 1_545 S
C1237 C1235 1.389 . S
C1237 C1238 1.524 . S
C1238 C1237 1.524 . S
C1238 C1239 1.397 . S
C1238 C1243 1.363 . S
C1239 H1210 0.950 . S
C1239 C1238 1.397 . S
C1239 C1240 1.334 . S
C1240 H1211 0.950 . S
C1240 C1239 1.334 . S
C1240 C1241 1.287 . S
C1241 C1240 1.287 . S
C1241 C1242 1.524 . S
C1241 H1244 0.999 . S
C1242 H1212 0.950 . S
C1242 C1241 1.524 . S
C1242 C1243 1.415 . S
C1243 H1213 0.950 . S
C1243 C1238 1.363 . S
C1243 C1242 1.415 . S
H1244 C1241 0.999 . S
H1245 C1226 0.913 . S
H1246 C1264 0.951 . S
H1247 C1266 0.951 . S
H1248 C1268 0.950 1_565 S
H1249 C1269 0.950 . S
H1250 C1271 0.950 . S
H1251 C1274 0.950 . S
H1252 C1275 0.950 . S
H1253 C1277 0.950 . S
H1254 C1278 0.950 . S
H1255 C1279 0.951 . S
H1256 C1281 0.951 . S
H1257 C1283 0.950 1_545 S
H1258 C1284 0.950 . S
H1259 C1286 0.950 . S
H1260 C1289 0.950 . S
H1261 C1290 0.950 . S
H1262 C1292 0.950 . S
H1263 C1293 0.950 . S
C1264 H1246 0.951 . S
C1264 C1265 1.366 . S
C1264 C1266 1.388 . S
C1265 C1264 1.366 . S
C1265 C1269 1.385 . S
C1266 H1247 0.951 . S
C1266 C1264 1.388 . S
C1266 C1267 1.366 . S
C1267 C1266 1.366 . S
C1267 C1268 1.414 . S
C1267 C1270 1.499 . S
C1268 H1248 0.950 1_545 S
C1268 C1267 1.414 . S
C1268 C1269 1.374 . S
C1269 H1249 0.950 . S
C1269 C1265 1.385 . S
C1269 C1268 1.374 . S
C1270 C1267 1.499 . S
C1270 C1271 1.373 1_545 S
C1270 C1272 1.389 1_655 S
C1271 H1250 0.950 . S
C1271 C1270 1.373 1_565 S
C1271 C1287 1.377 . S
C1272 C1270 1.389 1_455 S
C1272 C1273 1.524 . S
C1272 C1286 1.377 . S
C1273 C1272 1.524 . S
C1273 C1274 1.397 1_455 S
C1273 C1278 1.363 . S
C1274 H1251 0.950 . S
C1274 C1273 1.397 1_655 S
C1274 C1275 1.334 . S
C1275 H1252 0.950 . S
C1275 C1274 1.334 . S
C1275 C1276 1.287 1_655 S
C1276 C1275 1.287 1_455 S
C1276 C1277 1.524 . S
C1276 H1295 0.913 . S
C1277 H1253 0.950 . S
C1277 C1276 1.524 . S
C1277 C1278 1.415 . S
C1278 H1254 0.950 . S
C1278 C1273 1.363 . S
C1278 C1277 1.415 . S
C1279 H1255 0.951 . S
C1279 C1280 1.366 . S
C1279 C1281 1.388 . S
C1280 C1279 1.366 . S
C1280 C1284 1.385 . S
C1281 H1256 0.951 . S
C1281 C1279 1.388 . S
C1281 C1282 1.366 . S
C1282 C1281 1.366 . S
C1282 C1283 1.414 . S
C1282 C1285 1.499 . S
C1283 H1257 0.950 1_565 S
C1283 C1282 1.414 . S
C1283 C1284 1.374 . S
C1284 H1258 0.950 . S
C1284 C1280 1.385 . S
C1284 C1283 1.374 . S
C1285 C1282 1.499 . S
C1285 C1286 1.373 1_565 S
C1285 C1287 1.389 1_455 S
C1286 H1259 0.950 . S
C1286 C1272 1.377 . S
C1286 C1285 1.373 1_545 S
C1287 C1271 1.377 . S
C1287 C1285 1.389 1_655 S
C1287 C1288 1.524 . S
C1288 C1287 1.524 . S
C1288 C1289 1.397 1_655 S
C1288 C1293 1.363 . S
C1289 H1260 0.950 . S
C1289 C1288 1.397 1_455 S
C1289 C1290 1.334 . S
C1290 H1261 0.950 . S
C1290 C1289 1.334 . S
C1290 C1291 1.287 1_455 S
C1291 C1290 1.287 1_655 S
C1291 C1292 1.524 . S
C1291 H1294 0.999 . S
C1292 H1262 0.950 . S
C1292 C1291 1.524 . S
C1292 C1293 1.415 . S
C1293 H1263 0.950 . S
C1293 C1288 1.363 . S
C1293 C1292 1.415 . S
H1294 C1291 0.999 . S
H1295 C1276 0.913 . S
H1296 C1314 0.951 . S
H1297 C1316 0.951 . S
H1298 C1318 0.950 . S
H1299 C1319 0.950 . S
H1300 C1321 0.950 . S
H1301 C1324 0.950 . S
H1302 C1325 0.950 . S
H1303 C1327 0.950 . S
H1304 C1328 0.950 . S
H1305 C1329 0.951 . S
H1306 C1331 0.951 . S
H1307 C1333 0.950 . S
H1308 C1334 0.950 . S
H1309 C1336 0.950 . S
H1310 C1339 0.950 . S
H1311 C1340 0.950 . S
H1312 C1342 0.950 . S
H1313 C1343 0.950 . S
C1314 H1296 0.951 . S
C1314 C1315 1.366 . S
C1314 C1316 1.388 . S
C1315 C1314 1.366 . S
C1315 C1319 1.385 . S
C1316 H1297 0.951 . S
C1316 C1314 1.388 . S
C1316 C1317 1.366 . S
C1317 C1316 1.366 . S
C1317 C1318 1.414 . S
C1317 C1320 1.499 . S
C1318 H1298 0.950 . S
C1318 C1317 1.414 . S
C1318 C1319 1.374 . S
C1319 H1299 0.950 . S
C1319 C1315 1.385 . S
C1319 C1318 1.374 . S
C1320 C1317 1.499 . S
C1320 C1321 1.373 . S
C1320 C1322 1.390 . S
C1321 H1300 0.950 . S
C1321 C1320 1.373 . S
C1321 C1337 1.376 1_655 S
C1322 C1320 1.390 . S
C1322 C1323 1.524 1_655 S
C1322 C1336 1.376 1_655 S
C1323 C1322 1.524 1_455 S
C1323 C1324 1.397 1_455 S
C1323 C1328 1.363 . S
C1324 H1301 0.950 . S
C1324 C1323 1.397 1_655 S
C1324 C1325 1.334 . S
C1325 H1302 0.950 . S
C1325 C1324 1.334 . S
C1325 C1326 1.276 1_655 S
C1326 C1325 1.276 1_455 S
C1326 C1327 1.529 . S
C1326 H1345 0.922 1_455 S
C1327 H1303 0.950 . S
C1327 C1326 1.529 . S
C1327 C1328 1.415 . S
C1328 H1304 0.950 . S
C1328 C1323 1.363 . S
C1328 C1327 1.415 . S
C1329 H1305 0.951 . S
C1329 C1330 1.366 . S
C1329 C1331 1.388 . S
C1330 C1329 1.366 . S
C1330 C1334 1.385 . S
C1331 H1306 0.951 . S
C1331 C1329 1.388 . S
C1331 C1332 1.366 . S
C1332 C1331 1.366 . S
C1332 C1333 1.414 . S
C1332 C1335 1.499 . S
C1333 H1307 0.950 . S
C1333 C1332 1.414 . S
C1333 C1334 1.374 . S
C1334 H1308 0.950 . S
C1334 C1330 1.385 . S
C1334 C1333 1.374 . S
C1335 C1332 1.499 . S
C1335 C1336 1.373 . S
C1335 C1337 1.390 . S
C1336 H1309 0.950 . S
C1336 C1322 1.376 1_455 S
C1336 C1335 1.373 . S
C1337 C1321 1.376 1_455 S
C1337 C1335 1.390 . S
C1337 C1338 1.524 1_455 S
C1338 C1337 1.524 1_655 S
C1338 C1339 1.397 1_655 S
C1338 C1343 1.363 . S
C1339 H1310 0.950 . S
C1339 C1338 1.397 1_455 S
C1339 C1340 1.334 . S
C1340 H1311 0.950 . S
C1340 C1339 1.334 . S
C1340 C1341 1.276 1_455 S
C1341 C1340 1.276 1_655 S
C1341 C1342 1.529 . S
C1341 H1344 1.005 . S
C1342 H1312 0.950 . S
C1342 C1341 1.529 . S
C1342 C1343 1.415 . S
C1343 H1313 0.950 . S
C1343 C1338 1.363 . S
C1343 C1342 1.415 . S
H1344 C1341 1.005 . S
H1345 C1326 0.922 1_655 S
H1346 C1364 0.951 . S
H1347 C1366 0.951 . S
H1348 C1368 0.950 . S
H1349 C1369 0.950 . S
H1350 C1371 0.950 . S
H1351 C1374 0.950 . S
H1352 C1375 0.950 . S
H1353 C1377 0.950 . S
H1354 C1378 0.950 . S
H1355 C1379 0.951 . S
H1356 C1381 0.951 . S
H1357 C1383 0.950 . S
H1358 C1384 0.950 . S
H1359 C1386 0.950 . S
H1360 C1389 0.950 . S
H1361 C1390 0.950 . S
H1362 C1392 0.950 . S
H1363 C1393 0.950 . S
C1364 H1346 0.951 . S
C1364 C1365 1.366 . S
C1364 C1366 1.388 . S
C1365 C1364 1.366 . S
C1365 C1369 1.385 . S
C1366 H1347 0.951 . S
C1366 C1364 1.388 . S
C1366 C1367 1.366 . S
C1367 C1366 1.366 . S
C1367 C1368 1.414 . S
C1367 C1370 1.499 . S
C1368 H1348 0.950 . S
C1368 C1367 1.414 . S
C1368 C1369 1.374 . S
C1369 H1349 0.950 . S
C1369 C1365 1.385 . S
C1369 C1368 1.374 . S
C1370 C1367 1.499 . S
C1370 C1371 1.373 . S
C1370 C1372 1.389 . S
C1371 H1350 0.950 . S
C1371 C1370 1.373 . S
C1371 C1387 1.377 1_545 S
C1372 C1370 1.389 . S
C1372 C1373 1.524 . S
C1372 C1386 1.377 1_545 S
C1373 C1372 1.524 . S
C1373 C1374 1.397 . S
C1373 C1378 1.363 . S
C1374 H1351 0.950 . S
C1374 C1373 1.397 . S
C1374 C1375 1.334 . S
C1375 H1352 0.950 . S
C1375 C1374 1.334 . S
C1375 C1376 1.287 . S
C1376 C1375 1.287 . S
C1376 C1377 1.524 . S
C1376 H1395 0.913 . S
C1377 H1353 0.950 . S
C1377 C1376 1.524 . S
C1377 C1378 1.415 . S
C1378 H1354 0.950 . S
C1378 C1373 1.363 . S
C1378 C1377 1.415 . S
C1379 H1355 0.951 . S
C1379 C1380 1.366 . S
C1379 C1381 1.388 . S
C1380 C1379 1.366 . S
C1380 C1384 1.385 . S
C1381 H1356 0.951 . S
C1381 C1379 1.388 . S
C1381 C1382 1.366 . S
C1382 C1381 1.366 . S
C1382 C1383 1.414 . S
C1382 C1385 1.499 . S
C1383 H1357 0.950 . S
C1383 C1382 1.414 . S
C1383 C1384 1.374 . S
C1384 H1358 0.950 . S
C1384 C1380 1.385 . S
C1384 C1383 1.374 . S
C1385 C1382 1.499 . S
C1385 C1386 1.373 . S
C1385 C1387 1.389 . S
C1386 H1359 0.950 . S
C1386 C1372 1.377 1_565 S
C1386 C1385 1.373 . S
C1387 C1371 1.377 1_565 S
C1387 C1385 1.389 . S
C1387 C1388 1.524 . S
C1388 C1387 1.524 . S
C1388 C1389 1.397 . S
C1388 C1393 1.363 . S
C1389 H1360 0.950 . S
C1389 C1388 1.397 . S
C1389 C1390 1.334 . S
C1390 H1361 0.950 . S
C1390 C1389 1.334 . S
C1390 C1391 1.287 . S
C1391 C1390 1.287 . S
C1391 C1392 1.524 . S
C1391 H1394 0.999 . S
C1392 H1362 0.950 . S
C1392 C1391 1.524 . S
C1392 C1393 1.415 . S
C1393 H1363 0.950 . S
C1393 C1388 1.363 . S
C1393 C1392 1.415 . S
H1394 C1391 0.999 . S
H1395 C1376 0.913 . S
H1396 C1414 0.951 . S
H1397 C1416 0.951 . S
H1398 C1418 0.950 . S
H1399 C1419 0.950 . S
H1400 C1421 0.950 . S
H1401 C1424 0.950 . S
H1402 C1425 0.950 . S
H1403 C1427 0.950 . S
H1404 C1428 0.950 . S
H1405 C1429 0.951 . S
H1406 C1431 0.951 . S
H1407 C1433 0.950 . S
H1408 C1434 0.950 . S
H1409 C1436 0.950 . S
H1410 C1439 0.950 . S
H1411 C1440 0.950 . S
H1412 C1442 0.950 . S
H1413 C1443 0.950 . S
C1414 H1396 0.951 . S
C1414 C1415 1.366 . S
C1414 C1416 1.388 . S
C1415 C1414 1.366 . S
C1415 C1419 1.385 . S
C1416 H1397 0.951 . S
C1416 C1414 1.388 . S
C1416 C1417 1.366 . S
C1417 C1416 1.366 . S
C1417 C1418 1.414 . S
C1417 C1420 1.499 . S
C1418 H1398 0.950 . S
C1418 C1417 1.414 . S
C1418 C1419 1.374 . S
C1419 H1399 0.950 . S
C1419 C1415 1.385 . S
C1419 C1418 1.374 . S
C1420 C1417 1.499 . S
C1420 C1421 1.373 . S
C1420 C1422 1.389 . S
C1421 H1400 0.950 . S
C1421 C1420 1.373 . S
C1421 C1437 1.377 . S
C1422 C1420 1.389 . S
C1422 C1423 1.524 . S
C1422 C1436 1.377 . S
C1423 C1422 1.524 . S
C1423 C1424 1.397 . S
C1423 C1428 1.363 . S
C1424 H1401 0.950 . S
C1424 C1423 1.397 . S
C1424 C1425 1.334 . S
C1425 H1402 0.950 . S
C1425 C1424 1.334 . S
C1425 C1426 1.287 . S
C1426 C1425 1.287 . S
C1426 C1427 1.524 . S
C1426 H1445 0.913 . S
C1427 H1403 0.950 . S
C1427 C1426 1.524 . S
C1427 C1428 1.415 . S
C1428 H1404 0.950 . S
C1428 C1423 1.363 . S
C1428 C1427 1.415 . S
C1429 H1405 0.951 . S
C1429 C1430 1.366 . S
C1429 C1431 1.388 . S
C1430 C1429 1.366 . S
C1430 C1434 1.385 . S
C1431 H1406 0.951 . S
C1431 C1429 1.388 . S
C1431 C1432 1.366 . S
C1432 C1431 1.366 . S
C1432 C1433 1.414 . S
C1432 C1435 1.499 . S
C1433 H1407 0.950 . S
C1433 C1432 1.414 . S
C1433 C1434 1.374 . S
C1434 H1408 0.950 . S
C1434 C1430 1.385 . S
C1434 C1433 1.374 . S
C1435 C1432 1.499 . S
C1435 C1436 1.373 . S
C1435 C1437 1.389 . S
C1436 H1409 0.950 . S
C1436 C1422 1.377 . S
C1436 C1435 1.373 . S
C1437 C1421 1.377 . S
C1437 C1435 1.389 . S
C1437 C1438 1.524 . S
C1438 C1437 1.524 . S
C1438 C1439 1.397 . S
C1438 C1443 1.363 . S
C1439 H1410 0.950 . S
C1439 C1438 1.397 . S
C1439 C1440 1.334 . S
C1440 H1411 0.950 . S
C1440 C1439 1.334 . S
C1440 C1441 1.287 . S
C1441 C1440 1.287 . S
C1441 C1442 1.524 . S
C1441 H1444 0.999 . S
C1442 H1412 0.950 . S
C1442 C1441 1.524 . S
C1442 C1443 1.415 . S
C1443 H1413 0.950 . S
C1443 C1438 1.363 . S
C1443 C1442 1.415 . S
H1444 C1441 0.999 . S
H1445 C1426 0.913 . S
H1446 C1464 0.951 . S
H1447 C1466 0.951 . S
H1448 C1468 0.950 . S
H1449 C1469 0.950 . S
H1450 C1471 0.950 . S
H1451 C1474 0.950 . S
H1452 C1475 0.950 . S
H1453 C1477 0.950 . S
H1454 C1478 0.950 1_655 S
H1455 C1479 0.951 . S
H1456 C1481 0.951 . S
H1457 C1483 0.950 . S
H1458 C1484 0.950 . S
H1459 C1486 0.950 . S
H1460 C1489 0.950 . S
H1461 C1490 0.950 . S
H1462 C1492 0.950 . S
H1463 C1493 0.950 1_455 S
C1464 H1446 0.951 . S
C1464 C1465 1.366 . S
C1464 C1466 1.388 . S
C1465 C1464 1.366 . S
C1465 C1469 1.385 . S
C1466 H1447 0.951 . S
C1466 C1464 1.388 . S
C1466 C1467 1.366 . S
C1467 C1466 1.366 . S
C1467 C1468 1.414 . S
C1467 C1470 1.499 . S
C1468 H1448 0.950 . S
C1468 C1467 1.414 . S
C1468 C1469 1.374 . S
C1469 H1449 0.950 . S
C1469 C1465 1.385 . S
C1469 C1468 1.374 . S
C1470 C1467 1.499 . S
C1470 C1471 1.373 . S
C1470 C1472 1.389 . S
C1471 H1450 0.950 . S
C1471 C1470 1.373 . S
C1471 C1487 1.377 1_455 S
C1472 C1470 1.389 . S
C1472 C1473 1.524 . S
C1472 C1486 1.377 1_455 S
C1473 C1472 1.524 . S
C1473 C1474 1.397 . S
C1473 C1478 1.363 . S
C1474 H1451 0.950 . S
C1474 C1473 1.397 . S
C1474 C1475 1.334 . S
C1475 H1452 0.950 . S
C1475 C1474 1.334 . S
C1475 C1476 1.287 . S
C1476 C1475 1.287 . S
C1476 C1477 1.524 . S
C1476 H1495 0.913 . S
C1477 H1453 0.950 . S
C1477 C1476 1.524 . S
C1477 C1478 1.415 . S
C1478 H1454 0.950 1_455 S
C1478 C1473 1.363 . S
C1478 C1477 1.415 . S
C1479 H1455 0.951 . S
C1479 C1480 1.366 . S
C1479 C1481 1.388 . S
C1480 C1479 1.366 . S
C1480 C1484 1.385 . S
C1481 H1456 0.951 . S
C1481 C1479 1.388 . S
C1481 C1482 1.366 . S
C1482 C1481 1.366 . S
C1482 C1483 1.414 . S
C1482 C1485 1.499 . S
C1483 H1457 0.950 . S
C1483 C1482 1.414 . S
C1483 C1484 1.374 . S
C1484 H1458 0.950 . S
C1484 C1480 1.385 . S
C1484 C1483 1.374 . S
C1485 C1482 1.499 . S
C1485 C1486 1.373 . S
C1485 C1487 1.389 . S
C1486 H1459 0.950 . S
C1486 C1472 1.377 1_655 S
C1486 C1485 1.373 . S
C1487 C1471 1.377 1_655 S
C1487 C1485 1.389 . S
C1487 C1488 1.524 . S
C1488 C1487 1.524 . S
C1488 C1489 1.397 . S
C1488 C1493 1.363 . S
C1489 H1460 0.950 . S
C1489 C1488 1.397 . S
C1489 C1490 1.334 . S
C1490 H1461 0.950 . S
C1490 C1489 1.334 . S
C1490 C1491 1.287 . S
C1491 C1490 1.287 . S
C1491 C1492 1.524 . S
C1491 H1494 0.999 . S
C1492 H1462 0.950 . S
C1492 C1491 1.524 . S
C1492 C1493 1.415 . S
C1493 H1463 0.950 1_655 S
C1493 C1488 1.363 . S
C1493 C1492 1.415 . S
H1494 C1491 0.999 . S
H1495 C1476 0.913 . S
H1496 C1514 0.951 . S
H1497 C1516 0.951 . S
H1498 C1518 0.950 . S
H1499 C1519 0.950 . S
H1500 C1521 0.945 . S
H1501 C1524 0.950 . S
H1502 C1525 0.950 . S
H1503 C1527 0.950 . S
H1504 C1528 0.950 . S
H1505 C1529 0.951 . S
H1506 C1531 0.951 . S
H1507 C1533 0.950 . S
H1508 C1534 0.950 . S
H1509 C1536 0.945 . S
H1510 C1539 0.950 . S
H1511 C1540 0.950 . S
H1512 C1542 0.950 . S
H1513 C1543 0.950 . S
C1514 H1496 0.951 . S
C1514 C1515 1.366 . S
C1514 C1516 1.388 . S
C1515 C1514 1.366 . S
C1515 C1519 1.385 . S
C1516 H1497 0.951 . S
C1516 C1514 1.388 . S
C1516 C1517 1.366 . S
C1517 C1516 1.366 . S
C1517 C1518 1.414 . S
C1517 C1520 1.499 . S
C1518 H1498 0.950 . S
C1518 C1517 1.414 . S
C1518 C1519 1.374 . S
C1519 H1499 0.950 . S
C1519 C1515 1.385 . S
C1519 C1518 1.374 . S
C1520 C1517 1.499 . S
C1520 C1521 1.371 1_565 S
C1520 C1522 1.389 . S
C1521 H1500 0.945 . S
C1521 C1520 1.371 1_545 S
C1521 C1537 1.378 . S
C1522 C1520 1.389 . S
C1522 C1523 1.524 . S
C1522 C1536 1.378 . S
C1523 C1522 1.524 . S
C1523 C1524 1.397 . S
C1523 C1528 1.363 . S
C1524 H1501 0.950 . S
C1524 C1523 1.397 . S
C1524 C1525 1.334 . S
C1525 H1502 0.950 . S
C1525 C1524 1.334 . S
C1525 C1526 1.287 . S
C1526 C1525 1.287 . S
C1526 C1527 1.524 . S
C1526 H1545 0.913 . S
C1527 H1503 0.950 . S
C1527 C1526 1.524 . S
C1527 C1528 1.415 . S
C1528 H1504 0.950 . S
C1528 C1523 1.363 . S
C1528 C1527 1.415 . S
C1529 H1505 0.951 . S
C1529 C1530 1.366 . S
C1529 C1531 1.388 . S
C1530 C1529 1.366 . S
C1530 C1534 1.385 . S
C1531 H1506 0.951 . S
C1531 C1529 1.388 . S
C1531 C1532 1.366 . S
C1532 C1531 1.366 . S
C1532 C1533 1.414 . S
C1532 C1535 1.499 . S
C1533 H1507 0.950 . S
C1533 C1532 1.414 . S
C1533 C1534 1.374 . S
C1534 H1508 0.950 . S
C1534 C1530 1.385 . S
C1534 C1533 1.374 . S
C1535 C1532 1.499 . S
C1535 C1536 1.371 1_545 S
C1535 C1537 1.389 . S
C1536 H1509 0.945 . S
C1536 C1522 1.378 . S
C1536 C1535 1.371 1_565 S
C1537 C1521 1.378 . S
C1537 C1535 1.389 . S
C1537 C1538 1.524 . S
C1538 C1537 1.524 . S
C1538 C1539 1.397 . S
C1538 C1543 1.363 . S
C1539 H1510 0.950 . S
C1539 C1538 1.397 . S
C1539 C1540 1.334 . S
C1540 H1511 0.950 . S
C1540 C1539 1.334 . S
C1540 C1541 1.287 . S
C1541 C1540 1.287 . S
C1541 C1542 1.524 . S
C1541 H1544 0.999 . S
C1542 H1512 0.950 . S
C1542 C1541 1.524 . S
C1542 C1543 1.415 . S
C1543 H1513 0.950 . S
C1543 C1538 1.363 . S
C1543 C1542 1.415 . S
H1544 C1541 0.999 . S
H1545 C1526 0.913 . S
H1546 C1564 0.951 . S
H1547 C1566 0.951 . S
H1548 C1568 0.950 . S
H1549 C1569 0.950 . S
H1550 C1571 0.950 . S
H1551 C1574 0.950 . S
H1552 C1575 0.950 . S
H1553 C1577 0.950 . S
H1554 C1578 0.950 . S
H1555 C1579 0.951 . S
H1556 C1581 0.951 . S
H1557 C1583 0.950 . S
H1558 C1584 0.950 . S
H1559 C1586 0.950 . S
H1560 C1589 0.950 . S
H1561 C1590 0.950 . S
H1562 C1592 0.950 . S
H1563 C1593 0.950 . S
C1564 H1546 0.951 . S
C1564 C1565 1.366 . S
C1564 C1566 1.388 . S
C1565 C1564 1.366 . S
C1565 C1569 1.385 . S
C1566 H1547 0.951 . S
C1566 C1564 1.388 . S
C1566 C1567 1.366 . S
C1567 C1566 1.366 . S
C1567 C1568 1.414 . S
C1567 C1570 1.499 . S
C1568 H1548 0.950 . S
C1568 C1567 1.414 . S
C1568 C1569 1.374 . S
C1569 H1549 0.950 . S
C1569 C1565 1.385 . S
C1569 C1568 1.374 . S
C1570 C1567 1.499 . S
C1570 C1571 1.373 . S
C1570 C1572 1.389 . S
C1571 H1550 0.950 . S
C1571 C1570 1.373 . S
C1571 C1587 1.377 . S
C1572 C1570 1.389 . S
C1572 C1573 1.524 . S
C1572 C1586 1.377 . S
C1573 C1572 1.524 . S
C1573 C1574 1.397 . S
C1573 C1578 1.363 . S
C1574 H1551 0.950 . S
C1574 C1573 1.397 . S
C1574 C1575 1.334 . S
C1575 H1552 0.950 . S
C1575 C1574 1.334 . S
C1575 C1576 1.287 . S
C1576 C1575 1.287 . S
C1576 C1577 1.524 . S
C1576 H1595 0.913 . S
C1577 H1553 0.950 . S
C1577 C1576 1.524 . S
C1577 C1578 1.415 . S
C1578 H1554 0.950 . S
C1578 C1573 1.363 . S
C1578 C1577 1.415 . S
C1579 H1555 0.951 . S
C1579 C1580 1.366 . S
C1579 C1581 1.388 . S
C1580 C1579 1.366 . S
C1580 C1584 1.385 . S
C1581 H1556 0.951 . S
C1581 C1579 1.388 . S
C1581 C1582 1.366 . S
C1582 C1581 1.366 . S
C1582 C1583 1.414 . S
C1582 C1585 1.499 . S
C1583 H1557 0.950 . S
C1583 C1582 1.414 . S
C1583 C1584 1.374 . S
C1584 H1558 0.950 . S
C1584 C1580 1.385 . S
C1584 C1583 1.374 . S
C1585 C1582 1.499 . S
C1585 C1586 1.373 . S
C1585 C1587 1.389 . S
C1586 H1559 0.950 . S
C1586 C1572 1.377 . S
C1586 C1585 1.373 . S
C1587 C1571 1.377 . S
C1587 C1585 1.389 . S
C1587 C1588 1.524 . S
C1588 C1587 1.524 . S
C1588 C1589 1.397 . S
C1588 C1593 1.363 . S
C1589 H1560 0.950 . S
C1589 C1588 1.397 . S
C1589 C1590 1.334 . S
C1590 H1561 0.950 . S
C1590 C1589 1.334 . S
C1590 C1591 1.287 . S
C1591 C1590 1.287 . S
C1591 C1592 1.524 . S
C1591 H1594 0.999 . S
C1592 H1562 0.950 . S
C1592 C1591 1.524 . S
C1592 C1593 1.415 . S
C1593 H1563 0.950 . S
C1593 C1588 1.363 . S
C1593 C1592 1.415 . S
H1594 C1591 0.999 . S
H1595 C1576 0.913 . S
H1596 C1614 0.951 . S
H1597 C1616 0.951 . S
H1598 C1618 0.950 . S
H1599 C1619 0.950 . S
H1600 C1621 0.950 . S
H1601 C1624 0.950 . S
H1602 C1625 0.950 . S
H1603 C1627 0.950 . S
H1604 C1628 0.950 . S
H1605 C1629 0.951 . S
H1606 C1631 0.951 . S
H1607 C1633 0.950 . S
H1608 C1634 0.950 . S
H1609 C1636 0.950 . S
H1610 C1639 0.950 . S
H1611 C1640 0.950 1_565 S
H1612 C1642 0.950 . S
H1613 C1643 0.950 . S
C1614 H1596 0.951 . S
C1614 C1615 1.366 . S
C1614 C1616 1.388 . S
C1615 C1614 1.366 . S
C1615 C1619 1.385 . S
C1616 H1597 0.951 . S
C1616 C1614 1.388 . S
C1616 C1617 1.366 . S
C1617 C1616 1.366 . S
C1617 C1618 1.414 . S
C1617 C1620 1.499 . S
C1618 H1598 0.950 . S
C1618 C1617 1.414 . S
C1618 C1619 1.374 . S
C1619 H1599 0.950 . S
C1619 C1615 1.385 . S
C1619 C1618 1.374 . S
C1620 C1617 1.499 . S
C1620 C1621 1.373 . S
C1620 C1622 1.389 . S
C1621 H1600 0.950 . S
C1621 C1620 1.373 . S
C1621 C1637 1.377 . S
C1622 C1620 1.389 . S
C1622 C1623 1.524 . S
C1622 C1636 1.377 . S
C1623 C1622 1.524 . S
C1623 C1624 1.397 . S
C1623 C1628 1.363 . S
C1624 H1601 0.950 . S
C1624 C1623 1.397 . S
C1624 C1625 1.334 . S
C1625 H1602 0.950 . S
C1625 C1624 1.334 . S
C1625 C1626 1.287 . S
C1626 C1625 1.287 . S
C1626 C1627 1.524 . S
C1626 H1645 0.913 . S
C1627 H1603 0.950 . S
C1627 C1626 1.524 . S
C1627 C1628 1.415 . S
C1628 H1604 0.950 . S
C1628 C1623 1.363 . S
C1628 C1627 1.415 . S
C1629 H1605 0.951 . S
C1629 C1630 1.366 . S
C1629 C1631 1.388 . S
C1630 C1629 1.366 . S
C1630 C1634 1.385 . S
C1631 H1606 0.951 . S
C1631 C1629 1.388 . S
C1631 C1632 1.366 . S
C1632 C1631 1.366 . S
C1632 C1633 1.414 . S
C1632 C1635 1.499 . S
C1633 H1607 0.950 . S
C1633 C1632 1.414 . S
C1633 C1634 1.374 . S
C1634 H1608 0.950 . S
C1634 C1630 1.385 . S
C1634 C1633 1.374 . S
C1635 C1632 1.499 . S
C1635 C1636 1.373 . S
C1635 C1637 1.389 . S
C1636 H1609 0.950 . S
C1636 C1622 1.377 . S
C1636 C1635 1.373 . S
C1637 C1621 1.377 . S
C1637 C1635 1.389 . S
C1637 C1638 1.524 . S
C1638 C1637 1.524 . S
C1638 C1639 1.397 . S
C1638 C1643 1.363 . S
C1639 H1610 0.950 . S
C1639 C1638 1.397 . S
C1639 C1640 1.334 . S
C1640 H1611 0.950 1_545 S
C1640 C1639 1.334 . S
C1640 C1641 1.287 1_545 S
C1641 C1640 1.287 1_565 S
C1641 C1642 1.524 1_565 S
C1641 H1644 0.999 . S
C1642 H1612 0.950 . S
C1642 C1641 1.524 1_545 S
C1642 C1643 1.415 . S
C1643 H1613 0.950 . S
C1643 C1638 1.363 . S
C1643 C1642 1.415 . S
H1644 C1641 0.999 . S
H1645 C1626 0.913 . S
H1646 C1664 0.951 . S
H1647 C1666 0.951 . S
H1648 C1668 0.950 . S
H1649 C1669 0.950 . S
H1650 C1671 0.950 . S
H1651 C1674 0.950 . S
H1652 C1675 0.950 . S
H1653 C1677 0.950 . S
H1654 C1678 0.950 . S
H1655 C1679 0.951 . S
H1656 C1681 0.951 . S
H1657 C1683 0.950 . S
H1658 C1684 0.950 . S
H1659 C1686 0.950 . S
H1660 C1689 0.950 . S
H1661 C1690 0.950 . S
H1662 C1692 0.950 . S
H1663 C1693 0.950 . S
C1664 H1646 0.951 . S
C1664 C1665 1.366 . S
C1664 C1666 1.388 . S
C1665 C1664 1.366 . S
C1665 C1669 1.385 . S
C1666 H1647 0.951 . S
C1666 C1664 1.388 . S
C1666 C1667 1.366 . S
C1667 C1666 1.366 . S
C1667 C1668 1.414 . S
C1667 C1670 1.499 . S
C1668 H1648 0.950 . S
C1668 C1667 1.414 . S
C1668 C1669 1.374 . S
C1669 H1649 0.950 . S
C1669 C1665 1.385 . S
C1669 C1668 1.374 . S
C1670 C1667 1.499 . S
C1670 C1671 1.373 . S
C1670 C1672 1.389 . S
C1671 H1650 0.950 . S
C1671 C1670 1.373 . S
C1671 C1687 1.377 . S
C1672 C1670 1.389 . S
C1672 C1673 1.524 . S
C1672 C1686 1.377 . S
C1673 C1672 1.524 . S
C1673 C1674 1.397 . S
C1673 C1678 1.363 . S
C1674 H1651 0.950 . S
C1674 C1673 1.397 . S
C1674 C1675 1.334 . S
C1675 H1652 0.950 . S
C1675 C1674 1.334 . S
C1675 C1676 1.287 . S
C1676 C1675 1.287 . S
C1676 C1677 1.524 . S
C1676 H1695 0.913 . S
C1677 H1653 0.950 . S
C1677 C1676 1.524 . S
C1677 C1678 1.415 . S
C1678 H1654 0.950 . S
C1678 C1673 1.363 . S
C1678 C1677 1.415 . S
C1679 H1655 0.951 . S
C1679 C1680 1.366 . S
C1679 C1681 1.388 . S
C1680 C1679 1.366 . S
C1680 C1684 1.385 . S
C1681 H1656 0.951 . S
C1681 C1679 1.388 . S
C1681 C1682 1.366 . S
C1682 C1681 1.366 . S
C1682 C1683 1.414 . S
C1682 C1685 1.499 . S
C1683 H1657 0.950 . S
C1683 C1682 1.414 . S
C1683 C1684 1.374 . S
C1684 H1658 0.950 . S
C1684 C1680 1.385 . S
C1684 C1683 1.374 . S
C1685 C1682 1.499 . S
C1685 C1686 1.373 . S
C1685 C1687 1.389 . S
C1686 H1659 0.950 . S
C1686 C1672 1.377 . S
C1686 C1685 1.373 . S
C1687 C1671 1.377 . S
C1687 C1685 1.389 . S
C1687 C1688 1.524 . S
C1688 C1687 1.524 . S
C1688 C1689 1.397 . S
C1688 C1693 1.363 . S
C1689 H1660 0.950 . S
C1689 C1688 1.397 . S
C1689 C1690 1.334 . S
C1690 H1661 0.950 . S
C1690 C1689 1.334 . S
C1690 C1691 1.287 . S
C1691 C1690 1.287 . S
C1691 C1692 1.524 . S
C1691 H1694 0.999 . S
C1692 H1662 0.950 . S
C1692 C1691 1.524 . S
C1692 C1693 1.415 . S
C1693 H1663 0.950 . S
C1693 C1688 1.363 . S
C1693 C1692 1.415 . S
H1694 C1691 0.999 . S
H1695 C1676 0.913 . S
H1696 C1714 0.951 . S
H1697 C1716 0.951 . S
H1698 C1718 0.950 . S
H1699 C1719 0.950 1_455 S
H1700 C1721 0.950 . S
H1701 C1724 0.950 . S
H1702 C1725 0.950 . S
H1703 C1727 0.950 . S
H1704 C1728 0.950 . S
H1705 C1729 0.951 . S
H1706 C1731 0.951 . S
H1707 C1733 0.950 . S
H1708 C1734 0.950 . S
H1709 C1736 0.950 . S
H1710 C1739 0.950 . S
H1711 C1740 0.950 . S
H1712 C1742 0.950 . S
H1713 C1743 0.950 . S
C1714 H1696 0.951 . S
C1714 C1715 1.366 . S
C1714 C1716 1.388 . S
C1715 C1714 1.366 . S
C1715 C1719 1.385 . S
C1716 H1697 0.951 . S
C1716 C1714 1.388 . S
C1716 C1717 1.366 . S
C1717 C1716 1.366 . S
C1717 C1718 1.414 . S
C1717 C1720 1.499 . S
C1718 H1698 0.950 . S
C1718 C1717 1.414 . S
C1718 C1719 1.374 . S
C1719 H1699 0.950 1_655 S
C1719 C1715 1.385 . S
C1719 C1718 1.374 . S
C1720 C1717 1.499 . S
C1720 C1721 1.373 . S
C1720 C1722 1.389 . S
C1721 H1700 0.950 . S
C1721 C1720 1.373 . S
C1721 C1737 1.377 . S
C1722 C1720 1.389 . S
C1722 C1723 1.524 . S
C1722 C1736 1.377 . S
C1723 C1722 1.524 . S
C1723 C1724 1.397 . S
C1723 C1728 1.363 . S
C1724 H1701 0.950 . S
C1724 C1723 1.397 . S
C1724 C1725 1.334 . S
C1725 H1702 0.950 . S
C1725 C1724 1.334 . S
C1725 C1726 1.287 . S
C1726 C1725 1.287 . S
C1726 C1727 1.524 . S
C1726 H1745 0.913 . S
C1727 H1703 0.950 . S
C1727 C1726 1.524 . S
C1727 C1728 1.415 . S
C1728 H1704 0.950 . S
C1728 C1723 1.363 . S
C1728 C1727 1.415 . S
C1729 H1705 0.951 . S
C1729 C1730 1.366 . S
C1729 C1731 1.388 . S
C1730 C1729 1.366 . S
C1730 C1734 1.385 . S
C1731 H1706 0.951 . S
C1731 C1729 1.388 . S
C1731 C1732 1.366 . S
C1732 C1731 1.366 . S
C1732 C1733 1.414 . S
C1732 C1735 1.499 . S
C1733 H1707 0.950 . S
C1733 C1732 1.414 . S
C1733 C1734 1.374 . S
C1734 H1708 0.950 . S
C1734 C1730 1.385 . S
C1734 C1733 1.374 . S
C1735 C1732 1.499 . S
C1735 C1736 1.373 . S
C1735 C1737 1.389 . S
C1736 H1709 0.950 . S
C1736 C1722 1.377 . S
C1736 C1735 1.373 . S
C1737 C1721 1.377 . S
C1737 C1735 1.389 . S
C1737 C1738 1.524 . S
C1738 C1737 1.524 . S
C1738 C1739 1.397 . S
C1738 C1743 1.363 . S
C1739 H1710 0.950 . S
C1739 C1738 1.397 . S
C1739 C1740 1.334 . S
C1740 H1711 0.950 . S
C1740 C1739 1.334 . S
C1740 C1741 1.287 . S
C1741 C1740 1.287 . S
C1741 C1742 1.524 . S
C1741 H1744 0.999 . S
C1742 H1712 0.950 . S
C1742 C1741 1.524 . S
C1742 C1743 1.415 . S
C1743 H1713 0.950 . S
C1743 C1738 1.363 . S
C1743 C1742 1.415 . S
H1744 C1741 0.999 . S
H1745 C1726 0.913 . S
H1746 C1764 0.951 . S
H1747 C1766 0.951 . S
H1748 C1768 0.950 . S
H1749 C1769 0.950 . S
H1750 C1771 0.950 . S
H1751 C1774 0.950 . S
H1752 C1775 0.950 . S
H1753 C1777 0.950 . S
H1754 C1778 0.950 . S
H1755 C1779 0.951 . S
H1756 C1781 0.951 . S
H1757 C1783 0.950 . S
H1758 C1784 0.950 . S
H1759 C1786 0.950 . S
H1760 C1789 0.950 . S
H1761 C1790 0.950 . S
H1762 C1792 0.950 . S
H1763 C1793 0.950 . S
C1764 H1746 0.951 . S
C1764 C1765 1.366 . S
C1764 C1766 1.388 . S
C1765 C1764 1.366 . S
C1765 C1769 1.385 . S
C1766 H1747 0.951 . S
C1766 C1764 1.388 . S
C1766 C1767 1.366 . S
C1767 C1766 1.366 . S
C1767 C1768 1.414 . S
C1767 C1770 1.499 . S
C1768 H1748 0.950 . S
C1768 C1767 1.414 . S
C1768 C1769 1.374 . S
C1769 H1749 0.950 . S
C1769 C1765 1.385 . S
C1769 C1768 1.374 . S
C1770 C1767 1.499 . S
C1770 C1771 1.373 . S
C1770 C1772 1.389 . S
C1771 H1750 0.950 . S
C1771 C1770 1.373 . S
C1771 C1787 1.377 . S
C1772 C1770 1.389 . S
C1772 C1773 1.524 . S
C1772 C1786 1.377 . S
C1773 C1772 1.524 . S
C1773 C1774 1.397 . S
C1773 C1778 1.363 . S
C1774 H1751 0.950 . S
C1774 C1773 1.397 . S
C1774 C1775 1.334 . S
C1775 H1752 0.950 . S
C1775 C1774 1.334 . S
C1775 C1776 1.287 . S
C1776 C1775 1.287 . S
C1776 C1777 1.524 . S
C1776 H1795 0.913 . S
C1777 H1753 0.950 . S
C1777 C1776 1.524 . S
C1777 C1778 1.415 . S
C1778 H1754 0.950 . S
C1778 C1773 1.363 . S
C1778 C1777 1.415 . S
C1779 H1755 0.951 . S
C1779 C1780 1.366 . S
C1779 C1781 1.388 . S
C1780 C1779 1.366 . S
C1780 C1784 1.385 . S
C1781 H1756 0.951 . S
C1781 C1779 1.388 . S
C1781 C1782 1.366 . S
C1782 C1781 1.366 . S
C1782 C1783 1.414 . S
C1782 C1785 1.499 . S
C1783 H1757 0.950 . S
C1783 C1782 1.414 . S
C1783 C1784 1.374 . S
C1784 H1758 0.950 . S
C1784 C1780 1.385 . S
C1784 C1783 1.374 . S
C1785 C1782 1.499 . S
C1785 C1786 1.373 . S
C1785 C1787 1.389 . S
C1786 H1759 0.950 . S
C1786 C1772 1.377 . S
C1786 C1785 1.373 . S
C1787 C1771 1.377 . S
C1787 C1785 1.389 . S
C1787 C1788 1.524 . S
C1788 C1787 1.524 . S
C1788 C1789 1.397 . S
C1788 C1793 1.363 . S
C1789 H1760 0.950 . S
C1789 C1788 1.397 . S
C1789 C1790 1.334 . S
C1790 H1761 0.950 . S
C1790 C1789 1.334 . S
C1790 C1791 1.287 . S
C1791 C1790 1.287 . S
C1791 C1792 1.524 . S
C1791 H1794 0.999 . S
C1792 H1762 0.950 . S
C1792 C1791 1.524 . S
C1792 C1793 1.415 . S
C1793 H1763 0.950 . S
C1793 C1788 1.363 . S
C1793 C1792 1.415 . S
H1794 C1791 0.999 . S
H1795 C1776 0.913 . S
H1796 C1814 0.951 . S
H1797 C1816 0.951 . S
H1798 C1818 0.950 . S
H1799 C1819 0.950 . S
H1800 C1821 0.950 . S
H1801 C1824 0.950 . S
H1802 C1825 0.950 . S
H1803 C1827 0.950 . S
H1804 C1828 0.950 . S
H1805 C1829 0.951 . S
H1806 C1831 0.951 . S
H1807 C1833 0.950 . S
H1808 C1834 0.950 . S
H1809 C1836 0.950 . S
H1810 C1839 0.950 . S
H1811 C1840 0.950 . S
H1812 C1842 0.950 . S
H1813 C1843 0.950 . S
C1814 H1796 0.951 . S
C1814 C1815 1.366 . S
C1814 C1816 1.388 . S
C1815 C1814 1.366 . S
C1815 C1819 1.385 . S
C1816 H1797 0.951 . S
C1816 C1814 1.388 . S
C1816 C1817 1.366 . S
C1817 C1816 1.366 . S
C1817 C1818 1.414 . S
C1817 C1820 1.499 . S
C1818 H1798 0.950 . S
C1818 C1817 1.414 . S
C1818 C1819 1.374 . S
C1819 H1799 0.950 . S
C1819 C1815 1.385 . S
C1819 C1818 1.374 . S
C1820 C1817 1.499 . S
C1820 C1821 1.373 . S
C1820 C1822 1.389 . S
C1821 H1800 0.950 . S
C1821 C1820 1.373 . S
C1821 C1837 1.377 . S
C1822 C1820 1.389 . S
C1822 C1823 1.524 . S
C1822 C1836 1.377 . S
C1823 C1822 1.524 . S
C1823 C1824 1.397 . S
C1823 C1828 1.363 . S
C1824 H1801 0.950 . S
C1824 C1823 1.397 . S
C1824 C1825 1.334 . S
C1825 H1802 0.950 . S
C1825 C1824 1.334 . S
C1825 C1826 1.287 . S
C1826 C1825 1.287 . S
C1826 C1827 1.524 . S
C1826 H1845 0.913 . S
C1827 H1803 0.950 . S
C1827 C1826 1.524 . S
C1827 C1828 1.415 . S
C1828 H1804 0.950 . S
C1828 C1823 1.363 . S
C1828 C1827 1.415 . S
C1829 H1805 0.951 . S
C1829 C1830 1.366 . S
C1829 C1831 1.388 . S
C1830 C1829 1.366 . S
C1830 C1834 1.385 . S
C1831 H1806 0.951 . S
C1831 C1829 1.388 . S
C1831 C1832 1.366 . S
C1832 C1831 1.366 . S
C1832 C1833 1.414 . S
C1832 C1835 1.499 . S
C1833 H1807 0.950 . S
C1833 C1832 1.414 . S
C1833 C1834 1.374 . S
C1834 H1808 0.950 . S
C1834 C1830 1.385 . S
C1834 C1833 1.374 . S
C1835 C1832 1.499 . S
C1835 C1836 1.373 . S
C1835 C1837 1.389 . S
C1836 H1809 0.950 . S
C1836 C1822 1.377 . S
C1836 C1835 1.373 . S
C1837 C1821 1.377 . S
C1837 C1835 1.389 . S
C1837 C1838 1.524 . S
C1838 C1837 1.524 . S
C1838 C1839 1.397 . S
C1838 C1843 1.363 . S
C1839 H1810 0.950 . S
C1839 C1838 1.397 . S
C1839 C1840 1.334 . S
C1840 H1811 0.950 . S
C1840 C1839 1.334 . S
C1840 C1841 1.287 . S
C1841 C1840 1.287 . S
C1841 C1842 1.524 . S
C1841 H1844 0.999 . S
C1842 H1812 0.950 . S
C1842 C1841 1.524 . S
C1842 C1843 1.415 . S
C1843 H1813 0.950 . S
C1843 C1838 1.363 . S
C1843 C1842 1.415 . S
H1844 C1841 0.999 . S
H1845 C1826 0.913 . S
H1846 C1864 0.951 . S
H1847 C1866 0.951 . S
H1848 C1868 0.950 . S
H1849 C1869 0.950 . S
H1850 C1871 0.950 . S
H1851 C1874 0.950 . S
H1852 C1875 0.950 1_545 S
H1853 C1877 0.950 . S
H1854 C1878 0.950 . S
H1855 C1879 0.951 1_655 S
H1856 C1881 0.951 . S
H1857 C1883 0.950 . S
H1858 C1884 0.950 . S
H1859 C1886 0.950 . S
H1860 C1889 0.950 . S
H1861 C1890 0.950 . S
H1862 C1892 0.950 . S
H1863 C1893 0.950 . S
C1864 H1846 0.951 . S
C1864 C1865 1.366 . S
C1864 C1866 1.388 . S
C1865 C1864 1.366 . S
C1865 C1869 1.385 . S
C1866 H1847 0.951 . S
C1866 C1864 1.388 . S
C1866 C1867 1.366 . S
C1867 C1866 1.366 . S
C1867 C1868 1.414 . S
C1867 C1870 1.499 . S
C1868 H1848 0.950 . S
C1868 C1867 1.414 . S
C1868 C1869 1.374 . S
C1869 H1849 0.950 . S
C1869 C1865 1.385 . S
C1869 C1868 1.374 . S
C1870 C1867 1.499 . S
C1870 C1871 1.373 . S
C1870 C1872 1.389 . S
C1871 H1850 0.950 . S
C1871 C1870 1.373 . S
C1871 C1887 1.377 . S
C1872 C1870 1.389 . S
C1872 C1873 1.524 . S
C1872 C1886 1.377 . S
C1873 C1872 1.524 . S
C1873 C1874 1.397 . S
C1873 C1878 1.363 . S
C1874 H1851 0.950 . S
C1874 C1873 1.397 . S
C1874 C1875 1.334 . S
C1875 H1852 0.950 1_565 S
C1875 C1874 1.334 . S
C1875 C1876 1.287 . S
C1876 C1875 1.287 . S
C1876 C1877 1.524 . S
C1876 H1895 0.913 . S
C1877 H1853 0.950 . S
C1877 C1876 1.524 . S
C1877 C1878 1.415 . S
C1878 H1854 0.950 . S
C1878 C1873 1.363 . S
C1878 C1877 1.415 . S
C1879 H1855 0.951 1_455 S
C1879 C1880 1.366 . S
C1879 C1881 1.388 . S
C1880 C1879 1.366 . S
C1880 C1884 1.385 . S
C1881 H1856 0.951 . S
C1881 C1879 1.388 . S
C1881 C1882 1.366 . S
C1882 C1881 1.366 . S
C1882 C1883 1.414 . S
C1882 C1885 1.499 . S
C1883 H1857 0.950 . S
C1883 C1882 1.414 . S
C1883 C1884 1.374 . S
C1884 H1858 0.950 . S
C1884 C1880 1.385 . S
C1884 C1883 1.374 . S
C1885 C1882 1.499 . S
C1885 C1886 1.373 . S
C1885 C1887 1.389 . S
C1886 H1859 0.950 . S
C1886 C1872 1.377 . S
C1886 C1885 1.373 . S
C1887 C1871 1.377 . S
C1887 C1885 1.389 . S
C1887 C1888 1.524 . S
C1888 C1887 1.524 . S
C1888 C1889 1.397 . S
C1888 C1893 1.363 . S
C1889 H1860 0.950 . S
C1889 C1888 1.397 . S
C1889 C1890 1.334 . S
C1890 H1861 0.950 . S
C1890 C1889 1.334 . S
C1890 C1891 1.287 . S
C1891 C1890 1.287 . S
C1891 C1892 1.524 . S
C1891 H1894 0.999 1_455 S
C1892 H1862 0.950 . S
C1892 C1891 1.524 . S
C1892 C1893 1.415 . S
C1893 H1863 0.950 . S
C1893 C1888 1.363 . S
C1893 C1892 1.415 . S
H1894 C1891 0.999 1_655 S
H1895 C1876 0.913 . S
C415 N104 1.515 . S
C430 N5 1.515 . S
C465 N137 1.515 . S
C480 N38 1.515 . S
C515 N170 1.515 . S
C530 N71 1.515 . S
C565 N203 1.515 . S
C580 N302 1.515 . S
C615 N236 1.515 . S
C630 N335 1.515 . S
C665 N269 1.515 . S
C680 N368 1.515 . S
C715 C325 1.778 . S
C730 C28 1.779 . S
C765 C61 1.779 . S
C780 C358 1.778 . S
C815 C391 1.779 . S
C830 C94 1.779 . S
C865 C226 1.779 . S
C880 C127 1.778 . S
C915 C160 1.779 . S
C930 C259 1.778 . S
C965 C193 1.778 . S
C980 C292 1.779 . S
C1015 N14 0.662 . S
C1030 N113 0.662 . S
C1065 N47 0.660 . S
C1080 N146 0.660 . S
C1115 N179 0.661 . S
C1130 N80 0.661 . S
C1165 N212 0.659 . S
C1180 N311 0.659 . S
C1215 N245 0.660 . S
C1230 N344 0.659 . S
C1265 N377 0.660 . S
C1280 N278 0.660 . S
C1315 C371 1.327 . S
C1330 C8 1.326 . S
C1365 C41 1.326 . S
C1380 C206 1.327 . S
C1415 C239 1.327 . S
C1430 C74 1.326 . S
C1465 C272 1.327 . S
C1480 C107 1.326 . S
C1515 C140 1.326 . S
C1530 C305 1.327 . S
C1565 C173 1.327 . S
C1580 C338 1.326 . S
C1615 C17 1.060 . S
C1630 C281 1.061 . S
C1665 C50 1.060 . S
C1680 C314 1.061 . S
C1715 C347 1.060 . S
C1730 C83 1.061 . S
C1765 C116 1.061 . S
C1780 C380 1.060 . S
C1815 C215 1.060 . S
C1830 C149 1.061 . S
C1865 C182 1.060 . S
C1880 C248 1.060 . S
