# Generated by pormake.
# Topology snz, (6)-cn, num edge types: 1
# Building blocks:
#     Node 0, Type 0, BuildingBlock: HISSIN_clean_sbu_0, # of connection points: 6
#     Node 1, Type 0, BuildingBlock: HISSIN_clean_sbu_0, # of connection points: 6
#     Node 2, Type 0, BuildingBlock: HISSIN_clean_sbu_0, # of connection points: 6
#     Node 3, Type 0, BuildingBlock: HISSIN_clean_sbu_0, # of connection points: 6
#     Node 4, Type 0, BuildingBlock: HISSIN_clean_sbu_0, # of connection points: 6
#     Node 5, Type 0, BuildingBlock: HISSIN_clean_sbu_0, # of connection points: 6
#     Node 6, Type 0, BuildingBlock: HISSIN_clean_sbu_0, # of connection points: 6
#     Node 7, Type 0, BuildingBlock: HISSIN_clean_sbu_0, # of connection points: 6
#     Node 8, Type 0, BuildingBlock: HISSIN_clean_sbu_0, # of connection points: 6
#     Edge 9, Type (0, 0), BuildingBlock: OJICUG_clean_linker_0, # of connection points: 2
#     Edge 10, Type (0, 0), BuildingBlock: OJICUG_clean_linker_0, # of connection points: 2
#     Edge 11, Type (0, 0), BuildingBlock: OJICUG_clean_linker_0, # of connection points: 2
#     Edge 12, Type (0, 0), BuildingBlock: OJICUG_clean_linker_0, # of connection points: 2
#     Edge 13, Type (0, 0), BuildingBlock: OJICUG_clean_linker_0, # of connection points: 2
#     Edge 14, Type (0, 0), BuildingBlock: OJICUG_clean_linker_0, # of connection points: 2
#     Edge 15, Type (0, 0), BuildingBlock: OJICUG_clean_linker_0, # of connection points: 2
#     Edge 16, Type (0, 0), BuildingBlock: OJICUG_clean_linker_0, # of connection points: 2
#     Edge 17, Type (0, 0), BuildingBlock: OJICUG_clean_linker_0, # of connection points: 2
#     Edge 18, Type (0, 0), BuildingBlock: OJICUG_clean_linker_0, # of connection points: 2
#     Edge 19, Type (0, 0), BuildingBlock: OJICUG_clean_linker_0, # of connection points: 2
#     Edge 20, Type (0, 0), BuildingBlock: OJICUG_clean_linker_0, # of connection points: 2
#     Edge 21, Type (0, 0), BuildingBlock: OJICUG_clean_linker_0, # of connection points: 2
#     Edge 22, Type (0, 0), BuildingBlock: OJICUG_clean_linker_0, # of connection points: 2
#     Edge 23, Type (0, 0), BuildingBlock: OJICUG_clean_linker_0, # of connection points: 2
#     Edge 24, Type (0, 0), BuildingBlock: OJICUG_clean_linker_0, # of connection points: 2
#     Edge 25, Type (0, 0), BuildingBlock: OJICUG_clean_linker_0, # of connection points: 2
#     Edge 26, Type (0, 0), BuildingBlock: OJICUG_clean_linker_0, # of connection points: 2
#     Edge 27, Type (0, 0), BuildingBlock: OJICUG_clean_linker_0, # of connection points: 2
#     Edge 28, Type (0, 0), BuildingBlock: OJICUG_clean_linker_0, # of connection points: 2
#     Edge 29, Type (0, 0), BuildingBlock: OJICUG_clean_linker_0, # of connection points: 2
#     Edge 30, Type (0, 0), BuildingBlock: OJICUG_clean_linker_0, # of connection points: 2
#     Edge 31, Type (0, 0), BuildingBlock: OJICUG_clean_linker_0, # of connection points: 2
#     Edge 32, Type (0, 0), BuildingBlock: OJICUG_clean_linker_0, # of connection points: 2
#     Edge 33, Type (0, 0), BuildingBlock: OJICUG_clean_linker_0, # of connection points: 2
#     Edge 34, Type (0, 0), BuildingBlock: OJICUG_clean_linker_0, # of connection points: 2
#     Edge 35, Type (0, 0), BuildingBlock: OJICUG_clean_linker_0, # of connection points: 2
# Relax obj value: 0.586
# Max RMSD: 0.243
# Mean RMSD: 0.164
data_MOF--net-snz--node1-HISSIN_clean_sbu_0--edge1-OJICUG_clean_linker_0
_symmetry_space_group_name_H-M    P1
_symmetry_Int_Tables_number       1
_symmetry_cell_setting            triclinic
loop_
_symmetry_equiv_pos_as_xyz
'x, y, z'
_cell_length_a     55.340168
_cell_length_b     41.297662
_cell_length_c     12.336284
_cell_angle_alpha  95.485922
_cell_angle_beta   97.7326
_cell_angle_gamma 122.09414
loop_
_atom_site_label
_atom_site_type_symbol
_atom_site_fract_x
_atom_site_fract_y
_atom_site_fract_z
_atom_type_partial_charge
Eu0 Eu 0.14526 0.49132 0.31813 0.0
Eu1 Eu 0.0926 0.50295 0.2889 0.0
C2 C 0.11755 0.4944 0.54736 0.0
C3 C 0.19827 0.45935 0.41451 0.0
C4 C 0.17813 0.42273 0.4367 0.0
C5 C 0.23802 0.45436 0.50361 0.0
C6 C 0.18786 0.40191 0.49052 0.0
C7 C 0.22827 0.47508 0.44962 0.0
C8 C 0.21798 0.41721 0.52375 0.0
C9 C 0.1887 0.48109 0.35201 0.0
O10 O 0.13104 0.56669 0.32378 0.0
O11 O 0.16938 0.55925 0.35267 0.0
C12 C 0.1594 0.58229 0.35217 0.0
O13 O 0.13986 0.49667 0.12711 0.0
O14 O 0.07325 0.53548 0.33265 0.0
O15 O 0.047 0.48016 0.21727 0.0
O16 O 0.10138 0.504 1.10557 0.0
C17 C 0.12053 0.50011 1.05965 0.0
O18 O 0.10526 0.42724 0.25636 0.0
O19 O 0.06798 0.43665 0.24293 0.0
O20 O 0.09949 0.50021 0.4815 0.0
O21 O 0.16591 0.46098 0.26967 0.0
O22 O 0.18867 0.50907 0.40993 0.0
O23 O 0.13535 0.48809 0.49954 0.0
C24 C 0.03446 0.52583 0.1971 0.0
C25 C 0.04225 0.53635 1.09631 0.0
C26 C 0.99979 0.54465 0.16947 0.0
C27 C 1.02888 0.55119 1.03245 0.0
C28 C 1.01314 0.52993 0.23296 0.0
C29 C 1.0075 0.55553 1.06854 0.0
C30 C 0.048 0.51027 0.2662 0.0
C31 C 0.07695 0.41305 0.22926 0.0
H32 H 0.15485 0.41 0.41125 0.0
H33 H 0.26132 0.46701 0.52639 0.0
H34 H 0.17172 0.3737 0.50583 0.0
H35 H 0.24425 0.50325 0.43339 0.0
H36 H 0.05872 0.53328 1.06751 0.0
H37 H 0.98402 0.54859 0.20137 0.0
H38 H 0.03531 0.55939 0.95525 0.0
H39 H 1.00699 0.52206 0.31085 0.0
Eu40 Eu 0.64385 0.52624 1.03132 0.0
Eu41 Eu 0.59716 0.53045 1.0195 0.0
C42 C 0.63281 0.52934 0.78278 0.0
C43 C 0.72021 0.54901 0.98293 0.0
C44 C 0.72481 0.55863 0.87783 0.0
C45 C 0.77268 0.5773 1.04247 0.0
C46 C 0.75294 0.57702 0.85515 0.0
C47 C 0.74458 0.55888 1.06498 0.0
C48 C 0.77732 0.58626 0.9367 0.0
C49 C 0.6902 0.5254 1.00523 0.0
O50 O 0.57333 0.46523 1.02693 0.0
O51 O 0.60897 0.4594 0.98208 0.0
C52 C 0.58163 0.44227 0.99285 0.0
O53 O 0.63924 0.52166 0.21975 0.0
O54 O 0.55069 0.49959 0.93844 0.0
O55 O 0.57431 0.56035 1.01555 0.0
O56 O 0.60321 0.53213 0.21204 0.0
C57 C 0.62179 0.52684 0.2739 0.0
O58 O 0.66924 0.59379 1.07452 0.0
O59 O 0.62989 0.59663 1.07903 0.0
O60 O 0.61562 0.5301 0.85208 0.0
O61 O 0.68605 0.53497 1.1014 0.0
O62 O 0.66773 0.51339 0.92496 0.0
O63 O 0.61923 0.52985 0.86243 0.0
C64 C 0.52829 0.51824 1.05727 0.0
C65 C 0.53952 0.53072 0.17325 0.0
C66 C 0.47921 0.48023 1.09247 0.0
C67 C 0.52099 0.51782 0.24782 0.0
C68 C 0.49791 0.49307 1.01745 0.0
C69 C 0.49057 0.49211 0.20892 0.0
C70 C 0.54865 0.52796 0.98069 0.0
C71 C 0.6584 0.61511 1.09229 0.0
H72 H 0.70662 0.55134 0.81219 0.0
H73 H 0.79062 0.58333 0.10721 0.0
H74 H 0.75554 0.58386 0.77324 0.0
H75 H 0.74179 0.55138 0.1462 0.0
H76 H 0.56285 0.54968 0.20699 0.0
H77 H 0.45589 0.46077 1.05915 0.0
H78 H 0.53075 0.52707 0.33634 0.0
H79 H 0.48871 0.48266 0.92854 0.0
Eu80 Eu 0.58278 0.05189 0.79512 0.0
Eu81 Eu 0.64681 0.13045 0.85925 0.0
C82 C 0.6155 0.09672 1.07521 0.0
C83 C 0.51373 0.96854 0.85492 0.0
C84 C 0.52709 0.97556 0.96734 0.0
C85 C 0.46615 0.92918 0.90062 0.0
C86 C 0.51019 0.95981 1.04586 0.0
C87 C 0.48314 0.94513 0.82205 0.0
C88 C 0.47949 0.93657 1.01375 0.0
C89 C 0.53163 0.9868 0.77334 0.0
O90 O 0.64583 0.0809 0.92603 0.0
O91 O 0.61373 0.03232 0.78377 0.0
C92 C 0.63607 0.04684 0.86708 0.0
O93 O 0.59014 0.06044 0.61225 0.0
O94 O 0.6935 0.18055 0.93174 0.0
O95 O 0.68249 0.13834 0.78431 0.0
O96 O 0.63327 0.12015 0.66108 0.0
C97 C 0.6118 0.09085 0.5802 0.0
O98 O 0.57199 0.09743 0.78536 0.0
O99 O 0.61692 0.156 0.8472 0.0
O100 O 0.63819 0.12598 1.0427 0.0
O101 O 0.53489 1.01924 0.75475 0.0
O102 O 0.55617 0.98888 0.78447 0.0
O103 O 0.59367 0.06723 0.99484 0.0
C104 C 0.73257 0.17017 0.88537 0.0
C105 C 0.73328 0.1362 0.86967 0.0
C106 C 0.78665 0.20783 0.90859 0.0
C107 C 0.75988 0.138 0.87212 0.0
C108 C 0.76006 0.20599 0.90619 0.0
C109 C 0.78744 0.1739 0.88933 0.0
C110 C 0.70375 0.16845 0.85821 0.0
C111 C 0.58748 0.13572 0.81319 0.0
H112 H 0.55066 0.99336 0.99468 0.0
H113 H 0.44256 0.91175 0.87316 0.0
H114 H 0.52121 0.96565 0.13173 0.0
H115 H 0.47238 0.9395 0.73587 0.0
H116 H 0.71294 0.10776 0.85126 0.0
H117 H 0.80672 0.23642 0.92472 0.0
H118 H 0.75847 0.11077 0.85592 0.0
H119 H 0.761 0.23299 0.91681 0.0
Eu120 Eu 0.80366 0.86952 0.27907 0.0
Eu121 Eu 0.75113 0.88107 0.2514 0.0
C122 C 0.77584 0.87238 0.50921 0.0
C123 C 0.85747 0.83831 0.34816 0.0
C124 C 0.84556 0.81955 0.43422 0.0
C125 C 0.89024 0.81611 0.36298 0.0
C126 C 0.85627 0.79957 0.48554 0.0
C127 C 0.8796 0.83618 0.31209 0.0
C128 C 0.87891 0.79797 0.45105 0.0
C129 C 0.84751 0.8608 0.29626 0.0
O130 O 0.7913 0.94499 0.31564 0.0
O131 O 0.82864 0.93586 0.32154 0.0
C132 C 0.81967 0.9593 0.33917 0.0
O133 O 0.79673 0.87256 1.08702 0.0
O134 O 0.70841 0.86452 0.1572 0.0
O135 O 0.72996 0.91049 0.30322 0.0
O136 O 0.76062 0.88406 1.06922 0.0
C137 C 0.77853 0.87807 1.02124 0.0
O138 O 0.76543 0.80594 0.24956 0.0
O139 O 0.72699 0.8132 0.22223 0.0
O140 O 0.75643 0.87567 0.442 0.0
O141 O 0.82433 0.84124 0.21556 0.0
O142 O 0.84717 0.88675 0.36352 0.0
O143 O 0.79504 0.86863 0.463 0.0
C144 C 0.69876 0.91474 0.15952 0.0
C145 C 0.69406 0.91136 1.04267 0.0
C146 C 0.6833 0.96014 0.1702 0.0
C147 C 0.684 0.93214 0.99029 0.0
C148 C 0.69312 0.93926 0.22225 0.0
C149 C 0.6786 0.95696 1.0535 0.0
C150 C 0.70795 0.89172 0.21762 0.0
C151 C 0.73704 0.79026 0.2239 0.0
H152 H 0.82827 0.82073 0.46234 0.0
H153 H 0.90787 0.8157 0.33543 0.0
H154 H 0.84688 0.78543 0.55227 0.0
H155 H 0.88895 0.85054 0.24553 0.0
H156 H 0.69806 0.89261 0.99156 0.0
H157 H 0.67895 0.97844 0.22158 0.0
H158 H 0.68085 0.9292 0.90047 0.0
H159 H 0.6961 0.94204 0.31206 0.0
Eu160 Eu 0.30392 0.84024 0.56561 0.0
Eu161 Eu 0.2482 0.84543 0.54081 0.0
C162 C 0.27587 0.84432 0.30793 0.0
C163 C 0.37055 0.8499 0.49279 0.0
C164 C 0.35877 0.84027 0.37741 0.0
C165 C 0.41941 0.88486 0.45507 0.0
C166 C 0.37702 0.853 0.30181 0.0
C167 C 0.40104 0.8721 0.53099 0.0
C168 C 0.4076 0.87571 0.33941 0.0
C169 C 0.35109 0.83949 0.57268 0.0
O170 O 0.22698 0.77851 0.50633 0.0
O171 O 0.26707 0.77492 0.51885 0.0
C172 C 0.23838 0.75735 0.49798 0.0
O173 O 0.29705 0.84199 0.75315 0.0
O174 O 0.20343 0.82455 0.45655 0.0
O175 O 0.22584 0.87232 0.59766 0.0
O176 O 0.25442 0.8396 0.72945 0.0
C177 C 0.27588 0.84095 0.79807 0.0
O178 O 0.32491 0.90562 0.56801 0.0
O179 O 0.28702 0.9109 0.59398 0.0
O180 O 0.2573 0.84899 0.3565 0.0
O181 O 0.35106 0.86814 0.62666 0.0
O182 O 0.32468 0.8086 0.53669 0.0
O183 O 0.29477 0.83983 0.37288 0.0
C184 C 0.17396 0.83152 0.56885 0.0
C185 C 0.16936 0.81087 0.6564 0.0
C186 C 0.12615 0.82174 0.55972 0.0
C187 C 0.14326 0.79565 0.69499 0.0
C188 C 0.15211 0.83678 0.52125 0.0
C189 C 0.12117 0.80084 0.64723 0.0
C190 C 0.20125 0.84814 0.52612 0.0
C191 C 0.3151 0.92771 0.59227 0.0
H192 H 0.33535 0.8235 0.34537 0.0
H193 H 0.44285 0.90196 0.48705 0.0
H194 H 0.36707 0.84595 0.21389 0.0
H195 H 0.41064 0.88013 0.61959 0.0
H196 H 0.18593 0.80649 0.69482 0.0
H197 H 0.10961 0.82567 0.51838 0.0
H198 H 0.14049 0.78001 0.76276 0.0
H199 H 0.15505 0.85245 0.4534 0.0
Eu200 Eu 0.24985 0.24169 0.69713 0.0
Eu201 Eu 0.31471 0.32007 0.75903 0.0
C202 C 0.28543 0.28124 0.97521 0.0
C203 C 0.16407 0.20185 0.66996 0.0
C204 C 0.16341 0.23589 0.68277 0.0
C205 C 0.11013 0.16447 0.65021 0.0
C206 C 0.13687 0.23426 0.68025 0.0
C207 C 0.13662 0.16614 0.65222 0.0
C208 C 0.1094 0.19849 0.66644 0.0
C209 C 0.19285 0.20353 0.69727 0.0
O210 O 0.32481 0.27367 0.74752 0.0
O211 O 0.27946 0.21573 0.71825 0.0
C212 C 0.30896 0.23551 0.73618 0.0
O213 O 0.25875 0.2459 0.51345 0.0
O214 O 0.36268 0.35336 0.80554 0.0
O215 O 0.34119 0.38244 0.76016 0.0
O216 O 0.30301 0.30502 0.55977 0.0
C217 C 0.28123 0.27527 0.48012 0.0
O218 O 0.25095 0.29176 0.63303 0.0
O219 O 0.28417 0.34006 0.77445 0.0
O220 O 0.30784 0.31057 0.94254 0.0
O221 O 0.20321 0.19169 0.62359 0.0
O222 O 0.21404 0.23349 0.77171 0.0
O223 O 0.2631 0.25288 0.89502 0.0
C224 C 0.38416 0.4012 0.69535 0.0
C225 C 0.37105 0.39268 0.58175 0.0
C226 C 0.4319 0.44011 0.64997 0.0
C227 C 0.3881 0.40737 0.50293 0.0
C228 C 0.41475 0.42505 0.72888 0.0
C229 C 0.41875 0.43129 0.53584 0.0
C230 C 0.36588 0.38484 0.77772 0.0
C231 C 0.26141 0.32591 0.69325 0.0
H232 H 0.18375 0.26426 0.6991 0.0
H233 H 0.09007 0.13598 0.63697 0.0
H234 H 0.13822 0.26151 0.69397 0.0
H235 H 0.13568 0.13912 0.64402 0.0
H236 H 0.34751 0.3748 0.55388 0.0
H237 H 0.45547 0.45819 0.67807 0.0
H238 H 0.37721 0.40046 0.41624 0.0
H239 H 0.42537 0.43198 0.81596 0.0
Eu240 Eu 0.448 0.18929 0.66333 0.0
Eu241 Eu 0.44928 0.18323 0.90745 0.0
C242 C 0.40414 0.10148 0.71896 0.0
C243 C 0.4539 0.24696 0.45163 0.0
C244 C 0.45834 0.25681 0.3479 0.0
C245 C 0.48371 0.31573 0.5392 0.0
C246 C 0.47748 0.29574 0.34133 0.0
C247 C 0.46426 0.27679 0.54513 0.0
C248 C 0.49326 0.32503 0.43983 0.0
C249 C 0.44486 0.20763 0.46879 0.0
O250 O 0.49058 0.1857 0.8711 0.0
O251 O 0.47882 0.16745 0.68307 0.0
C252 C 0.49596 0.1739 0.77926 0.0
O253 O 0.48883 0.24948 0.75658 0.0
O254 O 0.46345 0.16171 1.04082 0.0
O255 O 0.4495 0.20054 1.08035 0.0
O256 O 0.47389 0.24982 0.91735 0.0
C257 C 0.49172 0.26925 0.85326 0.0
O258 O 0.41743 0.20762 0.71358 0.0
O259 O 0.4061 0.18137 0.86662 0.0
O260 O 0.41269 0.11914 0.82528 0.0
O261 O 0.46625 0.20542 0.51703 0.0
O262 O 0.42221 0.18977 0.51315 0.0
O263 O 0.41593 0.12224 0.64293 0.0
C264 C 0.49429 0.21687 0.18458 0.0
C265 C 0.5152 0.24374 0.13151 0.0
C266 C 0.52399 0.25946 0.3627 0.0
C267 C 0.53922 0.27947 0.19294 0.0
C268 C 0.50019 0.22347 0.30076 0.0
C269 C 0.54217 0.28943 0.30828 0.0
C270 C 0.46477 0.18681 0.11805 0.0
C271 C 0.40015 0.19652 0.78526 0.0
H272 H 0.44965 0.23425 0.27426 0.0
H273 H 0.49442 0.33753 0.61579 0.0
H274 H 0.48302 0.30139 0.26133 0.0
H275 H 0.45998 0.26977 0.62557 0.0
H276 H 0.51159 0.2389 1.04163 0.0
H277 H 0.52556 0.26507 0.4517 0.0
H278 H 0.55324 0.30099 0.14819 0.0
H279 H 0.48487 0.20235 0.34272 0.0
Eu280 Eu 0.94688 0.15685 0.8571 0.0
Eu281 Eu 0.94979 0.21532 0.70719 0.0
C282 C 0.98795 0.25327 0.96263 0.0
C283 C 0.94636 0.11382 1.10245 0.0
C284 C 0.91246 0.099 0.145 0.0
C285 C 0.98776 0.1882 0.29696 0.0
C286 C 0.91024 0.12522 0.26375 0.0
C287 C 0.98206 0.15558 0.17502 0.0
C288 C 0.95025 0.17524 0.36156 0.0
C289 C 0.94295 0.10742 0.98248 0.0
O290 O 0.9904 0.21271 0.6831 0.0
O291 O 0.98347 0.16433 0.7761 0.0
C292 C 0.99888 0.18991 0.71755 0.0
O293 O 0.92589 0.11729 0.68686 0.0
O294 O 0.97431 0.26591 0.63266 0.0
O295 O 0.92792 0.2381 0.61292 0.0
O296 O 0.91322 0.15357 0.59813 0.0
C297 C 0.9097 0.11937 0.60391 0.0
O298 O 0.90428 0.15628 0.86385 0.0
O299 O 0.91783 0.21331 0.80872 0.0
O300 O 0.97591 0.25756 0.87114 0.0
O301 O 0.92046 0.10624 0.92897 0.0
O302 O 0.96643 0.13076 0.94853 0.0
O303 O 0.98087 0.21781 0.9757 0.0
C304 C 0.94756 0.25592 0.45848 0.0
C305 C 0.98147 0.27074 0.41592 0.0
C306 C 0.90617 0.18153 0.26405 0.0
C307 C 0.98368 0.24451 0.29724 0.0
C308 C 0.91186 0.21417 0.38598 0.0
C309 C 0.94366 0.19448 0.19946 0.0
C310 C 0.95098 0.26259 0.57844 0.0
C311 C 0.89884 0.18335 0.84687 0.0
H312 H 0.89218 0.0749 1.09188 0.0
H313 H 1.00986 0.21154 0.33955 0.0
H314 H 0.88942 0.11374 0.28776 0.0
H315 H 1.00081 0.16308 0.13959 0.0
H316 H 1.00176 0.29489 0.46886 0.0
H317 H 0.88407 0.1582 0.22148 0.0
H318 H 1.0045 0.25598 0.27324 0.0
H319 H 0.89313 0.2067 0.42147 0.0
Eu320 Eu 0.93651 0.65224 0.68432 0.0
Eu321 Eu 0.96434 0.72115 0.90268 0.0
C322 C 0.92943 0.72526 0.68242 0.0
C323 C 0.9448 0.59478 0.46486 0.0
C324 C 0.94409 0.5953 0.35129 0.0
C325 C 0.99542 0.614 0.49402 0.0
C326 C 0.96958 0.60847 0.31157 0.0
C327 C 0.96998 0.60123 0.53403 0.0
C328 C 0.99625 0.62148 0.38531 0.0
C329 C 0.92362 0.59893 0.51493 0.0
O330 O 0.91714 0.67915 0.9162 0.0
O331 O 0.89574 0.64122 0.73837 0.0
C332 C 0.8937 0.65291 0.83819 0.0
O333 O 0.93837 0.62765 0.8364 0.0
O334 O 0.97176 0.73853 1.08252 0.0
O335 O 0.99447 0.7824 0.98561 0.0
O336 O 0.98119 0.68228 0.92482 0.0
C337 C 0.96365 0.64427 0.90459 0.0
O338 O 0.98628 0.68624 0.71018 0.0
O339 O 0.99524 0.74474 0.78644 0.0
O340 O 0.93636 0.73398 0.79193 0.0
O341 O 0.92218 0.59242 0.6159 0.0
O342 O 0.92462 0.63072 0.50419 0.0
O343 O 0.93287 0.69994 0.62511 0.0
C344 C 1.02161 0.78287 0.15153 0.0
C345 C 0.04009 0.77669 1.09766 0.0
C346 C 0.04078 0.77175 0.32161 0.0
C347 C 0.05666 0.76445 0.15291 0.0
C348 C 1.02433 0.78414 0.26646 0.0
C349 C 0.05427 0.75738 0.2614 0.0
C350 C 0.99388 0.77375 1.08471 0.0
C351 C 1.00392 0.72442 0.73749 0.0
H352 H 0.9249 0.59023 0.2963 0.0
H353 H 1.01523 0.62237 0.55209 0.0
H354 H 0.96891 0.61324 0.22678 0.0
H355 H 0.97113 0.60064 0.62213 0.0
H356 H 0.03874 0.77602 1.00894 0.0
H357 H 0.03885 0.76776 0.40622 0.0
H358 H 0.06775 0.75513 1.10541 0.0
H359 H 1.01048 0.78916 0.30986 0.0
C360 C 0.13881 0.49294 0.87291 0.0
C361 C 0.12 0.49904 0.92831 0.0
H362 H 0.15317 0.48655 0.7206 0.0
C363 C 0.10019 0.50325 0.85312 0.0
H364 H 0.1546 0.48925 0.92207 0.0
C365 C 0.09935 0.50166 0.73418 0.0
C366 C 0.11813 0.4955 0.67874 0.0
H367 H 0.0849 0.50789 0.88638 0.0
H368 H 0.08356 0.50537 0.68503 0.0
C369 C 0.13791 0.49123 0.75389 0.0
C370 C 0.64636 0.52537 0.59183 0.0
C371 C 0.62722 0.52867 0.65224 0.0
H372 H 0.66017 0.52195 0.4369 0.0
C373 C 0.60553 0.53106 0.58347 0.0
H374 H 0.66352 0.52332 0.63717 0.0
C375 C 0.60368 0.53043 0.46401 0.0
C376 C 0.62315 0.52711 0.40434 0.0
H377 H 0.58995 0.53363 0.62145 0.0
H378 H 0.58667 0.53258 0.41796 0.0
C379 C 0.64444 0.5245 0.47383 0.0
C380 C 0.63591 0.12385 0.41319 0.0
C381 C 0.61247 0.09255 0.4504 0.0
H382 H 0.65573 0.15031 0.27753 0.0
C383 C 0.59005 0.06295 0.35921 0.0
H384 H 0.6541 0.1478 0.47552 0.0
C385 C 0.59099 0.06451 0.24234 0.0
C386 C 0.61447 0.09574 0.20507 0.0
H387 H 0.57127 0.03787 0.37788 0.0
H388 H 0.57284 0.04049 0.18017 0.0
C389 C 0.63689 0.12536 0.29626 0.0
C390 C 0.75734 0.8793 0.69544 0.0
C391 C 0.77633 0.87345 0.64051 0.0
H392 H 0.74274 0.88548 0.8473 0.0
C393 C 0.79621 0.86949 0.71608 0.0
H394 H 0.74147 0.88279 0.64593 0.0
C395 C 0.79696 0.87109 0.83495 0.0
C396 C 0.778 0.87699 0.88991 0.0
H397 H 0.81163 0.86504 0.68319 0.0
H398 H 0.81282 0.86758 0.88444 0.0
C399 C 0.75814 0.881 0.81438 0.0
C400 C 0.29712 0.84107 1.00784 0.0
C401 C 0.27595 0.84166 0.92903 0.0
H402 H 0.314 0.84124 0.17816 0.0
C403 C 0.25475 0.84341 0.98001 0.0
H404 H 0.31421 0.83984 0.97818 0.0
C405 C 0.25474 0.84454 1.09833 0.0
C406 C 0.27584 0.84378 0.17704 0.0
H407 H 0.23772 0.84405 0.92772 0.0
H408 H 0.23768 0.84584 0.12807 0.0
C409 C 0.29699 0.84194 0.12598 0.0
C410 C 0.26071 0.24883 0.14185 0.0
C411 C 0.28467 0.27954 1.10501 0.0
H412 H 0.24034 0.22272 0.27702 0.0
C413 C 0.30743 0.30844 0.19649 0.0
H414 H 0.24222 0.22541 1.07926 0.0
C415 C 0.30629 0.30679 0.31319 0.0
C416 C 0.28231 0.27617 0.35016 0.0
H417 H 0.32662 0.33301 0.1782 0.0
H418 H 0.32475 0.33023 0.37549 0.0
C419 C 0.25957 0.2472 0.25866 0.0
C420 C 0.5449 0.35495 0.52218 0.0
C421 C 0.52444 0.35695 0.4463 0.0
H422 H 0.56956 0.32885 0.53205 0.0
C423 C 0.53236 0.36672 0.34484 0.0
H424 H 0.54311 0.35364 0.60817 0.0
C425 C 0.54783 0.35267 0.30018 0.0
C426 C 0.55564 0.33116 0.36167 0.0
H427 H 0.52007 0.37412 0.28844 0.0
H428 H 0.54711 0.35067 0.21162 0.0
C429 C 0.56032 0.34068 0.47848 0.0
C430 C 0.95169 0.1272 0.29625 0.0
C431 C 0.94468 0.16675 0.17023 0.0
H432 H 0.95678 0.15256 0.49763 0.0
C433 C 0.94115 0.20841 0.15494 0.0
H434 H 0.95359 0.10226 0.29816 0.0
C435 C 0.94223 0.24253 0.26471 0.0
C436 C 0.94925 0.203 0.39079 0.0
H437 H 0.93732 0.2173 1.0634 0.0
H438 H 0.94037 0.26751 0.26279 0.0
C439 C 0.95279 0.16134 0.40605 0.0
C440 C 0.04371 0.68636 0.44048 0.0
C441 C 1.02418 0.65223 0.3595 0.0
H442 H 0.07042 0.74856 0.47092 0.0
C443 C 1.0266 0.65372 0.24836 0.0
H444 H 0.04349 0.68631 0.52757 0.0
C445 C 0.04211 0.6896 0.21581 0.0
C446 C 0.05542 0.72442 0.29517 0.0
H447 H 1.0128 0.62777 0.18525 0.0
H448 H 0.03943 0.68967 0.12748 0.0
C449 C 0.05933 0.72231 0.40823 0.0
C450 C 0.22386 0.33165 0.5743 0.0
C451 C 0.24969 0.34945 0.65762 0.0
H452 H 0.1939 0.33862 0.46693 0.0
C453 C 0.26443 0.38964 0.70063 0.0
H454 H 0.21182 0.30076 0.539 0.0
C455 C 0.25399 0.41157 0.65896 0.0
C456 C 0.22842 0.39381 0.5738 0.0
H457 H 0.28437 0.40434 0.76474 0.0
H458 H 0.26603 0.44251 0.69337 0.0
C459 C 0.21338 0.35341 0.53326 0.0
C460 C 0.66697 0.68369 0.13714 0.0
C461 C 0.67832 0.66001 0.12725 0.0
H462 H 0.67549 0.74168 0.17363 0.0
C463 C 0.70915 0.68012 0.15151 0.0
H464 H 0.64353 0.67009 0.11968 0.0
C465 C 0.72761 0.72149 0.18372 0.0
C466 C 0.71638 0.74531 0.19288 0.0
H467 H 0.71924 0.6638 0.14573 0.0
H468 H 0.75103 0.73489 0.20061 0.0
C469 C 0.6855 0.72525 0.1686 0.0
C470 C 0.46922 0.94352 0.20454 0.0
C471 C 0.46153 0.92056 1.0983 0.0
H472 H 0.45824 0.94772 0.36295 0.0
C473 C 0.43651 0.88231 1.07347 0.0
H474 H 0.48814 0.97329 0.22608 0.0
C475 C 0.41944 0.86754 0.15232 0.0
C476 C 0.42683 0.89069 0.258 0.0
H477 H 0.43022 0.86359 0.99326 0.0
H478 H 0.40044 0.83783 0.13043 0.0
C479 C 0.45209 0.9288 0.2833 0.0
C480 C 0.56606 0.17365 0.8939 0.0
C481 C 0.56883 0.1535 0.80172 0.0
H482 H 0.54191 0.19544 0.96071 0.0
C483 C 0.54766 0.14156 0.7016 0.0
H484 H 0.5807 0.18225 0.97408 0.0
C485 C 0.52518 0.14914 0.69347 0.0
C486 C 0.52179 0.16823 0.78607 0.0
H487 H 0.54789 0.1249 0.62884 0.0
H488 H 0.50968 0.13863 0.61449 0.0
C489 C 0.54317 0.18072 0.88632 0.0
C490 C 1.00334 0.31923 1.07088 0.0
C491 C 1.00983 0.29078 1.04944 0.0
H492 H 1.01804 0.37778 0.14325 0.0
C493 C 0.03877 0.30229 1.09556 0.0
H494 H 0.98166 0.31227 1.03659 0.0
C495 C 0.06041 0.34109 0.15632 0.0
C496 C 0.05391 0.36986 0.17471 0.0
H497 H 0.04516 0.28195 1.07968 0.0
H498 H 0.08248 0.3488 0.18618 0.0
C499 C 1.02458 0.3574 0.13251 0.0
C500 C 0.86061 0.64763 0.9686 0.0
C501 C 0.86397 0.6361 0.86344 0.0
H502 H 0.83117 0.64181 1.07361 0.0
C503 C 0.8385 0.60843 0.78226 0.0
H504 H 0.87957 0.66897 1.03334 0.0
C505 C 0.81061 0.59269 0.80557 0.0
C506 C 0.80721 0.60402 0.91093 0.0
H507 H 0.84002 0.59869 0.70029 0.0
H508 H 0.7917 0.57098 0.74125 0.0
C509 C 0.83271 0.63184 0.99198 0.0
C510 C 0.95522 0.58415 0.9665 0.0
C511 C 0.97423 0.62001 0.93826 0.0
H512 H 0.95073 0.53494 1.02805 0.0
C513 C 1.00306 0.63166 0.93719 0.0
H514 H 0.93268 0.5742 0.96521 0.0
C515 C 1.01327 0.60885 0.97049 0.0
C516 C 0.99492 0.57439 1.00762 0.0
H517 H 1.01785 0.65875 0.91246 0.0
H518 H 0.03608 0.6197 0.97489 0.0
C519 C 0.96552 0.56165 1.00168 0.0
C520 C 0.56179 0.37362 0.8784 0.0
C521 C 0.55952 0.39756 0.96118 0.0
H522 H 0.54282 0.31626 0.77813 0.0
C523 C 0.53455 0.37827 1.00797 0.0
H524 H 0.58015 0.38667 0.83826 0.0
C525 C 0.51328 0.33729 0.97507 0.0
C526 C 0.51519 0.31347 0.89059 0.0
H527 H 0.53145 0.39492 1.07137 0.0
H528 H 0.49489 0.32433 1.0151 0.0
C529 C 0.54002 0.33281 0.843 0.0
C530 C 0.84711 0.14828 0.89603 0.0
C531 C 0.87065 0.18062 0.86504 0.0
H532 H 0.80369 0.12055 0.92915 0.0
C533 C 0.86632 0.2106 0.84469 0.0
H534 H 0.84889 0.12426 0.91253 0.0
C535 C 0.84014 0.20845 0.85348 0.0
C536 C 0.81632 0.17611 0.88334 0.0
H537 H 0.88325 0.2361 0.81978 0.0
H538 H 0.83853 0.23227 0.83362 0.0
C539 C 0.82069 0.14607 0.90476 0.0
C540 C 0.6704 0.04052 1.00389 0.0
C541 C 0.64769 0.02372 0.90765 0.0
H542 H 0.69791 0.03311 0.12376 0.0
C543 C 0.63605 0.98498 0.85583 0.0
H544 H 0.6802 0.07035 1.04595 0.0
C545 C 0.64646 0.96344 0.90105 0.0
C546 C 0.66853 0.98005 0.9996 0.0
H547 H 0.61861 0.97112 0.78161 0.0
H548 H 0.63664 0.93343 0.86072 0.0
C549 C 0.68055 1.01905 1.04919 0.0
C550 C 0.18753 0.69252 0.43041 0.0
C551 C 0.21833 0.7124 0.46167 0.0
H552 H 0.14565 0.63806 0.37219 0.0
C553 C 0.22954 0.68847 0.45471 0.0
H554 H 0.17749 0.70896 0.43326 0.0
C555 C 0.21096 0.64702 0.4191 0.0
C556 C 0.18014 0.62721 0.38771 0.0
H557 H 0.25293 0.70181 0.47707 0.0
H558 H 0.2209 0.63046 0.41643 0.0
C559 C 0.16902 0.65123 0.39441 0.0
C560 C 0.47758 0.50082 0.39346 0.0
C561 C 0.47123 0.47694 0.29032 0.0
H562 H 0.46618 0.50533 0.55104 0.0
C563 C 0.44708 0.43798 0.26824 0.0
H564 H 0.4956 0.53116 0.41299 0.0
C565 C 0.43005 0.42328 0.34746 0.0
C566 C 0.43678 0.44703 0.4512 0.0
H567 H 0.44173 0.41845 0.19087 0.0
H568 H 0.41193 0.39298 0.32833 0.0
C569 C 0.4607 0.48603 0.47293 0.0
C570 C 0.91017 0.76796 0.68235 0.0
C571 C 0.91673 0.74396 0.62237 0.0
H572 H 0.8932 0.80385 0.67518 0.0
C573 C 0.91048 0.73749 0.50514 0.0
H574 H 0.91462 0.77352 0.77271 0.0
C575 C 0.89803 0.75482 0.44923 0.0
C576 C 0.89146 0.77875 0.50947 0.0
H577 H 0.91517 0.71904 0.45642 0.0
H578 H 0.8933 0.7492 0.35884 0.0
C579 C 0.89763 0.7851 0.62651 0.0
C580 C 0.35716 0.03776 0.73844 0.0
C581 C 0.38073 0.0571 0.68432 0.0
H582 H 0.31807 0.98378 0.75094 0.0
C583 C 0.3816 0.03305 0.59709 0.0
H584 H 0.35521 0.05451 0.80571 0.0
C585 C 0.36063 0.99187 0.56789 0.0
C586 C 0.33684 0.97258 0.62095 0.0
H587 H 0.3991 0.04596 0.55267 0.0
H588 H 0.363 0.97501 0.50243 0.0
C589 C 0.33551 0.99677 0.70625 0.0
C590 C 0.03199 0.16371 0.72308 0.0
C591 C 1.02668 0.19228 0.69547 0.0
H592 H 0.06038 0.14301 0.7379 0.0
C593 C 0.04906 0.22301 0.65504 0.0
H594 H 1.01597 0.13942 0.75506 0.0
C595 C 0.07541 0.22515 0.64499 0.0
C596 C 0.08069 0.19647 0.6737 0.0
H597 H 0.04653 0.24595 0.63286 0.0
H598 H 0.09165 0.24947 0.61393 0.0
C599 C 0.05796 0.16565 0.71237 0.0
C600 C 0.37021 0.22036 0.68427 0.0
C601 C 0.37443 0.20257 0.77124 0.0
H602 H 0.34689 0.24315 0.60429 0.0
C603 C 0.35379 0.19137 0.84067 0.0
H604 H 0.38496 0.22974 0.6277 0.0
C605 C 0.33092 0.19866 0.82525 0.0
C606 C 0.32731 0.21724 0.73899 0.0
H607 H 0.35565 0.17763 0.90894 0.0
H608 H 0.31689 0.19129 0.8844 0.0
C609 C 0.3477 0.22771 0.66949 0.0
C610 C 0.8722 1.0148 0.43426 0.0
C611 C 0.84279 1.00239 0.39426 0.0
H612 H 0.91539 0.05985 0.52778 0.0
C613 C 0.83634 0.03111 0.41519 0.0
H614 H 0.87872 0.99446 0.42143 0.0
C615 C 0.85814 0.06984 0.47594 0.0
C616 C 0.88718 0.0813 0.51989 0.0
H617 H 0.81422 0.02342 0.387 0.0
H618 H 0.85183 0.09021 0.49314 0.0
C619 C 0.8936 0.05289 0.49597 0.0
C620 C 0.05001 0.72666 0.72771 0.0
C621 C 0.03446 0.74468 0.72041 0.0
H622 H 0.08941 0.73009 0.71227 0.0
C623 C 0.04869 0.7828 0.69985 0.0
H624 H 0.03986 0.69755 0.74537 0.0
C625 C 0.07715 0.80158 0.68077 0.0
C626 C 0.09245 0.78304 0.68332 0.0
H627 H 0.03753 0.79782 0.69564 0.0
H628 H 0.08702 0.83058 0.66259 0.0
C629 C 0.0787 0.74569 0.71042 0.0
loop_
_geom_bond_atom_site_label_1
_geom_bond_atom_site_label_2
_geom_bond_distance
_geom_bond_site_symmetry_2
_ccdc_geom_bond_type
Eu0 C9 2.828 . S
Eu0 O11 2.392 . S
Eu0 O13 2.418 1_554 S
Eu0 O18 2.373 . S
Eu0 O21 2.488 . S
Eu0 O22 2.471 . S
Eu0 O23 2.349 . S
Eu1 O10 2.373 . S
Eu1 O14 2.454 1_455 S
Eu1 O15 2.471 1_554 S
Eu1 O16 2.349 1_554 S
Eu1 O19 2.392 . S
Eu1 O20 2.418 . S
Eu1 C30 2.828 1_554 S
C2 O20 1.244 . S
C2 O23 1.265 . S
C3 C4 1.379 . S
C3 C7 1.373 . S
C3 C9 1.505 . S
C4 C3 1.379 . S
C4 C6 1.369 . S
C4 H32 0.930 . S
C5 C7 1.383 . S
C5 C8 1.382 . S
C5 H33 0.930 . S
C6 C4 1.369 . S
C6 C8 1.392 . S
C6 H34 0.930 . S
C7 C3 1.373 . S
C7 C5 1.383 . S
C7 H35 0.931 . S
C8 C5 1.382 . S
C8 C6 1.392 . S
C9 Eu0 2.828 . S
C9 C3 1.505 . S
C9 O21 1.249 . S
C9 O22 1.244 . S
O10 Eu1 2.373 . S
O10 C12 1.258 . S
O11 Eu0 2.392 . S
O11 C12 1.242 . S
C12 O10 1.258 . S
C12 O11 1.242 . S
O13 Eu0 2.418 1_556 S
O13 C17 1.244 . S
O14 Eu1 2.454 1_655 S
O14 C30 1.247 1_654 S
O15 Eu1 2.471 1_556 S
O15 C30 1.244 . S
O16 Eu1 2.349 1_556 S
O16 C17 1.265 . S
C17 O13 1.244 . S
C17 O16 1.265 . S
O18 Eu0 2.373 . S
O18 C31 1.258 1_554 S
O19 Eu1 2.392 . S
O19 C31 1.242 1_554 S
O20 Eu1 2.418 . S
O20 C2 1.244 . S
O21 Eu0 2.488 . S
O21 C9 1.249 . S
O22 Eu0 2.471 . S
O22 C9 1.244 . S
O23 Eu0 2.349 . S
O23 C2 1.265 . S
C24 C25 1.379 1_655 S
C24 C28 1.373 1_556 S
C24 C30 1.505 1_655 S
C25 C24 1.379 1_455 S
C25 C27 1.377 . S
C25 H36 0.930 . S
C26 C28 1.383 . S
C26 C29 1.382 1_554 S
C26 H37 0.930 . S
C27 C25 1.377 . S
C27 C29 1.381 1_455 S
C27 H38 0.933 . S
C28 C24 1.373 1_554 S
C28 C26 1.383 . S
C28 H39 0.931 . S
C29 C26 1.382 1_556 S
C29 C27 1.381 1_655 S
C30 Eu1 2.828 1_556 S
C30 O14 1.247 1_456 S
C30 O15 1.244 . S
C30 C24 1.505 1_455 S
C31 O18 1.258 1_556 S
C31 O19 1.242 1_556 S
H32 C4 0.930 . S
H33 C5 0.930 . S
H34 C6 0.930 . S
H35 C7 0.931 . S
H36 C25 0.930 . S
H37 C26 0.930 . S
H38 C27 0.933 . S
H39 C28 0.931 . S
Eu40 C49 2.828 . S
Eu40 O51 2.392 . S
Eu40 O53 2.418 . S
Eu40 O58 2.373 . S
Eu40 O61 2.488 . S
Eu40 O62 2.471 . S
Eu40 O63 2.349 . S
Eu41 O50 2.373 . S
Eu41 O54 2.488 . S
Eu41 O55 2.471 . S
Eu41 O56 2.349 . S
Eu41 O59 2.392 . S
Eu41 O60 2.418 1_554 S
Eu41 C70 2.828 . S
C42 O60 1.244 . S
C42 O63 1.265 1_556 S
C43 C44 1.379 . S
C43 C47 1.373 . S
C43 C49 1.505 . S
C44 C43 1.379 . S
C44 C46 1.369 . S
C44 H72 0.930 1_554 S
C45 C47 1.383 . S
C45 C48 1.382 . S
C45 H73 0.930 . S
C46 C44 1.369 . S
C46 C48 1.392 . S
C46 H74 0.930 1_554 S
C47 C43 1.373 . S
C47 C45 1.383 . S
C47 H75 0.931 . S
C48 C45 1.382 . S
C48 C46 1.392 . S
C49 Eu40 2.828 . S
C49 C43 1.505 . S
C49 O61 1.249 . S
C49 O62 1.244 . S
O50 Eu41 2.373 . S
O50 C52 1.258 . S
O51 Eu40 2.392 . S
O51 C52 1.242 . S
C52 O50 1.258 . S
C52 O51 1.242 . S
O53 Eu40 2.418 . S
O53 C57 1.244 . S
O54 Eu41 2.488 . S
O54 C70 1.249 . S
O55 Eu41 2.471 . S
O55 C70 1.244 . S
O56 Eu41 2.349 . S
O56 C57 1.265 . S
C57 O53 1.244 . S
C57 O56 1.265 . S
O58 Eu40 2.373 . S
O58 C71 1.258 . S
O59 Eu41 2.392 . S
O59 C71 1.242 . S
O60 Eu41 2.418 1_556 S
O60 C42 1.244 . S
O61 Eu40 2.488 . S
O61 C49 1.249 . S
O62 Eu40 2.471 . S
O62 C49 1.244 . S
O63 Eu40 2.349 . S
O63 C42 1.265 1_554 S
C64 C65 1.379 . S
C64 C68 1.373 . S
C64 C70 1.505 . S
C65 C64 1.379 . S
C65 C67 1.369 . S
C65 H76 0.930 . S
C66 C68 1.383 . S
C66 C69 1.382 . S
C66 H77 0.930 . S
C67 C65 1.369 . S
C67 C69 1.392 . S
C67 H78 0.930 . S
C68 C64 1.373 . S
C68 C66 1.383 . S
C68 H79 0.931 . S
C69 C66 1.382 . S
C69 C67 1.392 . S
C70 Eu41 2.828 . S
C70 O54 1.249 . S
C70 O55 1.244 . S
C70 C64 1.505 . S
C71 O58 1.258 . S
C71 O59 1.242 . S
H72 C44 0.930 1_556 S
H73 C45 0.930 . S
H74 C46 0.930 1_556 S
H75 C47 0.931 . S
H76 C65 0.930 . S
H77 C66 0.930 . S
H78 C67 0.930 . S
H79 C68 0.931 . S
Eu80 C89 2.828 . S
Eu80 O91 2.392 . S
Eu80 O93 2.418 1_554 S
Eu80 O98 2.373 . S
Eu80 O101 2.488 . S
Eu80 O102 2.471 . S
Eu80 O103 2.349 . S
Eu81 O90 2.373 . S
Eu81 O94 2.488 . S
Eu81 O95 2.471 . S
Eu81 O96 2.349 . S
Eu81 O99 2.392 . S
Eu81 O100 2.418 . S
Eu81 C110 2.828 . S
C82 O100 1.244 . S
C82 O103 1.265 . S
C83 C84 1.379 . S
C83 C87 1.373 . S
C83 C89 1.505 . S
C84 C83 1.379 . S
C84 C86 1.369 . S
C84 H112 0.930 . S
C85 C87 1.383 . S
C85 C88 1.382 . S
C85 H113 0.930 1_545 S
C86 C84 1.369 . S
C86 C88 1.392 . S
C86 H114 0.930 . S
C87 C83 1.373 . S
C87 C85 1.383 . S
C87 H115 0.948 1_554 S
C88 C85 1.382 . S
C88 C86 1.392 . S
C89 Eu80 2.828 . S
C89 C83 1.505 . S
C89 O101 1.249 . S
C89 O102 1.244 . S
O90 Eu81 2.373 . S
O90 C92 1.258 . S
O91 Eu80 2.392 . S
O91 C92 1.242 . S
C92 O90 1.258 . S
C92 O91 1.242 . S
O93 Eu80 2.418 1_556 S
O93 C97 1.244 . S
O94 Eu81 2.488 . S
O94 C110 1.249 . S
O95 Eu81 2.471 . S
O95 C110 1.244 . S
O96 Eu81 2.349 . S
O96 C97 1.265 1_554 S
C97 O93 1.244 . S
C97 O96 1.265 1_556 S
O98 Eu80 2.373 . S
O98 C111 1.258 . S
O99 Eu81 2.392 . S
O99 C111 1.242 . S
O100 Eu81 2.418 . S
O100 C82 1.244 . S
O101 Eu80 2.488 . S
O101 C89 1.249 . S
O102 Eu80 2.471 . S
O102 C89 1.244 . S
O103 Eu80 2.349 . S
O103 C82 1.265 . S
C104 C105 1.379 . S
C104 C108 1.373 . S
C104 C110 1.505 . S
C105 C104 1.379 . S
C105 C107 1.369 . S
C105 H116 0.930 . S
C106 C108 1.383 . S
C106 C109 1.382 . S
C106 H117 0.930 . S
C107 C105 1.369 . S
C107 C109 1.392 . S
C107 H118 0.930 . S
C108 C104 1.373 . S
C108 C106 1.383 . S
C108 H119 0.931 . S
C109 C106 1.382 . S
C109 C107 1.392 . S
C110 Eu81 2.828 . S
C110 O94 1.249 . S
C110 O95 1.244 . S
C110 C104 1.505 . S
C111 O98 1.258 . S
C111 O99 1.242 . S
H112 C84 0.930 . S
H113 C85 0.930 1_565 S
H114 C86 0.930 . S
H115 C87 0.948 1_556 S
H116 C105 0.930 . S
H117 C106 0.930 . S
H118 C107 0.930 . S
H119 C108 0.931 . S
Eu120 C129 2.828 . S
Eu120 O131 2.392 . S
Eu120 O133 2.418 . S
Eu120 O138 2.373 . S
Eu120 O141 2.488 . S
Eu120 O142 2.471 . S
Eu120 O143 2.349 . S
Eu121 O130 2.373 . S
Eu121 O134 2.488 . S
Eu121 O135 2.471 . S
Eu121 O136 2.349 . S
Eu121 O139 2.392 . S
Eu121 O140 2.418 . S
Eu121 C150 2.828 . S
C122 O140 1.244 . S
C122 O143 1.265 . S
C123 C124 1.379 . S
C123 C127 1.373 . S
C123 C129 1.505 . S
C124 C123 1.379 . S
C124 C126 1.369 . S
C124 H152 0.930 . S
C125 C127 1.383 . S
C125 C128 1.382 . S
C125 H153 0.930 . S
C126 C124 1.369 . S
C126 C128 1.392 . S
C126 H154 0.930 . S
C127 C123 1.373 . S
C127 C125 1.383 . S
C127 H155 0.931 . S
C128 C125 1.382 . S
C128 C126 1.392 . S
C129 Eu120 2.828 . S
C129 C123 1.505 . S
C129 O141 1.249 . S
C129 O142 1.244 . S
O130 Eu121 2.373 . S
O130 C132 1.258 . S
O131 Eu120 2.392 . S
O131 C132 1.242 . S
C132 O130 1.258 . S
C132 O131 1.242 . S
O133 Eu120 2.418 . S
O133 C137 1.244 . S
O134 Eu121 2.488 . S
O134 C150 1.249 . S
O135 Eu121 2.471 . S
O135 C150 1.244 . S
O136 Eu121 2.349 . S
O136 C137 1.265 . S
C137 O133 1.244 . S
C137 O136 1.265 . S
O138 Eu120 2.373 . S
O138 C151 1.258 . S
O139 Eu121 2.392 . S
O139 C151 1.242 . S
O140 Eu121 2.418 . S
O140 C122 1.244 . S
O141 Eu120 2.488 . S
O141 C129 1.249 . S
O142 Eu120 2.471 . S
O142 C129 1.244 . S
O143 Eu120 2.349 . S
O143 C122 1.265 . S
C144 C145 1.379 . S
C144 C148 1.373 . S
C144 C150 1.505 . S
C145 C144 1.379 . S
C145 C147 1.352 1_565 S
C145 H156 0.930 . S
C146 C148 1.383 . S
C146 C149 1.382 1_565 S
C146 H157 0.930 . S
C147 C145 1.352 1_545 S
C147 C149 1.401 . S
C147 H158 0.940 . S
C148 C144 1.373 . S
C148 C146 1.383 . S
C148 H159 0.931 . S
C149 C146 1.382 1_545 S
C149 C147 1.401 . S
C150 Eu121 2.828 . S
C150 O134 1.249 . S
C150 O135 1.244 . S
C150 C144 1.505 . S
C151 O138 1.258 . S
C151 O139 1.242 . S
H152 C124 0.930 . S
H153 C125 0.930 . S
H154 C126 0.930 . S
H155 C127 0.931 . S
H156 C145 0.930 . S
H157 C146 0.930 . S
H158 C147 0.940 . S
H159 C148 0.931 . S
Eu160 C169 2.828 . S
Eu160 O171 2.392 . S
Eu160 O173 2.418 . S
Eu160 O178 2.373 . S
Eu160 O181 2.488 . S
Eu160 O182 2.471 . S
Eu160 O183 2.349 . S
Eu161 O170 2.373 . S
Eu161 O174 2.488 . S
Eu161 O175 2.471 . S
Eu161 O176 2.349 . S
Eu161 O179 2.392 . S
Eu161 O180 2.418 . S
Eu161 C190 2.828 . S
C162 O180 1.244 . S
C162 O183 1.265 . S
C163 C164 1.379 . S
C163 C167 1.373 . S
C163 C169 1.505 . S
C164 C163 1.379 . S
C164 C166 1.369 . S
C164 H192 0.930 . S
C165 C167 1.383 . S
C165 C168 1.382 . S
C165 H193 0.930 . S
C166 C164 1.369 . S
C166 C168 1.392 . S
C166 H194 0.930 . S
C167 C163 1.373 . S
C167 C165 1.383 . S
C167 H195 0.931 . S
C168 C165 1.382 . S
C168 C166 1.392 . S
C169 Eu160 2.828 . S
C169 C163 1.505 . S
C169 O181 1.249 . S
C169 O182 1.244 . S
O170 Eu161 2.373 . S
O170 C172 1.258 . S
O171 Eu160 2.392 . S
O171 C172 1.242 . S
C172 O170 1.258 . S
C172 O171 1.242 . S
O173 Eu160 2.418 . S
O173 C177 1.244 . S
O174 Eu161 2.488 . S
O174 C190 1.249 . S
O175 Eu161 2.471 . S
O175 C190 1.244 . S
O176 Eu161 2.349 . S
O176 C177 1.265 . S
C177 O173 1.244 . S
C177 O176 1.265 . S
O178 Eu160 2.373 . S
O178 C191 1.258 . S
O179 Eu161 2.392 . S
O179 C191 1.242 . S
O180 Eu161 2.418 . S
O180 C162 1.244 . S
O181 Eu160 2.488 . S
O181 C169 1.249 . S
O182 Eu160 2.471 . S
O182 C169 1.244 . S
O183 Eu160 2.349 . S
O183 C162 1.265 . S
C184 C185 1.379 . S
C184 C188 1.373 . S
C184 C190 1.505 . S
C185 C184 1.379 . S
C185 C187 1.369 . S
C185 H196 0.930 . S
C186 C188 1.383 . S
C186 C189 1.382 . S
C186 H197 0.930 . S
C187 C185 1.369 . S
C187 C189 1.392 . S
C187 H198 0.930 . S
C188 C184 1.373 . S
C188 C186 1.383 . S
C188 H199 0.931 . S
C189 C186 1.382 . S
C189 C187 1.392 . S
C190 Eu161 2.828 . S
C190 O174 1.249 . S
C190 O175 1.244 . S
C190 C184 1.505 . S
C191 O178 1.258 . S
C191 O179 1.242 . S
H192 C164 0.930 . S
H193 C165 0.930 . S
H194 C166 0.930 . S
H195 C167 0.931 . S
H196 C185 0.930 . S
H197 C186 0.930 . S
H198 C187 0.930 . S
H199 C188 0.931 . S
Eu200 C209 2.828 . S
Eu200 O211 2.392 . S
Eu200 O213 2.418 . S
Eu200 O218 2.373 . S
Eu200 O221 2.488 . S
Eu200 O222 2.471 . S
Eu200 O223 2.349 . S
Eu201 O210 2.373 . S
Eu201 O214 2.488 . S
Eu201 O215 2.471 . S
Eu201 O216 2.349 . S
Eu201 O219 2.392 . S
Eu201 O220 2.418 . S
Eu201 C230 2.828 . S
C202 O220 1.244 . S
C202 O223 1.265 . S
C203 C204 1.379 . S
C203 C207 1.373 . S
C203 C209 1.505 . S
C204 C203 1.379 . S
C204 C206 1.369 . S
C204 H232 0.930 . S
C205 C207 1.383 . S
C205 C208 1.382 . S
C205 H233 0.930 . S
C206 C204 1.369 . S
C206 C208 1.392 . S
C206 H234 0.930 . S
C207 C203 1.373 . S
C207 C205 1.383 . S
C207 H235 0.931 . S
C208 C205 1.382 . S
C208 C206 1.392 . S
C209 Eu200 2.828 . S
C209 C203 1.505 . S
C209 O221 1.249 . S
C209 O222 1.244 . S
O210 Eu201 2.373 . S
O210 C212 1.258 . S
O211 Eu200 2.392 . S
O211 C212 1.242 . S
C212 O210 1.258 . S
C212 O211 1.242 . S
O213 Eu200 2.418 . S
O213 C217 1.244 . S
O214 Eu201 2.488 . S
O214 C230 1.249 . S
O215 Eu201 2.471 . S
O215 C230 1.244 . S
O216 Eu201 2.349 . S
O216 C217 1.265 . S
C217 O213 1.244 . S
C217 O216 1.265 . S
O218 Eu200 2.373 . S
O218 C231 1.258 . S
O219 Eu201 2.392 . S
O219 C231 1.242 . S
O220 Eu201 2.418 . S
O220 C202 1.244 . S
O221 Eu200 2.488 . S
O221 C209 1.249 . S
O222 Eu200 2.471 . S
O222 C209 1.244 . S
O223 Eu200 2.349 . S
O223 C202 1.265 . S
C224 C225 1.379 . S
C224 C228 1.373 . S
C224 C230 1.505 . S
C225 C224 1.379 . S
C225 C227 1.369 . S
C225 H236 0.930 . S
C226 C228 1.383 . S
C226 C229 1.382 . S
C226 H237 0.930 . S
C227 C225 1.369 . S
C227 C229 1.392 . S
C227 H238 0.930 . S
C228 C224 1.373 . S
C228 C226 1.383 . S
C228 H239 0.931 . S
C229 C226 1.382 . S
C229 C227 1.392 . S
C230 Eu201 2.828 . S
C230 O214 1.249 . S
C230 O215 1.244 . S
C230 C224 1.505 . S
C231 O218 1.258 . S
C231 O219 1.242 . S
H232 C204 0.930 . S
H233 C205 0.930 . S
H234 C206 0.930 . S
H235 C207 0.931 . S
H236 C225 0.930 . S
H237 C226 0.930 . S
H238 C227 0.930 . S
H239 C228 0.931 . S
Eu240 C249 2.828 . S
Eu240 O251 2.392 . S
Eu240 O253 2.418 . S
Eu240 O258 2.373 . S
Eu240 O261 2.488 . S
Eu240 O262 2.471 . S
Eu240 O263 2.349 . S
Eu241 O250 2.373 . S
Eu241 O254 2.488 . S
Eu241 O255 2.471 . S
Eu241 O256 2.349 . S
Eu241 O259 2.392 . S
Eu241 O260 2.418 . S
Eu241 C270 2.828 . S
C242 O260 1.244 . S
C242 O263 1.265 . S
C243 C244 1.379 . S
C243 C247 1.373 . S
C243 C249 1.505 . S
C244 C243 1.379 . S
C244 C246 1.369 . S
C244 H272 0.930 . S
C245 C247 1.383 . S
C245 C248 1.382 . S
C245 H273 0.930 . S
C246 C244 1.369 . S
C246 C248 1.392 . S
C246 H274 0.930 . S
C247 C243 1.373 . S
C247 C245 1.383 . S
C247 H275 0.931 . S
C248 C245 1.382 . S
C248 C246 1.392 . S
C249 Eu240 2.828 . S
C249 C243 1.505 . S
C249 O261 1.249 . S
C249 O262 1.244 . S
O250 Eu241 2.373 . S
O250 C252 1.258 . S
O251 Eu240 2.392 . S
O251 C252 1.242 . S
C252 O250 1.258 . S
C252 O251 1.242 . S
O253 Eu240 2.418 . S
O253 C257 1.244 . S
O254 Eu241 2.488 . S
O254 C270 1.249 . S
O255 Eu241 2.471 . S
O255 C270 1.244 . S
O256 Eu241 2.349 . S
O256 C257 1.265 . S
C257 O253 1.244 . S
C257 O256 1.265 . S
O258 Eu240 2.373 . S
O258 C271 1.258 . S
O259 Eu241 2.392 . S
O259 C271 1.242 . S
O260 Eu241 2.418 . S
O260 C242 1.244 . S
O261 Eu240 2.488 . S
O261 C249 1.249 . S
O262 Eu240 2.471 . S
O262 C249 1.244 . S
O263 Eu240 2.349 . S
O263 C242 1.265 . S
C264 C265 1.379 . S
C264 C268 1.373 . S
C264 C270 1.505 1_554 S
C265 C264 1.379 . S
C265 C267 1.369 . S
C265 H276 0.930 . S
C266 C268 1.383 . S
C266 C269 1.382 . S
C266 H277 0.930 . S
C267 C265 1.369 . S
C267 C269 1.392 . S
C267 H278 0.930 . S
C268 C264 1.373 . S
C268 C266 1.383 . S
C268 H279 0.931 . S
C269 C266 1.382 . S
C269 C267 1.392 . S
C270 Eu241 2.828 . S
C270 O254 1.249 . S
C270 O255 1.244 . S
C270 C264 1.505 1_556 S
C271 O258 1.258 . S
C271 O259 1.242 . S
H272 C244 0.930 . S
H273 C245 0.930 . S
H274 C246 0.930 . S
H275 C247 0.931 . S
H276 C265 0.930 . S
H277 C266 0.930 . S
H278 C267 0.930 . S
H279 C268 0.931 . S
Eu280 C289 2.828 . S
Eu280 O291 2.392 . S
Eu280 O293 2.418 . S
Eu280 O298 2.373 . S
Eu280 O301 2.488 . S
Eu280 O302 2.471 . S
Eu280 O303 2.349 . S
Eu281 O290 2.373 . S
Eu281 O294 2.488 . S
Eu281 O295 2.471 . S
Eu281 O296 2.349 . S
Eu281 O299 2.392 . S
Eu281 O300 2.418 . S
Eu281 C310 2.828 . S
C282 O300 1.244 . S
C282 O303 1.265 . S
C283 C284 1.379 . S
C283 C287 1.373 . S
C283 C289 1.505 1_554 S
C284 C283 1.379 . S
C284 C286 1.369 . S
C284 H312 0.930 . S
C285 C287 1.383 . S
C285 C288 1.382 . S
C285 H313 0.930 . S
C286 C284 1.369 . S
C286 C288 1.392 . S
C286 H314 0.930 . S
C287 C283 1.373 . S
C287 C285 1.383 . S
C287 H315 0.931 . S
C288 C285 1.382 . S
C288 C286 1.392 . S
C289 Eu280 2.828 . S
C289 C283 1.505 1_556 S
C289 O301 1.249 . S
C289 O302 1.244 . S
O290 Eu281 2.373 . S
O290 C292 1.258 . S
O291 Eu280 2.392 . S
O291 C292 1.242 . S
C292 O290 1.258 . S
C292 O291 1.242 . S
O293 Eu280 2.418 . S
O293 C297 1.244 . S
O294 Eu281 2.488 . S
O294 C310 1.249 . S
O295 Eu281 2.471 . S
O295 C310 1.244 . S
O296 Eu281 2.349 . S
O296 C297 1.265 . S
C297 O293 1.244 . S
C297 O296 1.265 . S
O298 Eu280 2.373 . S
O298 C311 1.258 . S
O299 Eu281 2.392 . S
O299 C311 1.242 . S
O300 Eu281 2.418 . S
O300 C282 1.244 . S
O301 Eu280 2.488 . S
O301 C289 1.249 . S
O302 Eu280 2.471 . S
O302 C289 1.244 . S
O303 Eu280 2.349 . S
O303 C282 1.265 . S
C304 C305 1.379 . S
C304 C308 1.373 . S
C304 C310 1.505 . S
C305 C304 1.379 . S
C305 C307 1.369 . S
C305 H316 0.930 . S
C306 C308 1.383 . S
C306 C309 1.382 . S
C306 H317 0.930 . S
C307 C305 1.369 . S
C307 C309 1.392 . S
C307 H318 0.930 . S
C308 C304 1.373 . S
C308 C306 1.383 . S
C308 H319 0.931 . S
C309 C306 1.382 . S
C309 C307 1.392 . S
C310 Eu281 2.828 . S
C310 O294 1.249 . S
C310 O295 1.244 . S
C310 C304 1.505 . S
C311 O298 1.258 . S
C311 O299 1.242 . S
H312 C284 0.930 . S
H313 C285 0.930 . S
H314 C286 0.930 . S
H315 C287 0.931 . S
H316 C305 0.930 . S
H317 C306 0.930 . S
H318 C307 0.930 . S
H319 C308 0.931 . S
Eu320 C329 2.828 . S
Eu320 O331 2.392 . S
Eu320 O333 2.418 . S
Eu320 O338 2.373 . S
Eu320 O341 2.488 . S
Eu320 O342 2.471 . S
Eu320 O343 2.349 . S
Eu321 O330 2.373 . S
Eu321 O334 2.488 . S
Eu321 O335 2.471 . S
Eu321 O336 2.349 . S
Eu321 O339 2.392 . S
Eu321 O340 2.418 . S
Eu321 C350 2.828 . S
C322 O340 1.244 . S
C322 O343 1.265 . S
C323 C324 1.379 . S
C323 C327 1.373 . S
C323 C329 1.505 . S
C324 C323 1.379 . S
C324 C326 1.369 . S
C324 H352 0.930 . S
C325 C327 1.383 . S
C325 C328 1.382 . S
C325 H353 0.930 . S
C326 C324 1.369 . S
C326 C328 1.392 . S
C326 H354 0.930 . S
C327 C323 1.373 . S
C327 C325 1.383 . S
C327 H355 0.931 . S
C328 C325 1.382 . S
C328 C326 1.392 . S
C329 Eu320 2.828 . S
C329 C323 1.505 . S
C329 O341 1.249 . S
C329 O342 1.244 . S
O330 Eu321 2.373 . S
O330 C332 1.258 . S
O331 Eu320 2.392 . S
O331 C332 1.242 . S
C332 O330 1.258 . S
C332 O331 1.242 . S
O333 Eu320 2.418 . S
O333 C337 1.244 . S
O334 Eu321 2.488 . S
O334 C350 1.249 . S
O335 Eu321 2.471 . S
O335 C350 1.244 . S
O336 Eu321 2.349 . S
O336 C337 1.265 . S
C337 O333 1.244 . S
C337 O336 1.265 . S
O338 Eu320 2.373 . S
O338 C351 1.258 . S
O339 Eu321 2.392 . S
O339 C351 1.242 . S
O340 Eu321 2.418 . S
O340 C322 1.244 . S
O341 Eu320 2.488 . S
O341 C329 1.249 . S
O342 Eu320 2.471 . S
O342 C329 1.244 . S
O343 Eu320 2.349 . S
O343 C322 1.265 . S
C344 C345 1.379 . S
C344 C348 1.373 . S
C344 C350 1.505 1_554 S
C345 C344 1.379 . S
C345 C347 1.369 . S
C345 H356 0.930 . S
C346 C348 1.383 . S
C346 C349 1.382 . S
C346 H357 0.930 . S
C347 C345 1.369 . S
C347 C349 1.392 . S
C347 H358 0.930 . S
C348 C344 1.373 . S
C348 C346 1.383 . S
C348 H359 0.931 . S
C349 C346 1.382 . S
C349 C347 1.392 . S
C350 Eu321 2.828 . S
C350 O334 1.249 . S
C350 O335 1.244 . S
C350 C344 1.505 1_556 S
C351 O338 1.258 . S
C351 O339 1.242 . S
H352 C324 0.930 . S
H353 C325 0.930 . S
H354 C326 0.930 . S
H355 C327 0.931 . S
H356 C345 0.930 . S
H357 C346 0.930 . S
H358 C347 0.930 . S
H359 C348 0.931 . S
C360 C361 1.387 . S
C360 H364 0.950 . S
C360 C369 1.390 . S
C361 C360 1.387 . S
C361 C363 1.387 . S
H362 C369 0.950 . S
C363 C361 1.387 . S
C363 C365 1.390 . S
C363 H367 0.950 . S
H364 C360 0.950 . S
C365 C363 1.390 . S
C365 C366 1.387 . S
C365 H368 0.950 . S
C366 C365 1.387 . S
C366 C369 1.387 . S
H367 C363 0.950 . S
H368 C365 0.950 . S
C369 C360 1.390 . S
C369 H362 0.950 . S
C369 C366 1.387 . S
C370 C371 1.387 . S
C370 H374 0.950 . S
C370 C379 1.390 . S
C371 C370 1.387 . S
C371 C373 1.387 . S
H372 C379 0.950 . S
C373 C371 1.387 . S
C373 C375 1.390 . S
C373 H377 0.950 . S
H374 C370 0.950 . S
C375 C373 1.390 . S
C375 C376 1.387 . S
C375 H378 0.950 . S
C376 C375 1.387 . S
C376 C379 1.387 . S
H377 C373 0.950 . S
H378 C375 0.950 . S
C379 C370 1.390 . S
C379 H372 0.950 . S
C379 C376 1.387 . S
C380 C381 1.387 . S
C380 H384 0.950 . S
C380 C389 1.390 . S
C381 C380 1.387 . S
C381 C383 1.387 . S
H382 C389 0.950 . S
C383 C381 1.387 . S
C383 C385 1.390 . S
C383 H387 0.950 . S
H384 C380 0.950 . S
C385 C383 1.390 . S
C385 C386 1.387 . S
C385 H388 0.950 . S
C386 C385 1.387 . S
C386 C389 1.387 . S
H387 C383 0.950 . S
H388 C385 0.950 . S
C389 C380 1.390 . S
C389 H382 0.950 . S
C389 C386 1.387 . S
C390 C391 1.387 . S
C390 H394 0.950 . S
C390 C399 1.390 . S
C391 C390 1.387 . S
C391 C393 1.387 . S
H392 C399 0.950 . S
C393 C391 1.387 . S
C393 C395 1.390 . S
C393 H397 0.950 . S
H394 C390 0.950 . S
C395 C393 1.390 . S
C395 C396 1.387 . S
C395 H398 0.950 . S
C396 C395 1.387 . S
C396 C399 1.387 . S
H397 C393 0.950 . S
H398 C395 0.950 . S
C399 C390 1.390 . S
C399 H392 0.950 . S
C399 C396 1.387 . S
C400 C401 1.387 . S
C400 H404 0.950 . S
C400 C409 1.390 . S
C401 C400 1.387 . S
C401 C403 1.387 . S
H402 C409 0.950 . S
C403 C401 1.387 . S
C403 C405 1.390 . S
C403 H407 0.950 . S
H404 C400 0.950 . S
C405 C403 1.390 . S
C405 C406 1.387 . S
C405 H408 0.950 . S
C406 C405 1.387 . S
C406 C409 1.387 . S
H407 C403 0.950 . S
H408 C405 0.950 . S
C409 C400 1.390 . S
C409 H402 0.950 . S
C409 C406 1.387 . S
C410 C411 1.387 . S
C410 H414 0.950 . S
C410 C419 1.390 . S
C411 C410 1.387 . S
C411 C413 1.387 . S
H412 C419 0.950 . S
C413 C411 1.387 . S
C413 C415 1.390 . S
C413 H417 0.950 . S
H414 C410 0.950 . S
C415 C413 1.390 . S
C415 C416 1.387 . S
C415 H418 0.950 . S
C416 C415 1.387 . S
C416 C419 1.387 . S
H417 C413 0.950 . S
H418 C415 0.950 . S
C419 C410 1.390 . S
C419 H412 0.950 . S
C419 C416 1.387 . S
C420 C421 1.387 . S
C420 H424 0.950 . S
C420 C429 1.390 . S
C421 C420 1.387 . S
C421 C423 1.387 . S
H422 C429 0.950 . S
C423 C421 1.387 . S
C423 C425 1.390 . S
C423 H427 0.950 . S
H424 C420 0.950 . S
C425 C423 1.390 . S
C425 C426 1.387 . S
C425 H428 0.950 . S
C426 C425 1.387 . S
C426 C429 1.387 . S
H427 C423 0.950 . S
H428 C425 0.950 . S
C429 C420 1.390 . S
C429 H422 0.950 . S
C429 C426 1.387 . S
C430 C431 1.387 . S
C430 H434 0.950 . S
C430 C439 1.390 . S
C431 C430 1.387 . S
C431 C433 1.387 . S
H432 C439 0.950 . S
C433 C431 1.387 . S
C433 C435 1.390 . S
C433 H437 0.950 . S
H434 C430 0.950 . S
C435 C433 1.390 . S
C435 C436 1.387 . S
C435 H438 0.950 . S
C436 C435 1.387 . S
C436 C439 1.387 . S
H437 C433 0.950 . S
H438 C435 0.950 . S
C439 C430 1.390 . S
C439 H432 0.950 . S
C439 C436 1.387 . S
C440 C441 1.387 . S
C440 H444 0.950 . S
C440 C449 1.390 . S
C441 C440 1.387 . S
C441 C443 1.387 . S
H442 C449 0.950 . S
C443 C441 1.387 . S
C443 C445 1.390 . S
C443 H447 0.950 . S
H444 C440 0.950 . S
C445 C443 1.390 . S
C445 C446 1.387 . S
C445 H448 0.950 . S
C446 C445 1.387 . S
C446 C449 1.387 . S
H447 C443 0.950 . S
H448 C445 0.950 . S
C449 C440 1.390 . S
C449 H442 0.950 . S
C449 C446 1.387 . S
C450 C451 1.387 . S
C450 H454 0.950 . S
C450 C459 1.390 . S
C451 C450 1.387 . S
C451 C453 1.387 . S
H452 C459 0.950 . S
C453 C451 1.387 . S
C453 C455 1.390 . S
C453 H457 0.950 . S
H454 C450 0.950 . S
C455 C453 1.390 . S
C455 C456 1.387 . S
C455 H458 0.950 . S
C456 C455 1.387 . S
C456 C459 1.387 . S
H457 C453 0.950 . S
H458 C455 0.950 . S
C459 C450 1.390 . S
C459 H452 0.950 . S
C459 C456 1.387 . S
C460 C461 1.387 . S
C460 H464 0.950 . S
C460 C469 1.390 . S
C461 C460 1.387 . S
C461 C463 1.387 . S
H462 C469 0.950 . S
C463 C461 1.387 . S
C463 C465 1.390 . S
C463 H467 0.950 . S
H464 C460 0.950 . S
C465 C463 1.390 . S
C465 C466 1.387 . S
C465 H468 0.950 . S
C466 C465 1.387 . S
C466 C469 1.387 . S
H467 C463 0.950 . S
H468 C465 0.950 . S
C469 C460 1.390 . S
C469 H462 0.950 . S
C469 C466 1.387 . S
C470 C471 1.387 . S
C470 H474 0.950 . S
C470 C479 1.390 . S
C471 C470 1.387 . S
C471 C473 1.387 1_545 S
H472 C479 0.950 . S
C473 C471 1.387 1_565 S
C473 C475 1.390 . S
C473 H477 0.950 . S
H474 C470 0.950 . S
C475 C473 1.390 . S
C475 C476 1.387 . S
C475 H478 0.950 . S
C476 C475 1.387 . S
C476 C479 1.387 1_565 S
H477 C473 0.950 . S
H478 C475 0.950 . S
C479 C470 1.390 . S
C479 H472 0.950 . S
C479 C476 1.387 1_545 S
C480 C481 1.387 1_556 S
C480 H484 0.950 1_556 S
C480 C489 1.390 . S
C481 C480 1.387 1_554 S
C481 C483 1.387 1_554 S
H482 C489 0.950 . S
C483 C481 1.387 1_556 S
C483 C485 1.390 . S
C483 H487 0.950 . S
H484 C480 0.950 1_554 S
C485 C483 1.390 . S
C485 C486 1.387 . S
C485 H488 0.950 . S
C486 C485 1.387 . S
C486 C489 1.387 . S
H487 C483 0.950 . S
H488 C485 0.950 . S
C489 C480 1.390 . S
C489 H482 0.950 . S
C489 C486 1.387 . S
C490 C491 1.387 . S
C490 H494 0.950 . S
C490 C499 1.390 . S
C491 C490 1.387 . S
C491 C493 1.387 1_655 S
H492 C499 0.950 . S
C493 C491 1.387 1_455 S
C493 C495 1.390 . S
C493 H497 0.950 . S
H494 C490 0.950 . S
C495 C493 1.390 . S
C495 C496 1.387 . S
C495 H498 0.950 . S
C496 C495 1.387 . S
C496 C499 1.387 1_455 S
H497 C493 0.950 . S
H498 C495 0.950 . S
C499 C490 1.390 . S
C499 H492 0.950 . S
C499 C496 1.387 1_655 S
C500 C501 1.387 . S
C500 H504 0.950 . S
C500 C509 1.390 1_556 S
C501 C500 1.387 . S
C501 C503 1.387 . S
H502 C509 0.950 . S
C503 C501 1.387 . S
C503 C505 1.390 . S
C503 H507 0.950 . S
H504 C500 0.950 . S
C505 C503 1.390 . S
C505 C506 1.387 1_556 S
C505 H508 0.950 . S
C506 C505 1.387 1_554 S
C506 C509 1.387 . S
H507 C503 0.950 . S
H508 C505 0.950 . S
C509 C500 1.390 1_554 S
C509 H502 0.950 . S
C509 C506 1.387 . S
C510 C511 1.387 . S
C510 H514 0.950 . S
C510 C519 1.390 . S
C511 C510 1.387 . S
C511 C513 1.387 . S
H512 C519 0.950 . S
C513 C511 1.387 . S
C513 C515 1.390 . S
C513 H517 0.950 . S
H514 C510 0.950 . S
C515 C513 1.390 . S
C515 C516 1.387 . S
C515 H518 0.948 1_655 S
C516 C515 1.387 . S
C516 C519 1.387 . S
H517 C513 0.950 . S
H518 C515 0.948 1_455 S
C519 C510 1.390 . S
C519 H512 0.950 . S
C519 C516 1.387 . S
C520 C521 1.387 . S
C520 H524 0.950 . S
C520 C529 1.390 . S
C521 C520 1.387 . S
C521 C523 1.387 1_556 S
H522 C529 0.950 . S
C523 C521 1.387 1_554 S
C523 C525 1.390 1_554 S
C523 H527 0.950 . S
H524 C520 0.950 . S
C525 C523 1.390 1_556 S
C525 C526 1.387 . S
C525 H528 0.950 . S
C526 C525 1.387 . S
C526 C529 1.387 . S
H527 C523 0.950 . S
H528 C525 0.950 . S
C529 C520 1.390 . S
C529 H522 0.950 . S
C529 C526 1.387 . S
C530 C531 1.387 . S
C530 H534 0.950 . S
C530 C539 1.390 1_556 S
C531 C530 1.387 . S
C531 C533 1.387 . S
H532 C539 0.950 . S
C533 C531 1.387 . S
C533 C535 1.390 . S
C533 H537 0.950 . S
H534 C530 0.950 . S
C535 C533 1.390 . S
C535 C536 1.387 1_556 S
C535 H538 0.950 . S
C536 C535 1.387 1_554 S
C536 C539 1.387 . S
H537 C533 0.950 . S
H538 C535 0.950 . S
C539 C530 1.390 1_554 S
C539 H532 0.950 . S
C539 C536 1.387 . S
C540 C541 1.387 . S
C540 H544 0.950 . S
C540 C549 1.390 . S
C541 C540 1.387 . S
C541 C543 1.387 . S
H542 C549 0.950 . S
C543 C541 1.387 . S
C543 C545 1.390 . S
C543 H547 0.950 . S
H544 C540 0.950 . S
C545 C543 1.390 . S
C545 C546 1.387 . S
C545 H548 0.970 . S
C546 C545 1.387 . S
C546 C549 1.387 . S
H547 C543 0.950 . S
H548 C545 0.970 . S
C549 C540 1.390 . S
C549 H542 0.950 . S
C549 C546 1.387 . S
C550 C551 1.387 . S
C550 H554 0.950 . S
C550 C559 1.390 . S
C551 C550 1.387 . S
C551 C553 1.387 . S
H552 C559 0.950 . S
C553 C551 1.387 . S
C553 C555 1.390 . S
C553 H557 0.950 . S
H554 C550 0.950 . S
C555 C553 1.390 . S
C555 C556 1.387 . S
C555 H558 0.950 . S
C556 C555 1.387 . S
C556 C559 1.387 . S
H557 C553 0.950 . S
H558 C555 0.950 . S
C559 C550 1.390 . S
C559 H552 0.950 . S
C559 C556 1.387 . S
C560 C561 1.387 . S
C560 H564 0.950 . S
C560 C569 1.390 . S
C561 C560 1.387 . S
C561 C563 1.387 . S
H562 C569 0.950 . S
C563 C561 1.387 . S
C563 C565 1.390 . S
C563 H567 0.950 . S
H564 C560 0.950 . S
C565 C563 1.390 . S
C565 C566 1.387 . S
C565 H568 0.950 . S
C566 C565 1.387 . S
C566 C569 1.387 . S
H567 C563 0.950 . S
H568 C565 0.950 . S
C569 C560 1.390 . S
C569 H562 0.950 . S
C569 C566 1.387 . S
C570 C571 1.387 . S
C570 H574 0.950 . S
C570 C579 1.390 . S
C571 C570 1.387 . S
C571 C573 1.387 . S
H572 C579 0.950 . S
C573 C571 1.387 . S
C573 C575 1.390 . S
C573 H577 0.950 . S
H574 C570 0.950 . S
C575 C573 1.390 . S
C575 C576 1.387 . S
C575 H578 0.950 . S
C576 C575 1.387 . S
C576 C579 1.387 . S
H577 C573 0.950 . S
H578 C575 0.950 . S
C579 C570 1.390 . S
C579 H572 0.950 . S
C579 C576 1.387 . S
C580 C581 1.387 . S
C580 H584 0.950 . S
C580 C589 1.390 1_545 S
C581 C580 1.387 . S
C581 C583 1.387 . S
H582 C589 0.950 . S
C583 C581 1.387 . S
C583 C585 1.390 . S
C583 H587 0.950 . S
H584 C580 0.950 . S
C585 C583 1.390 . S
C585 C586 1.387 1_545 S
C585 H588 0.950 . S
C586 C585 1.387 1_565 S
C586 C589 1.387 . S
H587 C583 0.950 . S
H588 C585 0.950 . S
C589 C580 1.390 1_565 S
C589 H582 0.950 . S
C589 C586 1.387 . S
C590 C591 1.387 . S
C590 H594 0.950 . S
C590 C599 1.390 . S
C591 C590 1.387 . S
C591 C593 1.387 1_655 S
H592 C599 0.950 . S
C593 C591 1.387 1_455 S
C593 C595 1.390 . S
C593 H597 0.950 . S
H594 C590 0.950 . S
C595 C593 1.390 . S
C595 C596 1.387 . S
C595 H598 0.950 . S
C596 C595 1.387 . S
C596 C599 1.387 1_455 S
H597 C593 0.950 . S
H598 C595 0.950 . S
C599 C590 1.390 . S
C599 H592 0.950 . S
C599 C596 1.387 1_655 S
C600 C601 1.387 . S
C600 H604 0.950 . S
C600 C609 1.390 . S
C601 C600 1.387 . S
C601 C603 1.387 . S
H602 C609 0.950 . S
C603 C601 1.387 . S
C603 C605 1.390 . S
C603 H607 0.950 . S
H604 C600 0.950 . S
C605 C603 1.390 . S
C605 C606 1.387 . S
C605 H608 0.950 . S
C606 C605 1.387 . S
C606 C609 1.387 . S
H607 C603 0.950 . S
H608 C605 0.950 . S
C609 C600 1.390 . S
C609 H602 0.950 . S
C609 C606 1.387 . S
C610 C611 1.387 1_545 S
C610 H614 0.950 1_545 S
C610 C619 1.390 . S
C611 C610 1.387 1_565 S
C611 C613 1.387 1_565 S
H612 C619 0.950 . S
C613 C611 1.387 1_545 S
C613 C615 1.390 . S
C613 H617 0.950 1_545 S
H614 C610 0.950 1_565 S
C615 C613 1.390 . S
C615 C616 1.387 . S
C615 H618 0.950 . S
C616 C615 1.387 . S
C616 C619 1.387 . S
H617 C613 0.950 1_565 S
H618 C615 0.950 . S
C619 C610 1.390 . S
C619 H612 0.950 . S
C619 C616 1.387 . S
C620 C621 1.387 . S
C620 H624 0.950 . S
C620 C629 1.390 . S
C621 C620 1.387 . S
C621 C623 1.387 1_655 S
H622 C629 0.950 . S
C623 C621 1.387 1_455 S
C623 C625 1.390 . S
C623 H627 0.950 . S
H624 C620 0.950 . S
C625 C623 1.390 . S
C625 C626 1.387 . S
C625 H628 0.950 . S
C626 C625 1.387 . S
C626 C629 1.387 1_455 S
H627 C623 0.950 . S
H628 C625 0.950 . S
C629 C620 1.390 . S
C629 H622 0.950 . S
C629 C626 1.387 1_655 S
C361 C17 3.643 . S
C366 C2 3.643 . S
C371 C42 3.727 . S
C376 C57 3.727 . S
C381 C97 3.762 . S
C386 C82 3.762 . S
C391 C122 3.643 . S
C396 C137 3.643 1_556 S
C401 C177 3.727 . S
C406 C162 3.727 1_556 S
C411 C202 3.762 . S
C416 C217 3.762 1_556 S
C421 C248 0.236 . S
C426 C269 0.236 . S
C431 C309 0.332 . S
C436 C288 0.332 . S
C441 C328 0.591 . S
C446 C349 0.591 . S
C451 C231 1.562 . S
C456 C8 1.550 . S
C461 C71 2.574 . S
C466 C151 2.605 . S
C471 C88 1.088 . S
C476 C168 1.118 . S
C481 C111 3.145 . S
C486 C252 3.214 . S
C491 C282 1.433 . S
C496 C31 1.387 . S
C501 C332 2.037 . S
C506 C48 1.897 . S
C511 C337 1.134 . S
C516 C29 1.043 . S
C521 C52 2.445 1_556 S
C526 C257 2.446 . S
C531 C311 2.951 . S
C536 C109 2.820 . S
C541 C92 1.563 . S
C546 C149 1.550 . S
C551 C172 2.574 . S
C556 C12 2.605 . S
C561 C69 1.118 . S
C566 C229 1.089 . S
C571 C322 1.134 . S
C576 C128 1.042 . S
C581 C242 2.448 . S
C586 C191 2.446 . S
C591 C292 2.951 . S
C596 C208 2.820 . S
C601 C271 3.214 . S
C606 C212 3.147 . S
C611 C132 1.384 . S
C616 C297 1.434 . S
C621 C351 2.037 . S
C626 C189 1.897 . S
