# Generated by pormake.
# Topology lta, (4)-cn, num edge types: 1
# Building blocks:
#     Node 0, Type 0, BuildingBlock: AZAVOO_clean_sbu_0, # of connection points: 4
#     Node 1, Type 0, BuildingBlock: AZAVOO_clean_sbu_0, # of connection points: 4
#     Node 2, Type 0, BuildingBlock: AZAVOO_clean_sbu_0, # of connection points: 4
#     Node 3, Type 0, BuildingBlock: AZAVOO_clean_sbu_0, # of connection points: 4
#     Node 4, Type 0, BuildingBlock: AZAVOO_clean_sbu_0, # of connection points: 4
#     Node 5, Type 0, BuildingBlock: AZAVOO_clean_sbu_0, # of connection points: 4
#     Node 6, Type 0, BuildingBlock: AZAVOO_clean_sbu_0, # of connection points: 4
#     Node 7, Type 0, BuildingBlock: AZAVOO_clean_sbu_0, # of connection points: 4
#     Node 8, Type 0, BuildingBlock: AZAVOO_clean_sbu_0, # of connection points: 4
#     Node 9, Type 0, BuildingBlock: AZAVOO_clean_sbu_0, # of connection points: 4
#     Node 10, Type 0, BuildingBlock: AZAVOO_clean_sbu_0, # of connection points: 4
#     Node 11, Type 0, BuildingBlock: AZAVOO_clean_sbu_0, # of connection points: 4
#     Node 12, Type 0, BuildingBlock: AZAVOO_clean_sbu_0, # of connection points: 4
#     Node 13, Type 0, BuildingBlock: AZAVOO_clean_sbu_0, # of connection points: 4
#     Node 14, Type 0, BuildingBlock: AZAVOO_clean_sbu_0, # of connection points: 4
#     Node 15, Type 0, BuildingBlock: AZAVOO_clean_sbu_0, # of connection points: 4
#     Node 16, Type 0, BuildingBlock: AZAVOO_clean_sbu_0, # of connection points: 4
#     Node 17, Type 0, BuildingBlock: AZAVOO_clean_sbu_0, # of connection points: 4
#     Node 18, Type 0, BuildingBlock: AZAVOO_clean_sbu_0, # of connection points: 4
#     Node 19, Type 0, BuildingBlock: AZAVOO_clean_sbu_0, # of connection points: 4
#     Node 20, Type 0, BuildingBlock: AZAVOO_clean_sbu_0, # of connection points: 4
#     Node 21, Type 0, BuildingBlock: AZAVOO_clean_sbu_0, # of connection points: 4
#     Node 22, Type 0, BuildingBlock: AZAVOO_clean_sbu_0, # of connection points: 4
#     Node 23, Type 0, BuildingBlock: AZAVOO_clean_sbu_0, # of connection points: 4
#     Edge 24, Type (0, 0), BuildingBlock: MIFKUJ_clean_linker_0, # of connection points: 2
#     Edge 25, Type (0, 0), BuildingBlock: MIFKUJ_clean_linker_0, # of connection points: 2
#     Edge 26, Type (0, 0), BuildingBlock: MIFKUJ_clean_linker_0, # of connection points: 2
#     Edge 27, Type (0, 0), BuildingBlock: MIFKUJ_clean_linker_0, # of connection points: 2
#     Edge 28, Type (0, 0), BuildingBlock: MIFKUJ_clean_linker_0, # of connection points: 2
#     Edge 29, Type (0, 0), BuildingBlock: MIFKUJ_clean_linker_0, # of connection points: 2
#     Edge 30, Type (0, 0), BuildingBlock: MIFKUJ_clean_linker_0, # of connection points: 2
#     Edge 31, Type (0, 0), BuildingBlock: MIFKUJ_clean_linker_0, # of connection points: 2
#     Edge 32, Type (0, 0), BuildingBlock: MIFKUJ_clean_linker_0, # of connection points: 2
#     Edge 33, Type (0, 0), BuildingBlock: MIFKUJ_clean_linker_0, # of connection points: 2
#     Edge 34, Type (0, 0), BuildingBlock: MIFKUJ_clean_linker_0, # of connection points: 2
#     Edge 35, Type (0, 0), BuildingBlock: MIFKUJ_clean_linker_0, # of connection points: 2
#     Edge 36, Type (0, 0), BuildingBlock: MIFKUJ_clean_linker_0, # of connection points: 2
#     Edge 37, Type (0, 0), BuildingBlock: MIFKUJ_clean_linker_0, # of connection points: 2
#     Edge 38, Type (0, 0), BuildingBlock: MIFKUJ_clean_linker_0, # of connection points: 2
#     Edge 39, Type (0, 0), BuildingBlock: MIFKUJ_clean_linker_0, # of connection points: 2
#     Edge 40, Type (0, 0), BuildingBlock: MIFKUJ_clean_linker_0, # of connection points: 2
#     Edge 41, Type (0, 0), BuildingBlock: MIFKUJ_clean_linker_0, # of connection points: 2
#     Edge 42, Type (0, 0), BuildingBlock: MIFKUJ_clean_linker_0, # of connection points: 2
#     Edge 43, Type (0, 0), BuildingBlock: MIFKUJ_clean_linker_0, # of connection points: 2
#     Edge 44, Type (0, 0), BuildingBlock: MIFKUJ_clean_linker_0, # of connection points: 2
#     Edge 45, Type (0, 0), BuildingBlock: MIFKUJ_clean_linker_0, # of connection points: 2
#     Edge 46, Type (0, 0), BuildingBlock: MIFKUJ_clean_linker_0, # of connection points: 2
#     Edge 47, Type (0, 0), BuildingBlock: MIFKUJ_clean_linker_0, # of connection points: 2
#     Edge 48, Type (0, 0), BuildingBlock: MIFKUJ_clean_linker_0, # of connection points: 2
#     Edge 49, Type (0, 0), BuildingBlock: MIFKUJ_clean_linker_0, # of connection points: 2
#     Edge 50, Type (0, 0), BuildingBlock: MIFKUJ_clean_linker_0, # of connection points: 2
#     Edge 51, Type (0, 0), BuildingBlock: MIFKUJ_clean_linker_0, # of connection points: 2
#     Edge 52, Type (0, 0), BuildingBlock: MIFKUJ_clean_linker_0, # of connection points: 2
#     Edge 53, Type (0, 0), BuildingBlock: MIFKUJ_clean_linker_0, # of connection points: 2
#     Edge 54, Type (0, 0), BuildingBlock: MIFKUJ_clean_linker_0, # of connection points: 2
#     Edge 55, Type (0, 0), BuildingBlock: MIFKUJ_clean_linker_0, # of connection points: 2
#     Edge 56, Type (0, 0), BuildingBlock: MIFKUJ_clean_linker_0, # of connection points: 2
#     Edge 57, Type (0, 0), BuildingBlock: MIFKUJ_clean_linker_0, # of connection points: 2
#     Edge 58, Type (0, 0), BuildingBlock: MIFKUJ_clean_linker_0, # of connection points: 2
#     Edge 59, Type (0, 0), BuildingBlock: MIFKUJ_clean_linker_0, # of connection points: 2
#     Edge 60, Type (0, 0), BuildingBlock: MIFKUJ_clean_linker_0, # of connection points: 2
#     Edge 61, Type (0, 0), BuildingBlock: MIFKUJ_clean_linker_0, # of connection points: 2
#     Edge 62, Type (0, 0), BuildingBlock: MIFKUJ_clean_linker_0, # of connection points: 2
#     Edge 63, Type (0, 0), BuildingBlock: MIFKUJ_clean_linker_0, # of connection points: 2
#     Edge 64, Type (0, 0), BuildingBlock: MIFKUJ_clean_linker_0, # of connection points: 2
#     Edge 65, Type (0, 0), BuildingBlock: MIFKUJ_clean_linker_0, # of connection points: 2
#     Edge 66, Type (0, 0), BuildingBlock: MIFKUJ_clean_linker_0, # of connection points: 2
#     Edge 67, Type (0, 0), BuildingBlock: MIFKUJ_clean_linker_0, # of connection points: 2
#     Edge 68, Type (0, 0), BuildingBlock: MIFKUJ_clean_linker_0, # of connection points: 2
#     Edge 69, Type (0, 0), BuildingBlock: MIFKUJ_clean_linker_0, # of connection points: 2
#     Edge 70, Type (0, 0), BuildingBlock: MIFKUJ_clean_linker_0, # of connection points: 2
#     Edge 71, Type (0, 0), BuildingBlock: MIFKUJ_clean_linker_0, # of connection points: 2
# Relax obj value: 0.172
# Max RMSD: 0.064
# Mean RMSD: 0.064
data_MOF--net-lta--node1-AZAVOO_clean_sbu_0--edge1-MIFKUJ_clean_linker_0
_symmetry_space_group_name_H-M    P1
_symmetry_Int_Tables_number       1
_symmetry_cell_setting            triclinic
loop_
_symmetry_equiv_pos_as_xyz
'x, y, z'
_cell_length_a     73.001955
_cell_length_b     73.220817
_cell_length_c     73.151329
_cell_angle_alpha  89.945872
_cell_angle_beta   89.965881
_cell_angle_gamma 89.988621
loop_
_atom_site_label
_atom_site_type_symbol
_atom_site_fract_x
_atom_site_fract_y
_atom_site_fract_z
_atom_type_partial_charge
Mg0 Mg 0.11275 0.30155 0.5344 0.0
O1 O 0.11865 0.3163 0.50731 0.0
O2 O 0.0968 0.33734 0.50338 0.0
Mg3 Mg 0.07831 0.33753 0.52856 0.0
C4 C 0.11113 0.32896 0.49797 0.0
C5 C 0.15492 0.29193 0.52528 0.0
O6 O 0.15706 0.30943 0.52197 0.0
O7 O 0.12526 0.3257 0.5501 0.0
O8 O 0.10292 0.34638 0.54607 0.0
O9 O 0.09275 0.2828 0.52065 0.0
O10 O 0.08498 0.30884 0.53357 0.0
C11 C 0.11842 0.34159 0.55261 0.0
C12 C 0.08015 0.29462 0.52445 0.0
O13 O 0.13962 0.28608 0.53116 0.0
Mg14 Mg 0.69912 0.12184 0.53762 0.0
O15 O 0.67987 0.12395 0.51279 0.0
O16 O 0.65945 0.10133 0.51619 0.0
Mg17 Mg 0.66673 0.08367 0.54097 0.0
C18 C 0.66563 0.11523 0.50762 0.0
C19 C 0.72912 0.14912 0.53199 0.0
O20 O 0.73704 0.13353 0.5361 0.0
O21 O 0.67598 0.13318 0.55603 0.0
O22 O 0.65878 0.1079 0.55883 0.0
O23 O 0.71732 0.10282 0.52178 0.0
O24 O 0.69466 0.0939 0.53965 0.0
C25 C 0.66236 0.12448 0.56284 0.0
C26 C 0.70738 0.08973 0.52829 0.0
O27 O 0.71169 0.14979 0.53163 0.0
Mg28 Mg 0.88492 0.68584 0.52579 0.0
O29 O 0.88143 0.66808 0.50029 0.0
O30 O 0.90406 0.64756 0.49991 0.0
Mg31 Mg 0.92234 0.65239 0.52496 0.0
C32 C 0.88961 0.65454 0.49297 0.0
C33 C 0.85081 0.71097 0.53059 0.0
O34 O 0.86086 0.71622 0.54452 0.0
O35 O 0.87382 0.66221 0.54356 0.0
O36 O 0.89872 0.64429 0.54401 0.0
O37 O 0.90426 0.70501 0.51109 0.0
O38 O 0.91319 0.68081 0.52652 0.0
C39 C 0.88248 0.64811 0.54929 0.0
C40 C 0.91751 0.6946 0.51654 0.0
O41 O 0.85654 0.69798 0.52059 0.0
Mg42 Mg 0.30462 0.87185 0.53087 0.0
O43 O 0.32227 0.86884 0.50452 0.0
O44 O 0.34334 0.89094 0.50632 0.0
Mg45 Mg 0.34055 0.9068 0.53281 0.0
C46 C 0.33597 0.87756 0.49791 0.0
C47 C 0.27218 0.84705 0.52695 0.0
O48 O 0.26562 0.86311 0.53156 0.0
O49 O 0.32712 0.8581 0.54794 0.0
O50 O 0.34773 0.88078 0.54861 0.0
O51 O 0.28688 0.89251 0.51697 0.0
O52 O 0.31155 0.89944 0.53288 0.0
C53 C 0.34251 0.86472 0.55294 0.0
C54 C 0.29826 0.90478 0.52264 0.0
O55 O 0.28946 0.84519 0.52544 0.0
Mg56 Mg 0.13173 0.691 0.46064 0.0
O57 O 0.12944 0.67187 0.48506 0.0
O58 O 0.10071 0.66168 0.4872 0.0
Mg59 Mg 0.08431 0.67455 0.46367 0.0
C60 C 0.11722 0.66228 0.49297 0.0
C61 C 0.17882 0.69031 0.46632 0.0
O62 O 0.19215 0.6793 0.46137 0.0
O63 O 0.13053 0.66644 0.44151 0.0
O64 O 0.10123 0.65776 0.44332 0.0
O65 O 0.12232 0.71426 0.47918 0.0
O66 O 0.10396 0.69724 0.46248 0.0
C67 C 0.11738 0.65597 0.43683 0.0
C68 C 0.10584 0.70975 0.47452 0.0
O69 O 0.16264 0.68619 0.46143 0.0
Mg70 Mg 0.30787 0.12492 0.46023 0.0
O71 O 0.32384 0.13014 0.48703 0.0
O72 O 0.34416 0.10739 0.49027 0.0
Mg73 Mg 0.34304 0.08933 0.46499 0.0
C74 C 0.33646 0.12196 0.49596 0.0
C75 C 0.27658 0.15208 0.46121 0.0
O76 O 0.26882 0.13644 0.45704 0.0
O77 O 0.33194 0.13628 0.44375 0.0
O78 O 0.3524 0.11379 0.44767 0.0
O79 O 0.28838 0.10598 0.47451 0.0
O80 O 0.31436 0.09726 0.46171 0.0
C81 C 0.34775 0.12929 0.44109 0.0
C82 C 0.30012 0.09318 0.47123 0.0
O83 O 0.29391 0.15263 0.46283 0.0
Mg84 Mg 0.86751 0.30711 0.46127 0.0
O85 O 0.8678 0.32409 0.4875 0.0
O86 O 0.8964 0.33391 0.49242 0.0
Mg87 Mg 0.91394 0.32498 0.46804 0.0
C88 C 0.8796 0.3326 0.49712 0.0
C89 C 0.82086 0.30549 0.46654 0.0
O90 O 0.80642 0.31455 0.46083 0.0
O91 O 0.86854 0.33324 0.44452 0.0
O92 O 0.89692 0.34359 0.44912 0.0
O93 O 0.87682 0.28238 0.47775 0.0
O94 O 0.89532 0.30176 0.4639 0.0
C95 C 0.88106 0.34508 0.44187 0.0
C96 C 0.89333 0.28792 0.47441 0.0
O97 O 0.83645 0.31039 0.46058 0.0
Mg98 Mg 0.69446 0.87102 0.46058 0.0
O99 O 0.6754 0.8692 0.48537 0.0
O100 O 0.6552 0.89206 0.48349 0.0
Mg101 Mg 0.66222 0.90952 0.4584 0.0
C102 C 0.66157 0.87791 0.49149 0.0
C103 C 0.71246 0.84029 0.48292 0.0
O104 O 0.71123 0.85367 0.49481 0.0
O105 O 0.67126 0.86017 0.44203 0.0
O106 O 0.65434 0.88568 0.44 0.0
O107 O 0.71308 0.89 0.47613 0.0
O108 O 0.6902 0.89909 0.45871 0.0
C109 C 0.65777 0.8692 0.43543 0.0
C110 C 0.70314 0.9032 0.46982 0.0
O111 O 0.70581 0.84261 0.46701 0.0
Mg112 Mg 0.53907 0.12589 0.30893 0.0
O113 O 0.51082 0.13233 0.32158 0.0
O114 O 0.50287 0.10807 0.33855 0.0
Mg115 Mg 0.5262 0.08744 0.33856 0.0
C116 C 0.49955 0.12382 0.33188 0.0
C117 C 0.53848 0.17109 0.29578 0.0
O118 O 0.54841 0.18574 0.29882 0.0
O119 O 0.55315 0.1315 0.33608 0.0
O120 O 0.54435 0.1081 0.35372 0.0
O121 O 0.52545 0.10973 0.28567 0.0
O122 O 0.5346 0.09813 0.31176 0.0
C123 C 0.55306 0.12303 0.3513 0.0
C124 C 0.5269 0.09563 0.29628 0.0
O125 O 0.5437 0.15611 0.30282 0.0
Mg126 Mg 0.87157 0.53312 0.29688 0.0
O127 O 0.87134 0.50794 0.3161 0.0
O128 O 0.89728 0.51014 0.33227 0.0
Mg129 Mg 0.91342 0.53566 0.32459 0.0
C130 C 0.88242 0.50186 0.32823 0.0
C131 C 0.84265 0.52993 0.26931 0.0
O132 O 0.85796 0.53507 0.26139 0.0
O133 O 0.86274 0.55124 0.3211 0.0
O134 O 0.88984 0.55311 0.33539 0.0
O135 O 0.88837 0.5174 0.27645 0.0
O136 O 0.89995 0.53466 0.2983 0.0
C137 C 0.87298 0.55753 0.33383 0.0
C138 C 0.90252 0.52343 0.28511 0.0
O139 O 0.8425 0.52796 0.28661 0.0
Mg140 Mg 0.46686 0.87734 0.30513 0.0
O141 O 0.49369 0.87429 0.32125 0.0
O142 O 0.49689 0.89825 0.33988 0.0
Mg143 Mg 0.47154 0.9163 0.33637 0.0
C144 C 0.50261 0.88311 0.33337 0.0
C145 C 0.46046 0.84019 0.28387 0.0
O146 O 0.44465 0.84772 0.27975 0.0
O147 O 0.45084 0.86799 0.33055 0.0
O148 O 0.45395 0.89297 0.34787 0.0
O149 O 0.48036 0.89487 0.28364 0.0
O150 O 0.4675 0.90557 0.30876 0.0
C151 C 0.44763 0.87689 0.34526 0.0
C152 C 0.4766 0.90864 0.29404 0.0
O153 O 0.47132 0.84849 0.29457 0.0
Mg154 Mg 0.12061 0.45664 0.30806 0.0
O155 O 0.12215 0.48271 0.3255 0.0
O156 O 0.09702 0.48296 0.34305 0.0
Mg157 Mg 0.08096 0.45654 0.33904 0.0
C158 C 0.11183 0.49029 0.33735 0.0
C159 C 0.14862 0.46491 0.27957 0.0
O160 O 0.13309 0.46237 0.27091 0.0
O161 O 0.13124 0.43965 0.33231 0.0
O162 O 0.10536 0.43963 0.34874 0.0
O163 O 0.10207 0.47136 0.2883 0.0
O164 O 0.09209 0.45508 0.31154 0.0
C165 C 0.12189 0.43451 0.34618 0.0
C166 C 0.08847 0.46575 0.2981 0.0
O167 O 0.14914 0.46253 0.29678 0.0
Mg168 Mg 0.53407 0.87148 0.68439 0.0
O169 O 0.50689 0.86979 0.66872 0.0
O170 O 0.50459 0.89406 0.65022 0.0
Mg171 Mg 0.53131 0.91012 0.65269 0.0
C172 C 0.49819 0.87933 0.65699 0.0
C173 C 0.5362 0.83958 0.71094 0.0
O174 O 0.5474 0.8517 0.71805 0.0
O175 O 0.54931 0.86092 0.65922 0.0
O176 O 0.54655 0.88533 0.64092 0.0
O177 O 0.52109 0.88981 0.70513 0.0
O178 O 0.53555 0.89957 0.68042 0.0
C179 C 0.55211 0.86906 0.64401 0.0
C180 C 0.52621 0.90328 0.69485 0.0
O181 O 0.52876 0.84308 0.69565 0.0
Mg182 Mg 0.12049 0.53219 0.68749 0.0
O183 O 0.11879 0.50572 0.67086 0.0
O184 O 0.09205 0.50498 0.65612 0.0
Mg185 Mg 0.07716 0.53186 0.66229 0.0
C186 C 0.10745 0.4978 0.66023 0.0
C187 C 0.15924 0.5358 0.70439 0.0
O188 O 0.15254 0.55192 0.70855 0.0
O189 O 0.12792 0.54781 0.6612 0.0
O190 O 0.10035 0.54702 0.6479 0.0
O191 O 0.10454 0.51896 0.71027 0.0
O192 O 0.09223 0.53497 0.68781 0.0
C193 C 0.11716 0.55191 0.64801 0.0
C194 C 0.09007 0.52516 0.70218 0.0
O195 O 0.14986 0.52512 0.69445 0.0
Mg196 Mg 0.46617 0.12188 0.68813 0.0
O197 O 0.49127 0.12195 0.6695 0.0
O198 O 0.49024 0.09728 0.65168 0.0
Mg199 Mg 0.46404 0.08137 0.659 0.0
C200 C 0.49804 0.11198 0.65692 0.0
C201 C 0.46343 0.15857 0.7088 0.0
O202 O 0.44804 0.15079 0.71393 0.0
O203 O 0.44842 0.13139 0.66405 0.0
O204 O 0.4463 0.10504 0.64855 0.0
O205 O 0.48127 0.10442 0.70829 0.0
O206 O 0.46357 0.09365 0.68626 0.0
C207 C 0.44205 0.12181 0.65089 0.0
C208 C 0.47456 0.09057 0.69961 0.0
O209 O 0.47343 0.1506 0.69705 0.0
Mg210 Mg 0.8702 0.463 0.69018 0.0
O211 O 0.86701 0.48902 0.67234 0.0
O212 O 0.89041 0.48861 0.65251 0.0
Mg213 Mg 0.90695 0.46238 0.65595 0.0
C214 C 0.87618 0.49619 0.65926 0.0
C215 C 0.84473 0.46519 0.72171 0.0
O216 O 0.86073 0.45981 0.7279 0.0
O217 O 0.85785 0.44569 0.6672 0.0
O218 O 0.88181 0.44536 0.64797 0.0
O219 O 0.89004 0.4774 0.70859 0.0
O220 O 0.89812 0.46145 0.68436 0.0
C221 C 0.86557 0.44058 0.65238 0.0
C222 C 0.90285 0.47164 0.69784 0.0
O223 O 0.8429 0.46779 0.70459 0.0
Mg224 Mg 0.3098 0.53018 0.12386 0.0
O225 O 0.32783 0.50457 0.12678 0.0
O226 O 0.34949 0.50629 0.10516 0.0
Mg227 Mg 0.34423 0.53144 0.08751 0.0
C228 C 0.34209 0.49835 0.11883 0.0
C229 C 0.28257 0.53288 0.15506 0.0
O230 O 0.27623 0.54456 0.14297 0.0
O231 O 0.33252 0.54798 0.13582 0.0
O232 O 0.3522 0.5488 0.11227 0.0
O233 O 0.29133 0.51534 0.10468 0.0
O234 O 0.31539 0.53151 0.09608 0.0
C235 C 0.3474 0.55338 0.12841 0.0
C236 C 0.30204 0.5209 0.09171 0.0
O237 O 0.29749 0.52465 0.15169 0.0
Mg238 Mg 0.30289 0.46121 0.87217 0.0
O239 O 0.32155 0.48648 0.8721 0.0
O240 O 0.34037 0.48442 0.89609 0.0
Mg241 Mg 0.33323 0.4585 0.91205 0.0
C242 C 0.33471 0.49267 0.88177 0.0
C243 C 0.28157 0.45931 0.83535 0.0
O244 O 0.27572 0.44409 0.84287 0.0
O245 O 0.32701 0.44394 0.8619 0.0
O246 O 0.34373 0.44206 0.88758 0.0
O247 O 0.28265 0.47563 0.89013 0.0
O248 O 0.30575 0.45889 0.90026 0.0
C249 C 0.34084 0.43806 0.87085 0.0
C250 C 0.2923 0.46965 0.90369 0.0
O251 O 0.29359 0.46873 0.8436 0.0
Mg252 Mg 0.53573 0.3076 0.87322 0.0
O253 O 0.50989 0.32546 0.87254 0.0
O254 O 0.51169 0.34573 0.89535 0.0
Mg255 Mg 0.53815 0.34025 0.91108 0.0
C256 C 0.50348 0.3389 0.88157 0.0
C257 C 0.53828 0.28568 0.83672 0.0
O258 O 0.5547 0.2822 0.84319 0.0
O259 O 0.55254 0.33121 0.86111 0.0
O260 O 0.55322 0.34987 0.8854 0.0
O261 O 0.52173 0.28857 0.89249 0.0
O262 O 0.53873 0.31199 0.90117 0.0
C263 C 0.55739 0.34607 0.86889 0.0
C264 C 0.52806 0.2987 0.90552 0.0
O265 O 0.52783 0.29646 0.84543 0.0
Mg266 Mg 0.69393 0.53562 0.8721 0.0
O267 O 0.67867 0.50852 0.8677 0.0
O268 O 0.66302 0.50311 0.89353 0.0
Mg269 Mg 0.67034 0.52454 0.91505 0.0
C270 C 0.66751 0.499 0.87717 0.0
C271 C 0.69997 0.5372 0.82477 0.0
O272 O 0.69248 0.54736 0.81197 0.0
O273 O 0.66666 0.55076 0.871 0.0
O274 O 0.65381 0.54518 0.89815 0.0
O275 O 0.71895 0.52066 0.88359 0.0
O276 O 0.69551 0.5304 0.8998 0.0
C277 C 0.65372 0.55297 0.88251 0.0
C278 C 0.71071 0.52176 0.89923 0.0
O279 O 0.6952 0.54 0.84123 0.0
Mg280 Mg 0.46026 0.68864 0.87435 0.0
O281 O 0.48759 0.67261 0.87319 0.0
O282 O 0.48859 0.65542 0.8985 0.0
Mg283 Mg 0.46252 0.65915 0.91508 0.0
C284 C 0.49568 0.6611 0.88358 0.0
C285 C 0.46577 0.71632 0.84472 0.0
O286 O 0.46248 0.72558 0.85972 0.0
O287 O 0.44502 0.66268 0.86513 0.0
O288 O 0.44734 0.64652 0.89101 0.0
O289 O 0.47353 0.71044 0.89173 0.0
O290 O 0.45978 0.68599 0.90275 0.0
C291 C 0.44199 0.64822 0.87448 0.0
C292 C 0.46933 0.70042 0.90562 0.0
O293 O 0.46493 0.69899 0.84522 0.0
Mg294 Mg 0.68777 0.45957 0.11483 0.0
O295 O 0.67397 0.48716 0.12026 0.0
O296 O 0.65706 0.49434 0.09585 0.0
Mg297 Mg 0.65916 0.47076 0.07533 0.0
C298 C 0.66323 0.49795 0.11176 0.0
C299 C 0.69992 0.45878 0.16143 0.0
O300 O 0.69193 0.44714 0.17254 0.0
O301 O 0.66063 0.44504 0.12104 0.0
O302 O 0.64493 0.45147 0.09558 0.0
O303 O 0.71108 0.47323 0.09914 0.0
O304 O 0.68567 0.46281 0.08682 0.0
C305 C 0.64635 0.44348 0.11107 0.0
C306 C 0.70111 0.47085 0.08469 0.0
O307 O 0.69552 0.45902 0.14469 0.0
Mg308 Mg 0.53614 0.68732 0.12356 0.0
O309 O 0.5102 0.66999 0.12502 0.0
O310 O 0.51172 0.64876 0.10314 0.0
Mg311 Mg 0.53735 0.65443 0.08591 0.0
C312 C 0.50367 0.65614 0.11676 0.0
C313 C 0.53714 0.71257 0.15773 0.0
O314 O 0.55117 0.71926 0.14868 0.0
O315 O 0.55323 0.66349 0.13513 0.0
O316 O 0.55541 0.64606 0.11003 0.0
O317 O 0.52201 0.70675 0.10472 0.0
O318 O 0.53795 0.68288 0.09545 0.0
C319 C 0.55961 0.64965 0.12658 0.0
C320 C 0.52748 0.69645 0.09143 0.0
O321 O 0.52898 0.69857 0.15154 0.0
Mg322 Mg 0.46083 0.29669 0.1245 0.0
O323 O 0.48674 0.315 0.12591 0.0
O324 O 0.48536 0.33311 0.10124 0.0
Mg325 Mg 0.45831 0.32909 0.0863 0.0
C326 C 0.49355 0.32736 0.11556 0.0
C327 C 0.4649 0.26632 0.15115 0.0
O328 O 0.45982 0.25927 0.13544 0.0
O329 O 0.44383 0.32021 0.13659 0.0
O330 O 0.44363 0.33879 0.11218 0.0
O331 O 0.47557 0.27817 0.10496 0.0
O332 O 0.45807 0.30127 0.09649 0.0
C333 C 0.43926 0.33511 0.12868 0.0
C334 C 0.46908 0.28834 0.09206 0.0
O335 O 0.4668 0.28357 0.15226 0.0
H336 H 0.15716 0.43203 0.35993 0.0
H337 H 0.16694 0.41291 0.38611 0.0
H338 H 0.1131 0.38877 0.38824 0.0
H339 H 0.10338 0.40755 0.36268 0.0
H340 H 0.1274 0.40885 0.42141 0.0
H341 H 0.1439 0.36384 0.37272 0.0
H342 H 0.16399 0.35482 0.34714 0.0
H343 H 0.2112 0.36036 0.38168 0.0
H344 H 0.19137 0.36963 0.40741 0.0
H345 H 0.0939 0.33779 0.46652 0.0
H346 H 0.10702 0.35343 0.44011 0.0
H347 H 0.16068 0.35057 0.46459 0.0
H348 H 0.1476 0.33411 0.49092 0.0
H349 H 0.15919 0.34891 0.42285 0.0
H350 H 0.14226 0.38709 0.47333 0.0
H351 H 0.12221 0.39552 0.49913 0.0
H352 H 0.0776 0.40467 0.46199 0.0
H353 H 0.09731 0.39603 0.436 0.0
C354 C 0.14764 0.42232 0.36582 0.0
C355 C 0.12944 0.42143 0.35954 0.0
C356 C 0.1532 0.41149 0.38071 0.0
C357 C 0.14063 0.39962 0.38913 0.0
C358 C 0.12293 0.39796 0.382 0.0
C359 C 0.11739 0.40874 0.36742 0.0
C360 C 0.14451 0.3901 0.4065 0.0
C361 C 0.13471 0.39595 0.42189 0.0
C362 C 0.15448 0.37358 0.40727 0.0
C363 C 0.1662 0.3676 0.3919 0.0
C364 C 0.15857 0.36326 0.37481 0.0
C365 C 0.16991 0.35807 0.3603 0.0
C366 C 0.18887 0.35707 0.36276 0.0
C367 C 0.19652 0.36117 0.37978 0.0
C368 C 0.18525 0.36637 0.39433 0.0
C369 C 0.10856 0.34002 0.46602 0.0
C370 C 0.11971 0.335 0.48078 0.0
C371 C 0.11607 0.34886 0.45092 0.0
C372 C 0.13477 0.35338 0.45056 0.0
C373 C 0.14625 0.34714 0.46461 0.0
C374 C 0.13875 0.33784 0.47964 0.0
C375 C 0.14103 0.36722 0.43718 0.0
C376 C 0.15266 0.36222 0.42272 0.0
C377 C 0.13293 0.38476 0.43727 0.0
C378 C 0.12129 0.39097 0.45272 0.0
C379 C 0.12818 0.39093 0.47067 0.0
C380 C 0.11686 0.39571 0.48533 0.0
C381 C 0.09864 0.40065 0.4822 0.0
C382 C 0.09173 0.40089 0.46439 0.0
C383 C 0.10298 0.39611 0.44968 0.0
H384 H 0.08988 0.40428 0.49357 0.0
H385 H 0.19762 0.35308 0.35151 0.0
H386 H 0.67883 0.12423 0.47375 0.0
H387 H 0.66066 0.1312 0.44635 0.0
H388 H 0.61117 0.12875 0.47868 0.0
H389 H 0.62919 0.12063 0.50556 0.0
H390 H 0.60718 0.10867 0.45105 0.0
H391 H 0.63138 0.17007 0.45852 0.0
H392 H 0.65591 0.1931 0.4611 0.0
H393 H 0.67674 0.17748 0.40848 0.0
H394 H 0.65249 0.1542 0.40569 0.0
H395 H 0.54245 0.12959 0.38617 0.0
H396 H 0.5624 0.13545 0.4124 0.0
H397 H 0.60951 0.1357 0.37667 0.0
H398 H 0.58931 0.13118 0.35026 0.0
H399 H 0.61588 0.15748 0.4048 0.0
H400 H 0.59425 0.09571 0.39776 0.0
H401 H 0.5705 0.07205 0.39397 0.0
H402 H 0.54636 0.08745 0.44524 0.0
H403 H 0.56985 0.11135 0.44921 0.0
C404 C 0.66408 0.12543 0.47493 0.0
C405 C 0.65531 0.12173 0.49161 0.0
C406 C 0.65371 0.12955 0.45933 0.0
C407 C 0.63448 0.13061 0.4604 0.0
C408 C 0.62594 0.12789 0.4774 0.0
C409 C 0.63621 0.12325 0.49277 0.0
C410 C 0.62294 0.13251 0.44373 0.0
C411 C 0.60894 0.11961 0.44118 0.0
C412 C 0.62568 0.14621 0.43029 0.0
C413 C 0.64021 0.16027 0.43199 0.0
C414 C 0.64127 0.17145 0.44757 0.0
C415 C 0.65512 0.18457 0.44905 0.0
C416 C 0.6679 0.18672 0.43499 0.0
C417 C 0.66684 0.17579 0.41938 0.0
C418 C 0.65304 0.16264 0.41783 0.0
C419 C 0.55701 0.13144 0.38393 0.0
C420 C 0.56447 0.12977 0.36636 0.0
C421 C 0.56841 0.13469 0.39887 0.0
C422 C 0.58753 0.13538 0.39658 0.0
C423 C 0.59484 0.13508 0.37881 0.0
C424 C 0.58333 0.13245 0.36375 0.0
C425 C 0.59982 0.1341 0.41271 0.0
C426 C 0.61407 0.14679 0.41492 0.0
C427 C 0.59754 0.12009 0.42586 0.0
C428 C 0.58372 0.10538 0.42372 0.0
C429 C 0.58385 0.09406 0.4082 0.0
C430 C 0.57043 0.08062 0.40602 0.0
C431 C 0.55691 0.07827 0.41934 0.0
C432 C 0.55683 0.0893 0.43492 0.0
C433 C 0.5702 0.10277 0.43716 0.0
H434 H 0.54651 0.06788 0.41761 0.0
H435 H 0.67861 0.19687 0.43617 0.0
H436 H 0.85418 0.65627 0.48061 0.0
H437 H 0.84136 0.64163 0.45322 0.0
H438 H 0.89468 0.62018 0.43987 0.0
H439 H 0.90751 0.63431 0.46729 0.0
H440 H 0.85982 0.64539 0.41252 0.0
H441 H 0.88604 0.58728 0.44548 0.0
H442 H 0.88614 0.56977 0.47436 0.0
H443 H 0.82748 0.5735 0.47713 0.0
H444 H 0.82715 0.59135 0.44844 0.0
H445 H 0.8901 0.58754 0.34598 0.0
H446 H 0.88197 0.60639 0.37205 0.0
H447 H 0.83211 0.57556 0.37929 0.0
H448 H 0.84033 0.55644 0.35273 0.0
H449 H 0.85205 0.57803 0.41104 0.0
H450 H 0.82796 0.6199 0.3692 0.0
H451 H 0.82577 0.63777 0.34072 0.0
H452 H 0.87483 0.66684 0.35481 0.0
H453 H 0.87749 0.64898 0.38326 0.0
C454 C 0.86318 0.64846 0.4718 0.0
C455 C 0.88186 0.64636 0.47615 0.0
C456 C 0.85581 0.64009 0.45623 0.0
C457 C 0.86705 0.62966 0.44475 0.0
C458 C 0.88575 0.62793 0.4488 0.0
C459 C 0.89306 0.63603 0.46444 0.0
C460 C 0.85966 0.6206 0.42829 0.0
C461 C 0.85789 0.63071 0.41212 0.0
C462 C 0.85635 0.60162 0.42802 0.0
C463 C 0.85659 0.59072 0.44501 0.0
C464 C 0.8732 0.58444 0.45234 0.0
C465 C 0.8733 0.57448 0.46866 0.0
C466 C 0.85683 0.57056 0.4776 0.0
C467 C 0.84023 0.57659 0.47023 0.0
C468 C 0.84008 0.58666 0.45397 0.0
C469 C 0.87717 0.58504 0.35283 0.0
C470 C 0.86582 0.5706 0.34736 0.0
C471 C 0.87248 0.59589 0.3677 0.0
C472 C 0.85634 0.59253 0.37755 0.0
C473 C 0.84456 0.57847 0.37177 0.0
C474 C 0.84918 0.56766 0.35658 0.0
C475 C 0.85332 0.60267 0.39485 0.0
C476 C 0.85321 0.5928 0.41132 0.0
C477 C 0.85452 0.62198 0.39536 0.0
C478 C 0.85291 0.63307 0.37841 0.0
C479 C 0.83833 0.63006 0.36621 0.0
C480 C 0.837 0.64019 0.35006 0.0
C481 C 0.85015 0.65343 0.34596 0.0
C482 C 0.86463 0.6566 0.35802 0.0
C483 C 0.86603 0.6465 0.3742 0.0
H484 H 0.84912 0.66124 0.33343 0.0
H485 H 0.85693 0.56282 0.49021 0.0
H486 H 0.33029 0.84613 0.47767 0.0
H487 H 0.34453 0.83818 0.44817 0.0
H488 H 0.37339 0.88958 0.44826 0.0
H489 H 0.35939 0.89759 0.47719 0.0
H490 H 0.35799 0.88266 0.4153 0.0
H491 H 0.39386 0.84975 0.46174 0.0
H492 H 0.39758 0.82654 0.48594 0.0
H493 H 0.37983 0.78469 0.44887 0.0
H494 H 0.37579 0.80772 0.42452 0.0
H495 H 0.44397 0.88864 0.38026 0.0
H496 H 0.42063 0.88004 0.40233 0.0
H497 H 0.39986 0.83934 0.36523 0.0
H498 H 0.42335 0.84803 0.34263 0.0
H499 H 0.4038 0.8328 0.41059 0.0
H500 H 0.37388 0.86655 0.36216 0.0
H501 H 0.37281 0.89078 0.33874 0.0
H502 H 0.38033 0.93154 0.38023 0.0
H503 H 0.38175 0.90752 0.40386 0.0
C504 C 0.3396 0.85574 0.4713 0.0
C505 C 0.34375 0.87246 0.47986 0.0
C506 C 0.34775 0.85115 0.4545 0.0
C507 C 0.36004 0.86329 0.44603 0.0
C508 C 0.3639 0.88003 0.45447 0.0
C509 C 0.35592 0.88454 0.47114 0.0
C510 C 0.36942 0.85896 0.42854 0.0
C511 C 0.36775 0.87153 0.41415 0.0
C512 C 0.38186 0.84421 0.42678 0.0
C513 C 0.38428 0.83046 0.44142 0.0
C514 C 0.39059 0.83562 0.45882 0.0
C515 C 0.39279 0.8225 0.47254 0.0
C516 C 0.38888 0.80416 0.46897 0.0
C517 C 0.38281 0.79891 0.45164 0.0
C518 C 0.38056 0.81198 0.43788 0.0
C519 C 0.43467 0.87766 0.37678 0.0
C520 C 0.43537 0.86922 0.35952 0.0
C521 C 0.42139 0.8727 0.3895 0.0
C522 C 0.40851 0.85917 0.38534 0.0
C523 C 0.40977 0.8498 0.36866 0.0
C524 C 0.42316 0.8548 0.35578 0.0
C525 C 0.39272 0.85687 0.39782 0.0
C526 C 0.39333 0.84328 0.41133 0.0
C527 C 0.37925 0.87069 0.39884 0.0
C528 C 0.37799 0.88523 0.38475 0.0
C529 C 0.37541 0.88067 0.36627 0.0
C530 C 0.37473 0.89437 0.35296 0.0
C531 C 0.37652 0.91269 0.35799 0.0
C532 C 0.37894 0.91735 0.37635 0.0
C533 C 0.37965 0.9037 0.38971 0.0
H534 H 0.376 0.92327 0.34766 0.0
H535 H 0.3906 0.79403 0.47961 0.0
H536 H 0.09721 0.56244 0.61858 0.0
H537 H 0.10687 0.58009 0.59245 0.0
H538 H 0.16151 0.58398 0.61449 0.0
H539 H 0.15178 0.56609 0.64141 0.0
H540 H 0.14763 0.61751 0.60034 0.0
H541 H 0.15694 0.55764 0.57881 0.0
H542 H 0.1508 0.5249 0.57391 0.0
H543 H 0.10195 0.53817 0.54407 0.0
H544 H 0.1076 0.57097 0.54903 0.0
H545 H 0.15077 0.66066 0.50989 0.0
H546 H 0.15956 0.64164 0.53602 0.0
H547 H 0.10457 0.6203 0.53887 0.0
H548 H 0.09566 0.63909 0.51285 0.0
H549 H 0.1315 0.59341 0.53905 0.0
H550 H 0.11991 0.65302 0.56826 0.0
H551 H 0.12675 0.68563 0.5733 0.0
H552 H 0.18201 0.67209 0.58818 0.0
H553 H 0.17554 0.63942 0.583 0.0
C554 C 0.11134 0.56689 0.61804 0.0
C555 C 0.12375 0.56269 0.63214 0.0
C556 C 0.11686 0.57697 0.60296 0.0
C557 C 0.13497 0.58304 0.60135 0.0
C558 C 0.14749 0.57924 0.61544 0.0
C559 C 0.14193 0.56902 0.63075 0.0
C560 C 0.14005 0.59364 0.58488 0.0
C561 C 0.14468 0.61214 0.58683 0.0
C562 C 0.13632 0.58659 0.56727 0.0
C563 C 0.13275 0.56682 0.56426 0.0
C564 C 0.14483 0.55359 0.57129 0.0
C565 C 0.14144 0.53501 0.56849 0.0
C566 C 0.12603 0.52947 0.55864 0.0
C567 C 0.11392 0.54249 0.55164 0.0
C568 C 0.11724 0.56109 0.55441 0.0
C569 C 0.14052 0.65195 0.51611 0.0
C570 C 0.1225 0.65133 0.50919 0.0
C571 C 0.14559 0.64114 0.53106 0.0
C572 C 0.13273 0.62956 0.53932 0.0
C573 C 0.11473 0.62909 0.53259 0.0
C574 C 0.10964 0.63989 0.51773 0.0
C575 C 0.13775 0.61744 0.55473 0.0
C576 C 0.13511 0.59863 0.55245 0.0
C577 C 0.14353 0.6242 0.57191 0.0
C578 C 0.14731 0.64383 0.575 0.0
C579 C 0.13356 0.65702 0.57244 0.0
C580 C 0.13736 0.67551 0.57536 0.0
C581 C 0.15482 0.68094 0.58099 0.0
C582 C 0.1685 0.66788 0.58377 0.0
C583 C 0.16477 0.64938 0.58085 0.0
H584 H 0.15773 0.69525 0.58325 0.0
H585 H 0.12348 0.5151 0.55637 0.0
H586 H 0.33536 0.10593 0.5292 0.0
H587 H 0.35072 0.11626 0.55715 0.0
H588 H 0.3692 0.16474 0.52915 0.0
H589 H 0.35313 0.15473 0.50129 0.0
H590 H 0.39739 0.13989 0.54609 0.0
H591 H 0.34455 0.17452 0.56047 0.0
H592 H 0.31168 0.18107 0.56448 0.0
H593 H 0.30814 0.13974 0.60602 0.0
H594 H 0.34093 0.13271 0.60205 0.0
H595 H 0.44532 0.15325 0.63083 0.0
H596 H 0.42528 0.16288 0.60546 0.0
H597 H 0.38926 0.11754 0.61676 0.0
H598 H 0.40939 0.10769 0.64154 0.0
H599 H 0.37054 0.15061 0.60749 0.0
H600 H 0.41986 0.11091 0.58687 0.0
H601 H 0.4523 0.10242 0.58282 0.0
H602 H 0.46185 0.1519 0.55273 0.0
H603 H 0.42947 0.16081 0.55687 0.0
C604 C 0.34224 0.11904 0.52923 0.0
C605 C 0.343 0.12966 0.51329 0.0
C606 C 0.35098 0.12493 0.54514 0.0
C607 C 0.36101 0.14128 0.54518 0.0
C608 C 0.36139 0.15217 0.52938 0.0
C609 C 0.35219 0.1465 0.51357 0.0
C610 C 0.37268 0.14559 0.56113 0.0
C611 C 0.39162 0.14286 0.55944 0.0
C612 C 0.36503 0.14904 0.57854 0.0
C613 C 0.34521 0.153 0.58085 0.0
C614 C 0.33673 0.16668 0.57032 0.0
C615 C 0.31811 0.17051 0.57262 0.0
C616 C 0.30782 0.16081 0.58547 0.0
C617 C 0.31613 0.14725 0.59606 0.0
C618 C 0.33475 0.14335 0.5938 0.0
C619 C 0.43288 0.14568 0.6281 0.0
C620 C 0.42881 0.12976 0.63801 0.0
C621 C 0.4215 0.15113 0.61364 0.0
C622 C 0.40581 0.1409 0.60928 0.0
C623 C 0.40122 0.12568 0.61998 0.0
C624 C 0.41274 0.12003 0.63406 0.0
C625 C 0.39514 0.14449 0.59245 0.0
C626 C 0.37639 0.14844 0.59403 0.0
C627 C 0.40291 0.14197 0.57492 0.0
C628 C 0.42235 0.13667 0.57245 0.0
C629 C 0.42893 0.12008 0.57957 0.0
C630 C 0.44729 0.11516 0.57722 0.0
C631 C 0.45915 0.12665 0.56759 0.0
C632 C 0.45266 0.14305 0.56024 0.0
C633 C 0.43431 0.14804 0.56259 0.0
H634 H 0.47336 0.12283 0.56578 0.0
H635 H 0.29341 0.16382 0.58725 0.0
H636 H 0.87071 0.40435 0.65278 0.0
H637 H 0.86528 0.38365 0.62712 0.0
H638 H 0.8365 0.4264 0.59851 0.0
H639 H 0.8422 0.4473 0.6242 0.0
H640 H 0.82611 0.38105 0.59487 0.0
H641 H 0.87129 0.4311 0.58512 0.0
H642 H 0.89649 0.45033 0.59671 0.0
H643 H 0.92791 0.40233 0.60921 0.0
H644 H 0.9027 0.38283 0.59801 0.0
H645 H 0.84716 0.34981 0.50395 0.0
H646 H 0.83848 0.36641 0.53168 0.0
H647 H 0.88943 0.35029 0.55702 0.0
H648 H 0.89857 0.33481 0.52891 0.0
H649 H 0.88565 0.38356 0.56217 0.0
H650 H 0.84387 0.33313 0.569 0.0
H651 H 0.81913 0.31207 0.55991 0.0
H652 H 0.78187 0.35719 0.555 0.0
H653 H 0.80645 0.37855 0.56382 0.0
C654 C 0.86241 0.40901 0.64141 0.0
C655 C 0.85665 0.42724 0.64044 0.0
C656 C 0.85932 0.3972 0.62679 0.0
C657 C 0.85047 0.40353 0.611 0.0
C658 C 0.84313 0.42124 0.61072 0.0
C659 C 0.84636 0.43314 0.62535 0.0
C660 C 0.85286 0.39326 0.5938 0.0
C661 C 0.83896 0.3817 0.58746 0.0
C662 C 0.86982 0.39384 0.58455 0.0
C663 C 0.88507 0.40555 0.59094 0.0
C664 C 0.88351 0.42467 0.5905 0.0
C665 C 0.8978 0.43561 0.59697 0.0
C666 C 0.91377 0.42755 0.60375 0.0
C667 C 0.91551 0.40855 0.604 0.0
C668 C 0.90124 0.39755 0.5976 0.0
C669 C 0.8564 0.34976 0.51554 0.0
C670 C 0.87362 0.34126 0.51429 0.0
C671 C 0.85137 0.35911 0.53145 0.0
C672 C 0.86321 0.35956 0.54659 0.0
C673 C 0.88009 0.35033 0.54551 0.0
C674 C 0.88533 0.34148 0.52946 0.0
C675 C 0.85896 0.37084 0.56298 0.0
C676 C 0.87263 0.38276 0.56929 0.0
C677 C 0.84184 0.3703 0.57221 0.0
C678 C 0.82706 0.35746 0.56688 0.0
C679 C 0.83044 0.33858 0.56583 0.0
C680 C 0.81644 0.32658 0.56076 0.0
C681 C 0.79896 0.33329 0.55683 0.0
C682 C 0.79543 0.35201 0.55802 0.0
C683 C 0.80939 0.36407 0.56307 0.0
H684 H 0.78814 0.32399 0.55291 0.0
H685 H 0.92482 0.43604 0.60875 0.0
H686 H 0.58263 0.84772 0.64806 0.0
H687 H 0.60434 0.83929 0.62375 0.0
H688 H 0.56798 0.86246 0.58345 0.0
H689 H 0.54655 0.87109 0.60755 0.0
H690 H 0.58635 0.831 0.57086 0.0
H691 H 0.5987 0.88914 0.60174 0.0
H692 H 0.60552 0.9076 0.62909 0.0
H693 H 0.65392 0.87572 0.63893 0.0
H694 H 0.64721 0.85692 0.61173 0.0
H695 H 0.62614 0.88338 0.50174 0.0
H696 H 0.61088 0.87235 0.52936 0.0
H697 H 0.66097 0.84663 0.54702 0.0
H698 H 0.67634 0.85728 0.51907 0.0
H699 H 0.64146 0.87061 0.57388 0.0
H700 H 0.63255 0.81839 0.53682 0.0
H701 H 0.62525 0.80155 0.5086 0.0
H702 H 0.57039 0.82269 0.50975 0.0
H703 H 0.57744 0.83987 0.53787 0.0
C704 C 0.57907 0.85046 0.63395 0.0
C705 C 0.56306 0.86019 0.62962 0.0
C706 C 0.59147 0.8457 0.62012 0.0
C707 C 0.5878 0.8504 0.60185 0.0
C708 C 0.57105 0.85867 0.59745 0.0
C709 C 0.55887 0.86369 0.61122 0.0
C710 C 0.60213 0.84936 0.58757 0.0
C711 C 0.59852 0.83946 0.57156 0.0
C712 C 0.61821 0.86012 0.58867 0.0
C713 C 0.62234 0.8715 0.60488 0.0
C714 C 0.61072 0.886 0.60982 0.0
C715 C 0.61457 0.89653 0.62528 0.0
C716 C 0.63011 0.8928 0.63578 0.0
C717 C 0.64186 0.87856 0.63081 0.0
C718 C 0.63804 0.86796 0.61538 0.0
C719 C 0.63392 0.87536 0.51146 0.0
C720 C 0.65244 0.87122 0.50826 0.0
C721 C 0.62517 0.86898 0.52717 0.0
C722 C 0.6348 0.85859 0.5401 0.0
C723 C 0.65333 0.85456 0.53711 0.0
C724 C 0.66204 0.86063 0.52116 0.0
C725 C 0.62534 0.8527 0.55698 0.0
C726 C 0.62977 0.86147 0.57342 0.0
C727 C 0.61001 0.84093 0.55624 0.0
C728 C 0.60557 0.8305 0.53942 0.0
C729 C 0.61897 0.81955 0.531 0.0
C730 C 0.61486 0.80992 0.51503 0.0
C731 C 0.59737 0.81107 0.50737 0.0
C732 C 0.58393 0.82181 0.51571 0.0
C733 C 0.58796 0.83147 0.53169 0.0
H734 H 0.59423 0.80362 0.49499 0.0
H735 H 0.63308 0.90096 0.64774 0.0
H736 H 0.34148 0.14271 0.40694 0.0
H737 H 0.365 0.14981 0.38392 0.0
H738 H 0.4071 0.14287 0.42463 0.0
H739 H 0.38378 0.13505 0.44741 0.0
H740 H 0.40478 0.17539 0.38662 0.0
H741 H 0.41587 0.11 0.41254 0.0
H742 H 0.40145 0.08127 0.42288 0.0
H743 H 0.36763 0.0807 0.37485 0.0
H744 H 0.38172 0.10959 0.36443 0.0
H745 H 0.49403 0.1513 0.35604 0.0
H746 H 0.46471 0.15996 0.36984 0.0
H747 H 0.4365 0.12381 0.33267 0.0
H748 H 0.46596 0.11457 0.31955 0.0
H749 H 0.42765 0.11535 0.36493 0.0
H750 H 0.42929 0.17186 0.33338 0.0
H751 H 0.44203 0.20084 0.32184 0.0
H752 H 0.4488 0.22008 0.37685 0.0
H753 H 0.43636 0.19111 0.38876 0.0
C754 C 0.35571 0.14338 0.41108 0.0
C755 C 0.36092 0.13833 0.42886 0.0
C756 C 0.36909 0.14744 0.39796 0.0
C757 C 0.38771 0.14688 0.40266 0.0
C758 C 0.39277 0.14347 0.42083 0.0
C759 C 0.37948 0.13898 0.43378 0.0
C760 C 0.4019 0.14622 0.3883 0.0
C761 C 0.40988 0.16236 0.38176 0.0
C762 C 0.40805 0.12923 0.38166 0.0
C763 C 0.39971 0.1119 0.38781 0.0
C764 C 0.40531 0.10374 0.40426 0.0
C765 C 0.39719 0.08746 0.41013 0.0
C766 C 0.3836 0.07918 0.39954 0.0
C767 C 0.37812 0.08715 0.38306 0.0
C768 C 0.38613 0.10348 0.37719 0.0
C769 C 0.48146 0.14572 0.35048 0.0
C770 C 0.48207 0.13237 0.33677 0.0
C771 C 0.4647 0.15071 0.35829 0.0
C772 C 0.4483 0.14259 0.35229 0.0
C773 C 0.44892 0.13023 0.33759 0.0
C774 C 0.4657 0.12502 0.33004 0.0
C775 C 0.43119 0.14462 0.36315 0.0
C776 C 0.42256 0.12858 0.36925 0.0
C777 C 0.42441 0.16179 0.36906 0.0
C778 C 0.43199 0.17923 0.36197 0.0
C779 C 0.43363 0.1822 0.34304 0.0
C780 C 0.44078 0.19865 0.33642 0.0
C781 C 0.44624 0.21228 0.3486 0.0
C782 C 0.44456 0.2095 0.36743 0.0
C783 C 0.43744 0.19308 0.37412 0.0
H784 H 0.45176 0.225 0.34345 0.0
H785 H 0.37735 0.06656 0.40409 0.0
H786 H 0.84848 0.35452 0.42554 0.0
H787 H 0.84223 0.38134 0.4065 0.0
H788 H 0.89834 0.39872 0.41269 0.0
H789 H 0.90464 0.37226 0.43185 0.0
H790 H 0.87459 0.42672 0.41757 0.0
H791 H 0.8825 0.37644 0.37362 0.0
H792 H 0.87355 0.34653 0.36094 0.0
H793 H 0.81919 0.36663 0.35096 0.0
H794 H 0.8278 0.39661 0.36376 0.0
H795 H 0.90575 0.48156 0.34884 0.0
H796 H 0.89876 0.45516 0.36767 0.0
H797 H 0.84249 0.45677 0.34984 0.0
H798 H 0.84945 0.48347 0.33056 0.0
H799 H 0.85702 0.42078 0.3523 0.0
H800 H 0.85022 0.47241 0.39039 0.0
H801 H 0.85801 0.50244 0.40346 0.0
H802 H 0.90771 0.48029 0.42567 0.0
H803 H 0.90036 0.45018 0.4125 0.0
C804 C 0.8595 0.36405 0.42284 0.0
C805 C 0.8771 0.36118 0.4302 0.0
C806 C 0.85589 0.37935 0.41193 0.0
C807 C 0.86985 0.39197 0.40809 0.0
C808 C 0.88735 0.38919 0.41552 0.0
C809 C 0.89095 0.37398 0.42643 0.0
C810 C 0.86662 0.40811 0.39625 0.0
C811 C 0.87075 0.42542 0.4033 0.0
C812 C 0.86072 0.40653 0.37787 0.0
C813 C 0.85574 0.38868 0.36977 0.0
C814 C 0.86863 0.37445 0.36877 0.0
C815 C 0.86362 0.35749 0.36157 0.0
C816 C 0.8458 0.35467 0.35519 0.0
C817 C 0.83298 0.36883 0.35592 0.0
C818 C 0.83792 0.38581 0.36313 0.0
C819 C 0.89186 0.47636 0.3488 0.0
C820 C 0.87809 0.48484 0.33837 0.0
C821 C 0.88789 0.46122 0.3596 0.0
C822 C 0.87004 0.45424 0.36044 0.0
C823 C 0.85634 0.46206 0.34946 0.0
C824 C 0.86034 0.4773 0.33849 0.0
C825 C 0.86603 0.43919 0.37343 0.0
C826 C 0.86043 0.42215 0.36666 0.0
C827 C 0.87034 0.44101 0.3922 0.0
C828 C 0.87476 0.45904 0.40038 0.0
C829 C 0.86286 0.47396 0.39797 0.0
C830 C 0.86719 0.491 0.40541 0.0
C831 C 0.88335 0.49328 0.41538 0.0
C832 C 0.89519 0.4785 0.41796 0.0
C833 C 0.89093 0.46143 0.41054 0.0
H834 H 0.88668 0.50648 0.42111 0.0
H835 H 0.84194 0.34152 0.34965 0.0
H836 H 0.53153 0.90117 0.34841 0.0
H837 H 0.55882 0.88793 0.36262 0.0
H838 H 0.53912 0.83379 0.35051 0.0
H839 H 0.51197 0.84696 0.33564 0.0
H840 H 0.55302 0.85198 0.393 0.0
H841 H 0.56821 0.82929 0.33235 0.0
H842 H 0.57093 0.83215 0.29886 0.0
H843 H 0.60695 0.87804 0.30537 0.0
H844 H 0.60417 0.87563 0.33891 0.0
H845 H 0.63956 0.83628 0.43618 0.0
H846 H 0.61421 0.82733 0.41576 0.0
H847 H 0.62322 0.87598 0.3836 0.0
H848 H 0.64821 0.88474 0.4037 0.0
H849 H 0.61333 0.84833 0.36192 0.0
H850 H 0.59331 0.87535 0.42031 0.0
H851 H 0.59041 0.87535 0.45393 0.0
H852 H 0.56352 0.82323 0.45197 0.0
H853 H 0.56644 0.82286 0.41833 0.0
C854 C 0.53309 0.88646 0.34858 0.0
C855 C 0.51964 0.87511 0.34087 0.0
C856 C 0.54866 0.87892 0.35669 0.0
C857 C 0.55096 0.85992 0.35751 0.0
C858 C 0.53764 0.8485 0.34982 0.0
C859 C 0.52219 0.85605 0.34132 0.0
C860 C 0.5671 0.85244 0.36714 0.0
C861 C 0.56615 0.85052 0.38619 0.0
C862 C 0.58417 0.85081 0.35823 0.0
C863 C 0.58578 0.85242 0.33811 0.0
C864 C 0.5765 0.84014 0.32663 0.0
C865 C 0.57811 0.84164 0.30764 0.0
C866 C 0.58906 0.85531 0.29999 0.0
C867 C 0.59845 0.86748 0.31131 0.0
C868 C 0.59686 0.86605 0.33031 0.0
C869 C 0.63643 0.84464 0.42436 0.0
C870 C 0.64571 0.86119 0.42145 0.0
C871 C 0.62192 0.83962 0.4128 0.0
C872 C 0.6167 0.85109 0.39824 0.0
C873 C 0.62699 0.86686 0.39466 0.0
C874 C 0.64124 0.87191 0.40619 0.0
C875 C 0.59941 0.84839 0.38791 0.0
C876 C 0.60012 0.84873 0.36872 0.0
C877 C 0.58212 0.84868 0.39672 0.0
C878 C 0.58032 0.84896 0.41688 0.0
C879 C 0.58689 0.86384 0.42708 0.0
C880 C 0.58523 0.86392 0.44612 0.0
C881 C 0.57685 0.84926 0.45509 0.0
C882 C 0.57005 0.83454 0.44502 0.0
C883 C 0.57171 0.83439 0.42597 0.0
H884 H 0.57559 0.84934 0.46984 0.0
H885 H 0.5903 0.85643 0.28528 0.0
H886 H 0.14985 0.63817 0.43041 0.0
H887 H 0.15427 0.61023 0.41241 0.0
H888 H 0.09729 0.61154 0.39673 0.0
H889 H 0.09271 0.63892 0.41502 0.0
H890 H 0.10634 0.57927 0.41026 0.0
H891 H 0.13422 0.62231 0.36691 0.0
H892 H 0.15731 0.64547 0.35858 0.0
H893 H 0.20045 0.60751 0.37078 0.0
H894 H 0.1776 0.58419 0.37938 0.0
H895 H 0.08904 0.51886 0.342 0.0
H896 H 0.09567 0.54792 0.35687 0.0
H897 H 0.15192 0.53149 0.36452 0.0
H898 H 0.14547 0.50254 0.34861 0.0
H899 H 0.14906 0.56875 0.35852 0.0
H900 H 0.12262 0.52509 0.39897 0.0
H901 H 0.10056 0.50123 0.40806 0.0
H902 H 0.05638 0.53969 0.40351 0.0
H903 H 0.07814 0.56372 0.39415 0.0
C904 C 0.13836 0.63261 0.42287 0.0
C905 C 0.12089 0.64062 0.42422 0.0
C906 C 0.14092 0.61668 0.41258 0.0
C907 C 0.1261 0.60878 0.40323 0.0
C908 C 0.10889 0.6173 0.40394 0.0
C909 C 0.10628 0.63297 0.41439 0.0
C910 C 0.12778 0.59097 0.39373 0.0
C911 C 0.11561 0.57707 0.39887 0.0
C912 C 0.14056 0.58768 0.37952 0.0
C913 C 0.15421 0.60158 0.37393 0.0
C914 C 0.14863 0.61894 0.36789 0.0
C915 C 0.16167 0.63209 0.36312 0.0
C916 C 0.18034 0.62798 0.36419 0.0
C917 C 0.186 0.61068 0.36997 0.0
C918 C 0.17301 0.59749 0.37477 0.0
C919 C 0.10288 0.52157 0.34661 0.0
C920 C 0.11668 0.50843 0.3445 0.0
C921 C 0.10667 0.53815 0.35508 0.0
C922 C 0.12416 0.54165 0.36226 0.0
C923 C 0.13831 0.52901 0.35919 0.0
C924 C 0.1346 0.51249 0.35021 0.0
C925 C 0.12679 0.55765 0.37439 0.0
C926 C 0.13992 0.57098 0.37 0.0
C927 C 0.11508 0.56043 0.38956 0.0
C928 C 0.10201 0.54618 0.39582 0.0
C929 C 0.10819 0.52844 0.39989 0.0
C930 C 0.09574 0.51489 0.40507 0.0
C931 C 0.07708 0.51894 0.40635 0.0
C932 C 0.07084 0.53658 0.40253 0.0
C933 C 0.08323 0.55018 0.39732 0.0
H934 H 0.06746 0.50842 0.41032 0.0
H935 H 0.19042 0.63819 0.36052 0.0
H936 H 0.33756 0.86041 0.58921 0.0
H937 H 0.36216 0.85499 0.61136 0.0
H938 H 0.39931 0.84248 0.56729 0.0
H939 H 0.37486 0.84844 0.5451 0.0
H940 H 0.40453 0.82282 0.60573 0.0
H941 H 0.40035 0.88188 0.57326 0.0
H942 H 0.38224 0.90823 0.56249 0.0
H943 H 0.36577 0.91976 0.61766 0.0
H944 H 0.38352 0.89322 0.62868 0.0
H945 H 0.49297 0.85404 0.63069 0.0
H946 H 0.46385 0.84479 0.6169 0.0
H947 H 0.43484 0.88002 0.65439 0.0
H948 H 0.46416 0.88983 0.66757 0.0
H949 H 0.42288 0.88591 0.62249 0.0
H950 H 0.43269 0.83129 0.65612 0.0
H951 H 0.44934 0.80434 0.66764 0.0
H952 H 0.45403 0.78352 0.61298 0.0
H953 H 0.43763 0.81048 0.60109 0.0
C954 C 0.35071 0.85553 0.58436 0.0
C955 C 0.35438 0.85463 0.56556 0.0
C956 C 0.36475 0.8525 0.59699 0.0
C957 C 0.38251 0.84838 0.59091 0.0
C958 C 0.38563 0.84544 0.57222 0.0
C959 C 0.37168 0.84882 0.55957 0.0
C960 C 0.39831 0.8514 0.60319 0.0
C961 C 0.40868 0.83655 0.60943 0.0
C962 C 0.40334 0.86931 0.60828 0.0
C963 C 0.39305 0.88548 0.60174 0.0
C964 C 0.39274 0.88996 0.58306 0.0
C965 C 0.38256 0.90492 0.57691 0.0
C966 C 0.37282 0.91563 0.58938 0.0
C967 C 0.37329 0.91143 0.60802 0.0
C968 C 0.3834 0.89643 0.61422 0.0
C969 C 0.4803 0.85956 0.63608 0.0
C970 C 0.48061 0.87255 0.65013 0.0
C971 C 0.46366 0.85417 0.62833 0.0
C972 C 0.44704 0.86147 0.63476 0.0
C973 C 0.44743 0.87414 0.64921 0.0
C974 C 0.46411 0.87972 0.65676 0.0
C975 C 0.42952 0.8573 0.62522 0.0
C976 C 0.41877 0.87205 0.61926 0.0
C977 C 0.42413 0.83924 0.62062 0.0
C978 C 0.43404 0.823 0.62769 0.0
C979 C 0.4374 0.82104 0.64653 0.0
C980 C 0.44677 0.80575 0.65313 0.0
C981 C 0.45277 0.79225 0.64104 0.0
C982 C 0.44938 0.794 0.62233 0.0
C983 C 0.44003 0.80927 0.61565 0.0
H984 H 0.46002 0.78041 0.64618 0.0
H985 H 0.36494 0.92722 0.5846 0.0
H986 H 0.14143 0.48169 0.65944 0.0
H987 H 0.1507 0.45458 0.64217 0.0
H988 H 0.09493 0.44705 0.6243 0.0
H989 H 0.08562 0.47425 0.64112 0.0
H990 H 0.14232 0.41874 0.64135 0.0
H991 H 0.09364 0.43669 0.58066 0.0
H992 H 0.08094 0.46448 0.56637 0.0
H993 H 0.12653 0.49575 0.58621 0.0
H994 H 0.13966 0.46813 0.60029 0.0
H995 H 0.1167 0.34243 0.58937 0.0
H996 H 0.12324 0.36873 0.60877 0.0
H997 H 0.14638 0.39713 0.5624 0.0
H998 H 0.13881 0.37102 0.54283 0.0
H999 H 0.12364 0.41788 0.57616 0.0
H1000 H 0.17212 0.3855 0.60288 0.0
H1001 H 0.18899 0.35982 0.61671 0.0
H1002 H 0.15233 0.36012 0.66263 0.0
H1003 H 0.13506 0.38563 0.64895 0.0
C1004 C 0.13109 0.47416 0.65198 0.0
C1005 C 0.1128 0.4803 0.65148 0.0
C1006 C 0.13643 0.45863 0.64215 0.0
C1007 C 0.12359 0.44897 0.63168 0.0
C1008 C 0.10516 0.45451 0.63198 0.0
C1009 C 0.09984 0.47007 0.64165 0.0
C1010 C 0.12936 0.43371 0.61958 0.0
C1011 C 0.13834 0.41849 0.62707 0.0
C1012 C 0.12506 0.43381 0.60073 0.0
C1013 C 0.11756 0.45034 0.59163 0.0
C1014 C 0.10103 0.44946 0.58182 0.0
C1015 C 0.09375 0.4652 0.57378 0.0
C1016 C 0.1029 0.48188 0.57539 0.0
C1017 C 0.11943 0.48284 0.58496 0.0
C1018 C 0.1268 0.46715 0.59298 0.0
C1019 C 0.12384 0.35404 0.58354 0.0
C1020 C 0.12753 0.3547 0.56475 0.0
C1021 C 0.12763 0.3691 0.59464 0.0
C1022 C 0.13544 0.38502 0.58717 0.0
C1023 C 0.14032 0.38509 0.56855 0.0
C1024 C 0.1362 0.37013 0.55739 0.0
C1025 C 0.13582 0.40225 0.59806 0.0
C1026 C 0.12798 0.41801 0.59033 0.0
C1027 C 0.14191 0.40284 0.61647 0.0
C1028 C 0.15222 0.38745 0.62481 0.0
C1029 C 0.16756 0.38002 0.61586 0.0
C1030 C 0.17722 0.36549 0.62369 0.0
C1031 C 0.17172 0.35833 0.64053 0.0
C1032 C 0.15658 0.36569 0.64958 0.0
C1033 C 0.14686 0.38021 0.64181 0.0
H1034 H 0.17921 0.34708 0.64656 0.0
H1035 H 0.09718 0.49406 0.56923 0.0
H1036 H 0.5152 0.14519 0.65955 0.0
H1037 H 0.54321 0.15511 0.64411 0.0
H1038 H 0.54836 0.10198 0.61921 0.0
H1039 H 0.52017 0.09211 0.63417 0.0
H1040 H 0.57778 0.14442 0.64526 0.0
H1041 H 0.56468 0.10426 0.57824 0.0
H1042 H 0.53821 0.0944 0.55974 0.0
H1043 H 0.50666 0.13961 0.5799 0.0
H1044 H 0.53298 0.14981 0.59841 0.0
H1045 H 0.65561 0.11537 0.59777 0.0
H1046 H 0.62785 0.12239 0.61494 0.0
H1047 H 0.61064 0.15924 0.57219 0.0
H1048 H 0.63869 0.15213 0.55494 0.0
H1049 H 0.58517 0.1341 0.57862 0.0
H1050 H 0.61775 0.17567 0.61524 0.0
H1051 H 0.64336 0.18745 0.63372 0.0
H1052 H 0.6348 0.14496 0.67329 0.0
H1053 H 0.60929 0.13273 0.65492 0.0
C1054 C 0.52228 0.1356 0.65077 0.0
C1055 C 0.51533 0.11787 0.64799 0.0
C1056 C 0.53832 0.14131 0.64198 0.0
C1057 C 0.54775 0.12942 0.63025 0.0
C1058 C 0.54109 0.11157 0.62784 0.0
C1059 C 0.52499 0.10591 0.63647 0.0
C1060 C 0.56457 0.13549 0.6205 0.0
C1061 C 0.57937 0.14232 0.63067 0.0
C1062 C 0.56645 0.13344 0.60136 0.0
C1063 C 0.55079 0.12777 0.58973 0.0
C1064 C 0.55215 0.11219 0.57859 0.0
C1065 C 0.53715 0.1065 0.56816 0.0
C1066 C 0.52076 0.11636 0.56866 0.0
C1067 C 0.51935 0.13197 0.57955 0.0
C1068 C 0.53429 0.13769 0.59003 0.0
C1069 C 0.64631 0.12562 0.59248 0.0
C1070 C 0.64937 0.13347 0.57525 0.0
C1071 C 0.6304 0.1296 0.60226 0.0
C1072 C 0.61714 0.14139 0.5949 0.0
C1073 C 0.62073 0.15017 0.57817 0.0
C1074 C 0.63682 0.1463 0.56843 0.0
C1075 C 0.5987 0.14224 0.60351 0.0
C1076 C 0.58352 0.13664 0.59314 0.0
C1077 C 0.59639 0.14588 0.62238 0.0
C1078 C 0.61162 0.15324 0.63364 0.0
C1079 C 0.62138 0.16876 0.62783 0.0
C1080 C 0.63588 0.17553 0.63829 0.0
C1081 C 0.64071 0.16695 0.65466 0.0
C1082 C 0.63103 0.1516 0.66061 0.0
C1083 C 0.61651 0.14476 0.65019 0.0
H1084 H 0.65196 0.1722 0.66273 0.0
H1085 H 0.50916 0.11192 0.5606 0.0
H1086 H 0.84139 0.5081 0.65148 0.0
H1087 H 0.83287 0.53647 0.63536 0.0
H1088 H 0.88967 0.55253 0.63391 0.0
H1089 H 0.89826 0.5241 0.64923 0.0
H1090 H 0.85992 0.58117 0.64511 0.0
H1091 H 0.87931 0.53568 0.59868 0.0
H1092 H 0.876 0.5057 0.58367 0.0
H1093 H 0.81955 0.51746 0.57204 0.0
H1094 H 0.82251 0.54743 0.58723 0.0
H1095 H 0.89976 0.63372 0.57837 0.0
H1096 H 0.88833 0.61118 0.60001 0.0
H1097 H 0.83564 0.61183 0.57336 0.0
H1098 H 0.84709 0.63502 0.55159 0.0
H1099 H 0.85102 0.57627 0.57802 0.0
H1100 H 0.8354 0.62607 0.61489 0.0
H1101 H 0.83821 0.65611 0.62977 0.0
H1102 H 0.88483 0.63711 0.66008 0.0
H1103 H 0.88251 0.60702 0.64517 0.0
C1104 C 0.85197 0.51784 0.6479 0.0
C1105 C 0.87048 0.51394 0.65152 0.0
C1106 C 0.8471 0.53397 0.63871 0.0
C1107 C 0.86066 0.54656 0.63352 0.0
C1108 C 0.87902 0.54301 0.63789 0.0
C1109 C 0.88391 0.52675 0.64656 0.0
C1110 C 0.85628 0.5629 0.62241 0.0
C1111 C 0.85777 0.58019 0.63047 0.0
C1112 C 0.85279 0.56154 0.60346 0.0
C1113 C 0.85105 0.54363 0.59429 0.0
C1114 C 0.86615 0.53178 0.59308 0.0
C1115 C 0.86435 0.51482 0.58451 0.0
C1116 C 0.84755 0.50965 0.57697 0.0
C1117 C 0.83254 0.52146 0.57794 0.0
C1118 C 0.83427 0.53843 0.58652 0.0
C1119 C 0.88564 0.6293 0.57726 0.0
C1120 C 0.87431 0.63606 0.5633 0.0
C1121 C 0.87908 0.61649 0.58971 0.0
C1122 C 0.86109 0.60991 0.5884 0.0
C1123 C 0.84953 0.61684 0.57467 0.0
C1124 C 0.85603 0.63008 0.56233 0.0
C1125 C 0.85547 0.59467 0.60058 0.0
C1126 C 0.85229 0.57746 0.59275 0.0
C1127 C 0.85718 0.59616 0.6198 0.0
C1128 C 0.85879 0.61425 0.62884 0.0
C1129 C 0.84635 0.62832 0.62462 0.0
C1130 C 0.84784 0.64536 0.63308 0.0
C1131 C 0.86169 0.64852 0.64585 0.0
C1132 C 0.87409 0.63463 0.65019 0.0
C1133 C 0.87267 0.61756 0.64176 0.0
H1134 H 0.86282 0.66172 0.6524 0.0
H1135 H 0.84619 0.49651 0.57033 0.0
H1136 H 0.37794 0.49351 0.12642 0.0
H1137 H 0.39326 0.46527 0.13552 0.0
H1138 H 0.34135 0.43702 0.13502 0.0
H1139 H 0.32581 0.46577 0.12711 0.0
H1140 H 0.36197 0.42277 0.16067 0.0
H1141 H 0.37094 0.43632 0.09745 0.0
H1142 H 0.37916 0.45541 0.07089 0.0
H1143 H 0.43429 0.46001 0.09083 0.0
H1144 H 0.42632 0.44113 0.11764 0.0
H1145 H 0.40266 0.33584 0.13518 0.0
H1146 H 0.38463 0.36354 0.14096 0.0
H1147 H 0.43458 0.3942 0.14815 0.0
H1148 H 0.4525 0.36662 0.14206 0.0
H1149 H 0.41395 0.40658 0.1201 0.0
H1150 H 0.40347 0.38968 0.18311 0.0
H1151 H 0.39345 0.36898 0.20777 0.0
H1152 H 0.33909 0.36802 0.18541 0.0
H1153 H 0.34884 0.38854 0.16047 0.0
C1154 C 0.3698 0.48131 0.12851 0.0
C1155 C 0.3508 0.48164 0.12585 0.0
C1156 C 0.37854 0.46517 0.13365 0.0
C1157 C 0.36855 0.44885 0.1354 0.0
C1158 C 0.34937 0.44939 0.13363 0.0
C1159 C 0.34052 0.46575 0.12905 0.0
C1160 C 0.37835 0.43118 0.13762 0.0
C1161 C 0.37325 0.41915 0.15172 0.0
C1162 C 0.39305 0.42637 0.12592 0.0
C1163 C 0.39799 0.43743 0.10962 0.0
C1164 C 0.3848 0.44146 0.0962 0.0
C1165 C 0.38941 0.45225 0.08111 0.0
C1166 C 0.40723 0.45895 0.07919 0.0
C1167 C 0.42049 0.45482 0.09233 0.0
C1168 C 0.41594 0.44406 0.10747 0.0
C1169 C 0.40968 0.34832 0.13891 0.0
C1170 C 0.42888 0.34917 0.13846 0.0
C1171 C 0.39941 0.36415 0.14214 0.0
C1172 C 0.40827 0.38096 0.14494 0.0
C1173 C 0.42747 0.38138 0.14604 0.0
C1174 C 0.43769 0.36563 0.14272 0.0
C1175 C 0.39797 0.39837 0.14347 0.0
C1176 C 0.40283 0.41028 0.12923 0.0
C1177 C 0.38283 0.40272 0.15474 0.0
C1178 C 0.37693 0.39054 0.16984 0.0
C1179 C 0.38941 0.38495 0.18337 0.0
C1180 C 0.38377 0.37327 0.19742 0.0
C1181 C 0.36565 0.36715 0.19813 0.0
C1182 C 0.35312 0.37276 0.18484 0.0
C1183 C 0.35869 0.38444 0.17076 0.0
H1184 H 0.36132 0.3581 0.20901 0.0
H1185 H 0.41077 0.46732 0.06751 0.0
H1186 H 0.44539 0.61282 0.88413 0.0
H1187 H 0.42617 0.5874 0.87528 0.0
H1188 H 0.39645 0.62227 0.83806 0.0
H1189 H 0.41578 0.64829 0.84728 0.0
H1190 H 0.37359 0.60357 0.86021 0.0
H1191 H 0.42189 0.58673 0.82098 0.0
H1192 H 0.45389 0.58192 0.81135 0.0
H1193 H 0.46046 0.54071 0.85261 0.0
H1194 H 0.4286 0.54542 0.86268 0.0
H1195 H 0.3245 0.51702 0.85498 0.0
H1196 H 0.34129 0.54419 0.84469 0.0
H1197 H 0.38347 0.53325 0.88446 0.0
H1198 H 0.36689 0.50632 0.89487 0.0
H1199 H 0.39717 0.54095 0.84941 0.0
H1200 H 0.35196 0.56477 0.89282 0.0
H1201 H 0.32048 0.57069 0.90355 0.0
H1202 H 0.30853 0.5993 0.85369 0.0
H1203 H 0.3399 0.59332 0.84257 0.0
C1204 C 0.43496 0.61511 0.87385 0.0
C1205 C 0.43197 0.6326 0.86652 0.0
C1206 C 0.42407 0.60046 0.86864 0.0
C1207 C 0.40999 0.60282 0.85583 0.0
C1208 C 0.40734 0.62013 0.84789 0.0
C1209 C 0.4184 0.63493 0.85308 0.0
C1210 C 0.39712 0.58747 0.85261 0.0
C1211 C 0.37861 0.58994 0.85721 0.0
C1212 C 0.40366 0.56967 0.84881 0.0
C1213 C 0.42279 0.56644 0.84258 0.0
C1214 C 0.43016 0.57667 0.82804 0.0
C1215 C 0.44829 0.57396 0.82251 0.0
C1216 C 0.4592 0.56102 0.83136 0.0
C1217 C 0.45198 0.55071 0.84574 0.0
C1218 C 0.43386 0.55335 0.85133 0.0
C1219 C 0.33733 0.52044 0.86156 0.0
C1220 C 0.34433 0.50949 0.87579 0.0
C1221 C 0.34689 0.53595 0.85564 0.0
C1222 C 0.36364 0.54066 0.86377 0.0
C1223 C 0.37062 0.52977 0.87793 0.0
C1224 C 0.36104 0.51443 0.88395 0.0
C1225 C 0.37404 0.55705 0.85797 0.0
C1226 C 0.39203 0.55467 0.85165 0.0
C1227 C 0.36701 0.57492 0.8601 0.0
C1228 C 0.34816 0.57835 0.86675 0.0
C1229 C 0.34255 0.57214 0.88407 0.0
C1230 C 0.32475 0.57555 0.89024 0.0
C1231 C 0.31249 0.5853 0.87928 0.0
C1232 C 0.31803 0.5917 0.86214 0.0
C1233 C 0.33581 0.58831 0.8559 0.0
H1234 H 0.29872 0.58794 0.88409 0.0
H1235 H 0.47325 0.55897 0.82708 0.0
H1236 H 0.49983 0.37383 0.87057 0.0
H1237 H 0.47176 0.38948 0.86123 0.0
H1238 H 0.44104 0.33979 0.86972 0.0
H1239 H 0.46955 0.32378 0.87784 0.0
H1240 H 0.42663 0.3577 0.84216 0.0
H1241 H 0.44423 0.37401 0.90321 0.0
H1242 H 0.46542 0.38491 0.92709 0.0
H1243 H 0.47049 0.43642 0.89946 0.0
H1244 H 0.44952 0.42575 0.87528 0.0
H1245 H 0.34232 0.40116 0.86979 0.0
H1246 H 0.3699 0.38292 0.86398 0.0
H1247 H 0.39886 0.4317 0.84782 0.0
H1248 H 0.37127 0.44989 0.85367 0.0
H1249 H 0.41413 0.41436 0.87714 0.0
H1250 H 0.39282 0.39773 0.81744 0.0
H1251 H 0.37039 0.38592 0.79521 0.0
H1252 H 0.37023 0.33401 0.82255 0.0
H1253 H 0.39247 0.34558 0.84512 0.0
C1254 C 0.48708 0.36626 0.87024 0.0
C1255 C 0.48664 0.34777 0.87515 0.0
C1256 C 0.47105 0.37518 0.86495 0.0
C1257 C 0.45416 0.36597 0.86528 0.0
C1258 C 0.45387 0.34722 0.86945 0.0
C1259 C 0.47007 0.33812 0.8742 0.0
C1260 C 0.4368 0.37627 0.86263 0.0
C1261 C 0.42382 0.37001 0.8499 0.0
C1262 C 0.43314 0.39244 0.87262 0.0
C1263 C 0.44542 0.39903 0.88737 0.0
C1264 C 0.44992 0.38764 0.9022 0.0
C1265 C 0.46189 0.39377 0.91578 0.0
C1266 C 0.46932 0.41133 0.91477 0.0
C1267 C 0.46473 0.42282 0.90022 0.0
C1268 C 0.45279 0.41675 0.88658 0.0
C1269 C 0.35435 0.40778 0.86416 0.0
C1270 C 0.35474 0.42679 0.86186 0.0
C1271 C 0.37009 0.39739 0.8609 0.0
C1272 C 0.38642 0.40596 0.85546 0.0
C1273 C 0.38637 0.42482 0.85192 0.0
C1274 C 0.37062 0.43517 0.85512 0.0
C1275 C 0.40405 0.39596 0.85652 0.0
C1276 C 0.41703 0.40219 0.86918 0.0
C1277 C 0.40743 0.37965 0.84674 0.0
C1278 C 0.39422 0.37258 0.83306 0.0
C1279 C 0.38791 0.38384 0.8188 0.0
C1280 C 0.37524 0.37718 0.80612 0.0
C1281 C 0.36886 0.35924 0.80749 0.0
C1282 C 0.37518 0.3479 0.82151 0.0
C1283 C 0.38784 0.3545 0.83423 0.0
H1284 H 0.35905 0.35411 0.79767 0.0
H1285 H 0.47861 0.41604 0.92529 0.0
H1286 H 0.63182 0.4975 0.86852 0.0
H1287 H 0.61446 0.47078 0.85846 0.0
H1288 H 0.66419 0.43893 0.85736 0.0
H1289 H 0.68177 0.4661 0.86676 0.0
H1290 H 0.63838 0.42802 0.83008 0.0
H1291 H 0.64062 0.43821 0.89494 0.0
H1292 H 0.63818 0.45696 0.92283 0.0
H1293 H 0.58149 0.46744 0.91121 0.0
H1294 H 0.58368 0.44897 0.88309 0.0
H1295 H 0.59233 0.34331 0.85598 0.0
H1296 H 0.61253 0.36926 0.84899 0.0
H1297 H 0.56645 0.40593 0.85344 0.0
H1298 H 0.54653 0.38018 0.86089 0.0
H1299 H 0.59248 0.41331 0.87793 0.0
H1300 H 0.59016 0.40123 0.81332 0.0
H1301 H 0.59324 0.38225 0.78567 0.0
H1302 H 0.6503 0.37401 0.79725 0.0
H1303 H 0.64751 0.39275 0.82513 0.0
C1304 C 0.63906 0.4849 0.86567 0.0
C1305 C 0.65799 0.48364 0.86853 0.0
C1306 C 0.62919 0.46969 0.85989 0.0
C1307 C 0.638 0.45281 0.85747 0.0
C1308 C 0.65715 0.45183 0.85914 0.0
C1309 C 0.66714 0.46725 0.8646 0.0
C1310 C 0.62681 0.43598 0.85597 0.0
C1311 C 0.62845 0.42464 0.84058 0.0
C1312 C 0.61385 0.43162 0.86968 0.0
C1313 C 0.61235 0.44232 0.88685 0.0
C1314 C 0.62766 0.44458 0.8983 0.0
C1315 C 0.62632 0.45516 0.91414 0.0
C1316 C 0.6097 0.46341 0.91877 0.0
C1317 C 0.59436 0.46105 0.9076 0.0
C1318 C 0.59563 0.45051 0.89172 0.0
C1319 C 0.58647 0.35684 0.85465 0.0
C1320 C 0.56797 0.35988 0.8589 0.0
C1321 C 0.59798 0.37165 0.8507 0.0
C1322 C 0.591 0.38955 0.85082 0.0
C1323 C 0.57213 0.39226 0.85334 0.0
C1324 C 0.56074 0.37756 0.8575 0.0
C1325 C 0.60347 0.40553 0.8517 0.0
C1326 C 0.60227 0.41664 0.86727 0.0
C1327 C 0.61684 0.40943 0.83823 0.0
C1328 C 0.61858 0.39825 0.82142 0.0
C1329 C 0.60333 0.39524 0.81007 0.0
C1330 C 0.60503 0.38456 0.79433 0.0
C1331 C 0.62195 0.37689 0.78973 0.0
C1332 C 0.63721 0.37995 0.80084 0.0
C1333 C 0.63557 0.39062 0.8166 0.0
H1334 H 0.62324 0.36862 0.77755 0.0
H1335 H 0.6087 0.47162 0.93102 0.0
H1336 H 0.64518 0.56773 0.84896 0.0
H1337 H 0.61837 0.58635 0.84114 0.0
H1338 H 0.59995 0.58331 0.89711 0.0
H1339 H 0.62628 0.56456 0.90493 0.0
H1340 H 0.57245 0.57667 0.87379 0.0
H1341 H 0.62286 0.62158 0.87832 0.0
H1342 H 0.65249 0.6341 0.86794 0.0
H1343 H 0.63106 0.64048 0.81365 0.0
H1344 H 0.60137 0.62782 0.82369 0.0
H1345 H 0.52117 0.64622 0.90596 0.0
H1346 H 0.54834 0.62905 0.89734 0.0
H1347 H 0.53807 0.64063 0.84046 0.0
H1348 H 0.51054 0.65814 0.84904 0.0
H1349 H 0.57783 0.64107 0.8532 0.0
H1350 H 0.52575 0.60224 0.84982 0.0
H1351 H 0.49587 0.59007 0.85981 0.0
H1352 H 0.51998 0.57146 0.91001 0.0
H1353 H 0.54995 0.58373 0.90043 0.0
C1354 C 0.63543 0.57108 0.8596 0.0
C1355 C 0.63789 0.56465 0.87759 0.0
C1356 C 0.62013 0.58174 0.8551 0.0
C1357 C 0.60719 0.58627 0.86855 0.0
C1358 C 0.6097 0.57989 0.88647 0.0
C1359 C 0.62482 0.5692 0.89095 0.0
C1360 C 0.5909 0.59765 0.86443 0.0
C1361 C 0.57363 0.5907 0.86917 0.0
C1362 C 0.59228 0.6157 0.85756 0.0
C1363 C 0.60999 0.62361 0.8517 0.0
C1364 C 0.62451 0.62559 0.86415 0.0
C1365 C 0.64131 0.63271 0.85833 0.0
C1366 C 0.64367 0.63804 0.84013 0.0
C1367 C 0.62922 0.63633 0.82773 0.0
C1368 C 0.61241 0.6292 0.83348 0.0
C1369 C 0.52475 0.64536 0.89161 0.0
C1370 C 0.51354 0.65327 0.87815 0.0
C1371 C 0.54033 0.6356 0.88671 0.0
C1372 C 0.545 0.63337 0.86827 0.0
C1373 C 0.5346 0.64221 0.85477 0.0
C1374 C 0.51892 0.65216 0.85969 0.0
C1375 C 0.55972 0.6203 0.86362 0.0
C1376 C 0.57659 0.62685 0.8572 0.0
C1377 C 0.558 0.60176 0.86871 0.0
C1378 C 0.5401 0.59395 0.87441 0.0
C1379 C 0.52466 0.59562 0.86303 0.0
C1380 C 0.50771 0.5887 0.86861 0.0
C1381 C 0.50603 0.58001 0.88554 0.0
C1382 C 0.52131 0.57818 0.89689 0.0
C1383 C 0.5383 0.58507 0.89137 0.0
H1384 H 0.49289 0.57468 0.88985 0.0
H1385 H 0.65669 0.64353 0.83565 0.0
H1386 H 0.65216 0.50196 0.14717 0.0
H1387 H 0.63755 0.52901 0.16084 0.0
H1388 H 0.64614 0.55884 0.11072 0.0
H1389 H 0.65993 0.53169 0.09678 0.0
H1390 H 0.65279 0.5786 0.14817 0.0
H1391 H 0.60929 0.54201 0.11105 0.0
H1392 H 0.59393 0.51279 0.10431 0.0
H1393 H 0.57373 0.5103 0.15941 0.0
H1394 H 0.5893 0.53939 0.16654 0.0
H1395 H 0.59351 0.64299 0.11431 0.0
H1396 H 0.61411 0.61864 0.12387 0.0
H1397 H 0.57658 0.60375 0.167 0.0
H1398 H 0.55582 0.62856 0.15738 0.0
H1399 H 0.58494 0.57493 0.14558 0.0
H1400 H 0.61913 0.61726 0.1787 0.0
H1401 H 0.63438 0.64634 0.1861 0.0
H1402 H 0.67215 0.63832 0.14182 0.0
H1403 H 0.65696 0.60933 0.13393 0.0
C1404 C 0.6512 0.51442 0.13923 0.0
C1405 C 0.65699 0.51479 0.12089 0.0
C1406 C 0.64292 0.52982 0.14706 0.0
C1407 C 0.64087 0.54589 0.13678 0.0
C1408 C 0.64774 0.54659 0.11888 0.0
C1409 C 0.65547 0.53108 0.1109 0.0
C1410 C 0.62953 0.56122 0.14351 0.0
C1411 C 0.63796 0.57787 0.14779 0.0
C1412 C 0.61021 0.55996 0.14375 0.0
C1413 C 0.60065 0.54268 0.13939 0.0
C1414 C 0.60172 0.53513 0.12177 0.0
C1415 C 0.59296 0.51862 0.11787 0.0
C1416 C 0.58292 0.50965 0.13145 0.0
C1417 C 0.58157 0.51723 0.14893 0.0
C1418 C 0.59036 0.53372 0.15291 0.0
C1419 C 0.58995 0.6349 0.12622 0.0
C1420 C 0.57324 0.63766 0.13523 0.0
C1421 C 0.60176 0.62102 0.13173 0.0
C1422 C 0.59701 0.60944 0.14629 0.0
C1423 C 0.58059 0.61264 0.15585 0.0
C1424 C 0.56882 0.62682 0.15045 0.0
C1425 C 0.60815 0.59274 0.14942 0.0
C1426 C 0.59973 0.57571 0.14683 0.0
C1427 C 0.62747 0.59366 0.15103 0.0
C1428 C 0.63685 0.61107 0.1557 0.0
C1429 C 0.63062 0.62173 0.17045 0.0
C1430 C 0.63927 0.6382 0.17475 0.0
C1431 C 0.65422 0.64417 0.16444 0.0
C1432 C 0.66058 0.63366 0.14982 0.0
C1433 C 0.65197 0.61717 0.14545 0.0
H1434 H 0.66089 0.65694 0.16778 0.0
H1435 H 0.57613 0.49687 0.1284 0.0
H1436 H 0.342 0.58954 0.13325 0.0
H1437 H 0.36613 0.61201 0.13949 0.0
H1438 H 0.40428 0.56832 0.15019 0.0
H1439 H 0.38029 0.54588 0.1435 0.0
H1440 H 0.41008 0.60324 0.1715 0.0
H1441 H 0.40329 0.57785 0.10996 0.0
H1442 H 0.3848 0.56989 0.08291 0.0
H1443 H 0.36903 0.62608 0.07674 0.0
H1444 H 0.38722 0.63428 0.104 0.0
H1445 H 0.49371 0.62037 0.11743 0.0
H1446 H 0.46433 0.60754 0.12737 0.0
H1447 H 0.44447 0.66165 0.13947 0.0
H1448 H 0.47419 0.67452 0.13039 0.0
H1449 H 0.42671 0.62681 0.11 0.0
H1450 H 0.43746 0.65255 0.17073 0.0
H1451 H 0.4564 0.65889 0.19787 0.0
H1452 H 0.46508 0.6014 0.20566 0.0
H1453 H 0.44651 0.59477 0.17826 0.0
C1454 C 0.35531 0.58482 0.1378 0.0
C1455 C 0.35941 0.56612 0.13807 0.0
C1456 C 0.36905 0.59762 0.14133 0.0
C1457 C 0.38694 0.59177 0.14525 0.0
C1458 C 0.3905 0.57306 0.14738 0.0
C1459 C 0.37685 0.56028 0.14355 0.0
C1460 C 0.4025 0.60448 0.14308 0.0
C1461 C 0.41364 0.60859 0.15813 0.0
C1462 C 0.40707 0.61144 0.12562 0.0
C1463 C 0.39639 0.60662 0.1091 0.0
C1464 C 0.39575 0.58846 0.10291 0.0
C1465 C 0.38535 0.58392 0.08754 0.0
C1466 C 0.3757 0.59747 0.07814 0.0
C1467 C 0.37648 0.6156 0.08406 0.0
C1468 C 0.38683 0.6202 0.09947 0.0
C1469 C 0.48315 0.62949 0.12244 0.0
C1470 C 0.48617 0.6484 0.12318 0.0
C1471 C 0.46647 0.62216 0.12821 0.0
C1472 C 0.45245 0.63364 0.13449 0.0
C1473 C 0.45534 0.65255 0.13516 0.0
C1474 C 0.47223 0.65987 0.12986 0.0
C1475 C 0.43428 0.62574 0.13842 0.0
C1476 C 0.4228 0.62213 0.12354 0.0
C1477 C 0.42947 0.61931 0.15601 0.0
C1478 C 0.44094 0.6232 0.17223 0.0
C1479 C 0.44371 0.64129 0.17801 0.0
C1480 C 0.4543 0.64493 0.1935 0.0
C1481 C 0.46203 0.63056 0.20343 0.0
C1482 C 0.45916 0.61252 0.1979 0.0
C1483 C 0.44862 0.60882 0.18238 0.0
H1484 H 0.47018 0.6334 0.21545 0.0
H1485 H 0.36765 0.59393 0.06624 0.0
H1486 H 0.63789 0.43103 0.14574 0.0
H1487 H 0.61199 0.41131 0.15446 0.0
H1488 H 0.59542 0.40844 0.0979 0.0
H1489 H 0.62048 0.42835 0.08933 0.0
H1490 H 0.56705 0.41525 0.1184 0.0
H1491 H 0.62008 0.37316 0.12277 0.0
H1492 H 0.64922 0.36341 0.13684 0.0
H1493 H 0.62337 0.36155 0.18955 0.0
H1494 H 0.59413 0.37146 0.1758 0.0
H1495 H 0.51855 0.34117 0.09202 0.0
H1496 H 0.54513 0.35992 0.09918 0.0
H1497 H 0.53502 0.3527 0.15682 0.0
H1498 H 0.50831 0.33338 0.14968 0.0
H1499 H 0.57398 0.35387 0.14636 0.0
H1500 H 0.51968 0.38971 0.1407 0.0
H1501 H 0.4904 0.39891 0.12663 0.0
H1502 H 0.51851 0.41336 0.07711 0.0
H1503 H 0.54792 0.40396 0.09076 0.0
C1504 C 0.62866 0.42616 0.13523 0.0
C1505 C 0.63114 0.43139 0.11687 0.0
C1506 C 0.61393 0.41485 0.14021 0.0
C1507 C 0.60173 0.40836 0.12683 0.0
C1508 C 0.60448 0.41341 0.10853 0.0
C1509 C 0.61887 0.42483 0.10363 0.0
C1510 C 0.58579 0.39652 0.1313 0.0
C1511 C 0.56861 0.40186 0.12457 0.0
C1512 C 0.5875 0.3794 0.14019 0.0
C1513 C 0.60501 0.37321 0.1483 0.0
C1514 C 0.62066 0.37075 0.13737 0.0
C1515 C 0.63718 0.36519 0.14528 0.0
C1516 C 0.63816 0.36191 0.16408 0.0
C1517 C 0.6226 0.36412 0.175 0.0
C1518 C 0.60606 0.36969 0.16715 0.0
C1519 C 0.52212 0.34329 0.10624 0.0
C1520 C 0.5112 0.33605 0.12029 0.0
C1521 C 0.53734 0.35398 0.11031 0.0
C1522 C 0.54181 0.35798 0.12852 0.0
C1523 C 0.53173 0.3498 0.14268 0.0
C1524 C 0.5165 0.33881 0.13858 0.0
C1525 C 0.5558 0.3722 0.13217 0.0
C1526 C 0.57239 0.36743 0.1406 0.0
C1527 C 0.55361 0.38997 0.12489 0.0
C1528 C 0.536 0.39609 0.11677 0.0
C1529 C 0.51961 0.39479 0.12679 0.0
C1530 C 0.50299 0.40003 0.11888 0.0
C1531 C 0.5026 0.40671 0.10099 0.0
C1532 C 0.51883 0.4082 0.09098 0.0
C1533 C 0.53549 0.40295 0.09881 0.0
H1534 H 0.48971 0.41075 0.09488 0.0
H1535 H 0.65096 0.35763 0.17019 0.0
H1536 H 0.06623 0.26825 0.50176 0.0
H1537 H 0.03398 0.2629 0.49407 0.0
H1538 H 0.01831 0.30932 0.52678 0.0
H1539 H 0.05037 0.31474 0.53452 0.0
H1540 H 0.9975 0.27872 0.53424 0.0
H1541 H 0.0181 0.31257 0.4814 0.0
H1542 H 0.03794 0.31858 0.45477 0.0
H1543 H 0.0224 0.26716 0.43126 0.0
H1544 H 0.00264 0.26073 0.45789 0.0
H1545 H 0.90786 0.30122 0.50555 0.0
H1546 H 0.93956 0.29756 0.51543 0.0
H1547 H 0.9477 0.2562 0.47417 0.0
H1548 H 0.91607 0.26065 0.46373 0.0
H1549 H 0.97308 0.28002 0.47103 0.0
H1550 H 0.95006 0.24726 0.52248 0.0
H1551 H 0.93047 0.24101 0.54924 0.0
H1552 H 0.95062 0.28935 0.57562 0.0
H1553 H 0.97016 0.29603 0.54893 0.0
C1554 C 0.05592 0.2774 0.50719 0.0
C1555 C 0.06088 0.29195 0.51871 0.0
C1556 C 0.03751 0.27433 0.50278 0.0
C1557 C 0.02374 0.28571 0.50987 0.0
C1558 C 0.0287 0.30033 0.52122 0.0
C1559 C 0.04706 0.30348 0.52552 0.0
C1560 C 0.0041 0.28231 0.5058 0.0
C1561 C 0.99208 0.27912 0.52044 0.0
C1562 C 0.99719 0.28222 0.48775 0.0
C1563 C 0.00906 0.28607 0.47174 0.0
C1564 C 0.01904 0.30247 0.47063 0.0
C1565 C 0.03025 0.30597 0.45552 0.0
C1566 C 0.03147 0.29324 0.44136 0.0
C1567 C 0.02146 0.277 0.44226 0.0
C1568 C 0.01025 0.27342 0.45735 0.0
C1569 C 0.91623 0.29086 0.49909 0.0
C1570 C 0.9095 0.28097 0.48413 0.0
C1571 C 0.9344 0.28874 0.50474 0.0
C1572 C 0.94614 0.27649 0.49566 0.0
C1573 C 0.93898 0.26572 0.48143 0.0
C1574 C 0.92084 0.26805 0.47563 0.0
C1575 C 0.96621 0.27663 0.49954 0.0
C1576 C 0.9784 0.27928 0.48485 0.0
C1577 C 0.97329 0.27613 0.51757 0.0
C1578 C 0.96149 0.2722 0.53363 0.0
C1579 C 0.95021 0.25663 0.53393 0.0
C1580 C 0.93914 0.253 0.5491 0.0
C1581 C 0.93928 0.26479 0.56411 0.0
C1582 C 0.95052 0.28023 0.56399 0.0
C1583 C 0.96162 0.28393 0.54885 0.0
H1584 H 0.9307 0.26195 0.57584 0.0
H1585 H 0.04015 0.29597 0.42967 0.0
H1586 H 0.71729 0.07741 0.49442 0.0
H1587 H 0.71842 0.04539 0.48421 0.0
H1588 H 0.70419 0.02749 0.53855 0.0
H1589 H 0.70223 0.05934 0.5486 0.0
H1590 H 0.73899 0.01042 0.511 0.0
H1591 H 0.67251 0.02126 0.52397 0.0
H1592 H 0.64498 0.04042 0.52014 0.0
H1593 H 0.65055 0.03718 0.46178 0.0
H1594 H 0.6784 0.01833 0.46533 0.0
H1595 H 0.7186 0.91582 0.50154 0.0
H1596 H 0.72098 0.9477 0.5115 0.0
H1597 H 0.69626 0.96534 0.46085 0.0
H1598 H 0.693 0.93362 0.45139 0.0
H1599 H 0.68183 0.98361 0.486 0.0
H1600 H 0.74409 0.96951 0.47116 0.0
H1601 H 0.77312 0.95231 0.47221 0.0
H1602 H 0.7778 0.96307 0.52972 0.0
H1603 H 0.74866 0.98014 0.52905 0.0
C1604 C 0.71456 0.06659 0.50416 0.0
C1605 C 0.70959 0.07072 0.52224 0.0
C1606 C 0.7152 0.0484 0.49834 0.0
C1607 C 0.71132 0.03423 0.51067 0.0
C1608 C 0.70714 0.03832 0.52889 0.0
C1609 C 0.70598 0.05645 0.53456 0.0
C1610 C 0.71069 0.01513 0.5044 0.0
C1611 C 0.72651 0.0044 0.50566 0.0
C1612 C 0.69453 0.00763 0.49703 0.0
C1613 C 0.67766 0.01866 0.49492 0.0
C1614 C 0.66799 0.02483 0.51034 0.0
C1615 C 0.65231 0.0356 0.50822 0.0
C1616 C 0.64606 0.04008 0.49072 0.0
C1617 C 0.65544 0.03375 0.47532 0.0
C1618 C 0.67118 0.02305 0.47738 0.0
C1619 C 0.71377 0.92656 0.49255 0.0
C1620 C 0.70561 0.92229 0.47572 0.0
C1621 C 0.71521 0.94477 0.49819 0.0
C1622 C 0.70901 0.95902 0.48683 0.0
C1623 C 0.70108 0.95467 0.46991 0.0
C1624 C 0.69927 0.93651 0.46449 0.0
C1625 C 0.71021 0.97844 0.49266 0.0
C1626 C 0.69443 0.98939 0.4913 0.0
C1627 C 0.72658 0.98619 0.49964 0.0
C1628 C 0.7441 0.97595 0.50009 0.0
C1629 C 0.75124 0.96809 0.48405 0.0
C1630 C 0.76773 0.95838 0.48458 0.0
C1631 C 0.77727 0.95656 0.50103 0.0
C1632 C 0.77037 0.96447 0.51699 0.0
C1633 C 0.75389 0.97418 0.51654 0.0
H1634 H 0.79003 0.94904 0.50141 0.0
H1635 H 0.63391 0.04841 0.48911 0.0
H1636 H 0.93147 0.72246 0.49547 0.0
H1637 H 0.96383 0.72965 0.48996 0.0
H1638 H 0.97978 0.68268 0.52183 0.0
H1639 H 0.94772 0.6757 0.52771 0.0
H1640 H -0.00046 0.71149 0.53141 0.0
H1641 H 0.9819 0.68303 0.47456 0.0
H1642 H 0.9635 0.67935 0.44654 0.0
H1643 H 0.97876 0.73324 0.42905 0.0
H1644 H 0.99707 0.73733 0.4571 0.0
H1645 H 0.09077 0.6935 0.50396 0.0
H1646 H 0.05871 0.69562 0.51306 0.0
H1647 H 0.05114 0.74079 0.47582 0.0
H1648 H 0.08312 0.73779 0.46595 0.0
H1649 H 0.02643 0.71726 0.46944 0.0
H1650 H 0.04716 0.74414 0.52539 0.0
H1651 H 0.06592 0.74686 0.55328 0.0
H1652 H 0.04523 0.69546 0.57262 0.0
H1653 H 0.02652 0.69231 0.54475 0.0
C1654 C 0.94188 0.71359 0.50117 0.0
C1655 C 0.93696 0.69841 0.51192 0.0
C1656 C 0.96038 0.7177 0.498 0.0
C1657 C 0.97429 0.70666 0.50542 0.0
C1658 C 0.96935 0.69144 0.516 0.0
C1659 C 0.95094 0.68737 0.51921 0.0
C1660 C 0.99404 0.71094 0.50251 0.0
C1661 C 0.00547 0.71266 0.51786 0.0
C1662 C 0.00171 0.713 0.48486 0.0
C1663 C 0.99066 0.71057 0.46803 0.0
C1664 C 0.9812 0.69416 0.46482 0.0
C1665 C 0.97082 0.69198 0.44891 0.0
C1666 C 0.96991 0.70607 0.43605 0.0
C1667 C 0.97943 0.72235 0.43904 0.0
C1668 C 0.98982 0.7246 0.45493 0.0
C1669 C 0.08243 0.70434 0.49829 0.0
C1670 C 0.08945 0.71572 0.48454 0.0
C1671 C 0.06404 0.70559 0.5035 0.0
C1672 C 0.05236 0.71848 0.49528 0.0
C1673 C 0.05979 0.73073 0.48241 0.0
C1674 C 0.07814 0.72923 0.47697 0.0
C1675 C 0.03214 0.71762 0.49838 0.0
C1676 C 0.02056 0.71647 0.48305 0.0
C1677 C 0.02435 0.71603 0.51606 0.0
C1678 C 0.03551 0.71795 0.53291 0.0
C1679 C 0.04669 0.73337 0.53554 0.0
C1680 C 0.05731 0.73499 0.55136 0.0
C1681 C 0.05679 0.72133 0.5647 0.0
C1682 C 0.04562 0.70603 0.56227 0.0
C1683 C 0.03498 0.70434 0.54649 0.0
H1684 H 0.06503 0.72261 0.57693 0.0
H1685 H 0.96187 0.70436 0.42374 0.0
H1686 H 0.26893 0.0729 0.47123 0.0
H1687 H 0.26587 0.04062 0.47967 0.0
H1688 H 0.32253 0.03984 0.49662 0.0
H1689 H 0.3257 0.07173 0.4875 0.0
H1690 H 0.31682 0.01217 0.47644 0.0
H1691 H 0.2841 0.03862 0.52724 0.0
H1692 H 0.26036 0.05715 0.54247 0.0
H1693 H 0.21828 0.02526 0.51678 0.0
H1694 H 0.24178 0.00667 0.50122 0.0
H1695 H 0.32078 0.93324 0.53148 0.0
H1696 H 0.31839 0.9649 0.52158 0.0
H1697 H 0.26907 0.95221 0.49181 0.0
H1698 H 0.27164 0.92014 0.50122 0.0
H1699 H 0.26843 0.98527 0.51575 0.0
H1700 H 0.30256 0.95736 0.46702 0.0
H1701 H 0.32714 0.93816 0.45417 0.0
H1702 H 0.36769 0.97302 0.47839 0.0
H1703 H 0.34334 0.99226 0.49166 0.0
C1704 C 0.28061 0.06581 0.47697 0.0
C1705 C 0.29762 0.07461 0.47848 0.0
C1706 C 0.27886 0.04741 0.48185 0.0
C1707 C 0.29398 0.03774 0.48881 0.0
C1708 C 0.31073 0.04689 0.49107 0.0
C1709 C 0.31256 0.06511 0.48583 0.0
C1710 C 0.29285 0.01786 0.49277 0.0
C1711 C 0.30632 0.0064 0.48521 0.0
C1712 C 0.27882 0.01011 0.50371 0.0
C1713 C 0.2647 0.02141 0.51289 0.0
C1714 C 0.26978 0.03567 0.5247 0.0
C1715 C 0.25637 0.04616 0.53342 0.0
C1716 C 0.23783 0.04242 0.53054 0.0
C1717 C 0.23265 0.02817 0.51896 0.0
C1718 C 0.24601 0.01765 0.5102 0.0
C1719 C 0.30954 0.93702 0.52264 0.0
C1720 C 0.29659 0.92406 0.51687 0.0
C1721 C 0.30814 0.95518 0.5171 0.0
C1722 C 0.29363 0.96078 0.5059 0.0
C1723 C 0.28038 0.94806 0.50044 0.0
C1724 C 0.28192 0.92977 0.50578 0.0
C1725 C 0.29263 0.97997 0.49982 0.0
C1726 C 0.27878 0.99119 0.50689 0.0
C1727 C 0.30641 0.98758 0.48863 0.0
C1728 C 0.32111 0.97617 0.48046 0.0
C1729 C 0.31671 0.96085 0.46973 0.0
C1730 C 0.33061 0.94997 0.46235 0.0
C1731 C 0.34897 0.95434 0.4655 0.0
C1732 C 0.35346 0.96964 0.47598 0.0
C1733 C 0.33962 0.98055 0.48342 0.0
H1734 H 0.3597 0.9459 0.45978 0.0
H1735 H 0.22747 0.05055 0.53732 0.0
H1736 H 0.49669 0.93086 0.31569 0.0
H1737 H 0.50331 0.9632 0.31082 0.0
H1738 H 0.47621 0.96104 0.25843 0.0
H1739 H 0.47049 0.92821 0.26294 0.0
H1740 H 0.50388 0.98442 0.25665 0.0
H1741 H 0.45341 0.97653 0.29711 0.0
H1742 H 0.43699 0.96326 0.32343 0.0
H1743 H 0.47658 0.9864 0.3601 0.0
H1744 H 0.4934 -0.00042 0.33398 0.0
H1745 H 0.50413 0.08491 0.26774 0.0
H1746 H 0.49233 0.05378 0.26202 0.0
H1747 H 0.52219 0.03403 0.30889 0.0
H1748 H 0.53406 0.06432 0.31439 0.0
H1749 H 0.48551 0.02355 0.30888 0.0
H1750 H 0.538 0.02694 0.26681 0.0
H1751 H 0.55408 0.03965 0.24 0.0
H1752 H 0.50848 0.02558 0.20572 0.0
H1753 H 0.49204 0.013 0.23241 0.0
C1754 C 0.49242 0.93725 0.30302 0.0
C1755 C 0.48294 0.92722 0.28977 0.0
C1756 C 0.4961 0.95574 0.30027 0.0
C1757 C 0.48969 0.96475 0.28453 0.0
C1758 C 0.48113 0.95446 0.27076 0.0
C1759 C 0.47788 0.93575 0.27332 0.0
C1760 C 0.49106 0.985 0.28321 0.0
C1761 C 0.49954 0.99301 0.26792 0.0
C1762 C 0.48514 0.99635 0.29774 0.0
C1763 C 0.47469 0.98901 0.31356 0.0
C1764 C 0.45863 0.97877 0.31078 0.0
C1765 C 0.44926 0.97124 0.32567 0.0
C1766 C 0.45575 0.97397 0.34342 0.0
C1767 C 0.47157 0.98431 0.34634 0.0
C1768 C 0.481 0.99184 0.3315 0.0
C1769 C 0.50816 0.07387 0.27673 0.0
C1770 C 0.51976 0.07721 0.29172 0.0
C1771 C 0.50143 0.05613 0.27347 0.0
C1772 C 0.50626 0.04164 0.28517 0.0
C1773 C 0.51807 0.04502 0.29984 0.0
C1774 C 0.5248 0.06247 0.303 0.0
C1775 C 0.4992 0.02277 0.28282 0.0
C1776 C 0.48945 0.015 0.29742 0.0
C1777 C 0.50376 0.01178 0.26759 0.0
C1778 C 0.51371 0.01926 0.25162 0.0
C1779 C 0.53134 0.02671 0.25358 0.0
C1780 C 0.54053 0.03386 0.23841 0.0
C1781 C 0.53228 0.03349 0.22118 0.0
C1782 C 0.51484 0.02591 0.21908 0.0
C1783 C 0.50558 0.01876 0.23422 0.0
H1784 H 0.53942 0.03902 0.20944 0.0
H1785 H 0.4485 0.9681 0.35492 0.0
H1786 H 0.91697 0.49356 0.30105 0.0
H1787 H 0.94925 0.48424 0.3006 0.0
H1788 H 0.96142 0.52787 0.26278 0.0
H1789 H 0.92905 0.53716 0.26325 0.0
H1790 H 0.98067 0.49551 0.25512 0.0
H1791 H 0.96888 0.53536 0.3055 0.0
H1792 H 0.95216 0.54608 0.33274 0.0
H1793 H 0.96556 0.49639 0.36093 0.0
H1794 H 0.98209 0.48521 0.33372 0.0
H1795 H 0.07703 0.49304 0.27506 0.0
H1796 H 0.04559 0.50401 0.27063 0.0
H1797 H 0.0261 0.46434 0.3097 0.0
H1798 H 0.05725 0.45333 0.31415 0.0
H1799 H 0.01128 0.49774 0.31567 0.0
H1800 H 0.02136 0.45726 0.26436 0.0
H1801 H 0.03767 0.44653 0.23686 0.0
H1802 H 0.02764 0.49797 0.21044 0.0
H1803 H 0.01149 0.50909 0.23791 0.0
C1804 C 0.92651 0.50079 0.2923 0.0
C1805 C 0.92075 0.51589 0.28205 0.0
C1806 C 0.94488 0.49557 0.29212 0.0
C1807 C 0.9577 0.50553 0.28181 0.0
C1808 C 0.95171 0.52004 0.27079 0.0
C1809 C 0.93331 0.5253 0.27103 0.0
C1810 C 0.97747 0.50164 0.28373 0.0
C1811 C 0.98747 0.49623 0.26829 0.0
C1812 C 0.98622 0.50255 0.30096 0.0
C1813 C 0.97659 0.50937 0.31749 0.0
C1814 C 0.96816 0.52665 0.31746 0.0
C1815 C 0.95872 0.53282 0.3329 0.0
C1816 C 0.95776 0.5219 0.34854 0.0
C1817 C 0.96629 0.50482 0.34879 0.0
C1818 C 0.97571 0.49857 0.33337 0.0
C1819 C 0.06602 0.48666 0.28267 0.0
C1820 C 0.06963 0.4724 0.29505 0.0
C1821 C 0.0481 0.49293 0.28012 0.0
C1822 C 0.03354 0.48494 0.28982 0.0
C1823 C 0.03716 0.47076 0.30218 0.0
C1824 C 0.05499 0.4645 0.30471 0.0
C1825 C 0.01443 0.49113 0.28714 0.0
C1826 C 0.00455 0.49711 0.30246 0.0
C1827 C 0.00584 0.4908 0.26981 0.0
C1828 C 0.0154 0.48407 0.25325 0.0
C1829 C 0.02276 0.46633 0.25274 0.0
C1830 C 0.03196 0.46017 0.23715 0.0
C1831 C 0.03374 0.47158 0.22193 0.0
C1832 C 0.02628 0.48915 0.22225 0.0
C1833 C 0.01709 0.49539 0.23782 0.0
H1834 H 0.04087 0.46679 0.20987 0.0
H1835 H 0.95043 0.5267 0.36047 0.0
H1836 H 0.49631 0.91541 0.71393 0.0
H1837 H 0.48709 0.94736 0.71882 0.0
H1838 H 0.53531 0.96567 0.69012 0.0
H1839 H 0.54427 0.93393 0.68465 0.0
H1840 H 0.52439 0.98402 0.72726 0.0
H1841 H 0.50372 0.96691 0.66569 0.0
H1842 H 0.48683 0.94679 0.64458 0.0
H1843 H 0.43712 0.95649 0.67445 0.0
H1844 H 0.45383 0.97641 0.69596 0.0
H1845 H 0.50905 0.07694 0.7038 0.0
H1846 H 0.51758 0.04471 0.7069 0.0
H1847 H 0.46028 0.02998 0.70916 0.0
H1848 H 0.45194 0.06196 0.70452 0.0
H1849 H 0.47467 0.00843 0.68803 0.0
H1850 H 0.49249 0.02782 0.74766 0.0
H1851 H 0.50796 0.04664 0.77095 0.0
H1852 H 0.56035 0.03191 0.74868 0.0
H1853 H 0.54519 0.01319 0.72511 0.0
C1854 C 0.50497 0.92628 0.7088 0.0
C1855 C 0.52093 0.92227 0.69883 0.0
C1856 C 0.49972 0.94444 0.71162 0.0
C1857 C 0.51061 0.95874 0.70488 0.0
C1858 C 0.52684 0.95476 0.69549 0.0
C1859 C 0.53184 0.93666 0.69229 0.0
C1860 C 0.50454 0.97789 0.70646 0.0
C1861 C 0.51356 0.98951 0.7187 0.0
C1862 C 0.49011 0.98471 0.69562 0.0
C1863 C 0.48006 0.97293 0.68257 0.0
C1864 C 0.48923 0.96459 0.66787 0.0
C1865 C 0.47968 0.95326 0.65581 0.0
C1866 C 0.46092 0.95031 0.65821 0.0
C1867 C 0.45166 0.95875 0.67264 0.0
C1868 C 0.46116 0.97006 0.68477 0.0
C1869 C 0.49838 0.06675 0.70522 0.0
C1870 C 0.47989 0.07175 0.70396 0.0
C1871 C 0.50321 0.04835 0.70713 0.0
C1872 C 0.48959 0.03479 0.70852 0.0
C1873 C 0.47109 0.04006 0.70801 0.0
C1874 C 0.4663 0.05832 0.70546 0.0
C1875 C 0.49447 0.01504 0.70898 0.0
C1876 C 0.4853 0.00317 0.69695 0.0
C1877 C 0.50851 0.00796 0.72037 0.0
C1878 C 0.51768 0.01922 0.73452 0.0
C1879 C 0.5073 0.0287 0.74765 0.0
C1880 C 0.51602 0.03933 0.76091 0.0
C1881 C 0.53512 0.0405 0.76127 0.0
C1882 C 0.54555 0.03101 0.74838 0.0
C1883 C 0.53691 0.02037 0.73508 0.0
H1884 H 0.54184 0.04874 0.77155 0.0
H1885 H 0.45356 0.94153 0.64886 0.0
H1886 H 0.93278 0.45697 0.68122 0.0
H1887 H 0.96486 0.46536 0.68557 0.0
H1888 H 0.94886 0.50642 0.72465 0.0
H1889 H 0.91663 0.49793 0.72061 0.0
H1890 H 0.97913 0.50249 0.67998 0.0
H1891 H 0.96933 0.50181 0.75189 0.0
H1892 H 0.95585 0.48443 0.77756 0.0
H1893 H 0.97757 0.4346 0.75542 0.0
H1894 H 0.99088 0.45173 0.72949 0.0
H1895 H 0.06 0.54631 0.70091 0.0
H1896 H 0.0282 0.53671 0.70434 0.0
H1897 H 0.04612 0.48215 0.71777 0.0
H1898 H 0.07824 0.49203 0.71508 0.0
H1899 H 0.01512 0.49082 0.7364 0.0
H1900 H 0.03532 0.49258 0.67424 0.0
H1901 H 0.04963 0.50619 0.64689 0.0
H1902 H 0.00892 0.54852 0.64639 0.0
H1903 H 0.99451 0.5353 0.67391 0.0
C1904 C 0.93605 0.46779 0.69076 0.0
C1905 C 0.92218 0.47686 0.70052 0.0
C1906 C 0.95439 0.47247 0.6933 0.0
C1907 C 0.95918 0.48627 0.70564 0.0
C1908 C 0.94542 0.49542 0.71539 0.0
C1909 C 0.92703 0.49066 0.71295 0.0
C1910 C 0.97854 0.4918 0.70738 0.0
C1911 C 0.98697 0.50017 0.69237 0.0
C1912 C 0.98884 0.48815 0.72328 0.0
C1913 C 0.98091 0.47797 0.73879 0.0
C1914 C 0.97111 0.48714 0.7525 0.0
C1915 C 0.96351 0.47734 0.76706 0.0
C1916 C 0.96582 0.45841 0.7681 0.0
C1917 C 0.97573 0.44925 0.75457 0.0
C1918 C 0.98326 0.45898 0.73993 0.0
C1919 C 0.05715 0.53238 0.70503 0.0
C1920 C 0.07145 0.51984 0.70759 0.0
C1921 C 0.039 0.52689 0.70692 0.0
C1922 C 0.03481 0.50861 0.71083 0.0
C1923 C 0.0491 0.49631 0.71465 0.0
C1924 C 0.06738 0.50193 0.71312 0.0
C1925 C 0.01565 0.5022 0.70918 0.0
C1926 C 0.00729 0.49343 0.72407 0.0
C1927 C 0.00547 0.5052 0.69295 0.0
C1928 C 0.01392 0.51303 0.67622 0.0
C1929 C 0.02948 0.50485 0.66835 0.0
C1930 C 0.0376 0.51248 0.65282 0.0
C1931 C 0.03021 0.52823 0.64493 0.0
C1932 C 0.01464 0.53633 0.65253 0.0
C1933 C 0.00647 0.52876 0.66808 0.0
H1934 H 0.03654 0.53414 0.63292 0.0
H1935 H 0.95996 0.45086 0.7794 0.0
H1936 H 0.26599 0.46031 0.92821 0.0
H1937 H 0.26506 0.46867 0.96073 0.0
H1938 H 0.31244 0.50315 0.95297 0.0
H1939 H 0.31363 0.49429 0.92074 0.0
H1940 H 0.31755 0.4815 0.98081 0.0
H1941 H 0.26797 0.52033 0.96058 0.0
H1942 H 0.23837 0.52711 0.94584 0.0
H1943 H 0.21103 0.4909 0.98314 0.0
H1944 H 0.24052 0.48373 -0.00203 0.0
H1945 H 0.32073 0.53249 0.06162 0.0
H1946 H 0.31662 0.52278 0.03006 0.0
H1947 H 0.27329 0.48632 0.0467 0.0
H1948 H 0.2773 0.49603 0.07854 0.0
H1949 H 0.26461 0.50602 0.01555 0.0
H1950 H 0.31396 0.46881 0.03695 0.0
H1951 H 0.34349 0.46256 0.05207 0.0
H1952 H 0.37126 0.49589 0.01248 0.0
H1953 H 0.34185 0.50258 0.99729 0.0
C1954 C 0.27591 0.46995 0.9335 0.0
C1955 C 0.28982 0.47679 0.92219 0.0
C1956 C 0.27539 0.47473 0.952 0.0
C1957 C 0.28866 0.4866 0.95929 0.0
C1958 C 0.30212 0.49392 0.94768 0.0
C1959 C 0.30276 0.48896 0.92931 0.0
C1960 C 0.28945 0.49044 0.97918 0.0
C1961 C 0.30602 0.48708 0.98833 0.0
C1962 C 0.2742 0.49703 0.98917 0.0
C1963 C 0.25648 0.50135 0.98026 0.0
C1964 C 0.25567 0.5137 0.96554 0.0
C1965 C 0.2389 0.51764 0.95719 0.0
C1966 C 0.22283 0.5094 0.96351 0.0
C1967 C 0.22349 0.49725 0.97824 0.0
C1968 C 0.24022 0.49326 0.98663 0.0
C1969 C 0.31043 0.52228 0.05866 0.0
C1970 C 0.2995 0.51484 0.07262 0.0
C1971 C 0.30807 0.51678 0.04058 0.0
C1972 C 0.29482 0.50366 0.0361 0.0
C1973 C 0.28364 0.49641 0.04993 0.0
C1974 C 0.286 0.50193 0.06808 0.0
C1975 C 0.29284 0.49759 0.01692 0.0
C1976 C 0.27607 0.50038 0.00798 0.0
C1977 C 0.3079 0.49048 0.00707 0.0
C1978 C 0.32566 0.4863 0.01605 0.0
C1979 C 0.32634 0.47491 0.03154 0.0
C1980 C 0.34307 0.47127 0.04011 0.0
C1981 C 0.35924 0.47885 0.03326 0.0
C1982 C 0.35872 0.49004 0.01778 0.0
C1983 C 0.34203 0.49374 0.00917 0.0
H1984 H 0.37217 0.47603 0.03992 0.0
H1985 H 0.20987 0.51247 0.95703 0.0
H1986 H 0.49681 0.28239 0.91805 0.0
H1987 H 0.48699 0.27916 0.95002 0.0
H1988 H 0.53675 0.30525 0.96796 0.0
H1989 H 0.54639 0.30908 0.93609 0.0
H1990 H 0.52186 0.26717 0.98566 0.0
H1991 H 0.50926 0.3317 0.97124 0.0
H1992 H 0.49541 0.35548 0.95174 0.0
H1993 H 0.44237 0.33126 0.95925 0.0
H1994 H 0.45599 0.30713 0.97853 0.0
H1995 H 0.50391 0.28294 0.07978 0.0
H1996 H 0.51435 0.28344 0.04796 0.0
H1997 H 0.45833 0.28958 0.02989 0.0
H1998 H 0.44822 0.29061 0.06171 0.0
H1999 H 0.4765 0.31069 0.0112 0.0
H2000 H 0.48592 0.24777 0.02615 0.0
H2001 H 0.49749 0.22145 0.04375 0.0
H2002 H 0.55285 0.23851 0.03364 0.0
H2003 H 0.54161 0.26508 0.01618 0.0
C2004 C 0.50566 0.28736 0.92883 0.0
C2005 C 0.52232 0.29603 0.92465 0.0
C2006 C 0.50005 0.28551 0.94701 0.0
C2007 C 0.5112 0.29196 0.96121 0.0
C2008 C 0.52803 0.30018 0.95711 0.0
C2009 C 0.53345 0.30243 0.93894 0.0
C2010 C 0.50504 0.29068 0.98036 0.0
C2011 C 0.51207 0.27673 0.99142 0.0
C2012 C 0.49186 0.30283 0.98747 0.0
C2013 C 0.48368 0.31749 0.97612 0.0
C2014 C 0.49468 0.33133 0.96857 0.0
C2015 C 0.48687 0.3449 0.95759 0.0
C2016 C 0.46803 0.34484 0.9542 0.0
C2017 C 0.45696 0.33126 0.96185 0.0
C2018 C 0.46472 0.31765 0.9728 0.0
C2019 C 0.49389 0.28419 0.06893 0.0
C2020 C 0.47529 0.28661 0.07304 0.0
C2021 C 0.49982 0.28438 0.05074 0.0
C2022 C 0.48712 0.28624 0.03636 0.0
C2023 C 0.46845 0.2882 0.04062 0.0
C2024 C 0.46264 0.28866 0.05879 0.0
C2025 C 0.49325 0.28701 0.01695 0.0
C2026 C 0.48623 0.30095 0.00568 0.0
C2027 C 0.50611 0.2745 0.00954 0.0
C2028 C 0.51291 0.25851 0.02 0.0
C2029 C 0.50056 0.24598 0.02779 0.0
C2030 C 0.50706 0.231 0.03772 0.0
C2031 C 0.52589 0.22833 0.03985 0.0
C2032 C 0.53827 0.24061 0.032 0.0
C2033 C 0.53184 0.25562 0.02207 0.0
H2034 H 0.5309 0.21673 0.04755 0.0
H2035 H 0.462 0.35533 0.9457 0.0
H2036 H 0.69478 0.49364 0.91683 0.0
H2037 H 0.69931 0.48534 0.94889 0.0
H2038 H 0.74461 0.52298 0.95233 0.0
H2039 H 0.74033 0.53095 0.91991 0.0
H2040 H 0.74892 0.49177 0.97554 0.0
H2041 H 0.70444 0.53858 0.96345 0.0
H2042 H 0.67783 0.55222 0.94778 0.0
H2043 H 0.64363 0.50846 0.96686 0.0
H2044 H 0.6701 0.49443 0.98244 0.0
H2045 H 0.72996 0.4934 0.07441 0.0
H2046 H 0.73748 0.50353 0.04308 0.0
H2047 H 0.69219 0.47196 0.02225 0.0
H2048 H 0.68473 0.46199 0.05286 0.0
H2049 H 0.69163 0.50612 0.00914 0.0
H2050 H 0.73653 0.45766 0.01832 0.0
H2051 H 0.76298 0.44351 0.03379 0.0
H2052 H 0.79611 0.49019 0.02074 0.0
H2053 H 0.76975 0.50473 0.00539 0.0
C2054 C 0.70621 0.49951 0.92422 0.0
C2055 C 0.71734 0.51276 0.91594 0.0
C2056 C 0.70871 0.4949 0.94257 0.0
C2057 C 0.72206 0.50383 0.95311 0.0
C2058 C 0.73423 0.51594 0.94446 0.0
C2059 C 0.73185 0.52041 0.92594 0.0
C2060 C 0.72145 0.50229 0.97338 0.0
C2061 C 0.73652 0.49516 0.98297 0.0
C2062 C 0.7053 0.50683 0.98312 0.0
C2063 C 0.68928 0.51541 0.97403 0.0
C2064 C 0.69126 0.53183 0.96424 0.0
C2065 C 0.6762 0.53964 0.95539 0.0
C2066 C 0.65905 0.53122 0.95633 0.0
C2067 C 0.65692 0.51498 0.96616 0.0
C2068 C 0.67194 0.50711 0.97502 0.0
C2069 C 0.72167 0.48867 0.06309 0.0
C2070 C 0.70655 0.47714 0.06619 0.0
C2071 C 0.726 0.49441 0.04522 0.0
C2072 C 0.71531 0.48857 0.03031 0.0
C2073 C 0.70051 0.47683 0.0335 0.0
C2074 C 0.69622 0.47118 0.05112 0.0
C2075 C 0.71875 0.49473 0.01124 0.0
C2076 C 0.70418 0.50296 0.00183 0.0
C2077 C 0.73531 0.49116 0.00179 0.0
C2078 C 0.75113 0.48237 0.01091 0.0
C2079 C 0.74941 0.46497 0.01888 0.0
C2080 C 0.76439 0.45687 0.02761 0.0
C2081 C 0.7812 0.46597 0.0283 0.0
C2082 C 0.78307 0.48317 0.02023 0.0
C2083 C 0.76812 0.49135 0.01151 0.0
H2084 H 0.79278 0.45968 0.03506 0.0
H2085 H 0.64742 0.53726 0.94943 0.0
H2086 H 0.46443 0.73025 0.92737 0.0
H2087 H 0.47392 0.73335 0.95951 0.0
H2088 H 0.50165 0.68135 0.95618 0.0
H2089 H 0.49167 0.67808 0.92461 0.0
H2090 H 0.48003 0.68156 0.9842 0.0
H2091 H 0.52457 0.72358 0.95918 0.0
H2092 H 0.53497 0.75077 0.94216 0.0
H2093 H 0.50406 0.78536 0.97814 0.0
H2094 H 0.4933 0.75835 0.99525 0.0
H2095 H 0.53701 0.67717 0.06097 0.0
H2096 H 0.52574 0.68123 0.02991 0.0
H2097 H 0.49277 0.72683 0.04746 0.0
H2098 H 0.50375 0.72264 0.0789 0.0
H2099 H 0.51313 0.73265 0.01398 0.0
H2100 H 0.47123 0.68976 0.04056 0.0
H2101 H 0.46214 0.66211 0.05757 0.0
H2102 H 0.48951 0.62851 0.01799 0.0
H2103 H 0.49903 0.65596 0.0009 0.0
C2104 C 0.47279 0.7197 0.93354 0.0
C2105 C 0.47716 0.70382 0.92375 0.0
C2106 C 0.47824 0.72147 0.95182 0.0
C2107 C 0.48843 0.70752 0.96029 0.0
C2108 C 0.49361 0.69218 0.95004 0.0
C2109 C 0.4879 0.69029 0.932 0.0
C2110 C 0.49258 0.70792 0.98013 0.0
C2111 C 0.48744 0.69268 0.99062 0.0
C2112 C 0.5016 0.72272 0.98871 0.0
C2113 C 0.50795 0.73893 0.97835 0.0
C2114 C 0.51985 0.73697 0.96335 0.0
C2115 C 0.52585 0.75235 0.95371 0.0
C2116 C 0.52013 0.76977 0.95902 0.0
C2117 C 0.50845 0.77186 0.97402 0.0
C2118 C 0.50241 0.75652 0.98369 0.0
C2119 C 0.52724 0.68796 0.05836 0.0
C2120 C 0.52104 0.69938 0.0725 0.0
C2121 C 0.52088 0.69032 0.04055 0.0
C2122 C 0.50831 0.70421 0.03649 0.0
C2123 C 0.50245 0.716 0.0504 0.0
C2124 C 0.50868 0.71354 0.06832 0.0
C2125 C 0.50119 0.70601 0.01767 0.0
C2126 C 0.5056 0.72165 0.00748 0.0
C2127 C 0.49164 0.69151 0.00924 0.0
C2128 C 0.48597 0.67495 0.01953 0.0
C2129 C 0.47545 0.67649 0.03557 0.0
C2130 C 0.4702 0.66084 0.04521 0.0
C2131 C 0.47527 0.64357 0.03889 0.0
C2132 C 0.4856 0.6419 0.02289 0.0
C2133 C 0.49092 0.6575 0.01321 0.0
H2134 H 0.47118 0.63148 0.04636 0.0
H2135 H 0.5248 0.78166 0.95156 0.0
H2136 H 0.15088 0.25524 0.52116 0.0
H2137 H 0.1733 0.23332 0.51023 0.0
H2138 H 0.21385 0.27603 0.5064 0.0
H2139 H 0.19101 0.29842 0.51666 0.0
H2140 H 0.21565 0.25516 0.47729 0.0
H2141 H 0.21424 0.24282 0.54168 0.0
H2142 H 0.1998 0.23635 0.57149 0.0
H2143 H 0.17667 0.18692 0.54998 0.0
H2144 H 0.19079 0.1932 0.51999 0.0
H2145 H 0.28757 0.1873 0.46803 0.0
H2146 H 0.26838 0.2128 0.47843 0.0
H2147 H 0.22064 0.17824 0.47587 0.0
H2148 H 0.23952 0.15288 0.46532 0.0
H2149 H 0.22521 0.19628 0.50952 0.0
H2150 H 0.22467 0.20937 0.44512 0.0
H2151 H 0.23858 0.21547 0.415 0.0
H2152 H 0.2653 0.26303 0.43656 0.0
H2153 H 0.25174 0.25706 0.4669 0.0
C2154 C 0.16461 0.26002 0.5182 0.0
C2155 C 0.1692 0.27858 0.51995 0.0
C2156 C 0.17747 0.2474 0.51199 0.0
C2157 C 0.19542 0.2529 0.50785 0.0
C2158 C 0.20011 0.27144 0.50961 0.0
C2159 C 0.18709 0.2842 0.51555 0.0
C2160 C 0.20897 0.23926 0.50122 0.0
C2161 C 0.21803 0.24246 0.48455 0.0
C2162 C 0.21182 0.22247 0.51045 0.0
C2163 C 0.2035 0.21855 0.52856 0.0
C2164 C 0.206 0.23062 0.54329 0.0
C2165 C 0.19788 0.22697 0.56022 0.0
C2166 C 0.18731 0.21125 0.56262 0.0
C2167 C 0.18487 0.1991 0.54811 0.0
C2168 C 0.19295 0.20268 0.53115 0.0
C2169 C 0.27295 0.18521 0.46949 0.0
C2170 C 0.26508 0.16805 0.46592 0.0
C2171 C 0.26203 0.19978 0.47539 0.0
C2172 C 0.24313 0.19734 0.47795 0.0
C2173 C 0.23521 0.18036 0.47403 0.0
C2174 C 0.24604 0.1659 0.46793 0.0
C2175 C 0.23162 0.21214 0.48559 0.0
C2176 C 0.22299 0.20912 0.50244 0.0
C2177 C 0.2292 0.22903 0.47654 0.0
C2178 C 0.23738 0.23264 0.45833 0.0
C2179 C 0.23366 0.22102 0.44349 0.0
C2180 C 0.24145 0.22448 0.42637 0.0
C2181 C 0.25287 0.23959 0.42388 0.0
C2182 C 0.25648 0.25131 0.43851 0.0
C2183 C 0.24874 0.2479 0.45567 0.0
H2184 H 0.25887 0.24225 0.41062 0.0
H2185 H 0.18102 0.20847 0.57573 0.0
H2186 H 0.7185 0.18491 0.52828 0.0
H2187 H 0.73782 0.211 0.5201 0.0
H2188 H 0.78478 0.17539 0.51622 0.0
H2189 H 0.76575 0.14948 0.52504 0.0
H2190 H 0.79518 0.20539 0.5314 0.0
H2191 H 0.76134 0.19103 0.47767 0.0
H2192 H 0.73425 0.18472 0.45857 0.0
H2193 H 0.7132 0.23827 0.46996 0.0
H2194 H 0.74005 0.24482 0.48935 0.0
H2195 H 0.83936 0.27277 0.46805 0.0
H2196 H 0.82826 0.24489 0.48342 0.0
H2197 H 0.78471 0.27589 0.50836 0.0
H2198 H 0.79562 0.30348 0.49324 0.0
H2199 H 0.77526 0.2466 0.4814 0.0
H2200 H 0.81151 0.25978 0.53554 0.0
H2201 H 0.84033 0.26474 0.55237 0.0
H2202 H 0.85915 0.21143 0.53674 0.0
H2203 H 0.83055 0.20627 0.51955 0.0
C2204 C 0.73294 0.18267 0.52573 0.0
C2205 C 0.74056 0.16513 0.52723 0.0
C2206 C 0.74398 0.19757 0.52098 0.0
C2207 C 0.76274 0.19513 0.51725 0.0
C2208 C 0.77038 0.17765 0.51904 0.0
C2209 C 0.75943 0.16283 0.52402 0.0
C2210 C 0.77432 0.21071 0.51118 0.0
C2211 C 0.79091 0.21427 0.52031 0.0
C2212 C 0.76888 0.22228 0.49664 0.0
C2213 C 0.75262 0.21834 0.48512 0.0
C2214 C 0.75086 0.2014 0.47623 0.0
C2215 C 0.73556 0.19779 0.46533 0.0
C2216 C 0.72199 0.21107 0.4631 0.0
C2217 C 0.72371 0.22799 0.47173 0.0
C2218 C 0.73897 0.23166 0.48267 0.0
C2219 C 0.8279 0.2737 0.47742 0.0
C2220 C 0.81817 0.29015 0.47932 0.0
C2221 C 0.82156 0.2578 0.48613 0.0
C2222 C 0.80559 0.25839 0.49686 0.0
C2223 C 0.79702 0.27519 0.50009 0.0
C2224 C 0.80325 0.29092 0.49141 0.0
C2225 C 0.79572 0.24151 0.50194 0.0
C2226 C 0.7795 0.23764 0.49245 0.0
C2227 C 0.80174 0.22953 0.51582 0.0
C2228 C 0.81899 0.23275 0.52602 0.0
C2229 C 0.82189 0.24921 0.53547 0.0
C2230 C 0.83816 0.25203 0.54514 0.0
C2231 C 0.85159 0.23844 0.54557 0.0
C2232 C 0.84876 0.22197 0.53636 0.0
C2233 C 0.83252 0.21909 0.52666 0.0
H2234 H 0.86417 0.24064 0.55308 0.0
H2235 H 0.71016 0.20825 0.45464 0.0
H2236 H 0.83048 0.70827 0.4992 0.0
H2237 H 0.80428 0.72711 0.49014 0.0
H2238 H 0.80705 0.75577 0.54154 0.0
H2239 H 0.83322 0.73706 0.55069 0.0
H2240 H 0.77147 0.74724 0.53166 0.0
H2241 H 0.82515 0.7746 0.50444 0.0
H2242 H 0.85302 0.77528 0.48538 0.0
H2243 H 0.82132 0.76081 0.43814 0.0
H2244 H 0.79328 0.75979 0.45699 0.0
H2245 H 0.72783 0.83156 0.51573 0.0
H2246 H 0.74821 0.80615 0.52265 0.0
H2247 H 0.74204 0.78601 0.46759 0.0
H2248 H 0.72175 0.81172 0.46042 0.0
H2249 H 0.77733 0.78722 0.47717 0.0
H2250 H 0.72297 0.76314 0.50376 0.0
H2251 H 0.69505 0.76328 0.52273 0.0
H2252 H 0.72755 0.77171 0.57089 0.0
H2253 H 0.75567 0.77188 0.55218 0.0
C2254 C 0.8254 0.71845 0.50866 0.0
C2255 C 0.834 0.72121 0.52565 0.0
C2256 C 0.81048 0.72925 0.50342 0.0
C2257 C 0.80383 0.74294 0.5151 0.0
C2258 C 0.81197 0.74528 0.53231 0.0
C2259 C 0.82697 0.7346 0.5375 0.0
C2260 C 0.78879 0.75528 0.50923 0.0
C2261 C 0.77277 0.75606 0.51981 0.0
C2262 C 0.7903 0.76642 0.49347 0.0
C2263 C 0.80716 0.76687 0.48217 0.0
C2264 C 0.82415 0.77137 0.49003 0.0
C2265 C 0.83997 0.77186 0.47926 0.0
C2266 C 0.83895 0.76802 0.46058 0.0
C2267 C 0.8221 0.76373 0.45262 0.0
C2268 C 0.80624 0.76319 0.46334 0.0
C2269 C 0.7306 0.82164 0.50511 0.0
C2270 C 0.72318 0.82371 0.4875 0.0
C2271 C 0.74221 0.80703 0.50914 0.0
C2272 C 0.74655 0.79405 0.4957 0.0
C2273 C 0.73885 0.79584 0.47819 0.0
C2274 C 0.7272 0.81049 0.47414 0.0
C2275 C 0.76004 0.77938 0.49973 0.0
C2276 C 0.77584 0.77819 0.48884 0.0
C2277 C 0.7583 0.76785 0.51518 0.0
C2278 C 0.74143 0.76764 0.52653 0.0
C2279 C 0.72416 0.76515 0.51838 0.0
C2280 C 0.7083 0.76515 0.52909 0.0
C2281 C 0.70952 0.76753 0.548 0.0
C2282 C 0.72662 0.76987 0.55624 0.0
C2283 C 0.74253 0.76989 0.54559 0.0
H2284 H 0.69722 0.76754 0.55626 0.0
H2285 H 0.85121 0.76843 0.45226 0.0
H2286 H 0.1577 0.72101 0.47213 0.0
H2287 H 0.16736 0.74935 0.4874 0.0
H2288 H 0.21988 0.72495 0.49924 0.0
H2289 H 0.21018 0.69682 0.48475 0.0
H2290 H 0.20972 0.74525 0.52695 0.0
H2291 H 0.21162 0.75208 0.46025 0.0
H2292 H 0.19738 0.75291 0.42968 0.0
H2293 H 0.16119 0.79567 0.44729 0.0
H2294 H 0.17511 0.79493 0.47805 0.0
H2295 H 0.28037 0.81074 0.52284 0.0
H2296 H 0.25891 0.78572 0.51684 0.0
H2297 H 0.21389 0.82385 0.51669 0.0
H2298 H 0.23514 0.84888 0.52282 0.0
H2299 H 0.21346 0.79992 0.48701 0.0
H2300 H 0.21725 0.79728 0.55183 0.0
H2301 H 0.23261 0.79657 0.58182 0.0
H2302 H 0.25875 0.74598 0.56769 0.0
H2303 H 0.24377 0.74652 0.53748 0.0
C2304 C 0.1711 0.72163 0.4784 0.0
C2305 C 0.18321 0.70677 0.47713 0.0
C2306 C 0.17667 0.73784 0.48699 0.0
C2307 C 0.19446 0.73936 0.49426 0.0
C2308 C 0.20611 0.72415 0.49377 0.0
C2309 C 0.20057 0.70808 0.48532 0.0
C2310 C 0.20189 0.75695 0.50107 0.0
C2311 C 0.21049 0.75722 0.51824 0.0
C2312 C 0.20249 0.77278 0.48994 0.0
C2313 C 0.19424 0.7733 0.47146 0.0
C2314 C 0.20055 0.76158 0.45762 0.0
C2315 C 0.19255 0.76204 0.44026 0.0
C2316 C 0.17835 0.77429 0.43656 0.0
C2317 C 0.17216 0.78615 0.45019 0.0
C2318 C 0.1801 0.78573 0.46758 0.0
C2319 C 0.2659 0.81378 0.52158 0.0
C2320 C 0.25946 0.83176 0.52334 0.0
C2321 C 0.25366 0.79948 0.51823 0.0
C2322 C 0.23481 0.80296 0.51649 0.0
C2323 C 0.22836 0.8209 0.51806 0.0
C2324 C 0.24055 0.83516 0.52161 0.0
C2325 C 0.22196 0.78784 0.51249 0.0
C2326 C 0.21231 0.78811 0.49592 0.0
C2327 C 0.22051 0.77248 0.52411 0.0
C2328 C 0.22947 0.77201 0.54233 0.0
C2329 C 0.22638 0.78607 0.55505 0.0
C2330 C 0.235 0.78569 0.57211 0.0
C2331 C 0.24667 0.77126 0.57665 0.0
C2332 C 0.24971 0.75716 0.56415 0.0
C2333 C 0.24114 0.75748 0.54707 0.0
H2334 H 0.25334 0.77099 0.58986 0.0
H2335 H 0.17217 0.77463 0.42312 0.0
H2336 H 0.51282 0.19731 0.29828 0.0
H2337 H 0.49254 0.20717 0.2738 0.0
H2338 H 0.50761 0.15973 0.24221 0.0
H2339 H 0.528 0.14973 0.26702 0.0
H2340 H 0.51717 0.19104 0.22569 0.0
H2341 H 0.46252 0.16816 0.25182 0.0
H2342 H 0.43984 0.16183 0.27598 0.0
H2343 H 0.43056 0.21931 0.28283 0.0
H2344 H 0.45337 0.22604 0.25888 0.0
H2345 H 0.4708 0.22975 0.14985 0.0
H2346 H 0.4776 0.20907 0.17511 0.0
H2347 H 0.47427 0.25396 0.21307 0.0
H2348 H 0.46768 0.27499 0.18765 0.0
H2349 H 0.45565 0.2198 0.22443 0.0
H2350 H 0.51377 0.24231 0.20301 0.0
H2351 H 0.5377 0.24927 0.18027 0.0
H2352 H 0.5411 0.19249 0.16602 0.0
H2353 H 0.51695 0.18524 0.18852 0.0
C2354 C 0.51114 0.18855 0.28646 0.0
C2355 C 0.522 0.17286 0.2844 0.0
C2356 C 0.49948 0.19416 0.27248 0.0
C2357 C 0.49861 0.18426 0.2561 0.0
C2358 C 0.50807 0.16755 0.25476 0.0
C2359 C 0.51961 0.16179 0.26895 0.0
C2360 C 0.49121 0.19339 0.23955 0.0
C2361 C 0.5035 0.19683 0.22518 0.0
C2362 C 0.47362 0.20154 0.2392 0.0
C2363 C 0.45977 0.19761 0.25358 0.0
C2364 C 0.45575 0.17947 0.25855 0.0
C2365 C 0.44284 0.17581 0.2722 0.0
C2366 C 0.43378 0.19016 0.28094 0.0
C2367 C 0.43758 0.20821 0.27603 0.0
C2368 C 0.45047 0.21195 0.26238 0.0
C2369 C 0.47141 0.23527 0.16357 0.0
C2370 C 0.46876 0.25404 0.16676 0.0
C2371 C 0.47528 0.2234 0.17798 0.0
C2372 C 0.47638 0.22999 0.19591 0.0
C2373 C 0.47336 0.24864 0.19928 0.0
C2374 C 0.46975 0.26063 0.18478 0.0
C2375 C 0.48173 0.21748 0.2109 0.0
C2376 C 0.46912 0.21357 0.22486 0.0
C2377 C 0.49908 0.20892 0.21102 0.0
C2378 C 0.51335 0.21327 0.19724 0.0
C2379 C 0.51944 0.23134 0.19486 0.0
C2380 C 0.53309 0.23533 0.18205 0.0
C2381 C 0.54086 0.22134 0.17165 0.0
C2382 C 0.53502 0.20332 0.17405 0.0
C2383 C 0.52135 0.19926 0.18682 0.0
H2384 H 0.55146 0.22445 0.16177 0.0
H2385 H 0.4238 0.18729 0.29152 0.0
H2386 H 0.80622 0.53024 0.27883 0.0
H2387 H 0.78004 0.52373 0.25885 0.0
H2388 H 0.81711 0.51259 0.2142 0.0
H2389 H 0.843 0.52003 0.23371 0.0
H2390 H 0.79021 0.52971 0.20098 0.0
H2391 H 0.79518 0.47794 0.24135 0.0
H2392 H 0.79614 0.46134 0.2707 0.0
H2393 H 0.74273 0.48181 0.28439 0.0
H2394 H 0.74156 0.49869 0.25521 0.0
H2395 H 0.73412 0.46726 0.14928 0.0
H2396 H 0.75685 0.48608 0.16527 0.0
H2397 H 0.71593 0.50099 0.20523 0.0
H2398 H 0.69365 0.48138 0.18986 0.0
H2399 H 0.7434 0.48487 0.22076 0.0
H2400 H 0.73797 0.53297 0.17593 0.0
H2401 H 0.73826 0.54658 0.14508 0.0
H2402 H 0.79402 0.52947 0.13765 0.0
H2403 H 0.79401 0.51556 0.16835 0.0
C2404 C 0.80869 0.52642 0.26475 0.0
C2405 C 0.82661 0.52561 0.25783 0.0
C2406 C 0.79376 0.52265 0.25334 0.0
C2407 C 0.79657 0.51744 0.23501 0.0
C2408 C 0.81451 0.51669 0.22819 0.0
C2409 C 0.82933 0.52085 0.23942 0.0
C2410 C 0.78101 0.51229 0.22295 0.0
C2411 C 0.78001 0.51982 0.20526 0.0
C2412 C 0.76753 0.49959 0.22853 0.0
C2413 C 0.76841 0.48978 0.24624 0.0
C2414 C 0.78374 0.47905 0.25072 0.0
C2415 C 0.78429 0.46955 0.2673 0.0
C2416 C 0.76954 0.47058 0.27944 0.0
C2417 C 0.75418 0.48107 0.27501 0.0
C2418 C 0.75356 0.49061 0.25846 0.0
C2419 C 0.73 0.4749 0.16128 0.0
C2420 C 0.71243 0.47262 0.16873 0.0
C2421 C 0.7429 0.48579 0.17029 0.0
C2422 C 0.73812 0.49488 0.18654 0.0
C2423 C 0.71996 0.49395 0.19284 0.0
C2424 C 0.70729 0.4827 0.18415 0.0
C2425 C 0.75247 0.50231 0.19879 0.0
C2426 C 0.75336 0.49504 0.21653 0.0
C2427 C 0.76601 0.51488 0.19301 0.0
C2428 C 0.76593 0.52308 0.17443 0.0
C2429 C 0.75024 0.53195 0.16767 0.0
C2430 C 0.75037 0.53976 0.15021 0.0
C2431 C 0.76613 0.53886 0.1394 0.0
C2432 C 0.78181 0.53016 0.14603 0.0
C2433 C 0.78176 0.52233 0.16347 0.0
H2434 H 0.76621 0.54492 0.1259 0.0
H2435 H 0.76998 0.46319 0.29225 0.0
H2436 H 0.55344 0.73909 0.17835 0.0
H2437 H 0.53911 0.75794 0.2021 0.0
H2438 H 0.48839 0.72862 0.19521 0.0
H2439 H 0.50266 0.70942 0.17183 0.0
H2440 H 0.48878 0.77093 0.19277 0.0
H2441 H 0.50556 0.71887 0.23054 0.0
H2442 H 0.52777 0.69621 0.24199 0.0
H2443 H 0.56182 0.73935 0.26255 0.0
H2444 H 0.53991 0.76229 0.25098 0.0
H2445 H 0.44052 0.81694 0.26229 0.0
H2446 H 0.45226 0.79216 0.24314 0.0
H2447 H 0.50692 0.80238 0.26313 0.0
H2448 H 0.49521 0.8265 0.2828 0.0
H2449 H 0.50347 0.76798 0.25894 0.0
H2450 H 0.49064 0.81984 0.22141 0.0
H2451 H 0.47216 0.84473 0.20815 0.0
H2452 H 0.43507 0.80549 0.18513 0.0
H2453 H 0.45321 0.78036 0.19849 0.0
C2454 C 0.53932 0.7365 0.18208 0.0
C2455 C 0.5292 0.72276 0.17326 0.0
C2456 C 0.53117 0.74727 0.1956 0.0
C2457 C 0.51272 0.74463 0.20028 0.0
C2458 C 0.50264 0.73081 0.19171 0.0
C2459 C 0.51087 0.71981 0.17845 0.0
C2460 C 0.5038 0.75677 0.21371 0.0
C2461 C 0.49166 0.77013 0.2073 0.0
C2462 C 0.5082 0.75604 0.23248 0.0
C2463 C 0.52117 0.74228 0.23978 0.0
C2464 C 0.51784 0.72352 0.23739 0.0
C2465 C 0.53037 0.71063 0.24392 0.0
C2466 C 0.54622 0.71634 0.25296 0.0
C2467 C 0.54954 0.73495 0.25554 0.0
C2468 C 0.53706 0.7479 0.24903 0.0
C2469 C 0.45499 0.81371 0.26279 0.0
C2470 C 0.46694 0.82381 0.27394 0.0
C2471 C 0.46171 0.79962 0.25176 0.0
C2472 C 0.48056 0.79566 0.25135 0.0
C2473 C 0.49234 0.80517 0.26313 0.0
C2474 C 0.48561 0.81902 0.27436 0.0
C2475 C 0.48822 0.78229 0.2381 0.0
C2476 C 0.50027 0.76873 0.24448 0.0
C2477 C 0.48413 0.78317 0.21916 0.0
C2478 C 0.47315 0.79823 0.21115 0.0
C2479 C 0.47846 0.81653 0.21365 0.0
C2480 C 0.46806 0.83068 0.2061 0.0
C2481 C 0.45241 0.8267 0.19586 0.0
C2482 C 0.44717 0.80855 0.19311 0.0
C2483 C 0.4575 0.79435 0.20066 0.0
H2484 H 0.44438 0.83767 0.19001 0.0
H2485 H 0.55591 0.70634 0.25798 0.0
H2486 H 0.14732 0.48993 0.25272 0.0
H2487 H 0.17251 0.50152 0.23427 0.0
H2488 H 0.21045 0.46767 0.26434 0.0
H2489 H 0.18511 0.45685 0.28378 0.0
H2490 H 0.22612 0.49872 0.25679 0.0
H2491 H 0.19369 0.45524 0.22077 0.0
H2492 H 0.16684 0.44051 0.20662 0.0
H2493 H 0.15519 0.4896 0.17666 0.0
H2494 H 0.18184 0.50471 0.19081 0.0
H2495 H 0.29084 0.50809 0.18191 0.0
H2496 H 0.27036 0.49668 0.20586 0.0
H2497 H 0.22837 0.53409 0.18799 0.0
H2498 H 0.24865 0.54555 0.16407 0.0
H2499 H 0.21702 0.49792 0.18958 0.0
H2500 H 0.24977 0.54125 0.22756 0.0
H2501 H 0.2776 0.5545 0.24129 0.0
H2502 H 0.29006 0.50306 0.26665 0.0
H2503 H 0.26241 0.48944 0.25287 0.0
C2504 C 0.16106 0.48503 0.25546 0.0
C2505 C 0.16433 0.47234 0.26945 0.0
C2506 C 0.17543 0.49157 0.24484 0.0
C2507 C 0.19329 0.48499 0.24748 0.0
C2508 C 0.19674 0.47278 0.26193 0.0
C2509 C 0.18232 0.46659 0.27299 0.0
C2510 C 0.2081 0.49079 0.23484 0.0
C2511 C 0.22426 0.49825 0.24209 0.0
C2512 C 0.20568 0.49025 0.21562 0.0
C2513 C 0.18972 0.48114 0.20695 0.0
C2514 C 0.18535 0.46292 0.21124 0.0
C2515 C 0.17017 0.4545 0.20321 0.0
C2516 C 0.1593 0.46412 0.19078 0.0
C2517 C 0.16362 0.48217 0.1863 0.0
C2518 C 0.17878 0.49066 0.1943 0.0
C2519 C 0.27735 0.51409 0.18327 0.0
C2520 C 0.2713 0.52762 0.171 0.0
C2521 C 0.2657 0.50758 0.19698 0.0
C2522 C 0.24788 0.51454 0.19862 0.0
C2523 C 0.24208 0.52853 0.18687 0.0
C2524 C 0.25371 0.53508 0.17324 0.0
C2525 C 0.23467 0.50633 0.21156 0.0
C2526 C 0.21888 0.49826 0.20429 0.0
C2527 C 0.23761 0.50604 0.23065 0.0
C2528 C 0.25413 0.51428 0.23904 0.0
C2529 C 0.25853 0.53273 0.23595 0.0
C2530 C 0.27425 0.54031 0.24376 0.0
C2531 C 0.28562 0.52962 0.2548 0.0
C2532 C 0.28125 0.51133 0.25809 0.0
C2533 C 0.26555 0.50367 0.25029 0.0
H2534 H 0.29779 0.53551 0.26083 0.0
H2535 H 0.14755 0.45758 0.18459 0.0
H2536 H 0.45671 0.71215 0.80851 0.0
H2537 H 0.46769 0.73095 0.78283 0.0
H2538 H 0.50337 0.76016 0.81976 0.0
H2539 H 0.49152 0.74239 0.84527 0.0
H2540 H 0.48724 0.78329 0.80045 0.0
H2541 H 0.5176 0.72599 0.7861 0.0
H2542 H 0.51872 0.69312 0.77877 0.0
H2543 H 0.48518 0.70227 0.73143 0.0
H2544 H 0.48368 0.73516 0.73861 0.0
H2545 H 0.54915 0.82883 0.7442 0.0
H2546 H 0.53662 0.80522 0.76415 0.0
H2547 H 0.49724 0.79071 0.72272 0.0
H2548 H 0.50981 0.81429 0.7025 0.0
H2549 H 0.51158 0.76026 0.7415 0.0
H2550 H 0.48397 0.81838 0.75539 0.0
H2551 H 0.48401 0.85119 0.76299 0.0
H2552 H 0.51406 0.84004 0.8122 0.0
H2553 H 0.51443 0.80719 0.80475 0.0
C2554 C 0.46698 0.72255 0.81096 0.0
C2555 C 0.47322 0.726 0.82877 0.0
C2556 C 0.47333 0.73321 0.79633 0.0
C2557 C 0.48646 0.74698 0.79929 0.0
C2558 C 0.49311 0.74981 0.81707 0.0
C2559 C 0.48639 0.73962 0.83165 0.0
C2560 C 0.49283 0.75924 0.78435 0.0
C2561 C 0.49276 0.77814 0.78768 0.0
C2562 C 0.4994 0.75272 0.76733 0.0
C2563 C 0.50036 0.73298 0.76301 0.0
C2564 C 0.51036 0.72096 0.7742 0.0
C2565 C 0.51108 0.70234 0.77006 0.0
C2566 C 0.50198 0.6956 0.75468 0.0
C2567 C 0.49219 0.70749 0.74336 0.0
C2568 C 0.49141 0.72612 0.74746 0.0
C2569 C 0.53801 0.82046 0.73918 0.0
C2570 C 0.53034 0.82359 0.72184 0.0
C2571 C 0.53084 0.807 0.75063 0.0
C2572 C 0.51581 0.79647 0.74501 0.0
C2573 C 0.5088 0.79877 0.72731 0.0
C2574 C 0.51598 0.81226 0.71581 0.0
C2575 C 0.50674 0.78401 0.75814 0.0
C2576 C 0.50606 0.76524 0.75434 0.0
C2577 C 0.49967 0.79057 0.77489 0.0
C2578 C 0.49934 0.81033 0.77943 0.0
C2579 C 0.4907 0.82294 0.76776 0.0
C2580 C 0.49063 0.84154 0.77205 0.0
C2581 C 0.49906 0.8477 0.78805 0.0
C2582 C 0.50754 0.83525 0.79981 0.0
C2583 C 0.50767 0.81664 0.79557 0.0
H2584 H 0.49899 0.8621 0.79135 0.0
H2585 H 0.50255 0.68118 0.7515 0.0
H2586 H 0.25736 0.44204 0.81265 0.0
H2587 H 0.23977 0.45566 0.78759 0.0
H2588 H 0.26702 0.50715 0.79631 0.0
H2589 H 0.28481 0.49367 0.82118 0.0
H2590 H 0.2275 0.50839 0.79608 0.0
H2591 H 0.27799 0.48488 0.76005 0.0
H2592 H 0.29886 0.46054 0.7496 0.0
H2593 H 0.25303 0.42957 0.72985 0.0
H2594 H 0.23187 0.45363 0.74041 0.0
H2595 H 0.1845 0.55517 0.72406 0.0
H2596 H 0.20867 0.54284 0.74364 0.0
H2597 H 0.19418 0.48815 0.72706 0.0
H2598 H 0.17065 0.50041 0.70691 0.0
H2599 H 0.22878 0.48923 0.73105 0.0
H2600 H 0.17816 0.50817 0.76769 0.0
H2601 H 0.15468 0.52901 0.78004 0.0
H2602 H 0.19676 0.56431 0.80079 0.0
H2603 H 0.22051 0.5438 0.78834 0.0
C2604 C 0.2598 0.45619 0.80906 0.0
C2605 C 0.27244 0.46678 0.81892 0.0
C2606 C 0.24976 0.46392 0.79474 0.0
C2607 C 0.25213 0.48239 0.79017 0.0
C2608 C 0.26503 0.49288 0.79968 0.0
C2609 C 0.27522 0.48511 0.81383 0.0
C2610 C 0.24042 0.49104 0.77615 0.0
C2611 C 0.22797 0.50448 0.78177 0.0
C2612 C 0.2406 0.48533 0.75772 0.0
C2613 C 0.25335 0.471 0.75114 0.0
C2614 C 0.27236 0.47283 0.75359 0.0
C2615 C 0.28424 0.45909 0.74763 0.0
C2616 C 0.27727 0.4435 0.7391 0.0
C2617 C 0.25841 0.44164 0.73646 0.0
C2618 C 0.24647 0.45534 0.74241 0.0
C2619 C 0.18671 0.54055 0.72434 0.0
C2620 C 0.17556 0.52877 0.71406 0.0
C2621 C 0.20043 0.5335 0.73565 0.0
C2622 C 0.20294 0.51452 0.7372 0.0
C2623 C 0.19247 0.50283 0.72618 0.0
C2624 C 0.17899 0.50987 0.71465 0.0
C2625 C 0.21578 0.50674 0.75089 0.0
C2626 C 0.22839 0.49337 0.74528 0.0
C2627 C 0.21535 0.5121 0.76951 0.0
C2628 C 0.20111 0.52457 0.77687 0.0
C2629 C 0.18241 0.52047 0.77474 0.0
C2630 C 0.16905 0.5322 0.78178 0.0
C2631 C 0.17422 0.54801 0.79113 0.0
C2632 C 0.19277 0.55209 0.7935 0.0
C2633 C 0.20619 0.54041 0.78645 0.0
H2634 H 0.16386 0.55706 0.79659 0.0
H2635 H 0.28649 0.43287 0.73451 0.0
H2636 H 0.44485 0.18087 0.73238 0.0
H2637 H 0.45775 0.20485 0.75185 0.0
H2638 H 0.511 0.19592 0.72796 0.0
H2639 H 0.49825 0.17217 0.70827 0.0
H2640 H 0.50888 0.19428 0.76783 0.0
H2641 H 0.49098 0.23281 0.71683 0.0
H2642 H 0.46869 0.24485 0.69454 0.0
H2643 H 0.4348 0.26435 0.73837 0.0
H2644 H 0.45678 0.2522 0.76093 0.0
H2645 H 0.55726 0.26388 0.81297 0.0
H2646 H 0.54464 0.24437 0.78898 0.0
H2647 H 0.49024 0.26376 0.80159 0.0
H2648 H 0.50282 0.28375 0.82507 0.0
H2649 H 0.49276 0.26011 0.76682 0.0
H2650 H 0.5067 0.22216 0.81767 0.0
H2651 H 0.52531 0.20849 0.84225 0.0
H2652 H 0.56207 0.18592 0.80237 0.0
H2653 H 0.54381 0.19968 0.77754 0.0
C2654 C 0.45924 0.18422 0.73105 0.0
C2655 C 0.47053 0.1746 0.71881 0.0
C2656 C 0.46657 0.1979 0.74217 0.0
C2657 C 0.48531 0.20206 0.74132 0.0
C2658 C 0.49651 0.19285 0.72879 0.0
C2659 C 0.48916 0.17936 0.7175 0.0
C2660 C 0.49345 0.2153 0.75419 0.0
C2661 C 0.50564 0.20874 0.76746 0.0
C2662 C 0.48851 0.23394 0.75412 0.0
C2663 C 0.47545 0.24147 0.74056 0.0
C2664 C 0.47871 0.23955 0.72171 0.0
C2665 C 0.46614 0.24642 0.70903 0.0
C2666 C 0.45032 0.25532 0.71504 0.0
C2667 C 0.44706 0.25744 0.73374 0.0
C2668 C 0.45957 0.25059 0.74648 0.0
C2669 C 0.54264 0.26414 0.81047 0.0
C2670 C 0.53104 0.27527 0.821 0.0
C2671 C 0.53542 0.2529 0.79684 0.0
C2672 C 0.51643 0.2523 0.79373 0.0
C2673 C 0.50492 0.26393 0.80375 0.0
C2674 C 0.51215 0.27535 0.8172 0.0
C2675 C 0.50848 0.23919 0.78045 0.0
C2676 C 0.4962 0.2457 0.76717 0.0
C2677 C 0.51289 0.22034 0.78087 0.0
C2678 C 0.52401 0.21215 0.79575 0.0
C2679 C 0.51885 0.21443 0.81415 0.0
C2680 C 0.52932 0.20664 0.82812 0.0
C2681 C 0.5449 0.19639 0.82388 0.0
C2682 C 0.55002 0.19389 0.80564 0.0
C2683 C 0.53961 0.20168 0.79161 0.0
H2684 H 0.55297 0.19035 0.83472 0.0
H2685 H 0.4406 0.26062 0.7052 0.0
H2686 H 0.72991 0.5248 0.84383 0.0
H2687 H 0.75514 0.50636 0.83124 0.0
H2688 H 0.72496 0.49967 0.78099 0.0
H2689 H 0.70004 0.51799 0.79337 0.0
H2690 H 0.74515 0.46901 0.7892 0.0
H2691 H 0.75299 0.53483 0.78514 0.0
H2692 H 0.75535 0.56582 0.79811 0.0
H2693 H 0.8015 0.54908 0.83043 0.0
H2694 H 0.79922 0.51788 0.81782 0.0
H2695 H 0.80809 0.4699 0.7145 0.0
H2696 H 0.78373 0.47671 0.73663 0.0
H2697 H 0.82329 0.47616 0.78038 0.0
H2698 H 0.84756 0.46913 0.75853 0.0
H2699 H 0.8006 0.50718 0.78009 0.0
H2700 H 0.79577 0.44234 0.77877 0.0
H2701 H 0.79313 0.41198 0.7645 0.0
H2702 H 0.7413 0.42707 0.74124 0.0
H2703 H 0.74376 0.45766 0.75513 0.0
C2704 C 0.72851 0.51889 0.83034 0.0
C2705 C 0.71322 0.52299 0.81944 0.0
C2706 C 0.7429 0.50844 0.82314 0.0
C2707 C 0.74199 0.50187 0.80508 0.0
C2708 C 0.72597 0.5046 0.79492 0.0
C2709 C 0.71179 0.51518 0.80197 0.0
C2710 C 0.75837 0.4945 0.79565 0.0
C2711 C 0.75731 0.4773 0.78725 0.0
C2712 C 0.7743 0.50526 0.79326 0.0
C2713 C 0.77578 0.524 0.80074 0.0
C2714 C 0.76355 0.53773 0.79512 0.0
C2715 C 0.76488 0.55533 0.80239 0.0
C2716 C 0.77853 0.5594 0.81513 0.0
C2717 C 0.79091 0.54589 0.82059 0.0
C2718 C 0.7896 0.52825 0.8134 0.0
C2719 C 0.81155 0.47114 0.72884 0.0
C2720 C 0.82972 0.46896 0.73477 0.0
C2721 C 0.79764 0.47494 0.74146 0.0
C2722 C 0.80175 0.47681 0.76014 0.0
C2723 C 0.81986 0.47469 0.76605 0.0
C2724 C 0.83369 0.47064 0.75352 0.0
C2725 C 0.78727 0.48181 0.7734 0.0
C2726 C 0.78866 0.49865 0.7824 0.0
C2727 C 0.77164 0.47076 0.77621 0.0
C2728 C 0.77004 0.45236 0.76786 0.0
C2729 C 0.78389 0.43926 0.77047 0.0
C2730 C 0.78241 0.42199 0.76248 0.0
C2731 C 0.76708 0.41761 0.75193 0.0
C2732 C 0.75318 0.43048 0.7494 0.0
C2733 C 0.7546 0.44779 0.75734 0.0
H2734 H 0.76596 0.40423 0.74575 0.0
H2735 H 0.77955 0.57303 0.82074 0.0
loop_
_geom_bond_atom_site_label_1
_geom_bond_atom_site_label_2
_geom_bond_distance
_geom_bond_site_symmetry_2
_ccdc_geom_bond_type
Mg0 O1 2.028 . S
Mg0 O7 1.986 . S
Mg0 O9 2.114 . S
Mg0 O10 2.251 . S
Mg0 O13 2.010 . S
O1 Mg0 2.028 . S
O1 C4 1.250 . S
O2 Mg3 2.028 . S
O2 C4 1.248 . S
Mg3 O2 2.028 . S
Mg3 O8 2.032 . S
Mg3 O10 2.079 . S
C4 O1 1.250 . S
C4 O2 1.248 . S
C5 O6 1.264 . S
C5 O13 1.249 . S
O6 C5 1.264 . S
O7 Mg0 1.986 . S
O7 C11 1.246 . S
O8 Mg3 2.032 . S
O8 C11 1.259 . S
O9 Mg0 2.114 . S
O9 C12 1.252 . S
O10 Mg0 2.251 . S
O10 Mg3 2.079 . S
O10 C12 1.273 . S
C11 O7 1.246 . S
C11 O8 1.259 . S
C12 O9 1.252 . S
C12 O10 1.273 . S
O13 Mg0 2.010 . S
O13 C5 1.249 . S
Mg14 O15 2.028 . S
Mg14 O21 1.986 . S
Mg14 O23 2.114 . S
Mg14 O24 2.251 . S
Mg14 O27 2.010 . S
O15 Mg14 2.028 . S
O15 C18 1.250 . S
O16 Mg17 2.028 . S
O16 C18 1.248 . S
Mg17 O16 2.028 . S
Mg17 O22 2.032 . S
Mg17 O24 2.079 . S
C18 O15 1.250 . S
C18 O16 1.248 . S
C19 O20 1.264 . S
C19 O27 1.249 . S
O20 C19 1.264 . S
O21 Mg14 1.986 . S
O21 C25 1.246 . S
O22 Mg17 2.032 . S
O22 C25 1.259 . S
O23 Mg14 2.114 . S
O23 C26 1.252 . S
O24 Mg14 2.251 . S
O24 Mg17 2.079 . S
O24 C26 1.273 . S
C25 O21 1.246 . S
C25 O22 1.259 . S
C26 O23 1.252 . S
C26 O24 1.273 . S
O27 Mg14 2.010 . S
O27 C19 1.249 . S
Mg28 O29 2.028 . S
Mg28 O35 1.986 . S
Mg28 O37 2.114 . S
Mg28 O38 2.251 . S
Mg28 O41 2.010 . S
O29 Mg28 2.028 . S
O29 C32 1.250 . S
O30 Mg31 2.028 . S
O30 C32 1.248 . S
Mg31 O30 2.028 . S
Mg31 O36 2.032 . S
Mg31 O38 2.079 . S
C32 O29 1.250 . S
C32 O30 1.248 . S
C33 O34 1.264 . S
C33 O41 1.249 . S
O34 C33 1.264 . S
O35 Mg28 1.986 . S
O35 C39 1.246 . S
O36 Mg31 2.032 . S
O36 C39 1.259 . S
O37 Mg28 2.114 . S
O37 C40 1.252 . S
O38 Mg28 2.251 . S
O38 Mg31 2.079 . S
O38 C40 1.273 . S
C39 O35 1.246 . S
C39 O36 1.259 . S
C40 O37 1.252 . S
C40 O38 1.273 . S
O41 Mg28 2.010 . S
O41 C33 1.249 . S
Mg42 O43 2.028 . S
Mg42 O49 1.986 . S
Mg42 O51 2.114 . S
Mg42 O52 2.251 . S
Mg42 O55 2.010 . S
O43 Mg42 2.028 . S
O43 C46 1.250 . S
O44 Mg45 2.028 . S
O44 C46 1.248 . S
Mg45 O44 2.028 . S
Mg45 O50 2.032 . S
Mg45 O52 2.079 . S
C46 O43 1.250 . S
C46 O44 1.248 . S
C47 O48 1.264 . S
C47 O55 1.249 . S
O48 C47 1.264 . S
O49 Mg42 1.986 . S
O49 C53 1.246 . S
O50 Mg45 2.032 . S
O50 C53 1.259 . S
O51 Mg42 2.114 . S
O51 C54 1.252 . S
O52 Mg42 2.251 . S
O52 Mg45 2.079 . S
O52 C54 1.273 . S
C53 O49 1.246 . S
C53 O50 1.259 . S
C54 O51 1.252 . S
C54 O52 1.273 . S
O55 Mg42 2.010 . S
O55 C47 1.249 . S
Mg56 O57 2.028 . S
Mg56 O63 1.986 . S
Mg56 O65 2.114 . S
Mg56 O66 2.251 . S
Mg56 O69 2.010 . S
O57 Mg56 2.028 . S
O57 C60 1.250 . S
O58 Mg59 2.028 . S
O58 C60 1.248 . S
Mg59 O58 2.028 . S
Mg59 O64 2.032 . S
Mg59 O66 2.079 . S
C60 O57 1.250 . S
C60 O58 1.248 . S
C61 O62 1.264 . S
C61 O69 1.249 . S
O62 C61 1.264 . S
O63 Mg56 1.986 . S
O63 C67 1.246 . S
O64 Mg59 2.032 . S
O64 C67 1.259 . S
O65 Mg56 2.114 . S
O65 C68 1.252 . S
O66 Mg56 2.251 . S
O66 Mg59 2.079 . S
O66 C68 1.273 . S
C67 O63 1.246 . S
C67 O64 1.259 . S
C68 O65 1.252 . S
C68 O66 1.273 . S
O69 Mg56 2.010 . S
O69 C61 1.249 . S
Mg70 O71 2.028 . S
Mg70 O77 1.986 . S
Mg70 O79 2.114 . S
Mg70 O80 2.251 . S
Mg70 O83 2.010 . S
O71 Mg70 2.028 . S
O71 C74 1.250 . S
O72 Mg73 2.028 . S
O72 C74 1.248 . S
Mg73 O72 2.028 . S
Mg73 O78 2.032 . S
Mg73 O80 2.079 . S
C74 O71 1.250 . S
C74 O72 1.248 . S
C75 O76 1.264 . S
C75 O83 1.249 . S
O76 C75 1.264 . S
O77 Mg70 1.986 . S
O77 C81 1.246 . S
O78 Mg73 2.032 . S
O78 C81 1.259 . S
O79 Mg70 2.114 . S
O79 C82 1.252 . S
O80 Mg70 2.251 . S
O80 Mg73 2.079 . S
O80 C82 1.273 . S
C81 O77 1.246 . S
C81 O78 1.259 . S
C82 O79 1.252 . S
C82 O80 1.273 . S
O83 Mg70 2.010 . S
O83 C75 1.249 . S
Mg84 O85 2.028 . S
Mg84 O91 1.986 . S
Mg84 O93 2.114 . S
Mg84 O94 2.251 . S
Mg84 O97 2.010 . S
O85 Mg84 2.028 . S
O85 C88 1.250 . S
O86 Mg87 2.028 . S
O86 C88 1.248 . S
Mg87 O86 2.028 . S
Mg87 O92 2.032 . S
Mg87 O94 2.079 . S
C88 O85 1.250 . S
C88 O86 1.248 . S
C89 O90 1.264 . S
C89 O97 1.249 . S
O90 C89 1.264 . S
O91 Mg84 1.986 . S
O91 C95 1.246 . S
O92 Mg87 2.032 . S
O92 C95 1.259 . S
O93 Mg84 2.114 . S
O93 C96 1.252 . S
O94 Mg84 2.251 . S
O94 Mg87 2.079 . S
O94 C96 1.273 . S
C95 O91 1.246 . S
C95 O92 1.259 . S
C96 O93 1.252 . S
C96 O94 1.273 . S
O97 Mg84 2.010 . S
O97 C89 1.249 . S
Mg98 O99 2.028 . S
Mg98 O105 1.986 . S
Mg98 O107 2.114 . S
Mg98 O108 2.251 . S
Mg98 O111 2.010 . S
O99 Mg98 2.028 . S
O99 C102 1.250 . S
O100 Mg101 2.028 . S
O100 C102 1.248 . S
Mg101 O100 2.028 . S
Mg101 O106 2.032 . S
Mg101 O108 2.079 . S
C102 O99 1.250 . S
C102 O100 1.248 . S
C103 O104 1.264 . S
C103 O111 1.249 . S
O104 C103 1.264 . S
O105 Mg98 1.986 . S
O105 C109 1.246 . S
O106 Mg101 2.032 . S
O106 C109 1.259 . S
O107 Mg98 2.114 . S
O107 C110 1.252 . S
O108 Mg98 2.251 . S
O108 Mg101 2.079 . S
O108 C110 1.273 . S
C109 O105 1.246 . S
C109 O106 1.259 . S
C110 O107 1.252 . S
C110 O108 1.273 . S
O111 Mg98 2.010 . S
O111 C103 1.249 . S
Mg112 O113 2.028 . S
Mg112 O119 1.986 . S
Mg112 O121 2.114 . S
Mg112 O122 2.251 . S
Mg112 O125 2.010 . S
O113 Mg112 2.028 . S
O113 C116 1.250 . S
O114 Mg115 2.028 . S
O114 C116 1.248 . S
Mg115 O114 2.028 . S
Mg115 O120 2.032 . S
Mg115 O122 2.079 . S
C116 O113 1.250 . S
C116 O114 1.248 . S
C117 O118 1.264 . S
C117 O125 1.249 . S
O118 C117 1.264 . S
O119 Mg112 1.986 . S
O119 C123 1.246 . S
O120 Mg115 2.032 . S
O120 C123 1.259 . S
O121 Mg112 2.114 . S
O121 C124 1.252 . S
O122 Mg112 2.251 . S
O122 Mg115 2.079 . S
O122 C124 1.273 . S
C123 O119 1.246 . S
C123 O120 1.259 . S
C124 O121 1.252 . S
C124 O122 1.273 . S
O125 Mg112 2.010 . S
O125 C117 1.249 . S
Mg126 O127 2.028 . S
Mg126 O133 1.986 . S
Mg126 O135 2.114 . S
Mg126 O136 2.251 . S
Mg126 O139 2.010 . S
O127 Mg126 2.028 . S
O127 C130 1.250 . S
O128 Mg129 2.028 . S
O128 C130 1.248 . S
Mg129 O128 2.028 . S
Mg129 O134 2.032 . S
Mg129 O136 2.079 . S
C130 O127 1.250 . S
C130 O128 1.248 . S
C131 O132 1.264 . S
C131 O139 1.249 . S
O132 C131 1.264 . S
O133 Mg126 1.986 . S
O133 C137 1.246 . S
O134 Mg129 2.032 . S
O134 C137 1.259 . S
O135 Mg126 2.114 . S
O135 C138 1.252 . S
O136 Mg126 2.251 . S
O136 Mg129 2.079 . S
O136 C138 1.273 . S
C137 O133 1.246 . S
C137 O134 1.259 . S
C138 O135 1.252 . S
C138 O136 1.273 . S
O139 Mg126 2.010 . S
O139 C131 1.249 . S
Mg140 O141 2.028 . S
Mg140 O147 1.986 . S
Mg140 O149 2.114 . S
Mg140 O150 2.251 . S
Mg140 O153 2.010 . S
O141 Mg140 2.028 . S
O141 C144 1.250 . S
O142 Mg143 2.028 . S
O142 C144 1.248 . S
Mg143 O142 2.028 . S
Mg143 O148 2.032 . S
Mg143 O150 2.079 . S
C144 O141 1.250 . S
C144 O142 1.248 . S
C145 O146 1.264 . S
C145 O153 1.249 . S
O146 C145 1.264 . S
O147 Mg140 1.986 . S
O147 C151 1.246 . S
O148 Mg143 2.032 . S
O148 C151 1.259 . S
O149 Mg140 2.114 . S
O149 C152 1.252 . S
O150 Mg140 2.251 . S
O150 Mg143 2.079 . S
O150 C152 1.273 . S
C151 O147 1.246 . S
C151 O148 1.259 . S
C152 O149 1.252 . S
C152 O150 1.273 . S
O153 Mg140 2.010 . S
O153 C145 1.249 . S
Mg154 O155 2.028 . S
Mg154 O161 1.986 . S
Mg154 O163 2.114 . S
Mg154 O164 2.251 . S
Mg154 O167 2.010 . S
O155 Mg154 2.028 . S
O155 C158 1.250 . S
O156 Mg157 2.028 . S
O156 C158 1.248 . S
Mg157 O156 2.028 . S
Mg157 O162 2.032 . S
Mg157 O164 2.079 . S
C158 O155 1.250 . S
C158 O156 1.248 . S
C159 O160 1.264 . S
C159 O167 1.249 . S
O160 C159 1.264 . S
O161 Mg154 1.986 . S
O161 C165 1.246 . S
O162 Mg157 2.032 . S
O162 C165 1.259 . S
O163 Mg154 2.114 . S
O163 C166 1.252 . S
O164 Mg154 2.251 . S
O164 Mg157 2.079 . S
O164 C166 1.273 . S
C165 O161 1.246 . S
C165 O162 1.259 . S
C166 O163 1.252 . S
C166 O164 1.273 . S
O167 Mg154 2.010 . S
O167 C159 1.249 . S
Mg168 O169 2.028 . S
Mg168 O175 1.986 . S
Mg168 O177 2.114 . S
Mg168 O178 2.251 . S
Mg168 O181 2.010 . S
O169 Mg168 2.028 . S
O169 C172 1.250 . S
O170 Mg171 2.028 . S
O170 C172 1.248 . S
Mg171 O170 2.028 . S
Mg171 O176 2.032 . S
Mg171 O178 2.079 . S
C172 O169 1.250 . S
C172 O170 1.248 . S
C173 O174 1.264 . S
C173 O181 1.249 . S
O174 C173 1.264 . S
O175 Mg168 1.986 . S
O175 C179 1.246 . S
O176 Mg171 2.032 . S
O176 C179 1.259 . S
O177 Mg168 2.114 . S
O177 C180 1.252 . S
O178 Mg168 2.251 . S
O178 Mg171 2.079 . S
O178 C180 1.273 . S
C179 O175 1.246 . S
C179 O176 1.259 . S
C180 O177 1.252 . S
C180 O178 1.273 . S
O181 Mg168 2.010 . S
O181 C173 1.249 . S
Mg182 O183 2.028 . S
Mg182 O189 1.986 . S
Mg182 O191 2.114 . S
Mg182 O192 2.251 . S
Mg182 O195 2.010 . S
O183 Mg182 2.028 . S
O183 C186 1.250 . S
O184 Mg185 2.028 . S
O184 C186 1.248 . S
Mg185 O184 2.028 . S
Mg185 O190 2.032 . S
Mg185 O192 2.079 . S
C186 O183 1.250 . S
C186 O184 1.248 . S
C187 O188 1.264 . S
C187 O195 1.249 . S
O188 C187 1.264 . S
O189 Mg182 1.986 . S
O189 C193 1.246 . S
O190 Mg185 2.032 . S
O190 C193 1.259 . S
O191 Mg182 2.114 . S
O191 C194 1.252 . S
O192 Mg182 2.251 . S
O192 Mg185 2.079 . S
O192 C194 1.273 . S
C193 O189 1.246 . S
C193 O190 1.259 . S
C194 O191 1.252 . S
C194 O192 1.273 . S
O195 Mg182 2.010 . S
O195 C187 1.249 . S
Mg196 O197 2.028 . S
Mg196 O203 1.986 . S
Mg196 O205 2.114 . S
Mg196 O206 2.251 . S
Mg196 O209 2.010 . S
O197 Mg196 2.028 . S
O197 C200 1.250 . S
O198 Mg199 2.028 . S
O198 C200 1.248 . S
Mg199 O198 2.028 . S
Mg199 O204 2.032 . S
Mg199 O206 2.079 . S
C200 O197 1.250 . S
C200 O198 1.248 . S
C201 O202 1.264 . S
C201 O209 1.249 . S
O202 C201 1.264 . S
O203 Mg196 1.986 . S
O203 C207 1.246 . S
O204 Mg199 2.032 . S
O204 C207 1.259 . S
O205 Mg196 2.114 . S
O205 C208 1.252 . S
O206 Mg196 2.251 . S
O206 Mg199 2.079 . S
O206 C208 1.273 . S
C207 O203 1.246 . S
C207 O204 1.259 . S
C208 O205 1.252 . S
C208 O206 1.273 . S
O209 Mg196 2.010 . S
O209 C201 1.249 . S
Mg210 O211 2.028 . S
Mg210 O217 1.986 . S
Mg210 O219 2.114 . S
Mg210 O220 2.251 . S
Mg210 O223 2.010 . S
O211 Mg210 2.028 . S
O211 C214 1.250 . S
O212 Mg213 2.028 . S
O212 C214 1.248 . S
Mg213 O212 2.028 . S
Mg213 O218 2.032 . S
Mg213 O220 2.079 . S
C214 O211 1.250 . S
C214 O212 1.248 . S
C215 O216 1.264 . S
C215 O223 1.249 . S
O216 C215 1.264 . S
O217 Mg210 1.986 . S
O217 C221 1.246 . S
O218 Mg213 2.032 . S
O218 C221 1.259 . S
O219 Mg210 2.114 . S
O219 C222 1.252 . S
O220 Mg210 2.251 . S
O220 Mg213 2.079 . S
O220 C222 1.273 . S
C221 O217 1.246 . S
C221 O218 1.259 . S
C222 O219 1.252 . S
C222 O220 1.273 . S
O223 Mg210 2.010 . S
O223 C215 1.249 . S
Mg224 O225 2.028 . S
Mg224 O231 1.986 . S
Mg224 O233 2.114 . S
Mg224 O234 2.251 . S
Mg224 O237 2.010 . S
O225 Mg224 2.028 . S
O225 C228 1.250 . S
O226 Mg227 2.028 . S
O226 C228 1.248 . S
Mg227 O226 2.028 . S
Mg227 O232 2.032 . S
Mg227 O234 2.079 . S
C228 O225 1.250 . S
C228 O226 1.248 . S
C229 O230 1.264 . S
C229 O237 1.249 . S
O230 C229 1.264 . S
O231 Mg224 1.986 . S
O231 C235 1.246 . S
O232 Mg227 2.032 . S
O232 C235 1.259 . S
O233 Mg224 2.114 . S
O233 C236 1.252 . S
O234 Mg224 2.251 . S
O234 Mg227 2.079 . S
O234 C236 1.273 . S
C235 O231 1.246 . S
C235 O232 1.259 . S
C236 O233 1.252 . S
C236 O234 1.273 . S
O237 Mg224 2.010 . S
O237 C229 1.249 . S
Mg238 O239 2.028 . S
Mg238 O245 1.986 . S
Mg238 O247 2.114 . S
Mg238 O248 2.251 . S
Mg238 O251 2.010 . S
O239 Mg238 2.028 . S
O239 C242 1.250 . S
O240 Mg241 2.028 . S
O240 C242 1.248 . S
Mg241 O240 2.028 . S
Mg241 O246 2.032 . S
Mg241 O248 2.079 . S
C242 O239 1.250 . S
C242 O240 1.248 . S
C243 O244 1.264 . S
C243 O251 1.249 . S
O244 C243 1.264 . S
O245 Mg238 1.986 . S
O245 C249 1.246 . S
O246 Mg241 2.032 . S
O246 C249 1.259 . S
O247 Mg238 2.114 . S
O247 C250 1.252 . S
O248 Mg238 2.251 . S
O248 Mg241 2.079 . S
O248 C250 1.273 . S
C249 O245 1.246 . S
C249 O246 1.259 . S
C250 O247 1.252 . S
C250 O248 1.273 . S
O251 Mg238 2.010 . S
O251 C243 1.249 . S
Mg252 O253 2.028 . S
Mg252 O259 1.986 . S
Mg252 O261 2.114 . S
Mg252 O262 2.251 . S
Mg252 O265 2.010 . S
O253 Mg252 2.028 . S
O253 C256 1.250 . S
O254 Mg255 2.028 . S
O254 C256 1.248 . S
Mg255 O254 2.028 . S
Mg255 O260 2.032 . S
Mg255 O262 2.079 . S
C256 O253 1.250 . S
C256 O254 1.248 . S
C257 O258 1.264 . S
C257 O265 1.249 . S
O258 C257 1.264 . S
O259 Mg252 1.986 . S
O259 C263 1.246 . S
O260 Mg255 2.032 . S
O260 C263 1.259 . S
O261 Mg252 2.114 . S
O261 C264 1.252 . S
O262 Mg252 2.251 . S
O262 Mg255 2.079 . S
O262 C264 1.273 . S
C263 O259 1.246 . S
C263 O260 1.259 . S
C264 O261 1.252 . S
C264 O262 1.273 . S
O265 Mg252 2.010 . S
O265 C257 1.249 . S
Mg266 O267 2.028 . S
Mg266 O273 1.986 . S
Mg266 O275 2.114 . S
Mg266 O276 2.251 . S
Mg266 O279 2.010 . S
O267 Mg266 2.028 . S
O267 C270 1.250 . S
O268 Mg269 2.028 . S
O268 C270 1.248 . S
Mg269 O268 2.028 . S
Mg269 O274 2.032 . S
Mg269 O276 2.079 . S
C270 O267 1.250 . S
C270 O268 1.248 . S
C271 O272 1.264 . S
C271 O279 1.249 . S
O272 C271 1.264 . S
O273 Mg266 1.986 . S
O273 C277 1.246 . S
O274 Mg269 2.032 . S
O274 C277 1.259 . S
O275 Mg266 2.114 . S
O275 C278 1.252 . S
O276 Mg266 2.251 . S
O276 Mg269 2.079 . S
O276 C278 1.273 . S
C277 O273 1.246 . S
C277 O274 1.259 . S
C278 O275 1.252 . S
C278 O276 1.273 . S
O279 Mg266 2.010 . S
O279 C271 1.249 . S
Mg280 O281 2.028 . S
Mg280 O287 1.986 . S
Mg280 O289 2.114 . S
Mg280 O290 2.251 . S
Mg280 O293 2.010 . S
O281 Mg280 2.028 . S
O281 C284 1.250 . S
O282 Mg283 2.028 . S
O282 C284 1.248 . S
Mg283 O282 2.028 . S
Mg283 O288 2.032 . S
Mg283 O290 2.079 . S
C284 O281 1.250 . S
C284 O282 1.248 . S
C285 O286 1.264 . S
C285 O293 1.249 . S
O286 C285 1.264 . S
O287 Mg280 1.986 . S
O287 C291 1.246 . S
O288 Mg283 2.032 . S
O288 C291 1.259 . S
O289 Mg280 2.114 . S
O289 C292 1.252 . S
O290 Mg280 2.251 . S
O290 Mg283 2.079 . S
O290 C292 1.273 . S
C291 O287 1.246 . S
C291 O288 1.259 . S
C292 O289 1.252 . S
C292 O290 1.273 . S
O293 Mg280 2.010 . S
O293 C285 1.249 . S
Mg294 O295 2.028 . S
Mg294 O301 1.986 . S
Mg294 O303 2.114 . S
Mg294 O304 2.251 . S
Mg294 O307 2.010 . S
O295 Mg294 2.028 . S
O295 C298 1.250 . S
O296 Mg297 2.028 . S
O296 C298 1.248 . S
Mg297 O296 2.028 . S
Mg297 O302 2.032 . S
Mg297 O304 2.079 . S
C298 O295 1.250 . S
C298 O296 1.248 . S
C299 O300 1.264 . S
C299 O307 1.249 . S
O300 C299 1.264 . S
O301 Mg294 1.986 . S
O301 C305 1.246 . S
O302 Mg297 2.032 . S
O302 C305 1.259 . S
O303 Mg294 2.114 . S
O303 C306 1.252 . S
O304 Mg294 2.251 . S
O304 Mg297 2.079 . S
O304 C306 1.273 . S
C305 O301 1.246 . S
C305 O302 1.259 . S
C306 O303 1.252 . S
C306 O304 1.273 . S
O307 Mg294 2.010 . S
O307 C299 1.249 . S
Mg308 O309 2.028 . S
Mg308 O315 1.986 . S
Mg308 O317 2.114 . S
Mg308 O318 2.251 . S
Mg308 O321 2.010 . S
O309 Mg308 2.028 . S
O309 C312 1.250 . S
O310 Mg311 2.028 . S
O310 C312 1.248 . S
Mg311 O310 2.028 . S
Mg311 O316 2.032 . S
Mg311 O318 2.079 . S
C312 O309 1.250 . S
C312 O310 1.248 . S
C313 O314 1.264 . S
C313 O321 1.249 . S
O314 C313 1.264 . S
O315 Mg308 1.986 . S
O315 C319 1.246 . S
O316 Mg311 2.032 . S
O316 C319 1.259 . S
O317 Mg308 2.114 . S
O317 C320 1.252 . S
O318 Mg308 2.251 . S
O318 Mg311 2.079 . S
O318 C320 1.273 . S
C319 O315 1.246 . S
C319 O316 1.259 . S
C320 O317 1.252 . S
C320 O318 1.273 . S
O321 Mg308 2.010 . S
O321 C313 1.249 . S
Mg322 O323 2.028 . S
Mg322 O329 1.986 . S
Mg322 O331 2.114 . S
Mg322 O332 2.251 . S
Mg322 O335 2.010 . S
O323 Mg322 2.028 . S
O323 C326 1.250 . S
O324 Mg325 2.028 . S
O324 C326 1.248 . S
Mg325 O324 2.028 . S
Mg325 O330 2.032 . S
Mg325 O332 2.079 . S
C326 O323 1.250 . S
C326 O324 1.248 . S
C327 O328 1.264 . S
C327 O335 1.249 . S
O328 C327 1.264 . S
O329 Mg322 1.986 . S
O329 C333 1.246 . S
O330 Mg325 2.032 . S
O330 C333 1.259 . S
O331 Mg322 2.114 . S
O331 C334 1.252 . S
O332 Mg322 2.251 . S
O332 Mg325 2.079 . S
O332 C334 1.273 . S
C333 O329 1.246 . S
C333 O330 1.259 . S
C334 O331 1.252 . S
C334 O332 1.273 . S
O335 Mg322 2.010 . S
O335 C327 1.249 . S
H336 C354 0.951 . S
H337 C356 0.951 . S
H338 C358 0.950 . S
H339 C359 0.950 . S
H340 C361 0.950 . S
H341 C364 0.950 . S
H342 C365 0.950 . S
H343 C367 0.950 . S
H344 C368 0.950 . S
H345 C369 0.951 . S
H346 C371 0.951 . S
H347 C373 0.950 . S
H348 C374 0.950 . S
H349 C376 0.950 . S
H350 C379 0.950 . S
H351 C380 0.950 . S
H352 C382 0.950 . S
H353 C383 0.950 . S
C354 H336 0.951 . S
C354 C355 1.366 . S
C354 C356 1.388 . S
C355 C354 1.366 . S
C355 C359 1.385 . S
C356 H337 0.951 . S
C356 C354 1.388 . S
C356 C357 1.366 . S
C357 C356 1.366 . S
C357 C358 1.414 . S
C357 C360 1.499 . S
C358 H338 0.950 . S
C358 C357 1.414 . S
C358 C359 1.374 . S
C359 H339 0.950 . S
C359 C355 1.385 . S
C359 C358 1.374 . S
C360 C357 1.499 . S
C360 C361 1.373 . S
C360 C362 1.389 . S
C361 H340 0.950 . S
C361 C360 1.373 . S
C361 C377 1.377 . S
C362 C360 1.389 . S
C362 C363 1.524 . S
C362 C376 1.377 . S
C363 C362 1.524 . S
C363 C364 1.397 . S
C363 C368 1.363 . S
C364 H341 0.950 . S
C364 C363 1.397 . S
C364 C365 1.334 . S
C365 H342 0.950 . S
C365 C364 1.334 . S
C365 C366 1.287 . S
C366 C365 1.287 . S
C366 C367 1.524 . S
C366 H385 0.913 . S
C367 H343 0.950 . S
C367 C366 1.524 . S
C367 C368 1.415 . S
C368 H344 0.950 . S
C368 C363 1.363 . S
C368 C367 1.415 . S
C369 H345 0.951 . S
C369 C370 1.366 . S
C369 C371 1.388 . S
C370 C369 1.366 . S
C370 C374 1.385 . S
C371 H346 0.951 . S
C371 C369 1.388 . S
C371 C372 1.366 . S
C372 C371 1.366 . S
C372 C373 1.414 . S
C372 C375 1.499 . S
C373 H347 0.950 . S
C373 C372 1.414 . S
C373 C374 1.374 . S
C374 H348 0.950 . S
C374 C370 1.385 . S
C374 C373 1.374 . S
C375 C372 1.499 . S
C375 C376 1.373 . S
C375 C377 1.389 . S
C376 H349 0.950 . S
C376 C362 1.377 . S
C376 C375 1.373 . S
C377 C361 1.377 . S
C377 C375 1.389 . S
C377 C378 1.524 . S
C378 C377 1.524 . S
C378 C379 1.397 . S
C378 C383 1.363 . S
C379 H350 0.950 . S
C379 C378 1.397 . S
C379 C380 1.334 . S
C380 H351 0.950 . S
C380 C379 1.334 . S
C380 C381 1.287 . S
C381 C380 1.287 . S
C381 C382 1.524 . S
C381 H384 0.999 . S
C382 H352 0.950 . S
C382 C381 1.524 . S
C382 C383 1.415 . S
C383 H353 0.950 . S
C383 C378 1.363 . S
C383 C382 1.415 . S
H384 C381 0.999 . S
H385 C366 0.913 . S
H386 C404 0.951 . S
H387 C406 0.951 . S
H388 C408 0.950 . S
H389 C409 0.950 . S
H390 C411 0.950 . S
H391 C414 0.950 . S
H392 C415 0.950 . S
H393 C417 0.950 . S
H394 C418 0.950 . S
H395 C419 0.951 . S
H396 C421 0.951 . S
H397 C423 0.950 . S
H398 C424 0.950 . S
H399 C426 0.950 . S
H400 C429 0.950 . S
H401 C430 0.950 . S
H402 C432 0.950 . S
H403 C433 0.950 . S
C404 H386 0.951 . S
C404 C405 1.366 . S
C404 C406 1.388 . S
C405 C404 1.366 . S
C405 C409 1.385 . S
C406 H387 0.951 . S
C406 C404 1.388 . S
C406 C407 1.366 . S
C407 C406 1.366 . S
C407 C408 1.414 . S
C407 C410 1.499 . S
C408 H388 0.950 . S
C408 C407 1.414 . S
C408 C409 1.374 . S
C409 H389 0.950 . S
C409 C405 1.385 . S
C409 C408 1.374 . S
C410 C407 1.499 . S
C410 C411 1.373 . S
C410 C412 1.389 . S
C411 H390 0.950 . S
C411 C410 1.373 . S
C411 C427 1.377 . S
C412 C410 1.389 . S
C412 C413 1.524 . S
C412 C426 1.377 . S
C413 C412 1.524 . S
C413 C414 1.397 . S
C413 C418 1.363 . S
C414 H391 0.950 . S
C414 C413 1.397 . S
C414 C415 1.334 . S
C415 H392 0.950 . S
C415 C414 1.334 . S
C415 C416 1.287 . S
C416 C415 1.287 . S
C416 C417 1.524 . S
C416 H435 0.913 . S
C417 H393 0.950 . S
C417 C416 1.524 . S
C417 C418 1.415 . S
C418 H394 0.950 . S
C418 C413 1.363 . S
C418 C417 1.415 . S
C419 H395 0.951 . S
C419 C420 1.366 . S
C419 C421 1.388 . S
C420 C419 1.366 . S
C420 C424 1.385 . S
C421 H396 0.951 . S
C421 C419 1.388 . S
C421 C422 1.366 . S
C422 C421 1.366 . S
C422 C423 1.414 . S
C422 C425 1.499 . S
C423 H397 0.950 . S
C423 C422 1.414 . S
C423 C424 1.374 . S
C424 H398 0.950 . S
C424 C420 1.385 . S
C424 C423 1.374 . S
C425 C422 1.499 . S
C425 C426 1.373 . S
C425 C427 1.389 . S
C426 H399 0.950 . S
C426 C412 1.377 . S
C426 C425 1.373 . S
C427 C411 1.377 . S
C427 C425 1.389 . S
C427 C428 1.524 . S
C428 C427 1.524 . S
C428 C429 1.397 . S
C428 C433 1.363 . S
C429 H400 0.950 . S
C429 C428 1.397 . S
C429 C430 1.334 . S
C430 H401 0.950 . S
C430 C429 1.334 . S
C430 C431 1.287 . S
C431 C430 1.287 . S
C431 C432 1.524 . S
C431 H434 0.999 . S
C432 H402 0.950 . S
C432 C431 1.524 . S
C432 C433 1.415 . S
C433 H403 0.950 . S
C433 C428 1.363 . S
C433 C432 1.415 . S
H434 C431 0.999 . S
H435 C416 0.913 . S
H436 C454 0.951 . S
H437 C456 0.951 . S
H438 C458 0.950 . S
H439 C459 0.950 . S
H440 C461 0.950 . S
H441 C464 0.950 . S
H442 C465 0.950 . S
H443 C467 0.950 . S
H444 C468 0.950 . S
H445 C469 0.951 . S
H446 C471 0.951 . S
H447 C473 0.950 . S
H448 C474 0.950 . S
H449 C476 0.950 . S
H450 C479 0.950 . S
H451 C480 0.950 . S
H452 C482 0.950 . S
H453 C483 0.950 . S
C454 H436 0.951 . S
C454 C455 1.366 . S
C454 C456 1.388 . S
C455 C454 1.366 . S
C455 C459 1.385 . S
C456 H437 0.951 . S
C456 C454 1.388 . S
C456 C457 1.366 . S
C457 C456 1.366 . S
C457 C458 1.414 . S
C457 C460 1.499 . S
C458 H438 0.950 . S
C458 C457 1.414 . S
C458 C459 1.374 . S
C459 H439 0.950 . S
C459 C455 1.385 . S
C459 C458 1.374 . S
C460 C457 1.499 . S
C460 C461 1.373 . S
C460 C462 1.389 . S
C461 H440 0.950 . S
C461 C460 1.373 . S
C461 C477 1.377 . S
C462 C460 1.389 . S
C462 C463 1.524 . S
C462 C476 1.377 . S
C463 C462 1.524 . S
C463 C464 1.397 . S
C463 C468 1.363 . S
C464 H441 0.950 . S
C464 C463 1.397 . S
C464 C465 1.334 . S
C465 H442 0.950 . S
C465 C464 1.334 . S
C465 C466 1.287 . S
C466 C465 1.287 . S
C466 C467 1.524 . S
C466 H485 0.913 . S
C467 H443 0.950 . S
C467 C466 1.524 . S
C467 C468 1.415 . S
C468 H444 0.950 . S
C468 C463 1.363 . S
C468 C467 1.415 . S
C469 H445 0.951 . S
C469 C470 1.366 . S
C469 C471 1.388 . S
C470 C469 1.366 . S
C470 C474 1.385 . S
C471 H446 0.951 . S
C471 C469 1.388 . S
C471 C472 1.366 . S
C472 C471 1.366 . S
C472 C473 1.414 . S
C472 C475 1.499 . S
C473 H447 0.950 . S
C473 C472 1.414 . S
C473 C474 1.374 . S
C474 H448 0.950 . S
C474 C470 1.385 . S
C474 C473 1.374 . S
C475 C472 1.499 . S
C475 C476 1.373 . S
C475 C477 1.389 . S
C476 H449 0.950 . S
C476 C462 1.377 . S
C476 C475 1.373 . S
C477 C461 1.377 . S
C477 C475 1.389 . S
C477 C478 1.524 . S
C478 C477 1.524 . S
C478 C479 1.397 . S
C478 C483 1.363 . S
C479 H450 0.950 . S
C479 C478 1.397 . S
C479 C480 1.334 . S
C480 H451 0.950 . S
C480 C479 1.334 . S
C480 C481 1.287 . S
C481 C480 1.287 . S
C481 C482 1.524 . S
C481 H484 0.999 . S
C482 H452 0.950 . S
C482 C481 1.524 . S
C482 C483 1.415 . S
C483 H453 0.950 . S
C483 C478 1.363 . S
C483 C482 1.415 . S
H484 C481 0.999 . S
H485 C466 0.913 . S
H486 C504 0.951 . S
H487 C506 0.951 . S
H488 C508 0.950 . S
H489 C509 0.950 . S
H490 C511 0.950 . S
H491 C514 0.950 . S
H492 C515 0.950 . S
H493 C517 0.950 . S
H494 C518 0.950 . S
H495 C519 0.951 . S
H496 C521 0.951 . S
H497 C523 0.950 . S
H498 C524 0.950 . S
H499 C526 0.950 . S
H500 C529 0.950 . S
H501 C530 0.950 . S
H502 C532 0.950 . S
H503 C533 0.950 . S
C504 H486 0.951 . S
C504 C505 1.366 . S
C504 C506 1.388 . S
C505 C504 1.366 . S
C505 C509 1.385 . S
C506 H487 0.951 . S
C506 C504 1.388 . S
C506 C507 1.366 . S
C507 C506 1.366 . S
C507 C508 1.414 . S
C507 C510 1.499 . S
C508 H488 0.950 . S
C508 C507 1.414 . S
C508 C509 1.374 . S
C509 H489 0.950 . S
C509 C505 1.385 . S
C509 C508 1.374 . S
C510 C507 1.499 . S
C510 C511 1.373 . S
C510 C512 1.389 . S
C511 H490 0.950 . S
C511 C510 1.373 . S
C511 C527 1.377 . S
C512 C510 1.389 . S
C512 C513 1.524 . S
C512 C526 1.377 . S
C513 C512 1.524 . S
C513 C514 1.397 . S
C513 C518 1.363 . S
C514 H491 0.950 . S
C514 C513 1.397 . S
C514 C515 1.334 . S
C515 H492 0.950 . S
C515 C514 1.334 . S
C515 C516 1.287 . S
C516 C515 1.287 . S
C516 C517 1.524 . S
C516 H535 0.913 . S
C517 H493 0.950 . S
C517 C516 1.524 . S
C517 C518 1.415 . S
C518 H494 0.950 . S
C518 C513 1.363 . S
C518 C517 1.415 . S
C519 H495 0.951 . S
C519 C520 1.366 . S
C519 C521 1.388 . S
C520 C519 1.366 . S
C520 C524 1.385 . S
C521 H496 0.951 . S
C521 C519 1.388 . S
C521 C522 1.366 . S
C522 C521 1.366 . S
C522 C523 1.414 . S
C522 C525 1.499 . S
C523 H497 0.950 . S
C523 C522 1.414 . S
C523 C524 1.374 . S
C524 H498 0.950 . S
C524 C520 1.385 . S
C524 C523 1.374 . S
C525 C522 1.499 . S
C525 C526 1.373 . S
C525 C527 1.389 . S
C526 H499 0.950 . S
C526 C512 1.377 . S
C526 C525 1.373 . S
C527 C511 1.377 . S
C527 C525 1.389 . S
C527 C528 1.524 . S
C528 C527 1.524 . S
C528 C529 1.397 . S
C528 C533 1.363 . S
C529 H500 0.950 . S
C529 C528 1.397 . S
C529 C530 1.334 . S
C530 H501 0.950 . S
C530 C529 1.334 . S
C530 C531 1.287 . S
C531 C530 1.287 . S
C531 C532 1.524 . S
C531 H534 0.999 . S
C532 H502 0.950 . S
C532 C531 1.524 . S
C532 C533 1.415 . S
C533 H503 0.950 . S
C533 C528 1.363 . S
C533 C532 1.415 . S
H534 C531 0.999 . S
H535 C516 0.913 . S
H536 C554 0.951 . S
H537 C556 0.951 . S
H538 C558 0.950 . S
H539 C559 0.950 . S
H540 C561 0.950 . S
H541 C564 0.950 . S
H542 C565 0.950 . S
H543 C567 0.950 . S
H544 C568 0.950 . S
H545 C569 0.951 . S
H546 C571 0.951 . S
H547 C573 0.950 . S
H548 C574 0.950 . S
H549 C576 0.950 . S
H550 C579 0.950 . S
H551 C580 0.950 . S
H552 C582 0.950 . S
H553 C583 0.950 . S
C554 H536 0.951 . S
C554 C555 1.366 . S
C554 C556 1.388 . S
C555 C554 1.366 . S
C555 C559 1.385 . S
C556 H537 0.951 . S
C556 C554 1.388 . S
C556 C557 1.366 . S
C557 C556 1.366 . S
C557 C558 1.414 . S
C557 C560 1.499 . S
C558 H538 0.950 . S
C558 C557 1.414 . S
C558 C559 1.374 . S
C559 H539 0.950 . S
C559 C555 1.385 . S
C559 C558 1.374 . S
C560 C557 1.499 . S
C560 C561 1.373 . S
C560 C562 1.389 . S
C561 H540 0.950 . S
C561 C560 1.373 . S
C561 C577 1.377 . S
C562 C560 1.389 . S
C562 C563 1.524 . S
C562 C576 1.377 . S
C563 C562 1.524 . S
C563 C564 1.397 . S
C563 C568 1.363 . S
C564 H541 0.950 . S
C564 C563 1.397 . S
C564 C565 1.334 . S
C565 H542 0.950 . S
C565 C564 1.334 . S
C565 C566 1.287 . S
C566 C565 1.287 . S
C566 C567 1.524 . S
C566 H585 0.913 . S
C567 H543 0.950 . S
C567 C566 1.524 . S
C567 C568 1.415 . S
C568 H544 0.950 . S
C568 C563 1.363 . S
C568 C567 1.415 . S
C569 H545 0.951 . S
C569 C570 1.366 . S
C569 C571 1.388 . S
C570 C569 1.366 . S
C570 C574 1.385 . S
C571 H546 0.951 . S
C571 C569 1.388 . S
C571 C572 1.366 . S
C572 C571 1.366 . S
C572 C573 1.414 . S
C572 C575 1.499 . S
C573 H547 0.950 . S
C573 C572 1.414 . S
C573 C574 1.374 . S
C574 H548 0.950 . S
C574 C570 1.385 . S
C574 C573 1.374 . S
C575 C572 1.499 . S
C575 C576 1.373 . S
C575 C577 1.389 . S
C576 H549 0.950 . S
C576 C562 1.377 . S
C576 C575 1.373 . S
C577 C561 1.377 . S
C577 C575 1.389 . S
C577 C578 1.524 . S
C578 C577 1.524 . S
C578 C579 1.397 . S
C578 C583 1.363 . S
C579 H550 0.950 . S
C579 C578 1.397 . S
C579 C580 1.334 . S
C580 H551 0.950 . S
C580 C579 1.334 . S
C580 C581 1.287 . S
C581 C580 1.287 . S
C581 C582 1.524 . S
C581 H584 0.999 . S
C582 H552 0.950 . S
C582 C581 1.524 . S
C582 C583 1.415 . S
C583 H553 0.950 . S
C583 C578 1.363 . S
C583 C582 1.415 . S
H584 C581 0.999 . S
H585 C566 0.913 . S
H586 C604 0.951 . S
H587 C606 0.951 . S
H588 C608 0.950 . S
H589 C609 0.950 . S
H590 C611 0.950 . S
H591 C614 0.950 . S
H592 C615 0.950 . S
H593 C617 0.950 . S
H594 C618 0.950 . S
H595 C619 0.951 . S
H596 C621 0.951 . S
H597 C623 0.950 . S
H598 C624 0.950 . S
H599 C626 0.950 . S
H600 C629 0.950 . S
H601 C630 0.950 . S
H602 C632 0.950 . S
H603 C633 0.950 . S
C604 H586 0.951 . S
C604 C605 1.366 . S
C604 C606 1.388 . S
C605 C604 1.366 . S
C605 C609 1.385 . S
C606 H587 0.951 . S
C606 C604 1.388 . S
C606 C607 1.366 . S
C607 C606 1.366 . S
C607 C608 1.414 . S
C607 C610 1.499 . S
C608 H588 0.950 . S
C608 C607 1.414 . S
C608 C609 1.374 . S
C609 H589 0.950 . S
C609 C605 1.385 . S
C609 C608 1.374 . S
C610 C607 1.499 . S
C610 C611 1.373 . S
C610 C612 1.389 . S
C611 H590 0.950 . S
C611 C610 1.373 . S
C611 C627 1.377 . S
C612 C610 1.389 . S
C612 C613 1.524 . S
C612 C626 1.377 . S
C613 C612 1.524 . S
C613 C614 1.397 . S
C613 C618 1.363 . S
C614 H591 0.950 . S
C614 C613 1.397 . S
C614 C615 1.334 . S
C615 H592 0.950 . S
C615 C614 1.334 . S
C615 C616 1.287 . S
C616 C615 1.287 . S
C616 C617 1.524 . S
C616 H635 0.913 . S
C617 H593 0.950 . S
C617 C616 1.524 . S
C617 C618 1.415 . S
C618 H594 0.950 . S
C618 C613 1.363 . S
C618 C617 1.415 . S
C619 H595 0.951 . S
C619 C620 1.366 . S
C619 C621 1.388 . S
C620 C619 1.366 . S
C620 C624 1.385 . S
C621 H596 0.951 . S
C621 C619 1.388 . S
C621 C622 1.366 . S
C622 C621 1.366 . S
C622 C623 1.414 . S
C622 C625 1.499 . S
C623 H597 0.950 . S
C623 C622 1.414 . S
C623 C624 1.374 . S
C624 H598 0.950 . S
C624 C620 1.385 . S
C624 C623 1.374 . S
C625 C622 1.499 . S
C625 C626 1.373 . S
C625 C627 1.389 . S
C626 H599 0.950 . S
C626 C612 1.377 . S
C626 C625 1.373 . S
C627 C611 1.377 . S
C627 C625 1.389 . S
C627 C628 1.524 . S
C628 C627 1.524 . S
C628 C629 1.397 . S
C628 C633 1.363 . S
C629 H600 0.950 . S
C629 C628 1.397 . S
C629 C630 1.334 . S
C630 H601 0.950 . S
C630 C629 1.334 . S
C630 C631 1.287 . S
C631 C630 1.287 . S
C631 C632 1.524 . S
C631 H634 0.999 . S
C632 H602 0.950 . S
C632 C631 1.524 . S
C632 C633 1.415 . S
C633 H603 0.950 . S
C633 C628 1.363 . S
C633 C632 1.415 . S
H634 C631 0.999 . S
H635 C616 0.913 . S
H636 C654 0.951 . S
H637 C656 0.951 . S
H638 C658 0.950 . S
H639 C659 0.950 . S
H640 C661 0.950 . S
H641 C664 0.950 . S
H642 C665 0.950 . S
H643 C667 0.950 . S
H644 C668 0.950 . S
H645 C669 0.951 . S
H646 C671 0.951 . S
H647 C673 0.950 . S
H648 C674 0.950 . S
H649 C676 0.950 . S
H650 C679 0.950 . S
H651 C680 0.950 . S
H652 C682 0.950 . S
H653 C683 0.950 . S
C654 H636 0.951 . S
C654 C655 1.366 . S
C654 C656 1.388 . S
C655 C654 1.366 . S
C655 C659 1.385 . S
C656 H637 0.951 . S
C656 C654 1.388 . S
C656 C657 1.366 . S
C657 C656 1.366 . S
C657 C658 1.414 . S
C657 C660 1.499 . S
C658 H638 0.950 . S
C658 C657 1.414 . S
C658 C659 1.374 . S
C659 H639 0.950 . S
C659 C655 1.385 . S
C659 C658 1.374 . S
C660 C657 1.499 . S
C660 C661 1.373 . S
C660 C662 1.389 . S
C661 H640 0.950 . S
C661 C660 1.373 . S
C661 C677 1.377 . S
C662 C660 1.389 . S
C662 C663 1.524 . S
C662 C676 1.377 . S
C663 C662 1.524 . S
C663 C664 1.397 . S
C663 C668 1.363 . S
C664 H641 0.950 . S
C664 C663 1.397 . S
C664 C665 1.334 . S
C665 H642 0.950 . S
C665 C664 1.334 . S
C665 C666 1.287 . S
C666 C665 1.287 . S
C666 C667 1.524 . S
C666 H685 0.913 . S
C667 H643 0.950 . S
C667 C666 1.524 . S
C667 C668 1.415 . S
C668 H644 0.950 . S
C668 C663 1.363 . S
C668 C667 1.415 . S
C669 H645 0.951 . S
C669 C670 1.366 . S
C669 C671 1.388 . S
C670 C669 1.366 . S
C670 C674 1.385 . S
C671 H646 0.951 . S
C671 C669 1.388 . S
C671 C672 1.366 . S
C672 C671 1.366 . S
C672 C673 1.414 . S
C672 C675 1.499 . S
C673 H647 0.950 . S
C673 C672 1.414 . S
C673 C674 1.374 . S
C674 H648 0.950 . S
C674 C670 1.385 . S
C674 C673 1.374 . S
C675 C672 1.499 . S
C675 C676 1.373 . S
C675 C677 1.389 . S
C676 H649 0.950 . S
C676 C662 1.377 . S
C676 C675 1.373 . S
C677 C661 1.377 . S
C677 C675 1.389 . S
C677 C678 1.524 . S
C678 C677 1.524 . S
C678 C679 1.397 . S
C678 C683 1.363 . S
C679 H650 0.950 . S
C679 C678 1.397 . S
C679 C680 1.334 . S
C680 H651 0.950 . S
C680 C679 1.334 . S
C680 C681 1.287 . S
C681 C680 1.287 . S
C681 C682 1.524 . S
C681 H684 0.999 . S
C682 H652 0.950 . S
C682 C681 1.524 . S
C682 C683 1.415 . S
C683 H653 0.950 . S
C683 C678 1.363 . S
C683 C682 1.415 . S
H684 C681 0.999 . S
H685 C666 0.913 . S
H686 C704 0.951 . S
H687 C706 0.951 . S
H688 C708 0.950 . S
H689 C709 0.950 . S
H690 C711 0.950 . S
H691 C714 0.950 . S
H692 C715 0.950 . S
H693 C717 0.950 . S
H694 C718 0.950 . S
H695 C719 0.951 . S
H696 C721 0.951 . S
H697 C723 0.950 . S
H698 C724 0.950 . S
H699 C726 0.950 . S
H700 C729 0.950 . S
H701 C730 0.950 . S
H702 C732 0.950 . S
H703 C733 0.950 . S
C704 H686 0.951 . S
C704 C705 1.366 . S
C704 C706 1.388 . S
C705 C704 1.366 . S
C705 C709 1.385 . S
C706 H687 0.951 . S
C706 C704 1.388 . S
C706 C707 1.366 . S
C707 C706 1.366 . S
C707 C708 1.414 . S
C707 C710 1.499 . S
C708 H688 0.950 . S
C708 C707 1.414 . S
C708 C709 1.374 . S
C709 H689 0.950 . S
C709 C705 1.385 . S
C709 C708 1.374 . S
C710 C707 1.499 . S
C710 C711 1.373 . S
C710 C712 1.389 . S
C711 H690 0.950 . S
C711 C710 1.373 . S
C711 C727 1.377 . S
C712 C710 1.389 . S
C712 C713 1.524 . S
C712 C726 1.377 . S
C713 C712 1.524 . S
C713 C714 1.397 . S
C713 C718 1.363 . S
C714 H691 0.950 . S
C714 C713 1.397 . S
C714 C715 1.334 . S
C715 H692 0.950 . S
C715 C714 1.334 . S
C715 C716 1.287 . S
C716 C715 1.287 . S
C716 C717 1.524 . S
C716 H735 0.913 . S
C717 H693 0.950 . S
C717 C716 1.524 . S
C717 C718 1.415 . S
C718 H694 0.950 . S
C718 C713 1.363 . S
C718 C717 1.415 . S
C719 H695 0.951 . S
C719 C720 1.366 . S
C719 C721 1.388 . S
C720 C719 1.366 . S
C720 C724 1.385 . S
C721 H696 0.951 . S
C721 C719 1.388 . S
C721 C722 1.366 . S
C722 C721 1.366 . S
C722 C723 1.414 . S
C722 C725 1.499 . S
C723 H697 0.950 . S
C723 C722 1.414 . S
C723 C724 1.374 . S
C724 H698 0.950 . S
C724 C720 1.385 . S
C724 C723 1.374 . S
C725 C722 1.499 . S
C725 C726 1.373 . S
C725 C727 1.389 . S
C726 H699 0.950 . S
C726 C712 1.377 . S
C726 C725 1.373 . S
C727 C711 1.377 . S
C727 C725 1.389 . S
C727 C728 1.524 . S
C728 C727 1.524 . S
C728 C729 1.397 . S
C728 C733 1.363 . S
C729 H700 0.950 . S
C729 C728 1.397 . S
C729 C730 1.334 . S
C730 H701 0.950 . S
C730 C729 1.334 . S
C730 C731 1.287 . S
C731 C730 1.287 . S
C731 C732 1.524 . S
C731 H734 0.999 . S
C732 H702 0.950 . S
C732 C731 1.524 . S
C732 C733 1.415 . S
C733 H703 0.950 . S
C733 C728 1.363 . S
C733 C732 1.415 . S
H734 C731 0.999 . S
H735 C716 0.913 . S
H736 C754 0.951 . S
H737 C756 0.951 . S
H738 C758 0.950 . S
H739 C759 0.950 . S
H740 C761 0.950 . S
H741 C764 0.950 . S
H742 C765 0.950 . S
H743 C767 0.950 . S
H744 C768 0.950 . S
H745 C769 0.951 . S
H746 C771 0.951 . S
H747 C773 0.950 . S
H748 C774 0.950 . S
H749 C776 0.950 . S
H750 C779 0.950 . S
H751 C780 0.950 . S
H752 C782 0.950 . S
H753 C783 0.950 . S
C754 H736 0.951 . S
C754 C755 1.366 . S
C754 C756 1.388 . S
C755 C754 1.366 . S
C755 C759 1.385 . S
C756 H737 0.951 . S
C756 C754 1.388 . S
C756 C757 1.366 . S
C757 C756 1.366 . S
C757 C758 1.414 . S
C757 C760 1.499 . S
C758 H738 0.950 . S
C758 C757 1.414 . S
C758 C759 1.374 . S
C759 H739 0.950 . S
C759 C755 1.385 . S
C759 C758 1.374 . S
C760 C757 1.499 . S
C760 C761 1.373 . S
C760 C762 1.389 . S
C761 H740 0.950 . S
C761 C760 1.373 . S
C761 C777 1.377 . S
C762 C760 1.389 . S
C762 C763 1.524 . S
C762 C776 1.377 . S
C763 C762 1.524 . S
C763 C764 1.397 . S
C763 C768 1.363 . S
C764 H741 0.950 . S
C764 C763 1.397 . S
C764 C765 1.334 . S
C765 H742 0.950 . S
C765 C764 1.334 . S
C765 C766 1.287 . S
C766 C765 1.287 . S
C766 C767 1.524 . S
C766 H785 0.913 . S
C767 H743 0.950 . S
C767 C766 1.524 . S
C767 C768 1.415 . S
C768 H744 0.950 . S
C768 C763 1.363 . S
C768 C767 1.415 . S
C769 H745 0.951 . S
C769 C770 1.366 . S
C769 C771 1.388 . S
C770 C769 1.366 . S
C770 C774 1.385 . S
C771 H746 0.951 . S
C771 C769 1.388 . S
C771 C772 1.366 . S
C772 C771 1.366 . S
C772 C773 1.414 . S
C772 C775 1.499 . S
C773 H747 0.950 . S
C773 C772 1.414 . S
C773 C774 1.374 . S
C774 H748 0.950 . S
C774 C770 1.385 . S
C774 C773 1.374 . S
C775 C772 1.499 . S
C775 C776 1.373 . S
C775 C777 1.389 . S
C776 H749 0.950 . S
C776 C762 1.377 . S
C776 C775 1.373 . S
C777 C761 1.377 . S
C777 C775 1.389 . S
C777 C778 1.524 . S
C778 C777 1.524 . S
C778 C779 1.397 . S
C778 C783 1.363 . S
C779 H750 0.950 . S
C779 C778 1.397 . S
C779 C780 1.334 . S
C780 H751 0.950 . S
C780 C779 1.334 . S
C780 C781 1.287 . S
C781 C780 1.287 . S
C781 C782 1.524 . S
C781 H784 0.999 . S
C782 H752 0.950 . S
C782 C781 1.524 . S
C782 C783 1.415 . S
C783 H753 0.950 . S
C783 C778 1.363 . S
C783 C782 1.415 . S
H784 C781 0.999 . S
H785 C766 0.913 . S
H786 C804 0.951 . S
H787 C806 0.951 . S
H788 C808 0.950 . S
H789 C809 0.950 . S
H790 C811 0.950 . S
H791 C814 0.950 . S
H792 C815 0.950 . S
H793 C817 0.950 . S
H794 C818 0.950 . S
H795 C819 0.951 . S
H796 C821 0.951 . S
H797 C823 0.950 . S
H798 C824 0.950 . S
H799 C826 0.950 . S
H800 C829 0.950 . S
H801 C830 0.950 . S
H802 C832 0.950 . S
H803 C833 0.950 . S
C804 H786 0.951 . S
C804 C805 1.366 . S
C804 C806 1.388 . S
C805 C804 1.366 . S
C805 C809 1.385 . S
C806 H787 0.951 . S
C806 C804 1.388 . S
C806 C807 1.366 . S
C807 C806 1.366 . S
C807 C808 1.414 . S
C807 C810 1.499 . S
C808 H788 0.950 . S
C808 C807 1.414 . S
C808 C809 1.374 . S
C809 H789 0.950 . S
C809 C805 1.385 . S
C809 C808 1.374 . S
C810 C807 1.499 . S
C810 C811 1.373 . S
C810 C812 1.389 . S
C811 H790 0.950 . S
C811 C810 1.373 . S
C811 C827 1.377 . S
C812 C810 1.389 . S
C812 C813 1.524 . S
C812 C826 1.377 . S
C813 C812 1.524 . S
C813 C814 1.397 . S
C813 C818 1.363 . S
C814 H791 0.950 . S
C814 C813 1.397 . S
C814 C815 1.334 . S
C815 H792 0.950 . S
C815 C814 1.334 . S
C815 C816 1.287 . S
C816 C815 1.287 . S
C816 C817 1.524 . S
C816 H835 0.913 . S
C817 H793 0.950 . S
C817 C816 1.524 . S
C817 C818 1.415 . S
C818 H794 0.950 . S
C818 C813 1.363 . S
C818 C817 1.415 . S
C819 H795 0.951 . S
C819 C820 1.366 . S
C819 C821 1.388 . S
C820 C819 1.366 . S
C820 C824 1.385 . S
C821 H796 0.951 . S
C821 C819 1.388 . S
C821 C822 1.366 . S
C822 C821 1.366 . S
C822 C823 1.414 . S
C822 C825 1.499 . S
C823 H797 0.950 . S
C823 C822 1.414 . S
C823 C824 1.374 . S
C824 H798 0.950 . S
C824 C820 1.385 . S
C824 C823 1.374 . S
C825 C822 1.499 . S
C825 C826 1.373 . S
C825 C827 1.389 . S
C826 H799 0.950 . S
C826 C812 1.377 . S
C826 C825 1.373 . S
C827 C811 1.377 . S
C827 C825 1.389 . S
C827 C828 1.524 . S
C828 C827 1.524 . S
C828 C829 1.397 . S
C828 C833 1.363 . S
C829 H800 0.950 . S
C829 C828 1.397 . S
C829 C830 1.334 . S
C830 H801 0.950 . S
C830 C829 1.334 . S
C830 C831 1.287 . S
C831 C830 1.287 . S
C831 C832 1.524 . S
C831 H834 0.999 . S
C832 H802 0.950 . S
C832 C831 1.524 . S
C832 C833 1.415 . S
C833 H803 0.950 . S
C833 C828 1.363 . S
C833 C832 1.415 . S
H834 C831 0.999 . S
H835 C816 0.913 . S
H836 C854 0.951 . S
H837 C856 0.951 . S
H838 C858 0.950 . S
H839 C859 0.950 . S
H840 C861 0.950 . S
H841 C864 0.950 . S
H842 C865 0.950 . S
H843 C867 0.950 . S
H844 C868 0.950 . S
H845 C869 0.951 . S
H846 C871 0.951 . S
H847 C873 0.950 . S
H848 C874 0.950 . S
H849 C876 0.950 . S
H850 C879 0.950 . S
H851 C880 0.950 . S
H852 C882 0.950 . S
H853 C883 0.950 . S
C854 H836 0.951 . S
C854 C855 1.366 . S
C854 C856 1.388 . S
C855 C854 1.366 . S
C855 C859 1.385 . S
C856 H837 0.951 . S
C856 C854 1.388 . S
C856 C857 1.366 . S
C857 C856 1.366 . S
C857 C858 1.414 . S
C857 C860 1.499 . S
C858 H838 0.950 . S
C858 C857 1.414 . S
C858 C859 1.374 . S
C859 H839 0.950 . S
C859 C855 1.385 . S
C859 C858 1.374 . S
C860 C857 1.499 . S
C860 C861 1.373 . S
C860 C862 1.389 . S
C861 H840 0.950 . S
C861 C860 1.373 . S
C861 C877 1.377 . S
C862 C860 1.389 . S
C862 C863 1.524 . S
C862 C876 1.377 . S
C863 C862 1.524 . S
C863 C864 1.397 . S
C863 C868 1.363 . S
C864 H841 0.950 . S
C864 C863 1.397 . S
C864 C865 1.334 . S
C865 H842 0.950 . S
C865 C864 1.334 . S
C865 C866 1.287 . S
C866 C865 1.287 . S
C866 C867 1.524 . S
C866 H885 0.913 . S
C867 H843 0.950 . S
C867 C866 1.524 . S
C867 C868 1.415 . S
C868 H844 0.950 . S
C868 C863 1.363 . S
C868 C867 1.415 . S
C869 H845 0.951 . S
C869 C870 1.366 . S
C869 C871 1.388 . S
C870 C869 1.366 . S
C870 C874 1.385 . S
C871 H846 0.951 . S
C871 C869 1.388 . S
C871 C872 1.366 . S
C872 C871 1.366 . S
C872 C873 1.414 . S
C872 C875 1.499 . S
C873 H847 0.950 . S
C873 C872 1.414 . S
C873 C874 1.374 . S
C874 H848 0.950 . S
C874 C870 1.385 . S
C874 C873 1.374 . S
C875 C872 1.499 . S
C875 C876 1.373 . S
C875 C877 1.389 . S
C876 H849 0.950 . S
C876 C862 1.377 . S
C876 C875 1.373 . S
C877 C861 1.377 . S
C877 C875 1.389 . S
C877 C878 1.524 . S
C878 C877 1.524 . S
C878 C879 1.397 . S
C878 C883 1.363 . S
C879 H850 0.950 . S
C879 C878 1.397 . S
C879 C880 1.334 . S
C880 H851 0.950 . S
C880 C879 1.334 . S
C880 C881 1.287 . S
C881 C880 1.287 . S
C881 C882 1.524 . S
C881 H884 0.999 . S
C882 H852 0.950 . S
C882 C881 1.524 . S
C882 C883 1.415 . S
C883 H853 0.950 . S
C883 C878 1.363 . S
C883 C882 1.415 . S
H884 C881 0.999 . S
H885 C866 0.913 . S
H886 C904 0.951 . S
H887 C906 0.951 . S
H888 C908 0.950 . S
H889 C909 0.950 . S
H890 C911 0.950 . S
H891 C914 0.950 . S
H892 C915 0.950 . S
H893 C917 0.950 . S
H894 C918 0.950 . S
H895 C919 0.951 . S
H896 C921 0.951 . S
H897 C923 0.950 . S
H898 C924 0.950 . S
H899 C926 0.950 . S
H900 C929 0.950 . S
H901 C930 0.950 . S
H902 C932 0.950 . S
H903 C933 0.950 . S
C904 H886 0.951 . S
C904 C905 1.366 . S
C904 C906 1.388 . S
C905 C904 1.366 . S
C905 C909 1.385 . S
C906 H887 0.951 . S
C906 C904 1.388 . S
C906 C907 1.366 . S
C907 C906 1.366 . S
C907 C908 1.414 . S
C907 C910 1.499 . S
C908 H888 0.950 . S
C908 C907 1.414 . S
C908 C909 1.374 . S
C909 H889 0.950 . S
C909 C905 1.385 . S
C909 C908 1.374 . S
C910 C907 1.499 . S
C910 C911 1.373 . S
C910 C912 1.389 . S
C911 H890 0.950 . S
C911 C910 1.373 . S
C911 C927 1.377 . S
C912 C910 1.389 . S
C912 C913 1.524 . S
C912 C926 1.377 . S
C913 C912 1.524 . S
C913 C914 1.397 . S
C913 C918 1.363 . S
C914 H891 0.950 . S
C914 C913 1.397 . S
C914 C915 1.334 . S
C915 H892 0.950 . S
C915 C914 1.334 . S
C915 C916 1.287 . S
C916 C915 1.287 . S
C916 C917 1.524 . S
C916 H935 0.913 . S
C917 H893 0.950 . S
C917 C916 1.524 . S
C917 C918 1.415 . S
C918 H894 0.950 . S
C918 C913 1.363 . S
C918 C917 1.415 . S
C919 H895 0.951 . S
C919 C920 1.366 . S
C919 C921 1.388 . S
C920 C919 1.366 . S
C920 C924 1.385 . S
C921 H896 0.951 . S
C921 C919 1.388 . S
C921 C922 1.366 . S
C922 C921 1.366 . S
C922 C923 1.414 . S
C922 C925 1.499 . S
C923 H897 0.950 . S
C923 C922 1.414 . S
C923 C924 1.374 . S
C924 H898 0.950 . S
C924 C920 1.385 . S
C924 C923 1.374 . S
C925 C922 1.499 . S
C925 C926 1.373 . S
C925 C927 1.389 . S
C926 H899 0.950 . S
C926 C912 1.377 . S
C926 C925 1.373 . S
C927 C911 1.377 . S
C927 C925 1.389 . S
C927 C928 1.524 . S
C928 C927 1.524 . S
C928 C929 1.397 . S
C928 C933 1.363 . S
C929 H900 0.950 . S
C929 C928 1.397 . S
C929 C930 1.334 . S
C930 H901 0.950 . S
C930 C929 1.334 . S
C930 C931 1.287 . S
C931 C930 1.287 . S
C931 C932 1.524 . S
C931 H934 0.999 . S
C932 H902 0.950 . S
C932 C931 1.524 . S
C932 C933 1.415 . S
C933 H903 0.950 . S
C933 C928 1.363 . S
C933 C932 1.415 . S
H934 C931 0.999 . S
H935 C916 0.913 . S
H936 C954 0.951 . S
H937 C956 0.951 . S
H938 C958 0.950 . S
H939 C959 0.950 . S
H940 C961 0.950 . S
H941 C964 0.950 . S
H942 C965 0.950 . S
H943 C967 0.950 . S
H944 C968 0.950 . S
H945 C969 0.951 . S
H946 C971 0.951 . S
H947 C973 0.950 . S
H948 C974 0.950 . S
H949 C976 0.950 . S
H950 C979 0.950 . S
H951 C980 0.950 . S
H952 C982 0.950 . S
H953 C983 0.950 . S
C954 H936 0.951 . S
C954 C955 1.366 . S
C954 C956 1.388 . S
C955 C954 1.366 . S
C955 C959 1.385 . S
C956 H937 0.951 . S
C956 C954 1.388 . S
C956 C957 1.366 . S
C957 C956 1.366 . S
C957 C958 1.414 . S
C957 C960 1.499 . S
C958 H938 0.950 . S
C958 C957 1.414 . S
C958 C959 1.374 . S
C959 H939 0.950 . S
C959 C955 1.385 . S
C959 C958 1.374 . S
C960 C957 1.499 . S
C960 C961 1.373 . S
C960 C962 1.389 . S
C961 H940 0.950 . S
C961 C960 1.373 . S
C961 C977 1.377 . S
C962 C960 1.389 . S
C962 C963 1.524 . S
C962 C976 1.377 . S
C963 C962 1.524 . S
C963 C964 1.397 . S
C963 C968 1.363 . S
C964 H941 0.950 . S
C964 C963 1.397 . S
C964 C965 1.334 . S
C965 H942 0.950 . S
C965 C964 1.334 . S
C965 C966 1.287 . S
C966 C965 1.287 . S
C966 C967 1.524 . S
C966 H985 0.913 . S
C967 H943 0.950 . S
C967 C966 1.524 . S
C967 C968 1.415 . S
C968 H944 0.950 . S
C968 C963 1.363 . S
C968 C967 1.415 . S
C969 H945 0.951 . S
C969 C970 1.366 . S
C969 C971 1.388 . S
C970 C969 1.366 . S
C970 C974 1.385 . S
C971 H946 0.951 . S
C971 C969 1.388 . S
C971 C972 1.366 . S
C972 C971 1.366 . S
C972 C973 1.414 . S
C972 C975 1.499 . S
C973 H947 0.950 . S
C973 C972 1.414 . S
C973 C974 1.374 . S
C974 H948 0.950 . S
C974 C970 1.385 . S
C974 C973 1.374 . S
C975 C972 1.499 . S
C975 C976 1.373 . S
C975 C977 1.389 . S
C976 H949 0.950 . S
C976 C962 1.377 . S
C976 C975 1.373 . S
C977 C961 1.377 . S
C977 C975 1.389 . S
C977 C978 1.524 . S
C978 C977 1.524 . S
C978 C979 1.397 . S
C978 C983 1.363 . S
C979 H950 0.950 . S
C979 C978 1.397 . S
C979 C980 1.334 . S
C980 H951 0.950 . S
C980 C979 1.334 . S
C980 C981 1.287 . S
C981 C980 1.287 . S
C981 C982 1.524 . S
C981 H984 0.999 . S
C982 H952 0.950 . S
C982 C981 1.524 . S
C982 C983 1.415 . S
C983 H953 0.950 . S
C983 C978 1.363 . S
C983 C982 1.415 . S
H984 C981 0.999 . S
H985 C966 0.913 . S
H986 C1004 0.951 . S
H987 C1006 0.951 . S
H988 C1008 0.950 . S
H989 C1009 0.950 . S
H990 C1011 0.950 . S
H991 C1014 0.950 . S
H992 C1015 0.950 . S
H993 C1017 0.950 . S
H994 C1018 0.950 . S
H995 C1019 0.951 . S
H996 C1021 0.951 . S
H997 C1023 0.950 . S
H998 C1024 0.950 . S
H999 C1026 0.950 . S
H1000 C1029 0.950 . S
H1001 C1030 0.950 . S
H1002 C1032 0.950 . S
H1003 C1033 0.950 . S
C1004 H986 0.951 . S
C1004 C1005 1.366 . S
C1004 C1006 1.388 . S
C1005 C1004 1.366 . S
C1005 C1009 1.385 . S
C1006 H987 0.951 . S
C1006 C1004 1.388 . S
C1006 C1007 1.366 . S
C1007 C1006 1.366 . S
C1007 C1008 1.414 . S
C1007 C1010 1.499 . S
C1008 H988 0.950 . S
C1008 C1007 1.414 . S
C1008 C1009 1.374 . S
C1009 H989 0.950 . S
C1009 C1005 1.385 . S
C1009 C1008 1.374 . S
C1010 C1007 1.499 . S
C1010 C1011 1.373 . S
C1010 C1012 1.389 . S
C1011 H990 0.950 . S
C1011 C1010 1.373 . S
C1011 C1027 1.377 . S
C1012 C1010 1.389 . S
C1012 C1013 1.524 . S
C1012 C1026 1.377 . S
C1013 C1012 1.524 . S
C1013 C1014 1.397 . S
C1013 C1018 1.363 . S
C1014 H991 0.950 . S
C1014 C1013 1.397 . S
C1014 C1015 1.334 . S
C1015 H992 0.950 . S
C1015 C1014 1.334 . S
C1015 C1016 1.287 . S
C1016 C1015 1.287 . S
C1016 C1017 1.524 . S
C1016 H1035 0.913 . S
C1017 H993 0.950 . S
C1017 C1016 1.524 . S
C1017 C1018 1.415 . S
C1018 H994 0.950 . S
C1018 C1013 1.363 . S
C1018 C1017 1.415 . S
C1019 H995 0.951 . S
C1019 C1020 1.366 . S
C1019 C1021 1.388 . S
C1020 C1019 1.366 . S
C1020 C1024 1.385 . S
C1021 H996 0.951 . S
C1021 C1019 1.388 . S
C1021 C1022 1.366 . S
C1022 C1021 1.366 . S
C1022 C1023 1.414 . S
C1022 C1025 1.499 . S
C1023 H997 0.950 . S
C1023 C1022 1.414 . S
C1023 C1024 1.374 . S
C1024 H998 0.950 . S
C1024 C1020 1.385 . S
C1024 C1023 1.374 . S
C1025 C1022 1.499 . S
C1025 C1026 1.373 . S
C1025 C1027 1.389 . S
C1026 H999 0.950 . S
C1026 C1012 1.377 . S
C1026 C1025 1.373 . S
C1027 C1011 1.377 . S
C1027 C1025 1.389 . S
C1027 C1028 1.524 . S
C1028 C1027 1.524 . S
C1028 C1029 1.397 . S
C1028 C1033 1.363 . S
C1029 H1000 0.950 . S
C1029 C1028 1.397 . S
C1029 C1030 1.334 . S
C1030 H1001 0.950 . S
C1030 C1029 1.334 . S
C1030 C1031 1.287 . S
C1031 C1030 1.287 . S
C1031 C1032 1.524 . S
C1031 H1034 0.999 . S
C1032 H1002 0.950 . S
C1032 C1031 1.524 . S
C1032 C1033 1.415 . S
C1033 H1003 0.950 . S
C1033 C1028 1.363 . S
C1033 C1032 1.415 . S
H1034 C1031 0.999 . S
H1035 C1016 0.913 . S
H1036 C1054 0.951 . S
H1037 C1056 0.951 . S
H1038 C1058 0.950 . S
H1039 C1059 0.950 . S
H1040 C1061 0.950 . S
H1041 C1064 0.950 . S
H1042 C1065 0.950 . S
H1043 C1067 0.950 . S
H1044 C1068 0.950 . S
H1045 C1069 0.951 . S
H1046 C1071 0.951 . S
H1047 C1073 0.950 . S
H1048 C1074 0.950 . S
H1049 C1076 0.950 . S
H1050 C1079 0.950 . S
H1051 C1080 0.950 . S
H1052 C1082 0.950 . S
H1053 C1083 0.950 . S
C1054 H1036 0.951 . S
C1054 C1055 1.366 . S
C1054 C1056 1.388 . S
C1055 C1054 1.366 . S
C1055 C1059 1.385 . S
C1056 H1037 0.951 . S
C1056 C1054 1.388 . S
C1056 C1057 1.366 . S
C1057 C1056 1.366 . S
C1057 C1058 1.414 . S
C1057 C1060 1.499 . S
C1058 H1038 0.950 . S
C1058 C1057 1.414 . S
C1058 C1059 1.374 . S
C1059 H1039 0.950 . S
C1059 C1055 1.385 . S
C1059 C1058 1.374 . S
C1060 C1057 1.499 . S
C1060 C1061 1.373 . S
C1060 C1062 1.389 . S
C1061 H1040 0.950 . S
C1061 C1060 1.373 . S
C1061 C1077 1.377 . S
C1062 C1060 1.389 . S
C1062 C1063 1.524 . S
C1062 C1076 1.377 . S
C1063 C1062 1.524 . S
C1063 C1064 1.397 . S
C1063 C1068 1.363 . S
C1064 H1041 0.950 . S
C1064 C1063 1.397 . S
C1064 C1065 1.334 . S
C1065 H1042 0.950 . S
C1065 C1064 1.334 . S
C1065 C1066 1.287 . S
C1066 C1065 1.287 . S
C1066 C1067 1.524 . S
C1066 H1085 0.913 . S
C1067 H1043 0.950 . S
C1067 C1066 1.524 . S
C1067 C1068 1.415 . S
C1068 H1044 0.950 . S
C1068 C1063 1.363 . S
C1068 C1067 1.415 . S
C1069 H1045 0.951 . S
C1069 C1070 1.366 . S
C1069 C1071 1.388 . S
C1070 C1069 1.366 . S
C1070 C1074 1.385 . S
C1071 H1046 0.951 . S
C1071 C1069 1.388 . S
C1071 C1072 1.366 . S
C1072 C1071 1.366 . S
C1072 C1073 1.414 . S
C1072 C1075 1.499 . S
C1073 H1047 0.950 . S
C1073 C1072 1.414 . S
C1073 C1074 1.374 . S
C1074 H1048 0.950 . S
C1074 C1070 1.385 . S
C1074 C1073 1.374 . S
C1075 C1072 1.499 . S
C1075 C1076 1.373 . S
C1075 C1077 1.389 . S
C1076 H1049 0.950 . S
C1076 C1062 1.377 . S
C1076 C1075 1.373 . S
C1077 C1061 1.377 . S
C1077 C1075 1.389 . S
C1077 C1078 1.524 . S
C1078 C1077 1.524 . S
C1078 C1079 1.397 . S
C1078 C1083 1.363 . S
C1079 H1050 0.950 . S
C1079 C1078 1.397 . S
C1079 C1080 1.334 . S
C1080 H1051 0.950 . S
C1080 C1079 1.334 . S
C1080 C1081 1.287 . S
C1081 C1080 1.287 . S
C1081 C1082 1.524 . S
C1081 H1084 0.999 . S
C1082 H1052 0.950 . S
C1082 C1081 1.524 . S
C1082 C1083 1.415 . S
C1083 H1053 0.950 . S
C1083 C1078 1.363 . S
C1083 C1082 1.415 . S
H1084 C1081 0.999 . S
H1085 C1066 0.913 . S
H1086 C1104 0.951 . S
H1087 C1106 0.951 . S
H1088 C1108 0.950 . S
H1089 C1109 0.950 . S
H1090 C1111 0.950 . S
H1091 C1114 0.950 . S
H1092 C1115 0.950 . S
H1093 C1117 0.950 . S
H1094 C1118 0.950 . S
H1095 C1119 0.951 . S
H1096 C1121 0.951 . S
H1097 C1123 0.950 . S
H1098 C1124 0.950 . S
H1099 C1126 0.950 . S
H1100 C1129 0.950 . S
H1101 C1130 0.950 . S
H1102 C1132 0.950 . S
H1103 C1133 0.950 . S
C1104 H1086 0.951 . S
C1104 C1105 1.366 . S
C1104 C1106 1.388 . S
C1105 C1104 1.366 . S
C1105 C1109 1.385 . S
C1106 H1087 0.951 . S
C1106 C1104 1.388 . S
C1106 C1107 1.366 . S
C1107 C1106 1.366 . S
C1107 C1108 1.414 . S
C1107 C1110 1.499 . S
C1108 H1088 0.950 . S
C1108 C1107 1.414 . S
C1108 C1109 1.374 . S
C1109 H1089 0.950 . S
C1109 C1105 1.385 . S
C1109 C1108 1.374 . S
C1110 C1107 1.499 . S
C1110 C1111 1.373 . S
C1110 C1112 1.389 . S
C1111 H1090 0.950 . S
C1111 C1110 1.373 . S
C1111 C1127 1.377 . S
C1112 C1110 1.389 . S
C1112 C1113 1.524 . S
C1112 C1126 1.377 . S
C1113 C1112 1.524 . S
C1113 C1114 1.397 . S
C1113 C1118 1.363 . S
C1114 H1091 0.950 . S
C1114 C1113 1.397 . S
C1114 C1115 1.334 . S
C1115 H1092 0.950 . S
C1115 C1114 1.334 . S
C1115 C1116 1.287 . S
C1116 C1115 1.287 . S
C1116 C1117 1.524 . S
C1116 H1135 0.913 . S
C1117 H1093 0.950 . S
C1117 C1116 1.524 . S
C1117 C1118 1.415 . S
C1118 H1094 0.950 . S
C1118 C1113 1.363 . S
C1118 C1117 1.415 . S
C1119 H1095 0.951 . S
C1119 C1120 1.366 . S
C1119 C1121 1.388 . S
C1120 C1119 1.366 . S
C1120 C1124 1.385 . S
C1121 H1096 0.951 . S
C1121 C1119 1.388 . S
C1121 C1122 1.366 . S
C1122 C1121 1.366 . S
C1122 C1123 1.414 . S
C1122 C1125 1.499 . S
C1123 H1097 0.950 . S
C1123 C1122 1.414 . S
C1123 C1124 1.374 . S
C1124 H1098 0.950 . S
C1124 C1120 1.385 . S
C1124 C1123 1.374 . S
C1125 C1122 1.499 . S
C1125 C1126 1.373 . S
C1125 C1127 1.389 . S
C1126 H1099 0.950 . S
C1126 C1112 1.377 . S
C1126 C1125 1.373 . S
C1127 C1111 1.377 . S
C1127 C1125 1.389 . S
C1127 C1128 1.524 . S
C1128 C1127 1.524 . S
C1128 C1129 1.397 . S
C1128 C1133 1.363 . S
C1129 H1100 0.950 . S
C1129 C1128 1.397 . S
C1129 C1130 1.334 . S
C1130 H1101 0.950 . S
C1130 C1129 1.334 . S
C1130 C1131 1.287 . S
C1131 C1130 1.287 . S
C1131 C1132 1.524 . S
C1131 H1134 0.999 . S
C1132 H1102 0.950 . S
C1132 C1131 1.524 . S
C1132 C1133 1.415 . S
C1133 H1103 0.950 . S
C1133 C1128 1.363 . S
C1133 C1132 1.415 . S
H1134 C1131 0.999 . S
H1135 C1116 0.913 . S
H1136 C1154 0.951 . S
H1137 C1156 0.951 . S
H1138 C1158 0.950 . S
H1139 C1159 0.950 . S
H1140 C1161 0.950 . S
H1141 C1164 0.950 . S
H1142 C1165 0.950 . S
H1143 C1167 0.950 . S
H1144 C1168 0.950 . S
H1145 C1169 0.951 . S
H1146 C1171 0.951 . S
H1147 C1173 0.950 . S
H1148 C1174 0.950 . S
H1149 C1176 0.950 . S
H1150 C1179 0.950 . S
H1151 C1180 0.950 . S
H1152 C1182 0.950 . S
H1153 C1183 0.950 . S
C1154 H1136 0.951 . S
C1154 C1155 1.366 . S
C1154 C1156 1.388 . S
C1155 C1154 1.366 . S
C1155 C1159 1.385 . S
C1156 H1137 0.951 . S
C1156 C1154 1.388 . S
C1156 C1157 1.366 . S
C1157 C1156 1.366 . S
C1157 C1158 1.414 . S
C1157 C1160 1.499 . S
C1158 H1138 0.950 . S
C1158 C1157 1.414 . S
C1158 C1159 1.374 . S
C1159 H1139 0.950 . S
C1159 C1155 1.385 . S
C1159 C1158 1.374 . S
C1160 C1157 1.499 . S
C1160 C1161 1.373 . S
C1160 C1162 1.389 . S
C1161 H1140 0.950 . S
C1161 C1160 1.373 . S
C1161 C1177 1.377 . S
C1162 C1160 1.389 . S
C1162 C1163 1.524 . S
C1162 C1176 1.377 . S
C1163 C1162 1.524 . S
C1163 C1164 1.397 . S
C1163 C1168 1.363 . S
C1164 H1141 0.950 . S
C1164 C1163 1.397 . S
C1164 C1165 1.334 . S
C1165 H1142 0.950 . S
C1165 C1164 1.334 . S
C1165 C1166 1.287 . S
C1166 C1165 1.287 . S
C1166 C1167 1.524 . S
C1166 H1185 0.913 . S
C1167 H1143 0.950 . S
C1167 C1166 1.524 . S
C1167 C1168 1.415 . S
C1168 H1144 0.950 . S
C1168 C1163 1.363 . S
C1168 C1167 1.415 . S
C1169 H1145 0.951 . S
C1169 C1170 1.366 . S
C1169 C1171 1.388 . S
C1170 C1169 1.366 . S
C1170 C1174 1.385 . S
C1171 H1146 0.951 . S
C1171 C1169 1.388 . S
C1171 C1172 1.366 . S
C1172 C1171 1.366 . S
C1172 C1173 1.414 . S
C1172 C1175 1.499 . S
C1173 H1147 0.950 . S
C1173 C1172 1.414 . S
C1173 C1174 1.374 . S
C1174 H1148 0.950 . S
C1174 C1170 1.385 . S
C1174 C1173 1.374 . S
C1175 C1172 1.499 . S
C1175 C1176 1.373 . S
C1175 C1177 1.389 . S
C1176 H1149 0.950 . S
C1176 C1162 1.377 . S
C1176 C1175 1.373 . S
C1177 C1161 1.377 . S
C1177 C1175 1.389 . S
C1177 C1178 1.524 . S
C1178 C1177 1.524 . S
C1178 C1179 1.397 . S
C1178 C1183 1.363 . S
C1179 H1150 0.950 . S
C1179 C1178 1.397 . S
C1179 C1180 1.334 . S
C1180 H1151 0.950 . S
C1180 C1179 1.334 . S
C1180 C1181 1.287 . S
C1181 C1180 1.287 . S
C1181 C1182 1.524 . S
C1181 H1184 0.999 . S
C1182 H1152 0.950 . S
C1182 C1181 1.524 . S
C1182 C1183 1.415 . S
C1183 H1153 0.950 . S
C1183 C1178 1.363 . S
C1183 C1182 1.415 . S
H1184 C1181 0.999 . S
H1185 C1166 0.913 . S
H1186 C1204 0.951 . S
H1187 C1206 0.951 . S
H1188 C1208 0.950 . S
H1189 C1209 0.950 . S
H1190 C1211 0.950 . S
H1191 C1214 0.950 . S
H1192 C1215 0.950 . S
H1193 C1217 0.950 . S
H1194 C1218 0.950 . S
H1195 C1219 0.951 . S
H1196 C1221 0.951 . S
H1197 C1223 0.950 . S
H1198 C1224 0.950 . S
H1199 C1226 0.950 . S
H1200 C1229 0.950 . S
H1201 C1230 0.950 . S
H1202 C1232 0.950 . S
H1203 C1233 0.950 . S
C1204 H1186 0.951 . S
C1204 C1205 1.366 . S
C1204 C1206 1.388 . S
C1205 C1204 1.366 . S
C1205 C1209 1.385 . S
C1206 H1187 0.951 . S
C1206 C1204 1.388 . S
C1206 C1207 1.366 . S
C1207 C1206 1.366 . S
C1207 C1208 1.414 . S
C1207 C1210 1.499 . S
C1208 H1188 0.950 . S
C1208 C1207 1.414 . S
C1208 C1209 1.374 . S
C1209 H1189 0.950 . S
C1209 C1205 1.385 . S
C1209 C1208 1.374 . S
C1210 C1207 1.499 . S
C1210 C1211 1.373 . S
C1210 C1212 1.389 . S
C1211 H1190 0.950 . S
C1211 C1210 1.373 . S
C1211 C1227 1.377 . S
C1212 C1210 1.389 . S
C1212 C1213 1.524 . S
C1212 C1226 1.377 . S
C1213 C1212 1.524 . S
C1213 C1214 1.397 . S
C1213 C1218 1.363 . S
C1214 H1191 0.950 . S
C1214 C1213 1.397 . S
C1214 C1215 1.334 . S
C1215 H1192 0.950 . S
C1215 C1214 1.334 . S
C1215 C1216 1.287 . S
C1216 C1215 1.287 . S
C1216 C1217 1.524 . S
C1216 H1235 0.913 . S
C1217 H1193 0.950 . S
C1217 C1216 1.524 . S
C1217 C1218 1.415 . S
C1218 H1194 0.950 . S
C1218 C1213 1.363 . S
C1218 C1217 1.415 . S
C1219 H1195 0.951 . S
C1219 C1220 1.366 . S
C1219 C1221 1.388 . S
C1220 C1219 1.366 . S
C1220 C1224 1.385 . S
C1221 H1196 0.951 . S
C1221 C1219 1.388 . S
C1221 C1222 1.366 . S
C1222 C1221 1.366 . S
C1222 C1223 1.414 . S
C1222 C1225 1.499 . S
C1223 H1197 0.950 . S
C1223 C1222 1.414 . S
C1223 C1224 1.374 . S
C1224 H1198 0.950 . S
C1224 C1220 1.385 . S
C1224 C1223 1.374 . S
C1225 C1222 1.499 . S
C1225 C1226 1.373 . S
C1225 C1227 1.389 . S
C1226 H1199 0.950 . S
C1226 C1212 1.377 . S
C1226 C1225 1.373 . S
C1227 C1211 1.377 . S
C1227 C1225 1.389 . S
C1227 C1228 1.524 . S
C1228 C1227 1.524 . S
C1228 C1229 1.397 . S
C1228 C1233 1.363 . S
C1229 H1200 0.950 . S
C1229 C1228 1.397 . S
C1229 C1230 1.334 . S
C1230 H1201 0.950 . S
C1230 C1229 1.334 . S
C1230 C1231 1.287 . S
C1231 C1230 1.287 . S
C1231 C1232 1.524 . S
C1231 H1234 0.999 . S
C1232 H1202 0.950 . S
C1232 C1231 1.524 . S
C1232 C1233 1.415 . S
C1233 H1203 0.950 . S
C1233 C1228 1.363 . S
C1233 C1232 1.415 . S
H1234 C1231 0.999 . S
H1235 C1216 0.913 . S
H1236 C1254 0.951 . S
H1237 C1256 0.951 . S
H1238 C1258 0.950 . S
H1239 C1259 0.950 . S
H1240 C1261 0.950 . S
H1241 C1264 0.950 . S
H1242 C1265 0.950 . S
H1243 C1267 0.950 . S
H1244 C1268 0.950 . S
H1245 C1269 0.951 . S
H1246 C1271 0.951 . S
H1247 C1273 0.950 . S
H1248 C1274 0.950 . S
H1249 C1276 0.950 . S
H1250 C1279 0.950 . S
H1251 C1280 0.950 . S
H1252 C1282 0.950 . S
H1253 C1283 0.950 . S
C1254 H1236 0.951 . S
C1254 C1255 1.366 . S
C1254 C1256 1.388 . S
C1255 C1254 1.366 . S
C1255 C1259 1.385 . S
C1256 H1237 0.951 . S
C1256 C1254 1.388 . S
C1256 C1257 1.366 . S
C1257 C1256 1.366 . S
C1257 C1258 1.414 . S
C1257 C1260 1.499 . S
C1258 H1238 0.950 . S
C1258 C1257 1.414 . S
C1258 C1259 1.374 . S
C1259 H1239 0.950 . S
C1259 C1255 1.385 . S
C1259 C1258 1.374 . S
C1260 C1257 1.499 . S
C1260 C1261 1.373 . S
C1260 C1262 1.389 . S
C1261 H1240 0.950 . S
C1261 C1260 1.373 . S
C1261 C1277 1.377 . S
C1262 C1260 1.389 . S
C1262 C1263 1.524 . S
C1262 C1276 1.377 . S
C1263 C1262 1.524 . S
C1263 C1264 1.397 . S
C1263 C1268 1.363 . S
C1264 H1241 0.950 . S
C1264 C1263 1.397 . S
C1264 C1265 1.334 . S
C1265 H1242 0.950 . S
C1265 C1264 1.334 . S
C1265 C1266 1.287 . S
C1266 C1265 1.287 . S
C1266 C1267 1.524 . S
C1266 H1285 0.913 . S
C1267 H1243 0.950 . S
C1267 C1266 1.524 . S
C1267 C1268 1.415 . S
C1268 H1244 0.950 . S
C1268 C1263 1.363 . S
C1268 C1267 1.415 . S
C1269 H1245 0.951 . S
C1269 C1270 1.366 . S
C1269 C1271 1.388 . S
C1270 C1269 1.366 . S
C1270 C1274 1.385 . S
C1271 H1246 0.951 . S
C1271 C1269 1.388 . S
C1271 C1272 1.366 . S
C1272 C1271 1.366 . S
C1272 C1273 1.414 . S
C1272 C1275 1.499 . S
C1273 H1247 0.950 . S
C1273 C1272 1.414 . S
C1273 C1274 1.374 . S
C1274 H1248 0.950 . S
C1274 C1270 1.385 . S
C1274 C1273 1.374 . S
C1275 C1272 1.499 . S
C1275 C1276 1.373 . S
C1275 C1277 1.389 . S
C1276 H1249 0.950 . S
C1276 C1262 1.377 . S
C1276 C1275 1.373 . S
C1277 C1261 1.377 . S
C1277 C1275 1.389 . S
C1277 C1278 1.524 . S
C1278 C1277 1.524 . S
C1278 C1279 1.397 . S
C1278 C1283 1.363 . S
C1279 H1250 0.950 . S
C1279 C1278 1.397 . S
C1279 C1280 1.334 . S
C1280 H1251 0.950 . S
C1280 C1279 1.334 . S
C1280 C1281 1.287 . S
C1281 C1280 1.287 . S
C1281 C1282 1.524 . S
C1281 H1284 0.999 . S
C1282 H1252 0.950 . S
C1282 C1281 1.524 . S
C1282 C1283 1.415 . S
C1283 H1253 0.950 . S
C1283 C1278 1.363 . S
C1283 C1282 1.415 . S
H1284 C1281 0.999 . S
H1285 C1266 0.913 . S
H1286 C1304 0.951 . S
H1287 C1306 0.951 . S
H1288 C1308 0.950 . S
H1289 C1309 0.950 . S
H1290 C1311 0.950 . S
H1291 C1314 0.950 . S
H1292 C1315 0.950 . S
H1293 C1317 0.950 . S
H1294 C1318 0.950 . S
H1295 C1319 0.951 . S
H1296 C1321 0.951 . S
H1297 C1323 0.950 . S
H1298 C1324 0.950 . S
H1299 C1326 0.950 . S
H1300 C1329 0.950 . S
H1301 C1330 0.950 . S
H1302 C1332 0.950 . S
H1303 C1333 0.950 . S
C1304 H1286 0.951 . S
C1304 C1305 1.366 . S
C1304 C1306 1.388 . S
C1305 C1304 1.366 . S
C1305 C1309 1.385 . S
C1306 H1287 0.951 . S
C1306 C1304 1.388 . S
C1306 C1307 1.366 . S
C1307 C1306 1.366 . S
C1307 C1308 1.414 . S
C1307 C1310 1.499 . S
C1308 H1288 0.950 . S
C1308 C1307 1.414 . S
C1308 C1309 1.374 . S
C1309 H1289 0.950 . S
C1309 C1305 1.385 . S
C1309 C1308 1.374 . S
C1310 C1307 1.499 . S
C1310 C1311 1.373 . S
C1310 C1312 1.389 . S
C1311 H1290 0.950 . S
C1311 C1310 1.373 . S
C1311 C1327 1.377 . S
C1312 C1310 1.389 . S
C1312 C1313 1.524 . S
C1312 C1326 1.377 . S
C1313 C1312 1.524 . S
C1313 C1314 1.397 . S
C1313 C1318 1.363 . S
C1314 H1291 0.950 . S
C1314 C1313 1.397 . S
C1314 C1315 1.334 . S
C1315 H1292 0.950 . S
C1315 C1314 1.334 . S
C1315 C1316 1.287 . S
C1316 C1315 1.287 . S
C1316 C1317 1.524 . S
C1316 H1335 0.913 . S
C1317 H1293 0.950 . S
C1317 C1316 1.524 . S
C1317 C1318 1.415 . S
C1318 H1294 0.950 . S
C1318 C1313 1.363 . S
C1318 C1317 1.415 . S
C1319 H1295 0.951 . S
C1319 C1320 1.366 . S
C1319 C1321 1.388 . S
C1320 C1319 1.366 . S
C1320 C1324 1.385 . S
C1321 H1296 0.951 . S
C1321 C1319 1.388 . S
C1321 C1322 1.366 . S
C1322 C1321 1.366 . S
C1322 C1323 1.414 . S
C1322 C1325 1.499 . S
C1323 H1297 0.950 . S
C1323 C1322 1.414 . S
C1323 C1324 1.374 . S
C1324 H1298 0.950 . S
C1324 C1320 1.385 . S
C1324 C1323 1.374 . S
C1325 C1322 1.499 . S
C1325 C1326 1.373 . S
C1325 C1327 1.389 . S
C1326 H1299 0.950 . S
C1326 C1312 1.377 . S
C1326 C1325 1.373 . S
C1327 C1311 1.377 . S
C1327 C1325 1.389 . S
C1327 C1328 1.524 . S
C1328 C1327 1.524 . S
C1328 C1329 1.397 . S
C1328 C1333 1.363 . S
C1329 H1300 0.950 . S
C1329 C1328 1.397 . S
C1329 C1330 1.334 . S
C1330 H1301 0.950 . S
C1330 C1329 1.334 . S
C1330 C1331 1.287 . S
C1331 C1330 1.287 . S
C1331 C1332 1.524 . S
C1331 H1334 0.999 . S
C1332 H1302 0.950 . S
C1332 C1331 1.524 . S
C1332 C1333 1.415 . S
C1333 H1303 0.950 . S
C1333 C1328 1.363 . S
C1333 C1332 1.415 . S
H1334 C1331 0.999 . S
H1335 C1316 0.913 . S
H1336 C1354 0.951 . S
H1337 C1356 0.951 . S
H1338 C1358 0.950 . S
H1339 C1359 0.950 . S
H1340 C1361 0.950 . S
H1341 C1364 0.950 . S
H1342 C1365 0.950 . S
H1343 C1367 0.950 . S
H1344 C1368 0.950 . S
H1345 C1369 0.951 . S
H1346 C1371 0.951 . S
H1347 C1373 0.950 . S
H1348 C1374 0.950 . S
H1349 C1376 0.950 . S
H1350 C1379 0.950 . S
H1351 C1380 0.950 . S
H1352 C1382 0.950 . S
H1353 C1383 0.950 . S
C1354 H1336 0.951 . S
C1354 C1355 1.366 . S
C1354 C1356 1.388 . S
C1355 C1354 1.366 . S
C1355 C1359 1.385 . S
C1356 H1337 0.951 . S
C1356 C1354 1.388 . S
C1356 C1357 1.366 . S
C1357 C1356 1.366 . S
C1357 C1358 1.414 . S
C1357 C1360 1.499 . S
C1358 H1338 0.950 . S
C1358 C1357 1.414 . S
C1358 C1359 1.374 . S
C1359 H1339 0.950 . S
C1359 C1355 1.385 . S
C1359 C1358 1.374 . S
C1360 C1357 1.499 . S
C1360 C1361 1.373 . S
C1360 C1362 1.389 . S
C1361 H1340 0.950 . S
C1361 C1360 1.373 . S
C1361 C1377 1.377 . S
C1362 C1360 1.389 . S
C1362 C1363 1.524 . S
C1362 C1376 1.377 . S
C1363 C1362 1.524 . S
C1363 C1364 1.397 . S
C1363 C1368 1.363 . S
C1364 H1341 0.950 . S
C1364 C1363 1.397 . S
C1364 C1365 1.334 . S
C1365 H1342 0.950 . S
C1365 C1364 1.334 . S
C1365 C1366 1.287 . S
C1366 C1365 1.287 . S
C1366 C1367 1.524 . S
C1366 H1385 0.913 . S
C1367 H1343 0.950 . S
C1367 C1366 1.524 . S
C1367 C1368 1.415 . S
C1368 H1344 0.950 . S
C1368 C1363 1.363 . S
C1368 C1367 1.415 . S
C1369 H1345 0.951 . S
C1369 C1370 1.366 . S
C1369 C1371 1.388 . S
C1370 C1369 1.366 . S
C1370 C1374 1.385 . S
C1371 H1346 0.951 . S
C1371 C1369 1.388 . S
C1371 C1372 1.366 . S
C1372 C1371 1.366 . S
C1372 C1373 1.414 . S
C1372 C1375 1.499 . S
C1373 H1347 0.950 . S
C1373 C1372 1.414 . S
C1373 C1374 1.374 . S
C1374 H1348 0.950 . S
C1374 C1370 1.385 . S
C1374 C1373 1.374 . S
C1375 C1372 1.499 . S
C1375 C1376 1.373 . S
C1375 C1377 1.389 . S
C1376 H1349 0.950 . S
C1376 C1362 1.377 . S
C1376 C1375 1.373 . S
C1377 C1361 1.377 . S
C1377 C1375 1.389 . S
C1377 C1378 1.524 . S
C1378 C1377 1.524 . S
C1378 C1379 1.397 . S
C1378 C1383 1.363 . S
C1379 H1350 0.950 . S
C1379 C1378 1.397 . S
C1379 C1380 1.334 . S
C1380 H1351 0.950 . S
C1380 C1379 1.334 . S
C1380 C1381 1.287 . S
C1381 C1380 1.287 . S
C1381 C1382 1.524 . S
C1381 H1384 0.999 . S
C1382 H1352 0.950 . S
C1382 C1381 1.524 . S
C1382 C1383 1.415 . S
C1383 H1353 0.950 . S
C1383 C1378 1.363 . S
C1383 C1382 1.415 . S
H1384 C1381 0.999 . S
H1385 C1366 0.913 . S
H1386 C1404 0.951 . S
H1387 C1406 0.951 . S
H1388 C1408 0.950 . S
H1389 C1409 0.950 . S
H1390 C1411 0.950 . S
H1391 C1414 0.950 . S
H1392 C1415 0.950 . S
H1393 C1417 0.950 . S
H1394 C1418 0.950 . S
H1395 C1419 0.951 . S
H1396 C1421 0.951 . S
H1397 C1423 0.950 . S
H1398 C1424 0.950 . S
H1399 C1426 0.950 . S
H1400 C1429 0.950 . S
H1401 C1430 0.950 . S
H1402 C1432 0.950 . S
H1403 C1433 0.950 . S
C1404 H1386 0.951 . S
C1404 C1405 1.366 . S
C1404 C1406 1.388 . S
C1405 C1404 1.366 . S
C1405 C1409 1.385 . S
C1406 H1387 0.951 . S
C1406 C1404 1.388 . S
C1406 C1407 1.366 . S
C1407 C1406 1.366 . S
C1407 C1408 1.414 . S
C1407 C1410 1.499 . S
C1408 H1388 0.950 . S
C1408 C1407 1.414 . S
C1408 C1409 1.374 . S
C1409 H1389 0.950 . S
C1409 C1405 1.385 . S
C1409 C1408 1.374 . S
C1410 C1407 1.499 . S
C1410 C1411 1.373 . S
C1410 C1412 1.389 . S
C1411 H1390 0.950 . S
C1411 C1410 1.373 . S
C1411 C1427 1.377 . S
C1412 C1410 1.389 . S
C1412 C1413 1.524 . S
C1412 C1426 1.377 . S
C1413 C1412 1.524 . S
C1413 C1414 1.397 . S
C1413 C1418 1.363 . S
C1414 H1391 0.950 . S
C1414 C1413 1.397 . S
C1414 C1415 1.334 . S
C1415 H1392 0.950 . S
C1415 C1414 1.334 . S
C1415 C1416 1.287 . S
C1416 C1415 1.287 . S
C1416 C1417 1.524 . S
C1416 H1435 0.913 . S
C1417 H1393 0.950 . S
C1417 C1416 1.524 . S
C1417 C1418 1.415 . S
C1418 H1394 0.950 . S
C1418 C1413 1.363 . S
C1418 C1417 1.415 . S
C1419 H1395 0.951 . S
C1419 C1420 1.366 . S
C1419 C1421 1.388 . S
C1420 C1419 1.366 . S
C1420 C1424 1.385 . S
C1421 H1396 0.951 . S
C1421 C1419 1.388 . S
C1421 C1422 1.366 . S
C1422 C1421 1.366 . S
C1422 C1423 1.414 . S
C1422 C1425 1.499 . S
C1423 H1397 0.950 . S
C1423 C1422 1.414 . S
C1423 C1424 1.374 . S
C1424 H1398 0.950 . S
C1424 C1420 1.385 . S
C1424 C1423 1.374 . S
C1425 C1422 1.499 . S
C1425 C1426 1.373 . S
C1425 C1427 1.389 . S
C1426 H1399 0.950 . S
C1426 C1412 1.377 . S
C1426 C1425 1.373 . S
C1427 C1411 1.377 . S
C1427 C1425 1.389 . S
C1427 C1428 1.524 . S
C1428 C1427 1.524 . S
C1428 C1429 1.397 . S
C1428 C1433 1.363 . S
C1429 H1400 0.950 . S
C1429 C1428 1.397 . S
C1429 C1430 1.334 . S
C1430 H1401 0.950 . S
C1430 C1429 1.334 . S
C1430 C1431 1.287 . S
C1431 C1430 1.287 . S
C1431 C1432 1.524 . S
C1431 H1434 0.999 . S
C1432 H1402 0.950 . S
C1432 C1431 1.524 . S
C1432 C1433 1.415 . S
C1433 H1403 0.950 . S
C1433 C1428 1.363 . S
C1433 C1432 1.415 . S
H1434 C1431 0.999 . S
H1435 C1416 0.913 . S
H1436 C1454 0.951 . S
H1437 C1456 0.951 . S
H1438 C1458 0.950 . S
H1439 C1459 0.950 . S
H1440 C1461 0.950 . S
H1441 C1464 0.950 . S
H1442 C1465 0.950 . S
H1443 C1467 0.950 . S
H1444 C1468 0.950 . S
H1445 C1469 0.951 . S
H1446 C1471 0.951 . S
H1447 C1473 0.950 . S
H1448 C1474 0.950 . S
H1449 C1476 0.950 . S
H1450 C1479 0.950 . S
H1451 C1480 0.950 . S
H1452 C1482 0.950 . S
H1453 C1483 0.950 . S
C1454 H1436 0.951 . S
C1454 C1455 1.366 . S
C1454 C1456 1.388 . S
C1455 C1454 1.366 . S
C1455 C1459 1.385 . S
C1456 H1437 0.951 . S
C1456 C1454 1.388 . S
C1456 C1457 1.366 . S
C1457 C1456 1.366 . S
C1457 C1458 1.414 . S
C1457 C1460 1.499 . S
C1458 H1438 0.950 . S
C1458 C1457 1.414 . S
C1458 C1459 1.374 . S
C1459 H1439 0.950 . S
C1459 C1455 1.385 . S
C1459 C1458 1.374 . S
C1460 C1457 1.499 . S
C1460 C1461 1.373 . S
C1460 C1462 1.389 . S
C1461 H1440 0.950 . S
C1461 C1460 1.373 . S
C1461 C1477 1.377 . S
C1462 C1460 1.389 . S
C1462 C1463 1.524 . S
C1462 C1476 1.377 . S
C1463 C1462 1.524 . S
C1463 C1464 1.397 . S
C1463 C1468 1.363 . S
C1464 H1441 0.950 . S
C1464 C1463 1.397 . S
C1464 C1465 1.334 . S
C1465 H1442 0.950 . S
C1465 C1464 1.334 . S
C1465 C1466 1.287 . S
C1466 C1465 1.287 . S
C1466 C1467 1.524 . S
C1466 H1485 0.913 . S
C1467 H1443 0.950 . S
C1467 C1466 1.524 . S
C1467 C1468 1.415 . S
C1468 H1444 0.950 . S
C1468 C1463 1.363 . S
C1468 C1467 1.415 . S
C1469 H1445 0.951 . S
C1469 C1470 1.366 . S
C1469 C1471 1.388 . S
C1470 C1469 1.366 . S
C1470 C1474 1.385 . S
C1471 H1446 0.951 . S
C1471 C1469 1.388 . S
C1471 C1472 1.366 . S
C1472 C1471 1.366 . S
C1472 C1473 1.414 . S
C1472 C1475 1.499 . S
C1473 H1447 0.950 . S
C1473 C1472 1.414 . S
C1473 C1474 1.374 . S
C1474 H1448 0.950 . S
C1474 C1470 1.385 . S
C1474 C1473 1.374 . S
C1475 C1472 1.499 . S
C1475 C1476 1.373 . S
C1475 C1477 1.389 . S
C1476 H1449 0.950 . S
C1476 C1462 1.377 . S
C1476 C1475 1.373 . S
C1477 C1461 1.377 . S
C1477 C1475 1.389 . S
C1477 C1478 1.524 . S
C1478 C1477 1.524 . S
C1478 C1479 1.397 . S
C1478 C1483 1.363 . S
C1479 H1450 0.950 . S
C1479 C1478 1.397 . S
C1479 C1480 1.334 . S
C1480 H1451 0.950 . S
C1480 C1479 1.334 . S
C1480 C1481 1.287 . S
C1481 C1480 1.287 . S
C1481 C1482 1.524 . S
C1481 H1484 0.999 . S
C1482 H1452 0.950 . S
C1482 C1481 1.524 . S
C1482 C1483 1.415 . S
C1483 H1453 0.950 . S
C1483 C1478 1.363 . S
C1483 C1482 1.415 . S
H1484 C1481 0.999 . S
H1485 C1466 0.913 . S
H1486 C1504 0.951 . S
H1487 C1506 0.951 . S
H1488 C1508 0.950 . S
H1489 C1509 0.950 . S
H1490 C1511 0.950 . S
H1491 C1514 0.950 . S
H1492 C1515 0.950 . S
H1493 C1517 0.950 . S
H1494 C1518 0.950 . S
H1495 C1519 0.951 . S
H1496 C1521 0.951 . S
H1497 C1523 0.950 . S
H1498 C1524 0.950 . S
H1499 C1526 0.950 . S
H1500 C1529 0.950 . S
H1501 C1530 0.950 . S
H1502 C1532 0.950 . S
H1503 C1533 0.950 . S
C1504 H1486 0.951 . S
C1504 C1505 1.366 . S
C1504 C1506 1.388 . S
C1505 C1504 1.366 . S
C1505 C1509 1.385 . S
C1506 H1487 0.951 . S
C1506 C1504 1.388 . S
C1506 C1507 1.366 . S
C1507 C1506 1.366 . S
C1507 C1508 1.414 . S
C1507 C1510 1.499 . S
C1508 H1488 0.950 . S
C1508 C1507 1.414 . S
C1508 C1509 1.374 . S
C1509 H1489 0.950 . S
C1509 C1505 1.385 . S
C1509 C1508 1.374 . S
C1510 C1507 1.499 . S
C1510 C1511 1.373 . S
C1510 C1512 1.389 . S
C1511 H1490 0.950 . S
C1511 C1510 1.373 . S
C1511 C1527 1.377 . S
C1512 C1510 1.389 . S
C1512 C1513 1.524 . S
C1512 C1526 1.377 . S
C1513 C1512 1.524 . S
C1513 C1514 1.397 . S
C1513 C1518 1.363 . S
C1514 H1491 0.950 . S
C1514 C1513 1.397 . S
C1514 C1515 1.334 . S
C1515 H1492 0.950 . S
C1515 C1514 1.334 . S
C1515 C1516 1.287 . S
C1516 C1515 1.287 . S
C1516 C1517 1.524 . S
C1516 H1535 0.913 . S
C1517 H1493 0.950 . S
C1517 C1516 1.524 . S
C1517 C1518 1.415 . S
C1518 H1494 0.950 . S
C1518 C1513 1.363 . S
C1518 C1517 1.415 . S
C1519 H1495 0.951 . S
C1519 C1520 1.366 . S
C1519 C1521 1.388 . S
C1520 C1519 1.366 . S
C1520 C1524 1.385 . S
C1521 H1496 0.951 . S
C1521 C1519 1.388 . S
C1521 C1522 1.366 . S
C1522 C1521 1.366 . S
C1522 C1523 1.414 . S
C1522 C1525 1.499 . S
C1523 H1497 0.950 . S
C1523 C1522 1.414 . S
C1523 C1524 1.374 . S
C1524 H1498 0.950 . S
C1524 C1520 1.385 . S
C1524 C1523 1.374 . S
C1525 C1522 1.499 . S
C1525 C1526 1.373 . S
C1525 C1527 1.389 . S
C1526 H1499 0.950 . S
C1526 C1512 1.377 . S
C1526 C1525 1.373 . S
C1527 C1511 1.377 . S
C1527 C1525 1.389 . S
C1527 C1528 1.524 . S
C1528 C1527 1.524 . S
C1528 C1529 1.397 . S
C1528 C1533 1.363 . S
C1529 H1500 0.950 . S
C1529 C1528 1.397 . S
C1529 C1530 1.334 . S
C1530 H1501 0.950 . S
C1530 C1529 1.334 . S
C1530 C1531 1.287 . S
C1531 C1530 1.287 . S
C1531 C1532 1.524 . S
C1531 H1534 0.999 . S
C1532 H1502 0.950 . S
C1532 C1531 1.524 . S
C1532 C1533 1.415 . S
C1533 H1503 0.950 . S
C1533 C1528 1.363 . S
C1533 C1532 1.415 . S
H1534 C1531 0.999 . S
H1535 C1516 0.913 . S
H1536 C1554 0.951 . S
H1537 C1556 0.951 . S
H1538 C1558 0.950 . S
H1539 C1559 0.950 . S
H1540 C1561 0.950 . S
H1541 C1564 0.950 . S
H1542 C1565 0.950 . S
H1543 C1567 0.950 . S
H1544 C1568 0.950 . S
H1545 C1569 0.951 . S
H1546 C1571 0.951 . S
H1547 C1573 0.950 . S
H1548 C1574 0.950 . S
H1549 C1576 0.950 . S
H1550 C1579 0.950 . S
H1551 C1580 0.950 . S
H1552 C1582 0.950 . S
H1553 C1583 0.950 . S
C1554 H1536 0.951 . S
C1554 C1555 1.366 . S
C1554 C1556 1.388 . S
C1555 C1554 1.366 . S
C1555 C1559 1.385 . S
C1556 H1537 0.951 . S
C1556 C1554 1.388 . S
C1556 C1557 1.366 . S
C1557 C1556 1.366 . S
C1557 C1558 1.414 . S
C1557 C1560 1.499 . S
C1558 H1538 0.950 . S
C1558 C1557 1.414 . S
C1558 C1559 1.374 . S
C1559 H1539 0.950 . S
C1559 C1555 1.385 . S
C1559 C1558 1.374 . S
C1560 C1557 1.499 . S
C1560 C1561 1.373 . S
C1560 C1562 1.389 . S
C1561 H1540 0.950 . S
C1561 C1560 1.373 . S
C1561 C1577 1.377 1_455 S
C1562 C1560 1.389 . S
C1562 C1563 1.524 . S
C1562 C1576 1.377 1_455 S
C1563 C1562 1.524 . S
C1563 C1564 1.397 . S
C1563 C1568 1.363 . S
C1564 H1541 0.950 . S
C1564 C1563 1.397 . S
C1564 C1565 1.334 . S
C1565 H1542 0.950 . S
C1565 C1564 1.334 . S
C1565 C1566 1.287 . S
C1566 C1565 1.287 . S
C1566 C1567 1.524 . S
C1566 H1585 0.913 . S
C1567 H1543 0.950 . S
C1567 C1566 1.524 . S
C1567 C1568 1.415 . S
C1568 H1544 0.950 . S
C1568 C1563 1.363 . S
C1568 C1567 1.415 . S
C1569 H1545 0.951 . S
C1569 C1570 1.366 . S
C1569 C1571 1.388 . S
C1570 C1569 1.366 . S
C1570 C1574 1.385 . S
C1571 H1546 0.951 . S
C1571 C1569 1.388 . S
C1571 C1572 1.366 . S
C1572 C1571 1.366 . S
C1572 C1573 1.414 . S
C1572 C1575 1.499 . S
C1573 H1547 0.950 . S
C1573 C1572 1.414 . S
C1573 C1574 1.374 . S
C1574 H1548 0.950 . S
C1574 C1570 1.385 . S
C1574 C1573 1.374 . S
C1575 C1572 1.499 . S
C1575 C1576 1.373 . S
C1575 C1577 1.389 . S
C1576 H1549 0.950 . S
C1576 C1562 1.377 1_655 S
C1576 C1575 1.373 . S
C1577 C1561 1.377 1_655 S
C1577 C1575 1.389 . S
C1577 C1578 1.524 . S
C1578 C1577 1.524 . S
C1578 C1579 1.397 . S
C1578 C1583 1.363 . S
C1579 H1550 0.950 . S
C1579 C1578 1.397 . S
C1579 C1580 1.334 . S
C1580 H1551 0.950 . S
C1580 C1579 1.334 . S
C1580 C1581 1.287 . S
C1581 C1580 1.287 . S
C1581 C1582 1.524 . S
C1581 H1584 0.999 . S
C1582 H1552 0.950 . S
C1582 C1581 1.524 . S
C1582 C1583 1.415 . S
C1583 H1553 0.950 . S
C1583 C1578 1.363 . S
C1583 C1582 1.415 . S
H1584 C1581 0.999 . S
H1585 C1566 0.913 . S
H1586 C1604 0.951 . S
H1587 C1606 0.951 . S
H1588 C1608 0.950 . S
H1589 C1609 0.950 . S
H1590 C1611 0.950 . S
H1591 C1614 0.950 . S
H1592 C1615 0.950 . S
H1593 C1617 0.950 . S
H1594 C1618 0.950 . S
H1595 C1619 0.951 . S
H1596 C1621 0.951 . S
H1597 C1623 0.950 . S
H1598 C1624 0.950 . S
H1599 C1626 0.950 . S
H1600 C1629 0.950 . S
H1601 C1630 0.950 . S
H1602 C1632 0.950 . S
H1603 C1633 0.950 . S
C1604 H1586 0.951 . S
C1604 C1605 1.366 . S
C1604 C1606 1.388 . S
C1605 C1604 1.366 . S
C1605 C1609 1.385 . S
C1606 H1587 0.951 . S
C1606 C1604 1.388 . S
C1606 C1607 1.366 . S
C1607 C1606 1.366 . S
C1607 C1608 1.414 . S
C1607 C1610 1.499 . S
C1608 H1588 0.950 . S
C1608 C1607 1.414 . S
C1608 C1609 1.374 . S
C1609 H1589 0.950 . S
C1609 C1605 1.385 . S
C1609 C1608 1.374 . S
C1610 C1607 1.499 . S
C1610 C1611 1.373 . S
C1610 C1612 1.389 . S
C1611 H1590 0.950 . S
C1611 C1610 1.373 . S
C1611 C1627 1.377 1_545 S
C1612 C1610 1.389 . S
C1612 C1613 1.524 . S
C1612 C1626 1.377 1_545 S
C1613 C1612 1.524 . S
C1613 C1614 1.397 . S
C1613 C1618 1.363 . S
C1614 H1591 0.950 . S
C1614 C1613 1.397 . S
C1614 C1615 1.334 . S
C1615 H1592 0.950 . S
C1615 C1614 1.334 . S
C1615 C1616 1.287 . S
C1616 C1615 1.287 . S
C1616 C1617 1.524 . S
C1616 H1635 0.913 . S
C1617 H1593 0.950 . S
C1617 C1616 1.524 . S
C1617 C1618 1.415 . S
C1618 H1594 0.950 . S
C1618 C1613 1.363 . S
C1618 C1617 1.415 . S
C1619 H1595 0.951 . S
C1619 C1620 1.366 . S
C1619 C1621 1.388 . S
C1620 C1619 1.366 . S
C1620 C1624 1.385 . S
C1621 H1596 0.951 . S
C1621 C1619 1.388 . S
C1621 C1622 1.366 . S
C1622 C1621 1.366 . S
C1622 C1623 1.414 . S
C1622 C1625 1.499 . S
C1623 H1597 0.950 . S
C1623 C1622 1.414 . S
C1623 C1624 1.374 . S
C1624 H1598 0.950 . S
C1624 C1620 1.385 . S
C1624 C1623 1.374 . S
C1625 C1622 1.499 . S
C1625 C1626 1.373 . S
C1625 C1627 1.389 . S
C1626 H1599 0.950 . S
C1626 C1612 1.377 1_565 S
C1626 C1625 1.373 . S
C1627 C1611 1.377 1_565 S
C1627 C1625 1.389 . S
C1627 C1628 1.524 . S
C1628 C1627 1.524 . S
C1628 C1629 1.397 . S
C1628 C1633 1.363 . S
C1629 H1600 0.950 . S
C1629 C1628 1.397 . S
C1629 C1630 1.334 . S
C1630 H1601 0.950 . S
C1630 C1629 1.334 . S
C1630 C1631 1.287 . S
C1631 C1630 1.287 . S
C1631 C1632 1.524 . S
C1631 H1634 0.999 . S
C1632 H1602 0.950 . S
C1632 C1631 1.524 . S
C1632 C1633 1.415 . S
C1633 H1603 0.950 . S
C1633 C1628 1.363 . S
C1633 C1632 1.415 . S
H1634 C1631 0.999 . S
H1635 C1616 0.913 . S
H1636 C1654 0.951 . S
H1637 C1656 0.951 . S
H1638 C1658 0.950 . S
H1639 C1659 0.950 . S
H1640 C1661 0.950 . S
H1641 C1664 0.950 . S
H1642 C1665 0.950 . S
H1643 C1667 0.950 . S
H1644 C1668 0.950 . S
H1645 C1669 0.951 . S
H1646 C1671 0.951 . S
H1647 C1673 0.950 . S
H1648 C1674 0.950 . S
H1649 C1676 0.950 . S
H1650 C1679 0.950 . S
H1651 C1680 0.950 . S
H1652 C1682 0.950 . S
H1653 C1683 0.950 . S
C1654 H1636 0.951 . S
C1654 C1655 1.366 . S
C1654 C1656 1.388 . S
C1655 C1654 1.366 . S
C1655 C1659 1.385 . S
C1656 H1637 0.951 . S
C1656 C1654 1.388 . S
C1656 C1657 1.366 . S
C1657 C1656 1.366 . S
C1657 C1658 1.414 . S
C1657 C1660 1.499 . S
C1658 H1638 0.950 . S
C1658 C1657 1.414 . S
C1658 C1659 1.374 . S
C1659 H1639 0.950 . S
C1659 C1655 1.385 . S
C1659 C1658 1.374 . S
C1660 C1657 1.499 . S
C1660 C1661 1.373 . S
C1660 C1662 1.389 . S
C1661 H1640 0.950 . S
C1661 C1660 1.373 . S
C1661 C1677 1.377 1_655 S
C1662 C1660 1.389 . S
C1662 C1663 1.524 . S
C1662 C1676 1.377 1_655 S
C1663 C1662 1.524 . S
C1663 C1664 1.397 . S
C1663 C1668 1.363 . S
C1664 H1641 0.950 . S
C1664 C1663 1.397 . S
C1664 C1665 1.334 . S
C1665 H1642 0.950 . S
C1665 C1664 1.334 . S
C1665 C1666 1.287 . S
C1666 C1665 1.287 . S
C1666 C1667 1.524 . S
C1666 H1685 0.913 . S
C1667 H1643 0.950 . S
C1667 C1666 1.524 . S
C1667 C1668 1.415 . S
C1668 H1644 0.950 . S
C1668 C1663 1.363 . S
C1668 C1667 1.415 . S
C1669 H1645 0.951 . S
C1669 C1670 1.366 . S
C1669 C1671 1.388 . S
C1670 C1669 1.366 . S
C1670 C1674 1.385 . S
C1671 H1646 0.951 . S
C1671 C1669 1.388 . S
C1671 C1672 1.366 . S
C1672 C1671 1.366 . S
C1672 C1673 1.414 . S
C1672 C1675 1.499 . S
C1673 H1647 0.950 . S
C1673 C1672 1.414 . S
C1673 C1674 1.374 . S
C1674 H1648 0.950 . S
C1674 C1670 1.385 . S
C1674 C1673 1.374 . S
C1675 C1672 1.499 . S
C1675 C1676 1.373 . S
C1675 C1677 1.389 . S
C1676 H1649 0.950 . S
C1676 C1662 1.377 1_455 S
C1676 C1675 1.373 . S
C1677 C1661 1.377 1_455 S
C1677 C1675 1.389 . S
C1677 C1678 1.524 . S
C1678 C1677 1.524 . S
C1678 C1679 1.397 . S
C1678 C1683 1.363 . S
C1679 H1650 0.950 . S
C1679 C1678 1.397 . S
C1679 C1680 1.334 . S
C1680 H1651 0.950 . S
C1680 C1679 1.334 . S
C1680 C1681 1.287 . S
C1681 C1680 1.287 . S
C1681 C1682 1.524 . S
C1681 H1684 0.999 . S
C1682 H1652 0.950 . S
C1682 C1681 1.524 . S
C1682 C1683 1.415 . S
C1683 H1653 0.950 . S
C1683 C1678 1.363 . S
C1683 C1682 1.415 . S
H1684 C1681 0.999 . S
H1685 C1666 0.913 . S
H1686 C1704 0.951 . S
H1687 C1706 0.951 . S
H1688 C1708 0.950 . S
H1689 C1709 0.950 . S
H1690 C1711 0.950 . S
H1691 C1714 0.950 . S
H1692 C1715 0.950 . S
H1693 C1717 0.950 . S
H1694 C1718 0.950 . S
H1695 C1719 0.951 . S
H1696 C1721 0.951 . S
H1697 C1723 0.950 . S
H1698 C1724 0.950 . S
H1699 C1726 0.950 . S
H1700 C1729 0.950 . S
H1701 C1730 0.950 . S
H1702 C1732 0.950 . S
H1703 C1733 0.950 . S
C1704 H1686 0.951 . S
C1704 C1705 1.366 . S
C1704 C1706 1.388 . S
C1705 C1704 1.366 . S
C1705 C1709 1.385 . S
C1706 H1687 0.951 . S
C1706 C1704 1.388 . S
C1706 C1707 1.366 . S
C1707 C1706 1.366 . S
C1707 C1708 1.414 . S
C1707 C1710 1.499 . S
C1708 H1688 0.950 . S
C1708 C1707 1.414 . S
C1708 C1709 1.374 . S
C1709 H1689 0.950 . S
C1709 C1705 1.385 . S
C1709 C1708 1.374 . S
C1710 C1707 1.499 . S
C1710 C1711 1.373 . S
C1710 C1712 1.389 . S
C1711 H1690 0.950 . S
C1711 C1710 1.373 . S
C1711 C1727 1.377 1_545 S
C1712 C1710 1.389 . S
C1712 C1713 1.524 . S
C1712 C1726 1.377 1_545 S
C1713 C1712 1.524 . S
C1713 C1714 1.397 . S
C1713 C1718 1.363 . S
C1714 H1691 0.950 . S
C1714 C1713 1.397 . S
C1714 C1715 1.334 . S
C1715 H1692 0.950 . S
C1715 C1714 1.334 . S
C1715 C1716 1.287 . S
C1716 C1715 1.287 . S
C1716 C1717 1.524 . S
C1716 H1735 0.913 . S
C1717 H1693 0.950 . S
C1717 C1716 1.524 . S
C1717 C1718 1.415 . S
C1718 H1694 0.950 . S
C1718 C1713 1.363 . S
C1718 C1717 1.415 . S
C1719 H1695 0.951 . S
C1719 C1720 1.366 . S
C1719 C1721 1.388 . S
C1720 C1719 1.366 . S
C1720 C1724 1.385 . S
C1721 H1696 0.951 . S
C1721 C1719 1.388 . S
C1721 C1722 1.366 . S
C1722 C1721 1.366 . S
C1722 C1723 1.414 . S
C1722 C1725 1.499 . S
C1723 H1697 0.950 . S
C1723 C1722 1.414 . S
C1723 C1724 1.374 . S
C1724 H1698 0.950 . S
C1724 C1720 1.385 . S
C1724 C1723 1.374 . S
C1725 C1722 1.499 . S
C1725 C1726 1.373 . S
C1725 C1727 1.389 . S
C1726 H1699 0.950 . S
C1726 C1712 1.377 1_565 S
C1726 C1725 1.373 . S
C1727 C1711 1.377 1_565 S
C1727 C1725 1.389 . S
C1727 C1728 1.524 . S
C1728 C1727 1.524 . S
C1728 C1729 1.397 . S
C1728 C1733 1.363 . S
C1729 H1700 0.950 . S
C1729 C1728 1.397 . S
C1729 C1730 1.334 . S
C1730 H1701 0.950 . S
C1730 C1729 1.334 . S
C1730 C1731 1.287 . S
C1731 C1730 1.287 . S
C1731 C1732 1.524 . S
C1731 H1734 0.999 . S
C1732 H1702 0.950 . S
C1732 C1731 1.524 . S
C1732 C1733 1.415 . S
C1733 H1703 0.950 . S
C1733 C1728 1.363 . S
C1733 C1732 1.415 . S
H1734 C1731 0.999 . S
H1735 C1716 0.913 . S
H1736 C1754 0.951 . S
H1737 C1756 0.951 . S
H1738 C1758 0.950 . S
H1739 C1759 0.950 . S
H1740 C1761 0.950 . S
H1741 C1764 0.950 . S
H1742 C1765 0.950 . S
H1743 C1767 0.950 . S
H1744 C1768 0.950 . S
H1745 C1769 0.951 . S
H1746 C1771 0.951 . S
H1747 C1773 0.950 . S
H1748 C1774 0.950 . S
H1749 C1776 0.950 . S
H1750 C1779 0.950 . S
H1751 C1780 0.950 . S
H1752 C1782 0.950 . S
H1753 C1783 0.950 . S
C1754 H1736 0.951 . S
C1754 C1755 1.366 . S
C1754 C1756 1.388 . S
C1755 C1754 1.366 . S
C1755 C1759 1.385 . S
C1756 H1737 0.951 . S
C1756 C1754 1.388 . S
C1756 C1757 1.366 . S
C1757 C1756 1.366 . S
C1757 C1758 1.414 . S
C1757 C1760 1.499 . S
C1758 H1738 0.950 . S
C1758 C1757 1.414 . S
C1758 C1759 1.374 . S
C1759 H1739 0.950 . S
C1759 C1755 1.385 . S
C1759 C1758 1.374 . S
C1760 C1757 1.499 . S
C1760 C1761 1.373 . S
C1760 C1762 1.389 . S
C1761 H1740 0.950 . S
C1761 C1760 1.373 . S
C1761 C1777 1.377 1_565 S
C1762 C1760 1.389 . S
C1762 C1763 1.524 . S
C1762 C1776 1.377 1_565 S
C1763 C1762 1.524 . S
C1763 C1764 1.397 . S
C1763 C1768 1.363 . S
C1764 H1741 0.950 . S
C1764 C1763 1.397 . S
C1764 C1765 1.334 . S
C1765 H1742 0.950 . S
C1765 C1764 1.334 . S
C1765 C1766 1.287 . S
C1766 C1765 1.287 . S
C1766 C1767 1.524 . S
C1766 H1785 0.913 . S
C1767 H1743 0.950 . S
C1767 C1766 1.524 . S
C1767 C1768 1.415 . S
C1768 H1744 0.950 . S
C1768 C1763 1.363 . S
C1768 C1767 1.415 . S
C1769 H1745 0.951 . S
C1769 C1770 1.366 . S
C1769 C1771 1.388 . S
C1770 C1769 1.366 . S
C1770 C1774 1.385 . S
C1771 H1746 0.951 . S
C1771 C1769 1.388 . S
C1771 C1772 1.366 . S
C1772 C1771 1.366 . S
C1772 C1773 1.414 . S
C1772 C1775 1.499 . S
C1773 H1747 0.950 . S
C1773 C1772 1.414 . S
C1773 C1774 1.374 . S
C1774 H1748 0.950 . S
C1774 C1770 1.385 . S
C1774 C1773 1.374 . S
C1775 C1772 1.499 . S
C1775 C1776 1.373 . S
C1775 C1777 1.389 . S
C1776 H1749 0.950 . S
C1776 C1762 1.377 1_545 S
C1776 C1775 1.373 . S
C1777 C1761 1.377 1_545 S
C1777 C1775 1.389 . S
C1777 C1778 1.524 . S
C1778 C1777 1.524 . S
C1778 C1779 1.397 . S
C1778 C1783 1.363 . S
C1779 H1750 0.950 . S
C1779 C1778 1.397 . S
C1779 C1780 1.334 . S
C1780 H1751 0.950 . S
C1780 C1779 1.334 . S
C1780 C1781 1.287 . S
C1781 C1780 1.287 . S
C1781 C1782 1.524 . S
C1781 H1784 0.999 . S
C1782 H1752 0.950 . S
C1782 C1781 1.524 . S
C1782 C1783 1.415 . S
C1783 H1753 0.950 . S
C1783 C1778 1.363 . S
C1783 C1782 1.415 . S
H1784 C1781 0.999 . S
H1785 C1766 0.913 . S
H1786 C1804 0.951 . S
H1787 C1806 0.951 . S
H1788 C1808 0.950 . S
H1789 C1809 0.950 . S
H1790 C1811 0.950 . S
H1791 C1814 0.950 . S
H1792 C1815 0.950 . S
H1793 C1817 0.950 . S
H1794 C1818 0.950 . S
H1795 C1819 0.951 . S
H1796 C1821 0.951 . S
H1797 C1823 0.950 . S
H1798 C1824 0.950 . S
H1799 C1826 0.950 . S
H1800 C1829 0.950 . S
H1801 C1830 0.950 . S
H1802 C1832 0.950 . S
H1803 C1833 0.950 . S
C1804 H1786 0.951 . S
C1804 C1805 1.366 . S
C1804 C1806 1.388 . S
C1805 C1804 1.366 . S
C1805 C1809 1.385 . S
C1806 H1787 0.951 . S
C1806 C1804 1.388 . S
C1806 C1807 1.366 . S
C1807 C1806 1.366 . S
C1807 C1808 1.414 . S
C1807 C1810 1.499 . S
C1808 H1788 0.950 . S
C1808 C1807 1.414 . S
C1808 C1809 1.374 . S
C1809 H1789 0.950 . S
C1809 C1805 1.385 . S
C1809 C1808 1.374 . S
C1810 C1807 1.499 . S
C1810 C1811 1.373 . S
C1810 C1812 1.389 . S
C1811 H1790 0.950 . S
C1811 C1810 1.373 . S
C1811 C1827 1.377 1_655 S
C1812 C1810 1.389 . S
C1812 C1813 1.524 . S
C1812 C1826 1.377 1_655 S
C1813 C1812 1.524 . S
C1813 C1814 1.397 . S
C1813 C1818 1.363 . S
C1814 H1791 0.950 . S
C1814 C1813 1.397 . S
C1814 C1815 1.334 . S
C1815 H1792 0.950 . S
C1815 C1814 1.334 . S
C1815 C1816 1.287 . S
C1816 C1815 1.287 . S
C1816 C1817 1.524 . S
C1816 H1835 0.913 . S
C1817 H1793 0.950 . S
C1817 C1816 1.524 . S
C1817 C1818 1.415 . S
C1818 H1794 0.950 . S
C1818 C1813 1.363 . S
C1818 C1817 1.415 . S
C1819 H1795 0.951 . S
C1819 C1820 1.366 . S
C1819 C1821 1.388 . S
C1820 C1819 1.366 . S
C1820 C1824 1.385 . S
C1821 H1796 0.951 . S
C1821 C1819 1.388 . S
C1821 C1822 1.366 . S
C1822 C1821 1.366 . S
C1822 C1823 1.414 . S
C1822 C1825 1.499 . S
C1823 H1797 0.950 . S
C1823 C1822 1.414 . S
C1823 C1824 1.374 . S
C1824 H1798 0.950 . S
C1824 C1820 1.385 . S
C1824 C1823 1.374 . S
C1825 C1822 1.499 . S
C1825 C1826 1.373 . S
C1825 C1827 1.389 . S
C1826 H1799 0.950 . S
C1826 C1812 1.377 1_455 S
C1826 C1825 1.373 . S
C1827 C1811 1.377 1_455 S
C1827 C1825 1.389 . S
C1827 C1828 1.524 . S
C1828 C1827 1.524 . S
C1828 C1829 1.397 . S
C1828 C1833 1.363 . S
C1829 H1800 0.950 . S
C1829 C1828 1.397 . S
C1829 C1830 1.334 . S
C1830 H1801 0.950 . S
C1830 C1829 1.334 . S
C1830 C1831 1.287 . S
C1831 C1830 1.287 . S
C1831 C1832 1.524 . S
C1831 H1834 0.999 . S
C1832 H1802 0.950 . S
C1832 C1831 1.524 . S
C1832 C1833 1.415 . S
C1833 H1803 0.950 . S
C1833 C1828 1.363 . S
C1833 C1832 1.415 . S
H1834 C1831 0.999 . S
H1835 C1816 0.913 . S
H1836 C1854 0.951 . S
H1837 C1856 0.951 . S
H1838 C1858 0.950 . S
H1839 C1859 0.950 . S
H1840 C1861 0.950 . S
H1841 C1864 0.950 . S
H1842 C1865 0.950 . S
H1843 C1867 0.950 . S
H1844 C1868 0.950 . S
H1845 C1869 0.951 . S
H1846 C1871 0.951 . S
H1847 C1873 0.950 . S
H1848 C1874 0.950 . S
H1849 C1876 0.950 . S
H1850 C1879 0.950 . S
H1851 C1880 0.950 . S
H1852 C1882 0.950 . S
H1853 C1883 0.950 . S
C1854 H1836 0.951 . S
C1854 C1855 1.366 . S
C1854 C1856 1.388 . S
C1855 C1854 1.366 . S
C1855 C1859 1.385 . S
C1856 H1837 0.951 . S
C1856 C1854 1.388 . S
C1856 C1857 1.366 . S
C1857 C1856 1.366 . S
C1857 C1858 1.414 . S
C1857 C1860 1.499 . S
C1858 H1838 0.950 . S
C1858 C1857 1.414 . S
C1858 C1859 1.374 . S
C1859 H1839 0.950 . S
C1859 C1855 1.385 . S
C1859 C1858 1.374 . S
C1860 C1857 1.499 . S
C1860 C1861 1.373 . S
C1860 C1862 1.389 . S
C1861 H1840 0.950 . S
C1861 C1860 1.373 . S
C1861 C1877 1.377 1_565 S
C1862 C1860 1.389 . S
C1862 C1863 1.524 . S
C1862 C1876 1.377 1_565 S
C1863 C1862 1.524 . S
C1863 C1864 1.397 . S
C1863 C1868 1.363 . S
C1864 H1841 0.950 . S
C1864 C1863 1.397 . S
C1864 C1865 1.334 . S
C1865 H1842 0.950 . S
C1865 C1864 1.334 . S
C1865 C1866 1.287 . S
C1866 C1865 1.287 . S
C1866 C1867 1.524 . S
C1866 H1885 0.913 . S
C1867 H1843 0.950 . S
C1867 C1866 1.524 . S
C1867 C1868 1.415 . S
C1868 H1844 0.950 . S
C1868 C1863 1.363 . S
C1868 C1867 1.415 . S
C1869 H1845 0.951 . S
C1869 C1870 1.366 . S
C1869 C1871 1.388 . S
C1870 C1869 1.366 . S
C1870 C1874 1.385 . S
C1871 H1846 0.951 . S
C1871 C1869 1.388 . S
C1871 C1872 1.366 . S
C1872 C1871 1.366 . S
C1872 C1873 1.414 . S
C1872 C1875 1.499 . S
C1873 H1847 0.950 . S
C1873 C1872 1.414 . S
C1873 C1874 1.374 . S
C1874 H1848 0.950 . S
C1874 C1870 1.385 . S
C1874 C1873 1.374 . S
C1875 C1872 1.499 . S
C1875 C1876 1.373 . S
C1875 C1877 1.389 . S
C1876 H1849 0.950 . S
C1876 C1862 1.377 1_545 S
C1876 C1875 1.373 . S
C1877 C1861 1.377 1_545 S
C1877 C1875 1.389 . S
C1877 C1878 1.524 . S
C1878 C1877 1.524 . S
C1878 C1879 1.397 . S
C1878 C1883 1.363 . S
C1879 H1850 0.950 . S
C1879 C1878 1.397 . S
C1879 C1880 1.334 . S
C1880 H1851 0.950 . S
C1880 C1879 1.334 . S
C1880 C1881 1.287 . S
C1881 C1880 1.287 . S
C1881 C1882 1.524 . S
C1881 H1884 0.999 . S
C1882 H1852 0.950 . S
C1882 C1881 1.524 . S
C1882 C1883 1.415 . S
C1883 H1853 0.950 . S
C1883 C1878 1.363 . S
C1883 C1882 1.415 . S
H1884 C1881 0.999 . S
H1885 C1866 0.913 . S
H1886 C1904 0.951 . S
H1887 C1906 0.951 . S
H1888 C1908 0.950 . S
H1889 C1909 0.950 . S
H1890 C1911 0.950 . S
H1891 C1914 0.950 . S
H1892 C1915 0.950 . S
H1893 C1917 0.950 . S
H1894 C1918 0.949 1_455 S
H1895 C1919 0.951 . S
H1896 C1921 0.951 . S
H1897 C1923 0.950 . S
H1898 C1924 0.950 . S
H1899 C1926 0.950 . S
H1900 C1929 0.950 . S
H1901 C1930 0.950 . S
H1902 C1932 0.950 . S
H1903 C1933 0.949 1_655 S
C1904 H1886 0.951 . S
C1904 C1905 1.366 . S
C1904 C1906 1.388 . S
C1905 C1904 1.366 . S
C1905 C1909 1.385 . S
C1906 H1887 0.951 . S
C1906 C1904 1.388 . S
C1906 C1907 1.366 . S
C1907 C1906 1.366 . S
C1907 C1908 1.414 . S
C1907 C1910 1.499 . S
C1908 H1888 0.950 . S
C1908 C1907 1.414 . S
C1908 C1909 1.374 . S
C1909 H1889 0.950 . S
C1909 C1905 1.385 . S
C1909 C1908 1.374 . S
C1910 C1907 1.499 . S
C1910 C1911 1.373 . S
C1910 C1912 1.389 . S
C1911 H1890 0.950 . S
C1911 C1910 1.373 . S
C1911 C1927 1.377 1_655 S
C1912 C1910 1.389 . S
C1912 C1913 1.524 . S
C1912 C1926 1.377 1_655 S
C1913 C1912 1.524 . S
C1913 C1914 1.397 . S
C1913 C1918 1.363 . S
C1914 H1891 0.950 . S
C1914 C1913 1.397 . S
C1914 C1915 1.334 . S
C1915 H1892 0.950 . S
C1915 C1914 1.334 . S
C1915 C1916 1.287 . S
C1916 C1915 1.287 . S
C1916 C1917 1.524 . S
C1916 H1935 0.913 . S
C1917 H1893 0.950 . S
C1917 C1916 1.524 . S
C1917 C1918 1.415 . S
C1918 H1894 0.949 1_655 S
C1918 C1913 1.363 . S
C1918 C1917 1.415 . S
C1919 H1895 0.951 . S
C1919 C1920 1.366 . S
C1919 C1921 1.388 . S
C1920 C1919 1.366 . S
C1920 C1924 1.385 . S
C1921 H1896 0.951 . S
C1921 C1919 1.388 . S
C1921 C1922 1.366 . S
C1922 C1921 1.366 . S
C1922 C1923 1.414 . S
C1922 C1925 1.499 . S
C1923 H1897 0.950 . S
C1923 C1922 1.414 . S
C1923 C1924 1.374 . S
C1924 H1898 0.950 . S
C1924 C1920 1.385 . S
C1924 C1923 1.374 . S
C1925 C1922 1.499 . S
C1925 C1926 1.373 . S
C1925 C1927 1.389 . S
C1926 H1899 0.950 . S
C1926 C1912 1.377 1_455 S
C1926 C1925 1.373 . S
C1927 C1911 1.377 1_455 S
C1927 C1925 1.389 . S
C1927 C1928 1.524 . S
C1928 C1927 1.524 . S
C1928 C1929 1.397 . S
C1928 C1933 1.363 . S
C1929 H1900 0.950 . S
C1929 C1928 1.397 . S
C1929 C1930 1.334 . S
C1930 H1901 0.950 . S
C1930 C1929 1.334 . S
C1930 C1931 1.287 . S
C1931 C1930 1.287 . S
C1931 C1932 1.524 . S
C1931 H1934 0.999 . S
C1932 H1902 0.950 . S
C1932 C1931 1.524 . S
C1932 C1933 1.415 . S
C1933 H1903 0.949 1_455 S
C1933 C1928 1.363 . S
C1933 C1932 1.415 . S
H1934 C1931 0.999 . S
H1935 C1916 0.913 . S
H1936 C1954 0.951 . S
H1937 C1956 0.951 . S
H1938 C1958 0.950 . S
H1939 C1959 0.950 . S
H1940 C1961 0.950 . S
H1941 C1964 0.950 . S
H1942 C1965 0.950 . S
H1943 C1967 0.950 . S
H1944 C1968 0.950 . S
H1945 C1969 0.951 . S
H1946 C1971 0.951 . S
H1947 C1973 0.950 . S
H1948 C1974 0.950 . S
H1949 C1976 0.950 . S
H1950 C1979 0.950 . S
H1951 C1980 0.950 . S
H1952 C1982 0.950 . S
H1953 C1983 0.950 . S
C1954 H1936 0.951 . S
C1954 C1955 1.366 . S
C1954 C1956 1.388 . S
C1955 C1954 1.366 . S
C1955 C1959 1.385 . S
C1956 H1937 0.951 . S
C1956 C1954 1.388 . S
C1956 C1957 1.366 . S
C1957 C1956 1.366 . S
C1957 C1958 1.414 . S
C1957 C1960 1.499 . S
C1958 H1938 0.950 . S
C1958 C1957 1.414 . S
C1958 C1959 1.374 . S
C1959 H1939 0.950 . S
C1959 C1955 1.385 . S
C1959 C1958 1.374 . S
C1960 C1957 1.499 . S
C1960 C1961 1.373 . S
C1960 C1962 1.389 . S
C1961 H1940 0.950 . S
C1961 C1960 1.373 . S
C1961 C1977 1.377 1_556 S
C1962 C1960 1.389 . S
C1962 C1963 1.524 . S
C1962 C1976 1.377 1_556 S
C1963 C1962 1.524 . S
C1963 C1964 1.397 . S
C1963 C1968 1.363 . S
C1964 H1941 0.950 . S
C1964 C1963 1.397 . S
C1964 C1965 1.334 . S
C1965 H1942 0.950 . S
C1965 C1964 1.334 . S
C1965 C1966 1.287 . S
C1966 C1965 1.287 . S
C1966 C1967 1.524 . S
C1966 H1985 0.913 . S
C1967 H1943 0.950 . S
C1967 C1966 1.524 . S
C1967 C1968 1.415 . S
C1968 H1944 0.950 . S
C1968 C1963 1.363 . S
C1968 C1967 1.415 . S
C1969 H1945 0.951 . S
C1969 C1970 1.366 . S
C1969 C1971 1.388 . S
C1970 C1969 1.366 . S
C1970 C1974 1.385 . S
C1971 H1946 0.951 . S
C1971 C1969 1.388 . S
C1971 C1972 1.366 . S
C1972 C1971 1.366 . S
C1972 C1973 1.414 . S
C1972 C1975 1.499 . S
C1973 H1947 0.950 . S
C1973 C1972 1.414 . S
C1973 C1974 1.374 . S
C1974 H1948 0.950 . S
C1974 C1970 1.385 . S
C1974 C1973 1.374 . S
C1975 C1972 1.499 . S
C1975 C1976 1.373 . S
C1975 C1977 1.389 . S
C1976 H1949 0.950 . S
C1976 C1962 1.377 1_554 S
C1976 C1975 1.373 . S
C1977 C1961 1.377 1_554 S
C1977 C1975 1.389 . S
C1977 C1978 1.524 . S
C1978 C1977 1.524 . S
C1978 C1979 1.397 . S
C1978 C1983 1.363 . S
C1979 H1950 0.950 . S
C1979 C1978 1.397 . S
C1979 C1980 1.334 . S
C1980 H1951 0.950 . S
C1980 C1979 1.334 . S
C1980 C1981 1.287 . S
C1981 C1980 1.287 . S
C1981 C1982 1.524 . S
C1981 H1984 0.999 . S
C1982 H1952 0.950 . S
C1982 C1981 1.524 . S
C1982 C1983 1.415 . S
C1983 H1953 0.950 . S
C1983 C1978 1.363 . S
C1983 C1982 1.415 . S
H1984 C1981 0.999 . S
H1985 C1966 0.913 . S
H1986 C2004 0.951 . S
H1987 C2006 0.951 . S
H1988 C2008 0.950 . S
H1989 C2009 0.950 . S
H1990 C2011 0.950 . S
H1991 C2014 0.950 . S
H1992 C2015 0.950 . S
H1993 C2017 0.950 . S
H1994 C2018 0.950 . S
H1995 C2019 0.951 . S
H1996 C2021 0.951 . S
H1997 C2023 0.950 . S
H1998 C2024 0.950 . S
H1999 C2026 0.950 . S
H2000 C2029 0.950 . S
H2001 C2030 0.950 . S
H2002 C2032 0.950 . S
H2003 C2033 0.950 . S
C2004 H1986 0.951 . S
C2004 C2005 1.366 . S
C2004 C2006 1.388 . S
C2005 C2004 1.366 . S
C2005 C2009 1.385 . S
C2006 H1987 0.951 . S
C2006 C2004 1.388 . S
C2006 C2007 1.366 . S
C2007 C2006 1.366 . S
C2007 C2008 1.414 . S
C2007 C2010 1.499 . S
C2008 H1988 0.950 . S
C2008 C2007 1.414 . S
C2008 C2009 1.374 . S
C2009 H1989 0.950 . S
C2009 C2005 1.385 . S
C2009 C2008 1.374 . S
C2010 C2007 1.499 . S
C2010 C2011 1.373 . S
C2010 C2012 1.389 . S
C2011 H1990 0.950 . S
C2011 C2010 1.373 . S
C2011 C2027 1.377 1_556 S
C2012 C2010 1.389 . S
C2012 C2013 1.524 . S
C2012 C2026 1.377 1_556 S
C2013 C2012 1.524 . S
C2013 C2014 1.397 . S
C2013 C2018 1.363 . S
C2014 H1991 0.950 . S
C2014 C2013 1.397 . S
C2014 C2015 1.334 . S
C2015 H1992 0.950 . S
C2015 C2014 1.334 . S
C2015 C2016 1.287 . S
C2016 C2015 1.287 . S
C2016 C2017 1.524 . S
C2016 H2035 0.913 . S
C2017 H1993 0.950 . S
C2017 C2016 1.524 . S
C2017 C2018 1.415 . S
C2018 H1994 0.950 . S
C2018 C2013 1.363 . S
C2018 C2017 1.415 . S
C2019 H1995 0.951 . S
C2019 C2020 1.366 . S
C2019 C2021 1.388 . S
C2020 C2019 1.366 . S
C2020 C2024 1.385 . S
C2021 H1996 0.951 . S
C2021 C2019 1.388 . S
C2021 C2022 1.366 . S
C2022 C2021 1.366 . S
C2022 C2023 1.414 . S
C2022 C2025 1.499 . S
C2023 H1997 0.950 . S
C2023 C2022 1.414 . S
C2023 C2024 1.374 . S
C2024 H1998 0.950 . S
C2024 C2020 1.385 . S
C2024 C2023 1.374 . S
C2025 C2022 1.499 . S
C2025 C2026 1.373 . S
C2025 C2027 1.389 . S
C2026 H1999 0.950 . S
C2026 C2012 1.377 1_554 S
C2026 C2025 1.373 . S
C2027 C2011 1.377 1_554 S
C2027 C2025 1.389 . S
C2027 C2028 1.524 . S
C2028 C2027 1.524 . S
C2028 C2029 1.397 . S
C2028 C2033 1.363 . S
C2029 H2000 0.950 . S
C2029 C2028 1.397 . S
C2029 C2030 1.334 . S
C2030 H2001 0.950 . S
C2030 C2029 1.334 . S
C2030 C2031 1.287 . S
C2031 C2030 1.287 . S
C2031 C2032 1.524 . S
C2031 H2034 0.999 . S
C2032 H2002 0.950 . S
C2032 C2031 1.524 . S
C2032 C2033 1.415 . S
C2033 H2003 0.950 . S
C2033 C2028 1.363 . S
C2033 C2032 1.415 . S
H2034 C2031 0.999 . S
H2035 C2016 0.913 . S
H2036 C2054 0.951 . S
H2037 C2056 0.951 . S
H2038 C2058 0.950 . S
H2039 C2059 0.950 . S
H2040 C2061 0.950 . S
H2041 C2064 0.950 . S
H2042 C2065 0.950 . S
H2043 C2067 0.950 . S
H2044 C2068 0.950 . S
H2045 C2069 0.951 . S
H2046 C2071 0.951 . S
H2047 C2073 0.950 . S
H2048 C2074 0.950 . S
H2049 C2076 0.950 . S
H2050 C2079 0.950 . S
H2051 C2080 0.950 . S
H2052 C2082 0.950 . S
H2053 C2083 0.950 . S
C2054 H2036 0.951 . S
C2054 C2055 1.366 . S
C2054 C2056 1.388 . S
C2055 C2054 1.366 . S
C2055 C2059 1.385 . S
C2056 H2037 0.951 . S
C2056 C2054 1.388 . S
C2056 C2057 1.366 . S
C2057 C2056 1.366 . S
C2057 C2058 1.414 . S
C2057 C2060 1.499 . S
C2058 H2038 0.950 . S
C2058 C2057 1.414 . S
C2058 C2059 1.374 . S
C2059 H2039 0.950 . S
C2059 C2055 1.385 . S
C2059 C2058 1.374 . S
C2060 C2057 1.499 . S
C2060 C2061 1.373 . S
C2060 C2062 1.389 . S
C2061 H2040 0.950 . S
C2061 C2060 1.373 . S
C2061 C2077 1.377 1_556 S
C2062 C2060 1.389 . S
C2062 C2063 1.524 . S
C2062 C2076 1.377 1_556 S
C2063 C2062 1.524 . S
C2063 C2064 1.397 . S
C2063 C2068 1.363 . S
C2064 H2041 0.950 . S
C2064 C2063 1.397 . S
C2064 C2065 1.334 . S
C2065 H2042 0.950 . S
C2065 C2064 1.334 . S
C2065 C2066 1.287 . S
C2066 C2065 1.287 . S
C2066 C2067 1.524 . S
C2066 H2085 0.913 . S
C2067 H2043 0.950 . S
C2067 C2066 1.524 . S
C2067 C2068 1.415 . S
C2068 H2044 0.950 . S
C2068 C2063 1.363 . S
C2068 C2067 1.415 . S
C2069 H2045 0.951 . S
C2069 C2070 1.366 . S
C2069 C2071 1.388 . S
C2070 C2069 1.366 . S
C2070 C2074 1.385 . S
C2071 H2046 0.951 . S
C2071 C2069 1.388 . S
C2071 C2072 1.366 . S
C2072 C2071 1.366 . S
C2072 C2073 1.414 . S
C2072 C2075 1.499 . S
C2073 H2047 0.950 . S
C2073 C2072 1.414 . S
C2073 C2074 1.374 . S
C2074 H2048 0.950 . S
C2074 C2070 1.385 . S
C2074 C2073 1.374 . S
C2075 C2072 1.499 . S
C2075 C2076 1.373 . S
C2075 C2077 1.389 . S
C2076 H2049 0.950 . S
C2076 C2062 1.377 1_554 S
C2076 C2075 1.373 . S
C2077 C2061 1.377 1_554 S
C2077 C2075 1.389 . S
C2077 C2078 1.524 . S
C2078 C2077 1.524 . S
C2078 C2079 1.397 . S
C2078 C2083 1.363 . S
C2079 H2050 0.950 . S
C2079 C2078 1.397 . S
C2079 C2080 1.334 . S
C2080 H2051 0.950 . S
C2080 C2079 1.334 . S
C2080 C2081 1.287 . S
C2081 C2080 1.287 . S
C2081 C2082 1.524 . S
C2081 H2084 0.999 . S
C2082 H2052 0.950 . S
C2082 C2081 1.524 . S
C2082 C2083 1.415 . S
C2083 H2053 0.950 . S
C2083 C2078 1.363 . S
C2083 C2082 1.415 . S
H2084 C2081 0.999 . S
H2085 C2066 0.913 . S
H2086 C2104 0.951 . S
H2087 C2106 0.951 . S
H2088 C2108 0.950 . S
H2089 C2109 0.950 . S
H2090 C2111 0.950 . S
H2091 C2114 0.950 . S
H2092 C2115 0.950 . S
H2093 C2117 0.950 . S
H2094 C2118 0.950 . S
H2095 C2119 0.951 . S
H2096 C2121 0.951 . S
H2097 C2123 0.950 . S
H2098 C2124 0.950 . S
H2099 C2126 0.950 . S
H2100 C2129 0.950 . S
H2101 C2130 0.950 . S
H2102 C2132 0.950 . S
H2103 C2133 0.950 . S
C2104 H2086 0.951 . S
C2104 C2105 1.366 . S
C2104 C2106 1.388 . S
C2105 C2104 1.366 . S
C2105 C2109 1.385 . S
C2106 H2087 0.951 . S
C2106 C2104 1.388 . S
C2106 C2107 1.366 . S
C2107 C2106 1.366 . S
C2107 C2108 1.414 . S
C2107 C2110 1.499 . S
C2108 H2088 0.950 . S
C2108 C2107 1.414 . S
C2108 C2109 1.374 . S
C2109 H2089 0.950 . S
C2109 C2105 1.385 . S
C2109 C2108 1.374 . S
C2110 C2107 1.499 . S
C2110 C2111 1.373 . S
C2110 C2112 1.389 . S
C2111 H2090 0.950 . S
C2111 C2110 1.373 . S
C2111 C2127 1.377 1_556 S
C2112 C2110 1.389 . S
C2112 C2113 1.524 . S
C2112 C2126 1.377 1_556 S
C2113 C2112 1.524 . S
C2113 C2114 1.397 . S
C2113 C2118 1.363 . S
C2114 H2091 0.950 . S
C2114 C2113 1.397 . S
C2114 C2115 1.334 . S
C2115 H2092 0.950 . S
C2115 C2114 1.334 . S
C2115 C2116 1.287 . S
C2116 C2115 1.287 . S
C2116 C2117 1.524 . S
C2116 H2135 0.913 . S
C2117 H2093 0.950 . S
C2117 C2116 1.524 . S
C2117 C2118 1.415 . S
C2118 H2094 0.950 . S
C2118 C2113 1.363 . S
C2118 C2117 1.415 . S
C2119 H2095 0.951 . S
C2119 C2120 1.366 . S
C2119 C2121 1.388 . S
C2120 C2119 1.366 . S
C2120 C2124 1.385 . S
C2121 H2096 0.951 . S
C2121 C2119 1.388 . S
C2121 C2122 1.366 . S
C2122 C2121 1.366 . S
C2122 C2123 1.414 . S
C2122 C2125 1.499 . S
C2123 H2097 0.950 . S
C2123 C2122 1.414 . S
C2123 C2124 1.374 . S
C2124 H2098 0.950 . S
C2124 C2120 1.385 . S
C2124 C2123 1.374 . S
C2125 C2122 1.499 . S
C2125 C2126 1.373 . S
C2125 C2127 1.389 . S
C2126 H2099 0.950 . S
C2126 C2112 1.377 1_554 S
C2126 C2125 1.373 . S
C2127 C2111 1.377 1_554 S
C2127 C2125 1.389 . S
C2127 C2128 1.524 . S
C2128 C2127 1.524 . S
C2128 C2129 1.397 . S
C2128 C2133 1.363 . S
C2129 H2100 0.950 . S
C2129 C2128 1.397 . S
C2129 C2130 1.334 . S
C2130 H2101 0.950 . S
C2130 C2129 1.334 . S
C2130 C2131 1.287 . S
C2131 C2130 1.287 . S
C2131 C2132 1.524 . S
C2131 H2134 0.999 . S
C2132 H2102 0.950 . S
C2132 C2131 1.524 . S
C2132 C2133 1.415 . S
C2133 H2103 0.950 . S
C2133 C2128 1.363 . S
C2133 C2132 1.415 . S
H2134 C2131 0.999 . S
H2135 C2116 0.913 . S
H2136 C2154 0.951 . S
H2137 C2156 0.951 . S
H2138 C2158 0.950 . S
H2139 C2159 0.950 . S
H2140 C2161 0.950 . S
H2141 C2164 0.950 . S
H2142 C2165 0.950 . S
H2143 C2167 0.950 . S
H2144 C2168 0.950 . S
H2145 C2169 0.951 . S
H2146 C2171 0.951 . S
H2147 C2173 0.950 . S
H2148 C2174 0.950 . S
H2149 C2176 0.950 . S
H2150 C2179 0.950 . S
H2151 C2180 0.950 . S
H2152 C2182 0.950 . S
H2153 C2183 0.950 . S
C2154 H2136 0.951 . S
C2154 C2155 1.366 . S
C2154 C2156 1.388 . S
C2155 C2154 1.366 . S
C2155 C2159 1.385 . S
C2156 H2137 0.951 . S
C2156 C2154 1.388 . S
C2156 C2157 1.366 . S
C2157 C2156 1.366 . S
C2157 C2158 1.414 . S
C2157 C2160 1.499 . S
C2158 H2138 0.950 . S
C2158 C2157 1.414 . S
C2158 C2159 1.374 . S
C2159 H2139 0.950 . S
C2159 C2155 1.385 . S
C2159 C2158 1.374 . S
C2160 C2157 1.499 . S
C2160 C2161 1.373 . S
C2160 C2162 1.389 . S
C2161 H2140 0.950 . S
C2161 C2160 1.373 . S
C2161 C2177 1.377 . S
C2162 C2160 1.389 . S
C2162 C2163 1.524 . S
C2162 C2176 1.377 . S
C2163 C2162 1.524 . S
C2163 C2164 1.397 . S
C2163 C2168 1.363 . S
C2164 H2141 0.950 . S
C2164 C2163 1.397 . S
C2164 C2165 1.334 . S
C2165 H2142 0.950 . S
C2165 C2164 1.334 . S
C2165 C2166 1.287 . S
C2166 C2165 1.287 . S
C2166 C2167 1.524 . S
C2166 H2185 0.913 . S
C2167 H2143 0.950 . S
C2167 C2166 1.524 . S
C2167 C2168 1.415 . S
C2168 H2144 0.950 . S
C2168 C2163 1.363 . S
C2168 C2167 1.415 . S
C2169 H2145 0.951 . S
C2169 C2170 1.366 . S
C2169 C2171 1.388 . S
C2170 C2169 1.366 . S
C2170 C2174 1.385 . S
C2171 H2146 0.951 . S
C2171 C2169 1.388 . S
C2171 C2172 1.366 . S
C2172 C2171 1.366 . S
C2172 C2173 1.414 . S
C2172 C2175 1.499 . S
C2173 H2147 0.950 . S
C2173 C2172 1.414 . S
C2173 C2174 1.374 . S
C2174 H2148 0.950 . S
C2174 C2170 1.385 . S
C2174 C2173 1.374 . S
C2175 C2172 1.499 . S
C2175 C2176 1.373 . S
C2175 C2177 1.389 . S
C2176 H2149 0.950 . S
C2176 C2162 1.377 . S
C2176 C2175 1.373 . S
C2177 C2161 1.377 . S
C2177 C2175 1.389 . S
C2177 C2178 1.524 . S
C2178 C2177 1.524 . S
C2178 C2179 1.397 . S
C2178 C2183 1.363 . S
C2179 H2150 0.950 . S
C2179 C2178 1.397 . S
C2179 C2180 1.334 . S
C2180 H2151 0.950 . S
C2180 C2179 1.334 . S
C2180 C2181 1.287 . S
C2181 C2180 1.287 . S
C2181 C2182 1.524 . S
C2181 H2184 0.999 . S
C2182 H2152 0.950 . S
C2182 C2181 1.524 . S
C2182 C2183 1.415 . S
C2183 H2153 0.950 . S
C2183 C2178 1.363 . S
C2183 C2182 1.415 . S
H2184 C2181 0.999 . S
H2185 C2166 0.913 . S
H2186 C2204 0.951 . S
H2187 C2206 0.951 . S
H2188 C2208 0.950 . S
H2189 C2209 0.950 . S
H2190 C2211 0.950 . S
H2191 C2214 0.950 . S
H2192 C2215 0.950 . S
H2193 C2217 0.950 . S
H2194 C2218 0.950 . S
H2195 C2219 0.951 . S
H2196 C2221 0.951 . S
H2197 C2223 0.950 . S
H2198 C2224 0.950 . S
H2199 C2226 0.950 . S
H2200 C2229 0.950 . S
H2201 C2230 0.950 . S
H2202 C2232 0.950 . S
H2203 C2233 0.950 . S
C2204 H2186 0.951 . S
C2204 C2205 1.366 . S
C2204 C2206 1.388 . S
C2205 C2204 1.366 . S
C2205 C2209 1.385 . S
C2206 H2187 0.951 . S
C2206 C2204 1.388 . S
C2206 C2207 1.366 . S
C2207 C2206 1.366 . S
C2207 C2208 1.414 . S
C2207 C2210 1.499 . S
C2208 H2188 0.950 . S
C2208 C2207 1.414 . S
C2208 C2209 1.374 . S
C2209 H2189 0.950 . S
C2209 C2205 1.385 . S
C2209 C2208 1.374 . S
C2210 C2207 1.499 . S
C2210 C2211 1.373 . S
C2210 C2212 1.389 . S
C2211 H2190 0.950 . S
C2211 C2210 1.373 . S
C2211 C2227 1.377 . S
C2212 C2210 1.389 . S
C2212 C2213 1.524 . S
C2212 C2226 1.377 . S
C2213 C2212 1.524 . S
C2213 C2214 1.397 . S
C2213 C2218 1.363 . S
C2214 H2191 0.950 . S
C2214 C2213 1.397 . S
C2214 C2215 1.334 . S
C2215 H2192 0.950 . S
C2215 C2214 1.334 . S
C2215 C2216 1.287 . S
C2216 C2215 1.287 . S
C2216 C2217 1.524 . S
C2216 H2235 0.913 . S
C2217 H2193 0.950 . S
C2217 C2216 1.524 . S
C2217 C2218 1.415 . S
C2218 H2194 0.950 . S
C2218 C2213 1.363 . S
C2218 C2217 1.415 . S
C2219 H2195 0.951 . S
C2219 C2220 1.366 . S
C2219 C2221 1.388 . S
C2220 C2219 1.366 . S
C2220 C2224 1.385 . S
C2221 H2196 0.951 . S
C2221 C2219 1.388 . S
C2221 C2222 1.366 . S
C2222 C2221 1.366 . S
C2222 C2223 1.414 . S
C2222 C2225 1.499 . S
C2223 H2197 0.950 . S
C2223 C2222 1.414 . S
C2223 C2224 1.374 . S
C2224 H2198 0.950 . S
C2224 C2220 1.385 . S
C2224 C2223 1.374 . S
C2225 C2222 1.499 . S
C2225 C2226 1.373 . S
C2225 C2227 1.389 . S
C2226 H2199 0.950 . S
C2226 C2212 1.377 . S
C2226 C2225 1.373 . S
C2227 C2211 1.377 . S
C2227 C2225 1.389 . S
C2227 C2228 1.524 . S
C2228 C2227 1.524 . S
C2228 C2229 1.397 . S
C2228 C2233 1.363 . S
C2229 H2200 0.950 . S
C2229 C2228 1.397 . S
C2229 C2230 1.334 . S
C2230 H2201 0.950 . S
C2230 C2229 1.334 . S
C2230 C2231 1.287 . S
C2231 C2230 1.287 . S
C2231 C2232 1.524 . S
C2231 H2234 0.999 . S
C2232 H2202 0.950 . S
C2232 C2231 1.524 . S
C2232 C2233 1.415 . S
C2233 H2203 0.950 . S
C2233 C2228 1.363 . S
C2233 C2232 1.415 . S
H2234 C2231 0.999 . S
H2235 C2216 0.913 . S
H2236 C2254 0.951 . S
H2237 C2256 0.951 . S
H2238 C2258 0.950 . S
H2239 C2259 0.950 . S
H2240 C2261 0.950 . S
H2241 C2264 0.950 . S
H2242 C2265 0.950 . S
H2243 C2267 0.950 . S
H2244 C2268 0.950 . S
H2245 C2269 0.951 . S
H2246 C2271 0.951 . S
H2247 C2273 0.950 . S
H2248 C2274 0.950 . S
H2249 C2276 0.950 . S
H2250 C2279 0.950 . S
H2251 C2280 0.950 . S
H2252 C2282 0.950 . S
H2253 C2283 0.950 . S
C2254 H2236 0.951 . S
C2254 C2255 1.366 . S
C2254 C2256 1.388 . S
C2255 C2254 1.366 . S
C2255 C2259 1.385 . S
C2256 H2237 0.951 . S
C2256 C2254 1.388 . S
C2256 C2257 1.366 . S
C2257 C2256 1.366 . S
C2257 C2258 1.414 . S
C2257 C2260 1.499 . S
C2258 H2238 0.950 . S
C2258 C2257 1.414 . S
C2258 C2259 1.374 . S
C2259 H2239 0.950 . S
C2259 C2255 1.385 . S
C2259 C2258 1.374 . S
C2260 C2257 1.499 . S
C2260 C2261 1.373 . S
C2260 C2262 1.389 . S
C2261 H2240 0.950 . S
C2261 C2260 1.373 . S
C2261 C2277 1.377 . S
C2262 C2260 1.389 . S
C2262 C2263 1.524 . S
C2262 C2276 1.377 . S
C2263 C2262 1.524 . S
C2263 C2264 1.397 . S
C2263 C2268 1.363 . S
C2264 H2241 0.950 . S
C2264 C2263 1.397 . S
C2264 C2265 1.334 . S
C2265 H2242 0.950 . S
C2265 C2264 1.334 . S
C2265 C2266 1.287 . S
C2266 C2265 1.287 . S
C2266 C2267 1.524 . S
C2266 H2285 0.913 . S
C2267 H2243 0.950 . S
C2267 C2266 1.524 . S
C2267 C2268 1.415 . S
C2268 H2244 0.950 . S
C2268 C2263 1.363 . S
C2268 C2267 1.415 . S
C2269 H2245 0.951 . S
C2269 C2270 1.366 . S
C2269 C2271 1.388 . S
C2270 C2269 1.366 . S
C2270 C2274 1.385 . S
C2271 H2246 0.951 . S
C2271 C2269 1.388 . S
C2271 C2272 1.366 . S
C2272 C2271 1.366 . S
C2272 C2273 1.414 . S
C2272 C2275 1.499 . S
C2273 H2247 0.950 . S
C2273 C2272 1.414 . S
C2273 C2274 1.374 . S
C2274 H2248 0.950 . S
C2274 C2270 1.385 . S
C2274 C2273 1.374 . S
C2275 C2272 1.499 . S
C2275 C2276 1.373 . S
C2275 C2277 1.389 . S
C2276 H2249 0.950 . S
C2276 C2262 1.377 . S
C2276 C2275 1.373 . S
C2277 C2261 1.377 . S
C2277 C2275 1.389 . S
C2277 C2278 1.524 . S
C2278 C2277 1.524 . S
C2278 C2279 1.397 . S
C2278 C2283 1.363 . S
C2279 H2250 0.950 . S
C2279 C2278 1.397 . S
C2279 C2280 1.334 . S
C2280 H2251 0.950 . S
C2280 C2279 1.334 . S
C2280 C2281 1.287 . S
C2281 C2280 1.287 . S
C2281 C2282 1.524 . S
C2281 H2284 0.999 . S
C2282 H2252 0.950 . S
C2282 C2281 1.524 . S
C2282 C2283 1.415 . S
C2283 H2253 0.950 . S
C2283 C2278 1.363 . S
C2283 C2282 1.415 . S
H2284 C2281 0.999 . S
H2285 C2266 0.913 . S
H2286 C2304 0.951 . S
H2287 C2306 0.951 . S
H2288 C2308 0.950 . S
H2289 C2309 0.950 . S
H2290 C2311 0.950 . S
H2291 C2314 0.950 . S
H2292 C2315 0.950 . S
H2293 C2317 0.950 . S
H2294 C2318 0.950 . S
H2295 C2319 0.951 . S
H2296 C2321 0.951 . S
H2297 C2323 0.950 . S
H2298 C2324 0.950 . S
H2299 C2326 0.950 . S
H2300 C2329 0.950 . S
H2301 C2330 0.950 . S
H2302 C2332 0.950 . S
H2303 C2333 0.950 . S
C2304 H2286 0.951 . S
C2304 C2305 1.366 . S
C2304 C2306 1.388 . S
C2305 C2304 1.366 . S
C2305 C2309 1.385 . S
C2306 H2287 0.951 . S
C2306 C2304 1.388 . S
C2306 C2307 1.366 . S
C2307 C2306 1.366 . S
C2307 C2308 1.414 . S
C2307 C2310 1.499 . S
C2308 H2288 0.950 . S
C2308 C2307 1.414 . S
C2308 C2309 1.374 . S
C2309 H2289 0.950 . S
C2309 C2305 1.385 . S
C2309 C2308 1.374 . S
C2310 C2307 1.499 . S
C2310 C2311 1.373 . S
C2310 C2312 1.389 . S
C2311 H2290 0.950 . S
C2311 C2310 1.373 . S
C2311 C2327 1.377 . S
C2312 C2310 1.389 . S
C2312 C2313 1.524 . S
C2312 C2326 1.377 . S
C2313 C2312 1.524 . S
C2313 C2314 1.397 . S
C2313 C2318 1.363 . S
C2314 H2291 0.950 . S
C2314 C2313 1.397 . S
C2314 C2315 1.334 . S
C2315 H2292 0.950 . S
C2315 C2314 1.334 . S
C2315 C2316 1.287 . S
C2316 C2315 1.287 . S
C2316 C2317 1.524 . S
C2316 H2335 0.913 . S
C2317 H2293 0.950 . S
C2317 C2316 1.524 . S
C2317 C2318 1.415 . S
C2318 H2294 0.950 . S
C2318 C2313 1.363 . S
C2318 C2317 1.415 . S
C2319 H2295 0.951 . S
C2319 C2320 1.366 . S
C2319 C2321 1.388 . S
C2320 C2319 1.366 . S
C2320 C2324 1.385 . S
C2321 H2296 0.951 . S
C2321 C2319 1.388 . S
C2321 C2322 1.366 . S
C2322 C2321 1.366 . S
C2322 C2323 1.414 . S
C2322 C2325 1.499 . S
C2323 H2297 0.950 . S
C2323 C2322 1.414 . S
C2323 C2324 1.374 . S
C2324 H2298 0.950 . S
C2324 C2320 1.385 . S
C2324 C2323 1.374 . S
C2325 C2322 1.499 . S
C2325 C2326 1.373 . S
C2325 C2327 1.389 . S
C2326 H2299 0.950 . S
C2326 C2312 1.377 . S
C2326 C2325 1.373 . S
C2327 C2311 1.377 . S
C2327 C2325 1.389 . S
C2327 C2328 1.524 . S
C2328 C2327 1.524 . S
C2328 C2329 1.397 . S
C2328 C2333 1.363 . S
C2329 H2300 0.950 . S
C2329 C2328 1.397 . S
C2329 C2330 1.334 . S
C2330 H2301 0.950 . S
C2330 C2329 1.334 . S
C2330 C2331 1.287 . S
C2331 C2330 1.287 . S
C2331 C2332 1.524 . S
C2331 H2334 0.999 . S
C2332 H2302 0.950 . S
C2332 C2331 1.524 . S
C2332 C2333 1.415 . S
C2333 H2303 0.950 . S
C2333 C2328 1.363 . S
C2333 C2332 1.415 . S
H2334 C2331 0.999 . S
H2335 C2316 0.913 . S
H2336 C2354 0.951 . S
H2337 C2356 0.951 . S
H2338 C2358 0.950 . S
H2339 C2359 0.950 . S
H2340 C2361 0.950 . S
H2341 C2364 0.950 . S
H2342 C2365 0.950 . S
H2343 C2367 0.950 . S
H2344 C2368 0.950 . S
H2345 C2369 0.951 . S
H2346 C2371 0.951 . S
H2347 C2373 0.950 . S
H2348 C2374 0.950 . S
H2349 C2376 0.950 . S
H2350 C2379 0.950 . S
H2351 C2380 0.950 . S
H2352 C2382 0.950 . S
H2353 C2383 0.950 . S
C2354 H2336 0.951 . S
C2354 C2355 1.366 . S
C2354 C2356 1.388 . S
C2355 C2354 1.366 . S
C2355 C2359 1.385 . S
C2356 H2337 0.951 . S
C2356 C2354 1.388 . S
C2356 C2357 1.366 . S
C2357 C2356 1.366 . S
C2357 C2358 1.414 . S
C2357 C2360 1.499 . S
C2358 H2338 0.950 . S
C2358 C2357 1.414 . S
C2358 C2359 1.374 . S
C2359 H2339 0.950 . S
C2359 C2355 1.385 . S
C2359 C2358 1.374 . S
C2360 C2357 1.499 . S
C2360 C2361 1.373 . S
C2360 C2362 1.389 . S
C2361 H2340 0.950 . S
C2361 C2360 1.373 . S
C2361 C2377 1.377 . S
C2362 C2360 1.389 . S
C2362 C2363 1.524 . S
C2362 C2376 1.377 . S
C2363 C2362 1.524 . S
C2363 C2364 1.397 . S
C2363 C2368 1.363 . S
C2364 H2341 0.950 . S
C2364 C2363 1.397 . S
C2364 C2365 1.334 . S
C2365 H2342 0.950 . S
C2365 C2364 1.334 . S
C2365 C2366 1.287 . S
C2366 C2365 1.287 . S
C2366 C2367 1.524 . S
C2366 H2385 0.913 . S
C2367 H2343 0.950 . S
C2367 C2366 1.524 . S
C2367 C2368 1.415 . S
C2368 H2344 0.950 . S
C2368 C2363 1.363 . S
C2368 C2367 1.415 . S
C2369 H2345 0.951 . S
C2369 C2370 1.366 . S
C2369 C2371 1.388 . S
C2370 C2369 1.366 . S
C2370 C2374 1.385 . S
C2371 H2346 0.951 . S
C2371 C2369 1.388 . S
C2371 C2372 1.366 . S
C2372 C2371 1.366 . S
C2372 C2373 1.414 . S
C2372 C2375 1.499 . S
C2373 H2347 0.950 . S
C2373 C2372 1.414 . S
C2373 C2374 1.374 . S
C2374 H2348 0.950 . S
C2374 C2370 1.385 . S
C2374 C2373 1.374 . S
C2375 C2372 1.499 . S
C2375 C2376 1.373 . S
C2375 C2377 1.389 . S
C2376 H2349 0.950 . S
C2376 C2362 1.377 . S
C2376 C2375 1.373 . S
C2377 C2361 1.377 . S
C2377 C2375 1.389 . S
C2377 C2378 1.524 . S
C2378 C2377 1.524 . S
C2378 C2379 1.397 . S
C2378 C2383 1.363 . S
C2379 H2350 0.950 . S
C2379 C2378 1.397 . S
C2379 C2380 1.334 . S
C2380 H2351 0.950 . S
C2380 C2379 1.334 . S
C2380 C2381 1.287 . S
C2381 C2380 1.287 . S
C2381 C2382 1.524 . S
C2381 H2384 0.999 . S
C2382 H2352 0.950 . S
C2382 C2381 1.524 . S
C2382 C2383 1.415 . S
C2383 H2353 0.950 . S
C2383 C2378 1.363 . S
C2383 C2382 1.415 . S
H2384 C2381 0.999 . S
H2385 C2366 0.913 . S
H2386 C2404 0.951 . S
H2387 C2406 0.951 . S
H2388 C2408 0.950 . S
H2389 C2409 0.950 . S
H2390 C2411 0.950 . S
H2391 C2414 0.950 . S
H2392 C2415 0.950 . S
H2393 C2417 0.950 . S
H2394 C2418 0.950 . S
H2395 C2419 0.951 . S
H2396 C2421 0.951 . S
H2397 C2423 0.950 . S
H2398 C2424 0.950 . S
H2399 C2426 0.950 . S
H2400 C2429 0.950 . S
H2401 C2430 0.950 . S
H2402 C2432 0.950 . S
H2403 C2433 0.950 . S
C2404 H2386 0.951 . S
C2404 C2405 1.366 . S
C2404 C2406 1.388 . S
C2405 C2404 1.366 . S
C2405 C2409 1.385 . S
C2406 H2387 0.951 . S
C2406 C2404 1.388 . S
C2406 C2407 1.366 . S
C2407 C2406 1.366 . S
C2407 C2408 1.414 . S
C2407 C2410 1.499 . S
C2408 H2388 0.950 . S
C2408 C2407 1.414 . S
C2408 C2409 1.374 . S
C2409 H2389 0.950 . S
C2409 C2405 1.385 . S
C2409 C2408 1.374 . S
C2410 C2407 1.499 . S
C2410 C2411 1.373 . S
C2410 C2412 1.389 . S
C2411 H2390 0.950 . S
C2411 C2410 1.373 . S
C2411 C2427 1.377 . S
C2412 C2410 1.389 . S
C2412 C2413 1.524 . S
C2412 C2426 1.377 . S
C2413 C2412 1.524 . S
C2413 C2414 1.397 . S
C2413 C2418 1.363 . S
C2414 H2391 0.950 . S
C2414 C2413 1.397 . S
C2414 C2415 1.334 . S
C2415 H2392 0.950 . S
C2415 C2414 1.334 . S
C2415 C2416 1.287 . S
C2416 C2415 1.287 . S
C2416 C2417 1.524 . S
C2416 H2435 0.913 . S
C2417 H2393 0.950 . S
C2417 C2416 1.524 . S
C2417 C2418 1.415 . S
C2418 H2394 0.950 . S
C2418 C2413 1.363 . S
C2418 C2417 1.415 . S
C2419 H2395 0.951 . S
C2419 C2420 1.366 . S
C2419 C2421 1.388 . S
C2420 C2419 1.366 . S
C2420 C2424 1.385 . S
C2421 H2396 0.951 . S
C2421 C2419 1.388 . S
C2421 C2422 1.366 . S
C2422 C2421 1.366 . S
C2422 C2423 1.414 . S
C2422 C2425 1.499 . S
C2423 H2397 0.950 . S
C2423 C2422 1.414 . S
C2423 C2424 1.374 . S
C2424 H2398 0.950 . S
C2424 C2420 1.385 . S
C2424 C2423 1.374 . S
C2425 C2422 1.499 . S
C2425 C2426 1.373 . S
C2425 C2427 1.389 . S
C2426 H2399 0.950 . S
C2426 C2412 1.377 . S
C2426 C2425 1.373 . S
C2427 C2411 1.377 . S
C2427 C2425 1.389 . S
C2427 C2428 1.524 . S
C2428 C2427 1.524 . S
C2428 C2429 1.397 . S
C2428 C2433 1.363 . S
C2429 H2400 0.950 . S
C2429 C2428 1.397 . S
C2429 C2430 1.334 . S
C2430 H2401 0.950 . S
C2430 C2429 1.334 . S
C2430 C2431 1.287 . S
C2431 C2430 1.287 . S
C2431 C2432 1.524 . S
C2431 H2434 0.999 . S
C2432 H2402 0.950 . S
C2432 C2431 1.524 . S
C2432 C2433 1.415 . S
C2433 H2403 0.950 . S
C2433 C2428 1.363 . S
C2433 C2432 1.415 . S
H2434 C2431 0.999 . S
H2435 C2416 0.913 . S
H2436 C2454 0.951 . S
H2437 C2456 0.951 . S
H2438 C2458 0.950 . S
H2439 C2459 0.950 . S
H2440 C2461 0.950 . S
H2441 C2464 0.950 . S
H2442 C2465 0.950 . S
H2443 C2467 0.950 . S
H2444 C2468 0.950 . S
H2445 C2469 0.951 . S
H2446 C2471 0.951 . S
H2447 C2473 0.950 . S
H2448 C2474 0.950 . S
H2449 C2476 0.950 . S
H2450 C2479 0.950 . S
H2451 C2480 0.950 . S
H2452 C2482 0.950 . S
H2453 C2483 0.950 . S
C2454 H2436 0.951 . S
C2454 C2455 1.366 . S
C2454 C2456 1.388 . S
C2455 C2454 1.366 . S
C2455 C2459 1.385 . S
C2456 H2437 0.951 . S
C2456 C2454 1.388 . S
C2456 C2457 1.366 . S
C2457 C2456 1.366 . S
C2457 C2458 1.414 . S
C2457 C2460 1.499 . S
C2458 H2438 0.950 . S
C2458 C2457 1.414 . S
C2458 C2459 1.374 . S
C2459 H2439 0.950 . S
C2459 C2455 1.385 . S
C2459 C2458 1.374 . S
C2460 C2457 1.499 . S
C2460 C2461 1.373 . S
C2460 C2462 1.389 . S
C2461 H2440 0.950 . S
C2461 C2460 1.373 . S
C2461 C2477 1.377 . S
C2462 C2460 1.389 . S
C2462 C2463 1.524 . S
C2462 C2476 1.377 . S
C2463 C2462 1.524 . S
C2463 C2464 1.397 . S
C2463 C2468 1.363 . S
C2464 H2441 0.950 . S
C2464 C2463 1.397 . S
C2464 C2465 1.334 . S
C2465 H2442 0.950 . S
C2465 C2464 1.334 . S
C2465 C2466 1.287 . S
C2466 C2465 1.287 . S
C2466 C2467 1.524 . S
C2466 H2485 0.913 . S
C2467 H2443 0.950 . S
C2467 C2466 1.524 . S
C2467 C2468 1.415 . S
C2468 H2444 0.950 . S
C2468 C2463 1.363 . S
C2468 C2467 1.415 . S
C2469 H2445 0.951 . S
C2469 C2470 1.366 . S
C2469 C2471 1.388 . S
C2470 C2469 1.366 . S
C2470 C2474 1.385 . S
C2471 H2446 0.951 . S
C2471 C2469 1.388 . S
C2471 C2472 1.366 . S
C2472 C2471 1.366 . S
C2472 C2473 1.414 . S
C2472 C2475 1.499 . S
C2473 H2447 0.950 . S
C2473 C2472 1.414 . S
C2473 C2474 1.374 . S
C2474 H2448 0.950 . S
C2474 C2470 1.385 . S
C2474 C2473 1.374 . S
C2475 C2472 1.499 . S
C2475 C2476 1.373 . S
C2475 C2477 1.389 . S
C2476 H2449 0.950 . S
C2476 C2462 1.377 . S
C2476 C2475 1.373 . S
C2477 C2461 1.377 . S
C2477 C2475 1.389 . S
C2477 C2478 1.524 . S
C2478 C2477 1.524 . S
C2478 C2479 1.397 . S
C2478 C2483 1.363 . S
C2479 H2450 0.950 . S
C2479 C2478 1.397 . S
C2479 C2480 1.334 . S
C2480 H2451 0.950 . S
C2480 C2479 1.334 . S
C2480 C2481 1.287 . S
C2481 C2480 1.287 . S
C2481 C2482 1.524 . S
C2481 H2484 0.999 . S
C2482 H2452 0.950 . S
C2482 C2481 1.524 . S
C2482 C2483 1.415 . S
C2483 H2453 0.950 . S
C2483 C2478 1.363 . S
C2483 C2482 1.415 . S
H2484 C2481 0.999 . S
H2485 C2466 0.913 . S
H2486 C2504 0.951 . S
H2487 C2506 0.951 . S
H2488 C2508 0.950 . S
H2489 C2509 0.950 . S
H2490 C2511 0.950 . S
H2491 C2514 0.950 . S
H2492 C2515 0.950 . S
H2493 C2517 0.950 . S
H2494 C2518 0.950 . S
H2495 C2519 0.951 . S
H2496 C2521 0.951 . S
H2497 C2523 0.950 . S
H2498 C2524 0.950 . S
H2499 C2526 0.950 . S
H2500 C2529 0.950 . S
H2501 C2530 0.950 . S
H2502 C2532 0.950 . S
H2503 C2533 0.950 . S
C2504 H2486 0.951 . S
C2504 C2505 1.366 . S
C2504 C2506 1.388 . S
C2505 C2504 1.366 . S
C2505 C2509 1.385 . S
C2506 H2487 0.951 . S
C2506 C2504 1.388 . S
C2506 C2507 1.366 . S
C2507 C2506 1.366 . S
C2507 C2508 1.414 . S
C2507 C2510 1.499 . S
C2508 H2488 0.950 . S
C2508 C2507 1.414 . S
C2508 C2509 1.374 . S
C2509 H2489 0.950 . S
C2509 C2505 1.385 . S
C2509 C2508 1.374 . S
C2510 C2507 1.499 . S
C2510 C2511 1.373 . S
C2510 C2512 1.389 . S
C2511 H2490 0.950 . S
C2511 C2510 1.373 . S
C2511 C2527 1.377 . S
C2512 C2510 1.389 . S
C2512 C2513 1.524 . S
C2512 C2526 1.377 . S
C2513 C2512 1.524 . S
C2513 C2514 1.397 . S
C2513 C2518 1.363 . S
C2514 H2491 0.950 . S
C2514 C2513 1.397 . S
C2514 C2515 1.334 . S
C2515 H2492 0.950 . S
C2515 C2514 1.334 . S
C2515 C2516 1.287 . S
C2516 C2515 1.287 . S
C2516 C2517 1.524 . S
C2516 H2535 0.913 . S
C2517 H2493 0.950 . S
C2517 C2516 1.524 . S
C2517 C2518 1.415 . S
C2518 H2494 0.950 . S
C2518 C2513 1.363 . S
C2518 C2517 1.415 . S
C2519 H2495 0.951 . S
C2519 C2520 1.366 . S
C2519 C2521 1.388 . S
C2520 C2519 1.366 . S
C2520 C2524 1.385 . S
C2521 H2496 0.951 . S
C2521 C2519 1.388 . S
C2521 C2522 1.366 . S
C2522 C2521 1.366 . S
C2522 C2523 1.414 . S
C2522 C2525 1.499 . S
C2523 H2497 0.950 . S
C2523 C2522 1.414 . S
C2523 C2524 1.374 . S
C2524 H2498 0.950 . S
C2524 C2520 1.385 . S
C2524 C2523 1.374 . S
C2525 C2522 1.499 . S
C2525 C2526 1.373 . S
C2525 C2527 1.389 . S
C2526 H2499 0.950 . S
C2526 C2512 1.377 . S
C2526 C2525 1.373 . S
C2527 C2511 1.377 . S
C2527 C2525 1.389 . S
C2527 C2528 1.524 . S
C2528 C2527 1.524 . S
C2528 C2529 1.397 . S
C2528 C2533 1.363 . S
C2529 H2500 0.950 . S
C2529 C2528 1.397 . S
C2529 C2530 1.334 . S
C2530 H2501 0.950 . S
C2530 C2529 1.334 . S
C2530 C2531 1.287 . S
C2531 C2530 1.287 . S
C2531 C2532 1.524 . S
C2531 H2534 0.999 . S
C2532 H2502 0.950 . S
C2532 C2531 1.524 . S
C2532 C2533 1.415 . S
C2533 H2503 0.950 . S
C2533 C2528 1.363 . S
C2533 C2532 1.415 . S
H2534 C2531 0.999 . S
H2535 C2516 0.913 . S
H2536 C2554 0.951 . S
H2537 C2556 0.951 . S
H2538 C2558 0.950 . S
H2539 C2559 0.950 . S
H2540 C2561 0.950 . S
H2541 C2564 0.950 . S
H2542 C2565 0.950 . S
H2543 C2567 0.950 . S
H2544 C2568 0.950 . S
H2545 C2569 0.951 . S
H2546 C2571 0.951 . S
H2547 C2573 0.950 . S
H2548 C2574 0.950 . S
H2549 C2576 0.950 . S
H2550 C2579 0.950 . S
H2551 C2580 0.950 . S
H2552 C2582 0.950 . S
H2553 C2583 0.950 . S
C2554 H2536 0.951 . S
C2554 C2555 1.366 . S
C2554 C2556 1.388 . S
C2555 C2554 1.366 . S
C2555 C2559 1.385 . S
C2556 H2537 0.951 . S
C2556 C2554 1.388 . S
C2556 C2557 1.366 . S
C2557 C2556 1.366 . S
C2557 C2558 1.414 . S
C2557 C2560 1.499 . S
C2558 H2538 0.950 . S
C2558 C2557 1.414 . S
C2558 C2559 1.374 . S
C2559 H2539 0.950 . S
C2559 C2555 1.385 . S
C2559 C2558 1.374 . S
C2560 C2557 1.499 . S
C2560 C2561 1.373 . S
C2560 C2562 1.389 . S
C2561 H2540 0.950 . S
C2561 C2560 1.373 . S
C2561 C2577 1.377 . S
C2562 C2560 1.389 . S
C2562 C2563 1.524 . S
C2562 C2576 1.377 . S
C2563 C2562 1.524 . S
C2563 C2564 1.397 . S
C2563 C2568 1.363 . S
C2564 H2541 0.950 . S
C2564 C2563 1.397 . S
C2564 C2565 1.334 . S
C2565 H2542 0.950 . S
C2565 C2564 1.334 . S
C2565 C2566 1.287 . S
C2566 C2565 1.287 . S
C2566 C2567 1.524 . S
C2566 H2585 0.913 . S
C2567 H2543 0.950 . S
C2567 C2566 1.524 . S
C2567 C2568 1.415 . S
C2568 H2544 0.950 . S
C2568 C2563 1.363 . S
C2568 C2567 1.415 . S
C2569 H2545 0.951 . S
C2569 C2570 1.366 . S
C2569 C2571 1.388 . S
C2570 C2569 1.366 . S
C2570 C2574 1.385 . S
C2571 H2546 0.951 . S
C2571 C2569 1.388 . S
C2571 C2572 1.366 . S
C2572 C2571 1.366 . S
C2572 C2573 1.414 . S
C2572 C2575 1.499 . S
C2573 H2547 0.950 . S
C2573 C2572 1.414 . S
C2573 C2574 1.374 . S
C2574 H2548 0.950 . S
C2574 C2570 1.385 . S
C2574 C2573 1.374 . S
C2575 C2572 1.499 . S
C2575 C2576 1.373 . S
C2575 C2577 1.389 . S
C2576 H2549 0.950 . S
C2576 C2562 1.377 . S
C2576 C2575 1.373 . S
C2577 C2561 1.377 . S
C2577 C2575 1.389 . S
C2577 C2578 1.524 . S
C2578 C2577 1.524 . S
C2578 C2579 1.397 . S
C2578 C2583 1.363 . S
C2579 H2550 0.950 . S
C2579 C2578 1.397 . S
C2579 C2580 1.334 . S
C2580 H2551 0.950 . S
C2580 C2579 1.334 . S
C2580 C2581 1.287 . S
C2581 C2580 1.287 . S
C2581 C2582 1.524 . S
C2581 H2584 0.999 . S
C2582 H2552 0.950 . S
C2582 C2581 1.524 . S
C2582 C2583 1.415 . S
C2583 H2553 0.950 . S
C2583 C2578 1.363 . S
C2583 C2582 1.415 . S
H2584 C2581 0.999 . S
H2585 C2566 0.913 . S
H2586 C2604 0.951 . S
H2587 C2606 0.951 . S
H2588 C2608 0.950 . S
H2589 C2609 0.950 . S
H2590 C2611 0.950 . S
H2591 C2614 0.950 . S
H2592 C2615 0.950 . S
H2593 C2617 0.950 . S
H2594 C2618 0.950 . S
H2595 C2619 0.951 . S
H2596 C2621 0.951 . S
H2597 C2623 0.950 . S
H2598 C2624 0.950 . S
H2599 C2626 0.950 . S
H2600 C2629 0.950 . S
H2601 C2630 0.950 . S
H2602 C2632 0.950 . S
H2603 C2633 0.950 . S
C2604 H2586 0.951 . S
C2604 C2605 1.366 . S
C2604 C2606 1.388 . S
C2605 C2604 1.366 . S
C2605 C2609 1.385 . S
C2606 H2587 0.951 . S
C2606 C2604 1.388 . S
C2606 C2607 1.366 . S
C2607 C2606 1.366 . S
C2607 C2608 1.414 . S
C2607 C2610 1.499 . S
C2608 H2588 0.950 . S
C2608 C2607 1.414 . S
C2608 C2609 1.374 . S
C2609 H2589 0.950 . S
C2609 C2605 1.385 . S
C2609 C2608 1.374 . S
C2610 C2607 1.499 . S
C2610 C2611 1.373 . S
C2610 C2612 1.389 . S
C2611 H2590 0.950 . S
C2611 C2610 1.373 . S
C2611 C2627 1.377 . S
C2612 C2610 1.389 . S
C2612 C2613 1.524 . S
C2612 C2626 1.377 . S
C2613 C2612 1.524 . S
C2613 C2614 1.397 . S
C2613 C2618 1.363 . S
C2614 H2591 0.950 . S
C2614 C2613 1.397 . S
C2614 C2615 1.334 . S
C2615 H2592 0.950 . S
C2615 C2614 1.334 . S
C2615 C2616 1.287 . S
C2616 C2615 1.287 . S
C2616 C2617 1.524 . S
C2616 H2635 0.913 . S
C2617 H2593 0.950 . S
C2617 C2616 1.524 . S
C2617 C2618 1.415 . S
C2618 H2594 0.950 . S
C2618 C2613 1.363 . S
C2618 C2617 1.415 . S
C2619 H2595 0.951 . S
C2619 C2620 1.366 . S
C2619 C2621 1.388 . S
C2620 C2619 1.366 . S
C2620 C2624 1.385 . S
C2621 H2596 0.951 . S
C2621 C2619 1.388 . S
C2621 C2622 1.366 . S
C2622 C2621 1.366 . S
C2622 C2623 1.414 . S
C2622 C2625 1.499 . S
C2623 H2597 0.950 . S
C2623 C2622 1.414 . S
C2623 C2624 1.374 . S
C2624 H2598 0.950 . S
C2624 C2620 1.385 . S
C2624 C2623 1.374 . S
C2625 C2622 1.499 . S
C2625 C2626 1.373 . S
C2625 C2627 1.389 . S
C2626 H2599 0.950 . S
C2626 C2612 1.377 . S
C2626 C2625 1.373 . S
C2627 C2611 1.377 . S
C2627 C2625 1.389 . S
C2627 C2628 1.524 . S
C2628 C2627 1.524 . S
C2628 C2629 1.397 . S
C2628 C2633 1.363 . S
C2629 H2600 0.950 . S
C2629 C2628 1.397 . S
C2629 C2630 1.334 . S
C2630 H2601 0.950 . S
C2630 C2629 1.334 . S
C2630 C2631 1.287 . S
C2631 C2630 1.287 . S
C2631 C2632 1.524 . S
C2631 H2634 0.999 . S
C2632 H2602 0.950 . S
C2632 C2631 1.524 . S
C2632 C2633 1.415 . S
C2633 H2603 0.950 . S
C2633 C2628 1.363 . S
C2633 C2632 1.415 . S
H2634 C2631 0.999 . S
H2635 C2616 0.913 . S
H2636 C2654 0.951 . S
H2637 C2656 0.951 . S
H2638 C2658 0.950 . S
H2639 C2659 0.950 . S
H2640 C2661 0.950 . S
H2641 C2664 0.950 . S
H2642 C2665 0.950 . S
H2643 C2667 0.950 . S
H2644 C2668 0.950 . S
H2645 C2669 0.951 . S
H2646 C2671 0.951 . S
H2647 C2673 0.950 . S
H2648 C2674 0.950 . S
H2649 C2676 0.950 . S
H2650 C2679 0.950 . S
H2651 C2680 0.950 . S
H2652 C2682 0.950 . S
H2653 C2683 0.950 . S
C2654 H2636 0.951 . S
C2654 C2655 1.366 . S
C2654 C2656 1.388 . S
C2655 C2654 1.366 . S
C2655 C2659 1.385 . S
C2656 H2637 0.951 . S
C2656 C2654 1.388 . S
C2656 C2657 1.366 . S
C2657 C2656 1.366 . S
C2657 C2658 1.414 . S
C2657 C2660 1.499 . S
C2658 H2638 0.950 . S
C2658 C2657 1.414 . S
C2658 C2659 1.374 . S
C2659 H2639 0.950 . S
C2659 C2655 1.385 . S
C2659 C2658 1.374 . S
C2660 C2657 1.499 . S
C2660 C2661 1.373 . S
C2660 C2662 1.389 . S
C2661 H2640 0.950 . S
C2661 C2660 1.373 . S
C2661 C2677 1.377 . S
C2662 C2660 1.389 . S
C2662 C2663 1.524 . S
C2662 C2676 1.377 . S
C2663 C2662 1.524 . S
C2663 C2664 1.397 . S
C2663 C2668 1.363 . S
C2664 H2641 0.950 . S
C2664 C2663 1.397 . S
C2664 C2665 1.334 . S
C2665 H2642 0.950 . S
C2665 C2664 1.334 . S
C2665 C2666 1.287 . S
C2666 C2665 1.287 . S
C2666 C2667 1.524 . S
C2666 H2685 0.913 . S
C2667 H2643 0.950 . S
C2667 C2666 1.524 . S
C2667 C2668 1.415 . S
C2668 H2644 0.950 . S
C2668 C2663 1.363 . S
C2668 C2667 1.415 . S
C2669 H2645 0.951 . S
C2669 C2670 1.366 . S
C2669 C2671 1.388 . S
C2670 C2669 1.366 . S
C2670 C2674 1.385 . S
C2671 H2646 0.951 . S
C2671 C2669 1.388 . S
C2671 C2672 1.366 . S
C2672 C2671 1.366 . S
C2672 C2673 1.414 . S
C2672 C2675 1.499 . S
C2673 H2647 0.950 . S
C2673 C2672 1.414 . S
C2673 C2674 1.374 . S
C2674 H2648 0.950 . S
C2674 C2670 1.385 . S
C2674 C2673 1.374 . S
C2675 C2672 1.499 . S
C2675 C2676 1.373 . S
C2675 C2677 1.389 . S
C2676 H2649 0.950 . S
C2676 C2662 1.377 . S
C2676 C2675 1.373 . S
C2677 C2661 1.377 . S
C2677 C2675 1.389 . S
C2677 C2678 1.524 . S
C2678 C2677 1.524 . S
C2678 C2679 1.397 . S
C2678 C2683 1.363 . S
C2679 H2650 0.950 . S
C2679 C2678 1.397 . S
C2679 C2680 1.334 . S
C2680 H2651 0.950 . S
C2680 C2679 1.334 . S
C2680 C2681 1.287 . S
C2681 C2680 1.287 . S
C2681 C2682 1.524 . S
C2681 H2684 0.999 . S
C2682 H2652 0.950 . S
C2682 C2681 1.524 . S
C2682 C2683 1.415 . S
C2683 H2653 0.950 . S
C2683 C2678 1.363 . S
C2683 C2682 1.415 . S
H2684 C2681 0.999 . S
H2685 C2666 0.913 . S
H2686 C2704 0.951 . S
H2687 C2706 0.951 . S
H2688 C2708 0.950 . S
H2689 C2709 0.950 . S
H2690 C2711 0.950 . S
H2691 C2714 0.950 . S
H2692 C2715 0.950 . S
H2693 C2717 0.950 . S
H2694 C2718 0.950 . S
H2695 C2719 0.951 . S
H2696 C2721 0.951 . S
H2697 C2723 0.950 . S
H2698 C2724 0.950 . S
H2699 C2726 0.950 . S
H2700 C2729 0.950 . S
H2701 C2730 0.950 . S
H2702 C2732 0.950 . S
H2703 C2733 0.950 . S
C2704 H2686 0.951 . S
C2704 C2705 1.366 . S
C2704 C2706 1.388 . S
C2705 C2704 1.366 . S
C2705 C2709 1.385 . S
C2706 H2687 0.951 . S
C2706 C2704 1.388 . S
C2706 C2707 1.366 . S
C2707 C2706 1.366 . S
C2707 C2708 1.414 . S
C2707 C2710 1.499 . S
C2708 H2688 0.950 . S
C2708 C2707 1.414 . S
C2708 C2709 1.374 . S
C2709 H2689 0.950 . S
C2709 C2705 1.385 . S
C2709 C2708 1.374 . S
C2710 C2707 1.499 . S
C2710 C2711 1.373 . S
C2710 C2712 1.389 . S
C2711 H2690 0.950 . S
C2711 C2710 1.373 . S
C2711 C2727 1.377 . S
C2712 C2710 1.389 . S
C2712 C2713 1.524 . S
C2712 C2726 1.377 . S
C2713 C2712 1.524 . S
C2713 C2714 1.397 . S
C2713 C2718 1.363 . S
C2714 H2691 0.950 . S
C2714 C2713 1.397 . S
C2714 C2715 1.334 . S
C2715 H2692 0.950 . S
C2715 C2714 1.334 . S
C2715 C2716 1.287 . S
C2716 C2715 1.287 . S
C2716 C2717 1.524 . S
C2716 H2735 0.913 . S
C2717 H2693 0.950 . S
C2717 C2716 1.524 . S
C2717 C2718 1.415 . S
C2718 H2694 0.950 . S
C2718 C2713 1.363 . S
C2718 C2717 1.415 . S
C2719 H2695 0.951 . S
C2719 C2720 1.366 . S
C2719 C2721 1.388 . S
C2720 C2719 1.366 . S
C2720 C2724 1.385 . S
C2721 H2696 0.951 . S
C2721 C2719 1.388 . S
C2721 C2722 1.366 . S
C2722 C2721 1.366 . S
C2722 C2723 1.414 . S
C2722 C2725 1.499 . S
C2723 H2697 0.950 . S
C2723 C2722 1.414 . S
C2723 C2724 1.374 . S
C2724 H2698 0.950 . S
C2724 C2720 1.385 . S
C2724 C2723 1.374 . S
C2725 C2722 1.499 . S
C2725 C2726 1.373 . S
C2725 C2727 1.389 . S
C2726 H2699 0.950 . S
C2726 C2712 1.377 . S
C2726 C2725 1.373 . S
C2727 C2711 1.377 . S
C2727 C2725 1.389 . S
C2727 C2728 1.524 . S
C2728 C2727 1.524 . S
C2728 C2729 1.397 . S
C2728 C2733 1.363 . S
C2729 H2700 0.950 . S
C2729 C2728 1.397 . S
C2729 C2730 1.334 . S
C2730 H2701 0.950 . S
C2730 C2729 1.334 . S
C2730 C2731 1.287 . S
C2731 C2730 1.287 . S
C2731 C2732 1.524 . S
C2731 H2734 0.999 . S
C2732 H2702 0.950 . S
C2732 C2731 1.524 . S
C2732 C2733 1.415 . S
C2733 H2703 0.950 . S
C2733 C2728 1.363 . S
C2733 C2732 1.415 . S
H2734 C2731 0.999 . S
H2735 C2716 0.913 . S
C355 C165 1.367 . S
C370 C4 1.359 . S
C405 C18 1.358 . S
C420 C123 1.369 . S
C455 C32 1.359 . S
C470 C137 1.367 . S
C505 C46 1.359 . S
C520 C151 1.368 . S
C555 C193 1.369 . S
C570 C60 1.358 . S
C605 C74 1.358 . S
C620 C207 1.369 . S
C655 C221 1.369 . S
C670 C88 1.358 . S
C705 C179 1.368 . S
C720 C102 1.358 . S
C755 C81 1.369 . S
C770 C116 1.358 . S
C805 C95 1.367 . S
C820 C130 1.359 . S
C855 C144 1.358 . S
C870 C109 1.369 . S
C905 C67 1.367 . S
C920 C158 1.359 . S
C955 C53 1.369 . S
C970 C172 1.358 . S
C1005 C186 1.359 . S
C1020 C11 1.367 . S
C1055 C200 1.359 . S
C1070 C25 1.367 . S
C1105 C214 1.359 . S
C1120 C39 1.367 . S
C1155 C228 1.359 . S
C1170 C333 1.367 . S
C1205 C291 1.368 . S
C1220 C242 1.359 . S
C1255 C256 1.359 . S
C1270 C249 1.367 . S
C1305 C270 1.359 . S
C1320 C263 1.367 . S
C1355 C277 1.367 . S
C1370 C284 1.359 . S
C1405 C298 1.359 . S
C1420 C319 1.367 . S
C1455 C235 1.369 . S
C1470 C312 1.358 . S
C1505 C305 1.367 . S
C1520 C326 1.359 . S
C1555 C12 1.243 . S
C1570 C96 1.242 . S
C1605 C26 1.243 . S
C1620 C110 1.242 . S
C1655 C40 1.243 . S
C1670 C68 1.243 . S
C1705 C82 1.242 . S
C1720 C54 1.243 . S
C1755 C152 1.243 . S
C1770 C124 1.242 . S
C1805 C138 1.243 . S
C1820 C166 1.242 . S
C1855 C180 1.243 . S
C1870 C208 1.242 . S
C1905 C222 1.242 . S
C1920 C194 1.243 . S
C1955 C250 1.242 . S
C1970 C236 1.243 . S
C2005 C264 1.243 . S
C2020 C334 1.242 . S
C2055 C278 1.243 . S
C2070 C306 1.242 . S
C2105 C292 1.242 . S
C2120 C320 1.243 . S
C2155 C5 0.816 . S
C2170 C75 0.816 . S
C2205 C19 0.813 . S
C2220 C89 0.813 . S
C2255 C33 0.815 . S
C2270 C103 0.813 . S
C2305 C61 0.816 . S
C2320 C47 0.816 . S
C2355 C117 0.813 . S
C2370 C327 0.813 . S
C2405 C131 0.813 . S
C2420 C299 0.814 . S
C2455 C313 0.814 . S
C2470 C145 0.816 . S
C2505 C159 0.816 . S
C2520 C229 0.815 . S
C2555 C285 0.813 . S
C2570 C173 0.815 . S
C2605 C243 0.814 . S
C2620 C187 0.816 . S
C2655 C201 0.814 . S
C2670 C257 0.816 . S
C2705 C271 0.816 . S
C2720 C215 0.816 . S
