# Generated by pormake.
# Topology yfz, (5)-cn, num edge types: 1
# Building blocks:
#     Node 0, Type 0, BuildingBlock: BEQFEK_clean_sbu_0, # of connection points: 5
#     Node 1, Type 0, BuildingBlock: BEQFEK_clean_sbu_0, # of connection points: 5
#     Node 2, Type 0, BuildingBlock: BEQFEK_clean_sbu_0, # of connection points: 5
#     Node 3, Type 0, BuildingBlock: BEQFEK_clean_sbu_0, # of connection points: 5
#     Node 4, Type 0, BuildingBlock: BEQFEK_clean_sbu_0, # of connection points: 5
#     Node 5, Type 0, BuildingBlock: BEQFEK_clean_sbu_0, # of connection points: 5
#     Node 6, Type 0, BuildingBlock: BEQFEK_clean_sbu_0, # of connection points: 5
#     Node 7, Type 0, BuildingBlock: BEQFEK_clean_sbu_0, # of connection points: 5
#     Edge 8, Type (0, 0), BuildingBlock: TEMPAE_clean_linker_10, # of connection points: 2
#     Edge 9, Type (0, 0), BuildingBlock: TEMPAE_clean_linker_10, # of connection points: 2
#     Edge 10, Type (0, 0), BuildingBlock: TEMPAE_clean_linker_10, # of connection points: 2
#     Edge 11, Type (0, 0), BuildingBlock: TEMPAE_clean_linker_10, # of connection points: 2
#     Edge 12, Type (0, 0), BuildingBlock: TEMPAE_clean_linker_10, # of connection points: 2
#     Edge 13, Type (0, 0), BuildingBlock: TEMPAE_clean_linker_10, # of connection points: 2
#     Edge 14, Type (0, 0), BuildingBlock: TEMPAE_clean_linker_10, # of connection points: 2
#     Edge 15, Type (0, 0), BuildingBlock: TEMPAE_clean_linker_10, # of connection points: 2
#     Edge 16, Type (0, 0), BuildingBlock: TEMPAE_clean_linker_10, # of connection points: 2
#     Edge 17, Type (0, 0), BuildingBlock: TEMPAE_clean_linker_10, # of connection points: 2
#     Edge 18, Type (0, 0), BuildingBlock: TEMPAE_clean_linker_10, # of connection points: 2
#     Edge 19, Type (0, 0), BuildingBlock: TEMPAE_clean_linker_10, # of connection points: 2
#     Edge 20, Type (0, 0), BuildingBlock: TEMPAE_clean_linker_10, # of connection points: 2
#     Edge 21, Type (0, 0), BuildingBlock: TEMPAE_clean_linker_10, # of connection points: 2
#     Edge 22, Type (0, 0), BuildingBlock: TEMPAE_clean_linker_10, # of connection points: 2
#     Edge 23, Type (0, 0), BuildingBlock: TEMPAE_clean_linker_10, # of connection points: 2
#     Edge 24, Type (0, 0), BuildingBlock: TEMPAE_clean_linker_10, # of connection points: 2
#     Edge 25, Type (0, 0), BuildingBlock: TEMPAE_clean_linker_10, # of connection points: 2
#     Edge 26, Type (0, 0), BuildingBlock: TEMPAE_clean_linker_10, # of connection points: 2
#     Edge 27, Type (0, 0), BuildingBlock: TEMPAE_clean_linker_10, # of connection points: 2
# Relax obj value: 0.193
# Max RMSD: 0.175
# Mean RMSD: 0.175
data_MOF--net-yfz--node1-BEQFEK_clean_sbu_0--edge1-TEMPAE_clean_linker_10
_symmetry_space_group_name_H-M    P1
_symmetry_Int_Tables_number       1
_symmetry_cell_setting            triclinic
loop_
_symmetry_equiv_pos_as_xyz
'x, y, z'
_cell_length_a     52.253528
_cell_length_b     52.292391
_cell_length_c     18.933104
_cell_angle_alpha  90.005528
_cell_angle_beta   90.026672
_cell_angle_gamma 89.980786
loop_
_atom_site_label
_atom_site_type_symbol
_atom_site_fract_x
_atom_site_fract_y
_atom_site_fract_z
_atom_type_partial_charge
Co0 Co 0.6041 0.10212 0.26236 0.0
Co1 Co 0.61408 0.11659 0.41985 0.0
C2 C 0.65521 0.0942 0.32998 0.0
O3 O 0.63988 0.09201 0.27831 0.0
O4 O 0.64807 0.10392 0.38836 0.0
C5 C 0.6068 0.07178 0.13778 0.0
O6 O 0.62283 0.05808 0.17554 0.0
C7 C 0.62576 0.10718 0.56794 0.0
C8 C 0.60626 0.13952 0.62041 0.0
C9 C 0.61987 0.1173 0.63354 0.0
N10 N 0.61561 0.12246 0.51836 0.0
N11 N 0.60438 0.14202 0.54989 0.0
C12 C 0.64114 0.08372 0.5517 0.0
H13 H 0.63228 0.07301 0.50739 0.0
H14 H 0.64335 0.07118 0.5985 0.0
H15 H 0.66047 0.08973 0.53405 0.0
C16 C 0.56154 0.07314 0.32701 0.0
N17 N 0.58241 0.08811 0.33164 0.0
N18 N 0.587 0.0934 0.3984 0.0
C19 C 0.56921 0.08173 0.43868 0.0
C20 C 0.55241 0.06862 0.39471 0.0
C21 C 0.54998 0.06458 0.25866 0.0
H22 H 0.55008 0.08062 0.22033 0.0
H23 H 0.56177 0.04888 0.23636 0.0
H24 H 0.53006 0.05773 0.26589 0.0
O25 O 0.60189 0.1399 0.26201 0.0
O26 O 0.60687 0.14997 0.37532 0.0
H27 H 0.56727 0.10196 0.53695 0.0
H28 H 0.55388 0.07013 0.54101 0.0
C29 C 0.56924 0.08202 0.51784 0.0
H30 H 0.5876 0.07422 0.5371 0.0
H31 H 0.59463 0.15654 0.52333 0.0
O32 O 0.59524 0.09049 0.16646 0.0
C33 C 0.60284 0.15635 0.31147 0.0
Co34 Co 0.3969 0.60748 0.76414 0.0
Co35 Co 0.38086 0.62093 0.91916 0.0
C36 C 0.40418 0.65992 0.82382 0.0
O37 O 0.40603 0.64377 0.77404 0.0
O38 O 0.3948 0.6538 0.88348 0.0
C39 C 0.42662 0.60883 0.6384 0.0
O40 O 0.44012 0.62553 0.67446 0.0
C41 C 0.39221 0.63117 0.06716 0.0
C42 C 0.3561 0.62008 0.11955 0.0
C43 C 0.38094 0.62802 0.13289 0.0
N44 N 0.37501 0.62475 0.01751 0.0
N45 N 0.35331 0.61859 0.04902 0.0
C46 C 0.41857 0.64076 0.05088 0.0
H47 H 0.42971 0.62571 0.02339 0.0
H48 H 0.42884 0.64695 0.09923 0.0
H49 H 0.41714 0.6572 0.01405 0.0
C50 C 0.42783 0.56846 0.83834 0.0
N51 N 0.41116 0.58809 0.83792 0.0
N52 N 0.40336 0.59267 0.90284 0.0
C53 C 0.41416 0.57532 0.94633 0.0
C54 C 0.43035 0.55983 0.90724 0.0
C55 C 0.44165 0.55907 0.77419 0.0
H56 H 0.4278 0.54943 0.73862 0.0
H57 H 0.4498 0.57558 0.74517 0.0
H58 H 0.45725 0.54558 0.78796 0.0
O59 O 0.35902 0.60392 0.76403 0.0
O60 O 0.34765 0.61485 0.87305 0.0
H61 H 0.41011 0.55123 0.03812 0.0
H62 H 0.41973 0.5834 0.05612 0.0
C63 C 0.40723 0.57147 0.02235 0.0
H64 H 0.38697 0.57666 0.03158 0.0
H65 H 0.33693 0.61241 0.0225 0.0
O66 O 0.40864 0.59684 0.66923 0.0
C67 C 0.34189 0.60788 0.81064 0.0
Co68 Co 0.8946 0.39127 0.25747 0.0
Co69 Co 0.87967 0.3799 0.41432 0.0
C70 C 0.84086 0.39867 0.31428 0.0
O71 O 0.85764 0.39881 0.2657 0.0
O72 O 0.84648 0.39206 0.37707 0.0
C73 C 0.89244 0.42142 0.13377 0.0
O74 O 0.87718 0.43538 0.17317 0.0
C75 C 0.86638 0.38928 0.5626 0.0
C76 C 0.8854 0.35664 0.61501 0.0
C77 C 0.87181 0.37886 0.62826 0.0
N78 N 0.87677 0.37414 0.51297 0.0
N79 N 0.88767 0.35441 0.54455 0.0
C80 C 0.85107 0.4128 0.54654 0.0
H81 H 0.83079 0.40716 0.53883 0.0
H82 H 0.85781 0.42172 0.49673 0.0
H83 H 0.85183 0.42679 0.59044 0.0
C84 C 0.93417 0.42277 0.32699 0.0
N85 N 0.91345 0.40753 0.32912 0.0
N86 N 0.90709 0.40322 0.39532 0.0
C87 C 0.92355 0.41588 0.43766 0.0
C88 C 0.94134 0.42854 0.39575 0.0
C89 C 0.94764 0.43015 0.26031 0.0
H90 H 0.94801 0.41368 0.22341 0.0
H91 H 0.93691 0.44591 0.23452 0.0
H92 H 0.96751 0.43657 0.27088 0.0
O93 O 0.8999 0.35396 0.26237 0.0
O94 O 0.88707 0.34607 0.37202 0.0
H95 H 0.92311 0.39731 0.53853 0.0
H96 H 0.93604 0.42935 0.54114 0.0
C97 C 0.92145 0.41688 0.51652 0.0
H98 H 0.90256 0.42479 0.53089 0.0
H99 H 0.89756 0.33996 0.51811 0.0
O100 O 0.90413 0.40261 0.16155 0.0
C101 C 0.89532 0.33839 0.31244 0.0
Co102 Co 0.09833 0.88881 0.76674 0.0
Co103 Co 0.11542 0.87569 0.92122 0.0
C104 C 0.0913 0.83656 0.82701 0.0
O105 O 0.08896 0.85262 0.77714 0.0
O106 O 0.10124 0.84282 0.8859 0.0
C107 C 0.06874 0.88751 0.64048 0.0
O108 O 0.05545 0.87042 0.67567 0.0
C109 C 0.10409 0.86628 0.06966 0.0
C110 C 0.14063 0.87643 0.12129 0.0
C111 C 0.11557 0.86937 0.13515 0.0
N112 N 0.1214 0.87194 0.01959 0.0
N113 N 0.14334 0.87754 0.05068 0.0
C114 C 0.07735 0.85758 0.05426 0.0
H115 H 0.07754 0.84376 0.00985 0.0
H116 H 0.06547 0.87406 0.0376 0.0
H117 H 0.06851 0.84847 0.10124 0.0
C118 C 0.06816 0.92819 0.84197 0.0
N119 N 0.08464 0.90841 0.84089 0.0
N120 N 0.09315 0.90412 0.90528 0.0
C121 C 0.08316 0.92189 0.9489 0.0
C122 C 0.06663 0.93729 0.91066 0.0
C123 C 0.05366 0.93738 0.77873 0.0
H124 H 0.06678 0.9484 0.74416 0.0
H125 H 0.04653 0.92076 0.74815 0.0
H126 H 0.03726 0.94968 0.7939 0.0
O127 O 0.13627 0.89202 0.76547 0.0
O128 O 0.14842 0.88154 0.87423 0.0
H129 H 0.11181 0.92071 0.03063 0.0
H130 H 0.08968 0.94704 0.03736 0.0
C131 C 0.09159 0.92649 0.0235 0.0
H132 H 0.07932 0.91554 0.06025 0.0
H133 H 0.15985 0.8831 0.02379 0.0
O134 O 0.08647 0.89963 0.67205 0.0
C135 C 0.15373 0.88822 0.8113 0.0
Co136 Co 0.60606 0.39853 0.23549 0.0
Co137 Co 0.61451 0.37958 0.08083 0.0
C138 C 0.65721 0.40138 0.16979 0.0
O139 O 0.64221 0.40645 0.22055 0.0
O140 O 0.6492 0.39046 0.11386 0.0
C141 C 0.61009 0.42786 0.36207 0.0
O142 O 0.62846 0.43959 0.32754 0.0
C143 C 0.62366 0.39036 0.93231 0.0
C144 C 0.61029 0.35489 0.8807 0.0
C145 C 0.61937 0.37928 0.86691 0.0
N146 N 0.6168 0.37352 0.98238 0.0
N147 N 0.60921 0.3522 0.95132 0.0
C148 C 0.6346 0.41627 0.94751 0.0
H149 H 0.64686 0.41549 0.99522 0.0
H150 H 0.61894 0.43002 0.95829 0.0
H151 H 0.64598 0.42336 0.90205 0.0
C152 C 0.56717 0.43078 0.16459 0.0
N153 N 0.58582 0.41302 0.16356 0.0
N154 N 0.58855 0.40428 0.0988 0.0
C155 C 0.57088 0.41547 0.05708 0.0
C156 C 0.55719 0.43296 0.09696 0.0
C157 C 0.55988 0.4458 0.22874 0.0
H158 H 0.57741 0.45257 0.25596 0.0
H159 H 0.5477 0.46248 0.21515 0.0
H160 H 0.54936 0.43317 0.26578 0.0
O161 O 0.60199 0.36062 0.23891 0.0
O162 O 0.60533 0.34742 0.12758 0.0
H163 H 0.54418 0.41092 0.97106 0.0
H164 H 0.57615 0.41873 0.94515 0.0
C165 C 0.56468 0.40741 0.98306 0.0
H166 H 0.56878 0.38682 0.97564 0.0
H167 H 0.60246 0.33616 0.97827 0.0
O168 O 0.59673 0.41111 0.33036 0.0
C169 C 0.60154 0.34291 0.19271 0.0
Co170 Co 0.10183 0.60287 0.72873 0.0
Co171 Co 0.11461 0.61727 0.5723 0.0
C172 C 0.09222 0.65553 0.66935 0.0
O173 O 0.09198 0.63914 0.71887 0.0
O174 O 0.1004 0.64988 0.60803 0.0
C175 C 0.07173 0.60364 0.85341 0.0
O176 O 0.05718 0.6188 0.81535 0.0
C177 C 0.10439 0.62957 0.42433 0.0
C178 C 0.13858 0.61361 0.37164 0.0
C179 C 0.11518 0.62511 0.35858 0.0
N180 N 0.12048 0.62059 0.47382 0.0
N181 N 0.1411 0.61154 0.44212 0.0
C182 C 0.07957 0.64262 0.44068 0.0
H183 H 0.07113 0.63469 0.48979 0.0
H184 H 0.0658 0.64108 0.39636 0.0
H185 H 0.08342 0.66322 0.44997 0.0
C186 C 0.07243 0.56192 0.65852 0.0
N187 N 0.08736 0.58285 0.65665 0.0
N188 N 0.09258 0.58869 0.59056 0.0
C189 C 0.08103 0.57147 0.54803 0.0
C190 C 0.06791 0.55395 0.58975 0.0
C191 C 0.06374 0.5493 0.72525 0.0
H192 H 0.07979 0.54858 0.76355 0.0
H193 H 0.04817 0.56086 0.74909 0.0
H194 H 0.05666 0.52962 0.71534 0.0
O195 O 0.13949 0.59985 0.72636 0.0
O196 O 0.14852 0.61182 0.61661 0.0
H197 H 0.10133 0.5735 0.44984 0.0
H198 H 0.07145 0.55639 0.44378 0.0
C199 C 0.08131 0.57272 0.46897 0.0
H200 H 0.07121 0.59022 0.45191 0.0
H201 H 0.15643 0.603 0.46846 0.0
O202 O 0.09075 0.5927 0.82438 0.0
C203 C 0.15562 0.60459 0.67775 0.0
Co204 Co 0.89164 0.09664 0.2461 0.0
Co205 Co 0.878 0.1119 0.09062 0.0
C206 C 0.83864 0.09071 0.1887 0.0
O207 O 0.85494 0.08879 0.23814 0.0
O208 O 0.84489 0.09922 0.12816 0.0
C209 C 0.89013 0.06681 0.37125 0.0
O210 O 0.87353 0.05343 0.33451 0.0
C211 C 0.86786 0.09976 0.94272 0.0
C212 C 0.87779 0.13607 0.88976 0.0
C213 C 0.87053 0.11102 0.87685 0.0
N214 N 0.8739 0.1172 0.9921 0.0
N215 N 0.87938 0.13899 0.96022 0.0
C216 C 0.85903 0.07315 0.95901 0.0
H217 H 0.84666 0.07331 0.00658 0.0
H218 H 0.87568 0.06077 0.97083 0.0
H219 H 0.84835 0.06487 0.91377 0.0
C220 C 0.93005 0.06475 0.17232 0.0
N221 N 0.91034 0.08132 0.1724 0.0
N222 N 0.90584 0.08903 0.10735 0.0
C223 C 0.9234 0.07841 0.06418 0.0
C224 C 0.93886 0.06229 0.10356 0.0
C225 C 0.93972 0.05135 0.23684 0.0
H226 H 0.92333 0.04357 0.26712 0.0
H227 H 0.95298 0.03553 0.22333 0.0
H228 H 0.94975 0.06536 0.27108 0.0
O229 O 0.89647 0.13442 0.24407 0.0
O230 O 0.88522 0.1451 0.1347 0.0
H231 H 0.94869 0.08436 0.97575 0.0
H232 H 0.91733 0.07356 0.95295 0.0
C233 C 0.92809 0.08623 0.98913 0.0
H234 H 0.92219 0.10632 0.98056 0.0
H235 H 0.88513 0.15558 0.98644 0.0
O236 O 0.90217 0.08492 0.34112 0.0
C237 C 0.89272 0.15121 0.19637 0.0
Co238 Co 0.39301 0.89311 0.72276 0.0
Co239 Co 0.38015 0.87872 0.56624 0.0
C240 C 0.40269 0.84047 0.66263 0.0
O241 O 0.40291 0.85686 0.71216 0.0
O242 O 0.39443 0.84608 0.60134 0.0
C243 C 0.42317 0.89198 0.84739 0.0
O244 O 0.43754 0.87669 0.80926 0.0
C245 C 0.38965 0.86625 0.41791 0.0
C246 C 0.35606 0.88374 0.36593 0.0
C247 C 0.37895 0.87133 0.35236 0.0
N248 N 0.37403 0.87575 0.46775 0.0
N249 N 0.35374 0.88571 0.43646 0.0
C250 C 0.41396 0.85217 0.43373 0.0
H251 H 0.40917 0.83198 0.44587 0.0
H252 H 0.42334 0.86036 0.48121 0.0
H253 H 0.42728 0.85233 0.38821 0.0
C254 C 0.42171 0.9345 0.65273 0.0
N255 N 0.4072 0.91329 0.65079 0.0
N256 N 0.40223 0.90725 0.58467 0.0
C257 C 0.41371 0.92449 0.54216 0.0
C258 C 0.42633 0.94238 0.58393 0.0
C259 C 0.42972 0.94755 0.71952 0.0
H260 H 0.41365 0.94745 0.75778 0.0
H261 H 0.44587 0.93681 0.74339 0.0
H262 H 0.43578 0.96756 0.70964 0.0
O263 O 0.35541 0.89607 0.72078 0.0
O264 O 0.3463 0.88412 0.61103 0.0
H265 H 0.39401 0.92327 0.44292 0.0
H266 H 0.42503 0.93839 0.438 0.0
C267 C 0.41392 0.92287 0.46314 0.0
H268 H 0.42295 0.90467 0.44723 0.0
H269 H 0.33883 0.89482 0.46314 0.0
O270 O 0.40425 0.90314 0.81845 0.0
C271 C 0.33925 0.89135 0.67222 0.0
C272 C 0.433 0.98084 0.50808 0.0
C273 C 0.44215 0.96411 0.56003 0.0
C274 C 0.44899 -0.00053 0.47841 0.0
C275 C 0.47432 0.00205 0.50376 0.0
C276 C 0.48305 0.98633 0.55974 0.0
C277 C 0.46694 0.96726 0.58655 0.0
C278 C 0.43918 0.0155 0.41783 0.0
C279 C 0.5097 0.9891 0.58972 0.0
C280 C 0.52811 0.02767 0.39039 0.0
C281 C 0.53043 0.05265 0.41599 0.0
C282 C 0.50893 0.01138 0.41586 0.0
C283 C 0.49225 0.02017 0.46959 0.0
C284 C 0.4939 0.04574 0.49358 0.0
C285 C 0.51268 0.06186 0.46524 0.0
C286 C 0.50717 0.98448 0.3873 0.0
C287 C 0.47681 0.05564 0.55178 0.0
H288 H 0.41355 0.97875 0.48895 0.0
H289 H 0.47399 0.95432 0.62685 0.0
H290 H 0.44195 0.03612 0.42904 0.0
H291 H 0.45027 0.01101 0.36941 0.0
H292 H 0.41858 0.01203 0.40691 0.0
H293 H 0.51257 0.97721 0.63771 0.0
H294 H 0.52399 0.98326 0.54953 0.0
H295 H 0.51357 0.00938 0.6033 0.0
H296 H 0.54183 0.02058 0.35216 0.0
H297 H 0.51416 0.08144 0.48363 0.0
H298 H 0.48712 0.97991 0.37264 0.0
H299 H 0.51309 0.97068 0.42871 0.0
H300 H 0.51956 0.98161 0.34029 0.0
H301 H 0.45642 0.05203 0.53906 0.0
H302 H 0.47945 0.07645 0.56112 0.0
H303 H 0.48113 0.04529 0.60155 0.0
C304 C 0.54327 0.46614 0.01177 0.0
C305 C 0.53771 0.45095 0.07063 0.0
C306 C 0.52513 0.48322 0.98472 0.0
C307 C 0.50081 0.48494 0.0172 0.0
C308 C 0.495 0.46941 0.07638 0.0
C309 C 0.51366 0.4526 0.10269 0.0
C310 C 0.53213 0.49967 0.92206 0.0
C311 C 0.46916 0.47061 0.11183 0.0
C312 C 0.46457 0.54683 0.99048 0.0
C313 C 0.448 0.54035 0.93522 0.0
C314 C 0.4816 0.52882 0.0184 0.0
C315 C 0.48187 0.50372 0.99053 0.0
C316 C 0.46485 0.49697 0.9353 0.0
C317 C 0.44812 0.5155 0.90798 0.0
C318 C 0.49964 0.53681 0.07673 0.0
C319 C 0.46448 0.4703 0.90487 0.0
H320 H 0.56201 0.46485 0.98741 0.0
H321 H 0.50939 0.44054 0.14774 0.0
H322 H 0.51831 0.49656 0.87842 0.0
H323 H 0.53104 0.52017 0.93693 0.0
H324 H 0.55171 0.49558 0.90216 0.0
H325 H 0.46745 0.45669 0.15589 0.0
H326 H 0.4658 0.49012 0.13295 0.0
H327 H 0.45383 0.46669 0.07273 0.0
H328 H 0.46445 0.56618 0.0111 0.0
H329 H 0.435 0.51055 0.86575 0.0
H330 H 0.51973 0.53491 0.05848 0.0
H331 H 0.49732 0.52408 0.12314 0.0
H332 H 0.49642 0.55688 0.09388 0.0
H333 H 0.48328 0.46588 0.88055 0.0
H334 H 0.44934 0.46788 0.86419 0.0
H335 H 0.46129 0.4561 0.94753 0.0
C336 C 0.96622 0.46918 0.39161 0.0
C337 C 0.9629 0.44464 0.41955 0.0
C338 C 0.98517 0.48551 0.41832 0.0
C339 C 0.00065 0.47721 0.47533 0.0
C340 C 0.99792 0.4521 0.50205 0.0
C341 C 0.97936 0.43592 0.47276 0.0
C342 C 0.98806 0.51192 0.38709 0.0
C343 C 0.01374 0.44272 0.56358 0.0
C344 C 0.06072 0.51504 0.51612 0.0
C345 C 0.05156 0.53264 0.56578 0.0
C346 C 0.04443 0.49666 0.48644 0.0
C347 C 0.01869 0.49532 0.50928 0.0
C348 C 0.00982 0.51204 0.56279 0.0
C349 C 0.02633 0.53075 0.58986 0.0
C350 C 0.05445 0.47945 0.42869 0.0
C351 C 0.98268 0.51067 0.58993 0.0
H352 H 0.95351 0.47587 0.35029 0.0
H353 H 0.97714 0.41666 0.49305 0.0
H354 H 0.98216 0.52648 0.42646 0.0
H355 H 0.0084 0.51565 0.37375 0.0
H356 H 0.97629 0.51449 0.33872 0.0
H357 H 0.01004 0.42229 0.57593 0.0
H358 H 0.03443 0.44515 0.55241 0.0
H359 H 0.00931 0.45431 0.61113 0.0
H360 H 0.08047 0.5162 0.49889 0.0
H361 H 0.0193 0.54436 0.62845 0.0
H362 H 0.04395 0.48334 0.37888 0.0
H363 H 0.05111 0.4591 0.4423 0.0
H364 H 0.07523 0.48227 0.41901 0.0
H365 H 0.96918 0.5162 0.54734 0.0
H366 H 0.97951 0.5235 0.63589 0.0
H367 H 0.97795 0.4908 0.60576 0.0
C368 C 0.98356 0.04527 0.10494 0.0
C369 C 0.95893 0.04522 0.07599 0.0
C370 C 0.00259 0.02904 0.07797 0.0
C371 C 0.99661 0.0124 0.02127 0.0
C372 C 0.97176 0.01256 0.99154 0.0
C373 C 0.95323 0.02906 0.01923 0.0
C374 C 0.02898 0.0295 0.11043 0.0
C375 C 0.96457 0.99494 0.9315 0.0
C376 C 0.04834 0.98146 0.90959 0.0
C377 C 0.04942 0.95702 0.93945 0.0
C378 C 0.03171 6e-05 0.937 0.0
C379 C 0.01581 0.99382 0.99507 0.0
C380 C 0.01718 0.96921 0.02587 0.0
C381 C 0.03404 0.95111 -0.00232 0.0
C382 C 0.03089 0.02622 0.90334 0.0
C383 C 0.00036 0.96175 0.08739 0.0
H384 H 0.98793 0.05811 0.14824 0.0
H385 H 0.93406 0.02905 -0.00277 0.0
H386 H 0.03336 0.0106 0.1342 0.0
H387 H 0.04356 0.03309 0.06903 0.0
H388 H 0.03083 0.04438 0.15198 0.0
H389 H 0.94465 -0.00189 0.91289 0.0
H390 H 0.97778 -0.00225 0.88632 0.0
H391 H 0.96647 0.97474 0.94872 0.0
H392 H 0.06055 0.986 0.86503 0.0
H393 H 0.03483 0.93207 0.02029 0.0
H394 H 0.03402 0.0412 0.94392 0.0
H395 H 0.0117 0.0296 0.88001 0.0
H396 H 0.04551 0.02844 0.8612 0.0
H397 H 0.00283 0.97548 0.13151 0.0
H398 H 0.00464 0.9422 0.10714 0.0
H399 H 0.97996 0.96249 0.07118 0.0
C400 C 0.6147 0.19406 0.23925 0.0
C401 C 0.60022 0.18357 0.29415 0.0
C402 C 0.61373 0.22033 0.22485 0.0
C403 C 0.59705 0.23615 0.2645 0.0
C404 C 0.5817 0.22539 0.31845 0.0
C405 C 0.58391 0.19923 0.33375 0.0
C406 C 0.63107 0.23124 0.16861 0.0
C407 C 0.56296 0.24147 0.35984 0.0
C408 C 0.61262 0.30689 0.2723 0.0
C409 C 0.59832 0.31626 0.21541 0.0
C410 C 0.61218 0.28081 0.28945 0.0
C411 C 0.59626 0.26405 0.2504 0.0
C412 C 0.58074 0.27377 0.19524 0.0
C413 C 0.58241 0.29973 0.17731 0.0
C414 C 0.62968 0.27103 0.34694 0.0
C415 C 0.5628 0.25667 0.15429 0.0
H416 H 0.62747 0.18184 0.20927 0.0
H417 H 0.57264 0.1909 0.37596 0.0
H418 H 0.61952 0.24034 0.1264 0.0
H419 H 0.64345 0.24632 0.1918 0.0
H420 H 0.64349 0.21643 0.14422 0.0
H421 H 0.55117 0.2298 0.39648 0.0
H422 H 0.57339 0.25606 0.39109 0.0
H423 H 0.55004 0.25184 0.32315 0.0
H424 H 0.62513 0.31975 0.30107 0.0
H425 H 0.5713 0.30716 0.13347 0.0
H426 H 0.64352 0.25719 0.32419 0.0
H427 H 0.6185 0.26071 0.38771 0.0
H428 H 0.64055 0.28667 0.37299 0.0
H429 H 0.57399 0.24302 0.1218 0.0
H430 H 0.54999 0.26772 0.11874 0.0
H431 H 0.55087 0.24524 0.19109 0.0
C432 C 0.20075 0.61807 0.65701 0.0
C433 C 0.18321 0.60271 0.69356 0.0
C434 C 0.22679 0.61793 0.67483 0.0
C435 C 0.23555 0.60152 0.72919 0.0
C436 C 0.21807 0.58527 0.76447 0.0
C437 C 0.19201 0.58632 0.74688 0.0
C438 C 0.24476 0.63598 0.63719 0.0
C439 C 0.22683 0.56708 0.8215 0.0
C440 C 0.3071 0.5891 0.73627 0.0
C441 C 0.31465 0.6054 0.79122 0.0
C442 C 0.28127 0.58711 0.71661 0.0
C443 C 0.26278 0.60234 0.75148 0.0
C444 C 0.27034 0.61887 0.80689 0.0
C445 C 0.29615 0.61994 0.82672 0.0
C446 C 0.27379 0.56881 0.65849 0.0
C447 C 0.25125 0.63586 0.84421 0.0
H448 H 0.19397 0.6309 0.61609 0.0
H449 H 0.1785 0.57427 0.77479 0.0
H450 H 0.25323 0.64953 0.67577 0.0
H451 H 0.26078 0.62517 0.613 0.0
H452 H 0.23498 0.64714 0.59519 0.0
H453 H 0.21118 0.55432 0.83981 0.0
H454 H 0.24285 0.5551 0.80185 0.0
H455 H 0.23409 0.57805 0.86747 0.0
H456 H 0.32137 0.57771 0.70908 0.0
H457 H 0.30197 0.63274 0.86883 0.0
H458 H 0.26559 0.57955 0.61333 0.0
H459 H 0.25876 0.55553 0.67768 0.0
H460 H 0.2903 0.55739 0.6392 0.0
H461 H 0.24178 0.64865 0.8054 0.0
H462 H 0.26032 0.64783 0.88573 0.0
H463 H 0.23608 0.62408 0.86904 0.0
C464 C 0.88163 0.19692 0.17675 0.0
C465 C 0.8959 0.17854 0.21355 0.0
C466 C 0.88321 0.22287 0.19443 0.0
C467 C 0.89999 0.23069 0.24899 0.0
C468 C 0.91506 0.21232 0.28493 0.0
C469 C 0.91256 0.18635 0.26743 0.0
C470 C 0.86637 0.24181 0.156 0.0
C471 C 0.93364 0.22009 0.34212 0.0
C472 C 0.91505 0.3016 0.2481 0.0
C473 C 0.89827 0.31068 0.3001 0.0
C474 C 0.91678 0.27537 0.23328 0.0
C475 C 0.90082 0.25801 0.27 0.0
C476 C 0.88422 0.26705 0.32351 0.0
C477 C 0.88339 0.29327 0.33854 0.0
C478 C 0.93519 0.2663 0.17716 0.0
C479 C 0.86647 0.2492 0.36268 0.0
H480 H 0.86858 0.19092 0.13541 0.0
H481 H 0.92376 0.17217 0.29555 0.0
H482 H 0.8536 0.25161 0.19424 0.0
H483 H 0.87828 0.25672 0.13047 0.0
H484 H 0.85435 0.23256 0.11487 0.0
H485 H 0.94519 0.2037 0.36153 0.0
H486 H 0.94679 0.23508 0.32204 0.0
H487 H 0.92306 0.22843 0.38739 0.0
H488 H 0.92677 0.31502 0.2188 0.0
H489 H 0.87029 0.30025 0.37854 0.0
H490 H 0.92435 0.25898 0.13101 0.0
H491 H 0.94701 0.25029 0.19757 0.0
H492 H 0.94811 0.28182 0.15887 0.0
H493 H 0.85276 0.24046 0.32498 0.0
H494 H 0.85544 0.25916 0.40463 0.0
H495 H 0.87749 0.2334 0.3872 0.0
C496 C 0.2941 0.87777 0.65231 0.0
C497 C 0.3117 0.89327 0.6882 0.0
C498 C 0.26811 0.87792 0.67063 0.0
C499 C 0.25949 0.89447 0.72481 0.0
C500 C 0.27702 0.9109 0.75928 0.0
C501 C 0.30302 0.90984 0.74121 0.0
C502 C 0.25007 0.85969 0.63387 0.0
C503 C 0.26839 0.92925 0.81607 0.0
C504 C 0.18796 0.90669 0.73456 0.0
C505 C 0.18081 0.89059 0.79035 0.0
C506 C 0.21364 0.90863 0.71359 0.0
C507 C 0.23239 0.89356 0.74803 0.0
C508 C 0.22522 0.8772 0.80419 0.0
C509 C 0.19955 0.87618 0.82529 0.0
C510 C 0.22073 0.92675 0.6547 0.0
C511 C 0.24458 0.86039 0.84109 0.0
H512 H 0.30081 0.86482 0.61161 0.0
H513 H 0.31659 0.92201 0.76857 0.0
H514 H 0.24191 0.84614 0.67293 0.0
H515 H 0.23385 0.87034 0.61016 0.0
H516 H 0.25972 0.84852 0.59164 0.0
H517 H 0.28403 0.9422 0.83346 0.0
H518 H 0.25218 0.94103 0.79664 0.0
H519 H 0.26146 0.91841 0.86261 0.0
H520 H 0.1735 0.91798 0.7078 0.0
H521 H 0.19403 0.86354 0.86804 0.0
H522 H 0.22883 0.9159 0.60962 0.0
H523 H 0.23572 0.94023 0.67304 0.0
H524 H 0.20404 0.93796 0.63556 0.0
H525 H 0.25396 0.84759 0.80216 0.0
H526 H 0.23577 0.84844 0.88306 0.0
H527 H 0.25978 0.87232 0.86529 0.0
C528 C 0.39688 0.79363 0.64601 0.0
C529 C 0.40953 0.81383 0.6797 0.0
C530 C 0.39952 0.76847 0.67054 0.0
C531 C 0.41579 0.76341 0.7288 0.0
C532 C 0.43009 0.7835 0.75955 0.0
C533 C 0.42648 0.80858 0.7353 0.0
C534 C 0.38361 0.74762 0.63706 0.0
C535 C 0.44831 0.77871 0.82003 0.0
C536 C 0.39609 0.70646 0.8396 0.0
C537 C 0.41043 0.68684 0.80855 0.0
C538 C 0.39835 0.73174 0.81577 0.0
C539 C 0.41592 0.73754 0.76108 0.0
C540 C 0.43185 0.7181 0.7334 0.0
C541 C 0.42862 0.69285 0.7567 0.0
C542 C 0.38071 0.75187 0.84584 0.0
C543 C 0.45144 0.72372 0.67691 0.0
H544 H 0.38365 0.79768 0.60331 0.0
H545 H 0.43647 0.82419 0.76101 0.0
H546 H 0.39597 0.73148 0.62036 0.0
H547 H 0.3698 0.74003 0.67637 0.0
H548 H 0.37274 0.75454 0.59037 0.0
H549 H 0.46072 0.79551 0.83072 0.0
H550 H 0.43729 0.77437 0.86862 0.0
H551 H 0.46062 0.7619 0.80871 0.0
H552 H 0.38191 0.7018 0.87935 0.0
H553 H 0.4399 0.67769 0.73308 0.0
H554 H 0.36765 0.75886 0.80381 0.0
H555 H 0.39188 0.76852 0.86489 0.0
H556 H 0.36896 0.74447 0.89026 0.0
H557 H 0.4416 0.72756 0.62609 0.0
H558 H 0.46486 0.70749 0.66904 0.0
H559 H 0.46263 0.74105 0.69067 0.0
C560 C 0.80846 0.41848 0.23431 0.0
C561 C 0.81403 0.40415 0.29507 0.0
C562 C 0.7832 0.42133 0.21053 0.0
C563 C 0.76316 0.40903 0.2475 0.0
C564 C 0.7686 0.39517 0.31004 0.0
C565 C 0.79397 0.39317 0.33358 0.0
C566 C 0.77805 0.43688 0.14484 0.0
C567 C 0.74777 0.38145 0.35032 0.0
C568 C 0.69304 0.42551 0.2253 0.0
C569 C 0.6848 0.40596 0.18 0.0
C570 C 0.71887 0.42772 0.24445 0.0
C571 C 0.73665 0.40947 0.21925 0.0
C572 C 0.7286 0.39034 0.17111 0.0
C573 C 0.70276 0.38904 0.15127 0.0
C574 C 0.72688 0.44886 0.29407 0.0
C575 C 0.74693 0.37027 0.14401 0.0
H576 H 0.82392 0.42717 0.20466 0.0
H577 H 0.79822 0.38193 0.38027 0.0
H578 H 0.77118 0.42418 0.10193 0.0
H579 H 0.76275 0.45113 0.1551 0.0
H580 H 0.79541 0.44708 0.12599 0.0
H581 H 0.75513 0.3719 0.39866 0.0
H582 H 0.73254 0.3951 0.36589 0.0
H583 H 0.7388 0.36678 0.31593 0.0
H584 H 0.67916 0.43875 0.24714 0.0
H585 H 0.69637 0.37379 0.11669 0.0
H586 H 0.74428 0.45858 0.27395 0.0
H587 H 0.73169 0.44065 0.34645 0.0
H588 H 0.71153 0.46333 0.30136 0.0
H589 H 0.764 0.37942 0.12014 0.0
H590 H 0.73795 0.35757 0.10401 0.0
H591 H 0.7537 0.35833 0.18873 0.0
C592 C 0.09959 0.79009 0.84347 0.0
C593 C 0.08502 0.80959 0.81259 0.0
C594 C 0.09726 0.76473 0.82033 0.0
C595 C 0.07939 0.75871 0.76654 0.0
C596 C 0.06324 0.77803 0.73909 0.0
C597 C 0.06654 0.80336 0.76168 0.0
C598 C 0.11513 0.74474 0.85011 0.0
C599 C 0.04334 0.77219 0.68358 0.0
C600 C 0.09792 0.70235 0.65185 0.0
C601 C 0.08549 0.68221 0.6864 0.0
C602 C 0.09536 0.72757 0.67602 0.0
C603 C 0.07941 0.73275 0.73482 0.0
C604 C 0.06534 0.71271 0.76654 0.0
C605 C 0.06885 0.68757 0.74261 0.0
C606 C 0.11103 0.74837 0.64147 0.0
C607 C 0.04746 0.71762 0.82769 0.0
H608 H 0.11401 0.7949 0.88249 0.0
H609 H 0.05508 0.81842 0.73819 0.0
H610 H 0.10413 0.7281 0.86992 0.0
H611 H 0.12799 0.73768 0.80771 0.0
H612 H 0.12709 0.7523 0.89392 0.0
H613 H 0.02982 0.78836 0.67592 0.0
H614 H 0.0529 0.76823 0.63243 0.0
H615 H 0.03229 0.75486 0.69817 0.0
H616 H 0.11091 0.69823 0.60868 0.0
H617 H 0.05903 0.67201 0.769 0.0
H618 H 0.12502 0.75611 0.68007 0.0
H619 H 0.09852 0.76442 0.62491 0.0
H620 H 0.12166 0.74135 0.59451 0.0
H621 H 0.05875 0.72219 0.87567 0.0
H622 H 0.0352 0.70079 0.83936 0.0
H623 H 0.035 0.73432 0.81644 0.0
C624 C 0.7922 0.09896 0.16973 0.0
C625 C 0.81153 0.08545 0.20486 0.0
C626 C 0.76669 0.09736 0.19217 0.0
C627 C 0.76033 0.08133 0.24988 0.0
C628 C 0.77955 0.0664 0.28265 0.0
C629 C 0.80502 0.06892 0.26036 0.0
C630 C 0.74679 0.1139 0.15656 0.0
C631 C 0.77336 0.04848 0.34277 0.0
C632 C 0.70156 0.10185 0.35235 0.0
C633 C 0.68236 0.08775 0.3185 0.0
C634 C 0.72726 0.09925 0.33225 0.0
C635 C 0.73388 0.08161 0.27844 0.0
C636 C 0.71477 0.06596 0.24791 0.0
C637 C 0.68915 0.06948 0.2676 0.0
C638 C 0.74704 0.11659 0.36528 0.0
C639 C 0.7212 0.04636 0.1921 0.0
H640 H 0.7972 0.11189 0.12716 0.0
H641 H 0.81994 0.05829 0.28729 0.0
H642 H 0.7307 0.10197 0.13726 0.0
H643 H 0.7388 0.12769 0.1953 0.0
H644 H 0.75475 0.1248 0.11125 0.0
H645 H 0.78985 0.03603 0.35671 0.0
H646 H 0.76794 0.0597 0.39018 0.0
H647 H 0.75679 0.03621 0.32886 0.0
H648 H 0.69633 0.11609 0.39142 0.0
H649 H 0.67432 0.05837 0.24183 0.0
H650 H 0.75479 0.12972 0.32452 0.0
H651 H 0.76331 0.10522 0.38599 0.0
H652 H 0.73901 0.12823 0.40908 0.0
H653 H 0.7264 0.0562 0.14224 0.0
H654 H 0.70488 0.03333 0.1812 0.0
H655 H 0.73796 0.03476 0.20859 0.0
C656 C 0.63071 0.11917 0.76077 0.0
C657 C 0.62183 0.10505 0.70316 0.0
C658 C 0.62904 0.10936 0.82943 0.0
C659 C 0.61766 0.08508 0.84047 0.0
C660 C 0.60942 0.07037 0.78203 0.0
C661 C 0.61158 0.08059 0.71382 0.0
C662 C 0.63831 0.12552 0.89042 0.0
C663 C 0.59694 0.04458 0.79176 0.0
C664 C 0.6279 0.05925 0.02491 0.0
C665 C 0.60674 0.06972 0.06012 0.0
C666 C 0.63102 0.06263 0.95191 0.0
C667 C 0.61235 0.07648 0.91363 0.0
C668 C 0.58982 0.08497 0.94791 0.0
C669 C 0.58736 0.08162 0.02095 0.0
C670 C 0.65524 0.05324 0.91709 0.0
C671 C 0.56919 0.09935 0.90852 0.0
H672 H 0.63836 0.1382 0.75218 0.0
H673 H 0.60399 0.07002 0.66924 0.0
H674 H 0.62174 0.13165 0.92294 0.0
H675 H 0.6512 0.1142 0.92498 0.0
H676 H 0.6487 0.14286 0.87238 0.0
H677 H 0.5949 0.03414 0.74096 0.0
H678 H 0.60815 0.03261 0.82896 0.0
H679 H 0.57762 0.0472 0.81494 0.0
H680 H 0.64296 0.05001 0.05496 0.0
H681 H 0.57082 0.08944 0.04797 0.0
H682 H 0.66789 0.06978 0.90583 0.0
H683 H 0.65092 0.04382 0.86596 0.0
H684 H 0.66587 0.03957 0.95116 0.0
H685 H 0.57636 0.11862 0.89402 0.0
H686 H 0.55156 0.10169 0.94065 0.0
H687 H 0.56418 0.08929 0.85883 0.0
C688 C 0.41394 0.59044 0.52191 0.0
C689 C 0.42789 0.60861 0.56039 0.0
C690 C 0.41026 0.59321 0.44897 0.0
C691 C 0.42061 0.61478 0.41395 0.0
C692 C 0.43638 0.63208 0.45144 0.0
C693 C 0.43996 0.62871 0.5243 0.0
C694 C 0.39372 0.57406 0.4105 0.0
C695 C 0.44783 0.65524 0.41588 0.0
C696 C 0.41634 0.61492 0.21379 0.0
C697 C 0.39311 0.62779 0.20314 0.0
C698 C 0.42613 0.61127 0.28209 0.0
C699 C 0.41231 0.62075 0.34076 0.0
C700 C 0.38934 0.63462 0.3299 0.0
C701 C 0.37989 0.63773 0.26116 0.0
C702 C 0.45051 0.59615 0.29158 0.0
C703 C 0.37418 0.64529 0.39109 0.0
H704 H 0.40481 0.5747 0.54936 0.0
H705 H 0.45085 0.64281 0.55359 0.0
H706 H 0.37514 0.58305 0.39668 0.0
H707 H 0.40296 0.56802 0.36047 0.0
H708 H 0.38985 0.55679 0.44298 0.0
H709 H 0.46245 0.66472 0.4495 0.0
H710 H 0.45674 0.64992 0.3648 0.0
H711 H 0.43244 0.66927 0.40437 0.0
H712 H 0.42624 0.60658 0.16913 0.0
H713 H 0.36183 0.64751 0.25279 0.0
H714 H 0.44602 0.57744 0.31624 0.0
H715 H 0.46383 0.60632 0.32756 0.0
H716 H 0.4604 0.59259 0.24057 0.0
H717 H 0.3667 0.62937 0.42385 0.0
H718 H 0.35777 0.65718 0.37332 0.0
H719 H 0.38669 0.65713 0.42537 0.0
C720 C 0.86969 0.4345 0.02367 0.0
C721 C 0.89108 0.42325 0.05604 0.0
C722 C 0.86518 0.43141 0.95109 0.0
C723 C 0.88267 0.41706 0.91012 0.0
C724 C 0.90535 0.4075 0.9415 0.0
C725 C 0.9092 0.41058 0.01426 0.0
C726 C 0.8408 0.44188 0.91952 0.0
C727 C 0.92474 0.39251 0.89923 0.0
C728 C 0.86103 0.37667 0.75551 0.0
C729 C 0.87005 0.39091 0.69827 0.0
C730 C 0.86365 0.38578 0.82474 0.0
C731 C 0.8761 0.40946 0.83675 0.0
C732 C 0.88432 0.42441 0.77876 0.0
C733 C 0.88124 0.41489 0.70999 0.0
C734 C 0.85437 0.36938 0.88519 0.0
C735 C 0.89787 0.4496 0.78942 0.0
H736 H 0.85555 0.44428 0.05571 0.0
H737 H 0.92588 0.40207 0.03899 0.0
H738 H 0.84477 0.45175 0.86885 0.0
H739 H 0.82754 0.42584 0.90798 0.0
H740 H 0.83101 0.45543 0.95573 0.0
H741 H 0.94261 0.38895 0.9295 0.0
H742 H 0.91643 0.37378 0.88392 0.0
H743 H 0.92966 0.40282 0.84988 0.0
H744 H 0.8527 0.35797 0.74617 0.0
H745 H 0.88902 0.42551 0.66578 0.0
H746 H 0.84248 0.38086 0.92193 0.0
H747 H 0.87103 0.36211 0.91553 0.0
H748 H 0.84295 0.35276 0.86668 0.0
H749 H 0.88753 0.4616 0.82838 0.0
H750 H 0.89978 0.46048 0.73928 0.0
H751 H 0.91732 0.44603 0.81083 0.0
C752 C 0.08014 0.88259 0.21589 0.0
C753 C 0.10353 0.86997 0.20557 0.0
C754 C 0.07025 0.88625 0.28407 0.0
C755 C 0.08412 0.87699 0.34296 0.0
C756 C 0.10733 0.86349 0.33248 0.0
C757 C 0.11687 0.86038 0.26387 0.0
C758 C 0.04564 0.90101 0.29319 0.0
C759 C 0.12255 0.85308 0.39393 0.0
C760 C 0.08136 0.90664 0.52487 0.0
C761 C 0.06765 0.88806 0.56246 0.0
C762 C 0.0853 0.90422 0.45193 0.0
C763 C 0.07545 0.8826 0.41603 0.0
C764 C 0.05989 0.86488 0.45261 0.0
C765 C 0.05603 0.8679 0.52546 0.0
C766 C 0.10159 0.92382 0.41444 0.0
C767 C 0.049 0.84163 0.41611 0.0
H768 H 0.07013 0.89069 0.17106 0.0
H769 H 0.13503 0.85077 0.25578 0.0
H770 H 0.03229 0.89046 0.32818 0.0
H771 H 0.04976 0.91963 0.31888 0.0
H772 H 0.03595 0.90473 0.24196 0.0
H773 H 0.1393 0.84161 0.37645 0.0
H774 H 0.12955 0.86911 0.42712 0.0
H775 H 0.11022 0.84089 0.4277 0.0
H776 H 0.09014 0.92242 0.55302 0.0
H777 H 0.04532 0.85349 0.55405 0.0
H778 H 0.09247 0.92976 0.36414 0.0
H779 H 0.12043 0.91527 0.40124 0.0
H780 H 0.10491 0.94109 0.44738 0.0
H781 H 0.0401 0.84697 0.365 0.0
H782 H 0.03449 0.83172 0.44912 0.0
H783 H 0.0647 0.82796 0.40452 0.0
C784 C 0.62997 0.43865 0.47813 0.0
C785 C 0.60895 0.42933 0.43988 0.0
C786 C 0.63188 0.43459 0.55117 0.0
C787 C 0.61216 0.4212 0.5865 0.0
C788 C 0.58982 0.41392 0.54925 0.0
C789 C 0.58853 0.41799 0.47621 0.0
C790 C 0.65593 0.44275 0.58921 0.0
C791 C 0.56815 0.40001 0.58539 0.0
C792 C 0.62854 0.37716 0.73847 0.0
C793 C 0.62012 0.39134 0.7966 0.0
C794 C 0.62694 0.38715 0.67 0.0
C795 C 0.61622 0.41175 0.65952 0.0
C796 C 0.60813 0.42639 0.71825 0.0
C797 C 0.61017 0.41596 0.78629 0.0
C798 C 0.63597 0.37102 0.60866 0.0
C799 C 0.59633 0.45253 0.70903 0.0
H800 H 0.64579 0.44753 0.45044 0.0
H801 H 0.57208 0.41107 0.447 0.0
H802 H 0.65122 0.45204 0.64025 0.0
H803 H 0.66771 0.42562 0.60113 0.0
H804 H 0.66761 0.45615 0.5571 0.0
H805 H 0.55083 0.39885 0.55149 0.0
H806 H 0.57432 0.38028 0.5986 0.0
H807 H 0.56298 0.40966 0.63558 0.0
H808 H 0.63609 0.35806 0.74658 0.0
H809 H 0.6029 0.42666 0.83096 0.0
H810 H 0.6498 0.38194 0.57601 0.0
H811 H 0.61948 0.36609 0.57433 0.0
H812 H 0.64525 0.353 0.62624 0.0
H813 H 0.60855 0.46466 0.6748 0.0
H814 H 0.59344 0.46245 0.76031 0.0
H815 H 0.57749 0.45064 0.68247 0.0
C816 C 0.08452 0.58697 0.97161 0.0
C817 C 0.07018 0.60429 0.93131 0.0
C818 C 0.08778 0.59059 0.04439 0.0
C819 C 0.0766 0.61216 0.0774 0.0
C820 C 0.06054 0.62865 0.03804 0.0
C821 C 0.0574 0.62443 0.96534 0.0
C822 C 0.10466 0.57228 0.08489 0.0
C823 C 0.04822 0.65179 0.07146 0.0
C824 C 0.07986 0.61262 0.27745 0.0
C825 C 0.10283 0.62582 0.28876 0.0
C826 C 0.07027 0.60904 0.20894 0.0
C827 C 0.08412 0.61885 0.15074 0.0
C828 C 0.10673 0.63322 0.16237 0.0
C829 C 0.11597 0.63628 0.23136 0.0
C830 C 0.04627 0.59341 0.19869 0.0
C831 C 0.1219 0.64423 0.10169 0.0
H832 H 0.09421 0.57122 0.94568 0.0
H833 H 0.04626 0.63791 0.93455 0.0
H834 H 0.12274 0.58204 0.0997 0.0
H835 H 0.09515 0.56619 0.13448 0.0
H836 H 0.1095 0.55498 0.05352 0.0
H837 H 0.03357 0.66057 0.0365 0.0
H838 H 0.03911 0.64665 0.12243 0.0
H839 H 0.06314 0.66632 0.08284 0.0
H840 H 0.07015 0.60379 0.32175 0.0
H841 H 0.13391 0.64619 0.24036 0.0
H842 H 0.05137 0.57455 0.17586 0.0
H843 H 0.03313 0.60297 0.16099 0.0
H844 H 0.03597 0.59017 0.24921 0.0
H845 H 0.13029 0.62846 0.07002 0.0
H846 H 0.13768 0.65683 0.12004 0.0
H847 H 0.10921 0.65539 0.06622 0.0
C848 C 0.87019 0.0528 0.48463 0.0
C849 C 0.89028 0.06514 0.4492 0.0
C850 C 0.86673 0.05597 0.55759 0.0
C851 C 0.88394 0.0716 0.59584 0.0
C852 C 0.90553 0.08219 0.56143 0.0
C853 C 0.90839 0.07891 0.48838 0.0
C854 C 0.84354 0.04428 0.59246 0.0
C855 C 0.9246 0.09858 0.60071 0.0
C856 C 0.86071 0.11204 0.74866 0.0
C857 C 0.87066 0.0988 0.80668 0.0
C858 C 0.86384 0.10263 0.67993 0.0
C859 C 0.87774 0.07969 0.66904 0.0
C860 C 0.88713 0.0658 0.72772 0.0
C861 C 0.88341 0.07552 0.79606 0.0
C862 C 0.8532 0.11783 0.61876 0.0
C863 C 0.90228 0.04146 0.7182 0.0
H864 H 0.85614 0.04203 0.45478 0.0
H865 H 0.92414 0.08823 0.46144 0.0
H866 H 0.84878 0.03531 0.64354 0.0
H867 H 0.82935 0.05953 0.60381 0.0
H868 H 0.83427 0.02967 0.5584 0.0
H869 H 0.94194 0.10259 0.56864 0.0
H870 H 0.91555 0.11708 0.61489 0.0
H871 H 0.93054 0.08916 0.65059 0.0
H872 H 0.85096 0.13009 0.75702 0.0
H873 H 0.89171 0.06558 0.84071 0.0
H874 H 0.8415 0.10534 0.58408 0.0
H875 H 0.86916 0.12547 0.58641 0.0
H876 H 0.84117 0.13413 0.63656 0.0
H877 H 0.89233 0.0283 0.68132 0.0
H878 H 0.90552 0.03137 0.76908 0.0
H879 H 0.92116 0.04604 0.69463 0.0
C880 C 0.41472 0.88249 0.27132 0.0
C881 C 0.39115 0.87036 0.28239 0.0
C882 C 0.42438 0.88587 0.20284 0.0
C883 C 0.41002 0.87696 0.14445 0.0
C884 C 0.38675 0.86368 0.15581 0.0
C885 C 0.37744 0.8608 0.22476 0.0
C886 C 0.4491 0.90036 0.19288 0.0
C887 C 0.371 0.85363 0.09491 0.0
C888 C 0.41115 0.90909 0.96568 0.0
C889 C 0.42468 0.89118 0.92527 0.0
C890 C 0.40774 0.90555 0.03844 0.0
C891 C 0.41788 0.88341 0.07123 0.0
C892 C 0.43313 0.86623 0.03172 0.0
C893 C 0.4365 0.87042 0.9591 0.0
C894 C 0.39179 0.9246 0.07913 0.0
C895 C 0.44426 0.84244 0.06485 0.0
H896 H 0.4249 0.89064 0.31583 0.0
H897 H 0.35906 0.85173 0.23359 0.0
H898 H 0.46179 0.89024 0.15511 0.0
H899 H 0.44492 0.91948 0.17025 0.0
H900 H 0.45955 0.90303 0.24347 0.0
H901 H 0.35462 0.84179 0.11299 0.0
H902 H 0.36342 0.8699 0.0636 0.0
H903 H 0.3831 0.84194 0.05917 0.0
H904 H 0.4022 0.9253 0.93985 0.0
H905 H 0.44698 0.85647 0.92817 0.0
H906 H 0.40156 0.93009 0.1289 0.0
H907 H 0.37322 0.91575 0.09363 0.0
H908 H 0.38787 0.94219 0.04803 0.0
H909 H 0.45365 0.84704 0.11584 0.0
H910 H 0.45842 0.83297 0.02976 0.0
H911 H 0.42863 0.82868 0.0761 0.0
loop_
_geom_bond_atom_site_label_1
_geom_bond_atom_site_label_2
_geom_bond_distance
_geom_bond_site_symmetry_2
_ccdc_geom_bond_type
Co0 O3 1.970 . S
Co0 N17 1.989 . S
Co0 O25 1.967 . S
Co0 O32 1.920 . S
Co1 O4 1.966 . S
Co1 N10 2.022 . S
Co1 N18 1.993 . S
Co1 O26 1.941 . S
C2 O3 1.258 . S
C2 O4 1.263 . S
O3 Co0 1.970 . S
O3 C2 1.258 . S
O4 Co1 1.966 . S
O4 C2 1.263 . S
C5 O6 1.235 . S
C5 O32 1.289 . S
O6 C5 1.235 . S
C7 C9 1.400 . S
C7 N10 1.351 . S
C7 C12 1.501 . S
C8 C9 1.387 . S
C8 N11 1.341 . S
C9 C7 1.400 . S
C9 C8 1.387 . S
N10 Co1 2.022 . S
N10 C7 1.351 . S
N10 N11 1.365 . S
N11 C8 1.341 . S
N11 N10 1.365 . S
N11 H31 0.862 . S
C12 C7 1.501 . S
C12 H13 0.961 . S
C12 H14 0.961 . S
C12 H15 0.960 . S
H13 C12 0.961 . S
H14 C12 0.961 . S
H15 C12 0.960 . S
C16 N17 1.342 . S
C16 C20 1.401 . S
C16 C21 1.499 . S
N17 Co0 1.989 . S
N17 C16 1.342 . S
N17 N18 1.388 . S
N18 Co1 1.993 . S
N18 N17 1.388 . S
N18 C19 1.346 . S
C19 N18 1.346 . S
C19 C20 1.396 . S
C19 C29 1.510 . S
C20 C16 1.401 . S
C20 C19 1.396 . S
C21 C16 1.499 . S
C21 H22 0.959 . S
C21 H23 0.960 . S
C21 H24 0.961 . S
H22 C21 0.959 . S
H23 C21 0.960 . S
H24 C21 0.961 . S
O25 Co0 1.967 . S
O25 C33 1.258 . S
O26 Co1 1.941 . S
O26 C33 1.266 . S
H27 C29 0.959 . S
H28 C29 0.961 . S
C29 C19 1.510 . S
C29 H27 0.959 . S
C29 H28 0.961 . S
C29 H30 0.960 . S
H30 C29 0.960 . S
H31 N11 0.862 . S
O32 Co0 1.920 . S
O32 C5 1.289 . S
C33 O25 1.258 . S
C33 O26 1.266 . S
Co34 O37 1.970 . S
Co34 N51 1.989 . S
Co34 O59 1.967 . S
Co34 O66 1.920 . S
Co35 O38 1.966 . S
Co35 N44 2.022 1_556 S
Co35 N52 1.993 . S
Co35 O60 1.941 . S
C36 O37 1.258 . S
C36 O38 1.263 . S
O37 Co34 1.970 . S
O37 C36 1.258 . S
O38 Co35 1.966 . S
O38 C36 1.263 . S
C39 O40 1.235 . S
C39 O66 1.289 . S
O40 C39 1.235 . S
C41 C43 1.400 . S
C41 N44 1.351 . S
C41 C46 1.501 . S
C42 C43 1.387 . S
C42 N45 1.341 . S
C43 C41 1.400 . S
C43 C42 1.387 . S
N44 Co35 2.022 1_554 S
N44 C41 1.351 . S
N44 N45 1.365 . S
N45 C42 1.341 . S
N45 N44 1.365 . S
N45 H65 0.862 . S
C46 C41 1.501 . S
C46 H47 0.961 . S
C46 H48 0.961 . S
C46 H49 0.960 . S
H47 C46 0.961 . S
H48 C46 0.961 . S
H49 C46 0.960 . S
C50 N51 1.342 . S
C50 C54 1.401 . S
C50 C55 1.499 . S
N51 Co34 1.989 . S
N51 C50 1.342 . S
N51 N52 1.388 . S
N52 Co35 1.993 . S
N52 N51 1.388 . S
N52 C53 1.346 . S
C53 N52 1.346 . S
C53 C54 1.396 . S
C53 C63 1.510 1_556 S
C54 C50 1.401 . S
C54 C53 1.396 . S
C55 C50 1.499 . S
C55 H56 0.959 . S
C55 H57 0.960 . S
C55 H58 0.961 . S
H56 C55 0.959 . S
H57 C55 0.960 . S
H58 C55 0.961 . S
O59 Co34 1.967 . S
O59 C67 1.258 . S
O60 Co35 1.941 . S
O60 C67 1.266 . S
H61 C63 0.959 . S
H62 C63 0.961 . S
C63 C53 1.510 1_554 S
C63 H61 0.959 . S
C63 H62 0.961 . S
C63 H64 0.960 . S
H64 C63 0.960 . S
H65 N45 0.862 . S
O66 Co34 1.920 . S
O66 C39 1.289 . S
C67 O59 1.258 . S
C67 O60 1.266 . S
Co68 O71 1.970 . S
Co68 N85 1.989 . S
Co68 O93 1.967 . S
Co68 O100 1.920 . S
Co69 O72 1.966 . S
Co69 N78 2.022 . S
Co69 N86 1.993 . S
Co69 O94 1.941 . S
C70 O71 1.258 . S
C70 O72 1.263 . S
O71 Co68 1.970 . S
O71 C70 1.258 . S
O72 Co69 1.966 . S
O72 C70 1.263 . S
C73 O74 1.235 . S
C73 O100 1.289 . S
O74 C73 1.235 . S
C75 C77 1.400 . S
C75 N78 1.351 . S
C75 C80 1.501 . S
C76 C77 1.387 . S
C76 N79 1.341 . S
C77 C75 1.400 . S
C77 C76 1.387 . S
N78 Co69 2.022 . S
N78 C75 1.351 . S
N78 N79 1.365 . S
N79 C76 1.341 . S
N79 N78 1.365 . S
N79 H99 0.862 . S
C80 C75 1.501 . S
C80 H81 0.961 . S
C80 H82 0.961 . S
C80 H83 0.960 . S
H81 C80 0.961 . S
H82 C80 0.961 . S
H83 C80 0.960 . S
C84 N85 1.342 . S
C84 C88 1.401 . S
C84 C89 1.499 . S
N85 Co68 1.989 . S
N85 C84 1.342 . S
N85 N86 1.388 . S
N86 Co69 1.993 . S
N86 N85 1.388 . S
N86 C87 1.346 . S
C87 N86 1.346 . S
C87 C88 1.396 . S
C87 C97 1.510 . S
C88 C84 1.401 . S
C88 C87 1.396 . S
C89 C84 1.499 . S
C89 H90 0.959 . S
C89 H91 0.960 . S
C89 H92 0.961 . S
H90 C89 0.959 . S
H91 C89 0.960 . S
H92 C89 0.961 . S
O93 Co68 1.967 . S
O93 C101 1.258 . S
O94 Co69 1.941 . S
O94 C101 1.266 . S
H95 C97 0.959 . S
H96 C97 0.961 . S
C97 C87 1.510 . S
C97 H95 0.959 . S
C97 H96 0.961 . S
C97 H98 0.960 . S
H98 C97 0.960 . S
H99 N79 0.862 . S
O100 Co68 1.920 . S
O100 C73 1.289 . S
C101 O93 1.258 . S
C101 O94 1.266 . S
Co102 O105 1.970 . S
Co102 N119 1.989 . S
Co102 O127 1.967 . S
Co102 O134 1.920 . S
Co103 O106 1.966 . S
Co103 N112 2.022 1_556 S
Co103 N120 1.993 . S
Co103 O128 1.941 . S
C104 O105 1.258 . S
C104 O106 1.263 . S
O105 Co102 1.970 . S
O105 C104 1.258 . S
O106 Co103 1.966 . S
O106 C104 1.263 . S
C107 O108 1.235 . S
C107 O134 1.289 . S
O108 C107 1.235 . S
C109 C111 1.400 . S
C109 N112 1.351 . S
C109 C114 1.501 . S
C110 C111 1.387 . S
C110 N113 1.341 . S
C111 C109 1.400 . S
C111 C110 1.387 . S
N112 Co103 2.022 1_554 S
N112 C109 1.351 . S
N112 N113 1.365 . S
N113 C110 1.341 . S
N113 N112 1.365 . S
N113 H133 0.862 . S
C114 C109 1.501 . S
C114 H115 0.961 . S
C114 H116 0.961 . S
C114 H117 0.960 . S
H115 C114 0.961 . S
H116 C114 0.961 . S
H117 C114 0.960 . S
C118 N119 1.342 . S
C118 C122 1.401 . S
C118 C123 1.499 . S
N119 Co102 1.989 . S
N119 C118 1.342 . S
N119 N120 1.388 . S
N120 Co103 1.993 . S
N120 N119 1.388 . S
N120 C121 1.346 . S
C121 N120 1.346 . S
C121 C122 1.396 . S
C121 C131 1.510 1_556 S
C122 C118 1.401 . S
C122 C121 1.396 . S
C123 C118 1.499 . S
C123 H124 0.959 . S
C123 H125 0.960 . S
C123 H126 0.961 . S
H124 C123 0.959 . S
H125 C123 0.960 . S
H126 C123 0.961 . S
O127 Co102 1.967 . S
O127 C135 1.258 . S
O128 Co103 1.941 . S
O128 C135 1.266 . S
H129 C131 0.959 . S
H130 C131 0.961 . S
C131 C121 1.510 1_554 S
C131 H129 0.959 . S
C131 H130 0.961 . S
C131 H132 0.960 . S
H132 C131 0.960 . S
H133 N113 0.862 . S
O134 Co102 1.920 . S
O134 C107 1.289 . S
C135 O127 1.258 . S
C135 O128 1.266 . S
Co136 O139 1.970 . S
Co136 N153 1.989 . S
Co136 O161 1.967 . S
Co136 O168 1.920 . S
Co137 O140 1.966 . S
Co137 N146 2.022 1_554 S
Co137 N154 1.993 . S
Co137 O162 1.941 . S
C138 O139 1.258 . S
C138 O140 1.263 . S
O139 Co136 1.970 . S
O139 C138 1.258 . S
O140 Co137 1.966 . S
O140 C138 1.263 . S
C141 O142 1.235 . S
C141 O168 1.289 . S
O142 C141 1.235 . S
C143 C145 1.400 . S
C143 N146 1.351 . S
C143 C148 1.501 . S
C144 C145 1.387 . S
C144 N147 1.341 . S
C145 C143 1.400 . S
C145 C144 1.387 . S
N146 Co137 2.022 1_556 S
N146 C143 1.351 . S
N146 N147 1.365 . S
N147 C144 1.341 . S
N147 N146 1.365 . S
N147 H167 0.862 . S
C148 C143 1.501 . S
C148 H149 0.961 . S
C148 H150 0.961 . S
C148 H151 0.960 . S
H149 C148 0.961 . S
H150 C148 0.961 . S
H151 C148 0.960 . S
C152 N153 1.342 . S
C152 C156 1.401 . S
C152 C157 1.499 . S
N153 Co136 1.989 . S
N153 C152 1.342 . S
N153 N154 1.388 . S
N154 Co137 1.993 . S
N154 N153 1.388 . S
N154 C155 1.346 . S
C155 N154 1.346 . S
C155 C156 1.396 . S
C155 C165 1.510 1_554 S
C156 C152 1.401 . S
C156 C155 1.396 . S
C157 C152 1.499 . S
C157 H158 0.959 . S
C157 H159 0.960 . S
C157 H160 0.961 . S
H158 C157 0.959 . S
H159 C157 0.960 . S
H160 C157 0.961 . S
O161 Co136 1.967 . S
O161 C169 1.258 . S
O162 Co137 1.941 . S
O162 C169 1.266 . S
H163 C165 0.959 . S
H164 C165 0.961 . S
C165 C155 1.510 1_556 S
C165 H163 0.959 . S
C165 H164 0.961 . S
C165 H166 0.960 . S
H166 C165 0.960 . S
H167 N147 0.862 . S
O168 Co136 1.920 . S
O168 C141 1.289 . S
C169 O161 1.258 . S
C169 O162 1.266 . S
Co170 O173 1.970 . S
Co170 N187 1.989 . S
Co170 O195 1.967 . S
Co170 O202 1.920 . S
Co171 O174 1.966 . S
Co171 N180 2.022 . S
Co171 N188 1.993 . S
Co171 O196 1.941 . S
C172 O173 1.258 . S
C172 O174 1.263 . S
O173 Co170 1.970 . S
O173 C172 1.258 . S
O174 Co171 1.966 . S
O174 C172 1.263 . S
C175 O176 1.235 . S
C175 O202 1.289 . S
O176 C175 1.235 . S
C177 C179 1.400 . S
C177 N180 1.351 . S
C177 C182 1.501 . S
C178 C179 1.387 . S
C178 N181 1.341 . S
C179 C177 1.400 . S
C179 C178 1.387 . S
N180 Co171 2.022 . S
N180 C177 1.351 . S
N180 N181 1.365 . S
N181 C178 1.341 . S
N181 N180 1.365 . S
N181 H201 0.862 . S
C182 C177 1.501 . S
C182 H183 0.961 . S
C182 H184 0.961 . S
C182 H185 0.960 . S
H183 C182 0.961 . S
H184 C182 0.961 . S
H185 C182 0.960 . S
C186 N187 1.342 . S
C186 C190 1.401 . S
C186 C191 1.499 . S
N187 Co170 1.989 . S
N187 C186 1.342 . S
N187 N188 1.388 . S
N188 Co171 1.993 . S
N188 N187 1.388 . S
N188 C189 1.346 . S
C189 N188 1.346 . S
C189 C190 1.396 . S
C189 C199 1.510 . S
C190 C186 1.401 . S
C190 C189 1.396 . S
C191 C186 1.499 . S
C191 H192 0.959 . S
C191 H193 0.960 . S
C191 H194 0.961 . S
H192 C191 0.959 . S
H193 C191 0.960 . S
H194 C191 0.961 . S
O195 Co170 1.967 . S
O195 C203 1.258 . S
O196 Co171 1.941 . S
O196 C203 1.266 . S
H197 C199 0.959 . S
H198 C199 0.961 . S
C199 C189 1.510 . S
C199 H197 0.959 . S
C199 H198 0.961 . S
C199 H200 0.960 . S
H200 C199 0.960 . S
H201 N181 0.862 . S
O202 Co170 1.920 . S
O202 C175 1.289 . S
C203 O195 1.258 . S
C203 O196 1.266 . S
Co204 O207 1.970 . S
Co204 N221 1.989 . S
Co204 O229 1.967 . S
Co204 O236 1.920 . S
Co205 O208 1.966 . S
Co205 N214 2.022 1_554 S
Co205 N222 1.993 . S
Co205 O230 1.941 . S
C206 O207 1.258 . S
C206 O208 1.263 . S
O207 Co204 1.970 . S
O207 C206 1.258 . S
O208 Co205 1.966 . S
O208 C206 1.263 . S
C209 O210 1.235 . S
C209 O236 1.289 . S
O210 C209 1.235 . S
C211 C213 1.400 . S
C211 N214 1.351 . S
C211 C216 1.501 . S
C212 C213 1.387 . S
C212 N215 1.341 . S
C213 C211 1.400 . S
C213 C212 1.387 . S
N214 Co205 2.022 1_556 S
N214 C211 1.351 . S
N214 N215 1.365 . S
N215 C212 1.341 . S
N215 N214 1.365 . S
N215 H235 0.862 . S
C216 C211 1.501 . S
C216 H217 0.961 . S
C216 H218 0.961 . S
C216 H219 0.960 . S
H217 C216 0.961 . S
H218 C216 0.961 . S
H219 C216 0.960 . S
C220 N221 1.342 . S
C220 C224 1.401 . S
C220 C225 1.499 . S
N221 Co204 1.989 . S
N221 C220 1.342 . S
N221 N222 1.388 . S
N222 Co205 1.993 . S
N222 N221 1.388 . S
N222 C223 1.346 . S
C223 N222 1.346 . S
C223 C224 1.396 . S
C223 C233 1.510 1_554 S
C224 C220 1.401 . S
C224 C223 1.396 . S
C225 C220 1.499 . S
C225 H226 0.959 . S
C225 H227 0.960 . S
C225 H228 0.961 . S
H226 C225 0.959 . S
H227 C225 0.960 . S
H228 C225 0.961 . S
O229 Co204 1.967 . S
O229 C237 1.258 . S
O230 Co205 1.941 . S
O230 C237 1.266 . S
H231 C233 0.959 . S
H232 C233 0.961 . S
C233 C223 1.510 1_556 S
C233 H231 0.959 . S
C233 H232 0.961 . S
C233 H234 0.960 . S
H234 C233 0.960 . S
H235 N215 0.862 . S
O236 Co204 1.920 . S
O236 C209 1.289 . S
C237 O229 1.258 . S
C237 O230 1.266 . S
Co238 O241 1.970 . S
Co238 N255 1.989 . S
Co238 O263 1.967 . S
Co238 O270 1.920 . S
Co239 O242 1.966 . S
Co239 N248 2.022 . S
Co239 N256 1.993 . S
Co239 O264 1.941 . S
C240 O241 1.258 . S
C240 O242 1.263 . S
O241 Co238 1.970 . S
O241 C240 1.258 . S
O242 Co239 1.966 . S
O242 C240 1.263 . S
C243 O244 1.235 . S
C243 O270 1.289 . S
O244 C243 1.235 . S
C245 C247 1.400 . S
C245 N248 1.351 . S
C245 C250 1.501 . S
C246 C247 1.387 . S
C246 N249 1.341 . S
C247 C245 1.400 . S
C247 C246 1.387 . S
N248 Co239 2.022 . S
N248 C245 1.351 . S
N248 N249 1.365 . S
N249 C246 1.341 . S
N249 N248 1.365 . S
N249 H269 0.862 . S
C250 C245 1.501 . S
C250 H251 0.961 . S
C250 H252 0.961 . S
C250 H253 0.960 . S
H251 C250 0.961 . S
H252 C250 0.961 . S
H253 C250 0.960 . S
C254 N255 1.342 . S
C254 C258 1.401 . S
C254 C259 1.499 . S
N255 Co238 1.989 . S
N255 C254 1.342 . S
N255 N256 1.388 . S
N256 Co239 1.993 . S
N256 N255 1.388 . S
N256 C257 1.346 . S
C257 N256 1.346 . S
C257 C258 1.396 . S
C257 C267 1.510 . S
C258 C254 1.401 . S
C258 C257 1.396 . S
C259 C254 1.499 . S
C259 H260 0.959 . S
C259 H261 0.960 . S
C259 H262 0.961 . S
H260 C259 0.959 . S
H261 C259 0.960 . S
H262 C259 0.961 . S
O263 Co238 1.967 . S
O263 C271 1.258 . S
O264 Co239 1.941 . S
O264 C271 1.266 . S
H265 C267 0.959 . S
H266 C267 0.961 . S
C267 C257 1.510 . S
C267 H265 0.959 . S
C267 H266 0.961 . S
C267 H268 0.960 . S
H268 C267 0.960 . S
H269 N249 0.862 . S
O270 Co238 1.920 . S
O270 C243 1.289 . S
C271 O263 1.258 . S
C271 O264 1.266 . S
C272 C273 1.391 . S
C272 C274 1.394 1_565 S
C272 H288 0.931 . S
C273 C272 1.391 . S
C273 C277 1.376 . S
C274 C272 1.394 1_545 S
C274 C275 1.369 . S
C274 C278 1.531 . S
C275 C274 1.369 . S
C275 C276 1.410 1_545 S
C275 C283 1.503 . S
C276 C275 1.410 1_565 S
C276 C277 1.392 . S
C276 C279 1.511 . S
C277 C273 1.376 . S
C277 C276 1.392 . S
C277 H289 0.929 . S
C278 C274 1.531 . S
C278 H290 0.960 . S
C278 H291 0.962 . S
C278 H292 0.960 . S
C279 C276 1.511 . S
C279 H293 0.961 . S
C279 H294 0.961 . S
C279 H295 0.989 . S
C280 C281 1.370 . S
C280 C282 1.363 . S
C280 H296 0.931 . S
C281 C280 1.370 . S
C281 C285 1.408 . S
C282 C280 1.363 . S
C282 C283 1.370 . S
C282 C286 1.524 1_545 S
C283 C275 1.503 . S
C283 C282 1.370 . S
C283 C284 1.403 . S
C284 C283 1.403 . S
C284 C285 1.404 . S
C284 C287 1.539 . S
C285 C281 1.408 . S
C285 C284 1.404 . S
C285 H297 0.930 . S
C286 C282 1.524 1_565 S
C286 H298 0.956 . S
C286 H299 0.961 . S
C286 H300 0.961 . S
C287 C284 1.539 . S
C287 H301 0.958 . S
C287 H302 0.961 . S
C287 H303 0.960 . S
H288 C272 0.931 . S
H289 C277 0.929 . S
H290 C278 0.960 . S
H291 C278 0.962 . S
H292 C278 0.960 . S
H293 C279 0.961 . S
H294 C279 0.961 . S
H295 C279 0.989 . S
H296 C280 0.931 . S
H297 C285 0.930 . S
H298 C286 0.956 . S
H299 C286 0.961 . S
H300 C286 0.961 . S
H301 C287 0.958 . S
H302 C287 0.961 . S
H303 C287 0.960 . S
C304 C305 1.391 . S
C304 C306 1.394 1_554 S
C304 H320 0.931 1_554 S
C305 C304 1.391 . S
C305 C309 1.376 . S
C306 C304 1.394 1_556 S
C306 C307 1.369 1_556 S
C306 C310 1.531 . S
C307 C306 1.369 1_554 S
C307 C308 1.410 . S
C307 C315 1.503 1_554 S
C308 C307 1.410 . S
C308 C309 1.392 . S
C308 C311 1.511 . S
C309 C305 1.376 . S
C309 C308 1.392 . S
C309 H321 0.929 . S
C310 C306 1.531 . S
C310 H322 0.960 . S
C310 H323 0.962 . S
C310 H324 0.960 . S
C311 C308 1.511 . S
C311 H325 0.961 . S
C311 H326 0.961 . S
C311 H327 0.961 . S
C312 C313 1.370 . S
C312 C314 1.363 . S
C312 H328 0.931 . S
C313 C312 1.370 . S
C313 C317 1.408 . S
C314 C312 1.363 . S
C314 C315 1.370 . S
C314 C318 1.524 1_556 S
C315 C307 1.503 1_556 S
C315 C314 1.370 . S
C315 C316 1.403 . S
C316 C315 1.403 . S
C316 C317 1.404 . S
C316 C319 1.539 . S
C317 C313 1.408 . S
C317 C316 1.404 . S
C317 H329 0.930 . S
C318 C314 1.524 1_554 S
C318 H330 0.956 . S
C318 H331 0.961 . S
C318 H332 0.961 . S
C319 C316 1.539 . S
C319 H333 0.958 . S
C319 H334 0.961 . S
C319 H335 0.960 . S
H320 C304 0.931 1_556 S
H321 C309 0.929 . S
H322 C310 0.960 . S
H323 C310 0.962 . S
H324 C310 0.960 . S
H325 C311 0.961 . S
H326 C311 0.961 . S
H327 C311 0.961 . S
H328 C312 0.931 . S
H329 C317 0.930 . S
H330 C318 0.956 . S
H331 C318 0.961 . S
H332 C318 0.961 . S
H333 C319 0.958 . S
H334 C319 0.961 . S
H335 C319 0.960 . S
C336 C337 1.391 . S
C336 C338 1.394 1_655 S
C336 H352 0.931 . S
C337 C336 1.391 . S
C337 C341 1.376 . S
C338 C336 1.394 1_455 S
C338 C339 1.369 1_455 S
C338 C342 1.531 . S
C339 C338 1.369 1_655 S
C339 C340 1.410 . S
C339 C347 1.503 1_655 S
C340 C339 1.410 . S
C340 C341 1.392 . S
C340 C343 1.511 . S
C341 C337 1.376 . S
C341 C340 1.392 . S
C341 H353 0.929 . S
C342 C338 1.531 . S
C342 H354 0.960 . S
C342 H355 0.962 . S
C342 H356 0.960 . S
C343 C340 1.511 . S
C343 H357 0.961 . S
C343 H358 0.961 . S
C343 H359 0.961 . S
C344 C345 1.370 . S
C344 C346 1.363 . S
C344 H360 0.931 . S
C345 C344 1.370 . S
C345 C349 1.408 . S
C346 C344 1.363 . S
C346 C347 1.370 . S
C346 C350 1.524 . S
C347 C339 1.503 1_455 S
C347 C346 1.370 . S
C347 C348 1.403 . S
C348 C347 1.403 . S
C348 C349 1.404 . S
C348 C351 1.539 1_455 S
C349 C345 1.408 . S
C349 C348 1.404 . S
C349 H361 0.930 . S
C350 C346 1.524 . S
C350 H362 0.956 . S
C350 H363 0.961 . S
C350 H364 0.961 . S
C351 C348 1.539 1_655 S
C351 H365 0.958 . S
C351 H366 0.961 . S
C351 H367 0.960 . S
H352 C336 0.931 . S
H353 C341 0.929 . S
H354 C342 0.960 . S
H355 C342 0.962 . S
H356 C342 0.960 . S
H357 C343 0.961 . S
H358 C343 0.961 . S
H359 C343 0.961 . S
H360 C344 0.931 . S
H361 C349 0.930 . S
H362 C350 0.956 . S
H363 C350 0.961 . S
H364 C350 0.961 . S
H365 C351 0.958 . S
H366 C351 0.961 . S
H367 C351 0.960 . S
C368 C369 1.391 . S
C368 C370 1.394 1_655 S
C368 H384 0.931 . S
C369 C368 1.391 . S
C369 C373 1.376 . S
C370 C368 1.394 1_455 S
C370 C371 1.363 1_455 S
C370 C374 1.531 . S
C371 C370 1.363 1_655 S
C371 C372 1.440 1_554 S
C371 C379 1.454 1_644 S
C372 C371 1.440 1_556 S
C372 C373 1.392 1_556 S
C372 C375 1.511 . S
C373 C369 1.376 . S
C373 C372 1.392 1_554 S
C373 H385 0.929 1_554 S
C374 C370 1.531 . S
C374 H386 0.960 1_545 S
C374 H387 0.962 . S
C374 H388 0.960 . S
C375 C372 1.511 . S
C375 H389 0.961 . S
C375 H390 0.961 . S
C375 H391 0.961 . S
C376 C377 1.370 . S
C376 C378 1.363 1_565 S
C376 H392 0.931 1_565 S
C377 C376 1.370 . S
C377 C381 1.408 . S
C378 C376 1.363 1_545 S
C378 C379 1.354 1_545 S
C378 C382 1.524 . S
C379 C371 1.454 1_466 S
C379 C378 1.354 1_565 S
C379 C380 1.444 . S
C380 C379 1.444 . S
C380 C381 1.404 . S
C380 C383 1.539 1_456 S
C381 C377 1.408 . S
C381 C380 1.404 . S
C381 H393 0.930 . S
C382 C378 1.524 . S
C382 H394 0.956 1_556 S
C382 H395 0.961 . S
C382 H396 0.961 . S
C383 C380 1.539 1_654 S
C383 H397 0.958 . S
C383 H398 0.961 1_554 S
C383 H399 0.960 . S
H384 C368 0.931 . S
H385 C373 0.929 1_556 S
H386 C374 0.960 1_565 S
H387 C374 0.962 . S
H388 C374 0.960 . S
H389 C375 0.961 . S
H390 C375 0.961 . S
H391 C375 0.961 . S
H392 C376 0.931 1_545 S
H393 C381 0.930 . S
H394 C382 0.956 1_554 S
H395 C382 0.961 . S
H396 C382 0.961 . S
H397 C383 0.958 . S
H398 C383 0.961 1_556 S
H399 C383 0.960 . S
C400 C401 1.391 . S
C400 C402 1.394 . S
C400 H416 0.931 . S
C401 C400 1.391 . S
C401 C405 1.376 . S
C402 C400 1.394 . S
C402 C403 1.369 . S
C402 C406 1.531 . S
C403 C402 1.369 . S
C403 C404 1.410 . S
C403 C411 1.503 . S
C404 C403 1.410 . S
C404 C405 1.392 . S
C404 C407 1.511 . S
C405 C401 1.376 . S
C405 C404 1.392 . S
C405 H417 0.929 . S
C406 C402 1.531 . S
C406 H418 0.960 . S
C406 H419 0.962 . S
C406 H420 0.960 . S
C407 C404 1.511 . S
C407 H421 0.961 . S
C407 H422 0.961 . S
C407 H423 0.961 . S
C408 C409 1.370 . S
C408 C410 1.363 . S
C408 H424 0.931 . S
C409 C408 1.370 . S
C409 C413 1.408 . S
C410 C408 1.363 . S
C410 C411 1.370 . S
C410 C414 1.524 . S
C411 C403 1.503 . S
C411 C410 1.370 . S
C411 C412 1.403 . S
C412 C411 1.403 . S
C412 C413 1.404 . S
C412 C415 1.539 . S
C413 C409 1.408 . S
C413 C412 1.404 . S
C413 H425 0.930 . S
C414 C410 1.524 . S
C414 H426 0.956 . S
C414 H427 0.961 . S
C414 H428 0.961 . S
C415 C412 1.539 . S
C415 H429 0.958 . S
C415 H430 0.961 . S
C415 H431 0.960 . S
H416 C400 0.931 . S
H417 C405 0.929 . S
H418 C406 0.960 . S
H419 C406 0.962 . S
H420 C406 0.960 . S
H421 C407 0.961 . S
H422 C407 0.961 . S
H423 C407 0.961 . S
H424 C408 0.931 . S
H425 C413 0.930 . S
H426 C414 0.956 . S
H427 C414 0.961 . S
H428 C414 0.961 . S
H429 C415 0.958 . S
H430 C415 0.961 . S
H431 C415 0.960 . S
C432 C433 1.391 . S
C432 C434 1.394 . S
C432 H448 0.931 . S
C433 C432 1.391 . S
C433 C437 1.376 . S
C434 C432 1.394 . S
C434 C435 1.369 . S
C434 C438 1.531 . S
C435 C434 1.369 . S
C435 C436 1.410 . S
C435 C443 1.503 . S
C436 C435 1.410 . S
C436 C437 1.392 . S
C436 C439 1.511 . S
C437 C433 1.376 . S
C437 C436 1.392 . S
C437 H449 0.929 . S
C438 C434 1.531 . S
C438 H450 0.960 . S
C438 H451 0.962 . S
C438 H452 0.960 . S
C439 C436 1.511 . S
C439 H453 0.961 . S
C439 H454 0.961 . S
C439 H455 0.961 . S
C440 C441 1.370 . S
C440 C442 1.363 . S
C440 H456 0.931 . S
C441 C440 1.370 . S
C441 C445 1.408 . S
C442 C440 1.363 . S
C442 C443 1.370 . S
C442 C446 1.524 . S
C443 C435 1.503 . S
C443 C442 1.370 . S
C443 C444 1.403 . S
C444 C443 1.403 . S
C444 C445 1.404 . S
C444 C447 1.539 . S
C445 C441 1.408 . S
C445 C444 1.404 . S
C445 H457 0.930 . S
C446 C442 1.524 . S
C446 H458 0.956 . S
C446 H459 0.961 . S
C446 H460 0.961 . S
C447 C444 1.539 . S
C447 H461 0.958 . S
C447 H462 0.961 . S
C447 H463 0.960 . S
H448 C432 0.931 . S
H449 C437 0.929 . S
H450 C438 0.960 . S
H451 C438 0.962 . S
H452 C438 0.960 . S
H453 C439 0.961 . S
H454 C439 0.961 . S
H455 C439 0.961 . S
H456 C440 0.931 . S
H457 C445 0.930 . S
H458 C446 0.956 . S
H459 C446 0.961 . S
H460 C446 0.961 . S
H461 C447 0.958 . S
H462 C447 0.961 . S
H463 C447 0.960 . S
C464 C465 1.391 . S
C464 C466 1.394 . S
C464 H480 0.931 . S
C465 C464 1.391 . S
C465 C469 1.376 . S
C466 C464 1.394 . S
C466 C467 1.369 . S
C466 C470 1.531 . S
C467 C466 1.369 . S
C467 C468 1.410 . S
C467 C475 1.503 . S
C468 C467 1.410 . S
C468 C469 1.392 . S
C468 C471 1.511 . S
C469 C465 1.376 . S
C469 C468 1.392 . S
C469 H481 0.929 . S
C470 C466 1.531 . S
C470 H482 0.960 . S
C470 H483 0.962 . S
C470 H484 0.960 . S
C471 C468 1.511 . S
C471 H485 0.961 . S
C471 H486 0.961 . S
C471 H487 0.961 . S
C472 C473 1.370 . S
C472 C474 1.363 . S
C472 H488 0.931 . S
C473 C472 1.370 . S
C473 C477 1.408 . S
C474 C472 1.363 . S
C474 C475 1.370 . S
C474 C478 1.524 . S
C475 C467 1.503 . S
C475 C474 1.370 . S
C475 C476 1.403 . S
C476 C475 1.403 . S
C476 C477 1.404 . S
C476 C479 1.539 . S
C477 C473 1.408 . S
C477 C476 1.404 . S
C477 H489 0.930 . S
C478 C474 1.524 . S
C478 H490 0.956 . S
C478 H491 0.961 . S
C478 H492 0.961 . S
C479 C476 1.539 . S
C479 H493 0.958 . S
C479 H494 0.961 . S
C479 H495 0.960 . S
H480 C464 0.931 . S
H481 C469 0.929 . S
H482 C470 0.960 . S
H483 C470 0.962 . S
H484 C470 0.960 . S
H485 C471 0.961 . S
H486 C471 0.961 . S
H487 C471 0.961 . S
H488 C472 0.931 . S
H489 C477 0.930 . S
H490 C478 0.956 . S
H491 C478 0.961 . S
H492 C478 0.961 . S
H493 C479 0.958 . S
H494 C479 0.961 . S
H495 C479 0.960 . S
C496 C497 1.391 . S
C496 C498 1.394 . S
C496 H512 0.931 . S
C497 C496 1.391 . S
C497 C501 1.376 . S
C498 C496 1.394 . S
C498 C499 1.369 . S
C498 C502 1.531 . S
C499 C498 1.369 . S
C499 C500 1.410 . S
C499 C507 1.503 . S
C500 C499 1.410 . S
C500 C501 1.392 . S
C500 C503 1.511 . S
C501 C497 1.376 . S
C501 C500 1.392 . S
C501 H513 0.929 . S
C502 C498 1.531 . S
C502 H514 0.960 . S
C502 H515 0.962 . S
C502 H516 0.960 . S
C503 C500 1.511 . S
C503 H517 0.961 . S
C503 H518 0.961 . S
C503 H519 0.961 . S
C504 C505 1.370 . S
C504 C506 1.363 . S
C504 H520 0.931 . S
C505 C504 1.370 . S
C505 C509 1.408 . S
C506 C504 1.363 . S
C506 C507 1.370 . S
C506 C510 1.524 . S
C507 C499 1.503 . S
C507 C506 1.370 . S
C507 C508 1.403 . S
C508 C507 1.403 . S
C508 C509 1.404 . S
C508 C511 1.539 . S
C509 C505 1.408 . S
C509 C508 1.404 . S
C509 H521 0.930 . S
C510 C506 1.524 . S
C510 H522 0.956 . S
C510 H523 0.961 . S
C510 H524 0.961 . S
C511 C508 1.539 . S
C511 H525 0.958 . S
C511 H526 0.961 . S
C511 H527 0.960 . S
H512 C496 0.931 . S
H513 C501 0.929 . S
H514 C502 0.960 . S
H515 C502 0.962 . S
H516 C502 0.960 . S
H517 C503 0.961 . S
H518 C503 0.961 . S
H519 C503 0.961 . S
H520 C504 0.931 . S
H521 C509 0.930 . S
H522 C510 0.956 . S
H523 C510 0.961 . S
H524 C510 0.961 . S
H525 C511 0.958 . S
H526 C511 0.961 . S
H527 C511 0.960 . S
C528 C529 1.391 . S
C528 C530 1.394 . S
C528 H544 0.931 . S
C529 C528 1.391 . S
C529 C533 1.376 . S
C530 C528 1.394 . S
C530 C531 1.369 . S
C530 C534 1.531 . S
C531 C530 1.369 . S
C531 C532 1.410 . S
C531 C539 1.503 . S
C532 C531 1.410 . S
C532 C533 1.392 . S
C532 C535 1.511 . S
C533 C529 1.376 . S
C533 C532 1.392 . S
C533 H545 0.929 . S
C534 C530 1.531 . S
C534 H546 0.960 . S
C534 H547 0.962 . S
C534 H548 0.960 . S
C535 C532 1.511 . S
C535 H549 0.961 . S
C535 H550 0.961 . S
C535 H551 0.961 . S
C536 C537 1.370 . S
C536 C538 1.363 . S
C536 H552 0.931 . S
C537 C536 1.370 . S
C537 C541 1.408 . S
C538 C536 1.363 . S
C538 C539 1.370 . S
C538 C542 1.524 . S
C539 C531 1.503 . S
C539 C538 1.370 . S
C539 C540 1.403 . S
C540 C539 1.403 . S
C540 C541 1.404 . S
C540 C543 1.539 . S
C541 C537 1.408 . S
C541 C540 1.404 . S
C541 H553 0.930 . S
C542 C538 1.524 . S
C542 H554 0.956 . S
C542 H555 0.961 . S
C542 H556 0.961 . S
C543 C540 1.539 . S
C543 H557 0.958 . S
C543 H558 0.961 . S
C543 H559 0.960 . S
H544 C528 0.931 . S
H545 C533 0.929 . S
H546 C534 0.960 . S
H547 C534 0.962 . S
H548 C534 0.960 . S
H549 C535 0.961 . S
H550 C535 0.961 . S
H551 C535 0.961 . S
H552 C536 0.931 . S
H553 C541 0.930 . S
H554 C542 0.956 . S
H555 C542 0.961 . S
H556 C542 0.961 . S
H557 C543 0.958 . S
H558 C543 0.961 . S
H559 C543 0.960 . S
C560 C561 1.391 . S
C560 C562 1.394 . S
C560 H576 0.931 . S
C561 C560 1.391 . S
C561 C565 1.376 . S
C562 C560 1.394 . S
C562 C563 1.369 . S
C562 C566 1.531 . S
C563 C562 1.369 . S
C563 C564 1.410 . S
C563 C571 1.503 . S
C564 C563 1.410 . S
C564 C565 1.392 . S
C564 C567 1.511 . S
C565 C561 1.376 . S
C565 C564 1.392 . S
C565 H577 0.929 . S
C566 C562 1.531 . S
C566 H578 0.960 . S
C566 H579 0.962 . S
C566 H580 0.960 . S
C567 C564 1.511 . S
C567 H581 0.961 . S
C567 H582 0.961 . S
C567 H583 0.961 . S
C568 C569 1.370 . S
C568 C570 1.363 . S
C568 H584 0.931 . S
C569 C568 1.370 . S
C569 C573 1.408 . S
C570 C568 1.363 . S
C570 C571 1.370 . S
C570 C574 1.524 . S
C571 C563 1.503 . S
C571 C570 1.370 . S
C571 C572 1.403 . S
C572 C571 1.403 . S
C572 C573 1.404 . S
C572 C575 1.539 . S
C573 C569 1.408 . S
C573 C572 1.404 . S
C573 H585 0.930 . S
C574 C570 1.524 . S
C574 H586 0.956 . S
C574 H587 0.961 . S
C574 H588 0.961 . S
C575 C572 1.539 . S
C575 H589 0.958 . S
C575 H590 0.961 . S
C575 H591 0.960 . S
H576 C560 0.931 . S
H577 C565 0.929 . S
H578 C566 0.960 . S
H579 C566 0.962 . S
H580 C566 0.960 . S
H581 C567 0.961 . S
H582 C567 0.961 . S
H583 C567 0.961 . S
H584 C568 0.931 . S
H585 C573 0.930 . S
H586 C574 0.956 . S
H587 C574 0.961 . S
H588 C574 0.961 . S
H589 C575 0.958 . S
H590 C575 0.961 . S
H591 C575 0.960 . S
C592 C593 1.391 . S
C592 C594 1.394 . S
C592 H608 0.931 . S
C593 C592 1.391 . S
C593 C597 1.376 . S
C594 C592 1.394 . S
C594 C595 1.369 . S
C594 C598 1.531 . S
C595 C594 1.369 . S
C595 C596 1.410 . S
C595 C603 1.503 . S
C596 C595 1.410 . S
C596 C597 1.392 . S
C596 C599 1.511 . S
C597 C593 1.376 . S
C597 C596 1.392 . S
C597 H609 0.929 . S
C598 C594 1.531 . S
C598 H610 0.960 . S
C598 H611 0.962 . S
C598 H612 0.960 . S
C599 C596 1.511 . S
C599 H613 0.961 . S
C599 H614 0.961 . S
C599 H615 0.961 . S
C600 C601 1.370 . S
C600 C602 1.363 . S
C600 H616 0.931 . S
C601 C600 1.370 . S
C601 C605 1.408 . S
C602 C600 1.363 . S
C602 C603 1.370 . S
C602 C606 1.524 . S
C603 C595 1.503 . S
C603 C602 1.370 . S
C603 C604 1.403 . S
C604 C603 1.403 . S
C604 C605 1.404 . S
C604 C607 1.539 . S
C605 C601 1.408 . S
C605 C604 1.404 . S
C605 H617 0.930 . S
C606 C602 1.524 . S
C606 H618 0.956 . S
C606 H619 0.961 . S
C606 H620 0.961 . S
C607 C604 1.539 . S
C607 H621 0.958 . S
C607 H622 0.961 . S
C607 H623 0.960 . S
H608 C592 0.931 . S
H609 C597 0.929 . S
H610 C598 0.960 . S
H611 C598 0.962 . S
H612 C598 0.960 . S
H613 C599 0.961 . S
H614 C599 0.961 . S
H615 C599 0.961 . S
H616 C600 0.931 . S
H617 C605 0.930 . S
H618 C606 0.956 . S
H619 C606 0.961 . S
H620 C606 0.961 . S
H621 C607 0.958 . S
H622 C607 0.961 . S
H623 C607 0.960 . S
C624 C625 1.391 . S
C624 C626 1.394 . S
C624 H640 0.931 . S
C625 C624 1.391 . S
C625 C629 1.376 . S
C626 C624 1.394 . S
C626 C627 1.369 . S
C626 C630 1.531 . S
C627 C626 1.369 . S
C627 C628 1.410 . S
C627 C635 1.503 . S
C628 C627 1.410 . S
C628 C629 1.392 . S
C628 C631 1.511 . S
C629 C625 1.376 . S
C629 C628 1.392 . S
C629 H641 0.929 . S
C630 C626 1.531 . S
C630 H642 0.960 . S
C630 H643 0.962 . S
C630 H644 0.960 . S
C631 C628 1.511 . S
C631 H645 0.961 . S
C631 H646 0.961 . S
C631 H647 0.961 . S
C632 C633 1.370 . S
C632 C634 1.363 . S
C632 H648 0.931 . S
C633 C632 1.370 . S
C633 C637 1.408 . S
C634 C632 1.363 . S
C634 C635 1.370 . S
C634 C638 1.524 . S
C635 C627 1.503 . S
C635 C634 1.370 . S
C635 C636 1.403 . S
C636 C635 1.403 . S
C636 C637 1.404 . S
C636 C639 1.539 . S
C637 C633 1.408 . S
C637 C636 1.404 . S
C637 H649 0.930 . S
C638 C634 1.524 . S
C638 H650 0.956 . S
C638 H651 0.961 . S
C638 H652 0.961 . S
C639 C636 1.539 . S
C639 H653 0.958 . S
C639 H654 0.961 . S
C639 H655 0.960 . S
H640 C624 0.931 . S
H641 C629 0.929 . S
H642 C630 0.960 . S
H643 C630 0.962 . S
H644 C630 0.960 . S
H645 C631 0.961 . S
H646 C631 0.961 . S
H647 C631 0.961 . S
H648 C632 0.931 . S
H649 C637 0.930 . S
H650 C638 0.956 . S
H651 C638 0.961 . S
H652 C638 0.961 . S
H653 C639 0.958 . S
H654 C639 0.961 . S
H655 C639 0.960 . S
C656 C657 1.391 . S
C656 C658 1.394 . S
C656 H672 0.931 . S
C657 C656 1.391 . S
C657 C661 1.376 . S
C658 C656 1.394 . S
C658 C659 1.369 . S
C658 C662 1.531 . S
C659 C658 1.369 . S
C659 C660 1.410 . S
C659 C667 1.503 . S
C660 C659 1.410 . S
C660 C661 1.392 . S
C660 C663 1.511 . S
C661 C657 1.376 . S
C661 C660 1.392 . S
C661 H673 0.929 . S
C662 C658 1.531 . S
C662 H674 0.960 . S
C662 H675 0.962 . S
C662 H676 0.960 . S
C663 C660 1.511 . S
C663 H677 0.961 . S
C663 H678 0.961 . S
C663 H679 0.961 . S
C664 C665 1.370 . S
C664 C666 1.363 1_554 S
C664 H680 0.931 . S
C665 C664 1.370 . S
C665 C669 1.408 . S
C666 C664 1.363 1_556 S
C666 C667 1.370 . S
C666 C670 1.524 . S
C667 C659 1.503 . S
C667 C666 1.370 . S
C667 C668 1.403 . S
C668 C667 1.403 . S
C668 C669 1.404 1_556 S
C668 C671 1.539 . S
C669 C665 1.408 . S
C669 C668 1.404 1_554 S
C669 H681 0.930 . S
C670 C666 1.524 . S
C670 H682 0.956 . S
C670 H683 0.961 . S
C670 H684 0.961 . S
C671 C668 1.539 . S
C671 H685 0.958 . S
C671 H686 0.961 . S
C671 H687 0.960 . S
H672 C656 0.931 . S
H673 C661 0.929 . S
H674 C662 0.960 . S
H675 C662 0.962 . S
H676 C662 0.960 . S
H677 C663 0.961 . S
H678 C663 0.961 . S
H679 C663 0.961 . S
H680 C664 0.931 . S
H681 C669 0.930 . S
H682 C670 0.956 . S
H683 C670 0.961 . S
H684 C670 0.961 . S
H685 C671 0.958 . S
H686 C671 0.961 . S
H687 C671 0.960 . S
C688 C689 1.391 . S
C688 C690 1.394 . S
C688 H704 0.931 . S
C689 C688 1.391 . S
C689 C693 1.376 . S
C690 C688 1.394 . S
C690 C691 1.369 . S
C690 C694 1.531 . S
C691 C690 1.369 . S
C691 C692 1.410 . S
C691 C699 1.503 . S
C692 C691 1.410 . S
C692 C693 1.392 . S
C692 C695 1.511 . S
C693 C689 1.376 . S
C693 C692 1.392 . S
C693 H705 0.929 . S
C694 C690 1.531 . S
C694 H706 0.960 . S
C694 H707 0.962 . S
C694 H708 0.960 . S
C695 C692 1.511 . S
C695 H709 0.961 . S
C695 H710 0.961 . S
C695 H711 0.961 . S
C696 C697 1.370 . S
C696 C698 1.363 . S
C696 H712 0.931 . S
C697 C696 1.370 . S
C697 C701 1.408 . S
C698 C696 1.363 . S
C698 C699 1.370 . S
C698 C702 1.524 . S
C699 C691 1.503 . S
C699 C698 1.370 . S
C699 C700 1.403 . S
C700 C699 1.403 . S
C700 C701 1.404 . S
C700 C703 1.539 . S
C701 C697 1.408 . S
C701 C700 1.404 . S
C701 H713 0.930 . S
C702 C698 1.524 . S
C702 H714 0.956 . S
C702 H715 0.961 . S
C702 H716 0.961 . S
C703 C700 1.539 . S
C703 H717 0.958 . S
C703 H718 0.961 . S
C703 H719 0.960 . S
H704 C688 0.931 . S
H705 C693 0.929 . S
H706 C694 0.960 . S
H707 C694 0.962 . S
H708 C694 0.960 . S
H709 C695 0.961 . S
H710 C695 0.961 . S
H711 C695 0.961 . S
H712 C696 0.931 . S
H713 C701 0.930 . S
H714 C702 0.956 . S
H715 C702 0.961 . S
H716 C702 0.961 . S
H717 C703 0.958 . S
H718 C703 0.961 . S
H719 C703 0.960 . S
C720 C721 1.391 . S
C720 C722 1.394 1_554 S
C720 H736 0.931 . S
C721 C720 1.391 . S
C721 C725 1.376 . S
C722 C720 1.394 1_556 S
C722 C723 1.369 . S
C722 C726 1.531 . S
C723 C722 1.369 . S
C723 C724 1.410 . S
C723 C731 1.503 . S
C724 C723 1.410 . S
C724 C725 1.392 1_556 S
C724 C727 1.511 . S
C725 C721 1.376 . S
C725 C724 1.392 1_554 S
C725 H737 0.929 . S
C726 C722 1.531 . S
C726 H738 0.960 . S
C726 H739 0.962 . S
C726 H740 0.960 . S
C727 C724 1.511 . S
C727 H741 0.961 . S
C727 H742 0.961 . S
C727 H743 0.961 . S
C728 C729 1.370 . S
C728 C730 1.363 . S
C728 H744 0.931 . S
C729 C728 1.370 . S
C729 C733 1.408 . S
C730 C728 1.363 . S
C730 C731 1.370 . S
C730 C734 1.524 . S
C731 C723 1.503 . S
C731 C730 1.370 . S
C731 C732 1.403 . S
C732 C731 1.403 . S
C732 C733 1.404 . S
C732 C735 1.539 . S
C733 C729 1.408 . S
C733 C732 1.404 . S
C733 H745 0.930 . S
C734 C730 1.524 . S
C734 H746 0.956 . S
C734 H747 0.961 . S
C734 H748 0.961 . S
C735 C732 1.539 . S
C735 H749 0.958 . S
C735 H750 0.961 . S
C735 H751 0.960 . S
H736 C720 0.931 . S
H737 C725 0.929 . S
H738 C726 0.960 . S
H739 C726 0.962 . S
H740 C726 0.960 . S
H741 C727 0.961 . S
H742 C727 0.961 . S
H743 C727 0.961 . S
H744 C728 0.931 . S
H745 C733 0.930 . S
H746 C734 0.956 . S
H747 C734 0.961 . S
H748 C734 0.961 . S
H749 C735 0.958 . S
H750 C735 0.961 . S
H751 C735 0.960 . S
C752 C753 1.391 . S
C752 C754 1.394 . S
C752 H768 0.931 . S
C753 C752 1.391 . S
C753 C757 1.376 . S
C754 C752 1.394 . S
C754 C755 1.369 . S
C754 C758 1.531 . S
C755 C754 1.369 . S
C755 C756 1.410 . S
C755 C763 1.503 . S
C756 C755 1.410 . S
C756 C757 1.392 . S
C756 C759 1.511 . S
C757 C753 1.376 . S
C757 C756 1.392 . S
C757 H769 0.929 . S
C758 C754 1.531 . S
C758 H770 0.960 . S
C758 H771 0.962 . S
C758 H772 0.960 . S
C759 C756 1.511 . S
C759 H773 0.961 . S
C759 H774 0.961 . S
C759 H775 0.961 . S
C760 C761 1.370 . S
C760 C762 1.363 . S
C760 H776 0.931 . S
C761 C760 1.370 . S
C761 C765 1.408 . S
C762 C760 1.363 . S
C762 C763 1.370 . S
C762 C766 1.524 . S
C763 C755 1.503 . S
C763 C762 1.370 . S
C763 C764 1.403 . S
C764 C763 1.403 . S
C764 C765 1.404 . S
C764 C767 1.539 . S
C765 C761 1.408 . S
C765 C764 1.404 . S
C765 H777 0.930 . S
C766 C762 1.524 . S
C766 H778 0.956 . S
C766 H779 0.961 . S
C766 H780 0.961 . S
C767 C764 1.539 . S
C767 H781 0.958 . S
C767 H782 0.961 . S
C767 H783 0.960 . S
H768 C752 0.931 . S
H769 C757 0.929 . S
H770 C758 0.960 . S
H771 C758 0.962 . S
H772 C758 0.960 . S
H773 C759 0.961 . S
H774 C759 0.961 . S
H775 C759 0.961 . S
H776 C760 0.931 . S
H777 C765 0.930 . S
H778 C766 0.956 . S
H779 C766 0.961 . S
H780 C766 0.961 . S
H781 C767 0.958 . S
H782 C767 0.961 . S
H783 C767 0.960 . S
C784 C785 1.391 . S
C784 C786 1.394 . S
C784 H800 0.931 . S
C785 C784 1.391 . S
C785 C789 1.376 . S
C786 C784 1.394 . S
C786 C787 1.369 . S
C786 C790 1.531 . S
C787 C786 1.369 . S
C787 C788 1.410 . S
C787 C795 1.503 . S
C788 C787 1.410 . S
C788 C789 1.392 . S
C788 C791 1.511 . S
C789 C785 1.376 . S
C789 C788 1.392 . S
C789 H801 0.929 . S
C790 C786 1.531 . S
C790 H802 0.960 . S
C790 H803 0.962 . S
C790 H804 0.960 . S
C791 C788 1.511 . S
C791 H805 0.961 . S
C791 H806 0.961 . S
C791 H807 0.961 . S
C792 C793 1.370 . S
C792 C794 1.363 . S
C792 H808 0.931 . S
C793 C792 1.370 . S
C793 C797 1.408 . S
C794 C792 1.363 . S
C794 C795 1.370 . S
C794 C798 1.524 . S
C795 C787 1.503 . S
C795 C794 1.370 . S
C795 C796 1.403 . S
C796 C795 1.403 . S
C796 C797 1.404 . S
C796 C799 1.539 . S
C797 C793 1.408 . S
C797 C796 1.404 . S
C797 H809 0.930 . S
C798 C794 1.524 . S
C798 H810 0.956 . S
C798 H811 0.961 . S
C798 H812 0.961 . S
C799 C796 1.539 . S
C799 H813 0.958 . S
C799 H814 0.961 . S
C799 H815 0.960 . S
H800 C784 0.931 . S
H801 C789 0.929 . S
H802 C790 0.960 . S
H803 C790 0.962 . S
H804 C790 0.960 . S
H805 C791 0.961 . S
H806 C791 0.961 . S
H807 C791 0.961 . S
H808 C792 0.931 . S
H809 C797 0.930 . S
H810 C798 0.956 . S
H811 C798 0.961 . S
H812 C798 0.961 . S
H813 C799 0.958 . S
H814 C799 0.961 . S
H815 C799 0.960 . S
C816 C817 1.391 . S
C816 C818 1.394 1_556 S
C816 H832 0.931 . S
C817 C816 1.391 . S
C817 C821 1.376 . S
C818 C816 1.394 1_554 S
C818 C819 1.369 . S
C818 C822 1.531 . S
C819 C818 1.369 . S
C819 C820 1.410 . S
C819 C827 1.503 . S
C820 C819 1.410 . S
C820 C821 1.392 1_554 S
C820 C823 1.511 . S
C821 C817 1.376 . S
C821 C820 1.392 1_556 S
C821 H833 0.929 . S
C822 C818 1.531 . S
C822 H834 0.960 . S
C822 H835 0.962 . S
C822 H836 0.960 . S
C823 C820 1.511 . S
C823 H837 0.961 . S
C823 H838 0.961 . S
C823 H839 0.961 . S
C824 C825 1.370 . S
C824 C826 1.363 . S
C824 H840 0.931 . S
C825 C824 1.370 . S
C825 C829 1.408 . S
C826 C824 1.363 . S
C826 C827 1.370 . S
C826 C830 1.524 . S
C827 C819 1.503 . S
C827 C826 1.370 . S
C827 C828 1.403 . S
C828 C827 1.403 . S
C828 C829 1.404 . S
C828 C831 1.539 . S
C829 C825 1.408 . S
C829 C828 1.404 . S
C829 H841 0.930 . S
C830 C826 1.524 . S
C830 H842 0.956 . S
C830 H843 0.961 . S
C830 H844 0.961 . S
C831 C828 1.539 . S
C831 H845 0.958 . S
C831 H846 0.961 . S
C831 H847 0.960 . S
H832 C816 0.931 . S
H833 C821 0.929 . S
H834 C822 0.960 . S
H835 C822 0.962 . S
H836 C822 0.960 . S
H837 C823 0.961 . S
H838 C823 0.961 . S
H839 C823 0.961 . S
H840 C824 0.931 . S
H841 C829 0.930 . S
H842 C830 0.956 . S
H843 C830 0.961 . S
H844 C830 0.961 . S
H845 C831 0.958 . S
H846 C831 0.961 . S
H847 C831 0.960 . S
C848 C849 1.391 . S
C848 C850 1.394 . S
C848 H864 0.931 . S
C849 C848 1.391 . S
C849 C853 1.376 . S
C850 C848 1.394 . S
C850 C851 1.369 . S
C850 C854 1.531 . S
C851 C850 1.369 . S
C851 C852 1.410 . S
C851 C859 1.503 . S
C852 C851 1.410 . S
C852 C853 1.392 . S
C852 C855 1.511 . S
C853 C849 1.376 . S
C853 C852 1.392 . S
C853 H865 0.929 . S
C854 C850 1.531 . S
C854 H866 0.960 . S
C854 H867 0.962 . S
C854 H868 0.960 . S
C855 C852 1.511 . S
C855 H869 0.961 . S
C855 H870 0.961 . S
C855 H871 0.961 . S
C856 C857 1.370 . S
C856 C858 1.363 . S
C856 H872 0.931 . S
C857 C856 1.370 . S
C857 C861 1.408 . S
C858 C856 1.363 . S
C858 C859 1.370 . S
C858 C862 1.524 . S
C859 C851 1.503 . S
C859 C858 1.370 . S
C859 C860 1.403 . S
C860 C859 1.403 . S
C860 C861 1.404 . S
C860 C863 1.539 . S
C861 C857 1.408 . S
C861 C860 1.404 . S
C861 H873 0.930 . S
C862 C858 1.524 . S
C862 H874 0.956 . S
C862 H875 0.961 . S
C862 H876 0.961 . S
C863 C860 1.539 . S
C863 H877 0.958 . S
C863 H878 0.961 . S
C863 H879 0.960 . S
H864 C848 0.931 . S
H865 C853 0.929 . S
H866 C854 0.960 . S
H867 C854 0.962 . S
H868 C854 0.960 . S
H869 C855 0.961 . S
H870 C855 0.961 . S
H871 C855 0.961 . S
H872 C856 0.931 . S
H873 C861 0.930 . S
H874 C862 0.956 . S
H875 C862 0.961 . S
H876 C862 0.961 . S
H877 C863 0.958 . S
H878 C863 0.961 . S
H879 C863 0.960 . S
C880 C881 1.391 . S
C880 C882 1.394 . S
C880 H896 0.931 . S
C881 C880 1.391 . S
C881 C885 1.376 . S
C882 C880 1.394 . S
C882 C883 1.369 . S
C882 C886 1.531 . S
C883 C882 1.369 . S
C883 C884 1.410 . S
C883 C891 1.503 . S
C884 C883 1.410 . S
C884 C885 1.392 . S
C884 C887 1.511 . S
C885 C881 1.376 . S
C885 C884 1.392 . S
C885 H897 0.929 . S
C886 C882 1.531 . S
C886 H898 0.960 . S
C886 H899 0.962 . S
C886 H900 0.960 . S
C887 C884 1.511 . S
C887 H901 0.961 . S
C887 H902 0.961 . S
C887 H903 0.961 . S
C888 C889 1.370 . S
C888 C890 1.363 1_556 S
C888 H904 0.931 . S
C889 C888 1.370 . S
C889 C893 1.408 . S
C890 C888 1.363 1_554 S
C890 C891 1.370 . S
C890 C894 1.524 . S
C891 C883 1.503 . S
C891 C890 1.370 . S
C891 C892 1.403 . S
C892 C891 1.403 . S
C892 C893 1.404 1_554 S
C892 C895 1.539 . S
C893 C889 1.408 . S
C893 C892 1.404 1_556 S
C893 H905 0.930 . S
C894 C890 1.524 . S
C894 H906 0.956 . S
C894 H907 0.961 . S
C894 H908 0.961 . S
C895 C892 1.539 . S
C895 H909 0.958 . S
C895 H910 0.961 . S
C895 H911 0.960 . S
H896 C880 0.931 . S
H897 C885 0.929 . S
H898 C886 0.960 . S
H899 C886 0.962 . S
H900 C886 0.960 . S
H901 C887 0.961 . S
H902 C887 0.961 . S
H903 C887 0.961 . S
H904 C888 0.931 . S
H905 C893 0.930 . S
H906 C894 0.956 . S
H907 C894 0.961 . S
H908 C894 0.961 . S
H909 C895 0.958 . S
H910 C895 0.961 . S
H911 C895 0.960 . S
C273 C258 1.563 . S
C281 C20 1.543 . S
C305 C156 1.546 . S
C313 C54 1.554 . S
C337 C88 1.532 . S
C345 C190 1.541 . S
C369 C224 1.534 . S
C377 C122 1.540 . S
C401 C33 1.189 . S
C409 C169 1.198 . S
C433 C203 1.174 . S
C441 C67 1.187 . S
C465 C237 1.183 . S
C473 C101 1.197 . S
C497 C271 1.174 . S
C505 C135 1.192 . S
C529 C240 1.689 . S
C537 C36 1.675 . S
C561 C70 1.684 . S
C569 C138 1.676 . S
C593 C104 1.687 . S
C601 C172 1.676 . S
C625 C206 1.673 . S
C633 C2 1.682 . S
C657 C9 1.065 . S
C665 C5 1.170 . S
C689 C39 1.139 . S
C697 C43 1.134 . S
C721 C73 1.153 . S
C729 C77 1.130 . S
C753 C111 1.136 . S
C761 C107 1.155 . S
C785 C141 1.157 . S
C793 C145 1.128 . S
C817 C175 1.138 . S
C825 C179 1.133 . S
C849 C209 1.187 . S
C857 C213 1.088 . S
C881 C247 1.145 . S
C889 C243 1.155 . S
