# Generated by pormake.
# Topology umh, (4)-cn, num edge types: 1
# Building blocks:
#     Node 0, Type 0, BuildingBlock: GALJAG_clean_sbu_0, # of connection points: 4
#     Node 1, Type 0, BuildingBlock: GALJAG_clean_sbu_0, # of connection points: 4
#     Node 2, Type 0, BuildingBlock: GALJAG_clean_sbu_0, # of connection points: 4
#     Node 3, Type 0, BuildingBlock: GALJAG_clean_sbu_0, # of connection points: 4
#     Node 4, Type 0, BuildingBlock: GALJAG_clean_sbu_0, # of connection points: 4
#     Node 5, Type 0, BuildingBlock: GALJAG_clean_sbu_0, # of connection points: 4
#     Node 6, Type 0, BuildingBlock: GALJAG_clean_sbu_0, # of connection points: 4
#     Node 7, Type 0, BuildingBlock: GALJAG_clean_sbu_0, # of connection points: 4
#     Node 8, Type 0, BuildingBlock: GALJAG_clean_sbu_0, # of connection points: 4
#     Node 9, Type 0, BuildingBlock: GALJAG_clean_sbu_0, # of connection points: 4
#     Node 10, Type 0, BuildingBlock: GALJAG_clean_sbu_0, # of connection points: 4
#     Node 11, Type 0, BuildingBlock: GALJAG_clean_sbu_0, # of connection points: 4
#     Node 12, Type 0, BuildingBlock: GALJAG_clean_sbu_0, # of connection points: 4
#     Node 13, Type 0, BuildingBlock: GALJAG_clean_sbu_0, # of connection points: 4
#     Node 14, Type 0, BuildingBlock: GALJAG_clean_sbu_0, # of connection points: 4
#     Node 15, Type 0, BuildingBlock: GALJAG_clean_sbu_0, # of connection points: 4
#     Edge 16, Type (0, 0), BuildingBlock: KIFKEQ_clean_linker_1, # of connection points: 2
#     Edge 17, Type (0, 0), BuildingBlock: KIFKEQ_clean_linker_1, # of connection points: 2
#     Edge 18, Type (0, 0), BuildingBlock: KIFKEQ_clean_linker_1, # of connection points: 2
#     Edge 19, Type (0, 0), BuildingBlock: KIFKEQ_clean_linker_1, # of connection points: 2
#     Edge 20, Type (0, 0), BuildingBlock: KIFKEQ_clean_linker_1, # of connection points: 2
#     Edge 21, Type (0, 0), BuildingBlock: KIFKEQ_clean_linker_1, # of connection points: 2
#     Edge 22, Type (0, 0), BuildingBlock: KIFKEQ_clean_linker_1, # of connection points: 2
#     Edge 23, Type (0, 0), BuildingBlock: KIFKEQ_clean_linker_1, # of connection points: 2
#     Edge 24, Type (0, 0), BuildingBlock: KIFKEQ_clean_linker_1, # of connection points: 2
#     Edge 25, Type (0, 0), BuildingBlock: KIFKEQ_clean_linker_1, # of connection points: 2
#     Edge 26, Type (0, 0), BuildingBlock: KIFKEQ_clean_linker_1, # of connection points: 2
#     Edge 27, Type (0, 0), BuildingBlock: KIFKEQ_clean_linker_1, # of connection points: 2
#     Edge 28, Type (0, 0), BuildingBlock: KIFKEQ_clean_linker_1, # of connection points: 2
#     Edge 29, Type (0, 0), BuildingBlock: KIFKEQ_clean_linker_1, # of connection points: 2
#     Edge 30, Type (0, 0), BuildingBlock: KIFKEQ_clean_linker_1, # of connection points: 2
#     Edge 31, Type (0, 0), BuildingBlock: KIFKEQ_clean_linker_1, # of connection points: 2
#     Edge 32, Type (0, 0), BuildingBlock: KIFKEQ_clean_linker_1, # of connection points: 2
#     Edge 33, Type (0, 0), BuildingBlock: KIFKEQ_clean_linker_1, # of connection points: 2
#     Edge 34, Type (0, 0), BuildingBlock: KIFKEQ_clean_linker_1, # of connection points: 2
#     Edge 35, Type (0, 0), BuildingBlock: KIFKEQ_clean_linker_1, # of connection points: 2
#     Edge 36, Type (0, 0), BuildingBlock: KIFKEQ_clean_linker_1, # of connection points: 2
#     Edge 37, Type (0, 0), BuildingBlock: KIFKEQ_clean_linker_1, # of connection points: 2
#     Edge 38, Type (0, 0), BuildingBlock: KIFKEQ_clean_linker_1, # of connection points: 2
#     Edge 39, Type (0, 0), BuildingBlock: KIFKEQ_clean_linker_1, # of connection points: 2
#     Edge 40, Type (0, 0), BuildingBlock: KIFKEQ_clean_linker_1, # of connection points: 2
#     Edge 41, Type (0, 0), BuildingBlock: KIFKEQ_clean_linker_1, # of connection points: 2
#     Edge 42, Type (0, 0), BuildingBlock: KIFKEQ_clean_linker_1, # of connection points: 2
#     Edge 43, Type (0, 0), BuildingBlock: KIFKEQ_clean_linker_1, # of connection points: 2
#     Edge 44, Type (0, 0), BuildingBlock: KIFKEQ_clean_linker_1, # of connection points: 2
#     Edge 45, Type (0, 0), BuildingBlock: KIFKEQ_clean_linker_1, # of connection points: 2
#     Edge 46, Type (0, 0), BuildingBlock: KIFKEQ_clean_linker_1, # of connection points: 2
#     Edge 47, Type (0, 0), BuildingBlock: KIFKEQ_clean_linker_1, # of connection points: 2
# Relax obj value: 0.114
# Max RMSD: 0.280
# Mean RMSD: 0.279
data_MOF--net-umh--node1-GALJAG_clean_sbu_0--edge1-KIFKEQ_clean_linker_1
_symmetry_space_group_name_H-M    P1
_symmetry_Int_Tables_number       1
_symmetry_cell_setting            triclinic
loop_
_symmetry_equiv_pos_as_xyz
'x, y, z'
_cell_length_a     41.637342
_cell_length_b     41.692421
_cell_length_c     53.137657
_cell_angle_alpha  89.76625
_cell_angle_beta   90.317909
_cell_angle_gamma 90.024858
loop_
_atom_site_label
_atom_site_type_symbol
_atom_site_fract_x
_atom_site_fract_y
_atom_site_fract_z
_atom_type_partial_charge
In0 In 0.34352 0.08393 0.15987 0.0
O1 O 0.33199 0.066 0.11989 0.0
O2 O 0.36811 0.10181 0.12481 0.0
C3 C 0.30983 0.05449 0.19609 0.0
C4 C 0.40008 0.05896 0.17336 0.0
C5 C 0.31027 0.13855 0.16401 0.0
O6 O 0.30611 0.04709 0.17306 0.0
O7 O 0.33056 0.076 0.20032 0.0
O8 O 0.33894 0.13637 0.17208 0.0
O9 O 0.2993 0.11363 0.15366 0.0
C10 C 0.35242 0.08448 0.10969 0.0
O11 O 0.39563 0.08906 0.17316 0.0
O12 O 0.37635 0.04208 0.16661 0.0
In13 In 0.38582 0.34076 0.65243 0.0
O14 O 0.39136 0.39244 0.66607 0.0
O15 O 0.43119 0.36865 0.64877 0.0
C16 C 0.3303 0.31233 0.66309 0.0
C17 C 0.37827 0.34617 0.60237 0.0
C18 C 0.41562 0.30823 0.68927 0.0
O19 O 0.33358 0.34244 0.6657 0.0
O20 O 0.35433 0.29762 0.6545 0.0
O21 O 0.41923 0.30068 0.66628 0.0
O22 O 0.39806 0.33247 0.69309 0.0
C23 C 0.42049 0.39375 0.6591 0.0
O24 O 0.39674 0.32514 0.612 0.0
O25 O 0.36385 0.36374 0.618 0.0
In26 In 0.14262 0.39118 0.14651 0.0
O27 O 0.09204 0.39222 0.16325 0.0
O28 O 0.11025 0.43359 0.14389 0.0
C29 C 0.17497 0.33723 0.15634 0.0
C30 C 0.13182 0.38289 0.09705 0.0
C31 C 0.17796 0.42562 0.17897 0.0
O32 O 0.14592 0.34042 0.1631 0.0
O33 O 0.18666 0.36077 0.14451 0.0
O34 O 0.18472 0.42477 0.1557 0.0
O35 O 0.15335 0.40991 0.18534 0.0
C36 C 0.08735 0.42091 0.15593 0.0
O37 O 0.14999 0.40508 0.10517 0.0
O38 O 0.11973 0.36516 0.11386 0.0
In39 In 0.08471 0.13817 0.65432 0.0
O40 O 0.06639 0.14569 0.61381 0.0
O41 O 0.11405 0.12847 0.61954 0.0
C42 C 0.04117 0.16821 0.68332 0.0
C43 C 0.07111 0.07633 0.66322 0.0
C44 C 0.13641 0.17253 0.6681 0.0
O45 O 0.04706 0.17734 0.66106 0.0
O46 O 0.05568 0.14306 0.69008 0.0
O47 O 0.13685 0.14218 0.66803 0.0
O48 O 0.11019 0.18502 0.66142 0.0
C49 C 0.09236 0.13617 0.60399 0.0
O50 O 0.09161 0.09134 0.67634 0.0
O51 O 0.05779 0.09252 0.64597 0.0
In52 In 0.34284 0.39167 0.36535 0.0
O53 O 0.39534 0.39237 0.35274 0.0
O54 O 0.37609 0.43237 0.37305 0.0
C55 C 0.30939 0.33869 0.35487 0.0
C56 C 0.34702 0.38205 0.41523 0.0
C57 C 0.31328 0.42684 0.32982 0.0
O58 O 0.33917 0.34045 0.34981 0.0
O59 O 0.29758 0.3632 0.36515 0.0
O60 O 0.30453 0.42769 0.35267 0.0
O61 O 0.33736 0.40932 0.32541 0.0
C62 C 0.40019 0.4197 0.36261 0.0
O63 O 0.32877 0.4035 0.40589 0.0
O64 O 0.36247 0.3657 0.39937 0.0
In65 In 0.08011 0.33843 0.86189 0.0
O66 O 0.06219 0.33208 0.90277 0.0
O67 O 0.10752 0.35415 0.8963 0.0
C68 C 0.04276 0.30653 0.82919 0.0
C69 C 0.06072 0.39794 0.85077 0.0
C70 C 0.13191 0.30287 0.85173 0.0
O71 O 0.04302 0.29962 0.85248 0.0
O72 O 0.0605 0.32978 0.82287 0.0
O73 O 0.13151 0.33282 0.8475 0.0
O74 O 0.10649 0.2914 0.86089 0.0
C75 C 0.08704 0.3451 0.91216 0.0
O76 O 0.08968 0.38951 0.84784 0.0
O77 O 0.04211 0.37656 0.85922 0.0
In78 In 0.12997 0.0947 0.36766 0.0
O79 O 0.13922 0.07889 0.40837 0.0
O80 O 0.11451 0.12306 0.40156 0.0
C81 C 0.15903 0.05518 0.33498 0.0
C82 C 0.06897 0.0766 0.36099 0.0
C83 C 0.16692 0.14566 0.35735 0.0
O84 O 0.16563 0.05436 0.35831 0.0
O85 O 0.13706 0.07456 0.32886 0.0
O86 O 0.13726 0.14533 0.35174 0.0
O87 O 0.17719 0.12072 0.36825 0.0
C88 C 0.12534 0.10326 0.41757 0.0
O89 O 0.08031 0.10069 0.34943 0.0
O90 O 0.08835 0.06198 0.37536 0.0
In91 In 0.37954 0.12908 0.87201 0.0
O92 O 0.38056 0.07699 0.85841 0.0
O93 O 0.42458 0.10064 0.86863 0.0
C94 C 0.32431 0.15987 0.86403 0.0
C95 C 0.37725 0.12062 0.92224 0.0
C96 C 0.40795 0.1624 0.83517 0.0
O97 O 0.32666 0.12999 0.85989 0.0
O98 O 0.34911 0.17321 0.8729 0.0
O99 O 0.41402 0.1682 0.85822 0.0
O100 O 0.38827 0.13979 0.83125 0.0
C101 C 0.41094 0.07564 0.86046 0.0
O102 O 0.39505 0.14194 0.91238 0.0
O103 O 0.36097 0.10431 0.90679 0.0
In104 In 0.64116 0.88706 0.88063 0.0
O105 O 0.58971 0.88932 0.86537 0.0
O106 O 0.61086 0.93089 0.88251 0.0
C107 C 0.67415 0.8333 0.87325 0.0
C108 C 0.63134 0.87841 0.93001 0.0
C109 C 0.6751 0.91802 0.84546 0.0
O110 O 0.64521 0.83589 0.86569 0.0
O111 O 0.68537 0.85739 0.8847 0.0
O112 O 0.681 0.92188 0.86878 0.0
O113 O 0.65191 0.89945 0.84047 0.0
C114 C 0.58669 0.91854 0.87172 0.0
O115 O 0.65029 0.89998 0.9219 0.0
O116 O 0.6178 0.8617 0.91319 0.0
In117 In 0.59104 0.63723 0.37508 0.0
O118 O 0.57373 0.64628 0.41548 0.0
O119 O 0.62055 0.6269 0.40997 0.0
C120 C 0.5488 0.66643 0.34392 0.0
C121 C 0.57356 0.57587 0.36953 0.0
C122 C 0.64341 0.67086 0.36218 0.0
O123 O 0.55327 0.67587 0.36632 0.0
O124 O 0.5644 0.64169 0.33795 0.0
O125 O 0.64352 0.64046 0.36231 0.0
O126 O 0.61716 0.68367 0.36817 0.0
C127 C 0.59938 0.63558 0.42542 0.0
O128 O 0.59498 0.58816 0.35564 0.0
O129 O 0.56137 0.59447 0.38552 0.0
In130 In 0.85189 0.5875 0.87704 0.0
O131 O 0.84355 0.56874 0.91713 0.0
O132 O 0.86586 0.61449 0.91211 0.0
C133 C 0.82268 0.5505 0.84237 0.0
C134 C 0.91277 0.57002 0.86927 0.0
C135 C 0.81534 0.63913 0.86818 0.0
O136 O 0.81556 0.54842 0.86552 0.0
O137 O 0.84516 0.56975 0.83745 0.0
O138 O 0.84527 0.63937 0.8638 0.0
O139 O 0.80455 0.6132 0.87708 0.0
C140 C 0.85601 0.59332 0.92731 0.0
O141 O 0.90098 0.59466 0.85867 0.0
O142 O 0.89395 0.55474 0.88353 0.0
In143 In 0.88574 0.85467 0.37614 0.0
O144 O 0.90554 0.84414 0.41592 0.0
O145 O 0.86769 0.87818 0.41152 0.0
C146 C 0.91575 0.82203 0.3399 0.0
C147 C 0.90903 0.91151 0.36186 0.0
C148 C 0.83242 0.81949 0.37054 0.0
O149 O 0.92284 0.81779 0.36299 0.0
O150 O 0.89443 0.84298 0.33559 0.0
O151 O 0.8326 0.84921 0.36532 0.0
O152 O 0.85841 0.80844 0.37925 0.0
C153 C 0.88655 0.86375 0.42637 0.0
O154 O 0.87903 0.90617 0.36199 0.0
O155 O 0.92662 0.88854 0.36913 0.0
In156 In 0.64392 0.58821 0.66109 0.0
O157 O 0.65251 0.5726 0.62028 0.0
O158 O 0.61965 0.61087 0.6276 0.0
C159 C 0.67705 0.55923 0.69797 0.0
C160 C 0.58917 0.55898 0.6725 0.0
C161 C 0.67858 0.64153 0.66562 0.0
O162 O 0.68176 0.55224 0.67498 0.0
O163 O 0.65572 0.58027 0.70181 0.0
O164 O 0.64986 0.6402 0.67359 0.0
O165 O 0.68892 0.61629 0.65532 0.0
C166 C 0.63326 0.59351 0.61139 0.0
O167 O 0.59192 0.58917 0.67492 0.0
O168 O 0.61353 0.54448 0.66412 0.0
In169 In 0.88532 0.63332 0.16517 0.0
O170 O 0.88487 0.58065 0.17804 0.0
O171 O 0.92962 0.60385 0.16985 0.0
C172 C 0.8298 0.66413 0.17174 0.0
C173 C 0.88252 0.62487 0.11503 0.0
C174 C 0.91439 0.66903 0.20035 0.0
O175 O 0.83373 0.63565 0.17978 0.0
O176 O 0.85338 0.67596 0.16008 0.0
O177 O 0.91934 0.67385 0.17705 0.0
O178 O 0.89552 0.64614 0.20539 0.0
C179 C 0.91525 0.57876 0.177 0.0
O180 O 0.9029 0.64365 0.12504 0.0
O181 O 0.86416 0.61075 0.13034 0.0
In182 In 0.85522 0.8904 0.66443 0.0
O183 O 0.84369 0.91114 0.62515 0.0
O184 O 0.87958 0.87481 0.62877 0.0
C185 C 0.82284 0.91773 0.70216 0.0
C186 C 0.91255 0.91317 0.67799 0.0
C187 C 0.82096 0.83625 0.66658 0.0
O188 O 0.81879 0.92685 0.67949 0.0
O189 O 0.84326 0.89562 0.70531 0.0
O190 O 0.84963 0.83738 0.67478 0.0
O191 O 0.81049 0.862 0.65705 0.0
C192 C 0.86403 0.89328 0.61431 0.0
O193 O 0.90738 0.88322 0.67681 0.0
O194 O 0.88904 0.93101 0.67227 0.0
In195 In 0.57893 0.83275 0.16452 0.0
O196 O 0.5632 0.82541 0.12344 0.0
O197 O 0.60926 0.84588 0.13098 0.0
C198 C 0.53811 0.8017 0.1954 0.0
C199 C 0.56086 0.89371 0.17084 0.0
C200 C 0.63092 0.79818 0.177 0.0
O201 O 0.54186 0.79325 0.17273 0.0
O202 O 0.55338 0.82655 0.20169 0.0
O203 O 0.62971 0.82811 0.1811 0.0
O204 O 0.60618 0.78643 0.16682 0.0
C205 C 0.58897 0.83713 0.11464 0.0
O206 O 0.5837 0.88169 0.18362 0.0
O207 O 0.54739 0.87497 0.15542 0.0
H208 H 0.39803 0.15905 0.96089 0.0
H209 H 0.35157 0.0686 0.94558 0.0
H210 H 0.392 0.14954 1.00602 0.0
H211 H 0.34686 0.05825 0.99043 0.0
H212 H 0.31257 0.06392 0.07176 0.0
H213 H 0.31888 0.07287 0.02661 0.0
H214 H 0.41013 0.11934 0.04047 0.0
H215 H 0.40292 0.11168 0.08546 0.0
C216 C 0.38687 0.13698 0.9672 0.0
C217 C 0.37516 0.11468 0.9497 0.0
C218 C 0.38354 0.13136 0.99309 0.0
C219 C 0.36883 0.10307 1.00208 0.0
C220 C 0.35767 0.0806 0.9844 0.0
C221 C 0.3606 0.08643 0.9586 0.0
C222 C 0.33402 0.07585 0.06507 0.0
C223 C 0.35717 0.08716 0.08215 0.0
C224 C 0.33777 0.08093 0.03915 0.0
C225 C 0.365 0.09704 0.02969 0.0
C226 C 0.38849 0.10754 0.04691 0.0
C227 C 0.38451 0.10286 0.07277 0.0
H228 H 0.30845 0.40293 0.45346 0.0
H229 H 0.39453 0.34867 0.43881 0.0
H230 H 0.31504 0.39282 0.49847 0.0
H231 H 0.40224 0.33994 0.48367 0.0
H232 H 0.35282 0.39803 0.57852 0.0
H233 H 0.34535 0.4066 0.53366 0.0
H234 H 0.38457 0.31243 0.5192 0.0
H235 H 0.39358 0.30475 0.56429 0.0
C236 C 0.32892 0.38908 0.45991 0.0
C237 C 0.3509 0.37655 0.44262 0.0
C238 C 0.33289 0.38341 0.48575 0.0
C239 C 0.35926 0.36553 0.49494 0.0
C240 C 0.38128 0.35321 0.47747 0.0
C241 C 0.37701 0.35845 0.45168 0.0
C242 C 0.35989 0.37916 0.56574 0.0
C243 C 0.37382 0.35071 0.57492 0.0
C244 C 0.35534 0.38396 0.53994 0.0
C245 C 0.36412 0.36019 0.52256 0.0
C246 C 0.37795 0.33157 0.53185 0.0
C247 C 0.38298 0.327 0.55773 0.0
H248 H 0.1413 0.36705 0.93466 0.0
H249 H 0.04521 0.33458 0.95134 0.0
H250 H 0.15128 0.37638 0.97903 0.0
H251 H 0.05491 0.34485 0.99613 0.0
H252 H 0.09696 0.33447 0.0761 0.0
H253 H 0.08515 0.32543 0.03177 0.0
H254 H 0.13751 0.41155 1.0125 0.0
H255 H 0.1501 0.42002 0.05693 0.0
C256 C 0.12217 0.36205 0.94784 0.0
C257 C 0.09242 0.35006 0.93946 0.0
C258 C 0.12784 0.36768 0.97334 0.0
C259 C 0.10387 0.36167 0.99124 0.0
C260 C 0.07406 0.34949 0.9829 0.0
C261 C 0.06841 0.34369 0.95725 0.0
C262 C 0.10598 0.35148 0.06239 0.0
C263 C 0.12464 0.37788 0.07001 0.0
C264 C 0.09897 0.34642 0.03695 0.0
C265 C 0.11034 0.36771 0.01846 0.0
C266 C 0.12875 0.39435 0.02616 0.0
C267 C 0.13589 0.39933 0.05163 0.0
H268 H 0.14623 0.11604 0.5801 0.0
H269 H 0.04909 0.14788 0.5659 0.0
H270 H 0.15413 0.10812 0.53522 0.0
H271 H 0.05684 0.13944 0.52079 0.0
H272 H 0.09505 0.15301 0.44044 0.0
H273 H 0.08684 0.16134 0.48528 0.0
H274 H 0.13667 0.07269 0.50146 0.0
H275 H 0.14534 0.06461 0.45645 0.0
C276 C 0.12652 0.12137 0.56736 0.0
C277 C 0.09702 0.13264 0.57654 0.0
C278 C 0.131 0.11657 0.54163 0.0
C279 C 0.10609 0.12295 0.52439 0.0
C280 C 0.07663 0.13456 0.53355 0.0
C281 C 0.07213 0.13932 0.55938 0.0
C282 C 0.10433 0.1353 0.45356 0.0
C283 C 0.12096 0.10818 0.44491 0.0
C284 C 0.0994 0.13998 0.47927 0.0
C285 C 0.11102 0.11768 0.49699 0.0
C286 C 0.12771 0.09054 0.48832 0.0
C287 C 0.1326 0.08582 0.46255 0.0
H288 H 0.54683 0.82921 0.07526 0.0
H289 H 0.6446 0.85613 0.09257 0.0
H290 H 0.55656 0.84012 0.0307 0.0
H291 H 0.65466 0.8661 0.04819 0.0
H292 H 0.65322 0.91288 0.97052 0.0
H293 H 0.64214 0.90299 1.01501 0.0
H294 H 0.58489 0.82037 0.99493 0.0
H295 H 0.59519 0.83083 0.95065 0.0
C296 C 0.57046 0.83713 0.06951 0.0
C297 C 0.59491 0.84183 0.08742 0.0
C298 C 0.57612 0.84331 0.04397 0.0
C299 C 0.6064 0.85417 0.03579 0.0
C300 C 0.63089 0.8584 0.05378 0.0
C301 C 0.62519 0.8524 0.07925 0.0
C302 C 0.63825 0.89266 0.97566 0.0
C303 C 0.62511 0.87266 0.95708 0.0
C304 C 0.63201 0.88685 1.00116 0.0
C305 C 0.6126 0.86082 1.00864 0.0
C306 C 0.59949 0.84091 0.98994 0.0
C307 C 0.60561 0.84679 0.96451 0.0
H308 H 0.59545 0.639 0.58953 0.0
H309 H 0.65779 0.55967 0.57158 0.0
H310 H 0.58703 0.64957 0.54499 0.0
H311 H 0.6486 0.56965 0.52671 0.0
H312 H 0.65433 0.61862 0.44995 0.0
H313 H 0.66183 0.60781 0.49461 0.0
H314 H 0.5619 0.6299 0.50765 0.0
H315 H 0.5547 0.64164 0.46286 0.0
C316 C 0.60716 0.62358 0.57603 0.0
C317 C 0.6274 0.59852 0.58411 0.0
C318 C 0.60214 0.62954 0.55043 0.0
C319 C 0.61711 0.61054 0.53214 0.0
C320 C 0.63704 0.58512 0.54024 0.0
C321 C 0.64218 0.57922 0.56595 0.0
C322 C 0.63398 0.62139 0.46237 0.0
C323 C 0.60392 0.6311 0.45288 0.0
C324 C 0.63822 0.61485 0.48799 0.0
C325 C 0.61245 0.61768 0.50481 0.0
C326 C 0.58241 0.62777 0.49533 0.0
C327 C 0.57821 0.63449 0.46965 0.0
H328 H 0.87581 0.64663 0.9523 0.0
H329 H 0.8448 0.549 0.96457 0.0
H330 H 0.88277 0.65374 0.99739 0.0
H331 H 0.85278 0.55571 1.00986 0.0
H332 H 0.83692 0.59016 0.09043 0.0
H333 H 0.83071 0.58216 0.04538 0.0
H334 H 0.91588 0.63901 0.03223 0.0
H335 H 0.92142 0.64787 0.07751 0.0
C336 C 0.87063 0.62658 0.96467 0.0
C337 C 0.85968 0.59725 0.95487 0.0
C338 C 0.8749 0.63059 0.99056 0.0
C339 C 0.86853 0.60529 1.00738 0.0
C340 C 0.85755 0.57588 0.99754 0.0
C341 C 0.85307 0.57194 0.97157 0.0
C342 C 0.85437 0.60095 0.07794 0.0
C343 C 0.87964 0.61975 0.08754 0.0
C344 C 0.85093 0.59615 0.05206 0.0
C345 C 0.87279 0.60985 0.03505 0.0
C346 C 0.89829 0.62845 0.04471 0.0
C347 C 0.90162 0.63342 0.07067 0.0
H348 H 0.85947 0.91431 0.4503 0.0
H349 H 0.91123 0.82636 0.46442 0.0
H350 H 0.85573 0.9238 0.49528 0.0
H351 H 0.90613 0.83484 0.50967 0.0
H352 H 0.91571 0.87003 0.5894 0.0
H353 H 0.92295 0.86469 0.54426 0.0
H354 H 0.82949 0.90728 0.53167 0.0
H355 H 0.82318 0.91406 0.577 0.0
C356 C 0.86994 0.89687 0.4631 0.0
C357 C 0.88564 0.86955 0.45384 0.0
C358 C 0.86755 0.90218 0.48898 0.0
C359 C 0.88038 0.88005 0.50637 0.0
C360 C 0.89637 0.85277 0.49699 0.0
C361 C 0.89919 0.84774 0.47102 0.0
C362 C 0.89684 0.87854 0.57694 0.0
C363 C 0.86886 0.89247 0.58673 0.0
C364 C 0.90085 0.87518 0.55099 0.0
C365 C 0.87672 0.88518 0.53407 0.0
C366 C 0.84888 0.89966 0.54395 0.0
C367 C 0.84512 0.90349 0.56998 0.0
H368 H 0.23873 0.33014 0.14827 0.0
H369 H 0.15555 0.27939 0.17601 0.0
H370 H 0.27122 0.2823 0.15381 0.0
H371 H 0.18848 0.23117 0.18193 0.0
H372 H 0.24756 0.14532 0.15099 0.0
H373 H 0.21461 0.1933 0.15308 0.0
H374 H 0.29448 0.24553 0.18515 0.0
H375 H 0.32783 0.19727 0.18274 0.0
C376 C 0.22742 0.30877 0.15579 0.0
C377 C 0.19449 0.30838 0.16148 0.0
C378 C 0.24618 0.28143 0.1592 0.0
C379 C 0.23245 0.25296 0.16831 0.0
C380 C 0.19964 0.25274 0.17466 0.0
C381 C 0.18083 0.28029 0.17135 0.0
C382 C 0.25811 0.16698 0.15862 0.0
C383 C 0.29039 0.16765 0.16649 0.0
C384 C 0.23908 0.1944 0.16005 0.0
C385 C 0.2519 0.22318 0.16931 0.0
C386 C 0.28403 0.22372 0.17773 0.0
C387 C 0.3031 0.19615 0.17639 0.0
H388 H 0.26771 0.33056 0.65664 0.0
H389 H 0.32776 0.2539 0.68458 0.0
H390 H 0.22033 0.29658 0.66188 0.0
H391 H 0.28067 0.22062 0.69152 0.0
H392 H 0.19932 0.15551 0.66453 0.0
H393 H 0.24572 0.19081 0.66714 0.0
H394 H 0.18364 0.26975 0.6874 0.0
H395 H 0.13718 0.23461 0.68323 0.0
C396 C 0.27054 0.30673 0.66457 0.0
C397 C 0.30116 0.29457 0.66993 0.0
C398 C 0.24346 0.28723 0.66771 0.0
C399 C 0.24662 0.25551 0.67681 0.0
C400 C 0.2773 0.24443 0.68373 0.0
C401 C 0.30428 0.26357 0.67999 0.0
C402 C 0.19576 0.18029 0.66989 0.0
C403 C 0.16479 0.19243 0.67352 0.0
C404 C 0.22235 0.20061 0.67154 0.0
C405 C 0.21855 0.23337 0.67737 0.0
C406 C 0.18752 0.24495 0.68229 0.0
C407 C 0.1609 0.22476 0.68014 0.0
H408 H 0.328 0.27886 0.33882 0.0
H409 H 0.24497 0.33446 0.36004 0.0
H410 H 0.29376 0.2313 0.33437 0.0
H411 H 0.21127 0.28739 0.3562 0.0
H412 H 0.15215 0.20264 0.33413 0.0
H413 H 0.18764 0.24877 0.32809 0.0
H414 H 0.26538 0.19648 0.36353 0.0
H415 H 0.23033 0.15041 0.36891 0.0
C416 C 0.30248 0.28096 0.3423 0.0
C417 C 0.28922 0.31024 0.34999 0.0
C418 C 0.2829 0.25379 0.33987 0.0
C419 C 0.24977 0.25555 0.34498 0.0
C420 C 0.23653 0.28521 0.35175 0.0
C421 C 0.25599 0.31218 0.3542 0.0
C422 C 0.1769 0.20099 0.34036 0.0
C423 C 0.18836 0.17309 0.35222 0.0
C424 C 0.19722 0.22737 0.33697 0.0
C425 C 0.22933 0.22635 0.34543 0.0
C426 C 0.24097 0.19797 0.35647 0.0
C427 C 0.22073 0.17165 0.3598 0.0
H428 H 0.26126 0.14333 0.8699 0.0
H429 H 0.32336 0.21934 0.84425 0.0
H430 H 0.21468 0.17815 0.8639 0.0
H431 H 0.27711 0.2534 0.83622 0.0
H432 H 0.19467 0.31998 0.85654 0.0
H433 H 0.24093 0.28438 0.85707 0.0
H434 H 0.17913 0.20444 0.83788 0.0
H435 H 0.13279 0.23996 0.83935 0.0
C436 C 0.26472 0.16728 0.86241 0.0
C437 C 0.29568 0.17891 0.85781 0.0
C438 C 0.23808 0.18727 0.85877 0.0
C439 C 0.24193 0.21896 0.84976 0.0
C440 C 0.27306 0.22968 0.84392 0.0
C441 C 0.29961 0.21007 0.84829 0.0
C442 C 0.19121 0.29487 0.85212 0.0
C443 C 0.16034 0.2826 0.84802 0.0
C444 C 0.21773 0.27434 0.85229 0.0
C445 C 0.21398 0.24122 0.84767 0.0
C446 C 0.18304 0.22949 0.84222 0.0
C447 C 0.15648 0.24988 0.84275 0.0
H448 H 0.65715 0.77633 0.85097 0.0
H449 H 0.73681 0.82599 0.88582 0.0
H450 H 0.69137 0.72912 0.84514 0.0
H451 H 0.77048 0.77916 0.88043 0.0
H452 H 0.83205 0.69936 0.85216 0.0
H453 H 0.79715 0.7464 0.84904 0.0
H454 H 0.71632 0.68886 0.8727 0.0
H455 H 0.75089 0.64198 0.87528 0.0
C456 C 0.6819 0.77717 0.85731 0.0
C457 C 0.69424 0.80472 0.86898 0.0
C458 C 0.70146 0.75021 0.85401 0.0
C459 C 0.73368 0.75049 0.86223 0.0
C460 C 0.74599 0.77832 0.87347 0.0
C461 C 0.72653 0.80508 0.8768 0.0
C462 C 0.80676 0.69677 0.85639 0.0
C463 C 0.79427 0.66714 0.86423 0.0
C464 C 0.7868 0.72366 0.85469 0.0
C465 C 0.75401 0.72136 0.86079 0.0
C466 C 0.74135 0.69138 0.86761 0.0
C467 C 0.76127 0.66457 0.86931 0.0
H468 H 0.64555 0.73094 0.34272 0.0
H469 H 0.70561 0.65558 0.37277 0.0
H470 H 0.69162 0.76681 0.34092 0.0
H471 H 0.75142 0.69186 0.3728 0.0
H472 H 0.83448 0.75677 0.35834 0.0
H473 H 0.78979 0.72032 0.35156 0.0
H474 H 0.72335 0.79757 0.36697 0.0
H475 H 0.76849 0.83444 0.37187 0.0
C476 C 0.6688 0.72207 0.3488 0.0
C477 C 0.67218 0.69057 0.35783 0.0
C478 C 0.69516 0.74273 0.34811 0.0
C479 C 0.72537 0.73262 0.35709 0.0
C480 C 0.72881 0.70057 0.36533 0.0
C481 C 0.70254 0.67967 0.36541 0.0
C482 C 0.81024 0.76592 0.36008 0.0
C483 C 0.8048 0.79829 0.36578 0.0
C484 C 0.78455 0.74496 0.35638 0.0
C485 C 0.75272 0.75567 0.35896 0.0
C486 C 0.74739 0.78838 0.36435 0.0
C487 C 0.77321 0.80956 0.36739 0.0
H488 H 0.75814 0.83149 0.65332 0.0
H489 H 0.83712 0.77643 0.68409 0.0
H490 H 0.72363 0.78452 0.65554 0.0
H491 H 0.80225 0.72921 0.68657 0.0
H492 H 0.74153 0.6463 0.6534 0.0
H493 H 0.776 0.69322 0.65589 0.0
H494 H 0.69738 0.74826 0.68617 0.0
H495 H 0.6625 0.70104 0.68341 0.0
C496 C 0.76811 0.80933 0.66067 0.0
C497 C 0.8004 0.80753 0.66839 0.0
C498 C 0.74821 0.78252 0.66215 0.0
C499 C 0.76019 0.75324 0.6713 0.0
C500 C 0.79244 0.75146 0.67926 0.0
C501 C 0.81237 0.77842 0.67788 0.0
C502 C 0.73156 0.66836 0.66069 0.0
C503 C 0.69925 0.67009 0.66808 0.0
C504 C 0.75144 0.69516 0.66231 0.0
C505 C 0.73944 0.72437 0.67128 0.0
C506 C 0.70719 0.72606 0.679 0.0
C507 C 0.68727 0.69909 0.67749 0.0
H508 H 0.77438 0.64585 0.19571 0.0
H509 H 0.81931 0.72575 0.15764 0.0
H510 H 0.72619 0.67849 0.20221 0.0
H511 H 0.77148 0.75787 0.16374 0.0
H512 H 0.69076 0.81762 0.19238 0.0
H513 H 0.73917 0.78454 0.19557 0.0
H514 H 0.68369 0.7008 0.17536 0.0
H515 H 0.63553 0.73355 0.17269 0.0
C516 C 0.77396 0.67031 0.18877 0.0
C517 C 0.80049 0.68317 0.17604 0.0
C518 C 0.74644 0.68898 0.19248 0.0
C519 C 0.74512 0.72084 0.18362 0.0
C520 C 0.77191 0.73368 0.17123 0.0
C521 C 0.79922 0.71508 0.16748 0.0
C522 C 0.68891 0.79207 0.18905 0.0
C523 C 0.65951 0.77823 0.18201 0.0
C524 C 0.71659 0.77316 0.19075 0.0
C525 C 0.71528 0.7401 0.18549 0.0
C526 C 0.6855 0.72609 0.17975 0.0
C527 C 0.65793 0.74495 0.17801 0.0
H528 H 0.21752 0.02559 0.34063 0.0
H529 H 0.14557 0.05048 0.2851 0.0
H530 H 0.25522 0.01303 0.30694 0.0
H531 H 0.18318 0.03899 0.25165 0.0
H532 H 0.25462 0.01845 0.19278 0.0
H533 H 0.21775 0.00549 0.22715 0.0
H534 H 0.28327 0.04957 0.28009 0.0
H535 H 0.31997 0.06162 0.24616 0.0
C536 C 0.20947 0.0275 0.32126 0.0
C537 C 0.1788 0.03953 0.3155 0.0
C538 C 0.23113 0.02059 0.30194 0.0
C539 C 0.22251 0.02563 0.27653 0.0
C540 C 0.19074 0.03466 0.2709 0.0
C541 C 0.16916 0.0415 0.29015 0.0
C542 C 0.26138 0.02458 0.21187 0.0
C543 C 0.28993 0.04146 0.21673 0.0
C544 C 0.24024 0.01732 0.23156 0.0
C545 C 0.24734 0.02673 0.25643 0.0
C546 C 0.27703 0.04156 0.26133 0.0
C547 C 0.29801 0.04882 0.24175 0.0
H548 H 0.41369 0.32291 0.73897 0.0
H549 H 0.44286 0.24828 0.68784 0.0
H550 H 0.42144 0.2868 0.77437 0.0
H551 H 0.45159 0.21206 0.72358 0.0
H552 H 0.40199 0.14979 0.78534 0.0
H553 H 0.41393 0.18506 0.75026 0.0
H554 H 0.45448 0.25447 0.80162 0.0
H555 H 0.44162 0.21911 0.83709 0.0
C556 C 0.42261 0.29897 0.73534 0.0
C557 C 0.42718 0.28827 0.71057 0.0
C558 C 0.42733 0.27828 0.75574 0.0
C559 C 0.43678 0.24632 0.75189 0.0
C560 C 0.44374 0.23636 0.72719 0.0
C561 C 0.43898 0.25715 0.70671 0.0
C562 C 0.41394 0.17235 0.78918 0.0
C563 C 0.42044 0.18188 0.81403 0.0
C564 C 0.42111 0.19251 0.76896 0.0
C565 C 0.43501 0.22278 0.77303 0.0
C566 C 0.44336 0.2315 0.79783 0.0
C567 C 0.43617 0.21121 0.81815 0.0
H568 H 0.24311 0.42362 0.18089 0.0
H569 H 0.16027 0.45761 0.22101 0.0
H570 H 0.27659 0.43331 0.21765 0.0
H571 H 0.1939 0.47011 0.25732 0.0
H572 H 0.24847 0.43341 0.32722 0.0
H573 H 0.21658 0.44243 0.28954 0.0
H574 H 0.3034 0.46153 0.24752 0.0
H575 H 0.33514 0.44976 0.28509 0.0
C576 C 0.23239 0.43455 0.19729 0.0
C577 C 0.19919 0.43969 0.19826 0.0
C578 C 0.25159 0.44026 0.21852 0.0
C579 C 0.23808 0.45201 0.24099 0.0
C580 C 0.20519 0.45999 0.24087 0.0
C581 C 0.18589 0.45331 0.21992 0.0
C582 C 0.26059 0.44032 0.31004 0.0
C583 C 0.29419 0.44064 0.30897 0.0
C584 C 0.24229 0.44566 0.28826 0.0
C585 C 0.2572 0.45224 0.26499 0.0
C586 C 0.2909 0.45545 0.26469 0.0
C587 C 0.30918 0.44916 0.28632 0.0
H588 H 0.0379 0.23321 0.68334 0.0
H589 H 0.01039 0.1496 0.7261 0.0
H590 H 0.02762 0.26686 0.7194 0.0
H591 H -0.00254 0.18342 0.76195 0.0
H592 H 0.03792 0.2416 0.82888 0.0
H593 H 0.0264 0.20822 0.79262 0.0
H594 H 1e-05 0.29284 0.74972 0.0
H595 H 0.01435 0.32612 0.78565 0.0
C596 C 0.02815 0.22223 0.70016 0.0
C597 C 0.02526 0.18881 0.70202 0.0
C598 C 0.02212 0.24158 0.72104 0.0
C599 C 0.01229 0.22802 0.74413 0.0
C600 C 0.00609 0.19479 0.74494 0.0
C601 C 0.01301 0.17536 0.72425 0.0
C602 C 0.02884 0.25287 0.81186 0.0
C603 C 0.02729 0.28635 0.80991 0.0
C604 C 0.02206 0.23372 0.79092 0.0
C605 C 0.0128 0.24765 0.76772 0.0
C606 C 0.00817 0.28112 0.7668 0.0
C607 C 0.01594 0.30027 0.7875 0.0
H608 H 0.6615 0.91942 0.79549 0.0
H609 H 0.73519 0.94481 0.84932 0.0
H610 H 0.69843 0.92951 0.76118 0.0
H611 H 0.77233 0.95562 0.81472 0.0
H612 H 0.83461 0.90797 0.75182 0.0
H613 H 0.79912 0.91855 0.78685 0.0
H614 H 0.7319 0.96501 0.73631 0.0
H615 H 0.76757 0.95377 0.70088 0.0
C616 C 0.68542 0.92799 0.79996 0.0
C617 C 0.69561 0.93086 0.82512 0.0
C618 C 0.70657 0.93405 0.78022 0.0
C619 C 0.73851 0.94306 0.78514 0.0
C620 C 0.74801 0.94826 0.8103 0.0
C621 C 0.72671 0.94227 0.83012 0.0
C622 C 0.81253 0.92098 0.74819 0.0
C623 C 0.80365 0.92963 0.72353 0.0
C624 C 0.79227 0.92735 0.76838 0.0
C625 C 0.7625 0.94246 0.76444 0.0
C626 C 0.75451 0.95298 0.73995 0.0
C627 C 0.77497 0.9467 0.71967 0.0
H628 H 0.51894 0.64511 0.30144 0.0
H629 H 0.54235 0.73127 0.3422 0.0
H630 H 0.50279 0.67714 0.26507 0.0
H631 H 0.52875 0.76337 0.30552 0.0
H632 H 0.5367 0.73659 0.19654 0.0
H633 H 0.52868 0.70328 0.23347 0.0
H634 H 0.49773 0.78662 0.27519 0.0
H635 H 0.50837 0.82011 0.23848 0.0
C636 C 0.52008 0.67102 0.30271 0.0
C637 C 0.532 0.68574 0.32456 0.0
C638 C 0.51124 0.68946 0.28172 0.0
C639 C 0.51514 0.72304 0.2818 0.0
C640 C 0.52494 0.73775 0.30448 0.0
C641 C 0.53291 0.71931 0.32567 0.0
C642 C 0.52724 0.74757 0.2134 0.0
C643 C 0.52343 0.78092 0.21474 0.0
C644 C 0.52254 0.72842 0.23476 0.0
C645 C 0.5132 0.74214 0.25784 0.0
C646 C 0.50606 0.77517 0.25819 0.0
C647 C 0.51165 0.7944 0.23702 0.0
H648 H 0.76261 0.52357 0.84523 0.0
H649 H 0.83812 0.547 0.79293 0.0
H650 H 0.72589 0.51416 0.80992 0.0
H651 H 0.80155 0.53861 0.75789 0.0
H652 H 0.66578 0.5666 0.74781 0.0
H653 H 0.70075 0.55277 0.78277 0.0
H654 H 0.76671 0.50741 0.73146 0.0
H655 H 0.73164 0.52215 0.69607 0.0
C656 C 0.77162 0.5258 0.82621 0.0
C657 C 0.80308 0.5365 0.82185 0.0
C658 C 0.75052 0.52072 0.80596 0.0
C659 C 0.76053 0.52627 0.78101 0.0
C660 C 0.79292 0.53395 0.77674 0.0
C661 C 0.81391 0.53899 0.79691 0.0
C662 C 0.68749 0.55322 0.74396 0.0
C663 C 0.69619 0.5459 0.71912 0.0
C664 C 0.70745 0.54493 0.76412 0.0
C665 C 0.73673 0.52907 0.76002 0.0
C666 C 0.74452 0.51998 0.73527 0.0
C667 C 0.7244 0.52828 0.715 0.0
H668 H 0.91012 0.8332 0.28978 0.0
H669 H 0.94903 0.76531 0.3434 0.0
H670 H 0.92025 0.79595 0.2558 0.0
H671 H 0.95992 0.72789 0.30907 0.0
H672 H 0.91217 0.65818 0.25067 0.0
H673 H 0.92315 0.69599 0.28421 0.0
H674 H 0.95616 0.76541 0.22953 0.0
H675 H 0.94441 0.72741 0.19567 0.0
C676 C 0.92164 0.81056 0.29422 0.0
C677 C 0.92833 0.80196 0.3193 0.0
C678 C 0.92773 0.78925 0.27465 0.0
C679 C 0.94062 0.75874 0.27967 0.0
C680 C 0.94954 0.75105 0.30461 0.0
C681 C 0.9435 0.77252 0.32425 0.0
C682 C 0.92235 0.68129 0.24579 0.0
C683 C 0.92696 0.69003 0.2205 0.0
C684 C 0.92896 0.70292 0.2651 0.0
C685 C 0.9403 0.7339 0.25961 0.0
C686 C 0.94702 0.74187 0.23438 0.0
C687 C 0.94046 0.72009 0.21499 0.0
H688 H 0.46 0.07648 0.15801 0.0
H689 H 0.4088 0.00669 0.20255 0.0
H690 H 0.50881 0.04342 0.1611 0.0
H691 H 0.45754 0.97447 0.20647 0.0
H692 H 0.5404 0.93441 0.13458 0.0
H693 H 0.50939 0.9835 0.14033 0.0
H694 H 0.52066 0.97462 0.22084 0.0
H695 H 0.5529 0.92584 0.21498 0.0
C696 C 0.45962 0.05477 0.16928 0.0
C697 C 0.43086 0.04387 0.17996 0.0
C698 C 0.48741 0.03594 0.17104 0.0
C699 C 0.48685 0.00658 0.18414 0.0
C700 C 0.4587 -0.00278 0.19658 0.0
C701 C 0.43082 0.01549 0.19421 0.0
C702 C 0.53723 0.94364 0.15344 0.0
C703 C 0.54879 0.92648 0.17436 0.0
C704 C 0.51971 0.97179 0.15672 0.0
C705 C 0.51275 0.98276 0.18102 0.0
C706 C 0.526 0.96668 0.20194 0.0
C707 C 0.54437 0.9389 0.1986 0.0
H708 H 0.5865 0.50246 0.69653 0.0
H709 H 0.52664 0.57434 0.66127 0.0
H710 H 0.54135 0.4654 0.6975 0.0
H711 H 0.48114 0.53656 0.66153 0.0
H712 H 0.40537 0.45251 0.67971 0.0
H713 H 0.4428 0.49708 0.68823 0.0
H714 H 0.52015 0.44157 0.65665 0.0
H715 H 0.48355 0.39782 0.64823 0.0
C716 C 0.56335 0.51052 0.68956 0.0
C717 C 0.55995 0.54092 0.67854 0.0
C718 C 0.53757 0.48935 0.69005 0.0
C719 C 0.50805 0.49793 0.67907 0.0
C720 C 0.5037 0.52943 0.67012 0.0
C721 C 0.52962 0.55097 0.66995 0.0
C722 C 0.43038 0.45006 0.67458 0.0
C723 C 0.4416 0.42163 0.66348 0.0
C724 C 0.45167 0.47547 0.67942 0.0
C725 C 0.48439 0.47243 0.67352 0.0
C726 C 0.49519 0.44428 0.66192 0.0
C727 C 0.47412 0.41927 0.65695 0.0
H728 H 0.07811 0.48391 0.14693 0.0
H729 H 0.03113 0.40046 0.1783 0.0
H730 H 0.03238 0.51669 0.15784 0.0
H731 H 0.98441 0.43401 0.18919 0.0
H732 H 0.90203 0.51692 0.16296 0.0
H733 H 0.94144 0.4729 0.16186 0.0
H734 H 0.00934 0.5319 0.20229 0.0
H735 H 0.97062 0.57565 0.20285 0.0
C736 C 0.05792 0.47248 0.15611 0.0
C737 C 0.0583 0.43961 0.16189 0.0
C738 C 0.03178 0.49135 0.16248 0.0
C739 C 0.00518 0.47791 0.1747 0.0
C740 C 0.00484 0.44485 0.17991 0.0
C741 C 0.03146 0.42579 0.17373 0.0
C742 C 0.92494 0.51982 0.17244 0.0
C743 C 0.93367 0.54959 0.1827 0.0
C744 C 0.9474 0.49474 0.17183 0.0
C745 C 0.97847 0.49937 0.18165 0.0
C746 C 0.98565 0.52796 0.19434 0.0
C747 C 0.96354 0.55293 0.19467 0.0
H748 H 0.97107 0.89348 0.66131 0.0
H749 H 0.92435 0.96509 0.70663 0.0
H750 H 0.02066 0.92548 0.66189 0.0
H751 H 0.97383 -0.00364 0.70794 0.0
H752 H 0.06666 0.04742 0.7092 0.0
H753 H 0.0363 -0.0016 0.71875 0.0
H754 H 0.02145 0.98269 0.63928 0.0
H755 H 0.0508 0.03188 0.62986 0.0
C756 C 0.9719 0.91532 0.67227 0.0
C757 C 0.94408 0.92712 0.68378 0.0
C758 C 0.00015 0.93357 0.67258 0.0
C759 C 0.00099 0.96329 0.68499 0.0
C760 C 0.97397 0.97336 0.69852 0.0
C761 C 0.94562 0.95562 0.69764 0.0
C762 C 0.05783 0.03281 0.69383 0.0
C763 C 0.06063 0.04342 0.66884 0.0
C764 C 0.04052 0.00487 0.69928 0.0
C765 C 0.02662 0.98687 0.67974 0.0
C766 C 0.03225 -0.00409 0.65468 0.0
C767 C 0.0488 0.02416 0.64928 0.0
H768 H 0.55626 0.54512 0.3262 0.0
H769 H 0.5615 0.53399 0.40684 0.0
H770 H 0.51953 0.49911 0.32381 0.0
H771 H 0.52603 0.48759 0.40449 0.0
H772 H 0.41823 0.46722 0.39372 0.0
H773 H 0.4682 0.49673 0.39434 0.0
H774 H 0.50393 0.43928 0.3331 0.0
H775 H 0.45297 0.40906 0.33254 0.0
C776 C 0.55079 0.53183 0.34321 0.0
C777 C 0.56119 0.54311 0.36673 0.0
C778 C 0.52982 0.50554 0.34187 0.0
C779 C 0.51943 0.49029 0.36405 0.0
C780 C 0.53318 0.49932 0.38716 0.0
C781 C 0.55354 0.52574 0.38852 0.0
C782 C 0.43673 0.46059 0.38046 0.0
C783 C 0.43167 0.43592 0.36302 0.0
C784 C 0.46556 0.47732 0.38099 0.0
C785 C 0.49017 0.47002 0.36399 0.0
C786 C 0.48537 0.44522 0.3465 0.0
C787 C 0.45636 0.42798 0.34621 0.0
H788 H 0.00764 0.41449 0.82466 0.0
H789 H 0.08658 0.45409 0.86727 0.0
H790 H 0.98096 0.46665 0.82461 0.0
H791 H 0.05912 0.50632 0.86817 0.0
H792 H 0.95492 0.54434 0.90243 0.0
H793 H 0.00102 0.51064 0.89244 0.0
H794 H 0.98715 0.53075 0.81339 0.0
H795 H 0.94154 0.56566 0.82355 0.0
C796 C 0.01966 0.43473 0.83333 0.0
C797 C 0.04901 0.43056 0.84594 0.0
C798 C 0.00455 0.46455 0.83318 0.0
C799 C 0.01812 0.49042 0.8463 0.0
C800 C 0.04845 0.48675 0.85771 0.0
C801 C 0.06408 0.45702 0.85719 0.0
C802 C 0.96263 0.54264 0.88303 0.0
C803 C 0.94485 0.55739 0.86372 0.0
C804 C 0.98907 0.52354 0.87733 0.0
C805 C -0.00247 0.51819 0.85216 0.0
C806 C 0.98116 0.53481 0.83293 0.0
C807 C 0.9552 0.55472 0.83873 0.0
H808 H 0.8887 0.97165 0.37419 0.0
H809 H 0.96206 0.92032 0.3339 0.0
H810 H 0.91986 0.02151 0.36967 0.0
H811 H -0.0076 0.96996 0.32856 0.0
H812 H 0.03804 0.06532 0.31663 0.0
H813 H -0.00987 0.03149 0.31115 0.0
H814 H 0.97912 0.02648 0.39178 0.0
H815 H 0.02741 0.05905 0.39719 0.0
C816 C 0.91082 0.97136 0.36355 0.0
C817 C 0.92325 0.94237 0.35451 0.0
C818 C 0.92855 -0.00025 0.36097 0.0
C819 C 0.95834 -0.00052 0.34863 0.0
C820 C 0.96928 0.97088 0.3378 0.0
C821 C 0.95209 0.94249 0.34102 0.0
C822 C 0.02457 0.05792 0.33305 0.0
C823 C 0.03619 0.06452 0.35731 0.0
C824 C -0.00269 0.03862 0.32994 0.0
C825 C 0.98099 0.02657 0.35106 0.0
C826 C -0.00899 0.03584 0.37522 0.0
C827 C 0.01868 0.05428 0.37832 0.0
H828 H 0.52765 0.8988 0.85353 0.0
H829 H 0.58049 0.98228 0.8783 0.0
H830 H 0.48046 0.93299 0.84504 0.0
H831 H 0.53422 0.01569 0.86998 0.0
H832 H 0.46487 0.07587 0.83327 0.0
H833 H 0.50466 0.03324 0.83088 0.0
H834 H 0.44143 0.96992 0.87186 0.0
H835 H 0.40082 0.01278 0.87346 0.0
C836 C 0.52919 0.92431 0.85707 0.0
C837 C 0.55775 0.93791 0.86648 0.0
C838 C 0.50229 0.94376 0.85228 0.0
C839 C 0.50394 0.977 0.85646 0.0
C840 C 0.53245 -0.00973 0.86603 0.0
C841 C 0.55893 0.97102 0.87099 0.0
C842 C 0.45908 0.0525 0.84102 0.0
C843 C 0.43016 0.04751 0.85379 0.0
C844 C 0.48181 0.02817 0.83971 0.0
C845 C 0.47635 -0.00141 0.85168 0.0
C846 C 0.44616 -0.00747 0.86246 0.0
C847 C 0.42301 0.01695 0.86342 0.0
loop_
_geom_bond_atom_site_label_1
_geom_bond_atom_site_label_2
_geom_bond_distance
_geom_bond_site_symmetry_2
_ccdc_geom_bond_type
In0 O1 2.294 . S
In0 O2 2.326 . S
In0 O6 2.266 . S
In0 O7 2.326 . S
In0 O8 2.266 . S
In0 O9 2.326 . S
In0 O11 2.294 . S
In0 O12 2.326 . S
O1 In0 2.294 . S
O1 C10 1.240 . S
O2 In0 2.326 . S
O2 C10 1.252 . S
C3 O6 1.252 . S
C3 O7 1.260 . S
C4 O11 1.240 . S
C4 O12 1.252 . S
C5 O8 1.252 . S
C5 O9 1.260 . S
O6 In0 2.266 . S
O6 C3 1.252 . S
O7 In0 2.326 . S
O7 C3 1.260 . S
O8 In0 2.266 . S
O8 C5 1.252 . S
O9 In0 2.326 . S
O9 C5 1.260 . S
C10 O1 1.240 . S
C10 O2 1.252 . S
O11 In0 2.294 . S
O11 C4 1.240 . S
O12 In0 2.326 . S
O12 C4 1.252 . S
In13 O14 2.294 . S
In13 O15 2.326 . S
In13 O19 2.266 . S
In13 O20 2.326 . S
In13 O21 2.266 . S
In13 O22 2.326 . S
In13 O24 2.294 . S
In13 O25 2.326 . S
O14 In13 2.294 . S
O14 C23 1.240 . S
O15 In13 2.326 . S
O15 C23 1.252 . S
C16 O19 1.252 . S
C16 O20 1.260 . S
C17 O24 1.240 . S
C17 O25 1.252 . S
C18 O21 1.252 . S
C18 O22 1.260 . S
O19 In13 2.266 . S
O19 C16 1.252 . S
O20 In13 2.326 . S
O20 C16 1.260 . S
O21 In13 2.266 . S
O21 C18 1.252 . S
O22 In13 2.326 . S
O22 C18 1.260 . S
C23 O14 1.240 . S
C23 O15 1.252 . S
O24 In13 2.294 . S
O24 C17 1.240 . S
O25 In13 2.326 . S
O25 C17 1.252 . S
In26 O27 2.294 . S
In26 O28 2.326 . S
In26 O32 2.266 . S
In26 O33 2.326 . S
In26 O34 2.266 . S
In26 O35 2.326 . S
In26 O37 2.294 . S
In26 O38 2.326 . S
O27 In26 2.294 . S
O27 C36 1.240 . S
O28 In26 2.326 . S
O28 C36 1.252 . S
C29 O32 1.252 . S
C29 O33 1.260 . S
C30 O37 1.240 . S
C30 O38 1.252 . S
C31 O34 1.252 . S
C31 O35 1.260 . S
O32 In26 2.266 . S
O32 C29 1.252 . S
O33 In26 2.326 . S
O33 C29 1.260 . S
O34 In26 2.266 . S
O34 C31 1.252 . S
O35 In26 2.326 . S
O35 C31 1.260 . S
C36 O27 1.240 . S
C36 O28 1.252 . S
O37 In26 2.294 . S
O37 C30 1.240 . S
O38 In26 2.326 . S
O38 C30 1.252 . S
In39 O40 2.294 . S
In39 O41 2.326 . S
In39 O45 2.266 . S
In39 O46 2.326 . S
In39 O47 2.266 . S
In39 O48 2.326 . S
In39 O50 2.294 . S
In39 O51 2.326 . S
O40 In39 2.294 . S
O40 C49 1.240 . S
O41 In39 2.326 . S
O41 C49 1.252 . S
C42 O45 1.252 . S
C42 O46 1.260 . S
C43 O50 1.240 . S
C43 O51 1.252 . S
C44 O47 1.252 . S
C44 O48 1.260 . S
O45 In39 2.266 . S
O45 C42 1.252 . S
O46 In39 2.326 . S
O46 C42 1.260 . S
O47 In39 2.266 . S
O47 C44 1.252 . S
O48 In39 2.326 . S
O48 C44 1.260 . S
C49 O40 1.240 . S
C49 O41 1.252 . S
O50 In39 2.294 . S
O50 C43 1.240 . S
O51 In39 2.326 . S
O51 C43 1.252 . S
In52 O53 2.294 . S
In52 O54 2.326 . S
In52 O58 2.266 . S
In52 O59 2.326 . S
In52 O60 2.266 . S
In52 O61 2.326 . S
In52 O63 2.294 . S
In52 O64 2.326 . S
O53 In52 2.294 . S
O53 C62 1.240 . S
O54 In52 2.326 . S
O54 C62 1.252 . S
C55 O58 1.252 . S
C55 O59 1.260 . S
C56 O63 1.240 . S
C56 O64 1.252 . S
C57 O60 1.252 . S
C57 O61 1.260 . S
O58 In52 2.266 . S
O58 C55 1.252 . S
O59 In52 2.326 . S
O59 C55 1.260 . S
O60 In52 2.266 . S
O60 C57 1.252 . S
O61 In52 2.326 . S
O61 C57 1.260 . S
C62 O53 1.240 . S
C62 O54 1.252 . S
O63 In52 2.294 . S
O63 C56 1.240 . S
O64 In52 2.326 . S
O64 C56 1.252 . S
In65 O66 2.294 . S
In65 O67 2.326 . S
In65 O71 2.266 . S
In65 O72 2.326 . S
In65 O73 2.266 . S
In65 O74 2.326 . S
In65 O76 2.294 . S
In65 O77 2.326 . S
O66 In65 2.294 . S
O66 C75 1.240 . S
O67 In65 2.326 . S
O67 C75 1.252 . S
C68 O71 1.252 . S
C68 O72 1.260 . S
C69 O76 1.240 . S
C69 O77 1.252 . S
C70 O73 1.252 . S
C70 O74 1.260 . S
O71 In65 2.266 . S
O71 C68 1.252 . S
O72 In65 2.326 . S
O72 C68 1.260 . S
O73 In65 2.266 . S
O73 C70 1.252 . S
O74 In65 2.326 . S
O74 C70 1.260 . S
C75 O66 1.240 . S
C75 O67 1.252 . S
O76 In65 2.294 . S
O76 C69 1.240 . S
O77 In65 2.326 . S
O77 C69 1.252 . S
In78 O79 2.294 . S
In78 O80 2.326 . S
In78 O84 2.266 . S
In78 O85 2.326 . S
In78 O86 2.266 . S
In78 O87 2.326 . S
In78 O89 2.294 . S
In78 O90 2.326 . S
O79 In78 2.294 . S
O79 C88 1.240 . S
O80 In78 2.326 . S
O80 C88 1.252 . S
C81 O84 1.252 . S
C81 O85 1.260 . S
C82 O89 1.240 . S
C82 O90 1.252 . S
C83 O86 1.252 . S
C83 O87 1.260 . S
O84 In78 2.266 . S
O84 C81 1.252 . S
O85 In78 2.326 . S
O85 C81 1.260 . S
O86 In78 2.266 . S
O86 C83 1.252 . S
O87 In78 2.326 . S
O87 C83 1.260 . S
C88 O79 1.240 . S
C88 O80 1.252 . S
O89 In78 2.294 . S
O89 C82 1.240 . S
O90 In78 2.326 . S
O90 C82 1.252 . S
In91 O92 2.294 . S
In91 O93 2.326 . S
In91 O97 2.266 . S
In91 O98 2.326 . S
In91 O99 2.266 . S
In91 O100 2.326 . S
In91 O102 2.294 . S
In91 O103 2.326 . S
O92 In91 2.294 . S
O92 C101 1.240 . S
O93 In91 2.326 . S
O93 C101 1.252 . S
C94 O97 1.252 . S
C94 O98 1.260 . S
C95 O102 1.240 . S
C95 O103 1.252 . S
C96 O99 1.252 . S
C96 O100 1.260 . S
O97 In91 2.266 . S
O97 C94 1.252 . S
O98 In91 2.326 . S
O98 C94 1.260 . S
O99 In91 2.266 . S
O99 C96 1.252 . S
O100 In91 2.326 . S
O100 C96 1.260 . S
C101 O92 1.240 . S
C101 O93 1.252 . S
O102 In91 2.294 . S
O102 C95 1.240 . S
O103 In91 2.326 . S
O103 C95 1.252 . S
In104 O105 2.294 . S
In104 O106 2.326 . S
In104 O110 2.266 . S
In104 O111 2.326 . S
In104 O112 2.266 . S
In104 O113 2.326 . S
In104 O115 2.294 . S
In104 O116 2.326 . S
O105 In104 2.294 . S
O105 C114 1.240 . S
O106 In104 2.326 . S
O106 C114 1.252 . S
C107 O110 1.252 . S
C107 O111 1.260 . S
C108 O115 1.240 . S
C108 O116 1.252 . S
C109 O112 1.252 . S
C109 O113 1.260 . S
O110 In104 2.266 . S
O110 C107 1.252 . S
O111 In104 2.326 . S
O111 C107 1.260 . S
O112 In104 2.266 . S
O112 C109 1.252 . S
O113 In104 2.326 . S
O113 C109 1.260 . S
C114 O105 1.240 . S
C114 O106 1.252 . S
O115 In104 2.294 . S
O115 C108 1.240 . S
O116 In104 2.326 . S
O116 C108 1.252 . S
In117 O118 2.294 . S
In117 O119 2.326 . S
In117 O123 2.266 . S
In117 O124 2.326 . S
In117 O125 2.266 . S
In117 O126 2.326 . S
In117 O128 2.294 . S
In117 O129 2.326 . S
O118 In117 2.294 . S
O118 C127 1.240 . S
O119 In117 2.326 . S
O119 C127 1.252 . S
C120 O123 1.252 . S
C120 O124 1.260 . S
C121 O128 1.240 . S
C121 O129 1.252 . S
C122 O125 1.252 . S
C122 O126 1.260 . S
O123 In117 2.266 . S
O123 C120 1.252 . S
O124 In117 2.326 . S
O124 C120 1.260 . S
O125 In117 2.266 . S
O125 C122 1.252 . S
O126 In117 2.326 . S
O126 C122 1.260 . S
C127 O118 1.240 . S
C127 O119 1.252 . S
O128 In117 2.294 . S
O128 C121 1.240 . S
O129 In117 2.326 . S
O129 C121 1.252 . S
In130 O131 2.294 . S
In130 O132 2.326 . S
In130 O136 2.266 . S
In130 O137 2.326 . S
In130 O138 2.266 . S
In130 O139 2.326 . S
In130 O141 2.294 . S
In130 O142 2.326 . S
O131 In130 2.294 . S
O131 C140 1.240 . S
O132 In130 2.326 . S
O132 C140 1.252 . S
C133 O136 1.252 . S
C133 O137 1.260 . S
C134 O141 1.240 . S
C134 O142 1.252 . S
C135 O138 1.252 . S
C135 O139 1.260 . S
O136 In130 2.266 . S
O136 C133 1.252 . S
O137 In130 2.326 . S
O137 C133 1.260 . S
O138 In130 2.266 . S
O138 C135 1.252 . S
O139 In130 2.326 . S
O139 C135 1.260 . S
C140 O131 1.240 . S
C140 O132 1.252 . S
O141 In130 2.294 . S
O141 C134 1.240 . S
O142 In130 2.326 . S
O142 C134 1.252 . S
In143 O144 2.294 . S
In143 O145 2.326 . S
In143 O149 2.266 . S
In143 O150 2.326 . S
In143 O151 2.266 . S
In143 O152 2.326 . S
In143 O154 2.294 . S
In143 O155 2.326 . S
O144 In143 2.294 . S
O144 C153 1.240 . S
O145 In143 2.326 . S
O145 C153 1.252 . S
C146 O149 1.252 . S
C146 O150 1.260 . S
C147 O154 1.240 . S
C147 O155 1.252 . S
C148 O151 1.252 . S
C148 O152 1.260 . S
O149 In143 2.266 . S
O149 C146 1.252 . S
O150 In143 2.326 . S
O150 C146 1.260 . S
O151 In143 2.266 . S
O151 C148 1.252 . S
O152 In143 2.326 . S
O152 C148 1.260 . S
C153 O144 1.240 . S
C153 O145 1.252 . S
O154 In143 2.294 . S
O154 C147 1.240 . S
O155 In143 2.326 . S
O155 C147 1.252 . S
In156 O157 2.294 . S
In156 O158 2.326 . S
In156 O162 2.266 . S
In156 O163 2.326 . S
In156 O164 2.266 . S
In156 O165 2.326 . S
In156 O167 2.294 . S
In156 O168 2.326 . S
O157 In156 2.294 . S
O157 C166 1.240 . S
O158 In156 2.326 . S
O158 C166 1.252 . S
C159 O162 1.252 . S
C159 O163 1.260 . S
C160 O167 1.240 . S
C160 O168 1.252 . S
C161 O164 1.252 . S
C161 O165 1.260 . S
O162 In156 2.266 . S
O162 C159 1.252 . S
O163 In156 2.326 . S
O163 C159 1.260 . S
O164 In156 2.266 . S
O164 C161 1.252 . S
O165 In156 2.326 . S
O165 C161 1.260 . S
C166 O157 1.240 . S
C166 O158 1.252 . S
O167 In156 2.294 . S
O167 C160 1.240 . S
O168 In156 2.326 . S
O168 C160 1.252 . S
In169 O170 2.294 . S
In169 O171 2.326 . S
In169 O175 2.266 . S
In169 O176 2.326 . S
In169 O177 2.266 . S
In169 O178 2.326 . S
In169 O180 2.294 . S
In169 O181 2.326 . S
O170 In169 2.294 . S
O170 C179 1.240 . S
O171 In169 2.326 . S
O171 C179 1.252 . S
C172 O175 1.252 . S
C172 O176 1.260 . S
C173 O180 1.240 . S
C173 O181 1.252 . S
C174 O177 1.252 . S
C174 O178 1.260 . S
O175 In169 2.266 . S
O175 C172 1.252 . S
O176 In169 2.326 . S
O176 C172 1.260 . S
O177 In169 2.266 . S
O177 C174 1.252 . S
O178 In169 2.326 . S
O178 C174 1.260 . S
C179 O170 1.240 . S
C179 O171 1.252 . S
O180 In169 2.294 . S
O180 C173 1.240 . S
O181 In169 2.326 . S
O181 C173 1.252 . S
In182 O183 2.294 . S
In182 O184 2.326 . S
In182 O188 2.266 . S
In182 O189 2.326 . S
In182 O190 2.266 . S
In182 O191 2.326 . S
In182 O193 2.294 . S
In182 O194 2.326 . S
O183 In182 2.294 . S
O183 C192 1.240 . S
O184 In182 2.326 . S
O184 C192 1.252 . S
C185 O188 1.252 . S
C185 O189 1.260 . S
C186 O193 1.240 . S
C186 O194 1.252 . S
C187 O190 1.252 . S
C187 O191 1.260 . S
O188 In182 2.266 . S
O188 C185 1.252 . S
O189 In182 2.326 . S
O189 C185 1.260 . S
O190 In182 2.266 . S
O190 C187 1.252 . S
O191 In182 2.326 . S
O191 C187 1.260 . S
C192 O183 1.240 . S
C192 O184 1.252 . S
O193 In182 2.294 . S
O193 C186 1.240 . S
O194 In182 2.326 . S
O194 C186 1.252 . S
In195 O196 2.294 . S
In195 O197 2.326 . S
In195 O201 2.266 . S
In195 O202 2.326 . S
In195 O203 2.266 . S
In195 O204 2.326 . S
In195 O206 2.294 . S
In195 O207 2.326 . S
O196 In195 2.294 . S
O196 C205 1.240 . S
O197 In195 2.326 . S
O197 C205 1.252 . S
C198 O201 1.252 . S
C198 O202 1.260 . S
C199 O206 1.240 . S
C199 O207 1.252 . S
C200 O203 1.252 . S
C200 O204 1.260 . S
O201 In195 2.266 . S
O201 C198 1.252 . S
O202 In195 2.326 . S
O202 C198 1.260 . S
O203 In195 2.266 . S
O203 C200 1.252 . S
O204 In195 2.326 . S
O204 C200 1.260 . S
C205 O196 1.240 . S
C205 O197 1.252 . S
O206 In195 2.294 . S
O206 C199 1.240 . S
O207 In195 2.326 . S
O207 C199 1.252 . S
H208 C216 0.950 . S
H209 C221 0.950 . S
H210 C218 0.950 . S
H211 C220 0.950 . S
H212 C222 0.950 . S
H213 C224 0.950 . S
H214 C226 0.950 . S
H215 C227 0.950 . S
C216 H208 0.950 . S
C216 C217 1.386 . S
C216 C218 1.391 . S
C217 C216 1.386 . S
C217 C221 1.393 . S
C218 H210 0.950 . S
C218 C216 1.391 . S
C218 C219 1.400 . S
C219 C218 1.400 . S
C219 C220 1.398 . S
C219 C225 1.491 1_556 S
C220 H211 0.950 . S
C220 C219 1.398 . S
C220 C221 1.391 . S
C221 H209 0.950 . S
C221 C217 1.393 . S
C221 C220 1.391 . S
C222 H212 0.950 . S
C222 C223 1.386 . S
C222 C224 1.391 . S
C223 C222 1.386 . S
C223 C227 1.393 . S
C224 H213 0.950 . S
C224 C222 1.391 . S
C224 C225 1.400 . S
C225 C219 1.491 1_554 S
C225 C224 1.400 . S
C225 C226 1.398 . S
C226 H214 0.950 . S
C226 C225 1.398 . S
C226 C227 1.391 . S
C227 H215 0.950 . S
C227 C223 1.393 . S
C227 C226 1.391 . S
H228 C236 0.950 . S
H229 C241 0.950 . S
H230 C238 0.950 . S
H231 C240 0.950 . S
H232 C242 0.950 . S
H233 C244 0.950 . S
H234 C246 0.950 . S
H235 C247 0.950 . S
C236 H228 0.950 . S
C236 C237 1.386 . S
C236 C238 1.391 . S
C237 C236 1.386 . S
C237 C241 1.393 . S
C238 H230 0.950 . S
C238 C236 1.391 . S
C238 C239 1.400 . S
C239 C238 1.400 . S
C239 C240 1.398 . S
C239 C245 1.491 . S
C240 H231 0.950 . S
C240 C239 1.398 . S
C240 C241 1.391 . S
C241 H229 0.950 . S
C241 C237 1.393 . S
C241 C240 1.391 . S
C242 H232 0.950 . S
C242 C243 1.386 . S
C242 C244 1.391 . S
C243 C242 1.386 . S
C243 C247 1.393 . S
C244 H233 0.950 . S
C244 C242 1.391 . S
C244 C245 1.400 . S
C245 C239 1.491 . S
C245 C244 1.400 . S
C245 C246 1.398 . S
C246 H234 0.950 . S
C246 C245 1.398 . S
C246 C247 1.391 . S
C247 H235 0.950 . S
C247 C243 1.393 . S
C247 C246 1.391 . S
H248 C256 0.950 . S
H249 C261 0.950 . S
H250 C258 0.950 . S
H251 C260 0.950 . S
H252 C262 0.950 . S
H253 C264 0.950 . S
H254 C266 0.950 . S
H255 C267 0.950 . S
C256 H248 0.950 . S
C256 C257 1.386 . S
C256 C258 1.391 . S
C257 C256 1.386 . S
C257 C261 1.393 . S
C258 H250 0.950 . S
C258 C256 1.391 . S
C258 C259 1.400 . S
C259 C258 1.400 . S
C259 C260 1.398 . S
C259 C265 1.491 1_556 S
C260 H251 0.950 . S
C260 C259 1.398 . S
C260 C261 1.391 . S
C261 H249 0.950 . S
C261 C257 1.393 . S
C261 C260 1.391 . S
C262 H252 0.950 . S
C262 C263 1.386 . S
C262 C264 1.391 . S
C263 C262 1.386 . S
C263 C267 1.393 . S
C264 H253 0.950 . S
C264 C262 1.391 . S
C264 C265 1.400 . S
C265 C259 1.491 1_554 S
C265 C264 1.400 . S
C265 C266 1.398 . S
C266 H254 0.950 . S
C266 C265 1.398 . S
C266 C267 1.391 . S
C267 H255 0.950 . S
C267 C263 1.393 . S
C267 C266 1.391 . S
H268 C276 0.950 . S
H269 C281 0.950 . S
H270 C278 0.950 . S
H271 C280 0.950 . S
H272 C282 0.950 . S
H273 C284 0.950 . S
H274 C286 0.950 . S
H275 C287 0.950 . S
C276 H268 0.950 . S
C276 C277 1.386 . S
C276 C278 1.391 . S
C277 C276 1.386 . S
C277 C281 1.393 . S
C278 H270 0.950 . S
C278 C276 1.391 . S
C278 C279 1.400 . S
C279 C278 1.400 . S
C279 C280 1.398 . S
C279 C285 1.491 . S
C280 H271 0.950 . S
C280 C279 1.398 . S
C280 C281 1.391 . S
C281 H269 0.950 . S
C281 C277 1.393 . S
C281 C280 1.391 . S
C282 H272 0.950 . S
C282 C283 1.386 . S
C282 C284 1.391 . S
C283 C282 1.386 . S
C283 C287 1.393 . S
C284 H273 0.950 . S
C284 C282 1.391 . S
C284 C285 1.400 . S
C285 C279 1.491 . S
C285 C284 1.400 . S
C285 C286 1.398 . S
C286 H274 0.950 . S
C286 C285 1.398 . S
C286 C287 1.391 . S
C287 H275 0.950 . S
C287 C283 1.393 . S
C287 C286 1.391 . S
H288 C296 0.950 . S
H289 C301 0.950 . S
H290 C298 0.950 . S
H291 C300 0.950 . S
H292 C302 0.950 . S
H293 C304 0.950 . S
H294 C306 0.950 . S
H295 C307 0.950 . S
C296 H288 0.950 . S
C296 C297 1.386 . S
C296 C298 1.391 . S
C297 C296 1.386 . S
C297 C301 1.393 . S
C298 H290 0.950 . S
C298 C296 1.391 . S
C298 C299 1.400 . S
C299 C298 1.400 . S
C299 C300 1.398 . S
C299 C305 1.491 1_554 S
C300 H291 0.950 . S
C300 C299 1.398 . S
C300 C301 1.391 . S
C301 H289 0.950 . S
C301 C297 1.393 . S
C301 C300 1.391 . S
C302 H292 0.950 . S
C302 C303 1.386 . S
C302 C304 1.391 . S
C303 C302 1.386 . S
C303 C307 1.393 . S
C304 H293 0.950 . S
C304 C302 1.391 . S
C304 C305 1.400 . S
C305 C299 1.491 1_556 S
C305 C304 1.400 . S
C305 C306 1.398 . S
C306 H294 0.950 . S
C306 C305 1.398 . S
C306 C307 1.391 . S
C307 H295 0.950 . S
C307 C303 1.393 . S
C307 C306 1.391 . S
H308 C316 0.950 . S
H309 C321 0.950 . S
H310 C318 0.950 . S
H311 C320 0.950 . S
H312 C322 0.950 . S
H313 C324 0.950 . S
H314 C326 0.950 . S
H315 C327 0.950 . S
C316 H308 0.950 . S
C316 C317 1.386 . S
C316 C318 1.391 . S
C317 C316 1.386 . S
C317 C321 1.393 . S
C318 H310 0.950 . S
C318 C316 1.391 . S
C318 C319 1.400 . S
C319 C318 1.400 . S
C319 C320 1.398 . S
C319 C325 1.491 . S
C320 H311 0.950 . S
C320 C319 1.398 . S
C320 C321 1.391 . S
C321 H309 0.950 . S
C321 C317 1.393 . S
C321 C320 1.391 . S
C322 H312 0.950 . S
C322 C323 1.386 . S
C322 C324 1.391 . S
C323 C322 1.386 . S
C323 C327 1.393 . S
C324 H313 0.950 . S
C324 C322 1.391 . S
C324 C325 1.400 . S
C325 C319 1.491 . S
C325 C324 1.400 . S
C325 C326 1.398 . S
C326 H314 0.950 . S
C326 C325 1.398 . S
C326 C327 1.391 . S
C327 H315 0.950 . S
C327 C323 1.393 . S
C327 C326 1.391 . S
H328 C336 0.950 . S
H329 C341 0.950 . S
H330 C338 0.950 . S
H331 C340 0.950 . S
H332 C342 0.950 . S
H333 C344 0.950 . S
H334 C346 0.950 . S
H335 C347 0.950 . S
C336 H328 0.950 . S
C336 C337 1.386 . S
C336 C338 1.391 . S
C337 C336 1.386 . S
C337 C341 1.393 . S
C338 H330 0.950 . S
C338 C336 1.391 . S
C338 C339 1.400 . S
C339 C338 1.400 . S
C339 C340 1.398 . S
C339 C345 1.491 1_556 S
C340 H331 0.950 . S
C340 C339 1.398 . S
C340 C341 1.391 . S
C341 H329 0.950 . S
C341 C337 1.393 . S
C341 C340 1.391 . S
C342 H332 0.950 . S
C342 C343 1.386 . S
C342 C344 1.391 . S
C343 C342 1.386 . S
C343 C347 1.393 . S
C344 H333 0.950 . S
C344 C342 1.391 . S
C344 C345 1.400 . S
C345 C339 1.491 1_554 S
C345 C344 1.400 . S
C345 C346 1.398 . S
C346 H334 0.950 . S
C346 C345 1.398 . S
C346 C347 1.391 . S
C347 H335 0.950 . S
C347 C343 1.393 . S
C347 C346 1.391 . S
H348 C356 0.950 . S
H349 C361 0.950 . S
H350 C358 0.950 . S
H351 C360 0.950 . S
H352 C362 0.950 . S
H353 C364 0.950 . S
H354 C366 0.950 . S
H355 C367 0.950 . S
C356 H348 0.950 . S
C356 C357 1.386 . S
C356 C358 1.391 . S
C357 C356 1.386 . S
C357 C361 1.393 . S
C358 H350 0.950 . S
C358 C356 1.391 . S
C358 C359 1.400 . S
C359 C358 1.400 . S
C359 C360 1.398 . S
C359 C365 1.491 . S
C360 H351 0.950 . S
C360 C359 1.398 . S
C360 C361 1.391 . S
C361 H349 0.950 . S
C361 C357 1.393 . S
C361 C360 1.391 . S
C362 H352 0.950 . S
C362 C363 1.386 . S
C362 C364 1.391 . S
C363 C362 1.386 . S
C363 C367 1.393 . S
C364 H353 0.950 . S
C364 C362 1.391 . S
C364 C365 1.400 . S
C365 C359 1.491 . S
C365 C364 1.400 . S
C365 C366 1.398 . S
C366 H354 0.950 . S
C366 C365 1.398 . S
C366 C367 1.391 . S
C367 H355 0.950 . S
C367 C363 1.393 . S
C367 C366 1.391 . S
H368 C376 0.950 . S
H369 C381 0.950 . S
H370 C378 0.950 . S
H371 C380 0.950 . S
H372 C382 0.950 . S
H373 C384 0.950 . S
H374 C386 0.950 . S
H375 C387 0.950 . S
C376 H368 0.950 . S
C376 C377 1.386 . S
C376 C378 1.391 . S
C377 C376 1.386 . S
C377 C381 1.393 . S
C378 H370 0.950 . S
C378 C376 1.391 . S
C378 C379 1.400 . S
C379 C378 1.400 . S
C379 C380 1.398 . S
C379 C385 1.491 . S
C380 H371 0.950 . S
C380 C379 1.398 . S
C380 C381 1.391 . S
C381 H369 0.950 . S
C381 C377 1.393 . S
C381 C380 1.391 . S
C382 H372 0.950 . S
C382 C383 1.386 . S
C382 C384 1.391 . S
C383 C382 1.386 . S
C383 C387 1.393 . S
C384 H373 0.950 . S
C384 C382 1.391 . S
C384 C385 1.400 . S
C385 C379 1.491 . S
C385 C384 1.400 . S
C385 C386 1.398 . S
C386 H374 0.950 . S
C386 C385 1.398 . S
C386 C387 1.391 . S
C387 H375 0.950 . S
C387 C383 1.393 . S
C387 C386 1.391 . S
H388 C396 0.950 . S
H389 C401 0.950 . S
H390 C398 0.950 . S
H391 C400 0.950 . S
H392 C402 0.950 . S
H393 C404 0.950 . S
H394 C406 0.950 . S
H395 C407 0.950 . S
C396 H388 0.950 . S
C396 C397 1.386 . S
C396 C398 1.391 . S
C397 C396 1.386 . S
C397 C401 1.393 . S
C398 H390 0.950 . S
C398 C396 1.391 . S
C398 C399 1.400 . S
C399 C398 1.400 . S
C399 C400 1.398 . S
C399 C405 1.491 . S
C400 H391 0.950 . S
C400 C399 1.398 . S
C400 C401 1.391 . S
C401 H389 0.950 . S
C401 C397 1.393 . S
C401 C400 1.391 . S
C402 H392 0.950 . S
C402 C403 1.386 . S
C402 C404 1.391 . S
C403 C402 1.386 . S
C403 C407 1.393 . S
C404 H393 0.950 . S
C404 C402 1.391 . S
C404 C405 1.400 . S
C405 C399 1.491 . S
C405 C404 1.400 . S
C405 C406 1.398 . S
C406 H394 0.950 . S
C406 C405 1.398 . S
C406 C407 1.391 . S
C407 H395 0.950 . S
C407 C403 1.393 . S
C407 C406 1.391 . S
H408 C416 0.950 . S
H409 C421 0.950 . S
H410 C418 0.950 . S
H411 C420 0.950 . S
H412 C422 0.950 . S
H413 C424 0.950 . S
H414 C426 0.950 . S
H415 C427 0.950 . S
C416 H408 0.950 . S
C416 C417 1.386 . S
C416 C418 1.391 . S
C417 C416 1.386 . S
C417 C421 1.393 . S
C418 H410 0.950 . S
C418 C416 1.391 . S
C418 C419 1.400 . S
C419 C418 1.400 . S
C419 C420 1.398 . S
C419 C425 1.491 . S
C420 H411 0.950 . S
C420 C419 1.398 . S
C420 C421 1.391 . S
C421 H409 0.950 . S
C421 C417 1.393 . S
C421 C420 1.391 . S
C422 H412 0.950 . S
C422 C423 1.386 . S
C422 C424 1.391 . S
C423 C422 1.386 . S
C423 C427 1.393 . S
C424 H413 0.950 . S
C424 C422 1.391 . S
C424 C425 1.400 . S
C425 C419 1.491 . S
C425 C424 1.400 . S
C425 C426 1.398 . S
C426 H414 0.950 . S
C426 C425 1.398 . S
C426 C427 1.391 . S
C427 H415 0.950 . S
C427 C423 1.393 . S
C427 C426 1.391 . S
H428 C436 0.950 . S
H429 C441 0.950 . S
H430 C438 0.950 . S
H431 C440 0.950 . S
H432 C442 0.950 . S
H433 C444 0.950 . S
H434 C446 0.950 . S
H435 C447 0.950 . S
C436 H428 0.950 . S
C436 C437 1.386 . S
C436 C438 1.391 . S
C437 C436 1.386 . S
C437 C441 1.393 . S
C438 H430 0.950 . S
C438 C436 1.391 . S
C438 C439 1.400 . S
C439 C438 1.400 . S
C439 C440 1.398 . S
C439 C445 1.491 . S
C440 H431 0.950 . S
C440 C439 1.398 . S
C440 C441 1.391 . S
C441 H429 0.950 . S
C441 C437 1.393 . S
C441 C440 1.391 . S
C442 H432 0.950 . S
C442 C443 1.386 . S
C442 C444 1.391 . S
C443 C442 1.386 . S
C443 C447 1.393 . S
C444 H433 0.950 . S
C444 C442 1.391 . S
C444 C445 1.400 . S
C445 C439 1.491 . S
C445 C444 1.400 . S
C445 C446 1.398 . S
C446 H434 0.950 . S
C446 C445 1.398 . S
C446 C447 1.391 . S
C447 H435 0.950 . S
C447 C443 1.393 . S
C447 C446 1.391 . S
H448 C456 0.950 . S
H449 C461 0.950 . S
H450 C458 0.950 . S
H451 C460 0.950 . S
H452 C462 0.950 . S
H453 C464 0.950 . S
H454 C466 0.950 . S
H455 C467 0.950 . S
C456 H448 0.950 . S
C456 C457 1.386 . S
C456 C458 1.391 . S
C457 C456 1.386 . S
C457 C461 1.393 . S
C458 H450 0.950 . S
C458 C456 1.391 . S
C458 C459 1.400 . S
C459 C458 1.400 . S
C459 C460 1.398 . S
C459 C465 1.491 . S
C460 H451 0.950 . S
C460 C459 1.398 . S
C460 C461 1.391 . S
C461 H449 0.950 . S
C461 C457 1.393 . S
C461 C460 1.391 . S
C462 H452 0.950 . S
C462 C463 1.386 . S
C462 C464 1.391 . S
C463 C462 1.386 . S
C463 C467 1.393 . S
C464 H453 0.950 . S
C464 C462 1.391 . S
C464 C465 1.400 . S
C465 C459 1.491 . S
C465 C464 1.400 . S
C465 C466 1.398 . S
C466 H454 0.950 . S
C466 C465 1.398 . S
C466 C467 1.391 . S
C467 H455 0.950 . S
C467 C463 1.393 . S
C467 C466 1.391 . S
H468 C476 0.950 . S
H469 C481 0.950 . S
H470 C478 0.950 . S
H471 C480 0.950 . S
H472 C482 0.950 . S
H473 C484 0.950 . S
H474 C486 0.950 . S
H475 C487 0.950 . S
C476 H468 0.950 . S
C476 C477 1.386 . S
C476 C478 1.391 . S
C477 C476 1.386 . S
C477 C481 1.393 . S
C478 H470 0.950 . S
C478 C476 1.391 . S
C478 C479 1.400 . S
C479 C478 1.400 . S
C479 C480 1.398 . S
C479 C485 1.491 . S
C480 H471 0.950 . S
C480 C479 1.398 . S
C480 C481 1.391 . S
C481 H469 0.950 . S
C481 C477 1.393 . S
C481 C480 1.391 . S
C482 H472 0.950 . S
C482 C483 1.386 . S
C482 C484 1.391 . S
C483 C482 1.386 . S
C483 C487 1.393 . S
C484 H473 0.950 . S
C484 C482 1.391 . S
C484 C485 1.400 . S
C485 C479 1.491 . S
C485 C484 1.400 . S
C485 C486 1.398 . S
C486 H474 0.950 . S
C486 C485 1.398 . S
C486 C487 1.391 . S
C487 H475 0.950 . S
C487 C483 1.393 . S
C487 C486 1.391 . S
H488 C496 0.950 . S
H489 C501 0.950 . S
H490 C498 0.950 . S
H491 C500 0.950 . S
H492 C502 0.950 . S
H493 C504 0.950 . S
H494 C506 0.950 . S
H495 C507 0.950 . S
C496 H488 0.950 . S
C496 C497 1.386 . S
C496 C498 1.391 . S
C497 C496 1.386 . S
C497 C501 1.393 . S
C498 H490 0.950 . S
C498 C496 1.391 . S
C498 C499 1.400 . S
C499 C498 1.400 . S
C499 C500 1.398 . S
C499 C505 1.491 . S
C500 H491 0.950 . S
C500 C499 1.398 . S
C500 C501 1.391 . S
C501 H489 0.950 . S
C501 C497 1.393 . S
C501 C500 1.391 . S
C502 H492 0.950 . S
C502 C503 1.386 . S
C502 C504 1.391 . S
C503 C502 1.386 . S
C503 C507 1.393 . S
C504 H493 0.950 . S
C504 C502 1.391 . S
C504 C505 1.400 . S
C505 C499 1.491 . S
C505 C504 1.400 . S
C505 C506 1.398 . S
C506 H494 0.950 . S
C506 C505 1.398 . S
C506 C507 1.391 . S
C507 H495 0.950 . S
C507 C503 1.393 . S
C507 C506 1.391 . S
H508 C516 0.950 . S
H509 C521 0.950 . S
H510 C518 0.950 . S
H511 C520 0.950 . S
H512 C522 0.950 . S
H513 C524 0.950 . S
H514 C526 0.950 . S
H515 C527 0.950 . S
C516 H508 0.950 . S
C516 C517 1.386 . S
C516 C518 1.391 . S
C517 C516 1.386 . S
C517 C521 1.393 . S
C518 H510 0.950 . S
C518 C516 1.391 . S
C518 C519 1.400 . S
C519 C518 1.400 . S
C519 C520 1.398 . S
C519 C525 1.491 . S
C520 H511 0.950 . S
C520 C519 1.398 . S
C520 C521 1.391 . S
C521 H509 0.950 . S
C521 C517 1.393 . S
C521 C520 1.391 . S
C522 H512 0.950 . S
C522 C523 1.386 . S
C522 C524 1.391 . S
C523 C522 1.386 . S
C523 C527 1.393 . S
C524 H513 0.950 . S
C524 C522 1.391 . S
C524 C525 1.400 . S
C525 C519 1.491 . S
C525 C524 1.400 . S
C525 C526 1.398 . S
C526 H514 0.950 . S
C526 C525 1.398 . S
C526 C527 1.391 . S
C527 H515 0.950 . S
C527 C523 1.393 . S
C527 C526 1.391 . S
H528 C536 0.950 . S
H529 C541 0.950 . S
H530 C538 0.950 . S
H531 C540 0.950 . S
H532 C542 0.950 . S
H533 C544 0.950 . S
H534 C546 0.950 . S
H535 C547 0.950 . S
C536 H528 0.950 . S
C536 C537 1.386 . S
C536 C538 1.391 . S
C537 C536 1.386 . S
C537 C541 1.393 . S
C538 H530 0.950 . S
C538 C536 1.391 . S
C538 C539 1.400 . S
C539 C538 1.400 . S
C539 C540 1.398 . S
C539 C545 1.491 . S
C540 H531 0.950 . S
C540 C539 1.398 . S
C540 C541 1.391 . S
C541 H529 0.950 . S
C541 C537 1.393 . S
C541 C540 1.391 . S
C542 H532 0.950 . S
C542 C543 1.386 . S
C542 C544 1.391 . S
C543 C542 1.386 . S
C543 C547 1.393 . S
C544 H533 0.950 . S
C544 C542 1.391 . S
C544 C545 1.400 . S
C545 C539 1.491 . S
C545 C544 1.400 . S
C545 C546 1.398 . S
C546 H534 0.950 . S
C546 C545 1.398 . S
C546 C547 1.391 . S
C547 H535 0.950 . S
C547 C543 1.393 . S
C547 C546 1.391 . S
H548 C556 0.950 . S
H549 C561 0.950 . S
H550 C558 0.950 . S
H551 C560 0.950 . S
H552 C562 0.950 . S
H553 C564 0.950 . S
H554 C566 0.950 . S
H555 C567 0.950 . S
C556 H548 0.950 . S
C556 C557 1.386 . S
C556 C558 1.391 . S
C557 C556 1.386 . S
C557 C561 1.393 . S
C558 H550 0.950 . S
C558 C556 1.391 . S
C558 C559 1.400 . S
C559 C558 1.400 . S
C559 C560 1.398 . S
C559 C565 1.491 . S
C560 H551 0.950 . S
C560 C559 1.398 . S
C560 C561 1.391 . S
C561 H549 0.950 . S
C561 C557 1.393 . S
C561 C560 1.391 . S
C562 H552 0.950 . S
C562 C563 1.386 . S
C562 C564 1.391 . S
C563 C562 1.386 . S
C563 C567 1.393 . S
C564 H553 0.950 . S
C564 C562 1.391 . S
C564 C565 1.400 . S
C565 C559 1.491 . S
C565 C564 1.400 . S
C565 C566 1.398 . S
C566 H554 0.950 . S
C566 C565 1.398 . S
C566 C567 1.391 . S
C567 H555 0.950 . S
C567 C563 1.393 . S
C567 C566 1.391 . S
H568 C576 0.950 . S
H569 C581 0.950 . S
H570 C578 0.950 . S
H571 C580 0.950 . S
H572 C582 0.950 . S
H573 C584 0.950 . S
H574 C586 0.950 . S
H575 C587 0.950 . S
C576 H568 0.950 . S
C576 C577 1.386 . S
C576 C578 1.391 . S
C577 C576 1.386 . S
C577 C581 1.393 . S
C578 H570 0.950 . S
C578 C576 1.391 . S
C578 C579 1.400 . S
C579 C578 1.400 . S
C579 C580 1.398 . S
C579 C585 1.491 . S
C580 H571 0.950 . S
C580 C579 1.398 . S
C580 C581 1.391 . S
C581 H569 0.950 . S
C581 C577 1.393 . S
C581 C580 1.391 . S
C582 H572 0.950 . S
C582 C583 1.386 . S
C582 C584 1.391 . S
C583 C582 1.386 . S
C583 C587 1.393 . S
C584 H573 0.950 . S
C584 C582 1.391 . S
C584 C585 1.400 . S
C585 C579 1.491 . S
C585 C584 1.400 . S
C585 C586 1.398 . S
C586 H574 0.950 . S
C586 C585 1.398 . S
C586 C587 1.391 . S
C587 H575 0.950 . S
C587 C583 1.393 . S
C587 C586 1.391 . S
H588 C596 0.950 . S
H589 C601 0.950 . S
H590 C598 0.950 . S
H591 C600 0.950 . S
H592 C602 0.950 . S
H593 C604 0.950 . S
H594 C606 0.950 . S
H595 C607 0.950 . S
C596 H588 0.950 . S
C596 C597 1.386 . S
C596 C598 1.391 . S
C597 C596 1.386 . S
C597 C601 1.393 . S
C598 H590 0.950 . S
C598 C596 1.391 . S
C598 C599 1.400 . S
C599 C598 1.400 . S
C599 C600 1.398 . S
C599 C605 1.491 . S
C600 H591 0.950 . S
C600 C599 1.398 . S
C600 C601 1.391 . S
C601 H589 0.950 . S
C601 C597 1.393 . S
C601 C600 1.391 . S
C602 H592 0.950 . S
C602 C603 1.386 . S
C602 C604 1.391 . S
C603 C602 1.386 . S
C603 C607 1.393 . S
C604 H593 0.950 . S
C604 C602 1.391 . S
C604 C605 1.400 . S
C605 C599 1.491 . S
C605 C604 1.400 . S
C605 C606 1.398 . S
C606 H594 0.950 . S
C606 C605 1.398 . S
C606 C607 1.391 . S
C607 H595 0.950 . S
C607 C603 1.393 . S
C607 C606 1.391 . S
H608 C616 0.950 . S
H609 C621 0.950 . S
H610 C618 0.950 . S
H611 C620 0.950 . S
H612 C622 0.950 . S
H613 C624 0.950 . S
H614 C626 0.950 . S
H615 C627 0.950 . S
C616 H608 0.950 . S
C616 C617 1.386 . S
C616 C618 1.391 . S
C617 C616 1.386 . S
C617 C621 1.393 . S
C618 H610 0.950 . S
C618 C616 1.391 . S
C618 C619 1.400 . S
C619 C618 1.400 . S
C619 C620 1.398 . S
C619 C625 1.491 . S
C620 H611 0.950 . S
C620 C619 1.398 . S
C620 C621 1.391 . S
C621 H609 0.950 . S
C621 C617 1.393 . S
C621 C620 1.391 . S
C622 H612 0.950 . S
C622 C623 1.386 . S
C622 C624 1.391 . S
C623 C622 1.386 . S
C623 C627 1.393 . S
C624 H613 0.950 . S
C624 C622 1.391 . S
C624 C625 1.400 . S
C625 C619 1.491 . S
C625 C624 1.400 . S
C625 C626 1.398 . S
C626 H614 0.950 . S
C626 C625 1.398 . S
C626 C627 1.391 . S
C627 H615 0.950 . S
C627 C623 1.393 . S
C627 C626 1.391 . S
H628 C636 0.950 . S
H629 C641 0.950 . S
H630 C638 0.950 . S
H631 C640 0.950 . S
H632 C642 0.950 . S
H633 C644 0.950 . S
H634 C646 0.950 . S
H635 C647 0.950 . S
C636 H628 0.950 . S
C636 C637 1.386 . S
C636 C638 1.391 . S
C637 C636 1.386 . S
C637 C641 1.393 . S
C638 H630 0.950 . S
C638 C636 1.391 . S
C638 C639 1.400 . S
C639 C638 1.400 . S
C639 C640 1.398 . S
C639 C645 1.491 . S
C640 H631 0.950 . S
C640 C639 1.398 . S
C640 C641 1.391 . S
C641 H629 0.950 . S
C641 C637 1.393 . S
C641 C640 1.391 . S
C642 H632 0.950 . S
C642 C643 1.386 . S
C642 C644 1.391 . S
C643 C642 1.386 . S
C643 C647 1.393 . S
C644 H633 0.950 . S
C644 C642 1.391 . S
C644 C645 1.400 . S
C645 C639 1.491 . S
C645 C644 1.400 . S
C645 C646 1.398 . S
C646 H634 0.950 . S
C646 C645 1.398 . S
C646 C647 1.391 . S
C647 H635 0.950 . S
C647 C643 1.393 . S
C647 C646 1.391 . S
H648 C656 0.950 . S
H649 C661 0.950 . S
H650 C658 0.950 . S
H651 C660 0.950 . S
H652 C662 0.950 . S
H653 C664 0.950 . S
H654 C666 0.950 . S
H655 C667 0.950 . S
C656 H648 0.950 . S
C656 C657 1.386 . S
C656 C658 1.391 . S
C657 C656 1.386 . S
C657 C661 1.393 . S
C658 H650 0.950 . S
C658 C656 1.391 . S
C658 C659 1.400 . S
C659 C658 1.400 . S
C659 C660 1.398 . S
C659 C665 1.491 . S
C660 H651 0.950 . S
C660 C659 1.398 . S
C660 C661 1.391 . S
C661 H649 0.950 . S
C661 C657 1.393 . S
C661 C660 1.391 . S
C662 H652 0.950 . S
C662 C663 1.386 . S
C662 C664 1.391 . S
C663 C662 1.386 . S
C663 C667 1.393 . S
C664 H653 0.950 . S
C664 C662 1.391 . S
C664 C665 1.400 . S
C665 C659 1.491 . S
C665 C664 1.400 . S
C665 C666 1.398 . S
C666 H654 0.950 . S
C666 C665 1.398 . S
C666 C667 1.391 . S
C667 H655 0.950 . S
C667 C663 1.393 . S
C667 C666 1.391 . S
H668 C676 0.950 . S
H669 C681 0.950 . S
H670 C678 0.950 . S
H671 C680 0.950 . S
H672 C682 0.950 . S
H673 C684 0.950 . S
H674 C686 0.950 . S
H675 C687 0.950 . S
C676 H668 0.950 . S
C676 C677 1.386 . S
C676 C678 1.391 . S
C677 C676 1.386 . S
C677 C681 1.393 . S
C678 H670 0.950 . S
C678 C676 1.391 . S
C678 C679 1.400 . S
C679 C678 1.400 . S
C679 C680 1.398 . S
C679 C685 1.491 . S
C680 H671 0.950 . S
C680 C679 1.398 . S
C680 C681 1.391 . S
C681 H669 0.950 . S
C681 C677 1.393 . S
C681 C680 1.391 . S
C682 H672 0.950 . S
C682 C683 1.386 . S
C682 C684 1.391 . S
C683 C682 1.386 . S
C683 C687 1.393 . S
C684 H673 0.950 . S
C684 C682 1.391 . S
C684 C685 1.400 . S
C685 C679 1.491 . S
C685 C684 1.400 . S
C685 C686 1.398 . S
C686 H674 0.950 . S
C686 C685 1.398 . S
C686 C687 1.391 . S
C687 H675 0.950 . S
C687 C683 1.393 . S
C687 C686 1.391 . S
H688 C696 0.950 . S
H689 C701 0.950 . S
H690 C698 0.950 . S
H691 C700 0.950 . S
H692 C702 0.950 . S
H693 C704 0.950 . S
H694 C706 0.950 1_545 S
H695 C707 0.950 . S
C696 H688 0.950 . S
C696 C697 1.386 . S
C696 C698 1.391 . S
C697 C696 1.386 . S
C697 C701 1.393 . S
C698 H690 0.950 . S
C698 C696 1.391 . S
C698 C699 1.400 1_545 S
C699 C698 1.400 1_565 S
C699 C700 1.398 . S
C699 C705 1.491 . S
C700 H691 0.950 . S
C700 C699 1.398 . S
C700 C701 1.391 1_565 S
C701 H689 0.950 . S
C701 C697 1.393 . S
C701 C700 1.391 1_545 S
C702 H692 0.950 . S
C702 C703 1.386 . S
C702 C704 1.391 . S
C703 C702 1.386 . S
C703 C707 1.393 . S
C704 H693 0.950 . S
C704 C702 1.391 . S
C704 C705 1.400 . S
C705 C699 1.491 . S
C705 C704 1.400 . S
C705 C706 1.398 . S
C706 H694 0.950 1_565 S
C706 C705 1.398 . S
C706 C707 1.391 . S
C707 H695 0.950 . S
C707 C703 1.393 . S
C707 C706 1.391 . S
H708 C716 0.950 . S
H709 C721 0.950 . S
H710 C718 0.950 . S
H711 C720 0.950 . S
H712 C722 0.950 . S
H713 C724 0.950 . S
H714 C726 0.950 . S
H715 C727 0.950 . S
C716 H708 0.950 . S
C716 C717 1.386 . S
C716 C718 1.391 . S
C717 C716 1.386 . S
C717 C721 1.393 . S
C718 H710 0.950 . S
C718 C716 1.391 . S
C718 C719 1.400 . S
C719 C718 1.400 . S
C719 C720 1.398 . S
C719 C725 1.491 . S
C720 H711 0.950 . S
C720 C719 1.398 . S
C720 C721 1.391 . S
C721 H709 0.950 . S
C721 C717 1.393 . S
C721 C720 1.391 . S
C722 H712 0.950 . S
C722 C723 1.386 . S
C722 C724 1.391 . S
C723 C722 1.386 . S
C723 C727 1.393 . S
C724 H713 0.950 . S
C724 C722 1.391 . S
C724 C725 1.400 . S
C725 C719 1.491 . S
C725 C724 1.400 . S
C725 C726 1.398 . S
C726 H714 0.950 . S
C726 C725 1.398 . S
C726 C727 1.391 . S
C727 H715 0.950 . S
C727 C723 1.393 . S
C727 C726 1.391 . S
H728 C736 0.950 . S
H729 C741 0.950 . S
H730 C738 0.950 . S
H731 C740 0.950 1_655 S
H732 C742 0.950 . S
H733 C744 0.950 . S
H734 C746 0.950 . S
H735 C747 0.950 . S
C736 H728 0.950 . S
C736 C737 1.386 . S
C736 C738 1.391 . S
C737 C736 1.386 . S
C737 C741 1.393 . S
C738 H730 0.950 . S
C738 C736 1.391 . S
C738 C739 1.400 . S
C739 C738 1.400 . S
C739 C740 1.398 . S
C739 C745 1.491 . S
C740 H731 0.950 1_455 S
C740 C739 1.398 . S
C740 C741 1.391 . S
C741 H729 0.950 . S
C741 C737 1.393 . S
C741 C740 1.391 . S
C742 H732 0.950 . S
C742 C743 1.386 . S
C742 C744 1.391 . S
C743 C742 1.386 . S
C743 C747 1.393 . S
C744 H733 0.950 . S
C744 C742 1.391 . S
C744 C745 1.400 1_655 S
C745 C739 1.491 . S
C745 C744 1.400 1_455 S
C745 C746 1.398 . S
C746 H734 0.950 . S
C746 C745 1.398 . S
C746 C747 1.391 1_455 S
C747 H735 0.950 . S
C747 C743 1.393 . S
C747 C746 1.391 1_655 S
H748 C756 0.950 . S
H749 C761 0.950 . S
H750 C758 0.960 . S
H751 C760 0.950 . S
H752 C762 0.950 . S
H753 C764 0.950 . S
H754 C766 0.920 1_565 S
H755 C767 0.950 . S
C756 H748 0.950 . S
C756 C757 1.386 . S
C756 C758 1.391 . S
C757 C756 1.386 . S
C757 C761 1.393 . S
C758 H750 0.960 . S
C758 C756 1.391 . S
C758 C759 1.400 1_565 S
C759 C758 1.400 1_545 S
C759 C760 1.398 . S
C759 C765 1.491 . S
C760 H751 0.950 . S
C760 C759 1.398 . S
C760 C761 1.391 1_545 S
C761 H749 0.950 . S
C761 C757 1.393 . S
C761 C760 1.391 1_565 S
C762 H752 0.950 . S
C762 C763 1.386 . S
C762 C764 1.391 1_455 S
C763 C762 1.386 . S
C763 C767 1.393 . S
C764 H753 0.950 . S
C764 C762 1.391 1_655 S
C764 C765 1.400 . S
C765 C759 1.491 . S
C765 C764 1.400 . S
C765 C766 1.398 1_655 S
C766 H754 0.920 1_545 S
C766 C765 1.398 1_455 S
C766 C767 1.391 . S
C767 H755 0.950 . S
C767 C763 1.393 . S
C767 C766 1.391 . S
H768 C776 0.950 . S
H769 C781 0.950 . S
H770 C778 0.950 . S
H771 C780 0.950 . S
H772 C782 0.950 . S
H773 C784 0.950 . S
H774 C786 0.950 . S
H775 C787 0.950 . S
C776 H768 0.950 . S
C776 C777 1.386 . S
C776 C778 1.391 . S
C777 C776 1.386 . S
C777 C781 1.393 . S
C778 H770 0.950 . S
C778 C776 1.391 . S
C778 C779 1.400 . S
C779 C778 1.400 . S
C779 C780 1.398 . S
C779 C785 1.491 . S
C780 H771 0.950 . S
C780 C779 1.398 . S
C780 C781 1.391 . S
C781 H769 0.950 . S
C781 C777 1.393 . S
C781 C780 1.391 . S
C782 H772 0.950 . S
C782 C783 1.386 . S
C782 C784 1.391 . S
C783 C782 1.386 . S
C783 C787 1.393 . S
C784 H773 0.950 . S
C784 C782 1.391 . S
C784 C785 1.400 . S
C785 C779 1.491 . S
C785 C784 1.400 . S
C785 C786 1.398 . S
C786 H774 0.950 . S
C786 C785 1.398 . S
C786 C787 1.391 . S
C787 H775 0.950 . S
C787 C783 1.393 . S
C787 C786 1.391 . S
H788 C796 0.950 . S
H789 C801 0.950 . S
H790 C798 0.950 1_655 S
H791 C800 0.950 . S
H792 C802 0.950 . S
H793 C804 0.950 . S
H794 C806 0.950 . S
H795 C807 0.950 . S
C796 H788 0.950 . S
C796 C797 1.386 . S
C796 C798 1.391 . S
C797 C796 1.386 . S
C797 C801 1.393 . S
C798 H790 0.950 1_455 S
C798 C796 1.391 . S
C798 C799 1.400 1_455 S
C799 C798 1.400 1_655 S
C799 C800 1.398 1_655 S
C799 C805 1.491 . S
C800 H791 0.950 . S
C800 C799 1.398 1_455 S
C800 C801 1.391 . S
C801 H789 0.950 . S
C801 C797 1.393 . S
C801 C800 1.391 . S
C802 H792 0.950 . S
C802 C803 1.386 . S
C802 C804 1.391 . S
C803 C802 1.386 . S
C803 C807 1.393 . S
C804 H793 0.950 . S
C804 C802 1.391 . S
C804 C805 1.400 . S
C805 C799 1.491 . S
C805 C804 1.400 . S
C805 C806 1.398 . S
C806 H794 0.950 . S
C806 C805 1.398 . S
C806 C807 1.391 . S
C807 H795 0.950 . S
C807 C803 1.393 . S
C807 C806 1.391 . S
H808 C816 0.950 . S
H809 C821 0.950 . S
H810 C818 0.950 . S
H811 C820 0.950 . S
H812 C822 0.950 . S
H813 C824 0.950 . S
H814 C826 0.950 . S
H815 C827 0.950 . S
C816 H808 0.950 . S
C816 C817 1.386 . S
C816 C818 1.391 . S
C817 C816 1.386 . S
C817 C821 1.393 . S
C818 H810 0.950 . S
C818 C816 1.391 . S
C818 C819 1.400 1_655 S
C819 C818 1.400 1_455 S
C819 C820 1.398 . S
C819 C825 1.491 . S
C820 H811 0.950 . S
C820 C819 1.398 . S
C820 C821 1.391 1_455 S
C821 H809 0.950 . S
C821 C817 1.393 . S
C821 C820 1.391 1_655 S
C822 H812 0.950 . S
C822 C823 1.386 . S
C822 C824 1.391 1_545 S
C823 C822 1.386 . S
C823 C827 1.393 . S
C824 H813 0.950 . S
C824 C822 1.391 1_565 S
C824 C825 1.400 . S
C825 C819 1.491 . S
C825 C824 1.400 . S
C825 C826 1.398 1_565 S
C826 H814 0.950 . S
C826 C825 1.398 1_545 S
C826 C827 1.391 . S
C827 H815 0.950 . S
C827 C823 1.393 . S
C827 C826 1.391 . S
H828 C836 0.950 . S
H829 C841 0.950 . S
H830 C838 0.950 . S
H831 C840 0.950 . S
H832 C842 0.950 . S
H833 C844 0.950 . S
H834 C846 0.950 1_565 S
H835 C847 0.950 . S
C836 H828 0.950 . S
C836 C837 1.386 . S
C836 C838 1.391 . S
C837 C836 1.386 . S
C837 C841 1.393 . S
C838 H830 0.950 . S
C838 C836 1.391 . S
C838 C839 1.400 1_565 S
C839 C838 1.400 1_545 S
C839 C840 1.398 . S
C839 C845 1.491 . S
C840 H831 0.950 . S
C840 C839 1.398 . S
C840 C841 1.391 1_545 S
C841 H829 0.950 . S
C841 C837 1.393 . S
C841 C840 1.391 1_565 S
C842 H832 0.950 . S
C842 C843 1.386 . S
C842 C844 1.391 . S
C843 C842 1.386 . S
C843 C847 1.393 . S
C844 H833 0.950 . S
C844 C842 1.391 . S
C844 C845 1.400 . S
C845 C839 1.491 . S
C845 C844 1.400 . S
C845 C846 1.398 . S
C846 H834 0.950 1_545 S
C846 C845 1.398 . S
C846 C847 1.391 . S
C847 H835 0.950 . S
C847 C843 1.393 . S
C847 C846 1.391 . S
C217 C95 1.499 . S
C223 C10 1.503 . S
C237 C56 1.492 . S
C243 C17 1.493 . S
C257 C75 1.498 . S
C263 C30 1.495 . S
C277 C49 1.499 . S
C283 C88 1.496 . S
C297 C205 1.496 . S
C303 C108 1.494 . S
C317 C166 1.493 . S
C323 C127 1.494 . S
C337 C140 1.513 . S
C343 C173 1.516 . S
C357 C153 1.500 . S
C363 C192 1.503 . S
C377 C29 1.193 . S
C383 C5 1.186 . S
C397 C16 1.171 . S
C403 C44 1.181 . S
C417 C55 1.160 . S
C423 C83 1.164 . S
C437 C94 1.171 . S
C443 C70 1.181 . S
C457 C107 1.160 . S
C463 C135 1.163 . S
C477 C122 1.179 . S
C483 C148 1.188 . S
C497 C187 1.181 . S
C503 C161 1.189 . S
C517 C172 1.160 . S
C523 C200 1.162 . S
C537 C81 1.347 . S
C543 C3 1.338 . S
C557 C18 1.356 . S
C563 C96 1.358 . S
C577 C31 1.356 . S
C583 C57 1.340 . S
C597 C42 1.355 . S
C603 C68 1.339 . S
C617 C109 1.360 . S
C623 C185 1.348 . S
C637 C120 1.357 . S
C643 C198 1.357 . S
C657 C133 1.354 . S
C663 C159 1.359 . S
C677 C146 1.360 . S
C683 C174 1.350 . S
C697 C4 1.295 . S
C703 C199 1.289 . S
C717 C160 1.298 . S
C723 C23 1.286 . S
C737 C36 1.289 . S
C743 C179 1.296 . S
C757 C186 1.286 . S
C763 C43 1.299 . S
C777 C121 1.297 . S
C783 C62 1.288 . S
C797 C69 1.285 . S
C803 C134 1.300 . S
C817 C147 1.285 . S
C823 C82 1.300 . S
C837 C114 1.286 . S
C843 C101 1.299 . S
