# Generated by pormake.
# Topology umx, (4)-cn, num edge types: 1
# Building blocks:
#     Node 0, Type 0, BuildingBlock: ESEHIV_clean_sbu_0, # of connection points: 4
#     Node 1, Type 0, BuildingBlock: ESEHIV_clean_sbu_0, # of connection points: 4
#     Node 2, Type 0, BuildingBlock: ESEHIV_clean_sbu_0, # of connection points: 4
#     Node 3, Type 0, BuildingBlock: ESEHIV_clean_sbu_0, # of connection points: 4
#     Node 4, Type 0, BuildingBlock: ESEHIV_clean_sbu_0, # of connection points: 4
#     Node 5, Type 0, BuildingBlock: ESEHIV_clean_sbu_0, # of connection points: 4
#     Node 6, Type 0, BuildingBlock: ESEHIV_clean_sbu_0, # of connection points: 4
#     Node 7, Type 0, BuildingBlock: ESEHIV_clean_sbu_0, # of connection points: 4
#     Edge 8, Type (0, 0), BuildingBlock: UVAHIK_clean_linker_0, # of connection points: 2
#     Edge 9, Type (0, 0), BuildingBlock: UVAHIK_clean_linker_0, # of connection points: 2
#     Edge 10, Type (0, 0), BuildingBlock: UVAHIK_clean_linker_0, # of connection points: 2
#     Edge 11, Type (0, 0), BuildingBlock: UVAHIK_clean_linker_0, # of connection points: 2
#     Edge 12, Type (0, 0), BuildingBlock: UVAHIK_clean_linker_0, # of connection points: 2
#     Edge 13, Type (0, 0), BuildingBlock: UVAHIK_clean_linker_0, # of connection points: 2
#     Edge 14, Type (0, 0), BuildingBlock: UVAHIK_clean_linker_0, # of connection points: 2
#     Edge 15, Type (0, 0), BuildingBlock: UVAHIK_clean_linker_0, # of connection points: 2
#     Edge 16, Type (0, 0), BuildingBlock: UVAHIK_clean_linker_0, # of connection points: 2
#     Edge 17, Type (0, 0), BuildingBlock: UVAHIK_clean_linker_0, # of connection points: 2
#     Edge 18, Type (0, 0), BuildingBlock: UVAHIK_clean_linker_0, # of connection points: 2
#     Edge 19, Type (0, 0), BuildingBlock: UVAHIK_clean_linker_0, # of connection points: 2
#     Edge 20, Type (0, 0), BuildingBlock: UVAHIK_clean_linker_0, # of connection points: 2
#     Edge 21, Type (0, 0), BuildingBlock: UVAHIK_clean_linker_0, # of connection points: 2
#     Edge 22, Type (0, 0), BuildingBlock: UVAHIK_clean_linker_0, # of connection points: 2
#     Edge 23, Type (0, 0), BuildingBlock: UVAHIK_clean_linker_0, # of connection points: 2
# Relax obj value: 0.104
# Max RMSD: 0.183
# Mean RMSD: 0.173
data_MOF--net-umx--node1-ESEHIV_clean_sbu_0--edge1-UVAHIK_clean_linker_0
_symmetry_space_group_name_H-M    P1
_symmetry_Int_Tables_number       1
_symmetry_cell_setting            triclinic
loop_
_symmetry_equiv_pos_as_xyz
'x, y, z'
_cell_length_a     49.895058
_cell_length_b     57.760471
_cell_length_c     38.836231
_cell_angle_alpha  91.308976
_cell_angle_beta   90.39121
_cell_angle_gamma 90.571891
loop_
_atom_site_label
_atom_site_type_symbol
_atom_site_fract_x
_atom_site_fract_y
_atom_site_fract_z
_atom_type_partial_charge
Cu0 Cu 0.211 0.47725 0.08247 0.0
N1 N 0.22253 0.49425 0.04525 0.0
N2 N 0.22111 0.51459 0.99704 0.0
C3 C 0.2072 0.50125 1.01894 0.0
C4 C 0.24624 0.51589 1.01023 0.0
C5 C 0.24701 0.50336 0.04002 0.0
O6 O 0.22688 0.44662 0.07975 0.0
C7 C 0.15695 0.47157 0.105 0.0
O8 O 0.16754 0.46564 0.13453 0.0
H9 H 0.18623 0.49661 1.01609 0.0
H10 H 0.26404 0.50139 0.05705 0.0
N11 N 0.2218 0.49316 0.12261 0.0
N12 N 0.22065 0.51547 0.17029 0.0
C13 C 0.20687 0.50736 0.14244 0.0
C14 C 0.24602 0.49264 0.13797 0.0
C15 C 0.24533 0.50627 0.16753 0.0
C16 C 0.23169 0.43458 0.1061 0.0
O17 O 0.2246 0.44242 0.13668 0.0
H18 H 0.18609 0.51115 0.13704 0.0
H19 H 0.26286 0.48276 0.12852 0.0
O20 O 0.17218 0.47594 0.0798 0.0
H21 H 0.26275 0.52566 0.9997 0.0
H22 H 0.26171 0.50913 0.1856 0.0
Cu23 Cu 0.53193 0.16754 0.57285 0.0
N24 N 0.53665 0.13552 0.56855 0.0
N25 N 0.52971 0.09721 0.56728 0.0
C26 C 0.51816 0.11831 0.56879 0.0
C27 C 0.55632 0.10139 0.56582 0.0
C28 C 0.56051 0.12494 0.56659 0.0
O29 O 0.50893 0.17279 0.61364 0.0
C30 C 0.53294 0.17221 0.50082 0.0
O31 O 0.55427 0.15951 0.50567 0.0
H32 H 0.49683 0.12117 0.571 0.0
H33 H 0.5797 0.13379 0.56608 0.0
N34 N 0.56544 0.1798 0.58581 0.0
N35 N 0.60416 0.19935 0.59086 0.0
C36 C 0.58264 0.19445 0.57042 0.0
C37 C 0.57668 0.1752 0.61645 0.0
C38 C 0.6004 0.18724 0.61971 0.0
C39 C 0.51203 0.19057 0.63361 0.0
O40 O 0.52665 0.20799 0.6229 0.0
H41 H 0.57924 0.20173 0.54535 0.0
H42 H 0.5679 0.16398 0.63534 0.0
O43 O 0.51972 0.17887 0.52738 0.0
H44 H 0.57169 0.08832 0.5642 0.0
H45 H 0.61398 0.18703 0.64156 0.0
Cu46 Cu 0.83372 0.5548 0.05677 0.0
N47 N 0.81969 0.53247 1.0263 0.0
N48 N 0.81093 0.51176 0.97831 0.0
C49 C 0.82176 0.53152 0.99176 0.0
C50 C 0.80165 0.49994 1.00539 0.0
C51 C 0.80705 0.51279 1.03495 0.0
O52 O 0.82296 0.5853 0.0425 0.0
C53 C 0.8871 0.55641 0.0842 0.0
O54 O 0.87642 0.56681 0.11113 0.0
H55 H 0.83187 0.54461 0.97698 0.0
H56 H 0.80261 0.50791 0.06104 0.0
N57 N 0.81862 0.54962 0.09963 0.0
N58 N 0.81168 0.53686 0.15259 0.0
C59 C 0.82814 0.53661 0.12516 0.0
C60 C 0.79521 0.55811 0.11102 0.0
C61 C 0.79089 0.55031 0.14375 0.0
C62 C 0.82393 0.60236 0.06382 0.0
O63 O 0.83499 0.59955 0.09421 0.0
H64 H 0.84659 0.52697 0.12347 0.0
H65 H 0.7823 0.5693 0.09654 0.0
O66 O 0.87239 0.551 0.05829 0.0
H67 H 0.79184 0.48314 1.00394 0.0
H68 H 0.77399 0.55454 0.15997 0.0
Cu69 Cu 0.48645 0.79792 0.52162 0.0
N70 N 0.46363 0.8233 0.52588 0.0
N71 N 0.45225 0.86032 0.53487 0.0
C72 C 0.47211 0.84462 0.53578 0.0
C73 C 0.43032 0.84831 0.52392 0.0
C74 C 0.4374 0.82546 0.51843 0.0
O75 O 0.50661 0.79739 0.56586 0.0
C76 C 0.49268 0.80467 0.45151 0.0
O77 O 0.46654 0.80545 0.455 0.0
H78 H 0.49278 0.84861 0.54231 0.0
H79 H 0.42449 0.81162 0.50873 0.0
N80 N 0.46797 0.7697 0.51533 0.0
N81 N 0.43787 0.74063 0.51484 0.0
C82 C 0.44274 0.76319 0.5233 0.0
C83 C 0.47932 0.75072 0.5014 0.0
C84 C 0.46095 0.73284 0.50106 0.0
C85 C 0.49431 0.78937 0.59195 0.0
O86 O 0.46999 0.78091 0.58754 0.0
H87 H 0.42843 0.77467 0.53534 0.0
H88 H 0.49979 0.74992 0.49248 0.0
O89 O 0.50703 0.80174 0.47854 0.0
H90 H 0.41063 0.85549 0.51988 0.0
H91 H 0.46468 0.7153 0.49213 0.0
Cu92 Cu 0.14852 0.58709 0.57028 0.0
N93 N 0.13908 0.5977 0.61424 0.0
N94 N 0.13765 0.59861 0.67163 0.0
C95 C 0.14685 0.58747 0.64332 0.0
C96 C 0.12371 0.61677 0.65997 0.0
C97 C 0.12449 0.61609 0.62437 0.0
O98 O 0.18616 0.59516 0.56412 0.0
C99 C 0.1192 0.5468 0.58145 0.0
O100 O 0.10493 0.56153 0.59965 0.0
H101 H 0.15924 0.5722 0.6436 0.0
H102 H 0.11522 0.62814 0.60713 0.0
N103 N 0.12934 0.60124 0.53554 0.0
N104 N 0.12106 0.60922 0.48056 0.0
C105 C 0.14001 0.60586 0.50476 0.0
C106 C 0.10261 0.60197 0.53094 0.0
C107 C 0.09742 0.60682 0.49686 0.0
C108 C 0.19173 0.61651 0.56977 0.0
O109 O 0.17225 0.63056 0.57847 0.0
H110 H 0.16113 0.60394 0.49924 0.0
H111 H 0.08804 0.59705 0.54999 0.0
O112 O 0.14012 0.55398 0.56613 0.0
H113 H 0.11342 0.62939 0.67597 0.0
H114 H 0.07792 0.60671 0.48446 0.0
Cu115 Cu 0.44777 0.18268 0.07059 0.0
N116 N 0.44048 0.15103 0.07476 0.0
N117 N 0.44619 0.11272 0.07445 0.0
C118 C 0.4579 0.13361 0.07002 0.0
C119 C 0.42047 0.11722 0.08254 0.0
C120 C 0.41704 0.14084 0.08283 0.0
O121 O 0.46746 0.1868 1.02653 0.0
C122 C 0.45015 0.18882 0.14175 0.0
O123 O 0.42536 0.18165 0.13642 0.0
H124 H 0.47857 0.13626 0.06269 0.0
H125 H 0.39873 0.14995 0.08862 0.0
N126 N 0.41522 0.19816 0.06512 0.0
N127 N 0.38402 0.22566 0.06395 0.0
C128 C 0.40841 0.21966 0.07604 0.0
C129 C 0.3944 0.19041 0.04573 0.0
C130 C 0.37518 0.20726 0.04496 0.0
C131 C 0.45885 0.17471 1.00052 0.0
O132 O 0.43899 0.16008 1.00525 0.0
H133 H 0.42144 0.23095 0.09141 0.0
H134 H 0.39344 0.17378 1.03244 0.0
O135 O 0.46481 0.19214 0.11528 0.0
H136 H 0.40528 0.10438 0.08823 0.0
H137 H 0.35621 0.20613 1.03131 0.0
Cu138 Cu 0.85432 0.38749 0.55382 0.0
N139 N 0.84272 0.41229 0.58104 0.0
N140 N 0.83143 0.43416 0.62687 0.0
C141 C 0.83714 0.41256 0.6149 0.0
C142 C 0.83351 0.44781 0.59917 0.0
C143 C 0.84045 0.43431 0.57109 0.0
O144 O 0.83858 0.35913 0.57066 0.0
C145 C 0.9093 0.38739 0.53075 0.0
O146 O 0.89984 0.38309 0.4996 0.0
H147 H 0.83776 0.39723 0.63032 0.0
H148 H 0.84439 0.44026 0.54541 0.0
N149 N 0.84089 0.39167 0.5095 0.0
N150 N 0.83134 0.40727 0.45893 0.0
C151 C 0.8479 0.40776 0.48658 0.0
C152 C 0.81914 0.38082 0.49594 0.0
C153 C 0.81328 0.39031 0.4647 0.0
C154 C 0.83923 0.3405 0.55258 0.0
O155 O 0.85408 0.33984 0.52476 0.0
H156 H 0.86399 0.42023 0.49083 0.0
H157 H 0.80766 0.36751 0.50849 0.0
O158 O 0.8933 0.38824 0.55614 0.0
H159 H 0.83119 0.4664 0.59918 0.0
H160 H 0.79673 0.38537 0.44784 0.0
Cu161 Cu 0.56842 0.82094 1.01991 0.0
N162 N 0.5754 0.85265 1.02403 0.0
N163 N 0.56928 0.8907 1.03143 0.0
C164 C 0.55747 0.86953 1.02977 0.0
C165 C 0.59565 0.88685 1.02654 0.0
C166 C 0.59935 0.8634 1.02201 0.0
O167 O 0.54513 0.81681 0.97892 0.0
C168 C 0.57032 0.81685 0.0913 0.0
O169 O 0.59307 0.82761 0.0852 0.0
H170 H 0.53628 0.86622 1.03306 0.0
H171 H 0.61819 0.85479 1.01757 0.0
N172 N 0.60055 0.80666 1.00816 0.0
N173 N 0.63566 0.78312 1.00473 0.0
C174 C 0.61439 0.78987 1.02375 0.0
C175 C 0.61354 0.81064 0.97862 0.0
C176 C 0.63516 0.7962 0.97641 0.0
C177 C 0.54524 0.79838 0.96009 0.0
O178 O 0.55677 0.77981 0.972 0.0
H179 H 0.60853 0.78225 0.0478 0.0
H180 H 0.60729 0.82296 0.95968 0.0
O181 O 0.55548 0.81092 0.06546 0.0
H182 H 0.6112 0.90002 1.02574 0.0
H183 H 0.6494 0.79531 0.95552 0.0
C184 C 0.22079 0.52739 0.23175 0.0
C185 C 0.21048 0.52959 0.19826 0.0
C186 C 0.21017 0.54025 0.2592 0.0
C187 C 0.14948 0.57211 0.28583 0.0
H188 H 0.19599 0.59242 0.36115 0.0
C189 C 0.11099 0.59292 0.42263 0.0
C190 C 0.12587 0.60821 0.4441 0.0
C191 C 0.11951 0.5879 0.38908 0.0
C192 C 0.18265 0.58734 0.34015 0.0
H193 H 0.1814 0.54751 0.16718 0.0
H194 H 0.16307 0.57029 0.21507 0.0
H195 H 0.21535 0.5753 0.30962 0.0
H196 H 0.15979 0.63174 0.44663 0.0
H197 H 0.17415 0.62386 0.38756 0.0
H198 H 0.11678 0.58448 0.31631 0.0
C199 C 0.17902 0.55825 0.22023 0.0
C200 C 0.19379 0.57711 0.31073 0.0
C201 C 0.18955 0.54523 0.19277 0.0
C202 C 0.14815 0.61977 0.43055 0.0
C203 C 0.15646 0.61504 0.39687 0.0
C204 C 0.13833 0.58255 0.3152 0.0
C205 C 0.1891 0.55582 0.25386 0.0
C206 C 0.17733 0.56884 0.28354 0.0
C207 C 0.14294 0.59828 0.37619 0.0
C208 C 0.15473 0.58987 0.34308 0.0
H209 H 0.23656 0.51521 0.23696 0.0
H210 H 0.21807 0.53751 0.28481 0.0
H211 H 0.13615 0.56586 0.26548 0.0
H212 H 0.09394 0.58355 0.43261 0.0
H213 H 0.10868 0.57475 0.37416 0.0
C214 C 0.49315 0.1701 0.68547 0.0
C215 C 0.50366 0.19024 0.67064 0.0
C216 C 0.48845 0.16927 0.72114 0.0
C217 C 0.50822 0.19852 0.80495 0.0
H218 H 0.44785 0.16406 0.84034 0.0
C219 C 0.48002 0.19777 0.95219 0.0
C220 C 0.4691 0.17702 0.96458 0.0
C221 C 0.48531 0.20013 0.9167 0.0
C222 C 0.46507 0.17355 0.83109 0.0
H223 H 0.51668 0.22554 0.6822 0.0
H224 H 0.50814 0.22419 0.74376 0.0
H225 H 0.45386 0.16658 0.77846 0.0
H226 H 0.45683 0.14211 0.94944 0.0
H227 H 0.46656 0.14596 0.88881 0.0
H228 H 0.5194 0.20543 0.85778 0.0
C229 C 0.50396 0.20883 0.72806 0.0
C230 C 0.46851 0.175 0.79534 0.0
C231 C 0.50862 0.20967 0.69248 0.0
C232 C 0.4649 0.15848 0.94093 0.0
C233 C 0.47027 0.16076 0.90585 0.0
C234 C 0.50478 0.19705 0.84081 0.0
C235 C 0.49414 0.18853 0.74315 0.0
C236 C 0.49022 0.18738 0.78157 0.0
C237 C 0.47985 0.18178 0.89283 0.0
C238 C 0.48328 0.18434 0.85452 0.0
H239 H 0.4893 0.15471 0.66969 0.0
H240 H 0.48111 0.15321 0.7316 0.0
H241 H 0.5254 0.20801 0.79558 0.0
H242 H 0.48331 0.21247 0.96956 0.0
H243 H 0.49269 0.21662 0.90782 0.0
C244 C 0.85572 0.43175 0.41796 0.0
C245 C 0.8315 0.42269 0.43041 0.0
C246 C 0.85574 0.44622 0.38957 0.0
C247 C 0.81229 0.48443 0.33977 0.0
H248 H 0.85961 0.47007 0.26358 0.0
C249 C 0.79351 0.51866 0.20442 0.0
C250 C 0.81562 0.52549 0.18478 0.0
C251 C 0.79725 0.50778 0.23575 0.0
C252 C 0.84657 0.47457 0.28484 0.0
H253 H 0.78833 0.42227 0.42372 0.0
H254 H 0.78835 0.44737 0.37424 0.0
H255 H 0.86332 0.44854 0.31675 0.0
H256 H 0.85904 0.5266 0.18287 0.0
H257 H 0.86562 0.50765 0.23776 0.0
H258 H 0.79534 0.51028 0.30795 0.0
C259 C 0.80731 0.44332 0.38634 0.0
C260 C 0.84871 0.46223 0.31525 0.0
C261 C 0.80732 0.42873 0.41441 0.0
C262 C 0.8416 0.52122 0.19718 0.0
C263 C 0.84536 0.5104 0.22863 0.0
C264 C 0.81024 0.49682 0.30948 0.0
C265 C 0.83151 0.4521 0.3735 0.0
C266 C 0.83122 0.46674 0.34273 0.0
C267 C 0.82321 0.50358 0.24827 0.0
C268 C 0.82698 0.49172 0.28142 0.0
H269 H 0.87464 0.42726 0.42976 0.0
H270 H 0.87467 0.45285 0.38024 0.0
H271 H 0.79884 0.4885 0.36079 0.0
H272 H 0.77327 0.52138 0.1953 0.0
H273 H 0.77975 0.50231 0.24989 0.0
C274 C 0.53229 0.77798 0.90439 0.0
C275 C 0.53725 0.7988 0.92291 0.0
C276 C 0.52841 0.7778 0.86855 0.0
C277 C 0.51689 0.81642 0.79264 0.0
H278 H 0.54087 0.76209 0.74165 0.0
C279 C 0.51869 0.81005 0.64141 0.0
C280 C 0.50561 0.7902 0.62761 0.0
C281 C 0.5246 0.81192 0.67696 0.0
C282 C 0.53405 0.77741 0.75547 0.0
H283 H 0.54163 0.83591 0.91791 0.0
H284 H 0.5357 0.83563 0.85549 0.0
H285 H 0.54601 0.764 0.80397 0.0
H286 H 0.48937 0.75654 0.64009 0.0
H287 H 0.50062 0.75937 0.70126 0.0
H288 H 0.50556 0.82989 0.74349 0.0
C289 C 0.53408 0.81936 0.86859 0.0
C290 C 0.53673 0.77846 0.79147 0.0
C291 C 0.53752 0.81956 0.90462 0.0
C292 C 0.49967 0.77197 0.64982 0.0
C293 C 0.5061 0.7736 0.68496 0.0
C294 C 0.51461 0.8155 0.75647 0.0
C295 C 0.52992 0.7984 0.84977 0.0
C296 C 0.5278 0.79781 0.81089 0.0
C297 C 0.51813 0.79377 0.69925 0.0
C298 C 0.52281 0.79582 0.73743 0.0
H299 H 0.53183 0.76165 0.91757 0.0
H300 H 0.52442 0.76132 0.85562 0.0
H301 H 0.50943 0.83156 0.80625 0.0
H302 H 0.5231 0.82454 0.62511 0.0
H303 H 0.53398 0.82766 0.68709 0.0
C304 C 0.83139 0.42682 0.6897 0.0
C305 C 0.82614 0.44151 0.66204 0.0
C306 C 0.82746 0.43442 0.72371 0.0
C307 C 0.82693 0.48697 0.7773 0.0
H308 H 0.79014 0.44918 0.84372 0.0
C309 C 0.80854 0.5202 0.91633 0.0
C310 C 0.8108 0.50416 0.94277 0.0
C311 C 0.80863 0.51277 0.88181 0.0
C312 C 0.80079 0.45984 0.82565 0.0
H313 H 0.81146 0.47561 0.64918 0.0
H314 H 0.80545 0.48888 0.70836 0.0
H315 H 0.79369 0.43545 0.78406 0.0
H316 H 0.81539 0.46784 0.95389 0.0
H317 H 0.81635 0.45488 0.89387 0.0
H318 H 0.83491 0.51102 0.81879 0.0
C319 C 0.81277 0.47153 0.70349 0.0
C320 C 0.80269 0.45199 0.79145 0.0
C321 C 0.81635 0.46386 0.66949 0.0
C322 C 0.8132 0.48055 0.93404 0.0
C323 C 0.81364 0.47314 0.89958 0.0
C324 C 0.82535 0.4947 0.81156 0.0
C325 C 0.81848 0.45695 0.73092 0.0
C326 C 0.81582 0.46546 0.76699 0.0
C327 C 0.81135 0.48914 0.87297 0.0
C328 C 0.81233 0.48121 0.83624 0.0
H329 H 0.83913 0.4096 0.6854 0.0
H330 H 0.83221 0.42288 0.74445 0.0
H331 H 0.83746 0.49757 0.75901 0.0
H332 H 0.80633 0.53847 0.92238 0.0
H333 H 0.80633 0.52557 0.86209 0.0
C334 C 0.53963 0.80023 0.13712 0.0
C335 C 0.56243 0.81318 0.12799 0.0
C336 C 0.53286 0.7975 0.17206 0.0
C337 C 0.56131 0.80546 0.26232 0.0
H338 H 0.48667 0.80355 0.28853 0.0
C339 C 0.52789 0.79572 0.40604 0.0
C340 C 0.50392 0.80648 0.41606 0.0
C341 C 0.53584 0.79534 0.37119 0.0
C342 C 0.50769 0.80434 0.28191 0.0
H343 H 0.59573 0.83358 0.14901 0.0
H344 H 0.58371 0.82949 0.20871 0.0
H345 H 0.49832 0.80508 0.22804 0.0
H346 H 0.47035 0.8263 0.39743 0.0
H347 H 0.48454 0.82653 0.33794 0.0
H348 H 0.57064 0.80577 0.31631 0.0
C349 C 0.57131 0.82075 0.18937 0.0
C350 C 0.51441 0.8048 0.24685 0.0
C351 C 0.57813 0.82329 0.15474 0.0
C352 C 0.48879 0.81759 0.3907 0.0
C353 C 0.49683 0.81748 0.35624 0.0
C354 C 0.55458 0.80521 0.29742 0.0
C355 C 0.54862 0.80778 0.19883 0.0
C356 C 0.54135 0.80568 0.23635 0.0
C357 C 0.52015 0.80592 0.34556 0.0
C358 C 0.52763 0.80496 0.30792 0.0
H359 H 0.52706 0.79214 0.11733 0.0
H360 H 0.51538 0.78714 0.178 0.0
H361 H 0.58233 0.80559 0.25564 0.0
H362 H 0.53991 0.78682 0.42481 0.0
H363 H 0.55388 0.78613 0.36428 0.0
C364 C 0.22866 0.53232 0.94034 0.0
C365 C 0.21107 0.52543 0.96644 0.0
C366 C 0.21885 0.54238 0.91044 0.0
C367 C 0.15843 0.54483 0.85663 0.0
H368 H 0.19468 0.59684 0.81511 0.0
C369 C 0.14406 0.56855 0.71478 0.0
C370 C 0.14208 0.59205 0.70672 0.0
C371 C 0.15002 0.56199 0.74829 0.0
C372 C 0.18417 0.58249 0.82661 0.0
H373 H 0.16927 0.52456 0.9817 0.0
H374 H 0.15225 0.54169 0.92938 0.0
H375 H 0.21035 0.58282 0.87061 0.0
H376 H 0.1443 0.62713 0.72745 0.0
H377 H 0.15496 0.61565 0.7864 0.0
H378 H 0.13252 0.54426 0.81244 0.0
C379 C 0.17362 0.53907 0.93201 0.0
C380 C 0.1933 0.57431 0.85817 0.0
C381 C 0.18343 0.52914 0.96198 0.0
C382 C 0.1456 0.6089 0.73305 0.0
C383 C 0.15189 0.60234 0.76662 0.0
C384 C 0.14945 0.55287 0.82498 0.0
C385 C 0.19121 0.54568 0.90584 0.0
C386 C 0.18069 0.55525 0.87333 0.0
C387 C 0.15434 0.5788 0.77448 0.0
C388 C 0.16242 0.5716 0.80944 0.0
H389 H 0.24999 0.52951 0.94258 0.0
H390 H 0.23287 0.54702 0.89051 0.0
H391 H 0.14842 0.53001 0.86755 0.0
H392 H 0.14112 0.5552 0.69506 0.0
H393 H 0.15198 0.54373 0.75347 0.0
C394 C 0.50449 0.19334 0.4567 0.0
C395 C 0.52456 0.1773 0.46456 0.0
C396 C 0.49738 0.19758 0.42214 0.0
C397 C 0.52097 0.18692 0.33036 0.0
H398 H 0.44742 0.20091 0.30739 0.0
C399 C 0.48614 0.19903 0.18713 0.0
C400 C 0.4602 0.19102 0.17827 0.0
C401 C 0.49474 0.20004 0.22193 0.0
C402 C 0.46806 0.19676 0.31307 0.0
H403 H 0.55247 0.15294 0.44163 0.0
H404 H 0.53967 0.15958 0.3826 0.0
H405 H 0.46037 0.19694 0.36727 0.0
H406 H 0.4232 0.17765 0.19972 0.0
H407 H 0.43815 0.17873 0.25885 0.0
H408 H 0.52832 0.18556 0.27601 0.0
C409 C 0.52986 0.16962 0.40263 0.0
C410 C 0.47565 0.19486 0.34783 0.0
C411 C 0.5371 0.16561 0.43689 0.0
C412 C 0.44326 0.18415 0.20517 0.0
C413 C 0.45183 0.18497 0.23957 0.0
C414 C 0.51331 0.18857 0.29556 0.0
C415 C 0.50996 0.18575 0.39441 0.0
C416 C 0.50217 0.18952 0.35721 0.0
C417 C 0.47768 0.19297 0.24881 0.0
C418 C 0.48659 0.19314 0.28617 0.0
H419 H 0.49442 0.20275 0.4772 0.0
H420 H 0.48217 0.21034 0.41726 0.0
H421 H 0.54177 0.18339 0.33609 0.0
H422 H 0.49979 0.20446 0.16725 0.0
H423 H 0.51473 0.20653 0.22769 0.0
C424 C 0.92805 0.54046 0.05544 0.0
C425 C 0.91531 0.54872 0.08541 0.0
C426 C 0.95406 0.53172 0.05706 0.0
C427 C 1.00108 0.50456 0.11616 0.0
H428 H 0.05541 0.52309 0.05118 0.0
C429 C 0.11257 0.48012 0.13206 0.0
C430 C 0.12798 0.47661 0.10229 0.0
C431 C 0.08609 0.48768 0.12958 0.0
C432 C 0.0404 0.51736 0.06918 0.0
H433 H 0.92001 0.55447 0.14054 0.0
H434 H 0.96533 0.53901 0.14333 0.0
H435 H 0.01061 0.53929 0.04745 0.0
H436 H 0.12729 0.47718 0.04648 0.0
H437 H 0.08089 0.48947 0.04205 0.0
H438 H 0.03054 0.4823 0.13757 0.0
C439 C 0.95515 0.5393 0.11863 0.0
C440 C 0.01475 0.52679 0.06711 0.0
C441 C 0.92928 0.54833 0.11695 0.0
C442 C 0.116 0.47988 0.06994 0.0
C443 C 0.08944 0.48716 0.06743 0.0
C444 C 0.02664 0.49491 0.118 0.0
C445 C 0.96773 0.53077 0.08874 0.0
C446 C 0.99489 0.5206 0.09071 0.0
C447 C 0.07429 0.49166 0.09723 0.0
C448 C 0.04671 0.50127 0.09463 0.0
H449 H 0.91782 0.54051 1.03075 0.0
H450 H 0.96323 0.52515 1.03364 0.0
H451 H 0.98603 0.49923 0.1344 0.0
H452 H 0.12127 0.47793 0.15739 0.0
H453 H 0.07525 0.4912 0.15314 0.0
C454 C 0.4753 0.89357 0.56389 0.0
C455 C 0.45474 0.88491 0.54211 0.0
C456 C 0.47893 0.91738 0.5693 0.0
C457 C 0.46503 0.97339 0.52922 0.0
H458 H 0.49067 0.99806 0.61725 0.0
C459 C 0.49171 0.0708 0.55232 0.0
C460 C 0.51686 0.07476 0.56801 0.0
C461 C 0.48025 0.04852 0.55126 0.0
C462 C 0.48354 0.99143 0.59249 0.0
H463 H 0.42144 0.89473 0.50955 0.0
H464 H 0.42746 0.93634 0.51952 0.0
H465 H 0.47727 0.95743 0.61181 0.0
H466 H 0.54913 0.05875 0.59614 0.0
H467 H 0.52928 0.02008 0.59436 0.0
H468 H 0.47168 0.00743 0.50989 0.0
C469 C 0.44103 0.92463 0.53205 0.0
C470 C 0.47593 0.96812 0.58933 0.0
C471 C 0.43739 0.90073 0.52662 0.0
C472 C 0.52989 0.05619 0.5835 0.0
C473 C 0.51837 0.03407 0.5828 0.0
C474 C 0.47252 0.99677 0.53245 0.0
C475 C 0.46203 0.93326 0.55319 0.0
C476 C 0.46719 0.95865 0.55745 0.0
C477 C 0.49356 0.02989 0.56636 0.0
C478 C 0.48246 0.00591 0.56393 0.0
H479 H 0.48879 0.88194 0.57668 0.0
H480 H 0.49552 0.92333 0.58542 0.0
H481 H 0.45866 0.96667 0.50419 0.0
H482 H 0.48129 0.08477 0.54004 0.0
H483 H 0.46104 0.04584 0.53855 0.0
C484 C 0.09807 0.51185 0.60551 0.0
C485 C 0.10885 0.52295 0.57694 0.0
C486 C 0.08218 0.49199 0.60112 0.0
C487 C 0.05552 0.4479 0.53725 0.0
H488 H 0.99246 0.45291 0.59464 0.0
C489 C 0.95316 0.40195 0.50773 0.0
C490 C 0.93747 0.39529 0.53587 0.0
C491 C 0.97786 0.41328 0.5131 0.0
C492 C 0.0101 0.45089 0.5788 0.0
H493 H 0.11286 0.52143 0.52151 0.0
H494 H 0.08424 0.48696 0.5135 0.0
H495 H 0.02918 0.48006 0.60332 0.0
H496 H 0.9365 0.39353 0.59157 0.0
H497 H 0.97963 0.41282 0.60085 0.0
H498 H 0.03554 0.41903 0.51196 0.0
C499 C 0.08855 0.49324 0.53944 0.0
C500 C 0.03131 0.46651 0.58382 0.0
C501 C 0.10499 0.51297 0.54397 0.0
C502 C 0.94789 0.3987 0.56933 0.0
C503 C 0.97258 0.40988 0.57466 0.0
C504 C 0.0341 0.43222 0.53212 0.0
C505 C 0.07601 0.48312 0.56792 0.0
C506 C 0.05434 0.46531 0.56316 0.0
C507 C 0.9874 0.41809 0.5467 0.0
C508 C 0.0111 0.43359 0.55285 0.0
H509 H 0.10089 0.51921 0.63122 0.0
H510 H 0.0736 0.48426 0.62373 0.0
H511 H 0.07296 0.44639 0.52095 0.0
H512 H 0.94574 0.39958 0.48161 0.0
H513 H 0.9887 0.41943 0.49098 0.0
C514 C 0.52914 0.91556 1.02927 0.0
C515 C 0.5565 0.91279 1.0369 0.0
C516 C 0.51692 0.93706 1.03404 0.0
C517 C 0.52534 0.99383 0.0795 0.0
H518 H 0.47437 0.01433 1.0111 0.0
C519 C 0.48599 0.08759 0.0769 0.0
C520 C 0.45841 0.0903 0.07074 0.0
C521 C 0.4978 0.06584 0.07327 0.0
C522 C 0.48836 0.00875 1.0306 0.0
H523 H 0.59226 0.93056 0.05622 0.0
H524 H 0.57118 0.96808 0.06363 0.0
H525 H 0.49518 0.97654 1.004 0.0
H526 H 0.42172 0.0723 0.0555 0.0
H527 H 0.44229 0.03432 0.04943 0.0
H528 H 0.51868 0.02621 0.10587 0.0
C529 C 0.55906 0.95355 0.05433 0.0
C530 C 0.50026 0.98707 1.02658 0.0
C531 C 0.57126 0.93206 0.04964 0.0
C532 C 0.44295 0.07077 0.06079 0.0
C533 C 0.45478 0.04905 0.05695 0.0
C534 C 0.51352 0.01556 0.08343 0.0
C535 C 0.53176 0.95635 0.04649 0.0
C536 C 0.5189 0.97934 0.05098 0.0
C537 C 0.48234 0.04634 0.06318 0.0
C538 C 0.4949 0.02326 0.05903 0.0
H539 H 0.51716 0.90123 1.01912 0.0
H540 H 0.49577 0.93852 1.02814 0.0
H541 H 0.53928 0.98828 0.09907 0.0
H542 H 0.4984 0.10224 0.0849 0.0
H543 H 0.51913 0.06434 0.07796 0.0
C544 C 0.25038 0.402 0.07004 0.0
C545 C 0.24663 0.41259 0.10258 0.0
C546 C 0.2652 0.38165 0.06668 0.0
C547 C 0.3182 0.3486 0.10827 0.0
H548 H 0.29053 0.29707 0.05263 0.0
C549 C 0.37185 0.2598 0.10004 0.0
C550 C 0.37039 0.24737 0.06858 0.0
C551 C 0.35708 0.28012 0.10496 0.0
C552 C 0.29884 0.31139 0.06783 0.0
H553 H 0.25559 0.41009 0.15712 0.0
H554 H 0.28174 0.3747 0.1511 0.0
H555 H 0.26408 0.33204 0.05935 0.0
H556 H 0.35354 0.24707 1.01706 0.0
H557 H 0.3286 0.28269 1.02503 0.0
H558 H 0.35327 0.32827 0.11611 0.0
C559 C 0.27315 0.38216 0.12825 0.0
C560 C 0.28355 0.3314 0.07179 0.0
C561 C 0.25801 0.40234 0.13168 0.0
C562 C 0.35462 0.25604 0.04181 0.0
C563 C 0.3402 0.27644 0.04651 0.0
C564 C 0.33369 0.32866 0.10397 0.0
C565 C 0.27691 0.37161 0.09572 0.0
C566 C 0.29307 0.35024 0.09198 0.0
C567 C 0.34082 0.2886 0.07832 0.0
C568 C 0.32427 0.30979 0.08356 0.0
H569 H 0.2419 0.40946 0.04711 0.0
H570 H 0.26792 0.37398 0.04125 0.0
H571 H 0.32616 0.36295 0.12374 0.0
H572 H 0.38373 0.25339 0.12115 0.0
H573 H 0.3579 0.28882 0.12994 0.0
C574 C 0.81249 0.30596 0.53167 0.0
C575 C 0.81883 0.32216 0.55816 0.0
C576 C 0.79038 0.29106 0.53453 0.0
C577 C 0.74352 0.26555 0.59622 0.0
H578 H 0.69313 0.26403 0.51964 0.0
C579 C 0.63794 0.22767 0.61177 0.0
C580 C 0.62666 0.21441 0.58451 0.0
C581 C 0.66146 0.24042 0.60717 0.0
C582 C 0.70713 0.26395 0.54106 0.0
H583 H 0.8077 0.33459 0.60914 0.0
H584 H 0.76943 0.30827 0.61439 0.0
H585 H 0.73533 0.28548 0.51495 0.0
H586 H 0.63063 0.20458 0.53075 0.0
H587 H 0.67232 0.22659 0.52259 0.0
H588 H 0.7157 0.2439 0.6223 0.0
C589 C 0.78148 0.30721 0.59132 0.0
C590 C 0.73131 0.27627 0.53837 0.0
C591 C 0.80339 0.3223 0.5883 0.0
C592 C 0.63888 0.2148 0.55208 0.0
C593 C 0.66273 0.2274 0.54751 0.0
C594 C 0.71952 0.25307 0.5988 0.0
C595 C 0.77436 0.29182 0.56413 0.0
C596 C 0.74959 0.27744 0.5661 0.0
C597 C 0.6746 0.24002 0.57524 0.0
C598 C 0.70077 0.25239 0.57148 0.0
H599 H 0.8239 0.30542 0.50804 0.0
H600 H 0.78555 0.27919 0.51335 0.0
H601 H 0.75738 0.26588 0.61782 0.0
H602 H 0.62862 0.22799 0.63687 0.0
H603 H 0.66944 0.25049 0.62882 0.0
C604 C 0.79732 0.62726 1.02431 0.0
C605 C 0.80879 0.62369 0.05689 0.0
C606 C 0.7804 0.64604 1.01907 0.0
C607 C 0.73406 0.68361 0.06577 0.0
H608 H 0.73788 0.72171 0.98506 0.0
C609 C 0.66317 0.7612 0.04572 0.0
C610 C 0.65459 0.76519 1.01189 0.0
C611 C 0.68281 0.74465 0.05214 0.0
C612 C 0.73628 0.71105 1.00754 0.0
H613 H 0.81221 0.63752 0.10922 0.0
H614 H 0.78255 0.67014 0.10003 0.0
H615 H 0.77139 0.69196 0.99384 0.0
H616 H 0.6588 0.75431 0.95849 0.0
H617 H 0.69233 0.72512 0.96957 0.0
H618 H 0.69854 0.70212 0.07906 0.0
C619 C 0.78657 0.65834 0.07864 0.0
C620 C 0.75559 0.69409 1.0126 0.0
C621 C 0.80371 0.63974 0.08379 0.0
C622 C 0.66544 0.75191 0.98476 0.0
C623 C 0.68477 0.73525 0.99114 0.0
C624 C 0.71456 0.70041 0.06054 0.0
C625 C 0.77441 0.66147 0.0464 0.0
C626 C 0.75461 0.68013 0.04167 0.0
C627 C 0.69403 0.7316 1.02484 0.0
C628 C 0.71529 0.71424 1.03121 0.0
H629 H 0.80084 0.61521 1.00307 0.0
H630 H 0.7712 0.64798 0.99397 0.0
H631 H 0.73263 0.67289 0.08822 0.0
H632 H 0.65525 0.77134 0.06705 0.0
H633 H 0.68961 0.74249 0.07839 0.0
C634 C 0.40892 0.70641 0.50146 0.0
C635 C 0.41368 0.7272 0.52025 0.0
C636 C 0.38614 0.69288 0.50747 0.0
C637 C 0.33316 0.68305 0.57245 0.0
H638 H 0.29599 0.65213 0.49605 0.0
C639 C 0.22555 0.64762 0.58204 0.0
C640 C 0.21922 0.62604 0.56643 0.0
C641 C 0.25068 0.65784 0.57766 0.0
C642 C 0.30639 0.66037 0.5177 0.0
H643 H 0.39765 0.75002 0.56002 0.0
H644 H 0.35751 0.72687 0.56966 0.0
H645 H 0.33634 0.67499 0.4853 0.0
H646 H 0.23448 0.59805 0.53433 0.0
H647 H 0.2787 0.6162 0.52621 0.0
H648 H 0.30269 0.66894 0.60464 0.0
C649 C 0.37179 0.72076 0.55073 0.0
C650 C 0.32953 0.67351 0.51158 0.0
C651 C 0.39469 0.73426 0.54485 0.0
C652 C 0.23883 0.61466 0.54674 0.0
C653 C 0.26402 0.6251 0.54194 0.0
C654 C 0.30994 0.67007 0.5785 0.0
C655 C 0.36729 0.6998 0.53227 0.0
C656 C 0.34307 0.68523 0.53884 0.0
C657 C 0.27012 0.64687 0.55726 0.0
C658 C 0.29613 0.65879 0.55116 0.0
H659 H 0.42276 0.7005 0.48193 0.0
H660 H 0.38354 0.67677 0.49295 0.0
H661 H 0.34336 0.69136 0.59419 0.0
H662 H 0.21093 0.65683 0.59749 0.0
H663 H 0.25462 0.67471 0.58947 0.0
loop_
_geom_bond_atom_site_label_1
_geom_bond_atom_site_label_2
_geom_bond_distance
_geom_bond_site_symmetry_2
_ccdc_geom_bond_type
Cu0 N1 1.999 1_554 S
Cu0 O6 1.974 . S
Cu0 N11 1.985 . S
Cu0 O20 1.959 . S
N1 Cu0 1.999 1_556 S
N1 C3 1.263 . S
N1 C5 1.389 . S
N2 C3 1.358 . S
N2 C4 1.400 . S
C3 N1 1.263 . S
C3 N2 1.358 . S
C3 H9 0.930 . S
C4 N2 1.400 . S
C4 C5 1.351 . S
C4 H21 0.930 . S
C5 N1 1.389 . S
C5 C4 1.351 . S
C5 H10 0.930 . S
O6 Cu0 1.974 . S
O6 C16 1.282 . S
C7 O8 1.261 . S
C7 O20 1.251 . S
O8 C7 1.261 . S
H9 C3 0.930 . S
H10 C5 0.930 . S
N11 Cu0 1.985 . S
N11 C13 1.335 . S
N11 C14 1.390 . S
N12 C13 1.345 . S
N12 C15 1.336 . S
C13 N11 1.335 . S
C13 N12 1.345 . S
C13 H18 0.930 . S
C14 N11 1.390 . S
C14 C15 1.346 . S
C14 H19 0.930 . S
C15 N12 1.336 . S
C15 C14 1.346 . S
C15 H22 0.929 . S
C16 O6 1.282 . S
C16 O17 1.216 . S
O17 C16 1.216 . S
H18 C13 0.930 . S
H19 C14 0.930 . S
O20 Cu0 1.959 . S
O20 C7 1.251 . S
H21 C4 0.930 . S
H22 C15 0.929 . S
Cu23 N24 1.999 . S
Cu23 O29 1.974 . S
Cu23 N34 1.985 . S
Cu23 O43 1.959 . S
N24 Cu23 1.999 . S
N24 C26 1.263 . S
N24 C28 1.389 . S
N25 C26 1.358 . S
N25 C27 1.400 . S
C26 N24 1.263 . S
C26 N25 1.358 . S
C26 H32 0.930 . S
C27 N25 1.400 . S
C27 C28 1.351 . S
C27 H44 0.930 . S
C28 N24 1.389 . S
C28 C27 1.351 . S
C28 H33 0.930 . S
O29 Cu23 1.974 . S
O29 C39 1.282 . S
C30 O31 1.261 . S
C30 O43 1.251 . S
O31 C30 1.261 . S
H32 C26 0.930 . S
H33 C28 0.930 . S
N34 Cu23 1.985 . S
N34 C36 1.335 . S
N34 C37 1.390 . S
N35 C36 1.345 . S
N35 C38 1.336 . S
C36 N34 1.335 . S
C36 N35 1.345 . S
C36 H41 0.930 . S
C37 N34 1.390 . S
C37 C38 1.346 . S
C37 H42 0.930 . S
C38 N35 1.336 . S
C38 C37 1.346 . S
C38 H45 0.929 . S
C39 O29 1.282 . S
C39 O40 1.216 . S
O40 C39 1.216 . S
H41 C36 0.930 . S
H42 C37 0.930 . S
O43 Cu23 1.959 . S
O43 C30 1.251 . S
H44 C27 0.930 . S
H45 C38 0.929 . S
Cu46 N47 1.999 1_554 S
Cu46 O52 1.974 . S
Cu46 N57 1.985 . S
Cu46 O66 1.959 . S
N47 Cu46 1.999 1_556 S
N47 C49 1.263 . S
N47 C51 1.389 . S
N48 C49 1.358 . S
N48 C50 1.400 . S
C49 N47 1.263 . S
C49 N48 1.358 . S
C49 H55 0.930 . S
C50 N48 1.400 . S
C50 C51 1.351 . S
C50 H67 0.930 . S
C51 N47 1.389 . S
C51 C50 1.351 . S
C51 H56 0.930 . S
O52 Cu46 1.974 . S
O52 C62 1.282 . S
C53 O54 1.261 . S
C53 O66 1.251 . S
O54 C53 1.261 . S
H55 C49 0.930 . S
H56 C51 0.930 . S
N57 Cu46 1.985 . S
N57 C59 1.335 . S
N57 C60 1.390 . S
N58 C59 1.345 . S
N58 C61 1.336 . S
C59 N57 1.335 . S
C59 N58 1.345 . S
C59 H64 0.930 . S
C60 N57 1.390 . S
C60 C61 1.346 . S
C60 H65 0.930 . S
C61 N58 1.336 . S
C61 C60 1.346 . S
C61 H68 0.929 . S
C62 O52 1.282 . S
C62 O63 1.216 . S
O63 C62 1.216 . S
H64 C59 0.930 . S
H65 C60 0.930 . S
O66 Cu46 1.959 . S
O66 C53 1.251 . S
H67 C50 0.930 . S
H68 C61 0.929 . S
Cu69 N70 1.999 . S
Cu69 O75 1.974 . S
Cu69 N80 1.985 . S
Cu69 O89 1.959 . S
N70 Cu69 1.999 . S
N70 C72 1.263 . S
N70 C74 1.389 . S
N71 C72 1.358 . S
N71 C73 1.400 . S
C72 N70 1.263 . S
C72 N71 1.358 . S
C72 H78 0.930 . S
C73 N71 1.400 . S
C73 C74 1.351 . S
C73 H90 0.930 . S
C74 N70 1.389 . S
C74 C73 1.351 . S
C74 H79 0.930 . S
O75 Cu69 1.974 . S
O75 C85 1.282 . S
C76 O77 1.261 . S
C76 O89 1.251 . S
O77 C76 1.261 . S
H78 C72 0.930 . S
H79 C74 0.930 . S
N80 Cu69 1.985 . S
N80 C82 1.335 . S
N80 C83 1.390 . S
N81 C82 1.345 . S
N81 C84 1.336 . S
C82 N80 1.335 . S
C82 N81 1.345 . S
C82 H87 0.930 . S
C83 N80 1.390 . S
C83 C84 1.346 . S
C83 H88 0.930 . S
C84 N81 1.336 . S
C84 C83 1.346 . S
C84 H91 0.929 . S
C85 O75 1.282 . S
C85 O86 1.216 . S
O86 C85 1.216 . S
H87 C82 0.930 . S
H88 C83 0.930 . S
O89 Cu69 1.959 . S
O89 C76 1.251 . S
H90 C73 0.930 . S
H91 C84 0.929 . S
Cu92 N93 1.999 . S
Cu92 O98 1.974 . S
Cu92 N103 1.985 . S
Cu92 O112 1.959 . S
N93 Cu92 1.999 . S
N93 C95 1.263 . S
N93 C97 1.389 . S
N94 C95 1.358 . S
N94 C96 1.400 . S
C95 N93 1.263 . S
C95 N94 1.358 . S
C95 H101 0.930 . S
C96 N94 1.400 . S
C96 C97 1.351 . S
C96 H113 0.930 . S
C97 N93 1.389 . S
C97 C96 1.351 . S
C97 H102 0.930 . S
O98 Cu92 1.974 . S
O98 C108 1.282 . S
C99 O100 1.261 . S
C99 O112 1.251 . S
O100 C99 1.261 . S
H101 C95 0.930 . S
H102 C97 0.930 . S
N103 Cu92 1.985 . S
N103 C105 1.335 . S
N103 C106 1.390 . S
N104 C105 1.345 . S
N104 C107 1.336 . S
C105 N103 1.335 . S
C105 N104 1.345 . S
C105 H110 0.930 . S
C106 N103 1.390 . S
C106 C107 1.346 . S
C106 H111 0.930 . S
C107 N104 1.336 . S
C107 C106 1.346 . S
C107 H114 0.929 . S
C108 O98 1.282 . S
C108 O109 1.216 . S
O109 C108 1.216 . S
H110 C105 0.930 . S
H111 C106 0.930 . S
O112 Cu92 1.959 . S
O112 C99 1.251 . S
H113 C96 0.930 . S
H114 C107 0.929 . S
Cu115 N116 1.999 . S
Cu115 O121 1.974 1_554 S
Cu115 N126 1.985 . S
Cu115 O135 1.959 . S
N116 Cu115 1.999 . S
N116 C118 1.263 1_554 S
N116 C120 1.389 . S
N117 C118 1.358 1_554 S
N117 C119 1.400 . S
C118 N116 1.263 1_556 S
C118 N117 1.358 1_556 S
C118 H124 0.930 . S
C119 N117 1.400 . S
C119 C120 1.351 . S
C119 H136 0.930 . S
C120 N116 1.389 . S
C120 C119 1.351 . S
C120 H125 0.930 . S
O121 Cu115 1.974 1_556 S
O121 C131 1.282 . S
C122 O123 1.261 . S
C122 O135 1.251 . S
O123 C122 1.261 . S
H124 C118 0.930 . S
H125 C120 0.930 . S
N126 Cu115 1.985 . S
N126 C128 1.335 . S
N126 C129 1.390 1_554 S
N127 C128 1.345 . S
N127 C130 1.336 1_554 S
C128 N126 1.335 . S
C128 N127 1.345 . S
C128 H133 0.930 . S
C129 N126 1.390 1_556 S
C129 C130 1.346 . S
C129 H134 0.930 . S
C130 N127 1.336 1_556 S
C130 C129 1.346 . S
C130 H137 0.929 . S
C131 O121 1.282 . S
C131 O132 1.216 . S
O132 C131 1.216 . S
H133 C128 0.930 . S
H134 C129 0.930 . S
O135 Cu115 1.959 . S
O135 C122 1.251 . S
H136 C119 0.930 . S
H137 C130 0.929 . S
Cu138 N139 1.999 . S
Cu138 O144 1.974 . S
Cu138 N149 1.985 . S
Cu138 O158 1.959 . S
N139 Cu138 1.999 . S
N139 C141 1.263 . S
N139 C143 1.389 . S
N140 C141 1.358 . S
N140 C142 1.400 . S
C141 N139 1.263 . S
C141 N140 1.358 . S
C141 H147 0.930 . S
C142 N140 1.400 . S
C142 C143 1.351 . S
C142 H159 0.930 . S
C143 N139 1.389 . S
C143 C142 1.351 . S
C143 H148 0.930 . S
O144 Cu138 1.974 . S
O144 C154 1.282 . S
C145 O146 1.261 . S
C145 O158 1.251 . S
O146 C145 1.261 . S
H147 C141 0.930 . S
H148 C143 0.930 . S
N149 Cu138 1.985 . S
N149 C151 1.335 . S
N149 C152 1.390 . S
N150 C151 1.345 . S
N150 C153 1.336 . S
C151 N149 1.335 . S
C151 N150 1.345 . S
C151 H156 0.930 . S
C152 N149 1.390 . S
C152 C153 1.346 . S
C152 H157 0.930 . S
C153 N150 1.336 . S
C153 C152 1.346 . S
C153 H160 0.929 . S
C154 O144 1.282 . S
C154 O155 1.216 . S
O155 C154 1.216 . S
H156 C151 0.930 . S
H157 C152 0.930 . S
O158 Cu138 1.959 . S
O158 C145 1.251 . S
H159 C142 0.930 . S
H160 C153 0.929 . S
Cu161 N162 1.999 . S
Cu161 O167 1.974 1_554 S
Cu161 N172 1.985 . S
Cu161 O181 1.959 . S
N162 Cu161 1.999 . S
N162 C164 1.263 1_554 S
N162 C166 1.389 . S
N163 C164 1.358 1_554 S
N163 C165 1.400 . S
C164 N162 1.263 1_556 S
C164 N163 1.358 1_556 S
C164 H170 0.930 . S
C165 N163 1.400 . S
C165 C166 1.351 . S
C165 H182 0.930 . S
C166 N162 1.389 . S
C166 C165 1.351 . S
C166 H171 0.930 . S
O167 Cu161 1.974 1_556 S
O167 C177 1.282 . S
C168 O169 1.261 . S
C168 O181 1.251 . S
O169 C168 1.261 . S
H170 C164 0.930 . S
H171 C166 0.930 . S
N172 Cu161 1.985 . S
N172 C174 1.335 . S
N172 C175 1.390 1_554 S
N173 C174 1.345 . S
N173 C176 1.336 1_554 S
C174 N172 1.335 . S
C174 N173 1.345 . S
C174 H179 0.930 . S
C175 N172 1.390 1_556 S
C175 C176 1.346 . S
C175 H180 0.930 . S
C176 N173 1.336 1_556 S
C176 C175 1.346 . S
C176 H183 0.929 . S
C177 O167 1.282 . S
C177 O178 1.216 . S
O178 C177 1.216 . S
H179 C174 0.930 . S
H180 C175 0.930 . S
O181 Cu161 1.959 . S
O181 C168 1.251 . S
H182 C165 0.930 . S
H183 C176 0.929 . S
C184 C185 1.349 . S
C184 C186 1.327 . S
C184 H209 0.950 . S
C185 C184 1.349 . S
C185 C201 1.349 . S
C186 C184 1.327 . S
C186 C205 1.429 . S
C186 H210 0.950 . S
C187 C204 1.574 . S
C187 C206 1.368 . S
C187 H211 0.949 . S
H188 C192 0.949 . S
C189 C190 1.349 . S
C189 C191 1.327 . S
C189 H212 0.950 . S
C190 C189 1.349 . S
C190 C202 1.349 . S
C191 C189 1.327 . S
C191 C207 1.429 . S
C191 H213 0.950 . S
C192 H188 0.949 . S
C192 C200 1.574 . S
C192 C208 1.368 . S
H193 C201 0.950 . S
H194 C199 0.950 . S
H195 C200 0.949 . S
H196 C202 0.950 . S
H197 C203 0.950 . S
H198 C204 0.949 . S
C199 H194 0.950 . S
C199 C201 1.327 . S
C199 C205 1.429 . S
C200 C192 1.574 . S
C200 H195 0.949 . S
C200 C206 1.368 . S
C201 C185 1.349 . S
C201 H193 0.950 . S
C201 C199 1.327 . S
C202 C190 1.349 . S
C202 H196 0.950 . S
C202 C203 1.327 . S
C203 H197 0.950 . S
C203 C202 1.327 . S
C203 C207 1.429 . S
C204 C187 1.574 . S
C204 H198 0.949 . S
C204 C208 1.368 . S
C205 C186 1.429 . S
C205 C199 1.429 . S
C205 C206 1.523 . S
C206 C187 1.368 . S
C206 C200 1.368 . S
C206 C205 1.523 . S
C207 C191 1.429 . S
C207 C203 1.429 . S
C207 C208 1.523 . S
C208 C192 1.368 . S
C208 C204 1.368 . S
C208 C207 1.523 . S
H209 C184 0.950 . S
H210 C186 0.950 . S
H211 C187 0.949 . S
H212 C189 0.950 . S
H213 C191 0.950 . S
C214 C215 1.349 . S
C214 C216 1.327 . S
C214 H239 0.950 . S
C215 C214 1.349 . S
C215 C231 1.349 . S
C216 C214 1.327 . S
C216 C235 1.429 . S
C216 H240 0.950 . S
C217 C234 1.574 . S
C217 C236 1.368 . S
C217 H241 0.949 . S
H218 C222 0.949 . S
C219 C220 1.349 . S
C219 C221 1.327 . S
C219 H242 0.950 . S
C220 C219 1.349 . S
C220 C232 1.349 . S
C221 C219 1.327 . S
C221 C237 1.429 . S
C221 H243 0.950 . S
C222 H218 0.949 . S
C222 C230 1.574 . S
C222 C238 1.368 . S
H223 C231 0.950 . S
H224 C229 0.950 . S
H225 C230 0.949 . S
H226 C232 0.950 . S
H227 C233 0.950 . S
H228 C234 0.949 . S
C229 H224 0.950 . S
C229 C231 1.327 . S
C229 C235 1.429 . S
C230 C222 1.574 . S
C230 H225 0.949 . S
C230 C236 1.368 . S
C231 C215 1.349 . S
C231 H223 0.950 . S
C231 C229 1.327 . S
C232 C220 1.349 . S
C232 H226 0.950 . S
C232 C233 1.327 . S
C233 H227 0.950 . S
C233 C232 1.327 . S
C233 C237 1.429 . S
C234 C217 1.574 . S
C234 H228 0.949 . S
C234 C238 1.368 . S
C235 C216 1.429 . S
C235 C229 1.429 . S
C235 C236 1.523 . S
C236 C217 1.368 . S
C236 C230 1.368 . S
C236 C235 1.523 . S
C237 C221 1.429 . S
C237 C233 1.429 . S
C237 C238 1.523 . S
C238 C222 1.368 . S
C238 C234 1.368 . S
C238 C237 1.523 . S
H239 C214 0.950 . S
H240 C216 0.950 . S
H241 C217 0.949 . S
H242 C219 0.950 . S
H243 C221 0.950 . S
C244 C245 1.349 . S
C244 C246 1.327 . S
C244 H269 0.950 . S
C245 C244 1.349 . S
C245 C261 1.349 . S
C246 C244 1.327 . S
C246 C265 1.429 . S
C246 H270 0.950 . S
C247 C264 1.574 . S
C247 C266 1.368 . S
C247 H271 0.949 . S
H248 C252 0.949 . S
C249 C250 1.349 . S
C249 C251 1.327 . S
C249 H272 0.950 . S
C250 C249 1.349 . S
C250 C262 1.349 . S
C251 C249 1.327 . S
C251 C267 1.429 . S
C251 H273 0.950 . S
C252 H248 0.949 . S
C252 C260 1.574 . S
C252 C268 1.368 . S
H253 C261 0.950 . S
H254 C259 0.950 . S
H255 C260 0.949 . S
H256 C262 0.950 . S
H257 C263 0.950 . S
H258 C264 0.949 . S
C259 H254 0.950 . S
C259 C261 1.327 . S
C259 C265 1.429 . S
C260 C252 1.574 . S
C260 H255 0.949 . S
C260 C266 1.368 . S
C261 C245 1.349 . S
C261 H253 0.950 . S
C261 C259 1.327 . S
C262 C250 1.349 . S
C262 H256 0.950 . S
C262 C263 1.327 . S
C263 H257 0.950 . S
C263 C262 1.327 . S
C263 C267 1.429 . S
C264 C247 1.574 . S
C264 H258 0.949 . S
C264 C268 1.368 . S
C265 C246 1.429 . S
C265 C259 1.429 . S
C265 C266 1.523 . S
C266 C247 1.368 . S
C266 C260 1.368 . S
C266 C265 1.523 . S
C267 C251 1.429 . S
C267 C263 1.429 . S
C267 C268 1.523 . S
C268 C252 1.368 . S
C268 C264 1.368 . S
C268 C267 1.523 . S
H269 C244 0.950 . S
H270 C246 0.950 . S
H271 C247 0.949 . S
H272 C249 0.950 . S
H273 C251 0.950 . S
C274 C275 1.349 . S
C274 C276 1.327 . S
C274 H299 0.950 . S
C275 C274 1.349 . S
C275 C291 1.349 . S
C276 C274 1.327 . S
C276 C295 1.429 . S
C276 H300 0.950 . S
C277 C294 1.574 . S
C277 C296 1.368 . S
C277 H301 0.949 . S
H278 C282 0.949 . S
C279 C280 1.349 . S
C279 C281 1.327 . S
C279 H302 0.950 . S
C280 C279 1.349 . S
C280 C292 1.349 . S
C281 C279 1.327 . S
C281 C297 1.429 . S
C281 H303 0.950 . S
C282 H278 0.949 . S
C282 C290 1.574 . S
C282 C298 1.368 . S
H283 C291 0.950 . S
H284 C289 0.950 . S
H285 C290 0.949 . S
H286 C292 0.950 . S
H287 C293 0.950 . S
H288 C294 0.949 . S
C289 H284 0.950 . S
C289 C291 1.327 . S
C289 C295 1.429 . S
C290 C282 1.574 . S
C290 H285 0.949 . S
C290 C296 1.368 . S
C291 C275 1.349 . S
C291 H283 0.950 . S
C291 C289 1.327 . S
C292 C280 1.349 . S
C292 H286 0.950 . S
C292 C293 1.327 . S
C293 H287 0.950 . S
C293 C292 1.327 . S
C293 C297 1.429 . S
C294 C277 1.574 . S
C294 H288 0.949 . S
C294 C298 1.368 . S
C295 C276 1.429 . S
C295 C289 1.429 . S
C295 C296 1.523 . S
C296 C277 1.368 . S
C296 C290 1.368 . S
C296 C295 1.523 . S
C297 C281 1.429 . S
C297 C293 1.429 . S
C297 C298 1.523 . S
C298 C282 1.368 . S
C298 C294 1.368 . S
C298 C297 1.523 . S
H299 C274 0.950 . S
H300 C276 0.950 . S
H301 C277 0.949 . S
H302 C279 0.950 . S
H303 C281 0.950 . S
C304 C305 1.349 . S
C304 C306 1.327 . S
C304 H329 0.950 . S
C305 C304 1.349 . S
C305 C321 1.349 . S
C306 C304 1.327 . S
C306 C325 1.429 . S
C306 H330 0.950 . S
C307 C324 1.574 . S
C307 C326 1.368 . S
C307 H331 0.949 . S
H308 C312 0.949 . S
C309 C310 1.349 . S
C309 C311 1.327 . S
C309 H332 0.950 . S
C310 C309 1.349 . S
C310 C322 1.349 . S
C311 C309 1.327 . S
C311 C327 1.429 . S
C311 H333 0.950 . S
C312 H308 0.949 . S
C312 C320 1.574 . S
C312 C328 1.368 . S
H313 C321 0.950 . S
H314 C319 0.950 . S
H315 C320 0.949 . S
H316 C322 0.950 . S
H317 C323 0.950 . S
H318 C324 0.949 . S
C319 H314 0.950 . S
C319 C321 1.327 . S
C319 C325 1.429 . S
C320 C312 1.574 . S
C320 H315 0.949 . S
C320 C326 1.368 . S
C321 C305 1.349 . S
C321 H313 0.950 . S
C321 C319 1.327 . S
C322 C310 1.349 . S
C322 H316 0.950 . S
C322 C323 1.327 . S
C323 H317 0.950 . S
C323 C322 1.327 . S
C323 C327 1.429 . S
C324 C307 1.574 . S
C324 H318 0.949 . S
C324 C328 1.368 . S
C325 C306 1.429 . S
C325 C319 1.429 . S
C325 C326 1.523 . S
C326 C307 1.368 . S
C326 C320 1.368 . S
C326 C325 1.523 . S
C327 C311 1.429 . S
C327 C323 1.429 . S
C327 C328 1.523 . S
C328 C312 1.368 . S
C328 C324 1.368 . S
C328 C327 1.523 . S
H329 C304 0.950 . S
H330 C306 0.950 . S
H331 C307 0.949 . S
H332 C309 0.950 . S
H333 C311 0.950 . S
C334 C335 1.349 . S
C334 C336 1.327 . S
C334 H359 0.950 . S
C335 C334 1.349 . S
C335 C351 1.349 . S
C336 C334 1.327 . S
C336 C355 1.429 . S
C336 H360 0.950 . S
C337 C354 1.574 . S
C337 C356 1.368 . S
C337 H361 0.949 . S
H338 C342 0.949 . S
C339 C340 1.349 . S
C339 C341 1.327 . S
C339 H362 0.950 . S
C340 C339 1.349 . S
C340 C352 1.349 . S
C341 C339 1.327 . S
C341 C357 1.429 . S
C341 H363 0.950 . S
C342 H338 0.949 . S
C342 C350 1.574 . S
C342 C358 1.368 . S
H343 C351 0.950 . S
H344 C349 0.950 . S
H345 C350 0.949 . S
H346 C352 0.950 . S
H347 C353 0.950 . S
H348 C354 0.949 . S
C349 H344 0.950 . S
C349 C351 1.327 . S
C349 C355 1.429 . S
C350 C342 1.574 . S
C350 H345 0.949 . S
C350 C356 1.368 . S
C351 C335 1.349 . S
C351 H343 0.950 . S
C351 C349 1.327 . S
C352 C340 1.349 . S
C352 H346 0.950 . S
C352 C353 1.327 . S
C353 H347 0.950 . S
C353 C352 1.327 . S
C353 C357 1.429 . S
C354 C337 1.574 . S
C354 H348 0.949 . S
C354 C358 1.368 . S
C355 C336 1.429 . S
C355 C349 1.429 . S
C355 C356 1.523 . S
C356 C337 1.368 . S
C356 C350 1.368 . S
C356 C355 1.523 . S
C357 C341 1.429 . S
C357 C353 1.429 . S
C357 C358 1.523 . S
C358 C342 1.368 . S
C358 C354 1.368 . S
C358 C357 1.523 . S
H359 C334 0.950 . S
H360 C336 0.950 . S
H361 C337 0.949 . S
H362 C339 0.950 . S
H363 C341 0.950 . S
C364 C365 1.349 . S
C364 C366 1.327 . S
C364 H389 0.950 . S
C365 C364 1.349 . S
C365 C381 1.349 . S
C366 C364 1.327 . S
C366 C385 1.429 . S
C366 H390 0.950 . S
C367 C384 1.574 . S
C367 C386 1.368 . S
C367 H391 0.949 . S
H368 C372 0.949 . S
C369 C370 1.349 . S
C369 C371 1.327 . S
C369 H392 0.950 . S
C370 C369 1.349 . S
C370 C382 1.349 . S
C371 C369 1.327 . S
C371 C387 1.429 . S
C371 H393 0.950 . S
C372 H368 0.949 . S
C372 C380 1.574 . S
C372 C388 1.368 . S
H373 C381 0.950 . S
H374 C379 0.950 . S
H375 C380 0.949 . S
H376 C382 0.950 . S
H377 C383 0.950 . S
H378 C384 0.949 . S
C379 H374 0.950 . S
C379 C381 1.327 . S
C379 C385 1.429 . S
C380 C372 1.574 . S
C380 H375 0.949 . S
C380 C386 1.368 . S
C381 C365 1.349 . S
C381 H373 0.950 . S
C381 C379 1.327 . S
C382 C370 1.349 . S
C382 H376 0.950 . S
C382 C383 1.327 . S
C383 H377 0.950 . S
C383 C382 1.327 . S
C383 C387 1.429 . S
C384 C367 1.574 . S
C384 H378 0.949 . S
C384 C388 1.368 . S
C385 C366 1.429 . S
C385 C379 1.429 . S
C385 C386 1.523 . S
C386 C367 1.368 . S
C386 C380 1.368 . S
C386 C385 1.523 . S
C387 C371 1.429 . S
C387 C383 1.429 . S
C387 C388 1.523 . S
C388 C372 1.368 . S
C388 C384 1.368 . S
C388 C387 1.523 . S
H389 C364 0.950 . S
H390 C366 0.950 . S
H391 C367 0.949 . S
H392 C369 0.950 . S
H393 C371 0.950 . S
C394 C395 1.349 . S
C394 C396 1.327 . S
C394 H419 0.950 . S
C395 C394 1.349 . S
C395 C411 1.349 . S
C396 C394 1.327 . S
C396 C415 1.429 . S
C396 H420 0.950 . S
C397 C414 1.574 . S
C397 C416 1.368 . S
C397 H421 0.949 . S
H398 C402 0.949 . S
C399 C400 1.349 . S
C399 C401 1.327 . S
C399 H422 0.950 . S
C400 C399 1.349 . S
C400 C412 1.349 . S
C401 C399 1.327 . S
C401 C417 1.429 . S
C401 H423 0.950 . S
C402 H398 0.949 . S
C402 C410 1.574 . S
C402 C418 1.368 . S
H403 C411 0.950 . S
H404 C409 0.950 . S
H405 C410 0.949 . S
H406 C412 0.950 . S
H407 C413 0.950 . S
H408 C414 0.949 . S
C409 H404 0.950 . S
C409 C411 1.327 . S
C409 C415 1.429 . S
C410 C402 1.574 . S
C410 H405 0.949 . S
C410 C416 1.368 . S
C411 C395 1.349 . S
C411 H403 0.950 . S
C411 C409 1.327 . S
C412 C400 1.349 . S
C412 H406 0.950 . S
C412 C413 1.327 . S
C413 H407 0.950 . S
C413 C412 1.327 . S
C413 C417 1.429 . S
C414 C397 1.574 . S
C414 H408 0.949 . S
C414 C418 1.368 . S
C415 C396 1.429 . S
C415 C409 1.429 . S
C415 C416 1.523 . S
C416 C397 1.368 . S
C416 C410 1.368 . S
C416 C415 1.523 . S
C417 C401 1.429 . S
C417 C413 1.429 . S
C417 C418 1.523 . S
C418 C402 1.368 . S
C418 C414 1.368 . S
C418 C417 1.523 . S
H419 C394 0.950 . S
H420 C396 0.950 . S
H421 C397 0.949 . S
H422 C399 0.950 . S
H423 C401 0.950 . S
C424 C425 1.349 . S
C424 C426 1.327 . S
C424 H449 0.950 . S
C425 C424 1.349 . S
C425 C441 1.349 . S
C426 C424 1.327 . S
C426 C445 1.429 . S
C426 H450 0.950 . S
C427 C444 1.574 1_655 S
C427 C446 1.368 . S
C427 H451 0.949 . S
H428 C432 0.949 . S
C429 C430 1.349 . S
C429 C431 1.327 . S
C429 H452 0.950 . S
C430 C429 1.349 . S
C430 C442 1.349 . S
C431 C429 1.327 . S
C431 C447 1.429 . S
C431 H453 0.950 . S
C432 H428 0.949 . S
C432 C440 1.574 1_455 S
C432 C448 1.368 . S
H433 C441 0.950 . S
H434 C439 0.950 . S
H435 C440 0.949 . S
H436 C442 0.950 . S
H437 C443 0.950 . S
H438 C444 0.949 . S
C439 H434 0.950 . S
C439 C441 1.327 . S
C439 C445 1.429 . S
C440 C432 1.574 1_655 S
C440 H435 0.949 . S
C440 C446 1.368 . S
C441 C425 1.349 . S
C441 H433 0.950 . S
C441 C439 1.327 . S
C442 C430 1.349 . S
C442 H436 0.950 . S
C442 C443 1.327 . S
C443 H437 0.950 . S
C443 C442 1.327 . S
C443 C447 1.429 . S
C444 C427 1.574 1_455 S
C444 H438 0.949 . S
C444 C448 1.368 . S
C445 C426 1.429 . S
C445 C439 1.429 . S
C445 C446 1.523 . S
C446 C427 1.368 . S
C446 C440 1.368 . S
C446 C445 1.523 . S
C447 C431 1.429 . S
C447 C443 1.429 . S
C447 C448 1.523 . S
C448 C432 1.368 . S
C448 C444 1.368 . S
C448 C447 1.523 . S
H449 C424 0.950 . S
H450 C426 0.950 . S
H451 C427 0.949 . S
H452 C429 0.950 . S
H453 C431 0.950 . S
C454 C455 1.349 . S
C454 C456 1.327 . S
C454 H479 0.950 . S
C455 C454 1.349 . S
C455 C471 1.349 . S
C456 C454 1.327 . S
C456 C475 1.429 . S
C456 H480 0.950 . S
C457 C474 1.574 1_565 S
C457 C476 1.368 . S
C457 H481 0.949 . S
H458 C462 0.949 . S
C459 C460 1.349 . S
C459 C461 1.327 . S
C459 H482 0.950 . S
C460 C459 1.349 . S
C460 C472 1.349 . S
C461 C459 1.327 . S
C461 C477 1.429 . S
C461 H483 0.950 . S
C462 H458 0.949 . S
C462 C470 1.574 1_545 S
C462 C478 1.368 . S
H463 C471 0.950 . S
H464 C469 0.950 . S
H465 C470 0.949 . S
H466 C472 0.950 . S
H467 C473 0.950 . S
H468 C474 0.949 . S
C469 H464 0.950 . S
C469 C471 1.327 . S
C469 C475 1.429 . S
C470 C462 1.574 1_565 S
C470 H465 0.949 . S
C470 C476 1.368 . S
C471 C455 1.349 . S
C471 H463 0.950 . S
C471 C469 1.327 . S
C472 C460 1.349 . S
C472 H466 0.950 . S
C472 C473 1.327 . S
C473 H467 0.950 . S
C473 C472 1.327 . S
C473 C477 1.429 . S
C474 C457 1.574 1_545 S
C474 H468 0.949 . S
C474 C478 1.368 . S
C475 C456 1.429 . S
C475 C469 1.429 . S
C475 C476 1.523 . S
C476 C457 1.368 . S
C476 C470 1.368 . S
C476 C475 1.523 . S
C477 C461 1.429 . S
C477 C473 1.429 . S
C477 C478 1.523 . S
C478 C462 1.368 . S
C478 C474 1.368 . S
C478 C477 1.523 . S
H479 C454 0.950 . S
H480 C456 0.950 . S
H481 C457 0.949 . S
H482 C459 0.950 . S
H483 C461 0.950 . S
C484 C485 1.349 . S
C484 C486 1.327 . S
C484 H509 0.950 . S
C485 C484 1.349 . S
C485 C501 1.349 . S
C486 C484 1.327 . S
C486 C505 1.429 . S
C486 H510 0.950 . S
C487 C504 1.574 1_455 S
C487 C506 1.368 . S
C487 H511 0.949 . S
H488 C492 0.949 . S
C489 C490 1.349 . S
C489 C491 1.327 . S
C489 H512 0.950 . S
C490 C489 1.349 . S
C490 C502 1.349 . S
C491 C489 1.327 . S
C491 C507 1.429 . S
C491 H513 0.950 . S
C492 H488 0.949 . S
C492 C500 1.574 1_655 S
C492 C508 1.368 . S
H493 C501 0.950 . S
H494 C499 0.950 . S
H495 C500 0.949 . S
H496 C502 0.950 . S
H497 C503 0.950 . S
H498 C504 0.949 . S
C499 H494 0.950 . S
C499 C501 1.327 . S
C499 C505 1.429 . S
C500 C492 1.574 1_455 S
C500 H495 0.949 . S
C500 C506 1.368 . S
C501 C485 1.349 . S
C501 H493 0.950 . S
C501 C499 1.327 . S
C502 C490 1.349 . S
C502 H496 0.950 . S
C502 C503 1.327 . S
C503 H497 0.950 . S
C503 C502 1.327 . S
C503 C507 1.429 . S
C504 C487 1.574 1_655 S
C504 H498 0.949 . S
C504 C508 1.368 . S
C505 C486 1.429 . S
C505 C499 1.429 . S
C505 C506 1.523 . S
C506 C487 1.368 . S
C506 C500 1.368 . S
C506 C505 1.523 . S
C507 C491 1.429 . S
C507 C503 1.429 . S
C507 C508 1.523 . S
C508 C492 1.368 . S
C508 C504 1.368 . S
C508 C507 1.523 . S
H509 C484 0.950 . S
H510 C486 0.950 . S
H511 C487 0.949 . S
H512 C489 0.950 . S
H513 C491 0.950 . S
C514 C515 1.349 . S
C514 C516 1.327 . S
C514 H539 0.950 . S
C515 C514 1.349 . S
C515 C531 1.349 1_556 S
C516 C514 1.327 . S
C516 C535 1.429 . S
C516 H540 0.950 . S
C517 C534 1.574 1_565 S
C517 C536 1.368 1_554 S
C517 H541 0.949 . S
H518 C522 0.949 . S
C519 C520 1.349 1_554 S
C519 C521 1.327 . S
C519 H542 0.950 . S
C520 C519 1.349 1_556 S
C520 C532 1.349 . S
C521 C519 1.327 . S
C521 C537 1.429 1_554 S
C521 H543 0.950 . S
C522 H518 0.949 . S
C522 C530 1.574 1_545 S
C522 C538 1.368 . S
H523 C531 0.950 . S
H524 C529 0.950 . S
H525 C530 0.949 . S
H526 C532 0.950 . S
H527 C533 0.950 . S
H528 C534 0.949 . S
C529 H524 0.950 . S
C529 C531 1.327 . S
C529 C535 1.429 1_554 S
C530 C522 1.574 1_565 S
C530 H525 0.949 . S
C530 C536 1.368 . S
C531 C515 1.349 1_554 S
C531 H523 0.950 . S
C531 C529 1.327 . S
C532 C520 1.349 . S
C532 H526 0.950 . S
C532 C533 1.327 . S
C533 H527 0.950 . S
C533 C532 1.327 . S
C533 C537 1.429 . S
C534 C517 1.574 1_545 S
C534 H528 0.949 . S
C534 C538 1.368 1_554 S
C535 C516 1.429 . S
C535 C529 1.429 1_556 S
C535 C536 1.523 . S
C536 C517 1.368 1_556 S
C536 C530 1.368 . S
C536 C535 1.523 . S
C537 C521 1.429 1_556 S
C537 C533 1.429 . S
C537 C538 1.523 . S
C538 C522 1.368 . S
C538 C534 1.368 1_556 S
C538 C537 1.523 . S
H539 C514 0.950 . S
H540 C516 0.950 . S
H541 C517 0.949 . S
H542 C519 0.950 . S
H543 C521 0.950 . S
C544 C545 1.359 . S
C544 C546 1.327 . S
C544 H569 0.940 1_554 S
C545 C544 1.359 . S
C545 C561 1.349 . S
C546 C544 1.327 . S
C546 C565 1.435 . S
C546 H570 0.943 1_554 S
C547 C564 1.574 . S
C547 C566 1.368 . S
C547 H571 0.949 . S
H548 C552 0.935 1_556 S
C549 C550 1.349 . S
C549 C551 1.327 . S
C549 H572 0.950 . S
C550 C549 1.349 . S
C550 C562 1.349 . S
C551 C549 1.327 . S
C551 C567 1.429 . S
C551 H573 0.950 . S
C552 H548 0.935 1_554 S
C552 C560 1.574 . S
C552 C568 1.384 . S
H553 C561 0.950 . S
H554 C559 0.950 . S
H555 C560 0.950 1_556 S
H556 C562 0.950 1_556 S
H557 C563 0.950 1_556 S
H558 C564 0.949 . S
C559 H554 0.950 . S
C559 C561 1.327 . S
C559 C565 1.429 . S
C560 C552 1.574 . S
C560 H555 0.950 1_554 S
C560 C566 1.367 . S
C561 C545 1.349 . S
C561 H553 0.950 . S
C561 C559 1.327 . S
C562 C550 1.349 . S
C562 H556 0.950 1_554 S
C562 C563 1.327 . S
C563 H557 0.950 1_554 S
C563 C562 1.327 . S
C563 C567 1.429 . S
C564 C547 1.574 . S
C564 H558 0.949 . S
C564 C568 1.368 . S
C565 C546 1.435 . S
C565 C559 1.429 . S
C565 C566 1.523 . S
C566 C547 1.368 . S
C566 C560 1.367 . S
C566 C565 1.523 . S
C567 C551 1.429 . S
C567 C563 1.429 . S
C567 C568 1.523 . S
C568 C552 1.384 . S
C568 C564 1.368 . S
C568 C567 1.523 . S
H569 C544 0.940 1_556 S
H570 C546 0.943 1_556 S
H571 C547 0.949 . S
H572 C549 0.950 . S
H573 C551 0.950 . S
C574 C575 1.349 . S
C574 C576 1.327 . S
C574 H599 0.950 . S
C575 C574 1.349 . S
C575 C591 1.349 . S
C576 C574 1.327 . S
C576 C595 1.429 . S
C576 H600 0.950 . S
C577 C594 1.574 . S
C577 C596 1.368 . S
C577 H601 0.949 . S
H578 C582 0.949 . S
C579 C580 1.349 . S
C579 C581 1.327 . S
C579 H602 0.950 . S
C580 C579 1.349 . S
C580 C592 1.349 . S
C581 C579 1.327 . S
C581 C597 1.429 . S
C581 H603 0.950 . S
C582 H578 0.949 . S
C582 C590 1.574 . S
C582 C598 1.368 . S
H583 C591 0.950 . S
H584 C589 0.950 . S
H585 C590 0.949 . S
H586 C592 0.950 . S
H587 C593 0.950 . S
H588 C594 0.949 . S
C589 H584 0.950 . S
C589 C591 1.327 . S
C589 C595 1.429 . S
C590 C582 1.574 . S
C590 H585 0.949 . S
C590 C596 1.368 . S
C591 C575 1.349 . S
C591 H583 0.950 . S
C591 C589 1.327 . S
C592 C580 1.349 . S
C592 H586 0.950 . S
C592 C593 1.327 . S
C593 H587 0.950 . S
C593 C592 1.327 . S
C593 C597 1.429 . S
C594 C577 1.574 . S
C594 H588 0.949 . S
C594 C598 1.368 . S
C595 C576 1.429 . S
C595 C589 1.429 . S
C595 C596 1.523 . S
C596 C577 1.368 . S
C596 C590 1.368 . S
C596 C595 1.523 . S
C597 C581 1.429 . S
C597 C593 1.429 . S
C597 C598 1.523 . S
C598 C582 1.368 . S
C598 C594 1.368 . S
C598 C597 1.523 . S
H599 C574 0.950 . S
H600 C576 0.950 . S
H601 C577 0.949 . S
H602 C579 0.950 . S
H603 C581 0.950 . S
C604 C605 1.365 . S
C604 C606 1.327 . S
C604 H629 0.934 1_554 S
C605 C604 1.365 . S
C605 C621 1.349 . S
C606 C604 1.327 . S
C606 C625 1.440 . S
C606 H630 0.937 1_554 S
C607 C624 1.574 . S
C607 C626 1.368 . S
C607 H631 0.949 . S
H608 C612 0.930 1_556 S
C609 C610 1.349 . S
C609 C611 1.327 . S
C609 H632 0.950 . S
C610 C609 1.349 . S
C610 C622 1.349 . S
C611 C609 1.327 . S
C611 C627 1.429 . S
C611 H633 0.950 . S
C612 H608 0.930 1_554 S
C612 C620 1.574 . S
C612 C628 1.391 . S
H613 C621 0.950 . S
H614 C619 0.950 . S
H615 C620 0.944 1_556 S
H616 C622 0.950 1_556 S
H617 C623 0.950 1_556 S
H618 C624 0.949 . S
C619 H614 0.950 . S
C619 C621 1.327 . S
C619 C625 1.429 . S
C620 C612 1.574 . S
C620 H615 0.944 1_554 S
C620 C626 1.374 . S
C621 C605 1.349 . S
C621 H613 0.950 . S
C621 C619 1.327 . S
C622 C610 1.349 . S
C622 H616 0.950 1_554 S
C622 C623 1.327 . S
C623 H617 0.950 1_554 S
C623 C622 1.327 . S
C623 C627 1.429 . S
C624 C607 1.574 . S
C624 H618 0.949 . S
C624 C628 1.368 . S
C625 C606 1.440 . S
C625 C619 1.429 . S
C625 C626 1.523 . S
C626 C607 1.368 . S
C626 C620 1.374 . S
C626 C625 1.523 . S
C627 C611 1.429 . S
C627 C623 1.429 . S
C627 C628 1.523 . S
C628 C612 1.391 . S
C628 C624 1.368 . S
C628 C627 1.523 . S
H629 C604 0.934 1_556 S
H630 C606 0.937 1_556 S
H631 C607 0.949 . S
H632 C609 0.950 . S
H633 C611 0.950 . S
C634 C635 1.349 . S
C634 C636 1.327 . S
C634 H659 0.950 . S
C635 C634 1.349 . S
C635 C651 1.349 . S
C636 C634 1.327 . S
C636 C655 1.429 . S
C636 H660 0.950 . S
C637 C654 1.574 . S
C637 C656 1.368 . S
C637 H661 0.949 . S
H638 C642 0.949 . S
C639 C640 1.349 . S
C639 C641 1.327 . S
C639 H662 0.950 . S
C640 C639 1.349 . S
C640 C652 1.349 . S
C641 C639 1.327 . S
C641 C657 1.429 . S
C641 H663 0.950 . S
C642 H638 0.949 . S
C642 C650 1.574 . S
C642 C658 1.368 . S
H643 C651 0.950 . S
H644 C649 0.950 . S
H645 C650 0.949 . S
H646 C652 0.950 . S
H647 C653 0.950 . S
H648 C654 0.949 . S
C649 H644 0.950 . S
C649 C651 1.327 . S
C649 C655 1.429 . S
C650 C642 1.574 . S
C650 H645 0.949 . S
C650 C656 1.368 . S
C651 C635 1.349 . S
C651 H643 0.950 . S
C651 C649 1.327 . S
C652 C640 1.349 . S
C652 H646 0.950 . S
C652 C653 1.327 . S
C653 H647 0.950 . S
C653 C652 1.327 . S
C653 C657 1.429 . S
C654 C637 1.574 . S
C654 H648 0.949 . S
C654 C658 1.368 . S
C655 C636 1.429 . S
C655 C649 1.429 . S
C655 C656 1.523 . S
C656 C637 1.368 . S
C656 C650 1.368 . S
C656 C655 1.523 . S
C657 C641 1.429 . S
C657 C653 1.429 . S
C657 C658 1.523 . S
C658 C642 1.368 . S
C658 C654 1.368 . S
C658 C657 1.523 . S
H659 C634 0.950 . S
H660 C636 0.950 . S
H661 C637 0.949 . S
H662 C639 0.950 . S
H663 C641 0.950 . S
C185 N12 0.393 . S
C190 N104 0.393 . S
C215 C39 1.670 . S
C220 C131 1.670 . S
C245 N150 0.393 . S
C250 N58 0.393 . S
C275 C177 1.670 . S
C280 C85 1.670 . S
C305 N140 1.413 . S
C310 N48 1.413 . S
C335 C168 2.788 . S
C340 C76 2.788 . S
C365 N2 1.413 . S
C370 N94 1.413 . S
C395 C30 2.788 . S
C400 C122 2.788 . S
C425 C53 1.923 . S
C430 C7 1.923 . S
C455 N71 1.837 . S
C460 N25 1.837 . S
C485 C99 1.923 . S
C490 C145 1.923 . S
C515 N163 1.837 1_556 S
C520 N117 1.837 1_556 S
C545 C16 1.873 . S
C550 N127 1.866 . S
C575 C154 1.873 . S
C580 N35 1.866 . S
C605 C62 1.873 . S
C610 N173 1.866 . S
C635 N81 1.866 . S
C640 C108 1.873 . S
