# Generated by pormake.
# Topology crr, (4)-cn, num edge types: 1
# Building blocks:
#     Node 0, Type 0, BuildingBlock: KOZSID_clean_sbu_0, # of connection points: 4
#     Node 1, Type 0, BuildingBlock: KOZSID_clean_sbu_0, # of connection points: 4
#     Node 2, Type 0, BuildingBlock: KOZSID_clean_sbu_0, # of connection points: 4
#     Node 3, Type 0, BuildingBlock: KOZSID_clean_sbu_0, # of connection points: 4
#     Node 4, Type 0, BuildingBlock: KOZSID_clean_sbu_0, # of connection points: 4
#     Node 5, Type 0, BuildingBlock: KOZSID_clean_sbu_0, # of connection points: 4
#     Node 6, Type 0, BuildingBlock: KOZSID_clean_sbu_0, # of connection points: 4
#     Node 7, Type 0, BuildingBlock: KOZSID_clean_sbu_0, # of connection points: 4
#     Node 8, Type 0, BuildingBlock: KOZSID_clean_sbu_0, # of connection points: 4
#     Node 9, Type 0, BuildingBlock: KOZSID_clean_sbu_0, # of connection points: 4
#     Node 10, Type 0, BuildingBlock: KOZSID_clean_sbu_0, # of connection points: 4
#     Node 11, Type 0, BuildingBlock: KOZSID_clean_sbu_0, # of connection points: 4
#     Edge 12, Type (0, 0), BuildingBlock: UVAHIK_clean_linker_0, # of connection points: 2
#     Edge 13, Type (0, 0), BuildingBlock: UVAHIK_clean_linker_0, # of connection points: 2
#     Edge 14, Type (0, 0), BuildingBlock: UVAHIK_clean_linker_0, # of connection points: 2
#     Edge 15, Type (0, 0), BuildingBlock: UVAHIK_clean_linker_0, # of connection points: 2
#     Edge 16, Type (0, 0), BuildingBlock: UVAHIK_clean_linker_0, # of connection points: 2
#     Edge 17, Type (0, 0), BuildingBlock: UVAHIK_clean_linker_0, # of connection points: 2
#     Edge 18, Type (0, 0), BuildingBlock: UVAHIK_clean_linker_0, # of connection points: 2
#     Edge 19, Type (0, 0), BuildingBlock: UVAHIK_clean_linker_0, # of connection points: 2
#     Edge 20, Type (0, 0), BuildingBlock: UVAHIK_clean_linker_0, # of connection points: 2
#     Edge 21, Type (0, 0), BuildingBlock: UVAHIK_clean_linker_0, # of connection points: 2
#     Edge 22, Type (0, 0), BuildingBlock: UVAHIK_clean_linker_0, # of connection points: 2
#     Edge 23, Type (0, 0), BuildingBlock: UVAHIK_clean_linker_0, # of connection points: 2
#     Edge 24, Type (0, 0), BuildingBlock: UVAHIK_clean_linker_0, # of connection points: 2
#     Edge 25, Type (0, 0), BuildingBlock: UVAHIK_clean_linker_0, # of connection points: 2
#     Edge 26, Type (0, 0), BuildingBlock: UVAHIK_clean_linker_0, # of connection points: 2
#     Edge 27, Type (0, 0), BuildingBlock: UVAHIK_clean_linker_0, # of connection points: 2
#     Edge 28, Type (0, 0), BuildingBlock: UVAHIK_clean_linker_0, # of connection points: 2
#     Edge 29, Type (0, 0), BuildingBlock: UVAHIK_clean_linker_0, # of connection points: 2
#     Edge 30, Type (0, 0), BuildingBlock: UVAHIK_clean_linker_0, # of connection points: 2
#     Edge 31, Type (0, 0), BuildingBlock: UVAHIK_clean_linker_0, # of connection points: 2
#     Edge 32, Type (0, 0), BuildingBlock: UVAHIK_clean_linker_0, # of connection points: 2
#     Edge 33, Type (0, 0), BuildingBlock: UVAHIK_clean_linker_0, # of connection points: 2
#     Edge 34, Type (0, 0), BuildingBlock: UVAHIK_clean_linker_0, # of connection points: 2
#     Edge 35, Type (0, 0), BuildingBlock: UVAHIK_clean_linker_0, # of connection points: 2
# Relax obj value: 0.018
# Max RMSD: 0.089
# Mean RMSD: 0.068
data_MOF--net-crr--node1-KOZSID_clean_sbu_0--edge1-UVAHIK_clean_linker_0
_symmetry_space_group_name_H-M    P1
_symmetry_Int_Tables_number       1
_symmetry_cell_setting            triclinic
loop_
_symmetry_equiv_pos_as_xyz
'x, y, z'
_cell_length_a     64.544413
_cell_length_b     62.653221
_cell_length_c     60.891213
_cell_angle_alpha  91.547558
_cell_angle_beta   86.923317
_cell_angle_gamma 88.47545
loop_
_atom_site_label
_atom_site_type_symbol
_atom_site_fract_x
_atom_site_fract_y
_atom_site_fract_z
_atom_type_partial_charge
C0 C 0.0581 0.32642 0.37734 0.0
C1 C 0.04005 0.3152 0.37491 0.0
C2 C 0.03868 0.31119 0.35292 0.0
C3 C 0.05582 0.32021 0.34318 0.0
N4 N 0.06815 0.32969 0.35762 0.0
Co5 Co 0.09444 0.34507 0.3504 0.0
N6 N 0.09147 0.34054 0.31798 0.0
C7 C 0.07556 0.33126 0.30813 0.0
C8 C 0.07778 0.33055 0.28562 0.0
C9 C 0.09633 0.33973 0.28075 0.0
C10 C 0.10443 0.34538 0.30069 0.0
N11 N 0.12105 0.35993 0.3432 0.0
C12 C 0.13152 0.36232 0.32354 0.0
C13 C 0.15022 0.37237 0.32602 0.0
C14 C 0.15164 0.37643 0.34798 0.0
C15 C 0.13391 0.36855 0.35765 0.0
N16 N 0.09711 0.35015 0.38281 0.0
C17 C 0.11243 0.36052 0.39262 0.0
C18 C 0.10998 0.36173 0.4151 0.0
C19 C 0.09184 0.3518 0.42 0.0
C20 C 0.0842 0.34518 0.40011 0.0
N21 N 0.1105 0.31761 0.35127 0.0
C22 C 0.13559 0.28002 0.34965 0.0
C23 C 0.13992 0.29729 0.36344 0.0
C24 C 0.12734 0.31577 0.36394 0.0
C25 C 0.1181 0.28158 0.33719 0.0
C26 C 0.10572 0.30029 0.33844 0.0
N27 N 0.07849 0.37259 0.34941 0.0
C28 C 0.07505 0.4105 0.35797 0.0
C29 C 0.05596 0.41174 0.34826 0.0
C30 C 0.04835 0.39303 0.33908 0.0
C31 C 0.05974 0.37379 0.33988 0.0
C32 C 0.08595 0.39098 0.35834 0.0
H33 H 0.05298 0.36011 0.33279 0.0
H34 H 0.10038 0.39121 0.36597 0.0
H35 H 0.13186 0.32848 0.37439 0.0
H36 H 0.09253 0.30047 0.32863 0.0
C37 C 0.05972 0.3217 0.32052 0.0
C38 C 0.06447 0.33455 0.39856 0.0
C39 C 0.12486 0.35444 0.30234 0.0
C40 C 0.12916 0.36855 0.38028 0.0
H41 H 0.02874 0.31079 0.38762 0.0
H42 H 0.02629 0.30327 0.34494 0.0
H43 H 0.06745 0.32359 0.27414 0.0
H44 H 0.10335 0.34161 0.2644 0.0
H45 H 0.1619 0.37601 0.31338 0.0
H46 H 0.16431 0.38383 0.35598 0.0
H47 H 0.12016 0.36897 0.42655 0.0
H48 H 0.08497 0.34976 0.43639 0.0
H49 H 0.1534 0.29685 0.37331 0.0
H50 H 0.11399 0.26844 0.32649 0.0
H51 H 0.08174 0.4246 0.36507 0.0
H52 H 0.0335 0.39312 0.33159 0.0
C53 C 0.2941 0.89919 0.67301 0.0
C54 C 0.27613 0.91014 0.68093 0.0
C55 C 0.28218 0.92898 0.68998 0.0
C56 C 0.30337 0.92855 0.68691 0.0
N57 N 0.31126 0.9106 0.6764 0.0
Co58 Co 0.34121 0.90395 0.66774 0.0
N59 N 0.35021 0.9308 0.68275 0.0
C60 C 0.33797 0.94503 0.69487 0.0
C61 C 0.34851 0.96179 0.70334 0.0
C62 C 0.36871 0.95808 0.69616 0.0
C63 C 0.3693 0.9392 0.68365 0.0
N64 N 0.37104 0.8979 0.65796 0.0
C65 C 0.38797 0.90995 0.66024 0.0
C66 C 0.40566 0.90027 0.64998 0.0
C67 C 0.39965 0.88158 0.6406 0.0
C68 C 0.37874 0.88093 0.64563 0.0
N69 N 0.33237 0.87648 0.65383 0.0
C70 C 0.34493 0.86108 0.64385 0.0
C71 C 0.33472 0.8433 0.63736 0.0
C72 C 0.31443 0.84744 0.64378 0.0
C73 C 0.31339 0.86773 0.65366 0.0
N74 N 0.33778 0.91921 0.63997 0.0
C75 C 0.33466 0.94121 0.60036 0.0
C76 C 0.3403 0.9195 0.60022 0.0
C77 C 0.34189 0.90897 0.61998 0.0
C78 C 0.33021 0.95158 0.62077 0.0
C79 C 0.33168 0.94035 0.64017 0.0
N80 N 0.34463 0.88859 0.6955 0.0
C81 C 0.35925 0.85905 0.71482 0.0
C82 C 0.34696 0.86457 0.73377 0.0
C83 C 0.33397 0.88273 0.73353 0.0
C84 C 0.33324 0.89457 0.71444 0.0
C85 C 0.35781 0.87111 0.69602 0.0
H86 H 0.32314 0.90834 0.71536 0.0
H87 H 0.36726 0.86569 0.68203 0.0
H88 H 0.34661 0.89255 0.61862 0.0
H89 H 0.32802 0.94919 0.65514 0.0
C90 C 0.31641 0.9436 0.69568 0.0
C91 C 0.29409 0.87778 0.66301 0.0
C92 C 0.38809 0.93057 0.6719 0.0
C93 C 0.36611 0.86415 0.64002 0.0
H94 H 0.26032 0.90488 0.68056 0.0
H95 H 0.27235 0.94124 0.69835 0.0
H96 H 0.34215 0.97551 0.71286 0.0
H97 H 0.38144 0.96845 0.69926 0.0
H98 H 0.42131 0.9061 0.64936 0.0
H99 H 0.40938 0.86982 0.63132 0.0
H100 H 0.34126 0.82901 0.629 0.0
H101 H 0.30188 0.83662 0.64155 0.0
H102 H 0.34346 0.91051 0.58491 0.0
H103 H 0.32597 0.96843 0.62192 0.0
H104 H 0.36947 0.84502 0.71424 0.0
H105 H 0.32439 0.88776 0.74799 0.0
C106 C 0.92158 0.61278 0.36118 0.0
C107 C 0.91298 0.59451 0.36979 0.0
C108 C 0.89471 0.60076 0.38063 0.0
C109 C 0.89316 0.62237 0.37798 0.0
N110 N 0.90925 0.63033 0.36591 0.0
Co111 Co 0.91336 0.66097 0.35828 0.0
N112 N 0.88659 0.6702 0.37458 0.0
C113 C 0.87326 0.65764 0.38587 0.0
C114 C 0.8556 0.66821 0.39418 0.0
C115 C 0.85754 0.68868 0.38755 0.0
C116 C 0.87646 0.68949 0.37562 0.0
N117 N 0.91746 0.6916 0.35071 0.0
C118 C 0.90447 0.70887 0.35418 0.0
C119 C 0.91312 0.72722 0.34586 0.0
C120 C 0.93207 0.72125 0.3363 0.0
C121 C 0.93393 0.69972 0.33942 0.0
N122 N 0.94004 0.65171 0.34183 0.0
C123 C 0.95352 0.66433 0.33085 0.0
C124 C 0.97063 0.6535 0.32148 0.0
C125 C 0.96803 0.63272 0.32689 0.0
C126 C 0.94938 0.63208 0.33928 0.0
N127 N 0.89815 0.65674 0.33113 0.0
C128 C 0.87412 0.65477 0.29395 0.0
C129 C 0.89349 0.6642 0.29291 0.0
C130 C 0.90519 0.66499 0.31157 0.0
C131 C 0.86746 0.64544 0.31356 0.0
C132 C 0.87966 0.6465 0.33174 0.0
N133 N 0.92858 0.66528 0.38555 0.0
C134 C 0.95849 0.6776 0.4041 0.0
C135 C 0.95077 0.66964 0.42403 0.0
C136 C 0.93159 0.65985 0.42444 0.0
C137 C 0.92087 0.65789 0.40524 0.0
C138 C 0.94725 0.67526 0.38523 0.0
H139 H 0.90643 0.65021 0.40679 0.0
H140 H 0.95411 0.68145 0.37056 0.0
H141 H 0.91963 0.67279 0.30995 0.0
H142 H 0.87359 0.63927 0.34622 0.0
C143 C 0.87695 0.63564 0.38688 0.0
C144 C 0.94167 0.61263 0.34903 0.0
C145 C 0.88355 0.70852 0.36443 0.0
C146 C 0.95008 0.68642 0.33038 0.0
H147 H 0.91936 0.57834 0.36853 0.0
H148 H 0.88393 0.59077 0.38956 0.0
H149 H 0.84248 0.66161 0.40323 0.0
H150 H 0.84594 0.70134 0.39059 0.0
H151 H 0.90621 0.74316 0.3462 0.0
H152 H 0.94289 0.73128 0.32749 0.0
H153 H 0.98364 0.66001 0.31216 0.0
H154 H 0.97882 0.61958 0.32252 0.0
H155 H 0.89931 0.6716 0.27802 0.0
H156 H 0.85277 0.63749 0.31497 0.0
H157 H 0.97337 0.68521 0.40291 0.0
H158 H 0.92475 0.65377 0.43958 0.0
C159 C 0.62766 0.11664 0.67266 0.0
C160 C 0.61589 0.13549 0.67246 0.0
C161 C 0.61041 0.13789 0.65133 0.0
C162 C 0.61902 0.12038 0.63993 0.0
N163 N 0.62935 0.10674 0.65259 0.0
Co164 Co 0.64447 0.07946 0.64286 0.0
N165 N 0.6391 0.08453 0.61124 0.0
C166 C 0.629 0.10157 0.60313 0.0
C167 C 0.62827 0.10091 0.58069 0.0
C168 C 0.63836 0.08227 0.57402 0.0
C169 C 0.64453 0.07249 0.59291 0.0
N170 N 0.65936 0.052 0.63313 0.0
C171 C 0.66227 0.04269 0.61279 0.0
C172 C 0.67262 0.02301 0.61347 0.0
C173 C 0.67646 0.01981 0.63494 0.0
C174 C 0.66818 0.03754 0.64615 0.0
N175 N 0.65017 0.07469 0.67449 0.0
C176 C 0.66027 0.05772 0.68268 0.0
C177 C 0.66306 0.05963 0.70479 0.0
C178 C 0.65461 0.07918 0.71106 0.0
C179 C 0.64701 0.08803 0.69233 0.0
N180 N 0.61803 0.06389 0.64638 0.0
C181 C 0.58042 0.04203 0.65148 0.0
C182 C 0.59843 0.03441 0.66074 0.0
C183 C 0.61688 0.04546 0.65799 0.0
C184 C 0.58161 0.06073 0.63957 0.0
C185 C 0.60036 0.07126 0.63723 0.0
N186 N 0.67076 0.09504 0.63946 0.0
C187 C 0.70716 0.09824 0.64616 0.0
C188 C 0.7074 0.11857 0.63726 0.0
C189 C 0.68908 0.12669 0.62906 0.0
C190 C 0.67112 0.11476 0.6303 0.0
C191 C 0.68884 0.08681 0.647 0.0
H192 H 0.65761 0.12201 0.62408 0.0
H193 H 0.68961 0.07144 0.65406 0.0
H194 H 0.62998 0.03868 0.66536 0.0
H195 H 0.60008 0.08535 0.62793 0.0
C196 C 0.61967 0.11754 0.61708 0.0
C197 C 0.63813 0.10963 0.6919 0.0
C198 C 0.65491 0.05149 0.59256 0.0
C199 C 0.66827 0.04098 0.6689 0.0
H200 H 0.61229 0.1467 0.68606 0.0
H201 H 0.60196 0.15127 0.64486 0.0
H202 H 0.62103 0.11247 0.57042 0.0
H203 H 0.64068 0.07642 0.55716 0.0
H204 H 0.67673 0.01191 0.59992 0.0
H205 H 0.68416 0.00607 0.64163 0.0
H206 H 0.67102 0.0485 0.71495 0.0
H207 H 0.65463 0.08632 0.72742 0.0
H208 H 0.59841 0.0198 0.66986 0.0
H209 H 0.56805 0.06746 0.63227 0.0
H210 H 0.72106 0.09113 0.65243 0.0
H211 H 0.68839 0.14245 0.62222 0.0
C212 C 0.09778 0.66483 0.71764 0.0
C213 C 0.08867 0.67248 0.73759 0.0
C214 C 0.07029 0.68218 0.73305 0.0
C215 C 0.06927 0.68002 0.71069 0.0
N216 N 0.08576 0.66926 0.70065 0.0
Co217 Co 0.09117 0.66358 0.66819 0.0
N218 N 0.0653 0.67998 0.66134 0.0
C219 C 0.05156 0.69014 0.67588 0.0
C220 C 0.03513 0.69973 0.66631 0.0
C221 C 0.03844 0.69532 0.64433 0.0
C222 C 0.0568 0.68325 0.64178 0.0
N223 N 0.09656 0.65775 0.63574 0.0
C224 C 0.08501 0.66305 0.61867 0.0
C225 C 0.09421 0.65565 0.59867 0.0
C226 C 0.11209 0.645 0.60328 0.0
C227 C 0.1128 0.64655 0.6257 0.0
N228 N 0.11712 0.64733 0.67498 0.0
C229 C 0.13075 0.63691 0.66049 0.0
C230 C 0.14726 0.62749 0.67009 0.0
C231 C 0.14421 0.63248 0.69198 0.0
C232 C 0.126 0.64482 0.69444 0.0
N233 N 0.07512 0.63696 0.67021 0.0
C234 C 0.05198 0.59942 0.67136 0.0
C235 C 0.07128 0.59977 0.65998 0.0
C236 C 0.08252 0.61845 0.65974 0.0
C237 C 0.04455 0.61805 0.68256 0.0
C238 C 0.05623 0.63656 0.68165 0.0
N239 N 0.10724 0.69012 0.66616 0.0
C240 C 0.13765 0.70846 0.65269 0.0
C241 C 0.1312 0.72703 0.66454 0.0
C242 C 0.11245 0.72696 0.67708 0.0
C243 C 0.10067 0.70853 0.67745 0.0
C244 C 0.12563 0.69032 0.65385 0.0
H245 H 0.0864 0.70949 0.68711 0.0
H246 H 0.13172 0.67659 0.64485 0.0
H247 H 0.0971 0.61747 0.65081 0.0
H248 H 0.04956 0.65037 0.69013 0.0
C249 C 0.05401 0.68953 0.69849 0.0
C250 C 0.1184 0.65468 0.71541 0.0
C251 C 0.06502 0.67448 0.62058 0.0
C252 C 0.12819 0.63716 0.63787 0.0
H253 H 0.09487 0.67173 0.7537 0.0
H254 H 0.05936 0.69055 0.74457 0.0
H255 H 0.02207 0.70851 0.6744 0.0
H256 H 0.0283 0.70011 0.63165 0.0
H257 H 0.08844 0.65752 0.58245 0.0
H258 H 0.12309 0.63683 0.59169 0.0
H259 H 0.16023 0.61852 0.66207 0.0
H260 H 0.15448 0.62799 0.70467 0.0
H261 H 0.07781 0.58559 0.65135 0.0
H262 H 0.02959 0.61851 0.69154 0.0
H263 H 0.15222 0.70772 0.64296 0.0
H264 H 0.10683 0.74111 0.68641 0.0
C265 C 0.64935 0.9122 0.3877 0.0
C266 C 0.64115 0.90389 0.40714 0.0
C267 C 0.63137 0.8857 0.4015 0.0
C268 C 0.63424 0.88383 0.37909 0.0
N269 N 0.64548 0.89961 0.37002 0.0
Co270 Co 0.65344 0.90296 0.338 0.0
N271 N 0.63929 0.87597 0.32983 0.0
C272 C 0.62887 0.86286 0.34354 0.0
C273 C 0.6215 0.84514 0.33321 0.0
C274 C 0.62789 0.84681 0.31163 0.0
C275 C 0.63885 0.86552 0.3101 0.0
N276 N 0.66105 0.90647 0.3059 0.0
C277 C 0.65824 0.89322 0.28842 0.0
C278 C 0.66627 0.90145 0.26892 0.0
C279 C 0.67468 0.92052 0.2743 0.0
C280 C 0.67132 0.9228 0.29667 0.0
N281 N 0.668 0.9297 0.34623 0.0
C282 C 0.67847 0.94271 0.33242 0.0
C283 C 0.68658 0.96001 0.34278 0.0
C284 C 0.68095 0.95801 0.36451 0.0
C285 C 0.66974 0.93946 0.36619 0.0
N286 N 0.67957 0.88609 0.34115 0.0
C287 C 0.71636 0.86161 0.34513 0.0
C288 C 0.71621 0.87958 0.33209 0.0
C289 C 0.69783 0.89164 0.33051 0.0
C290 C 0.69784 0.8561 0.35616 0.0
C291 C 0.67976 0.86834 0.35381 0.0
N292 N 0.62726 0.91988 0.33486 0.0
C293 C 0.60923 0.9517 0.32325 0.0
C294 C 0.59027 0.94454 0.33195 0.0
C295 C 0.59012 0.92468 0.34182 0.0
C296 C 0.60858 0.91273 0.34305 0.0
C297 C 0.62735 0.93924 0.32488 0.0
H298 H 0.6073 0.89782 0.35082 0.0
H299 H 0.64126 0.94576 0.31814 0.0
H300 H 0.69875 0.90535 0.32056 0.0
H301 H 0.6661 0.863 0.36228 0.0
C302 C 0.62697 0.86718 0.36617 0.0
C303 C 0.66038 0.93223 0.38694 0.0
C304 C 0.64922 0.87221 0.28971 0.0
C305 C 0.67934 0.93896 0.30967 0.0
H306 H 0.64209 0.91034 0.42371 0.0
H307 H 0.62319 0.87507 0.41245 0.0
H308 H 0.61292 0.83229 0.34057 0.0
H309 H 0.62515 0.83535 0.29855 0.0
H310 H 0.66653 0.89415 0.25259 0.0
H311 H 0.68295 0.93106 0.26333 0.0
H312 H 0.69515 0.97282 0.33534 0.0
H313 H 0.68441 0.9692 0.37756 0.0
H314 H 0.73029 0.88449 0.32336 0.0
H315 H 0.69721 0.84212 0.36624 0.0
H316 H 0.61021 0.96707 0.31559 0.0
H317 H 0.57578 0.91824 0.34849 0.0
C318 C 0.89454 0.33431 0.69731 0.0
C319 C 0.90177 0.3254 0.71618 0.0
C320 C 0.92044 0.31563 0.71025 0.0
C321 C 0.92347 0.31901 0.6882 0.0
N322 N 0.90802 0.33064 0.67969 0.0
Co323 Co 0.90538 0.33782 0.64798 0.0
N324 N 0.93221 0.32225 0.639 0.0
C325 C 0.9453 0.31247 0.65241 0.0
C326 C 0.96311 0.30428 0.64179 0.0
C327 C 0.96147 0.30932 0.6203 0.0
C328 C 0.94255 0.3202 0.61902 0.0
N329 N 0.90231 0.34439 0.61622 0.0
C330 C 0.915 0.33937 0.59828 0.0
C331 C 0.90663 0.34634 0.57909 0.0
C332 C 0.88823 0.35658 0.58518 0.0
C333 C 0.88631 0.35511 0.60759 0.0
N334 N 0.87889 0.35394 0.657 0.0
C335 C 0.86674 0.3654 0.64394 0.0
C336 C 0.84963 0.37484 0.65489 0.0
C337 C 0.85079 0.36888 0.67618 0.0
C338 C 0.86856 0.356 0.67693 0.0
N339 N 0.92094 0.36447 0.65228 0.0
C340 C 0.94299 0.4023 0.65804 0.0
C341 C 0.92655 0.40153 0.64411 0.0
C342 C 0.91576 0.38269 0.64161 0.0
C343 C 0.9482 0.38388 0.66914 0.0
C344 C 0.93718 0.36524 0.66591 0.0
N345 N 0.88976 0.31128 0.64378 0.0
C346 C 0.85891 0.29379 0.63268 0.0
C347 C 0.86616 0.27424 0.64017 0.0
C348 C 0.88565 0.27346 0.64913 0.0
C349 C 0.89715 0.292 0.65065 0.0
C350 C 0.87083 0.31192 0.63463 0.0
H351 H 0.91188 0.29041 0.65765 0.0
H352 H 0.86422 0.32634 0.62893 0.0
H353 H 0.9033 0.38333 0.63091 0.0
H354 H 0.94219 0.35165 0.67452 0.0
C355 C 0.94045 0.31123 0.67494 0.0
C356 C 0.87441 0.34531 0.69672 0.0
C357 C 0.93544 0.32891 0.59864 0.0
C358 C 0.87055 0.36503 0.62115 0.0
H359 H 0.89419 0.32559 0.73247 0.0
H360 H 0.93044 0.30677 0.72069 0.0
H361 H 0.97591 0.29589 0.64887 0.0
H362 H 0.97306 0.30564 0.60716 0.0
H363 H 0.91333 0.34458 0.56244 0.0
H364 H 0.87775 0.3646 0.57459 0.0
H365 H 0.83737 0.38426 0.64805 0.0
H366 H 0.83956 0.37307 0.68954 0.0
H367 H 0.92183 0.41551 0.63534 0.0
H368 H 0.96101 0.38371 0.67994 0.0
H369 H 0.8438 0.2953 0.62585 0.0
H370 H 0.89204 0.2586 0.6549 0.0
C371 C 0.30578 0.10505 0.32991 0.0
C372 C 0.28895 0.09516 0.32116 0.0
C373 C 0.29645 0.07669 0.31094 0.0
C374 C 0.3173 0.07626 0.31417 0.0
N375 N 0.32358 0.09325 0.326 0.0
Co376 Co 0.35249 0.09874 0.33486 0.0
N377 N 0.36387 0.07271 0.31784 0.0
C378 C 0.35316 0.05913 0.30536 0.0
C379 C 0.36507 0.04266 0.29575 0.0
C380 C 0.38458 0.0458 0.30255 0.0
C381 C 0.38341 0.06411 0.31599 0.0
N382 N 0.38131 0.10386 0.34429 0.0
C383 C 0.39904 0.09191 0.34054 0.0
C384 C 0.41556 0.10083 0.35084 0.0
C385 C 0.40796 0.11887 0.36179 0.0
C386 C 0.38733 0.11996 0.35755 0.0
N387 N 0.34123 0.12522 0.35123 0.0
C388 C 0.35215 0.13941 0.36277 0.0
C389 C 0.34061 0.1568 0.37086 0.0
C390 C 0.32118 0.15374 0.36387 0.0
C391 C 0.32193 0.13443 0.35202 0.0
N392 N 0.34732 0.0815 0.36144 0.0
C393 C 0.34058 0.05716 0.39926 0.0
C394 C 0.3467 0.07828 0.40096 0.0
C395 C 0.35013 0.08999 0.38202 0.0
C396 C 0.33782 0.04837 0.37836 0.0
C397 C 0.34104 0.06079 0.35982 0.0
N398 N 0.3575 0.11607 0.30839 0.0
C399 C 0.36834 0.14914 0.29253 0.0
C400 C 0.35955 0.14373 0.27279 0.0
C401 C 0.35082 0.1237 0.27062 0.0
C402 C 0.34991 0.11019 0.28856 0.0
C403 C 0.36739 0.13508 0.30987 0.0
H404 H 0.34251 0.09536 0.2862 0.0
H405 H 0.37432 0.14021 0.32448 0.0
H406 H 0.35519 0.10582 0.38452 0.0
H407 H 0.3384 0.05325 0.34439 0.0
C408 C 0.33162 0.0612 0.30465 0.0
C409 C 0.30413 0.12592 0.34119 0.0
C410 C 0.40099 0.07195 0.32761 0.0
C411 C 0.37332 0.13607 0.36548 0.0
H412 H 0.27297 0.10092 0.32173 0.0
H413 H 0.28784 0.06524 0.30172 0.0
H414 H 0.36005 0.02954 0.28559 0.0
H415 H 0.398 0.03544 0.29854 0.0
H416 H 0.43146 0.09483 0.35055 0.0
H417 H 0.41643 0.12986 0.37172 0.0
H418 H 0.3458 0.1703 0.38036 0.0
H419 H 0.30808 0.16475 0.36687 0.0
H420 H 0.34928 0.08564 0.41686 0.0
H421 H 0.33296 0.03204 0.37634 0.0
H422 H 0.3757 0.16435 0.2947 0.0
H423 H 0.34396 0.11883 0.25548 0.0
C424 C 0.34996 0.30838 0.09237 0.0
C425 C 0.34259 0.28984 0.08293 0.0
C426 C 0.33349 0.29563 0.06421 0.0
C427 C 0.33568 0.31728 0.06335 0.0
N428 N 0.34591 0.32568 0.08022 0.0
Co429 Co 0.35103 0.35673 0.08634 0.0
N430 N 0.33557 0.36549 0.06014 0.0
C431 C 0.32657 0.35243 0.0456 0.0
C432 C 0.31791 0.36291 0.02875 0.0
C433 C 0.32172 0.38394 0.0326 0.0
C434 C 0.33242 0.3851 0.05178 0.0
N435 N 0.35599 0.38774 0.09266 0.0
C436 C 0.35044 0.40527 0.08155 0.0
C437 C 0.35657 0.42393 0.09187 0.0
C438 C 0.36678 0.41797 0.10984 0.0
C439 C 0.36617 0.39614 0.1096 0.0
N440 N 0.3666 0.348 0.11243 0.0
C441 C 0.37661 0.36087 0.12631 0.0
C442 C 0.38583 0.35022 0.14273 0.0
C443 C 0.38115 0.32933 0.13938 0.0
C444 C 0.36917 0.32849 0.12112 0.0
N445 N 0.37723 0.35454 0.06757 0.0
C446 C 0.41453 0.35162 0.04117 0.0
C447 C 0.41345 0.36272 0.0614 0.0
C448 C 0.39486 0.36397 0.07418 0.0
C449 C 0.39662 0.34196 0.03436 0.0
C450 C 0.37828 0.34365 0.04768 0.0
N451 N 0.32495 0.35881 0.10514 0.0
C452 C 0.3071 0.36822 0.14008 0.0
C453 C 0.28913 0.35835 0.1337 0.0
C454 C 0.28914 0.34948 0.11238 0.0
C455 C 0.30705 0.34998 0.09844 0.0
C456 C 0.32464 0.36824 0.12571 0.0
H457 H 0.3062 0.34274 0.0825 0.0
H458 H 0.33788 0.37568 0.13178 0.0
H459 H 0.39522 0.37267 0.08934 0.0
H460 H 0.36516 0.33609 0.04145 0.0
C461 C 0.32703 0.33032 0.04783 0.0
C462 C 0.35962 0.30901 0.11348 0.0
C463 C 0.33995 0.40506 0.06091 0.0
C464 C 0.37568 0.38305 0.12455 0.0
H465 H 0.34316 0.27385 0.08916 0.0
H466 H 0.32556 0.28539 0.05298 0.0
H467 H 0.31011 0.35604 0.01506 0.0
H468 H 0.31741 0.39686 0.02219 0.0
H469 H 0.35415 0.44019 0.08678 0.0
H470 H 0.37405 0.42831 0.12152 0.0
H471 H 0.39435 0.35693 0.15598 0.0
H472 H 0.38555 0.31625 0.14958 0.0
H473 H 0.42699 0.37023 0.06757 0.0
H474 H 0.39662 0.33337 0.01869 0.0
H475 H 0.30773 0.37584 0.1562 0.0
H476 H 0.27563 0.34162 0.10664 0.0
C477 C 0.33353 0.69723 0.91101 0.0
C478 C 0.32601 0.71572 0.92213 0.0
C479 C 0.31638 0.7095 0.94128 0.0
C480 C 0.31865 0.68768 0.94083 0.0
N481 N 0.32933 0.67956 0.92264 0.0
Co482 Co 0.33609 0.64866 0.91527 0.0
N483 N 0.32077 0.63942 0.94286 0.0
C484 C 0.3104 0.65217 0.95829 0.0
C485 C 0.30214 0.64141 0.97581 0.0
C486 C 0.30769 0.62052 0.97147 0.0
C487 C 0.31898 0.61972 0.95137 0.0
N488 N 0.34299 0.61778 0.90797 0.0
C489 C 0.33898 0.60014 0.91972 0.0
C490 C 0.3466 0.58165 0.90867 0.0
C491 C 0.35622 0.58784 0.8895 0.0
C492 C 0.35383 0.60964 0.88986 0.0
N493 N 0.35128 0.65787 0.88758 0.0
C494 C 0.36129 0.64508 0.87191 0.0
C495 C 0.36945 0.65584 0.85434 0.0
C496 C 0.3642 0.67676 0.85889 0.0
C497 C 0.3532 0.67758 0.87916 0.0
N498 N 0.362 0.65061 0.93129 0.0
C499 C 0.399 0.65315 0.95383 0.0
C500 C 0.39906 0.64453 0.93241 0.0
C501 C 0.38058 0.64325 0.92167 0.0
C502 C 0.38 0.66053 0.96373 0.0
C503 C 0.36189 0.65925 0.95222 0.0
N504 N 0.31021 0.64685 0.89916 0.0
C505 C 0.29343 0.63865 0.86556 0.0
C506 C 0.27502 0.64865 0.8739 0.0
C507 C 0.27406 0.65677 0.89549 0.0
C508 C 0.29179 0.65579 0.90774 0.0
C509 C 0.31059 0.63769 0.87845 0.0
H510 H 0.29034 0.66282 0.92389 0.0
H511 H 0.32408 0.62984 0.87107 0.0
H512 H 0.38178 0.63624 0.90555 0.0
H513 H 0.34798 0.66526 0.96065 0.0
C514 C 0.31007 0.67436 0.95668 0.0
C515 C 0.34412 0.69731 0.88925 0.0
C516 C 0.32862 0.6001 0.94161 0.0
C517 C 0.36204 0.62291 0.87373 0.0
H518 H 0.32714 0.73201 0.91679 0.0
H519 H 0.30834 0.71963 0.95385 0.0
H520 H 0.2937 0.64804 0.99036 0.0
H521 H 0.30425 0.60748 0.98223 0.0
H522 H 0.34557 0.56537 0.91406 0.0
H523 H 0.36427 0.57769 0.87695 0.0
H524 H 0.37778 0.6492 0.83972 0.0
H525 H 0.36774 0.68983 0.84819 0.0
H526 H 0.41334 0.63894 0.92373 0.0
H527 H 0.37896 0.66708 0.9804 0.0
H528 H 0.29464 0.63174 0.84901 0.0
H529 H 0.25998 0.66455 0.90259 0.0
C530 C 0.67508 0.62556 0.05797 0.0
C531 C 0.68636 0.62572 0.03791 0.0
C532 C 0.69061 0.64654 0.03401 0.0
C533 C 0.68175 0.65785 0.05183 0.0
N534 N 0.67212 0.64552 0.06693 0.0
Co535 Co 0.65755 0.65542 0.09549 0.0
N536 N 0.66301 0.68609 0.08923 0.0
C537 C 0.67158 0.69384 0.07044 0.0
C538 C 0.67346 0.71559 0.07107 0.0
C539 C 0.6658 0.72211 0.09156 0.0
C540 C 0.65967 0.70386 0.10227 0.0
N541 N 0.64403 0.66523 0.12461 0.0
C542 C 0.64325 0.68484 0.13457 0.0
C543 C 0.63339 0.68462 0.15539 0.0
C544 C 0.62812 0.66401 0.15892 0.0
C545 C 0.63505 0.65291 0.14014 0.0
N546 N 0.65124 0.62487 0.10136 0.0
C547 C 0.64025 0.61741 0.11893 0.0
C548 C 0.63774 0.59576 0.11802 0.0
C549 C 0.64747 0.58899 0.09855 0.0
C550 C 0.65537 0.60699 0.08868 0.0
N551 N 0.68424 0.65264 0.1099 0.0
C552 C 0.72125 0.65132 0.13232 0.0
C553 C 0.70395 0.64014 0.13986 0.0
C554 C 0.68576 0.641 0.12849 0.0
C555 C 0.7199 0.66263 0.11297 0.0
C556 C 0.70142 0.663 0.10204 0.0
N557 N 0.6307 0.65826 0.08104 0.0
C558 C 0.59326 0.65605 0.08239 0.0
C559 C 0.59284 0.66074 0.06019 0.0
C560 C 0.61154 0.66448 0.0486 0.0
C561 C 0.63011 0.66344 0.05932 0.0
C562 C 0.61221 0.65469 0.09236 0.0
H563 H 0.64374 0.66679 0.04958 0.0
H564 H 0.6114 0.65051 0.10917 0.0
H565 H 0.67299 0.63246 0.13529 0.0
H566 H 0.70129 0.67202 0.08745 0.0
C567 C 0.68046 0.6801 0.0539 0.0
C568 C 0.66645 0.60626 0.06716 0.0
C569 C 0.6521 0.70396 0.12524 0.0
C570 C 0.63334 0.63096 0.13652 0.0
H571 H 0.69063 0.61225 0.02694 0.0
H572 H 0.69862 0.65275 0.01957 0.0
H573 H 0.68053 0.72541 0.05854 0.0
H574 H 0.66544 0.73834 0.09811 0.0
H575 H 0.63055 0.69795 0.16694 0.0
H576 H 0.62042 0.65781 0.17354 0.0
H577 H 0.62986 0.58606 0.13012 0.0
H578 H 0.6486 0.57264 0.09229 0.0
H579 H 0.70417 0.63129 0.15489 0.0
H580 H 0.73302 0.67127 0.1063 0.0
H581 H 0.57906 0.6529 0.09192 0.0
H582 H 0.61181 0.66837 0.03135 0.0
C583 C 0.6132 0.35202 0.89727 0.0
C584 C 0.59609 0.36027 0.88711 0.0
C585 C 0.60354 0.36996 0.86864 0.0
C586 C 0.62465 0.36698 0.86849 0.0
N587 N 0.63117 0.35587 0.88572 0.0
Co588 Co 0.66053 0.34747 0.89164 0.0
N589 N 0.67149 0.36271 0.86508 0.0
C590 C 0.66047 0.3747 0.85141 0.0
C591 C 0.67233 0.38316 0.83463 0.0
C592 C 0.69208 0.37595 0.83759 0.0
C593 C 0.69106 0.36336 0.85601 0.0
N594 N 0.68986 0.3385 0.8971 0.0
C595 C 0.70759 0.34091 0.88454 0.0
C596 C 0.72454 0.3311 0.8936 0.0
C597 C 0.71725 0.322 0.91249 0.0
C598 C 0.69635 0.32666 0.91381 0.0
N599 N 0.64958 0.33274 0.91857 0.0
C600 C 0.66083 0.32232 0.93327 0.0
C601 C 0.6491 0.3146 0.95057 0.0
C602 C 0.62917 0.32063 0.94685 0.0
C603 C 0.6299 0.33163 0.92733 0.0
N604 N 0.65798 0.32097 0.87354 0.0
C605 C 0.65591 0.2836 0.84712 0.0
C606 C 0.6618 0.28258 0.86879 0.0
C607 C 0.66285 0.30133 0.88158 0.0
C608 C 0.65075 0.30355 0.839 0.0
C609 C 0.65175 0.32185 0.85241 0.0
N610 N 0.66308 0.37404 0.90977 0.0
C611 C 0.67477 0.39236 0.94216 0.0
C612 C 0.66549 0.41155 0.93609 0.0
C613 C 0.65525 0.4117 0.91647 0.0
C614 C 0.65427 0.39298 0.90368 0.0
C615 C 0.67337 0.37396 0.92889 0.0
H616 H 0.6462 0.39427 0.88901 0.0
H617 H 0.68058 0.35985 0.9346 0.0
H618 H 0.66783 0.29956 0.89784 0.0
H619 H 0.64751 0.33654 0.84527 0.0
C620 C 0.63881 0.37574 0.85335 0.0
C621 C 0.61157 0.34126 0.91818 0.0
C622 C 0.7089 0.35145 0.8635 0.0
C623 C 0.68235 0.31974 0.9302 0.0
H624 H 0.57992 0.35963 0.89269 0.0
H625 H 0.59466 0.37857 0.85698 0.0
H626 H 0.66712 0.39274 0.82135 0.0
H627 H 0.70563 0.37909 0.82703 0.0
H628 H 0.74046 0.33024 0.88703 0.0
H629 H 0.72605 0.31269 0.92367 0.0
H630 H 0.65443 0.30576 0.96432 0.0
H631 H 0.61566 0.31746 0.95742 0.0
H632 H 0.66605 0.26743 0.87571 0.0
H633 H 0.6458 0.30504 0.82237 0.0
H634 H 0.68273 0.39139 0.95733 0.0
H635 H 0.6481 0.42626 0.91086 0.0
C636 C 0.15745 0.25188 0.36664 0.0
C637 C 0.14979 0.26096 0.34773 0.0
C638 C 0.17215 0.23505 0.36478 0.0
C639 C 0.21393 0.21307 0.32751 0.0
H640 H 0.21156 0.164 0.36492 0.0
C641 C 0.27829 0.14724 0.32102 0.0
C642 C 0.28456 0.13893 0.34083 0.0
C643 C 0.2604 0.16028 0.32074 0.0
C644 C 0.21259 0.1777 0.3545 0.0
H645 H 0.15125 0.25934 0.31208 0.0
H646 H 0.17708 0.22996 0.30883 0.0
H647 H 0.18275 0.19014 0.36664 0.0
H648 H 0.27701 0.13699 0.37571 0.0
H649 H 0.24611 0.16037 0.37555 0.0
H650 H 0.244 0.20125 0.31592 0.0
C651 C 0.17166 0.23587 0.32507 0.0
C652 C 0.19603 0.19262 0.35544 0.0
C653 C 0.15677 0.25254 0.32694 0.0
C654 C 0.27244 0.14337 0.36028 0.0
C655 C 0.25467 0.1566 0.36009 0.0
C656 C 0.23058 0.1983 0.32674 0.0
C657 C 0.17968 0.22711 0.34398 0.0
C658 C 0.1966 0.21054 0.34207 0.0
C659 C 0.2485 0.16541 0.34034 0.0
C660 C 0.23023 0.18049 0.34035 0.0
H661 H 0.15225 0.25798 0.38287 0.0
H662 H 0.17815 0.22873 0.37963 0.0
H663 H 0.21494 0.22689 0.31723 0.0
H664 H 0.28741 0.14383 0.3058 0.0
H665 H 0.25595 0.16639 0.30516 0.0
C666 C 0.26569 0.85843 0.68296 0.0
C667 C 0.27458 0.86575 0.66313 0.0
C668 C 0.24812 0.84583 0.68293 0.0
C669 C 0.22244 0.80816 0.64735 0.0
H670 H 0.17587 0.81526 0.69011 0.0
C671 C 0.15289 0.75322 0.64404 0.0
C672 C 0.14442 0.74601 0.66413 0.0
C673 C 0.1669 0.76982 0.64364 0.0
C674 C 0.18884 0.81292 0.67818 0.0
H675 H 0.27196 0.86654 0.6279 0.0
H676 H 0.24129 0.84428 0.62773 0.0
H677 H 0.20394 0.8407 0.69012 0.0
H678 H 0.14354 0.75076 0.69952 0.0
H679 H 0.16847 0.77941 0.69894 0.0
H680 H 0.20795 0.78009 0.63581 0.0
C681 C 0.24792 0.84813 0.64327 0.0
C682 C 0.20487 0.82754 0.67817 0.0
C683 C 0.26536 0.86087 0.64334 0.0
C684 C 0.14973 0.75615 0.6838 0.0
C685 C 0.16398 0.77261 0.68343 0.0
C686 C 0.20657 0.79346 0.64749 0.0
C687 C 0.23929 0.84023 0.66304 0.0
C688 C 0.22184 0.82528 0.66275 0.0
C689 C 0.17303 0.7794 0.66334 0.0
C690 C 0.18955 0.7956 0.66291 0.0
H691 H 0.27264 0.86205 0.69838 0.0
H692 H 0.24191 0.83985 0.69839 0.0
H693 H 0.2355 0.80578 0.63553 0.0
H694 H 0.14882 0.74585 0.62862 0.0
H695 H 0.17311 0.77497 0.62784 0.0
C696 C 0.74164 0.84244 0.36793 0.0
C697 C 0.73555 0.84845 0.34715 0.0
C698 C 0.75915 0.82918 0.36989 0.0
C699 C 0.80635 0.80624 0.33855 0.0
H700 H 0.80337 0.76426 0.38418 0.0
C701 C 0.86154 0.73169 0.34164 0.0
C702 C 0.86899 0.72702 0.36225 0.0
C703 C 0.84676 0.74816 0.33972 0.0
C704 C 0.80452 0.77605 0.3715 0.0
H705 H 0.74302 0.84548 0.31209 0.0
H706 H 0.77321 0.82171 0.31534 0.0
H707 H 0.77453 0.78952 0.38085 0.0
H708 H 0.86784 0.73629 0.39677 0.0
H709 H 0.84157 0.76491 0.39357 0.0
H710 H 0.83615 0.79197 0.32878 0.0
C711 C 0.76485 0.82766 0.33024 0.0
C712 C 0.78801 0.79063 0.36962 0.0
C713 C 0.7475 0.84121 0.32833 0.0
C714 C 0.86204 0.73951 0.38078 0.0
C715 C 0.84705 0.75579 0.37893 0.0
C716 C 0.82277 0.79142 0.34026 0.0
C717 C 0.77082 0.82129 0.35106 0.0
C718 C 0.78868 0.80598 0.35315 0.0
C719 C 0.83906 0.76009 0.35843 0.0
C720 C 0.82201 0.77621 0.35679 0.0
H721 H 0.73285 0.84806 0.38272 0.0
H722 H 0.7635 0.82512 0.38621 0.0
H723 H 0.80762 0.818 0.32587 0.0
H724 H 0.86682 0.72224 0.32715 0.0
H725 H 0.8408 0.75108 0.32375 0.0
C726 C 0.84167 0.25082 0.62062 0.0
C727 C 0.85311 0.25509 0.63917 0.0
C728 C 0.82817 0.23376 0.62029 0.0
C729 C 0.79726 0.20038 0.6576 0.0
H730 H 0.79028 0.1662 0.6046 0.0
C731 C 0.7387 0.1323 0.65537 0.0
C732 C 0.72639 0.13151 0.63701 0.0
C733 C 0.75586 0.14545 0.65563 0.0
C734 C 0.79196 0.1757 0.61949 0.0
H735 H 0.85964 0.2445 0.67176 0.0
H736 H 0.83625 0.21451 0.67107 0.0
H737 H 0.81749 0.1925 0.60503 0.0
H738 H 0.7229 0.14336 0.60425 0.0
H739 H 0.75259 0.16654 0.60483 0.0
H740 H 0.7715 0.18389 0.67194 0.0
C741 C 0.83759 0.22451 0.65686 0.0
C742 C 0.80755 0.19075 0.61974 0.0
C743 C 0.85116 0.24155 0.65716 0.0
C744 C 0.73192 0.14379 0.61874 0.0
C745 C 0.74909 0.15689 0.61898 0.0
C746 C 0.78166 0.18534 0.65735 0.0
C747 C 0.82575 0.22058 0.63852 0.0
C748 C 0.81022 0.20346 0.63871 0.0
C749 C 0.76115 0.15806 0.63751 0.0
C750 C 0.77865 0.173 0.6382 0.0
H751 H 0.84299 0.26081 0.6064 0.0
H752 H 0.81915 0.23132 0.60598 0.0
H753 H 0.79868 0.21012 0.67238 0.0
H754 H 0.73476 0.12319 0.66979 0.0
H755 H 0.76495 0.14581 0.67007 0.0
C756 C 0.36951 0.27143 0.12287 0.0
C757 C 0.35834 0.29055 0.12822 0.0
C758 C 0.36901 0.25456 0.13747 0.0
C759 C 0.36241 0.24445 0.19587 0.0
H760 H 0.3507 0.18625 0.17825 0.0
C761 C 0.35095 0.18027 0.26025 0.0
C762 C 0.35863 0.15946 0.25517 0.0
C763 C 0.35047 0.19552 0.24402 0.0
C764 C 0.35431 0.20234 0.18339 0.0
H765 H 0.33798 0.30729 0.1527 0.0
H766 H 0.33741 0.27795 0.1785 0.0
H767 H 0.35093 0.21423 0.15099 0.0
H768 H 0.37155 0.13809 0.22914 0.0
H769 H 0.37143 0.165 0.20073 0.0
H770 H 0.36644 0.23279 0.22799 0.0
C771 C 0.34639 0.27591 0.163 0.0
C772 C 0.35434 0.21835 0.16779 0.0
C773 C 0.34666 0.29261 0.14829 0.0
C774 C 0.36552 0.15405 0.23342 0.0
C775 C 0.36534 0.16945 0.21718 0.0
C776 C 0.36268 0.22846 0.21136 0.0
C777 C 0.35767 0.25678 0.15779 0.0
C778 C 0.35816 0.23958 0.17397 0.0
C779 C 0.35798 0.19046 0.22234 0.0
C780 C 0.35837 0.20723 0.20543 0.0
H781 H 0.37882 0.26969 0.10756 0.0
H782 H 0.37797 0.24004 0.13318 0.0
H783 H 0.36577 0.26063 0.20097 0.0
H784 H 0.34518 0.18471 0.27683 0.0
H785 H 0.34411 0.21129 0.24853 0.0
C786 C 0.26068 0.66036 0.83893 0.0
C787 C 0.25741 0.65131 0.8596 0.0
C788 C 0.24458 0.66192 0.82466 0.0
C789 C 0.18734 0.65839 0.82128 0.0
H790 H 0.20266 0.64828 0.75933 0.0
C791 C 0.12899 0.6443 0.75282 0.0
C792 C 0.1326 0.656 0.73373 0.0
C793 C 0.14321 0.64466 0.76937 0.0
C794 C 0.19818 0.6513 0.77656 0.0
H795 H 0.23475 0.63721 0.88189 0.0
H796 H 0.20656 0.63921 0.85658 0.0
H797 H 0.22928 0.64681 0.78603 0.0
H798 H 0.15347 0.67727 0.71677 0.0
H799 H 0.17859 0.67763 0.74552 0.0
H800 H 0.156 0.6622 0.81153 0.0
C801 C 0.22147 0.64554 0.85154 0.0
C802 C 0.21344 0.65056 0.7919 0.0
C803 C 0.23758 0.64429 0.86601 0.0
C804 C 0.15045 0.66817 0.73143 0.0
C805 C 0.16477 0.66832 0.74779 0.0
C806 C 0.17198 0.65883 0.80589 0.0
C807 C 0.22487 0.6541 0.83053 0.0
C808 C 0.20829 0.65436 0.81444 0.0
C809 C 0.16139 0.65641 0.76682 0.0
C810 C 0.17734 0.65552 0.78337 0.0
H811 H 0.27578 0.66621 0.8338 0.0
H812 H 0.24766 0.66919 0.80893 0.0
H813 H 0.18281 0.66158 0.83846 0.0
H814 H 0.11538 0.63463 0.75472 0.0
H815 H 0.14035 0.63521 0.7838 0.0
C816 C 0.66921 0.72293 0.15554 0.0
C817 C 0.65429 0.72308 0.13967 0.0
C818 C 0.67027 0.74013 0.17048 0.0
C819 C 0.65394 0.79674 0.18093 0.0
H820 H 0.65993 0.78271 0.24194 0.0
C821 C 0.63874 0.8581 0.25323 0.0
C822 C 0.65183 0.85686 0.27079 0.0
C823 C 0.64033 0.84263 0.2362 0.0
C824 C 0.65856 0.78695 0.22494 0.0
H825 H 0.6289 0.74097 0.12653 0.0
H826 H 0.63062 0.7712 0.15274 0.0
H827 H 0.66053 0.75424 0.21394 0.0
H828 H 0.67697 0.83911 0.28454 0.0
H829 H 0.68008 0.81212 0.25463 0.0
H830 H 0.65178 0.8295 0.19205 0.0
C831 C 0.64171 0.758 0.15351 0.0
C832 C 0.6589 0.77061 0.20888 0.0
C833 C 0.64065 0.74076 0.13859 0.0
C834 C 0.66677 0.84025 0.27103 0.0
C835 C 0.6684 0.8248 0.25403 0.0
C836 C 0.65362 0.81312 0.19703 0.0
C837 C 0.65635 0.75774 0.16982 0.0
C838 C 0.65655 0.7753 0.1867 0.0
C839 C 0.65503 0.82564 0.23654 0.0
C840 C 0.65588 0.8084 0.21923 0.0
H841 H 0.67981 0.70934 0.15659 0.0
H842 H 0.6819 0.73956 0.18264 0.0
H843 H 0.65231 0.80088 0.16394 0.0
H844 H 0.62702 0.87079 0.25296 0.0
H845 H 0.62964 0.8436 0.22313 0.0
C846 C 0.74553 0.36061 0.85289 0.0
C847 C 0.72788 0.3489 0.8488 0.0
C848 C 0.7629 0.35916 0.83813 0.0
C849 C 0.78761 0.32587 0.79225 0.0
H850 H 0.81348 0.37863 0.77559 0.0
C851 C 0.84182 0.33177 0.71449 0.0
C852 C 0.85921 0.34456 0.71577 0.0
C853 C 0.82703 0.3315 0.73207 0.0
C854 C 0.80665 0.36371 0.78029 0.0
H855 H 0.7142 0.32653 0.82654 0.0
H856 H 0.74448 0.32401 0.80055 0.0
H857 H 0.78553 0.37942 0.80416 0.0
H858 H 0.87508 0.36706 0.73599 0.0
H859 H 0.84929 0.36651 0.76704 0.0
H860 H 0.80855 0.31021 0.76816 0.0
C861 C 0.74515 0.33405 0.81524 0.0
C862 C 0.79063 0.36416 0.79668 0.0
C863 C 0.72782 0.33554 0.82998 0.0
C864 C 0.86174 0.35705 0.73483 0.0
C865 C 0.84694 0.3568 0.75245 0.0
C866 C 0.80364 0.32542 0.77588 0.0
C867 C 0.76283 0.34599 0.81904 0.0
C868 C 0.78076 0.34528 0.80267 0.0
C869 C 0.82936 0.34408 0.75122 0.0
C870 C 0.81318 0.34437 0.76953 0.0
H871 H 0.74573 0.37108 0.86733 0.0
H872 H 0.77634 0.3684 0.84162 0.0
H873 H 0.78054 0.31101 0.79674 0.0
H874 H 0.83962 0.32214 0.69979 0.0
H875 H 0.81352 0.3218 0.73044 0.0
C876 C 0.36597 0.8432 0.76089 0.0
C877 C 0.34712 0.85087 0.75322 0.0
C878 C 0.3661 0.82883 0.77804 0.0
C879 C 0.33242 0.805 0.82216 0.0
H880 H 0.37348 0.75861 0.81575 0.0
C881 C 0.32633 0.72572 0.86851 0.0
C882 C 0.34462 0.71731 0.87674 0.0
C883 C 0.32693 0.74379 0.85554 0.0
C884 C 0.36209 0.77162 0.81793 0.0
H885 H 0.31364 0.84982 0.75763 0.0
H886 H 0.31379 0.82435 0.78719 0.0
H887 H 0.374 0.78694 0.78921 0.0
H888 H 0.37764 0.72127 0.87878 0.0
H889 H 0.37882 0.75283 0.85581 0.0
H890 H 0.32013 0.78906 0.85053 0.0
C891 C 0.32852 0.82976 0.78039 0.0
C892 C 0.36241 0.78792 0.80275 0.0
C893 C 0.3284 0.84433 0.7634 0.0
C894 C 0.36341 0.7275 0.87239 0.0
C895 C 0.36406 0.74543 0.85925 0.0
C896 C 0.33199 0.78854 0.83723 0.0
C897 C 0.34738 0.82158 0.78772 0.0
C898 C 0.34752 0.8048 0.80458 0.0
C899 C 0.34586 0.75361 0.85048 0.0
C900 C 0.34678 0.77164 0.8352 0.0
H901 H 0.38063 0.8482 0.75351 0.0
H902 H 0.38092 0.82326 0.78357 0.0
H903 H 0.32092 0.81789 0.8243 0.0
H904 H 0.31169 0.71802 0.87174 0.0
H905 H 0.3127 0.74963 0.84887 0.0
C906 C 0.74763 0.63344 0.15506 0.0
C907 C 0.74016 0.65191 0.14513 0.0
C908 C 0.76444 0.63441 0.16855 0.0
C909 C 0.79023 0.67236 0.20401 0.0
H910 H 0.83212 0.62699 0.20585 0.0
C911 C 0.83924 0.66054 0.2788 0.0
C912 C 0.86048 0.65535 0.27513 0.0
C913 C 0.82619 0.66109 0.2613 0.0
C914 C 0.82067 0.6399 0.20537 0.0
H915 H 0.74481 0.68578 0.14117 0.0
H916 H 0.77431 0.68741 0.1645 0.0
H917 H 0.80692 0.62601 0.17728 0.0
H918 H 0.88471 0.64671 0.25021 0.0
H919 H 0.86178 0.64768 0.21944 0.0
H920 H 0.8038 0.68616 0.23216 0.0
C921 C 0.76705 0.67222 0.16198 0.0
C922 C 0.80614 0.63924 0.18915 0.0
C923 C 0.75028 0.67123 0.14844 0.0
C924 C 0.86842 0.65084 0.2535 0.0
C925 C 0.85529 0.65124 0.23595 0.0
C926 C 0.80467 0.67297 0.22024 0.0
C927 C 0.77411 0.65389 0.17246 0.0
C928 C 0.79059 0.65533 0.18848 0.0
C929 C 0.83403 0.6564 0.23969 0.0
C930 C 0.81985 0.65659 0.22131 0.0
H931 H 0.7403 0.61827 0.15262 0.0
H932 H 0.76939 0.62005 0.17652 0.0
H933 H 0.77834 0.6849 0.20408 0.0
H934 H 0.83272 0.66435 0.29525 0.0
H935 H 0.80985 0.66488 0.26475 0.0
C936 C 0.6311 0.12387 0.73055 0.0
C937 C 0.64153 0.12535 0.70989 0.0
C938 C 0.6337 0.13941 0.74703 0.0
C939 C 0.66784 0.18377 0.76243 0.0
H940 H 0.61946 0.20375 0.79847 0.0
C941 C 0.66412 0.2639 0.8113 0.0
C942 C 0.65534 0.26407 0.83292 0.0
C943 C 0.66334 0.24568 0.79769 0.0
C944 C 0.63316 0.19814 0.78871 0.0
H945 H 0.66254 0.14398 0.68985 0.0
H946 H 0.66675 0.17148 0.71832 0.0
H947 H 0.61639 0.17422 0.77202 0.0
H948 H 0.63889 0.24536 0.85729 0.0
H949 H 0.63736 0.21344 0.83336 0.0
H950 H 0.68439 0.20822 0.77868 0.0
C951 C 0.65703 0.15812 0.72219 0.0
C952 C 0.63144 0.18118 0.77359 0.0
C953 C 0.65454 0.14252 0.70583 0.0
C954 C 0.64587 0.24561 0.84072 0.0
C955 C 0.64487 0.22743 0.82701 0.0
C956 C 0.6695 0.20084 0.77739 0.0
C957 C 0.64659 0.15681 0.74299 0.0
C958 C 0.64871 0.17394 0.76008 0.0
C959 C 0.65359 0.22732 0.80536 0.0
C960 C 0.65213 0.20834 0.79051 0.0
H961 H 0.62083 0.11081 0.73385 0.0
H962 H 0.6256 0.13777 0.7629 0.0
H963 H 0.68156 0.17833 0.75263 0.0
H964 H 0.67168 0.27786 0.80493 0.0
H965 H 0.67003 0.2461 0.78101 0.0
C966 C 0.27374 0.35291 0.17175 0.0
C967 C 0.27086 0.35683 0.14948 0.0
C968 C 0.25676 0.35165 0.18677 0.0
C969 C 0.20121 0.36707 0.19534 0.0
H970 H 0.20367 0.32684 0.24247 0.0
C971 C 0.1455 0.37297 0.27286 0.0
C972 C 0.13954 0.35397 0.28273 0.0
C973 C 0.16014 0.37246 0.25508 0.0
C974 C 0.20254 0.33798 0.22927 0.0
H975 H 0.24773 0.36237 0.12555 0.0
H976 H 0.21799 0.35958 0.15173 0.0
H977 H 0.23158 0.32685 0.2141 0.0
H978 H 0.14319 0.31955 0.28145 0.0
H979 H 0.16838 0.31846 0.24995 0.0
H980 H 0.17192 0.3779 0.21034 0.0
C981 C 0.23346 0.35784 0.15761 0.0
C982 C 0.21873 0.33819 0.21314 0.0
C983 C 0.25051 0.3592 0.14255 0.0
C984 C 0.14779 0.33439 0.27412 0.0
C985 C 0.16228 0.33383 0.25623 0.0
C986 C 0.18492 0.36677 0.21143 0.0
C987 C 0.2364 0.35407 0.17992 0.0
C988 C 0.21843 0.35295 0.19616 0.0
C989 C 0.1689 0.35288 0.24669 0.0
C990 C 0.18551 0.3524 0.22875 0.0
H991 H 0.28917 0.35065 0.17762 0.0
H992 H 0.25965 0.34903 0.20386 0.0
H993 H 0.20053 0.37875 0.18259 0.0
H994 H 0.13914 0.38822 0.27925 0.0
H995 H 0.16501 0.38745 0.24834 0.0
C996 C 0.95496 0.30929 0.56718 0.0
C997 C 0.94951 0.32857 0.57851 0.0
C998 C 0.96777 0.3092 0.54791 0.0
C999 C 0.00464 0.34308 0.51626 0.0
H1000 H 0.99389 0.30403 0.46794 0.0
C1001 C 0.04156 0.35168 0.42879 0.0
C1002 C 0.05047 0.33304 0.41859 0.0
C1003 C 0.02931 0.35056 0.44832 0.0
C1004 C 0.99716 0.3149 0.48137 0.0
H1005 H 0.95274 0.36283 0.57877 0.0
H1006 H 0.97457 0.36291 0.54477 0.0
H1007 H 0.97246 0.3032 0.50217 0.0
H1008 H 0.05365 0.29869 0.42041 0.0
H1009 H 0.03175 0.2966 0.45449 0.0
H1010 H 0.029 0.35509 0.49517 0.0
C1011 C 0.96954 0.34774 0.55094 0.0
C1012 C 0.98495 0.31439 0.50103 0.0
C1013 C 0.95693 0.34777 0.5703 0.0
C1014 C 0.04673 0.31321 0.42798 0.0
C1015 C 0.03424 0.31205 0.44739 0.0
C1016 C 0.01666 0.34373 0.49653 0.0
C1017 C 0.97517 0.32846 0.53947 0.0
C1018 C 0.98848 0.32854 0.51871 0.0
C1019 C 0.0256 0.33075 0.45786 0.0
C1020 C 0.013 0.32972 0.47887 0.0
H1021 H 0.94926 0.29432 0.57325 0.0
H1022 H 0.97198 0.29403 0.53973 0.0
H1023 H 0.00814 0.3539 0.52963 0.0
H1024 H 0.04431 0.36712 0.42175 0.0
H1025 H 0.02267 0.36519 0.45592 0.0
C1026 C 0.32564 0.05273 0.43759 0.0
C1027 C 0.33755 0.04439 0.41922 0.0
C1028 C 0.3236 0.04116 0.45684 0.0
C1029 C 0.33225 0.9868 0.47897 0.0
H1030 H 0.33164 0.0182 0.53479 0.0
C1031 C 0.34786 0.94769 0.56152 0.0
C1032 C 0.33374 0.95291 0.57942 0.0
C1033 C 0.34702 0.95854 0.54185 0.0
C1034 C 0.3316 0.00926 0.51931 0.0
H1035 H 0.35665 0.01746 0.40646 0.0
H1036 H 0.35375 0.99749 0.44024 0.0
H1037 H 0.33271 0.03759 0.50061 0.0
H1038 H 0.30752 0.97372 0.59033 0.0
H1039 H 0.30663 0.99314 0.55617 0.0
H1040 H 0.33197 0.95843 0.49788 0.0
C1041 C 0.34543 0.01268 0.4397 0.0
C1042 C 0.33212 0.02034 0.49969 0.0
C1043 C 0.34719 0.02414 0.42034 0.0
C1044 C 0.31887 0.96945 0.57711 0.0
C1045 C 0.31826 0.98052 0.55751 0.0
C1046 C 0.33206 0.97573 0.49859 0.0
C1047 C 0.33371 0.02109 0.45828 0.0
C1048 C 0.33251 0.00927 0.47922 0.0
C1049 C 0.33228 0.9751 0.53968 0.0
C1050 C 0.33179 0.98686 0.51893 0.0
H1051 H 0.31786 0.06823 0.43704 0.0
H1052 H 0.31407 0.04797 0.47058 0.0
H1053 H 0.33211 0.97771 0.46361 0.0
H1054 H 0.35984 0.93542 0.56277 0.0
H1055 H 0.35821 0.95426 0.52844 0.0
C1056 C 0.05152 0.69408 0.58881 0.0
C1057 C 0.05227 0.67553 0.60113 0.0
C1058 C 0.04009 0.69464 0.56995 0.0
C1059 C 0.9978 0.66767 0.54261 0.0
H1060 H 0.02208 0.69193 0.48958 0.0
C1061 C 0.96356 0.65389 0.45838 0.0
C1062 C 0.96265 0.6712 0.44422 0.0
C1063 C 0.97431 0.65536 0.47762 0.0
C1064 C 0.01497 0.68535 0.50433 0.0
H1065 H 0.04201 0.64311 0.60384 0.0
H1066 H 0.02201 0.64393 0.57082 0.0
H1067 H 0.0409 0.69303 0.5233 0.0
H1068 H 0.97241 0.70364 0.43916 0.0
H1069 H 0.99121 0.70622 0.47287 0.0
H1070 H 0.97194 0.6599 0.5237 0.0
C1071 C 0.02996 0.65815 0.57575 0.0
C1072 C 0.02575 0.68598 0.52365 0.0
C1073 C 0.04142 0.6576 0.59454 0.0
C1074 C 0.97299 0.68995 0.44962 0.0
C1075 C 0.98375 0.69143 0.46892 0.0
C1076 C 0.98703 0.66707 0.52334 0.0
C1077 C 0.02921 0.67665 0.56319 0.0
C1078 C 0.01737 0.67695 0.54294 0.0
C1079 C 0.98442 0.67418 0.48321 0.0
C1080 C 0.99557 0.67569 0.5039 0.0
H1081 H 0.05989 0.70803 0.59372 0.0
H1082 H 0.03966 0.70918 0.56074 0.0
H1083 H 0.99076 0.66092 0.55731 0.0
H1084 H 0.95612 0.63907 0.45447 0.0
H1085 H 0.97488 0.64162 0.48801 0.0
C1086 C 0.67585 0.03375 0.56094 0.0
C1087 C 0.65649 0.03846 0.57178 0.0
C1088 C 0.67714 0.02189 0.54109 0.0
C1089 C 0.64633 0.98606 0.50641 0.0
H1090 H 0.68681 0.00061 0.46022 0.0
C1091 C 0.64256 0.95489 0.41702 0.0
C1092 C 0.661 0.94573 0.4073 0.0
C1093 C 0.64273 0.96626 0.43704 0.0
C1094 C 0.67554 0.9963 0.47306 0.0
H1095 H 0.62335 0.03486 0.57064 0.0
H1096 H 0.62537 0.01482 0.53564 0.0
H1097 H 0.68567 0.02019 0.49552 0.0
H1098 H 0.69408 0.94143 0.41033 0.0
H1099 H 0.69452 0.9619 0.44529 0.0
H1100 H 0.63586 0.96259 0.48363 0.0
C1101 C 0.63967 0.01964 0.5426 0.0
C1102 C 0.67493 0.00742 0.49332 0.0
C1103 C 0.63844 0.03125 0.56253 0.0
C1104 C 0.67973 0.94854 0.41756 0.0
C1105 C 0.67995 0.9602 0.43746 0.0
C1106 C 0.64679 0.97516 0.48608 0.0
C1107 C 0.65904 0.01476 0.5316 0.0
C1108 C 0.66023 0.00252 0.51024 0.0
C1109 C 0.66139 0.96889 0.44753 0.0
C1110 C 0.66132 0.98025 0.46918 0.0
H1111 H 0.68994 0.03927 0.56784 0.0
H1112 H 0.69233 0.01821 0.53329 0.0
H1113 H 0.63512 0.98146 0.51917 0.0
H1114 H 0.62797 0.95287 0.4093 0.0
H1115 H 0.62825 0.97299 0.44434 0.0
C1116 C 0.42535 0.04757 0.34618 0.0
C1117 C 0.42052 0.05889 0.32751 0.0
C1118 C 0.44369 0.0352 0.34621 0.0
C1119 C 0.49579 0.02813 0.31824 0.0
H1120 H 0.49474 0.97263 0.3449 0.0
C1121 C 0.56659 0.96905 0.31203 0.0
C1122 C 0.57084 0.95774 0.33098 0.0
C1123 C 0.54825 0.98137 0.31118 0.0
C1124 C 0.49537 0.98818 0.3376 0.0
H1125 H 0.43075 0.06651 0.29433 0.0
H1126 H 0.46287 0.04468 0.29416 0.0
H1127 H 0.4628 0.99415 0.34419 0.0
H1128 H 0.55932 0.95095 0.36411 0.0
H1129 H 0.52743 0.97241 0.36265 0.0
H1130 H 0.5284 0.02218 0.31171 0.0
C1131 C 0.45265 0.04546 0.30888 0.0
C1132 C 0.47704 0.00053 0.33719 0.0
C1133 C 0.43428 0.05783 0.30888 0.0
C1134 C 0.55636 0.95913 0.3491 0.0
C1135 C 0.53806 0.97145 0.34827 0.0
C1136 C 0.51414 0.01578 0.31866 0.0
C1137 C 0.45756 0.03395 0.32754 0.0
C1138 C 0.47703 0.02069 0.3276 0.0
C1139 C 0.53374 0.98268 0.32928 0.0
C1140 C 0.51417 0.99569 0.32843 0.0
H1141 H 0.41491 0.04832 0.36074 0.0
H1142 H 0.44712 0.0268 0.36096 0.0
H1143 H 0.49639 0.0437 0.31098 0.0
H1144 H 0.57728 0.96811 0.29768 0.0
H1145 H 0.54529 0.98958 0.29619 0.0
C1146 C 0.03762 0.56832 0.65126 0.0
C1147 C 0.03975 0.57973 0.67114 0.0
C1148 C 0.02708 0.54917 0.65094 0.0
C1149 C 0.99036 0.51633 0.68371 0.0
H1150 H 0.012 0.47145 0.64299 0.0
C1151 C 0.95912 0.4301 0.68166 0.0
C1152 C 0.95472 0.42215 0.66066 0.0
C1153 C 0.96974 0.44915 0.68401 0.0
C1154 C 0.00573 0.48387 0.65437 0.0
H1155 H 0.03229 0.58022 0.70625 0.0
H1156 H 0.01418 0.54642 0.70584 0.0
H1157 H 0.0299 0.50507 0.64534 0.0
H1158 H 0.95833 0.42758 0.62569 0.0
H1159 H 0.97706 0.46069 0.62977 0.0
H1160 H 0.96633 0.49476 0.69289 0.0
C1161 C 0.02036 0.55246 0.69041 0.0
C1162 C 0.01591 0.5032 0.65566 0.0
C1163 C 0.03075 0.5718 0.69068 0.0
C1164 C 0.96138 0.43343 0.64207 0.0
C1165 C 0.97222 0.45227 0.6444 0.0
C1166 C 0.98029 0.49685 0.68257 0.0
C1167 C 0.01859 0.54078 0.67054 0.0
C1168 C 0.00819 0.51983 0.67009 0.0
C1169 C 0.97643 0.46038 0.66538 0.0
C1170 C 0.98772 0.48055 0.66766 0.0
H1171 H 0.04409 0.57426 0.63589 0.0
H1172 H 0.02556 0.54097 0.63525 0.0
H1173 H 0.98384 0.52882 0.69485 0.0
H1174 H 0.95405 0.42176 0.69627 0.0
H1175 H 0.97289 0.45499 0.70037 0.0
C1176 C 0.54738 0.02878 0.63662 0.0
C1177 C 0.56056 0.03062 0.65419 0.0
C1178 C 0.52857 0.01837 0.63922 0.0
C1179 C 0.50098 0.97942 0.67365 0.0
H1180 H 0.4521 0.00363 0.64826 0.0
C1181 C 0.41952 0.9447 0.68913 0.0
C1182 C 0.40723 0.94317 0.6709 0.0
C1183 C 0.43797 0.95592 0.68781 0.0
C1184 C 0.46564 0.99655 0.65527 0.0
H1185 H 0.56415 0.02303 0.68835 0.0
H1186 H 0.53133 0.00478 0.69285 0.0
H1187 H 0.48489 0.02195 0.64452 0.0
H1188 H 0.40422 0.95188 0.63709 0.0
H1189 H 0.43658 0.97138 0.63456 0.0
H1190 H 0.48175 0.95394 0.68427 0.0
C1191 C 0.53569 0.0112 0.67698 0.0
C1192 C 0.48444 0.00705 0.65312 0.0
C1193 C 0.55452 0.02164 0.67439 0.0
C1194 C 0.4135 0.95305 0.65136 0.0
C1195 C 0.43192 0.96426 0.65001 0.0
C1196 C 0.48217 0.9689 0.67578 0.0
C1197 C 0.52246 0.00951 0.65944 0.0
C1198 C 0.50237 0.99855 0.66218 0.0
C1199 C 0.44444 0.96577 0.66819 0.0
C1200 C 0.4643 0.97728 0.66652 0.0
H1201 H 0.55172 0.03517 0.62073 0.0
H1202 H 0.51891 0.01702 0.62527 0.0
H1203 H 0.51455 0.97231 0.68057 0.0
H1204 H 0.41488 0.93709 0.70432 0.0
H1205 H 0.44711 0.95698 0.70218 0.0
C1206 C 0.95632 0.57992 0.32863 0.0
C1207 C 0.95478 0.59279 0.34786 0.0
C1208 C 0.96761 0.56052 0.3281 0.0
C1209 C 0.98704 0.51961 0.36514 0.0
H1210 H 0.02166 0.50064 0.31395 0.0
C1211 C 0.04284 0.44632 0.36639 0.0
C1212 C 0.04408 0.43238 0.34785 0.0
C1213 C 0.03187 0.46582 0.36602 0.0
C1214 C 0.01187 0.50561 0.32828 0.0
H1215 H 0.96379 0.59608 0.38142 0.0
H1216 H 0.98383 0.56232 0.38055 0.0
H1217 H 0.00308 0.53509 0.31387 0.0
H1218 H 0.03486 0.4281 0.31433 0.0
H1219 H 0.01546 0.46208 0.31379 0.0
H1220 H 0.99584 0.4902 0.37957 0.0
C1221 C 0.97615 0.56692 0.36595 0.0
C1222 C 0.00123 0.52536 0.32824 0.0
C1223 C 0.96487 0.58627 0.36645 0.0
C1224 C 0.03405 0.43839 0.32895 0.0
C1225 C 0.02313 0.45796 0.32855 0.0
C1226 C 0.99768 0.49991 0.36519 0.0
C1227 C 0.97748 0.55368 0.34685 0.0
C1228 C 0.98875 0.53264 0.34671 0.0
C1229 C 0.02191 0.4719 0.3471 0.0
C1230 C 0.01029 0.4927 0.3468 0.0
H1231 H 0.94847 0.5847 0.31419 0.0
H1232 H 0.96814 0.55062 0.31322 0.0
H1233 H 0.97723 0.52452 0.37948 0.0
H1234 H 0.0502 0.44208 0.3813 0.0
H1235 H 0.03141 0.47627 0.38052 0.0
C1236 C 0.35604 0.4346 0.03975 0.0
C1237 C 0.33812 0.42508 0.04855 0.0
C1238 C 0.35452 0.45372 0.0286 0.0
C1239 C 0.31923 0.48632 0.99759 0.0
H1240 H 0.35527 0.5326 0.01207 0.0
C1241 C 0.31084 0.56937 0.95942 0.0
C1242 C 0.32911 0.58029 0.95444 0.0
C1243 C 0.31148 0.55065 0.97138 0.0
C1244 C 0.34528 0.51976 0.00756 0.0
H1245 H 0.30467 0.42782 0.05284 0.0
H1246 H 0.30188 0.46119 0.03283 0.0
H1247 H 0.3574 0.49932 0.03173 0.0
H1248 H 0.36233 0.58026 0.9574 0.0
H1249 H 0.3637 0.54715 0.9776 0.0
H1250 H 0.30747 0.50641 0.97303 0.0
C1251 C 0.31708 0.45386 0.03455 0.0
C1252 C 0.34647 0.50073 0.01892 0.0
C1253 C 0.31864 0.43487 0.04597 0.0
C1254 C 0.34805 0.57211 0.96128 0.0
C1255 C 0.34875 0.55327 0.97298 0.0
C1256 C 0.31821 0.50526 0.98603 0.0
C1257 C 0.33502 0.46352 0.02586 0.0
C1258 C 0.33349 0.48381 0.01402 0.0
C1259 C 0.33046 0.54231 0.97829 0.0
C1260 C 0.33126 0.52223 0.99083 0.0
H1261 H 0.3712 0.42724 0.0416 0.0
H1262 H 0.36858 0.46073 0.02191 0.0
H1263 H 0.30919 0.47343 0.99335 0.0
H1264 H 0.29609 0.57541 0.95413 0.0
H1265 H 0.29705 0.54285 0.97538 0.0
C1266 C 0.43434 0.6385 0.96209 0.0
C1267 C 0.41862 0.65444 0.96558 0.0
C1268 C 0.45307 0.64007 0.97238 0.0
C1269 C 0.4768 0.66195 0.02025 0.0
H1270 H 0.52823 0.65758 0.98426 0.0
C1271 C 0.55605 0.67372 0.05789 0.0
C1272 C 0.57303 0.66125 0.04909 0.0
C1273 C 0.53724 0.67391 0.04755 0.0
C1274 C 0.51407 0.65849 0.99465 0.0
H1275 H 0.41045 0.68449 0.98296 0.0
H1276 H 0.44293 0.68666 0.0016 0.0
H1277 H 0.49518 0.65534 0.96692 0.0
H1278 H 0.58374 0.63895 0.02291 0.0
H1279 H 0.55074 0.63844 0.00532 0.0
H1280 H 0.49547 0.66421 0.04809 0.0
C1281 C 0.44064 0.67308 0.99069 0.0
C1282 C 0.49515 0.65735 0.98465 0.0
C1283 C 0.422 0.67173 0.9801 0.0
C1284 C 0.5709 0.6489 0.02984 0.0
C1285 C 0.55199 0.64874 0.01972 0.0
C1286 C 0.49573 0.6627 0.03032 0.0
C1287 C 0.45639 0.65737 0.98672 0.0
C1288 C 0.47637 0.65903 0.99736 0.0
C1289 C 0.53488 0.66128 0.0284 0.0
C1290 C 0.51466 0.66094 0.01766 0.0
H1291 H 0.43218 0.62467 0.9515 0.0
H1292 H 0.46491 0.6276 0.96931 0.0
H1293 H 0.46248 0.66311 0.0304 0.0
H1294 H 0.55742 0.68352 0.07265 0.0
H1295 H 0.52461 0.6841 0.05451 0.0
C1296 C 0.6485 0.44471 0.95357 0.0
C1297 C 0.66619 0.43121 0.95019 0.0
C1298 C 0.64907 0.46326 0.96672 0.0
C1299 C 0.685 0.50198 0.98905 0.0
H1300 H 0.63797 0.51748 0.02915 0.0
C1301 C 0.68543 0.57358 0.05123 0.0
C1302 C 0.66715 0.58618 0.0537 0.0
C1303 C 0.68583 0.5544 0.0389 0.0
C1304 C 0.65114 0.5135 0.01787 0.0
H1305 H 0.69839 0.42667 0.95789 0.0
H1306 H 0.69931 0.45899 0.98114 0.0
H1307 H 0.63774 0.48437 0.00726 0.0
H1308 H 0.63507 0.58914 0.04545 0.0
H1309 H 0.63568 0.55572 0.02365 0.0
H1310 H 0.69833 0.53121 0.9996 0.0
C1311 C 0.68505 0.45527 0.97345 0.0
C1312 C 0.65101 0.49451 0.00534 0.0
C1313 C 0.68446 0.43666 0.96032 0.0
C1314 C 0.64929 0.57952 0.0437 0.0
C1315 C 0.64965 0.56037 0.03139 0.0
C1316 C 0.68512 0.521 0.00159 0.0
C1317 C 0.66734 0.46877 0.9768 0.0
C1318 C 0.66786 0.48861 0.99066 0.0
C1319 C 0.6679 0.54754 0.02892 0.0
C1320 C 0.66811 0.52705 0.01602 0.0
H1321 H 0.63411 0.44084 0.9462 0.0
H1322 H 0.63523 0.47343 0.96878 0.0
H1323 H 0.69812 0.49801 0.9777 0.0
H1324 H 0.69932 0.57852 0.05898 0.0
H1325 H 0.70005 0.54478 0.0375 0.0
C1326 C 0.44091 0.33086 0.01667 0.0
C1327 C 0.43427 0.35017 0.02745 0.0
C1328 C 0.45996 0.32936 0.00457 0.0
C1329 C 0.51059 0.35531 0.99933 0.0
H1330 H 0.51647 0.32469 0.94304 0.0
C1331 C 0.58382 0.36046 0.94165 0.0
C1332 C 0.59137 0.34154 0.93094 0.0
C1333 C 0.56466 0.36097 0.95347 0.0
C1334 C 0.51513 0.33308 0.95886 0.0
H1335 H 0.44206 0.38324 0.03325 0.0
H1336 H 0.4752 0.38063 0.01215 0.0
H1337 H 0.48277 0.32666 0.96333 0.0
H1338 H 0.58524 0.30838 0.92386 0.0
H1339 H 0.55165 0.30908 0.94477 0.0
H1340 H 0.54289 0.3618 0.99487 0.0
C1341 C 0.46591 0.36652 0.01342 0.0
C1342 C 0.49583 0.33422 0.97048 0.0
C1343 C 0.4469 0.36803 0.0255 0.0
C1344 C 0.57958 0.3231 0.9321 0.0
C1345 C 0.56038 0.32359 0.94391 0.0
C1346 C 0.52986 0.35418 0.98773 0.0
C1347 C 0.47276 0.34713 0.00299 0.0
C1348 C 0.49332 0.34547 0.99078 0.0
C1349 C 0.55272 0.34253 0.95475 0.0
C1350 C 0.53233 0.34318 0.96731 0.0
H1351 H 0.43164 0.31676 0.01806 0.0
H1352 H 0.46489 0.31413 0.99691 0.0
H1353 H 0.50928 0.36374 0.01513 0.0
H1354 H 0.59273 0.37486 0.94078 0.0
H1355 H 0.55907 0.37588 0.96136 0.0
loop_
_geom_bond_atom_site_label_1
_geom_bond_atom_site_label_2
_geom_bond_distance
_geom_bond_site_symmetry_2
_ccdc_geom_bond_type
C0 C1 1.443 . S
C0 N4 1.376 . S
C0 C38 1.389 . S
C1 C0 1.443 . S
C1 C2 1.340 . S
C1 H41 0.951 . S
C2 C1 1.340 . S
C2 C3 1.439 . S
C2 H42 0.950 . S
C3 C2 1.439 . S
C3 N4 1.374 . S
C3 C37 1.395 . S
N4 C0 1.376 . S
N4 C3 1.374 . S
N4 Co5 2.008 . S
Co5 N4 2.008 . S
Co5 N6 1.995 . S
Co5 N11 2.008 . S
Co5 N16 1.995 . S
Co5 N21 2.282 . S
Co5 N27 2.282 . S
N6 Co5 1.995 . S
N6 C7 1.376 . S
N6 C10 1.383 . S
C7 N6 1.376 . S
C7 C8 1.446 . S
C7 C37 1.391 . S
C8 C7 1.446 . S
C8 C9 1.339 . S
C8 H43 0.949 . S
C9 C8 1.339 . S
C9 C10 1.439 . S
C9 H44 0.950 . S
C10 N6 1.383 . S
C10 C9 1.439 . S
C10 C39 1.392 . S
N11 Co5 2.008 . S
N11 C12 1.376 . S
N11 C15 1.374 . S
C12 N11 1.376 . S
C12 C13 1.443 . S
C12 C39 1.389 . S
C13 C12 1.443 . S
C13 C14 1.340 . S
C13 H45 0.951 . S
C14 C13 1.340 . S
C14 C15 1.439 . S
C14 H46 0.950 . S
C15 N11 1.374 . S
C15 C14 1.439 . S
C15 C40 1.395 . S
N16 Co5 1.995 . S
N16 C17 1.376 . S
N16 C20 1.383 . S
C17 N16 1.376 . S
C17 C18 1.446 . S
C17 C40 1.391 . S
C18 C17 1.446 . S
C18 C19 1.339 . S
C18 H47 0.949 . S
C19 C18 1.339 . S
C19 C20 1.439 . S
C19 H48 0.950 . S
C20 N16 1.383 . S
C20 C19 1.439 . S
C20 C38 1.392 . S
N21 Co5 2.282 . S
N21 C24 1.332 . S
N21 C26 1.332 . S
C22 C23 1.386 . S
C22 C25 1.388 . S
C23 C22 1.386 . S
C23 C24 1.382 . S
C23 H49 0.950 . S
C24 N21 1.332 . S
C24 C23 1.382 . S
C24 H35 0.952 . S
C25 C22 1.388 . S
C25 C26 1.382 . S
C25 H50 0.950 . S
C26 N21 1.332 . S
C26 C25 1.382 . S
C26 H36 0.948 . S
N27 Co5 2.282 . S
N27 C31 1.332 . S
N27 C32 1.332 . S
C28 C29 1.388 . S
C28 C32 1.382 . S
C28 H51 0.950 . S
C29 C28 1.388 . S
C29 C30 1.386 . S
C30 C29 1.386 . S
C30 C31 1.382 . S
C30 H52 0.950 . S
C31 N27 1.332 . S
C31 C30 1.382 . S
C31 H33 0.952 . S
C32 N27 1.332 . S
C32 C28 1.382 . S
C32 H34 0.948 . S
H33 C31 0.952 . S
H34 C32 0.948 . S
H35 C24 0.952 . S
H36 C26 0.948 . S
C37 C3 1.395 . S
C37 C7 1.391 . S
C38 C0 1.389 . S
C38 C20 1.392 . S
C39 C10 1.392 . S
C39 C12 1.389 . S
C40 C15 1.395 . S
C40 C17 1.391 . S
H41 C1 0.951 . S
H42 C2 0.950 . S
H43 C8 0.949 . S
H44 C9 0.950 . S
H45 C13 0.951 . S
H46 C14 0.950 . S
H47 C18 0.949 . S
H48 C19 0.950 . S
H49 C23 0.950 . S
H50 C25 0.950 . S
H51 C28 0.950 . S
H52 C30 0.950 . S
C53 C54 1.443 . S
C53 N57 1.376 . S
C53 C91 1.389 . S
C54 C53 1.443 . S
C54 C55 1.340 . S
C54 H94 0.951 . S
C55 C54 1.340 . S
C55 C56 1.439 . S
C55 H95 0.950 . S
C56 C55 1.439 . S
C56 N57 1.374 . S
C56 C90 1.395 . S
N57 C53 1.376 . S
N57 C56 1.374 . S
N57 Co58 2.008 . S
Co58 N57 2.008 . S
Co58 N59 1.995 . S
Co58 N64 2.008 . S
Co58 N69 1.995 . S
Co58 N74 2.282 . S
Co58 N80 2.282 . S
N59 Co58 1.995 . S
N59 C60 1.376 . S
N59 C63 1.383 . S
C60 N59 1.376 . S
C60 C61 1.446 . S
C60 C90 1.391 . S
C61 C60 1.446 . S
C61 C62 1.339 . S
C61 H96 0.949 . S
C62 C61 1.339 . S
C62 C63 1.439 . S
C62 H97 0.950 . S
C63 N59 1.383 . S
C63 C62 1.439 . S
C63 C92 1.392 . S
N64 Co58 2.008 . S
N64 C65 1.376 . S
N64 C68 1.374 . S
C65 N64 1.376 . S
C65 C66 1.443 . S
C65 C92 1.389 . S
C66 C65 1.443 . S
C66 C67 1.340 . S
C66 H98 0.951 . S
C67 C66 1.340 . S
C67 C68 1.439 . S
C67 H99 0.950 . S
C68 N64 1.374 . S
C68 C67 1.439 . S
C68 C93 1.395 . S
N69 Co58 1.995 . S
N69 C70 1.376 . S
N69 C73 1.383 . S
C70 N69 1.376 . S
C70 C71 1.446 . S
C70 C93 1.391 . S
C71 C70 1.446 . S
C71 C72 1.339 . S
C71 H100 0.949 . S
C72 C71 1.339 . S
C72 C73 1.439 . S
C72 H101 0.950 . S
C73 N69 1.383 . S
C73 C72 1.439 . S
C73 C91 1.392 . S
N74 Co58 2.282 . S
N74 C77 1.332 . S
N74 C79 1.332 . S
C75 C76 1.386 . S
C75 C78 1.388 . S
C76 C75 1.386 . S
C76 C77 1.382 . S
C76 H102 0.950 . S
C77 N74 1.332 . S
C77 C76 1.382 . S
C77 H88 0.952 . S
C78 C75 1.388 . S
C78 C79 1.382 . S
C78 H103 0.950 . S
C79 N74 1.332 . S
C79 C78 1.382 . S
C79 H89 0.948 . S
N80 Co58 2.282 . S
N80 C84 1.332 . S
N80 C85 1.332 . S
C81 C82 1.388 . S
C81 C85 1.382 . S
C81 H104 0.950 . S
C82 C81 1.388 . S
C82 C83 1.386 . S
C83 C82 1.386 . S
C83 C84 1.382 . S
C83 H105 0.950 . S
C84 N80 1.332 . S
C84 C83 1.382 . S
C84 H86 0.952 . S
C85 N80 1.332 . S
C85 C81 1.382 . S
C85 H87 0.948 . S
H86 C84 0.952 . S
H87 C85 0.948 . S
H88 C77 0.952 . S
H89 C79 0.948 . S
C90 C56 1.395 . S
C90 C60 1.391 . S
C91 C53 1.389 . S
C91 C73 1.392 . S
C92 C63 1.392 . S
C92 C65 1.389 . S
C93 C68 1.395 . S
C93 C70 1.391 . S
H94 C54 0.951 . S
H95 C55 0.950 . S
H96 C61 0.949 . S
H97 C62 0.950 . S
H98 C66 0.951 . S
H99 C67 0.950 . S
H100 C71 0.949 . S
H101 C72 0.950 . S
H102 C76 0.950 . S
H103 C78 0.950 . S
H104 C81 0.950 . S
H105 C83 0.950 . S
C106 C107 1.443 . S
C106 N110 1.376 . S
C106 C144 1.389 . S
C107 C106 1.443 . S
C107 C108 1.340 . S
C107 H147 0.951 . S
C108 C107 1.340 . S
C108 C109 1.439 . S
C108 H148 0.950 . S
C109 C108 1.439 . S
C109 N110 1.374 . S
C109 C143 1.395 . S
N110 C106 1.376 . S
N110 C109 1.374 . S
N110 Co111 2.008 . S
Co111 N110 2.008 . S
Co111 N112 1.995 . S
Co111 N117 2.008 . S
Co111 N122 1.995 . S
Co111 N127 2.282 . S
Co111 N133 2.282 . S
N112 Co111 1.995 . S
N112 C113 1.376 . S
N112 C116 1.383 . S
C113 N112 1.376 . S
C113 C114 1.446 . S
C113 C143 1.391 . S
C114 C113 1.446 . S
C114 C115 1.339 . S
C114 H149 0.949 . S
C115 C114 1.339 . S
C115 C116 1.439 . S
C115 H150 0.950 . S
C116 N112 1.383 . S
C116 C115 1.439 . S
C116 C145 1.392 . S
N117 Co111 2.008 . S
N117 C118 1.376 . S
N117 C121 1.374 . S
C118 N117 1.376 . S
C118 C119 1.443 . S
C118 C145 1.389 . S
C119 C118 1.443 . S
C119 C120 1.340 . S
C119 H151 0.951 . S
C120 C119 1.340 . S
C120 C121 1.439 . S
C120 H152 0.950 . S
C121 N117 1.374 . S
C121 C120 1.439 . S
C121 C146 1.395 . S
N122 Co111 1.995 . S
N122 C123 1.376 . S
N122 C126 1.383 . S
C123 N122 1.376 . S
C123 C124 1.446 . S
C123 C146 1.391 . S
C124 C123 1.446 . S
C124 C125 1.339 . S
C124 H153 0.949 . S
C125 C124 1.339 . S
C125 C126 1.439 . S
C125 H154 0.950 . S
C126 N122 1.383 . S
C126 C125 1.439 . S
C126 C144 1.392 . S
N127 Co111 2.282 . S
N127 C130 1.332 . S
N127 C132 1.332 . S
C128 C129 1.386 . S
C128 C131 1.388 . S
C129 C128 1.386 . S
C129 C130 1.382 . S
C129 H155 0.950 . S
C130 N127 1.332 . S
C130 C129 1.382 . S
C130 H141 0.952 . S
C131 C128 1.388 . S
C131 C132 1.382 . S
C131 H156 0.950 . S
C132 N127 1.332 . S
C132 C131 1.382 . S
C132 H142 0.948 . S
N133 Co111 2.282 . S
N133 C137 1.332 . S
N133 C138 1.332 . S
C134 C135 1.388 . S
C134 C138 1.382 . S
C134 H157 0.950 . S
C135 C134 1.388 . S
C135 C136 1.386 . S
C136 C135 1.386 . S
C136 C137 1.382 . S
C136 H158 0.950 . S
C137 N133 1.332 . S
C137 C136 1.382 . S
C137 H139 0.952 . S
C138 N133 1.332 . S
C138 C134 1.382 . S
C138 H140 0.948 . S
H139 C137 0.952 . S
H140 C138 0.948 . S
H141 C130 0.952 . S
H142 C132 0.948 . S
C143 C109 1.395 . S
C143 C113 1.391 . S
C144 C106 1.389 . S
C144 C126 1.392 . S
C145 C116 1.392 . S
C145 C118 1.389 . S
C146 C121 1.395 . S
C146 C123 1.391 . S
H147 C107 0.951 . S
H148 C108 0.950 . S
H149 C114 0.949 . S
H150 C115 0.950 . S
H151 C119 0.951 . S
H152 C120 0.950 . S
H153 C124 0.949 . S
H154 C125 0.950 . S
H155 C129 0.950 . S
H156 C131 0.950 . S
H157 C134 0.950 . S
H158 C136 0.950 . S
C159 C160 1.443 . S
C159 N163 1.376 . S
C159 C197 1.389 . S
C160 C159 1.443 . S
C160 C161 1.340 . S
C160 H200 0.951 . S
C161 C160 1.340 . S
C161 C162 1.439 . S
C161 H201 0.950 . S
C162 C161 1.439 . S
C162 N163 1.374 . S
C162 C196 1.395 . S
N163 C159 1.376 . S
N163 C162 1.374 . S
N163 Co164 2.008 . S
Co164 N163 2.008 . S
Co164 N165 1.995 . S
Co164 N170 2.008 . S
Co164 N175 1.995 . S
Co164 N180 2.282 . S
Co164 N186 2.282 . S
N165 Co164 1.995 . S
N165 C166 1.376 . S
N165 C169 1.383 . S
C166 N165 1.376 . S
C166 C167 1.446 . S
C166 C196 1.391 . S
C167 C166 1.446 . S
C167 C168 1.339 . S
C167 H202 0.949 . S
C168 C167 1.339 . S
C168 C169 1.439 . S
C168 H203 0.950 . S
C169 N165 1.383 . S
C169 C168 1.439 . S
C169 C198 1.392 . S
N170 Co164 2.008 . S
N170 C171 1.376 . S
N170 C174 1.374 . S
C171 N170 1.376 . S
C171 C172 1.443 . S
C171 C198 1.389 . S
C172 C171 1.443 . S
C172 C173 1.340 . S
C172 H204 0.951 . S
C173 C172 1.340 . S
C173 C174 1.439 . S
C173 H205 0.969 . S
C174 N170 1.374 . S
C174 C173 1.439 . S
C174 C199 1.395 . S
N175 Co164 1.995 . S
N175 C176 1.376 . S
N175 C179 1.383 . S
C176 N175 1.376 . S
C176 C177 1.446 . S
C176 C199 1.391 . S
C177 C176 1.446 . S
C177 C178 1.339 . S
C177 H206 0.949 . S
C178 C177 1.339 . S
C178 C179 1.439 . S
C178 H207 0.950 . S
C179 N175 1.383 . S
C179 C178 1.439 . S
C179 C197 1.392 . S
N180 Co164 2.282 . S
N180 C183 1.332 . S
N180 C185 1.332 . S
C181 C182 1.386 . S
C181 C184 1.388 . S
C182 C181 1.386 . S
C182 C183 1.382 . S
C182 H208 0.950 . S
C183 N180 1.332 . S
C183 C182 1.382 . S
C183 H194 0.952 . S
C184 C181 1.388 . S
C184 C185 1.382 . S
C184 H209 0.950 . S
C185 N180 1.332 . S
C185 C184 1.382 . S
C185 H195 0.948 . S
N186 Co164 2.282 . S
N186 C190 1.332 . S
N186 C191 1.332 . S
C187 C188 1.388 . S
C187 C191 1.382 . S
C187 H210 0.950 . S
C188 C187 1.388 . S
C188 C189 1.386 . S
C189 C188 1.386 . S
C189 C190 1.382 . S
C189 H211 0.950 . S
C190 N186 1.332 . S
C190 C189 1.382 . S
C190 H192 0.952 . S
C191 N186 1.332 . S
C191 C187 1.382 . S
C191 H193 0.948 . S
H192 C190 0.952 . S
H193 C191 0.948 . S
H194 C183 0.952 . S
H195 C185 0.948 . S
C196 C162 1.395 . S
C196 C166 1.391 . S
C197 C159 1.389 . S
C197 C179 1.392 . S
C198 C169 1.392 . S
C198 C171 1.389 . S
C199 C174 1.395 . S
C199 C176 1.391 . S
H200 C160 0.951 . S
H201 C161 0.950 . S
H202 C167 0.949 . S
H203 C168 0.950 . S
H204 C172 0.951 . S
H205 C173 0.969 . S
H206 C177 0.949 . S
H207 C178 0.950 . S
H208 C182 0.950 . S
H209 C184 0.950 . S
H210 C187 0.950 . S
H211 C189 0.950 . S
C212 C213 1.443 . S
C212 N216 1.376 . S
C212 C250 1.389 . S
C213 C212 1.443 . S
C213 C214 1.340 . S
C213 H253 0.951 . S
C214 C213 1.340 . S
C214 C215 1.439 . S
C214 H254 0.950 . S
C215 C214 1.439 . S
C215 N216 1.374 . S
C215 C249 1.395 . S
N216 C212 1.376 . S
N216 C215 1.374 . S
N216 Co217 2.008 . S
Co217 N216 2.008 . S
Co217 N218 1.995 . S
Co217 N223 2.008 . S
Co217 N228 1.995 . S
Co217 N233 2.282 . S
Co217 N239 2.282 . S
N218 Co217 1.995 . S
N218 C219 1.376 . S
N218 C222 1.383 . S
C219 N218 1.376 . S
C219 C220 1.446 . S
C219 C249 1.391 . S
C220 C219 1.446 . S
C220 C221 1.339 . S
C220 H255 0.949 . S
C221 C220 1.339 . S
C221 C222 1.439 . S
C221 H256 0.950 . S
C222 N218 1.383 . S
C222 C221 1.439 . S
C222 C251 1.392 . S
N223 Co217 2.008 . S
N223 C224 1.376 . S
N223 C227 1.374 . S
C224 N223 1.376 . S
C224 C225 1.443 . S
C224 C251 1.389 . S
C225 C224 1.443 . S
C225 C226 1.340 . S
C225 H257 0.951 . S
C226 C225 1.340 . S
C226 C227 1.439 . S
C226 H258 0.950 . S
C227 N223 1.374 . S
C227 C226 1.439 . S
C227 C252 1.395 . S
N228 Co217 1.995 . S
N228 C229 1.376 . S
N228 C232 1.383 . S
C229 N228 1.376 . S
C229 C230 1.446 . S
C229 C252 1.391 . S
C230 C229 1.446 . S
C230 C231 1.339 . S
C230 H259 0.949 . S
C231 C230 1.339 . S
C231 C232 1.439 . S
C231 H260 0.950 . S
C232 N228 1.383 . S
C232 C231 1.439 . S
C232 C250 1.392 . S
N233 Co217 2.282 . S
N233 C236 1.332 . S
N233 C238 1.332 . S
C234 C235 1.386 . S
C234 C237 1.388 . S
C235 C234 1.386 . S
C235 C236 1.382 . S
C235 H261 0.950 . S
C236 N233 1.332 . S
C236 C235 1.382 . S
C236 H247 0.952 . S
C237 C234 1.388 . S
C237 C238 1.382 . S
C237 H262 0.950 . S
C238 N233 1.332 . S
C238 C237 1.382 . S
C238 H248 0.948 . S
N239 Co217 2.282 . S
N239 C243 1.332 . S
N239 C244 1.332 . S
C240 C241 1.388 . S
C240 C244 1.382 . S
C240 H263 0.950 . S
C241 C240 1.388 . S
C241 C242 1.386 . S
C242 C241 1.386 . S
C242 C243 1.382 . S
C242 H264 0.950 . S
C243 N239 1.332 . S
C243 C242 1.382 . S
C243 H245 0.952 . S
C244 N239 1.332 . S
C244 C240 1.382 . S
C244 H246 0.948 . S
H245 C243 0.952 . S
H246 C244 0.948 . S
H247 C236 0.952 . S
H248 C238 0.948 . S
C249 C215 1.395 . S
C249 C219 1.391 . S
C250 C212 1.389 . S
C250 C232 1.392 . S
C251 C222 1.392 . S
C251 C224 1.389 . S
C252 C227 1.395 . S
C252 C229 1.391 . S
H253 C213 0.951 . S
H254 C214 0.950 . S
H255 C220 0.949 . S
H256 C221 0.950 . S
H257 C225 0.951 . S
H258 C226 0.950 . S
H259 C230 0.949 . S
H260 C231 0.950 . S
H261 C235 0.950 . S
H262 C237 0.950 . S
H263 C240 0.950 . S
H264 C242 0.950 . S
C265 C266 1.443 . S
C265 N269 1.376 . S
C265 C303 1.389 . S
C266 C265 1.443 . S
C266 C267 1.340 . S
C266 H306 0.951 . S
C267 C266 1.340 . S
C267 C268 1.439 . S
C267 H307 0.950 . S
C268 C267 1.439 . S
C268 N269 1.374 . S
C268 C302 1.395 . S
N269 C265 1.376 . S
N269 C268 1.374 . S
N269 Co270 2.008 . S
Co270 N269 2.008 . S
Co270 N271 1.995 . S
Co270 N276 2.008 . S
Co270 N281 1.995 . S
Co270 N286 2.282 . S
Co270 N292 2.282 . S
N271 Co270 1.995 . S
N271 C272 1.376 . S
N271 C275 1.383 . S
C272 N271 1.376 . S
C272 C273 1.446 . S
C272 C302 1.391 . S
C273 C272 1.446 . S
C273 C274 1.339 . S
C273 H308 0.949 . S
C274 C273 1.339 . S
C274 C275 1.439 . S
C274 H309 0.950 . S
C275 N271 1.383 . S
C275 C274 1.439 . S
C275 C304 1.392 . S
N276 Co270 2.008 . S
N276 C277 1.376 . S
N276 C280 1.374 . S
C277 N276 1.376 . S
C277 C278 1.443 . S
C277 C304 1.389 . S
C278 C277 1.443 . S
C278 C279 1.340 . S
C278 H310 0.951 . S
C279 C278 1.340 . S
C279 C280 1.439 . S
C279 H311 0.950 . S
C280 N276 1.374 . S
C280 C279 1.439 . S
C280 C305 1.395 . S
N281 Co270 1.995 . S
N281 C282 1.376 . S
N281 C285 1.383 . S
C282 N281 1.376 . S
C282 C283 1.446 . S
C282 C305 1.391 . S
C283 C282 1.446 . S
C283 C284 1.339 . S
C283 H312 0.949 . S
C284 C283 1.339 . S
C284 C285 1.439 . S
C284 H313 0.950 . S
C285 N281 1.383 . S
C285 C284 1.439 . S
C285 C303 1.392 . S
N286 Co270 2.282 . S
N286 C289 1.332 . S
N286 C291 1.332 . S
C287 C288 1.386 . S
C287 C290 1.388 . S
C288 C287 1.386 . S
C288 C289 1.382 . S
C288 H314 0.950 . S
C289 N286 1.332 . S
C289 C288 1.382 . S
C289 H300 0.952 . S
C290 C287 1.388 . S
C290 C291 1.382 . S
C290 H315 0.950 . S
C291 N286 1.332 . S
C291 C290 1.382 . S
C291 H301 0.948 . S
N292 Co270 2.282 . S
N292 C296 1.332 . S
N292 C297 1.332 . S
C293 C294 1.388 . S
C293 C297 1.382 . S
C293 H316 0.950 . S
C294 C293 1.388 . S
C294 C295 1.386 . S
C295 C294 1.386 . S
C295 C296 1.382 . S
C295 H317 0.950 . S
C296 N292 1.332 . S
C296 C295 1.382 . S
C296 H298 0.952 . S
C297 N292 1.332 . S
C297 C293 1.382 . S
C297 H299 0.948 . S
H298 C296 0.952 . S
H299 C297 0.948 . S
H300 C289 0.952 . S
H301 C291 0.948 . S
C302 C268 1.395 . S
C302 C272 1.391 . S
C303 C265 1.389 . S
C303 C285 1.392 . S
C304 C275 1.392 . S
C304 C277 1.389 . S
C305 C280 1.395 . S
C305 C282 1.391 . S
H306 C266 0.951 . S
H307 C267 0.950 . S
H308 C273 0.949 . S
H309 C274 0.950 . S
H310 C278 0.951 . S
H311 C279 0.950 . S
H312 C283 0.949 . S
H313 C284 0.950 . S
H314 C288 0.950 . S
H315 C290 0.950 . S
H316 C293 0.950 . S
H317 C295 0.950 . S
C318 C319 1.443 . S
C318 N322 1.376 . S
C318 C356 1.389 . S
C319 C318 1.443 . S
C319 C320 1.340 . S
C319 H359 0.951 . S
C320 C319 1.340 . S
C320 C321 1.439 . S
C320 H360 0.950 . S
C321 C320 1.439 . S
C321 N322 1.374 . S
C321 C355 1.395 . S
N322 C318 1.376 . S
N322 C321 1.374 . S
N322 Co323 2.008 . S
Co323 N322 2.008 . S
Co323 N324 1.995 . S
Co323 N329 2.008 . S
Co323 N334 1.995 . S
Co323 N339 2.282 . S
Co323 N345 2.282 . S
N324 Co323 1.995 . S
N324 C325 1.376 . S
N324 C328 1.383 . S
C325 N324 1.376 . S
C325 C326 1.446 . S
C325 C355 1.391 . S
C326 C325 1.446 . S
C326 C327 1.339 . S
C326 H361 0.949 . S
C327 C326 1.339 . S
C327 C328 1.439 . S
C327 H362 0.950 . S
C328 N324 1.383 . S
C328 C327 1.439 . S
C328 C357 1.392 . S
N329 Co323 2.008 . S
N329 C330 1.376 . S
N329 C333 1.374 . S
C330 N329 1.376 . S
C330 C331 1.443 . S
C330 C357 1.389 . S
C331 C330 1.443 . S
C331 C332 1.340 . S
C331 H363 0.951 . S
C332 C331 1.340 . S
C332 C333 1.439 . S
C332 H364 0.950 . S
C333 N329 1.374 . S
C333 C332 1.439 . S
C333 C358 1.395 . S
N334 Co323 1.995 . S
N334 C335 1.376 . S
N334 C338 1.383 . S
C335 N334 1.376 . S
C335 C336 1.446 . S
C335 C358 1.391 . S
C336 C335 1.446 . S
C336 C337 1.339 . S
C336 H365 0.949 . S
C337 C336 1.339 . S
C337 C338 1.439 . S
C337 H366 0.950 . S
C338 N334 1.383 . S
C338 C337 1.439 . S
C338 C356 1.392 . S
N339 Co323 2.282 . S
N339 C342 1.332 . S
N339 C344 1.332 . S
C340 C341 1.386 . S
C340 C343 1.388 . S
C341 C340 1.386 . S
C341 C342 1.382 . S
C341 H367 0.950 . S
C342 N339 1.332 . S
C342 C341 1.382 . S
C342 H353 0.952 . S
C343 C340 1.388 . S
C343 C344 1.382 . S
C343 H368 0.950 . S
C344 N339 1.332 . S
C344 C343 1.382 . S
C344 H354 0.948 . S
N345 Co323 2.282 . S
N345 C349 1.332 . S
N345 C350 1.332 . S
C346 C347 1.388 . S
C346 C350 1.382 . S
C346 H369 0.950 . S
C347 C346 1.388 . S
C347 C348 1.386 . S
C348 C347 1.386 . S
C348 C349 1.382 . S
C348 H370 0.950 . S
C349 N345 1.332 . S
C349 C348 1.382 . S
C349 H351 0.952 . S
C350 N345 1.332 . S
C350 C346 1.382 . S
C350 H352 0.948 . S
H351 C349 0.952 . S
H352 C350 0.948 . S
H353 C342 0.952 . S
H354 C344 0.948 . S
C355 C321 1.395 . S
C355 C325 1.391 . S
C356 C318 1.389 . S
C356 C338 1.392 . S
C357 C328 1.392 . S
C357 C330 1.389 . S
C358 C333 1.395 . S
C358 C335 1.391 . S
H359 C319 0.951 . S
H360 C320 0.950 . S
H361 C326 0.949 . S
H362 C327 0.950 . S
H363 C331 0.951 . S
H364 C332 0.950 . S
H365 C336 0.949 . S
H366 C337 0.950 . S
H367 C341 0.950 . S
H368 C343 0.950 . S
H369 C346 0.950 . S
H370 C348 0.950 . S
C371 C372 1.443 . S
C371 N375 1.376 . S
C371 C409 1.389 . S
C372 C371 1.443 . S
C372 C373 1.340 . S
C372 H412 0.951 . S
C373 C372 1.340 . S
C373 C374 1.439 . S
C373 H413 0.950 . S
C374 C373 1.439 . S
C374 N375 1.374 . S
C374 C408 1.395 . S
N375 C371 1.376 . S
N375 C374 1.374 . S
N375 Co376 2.008 . S
Co376 N375 2.008 . S
Co376 N377 1.995 . S
Co376 N382 2.008 . S
Co376 N387 1.995 . S
Co376 N392 2.282 . S
Co376 N398 2.282 . S
N377 Co376 1.995 . S
N377 C378 1.376 . S
N377 C381 1.383 . S
C378 N377 1.376 . S
C378 C379 1.446 . S
C378 C408 1.391 . S
C379 C378 1.446 . S
C379 C380 1.339 . S
C379 H414 0.949 . S
C380 C379 1.339 . S
C380 C381 1.439 . S
C380 H415 0.950 . S
C381 N377 1.383 . S
C381 C380 1.439 . S
C381 C410 1.392 . S
N382 Co376 2.008 . S
N382 C383 1.376 . S
N382 C386 1.374 . S
C383 N382 1.376 . S
C383 C384 1.443 . S
C383 C410 1.389 . S
C384 C383 1.443 . S
C384 C385 1.340 . S
C384 H416 0.951 . S
C385 C384 1.340 . S
C385 C386 1.439 . S
C385 H417 0.950 . S
C386 N382 1.374 . S
C386 C385 1.439 . S
C386 C411 1.395 . S
N387 Co376 1.995 . S
N387 C388 1.376 . S
N387 C391 1.383 . S
C388 N387 1.376 . S
C388 C389 1.446 . S
C388 C411 1.391 . S
C389 C388 1.446 . S
C389 C390 1.339 . S
C389 H418 0.949 . S
C390 C389 1.339 . S
C390 C391 1.439 . S
C390 H419 0.950 . S
C391 N387 1.383 . S
C391 C390 1.439 . S
C391 C409 1.392 . S
N392 Co376 2.282 . S
N392 C395 1.332 . S
N392 C397 1.332 . S
C393 C394 1.386 . S
C393 C396 1.388 . S
C394 C393 1.386 . S
C394 C395 1.382 . S
C394 H420 0.950 . S
C395 N392 1.332 . S
C395 C394 1.382 . S
C395 H406 0.952 . S
C396 C393 1.388 . S
C396 C397 1.382 . S
C396 H421 0.950 . S
C397 N392 1.332 . S
C397 C396 1.382 . S
C397 H407 0.948 . S
N398 Co376 2.282 . S
N398 C402 1.332 . S
N398 C403 1.332 . S
C399 C400 1.388 . S
C399 C403 1.382 . S
C399 H422 0.950 . S
C400 C399 1.388 . S
C400 C401 1.386 . S
C401 C400 1.386 . S
C401 C402 1.382 . S
C401 H423 0.950 . S
C402 N398 1.332 . S
C402 C401 1.382 . S
C402 H404 0.952 . S
C403 N398 1.332 . S
C403 C399 1.382 . S
C403 H405 0.948 . S
H404 C402 0.952 . S
H405 C403 0.948 . S
H406 C395 0.952 . S
H407 C397 0.948 . S
C408 C374 1.395 . S
C408 C378 1.391 . S
C409 C371 1.389 . S
C409 C391 1.392 . S
C410 C381 1.392 . S
C410 C383 1.389 . S
C411 C386 1.395 . S
C411 C388 1.391 . S
H412 C372 0.951 . S
H413 C373 0.950 . S
H414 C379 0.949 . S
H415 C380 0.950 . S
H416 C384 0.951 . S
H417 C385 0.950 . S
H418 C389 0.949 . S
H419 C390 0.950 . S
H420 C394 0.950 . S
H421 C396 0.950 . S
H422 C399 0.950 . S
H423 C401 0.950 . S
C424 C425 1.443 . S
C424 N428 1.376 . S
C424 C462 1.389 . S
C425 C424 1.443 . S
C425 C426 1.340 . S
C425 H465 0.951 . S
C426 C425 1.340 . S
C426 C427 1.439 . S
C426 H466 0.950 . S
C427 C426 1.439 . S
C427 N428 1.374 . S
C427 C461 1.395 . S
N428 C424 1.376 . S
N428 C427 1.374 . S
N428 Co429 2.008 . S
Co429 N428 2.008 . S
Co429 N430 1.995 . S
Co429 N435 2.008 . S
Co429 N440 1.995 . S
Co429 N445 2.282 . S
Co429 N451 2.282 . S
N430 Co429 1.995 . S
N430 C431 1.376 . S
N430 C434 1.383 . S
C431 N430 1.376 . S
C431 C432 1.446 . S
C431 C461 1.391 . S
C432 C431 1.446 . S
C432 C433 1.339 . S
C432 H467 0.949 . S
C433 C432 1.339 . S
C433 C434 1.439 . S
C433 H468 0.950 . S
C434 N430 1.383 . S
C434 C433 1.439 . S
C434 C463 1.392 . S
N435 Co429 2.008 . S
N435 C436 1.376 . S
N435 C439 1.374 . S
C436 N435 1.376 . S
C436 C437 1.443 . S
C436 C463 1.389 . S
C437 C436 1.443 . S
C437 C438 1.340 . S
C437 H469 0.951 . S
C438 C437 1.340 . S
C438 C439 1.439 . S
C438 H470 0.950 . S
C439 N435 1.374 . S
C439 C438 1.439 . S
C439 C464 1.395 . S
N440 Co429 1.995 . S
N440 C441 1.376 . S
N440 C444 1.383 . S
C441 N440 1.376 . S
C441 C442 1.446 . S
C441 C464 1.391 . S
C442 C441 1.446 . S
C442 C443 1.339 . S
C442 H471 0.949 . S
C443 C442 1.339 . S
C443 C444 1.439 . S
C443 H472 0.950 . S
C444 N440 1.383 . S
C444 C443 1.439 . S
C444 C462 1.392 . S
N445 Co429 2.282 . S
N445 C448 1.332 . S
N445 C450 1.332 . S
C446 C447 1.386 . S
C446 C449 1.388 . S
C447 C446 1.386 . S
C447 C448 1.382 . S
C447 H473 0.950 . S
C448 N445 1.332 . S
C448 C447 1.382 . S
C448 H459 0.952 . S
C449 C446 1.388 . S
C449 C450 1.382 . S
C449 H474 0.950 . S
C450 N445 1.332 . S
C450 C449 1.382 . S
C450 H460 0.948 . S
N451 Co429 2.282 . S
N451 C455 1.332 . S
N451 C456 1.332 . S
C452 C453 1.388 . S
C452 C456 1.382 . S
C452 H475 0.950 . S
C453 C452 1.388 . S
C453 C454 1.386 . S
C454 C453 1.386 . S
C454 C455 1.382 . S
C454 H476 0.950 . S
C455 N451 1.332 . S
C455 C454 1.382 . S
C455 H457 0.952 . S
C456 N451 1.332 . S
C456 C452 1.382 . S
C456 H458 0.948 . S
H457 C455 0.952 . S
H458 C456 0.948 . S
H459 C448 0.952 . S
H460 C450 0.948 . S
C461 C427 1.395 . S
C461 C431 1.391 . S
C462 C424 1.389 . S
C462 C444 1.392 . S
C463 C434 1.392 . S
C463 C436 1.389 . S
C464 C439 1.395 . S
C464 C441 1.391 . S
H465 C425 0.951 . S
H466 C426 0.950 . S
H467 C432 0.949 . S
H468 C433 0.950 . S
H469 C437 0.951 . S
H470 C438 0.950 . S
H471 C442 0.949 . S
H472 C443 0.950 . S
H473 C447 0.950 . S
H474 C449 0.950 . S
H475 C452 0.950 . S
H476 C454 0.950 . S
C477 C478 1.443 . S
C477 N481 1.376 . S
C477 C515 1.389 . S
C478 C477 1.443 . S
C478 C479 1.340 . S
C478 H518 0.951 . S
C479 C478 1.340 . S
C479 C480 1.439 . S
C479 H519 0.950 . S
C480 C479 1.439 . S
C480 N481 1.374 . S
C480 C514 1.395 . S
N481 C477 1.376 . S
N481 C480 1.374 . S
N481 Co482 2.008 . S
Co482 N481 2.008 . S
Co482 N483 1.995 . S
Co482 N488 2.008 . S
Co482 N493 1.995 . S
Co482 N498 2.282 . S
Co482 N504 2.282 . S
N483 Co482 1.995 . S
N483 C484 1.376 . S
N483 C487 1.383 . S
C484 N483 1.376 . S
C484 C485 1.446 . S
C484 C514 1.391 . S
C485 C484 1.446 . S
C485 C486 1.339 . S
C485 H520 0.949 . S
C486 C485 1.339 . S
C486 C487 1.439 . S
C486 H521 0.950 . S
C487 N483 1.383 . S
C487 C486 1.439 . S
C487 C516 1.392 . S
N488 Co482 2.008 . S
N488 C489 1.376 . S
N488 C492 1.374 . S
C489 N488 1.376 . S
C489 C490 1.443 . S
C489 C516 1.389 . S
C490 C489 1.443 . S
C490 C491 1.340 . S
C490 H522 0.951 . S
C491 C490 1.340 . S
C491 C492 1.439 . S
C491 H523 0.950 . S
C492 N488 1.374 . S
C492 C491 1.439 . S
C492 C517 1.395 . S
N493 Co482 1.995 . S
N493 C494 1.376 . S
N493 C497 1.383 . S
C494 N493 1.376 . S
C494 C495 1.446 . S
C494 C517 1.391 . S
C495 C494 1.446 . S
C495 C496 1.339 . S
C495 H524 0.949 . S
C496 C495 1.339 . S
C496 C497 1.439 . S
C496 H525 0.950 . S
C497 N493 1.383 . S
C497 C496 1.439 . S
C497 C515 1.392 . S
N498 Co482 2.282 . S
N498 C501 1.332 . S
N498 C503 1.332 . S
C499 C500 1.386 . S
C499 C502 1.388 . S
C500 C499 1.386 . S
C500 C501 1.382 . S
C500 H526 0.950 . S
C501 N498 1.332 . S
C501 C500 1.382 . S
C501 H512 0.952 . S
C502 C499 1.388 . S
C502 C503 1.382 . S
C502 H527 0.950 . S
C503 N498 1.332 . S
C503 C502 1.382 . S
C503 H513 0.948 . S
N504 Co482 2.282 . S
N504 C508 1.332 . S
N504 C509 1.332 . S
C505 C506 1.388 . S
C505 C509 1.382 . S
C505 H528 0.950 . S
C506 C505 1.388 . S
C506 C507 1.386 . S
C507 C506 1.386 . S
C507 C508 1.382 . S
C507 H529 0.950 . S
C508 N504 1.332 . S
C508 C507 1.382 . S
C508 H510 0.952 . S
C509 N504 1.332 . S
C509 C505 1.382 . S
C509 H511 0.948 . S
H510 C508 0.952 . S
H511 C509 0.948 . S
H512 C501 0.952 . S
H513 C503 0.948 . S
C514 C480 1.395 . S
C514 C484 1.391 . S
C515 C477 1.389 . S
C515 C497 1.392 . S
C516 C487 1.392 . S
C516 C489 1.389 . S
C517 C492 1.395 . S
C517 C494 1.391 . S
H518 C478 0.951 . S
H519 C479 0.950 . S
H520 C485 0.949 . S
H521 C486 0.950 . S
H522 C490 0.951 . S
H523 C491 0.950 . S
H524 C495 0.949 . S
H525 C496 0.950 . S
H526 C500 0.950 . S
H527 C502 0.950 . S
H528 C505 0.950 . S
H529 C507 0.950 . S
C530 C531 1.443 . S
C530 N534 1.376 . S
C530 C568 1.389 . S
C531 C530 1.443 . S
C531 C532 1.340 . S
C531 H571 0.951 . S
C532 C531 1.340 . S
C532 C533 1.439 . S
C532 H572 0.950 . S
C533 C532 1.439 . S
C533 N534 1.374 . S
C533 C567 1.395 . S
N534 C530 1.376 . S
N534 C533 1.374 . S
N534 Co535 2.008 . S
Co535 N534 2.008 . S
Co535 N536 1.995 . S
Co535 N541 2.008 . S
Co535 N546 1.995 . S
Co535 N551 2.282 . S
Co535 N557 2.282 . S
N536 Co535 1.995 . S
N536 C537 1.376 . S
N536 C540 1.383 . S
C537 N536 1.376 . S
C537 C538 1.446 . S
C537 C567 1.391 . S
C538 C537 1.446 . S
C538 C539 1.339 . S
C538 H573 0.949 . S
C539 C538 1.339 . S
C539 C540 1.439 . S
C539 H574 0.950 . S
C540 N536 1.383 . S
C540 C539 1.439 . S
C540 C569 1.392 . S
N541 Co535 2.008 . S
N541 C542 1.376 . S
N541 C545 1.374 . S
C542 N541 1.376 . S
C542 C543 1.443 . S
C542 C569 1.389 . S
C543 C542 1.443 . S
C543 C544 1.340 . S
C543 H575 0.951 . S
C544 C543 1.340 . S
C544 C545 1.439 . S
C544 H576 0.950 . S
C545 N541 1.374 . S
C545 C544 1.439 . S
C545 C570 1.395 . S
N546 Co535 1.995 . S
N546 C547 1.376 . S
N546 C550 1.383 . S
C547 N546 1.376 . S
C547 C548 1.446 . S
C547 C570 1.391 . S
C548 C547 1.446 . S
C548 C549 1.339 . S
C548 H577 0.949 . S
C549 C548 1.339 . S
C549 C550 1.439 . S
C549 H578 0.950 . S
C550 N546 1.383 . S
C550 C549 1.439 . S
C550 C568 1.392 . S
N551 Co535 2.282 . S
N551 C554 1.332 . S
N551 C556 1.332 . S
C552 C553 1.386 . S
C552 C555 1.388 . S
C553 C552 1.386 . S
C553 C554 1.382 . S
C553 H579 0.950 . S
C554 N551 1.332 . S
C554 C553 1.382 . S
C554 H565 0.952 . S
C555 C552 1.388 . S
C555 C556 1.382 . S
C555 H580 0.950 . S
C556 N551 1.332 . S
C556 C555 1.382 . S
C556 H566 0.948 . S
N557 Co535 2.282 . S
N557 C561 1.332 . S
N557 C562 1.332 . S
C558 C559 1.388 . S
C558 C562 1.382 . S
C558 H581 0.950 . S
C559 C558 1.388 . S
C559 C560 1.386 . S
C560 C559 1.386 . S
C560 C561 1.382 . S
C560 H582 0.950 . S
C561 N557 1.332 . S
C561 C560 1.382 . S
C561 H563 0.952 . S
C562 N557 1.332 . S
C562 C558 1.382 . S
C562 H564 0.948 . S
H563 C561 0.952 . S
H564 C562 0.948 . S
H565 C554 0.952 . S
H566 C556 0.948 . S
C567 C533 1.395 . S
C567 C537 1.391 . S
C568 C530 1.389 . S
C568 C550 1.392 . S
C569 C540 1.392 . S
C569 C542 1.389 . S
C570 C545 1.395 . S
C570 C547 1.391 . S
H571 C531 0.951 . S
H572 C532 0.950 . S
H573 C538 0.949 . S
H574 C539 0.950 . S
H575 C543 0.951 . S
H576 C544 0.950 . S
H577 C548 0.949 . S
H578 C549 0.950 . S
H579 C553 0.950 . S
H580 C555 0.950 . S
H581 C558 0.950 . S
H582 C560 0.950 . S
C583 C584 1.443 . S
C583 N587 1.376 . S
C583 C621 1.389 . S
C584 C583 1.443 . S
C584 C585 1.340 . S
C584 H624 0.951 . S
C585 C584 1.340 . S
C585 C586 1.439 . S
C585 H625 0.950 . S
C586 C585 1.439 . S
C586 N587 1.374 . S
C586 C620 1.395 . S
N587 C583 1.376 . S
N587 C586 1.374 . S
N587 Co588 2.008 . S
Co588 N587 2.008 . S
Co588 N589 1.995 . S
Co588 N594 2.008 . S
Co588 N599 1.995 . S
Co588 N604 2.282 . S
Co588 N610 2.282 . S
N589 Co588 1.995 . S
N589 C590 1.376 . S
N589 C593 1.383 . S
C590 N589 1.376 . S
C590 C591 1.446 . S
C590 C620 1.391 . S
C591 C590 1.446 . S
C591 C592 1.339 . S
C591 H626 0.949 . S
C592 C591 1.339 . S
C592 C593 1.439 . S
C592 H627 0.950 . S
C593 N589 1.383 . S
C593 C592 1.439 . S
C593 C622 1.392 . S
N594 Co588 2.008 . S
N594 C595 1.376 . S
N594 C598 1.374 . S
C595 N594 1.376 . S
C595 C596 1.443 . S
C595 C622 1.389 . S
C596 C595 1.443 . S
C596 C597 1.340 . S
C596 H628 0.951 . S
C597 C596 1.340 . S
C597 C598 1.439 . S
C597 H629 0.950 . S
C598 N594 1.374 . S
C598 C597 1.439 . S
C598 C623 1.395 . S
N599 Co588 1.995 . S
N599 C600 1.376 . S
N599 C603 1.383 . S
C600 N599 1.376 . S
C600 C601 1.446 . S
C600 C623 1.391 . S
C601 C600 1.446 . S
C601 C602 1.339 . S
C601 H630 0.949 . S
C602 C601 1.339 . S
C602 C603 1.439 . S
C602 H631 0.950 . S
C603 N599 1.383 . S
C603 C602 1.439 . S
C603 C621 1.392 . S
N604 Co588 2.282 . S
N604 C607 1.332 . S
N604 C609 1.332 . S
C605 C606 1.386 . S
C605 C608 1.388 . S
C606 C605 1.386 . S
C606 C607 1.382 . S
C606 H632 0.950 . S
C607 N604 1.332 . S
C607 C606 1.382 . S
C607 H618 0.952 . S
C608 C605 1.388 . S
C608 C609 1.382 . S
C608 H633 0.950 . S
C609 N604 1.332 . S
C609 C608 1.382 . S
C609 H619 0.948 . S
N610 Co588 2.282 . S
N610 C614 1.332 . S
N610 C615 1.332 . S
C611 C612 1.388 . S
C611 C615 1.382 . S
C611 H634 0.950 . S
C612 C611 1.388 . S
C612 C613 1.386 . S
C613 C612 1.386 . S
C613 C614 1.382 . S
C613 H635 0.950 . S
C614 N610 1.332 . S
C614 C613 1.382 . S
C614 H616 0.952 . S
C615 N610 1.332 . S
C615 C611 1.382 . S
C615 H617 0.948 . S
H616 C614 0.952 . S
H617 C615 0.948 . S
H618 C607 0.952 . S
H619 C609 0.948 . S
C620 C586 1.395 . S
C620 C590 1.391 . S
C621 C583 1.389 . S
C621 C603 1.392 . S
C622 C593 1.392 . S
C622 C595 1.389 . S
C623 C598 1.395 . S
C623 C600 1.391 . S
H624 C584 0.951 . S
H625 C585 0.950 . S
H626 C591 0.949 . S
H627 C592 0.950 . S
H628 C596 0.951 . S
H629 C597 0.950 . S
H630 C601 0.949 . S
H631 C602 0.950 . S
H632 C606 0.950 . S
H633 C608 0.950 . S
H634 C611 0.950 . S
H635 C613 0.950 . S
C636 C637 1.349 . S
C636 C638 1.327 . S
C636 H661 0.950 . S
C637 C636 1.349 . S
C637 C653 1.349 . S
C638 C636 1.327 . S
C638 C657 1.429 . S
C638 H662 0.950 . S
C639 C656 1.574 . S
C639 C658 1.368 . S
C639 H663 0.949 . S
H640 C644 0.949 . S
C641 C642 1.349 . S
C641 C643 1.327 . S
C641 H664 0.950 . S
C642 C641 1.349 . S
C642 C654 1.349 . S
C643 C641 1.327 . S
C643 C659 1.429 . S
C643 H665 0.950 . S
C644 H640 0.949 . S
C644 C652 1.574 . S
C644 C660 1.368 . S
H645 C653 0.950 . S
H646 C651 0.950 . S
H647 C652 0.949 . S
H648 C654 0.950 . S
H649 C655 0.950 . S
H650 C656 0.949 . S
C651 H646 0.950 . S
C651 C653 1.327 . S
C651 C657 1.429 . S
C652 C644 1.574 . S
C652 H647 0.949 . S
C652 C658 1.368 . S
C653 C637 1.349 . S
C653 H645 0.950 . S
C653 C651 1.327 . S
C654 C642 1.349 . S
C654 H648 0.950 . S
C654 C655 1.327 . S
C655 H649 0.950 . S
C655 C654 1.327 . S
C655 C659 1.429 . S
C656 C639 1.574 . S
C656 H650 0.949 . S
C656 C660 1.368 . S
C657 C638 1.429 . S
C657 C651 1.429 . S
C657 C658 1.523 . S
C658 C639 1.368 . S
C658 C652 1.368 . S
C658 C657 1.523 . S
C659 C643 1.429 . S
C659 C655 1.429 . S
C659 C660 1.523 . S
C660 C644 1.368 . S
C660 C656 1.368 . S
C660 C659 1.523 . S
H661 C636 0.950 . S
H662 C638 0.950 . S
H663 C639 0.949 . S
H664 C641 0.950 . S
H665 C643 0.950 . S
C666 C667 1.349 . S
C666 C668 1.327 . S
C666 H691 0.950 . S
C667 C666 1.349 . S
C667 C683 1.349 . S
C668 C666 1.327 . S
C668 C687 1.429 . S
C668 H692 0.950 . S
C669 C686 1.574 . S
C669 C688 1.368 . S
C669 H693 0.949 . S
H670 C674 0.949 . S
C671 C672 1.349 . S
C671 C673 1.327 . S
C671 H694 0.950 . S
C672 C671 1.349 . S
C672 C684 1.349 . S
C673 C671 1.327 . S
C673 C689 1.429 . S
C673 H695 0.950 . S
C674 H670 0.949 . S
C674 C682 1.574 . S
C674 C690 1.368 . S
H675 C683 0.950 . S
H676 C681 0.950 . S
H677 C682 0.949 . S
H678 C684 0.950 . S
H679 C685 0.950 . S
H680 C686 0.949 . S
C681 H676 0.950 . S
C681 C683 1.327 . S
C681 C687 1.429 . S
C682 C674 1.574 . S
C682 H677 0.949 . S
C682 C688 1.368 . S
C683 C667 1.349 . S
C683 H675 0.950 . S
C683 C681 1.327 . S
C684 C672 1.349 . S
C684 H678 0.950 . S
C684 C685 1.327 . S
C685 H679 0.950 . S
C685 C684 1.327 . S
C685 C689 1.429 . S
C686 C669 1.574 . S
C686 H680 0.949 . S
C686 C690 1.368 . S
C687 C668 1.429 . S
C687 C681 1.429 . S
C687 C688 1.523 . S
C688 C669 1.368 . S
C688 C682 1.368 . S
C688 C687 1.523 . S
C689 C673 1.429 . S
C689 C685 1.429 . S
C689 C690 1.523 . S
C690 C674 1.368 . S
C690 C686 1.368 . S
C690 C689 1.523 . S
H691 C666 0.950 . S
H692 C668 0.950 . S
H693 C669 0.949 . S
H694 C671 0.950 . S
H695 C673 0.950 . S
C696 C697 1.349 . S
C696 C698 1.327 . S
C696 H721 0.950 . S
C697 C696 1.349 . S
C697 C713 1.349 . S
C698 C696 1.327 . S
C698 C717 1.429 . S
C698 H722 0.950 . S
C699 C716 1.574 . S
C699 C718 1.368 . S
C699 H723 0.949 . S
H700 C704 0.949 . S
C701 C702 1.349 . S
C701 C703 1.327 . S
C701 H724 0.950 . S
C702 C701 1.349 . S
C702 C714 1.349 . S
C703 C701 1.327 . S
C703 C719 1.429 . S
C703 H725 0.950 . S
C704 H700 0.949 . S
C704 C712 1.574 . S
C704 C720 1.368 . S
H705 C713 0.950 . S
H706 C711 0.950 . S
H707 C712 0.949 . S
H708 C714 0.950 . S
H709 C715 0.950 . S
H710 C716 0.949 . S
C711 H706 0.950 . S
C711 C713 1.327 . S
C711 C717 1.429 . S
C712 C704 1.574 . S
C712 H707 0.949 . S
C712 C718 1.368 . S
C713 C697 1.349 . S
C713 H705 0.950 . S
C713 C711 1.327 . S
C714 C702 1.349 . S
C714 H708 0.950 . S
C714 C715 1.327 . S
C715 H709 0.950 . S
C715 C714 1.327 . S
C715 C719 1.429 . S
C716 C699 1.574 . S
C716 H710 0.949 . S
C716 C720 1.368 . S
C717 C698 1.429 . S
C717 C711 1.429 . S
C717 C718 1.523 . S
C718 C699 1.368 . S
C718 C712 1.368 . S
C718 C717 1.523 . S
C719 C703 1.429 . S
C719 C715 1.429 . S
C719 C720 1.523 . S
C720 C704 1.368 . S
C720 C716 1.368 . S
C720 C719 1.523 . S
H721 C696 0.950 . S
H722 C698 0.950 . S
H723 C699 0.949 . S
H724 C701 0.950 . S
H725 C703 0.950 . S
C726 C727 1.349 . S
C726 C728 1.327 . S
C726 H751 0.950 . S
C727 C726 1.349 . S
C727 C743 1.349 . S
C728 C726 1.327 . S
C728 C747 1.429 . S
C728 H752 0.950 . S
C729 C746 1.574 . S
C729 C748 1.368 . S
C729 H753 0.949 . S
H730 C734 0.949 . S
C731 C732 1.349 . S
C731 C733 1.327 . S
C731 H754 0.950 . S
C732 C731 1.349 . S
C732 C744 1.349 . S
C733 C731 1.327 . S
C733 C749 1.429 . S
C733 H755 0.950 . S
C734 H730 0.949 . S
C734 C742 1.574 . S
C734 C750 1.368 . S
H735 C743 0.950 . S
H736 C741 0.950 . S
H737 C742 0.949 . S
H738 C744 0.950 . S
H739 C745 0.950 . S
H740 C746 0.949 . S
C741 H736 0.950 . S
C741 C743 1.327 . S
C741 C747 1.429 . S
C742 C734 1.574 . S
C742 H737 0.949 . S
C742 C748 1.368 . S
C743 C727 1.349 . S
C743 H735 0.950 . S
C743 C741 1.327 . S
C744 C732 1.349 . S
C744 H738 0.950 . S
C744 C745 1.327 . S
C745 H739 0.950 . S
C745 C744 1.327 . S
C745 C749 1.429 . S
C746 C729 1.574 . S
C746 H740 0.949 . S
C746 C750 1.368 . S
C747 C728 1.429 . S
C747 C741 1.429 . S
C747 C748 1.523 . S
C748 C729 1.368 . S
C748 C742 1.368 . S
C748 C747 1.523 . S
C749 C733 1.429 . S
C749 C745 1.429 . S
C749 C750 1.523 . S
C750 C734 1.368 . S
C750 C746 1.368 . S
C750 C749 1.523 . S
H751 C726 0.950 . S
H752 C728 0.950 . S
H753 C729 0.949 . S
H754 C731 0.950 . S
H755 C733 0.950 . S
C756 C757 1.349 . S
C756 C758 1.327 . S
C756 H781 0.950 . S
C757 C756 1.349 . S
C757 C773 1.349 . S
C758 C756 1.327 . S
C758 C777 1.429 . S
C758 H782 0.950 . S
C759 C776 1.574 . S
C759 C778 1.368 . S
C759 H783 0.949 . S
H760 C764 0.949 . S
C761 C762 1.349 . S
C761 C763 1.327 . S
C761 H784 0.950 . S
C762 C761 1.349 . S
C762 C774 1.349 . S
C763 C761 1.327 . S
C763 C779 1.429 . S
C763 H785 0.950 . S
C764 H760 0.949 . S
C764 C772 1.574 . S
C764 C780 1.368 . S
H765 C773 0.950 . S
H766 C771 0.950 . S
H767 C772 0.949 . S
H768 C774 0.950 . S
H769 C775 0.950 . S
H770 C776 0.949 . S
C771 H766 0.950 . S
C771 C773 1.327 . S
C771 C777 1.429 . S
C772 C764 1.574 . S
C772 H767 0.949 . S
C772 C778 1.368 . S
C773 C757 1.349 . S
C773 H765 0.950 . S
C773 C771 1.327 . S
C774 C762 1.349 . S
C774 H768 0.950 . S
C774 C775 1.327 . S
C775 H769 0.950 . S
C775 C774 1.327 . S
C775 C779 1.429 . S
C776 C759 1.574 . S
C776 H770 0.949 . S
C776 C780 1.368 . S
C777 C758 1.429 . S
C777 C771 1.429 . S
C777 C778 1.523 . S
C778 C759 1.368 . S
C778 C772 1.368 . S
C778 C777 1.523 . S
C779 C763 1.429 . S
C779 C775 1.429 . S
C779 C780 1.523 . S
C780 C764 1.368 . S
C780 C776 1.368 . S
C780 C779 1.523 . S
H781 C756 0.950 . S
H782 C758 0.950 . S
H783 C759 0.949 . S
H784 C761 0.950 . S
H785 C763 0.950 . S
C786 C787 1.349 . S
C786 C788 1.327 . S
C786 H811 0.950 . S
C787 C786 1.349 . S
C787 C803 1.349 . S
C788 C786 1.327 . S
C788 C807 1.429 . S
C788 H812 0.950 . S
C789 C806 1.574 . S
C789 C808 1.368 . S
C789 H813 0.949 . S
H790 C794 0.949 . S
C791 C792 1.349 . S
C791 C793 1.327 . S
C791 H814 0.950 . S
C792 C791 1.349 . S
C792 C804 1.349 . S
C793 C791 1.327 . S
C793 C809 1.429 . S
C793 H815 0.950 . S
C794 H790 0.949 . S
C794 C802 1.574 . S
C794 C810 1.368 . S
H795 C803 0.950 . S
H796 C801 0.950 . S
H797 C802 0.949 . S
H798 C804 0.950 . S
H799 C805 0.950 . S
H800 C806 0.949 . S
C801 H796 0.950 . S
C801 C803 1.327 . S
C801 C807 1.429 . S
C802 C794 1.574 . S
C802 H797 0.949 . S
C802 C808 1.368 . S
C803 C787 1.349 . S
C803 H795 0.950 . S
C803 C801 1.327 . S
C804 C792 1.349 . S
C804 H798 0.950 . S
C804 C805 1.327 . S
C805 H799 0.950 . S
C805 C804 1.327 . S
C805 C809 1.429 . S
C806 C789 1.574 . S
C806 H800 0.949 . S
C806 C810 1.368 . S
C807 C788 1.429 . S
C807 C801 1.429 . S
C807 C808 1.523 . S
C808 C789 1.368 . S
C808 C802 1.368 . S
C808 C807 1.523 . S
C809 C793 1.429 . S
C809 C805 1.429 . S
C809 C810 1.523 . S
C810 C794 1.368 . S
C810 C806 1.368 . S
C810 C809 1.523 . S
H811 C786 0.950 . S
H812 C788 0.950 . S
H813 C789 0.949 . S
H814 C791 0.950 . S
H815 C793 0.950 . S
C816 C817 1.349 . S
C816 C818 1.327 . S
C816 H841 0.950 . S
C817 C816 1.349 . S
C817 C833 1.349 . S
C818 C816 1.327 . S
C818 C837 1.429 . S
C818 H842 0.950 . S
C819 C836 1.574 . S
C819 C838 1.368 . S
C819 H843 0.949 . S
H820 C824 0.949 . S
C821 C822 1.349 . S
C821 C823 1.327 . S
C821 H844 0.950 . S
C822 C821 1.349 . S
C822 C834 1.349 . S
C823 C821 1.327 . S
C823 C839 1.429 . S
C823 H845 0.950 . S
C824 H820 0.949 . S
C824 C832 1.574 . S
C824 C840 1.368 . S
H825 C833 0.950 . S
H826 C831 0.950 . S
H827 C832 0.949 . S
H828 C834 0.950 . S
H829 C835 0.950 . S
H830 C836 0.949 . S
C831 H826 0.950 . S
C831 C833 1.327 . S
C831 C837 1.429 . S
C832 C824 1.574 . S
C832 H827 0.949 . S
C832 C838 1.368 . S
C833 C817 1.349 . S
C833 H825 0.950 . S
C833 C831 1.327 . S
C834 C822 1.349 . S
C834 H828 0.950 . S
C834 C835 1.327 . S
C835 H829 0.950 . S
C835 C834 1.327 . S
C835 C839 1.429 . S
C836 C819 1.574 . S
C836 H830 0.949 . S
C836 C840 1.368 . S
C837 C818 1.429 . S
C837 C831 1.429 . S
C837 C838 1.523 . S
C838 C819 1.368 . S
C838 C832 1.368 . S
C838 C837 1.523 . S
C839 C823 1.429 . S
C839 C835 1.429 . S
C839 C840 1.523 . S
C840 C824 1.368 . S
C840 C836 1.368 . S
C840 C839 1.523 . S
H841 C816 0.950 . S
H842 C818 0.950 . S
H843 C819 0.949 . S
H844 C821 0.950 . S
H845 C823 0.950 . S
C846 C847 1.349 . S
C846 C848 1.327 . S
C846 H871 0.950 . S
C847 C846 1.349 . S
C847 C863 1.349 . S
C848 C846 1.327 . S
C848 C867 1.429 . S
C848 H872 0.950 . S
C849 C866 1.574 . S
C849 C868 1.368 . S
C849 H873 0.949 . S
H850 C854 0.949 . S
C851 C852 1.349 . S
C851 C853 1.327 . S
C851 H874 0.950 . S
C852 C851 1.349 . S
C852 C864 1.349 . S
C853 C851 1.327 . S
C853 C869 1.429 . S
C853 H875 0.950 . S
C854 H850 0.949 . S
C854 C862 1.574 . S
C854 C870 1.368 . S
H855 C863 0.950 . S
H856 C861 0.950 . S
H857 C862 0.949 . S
H858 C864 0.950 . S
H859 C865 0.950 . S
H860 C866 0.949 . S
C861 H856 0.950 . S
C861 C863 1.327 . S
C861 C867 1.429 . S
C862 C854 1.574 . S
C862 H857 0.949 . S
C862 C868 1.368 . S
C863 C847 1.349 . S
C863 H855 0.950 . S
C863 C861 1.327 . S
C864 C852 1.349 . S
C864 H858 0.950 . S
C864 C865 1.327 . S
C865 H859 0.950 . S
C865 C864 1.327 . S
C865 C869 1.429 . S
C866 C849 1.574 . S
C866 H860 0.949 . S
C866 C870 1.368 . S
C867 C848 1.429 . S
C867 C861 1.429 . S
C867 C868 1.523 . S
C868 C849 1.368 . S
C868 C862 1.368 . S
C868 C867 1.523 . S
C869 C853 1.429 . S
C869 C865 1.429 . S
C869 C870 1.523 . S
C870 C854 1.368 . S
C870 C866 1.368 . S
C870 C869 1.523 . S
H871 C846 0.950 . S
H872 C848 0.950 . S
H873 C849 0.949 . S
H874 C851 0.950 . S
H875 C853 0.950 . S
C876 C877 1.349 . S
C876 C878 1.327 . S
C876 H901 0.950 . S
C877 C876 1.349 . S
C877 C893 1.349 . S
C878 C876 1.327 . S
C878 C897 1.429 . S
C878 H902 0.950 . S
C879 C896 1.574 . S
C879 C898 1.368 . S
C879 H903 0.949 . S
H880 C884 0.949 . S
C881 C882 1.349 . S
C881 C883 1.327 . S
C881 H904 0.950 . S
C882 C881 1.349 . S
C882 C894 1.349 . S
C883 C881 1.327 . S
C883 C899 1.429 . S
C883 H905 0.950 . S
C884 H880 0.949 . S
C884 C892 1.574 . S
C884 C900 1.368 . S
H885 C893 0.950 . S
H886 C891 0.950 . S
H887 C892 0.949 . S
H888 C894 0.950 . S
H889 C895 0.950 . S
H890 C896 0.949 . S
C891 H886 0.950 . S
C891 C893 1.327 . S
C891 C897 1.429 . S
C892 C884 1.574 . S
C892 H887 0.949 . S
C892 C898 1.368 . S
C893 C877 1.349 . S
C893 H885 0.950 . S
C893 C891 1.327 . S
C894 C882 1.349 . S
C894 H888 0.950 . S
C894 C895 1.327 . S
C895 H889 0.950 . S
C895 C894 1.327 . S
C895 C899 1.429 . S
C896 C879 1.574 . S
C896 H890 0.949 . S
C896 C900 1.368 . S
C897 C878 1.429 . S
C897 C891 1.429 . S
C897 C898 1.523 . S
C898 C879 1.368 . S
C898 C892 1.368 . S
C898 C897 1.523 . S
C899 C883 1.429 . S
C899 C895 1.429 . S
C899 C900 1.523 . S
C900 C884 1.368 . S
C900 C896 1.368 . S
C900 C899 1.523 . S
H901 C876 0.950 . S
H902 C878 0.950 . S
H903 C879 0.949 . S
H904 C881 0.950 . S
H905 C883 0.950 . S
C906 C907 1.349 . S
C906 C908 1.327 . S
C906 H931 0.950 . S
C907 C906 1.349 . S
C907 C923 1.349 . S
C908 C906 1.327 . S
C908 C927 1.429 . S
C908 H932 0.950 . S
C909 C926 1.574 . S
C909 C928 1.368 . S
C909 H933 0.949 . S
H910 C914 0.949 . S
C911 C912 1.349 . S
C911 C913 1.327 . S
C911 H934 0.950 . S
C912 C911 1.349 . S
C912 C924 1.349 . S
C913 C911 1.327 . S
C913 C929 1.429 . S
C913 H935 0.950 . S
C914 H910 0.949 . S
C914 C922 1.574 . S
C914 C930 1.368 . S
H915 C923 0.950 . S
H916 C921 0.950 . S
H917 C922 0.949 . S
H918 C924 0.950 . S
H919 C925 0.950 . S
H920 C926 0.949 . S
C921 H916 0.950 . S
C921 C923 1.327 . S
C921 C927 1.429 . S
C922 C914 1.574 . S
C922 H917 0.949 . S
C922 C928 1.368 . S
C923 C907 1.349 . S
C923 H915 0.950 . S
C923 C921 1.327 . S
C924 C912 1.349 . S
C924 H918 0.950 . S
C924 C925 1.327 . S
C925 H919 0.950 . S
C925 C924 1.327 . S
C925 C929 1.429 . S
C926 C909 1.574 . S
C926 H920 0.949 . S
C926 C930 1.368 . S
C927 C908 1.429 . S
C927 C921 1.429 . S
C927 C928 1.523 . S
C928 C909 1.368 . S
C928 C922 1.368 . S
C928 C927 1.523 . S
C929 C913 1.429 . S
C929 C925 1.429 . S
C929 C930 1.523 . S
C930 C914 1.368 . S
C930 C926 1.368 . S
C930 C929 1.523 . S
H931 C906 0.950 . S
H932 C908 0.950 . S
H933 C909 0.949 . S
H934 C911 0.950 . S
H935 C913 0.950 . S
C936 C937 1.349 . S
C936 C938 1.327 . S
C936 H961 0.950 . S
C937 C936 1.349 . S
C937 C953 1.349 . S
C938 C936 1.327 . S
C938 C957 1.429 . S
C938 H962 0.950 . S
C939 C956 1.574 . S
C939 C958 1.368 . S
C939 H963 0.949 . S
H940 C944 0.949 . S
C941 C942 1.349 . S
C941 C943 1.327 . S
C941 H964 0.950 . S
C942 C941 1.349 . S
C942 C954 1.349 . S
C943 C941 1.327 . S
C943 C959 1.429 . S
C943 H965 0.950 . S
C944 H940 0.949 . S
C944 C952 1.574 . S
C944 C960 1.368 . S
H945 C953 0.950 . S
H946 C951 0.950 . S
H947 C952 0.949 . S
H948 C954 0.950 . S
H949 C955 0.950 . S
H950 C956 0.949 . S
C951 H946 0.950 . S
C951 C953 1.327 . S
C951 C957 1.429 . S
C952 C944 1.574 . S
C952 H947 0.949 . S
C952 C958 1.368 . S
C953 C937 1.349 . S
C953 H945 0.950 . S
C953 C951 1.327 . S
C954 C942 1.349 . S
C954 H948 0.950 . S
C954 C955 1.327 . S
C955 H949 0.950 . S
C955 C954 1.327 . S
C955 C959 1.429 . S
C956 C939 1.574 . S
C956 H950 0.949 . S
C956 C960 1.368 . S
C957 C938 1.429 . S
C957 C951 1.429 . S
C957 C958 1.523 . S
C958 C939 1.368 . S
C958 C952 1.368 . S
C958 C957 1.523 . S
C959 C943 1.429 . S
C959 C955 1.429 . S
C959 C960 1.523 . S
C960 C944 1.368 . S
C960 C956 1.368 . S
C960 C959 1.523 . S
H961 C936 0.950 . S
H962 C938 0.950 . S
H963 C939 0.949 . S
H964 C941 0.950 . S
H965 C943 0.950 . S
C966 C967 1.349 . S
C966 C968 1.327 . S
C966 H991 0.950 . S
C967 C966 1.349 . S
C967 C983 1.349 . S
C968 C966 1.327 . S
C968 C987 1.429 . S
C968 H992 0.950 . S
C969 C986 1.574 . S
C969 C988 1.368 . S
C969 H993 0.949 . S
H970 C974 0.949 . S
C971 C972 1.349 . S
C971 C973 1.327 . S
C971 H994 0.950 . S
C972 C971 1.349 . S
C972 C984 1.349 . S
C973 C971 1.327 . S
C973 C989 1.429 . S
C973 H995 0.950 . S
C974 H970 0.949 . S
C974 C982 1.574 . S
C974 C990 1.368 . S
H975 C983 0.950 . S
H976 C981 0.950 . S
H977 C982 0.949 . S
H978 C984 0.950 . S
H979 C985 0.950 . S
H980 C986 0.949 . S
C981 H976 0.950 . S
C981 C983 1.327 . S
C981 C987 1.429 . S
C982 C974 1.574 . S
C982 H977 0.949 . S
C982 C988 1.368 . S
C983 C967 1.349 . S
C983 H975 0.950 . S
C983 C981 1.327 . S
C984 C972 1.349 . S
C984 H978 0.950 . S
C984 C985 1.327 . S
C985 H979 0.950 . S
C985 C984 1.327 . S
C985 C989 1.429 . S
C986 C969 1.574 . S
C986 H980 0.949 . S
C986 C990 1.368 . S
C987 C968 1.429 . S
C987 C981 1.429 . S
C987 C988 1.523 . S
C988 C969 1.368 . S
C988 C982 1.368 . S
C988 C987 1.523 . S
C989 C973 1.429 . S
C989 C985 1.429 . S
C989 C990 1.523 . S
C990 C974 1.368 . S
C990 C986 1.368 . S
C990 C989 1.523 . S
H991 C966 0.950 . S
H992 C968 0.950 . S
H993 C969 0.949 . S
H994 C971 0.950 . S
H995 C973 0.950 . S
C996 C997 1.349 . S
C996 C998 1.327 . S
C996 H1021 0.950 . S
C997 C996 1.349 . S
C997 C1013 1.349 . S
C998 C996 1.327 . S
C998 C1017 1.429 . S
C998 H1022 0.950 . S
C999 C1016 1.574 . S
C999 C1018 1.368 1_455 S
C999 H1023 0.949 . S
H1000 C1004 0.949 . S
C1001 C1002 1.349 . S
C1001 C1003 1.327 . S
C1001 H1024 0.950 . S
C1002 C1001 1.349 . S
C1002 C1014 1.349 . S
C1003 C1001 1.327 . S
C1003 C1019 1.429 . S
C1003 H1025 0.950 . S
C1004 H1000 0.949 . S
C1004 C1012 1.574 . S
C1004 C1020 1.368 1_655 S
H1005 C1013 0.950 . S
H1006 C1011 0.950 . S
H1007 C1012 0.949 . S
H1008 C1014 0.950 . S
H1009 C1015 0.950 . S
H1010 C1016 0.949 . S
C1011 H1006 0.950 . S
C1011 C1013 1.327 . S
C1011 C1017 1.429 . S
C1012 C1004 1.574 . S
C1012 H1007 0.949 . S
C1012 C1018 1.368 . S
C1013 C997 1.349 . S
C1013 H1005 0.950 . S
C1013 C1011 1.327 . S
C1014 C1002 1.349 . S
C1014 H1008 0.950 . S
C1014 C1015 1.327 . S
C1015 H1009 0.950 . S
C1015 C1014 1.327 . S
C1015 C1019 1.429 . S
C1016 C999 1.574 . S
C1016 H1010 0.949 . S
C1016 C1020 1.368 . S
C1017 C998 1.429 . S
C1017 C1011 1.429 . S
C1017 C1018 1.523 . S
C1018 C999 1.368 1_655 S
C1018 C1012 1.368 . S
C1018 C1017 1.523 . S
C1019 C1003 1.429 . S
C1019 C1015 1.429 . S
C1019 C1020 1.523 . S
C1020 C1004 1.368 1_455 S
C1020 C1016 1.368 . S
C1020 C1019 1.523 . S
H1021 C996 0.950 . S
H1022 C998 0.950 . S
H1023 C999 0.949 . S
H1024 C1001 0.950 . S
H1025 C1003 0.950 . S
C1026 C1027 1.349 . S
C1026 C1028 1.327 . S
C1026 H1051 0.950 . S
C1027 C1026 1.349 . S
C1027 C1043 1.349 . S
C1028 C1026 1.327 . S
C1028 C1047 1.429 . S
C1028 H1052 0.950 . S
C1029 C1046 1.574 . S
C1029 C1048 1.368 1_565 S
C1029 H1053 0.949 . S
H1030 C1034 0.949 . S
C1031 C1032 1.349 . S
C1031 C1033 1.327 . S
C1031 H1054 0.950 . S
C1032 C1031 1.349 . S
C1032 C1044 1.349 . S
C1033 C1031 1.327 . S
C1033 C1049 1.429 . S
C1033 H1055 0.950 . S
C1034 H1030 0.949 . S
C1034 C1042 1.574 . S
C1034 C1050 1.368 1_545 S
H1035 C1043 0.950 . S
H1036 C1041 0.919 1_565 S
H1037 C1042 0.949 . S
H1038 C1044 0.950 . S
H1039 C1045 0.950 1_545 S
H1040 C1046 0.949 . S
C1041 H1036 0.919 1_545 S
C1041 C1043 1.327 . S
C1041 C1047 1.429 . S
C1042 C1034 1.574 . S
C1042 H1037 0.949 . S
C1042 C1048 1.368 . S
C1043 C1027 1.349 . S
C1043 H1035 0.950 . S
C1043 C1041 1.327 . S
C1044 C1032 1.349 . S
C1044 H1038 0.950 . S
C1044 C1045 1.327 . S
C1045 H1039 0.950 1_565 S
C1045 C1044 1.327 . S
C1045 C1049 1.429 . S
C1046 C1029 1.574 . S
C1046 H1040 0.949 . S
C1046 C1050 1.368 . S
C1047 C1028 1.429 . S
C1047 C1041 1.429 . S
C1047 C1048 1.523 . S
C1048 C1029 1.368 1_545 S
C1048 C1042 1.368 . S
C1048 C1047 1.523 . S
C1049 C1033 1.429 . S
C1049 C1045 1.429 . S
C1049 C1050 1.523 . S
C1050 C1034 1.368 1_565 S
C1050 C1046 1.368 . S
C1050 C1049 1.523 . S
H1051 C1026 0.950 . S
H1052 C1028 0.950 . S
H1053 C1029 0.949 . S
H1054 C1031 0.950 . S
H1055 C1033 0.950 . S
C1056 C1057 1.349 . S
C1056 C1058 1.327 . S
C1056 H1081 0.950 . S
C1057 C1056 1.349 . S
C1057 C1073 1.349 . S
C1058 C1056 1.327 . S
C1058 C1077 1.429 . S
C1058 H1082 0.950 . S
C1059 C1076 1.574 1_455 S
C1059 C1078 1.368 . S
C1059 H1083 0.949 . S
H1060 C1064 0.949 . S
C1061 C1062 1.349 . S
C1061 C1063 1.327 . S
C1061 H1084 0.950 . S
C1062 C1061 1.349 . S
C1062 C1074 1.349 . S
C1063 C1061 1.327 . S
C1063 C1079 1.429 . S
C1063 H1085 0.950 . S
C1064 H1060 0.949 . S
C1064 C1072 1.574 . S
C1064 C1080 1.368 . S
H1065 C1073 0.950 . S
H1066 C1071 0.950 . S
H1067 C1072 0.949 . S
H1068 C1074 0.950 . S
H1069 C1075 0.950 1_455 S
H1070 C1076 0.949 . S
C1071 H1066 0.950 . S
C1071 C1073 1.327 . S
C1071 C1077 1.429 . S
C1072 C1064 1.574 . S
C1072 H1067 0.949 . S
C1072 C1078 1.368 . S
C1073 C1057 1.349 . S
C1073 H1065 0.950 . S
C1073 C1071 1.327 . S
C1074 C1062 1.349 . S
C1074 H1068 0.950 . S
C1074 C1075 1.327 . S
C1075 H1069 0.950 1_655 S
C1075 C1074 1.327 . S
C1075 C1079 1.429 . S
C1076 C1059 1.574 1_655 S
C1076 H1070 0.949 . S
C1076 C1080 1.368 1_655 S
C1077 C1058 1.429 . S
C1077 C1071 1.429 . S
C1077 C1078 1.523 . S
C1078 C1059 1.368 . S
C1078 C1072 1.368 . S
C1078 C1077 1.523 . S
C1079 C1063 1.429 . S
C1079 C1075 1.429 . S
C1079 C1080 1.523 1_655 S
C1080 C1064 1.368 . S
C1080 C1076 1.368 1_455 S
C1080 C1079 1.523 1_455 S
H1081 C1056 0.950 . S
H1082 C1058 0.950 . S
H1083 C1059 0.949 . S
H1084 C1061 0.950 . S
H1085 C1063 0.950 . S
C1086 C1087 1.349 . S
C1086 C1088 1.327 . S
C1086 H1111 0.950 . S
C1087 C1086 1.349 . S
C1087 C1103 1.349 . S
C1088 C1086 1.327 . S
C1088 C1107 1.429 . S
C1088 H1112 0.950 . S
C1089 C1106 1.574 . S
C1089 C1108 1.343 1_565 S
C1089 H1113 0.949 . S
H1090 C1094 0.941 1_545 S
C1091 C1092 1.349 . S
C1091 C1093 1.327 . S
C1091 H1114 0.950 . S
C1092 C1091 1.349 . S
C1092 C1104 1.349 . S
C1093 C1091 1.327 . S
C1093 C1109 1.429 . S
C1093 H1115 0.950 . S
C1094 H1090 0.941 1_565 S
C1094 C1102 1.574 1_565 S
C1094 C1110 1.368 . S
H1095 C1103 0.950 . S
H1096 C1101 0.950 1_565 S
H1097 C1102 0.949 . S
H1098 C1104 0.950 . S
H1099 C1105 0.950 . S
H1100 C1106 0.949 . S
C1101 H1096 0.950 1_545 S
C1101 C1103 1.327 . S
C1101 C1107 1.429 . S
C1102 C1094 1.574 1_545 S
C1102 H1097 0.949 . S
C1102 C1108 1.382 . S
C1103 C1087 1.349 . S
C1103 H1095 0.950 . S
C1103 C1101 1.327 . S
C1104 C1092 1.349 . S
C1104 H1098 0.950 . S
C1104 C1105 1.327 . S
C1105 H1099 0.950 . S
C1105 C1104 1.327 . S
C1105 C1109 1.429 . S
C1106 C1089 1.574 . S
C1106 H1100 0.949 . S
C1106 C1110 1.368 . S
C1107 C1088 1.429 . S
C1107 C1101 1.429 . S
C1107 C1108 1.538 . S
C1108 C1089 1.343 1_545 S
C1108 C1102 1.382 . S
C1108 C1107 1.538 . S
C1109 C1093 1.429 . S
C1109 C1105 1.429 . S
C1109 C1110 1.523 . S
C1110 C1094 1.368 . S
C1110 C1106 1.368 . S
C1110 C1109 1.523 . S
H1111 C1086 0.950 . S
H1112 C1088 0.950 . S
H1113 C1089 0.949 . S
H1114 C1091 0.950 . S
H1115 C1093 0.950 . S
C1116 C1117 1.349 . S
C1116 C1118 1.327 . S
C1116 H1141 0.950 . S
C1117 C1116 1.349 . S
C1117 C1133 1.349 . S
C1118 C1116 1.327 . S
C1118 C1137 1.429 . S
C1118 H1142 0.950 . S
C1119 C1136 1.574 . S
C1119 C1138 1.368 . S
C1119 H1143 0.949 . S
H1120 C1124 0.949 . S
C1121 C1122 1.349 . S
C1121 C1123 1.327 . S
C1121 H1144 0.950 . S
C1122 C1121 1.349 . S
C1122 C1134 1.349 . S
C1123 C1121 1.327 . S
C1123 C1139 1.429 . S
C1123 H1145 0.954 . S
C1124 H1120 0.949 . S
C1124 C1132 1.574 1_565 S
C1124 C1140 1.370 . S
H1125 C1133 0.950 . S
H1126 C1131 0.950 . S
H1127 C1132 0.949 . S
H1128 C1134 0.950 . S
H1129 C1135 0.950 . S
H1130 C1136 0.949 . S
C1131 H1126 0.950 . S
C1131 C1133 1.327 . S
C1131 C1137 1.429 . S
C1132 C1124 1.574 1_545 S
C1132 H1127 0.949 . S
C1132 C1138 1.368 . S
C1133 C1117 1.349 . S
C1133 H1125 0.950 . S
C1133 C1131 1.327 . S
C1134 C1122 1.349 . S
C1134 H1128 0.950 . S
C1134 C1135 1.327 . S
C1135 H1129 0.950 . S
C1135 C1134 1.327 . S
C1135 C1139 1.429 . S
C1136 C1119 1.574 . S
C1136 H1130 0.949 . S
C1136 C1140 1.364 1_545 S
C1137 C1118 1.429 . S
C1137 C1131 1.429 . S
C1137 C1138 1.523 . S
C1138 C1119 1.368 . S
C1138 C1132 1.368 . S
C1138 C1137 1.523 . S
C1139 C1123 1.429 . S
C1139 C1135 1.429 . S
C1139 C1140 1.526 . S
C1140 C1124 1.370 . S
C1140 C1136 1.364 1_565 S
C1140 C1139 1.526 . S
H1141 C1116 0.950 . S
H1142 C1118 0.950 . S
H1143 C1119 0.949 . S
H1144 C1121 0.950 . S
H1145 C1123 0.954 . S
C1146 C1147 1.349 . S
C1146 C1148 1.327 . S
C1146 H1171 0.950 . S
C1147 C1146 1.349 . S
C1147 C1163 1.349 . S
C1148 C1146 1.327 . S
C1148 C1167 1.429 . S
C1148 H1172 0.950 . S
C1149 C1166 1.574 . S
C1149 C1168 1.368 1_655 S
C1149 H1173 0.949 . S
H1150 C1154 0.949 . S
C1151 C1152 1.349 . S
C1151 C1153 1.327 . S
C1151 H1174 0.950 . S
C1152 C1151 1.349 . S
C1152 C1164 1.349 . S
C1153 C1151 1.327 . S
C1153 C1169 1.429 . S
C1153 H1175 0.950 . S
C1154 H1150 0.949 . S
C1154 C1162 1.574 . S
C1154 C1170 1.368 1_455 S
H1155 C1163 0.950 . S
H1156 C1161 0.950 1_655 S
H1157 C1162 0.949 . S
H1158 C1164 0.950 . S
H1159 C1165 0.950 . S
H1160 C1166 0.949 . S
C1161 H1156 0.950 1_455 S
C1161 C1163 1.327 . S
C1161 C1167 1.429 . S
C1162 C1154 1.574 . S
C1162 H1157 0.949 . S
C1162 C1168 1.368 . S
C1163 C1147 1.349 . S
C1163 H1155 0.950 . S
C1163 C1161 1.327 . S
C1164 C1152 1.349 . S
C1164 H1158 0.950 . S
C1164 C1165 1.327 . S
C1165 H1159 0.950 . S
C1165 C1164 1.327 . S
C1165 C1169 1.429 . S
C1166 C1149 1.574 . S
C1166 H1160 0.949 . S
C1166 C1170 1.368 . S
C1167 C1148 1.429 . S
C1167 C1161 1.429 . S
C1167 C1168 1.523 . S
C1168 C1149 1.368 1_455 S
C1168 C1162 1.368 . S
C1168 C1167 1.523 . S
C1169 C1153 1.429 . S
C1169 C1165 1.429 . S
C1169 C1170 1.523 . S
C1170 C1154 1.368 1_655 S
C1170 C1166 1.368 . S
C1170 C1169 1.523 . S
H1171 C1146 0.950 . S
H1172 C1148 0.950 . S
H1173 C1149 0.949 . S
H1174 C1151 0.950 . S
H1175 C1153 0.950 . S
C1176 C1177 1.349 . S
C1176 C1178 1.327 . S
C1176 H1201 0.950 . S
C1177 C1176 1.349 . S
C1177 C1193 1.349 . S
C1178 C1176 1.327 . S
C1178 C1197 1.429 . S
C1178 H1202 0.950 . S
C1179 C1196 1.574 . S
C1179 C1198 1.368 . S
C1179 H1203 0.949 . S
H1180 C1184 0.949 . S
C1181 C1182 1.349 . S
C1181 C1183 1.327 . S
C1181 H1204 0.950 . S
C1182 C1181 1.349 . S
C1182 C1194 1.349 . S
C1183 C1181 1.327 . S
C1183 C1199 1.429 . S
C1183 H1205 0.950 . S
C1184 H1180 0.949 . S
C1184 C1192 1.574 . S
C1184 C1200 1.368 . S
H1185 C1193 0.950 . S
H1186 C1191 0.928 1_565 S
H1187 C1192 0.949 1_545 S
H1188 C1194 0.950 . S
H1189 C1195 0.950 . S
H1190 C1196 0.949 . S
C1191 H1186 0.928 1_545 S
C1191 C1193 1.347 . S
C1191 C1197 1.432 . S
C1192 C1184 1.574 . S
C1192 H1187 0.949 1_565 S
C1192 C1198 1.368 . S
C1193 C1177 1.349 . S
C1193 H1185 0.950 . S
C1193 C1191 1.347 . S
C1194 C1182 1.349 . S
C1194 H1188 0.950 . S
C1194 C1195 1.327 . S
C1195 H1189 0.950 . S
C1195 C1194 1.327 . S
C1195 C1199 1.429 . S
C1196 C1179 1.574 . S
C1196 H1190 0.949 . S
C1196 C1200 1.368 . S
C1197 C1178 1.429 . S
C1197 C1191 1.432 . S
C1197 C1198 1.523 1_545 S
C1198 C1179 1.368 . S
C1198 C1192 1.368 . S
C1198 C1197 1.523 1_565 S
C1199 C1183 1.429 . S
C1199 C1195 1.429 . S
C1199 C1200 1.523 . S
C1200 C1184 1.368 . S
C1200 C1196 1.368 . S
C1200 C1199 1.523 . S
H1201 C1176 0.950 . S
H1202 C1178 0.950 . S
H1203 C1179 0.949 . S
H1204 C1181 0.950 . S
H1205 C1183 0.950 . S
C1206 C1207 1.349 . S
C1206 C1208 1.327 . S
C1206 H1231 0.950 . S
C1207 C1206 1.349 . S
C1207 C1223 1.349 . S
C1208 C1206 1.327 . S
C1208 C1227 1.429 . S
C1208 H1232 0.950 . S
C1209 C1226 1.574 . S
C1209 C1228 1.368 . S
C1209 H1233 0.949 . S
H1210 C1214 0.949 . S
C1211 C1212 1.349 . S
C1211 C1213 1.327 . S
C1211 H1234 0.950 . S
C1212 C1211 1.349 . S
C1212 C1224 1.349 . S
C1213 C1211 1.327 . S
C1213 C1229 1.429 . S
C1213 H1235 0.950 1_455 S
C1214 H1210 0.949 . S
C1214 C1222 1.574 . S
C1214 C1230 1.368 . S
H1215 C1223 0.950 . S
H1216 C1221 0.950 . S
H1217 C1222 0.949 . S
H1218 C1224 0.950 . S
H1219 C1225 0.950 . S
H1220 C1226 0.949 . S
C1221 H1216 0.950 . S
C1221 C1223 1.327 . S
C1221 C1227 1.429 . S
C1222 C1214 1.574 . S
C1222 H1217 0.949 . S
C1222 C1228 1.368 1_455 S
C1223 C1207 1.349 . S
C1223 H1215 0.950 . S
C1223 C1221 1.327 . S
C1224 C1212 1.349 . S
C1224 H1218 0.950 . S
C1224 C1225 1.327 . S
C1225 H1219 0.950 . S
C1225 C1224 1.327 . S
C1225 C1229 1.429 . S
C1226 C1209 1.574 . S
C1226 H1220 0.949 . S
C1226 C1230 1.368 1_655 S
C1227 C1208 1.429 . S
C1227 C1221 1.429 . S
C1227 C1228 1.523 . S
C1228 C1209 1.368 . S
C1228 C1222 1.368 1_655 S
C1228 C1227 1.523 . S
C1229 C1213 1.429 . S
C1229 C1225 1.429 . S
C1229 C1230 1.523 . S
C1230 C1214 1.368 . S
C1230 C1226 1.368 1_455 S
C1230 C1229 1.523 . S
H1231 C1206 0.950 . S
H1232 C1208 0.950 . S
H1233 C1209 0.949 . S
H1234 C1211 0.950 . S
H1235 C1213 0.950 1_655 S
C1236 C1237 1.349 . S
C1236 C1238 1.327 . S
C1236 H1261 0.950 . S
C1237 C1236 1.349 . S
C1237 C1253 1.349 . S
C1238 C1236 1.327 . S
C1238 C1257 1.429 . S
C1238 H1262 0.950 . S
C1239 C1256 1.574 . S
C1239 C1258 1.368 1_556 S
C1239 H1263 0.949 . S
H1240 C1244 0.949 . S
C1241 C1242 1.349 . S
C1241 C1243 1.327 . S
C1241 H1264 0.950 . S
C1242 C1241 1.349 . S
C1242 C1254 1.349 . S
C1243 C1241 1.327 . S
C1243 C1259 1.429 . S
C1243 H1265 0.950 . S
C1244 H1240 0.949 . S
C1244 C1252 1.574 . S
C1244 C1260 1.368 1_554 S
H1245 C1253 0.950 . S
H1246 C1251 0.950 . S
H1247 C1252 0.949 . S
H1248 C1254 0.950 . S
H1249 C1255 0.950 . S
H1250 C1256 0.949 . S
C1251 H1246 0.950 . S
C1251 C1253 1.327 . S
C1251 C1257 1.429 . S
C1252 C1244 1.574 . S
C1252 H1247 0.949 . S
C1252 C1258 1.368 . S
C1253 C1237 1.349 . S
C1253 H1245 0.950 . S
C1253 C1251 1.327 . S
C1254 C1242 1.349 . S
C1254 H1248 0.950 . S
C1254 C1255 1.327 . S
C1255 H1249 0.950 . S
C1255 C1254 1.327 . S
C1255 C1259 1.429 . S
C1256 C1239 1.574 . S
C1256 H1250 0.949 . S
C1256 C1260 1.368 . S
C1257 C1238 1.429 . S
C1257 C1251 1.429 . S
C1257 C1258 1.523 . S
C1258 C1239 1.368 1_554 S
C1258 C1252 1.368 . S
C1258 C1257 1.523 . S
C1259 C1243 1.429 . S
C1259 C1255 1.429 . S
C1259 C1260 1.523 . S
C1260 C1244 1.368 1_556 S
C1260 C1256 1.368 . S
C1260 C1259 1.523 . S
H1261 C1236 0.950 . S
H1262 C1238 0.950 . S
H1263 C1239 0.949 . S
H1264 C1241 0.950 . S
H1265 C1243 0.950 . S
C1266 C1267 1.349 . S
C1266 C1268 1.327 . S
C1266 H1291 0.950 . S
C1267 C1266 1.349 . S
C1267 C1283 1.349 . S
C1268 C1266 1.327 . S
C1268 C1287 1.429 . S
C1268 H1292 0.950 . S
C1269 C1286 1.574 . S
C1269 C1288 1.368 1_554 S
C1269 H1293 0.949 . S
H1270 C1274 0.949 . S
C1271 C1272 1.349 . S
C1271 C1273 1.327 . S
C1271 H1294 0.950 . S
C1272 C1271 1.349 . S
C1272 C1284 1.349 . S
C1273 C1271 1.327 . S
C1273 C1289 1.429 . S
C1273 H1295 0.950 . S
C1274 H1270 0.949 . S
C1274 C1282 1.574 . S
C1274 C1290 1.368 1_556 S
H1275 C1283 0.950 . S
H1276 C1281 0.950 1_554 S
H1277 C1282 0.949 . S
H1278 C1284 0.950 . S
H1279 C1285 0.950 . S
H1280 C1286 0.949 . S
C1281 H1276 0.950 1_556 S
C1281 C1283 1.327 . S
C1281 C1287 1.429 . S
C1282 C1274 1.574 . S
C1282 H1277 0.949 . S
C1282 C1288 1.368 . S
C1283 C1267 1.349 . S
C1283 H1275 0.950 . S
C1283 C1281 1.327 . S
C1284 C1272 1.349 . S
C1284 H1278 0.950 . S
C1284 C1285 1.327 . S
C1285 H1279 0.950 . S
C1285 C1284 1.327 . S
C1285 C1289 1.429 . S
C1286 C1269 1.574 . S
C1286 H1280 0.949 . S
C1286 C1290 1.368 . S
C1287 C1268 1.429 . S
C1287 C1281 1.429 . S
C1287 C1288 1.523 . S
C1288 C1269 1.368 1_556 S
C1288 C1282 1.368 . S
C1288 C1287 1.523 . S
C1289 C1273 1.429 . S
C1289 C1285 1.429 . S
C1289 C1290 1.523 . S
C1290 C1274 1.368 1_554 S
C1290 C1286 1.368 . S
C1290 C1289 1.523 . S
H1291 C1266 0.950 . S
H1292 C1268 0.950 . S
H1293 C1269 0.949 . S
H1294 C1271 0.950 . S
H1295 C1273 0.950 . S
C1296 C1297 1.349 . S
C1296 C1298 1.327 . S
C1296 H1321 0.950 . S
C1297 C1296 1.349 . S
C1297 C1313 1.349 . S
C1298 C1296 1.327 . S
C1298 C1317 1.429 . S
C1298 H1322 0.950 . S
C1299 C1316 1.574 1_556 S
C1299 C1318 1.368 . S
C1299 H1323 0.949 . S
H1300 C1304 0.949 . S
C1301 C1302 1.349 . S
C1301 C1303 1.327 . S
C1301 H1324 0.950 . S
C1302 C1301 1.349 . S
C1302 C1314 1.349 . S
C1303 C1301 1.327 . S
C1303 C1319 1.429 . S
C1303 H1325 0.950 . S
C1304 H1300 0.949 . S
C1304 C1312 1.574 1_554 S
C1304 C1320 1.368 . S
H1305 C1313 0.950 . S
H1306 C1311 0.950 . S
H1307 C1312 0.949 . S
H1308 C1314 0.950 . S
H1309 C1315 0.950 . S
H1310 C1316 0.949 . S
C1311 H1306 0.950 . S
C1311 C1313 1.327 . S
C1311 C1317 1.429 . S
C1312 C1304 1.574 1_556 S
C1312 H1307 0.949 . S
C1312 C1318 1.368 . S
C1313 C1297 1.349 . S
C1313 H1305 0.950 . S
C1313 C1311 1.327 . S
C1314 C1302 1.349 . S
C1314 H1308 0.950 . S
C1314 C1315 1.327 . S
C1315 H1309 0.950 . S
C1315 C1314 1.327 . S
C1315 C1319 1.429 . S
C1316 C1299 1.574 1_554 S
C1316 H1310 0.949 . S
C1316 C1320 1.368 . S
C1317 C1298 1.429 . S
C1317 C1311 1.429 . S
C1317 C1318 1.523 . S
C1318 C1299 1.368 . S
C1318 C1312 1.368 . S
C1318 C1317 1.523 . S
C1319 C1303 1.429 . S
C1319 C1315 1.429 . S
C1319 C1320 1.523 . S
C1320 C1304 1.368 . S
C1320 C1316 1.368 . S
C1320 C1319 1.523 . S
H1321 C1296 0.950 . S
H1322 C1298 0.950 . S
H1323 C1299 0.949 . S
H1324 C1301 0.950 . S
H1325 C1303 0.950 . S
C1326 C1327 1.349 . S
C1326 C1328 1.327 1_554 S
C1326 H1351 0.950 . S
C1327 C1326 1.349 . S
C1327 C1343 1.349 . S
C1328 C1326 1.327 1_556 S
C1328 C1347 1.429 1_556 S
C1328 H1352 0.950 . S
C1329 C1346 1.574 . S
C1329 C1348 1.368 . S
C1329 H1353 0.949 1_556 S
H1330 C1334 0.949 . S
C1331 C1332 1.349 . S
C1331 C1333 1.327 . S
C1331 H1354 0.950 . S
C1332 C1331 1.349 . S
C1332 C1344 1.349 . S
C1333 C1331 1.327 . S
C1333 C1349 1.429 . S
C1333 H1355 0.950 . S
C1334 H1330 0.949 . S
C1334 C1342 1.574 . S
C1334 C1350 1.368 . S
H1335 C1343 0.950 . S
H1336 C1341 0.950 . S
H1337 C1342 0.949 . S
H1338 C1344 0.950 . S
H1339 C1345 0.950 . S
H1340 C1346 0.949 . S
C1341 H1336 0.950 . S
C1341 C1343 1.327 . S
C1341 C1347 1.429 . S
C1342 C1334 1.574 . S
C1342 H1337 0.949 . S
C1342 C1348 1.368 . S
C1343 C1327 1.349 . S
C1343 H1335 0.950 . S
C1343 C1341 1.327 . S
C1344 C1332 1.349 . S
C1344 H1338 0.950 . S
C1344 C1345 1.327 . S
C1345 H1339 0.950 . S
C1345 C1344 1.327 . S
C1345 C1349 1.429 . S
C1346 C1329 1.574 . S
C1346 H1340 0.949 . S
C1346 C1350 1.368 . S
C1347 C1328 1.429 1_554 S
C1347 C1341 1.429 . S
C1347 C1348 1.523 1_554 S
C1348 C1329 1.368 . S
C1348 C1342 1.368 . S
C1348 C1347 1.523 1_556 S
C1349 C1333 1.429 . S
C1349 C1345 1.429 . S
C1349 C1350 1.523 . S
C1350 C1334 1.368 . S
C1350 C1346 1.368 . S
C1350 C1349 1.523 . S
H1351 C1326 0.950 . S
H1352 C1328 0.950 . S
H1353 C1329 0.949 1_554 S
H1354 C1331 0.950 . S
H1355 C1333 0.950 . S
C637 C22 1.352 . S
C642 C409 1.357 . S
C667 C91 1.359 . S
C672 C241 1.352 . S
C697 C287 1.423 . S
C702 C145 1.420 . S
C727 C347 1.193 . S
C732 C188 1.195 . S
C757 C462 1.385 . S
C762 C400 1.377 . S
C787 C506 1.414 . S
C792 C250 1.417 . S
C817 C569 1.611 . S
C822 C304 1.610 . S
C847 C622 1.591 . S
C852 C356 1.588 . S
C877 C82 1.343 . S
C882 C515 1.349 . S
C907 C552 1.106 . S
C912 C128 1.104 . S
C937 C197 1.361 . S
C942 C605 1.364 . S
C967 C453 1.381 . S
C972 C39 1.382 . S
C997 C357 1.802 . S
C1002 C38 1.805 . S
C1027 C393 1.464 . S
C1032 C75 1.465 . S
C1057 C251 1.701 . S
C1062 C135 1.706 . S
C1087 C198 1.698 . S
C1092 C303 1.693 . S
C1117 C410 1.747 . S
C1122 C294 1.749 . S
C1147 C234 1.581 . S
C1152 C340 1.581 . S
C1177 C181 1.705 . S
C1182 C92 1.705 . S
C1207 C144 1.638 . S
C1212 C29 1.638 . S
C1237 C463 1.776 . S
C1242 C516 1.777 . S
C1267 C499 1.501 . S
C1272 C559 1.499 . S
C1297 C612 1.626 . S
C1302 C568 1.626 . S
C1327 C446 1.607 . S
C1332 C621 1.604 . S
