# Generated by pormake.
# Topology uop, (4)-cn, num edge types: 1
# Building blocks:
#     Node 0, Type 0, BuildingBlock: QUQFOY_clean_sbu_1, # of connection points: 4
#     Node 1, Type 0, BuildingBlock: QUQFOY_clean_sbu_1, # of connection points: 4
#     Node 2, Type 0, BuildingBlock: QUQFOY_clean_sbu_1, # of connection points: 4
#     Node 3, Type 0, BuildingBlock: QUQFOY_clean_sbu_1, # of connection points: 4
#     Node 4, Type 0, BuildingBlock: QUQFOY_clean_sbu_1, # of connection points: 4
#     Node 5, Type 0, BuildingBlock: QUQFOY_clean_sbu_1, # of connection points: 4
#     Node 6, Type 0, BuildingBlock: QUQFOY_clean_sbu_1, # of connection points: 4
#     Node 7, Type 0, BuildingBlock: QUQFOY_clean_sbu_1, # of connection points: 4
#     Node 8, Type 0, BuildingBlock: QUQFOY_clean_sbu_1, # of connection points: 4
#     Node 9, Type 0, BuildingBlock: QUQFOY_clean_sbu_1, # of connection points: 4
#     Node 10, Type 0, BuildingBlock: QUQFOY_clean_sbu_1, # of connection points: 4
#     Node 11, Type 0, BuildingBlock: QUQFOY_clean_sbu_1, # of connection points: 4
#     Edge 12, Type (0, 0), BuildingBlock: XIVTED_clean_linker_0, # of connection points: 2
#     Edge 13, Type (0, 0), BuildingBlock: XIVTED_clean_linker_0, # of connection points: 2
#     Edge 14, Type (0, 0), BuildingBlock: XIVTED_clean_linker_0, # of connection points: 2
#     Edge 15, Type (0, 0), BuildingBlock: XIVTED_clean_linker_0, # of connection points: 2
#     Edge 16, Type (0, 0), BuildingBlock: XIVTED_clean_linker_0, # of connection points: 2
#     Edge 17, Type (0, 0), BuildingBlock: XIVTED_clean_linker_0, # of connection points: 2
#     Edge 18, Type (0, 0), BuildingBlock: XIVTED_clean_linker_0, # of connection points: 2
#     Edge 19, Type (0, 0), BuildingBlock: XIVTED_clean_linker_0, # of connection points: 2
#     Edge 20, Type (0, 0), BuildingBlock: XIVTED_clean_linker_0, # of connection points: 2
#     Edge 21, Type (0, 0), BuildingBlock: XIVTED_clean_linker_0, # of connection points: 2
#     Edge 22, Type (0, 0), BuildingBlock: XIVTED_clean_linker_0, # of connection points: 2
#     Edge 23, Type (0, 0), BuildingBlock: XIVTED_clean_linker_0, # of connection points: 2
#     Edge 24, Type (0, 0), BuildingBlock: XIVTED_clean_linker_0, # of connection points: 2
#     Edge 25, Type (0, 0), BuildingBlock: XIVTED_clean_linker_0, # of connection points: 2
#     Edge 26, Type (0, 0), BuildingBlock: XIVTED_clean_linker_0, # of connection points: 2
#     Edge 27, Type (0, 0), BuildingBlock: XIVTED_clean_linker_0, # of connection points: 2
#     Edge 28, Type (0, 0), BuildingBlock: XIVTED_clean_linker_0, # of connection points: 2
#     Edge 29, Type (0, 0), BuildingBlock: XIVTED_clean_linker_0, # of connection points: 2
#     Edge 30, Type (0, 0), BuildingBlock: XIVTED_clean_linker_0, # of connection points: 2
#     Edge 31, Type (0, 0), BuildingBlock: XIVTED_clean_linker_0, # of connection points: 2
#     Edge 32, Type (0, 0), BuildingBlock: XIVTED_clean_linker_0, # of connection points: 2
#     Edge 33, Type (0, 0), BuildingBlock: XIVTED_clean_linker_0, # of connection points: 2
#     Edge 34, Type (0, 0), BuildingBlock: XIVTED_clean_linker_0, # of connection points: 2
#     Edge 35, Type (0, 0), BuildingBlock: XIVTED_clean_linker_0, # of connection points: 2
# Relax obj value: 0.098
# Max RMSD: 0.122
# Mean RMSD: 0.122
data_MOF--net-uop--node1-QUQFOY_clean_sbu_1--edge1-XIVTED_clean_linker_0
_symmetry_space_group_name_H-M    P1
_symmetry_Int_Tables_number       1
_symmetry_cell_setting            triclinic
loop_
_symmetry_equiv_pos_as_xyz
'x, y, z'
_cell_length_a     33.073289
_cell_length_b     33.059258
_cell_length_c     52.077413
_cell_angle_alpha  89.951929
_cell_angle_beta   90.026093
_cell_angle_gamma 119.93037
loop_
_atom_site_label
_atom_site_type_symbol
_atom_site_fract_x
_atom_site_fract_y
_atom_site_fract_z
_atom_type_partial_charge
O0 O 0.21153 0.43192 0.22594 0.0
Cd1 Cd 0.22564 0.37855 0.23179 0.0
Cd2 Cd 0.25247 0.42118 0.27571 0.0
O3 O 0.21166 0.4509 0.26647 0.0
O4 O 0.1875 0.33063 0.20552 0.0
O5 O 0.17478 0.31963 0.24734 0.0
C6 C 0.162 0.30477 0.22417 0.0
C7 C 0.24966 0.3758 0.31092 0.0
C8 C 0.2041 0.45511 0.24288 0.0
C9 C 0.32629 0.43273 0.23944 0.0
O10 O 0.31574 0.45195 0.25731 0.0
O11 O 0.29473 0.39612 0.22851 0.0
O12 O 0.26428 0.41987 0.31351 0.0
O13 O 0.23286 0.35686 0.28889 0.0
O14 O 0.77218 0.21784 0.55869 0.0
Cd15 Cd 0.83975 0.23154 0.56439 0.0
Cd16 Cd 0.82608 0.26407 0.6068 0.0
O17 O 0.75526 0.22387 0.59891 0.0
O18 O 0.84802 0.19056 0.53956 0.0
O19 O 0.84791 0.18191 0.58173 0.0
C20 C 0.84928 0.16699 0.55899 0.0
C21 C 0.86691 0.26845 0.64446 0.0
C22 C 0.74245 0.21322 0.57562 0.0
C23 C 0.88853 0.33251 0.56788 0.0
O24 O 0.8593 0.32451 0.58569 0.0
O25 O 0.89251 0.2993 0.55838 0.0
O26 O 0.83987 0.28616 0.64321 0.0
O27 O 0.86735 0.24428 0.62506 0.0
O28 O 0.55583 0.77543 0.89069 0.0
Cd29 Cd 0.61006 0.84293 0.89596 0.0
Cd30 Cd 0.56396 0.83046 0.93811 0.0
O31 O 0.53316 0.7594 0.931 0.0
O32 O 0.6596 0.84985 0.87176 0.0
O33 O 0.6672 0.8512 0.91405 0.0
C34 C 0.68387 0.85153 0.89155 0.0
C35 C 0.59878 0.87218 0.9758 0.0
C36 C 0.53063 0.74613 0.90778 0.0
C37 C 0.55783 0.89141 0.89807 0.0
O38 O 0.53673 0.86266 0.9161 0.0
O39 O 0.59536 0.89569 0.88894 0.0
O40 O 0.5542 0.84486 0.97412 0.0
O41 O 0.62419 0.87247 0.95686 0.0
O42 O 0.7772 0.56126 0.22515 0.0
Cd43 Cd 0.76583 0.61644 0.23209 0.0
Cd44 Cd 0.7345 0.56953 0.27408 0.0
O45 O 0.77346 0.53796 0.26515 0.0
O46 O 0.80749 0.66615 0.20765 0.0
O47 O 0.81678 0.67249 0.24985 0.0
C48 C 0.83179 0.68953 0.22724 0.0
C49 C 0.73047 0.60487 0.31223 0.0
C50 C 0.78223 0.53554 0.24155 0.0
C51 C 0.66546 0.56597 0.23647 0.0
O52 O 0.67385 0.54348 0.25336 0.0
O53 O 0.69845 0.60367 0.22734 0.0
O54 O 0.71283 0.5602 0.31058 0.0
O55 O 0.75459 0.63003 0.29297 0.0
O56 O 0.22109 0.78085 0.56347 0.0
Cd57 Cd 0.15412 0.76903 0.56938 0.0
Cd58 Cd 0.16597 0.73296 0.61085 0.0
O59 O 0.23701 0.77183 0.60344 0.0
O60 O 0.14721 0.81153 0.545 0.0
O61 O 0.14739 0.81917 0.58724 0.0
C62 C 0.14629 0.8348 0.56464 0.0
C63 C 0.12504 0.7267 0.64875 0.0
C64 C 0.25022 0.78337 0.58027 0.0
C65 C 0.10303 0.66795 0.571 0.0
O66 O 0.13203 0.67409 0.58862 0.0
O67 O 0.09998 0.70229 0.56242 0.0
O68 O 0.15147 0.70839 0.64677 0.0
O69 O 0.12536 0.75254 0.63 0.0
O70 O 0.43388 0.21743 0.89348 0.0
Cd71 Cd 0.37965 0.14981 0.89836 0.0
Cd72 Cd 0.42552 0.16158 0.94071 0.0
O73 O 0.45665 0.23277 0.9338 0.0
O74 O 0.33117 0.14342 0.8735 0.0
O75 O 0.32161 0.14097 0.91567 0.0
C76 C 0.30597 0.14117 0.89294 0.0
C77 C 0.39086 0.11982 0.97846 0.0
C78 C 0.45915 0.24642 0.91066 0.0
C79 C 0.43192 0.10128 0.90032 0.0
O80 O 0.45268 0.12945 0.91862 0.0
O81 O 0.39462 0.09736 0.89105 0.0
O82 O 0.43545 0.14697 0.97666 0.0
O83 O 0.36536 0.11968 0.95959 0.0
O84 O 0.56018 0.77968 0.5323 0.0
Cd85 Cd 0.61567 0.76851 0.52598 0.0
Cd86 Cd 0.57009 0.73759 0.48364 0.0
O87 O 0.53856 0.77678 0.49201 0.0
O88 O 0.66473 0.80995 0.55077 0.0
O89 O 0.67205 0.81976 0.50861 0.0
C90 C 0.68855 0.83451 0.53133 0.0
C91 C 0.60635 0.73335 0.44592 0.0
C92 C 0.53519 0.7851 0.51558 0.0
C93 C 0.56525 0.66827 0.52144 0.0
O94 O 0.54316 0.67693 0.50443 0.0
O95 O 0.60292 0.70107 0.53069 0.0
O96 O 0.56166 0.71573 0.4472 0.0
O97 O 0.63102 0.75757 0.46528 0.0
O98 O 0.77356 0.55656 0.86643 0.0
Cd99 Cd 0.84111 0.61077 0.86136 0.0
Cd100 Cd 0.82884 0.56508 0.81902 0.0
O101 O 0.75776 0.53404 0.82609 0.0
O102 O 0.84795 0.66003 0.88578 0.0
O103 O 0.84968 0.66828 0.84352 0.0
C104 C 0.84988 0.68464 0.86608 0.0
C105 C 0.87088 0.60122 0.78161 0.0
C106 C 0.74437 0.53143 0.84929 0.0
C107 C 0.88963 0.55851 0.85899 0.0
O108 O 0.8611 0.53769 0.84084 0.0
O109 O 0.89372 0.59584 0.86833 0.0
O110 O 0.84389 0.55652 0.78291 0.0
O111 O 0.87064 0.62595 0.80077 0.0
O112 O 0.21451 0.77328 0.19846 0.0
Cd113 Cd 0.22827 0.84087 0.1926 0.0
Cd114 Cd 0.26105 0.82687 0.15035 0.0
O115 O 0.2211 0.75604 0.15838 0.0
O116 O 0.18709 0.84903 0.21734 0.0
O117 O 0.17883 0.84919 0.17515 0.0
C118 C 0.16369 0.85039 0.19785 0.0
C119 C 0.26547 0.86757 0.11261 0.0
C120 C 0.21021 0.74343 0.18168 0.0
C121 C 0.32922 0.88962 0.18929 0.0
O122 O 0.32133 0.86034 0.17153 0.0
O123 O 0.29598 0.89363 0.19871 0.0
O124 O 0.28329 0.84063 0.11395 0.0
O125 O 0.24116 0.86795 0.13195 0.0
O126 O 0.43254 0.21422 0.52958 0.0
Cd127 Cd 0.37942 0.22877 0.52414 0.0
Cd128 Cd 0.42058 0.2543 0.47981 0.0
O129 O 0.44989 0.21305 0.48887 0.0
O130 O 0.33222 0.19153 0.55092 0.0
O131 O 0.31992 0.17777 0.50924 0.0
C132 C 0.30575 0.16562 0.53257 0.0
C133 C 0.3746 0.25145 0.44491 0.0
C134 C 0.45489 0.20604 0.51245 0.0
C135 C 0.43429 0.32919 0.51589 0.0
O136 O 0.45258 0.31796 0.49783 0.0
O137 O 0.39785 0.29813 0.5272 0.0
O138 O 0.41847 0.26553 0.442 0.0
O139 O 0.35612 0.23521 0.46712 0.0
O140 O 0.21664 0.4358 0.86339 0.0
Cd141 Cd 0.14908 0.3815 0.85845 0.0
Cd142 Cd 0.16078 0.42783 0.81627 0.0
O143 O 0.23193 0.45896 0.82312 0.0
O144 O 0.14271 0.33284 0.88321 0.0
O145 O 0.14036 0.32357 0.84102 0.0
C146 C 0.1405 0.30776 0.86372 0.0
C147 C 0.11906 0.39341 0.77851 0.0
C148 C 0.24559 0.46127 0.84624 0.0
C149 C 0.10033 0.4336 0.85675 0.0
O150 O 0.12857 0.45469 0.83852 0.0
O151 O 0.09649 0.39621 0.86586 0.0
O152 O 0.14613 0.43802 0.78038 0.0
O153 O 0.11898 0.36777 0.79729 0.0
O154 O 0.77823 0.22083 0.1942 0.0
Cd155 Cd 0.76585 0.15374 0.18798 0.0
Cd156 Cd 0.7302 0.16668 0.14665 0.0
O157 O 0.76903 0.23763 0.15444 0.0
O158 O 0.80846 0.14637 0.21205 0.0
O159 O 0.81546 0.14667 0.16977 0.0
C160 C 0.83139 0.14544 0.19224 0.0
C161 C 0.72506 0.12588 0.1089 0.0
C162 C 0.78077 0.25035 0.17765 0.0
C163 C 0.66476 0.10324 0.1863 0.0
O164 O 0.67115 0.13241 0.1687 0.0
O165 O 0.69891 0.09993 0.19492 0.0
O166 O 0.70638 0.15203 0.11058 0.0
O167 O 0.75059 0.12644 0.12786 0.0
H168 H 0.18771 0.70734 0.23026 0.0
H169 H 0.18457 0.47084 0.19409 0.0
H170 H 0.20372 0.67028 0.15297 0.0
H171 H 0.19702 0.52134 0.27175 0.0
H172 H 0.17684 0.53638 0.17887 0.0
H173 H 0.17664 0.63267 0.24543 0.0
C174 C 0.18836 0.68332 0.21636 0.0
C175 C 0.19717 0.69551 0.19025 0.0
C176 C 0.18081 0.53293 0.19926 0.0
C177 C 0.18456 0.60961 0.20769 0.0
C178 C 0.18509 0.49535 0.20805 0.0
C179 C 0.19201 0.49069 0.2343 0.0
C180 C 0.18333 0.5663 0.21678 0.0
C181 C 0.19199 0.52354 0.25137 0.0
C182 C 0.18214 0.64066 0.22512 0.0
C183 C 0.1973 0.66262 0.17325 0.0
N184 N 0.18816 0.56016 0.24229 0.0
N185 N 0.19146 0.62136 0.1823 0.0
H186 H 0.66917 0.20458 0.60499 0.0
H187 H 0.5194 0.1973 0.48291 0.0
H188 H 0.70632 0.19271 0.52702 0.0
H189 H 0.47258 0.18821 0.56118 0.0
H190 H 0.5851 0.18951 0.49853 0.0
H191 H 0.59418 0.19283 0.58943 0.0
C192 C 0.6614 0.19893 0.58467 0.0
C193 C 0.69442 0.2001 0.56731 0.0
C194 C 0.56009 0.18864 0.51225 0.0
C195 C 0.60875 0.18714 0.54927 0.0
C196 C 0.52245 0.19294 0.50331 0.0
C197 C 0.49058 0.19393 0.52073 0.0
C198 C 0.56611 0.18566 0.53881 0.0
C199 C 0.49644 0.18813 0.54699 0.0
C200 C 0.61855 0.19227 0.57576 0.0
C201 C 0.68222 0.19247 0.54115 0.0
N202 N 0.53368 0.18482 0.55521 0.0
N203 N 0.64071 0.18686 0.53293 0.0
H204 H 0.46563 0.67377 0.93754 0.0
H205 H 0.31724 0.52701 0.81641 0.0
H206 H 0.51333 0.70962 0.85926 0.0
H207 H 0.28296 0.47789 0.89456 0.0
H208 H 0.39148 0.59193 0.83156 0.0
H209 H 0.40071 0.59961 0.92229 0.0
C210 C 0.46288 0.66586 0.91722 0.0
C211 C 0.49488 0.69831 0.89969 0.0
C212 C 0.36792 0.5666 0.84534 0.0
C213 C 0.42022 0.61367 0.88202 0.0
C214 C 0.32552 0.52945 0.83667 0.0
C215 C 0.29348 0.49705 0.85421 0.0
C216 C 0.37822 0.5717 0.87177 0.0
C217 C 0.30628 0.50211 0.88029 0.0
C218 C 0.42573 0.62351 0.90849 0.0
C219 C 0.48943 0.68597 0.87353 0.0
N220 N 0.34728 0.53894 0.88828 0.0
N221 N 0.4526 0.645 0.8655 0.0
H222 H 0.79923 0.51988 0.19218 0.0
H223 H 0.80383 0.28626 0.22622 0.0
H224 H 0.7899 0.46869 0.2695 0.0
H225 H 0.78358 0.3225 0.14949 0.0
H226 H 0.81263 0.35972 0.24188 0.0
H227 H 0.80734 0.45499 0.1762 0.0
C228 C 0.79942 0.49533 0.2059 0.0
C229 C 0.79341 0.49968 0.2323 0.0
C230 C 0.80667 0.35182 0.22159 0.0
C231 C 0.80262 0.42488 0.21391 0.0
C232 C 0.80178 0.30987 0.21254 0.0
C233 C 0.79249 0.29778 0.18645 0.0
C234 C 0.80246 0.38229 0.20447 0.0
C235 C 0.79047 0.33011 0.16975 0.0
C236 C 0.80392 0.45813 0.19668 0.0
C237 C 0.79421 0.46673 0.24902 0.0
N238 N 0.79508 0.37071 0.17908 0.0
N239 N 0.79838 0.43058 0.23953 0.0
H240 H 0.47023 0.7942 0.48668 0.0
H241 H 0.32197 0.78767 0.60937 0.0
H242 H 0.51677 0.80015 0.56477 0.0
H243 H 0.28668 0.80425 0.53173 0.0
H244 H 0.39576 0.79664 0.59359 0.0
H245 H 0.40504 0.80235 0.50275 0.0
C246 C 0.46715 0.79781 0.50715 0.0
C247 C 0.49896 0.7961 0.52436 0.0
C248 C 0.37207 0.79882 0.58005 0.0
C249 C 0.424 0.80486 0.54295 0.0
C250 C 0.32992 0.79378 0.58908 0.0
C251 C 0.29775 0.79482 0.57188 0.0
C252 C 0.38203 0.80455 0.55359 0.0
C253 C 0.31014 0.80288 0.54575 0.0
C254 C 0.42984 0.80237 0.51634 0.0
C255 C 0.49306 0.80096 0.55072 0.0
N256 N 0.35094 0.80692 0.53741 0.0
N257 N 0.45613 0.80461 0.55919 0.0
H258 H 0.52469 0.31811 0.94052 0.0
H259 H 0.67222 0.46638 0.81948 0.0
H260 H 0.47606 0.28377 0.86232 0.0
H261 H 0.70757 0.51417 0.89775 0.0
H262 H 0.59796 0.40148 0.83466 0.0
H263 H 0.5897 0.39236 0.92539 0.0
C264 C 0.52725 0.32638 0.92025 0.0
C265 C 0.49497 0.29432 0.9027 0.0
C266 C 0.62177 0.42652 0.84847 0.0
C267 C 0.56973 0.37905 0.88516 0.0
C268 C 0.66418 0.46366 0.83978 0.0
C269 C 0.69651 0.49567 0.85733 0.0
C270 C 0.61176 0.42105 0.87493 0.0
C271 C 0.684 0.49026 0.88346 0.0
C272 C 0.56446 0.36878 0.91159 0.0
C273 C 0.50018 0.30711 0.87661 0.0
N274 N 0.64299 0.45344 0.89146 0.0
N275 N 0.53707 0.34811 0.86863 0.0
H276 H 0.62305 0.61587 0.22285 0.0
H277 H 0.3692 0.38909 0.21706 0.0
H278 H 0.59767 0.47545 0.23238 0.0
H279 H 0.39503 0.52316 0.24438 0.0
H280 H 0.45308 0.4232 0.20882 0.0
H281 H 0.53881 0.58425 0.21668 0.0
C282 C 0.59985 0.57843 0.22306 0.0
C283 C 0.61688 0.54814 0.22847 0.0
C284 C 0.4401 0.44515 0.21629 0.0
C285 C 0.52155 0.51206 0.22125 0.0
C286 C 0.39242 0.42579 0.22095 0.0
C287 C 0.37549 0.45323 0.23181 0.0
C288 C 0.47061 0.49232 0.22211 0.0
C289 C 0.40691 0.50064 0.23643 0.0
C290 C 0.55199 0.56048 0.21967 0.0
C291 C 0.5856 0.49991 0.22863 0.0
N292 N 0.45307 0.5187 0.23166 0.0
N293 N 0.53932 0.4833 0.22522 0.0
H294 H 0.01377 0.63021 0.55273 0.0
H295 H 0.97678 0.37209 0.54791 0.0
H296 H 0.12261 0.59761 0.56793 0.0
H297 H 0.86869 0.40292 0.56861 0.0
H298 H 0.02993 0.45568 0.54032 0.0
H299 H 0.95994 0.54726 0.54365 0.0
C300 C 0.02651 0.60576 0.5536 0.0
C301 C 0.07227 0.62033 0.56149 0.0
C302 C 0.99428 0.44385 0.54607 0.0
C303 C 0.01161 0.52638 0.55093 0.0
C304 C 0.96402 0.39633 0.55033 0.0
C305 C 0.91871 0.38095 0.55932 0.0
C306 C 0.97866 0.47573 0.55046 0.0
C307 C 0.90372 0.41363 0.56213 0.0
C308 C -0.00412 0.55861 0.54852 0.0
C309 C 0.08725 0.58745 0.56234 0.0
N310 N 0.93376 0.4596 0.55789 0.0
N311 N 0.05689 0.54188 0.5573 0.0
H312 H 0.523 0.12476 0.89903 0.0
H313 H 0.46677 0.86773 0.89583 0.0
H314 H 0.38508 0.01313 0.88002 0.0
H315 H 0.60535 0.98089 0.87961 0.0
H316 H 0.43567 0.91961 0.88736 0.0
H317 H 0.55438 0.07356 0.88935 0.0
C318 C 0.49943 0.08955 0.89247 0.0
C319 C 0.45133 0.07274 0.89069 0.0
C320 C 0.47276 0.93292 0.88512 0.0
C321 C 0.48685 0.01393 0.87993 0.0
C322 C 0.49054 0.90343 0.8901 0.0
C323 C 0.53871 0.92044 0.88878 0.0
C324 C 0.50354 0.98002 0.87946 0.0
C325 C 0.568 0.96666 0.88097 0.0
C326 C 0.5174 0.06048 0.88678 0.0
C327 C 0.42235 0.02719 0.88178 0.0
N328 N 0.55005 0.99529 0.87715 0.0
N329 N 0.44045 -0.00111 0.87726 0.0
H330 H 0.47464 0.60172 0.52678 0.0
H331 H 0.52461 0.39722 0.50924 0.0
H332 H 0.61442 0.6243 0.53322 0.0
H333 H 0.39314 0.37329 0.53974 0.0
H334 H 0.55867 0.48039 0.51827 0.0
H335 H 0.44374 0.51805 0.53248 0.0
C336 C 0.49876 0.58897 0.52982 0.0
C337 C 0.54706 0.61958 0.52931 0.0
C338 C 0.52259 0.45686 0.52336 0.0
C339 C 0.51212 0.52416 0.53529 0.0
C340 C 0.503 0.4095 0.51801 0.0
C341 C 0.45582 0.37856 0.52343 0.0
C342 C 0.4945 0.4735 0.53367 0.0
C343 C 0.42957 0.39611 0.53512 0.0
C344 C 0.48114 0.54133 0.53317 0.0
C345 C 0.57693 0.60162 0.53349 0.0
N346 N 0.44907 0.44269 0.53944 0.0
N347 N 0.55896 0.55474 0.53576 0.0
H348 H 0.86629 0.46745 0.86054 0.0
H349 H 0.12352 0.52461 0.8586 0.0
H350 H 0.97869 0.60583 0.87798 0.0
H351 H 0.01189 0.38607 0.87659 0.0
H352 H 0.07192 0.55554 0.86824 0.0
H353 H 0.91821 0.4364 0.86902 0.0
C354 C 0.90183 0.49118 0.86654 0.0
C355 C 0.91862 0.5393 0.8682 0.0
C356 C 0.05892 0.51851 0.8706 0.0
C357 C 0.97824 0.50419 0.87755 0.0
C358 C 0.08822 0.50081 0.86493 0.0
C359 C 0.07154 0.45268 0.86644 0.0
C360 C 0.01228 0.48767 0.87714 0.0
C361 C 0.02586 0.42338 0.87505 0.0
C362 C 0.93133 0.47342 0.87152 0.0
C363 C 0.96463 0.56853 0.87635 0.0
N364 N -0.00265 0.44123 0.87955 0.0
N365 N 0.99329 0.55062 0.88017 0.0
H366 H 0.36896 0.97819 0.20885 0.0
H367 H 0.62658 0.014 0.20479 0.0
H368 H 0.39932 0.86938 0.18908 0.0
H369 H 0.59467 0.12321 0.18905 0.0
H370 H 0.54357 0.96051 0.21385 0.0
H371 H 0.45254 0.03123 0.21645 0.0
C372 C 0.39309 0.96526 0.20664 0.0
C373 C 0.3776 0.91978 0.1979 0.0
C374 C 0.55508 0.99646 0.20887 0.0
C375 C 0.47236 0.97958 0.20677 0.0
C376 C 0.60226 0.0269 0.20378 0.0
C377 C 0.61706 0.07265 0.19576 0.0
C378 C 0.52303 0.01238 0.2063 0.0
C379 C 0.58435 0.08784 0.19475 0.0
C380 C 0.44061 0.99545 0.2109 0.0
C381 C 0.41013 0.90456 0.19535 0.0
N382 N 0.53873 0.05766 0.19978 0.0
N383 N 0.4561 0.93452 0.19959 0.0
H384 H 0.25619 0.39152 0.36294 0.0
H385 H 0.38882 0.25639 0.39279 0.0
H386 H 0.26317 0.30121 0.30557 0.0
H387 H 0.30106 0.26648 0.45065 0.0
H388 H 0.35071 0.27983 0.36016 0.0
H389 H 0.2797 0.35361 0.39567 0.0
C390 C 0.26204 0.36332 0.3573 0.0
C391 C 0.25745 0.34933 0.33152 0.0
C392 C 0.33942 0.27625 0.37996 0.0
C393 C 0.2858 0.30702 0.36863 0.0
C394 C 0.36113 0.26291 0.39856 0.0
C395 C 0.34791 0.25921 0.42445 0.0
C396 C 0.30539 0.28748 0.38743 0.0
C397 C 0.31202 0.26844 0.43089 0.0
C398 C 0.27542 0.34173 0.37595 0.0
C399 C 0.26584 0.31279 0.32525 0.0
N400 N 0.29261 0.28299 0.4126 0.0
N401 N 0.28044 0.2935 0.34357 0.0
H402 H 0.91779 0.2265 0.65873 0.0
H403 H 0.09273 0.43969 0.74522 0.0
H404 H 0.89452 0.33995 0.67856 0.0
H405 H 0.06666 0.30127 0.76325 0.0
H406 H 0.02995 0.40619 0.71356 0.0
H407 H 0.98037 0.25477 0.69119 0.0
C408 C 0.92542 0.25695 0.67007 0.0
C409 C 0.90066 0.28075 0.66597 0.0
C410 C 0.03817 0.38317 0.72433 0.0
C411 C 0.97297 0.31394 0.70234 0.0
C412 C 0.07434 0.40227 0.74226 0.0
C413 C 0.0851 0.37328 0.75699 0.0
C414 C 0.01289 0.33469 0.72059 0.0
C415 C 0.05955 0.32492 0.75235 0.0
C416 C 0.96113 0.27304 0.68851 0.0
C417 C 0.91231 0.32023 0.68112 0.0
N418 N 0.0247 0.30708 0.73446 0.0
N419 N 0.94794 0.33589 0.69831 0.0
H420 H 0.55271 0.89762 1.0097 0.0
H421 H 0.76803 0.07642 0.09383 0.0
H422 H 0.6912 0.9257 0.99029 0.0
H423 H 0.65178 0.09633 0.07584 0.0
H424 H 0.73939 0.01337 0.06167 0.0
H425 H 0.58643 0.96075 1.04115 0.0
C426 C 0.59021 0.91652 1.01232 0.0
C427 C 0.61913 0.90624 0.99725 0.0
C428 C 0.72057 0.03198 0.06468 0.0
C429 C 0.65798 0.97886 1.03339 0.0
C430 C 0.73688 0.06796 0.08295 0.0
C431 C 0.71241 0.09192 0.08748 0.0
C432 C 0.67883 0.01905 0.05146 0.0
C433 C 0.67203 0.07919 0.07292 0.0
C434 C 0.60942 0.95288 1.03013 0.0
C435 C 0.66758 0.93243 1.00146 0.0
N436 N 0.65623 0.04333 0.05589 0.0
N437 N 0.68555 0.96748 1.01921 0.0
H438 H 0.69893 0.77512 0.43133 0.0
H439 H 0.66043 0.55945 0.34701 0.0
H440 H 0.5623 0.66099 0.41239 0.0
H441 H 0.77035 0.69752 0.32654 0.0
H442 H 0.63214 0.59386 0.37871 0.0
H443 H 0.73295 0.746 0.39915 0.0
C444 C 0.67606 0.74435 0.42024 0.0
C445 C 0.62761 0.72062 0.42449 0.0
C446 C 0.66268 0.6166 0.36742 0.0
C447 C 0.66642 0.68645 0.3885 0.0
C448 C 0.6792 0.59699 0.34946 0.0
C449 C 0.71788 0.6256 0.334 0.0
C450 C 0.68539 0.66523 0.37043 0.0
C451 C 0.7404 0.67414 0.33802 0.0
C452 C 0.69552 0.72777 0.40197 0.0
C453 C 0.59973 0.6807 0.40968 0.0
N454 N 0.72392 0.69249 0.35592 0.0
N455 N 0.61955 0.66457 0.39267 0.0
H456 H 0.09838 0.65444 0.68229 0.0
H457 H 0.9221 0.69388 0.76722 0.0
H458 H 0.07311 0.76717 0.66376 0.0
H459 H 0.89951 0.55711 0.74823 0.0
H460 H 0.98543 0.7279 0.7352 0.0
H461 H 0.03533 0.62564 0.71377 0.0
C462 C 0.08013 0.67367 0.68511 0.0
C463 C 0.09117 0.71335 0.67028 0.0
C464 C 0.96619 0.69044 0.73797 0.0
C465 C 0.01862 0.68028 0.70645 0.0
C466 C 0.93005 0.67099 0.75616 0.0
C467 C 0.90524 0.6225 0.76036 0.0
C468 C 0.9784 0.6613 0.72449 0.0
C469 C 0.91731 0.59458 0.74557 0.0
C470 C 0.0438 0.65688 0.70294 0.0
C471 C 0.06579 0.73645 0.67474 0.0
N472 N 0.95333 0.61439 0.72862 0.0
N473 N 0.03075 0.71968 0.69251 0.0
H474 H 0.22341 0.91827 0.09813 0.0
H475 H 0.43697 0.09371 1.01198 0.0
H476 H 0.33719 0.89535 0.07863 0.0
H477 H 0.29863 0.06716 0.9935 0.0
H478 H 0.40336 0.0309 1.04365 0.0
H479 H 0.25176 0.98086 0.06564 0.0
C480 C 0.25394 0.92597 0.08686 0.0
C481 C 0.27782 0.90131 0.09106 0.0
C482 C 0.38038 0.03903 1.03278 0.0
C483 C 0.31109 0.97365 0.05466 0.0
C484 C 0.39954 0.07521 1.01484 0.0
C485 C 0.37062 0.08584 0.99998 0.0
C486 C 0.33189 0.0136 1.0364 0.0
C487 C 0.32224 0.06015 1.0045 0.0
C488 C 0.27008 0.96169 0.0684 0.0
C489 C 0.3174 0.91306 0.07599 0.0
N490 N 0.30433 0.02529 1.02241 0.0
N491 N 0.3331 0.9487 0.05879 0.0
H492 H 0.89567 0.15884 0.15506 0.0
H493 H 0.09734 0.24586 0.25905 0.0
H494 H 0.87263 0.14117 0.23687 0.0
H495 H 0.12134 0.26954 0.17756 0.0
H496 H 0.01539 0.19023 0.25039 0.0
H497 H 0.97751 0.18193 0.16205 0.0
C498 C 0.90754 0.1588 0.17444 0.0
C499 C 0.8775 0.14901 0.19546 0.0
C500 C 0.03873 0.20691 0.23435 0.0
C501 C 0.97119 0.1759 0.20362 0.0
C502 C 0.08564 0.2386 0.23929 0.0
C503 C 0.11604 0.26316 0.21903 0.0
C504 C 0.02204 0.20006 0.20899 0.0
C505 C 0.09898 0.25196 0.19381 0.0
C506 C 0.95435 0.17214 0.17844 0.0
C507 C 0.89474 0.14922 0.22013 0.0
N508 N 0.05293 0.22189 0.18953 0.0
N509 N 0.94059 0.16325 0.22356 0.0
H510 H 0.85297 0.12722 0.51368 0.0
H511 H 0.73122 0.87514 0.57669 0.0
H512 H 0.83665 0.10162 0.59533 0.0
H513 H 0.73948 0.90072 0.49505 0.0
H514 H 0.78703 0.95762 0.58371 0.0
H515 H 0.82939 0.0454 0.50669 0.0
C516 C 0.84535 0.10462 0.5302 0.0
C517 C 0.84586 0.12107 0.55511 0.0
C518 C 0.77732 0.94508 0.56422 0.0
C519 C 0.8182 0.02714 0.54719 0.0
C520 C 0.7455 0.8979 0.56018 0.0
C521 C 0.72991 0.88118 0.53526 0.0
C522 C 0.79341 0.97584 0.54322 0.0
C523 C 0.75003 0.9122 0.51461 0.0
C524 C 0.83177 0.05782 0.52618 0.0
C525 C 0.83616 0.0903 0.57577 0.0
N526 N 0.78011 0.95821 0.51908 0.0
N527 N 0.8219 0.0446 0.57133 0.0
H528 H 0.84165 0.73865 0.82875 0.0
H529 H 0.73691 0.84225 0.92907 0.0
H530 H 0.84777 0.72636 0.911 0.0
H531 H 0.7264 0.85015 0.84681 0.0
H532 H 0.79433 0.81718 0.92289 0.0
H533 H 0.81685 0.79627 0.83507 0.0
C534 C 0.8388 0.74881 0.84814 0.0
C535 C 0.84582 0.72691 0.86938 0.0
C536 C 0.78014 0.82525 0.90619 0.0
C537 C 0.81682 0.79234 0.87676 0.0
C538 C 0.74743 0.83974 0.90972 0.0
C539 C 0.72607 0.84734 0.88842 0.0
C540 C 0.79128 0.81802 0.88119 0.0
C541 C 0.74137 0.84389 0.86379 0.0
C542 C 0.82447 0.78164 0.85174 0.0
C543 C 0.84196 0.74176 0.89405 0.0
N544 N 0.7724 0.82869 0.86084 0.0
N545 N 0.82692 0.77292 0.89706 0.0
H546 H 0.89622 0.74166 0.26404 0.0
H547 H 0.10019 0.8415 0.16119 0.0
H548 H 0.87428 0.73128 0.18204 0.0
H549 H 0.12195 0.85022 0.24319 0.0
H550 H 0.01835 0.81788 0.16847 0.0
H551 H 0.97869 0.79765 0.25687 0.0
C552 C 0.9085 0.75191 0.24454 0.0
C553 C 0.87849 0.731 0.22359 0.0
C554 C 0.04122 0.8258 0.18488 0.0
C555 C 0.973 0.79456 0.21522 0.0
C556 C 0.08804 0.83946 0.18072 0.0
C557 C 0.11773 0.8469 0.20162 0.0
C558 C 0.02396 0.81924 0.21012 0.0
C559 C 0.10013 0.84407 0.2265 0.0
C560 C 0.95568 0.78381 0.24044 0.0
C561 C 0.8963 0.74593 0.19877 0.0
N562 N 0.05422 0.82967 0.23006 0.0
N563 N 0.94254 0.77614 0.19525 0.0
H564 H 0.13776 0.87337 0.51999 0.0
H565 H 0.26993 0.12764 0.57964 0.0
H566 H 0.16402 0.90162 0.60101 0.0
H567 H 0.24775 0.09861 0.49847 0.0
H568 H 0.21454 0.04569 0.58862 0.0
H569 H 0.1607 0.95497 0.51284 0.0
C570 C 0.14751 0.89655 0.53637 0.0
C571 C 0.14988 0.88087 0.56107 0.0
C572 C 0.22107 0.0574 0.56885 0.0
C573 C 0.17688 0.97462 0.55296 0.0
C574 C 0.25262 0.10429 0.56369 0.0
C575 C 0.26426 0.11982 0.53824 0.0
C576 C 0.2013 0.02578 0.54841 0.0
C577 C 0.24037 0.08805 0.51839 0.0
C578 C 0.16069 0.94323 0.53226 0.0
C579 C 0.1622 0.91234 0.5816 0.0
N580 N 0.21068 0.04237 0.52388 0.0
N581 N 0.1761 0.95795 0.57702 0.0
H582 H 0.14999 0.2537 0.82694 0.0
H583 H 0.25157 0.15035 0.92961 0.0
H584 H 0.1414 0.26628 0.90899 0.0
H585 H 0.26504 0.14261 0.84758 0.0
H586 H 0.19435 0.1754 0.92239 0.0
H587 H 0.17472 0.19619 0.83409 0.0
C588 C 0.15227 0.24362 0.84645 0.0
C589 C 0.14458 0.26557 0.86741 0.0
C590 C 0.20915 0.16737 0.90596 0.0
C591 C 0.17348 0.20027 0.87574 0.0
C592 C 0.24174 0.15289 0.91009 0.0
C593 C 0.26387 0.14535 0.88917 0.0
C594 C 0.1989 0.17463 0.88074 0.0
C595 C 0.24946 0.14884 0.86429 0.0
C596 C 0.16657 0.21087 0.85053 0.0
C597 C 0.14775 0.25085 0.89225 0.0
N598 N 0.21852 0.16402 0.86077 0.0
N599 N 0.16275 0.21975 0.89574 0.0
loop_
_geom_bond_atom_site_label_1
_geom_bond_atom_site_label_2
_geom_bond_distance
_geom_bond_site_symmetry_2
_ccdc_geom_bond_type
O0 Cd1 2.223 . S
O0 C8 1.315 . S
Cd1 O0 2.223 . S
Cd1 O4 2.297 . S
Cd1 O5 2.439 . S
Cd1 O11 2.240 . S
Cd2 O3 2.240 . S
Cd2 O10 2.223 . S
Cd2 O12 2.297 . S
Cd2 O13 2.439 . S
O3 Cd2 2.240 . S
O3 C8 1.279 . S
O4 Cd1 2.297 . S
O4 C6 1.247 . S
O5 Cd1 2.439 . S
O5 C6 1.208 . S
C6 O4 1.247 . S
C6 O5 1.208 . S
C7 O12 1.247 . S
C7 O13 1.208 . S
C8 O0 1.315 . S
C8 O3 1.279 . S
C9 O10 1.315 . S
C9 O11 1.279 . S
O10 Cd2 2.223 . S
O10 C9 1.315 . S
O11 Cd1 2.240 . S
O11 C9 1.279 . S
O12 Cd2 2.297 . S
O12 C7 1.247 . S
O13 Cd2 2.439 . S
O13 C7 1.208 . S
O14 Cd15 2.223 . S
O14 C22 1.315 . S
Cd15 O14 2.223 . S
Cd15 O18 2.297 . S
Cd15 O19 2.439 . S
Cd15 O25 2.240 . S
Cd16 O17 2.240 . S
Cd16 O24 2.223 . S
Cd16 O26 2.297 . S
Cd16 O27 2.439 . S
O17 Cd16 2.240 . S
O17 C22 1.279 . S
O18 Cd15 2.297 . S
O18 C20 1.247 . S
O19 Cd15 2.439 . S
O19 C20 1.208 . S
C20 O18 1.247 . S
C20 O19 1.208 . S
C21 O26 1.247 . S
C21 O27 1.208 . S
C22 O14 1.315 . S
C22 O17 1.279 . S
C23 O24 1.315 . S
C23 O25 1.279 . S
O24 Cd16 2.223 . S
O24 C23 1.315 . S
O25 Cd15 2.240 . S
O25 C23 1.279 . S
O26 Cd16 2.297 . S
O26 C21 1.247 . S
O27 Cd16 2.439 . S
O27 C21 1.208 . S
O28 Cd29 2.223 . S
O28 C36 1.315 . S
Cd29 O28 2.223 . S
Cd29 O32 2.297 . S
Cd29 O33 2.439 . S
Cd29 O39 2.240 . S
Cd30 O31 2.240 . S
Cd30 O38 2.223 . S
Cd30 O40 2.297 . S
Cd30 O41 2.439 . S
O31 Cd30 2.240 . S
O31 C36 1.279 . S
O32 Cd29 2.297 . S
O32 C34 1.247 . S
O33 Cd29 2.439 . S
O33 C34 1.208 . S
C34 O32 1.247 . S
C34 O33 1.208 . S
C35 O40 1.247 . S
C35 O41 1.208 . S
C36 O28 1.315 . S
C36 O31 1.279 . S
C37 O38 1.315 . S
C37 O39 1.279 . S
O38 Cd30 2.223 . S
O38 C37 1.315 . S
O39 Cd29 2.240 . S
O39 C37 1.279 . S
O40 Cd30 2.297 . S
O40 C35 1.247 . S
O41 Cd30 2.439 . S
O41 C35 1.208 . S
O42 Cd43 2.223 . S
O42 C50 1.315 . S
Cd43 O42 2.223 . S
Cd43 O46 2.297 . S
Cd43 O47 2.439 . S
Cd43 O53 2.240 . S
Cd44 O45 2.240 . S
Cd44 O52 2.223 . S
Cd44 O54 2.297 . S
Cd44 O55 2.439 . S
O45 Cd44 2.240 . S
O45 C50 1.279 . S
O46 Cd43 2.297 . S
O46 C48 1.247 . S
O47 Cd43 2.439 . S
O47 C48 1.208 . S
C48 O46 1.247 . S
C48 O47 1.208 . S
C49 O54 1.247 . S
C49 O55 1.208 . S
C50 O42 1.315 . S
C50 O45 1.279 . S
C51 O52 1.315 . S
C51 O53 1.279 . S
O52 Cd44 2.223 . S
O52 C51 1.315 . S
O53 Cd43 2.240 . S
O53 C51 1.279 . S
O54 Cd44 2.297 . S
O54 C49 1.247 . S
O55 Cd44 2.439 . S
O55 C49 1.208 . S
O56 Cd57 2.223 . S
O56 C64 1.315 . S
Cd57 O56 2.223 . S
Cd57 O60 2.297 . S
Cd57 O61 2.439 . S
Cd57 O67 2.240 . S
Cd58 O59 2.240 . S
Cd58 O66 2.223 . S
Cd58 O68 2.297 . S
Cd58 O69 2.439 . S
O59 Cd58 2.240 . S
O59 C64 1.279 . S
O60 Cd57 2.297 . S
O60 C62 1.247 . S
O61 Cd57 2.439 . S
O61 C62 1.208 . S
C62 O60 1.247 . S
C62 O61 1.208 . S
C63 O68 1.247 . S
C63 O69 1.208 . S
C64 O56 1.315 . S
C64 O59 1.279 . S
C65 O66 1.315 . S
C65 O67 1.279 . S
O66 Cd58 2.223 . S
O66 C65 1.315 . S
O67 Cd57 2.240 . S
O67 C65 1.279 . S
O68 Cd58 2.297 . S
O68 C63 1.247 . S
O69 Cd58 2.439 . S
O69 C63 1.208 . S
O70 Cd71 2.223 . S
O70 C78 1.315 . S
Cd71 O70 2.223 . S
Cd71 O74 2.297 . S
Cd71 O75 2.439 . S
Cd71 O81 2.240 . S
Cd72 O73 2.240 . S
Cd72 O80 2.223 . S
Cd72 O82 2.297 . S
Cd72 O83 2.439 . S
O73 Cd72 2.240 . S
O73 C78 1.279 . S
O74 Cd71 2.297 . S
O74 C76 1.247 . S
O75 Cd71 2.439 . S
O75 C76 1.208 . S
C76 O74 1.247 . S
C76 O75 1.208 . S
C77 O82 1.247 . S
C77 O83 1.208 . S
C78 O70 1.315 . S
C78 O73 1.279 . S
C79 O80 1.315 . S
C79 O81 1.279 . S
O80 Cd72 2.223 . S
O80 C79 1.315 . S
O81 Cd71 2.240 . S
O81 C79 1.279 . S
O82 Cd72 2.297 . S
O82 C77 1.247 . S
O83 Cd72 2.439 . S
O83 C77 1.208 . S
O84 Cd85 2.223 . S
O84 C92 1.315 . S
Cd85 O84 2.223 . S
Cd85 O88 2.297 . S
Cd85 O89 2.439 . S
Cd85 O95 2.240 . S
Cd86 O87 2.240 . S
Cd86 O94 2.223 . S
Cd86 O96 2.297 . S
Cd86 O97 2.439 . S
O87 Cd86 2.240 . S
O87 C92 1.279 . S
O88 Cd85 2.297 . S
O88 C90 1.247 . S
O89 Cd85 2.439 . S
O89 C90 1.208 . S
C90 O88 1.247 . S
C90 O89 1.208 . S
C91 O96 1.247 . S
C91 O97 1.208 . S
C92 O84 1.315 . S
C92 O87 1.279 . S
C93 O94 1.315 . S
C93 O95 1.279 . S
O94 Cd86 2.223 . S
O94 C93 1.315 . S
O95 Cd85 2.240 . S
O95 C93 1.279 . S
O96 Cd86 2.297 . S
O96 C91 1.247 . S
O97 Cd86 2.439 . S
O97 C91 1.208 . S
O98 Cd99 2.223 . S
O98 C106 1.315 . S
Cd99 O98 2.223 . S
Cd99 O102 2.297 . S
Cd99 O103 2.439 . S
Cd99 O109 2.240 . S
Cd100 O101 2.240 . S
Cd100 O108 2.223 . S
Cd100 O110 2.297 . S
Cd100 O111 2.439 . S
O101 Cd100 2.240 . S
O101 C106 1.279 . S
O102 Cd99 2.297 . S
O102 C104 1.247 . S
O103 Cd99 2.439 . S
O103 C104 1.208 . S
C104 O102 1.247 . S
C104 O103 1.208 . S
C105 O110 1.247 . S
C105 O111 1.208 . S
C106 O98 1.315 . S
C106 O101 1.279 . S
C107 O108 1.315 . S
C107 O109 1.279 . S
O108 Cd100 2.223 . S
O108 C107 1.315 . S
O109 Cd99 2.240 . S
O109 C107 1.279 . S
O110 Cd100 2.297 . S
O110 C105 1.247 . S
O111 Cd100 2.439 . S
O111 C105 1.208 . S
O112 Cd113 2.223 . S
O112 C120 1.315 . S
Cd113 O112 2.223 . S
Cd113 O116 2.297 . S
Cd113 O117 2.439 . S
Cd113 O123 2.240 . S
Cd114 O115 2.240 . S
Cd114 O122 2.223 . S
Cd114 O124 2.297 . S
Cd114 O125 2.439 . S
O115 Cd114 2.240 . S
O115 C120 1.279 . S
O116 Cd113 2.297 . S
O116 C118 1.247 . S
O117 Cd113 2.439 . S
O117 C118 1.208 . S
C118 O116 1.247 . S
C118 O117 1.208 . S
C119 O124 1.247 . S
C119 O125 1.208 . S
C120 O112 1.315 . S
C120 O115 1.279 . S
C121 O122 1.315 . S
C121 O123 1.279 . S
O122 Cd114 2.223 . S
O122 C121 1.315 . S
O123 Cd113 2.240 . S
O123 C121 1.279 . S
O124 Cd114 2.297 . S
O124 C119 1.247 . S
O125 Cd114 2.439 . S
O125 C119 1.208 . S
O126 Cd127 2.223 . S
O126 C134 1.315 . S
Cd127 O126 2.223 . S
Cd127 O130 2.297 . S
Cd127 O131 2.439 . S
Cd127 O137 2.240 . S
Cd128 O129 2.240 . S
Cd128 O136 2.223 . S
Cd128 O138 2.297 . S
Cd128 O139 2.439 . S
O129 Cd128 2.240 . S
O129 C134 1.279 . S
O130 Cd127 2.297 . S
O130 C132 1.247 . S
O131 Cd127 2.439 . S
O131 C132 1.208 . S
C132 O130 1.247 . S
C132 O131 1.208 . S
C133 O138 1.247 . S
C133 O139 1.208 . S
C134 O126 1.315 . S
C134 O129 1.279 . S
C135 O136 1.315 . S
C135 O137 1.279 . S
O136 Cd128 2.223 . S
O136 C135 1.315 . S
O137 Cd127 2.240 . S
O137 C135 1.279 . S
O138 Cd128 2.297 . S
O138 C133 1.247 . S
O139 Cd128 2.439 . S
O139 C133 1.208 . S
O140 Cd141 2.223 . S
O140 C148 1.315 . S
Cd141 O140 2.223 . S
Cd141 O144 2.297 . S
Cd141 O145 2.439 . S
Cd141 O151 2.240 . S
Cd142 O143 2.240 . S
Cd142 O150 2.223 . S
Cd142 O152 2.297 . S
Cd142 O153 2.439 . S
O143 Cd142 2.240 . S
O143 C148 1.279 . S
O144 Cd141 2.297 . S
O144 C146 1.247 . S
O145 Cd141 2.439 . S
O145 C146 1.208 . S
C146 O144 1.247 . S
C146 O145 1.208 . S
C147 O152 1.247 . S
C147 O153 1.208 . S
C148 O140 1.315 . S
C148 O143 1.279 . S
C149 O150 1.315 . S
C149 O151 1.279 . S
O150 Cd142 2.223 . S
O150 C149 1.315 . S
O151 Cd141 2.240 . S
O151 C149 1.279 . S
O152 Cd142 2.297 . S
O152 C147 1.247 . S
O153 Cd142 2.439 . S
O153 C147 1.208 . S
O154 Cd155 2.223 . S
O154 C162 1.315 . S
Cd155 O154 2.223 . S
Cd155 O158 2.297 . S
Cd155 O159 2.439 . S
Cd155 O165 2.240 . S
Cd156 O157 2.240 . S
Cd156 O164 2.223 . S
Cd156 O166 2.297 . S
Cd156 O167 2.439 . S
O157 Cd156 2.240 . S
O157 C162 1.279 . S
O158 Cd155 2.297 . S
O158 C160 1.247 . S
O159 Cd155 2.439 . S
O159 C160 1.208 . S
C160 O158 1.247 . S
C160 O159 1.208 . S
C161 O166 1.247 . S
C161 O167 1.208 . S
C162 O154 1.315 . S
C162 O157 1.279 . S
C163 O164 1.315 . S
C163 O165 1.279 . S
O164 Cd156 2.223 . S
O164 C163 1.315 . S
O165 Cd155 2.240 . S
O165 C163 1.279 . S
O166 Cd156 2.297 . S
O166 C161 1.247 . S
O167 Cd156 2.439 . S
O167 C161 1.208 . S
H168 C174 0.930 . S
H169 C178 0.930 . S
H170 C183 0.929 . S
H171 C181 0.929 . S
H172 C176 0.929 . S
H173 C182 0.929 . S
C174 H168 0.930 . S
C174 C175 1.367 . S
C174 C182 1.378 . S
C175 C174 1.367 . S
C175 C183 1.433 . S
C176 H172 0.929 . S
C176 C178 1.378 . S
C176 C180 1.350 . S
C177 C180 1.463 . S
C177 C182 1.350 . S
C177 N185 1.427 . S
C178 H169 0.930 . S
C178 C176 1.378 . S
C178 C179 1.367 . S
C179 C178 1.367 . S
C179 C181 1.433 . S
C180 C176 1.350 . S
C180 C177 1.463 . S
C180 N184 1.427 . S
C181 H171 0.929 . S
C181 C179 1.433 . S
C181 N184 1.384 . S
C182 H173 0.929 . S
C182 C174 1.378 . S
C182 C177 1.350 . S
C183 H170 0.929 . S
C183 C175 1.433 . S
C183 N185 1.384 . S
N184 C180 1.427 . S
N184 C181 1.384 . S
N185 C177 1.427 . S
N185 C183 1.384 . S
H186 C192 0.930 . S
H187 C196 0.930 . S
H188 C201 0.929 . S
H189 C199 0.929 . S
H190 C194 0.929 . S
H191 C200 0.929 . S
C192 H186 0.930 . S
C192 C193 1.367 . S
C192 C200 1.378 . S
C193 C192 1.367 . S
C193 C201 1.433 . S
C194 H190 0.929 . S
C194 C196 1.378 . S
C194 C198 1.350 . S
C195 C198 1.463 . S
C195 C200 1.350 . S
C195 N203 1.427 . S
C196 H187 0.930 . S
C196 C194 1.378 . S
C196 C197 1.367 . S
C197 C196 1.367 . S
C197 C199 1.433 . S
C198 C194 1.350 . S
C198 C195 1.463 . S
C198 N202 1.427 . S
C199 H189 0.929 . S
C199 C197 1.433 . S
C199 N202 1.384 . S
C200 H191 0.929 . S
C200 C192 1.378 . S
C200 C195 1.350 . S
C201 H188 0.929 . S
C201 C193 1.433 . S
C201 N203 1.384 . S
N202 C198 1.427 . S
N202 C199 1.384 . S
N203 C195 1.427 . S
N203 C201 1.384 . S
H204 C210 0.930 . S
H205 C214 0.930 . S
H206 C219 0.929 . S
H207 C217 0.929 . S
H208 C212 0.929 . S
H209 C218 0.929 . S
C210 H204 0.930 . S
C210 C211 1.367 . S
C210 C218 1.378 . S
C211 C210 1.367 . S
C211 C219 1.433 . S
C212 H208 0.929 . S
C212 C214 1.378 . S
C212 C216 1.350 . S
C213 C216 1.463 . S
C213 C218 1.350 . S
C213 N221 1.427 . S
C214 H205 0.930 . S
C214 C212 1.378 . S
C214 C215 1.367 . S
C215 C214 1.367 . S
C215 C217 1.433 . S
C216 C212 1.350 . S
C216 C213 1.463 . S
C216 N220 1.427 . S
C217 H207 0.929 . S
C217 C215 1.433 . S
C217 N220 1.384 . S
C218 H209 0.929 . S
C218 C210 1.378 . S
C218 C213 1.350 . S
C219 H206 0.929 . S
C219 C211 1.433 . S
C219 N221 1.384 . S
N220 C216 1.427 . S
N220 C217 1.384 . S
N221 C213 1.427 . S
N221 C219 1.384 . S
H222 C228 0.930 . S
H223 C232 0.930 . S
H224 C237 0.929 . S
H225 C235 0.929 . S
H226 C230 0.929 . S
H227 C236 0.929 . S
C228 H222 0.930 . S
C228 C229 1.367 . S
C228 C236 1.378 . S
C229 C228 1.367 . S
C229 C237 1.433 . S
C230 H226 0.929 . S
C230 C232 1.378 . S
C230 C234 1.350 . S
C231 C234 1.463 . S
C231 C236 1.350 . S
C231 N239 1.427 . S
C232 H223 0.930 . S
C232 C230 1.378 . S
C232 C233 1.367 . S
C233 C232 1.367 . S
C233 C235 1.433 . S
C234 C230 1.350 . S
C234 C231 1.463 . S
C234 N238 1.427 . S
C235 H225 0.929 . S
C235 C233 1.433 . S
C235 N238 1.384 . S
C236 H227 0.929 . S
C236 C228 1.378 . S
C236 C231 1.350 . S
C237 H224 0.929 . S
C237 C229 1.433 . S
C237 N239 1.384 . S
N238 C234 1.427 . S
N238 C235 1.384 . S
N239 C231 1.427 . S
N239 C237 1.384 . S
H240 C246 0.930 . S
H241 C250 0.930 . S
H242 C255 0.929 . S
H243 C253 0.929 . S
H244 C248 0.929 . S
H245 C254 0.929 . S
C246 H240 0.930 . S
C246 C247 1.367 . S
C246 C254 1.378 . S
C247 C246 1.367 . S
C247 C255 1.433 . S
C248 H244 0.929 . S
C248 C250 1.378 . S
C248 C252 1.350 . S
C249 C252 1.463 . S
C249 C254 1.350 . S
C249 N257 1.427 . S
C250 H241 0.930 . S
C250 C248 1.378 . S
C250 C251 1.367 . S
C251 C250 1.367 . S
C251 C253 1.433 . S
C252 C248 1.350 . S
C252 C249 1.463 . S
C252 N256 1.427 . S
C253 H243 0.929 . S
C253 C251 1.433 . S
C253 N256 1.384 . S
C254 H245 0.929 . S
C254 C246 1.378 . S
C254 C249 1.350 . S
C255 H242 0.929 . S
C255 C247 1.433 . S
C255 N257 1.384 . S
N256 C252 1.427 . S
N256 C253 1.384 . S
N257 C249 1.427 . S
N257 C255 1.384 . S
H258 C264 0.930 . S
H259 C268 0.930 . S
H260 C273 0.929 . S
H261 C271 0.929 . S
H262 C266 0.929 . S
H263 C272 0.929 . S
C264 H258 0.930 . S
C264 C265 1.367 . S
C264 C272 1.378 . S
C265 C264 1.367 . S
C265 C273 1.433 . S
C266 H262 0.929 . S
C266 C268 1.378 . S
C266 C270 1.350 . S
C267 C270 1.463 . S
C267 C272 1.350 . S
C267 N275 1.427 . S
C268 H259 0.930 . S
C268 C266 1.378 . S
C268 C269 1.367 . S
C269 C268 1.367 . S
C269 C271 1.433 . S
C270 C266 1.350 . S
C270 C267 1.463 . S
C270 N274 1.427 . S
C271 H261 0.929 . S
C271 C269 1.433 . S
C271 N274 1.384 . S
C272 H263 0.929 . S
C272 C264 1.378 . S
C272 C267 1.350 . S
C273 H260 0.929 . S
C273 C265 1.433 . S
C273 N275 1.384 . S
N274 C270 1.427 . S
N274 C271 1.384 . S
N275 C267 1.427 . S
N275 C273 1.384 . S
H276 C282 0.930 . S
H277 C286 0.930 . S
H278 C291 0.929 . S
H279 C289 0.929 . S
H280 C284 0.929 . S
H281 C290 0.929 . S
C282 H276 0.930 . S
C282 C283 1.367 . S
C282 C290 1.378 . S
C283 C282 1.367 . S
C283 C291 1.433 . S
C284 H280 0.929 . S
C284 C286 1.378 . S
C284 C288 1.350 . S
C285 C288 1.463 . S
C285 C290 1.350 . S
C285 N293 1.427 . S
C286 H277 0.930 . S
C286 C284 1.378 . S
C286 C287 1.367 . S
C287 C286 1.367 . S
C287 C289 1.433 . S
C288 C284 1.350 . S
C288 C285 1.463 . S
C288 N292 1.427 . S
C289 H279 0.929 . S
C289 C287 1.433 . S
C289 N292 1.384 . S
C290 H281 0.929 . S
C290 C282 1.378 . S
C290 C285 1.350 . S
C291 H278 0.929 . S
C291 C283 1.433 . S
C291 N293 1.384 . S
N292 C288 1.427 . S
N292 C289 1.384 . S
N293 C285 1.427 . S
N293 C291 1.384 . S
H294 C300 0.930 . S
H295 C304 0.930 . S
H296 C309 0.929 . S
H297 C307 0.929 . S
H298 C302 0.929 . S
H299 C308 0.929 . S
C300 H294 0.930 . S
C300 C301 1.367 . S
C300 C308 1.378 1_455 S
C301 C300 1.367 . S
C301 C309 1.433 . S
C302 H298 0.929 . S
C302 C304 1.378 1_455 S
C302 C306 1.350 1_455 S
C303 C306 1.463 1_455 S
C303 C308 1.350 1_455 S
C303 N311 1.427 . S
C304 H295 0.930 . S
C304 C302 1.378 1_655 S
C304 C305 1.367 . S
C305 C304 1.367 . S
C305 C307 1.433 . S
C306 C302 1.350 1_655 S
C306 C303 1.463 1_655 S
C306 N310 1.427 . S
C307 H297 0.929 . S
C307 C305 1.433 . S
C307 N310 1.384 . S
C308 H299 0.929 . S
C308 C300 1.378 1_655 S
C308 C303 1.350 1_655 S
C309 H296 0.929 . S
C309 C301 1.433 . S
C309 N311 1.384 . S
N310 C306 1.427 . S
N310 C307 1.384 . S
N311 C303 1.427 . S
N311 C309 1.384 . S
H312 C318 0.930 . S
H313 C322 0.930 . S
H314 C327 0.929 1_565 S
H315 C325 0.929 1_545 S
H316 C320 0.929 . S
H317 C326 0.929 . S
C318 H312 0.930 . S
C318 C319 1.367 . S
C318 C326 1.378 . S
C319 C318 1.367 . S
C319 C327 1.433 . S
C320 H316 0.929 . S
C320 C322 1.378 . S
C320 C324 1.350 . S
C321 C324 1.463 1_545 S
C321 C326 1.350 . S
C321 N329 1.427 1_545 S
C322 H313 0.930 . S
C322 C320 1.378 . S
C322 C323 1.367 . S
C323 C322 1.367 . S
C323 C325 1.433 . S
C324 C320 1.350 . S
C324 C321 1.463 1_565 S
C324 N328 1.427 1_565 S
C325 H315 0.929 1_565 S
C325 C323 1.433 . S
C325 N328 1.384 1_565 S
C326 H317 0.929 . S
C326 C318 1.378 . S
C326 C321 1.350 . S
C327 H314 0.929 1_545 S
C327 C319 1.433 . S
C327 N329 1.384 1_545 S
N328 C324 1.427 1_545 S
N328 C325 1.384 1_545 S
N329 C321 1.427 1_565 S
N329 C327 1.384 1_565 S
H330 C336 0.930 . S
H331 C340 0.930 . S
H332 C345 0.929 . S
H333 C343 0.929 . S
H334 C338 0.929 . S
H335 C344 0.929 . S
C336 H330 0.930 . S
C336 C337 1.367 . S
C336 C344 1.378 . S
C337 C336 1.367 . S
C337 C345 1.433 . S
C338 H334 0.929 . S
C338 C340 1.378 . S
C338 C342 1.350 . S
C339 C342 1.463 . S
C339 C344 1.350 . S
C339 N347 1.427 . S
C340 H331 0.930 . S
C340 C338 1.378 . S
C340 C341 1.367 . S
C341 C340 1.367 . S
C341 C343 1.433 . S
C342 C338 1.350 . S
C342 C339 1.463 . S
C342 N346 1.427 . S
C343 H333 0.929 . S
C343 C341 1.433 . S
C343 N346 1.384 . S
C344 H335 0.929 . S
C344 C336 1.378 . S
C344 C339 1.350 . S
C345 H332 0.929 . S
C345 C337 1.433 . S
C345 N347 1.384 . S
N346 C342 1.427 . S
N346 C343 1.384 . S
N347 C339 1.427 . S
N347 C345 1.384 . S
H348 C354 0.930 . S
H349 C358 0.930 . S
H350 C363 0.929 1_455 S
H351 C361 0.929 1_655 S
H352 C356 0.929 . S
H353 C362 0.929 . S
C354 H348 0.930 . S
C354 C355 1.367 . S
C354 C362 1.378 . S
C355 C354 1.367 . S
C355 C363 1.433 . S
C356 H352 0.929 . S
C356 C358 1.378 . S
C356 C360 1.350 . S
C357 C360 1.463 1_655 S
C357 C362 1.350 . S
C357 N365 1.427 1_655 S
C358 H349 0.930 . S
C358 C356 1.378 . S
C358 C359 1.367 . S
C359 C358 1.367 . S
C359 C361 1.433 . S
C360 C356 1.350 . S
C360 C357 1.463 1_455 S
C360 N364 1.427 1_455 S
C361 H351 0.929 1_455 S
C361 C359 1.433 . S
C361 N364 1.384 1_455 S
C362 H353 0.929 . S
C362 C354 1.378 . S
C362 C357 1.350 . S
C363 H350 0.929 1_655 S
C363 C355 1.433 . S
C363 N365 1.384 1_655 S
N364 C360 1.427 1_655 S
N364 C361 1.384 1_655 S
N365 C357 1.427 1_455 S
N365 C363 1.384 1_455 S
H366 C372 0.930 . S
H367 C376 0.930 . S
H368 C381 0.929 . S
H369 C379 0.929 . S
H370 C374 0.929 . S
H371 C380 0.929 . S
C372 H366 0.930 . S
C372 C373 1.367 . S
C372 C380 1.378 1_565 S
C373 C372 1.367 . S
C373 C381 1.433 . S
C374 H370 0.929 . S
C374 C376 1.378 1_565 S
C374 C378 1.350 1_565 S
C375 C378 1.463 1_565 S
C375 C380 1.350 1_565 S
C375 N383 1.427 . S
C376 H367 0.930 . S
C376 C374 1.378 1_545 S
C376 C377 1.367 . S
C377 C376 1.367 . S
C377 C379 1.433 . S
C378 C374 1.350 1_545 S
C378 C375 1.463 1_545 S
C378 N382 1.427 . S
C379 H369 0.929 . S
C379 C377 1.433 . S
C379 N382 1.384 . S
C380 H371 0.929 . S
C380 C372 1.378 1_545 S
C380 C375 1.350 1_545 S
C381 H368 0.929 . S
C381 C373 1.433 . S
C381 N383 1.384 . S
N382 C378 1.427 . S
N382 C379 1.384 . S
N383 C375 1.427 . S
N383 C381 1.384 . S
H384 C390 0.930 . S
H385 C394 0.930 . S
H386 C399 0.929 . S
H387 C397 0.929 . S
H388 C392 0.929 . S
H389 C398 0.929 . S
C390 H384 0.930 . S
C390 C391 1.367 . S
C390 C398 1.378 . S
C391 C390 1.367 . S
C391 C399 1.433 . S
C392 H388 0.929 . S
C392 C394 1.378 . S
C392 C396 1.350 . S
C393 C396 1.463 . S
C393 C398 1.350 . S
C393 N401 1.427 . S
C394 H385 0.930 . S
C394 C392 1.378 . S
C394 C395 1.367 . S
C395 C394 1.367 . S
C395 C397 1.433 . S
C396 C392 1.350 . S
C396 C393 1.463 . S
C396 N400 1.427 . S
C397 H387 0.929 . S
C397 C395 1.433 . S
C397 N400 1.384 . S
C398 H389 0.929 . S
C398 C390 1.378 . S
C398 C393 1.350 . S
C399 H386 0.929 . S
C399 C391 1.433 . S
C399 N401 1.384 . S
N400 C396 1.427 . S
N400 C397 1.384 . S
N401 C393 1.427 . S
N401 C399 1.384 . S
H402 C408 0.930 . S
H403 C412 0.930 . S
H404 C417 0.929 . S
H405 C415 0.929 . S
H406 C410 0.929 . S
H407 C416 0.929 . S
C408 H402 0.930 . S
C408 C409 1.367 . S
C408 C416 1.378 1_655 S
C409 C408 1.367 . S
C409 C417 1.433 . S
C410 H406 0.929 . S
C410 C412 1.378 1_655 S
C410 C414 1.350 1_655 S
C411 C414 1.463 1_655 S
C411 C416 1.350 1_655 S
C411 N419 1.427 . S
C412 H403 0.930 . S
C412 C410 1.378 1_455 S
C412 C413 1.367 . S
C413 C412 1.367 . S
C413 C415 1.433 . S
C414 C410 1.350 1_455 S
C414 C411 1.463 1_455 S
C414 N418 1.427 . S
C415 H405 0.929 . S
C415 C413 1.433 . S
C415 N418 1.384 . S
C416 H407 0.929 . S
C416 C408 1.378 1_455 S
C416 C411 1.350 1_455 S
C417 H404 0.929 . S
C417 C409 1.433 . S
C417 N419 1.384 . S
N418 C414 1.427 . S
N418 C415 1.384 . S
N419 C411 1.427 . S
N419 C417 1.384 . S
H420 C426 0.930 1_545 S
H421 C430 0.930 1_565 S
H422 C435 0.929 . S
H423 C433 0.929 . S
H424 C428 0.929 . S
H425 C434 0.929 . S
C426 H420 0.930 1_565 S
C426 C427 1.367 . S
C426 C434 1.378 1_565 S
C427 C426 1.367 . S
C427 C435 1.433 . S
C428 H424 0.929 . S
C428 C430 1.378 1_565 S
C428 C432 1.350 1_565 S
C429 C432 1.463 1_566 S
C429 C434 1.350 1_565 S
C429 N437 1.427 . S
C430 H421 0.930 1_545 S
C430 C428 1.378 1_545 S
C430 C431 1.367 . S
C431 C430 1.367 . S
C431 C433 1.433 . S
C432 C428 1.350 1_545 S
C432 C429 1.463 1_544 S
C432 N436 1.427 . S
C433 H423 0.929 . S
C433 C431 1.433 . S
C433 N436 1.384 . S
C434 H425 0.929 . S
C434 C426 1.378 1_545 S
C434 C429 1.350 1_545 S
C435 H422 0.929 . S
C435 C427 1.433 . S
C435 N437 1.384 . S
N436 C432 1.427 . S
N436 C433 1.384 . S
N437 C429 1.427 . S
N437 C435 1.384 . S
H438 C444 0.930 . S
H439 C448 0.930 . S
H440 C453 0.929 . S
H441 C451 0.929 . S
H442 C446 0.929 . S
H443 C452 0.929 . S
C444 H438 0.930 . S
C444 C445 1.367 . S
C444 C452 1.378 . S
C445 C444 1.367 . S
C445 C453 1.433 . S
C446 H442 0.929 . S
C446 C448 1.378 . S
C446 C450 1.350 . S
C447 C450 1.463 . S
C447 C452 1.350 . S
C447 N455 1.427 . S
C448 H439 0.930 . S
C448 C446 1.378 . S
C448 C449 1.367 . S
C449 C448 1.367 . S
C449 C451 1.433 . S
C450 C446 1.350 . S
C450 C447 1.463 . S
C450 N454 1.427 . S
C451 H441 0.929 . S
C451 C449 1.433 . S
C451 N454 1.384 . S
C452 H443 0.929 . S
C452 C444 1.378 . S
C452 C447 1.350 . S
C453 H440 0.929 . S
C453 C445 1.433 . S
C453 N455 1.384 . S
N454 C450 1.427 . S
N454 C451 1.384 . S
N455 C447 1.427 . S
N455 C453 1.384 . S
H456 C462 0.930 . S
H457 C466 0.930 . S
H458 C471 0.929 . S
H459 C469 0.929 . S
H460 C464 0.929 . S
H461 C470 0.929 . S
C462 H456 0.930 . S
C462 C463 1.367 . S
C462 C470 1.378 . S
C463 C462 1.367 . S
C463 C471 1.433 . S
C464 H460 0.929 . S
C464 C466 1.378 . S
C464 C468 1.350 . S
C465 C468 1.463 1_455 S
C465 C470 1.350 . S
C465 N473 1.427 . S
C466 H457 0.930 . S
C466 C464 1.378 . S
C466 C467 1.367 . S
C467 C466 1.367 . S
C467 C469 1.433 . S
C468 C464 1.350 . S
C468 C465 1.463 1_655 S
C468 N472 1.427 . S
C469 H459 0.929 . S
C469 C467 1.433 . S
C469 N472 1.384 . S
C470 H461 0.929 . S
C470 C462 1.378 . S
C470 C465 1.350 . S
C471 H458 0.929 . S
C471 C463 1.433 . S
C471 N473 1.384 . S
N472 C468 1.427 . S
N472 C469 1.384 . S
N473 C465 1.427 . S
N473 C471 1.384 . S
H474 C480 0.930 . S
H475 C484 0.930 . S
H476 C489 0.929 . S
H477 C487 0.929 . S
H478 C482 0.929 . S
H479 C488 0.929 . S
C480 H474 0.930 . S
C480 C481 1.367 . S
C480 C488 1.378 . S
C481 C480 1.367 . S
C481 C489 1.433 . S
C482 H478 0.929 . S
C482 C484 1.378 . S
C482 C486 1.350 . S
C483 C486 1.463 1_564 S
C483 C488 1.350 . S
C483 N491 1.421 . S
C484 H475 0.930 . S
C484 C482 1.378 . S
C484 C485 1.367 . S
C485 C484 1.367 . S
C485 C487 1.433 . S
C486 C482 1.350 . S
C486 C483 1.463 1_546 S
C486 N490 1.427 . S
C487 H477 0.929 . S
C487 C485 1.433 . S
C487 N490 1.384 . S
C488 H479 0.929 . S
C488 C480 1.378 . S
C488 C483 1.350 . S
C489 H476 0.929 . S
C489 C481 1.433 . S
C489 N491 1.394 . S
N490 C486 1.427 . S
N490 C487 1.384 . S
N491 C483 1.421 . S
N491 C489 1.394 . S
H492 C498 0.930 . S
H493 C502 0.930 . S
H494 C507 0.929 . S
H495 C505 0.929 . S
H496 C500 0.929 . S
H497 C506 0.929 . S
C498 H492 0.930 . S
C498 C499 1.367 . S
C498 C506 1.378 . S
C499 C498 1.367 . S
C499 C507 1.433 . S
C500 H496 0.929 . S
C500 C502 1.378 . S
C500 C504 1.350 . S
C501 C504 1.463 1_655 S
C501 C506 1.350 . S
C501 N509 1.427 . S
C502 H493 0.930 . S
C502 C500 1.378 . S
C502 C503 1.367 . S
C503 C502 1.367 . S
C503 C505 1.433 . S
C504 C500 1.350 . S
C504 C501 1.463 1_455 S
C504 N508 1.427 . S
C505 H495 0.929 . S
C505 C503 1.433 . S
C505 N508 1.384 . S
C506 H497 0.929 . S
C506 C498 1.378 . S
C506 C501 1.350 . S
C507 H494 0.929 . S
C507 C499 1.433 . S
C507 N509 1.384 . S
N508 C504 1.427 . S
N508 C505 1.384 . S
N509 C501 1.427 . S
N509 C507 1.384 . S
H510 C516 0.930 . S
H511 C520 0.930 . S
H512 C525 0.929 . S
H513 C523 0.929 . S
H514 C518 0.929 . S
H515 C524 0.929 . S
C516 H510 0.930 . S
C516 C517 1.367 . S
C516 C524 1.378 . S
C517 C516 1.367 . S
C517 C525 1.433 . S
C518 H514 0.929 . S
C518 C520 1.378 . S
C518 C522 1.350 . S
C519 C522 1.463 1_545 S
C519 C524 1.350 . S
C519 N527 1.427 . S
C520 H511 0.930 . S
C520 C518 1.378 . S
C520 C521 1.367 . S
C521 C520 1.367 . S
C521 C523 1.433 . S
C522 C518 1.350 . S
C522 C519 1.463 1_565 S
C522 N526 1.427 . S
C523 H513 0.929 . S
C523 C521 1.433 . S
C523 N526 1.384 . S
C524 H515 0.929 . S
C524 C516 1.378 . S
C524 C519 1.350 . S
C525 H512 0.929 . S
C525 C517 1.433 . S
C525 N527 1.384 . S
N526 C522 1.427 . S
N526 C523 1.384 . S
N527 C519 1.427 . S
N527 C525 1.384 . S
H528 C534 0.930 . S
H529 C538 0.930 . S
H530 C543 0.929 . S
H531 C541 0.929 . S
H532 C536 0.929 . S
H533 C542 0.929 . S
C534 H528 0.930 . S
C534 C535 1.367 . S
C534 C542 1.378 . S
C535 C534 1.367 . S
C535 C543 1.433 . S
C536 H532 0.929 . S
C536 C538 1.378 . S
C536 C540 1.350 . S
C537 C540 1.463 . S
C537 C542 1.350 . S
C537 N545 1.427 . S
C538 H529 0.930 . S
C538 C536 1.378 . S
C538 C539 1.367 . S
C539 C538 1.367 . S
C539 C541 1.433 . S
C540 C536 1.350 . S
C540 C537 1.463 . S
C540 N544 1.427 . S
C541 H531 0.929 . S
C541 C539 1.433 . S
C541 N544 1.384 . S
C542 H533 0.929 . S
C542 C534 1.378 . S
C542 C537 1.350 . S
C543 H530 0.929 . S
C543 C535 1.433 . S
C543 N545 1.384 . S
N544 C540 1.427 . S
N544 C541 1.384 . S
N545 C537 1.427 . S
N545 C543 1.384 . S
H546 C552 0.930 . S
H547 C556 0.930 . S
H548 C561 0.929 . S
H549 C559 0.929 . S
H550 C554 0.929 . S
H551 C560 0.929 . S
C552 H546 0.930 . S
C552 C553 1.367 . S
C552 C560 1.378 . S
C553 C552 1.367 . S
C553 C561 1.433 . S
C554 H550 0.929 . S
C554 C556 1.378 . S
C554 C558 1.350 . S
C555 C558 1.463 1_655 S
C555 C560 1.350 . S
C555 N563 1.427 . S
C556 H547 0.930 . S
C556 C554 1.378 . S
C556 C557 1.367 . S
C557 C556 1.367 . S
C557 C559 1.433 . S
C558 C554 1.350 . S
C558 C555 1.463 1_455 S
C558 N562 1.427 . S
C559 H549 0.929 . S
C559 C557 1.433 . S
C559 N562 1.384 . S
C560 H551 0.929 . S
C560 C552 1.378 . S
C560 C555 1.350 . S
C561 H548 0.929 . S
C561 C553 1.433 . S
C561 N563 1.384 . S
N562 C558 1.427 . S
N562 C559 1.384 . S
N563 C555 1.427 . S
N563 C561 1.384 . S
H564 C570 0.930 . S
H565 C574 0.930 . S
H566 C579 0.929 . S
H567 C577 0.929 . S
H568 C572 0.929 . S
H569 C578 0.929 . S
C570 H564 0.930 . S
C570 C571 1.367 . S
C570 C578 1.378 . S
C571 C570 1.367 . S
C571 C579 1.433 . S
C572 H568 0.929 . S
C572 C574 1.378 . S
C572 C576 1.350 . S
C573 C576 1.463 1_565 S
C573 C578 1.350 . S
C573 N581 1.427 . S
C574 H565 0.930 . S
C574 C572 1.378 . S
C574 C575 1.367 . S
C575 C574 1.367 . S
C575 C577 1.433 . S
C576 C572 1.350 . S
C576 C573 1.463 1_545 S
C576 N580 1.427 . S
C577 H567 0.929 . S
C577 C575 1.433 . S
C577 N580 1.384 . S
C578 H569 0.929 . S
C578 C570 1.378 . S
C578 C573 1.350 . S
C579 H566 0.929 . S
C579 C571 1.433 . S
C579 N581 1.384 . S
N580 C576 1.427 . S
N580 C577 1.384 . S
N581 C573 1.427 . S
N581 C579 1.384 . S
H582 C588 0.930 . S
H583 C592 0.930 . S
H584 C597 0.929 . S
H585 C595 0.929 . S
H586 C590 0.929 . S
H587 C596 0.929 . S
C588 H582 0.930 . S
C588 C589 1.367 . S
C588 C596 1.378 . S
C589 C588 1.367 . S
C589 C597 1.433 . S
C590 H586 0.929 . S
C590 C592 1.378 . S
C590 C594 1.350 . S
C591 C594 1.463 . S
C591 C596 1.350 . S
C591 N599 1.427 . S
C592 H583 0.930 . S
C592 C590 1.378 . S
C592 C593 1.367 . S
C593 C592 1.367 . S
C593 C595 1.433 . S
C594 C590 1.350 . S
C594 C591 1.463 . S
C594 N598 1.427 . S
C595 H585 0.929 . S
C595 C593 1.433 . S
C595 N598 1.384 . S
C596 H587 0.929 . S
C596 C588 1.378 . S
C596 C591 1.350 . S
C597 H584 0.929 . S
C597 C589 1.433 . S
C597 N599 1.384 . S
N598 C594 1.427 . S
N598 C595 1.384 . S
N599 C591 1.427 . S
N599 C597 1.384 . S
C175 C120 2.138 . S
C179 C8 2.140 . S
C193 C22 2.139 . S
C197 C134 2.143 . S
C211 C36 2.141 . S
C215 C148 2.142 . S
C229 C50 2.139 . S
C233 C162 2.139 . S
C247 C92 2.139 . S
C251 C64 2.143 . S
C265 C78 2.142 . S
C269 C106 2.141 . S
C283 C51 0.756 . S
C287 C9 0.787 . S
C301 C65 0.770 . S
C305 C23 0.788 . S
C319 C79 0.764 . S
C323 C37 0.773 . S
C337 C93 0.791 . S
C341 C135 0.760 . S
C355 C107 0.767 . S
C359 C149 0.769 . S
C373 C121 0.788 . S
C377 C163 0.769 . S
C391 C7 1.515 . S
C395 C133 1.516 . S
C409 C21 1.526 . S
C413 C147 1.516 . S
C427 C35 1.520 . S
C431 C161 1.525 . S
C445 C91 1.525 . S
C449 C49 1.513 . S
C463 C63 1.514 . S
C467 C105 1.525 . S
C481 C119 1.523 . S
C485 C77 1.512 . S
C499 C160 1.220 . S
C503 C6 1.221 . S
C517 C20 1.220 . S
C521 C90 1.217 . S
C535 C104 1.221 . S
C539 C34 1.220 . S
C553 C48 1.219 . S
C557 C118 1.221 . S
C571 C62 1.220 . S
C575 C132 1.217 . S
C589 C146 1.219 . S
C593 C76 1.222 . S
