# Generated by pormake.
# Topology uoq, (4)-cn, num edge types: 1
# Building blocks:
#     Node 0, Type 0, BuildingBlock: NAHDIM_clean_sbu_0, # of connection points: 4
#     Node 1, Type 0, BuildingBlock: NAHDIM_clean_sbu_0, # of connection points: 4
#     Node 2, Type 0, BuildingBlock: NAHDIM_clean_sbu_0, # of connection points: 4
#     Node 3, Type 0, BuildingBlock: NAHDIM_clean_sbu_0, # of connection points: 4
#     Node 4, Type 0, BuildingBlock: NAHDIM_clean_sbu_0, # of connection points: 4
#     Node 5, Type 0, BuildingBlock: NAHDIM_clean_sbu_0, # of connection points: 4
#     Node 6, Type 0, BuildingBlock: NAHDIM_clean_sbu_0, # of connection points: 4
#     Node 7, Type 0, BuildingBlock: NAHDIM_clean_sbu_0, # of connection points: 4
#     Node 8, Type 0, BuildingBlock: NAHDIM_clean_sbu_0, # of connection points: 4
#     Node 9, Type 0, BuildingBlock: NAHDIM_clean_sbu_0, # of connection points: 4
#     Node 10, Type 0, BuildingBlock: NAHDIM_clean_sbu_0, # of connection points: 4
#     Node 11, Type 0, BuildingBlock: NAHDIM_clean_sbu_0, # of connection points: 4
#     Edge 12, Type (0, 0), BuildingBlock: MIFKUJ_clean_linker_0, # of connection points: 2
#     Edge 13, Type (0, 0), BuildingBlock: MIFKUJ_clean_linker_0, # of connection points: 2
#     Edge 14, Type (0, 0), BuildingBlock: MIFKUJ_clean_linker_0, # of connection points: 2
#     Edge 15, Type (0, 0), BuildingBlock: MIFKUJ_clean_linker_0, # of connection points: 2
#     Edge 16, Type (0, 0), BuildingBlock: MIFKUJ_clean_linker_0, # of connection points: 2
#     Edge 17, Type (0, 0), BuildingBlock: MIFKUJ_clean_linker_0, # of connection points: 2
#     Edge 18, Type (0, 0), BuildingBlock: MIFKUJ_clean_linker_0, # of connection points: 2
#     Edge 19, Type (0, 0), BuildingBlock: MIFKUJ_clean_linker_0, # of connection points: 2
#     Edge 20, Type (0, 0), BuildingBlock: MIFKUJ_clean_linker_0, # of connection points: 2
#     Edge 21, Type (0, 0), BuildingBlock: MIFKUJ_clean_linker_0, # of connection points: 2
#     Edge 22, Type (0, 0), BuildingBlock: MIFKUJ_clean_linker_0, # of connection points: 2
#     Edge 23, Type (0, 0), BuildingBlock: MIFKUJ_clean_linker_0, # of connection points: 2
#     Edge 24, Type (0, 0), BuildingBlock: MIFKUJ_clean_linker_0, # of connection points: 2
#     Edge 25, Type (0, 0), BuildingBlock: MIFKUJ_clean_linker_0, # of connection points: 2
#     Edge 26, Type (0, 0), BuildingBlock: MIFKUJ_clean_linker_0, # of connection points: 2
#     Edge 27, Type (0, 0), BuildingBlock: MIFKUJ_clean_linker_0, # of connection points: 2
#     Edge 28, Type (0, 0), BuildingBlock: MIFKUJ_clean_linker_0, # of connection points: 2
#     Edge 29, Type (0, 0), BuildingBlock: MIFKUJ_clean_linker_0, # of connection points: 2
#     Edge 30, Type (0, 0), BuildingBlock: MIFKUJ_clean_linker_0, # of connection points: 2
#     Edge 31, Type (0, 0), BuildingBlock: MIFKUJ_clean_linker_0, # of connection points: 2
#     Edge 32, Type (0, 0), BuildingBlock: MIFKUJ_clean_linker_0, # of connection points: 2
#     Edge 33, Type (0, 0), BuildingBlock: MIFKUJ_clean_linker_0, # of connection points: 2
#     Edge 34, Type (0, 0), BuildingBlock: MIFKUJ_clean_linker_0, # of connection points: 2
#     Edge 35, Type (0, 0), BuildingBlock: MIFKUJ_clean_linker_0, # of connection points: 2
# Relax obj value: 0.074
# Max RMSD: 0.072
# Mean RMSD: 0.072
data_MOF--net-uoq--node1-NAHDIM_clean_sbu_0--edge1-MIFKUJ_clean_linker_0
_symmetry_space_group_name_H-M    P1
_symmetry_Int_Tables_number       1
_symmetry_cell_setting            triclinic
loop_
_symmetry_equiv_pos_as_xyz
'x, y, z'
_cell_length_a     75.701921
_cell_length_b     75.688667
_cell_length_c     30.770861
_cell_angle_alpha  90.017768
_cell_angle_beta   89.988151
_cell_angle_gamma 119.97095
loop_
_atom_site_label
_atom_site_type_symbol
_atom_site_fract_x
_atom_site_fract_y
_atom_site_fract_z
_atom_type_partial_charge
C0 C 0.2728 0.44605 0.18849 0.0
O1 O 0.27145 0.45525 0.22348 0.0
O2 O 0.324 0.46998 0.2508 0.0
Zn3 Zn 0.30013 0.44149 0.24403 0.0
O4 O 0.28146 0.43537 0.29504 0.0
C5 C 0.32958 0.42827 0.23807 0.0
O6 O 0.34116 0.44704 0.2242 0.0
O7 O 0.28464 0.43867 0.18886 0.0
C8 C 0.28892 0.4397 0.33311 0.0
O9 O 0.30871 0.4479 0.33828 0.0
C10 C 0.32332 0.48512 0.26678 0.0
O11 O 0.30566 0.48305 0.27813 0.0
O12 O 0.31091 0.42196 0.24631 0.0
C13 C 0.82078 0.28515 0.52344 0.0
O14 O 0.81077 0.28973 0.5519 0.0
O15 O 0.84684 0.32968 0.59436 0.0
Zn16 Zn 0.85179 0.30605 0.58622 0.0
O17 O 0.83896 0.28659 0.63575 0.0
C18 C 0.89002 0.32325 0.62626 0.0
O19 O 0.87826 0.32211 0.65881 0.0
O20 O 0.83947 0.29103 0.53034 0.0
C21 C 0.84261 0.27219 0.64279 0.0
O22 O 0.85471 0.26958 0.61623 0.0
C23 C 0.83204 0.32812 0.6169 0.0
O24 O 0.81912 0.31047 0.63436 0.0
O25 O 0.88204 0.31698 0.58902 0.0
C26 C 0.54515 0.82363 0.85611 0.0
O27 O 0.53355 0.81252 0.8884 0.0
O28 O 0.52137 0.84651 0.9222 0.0
Zn29 Zn 0.55105 0.85443 0.91554 0.0
O30 O 0.56029 0.843 0.96415 0.0
C31 C 0.56274 0.89532 0.9391 0.0
O32 O 0.54532 0.88574 0.96007 0.0
O33 O 0.55456 0.84293 0.85959 0.0
C34 C 0.56339 0.85006 0.00261 0.0
O35 O 0.56036 0.86527 0.01181 0.0
C36 C 0.51055 0.83718 0.95511 0.0
O37 O 0.51841 0.83139 0.98619 0.0
O38 O 0.56843 0.8851 0.91612 0.0
C39 C 0.7137 0.53834 0.19114 0.0
O40 O 0.71363 0.52625 0.22187 0.0
O41 O 0.6658 0.51445 0.25846 0.0
Zn42 Zn 0.68968 0.54313 0.25464 0.0
O43 O 0.71037 0.54758 0.30084 0.0
C44 C 0.67063 0.56216 0.2987 0.0
O45 O 0.66958 0.54952 0.32918 0.0
O46 O 0.70366 0.54749 0.19697 0.0
C47 C 0.71975 0.56359 0.32386 0.0
O48 O 0.71604 0.57864 0.3184 0.0
C49 C 0.6621 0.504 0.29306 0.0
O50 O 0.67451 0.51179 0.32634 0.0
O51 O 0.67901 0.5625 0.26267 0.0
C52 C 0.16334 0.71018 0.50675 0.0
O53 O 0.16213 0.69256 0.51475 0.0
O54 O 0.15129 0.6815 0.60234 0.0
Zn55 Zn 0.14353 0.70305 0.59031 0.0
O56 O 0.15443 0.72407 0.63783 0.0
C57 C 0.10173 0.67088 0.5833 0.0
O58 O 0.11021 0.65997 0.57286 0.0
O59 O 0.1558 0.71729 0.53382 0.0
C60 C 0.14439 0.72211 0.67235 0.0
O61 O 0.12623 0.70601 0.67749 0.0
C62 C 0.14892 0.6733 0.63955 0.0
O63 O 0.14188 0.67943 0.67164 0.0
O64 O 0.113 0.68989 0.58992 0.0
C65 C 0.46448 0.17853 0.86199 0.0
O66 O 0.47594 0.18913 0.89488 0.0
O67 O 0.48343 0.15145 0.93312 0.0
Zn68 Zn 0.45523 0.14693 0.92236 0.0
O69 O 0.44771 0.16013 0.9699 0.0
C70 C 0.43058 0.10868 0.96178 0.0
O71 O 0.43817 0.12036 0.99621 0.0
O72 O 0.454 0.15923 0.86525 0.0
C73 C 0.43387 0.16476 0.96481 0.0
O74 O 0.42437 0.16112 0.92731 0.0
C75 C 0.49677 0.16641 0.95508 0.0
O76 O 0.49237 0.17987 0.97095 0.0
O77 O 0.43556 0.11673 0.92427 0.0
C78 C 0.56413 0.72553 0.47365 0.0
O79 O 0.57756 0.73617 0.4435 0.0
O80 O 0.52027 0.67249 0.39519 0.0
Zn81 Zn 0.54899 0.69546 0.40609 0.0
O82 O 0.55549 0.71738 0.36143 0.0
C83 C 0.57037 0.67829 0.36357 0.0
O84 O 0.5601 0.67942 0.3303 0.0
O85 O 0.55055 0.70722 0.46556 0.0
C86 C 0.57262 0.7274 0.34238 0.0
O87 O 0.58745 0.7238 0.3518 0.0
C88 C 0.51574 0.65394 0.39807 0.0
O89 O 0.52981 0.6496 0.40988 0.0
O90 O 0.56843 0.68467 0.40049 0.0
C91 C 0.83711 0.56876 0.81354 0.0
O92 O 0.83808 0.58047 0.78105 0.0
O93 O 0.85133 0.5274 0.74058 0.0
Zn94 Zn 0.8566 0.55579 0.75149 0.0
O95 O 0.84333 0.56253 0.70297 0.0
C96 C 0.89896 0.56825 0.7554 0.0
O97 O 0.89148 0.54935 0.76872 0.0
O98 O 0.84464 0.55716 0.80887 0.0
C99 C 0.84638 0.55877 0.66433 0.0
O100 O 0.8583 0.55103 0.65774 0.0
C101 C 0.83369 0.51179 0.7376 0.0
O102 O 0.81754 0.51369 0.74374 0.0
O103 O 0.88687 0.57499 0.74822 0.0
C104 C 0.28604 0.82668 0.14552 0.0
O105 O 0.29082 0.81666 0.11742 0.0
O106 O 0.32377 0.84793 0.06477 0.0
Zn107 Zn 0.30154 0.85463 0.07665 0.0
O108 O 0.27874 0.83995 0.03372 0.0
C109 C 0.32062 0.89252 0.03319 0.0
O110 O 0.31913 0.88021 0.00152 0.0
O111 O 0.2898 0.84456 0.136 0.0
C112 C 0.269 0.84782 0.01661 0.0
O113 O 0.27369 0.8665 0.02695 0.0
C114 C 0.32586 0.84174 0.02774 0.0
O115 O 0.31296 0.83916 0.99652 0.0
O116 O 0.31372 0.88504 0.07052 0.0
C117 C 0.44651 0.28749 0.4984 0.0
O118 O 0.45929 0.30716 0.49461 0.0
O119 O 0.46609 0.31294 0.39743 0.0
Zn120 Zn 0.43698 0.2915 0.4095 0.0
O121 O 0.42824 0.27059 0.36196 0.0
C122 C 0.42733 0.32374 0.41399 0.0
O123 O 0.44655 0.33458 0.42558 0.0
O124 O 0.43506 0.27784 0.46654 0.0
C125 C 0.41649 0.26936 0.33116 0.0
O126 O 0.40903 0.28173 0.33066 0.0
C127 C 0.4705 0.32103 0.35992 0.0
O128 O 0.45608 0.31484 0.33038 0.0
O129 O 0.41956 0.30468 0.40794 0.0
C130 C 0.15792 0.43359 0.80691 0.0
O131 O 0.15591 0.42104 0.77532 0.0
O132 O 0.14884 0.47876 0.73314 0.0
Zn133 Zn 0.14416 0.45023 0.74022 0.0
O134 O 0.16131 0.44569 0.69641 0.0
C135 C 0.10638 0.42934 0.69405 0.0
O136 O 0.11817 0.44044 0.662 0.0
O137 O 0.15312 0.44722 0.80002 0.0
C138 C 0.15547 0.42955 0.67419 0.0
O139 O 0.13689 0.41411 0.67915 0.0
C140 C 0.15462 0.48812 0.69704 0.0
O141 O 0.15809 0.4792 0.66415 0.0
O142 O 0.1142 0.43059 0.73129 0.0
C143 C 0.70724 0.15907 0.16285 0.0
O144 O 0.68851 0.15531 0.15658 0.0
O145 O 0.68018 0.14939 0.06298 0.0
Zn146 Zn 0.70401 0.14523 0.07352 0.0
O147 O 0.72531 0.16142 0.02893 0.0
C148 C 0.69112 0.10843 0.02693 0.0
O149 O 0.69617 0.1212 0.99421 0.0
O150 O 0.71629 0.15524 0.13266 0.0
C151 C 0.73959 0.15798 0.01883 0.0
O152 O 0.74082 0.14319 0.03833 0.0
C153 C 0.68156 0.16681 0.06103 0.0
O154 O 0.69932 0.18326 0.06764 0.0
O155 O 0.69372 0.11528 0.06554 0.0
H156 H 0.31007 0.38775 0.25953 0.0
H157 H 0.32553 0.36834 0.2874 0.0
H158 H 0.3853 0.42143 0.27387 0.0
H159 H 0.37004 0.44063 0.24452 0.0
H160 H 0.38729 0.38936 0.25277 0.0
H161 H 0.35893 0.40743 0.37273 0.0
H162 H 0.33193 0.40927 0.41387 0.0
H163 H 0.29695 0.34388 0.41896 0.0
H164 H 0.32363 0.34165 0.37728 0.0
H165 H 0.44217 0.36453 0.40259 0.0
H166 H 0.42415 0.38098 0.3724 0.0
H167 H 0.36869 0.32277 0.36595 0.0
H168 H 0.38662 0.3061 0.39591 0.0
H169 H 0.36357 0.35578 0.39632 0.0
H170 H 0.39506 0.33926 0.27892 0.0
H171 H 0.424 0.33948 0.24162 0.0
H172 H 0.45526 0.40487 0.23529 0.0
H173 H 0.42674 0.40508 0.27362 0.0
C174 C 0.32652 0.39519 0.26195 0.0
C175 C 0.33882 0.41577 0.25015 0.0
C176 C 0.33533 0.38412 0.27814 0.0
C177 C 0.35656 0.39356 0.28368 0.0
C178 C 0.36889 0.41383 0.27007 0.0
C179 C 0.36012 0.42481 0.25332 0.0
C180 C 0.36594 0.38268 0.30514 0.0
C181 C 0.3822 0.38219 0.28432 0.0
C182 C 0.35917 0.37309 0.34615 0.0
C183 C 0.34317 0.37438 0.37148 0.0
C184 C 0.34541 0.39345 0.38236 0.0
C185 C 0.33018 0.39456 0.40581 0.0
C186 C 0.31271 0.3767 0.41891 0.0
C187 C 0.31047 0.3577 0.40872 0.0
C188 C 0.32565 0.3565 0.3852 0.0
C189 C 0.42607 0.35524 0.39543 0.0
C190 C 0.41583 0.33399 0.4014 0.0
C191 C 0.41583 0.36466 0.37801 0.0
C192 C 0.39519 0.35302 0.36652 0.0
C193 C 0.38465 0.33197 0.37453 0.0
C194 C 0.39492 0.32249 0.39156 0.0
C195 C 0.38492 0.36267 0.34405 0.0
C196 C 0.36853 0.36289 0.36467 0.0
C197 C 0.39179 0.37232 0.30324 0.0
C198 C 0.40883 0.37219 0.27958 0.0
C199 C 0.40819 0.3537 0.26997 0.0
C200 C 0.42452 0.35375 0.24865 0.0
C201 C 0.44151 0.37219 0.2363 0.0
C202 C 0.44214 0.39061 0.24507 0.0
C203 C 0.4259 0.39065 0.26661 0.0
H204 H 0.45415 0.3722 0.21982 0.0
H205 H 0.30092 0.37759 0.43705 0.0
H206 H 0.91955 0.33182 0.56502 0.0
H207 H 0.95634 0.34783 0.57682 0.0
H208 H 0.9473 0.35034 0.71466 0.0
H209 H 0.91065 0.33477 0.70306 0.0
H210 H 0.97705 0.38559 0.68745 0.0
H211 H 0.95945 0.31586 0.67083 0.0
H212 H 0.94428 0.28221 0.63528 0.0
H213 H 0.98317 0.30922 0.52457 0.0
H214 H 0.99839 0.34311 0.55922 0.0
H215 H 0.07656 0.41113 0.75559 0.0
H216 H 0.0397 0.39112 0.74368 0.0
H217 H 0.04928 0.39755 0.60509 0.0
H218 H 0.08615 0.41773 0.61664 0.0
H219 H 0.01958 0.35734 0.63291 0.0
H220 H 0.03637 0.42734 0.65072 0.0
H221 H 0.05162 0.46053 0.68825 0.0
H222 H 0.01388 0.4319 0.79973 0.0
H223 H 0.99861 0.39846 0.76306 0.0
C224 C 0.9254 0.33568 0.59785 0.0
C225 C 0.91219 0.33208 0.63308 0.0
C226 C 0.94642 0.34474 0.60458 0.0
C227 C 0.95457 0.35013 0.64669 0.0
C228 C 0.94136 0.34634 0.68189 0.0
C229 C 0.9204 0.3374 0.67519 0.0
C230 C 0.97691 0.36048 0.65402 0.0
C231 C 0.98627 0.37923 0.67606 0.0
C232 C 0.98903 0.35241 0.6384 0.0
C233 C 0.97991 0.33206 0.61744 0.0
C234 C 0.96465 0.31466 0.63874 0.0
C235 C 0.95606 0.29554 0.61878 0.0
C236 C 0.96272 0.29359 0.57764 0.0
C237 C 0.97801 0.31076 0.55641 0.0
C238 C 0.98663 0.32993 0.57621 0.0
C239 C 0.07084 0.40815 0.72257 0.0
C240 C 0.08424 0.41612 0.68704 0.0
C241 C 0.0498 0.39675 0.71585 0.0
C242 C 0.04183 0.39301 0.67353 0.0
C243 C 0.05518 0.40031 0.63798 0.0
C244 C 0.07621 0.4119 0.64467 0.0
C245 C 0.01954 0.38228 0.66643 0.0
C246 C 0.01025 0.36356 0.64436 0.0
C247 C 0.00743 0.39027 0.6823 0.0
C248 C 0.01652 0.41037 0.70433 0.0
C249 C 0.03146 0.42809 0.68338 0.0
C250 C 0.04007 0.44695 0.70447 0.0
C251 C 0.03376 0.44832 0.7464 0.0
C252 C 0.01878 0.43082 0.76728 0.0
C253 C 0.01013 0.41191 0.74635 0.0
H254 H 0.04045 0.46294 0.76267 0.0
H255 H 0.95606 0.27877 0.56225 0.0
H256 H 0.56206 0.91841 0.00594 0.0
H257 H 0.5852 0.95457 0.01891 0.0
H258 H 0.61689 0.95861 0.89936 0.0
H259 H 0.59427 0.92199 0.88737 0.0
H260 H 0.64343 0.97931 0.95765 0.0
H261 H 0.58274 0.97756 0.91037 0.0
H262 H 0.54603 0.96624 0.90833 0.0
H263 H 0.54876 0.98608 0.04015 0.0
H264 H 0.58544 0.99727 0.04319 0.0
H265 H 0.6902 0.0892 0.95129 0.0
H266 H 0.66998 0.05266 0.93547 0.0
H267 H 0.64761 0.04119 0.06724 0.0
H268 H 0.66803 0.07765 0.0836 0.0
H269 H 0.61693 0.02513 -0.00104 0.0
H270 H 0.67916 0.02679 0.04263 0.0
H271 H 0.71609 0.03928 0.03907 0.0
H272 H 0.71032 0.02115 0.90521 0.0
H273 H 0.67338 0.00881 0.9078 0.0
C274 C 0.57387 0.92702 0.98224 0.0
C275 C 0.57628 0.91743 0.94546 0.0
C276 C 0.58706 0.94774 0.98959 0.0
C277 C 0.60256 0.95947 0.95967 0.0
C278 C 0.60501 0.94991 0.92286 0.0
C279 C 0.59205 0.92902 0.91594 0.0
C280 C 0.61642 0.98159 0.96751 0.0
C281 C 0.63759 0.98937 0.96599 0.0
C282 C 0.60887 0.99476 0.97882 0.0
C283 C 0.58681 0.9881 0.97711 0.0
C284 C 0.57548 0.97938 0.93902 0.0
C285 C 0.55468 0.97301 0.93767 0.0
C286 C 0.54506 0.9754 0.97412 0.0
C287 C 0.55623 0.98422 0.01196 0.0
C288 C 0.57703 0.9906 0.0135 0.0
C289 C 0.68118 0.07886 0.97705 0.0
C290 C 0.68063 0.08627 0.01865 0.0
C291 C 0.66969 0.05803 0.96797 0.0
C292 C 0.65734 0.04433 0.00021 0.0
C293 C 0.65709 0.0516 0.042 0.0
C294 C 0.66881 0.07239 0.05131 0.0
C295 C 0.64374 0.02259 0.98965 0.0
C296 C 0.62265 0.01498 0.99048 0.0
C297 C 0.65136 0.00974 0.9768 0.0
C298 C 0.67354 0.01708 0.97529 0.0
C299 C 0.68579 0.02564 0.01232 0.0
C300 C 0.70672 0.03265 0.01051 0.0
C301 C 0.71556 0.03106 0.97191 0.0
C302 C 0.70347 0.0224 0.93507 0.0
C303 C 0.68253 0.01538 0.93671 0.0
H304 H 0.73176 0.0365 0.97057 0.0
H305 H 0.52896 0.97045 0.97301 0.0
H306 H 0.65771 0.56967 0.37562 0.0
H307 H 0.64279 0.59131 0.38816 0.0
H308 H 0.64895 0.6066 0.2518 0.0
H309 H 0.66447 0.58541 0.23922 0.0
H310 H 0.65892 0.63937 0.29882 0.0
H311 H 0.60282 0.57086 0.29624 0.0
H312 H 0.5832 0.53462 0.3173 0.0
H313 H 0.58008 0.55176 0.44889 0.0
H314 H 0.59993 0.58814 0.42873 0.0
H315 H 0.58383 0.67023 0.288 0.0
H316 H 0.60334 0.65266 0.27929 0.0
H317 H 0.60493 0.64683 0.41844 0.0
H318 H 0.58556 0.66457 0.42753 0.0
H319 H 0.59162 0.61004 0.37182 0.0
H320 H 0.64684 0.67931 0.3709 0.0
H321 H 0.66533 0.71512 0.34655 0.0
H322 H 0.66854 0.6958 0.21703 0.0
H323 H 0.6498 0.65982 0.24046 0.0
C324 C 0.65593 0.57767 0.34829 0.0
C325 C 0.66212 0.57572 0.30636 0.0
C326 C 0.64734 0.58999 0.35549 0.0
C327 C 0.64442 0.6003 0.32079 0.0
C328 C 0.65101 0.59874 0.27904 0.0
C329 C 0.65982 0.58658 0.27188 0.0
C330 C 0.63421 0.61244 0.32794 0.0
C331 C 0.6441 0.63288 0.31434 0.0
C332 C 0.61502 0.60408 0.34884 0.0
C333 C 0.60305 0.58222 0.36106 0.0
C334 C 0.59809 0.5669 0.32974 0.0
C335 C 0.5869 0.54634 0.3415 0.0
C336 C 0.58045 0.54089 0.38443 0.0
C337 C 0.58512 0.556 0.41566 0.0
C338 C 0.59632 0.5766 0.40408 0.0
C339 C 0.58846 0.66535 0.31677 0.0
C340 C 0.58315 0.66874 0.35845 0.0
C341 C 0.59967 0.6554 0.31173 0.0
C342 C 0.60561 0.64855 0.34824 0.0
C343 C 0.60049 0.65206 0.38991 0.0
C344 C 0.5895 0.66224 0.39501 0.0
C345 C 0.61634 0.63688 0.34274 0.0
C346 C 0.6065 0.61652 0.35654 0.0
C347 C 0.63541 0.64523 0.32152 0.0
C348 C 0.64674 0.66686 0.30736 0.0
C349 C 0.65132 0.68268 0.33714 0.0
C350 C 0.66188 0.70302 0.32352 0.0
C351 C 0.66806 0.70773 0.28025 0.0
C352 C 0.66373 0.69212 0.25052 0.0
C353 C 0.65315 0.67176 0.26397 0.0
H354 H 0.67624 0.72348 0.26977 0.0
H355 H 0.57178 0.52496 0.39347 0.0
H356 H 0.92046 0.60877 0.73423 0.0
H357 H 0.95521 0.62769 0.70562 0.0
H358 H 0.96076 0.57384 0.71733 0.0
H359 H 0.9264 0.55511 0.74734 0.0
H360 H 0.99506 0.60554 0.73911 0.0
H361 H 0.94872 0.58872 0.61916 0.0
H362 H 0.9202 0.58773 0.5784 0.0
H363 H 0.95173 0.65319 0.57468 0.0
H364 H 0.98034 0.65456 0.61598 0.0
H365 H 0.0751 0.63004 0.59148 0.0
H366 H 0.04024 0.61375 0.61945 0.0
H367 H 0.04389 0.67236 0.6278 0.0
H368 H 0.07885 0.68887 0.60004 0.0
H369 H 0.00554 0.63979 0.59617 0.0
H370 H 0.05263 0.65546 0.71526 0.0
H371 H 0.0812 0.65502 0.75273 0.0
H372 H 0.04768 0.58954 0.75448 0.0
H373 H 0.01903 0.58959 0.71635 0.0
C374 C 0.92919 0.60105 0.73121 0.0
C375 C 0.92064 0.58041 0.74274 0.0
C376 C 0.949 0.61184 0.71459 0.0
C377 C 0.96043 0.60205 0.7084 0.0
C378 C 0.95221 0.58169 0.72163 0.0
C379 C 0.93254 0.57099 0.73878 0.0
C380 C 0.98068 0.61272 0.68694 0.0
C381 C 0.99726 0.61284 0.70768 0.0
C382 C 0.98368 0.62253 0.64614 0.0
C383 C 0.96657 0.62174 0.62105 0.0
C384 C 0.94951 0.6029 0.60991 0.0
C385 C 0.93334 0.60227 0.58668 0.0
C386 C 0.93413 0.62039 0.57406 0.0
C387 C 0.95113 0.63917 0.58454 0.0
C388 C 0.96733 0.63988 0.60784 0.0
C389 C 0.0684 0.63946 0.59854 0.0
C390 C 0.07979 0.66077 0.59393 0.0
C391 C 0.04851 0.63012 0.61463 0.0
C392 C 0.03967 0.64192 0.62613 0.0
C393 C 0.05053 0.66304 0.61917 0.0
C394 C 0.07049 0.67243 0.60343 0.0
C395 C 0.01968 0.63238 0.64824 0.0
C396 C 0.00324 0.63252 0.62766 0.0
C397 C 0.01672 0.62258 0.6889 0.0
C398 C 0.03376 0.62253 0.71262 0.0
C399 C 0.05141 0.64097 0.72338 0.0
C400 C 0.06761 0.64079 0.74476 0.0
C401 C 0.06627 0.62227 0.7559 0.0
C402 C 0.0487 0.60388 0.7458 0.0
C403 C 0.03247 0.60397 0.72434 0.0
H404 H 0.07884 0.62216 0.77242 0.0
H405 H 0.92159 0.61987 0.55609 0.0
H406 H 0.33398 0.9123 0.95579 0.0
H407 H 0.35083 0.9489 0.94234 0.0
H408 H 0.34618 0.95961 0.07848 0.0
H409 H 0.3289 0.92284 0.09218 0.0
H410 H 0.33725 0.98328 0.02821 0.0
H411 H 0.39065 0.96693 0.03635 0.0
H412 H 0.40859 0.94824 0.018 0.0
H413 H 0.41411 0.96787 0.88532 0.0
H414 H 0.3959 0.98643 0.90272 0.0
H415 H 0.41406 0.08779 0.03688 0.0
H416 H 0.39335 0.05093 0.04644 0.0
H417 H 0.39608 0.04226 0.90857 0.0
H418 H 0.41691 0.07923 0.89864 0.0
H419 H 0.40537 0.01754 0.95789 0.0
H420 H 0.35273 0.03515 0.95197 0.0
H421 H 0.33547 0.05425 0.97247 0.0
H422 H 0.32943 0.03274 0.10374 0.0
H423 H 0.34692 0.01373 0.08417 0.0
C424 C 0.33648 0.9224 0.98293 0.0
C425 C 0.33024 0.91468 0.02514 0.0
C426 C 0.34617 0.94334 0.97516 0.0
C427 C 0.35003 0.95699 0.00951 0.0
C428 C 0.34338 0.94932 0.05154 0.0
C429 C 0.33358 0.92833 0.05933 0.0
C430 C 0.36135 0.97928 0.00158 0.0
C431 C 0.35225 0.99082 0.01331 0.0
C432 C 0.38074 0.98902 0.98133 0.0
C433 C 0.39174 0.97791 0.97076 0.0
C434 C 0.39554 0.96713 0.00318 0.0
C435 C 0.40577 0.95658 0.99296 0.0
C436 C 0.41245 0.95684 0.95052 0.0
C437 C 0.40891 0.96766 0.91818 0.0
C438 C 0.39864 0.97821 0.92821 0.0
C439 C 0.41017 0.07807 0.0085 0.0
C440 C 0.41715 0.08642 0.96699 0.0
C441 C 0.39825 0.05701 0.01403 0.0
C442 C 0.39308 0.0439 0.97817 0.0
C443 C 0.39989 0.05216 0.93662 0.0
C444 C 0.41173 0.07327 0.93101 0.0
C445 C 0.38127 0.02153 0.98449 0.0
C446 C 0.39032 0.00997 0.97256 0.0
C447 C 0.36193 0.01183 0.00485 0.0
C448 C 0.3513 0.02316 0.01667 0.0
C449 C 0.34787 0.03462 0.98529 0.0
C450 C 0.33802 0.04541 0.99673 0.0
C451 C 0.33141 0.04475 0.0394 0.0
C452 C 0.33458 0.03325 0.07071 0.0
C453 C 0.34444 0.02245 0.05944 0.0
H454 H 0.32378 0.05311 0.0482 0.0
H455 H 0.42044 0.94873 0.94272 0.0
H456 H 0.17561 0.4108 0.82684 0.0
H457 H 0.19361 0.41185 0.89336 0.0
H458 H 0.17944 0.45582 0.94808 0.0
H459 H 0.16185 0.45528 0.88101 0.0
H460 H 0.21802 0.46783 0.96027 0.0
H461 H 0.15563 0.40533 0.98317 0.0
H462 H 0.12745 0.37097 0.96513 0.0
H463 H 0.16976 0.34903 0.95466 0.0
H464 H 0.19825 0.38334 0.97208 0.0
H465 H 0.24888 0.4631 0.17554 0.0
H466 H 0.22834 0.45995 0.11173 0.0
H467 H 0.24809 0.42164 0.0498 0.0
H468 H 0.26872 0.42466 0.11371 0.0
H469 H 0.20628 0.40652 0.04252 0.0
H470 H 0.26865 0.46978 0.01894 0.0
H471 H 0.29632 0.50419 0.03847 0.0
H472 H 0.25293 0.52464 0.05207 0.0
H473 H 0.22495 0.49025 0.0332 0.0
C474 C 0.17613 0.42055 0.85317 0.0
C475 C 0.16731 0.43298 0.84861 0.0
C476 C 0.18636 0.42106 0.89131 0.0
C477 C 0.18771 0.43377 0.92594 0.0
C478 C 0.1786 0.44591 0.92178 0.0
C479 C 0.1685 0.44554 0.88347 0.0
C480 C 0.19952 0.43515 0.96556 0.0
C481 C 0.2152 0.45444 0.97864 0.0
C482 C 0.1962 0.41763 0.98897 0.0
C483 C 0.1791 0.39696 0.97854 0.0
C484 C 0.15895 0.39322 0.97669 0.0
C485 C 0.14292 0.37374 0.96664 0.0
C486 C 0.14682 0.35784 0.95865 0.0
C487 C 0.16677 0.36137 0.96081 0.0
C488 C 0.18286 0.38082 0.97082 0.0
C489 C 0.24889 0.45401 0.14838 0.0
C490 C 0.26049 0.44418 0.14963 0.0
C491 C 0.23718 0.45227 0.1119 0.0
C492 C 0.23684 0.44069 0.07597 0.0
C493 C 0.24818 0.43066 0.07724 0.0
C494 C 0.26001 0.43247 0.11368 0.0
C495 C 0.22466 0.43916 0.03704 0.0
C496 C 0.20898 0.41987 0.02412 0.0
C497 C 0.22786 0.45667 0.01393 0.0
C498 C 0.24468 0.47738 0.02507 0.0
C499 C 0.26499 0.48157 0.02644 0.0
C500 C 0.28073 0.50107 0.03733 0.0
C501 C 0.27638 0.51657 0.04662 0.0
C502 C 0.25627 0.51261 0.04492 0.0
C503 C 0.24047 0.49312 0.0341 0.0
H504 H 0.28859 0.53167 0.05504 0.0
H505 H 0.13439 0.34277 0.95087 0.0
H506 H 0.83484 0.26776 0.46482 0.0
H507 H 0.81604 0.24513 0.40432 0.0
H508 H 0.76374 0.25123 0.43528 0.0
H509 H 0.78222 0.27344 0.49623 0.0
H510 H 0.75247 0.21248 0.42144 0.0
H511 H 0.79517 0.27616 0.34784 0.0
H512 H 0.8277 0.30655 0.32766 0.0
H513 H 0.84923 0.26825 0.2746 0.0
H514 H 0.8169 0.23762 0.29498 0.0
H515 H 0.69489 0.17517 0.22763 0.0
H516 H 0.7147 0.19513 0.29007 0.0
H517 H 0.7647 0.1866 0.25114 0.0
H518 H 0.74515 0.16701 0.188 0.0
H519 H 0.77805 0.22532 0.26974 0.0
H520 H 0.73458 0.16159 0.34017 0.0
H521 H 0.70192 0.13127 0.35997 0.0
H522 H 0.68175 0.16956 0.41885 0.0
H523 H 0.71418 0.20014 0.3989 0.0
C524 C 0.81938 0.26438 0.45855 0.0
C525 C 0.81002 0.27239 0.48531 0.0
C526 C 0.80867 0.25149 0.42391 0.0
C527 C 0.78852 0.2466 0.41509 0.0
C528 C 0.77924 0.25474 0.44156 0.0
C529 C 0.78987 0.2675 0.4763 0.0
C530 C 0.77686 0.23269 0.37888 0.0
C531 C 0.75795 0.2154 0.38817 0.0
C532 C 0.78429 0.23619 0.33571 0.0
C533 C 0.8037 0.2546 0.32335 0.0
C534 C 0.8069 0.27422 0.33218 0.0
C535 C 0.82529 0.29149 0.32064 0.0
C536 C 0.84055 0.28933 0.29997 0.0
C537 C 0.83742 0.2699 0.29067 0.0
C538 C 0.81906 0.25258 0.30217 0.0
C539 C 0.71001 0.17733 0.2326 0.0
C540 C 0.71845 0.16952 0.20282 0.0
C541 C 0.7213 0.1887 0.26842 0.0
C542 C 0.74113 0.19222 0.27551 0.0
C543 C 0.74944 0.18409 0.24629 0.0
C544 C 0.73821 0.17284 0.2103 0.0
C545 C 0.75354 0.2052 0.31221 0.0
C546 C 0.7726 0.22231 0.30303 0.0
C547 C 0.74625 0.20154 0.35549 0.0
C548 C 0.72676 0.18317 0.36771 0.0
C549 C 0.72312 0.16355 0.35707 0.0
C550 C 0.70466 0.14632 0.36837 0.0
C551 C 0.68975 0.14849 0.39057 0.0
C552 C 0.6933 0.1679 0.40162 0.0
C553 C 0.71173 0.18519 0.39037 0.0
H554 H 0.67547 0.13513 0.39928 0.0
H555 H 0.85478 0.30272 0.29106 0.0
H556 H 0.52671 0.78286 0.83864 0.0
H557 H 0.5311 0.76643 0.77453 0.0
H558 H 0.57364 0.82535 0.72113 0.0
H559 H 0.56909 0.84196 0.78493 0.0
H560 H 0.54722 0.80119 0.66064 0.0
H561 H 0.59034 0.79522 0.76629 0.0
H562 H 0.59909 0.78626 0.83697 0.0
H563 H 0.55454 0.72328 0.81633 0.0
H564 H 0.54532 0.73191 0.74575 0.0
H565 H 0.58701 0.76575 0.4956 0.0
H566 H 0.58466 0.78232 0.56173 0.0
H567 H 0.53814 0.72421 0.61132 0.0
H568 H 0.54036 0.70744 0.54517 0.0
H569 H 0.56725 0.74818 0.67367 0.0
H570 H 0.5239 0.75465 0.56834 0.0
H571 H 0.51563 0.76388 0.49743 0.0
H572 H 0.56145 0.82647 0.5176 0.0
H573 H 0.5702 0.81755 0.58841 0.0
C574 C 0.537 0.79235 0.81328 0.0
C575 C 0.5476 0.81372 0.81694 0.0
C576 C 0.53957 0.78292 0.77674 0.0
C577 C 0.55291 0.79466 0.74334 0.0
C578 C 0.56331 0.81601 0.74661 0.0
C579 C 0.56072 0.82547 0.78312 0.0
C580 C 0.55579 0.78465 0.70473 0.0
C581 C 0.5519 0.78983 0.66347 0.0
C582 C 0.56148 0.7695 0.70851 0.0
C583 C 0.567 0.76425 0.75092 0.0
C584 C 0.58229 0.77949 0.77697 0.0
C585 C 0.58736 0.77446 0.81699 0.0
C586 C 0.57734 0.75422 0.83119 0.0
C587 C 0.56227 0.73896 0.80533 0.0
C588 C 0.55713 0.7439 0.76529 0.0
C589 C 0.57639 0.75644 0.52068 0.0
C590 C 0.56378 0.73529 0.51503 0.0
C591 C 0.57502 0.76596 0.55837 0.0
C592 C 0.56107 0.7545 0.59111 0.0
C593 C 0.54897 0.7333 0.58632 0.0
C594 C 0.55022 0.72377 0.54847 0.0
C595 C 0.55869 0.76476 0.62977 0.0
C596 C 0.56264 0.7596 0.67096 0.0
C597 C 0.55314 0.77998 0.62596 0.0
C598 C 0.54786 0.78539 0.58346 0.0
C599 C 0.53234 0.77035 0.55749 0.0
C600 C 0.52753 0.77553 0.51735 0.0
C601 C 0.53804 0.79574 0.50296 0.0
C602 C 0.55334 0.81082 0.52876 0.0
C603 C 0.55822 0.80571 0.56891 0.0
H604 H 0.5343 0.79972 0.47188 0.0
H605 H 0.58128 0.75036 0.86217 0.0
H606 H 0.71785 0.56283 0.1218 0.0
H607 H 0.73945 0.56959 0.05772 0.0
H608 H 0.75918 0.52889 0.10681 0.0
H609 H 0.73785 0.5222 0.17109 0.0
H610 H 0.79099 0.56416 0.07793 0.0
H611 H 0.72475 0.51416 0.02518 0.0
H612 H 0.68805 0.49975 0.01069 0.0
H613 H 0.70105 0.55163 0.93171 0.0
H614 H 0.73784 0.56649 0.94622 0.0
H615 H 0.83292 0.54685 0.88731 0.0
H616 H 0.81287 0.54392 0.95191 0.0
H617 H 0.7962 0.58574 0.89567 0.0
H618 H 0.81611 0.58868 0.83073 0.0
H619 H 0.76333 0.55192 0.92791 0.0
H620 H 0.82983 0.60115 0.97785 0.0
H621 H 0.86652 0.61534 0.99209 0.0
H622 H 0.85311 0.5649 0.07619 0.0
H623 H 0.81633 0.55024 0.06196 0.0
C624 C 0.72672 0.55525 0.11887 0.0
C625 C 0.7261 0.54195 0.1515 0.0
C626 C 0.73902 0.5591 0.0822 0.0
C627 C 0.75082 0.54964 0.07741 0.0
C628 C 0.75022 0.53637 0.10992 0.0
C629 C 0.73794 0.5325 0.14654 0.0
C630 C 0.76399 0.5537 0.03877 0.0
C631 C 0.78492 0.56128 0.04513 0.0
C632 C 0.75612 0.55044 0.99598 0.0
C633 C 0.73402 0.54153 0.98718 0.0
C634 C 0.71977 0.52258 0.00503 0.0
C635 C 0.69895 0.51431 0.99675 0.0
C636 C 0.69222 0.5248 0.9704 0.0
C637 C 0.70629 0.54355 0.95217 0.0
C638 C 0.72712 0.55189 0.96039 0.0
C639 C 0.82513 0.55556 0.88879 0.0
C640 C 0.82611 0.56799 0.85385 0.0
C641 C 0.81374 0.55392 0.92581 0.0
C642 C 0.80316 0.56472 0.92867 0.0
C643 C 0.80426 0.57729 0.89408 0.0
C644 C 0.81571 0.579 0.85707 0.0
C645 C 0.79031 0.56222 0.96708 0.0
C646 C 0.76943 0.55493 0.96069 0.0
C647 C 0.79822 0.56572 0.00983 0.0
C648 C 0.82033 0.5745 0.01851 0.0
C649 C 0.83471 0.59299 -0.00091 0.0
C650 C 0.85552 0.60113 0.00722 0.0
C651 C 0.86214 0.591 0.03494 0.0
C652 C 0.84796 0.57272 0.05468 0.0
C653 C 0.82713 0.56449 0.04663 0.0
H654 H 0.87826 0.59734 0.04121 0.0
H655 H 0.67609 0.51838 0.96402 0.0
H656 H 0.18454 0.70123 0.44732 0.0
H657 H 0.20574 0.72268 0.38779 0.0
H658 H 0.18993 0.76845 0.42083 0.0
H659 H 0.16854 0.74703 0.48038 0.0
H660 H 0.18919 0.76238 0.33296 0.0
H661 H 0.23502 0.77526 0.4512 0.0
H662 H 0.25104 0.76638 0.51058 0.0
H663 H 0.27211 0.73815 0.41905 0.0
H664 H 0.25595 0.74661 0.35916 0.0
H665 H 0.26777 0.83995 0.20364 0.0
H666 H 0.24738 0.82167 0.26728 0.0
H667 H 0.25894 0.77229 0.2419 0.0
H668 H 0.27934 0.79042 0.17846 0.0
H669 H 0.26237 0.78229 0.32864 0.0
H670 H 0.21493 0.76796 0.21115 0.0
H671 H 0.19891 0.77692 0.15187 0.0
H672 H 0.18101 0.80822 0.24256 0.0
H673 H 0.1972 0.79969 0.30232 0.0
C674 C 0.18543 0.71579 0.44179 0.0
C675 C 0.17494 0.72247 0.46876 0.0
C676 C 0.19764 0.72807 0.40788 0.0
C677 C 0.19963 0.74727 0.40036 0.0
C678 C 0.18865 0.75371 0.42625 0.0
C679 C 0.17647 0.74146 0.46028 0.0
C680 C 0.21343 0.76071 0.36585 0.0
C681 C 0.20526 0.76701 0.33235 0.0
C682 C 0.23432 0.76648 0.36482 0.0
C683 C 0.2441 0.7614 0.40074 0.0
C684 C 0.24293 0.76701 0.44377 0.0
C685 C 0.25206 0.76208 0.47752 0.0
C686 C 0.26254 0.75166 0.46861 0.0
C687 C 0.26396 0.7462 0.42591 0.0
C688 C 0.25483 0.75107 0.39204 0.0
C689 C 0.26613 0.82529 0.21185 0.0
C690 C 0.27506 0.81657 0.18588 0.0
C691 C 0.25441 0.81484 0.24808 0.0
C692 C 0.2515 0.79555 0.25894 0.0
C693 C 0.26099 0.78715 0.23398 0.0
C694 C 0.27258 0.79751 0.19766 0.0
C695 C 0.23808 0.78375 0.29553 0.0
C696 C 0.24633 0.77778 0.32944 0.0
C697 C 0.21728 0.77831 0.29696 0.0
C698 C 0.20748 0.78339 0.26111 0.0
C699 C 0.20774 0.77691 0.21839 0.0
C700 C 0.1986 0.78188 0.18471 0.0
C701 C 0.189 0.79318 0.19342 0.0
C702 C 0.18848 0.7995 0.23585 0.0
C703 C 0.19763 0.79459 0.26964 0.0
H704 H 0.18193 0.79701 0.1673 0.0
H705 H 0.26961 0.74786 0.49478 0.0
H706 H 0.48545 0.21936 0.84521 0.0
H707 H 0.48131 0.2372 0.78353 0.0
H708 H 0.43524 0.17983 0.72991 0.0
H709 H 0.4395 0.16175 0.79138 0.0
H710 H 0.46114 0.20437 0.66792 0.0
H711 H 0.42177 0.21059 0.78246 0.0
H712 H 0.41549 0.21885 0.85634 0.0
H713 H 0.46166 0.28145 0.83809 0.0
H714 H 0.46844 0.2735 0.7643 0.0
H715 H 0.42306 0.24667 0.51477 0.0
H716 H 0.42511 0.22785 0.57715 0.0
H717 H 0.47239 0.28393 0.63305 0.0
H718 H 0.47032 0.30297 0.57091 0.0
H719 H 0.44474 0.25933 0.69388 0.0
H720 H 0.4847 0.25272 0.58015 0.0
H721 H 0.49103 0.24434 0.50642 0.0
H722 H 0.44343 0.18221 0.52337 0.0
H723 H 0.43663 0.1903 0.59703 0.0
C724 C 0.47449 0.21049 0.82025 0.0
C725 C 0.46271 0.18913 0.82332 0.0
C726 C 0.47208 0.22074 0.7851 0.0
C727 C 0.45773 0.20987 0.75254 0.0
C728 C 0.44634 0.1885 0.75483 0.0
C729 C 0.44878 0.17821 0.78998 0.0
C730 C 0.45457 0.22087 0.71626 0.0
C731 C 0.45725 0.21617 0.67355 0.0
C732 C 0.44989 0.23654 0.72373 0.0
C733 C 0.44574 0.24141 0.76798 0.0
C734 C 0.43069 0.22609 0.79431 0.0
C735 C 0.42703 0.23072 0.83616 0.0
C736 C 0.4382 0.25065 0.85193 0.0
C737 C 0.45303 0.26601 0.82584 0.0
C738 C 0.45678 0.26146 0.78398 0.0
C739 C 0.4338 0.25506 0.54046 0.0
C740 C 0.44664 0.27632 0.53772 0.0
C741 C 0.435 0.24425 0.57601 0.0
C742 C 0.44912 0.25447 0.60936 0.0
C743 C 0.46144 0.27576 0.60753 0.0
C744 C 0.46026 0.2866 0.57196 0.0
C745 C 0.45139 0.24288 0.6456 0.0
C746 C 0.44856 0.24747 0.68828 0.0
C747 C 0.45589 0.22708 0.63812 0.0
C748 C 0.46002 0.22217 0.59392 0.0
C749 C 0.47548 0.23731 0.56802 0.0
C750 C 0.47917 0.23261 0.52627 0.0
C751 C 0.4676 0.21277 0.51018 0.0
C752 C 0.45236 0.19758 0.53586 0.0
C753 C 0.44859 0.20221 0.57762 0.0
H754 H 0.47049 0.20916 0.47785 0.0
H755 H 0.43534 0.2542 0.88434 0.0
H756 H 0.19687 0.45262 0.67221 0.0
H757 H 0.21997 0.45225 0.61737 0.0
H758 H 0.16876 0.40444 0.54822 0.0
H759 H 0.14562 0.40415 0.60417 0.0
H760 H 0.1992 0.39751 0.54537 0.0
H761 H 0.19167 0.45563 0.51734 0.0
H762 H 0.19189 0.48752 0.53499 0.0
H763 H 0.25567 0.51655 0.56575 0.0
H764 H 0.25577 0.48472 0.54889 0.0
H765 H 0.24736 0.41705 0.33646 0.0
H766 H 0.22527 0.41333 0.39799 0.0
H767 H 0.27811 0.45182 0.47592 0.0
H768 H 0.30037 0.45546 0.41474 0.0
H769 H 0.24743 0.46317 0.47472 0.0
H770 H 0.2541 0.40391 0.498 0.0
H771 H 0.25266 0.37181 0.47671 0.0
H772 H 0.1887 0.3448 0.44951 0.0
H773 H 0.18982 0.37686 0.47001 0.0
C774 C 0.19055 0.44195 0.64543 0.0
C775 C 0.16944 0.42855 0.64218 0.0
C776 C 0.20375 0.4418 0.61403 0.0
C777 C 0.19606 0.42864 0.57812 0.0
C778 C 0.17503 0.41478 0.57554 0.0
C779 C 0.16183 0.41466 0.60744 0.0
C780 C 0.2099 0.42977 0.54272 0.0
C781 C 0.20957 0.41183 0.5296 0.0
C782 C 0.22364 0.44851 0.52247 0.0
C783 C 0.22368 0.46773 0.53225 0.0
C784 C 0.20571 0.46877 0.52814 0.0
C785 C 0.20578 0.48684 0.53797 0.0
C786 C 0.22377 0.50403 0.55158 0.0
C787 C 0.24174 0.50321 0.55526 0.0
C788 C 0.24175 0.48517 0.54555 0.0
C789 C 0.25429 0.4246 0.36679 0.0
C790 C 0.27559 0.43658 0.37079 0.0
C791 C 0.24166 0.42239 0.4019 0.0
C792 C 0.25011 0.43225 0.4414 0.0
C793 C 0.27135 0.44408 0.44563 0.0
C794 C 0.28402 0.44609 0.41072 0.0
C795 C 0.23672 0.43097 0.47764 0.0
C796 C 0.2371 0.44889 0.49072 0.0
C797 C 0.22282 0.4122 0.49726 0.0
C798 C 0.2221 0.39286 0.48515 0.0
C799 C 0.23977 0.39119 0.48712 0.0
C800 C 0.239 0.37299 0.47526 0.0
C801 C 0.22061 0.35629 0.46167 0.0
C802 C 0.20294 0.35775 0.46 0.0
C803 C 0.20363 0.37593 0.47177 0.0
H804 H 0.22005 0.34221 0.45251 0.0
H805 H 0.22378 0.51801 0.55919 0.0
H806 H 0.81844 0.27493 0.70489 0.0
H807 H 0.80536 0.25463 0.77074 0.0
H808 H 0.83447 0.22009 0.7357 0.0
H809 H 0.8476 0.24034 0.6691 0.0
H810 H 0.79519 0.1957 0.76511 0.0
H811 H 0.85535 0.25468 0.81358 0.0
H812 H 0.87984 0.29145 0.82095 0.0
H813 H 0.8344 0.29999 0.88565 0.0
H814 H 0.80952 0.26332 0.87806 0.0
H815 H 0.767 0.15023 0.9771 0.0
H816 H 0.78894 0.16897 0.91546 0.0
H817 H 0.76617 0.21104 0.91944 0.0
H818 H 0.74433 0.19254 0.98076 0.0
H819 H 0.80785 0.2304 0.90804 0.0
H820 H 0.74677 0.17263 0.84878 0.0
H821 H 0.72195 0.13599 0.84044 0.0
H822 H 0.7696 0.12533 0.79595 0.0
H823 H 0.79476 0.16191 0.80464 0.0
C824 C 0.82207 0.26301 0.71102 0.0
C825 C 0.83415 0.25931 0.68185 0.0
C826 C 0.81466 0.25148 0.74882 0.0
C827 C 0.81925 0.2361 0.75839 0.0
C828 C 0.83089 0.232 0.72895 0.0
C829 C 0.83838 0.24358 0.691 0.0
C830 C 0.81158 0.22431 0.79914 0.0
C831 C 0.79832 0.20319 0.79652 0.0
C832 C 0.81556 0.23417 0.83999 0.0
C833 C 0.83053 0.25624 0.84501 0.0
C834 C 0.85053 0.26441 0.82912 0.0
C835 C 0.86449 0.28524 0.83337 0.0
C836 C 0.85867 0.29805 0.8537 0.0
C837 C 0.83888 0.29005 0.86991 0.0
C838 C 0.82485 0.26923 0.86569 0.0
C839 C 0.76683 0.16358 0.96506 0.0
C840 C 0.75386 0.16984 0.98359 0.0
C841 C 0.77931 0.17422 0.92983 0.0
C842 C 0.77904 0.19129 0.91283 0.0
C843 C 0.7666 0.19791 0.93217 0.0
C844 C 0.75406 0.18725 0.96707 0.0
C845 C 0.791 0.20193 0.87376 0.0
C846 C 0.80509 0.22285 0.87675 0.0
C847 C 0.7878 0.19188 0.83331 0.0
C848 C 0.77268 0.16994 0.8279 0.0
C849 C 0.75198 0.16244 0.83759 0.0
C850 C 0.73784 0.14169 0.83273 0.0
C851 C 0.74421 0.12833 0.81782 0.0
C852 C 0.76471 0.1357 0.8076 0.0
C853 C 0.77891 0.15643 0.81247 0.0
H854 H 0.73324 0.11227 0.81407 0.0
H855 H 0.8695 0.31417 0.85695 0.0
H856 H 0.55728 0.85098 0.0895 0.0
H857 H 0.5637 0.83261 0.14663 0.0
H858 H 0.58859 0.80893 0.05175 0.0
H859 H 0.58113 0.82648 0.99405 0.0
H860 H 0.56524 0.77993 0.1005 0.0
H861 H 0.61895 0.84676 0.13063 0.0
H862 H 0.63576 0.88379 0.14388 0.0
H863 H 0.5995 0.87325 0.25858 0.0
H864 H 0.58226 0.83615 0.2457 0.0
H865 H 0.59941 0.74039 0.27461 0.0
H866 H 0.60249 0.76387 0.21625 0.0
H867 H 0.55586 0.77227 0.2769 0.0
H868 H 0.55227 0.74842 0.33465 0.0
H869 H 0.59501 0.81003 0.24397 0.0
H870 H 0.53907 0.74227 0.20365 0.0
H871 H 0.52491 0.70557 0.1893 0.0
H872 H 0.57034 0.71951 0.09112 0.0
H873 H 0.58496 0.75631 0.10541 0.0
C874 C 0.56431 0.84202 0.08089 0.0
C875 C 0.56871 0.84014 0.03738 0.0
C876 C 0.56813 0.83163 0.11365 0.0
C877 C 0.57699 0.81964 0.10374 0.0
C878 C 0.58177 0.81809 0.06028 0.0
C879 C 0.57753 0.82813 0.02735 0.0
C880 C 0.57995 0.80766 0.13833 0.0
C881 C 0.57217 0.7867 0.13146 0.0
C882 C 0.58886 0.81634 0.17902 0.0
C883 C 0.5992 0.83866 0.187 0.0
C884 C 0.61445 0.85234 0.15851 0.0
C885 C 0.62408 0.87334 0.16599 0.0
C886 C 0.61868 0.88087 0.202 0.0
C887 C 0.60367 0.8674 0.23068 0.0
C888 C 0.59398 0.84637 0.22334 0.0
C889 C 0.58996 0.74739 0.27566 0.0
C890 C 0.57553 0.74254 0.30893 0.0
C891 C 0.59174 0.76075 0.2424 0.0
C892 C 0.57941 0.76972 0.24253 0.0
C893 C 0.56553 0.76549 0.27651 0.0
C894 C 0.56343 0.75181 0.30923 0.0
C895 C 0.58003 0.78257 0.20592 0.0
C896 C 0.58844 0.80356 0.21257 0.0
C897 C 0.57214 0.77408 0.16474 0.0
C898 C 0.56326 0.75199 0.15598 0.0
C899 C 0.54616 0.73749 0.17932 0.0
C900 C 0.53802 0.71668 0.17113 0.0
C901 C 0.54676 0.71021 0.13942 0.0
C902 C 0.56361 0.72454 0.11574 0.0
C903 C 0.57183 0.74537 0.12386 0.0
H904 H 0.54043 0.69409 0.13312 0.0
H905 H 0.62615 0.89714 0.20773 0.0
H906 H 0.73248 0.58776 0.39607 0.0
H907 H 0.7557 0.58879 0.4525 0.0
H908 H 0.76413 0.5443 0.38158 0.0
H909 H 0.74014 0.54249 0.32631 0.0
H910 H 0.75904 0.53419 0.46102 0.0
H911 H 0.8015 0.5973 0.38754 0.0
H912 H 0.81103 0.63092 0.35641 0.0
H913 H 0.80635 0.65257 0.48249 0.0
H914 H 0.79654 0.61899 0.5143 0.0
H915 H 0.84425 0.54615 0.58044 0.0
H916 H 0.82457 0.54919 0.52088 0.0
H917 H 0.80474 0.58144 0.6052 0.0
H918 H 0.82431 0.57839 0.66516 0.0
H919 H 0.81653 0.59835 0.5193 0.0
H920 H 0.77355 0.53377 0.59076 0.0
H921 H 0.76576 0.50027 0.61982 0.0
H922 H 0.77363 0.48171 0.49279 0.0
H923 H 0.78177 0.51523 0.4631 0.0
C924 C 0.73939 0.5783 0.39247 0.0
C925 C 0.73451 0.56503 0.3569 0.0
C926 C 0.75277 0.57898 0.42459 0.0
C927 C 0.76194 0.56684 0.42105 0.0
C928 C 0.75724 0.55379 0.38513 0.0
C929 C 0.74356 0.55279 0.35353 0.0
C930 C 0.77572 0.56701 0.45561 0.0
C931 C 0.77179 0.54825 0.47315 0.0
C932 C 0.79216 0.58533 0.47224 0.0
C933 C 0.79809 0.60556 0.45322 0.0
C934 C 0.80236 0.60918 0.40857 0.0
C935 C 0.80784 0.62824 0.39081 0.0
C936 C 0.80924 0.64386 0.41743 0.0
C937 C 0.80523 0.64046 0.4619 0.0
C938 C 0.79973 0.62142 0.47982 0.0
C939 C 0.83586 0.55405 0.58626 0.0
C940 C 0.8357 0.5619 0.62758 0.0
C941 C 0.82462 0.55575 0.55222 0.0
C942 C 0.81312 0.5654 0.55887 0.0
C943 C 0.81354 0.57394 0.59955 0.0
C944 C 0.82464 0.57209 0.63376 0.0
C945 C 0.79983 0.56562 0.52401 0.0
C946 C 0.80381 0.58439 0.50672 0.0
C947 C 0.78362 0.54732 0.50709 0.0
C948 C 0.77846 0.52707 0.52481 0.0
C949 C 0.77377 0.5226 0.5691 0.0
C950 C 0.76926 0.5036 0.58567 0.0
C951 C 0.76925 0.48889 0.55819 0.0
C952 C 0.77367 0.49313 0.51405 0.0
C953 C 0.77821 0.51212 0.49733 0.0
H954 H 0.76577 0.4742 0.57109 0.0
H955 H 0.81349 0.6586 0.40362 0.0
H956 H 0.17043 0.76293 0.66591 0.0
H957 H 0.18844 0.78683 0.7251 0.0
H958 H 0.15906 0.73772 0.81792 0.0
H959 H 0.13996 0.7142 0.75898 0.0
H960 H 0.16277 0.76921 0.8538 0.0
H961 H 0.20951 0.75588 0.77522 0.0
H962 H 0.22791 0.75375 0.7111 0.0
H963 H 0.25441 0.81816 0.69008 0.0
H964 H 0.23594 0.82062 0.7538 0.0
H965 H 0.24666 0.80661 0.00704 0.0
H966 H 0.22215 0.78756 0.94932 0.0
H967 H 0.23205 0.84394 0.89303 0.0
H968 H 0.25618 0.86315 0.95143 0.0
H969 H 0.23791 0.81156 0.83874 0.0
H970 H 0.19132 0.82267 0.92775 0.0
H971 H 0.17439 0.82159 0.99697 0.0
H972 H 0.14948 0.75675 0.00388 0.0
H973 H 0.16652 0.7575 0.93499 0.0
C974 C 0.16767 0.75738 0.69906 0.0
C975 C 0.15399 0.73677 0.70804 0.0
C976 C 0.17804 0.77097 0.73284 0.0
C977 C 0.17558 0.764 0.77596 0.0
C978 C 0.1613 0.74351 0.78499 0.0
C979 C 0.15043 0.73005 0.75132 0.0
C980 C 0.18851 0.77772 0.81137 0.0
C981 C 0.1792 0.77837 0.85042 0.0
C982 C 0.21 0.78981 0.80721 0.0
C983 C 0.22116 0.78839 0.76895 0.0
C984 C 0.21915 0.76956 0.75674 0.0
C985 C 0.22961 0.76829 0.7205 0.0
C986 C 0.24227 0.78579 0.69645 0.0
C987 C 0.24456 0.80461 0.70869 0.0
C988 C 0.23411 0.80595 0.74487 0.0
C989 C 0.24344 0.81493 0.98264 0.0
C990 C 0.25331 0.83633 0.98356 0.0
C991 C 0.22942 0.80404 0.9499 0.0
C992 C 0.22535 0.81442 0.91727 0.0
C993 C 0.23499 0.83576 0.91825 0.0
C994 C 0.24869 0.84665 0.95156 0.0
C995 C 0.2121 0.80292 0.88053 0.0
C996 C 0.22143 0.8026 0.8415 0.0
C997 C 0.19078 0.79067 0.88526 0.0
C998 C 0.18036 0.79018 0.92643 0.0
C999 C 0.18239 0.80821 0.94423 0.0
C1000 C 0.17274 0.80766 0.98336 0.0
C1001 C 0.16091 0.78912 0.00487 0.0
C1002 C 0.15866 0.7711 0.98721 0.0
C1003 C 0.16829 0.77158 0.9481 0.0
H1004 H 0.15345 0.78872 0.03518 0.0
H1005 H 0.25035 0.78478 0.66841 0.0
H1006 H 0.44599 0.16834 0.04928 0.0
H1007 H 0.4372 0.18359 0.10929 0.0
H1008 H 0.40078 0.19725 0.02279 0.0
H1009 H 0.4095 0.18194 0.96223 0.0
H1010 H 0.427 0.23004 0.07513 0.0
H1011 H 0.37679 0.15999 0.09238 0.0
H1012 H 0.36387 0.12303 0.09777 0.0
H1013 H 0.40001 0.13263 0.21224 0.0
H1014 H 0.4134 0.1697 0.20718 0.0
H1015 H 0.39514 0.26531 0.25646 0.0
H1016 H 0.39233 0.24484 0.19251 0.0
H1017 H 0.42739 0.22211 0.25786 0.0
H1018 H 0.43005 0.24225 0.32199 0.0
H1019 H 0.39627 0.19231 0.21188 0.0
H1020 H 0.45006 0.26191 0.18857 0.0
H1021 H 0.46433 0.29911 0.18327 0.0
H1022 H 0.42252 0.29041 0.08015 0.0
H1023 H 0.40779 0.25311 0.0853 0.0
C1024 C 0.43607 0.17454 0.04294 0.0
C1025 C 0.42841 0.17392 0.00103 0.0
C1026 C 0.43098 0.18314 0.07733 0.0
C1027 C 0.41816 0.19131 0.07049 0.0
C1028 C 0.41061 0.1909 0.02866 0.0
C1029 C 0.41557 0.18213 0.99421 0.0
C1030 C 0.41332 0.20084 0.10707 0.0
C1031 C 0.41985 0.22171 0.1047 0.0
C1032 C 0.40433 0.18998 0.14581 0.0
C1033 C 0.3962 0.16766 0.14921 0.0
C1034 C 0.3821 0.15424 0.11853 0.0
C1035 C 0.37468 0.13326 0.12155 0.0
C1036 C 0.38114 0.12549 0.15528 0.0
C1037 C 0.39502 0.13868 0.18612 0.0
C1038 C 0.40251 0.15967 0.18322 0.0
C1039 C 0.40204 0.25576 0.25742 0.0
C1040 C 0.41299 0.25555 0.29413 0.0
C1041 C 0.40045 0.24412 0.22082 0.0
C1042 C 0.40988 0.23219 0.2203 0.0
C1043 C 0.42002 0.23124 0.2576 0.0
C1044 C 0.4216 0.24284 0.29416 0.0
C1045 C 0.41034 0.2216 0.18024 0.0
C1046 C 0.40303 0.20055 0.18199 0.0
C1047 C 0.41873 0.23231 0.14099 0.0
C1048 C 0.42765 0.25472 0.13769 0.0
C1049 C 0.4438 0.26792 0.16501 0.0
C1050 C 0.45199 0.28902 0.162 0.0
C1051 C 0.44429 0.29711 0.13149 0.0
C1052 C 0.42843 0.28412 0.10383 0.0
C1053 C 0.42016 0.263 0.10678 0.0
H1054 H 0.45066 0.31346 0.1292 0.0
H1055 H 0.37538 0.10924 0.15756 0.0
H1056 H 0.32807 0.52124 0.29766 0.0
H1057 H 0.35993 0.55146 0.32013 0.0
H1058 H 0.39365 0.52184 0.28249 0.0
H1059 H 0.36208 0.49174 0.25981 0.0
H1060 H 0.40229 0.53803 0.36677 0.0
H1061 H 0.39618 0.55857 0.22093 0.0
H1062 H 0.37858 0.56576 0.16204 0.0
H1063 H 0.37594 0.6111 0.24128 0.0
H1064 H 0.39329 0.60397 0.30089 0.0
H1065 H 0.50461 0.61498 0.3757 0.0
H1066 H 0.47096 0.58774 0.35407 0.0
H1067 H 0.44647 0.62789 0.373 0.0
H1068 H 0.48049 0.6556 0.39279 0.0
H1069 H 0.4311 0.60718 0.30294 0.0
H1070 H 0.43807 0.5888 0.44732 0.0
H1071 H 0.45453 0.58178 0.50882 0.0
H1072 H 0.45378 0.53263 0.43754 0.0
H1073 H 0.43755 0.53953 0.37536 0.0
C1074 C 0.3423 0.52126 0.29375 0.0
C1075 C 0.34254 0.50407 0.27702 0.0
C1076 C 0.36046 0.53853 0.30654 0.0
C1077 C 0.37909 0.53882 0.30297 0.0
C1078 C 0.3794 0.52186 0.28559 0.0
C1079 C 0.36133 0.5047 0.27249 0.0
C1080 C 0.39827 0.55643 0.31886 0.0
C1081 C 0.40873 0.55313 0.3526 0.0
C1082 C 0.40616 0.57623 0.30144 0.0
C1083 C 0.39583 0.58058 0.26553 0.0
C1084 C 0.39169 0.56995 0.22593 0.0
C1085 C 0.38179 0.57404 0.19239 0.0
C1086 C 0.37609 0.58884 0.19796 0.0
C1087 C 0.38034 0.59962 0.23704 0.0
C1088 C 0.39021 0.59557 0.27069 0.0
C1089 C 0.49205 0.618 0.37549 0.0
C1090 C 0.49515 0.63737 0.38624 0.0
C1091 C 0.47277 0.60237 0.3633 0.0
C1092 C 0.45603 0.60559 0.36279 0.0
C1093 C 0.45911 0.625 0.3733 0.0
C1094 C 0.47853 0.64079 0.38473 0.0
C1095 C 0.43546 0.58875 0.35046 0.0
C1096 C 0.42466 0.59217 0.3175 0.0
C1097 C 0.42705 0.56906 0.3691 0.0
C1098 C 0.43672 0.56479 0.40654 0.0
C1099 C 0.44153 0.57658 0.44464 0.0
C1100 C 0.45081 0.57261 0.47964 0.0
C1101 C 0.45524 0.5568 0.47705 0.0
C1102 C 0.45035 0.54489 0.43949 0.0
C1103 C 0.44109 0.5488 0.40438 0.0
H1104 H 0.46243 0.55376 0.50418 0.0
H1105 H 0.36843 0.59198 0.17196 0.0
H1106 H 0.79888 0.47431 0.7355 0.0
H1107 H 0.79569 0.44181 0.71249 0.0
H1108 H 0.86035 0.47212 0.68734 0.0
H1109 H 0.86372 0.50451 0.71033 0.0
H1110 H 0.83669 0.4464 0.61984 0.0
H1111 H 0.84246 0.44493 0.77668 0.0
H1112 H 0.83208 0.44625 0.85204 0.0
H1113 H 0.77286 0.39465 0.82723 0.0
H1114 H 0.78282 0.3932 0.7515 0.0
H1115 H 0.86071 0.36811 0.60481 0.0
H1116 H 0.85795 0.39804 0.62253 0.0
H1117 H 0.7958 0.3591 0.66451 0.0
H1118 H 0.79877 0.32903 0.64841 0.0
H1119 H 0.8142 0.38786 0.72056 0.0
H1120 H 0.8083 0.38687 0.56644 0.0
H1121 H 0.81748 0.38517 0.49028 0.0
H1122 H 0.8746 0.44055 0.50736 0.0
H1123 H 0.8659 0.44245 0.58381 0.0
C1124 C 0.81241 0.47403 0.72518 0.0
C1125 C 0.83155 0.49197 0.72486 0.0
C1126 C 0.81056 0.45547 0.71211 0.0
C1127 C 0.8278 0.45461 0.69831 0.0
C1128 C 0.84687 0.4725 0.69778 0.0
C1129 C 0.84876 0.49097 0.71115 0.0
C1130 C 0.82616 0.43513 0.6844 0.0
C1131 C 0.83191 0.43361 0.64185 0.0
C1132 C 0.81925 0.41828 0.71278 0.0
C1133 C 0.81331 0.41911 0.75832 0.0
C1134 C 0.82717 0.43398 0.78719 0.0
C1135 C 0.82138 0.43473 0.82999 0.0
C1136 C 0.8018 0.42058 0.84438 0.0
C1137 C 0.788 0.40562 0.81602 0.0
C1138 C 0.79372 0.40482 0.77317 0.0
C1139 C 0.84639 0.36591 0.61747 0.0
C1140 C 0.82994 0.34622 0.62515 0.0
C1141 C 0.84479 0.38305 0.62739 0.0
C1142 C 0.82654 0.38086 0.64422 0.0
C1143 C 0.81002 0.36118 0.6515 0.0
C1144 C 0.81172 0.34402 0.6422 0.0
C1145 C 0.82509 0.39913 0.65598 0.0
C1146 C 0.81874 0.40047 0.69816 0.0
C1147 C 0.83122 0.41575 0.62704 0.0
C1148 C 0.83649 0.41471 0.58098 0.0
C1149 C 0.82288 0.39862 0.55405 0.0
C1150 C 0.82799 0.39763 0.51081 0.0
C1151 C 0.84663 0.41272 0.49402 0.0
C1152 C 0.86017 0.42886 0.52041 0.0
C1153 C 0.85515 0.42992 0.56369 0.0
H1154 H 0.85056 0.41192 0.46053 0.0
H1155 H 0.79735 0.42118 0.87753 0.0
H1156 H 0.48826 0.82887 0.02955 0.0
H1157 H 0.45549 0.82721 0.03918 0.0
H1158 H 0.45325 0.83743 0.90178 0.0
H1159 H 0.48653 0.83998 0.8923 0.0
H1160 H 0.44302 0.86021 0.94355 0.0
H1161 H 0.42215 0.78952 0.95236 0.0
H1162 H 0.42269 0.75893 0.97802 0.0
H1163 H 0.40943 0.76966 0.10784 0.0
H1164 H 0.40908 0.80048 0.08308 0.0
H1165 H 0.33939 0.83653 0.94913 0.0
H1166 H 0.36945 0.83332 0.93472 0.0
H1167 H 0.38186 0.83668 0.07216 0.0
H1168 H 0.35188 0.84002 0.08695 0.0
H1169 H 0.3856 0.80567 0.02713 0.0
H1170 H 0.40799 0.8777 0.01535 0.0
H1171 H 0.4062 0.90717 0.98643 0.0
H1172 H 0.41517 0.89195 0.85697 0.0
H1173 H 0.41673 0.86222 0.88506 0.0
C1174 C 0.48069 0.83055 0.00129 0.0
C1175 C 0.48995 0.83452 0.96014 0.0
C1176 C 0.46188 0.8295 0.0068 0.0
C1177 C 0.4517 0.83189 0.97111 0.0
C1178 C 0.46079 0.83552 0.92982 0.0
C1179 C 0.47978 0.83692 0.92441 0.0
C1180 C 0.43209 0.83162 0.97727 0.0
C1181 C 0.43036 0.84806 0.96117 0.0
C1182 C 0.41562 0.81598 0.00089 0.0
C1183 C 0.41576 0.79741 0.01591 0.0
C1184 C 0.4195 0.78544 0.98644 0.0
C1185 C 0.41974 0.76804 0.00082 0.0
C1186 C 0.41614 0.76238 0.04455 0.0
C1187 C 0.41223 0.77407 0.07398 0.0
C1188 C 0.41198 0.79149 0.05979 0.0
C1189 C 0.34842 0.83644 0.97634 0.0
C1190 C 0.34333 0.83863 0.01918 0.0
C1191 C 0.3656 0.83466 0.96801 0.0
C1192 C 0.3779 0.83491 0.00237 0.0
C1193 C 0.37253 0.83647 0.04524 0.0
C1194 C 0.35546 0.83846 0.05359 0.0
C1195 C 0.39674 0.83422 0.99354 0.0
C1196 C 0.39828 0.81765 0.00923 0.0
C1197 C 0.41293 0.84958 0.96904 0.0
C1198 C 0.41226 0.86761 0.95226 0.0
C1199 C 0.40943 0.88055 0.98068 0.0
C1200 C 0.40848 0.89732 0.96445 0.0
C1201 C 0.4105 0.90138 0.91987 0.0
C1202 C 0.41357 0.88876 0.89147 0.0
C1203 C 0.41451 0.87196 0.90753 0.0
H1204 H 0.40972 0.91432 0.90732 0.0
H1205 H 0.41634 0.74891 0.05561 0.0
H1206 H 0.64925 0.47848 0.36321 0.0
H1207 H 0.61748 0.44611 0.37096 0.0
H1208 H 0.60076 0.45141 0.23961 0.0
H1209 H 0.63243 0.484 0.23173 0.0
H1210 H 0.56959 0.44119 0.29517 0.0
H1211 H 0.61651 0.41761 0.26465 0.0
H1212 H 0.64776 0.41554 0.27438 0.0
H1213 H 0.62972 0.39393 0.40489 0.0
H1214 H 0.59848 0.39614 0.39614 0.0
H1215 H 0.48452 0.34174 0.28347 0.0
H1216 H 0.51796 0.37139 0.26917 0.0
H1217 H 0.53659 0.36896 0.40048 0.0
H1218 H 0.50322 0.3391 0.41498 0.0
H1219 H 0.56687 0.37715 0.3422 0.0
H1220 H 0.52134 0.40222 0.37495 0.0
H1221 H 0.48988 0.40404 0.36687 0.0
H1222 H 0.50532 0.42296 0.23411 0.0
H1223 H 0.53677 0.42097 0.24122 0.0
C1224 C 0.6389 0.47272 0.33582 0.0
C1225 C 0.64339 0.48383 0.29683 0.0
C1226 C 0.62077 0.45415 0.34026 0.0
C1227 C 0.60683 0.44625 0.30572 0.0
C1228 C 0.61132 0.45723 0.26665 0.0
C1229 C 0.62946 0.47582 0.26217 0.0
C1230 C 0.58726 0.42689 0.31098 0.0
C1231 C 0.56901 0.4271 0.30471 0.0
C1232 C 0.58651 0.40865 0.32457 0.0
C1233 C 0.60524 0.40721 0.32985 0.0
C1234 C 0.61928 0.41256 0.29553 0.0
C1235 C 0.63698 0.41134 0.30086 0.0
C1236 C 0.64074 0.40465 0.34026 0.0
C1237 C 0.62679 0.39913 0.3744 0.0
C1238 C 0.60907 0.40034 0.36926 0.0
C1239 C 0.49576 0.3474 0.30926 0.0
C1240 C 0.49116 0.33816 0.35048 0.0
C1241 C 0.51485 0.36439 0.30104 0.0
C1242 C 0.52964 0.37253 0.33395 0.0
C1243 C 0.52536 0.36293 0.37467 0.0
C1244 C 0.50626 0.34591 0.38293 0.0
C1245 C 0.54928 0.3915 0.32638 0.0
C1246 C 0.56751 0.39122 0.33234 0.0
C1247 C 0.55003 0.40972 0.31273 0.0
C1248 C 0.53132 0.41127 0.30851 0.0
C1249 C 0.51797 0.40665 0.34395 0.0
C1250 C 0.50015 0.40772 0.33956 0.0
C1251 C 0.4956 0.41359 0.3 0.0
C1252 C 0.50887 0.41842 0.26474 0.0
C1253 C 0.52671 0.41734 0.26894 0.0
H1254 H 0.48183 0.41446 0.29674 0.0
H1255 H 0.65445 0.40372 0.34432 0.0
H1256 H 0.16047 0.65468 0.57862 0.0
H1257 H 0.164 0.62452 0.58841 0.0
H1258 H 0.14873 0.62238 0.7241 0.0
H1259 H 0.14536 0.65262 0.71477 0.0
H1260 H 0.17996 0.61468 0.71184 0.0
H1261 H 0.11314 0.5917 0.65354 0.0
H1262 H 0.08825 0.59124 0.60121 0.0
H1263 H 0.11575 0.57469 0.49877 0.0
H1264 H 0.14104 0.57538 0.5504 0.0
H1265 H 0.14916 0.51115 0.75841 0.0
H1266 H 0.15085 0.54398 0.74806 0.0
H1267 H 0.16593 0.54382 0.61292 0.0
H1268 H 0.16413 0.51092 0.62285 0.0
H1269 H 0.13598 0.55324 0.62348 0.0
H1270 H 0.20212 0.57491 0.68376 0.0
H1271 H 0.22661 0.57531 0.73713 0.0
H1272 H 0.19975 0.59389 0.83716 0.0
H1273 H 0.17491 0.59333 0.78449 0.0
C1274 C 0.15803 0.6479 0.61064 0.0
C1275 C 0.1525 0.65597 0.64587 0.0
C1276 C 0.15999 0.63064 0.61613 0.0
C1277 C 0.15638 0.62109 0.65686 0.0
C1278 C 0.15156 0.62951 0.69239 0.0
C1279 C 0.14957 0.64676 0.68693 0.0
C1280 C 0.15688 0.60189 0.66214 0.0
C1281 C 0.17021 0.60117 0.69284 0.0
C1282 C 0.14441 0.5844 0.63678 0.0
C1283 C 0.12912 0.58381 0.60574 0.0
C1284 C 0.11399 0.58812 0.61978 0.0
C1285 C 0.09979 0.5878 0.59027 0.0
C1286 C 0.10045 0.58299 0.54667 0.0
C1287 C 0.11528 0.57844 0.53254 0.0
C1288 C 0.12954 0.57879 0.56191 0.0
C1289 C 0.15296 0.51814 0.72653 0.0
C1290 C 0.15651 0.50841 0.69145 0.0
C1291 C 0.15399 0.53695 0.72072 0.0
C1292 C 0.15867 0.5464 0.67979 0.0
C1293 C 0.16231 0.53678 0.64478 0.0
C1294 C 0.16133 0.518 0.65057 0.0
C1295 C 0.15908 0.566 0.67318 0.0
C1296 C 0.14585 0.56677 0.64229 0.0
C1297 C 0.17157 0.58349 0.69853 0.0
C1298 C 0.18653 0.58389 0.73025 0.0
C1299 C 0.20133 0.57892 0.71722 0.0
C1300 C 0.21529 0.57921 0.74733 0.0
C1301 C 0.2147 0.58457 0.79053 0.0
C1302 C 0.20018 0.58972 0.80369 0.0
C1303 C 0.18616 0.58944 0.77371 0.0
H1304 H 0.22553 0.58478 0.8138 0.0
H1305 H 0.08945 0.58274 0.52387 0.0
H1306 H 0.67748 0.2008 0.06336 0.0
H1307 H 0.64726 0.20309 0.0441 0.0
H1308 H 0.61452 0.13878 0.01464 0.0
H1309 H 0.64449 0.13631 0.03383 0.0
H1310 H 0.61053 0.16256 0.95072 0.0
H1311 H 0.60529 0.15477 0.10709 0.0
H1312 H 0.61764 0.16421 0.18236 0.0
H1313 H 0.62326 0.22306 0.16425 0.0
H1314 H 0.6112 0.21406 0.08863 0.0
H1315 H 0.50785 0.13757 0.9425 0.0
H1316 H 0.54056 0.14017 0.95906 0.0
H1317 H 0.56396 0.20208 0.00307 0.0
H1318 H 0.53094 0.19932 0.98794 0.0
H1319 H 0.57481 0.1829 0.05743 0.0
H1320 H 0.57819 0.19068 0.90336 0.0
H1321 H 0.56645 0.18216 0.82751 0.0
H1322 H 0.56547 0.12515 0.83935 0.0
H1323 H 0.57694 0.1332 0.91548 0.0
C1324 C 0.66383 0.18715 0.05285 0.0
C1325 C 0.66336 0.16837 0.0502 0.0
C1326 C 0.64659 0.18848 0.04195 0.0
C1327 C 0.62867 0.17108 0.02809 0.0
C1328 C 0.62822 0.15238 0.0252 0.0
C1329 C 0.64535 0.151 0.03638 0.0
C1330 C 0.61031 0.17222 0.01641 0.0
C1331 C 0.60259 0.16685 0.97408 0.0
C1332 C 0.6004 0.17845 0.04658 0.0
C1333 C 0.60757 0.18383 0.09207 0.0
C1334 C 0.60933 0.16979 0.11904 0.0
C1335 C 0.61625 0.17505 0.16179 0.0
C1336 C 0.6213 0.19425 0.17804 0.0
C1337 C 0.61938 0.20821 0.1516 0.0
C1338 C 0.6125 0.20303 0.10881 0.0
C1339 C 0.51998 0.15179 0.95548 0.0
C1340 C 0.51684 0.16827 0.96378 0.0
C1341 C 0.53873 0.1533 0.96474 0.0
C1342 C 0.55487 0.17145 0.98163 0.0
C1343 C 0.55176 0.18794 0.98995 0.0
C1344 C 0.5329 0.18635 0.9812 0.0
C1345 C 0.57475 0.17293 0.99173 0.0
C1346 C 0.5828 0.17882 0.03379 0.0
C1347 C 0.58508 0.16735 0.96113 0.0
C1348 C 0.57828 0.16249 0.91526 0.0
C1349 C 0.57534 0.17626 0.88989 0.0
C1350 C 0.56875 0.17153 0.84682 0.0
C1351 C 0.56518 0.15311 0.82865 0.0
C1352 C 0.56823 0.13941 0.85347 0.0
C1353 C 0.5748 0.14406 0.89657 0.0
H1354 H 0.56008 0.14946 0.7953 0.0
H1355 H 0.62664 0.19829 0.21114 0.0
loop_
_geom_bond_atom_site_label_1
_geom_bond_atom_site_label_2
_geom_bond_distance
_geom_bond_site_symmetry_2
_ccdc_geom_bond_type
C0 O1 1.160 . S
C0 O7 1.185 . S
O1 C0 1.160 . S
O2 Zn3 1.899 . S
O2 C10 1.284 . S
Zn3 O2 1.899 . S
Zn3 O4 2.032 . S
Zn3 O7 2.086 . S
Zn3 O12 1.977 . S
O4 Zn3 2.032 . S
O4 C8 1.278 . S
C5 O6 1.203 . S
C5 O12 1.267 . S
O6 C5 1.203 . S
O7 C0 1.185 . S
O7 Zn3 2.086 . S
C8 O4 1.278 . S
C8 O9 1.211 . S
O9 C8 1.211 . S
C10 O2 1.284 . S
C10 O11 1.273 . S
O11 C10 1.273 . S
O12 Zn3 1.977 . S
O12 C5 1.267 . S
C13 O14 1.160 . S
C13 O20 1.185 . S
O14 C13 1.160 . S
O15 Zn16 1.899 . S
O15 C23 1.284 . S
Zn16 O15 1.899 . S
Zn16 O17 2.032 . S
Zn16 O20 2.086 . S
Zn16 O25 1.977 . S
O17 Zn16 2.032 . S
O17 C21 1.278 . S
C18 O19 1.203 . S
C18 O25 1.267 . S
O19 C18 1.203 . S
O20 C13 1.185 . S
O20 Zn16 2.086 . S
C21 O17 1.278 . S
C21 O22 1.211 . S
O22 C21 1.211 . S
C23 O15 1.284 . S
C23 O24 1.273 . S
O24 C23 1.273 . S
O25 Zn16 1.977 . S
O25 C18 1.267 . S
C26 O27 1.160 . S
C26 O33 1.185 . S
O27 C26 1.160 . S
O28 Zn29 1.899 . S
O28 C36 1.284 . S
Zn29 O28 1.899 . S
Zn29 O30 2.032 . S
Zn29 O33 2.086 . S
Zn29 O38 1.977 . S
O30 Zn29 2.032 . S
O30 C34 1.278 1_556 S
C31 O32 1.203 . S
C31 O38 1.267 . S
O32 C31 1.203 . S
O33 C26 1.185 . S
O33 Zn29 2.086 . S
C34 O30 1.278 1_554 S
C34 O35 1.211 . S
O35 C34 1.211 . S
C36 O28 1.284 . S
C36 O37 1.273 . S
O37 C36 1.273 . S
O38 Zn29 1.977 . S
O38 C31 1.267 . S
C39 O40 1.160 . S
C39 O46 1.185 . S
O40 C39 1.160 . S
O41 Zn42 1.899 . S
O41 C49 1.284 . S
Zn42 O41 1.899 . S
Zn42 O43 2.032 . S
Zn42 O46 2.086 . S
Zn42 O51 1.977 . S
O43 Zn42 2.032 . S
O43 C47 1.278 . S
C44 O45 1.203 . S
C44 O51 1.267 . S
O45 C44 1.203 . S
O46 C39 1.185 . S
O46 Zn42 2.086 . S
C47 O43 1.278 . S
C47 O48 1.211 . S
O48 C47 1.211 . S
C49 O41 1.284 . S
C49 O50 1.273 . S
O50 C49 1.273 . S
O51 Zn42 1.977 . S
O51 C44 1.267 . S
C52 O53 1.160 . S
C52 O59 1.185 . S
O53 C52 1.160 . S
O54 Zn55 1.899 . S
O54 C62 1.284 . S
Zn55 O54 1.899 . S
Zn55 O56 2.032 . S
Zn55 O59 2.086 . S
Zn55 O64 1.977 . S
O56 Zn55 2.032 . S
O56 C60 1.278 . S
C57 O58 1.203 . S
C57 O64 1.267 . S
O58 C57 1.203 . S
O59 C52 1.185 . S
O59 Zn55 2.086 . S
C60 O56 1.278 . S
C60 O61 1.211 . S
O61 C60 1.211 . S
C62 O54 1.284 . S
C62 O63 1.273 . S
O63 C62 1.273 . S
O64 Zn55 1.977 . S
O64 C57 1.267 . S
C65 O66 1.160 . S
C65 O72 1.185 . S
O66 C65 1.160 . S
O67 Zn68 1.899 . S
O67 C75 1.284 . S
Zn68 O67 1.899 . S
Zn68 O69 2.032 . S
Zn68 O72 2.086 . S
Zn68 O77 1.977 . S
O69 Zn68 2.032 . S
O69 C73 1.278 1_556 S
C70 O71 1.203 . S
C70 O77 1.267 . S
O71 C70 1.203 . S
O72 C65 1.185 . S
O72 Zn68 2.086 . S
C73 O69 1.278 1_554 S
C73 O74 1.211 . S
O74 C73 1.211 . S
C75 O67 1.284 . S
C75 O76 1.273 . S
O76 C75 1.273 . S
O77 Zn68 1.977 . S
O77 C70 1.267 . S
C78 O79 1.160 . S
C78 O85 1.185 . S
O79 C78 1.160 . S
O80 Zn81 1.899 . S
O80 C88 1.284 . S
Zn81 O80 1.899 . S
Zn81 O82 2.032 . S
Zn81 O85 2.086 . S
Zn81 O90 1.977 . S
O82 Zn81 2.032 . S
O82 C86 1.278 . S
C83 O84 1.203 . S
C83 O90 1.267 . S
O84 C83 1.203 . S
O85 C78 1.185 . S
O85 Zn81 2.086 . S
C86 O82 1.278 . S
C86 O87 1.211 . S
O87 C86 1.211 . S
C88 O80 1.284 . S
C88 O89 1.273 . S
O89 C88 1.273 . S
O90 Zn81 1.977 . S
O90 C83 1.267 . S
C91 O92 1.160 . S
C91 O98 1.185 . S
O92 C91 1.160 . S
O93 Zn94 1.899 . S
O93 C101 1.284 . S
Zn94 O93 1.899 . S
Zn94 O95 2.032 . S
Zn94 O98 2.086 . S
Zn94 O103 1.977 . S
O95 Zn94 2.032 . S
O95 C99 1.278 . S
C96 O97 1.203 . S
C96 O103 1.267 . S
O97 C96 1.203 . S
O98 C91 1.185 . S
O98 Zn94 2.086 . S
C99 O95 1.278 . S
C99 O100 1.211 . S
O100 C99 1.211 . S
C101 O93 1.284 . S
C101 O102 1.273 . S
O102 C101 1.273 . S
O103 Zn94 1.977 . S
O103 C96 1.267 . S
C104 O105 1.160 . S
C104 O111 1.185 . S
O105 C104 1.160 . S
O106 Zn107 1.899 . S
O106 C114 1.284 . S
Zn107 O106 1.899 . S
Zn107 O108 2.032 . S
Zn107 O111 2.086 . S
Zn107 O116 1.977 . S
O108 Zn107 2.032 . S
O108 C112 1.278 1_554 S
C109 O110 1.203 . S
C109 O116 1.267 . S
O110 C109 1.203 . S
O111 C104 1.185 . S
O111 Zn107 2.086 . S
C112 O108 1.278 1_556 S
C112 O113 1.211 . S
O113 C112 1.211 . S
C114 O106 1.284 . S
C114 O115 1.273 . S
O115 C114 1.273 . S
O116 Zn107 1.977 . S
O116 C109 1.267 . S
C117 O118 1.160 . S
C117 O124 1.185 . S
O118 C117 1.160 . S
O119 Zn120 1.899 . S
O119 C127 1.284 . S
Zn120 O119 1.899 . S
Zn120 O121 2.032 . S
Zn120 O124 2.086 . S
Zn120 O129 1.977 . S
O121 Zn120 2.032 . S
O121 C125 1.278 . S
C122 O123 1.203 . S
C122 O129 1.267 . S
O123 C122 1.203 . S
O124 C117 1.185 . S
O124 Zn120 2.086 . S
C125 O121 1.278 . S
C125 O126 1.211 . S
O126 C125 1.211 . S
C127 O119 1.284 . S
C127 O128 1.273 . S
O128 C127 1.273 . S
O129 Zn120 1.977 . S
O129 C122 1.267 . S
C130 O131 1.160 . S
C130 O137 1.185 . S
O131 C130 1.160 . S
O132 Zn133 1.899 . S
O132 C140 1.284 . S
Zn133 O132 1.899 . S
Zn133 O134 2.032 . S
Zn133 O137 2.086 . S
Zn133 O142 1.977 . S
O134 Zn133 2.032 . S
O134 C138 1.278 . S
C135 O136 1.203 . S
C135 O142 1.267 . S
O136 C135 1.203 . S
O137 C130 1.185 . S
O137 Zn133 2.086 . S
C138 O134 1.278 . S
C138 O139 1.211 . S
O139 C138 1.211 . S
C140 O132 1.284 . S
C140 O141 1.273 . S
O141 C140 1.273 . S
O142 Zn133 1.977 . S
O142 C135 1.267 . S
C143 O144 1.160 . S
C143 O150 1.185 . S
O144 C143 1.160 . S
O145 Zn146 1.899 . S
O145 C153 1.284 . S
Zn146 O145 1.899 . S
Zn146 O147 2.032 . S
Zn146 O150 2.086 . S
Zn146 O155 1.977 . S
O147 Zn146 2.032 . S
O147 C151 1.278 1_554 S
C148 O149 1.203 . S
C148 O155 1.267 . S
O149 C148 1.203 . S
O150 C143 1.185 . S
O150 Zn146 2.086 . S
C151 O147 1.278 1_556 S
C151 O152 1.211 . S
O152 C151 1.211 . S
C153 O145 1.284 . S
C153 O154 1.273 . S
O154 C153 1.273 . S
O155 Zn146 1.977 . S
O155 C148 1.267 . S
H156 C174 0.951 . S
H157 C176 0.951 . S
H158 C178 0.950 . S
H159 C179 0.950 . S
H160 C181 0.950 . S
H161 C184 0.950 . S
H162 C185 0.950 . S
H163 C187 0.950 . S
H164 C188 0.950 . S
H165 C189 0.951 . S
H166 C191 0.951 . S
H167 C193 0.950 . S
H168 C194 0.950 . S
H169 C196 0.950 . S
H170 C199 0.950 . S
H171 C200 0.950 . S
H172 C202 0.950 . S
H173 C203 0.950 . S
C174 H156 0.951 . S
C174 C175 1.366 . S
C174 C176 1.388 . S
C175 C174 1.366 . S
C175 C179 1.385 . S
C176 H157 0.951 . S
C176 C174 1.388 . S
C176 C177 1.366 . S
C177 C176 1.366 . S
C177 C178 1.414 . S
C177 C180 1.499 . S
C178 H158 0.950 . S
C178 C177 1.414 . S
C178 C179 1.374 . S
C179 H159 0.950 . S
C179 C175 1.385 . S
C179 C178 1.374 . S
C180 C177 1.499 . S
C180 C181 1.373 . S
C180 C182 1.389 . S
C181 H160 0.950 . S
C181 C180 1.373 . S
C181 C197 1.377 . S
C182 C180 1.389 . S
C182 C183 1.524 . S
C182 C196 1.377 . S
C183 C182 1.524 . S
C183 C184 1.397 . S
C183 C188 1.363 . S
C184 H161 0.950 . S
C184 C183 1.397 . S
C184 C185 1.334 . S
C185 H162 0.950 . S
C185 C184 1.334 . S
C185 C186 1.287 . S
C186 C185 1.287 . S
C186 C187 1.524 . S
C186 H205 0.913 . S
C187 H163 0.950 . S
C187 C186 1.524 . S
C187 C188 1.415 . S
C188 H164 0.950 . S
C188 C183 1.363 . S
C188 C187 1.415 . S
C189 H165 0.951 . S
C189 C190 1.366 . S
C189 C191 1.388 . S
C190 C189 1.366 . S
C190 C194 1.385 . S
C191 H166 0.951 . S
C191 C189 1.388 . S
C191 C192 1.366 . S
C192 C191 1.366 . S
C192 C193 1.414 . S
C192 C195 1.499 . S
C193 H167 0.950 . S
C193 C192 1.414 . S
C193 C194 1.374 . S
C194 H168 0.950 . S
C194 C190 1.385 . S
C194 C193 1.374 . S
C195 C192 1.499 . S
C195 C196 1.373 . S
C195 C197 1.389 . S
C196 H169 0.950 . S
C196 C182 1.377 . S
C196 C195 1.373 . S
C197 C181 1.377 . S
C197 C195 1.389 . S
C197 C198 1.524 . S
C198 C197 1.524 . S
C198 C199 1.397 . S
C198 C203 1.363 . S
C199 H170 0.950 . S
C199 C198 1.397 . S
C199 C200 1.334 . S
C200 H171 0.950 . S
C200 C199 1.334 . S
C200 C201 1.287 . S
C201 C200 1.287 . S
C201 C202 1.524 . S
C201 H204 0.999 . S
C202 H172 0.950 . S
C202 C201 1.524 . S
C202 C203 1.415 . S
C203 H173 0.950 . S
C203 C198 1.363 . S
C203 C202 1.415 . S
H204 C201 0.999 . S
H205 C186 0.913 . S
H206 C224 0.951 . S
H207 C226 0.951 . S
H208 C228 0.950 . S
H209 C229 0.950 . S
H210 C231 0.950 . S
H211 C234 0.950 . S
H212 C235 0.950 . S
H213 C237 0.950 . S
H214 C238 0.950 . S
H215 C239 0.951 . S
H216 C241 0.951 . S
H217 C243 0.950 . S
H218 C244 0.950 . S
H219 C246 0.950 . S
H220 C249 0.950 . S
H221 C250 0.950 . S
H222 C252 0.950 . S
H223 C253 0.950 . S
C224 H206 0.951 . S
C224 C225 1.366 . S
C224 C226 1.388 . S
C225 C224 1.366 . S
C225 C229 1.385 . S
C226 H207 0.951 . S
C226 C224 1.388 . S
C226 C227 1.366 . S
C227 C226 1.366 . S
C227 C228 1.414 . S
C227 C230 1.499 . S
C228 H208 0.950 . S
C228 C227 1.414 . S
C228 C229 1.374 . S
C229 H209 0.950 . S
C229 C225 1.385 . S
C229 C228 1.374 . S
C230 C227 1.499 . S
C230 C231 1.373 . S
C230 C232 1.389 . S
C231 H210 0.950 . S
C231 C230 1.373 . S
C231 C247 1.377 1_655 S
C232 C230 1.389 . S
C232 C233 1.524 . S
C232 C246 1.377 1_655 S
C233 C232 1.524 . S
C233 C234 1.397 . S
C233 C238 1.363 . S
C234 H211 0.950 . S
C234 C233 1.397 . S
C234 C235 1.334 . S
C235 H212 0.950 . S
C235 C234 1.334 . S
C235 C236 1.287 . S
C236 C235 1.287 . S
C236 C237 1.524 . S
C236 H255 0.913 . S
C237 H213 0.950 . S
C237 C236 1.524 . S
C237 C238 1.415 . S
C238 H214 0.950 . S
C238 C233 1.363 . S
C238 C237 1.415 . S
C239 H215 0.951 . S
C239 C240 1.366 . S
C239 C241 1.388 . S
C240 C239 1.366 . S
C240 C244 1.385 . S
C241 H216 0.951 . S
C241 C239 1.388 . S
C241 C242 1.366 . S
C242 C241 1.366 . S
C242 C243 1.414 . S
C242 C245 1.499 . S
C243 H217 0.950 . S
C243 C242 1.414 . S
C243 C244 1.374 . S
C244 H218 0.950 . S
C244 C240 1.385 . S
C244 C243 1.374 . S
C245 C242 1.499 . S
C245 C246 1.373 . S
C245 C247 1.389 . S
C246 H219 0.950 . S
C246 C232 1.377 1_455 S
C246 C245 1.373 . S
C247 C231 1.377 1_455 S
C247 C245 1.389 . S
C247 C248 1.524 . S
C248 C247 1.524 . S
C248 C249 1.397 . S
C248 C253 1.363 . S
C249 H220 0.950 . S
C249 C248 1.397 . S
C249 C250 1.334 . S
C250 H221 0.950 . S
C250 C249 1.334 . S
C250 C251 1.287 . S
C251 C250 1.287 . S
C251 C252 1.524 . S
C251 H254 0.999 . S
C252 H222 0.950 . S
C252 C251 1.524 . S
C252 C253 1.415 . S
C253 H223 0.950 . S
C253 C248 1.363 . S
C253 C252 1.415 . S
H254 C251 0.999 . S
H255 C236 0.913 . S
H256 C274 0.951 . S
H257 C276 0.951 . S
H258 C278 0.950 . S
H259 C279 0.950 . S
H260 C281 0.950 . S
H261 C284 0.950 . S
H262 C285 0.950 . S
H263 C287 0.950 . S
H264 C288 0.950 . S
H265 C289 0.951 . S
H266 C291 0.951 . S
H267 C293 0.950 . S
H268 C294 0.950 . S
H269 C296 0.950 . S
H270 C299 0.950 . S
H271 C300 0.950 . S
H272 C302 0.950 . S
H273 C303 0.950 . S
C274 H256 0.951 . S
C274 C275 1.366 1_554 S
C274 C276 1.388 . S
C275 C274 1.366 1_556 S
C275 C279 1.385 . S
C276 H257 0.951 . S
C276 C274 1.388 . S
C276 C277 1.366 1_554 S
C277 C276 1.366 1_556 S
C277 C278 1.414 . S
C277 C280 1.499 . S
C278 H258 0.950 . S
C278 C277 1.414 . S
C278 C279 1.374 . S
C279 H259 0.950 . S
C279 C275 1.385 . S
C279 C278 1.374 . S
C280 C277 1.499 . S
C280 C281 1.373 . S
C280 C282 1.389 1_556 S
C281 H260 0.950 . S
C281 C280 1.373 . S
C281 C297 1.377 1_565 S
C282 C280 1.389 1_554 S
C282 C283 1.524 . S
C282 C296 1.377 1_565 S
C283 C282 1.524 . S
C283 C284 1.397 1_554 S
C283 C288 1.363 . S
C284 H261 0.950 . S
C284 C283 1.397 1_556 S
C284 C285 1.334 . S
C285 H262 0.950 . S
C285 C284 1.334 . S
C285 C286 1.287 1_556 S
C286 C285 1.287 1_554 S
C286 C287 1.524 . S
C286 H305 0.913 . S
C287 H263 0.950 . S
C287 C286 1.524 . S
C287 C288 1.415 . S
C288 H264 0.950 . S
C288 C283 1.363 . S
C288 C287 1.415 . S
C289 H265 0.951 . S
C289 C290 1.366 1_556 S
C289 C291 1.388 . S
C290 C289 1.366 1_554 S
C290 C294 1.385 . S
C291 H266 0.951 . S
C291 C289 1.388 . S
C291 C292 1.366 1_556 S
C292 C291 1.366 1_554 S
C292 C293 1.414 . S
C292 C295 1.499 . S
C293 H267 0.950 . S
C293 C292 1.414 . S
C293 C294 1.374 . S
C294 H268 0.950 . S
C294 C290 1.385 . S
C294 C293 1.374 . S
C295 C292 1.499 . S
C295 C296 1.373 . S
C295 C297 1.389 1_554 S
C296 H269 0.950 . S
C296 C282 1.377 1_545 S
C296 C295 1.373 . S
C297 C281 1.377 1_545 S
C297 C295 1.389 1_556 S
C297 C298 1.524 . S
C298 C297 1.524 . S
C298 C299 1.397 1_556 S
C298 C303 1.363 . S
C299 H270 0.950 . S
C299 C298 1.397 1_554 S
C299 C300 1.334 . S
C300 H271 0.950 . S
C300 C299 1.334 . S
C300 C301 1.287 1_554 S
C301 C300 1.287 1_556 S
C301 C302 1.524 . S
C301 H304 0.999 . S
C302 H272 0.950 . S
C302 C301 1.524 . S
C302 C303 1.415 . S
C303 H273 0.950 . S
C303 C298 1.363 . S
C303 C302 1.415 . S
H304 C301 0.999 . S
H305 C286 0.913 . S
H306 C324 0.951 . S
H307 C326 0.951 . S
H308 C328 0.950 . S
H309 C329 0.950 . S
H310 C331 0.950 . S
H311 C334 0.950 . S
H312 C335 0.950 . S
H313 C337 0.950 . S
H314 C338 0.950 . S
H315 C339 0.951 . S
H316 C341 0.951 . S
H317 C343 0.950 . S
H318 C344 0.950 . S
H319 C346 0.950 . S
H320 C349 0.950 . S
H321 C350 0.950 . S
H322 C352 0.950 . S
H323 C353 0.950 . S
C324 H306 0.951 . S
C324 C325 1.366 . S
C324 C326 1.388 . S
C325 C324 1.366 . S
C325 C329 1.385 . S
C326 H307 0.951 . S
C326 C324 1.388 . S
C326 C327 1.366 . S
C327 C326 1.366 . S
C327 C328 1.414 . S
C327 C330 1.499 . S
C328 H308 0.950 . S
C328 C327 1.414 . S
C328 C329 1.374 . S
C329 H309 0.950 . S
C329 C325 1.385 . S
C329 C328 1.374 . S
C330 C327 1.499 . S
C330 C331 1.373 . S
C330 C332 1.389 . S
C331 H310 0.950 . S
C331 C330 1.373 . S
C331 C347 1.377 . S
C332 C330 1.389 . S
C332 C333 1.524 . S
C332 C346 1.377 . S
C333 C332 1.524 . S
C333 C334 1.397 . S
C333 C338 1.363 . S
C334 H311 0.950 . S
C334 C333 1.397 . S
C334 C335 1.334 . S
C335 H312 0.950 . S
C335 C334 1.334 . S
C335 C336 1.287 . S
C336 C335 1.287 . S
C336 C337 1.524 . S
C336 H355 0.913 . S
C337 H313 0.950 . S
C337 C336 1.524 . S
C337 C338 1.415 . S
C338 H314 0.950 . S
C338 C333 1.363 . S
C338 C337 1.415 . S
C339 H315 0.951 . S
C339 C340 1.366 . S
C339 C341 1.388 . S
C340 C339 1.366 . S
C340 C344 1.385 . S
C341 H316 0.951 . S
C341 C339 1.388 . S
C341 C342 1.366 . S
C342 C341 1.366 . S
C342 C343 1.414 . S
C342 C345 1.499 . S
C343 H317 0.950 . S
C343 C342 1.414 . S
C343 C344 1.374 . S
C344 H318 0.950 . S
C344 C340 1.385 . S
C344 C343 1.374 . S
C345 C342 1.499 . S
C345 C346 1.373 . S
C345 C347 1.389 . S
C346 H319 0.950 . S
C346 C332 1.377 . S
C346 C345 1.373 . S
C347 C331 1.377 . S
C347 C345 1.389 . S
C347 C348 1.524 . S
C348 C347 1.524 . S
C348 C349 1.397 . S
C348 C353 1.363 . S
C349 H320 0.950 . S
C349 C348 1.397 . S
C349 C350 1.334 . S
C350 H321 0.950 . S
C350 C349 1.334 . S
C350 C351 1.287 . S
C351 C350 1.287 . S
C351 C352 1.524 . S
C351 H354 0.999 . S
C352 H322 0.950 . S
C352 C351 1.524 . S
C352 C353 1.415 . S
C353 H323 0.950 . S
C353 C348 1.363 . S
C353 C352 1.415 . S
H354 C351 0.999 . S
H355 C336 0.913 . S
H356 C374 0.951 . S
H357 C376 0.951 . S
H358 C378 0.950 . S
H359 C379 0.950 . S
H360 C381 0.950 . S
H361 C384 0.950 . S
H362 C385 0.950 . S
H363 C387 0.950 . S
H364 C388 0.950 . S
H365 C389 0.951 . S
H366 C391 0.951 . S
H367 C393 0.950 . S
H368 C394 0.950 . S
H369 C396 0.950 . S
H370 C399 0.950 . S
H371 C400 0.950 . S
H372 C402 0.950 . S
H373 C403 0.950 . S
C374 H356 0.951 . S
C374 C375 1.366 . S
C374 C376 1.388 . S
C375 C374 1.366 . S
C375 C379 1.385 . S
C376 H357 0.951 . S
C376 C374 1.388 . S
C376 C377 1.366 . S
C377 C376 1.366 . S
C377 C378 1.414 . S
C377 C380 1.499 . S
C378 H358 0.950 . S
C378 C377 1.414 . S
C378 C379 1.374 . S
C379 H359 0.950 . S
C379 C375 1.385 . S
C379 C378 1.374 . S
C380 C377 1.499 . S
C380 C381 1.373 . S
C380 C382 1.389 . S
C381 H360 0.950 . S
C381 C380 1.373 . S
C381 C397 1.377 1_655 S
C382 C380 1.389 . S
C382 C383 1.524 . S
C382 C396 1.377 1_655 S
C383 C382 1.524 . S
C383 C384 1.397 . S
C383 C388 1.363 . S
C384 H361 0.950 . S
C384 C383 1.397 . S
C384 C385 1.334 . S
C385 H362 0.950 . S
C385 C384 1.334 . S
C385 C386 1.287 . S
C386 C385 1.287 . S
C386 C387 1.524 . S
C386 H405 0.913 . S
C387 H363 0.950 . S
C387 C386 1.524 . S
C387 C388 1.415 . S
C388 H364 0.950 . S
C388 C383 1.363 . S
C388 C387 1.415 . S
C389 H365 0.951 . S
C389 C390 1.366 . S
C389 C391 1.388 . S
C390 C389 1.366 . S
C390 C394 1.385 . S
C391 H366 0.951 . S
C391 C389 1.388 . S
C391 C392 1.366 . S
C392 C391 1.366 . S
C392 C393 1.414 . S
C392 C395 1.499 . S
C393 H367 0.950 . S
C393 C392 1.414 . S
C393 C394 1.374 . S
C394 H368 0.950 . S
C394 C390 1.385 . S
C394 C393 1.374 . S
C395 C392 1.499 . S
C395 C396 1.373 . S
C395 C397 1.389 . S
C396 H369 0.950 . S
C396 C382 1.377 1_455 S
C396 C395 1.373 . S
C397 C381 1.377 1_455 S
C397 C395 1.389 . S
C397 C398 1.524 . S
C398 C397 1.524 . S
C398 C399 1.397 . S
C398 C403 1.363 . S
C399 H370 0.950 . S
C399 C398 1.397 . S
C399 C400 1.334 . S
C400 H371 0.950 . S
C400 C399 1.334 . S
C400 C401 1.287 . S
C401 C400 1.287 . S
C401 C402 1.524 . S
C401 H404 0.999 . S
C402 H372 0.950 . S
C402 C401 1.524 . S
C402 C403 1.415 . S
C403 H373 0.950 . S
C403 C398 1.363 . S
C403 C402 1.415 . S
H404 C401 0.999 . S
H405 C386 0.913 . S
H406 C424 0.951 . S
H407 C426 0.951 . S
H408 C428 0.950 . S
H409 C429 0.950 . S
H410 C431 0.950 . S
H411 C434 0.950 . S
H412 C435 0.950 . S
H413 C437 0.950 . S
H414 C438 0.950 . S
H415 C439 0.951 . S
H416 C441 0.951 . S
H417 C443 0.950 . S
H418 C444 0.950 . S
H419 C446 0.950 . S
H420 C449 0.950 . S
H421 C450 0.950 . S
H422 C452 0.950 . S
H423 C453 0.950 . S
C424 H406 0.951 . S
C424 C425 1.366 1_556 S
C424 C426 1.388 . S
C425 C424 1.366 1_554 S
C425 C429 1.385 . S
C426 H407 0.951 . S
C426 C424 1.388 . S
C426 C427 1.366 1_556 S
C427 C426 1.366 1_554 S
C427 C428 1.414 . S
C427 C430 1.499 . S
C428 H408 0.950 . S
C428 C427 1.414 . S
C428 C429 1.374 . S
C429 H409 0.950 . S
C429 C425 1.385 . S
C429 C428 1.374 . S
C430 C427 1.499 . S
C430 C431 1.373 . S
C430 C432 1.389 1_554 S
C431 H410 0.950 . S
C431 C430 1.373 . S
C431 C447 1.377 1_565 S
C432 C430 1.389 1_556 S
C432 C433 1.524 . S
C432 C446 1.377 1_565 S
C433 C432 1.524 . S
C433 C434 1.397 1_556 S
C433 C438 1.363 . S
C434 H411 0.950 . S
C434 C433 1.397 1_554 S
C434 C435 1.334 . S
C435 H412 0.950 . S
C435 C434 1.334 . S
C435 C436 1.287 1_554 S
C436 C435 1.287 1_556 S
C436 C437 1.524 . S
C436 H455 0.913 . S
C437 H413 0.950 . S
C437 C436 1.524 . S
C437 C438 1.415 . S
C438 H414 0.950 . S
C438 C433 1.363 . S
C438 C437 1.415 . S
C439 H415 0.951 . S
C439 C440 1.366 1_554 S
C439 C441 1.388 . S
C440 C439 1.366 1_556 S
C440 C444 1.385 . S
C441 H416 0.951 . S
C441 C439 1.388 . S
C441 C442 1.366 1_554 S
C442 C441 1.366 1_556 S
C442 C443 1.414 . S
C442 C445 1.499 . S
C443 H417 0.950 . S
C443 C442 1.414 . S
C443 C444 1.374 . S
C444 H418 0.950 . S
C444 C440 1.385 . S
C444 C443 1.374 . S
C445 C442 1.499 . S
C445 C446 1.373 . S
C445 C447 1.389 1_556 S
C446 H419 0.950 . S
C446 C432 1.377 1_545 S
C446 C445 1.373 . S
C447 C431 1.377 1_545 S
C447 C445 1.389 1_554 S
C447 C448 1.524 . S
C448 C447 1.524 . S
C448 C449 1.397 1_554 S
C448 C453 1.363 . S
C449 H420 0.950 . S
C449 C448 1.397 1_556 S
C449 C450 1.334 . S
C450 H421 0.950 . S
C450 C449 1.334 . S
C450 C451 1.287 1_556 S
C451 C450 1.287 1_554 S
C451 C452 1.524 . S
C451 H454 0.999 . S
C452 H422 0.950 . S
C452 C451 1.524 . S
C452 C453 1.415 . S
C453 H423 0.950 . S
C453 C448 1.363 . S
C453 C452 1.415 . S
H454 C451 0.999 . S
H455 C436 0.913 . S
H456 C474 0.951 . S
H457 C476 0.951 . S
H458 C478 0.950 . S
H459 C479 0.950 . S
H460 C481 0.950 . S
H461 C484 0.950 . S
H462 C485 0.950 . S
H463 C487 0.950 . S
H464 C488 0.950 . S
H465 C489 0.951 . S
H466 C491 0.951 . S
H467 C493 0.950 . S
H468 C494 0.950 . S
H469 C496 0.950 . S
H470 C499 0.950 . S
H471 C500 0.950 . S
H472 C502 0.950 . S
H473 C503 0.950 . S
C474 H456 0.951 . S
C474 C475 1.366 . S
C474 C476 1.388 . S
C475 C474 1.366 . S
C475 C479 1.385 . S
C476 H457 0.951 . S
C476 C474 1.388 . S
C476 C477 1.366 . S
C477 C476 1.366 . S
C477 C478 1.414 . S
C477 C480 1.499 . S
C478 H458 0.950 . S
C478 C477 1.414 . S
C478 C479 1.374 . S
C479 H459 0.950 . S
C479 C475 1.385 . S
C479 C478 1.374 . S
C480 C477 1.499 . S
C480 C481 1.373 . S
C480 C482 1.389 . S
C481 H460 0.950 . S
C481 C480 1.373 . S
C481 C497 1.377 1_556 S
C482 C480 1.389 . S
C482 C483 1.524 . S
C482 C496 1.377 1_556 S
C483 C482 1.524 . S
C483 C484 1.397 . S
C483 C488 1.363 . S
C484 H461 0.950 . S
C484 C483 1.397 . S
C484 C485 1.334 . S
C485 H462 0.950 . S
C485 C484 1.334 . S
C485 C486 1.287 . S
C486 C485 1.287 . S
C486 C487 1.524 . S
C486 H505 0.913 . S
C487 H463 0.950 . S
C487 C486 1.524 . S
C487 C488 1.415 . S
C488 H464 0.950 . S
C488 C483 1.363 . S
C488 C487 1.415 . S
C489 H465 0.951 . S
C489 C490 1.366 . S
C489 C491 1.388 . S
C490 C489 1.366 . S
C490 C494 1.385 . S
C491 H466 0.951 . S
C491 C489 1.388 . S
C491 C492 1.366 . S
C492 C491 1.366 . S
C492 C493 1.414 . S
C492 C495 1.499 . S
C493 H467 0.950 . S
C493 C492 1.414 . S
C493 C494 1.374 . S
C494 H468 0.950 . S
C494 C490 1.385 . S
C494 C493 1.374 . S
C495 C492 1.499 . S
C495 C496 1.373 . S
C495 C497 1.389 . S
C496 H469 0.950 . S
C496 C482 1.377 1_554 S
C496 C495 1.373 . S
C497 C481 1.377 1_554 S
C497 C495 1.389 . S
C497 C498 1.524 . S
C498 C497 1.524 . S
C498 C499 1.397 . S
C498 C503 1.363 . S
C499 H470 0.950 . S
C499 C498 1.397 . S
C499 C500 1.334 . S
C500 H471 0.950 . S
C500 C499 1.334 . S
C500 C501 1.287 . S
C501 C500 1.287 . S
C501 C502 1.524 . S
C501 H504 0.999 . S
C502 H472 0.950 . S
C502 C501 1.524 . S
C502 C503 1.415 . S
C503 H473 0.950 . S
C503 C498 1.363 . S
C503 C502 1.415 . S
H504 C501 0.999 . S
H505 C486 0.913 . S
H506 C524 0.951 . S
H507 C526 0.951 . S
H508 C528 0.950 . S
H509 C529 0.950 . S
H510 C531 0.950 . S
H511 C534 0.950 . S
H512 C535 0.950 . S
H513 C537 0.950 . S
H514 C538 0.950 . S
H515 C539 0.951 . S
H516 C541 0.951 . S
H517 C543 0.950 . S
H518 C544 0.950 . S
H519 C546 0.950 . S
H520 C549 0.950 . S
H521 C550 0.950 . S
H522 C552 0.950 . S
H523 C553 0.950 . S
C524 H506 0.951 . S
C524 C525 1.366 . S
C524 C526 1.388 . S
C525 C524 1.366 . S
C525 C529 1.385 . S
C526 H507 0.951 . S
C526 C524 1.388 . S
C526 C527 1.366 . S
C527 C526 1.366 . S
C527 C528 1.414 . S
C527 C530 1.499 . S
C528 H508 0.950 . S
C528 C527 1.414 . S
C528 C529 1.374 . S
C529 H509 0.950 . S
C529 C525 1.385 . S
C529 C528 1.374 . S
C530 C527 1.499 . S
C530 C531 1.373 . S
C530 C532 1.389 . S
C531 H510 0.950 . S
C531 C530 1.373 . S
C531 C547 1.377 . S
C532 C530 1.389 . S
C532 C533 1.524 . S
C532 C546 1.377 . S
C533 C532 1.524 . S
C533 C534 1.397 . S
C533 C538 1.363 . S
C534 H511 0.950 . S
C534 C533 1.397 . S
C534 C535 1.334 . S
C535 H512 0.950 . S
C535 C534 1.334 . S
C535 C536 1.287 . S
C536 C535 1.287 . S
C536 C537 1.524 . S
C536 H555 0.913 . S
C537 H513 0.950 . S
C537 C536 1.524 . S
C537 C538 1.415 . S
C538 H514 0.950 . S
C538 C533 1.363 . S
C538 C537 1.415 . S
C539 H515 0.951 . S
C539 C540 1.366 . S
C539 C541 1.388 . S
C540 C539 1.366 . S
C540 C544 1.385 . S
C541 H516 0.951 . S
C541 C539 1.388 . S
C541 C542 1.366 . S
C542 C541 1.366 . S
C542 C543 1.414 . S
C542 C545 1.499 . S
C543 H517 0.950 . S
C543 C542 1.414 . S
C543 C544 1.374 . S
C544 H518 0.950 . S
C544 C540 1.385 . S
C544 C543 1.374 . S
C545 C542 1.499 . S
C545 C546 1.373 . S
C545 C547 1.389 . S
C546 H519 0.950 . S
C546 C532 1.377 . S
C546 C545 1.373 . S
C547 C531 1.377 . S
C547 C545 1.389 . S
C547 C548 1.524 . S
C548 C547 1.524 . S
C548 C549 1.397 . S
C548 C553 1.363 . S
C549 H520 0.950 . S
C549 C548 1.397 . S
C549 C550 1.334 . S
C550 H521 0.950 . S
C550 C549 1.334 . S
C550 C551 1.287 . S
C551 C550 1.287 . S
C551 C552 1.524 . S
C551 H554 0.999 . S
C552 H522 0.950 . S
C552 C551 1.524 . S
C552 C553 1.415 . S
C553 H523 0.950 . S
C553 C548 1.363 . S
C553 C552 1.415 . S
H554 C551 0.999 . S
H555 C536 0.913 . S
H556 C574 0.951 . S
H557 C576 0.951 . S
H558 C578 0.950 . S
H559 C579 0.950 . S
H560 C581 0.950 . S
H561 C584 0.950 . S
H562 C585 0.950 . S
H563 C587 0.950 . S
H564 C588 0.950 . S
H565 C589 0.951 . S
H566 C591 0.951 . S
H567 C593 0.950 . S
H568 C594 0.950 . S
H569 C596 0.950 . S
H570 C599 0.950 . S
H571 C600 0.950 . S
H572 C602 0.950 . S
H573 C603 0.950 . S
C574 H556 0.951 . S
C574 C575 1.366 . S
C574 C576 1.388 . S
C575 C574 1.366 . S
C575 C579 1.385 . S
C576 H557 0.951 . S
C576 C574 1.388 . S
C576 C577 1.366 . S
C577 C576 1.366 . S
C577 C578 1.414 . S
C577 C580 1.499 . S
C578 H558 0.950 . S
C578 C577 1.414 . S
C578 C579 1.374 . S
C579 H559 0.950 . S
C579 C575 1.385 . S
C579 C578 1.374 . S
C580 C577 1.499 . S
C580 C581 1.373 . S
C580 C582 1.389 . S
C581 H560 0.950 . S
C581 C580 1.373 . S
C581 C597 1.377 . S
C582 C580 1.389 . S
C582 C583 1.524 . S
C582 C596 1.377 . S
C583 C582 1.524 . S
C583 C584 1.397 . S
C583 C588 1.363 . S
C584 H561 0.950 . S
C584 C583 1.397 . S
C584 C585 1.334 . S
C585 H562 0.950 . S
C585 C584 1.334 . S
C585 C586 1.287 . S
C586 C585 1.287 . S
C586 C587 1.524 . S
C586 H605 0.913 . S
C587 H563 0.950 . S
C587 C586 1.524 . S
C587 C588 1.415 . S
C588 H564 0.950 . S
C588 C583 1.363 . S
C588 C587 1.415 . S
C589 H565 0.951 . S
C589 C590 1.366 . S
C589 C591 1.388 . S
C590 C589 1.366 . S
C590 C594 1.385 . S
C591 H566 0.951 . S
C591 C589 1.388 . S
C591 C592 1.366 . S
C592 C591 1.366 . S
C592 C593 1.414 . S
C592 C595 1.499 . S
C593 H567 0.950 . S
C593 C592 1.414 . S
C593 C594 1.374 . S
C594 H568 0.950 . S
C594 C590 1.385 . S
C594 C593 1.374 . S
C595 C592 1.499 . S
C595 C596 1.373 . S
C595 C597 1.389 . S
C596 H569 0.950 . S
C596 C582 1.377 . S
C596 C595 1.373 . S
C597 C581 1.377 . S
C597 C595 1.389 . S
C597 C598 1.524 . S
C598 C597 1.524 . S
C598 C599 1.397 . S
C598 C603 1.363 . S
C599 H570 0.950 . S
C599 C598 1.397 . S
C599 C600 1.334 . S
C600 H571 0.950 . S
C600 C599 1.334 . S
C600 C601 1.287 . S
C601 C600 1.287 . S
C601 C602 1.524 . S
C601 H604 0.999 . S
C602 H572 0.950 . S
C602 C601 1.524 . S
C602 C603 1.415 . S
C603 H573 0.950 . S
C603 C598 1.363 . S
C603 C602 1.415 . S
H604 C601 0.999 . S
H605 C586 0.913 . S
H606 C624 0.951 . S
H607 C626 0.951 . S
H608 C628 0.950 . S
H609 C629 0.950 . S
H610 C631 0.950 . S
H611 C634 0.950 . S
H612 C635 0.950 . S
H613 C637 0.950 . S
H614 C638 0.950 . S
H615 C639 0.951 . S
H616 C641 0.951 . S
H617 C643 0.950 . S
H618 C644 0.950 . S
H619 C646 0.950 . S
H620 C649 0.950 . S
H621 C650 0.950 . S
H622 C652 0.950 . S
H623 C653 0.950 . S
C624 H606 0.951 . S
C624 C625 1.366 . S
C624 C626 1.388 . S
C625 C624 1.366 . S
C625 C629 1.385 . S
C626 H607 0.951 . S
C626 C624 1.388 . S
C626 C627 1.366 . S
C627 C626 1.366 . S
C627 C628 1.414 . S
C627 C630 1.499 . S
C628 H608 0.950 . S
C628 C627 1.414 . S
C628 C629 1.374 . S
C629 H609 0.950 . S
C629 C625 1.385 . S
C629 C628 1.374 . S
C630 C627 1.499 . S
C630 C631 1.373 . S
C630 C632 1.375 1_554 S
C631 H610 0.950 . S
C631 C630 1.373 . S
C631 C647 1.391 . S
C632 C630 1.375 1_556 S
C632 C633 1.526 . S
C632 C646 1.391 . S
C633 C632 1.526 . S
C633 C634 1.397 1_556 S
C633 C638 1.363 . S
C634 H611 0.950 . S
C634 C633 1.397 1_554 S
C634 C635 1.334 . S
C635 H612 0.950 . S
C635 C634 1.334 . S
C635 C636 1.287 1_554 S
C636 C635 1.287 1_556 S
C636 C637 1.524 . S
C636 H655 0.913 . S
C637 H613 0.950 . S
C637 C636 1.524 . S
C637 C638 1.415 . S
C638 H614 0.950 . S
C638 C633 1.363 . S
C638 C637 1.415 . S
C639 H615 0.951 . S
C639 C640 1.366 . S
C639 C641 1.388 . S
C640 C639 1.366 . S
C640 C644 1.385 . S
C641 H616 0.951 . S
C641 C639 1.388 . S
C641 C642 1.366 . S
C642 C641 1.366 . S
C642 C643 1.414 . S
C642 C645 1.499 . S
C643 H617 0.950 . S
C643 C642 1.414 . S
C643 C644 1.374 . S
C644 H618 0.950 . S
C644 C640 1.385 . S
C644 C643 1.374 . S
C645 C642 1.499 . S
C645 C646 1.373 . S
C645 C647 1.375 1_556 S
C646 H619 0.950 . S
C646 C632 1.391 . S
C646 C645 1.373 . S
C647 C631 1.391 . S
C647 C645 1.375 1_554 S
C647 C648 1.526 . S
C648 C647 1.526 . S
C648 C649 1.397 1_554 S
C648 C653 1.363 . S
C649 H620 0.950 . S
C649 C648 1.397 1_556 S
C649 C650 1.334 . S
C650 H621 0.950 . S
C650 C649 1.334 . S
C650 C651 1.287 1_556 S
C651 C650 1.287 1_554 S
C651 C652 1.524 . S
C651 H654 0.999 . S
C652 H622 0.950 . S
C652 C651 1.524 . S
C652 C653 1.415 . S
C653 H623 0.950 . S
C653 C648 1.363 . S
C653 C652 1.415 . S
H654 C651 0.999 . S
H655 C636 0.913 . S
H656 C674 0.951 . S
H657 C676 0.951 . S
H658 C678 0.950 . S
H659 C679 0.950 . S
H660 C681 0.950 . S
H661 C684 0.950 . S
H662 C685 0.950 . S
H663 C687 0.950 . S
H664 C688 0.950 . S
H665 C689 0.951 . S
H666 C691 0.951 . S
H667 C693 0.950 . S
H668 C694 0.950 . S
H669 C696 0.950 . S
H670 C699 0.950 . S
H671 C700 0.950 . S
H672 C702 0.950 . S
H673 C703 0.950 . S
C674 H656 0.951 . S
C674 C675 1.366 . S
C674 C676 1.388 . S
C675 C674 1.366 . S
C675 C679 1.385 . S
C676 H657 0.951 . S
C676 C674 1.388 . S
C676 C677 1.366 . S
C677 C676 1.366 . S
C677 C678 1.414 . S
C677 C680 1.499 . S
C678 H658 0.950 . S
C678 C677 1.414 . S
C678 C679 1.374 . S
C679 H659 0.950 . S
C679 C675 1.385 . S
C679 C678 1.374 . S
C680 C677 1.499 . S
C680 C681 1.373 . S
C680 C682 1.389 . S
C681 H660 0.950 . S
C681 C680 1.373 . S
C681 C697 1.377 . S
C682 C680 1.389 . S
C682 C683 1.524 . S
C682 C696 1.377 . S
C683 C682 1.524 . S
C683 C684 1.397 . S
C683 C688 1.363 . S
C684 H661 0.950 . S
C684 C683 1.397 . S
C684 C685 1.334 . S
C685 H662 0.950 . S
C685 C684 1.334 . S
C685 C686 1.287 . S
C686 C685 1.287 . S
C686 C687 1.524 . S
C686 H705 0.913 . S
C687 H663 0.950 . S
C687 C686 1.524 . S
C687 C688 1.415 . S
C688 H664 0.950 . S
C688 C683 1.363 . S
C688 C687 1.415 . S
C689 H665 0.951 . S
C689 C690 1.366 . S
C689 C691 1.388 . S
C690 C689 1.366 . S
C690 C694 1.385 . S
C691 H666 0.951 . S
C691 C689 1.388 . S
C691 C692 1.366 . S
C692 C691 1.366 . S
C692 C693 1.414 . S
C692 C695 1.499 . S
C693 H667 0.950 . S
C693 C692 1.414 . S
C693 C694 1.374 . S
C694 H668 0.950 . S
C694 C690 1.385 . S
C694 C693 1.374 . S
C695 C692 1.499 . S
C695 C696 1.373 . S
C695 C697 1.389 . S
C696 H669 0.950 . S
C696 C682 1.377 . S
C696 C695 1.373 . S
C697 C681 1.377 . S
C697 C695 1.389 . S
C697 C698 1.524 . S
C698 C697 1.524 . S
C698 C699 1.397 . S
C698 C703 1.363 . S
C699 H670 0.950 . S
C699 C698 1.397 . S
C699 C700 1.334 . S
C700 H671 0.950 . S
C700 C699 1.334 . S
C700 C701 1.287 . S
C701 C700 1.287 . S
C701 C702 1.524 . S
C701 H704 0.999 . S
C702 H672 0.950 . S
C702 C701 1.524 . S
C702 C703 1.415 . S
C703 H673 0.950 . S
C703 C698 1.363 . S
C703 C702 1.415 . S
H704 C701 0.999 . S
H705 C686 0.913 . S
H706 C724 0.951 . S
H707 C726 0.951 . S
H708 C728 0.950 . S
H709 C729 0.950 . S
H710 C731 0.950 . S
H711 C734 0.950 . S
H712 C735 0.950 . S
H713 C737 0.950 . S
H714 C738 0.950 . S
H715 C739 0.951 . S
H716 C741 0.951 . S
H717 C743 0.950 . S
H718 C744 0.950 . S
H719 C746 0.950 . S
H720 C749 0.950 . S
H721 C750 0.950 . S
H722 C752 0.950 . S
H723 C753 0.950 . S
C724 H706 0.951 . S
C724 C725 1.366 . S
C724 C726 1.388 . S
C725 C724 1.366 . S
C725 C729 1.385 . S
C726 H707 0.951 . S
C726 C724 1.388 . S
C726 C727 1.366 . S
C727 C726 1.366 . S
C727 C728 1.414 . S
C727 C730 1.499 . S
C728 H708 0.950 . S
C728 C727 1.414 . S
C728 C729 1.374 . S
C729 H709 0.950 . S
C729 C725 1.385 . S
C729 C728 1.374 . S
C730 C727 1.499 . S
C730 C731 1.373 . S
C730 C732 1.389 . S
C731 H710 0.950 . S
C731 C730 1.373 . S
C731 C747 1.377 . S
C732 C730 1.389 . S
C732 C733 1.524 . S
C732 C746 1.377 . S
C733 C732 1.524 . S
C733 C734 1.397 . S
C733 C738 1.363 . S
C734 H711 0.950 . S
C734 C733 1.397 . S
C734 C735 1.334 . S
C735 H712 0.950 . S
C735 C734 1.334 . S
C735 C736 1.287 . S
C736 C735 1.287 . S
C736 C737 1.524 . S
C736 H755 0.913 . S
C737 H713 0.950 . S
C737 C736 1.524 . S
C737 C738 1.415 . S
C738 H714 0.950 . S
C738 C733 1.363 . S
C738 C737 1.415 . S
C739 H715 0.951 . S
C739 C740 1.366 . S
C739 C741 1.388 . S
C740 C739 1.366 . S
C740 C744 1.385 . S
C741 H716 0.951 . S
C741 C739 1.388 . S
C741 C742 1.366 . S
C742 C741 1.366 . S
C742 C743 1.414 . S
C742 C745 1.499 . S
C743 H717 0.950 . S
C743 C742 1.414 . S
C743 C744 1.374 . S
C744 H718 0.950 . S
C744 C740 1.385 . S
C744 C743 1.374 . S
C745 C742 1.499 . S
C745 C746 1.373 . S
C745 C747 1.389 . S
C746 H719 0.950 . S
C746 C732 1.377 . S
C746 C745 1.373 . S
C747 C731 1.377 . S
C747 C745 1.389 . S
C747 C748 1.524 . S
C748 C747 1.524 . S
C748 C749 1.397 . S
C748 C753 1.363 . S
C749 H720 0.950 . S
C749 C748 1.397 . S
C749 C750 1.334 . S
C750 H721 0.950 . S
C750 C749 1.334 . S
C750 C751 1.287 . S
C751 C750 1.287 . S
C751 C752 1.524 . S
C751 H754 0.999 . S
C752 H722 0.950 . S
C752 C751 1.524 . S
C752 C753 1.415 . S
C753 H723 0.950 . S
C753 C748 1.363 . S
C753 C752 1.415 . S
H754 C751 0.999 . S
H755 C736 0.913 . S
H756 C774 0.951 . S
H757 C776 0.951 . S
H758 C778 0.950 . S
H759 C779 0.950 . S
H760 C781 0.950 . S
H761 C784 0.950 . S
H762 C785 0.950 . S
H763 C787 0.950 . S
H764 C788 0.950 . S
H765 C789 0.951 . S
H766 C791 0.951 . S
H767 C793 0.950 . S
H768 C794 0.950 . S
H769 C796 0.950 . S
H770 C799 0.950 . S
H771 C800 0.950 . S
H772 C802 0.950 . S
H773 C803 0.950 . S
C774 H756 0.951 . S
C774 C775 1.366 . S
C774 C776 1.388 . S
C775 C774 1.366 . S
C775 C779 1.385 . S
C776 H757 0.951 . S
C776 C774 1.388 . S
C776 C777 1.366 . S
C777 C776 1.366 . S
C777 C778 1.414 . S
C777 C780 1.499 . S
C778 H758 0.950 . S
C778 C777 1.414 . S
C778 C779 1.374 . S
C779 H759 0.950 . S
C779 C775 1.385 . S
C779 C778 1.374 . S
C780 C777 1.499 . S
C780 C781 1.373 . S
C780 C782 1.389 . S
C781 H760 0.950 . S
C781 C780 1.373 . S
C781 C797 1.377 . S
C782 C780 1.389 . S
C782 C783 1.524 . S
C782 C796 1.377 . S
C783 C782 1.524 . S
C783 C784 1.397 . S
C783 C788 1.363 . S
C784 H761 0.950 . S
C784 C783 1.397 . S
C784 C785 1.334 . S
C785 H762 0.950 . S
C785 C784 1.334 . S
C785 C786 1.287 . S
C786 C785 1.287 . S
C786 C787 1.524 . S
C786 H805 0.913 . S
C787 H763 0.950 . S
C787 C786 1.524 . S
C787 C788 1.415 . S
C788 H764 0.950 . S
C788 C783 1.363 . S
C788 C787 1.415 . S
C789 H765 0.951 . S
C789 C790 1.366 . S
C789 C791 1.388 . S
C790 C789 1.366 . S
C790 C794 1.385 . S
C791 H766 0.951 . S
C791 C789 1.388 . S
C791 C792 1.366 . S
C792 C791 1.366 . S
C792 C793 1.414 . S
C792 C795 1.499 . S
C793 H767 0.950 . S
C793 C792 1.414 . S
C793 C794 1.374 . S
C794 H768 0.950 . S
C794 C790 1.385 . S
C794 C793 1.374 . S
C795 C792 1.499 . S
C795 C796 1.373 . S
C795 C797 1.389 . S
C796 H769 0.950 . S
C796 C782 1.377 . S
C796 C795 1.373 . S
C797 C781 1.377 . S
C797 C795 1.389 . S
C797 C798 1.524 . S
C798 C797 1.524 . S
C798 C799 1.397 . S
C798 C803 1.363 . S
C799 H770 0.950 . S
C799 C798 1.397 . S
C799 C800 1.334 . S
C800 H771 0.950 . S
C800 C799 1.334 . S
C800 C801 1.287 . S
C801 C800 1.287 . S
C801 C802 1.524 . S
C801 H804 0.999 . S
C802 H772 0.950 . S
C802 C801 1.524 . S
C802 C803 1.415 . S
C803 H773 0.950 . S
C803 C798 1.363 . S
C803 C802 1.415 . S
H804 C801 0.999 . S
H805 C786 0.913 . S
H806 C824 0.951 . S
H807 C826 0.951 . S
H808 C828 0.950 . S
H809 C829 0.950 . S
H810 C831 0.950 . S
H811 C834 0.950 . S
H812 C835 0.950 . S
H813 C837 0.950 . S
H814 C838 0.950 . S
H815 C839 0.951 . S
H816 C841 0.951 . S
H817 C843 0.950 . S
H818 C844 0.950 . S
H819 C846 0.950 . S
H820 C849 0.950 . S
H821 C850 0.950 . S
H822 C852 0.950 . S
H823 C853 0.950 . S
C824 H806 0.951 . S
C824 C825 1.366 . S
C824 C826 1.388 . S
C825 C824 1.366 . S
C825 C829 1.385 . S
C826 H807 0.951 . S
C826 C824 1.388 . S
C826 C827 1.366 . S
C827 C826 1.366 . S
C827 C828 1.414 . S
C827 C830 1.499 . S
C828 H808 0.950 . S
C828 C827 1.414 . S
C828 C829 1.374 . S
C829 H809 0.950 . S
C829 C825 1.385 . S
C829 C828 1.374 . S
C830 C827 1.499 . S
C830 C831 1.373 . S
C830 C832 1.389 . S
C831 H810 0.950 . S
C831 C830 1.373 . S
C831 C847 1.377 . S
C832 C830 1.389 . S
C832 C833 1.524 . S
C832 C846 1.377 . S
C833 C832 1.524 . S
C833 C834 1.397 . S
C833 C838 1.363 . S
C834 H811 0.950 . S
C834 C833 1.397 . S
C834 C835 1.334 . S
C835 H812 0.950 . S
C835 C834 1.334 . S
C835 C836 1.287 . S
C836 C835 1.287 . S
C836 C837 1.524 . S
C836 H855 0.913 . S
C837 H813 0.950 . S
C837 C836 1.524 . S
C837 C838 1.415 . S
C838 H814 0.950 . S
C838 C833 1.363 . S
C838 C837 1.415 . S
C839 H815 0.951 . S
C839 C840 1.366 . S
C839 C841 1.388 . S
C840 C839 1.366 . S
C840 C844 1.385 . S
C841 H816 0.951 . S
C841 C839 1.388 . S
C841 C842 1.366 . S
C842 C841 1.366 . S
C842 C843 1.414 . S
C842 C845 1.499 . S
C843 H817 0.950 . S
C843 C842 1.414 . S
C843 C844 1.374 . S
C844 H818 0.950 . S
C844 C840 1.385 . S
C844 C843 1.374 . S
C845 C842 1.499 . S
C845 C846 1.373 . S
C845 C847 1.389 . S
C846 H819 0.950 . S
C846 C832 1.377 . S
C846 C845 1.373 . S
C847 C831 1.377 . S
C847 C845 1.389 . S
C847 C848 1.524 . S
C848 C847 1.524 . S
C848 C849 1.397 . S
C848 C853 1.363 . S
C849 H820 0.950 . S
C849 C848 1.397 . S
C849 C850 1.334 . S
C850 H821 0.950 . S
C850 C849 1.334 . S
C850 C851 1.287 . S
C851 C850 1.287 . S
C851 C852 1.524 . S
C851 H854 0.999 . S
C852 H822 0.950 . S
C852 C851 1.524 . S
C852 C853 1.415 . S
C853 H823 0.950 . S
C853 C848 1.363 . S
C853 C852 1.415 . S
H854 C851 0.999 . S
H855 C836 0.913 . S
H856 C874 0.951 . S
H857 C876 0.951 . S
H858 C878 0.950 . S
H859 C879 0.950 1_556 S
H860 C881 0.950 . S
H861 C884 0.950 . S
H862 C885 0.950 . S
H863 C887 0.950 . S
H864 C888 0.950 . S
H865 C889 0.951 . S
H866 C891 0.951 . S
H867 C893 0.950 . S
H868 C894 0.950 . S
H869 C896 0.950 . S
H870 C899 0.950 . S
H871 C900 0.950 . S
H872 C902 0.950 . S
H873 C903 0.950 . S
C874 H856 0.951 . S
C874 C875 1.366 . S
C874 C876 1.388 . S
C875 C874 1.366 . S
C875 C879 1.385 . S
C876 H857 0.951 . S
C876 C874 1.388 . S
C876 C877 1.366 . S
C877 C876 1.366 . S
C877 C878 1.414 . S
C877 C880 1.499 . S
C878 H858 0.950 . S
C878 C877 1.414 . S
C878 C879 1.374 . S
C879 H859 0.950 1_554 S
C879 C875 1.385 . S
C879 C878 1.374 . S
C880 C877 1.499 . S
C880 C881 1.373 . S
C880 C882 1.389 . S
C881 H860 0.950 . S
C881 C880 1.373 . S
C881 C897 1.377 . S
C882 C880 1.389 . S
C882 C883 1.524 . S
C882 C896 1.377 . S
C883 C882 1.524 . S
C883 C884 1.397 . S
C883 C888 1.363 . S
C884 H861 0.950 . S
C884 C883 1.397 . S
C884 C885 1.334 . S
C885 H862 0.950 . S
C885 C884 1.334 . S
C885 C886 1.287 . S
C886 C885 1.287 . S
C886 C887 1.524 . S
C886 H905 0.913 . S
C887 H863 0.950 . S
C887 C886 1.524 . S
C887 C888 1.415 . S
C888 H864 0.950 . S
C888 C883 1.363 . S
C888 C887 1.415 . S
C889 H865 0.951 . S
C889 C890 1.366 . S
C889 C891 1.388 . S
C890 C889 1.366 . S
C890 C894 1.385 . S
C891 H866 0.951 . S
C891 C889 1.388 . S
C891 C892 1.366 . S
C892 C891 1.366 . S
C892 C893 1.414 . S
C892 C895 1.499 . S
C893 H867 0.950 . S
C893 C892 1.414 . S
C893 C894 1.374 . S
C894 H868 0.950 . S
C894 C890 1.385 . S
C894 C893 1.374 . S
C895 C892 1.499 . S
C895 C896 1.373 . S
C895 C897 1.389 . S
C896 H869 0.950 . S
C896 C882 1.377 . S
C896 C895 1.373 . S
C897 C881 1.377 . S
C897 C895 1.389 . S
C897 C898 1.524 . S
C898 C897 1.524 . S
C898 C899 1.397 . S
C898 C903 1.363 . S
C899 H870 0.950 . S
C899 C898 1.397 . S
C899 C900 1.334 . S
C900 H871 0.950 . S
C900 C899 1.334 . S
C900 C901 1.287 . S
C901 C900 1.287 . S
C901 C902 1.524 . S
C901 H904 0.999 . S
C902 H872 0.950 . S
C902 C901 1.524 . S
C902 C903 1.415 . S
C903 H873 0.950 . S
C903 C898 1.363 . S
C903 C902 1.415 . S
H904 C901 0.999 . S
H905 C886 0.913 . S
H906 C924 0.951 . S
H907 C926 0.951 . S
H908 C928 0.950 . S
H909 C929 0.950 . S
H910 C931 0.950 . S
H911 C934 0.950 . S
H912 C935 0.950 . S
H913 C937 0.950 . S
H914 C938 0.950 . S
H915 C939 0.951 . S
H916 C941 0.951 . S
H917 C943 0.950 . S
H918 C944 0.950 . S
H919 C946 0.950 . S
H920 C949 0.950 . S
H921 C950 0.950 . S
H922 C952 0.950 . S
H923 C953 0.950 . S
C924 H906 0.951 . S
C924 C925 1.366 . S
C924 C926 1.388 . S
C925 C924 1.366 . S
C925 C929 1.385 . S
C926 H907 0.951 . S
C926 C924 1.388 . S
C926 C927 1.366 . S
C927 C926 1.366 . S
C927 C928 1.414 . S
C927 C930 1.499 . S
C928 H908 0.950 . S
C928 C927 1.414 . S
C928 C929 1.374 . S
C929 H909 0.950 . S
C929 C925 1.385 . S
C929 C928 1.374 . S
C930 C927 1.499 . S
C930 C931 1.373 . S
C930 C932 1.389 . S
C931 H910 0.950 . S
C931 C930 1.373 . S
C931 C947 1.377 . S
C932 C930 1.389 . S
C932 C933 1.524 . S
C932 C946 1.377 . S
C933 C932 1.524 . S
C933 C934 1.397 . S
C933 C938 1.363 . S
C934 H911 0.950 . S
C934 C933 1.397 . S
C934 C935 1.334 . S
C935 H912 0.950 . S
C935 C934 1.334 . S
C935 C936 1.287 . S
C936 C935 1.287 . S
C936 C937 1.524 . S
C936 H955 0.913 . S
C937 H913 0.950 . S
C937 C936 1.524 . S
C937 C938 1.415 . S
C938 H914 0.950 . S
C938 C933 1.363 . S
C938 C937 1.415 . S
C939 H915 0.951 . S
C939 C940 1.366 . S
C939 C941 1.388 . S
C940 C939 1.366 . S
C940 C944 1.385 . S
C941 H916 0.951 . S
C941 C939 1.388 . S
C941 C942 1.366 . S
C942 C941 1.366 . S
C942 C943 1.414 . S
C942 C945 1.499 . S
C943 H917 0.950 . S
C943 C942 1.414 . S
C943 C944 1.374 . S
C944 H918 0.950 . S
C944 C940 1.385 . S
C944 C943 1.374 . S
C945 C942 1.499 . S
C945 C946 1.373 . S
C945 C947 1.389 . S
C946 H919 0.950 . S
C946 C932 1.377 . S
C946 C945 1.373 . S
C947 C931 1.377 . S
C947 C945 1.389 . S
C947 C948 1.524 . S
C948 C947 1.524 . S
C948 C949 1.397 . S
C948 C953 1.363 . S
C949 H920 0.950 . S
C949 C948 1.397 . S
C949 C950 1.334 . S
C950 H921 0.950 . S
C950 C949 1.334 . S
C950 C951 1.287 . S
C951 C950 1.287 . S
C951 C952 1.524 . S
C951 H954 0.999 . S
C952 H922 0.950 . S
C952 C951 1.524 . S
C952 C953 1.415 . S
C953 H923 0.950 . S
C953 C948 1.363 . S
C953 C952 1.415 . S
H954 C951 0.999 . S
H955 C936 0.913 . S
H956 C974 0.951 . S
H957 C976 0.951 . S
H958 C978 0.950 . S
H959 C979 0.950 . S
H960 C981 0.950 . S
H961 C984 0.950 . S
H962 C985 0.950 . S
H963 C987 0.950 . S
H964 C988 0.950 . S
H965 C989 0.955 . S
H966 C991 0.951 . S
H967 C993 0.950 . S
H968 C994 0.950 . S
H969 C996 0.950 . S
H970 C999 0.950 . S
H971 C1000 0.950 . S
H972 C1002 0.950 . S
H973 C1003 0.950 . S
C974 H956 0.951 . S
C974 C975 1.366 . S
C974 C976 1.388 . S
C975 C974 1.366 . S
C975 C979 1.385 . S
C976 H957 0.951 . S
C976 C974 1.388 . S
C976 C977 1.366 . S
C977 C976 1.366 . S
C977 C978 1.414 . S
C977 C980 1.499 . S
C978 H958 0.950 . S
C978 C977 1.414 . S
C978 C979 1.374 . S
C979 H959 0.950 . S
C979 C975 1.385 . S
C979 C978 1.374 . S
C980 C977 1.499 . S
C980 C981 1.373 . S
C980 C982 1.389 . S
C981 H960 0.950 . S
C981 C980 1.373 . S
C981 C997 1.377 . S
C982 C980 1.389 . S
C982 C983 1.524 . S
C982 C996 1.377 . S
C983 C982 1.524 . S
C983 C984 1.397 . S
C983 C988 1.363 . S
C984 H961 0.950 . S
C984 C983 1.397 . S
C984 C985 1.334 . S
C985 H962 0.950 . S
C985 C984 1.334 . S
C985 C986 1.287 . S
C986 C985 1.287 . S
C986 C987 1.524 . S
C986 H1005 0.913 . S
C987 H963 0.950 . S
C987 C986 1.524 . S
C987 C988 1.415 . S
C988 H964 0.950 . S
C988 C983 1.363 . S
C988 C987 1.415 . S
C989 H965 0.955 . S
C989 C990 1.366 . S
C989 C991 1.388 . S
C990 C989 1.366 . S
C990 C994 1.385 . S
C991 H966 0.951 . S
C991 C989 1.388 . S
C991 C992 1.366 . S
C992 C991 1.366 . S
C992 C993 1.414 . S
C992 C995 1.499 . S
C993 H967 0.950 . S
C993 C992 1.414 . S
C993 C994 1.374 . S
C994 H968 0.950 . S
C994 C990 1.385 . S
C994 C993 1.374 . S
C995 C992 1.499 . S
C995 C996 1.373 . S
C995 C997 1.389 . S
C996 H969 0.950 . S
C996 C982 1.377 . S
C996 C995 1.373 . S
C997 C981 1.377 . S
C997 C995 1.389 . S
C997 C998 1.524 . S
C998 C997 1.524 . S
C998 C999 1.397 . S
C998 C1003 1.363 . S
C999 H970 0.950 . S
C999 C998 1.397 . S
C999 C1000 1.334 . S
C1000 H971 0.950 . S
C1000 C999 1.334 . S
C1000 C1001 1.287 . S
C1001 C1000 1.287 . S
C1001 C1002 1.524 . S
C1001 H1004 0.999 1_556 S
C1002 H972 0.950 . S
C1002 C1001 1.524 . S
C1002 C1003 1.415 . S
C1003 H973 0.950 . S
C1003 C998 1.363 . S
C1003 C1002 1.415 . S
H1004 C1001 0.999 1_554 S
H1005 C986 0.913 . S
H1006 C1024 0.951 . S
H1007 C1026 0.951 . S
H1008 C1028 0.950 . S
H1009 C1029 0.950 1_556 S
H1010 C1031 0.950 . S
H1011 C1034 0.950 . S
H1012 C1035 0.950 . S
H1013 C1037 0.950 . S
H1014 C1038 0.950 . S
H1015 C1039 0.951 . S
H1016 C1041 0.951 . S
H1017 C1043 0.950 . S
H1018 C1044 0.950 . S
H1019 C1046 0.950 . S
H1020 C1049 0.950 . S
H1021 C1050 0.950 . S
H1022 C1052 0.950 . S
H1023 C1053 0.950 . S
C1024 H1006 0.951 . S
C1024 C1025 1.366 . S
C1024 C1026 1.388 . S
C1025 C1024 1.366 . S
C1025 C1029 1.385 . S
C1026 H1007 0.951 . S
C1026 C1024 1.388 . S
C1026 C1027 1.366 . S
C1027 C1026 1.366 . S
C1027 C1028 1.414 . S
C1027 C1030 1.499 . S
C1028 H1008 0.950 . S
C1028 C1027 1.414 . S
C1028 C1029 1.374 . S
C1029 H1009 0.950 1_554 S
C1029 C1025 1.385 . S
C1029 C1028 1.374 . S
C1030 C1027 1.499 . S
C1030 C1031 1.373 . S
C1030 C1032 1.389 . S
C1031 H1010 0.950 . S
C1031 C1030 1.373 . S
C1031 C1047 1.377 . S
C1032 C1030 1.389 . S
C1032 C1033 1.524 . S
C1032 C1046 1.377 . S
C1033 C1032 1.524 . S
C1033 C1034 1.397 . S
C1033 C1038 1.363 . S
C1034 H1011 0.950 . S
C1034 C1033 1.397 . S
C1034 C1035 1.334 . S
C1035 H1012 0.950 . S
C1035 C1034 1.334 . S
C1035 C1036 1.287 . S
C1036 C1035 1.287 . S
C1036 C1037 1.524 . S
C1036 H1055 0.913 . S
C1037 H1013 0.950 . S
C1037 C1036 1.524 . S
C1037 C1038 1.415 . S
C1038 H1014 0.950 . S
C1038 C1033 1.363 . S
C1038 C1037 1.415 . S
C1039 H1015 0.951 . S
C1039 C1040 1.366 . S
C1039 C1041 1.388 . S
C1040 C1039 1.366 . S
C1040 C1044 1.385 . S
C1041 H1016 0.951 . S
C1041 C1039 1.388 . S
C1041 C1042 1.366 . S
C1042 C1041 1.366 . S
C1042 C1043 1.414 . S
C1042 C1045 1.499 . S
C1043 H1017 0.950 . S
C1043 C1042 1.414 . S
C1043 C1044 1.374 . S
C1044 H1018 0.950 . S
C1044 C1040 1.385 . S
C1044 C1043 1.374 . S
C1045 C1042 1.499 . S
C1045 C1046 1.373 . S
C1045 C1047 1.389 . S
C1046 H1019 0.950 . S
C1046 C1032 1.377 . S
C1046 C1045 1.373 . S
C1047 C1031 1.377 . S
C1047 C1045 1.389 . S
C1047 C1048 1.524 . S
C1048 C1047 1.524 . S
C1048 C1049 1.397 . S
C1048 C1053 1.363 . S
C1049 H1020 0.950 . S
C1049 C1048 1.397 . S
C1049 C1050 1.334 . S
C1050 H1021 0.950 . S
C1050 C1049 1.334 . S
C1050 C1051 1.287 . S
C1051 C1050 1.287 . S
C1051 C1052 1.524 . S
C1051 H1054 0.999 . S
C1052 H1022 0.950 . S
C1052 C1051 1.524 . S
C1052 C1053 1.415 . S
C1053 H1023 0.950 . S
C1053 C1048 1.363 . S
C1053 C1052 1.415 . S
H1054 C1051 0.999 . S
H1055 C1036 0.913 . S
H1056 C1074 0.951 . S
H1057 C1076 0.951 . S
H1058 C1078 0.950 . S
H1059 C1079 0.950 . S
H1060 C1081 0.950 . S
H1061 C1084 0.950 . S
H1062 C1085 0.950 . S
H1063 C1087 0.950 . S
H1064 C1088 0.950 . S
H1065 C1089 0.951 . S
H1066 C1091 0.951 . S
H1067 C1093 0.950 . S
H1068 C1094 0.950 . S
H1069 C1096 0.950 . S
H1070 C1099 0.950 . S
H1071 C1100 0.950 . S
H1072 C1102 0.950 . S
H1073 C1103 0.950 . S
C1074 H1056 0.951 . S
C1074 C1075 1.366 . S
C1074 C1076 1.388 . S
C1075 C1074 1.366 . S
C1075 C1079 1.385 . S
C1076 H1057 0.951 . S
C1076 C1074 1.388 . S
C1076 C1077 1.366 . S
C1077 C1076 1.366 . S
C1077 C1078 1.414 . S
C1077 C1080 1.499 . S
C1078 H1058 0.950 . S
C1078 C1077 1.414 . S
C1078 C1079 1.374 . S
C1079 H1059 0.950 . S
C1079 C1075 1.385 . S
C1079 C1078 1.374 . S
C1080 C1077 1.499 . S
C1080 C1081 1.373 . S
C1080 C1082 1.389 . S
C1081 H1060 0.950 . S
C1081 C1080 1.373 . S
C1081 C1097 1.377 . S
C1082 C1080 1.389 . S
C1082 C1083 1.524 . S
C1082 C1096 1.377 . S
C1083 C1082 1.524 . S
C1083 C1084 1.397 . S
C1083 C1088 1.363 . S
C1084 H1061 0.950 . S
C1084 C1083 1.397 . S
C1084 C1085 1.334 . S
C1085 H1062 0.950 . S
C1085 C1084 1.334 . S
C1085 C1086 1.287 . S
C1086 C1085 1.287 . S
C1086 C1087 1.524 . S
C1086 H1105 0.913 . S
C1087 H1063 0.950 . S
C1087 C1086 1.524 . S
C1087 C1088 1.415 . S
C1088 H1064 0.950 . S
C1088 C1083 1.363 . S
C1088 C1087 1.415 . S
C1089 H1065 0.951 . S
C1089 C1090 1.366 . S
C1089 C1091 1.388 . S
C1090 C1089 1.366 . S
C1090 C1094 1.385 . S
C1091 H1066 0.951 . S
C1091 C1089 1.388 . S
C1091 C1092 1.366 . S
C1092 C1091 1.366 . S
C1092 C1093 1.414 . S
C1092 C1095 1.499 . S
C1093 H1067 0.950 . S
C1093 C1092 1.414 . S
C1093 C1094 1.374 . S
C1094 H1068 0.950 . S
C1094 C1090 1.385 . S
C1094 C1093 1.374 . S
C1095 C1092 1.499 . S
C1095 C1096 1.373 . S
C1095 C1097 1.389 . S
C1096 H1069 0.950 . S
C1096 C1082 1.377 . S
C1096 C1095 1.373 . S
C1097 C1081 1.377 . S
C1097 C1095 1.389 . S
C1097 C1098 1.524 . S
C1098 C1097 1.524 . S
C1098 C1099 1.397 . S
C1098 C1103 1.363 . S
C1099 H1070 0.950 . S
C1099 C1098 1.397 . S
C1099 C1100 1.334 . S
C1100 H1071 0.950 . S
C1100 C1099 1.334 . S
C1100 C1101 1.287 . S
C1101 C1100 1.287 . S
C1101 C1102 1.524 . S
C1101 H1104 0.999 . S
C1102 H1072 0.950 . S
C1102 C1101 1.524 . S
C1102 C1103 1.415 . S
C1103 H1073 0.950 . S
C1103 C1098 1.363 . S
C1103 C1102 1.415 . S
H1104 C1101 0.999 . S
H1105 C1086 0.913 . S
H1106 C1124 0.951 . S
H1107 C1126 0.951 . S
H1108 C1128 0.950 . S
H1109 C1129 0.950 . S
H1110 C1131 0.950 . S
H1111 C1134 0.950 . S
H1112 C1135 0.950 . S
H1113 C1137 0.950 . S
H1114 C1138 0.950 . S
H1115 C1139 0.951 . S
H1116 C1141 0.951 . S
H1117 C1143 0.950 . S
H1118 C1144 0.950 . S
H1119 C1146 0.950 . S
H1120 C1149 0.950 . S
H1121 C1150 0.950 . S
H1122 C1152 0.950 . S
H1123 C1153 0.950 . S
C1124 H1106 0.951 . S
C1124 C1125 1.366 . S
C1124 C1126 1.388 . S
C1125 C1124 1.366 . S
C1125 C1129 1.385 . S
C1126 H1107 0.951 . S
C1126 C1124 1.388 . S
C1126 C1127 1.366 . S
C1127 C1126 1.366 . S
C1127 C1128 1.414 . S
C1127 C1130 1.499 . S
C1128 H1108 0.950 . S
C1128 C1127 1.414 . S
C1128 C1129 1.374 . S
C1129 H1109 0.950 . S
C1129 C1125 1.385 . S
C1129 C1128 1.374 . S
C1130 C1127 1.499 . S
C1130 C1131 1.373 . S
C1130 C1132 1.389 . S
C1131 H1110 0.950 . S
C1131 C1130 1.373 . S
C1131 C1147 1.377 . S
C1132 C1130 1.389 . S
C1132 C1133 1.524 . S
C1132 C1146 1.377 . S
C1133 C1132 1.524 . S
C1133 C1134 1.397 . S
C1133 C1138 1.363 . S
C1134 H1111 0.950 . S
C1134 C1133 1.397 . S
C1134 C1135 1.334 . S
C1135 H1112 0.950 . S
C1135 C1134 1.334 . S
C1135 C1136 1.287 . S
C1136 C1135 1.287 . S
C1136 C1137 1.524 . S
C1136 H1155 0.913 . S
C1137 H1113 0.950 . S
C1137 C1136 1.524 . S
C1137 C1138 1.415 . S
C1138 H1114 0.950 . S
C1138 C1133 1.363 . S
C1138 C1137 1.415 . S
C1139 H1115 0.951 . S
C1139 C1140 1.366 . S
C1139 C1141 1.388 . S
C1140 C1139 1.366 . S
C1140 C1144 1.385 . S
C1141 H1116 0.951 . S
C1141 C1139 1.388 . S
C1141 C1142 1.366 . S
C1142 C1141 1.366 . S
C1142 C1143 1.414 . S
C1142 C1145 1.499 . S
C1143 H1117 0.950 . S
C1143 C1142 1.414 . S
C1143 C1144 1.374 . S
C1144 H1118 0.950 . S
C1144 C1140 1.385 . S
C1144 C1143 1.374 . S
C1145 C1142 1.499 . S
C1145 C1146 1.373 . S
C1145 C1147 1.389 . S
C1146 H1119 0.950 . S
C1146 C1132 1.377 . S
C1146 C1145 1.373 . S
C1147 C1131 1.377 . S
C1147 C1145 1.389 . S
C1147 C1148 1.524 . S
C1148 C1147 1.524 . S
C1148 C1149 1.397 . S
C1148 C1153 1.363 . S
C1149 H1120 0.950 . S
C1149 C1148 1.397 . S
C1149 C1150 1.334 . S
C1150 H1121 0.950 . S
C1150 C1149 1.334 . S
C1150 C1151 1.287 . S
C1151 C1150 1.287 . S
C1151 C1152 1.524 . S
C1151 H1154 0.999 . S
C1152 H1122 0.950 . S
C1152 C1151 1.524 . S
C1152 C1153 1.415 . S
C1153 H1123 0.950 . S
C1153 C1148 1.363 . S
C1153 C1152 1.415 . S
H1154 C1151 0.999 . S
H1155 C1136 0.913 . S
H1156 C1174 0.951 . S
H1157 C1176 0.951 . S
H1158 C1178 0.950 . S
H1159 C1179 0.950 . S
H1160 C1181 0.950 . S
H1161 C1184 0.950 . S
H1162 C1185 0.950 . S
H1163 C1187 0.950 . S
H1164 C1188 0.950 . S
H1165 C1189 0.951 . S
H1166 C1191 0.951 . S
H1167 C1193 0.950 . S
H1168 C1194 0.950 . S
H1169 C1196 0.950 . S
H1170 C1199 0.950 . S
H1171 C1200 0.950 . S
H1172 C1202 0.950 . S
H1173 C1203 0.950 . S
C1174 H1156 0.951 . S
C1174 C1175 1.366 1_554 S
C1174 C1176 1.388 . S
C1175 C1174 1.366 1_556 S
C1175 C1179 1.385 . S
C1176 H1157 0.951 . S
C1176 C1174 1.388 . S
C1176 C1177 1.366 1_554 S
C1177 C1176 1.366 1_556 S
C1177 C1178 1.414 . S
C1177 C1180 1.499 . S
C1178 H1158 0.950 . S
C1178 C1177 1.414 . S
C1178 C1179 1.374 . S
C1179 H1159 0.950 . S
C1179 C1175 1.385 . S
C1179 C1178 1.374 . S
C1180 C1177 1.499 . S
C1180 C1181 1.373 . S
C1180 C1182 1.389 1_556 S
C1181 H1160 0.950 . S
C1181 C1180 1.373 . S
C1181 C1197 1.377 . S
C1182 C1180 1.389 1_554 S
C1182 C1183 1.524 . S
C1182 C1196 1.377 . S
C1183 C1182 1.524 . S
C1183 C1184 1.397 . S
C1183 C1188 1.363 . S
C1184 H1161 0.950 . S
C1184 C1183 1.397 . S
C1184 C1185 1.334 . S
C1185 H1162 0.950 . S
C1185 C1184 1.334 . S
C1185 C1186 1.287 . S
C1186 C1185 1.287 . S
C1186 C1187 1.524 . S
C1186 H1205 0.913 . S
C1187 H1163 0.950 . S
C1187 C1186 1.524 . S
C1187 C1188 1.415 . S
C1188 H1164 0.950 . S
C1188 C1183 1.363 . S
C1188 C1187 1.415 . S
C1189 H1165 0.951 . S
C1189 C1190 1.366 1_556 S
C1189 C1191 1.388 . S
C1190 C1189 1.366 1_554 S
C1190 C1194 1.385 . S
C1191 H1166 0.951 . S
C1191 C1189 1.388 . S
C1191 C1192 1.366 1_556 S
C1192 C1191 1.366 1_554 S
C1192 C1193 1.414 . S
C1192 C1195 1.499 . S
C1193 H1167 0.950 . S
C1193 C1192 1.414 . S
C1193 C1194 1.374 . S
C1194 H1168 0.950 . S
C1194 C1190 1.385 . S
C1194 C1193 1.374 . S
C1195 C1192 1.499 . S
C1195 C1196 1.373 . S
C1195 C1197 1.389 1_554 S
C1196 H1169 0.950 . S
C1196 C1182 1.377 . S
C1196 C1195 1.373 . S
C1197 C1181 1.377 . S
C1197 C1195 1.389 1_556 S
C1197 C1198 1.524 . S
C1198 C1197 1.524 . S
C1198 C1199 1.397 . S
C1198 C1203 1.363 . S
C1199 H1170 0.950 . S
C1199 C1198 1.397 . S
C1199 C1200 1.334 . S
C1200 H1171 0.950 . S
C1200 C1199 1.334 . S
C1200 C1201 1.287 . S
C1201 C1200 1.287 . S
C1201 C1202 1.524 . S
C1201 H1204 0.999 . S
C1202 H1172 0.950 . S
C1202 C1201 1.524 . S
C1202 C1203 1.415 . S
C1203 H1173 0.950 . S
C1203 C1198 1.363 . S
C1203 C1202 1.415 . S
H1204 C1201 0.999 . S
H1205 C1186 0.913 . S
H1206 C1224 0.951 . S
H1207 C1226 0.951 . S
H1208 C1228 0.950 . S
H1209 C1229 0.950 . S
H1210 C1231 0.950 . S
H1211 C1234 0.950 . S
H1212 C1235 0.950 . S
H1213 C1237 0.950 . S
H1214 C1238 0.950 . S
H1215 C1239 0.951 . S
H1216 C1241 0.951 . S
H1217 C1243 0.950 . S
H1218 C1244 0.950 . S
H1219 C1246 0.950 . S
H1220 C1249 0.950 . S
H1221 C1250 0.950 . S
H1222 C1252 0.950 . S
H1223 C1253 0.950 . S
C1224 H1206 0.951 . S
C1224 C1225 1.366 . S
C1224 C1226 1.388 . S
C1225 C1224 1.366 . S
C1225 C1229 1.385 . S
C1226 H1207 0.951 . S
C1226 C1224 1.388 . S
C1226 C1227 1.366 . S
C1227 C1226 1.366 . S
C1227 C1228 1.414 . S
C1227 C1230 1.499 . S
C1228 H1208 0.950 . S
C1228 C1227 1.414 . S
C1228 C1229 1.374 . S
C1229 H1209 0.950 . S
C1229 C1225 1.385 . S
C1229 C1228 1.374 . S
C1230 C1227 1.499 . S
C1230 C1231 1.373 . S
C1230 C1232 1.389 . S
C1231 H1210 0.950 . S
C1231 C1230 1.373 . S
C1231 C1247 1.377 . S
C1232 C1230 1.389 . S
C1232 C1233 1.524 . S
C1232 C1246 1.377 . S
C1233 C1232 1.524 . S
C1233 C1234 1.397 . S
C1233 C1238 1.363 . S
C1234 H1211 0.950 . S
C1234 C1233 1.397 . S
C1234 C1235 1.334 . S
C1235 H1212 0.950 . S
C1235 C1234 1.334 . S
C1235 C1236 1.287 . S
C1236 C1235 1.287 . S
C1236 C1237 1.524 . S
C1236 H1255 0.913 . S
C1237 H1213 0.950 . S
C1237 C1236 1.524 . S
C1237 C1238 1.415 . S
C1238 H1214 0.950 . S
C1238 C1233 1.363 . S
C1238 C1237 1.415 . S
C1239 H1215 0.951 . S
C1239 C1240 1.366 . S
C1239 C1241 1.388 . S
C1240 C1239 1.366 . S
C1240 C1244 1.385 . S
C1241 H1216 0.951 . S
C1241 C1239 1.388 . S
C1241 C1242 1.366 . S
C1242 C1241 1.366 . S
C1242 C1243 1.414 . S
C1242 C1245 1.499 . S
C1243 H1217 0.950 . S
C1243 C1242 1.414 . S
C1243 C1244 1.374 . S
C1244 H1218 0.950 . S
C1244 C1240 1.385 . S
C1244 C1243 1.374 . S
C1245 C1242 1.499 . S
C1245 C1246 1.373 . S
C1245 C1247 1.389 . S
C1246 H1219 0.950 . S
C1246 C1232 1.377 . S
C1246 C1245 1.373 . S
C1247 C1231 1.377 . S
C1247 C1245 1.389 . S
C1247 C1248 1.524 . S
C1248 C1247 1.524 . S
C1248 C1249 1.397 . S
C1248 C1253 1.363 . S
C1249 H1220 0.950 . S
C1249 C1248 1.397 . S
C1249 C1250 1.334 . S
C1250 H1221 0.950 . S
C1250 C1249 1.334 . S
C1250 C1251 1.287 . S
C1251 C1250 1.287 . S
C1251 C1252 1.524 . S
C1251 H1254 0.999 . S
C1252 H1222 0.950 . S
C1252 C1251 1.524 . S
C1252 C1253 1.415 . S
C1253 H1223 0.950 . S
C1253 C1248 1.363 . S
C1253 C1252 1.415 . S
H1254 C1251 0.999 . S
H1255 C1236 0.913 . S
H1256 C1274 0.951 . S
H1257 C1276 0.951 . S
H1258 C1278 0.950 . S
H1259 C1279 0.950 . S
H1260 C1281 0.950 . S
H1261 C1284 0.950 . S
H1262 C1285 0.950 . S
H1263 C1287 0.950 . S
H1264 C1288 0.950 . S
H1265 C1289 0.951 . S
H1266 C1291 0.951 . S
H1267 C1293 0.950 . S
H1268 C1294 0.950 . S
H1269 C1296 0.950 . S
H1270 C1299 0.950 . S
H1271 C1300 0.950 . S
H1272 C1302 0.950 . S
H1273 C1303 0.950 . S
C1274 H1256 0.951 . S
C1274 C1275 1.366 . S
C1274 C1276 1.388 . S
C1275 C1274 1.366 . S
C1275 C1279 1.385 . S
C1276 H1257 0.951 . S
C1276 C1274 1.388 . S
C1276 C1277 1.366 . S
C1277 C1276 1.366 . S
C1277 C1278 1.414 . S
C1277 C1280 1.499 . S
C1278 H1258 0.950 . S
C1278 C1277 1.414 . S
C1278 C1279 1.374 . S
C1279 H1259 0.950 . S
C1279 C1275 1.385 . S
C1279 C1278 1.374 . S
C1280 C1277 1.499 . S
C1280 C1281 1.373 . S
C1280 C1282 1.389 . S
C1281 H1260 0.950 . S
C1281 C1280 1.373 . S
C1281 C1297 1.377 . S
C1282 C1280 1.389 . S
C1282 C1283 1.524 . S
C1282 C1296 1.377 . S
C1283 C1282 1.524 . S
C1283 C1284 1.397 . S
C1283 C1288 1.363 . S
C1284 H1261 0.950 . S
C1284 C1283 1.397 . S
C1284 C1285 1.334 . S
C1285 H1262 0.950 . S
C1285 C1284 1.334 . S
C1285 C1286 1.287 . S
C1286 C1285 1.287 . S
C1286 C1287 1.524 . S
C1286 H1305 0.913 . S
C1287 H1263 0.950 . S
C1287 C1286 1.524 . S
C1287 C1288 1.415 . S
C1288 H1264 0.950 . S
C1288 C1283 1.363 . S
C1288 C1287 1.415 . S
C1289 H1265 0.951 . S
C1289 C1290 1.366 . S
C1289 C1291 1.388 . S
C1290 C1289 1.366 . S
C1290 C1294 1.385 . S
C1291 H1266 0.951 . S
C1291 C1289 1.388 . S
C1291 C1292 1.366 . S
C1292 C1291 1.366 . S
C1292 C1293 1.414 . S
C1292 C1295 1.499 . S
C1293 H1267 0.950 . S
C1293 C1292 1.414 . S
C1293 C1294 1.374 . S
C1294 H1268 0.950 . S
C1294 C1290 1.385 . S
C1294 C1293 1.374 . S
C1295 C1292 1.499 . S
C1295 C1296 1.373 . S
C1295 C1297 1.389 . S
C1296 H1269 0.950 . S
C1296 C1282 1.377 . S
C1296 C1295 1.373 . S
C1297 C1281 1.377 . S
C1297 C1295 1.389 . S
C1297 C1298 1.524 . S
C1298 C1297 1.524 . S
C1298 C1299 1.397 . S
C1298 C1303 1.363 . S
C1299 H1270 0.950 . S
C1299 C1298 1.397 . S
C1299 C1300 1.334 . S
C1300 H1271 0.950 . S
C1300 C1299 1.334 . S
C1300 C1301 1.287 . S
C1301 C1300 1.287 . S
C1301 C1302 1.524 . S
C1301 H1304 0.999 . S
C1302 H1272 0.950 . S
C1302 C1301 1.524 . S
C1302 C1303 1.415 . S
C1303 H1273 0.950 . S
C1303 C1298 1.363 . S
C1303 C1302 1.415 . S
H1304 C1301 0.999 . S
H1305 C1286 0.913 . S
H1306 C1324 0.951 . S
H1307 C1326 0.951 . S
H1308 C1328 0.950 . S
H1309 C1329 0.950 . S
H1310 C1331 0.950 . S
H1311 C1334 0.950 . S
H1312 C1335 0.950 . S
H1313 C1337 0.950 . S
H1314 C1338 0.950 . S
H1315 C1339 0.951 . S
H1316 C1341 0.951 . S
H1317 C1343 0.950 . S
H1318 C1344 0.950 . S
H1319 C1346 0.950 . S
H1320 C1349 0.950 . S
H1321 C1350 0.950 . S
H1322 C1352 0.950 . S
H1323 C1353 0.950 . S
C1324 H1306 0.951 . S
C1324 C1325 1.366 . S
C1324 C1326 1.388 . S
C1325 C1324 1.366 . S
C1325 C1329 1.385 . S
C1326 H1307 0.951 . S
C1326 C1324 1.388 . S
C1326 C1327 1.366 . S
C1327 C1326 1.366 . S
C1327 C1328 1.414 . S
C1327 C1330 1.499 . S
C1328 H1308 0.950 . S
C1328 C1327 1.414 . S
C1328 C1329 1.374 . S
C1329 H1309 0.950 . S
C1329 C1325 1.385 . S
C1329 C1328 1.374 . S
C1330 C1327 1.499 . S
C1330 C1331 1.373 1_554 S
C1330 C1332 1.389 . S
C1331 H1310 0.950 . S
C1331 C1330 1.373 1_556 S
C1331 C1347 1.377 . S
C1332 C1330 1.389 . S
C1332 C1333 1.524 . S
C1332 C1346 1.377 . S
C1333 C1332 1.524 . S
C1333 C1334 1.397 . S
C1333 C1338 1.363 . S
C1334 H1311 0.950 . S
C1334 C1333 1.397 . S
C1334 C1335 1.334 . S
C1335 H1312 0.950 . S
C1335 C1334 1.334 . S
C1335 C1336 1.287 . S
C1336 C1335 1.287 . S
C1336 C1337 1.524 . S
C1336 H1355 0.913 . S
C1337 H1313 0.950 . S
C1337 C1336 1.524 . S
C1337 C1338 1.415 . S
C1338 H1314 0.950 . S
C1338 C1333 1.363 . S
C1338 C1337 1.415 . S
C1339 H1315 0.951 . S
C1339 C1340 1.366 . S
C1339 C1341 1.388 . S
C1340 C1339 1.366 . S
C1340 C1344 1.385 . S
C1341 H1316 0.951 . S
C1341 C1339 1.388 . S
C1341 C1342 1.366 . S
C1342 C1341 1.366 . S
C1342 C1343 1.414 . S
C1342 C1345 1.499 . S
C1343 H1317 0.950 . S
C1343 C1342 1.414 . S
C1343 C1344 1.374 . S
C1344 H1318 0.950 . S
C1344 C1340 1.385 . S
C1344 C1343 1.374 . S
C1345 C1342 1.499 . S
C1345 C1346 1.373 1_556 S
C1345 C1347 1.389 . S
C1346 H1319 0.950 . S
C1346 C1332 1.377 . S
C1346 C1345 1.373 1_554 S
C1347 C1331 1.377 . S
C1347 C1345 1.389 . S
C1347 C1348 1.524 . S
C1348 C1347 1.524 . S
C1348 C1349 1.397 . S
C1348 C1353 1.363 . S
C1349 H1320 0.950 . S
C1349 C1348 1.397 . S
C1349 C1350 1.334 . S
C1350 H1321 0.950 . S
C1350 C1349 1.334 . S
C1350 C1351 1.287 . S
C1351 C1350 1.287 . S
C1351 C1352 1.524 . S
C1351 H1354 0.999 . S
C1352 H1322 0.950 . S
C1352 C1351 1.524 . S
C1352 C1353 1.415 . S
C1353 H1323 0.950 . S
C1353 C1348 1.363 . S
C1353 C1352 1.415 . S
H1354 C1351 0.999 . S
H1355 C1336 0.913 . S
C175 C5 1.247 . S
C190 C122 1.246 . S
C225 C18 1.246 . S
C240 C135 1.247 . S
C275 C31 1.247 . S
C290 C148 1.246 . S
C325 C44 1.247 . S
C340 C83 1.246 . S
C375 C96 1.246 . S
C390 C57 1.247 . S
C425 C109 1.247 . S
C440 C70 1.246 . S
C475 C130 1.674 . S
C490 C0 1.675 . S
C525 C13 1.675 . S
C540 C143 1.675 . S
C575 C26 1.674 . S
C590 C78 1.675 . S
C625 C39 1.675 . S
C640 C91 1.674 . S
C675 C52 1.675 . S
C690 C104 1.674 . S
C725 C65 1.674 . S
C740 C117 1.675 . S
C775 C138 0.721 . S
C790 C8 0.721 . S
C825 C21 0.722 . S
C840 C151 0.722 . S
C875 C34 0.722 . S
C890 C86 0.721 . S
C925 C47 0.721 . S
C940 C99 0.721 . S
C975 C60 0.720 . S
C990 C112 0.720 . S
C1025 C73 0.721 . S
C1040 C125 0.721 . S
C1075 C10 1.576 . S
C1090 C88 1.576 . S
C1125 C101 1.576 . S
C1140 C23 1.576 . S
C1175 C36 1.576 . S
C1190 C114 1.576 . S
C1225 C49 1.576 . S
C1240 C127 1.576 . S
C1275 C62 1.576 . S
C1290 C140 1.576 . S
C1325 C153 1.576 . S
C1340 C75 1.576 . S
