# Generated by pormake.
# Topology una, (4)-cn, num edge types: 1
# Building blocks:
#     Node 0, Type 0, BuildingBlock: CEKHIL_clean_sbu_0, # of connection points: 4
#     Node 1, Type 0, BuildingBlock: CEKHIL_clean_sbu_0, # of connection points: 4
#     Node 2, Type 0, BuildingBlock: CEKHIL_clean_sbu_0, # of connection points: 4
#     Node 3, Type 0, BuildingBlock: CEKHIL_clean_sbu_0, # of connection points: 4
#     Node 4, Type 0, BuildingBlock: CEKHIL_clean_sbu_0, # of connection points: 4
#     Node 5, Type 0, BuildingBlock: CEKHIL_clean_sbu_0, # of connection points: 4
#     Node 6, Type 0, BuildingBlock: CEKHIL_clean_sbu_0, # of connection points: 4
#     Node 7, Type 0, BuildingBlock: CEKHIL_clean_sbu_0, # of connection points: 4
#     Node 8, Type 0, BuildingBlock: CEKHIL_clean_sbu_0, # of connection points: 4
#     Node 9, Type 0, BuildingBlock: CEKHIL_clean_sbu_0, # of connection points: 4
#     Node 10, Type 0, BuildingBlock: CEKHIL_clean_sbu_0, # of connection points: 4
#     Node 11, Type 0, BuildingBlock: CEKHIL_clean_sbu_0, # of connection points: 4
#     Edge 12, Type (0, 0), BuildingBlock: AJUNOK_clean_linker_0, # of connection points: 2
#     Edge 13, Type (0, 0), BuildingBlock: AJUNOK_clean_linker_0, # of connection points: 2
#     Edge 14, Type (0, 0), BuildingBlock: AJUNOK_clean_linker_0, # of connection points: 2
#     Edge 15, Type (0, 0), BuildingBlock: AJUNOK_clean_linker_0, # of connection points: 2
#     Edge 16, Type (0, 0), BuildingBlock: AJUNOK_clean_linker_0, # of connection points: 2
#     Edge 17, Type (0, 0), BuildingBlock: AJUNOK_clean_linker_0, # of connection points: 2
#     Edge 18, Type (0, 0), BuildingBlock: AJUNOK_clean_linker_0, # of connection points: 2
#     Edge 19, Type (0, 0), BuildingBlock: AJUNOK_clean_linker_0, # of connection points: 2
#     Edge 20, Type (0, 0), BuildingBlock: AJUNOK_clean_linker_0, # of connection points: 2
#     Edge 21, Type (0, 0), BuildingBlock: AJUNOK_clean_linker_0, # of connection points: 2
#     Edge 22, Type (0, 0), BuildingBlock: AJUNOK_clean_linker_0, # of connection points: 2
#     Edge 23, Type (0, 0), BuildingBlock: AJUNOK_clean_linker_0, # of connection points: 2
#     Edge 24, Type (0, 0), BuildingBlock: AJUNOK_clean_linker_0, # of connection points: 2
#     Edge 25, Type (0, 0), BuildingBlock: AJUNOK_clean_linker_0, # of connection points: 2
#     Edge 26, Type (0, 0), BuildingBlock: AJUNOK_clean_linker_0, # of connection points: 2
#     Edge 27, Type (0, 0), BuildingBlock: AJUNOK_clean_linker_0, # of connection points: 2
#     Edge 28, Type (0, 0), BuildingBlock: AJUNOK_clean_linker_0, # of connection points: 2
#     Edge 29, Type (0, 0), BuildingBlock: AJUNOK_clean_linker_0, # of connection points: 2
#     Edge 30, Type (0, 0), BuildingBlock: AJUNOK_clean_linker_0, # of connection points: 2
#     Edge 31, Type (0, 0), BuildingBlock: AJUNOK_clean_linker_0, # of connection points: 2
#     Edge 32, Type (0, 0), BuildingBlock: AJUNOK_clean_linker_0, # of connection points: 2
#     Edge 33, Type (0, 0), BuildingBlock: AJUNOK_clean_linker_0, # of connection points: 2
#     Edge 34, Type (0, 0), BuildingBlock: AJUNOK_clean_linker_0, # of connection points: 2
#     Edge 35, Type (0, 0), BuildingBlock: AJUNOK_clean_linker_0, # of connection points: 2
# Relax obj value: 0.020
# Max RMSD: 0.036
# Mean RMSD: 0.036
data_MOF--net-una--node1-CEKHIL_clean_sbu_0--edge1-AJUNOK_clean_linker_0
_symmetry_space_group_name_H-M    P1
_symmetry_Int_Tables_number       1
_symmetry_cell_setting            triclinic
loop_
_symmetry_equiv_pos_as_xyz
'x, y, z'
_cell_length_a     42.291089
_cell_length_b     42.31032
_cell_length_c     16.006431
_cell_angle_alpha  90.036838
_cell_angle_beta   90.038551
_cell_angle_gamma 119.95656
loop_
_atom_site_label
_atom_site_type_symbol
_atom_site_fract_x
_atom_site_fract_y
_atom_site_fract_z
_atom_type_partial_charge
Co0 Co 0.13983 0.44115 0.02837 0.0
O1 O 0.10911 0.43901 0.93736 0.0
O2 O 0.08835 0.40808 0.05447 0.0
C3 C 0.17834 0.43463 0.94265 0.0
O4 O 0.16581 0.43641 0.13381 0.0
Co5 Co 0.22071 0.50353 0.03011 0.0
O6 O 0.22631 0.47147 0.11181 0.0
C7 C 0.16124 0.51892 0.06829 0.0
C8 C 0.0814 0.41537 0.97967 0.0
C9 C 0.19949 0.44698 0.15306 0.0
O10 O 0.13833 0.48461 0.07669 0.0
O11 O 0.19407 0.53145 0.04281 0.0
O12 O 0.14918 0.40605 0.96985 0.0
O13 O 0.18214 0.46555 0.96532 0.0
Co14 Co 0.70404 0.13602 0.19943 0.0
O15 O 0.67654 0.1065 0.10604 0.0
O16 O 0.68682 0.08431 0.22082 0.0
C17 C 0.74891 0.17661 0.11652 0.0
O18 O 0.73404 0.16091 0.30666 0.0
Co19 Co 0.72099 0.21634 0.20874 0.0
O20 O 0.75956 0.22153 0.28675 0.0
C21 C 0.64631 0.15541 0.24102 0.0
C22 C 0.67338 0.07846 0.14527 0.0
C23 C 0.75735 0.19445 0.32656 0.0
O24 O 0.65809 0.13266 0.24774 0.0
O25 O 0.66652 0.18865 0.21839 0.0
O26 O 0.74916 0.14744 0.14068 0.0
O27 O 0.72122 0.17912 0.14036 0.0
Co28 Co 0.57244 0.69852 0.3623 0.0
O29 O 0.57374 0.66908 0.27212 0.0
O30 O 0.60607 0.68062 0.3876 0.0
C31 C 0.57738 0.74191 0.27318 0.0
O32 O 0.57842 0.73023 0.46685 0.0
Co33 Co 0.51128 0.71901 0.36673 0.0
O34 O 0.54503 0.75748 0.44451 0.0
C35 C 0.49496 0.64374 0.40714 0.0
C36 C 0.59816 0.66581 0.3134 0.0
C37 C 0.56914 0.75437 0.48557 0.0
O38 O 0.52922 0.65407 0.41321 0.0
O39 O 0.48316 0.66478 0.38245 0.0
O40 O 0.60661 0.74234 0.29986 0.0
O41 O 0.54708 0.71546 0.30009 0.0
Co42 Co 0.88 0.57053 0.52751 0.0
O43 O 0.91 0.57061 0.43723 0.0
O44 O 0.93157 0.60567 0.54867 0.0
C45 C 0.83996 0.57278 0.43846 0.0
O46 O 0.85484 0.57788 0.63142 0.0
Co47 Co 0.79942 0.50823 0.53965 0.0
O48 O 0.79423 0.5435 0.61118 0.0
C49 C 0.8594 0.49593 0.59597 0.0
C50 C 0.93779 0.59649 0.47522 0.0
C51 C 0.82141 0.56827 0.651 0.0
O52 O 0.88354 0.52969 0.58452 0.0
O53 O 0.82552 0.48225 0.57817 0.0
O54 O 0.86875 0.60264 0.46212 0.0
O55 O 0.837 0.54305 0.46752 0.0
Co56 Co 0.31624 0.87502 0.69836 0.0
O57 O 0.34402 0.90449 0.60543 0.0
O58 O 0.33241 0.9266 0.71861 0.0
C59 C 0.27237 0.83375 0.61408 0.0
O60 O 0.28602 0.85019 0.80487 0.0
Co61 Co 0.30126 0.79536 0.70912 0.0
O62 O 0.26283 0.78963 0.78852 0.0
C63 C 0.37465 0.85748 0.74666 0.0
C64 C 0.34641 0.93242 0.6437 0.0
C65 C 0.26414 0.81664 0.82702 0.0
O66 O 0.36203 0.87958 0.74997 0.0
O67 O 0.35567 0.82411 0.72373 0.0
O68 O 0.27133 0.86258 0.6377 0.0
O69 O 0.30023 0.83185 0.63958 0.0
Co70 Co 0.4458 0.31079 0.86232 0.0
O71 O 0.44458 0.33877 0.76908 0.0
O72 O 0.41154 0.3284 0.88288 0.0
C73 C 0.44183 0.26621 0.7784 0.0
O74 O 0.43984 0.2805 0.96933 0.0
Co75 Co 0.50864 0.29293 0.87333 0.0
O76 O 0.4752 0.25502 0.95238 0.0
C77 C 0.52263 0.36776 0.90637 0.0
C78 C 0.41972 0.34219 0.80778 0.0
C79 C 0.45025 0.25753 0.9912 0.0
O80 O 0.48816 0.35626 0.91228 0.0
O81 O 0.53558 0.34744 0.88376 0.0
O82 O 0.41236 0.266 0.80209 0.0
O83 O 0.47191 0.29357 0.80388 0.0
Co84 Co 0.57689 0.87866 0.92651 0.0
O85 O 0.57886 0.90937 0.01736 0.0
O86 O 0.61218 0.92986 0.90327 0.0
C87 C 0.57955 0.83808 0.01288 0.0
O88 O 0.58199 0.85259 0.82165 0.0
Co89 Co 0.51222 0.79897 0.91833 0.0
O90 O 0.54497 0.79223 0.84122 0.0
C91 C 0.50109 0.86031 0.87148 0.0
C92 C 0.60402 0.93684 0.97712 0.0
C93 C 0.57037 0.81881 0.80124 0.0
O94 O 0.53571 0.88284 0.87314 0.0
O95 O 0.48645 0.82683 0.89335 0.0
O96 O 0.60941 0.86677 0.9889 0.0
O97 O 0.54976 0.83605 0.98704 0.0
Co98 Co 0.70205 0.57051 0.09044 0.0
O99 O 0.67253 0.57039 0.18193 0.0
O100 O 0.68516 0.60544 0.07096 0.0
C101 C 0.74511 0.57297 0.17728 0.0
O102 O 0.73407 0.57801 0.98548 0.0
Co103 Co 0.72034 0.50818 0.07597 0.0
O104 O 0.76067 0.54388 1.00506 0.0
C105 C 0.64763 0.49568 0.02355 0.0
C106 C 0.67012 0.59612 0.1447 0.0
C107 C 0.75821 0.56878 0.96605 0.0
O108 O 0.65746 0.52954 0.03429 0.0
O109 O 0.66788 0.48198 0.04058 0.0
O110 O 0.74572 0.60274 0.15491 0.0
O111 O 0.71817 0.54319 0.14884 0.0
Co112 Co 0.13827 0.69749 0.26124 0.0
O113 O 0.10675 0.66744 0.34947 0.0
O114 O 0.08724 0.68201 0.23618 0.0
C115 C 0.17767 0.73912 0.35229 0.0
O116 O 0.16509 0.73014 0.159 0.0
Co117 Co 0.21855 0.71397 0.25529 0.0
O118 O 0.22539 0.75466 0.18229 0.0
C119 C 0.15833 0.64234 0.19782 0.0
C120 C 0.07967 0.66603 0.30901 0.0
C121 C 0.1989 0.75334 0.14141 0.0
O122 O 0.13486 0.65316 0.2043 0.0
O123 O 0.19184 0.66151 0.21964 0.0
O124 O 0.14935 0.74075 0.32701 0.0
O125 O 0.18036 0.71208 0.32395 0.0
Co126 Co 0.44345 0.13189 0.42575 0.0
O127 O 0.4424 0.10081 0.51452 0.0
O128 O 0.4081 0.08076 0.40158 0.0
C129 C 0.44111 0.17131 0.51645 0.0
O130 O 0.43725 0.15838 0.32304 0.0
Co131 Co 0.5066 0.21226 0.4183 0.0
O132 O 0.47195 0.21867 0.34715 0.0
C133 C 0.51847 0.15227 0.36032 0.0
C134 C 0.41679 0.07354 0.47456 0.0
C135 C 0.44714 0.19208 0.30593 0.0
O136 O 0.48443 0.12842 0.3692 0.0
O137 O 0.53243 0.18595 0.38025 0.0
O138 O 0.4112 0.14296 0.49131 0.0
O139 O 0.47086 0.17413 0.48784 0.0
Co140 Co 0.31688 0.43998 0.59354 0.0
O141 O 0.34656 0.43862 0.68298 0.0
O142 O 0.33481 0.40649 0.56713 0.0
C143 C 0.27303 0.43408 0.68239 0.0
O144 O 0.28509 0.43442 0.48937 0.0
Co145 Co 0.29666 0.50112 0.59065 0.0
O146 O 0.25765 0.46743 0.51384 0.0
C147 C 0.36971 0.51642 0.53254 0.0
C148 C 0.34979 0.4143 0.64118 0.0
C149 C 0.26117 0.44404 0.47082 0.0
O150 O 0.36102 0.48276 0.54104 0.0
O151 O 0.34871 0.52894 0.55234 0.0
O152 O 0.27337 0.40539 0.655 0.0
O153 O 0.2996 0.46495 0.65759 0.0
Co154 Co 0.88064 0.31419 0.76494 0.0
O155 O 0.91099 0.34335 0.85557 0.0
O156 O 0.93229 0.33181 0.74102 0.0
C157 C 0.84211 0.27092 0.85384 0.0
O158 O 0.85483 0.2826 0.66034 0.0
Co159 Co 0.79932 0.29476 0.76067 0.0
O160 O 0.79425 0.25634 0.6823 0.0
C161 C 0.85883 0.36973 0.72088 0.0
C162 C 0.93875 0.34621 0.81565 0.0
C163 C 0.82126 0.25906 0.6411 0.0
O164 O 0.88232 0.35887 0.71403 0.0
O165 O 0.826 0.34908 0.746 0.0
O166 O 0.87075 0.27025 0.82711 0.0
O167 O 0.83843 0.29751 0.82693 0.0
C168 C 0.19128 0.43307 0.30693 0.0
C169 C 0.20912 0.43467 0.2317 0.0
C170 C 0.20673 0.43251 0.3846 0.0
C171 C 0.24036 0.43301 0.39033 0.0
H172 H 0.16693 0.43543 0.30624 0.0
H173 H 0.19338 0.43415 0.44084 0.0
S174 S 0.29457 0.43066 0.211 0.0
N175 N 0.25976 0.43186 0.16746 0.0
N176 N 0.28836 0.43044 0.31291 0.0
C177 C 0.25646 0.43085 0.3154 0.0
C178 C 0.24098 0.43185 0.23635 0.0
C179 C 0.77832 0.20367 0.55788 0.0
C180 C 0.8117 0.23709 0.5624 0.0
C181 C 0.76253 0.18725 0.4808 0.0
C182 C 0.7793 0.20383 0.40502 0.0
H183 H 0.76295 0.19137 0.61434 0.0
H184 H 0.73552 0.16335 0.48067 0.0
S185 S 0.86965 0.28779 0.38179 0.0
N186 N 0.86314 0.28322 0.48383 0.0
N187 N 0.83352 0.25275 0.33936 0.0
C188 C 0.8143 0.23523 0.40883 0.0
C189 C 0.83053 0.25173 0.48733 0.0
C190 C 0.58124 0.75902 0.64003 0.0
C191 C 0.58177 0.77611 0.56439 0.0
C192 C 0.58118 0.77493 0.71735 0.0
C193 C 0.58218 0.8088 0.72233 0.0
H194 H 0.5775 0.73175 0.6396 0.0
H195 H 0.57779 0.75935 0.77367 0.0
S196 S 0.59035 0.86749 0.54239 0.0
N197 N 0.58821 0.83095 0.49943 0.0
N198 N 0.58855 0.86084 0.64437 0.0
C199 C 0.58658 0.82782 0.6474 0.0
C200 C 0.58618 0.81144 0.56864 0.0
C201 C 0.77886 0.58115 0.73469 0.0
C202 C 0.81225 0.58112 0.72964 0.0
C203 C 0.76324 0.58171 0.81205 0.0
C204 C 0.78018 0.58183 0.88769 0.0
H205 H 0.76328 0.57801 0.67843 0.0
H206 H 0.73618 0.57853 0.81248 0.0
S207 S 0.87063 0.58815 0.90959 0.0
N208 N 0.86389 0.58635 0.80762 0.0
N209 N 0.83459 0.58705 0.95255 0.0
C210 C 0.8152 0.58547 0.88335 0.0
C211 C 0.83126 0.58527 0.80456 0.0
C212 C 0.20857 0.77461 0.9102 0.0
C213 C 0.2424 0.80747 0.90577 0.0
C214 C 0.19209 0.75906 0.98728 0.0
C215 C 0.2091 0.77547 0.0632 0.0
H216 H 0.19593 0.75944 0.85361 0.0
H217 H 0.16768 0.73243 0.98724 0.0
S218 S 0.29497 0.86421 0.08652 0.0
N219 N 0.28985 0.85795 0.98443 0.0
N220 N 0.25939 0.82869 0.12899 0.0
C221 C 0.24122 0.8099 0.05951 0.0
C222 C 0.25772 0.82595 0.98096 0.0
C223 C 0.43461 0.18516 0.15174 0.0
C224 C 0.43516 0.2022 0.22754 0.0
C225 C 0.43585 0.20175 0.07458 0.0
C226 C 0.43717 0.23576 0.06989 0.0
H227 H 0.43667 0.16065 0.1519 0.0
H228 H 0.43839 0.18902 0.01817 0.0
S229 S 0.43243 0.28823 0.25014 0.0
N230 N 0.43209 0.25252 0.29286 0.0
N231 N 0.434 0.28324 0.14812 0.0
C232 C 0.43378 0.25105 0.14488 0.0
C233 C 0.43295 0.2344 0.22353 0.0
C234 C 0.13647 0.54503 0.17274 0.0
C235 C 0.15076 0.54609 0.09276 0.0
C236 C 0.1355 0.57552 0.20476 0.0
C237 C 0.14807 0.60743 0.15689 0.0
H238 H 0.12888 0.5218 0.21318 0.0
H239 H 0.12739 0.57509 0.26913 0.0
S240 S 0.18268 0.62172 0.93994 0.0
N241 N 0.17385 0.58008 0.96353 0.0
N242 N 0.17148 0.63693 0.02341 0.0
C243 C 0.15939 0.60754 0.07465 0.0
C244 C 0.16081 0.57689 0.04252 0.0
C245 C 0.59074 0.15949 0.21497 0.0
C246 C 0.60811 0.14439 0.26194 0.0
C247 C 0.55907 0.15846 0.24381 0.0
C248 C 0.54339 0.14206 0.32036 0.0
H249 H 0.6031 0.17441 0.158 0.0
H250 H 0.54824 0.1729 0.20885 0.0
S251 S 0.57543 0.09482 0.46246 0.0
N252 N 0.60522 0.10937 0.38494 0.0
N253 N 0.54527 0.10748 0.4393 0.0
C254 C 0.5585 0.12411 0.36468 0.0
C255 C 0.59097 0.12515 0.33521 0.0
C256 C 0.40237 0.55934 0.41833 0.0
C257 C 0.40425 0.54232 0.49176 0.0
C258 C 0.43298 0.59052 0.38796 0.0
C259 C 0.46665 0.60622 0.43036 0.0
H260 H 0.37647 0.54965 0.38666 0.0
H261 H 0.42966 0.60364 0.33318 0.0
S262 S 0.48654 0.5696 0.62122 0.0
N263 N 0.44282 0.54108 0.60261 0.0
N264 N 0.50083 0.6003 0.54566 0.0
C265 C 0.46965 0.58784 0.50047 0.0
C266 C 0.43823 0.55574 0.53136 0.0
C267 C 0.85267 0.45529 0.7128 0.0
C268 C 0.86956 0.47112 0.63675 0.0
C269 C 0.85229 0.42414 0.74296 0.0
C270 C 0.86853 0.40739 0.69782 0.0
H271 H 0.83754 0.46568 0.74655 0.0
H272 H 0.83717 0.41176 0.79968 0.0
S273 S 0.91963 0.44069 0.49919 0.0
N274 N 0.90573 0.47008 0.5202 0.0
N275 N 0.905 0.41104 0.57695 0.0
C276 C 0.88813 0.42467 0.62497 0.0
C277 C 0.88854 0.45666 0.59421 0.0
C278 C 0.43533 0.86383 0.72104 0.0
C279 C 0.41221 0.86958 0.7742 0.0
C280 C 0.46699 0.8651 0.7517 0.0
C281 C 0.47623 0.87172 0.83665 0.0
H282 H 0.4276 0.85593 0.65654 0.0
H283 H 0.48266 0.85791 0.7102 0.0
S284 S 0.42607 0.89072 1.00025 0.0
N285 N 0.40203 0.88467 0.91425 0.0
N286 N 0.46122 0.88615 0.97246 0.0
C287 C 0.45466 0.87977 0.88932 0.0
C288 C 0.42267 0.87901 0.85783 0.0
C289 C 0.58154 0.42377 0.87887 0.0
C290 C 0.54973 0.40586 0.92771 0.0
C291 C 0.61223 0.45554 0.90716 0.0
C292 C 0.61219 0.47067 0.98511 0.0
H293 H 0.58356 0.41181 0.82065 0.0
H294 H 0.63705 0.46688 0.87049 0.0
S295 S 0.53477 0.43663 0.13313 0.0
N296 N 0.51892 0.40737 0.0545 0.0
N297 N 0.57707 0.46742 0.10797 0.0
C298 C 0.57974 0.45486 0.03171 0.0
C299 C 0.54826 0.42235 1.00274 0.0
C300 C 0.25147 0.46533 0.77816 0.0
C301 C 0.24739 0.43247 0.74684 0.0
C302 C 0.22965 0.46551 0.8431 0.0
C303 C 0.20258 0.43283 0.87909 0.0
H304 H 0.27192 0.49134 0.75289 0.0
H305 H 0.23386 0.49166 0.86438 0.0
S306 S 0.18094 0.33928 0.8204 0.0
N307 N 0.21449 0.36622 0.75711 0.0
N308 N 0.17294 0.36658 0.87932 0.0
C309 C 0.19811 0.39966 0.84869 0.0
C310 C 0.22058 0.39947 0.78237 0.0
C311 C 0.7986 0.19388 0.01129 0.0
C312 C 0.7749 0.20234 0.05497 0.0
C313 C 0.82027 0.21604 0.94561 0.0
C314 C 0.81868 0.24714 0.92137 0.0
H315 H 0.79981 0.16956 0.02651 0.0
H316 H 0.83801 0.20852 0.91309 0.0
S317 S 0.76326 0.28278 0.0206 0.0
N318 N 0.75294 0.24526 0.07269 0.0
N319 N 0.79308 0.28646 0.94952 0.0
C320 C 0.79575 0.25633 0.96607 0.0
C321 C 0.77405 0.23406 0.03296 0.0
C322 C 0.61083 0.79652 0.18075 0.0
C323 C 0.57781 0.76643 0.20717 0.0
C324 C 0.61145 0.81911 0.1159 0.0
C325 C 0.57909 0.81219 0.0752 0.0
H326 H 0.63631 0.8028 0.21059 0.0
H327 H 0.63736 0.84246 0.09859 0.0
S328 S 0.48573 0.73537 0.11753 0.0
N329 N 0.51209 0.73006 0.18524 0.0
N330 N 0.51337 0.77214 0.06369 0.0
C331 C 0.54604 0.78169 0.09994 0.0
C332 C 0.54536 0.75894 0.16598 0.0
C333 C 0.8189 0.60516 0.34276 0.0
C334 C 0.81508 0.57227 0.37322 0.0
C335 C 0.79677 0.60528 0.27775 0.0
C336 C 0.7702 0.57252 0.24071 0.0
H337 H 0.83911 0.63104 0.36926 0.0
H338 H 0.80029 0.63122 0.25707 0.0
S339 S 0.75013 0.47901 0.29597 0.0
N340 N 0.7831 0.50606 0.36034 0.0
N341 N 0.74187 0.50631 0.23805 0.0
C342 C 0.76644 0.53946 0.26992 0.0
C343 C 0.78873 0.53932 0.33636 0.0
C344 C 0.19788 0.79173 0.45031 0.0
C345 C 0.20249 0.76342 0.41772 0.0
C346 C 0.21993 0.8138 0.51563 0.0
C347 C 0.24724 0.80821 0.55075 0.0
H348 H 0.17707 0.79689 0.42536 0.0
H349 H 0.21578 0.83563 0.538 0.0
S350 S 0.26986 0.73715 0.48883 0.0
N351 N 0.23622 0.73074 0.42611 0.0
N352 N 0.2773 0.77187 0.54891 0.0
C353 C 0.25186 0.77973 0.51925 0.0
C354 C 0.22963 0.75747 0.45256 0.0
C355 C 0.40892 0.21458 0.67795 0.0
C356 C 0.44177 0.2407 0.71548 0.0
C357 C 0.40887 0.19248 0.61257 0.0
C358 C 0.44167 0.19595 0.58234 0.0
H359 H 0.3831 0.21147 0.69831 0.0
H360 H 0.38295 0.17264 0.58551 0.0
S361 S 0.53506 0.25957 0.66116 0.0
N362 N 0.50794 0.26808 0.71902 0.0
N363 N 0.50785 0.22703 0.59615 0.0
C364 C 0.47468 0.22179 0.61986 0.0
C365 C 0.47472 0.244 0.68659 0.0
C366 C 0.04155 0.397 0.85223 0.0
C367 C 0.04457 0.39672 0.94021 0.0
C368 C 1.00745 0.38002 0.8118 0.0
C369 C 0.97493 0.36274 0.85783 0.0
H370 H 0.06584 0.41032 0.81383 0.0
H371 H 1.00657 0.38109 0.74427 0.0
S372 S 0.96752 0.35303 0.08917 0.0
N373 N 0.01188 0.37643 0.07146 0.0
N374 N 0.94784 0.34521 0.99646 0.0
C375 C 0.97752 0.36195 0.94583 0.0
C376 C 0.01227 0.37871 0.98675 0.0
C377 C 0.6222 0.97593 0.10569 0.0
C378 C 0.62311 0.97339 0.01772 0.0
C379 C 0.63921 0.0098 0.14707 0.0
C380 C 0.65713 0.04255 0.10203 0.0
H381 H 0.60828 0.95146 0.14328 0.0
H382 H 0.63758 0.01032 0.21455 0.0
S383 S 0.66862 0.05114 0.8712 0.0
N384 N 0.6447 0.00672 0.88758 0.0
N385 N 0.67595 0.07033 0.96438 0.0
C386 C 0.65861 0.04041 0.01408 0.0
C387 C 0.64184 0.00589 0.97219 0.0
C388 C 0.6355 0.63024 0.14329 0.0
C389 C 0.6529 0.6148 0.18832 0.0
C390 C 0.61775 0.64634 0.18476 0.0
C391 C 0.61739 0.64844 0.2729 0.0
H392 H 0.63491 0.62921 0.07565 0.0
H393 H 0.60439 0.65752 0.14709 0.0
S394 S 0.66092 0.61395 0.41971 0.0
N395 N 0.66967 0.60359 0.32628 0.0
N396 N 0.63713 0.63465 0.40334 0.0
C397 C 0.6355 0.63394 0.31854 0.0
C398 C 0.65298 0.61691 0.27649 0.0
C399 C 0.04035 0.64598 0.437 0.0
C400 C 0.04305 0.64915 0.34901 0.0
C401 C 1.00643 0.6299 0.47799 0.0
C402 C 0.97378 0.61555 0.43249 0.0
H403 H 0.06475 0.6562 0.47492 0.0
H404 H 1.00576 0.62792 0.5455 0.0
S405 S 0.96559 0.61804 0.20148 0.0
N406 N 0.00998 0.63778 0.21837 0.0
N407 N 0.94623 0.60671 0.2945 0.0
C408 C 0.97606 0.61887 0.34453 0.0
C409 C 0.01065 0.6359 0.30303 0.0
C410 C 0.39804 0.03478 0.60332 0.0
C411 C 0.39741 0.03709 0.51527 0.0
C412 C 0.38068 1.00104 0.645 0.0
C413 C 0.3627 0.9682 0.60017 0.0
H414 H 0.41201 0.05934 0.64074 0.0
H415 H 0.38215 1.00067 0.71253 0.0
S416 S 0.35184 0.95904 0.36921 0.0
N417 N 0.37598 1.00349 0.38524 0.0
N418 N 0.34411 0.94007 0.46263 0.0
C419 C 0.36147 0.97011 0.51213 0.0
C420 C 0.37857 1.00451 0.46992 0.0
C421 C 0.37044 0.39551 0.7691 0.0
C422 C 0.36726 0.39506 0.68109 0.0
C423 C 0.38657 0.3777 0.81012 0.0
C424 C 0.4009 0.35937 0.76472 0.0
H425 H 0.36012 0.40957 0.80708 0.0
H426 H 0.38849 0.37897 0.87766 0.0
S427 S 0.39854 0.34887 0.5336 0.0
N428 N 0.37878 0.37351 0.55046 0.0
N429 N 0.40983 0.34078 0.62666 0.0
C430 C 0.39766 0.35843 0.67671 0.0
C431 C 0.38064 0.37603 0.63514 0.0
loop_
_geom_bond_atom_site_label_1
_geom_bond_atom_site_label_2
_geom_bond_distance
_geom_bond_site_symmetry_2
_ccdc_geom_bond_type
Co0 O1 2.216 1_554 S
Co0 O2 2.091 . S
Co0 O4 2.004 . S
Co0 O10 2.021 . S
Co0 O12 2.137 1_554 S
Co0 O13 2.244 1_554 S
O1 Co0 2.216 1_556 S
O1 C8 1.247 . S
O2 Co0 2.091 . S
O2 C8 1.261 1_554 S
C3 O12 1.247 . S
C3 O13 1.272 . S
O4 Co0 2.004 . S
O4 C9 1.259 . S
Co5 O6 2.061 . S
Co5 O11 2.052 . S
Co5 O13 2.135 1_554 S
O6 Co5 2.061 . S
O6 C9 1.235 . S
C7 O10 1.238 . S
C7 O11 1.241 . S
C8 O1 1.247 . S
C8 O2 1.261 1_556 S
C9 O4 1.259 . S
C9 O6 1.235 . S
O10 Co0 2.021 . S
O10 C7 1.238 . S
O11 Co5 2.052 . S
O11 C7 1.241 . S
O12 Co0 2.137 1_556 S
O12 C3 1.247 . S
O13 Co0 2.244 1_556 S
O13 C3 1.272 . S
O13 Co5 2.135 1_556 S
Co14 O15 2.216 . S
Co14 O16 2.091 . S
Co14 O18 2.004 . S
Co14 O24 2.021 . S
Co14 O26 2.137 . S
Co14 O27 2.244 . S
O15 Co14 2.216 . S
O15 C22 1.247 . S
O16 Co14 2.091 . S
O16 C22 1.261 . S
C17 O26 1.247 . S
C17 O27 1.272 . S
O18 Co14 2.004 . S
O18 C23 1.259 . S
Co19 O20 2.061 . S
Co19 O25 2.052 . S
Co19 O27 2.135 . S
O20 Co19 2.061 . S
O20 C23 1.235 . S
C21 O24 1.238 . S
C21 O25 1.241 . S
C22 O15 1.247 . S
C22 O16 1.261 . S
C23 O18 1.259 . S
C23 O20 1.235 . S
O24 Co14 2.021 . S
O24 C21 1.238 . S
O25 Co19 2.052 . S
O25 C21 1.241 . S
O26 Co14 2.137 . S
O26 C17 1.247 . S
O27 Co14 2.244 . S
O27 C17 1.272 . S
O27 Co19 2.135 . S
Co28 O29 2.216 . S
Co28 O30 2.091 . S
Co28 O32 2.004 . S
Co28 O38 2.021 . S
Co28 O40 2.137 . S
Co28 O41 2.244 . S
O29 Co28 2.216 . S
O29 C36 1.247 . S
O30 Co28 2.091 . S
O30 C36 1.261 . S
C31 O40 1.247 . S
C31 O41 1.272 . S
O32 Co28 2.004 . S
O32 C37 1.259 . S
Co33 O34 2.061 . S
Co33 O39 2.052 . S
Co33 O41 2.135 . S
O34 Co33 2.061 . S
O34 C37 1.235 . S
C35 O38 1.238 . S
C35 O39 1.241 . S
C36 O29 1.247 . S
C36 O30 1.261 . S
C37 O32 1.259 . S
C37 O34 1.235 . S
O38 Co28 2.021 . S
O38 C35 1.238 . S
O39 Co33 2.052 . S
O39 C35 1.241 . S
O40 Co28 2.137 . S
O40 C31 1.247 . S
O41 Co28 2.244 . S
O41 C31 1.272 . S
O41 Co33 2.135 . S
Co42 O43 2.216 . S
Co42 O44 2.091 . S
Co42 O46 2.004 . S
Co42 O52 2.021 . S
Co42 O54 2.137 . S
Co42 O55 2.244 . S
O43 Co42 2.216 . S
O43 C50 1.247 . S
O44 Co42 2.091 . S
O44 C50 1.261 . S
C45 O54 1.247 . S
C45 O55 1.272 . S
O46 Co42 2.004 . S
O46 C51 1.259 . S
Co47 O48 2.061 . S
Co47 O53 2.052 . S
Co47 O55 2.135 . S
O48 Co47 2.061 . S
O48 C51 1.235 . S
C49 O52 1.238 . S
C49 O53 1.241 . S
C50 O43 1.247 . S
C50 O44 1.261 . S
C51 O46 1.259 . S
C51 O48 1.235 . S
O52 Co42 2.021 . S
O52 C49 1.238 . S
O53 Co47 2.052 . S
O53 C49 1.241 . S
O54 Co42 2.137 . S
O54 C45 1.247 . S
O55 Co42 2.244 . S
O55 C45 1.272 . S
O55 Co47 2.135 . S
Co56 O57 2.216 . S
Co56 O58 2.091 . S
Co56 O60 2.004 . S
Co56 O66 2.021 . S
Co56 O68 2.137 . S
Co56 O69 2.244 . S
O57 Co56 2.216 . S
O57 C64 1.247 . S
O58 Co56 2.091 . S
O58 C64 1.261 . S
C59 O68 1.247 . S
C59 O69 1.272 . S
O60 Co56 2.004 . S
O60 C65 1.259 . S
Co61 O62 2.061 . S
Co61 O67 2.052 . S
Co61 O69 2.135 . S
O62 Co61 2.061 . S
O62 C65 1.235 . S
C63 O66 1.238 . S
C63 O67 1.241 . S
C64 O57 1.247 . S
C64 O58 1.261 . S
C65 O60 1.259 . S
C65 O62 1.235 . S
O66 Co56 2.021 . S
O66 C63 1.238 . S
O67 Co61 2.052 . S
O67 C63 1.241 . S
O68 Co56 2.137 . S
O68 C59 1.247 . S
O69 Co56 2.244 . S
O69 C59 1.272 . S
O69 Co61 2.135 . S
Co70 O71 2.216 . S
Co70 O72 2.091 . S
Co70 O74 2.004 . S
Co70 O80 2.021 . S
Co70 O82 2.137 . S
Co70 O83 2.244 . S
O71 Co70 2.216 . S
O71 C78 1.247 . S
O72 Co70 2.091 . S
O72 C78 1.261 . S
C73 O82 1.247 . S
C73 O83 1.272 . S
O74 Co70 2.004 . S
O74 C79 1.257 1_556 S
Co75 O76 2.061 . S
Co75 O81 2.052 . S
Co75 O83 2.135 . S
O76 Co75 2.061 . S
O76 C79 1.234 1_556 S
C77 O80 1.238 . S
C77 O81 1.241 . S
C78 O71 1.247 . S
C78 O72 1.261 . S
C79 O74 1.257 1_554 S
C79 O76 1.234 1_554 S
O80 Co70 2.021 . S
O80 C77 1.238 . S
O81 Co75 2.052 . S
O81 C77 1.241 . S
O82 Co70 2.137 . S
O82 C73 1.247 . S
O83 Co70 2.244 . S
O83 C73 1.272 . S
O83 Co75 2.135 . S
Co84 O85 2.216 . S
Co84 O86 2.091 . S
Co84 O88 2.004 . S
Co84 O94 2.021 . S
Co84 O96 2.137 . S
Co84 O97 2.244 . S
O85 Co84 2.216 . S
O85 C92 1.247 . S
O86 Co84 2.091 . S
O86 C92 1.261 . S
C87 O96 1.247 1_554 S
C87 O97 1.272 1_554 S
O88 Co84 2.004 . S
O88 C93 1.259 . S
Co89 O90 2.061 . S
Co89 O95 2.052 . S
Co89 O97 2.135 . S
O90 Co89 2.061 . S
O90 C93 1.235 . S
C91 O94 1.238 . S
C91 O95 1.241 . S
C92 O85 1.247 . S
C92 O86 1.261 . S
C93 O88 1.259 . S
C93 O90 1.235 . S
O94 Co84 2.021 . S
O94 C91 1.238 . S
O95 Co89 2.052 . S
O95 C91 1.241 . S
O96 Co84 2.137 . S
O96 C87 1.247 1_556 S
O97 Co84 2.244 . S
O97 C87 1.272 1_556 S
O97 Co89 2.135 . S
Co98 O99 2.216 . S
Co98 O100 2.091 . S
Co98 O102 2.004 1_554 S
Co98 O108 2.021 . S
Co98 O110 2.137 . S
Co98 O111 2.244 . S
O99 Co98 2.216 . S
O99 C106 1.247 . S
O100 Co98 2.091 . S
O100 C106 1.261 . S
C101 O110 1.247 . S
C101 O111 1.272 . S
O102 Co98 2.004 1_556 S
O102 C107 1.259 . S
Co103 O104 2.061 1_554 S
Co103 O109 2.052 . S
Co103 O111 2.135 . S
O104 Co103 2.061 1_556 S
O104 C107 1.235 . S
C105 O108 1.238 . S
C105 O109 1.241 . S
C106 O99 1.247 . S
C106 O100 1.261 . S
C107 O102 1.259 . S
C107 O104 1.235 . S
O108 Co98 2.021 . S
O108 C105 1.238 . S
O109 Co103 2.052 . S
O109 C105 1.241 . S
O110 Co98 2.137 . S
O110 C101 1.247 . S
O111 Co98 2.244 . S
O111 C101 1.272 . S
O111 Co103 2.135 . S
Co112 O113 2.216 . S
Co112 O114 2.091 . S
Co112 O116 2.004 . S
Co112 O122 2.021 . S
Co112 O124 2.137 . S
Co112 O125 2.244 . S
O113 Co112 2.216 . S
O113 C120 1.247 . S
O114 Co112 2.091 . S
O114 C120 1.261 . S
C115 O124 1.247 . S
C115 O125 1.272 . S
O116 Co112 2.004 . S
O116 C121 1.259 . S
Co117 O118 2.061 . S
Co117 O123 2.052 . S
Co117 O125 2.135 . S
O118 Co117 2.061 . S
O118 C121 1.235 . S
C119 O122 1.238 . S
C119 O123 1.241 . S
C120 O113 1.247 . S
C120 O114 1.261 . S
C121 O116 1.259 . S
C121 O118 1.235 . S
O122 Co112 2.021 . S
O122 C119 1.238 . S
O123 Co117 2.052 . S
O123 C119 1.241 . S
O124 Co112 2.137 . S
O124 C115 1.247 . S
O125 Co112 2.244 . S
O125 C115 1.272 . S
O125 Co117 2.135 . S
Co126 O127 2.216 . S
Co126 O128 2.091 . S
Co126 O130 2.004 . S
Co126 O136 2.021 . S
Co126 O138 2.137 . S
Co126 O139 2.244 . S
O127 Co126 2.216 . S
O127 C134 1.247 . S
O128 Co126 2.091 . S
O128 C134 1.261 . S
C129 O138 1.247 . S
C129 O139 1.272 . S
O130 Co126 2.004 . S
O130 C135 1.259 . S
Co131 O132 2.061 . S
Co131 O137 2.052 . S
Co131 O139 2.135 . S
O132 Co131 2.061 . S
O132 C135 1.235 . S
C133 O136 1.238 . S
C133 O137 1.241 . S
C134 O127 1.247 . S
C134 O128 1.261 . S
C135 O130 1.259 . S
C135 O132 1.235 . S
O136 Co126 2.021 . S
O136 C133 1.238 . S
O137 Co131 2.052 . S
O137 C133 1.241 . S
O138 Co126 2.137 . S
O138 C129 1.247 . S
O139 Co126 2.244 . S
O139 C129 1.272 . S
O139 Co131 2.135 . S
Co140 O141 2.216 . S
Co140 O142 2.091 . S
Co140 O144 2.004 . S
Co140 O150 2.021 . S
Co140 O152 2.137 . S
Co140 O153 2.244 . S
O141 Co140 2.216 . S
O141 C148 1.247 . S
O142 Co140 2.091 . S
O142 C148 1.261 . S
C143 O152 1.247 . S
C143 O153 1.272 . S
O144 Co140 2.004 . S
O144 C149 1.259 . S
Co145 O146 2.061 . S
Co145 O151 2.052 . S
Co145 O153 2.135 . S
O146 Co145 2.061 . S
O146 C149 1.235 . S
C147 O150 1.238 . S
C147 O151 1.241 . S
C148 O141 1.247 . S
C148 O142 1.261 . S
C149 O144 1.259 . S
C149 O146 1.235 . S
O150 Co140 2.021 . S
O150 C147 1.238 . S
O151 Co145 2.052 . S
O151 C147 1.241 . S
O152 Co140 2.137 . S
O152 C143 1.247 . S
O153 Co140 2.244 . S
O153 C143 1.272 . S
O153 Co145 2.135 . S
Co154 O155 2.216 . S
Co154 O156 2.091 . S
Co154 O158 2.004 . S
Co154 O164 2.021 . S
Co154 O166 2.137 . S
Co154 O167 2.244 . S
O155 Co154 2.216 . S
O155 C162 1.247 . S
O156 Co154 2.091 . S
O156 C162 1.261 . S
C157 O166 1.247 . S
C157 O167 1.272 . S
O158 Co154 2.004 . S
O158 C163 1.259 . S
Co159 O160 2.061 . S
Co159 O165 2.052 . S
Co159 O167 2.135 . S
O160 Co159 2.061 . S
O160 C163 1.235 . S
C161 O164 1.238 . S
C161 O165 1.241 . S
C162 O155 1.247 . S
C162 O156 1.261 . S
C163 O158 1.259 . S
C163 O160 1.235 . S
O164 Co154 2.021 . S
O164 C161 1.238 . S
O165 Co159 2.052 . S
O165 C161 1.241 . S
O166 Co154 2.137 . S
O166 C157 1.247 . S
O167 Co154 2.244 . S
O167 C157 1.272 . S
O167 Co159 2.135 . S
C168 C169 1.369 . S
C168 C170 1.419 . S
C168 H172 0.930 . S
C169 C168 1.369 . S
C169 C178 1.429 . S
C170 C168 1.419 . S
C170 C171 1.363 . S
C170 H173 0.929 . S
C171 C170 1.363 . S
C171 C177 1.428 . S
H172 C168 0.930 . S
H173 C170 0.929 . S
S174 N175 1.613 . S
S174 N176 1.610 . S
N175 S174 1.613 . S
N175 C178 1.350 . S
N176 S174 1.610 . S
N176 C177 1.351 . S
C177 C171 1.428 . S
C177 N176 1.351 . S
C177 C178 1.434 . S
C178 C169 1.429 . S
C178 N175 1.350 . S
C178 C177 1.434 . S
C179 C180 1.369 . S
C179 C181 1.419 . S
C179 H183 0.930 . S
C180 C179 1.369 . S
C180 C189 1.429 . S
C181 C179 1.419 . S
C181 C182 1.363 . S
C181 H184 0.929 . S
C182 C181 1.363 . S
C182 C188 1.428 . S
H183 C179 0.930 . S
H184 C181 0.929 . S
S185 N186 1.613 . S
S185 N187 1.610 . S
N186 S185 1.613 . S
N186 C189 1.350 . S
N187 S185 1.610 . S
N187 C188 1.351 . S
C188 C182 1.428 . S
C188 N187 1.351 . S
C188 C189 1.434 . S
C189 C180 1.429 . S
C189 N186 1.350 . S
C189 C188 1.434 . S
C190 C191 1.369 . S
C190 C192 1.419 . S
C190 H194 0.930 . S
C191 C190 1.369 . S
C191 C200 1.429 . S
C192 C190 1.419 . S
C192 C193 1.363 . S
C192 H195 0.929 . S
C193 C192 1.363 . S
C193 C199 1.428 . S
H194 C190 0.930 . S
H195 C192 0.929 . S
S196 N197 1.613 . S
S196 N198 1.610 . S
N197 S196 1.613 . S
N197 C200 1.350 . S
N198 S196 1.610 . S
N198 C199 1.351 . S
C199 C193 1.428 . S
C199 N198 1.351 . S
C199 C200 1.434 . S
C200 C191 1.429 . S
C200 N197 1.350 . S
C200 C199 1.434 . S
C201 C202 1.369 . S
C201 C203 1.419 . S
C201 H205 0.930 . S
C202 C201 1.369 . S
C202 C211 1.429 . S
C203 C201 1.419 . S
C203 C204 1.363 . S
C203 H206 0.929 . S
C204 C203 1.363 . S
C204 C210 1.428 . S
H205 C201 0.930 . S
H206 C203 0.929 . S
S207 N208 1.613 . S
S207 N209 1.610 . S
N208 S207 1.613 . S
N208 C211 1.350 . S
N209 S207 1.610 . S
N209 C210 1.351 . S
C210 C204 1.428 . S
C210 N209 1.351 . S
C210 C211 1.434 . S
C211 C202 1.429 . S
C211 N208 1.350 . S
C211 C210 1.434 . S
C212 C213 1.369 . S
C212 C214 1.419 . S
C212 H216 0.930 . S
C213 C212 1.369 . S
C213 C222 1.429 . S
C214 C212 1.419 . S
C214 C215 1.363 1_556 S
C214 H217 0.929 . S
C215 C214 1.363 1_554 S
C215 C221 1.428 . S
H216 C212 0.930 . S
H217 C214 0.929 . S
S218 N219 1.613 . S
S218 N220 1.610 . S
N219 S218 1.613 . S
N219 C222 1.350 1_554 S
N220 S218 1.610 . S
N220 C221 1.351 . S
C221 C215 1.428 . S
C221 N220 1.351 . S
C221 C222 1.434 1_554 S
C222 C213 1.429 . S
C222 N219 1.350 1_556 S
C222 C221 1.434 1_556 S
C223 C224 1.369 . S
C223 C225 1.419 . S
C223 H227 0.930 . S
C224 C223 1.369 . S
C224 C233 1.429 . S
C225 C223 1.419 . S
C225 C226 1.363 . S
C225 H228 0.929 . S
C226 C225 1.363 . S
C226 C232 1.428 . S
H227 C223 0.930 . S
H228 C225 0.929 . S
S229 N230 1.613 . S
S229 N231 1.610 . S
N230 S229 1.613 . S
N230 C233 1.350 . S
N231 S229 1.610 . S
N231 C232 1.351 . S
C232 C226 1.428 . S
C232 N231 1.351 . S
C232 C233 1.434 . S
C233 C224 1.429 . S
C233 N230 1.350 . S
C233 C232 1.434 . S
C234 C235 1.369 . S
C234 C236 1.419 . S
C234 H238 0.930 . S
C235 C234 1.369 . S
C235 C244 1.429 . S
C236 C234 1.419 . S
C236 C237 1.363 . S
C236 H239 0.929 . S
C237 C236 1.363 . S
C237 C243 1.428 . S
H238 C234 0.930 . S
H239 C236 0.929 . S
S240 N241 1.613 1_556 S
S240 N242 1.610 1_556 S
N241 S240 1.613 1_554 S
N241 C244 1.350 . S
N242 S240 1.610 1_554 S
N242 C243 1.351 . S
C243 C237 1.428 . S
C243 N242 1.351 . S
C243 C244 1.434 . S
C244 C235 1.429 . S
C244 N241 1.350 . S
C244 C243 1.434 . S
C245 C246 1.369 . S
C245 C247 1.419 . S
C245 H249 0.930 . S
C246 C245 1.369 . S
C246 C255 1.429 . S
C247 C245 1.419 . S
C247 C248 1.363 . S
C247 H250 0.929 . S
C248 C247 1.363 . S
C248 C254 1.428 . S
H249 C245 0.930 . S
H250 C247 0.929 . S
S251 N252 1.613 . S
S251 N253 1.610 . S
N252 S251 1.613 . S
N252 C255 1.350 . S
N253 S251 1.610 . S
N253 C254 1.351 . S
C254 C248 1.428 . S
C254 N253 1.351 . S
C254 C255 1.434 . S
C255 C246 1.429 . S
C255 N252 1.350 . S
C255 C254 1.434 . S
C256 C257 1.369 . S
C256 C258 1.419 . S
C256 H260 0.930 . S
C257 C256 1.369 . S
C257 C266 1.429 . S
C258 C256 1.419 . S
C258 C259 1.363 . S
C258 H261 0.929 . S
C259 C258 1.363 . S
C259 C265 1.428 . S
H260 C256 0.930 . S
H261 C258 0.929 . S
S262 N263 1.613 . S
S262 N264 1.610 . S
N263 S262 1.613 . S
N263 C266 1.350 . S
N264 S262 1.610 . S
N264 C265 1.351 . S
C265 C259 1.428 . S
C265 N264 1.351 . S
C265 C266 1.434 . S
C266 C257 1.429 . S
C266 N263 1.350 . S
C266 C265 1.434 . S
C267 C268 1.369 . S
C267 C269 1.419 . S
C267 H271 0.930 . S
C268 C267 1.369 . S
C268 C277 1.429 . S
C269 C267 1.419 . S
C269 C270 1.363 . S
C269 H272 0.929 . S
C270 C269 1.363 . S
C270 C276 1.428 . S
H271 C267 0.930 . S
H272 C269 0.929 . S
S273 N274 1.613 . S
S273 N275 1.610 . S
N274 S273 1.613 . S
N274 C277 1.350 . S
N275 S273 1.610 . S
N275 C276 1.351 . S
C276 C270 1.428 . S
C276 N275 1.351 . S
C276 C277 1.434 . S
C277 C268 1.429 . S
C277 N274 1.350 . S
C277 C276 1.434 . S
C278 C279 1.369 . S
C278 C280 1.419 . S
C278 H282 0.930 . S
C279 C278 1.369 . S
C279 C288 1.429 . S
C280 C278 1.419 . S
C280 C281 1.363 . S
C280 H283 0.929 . S
C281 C280 1.363 . S
C281 C287 1.428 . S
H282 C278 0.930 . S
H283 C280 0.929 . S
S284 N285 1.613 1_554 S
S284 N286 1.610 1_554 S
N285 S284 1.613 1_556 S
N285 C288 1.350 . S
N286 S284 1.610 1_556 S
N286 C287 1.351 . S
C287 C281 1.428 . S
C287 N286 1.351 . S
C287 C288 1.434 . S
C288 C279 1.429 . S
C288 N285 1.350 . S
C288 C287 1.434 . S
C289 C290 1.369 . S
C289 C291 1.419 . S
C289 H293 0.930 . S
C290 C289 1.369 . S
C290 C299 1.429 1_556 S
C291 C289 1.419 . S
C291 C292 1.363 . S
C291 H294 0.929 . S
C292 C291 1.363 . S
C292 C298 1.428 1_556 S
H293 C289 0.930 . S
H294 C291 0.929 . S
S295 N296 1.613 . S
S295 N297 1.610 . S
N296 S295 1.613 . S
N296 C299 1.350 . S
N297 S295 1.610 . S
N297 C298 1.351 . S
C298 C292 1.428 1_554 S
C298 N297 1.351 . S
C298 C299 1.434 . S
C299 C290 1.429 1_554 S
C299 N296 1.350 . S
C299 C298 1.434 . S
C300 C301 1.369 . S
C300 C302 1.419 . S
C300 H304 0.930 . S
C301 C300 1.369 . S
C301 C310 1.429 . S
C302 C300 1.419 . S
C302 C303 1.363 . S
C302 H305 0.929 . S
C303 C302 1.363 . S
C303 C309 1.428 . S
H304 C300 0.930 . S
H305 C302 0.929 . S
S306 N307 1.613 . S
S306 N308 1.610 . S
N307 S306 1.613 . S
N307 C310 1.350 . S
N308 S306 1.610 . S
N308 C309 1.351 . S
C309 C303 1.428 . S
C309 N308 1.351 . S
C309 C310 1.434 . S
C310 C301 1.429 . S
C310 N307 1.350 . S
C310 C309 1.434 . S
C311 C312 1.369 1_556 S
C311 C313 1.419 . S
C311 H315 0.930 . S
C312 C311 1.369 1_554 S
C312 C321 1.429 . S
C313 C311 1.419 . S
C313 C314 1.363 . S
C313 H316 0.929 . S
C314 C313 1.363 . S
C314 C320 1.428 . S
H315 C311 0.930 . S
H316 C313 0.929 . S
S317 N318 1.613 . S
S317 N319 1.610 . S
N318 S317 1.613 . S
N318 C321 1.350 . S
N319 S317 1.610 . S
N319 C320 1.351 1_554 S
C320 C314 1.428 . S
C320 N319 1.351 1_556 S
C320 C321 1.434 1_556 S
C321 C312 1.429 . S
C321 N318 1.350 . S
C321 C320 1.434 1_554 S
C322 C323 1.369 . S
C322 C324 1.419 . S
C322 H326 0.930 . S
C323 C322 1.369 . S
C323 C332 1.429 . S
C324 C322 1.419 . S
C324 C325 1.363 . S
C324 H327 0.929 . S
C325 C324 1.363 . S
C325 C331 1.428 . S
H326 C322 0.930 . S
H327 C324 0.929 . S
S328 N329 1.613 1_556 S
S328 N330 1.610 . S
N329 S328 1.613 1_554 S
N329 C332 1.350 . S
N330 S328 1.610 . S
N330 C331 1.351 1_556 S
C331 C325 1.428 . S
C331 N330 1.351 1_554 S
C331 C332 1.434 . S
C332 C323 1.429 . S
C332 N329 1.350 . S
C332 C331 1.434 . S
C333 C334 1.369 . S
C333 C335 1.419 . S
C333 H337 0.930 . S
C334 C333 1.369 . S
C334 C343 1.429 . S
C335 C333 1.419 . S
C335 C336 1.363 . S
C335 H338 0.929 . S
C336 C335 1.363 . S
C336 C342 1.428 . S
H337 C333 0.930 . S
H338 C335 0.929 . S
S339 N340 1.613 . S
S339 N341 1.610 . S
N340 S339 1.613 . S
N340 C343 1.350 . S
N341 S339 1.610 . S
N341 C342 1.351 . S
C342 C336 1.428 . S
C342 N341 1.351 . S
C342 C343 1.434 . S
C343 C334 1.429 . S
C343 N340 1.350 . S
C343 C342 1.434 . S
C344 C345 1.369 . S
C344 C346 1.419 . S
C344 H348 0.930 . S
C345 C344 1.369 . S
C345 C354 1.429 . S
C346 C344 1.419 . S
C346 C347 1.363 . S
C346 H349 0.929 . S
C347 C346 1.363 . S
C347 C353 1.428 . S
H348 C344 0.930 . S
H349 C346 0.929 . S
S350 N351 1.613 . S
S350 N352 1.610 . S
N351 S350 1.613 . S
N351 C354 1.350 . S
N352 S350 1.610 . S
N352 C353 1.351 . S
C353 C347 1.428 . S
C353 N352 1.351 . S
C353 C354 1.434 . S
C354 C345 1.429 . S
C354 N351 1.350 . S
C354 C353 1.434 . S
C355 C356 1.369 . S
C355 C357 1.419 . S
C355 H359 0.930 . S
C356 C355 1.369 . S
C356 C365 1.429 . S
C357 C355 1.419 . S
C357 C358 1.363 . S
C357 H360 0.929 . S
C358 C357 1.363 . S
C358 C364 1.428 . S
H359 C355 0.930 . S
H360 C357 0.929 . S
S361 N362 1.613 . S
S361 N363 1.610 . S
N362 S361 1.613 . S
N362 C365 1.350 . S
N363 S361 1.610 . S
N363 C364 1.351 . S
C364 C358 1.428 . S
C364 N363 1.351 . S
C364 C365 1.434 . S
C365 C356 1.429 . S
C365 N362 1.350 . S
C365 C364 1.434 . S
C366 C367 1.369 . S
C366 C368 1.418 . S
C366 H370 0.930 . S
C367 C366 1.369 . S
C367 C376 1.429 1_455 S
C368 C366 1.418 . S
C368 C369 1.363 1_455 S
C368 H371 0.929 . S
C369 C368 1.363 1_655 S
C369 C375 1.428 . S
H370 C366 0.930 . S
H371 C368 0.929 . S
S372 N373 1.613 . S
S372 N374 1.610 1_554 S
N373 S372 1.613 . S
N373 C376 1.350 1_554 S
N374 S372 1.610 1_556 S
N374 C375 1.351 . S
C375 C369 1.428 . S
C375 N374 1.351 . S
C375 C376 1.434 . S
C376 C367 1.429 1_655 S
C376 N373 1.350 1_556 S
C376 C375 1.434 . S
C377 C378 1.369 1_554 S
C377 C379 1.419 . S
C377 H381 0.930 . S
C378 C377 1.369 1_556 S
C378 C387 1.429 1_565 S
C379 C377 1.419 . S
C379 C380 1.363 1_565 S
C379 H382 0.929 . S
C380 C379 1.363 1_545 S
C380 C386 1.428 . S
H381 C377 0.930 . S
H382 C379 0.929 . S
S383 N384 1.613 . S
S383 N385 1.610 . S
N384 S383 1.613 . S
N384 C387 1.350 . S
N385 S383 1.610 . S
N385 C386 1.351 1_556 S
C386 C380 1.428 . S
C386 N385 1.351 1_554 S
C386 C387 1.434 1_554 S
C387 C378 1.429 1_545 S
C387 N384 1.350 . S
C387 C386 1.434 1_556 S
C388 C389 1.369 . S
C388 C390 1.419 . S
C388 H392 0.930 . S
C389 C388 1.369 . S
C389 C398 1.429 . S
C390 C388 1.419 . S
C390 C391 1.363 . S
C390 H393 0.929 . S
C391 C390 1.363 . S
C391 C397 1.428 . S
H392 C388 0.930 . S
H393 C390 0.929 . S
S394 N395 1.613 . S
S394 N396 1.610 . S
N395 S394 1.613 . S
N395 C398 1.350 . S
N396 S394 1.610 . S
N396 C397 1.351 . S
C397 C391 1.428 . S
C397 N396 1.351 . S
C397 C398 1.434 . S
C398 C389 1.429 . S
C398 N395 1.350 . S
C398 C397 1.434 . S
C399 C400 1.369 . S
C399 C401 1.423 . S
C399 H403 0.930 . S
C400 C399 1.369 . S
C400 C409 1.429 1_455 S
C401 C399 1.423 . S
C401 C402 1.357 1_455 S
C401 H404 0.931 . S
C402 C401 1.357 1_655 S
C402 C408 1.428 . S
H403 C399 0.930 . S
H404 C401 0.931 . S
S405 N406 1.613 . S
S405 N407 1.610 . S
N406 S405 1.613 . S
N406 C409 1.350 . S
N407 S405 1.610 . S
N407 C408 1.351 . S
C408 C402 1.428 . S
C408 N407 1.351 . S
C408 C409 1.434 . S
C409 C400 1.429 1_655 S
C409 N406 1.350 . S
C409 C408 1.434 . S
C410 C411 1.369 . S
C410 C412 1.419 1_545 S
C410 H414 0.930 . S
C411 C410 1.369 . S
C411 C420 1.408 1_545 S
C412 C410 1.419 1_565 S
C412 C413 1.363 . S
C412 H415 0.931 . S
C413 C412 1.363 . S
C413 C419 1.428 . S
H414 C410 0.930 . S
H415 C412 0.931 . S
S416 N417 1.613 . S
S416 N418 1.610 . S
N417 S416 1.613 . S
N417 C420 1.357 . S
N418 S416 1.610 . S
N418 C419 1.351 . S
C419 C413 1.428 . S
C419 N418 1.351 . S
C419 C420 1.449 . S
C420 C411 1.408 1_565 S
C420 N417 1.357 . S
C420 C419 1.449 . S
C421 C422 1.369 . S
C421 C423 1.419 . S
C421 H425 0.930 . S
C422 C421 1.369 . S
C422 C431 1.429 . S
C423 C421 1.419 . S
C423 C424 1.363 . S
C423 H426 0.929 . S
C424 C423 1.363 . S
C424 C430 1.428 . S
H425 C421 0.930 . S
H426 C423 0.929 . S
S427 N428 1.613 . S
S427 N429 1.610 . S
N428 S427 1.613 . S
N428 C431 1.350 . S
N429 S427 1.610 . S
N429 C430 1.351 . S
C430 C424 1.428 . S
C430 N429 1.351 . S
C430 C431 1.434 . S
C431 C422 1.429 . S
C431 N428 1.350 . S
C431 C430 1.434 . S
C169 C9 1.426 . S
C171 C149 1.430 . S
C180 C163 1.432 . S
C182 C23 1.427 . S
C191 C37 1.431 . S
C193 C93 1.433 . S
C202 C51 1.434 . S
C204 C107 1.431 . S
C213 C65 1.431 . S
C215 C121 1.427 . S
C224 C135 1.432 . S
C226 C79 1.436 . S
C235 C7 1.547 . S
C237 C119 1.548 . S
C246 C21 1.553 . S
C248 C133 1.552 . S
C257 C147 1.550 . S
C259 C35 1.551 . S
C268 C49 1.553 . S
C270 C161 1.553 . S
C279 C63 1.552 . S
C281 C91 1.551 . S
C290 C77 1.553 . S
C292 C105 1.552 1_556 S
C301 C143 1.441 . S
C303 C3 1.441 . S
C312 C17 1.441 . S
C314 C157 1.441 . S
C323 C31 1.441 . S
C325 C87 1.441 . S
C334 C45 1.441 . S
C336 C101 1.442 . S
C345 C115 1.441 . S
C347 C59 1.441 . S
C356 C73 1.442 . S
C358 C129 1.441 . S
C367 C8 1.437 . S
C369 C162 1.435 . S
C378 C92 1.437 . S
C380 C22 1.434 . S
C389 C106 1.434 . S
C391 C36 1.437 . S
C400 C120 1.437 . S
C402 C50 1.435 . S
C411 C134 1.438 . S
C413 C64 1.434 . S
C422 C148 1.437 . S
C424 C78 1.435 . S
