# Generated by pormake.
# Topology whw, (6)-cn, num edge types: 1
# Building blocks:
#     Node 0, Type 0, BuildingBlock: BETFAJ_clean_sbu_0, # of connection points: 6
#     Node 1, Type 0, BuildingBlock: BETFAJ_clean_sbu_0, # of connection points: 6
#     Node 2, Type 0, BuildingBlock: BETFAJ_clean_sbu_0, # of connection points: 6
#     Node 3, Type 0, BuildingBlock: BETFAJ_clean_sbu_0, # of connection points: 6
#     Node 4, Type 0, BuildingBlock: BETFAJ_clean_sbu_0, # of connection points: 6
#     Node 5, Type 0, BuildingBlock: BETFAJ_clean_sbu_0, # of connection points: 6
#     Node 6, Type 0, BuildingBlock: BETFAJ_clean_sbu_0, # of connection points: 6
#     Node 7, Type 0, BuildingBlock: BETFAJ_clean_sbu_0, # of connection points: 6
#     Node 8, Type 0, BuildingBlock: BETFAJ_clean_sbu_0, # of connection points: 6
#     Node 9, Type 0, BuildingBlock: BETFAJ_clean_sbu_0, # of connection points: 6
#     Node 10, Type 0, BuildingBlock: BETFAJ_clean_sbu_0, # of connection points: 6
#     Node 11, Type 0, BuildingBlock: BETFAJ_clean_sbu_0, # of connection points: 6
#     Node 12, Type 0, BuildingBlock: BETFAJ_clean_sbu_0, # of connection points: 6
#     Node 13, Type 0, BuildingBlock: BETFAJ_clean_sbu_0, # of connection points: 6
#     Node 14, Type 0, BuildingBlock: BETFAJ_clean_sbu_0, # of connection points: 6
#     Node 15, Type 0, BuildingBlock: BETFAJ_clean_sbu_0, # of connection points: 6
#     Edge 16, Type (0, 0), BuildingBlock: XUDNAN_clean_linker_2, # of connection points: 2
#     Edge 17, Type (0, 0), BuildingBlock: XUDNAN_clean_linker_2, # of connection points: 2
#     Edge 18, Type (0, 0), BuildingBlock: XUDNAN_clean_linker_2, # of connection points: 2
#     Edge 19, Type (0, 0), BuildingBlock: XUDNAN_clean_linker_2, # of connection points: 2
#     Edge 20, Type (0, 0), BuildingBlock: XUDNAN_clean_linker_2, # of connection points: 2
#     Edge 21, Type (0, 0), BuildingBlock: XUDNAN_clean_linker_2, # of connection points: 2
#     Edge 22, Type (0, 0), BuildingBlock: XUDNAN_clean_linker_2, # of connection points: 2
#     Edge 23, Type (0, 0), BuildingBlock: XUDNAN_clean_linker_2, # of connection points: 2
#     Edge 24, Type (0, 0), BuildingBlock: XUDNAN_clean_linker_2, # of connection points: 2
#     Edge 25, Type (0, 0), BuildingBlock: XUDNAN_clean_linker_2, # of connection points: 2
#     Edge 26, Type (0, 0), BuildingBlock: XUDNAN_clean_linker_2, # of connection points: 2
#     Edge 27, Type (0, 0), BuildingBlock: XUDNAN_clean_linker_2, # of connection points: 2
#     Edge 28, Type (0, 0), BuildingBlock: XUDNAN_clean_linker_2, # of connection points: 2
#     Edge 29, Type (0, 0), BuildingBlock: XUDNAN_clean_linker_2, # of connection points: 2
#     Edge 30, Type (0, 0), BuildingBlock: XUDNAN_clean_linker_2, # of connection points: 2
#     Edge 31, Type (0, 0), BuildingBlock: XUDNAN_clean_linker_2, # of connection points: 2
#     Edge 32, Type (0, 0), BuildingBlock: XUDNAN_clean_linker_2, # of connection points: 2
#     Edge 33, Type (0, 0), BuildingBlock: XUDNAN_clean_linker_2, # of connection points: 2
#     Edge 34, Type (0, 0), BuildingBlock: XUDNAN_clean_linker_2, # of connection points: 2
#     Edge 35, Type (0, 0), BuildingBlock: XUDNAN_clean_linker_2, # of connection points: 2
#     Edge 36, Type (0, 0), BuildingBlock: XUDNAN_clean_linker_2, # of connection points: 2
#     Edge 37, Type (0, 0), BuildingBlock: XUDNAN_clean_linker_2, # of connection points: 2
#     Edge 38, Type (0, 0), BuildingBlock: XUDNAN_clean_linker_2, # of connection points: 2
#     Edge 39, Type (0, 0), BuildingBlock: XUDNAN_clean_linker_2, # of connection points: 2
#     Edge 40, Type (0, 0), BuildingBlock: XUDNAN_clean_linker_2, # of connection points: 2
#     Edge 41, Type (0, 0), BuildingBlock: XUDNAN_clean_linker_2, # of connection points: 2
#     Edge 42, Type (0, 0), BuildingBlock: XUDNAN_clean_linker_2, # of connection points: 2
#     Edge 43, Type (0, 0), BuildingBlock: XUDNAN_clean_linker_2, # of connection points: 2
#     Edge 44, Type (0, 0), BuildingBlock: XUDNAN_clean_linker_2, # of connection points: 2
#     Edge 45, Type (0, 0), BuildingBlock: XUDNAN_clean_linker_2, # of connection points: 2
#     Edge 46, Type (0, 0), BuildingBlock: XUDNAN_clean_linker_2, # of connection points: 2
#     Edge 47, Type (0, 0), BuildingBlock: XUDNAN_clean_linker_2, # of connection points: 2
#     Edge 48, Type (0, 0), BuildingBlock: XUDNAN_clean_linker_2, # of connection points: 2
#     Edge 49, Type (0, 0), BuildingBlock: XUDNAN_clean_linker_2, # of connection points: 2
#     Edge 50, Type (0, 0), BuildingBlock: XUDNAN_clean_linker_2, # of connection points: 2
#     Edge 51, Type (0, 0), BuildingBlock: XUDNAN_clean_linker_2, # of connection points: 2
#     Edge 52, Type (0, 0), BuildingBlock: XUDNAN_clean_linker_2, # of connection points: 2
#     Edge 53, Type (0, 0), BuildingBlock: XUDNAN_clean_linker_2, # of connection points: 2
#     Edge 54, Type (0, 0), BuildingBlock: XUDNAN_clean_linker_2, # of connection points: 2
#     Edge 55, Type (0, 0), BuildingBlock: XUDNAN_clean_linker_2, # of connection points: 2
#     Edge 56, Type (0, 0), BuildingBlock: XUDNAN_clean_linker_2, # of connection points: 2
#     Edge 57, Type (0, 0), BuildingBlock: XUDNAN_clean_linker_2, # of connection points: 2
#     Edge 58, Type (0, 0), BuildingBlock: XUDNAN_clean_linker_2, # of connection points: 2
#     Edge 59, Type (0, 0), BuildingBlock: XUDNAN_clean_linker_2, # of connection points: 2
#     Edge 60, Type (0, 0), BuildingBlock: XUDNAN_clean_linker_2, # of connection points: 2
#     Edge 61, Type (0, 0), BuildingBlock: XUDNAN_clean_linker_2, # of connection points: 2
#     Edge 62, Type (0, 0), BuildingBlock: XUDNAN_clean_linker_2, # of connection points: 2
#     Edge 63, Type (0, 0), BuildingBlock: XUDNAN_clean_linker_2, # of connection points: 2
# Relax obj value: 0.349
# Max RMSD: 0.238
# Mean RMSD: 0.208
data_MOF--net-whw--node1-BETFAJ_clean_sbu_0--edge1-XUDNAN_clean_linker_2
_symmetry_space_group_name_H-M    P1
_symmetry_Int_Tables_number       1
_symmetry_cell_setting            triclinic
loop_
_symmetry_equiv_pos_as_xyz
'x, y, z'
_cell_length_a     46.69098
_cell_length_b     46.295991
_cell_length_c     34.337051
_cell_angle_alpha  89.864073
_cell_angle_beta   96.170271
_cell_angle_gamma 93.993957
loop_
_atom_site_label
_atom_site_type_symbol
_atom_site_fract_x
_atom_site_fract_y
_atom_site_fract_z
_atom_type_partial_charge
Sm0 Sm 0.07578 0.14453 0.14534 0.0
Sm1 Sm 0.01547 0.14392 0.16841 0.0
C2 C 0.12026 0.13024 0.11028 0.0
C3 C 0.12285 0.11673 0.0722 0.0
C4 C 0.13672 0.09087 0.071 0.0
C5 C 0.13735 0.0764 1.0355 0.0
C6 C 0.1243 0.08769 1.00045 0.0
C7 C 0.1105 0.11369 1.0018 0.0
C8 C 0.10959 0.12795 1.03732 0.0
C9 C 0.06789 0.1913 0.19041 0.0
C10 C 0.02471 0.17402 0.08508 0.0
C11 C 0.96545 0.14176 0.19841 0.0
C12 C 0.95507 0.14872 0.23572 0.0
C13 C 0.9746 0.15568 0.26874 0.0
C14 C 0.9646 0.16267 0.30408 0.0
C15 C 0.93476 0.16166 0.30749 0.0
C16 C 0.91528 0.15402 0.27428 0.0
C17 C 0.92539 0.14791 0.2386 0.0
C18 C 0.02506 0.09977 0.11855 0.0
C19 C 0.07007 0.13596 0.23871 0.0
O20 O 0.10799 0.11329 0.13516 0.0
O21 O 0.11179 0.15669 0.10995 0.0
O22 O 0.04969 0.17961 0.16437 0.0
O23 O 0.09304 0.18108 0.18932 0.0
O24 O 0.04899 0.16033 0.08758 0.0
O25 O 0.00953 0.17463 0.11547 0.0
O26 O 0.9747 0.16374 0.17804 0.0
O27 O 0.98197 0.12006 0.19915 0.0
O28 O 0.0416 0.10795 0.14856 0.0
O29 O 0.00244 0.11443 0.11511 0.0
O30 O 0.0427 0.14156 0.22979 0.0
O31 O 0.08671 0.13174 0.21057 0.0
H32 H 0.14668 0.08161 0.0977 0.0
H33 H 0.14785 0.05627 1.03558 0.0
H34 H 0.10073 0.12338 0.97534 0.0
H35 H 0.09837 0.14765 1.03739 0.0
H36 H -0.0024 0.15568 0.26727 0.0
H37 H 0.98036 0.16891 0.32858 0.0
H38 H 0.8922 0.15221 0.27584 0.0
H39 H 0.91004 0.14215 0.21341 0.0
Sm40 Sm 0.14005 0.79625 0.45239 0.0
Sm41 Sm 0.14821 0.74 0.40973 0.0
C42 C 0.12993 0.83912 0.49883 0.0
C43 C 0.11967 0.84589 0.53668 0.0
C44 C 0.13345 0.83619 0.57228 0.0
C45 C 0.12571 0.84595 0.60793 0.0
C46 C 0.10397 0.8654 0.60863 0.0
C47 C 0.08952 0.87421 0.57302 0.0
C48 C 0.0974 0.86463 0.5374 0.0
C49 C 0.19304 0.79396 0.4257 0.0
C50 C 0.15178 0.73665 0.50184 0.0
C51 C 0.16156 0.70022 0.36066 0.0
C52 C 0.15046 0.69229 0.32004 0.0
C53 C 0.12256 0.69887 0.30465 0.0
C54 C 0.11256 0.6925 0.26552 0.0
C55 C 0.1304 0.67975 0.24094 0.0
C56 C 0.15824 0.67297 0.25665 0.0
C57 C 0.16816 0.67919 0.29585 0.0
C58 C 0.09332 0.74421 0.43024 0.0
C59 C 0.13247 0.79877 0.35858 0.0
O60 O 0.11092 0.82871 0.47069 0.0
O61 O 0.15486 0.82774 0.49974 0.0
O62 O 0.18002 0.77289 0.44164 0.0
O63 O 0.17885 0.81696 0.42571 0.0
O64 O 0.13719 0.76018 0.49881 0.0
O65 O 0.16453 0.72748 0.47214 0.0
O66 O 0.1757 0.72555 0.36541 0.0
O67 O 0.14373 0.69488 0.38706 0.0
O68 O 0.10887 0.76466 0.41746 0.0
O69 O 0.10523 0.71989 0.42859 0.0
O70 O 0.14305 0.77306 0.35995 0.0
O71 O 0.12535 0.81159 0.39013 0.0
H72 H 0.15066 0.82163 0.57264 0.0
H73 H 0.13689 0.83846 0.63497 0.0
H74 H 0.07279 0.88932 0.57266 0.0
H75 H 0.08664 0.87256 0.51034 0.0
H76 H 0.10866 0.70933 0.32276 0.0
H77 H 0.09119 0.69833 0.2542 0.0
H78 H 0.17241 0.66289 0.23858 0.0
H79 H 0.18979 0.67409 0.30716 0.0
Sm80 Sm 0.46378 0.87433 0.70451 0.0
Sm81 Sm 0.49344 0.8509 0.62657 0.0
C82 C 0.44881 0.87381 0.77779 0.0
C83 C 0.43662 0.86102 0.81363 0.0
C84 C 0.44388 0.8336 0.82783 0.0
C85 C 0.43571 0.82316 0.86392 0.0
C86 C 0.42033 0.83988 0.88786 0.0
C87 C 0.41325 0.86748 0.87387 0.0
C88 C 0.42116 0.87779 0.83733 0.0
C89 C 0.48078 0.91601 0.65293 0.0
C90 C 0.5344 0.88271 0.69796 0.0
C91 C 0.50687 0.83345 0.55605 0.0
C92 C 0.51432 0.82257 0.51634 0.0
C93 C 0.52275 0.84143 0.48639 0.0
C94 C 0.53007 0.83076 0.44998 0.0
C95 C 0.52953 0.8007 0.44187 0.0
C96 C 0.5205 0.78205 0.47175 0.0
C97 C 0.51317 0.79265 0.50785 0.0
C98 C 0.49055 0.81798 0.69351 0.0
C99 C 0.42085 0.85103 0.62928 0.0
O100 O 0.47197 0.86301 0.76701 0.0
O101 O 0.43283 0.88517 0.74844 0.0
O102 O 0.47141 0.89043 0.64381 0.0
O103 O 0.47788 0.9215 0.68955 0.0
O104 O 0.513 0.87723 0.71988 0.0
O105 O 0.5321 0.87789 0.65957 0.0
O106 O 0.51041 0.86062 0.56786 0.0
O107 O 0.49633 0.816 0.58198 0.0
O108 O 0.47172 0.83287 0.67717 0.0
O109 O 0.51274 0.8183 0.67344 0.0
O110 O 0.44355 0.84808 0.60938 0.0
O111 O 0.42262 0.85925 0.66639 0.0
H112 H 0.45665 0.82039 0.81154 0.0
H113 H 0.44215 0.80205 0.87353 0.0
H114 H 0.40136 0.88107 0.89104 0.0
H115 H 0.41576 0.8993 0.82802 0.0
H116 H 0.52392 0.86462 0.49116 0.0
H117 H 0.53689 0.84622 0.42854 0.0
H118 H 0.51899 0.75886 0.4674 0.0
H119 H 0.50671 0.77711 0.52943 0.0
Sm120 Sm 0.35542 0.20178 0.9166 0.0
Sm121 Sm 0.36519 0.2563 0.86598 0.0
C122 C 0.35361 0.16086 0.97077 0.0
C123 C 0.36522 0.1533 1.01119 0.0
C124 C 0.39361 0.14491 1.01953 0.0
C125 C 0.40324 0.13466 0.05671 0.0
C126 C 0.38473 0.13251 0.08653 0.0
C127 C 0.35661 0.14171 0.07843 0.0
C128 C 0.34695 0.15184 0.04119 0.0
C129 C 0.30854 0.21668 0.86677 0.0
C130 C 0.35858 0.2666 0.95594 0.0
C131 C 0.36247 0.29693 0.81129 0.0
C132 C 0.37315 0.30467 0.7735 0.0
C133 C 0.40061 0.29787 0.76462 0.0
C134 C 0.41021 0.30604 0.72858 0.0
C135 C 0.39239 0.32088 0.70077 0.0
C136 C 0.36496 0.32761 0.71 0.0
C137 C 0.35548 0.31959 0.74595 0.0
C138 C 0.41323 0.24202 0.91288 0.0
C139 C 0.37439 0.19115 0.83004 0.0
O140 O 0.37133 0.16164 0.94368 0.0
O141 O 0.33507 0.18091 0.96639 0.0
O142 O 0.32593 0.23385 0.88742 0.0
O143 O 0.31452 0.19011 0.8737 0.0
O144 O 0.36576 0.23959 0.96081 0.0
O145 O 0.35057 0.27667 0.92068 0.0
O146 O 0.34366 0.27463 0.81134 0.0
O147 O 0.38132 0.29828 0.8424 0.0
O148 O 0.39493 0.22418 0.89483 0.0
O149 O 0.40817 0.26841 0.903 0.0
O150 O 0.371 0.21895 0.82298 0.0
O151 O 0.37204 0.1797 0.86493 0.0
H152 H 0.40825 0.14549 0.99706 0.0
H153 H 0.42491 0.1275 0.06161 0.0
H154 H 0.34189 0.14088 0.10079 0.0
H155 H 0.32491 0.15796 1.03563 0.0
H156 H 0.41457 0.28624 0.78545 0.0
H157 H 0.4313 0.30028 0.72217 0.0
H158 H 0.35085 0.33933 0.68948 0.0
H159 H 0.33429 0.32512 0.7523 0.0
Sm160 Sm 0.01211 0.90829 0.93245 0.0
Sm161 Sm 0.95593 0.903 0.87667 0.0
C162 C 0.05103 0.92285 0.99222 0.0
C163 C 0.06138 0.91007 1.03009 0.0
C164 C 0.06254 0.92642 0.0647 0.0
C165 C 0.07298 0.91477 0.10071 0.0
C166 C 0.08268 0.88669 0.10251 0.0
C167 C 0.08083 0.87015 0.06795 0.0
C168 C 0.07018 0.88165 1.03213 0.0
C169 C 0.00491 0.85693 0.89216 0.0
C170 C 0.95142 0.87888 0.96394 0.0
C171 C 0.91254 0.89644 0.82002 0.0
C172 C 0.90443 0.88755 0.77893 0.0
C173 C 0.87872 0.89669 0.75955 0.0
C174 C 0.86924 0.88733 0.7214 0.0
C175 C 0.88532 0.86858 0.70167 0.0
C176 C 0.91143 0.85976 0.72103 0.0
C177 C 0.92094 0.8692 0.75937 0.0
C178 C 0.96609 0.95249 0.92264 0.0
C179 C 0.01744 0.91867 0.842 0.0
O180 O 0.02481 0.93147 0.98905 0.0
O181 O 0.05717 0.90998 0.96054 0.0
O182 O 0.98475 0.86977 0.90485 0.0
O183 O 0.02998 0.86905 0.90531 0.0
O184 O 0.97802 0.8906 0.97305 0.0
O185 O 0.93878 0.87841 0.92769 0.0
O186 O 0.91961 0.87614 0.84509 0.0
O187 O 0.92826 0.9208 0.82662 0.0
O188 O 0.98399 0.94088 0.904 0.0
O189 O 0.94117 0.9381 0.91652 0.0
O190 O 0.99196 0.90423 0.83634 0.0
O191 O 0.02801 0.92863 0.87703 0.0
H192 H 0.05567 0.94832 0.06379 0.0
H193 H 0.07426 0.92797 0.12692 0.0
H194 H 0.08774 0.84828 0.06861 0.0
H195 H 0.0691 0.86834 1.00604 0.0
H196 H 0.86561 0.91071 0.77427 0.0
H197 H 0.84886 0.89423 0.70776 0.0
H198 H 0.92453 0.84561 0.70656 0.0
H199 H 0.94093 0.86195 0.77384 0.0
Sm200 Sm 0.4019 0.79553 0.25621 0.0
Sm201 Sm 0.39313 0.73021 0.23393 0.0
C202 C 0.39269 0.84445 0.28973 0.0
C203 C 0.37946 0.84832 0.32625 0.0
C204 C 0.35323 0.86164 0.32564 0.0
C205 C 0.338 0.86076 0.3587 0.0
C206 C 0.34873 0.84627 0.39256 0.0
C207 C 0.37544 0.83386 0.39332 0.0
C208 C 0.39053 0.83474 0.36061 0.0
C209 C 0.44705 0.77429 0.22435 0.0
C210 C 0.4232 0.74452 0.32195 0.0
C211 C 0.38767 0.67839 0.20042 0.0
C212 C 0.39054 0.6685 0.16061 0.0
C213 C 0.40177 0.68784 0.13373 0.0
C214 C 0.40339 0.67922 0.09528 0.0
C215 C 0.39305 0.65124 0.0828 0.0
C216 C 0.38165 0.63181 0.10964 0.0
C217 C 0.38059 0.64037 0.14849 0.0
C218 C 0.35068 0.75129 0.27262 0.0
C219 C 0.39037 0.78103 0.16239 0.0
O220 O 0.37502 0.83264 0.26112 0.0
O221 O 0.41819 0.83381 0.29298 0.0
O222 O 0.43152 0.76145 0.24752 0.0
O223 O 0.44109 0.80134 0.22056 0.0
O224 O 0.41449 0.77128 0.31628 0.0
O225 O 0.4205 0.72536 0.29298 0.0
O226 O 0.41149 0.68881 0.22061 0.0
O227 O 0.36587 0.6942 0.2035 0.0
O228 O 0.36286 0.76416 0.24573 0.0
O229 O 0.35982 0.7257 0.27865 0.0
O230 O 0.39184 0.75358 0.17336 0.0
O231 O 0.39153 0.80208 0.18881 0.0
H232 H 0.34407 0.87185 0.2992 0.0
H233 H 0.31766 0.8708 0.35755 0.0
H234 H 0.38493 0.82348 0.41945 0.0
H235 H 0.41051 0.82403 0.3621 0.0
H236 H 0.40889 0.70979 0.1423 0.0
H237 H 0.41179 0.69474 0.07494 0.0
H238 H 0.37346 0.61015 0.10048 0.0
H239 H 0.37154 0.62527 0.16881 0.0
Sm240 Sm 0.48856 0.08482 0.43317 0.0
Sm241 Sm 0.5445 0.0911 0.3943 0.0
C242 C 0.44827 0.07184 0.48046 0.0
C243 C 0.44272 0.0804 0.52001 0.0
C244 C 0.45655 0.10564 0.5379 0.0
C245 C 0.45017 0.11417 0.5749 0.0
C246 C 0.43002 0.09748 0.59471 0.0
C247 C 0.41662 0.07196 0.57685 0.0
C248 C 0.42291 0.06353 0.53981 0.0
C249 C 0.4965 0.13643 0.39504 0.0
C250 C 0.54896 0.11313 0.48359 0.0
C251 C 0.58883 0.09922 0.35245 0.0
C252 C 0.59869 0.10855 0.31497 0.0
C253 C 0.58014 0.12007 0.28494 0.0
C254 C 0.5908 0.12935 0.24999 0.0
C255 C 0.6201 0.12712 0.2447 0.0
C256 C 0.6384 0.11554 0.2751 0.0
C257 C 0.62777 0.10633 0.3098 0.0
C258 C 0.53741 0.04211 0.43941 0.0
C259 C 0.48278 0.07616 0.34057 0.0
O260 O 0.47039 0.05633 0.47816 0.0
O261 O 0.44626 0.092 0.45381 0.0
O262 O 0.51598 0.12386 0.41542 0.0
O263 O 0.47145 0.12266 0.39624 0.0
O264 O 0.52265 0.10062 0.48476 0.0
O265 O 0.56106 0.11538 0.45065 0.0
O266 O 0.58059 0.11922 0.3748 0.0
O267 O 0.57319 0.07467 0.35298 0.0
O268 O 0.51814 0.05239 0.4158 0.0
O269 O 0.56178 0.05688 0.43747 0.0
O270 O 0.50872 0.08976 0.34271 0.0
O271 O 0.47198 0.06596 0.37235 0.0
H272 H 0.47209 0.11884 0.52311 0.0
H273 H 0.46114 0.1337 0.58812 0.0
H274 H 0.40082 0.05877 0.59118 0.0
H275 H 0.41207 0.04398 0.52644 0.0
H276 H 0.55757 0.12193 0.28856 0.0
H277 H 0.57609 0.13796 0.22701 0.0
H278 H 0.66114 0.11399 0.27238 0.0
H279 H 0.6424 0.09765 0.33285 0.0
Sm280 Sm 0.13418 0.19114 0.60504 0.0
Sm281 Sm 0.12789 0.2535 0.57793 0.0
C282 C 0.1505 0.14035 0.63121 0.0
C283 C 0.14298 0.12137 0.66322 0.0
C284 C 0.12652 0.13143 0.69148 0.0
C285 C 0.12169 0.1146 0.72414 0.0
C286 C 0.13307 0.08729 0.72899 0.0
C287 C 0.14843 0.07676 0.69954 0.0
C288 C 0.15341 0.09376 0.6669 0.0
C289 C 0.07928 0.20169 0.57452 0.0
C290 C 0.10527 0.23755 0.66301 0.0
C291 C 0.13191 0.30318 0.54007 0.0
C292 C 0.13023 0.31441 0.49991 0.0
C293 C 0.12785 0.29561 0.46754 0.0
C294 C 0.12982 0.30664 0.42987 0.0
C295 C 0.13418 0.33665 0.42401 0.0
C296 C 0.13612 0.35537 0.45655 0.0
C297 C 0.13424 0.34431 0.49416 0.0
C298 C 0.17331 0.24663 0.63409 0.0
C299 C 0.13748 0.20237 0.51174 0.0
O300 O 0.16424 0.16508 0.64211 0.0
O301 O 0.13014 0.14303 0.60248 0.0
O302 O 0.10228 0.21191 0.56265 0.0
O303 O 0.08485 0.18424 0.60368 0.0
O304 O 0.11968 0.21371 0.66063 0.0
O305 O 0.10134 0.25506 0.6322 0.0
O306 O 0.10787 0.29304 0.55344 0.0
O307 O 0.15381 0.28749 0.54989 0.0
O308 O 0.16685 0.22957 0.60504 0.0
O309 O 0.15597 0.26713 0.6334 0.0
O310 O 0.12694 0.22755 0.51873 0.0
O311 O 0.14633 0.18574 0.5414 0.0
H312 H 0.11831 0.15276 0.68898 0.0
H313 H 0.11028 0.12372 0.74652 0.0
H314 H 0.15726 0.05574 0.70224 0.0
H315 H 0.16604 0.08569 0.64511 0.0
H316 H 0.12494 0.27243 0.47142 0.0
H317 H 0.12765 0.29171 0.40531 0.0
H318 H 0.13955 0.37856 0.45298 0.0
H319 H 0.13654 0.3591 0.51889 0.0
Sm320 Sm 0.9281 0.30981 0.76372 0.0
Sm321 Sm 0.92044 0.24491 0.74062 0.0
C322 C 0.91467 0.36154 0.78493 0.0
C323 C 0.89372 0.3693 0.81144 0.0
C324 C 0.86839 0.35138 0.8133 0.0
C325 C 0.85262 0.35302 0.84528 0.0
C326 C 0.86166 0.3728 0.87565 0.0
C327 C 0.88514 0.39294 0.87161 0.0
C328 C 0.90124 0.39104 0.83974 0.0
C329 C 0.97624 0.28881 0.73907 0.0
C330 C 0.95321 0.25953 0.82673 0.0
C331 C 0.9053 0.19535 0.70436 0.0
C332 C 0.89978 0.1888 0.66226 0.0
C333 C 0.88766 0.20955 0.63677 0.0
C334 C 0.88546 0.20552 0.59651 0.0
C335 C 0.89494 0.18046 0.58069 0.0
C336 C 0.90601 0.15904 0.60616 0.0
C337 C 0.90841 0.16321 0.64679 0.0
C338 C 0.88304 0.26277 0.7904 0.0
C339 C 0.9168 0.29579 0.66812 0.0
O340 O 0.90371 0.34889 0.75213 0.0
O341 O 0.93695 0.34888 0.8018 0.0
O342 O 0.95042 0.28168 0.72819 0.0
O343 O 0.97794 0.31223 0.76037 0.0
O344 O 0.94078 0.28467 0.82199 0.0
O345 O 0.95298 0.24136 0.79661 0.0
O346 O 0.93225 0.20276 0.71798 0.0
O347 O 0.88675 0.21188 0.71743 0.0
O348 O 0.88979 0.27685 0.76074 0.0
O349 O 0.89598 0.23904 0.79427 0.0
O350 O 0.91779 0.26793 0.67806 0.0
O351 O 0.91889 0.31598 0.69598 0.0
H352 H 0.86216 0.33446 0.79176 0.0
H353 H 0.83507 0.33702 0.84824 0.0
H354 H 0.89288 0.40812 0.89498 0.0
H355 H 0.9208 0.40496 0.8389 0.0
H356 H 0.88048 0.22937 0.64783 0.0
H357 H 0.87726 0.22263 0.57778 0.0
H358 H 0.91329 0.13939 0.59466 0.0
H359 H 0.91784 0.147 0.66599 0.0
Sm360 Sm 0.61049 0.69928 0.10843 0.0
Sm361 Sm 0.6006 0.76162 0.08797 0.0
C362 C 0.63176 0.65266 0.14136 0.0
C363 C 0.64571 0.64547 0.1805 0.0
C364 C 0.67599 0.64709 0.18812 0.0
C365 C 0.68916 0.6431 0.22607 0.0
C366 C 0.67224 0.63684 0.25684 0.0
C367 C 0.64201 0.634 0.24882 0.0
C368 C 0.6289 0.6382 0.21107 0.0
C369 C 0.55773 0.70526 0.06854 0.0
C370 C 0.58644 0.74338 0.17591 0.0
C371 C 0.59252 0.81272 0.05455 0.0
C372 C 0.59532 0.82692 1.01632 0.0
C373 C 0.58905 0.8118 0.98062 0.0
C374 C 0.59261 0.82589 0.945 0.0
C375 C 0.60264 0.85533 0.94436 0.0
C376 C 0.60937 0.87009 0.98033 0.0
C377 C 0.60572 0.85606 1.01579 0.0
C378 C 0.65295 0.75215 0.12961 0.0
C379 C 0.6086 0.71419 1.01588 0.0
O380 O 0.64659 0.6708 0.12057 0.0
O381 O 0.60429 0.65748 0.13888 0.0
O382 O 0.56997 0.72257 0.09485 0.0
O383 O 0.57196 0.68231 0.06632 0.0
O384 O 0.60007 0.71987 0.16823 0.0
O385 O 0.58036 0.76234 0.14752 0.0
O386 O 0.57166 0.79253 0.05671 0.0
O387 O 0.61669 0.80637 0.07433 0.0
O388 O 0.64112 0.73744 0.10058 0.0
O389 O 0.63731 0.77309 0.13694 0.0
O390 O 0.60245 0.74047 1.0262 0.0
O391 O 0.6155 0.69447 0.04251 0.0
H392 H 0.6895 0.65213 0.16494 0.0
H393 H 0.7125 0.64527 0.23145 0.0
H394 H 0.62835 0.6297 0.27204 0.0
H395 H 0.60553 0.63653 0.2062 0.0
H396 H 0.58128 0.7892 0.98023 0.0
H397 H 0.58683 0.81387 0.91794 0.0
H398 H 0.61751 0.89259 0.98115 0.0
H399 H 0.6111 0.86803 0.04297 0.0
Sm400 Sm 0.65328 0.27087 0.94121 0.0
Sm401 Sm 0.66725 0.21246 0.91061 0.0
C402 C 0.63808 0.31538 0.98091 0.0
C403 C 0.63215 0.32273 1.02074 0.0
C404 C 0.64382 0.30754 0.05346 0.0
C405 C 0.63934 0.31611 0.09127 0.0
C406 C 0.62299 0.33989 0.09691 0.0
C407 C 0.61083 0.35454 0.0639 0.0
C408 C 0.61541 0.34604 1.02619 0.0
C409 C 0.70673 0.26918 0.91605 0.0
C410 C 0.67324 0.21869 1.00215 0.0
C411 C 0.68337 0.17166 0.86593 0.0
C412 C 0.67113 0.16292 0.82598 0.0
C413 C 0.68917 0.15482 0.79843 0.0
C414 C 0.67805 0.15004 0.75928 0.0
C415 C 0.64868 0.15328 0.74705 0.0
C416 C 0.63052 0.16062 0.77501 0.0
C417 C 0.64167 0.16557 0.81401 0.0
C418 C 0.61327 0.21282 0.93389 0.0
C419 C 0.64076 0.26232 0.84858 0.0
O420 O 0.61937 0.29721 0.96104 0.0
O421 O 0.66484 0.31082 0.97639 0.0
O422 O 0.69537 0.25021 0.93704 0.0
O423 O 0.69013 0.29014 0.90773 0.0
O424 O 0.65676 0.24065 0.99512 0.0
O425 O 0.68596 0.20718 0.97399 0.0
O426 O 0.69655 0.19759 0.86892 0.0
O427 O 0.6666 0.16618 0.89363 0.0
O428 O 0.62532 0.23283 0.91516 0.0
O429 O 0.6286 0.19049 0.9378 0.0
O430 O 0.65412 0.23821 0.85454 0.0
O431 O 0.63495 0.2785 0.87789 0.0
H432 H 0.65669 0.28935 0.0498 0.0
H433 H 0.64863 0.30412 0.11608 0.0
H434 H 0.59836 0.37309 0.06724 0.0
H435 H 0.60627 0.358 1.00125 0.0
H436 H 0.712 0.15298 0.80695 0.0
H437 H 0.69253 0.14419 0.73843 0.0
H438 H 0.60794 0.16373 0.76642 0.0
H439 H 0.62739 0.17241 0.83457 0.0
Sm440 Sm 0.83511 0.70111 0.41273 0.0
Sm441 Sm 0.83775 0.75587 0.36577 0.0
C442 C 0.83587 0.65899 0.46521 0.0
C443 C 0.84729 0.65225 0.50584 0.0
C444 C 0.87699 0.6499 0.51625 0.0
C445 C 0.88715 0.64064 0.55365 0.0
C446 C 0.86789 0.63359 0.58161 0.0
C447 C 0.83826 0.63674 0.57146 0.0
C448 C 0.82808 0.64583 0.53394 0.0
C449 C 0.78883 0.70635 0.35653 0.0
C450 C 0.82631 0.76306 0.4543 0.0
C451 C 0.83289 0.79611 0.31085 0.0
C452 C 0.84277 0.80091 0.2719 0.0
C453 C 0.85305 0.82877 0.26168 0.0
C454 C 0.86358 0.83369 0.22547 0.0
C455 C 0.86396 0.81078 0.19876 0.0
C456 C 0.85371 0.78282 0.20917 0.0
C457 C 0.84325 0.77791 0.24544 0.0
C458 C 0.88684 0.74998 0.41629 0.0
C459 C 0.86005 0.69566 0.33022 0.0
O460 O 0.85445 0.6625 0.43938 0.0
O461 O 0.81517 0.67676 0.46024 0.0
O462 O 0.80029 0.72626 0.3793 0.0
O463 O 0.80061 0.68235 0.36496 0.0
O464 O 0.83733 0.73762 0.45869 0.0
O465 O 0.81823 0.77294 0.419 0.0
O466 O 0.81317 0.775 0.31416 0.0
O467 O 0.85312 0.7975 0.34025 0.0
O468 O 0.87322 0.7297 0.39602 0.0
O469 O 0.87527 0.77435 0.40898 0.0
O470 O 0.85072 0.72166 0.32275 0.0
O471 O 0.8598 0.68394 0.36516 0.0
H472 H 0.89241 0.65452 0.49525 0.0
H473 H 0.91005 0.63813 0.56016 0.0
H474 H 0.82284 0.63198 0.59241 0.0
H475 H 0.80507 0.64732 0.52664 0.0
H476 H 0.85299 0.84676 0.2818 0.0
H477 H 0.871 0.85552 0.21813 0.0
H478 H 0.85403 0.7647 0.18939 0.0
H479 H 0.83568 0.75614 0.25284 0.0
Sm480 Sm 0.56346 0.65903 0.64761 0.0
Sm481 Sm 0.50235 0.64073 0.66416 0.0
C482 C 0.61569 0.6651 0.62417 0.0
C483 C 0.63227 0.66011 0.59092 0.0
C484 C 0.64005 0.63225 0.58214 0.0
C485 C 0.65646 0.62805 0.55124 0.0
C486 C 0.66546 0.6516 0.52856 0.0
C487 C 0.65817 0.67952 0.53792 0.0
C488 C 0.64186 0.68373 0.5689 0.0
C489 C 0.53638 0.69969 0.68578 0.0
C490 C 0.50952 0.66972 0.57855 0.0
C491 C 0.45327 0.6251 0.69288 0.0
C492 C 0.44255 0.62735 0.73123 0.0
C493 C 0.45741 0.64549 0.76035 0.0
C494 C 0.44755 0.64714 0.79714 0.0
C495 C 0.42328 0.6296 0.80618 0.0
C496 C 0.40897 0.61079 0.77694 0.0
C497 C 0.41835 0.60995 0.73971 0.0
C498 C 0.52594 0.60176 0.61941 0.0
C499 C 0.55546 0.64746 0.73884 0.0
O500 O 0.60612 0.6423 0.6428 0.0
O501 O 0.5975 0.68549 0.62053 0.0
O502 O 0.52542 0.68355 0.65821 0.0
O503 O 0.56401 0.69712 0.6914 0.0
O504 O 0.53709 0.66417 0.5867 0.0
O505 O 0.49122 0.66576 0.60561 0.0
O506 O 0.45743 0.64936 0.67397 0.0
O507 O 0.47423 0.60793 0.69163 0.0
O508 O 0.53978 0.61461 0.649 0.0
O509 O 0.49948 0.60867 0.61423 0.0
O510 O 0.52726 0.64682 0.72784 0.0
O511 O 0.57377 0.64656 0.71219 0.0
H512 H 0.63345 0.61363 0.59903 0.0
H513 H 0.66195 0.60632 0.54493 0.0
H514 H 0.66432 0.69806 0.5206 0.0
H515 H 0.63657 0.70549 0.57544 0.0
H516 H 0.47684 0.65817 0.75479 0.0
H517 H 0.45907 0.66222 0.81829 0.0
H518 H 0.39081 0.59623 0.78281 0.0
H519 H 0.40705 0.59527 0.71778 0.0
Sm520 Sm 0.98001 0.3628 0.19041 0.0
Sm521 Sm 0.00932 0.34896 0.10758 0.0
C522 C 0.9679 0.35578 0.26494 0.0
C523 C 0.96166 0.3513 0.3073 0.0
C524 C 0.97839 0.33376 0.3334 0.0
C525 C 0.97175 0.32866 0.37241 0.0
C526 C 0.94826 0.34112 0.3871 0.0
C527 C 0.93146 0.35838 0.36065 0.0
C528 C 0.93795 0.36327 0.32175 0.0
C529 C 0.98048 0.40703 0.13672 0.0
C530 C 0.05108 0.37763 0.18157 0.0
C531 C 0.02328 0.33538 1.03607 0.0
C532 C 0.03208 0.32517 0.99706 0.0
C533 C 0.03104 0.34246 0.96293 0.0
C534 C 0.03827 0.33164 0.92659 0.0
C535 C 0.04694 0.30311 0.92294 0.0
C536 C 0.04873 0.28641 0.95768 0.0
C537 C 0.04134 0.29706 0.99353 0.0
C538 C 0.0112 0.31058 0.16846 0.0
C539 C 0.93836 0.34287 0.11373 0.0
O540 O 0.99163 0.34803 0.25215 0.0
O541 O 0.95123 0.36909 0.23843 0.0
O542 O -0.00097 0.38838 0.14169 0.0
O543 O 0.96359 0.40546 0.1648 0.0
O544 O 0.02886 0.37474 0.20289 0.0
O545 O 0.04932 0.3715 0.14345 0.0
O546 O 0.0245 0.36239 0.04846 0.0
O547 O 0.01449 0.31655 0.06155 0.0
O548 O 0.99011 0.32463 0.1564 0.0
O549 O 0.03184 0.31467 0.14608 0.0
O550 O 0.95995 0.34922 0.09224 0.0
O551 O 0.94152 0.34117 0.15235 0.0
H552 H -0.0033 0.32381 0.32365 0.0
H553 H 0.98549 0.31542 0.39133 0.0
H554 H 0.91288 0.36813 0.36992 0.0
H555 H 0.92419 0.37653 0.30287 0.0
H556 H 0.02409 0.36424 0.96408 0.0
H557 H 0.03635 0.34547 0.90113 0.0
H558 H 0.05597 0.26471 0.95751 0.0
H559 H 0.04298 0.28303 1.01883 0.0
Sm560 Sm 0.54666 0.39857 0.43518 0.0
Sm561 Sm 0.49263 0.40215 0.37759 0.0
C562 C 0.59259 0.4053 0.48691 0.0
C563 C 0.59957 0.39212 0.5257 0.0
C564 C 0.58068 0.39296 0.55494 0.0
C565 C 0.58553 0.37698 0.58936 0.0
C566 C 0.6091 0.35961 0.59488 0.0
C567 C 0.62852 0.35963 0.56631 0.0
C568 C 0.62386 0.37584 0.53213 0.0
C569 C 0.52036 0.34533 0.41373 0.0
C570 C 0.48367 0.38547 0.46646 0.0
C571 C 0.44953 0.4012 0.32055 0.0
C572 C 0.44089 0.39124 0.28003 0.0
C573 C 0.45685 0.37185 0.26133 0.0
C574 C 0.44734 0.36207 0.22314 0.0
C575 C 0.42181 0.37164 0.20307 0.0
C576 C 0.40615 0.39124 0.22207 0.0
C577 C 0.41562 0.40091 0.26009 0.0
C578 C 0.50983 0.451 0.42284 0.0
C579 C 0.55533 0.40132 0.34223 0.0
O580 O 0.57207 0.4234 0.48393 0.0
O581 O 0.59101 0.38751 0.45702 0.0
O582 O 0.52285 0.36646 0.39079 0.0
O583 O 0.53303 0.35159 0.44843 0.0
O584 O 0.51003 0.39761 0.47581 0.0
O585 O 0.47348 0.3804 0.4296 0.0
O586 O 0.45212 0.38119 0.34752 0.0
O587 O 0.46949 0.42257 0.32579 0.0
O588 O 0.52592 0.43589 0.4057 0.0
O589 O 0.48324 0.44079 0.41595 0.0
O590 O 0.52692 0.39905 0.3351 0.0
O591 O 0.56848 0.40383 0.37825 0.0
H592 H 0.56157 0.40508 0.55071 0.0
H593 H 0.57014 0.37718 0.61081 0.0
H594 H 0.64702 0.34663 0.57007 0.0
H595 H 0.63867 0.3748 0.51002 0.0
H596 H 0.4765 0.3642 0.2763 0.0
H597 H 0.46006 0.34722 0.20925 0.0
H598 H 0.3862 0.39872 0.20784 0.0
H599 H 0.40296 0.41576 0.27414 0.0
Sm600 Sm 0.97555 0.60499 0.92549 0.0
Sm601 Sm 0.03192 0.60066 0.89066 0.0
C602 C 0.93184 0.60431 0.96857 0.0
C603 C 0.92892 0.6076 1.01059 0.0
C604 C 0.90945 0.58888 1.02855 0.0
C605 C 0.90492 0.59326 0.06765 0.0
C606 C 0.91957 0.61665 0.08908 0.0
C607 C 0.93978 0.63475 0.07149 0.0
C608 C 0.94463 0.63012 1.03269 0.0
C609 C 0.98814 0.6505 0.87722 0.0
C610 C 0.03697 0.6279 0.97681 0.0
C611 C 0.07625 0.6014 0.8482 0.0
C612 C 0.08517 0.61175 0.81053 0.0
C613 C 0.11401 0.61017 0.80354 0.0
C614 C 0.12348 0.62058 0.76859 0.0
C615 C 0.10426 0.63279 0.73978 0.0
C616 C 0.07523 0.63434 0.74694 0.0
C617 C 0.06576 0.62389 0.78208 0.0
C618 C 0.01854 0.55557 0.94004 0.0
C619 C 0.97051 0.58674 0.83597 0.0
O620 O 0.9424 0.5806 0.95757 0.0
O621 O 0.94169 0.62738 0.95097 0.0
O622 O 0.00642 0.63931 0.90161 0.0
O623 O 0.96258 0.63796 0.87851 0.0
O624 O 0.01005 0.61722 0.97802 0.0
O625 O 0.04936 0.62784 0.94414 0.0
O626 O 0.07315 0.62131 0.87404 0.0
O627 O 0.05622 0.58011 0.84715 0.0
O628 O 0.00113 0.56718 0.91526 0.0
O629 O 0.04462 0.56634 0.93773 0.0
O630 O -0.00265 0.59804 0.83734 0.0
O631 O 0.9582 0.58149 0.86831 0.0
H632 H 0.89728 0.5713 1.01209 0.0
H633 H 0.8892 0.57905 0.08069 0.0
H634 H 0.9516 0.65268 0.08767 0.0
H635 H 0.96019 0.6446 1.01977 0.0
H636 H 0.12933 0.60109 0.82535 0.0
H637 H 0.14606 0.6195 0.76445 0.0
H638 H 0.0598 0.64337 0.72527 0.0
H639 H 0.04339 0.62537 0.7871 0.0
H640 H 0.08307 0.08274 0.93716 0.0
H641 H 0.17046 0.06151 0.97685 0.0
H642 H 0.17682 0.04588 0.9102 0.0
H643 H 0.06839 0.0268 0.85357 0.0
H644 H 0.04925 0.05255 0.82318 0.0
H645 H 0.04804 0.0529 0.87552 0.0
H646 H 0.06631 0.10709 0.87776 0.0
H647 H 0.0678 0.10686 0.82582 0.0
H648 H 0.09969 0.11797 0.85808 0.0
H649 H 0.17856 0.04458 0.83916 0.0
H650 H 0.17618 0.05932 0.77023 0.0
H651 H 0.08796 0.08209 0.77425 0.0
C652 C 0.10329 0.0741 0.93201 0.0
C653 C 0.12625 0.07339 0.96228 0.0
C654 C 0.15233 0.06181 0.95441 0.0
C655 C 0.15615 0.05283 0.91652 0.0
C656 C 0.13365 0.05535 0.88685 0.0
C657 C 0.10756 0.06547 0.89424 0.0
C658 C 0.08881 0.07101 0.85657 0.0
C659 C 0.06204 0.04952 0.85193 0.0
C660 C 0.08019 0.10259 0.85446 0.0
C661 C 0.10946 0.06496 0.82694 0.0
C662 C 0.13476 0.05487 0.84492 0.0
C663 C 0.15855 0.05156 0.82449 0.0
C664 C 0.15696 0.05995 0.78517 0.0
C665 C 0.13184 0.07182 0.76676 0.0
C666 C 0.1074 0.07301 0.78753 0.0
H667 H 0.09166 0.83523 0.32656 0.0
H668 H 0.16989 0.7954 0.30465 0.0
H669 H 0.1671 0.81649 0.23871 0.0
H670 H 0.05536 0.82203 0.23163 0.0
H671 H 0.03795 0.85563 0.22795 0.0
H672 H 0.04728 0.83999 0.27528 0.0
H673 H 0.07673 0.88753 0.29824 0.0
H674 H 0.0674 0.90338 0.25097 0.0
H675 H 0.10478 0.90221 0.27017 0.0
H676 H 0.15476 0.83837 0.17445 0.0
H677 H 0.1331 0.86044 0.1139 0.0
H678 H 0.06213 0.88612 0.17494 0.0
C679 C 0.1084 0.8315 0.30802 0.0
C680 C 0.131 0.81374 0.32058 0.0
C681 C 0.15229 0.8088 0.29541 0.0
C682 C 0.151 0.82079 0.25799 0.0
C683 C 0.12821 0.83765 0.24601 0.0
C684 C 0.10725 0.84311 0.27007 0.0
C685 C 0.08411 0.86048 0.24855 0.0
C686 C 0.05443 0.84351 0.24568 0.0
C687 C 0.08321 0.89017 0.26816 0.0
C688 C 0.09526 0.86352 0.20869 0.0
C689 C 0.12083 0.85029 0.20815 0.0
C690 C 0.13484 0.849 0.17448 0.0
C691 C 0.1223 0.86141 0.1402 0.0
C692 C 0.09597 0.87489 0.13977 0.0
C693 C 0.08246 0.87624 0.17463 0.0
H694 H 0.34036 0.80059 0.43978 0.0
H695 H 0.32654 0.89151 0.42756 0.0
H696 H 0.32438 0.89541 0.49838 0.0
H697 H 0.30967 0.78998 0.54611 0.0
H698 H 0.33874 0.76698 0.55929 0.0
H699 H 0.32045 0.76578 0.5102 0.0
H700 H 0.36954 0.77531 0.48313 0.0
H701 H 0.38777 0.77725 0.53145 0.0
H702 H 0.39225 0.80732 0.49859 0.0
H703 H 0.34437 0.89579 0.56613 0.0
H704 H 0.38439 0.89364 0.61872 0.0
H705 H 0.39474 0.80485 0.58809 0.0
C706 C 0.33515 0.82078 0.45219 0.0
C707 C 0.33416 0.84578 0.42878 0.0
C708 C 0.32728 0.87202 0.44506 0.0
C709 C 0.32608 0.87436 0.48552 0.0
C710 C 0.33199 0.85034 0.50907 0.0
C711 C 0.33576 0.82362 0.49277 0.0
C712 C 0.35041 0.80388 0.52286 0.0
C713 C 0.32851 0.78027 0.53537 0.0
C714 C 0.37655 0.79027 0.5081 0.0
C715 C 0.35931 0.82533 0.55582 0.0
C716 C 0.34616 0.85108 0.54887 0.0
C717 C 0.35403 0.87549 0.57244 0.0
C718 C 0.3769 0.87417 0.60214 0.0
C719 C 0.39223 0.849 0.60699 0.0
C720 C 0.38268 0.82401 0.58487 0.0
H721 H 0.38605 0.20671 0.75535 0.0
H722 H 0.38096 0.13294 0.83342 0.0
H723 H 0.39527 0.10152 0.78221 0.0
H724 H 0.35786 0.16816 0.66678 0.0
H725 H 0.38163 0.18794 0.63655 0.0
H726 H 0.37094 0.20487 0.67938 0.0
H727 H 0.42467 0.21586 0.70561 0.0
H728 H 0.43559 0.19886 0.66297 0.0
H729 H 0.44837 0.18666 0.71121 0.0
H730 H 0.41004 0.07787 0.72302 0.0
H731 H 0.42392 0.06342 0.65888 0.0
H732 H 0.41957 0.15215 0.61872 0.0
C733 C 0.38787 0.18394 0.76168 0.0
C734 C 0.38235 0.17236 0.79855 0.0
C735 C 0.38506 0.14242 0.80553 0.0
C736 C 0.39321 0.12434 0.77661 0.0
C737 C 0.39864 0.13644 0.74077 0.0
C738 C 0.39606 0.16552 0.73311 0.0
C739 C 0.40315 0.17293 0.69201 0.0
C740 C 0.37682 0.18413 0.66722 0.0
C741 C 0.42951 0.19488 0.69303 0.0
C742 C 0.41007 0.14345 0.67785 0.0
C743 C 0.40731 0.12274 0.70649 0.0
C744 C 0.41223 0.09386 0.7003 0.0
C745 C 0.41998 0.08584 0.66373 0.0
C746 C 0.42277 0.1066 0.63376 0.0
C747 C 0.41792 0.13583 0.64117 0.0
H748 H 0.91177 0.84463 0.18126 0.0
H749 H 0.83911 0.7895 0.12801 0.0
H750 H 0.85473 0.79977 0.06271 0.0
H751 H 0.90966 0.89909 0.10766 0.0
H752 H 0.94831 0.90536 0.10938 0.0
H753 H 0.93233 0.89273 0.15232 0.0
H754 H 0.96404 0.84884 0.15641 0.0
H755 H 0.98017 0.86138 0.11352 0.0
H756 H 0.96315 0.82526 0.11453 0.0
H757 H 0.87625 0.81794 1.00337 0.0
H758 H 0.90359 0.84133 0.95311 0.0
H759 H 0.96306 0.88451 0.04419 0.0
C760 C 0.89917 0.83472 0.15584 0.0
C761 C 0.87421 0.81621 0.15974 0.0
C762 C 0.85848 0.80343 0.1258 0.0
C763 C 0.8671 0.80924 0.08858 0.0
C764 C 0.89162 0.82774 0.08576 0.0
C765 C 0.90758 0.84016 0.11842 0.0
C766 C 0.93289 0.85954 0.10704 0.0
C767 C 0.93065 0.89105 0.11986 0.0
C768 C 0.96177 0.84806 0.12387 0.0
C769 C 0.92834 0.85641 0.06283 0.0
C770 C 0.90439 0.83795 0.05129 0.0
C771 C 0.89517 0.83227 1.01201 0.0
C772 C 0.91082 0.84579 0.98367 0.0
C773 C 0.93553 0.86472 0.99467 0.0
C774 C 0.94443 0.86995 1.03486 0.0
H775 H 0.97717 0.20771 0.85427 0.0
H776 H 0.95624 0.29206 0.89361 0.0
H777 H 0.97258 0.27934 0.96141 0.0
H778 H 0.95491 0.1678 0.93835 0.0
H779 H 0.98362 0.14355 0.94133 0.0
H780 H 0.97089 0.15876 0.89482 0.0
H781 H 0.02302 0.1807 0.88566 0.0
H782 H 0.03468 0.16282 0.9307 0.0
H783 H 0.04309 0.20098 0.92573 0.0
H784 H 0.98815 0.25708 1.02626 0.0
H785 H 0.00579 0.22809 0.08313 0.0
H786 H 0.02061 0.15838 1.00522 0.0
C787 C 0.97617 0.22357 0.8771 0.0
C788 C 0.96513 0.25109 0.8678 0.0
C789 C 0.96437 0.27094 0.89912 0.0
C790 C 0.97364 0.26386 0.93812 0.0
C791 C 0.98403 0.23672 0.94627 0.0
C792 C 0.98569 0.21687 0.91673 0.0
C793 C -0.00212 0.18916 0.93425 0.0
C794 C 0.97549 0.16328 0.92673 0.0
C795 C 0.02633 0.18311 0.91806 0.0
C796 C 0.00299 0.19678 0.97796 0.0
C797 C -0.00563 0.22423 0.98402 0.0
C798 C -0.00469 0.23573 1.02172 0.0
C799 C 0.00538 0.21902 0.054 0.0
C800 C 0.01506 0.19104 0.04904 0.0
C801 C 0.01396 0.17989 1.01018 0.0
H802 H 0.59766 0.1253 0.71424 0.0
H803 H 0.67397 0.17612 0.68482 0.0
H804 H 0.65534 0.1732 0.61487 0.0
H805 H 0.59111 0.07731 0.63137 0.0
H806 H 0.55221 0.07553 0.62472 0.0
H807 H 0.57113 0.08219 0.67271 0.0
H808 H 0.54453 0.12913 0.67817 0.0
H809 H 0.52577 0.12264 0.63 0.0
H810 H 0.54666 0.15642 0.64086 0.0
H811 H 0.6293 0.16448 0.54866 0.0
H812 H 0.59834 0.14857 0.48906 0.0
H813 H 0.53832 0.10311 0.56024 0.0
C814 C 0.61033 0.13593 0.69305 0.0
C815 C 0.63738 0.15082 0.70496 0.0
C816 C 0.65345 0.16423 0.67634 0.0
C817 C 0.64292 0.16291 0.63658 0.0
C818 C 0.61627 0.14809 0.62583 0.0
C819 C 0.60018 0.13471 0.6531 0.0
C820 C 0.57256 0.11947 0.63333 0.0
C821 C 0.57172 0.08668 0.64099 0.0
C822 C 0.5458 0.13271 0.64637 0.0
C823 C 0.57587 0.12618 0.59072 0.0
C824 C 0.60115 0.14291 0.58724 0.0
C825 C 0.60942 0.15142 0.55098 0.0
C826 C 0.59165 0.1422 0.51726 0.0
C827 C 0.56588 0.12455 0.5199 0.0
C828 C 0.55774 0.11679 0.55724 0.0
H829 H 0.52518 0.82211 0.36315 0.0
H830 H 0.5576 0.75084 0.43333 0.0
H831 H 0.57383 0.72951 0.37489 0.0
H832 H 0.50046 0.77814 0.27577 0.0
H833 H 0.51056 0.80527 0.24104 0.0
H834 H 0.50095 0.81599 0.28813 0.0
H835 H 0.54989 0.84557 0.3026 0.0
H836 H 0.55965 0.83544 0.25537 0.0
H837 H 0.58291 0.8282 0.29915 0.0
H838 H 0.58825 0.71533 0.30841 0.0
H839 H 0.59847 0.70927 0.24026 0.0
H840 H 0.55747 0.78861 0.20866 0.0
C841 C 0.53581 0.80208 0.36644 0.0
C842 C 0.53956 0.78839 0.4041 0.0
C843 C 0.55356 0.76197 0.40576 0.0
C844 C 0.56322 0.74958 0.37232 0.0
C845 C 0.55908 0.76343 0.33614 0.0
C846 C 0.54563 0.7891 0.3328 0.0
C847 C 0.54375 0.79909 0.28984 0.0
C848 C 0.51204 0.79969 0.27266 0.0
C849 C 0.56001 0.82885 0.28656 0.0
C850 C 0.5587 0.77542 0.26988 0.0
C851 C 0.56723 0.75505 0.29744 0.0
C852 C 0.58151 0.7312 0.28676 0.0
C853 C 0.58725 0.72792 0.24745 0.0
C854 C 0.57896 0.74823 0.21789 0.0
C855 C 0.56429 0.77244 0.22984 0.0
H856 H 0.65816 0.59826 0.31297 0.0
H857 H 0.71426 0.6741 0.2935 0.0
H858 H 0.72824 0.67881 0.3646 0.0
H859 H 0.6279 0.62705 0.38448 0.0
H860 H 0.6236 0.59505 0.41391 0.0
H861 H 0.62557 0.59157 0.36233 0.0
H862 H 0.66867 0.55922 0.37567 0.0
H863 H 0.66671 0.56247 0.42763 0.0
H864 H 0.70014 0.57219 0.40751 0.0
H865 H 0.72724 0.68223 0.43625 0.0
H866 H 0.7103 0.68487 0.50173 0.0
H867 H 0.65235 0.60861 0.47439 0.0
C868 C 0.67428 0.61515 0.32368 0.0
C869 C 0.68549 0.63563 0.29785 0.0
C870 C 0.70614 0.65774 0.31276 0.0
C871 C 0.71414 0.66058 0.35313 0.0
C872 C 0.70143 0.64095 0.37811 0.0
C873 C 0.68209 0.61845 0.36388 0.0
C874 C 0.66728 0.60371 0.39638 0.0
C875 C 0.63416 0.60444 0.38882 0.0
C876 C 0.67625 0.57255 0.40214 0.0
C877 C 0.67965 0.62277 0.43063 0.0
C878 C 0.70004 0.64351 0.41983 0.0
C879 C 0.71183 0.66568 0.44531 0.0
C880 C 0.70188 0.66718 0.48228 0.0
C881 C 0.68004 0.6469 0.49311 0.0
C882 C 0.66962 0.62392 0.46737 0.0
H883 H 0.62483 0.31564 0.82136 0.0
H884 H 0.63985 0.22916 0.78292 0.0
H885 H 0.63108 0.24427 0.71425 0.0
H886 H 0.56798 0.33003 0.74213 0.0
H887 H 0.5806 0.36749 0.73801 0.0
H888 H 0.5858 0.34937 0.78448 0.0
H889 H 0.64077 0.36323 0.78841 0.0
H890 H 0.63579 0.38121 0.74188 0.0
H891 H 0.6606 0.35305 0.74894 0.0
H892 H 0.6244 0.26915 0.65016 0.0
H893 H 0.61837 0.30227 0.59388 0.0
H894 H 0.60727 0.37279 0.67267 0.0
C895 C 0.62575 0.29977 0.79849 0.0
C896 C 0.63298 0.2712 0.8076 0.0
C897 C 0.63441 0.25119 0.77678 0.0
C898 C 0.6294 0.25953 0.73759 0.0
C899 C 0.62293 0.28796 0.72959 0.0
C900 C 0.6209 0.30778 0.75904 0.0
C901 C 0.6149 0.33735 0.7422 0.0
C902 C 0.58557 0.3466 0.75231 0.0
C903 C 0.63948 0.36004 0.75619 0.0
C904 C 0.61427 0.33107 0.69879 0.0
C905 C 0.61892 0.30241 0.69226 0.0
C906 C 0.62053 0.2916 0.65481 0.0
C907 C 0.6173 0.31059 0.62311 0.0
C908 C 0.61245 0.34003 0.62901 0.0
C909 C 0.6107 0.3503 0.66735 0.0
H910 H 0.91319 0.30326 0.06149 0.0
H911 H 0.90094 0.38405 0.11774 0.0
H912 H 0.8628 0.39436 0.06529 0.0
H913 H 0.91517 0.32316 0.97639 0.0
H914 H 0.89437 0.29423 0.94892 0.0
H915 H 0.91049 0.28754 0.99723 0.0
H916 H 0.86065 0.26994 1.01827 0.0
H917 H 0.84427 0.27665 0.96948 0.0
H918 H 0.83082 0.29282 1.01082 0.0
H919 H 0.84473 0.40504 0.99812 0.0
H920 H 0.84395 0.41184 0.92673 0.0
H921 H 0.86173 0.32222 0.91349 0.0
C922 C 0.90082 0.32199 0.06384 0.0
C923 C 0.90928 0.34265 0.09342 0.0
C924 C 0.89396 0.36768 0.09558 0.0
C925 C 0.8723 0.37368 0.06583 0.0
C926 C 0.86584 0.35398 1.0349 0.0
C927 C 0.87883 0.32793 1.03459 0.0
C928 C 0.87208 0.31285 0.99535 0.0
C929 C 0.89966 0.30403 0.97853 0.0
C930 C 0.85066 0.28651 0.99873 0.0
C931 C 0.85775 0.33661 0.97184 0.0
C932 C 0.8532 0.35974 0.99543 0.0
C933 C 0.8467 0.38664 0.97947 0.0
C934 C 0.84642 0.39044 0.93891 0.0
C935 C 0.85225 0.36736 0.91486 0.0
C936 C 0.85607 0.33979 0.93128 0.0
H937 H 0.86844 0.714 0.25591 0.0
H938 H 0.87618 0.63992 0.33327 0.0
H939 H 0.89301 0.61182 0.28033 0.0
H940 H 0.84238 0.67355 0.16854 0.0
H941 H 0.86188 0.69729 0.13733 0.0
H942 H 0.8505 0.71107 0.18175 0.0
H943 H 0.90362 0.7294 0.2039 0.0
H944 H 0.91501 0.71497 0.15985 0.0
H945 H 0.93144 0.7041 0.20704 0.0
H946 H 0.90685 0.59097 0.21806 0.0
H947 H 0.91913 0.57989 0.15148 0.0
H948 H 0.90396 0.66794 0.11592 0.0
C949 C 0.87374 0.69191 0.26182 0.0
C950 C 0.87095 0.67919 0.29876 0.0
C951 C 0.87818 0.6502 0.30524 0.0
C952 C 0.88773 0.63401 0.27534 0.0
C953 C 0.89008 0.64716 0.23921 0.0
C954 C 0.88343 0.67548 0.23239 0.0
C955 C 0.88766 0.68445 0.19088 0.0
C956 C 0.8589 0.69203 0.16829 0.0
C957 C 0.91082 0.70972 0.19041 0.0
C958 C 0.89787 0.65677 0.17551 0.0
C959 C 0.89885 0.63541 0.20371 0.0
C960 C 0.90644 0.60758 0.19581 0.0
C961 C 0.91326 0.60144 0.15804 0.0
C962 C 0.91274 0.62316 0.12899 0.0
C963 C 0.90501 0.65113 0.13794 0.0
H964 H 0.49864 0.38409 0.54673 0.0
H965 H 0.4272 0.36508 0.45646 0.0
H966 H 0.39686 0.34667 0.50651 0.0
H967 H 0.48537 0.32142 0.60513 0.0
H968 H 0.49458 0.33979 0.65148 0.0
H969 H 0.51091 0.3526 0.60888 0.0
H970 H 0.49281 0.40346 0.61821 0.0
H971 H 0.47657 0.39091 0.66102 0.0
H972 H 0.45493 0.40711 0.62128 0.0
H973 H 0.37434 0.32923 0.56499 0.0
H974 H 0.36032 0.31474 0.62974 0.0
H975 H 0.4456 0.34471 0.68357 0.0
C976 C 0.47654 0.37629 0.53756 0.0
C977 C 0.46536 0.37607 0.49753 0.0
C978 C 0.43637 0.36548 0.48681 0.0
C979 C 0.41889 0.35493 0.51505 0.0
C980 C 0.43061 0.35507 0.55404 0.0
C981 C 0.45869 0.36555 0.56549 0.0
C982 C 0.46582 0.36286 0.60951 0.0
C983 C 0.49064 0.34298 0.61931 0.0
C984 C 0.47295 0.39287 0.62864 0.0
C985 C 0.43741 0.34904 0.6208 0.0
C986 C 0.41746 0.34487 0.58822 0.0
C987 C 0.38968 0.33254 0.59081 0.0
C988 C 0.38188 0.32449 0.62776 0.0
C989 C 0.40174 0.32876 0.6618 0.0
C990 C 0.42999 0.341 0.65809 0.0
H991 H 0.45786 0.69466 0.54897 0.0
H992 H 0.54006 0.67058 0.51521 0.0
H993 H 0.5276 0.68932 0.44916 0.0
H994 H 0.41513 0.67695 0.45641 0.0
H995 H 0.39338 0.70762 0.45678 0.0
H996 H 0.4085 0.69268 0.5023 0.0
H997 H 0.43209 0.74319 0.52238 0.0
H998 H 0.41843 0.75827 0.47607 0.0
H999 H 0.45647 0.7615 0.49161 0.0
H1000 H 0.50665 0.70913 0.38567 0.0
H1001 H 0.47766 0.72816 0.32824 0.0
H1002 H 0.40845 0.74156 0.39948 0.0
C1003 C 0.47315 0.69318 0.52762 0.0
C1004 C 0.50008 0.68081 0.53797 0.0
C1005 C 0.51938 0.67977 0.50878 0.0
C1006 C 0.51249 0.69043 0.47082 0.0
C1007 C 0.48608 0.70243 0.46166 0.0
C1008 C 0.46663 0.70401 0.48908 0.0
C1009 C 0.43977 0.71826 0.4708 0.0
C1010 C 0.41258 0.69764 0.47162 0.0
C1011 C 0.4365 0.747 0.49155 0.0
C1012 C 0.44694 0.72365 0.42881 0.0
C1013 C 0.47399 0.7145 0.42459 0.0
C1014 C 0.48549 0.71645 0.38875 0.0
C1015 C 0.46883 0.72736 0.35619 0.0
C1016 C 0.44085 0.73661 0.35914 0.0
C1017 C 0.42992 0.73511 0.3963 0.0
H1018 H 0.07718 0.65703 0.20726 0.0
H1019 H 0.16135 0.69131 0.17899 0.0
H1020 H 0.14574 0.68319 0.10877 0.0
H1021 H 0.06708 0.60101 0.13413 0.0
H1022 H 0.02891 0.60468 0.12275 0.0
H1023 H 0.04623 0.61387 0.17097 0.0
H1024 H 0.02727 0.66513 0.16446 0.0
H1025 H 0.00996 0.65604 0.11618 0.0
H1026 H 0.03519 0.68734 0.12324 0.0
H1027 H 0.12177 0.67117 0.04225 0.0
H1028 H 0.09135 0.65431 0.98271 0.0
H1029 H 0.0221 0.62736 0.05277 0.0
C1030 C 0.09222 0.66303 0.18623 0.0
C1031 C 0.12058 0.67471 0.19867 0.0
C1032 C 0.13971 0.68196 0.17026 0.0
C1033 C 0.13096 0.67764 0.13027 0.0
C1034 C 0.10299 0.66603 0.11903 0.0
C1035 C 0.08386 0.65873 0.14605 0.0
C1036 C 0.05526 0.64583 0.1259 0.0
C1037 C 0.04902 0.61449 0.13923 0.0
C1038 C 0.03046 0.66472 0.13286 0.0
C1039 C 0.06146 0.64691 0.08341 0.0
C1040 C 0.08908 0.65883 0.08025 0.0
C1041 C 0.10009 0.66183 0.04429 0.0
C1042 C 0.08256 0.65214 1.01058 0.0
C1043 C 0.05427 0.63944 1.0129 0.0
C1044 C 0.04356 0.63706 0.04991 0.0
H1045 H 0.10122 0.29101 0.70248 0.0
H1046 H 0.08428 0.19828 0.71368 0.0
H1047 H 0.06538 0.20572 0.77689 0.0
H1048 H 0.12847 0.29893 0.80602 0.0
H1049 H 0.11572 0.33429 0.81231 0.0
H1050 H 0.12453 0.32323 0.76497 0.0
H1051 H 0.07175 0.33172 0.73215 0.0
H1052 H 0.06683 0.34619 0.77954 0.0
H1053 H 0.04197 0.31799 0.75805 0.0
H1054 H 0.04686 0.22263 0.83884 0.0
H1055 H 0.03637 0.24666 0.8986 0.0
H1056 H 0.07046 0.32887 0.85608 0.0
C1057 C 0.09297 0.27233 0.7179 0.0
C1058 C 0.09335 0.24388 0.70162 0.0
C1059 C 0.08367 0.22022 0.72429 0.0
C1060 C 0.07281 0.22427 0.76054 0.0
C1061 C 0.07266 0.25226 0.77563 0.0
C1062 C 0.08306 0.27597 0.75556 0.0
C1063 C 0.08369 0.30322 0.78142 0.0
C1064 C 0.11496 0.31566 0.79179 0.0
C1065 C 0.06499 0.32613 0.76146 0.0
C1066 C 0.07079 0.29126 0.81806 0.0
C1067 C 0.06455 0.26177 0.81363 0.0
C1068 C 0.05215 0.24566 0.84264 0.0
C1069 C 0.04636 0.25965 0.87708 0.0
C1070 C 0.05289 0.2898 0.88372 0.0
C1071 C 0.06508 0.30582 0.8529 0.0
H1072 H 0.0613 0.31634 0.21557 0.0
H1073 H 0.97151 0.28741 0.21357 0.0
H1074 H 0.98211 0.26138 0.27486 0.0
H1075 H 0.0964 0.28105 0.21829 0.0
H1076 H 0.12324 0.27599 0.25912 0.0
H1077 H 0.10794 0.31024 0.25225 0.0
H1078 H 0.09377 0.30841 0.3226 0.0
H1079 H 0.11023 0.27428 0.32816 0.0
H1080 H 0.07373 0.2771 0.33908 0.0
H1081 H -0.00036 0.21572 0.26921 0.0
H1082 H 0.01624 0.18677 0.21892 0.0
H1083 H 0.10114 0.22953 0.23823 0.0
C1084 C 0.04412 0.30505 0.22954 0.0
C1085 C 0.01626 0.30172 0.2093 0.0
C1086 C 0.99342 0.28862 0.22785 0.0
C1087 C -0.00067 0.27448 0.2633 0.0
C1088 C 0.02828 0.27109 0.27698 0.0
C1089 C 0.05033 0.28965 0.26444 0.0
C1090 C 0.07913 0.27707 0.27576 0.0
C1091 C 0.10302 0.28658 0.2496 0.0
C1092 C 0.0898 0.28459 0.31892 0.0
C1093 C 0.06878 0.2455 0.27199 0.0
C1094 C 0.03963 0.24241 0.27874 0.0
C1095 C 0.02217 0.21828 0.26427 0.0
C1096 C 0.03155 0.20193 0.23497 0.0
C1097 C 0.05979 0.20634 0.22479 0.0
C1098 C 0.07938 0.22616 0.2463 0.0
H1099 H 0.92419 0.708 0.40703 0.0
H1100 H 0.91755 0.79091 0.46269 0.0
H1101 H 0.97026 0.79507 0.48054 0.0
H1102 H 0.98761 0.68468 0.47651 0.0
H1103 H 0.00299 0.66808 0.43689 0.0
H1104 H 0.96433 0.66869 0.43579 0.0
H1105 H 0.96235 0.69344 0.36793 0.0
H1106 H 0.00091 0.69338 0.36902 0.0
H1107 H 0.98364 0.72694 0.3625 0.0
H1108 H 0.02312 0.79513 0.48051 0.0
H1109 H 0.07329 0.78881 0.46769 0.0
H1110 H 0.04677 0.70546 0.41384 0.0
C1111 C 0.93378 0.72645 0.4243 0.0
C1112 C 0.91698 0.74916 0.43356 0.0
C1113 C 0.93018 0.77331 0.45537 0.0
C1114 C 0.96005 0.77581 0.46573 0.0
C1115 C 0.9763 0.75379 0.45445 0.0
C1116 C 0.96366 0.72927 0.43485 0.0
C1117 C 0.98635 0.71029 0.4226 0.0
C1118 C 0.98526 0.68121 0.44425 0.0
C1119 C 0.98311 0.70577 0.37787 0.0
C1120 C 0.0136 0.72878 0.43638 0.0
C1121 C 0.00727 0.7536 0.45509 0.0
C1122 C 0.02843 0.77547 0.46676 0.0
C1123 C 0.05679 0.77195 0.45895 0.0
C1124 C 0.06371 0.74681 0.43987 0.0
C1125 C 0.04198 0.72469 0.42914 0.0
H1126 H 0.5566 0.7202 0.75754 0.0
H1127 H 0.47827 0.69967 0.68217 0.0
H1128 H 0.44981 0.71705 0.73126 0.0
H1129 H 0.50367 0.74024 0.85333 0.0
H1130 H 0.52868 0.77097 0.86561 0.0
H1131 H 0.54179 0.73574 0.86012 0.0
H1132 H 0.57442 0.75113 0.81085 0.0
H1133 H 0.56482 0.78686 0.81993 0.0
H1134 H 0.56296 0.77328 0.76991 0.0
H1135 H 0.43323 0.75904 0.76292 0.0
H1136 H 0.43985 0.79793 0.71624 0.0
H1137 H 0.53086 0.80683 0.75537 0.0
C1138 C 0.53327 0.71849 0.7529 0.0
C1139 C 0.51948 0.70863 0.71668 0.0
C1140 C 0.48923 0.70685 0.71015 0.0
C1141 C 0.4729 0.71644 0.73852 0.0
C1142 C 0.48708 0.7309 0.7717 0.0
C1143 C 0.51709 0.73052 0.78009 0.0
C1144 C 0.52791 0.75671 0.80449 0.0
C1145 C 0.52521 0.7505 0.84835 0.0
C1146 C 0.55934 0.76779 0.80057 0.0
C1147 C 0.50488 0.77633 0.78817 0.0
C1148 C 0.47864 0.75944 0.78298 0.0
C1149 C 0.45414 0.77082 0.7636 0.0
C1150 C 0.45824 0.79236 0.73614 0.0
C1151 C 0.48644 0.80311 0.73057 0.0
C1152 C 0.50946 0.79742 0.75894 0.0
H1153 H 0.58031 0.25876 0.93213 0.0
H1154 H 0.58004 0.16737 0.95952 0.0
H1155 H 0.52853 0.16695 0.97033 0.0
H1156 H 0.5265 0.2764 1.00388 0.0
H1157 H 0.51126 0.30262 0.97027 0.0
H1158 H 0.54919 0.29674 0.97277 0.0
H1159 H 0.54351 0.2863 0.89809 0.0
H1160 H 0.50574 0.29189 0.89537 0.0
H1161 H 0.51729 0.25826 0.87823 0.0
H1162 H 0.47592 0.17411 0.96288 0.0
H1163 H 0.42692 0.18906 0.94135 0.0
H1164 H 0.4623 0.27677 0.92521 0.0
C1165 C 0.56968 0.23898 0.9419 0.0
C1166 C 0.58391 0.21317 0.94509 0.0
C1167 C 0.56933 0.1874 0.957 0.0
C1168 C 0.54019 0.18702 0.96348 0.0
C1169 C 0.52643 0.21277 0.95903 0.0
C1170 C 0.54091 0.23844 0.94935 0.0
C1171 C 0.52072 0.26245 0.94232 0.0
C1172 C 0.52731 0.28594 0.97422 0.0
C1173 C 0.52189 0.27544 0.90106 0.0
C1174 C 0.49225 0.24569 0.94617 0.0
C1175 C 0.49598 0.21718 0.95659 0.0
C1176 C 0.47269 0.19656 0.95606 0.0
C1177 C 0.44501 0.20514 0.94359 0.0
C1178 C 0.44108 0.23403 0.93201 0.0
C1179 C 0.46478 0.25469 0.93478 0.0
H1180 H 0.04152 0.81411 0.90591 0.0
H1181 H 0.9593 0.8332 0.84382 0.0
H1182 H 0.95138 0.78224 0.82115 0.0
H1183 H 0.06046 0.75623 0.8381 0.0
H1184 H 0.07489 0.73489 0.87862 0.0
H1185 H 0.07725 0.77386 0.88236 0.0
H1186 H 0.05128 0.77043 0.94545 0.0
H1187 H 0.04905 0.73163 0.942 0.0
H1188 H 0.01668 0.75037 0.94424 0.0
H1189 H 0.94967 0.72889 0.81226 0.0
H1190 H 0.95066 0.67654 0.825 0.0
H1191 H 0.03271 0.69139 0.89655 0.0
C1192 C 0.02229 0.80768 0.88651 0.0
C1193 C 0.00113 0.82741 0.87601 0.0
C1194 C 0.97575 0.81824 0.85184 0.0
C1195 C 0.97126 0.78949 0.83859 0.0
C1196 C 0.99231 0.77028 0.85011 0.0
C1197 C 0.01723 0.77894 0.87386 0.0
C1198 C 0.03414 0.75331 0.88736 0.0
C1199 C 0.06342 0.75466 0.8706 0.0
C1200 C 0.03798 0.75132 0.93241 0.0
C1201 C 0.01416 0.72872 0.86909 0.0
C1202 C 0.99068 0.73906 0.8466 0.0
C1203 C 0.9681 0.72055 0.82937 0.0
C1204 C 0.96883 0.69087 0.83684 0.0
C1205 C 0.9917 0.6801 0.86191 0.0
C1206 C 0.01522 0.69909 0.87684 0.0
H1207 H 0.52584 0.74899 0.04405 0.0
H1208 H 0.52036 0.65867 0.07551 0.0
H1209 H 0.47913 0.6662 0.11161 0.0
H1210 H 0.52533 0.77743 0.11786 0.0
H1211 H 0.50081 0.8059 0.11199 0.0
H1212 H 0.516 0.79307 0.07027 0.0
H1213 H 0.46671 0.78113 1.03344 0.0
H1214 H 0.44945 0.79359 0.07421 0.0
H1215 H 0.44026 0.75762 0.05466 0.0
H1216 H 0.46918 0.68805 0.1722 0.0
H1217 H 0.45992 0.71836 0.22772 0.0
H1218 H 0.46341 0.79455 0.1546 0.0
C1219 C 0.51399 0.7305 0.05547 0.0
C1220 C 0.52658 0.70387 0.05933 0.0
C1221 C 0.51112 0.67952 0.07345 0.0
C1222 C 0.48783 0.6837 0.09445 0.0
C1223 C 0.47982 0.71189 0.09821 0.0
C1224 C 0.49055 0.73459 0.07627 0.0
C1225 C 0.48191 0.76335 0.0904 0.0
C1226 C 0.50759 0.7862 0.09812 0.0
C1227 C 0.45812 0.77459 0.06135 0.0
C1228 C 0.47017 0.75387 0.12791 0.0
C1229 C 0.46933 0.72411 0.13195 0.0
C1230 C 0.467 0.711 0.16814 0.0
C1231 C 0.46215 0.72835 0.19957 0.0
C1232 C 0.45927 0.75827 0.19439 0.0
C1233 C 0.46429 0.77141 0.15861 0.0
H1234 H 0.53616 0.17697 0.42822 0.0
H1235 H 0.46256 0.16491 0.34012 0.0
H1236 H 0.46365 0.218 0.32967 0.0
H1237 H 0.51147 0.23493 0.47279 0.0
H1238 H 0.54631 0.25388 0.48505 0.0
H1239 H 0.54354 0.21514 0.47974 0.0
H1240 H 0.57971 0.21867 0.42744 0.0
H1241 H 0.58296 0.2575 0.43293 0.0
H1242 H 0.57283 0.24141 0.38525 0.0
H1243 H 0.47076 0.273 0.33321 0.0
H1244 H 0.48129 0.32453 0.35337 0.0
H1245 H 0.54673 0.29883 0.44352 0.0
C1246 C 0.52089 0.18545 0.40582 0.0
C1247 C 0.49953 0.16711 0.38453 0.0
C1248 C 0.47923 0.17887 0.3564 0.0
C1249 C 0.47976 0.20888 0.35025 0.0
C1250 C 0.50055 0.2266 0.37279 0.0
C1251 C 0.52069 0.21524 0.40008 0.0
C1252 C 0.53839 0.2387 0.42413 0.0
C1253 C 0.53468 0.23546 0.468 0.0
C1254 C 0.57037 0.23909 0.41699 0.0
C1255 C 0.52458 0.26504 0.40693 0.0
C1256 C 0.50331 0.25785 0.37667 0.0
C1257 C 0.48743 0.27886 0.35679 0.0
C1258 C 0.49343 0.30794 0.36841 0.0
C1259 C 0.51446 0.3153 0.4002 0.0
C1260 C 0.53026 0.29363 0.4194 0.0
H1261 H 0.02817 0.18189 0.59595 0.0
H1262 H 0.06994 0.25413 0.54024 0.0
H1263 H 0.04362 0.28821 0.57606 0.0
H1264 H 0.95789 0.2242 0.61087 0.0
H1265 H 0.95575 0.205 0.65603 0.0
H1266 H 0.9662 0.18682 0.614 0.0
H1267 H 0.01023 0.1718 0.65605 0.0
H1268 H 0.00368 0.19152 0.69863 0.0
H1269 H 0.03695 0.19874 0.67704 0.0
H1270 H 0.02758 0.31253 0.63501 0.0
H1271 H 0.00965 0.32589 0.69756 0.0
H1272 H 0.9843 0.23581 0.71729 0.0
C1273 C 0.02997 0.20476 0.58916 0.0
C1274 C 0.05248 0.21621 0.56887 0.0
C1275 C 0.05392 0.24573 0.55853 0.0
C1276 C 0.03904 0.26509 0.57864 0.0
C1277 C 0.02148 0.25361 0.60599 0.0
C1278 C 0.01534 0.22397 0.60923 0.0
C1279 C -0.00047 0.21673 0.64419 0.0
C1280 C 0.96793 0.20767 0.63036 0.0
C1281 C 0.01345 0.19337 0.67056 0.0
C1282 C 0.00241 0.24591 0.66384 0.0
C1283 C 0.01359 0.2673 0.64057 0.0
C1284 C 0.0183 0.29602 0.65319 0.0
C1285 C 0.00914 0.30328 0.68929 0.0
C1286 C -0.00314 0.28154 0.71263 0.0
C1287 C -0.00535 0.25251 0.7004 0.0
H1288 H 0.04404 0.08505 0.04946 0.0
H1289 H -0.00026 0.05104 0.14597 0.0
H1290 H 0.98315 0.00687 0.10744 0.0
H1291 H 0.99366 0.06516 0.97617 0.0
H1292 H 0.01658 0.05391 0.94081 0.0
H1293 H 0.03056 0.07996 0.97799 0.0
H1294 H 0.07203 0.04774 1.00235 0.0
H1295 H 0.05898 0.02251 0.96347 0.0
H1296 H 0.06371 0.01025 1.01348 0.0
H1297 H 0.96273 0.97266 0.05466 0.0
H1298 H 0.94621 0.9454 0.99373 0.0
H1299 H 0.00613 -0.00117 0.93149 0.0
C1300 C 0.03216 0.06752 0.063 0.0
C1301 C 0.02368 0.07085 0.10088 0.0
C1302 C 0.00705 0.04829 0.11739 0.0
C1303 C -0.00261 0.02329 0.09561 0.0
C1304 C 0.00493 0.0211 0.05759 0.0
C1305 C 0.02272 0.04213 0.04175 0.0
C1306 C 0.0258 0.0353 0.9992 0.0
C1307 C 0.01605 0.06006 0.97197 0.0
C1308 C 0.05698 0.02853 0.99433 0.0
C1309 C 0.00534 0.00837 0.99295 0.0
C1310 C 0.99371 0.00051 1.02713 0.0
C1311 C 0.97224 0.97811 1.02798 0.0
C1312 C 0.96271 0.963 0.99315 0.0
C1313 C 0.97493 0.97011 0.95812 0.0
C1314 C -0.00334 0.99292 0.95809 0.0
H1315 H 0.22846 0.74873 0.41951 0.0
H1316 H 0.21478 0.83686 0.38203 0.0
H1317 H 0.25476 0.836 0.34135 0.0
H1318 H 0.30805 0.75662 0.42287 0.0
H1319 H 0.31063 0.72053 0.40466 0.0
H1320 H 0.28167 0.72811 0.43301 0.0
H1321 H 0.24415 0.70785 0.37696 0.0
H1322 H 0.27286 0.70017 0.3483 0.0
H1323 H 0.24482 0.72257 0.3284 0.0
H1324 H 0.29162 0.82433 0.29893 0.0
H1325 H 0.32791 0.80377 0.26207 0.0
H1326 H 0.32183 0.72483 0.32983 0.0
C1327 C 0.23419 0.76787 0.40307 0.0
C1328 C 0.21848 0.79281 0.40389 0.0
C1329 C 0.2265 0.81748 0.38193 0.0
C1330 C 0.2492 0.81727 0.35865 0.0
C1331 C 0.26398 0.79232 0.35788 0.0
C1332 C 0.2572 0.76819 0.37982 0.0
C1333 C 0.27648 0.74411 0.37275 0.0
C1334 C 0.29533 0.73693 0.41057 0.0
C1335 C 0.25851 0.71708 0.35558 0.0
C1336 C 0.29453 0.75839 0.34285 0.0
C1337 C 0.28677 0.78615 0.33465 0.0
C1338 C 0.2986 0.80294 0.30588 0.0
C1339 C 0.31935 0.7912 0.28526 0.0
C1340 C 0.32841 0.76323 0.29402 0.0
C1341 C 0.31573 0.74658 0.3231 0.0
H1342 H 0.50014 0.99385 0.44722 0.0
H1343 H 0.56212 0.05456 0.51274 0.0
H1344 H 0.55329 0.02955 0.57401 0.0
H1345 H 0.45014 0.98355 0.52071 0.0
H1346 H 0.44313 0.9452 0.51191 0.0
H1347 H 0.45285 0.96873 0.47285 0.0
H1348 H 0.49544 0.93757 0.46248 0.0
H1349 H 0.48589 0.91393 0.50151 0.0
H1350 H 0.52185 0.93109 0.50327 0.0
H1351 H 0.53726 -0.00066 0.62825 0.0
H1352 H 0.51763 0.96267 0.67246 0.0
H1353 H 0.46959 0.91783 0.57265 0.0
C1354 C 0.51168 0.0018 0.47457 0.0
C1355 C 0.53159 0.02627 0.47538 0.0
C1356 C 0.54668 0.03592 0.5115 0.0
C1357 C 0.5418 0.02189 0.54651 0.0
C1358 C 0.52223 -0.00224 0.54487 0.0
C1359 C 0.50767 0.98743 0.50991 0.0
C1360 C 0.48894 0.96009 0.51657 0.0
C1361 C 0.45686 0.96467 0.50482 0.0
C1362 C 0.49862 0.93414 0.49465 0.0
C1363 C 0.49528 0.95683 0.56062 0.0
C1364 C 0.51423 0.97911 0.57629 0.0
C1365 C 0.52262 0.98161 0.61637 0.0
C1366 C 0.51137 0.96074 0.64123 0.0
C1367 C 0.49241 0.9374 0.62586 0.0
C1368 C 0.48438 0.93532 0.58501 0.0
H1369 H 0.2803 0.18302 0.80638 0.0
H1370 H 0.2927 0.2711 0.85123 0.0
H1371 H 0.26358 0.28806 0.79257 0.0
H1372 H 0.28258 0.20055 0.70364 0.0
H1373 H 0.25449 0.17351 0.68626 0.0
H1374 H 0.27708 0.16782 0.7312 0.0
H1375 H 0.23177 0.16032 0.76853 0.0
H1376 H 0.20908 0.16561 0.72362 0.0
H1377 H 0.20605 0.18773 0.76589 0.0
H1378 H 0.23357 0.29575 0.73093 0.0
H1379 H 0.19877 0.29361 0.67215 0.0
H1380 H 0.20457 0.20068 0.66472 0.0
C1381 C 0.27671 0.20584 0.80383 0.0
C1382 C 0.28897 0.22589 0.83309 0.0
C1383 C 0.2837 0.25549 0.82898 0.0
C1384 C 0.26733 0.26533 0.7957 0.0
C1385 C 0.25614 0.24522 0.76695 0.0
C1386 C 0.26016 0.21605 0.77074 0.0
C1387 C 0.24448 0.19906 0.73597 0.0
C1388 C 0.26594 0.18437 0.7129 0.0
C1389 C 0.22148 0.17687 0.7493 0.0
C1390 C 0.23071 0.22329 0.71243 0.0
C1391 C 0.23818 0.24969 0.73087 0.0
C1392 C 0.22757 0.27524 0.71618 0.0
C1393 C 0.2078 0.27374 0.68265 0.0
C1394 C 0.19864 0.24689 0.66397 0.0
C1395 C 0.21104 0.22142 0.67828 0.0
H1396 H 0.72531 0.28684 0.84668 0.0
H1397 H 0.75326 0.24908 0.95883 0.0
H1398 H 0.80292 0.24893 0.94033 0.0
H1399 H 0.76945 0.24239 0.79346 0.0
H1400 H 0.77581 0.27007 0.75776 0.0
H1401 H 0.74307 0.26848 0.78124 0.0
H1402 H 0.75465 0.32121 0.80014 0.0
H1403 H 0.78981 0.32398 0.78273 0.0
H1404 H 0.78587 0.332 0.83326 0.0
H1405 H 0.84891 0.25304 0.91063 0.0
H1406 H 0.88762 0.25343 0.86753 0.0
H1407 H 0.83007 0.28533 0.77198 0.0
C1408 C 0.74212 0.279 0.86743 0.0
C1409 C 0.73594 0.26857 0.90446 0.0
C1410 C 0.75791 0.25745 0.93053 0.0
C1411 C 0.78616 0.25761 0.92043 0.0
C1412 C 0.79181 0.26856 0.88399 0.0
C1413 C 0.7703 0.27823 0.85736 0.0
C1414 C 0.78157 0.28568 0.81849 0.0
C1415 C 0.76659 0.26545 0.78582 0.0
C1416 C 0.77783 0.31761 0.80804 0.0
C1417 C 0.81308 0.27956 0.8279 0.0
C1418 C 0.81838 0.26988 0.866 0.0
C1419 C 0.84519 0.26108 0.88108 0.0
C1420 C 0.86702 0.26133 0.85635 0.0
C1421 C 0.86184 0.26987 0.81682 0.0
C1422 C 0.83474 0.27964 0.80249 0.0
H1423 H 0.74768 0.74541 0.3376 0.0
H1424 H 0.79254 0.67736 0.28894 0.0
H1425 H 0.76466 0.6834 0.22455 0.0
H1426 H 0.67871 0.72352 0.28633 0.0
H1427 H 0.66756 0.75981 0.27908 0.0
H1428 H 0.69261 0.7518 0.32067 0.0
H1429 H 0.72941 0.7919 0.29974 0.0
H1430 H 0.70448 0.80014 0.25809 0.0
H1431 H 0.74051 0.79107 0.25109 0.0
H1432 H 0.73071 0.69564 0.16576 0.0
H1433 H 0.69197 0.71231 0.11764 0.0
H1434 H 0.66804 0.77121 0.20473 0.0
C1435 C 0.75179 0.7321 0.31319 0.0
C1436 C 0.7723 0.71103 0.31811 0.0
C1437 C 0.77683 0.69359 0.28577 0.0
C1438 C 0.76123 0.69696 0.24901 0.0
C1439 C 0.74085 0.71764 0.24511 0.0
C1440 C 0.73594 0.7348 0.27635 0.0
C1441 C 0.71148 0.75404 0.26486 0.0
C1442 C 0.68609 0.74686 0.28918 0.0
C1443 C 0.72211 0.7862 0.26866 0.0
C1444 C 0.70362 0.74521 0.22233 0.0
C1445 C 0.72083 0.72419 0.21148 0.0
C1446 C 0.71714 0.71216 0.17389 0.0
C1447 C 0.69506 0.72166 0.14679 0.0
C1448 C 0.67706 0.743 0.15743 0.0
C1449 C 0.68164 0.75502 0.19562 0.0
H1450 H 0.49225 0.5537 0.60051 0.0
H1451 H 0.5776 0.5938 0.58982 0.0
H1452 H 0.58527 0.55588 0.54141 0.0
H1453 H 0.50871 0.47665 0.58477 0.0
H1454 H 0.47379 0.46895 0.55766 0.0
H1455 H 0.47817 0.49534 0.59674 0.0
H1456 H 0.45657 0.53336 0.54859 0.0
H1457 H 0.45273 0.50745 0.50921 0.0
H1458 H 0.47313 0.54154 0.50442 0.0
H1459 H 0.5799 0.5168 0.48705 0.0
H1460 H 0.56306 0.48058 0.43487 0.0
H1461 H 0.48022 0.4692 0.48095 0.0
C1462 C 0.51301 0.5539 0.58905 0.0
C1463 C 0.53453 0.57631 0.59908 0.0
C1464 C 0.56117 0.57632 0.58307 0.0
C1465 C 0.56554 0.555 0.5554 0.0
C1466 C 0.54312 0.53389 0.54469 0.0
C1467 C 0.51754 0.53304 0.56167 0.0
C1468 C 0.49552 0.51038 0.54289 0.0
C1469 C 0.48865 0.48641 0.57226 0.0
C1470 C 0.46788 0.52401 0.52523 0.0
C1471 C 0.51208 0.49926 0.51139 0.0
C1472 C 0.53969 0.51253 0.51315 0.0
C1473 C 0.55844 0.50615 0.48582 0.0
C1474 C 0.54868 0.4857 0.4562 0.0
C1475 C 0.5203 0.47237 0.45385 0.0
C1476 C 0.50196 0.47922 0.48192 0.0
H1477 H 0.03464 0.50066 0.95796 0.0
H1478 H 0.98579 0.56906 0.99692 0.0
H1479 H 0.96843 0.5375 0.04846 0.0
H1480 H 0.98526 0.43979 0.97748 0.0
H1481 H 0.01319 0.41687 0.99618 0.0
H1482 H 0.02049 0.44418 0.96041 0.0
H1483 H 0.06382 0.46615 1.00702 0.0
H1484 H 0.05671 0.43877 0.04277 0.0
H1485 H 0.05825 0.47654 0.05607 0.0
H1486 H 0.95533 0.49836 0.09437 0.0
H1487 H 0.95155 0.45587 0.13744 0.0
H1488 H 0.01268 0.41363 0.07419 0.0
C1489 C 0.02014 0.50877 0.97729 0.0
C1490 C 0.01 0.53673 0.97213 0.0
C1491 C 0.99192 0.54706 0.9986 0.0
C1492 C 0.98242 0.52941 1.02844 0.0
C1493 C 0.99189 0.50159 1.03204 0.0
C1494 C 0.01076 0.49141 1.00775 0.0
C1495 C 0.01873 0.46111 1.01958 0.0
C1496 C 0.00882 0.4392 0.98643 0.0
C1497 C 0.05131 0.46063 1.03212 0.0
C1498 C 0.00136 0.456 0.0542 0.0
C1499 C 0.98577 0.47954 0.06044 0.0
C1500 C 0.96759 0.47986 0.09002 0.0
C1501 C 0.96554 0.4556 0.11427 0.0
C1502 C 0.98191 0.43154 0.10922 0.0
C1503 C -4e-05 0.43174 0.07868 0.0
H1504 H 0.04902 0.1632 0.30106 0.0
H1505 H 0.12291 0.11932 0.27144 0.0
H1506 H 0.14783 0.13061 0.33748 0.0
H1507 H 0.08796 0.22099 0.35199 0.0
H1508 H 0.06538 0.2241 0.39101 0.0
H1509 H 0.0499 0.20983 0.3443 0.0
H1510 H 0.03047 0.16267 0.37286 0.0
H1511 H 0.04334 0.1766 0.421 0.0
H1512 H 0.05406 0.14215 0.40551 0.0
H1513 H 0.16522 0.14727 0.40849 0.0
H1514 H 0.17365 0.16934 0.47497 0.0
H1515 H 0.09045 0.20598 0.45643 0.0
C1516 C 0.07022 0.15544 0.30855 0.0
C1517 C 0.08368 0.13986 0.28059 0.0
C1518 C 0.11181 0.1309 0.29197 0.0
C1519 C 0.12624 0.13733 0.3296 0.0
C1520 C 0.11258 0.1531 0.35605 0.0
C1521 C 0.08514 0.16206 0.34594 0.0
C1522 C 0.07572 0.17975 0.3792 0.0
C1523 C 0.06943 0.21053 0.36578 0.0
C1524 C 0.04934 0.16437 0.39562 0.0
C1525 C 0.10236 0.18006 0.40906 0.0
C1526 C 0.12317 0.16401 0.39559 0.0
C1527 C 0.14909 0.16012 0.41895 0.0
C1528 C 0.15379 0.17281 0.45675 0.0
C1529 C 0.13313 0.19002 0.47082 0.0
C1530 C 0.1071 0.19363 0.44629 0.0
H1531 H 0.05027 0.87082 0.63149 0.0
H1532 H 0.1415 0.88628 0.67064 0.0
H1533 H 0.12938 0.90651 0.73299 0.0
H1534 H 0.02617 0.93522 0.67495 0.0
H1535 H 0.99342 0.91669 0.68829 0.0
H1536 H 0.00939 0.90493 0.64607 0.0
H1537 H 0.01122 0.85304 0.67457 0.0
H1538 H -0.00504 0.86465 0.71651 0.0
H1539 H 0.02891 0.84802 0.72318 0.0
H1540 H 0.10689 0.92357 0.79219 0.0
H1541 H 0.07609 0.93185 0.84491 0.0
H1542 H 2e-05 0.90556 0.76559 0.0
C1543 C 0.06769 0.8788 0.65299 0.0
C1544 C 0.0968 0.87712 0.64624 0.0
C1545 C 0.11903 0.8872 0.6754 0.0
C1546 C 0.11236 0.89896 0.7107 0.0
C1547 C 0.08338 0.90046 0.71633 0.0
C1548 C 0.06143 0.89044 0.68834 0.0
C1549 C 0.03208 0.89288 0.70229 0.0
C1550 C 0.01422 0.91368 0.67635 0.0
C1551 C 0.01586 0.86287 0.70427 0.0
C1552 C 0.04092 0.90551 0.7427 0.0
C1553 C 0.07055 0.91007 0.75023 0.0
C1554 C 0.08364 0.92032 0.7865 0.0
C1555 C 0.06599 0.92512 0.8162 0.0
C1556 C 0.03567 0.91941 0.80937 0.0
C1557 C 0.02311 0.91029 0.77176 0.0
H1558 H 0.40325 0.83328 0.12238 0.0
H1559 H 0.37473 0.74274 0.10256 0.0
H1560 H 0.37653 0.74917 1.03196 0.0
H1561 H 0.36289 0.85921 1.02889 0.0
H1562 H 0.39087 0.88654 1.02027 0.0
H1563 H 0.38524 0.87623 0.0697 0.0
H1564 H 0.43903 0.86335 0.08369 0.0
H1565 H 0.44382 0.87586 1.03496 0.0
H1566 H 0.45343 0.84025 0.04946 0.0
H1567 H 0.38604 0.76307 0.96403 0.0
H1568 H 0.39914 0.78469 0.90229 0.0
H1569 H 0.42091 0.86731 0.96145 0.0
C1570 C 0.39682 0.81498 0.10309 0.0
C1571 C 0.38889 0.78732 0.11884 0.0
C1572 C 0.38108 0.76405 0.09206 0.0
C1573 C 0.38181 0.76753 0.05149 0.0
C1574 C 0.39041 0.79458 1.03709 0.0
C1575 C 0.39745 0.81813 0.06183 0.0
C1576 C 0.40675 0.84457 0.03796 0.0
C1577 C 0.38515 0.86803 0.03929 0.0
C1578 C 0.43756 0.85666 0.05245 0.0
C1579 C 0.40528 0.83168 0.99664 0.0
C1580 C 0.39556 0.80283 0.99708 0.0
C1581 C 0.39336 0.78575 0.96332 0.0
C1582 C 0.40114 0.79826 0.92821 0.0
C1583 C 0.41123 0.82783 0.9263 0.0
C1584 C 0.413 0.84477 0.96134 0.0
H1585 H 0.49584 0.10381 0.27365 0.0
H1586 H 0.42717 0.05204 0.32217 0.0
H1587 H 0.39481 0.05954 0.26148 0.0
H1588 H 0.4521 0.15651 0.23118 0.0
H1589 H 0.47144 0.16177 0.18874 0.0
H1590 H 0.48988 0.14995 0.23409 0.0
H1591 H 0.50561 0.10509 0.19921 0.0
H1592 H 0.48748 0.11684 0.15355 0.0
H1593 H 0.47867 0.08114 0.17182 0.0
H1594 H 0.36929 0.07521 0.1963 0.0
H1595 H 0.35317 0.09644 0.13234 0.0
H1596 H 0.4384 0.13971 0.12893 0.0
C1597 C 0.47419 0.09347 0.27143 0.0
C1598 C 0.46417 0.07705 0.30272 0.0
C1599 C 0.43547 0.06446 0.29855 0.0
C1600 C 0.41691 0.06869 0.26421 0.0
C1601 C 0.42736 0.08562 0.2344 0.0
C1602 C 0.45541 0.09769 0.23771 0.0
C1603 C 0.4611 0.11626 0.2026 0.0
C1604 C 0.46909 0.148 0.2149 0.0
C1605 C 0.4846 0.10409 0.18049 0.0
C1606 C 0.43181 0.11287 0.17887 0.0
C1607 C 0.41264 0.09507 0.19759 0.0
C1608 C 0.38417 0.08914 0.18144 0.0
C1609 C 0.37514 0.10156 0.14519 0.0
C1610 C 0.39444 0.11989 0.12541 0.0
C1611 C 0.42314 0.12553 0.14281 0.0
H1612 H 0.84891 0.75173 0.52928 0.0
H1613 H 0.81022 0.81909 0.45746 0.0
H1614 H 0.82063 0.85334 0.51319 0.0
H1615 H 0.82465 0.7731 0.62205 0.0
H1616 H 0.85782 0.76433 0.64996 0.0
H1617 H 0.84515 0.74484 0.60538 0.0
H1618 H 0.89404 0.75837 0.57848 0.0
H1619 H 0.90674 0.7783 0.62266 0.0
H1620 H 0.90667 0.79594 0.57579 0.0
H1621 H 0.83828 0.88103 0.57574 0.0
H1622 H 0.85917 0.89928 0.64088 0.0
H1623 H 0.88634 0.81358 0.67142 0.0
C1624 C 0.84205 0.77351 0.52533 0.0
C1625 C 0.82853 0.78262 0.4889 0.0
C1626 C 0.82037 0.81148 0.48507 0.0
C1627 C 0.82632 0.83114 0.51655 0.0
C1628 C 0.84043 0.8216 0.55164 0.0
C1629 C 0.84795 0.79338 0.55627 0.0
C1630 C 0.86386 0.78876 0.59641 0.0
C1631 C 0.84684 0.76644 0.61983 0.0
C1632 C 0.89465 0.77982 0.59311 0.0
C1633 C 0.8643 0.81887 0.6137 0.0
C1634 C 0.85067 0.8375 0.58744 0.0
C1635 C 0.84872 0.86654 0.59664 0.0
C1636 C 0.86061 0.87668 0.6338 0.0
C1637 C 0.8743 0.85788 0.6615 0.0
C1638 C 0.87629 0.82863 0.65093 0.0
H1639 H 0.93742 0.16133 0.54023 0.0
H1640 H 0.85223 0.19449 0.52432 0.0
H1641 H 0.85404 0.19519 0.45279 0.0
H1642 H 0.96703 0.20184 0.46371 0.0
H1643 H 0.9874 0.17299 0.44846 0.0
H1644 H 0.97972 0.17523 0.49863 0.0
H1645 H 0.9557 0.12295 0.49448 0.0
H1646 H 0.96374 0.12032 0.44455 0.0
H1647 H 0.9271 0.11364 0.45608 0.0
H1648 H 0.86594 0.19418 0.38362 0.0
H1649 H 0.88499 0.18713 0.32049 0.0
H1650 H 0.96033 0.15021 0.38159 0.0
C1651 C 0.9189 0.16819 0.52167 0.0
C1652 C 0.89469 0.17787 0.53777 0.0
C1653 C 0.87113 0.18726 0.51255 0.0
C1654 C 0.87195 0.18774 0.47195 0.0
C1655 C 0.89635 0.17853 0.4571 0.0
C1656 C 0.91924 0.16859 0.48108 0.0
C1657 C 0.9427 0.15948 0.45758 0.0
C1658 C 0.97087 0.17852 0.4677 0.0
C1659 C 0.94758 0.12717 0.46352 0.0
C1660 C 0.92916 0.1654 0.41659 0.0
C1661 C 0.90269 0.17686 0.41701 0.0
C1662 C 0.88646 0.18481 0.38279 0.0
C1663 C 0.89739 0.18044 0.34702 0.0
C1664 C 0.92405 0.16771 0.34568 0.0
C1665 C 0.94008 0.1603 0.3812 0.0
H1666 H 0.64233 0.23115 0.06276 0.0
H1667 H 0.70278 0.17167 1.02724 0.0
H1668 H 0.69644 0.14244 0.08631 0.0
H1669 H 0.6631 0.22693 0.16892 0.0
H1670 H 0.62641 0.22867 0.18008 0.0
H1671 H 0.63793 0.24626 0.13699 0.0
H1672 H 0.59638 0.21764 0.09435 0.0
H1673 H 0.58499 0.19954 0.13711 0.0
H1674 H 0.59357 0.17864 0.09622 0.0
H1675 H 0.68035 0.11747 0.14586 0.0
H1676 H 0.65835 0.10018 0.20454 0.0
H1677 H 0.60858 0.17612 0.20162 0.0
C1678 C 0.65479 0.21236 0.06775 0.0
C1679 C 0.67318 0.20379 0.04035 0.0
C1680 C 0.6887 0.17879 0.04785 0.0
C1681 C 0.68516 0.16198 0.08128 0.0
C1682 C 0.66612 0.17053 0.10694 0.0
C1683 C 0.65145 0.19531 0.10084 0.0
C1684 C 0.63132 0.19904 0.132 0.0
C1685 C 0.64024 0.22688 0.15592 0.0
C1686 C 0.5997 0.19869 0.11382 0.0
C1687 C 0.6367 0.17225 0.15636 0.0
C1688 C 0.65687 0.15614 0.14139 0.0
C1689 C 0.66485 0.13011 0.15819 0.0
C1690 C 0.65227 0.12051 0.19158 0.0
C1691 C 0.63193 0.1369 0.20797 0.0
C1692 C 0.62393 0.163 0.18975 0.0
H1693 H 0.58283 0.85507 0.71947 0.0
H1694 H 0.54322 0.93565 0.73003 0.0
H1695 H 0.57074 0.94445 0.79425 0.0
H1696 H 0.57594 0.82954 0.79416 0.0
H1697 H 0.60923 0.81386 0.81306 0.0
H1698 H 0.6018 0.82015 0.76168 0.0
H1699 H 0.64777 0.85296 0.75901 0.0
H1700 H 0.65758 0.84537 0.81009 0.0
H1701 H 0.65638 0.8823 0.79361 0.0
H1702 H 0.58355 0.93428 0.86314 0.0
H1703 H 0.58725 0.91027 0.92706 0.0
H1704 H 0.62044 0.83585 0.87531 0.0
C1705 C 0.58229 0.87578 0.73384 0.0
C1706 C 0.56137 0.89486 0.71976 0.0
C1707 C 0.55969 0.92113 0.73996 0.0
C1708 C 0.5752 0.9262 0.77678 0.0
C1709 C 0.5931 0.90523 0.79244 0.0
C1710 C 0.5982 0.88126 0.77066 0.0
C1711 C 0.61387 0.8595 0.79678 0.0
C1712 C 0.59932 0.82889 0.79114 0.0
C1713 C 0.6458 0.86008 0.78944 0.0
C1714 C 0.61098 0.87186 0.83698 0.0
C1715 C 0.60075 0.89917 0.83372 0.0
C1716 C 0.59275 0.91347 0.86616 0.0
C1717 C 0.5948 0.89951 0.90253 0.0
C1718 C 0.60431 0.87113 0.90648 0.0
C1719 C 0.61318 0.85755 0.87329 0.0
H1720 H 0.53407 0.63771 0.81272 0.0
H1721 H 0.60474 0.681 0.7578 0.0
H1722 H 0.62427 0.70305 0.82072 0.0
H1723 H 0.52437 0.69156 0.88474 0.0
H1724 H 0.52042 0.66671 0.92442 0.0
H1725 H 0.51046 0.65485 0.87454 0.0
H1726 H 0.54446 0.61334 0.88534 0.0
H1727 H 0.55443 0.62518 0.93523 0.0
H1728 H 0.58194 0.62147 0.9029 0.0
H1729 H 0.63511 0.72391 0.8884 0.0
H1730 H 0.64056 0.73594 0.95919 0.0
H1731 H 0.56798 0.67524 0.97559 0.0
C1732 C 0.55378 0.65161 0.81408 0.0
C1733 C 0.5677 0.65742 0.7796 0.0
C1734 C 0.5936 0.6757 0.78324 0.0
C1735 C 0.60486 0.6887 0.81905 0.0
C1736 C 0.59077 0.68276 0.85217 0.0
C1737 C 0.56624 0.66402 0.8505 0.0
C1738 C 0.55711 0.65968 0.89178 0.0
C1739 C 0.52627 0.66876 0.89397 0.0
C1740 C 0.55964 0.62803 0.90456 0.0
C1741 C 0.57958 0.67985 0.91617 0.0
C1742 C 0.59859 0.69306 0.89241 0.0
C1743 C 0.62065 0.7133 0.90742 0.0
C1744 C 0.62367 0.72003 0.94774 0.0
C1745 C 0.60526 0.70616 0.9732 0.0
C1746 C 0.58284 0.68578 0.95701 0.0
H1747 H 0.535 0.39553 0.26477 0.0
H1748 H 0.61391 0.39616 0.34436 0.0
H1749 H 0.64041 0.38187 0.28965 0.0
H1750 H 0.54615 0.33349 0.21273 0.0
H1751 H 0.53096 0.34629 0.1659 0.0
H1752 H 0.51893 0.35941 0.21024 0.0
H1753 H 0.53201 0.41227 0.19028 0.0
H1754 H 0.54382 0.39939 0.1456 0.0
H1755 H 0.56802 0.42246 0.1784 0.0
H1756 H 0.65722 0.36341 0.227 0.0
H1757 H 0.66367 0.34565 0.16083 0.0
H1758 H 0.57332 0.35663 0.12349 0.0
C1759 C 0.55798 0.39326 0.27074 0.0
C1760 C 0.57238 0.39708 0.30895 0.0
C1761 C 0.60242 0.39358 0.31533 0.0
C1762 C 0.61764 0.38534 0.28445 0.0
C1763 C 0.60251 0.38086 0.24741 0.0
C1764 C 0.5734 0.38503 0.24041 0.0
C1765 C 0.56177 0.37767 0.19851 0.0
C1766 C 0.53806 0.35273 0.19677 0.0
C1767 C 0.55077 0.40456 0.17693 0.0
C1768 C 0.58882 0.36832 0.18302 0.0
C1769 C 0.61211 0.37031 0.2116 0.0
C1770 C 0.63917 0.36199 0.20434 0.0
C1771 C 0.64257 0.3517 0.16679 0.0
C1772 C 0.61903 0.34984 0.13696 0.0
C1773 C 0.59184 0.35821 0.14546 0.0
H1774 H 0.95152 0.29257 0.43846 0.0
H1775 H 0.93095 0.38265 0.43454 0.0
H1776 H 0.91938 0.37947 0.50254 0.0
H1777 H 0.89491 0.2672 0.49982 0.0
H1778 H 0.91682 0.24243 0.52807 0.0
H1779 H 0.92348 0.25076 0.47843 0.0
H1780 H 0.97673 0.26686 0.50209 0.0
H1781 H 0.96975 0.25778 0.55136 0.0
H1782 H 0.9845 0.2936 0.54059 0.0
H1783 H 0.91057 0.36797 0.57179 0.0
H1784 H 0.90567 0.34892 0.63782 0.0
H1785 H 0.93068 0.26542 0.60157 0.0
C1786 C 0.94464 0.31167 0.45189 0.0
C1787 C 0.94192 0.33793 0.4299 0.0
C1788 C 0.93274 0.36212 0.44943 0.0
C1789 C 0.92621 0.36059 0.48855 0.0
C1790 C 0.92872 0.33461 0.50895 0.0
C1791 C 0.93769 0.31045 0.49147 0.0
C1792 C 0.93846 0.2853 0.52088 0.0
C1793 C 0.91714 0.25993 0.50588 0.0
C1794 C 0.96921 0.27531 0.52921 0.0
C1795 C 0.92882 0.29931 0.55744 0.0
C1796 C 0.92335 0.3278 0.5495 0.0
C1797 C 0.91474 0.34565 0.57818 0.0
C1798 C 0.91196 0.33451 0.61594 0.0
C1799 C 0.91756 0.30548 0.62573 0.0
C1800 C 0.9259 0.28759 0.59548 0.0
H1801 H 0.97951 0.61976 0.77234 0.0
H1802 H 0.91968 0.5542 0.81489 0.0
H1803 H 0.88702 0.55818 0.75348 0.0
H1804 H 0.92582 0.66423 0.73138 0.0
H1805 H 0.94501 0.67575 0.69059 0.0
H1806 H 0.9647 0.66565 0.73598 0.0
H1807 H 0.99029 0.62771 0.69938 0.0
H1808 H 0.97089 0.63784 0.65376 0.0
H1809 H 0.96891 0.60059 0.66927 0.0
H1810 H 0.86051 0.57068 0.68782 0.0
H1811 H 0.84209 0.5905 0.62392 0.0
H1812 H 0.91823 0.65035 0.62766 0.0
C1813 C 0.95989 0.60566 0.76841 0.0
C1814 C 0.95233 0.58622 0.798 0.0
C1815 C 0.92598 0.56896 0.79231 0.0
C1816 C 0.90733 0.57114 0.75761 0.0
C1817 C 0.91523 0.59097 0.72932 0.0
C1818 C 0.94088 0.60797 0.73449 0.0
C1819 C 0.9436 0.62898 0.70105 0.0
C1820 C 0.94485 0.66051 0.71563 0.0
C1821 C 0.96998 0.62343 0.6796 0.0
C1822 C 0.91562 0.62091 0.67582 0.0
C1823 C 0.89955 0.59894 0.69255 0.0
C1824 C 0.87288 0.58794 0.67454 0.0
C1825 C 0.86248 0.59956 0.63837 0.0
C1826 C 0.87862 0.62209 0.62064 0.0
C1827 C 0.90548 0.6329 0.63999 0.0
H1828 H 0.42086 0.31624 0.1733 0.0
H1829 H 0.39834 0.40323 0.14145 0.0
H1830 H 0.37795 0.38559 0.07583 0.0
H1831 H 0.44197 0.29693 0.07871 0.0
H1832 H 0.4275 0.25993 0.08114 0.0
H1833 H 0.44033 0.27956 0.12554 0.0
H1834 H 0.39061 0.26842 0.15143 0.0
H1835 H 0.37756 0.24903 0.10691 0.0
H1836 H 0.35833 0.2786 0.12259 0.0
H1837 H 0.3598 0.35838 1.01339 0.0
H1838 H 0.34727 0.32405 0.95819 0.0
H1839 H 0.38175 0.25492 1.03078 0.0
C1840 C 0.41195 0.33166 0.1524 0.0
C1841 C 0.41109 0.36114 0.16274 0.0
C1842 C 0.39888 0.38048 0.13453 0.0
C1843 C 0.38732 0.37069 0.09709 0.0
C1844 C 0.38811 0.34145 0.08811 0.0
C1845 C 0.40027 0.32224 0.11486 0.0
C1846 C 0.39852 0.29194 0.09773 0.0
C1847 C 0.42888 0.28148 0.09565 0.0
C1848 C 0.38016 0.27076 0.12106 0.0
C1849 C 0.38349 0.29713 0.0572 0.0
C1850 C 0.37763 0.32581 0.05223 0.0
C1851 C 0.36425 0.33585 1.01698 0.0
C1852 C 0.35712 0.31614 0.9858 0.0
C1853 C 0.36335 0.28671 0.99004 0.0
C1854 C 0.37642 0.27718 1.02651 0.0
H1855 H 0.4381 0.65561 0.03802 0.0
H1856 H 0.34674 0.62985 1.03406 0.0
H1857 H 0.34455 0.62115 0.9627 0.0
H1858 H 0.43514 0.69281 0.94795 0.0
H1859 H 0.46843 0.68083 0.93378 0.0
H1860 H 0.46357 0.68394 0.98489 0.0
H1861 H 0.47451 0.63049 0.99622 0.0
H1862 H 0.48006 0.62702 0.94539 0.0
H1863 H 0.45422 0.60253 0.96633 0.0
H1864 H 0.35139 0.61987 0.89159 0.0
H1865 H 0.36763 0.62024 0.82591 0.0
H1866 H 0.45584 0.64181 0.87731 0.0
C1867 C 0.41776 0.64781 1.02208 0.0
C1868 C 0.39257 0.64327 0.04122 0.0
C1869 C 0.36627 0.6331 1.01974 0.0
C1870 C 0.36481 0.6283 0.9793 0.0
C1871 C 0.38994 0.63342 0.96111 0.0
C1872 C 0.41604 0.64244 0.98185 0.0
C1873 C 0.43984 0.6462 0.95523 0.0
C1874 C 0.45248 0.67782 0.95549 0.0
C1875 C 0.46355 0.6253 0.96646 0.0
C1876 C 0.42293 0.63806 0.91621 0.0
C1877 C 0.39416 0.63115 0.92023 0.0
C1878 C 0.37401 0.62454 0.88811 0.0
C1879 C 0.38357 0.62456 0.85083 0.0
C1880 C 0.41321 0.63054 0.84593 0.0
C1881 C 0.43301 0.63738 0.87941 0.0
H1882 H 0.11979 0.74391 0.56319 0.0
H1883 H 0.18048 0.68781 0.52046 0.0
H1884 H 0.17501 0.6553 0.57675 0.0
H1885 H 0.14208 0.73563 0.66706 0.0
H1886 H 0.10575 0.73578 0.68025 0.0
H1887 H 0.11563 0.75522 0.63764 0.0
H1888 H 0.07388 0.72679 0.59501 0.0
H1889 H 0.06406 0.70703 0.63738 0.0
H1890 H 0.07205 0.68776 0.59474 0.0
H1891 H 0.16134 0.62786 0.6362 0.0
H1892 H 0.14198 0.60838 0.69573 0.0
H1893 H 0.09035 0.68256 0.69984 0.0
C1894 C 0.13229 0.72502 0.56587 0.0
C1895 C 0.15071 0.71852 0.5374 0.0
C1896 C 0.16633 0.69334 0.54189 0.0
C1897 C 0.16331 0.6747 0.57374 0.0
C1898 C 0.14456 0.6815 0.60082 0.0
C1899 C 0.12943 0.70613 0.59732 0.0
C1900 C 0.11012 0.70812 0.62987 0.0
C1901 C 0.11894 0.73529 0.65521 0.0
C1902 C 0.07814 0.70737 0.61324 0.0
C1903 C 0.11676 0.68073 0.65229 0.0
C1904 C 0.13665 0.66568 0.63501 0.0
C1905 C 0.14594 0.63959 0.65016 0.0
C1906 C 0.13489 0.62876 0.68411 0.0
C1907 C 0.11476 0.64398 0.70274 0.0
C1908 C 0.1055 0.67023 0.68623 0.0
H1909 H 0.06101 0.41328 0.24362 0.0
H1910 H 0.10312 0.35557 0.17296 0.0
H1911 H 0.14034 0.34921 0.22844 0.0
H1912 H 0.12786 0.43857 0.31775 0.0
H1913 H 0.10458 0.43667 0.35642 0.0
H1914 H 0.09091 0.44781 0.30798 0.0
H1915 H 0.04935 0.40772 0.30783 0.0
H1916 H 0.06321 0.39564 0.35518 0.0
H1917 H 0.05794 0.37052 0.31459 0.0
H1918 H 0.15893 0.33322 0.2956 0.0
H1919 H 0.16296 0.31688 0.36449 0.0
H1920 H 0.10629 0.38218 0.3926 0.0
C1921 C 0.07912 0.40068 0.23929 0.0
C1922 C 0.07924 0.38479 0.20436 0.0
C1923 C 0.10288 0.36825 0.19938 0.0
C1924 C 0.12394 0.36429 0.23106 0.0
C1925 C 0.12064 0.37675 0.26725 0.0
C1926 C 0.09926 0.3955 0.27111 0.0
C1927 C 0.09594 0.40133 0.3137 0.0
C1928 C 0.1054 0.43298 0.32461 0.0
C1929 C 0.0648 0.39329 0.32333 0.0
C1930 C 0.1169 0.38102 0.33327 0.0
C1931 C 0.13153 0.36751 0.30627 0.0
C1932 C 0.14853 0.34456 0.3171 0.0
C1933 C 0.1504 0.33515 0.35619 0.0
C1934 C 0.13516 0.34853 0.38393 0.0
C1935 C 0.11888 0.37217 0.37232 0.0
loop_
_geom_bond_atom_site_label_1
_geom_bond_atom_site_label_2
_geom_bond_distance
_geom_bond_site_symmetry_2
_ccdc_geom_bond_type
Sm0 C2 2.846 . S
Sm0 O20 2.543 . S
Sm0 O21 2.450 . S
Sm0 O22 2.692 . S
Sm0 O23 2.464 . S
Sm0 O24 2.396 1_455 S
Sm0 O28 2.386 . S
Sm0 O31 2.408 . S
Sm1 C11 2.846 . S
Sm1 O22 2.378 1_655 S
Sm1 O25 2.408 . S
Sm1 O26 2.543 . S
Sm1 O27 2.450 . S
Sm1 O28 2.681 1_655 S
Sm1 O29 2.464 . S
Sm1 O30 2.396 1_655 S
C2 Sm0 2.846 . S
C2 C3 1.506 1_554 S
C2 O20 1.261 . S
C2 O21 1.242 . S
C3 C2 1.506 1_556 S
C3 C4 1.358 . S
C3 C8 1.382 . S
C4 C3 1.358 . S
C4 C5 1.385 . S
C4 H32 0.930 . S
C5 C4 1.385 . S
C5 C6 1.395 . S
C5 H33 0.929 . S
C6 C5 1.395 . S
C6 C7 1.335 . S
C7 C6 1.335 . S
C7 C8 1.398 . S
C7 H34 0.930 . S
C8 C3 1.382 . S
C8 C7 1.398 . S
C8 H35 0.929 . S
C9 O22 1.276 . S
C9 O23 1.251 . S
C10 O24 1.252 . S
C10 O25 1.272 . S
C11 Sm1 2.846 . S
C11 C12 1.506 . S
C11 O26 1.261 . S
C11 O27 1.242 . S
C12 C11 1.506 . S
C12 C13 1.358 . S
C12 C17 1.382 . S
C13 C12 1.358 . S
C13 C14 1.385 . S
C13 H36 0.930 . S
C14 C13 1.385 . S
C14 C15 1.395 . S
C14 H37 0.929 . S
C15 C14 1.395 . S
C15 C16 1.335 . S
C16 C15 1.335 . S
C16 C17 1.398 . S
C16 H38 0.930 . S
C17 C12 1.382 . S
C17 C16 1.398 . S
C17 H39 0.929 . S
C18 O28 1.271 1_655 S
C18 O29 1.251 . S
C19 O30 1.252 . S
C19 O31 1.272 . S
O20 Sm0 2.543 . S
O20 C2 1.261 . S
O21 Sm0 2.450 . S
O21 C2 1.242 . S
O22 Sm0 2.692 . S
O22 Sm1 2.378 1_455 S
O22 C9 1.276 . S
O23 Sm0 2.464 . S
O23 C9 1.251 . S
O24 Sm0 2.396 1_655 S
O24 C10 1.252 . S
O25 Sm1 2.408 . S
O25 C10 1.272 . S
O26 Sm1 2.543 . S
O26 C11 1.261 . S
O27 Sm1 2.450 . S
O27 C11 1.242 . S
O28 Sm0 2.386 . S
O28 Sm1 2.681 1_455 S
O28 C18 1.271 1_455 S
O29 Sm1 2.464 . S
O29 C18 1.251 . S
O30 Sm1 2.396 1_455 S
O30 C19 1.252 . S
O31 Sm0 2.408 . S
O31 C19 1.272 . S
H32 C4 0.930 . S
H33 C5 0.929 . S
H34 C7 0.930 . S
H35 C8 0.929 . S
H36 C13 0.930 . S
H37 C14 0.929 . S
H38 C16 0.930 . S
H39 C17 0.929 . S
Sm40 C42 2.846 . S
Sm40 O60 2.543 . S
Sm40 O61 2.450 . S
Sm40 O62 2.681 . S
Sm40 O63 2.464 . S
Sm40 O64 2.396 . S
Sm40 O68 2.386 . S
Sm40 O71 2.408 . S
Sm41 C51 2.846 . S
Sm41 O62 2.386 . S
Sm41 O65 2.408 . S
Sm41 O66 2.543 . S
Sm41 O67 2.450 . S
Sm41 O68 2.681 . S
Sm41 O69 2.464 . S
Sm41 O70 2.396 . S
C42 Sm40 2.846 . S
C42 C43 1.506 . S
C42 O60 1.261 . S
C42 O61 1.242 . S
C43 C42 1.506 . S
C43 C44 1.358 . S
C43 C48 1.382 . S
C44 C43 1.358 . S
C44 C45 1.385 . S
C44 H72 0.930 . S
C45 C44 1.385 . S
C45 C46 1.395 . S
C45 H73 0.929 . S
C46 C45 1.395 . S
C46 C47 1.335 . S
C47 C46 1.335 . S
C47 C48 1.398 . S
C47 H74 0.930 . S
C48 C43 1.382 . S
C48 C47 1.398 . S
C48 H75 0.929 . S
C49 O62 1.271 . S
C49 O63 1.251 . S
C50 O64 1.252 . S
C50 O65 1.272 . S
C51 Sm41 2.846 . S
C51 C52 1.506 . S
C51 O66 1.261 . S
C51 O67 1.242 . S
C52 C51 1.506 . S
C52 C53 1.358 . S
C52 C57 1.382 . S
C53 C52 1.358 . S
C53 C54 1.385 . S
C53 H76 0.930 . S
C54 C53 1.385 . S
C54 C55 1.395 . S
C54 H77 0.929 . S
C55 C54 1.395 . S
C55 C56 1.335 . S
C56 C55 1.335 . S
C56 C57 1.398 . S
C56 H78 0.930 . S
C57 C52 1.382 . S
C57 C56 1.398 . S
C57 H79 0.929 . S
C58 O68 1.271 . S
C58 O69 1.251 . S
C59 O70 1.252 . S
C59 O71 1.272 . S
O60 Sm40 2.543 . S
O60 C42 1.261 . S
O61 Sm40 2.450 . S
O61 C42 1.242 . S
O62 Sm40 2.681 . S
O62 Sm41 2.386 . S
O62 C49 1.271 . S
O63 Sm40 2.464 . S
O63 C49 1.251 . S
O64 Sm40 2.396 . S
O64 C50 1.252 . S
O65 Sm41 2.408 . S
O65 C50 1.272 . S
O66 Sm41 2.543 . S
O66 C51 1.261 . S
O67 Sm41 2.450 . S
O67 C51 1.242 . S
O68 Sm40 2.386 . S
O68 Sm41 2.681 . S
O68 C58 1.271 . S
O69 Sm41 2.464 . S
O69 C58 1.251 . S
O70 Sm41 2.396 . S
O70 C59 1.252 . S
O71 Sm40 2.408 . S
O71 C59 1.272 . S
H72 C44 0.930 . S
H73 C45 0.929 . S
H74 C47 0.930 . S
H75 C48 0.929 . S
H76 C53 0.930 . S
H77 C54 0.929 . S
H78 C56 0.930 . S
H79 C57 0.929 . S
Sm80 C82 2.846 . S
Sm80 O100 2.543 . S
Sm80 O101 2.450 . S
Sm80 O102 2.681 . S
Sm80 O103 2.464 . S
Sm80 O104 2.396 . S
Sm80 O108 2.386 . S
Sm80 O111 2.408 . S
Sm81 C91 2.846 . S
Sm81 O102 2.386 . S
Sm81 O105 2.408 . S
Sm81 O106 2.543 . S
Sm81 O107 2.450 . S
Sm81 O108 2.681 . S
Sm81 O109 2.464 . S
Sm81 O110 2.396 . S
C82 Sm80 2.846 . S
C82 C83 1.506 . S
C82 O100 1.261 . S
C82 O101 1.242 . S
C83 C82 1.506 . S
C83 C84 1.358 . S
C83 C88 1.382 . S
C84 C83 1.358 . S
C84 C85 1.385 . S
C84 H112 0.930 . S
C85 C84 1.385 . S
C85 C86 1.395 . S
C85 H113 0.929 . S
C86 C85 1.395 . S
C86 C87 1.335 . S
C87 C86 1.335 . S
C87 C88 1.398 . S
C87 H114 0.930 . S
C88 C83 1.382 . S
C88 C87 1.398 . S
C88 H115 0.929 . S
C89 O102 1.271 . S
C89 O103 1.251 . S
C90 O104 1.252 . S
C90 O105 1.272 . S
C91 Sm81 2.846 . S
C91 C92 1.506 . S
C91 O106 1.261 . S
C91 O107 1.242 . S
C92 C91 1.506 . S
C92 C93 1.358 . S
C92 C97 1.382 . S
C93 C92 1.358 . S
C93 C94 1.385 . S
C93 H116 0.930 . S
C94 C93 1.385 . S
C94 C95 1.395 . S
C94 H117 0.929 . S
C95 C94 1.395 . S
C95 C96 1.335 . S
C96 C95 1.335 . S
C96 C97 1.398 . S
C96 H118 0.930 . S
C97 C92 1.382 . S
C97 C96 1.398 . S
C97 H119 0.929 . S
C98 O108 1.271 . S
C98 O109 1.251 . S
C99 O110 1.252 . S
C99 O111 1.272 . S
O100 Sm80 2.543 . S
O100 C82 1.261 . S
O101 Sm80 2.450 . S
O101 C82 1.242 . S
O102 Sm80 2.681 . S
O102 Sm81 2.386 . S
O102 C89 1.271 . S
O103 Sm80 2.464 . S
O103 C89 1.251 . S
O104 Sm80 2.396 . S
O104 C90 1.252 . S
O105 Sm81 2.408 . S
O105 C90 1.272 . S
O106 Sm81 2.543 . S
O106 C91 1.261 . S
O107 Sm81 2.450 . S
O107 C91 1.242 . S
O108 Sm80 2.386 . S
O108 Sm81 2.681 . S
O108 C98 1.271 . S
O109 Sm81 2.464 . S
O109 C98 1.251 . S
O110 Sm81 2.396 . S
O110 C99 1.252 . S
O111 Sm80 2.408 . S
O111 C99 1.272 . S
H112 C84 0.930 . S
H113 C85 0.929 . S
H114 C87 0.930 . S
H115 C88 0.929 . S
H116 C93 0.930 . S
H117 C94 0.929 . S
H118 C96 0.930 . S
H119 C97 0.929 . S
Sm120 C122 2.846 . S
Sm120 O140 2.543 . S
Sm120 O141 2.450 . S
Sm120 O142 2.681 . S
Sm120 O143 2.464 . S
Sm120 O144 2.396 . S
Sm120 O148 2.386 . S
Sm120 O151 2.408 . S
Sm121 C131 2.846 . S
Sm121 O142 2.386 . S
Sm121 O145 2.408 . S
Sm121 O146 2.543 . S
Sm121 O147 2.450 . S
Sm121 O148 2.681 . S
Sm121 O149 2.464 . S
Sm121 O150 2.396 . S
C122 Sm120 2.846 . S
C122 C123 1.506 . S
C122 O140 1.261 . S
C122 O141 1.242 . S
C123 C122 1.506 . S
C123 C124 1.358 1_556 S
C123 C128 1.382 . S
C124 C123 1.358 1_554 S
C124 C125 1.385 . S
C124 H152 0.930 . S
C125 C124 1.385 . S
C125 C126 1.395 . S
C125 H153 0.929 . S
C126 C125 1.395 . S
C126 C127 1.335 . S
C127 C126 1.335 . S
C127 C128 1.398 1_554 S
C127 H154 0.930 . S
C128 C123 1.382 . S
C128 C127 1.398 1_556 S
C128 H155 0.929 . S
C129 O142 1.271 . S
C129 O143 1.251 . S
C130 O144 1.252 . S
C130 O145 1.272 . S
C131 Sm121 2.846 . S
C131 C132 1.506 . S
C131 O146 1.261 . S
C131 O147 1.242 . S
C132 C131 1.506 . S
C132 C133 1.358 . S
C132 C137 1.382 . S
C133 C132 1.358 . S
C133 C134 1.385 . S
C133 H156 0.930 . S
C134 C133 1.385 . S
C134 C135 1.395 . S
C134 H157 0.929 . S
C135 C134 1.395 . S
C135 C136 1.335 . S
C136 C135 1.335 . S
C136 C137 1.398 . S
C136 H158 0.930 . S
C137 C132 1.382 . S
C137 C136 1.398 . S
C137 H159 0.929 . S
C138 O148 1.271 . S
C138 O149 1.251 . S
C139 O150 1.252 . S
C139 O151 1.272 . S
O140 Sm120 2.543 . S
O140 C122 1.261 . S
O141 Sm120 2.450 . S
O141 C122 1.242 . S
O142 Sm120 2.681 . S
O142 Sm121 2.386 . S
O142 C129 1.271 . S
O143 Sm120 2.464 . S
O143 C129 1.251 . S
O144 Sm120 2.396 . S
O144 C130 1.252 . S
O145 Sm121 2.408 . S
O145 C130 1.272 . S
O146 Sm121 2.543 . S
O146 C131 1.261 . S
O147 Sm121 2.450 . S
O147 C131 1.242 . S
O148 Sm120 2.386 . S
O148 Sm121 2.681 . S
O148 C138 1.271 . S
O149 Sm121 2.464 . S
O149 C138 1.251 . S
O150 Sm121 2.396 . S
O150 C139 1.252 . S
O151 Sm120 2.408 . S
O151 C139 1.272 . S
H152 C124 0.930 . S
H153 C125 0.929 . S
H154 C127 0.930 . S
H155 C128 0.929 . S
H156 C133 0.930 . S
H157 C134 0.929 . S
H158 C136 0.930 . S
H159 C137 0.929 . S
Sm160 C162 2.846 . S
Sm160 O180 2.543 . S
Sm160 O181 2.450 . S
Sm160 O182 2.681 . S
Sm160 O183 2.464 . S
Sm160 O184 2.396 . S
Sm160 O188 2.386 . S
Sm160 O191 2.408 . S
Sm161 C171 2.846 . S
Sm161 O182 2.386 1_655 S
Sm161 O185 2.408 . S
Sm161 O186 2.543 . S
Sm161 O187 2.450 . S
Sm161 O188 2.681 1_655 S
Sm161 O189 2.464 . S
Sm161 O190 2.396 1_655 S
C162 Sm160 2.846 . S
C162 C163 1.506 1_556 S
C162 O180 1.261 . S
C162 O181 1.242 . S
C163 C162 1.506 1_554 S
C163 C164 1.358 . S
C163 C168 1.382 . S
C164 C163 1.358 . S
C164 C165 1.385 . S
C164 H192 0.930 . S
C165 C164 1.385 . S
C165 C166 1.395 . S
C165 H193 0.929 . S
C166 C165 1.395 . S
C166 C167 1.335 . S
C167 C166 1.335 . S
C167 C168 1.398 . S
C167 H194 0.930 . S
C168 C163 1.382 . S
C168 C167 1.398 . S
C168 H195 0.929 . S
C169 O182 1.271 . S
C169 O183 1.251 . S
C170 O184 1.252 1_655 S
C170 O185 1.272 . S
C171 Sm161 2.846 . S
C171 C172 1.506 . S
C171 O186 1.261 . S
C171 O187 1.242 . S
C172 C171 1.506 . S
C172 C173 1.358 . S
C172 C177 1.382 . S
C173 C172 1.358 . S
C173 C174 1.385 . S
C173 H196 0.930 . S
C174 C173 1.385 . S
C174 C175 1.395 . S
C174 H197 0.929 . S
C175 C174 1.395 . S
C175 C176 1.335 . S
C176 C175 1.335 . S
C176 C177 1.398 . S
C176 H198 0.930 . S
C177 C172 1.382 . S
C177 C176 1.398 . S
C177 H199 0.929 . S
C178 O188 1.271 . S
C178 O189 1.251 1_455 S
C179 O190 1.252 . S
C179 O191 1.272 . S
O180 Sm160 2.543 . S
O180 C162 1.261 . S
O181 Sm160 2.450 . S
O181 C162 1.242 . S
O182 Sm160 2.681 . S
O182 Sm161 2.386 1_455 S
O182 C169 1.271 . S
O183 Sm160 2.464 . S
O183 C169 1.251 . S
O184 Sm160 2.396 . S
O184 C170 1.252 1_455 S
O185 Sm161 2.408 . S
O185 C170 1.272 . S
O186 Sm161 2.543 . S
O186 C171 1.261 . S
O187 Sm161 2.450 . S
O187 C171 1.242 . S
O188 Sm160 2.386 . S
O188 Sm161 2.681 1_455 S
O188 C178 1.271 . S
O189 Sm161 2.464 . S
O189 C178 1.251 1_655 S
O190 Sm161 2.396 1_455 S
O190 C179 1.252 . S
O191 Sm160 2.408 . S
O191 C179 1.272 . S
H192 C164 0.930 . S
H193 C165 0.929 . S
H194 C167 0.930 . S
H195 C168 0.929 . S
H196 C173 0.930 . S
H197 C174 0.929 . S
H198 C176 0.930 . S
H199 C177 0.929 . S
Sm200 C202 2.846 . S
Sm200 O220 2.543 . S
Sm200 O221 2.450 . S
Sm200 O222 2.681 . S
Sm200 O223 2.464 . S
Sm200 O224 2.396 . S
Sm200 O228 2.386 . S
Sm200 O231 2.408 . S
Sm201 C211 2.846 . S
Sm201 O222 2.386 . S
Sm201 O225 2.408 . S
Sm201 O226 2.543 . S
Sm201 O227 2.450 . S
Sm201 O228 2.681 . S
Sm201 O229 2.464 . S
Sm201 O230 2.396 . S
C202 Sm200 2.846 . S
C202 C203 1.506 . S
C202 O220 1.261 . S
C202 O221 1.242 . S
C203 C202 1.506 . S
C203 C204 1.358 . S
C203 C208 1.382 . S
C204 C203 1.358 . S
C204 C205 1.385 . S
C204 H232 0.930 . S
C205 C204 1.385 . S
C205 C206 1.395 . S
C205 H233 0.929 . S
C206 C205 1.395 . S
C206 C207 1.335 . S
C207 C206 1.335 . S
C207 C208 1.398 . S
C207 H234 0.930 . S
C208 C203 1.382 . S
C208 C207 1.398 . S
C208 H235 0.929 . S
C209 O222 1.271 . S
C209 O223 1.251 . S
C210 O224 1.252 . S
C210 O225 1.272 . S
C211 Sm201 2.846 . S
C211 C212 1.506 . S
C211 O226 1.261 . S
C211 O227 1.242 . S
C212 C211 1.506 . S
C212 C213 1.358 . S
C212 C217 1.382 . S
C213 C212 1.358 . S
C213 C214 1.385 1_554 S
C213 H236 0.930 . S
C214 C213 1.385 1_556 S
C214 C215 1.395 . S
C214 H237 0.929 . S
C215 C214 1.395 . S
C215 C216 1.335 . S
C216 C215 1.335 . S
C216 C217 1.398 1_556 S
C216 H238 0.930 . S
C217 C212 1.382 . S
C217 C216 1.398 1_554 S
C217 H239 0.929 . S
C218 O228 1.271 . S
C218 O229 1.251 . S
C219 O230 1.252 . S
C219 O231 1.272 . S
O220 Sm200 2.543 . S
O220 C202 1.261 . S
O221 Sm200 2.450 . S
O221 C202 1.242 . S
O222 Sm200 2.681 . S
O222 Sm201 2.386 . S
O222 C209 1.271 . S
O223 Sm200 2.464 . S
O223 C209 1.251 . S
O224 Sm200 2.396 . S
O224 C210 1.252 . S
O225 Sm201 2.408 . S
O225 C210 1.272 . S
O226 Sm201 2.543 . S
O226 C211 1.261 . S
O227 Sm201 2.450 . S
O227 C211 1.242 . S
O228 Sm200 2.386 . S
O228 Sm201 2.681 . S
O228 C218 1.271 . S
O229 Sm201 2.464 . S
O229 C218 1.251 . S
O230 Sm201 2.396 . S
O230 C219 1.252 . S
O231 Sm200 2.408 . S
O231 C219 1.272 . S
H232 C204 0.930 . S
H233 C205 0.929 . S
H234 C207 0.930 . S
H235 C208 0.929 . S
H236 C213 0.930 . S
H237 C214 0.929 . S
H238 C216 0.930 . S
H239 C217 0.929 . S
Sm240 C242 2.846 . S
Sm240 O260 2.543 . S
Sm240 O261 2.450 . S
Sm240 O262 2.681 . S
Sm240 O263 2.464 . S
Sm240 O264 2.396 . S
Sm240 O268 2.386 . S
Sm240 O271 2.408 . S
Sm241 C251 2.846 . S
Sm241 O262 2.386 . S
Sm241 O265 2.408 . S
Sm241 O266 2.543 . S
Sm241 O267 2.450 . S
Sm241 O268 2.681 . S
Sm241 O269 2.464 . S
Sm241 O270 2.396 . S
C242 Sm240 2.846 . S
C242 C243 1.506 . S
C242 O260 1.261 . S
C242 O261 1.242 . S
C243 C242 1.506 . S
C243 C244 1.358 . S
C243 C248 1.382 . S
C244 C243 1.358 . S
C244 C245 1.385 . S
C244 H272 0.930 . S
C245 C244 1.385 . S
C245 C246 1.395 . S
C245 H273 0.929 . S
C246 C245 1.395 . S
C246 C247 1.335 . S
C247 C246 1.335 . S
C247 C248 1.398 . S
C247 H274 0.930 . S
C248 C243 1.382 . S
C248 C247 1.398 . S
C248 H275 0.929 . S
C249 O262 1.271 . S
C249 O263 1.251 . S
C250 O264 1.252 . S
C250 O265 1.272 . S
C251 Sm241 2.846 . S
C251 C252 1.506 . S
C251 O266 1.261 . S
C251 O267 1.242 . S
C252 C251 1.506 . S
C252 C253 1.358 . S
C252 C257 1.382 . S
C253 C252 1.358 . S
C253 C254 1.385 . S
C253 H276 0.930 . S
C254 C253 1.385 . S
C254 C255 1.395 . S
C254 H277 0.929 . S
C255 C254 1.395 . S
C255 C256 1.335 . S
C256 C255 1.335 . S
C256 C257 1.398 . S
C256 H278 0.930 . S
C257 C252 1.382 . S
C257 C256 1.398 . S
C257 H279 0.929 . S
C258 O268 1.271 . S
C258 O269 1.251 . S
C259 O270 1.252 . S
C259 O271 1.272 . S
O260 Sm240 2.543 . S
O260 C242 1.261 . S
O261 Sm240 2.450 . S
O261 C242 1.242 . S
O262 Sm240 2.681 . S
O262 Sm241 2.386 . S
O262 C249 1.271 . S
O263 Sm240 2.464 . S
O263 C249 1.251 . S
O264 Sm240 2.396 . S
O264 C250 1.252 . S
O265 Sm241 2.408 . S
O265 C250 1.272 . S
O266 Sm241 2.543 . S
O266 C251 1.261 . S
O267 Sm241 2.450 . S
O267 C251 1.242 . S
O268 Sm240 2.386 . S
O268 Sm241 2.681 . S
O268 C258 1.271 . S
O269 Sm241 2.464 . S
O269 C258 1.251 . S
O270 Sm241 2.396 . S
O270 C259 1.252 . S
O271 Sm240 2.408 . S
O271 C259 1.272 . S
H272 C244 0.930 . S
H273 C245 0.929 . S
H274 C247 0.930 . S
H275 C248 0.929 . S
H276 C253 0.930 . S
H277 C254 0.929 . S
H278 C256 0.930 . S
H279 C257 0.929 . S
Sm280 C282 2.846 . S
Sm280 O300 2.543 . S
Sm280 O301 2.450 . S
Sm280 O302 2.681 . S
Sm280 O303 2.464 . S
Sm280 O304 2.396 . S
Sm280 O308 2.386 . S
Sm280 O311 2.408 . S
Sm281 C291 2.846 . S
Sm281 O302 2.386 . S
Sm281 O305 2.408 . S
Sm281 O306 2.543 . S
Sm281 O307 2.450 . S
Sm281 O308 2.681 . S
Sm281 O309 2.464 . S
Sm281 O310 2.396 . S
C282 Sm280 2.846 . S
C282 C283 1.506 . S
C282 O300 1.261 . S
C282 O301 1.242 . S
C283 C282 1.506 . S
C283 C284 1.358 . S
C283 C288 1.382 . S
C284 C283 1.358 . S
C284 C285 1.385 . S
C284 H312 0.930 . S
C285 C284 1.385 . S
C285 C286 1.395 . S
C285 H313 0.929 . S
C286 C285 1.395 . S
C286 C287 1.335 . S
C287 C286 1.335 . S
C287 C288 1.398 . S
C287 H314 0.930 . S
C288 C283 1.382 . S
C288 C287 1.398 . S
C288 H315 0.929 . S
C289 O302 1.271 . S
C289 O303 1.251 . S
C290 O304 1.252 . S
C290 O305 1.272 . S
C291 Sm281 2.846 . S
C291 C292 1.506 . S
C291 O306 1.261 . S
C291 O307 1.242 . S
C292 C291 1.506 . S
C292 C293 1.358 . S
C292 C297 1.382 . S
C293 C292 1.358 . S
C293 C294 1.385 . S
C293 H316 0.930 . S
C294 C293 1.385 . S
C294 C295 1.395 . S
C294 H317 0.929 . S
C295 C294 1.395 . S
C295 C296 1.335 . S
C296 C295 1.335 . S
C296 C297 1.398 . S
C296 H318 0.930 . S
C297 C292 1.382 . S
C297 C296 1.398 . S
C297 H319 0.929 . S
C298 O308 1.271 . S
C298 O309 1.251 . S
C299 O310 1.252 . S
C299 O311 1.272 . S
O300 Sm280 2.543 . S
O300 C282 1.261 . S
O301 Sm280 2.450 . S
O301 C282 1.242 . S
O302 Sm280 2.681 . S
O302 Sm281 2.386 . S
O302 C289 1.271 . S
O303 Sm280 2.464 . S
O303 C289 1.251 . S
O304 Sm280 2.396 . S
O304 C290 1.252 . S
O305 Sm281 2.408 . S
O305 C290 1.272 . S
O306 Sm281 2.543 . S
O306 C291 1.261 . S
O307 Sm281 2.450 . S
O307 C291 1.242 . S
O308 Sm280 2.386 . S
O308 Sm281 2.681 . S
O308 C298 1.271 . S
O309 Sm281 2.464 . S
O309 C298 1.251 . S
O310 Sm281 2.396 . S
O310 C299 1.252 . S
O311 Sm280 2.408 . S
O311 C299 1.272 . S
H312 C284 0.930 . S
H313 C285 0.929 . S
H314 C287 0.930 . S
H315 C288 0.929 . S
H316 C293 0.930 . S
H317 C294 0.929 . S
H318 C296 0.930 . S
H319 C297 0.929 . S
Sm320 C322 2.846 . S
Sm320 O340 2.543 . S
Sm320 O341 2.450 . S
Sm320 O342 2.681 . S
Sm320 O343 2.464 . S
Sm320 O344 2.396 . S
Sm320 O348 2.386 . S
Sm320 O351 2.408 . S
Sm321 C331 2.846 . S
Sm321 O342 2.386 . S
Sm321 O345 2.408 . S
Sm321 O346 2.543 . S
Sm321 O347 2.450 . S
Sm321 O348 2.681 . S
Sm321 O349 2.464 . S
Sm321 O350 2.396 . S
C322 Sm320 2.846 . S
C322 C323 1.506 . S
C322 O340 1.261 . S
C322 O341 1.242 . S
C323 C322 1.506 . S
C323 C324 1.358 . S
C323 C328 1.382 . S
C324 C323 1.358 . S
C324 C325 1.385 . S
C324 H352 0.930 . S
C325 C324 1.385 . S
C325 C326 1.395 . S
C325 H353 0.929 . S
C326 C325 1.395 . S
C326 C327 1.335 . S
C327 C326 1.335 . S
C327 C328 1.398 . S
C327 H354 0.930 . S
C328 C323 1.382 . S
C328 C327 1.398 . S
C328 H355 0.929 . S
C329 O342 1.271 . S
C329 O343 1.251 . S
C330 O344 1.252 . S
C330 O345 1.272 . S
C331 Sm321 2.846 . S
C331 C332 1.506 . S
C331 O346 1.261 . S
C331 O347 1.242 . S
C332 C331 1.506 . S
C332 C333 1.358 . S
C332 C337 1.382 . S
C333 C332 1.358 . S
C333 C334 1.385 . S
C333 H356 0.930 . S
C334 C333 1.385 . S
C334 C335 1.395 . S
C334 H357 0.929 . S
C335 C334 1.395 . S
C335 C336 1.335 . S
C336 C335 1.335 . S
C336 C337 1.398 . S
C336 H358 0.930 . S
C337 C332 1.382 . S
C337 C336 1.398 . S
C337 H359 0.929 . S
C338 O348 1.271 . S
C338 O349 1.251 . S
C339 O350 1.252 . S
C339 O351 1.272 . S
O340 Sm320 2.543 . S
O340 C322 1.261 . S
O341 Sm320 2.450 . S
O341 C322 1.242 . S
O342 Sm320 2.681 . S
O342 Sm321 2.386 . S
O342 C329 1.271 . S
O343 Sm320 2.464 . S
O343 C329 1.251 . S
O344 Sm320 2.396 . S
O344 C330 1.252 . S
O345 Sm321 2.408 . S
O345 C330 1.272 . S
O346 Sm321 2.543 . S
O346 C331 1.261 . S
O347 Sm321 2.450 . S
O347 C331 1.242 . S
O348 Sm320 2.386 . S
O348 Sm321 2.681 . S
O348 C338 1.271 . S
O349 Sm321 2.464 . S
O349 C338 1.251 . S
O350 Sm321 2.396 . S
O350 C339 1.252 . S
O351 Sm320 2.408 . S
O351 C339 1.272 . S
H352 C324 0.930 . S
H353 C325 0.929 . S
H354 C327 0.930 . S
H355 C328 0.929 . S
H356 C333 0.930 . S
H357 C334 0.929 . S
H358 C336 0.930 . S
H359 C337 0.929 . S
Sm360 C362 2.846 . S
Sm360 O380 2.543 . S
Sm360 O381 2.450 . S
Sm360 O382 2.681 . S
Sm360 O383 2.464 . S
Sm360 O384 2.396 . S
Sm360 O388 2.386 . S
Sm360 O391 2.408 . S
Sm361 C371 2.846 1_554 S
Sm361 O382 2.386 . S
Sm361 O385 2.408 . S
Sm361 O386 2.543 . S
Sm361 O387 2.450 . S
Sm361 O388 2.681 . S
Sm361 O389 2.464 . S
Sm361 O390 2.396 . S
C362 Sm360 2.846 . S
C362 C363 1.506 . S
C362 O380 1.261 . S
C362 O381 1.242 . S
C363 C362 1.506 . S
C363 C364 1.358 . S
C363 C368 1.382 . S
C364 C363 1.358 . S
C364 C365 1.385 . S
C364 H392 0.930 . S
C365 C364 1.385 . S
C365 C366 1.395 . S
C365 H393 0.929 . S
C366 C365 1.395 . S
C366 C367 1.335 . S
C367 C366 1.335 . S
C367 C368 1.398 . S
C367 H394 0.930 . S
C368 C363 1.382 . S
C368 C367 1.398 . S
C368 H395 0.929 . S
C369 O382 1.271 . S
C369 O383 1.251 . S
C370 O384 1.252 . S
C370 O385 1.272 . S
C371 Sm361 2.846 1_556 S
C371 C372 1.506 . S
C371 O386 1.261 1_556 S
C371 O387 1.242 1_556 S
C372 C371 1.506 . S
C372 C373 1.358 . S
C372 C377 1.382 . S
C373 C372 1.358 . S
C373 C374 1.385 . S
C373 H396 0.930 . S
C374 C373 1.385 . S
C374 C375 1.395 . S
C374 H397 0.929 . S
C375 C374 1.395 . S
C375 C376 1.335 . S
C376 C375 1.335 . S
C376 C377 1.398 . S
C376 H398 0.930 . S
C377 C372 1.382 . S
C377 C376 1.398 . S
C377 H399 0.929 . S
C378 O388 1.271 . S
C378 O389 1.251 . S
C379 O390 1.252 . S
C379 O391 1.272 . S
O380 Sm360 2.543 . S
O380 C362 1.261 . S
O381 Sm360 2.450 . S
O381 C362 1.242 . S
O382 Sm360 2.681 . S
O382 Sm361 2.386 . S
O382 C369 1.271 . S
O383 Sm360 2.464 . S
O383 C369 1.251 . S
O384 Sm360 2.396 . S
O384 C370 1.252 . S
O385 Sm361 2.408 . S
O385 C370 1.272 . S
O386 Sm361 2.543 . S
O386 C371 1.261 1_554 S
O387 Sm361 2.450 . S
O387 C371 1.242 1_554 S
O388 Sm360 2.386 . S
O388 Sm361 2.681 . S
O388 C378 1.271 . S
O389 Sm361 2.464 . S
O389 C378 1.251 . S
O390 Sm361 2.396 . S
O390 C379 1.252 . S
O391 Sm360 2.408 . S
O391 C379 1.272 . S
H392 C364 0.930 . S
H393 C365 0.929 . S
H394 C367 0.930 . S
H395 C368 0.929 . S
H396 C373 0.930 . S
H397 C374 0.929 . S
H398 C376 0.930 . S
H399 C377 0.929 . S
Sm400 C402 2.846 . S
Sm400 O420 2.543 . S
Sm400 O421 2.450 . S
Sm400 O422 2.681 . S
Sm400 O423 2.464 . S
Sm400 O424 2.396 . S
Sm400 O428 2.386 . S
Sm400 O431 2.408 . S
Sm401 C411 2.846 . S
Sm401 O422 2.386 . S
Sm401 O425 2.408 . S
Sm401 O426 2.543 . S
Sm401 O427 2.450 . S
Sm401 O428 2.681 . S
Sm401 O429 2.464 . S
Sm401 O430 2.396 . S
C402 Sm400 2.846 . S
C402 C403 1.506 1_556 S
C402 O420 1.261 . S
C402 O421 1.242 . S
C403 C402 1.506 1_554 S
C403 C404 1.358 . S
C403 C408 1.382 . S
C404 C403 1.358 . S
C404 C405 1.385 . S
C404 H432 0.930 . S
C405 C404 1.385 . S
C405 C406 1.395 . S
C405 H433 0.929 . S
C406 C405 1.395 . S
C406 C407 1.335 . S
C407 C406 1.335 . S
C407 C408 1.398 . S
C407 H434 0.930 . S
C408 C403 1.382 . S
C408 C407 1.398 . S
C408 H435 0.929 . S
C409 O422 1.271 . S
C409 O423 1.251 . S
C410 O424 1.252 . S
C410 O425 1.272 . S
C411 Sm401 2.846 . S
C411 C412 1.506 . S
C411 O426 1.261 . S
C411 O427 1.242 . S
C412 C411 1.506 . S
C412 C413 1.358 . S
C412 C417 1.382 . S
C413 C412 1.358 . S
C413 C414 1.385 . S
C413 H436 0.930 . S
C414 C413 1.385 . S
C414 C415 1.395 . S
C414 H437 0.929 . S
C415 C414 1.395 . S
C415 C416 1.335 . S
C416 C415 1.335 . S
C416 C417 1.398 . S
C416 H438 0.930 . S
C417 C412 1.382 . S
C417 C416 1.398 . S
C417 H439 0.929 . S
C418 O428 1.271 . S
C418 O429 1.251 . S
C419 O430 1.252 . S
C419 O431 1.272 . S
O420 Sm400 2.543 . S
O420 C402 1.261 . S
O421 Sm400 2.450 . S
O421 C402 1.242 . S
O422 Sm400 2.681 . S
O422 Sm401 2.386 . S
O422 C409 1.271 . S
O423 Sm400 2.464 . S
O423 C409 1.251 . S
O424 Sm400 2.396 . S
O424 C410 1.252 . S
O425 Sm401 2.408 . S
O425 C410 1.272 . S
O426 Sm401 2.543 . S
O426 C411 1.261 . S
O427 Sm401 2.450 . S
O427 C411 1.242 . S
O428 Sm400 2.386 . S
O428 Sm401 2.681 . S
O428 C418 1.271 . S
O429 Sm401 2.464 . S
O429 C418 1.251 . S
O430 Sm401 2.396 . S
O430 C419 1.252 . S
O431 Sm400 2.408 . S
O431 C419 1.272 . S
H432 C404 0.930 . S
H433 C405 0.929 . S
H434 C407 0.930 . S
H435 C408 0.929 . S
H436 C413 0.930 . S
H437 C414 0.929 . S
H438 C416 0.930 . S
H439 C417 0.929 . S
Sm440 C442 2.846 . S
Sm440 O460 2.543 . S
Sm440 O461 2.450 . S
Sm440 O462 2.681 . S
Sm440 O463 2.464 . S
Sm440 O464 2.396 . S
Sm440 O468 2.386 . S
Sm440 O471 2.408 . S
Sm441 C451 2.846 . S
Sm441 O462 2.386 . S
Sm441 O465 2.408 . S
Sm441 O466 2.543 . S
Sm441 O467 2.450 . S
Sm441 O468 2.681 . S
Sm441 O469 2.464 . S
Sm441 O470 2.396 . S
C442 Sm440 2.846 . S
C442 C443 1.506 . S
C442 O460 1.261 . S
C442 O461 1.242 . S
C443 C442 1.506 . S
C443 C444 1.358 . S
C443 C448 1.382 . S
C444 C443 1.358 . S
C444 C445 1.385 . S
C444 H472 0.930 . S
C445 C444 1.385 . S
C445 C446 1.395 . S
C445 H473 0.929 . S
C446 C445 1.395 . S
C446 C447 1.335 . S
C447 C446 1.335 . S
C447 C448 1.398 . S
C447 H474 0.930 . S
C448 C443 1.382 . S
C448 C447 1.398 . S
C448 H475 0.929 . S
C449 O462 1.271 . S
C449 O463 1.251 . S
C450 O464 1.252 . S
C450 O465 1.272 . S
C451 Sm441 2.846 . S
C451 C452 1.506 . S
C451 O466 1.261 . S
C451 O467 1.242 . S
C452 C451 1.506 . S
C452 C453 1.358 . S
C452 C457 1.382 . S
C453 C452 1.358 . S
C453 C454 1.385 . S
C453 H476 0.930 . S
C454 C453 1.385 . S
C454 C455 1.395 . S
C454 H477 0.929 . S
C455 C454 1.395 . S
C455 C456 1.335 . S
C456 C455 1.335 . S
C456 C457 1.398 . S
C456 H478 0.930 . S
C457 C452 1.382 . S
C457 C456 1.398 . S
C457 H479 0.929 . S
C458 O468 1.271 . S
C458 O469 1.251 . S
C459 O470 1.252 . S
C459 O471 1.272 . S
O460 Sm440 2.543 . S
O460 C442 1.261 . S
O461 Sm440 2.450 . S
O461 C442 1.242 . S
O462 Sm440 2.681 . S
O462 Sm441 2.386 . S
O462 C449 1.271 . S
O463 Sm440 2.464 . S
O463 C449 1.251 . S
O464 Sm440 2.396 . S
O464 C450 1.252 . S
O465 Sm441 2.408 . S
O465 C450 1.272 . S
O466 Sm441 2.543 . S
O466 C451 1.261 . S
O467 Sm441 2.450 . S
O467 C451 1.242 . S
O468 Sm440 2.386 . S
O468 Sm441 2.681 . S
O468 C458 1.271 . S
O469 Sm441 2.464 . S
O469 C458 1.251 . S
O470 Sm441 2.396 . S
O470 C459 1.252 . S
O471 Sm440 2.408 . S
O471 C459 1.272 . S
H472 C444 0.930 . S
H473 C445 0.929 . S
H474 C447 0.930 . S
H475 C448 0.929 . S
H476 C453 0.930 . S
H477 C454 0.929 . S
H478 C456 0.930 . S
H479 C457 0.929 . S
Sm480 C482 2.846 . S
Sm480 O500 2.543 . S
Sm480 O501 2.450 . S
Sm480 O502 2.681 . S
Sm480 O503 2.464 . S
Sm480 O504 2.396 . S
Sm480 O508 2.386 . S
Sm480 O511 2.408 . S
Sm481 C491 2.846 . S
Sm481 O502 2.386 . S
Sm481 O505 2.408 . S
Sm481 O506 2.543 . S
Sm481 O507 2.450 . S
Sm481 O508 2.681 . S
Sm481 O509 2.464 . S
Sm481 O510 2.396 . S
C482 Sm480 2.846 . S
C482 C483 1.506 . S
C482 O500 1.261 . S
C482 O501 1.242 . S
C483 C482 1.506 . S
C483 C484 1.358 . S
C483 C488 1.382 . S
C484 C483 1.358 . S
C484 C485 1.385 . S
C484 H512 0.930 . S
C485 C484 1.385 . S
C485 C486 1.395 . S
C485 H513 0.929 . S
C486 C485 1.395 . S
C486 C487 1.335 . S
C487 C486 1.335 . S
C487 C488 1.398 . S
C487 H514 0.930 . S
C488 C483 1.382 . S
C488 C487 1.398 . S
C488 H515 0.929 . S
C489 O502 1.271 . S
C489 O503 1.251 . S
C490 O504 1.252 . S
C490 O505 1.272 . S
C491 Sm481 2.846 . S
C491 C492 1.506 . S
C491 O506 1.261 . S
C491 O507 1.242 . S
C492 C491 1.506 . S
C492 C493 1.358 . S
C492 C497 1.382 . S
C493 C492 1.358 . S
C493 C494 1.385 . S
C493 H516 0.930 . S
C494 C493 1.385 . S
C494 C495 1.395 . S
C494 H517 0.929 . S
C495 C494 1.395 . S
C495 C496 1.335 . S
C496 C495 1.335 . S
C496 C497 1.398 . S
C496 H518 0.930 . S
C497 C492 1.382 . S
C497 C496 1.398 . S
C497 H519 0.929 . S
C498 O508 1.271 . S
C498 O509 1.251 . S
C499 O510 1.252 . S
C499 O511 1.272 . S
O500 Sm480 2.543 . S
O500 C482 1.261 . S
O501 Sm480 2.450 . S
O501 C482 1.242 . S
O502 Sm480 2.681 . S
O502 Sm481 2.386 . S
O502 C489 1.271 . S
O503 Sm480 2.464 . S
O503 C489 1.251 . S
O504 Sm480 2.396 . S
O504 C490 1.252 . S
O505 Sm481 2.408 . S
O505 C490 1.272 . S
O506 Sm481 2.543 . S
O506 C491 1.261 . S
O507 Sm481 2.450 . S
O507 C491 1.242 . S
O508 Sm480 2.386 . S
O508 Sm481 2.681 . S
O508 C498 1.271 . S
O509 Sm481 2.464 . S
O509 C498 1.251 . S
O510 Sm481 2.396 . S
O510 C499 1.252 . S
O511 Sm480 2.408 . S
O511 C499 1.272 . S
H512 C484 0.930 . S
H513 C485 0.929 . S
H514 C487 0.930 . S
H515 C488 0.929 . S
H516 C493 0.930 . S
H517 C494 0.929 . S
H518 C496 0.930 . S
H519 C497 0.929 . S
Sm520 C522 2.846 . S
Sm520 O540 2.543 . S
Sm520 O541 2.450 . S
Sm520 O542 2.681 1_655 S
Sm520 O543 2.464 . S
Sm520 O544 2.396 1_655 S
Sm520 O548 2.386 1_655 S
Sm520 O551 2.408 . S
Sm521 C531 2.846 . S
Sm521 O542 2.386 . S
Sm521 O545 2.408 . S
Sm521 O546 2.543 . S
Sm521 O547 2.450 . S
Sm521 O548 2.681 . S
Sm521 O549 2.464 . S
Sm521 O550 2.396 . S
C522 Sm520 2.846 . S
C522 C523 1.506 . S
C522 O540 1.261 . S
C522 O541 1.242 . S
C523 C522 1.506 . S
C523 C524 1.358 . S
C523 C528 1.382 . S
C524 C523 1.358 . S
C524 C525 1.385 . S
C524 H552 0.930 . S
C525 C524 1.385 . S
C525 C526 1.395 . S
C525 H553 0.929 . S
C526 C525 1.395 . S
C526 C527 1.335 . S
C527 C526 1.335 . S
C527 C528 1.398 . S
C527 H554 0.930 . S
C528 C523 1.382 . S
C528 C527 1.398 . S
C528 H555 0.929 . S
C529 O542 1.271 . S
C529 O543 1.251 1_455 S
C530 O544 1.252 . S
C530 O545 1.272 . S
C531 Sm521 2.846 . S
C531 C532 1.506 1_554 S
C531 O546 1.261 . S
C531 O547 1.242 . S
C532 C531 1.506 1_556 S
C532 C533 1.358 . S
C532 C537 1.382 . S
C533 C532 1.358 . S
C533 C534 1.385 . S
C533 H556 0.930 . S
C534 C533 1.385 . S
C534 C535 1.395 . S
C534 H557 0.929 . S
C535 C534 1.395 . S
C535 C536 1.335 . S
C536 C535 1.335 . S
C536 C537 1.398 . S
C536 H558 0.930 . S
C537 C532 1.382 . S
C537 C536 1.398 . S
C537 H559 0.929 . S
C538 O548 1.271 . S
C538 O549 1.251 . S
C539 O550 1.252 1_655 S
C539 O551 1.272 . S
O540 Sm520 2.543 . S
O540 C522 1.261 . S
O541 Sm520 2.450 . S
O541 C522 1.242 . S
O542 Sm520 2.681 1_455 S
O542 Sm521 2.386 . S
O542 C529 1.271 . S
O543 Sm520 2.464 . S
O543 C529 1.251 1_655 S
O544 Sm520 2.396 1_455 S
O544 C530 1.252 . S
O545 Sm521 2.408 . S
O545 C530 1.272 . S
O546 Sm521 2.543 . S
O546 C531 1.261 . S
O547 Sm521 2.450 . S
O547 C531 1.242 . S
O548 Sm520 2.386 1_455 S
O548 Sm521 2.681 . S
O548 C538 1.271 . S
O549 Sm521 2.464 . S
O549 C538 1.251 . S
O550 Sm521 2.396 . S
O550 C539 1.252 1_455 S
O551 Sm520 2.408 . S
O551 C539 1.272 . S
H552 C524 0.930 . S
H553 C525 0.929 . S
H554 C527 0.930 . S
H555 C528 0.929 . S
H556 C533 0.930 . S
H557 C534 0.929 . S
H558 C536 0.930 . S
H559 C537 0.929 . S
Sm560 C562 2.846 . S
Sm560 O580 2.543 . S
Sm560 O581 2.450 . S
Sm560 O582 2.681 . S
Sm560 O583 2.464 . S
Sm560 O584 2.396 . S
Sm560 O588 2.386 . S
Sm560 O591 2.408 . S
Sm561 C571 2.846 . S
Sm561 O582 2.386 . S
Sm561 O585 2.408 . S
Sm561 O586 2.543 . S
Sm561 O587 2.450 . S
Sm561 O588 2.681 . S
Sm561 O589 2.464 . S
Sm561 O590 2.396 . S
C562 Sm560 2.846 . S
C562 C563 1.506 . S
C562 O580 1.261 . S
C562 O581 1.242 . S
C563 C562 1.506 . S
C563 C564 1.358 . S
C563 C568 1.382 . S
C564 C563 1.358 . S
C564 C565 1.385 . S
C564 H592 0.930 . S
C565 C564 1.385 . S
C565 C566 1.395 . S
C565 H593 0.929 . S
C566 C565 1.395 . S
C566 C567 1.335 . S
C567 C566 1.335 . S
C567 C568 1.398 . S
C567 H594 0.930 . S
C568 C563 1.382 . S
C568 C567 1.398 . S
C568 H595 0.929 . S
C569 O582 1.271 . S
C569 O583 1.251 . S
C570 O584 1.252 . S
C570 O585 1.272 . S
C571 Sm561 2.846 . S
C571 C572 1.506 . S
C571 O586 1.261 . S
C571 O587 1.242 . S
C572 C571 1.506 . S
C572 C573 1.358 . S
C572 C577 1.382 . S
C573 C572 1.358 . S
C573 C574 1.385 . S
C573 H596 0.930 . S
C574 C573 1.385 . S
C574 C575 1.395 . S
C574 H597 0.929 . S
C575 C574 1.395 . S
C575 C576 1.335 . S
C576 C575 1.335 . S
C576 C577 1.398 . S
C576 H598 0.930 . S
C577 C572 1.382 . S
C577 C576 1.398 . S
C577 H599 0.929 . S
C578 O588 1.271 . S
C578 O589 1.251 . S
C579 O590 1.252 . S
C579 O591 1.272 . S
O580 Sm560 2.543 . S
O580 C562 1.261 . S
O581 Sm560 2.450 . S
O581 C562 1.242 . S
O582 Sm560 2.681 . S
O582 Sm561 2.386 . S
O582 C569 1.271 . S
O583 Sm560 2.464 . S
O583 C569 1.251 . S
O584 Sm560 2.396 . S
O584 C570 1.252 . S
O585 Sm561 2.408 . S
O585 C570 1.272 . S
O586 Sm561 2.543 . S
O586 C571 1.261 . S
O587 Sm561 2.450 . S
O587 C571 1.242 . S
O588 Sm560 2.386 . S
O588 Sm561 2.681 . S
O588 C578 1.271 . S
O589 Sm561 2.464 . S
O589 C578 1.251 . S
O590 Sm561 2.396 . S
O590 C579 1.252 . S
O591 Sm560 2.408 . S
O591 C579 1.272 . S
H592 C564 0.930 . S
H593 C565 0.929 . S
H594 C567 0.930 . S
H595 C568 0.929 . S
H596 C573 0.930 . S
H597 C574 0.929 . S
H598 C576 0.930 . S
H599 C577 0.929 . S
Sm600 C602 2.846 . S
Sm600 O620 2.543 . S
Sm600 O621 2.450 . S
Sm600 O622 2.681 1_655 S
Sm600 O623 2.464 . S
Sm600 O624 2.396 1_655 S
Sm600 O628 2.386 1_655 S
Sm600 O631 2.408 . S
Sm601 C611 2.846 . S
Sm601 O622 2.386 . S
Sm601 O625 2.408 . S
Sm601 O626 2.543 . S
Sm601 O627 2.450 . S
Sm601 O628 2.681 . S
Sm601 O629 2.464 . S
Sm601 O630 2.396 . S
C602 Sm600 2.846 . S
C602 C603 1.506 1_556 S
C602 O620 1.261 . S
C602 O621 1.242 . S
C603 C602 1.506 1_554 S
C603 C604 1.358 . S
C603 C608 1.382 . S
C604 C603 1.358 . S
C604 C605 1.385 . S
C604 H632 0.930 . S
C605 C604 1.385 . S
C605 C606 1.395 . S
C605 H633 0.929 . S
C606 C605 1.395 . S
C606 C607 1.335 . S
C607 C606 1.335 . S
C607 C608 1.398 . S
C607 H634 0.930 . S
C608 C603 1.382 . S
C608 C607 1.398 . S
C608 H635 0.929 . S
C609 O622 1.271 . S
C609 O623 1.251 1_455 S
C610 O624 1.252 . S
C610 O625 1.272 . S
C611 Sm601 2.846 . S
C611 C612 1.506 . S
C611 O626 1.261 . S
C611 O627 1.242 . S
C612 C611 1.506 . S
C612 C613 1.358 . S
C612 C617 1.382 . S
C613 C612 1.358 . S
C613 C614 1.385 . S
C613 H636 0.930 . S
C614 C613 1.385 . S
C614 C615 1.395 . S
C614 H637 0.929 . S
C615 C614 1.395 . S
C615 C616 1.335 . S
C616 C615 1.335 . S
C616 C617 1.398 . S
C616 H638 0.930 . S
C617 C612 1.382 . S
C617 C616 1.398 . S
C617 H639 0.929 . S
C618 O628 1.271 . S
C618 O629 1.251 . S
C619 O630 1.252 1_655 S
C619 O631 1.272 . S
O620 Sm600 2.543 . S
O620 C602 1.261 . S
O621 Sm600 2.450 . S
O621 C602 1.242 . S
O622 Sm600 2.681 1_455 S
O622 Sm601 2.386 . S
O622 C609 1.271 . S
O623 Sm600 2.464 . S
O623 C609 1.251 1_655 S
O624 Sm600 2.396 1_455 S
O624 C610 1.252 . S
O625 Sm601 2.408 . S
O625 C610 1.272 . S
O626 Sm601 2.543 . S
O626 C611 1.261 . S
O627 Sm601 2.450 . S
O627 C611 1.242 . S
O628 Sm600 2.386 1_455 S
O628 Sm601 2.681 . S
O628 C618 1.271 . S
O629 Sm601 2.464 . S
O629 C618 1.251 . S
O630 Sm601 2.396 . S
O630 C619 1.252 1_455 S
O631 Sm600 2.408 . S
O631 C619 1.272 . S
H632 C604 0.930 . S
H633 C605 0.929 . S
H634 C607 0.930 . S
H635 C608 0.929 . S
H636 C613 0.930 . S
H637 C614 0.929 . S
H638 C616 0.930 . S
H639 C617 0.929 . S
H640 C652 0.930 . S
H641 C654 0.930 . S
H642 C655 0.930 . S
H643 C659 0.959 . S
H644 C659 0.959 . S
H645 C659 0.961 . S
H646 C660 0.960 . S
H647 C660 0.961 . S
H648 C660 0.959 . S
H649 C663 0.929 . S
H650 C664 0.931 . S
H651 C666 0.930 . S
C652 H640 0.930 . S
C652 C653 1.399 . S
C652 C657 1.399 . S
C653 C652 1.399 . S
C653 C654 1.376 . S
C654 H641 0.930 . S
C654 C653 1.376 . S
C654 C655 1.388 . S
C655 H642 0.930 . S
C655 C654 1.388 . S
C655 C656 1.390 . S
C656 C655 1.390 . S
C656 C657 1.394 . S
C656 C662 1.465 . S
C657 C652 1.399 . S
C657 C656 1.394 . S
C657 C658 1.516 . S
C658 C657 1.516 . S
C658 C659 1.502 . S
C658 C660 1.561 . S
C658 C661 1.526 . S
C659 H643 0.959 . S
C659 H644 0.959 . S
C659 H645 0.961 . S
C659 C658 1.502 . S
C660 H646 0.960 . S
C660 H647 0.961 . S
C660 H648 0.959 . S
C660 C658 1.561 . S
C661 C658 1.526 . S
C661 C662 1.396 . S
C661 C666 1.390 . S
C662 C656 1.465 . S
C662 C661 1.396 . S
C662 C663 1.399 . S
C663 H649 0.929 . S
C663 C662 1.399 . S
C663 C664 1.385 . S
C664 H650 0.931 . S
C664 C663 1.385 . S
C664 C665 1.389 . S
C665 C664 1.389 . S
C665 C666 1.387 . S
C666 H651 0.930 . S
C666 C661 1.390 . S
C666 C665 1.387 . S
H667 C679 0.930 . S
H668 C681 0.930 . S
H669 C682 0.930 . S
H670 C686 0.959 . S
H671 C686 0.959 . S
H672 C686 0.961 . S
H673 C687 0.960 . S
H674 C687 0.961 . S
H675 C687 0.959 . S
H676 C690 0.929 . S
H677 C691 0.931 . S
H678 C693 0.930 . S
C679 H667 0.930 . S
C679 C680 1.399 . S
C679 C684 1.399 . S
C680 C679 1.399 . S
C680 C681 1.376 . S
C681 H668 0.930 . S
C681 C680 1.376 . S
C681 C682 1.388 . S
C682 H669 0.930 . S
C682 C681 1.388 . S
C682 C683 1.390 . S
C683 C682 1.390 . S
C683 C684 1.394 . S
C683 C689 1.465 . S
C684 C679 1.399 . S
C684 C683 1.394 . S
C684 C685 1.516 . S
C685 C684 1.516 . S
C685 C686 1.502 . S
C685 C687 1.561 . S
C685 C688 1.526 . S
C686 H670 0.959 . S
C686 H671 0.959 . S
C686 H672 0.961 . S
C686 C685 1.502 . S
C687 H673 0.960 . S
C687 H674 0.961 . S
C687 H675 0.959 . S
C687 C685 1.561 . S
C688 C685 1.526 . S
C688 C689 1.396 . S
C688 C693 1.390 . S
C689 C683 1.465 . S
C689 C688 1.396 . S
C689 C690 1.399 . S
C690 H676 0.929 . S
C690 C689 1.399 . S
C690 C691 1.385 . S
C691 H677 0.931 . S
C691 C690 1.385 . S
C691 C692 1.389 . S
C692 C691 1.389 . S
C692 C693 1.387 . S
C693 H678 0.930 . S
C693 C688 1.390 . S
C693 C692 1.387 . S
H694 C706 0.930 . S
H695 C708 0.930 . S
H696 C709 0.930 . S
H697 C713 0.959 . S
H698 C713 0.959 . S
H699 C713 0.961 . S
H700 C714 0.960 . S
H701 C714 0.961 . S
H702 C714 0.959 . S
H703 C717 0.929 . S
H704 C718 0.931 . S
H705 C720 0.930 . S
C706 H694 0.930 . S
C706 C707 1.399 . S
C706 C711 1.399 . S
C707 C706 1.399 . S
C707 C708 1.376 . S
C708 H695 0.930 . S
C708 C707 1.376 . S
C708 C709 1.388 . S
C709 H696 0.930 . S
C709 C708 1.388 . S
C709 C710 1.390 . S
C710 C709 1.390 . S
C710 C711 1.394 . S
C710 C716 1.465 . S
C711 C706 1.399 . S
C711 C710 1.394 . S
C711 C712 1.516 . S
C712 C711 1.516 . S
C712 C713 1.502 . S
C712 C714 1.561 . S
C712 C715 1.526 . S
C713 H697 0.959 . S
C713 H698 0.959 . S
C713 H699 0.961 . S
C713 C712 1.502 . S
C714 H700 0.960 . S
C714 H701 0.961 . S
C714 H702 0.959 . S
C714 C712 1.561 . S
C715 C712 1.526 . S
C715 C716 1.396 . S
C715 C720 1.390 . S
C716 C710 1.465 . S
C716 C715 1.396 . S
C716 C717 1.399 . S
C717 H703 0.929 . S
C717 C716 1.399 . S
C717 C718 1.385 . S
C718 H704 0.931 . S
C718 C717 1.385 . S
C718 C719 1.389 . S
C719 C718 1.389 . S
C719 C720 1.387 . S
C720 H705 0.930 . S
C720 C715 1.390 . S
C720 C719 1.387 . S
H721 C733 0.930 . S
H722 C735 0.930 . S
H723 C736 0.930 . S
H724 C740 0.959 . S
H725 C740 0.959 . S
H726 C740 0.961 . S
H727 C741 0.960 . S
H728 C741 0.961 . S
H729 C741 0.959 . S
H730 C744 0.929 . S
H731 C745 0.931 . S
H732 C747 0.930 . S
C733 H721 0.930 . S
C733 C734 1.399 . S
C733 C738 1.399 . S
C734 C733 1.399 . S
C734 C735 1.376 . S
C735 H722 0.930 . S
C735 C734 1.376 . S
C735 C736 1.388 . S
C736 H723 0.930 . S
C736 C735 1.388 . S
C736 C737 1.390 . S
C737 C736 1.390 . S
C737 C738 1.394 . S
C737 C743 1.465 . S
C738 C733 1.399 . S
C738 C737 1.394 . S
C738 C739 1.516 . S
C739 C738 1.516 . S
C739 C740 1.502 . S
C739 C741 1.561 . S
C739 C742 1.526 . S
C740 H724 0.959 . S
C740 H725 0.959 . S
C740 H726 0.961 . S
C740 C739 1.502 . S
C741 H727 0.960 . S
C741 H728 0.961 . S
C741 H729 0.959 . S
C741 C739 1.561 . S
C742 C739 1.526 . S
C742 C743 1.396 . S
C742 C747 1.390 . S
C743 C737 1.465 . S
C743 C742 1.396 . S
C743 C744 1.399 . S
C744 H730 0.929 . S
C744 C743 1.399 . S
C744 C745 1.385 . S
C745 H731 0.931 . S
C745 C744 1.385 . S
C745 C746 1.389 . S
C746 C745 1.389 . S
C746 C747 1.387 . S
C747 H732 0.930 . S
C747 C742 1.390 . S
C747 C746 1.387 . S
H748 C760 0.930 . S
H749 C762 0.930 . S
H750 C763 0.930 . S
H751 C767 0.960 . S
H752 C767 0.961 . S
H753 C767 0.960 1_554 S
H754 C768 0.960 . S
H755 C768 0.961 . S
H756 C768 0.959 . S
H757 C771 0.929 1_455 S
H758 C772 0.931 1_455 S
H759 C774 0.930 . S
C760 H748 0.930 . S
C760 C761 1.399 . S
C760 C765 1.399 . S
C761 C760 1.399 . S
C761 C762 1.376 . S
C762 H749 0.930 . S
C762 C761 1.376 . S
C762 C763 1.388 . S
C763 H750 0.930 . S
C763 C762 1.388 . S
C763 C764 1.390 . S
C764 C763 1.390 . S
C764 C765 1.394 . S
C764 C770 1.465 . S
C765 C760 1.399 . S
C765 C764 1.394 . S
C765 C766 1.516 . S
C766 C765 1.516 . S
C766 C767 1.501 1_554 S
C766 C768 1.561 . S
C766 C769 1.526 . S
C767 H751 0.960 . S
C767 H752 0.961 . S
C767 H753 0.960 1_556 S
C767 C766 1.501 1_556 S
C768 H754 0.960 . S
C768 H755 0.961 . S
C768 H756 0.959 . S
C768 C766 1.561 . S
C769 C766 1.526 . S
C769 C770 1.396 . S
C769 C774 1.390 1_554 S
C770 C764 1.465 . S
C770 C769 1.396 . S
C770 C771 1.399 . S
C771 H757 0.929 1_655 S
C771 C770 1.399 . S
C771 C772 1.385 1_554 S
C772 H758 0.931 1_655 S
C772 C771 1.385 1_556 S
C772 C773 1.389 . S
C773 C772 1.389 . S
C773 C774 1.387 . S
C774 H759 0.930 . S
C774 C769 1.390 1_556 S
C774 C773 1.387 . S
H775 C787 0.930 . S
H776 C789 0.930 . S
H777 C790 0.930 . S
H778 C794 0.959 . S
H779 C794 0.959 . S
H780 C794 0.961 . S
H781 C795 0.960 . S
H782 C795 0.961 . S
H783 C795 0.959 . S
H784 C798 0.929 . S
H785 C799 0.931 1_554 S
H786 C801 0.930 . S
C787 H775 0.930 . S
C787 C788 1.399 . S
C787 C792 1.399 . S
C788 C787 1.399 . S
C788 C789 1.376 . S
C789 H776 0.930 . S
C789 C788 1.376 . S
C789 C790 1.388 . S
C790 H777 0.930 . S
C790 C789 1.388 . S
C790 C791 1.390 . S
C791 C790 1.390 . S
C791 C792 1.394 . S
C791 C797 1.465 . S
C792 C787 1.399 . S
C792 C791 1.394 . S
C792 C793 1.516 . S
C793 C792 1.516 . S
C793 C794 1.502 . S
C793 C795 1.561 . S
C793 C796 1.526 . S
C794 H778 0.959 . S
C794 H779 0.959 . S
C794 H780 0.961 . S
C794 C793 1.502 . S
C795 H781 0.960 . S
C795 H782 0.961 . S
C795 H783 0.959 . S
C795 C793 1.561 . S
C796 C793 1.526 . S
C796 C797 1.396 . S
C796 C801 1.390 . S
C797 C791 1.465 . S
C797 C796 1.396 . S
C797 C798 1.399 . S
C798 H784 0.929 . S
C798 C797 1.399 . S
C798 C799 1.385 . S
C799 H785 0.931 1_556 S
C799 C798 1.385 . S
C799 C800 1.389 . S
C800 C799 1.389 . S
C800 C801 1.387 . S
C801 H786 0.930 . S
C801 C796 1.390 . S
C801 C800 1.387 . S
H802 C814 0.930 . S
H803 C816 0.930 . S
H804 C817 0.930 . S
H805 C821 0.959 . S
H806 C821 0.959 . S
H807 C821 0.961 . S
H808 C822 0.960 . S
H809 C822 0.961 . S
H810 C822 0.959 . S
H811 C825 0.929 . S
H812 C826 0.931 . S
H813 C828 0.930 . S
C814 H802 0.930 . S
C814 C815 1.399 . S
C814 C819 1.399 . S
C815 C814 1.399 . S
C815 C816 1.376 . S
C816 H803 0.930 . S
C816 C815 1.376 . S
C816 C817 1.388 . S
C817 H804 0.930 . S
C817 C816 1.388 . S
C817 C818 1.390 . S
C818 C817 1.390 . S
C818 C819 1.394 . S
C818 C824 1.465 . S
C819 C814 1.399 . S
C819 C818 1.394 . S
C819 C820 1.516 . S
C820 C819 1.516 . S
C820 C821 1.502 . S
C820 C822 1.561 . S
C820 C823 1.526 . S
C821 H805 0.959 . S
C821 H806 0.959 . S
C821 H807 0.961 . S
C821 C820 1.502 . S
C822 H808 0.960 . S
C822 H809 0.961 . S
C822 H810 0.959 . S
C822 C820 1.561 . S
C823 C820 1.526 . S
C823 C824 1.396 . S
C823 C828 1.390 . S
C824 C818 1.465 . S
C824 C823 1.396 . S
C824 C825 1.399 . S
C825 H811 0.929 . S
C825 C824 1.399 . S
C825 C826 1.385 . S
C826 H812 0.931 . S
C826 C825 1.385 . S
C826 C827 1.389 . S
C827 C826 1.389 . S
C827 C828 1.387 . S
C828 H813 0.930 . S
C828 C823 1.390 . S
C828 C827 1.387 . S
H829 C841 0.930 . S
H830 C843 0.930 . S
H831 C844 0.930 . S
H832 C848 0.959 . S
H833 C848 0.959 . S
H834 C848 0.961 . S
H835 C849 0.960 . S
H836 C849 0.961 . S
H837 C849 0.959 . S
H838 C852 0.929 . S
H839 C853 0.931 . S
H840 C855 0.930 . S
C841 H829 0.930 . S
C841 C842 1.399 . S
C841 C846 1.399 . S
C842 C841 1.399 . S
C842 C843 1.376 . S
C843 H830 0.930 . S
C843 C842 1.376 . S
C843 C844 1.388 . S
C844 H831 0.930 . S
C844 C843 1.388 . S
C844 C845 1.390 . S
C845 C844 1.390 . S
C845 C846 1.394 . S
C845 C851 1.465 . S
C846 C841 1.399 . S
C846 C845 1.394 . S
C846 C847 1.516 . S
C847 C846 1.516 . S
C847 C848 1.502 . S
C847 C849 1.561 . S
C847 C850 1.526 . S
C848 H832 0.959 . S
C848 H833 0.959 . S
C848 H834 0.961 . S
C848 C847 1.502 . S
C849 H835 0.960 . S
C849 H836 0.961 . S
C849 H837 0.959 . S
C849 C847 1.561 . S
C850 C847 1.526 . S
C850 C851 1.396 . S
C850 C855 1.390 . S
C851 C845 1.465 . S
C851 C850 1.396 . S
C851 C852 1.399 . S
C852 H838 0.929 . S
C852 C851 1.399 . S
C852 C853 1.385 . S
C853 H839 0.931 . S
C853 C852 1.385 . S
C853 C854 1.389 . S
C854 C853 1.389 . S
C854 C855 1.387 . S
C855 H840 0.930 . S
C855 C850 1.390 . S
C855 C854 1.387 . S
H856 C868 0.930 . S
H857 C870 0.930 . S
H858 C871 0.930 . S
H859 C875 0.959 . S
H860 C875 0.959 . S
H861 C875 0.961 . S
H862 C876 0.960 . S
H863 C876 0.961 . S
H864 C876 0.959 . S
H865 C879 0.929 . S
H866 C880 0.931 . S
H867 C882 0.930 . S
C868 H856 0.930 . S
C868 C869 1.399 . S
C868 C873 1.399 . S
C869 C868 1.399 . S
C869 C870 1.376 . S
C870 H857 0.930 . S
C870 C869 1.376 . S
C870 C871 1.388 . S
C871 H858 0.930 . S
C871 C870 1.388 . S
C871 C872 1.390 . S
C872 C871 1.390 . S
C872 C873 1.394 . S
C872 C878 1.465 . S
C873 C868 1.399 . S
C873 C872 1.394 . S
C873 C874 1.516 . S
C874 C873 1.516 . S
C874 C875 1.502 . S
C874 C876 1.561 . S
C874 C877 1.526 . S
C875 H859 0.959 . S
C875 H860 0.959 . S
C875 H861 0.961 . S
C875 C874 1.502 . S
C876 H862 0.960 . S
C876 H863 0.961 . S
C876 H864 0.959 . S
C876 C874 1.561 . S
C877 C874 1.526 . S
C877 C878 1.396 . S
C877 C882 1.390 . S
C878 C872 1.465 . S
C878 C877 1.396 . S
C878 C879 1.399 . S
C879 H865 0.929 . S
C879 C878 1.399 . S
C879 C880 1.385 . S
C880 H866 0.931 . S
C880 C879 1.385 . S
C880 C881 1.389 . S
C881 C880 1.389 . S
C881 C882 1.387 . S
C882 H867 0.930 . S
C882 C877 1.390 . S
C882 C881 1.387 . S
H883 C895 0.930 . S
H884 C897 0.930 . S
H885 C898 0.930 . S
H886 C902 0.959 . S
H887 C902 0.959 . S
H888 C902 0.961 . S
H889 C903 0.960 . S
H890 C903 0.961 . S
H891 C903 0.959 . S
H892 C906 0.929 . S
H893 C907 0.931 . S
H894 C909 0.930 . S
C895 H883 0.930 . S
C895 C896 1.399 . S
C895 C900 1.399 . S
C896 C895 1.399 . S
C896 C897 1.376 . S
C897 H884 0.930 . S
C897 C896 1.376 . S
C897 C898 1.388 . S
C898 H885 0.930 . S
C898 C897 1.388 . S
C898 C899 1.390 . S
C899 C898 1.390 . S
C899 C900 1.394 . S
C899 C905 1.465 . S
C900 C895 1.399 . S
C900 C899 1.394 . S
C900 C901 1.516 . S
C901 C900 1.516 . S
C901 C902 1.502 . S
C901 C903 1.561 . S
C901 C904 1.526 . S
C902 H886 0.959 . S
C902 H887 0.959 . S
C902 H888 0.961 . S
C902 C901 1.502 . S
C903 H889 0.960 . S
C903 H890 0.961 . S
C903 H891 0.959 . S
C903 C901 1.561 . S
C904 C901 1.526 . S
C904 C905 1.396 . S
C904 C909 1.390 . S
C905 C899 1.465 . S
C905 C904 1.396 . S
C905 C906 1.399 . S
C906 H892 0.929 . S
C906 C905 1.399 . S
C906 C907 1.385 . S
C907 H893 0.931 . S
C907 C906 1.385 . S
C907 C908 1.389 . S
C908 C907 1.389 . S
C908 C909 1.387 . S
C909 H894 0.930 . S
C909 C904 1.390 . S
C909 C908 1.387 . S
H910 C922 0.930 . S
H911 C924 0.930 . S
H912 C925 0.930 . S
H913 C929 0.959 . S
H914 C929 0.959 . S
H915 C929 0.961 1_554 S
H916 C930 0.960 . S
H917 C930 0.961 1_556 S
H918 C930 0.959 . S
H919 C933 0.929 . S
H920 C934 0.931 . S
H921 C936 0.930 . S
C922 H910 0.930 . S
C922 C923 1.399 . S
C922 C927 1.399 . S
C923 C922 1.399 . S
C923 C924 1.376 . S
C924 H911 0.930 . S
C924 C923 1.376 . S
C924 C925 1.388 1_554 S
C925 H912 0.930 . S
C925 C924 1.388 1_556 S
C925 C926 1.390 . S
C926 C925 1.390 . S
C926 C927 1.394 1_556 S
C926 C932 1.465 . S
C927 C922 1.399 . S
C927 C926 1.394 1_554 S
C927 C928 1.516 1_554 S
C928 C927 1.516 1_556 S
C928 C929 1.502 . S
C928 C930 1.561 1_556 S
C928 C931 1.526 . S
C929 H913 0.959 . S
C929 H914 0.959 . S
C929 H915 0.961 1_556 S
C929 C928 1.502 . S
C930 H916 0.960 . S
C930 H917 0.961 1_554 S
C930 H918 0.959 . S
C930 C928 1.561 1_554 S
C931 C928 1.526 . S
C931 C932 1.396 . S
C931 C936 1.390 . S
C932 C926 1.465 . S
C932 C931 1.396 . S
C932 C933 1.399 . S
C933 H919 0.929 . S
C933 C932 1.399 . S
C933 C934 1.385 . S
C934 H920 0.931 . S
C934 C933 1.385 . S
C934 C935 1.389 . S
C935 C934 1.389 . S
C935 C936 1.387 . S
C936 H921 0.930 . S
C936 C931 1.390 . S
C936 C935 1.387 . S
H937 C949 0.930 . S
H938 C951 0.930 . S
H939 C952 0.930 . S
H940 C956 0.959 . S
H941 C956 0.959 . S
H942 C956 0.961 . S
H943 C957 0.960 . S
H944 C957 0.961 . S
H945 C957 0.959 . S
H946 C960 0.929 . S
H947 C961 0.931 . S
H948 C963 0.930 . S
C949 H937 0.930 . S
C949 C950 1.399 . S
C949 C954 1.399 . S
C950 C949 1.399 . S
C950 C951 1.376 . S
C951 H938 0.930 . S
C951 C950 1.376 . S
C951 C952 1.388 . S
C952 H939 0.930 . S
C952 C951 1.388 . S
C952 C953 1.390 . S
C953 C952 1.390 . S
C953 C954 1.394 . S
C953 C959 1.465 . S
C954 C949 1.399 . S
C954 C953 1.394 . S
C954 C955 1.516 . S
C955 C954 1.516 . S
C955 C956 1.502 . S
C955 C957 1.561 . S
C955 C958 1.526 . S
C956 H940 0.959 . S
C956 H941 0.959 . S
C956 H942 0.961 . S
C956 C955 1.502 . S
C957 H943 0.960 . S
C957 H944 0.961 . S
C957 H945 0.959 . S
C957 C955 1.561 . S
C958 C955 1.526 . S
C958 C959 1.396 . S
C958 C963 1.390 . S
C959 C953 1.465 . S
C959 C958 1.396 . S
C959 C960 1.399 . S
C960 H946 0.929 . S
C960 C959 1.399 . S
C960 C961 1.385 . S
C961 H947 0.931 . S
C961 C960 1.385 . S
C961 C962 1.389 . S
C962 C961 1.389 . S
C962 C963 1.387 . S
C963 H948 0.930 . S
C963 C958 1.390 . S
C963 C962 1.387 . S
H964 C976 0.930 . S
H965 C978 0.930 . S
H966 C979 0.930 . S
H967 C983 0.959 . S
H968 C983 0.959 . S
H969 C983 0.961 . S
H970 C984 0.960 . S
H971 C984 0.961 . S
H972 C984 0.959 . S
H973 C987 0.929 . S
H974 C988 0.931 . S
H975 C990 0.930 . S
C976 H964 0.930 . S
C976 C977 1.399 . S
C976 C981 1.399 . S
C977 C976 1.399 . S
C977 C978 1.376 . S
C978 H965 0.930 . S
C978 C977 1.376 . S
C978 C979 1.388 . S
C979 H966 0.930 . S
C979 C978 1.388 . S
C979 C980 1.390 . S
C980 C979 1.390 . S
C980 C981 1.394 . S
C980 C986 1.465 . S
C981 C976 1.399 . S
C981 C980 1.394 . S
C981 C982 1.516 . S
C982 C981 1.516 . S
C982 C983 1.502 . S
C982 C984 1.561 . S
C982 C985 1.526 . S
C983 H967 0.959 . S
C983 H968 0.959 . S
C983 H969 0.961 . S
C983 C982 1.502 . S
C984 H970 0.960 . S
C984 H971 0.961 . S
C984 H972 0.959 . S
C984 C982 1.561 . S
C985 C982 1.526 . S
C985 C986 1.396 . S
C985 C990 1.390 . S
C986 C980 1.465 . S
C986 C985 1.396 . S
C986 C987 1.399 . S
C987 H973 0.929 . S
C987 C986 1.399 . S
C987 C988 1.385 . S
C988 H974 0.931 . S
C988 C987 1.385 . S
C988 C989 1.389 . S
C989 C988 1.389 . S
C989 C990 1.387 . S
C990 H975 0.930 . S
C990 C985 1.390 . S
C990 C989 1.387 . S
H991 C1003 0.930 . S
H992 C1005 0.930 . S
H993 C1006 0.930 . S
H994 C1010 0.959 . S
H995 C1010 0.959 . S
H996 C1010 0.961 . S
H997 C1011 0.960 . S
H998 C1011 0.961 . S
H999 C1011 0.959 . S
H1000 C1014 0.929 . S
H1001 C1015 0.931 . S
H1002 C1017 0.930 . S
C1003 H991 0.930 . S
C1003 C1004 1.399 . S
C1003 C1008 1.399 . S
C1004 C1003 1.399 . S
C1004 C1005 1.376 . S
C1005 H992 0.930 . S
C1005 C1004 1.376 . S
C1005 C1006 1.388 . S
C1006 H993 0.930 . S
C1006 C1005 1.388 . S
C1006 C1007 1.390 . S
C1007 C1006 1.390 . S
C1007 C1008 1.394 . S
C1007 C1013 1.465 . S
C1008 C1003 1.399 . S
C1008 C1007 1.394 . S
C1008 C1009 1.516 . S
C1009 C1008 1.516 . S
C1009 C1010 1.502 . S
C1009 C1011 1.561 . S
C1009 C1012 1.526 . S
C1010 H994 0.959 . S
C1010 H995 0.959 . S
C1010 H996 0.961 . S
C1010 C1009 1.502 . S
C1011 H997 0.960 . S
C1011 H998 0.961 . S
C1011 H999 0.959 . S
C1011 C1009 1.561 . S
C1012 C1009 1.526 . S
C1012 C1013 1.396 . S
C1012 C1017 1.390 . S
C1013 C1007 1.465 . S
C1013 C1012 1.396 . S
C1013 C1014 1.399 . S
C1014 H1000 0.929 . S
C1014 C1013 1.399 . S
C1014 C1015 1.385 . S
C1015 H1001 0.931 . S
C1015 C1014 1.385 . S
C1015 C1016 1.389 . S
C1016 C1015 1.389 . S
C1016 C1017 1.387 . S
C1017 H1002 0.930 . S
C1017 C1012 1.390 . S
C1017 C1016 1.387 . S
H1018 C1030 0.930 . S
H1019 C1032 0.930 . S
H1020 C1033 0.930 . S
H1021 C1037 0.959 . S
H1022 C1037 0.959 . S
H1023 C1037 0.961 . S
H1024 C1038 0.960 . S
H1025 C1038 0.961 . S
H1026 C1038 0.959 . S
H1027 C1041 0.929 . S
H1028 C1042 0.931 1_556 S
H1029 C1044 0.930 . S
C1030 H1018 0.930 . S
C1030 C1031 1.399 . S
C1030 C1035 1.399 . S
C1031 C1030 1.399 . S
C1031 C1032 1.376 . S
C1032 H1019 0.930 . S
C1032 C1031 1.376 . S
C1032 C1033 1.388 . S
C1033 H1020 0.930 . S
C1033 C1032 1.388 . S
C1033 C1034 1.390 . S
C1034 C1033 1.390 . S
C1034 C1035 1.394 . S
C1034 C1040 1.465 . S
C1035 C1030 1.399 . S
C1035 C1034 1.394 . S
C1035 C1036 1.516 . S
C1036 C1035 1.516 . S
C1036 C1037 1.502 . S
C1036 C1038 1.561 . S
C1036 C1039 1.526 . S
C1037 H1021 0.959 . S
C1037 H1022 0.959 . S
C1037 H1023 0.961 . S
C1037 C1036 1.502 . S
C1038 H1024 0.960 . S
C1038 H1025 0.961 . S
C1038 H1026 0.959 . S
C1038 C1036 1.561 . S
C1039 C1036 1.526 . S
C1039 C1040 1.396 . S
C1039 C1044 1.390 1_554 S
C1040 C1034 1.465 . S
C1040 C1039 1.396 . S
C1040 C1041 1.399 . S
C1041 H1027 0.929 . S
C1041 C1040 1.399 . S
C1041 C1042 1.385 . S
C1042 H1028 0.931 1_554 S
C1042 C1041 1.385 . S
C1042 C1043 1.389 1_554 S
C1043 C1042 1.389 1_556 S
C1043 C1044 1.387 . S
C1044 H1029 0.930 . S
C1044 C1039 1.390 1_556 S
C1044 C1043 1.387 . S
H1045 C1057 0.930 . S
H1046 C1059 0.930 . S
H1047 C1060 0.930 . S
H1048 C1064 0.959 . S
H1049 C1064 0.959 . S
H1050 C1064 0.961 . S
H1051 C1065 0.960 . S
H1052 C1065 0.961 . S
H1053 C1065 0.959 . S
H1054 C1068 0.929 . S
H1055 C1069 0.931 . S
H1056 C1071 0.930 . S
C1057 H1045 0.930 . S
C1057 C1058 1.399 . S
C1057 C1062 1.399 . S
C1058 C1057 1.399 . S
C1058 C1059 1.376 . S
C1059 H1046 0.930 . S
C1059 C1058 1.376 . S
C1059 C1060 1.388 . S
C1060 H1047 0.930 . S
C1060 C1059 1.388 . S
C1060 C1061 1.390 . S
C1061 C1060 1.390 . S
C1061 C1062 1.394 . S
C1061 C1067 1.465 . S
C1062 C1057 1.399 . S
C1062 C1061 1.394 . S
C1062 C1063 1.516 . S
C1063 C1062 1.516 . S
C1063 C1064 1.502 . S
C1063 C1065 1.561 . S
C1063 C1066 1.526 . S
C1064 H1048 0.959 . S
C1064 H1049 0.959 . S
C1064 H1050 0.961 . S
C1064 C1063 1.502 . S
C1065 H1051 0.960 . S
C1065 H1052 0.961 . S
C1065 H1053 0.959 . S
C1065 C1063 1.561 . S
C1066 C1063 1.526 . S
C1066 C1067 1.396 . S
C1066 C1071 1.390 . S
C1067 C1061 1.465 . S
C1067 C1066 1.396 . S
C1067 C1068 1.399 . S
C1068 H1054 0.929 . S
C1068 C1067 1.399 . S
C1068 C1069 1.385 . S
C1069 H1055 0.931 . S
C1069 C1068 1.385 . S
C1069 C1070 1.389 . S
C1070 C1069 1.389 . S
C1070 C1071 1.387 . S
C1071 H1056 0.930 . S
C1071 C1066 1.390 . S
C1071 C1070 1.387 . S
H1072 C1084 0.930 . S
H1073 C1086 0.930 . S
H1074 C1087 0.930 . S
H1075 C1091 0.959 . S
H1076 C1091 0.959 . S
H1077 C1091 0.961 . S
H1078 C1092 0.960 . S
H1079 C1092 0.955 1_455 S
H1080 C1092 0.959 . S
H1081 C1095 0.929 . S
H1082 C1096 0.931 . S
H1083 C1098 0.930 . S
C1084 H1072 0.930 . S
C1084 C1085 1.399 . S
C1084 C1089 1.399 . S
C1085 C1084 1.399 . S
C1085 C1086 1.376 1_455 S
C1086 H1073 0.930 . S
C1086 C1085 1.376 1_655 S
C1086 C1087 1.388 . S
C1087 H1074 0.930 . S
C1087 C1086 1.388 . S
C1087 C1088 1.390 . S
C1088 C1087 1.390 . S
C1088 C1089 1.394 1_655 S
C1088 C1094 1.465 . S
C1089 C1084 1.399 . S
C1089 C1088 1.394 1_455 S
C1089 C1090 1.516 . S
C1090 C1089 1.516 . S
C1090 C1091 1.502 . S
C1090 C1092 1.561 1_455 S
C1090 C1093 1.526 . S
C1091 H1075 0.959 . S
C1091 H1076 0.959 . S
C1091 H1077 0.961 . S
C1091 C1090 1.502 . S
C1092 H1078 0.960 . S
C1092 H1079 0.955 1_655 S
C1092 H1080 0.959 . S
C1092 C1090 1.561 1_655 S
C1093 C1090 1.526 . S
C1093 C1094 1.396 1_455 S
C1093 C1098 1.390 . S
C1094 C1088 1.465 . S
C1094 C1093 1.396 1_655 S
C1094 C1095 1.399 . S
C1095 H1081 0.929 . S
C1095 C1094 1.399 . S
C1095 C1096 1.385 . S
C1096 H1082 0.931 . S
C1096 C1095 1.385 . S
C1096 C1097 1.389 1_655 S
C1097 C1096 1.389 1_455 S
C1097 C1098 1.387 . S
C1098 H1083 0.930 . S
C1098 C1093 1.390 . S
C1098 C1097 1.387 . S
H1099 C1111 0.930 . S
H1100 C1113 0.930 . S
H1101 C1114 0.930 . S
H1102 C1118 0.959 . S
H1103 C1118 0.959 . S
H1104 C1118 0.961 . S
H1105 C1119 0.960 . S
H1106 C1119 0.961 . S
H1107 C1119 0.959 . S
H1108 C1122 0.929 . S
H1109 C1123 0.931 . S
H1110 C1125 0.930 . S
C1111 H1099 0.930 . S
C1111 C1112 1.399 . S
C1111 C1116 1.399 . S
C1112 C1111 1.399 . S
C1112 C1113 1.376 . S
C1113 H1100 0.930 . S
C1113 C1112 1.376 . S
C1113 C1114 1.388 . S
C1114 H1101 0.930 . S
C1114 C1113 1.388 . S
C1114 C1115 1.390 1_655 S
C1115 C1114 1.390 1_455 S
C1115 C1116 1.394 1_455 S
C1115 C1121 1.465 . S
C1116 C1111 1.399 . S
C1116 C1115 1.394 1_655 S
C1116 C1117 1.516 1_655 S
C1117 C1116 1.516 1_455 S
C1117 C1118 1.502 . S
C1117 C1119 1.561 . S
C1117 C1120 1.526 . S
C1118 H1102 0.959 . S
C1118 H1103 0.959 . S
C1118 H1104 0.961 . S
C1118 C1117 1.502 . S
C1119 H1105 0.960 . S
C1119 H1106 0.961 . S
C1119 H1107 0.959 . S
C1119 C1117 1.561 . S
C1120 C1117 1.526 . S
C1120 C1121 1.396 . S
C1120 C1125 1.390 . S
C1121 C1115 1.465 . S
C1121 C1120 1.396 . S
C1121 C1122 1.399 . S
C1122 H1108 0.929 . S
C1122 C1121 1.399 . S
C1122 C1123 1.385 . S
C1123 H1109 0.931 . S
C1123 C1122 1.385 . S
C1123 C1124 1.389 . S
C1124 C1123 1.389 . S
C1124 C1125 1.387 . S
C1125 H1110 0.930 . S
C1125 C1120 1.390 . S
C1125 C1124 1.387 . S
H1126 C1138 0.930 . S
H1127 C1140 0.930 . S
H1128 C1141 0.930 . S
H1129 C1145 0.959 . S
H1130 C1145 0.959 . S
H1131 C1145 0.961 . S
H1132 C1146 0.960 . S
H1133 C1146 0.961 . S
H1134 C1146 0.959 . S
H1135 C1149 0.929 . S
H1136 C1150 0.931 . S
H1137 C1152 0.930 . S
C1138 H1126 0.930 . S
C1138 C1139 1.399 . S
C1138 C1143 1.399 . S
C1139 C1138 1.399 . S
C1139 C1140 1.376 . S
C1140 H1127 0.930 . S
C1140 C1139 1.376 . S
C1140 C1141 1.388 . S
C1141 H1128 0.930 . S
C1141 C1140 1.388 . S
C1141 C1142 1.390 . S
C1142 C1141 1.390 . S
C1142 C1143 1.394 . S
C1142 C1148 1.465 . S
C1143 C1138 1.399 . S
C1143 C1142 1.394 . S
C1143 C1144 1.516 . S
C1144 C1143 1.516 . S
C1144 C1145 1.502 . S
C1144 C1146 1.561 . S
C1144 C1147 1.526 . S
C1145 H1129 0.959 . S
C1145 H1130 0.959 . S
C1145 H1131 0.961 . S
C1145 C1144 1.502 . S
C1146 H1132 0.960 . S
C1146 H1133 0.961 . S
C1146 H1134 0.959 . S
C1146 C1144 1.561 . S
C1147 C1144 1.526 . S
C1147 C1148 1.396 . S
C1147 C1152 1.390 . S
C1148 C1142 1.465 . S
C1148 C1147 1.396 . S
C1148 C1149 1.399 . S
C1149 H1135 0.929 . S
C1149 C1148 1.399 . S
C1149 C1150 1.385 . S
C1150 H1136 0.931 . S
C1150 C1149 1.385 . S
C1150 C1151 1.389 . S
C1151 C1150 1.389 . S
C1151 C1152 1.387 . S
C1152 H1137 0.930 . S
C1152 C1147 1.390 . S
C1152 C1151 1.387 . S
H1153 C1165 0.930 . S
H1154 C1167 0.930 . S
H1155 C1168 0.930 . S
H1156 C1172 0.959 . S
H1157 C1172 0.959 . S
H1158 C1172 0.961 . S
H1159 C1173 0.960 . S
H1160 C1173 0.961 . S
H1161 C1173 0.959 . S
H1162 C1176 0.929 . S
H1163 C1177 0.931 . S
H1164 C1179 0.930 . S
C1165 H1153 0.930 . S
C1165 C1166 1.399 . S
C1165 C1170 1.399 . S
C1166 C1165 1.399 . S
C1166 C1167 1.376 . S
C1167 H1154 0.930 . S
C1167 C1166 1.376 . S
C1167 C1168 1.388 . S
C1168 H1155 0.930 . S
C1168 C1167 1.388 . S
C1168 C1169 1.390 . S
C1169 C1168 1.390 . S
C1169 C1170 1.394 . S
C1169 C1175 1.465 . S
C1170 C1165 1.399 . S
C1170 C1169 1.394 . S
C1170 C1171 1.516 . S
C1171 C1170 1.516 . S
C1171 C1172 1.502 . S
C1171 C1173 1.561 . S
C1171 C1174 1.526 . S
C1172 H1156 0.959 . S
C1172 H1157 0.959 . S
C1172 H1158 0.961 . S
C1172 C1171 1.502 . S
C1173 H1159 0.960 . S
C1173 H1160 0.961 . S
C1173 H1161 0.959 . S
C1173 C1171 1.561 . S
C1174 C1171 1.526 . S
C1174 C1175 1.396 . S
C1174 C1179 1.390 . S
C1175 C1169 1.465 . S
C1175 C1174 1.396 . S
C1175 C1176 1.399 . S
C1176 H1162 0.929 . S
C1176 C1175 1.399 . S
C1176 C1177 1.385 . S
C1177 H1163 0.931 . S
C1177 C1176 1.385 . S
C1177 C1178 1.389 . S
C1178 C1177 1.389 . S
C1178 C1179 1.387 . S
C1179 H1164 0.930 . S
C1179 C1174 1.390 . S
C1179 C1178 1.387 . S
H1180 C1192 0.930 . S
H1181 C1194 0.930 . S
H1182 C1195 0.930 . S
H1183 C1199 0.959 . S
H1184 C1199 0.959 . S
H1185 C1199 0.961 . S
H1186 C1200 0.960 . S
H1187 C1200 0.961 . S
H1188 C1200 0.959 1_655 S
H1189 C1203 0.929 . S
H1190 C1204 0.923 1_655 S
H1191 C1206 0.930 . S
C1192 H1180 0.930 . S
C1192 C1193 1.399 . S
C1192 C1197 1.399 . S
C1193 C1192 1.399 . S
C1193 C1194 1.376 1_455 S
C1194 H1181 0.930 . S
C1194 C1193 1.376 1_655 S
C1194 C1195 1.388 . S
C1195 H1182 0.930 . S
C1195 C1194 1.388 . S
C1195 C1196 1.390 1_655 S
C1196 C1195 1.390 1_455 S
C1196 C1197 1.394 . S
C1196 C1202 1.465 . S
C1197 C1192 1.399 . S
C1197 C1196 1.394 . S
C1197 C1198 1.516 . S
C1198 C1197 1.516 . S
C1198 C1199 1.502 . S
C1198 C1200 1.561 . S
C1198 C1201 1.526 . S
C1199 H1183 0.959 . S
C1199 H1184 0.959 . S
C1199 H1185 0.961 . S
C1199 C1198 1.502 . S
C1200 H1186 0.960 . S
C1200 H1187 0.961 . S
C1200 H1188 0.959 1_455 S
C1200 C1198 1.561 . S
C1201 C1198 1.526 . S
C1201 C1202 1.396 . S
C1201 C1206 1.390 . S
C1202 C1196 1.465 . S
C1202 C1201 1.396 . S
C1202 C1203 1.399 1_455 S
C1203 H1189 0.929 . S
C1203 C1202 1.399 1_655 S
C1203 C1204 1.385 1_655 S
C1204 H1190 0.923 1_455 S
C1204 C1203 1.385 1_455 S
C1204 C1205 1.389 . S
C1205 C1204 1.389 . S
C1205 C1206 1.387 . S
C1206 H1191 0.930 . S
C1206 C1201 1.390 . S
C1206 C1205 1.387 . S
H1207 C1219 0.930 . S
H1208 C1221 0.930 . S
H1209 C1222 0.930 . S
H1210 C1226 0.959 . S
H1211 C1226 0.959 . S
H1212 C1226 0.961 . S
H1213 C1227 0.960 . S
H1214 C1227 0.961 . S
H1215 C1227 0.959 . S
H1216 C1230 0.929 . S
H1217 C1231 0.931 . S
H1218 C1233 0.930 . S
C1219 H1207 0.930 . S
C1219 C1220 1.399 . S
C1219 C1224 1.399 . S
C1220 C1219 1.399 . S
C1220 C1221 1.376 . S
C1221 H1208 0.930 . S
C1221 C1220 1.376 . S
C1221 C1222 1.388 . S
C1222 H1209 0.930 . S
C1222 C1221 1.388 . S
C1222 C1223 1.390 . S
C1223 C1222 1.390 . S
C1223 C1224 1.394 . S
C1223 C1229 1.465 . S
C1224 C1219 1.399 . S
C1224 C1223 1.394 . S
C1224 C1225 1.516 . S
C1225 C1224 1.516 . S
C1225 C1226 1.502 . S
C1225 C1227 1.561 . S
C1225 C1228 1.526 . S
C1226 H1210 0.959 . S
C1226 H1211 0.959 . S
C1226 H1212 0.961 . S
C1226 C1225 1.502 . S
C1227 H1213 0.960 . S
C1227 H1214 0.961 . S
C1227 H1215 0.959 . S
C1227 C1225 1.561 . S
C1228 C1225 1.526 . S
C1228 C1229 1.396 . S
C1228 C1233 1.390 . S
C1229 C1223 1.465 . S
C1229 C1228 1.396 . S
C1229 C1230 1.399 . S
C1230 H1216 0.929 . S
C1230 C1229 1.399 . S
C1230 C1231 1.385 . S
C1231 H1217 0.931 . S
C1231 C1230 1.385 . S
C1231 C1232 1.389 . S
C1232 C1231 1.389 . S
C1232 C1233 1.387 . S
C1233 H1218 0.930 . S
C1233 C1228 1.390 . S
C1233 C1232 1.387 . S
H1234 C1246 0.930 . S
H1235 C1248 0.930 . S
H1236 C1249 0.930 . S
H1237 C1253 0.959 . S
H1238 C1253 0.959 . S
H1239 C1253 0.961 . S
H1240 C1254 0.960 . S
H1241 C1254 0.961 . S
H1242 C1254 0.959 . S
H1243 C1257 0.929 . S
H1244 C1258 0.931 . S
H1245 C1260 0.930 . S
C1246 H1234 0.930 . S
C1246 C1247 1.399 . S
C1246 C1251 1.399 . S
C1247 C1246 1.399 . S
C1247 C1248 1.376 . S
C1248 H1235 0.930 . S
C1248 C1247 1.376 . S
C1248 C1249 1.388 . S
C1249 H1236 0.930 . S
C1249 C1248 1.388 . S
C1249 C1250 1.390 . S
C1250 C1249 1.390 . S
C1250 C1251 1.394 . S
C1250 C1256 1.465 . S
C1251 C1246 1.399 . S
C1251 C1250 1.394 . S
C1251 C1252 1.516 . S
C1252 C1251 1.516 . S
C1252 C1253 1.502 . S
C1252 C1254 1.561 . S
C1252 C1255 1.526 . S
C1253 H1237 0.959 . S
C1253 H1238 0.959 . S
C1253 H1239 0.961 . S
C1253 C1252 1.502 . S
C1254 H1240 0.960 . S
C1254 H1241 0.961 . S
C1254 H1242 0.959 . S
C1254 C1252 1.561 . S
C1255 C1252 1.526 . S
C1255 C1256 1.396 . S
C1255 C1260 1.390 . S
C1256 C1250 1.465 . S
C1256 C1255 1.396 . S
C1256 C1257 1.399 . S
C1257 H1243 0.929 . S
C1257 C1256 1.399 . S
C1257 C1258 1.385 . S
C1258 H1244 0.931 . S
C1258 C1257 1.385 . S
C1258 C1259 1.389 . S
C1259 C1258 1.389 . S
C1259 C1260 1.387 . S
C1260 H1245 0.930 . S
C1260 C1255 1.390 . S
C1260 C1259 1.387 . S
H1261 C1273 0.930 . S
H1262 C1275 0.930 . S
H1263 C1276 0.930 . S
H1264 C1280 0.959 1_655 S
H1265 C1280 0.959 . S
H1266 C1280 0.961 . S
H1267 C1281 0.960 . S
H1268 C1281 0.961 . S
H1269 C1281 0.959 . S
H1270 C1284 0.929 . S
H1271 C1285 0.931 . S
H1272 C1287 0.930 . S
C1273 H1261 0.930 . S
C1273 C1274 1.399 . S
C1273 C1278 1.399 . S
C1274 C1273 1.399 . S
C1274 C1275 1.376 . S
C1275 H1262 0.930 . S
C1275 C1274 1.376 . S
C1275 C1276 1.388 . S
C1276 H1263 0.930 . S
C1276 C1275 1.388 . S
C1276 C1277 1.390 . S
C1277 C1276 1.390 . S
C1277 C1278 1.394 . S
C1277 C1283 1.465 1_455 S
C1278 C1273 1.399 . S
C1278 C1277 1.394 . S
C1278 C1279 1.516 . S
C1279 C1278 1.516 . S
C1279 C1280 1.502 . S
C1279 C1281 1.561 . S
C1279 C1282 1.526 1_455 S
C1280 H1264 0.959 1_455 S
C1280 H1265 0.959 . S
C1280 H1266 0.961 . S
C1280 C1279 1.502 . S
C1281 H1267 0.960 . S
C1281 H1268 0.961 . S
C1281 H1269 0.959 . S
C1281 C1279 1.561 . S
C1282 C1279 1.526 1_655 S
C1282 C1283 1.396 . S
C1282 C1287 1.390 . S
C1283 C1277 1.465 1_655 S
C1283 C1282 1.396 . S
C1283 C1284 1.399 . S
C1284 H1270 0.929 . S
C1284 C1283 1.399 . S
C1284 C1285 1.385 . S
C1285 H1271 0.931 . S
C1285 C1284 1.385 . S
C1285 C1286 1.389 . S
C1286 C1285 1.389 . S
C1286 C1287 1.387 . S
C1287 H1272 0.930 . S
C1287 C1282 1.390 . S
C1287 C1286 1.387 . S
H1288 C1300 0.948 . S
H1289 C1302 0.940 . S
H1290 C1303 0.930 . S
H1291 C1307 0.959 . S
H1292 C1307 0.959 . S
H1293 C1307 0.961 . S
H1294 C1308 0.960 . S
H1295 C1308 0.961 . S
H1296 C1308 0.959 . S
H1297 C1311 0.929 1_554 S
H1298 C1312 0.931 . S
H1299 C1314 0.930 1_655 S
C1300 H1288 0.948 . S
C1300 C1301 1.392 1_655 S
C1300 C1305 1.389 1_655 S
C1301 C1300 1.392 1_455 S
C1301 C1302 1.376 . S
C1302 H1289 0.940 . S
C1302 C1301 1.376 . S
C1302 C1303 1.388 1_545 S
C1303 H1290 0.930 . S
C1303 C1302 1.388 1_565 S
C1303 C1304 1.390 . S
C1304 C1303 1.390 . S
C1304 C1305 1.394 1_565 S
C1304 C1310 1.465 1_554 S
C1305 C1300 1.389 1_455 S
C1305 C1304 1.394 1_545 S
C1305 C1306 1.516 1_454 S
C1306 C1305 1.516 1_656 S
C1306 C1307 1.502 . S
C1306 C1308 1.561 1_655 S
C1306 C1309 1.526 1_645 S
C1307 H1291 0.959 . S
C1307 H1292 0.959 . S
C1307 H1293 0.961 . S
C1307 C1306 1.502 . S
C1308 H1294 0.960 . S
C1308 H1295 0.961 . S
C1308 H1296 0.959 . S
C1308 C1306 1.561 1_455 S
C1309 C1306 1.526 1_465 S
C1309 C1310 1.396 . S
C1309 C1314 1.390 . S
C1310 C1304 1.465 1_556 S
C1310 C1309 1.396 . S
C1310 C1311 1.399 . S
C1311 H1297 0.929 1_556 S
C1311 C1310 1.399 . S
C1311 C1312 1.385 . S
C1312 H1298 0.931 . S
C1312 C1311 1.385 . S
C1312 C1313 1.389 . S
C1313 C1312 1.389 . S
C1313 C1314 1.387 . S
C1314 H1299 0.930 1_455 S
C1314 C1309 1.390 . S
C1314 C1313 1.387 . S
H1315 C1327 0.930 . S
H1316 C1329 0.930 . S
H1317 C1330 0.930 . S
H1318 C1334 0.959 . S
H1319 C1334 0.959 . S
H1320 C1334 0.961 . S
H1321 C1335 0.960 . S
H1322 C1335 0.961 . S
H1323 C1335 0.959 . S
H1324 C1338 0.929 . S
H1325 C1339 0.931 . S
H1326 C1341 0.930 . S
C1327 H1315 0.930 . S
C1327 C1328 1.399 . S
C1327 C1332 1.399 . S
C1328 C1327 1.399 . S
C1328 C1329 1.376 . S
C1329 H1316 0.930 . S
C1329 C1328 1.376 . S
C1329 C1330 1.388 . S
C1330 H1317 0.930 . S
C1330 C1329 1.388 . S
C1330 C1331 1.390 . S
C1331 C1330 1.390 . S
C1331 C1332 1.394 . S
C1331 C1337 1.465 . S
C1332 C1327 1.399 . S
C1332 C1331 1.394 . S
C1332 C1333 1.516 . S
C1333 C1332 1.516 . S
C1333 C1334 1.502 . S
C1333 C1335 1.561 . S
C1333 C1336 1.526 . S
C1334 H1318 0.959 . S
C1334 H1319 0.959 . S
C1334 H1320 0.961 . S
C1334 C1333 1.502 . S
C1335 H1321 0.960 . S
C1335 H1322 0.961 . S
C1335 H1323 0.959 . S
C1335 C1333 1.561 . S
C1336 C1333 1.526 . S
C1336 C1337 1.396 . S
C1336 C1341 1.390 . S
C1337 C1331 1.465 . S
C1337 C1336 1.396 . S
C1337 C1338 1.399 . S
C1338 H1324 0.929 . S
C1338 C1337 1.399 . S
C1338 C1339 1.385 . S
C1339 H1325 0.931 . S
C1339 C1338 1.385 . S
C1339 C1340 1.389 . S
C1340 C1339 1.389 . S
C1340 C1341 1.387 . S
C1341 H1326 0.930 . S
C1341 C1336 1.390 . S
C1341 C1340 1.387 . S
H1342 C1354 0.930 . S
H1343 C1356 0.930 . S
H1344 C1357 0.930 . S
H1345 C1361 0.959 . S
H1346 C1361 0.959 . S
H1347 C1361 0.961 . S
H1348 C1362 0.960 . S
H1349 C1362 0.961 . S
H1350 C1362 0.959 . S
H1351 C1365 0.929 . S
H1352 C1366 0.931 . S
H1353 C1368 0.930 . S
C1354 H1342 0.930 . S
C1354 C1355 1.399 . S
C1354 C1359 1.399 . S
C1355 C1354 1.399 . S
C1355 C1356 1.376 . S
C1356 H1343 0.930 . S
C1356 C1355 1.376 . S
C1356 C1357 1.388 . S
C1357 H1344 0.930 . S
C1357 C1356 1.388 . S
C1357 C1358 1.390 . S
C1358 C1357 1.390 . S
C1358 C1359 1.394 . S
C1358 C1364 1.465 . S
C1359 C1354 1.399 . S
C1359 C1358 1.394 . S
C1359 C1360 1.516 1_545 S
C1360 C1359 1.516 1_565 S
C1360 C1361 1.502 . S
C1360 C1362 1.561 . S
C1360 C1363 1.526 . S
C1361 H1345 0.959 . S
C1361 H1346 0.959 . S
C1361 H1347 0.961 . S
C1361 C1360 1.502 . S
C1362 H1348 0.960 . S
C1362 H1349 0.961 . S
C1362 H1350 0.959 . S
C1362 C1360 1.561 . S
C1363 C1360 1.526 . S
C1363 C1364 1.396 1_565 S
C1363 C1368 1.390 . S
C1364 C1358 1.465 . S
C1364 C1363 1.396 1_545 S
C1364 C1365 1.399 . S
C1365 H1351 0.929 . S
C1365 C1364 1.399 . S
C1365 C1366 1.385 1_545 S
C1366 H1352 0.931 . S
C1366 C1365 1.385 1_565 S
C1366 C1367 1.389 . S
C1367 C1366 1.389 . S
C1367 C1368 1.387 . S
C1368 H1353 0.930 . S
C1368 C1363 1.390 . S
C1368 C1367 1.387 . S
H1369 C1381 0.930 . S
H1370 C1383 0.930 . S
H1371 C1384 0.930 . S
H1372 C1388 0.959 . S
H1373 C1388 0.959 . S
H1374 C1388 0.961 . S
H1375 C1389 0.960 . S
H1376 C1389 0.961 . S
H1377 C1389 0.959 . S
H1378 C1392 0.929 . S
H1379 C1393 0.931 . S
H1380 C1395 0.930 . S
C1381 H1369 0.930 . S
C1381 C1382 1.399 . S
C1381 C1386 1.399 . S
C1382 C1381 1.399 . S
C1382 C1383 1.376 . S
C1383 H1370 0.930 . S
C1383 C1382 1.376 . S
C1383 C1384 1.388 . S
C1384 H1371 0.930 . S
C1384 C1383 1.388 . S
C1384 C1385 1.390 . S
C1385 C1384 1.390 . S
C1385 C1386 1.394 . S
C1385 C1391 1.465 . S
C1386 C1381 1.399 . S
C1386 C1385 1.394 . S
C1386 C1387 1.516 . S
C1387 C1386 1.516 . S
C1387 C1388 1.502 . S
C1387 C1389 1.561 . S
C1387 C1390 1.526 . S
C1388 H1372 0.959 . S
C1388 H1373 0.959 . S
C1388 H1374 0.961 . S
C1388 C1387 1.502 . S
C1389 H1375 0.960 . S
C1389 H1376 0.961 . S
C1389 H1377 0.959 . S
C1389 C1387 1.561 . S
C1390 C1387 1.526 . S
C1390 C1391 1.396 . S
C1390 C1395 1.390 . S
C1391 C1385 1.465 . S
C1391 C1390 1.396 . S
C1391 C1392 1.399 . S
C1392 H1378 0.929 . S
C1392 C1391 1.399 . S
C1392 C1393 1.385 . S
C1393 H1379 0.931 . S
C1393 C1392 1.385 . S
C1393 C1394 1.389 . S
C1394 C1393 1.389 . S
C1394 C1395 1.387 . S
C1395 H1380 0.930 . S
C1395 C1390 1.390 . S
C1395 C1394 1.387 . S
H1396 C1408 0.930 . S
H1397 C1410 0.930 . S
H1398 C1411 0.930 . S
H1399 C1415 0.959 . S
H1400 C1415 0.959 . S
H1401 C1415 0.961 . S
H1402 C1416 0.960 . S
H1403 C1416 0.961 . S
H1404 C1416 0.959 . S
H1405 C1419 0.929 . S
H1406 C1420 0.931 . S
H1407 C1422 0.930 . S
C1408 H1396 0.930 . S
C1408 C1409 1.399 . S
C1408 C1413 1.399 . S
C1409 C1408 1.399 . S
C1409 C1410 1.376 . S
C1410 H1397 0.930 . S
C1410 C1409 1.376 . S
C1410 C1411 1.388 . S
C1411 H1398 0.930 . S
C1411 C1410 1.388 . S
C1411 C1412 1.390 . S
C1412 C1411 1.390 . S
C1412 C1413 1.394 . S
C1412 C1418 1.465 . S
C1413 C1408 1.399 . S
C1413 C1412 1.394 . S
C1413 C1414 1.516 . S
C1414 C1413 1.516 . S
C1414 C1415 1.502 . S
C1414 C1416 1.561 . S
C1414 C1417 1.526 . S
C1415 H1399 0.959 . S
C1415 H1400 0.959 . S
C1415 H1401 0.961 . S
C1415 C1414 1.502 . S
C1416 H1402 0.960 . S
C1416 H1403 0.961 . S
C1416 H1404 0.959 . S
C1416 C1414 1.561 . S
C1417 C1414 1.526 . S
C1417 C1418 1.396 . S
C1417 C1422 1.390 . S
C1418 C1412 1.465 . S
C1418 C1417 1.396 . S
C1418 C1419 1.399 . S
C1419 H1405 0.929 . S
C1419 C1418 1.399 . S
C1419 C1420 1.385 . S
C1420 H1406 0.931 . S
C1420 C1419 1.385 . S
C1420 C1421 1.389 . S
C1421 C1420 1.389 . S
C1421 C1422 1.387 . S
C1422 H1407 0.930 . S
C1422 C1417 1.390 . S
C1422 C1421 1.387 . S
H1423 C1435 0.930 . S
H1424 C1437 0.930 . S
H1425 C1438 0.930 . S
H1426 C1442 0.959 . S
H1427 C1442 0.959 . S
H1428 C1442 0.961 . S
H1429 C1443 0.960 . S
H1430 C1443 0.961 . S
H1431 C1443 0.959 . S
H1432 C1446 0.929 . S
H1433 C1447 0.931 . S
H1434 C1449 0.930 . S
C1435 H1423 0.930 . S
C1435 C1436 1.399 . S
C1435 C1440 1.399 . S
C1436 C1435 1.399 . S
C1436 C1437 1.376 . S
C1437 H1424 0.930 . S
C1437 C1436 1.376 . S
C1437 C1438 1.388 . S
C1438 H1425 0.930 . S
C1438 C1437 1.388 . S
C1438 C1439 1.390 . S
C1439 C1438 1.390 . S
C1439 C1440 1.394 . S
C1439 C1445 1.465 . S
C1440 C1435 1.399 . S
C1440 C1439 1.394 . S
C1440 C1441 1.516 . S
C1441 C1440 1.516 . S
C1441 C1442 1.502 . S
C1441 C1443 1.561 . S
C1441 C1444 1.526 . S
C1442 H1426 0.959 . S
C1442 H1427 0.959 . S
C1442 H1428 0.961 . S
C1442 C1441 1.502 . S
C1443 H1429 0.960 . S
C1443 H1430 0.961 . S
C1443 H1431 0.959 . S
C1443 C1441 1.561 . S
C1444 C1441 1.526 . S
C1444 C1445 1.396 . S
C1444 C1449 1.390 . S
C1445 C1439 1.465 . S
C1445 C1444 1.396 . S
C1445 C1446 1.399 . S
C1446 H1432 0.929 . S
C1446 C1445 1.399 . S
C1446 C1447 1.385 . S
C1447 H1433 0.931 . S
C1447 C1446 1.385 . S
C1447 C1448 1.389 . S
C1448 C1447 1.389 . S
C1448 C1449 1.387 . S
C1449 H1434 0.930 . S
C1449 C1444 1.390 . S
C1449 C1448 1.387 . S
H1450 C1462 0.930 . S
H1451 C1464 0.930 . S
H1452 C1465 0.930 . S
H1453 C1469 0.959 . S
H1454 C1469 0.959 . S
H1455 C1469 0.961 . S
H1456 C1470 0.960 . S
H1457 C1470 0.961 . S
H1458 C1470 0.959 . S
H1459 C1473 0.929 . S
H1460 C1474 0.931 . S
H1461 C1476 0.930 . S
C1462 H1450 0.930 . S
C1462 C1463 1.399 . S
C1462 C1467 1.399 . S
C1463 C1462 1.399 . S
C1463 C1464 1.376 . S
C1464 H1451 0.930 . S
C1464 C1463 1.376 . S
C1464 C1465 1.388 . S
C1465 H1452 0.930 . S
C1465 C1464 1.388 . S
C1465 C1466 1.390 . S
C1466 C1465 1.390 . S
C1466 C1467 1.394 . S
C1466 C1472 1.465 . S
C1467 C1462 1.399 . S
C1467 C1466 1.394 . S
C1467 C1468 1.516 . S
C1468 C1467 1.516 . S
C1468 C1469 1.502 . S
C1468 C1470 1.561 . S
C1468 C1471 1.526 . S
C1469 H1453 0.959 . S
C1469 H1454 0.959 . S
C1469 H1455 0.961 . S
C1469 C1468 1.502 . S
C1470 H1456 0.960 . S
C1470 H1457 0.961 . S
C1470 H1458 0.959 . S
C1470 C1468 1.561 . S
C1471 C1468 1.526 . S
C1471 C1472 1.396 . S
C1471 C1476 1.390 . S
C1472 C1466 1.465 . S
C1472 C1471 1.396 . S
C1472 C1473 1.399 . S
C1473 H1459 0.929 . S
C1473 C1472 1.399 . S
C1473 C1474 1.385 . S
C1474 H1460 0.931 . S
C1474 C1473 1.385 . S
C1474 C1475 1.389 . S
C1475 C1474 1.389 . S
C1475 C1476 1.387 . S
C1476 H1461 0.930 . S
C1476 C1471 1.390 . S
C1476 C1475 1.387 . S
H1477 C1489 0.930 . S
H1478 C1491 0.930 . S
H1479 C1492 0.930 1_554 S
H1480 C1496 0.959 1_655 S
H1481 C1496 0.959 . S
H1482 C1496 0.961 . S
H1483 C1497 0.960 . S
H1484 C1497 0.961 . S
H1485 C1497 0.959 . S
H1486 C1500 0.929 . S
H1487 C1501 0.931 . S
H1488 C1503 0.930 . S
C1489 H1477 0.930 . S
C1489 C1490 1.399 . S
C1489 C1494 1.399 . S
C1490 C1489 1.399 . S
C1490 C1491 1.376 . S
C1491 H1478 0.930 . S
C1491 C1490 1.376 . S
C1491 C1492 1.388 . S
C1492 H1479 0.930 1_556 S
C1492 C1491 1.388 . S
C1492 C1493 1.390 . S
C1493 C1492 1.390 . S
C1493 C1494 1.394 . S
C1493 C1499 1.465 1_556 S
C1494 C1489 1.399 . S
C1494 C1493 1.394 . S
C1494 C1495 1.516 . S
C1495 C1494 1.516 . S
C1495 C1496 1.502 . S
C1495 C1497 1.561 . S
C1495 C1498 1.526 1_556 S
C1496 H1480 0.959 1_455 S
C1496 H1481 0.959 . S
C1496 H1482 0.961 . S
C1496 C1495 1.502 . S
C1497 H1483 0.960 . S
C1497 H1484 0.961 . S
C1497 H1485 0.959 . S
C1497 C1495 1.561 . S
C1498 C1495 1.526 1_554 S
C1498 C1499 1.396 . S
C1498 C1503 1.390 . S
C1499 C1493 1.465 1_554 S
C1499 C1498 1.396 . S
C1499 C1500 1.399 . S
C1500 H1486 0.929 . S
C1500 C1499 1.399 . S
C1500 C1501 1.385 . S
C1501 H1487 0.931 . S
C1501 C1500 1.385 . S
C1501 C1502 1.389 . S
C1502 C1501 1.389 . S
C1502 C1503 1.387 . S
C1503 H1488 0.930 . S
C1503 C1498 1.390 . S
C1503 C1502 1.387 . S
H1504 C1516 0.930 . S
H1505 C1518 0.930 . S
H1506 C1519 0.930 . S
H1507 C1523 0.959 . S
H1508 C1523 0.959 . S
H1509 C1523 0.961 . S
H1510 C1524 0.960 . S
H1511 C1524 0.961 . S
H1512 C1524 0.959 . S
H1513 C1527 0.929 . S
H1514 C1528 0.931 . S
H1515 C1530 0.930 . S
C1516 H1504 0.930 . S
C1516 C1517 1.399 . S
C1516 C1521 1.399 . S
C1517 C1516 1.399 . S
C1517 C1518 1.376 . S
C1518 H1505 0.930 . S
C1518 C1517 1.376 . S
C1518 C1519 1.388 . S
C1519 H1506 0.930 . S
C1519 C1518 1.388 . S
C1519 C1520 1.390 . S
C1520 C1519 1.390 . S
C1520 C1521 1.394 . S
C1520 C1526 1.465 . S
C1521 C1516 1.399 . S
C1521 C1520 1.394 . S
C1521 C1522 1.516 . S
C1522 C1521 1.516 . S
C1522 C1523 1.502 . S
C1522 C1524 1.561 . S
C1522 C1525 1.526 . S
C1523 H1507 0.959 . S
C1523 H1508 0.959 . S
C1523 H1509 0.961 . S
C1523 C1522 1.502 . S
C1524 H1510 0.960 . S
C1524 H1511 0.961 . S
C1524 H1512 0.959 . S
C1524 C1522 1.561 . S
C1525 C1522 1.526 . S
C1525 C1526 1.396 . S
C1525 C1530 1.390 . S
C1526 C1520 1.465 . S
C1526 C1525 1.396 . S
C1526 C1527 1.399 . S
C1527 H1513 0.929 . S
C1527 C1526 1.399 . S
C1527 C1528 1.385 . S
C1528 H1514 0.931 . S
C1528 C1527 1.385 . S
C1528 C1529 1.389 . S
C1529 C1528 1.389 . S
C1529 C1530 1.387 . S
C1530 H1515 0.930 . S
C1530 C1525 1.390 . S
C1530 C1529 1.387 . S
H1531 C1543 0.930 . S
H1532 C1545 0.930 . S
H1533 C1546 0.930 . S
H1534 C1550 0.959 . S
H1535 C1550 0.959 . S
H1536 C1550 0.961 . S
H1537 C1551 0.960 . S
H1538 C1551 0.961 . S
H1539 C1551 0.959 . S
H1540 C1554 0.929 . S
H1541 C1555 0.931 . S
H1542 C1557 0.930 . S
C1543 H1531 0.930 . S
C1543 C1544 1.399 . S
C1543 C1548 1.399 . S
C1544 C1543 1.399 . S
C1544 C1545 1.376 . S
C1545 H1532 0.930 . S
C1545 C1544 1.376 . S
C1545 C1546 1.388 . S
C1546 H1533 0.930 . S
C1546 C1545 1.388 . S
C1546 C1547 1.390 . S
C1547 C1546 1.390 . S
C1547 C1548 1.394 . S
C1547 C1553 1.465 . S
C1548 C1543 1.399 . S
C1548 C1547 1.394 . S
C1548 C1549 1.516 . S
C1549 C1548 1.516 . S
C1549 C1550 1.502 . S
C1549 C1551 1.561 . S
C1549 C1552 1.526 . S
C1550 H1534 0.959 . S
C1550 H1535 0.959 . S
C1550 H1536 0.961 . S
C1550 C1549 1.502 . S
C1551 H1537 0.960 . S
C1551 H1538 0.961 . S
C1551 H1539 0.959 . S
C1551 C1549 1.561 . S
C1552 C1549 1.526 . S
C1552 C1553 1.396 . S
C1552 C1557 1.390 . S
C1553 C1547 1.465 . S
C1553 C1552 1.396 . S
C1553 C1554 1.399 . S
C1554 H1540 0.929 . S
C1554 C1553 1.399 . S
C1554 C1555 1.385 . S
C1555 H1541 0.931 . S
C1555 C1554 1.385 . S
C1555 C1556 1.389 . S
C1556 C1555 1.389 . S
C1556 C1557 1.387 . S
C1557 H1542 0.930 . S
C1557 C1552 1.390 . S
C1557 C1556 1.387 . S
H1558 C1570 0.930 . S
H1559 C1572 0.930 . S
H1560 C1573 0.930 . S
H1561 C1577 0.959 . S
H1562 C1577 0.959 . S
H1563 C1577 0.961 1_554 S
H1564 C1578 0.960 . S
H1565 C1578 0.961 1_556 S
H1566 C1578 0.964 . S
H1567 C1581 0.929 . S
H1568 C1582 0.931 . S
H1569 C1584 0.930 . S
C1570 H1558 0.930 . S
C1570 C1571 1.399 . S
C1570 C1575 1.399 . S
C1571 C1570 1.399 . S
C1571 C1572 1.376 . S
C1572 H1559 0.930 . S
C1572 C1571 1.376 . S
C1572 C1573 1.388 1_554 S
C1573 H1560 0.930 . S
C1573 C1572 1.388 1_556 S
C1573 C1574 1.390 . S
C1574 C1573 1.390 . S
C1574 C1575 1.394 1_556 S
C1574 C1580 1.465 . S
C1575 C1570 1.399 . S
C1575 C1574 1.394 1_554 S
C1575 C1576 1.516 1_554 S
C1576 C1575 1.516 1_556 S
C1576 C1577 1.502 . S
C1576 C1578 1.561 1_556 S
C1576 C1579 1.526 . S
C1577 H1561 0.959 . S
C1577 H1562 0.959 . S
C1577 H1563 0.961 1_556 S
C1577 C1576 1.502 . S
C1578 H1564 0.960 . S
C1578 H1565 0.961 1_554 S
C1578 H1566 0.964 . S
C1578 C1576 1.561 1_554 S
C1579 C1576 1.526 . S
C1579 C1580 1.396 . S
C1579 C1584 1.390 . S
C1580 C1574 1.465 . S
C1580 C1579 1.396 . S
C1580 C1581 1.399 . S
C1581 H1567 0.929 . S
C1581 C1580 1.399 . S
C1581 C1582 1.385 . S
C1582 H1568 0.931 . S
C1582 C1581 1.385 . S
C1582 C1583 1.389 . S
C1583 C1582 1.389 . S
C1583 C1584 1.387 . S
C1584 H1569 0.930 . S
C1584 C1579 1.390 . S
C1584 C1583 1.387 . S
H1585 C1597 0.930 . S
H1586 C1599 0.930 . S
H1587 C1600 0.930 . S
H1588 C1604 0.959 . S
H1589 C1604 0.959 . S
H1590 C1604 0.961 . S
H1591 C1605 0.960 . S
H1592 C1605 0.961 . S
H1593 C1605 0.959 . S
H1594 C1608 0.929 . S
H1595 C1609 0.931 . S
H1596 C1611 0.930 . S
C1597 H1585 0.930 . S
C1597 C1598 1.399 . S
C1597 C1602 1.399 . S
C1598 C1597 1.399 . S
C1598 C1599 1.376 . S
C1599 H1586 0.930 . S
C1599 C1598 1.376 . S
C1599 C1600 1.388 . S
C1600 H1587 0.930 . S
C1600 C1599 1.388 . S
C1600 C1601 1.390 . S
C1601 C1600 1.390 . S
C1601 C1602 1.394 . S
C1601 C1607 1.465 . S
C1602 C1597 1.399 . S
C1602 C1601 1.394 . S
C1602 C1603 1.516 . S
C1603 C1602 1.516 . S
C1603 C1604 1.502 . S
C1603 C1605 1.561 . S
C1603 C1606 1.526 . S
C1604 H1588 0.959 . S
C1604 H1589 0.959 . S
C1604 H1590 0.961 . S
C1604 C1603 1.502 . S
C1605 H1591 0.960 . S
C1605 H1592 0.961 . S
C1605 H1593 0.959 . S
C1605 C1603 1.561 . S
C1606 C1603 1.526 . S
C1606 C1607 1.396 . S
C1606 C1611 1.390 . S
C1607 C1601 1.465 . S
C1607 C1606 1.396 . S
C1607 C1608 1.399 . S
C1608 H1594 0.929 . S
C1608 C1607 1.399 . S
C1608 C1609 1.385 . S
C1609 H1595 0.931 . S
C1609 C1608 1.385 . S
C1609 C1610 1.389 . S
C1610 C1609 1.389 . S
C1610 C1611 1.387 . S
C1611 H1596 0.930 . S
C1611 C1606 1.390 . S
C1611 C1610 1.387 . S
H1612 C1624 0.930 . S
H1613 C1626 0.930 . S
H1614 C1627 0.930 . S
H1615 C1631 0.959 . S
H1616 C1631 0.959 . S
H1617 C1631 0.961 . S
H1618 C1632 0.960 . S
H1619 C1632 0.961 . S
H1620 C1632 0.959 . S
H1621 C1635 0.929 . S
H1622 C1636 0.931 . S
H1623 C1638 0.930 . S
C1624 H1612 0.930 . S
C1624 C1625 1.399 . S
C1624 C1629 1.399 . S
C1625 C1624 1.399 . S
C1625 C1626 1.376 . S
C1626 H1613 0.930 . S
C1626 C1625 1.376 . S
C1626 C1627 1.388 . S
C1627 H1614 0.930 . S
C1627 C1626 1.388 . S
C1627 C1628 1.390 . S
C1628 C1627 1.390 . S
C1628 C1629 1.394 . S
C1628 C1634 1.465 . S
C1629 C1624 1.399 . S
C1629 C1628 1.394 . S
C1629 C1630 1.516 . S
C1630 C1629 1.516 . S
C1630 C1631 1.502 . S
C1630 C1632 1.561 . S
C1630 C1633 1.526 . S
C1631 H1615 0.959 . S
C1631 H1616 0.959 . S
C1631 H1617 0.961 . S
C1631 C1630 1.502 . S
C1632 H1618 0.960 . S
C1632 H1619 0.961 . S
C1632 H1620 0.959 . S
C1632 C1630 1.561 . S
C1633 C1630 1.526 . S
C1633 C1634 1.396 . S
C1633 C1638 1.390 . S
C1634 C1628 1.465 . S
C1634 C1633 1.396 . S
C1634 C1635 1.399 . S
C1635 H1621 0.929 . S
C1635 C1634 1.399 . S
C1635 C1636 1.385 . S
C1636 H1622 0.931 . S
C1636 C1635 1.385 . S
C1636 C1637 1.389 . S
C1637 C1636 1.389 . S
C1637 C1638 1.387 . S
C1638 H1623 0.930 . S
C1638 C1633 1.390 . S
C1638 C1637 1.387 . S
H1639 C1651 0.930 . S
H1640 C1653 0.930 . S
H1641 C1654 0.930 . S
H1642 C1658 0.959 . S
H1643 C1658 0.959 . S
H1644 C1658 0.961 . S
H1645 C1659 0.960 . S
H1646 C1659 0.961 . S
H1647 C1659 0.959 . S
H1648 C1662 0.929 . S
H1649 C1663 0.931 . S
H1650 C1665 0.930 . S
C1651 H1639 0.930 . S
C1651 C1652 1.399 . S
C1651 C1656 1.399 . S
C1652 C1651 1.399 . S
C1652 C1653 1.376 . S
C1653 H1640 0.930 . S
C1653 C1652 1.376 . S
C1653 C1654 1.388 . S
C1654 H1641 0.930 . S
C1654 C1653 1.388 . S
C1654 C1655 1.390 . S
C1655 C1654 1.390 . S
C1655 C1656 1.394 . S
C1655 C1661 1.465 . S
C1656 C1651 1.399 . S
C1656 C1655 1.394 . S
C1656 C1657 1.516 . S
C1657 C1656 1.516 . S
C1657 C1658 1.502 . S
C1657 C1659 1.561 . S
C1657 C1660 1.526 . S
C1658 H1642 0.959 . S
C1658 H1643 0.959 . S
C1658 H1644 0.961 . S
C1658 C1657 1.502 . S
C1659 H1645 0.960 . S
C1659 H1646 0.961 . S
C1659 H1647 0.959 . S
C1659 C1657 1.561 . S
C1660 C1657 1.526 . S
C1660 C1661 1.396 . S
C1660 C1665 1.390 . S
C1661 C1655 1.465 . S
C1661 C1660 1.396 . S
C1661 C1662 1.399 . S
C1662 H1648 0.929 . S
C1662 C1661 1.399 . S
C1662 C1663 1.385 . S
C1663 H1649 0.931 . S
C1663 C1662 1.385 . S
C1663 C1664 1.389 . S
C1664 C1663 1.389 . S
C1664 C1665 1.387 . S
C1665 H1650 0.930 . S
C1665 C1660 1.390 . S
C1665 C1664 1.387 . S
H1666 C1678 0.930 . S
H1667 C1680 0.930 . S
H1668 C1681 0.930 1_556 S
H1669 C1685 0.959 . S
H1670 C1685 0.959 . S
H1671 C1685 0.961 . S
H1672 C1686 0.960 . S
H1673 C1686 0.961 . S
H1674 C1686 0.959 . S
H1675 C1689 0.929 . S
H1676 C1690 0.931 . S
H1677 C1692 0.930 . S
C1678 H1666 0.930 . S
C1678 C1679 1.399 1_554 S
C1678 C1683 1.399 . S
C1679 C1678 1.399 1_556 S
C1679 C1680 1.376 . S
C1680 H1667 0.930 . S
C1680 C1679 1.376 . S
C1680 C1681 1.388 1_556 S
C1681 H1668 0.930 1_554 S
C1681 C1680 1.388 1_554 S
C1681 C1682 1.390 . S
C1682 C1681 1.390 . S
C1682 C1683 1.394 . S
C1682 C1688 1.465 . S
C1683 C1678 1.399 . S
C1683 C1682 1.394 . S
C1683 C1684 1.516 . S
C1684 C1683 1.516 . S
C1684 C1685 1.502 . S
C1684 C1686 1.561 . S
C1684 C1687 1.526 . S
C1685 H1669 0.959 . S
C1685 H1670 0.959 . S
C1685 H1671 0.961 . S
C1685 C1684 1.502 . S
C1686 H1672 0.960 . S
C1686 H1673 0.961 . S
C1686 H1674 0.959 . S
C1686 C1684 1.561 . S
C1687 C1684 1.526 . S
C1687 C1688 1.396 . S
C1687 C1692 1.390 . S
C1688 C1682 1.465 . S
C1688 C1687 1.396 . S
C1688 C1689 1.399 . S
C1689 H1675 0.929 . S
C1689 C1688 1.399 . S
C1689 C1690 1.385 . S
C1690 H1676 0.931 . S
C1690 C1689 1.385 . S
C1690 C1691 1.389 . S
C1691 C1690 1.389 . S
C1691 C1692 1.387 . S
C1692 H1677 0.930 . S
C1692 C1687 1.390 . S
C1692 C1691 1.387 . S
H1693 C1705 0.930 . S
H1694 C1707 0.930 . S
H1695 C1708 0.930 . S
H1696 C1712 0.959 . S
H1697 C1712 0.959 . S
H1698 C1712 0.961 . S
H1699 C1713 0.960 . S
H1700 C1713 0.961 . S
H1701 C1713 0.959 . S
H1702 C1716 0.929 . S
H1703 C1717 0.931 . S
H1704 C1719 0.930 . S
C1705 H1693 0.930 . S
C1705 C1706 1.399 . S
C1705 C1710 1.399 . S
C1706 C1705 1.399 . S
C1706 C1707 1.376 . S
C1707 H1694 0.930 . S
C1707 C1706 1.376 . S
C1707 C1708 1.388 . S
C1708 H1695 0.930 . S
C1708 C1707 1.388 . S
C1708 C1709 1.390 . S
C1709 C1708 1.390 . S
C1709 C1710 1.394 . S
C1709 C1715 1.465 . S
C1710 C1705 1.399 . S
C1710 C1709 1.394 . S
C1710 C1711 1.516 . S
C1711 C1710 1.516 . S
C1711 C1712 1.502 . S
C1711 C1713 1.561 . S
C1711 C1714 1.526 . S
C1712 H1696 0.959 . S
C1712 H1697 0.959 . S
C1712 H1698 0.961 . S
C1712 C1711 1.502 . S
C1713 H1699 0.960 . S
C1713 H1700 0.961 . S
C1713 H1701 0.959 . S
C1713 C1711 1.561 . S
C1714 C1711 1.526 . S
C1714 C1715 1.396 . S
C1714 C1719 1.390 . S
C1715 C1709 1.465 . S
C1715 C1714 1.396 . S
C1715 C1716 1.399 . S
C1716 H1702 0.929 . S
C1716 C1715 1.399 . S
C1716 C1717 1.385 . S
C1717 H1703 0.931 . S
C1717 C1716 1.385 . S
C1717 C1718 1.389 . S
C1718 C1717 1.389 . S
C1718 C1719 1.387 . S
C1719 H1704 0.930 . S
C1719 C1714 1.390 . S
C1719 C1718 1.387 . S
H1720 C1732 0.930 . S
H1721 C1734 0.930 . S
H1722 C1735 0.930 . S
H1723 C1739 0.959 . S
H1724 C1739 0.959 . S
H1725 C1739 0.961 . S
H1726 C1740 0.960 . S
H1727 C1740 0.961 . S
H1728 C1740 0.959 . S
H1729 C1743 0.929 . S
H1730 C1744 0.931 . S
H1731 C1746 0.930 . S
C1732 H1720 0.930 . S
C1732 C1733 1.399 . S
C1732 C1737 1.399 . S
C1733 C1732 1.399 . S
C1733 C1734 1.376 . S
C1734 H1721 0.930 . S
C1734 C1733 1.376 . S
C1734 C1735 1.388 . S
C1735 H1722 0.930 . S
C1735 C1734 1.388 . S
C1735 C1736 1.390 . S
C1736 C1735 1.390 . S
C1736 C1737 1.394 . S
C1736 C1742 1.465 . S
C1737 C1732 1.399 . S
C1737 C1736 1.394 . S
C1737 C1738 1.516 . S
C1738 C1737 1.516 . S
C1738 C1739 1.502 . S
C1738 C1740 1.561 . S
C1738 C1741 1.526 . S
C1739 H1723 0.959 . S
C1739 H1724 0.959 . S
C1739 H1725 0.961 . S
C1739 C1738 1.502 . S
C1740 H1726 0.960 . S
C1740 H1727 0.961 . S
C1740 H1728 0.959 . S
C1740 C1738 1.561 . S
C1741 C1738 1.526 . S
C1741 C1742 1.396 . S
C1741 C1746 1.390 . S
C1742 C1736 1.465 . S
C1742 C1741 1.396 . S
C1742 C1743 1.399 . S
C1743 H1729 0.929 . S
C1743 C1742 1.399 . S
C1743 C1744 1.385 . S
C1744 H1730 0.931 . S
C1744 C1743 1.385 . S
C1744 C1745 1.389 . S
C1745 C1744 1.389 . S
C1745 C1746 1.387 . S
C1746 H1731 0.930 . S
C1746 C1741 1.390 . S
C1746 C1745 1.387 . S
H1747 C1759 0.930 . S
H1748 C1761 0.930 . S
H1749 C1762 0.930 . S
H1750 C1766 0.959 . S
H1751 C1766 0.959 . S
H1752 C1766 0.961 . S
H1753 C1767 0.960 . S
H1754 C1767 0.961 . S
H1755 C1767 0.959 . S
H1756 C1770 0.929 . S
H1757 C1771 0.931 . S
H1758 C1773 0.930 . S
C1759 H1747 0.930 . S
C1759 C1760 1.399 . S
C1759 C1764 1.399 . S
C1760 C1759 1.399 . S
C1760 C1761 1.376 . S
C1761 H1748 0.930 . S
C1761 C1760 1.376 . S
C1761 C1762 1.388 . S
C1762 H1749 0.930 . S
C1762 C1761 1.388 . S
C1762 C1763 1.390 . S
C1763 C1762 1.390 . S
C1763 C1764 1.394 . S
C1763 C1769 1.465 . S
C1764 C1759 1.399 . S
C1764 C1763 1.394 . S
C1764 C1765 1.516 . S
C1765 C1764 1.516 . S
C1765 C1766 1.502 . S
C1765 C1767 1.561 . S
C1765 C1768 1.526 . S
C1766 H1750 0.959 . S
C1766 H1751 0.959 . S
C1766 H1752 0.961 . S
C1766 C1765 1.502 . S
C1767 H1753 0.960 . S
C1767 H1754 0.961 . S
C1767 H1755 0.959 . S
C1767 C1765 1.561 . S
C1768 C1765 1.526 . S
C1768 C1769 1.396 . S
C1768 C1773 1.390 . S
C1769 C1763 1.465 . S
C1769 C1768 1.396 . S
C1769 C1770 1.399 . S
C1770 H1756 0.929 . S
C1770 C1769 1.399 . S
C1770 C1771 1.385 . S
C1771 H1757 0.931 . S
C1771 C1770 1.385 . S
C1771 C1772 1.389 . S
C1772 C1771 1.389 . S
C1772 C1773 1.387 . S
C1773 H1758 0.930 . S
C1773 C1768 1.390 . S
C1773 C1772 1.387 . S
H1774 C1786 0.930 . S
H1775 C1788 0.930 . S
H1776 C1789 0.930 . S
H1777 C1793 0.959 . S
H1778 C1793 0.959 . S
H1779 C1793 0.961 . S
H1780 C1794 0.960 . S
H1781 C1794 0.961 . S
H1782 C1794 0.959 . S
H1783 C1797 0.929 . S
H1784 C1798 0.931 . S
H1785 C1800 0.930 . S
C1786 H1774 0.930 . S
C1786 C1787 1.399 . S
C1786 C1791 1.399 . S
C1787 C1786 1.399 . S
C1787 C1788 1.376 . S
C1788 H1775 0.930 . S
C1788 C1787 1.376 . S
C1788 C1789 1.388 . S
C1789 H1776 0.930 . S
C1789 C1788 1.388 . S
C1789 C1790 1.390 . S
C1790 C1789 1.390 . S
C1790 C1791 1.394 . S
C1790 C1796 1.465 . S
C1791 C1786 1.399 . S
C1791 C1790 1.394 . S
C1791 C1792 1.516 . S
C1792 C1791 1.516 . S
C1792 C1793 1.502 . S
C1792 C1794 1.561 . S
C1792 C1795 1.526 . S
C1793 H1777 0.959 . S
C1793 H1778 0.959 . S
C1793 H1779 0.961 . S
C1793 C1792 1.502 . S
C1794 H1780 0.960 . S
C1794 H1781 0.961 . S
C1794 H1782 0.959 . S
C1794 C1792 1.561 . S
C1795 C1792 1.526 . S
C1795 C1796 1.396 . S
C1795 C1800 1.390 . S
C1796 C1790 1.465 . S
C1796 C1795 1.396 . S
C1796 C1797 1.399 . S
C1797 H1783 0.929 . S
C1797 C1796 1.399 . S
C1797 C1798 1.385 . S
C1798 H1784 0.931 . S
C1798 C1797 1.385 . S
C1798 C1799 1.389 . S
C1799 C1798 1.389 . S
C1799 C1800 1.387 . S
C1800 H1785 0.930 . S
C1800 C1795 1.390 . S
C1800 C1799 1.387 . S
H1801 C1813 0.930 . S
H1802 C1815 0.930 . S
H1803 C1816 0.930 . S
H1804 C1820 0.959 . S
H1805 C1820 0.959 . S
H1806 C1820 0.961 . S
H1807 C1821 0.960 . S
H1808 C1821 0.961 . S
H1809 C1821 0.959 . S
H1810 C1824 0.929 . S
H1811 C1825 0.931 . S
H1812 C1827 0.930 . S
C1813 H1801 0.930 . S
C1813 C1814 1.399 . S
C1813 C1818 1.399 . S
C1814 C1813 1.399 . S
C1814 C1815 1.376 . S
C1815 H1802 0.930 . S
C1815 C1814 1.376 . S
C1815 C1816 1.388 . S
C1816 H1803 0.930 . S
C1816 C1815 1.388 . S
C1816 C1817 1.390 . S
C1817 C1816 1.390 . S
C1817 C1818 1.394 . S
C1817 C1823 1.465 . S
C1818 C1813 1.399 . S
C1818 C1817 1.394 . S
C1818 C1819 1.516 . S
C1819 C1818 1.516 . S
C1819 C1820 1.502 . S
C1819 C1821 1.561 . S
C1819 C1822 1.526 . S
C1820 H1804 0.959 . S
C1820 H1805 0.959 . S
C1820 H1806 0.961 . S
C1820 C1819 1.502 . S
C1821 H1807 0.960 . S
C1821 H1808 0.961 . S
C1821 H1809 0.959 . S
C1821 C1819 1.561 . S
C1822 C1819 1.526 . S
C1822 C1823 1.396 . S
C1822 C1827 1.390 . S
C1823 C1817 1.465 . S
C1823 C1822 1.396 . S
C1823 C1824 1.399 . S
C1824 H1810 0.929 . S
C1824 C1823 1.399 . S
C1824 C1825 1.385 . S
C1825 H1811 0.931 . S
C1825 C1824 1.385 . S
C1825 C1826 1.389 . S
C1826 C1825 1.389 . S
C1826 C1827 1.387 . S
C1827 H1812 0.930 . S
C1827 C1822 1.390 . S
C1827 C1826 1.387 . S
H1828 C1840 0.930 . S
H1829 C1842 0.930 . S
H1830 C1843 0.930 . S
H1831 C1847 0.959 . S
H1832 C1847 0.959 . S
H1833 C1847 0.961 . S
H1834 C1848 0.960 . S
H1835 C1848 0.961 . S
H1836 C1848 0.959 . S
H1837 C1851 0.929 . S
H1838 C1852 0.931 . S
H1839 C1854 0.930 . S
C1840 H1828 0.930 . S
C1840 C1841 1.399 . S
C1840 C1845 1.399 . S
C1841 C1840 1.399 . S
C1841 C1842 1.376 . S
C1842 H1829 0.930 . S
C1842 C1841 1.376 . S
C1842 C1843 1.388 . S
C1843 H1830 0.930 . S
C1843 C1842 1.388 . S
C1843 C1844 1.390 . S
C1844 C1843 1.390 . S
C1844 C1845 1.394 . S
C1844 C1850 1.465 . S
C1845 C1840 1.399 . S
C1845 C1844 1.394 . S
C1845 C1846 1.516 . S
C1846 C1845 1.516 . S
C1846 C1847 1.502 . S
C1846 C1848 1.561 . S
C1846 C1849 1.526 . S
C1847 H1831 0.959 . S
C1847 H1832 0.959 . S
C1847 H1833 0.961 . S
C1847 C1846 1.502 . S
C1848 H1834 0.960 . S
C1848 H1835 0.961 . S
C1848 H1836 0.959 . S
C1848 C1846 1.561 . S
C1849 C1846 1.526 . S
C1849 C1850 1.396 . S
C1849 C1854 1.390 1_554 S
C1850 C1844 1.465 . S
C1850 C1849 1.396 . S
C1850 C1851 1.399 1_554 S
C1851 H1837 0.929 . S
C1851 C1850 1.399 1_556 S
C1851 C1852 1.385 . S
C1852 H1838 0.931 . S
C1852 C1851 1.385 . S
C1852 C1853 1.389 . S
C1853 C1852 1.389 . S
C1853 C1854 1.387 . S
C1854 H1839 0.930 . S
C1854 C1849 1.390 1_556 S
C1854 C1853 1.387 . S
H1855 C1867 0.930 . S
H1856 C1869 0.930 . S
H1857 C1870 0.930 . S
H1858 C1874 0.959 . S
H1859 C1874 0.959 . S
H1860 C1874 0.961 . S
H1861 C1875 0.960 . S
H1862 C1875 0.961 . S
H1863 C1875 0.959 . S
H1864 C1878 0.929 . S
H1865 C1879 0.931 . S
H1866 C1881 0.930 . S
C1867 H1855 0.930 . S
C1867 C1868 1.399 . S
C1867 C1872 1.399 . S
C1868 C1867 1.399 . S
C1868 C1869 1.376 . S
C1869 H1856 0.930 . S
C1869 C1868 1.376 . S
C1869 C1870 1.388 . S
C1870 H1857 0.930 . S
C1870 C1869 1.388 . S
C1870 C1871 1.390 . S
C1871 C1870 1.390 . S
C1871 C1872 1.394 . S
C1871 C1877 1.465 . S
C1872 C1867 1.399 . S
C1872 C1871 1.394 . S
C1872 C1873 1.516 . S
C1873 C1872 1.516 . S
C1873 C1874 1.502 . S
C1873 C1875 1.561 . S
C1873 C1876 1.526 . S
C1874 H1858 0.959 . S
C1874 H1859 0.959 . S
C1874 H1860 0.961 . S
C1874 C1873 1.502 . S
C1875 H1861 0.960 . S
C1875 H1862 0.961 . S
C1875 H1863 0.959 . S
C1875 C1873 1.561 . S
C1876 C1873 1.526 . S
C1876 C1877 1.396 . S
C1876 C1881 1.390 . S
C1877 C1871 1.465 . S
C1877 C1876 1.396 . S
C1877 C1878 1.399 . S
C1878 H1864 0.929 . S
C1878 C1877 1.399 . S
C1878 C1879 1.385 . S
C1879 H1865 0.931 . S
C1879 C1878 1.385 . S
C1879 C1880 1.389 . S
C1880 C1879 1.389 . S
C1880 C1881 1.387 . S
C1881 H1866 0.930 . S
C1881 C1876 1.390 . S
C1881 C1880 1.387 . S
H1882 C1894 0.930 . S
H1883 C1896 0.930 . S
H1884 C1897 0.930 . S
H1885 C1901 0.959 . S
H1886 C1901 0.959 . S
H1887 C1901 0.961 . S
H1888 C1902 0.960 . S
H1889 C1902 0.961 . S
H1890 C1902 0.959 . S
H1891 C1905 0.929 . S
H1892 C1906 0.931 . S
H1893 C1908 0.930 . S
C1894 H1882 0.930 . S
C1894 C1895 1.399 . S
C1894 C1899 1.399 . S
C1895 C1894 1.399 . S
C1895 C1896 1.376 . S
C1896 H1883 0.930 . S
C1896 C1895 1.376 . S
C1896 C1897 1.388 . S
C1897 H1884 0.930 . S
C1897 C1896 1.388 . S
C1897 C1898 1.390 . S
C1898 C1897 1.390 . S
C1898 C1899 1.394 . S
C1898 C1904 1.465 . S
C1899 C1894 1.399 . S
C1899 C1898 1.394 . S
C1899 C1900 1.516 . S
C1900 C1899 1.516 . S
C1900 C1901 1.502 . S
C1900 C1902 1.561 . S
C1900 C1903 1.526 . S
C1901 H1885 0.959 . S
C1901 H1886 0.959 . S
C1901 H1887 0.961 . S
C1901 C1900 1.502 . S
C1902 H1888 0.960 . S
C1902 H1889 0.961 . S
C1902 H1890 0.959 . S
C1902 C1900 1.561 . S
C1903 C1900 1.526 . S
C1903 C1904 1.396 . S
C1903 C1908 1.390 . S
C1904 C1898 1.465 . S
C1904 C1903 1.396 . S
C1904 C1905 1.399 . S
C1905 H1891 0.929 . S
C1905 C1904 1.399 . S
C1905 C1906 1.385 . S
C1906 H1892 0.931 . S
C1906 C1905 1.385 . S
C1906 C1907 1.389 . S
C1907 C1906 1.389 . S
C1907 C1908 1.387 . S
C1908 H1893 0.930 . S
C1908 C1903 1.390 . S
C1908 C1907 1.387 . S
H1909 C1921 0.930 . S
H1910 C1923 0.930 . S
H1911 C1924 0.930 . S
H1912 C1928 0.959 . S
H1913 C1928 0.959 . S
H1914 C1928 0.961 . S
H1915 C1929 0.960 . S
H1916 C1929 0.961 . S
H1917 C1929 0.959 . S
H1918 C1932 0.929 . S
H1919 C1933 0.931 . S
H1920 C1935 0.930 . S
C1921 H1909 0.930 . S
C1921 C1922 1.399 . S
C1921 C1926 1.399 . S
C1922 C1921 1.399 . S
C1922 C1923 1.376 . S
C1923 H1910 0.930 . S
C1923 C1922 1.376 . S
C1923 C1924 1.388 . S
C1924 H1911 0.930 . S
C1924 C1923 1.388 . S
C1924 C1925 1.390 . S
C1925 C1924 1.390 . S
C1925 C1926 1.394 . S
C1925 C1931 1.465 . S
C1926 C1921 1.399 . S
C1926 C1925 1.394 . S
C1926 C1927 1.516 . S
C1927 C1926 1.516 . S
C1927 C1928 1.502 . S
C1927 C1929 1.561 . S
C1927 C1930 1.526 . S
C1928 H1912 0.959 . S
C1928 H1913 0.959 . S
C1928 H1914 0.961 . S
C1928 C1927 1.502 . S
C1929 H1915 0.960 . S
C1929 H1916 0.961 . S
C1929 H1917 0.959 . S
C1929 C1927 1.561 . S
C1930 C1927 1.526 . S
C1930 C1931 1.396 . S
C1930 C1935 1.390 . S
C1931 C1925 1.465 . S
C1931 C1930 1.396 . S
C1931 C1932 1.399 . S
C1932 H1918 0.929 . S
C1932 C1931 1.399 . S
C1932 C1933 1.385 . S
C1933 H1919 0.931 . S
C1933 C1932 1.385 . S
C1933 C1934 1.389 . S
C1934 C1933 1.389 . S
C1934 C1935 1.387 . S
C1935 H1920 0.930 . S
C1935 C1930 1.390 . S
C1935 C1934 1.387 . S
C653 C6 0.879 . S
C665 C286 0.961 . S
C680 C59 1.025 . S
C692 C166 0.941 . S
C707 C206 0.489 . S
C719 C99 0.564 . S
C734 C139 0.964 . S
C746 C246 0.884 . S
C761 C455 0.874 . S
C773 C170 0.935 . S
C788 C330 2.713 . S
C800 C10 2.647 1_556 S
C815 C415 0.908 . S
C827 C250 0.938 . S
C842 C95 1.968 . S
C854 C370 1.965 . S
C869 C366 0.998 . S
C881 C486 0.798 . S
C896 C419 1.016 . S
C908 C566 0.924 . S
C923 C539 0.560 . S
C935 C326 0.544 . S
C950 C459 0.878 . S
C962 C606 0.933 . S
C977 C570 0.962 . S
C989 C135 0.906 . S
C1004 C490 2.682 . S
C1016 C210 2.711 . S
C1031 C55 0.985 . S
C1043 C610 1.008 . S
C1058 C290 1.917 . S
C1070 C535 1.946 . S
C1085 C538 0.493 . S
C1097 C9 0.436 . S
C1112 C458 0.472 . S
C1124 C58 0.469 . S
C1139 C489 0.299 . S
C1151 C98 0.302 . S
C1166 C418 0.509 . S
C1178 C138 0.639 . S
C1193 C169 0.597 . S
C1205 C609 0.487 . S
C1220 C369 0.802 . S
C1232 C209 0.722 . S
C1247 C249 0.330 . S
C1259 C569 0.457 . S
C1274 C289 0.792 . S
C1286 C329 0.616 . S
C1301 C18 1.551 1_455 S
C1313 C178 1.475 . S
C1328 C49 1.363 . S
C1340 C218 1.446 . S
C1355 C258 1.527 . S
C1367 C89 1.612 . S
C1382 C129 1.804 . S
C1394 C298 1.712 . S
C1409 C409 1.439 . S
C1421 C338 1.376 . S
C1436 C449 1.732 . S
C1448 C378 1.783 . S
C1463 C498 1.457 . S
C1475 C578 1.519 . S
C1490 C618 1.527 . S
C1502 C529 1.602 . S
C1517 C19 3.616 . S
C1529 C299 3.640 . S
C1544 C46 1.954 . S
C1556 C179 2.069 . S
C1571 C219 2.897 . S
C1583 C86 2.820 . S
C1598 C259 2.044 . S
C1610 C126 1.947 . S
C1625 C450 2.041 . S
C1637 C175 1.938 . S
C1652 C335 0.676 . S
C1664 C15 0.484 . S
C1679 C410 2.029 . S
C1691 C255 1.976 . S
C1706 C90 1.034 . S
C1718 C375 0.903 . S
C1733 C499 3.616 . S
C1745 C379 3.640 1_556 S
C1760 C579 2.056 . S
C1772 C406 1.987 . S
C1787 C526 2.849 . S
C1799 C339 2.896 . S
C1814 C619 2.043 . S
C1826 C446 1.947 . S
C1841 C575 1.986 . S
C1853 C130 2.022 . S
C1868 C215 0.683 . S
C1880 C495 0.528 . S
C1895 C50 2.043 . S
C1907 C615 1.956 . S
C1922 C530 1.023 . S
C1934 C295 0.915 . S
