# Generated by pormake.
# Topology uoy, (4)-cn, num edge types: 1
# Building blocks:
#     Node 0, Type 0, BuildingBlock: CEKHIL_clean_sbu_0, # of connection points: 4
#     Node 1, Type 0, BuildingBlock: CEKHIL_clean_sbu_0, # of connection points: 4
#     Node 2, Type 0, BuildingBlock: CEKHIL_clean_sbu_0, # of connection points: 4
#     Node 3, Type 0, BuildingBlock: CEKHIL_clean_sbu_0, # of connection points: 4
#     Node 4, Type 0, BuildingBlock: CEKHIL_clean_sbu_0, # of connection points: 4
#     Node 5, Type 0, BuildingBlock: CEKHIL_clean_sbu_0, # of connection points: 4
#     Node 6, Type 0, BuildingBlock: CEKHIL_clean_sbu_0, # of connection points: 4
#     Node 7, Type 0, BuildingBlock: CEKHIL_clean_sbu_0, # of connection points: 4
#     Node 8, Type 0, BuildingBlock: CEKHIL_clean_sbu_0, # of connection points: 4
#     Node 9, Type 0, BuildingBlock: CEKHIL_clean_sbu_0, # of connection points: 4
#     Node 10, Type 0, BuildingBlock: CEKHIL_clean_sbu_0, # of connection points: 4
#     Node 11, Type 0, BuildingBlock: CEKHIL_clean_sbu_0, # of connection points: 4
#     Node 12, Type 0, BuildingBlock: CEKHIL_clean_sbu_0, # of connection points: 4
#     Node 13, Type 0, BuildingBlock: CEKHIL_clean_sbu_0, # of connection points: 4
#     Node 14, Type 0, BuildingBlock: CEKHIL_clean_sbu_0, # of connection points: 4
#     Node 15, Type 0, BuildingBlock: CEKHIL_clean_sbu_0, # of connection points: 4
#     Edge 16, Type (0, 0), BuildingBlock: AJUNOK_clean_linker_0, # of connection points: 2
#     Edge 17, Type (0, 0), BuildingBlock: AJUNOK_clean_linker_0, # of connection points: 2
#     Edge 18, Type (0, 0), BuildingBlock: AJUNOK_clean_linker_0, # of connection points: 2
#     Edge 19, Type (0, 0), BuildingBlock: AJUNOK_clean_linker_0, # of connection points: 2
#     Edge 20, Type (0, 0), BuildingBlock: AJUNOK_clean_linker_0, # of connection points: 2
#     Edge 21, Type (0, 0), BuildingBlock: AJUNOK_clean_linker_0, # of connection points: 2
#     Edge 22, Type (0, 0), BuildingBlock: AJUNOK_clean_linker_0, # of connection points: 2
#     Edge 23, Type (0, 0), BuildingBlock: AJUNOK_clean_linker_0, # of connection points: 2
#     Edge 24, Type (0, 0), BuildingBlock: AJUNOK_clean_linker_0, # of connection points: 2
#     Edge 25, Type (0, 0), BuildingBlock: AJUNOK_clean_linker_0, # of connection points: 2
#     Edge 26, Type (0, 0), BuildingBlock: AJUNOK_clean_linker_0, # of connection points: 2
#     Edge 27, Type (0, 0), BuildingBlock: AJUNOK_clean_linker_0, # of connection points: 2
#     Edge 28, Type (0, 0), BuildingBlock: AJUNOK_clean_linker_0, # of connection points: 2
#     Edge 29, Type (0, 0), BuildingBlock: AJUNOK_clean_linker_0, # of connection points: 2
#     Edge 30, Type (0, 0), BuildingBlock: AJUNOK_clean_linker_0, # of connection points: 2
#     Edge 31, Type (0, 0), BuildingBlock: AJUNOK_clean_linker_0, # of connection points: 2
#     Edge 32, Type (0, 0), BuildingBlock: AJUNOK_clean_linker_0, # of connection points: 2
#     Edge 33, Type (0, 0), BuildingBlock: AJUNOK_clean_linker_0, # of connection points: 2
#     Edge 34, Type (0, 0), BuildingBlock: AJUNOK_clean_linker_0, # of connection points: 2
#     Edge 35, Type (0, 0), BuildingBlock: AJUNOK_clean_linker_0, # of connection points: 2
#     Edge 36, Type (0, 0), BuildingBlock: AJUNOK_clean_linker_0, # of connection points: 2
#     Edge 37, Type (0, 0), BuildingBlock: AJUNOK_clean_linker_0, # of connection points: 2
#     Edge 38, Type (0, 0), BuildingBlock: AJUNOK_clean_linker_0, # of connection points: 2
#     Edge 39, Type (0, 0), BuildingBlock: AJUNOK_clean_linker_0, # of connection points: 2
#     Edge 40, Type (0, 0), BuildingBlock: AJUNOK_clean_linker_0, # of connection points: 2
#     Edge 41, Type (0, 0), BuildingBlock: AJUNOK_clean_linker_0, # of connection points: 2
#     Edge 42, Type (0, 0), BuildingBlock: AJUNOK_clean_linker_0, # of connection points: 2
#     Edge 43, Type (0, 0), BuildingBlock: AJUNOK_clean_linker_0, # of connection points: 2
#     Edge 44, Type (0, 0), BuildingBlock: AJUNOK_clean_linker_0, # of connection points: 2
#     Edge 45, Type (0, 0), BuildingBlock: AJUNOK_clean_linker_0, # of connection points: 2
#     Edge 46, Type (0, 0), BuildingBlock: AJUNOK_clean_linker_0, # of connection points: 2
#     Edge 47, Type (0, 0), BuildingBlock: AJUNOK_clean_linker_0, # of connection points: 2
# Relax obj value: 0.040
# Max RMSD: 0.061
# Mean RMSD: 0.061
data_MOF--net-uoy--node1-CEKHIL_clean_sbu_0--edge1-AJUNOK_clean_linker_0
_symmetry_space_group_name_H-M    P1
_symmetry_Int_Tables_number       1
_symmetry_cell_setting            triclinic
loop_
_symmetry_equiv_pos_as_xyz
'x, y, z'
_cell_length_a     20.191162
_cell_length_b     20.187982
_cell_length_c     76.881297
_cell_angle_alpha  89.931366
_cell_angle_beta   89.917108
_cell_angle_gamma 89.997567
loop_
_atom_site_label
_atom_site_type_symbol
_atom_site_fract_x
_atom_site_fract_y
_atom_site_fract_z
_atom_type_partial_charge
Co0 Co 0.2433 0.11438 0.19626 0.0
O1 O 0.14828 0.12522 0.19816 0.0
O2 O 0.19747 0.03662 0.18744 0.0
C3 C 0.26807 0.14916 0.22331 0.0
O4 O 0.33951 0.0834 0.19309 0.0
Co5 Co 0.3384 0.23454 0.19921 0.0
O6 O 0.4085 0.16571 0.20069 0.0
C7 C 0.25808 0.21736 0.16757 0.0
C8 C 0.14247 0.06633 0.19161 0.0
C9 C 0.39821 0.10565 0.19637 0.0
O10 O 0.24222 0.15829 0.1725 0.0
O11 O 0.29084 0.2575 0.17713 0.0
O12 O 0.24922 0.08842 0.22076 0.0
O13 O 0.26552 0.18779 0.20997 0.0
Co14 Co 0.90111 0.74344 0.44583 0.0
O15 O 0.8869 0.64873 0.44733 0.0
O16 O 0.97744 0.69528 0.43689 0.0
C17 C 0.86674 0.76834 0.47305 0.0
O18 O 0.93522 0.83886 0.443 0.0
Co19 Co 0.78292 0.84191 0.44887 0.0
O20 O 0.85335 0.91039 0.44946 0.0
C21 C 0.79868 0.76148 0.41724 0.0
C22 C 0.94567 0.64116 0.44077 0.0
C23 C 0.91352 0.89835 0.44555 0.0
O24 O 0.85772 0.74522 0.42205 0.0
O25 O 0.75878 0.79409 0.42694 0.0
O26 O 0.9263 0.74612 0.4704 0.0
O27 O 0.82855 0.76844 0.45962 0.0
Co28 Co 0.27048 0.40014 0.69673 0.0
O29 O 0.36571 0.38867 0.69873 0.0
O30 O 0.31702 0.47867 0.68871 0.0
C31 C 0.24281 0.36155 0.72349 0.0
O32 O 0.17476 0.43311 0.69354 0.0
Co33 Co 0.17373 0.2815 0.69755 0.0
O34 O 0.10332 0.34985 0.69841 0.0
C35 C 0.25816 0.30112 0.667 0.0
C36 C 0.37184 0.44848 0.69268 0.0
C37 C 0.11515 0.41074 0.69538 0.0
O38 O 0.27273 0.35971 0.67253 0.0
O39 O 0.22511 0.25958 0.67609 0.0
O40 O 0.26427 0.42182 0.72152 0.0
O41 O 0.24539 0.32512 0.70971 0.0
Co42 Co 0.61466 0.77384 0.9474 0.0
O43 O 0.62707 0.86879 0.94935 0.0
O44 O 0.53835 0.82101 0.93831 0.0
C45 C 0.64766 0.74809 0.97452 0.0
O46 O 0.58131 0.67868 0.94408 0.0
Co47 Co 0.73069 0.67428 0.95067 0.0
O48 O 0.65995 0.60591 0.95186 0.0
C49 C 0.71854 0.75642 0.9191 0.0
C50 C 0.56853 0.87551 0.94261 0.0
C51 C 0.60057 0.61901 0.94741 0.0
O52 O 0.65983 0.77428 0.92383 0.0
O53 O 0.75673 0.72165 0.92875 0.0
O54 O 0.58746 0.76829 0.9718 0.0
O55 O 0.68694 0.74942 0.9613 0.0
Co56 Co 0.24168 0.40261 0.06649 0.0
O57 O 0.1467 0.39146 0.0646 0.0
O58 O 0.19557 0.48018 0.07532 0.0
C59 C 0.26702 0.36804 0.03945 0.0
O60 O 0.33765 0.43397 0.06969 0.0
Co61 Co 0.33719 0.28277 0.06369 0.0
O62 O 0.40747 0.35148 0.06269 0.0
C63 C 0.25813 0.30087 0.09555 0.0
C64 C 0.14069 0.45033 0.07117 0.0
C65 C 0.39664 0.41164 0.06682 0.0
O66 O 0.24056 0.35897 0.09027 0.0
O67 O 0.29124 0.26057 0.08609 0.0
O68 O 0.24771 0.42862 0.042 0.0
O69 O 0.2645 0.32924 0.05276 0.0
Co70 Co 0.61594 0.74196 0.31595 0.0
O71 O 0.63178 0.64758 0.31431 0.0
O72 O 0.53975 0.69238 0.32438 0.0
C73 C 0.65208 0.76808 0.28911 0.0
O74 O 0.57965 0.83635 0.31878 0.0
Co75 Co 0.73058 0.84381 0.31366 0.0
O76 O 0.65857 0.91055 0.31203 0.0
C77 C 0.71455 0.76309 0.34534 0.0
C78 C 0.57271 0.6389 0.32058 0.0
C79 C 0.5987 0.89639 0.31578 0.0
O80 O 0.65738 0.74334 0.33995 0.0
O81 O 0.75381 0.79799 0.33599 0.0
O82 O 0.59222 0.74604 0.29131 0.0
O83 O 0.68951 0.76807 0.30267 0.0
Co84 Co 0.27355 0.11929 0.56582 0.0
O85 O 0.36877 0.13065 0.56357 0.0
O86 O 0.32032 0.04102 0.57392 0.0
C87 C 0.24528 0.15681 0.53901 0.0
O88 O 0.17793 0.0865 0.5693 0.0
Co89 Co 0.17672 0.238 0.56482 0.0
O90 O 0.10632 0.16957 0.5644 0.0
C91 C 0.26239 0.22005 0.59511 0.0
C92 C 0.37505 0.07099 0.56971 0.0
C93 C 0.11827 0.10881 0.56755 0.0
O94 O 0.27605 0.16074 0.58993 0.0
O95 O 0.22938 0.26116 0.58591 0.0
O96 O 0.26686 0.09665 0.54109 0.0
O97 O 0.24814 0.19376 0.55268 0.0
Co98 Co 0.89972 0.77145 0.81717 0.0
O99 O 0.88561 0.86618 0.81544 0.0
O100 O 0.9775 0.81984 0.82503 0.0
C101 C 0.86084 0.74421 0.79044 0.0
O102 O 0.93434 0.67614 0.82005 0.0
Co103 Co 0.78178 0.67348 0.81643 0.0
O104 O 0.85135 0.60444 0.81512 0.0
C105 C 0.80219 0.75595 0.84722 0.0
C106 C 0.94526 0.87389 0.82139 0.0
C107 C 0.91222 0.61649 0.81808 0.0
O108 O 0.86033 0.77161 0.84153 0.0
O109 O 0.76044 0.72328 0.83816 0.0
O110 O 0.9207 0.76679 0.79229 0.0
O111 O 0.82487 0.74563 0.80433 0.0
Co112 Co 0.73751 0.61537 0.69654 0.0
O113 O 0.64298 0.63103 0.69835 0.0
O114 O 0.68781 0.53981 0.68785 0.0
C115 C 0.76405 0.64938 0.72362 0.0
O116 O 0.83191 0.57894 0.69343 0.0
Co117 Co 0.84004 0.72964 0.69913 0.0
O118 O 0.90659 0.65736 0.70011 0.0
C119 C 0.758 0.71673 0.66765 0.0
C120 C 0.63432 0.57217 0.69195 0.0
C121 C 0.8922 0.59774 0.69619 0.0
O122 O 0.73891 0.65881 0.67273 0.0
O123 O 0.79299 0.75519 0.67715 0.0
O124 O 0.74072 0.59021 0.72107 0.0
O125 O 0.76478 0.68758 0.71015 0.0
Co126 Co 0.40254 0.24094 0.9472 0.0
O127 O 0.38887 0.1464 0.94905 0.0
O128 O 0.47953 0.1928 0.93859 0.0
C129 C 0.36709 0.26676 0.97416 0.0
O130 O 0.43601 0.3364 0.94411 0.0
Co131 Co 0.28408 0.33845 0.94975 0.0
O132 O 0.35423 0.40718 0.9511 0.0
C133 C 0.30191 0.25882 0.91802 0.0
C134 C 0.4477 0.13876 0.94257 0.0
C135 C 0.41437 0.39561 0.94705 0.0
O136 O 0.35987 0.2409 0.92331 0.0
O137 O 0.26173 0.29221 0.92746 0.0
O138 O 0.42741 0.24626 0.97177 0.0
O139 O 0.32906 0.265 0.96072 0.0
Co140 Co 0.77623 0.9024 0.19637 0.0
O141 O 0.87062 0.88683 0.19801 0.0
O142 O 0.82559 0.97848 0.18776 0.0
C143 C 0.75088 0.86665 0.22335 0.0
O144 O 0.68173 0.93837 0.1935 0.0
Co145 Co 0.67459 0.78773 0.19909 0.0
O146 O 0.60754 0.8596 0.20039 0.0
C147 C 0.75684 0.80147 0.1676 0.0
C148 C 0.87915 0.94572 0.19161 0.0
C149 C 0.62168 0.91937 0.1965 0.0
O150 O 0.77482 0.85992 0.17248 0.0
O151 O 0.72238 0.76265 0.17718 0.0
O152 O 0.77215 0.92675 0.221 0.0
O153 O 0.75067 0.82915 0.2098 0.0
Co154 Co 0.11461 0.2768 0.44494 0.0
O155 O 0.12793 0.37194 0.44639 0.0
O156 O 0.03809 0.32405 0.43605 0.0
C157 C 0.14918 0.25205 0.47212 0.0
O158 O 0.08004 0.18172 0.44222 0.0
Co159 Co 0.23038 0.17606 0.44797 0.0
O160 O 0.15926 0.10827 0.44918 0.0
C161 C 0.21655 0.25733 0.41631 0.0
C162 C 0.06871 0.37861 0.44003 0.0
C163 C 0.0995 0.12181 0.4452 0.0
O164 O 0.15792 0.27501 0.42114 0.0
O165 O 0.25544 0.22336 0.42597 0.0
O166 O 0.08958 0.27419 0.4695 0.0
O167 O 0.18734 0.25146 0.45864 0.0
Co168 Co 0.74126 0.90314 0.56652 0.0
O169 O 0.64676 0.8873 0.56443 0.0
O170 O 0.69094 0.97987 0.57423 0.0
C171 C 0.77075 0.86502 0.53986 0.0
O172 O 0.8353 0.94034 0.56973 0.0
Co173 Co 0.84381 0.78933 0.5659 0.0
O174 O 0.91086 0.86095 0.56475 0.0
C175 C 0.75682 0.80463 0.59615 0.0
C176 C 0.63769 0.94697 0.57027 0.0
C177 C 0.89593 0.9212 0.56773 0.0
O178 O 0.74067 0.86315 0.59084 0.0
O179 O 0.79175 0.76472 0.58707 0.0
O180 O 0.74678 0.92438 0.54167 0.0
O181 O 0.76988 0.82899 0.55374 0.0
Co182 Co 0.11453 0.23845 0.81761 0.0
O183 O 0.12797 0.14335 0.81601 0.0
O184 O 0.03811 0.19088 0.8265 0.0
C185 C 0.14883 0.26378 0.79042 0.0
O186 O 0.07975 0.3334 0.82048 0.0
Co187 Co 0.22994 0.33958 0.81457 0.0
O188 O 0.15867 0.40726 0.81352 0.0
C189 C 0.21645 0.25801 0.84621 0.0
C190 C 0.06873 0.13645 0.82238 0.0
C191 C 0.09898 0.39342 0.81753 0.0
O192 O 0.15796 0.23995 0.84139 0.0
O193 O 0.25516 0.29232 0.83655 0.0
O194 O 0.08931 0.24145 0.79309 0.0
O195 O 0.18712 0.26423 0.80384 0.0
Co196 Co 0.77438 0.61422 0.06689 0.0
O197 O 0.86873 0.62949 0.06493 0.0
O198 O 0.82382 0.53821 0.07547 0.0
C199 C 0.74748 0.64903 0.03999 0.0
O200 O 0.67992 0.57865 0.07011 0.0
Co201 Co 0.6732 0.72934 0.06445 0.0
O202 O 0.60629 0.65742 0.06291 0.0
C203 C 0.7546 0.71451 0.096 0.0
C204 C 0.87731 0.57076 0.07141 0.0
C205 C 0.62005 0.59772 0.06695 0.0
O206 O 0.774 0.657 0.09074 0.0
O207 O 0.71956 0.75344 0.08661 0.0
O208 O 0.76923 0.58913 0.04236 0.0
O209 O 0.74835 0.6872 0.05342 0.0
Co210 Co 0.40397 0.27478 0.31546 0.0
O211 O 0.39317 0.36984 0.31365 0.0
O212 O 0.48174 0.32047 0.32431 0.0
C213 C 0.36919 0.25021 0.28841 0.0
O214 O 0.43489 0.17856 0.31857 0.0
Co215 Co 0.28378 0.17972 0.31251 0.0
O216 O 0.35248 0.1095 0.3111 0.0
C217 C 0.30211 0.25797 0.34446 0.0
C218 C 0.45206 0.37554 0.32021 0.0
C219 C 0.41254 0.11982 0.31539 0.0
O220 O 0.36031 0.27551 0.33923 0.0
O221 O 0.26178 0.22522 0.33494 0.0
O222 O 0.4299 0.26911 0.29096 0.0
O223 O 0.33052 0.25264 0.30174 0.0
C224 C 0.24796 0.21276 0.1184 0.0
C225 C 0.24502 0.28044 0.11384 0.0
C226 C 0.24724 0.1922 0.13584 0.0
C227 C 0.24447 0.23856 0.14943 0.0
H228 H 0.25343 0.17528 0.10843 0.0
H229 H 0.25296 0.13993 0.13867 0.0
S230 S 0.22637 0.42074 0.14463 0.0
N231 N 0.2316 0.39313 0.12447 0.0
N232 N 0.23097 0.35455 0.15721 0.0
C233 C 0.23689 0.30596 0.14508 0.0
C234 C 0.23685 0.32688 0.12731 0.0
C235 C 0.82355 0.75213 0.38546 0.0
C236 C 0.77733 0.74861 0.3991 0.0
C237 C 0.80283 0.75329 0.36806 0.0
C238 C 0.73515 0.74997 0.36359 0.0
H239 H 0.87581 0.75805 0.38824 0.0
H240 H 0.84016 0.75926 0.35804 0.0
S241 S 0.59526 0.72968 0.3945 0.0
N242 N 0.6615 0.73429 0.407 0.0
N243 N 0.62266 0.73562 0.37431 0.0
C244 C 0.68888 0.74116 0.37708 0.0
C245 C 0.70994 0.74083 0.39483 0.0
C246 C 0.274 0.19355 0.62674 0.0
C247 C 0.27735 0.24028 0.61323 0.0
C248 C 0.2721 0.21371 0.64418 0.0
C249 C 0.27413 0.28134 0.64883 0.0
H250 H 0.26824 0.14137 0.62382 0.0
H251 H 0.2659 0.17592 0.65407 0.0
S252 S 0.29549 0.42234 0.61833 0.0
N253 N 0.29185 0.35646 0.60566 0.0
N254 N 0.28865 0.39425 0.63843 0.0
C255 C 0.28363 0.32808 0.63549 0.0
C256 C 0.28502 0.30757 0.6177 0.0
C257 C 0.71553 0.77281 0.87005 0.0
C258 C 0.7832 0.77016 0.86551 0.0
C259 C 0.69496 0.77327 0.88747 0.0
C260 C 0.74125 0.77015 0.90108 0.0
H261 H 0.67783 0.77175 0.86004 0.0
H262 H 0.64235 0.7719 0.89024 0.0
S263 S 0.92438 0.77257 0.89632 0.0
N264 N 0.89652 0.77221 0.87614 0.0
N265 N 0.85802 0.77249 0.9089 0.0
C266 C 0.80913 0.77239 0.89676 0.0
C267 C 0.83008 0.77269 0.87899 0.0
C268 C 0.7482 0.82891 0.62796 0.0
C269 C 0.74176 0.78369 0.61421 0.0
C270 C 0.74975 0.80702 0.64529 0.0
C271 C 0.74407 0.73917 0.64956 0.0
H272 H 0.75656 0.88096 0.62529 0.0
H273 H 0.75819 0.84344 0.65538 0.0
S274 S 0.71505 0.60238 0.61827 0.0
N275 N 0.72167 0.66921 0.60599 0.0
N276 N 0.7237 0.62814 0.63851 0.0
C277 C 0.73196 0.69426 0.63596 0.0
C278 C 0.73114 0.7165 0.61831 0.0
C279 C 0.21353 0.24702 0.89539 0.0
C280 C 0.28137 0.24566 0.89977 0.0
C281 C 0.19251 0.24615 0.878 0.0
C282 C 0.23854 0.2449 0.86429 0.0
H283 H 0.17622 0.25127 0.90546 0.0
H284 H 0.14003 0.25053 0.87531 0.0
S285 S 0.42124 0.23163 0.86862 0.0
N286 N 0.39405 0.23557 0.88886 0.0
N287 N 0.35464 0.23477 0.85621 0.0
C288 C 0.30624 0.23906 0.86847 0.0
C289 C 0.32762 0.23909 0.88619 0.0
C290 C 0.76527 0.80378 0.11843 0.0
C291 C 0.76823 0.73588 0.11415 0.0
C292 C 0.76667 0.82523 0.13578 0.0
C293 C 0.77005 0.77953 0.14953 0.0
H294 H 0.75932 0.84071 0.10832 0.0
H295 H 0.7609 0.87761 0.13843 0.0
S296 S 0.7882 0.59719 0.14543 0.0
N297 N 0.78225 0.62376 0.12517 0.0
N298 N 0.78394 0.66399 0.15775 0.0
C299 C 0.77756 0.71194 0.14544 0.0
C300 C 0.77702 0.69014 0.12776 0.0
C301 C 0.19263 0.26957 0.38455 0.0
C302 C 0.23866 0.27063 0.39823 0.0
C303 C 0.21367 0.26914 0.36715 0.0
C304 C 0.28151 0.27072 0.36273 0.0
H305 H 0.14016 0.26507 0.38727 0.0
H306 H 0.17637 0.26505 0.3571 0.0
S307 S 0.42133 0.28437 0.3938 0.0
N308 N 0.35471 0.28084 0.40625 0.0
N309 N 0.39417 0.28079 0.37358 0.0
C310 C 0.32775 0.27706 0.37629 0.0
C311 C 0.30634 0.27669 0.39402 0.0
C312 C 0.26744 0.23011 0.24758 0.0
C313 C 0.29416 0.17264 0.24005 0.0
C314 C 0.29204 0.25471 0.26335 0.0
C315 C 0.34588 0.22418 0.27166 0.0
H316 H 0.22662 0.25565 0.24137 0.0
H317 H 0.26934 0.29837 0.26897 0.0
S318 S 0.4347 0.07374 0.25693 0.0
N319 N 0.37705 0.08573 0.24201 0.0
N320 N 0.42571 0.13418 0.27123 0.0
C321 C 0.37389 0.16742 0.26411 0.0
C322 C 0.34735 0.14102 0.24837 0.0
C323 C 0.7967 0.844 0.49118 0.0
C324 C 0.84444 0.79337 0.49017 0.0
C325 C 0.77434 0.86783 0.50731 0.0
C326 C 0.79739 0.84054 0.52303 0.0
H327 H 0.77679 0.86584 0.47943 0.0
H328 H 0.73766 0.907 0.50745 0.0
S329 S 0.9221 0.70612 0.52734 0.0
N330 N 0.91466 0.71719 0.50616 0.0
N331 N 0.87082 0.75963 0.5364 0.0
C332 C 0.84487 0.7895 0.52213 0.0
C333 C 0.86891 0.76657 0.50573 0.0
C334 C 0.23981 0.3642 0.75603 0.0
C335 C 0.21692 0.33659 0.74035 0.0
C336 C 0.21797 0.3401 0.7722 0.0
C337 C 0.17086 0.28889 0.77328 0.0
H338 H 0.27595 0.40386 0.75582 0.0
H339 H 0.23772 0.36222 0.78391 0.0
S340 S 0.09378 0.20071 0.73623 0.0
N341 N 0.14434 0.25479 0.72709 0.0
N342 N 0.10137 0.21186 0.75739 0.0
C343 C 0.14656 0.26176 0.75776 0.0
C344 C 0.17013 0.28494 0.74132 0.0
C345 C 0.74865 0.72908 0.0155 0.0
C346 C 0.7213 0.67229 0.02324 0.0
C347 C 0.72433 0.75321 0.99965 0.0
C348 C 0.67019 0.72286 0.99144 0.0
H349 H 0.78982 0.75439 0.02161 0.0
H350 H 0.74759 0.79629 0.99384 0.0
S351 S 0.57974 0.57409 0.00673 0.0
N352 N 0.63749 0.58618 0.02162 0.0
N353 N 0.58937 0.63377 0.9922 0.0
C354 C 0.6415 0.66681 0.99921 0.0
C355 C 0.66773 0.64089 0.01506 0.0
C356 C 0.25839 0.29561 0.0135 0.0
C357 C 0.29279 0.34491 0.02264 0.0
C358 C 0.2827 0.27107 0.99768 0.0
C359 C 0.34344 0.29322 0.99088 0.0
H360 H 0.2121 0.27634 0.01855 0.0
H361 H 0.25435 0.23369 0.99085 0.0
S362 S 0.45241 0.42164 0.00996 0.0
N363 N 0.38958 0.41619 0.0237 0.0
N364 N 0.43722 0.36744 0.99436 0.0
C365 C 0.37869 0.34202 1.0 0.0
C366 C 0.3528 0.3686 0.01581 0.0
C367 C 0.653 0.85252 0.26535 0.0
C368 C 0.67635 0.79241 0.27226 0.0
C369 C 0.6786 0.87761 0.24965 0.0
C370 C 0.72686 0.84226 0.24027 0.0
H371 H 0.61557 0.88064 0.27225 0.0
H372 H 0.65965 0.92407 0.24464 0.0
S373 S 0.80394 0.68294 0.25304 0.0
N374 N 0.75118 0.6993 0.26891 0.0
N375 N 0.79702 0.74466 0.23903 0.0
C376 C 0.74995 0.78194 0.24703 0.0
C377 C 0.7253 0.75747 0.26317 0.0
C378 C 0.21907 0.17658 0.49033 0.0
C379 C 0.17155 0.22741 0.48925 0.0
C380 C 0.24145 0.15311 0.50649 0.0
C381 C 0.21872 0.18102 0.52216 0.0
H382 H 0.23875 0.15429 0.47861 0.0
H383 H 0.27791 0.11374 0.50669 0.0
S384 S 0.09453 0.31601 0.5263 0.0
N385 N 0.10175 0.30431 0.50514 0.0
N386 N 0.14574 0.26262 0.53542 0.0
C387 C 0.17147 0.23226 0.5212 0.0
C388 C 0.14735 0.25477 0.50477 0.0
C389 C 0.84058 0.71817 0.74176 0.0
C390 C 0.78899 0.6715 0.74074 0.0
C391 C 0.86433 0.74031 0.75791 0.0
C392 C 0.83601 0.71814 0.77361 0.0
H393 H 0.86324 0.73734 0.73002 0.0
H394 H 0.90433 0.77606 0.75806 0.0
S395 S 0.69868 0.59657 0.77785 0.0
N396 N 0.71068 0.60334 0.75669 0.0
N397 N 0.75297 0.64685 0.78693 0.0
C398 C 0.78393 0.67183 0.77269 0.0
C399 C 0.76108 0.64797 0.75628 0.0
C400 C 0.01829 0.0733 0.19025 0.0
C401 C 0.0762 0.03426 0.1899 0.0
C402 C 0.95486 0.04444 0.19007 0.0
C403 C 0.94657 0.97522 0.18988 0.0
H404 H 0.0219 0.12678 0.19089 0.0
H405 H 0.91203 0.07667 0.19069 0.0
S406 S 0.08175 0.85062 0.18807 0.0
N407 N 0.1207 0.92251 0.18852 0.0
N408 N 1.00193 0.86836 0.18857 0.0
C409 C 1.00398 0.93561 0.18912 0.0
C410 C 0.06858 0.96505 0.18901 0.0
C411 C 0.07493 0.50324 0.43915 0.0
C412 C 0.03646 0.445 0.43855 0.0
C413 C 0.0454 0.56648 0.43913 0.0
C414 C 0.97607 0.57415 0.43889 0.0
H415 H 0.12841 0.50004 0.43985 0.0
H416 H 0.07717 0.6096 0.43993 0.0
S417 S 0.8528 0.43797 0.43654 0.0
N418 N 0.92504 0.39967 0.43694 0.0
N419 N 0.86983 0.5179 0.43731 0.0
C420 C 0.93708 0.51642 0.43792 0.0
C421 C 0.96714 0.45212 0.43763 0.0
C422 C 0.49638 0.44285 0.69132 0.0
C423 C 0.43802 0.48118 0.69113 0.0
C424 C 0.5595 0.47253 0.69089 0.0
C425 C 0.56705 0.54188 0.69061 0.0
H426 H 0.49339 0.38933 0.69195 0.0
H427 H 0.60272 0.44078 0.69134 0.0
S428 S 0.43043 0.66489 0.6893 0.0
N429 N 0.39233 0.59255 0.68991 0.0
N430 N 0.51045 0.64805 0.68951 0.0
C431 C 0.50918 0.58078 0.6901 0.0
C432 C 0.44491 0.55056 0.69024 0.0
C433 C 0.54694 0.06342 0.94145 0.0
C434 C 0.47776 0.07163 0.94079 0.0
C435 C 0.57586 0.99994 0.94168 0.0
C436 C 0.5369 0.94204 0.94089 0.0
H437 H 0.57898 0.10628 0.94244 0.0
H438 H 0.62923 0.99629 0.9427 0.0
S439 S 0.35352 0.93653 0.93767 0.0
N440 N 0.37118 0.01631 0.93852 0.0
N441 N 0.42536 0.89759 0.93855 0.0
C442 C 0.46781 0.94969 0.93951 0.0
C443 C 0.43833 0.01425 0.93958 0.0
C444 C 0.0165 0.44321 0.07258 0.0
C445 C 0.07436 0.48229 0.07292 0.0
C446 C 0.95304 0.47204 0.07283 0.0
C447 C 0.94472 0.54125 0.07306 0.0
H448 H 0.02015 0.38974 0.0719 0.0
H449 H 0.91023 0.4398 0.07221 0.0
S450 S 0.07978 0.66592 0.0749 0.0
N451 N 0.11879 0.59405 0.07437 0.0
N452 N 0.99998 0.64813 0.07444 0.0
C453 C 1.00209 0.58089 0.07382 0.0
C454 C 0.0667 0.55149 0.07387 0.0
C455 C 0.474 0.56316 0.32193 0.0
C456 C 0.5432 0.57143 0.32221 0.0
C457 C 0.44512 0.49973 0.32166 0.0
C458 C 0.48412 0.4418 0.32201 0.0
H459 H 0.44179 0.606 0.32131 0.0
H460 H 0.39167 0.49615 0.32095 0.0
S461 S 0.6677 0.43617 0.32409 0.0
N462 N 0.65 0.51602 0.32363 0.0
N463 N 0.59581 0.39724 0.32351 0.0
C464 C 0.55331 0.44939 0.323 0.0
C465 C 0.58278 0.51399 0.32298 0.0
C466 C 0.56275 0.04665 0.57102 0.0
C467 C 0.57028 0.97728 0.5714 0.0
C468 C 0.49966 0.0764 0.57069 0.0
C469 C 0.44125 0.03817 0.57107 0.0
H470 H 0.60598 0.07837 0.57048 0.0
H471 H 0.49672 0.12992 0.57002 0.0
S472 S 0.43351 0.85448 0.57306 0.0
N473 N 0.51355 0.87121 0.57268 0.0
N474 N 0.39548 0.92686 0.57246 0.0
C475 C 0.4481 0.96878 0.57199 0.0
C476 C 0.51236 0.93846 0.57202 0.0
C477 C 0.07473 0.01175 0.82276 0.0
C478 C 0.03638 0.07001 0.82369 0.0
C479 C 0.0451 0.94856 0.82265 0.0
C480 C 0.97578 0.94094 0.8231 0.0
H481 H 0.12819 0.0149 0.82191 0.0
H482 H 0.0768 0.90545 0.82165 0.0
S483 S 0.8528 0.07719 0.82629 0.0
N484 N 0.92508 0.1154 0.82579 0.0
N485 N 0.86968 0.99728 0.82521 0.0
C486 C 0.93691 0.99868 0.82437 0.0
C487 C 0.96708 0.06293 0.82477 0.0
C488 C 0.49991 0.9461 0.19496 0.0
C489 C 0.56614 0.96837 0.19559 0.0
C490 C 0.44633 0.99057 0.19484 0.0
C491 C 0.45626 0.05956 0.19549 0.0
H492 H 0.48903 0.89358 0.19463 0.0
H493 H 0.39664 0.97041 0.19455 0.0
S494 S 0.61992 0.14424 0.19688 0.0
N495 N 0.63839 0.06464 0.19654 0.0
N496 N 0.53831 0.14805 0.19635 0.0
C497 C 0.52233 0.08266 0.19589 0.0
C498 C 0.57694 0.03727 0.1959 0.0
C499 C 0.02888 0.94597 0.44584 0.0
C500 C 0.96015 0.95572 0.44429 0.0
C501 C 0.07319 0.99969 0.44588 0.0
C502 C 0.05101 0.06578 0.44424 0.0
H503 H 0.04871 0.89649 0.44745 0.0
H504 H 0.12543 0.98902 0.4474 0.0
S505 S 0.87596 0.11822 0.43852 0.0
N506 N 0.8722 0.0368 0.44014 0.0
N507 N 0.95516 0.1372 0.44021 0.0
C508 C 0.98246 0.0761 0.44217 0.0
C509 C 0.93726 0.02138 0.44221 0.0
C510 C 0.06767 0.52618 0.69598 0.0
C511 C 0.05766 0.45747 0.69445 0.0
C512 C 0.01414 0.57069 0.69629 0.0
C513 C 0.94786 0.54882 0.69497 0.0
H514 H 0.11727 0.54592 0.69734 0.0
H515 H 0.02515 0.62289 0.69776 0.0
S516 S 0.89438 0.37396 0.6896 0.0
N517 N 0.97587 0.36983 0.69078 0.0
N518 N 0.87583 0.45327 0.69136 0.0
C519 C 0.93717 0.4803 0.69297 0.0
C520 C 0.99173 0.43485 0.69273 0.0
C521 C 0.52976 0.44316 0.94773 0.0
C522 C 0.46106 0.45301 0.94607 0.0
C523 C 0.57417 0.49683 0.94795 0.0
C524 C 0.5521 0.56296 0.94634 0.0
H525 H 0.54948 0.39361 0.94929 0.0
H526 H 0.62637 0.48612 0.94953 0.0
S527 S 0.3771 0.61576 0.94069 0.0
N528 N 0.37324 0.53429 0.9421 0.0
N529 N 0.45632 0.6346 0.94246 0.0
C530 C 0.48356 0.5734 0.94427 0.0
C531 C 0.43828 0.51875 0.94416 0.0
C532 C 0.4981 0.57121 0.06707 0.0
C533 C 0.56431 0.54891 0.06783 0.0
C534 C 0.44449 0.52682 0.06715 0.0
C535 C 0.45441 0.45787 0.06784 0.0
H536 H 0.48722 0.62366 0.06629 0.0
H537 H 0.39485 0.54691 0.06629 0.0
S538 S 0.61767 0.37308 0.07058 0.0
N539 N 0.63634 0.45259 0.06975 0.0
N540 N 0.53608 0.36938 0.06986 0.0
C541 C 0.52032 0.43475 0.06886 0.0
C542 C 0.57497 0.48006 0.06888 0.0
C543 C 0.52751 0.07171 0.3171 0.0
C544 C 0.45856 0.06177 0.31636 0.0
C545 C 0.57195 0.01814 0.31711 0.0
C546 C 0.54968 0.9519 0.31654 0.0
H547 H 0.54768 0.12142 0.31735 0.0
H548 H 0.62445 0.02904 0.3175 0.0
S549 S 0.37389 0.89808 0.31506 0.0
N550 N 0.37007 0.97971 0.31547 0.0
N551 N 0.45346 0.8796 0.31554 0.0
C552 C 0.48081 0.94108 0.31613 0.0
C553 C 0.43544 0.99569 0.31601 0.0
C554 C 0.01772 0.94864 0.56741 0.0
C555 C 0.95138 0.97041 0.56868 0.0
C556 C 0.0711 0.9933 0.56748 0.0
C557 C 0.06088 0.06206 0.56872 0.0
H558 H 0.02892 0.8964 0.56616 0.0
H559 H 0.12075 0.97359 0.56617 0.0
S560 S 0.89738 0.14543 0.57336 0.0
N561 N 0.87906 0.06597 0.57195 0.0
N562 N 0.97886 0.14971 0.57208 0.0
C563 C 0.9949 0.08463 0.57039 0.0
C564 C 0.94046 0.03901 0.57038 0.0
C565 C 0.02782 0.56908 0.81796 0.0
C566 C 0.95895 0.55898 0.81894 0.0
C567 C 0.07234 0.51551 0.81774 0.0
C568 C 0.05024 0.4492 0.81861 0.0
H569 H 0.04771 0.61878 0.81701 0.0
H570 H 0.12472 0.52648 0.81674 0.0
S571 S 0.87481 0.3953 0.82223 0.0
N572 N 0.87089 0.47688 0.82147 0.0
N573 N 0.95429 0.37692 0.82104 0.0
C574 C 0.98153 0.43839 0.82 0.0
C575 C 0.93611 0.49292 0.82016 0.0
loop_
_geom_bond_atom_site_label_1
_geom_bond_atom_site_label_2
_geom_bond_distance
_geom_bond_site_symmetry_2
_ccdc_geom_bond_type
Co0 O1 2.216 . S
Co0 O2 2.091 . S
Co0 O4 2.004 . S
Co0 O10 2.021 . S
Co0 O12 2.137 . S
Co0 O13 2.244 . S
O1 Co0 2.216 . S
O1 C8 1.247 . S
O2 Co0 2.091 . S
O2 C8 1.261 . S
C3 O12 1.247 . S
C3 O13 1.272 . S
O4 Co0 2.004 . S
O4 C9 1.259 . S
Co5 O6 2.061 . S
Co5 O11 2.052 . S
Co5 O13 2.135 . S
O6 Co5 2.061 . S
O6 C9 1.235 . S
C7 O10 1.238 . S
C7 O11 1.241 . S
C8 O1 1.247 . S
C8 O2 1.261 . S
C9 O4 1.259 . S
C9 O6 1.235 . S
O10 Co0 2.021 . S
O10 C7 1.238 . S
O11 Co5 2.052 . S
O11 C7 1.241 . S
O12 Co0 2.137 . S
O12 C3 1.247 . S
O13 Co0 2.244 . S
O13 C3 1.272 . S
O13 Co5 2.135 . S
Co14 O15 2.216 . S
Co14 O16 2.091 . S
Co14 O18 2.004 . S
Co14 O24 2.021 . S
Co14 O26 2.137 . S
Co14 O27 2.244 . S
O15 Co14 2.216 . S
O15 C22 1.247 . S
O16 Co14 2.091 . S
O16 C22 1.261 . S
C17 O26 1.247 . S
C17 O27 1.272 . S
O18 Co14 2.004 . S
O18 C23 1.259 . S
Co19 O20 2.061 . S
Co19 O25 2.052 . S
Co19 O27 2.135 . S
O20 Co19 2.061 . S
O20 C23 1.235 . S
C21 O24 1.238 . S
C21 O25 1.241 . S
C22 O15 1.247 . S
C22 O16 1.261 . S
C23 O18 1.259 . S
C23 O20 1.235 . S
O24 Co14 2.021 . S
O24 C21 1.238 . S
O25 Co19 2.052 . S
O25 C21 1.241 . S
O26 Co14 2.137 . S
O26 C17 1.247 . S
O27 Co14 2.244 . S
O27 C17 1.272 . S
O27 Co19 2.135 . S
Co28 O29 2.216 . S
Co28 O30 2.091 . S
Co28 O32 2.004 . S
Co28 O38 2.021 . S
Co28 O40 2.137 . S
Co28 O41 2.244 . S
O29 Co28 2.216 . S
O29 C36 1.247 . S
O30 Co28 2.091 . S
O30 C36 1.261 . S
C31 O40 1.247 . S
C31 O41 1.272 . S
O32 Co28 2.004 . S
O32 C37 1.259 . S
Co33 O34 2.061 . S
Co33 O39 2.052 . S
Co33 O41 2.135 . S
O34 Co33 2.061 . S
O34 C37 1.235 . S
C35 O38 1.238 . S
C35 O39 1.241 . S
C36 O29 1.247 . S
C36 O30 1.261 . S
C37 O32 1.259 . S
C37 O34 1.235 . S
O38 Co28 2.021 . S
O38 C35 1.238 . S
O39 Co33 2.052 . S
O39 C35 1.241 . S
O40 Co28 2.137 . S
O40 C31 1.247 . S
O41 Co28 2.244 . S
O41 C31 1.272 . S
O41 Co33 2.135 . S
Co42 O43 2.216 . S
Co42 O44 2.091 . S
Co42 O46 2.004 . S
Co42 O52 2.021 . S
Co42 O54 2.137 . S
Co42 O55 2.244 . S
O43 Co42 2.216 . S
O43 C50 1.247 . S
O44 Co42 2.091 . S
O44 C50 1.261 . S
C45 O54 1.247 . S
C45 O55 1.272 . S
O46 Co42 2.004 . S
O46 C51 1.259 . S
Co47 O48 2.061 . S
Co47 O53 2.052 . S
Co47 O55 2.135 . S
O48 Co47 2.061 . S
O48 C51 1.235 . S
C49 O52 1.238 . S
C49 O53 1.241 . S
C50 O43 1.247 . S
C50 O44 1.261 . S
C51 O46 1.259 . S
C51 O48 1.235 . S
O52 Co42 2.021 . S
O52 C49 1.238 . S
O53 Co47 2.052 . S
O53 C49 1.241 . S
O54 Co42 2.137 . S
O54 C45 1.247 . S
O55 Co42 2.244 . S
O55 C45 1.272 . S
O55 Co47 2.135 . S
Co56 O57 2.216 . S
Co56 O58 2.091 . S
Co56 O60 2.004 . S
Co56 O66 2.021 . S
Co56 O68 2.137 . S
Co56 O69 2.244 . S
O57 Co56 2.216 . S
O57 C64 1.247 . S
O58 Co56 2.091 . S
O58 C64 1.261 . S
C59 O68 1.247 . S
C59 O69 1.272 . S
O60 Co56 2.004 . S
O60 C65 1.259 . S
Co61 O62 2.061 . S
Co61 O67 2.052 . S
Co61 O69 2.135 . S
O62 Co61 2.061 . S
O62 C65 1.235 . S
C63 O66 1.238 . S
C63 O67 1.241 . S
C64 O57 1.247 . S
C64 O58 1.261 . S
C65 O60 1.259 . S
C65 O62 1.235 . S
O66 Co56 2.021 . S
O66 C63 1.238 . S
O67 Co61 2.052 . S
O67 C63 1.241 . S
O68 Co56 2.137 . S
O68 C59 1.247 . S
O69 Co56 2.244 . S
O69 C59 1.272 . S
O69 Co61 2.135 . S
Co70 O71 2.216 . S
Co70 O72 2.091 . S
Co70 O74 2.004 . S
Co70 O80 2.021 . S
Co70 O82 2.137 . S
Co70 O83 2.244 . S
O71 Co70 2.216 . S
O71 C78 1.247 . S
O72 Co70 2.091 . S
O72 C78 1.261 . S
C73 O82 1.247 . S
C73 O83 1.272 . S
O74 Co70 2.004 . S
O74 C79 1.259 . S
Co75 O76 2.061 . S
Co75 O81 2.052 . S
Co75 O83 2.135 . S
O76 Co75 2.061 . S
O76 C79 1.235 . S
C77 O80 1.238 . S
C77 O81 1.241 . S
C78 O71 1.247 . S
C78 O72 1.261 . S
C79 O74 1.259 . S
C79 O76 1.235 . S
O80 Co70 2.021 . S
O80 C77 1.238 . S
O81 Co75 2.052 . S
O81 C77 1.241 . S
O82 Co70 2.137 . S
O82 C73 1.247 . S
O83 Co70 2.244 . S
O83 C73 1.272 . S
O83 Co75 2.135 . S
Co84 O85 2.216 . S
Co84 O86 2.091 . S
Co84 O88 2.004 . S
Co84 O94 2.021 . S
Co84 O96 2.137 . S
Co84 O97 2.244 . S
O85 Co84 2.216 . S
O85 C92 1.247 . S
O86 Co84 2.091 . S
O86 C92 1.261 . S
C87 O96 1.247 . S
C87 O97 1.272 . S
O88 Co84 2.004 . S
O88 C93 1.259 . S
Co89 O90 2.061 . S
Co89 O95 2.052 . S
Co89 O97 2.135 . S
O90 Co89 2.061 . S
O90 C93 1.235 . S
C91 O94 1.238 . S
C91 O95 1.241 . S
C92 O85 1.247 . S
C92 O86 1.261 . S
C93 O88 1.259 . S
C93 O90 1.235 . S
O94 Co84 2.021 . S
O94 C91 1.238 . S
O95 Co89 2.052 . S
O95 C91 1.241 . S
O96 Co84 2.137 . S
O96 C87 1.247 . S
O97 Co84 2.244 . S
O97 C87 1.272 . S
O97 Co89 2.135 . S
Co98 O99 2.216 . S
Co98 O100 2.091 . S
Co98 O102 2.004 . S
Co98 O108 2.021 . S
Co98 O110 2.137 . S
Co98 O111 2.244 . S
O99 Co98 2.216 . S
O99 C106 1.247 . S
O100 Co98 2.091 . S
O100 C106 1.261 . S
C101 O110 1.247 . S
C101 O111 1.272 . S
O102 Co98 2.004 . S
O102 C107 1.259 . S
Co103 O104 2.061 . S
Co103 O109 2.052 . S
Co103 O111 2.135 . S
O104 Co103 2.061 . S
O104 C107 1.235 . S
C105 O108 1.238 . S
C105 O109 1.241 . S
C106 O99 1.247 . S
C106 O100 1.261 . S
C107 O102 1.259 . S
C107 O104 1.235 . S
O108 Co98 2.021 . S
O108 C105 1.238 . S
O109 Co103 2.052 . S
O109 C105 1.241 . S
O110 Co98 2.137 . S
O110 C101 1.247 . S
O111 Co98 2.244 . S
O111 C101 1.272 . S
O111 Co103 2.135 . S
Co112 O113 2.216 . S
Co112 O114 2.091 . S
Co112 O116 2.004 . S
Co112 O122 2.021 . S
Co112 O124 2.137 . S
Co112 O125 2.244 . S
O113 Co112 2.216 . S
O113 C120 1.247 . S
O114 Co112 2.091 . S
O114 C120 1.261 . S
C115 O124 1.247 . S
C115 O125 1.272 . S
O116 Co112 2.004 . S
O116 C121 1.259 . S
Co117 O118 2.061 . S
Co117 O123 2.052 . S
Co117 O125 2.135 . S
O118 Co117 2.061 . S
O118 C121 1.235 . S
C119 O122 1.238 . S
C119 O123 1.241 . S
C120 O113 1.247 . S
C120 O114 1.261 . S
C121 O116 1.259 . S
C121 O118 1.235 . S
O122 Co112 2.021 . S
O122 C119 1.238 . S
O123 Co117 2.052 . S
O123 C119 1.241 . S
O124 Co112 2.137 . S
O124 C115 1.247 . S
O125 Co112 2.244 . S
O125 C115 1.272 . S
O125 Co117 2.135 . S
Co126 O127 2.216 . S
Co126 O128 2.091 . S
Co126 O130 2.004 . S
Co126 O136 2.021 . S
Co126 O138 2.137 . S
Co126 O139 2.244 . S
O127 Co126 2.216 . S
O127 C134 1.247 . S
O128 Co126 2.091 . S
O128 C134 1.261 . S
C129 O138 1.247 . S
C129 O139 1.272 . S
O130 Co126 2.004 . S
O130 C135 1.259 . S
Co131 O132 2.061 . S
Co131 O137 2.052 . S
Co131 O139 2.135 . S
O132 Co131 2.061 . S
O132 C135 1.235 . S
C133 O136 1.238 . S
C133 O137 1.241 . S
C134 O127 1.247 . S
C134 O128 1.261 . S
C135 O130 1.259 . S
C135 O132 1.235 . S
O136 Co126 2.021 . S
O136 C133 1.238 . S
O137 Co131 2.052 . S
O137 C133 1.241 . S
O138 Co126 2.137 . S
O138 C129 1.247 . S
O139 Co126 2.244 . S
O139 C129 1.272 . S
O139 Co131 2.135 . S
Co140 O141 2.216 . S
Co140 O142 2.091 . S
Co140 O144 2.004 . S
Co140 O150 2.021 . S
Co140 O152 2.137 . S
Co140 O153 2.244 . S
O141 Co140 2.216 . S
O141 C148 1.247 . S
O142 Co140 2.091 . S
O142 C148 1.261 . S
C143 O152 1.247 . S
C143 O153 1.272 . S
O144 Co140 2.004 . S
O144 C149 1.259 . S
Co145 O146 2.061 . S
Co145 O151 2.052 . S
Co145 O153 2.135 . S
O146 Co145 2.061 . S
O146 C149 1.235 . S
C147 O150 1.238 . S
C147 O151 1.241 . S
C148 O141 1.247 . S
C148 O142 1.261 . S
C149 O144 1.259 . S
C149 O146 1.235 . S
O150 Co140 2.021 . S
O150 C147 1.238 . S
O151 Co145 2.052 . S
O151 C147 1.241 . S
O152 Co140 2.137 . S
O152 C143 1.247 . S
O153 Co140 2.244 . S
O153 C143 1.272 . S
O153 Co145 2.135 . S
Co154 O155 2.216 . S
Co154 O156 2.091 . S
Co154 O158 2.004 . S
Co154 O164 2.021 . S
Co154 O166 2.137 . S
Co154 O167 2.244 . S
O155 Co154 2.216 . S
O155 C162 1.247 . S
O156 Co154 2.091 . S
O156 C162 1.261 . S
C157 O166 1.247 . S
C157 O167 1.272 . S
O158 Co154 2.004 . S
O158 C163 1.259 . S
Co159 O160 2.061 . S
Co159 O165 2.052 . S
Co159 O167 2.135 . S
O160 Co159 2.061 . S
O160 C163 1.235 . S
C161 O164 1.238 . S
C161 O165 1.241 . S
C162 O155 1.247 . S
C162 O156 1.261 . S
C163 O158 1.259 . S
C163 O160 1.235 . S
O164 Co154 2.021 . S
O164 C161 1.238 . S
O165 Co159 2.052 . S
O165 C161 1.241 . S
O166 Co154 2.137 . S
O166 C157 1.247 . S
O167 Co154 2.244 . S
O167 C157 1.272 . S
O167 Co159 2.135 . S
Co168 O169 2.216 . S
Co168 O170 2.091 . S
Co168 O172 2.004 . S
Co168 O178 2.021 . S
Co168 O180 2.137 . S
Co168 O181 2.244 . S
O169 Co168 2.216 . S
O169 C176 1.247 . S
O170 Co168 2.091 . S
O170 C176 1.261 . S
C171 O180 1.247 . S
C171 O181 1.272 . S
O172 Co168 2.004 . S
O172 C177 1.259 . S
Co173 O174 2.061 . S
Co173 O179 2.052 . S
Co173 O181 2.135 . S
O174 Co173 2.061 . S
O174 C177 1.235 . S
C175 O178 1.238 . S
C175 O179 1.241 . S
C176 O169 1.247 . S
C176 O170 1.261 . S
C177 O172 1.259 . S
C177 O174 1.235 . S
O178 Co168 2.021 . S
O178 C175 1.238 . S
O179 Co173 2.052 . S
O179 C175 1.241 . S
O180 Co168 2.137 . S
O180 C171 1.247 . S
O181 Co168 2.244 . S
O181 C171 1.272 . S
O181 Co173 2.135 . S
Co182 O183 2.216 . S
Co182 O184 2.091 . S
Co182 O186 2.004 . S
Co182 O192 2.021 . S
Co182 O194 2.137 . S
Co182 O195 2.244 . S
O183 Co182 2.216 . S
O183 C190 1.247 . S
O184 Co182 2.091 . S
O184 C190 1.261 . S
C185 O194 1.247 . S
C185 O195 1.272 . S
O186 Co182 2.004 . S
O186 C191 1.259 . S
Co187 O188 2.061 . S
Co187 O193 2.052 . S
Co187 O195 2.135 . S
O188 Co187 2.061 . S
O188 C191 1.235 . S
C189 O192 1.238 . S
C189 O193 1.241 . S
C190 O183 1.247 . S
C190 O184 1.261 . S
C191 O186 1.259 . S
C191 O188 1.235 . S
O192 Co182 2.021 . S
O192 C189 1.238 . S
O193 Co187 2.052 . S
O193 C189 1.241 . S
O194 Co182 2.137 . S
O194 C185 1.247 . S
O195 Co182 2.244 . S
O195 C185 1.272 . S
O195 Co187 2.135 . S
Co196 O197 2.216 . S
Co196 O198 2.091 . S
Co196 O200 2.004 . S
Co196 O206 2.021 . S
Co196 O208 2.137 . S
Co196 O209 2.244 . S
O197 Co196 2.216 . S
O197 C204 1.247 . S
O198 Co196 2.091 . S
O198 C204 1.261 . S
C199 O208 1.247 . S
C199 O209 1.272 . S
O200 Co196 2.004 . S
O200 C205 1.259 . S
Co201 O202 2.061 . S
Co201 O207 2.052 . S
Co201 O209 2.135 . S
O202 Co201 2.061 . S
O202 C205 1.235 . S
C203 O206 1.238 . S
C203 O207 1.241 . S
C204 O197 1.247 . S
C204 O198 1.261 . S
C205 O200 1.259 . S
C205 O202 1.235 . S
O206 Co196 2.021 . S
O206 C203 1.238 . S
O207 Co201 2.052 . S
O207 C203 1.241 . S
O208 Co196 2.137 . S
O208 C199 1.247 . S
O209 Co196 2.244 . S
O209 C199 1.272 . S
O209 Co201 2.135 . S
Co210 O211 2.216 . S
Co210 O212 2.091 . S
Co210 O214 2.004 . S
Co210 O220 2.021 . S
Co210 O222 2.137 . S
Co210 O223 2.244 . S
O211 Co210 2.216 . S
O211 C218 1.247 . S
O212 Co210 2.091 . S
O212 C218 1.261 . S
C213 O222 1.247 . S
C213 O223 1.272 . S
O214 Co210 2.004 . S
O214 C219 1.259 . S
Co215 O216 2.061 . S
Co215 O221 2.052 . S
Co215 O223 2.135 . S
O216 Co215 2.061 . S
O216 C219 1.235 . S
C217 O220 1.238 . S
C217 O221 1.241 . S
C218 O211 1.247 . S
C218 O212 1.261 . S
C219 O214 1.259 . S
C219 O216 1.235 . S
O220 Co210 2.021 . S
O220 C217 1.238 . S
O221 Co215 2.052 . S
O221 C217 1.241 . S
O222 Co210 2.137 . S
O222 C213 1.247 . S
O223 Co210 2.244 . S
O223 C213 1.272 . S
O223 Co215 2.135 . S
C224 C225 1.369 . S
C224 C226 1.419 . S
C224 H228 0.930 . S
C225 C224 1.369 . S
C225 C234 1.429 . S
C226 C224 1.419 . S
C226 C227 1.363 . S
C226 H229 0.929 . S
C227 C226 1.363 . S
C227 C233 1.428 . S
H228 C224 0.930 . S
H229 C226 0.929 . S
S230 N231 1.613 . S
S230 N232 1.610 . S
N231 S230 1.613 . S
N231 C234 1.350 . S
N232 S230 1.610 . S
N232 C233 1.351 . S
C233 C227 1.428 . S
C233 N232 1.351 . S
C233 C234 1.434 . S
C234 C225 1.429 . S
C234 N231 1.350 . S
C234 C233 1.434 . S
C235 C236 1.369 . S
C235 C237 1.419 . S
C235 H239 0.930 . S
C236 C235 1.369 . S
C236 C245 1.429 . S
C237 C235 1.419 . S
C237 C238 1.363 . S
C237 H240 0.929 . S
C238 C237 1.363 . S
C238 C244 1.428 . S
H239 C235 0.930 . S
H240 C237 0.929 . S
S241 N242 1.613 . S
S241 N243 1.610 . S
N242 S241 1.613 . S
N242 C245 1.350 . S
N243 S241 1.610 . S
N243 C244 1.351 . S
C244 C238 1.428 . S
C244 N243 1.351 . S
C244 C245 1.434 . S
C245 C236 1.429 . S
C245 N242 1.350 . S
C245 C244 1.434 . S
C246 C247 1.369 . S
C246 C248 1.419 . S
C246 H250 0.930 . S
C247 C246 1.369 . S
C247 C256 1.429 . S
C248 C246 1.419 . S
C248 C249 1.363 . S
C248 H251 0.929 . S
C249 C248 1.363 . S
C249 C255 1.428 . S
H250 C246 0.930 . S
H251 C248 0.929 . S
S252 N253 1.613 . S
S252 N254 1.610 . S
N253 S252 1.613 . S
N253 C256 1.350 . S
N254 S252 1.610 . S
N254 C255 1.351 . S
C255 C249 1.428 . S
C255 N254 1.351 . S
C255 C256 1.434 . S
C256 C247 1.429 . S
C256 N253 1.350 . S
C256 C255 1.434 . S
C257 C258 1.369 . S
C257 C259 1.419 . S
C257 H261 0.930 . S
C258 C257 1.369 . S
C258 C267 1.429 . S
C259 C257 1.419 . S
C259 C260 1.363 . S
C259 H262 0.929 . S
C260 C259 1.363 . S
C260 C266 1.428 . S
H261 C257 0.930 . S
H262 C259 0.929 . S
S263 N264 1.613 . S
S263 N265 1.610 . S
N264 S263 1.613 . S
N264 C267 1.350 . S
N265 S263 1.610 . S
N265 C266 1.351 . S
C266 C260 1.428 . S
C266 N265 1.351 . S
C266 C267 1.434 . S
C267 C258 1.429 . S
C267 N264 1.350 . S
C267 C266 1.434 . S
C268 C269 1.369 . S
C268 C270 1.419 . S
C268 H272 0.930 . S
C269 C268 1.369 . S
C269 C278 1.429 . S
C270 C268 1.419 . S
C270 C271 1.363 . S
C270 H273 0.929 . S
C271 C270 1.363 . S
C271 C277 1.428 . S
H272 C268 0.930 . S
H273 C270 0.929 . S
S274 N275 1.613 . S
S274 N276 1.610 . S
N275 S274 1.613 . S
N275 C278 1.350 . S
N276 S274 1.610 . S
N276 C277 1.351 . S
C277 C271 1.428 . S
C277 N276 1.351 . S
C277 C278 1.434 . S
C278 C269 1.429 . S
C278 N275 1.350 . S
C278 C277 1.434 . S
C279 C280 1.369 . S
C279 C281 1.419 . S
C279 H283 0.930 . S
C280 C279 1.369 . S
C280 C289 1.429 . S
C281 C279 1.419 . S
C281 C282 1.363 . S
C281 H284 0.929 . S
C282 C281 1.363 . S
C282 C288 1.428 . S
H283 C279 0.930 . S
H284 C281 0.929 . S
S285 N286 1.613 . S
S285 N287 1.610 . S
N286 S285 1.613 . S
N286 C289 1.350 . S
N287 S285 1.610 . S
N287 C288 1.351 . S
C288 C282 1.428 . S
C288 N287 1.351 . S
C288 C289 1.434 . S
C289 C280 1.429 . S
C289 N286 1.350 . S
C289 C288 1.434 . S
C290 C291 1.369 . S
C290 C292 1.419 . S
C290 H294 0.930 . S
C291 C290 1.369 . S
C291 C300 1.429 . S
C292 C290 1.419 . S
C292 C293 1.363 . S
C292 H295 0.929 . S
C293 C292 1.363 . S
C293 C299 1.428 . S
H294 C290 0.930 . S
H295 C292 0.929 . S
S296 N297 1.613 . S
S296 N298 1.610 . S
N297 S296 1.613 . S
N297 C300 1.350 . S
N298 S296 1.610 . S
N298 C299 1.351 . S
C299 C293 1.428 . S
C299 N298 1.351 . S
C299 C300 1.434 . S
C300 C291 1.429 . S
C300 N297 1.350 . S
C300 C299 1.434 . S
C301 C302 1.369 . S
C301 C303 1.419 . S
C301 H305 0.930 . S
C302 C301 1.369 . S
C302 C311 1.429 . S
C303 C301 1.419 . S
C303 C304 1.363 . S
C303 H306 0.929 . S
C304 C303 1.363 . S
C304 C310 1.428 . S
H305 C301 0.930 . S
H306 C303 0.929 . S
S307 N308 1.613 . S
S307 N309 1.610 . S
N308 S307 1.613 . S
N308 C311 1.350 . S
N309 S307 1.610 . S
N309 C310 1.351 . S
C310 C304 1.428 . S
C310 N309 1.351 . S
C310 C311 1.434 . S
C311 C302 1.429 . S
C311 N308 1.350 . S
C311 C310 1.434 . S
C312 C313 1.369 . S
C312 C314 1.419 . S
C312 H316 0.930 . S
C313 C312 1.369 . S
C313 C322 1.429 . S
C314 C312 1.419 . S
C314 C315 1.363 . S
C314 H317 0.929 . S
C315 C314 1.363 . S
C315 C321 1.428 . S
H316 C312 0.930 . S
H317 C314 0.929 . S
S318 N319 1.613 . S
S318 N320 1.610 . S
N319 S318 1.613 . S
N319 C322 1.350 . S
N320 S318 1.610 . S
N320 C321 1.351 . S
C321 C315 1.428 . S
C321 N320 1.351 . S
C321 C322 1.434 . S
C322 C313 1.429 . S
C322 N319 1.350 . S
C322 C321 1.434 . S
C323 C324 1.369 . S
C323 C325 1.419 . S
C323 H327 0.930 . S
C324 C323 1.369 . S
C324 C333 1.429 . S
C325 C323 1.419 . S
C325 C326 1.363 . S
C325 H328 0.929 . S
C326 C325 1.363 . S
C326 C332 1.428 . S
H327 C323 0.930 . S
H328 C325 0.929 . S
S329 N330 1.613 . S
S329 N331 1.610 . S
N330 S329 1.613 . S
N330 C333 1.350 . S
N331 S329 1.610 . S
N331 C332 1.351 . S
C332 C326 1.428 . S
C332 N331 1.351 . S
C332 C333 1.434 . S
C333 C324 1.429 . S
C333 N330 1.350 . S
C333 C332 1.434 . S
C334 C335 1.369 . S
C334 C336 1.419 . S
C334 H338 0.930 . S
C335 C334 1.369 . S
C335 C344 1.429 . S
C336 C334 1.419 . S
C336 C337 1.363 . S
C336 H339 0.929 . S
C337 C336 1.363 . S
C337 C343 1.428 . S
H338 C334 0.930 . S
H339 C336 0.929 . S
S340 N341 1.613 . S
S340 N342 1.610 . S
N341 S340 1.613 . S
N341 C344 1.350 . S
N342 S340 1.610 . S
N342 C343 1.351 . S
C343 C337 1.428 . S
C343 N342 1.351 . S
C343 C344 1.434 . S
C344 C335 1.429 . S
C344 N341 1.350 . S
C344 C343 1.434 . S
C345 C346 1.369 . S
C345 C347 1.419 1_554 S
C345 H349 0.930 . S
C346 C345 1.369 . S
C346 C355 1.429 . S
C347 C345 1.419 1_556 S
C347 C348 1.363 . S
C347 H350 0.929 . S
C348 C347 1.363 . S
C348 C354 1.428 . S
H349 C345 0.930 . S
H350 C347 0.929 . S
S351 N352 1.658 . S
S351 N353 1.566 1_554 S
N352 S351 1.658 . S
N352 C355 1.350 . S
N353 S351 1.566 1_556 S
N353 C354 1.351 . S
C354 C348 1.428 . S
C354 N353 1.351 . S
C354 C355 1.434 1_556 S
C355 C346 1.429 . S
C355 N352 1.350 . S
C355 C354 1.434 1_554 S
C356 C357 1.369 . S
C356 C358 1.419 1_554 S
C356 H360 0.930 . S
C357 C356 1.369 . S
C357 C366 1.429 . S
C358 C356 1.419 1_556 S
C358 C359 1.363 . S
C358 H361 0.929 . S
C359 C358 1.363 . S
C359 C365 1.428 . S
H360 C356 0.930 . S
H361 C358 0.929 . S
S362 N363 1.613 . S
S362 N364 1.610 1_554 S
N363 S362 1.613 . S
N363 C366 1.350 . S
N364 S362 1.610 1_556 S
N364 C365 1.351 . S
C365 C359 1.428 . S
C365 N364 1.351 . S
C365 C366 1.434 1_556 S
C366 C357 1.429 . S
C366 N363 1.350 . S
C366 C365 1.434 1_554 S
C367 C368 1.369 . S
C367 C369 1.419 . S
C367 H371 0.930 . S
C368 C367 1.369 . S
C368 C377 1.429 . S
C369 C367 1.419 . S
C369 C370 1.363 . S
C369 H372 0.929 . S
C370 C369 1.363 . S
C370 C376 1.428 . S
H371 C367 0.930 . S
H372 C369 0.929 . S
S373 N374 1.613 . S
S373 N375 1.610 . S
N374 S373 1.613 . S
N374 C377 1.350 . S
N375 S373 1.610 . S
N375 C376 1.351 . S
C376 C370 1.428 . S
C376 N375 1.351 . S
C376 C377 1.434 . S
C377 C368 1.429 . S
C377 N374 1.350 . S
C377 C376 1.434 . S
C378 C379 1.369 . S
C378 C380 1.419 . S
C378 H382 0.930 . S
C379 C378 1.369 . S
C379 C388 1.429 . S
C380 C378 1.419 . S
C380 C381 1.363 . S
C380 H383 0.929 . S
C381 C380 1.363 . S
C381 C387 1.428 . S
H382 C378 0.930 . S
H383 C380 0.929 . S
S384 N385 1.613 . S
S384 N386 1.610 . S
N385 S384 1.613 . S
N385 C388 1.350 . S
N386 S384 1.610 . S
N386 C387 1.351 . S
C387 C381 1.428 . S
C387 N386 1.351 . S
C387 C388 1.434 . S
C388 C379 1.429 . S
C388 N385 1.350 . S
C388 C387 1.434 . S
C389 C390 1.369 . S
C389 C391 1.419 . S
C389 H393 0.930 . S
C390 C389 1.369 . S
C390 C399 1.429 . S
C391 C389 1.419 . S
C391 C392 1.363 . S
C391 H394 0.929 . S
C392 C391 1.363 . S
C392 C398 1.428 . S
H393 C389 0.930 . S
H394 C391 0.929 . S
S395 N396 1.613 . S
S395 N397 1.610 . S
N396 S395 1.613 . S
N396 C399 1.350 . S
N397 S395 1.610 . S
N397 C398 1.351 . S
C398 C392 1.428 . S
C398 N397 1.351 . S
C398 C399 1.434 . S
C399 C390 1.429 . S
C399 N396 1.350 . S
C399 C398 1.434 . S
C400 C401 1.369 . S
C400 C402 1.419 1_455 S
C400 H404 0.930 . S
C401 C400 1.369 . S
C401 C410 1.429 1_545 S
C402 C400 1.419 1_655 S
C402 C403 1.363 1_545 S
C402 H405 0.929 . S
C403 C402 1.363 1_565 S
C403 C409 1.428 . S
H404 C400 0.930 . S
H405 C402 0.929 . S
S406 N407 1.613 . S
S406 N408 1.610 1_455 S
N407 S406 1.613 . S
N407 C410 1.350 . S
N408 S406 1.610 1_655 S
N408 C409 1.351 . S
C409 C403 1.428 . S
C409 N408 1.351 . S
C409 C410 1.434 1_655 S
C410 C401 1.429 1_565 S
C410 N407 1.350 . S
C410 C409 1.434 1_455 S
C411 C412 1.369 . S
C411 C413 1.419 . S
C411 H415 0.930 . S
C412 C411 1.369 . S
C412 C421 1.429 1_455 S
C413 C411 1.419 . S
C413 C414 1.363 1_455 S
C413 H416 0.929 . S
C414 C413 1.363 1_655 S
C414 C420 1.428 . S
H415 C411 0.930 . S
H416 C413 0.929 . S
S417 N418 1.613 . S
S417 N419 1.610 . S
N418 S417 1.613 . S
N418 C421 1.350 . S
N419 S417 1.610 . S
N419 C420 1.351 . S
C420 C414 1.428 . S
C420 N419 1.351 . S
C420 C421 1.434 . S
C421 C412 1.429 1_655 S
C421 N418 1.350 . S
C421 C420 1.434 . S
C422 C423 1.369 . S
C422 C424 1.419 . S
C422 H426 0.930 . S
C423 C422 1.369 . S
C423 C432 1.429 . S
C424 C422 1.419 . S
C424 C425 1.363 . S
C424 H427 0.929 . S
C425 C424 1.363 . S
C425 C431 1.428 . S
H426 C422 0.930 . S
H427 C424 0.929 . S
S428 N429 1.613 . S
S428 N430 1.610 . S
N429 S428 1.613 . S
N429 C432 1.350 . S
N430 S428 1.610 . S
N430 C431 1.351 . S
C431 C425 1.428 . S
C431 N430 1.351 . S
C431 C432 1.434 . S
C432 C423 1.429 . S
C432 N429 1.350 . S
C432 C431 1.434 . S
C433 C434 1.369 . S
C433 C435 1.419 1_545 S
C433 H437 0.930 . S
C434 C433 1.369 . S
C434 C443 1.429 . S
C435 C433 1.419 1_565 S
C435 C436 1.363 . S
C435 H438 0.929 . S
C436 C435 1.363 . S
C436 C442 1.428 . S
H437 C433 0.930 . S
H438 C435 0.929 . S
S439 N440 1.613 1_565 S
S439 N441 1.610 . S
N440 S439 1.613 1_545 S
N440 C443 1.350 . S
N441 S439 1.610 . S
N441 C442 1.351 . S
C442 C436 1.428 . S
C442 N441 1.351 . S
C442 C443 1.434 1_565 S
C443 C434 1.429 . S
C443 N440 1.350 . S
C443 C442 1.434 1_545 S
C444 C445 1.369 . S
C444 C446 1.419 1_455 S
C444 H448 0.930 . S
C445 C444 1.369 . S
C445 C454 1.429 . S
C446 C444 1.419 1_655 S
C446 C447 1.363 . S
C446 H449 0.929 . S
C447 C446 1.363 . S
C447 C453 1.428 . S
H448 C444 0.930 . S
H449 C446 0.929 . S
S450 N451 1.613 . S
S450 N452 1.610 . S
N451 S450 1.613 . S
N451 C454 1.350 . S
N452 S450 1.610 . S
N452 C453 1.351 1_455 S
C453 C447 1.428 . S
C453 N452 1.351 1_655 S
C453 C454 1.434 1_655 S
C454 C445 1.429 . S
C454 N451 1.350 . S
C454 C453 1.434 1_455 S
C455 C456 1.369 . S
C455 C457 1.419 . S
C455 H459 0.930 . S
C456 C455 1.369 . S
C456 C465 1.429 . S
C457 C455 1.419 . S
C457 C458 1.363 . S
C457 H460 0.929 . S
C458 C457 1.363 . S
C458 C464 1.428 . S
H459 C455 0.930 . S
H460 C457 0.929 . S
S461 N462 1.613 . S
S461 N463 1.610 . S
N462 S461 1.613 . S
N462 C465 1.350 . S
N463 S461 1.610 . S
N463 C464 1.351 . S
C464 C458 1.428 . S
C464 N463 1.351 . S
C464 C465 1.434 . S
C465 C456 1.429 . S
C465 N462 1.350 . S
C465 C464 1.434 . S
C466 C467 1.369 1_545 S
C466 C468 1.419 . S
C466 H470 0.930 . S
C467 C466 1.369 1_565 S
C467 C476 1.429 . S
C468 C466 1.419 . S
C468 C469 1.363 . S
C468 H471 0.929 . S
C469 C468 1.363 . S
C469 C475 1.428 1_545 S
H470 C466 0.930 . S
H471 C468 0.929 . S
S472 N473 1.613 . S
S472 N474 1.610 . S
N473 S472 1.613 . S
N473 C476 1.350 . S
N474 S472 1.610 . S
N474 C475 1.351 . S
C475 C469 1.428 1_565 S
C475 N474 1.351 . S
C475 C476 1.434 . S
C476 C467 1.429 . S
C476 N473 1.350 . S
C476 C475 1.434 . S
C477 C478 1.371 . S
C477 C479 1.417 1_545 S
C477 H481 0.930 1_545 S
C478 C477 1.371 . S
C478 C487 1.429 1_455 S
C479 C477 1.417 1_565 S
C479 C480 1.363 1_455 S
C479 H482 0.929 . S
C480 C479 1.363 1_655 S
C480 C486 1.428 1_565 S
H481 C477 0.930 1_565 S
H482 C479 0.929 . S
S483 N484 1.613 . S
S483 N485 1.610 . S
N484 S483 1.613 . S
N484 C487 1.350 . S
N485 S483 1.610 . S
N485 C486 1.351 . S
C486 C480 1.428 1_545 S
C486 N485 1.351 . S
C486 C487 1.434 . S
C487 C478 1.429 1_655 S
C487 N484 1.350 . S
C487 C486 1.434 . S
C488 C489 1.369 . S
C488 C490 1.419 . S
C488 H492 0.930 . S
C489 C488 1.369 . S
C489 C498 1.429 1_565 S
C490 C488 1.419 . S
C490 C491 1.363 1_565 S
C490 H493 0.929 . S
C491 C490 1.363 1_545 S
C491 C497 1.428 . S
H492 C488 0.930 . S
H493 C490 0.929 . S
S494 N495 1.613 . S
S494 N496 1.610 . S
N495 S494 1.613 . S
N495 C498 1.350 . S
N496 S494 1.610 . S
N496 C497 1.351 . S
C497 C491 1.428 . S
C497 N496 1.351 . S
C497 C498 1.434 . S
C498 C489 1.429 1_545 S
C498 N495 1.350 . S
C498 C497 1.434 . S
C499 C500 1.369 1_455 S
C499 C501 1.419 1_565 S
C499 H503 0.930 . S
C500 C499 1.369 1_655 S
C500 C509 1.429 . S
C501 C499 1.419 1_545 S
C501 C502 1.363 . S
C501 H504 0.929 . S
C502 C501 1.363 . S
C502 C508 1.428 1_455 S
H503 C499 0.930 . S
H504 C501 0.929 . S
S505 N506 1.613 1_545 S
S505 N507 1.610 . S
N506 S505 1.613 1_565 S
N506 C509 1.350 . S
N507 S505 1.610 . S
N507 C508 1.351 . S
C508 C502 1.428 1_655 S
C508 N507 1.351 . S
C508 C509 1.434 1_545 S
C509 C500 1.429 . S
C509 N506 1.350 . S
C509 C508 1.434 1_565 S
C510 C511 1.369 . S
C510 C512 1.419 1_455 S
C510 H514 0.930 . S
C511 C510 1.369 . S
C511 C520 1.429 . S
C512 C510 1.419 1_655 S
C512 C513 1.363 . S
C512 H515 0.929 . S
C513 C512 1.363 . S
C513 C519 1.428 . S
H514 C510 0.930 . S
H515 C512 0.929 . S
S516 N517 1.613 1_655 S
S516 N518 1.610 . S
N517 S516 1.613 1_455 S
N517 C520 1.350 . S
N518 S516 1.610 . S
N518 C519 1.351 . S
C519 C513 1.428 . S
C519 N518 1.351 . S
C519 C520 1.434 1_655 S
C520 C511 1.429 . S
C520 N517 1.350 . S
C520 C519 1.434 1_455 S
C521 C522 1.369 . S
C521 C523 1.419 . S
C521 H525 0.930 . S
C522 C521 1.369 . S
C522 C531 1.429 . S
C523 C521 1.419 . S
C523 C524 1.363 . S
C523 H526 0.929 . S
C524 C523 1.363 . S
C524 C530 1.428 . S
H525 C521 0.930 . S
H526 C523 0.929 . S
S527 N528 1.613 . S
S527 N529 1.610 . S
N528 S527 1.613 . S
N528 C531 1.350 . S
N529 S527 1.610 . S
N529 C530 1.351 . S
C530 C524 1.428 . S
C530 N529 1.351 . S
C530 C531 1.434 . S
C531 C522 1.429 . S
C531 N528 1.350 . S
C531 C530 1.434 . S
C532 C533 1.369 . S
C532 C534 1.419 . S
C532 H536 0.930 . S
C533 C532 1.369 . S
C533 C542 1.429 . S
C534 C532 1.419 . S
C534 C535 1.363 . S
C534 H537 0.929 . S
C535 C534 1.363 . S
C535 C541 1.428 . S
H536 C532 0.930 . S
H537 C534 0.929 . S
S538 N539 1.613 . S
S538 N540 1.610 . S
N539 S538 1.613 . S
N539 C542 1.350 . S
N540 S538 1.610 . S
N540 C541 1.351 . S
C541 C535 1.428 . S
C541 N540 1.351 . S
C541 C542 1.434 . S
C542 C533 1.429 . S
C542 N539 1.350 . S
C542 C541 1.434 . S
C543 C544 1.369 . S
C543 C545 1.419 1_545 S
C543 H547 0.930 . S
C544 C543 1.369 . S
C544 C553 1.429 . S
C545 C543 1.419 1_565 S
C545 C546 1.363 . S
C545 H548 0.929 . S
C546 C545 1.363 . S
C546 C552 1.428 . S
H547 C543 0.930 . S
H548 C545 0.929 . S
S549 N550 1.613 1_565 S
S549 N551 1.610 . S
N550 S549 1.613 1_545 S
N550 C553 1.350 . S
N551 S549 1.610 . S
N551 C552 1.351 . S
C552 C546 1.428 . S
C552 N551 1.351 . S
C552 C553 1.434 1_565 S
C553 C544 1.429 . S
C553 N550 1.350 . S
C553 C552 1.434 1_545 S
C554 C555 1.369 . S
C554 C556 1.419 1_665 S
C554 H558 0.930 . S
C555 C554 1.369 . S
C555 C564 1.429 . S
C556 C554 1.419 1_445 S
C556 C557 1.363 . S
C556 H559 0.929 . S
C557 C556 1.363 . S
C557 C563 1.428 . S
H558 C554 0.930 . S
H559 C556 0.929 . S
S560 N561 1.613 . S
S560 N562 1.610 1_655 S
N561 S560 1.613 . S
N561 C564 1.350 1_545 S
N562 S560 1.610 1_455 S
N562 C563 1.351 . S
C563 C557 1.428 . S
C563 N562 1.351 . S
C563 C564 1.434 1_445 S
C564 C555 1.429 . S
C564 N561 1.350 1_565 S
C564 C563 1.434 1_665 S
C565 C566 1.369 1_455 S
C565 C567 1.419 . S
C565 H569 0.930 . S
C566 C565 1.369 1_655 S
C566 C575 1.429 . S
C567 C565 1.419 . S
C567 C568 1.363 . S
C567 H570 0.929 . S
C568 C567 1.363 . S
C568 C574 1.428 1_455 S
H569 C565 0.930 . S
H570 C567 0.929 . S
S571 N572 1.613 . S
S571 N573 1.610 . S
N572 S571 1.613 . S
N572 C575 1.350 . S
N573 S571 1.610 . S
N573 C574 1.351 . S
C574 C568 1.428 1_655 S
C574 N573 1.351 . S
C574 C575 1.434 . S
C575 C566 1.429 . S
C575 N572 1.350 . S
C575 C574 1.434 . S
C225 C63 1.389 . S
C227 C7 1.389 . S
C236 C21 1.388 . S
C238 C77 1.389 . S
C247 C91 1.391 . S
C249 C35 1.392 . S
C258 C105 1.388 . S
C260 C49 1.389 . S
C269 C175 1.394 . S
C271 C119 1.393 . S
C280 C133 1.391 . S
C282 C189 1.390 . S
C291 C203 1.392 . S
C293 C147 1.391 . S
C302 C161 1.391 . S
C304 C217 1.392 . S
C313 C3 1.449 . S
C315 C213 1.450 . S
C324 C17 1.451 . S
C326 C171 1.452 . S
C335 C31 1.451 . S
C337 C185 1.451 . S
C346 C199 1.449 . S
C348 C45 1.450 . S
C357 C59 1.449 . S
C359 C129 1.450 . S
C368 C73 1.453 . S
C370 C143 1.452 . S
C379 C157 1.450 . S
C381 C87 1.451 . S
C390 C115 1.452 . S
C392 C101 1.452 . S
C401 C8 1.595 . S
C403 C148 1.596 . S
C412 C162 1.593 . S
C414 C22 1.597 . S
C423 C36 1.596 . S
C425 C120 1.596 . S
C434 C134 1.595 . S
C436 C50 1.595 . S
C445 C64 1.595 . S
C447 C204 1.597 . S
C456 C78 1.597 . S
C458 C218 1.594 . S
C467 C176 1.597 . S
C469 C92 1.594 . S
C478 C190 1.594 . S
C480 C106 1.597 . S
C489 C149 1.414 . S
C491 C9 1.414 . S
C500 C23 1.415 . S
C502 C163 1.417 . S
C511 C37 1.416 . S
C513 C121 1.417 . S
C522 C135 1.416 . S
C524 C51 1.417 . S
C533 C205 1.418 . S
C535 C65 1.415 . S
C544 C219 1.413 . S
C546 C79 1.415 . S
C555 C177 1.418 . S
C557 C93 1.415 . S
C566 C107 1.413 . S
C568 C191 1.416 . S
