# Generated by pormake.
# Topology vba, (4)-cn, num edge types: 1
# Building blocks:
#     Node 0, Type 0, BuildingBlock: KOZSID_clean_sbu_0, # of connection points: 4
#     Node 1, Type 0, BuildingBlock: KOZSID_clean_sbu_0, # of connection points: 4
#     Node 2, Type 0, BuildingBlock: KOZSID_clean_sbu_0, # of connection points: 4
#     Node 3, Type 0, BuildingBlock: KOZSID_clean_sbu_0, # of connection points: 4
#     Node 4, Type 0, BuildingBlock: KOZSID_clean_sbu_0, # of connection points: 4
#     Node 5, Type 0, BuildingBlock: KOZSID_clean_sbu_0, # of connection points: 4
#     Node 6, Type 0, BuildingBlock: KOZSID_clean_sbu_0, # of connection points: 4
#     Node 7, Type 0, BuildingBlock: KOZSID_clean_sbu_0, # of connection points: 4
#     Node 8, Type 0, BuildingBlock: KOZSID_clean_sbu_0, # of connection points: 4
#     Node 9, Type 0, BuildingBlock: KOZSID_clean_sbu_0, # of connection points: 4
#     Node 10, Type 0, BuildingBlock: KOZSID_clean_sbu_0, # of connection points: 4
#     Node 11, Type 0, BuildingBlock: KOZSID_clean_sbu_0, # of connection points: 4
#     Node 12, Type 0, BuildingBlock: KOZSID_clean_sbu_0, # of connection points: 4
#     Node 13, Type 0, BuildingBlock: KOZSID_clean_sbu_0, # of connection points: 4
#     Node 14, Type 0, BuildingBlock: KOZSID_clean_sbu_0, # of connection points: 4
#     Node 15, Type 0, BuildingBlock: KOZSID_clean_sbu_0, # of connection points: 4
#     Node 16, Type 0, BuildingBlock: KOZSID_clean_sbu_0, # of connection points: 4
#     Node 17, Type 0, BuildingBlock: KOZSID_clean_sbu_0, # of connection points: 4
#     Node 18, Type 0, BuildingBlock: KOZSID_clean_sbu_0, # of connection points: 4
#     Node 19, Type 0, BuildingBlock: KOZSID_clean_sbu_0, # of connection points: 4
#     Node 20, Type 0, BuildingBlock: KOZSID_clean_sbu_0, # of connection points: 4
#     Node 21, Type 0, BuildingBlock: KOZSID_clean_sbu_0, # of connection points: 4
#     Node 22, Type 0, BuildingBlock: KOZSID_clean_sbu_0, # of connection points: 4
#     Node 23, Type 0, BuildingBlock: KOZSID_clean_sbu_0, # of connection points: 4
#     Node 24, Type 0, BuildingBlock: KOZSID_clean_sbu_0, # of connection points: 4
#     Node 25, Type 0, BuildingBlock: KOZSID_clean_sbu_0, # of connection points: 4
#     Node 26, Type 0, BuildingBlock: KOZSID_clean_sbu_0, # of connection points: 4
#     Node 27, Type 0, BuildingBlock: KOZSID_clean_sbu_0, # of connection points: 4
#     Node 28, Type 0, BuildingBlock: KOZSID_clean_sbu_0, # of connection points: 4
#     Node 29, Type 0, BuildingBlock: KOZSID_clean_sbu_0, # of connection points: 4
#     Node 30, Type 0, BuildingBlock: KOZSID_clean_sbu_0, # of connection points: 4
#     Node 31, Type 0, BuildingBlock: KOZSID_clean_sbu_0, # of connection points: 4
#     Edge 32, Type (0, 0), BuildingBlock: XIVTED_clean_linker_0, # of connection points: 2
#     Edge 33, Type (0, 0), BuildingBlock: XIVTED_clean_linker_0, # of connection points: 2
#     Edge 34, Type (0, 0), BuildingBlock: XIVTED_clean_linker_0, # of connection points: 2
#     Edge 35, Type (0, 0), BuildingBlock: XIVTED_clean_linker_0, # of connection points: 2
#     Edge 36, Type (0, 0), BuildingBlock: XIVTED_clean_linker_0, # of connection points: 2
#     Edge 37, Type (0, 0), BuildingBlock: XIVTED_clean_linker_0, # of connection points: 2
#     Edge 38, Type (0, 0), BuildingBlock: XIVTED_clean_linker_0, # of connection points: 2
#     Edge 39, Type (0, 0), BuildingBlock: XIVTED_clean_linker_0, # of connection points: 2
#     Edge 40, Type (0, 0), BuildingBlock: XIVTED_clean_linker_0, # of connection points: 2
#     Edge 41, Type (0, 0), BuildingBlock: XIVTED_clean_linker_0, # of connection points: 2
#     Edge 42, Type (0, 0), BuildingBlock: XIVTED_clean_linker_0, # of connection points: 2
#     Edge 43, Type (0, 0), BuildingBlock: XIVTED_clean_linker_0, # of connection points: 2
#     Edge 44, Type (0, 0), BuildingBlock: XIVTED_clean_linker_0, # of connection points: 2
#     Edge 45, Type (0, 0), BuildingBlock: XIVTED_clean_linker_0, # of connection points: 2
#     Edge 46, Type (0, 0), BuildingBlock: XIVTED_clean_linker_0, # of connection points: 2
#     Edge 47, Type (0, 0), BuildingBlock: XIVTED_clean_linker_0, # of connection points: 2
#     Edge 48, Type (0, 0), BuildingBlock: XIVTED_clean_linker_0, # of connection points: 2
#     Edge 49, Type (0, 0), BuildingBlock: XIVTED_clean_linker_0, # of connection points: 2
#     Edge 50, Type (0, 0), BuildingBlock: XIVTED_clean_linker_0, # of connection points: 2
#     Edge 51, Type (0, 0), BuildingBlock: XIVTED_clean_linker_0, # of connection points: 2
#     Edge 52, Type (0, 0), BuildingBlock: XIVTED_clean_linker_0, # of connection points: 2
#     Edge 53, Type (0, 0), BuildingBlock: XIVTED_clean_linker_0, # of connection points: 2
#     Edge 54, Type (0, 0), BuildingBlock: XIVTED_clean_linker_0, # of connection points: 2
#     Edge 55, Type (0, 0), BuildingBlock: XIVTED_clean_linker_0, # of connection points: 2
#     Edge 56, Type (0, 0), BuildingBlock: XIVTED_clean_linker_0, # of connection points: 2
#     Edge 57, Type (0, 0), BuildingBlock: XIVTED_clean_linker_0, # of connection points: 2
#     Edge 58, Type (0, 0), BuildingBlock: XIVTED_clean_linker_0, # of connection points: 2
#     Edge 59, Type (0, 0), BuildingBlock: XIVTED_clean_linker_0, # of connection points: 2
#     Edge 60, Type (0, 0), BuildingBlock: XIVTED_clean_linker_0, # of connection points: 2
#     Edge 61, Type (0, 0), BuildingBlock: XIVTED_clean_linker_0, # of connection points: 2
#     Edge 62, Type (0, 0), BuildingBlock: XIVTED_clean_linker_0, # of connection points: 2
#     Edge 63, Type (0, 0), BuildingBlock: XIVTED_clean_linker_0, # of connection points: 2
#     Edge 64, Type (0, 0), BuildingBlock: XIVTED_clean_linker_0, # of connection points: 2
#     Edge 65, Type (0, 0), BuildingBlock: XIVTED_clean_linker_0, # of connection points: 2
#     Edge 66, Type (0, 0), BuildingBlock: XIVTED_clean_linker_0, # of connection points: 2
#     Edge 67, Type (0, 0), BuildingBlock: XIVTED_clean_linker_0, # of connection points: 2
#     Edge 68, Type (0, 0), BuildingBlock: XIVTED_clean_linker_0, # of connection points: 2
#     Edge 69, Type (0, 0), BuildingBlock: XIVTED_clean_linker_0, # of connection points: 2
#     Edge 70, Type (0, 0), BuildingBlock: XIVTED_clean_linker_0, # of connection points: 2
#     Edge 71, Type (0, 0), BuildingBlock: XIVTED_clean_linker_0, # of connection points: 2
#     Edge 72, Type (0, 0), BuildingBlock: XIVTED_clean_linker_0, # of connection points: 2
#     Edge 73, Type (0, 0), BuildingBlock: XIVTED_clean_linker_0, # of connection points: 2
#     Edge 74, Type (0, 0), BuildingBlock: XIVTED_clean_linker_0, # of connection points: 2
#     Edge 75, Type (0, 0), BuildingBlock: XIVTED_clean_linker_0, # of connection points: 2
#     Edge 76, Type (0, 0), BuildingBlock: XIVTED_clean_linker_0, # of connection points: 2
#     Edge 77, Type (0, 0), BuildingBlock: XIVTED_clean_linker_0, # of connection points: 2
#     Edge 78, Type (0, 0), BuildingBlock: XIVTED_clean_linker_0, # of connection points: 2
#     Edge 79, Type (0, 0), BuildingBlock: XIVTED_clean_linker_0, # of connection points: 2
#     Edge 80, Type (0, 0), BuildingBlock: XIVTED_clean_linker_0, # of connection points: 2
#     Edge 81, Type (0, 0), BuildingBlock: XIVTED_clean_linker_0, # of connection points: 2
#     Edge 82, Type (0, 0), BuildingBlock: XIVTED_clean_linker_0, # of connection points: 2
#     Edge 83, Type (0, 0), BuildingBlock: XIVTED_clean_linker_0, # of connection points: 2
#     Edge 84, Type (0, 0), BuildingBlock: XIVTED_clean_linker_0, # of connection points: 2
#     Edge 85, Type (0, 0), BuildingBlock: XIVTED_clean_linker_0, # of connection points: 2
#     Edge 86, Type (0, 0), BuildingBlock: XIVTED_clean_linker_0, # of connection points: 2
#     Edge 87, Type (0, 0), BuildingBlock: XIVTED_clean_linker_0, # of connection points: 2
#     Edge 88, Type (0, 0), BuildingBlock: XIVTED_clean_linker_0, # of connection points: 2
#     Edge 89, Type (0, 0), BuildingBlock: XIVTED_clean_linker_0, # of connection points: 2
#     Edge 90, Type (0, 0), BuildingBlock: XIVTED_clean_linker_0, # of connection points: 2
#     Edge 91, Type (0, 0), BuildingBlock: XIVTED_clean_linker_0, # of connection points: 2
#     Edge 92, Type (0, 0), BuildingBlock: XIVTED_clean_linker_0, # of connection points: 2
#     Edge 93, Type (0, 0), BuildingBlock: XIVTED_clean_linker_0, # of connection points: 2
#     Edge 94, Type (0, 0), BuildingBlock: XIVTED_clean_linker_0, # of connection points: 2
#     Edge 95, Type (0, 0), BuildingBlock: XIVTED_clean_linker_0, # of connection points: 2
# Relax obj value: 0.009
# Max RMSD: 0.110
# Mean RMSD: 0.110
data_MOF--net-vba--node1-KOZSID_clean_sbu_0--edge1-XIVTED_clean_linker_0
_symmetry_space_group_name_H-M    P1
_symmetry_Int_Tables_number       1
_symmetry_cell_setting            triclinic
loop_
_symmetry_equiv_pos_as_xyz
'x, y, z'
_cell_length_a     29.963151
_cell_length_b     128.25998
_cell_length_c     59.158384
_cell_angle_alpha  89.996058
_cell_angle_beta   90.014234
_cell_angle_gamma 89.997426
loop_
_atom_site_label
_atom_site_type_symbol
_atom_site_fract_x
_atom_site_fract_y
_atom_site_fract_z
_atom_type_partial_charge
C0 C 0.21671 0.06009 0.04048 0.0
C1 C 0.1799 0.05353 0.04172 0.0
C2 C 0.17556 0.04896 0.02091 0.0
C3 C 0.20955 0.05301 0.00809 0.0
N4 N 0.23505 0.05983 0.01959 0.0
Co5 Co 0.28611 0.06786 0.00734 0.0
N6 N 0.26549 0.06575 0.97583 0.0
C7 C 0.23539 0.05862 0.96891 0.0
C8 C 0.22675 0.05912 0.94618 0.0
C9 C 0.25359 0.06693 0.93822 0.0
C10 C 0.27759 0.07072 0.95661 0.0
N11 N 0.33777 0.07576 0.99518 0.0
C12 C 0.34542 0.07946 0.97405 0.0
C13 C 0.38735 0.08403 0.9727 0.0
C14 C 0.40664 0.08301 0.99363 0.0
C15 C 0.37562 0.07788 0.00659 0.0
N16 N 0.30552 0.07004 0.03903 0.0
C17 C 0.34664 0.07279 0.04587 0.0
C18 C 0.34924 0.07407 0.06892 0.0
C19 C 0.30706 0.07201 0.07695 0.0
C20 C 0.28104 0.06961 0.05829 0.0
N21 N 0.32226 0.055 0.00546 0.0
C22 C 0.38354 0.03825 0.00356 0.0
C23 C 0.35701 0.03997 0.02286 0.0
C24 C 0.32655 0.04835 0.02344 0.0
C25 C 0.37687 0.04486 0.985 0.0
C26 C 0.34648 0.05309 0.98628 0.0
N27 N 0.25139 0.08083 0.00898 0.0
C28 C 0.24951 0.0993 0.01642 0.0
C29 C 0.2054 0.09991 0.00879 0.0
C30 C 0.18427 0.09069 0.00183 0.0
C31 C 0.20797 0.08124 0.00187 0.0
C32 C 0.27162 0.08972 0.0166 0.0
H33 H 0.19142 0.07431 0.99585 0.0
H34 H 0.30547 0.08957 0.02268 0.0
H35 H 0.30736 0.04962 0.03864 0.0
H36 H 0.3437 0.05808 0.97177 0.0
C37 C 0.21178 0.0526 0.98454 0.0
C38 C 0.23409 0.06631 0.05936 0.0
C39 C 0.31629 0.07771 0.95439 0.0
C40 C 0.37845 0.07608 0.02998 0.0
H41 H 0.15779 0.05231 0.05592 0.0
H42 H 0.14891 0.04386 0.01537 0.0
H43 H 0.20317 0.05451 0.93659 0.0
H44 H 0.25635 0.06931 0.92072 0.0
H45 H 0.40273 0.08752 0.95797 0.0
H46 H 0.43911 0.08583 0.99883 0.0
H47 H 0.3777 0.07671 0.07863 0.0
H48 H 0.29657 0.07228 0.09445 0.0
H49 H 0.36064 0.0351 0.03769 0.0
H50 H 0.39527 0.04375 0.96943 0.0
H51 H 0.26688 0.10619 0.02232 0.0
H52 H 0.15013 0.09083 0.99581 0.0
C53 C 0.04279 0.21018 0.04019 0.0
C54 C 0.08019 0.21658 0.04064 0.0
C55 C 0.08393 0.2209 0.01954 0.0
C56 C 0.04906 0.21685 0.00734 0.0
N57 N 0.02354 0.21028 0.01947 0.0
Co58 Co 0.9715 0.20226 0.00811 0.0
N59 N 0.99072 0.20403 0.97624 0.0
C60 C 0.02126 0.21091 0.9687 0.0
C61 C 0.02893 0.21016 0.94592 0.0
C62 C 1.00094 0.20245 0.93856 0.0
C63 C 0.97723 0.19899 0.95733 0.0
N64 N 0.91884 0.19441 0.99685 0.0
C65 C 0.90967 0.19065 0.97591 0.0
C66 C 0.86744 0.1862 0.97529 0.0
C67 C 0.84949 0.18735 0.99648 0.0
C68 C 0.88154 0.19245 0.00885 0.0
N69 N 0.95355 0.2004 0.04013 0.0
C70 C 0.91268 0.19777 0.04756 0.0
C71 C 0.91106 0.19669 0.07068 0.0
C72 C 0.95363 0.19876 0.07815 0.0
C73 C 0.97889 0.20096 0.05912 0.0
N74 N 0.93587 0.21521 0.00614 0.0
C75 C 0.87486 0.23203 0.00434 0.0
C76 C 0.90197 0.23037 0.02346 0.0
C77 C 0.93232 0.22196 0.02399 0.0
C78 C 0.88092 0.22534 0.98586 0.0
C79 C 0.91113 0.21707 0.98711 0.0
N80 N 1.00572 0.18923 0.00989 0.0
C81 C 0.00742 0.17085 0.01837 0.0
C82 C 0.05165 0.17003 0.01076 0.0
C83 C 0.07243 0.17919 0.00292 0.0
C84 C 0.04888 0.18865 0.00248 0.0
C85 C 0.9855 0.18045 0.01806 0.0
H86 H 0.0655 0.19549 0.99604 0.0
H87 H 0.95172 0.18071 0.0242 0.0
H88 H 0.95197 0.22075 0.03906 0.0
H89 H 0.91327 0.21201 0.9727 0.0
C90 C 0.04596 0.21698 0.9838 0.0
C91 C 0.02592 0.20423 0.05961 0.0
C92 C 0.93745 0.19229 0.95571 0.0
C93 C 0.88003 0.19443 0.03219 0.0
H94 H 0.10315 0.21785 0.05446 0.0
H95 H 0.11075 0.2258 0.01342 0.0
H96 H 0.05257 0.21456 0.9359 0.0
H97 H 0.99718 0.19994 0.9212 0.0
H98 H 0.85091 0.18272 0.96088 0.0
H99 H 0.81716 0.18468 0.00222 0.0
H100 H 0.88296 0.19419 0.08081 0.0
H101 H 0.96485 0.19863 0.09554 0.0
H102 H 0.89887 0.2353 0.03823 0.0
H103 H 0.86214 0.22639 0.97039 0.0
H104 H 0.98906 0.1641 0.02417 0.0
H105 H 0.10673 0.17912 0.99721 0.0
C106 C 0.21793 0.2106 0.21278 0.0
C107 C 0.18083 0.2171 0.21245 0.0
C108 C 0.17782 0.22151 0.23348 0.0
C109 C 0.21283 0.21742 0.24554 0.0
N110 N 0.23773 0.21074 0.23337 0.0
Co111 Co 0.28978 0.20267 0.24452 0.0
N112 N 0.27157 0.20463 0.27649 0.0
C113 C 0.24165 0.21164 0.2841 0.0
C114 C 0.23484 0.21107 0.30698 0.0
C115 C 0.26276 0.20334 0.31431 0.0
C116 C 0.2855 0.19966 0.29543 0.0
N117 N 0.34242 0.19474 0.25557 0.0
C118 C 0.35192 0.19101 0.2765 0.0
C119 C 0.39394 0.18645 0.27691 0.0
C120 C 0.41142 0.1875 0.2556 0.0
C121 C 0.37932 0.19264 0.24336 0.0
N122 N 0.30682 0.20064 0.21243 0.0
C123 C 0.3474 0.19791 0.20478 0.0
C124 C 0.34841 0.19676 0.18167 0.0
C125 C 0.30575 0.19889 0.17444 0.0
C126 C 0.28103 0.2012 0.1936 0.0
N127 N 0.32589 0.21556 0.24599 0.0
C128 C 0.38558 0.23265 0.24735 0.0
C129 C 0.35807 0.23086 0.22843 0.0
C130 C 0.32837 0.22233 0.22814 0.0
C131 C 0.3814 0.22579 0.26567 0.0
C132 C 0.35164 0.21742 0.26468 0.0
N133 N 0.25497 0.1897 0.24323 0.0
C134 C 0.25199 0.17131 0.23497 0.0
C135 C 0.20773 0.17066 0.24264 0.0
C136 C 0.18767 0.17992 0.25045 0.0
C137 C 0.21189 0.18929 0.25078 0.0
C138 C 0.27456 0.18083 0.23512 0.0
H139 H 0.19577 0.1962 0.2572 0.0
H140 H 0.30827 0.18096 0.22887 0.0
H141 H 0.30801 0.22111 0.21331 0.0
H142 H 0.35064 0.21227 0.27899 0.0
C143 C 0.2167 0.21768 0.26904 0.0
C144 C 0.23409 0.20455 0.19335 0.0
C145 C 0.32474 0.1928 0.29685 0.0
C146 C 0.38031 0.19454 0.21998 0.0
H147 H 0.15765 0.21837 0.19872 0.0
H148 H 0.15142 0.22651 0.23966 0.0
H149 H 0.21183 0.21561 0.31708 0.0
H150 H 0.26706 0.20093 0.33172 0.0
H151 H 0.41062 0.18296 0.29126 0.0
H152 H 0.44347 0.18472 0.24969 0.0
H153 H 0.37617 0.19417 0.1714 0.0
H154 H 0.29409 0.19873 0.15712 0.0
H155 H 0.35939 0.23599 0.21391 0.0
H156 H 0.40208 0.22663 0.28057 0.0
H157 H 0.26987 0.16448 0.2292 0.0
H158 H 0.1534 0.18 0.2562 0.0
C159 C 0.04285 0.06061 0.21227 0.0
C160 C 0.07997 0.05411 0.21191 0.0
C161 C 0.08318 0.04974 0.23297 0.0
C162 C 0.04831 0.05385 0.24507 0.0
N163 N 0.0233 0.06051 0.2329 0.0
Co164 Co 0.97157 0.06866 0.24412 0.0
N165 N 0.99034 0.06681 0.27602 0.0
C166 C 0.02034 0.05982 0.28364 0.0
C167 C 0.02786 0.06055 0.30644 0.0
C168 C 1.00032 0.06837 0.31371 0.0
C169 C 0.977 0.07191 0.29488 0.0
N170 N 0.91925 0.07668 0.25521 0.0
C171 C 0.91021 0.0805 0.2761 0.0
C172 C 0.86824 0.08509 0.27661 0.0
C173 C 0.85033 0.08396 0.25541 0.0
C174 C 0.88215 0.07874 0.24313 0.0
N175 N 0.954 0.07059 0.21208 0.0
C176 C 0.91333 0.07331 0.20453 0.0
C177 C 0.91203 0.07441 0.18141 0.0
C178 C 0.9546 0.07226 0.17407 0.0
C179 C 0.97954 0.06999 0.19319 0.0
N180 N 0.93536 0.05581 0.24598 0.0
C181 C 0.87623 0.03865 0.24825 0.0
C182 C 0.90299 0.04038 0.22904 0.0
C183 C 0.93246 0.04895 0.22831 0.0
C184 C 0.8807 0.04562 0.26633 0.0
C185 C 0.91015 0.05403 0.26489 0.0
N186 N 0.00654 0.0816 0.2425 0.0
C187 C 0.00945 0.10002 0.23447 0.0
C188 C 0.05331 0.10059 0.24251 0.0
C189 C 0.07371 0.09138 0.25006 0.0
C190 C 0.04964 0.08199 0.25011 0.0
C191 C 0.98696 0.09048 0.23437 0.0
H192 H 0.0657 0.07508 0.25657 0.0
H193 H 0.95338 0.09034 0.22791 0.0
H194 H 0.95236 0.05012 0.2133 0.0
H195 H 0.91142 0.05926 0.27906 0.0
C196 C 0.04489 0.05369 0.2686 0.0
C197 C 0.02646 0.06665 0.19287 0.0
C198 C 0.93777 0.07878 0.29634 0.0
C199 C 0.88069 0.07675 0.21979 0.0
H200 H 0.10311 0.05283 0.19818 0.0
H201 H 0.10969 0.04476 0.23914 0.0
H202 H 0.05115 0.05608 0.31652 0.0
H203 H 0.99663 0.07091 0.33106 0.0
H204 H 0.85184 0.08865 0.29097 0.0
H205 H 0.8182 0.08673 0.24959 0.0
H206 H 0.88416 0.07699 0.1712 0.0
H207 H 0.96605 0.07239 0.15672 0.0
H208 H 0.90131 0.03517 0.21468 0.0
H209 H 0.86054 0.04482 0.28142 0.0
H210 H 0.99265 0.1069 0.22813 0.0
H211 H 0.1076 0.09148 0.25643 0.0
C212 C 0.72386 0.94857 0.94255 0.0
C213 C 0.69984 0.9449 0.92413 0.0
C214 C 0.65759 0.9427 0.93179 0.0
C215 C 0.65807 0.94498 0.95448 0.0
N216 N 0.69802 0.94849 0.96149 0.0
Co217 Co 0.71522 0.95135 0.99334 0.0
N218 N 0.66453 0.94315 0.00563 0.0
C219 C 0.62819 0.94021 0.99383 0.0
C220 C 0.59889 0.9344 0.00646 0.0
C221 C 0.61757 0.93383 0.02759 0.0
C222 C 0.65717 0.93946 0.02684 0.0
N223 N 0.73363 0.95426 0.02496 0.0
C224 C 0.72024 0.94985 0.0447 0.0
C225 C 0.73949 0.955 0.06299 0.0
C226 C 0.76535 0.96284 0.05438 0.0
C227 C 0.76048 0.96215 0.03141 0.0
N228 N 0.76532 0.95965 0.98099 0.0
C229 C 0.78774 0.96717 0.992 0.0
C230 C 0.8203 0.97171 0.97896 0.0
C231 C 0.8182 0.96669 0.95851 0.0
C232 C 0.78458 0.95929 0.96031 0.0
N233 N 0.67674 0.96387 0.9938 0.0
C234 C 0.61462 0.98048 0.99438 0.0
C235 C 0.62031 0.97395 0.01312 0.0
C236 C 0.65101 0.96578 0.01248 0.0
C237 C 0.64224 0.97871 0.97549 0.0
C238 C 0.67305 0.97039 0.97555 0.0
N239 N 0.75228 0.93872 0.99307 0.0
C240 C 0.82131 0.92961 1.00039 0.0
C241 C 0.80253 0.92011 0.99308 0.0
C242 C 0.75796 0.92028 0.98584 0.0
C243 C 0.73393 0.92958 0.98568 0.0
C244 C 0.79557 0.93878 1.0004 0.0
H245 H 0.70011 0.92929 0.97967 0.0
H246 H 0.8106 0.94593 0.00631 0.0
H247 H 0.65298 0.96087 0.02715 0.0
H248 H 0.69321 0.96908 0.96068 0.0
C249 C 0.62647 0.94155 0.9703 0.0
C250 C 0.77049 0.95238 0.94183 0.0
C251 C 0.68455 0.94198 0.04692 0.0
C252 C 0.78344 0.96815 0.01542 0.0
H253 H 0.71149 0.94362 0.90708 0.0
H254 H 0.63083 0.93911 0.92227 0.0
H255 H 0.56838 0.93072 1.0008 0.0
H256 H 0.60329 0.9298 0.04193 0.0
H257 H 0.73412 0.95359 0.0808 0.0
H258 H 0.78528 0.96839 0.06378 0.0
H259 H 0.84421 0.97759 0.98405 0.0
H260 H 0.83916 0.96826 0.944 0.0
H261 H 0.601 0.97508 0.0284 0.0
H262 H 0.63931 0.98352 0.96052 0.0
H263 H 0.85568 0.93002 0.00593 0.0
H264 H 0.74097 0.91324 0.98059 0.0
C265 C 0.03093 0.82004 0.94311 0.0
C266 C 0.05568 0.82247 0.92404 0.0
C267 C 0.09831 0.82458 0.93136 0.0
C268 C 0.09726 0.82328 0.95443 0.0
N269 N 0.05669 0.82049 0.96199 0.0
Co270 Co 0.03974 0.81827 0.99406 0.0
N271 N 0.09247 0.82611 0.00536 0.0
C272 C 0.1293 0.82829 0.99318 0.0
C273 C 0.16154 0.83331 0.00555 0.0
C274 C 0.14424 0.83419 0.02694 0.0
C275 C 0.10218 0.82965 0.02644 0.0
N276 N 0.02157 0.81612 0.02601 0.0
C277 C 0.03569 0.82092 0.04512 0.0
C278 C 0.01282 0.81716 0.06388 0.0
C279 C 0.98467 0.80953 0.0563 0.0
C280 C 0.99145 0.80911 0.0334 0.0
N281 N 0.98755 0.8103 0.98264 0.0
C282 C 0.9625 0.80359 0.99466 0.0
C283 C 0.92738 0.79961 0.98254 0.0
C284 C 0.93046 0.80411 0.9616 0.0
C285 C 0.96774 0.81055 0.96204 0.0
N286 N 0.07578 0.80536 0.99516 0.0
C287 C 0.13548 0.78825 0.9962 0.0
C288 C 0.13119 0.79502 0.01466 0.0
C289 C 0.10143 0.80339 0.01384 0.0
C290 C 0.10812 0.79015 0.97726 0.0
C291 C 0.07841 0.79869 0.97713 0.0
N292 N 1.00511 0.83127 0.99319 0.0
C293 C 0.93826 0.84108 1.00125 0.0
C294 C 0.95874 0.85031 0.99388 0.0
C295 C 1.0025 0.84974 0.98574 0.0
C296 C 0.02479 0.84018 0.98531 0.0
C297 C 0.96213 0.83166 1.00096 0.0
H298 H 0.05827 0.84005 0.97874 0.0
H299 H 0.946 0.82473 0.00724 0.0
H300 H 0.10038 0.80844 0.02829 0.0
H301 H 0.05815 0.8 0.9623 0.0
C302 C 0.13018 0.82655 0.96974 0.0
C303 C 0.984 0.81665 0.94268 0.0
C304 C 0.07517 0.82771 0.04679 0.0
C305 C 0.96638 0.80321 0.01816 0.0
H306 H 0.04408 0.82273 0.90672 0.0
H307 H 0.12608 0.82723 0.92118 0.0
H308 H 0.19359 0.83612 0.9997 0.0
H309 H 0.16109 0.83754 0.0414 0.0
H310 H 0.0172 0.81944 0.08136 0.0
H311 H 0.96152 0.80496 0.06625 0.0
H312 H 0.90086 0.79462 0.98863 0.0
H313 H 0.90716 0.80294 0.94789 0.0
H314 H 0.15176 0.79411 0.02958 0.0
H315 H 0.10956 0.78511 0.96262 0.0
H316 H 0.90442 0.84117 0.00768 0.0
H317 H 0.01936 0.85664 0.97951 0.0
C318 C 0.72804 0.82037 0.80915 0.0
C319 C 0.70457 0.82272 0.82869 0.0
C320 C 0.6616 0.82497 0.82213 0.0
C321 C 0.66115 0.82384 0.79901 0.0
N322 N 0.70112 0.82102 0.79073 0.0
Co323 Co 0.71583 0.81892 0.75835 0.0
N324 N 0.66307 0.82701 0.74811 0.0
C325 C 0.62739 0.8294 0.76097 0.0
C326 C 0.59631 0.83525 0.7496 0.0
C327 C 0.61317 0.83647 0.72819 0.0
C328 C 0.65356 0.83116 0.72754 0.0
N329 N 0.73147 0.81678 0.7261 0.0
C330 C 0.7158 0.82153 0.70722 0.0
C331 C 0.73364 0.81689 0.68794 0.0
C332 C 0.7612 0.80905 0.69508 0.0
C333 C 0.75857 0.80923 0.71818 0.0
N334 N 0.76825 0.81076 0.7687 0.0
C335 C 0.79152 0.80389 0.75622 0.0
C336 C 0.82731 0.79976 0.7676 0.0
C337 C 0.82643 0.80431 0.78855 0.0
C338 C 0.78968 0.81091 0.78888 0.0
N339 N 0.67898 0.80615 0.7576 0.0
C340 C 0.61996 0.78895 0.75678 0.0
C341 C 0.62195 0.79603 0.7388 0.0
C342 C 0.65135 0.80447 0.73952 0.0
C343 C 0.64894 0.79063 0.77518 0.0
C344 C 0.67828 0.79922 0.77521 0.0
N345 N 0.75129 0.83179 0.75893 0.0
C346 C 0.81803 0.84153 0.75024 0.0
C347 C 0.79903 0.85075 0.75891 0.0
C348 C 0.75556 0.85012 0.76762 0.0
C349 C 0.73278 0.84064 0.76775 0.0
C350 C 0.79355 0.83218 0.75026 0.0
H351 H 0.69973 0.84054 0.77482 0.0
H352 H 0.8087 0.82527 0.74323 0.0
H353 H 0.65071 0.80978 0.72546 0.0
H354 H 0.69994 0.80035 0.78959 0.0
C355 C 0.62767 0.82742 0.78434 0.0
C356 C 0.77492 0.81693 0.8087 0.0
C357 C 0.67984 0.82938 0.70675 0.0
C358 C 0.78463 0.80327 0.73292 0.0
H359 H 0.71725 0.82284 0.84582 0.0
H360 H 0.63463 0.82764 0.83283 0.0
H361 H 0.56576 0.83855 0.75625 0.0
H362 H 0.59719 0.84071 0.7146 0.0
H363 H 0.72651 0.81867 0.67045 0.0
H364 H 0.78103 0.80389 0.68465 0.0
H365 H 0.85262 0.79456 0.76103 0.0
H366 H 0.85056 0.80298 0.80183 0.0
H367 H 0.59995 0.79529 0.72437 0.0
H368 H 0.64911 0.78534 0.78944 0.0
H369 H 0.85166 0.84146 0.74358 0.0
H370 H 0.73843 0.85693 0.77403 0.0
C371 C 0.03566 0.94828 0.81118 0.0
C372 C 0.05915 0.94455 0.82972 0.0
C373 C 0.10156 0.94232 0.82232 0.0
C374 C 0.1017 0.94466 0.79966 0.0
N375 N 0.06197 0.94821 0.79242 0.0
Co376 Co 0.04578 0.9512 0.76049 0.0
N377 N 0.09678 0.94301 0.74845 0.0
C378 C 0.1327 0.93999 0.76047 0.0
C379 C 0.16221 0.93418 0.74799 0.0
C380 C 0.14409 0.93367 0.72672 0.0
C381 C 0.1046 0.93935 0.72726 0.0
N382 N 0.0285 0.95425 0.72877 0.0
C383 C 0.04242 0.9499 0.70908 0.0
C384 C 0.02395 0.95515 0.69071 0.0
C385 C 0.99798 0.96299 0.69924 0.0
C386 C 1.00205 0.9622 0.72223 0.0
N387 N 0.99529 0.95945 0.77256 0.0
C388 C 0.97327 0.96702 0.76149 0.0
C389 C 0.94036 0.97154 0.77432 0.0
C390 C 0.9418 0.96647 0.79473 0.0
C391 C 0.97542 0.95906 0.7931 0.0
N392 N 0.08422 0.96372 0.76059 0.0
C393 C 0.14294 0.98098 0.75989 0.0
C394 C 0.13993 0.97411 0.74155 0.0
C395 C 0.11072 0.96566 0.74221 0.0
C396 C 0.11572 0.97895 0.77879 0.0
C397 C 0.08649 0.97032 0.77876 0.0
N398 N 0.00867 0.93858 0.76013 0.0
C399 C 0.94033 0.92954 0.75107 0.0
C400 C 0.95924 0.92001 0.75778 0.0
C401 C 1.00284 0.92005 0.76617 0.0
C402 C 0.02663 0.92937 0.76744 0.0
C403 C 0.9658 0.93873 0.75216 0.0
H404 H 0.05992 0.92906 0.77418 0.0
H405 H 0.95109 0.94593 0.74635 0.0
H406 H 0.11026 0.9606 0.72774 0.0
H407 H 0.06591 0.96895 0.79345 0.0
C408 C 0.13372 0.94125 0.78403 0.0
C409 C 0.98909 0.95214 0.81165 0.0
C410 C 0.07772 0.94192 0.70704 0.0
C411 C 0.9785 0.96813 0.73814 0.0
H412 H 0.04704 0.94324 0.84667 0.0
H413 H 0.12802 0.9387 0.83198 0.0
H414 H 0.19247 0.93044 0.75382 0.0
H415 H 0.15865 0.92965 0.71244 0.0
H416 H 0.02984 0.95378 0.67293 0.0
H417 H 0.97844 0.96859 0.68977 0.0
H418 H 0.91672 0.97746 0.76915 0.0
H419 H 0.92048 0.96802 0.8091 0.0
H420 H 0.16073 0.97511 0.72674 0.0
H421 H 0.11657 0.98404 0.79338 0.0
H422 H 0.9066 0.92983 0.74452 0.0
H423 H 0.01846 0.91291 0.7719 0.0
C424 C 0.22042 0.56034 0.54074 0.0
C425 C 0.18341 0.55382 0.54122 0.0
C426 C 0.18012 0.54941 0.52019 0.0
C427 C 0.21487 0.55352 0.508 0.0
N428 N 0.23989 0.56022 0.52008 0.0
Co429 Co 0.29164 0.56832 0.50871 0.0
N430 N 0.2729 0.56636 0.47682 0.0
C431 C 0.24289 0.55934 0.46933 0.0
C432 C 0.23542 0.55998 0.44651 0.0
C433 C 0.26299 0.56776 0.43909 0.0
C434 C 0.28627 0.57138 0.45786 0.0
N435 N 0.34396 0.5763 0.49745 0.0
C436 C 0.35302 0.58005 0.47649 0.0
C437 C 0.39497 0.58464 0.47591 0.0
C438 C 0.41286 0.58359 0.49714 0.0
C439 C 0.38104 0.57842 0.50951 0.0
N440 N 0.30919 0.57035 0.54074 0.0
C441 C 0.34987 0.5731 0.54822 0.0
C442 C 0.35126 0.57425 0.57133 0.0
C443 C 0.30874 0.57209 0.57874 0.0
C444 C 0.28373 0.56977 0.55968 0.0
N445 N 0.32791 0.55546 0.50707 0.0
C446 C 0.38771 0.5384 0.50527 0.0
C447 C 0.36068 0.54017 0.52437 0.0
C448 C 0.33089 0.54868 0.52488 0.0
C449 C 0.38308 0.54529 0.48703 0.0
C450 C 0.35328 0.55364 0.48823 0.0
N451 N 0.25673 0.58126 0.51013 0.0
C452 C 0.25405 0.5997 0.51797 0.0
C453 C 0.21027 0.60029 0.50984 0.0
C454 C 0.18973 0.59108 0.50239 0.0
C455 C 0.21366 0.58167 0.50248 0.0
C456 C 0.27638 0.59014 0.5182 0.0
H457 H 0.19754 0.57476 0.49609 0.0
H458 H 0.30992 0.59 0.5247 0.0
H459 H 0.31086 0.54988 0.53983 0.0
H460 H 0.35192 0.5588 0.47395 0.0
C461 C 0.21832 0.55328 0.48448 0.0
C462 C 0.23682 0.5664 0.56011 0.0
C463 C 0.32544 0.57827 0.45626 0.0
C464 C 0.38247 0.5765 0.53288 0.0
H465 H 0.16046 0.55253 0.55503 0.0
H466 H 0.15368 0.54439 0.51411 0.0
H467 H 0.21214 0.55546 0.43651 0.0
H468 H 0.2667 0.57023 0.4217 0.0
H469 H 0.41137 0.58815 0.46149 0.0
H470 H 0.44497 0.58639 0.50291 0.0
H471 H 0.37916 0.57686 0.58148 0.0
H472 H 0.29738 0.57224 0.5961 0.0
H473 H 0.3624 0.53502 0.53885 0.0
H474 H 0.4034 0.54447 0.47201 0.0
H475 H 0.27094 0.60658 0.52425 0.0
H476 H 0.15588 0.5912 0.49596 0.0
C477 C 0.04401 0.71007 0.54069 0.0
C478 C 0.08125 0.71651 0.54127 0.0
C479 C 0.08501 0.72088 0.52023 0.0
C480 C 0.05026 0.71683 0.50794 0.0
N481 N 0.02481 0.71021 0.51997 0.0
Co482 Co 0.97281 0.70221 0.5085 0.0
N483 N 0.99199 0.70409 0.47666 0.0
C484 C 0.02248 0.71101 0.46922 0.0
C485 C 0.03011 0.71034 0.44642 0.0
C486 C 1.00214 0.70264 0.43895 0.0
C487 C 0.97848 0.6991 0.45767 0.0
N488 N 0.92021 0.69437 0.49714 0.0
C489 C 0.91111 0.69064 0.47615 0.0
C490 C 0.86893 0.68617 0.47548 0.0
C491 C 0.85094 0.68727 0.49668 0.0
C492 C 0.88292 0.69235 0.50911 0.0
N493 N 0.95483 0.70026 0.54049 0.0
C494 C 0.91396 0.69762 0.54788 0.0
C495 C 0.9123 0.69649 0.57098 0.0
C496 C 0.95484 0.69855 0.5785 0.0
C497 C 0.98013 0.7008 0.55949 0.0
N498 N 0.93718 0.71516 0.50669 0.0
C499 C 0.87802 0.73233 0.50475 0.0
C500 C 0.90486 0.73052 0.52391 0.0
C501 C 0.93432 0.72196 0.52448 0.0
C502 C 0.88258 0.72544 0.48651 0.0
C503 C 0.91207 0.71703 0.48778 0.0
N504 N 0.00713 0.68919 0.51013 0.0
C505 C 0.00916 0.6708 0.5185 0.0
C506 C 0.05354 0.67005 0.51106 0.0
C507 C 0.07416 0.67924 0.50331 0.0
C508 C 0.05036 0.68867 0.50283 0.0
C509 C 0.987 0.68038 0.51818 0.0
H510 H 0.0669 0.69554 0.49646 0.0
H511 H 0.95316 0.68058 0.52424 0.0
H512 H 0.95418 0.72072 0.53948 0.0
H513 H 0.91337 0.71187 0.47351 0.0
C514 C 0.04715 0.71704 0.4844 0.0
C515 C 0.02717 0.70405 0.56003 0.0
C516 C 0.93883 0.69238 0.45597 0.0
C517 C 0.88136 0.69429 0.53246 0.0
H518 H 0.10404 0.71778 0.55518 0.0
H519 H 0.11173 0.72584 0.51421 0.0
H520 H 0.05371 0.71478 0.43646 0.0
H521 H 0.9984 0.70019 0.42155 0.0
H522 H 0.85245 0.68271 0.46103 0.0
H523 H 0.81863 0.68456 0.50238 0.0
H524 H 0.88419 0.69396 0.58108 0.0
H525 H 0.96604 0.69839 0.59589 0.0
H526 H 0.9032 0.73567 0.53838 0.0
H527 H 0.8624 0.7263 0.47144 0.0
H528 H 0.9909 0.66402 0.52421 0.0
H529 H 0.10855 0.67924 0.49774 0.0
C530 C 0.21837 0.70973 0.7134 0.0
C531 C 0.18101 0.71614 0.71307 0.0
C532 C 0.17784 0.72055 0.73409 0.0
C533 C 0.21298 0.71654 0.74615 0.0
N534 N 0.23812 0.70989 0.734 0.0
Co535 Co 0.29034 0.70189 0.74521 0.0
N536 N 0.27199 0.70384 0.77716 0.0
C537 C 0.24184 0.71081 0.78474 0.0
C538 C 0.23484 0.7102 0.8076 0.0
C539 C 0.26286 0.70249 0.81495 0.0
C540 C 0.28589 0.69887 0.7961 0.0
N541 N 0.34312 0.69403 0.75632 0.0
C542 C 0.35262 0.69032 0.77726 0.0
C543 C 0.39475 0.68581 0.77771 0.0
C544 C 0.41229 0.68688 0.75642 0.0
C545 C 0.38011 0.69198 0.74415 0.0
N546 N 0.30753 0.69988 0.71313 0.0
C547 C 0.34819 0.69719 0.70552 0.0
C548 C 0.34933 0.69604 0.68242 0.0
C549 C 0.30665 0.69812 0.67514 0.0
C550 C 0.28181 0.70041 0.69427 0.0
N551 N 0.32609 0.71482 0.74668 0.0
C552 C 0.3853 0.73199 0.74803 0.0
C553 C 0.35776 0.73017 0.72913 0.0
C554 C 0.32831 0.72161 0.72884 0.0
C555 C 0.3814 0.72511 0.76633 0.0
C556 C 0.35184 0.7167 0.76536 0.0
N557 N 0.25587 0.68889 0.74392 0.0
C558 C 0.25343 0.67048 0.73583 0.0
C559 C 0.20929 0.66978 0.74364 0.0
C560 C 0.18895 0.67901 0.75136 0.0
C561 C 0.21284 0.68842 0.75153 0.0
C562 C 0.27568 0.68005 0.73584 0.0
H563 H 0.19654 0.69531 0.75792 0.0
H564 H 0.30935 0.68022 0.72953 0.0
H565 H 0.30794 0.72036 0.71403 0.0
H566 H 0.35099 0.71156 0.77966 0.0
C567 C 0.21679 0.7168 0.76966 0.0
C568 C 0.23482 0.70372 0.69396 0.0
C569 C 0.3253 0.69206 0.79758 0.0
C570 C 0.38114 0.69387 0.72076 0.0
H571 H 0.15772 0.71737 0.69937 0.0
H572 H 0.15124 0.7255 0.74028 0.0
H573 H 0.21159 0.71469 0.81767 0.0
H574 H 0.26702 0.70006 0.83235 0.0
H575 H 0.41146 0.68234 0.79209 0.0
H576 H 0.44442 0.68414 0.75054 0.0
H577 H 0.37719 0.69348 0.67218 0.0
H578 H 0.29508 0.69795 0.65781 0.0
H579 H 0.35886 0.73532 0.71463 0.0
H580 H 0.40212 0.72597 0.78121 0.0
H581 H 0.27147 0.66367 0.7301 0.0
H582 H 0.15473 0.67904 0.75718 0.0
C583 C 0.04494 0.55996 0.71304 0.0
C584 C 0.08191 0.55343 0.71242 0.0
C585 C 0.08501 0.54886 0.73329 0.0
C586 C 0.05022 0.5529 0.74556 0.0
N587 N 0.02537 0.55971 0.73367 0.0
Co588 Co 0.97376 0.5678 0.74526 0.0
N589 N 0.99236 0.5656 0.7771 0.0
C590 C 0.02217 0.55849 0.7844 0.0
C591 C 0.0297 0.55899 0.80723 0.0
C592 C 1.00238 0.56678 0.81485 0.0
C593 C 0.97914 0.57054 0.7962 0.0
N594 N 0.92159 0.57575 0.75674 0.0
C595 C 0.91269 0.57942 0.77779 0.0
C596 C 0.87079 0.58404 0.7785 0.0
C597 C 0.85283 0.58311 0.75726 0.0
C598 C 0.88452 0.57796 0.74475 0.0
N599 N 0.95632 0.57006 0.7133 0.0
C600 C 0.91569 0.57289 0.70589 0.0
C601 C 0.91438 0.5742 0.68282 0.0
C602 C 0.95689 0.57207 0.67537 0.0
C603 C 0.98183 0.5696 0.69436 0.0
N604 N 0.93726 0.55497 0.74648 0.0
C605 C 0.87699 0.53801 0.74751 0.0
C606 C 0.90433 0.53986 0.72857 0.0
C607 C 0.93434 0.54832 0.72844 0.0
C608 C 0.88164 0.54474 0.76603 0.0
C609 C 0.9117 0.55305 0.76521 0.0
N610 N 0.00893 0.5807 0.74424 0.0
C611 C 0.01219 0.59915 0.73666 0.0
C612 C 0.0561 0.59962 0.74461 0.0
C613 C 0.07636 0.59035 0.75194 0.0
C614 C 0.05207 0.581 0.75181 0.0
C615 C 0.98948 0.58965 0.73639 0.0
H616 H 0.068 0.57403 0.75805 0.0
H617 H 0.95588 0.58959 0.72997 0.0
H618 H 0.95456 0.5496 0.71359 0.0
H619 H 0.91308 0.55811 0.77967 0.0
C620 C 0.04668 0.5525 0.76907 0.0
C621 C 0.02867 0.56617 0.69385 0.0
C622 C 0.9404 0.57755 0.79793 0.0
C623 C 0.88309 0.5762 0.72132 0.0
H624 H 0.10501 0.55223 0.69863 0.0
H625 H 0.11138 0.54379 0.73925 0.0
H626 H 0.05295 0.5544 0.81709 0.0
H627 H 0.99894 0.56919 0.8323 0.0
H628 H 0.8545 0.58751 0.79299 0.0
H629 H 0.82076 0.58597 0.75156 0.0
H630 H 0.88653 0.5769 0.67273 0.0
H631 H 0.9683 0.57233 0.65802 0.0
H632 H 0.90263 0.53483 0.71391 0.0
H633 H 0.86111 0.54384 0.78096 0.0
H634 H 0.9955 0.60608 0.7305 0.0
H635 H 0.1103 0.59038 0.75823 0.0
C636 C 0.7326 0.45113 0.44342 0.0
C637 C 0.70863 0.44894 0.42395 0.0
C638 C 0.6658 0.44667 0.4307 0.0
C639 C 0.66597 0.44764 0.45386 0.0
N640 N 0.70618 0.45038 0.46198 0.0
Co641 Co 0.72199 0.45218 0.49431 0.0
N642 N 0.66959 0.44396 0.50454 0.0
C643 C 0.63338 0.44178 0.49189 0.0
C644 C 0.60123 0.43641 0.50363 0.0
C645 C 0.61794 0.4353 0.52509 0.0
C646 C 0.65955 0.44006 0.52527 0.0
N647 N 0.73871 0.45403 0.52653 0.0
C648 C 0.72434 0.44891 0.54519 0.0
C649 C 0.7458 0.45263 0.56443 0.0
C650 C 0.77338 0.46052 0.55759 0.0
C651 C 0.76763 0.46115 0.53465 0.0
N652 N 0.77412 0.46043 0.48393 0.0
C653 C 0.7983 0.46708 0.49655 0.0
C654 C 0.83385 0.47124 0.48504 0.0
C655 C 0.83195 0.46692 0.46388 0.0
C656 C 0.79487 0.46042 0.46358 0.0
N657 N 0.6851 0.46495 0.49583 0.0
C658 C 0.62531 0.48201 0.49752 0.0
C659 C 0.62868 0.47492 0.51545 0.0
C660 C 0.65845 0.46656 0.51429 0.0
C661 C 0.65345 0.48044 0.47876 0.0
C662 C 0.68324 0.47192 0.47831 0.0
N663 N 0.7576 0.43933 0.493 0.0
C664 C 0.82272 0.42934 0.50339 0.0
C665 C 0.80524 0.42045 0.49279 0.0
C666 C 0.76372 0.42127 0.48209 0.0
C667 C 0.7404 0.4307 0.48256 0.0
C668 C 0.79864 0.43873 0.50307 0.0
H669 H 0.70805 0.43094 0.47467 0.0
H670 H 0.81303 0.44547 0.51117 0.0
H671 H 0.65887 0.46125 0.52832 0.0
H672 H 0.70424 0.47088 0.46365 0.0
C673 C 0.6329 0.44395 0.46861 0.0
C674 C 0.7795 0.45449 0.44376 0.0
C675 C 0.68569 0.44185 0.54598 0.0
C676 C 0.79311 0.46728 0.52 0.0
H677 H 0.72091 0.44892 0.40674 0.0
H678 H 0.63854 0.44408 0.42009 0.0
H679 H 0.5696 0.43355 0.49732 0.0
H680 H 0.60097 0.43166 0.53918 0.0
H681 H 0.74087 0.45014 0.58173 0.0
H682 H 0.79558 0.46511 0.56806 0.0
H683 H 0.85986 0.47623 0.49168 0.0
H684 H 0.85587 0.46827 0.45053 0.0
H685 H 0.60744 0.47559 0.53018 0.0
H686 H 0.65263 0.48574 0.46453 0.0
H687 H 0.85492 0.42908 0.51169 0.0
H688 H 0.74873 0.41459 0.47387 0.0
C689 C 0.03034 0.31959 0.44338 0.0
C690 C 0.05408 0.32168 0.42379 0.0
C691 C 0.09709 0.32389 0.43036 0.0
C692 C 0.09724 0.32299 0.45352 0.0
N693 N 0.05706 0.32034 0.46184 0.0
Co694 Co 0.04173 0.31866 0.49427 0.0
N695 N 0.09471 0.32677 0.5042 0.0
C696 C 0.13072 0.32887 0.49134 0.0
C697 C 0.1634 0.33416 0.50289 0.0
C698 C 0.14726 0.3353 0.52444 0.0
C699 C 0.10546 0.33064 0.52487 0.0
N700 N 0.02547 0.31694 0.5266 0.0
C701 C 0.04063 0.322 0.54518 0.0
C702 C 0.01936 0.31837 0.56454 0.0
C703 C 0.99107 0.31058 0.55787 0.0
C704 C 0.99625 0.30992 0.5349 0.0
N705 N 0.98905 0.31051 0.48419 0.0
C706 C 0.96474 0.30397 0.49699 0.0
C707 C 0.92893 0.29984 0.48563 0.0
C708 C 0.93078 0.30407 0.46439 0.0
C709 C 0.96805 0.3105 0.46389 0.0
N710 N 0.07808 0.3058 0.49578 0.0
C711 C 0.13729 0.28863 0.49744 0.0
C712 C 0.13435 0.29575 0.51533 0.0
C713 C 0.10487 0.30416 0.51419 0.0
C714 C 0.10902 0.29023 0.47874 0.0
C715 C 0.0795 0.2988 0.47831 0.0
N716 N 0.00668 0.33159 0.49295 0.0
C717 C 0.94193 0.34174 0.50322 0.0
C718 C 0.95951 0.35054 0.4923 0.0
C719 C 1.00095 0.3496 0.48158 0.0
C720 C 0.02404 0.34014 0.48228 0.0
C721 C 0.96577 0.33232 0.50312 0.0
H722 H 0.0563 0.33981 0.47432 0.0
H723 H 0.95126 0.32565 0.51141 0.0
H724 H 0.10483 0.30949 0.52817 0.0
H725 H 0.05837 0.29987 0.4637 0.0
C726 C 0.13068 0.32665 0.46809 0.0
C727 C 0.98332 0.31633 0.44393 0.0
C728 C 0.07988 0.32888 0.54577 0.0
C729 C 0.97023 0.30383 0.52042 0.0
H730 H 0.04154 0.32168 0.40663 0.0
H731 H 0.12427 0.32639 0.41961 0.0
H732 H 0.19502 0.33692 0.4964 0.0
H733 H 0.16476 0.33889 0.53843 0.0
H734 H 0.02495 0.32083 0.58181 0.0
H735 H 0.96887 0.30607 0.56848 0.0
H736 H 0.90283 0.29491 0.49241 0.0
H737 H 0.90677 0.3027 0.45107 0.0
H738 H 0.15572 0.29506 0.53002 0.0
H739 H 0.10953 0.28491 0.46454 0.0
H740 H 0.9098 0.3421 0.51157 0.0
H741 H 0.01601 0.35621 0.47312 0.0
C742 C 0.72779 0.32061 0.30983 0.0
C743 C 0.70319 0.32301 0.32897 0.0
C744 C 0.66061 0.32522 0.32174 0.0
C745 C 0.66156 0.32402 0.29864 0.0
N746 N 0.70202 0.32119 0.29099 0.0
Co747 Co 0.71885 0.31906 0.25888 0.0
N748 N 0.66625 0.327 0.24778 0.0
C749 C 0.62952 0.3292 0.26003 0.0
C750 C 0.59736 0.33432 0.24777 0.0
C751 C 0.6146 0.33523 0.22639 0.0
C752 C 0.65653 0.33063 0.22678 0.0
N753 N 0.73685 0.317 0.22689 0.0
C754 C 0.72269 0.32187 0.20787 0.0
C755 C 0.74526 0.31812 0.189 0.0
C756 C 0.77331 0.31043 0.19643 0.0
C757 C 0.76674 0.30996 0.21934 0.0
N758 N 0.77085 0.31097 0.27009 0.0
C759 C 0.79568 0.30426 0.25794 0.0
C760 C 0.83067 0.30017 0.26999 0.0
C761 C 0.82772 0.30459 0.29101 0.0
C762 C 0.79066 0.3111 0.29068 0.0
N763 N 0.68252 0.30619 0.25764 0.0
C764 C 0.62275 0.28911 0.25649 0.0
C765 C 0.6269 0.29594 0.23811 0.0
C766 C 0.65669 0.3043 0.23899 0.0
C767 C 0.65028 0.29094 0.27538 0.0
C768 C 0.68003 0.29947 0.27557 0.0
N769 N 0.7539 0.332 0.25994 0.0
C770 C 0.82134 0.3417 0.25244 0.0
C771 C 0.8015 0.35101 0.2601 0.0
C772 C 0.75728 0.35043 0.26788 0.0
C773 C 0.73454 0.34092 0.26793 0.0
C774 C 0.79695 0.33235 0.25233 0.0
H775 H 0.70086 0.34085 0.27424 0.0
H776 H 0.81291 0.3254 0.246 0.0
H777 H 0.65768 0.3094 0.22463 0.0
H778 H 0.70043 0.30072 0.29037 0.0
C779 C 0.62867 0.32739 0.28344 0.0
C780 C 0.77458 0.31715 0.31013 0.0
C781 C 0.68333 0.32869 0.20636 0.0
C782 C 0.79172 0.30397 0.23445 0.0
H783 H 0.71485 0.32317 0.34629 0.0
H784 H 0.63295 0.32787 0.33199 0.0
H785 H 0.56542 0.33715 0.2537 0.0
H786 H 0.59778 0.33866 0.21199 0.0
H787 H 0.7407 0.32043 0.17156 0.0
H788 H 0.79621 0.30585 0.18637 0.0
H789 H 0.857 0.29514 0.26381 0.0
H790 H 0.85094 0.30331 0.30472 0.0
H791 H 0.60619 0.29507 0.22323 0.0
H792 H 0.64896 0.28585 0.28995 0.0
H793 H 0.85556 0.34155 0.24664 0.0
H794 H 0.73957 0.35729 0.27355 0.0
C795 C 0.03417 0.45079 0.30924 0.0
C796 C 0.05921 0.4483 0.32819 0.0
C797 C 0.10158 0.44608 0.32065 0.0
C798 C 0.10007 0.44737 0.29758 0.0
N799 N 0.05946 0.45026 0.29024 0.0
Co800 Co 0.04184 0.45254 0.2583 0.0
N801 N 0.09384 0.44455 0.24672 0.0
C802 C 0.1309 0.44227 0.25867 0.0
C803 C 0.16248 0.43712 0.24611 0.0
C804 C 0.14447 0.43625 0.22487 0.0
C805 C 0.10268 0.44092 0.22564 0.0
N806 N 0.02309 0.45477 0.22649 0.0
C807 C 0.03624 0.44987 0.20735 0.0
C808 C 0.01294 0.45365 0.18873 0.0
C809 C 0.98564 0.46142 0.19643 0.0
C810 C 0.99324 0.46189 0.21926 0.0
N811 N 0.99039 0.46067 0.26997 0.0
C812 C 0.96556 0.4675 0.25815 0.0
C813 C 0.93109 0.47162 0.27053 0.0
C814 C 0.9344 0.46708 0.29142 0.0
C815 C 0.97111 0.46047 0.29067 0.0
N816 N 0.07851 0.46535 0.25706 0.0
C817 C 0.13859 0.48238 0.25593 0.0
C818 C 0.1341 0.4756 0.23749 0.0
C819 C 0.10413 0.46726 0.23835 0.0
C820 C 0.11121 0.48053 0.27487 0.0
C821 C 0.08136 0.47203 0.27505 0.0
N822 N 0.00644 0.43965 0.25933 0.0
C823 C 0.93868 0.43008 0.25178 0.0
C824 C 0.95871 0.42078 0.25906 0.0
C825 C 1.00275 0.4212 0.26689 0.0
C826 C 0.02572 0.43067 0.26711 0.0
C827 C 0.96323 0.43941 0.25186 0.0
H828 H 0.05939 0.43068 0.27346 0.0
H829 H 0.9474 0.4464 0.24566 0.0
H830 H 0.1028 0.46219 0.22391 0.0
H831 H 0.06113 0.47076 0.28991 0.0
C832 C 0.13249 0.44402 0.2821 0.0
C833 C 0.98744 0.45428 0.30986 0.0
C834 C 0.07506 0.44289 0.20551 0.0
C835 C 0.96891 0.46789 0.23463 0.0
H836 H 0.04798 0.44808 0.34557 0.0
H837 H 0.12945 0.44336 0.33068 0.0
H838 H 0.19452 0.43422 0.25176 0.0
H839 H 0.1607 0.43281 0.21033 0.0
H840 H 0.01639 0.45127 0.17126 0.0
H841 H 0.96239 0.46603 0.18661 0.0
H842 H 0.90484 0.47674 0.26465 0.0
H843 H 0.91169 0.46835 0.30535 0.0
H844 H 0.15465 0.47648 0.22256 0.0
H845 H 0.11272 0.48559 0.28949 0.0
H846 H 0.90468 0.43011 0.24557 0.0
H847 H 0.01931 0.41424 0.27302 0.0
C848 C 0.72153 0.06052 0.53997 0.0
C849 C 0.68462 0.05396 0.54048 0.0
C850 C 0.68123 0.04959 0.51943 0.0
C851 C 0.71584 0.05375 0.50721 0.0
N852 N 0.74082 0.06045 0.51929 0.0
Co853 Co 0.79249 0.0686 0.50797 0.0
N854 N 0.77372 0.06664 0.47609 0.0
C855 C 0.74381 0.05961 0.46856 0.0
C856 C 0.73654 0.06021 0.44573 0.0
C857 C 0.76411 0.06799 0.43833 0.0
C858 C 0.78715 0.07166 0.45714 0.0
N859 N 0.84476 0.07659 0.49675 0.0
C860 C 0.85372 0.08037 0.47581 0.0
C861 C 0.89561 0.085 0.47523 0.0
C862 C 0.91357 0.08393 0.49643 0.0
C863 C 0.88185 0.07872 0.50878 0.0
N864 N 0.81016 0.07061 0.53997 0.0
C865 C 0.85082 0.07338 0.54746 0.0
C866 C 0.85226 0.07449 0.57057 0.0
C867 C 0.8098 0.07229 0.57799 0.0
C868 C 0.7848 0.06998 0.55891 0.0
N869 N 0.82873 0.05575 0.50631 0.0
C870 C 0.8882 0.03863 0.50469 0.0
C871 C 0.86079 0.04039 0.52365 0.0
C872 C 0.83123 0.04893 0.52408 0.0
C873 C 0.88403 0.04554 0.48646 0.0
C874 C 0.85435 0.05393 0.48757 0.0
N875 N 0.75742 0.08153 0.50947 0.0
C876 C 0.75414 0.09992 0.51772 0.0
C877 C 0.70976 0.10052 0.51018 0.0
C878 C 0.68978 0.09123 0.5025 0.0
C879 C 0.71419 0.08189 0.5021 0.0
C880 C 0.77692 0.09042 0.5175 0.0
H881 H 0.69812 0.07496 0.49575 0.0
H882 H 0.81074 0.09033 0.52363 0.0
H883 H 0.81097 0.05013 0.53895 0.0
H884 H 0.85325 0.05911 0.47331 0.0
C885 C 0.71926 0.05352 0.48369 0.0
C886 C 0.73801 0.06656 0.55932 0.0
C887 C 0.8262 0.07857 0.4556 0.0
C888 C 0.88338 0.0768 0.53214 0.0
H889 H 0.66183 0.05262 0.55434 0.0
H890 H 0.65486 0.04455 0.51336 0.0
H891 H 0.71342 0.05566 0.4357 0.0
H892 H 0.76802 0.07044 0.42093 0.0
H893 H 0.91191 0.08854 0.46082 0.0
H894 H 0.94566 0.08675 0.5022 0.0
H895 H 0.88017 0.07709 0.58073 0.0
H896 H 0.79847 0.07239 0.59536 0.0
H897 H 0.86208 0.03522 0.5381 0.0
H898 H 0.90463 0.04472 0.47153 0.0
H899 H 0.77196 0.10677 0.5234 0.0
H900 H 0.65542 0.09109 0.49688 0.0
C901 C 0.54087 0.21026 0.54126 0.0
C902 C 0.57761 0.21686 0.54194 0.0
C903 C 0.58115 0.22127 0.52093 0.0
C904 C 0.54678 0.21709 0.50857 0.0
N905 N 0.52177 0.21034 0.52051 0.0
Co906 Co 0.47036 0.20217 0.50893 0.0
N907 N 0.48939 0.20422 0.4771 0.0
C908 C 0.51944 0.21127 0.46976 0.0
C909 C 0.52721 0.21067 0.44697 0.0
C910 C 0.49978 0.2029 0.43939 0.0
C911 C 0.47625 0.19924 0.45804 0.0
N912 N 0.41837 0.19413 0.49745 0.0
C913 C 0.40954 0.19044 0.47641 0.0
C914 C 0.36773 0.18578 0.47568 0.0
C915 C 0.34969 0.18673 0.49689 0.0
C916 C 0.38127 0.19191 0.50939 0.0
N917 N 0.45249 0.20006 0.54089 0.0
C918 C 0.41183 0.19721 0.54822 0.0
C919 C 0.41016 0.19605 0.57132 0.0
C920 C 0.45247 0.1983 0.57889 0.0
C921 C 0.47764 0.20069 0.55993 0.0
N922 N 0.43378 0.21498 0.50729 0.0
C923 C 0.37397 0.23204 0.50542 0.0
C924 C 0.40084 0.23026 0.52458 0.0
C925 C 0.43062 0.22175 0.52512 0.0
C926 C 0.37873 0.22517 0.48717 0.0
C927 C 0.40854 0.21681 0.48841 0.0
N928 N 0.50568 0.18928 0.51034 0.0
C929 C 0.50912 0.17084 0.51813 0.0
C930 C 0.55311 0.17036 0.51025 0.0
C931 C 0.57327 0.17963 0.50289 0.0
C932 C 0.54889 0.18898 0.50288 0.0
C933 C 0.48629 0.18033 0.51826 0.0
H934 H 0.56481 0.19594 0.49659 0.0
H935 H 0.45263 0.18039 0.52461 0.0
H936 H 0.45054 0.22054 0.54011 0.0
H937 H 0.41005 0.21167 0.4741 0.0
C938 C 0.54369 0.21734 0.48504 0.0
C939 C 0.52437 0.20417 0.56056 0.0
C940 C 0.43709 0.19237 0.45624 0.0
C941 C 0.37953 0.19377 0.53276 0.0
H942 H 0.60018 0.2182 0.5559 0.0
H943 H 0.60749 0.22635 0.51499 0.0
H944 H 0.55059 0.21522 0.43709 0.0
H945 H 0.49632 0.20046 0.42197 0.0
H946 H 0.35149 0.1823 0.46118 0.0
H947 H 0.3176 0.18387 0.50255 0.0
H948 H 0.38221 0.19338 0.58136 0.0
H949 H 0.46359 0.19817 0.5963 0.0
H950 H 0.39902 0.2354 0.53906 0.0
H951 H 0.35853 0.22599 0.4721 0.0
H952 H 0.49245 0.16391 0.52433 0.0
H953 H 0.60724 0.17961 0.49664 0.0
C954 C 0.71697 0.21092 0.7143 0.0
C955 C 0.67981 0.2174 0.71467 0.0
C956 C 0.67799 0.22171 0.73585 0.0
C957 C 0.71364 0.21757 0.74731 0.0
N958 N 0.73783 0.21095 0.73463 0.0
Co959 Co 0.79004 0.2027 0.74491 0.0
N960 N 0.77339 0.20449 0.77715 0.0
C961 C 0.74446 0.21159 0.78534 0.0
C962 C 0.73863 0.21087 0.80827 0.0
C963 C 0.76615 0.20294 0.815 0.0
C964 C 0.7877 0.1993 0.79572 0.0
N965 N 0.84255 0.1945 0.75504 0.0
C966 C 0.85257 0.19053 0.7757 0.0
C967 C 0.89425 0.1858 0.77548 0.0
C968 C 0.91099 0.18699 0.75405 0.0
C969 C 0.87879 0.19238 0.74237 0.0
N970 N 0.80578 0.20096 0.71257 0.0
C971 C 0.84602 0.19827 0.7044 0.0
C972 C 0.84608 0.19733 0.68124 0.0
C973 C 0.80316 0.19955 0.67454 0.0
C974 C 0.77924 0.20169 0.69405 0.0
N975 N 0.82681 0.21547 0.7465 0.0
C976 C 0.88792 0.23226 0.7478 0.0
C977 C 0.85921 0.2308 0.72921 0.0
C978 C 0.82884 0.2224 0.72894 0.0
C979 C 0.88365 0.22534 0.76601 0.0
C980 C 0.85338 0.21708 0.765 0.0
N981 N 0.75459 0.18986 0.74352 0.0
C982 C 0.74858 0.17185 0.7323 0.0
C983 C 0.7071 0.17099 0.74299 0.0
C984 C 0.6896 0.17981 0.7538 0.0
C985 C 0.7136 0.18921 0.75363 0.0
C986 C 0.77186 0.18127 0.73295 0.0
H987 H 0.69919 0.19591 0.76183 0.0
H988 H 0.80419 0.18155 0.72505 0.0
H989 H 0.80781 0.22137 0.71428 0.0
H990 H 0.85248 0.21186 0.77917 0.0
C991 C 0.7189 0.21773 0.77076 0.0
C992 C 0.73228 0.205 0.69448 0.0
C993 C 0.82628 0.19221 0.79639 0.0
C994 C 0.87921 0.19459 0.71911 0.0
H995 H 0.6558 0.21874 0.70135 0.0
H996 H 0.65193 0.22668 0.74253 0.0
H997 H 0.71635 0.2154 0.81878 0.0
H998 H 0.77093 0.20037 0.83226 0.0
H999 H 0.91123 0.18211 0.78951 0.0
H1000 H 0.94264 0.18417 0.7477 0.0
H1001 H 0.87333 0.19478 0.67058 0.0
H1002 H 0.79078 0.19953 0.65735 0.0
H1003 H 0.86094 0.2359 0.71465 0.0
H1004 H 0.90375 0.22623 0.78109 0.0
H1005 H 0.76353 0.1652 0.72392 0.0
H1006 H 0.65742 0.17949 0.76211 0.0
C1007 C 0.54178 0.06052 0.71195 0.0
C1008 C 0.58054 0.05459 0.71293 0.0
C1009 C 0.58572 0.05161 0.73488 0.0
C1010 C 0.55027 0.05591 0.7461 0.0
N1011 N 0.52223 0.06133 0.73258 0.0
Co1012 Co 0.46809 0.06935 0.74228 0.0
N1013 N 0.48258 0.06723 0.77504 0.0
C1014 C 0.51796 0.06201 0.78361 0.0
C1015 C 0.52088 0.06237 0.80668 0.0
C1016 C 0.48507 0.06815 0.81332 0.0
C1017 C 0.46198 0.07088 0.7938 0.0
N1018 N 0.41337 0.07718 0.75194 0.0
C1019 C 0.39765 0.07933 0.77297 0.0
C1020 C 0.35706 0.08451 0.77209 0.0
C1021 C 0.34674 0.08567 0.74973 0.0
C1022 C 0.38137 0.0811 0.73825 0.0
N1023 N 0.45529 0.0719 0.70939 0.0
C1024 C 0.4195 0.07691 0.70062 0.0
C1025 C 0.42168 0.07824 0.67765 0.0
C1026 C 0.46182 0.07408 0.67142 0.0
C1027 C 0.48187 0.07044 0.69103 0.0
N1028 N 0.43154 0.05618 0.74212 0.0
C1029 C 0.37201 0.03895 0.7464 0.0
C1030 C 0.36376 0.04706 0.73117 0.0
C1031 C 0.3936 0.05542 0.72922 0.0
C1032 C 0.41179 0.03944 0.75882 0.0
C1033 C 0.44093 0.04798 0.7563 0.0
N1034 N 0.50334 0.08248 0.74272 0.0
C1035 C 0.50927 0.10084 0.73384 0.0
C1036 C 0.55167 0.10136 0.74353 0.0
C1037 C 0.56962 0.09225 0.75282 0.0
C1038 C 0.54526 0.0829 0.752 0.0
C1039 C 0.48576 0.09145 0.73381 0.0
H1040 H 0.56081 0.0761 0.7589 0.0
H1041 H 0.45325 0.09163 0.72654 0.0
H1042 H 0.38438 0.06123 0.71738 0.0
H1043 H 0.47056 0.04778 0.76625 0.0
C1044 C 0.54727 0.05665 0.76952 0.0
C1045 C 0.52653 0.06584 0.69146 0.0
C1046 C 0.41937 0.07638 0.79414 0.0
C1047 C 0.38593 0.08085 0.71471 0.0
H1048 H 0.60398 0.05296 0.69951 0.0
H1049 H 0.61373 0.04743 0.74206 0.0
H1050 H 0.54587 0.0588 0.8174 0.0
H1051 H 0.47653 0.07001 0.83064 0.0
H1052 H 0.33695 0.08716 0.78617 0.0
H1053 H 0.31757 0.08944 0.74268 0.0
H1054 H 0.39768 0.08211 0.66684 0.0
H1055 H 0.4753 0.07394 0.65445 0.0
H1056 H 0.33359 0.04719 0.7211 0.0
H1057 H 0.42067 0.03326 0.77044 0.0
H1058 H 0.49382 0.10772 0.72664 0.0
H1059 H 0.60258 0.09228 0.76035 0.0
C1060 C 0.23106 0.94996 0.44416 0.0
C1061 C 0.20758 0.94745 0.42471 0.0
C1062 C 0.16472 0.94517 0.43137 0.0
C1063 C 0.16432 0.94643 0.45446 0.0
N1064 N 0.20422 0.94938 0.46265 0.0
Co1065 Co 0.21886 0.95169 0.49499 0.0
N1066 N 0.1661 0.94365 0.5055 0.0
C1067 C 0.13055 0.94113 0.49265 0.0
C1068 C 0.09929 0.93541 0.50421 0.0
C1069 C 0.11583 0.93443 0.52573 0.0
C1070 C 0.15623 0.93974 0.52627 0.0
N1071 N 0.23448 0.95404 0.52723 0.0
C1072 C 0.21856 0.94949 0.5463 0.0
C1073 C 0.23664 0.95423 0.5654 0.0
C1074 C 0.26451 0.96195 0.55798 0.0
C1075 C 0.26186 0.96159 0.53489 0.0
N1076 N 0.27123 0.95982 0.48436 0.0
C1077 C 0.2946 0.96674 0.49667 0.0
C1078 C 0.33033 0.97082 0.48519 0.0
C1079 C 0.32933 0.96619 0.46432 0.0
C1080 C 0.29259 0.95959 0.46414 0.0
N1081 N 0.18188 0.96446 0.49537 0.0
C1082 C 0.12285 0.98167 0.49583 0.0
C1083 C 0.12497 0.97468 0.51398 0.0
C1084 C 0.15436 0.96624 0.51344 0.0
C1085 C 0.15163 0.97988 0.47741 0.0
C1086 C 0.18099 0.97128 0.47756 0.0
N1087 N 0.25445 0.93884 0.49481 0.0
C1088 C 0.32156 0.92925 0.50358 0.0
C1089 C 0.30262 0.91993 0.49538 0.0
C1090 C 0.25897 0.92044 0.48683 0.0
C1091 C 0.236 0.9299 0.48641 0.0
C1092 C 0.29685 0.93856 0.50332 0.0
H1093 H 0.20285 0.9299 0.47943 0.0
H1094 H 0.31199 0.94554 0.51003 0.0
H1095 H 0.1538 0.96103 0.52765 0.0
H1096 H 0.20254 0.97006 0.46317 0.0
C1097 C 0.13094 0.94292 0.46923 0.0
C1098 C 0.27784 0.9535 0.44442 0.0
C1099 C 0.18201 0.94178 0.54711 0.0
C1100 C 0.28788 0.96745 0.51996 0.0
H1101 H 0.22018 0.94726 0.40757 0.0
H1102 H 0.13778 0.94239 0.42077 0.0
H1103 H 0.06876 0.93207 0.49763 0.0
H1104 H 0.09959 0.93038 0.5395 0.0
H1105 H 0.22938 0.95262 0.58296 0.0
H1106 H 0.28448 0.96716 0.56823 0.0
H1107 H 0.35567 0.97605 0.49164 0.0
H1108 H 0.35341 0.96746 0.451 0.0
H1109 H 0.10309 0.9755 0.52843 0.0
H1110 H 0.15167 0.98508 0.463 0.0
H1111 H 0.35532 0.92943 0.51006 0.0
H1112 H 0.24183 0.91357 0.48079 0.0
C1113 C 0.53276 0.8205 0.44475 0.0
C1114 C 0.55604 0.82305 0.42527 0.0
C1115 C 0.59881 0.82547 0.4319 0.0
C1116 C 0.59935 0.82422 0.45499 0.0
N1117 N 0.55963 0.82116 0.46319 0.0
Co1118 Co 0.54502 0.81886 0.4955 0.0
N1119 N 0.59695 0.82718 0.50593 0.0
C1120 C 0.63244 0.8298 0.49315 0.0
C1121 C 0.66288 0.83578 0.50465 0.0
C1122 C 0.64582 0.83684 0.52606 0.0
C1123 C 0.60596 0.83131 0.52658 0.0
N1124 N 0.52948 0.81651 0.52769 0.0
C1125 C 0.5446 0.82127 0.54667 0.0
C1126 C 0.52712 0.81647 0.56585 0.0
C1127 C 0.50038 0.80851 0.55854 0.0
C1128 C 0.5031 0.80879 0.53545 0.0
N1129 N 0.49343 0.81047 0.48494 0.0
C1130 C 0.47074 0.80344 0.49727 0.0
C1131 C 0.4352 0.79923 0.48584 0.0
C1132 C 0.43563 0.8039 0.465 0.0
C1133 C 0.47192 0.81065 0.46477 0.0
N1134 N 0.58305 0.80627 0.49609 0.0
C1135 C 0.6426 0.78916 0.49715 0.0
C1136 C 0.64021 0.79627 0.51507 0.0
C1137 C 0.61059 0.80466 0.51423 0.0
C1138 C 0.61398 0.79081 0.4786 0.0
C1139 C 0.58434 0.79936 0.47845 0.0
N1140 N 0.50836 0.83154 0.49516 0.0
C1141 C 0.44092 0.84088 0.50454 0.0
C1142 C 0.45951 0.85023 0.49654 0.0
C1143 C 0.50252 0.84994 0.48741 0.0
C1144 C 0.52603 0.84056 0.48664 0.0
C1145 C 0.46609 0.83164 0.50391 0.0
H1146 H 0.55888 0.84066 0.47931 0.0
H1147 H 0.45161 0.8246 0.5107 0.0
H1148 H 0.61086 0.80996 0.52829 0.0
H1149 H 0.56281 0.80045 0.46399 0.0
C1150 C 0.63243 0.82791 0.46975 0.0
C1151 C 0.48616 0.81685 0.44512 0.0
C1152 C 0.57976 0.82932 0.54731 0.0
C1153 C 0.47764 0.80276 0.52057 0.0
H1154 H 0.54335 0.82321 0.40814 0.0
H1155 H 0.62554 0.82833 0.42127 0.0
H1156 H 0.69312 0.83926 0.49809 0.0
H1157 H 0.66131 0.84111 0.53973 0.0
H1158 H 0.53398 0.81824 0.58337 0.0
H1159 H 0.48099 0.80322 0.56886 0.0
H1160 H 0.41026 0.79391 0.49232 0.0
H1161 H 0.41142 0.80257 0.45177 0.0
H1162 H 0.66198 0.79556 0.5296 0.0
H1163 H 0.61421 0.78551 0.46435 0.0
H1164 H 0.40768 0.84077 0.51172 0.0
H1165 H 0.51787 0.85694 0.48071 0.0
C1166 C 0.23095 0.82001 0.31018 0.0
C1167 C 0.20581 0.82246 0.32912 0.0
C1168 C 0.16341 0.82462 0.32156 0.0
C1169 C 0.16496 0.82336 0.29849 0.0
N1170 N 0.20564 0.82052 0.29115 0.0
Co1171 Co 0.2233 0.81833 0.25917 0.0
N1172 N 0.17098 0.82623 0.24759 0.0
C1173 C 0.1339 0.82843 0.25958 0.0
C1174 C 0.102 0.83349 0.24704 0.0
C1175 C 0.11978 0.83437 0.22576 0.0
C1176 C 0.16178 0.8298 0.22648 0.0
N1177 N 0.24222 0.81621 0.22733 0.0
C1178 C 0.2287 0.82107 0.20817 0.0
C1179 C 0.25228 0.81739 0.18956 0.0
C1180 C 0.28014 0.80972 0.19726 0.0
C1181 C 0.27255 0.80922 0.22008 0.0
N1182 N 0.27504 0.81028 0.27086 0.0
C1183 C 0.30024 0.80355 0.25896 0.0
C1184 C 0.33488 0.79949 0.27131 0.0
C1185 C 0.33134 0.80395 0.29226 0.0
C1186 C 0.29431 0.81046 0.29159 0.0
N1187 N 0.18702 0.80545 0.25776 0.0
C1188 C 0.12695 0.78842 0.25624 0.0
C1189 C 0.13196 0.7952 0.23782 0.0
C1190 C 0.16188 0.80353 0.23889 0.0
C1191 C 0.15375 0.79029 0.27539 0.0
C1192 C 0.18367 0.79878 0.27576 0.0
N1193 N 0.2582 0.83128 0.26036 0.0
C1194 C 0.32556 0.84103 0.25305 0.0
C1195 C 0.30529 0.85035 0.26039 0.0
C1196 C 0.26095 0.84974 0.26796 0.0
C1197 C 0.23846 0.84021 0.26809 0.0
C1198 C 0.30142 0.83165 0.253 0.0
H1199 H 0.20465 0.84012 0.27421 0.0
H1200 H 0.31767 0.8247 0.24689 0.0
H1201 H 0.16346 0.80859 0.22445 0.0
H1202 H 0.20351 0.80006 0.29075 0.0
C1203 C 0.13247 0.82667 0.283 0.0
C1204 C 0.2778 0.81657 0.31086 0.0
C1205 C 0.1892 0.82784 0.20627 0.0
C1206 C 0.29707 0.80324 0.23543 0.0
H1207 H 0.21701 0.82267 0.34651 0.0
H1208 H 0.13546 0.8273 0.33159 0.0
H1209 H 0.06986 0.83631 0.25272 0.0
H1210 H 0.10326 0.83774 0.21122 0.0
H1211 H 0.24859 0.81974 0.17209 0.0
H1212 H 0.30363 0.80519 0.18743 0.0
H1213 H 0.36142 0.79446 0.26536 0.0
H1214 H 0.35416 0.80271 0.30615 0.0
H1215 H 0.11182 0.79431 0.22275 0.0
H1216 H 0.15173 0.78523 0.29001 0.0
H1217 H 0.3599 0.84091 0.24743 0.0
H1218 H 0.24293 0.8566 0.27339 0.0
C1219 C 0.53369 0.95008 0.31015 0.0
C1220 C 0.55737 0.94751 0.3295 0.0
C1221 C 0.60009 0.94518 0.32267 0.0
C1222 C 0.6002 0.94648 0.29959 0.0
N1223 N 0.56026 0.9495 0.29157 0.0
Co1224 Co 0.54508 0.95182 0.2593 0.0
N1225 N 0.5973 0.94365 0.24857 0.0
C1226 C 0.63298 0.94106 0.26126 0.0
C1227 C 0.66385 0.93529 0.24956 0.0
C1228 C 0.64691 0.93435 0.22811 0.0
C1229 C 0.60669 0.93973 0.22776 0.0
N1230 N 0.52888 0.95417 0.22714 0.0
C1231 C 0.54427 0.94958 0.20799 0.0
C1232 C 0.5259 0.95434 0.18898 0.0
C1233 C 0.49842 0.9621 0.19652 0.0
C1234 C 0.50157 0.96176 0.2196 0.0
N1235 N 0.49323 0.96005 0.27019 0.0
C1236 C 0.46986 0.96701 0.25798 0.0
C1237 C 0.43438 0.97113 0.26961 0.0
C1238 C 0.43553 0.96647 0.29045 0.0
C1239 C 0.47214 0.95982 0.29047 0.0
N1240 N 0.58253 0.96451 0.25865 0.0
C1241 C 0.64155 0.98172 0.25742 0.0
C1242 C 0.63885 0.97466 0.23942 0.0
C1243 C 0.60952 0.96623 0.24034 0.0
C1244 C 0.61353 0.97996 0.27616 0.0
C1245 C 0.58411 0.97137 0.27638 0.0
N1246 N 0.509 0.93904 0.2597 0.0
C1247 C 0.4416 0.92958 0.25082 0.0
C1248 C 0.46065 0.92027 0.25876 0.0
C1249 C 0.50392 0.92063 0.26757 0.0
C1250 C 0.5272 0.93005 0.26811 0.0
C1251 C 0.46651 0.93886 0.25123 0.0
H1252 H 0.56024 0.93001 0.27522 0.0
H1253 H 0.45161 0.94586 0.24452 0.0
H1254 H 0.60963 0.96098 0.22621 0.0
H1255 H 0.56303 0.97019 0.29097 0.0
C1256 C 0.63315 0.94288 0.28467 0.0
C1257 C 0.48695 0.95365 0.31006 0.0
C1258 C 0.5807 0.94185 0.20701 0.0
C1259 C 0.47611 0.96769 0.23464 0.0
H1260 H 0.54499 0.9473 0.34668 0.0
H1261 H 0.62708 0.94234 0.33316 0.0
H1262 H 0.69441 0.9319 0.25599 0.0
H1263 H 0.6628 0.93028 0.21426 0.0
H1264 H 0.53272 0.95271 0.17139 0.0
H1265 H 0.4784 0.96734 0.18637 0.0
H1266 H 0.40901 0.97637 0.26325 0.0
H1267 H 0.41156 0.96774 0.30381 0.0
H1268 H 0.66018 0.97546 0.22474 0.0
H1269 H 0.61405 0.98521 0.29049 0.0
H1270 H 0.40817 0.92963 0.24386 0.0
H1271 H 0.51966 0.91367 0.27422 0.0
C1272 C 0.72108 0.56092 0.04057 0.0
C1273 C 0.68389 0.55445 0.04051 0.0
C1274 C 0.68129 0.55017 0.01933 0.0
C1275 C 0.71658 0.55431 0.00759 0.0
N1276 N 0.74129 0.5609 0.02008 0.0
Co1277 Co 0.79341 0.56908 0.00941 0.0
N1278 N 0.77597 0.56725 0.97726 0.0
C1279 C 0.74648 0.56021 0.96933 0.0
C1280 C 0.74021 0.56085 0.94642 0.0
C1281 C 0.76808 0.56865 0.9394 0.0
C1282 C 0.79024 0.5723 0.95849 0.0
N1283 N 0.84584 0.57723 0.99887 0.0
C1284 C 0.85574 0.58104 0.97805 0.0
C1285 C 0.89746 0.58575 0.97802 0.0
C1286 C 0.9144 0.5847 0.99944 0.0
C1287 C 0.88227 0.57941 0.01136 0.0
N1288 N 0.80994 0.57088 0.04166 0.0
C1289 C 0.85036 0.57359 0.04957 0.0
C1290 C 0.85104 0.57456 0.07272 0.0
C1291 C 0.80834 0.57232 0.07971 0.0
C1292 C 0.78393 0.57014 0.06038 0.0
N1293 N 0.82995 0.55626 0.00773 0.0
C1294 C 0.88934 0.53912 0.00578 0.0
C1295 C 0.86164 0.54075 0.02469 0.0
C1296 C 0.83204 0.5493 0.02527 0.0
C1297 C 0.88573 0.5462 0.98785 0.0
C1298 C 0.85616 0.5546 0.98913 0.0
N1299 N 0.75814 0.58199 0.01088 0.0
C1300 C 0.75252 0.60003 0.02198 0.0
C1301 C 0.71075 0.60091 0.01155 0.0
C1302 C 0.69294 0.59206 1.00094 0.0
C1303 C 0.71689 0.58265 1.00104 0.0
C1304 C 0.77571 0.59059 0.02127 0.0
H1305 H 0.7022 0.57594 0.99298 0.0
H1306 H 0.80823 0.59031 0.02898 0.0
H1307 H 0.81138 0.55038 0.04004 0.0
H1308 H 0.85556 0.55989 0.97509 0.0
C1309 C 0.72113 0.55413 0.98412 0.0
C1310 C 0.737 0.5668 0.06031 0.0
C1311 C 0.82947 0.57917 0.95741 0.0
C1312 C 0.88315 0.57726 0.03464 0.0
H1313 H 0.6604 0.55309 0.05406 0.0
H1314 H 0.65502 0.5452 0.01287 0.0
H1315 H 0.71756 0.55632 0.93609 0.0
H1316 H 0.77279 0.57111 0.92206 0.0
H1317 H 0.91438 0.58931 0.96382 0.0
H1318 H 0.94621 0.58751 0.0056 0.0
H1319 H 0.87856 0.57713 0.08318 0.0
H1320 H 0.79644 0.57234 0.09699 0.0
H1321 H 0.86265 0.53546 0.03894 0.0
H1322 H 0.90663 0.54549 0.973 0.0
H1323 H 0.76776 0.60669 0.03021 0.0
H1324 H 0.66056 0.59237 0.99284 0.0
C1325 C 0.54304 0.71065 0.04006 0.0
C1326 C 0.57977 0.71726 0.04003 0.0
C1327 C 0.58208 0.72156 0.01887 0.0
C1328 C 0.54705 0.71731 0.00711 0.0
N1329 N 0.5228 0.71061 0.01958 0.0
Co1330 Co 0.47107 0.7023 0.00891 0.0
N1331 N 0.48827 0.70423 0.97678 0.0
C1332 C 0.51728 0.71137 0.96884 0.0
C1333 C 0.52368 0.71072 0.94595 0.0
C1334 C 0.49645 0.7028 0.93895 0.0
C1335 C 0.47445 0.6991 0.95804 0.0
N1336 N 0.41907 0.69402 0.99838 0.0
C1337 C 0.40955 0.69011 0.9776 0.0
C1338 C 0.36808 0.68528 0.97755 0.0
C1339 C 0.35094 0.68634 0.99893 0.0
C1340 C 0.38271 0.69175 0.01085 0.0
N1341 N 0.45472 0.70043 0.04116 0.0
C1342 C 0.41442 0.69762 0.04906 0.0
C1343 C 0.41379 0.69667 0.07222 0.0
C1344 C 0.45639 0.69902 0.07921 0.0
C1345 C 0.4807 0.70125 0.05987 0.0
N1346 N 0.43388 0.71502 0.00731 0.0
C1347 C 0.37349 0.73198 0.0057 0.0
C1348 C 0.40174 0.73043 0.02445 0.0
C1349 C 0.43178 0.72197 0.02486 0.0
C1350 C 0.37718 0.72493 0.9877 0.0
C1351 C 0.40728 0.71662 0.98881 0.0
N1352 N 0.507 0.6895 0.0103 0.0
C1353 C 0.51346 0.67144 0.02119 0.0
C1354 C 0.55512 0.67067 0.01062 0.0
C1355 C 0.57249 0.6796 1.0001 0.0
C1356 C 0.54818 0.68895 1.00037 0.0
C1357 C 0.48989 0.68083 0.02065 0.0
H1358 H 0.56252 0.69572 0.99235 0.0
H1359 H 0.45743 0.68102 0.02843 0.0
H1360 H 0.45276 0.72094 0.03954 0.0
H1361 H 0.40797 0.71134 0.97474 0.0
C1362 C 0.54235 0.71752 0.98364 0.0
C1363 C 0.52746 0.70472 0.05979 0.0
C1364 C 0.436 0.69198 0.95703 0.0
C1365 C 0.38175 0.6939 0.03413 0.0
H1366 H 0.60311 0.71869 0.05362 0.0
H1367 H 0.60799 0.72664 0.01243 0.0
H1368 H 0.54614 0.71531 0.93563 0.0
H1369 H 0.49216 0.70026 0.92164 0.0
H1370 H 0.35146 0.68162 0.96337 0.0
H1371 H 0.31929 0.68343 0.00507 0.0
H1372 H 0.38639 0.69404 0.08268 0.0
H1373 H 0.46829 0.69904 0.09649 0.0
H1374 H 0.40077 0.73571 0.03872 0.0
H1375 H 0.35594 0.72559 0.97297 0.0
H1376 H 0.49854 0.66473 0.02935 0.0
H1377 H 0.60479 0.67938 0.9919 0.0
C1378 C 0.71886 0.71075 0.21402 0.0
C1379 C 0.68178 0.71725 0.21422 0.0
C1380 C 0.67951 0.72152 0.23542 0.0
C1381 C 0.71488 0.71734 0.24705 0.0
N1382 N 0.73931 0.71073 0.23446 0.0
Co1383 Co 0.79136 0.70248 0.24495 0.0
N1384 N 0.77424 0.70428 0.27713 0.0
C1385 C 0.74509 0.71136 0.2852 0.0
C1386 C 0.73892 0.71065 0.3081 0.0
C1387 C 0.76646 0.70275 0.31496 0.0
C1388 C 0.78836 0.69912 0.29578 0.0
N1389 N 0.84368 0.69426 0.2553 0.0
C1390 C 0.85345 0.69032 0.27602 0.0
C1391 C 0.89509 0.68556 0.27595 0.0
C1392 C 0.91208 0.68672 0.25456 0.0
C1393 C 0.88006 0.6921 0.24275 0.0
N1394 N 0.80759 0.70073 0.21266 0.0
C1395 C 0.84794 0.69802 0.20466 0.0
C1396 C 0.84841 0.6971 0.1815 0.0
C1397 C 0.80565 0.69937 0.17461 0.0
C1398 C 0.78142 0.70151 0.19402 0.0
N1399 N 0.82817 0.71526 0.24668 0.0
C1400 C 0.88816 0.73228 0.24856 0.0
C1401 C 0.86016 0.73073 0.22972 0.0
C1402 C 0.83027 0.72224 0.22919 0.0
C1403 C 0.88449 0.7252 0.26648 0.0
C1404 C 0.85463 0.71685 0.26524 0.0
N1405 N 0.75585 0.68961 0.24344 0.0
C1406 C 0.74996 0.67159 0.23225 0.0
C1407 C 0.70835 0.67071 0.24283 0.0
C1408 C 0.69074 0.67955 0.25355 0.0
C1409 C 0.71474 0.68896 0.25342 0.0
C1410 C 0.77321 0.68102 0.23293 0.0
H1411 H 0.70022 0.69567 0.26158 0.0
H1412 H 0.80562 0.6813 0.22512 0.0
H1413 H 0.8094 0.72121 0.21447 0.0
H1414 H 0.85402 0.71154 0.27925 0.0
C1415 C 0.71973 0.7175 0.27051 0.0
C1416 C 0.73451 0.70487 0.19422 0.0
C1417 C 0.82705 0.69207 0.29664 0.0
C1418 C 0.88083 0.69432 0.2195 0.0
H1419 H 0.65812 0.71863 0.20076 0.0
H1420 H 0.65339 0.7265 0.24198 0.0
H1421 H 0.71643 0.71518 0.31852 0.0
H1422 H 0.77103 0.7002 0.33225 0.0
H1423 H 0.9119 0.6819 0.29006 0.0
H1424 H 0.94379 0.68388 0.24833 0.0
H1425 H 0.87582 0.69454 0.17096 0.0
H1426 H 0.7936 0.69938 0.15736 0.0
H1427 H 0.86118 0.73604 0.2155 0.0
H1428 H 0.90559 0.72586 0.28127 0.0
H1429 H 0.76504 0.66494 0.22394 0.0
H1430 H 0.65848 0.67924 0.26178 0.0
C1431 C 0.54461 0.56078 0.21418 0.0
C1432 C 0.58166 0.55427 0.2144 0.0
C1433 C 0.58373 0.54995 0.23555 0.0
C1434 C 0.54826 0.5541 0.24713 0.0
N1435 N 0.52396 0.56075 0.23456 0.0
Co1436 Co 0.47164 0.56892 0.24499 0.0
N1437 N 0.48829 0.56701 0.2772 0.0
C1438 C 0.51739 0.55991 0.28526 0.0
C1439 C 0.52323 0.56053 0.3082 0.0
C1440 C 0.49553 0.56839 0.31509 0.0
C1441 C 0.47387 0.57208 0.29589 0.0
N1442 N 0.41906 0.57706 0.25528 0.0
C1443 C 0.40898 0.58093 0.27603 0.0
C1444 C 0.36729 0.58566 0.27589 0.0
C1445 C 0.3506 0.58456 0.25441 0.0
C1446 C 0.38284 0.57924 0.24263 0.0
N1447 N 0.45585 0.57078 0.21266 0.0
C1448 C 0.41558 0.5735 0.20456 0.0
C1449 C 0.41535 0.57447 0.18141 0.0
C1450 C 0.45819 0.57223 0.17463 0.0
C1451 C 0.48223 0.57004 0.19408 0.0
N1452 N 0.43499 0.55611 0.24632 0.0
C1453 C 0.37523 0.53902 0.24751 0.0
C1454 C 0.40378 0.54066 0.22893 0.0
C1455 C 0.43351 0.54918 0.22873 0.0
C1456 C 0.3783 0.54606 0.26557 0.0
C1457 C 0.4081 0.55443 0.26467 0.0
N1458 N 0.507 0.58182 0.24385 0.0
C1459 C 0.51282 0.5999 0.23304 0.0
C1460 C 0.55431 0.60075 0.24375 0.0
C1461 C 0.5719 0.59186 0.25434 0.0
C1462 C 0.54799 0.58245 0.25396 0.0
C1463 C 0.48966 0.59044 0.23345 0.0
H1464 H 0.56248 0.57572 0.26203 0.0
H1465 H 0.45734 0.59018 0.22553 0.0
H1466 H 0.45474 0.55027 0.21417 0.0
H1467 H 0.4083 0.5597 0.27878 0.0
C1468 C 0.54305 0.55384 0.27057 0.0
C1469 C 0.52914 0.56668 0.19438 0.0
C1470 C 0.4352 0.57914 0.29671 0.0
C1471 C 0.38243 0.57712 0.21934 0.0
H1472 H 0.60535 0.55291 0.20093 0.0
H1473 H 0.60973 0.54493 0.24211 0.0
H1474 H 0.54562 0.55597 0.31862 0.0
H1475 H 0.49073 0.57089 0.3324 0.0
H1476 H 0.35026 0.58927 0.28999 0.0
H1477 H 0.31894 0.58741 0.24812 0.0
H1478 H 0.38803 0.57704 0.17081 0.0
H1479 H 0.47041 0.57225 0.15741 0.0
H1480 H 0.4033 0.5354 0.21462 0.0
H1481 H 0.35679 0.54534 0.28019 0.0
H1482 H 0.49773 0.60657 0.22482 0.0
H1483 H 0.60407 0.59215 0.26266 0.0
C1484 C 0.22911 0.45091 0.94259 0.0
C1485 C 0.20434 0.44864 0.92341 0.0
C1486 C 0.16164 0.44655 0.93063 0.0
C1487 C 0.16268 0.44767 0.95375 0.0
N1488 N 0.20331 0.45035 0.96142 0.0
Co1489 Co 0.22041 0.45229 0.99353 0.0
N1490 N 0.16767 0.44439 0.00452 0.0
C1491 C 0.13074 0.44234 0.99229 0.0
C1492 C 0.09854 0.43722 0.00449 0.0
C1493 C 0.116 0.43612 0.0258 0.0
C1494 C 0.15809 0.44065 0.02543 0.0
N1495 N 0.23874 0.45417 0.02552 0.0
C1496 C 0.22478 0.44918 0.04441 0.0
C1497 C 0.24764 0.45279 0.06332 0.0
C1498 C 0.27567 0.46051 0.05605 0.0
C1499 C 0.2688 0.46113 0.03318 0.0
N1500 N 0.2726 0.46033 0.98244 0.0
C1501 C 0.29761 0.46697 0.99465 0.0
C1502 C 0.33267 0.47104 0.98263 0.0
C1503 C 0.32958 0.46667 0.96156 0.0
C1504 C 0.29239 0.4602 0.96185 0.0
N1505 N 0.18452 0.46522 0.99516 0.0
C1506 C 0.12537 0.4824 0.99705 0.0
C1507 C 0.12961 0.47546 0.01521 0.0
C1508 C 0.15907 0.46705 0.01396 0.0
C1509 C 0.15241 0.48062 0.97795 0.0
C1510 C 0.18188 0.47204 0.9774 0.0
N1511 N 0.25494 0.43929 0.99214 0.0
C1512 C 0.32154 0.42936 1.00006 0.0
C1513 C 0.3009 0.42019 0.9924 0.0
C1514 C 0.25726 0.42087 0.98412 0.0
C1515 C 0.23517 0.43046 0.98391 0.0
C1516 C 0.29787 0.4388 0.99997 0.0
H1517 H 0.20174 0.43067 0.97728 0.0
H1518 H 0.31408 0.44568 0.0065 0.0
H1519 H 0.1601 0.46186 0.02818 0.0
H1520 H 0.20197 0.47083 0.96248 0.0
C1521 C 0.12974 0.44429 0.96892 0.0
C1522 C 0.27613 0.45419 0.94238 0.0
C1523 C 0.18529 0.44239 0.04581 0.0
C1524 C 0.29379 0.46718 0.01817 0.0
H1525 H 0.21599 0.44849 0.9061 0.0
H1526 H 0.13384 0.44399 0.92034 0.0
H1527 H 0.06644 0.43448 0.99856 0.0
H1528 H 0.09925 0.43264 0.04014 0.0
H1529 H 0.2433 0.45036 0.08071 0.0
H1530 H 0.29878 0.46501 0.06618 0.0
H1531 H 0.35916 0.47601 0.98886 0.0
H1532 H 0.35279 0.46794 0.94785 0.0
H1533 H 0.10924 0.47629 0.03021 0.0
H1534 H 0.15094 0.4858 0.96352 0.0
H1535 H 0.35529 0.42918 0.00661 0.0
H1536 H 0.24029 0.41403 0.97767 0.0
C1537 C 0.53861 0.32173 0.94171 0.0
C1538 C 0.5641 0.32521 0.92363 0.0
C1539 C 0.60615 0.32715 0.93194 0.0
C1540 C 0.60407 0.3249 0.95462 0.0
N1541 N 0.56332 0.32166 0.961 0.0
Co1542 Co 0.54362 0.31896 0.99252 0.0
N1543 N 0.59438 0.3269 0.00555 0.0
C1544 C 0.63223 0.32935 0.99446 0.0
C1545 C 0.66276 0.33437 0.00791 0.0
C1546 C 0.64321 0.33495 0.02884 0.0
C1547 C 0.60156 0.33026 0.027 0.0
N1548 N 0.52245 0.31633 0.02376 0.0
C1549 C 0.53384 0.32105 0.04342 0.0
C1550 C 0.50918 0.317 0.0613 0.0
C1551 C 0.48303 0.30922 0.05262 0.0
C1552 C 0.49254 0.30902 0.02996 0.0
N1553 N 0.49368 0.31086 0.97946 0.0
C1554 C 0.46938 0.30357 0.99019 0.0
C1555 C 0.43747 0.29915 0.97655 0.0
C1556 C 0.44192 0.30402 0.95603 0.0
C1557 C 0.47617 0.31123 0.95842 0.0
N1558 N 0.58076 0.30623 0.99382 0.0
C1559 C 0.64265 0.28959 0.9952 0.0
C1560 C 0.63516 0.29594 0.0141 0.0
C1561 C 0.60448 0.30412 0.01307 0.0
C1562 C 0.61673 0.29152 0.97578 0.0
C1563 C 0.58598 0.29985 0.97546 0.0
N1564 N 0.50787 0.33179 0.9914 0.0
C1565 C 0.43916 0.34124 0.99732 0.0
C1566 C 0.45944 0.35065 0.99063 0.0
C1567 C 0.50454 0.35027 0.98431 0.0
C1568 C 0.5277 0.34085 0.98453 0.0
C1569 C 0.46398 0.33193 0.99772 0.0
H1570 H 0.56205 0.34096 0.97928 0.0
H1571 H 0.44771 0.32486 0.00317 0.0
H1572 H 0.60102 0.30889 0.02788 0.0
H1573 H 0.56725 0.30128 0.96017 0.0
C1574 C 0.6353 0.32802 0.97094 0.0
C1575 C 0.49174 0.31819 0.9404 0.0
C1576 C 0.57245 0.32803 0.04646 0.0
C1577 C 0.47049 0.30295 0.01376 0.0
H1578 H 0.55359 0.32649 0.90639 0.0
H1579 H 0.63393 0.33051 0.9228 0.0
H1580 H 0.69508 0.33739 0.00303 0.0
H1581 H 0.65833 0.33822 0.04385 0.0
H1582 H 0.51112 0.31917 0.07895 0.0
H1583 H 0.45947 0.30439 0.06171 0.0
H1584 H 0.41218 0.29354 0.9813 0.0
H1585 H 0.42179 0.30258 0.94116 0.0
H1586 H 0.65309 0.29466 0.02975 0.0
H1587 H 0.62103 0.28686 0.96069 0.0
H1588 H 0.40432 0.34098 0.00208 0.0
H1589 H 0.52256 0.35724 0.97952 0.0
C1590 C 0.22665 0.32159 0.80995 0.0
C1591 C 0.20131 0.32514 0.82801 0.0
C1592 C 0.1592 0.32706 0.81974 0.0
C1593 C 0.16111 0.32472 0.7971 0.0
N1594 N 0.2018 0.32145 0.7907 0.0
Co1595 Co 0.22123 0.31862 0.7592 0.0
N1596 N 0.17042 0.32652 0.74613 0.0
C1597 C 0.13265 0.32902 0.75724 0.0
C1598 C 0.10207 0.334 0.74375 0.0
C1599 C 0.12153 0.33452 0.72279 0.0
C1600 C 0.16318 0.32984 0.72464 0.0
N1601 N 0.24209 0.31585 0.72797 0.0
C1602 C 0.23069 0.32052 0.70826 0.0
C1603 C 0.25528 0.31641 0.69042 0.0
C1604 C 0.28134 0.30863 0.69918 0.0
C1605 C 0.27189 0.3085 0.72185 0.0
N1606 N 0.27124 0.31056 0.77231 0.0
C1607 C 0.29539 0.30321 0.76168 0.0
C1608 C 0.32739 0.29884 0.77533 0.0
C1609 C 0.32315 0.3038 0.79576 0.0
C1610 C 0.28894 0.311 0.79331 0.0
N1611 N 0.18406 0.30591 0.75824 0.0
C1612 C 0.12245 0.28923 0.75737 0.0
C1613 C 0.12941 0.29553 0.73836 0.0
C1614 C 0.16 0.30373 0.73913 0.0
C1615 C 0.14867 0.29123 0.77664 0.0
C1616 C 0.17926 0.29958 0.77672 0.0
N1617 N 0.25705 0.33143 0.75998 0.0
C1618 C 0.32575 0.3408 0.75366 0.0
C1619 C 0.3056 0.35026 0.76015 0.0
C1620 C 0.26059 0.34994 0.76663 0.0
C1621 C 0.23736 0.34052 0.76671 0.0
C1622 C 0.30087 0.33151 0.75355 0.0
H1623 H 0.20307 0.34067 0.77206 0.0
H1624 H 0.31703 0.32441 0.74822 0.0
H1625 H 0.16318 0.30847 0.72423 0.0
H1626 H 0.19825 0.30107 0.7919 0.0
C1627 C 0.12975 0.32778 0.78078 0.0
C1628 C 0.27351 0.31803 0.81125 0.0
C1629 C 0.19227 0.32756 0.70519 0.0
C1630 C 0.29404 0.30249 0.73812 0.0
H1631 H 0.21193 0.32648 0.8452 0.0
H1632 H 0.13149 0.33046 0.82887 0.0
H1633 H 0.0698 0.33705 0.74863 0.0
H1634 H 0.10633 0.33775 0.70775 0.0
H1635 H 0.25344 0.31856 0.67275 0.0
H1636 H 0.30489 0.30378 0.69014 0.0
H1637 H 0.35259 0.29319 0.77064 0.0
H1638 H 0.34339 0.30241 0.81062 0.0
H1639 H 0.11116 0.2942 0.72282 0.0
H1640 H 0.14474 0.2866 0.7918 0.0
H1641 H 0.36054 0.34051 0.7488 0.0
H1642 H 0.24269 0.35694 0.7713 0.0
C1643 C 0.53292 0.45052 0.80892 0.0
C1644 C 0.55772 0.44811 0.82801 0.0
C1645 C 0.60034 0.446 0.82068 0.0
C1646 C 0.59922 0.44726 0.79759 0.0
N1647 N 0.55862 0.45003 0.79005 0.0
Co1648 Co 0.54144 0.45219 0.75801 0.0
N1649 N 0.59393 0.44428 0.74675 0.0
C1650 C 0.63091 0.44214 0.75886 0.0
C1651 C 0.6629 0.43703 0.74648 0.0
C1652 C 0.64523 0.43605 0.72519 0.0
C1653 C 0.60321 0.44061 0.72574 0.0
N1654 N 0.52307 0.45429 0.72611 0.0
C1655 C 0.53656 0.44932 0.7071 0.0
C1656 C 0.51325 0.45296 0.68836 0.0
C1657 C 0.48563 0.46072 0.69583 0.0
C1658 C 0.49304 0.46131 0.71866 0.0
N1659 N 0.4895 0.46024 0.76938 0.0
C1660 C 0.46457 0.46698 0.75736 0.0
C1661 C 0.4296 0.47101 0.7695 0.0
C1662 C 0.43265 0.46651 0.79044 0.0
C1663 C 0.46977 0.46002 0.78998 0.0
N1664 N 0.57762 0.46506 0.75674 0.0
C1665 C 0.63773 0.48206 0.75569 0.0
C1666 C 0.63323 0.47531 0.73721 0.0
C1667 C 0.60325 0.46698 0.73803 0.0
C1668 C 0.6103 0.48022 0.77461 0.0
C1669 C 0.58037 0.47174 0.77474 0.0
N1670 N 0.50662 0.43924 0.75909 0.0
C1671 C 0.43964 0.42946 0.75118 0.0
C1672 C 0.46004 0.42024 0.75869 0.0
C1673 C 0.5038 0.4208 0.76684 0.0
C1674 C 0.52621 0.43034 0.7671 0.0
C1675 C 0.46362 0.43886 0.75134 0.0
H1676 H 0.55971 0.43047 0.77365 0.0
H1677 H 0.44757 0.44579 0.74497 0.0
H1678 H 0.60202 0.46191 0.7236 0.0
H1679 H 0.56008 0.47047 0.78957 0.0
C1680 C 0.63205 0.44395 0.78228 0.0
C1681 C 0.48601 0.4539 0.8093 0.0
C1682 C 0.57571 0.44242 0.7055 0.0
C1683 C 0.46827 0.46731 0.73385 0.0
H1684 H 0.54617 0.44788 0.84533 0.0
H1685 H 0.62814 0.44336 0.83086 0.0
H1686 H 0.69498 0.43423 0.75229 0.0
H1687 H 0.6618 0.43259 0.71076 0.0
H1688 H 0.51688 0.4505 0.67095 0.0
H1689 H 0.46226 0.46523 0.68587 0.0
H1690 H 0.40315 0.47603 0.76341 0.0
H1691 H 0.40942 0.46772 0.80417 0.0
H1692 H 0.65383 0.4762 0.7223 0.0
H1693 H 0.61188 0.48527 0.78924 0.0
H1694 H 0.40581 0.42936 0.74474 0.0
H1695 H 0.52059 0.41392 0.77317 0.0
H1696 H 0.218 0.05088 0.09004 0.0
H1697 H 0.0658 0.08396 0.17439 0.0
H1698 H 0.19025 0.08325 0.07687 0.0
H1699 H 0.04938 0.05097 0.16378 0.0
H1700 H 0.11834 0.08451 0.14225 0.0
H1701 H 0.16571 0.05135 0.12193 0.0
C1702 C 0.20126 0.05813 0.09414 0.0
C1703 C 0.20795 0.06701 0.08077 0.0
C1704 C 0.10303 0.07717 0.14692 0.0
C1705 C 0.14823 0.06765 0.11722 0.0
C1706 C 0.07301 0.07687 0.16513 0.0
C1707 C 0.05386 0.06738 0.17184 0.0
C1708 C 0.11433 0.06788 0.13565 0.0
C1709 C 0.064 0.05841 0.1593 0.0
C1710 C 0.17119 0.05838 0.11217 0.0
C1711 C 0.18574 0.07624 0.08679 0.0
N1712 N 0.09399 0.05884 0.14206 0.0
N1713 N 0.15674 0.07633 0.10459 0.0
H1714 H 0.21412 0.22036 0.16411 0.0
H1715 H 0.0655 0.18699 0.07832 0.0
H1716 H 0.1919 0.18758 0.17488 0.0
H1717 H 0.04809 0.21996 0.08876 0.0
H1718 H 0.11762 0.18653 0.11063 0.0
H1719 H 0.1615 0.21994 0.13235 0.0
C1720 C 0.19837 0.21305 0.15958 0.0
C1721 C 0.20677 0.20402 0.17225 0.0
C1722 C 0.10218 0.19384 0.10591 0.0
C1723 C 0.14674 0.20343 0.13583 0.0
C1724 C 0.07237 0.1941 0.08759 0.0
C1725 C 0.053 0.20355 0.08078 0.0
C1726 C 0.11304 0.20315 0.11724 0.0
C1727 C 0.06279 0.21254 0.09334 0.0
C1728 C 0.16815 0.21282 0.14158 0.0
C1729 C 0.18598 0.19471 0.16557 0.0
N1730 N 0.09253 0.21215 0.11072 0.0
N1731 N 0.15683 0.19464 0.14781 0.0
H1732 H 0.90351 0.94487 0.81077 0.0
H1733 H 0.85587 0.94501 0.94268 0.0
H1734 H 1.00175 0.95697 0.85704 0.0
H1735 H 0.7576 0.95708 0.89637 0.0
H1736 H 0.9101 0.94428 0.91146 0.0
H1737 H 0.84914 0.94425 0.84195 0.0
C1738 C 0.914 0.94714 0.82759 0.0
C1739 C 0.95789 0.95063 0.83135 0.0
C1740 C 0.87634 0.94689 0.90812 0.0
C1741 C 0.89588 0.94983 0.86714 0.0
C1742 C 0.84533 0.94725 0.92585 0.0
C1743 C 0.80148 0.95077 0.92209 0.0
C1744 C 0.86335 0.94985 0.88625 0.0
C1745 C 0.7901 0.95382 0.89997 0.0
C1746 C 0.88291 0.94684 0.84529 0.0
C1747 C 0.96921 0.95372 0.85345 0.0
N1748 N 0.82062 0.95319 0.88288 0.0
N1749 N 0.93863 0.95315 0.87052 0.0
H1750 H 0.79726 0.80079 0.83679 0.0
H1751 H 0.94426 0.83393 0.92408 0.0
H1752 H 0.81659 0.8338 0.82806 0.0
H1753 H 0.96134 0.80097 0.9134 0.0
H1754 H 0.89238 0.83448 0.89166 0.0
H1755 H 0.85001 0.80103 0.8685 0.0
C1756 C 0.81254 0.8081 0.84168 0.0
C1757 C 0.80323 0.81725 0.82957 0.0
C1758 C 0.90766 0.82714 0.89636 0.0
C1759 C 0.86334 0.81765 0.86609 0.0
C1760 C 0.93734 0.82684 0.91476 0.0
C1761 C 0.9566 0.81736 0.92155 0.0
C1762 C 0.89682 0.81787 0.88487 0.0
C1763 C 0.94673 0.8084 0.90888 0.0
C1764 C 0.84278 0.80824 0.8597 0.0
C1765 C 0.82326 0.82657 0.83686 0.0
N1766 N 0.91717 0.80884 0.89141 0.0
N1767 N 0.85244 0.82654 0.85463 0.0
H1768 H 0.21768 0.55054 0.5894 0.0
H1769 H 0.06883 0.58348 0.67578 0.0
H1770 H 0.19442 0.5833 0.57878 0.0
H1771 H 0.05069 0.55062 0.6642 0.0
H1772 H 0.1211 0.58411 0.64354 0.0
H1773 H 0.16519 0.55086 0.62122 0.0
C1774 C 0.20177 0.55783 0.59399 0.0
C1775 C 0.20982 0.56688 0.58134 0.0
C1776 C 0.10548 0.57678 0.64801 0.0
C1777 C 0.14993 0.56734 0.61781 0.0
C1778 C 0.07559 0.57644 0.66629 0.0
C1779 C 0.05599 0.56696 0.67276 0.0
C1780 C 0.11619 0.56754 0.63639 0.0
C1781 C 0.06562 0.55805 0.65991 0.0
C1782 C 0.17162 0.558 0.61201 0.0
C1783 C 0.18879 0.57615 0.58809 0.0
N1784 N 0.09545 0.55852 0.64259 0.0
N1785 N 0.15972 0.57616 0.60587 0.0
H1786 H 0.04614 0.71981 0.58957 0.0
H1787 H 0.19534 0.68647 0.67523 0.0
H1788 H 0.06943 0.68709 0.57847 0.0
H1789 H 0.21208 0.71947 0.66496 0.0
H1790 H 0.14313 0.686 0.64295 0.0
H1791 H 0.09842 0.71938 0.62148 0.0
C1792 C 0.062 0.71251 0.59408 0.0
C1793 C 0.054 0.7035 0.58128 0.0
C1794 C 0.15842 0.69333 0.64772 0.0
C1795 C 0.11371 0.70291 0.61783 0.0
C1796 C 0.18827 0.69359 0.66602 0.0
C1797 C 0.20746 0.70305 0.67287 0.0
C1798 C 0.14735 0.70264 0.63644 0.0
C1799 C 0.19747 0.71205 0.66037 0.0
C1800 C 0.09204 0.71227 0.61215 0.0
C1801 C 0.075 0.6942 0.5879 0.0
N1802 N 0.1677 0.71165 0.64301 0.0
N1803 N 0.104 0.69413 0.60572 0.0
H1804 H 0.97049 0.47002 0.33974 0.0
H1805 H 0.81727 0.43716 0.42457 0.0
H1806 H 0.94341 0.4375 0.32806 0.0
H1807 H 0.8056 0.47036 0.41572 0.0
H1808 H 0.86963 0.43655 0.39238 0.0
H1809 H 0.91861 0.46978 0.37181 0.0
C1810 C 0.95388 0.4628 0.34415 0.0
C1811 C 0.96072 0.4538 0.33116 0.0
C1812 C 0.85551 0.44396 0.39748 0.0
C1813 C 0.90145 0.45342 0.36789 0.0
C1814 C 0.82562 0.4443 0.41574 0.0
C1815 C 0.80783 0.45385 0.42299 0.0
C1816 C 0.86798 0.45327 0.38659 0.0
C1817 C 0.81929 0.46287 0.41091 0.0
C1818 C 0.92407 0.46267 0.36233 0.0
C1819 C 0.93875 0.44461 0.33765 0.0
N1820 N 0.84902 0.46239 0.39355 0.0
N1821 N 0.91 0.44464 0.35556 0.0
H1822 H 0.81565 0.33421 0.3288 0.0
H1823 H 0.95924 0.30027 0.41604 0.0
H1824 H 0.79577 0.30132 0.33924 0.0
H1825 H 0.94341 0.3334 0.42458 0.0
H1826 H 0.90655 0.30078 0.38433 0.0
H1827 H 0.8675 0.33447 0.36123 0.0
C1828 C 0.82196 0.32707 0.33808 0.0
C1829 C 0.80193 0.3177 0.33125 0.0
C1830 C 0.91452 0.30796 0.39309 0.0
C1831 C 0.8616 0.31787 0.36791 0.0
C1832 C 0.94472 0.30766 0.41111 0.0
C1833 C 0.95496 0.31677 0.42314 0.0
C1834 C 0.89498 0.31748 0.38667 0.0
C1835 C 0.93595 0.32619 0.41582 0.0
C1836 C 0.85161 0.32721 0.35648 0.0
C1837 C 0.81099 0.30867 0.34384 0.0
N1838 N 0.90678 0.32631 0.39807 0.0
N1839 N 0.84052 0.30895 0.36132 0.0
H1840 H 0.69577 0.08357 0.57726 0.0
H1841 H 0.55244 0.04969 0.66429 0.0
H1842 H 0.71845 0.05087 0.58895 0.0
H1843 H 0.56693 0.08288 0.67237 0.0
H1844 H 0.6063 0.05017 0.63309 0.0
H1845 H 0.64353 0.08383 0.60948 0.0
C1846 C 0.69004 0.07649 0.58681 0.0
C1847 C 0.71092 0.06716 0.58042 0.0
C1848 C 0.59775 0.05736 0.64165 0.0
C1849 C 0.65087 0.06732 0.61676 0.0
C1850 C 0.5669 0.05708 0.65935 0.0
C1851 C 0.55589 0.06623 0.67106 0.0
C1852 C 0.61712 0.0669 0.63525 0.0
C1853 C 0.57494 0.07565 0.66382 0.0
C1854 C 0.66019 0.07662 0.60507 0.0
C1855 C 0.70259 0.05818 0.59327 0.0
N1856 N 0.60469 0.07576 0.64636 0.0
N1857 N 0.6728 0.05845 0.61061 0.0
H1858 H 0.54086 0.22003 0.5902 0.0
H1859 H 0.69497 0.18757 0.67546 0.0
H1860 H 0.5686 0.1875 0.57908 0.0
H1861 H 0.70535 0.22079 0.66641 0.0
H1862 H 0.64252 0.18682 0.64332 0.0
H1863 H 0.5926 0.21995 0.62235 0.0
C1864 C 0.55758 0.21284 0.59476 0.0
C1865 C 0.55096 0.20379 0.58191 0.0
C1866 C 0.65635 0.19427 0.64837 0.0
C1867 C 0.61009 0.20359 0.61871 0.0
C1868 C 0.6863 0.19469 0.66661 0.0
C1869 C 0.70376 0.20428 0.67379 0.0
C1870 C 0.64352 0.20354 0.63743 0.0
C1871 C 0.69191 0.21327 0.66167 0.0
C1872 C 0.58731 0.2128 0.61298 0.0
C1873 C 0.57307 0.19464 0.58857 0.0
N1874 N 0.66216 0.2127 0.64433 0.0
N1875 N 0.60176 0.19476 0.60651 0.0
H1876 H 0.29978 0.96963 0.41617 0.0
H1877 H 0.44746 0.93641 0.32904 0.0
H1878 H 0.31955 0.93663 0.42492 0.0
H1879 H 0.46241 0.96949 0.33868 0.0
H1880 H 0.39551 0.9359 0.36142 0.0
H1881 H 0.35203 0.96939 0.38425 0.0
C1882 C 0.31504 0.96232 0.41124 0.0
C1883 C 0.30596 0.95317 0.42343 0.0
C1884 C 0.41024 0.94326 0.35647 0.0
C1885 C 0.36558 0.95279 0.38664 0.0
C1886 C 0.43995 0.94354 0.33807 0.0
C1887 C 0.45864 0.95303 0.33096 0.0
C1888 C 0.39884 0.95257 0.36771 0.0
C1889 C 0.44811 0.96204 0.34334 0.0
C1890 C 0.34502 0.96218 0.39309 0.0
C1891 C 0.32602 0.94387 0.41608 0.0
N1892 N 0.4186 0.96161 0.36085 0.0
N1893 N 0.35493 0.9439 0.3982 0.0
H1894 H 0.44658 0.83406 0.42616 0.0
H1895 H 0.2966 0.80076 0.34039 0.0
H1896 H 0.46105 0.80095 0.41682 0.0
H1897 H 0.32007 0.8335 0.32966 0.0
H1898 H 0.34839 0.80112 0.37251 0.0
H1899 H 0.39414 0.83453 0.39397 0.0
C1900 C 0.43882 0.82691 0.41725 0.0
C1901 C 0.45747 0.81742 0.42439 0.0
C1902 C 0.34217 0.80825 0.36323 0.0
C1903 C 0.39717 0.81784 0.38791 0.0
C1904 C 0.31241 0.80805 0.345 0.0
C1905 C 0.30457 0.81708 0.33223 0.0
C1906 C 0.36375 0.8176 0.36911 0.0
C1907 C 0.3255 0.82636 0.33904 0.0
C1908 C 0.40885 0.82717 0.39897 0.0
C1909 C 0.4467 0.80839 0.41215 0.0
N1910 N 0.35422 0.82639 0.357 0.0
N1911 N 0.41692 0.8088 0.39477 0.0
H1912 H 0.69796 0.58401 0.07939 0.0
H1913 H 0.55073 0.55061 0.16608 0.0
H1914 H 0.71316 0.55091 0.08876 0.0
H1915 H 0.57058 0.58358 0.17519 0.0
H1916 H 0.60294 0.55091 0.13416 0.0
H1917 H 0.64617 0.58445 0.11181 0.0
C1918 C 0.69056 0.57686 0.08841 0.0
C1919 C 0.70922 0.56739 0.08126 0.0
C1920 C 0.59592 0.5581 0.14308 0.0
C1921 C 0.6497 0.56777 0.11795 0.0
C1922 C 0.56599 0.55793 0.1612 0.0
C1923 C 0.55701 0.56705 0.17344 0.0
C1924 C 0.6165 0.56752 0.13678 0.0
C1925 C 0.57703 0.57637 0.16625 0.0
C1926 C 0.66097 0.57711 0.10681 0.0
C1927 C 0.69889 0.55835 0.09355 0.0
N1928 N 0.60593 0.57638 0.1484 0.0
N1929 N 0.66947 0.55874 0.11106 0.0
H1930 H 0.69608 0.68762 0.17503 0.0
H1931 H 0.54787 0.7208 0.08829 0.0
H1932 H 0.70968 0.72077 0.16599 0.0
H1933 H 0.56936 0.68789 0.07903 0.0
H1934 H 0.59966 0.72058 0.1204 0.0
H1935 H 0.64433 0.68711 0.14259 0.0
C1936 C 0.6883 0.69477 0.1661 0.0
C1937 C 0.70649 0.70427 0.17335 0.0
C1938 C 0.59309 0.71339 0.11141 0.0
C1939 C 0.64706 0.70381 0.13662 0.0
C1940 C 0.56339 0.71351 0.09318 0.0
C1941 C 0.55501 0.70439 0.08084 0.0
C1942 C 0.61402 0.70401 0.11771 0.0
C1943 C 0.57535 0.6951 0.08804 0.0
C1944 C 0.65874 0.69449 0.14769 0.0
C1945 C 0.69573 0.71331 0.16115 0.0
N1946 N 0.60402 0.69514 0.10599 0.0
N1947 N 0.66637 0.71288 0.14361 0.0
H1948 H 0.44537 0.43667 0.82748 0.0
H1949 H 0.2965 0.47 0.91318 0.0
H1950 H 0.46406 0.46954 0.83872 0.0
H1951 H 0.31817 0.43719 0.92389 0.0
H1952 H 0.34945 0.46957 0.88157 0.0
H1953 H 0.39273 0.43618 0.85958 0.0
C1954 C 0.43867 0.44374 0.83688 0.0
C1955 C 0.45856 0.45318 0.83036 0.0
C1956 C 0.34258 0.46244 0.89075 0.0
C1957 C 0.39792 0.45276 0.86656 0.0
C1958 C 0.31217 0.46268 0.90866 0.0
C1959 C 0.30352 0.45365 0.92128 0.0
C1960 C 0.36395 0.45305 0.88503 0.0
C1961 C 0.32425 0.44433 0.91461 0.0
C1962 C 0.40857 0.44348 0.85508 0.0
C1963 C 0.44897 0.46214 0.84308 0.0
N1964 N 0.3536 0.44425 0.89694 0.0
N1965 N 0.41893 0.46174 0.86031 0.0
H1966 H 0.35755 0.32605 0.80995 0.0
H1967 H 0.40779 0.32626 0.94153 0.0
H1968 H 0.26089 0.31375 0.85683 0.0
H1969 H 0.50444 0.31378 0.89487 0.0
H1970 H 0.35321 0.32724 0.91052 0.0
H1971 H 0.41218 0.32712 0.84093 0.0
C1972 C 0.34741 0.32386 0.82687 0.0
C1973 C 0.30399 0.32013 0.83087 0.0
C1974 C 0.38674 0.32452 0.90705 0.0
C1975 C 0.36622 0.32143 0.86636 0.0
C1976 C 0.41794 0.32401 0.92464 0.0
C1977 C 0.46134 0.32025 0.92072 0.0
C1978 C 0.39917 0.32146 0.88519 0.0
C1979 C 0.4723 0.31721 0.89856 0.0
C1980 C 0.37864 0.32441 0.84445 0.0
C1981 C 0.29305 0.31716 0.85308 0.0
N1982 N 0.44157 0.31796 0.88161 0.0
N1983 N 0.32381 0.31795 0.87001 0.0
H1984 H 0.46606 0.03883 0.98295 0.0
H1985 H 0.53115 0.97985 0.01386 0.0
H1986 H 0.38145 0.01838 0.02194 0.0
H1987 H 0.61732 1.00037 0.97595 0.0
H1988 H 0.47616 0.99379 0.01663 0.0
H1989 H 0.52113 0.02488 0.97991 0.0
C1990 C 0.45875 0.03139 0.9908 0.0
C1991 C 0.41841 0.02983 0.00256 0.0
C1992 C 0.50704 0.99527 0.00769 0.0
C1993 C 0.48244 0.01373 0.99935 0.0
C1994 C 0.53881 0.9873 0.00618 0.0
C1995 C 0.57961 0.98889 0.99486 0.0
C1996 C 0.51559 1.005 0.99773 0.0
C1997 C 0.58651 0.99869 0.98476 0.0
C1998 C 0.49056 0.02343 0.98914 0.0
C1999 C 0.41192 0.02004 0.01281 0.0
N2000 N 0.55501 1.00635 0.98651 0.0
N2001 N 0.4434 0.0124 0.0109 0.0
H2002 H 0.72455 0.29009 0.01642 0.0
H2003 H 0.79211 0.23144 0.98394 0.0
H2004 H 0.64174 0.26991 0.97579 0.0
H2005 H 0.87686 0.25191 0.0228 0.0
H2006 H 0.7369 0.24534 0.98105 0.0
H2007 H 0.77997 0.27621 0.0192 0.0
C2008 C 0.71772 0.28273 0.00815 0.0
C2009 C 0.67777 0.28122 0.99601 0.0
C2010 C 0.76755 0.24681 0.99021 0.0
C2011 C 0.74221 0.26519 0.99894 0.0
C2012 C 0.79946 0.23887 0.99177 0.0
C2013 C 0.83991 0.24045 0.00344 0.0
C2014 C 0.77558 0.2565 1.00046 0.0
C2015 C 0.84634 0.25023 0.01374 0.0
C2016 C 0.74973 0.2748 0.00966 0.0
C2017 C 0.67189 0.27153 0.98523 0.0
N2018 N 0.81471 0.25785 0.01195 0.0
N2019 N 0.70355 0.26391 0.98702 0.0
H2020 H 0.43762 0.24052 0.21266 0.0
H2021 H 0.57069 0.28128 0.29122 0.0
H2022 H 0.41129 0.24472 0.28381 0.0
H2023 H 0.59719 0.27698 0.22012 0.0
H2024 H 0.51309 0.26776 0.28898 0.0
H2025 H 0.49521 0.25402 0.21494 0.0
C2026 C 0.44351 0.24431 0.22873 0.0
C2027 C 0.41928 0.24135 0.24807 0.0
C2028 C 0.53153 0.26978 0.27386 0.0
C2029 C 0.48626 0.25682 0.25089 0.0
C2030 C 0.56483 0.27746 0.27517 0.0
C2031 C 0.5891 0.2804 0.25583 0.0
C2032 C 0.52214 0.26492 0.25306 0.0
C2033 C 0.5791 0.27519 0.23546 0.0
C2034 C 0.47682 0.25199 0.23006 0.0
C2035 C 0.42934 0.24653 0.26847 0.0
N2036 N 0.54654 0.26777 0.23462 0.0
N2037 N 0.46191 0.25395 0.26932 0.0
H2038 H 0.66439 0.99377 0.22065 0.0
H2039 H 0.85337 0.02665 0.28523 0.0
H2040 H 0.69377 0.99005 0.2916 0.0
H2041 H 0.8226 0.03052 0.21445 0.0
H2042 H 0.79554 0.0133 0.28786 0.0
H2043 H 0.72182 1.00721 0.21822 0.0
C2044 C 0.6829 0.99575 0.23578 0.0
C2045 C 0.67414 0.99062 0.25637 0.0
C2046 C 0.80143 0.01704 0.27173 0.0
C2047 C 0.74036 1.00624 0.25365 0.0
C2048 C 0.83447 0.02474 0.27019 0.0
C2049 C 0.84305 0.02986 0.24958 0.0
C2050 C 0.77642 0.01434 0.25253 0.0
C2051 C 0.81777 0.02678 0.23067 0.0
C2052 C 0.71572 1.00349 0.23436 0.0
C2053 C 0.69887 0.99378 0.2754 0.0
N2054 N 0.78566 0.01928 0.23263 0.0
N2055 N 0.73086 1.00132 0.27355 0.0
H2056 H 0.32224 0.74009 0.04042 0.0
H2057 H 0.18769 0.78044 0.96146 0.0
H2058 H 0.34654 0.74369 0.96893 0.0
H2059 H 0.16092 0.77608 0.03253 0.0
H2060 H 0.24544 0.76696 0.96374 0.0
H2061 H 0.26438 0.75352 0.03799 0.0
C2062 C 0.31583 0.74374 0.02424 0.0
C2063 C 0.33958 0.74063 0.00486 0.0
C2064 C 0.2269 0.76895 0.97884 0.0
C2065 C 0.27232 0.75603 0.00188 0.0
C2066 C 0.19351 0.77661 0.97751 0.0
C2067 C 0.16914 0.77953 0.99684 0.0
C2068 C 0.2363 0.7641 0.99966 0.0
C2069 C 0.1791 0.77431 0.0172 0.0
C2070 C 0.28238 0.75138 0.02283 0.0
C2071 C 0.32889 0.74563 0.98432 0.0
N2072 N 0.21177 0.76692 0.01806 0.0
N2073 N 0.29621 0.75302 0.98339 0.0
H2074 H 0.57052 0.78057 0.79187 0.0
H2075 H 0.43666 0.74 0.71325 0.0
H2076 H 0.59347 0.77708 0.72025 0.0
H2077 H 0.41114 0.74401 0.78453 0.0
H2078 H 0.49384 0.75359 0.71546 0.0
H2079 H 0.51355 0.7669 0.78975 0.0
C2080 C 0.564 0.77689 0.77573 0.0
C2081 C 0.58701 0.7801 0.75621 0.0
C2082 C 0.47571 0.75149 0.73063 0.0
C2083 C 0.52088 0.76445 0.75358 0.0
C2084 C 0.44264 0.74377 0.72934 0.0
C2085 C 0.41876 0.74073 0.74873 0.0
C2086 C 0.4853 0.75629 0.75147 0.0
C2087 C 0.42894 0.74588 0.76915 0.0
C2088 C 0.53108 0.76913 0.77449 0.0
C2089 C 0.57631 0.77506 0.73573 0.0
N2090 N 0.46131 0.75334 0.76997 0.0
N2091 N 0.54416 0.76756 0.73497 0.0
H2092 H 0.16233 0.99342 0.72339 0.0
H2093 H 0.34903 0.02814 0.7853 0.0
H2094 H 0.19607 0.98941 0.79376 0.0
H2095 H 0.31918 0.02961 0.71398 0.0
H2096 H 0.29298 0.01433 0.78941 0.0
H2097 H 0.21801 1.00716 0.72054 0.0
C2098 C 0.1815 0.99539 0.73831 0.0
C2099 C 0.17454 0.99007 0.75881 0.0
C2100 C 0.29874 0.01769 0.77288 0.0
C2101 C 0.23881 1.0061 0.75567 0.0
C2102 C 0.33107 0.02555 0.77045 0.0
C2103 C 0.3391 0.03018 0.74924 0.0
C2104 C 0.27399 0.01439 0.75399 0.0
C2105 C 0.31396 0.0265 0.73077 0.0
C2106 C 0.21335 1.00332 0.73666 0.0
C2107 C 0.19993 0.99327 0.77762 0.0
N2108 N 0.28275 0.0189 0.7336 0.0
N2109 N 0.231 1.00102 0.77557 0.0
H2110 H 0.60015 0.49378 0.53442 0.0
H2111 H 0.41202 0.5264 0.46852 0.0
H2112 H 0.57349 0.49029 0.46314 0.0
H2113 H 0.44083 0.5304 0.53947 0.0
H2114 H 0.47035 0.51316 0.46635 0.0
H2115 H 0.54199 0.50707 0.53656 0.0
C2116 C 0.5821 0.49577 0.51917 0.0
C2117 C 0.59191 0.49077 0.49856 0.0
C2118 C 0.46392 0.51691 0.48242 0.0
C2119 C 0.52486 0.50622 0.50094 0.0
C2120 C 0.43059 0.52455 0.48369 0.0
C2121 C 0.42129 0.52968 0.50422 0.0
C2122 C 0.4885 0.51426 0.5018 0.0
C2123 C 0.4462 0.52666 0.52331 0.0
C2124 C 0.54887 0.50343 0.52042 0.0
C2125 C 0.56765 0.49393 0.47937 0.0
N2126 N 0.47858 0.51921 0.52162 0.0
N2127 N 0.53529 0.50139 0.48105 0.0
H2128 H 0.66715 0.77728 0.53392 0.0
H2129 H 0.85419 0.74438 0.46797 0.0
H2130 H 0.69365 0.78077 0.46262 0.0
H2131 H 0.82495 0.74037 0.53888 0.0
H2132 H 0.79619 0.75771 0.46577 0.0
H2133 H 0.72472 0.76385 0.53597 0.0
C2134 C 0.68506 0.77525 0.51864 0.0
C2135 C 0.67543 0.78031 0.49806 0.0
C2136 C 0.80247 0.75394 0.48183 0.0
C2137 C 0.74179 0.7647 0.50034 0.0
C2138 C 0.8356 0.74625 0.48313 0.0
C2139 C 0.84467 0.74109 0.50365 0.0
C2140 C 0.77789 0.7566 0.5012 0.0
C2141 C 0.81976 0.74413 0.52272 0.0
C2142 C 0.71795 0.76752 0.51984 0.0
C2143 C 0.69942 0.77709 0.47883 0.0
N2144 N 0.78758 0.75163 0.521 0.0
N2145 N 0.73149 0.76956 0.48047 0.0
H2146 H 0.82414 0.53052 0.71275 0.0
H2147 H 0.69045 0.48957 0.79048 0.0
H2148 H 0.85139 0.52573 0.78364 0.0
H2149 H 0.66338 0.49432 0.71955 0.0
H2150 H 0.74857 0.50296 0.78845 0.0
H2151 H 0.76602 0.51714 0.71478 0.0
C2152 C 0.81833 0.52662 0.7287 0.0
C2153 C 0.84297 0.52938 0.74805 0.0
C2154 C 0.72989 0.50107 0.77332 0.0
C2155 C 0.77542 0.51405 0.75059 0.0
C2156 C 0.6963 0.49347 0.77451 0.0
C2157 C 0.67171 0.4907 0.75516 0.0
C2158 C 0.73926 0.50602 0.75262 0.0
C2159 C 0.6817 0.49599 0.73489 0.0
C2160 C 0.78474 0.51902 0.7299 0.0
C2161 C 0.83303 0.52407 0.76831 0.0
N2162 N 0.71455 0.50334 0.73417 0.0
N2163 N 0.80017 0.51673 0.76903 0.0
H2164 H 0.16216 0.27684 0.53435 0.0
H2165 H 0.34996 0.24406 0.46863 0.0
H2166 H 0.1888 0.28026 0.46306 0.0
H2167 H 0.32071 0.24005 0.53953 0.0
H2168 H 0.29178 0.25734 0.46638 0.0
H2169 H 0.22006 0.26349 0.53653 0.0
C2170 C 0.18015 0.27482 0.5191 0.0
C2171 C 0.17042 0.27982 0.49848 0.0
C2172 C 0.29808 0.25358 0.48246 0.0
C2173 C 0.23719 0.26431 0.50091 0.0
C2174 C 0.33132 0.24592 0.48378 0.0
C2175 C 0.34045 0.24077 0.50431 0.0
C2176 C 0.27343 0.25624 0.50181 0.0
C2177 C 0.31547 0.24381 0.52337 0.0
C2178 C 0.21324 0.26712 0.52038 0.0
C2179 C 0.19459 0.27662 0.4793 0.0
N2180 N 0.28319 0.25128 0.52163 0.0
N2181 N 0.22683 0.26913 0.481 0.0
H2182 H 0.19037 0.49024 0.29078 0.0
H2183 H 0.32496 0.53083 0.21249 0.0
H2184 H 0.16472 0.49448 0.21956 0.0
H2185 H 0.34808 0.52721 0.28407 0.0
H2186 H 0.26758 0.51726 0.21456 0.0
H2187 H 0.2478 0.50378 0.2887 0.0
C2188 C 0.19638 0.49405 0.27473 0.0
C2189 C 0.17236 0.49108 0.25532 0.0
C2190 C 0.28522 0.51944 0.22983 0.0
C2191 C 0.23921 0.5066 0.25274 0.0
C2192 C 0.3184 0.52715 0.22862 0.0
C2193 C 0.34166 0.53029 0.24813 0.0
C2194 C 0.27497 0.51474 0.2507 0.0
C2195 C 0.33079 0.52525 0.26859 0.0
C2196 C 0.2296 0.50175 0.27352 0.0
C2197 C 0.18261 0.49628 0.23496 0.0
N2198 N 0.2984 0.51779 0.26932 0.0
N2199 N 0.21511 0.50372 0.23422 0.0
H2200 H 0.0729 0.98991 0.46073 0.0
H2201 H 0.93988 0.03063 0.53935 0.0
H2202 H 0.09711 0.99372 0.53217 0.0
H2203 H 0.91398 0.02666 0.46809 0.0
H2204 H 0.99706 0.01706 0.53704 0.0
H2205 H 0.01593 1.0036 0.46282 0.0
C2206 C 0.06666 0.99366 0.47682 0.0
C2207 C 0.09 0.99053 0.49631 0.0
C2208 C 0.97886 0.01915 0.52189 0.0
C2209 C 0.02391 1.0062 0.4989 0.0
C2210 C 0.94578 0.02687 0.52324 0.0
C2211 C 0.92177 0.02991 0.50389 0.0
C2212 C 0.98833 0.01436 0.50103 0.0
C2213 C 0.93187 0.02478 0.48344 0.0
C2214 C 0.03375 1.00144 0.47804 0.0
C2215 C 0.07968 0.99567 0.51672 0.0
N2216 N 0.96424 0.01732 0.48257 0.0
N2217 N 0.04753 1.00318 0.51746 0.0
H2218 H 0.88349 0.25229 0.73027 0.0
H2219 H 0.12491 0.26959 0.77676 0.0
H2220 H 0.97214 0.23174 0.76669 0.0
H2221 H 0.03991 0.28954 0.73678 0.0
H2222 H 0.06829 0.25584 0.77436 0.0
H2223 H 0.93994 0.26605 0.7327 0.0
C2224 C 0.91477 0.25061 0.73868 0.0
C2225 C 0.92249 0.24077 0.74843 0.0
C2226 C 0.06207 0.26323 0.76608 0.0
C2227 C 0.98748 0.25666 0.75157 0.0
C2228 C 0.09434 0.27113 0.76758 0.0
C2229 C 0.08766 0.28079 0.75684 0.0
C2230 C 0.02247 0.26495 0.75381 0.0
C2231 C 0.04725 0.28221 0.74501 0.0
C2232 C 0.94698 0.25853 0.7402 0.0
C2233 C 0.96385 0.23921 0.75931 0.0
N2234 N 0.01642 0.27442 0.74381 0.0
N2235 N 0.9945 0.24703 0.76062 0.0
H2236 H 0.10297 0.77625 0.21969 0.0
H2237 H 0.91343 0.74405 0.28548 0.0
H2238 H 0.0732 0.78063 0.29043 0.0
H2239 H 0.94039 0.74047 0.21425 0.0
H2240 H 0.97188 0.75728 0.28765 0.0
H2241 H 0.04438 0.76308 0.21757 0.0
C2242 C 0.08414 0.7745 0.23483 0.0
C2243 C 0.09324 0.77972 0.25527 0.0
C2244 C 0.965 0.75363 0.27152 0.0
C2245 C 0.02571 0.76437 0.25292 0.0
C2246 C 0.9316 0.746 0.27024 0.0
C2247 C 0.92177 0.74099 0.24964 0.0
C2248 C 0.98917 0.75637 0.25206 0.0
C2249 C 0.94621 0.74412 0.23047 0.0
C2250 C 0.05065 0.7669 0.23359 0.0
C2251 C 0.06799 0.77682 0.27433 0.0
N2252 N 0.97873 0.75154 0.23218 0.0
N2253 N 0.03545 0.7694 0.27267 0.0
H2254 H 0.10184 0.4944 0.0339 0.0
H2255 H 0.91359 0.52732 0.96877 0.0
H2256 H 0.07237 0.49057 0.96298 0.0
H2257 H 0.94164 0.53079 0.03992 0.0
H2258 H 0.97147 0.51397 0.96636 0.0
H2259 H 0.04393 0.50774 0.0363 0.0
C2260 C 0.08322 0.49632 0.01878 0.0
C2261 C 0.09218 0.4912 0.9982 0.0
C2262 C 0.96496 0.51762 0.98253 0.0
C2263 C 0.02544 0.50672 1.00087 0.0
C2264 C 0.93189 0.52531 0.98394 0.0
C2265 C 0.92254 0.53033 0.00459 0.0
C2266 C 0.98927 0.51481 0.0019 0.0
C2267 C 0.9471 0.52714 0.02367 0.0
C2268 C 0.05012 0.50401 0.02018 0.0
C2269 C 0.06723 0.4943 0.97918 0.0
N2270 N 0.97929 0.51964 0.02183 0.0
N2271 N 0.03506 0.50179 0.981 0.0
H2272 H 0.31269 0.09475 0.92616 0.0
H2273 H 0.38285 0.06093 0.81917 0.0
H2274 H 0.36077 0.06316 0.93026 0.0
H2275 H 0.40516 0.0941 0.81924 0.0
H2276 H 0.3583 0.06195 0.85859 0.0
H2277 H 0.33436 0.09518 0.88583 0.0
C2278 C 0.32847 0.088 0.91861 0.0
C2279 C 0.33521 0.07892 0.93133 0.0
C2280 C 0.36808 0.06904 0.84993 0.0
C2281 C 0.35827 0.0792 0.88561 0.0
C2282 C 0.38153 0.06846 0.82744 0.0
C2283 C 0.39592 0.07744 0.81615 0.0
C2284 C 0.36855 0.07869 0.86115 0.0
C2285 C 0.39404 0.08703 0.82751 0.0
C2286 C 0.3405 0.08821 0.8957 0.0
C2287 C 0.35526 0.0703 0.92091 0.0
N2288 N 0.38072 0.08742 0.84953 0.0
N2289 N 0.36555 0.07061 0.8986 0.0
H2290 H 0.89822 0.20753 0.93115 0.0
H2291 H 0.82709 0.17476 0.82358 0.0
H2292 H 0.93031 0.17482 0.92874 0.0
H2293 H 0.87317 0.20653 0.82008 0.0
H2294 H 0.8534 0.17387 0.86319 0.0
H2295 H 0.87358 0.20671 0.89179 0.0
C2296 C 0.89943 0.20014 0.92232 0.0
C2297 C 0.91658 0.19125 0.93298 0.0
C2298 C 0.85817 0.18096 0.85357 0.0
C2299 C 0.88847 0.19023 0.88802 0.0
C2300 C 0.84344 0.18145 0.83107 0.0
C2301 C 0.84812 0.19072 0.81875 0.0
C2302 C 0.87654 0.1899 0.86371 0.0
C2303 C 0.86909 0.19924 0.8291 0.0
C2304 C 0.88577 0.19968 0.89986 0.0
C2305 C 0.91738 0.18183 0.92094 0.0
N2306 N 0.8819 0.19868 0.85106 0.0
N2307 N 0.9035 0.18154 0.89896 0.0
H2308 H 0.42956 0.17475 0.42979 0.0
H2309 H 0.36837 0.20773 0.32032 0.0
H2310 H 0.39866 0.20754 0.43107 0.0
H2311 H 0.32834 0.17554 0.32464 0.0
H2312 H 0.39416 0.20698 0.35951 0.0
H2313 H 0.40334 0.17399 0.39015 0.0
C2314 C 0.41679 0.18173 0.42176 0.0
C2315 C 0.41645 0.19123 0.43347 0.0
C2316 C 0.38 0.20004 0.35189 0.0
C2317 C 0.38785 0.19051 0.3885 0.0
C2318 C 0.36568 0.20046 0.32953 0.0
C2319 C 0.34609 0.1917 0.31945 0.0
C2320 C 0.37533 0.19076 0.36424 0.0
C2321 C 0.34328 0.18244 0.33198 0.0
C2322 C 0.40205 0.18131 0.39925 0.0
C2323 C 0.39966 0.20009 0.42249 0.0
N2324 N 0.35775 0.18219 0.35385 0.0
N2325 N 0.38665 0.19954 0.40056 0.0
H2326 H 0.86949 0.06362 0.43209 0.0
H2327 H 0.93125 0.09643 0.32272 0.0
H2328 H 0.82951 0.09582 0.42781 0.0
H2329 H 0.89799 0.06376 0.32131 0.0
H2330 H 0.90502 0.09726 0.36234 0.0
H2331 H 0.89491 0.06436 0.39286 0.0
C2332 C 0.86673 0.07089 0.42287 0.0
C2333 C 0.84725 0.07965 0.43296 0.0
C2334 C 0.90318 0.08996 0.3532 0.0
C2335 C 0.87607 0.08057 0.38816 0.0
C2336 C 0.91791 0.0895 0.33071 0.0
C2337 C 0.91689 0.08 0.31899 0.0
C2338 C 0.88836 0.08081 0.36391 0.0
C2339 C 0.89945 0.07121 0.32991 0.0
C2340 C 0.88083 0.07129 0.40049 0.0
C2341 C 0.84435 0.08891 0.42044 0.0
N2342 N 0.88648 0.07179 0.35183 0.0
N2343 N 0.85863 0.08915 0.39855 0.0
H2344 H 0.73002 0.93215 0.0811 0.0
H2345 H 0.53868 0.93119 0.17297 0.0
H2346 H 0.60325 0.94647 0.06613 0.0
H2347 H 0.66249 0.94668 0.18873 0.0
H2348 H 0.56342 0.92952 0.13337 0.0
H2349 H 0.70666 0.93034 0.12091 0.0
C2350 C 0.69688 0.93463 0.08606 0.0
C2351 C 0.66829 0.93931 0.0702 0.0
C2352 C 0.58546 0.93303 0.14573 0.0
C2353 C 0.64123 0.93704 0.11531 0.0
C2354 C 0.57158 0.93393 0.16825 0.0
C2355 C 0.59878 0.93896 0.18422 0.0
C2356 C 0.6274 0.93689 0.13933 0.0
C2357 C 0.64087 0.94255 0.17713 0.0
C2358 C 0.68376 0.93364 0.10869 0.0
C2359 C 0.62593 0.94257 0.0776 0.0
N2360 N 0.65398 0.94141 0.15522 0.0
N2361 N 0.61356 0.94132 0.09958 0.0
H2362 H 0.11711 0.8125 0.07034 0.0
H2363 H 0.1804 0.84547 0.1799 0.0
H2364 H 0.0807 0.84492 0.07467 0.0
H2365 H 0.15182 0.81256 0.18088 0.0
H2366 H 0.1538 0.84622 0.14033 0.0
H2367 H 0.14329 0.81311 0.10948 0.0
C2368 C 0.11526 0.81979 0.07955 0.0
C2369 C 0.09658 0.82866 0.06945 0.0
C2370 C 0.15312 0.83888 0.14934 0.0
C2371 C 0.12632 0.82944 0.11425 0.0
C2372 C 0.16808 0.83846 0.17182 0.0
C2373 C 0.16849 0.82893 0.18345 0.0
C2374 C 0.13937 0.82966 0.1385 0.0
C2375 C 0.15226 0.82004 0.17238 0.0
C2376 C 0.12981 0.82013 0.1019 0.0
C2377 C 0.09489 0.83793 0.082 0.0
N2378 N 0.13895 0.82059 0.15048 0.0
N2379 N 0.10957 0.8381 0.10385 0.0
H2380 H 0.72346 0.84045 0.67394 0.0
H2381 H 0.53491 0.84004 0.58025 0.0
H2382 H 0.59829 0.82514 0.6876 0.0
H2383 H 0.66164 0.82546 0.56648 0.0
H2384 H 0.55775 0.84227 0.62002 0.0
H2385 H 0.70032 0.84266 0.63421 0.0
C2386 C 0.69056 0.83789 0.66876 0.0
C2387 C 0.66251 0.83274 0.68415 0.0
C2388 C 0.58086 0.83887 0.60803 0.0
C2389 C 0.63575 0.83543 0.63916 0.0
C2390 C 0.56805 0.83765 0.58542 0.0
C2391 C 0.59666 0.83269 0.56998 0.0
C2392 C 0.62306 0.83542 0.61501 0.0
C2393 C 0.63897 0.82954 0.57764 0.0
C2394 C 0.67759 0.8391 0.64617 0.0
C2395 C 0.62051 0.82937 0.67648 0.0
N2396 N 0.65097 0.83098 0.59961 0.0
N2397 N 0.60833 0.8308 0.65452 0.0
H2398 H 0.22383 0.93104 0.58108 0.0
H2399 H 0.03195 0.93222 0.67282 0.0
H2400 H 0.10009 0.94657 0.56534 0.0
H2401 H 0.1595 0.9461 0.68798 0.0
H2402 H 0.05539 0.93035 0.63303 0.0
H2403 H 0.19898 0.92931 0.62065 0.0
C2404 C 0.19091 0.93377 0.58579 0.0
C2405 C 0.16378 0.93883 0.56984 0.0
C2406 C 0.07844 0.93356 0.6453 0.0
C2407 C 0.13503 0.93669 0.6147 0.0
C2408 C 0.06527 0.93459 0.66792 0.0
C2409 C 0.09406 0.93917 0.68382 0.0
C2410 C 0.12118 0.93683 0.63873 0.0
C2411 C 0.13666 0.94228 0.67648 0.0
C2412 C 0.17697 0.93284 0.6083 0.0
C2413 C 0.12167 0.94241 0.57692 0.0
N2414 N 0.14903 0.94101 0.65451 0.0
N2415 N 0.1085 0.94124 0.59882 0.0
H2416 H 0.36582 0.56327 0.43149 0.0
H2417 H 0.43373 0.59652 0.32412 0.0
H2418 H 0.33105 0.59584 0.42947 0.0
H2419 H 0.38902 0.56465 0.32028 0.0
H2420 H 0.40776 0.59723 0.3638 0.0
H2421 H 0.39001 0.56429 0.39207 0.0
C2422 C 0.36394 0.57067 0.42274 0.0
C2423 C 0.34615 0.57946 0.43352 0.0
C2424 C 0.40321 0.59015 0.35409 0.0
C2425 C 0.37375 0.58071 0.38851 0.0
C2426 C 0.41773 0.58977 0.33155 0.0
C2427 C 0.41336 0.58052 0.31911 0.0
C2428 C 0.38536 0.58114 0.36416 0.0
C2429 C 0.39286 0.57192 0.3294 0.0
C2430 C 0.37734 0.57124 0.40025 0.0
C2431 C 0.34449 0.58891 0.42157 0.0
N2432 N 0.38027 0.57239 0.3514 0.0
N2433 N 0.35814 0.5893 0.39957 0.0
H2434 H 0.82897 0.67464 0.32388 0.0
H2435 H 0.89984 0.70764 0.43136 0.0
H2436 H 0.8727 0.70658 0.32041 0.0
H2437 H 0.93143 0.6749 0.42902 0.0
H2438 H 0.87494 0.70681 0.39204 0.0
H2439 H 0.85539 0.67384 0.36348 0.0
C2440 C 0.84481 0.68139 0.33138 0.0
C2441 C 0.8488 0.69069 0.31907 0.0
C2442 C 0.88709 0.69978 0.40012 0.0
C2443 C 0.87739 0.68995 0.36402 0.0
C2444 C 0.90092 0.70024 0.42255 0.0
C2445 C 0.91799 0.69134 0.43322 0.0
C2446 C 0.88957 0.69031 0.38831 0.0
C2447 C 0.91858 0.68191 0.42121 0.0
C2448 C 0.8596 0.68096 0.35387 0.0
C2449 C 0.86914 0.69928 0.32943 0.0
N2450 N 0.90456 0.68162 0.39926 0.0
N2451 N 0.88206 0.69876 0.35138 0.0
H2452 H 0.43327 0.67441 0.9302 0.0
H2453 H 0.367 0.70712 0.8216 0.0
H2454 H 0.39162 0.70653 0.93274 0.0
H2455 H 0.33044 0.67467 0.82493 0.0
H2456 H 0.3918 0.70632 0.86096 0.0
H2457 H 0.40731 0.67351 0.89052 0.0
C2458 C 0.41801 0.68119 0.92247 0.0
C2459 C 0.41453 0.69056 0.93454 0.0
C2460 C 0.37863 0.69935 0.85308 0.0
C2461 C 0.38647 0.6897 0.88951 0.0
C2462 C 0.36489 0.69978 0.83062 0.0
C2463 C 0.34646 0.69096 0.82022 0.0
C2464 C 0.37466 0.68998 0.86518 0.0
C2465 C 0.34443 0.68162 0.83252 0.0
C2466 C 0.40348 0.68069 0.89994 0.0
C2467 C 0.39487 0.69918 0.9239 0.0
N2468 N 0.35837 0.68135 0.85448 0.0
N2469 N 0.38222 0.69859 0.90192 0.0
H2470 H 0.93426 0.59552 0.82335 0.0
H2471 H 0.87536 0.56418 0.93524 0.0
H2472 H 0.90191 0.5628 0.82426 0.0
H2473 H 0.83249 0.59609 0.92864 0.0
H2474 H 0.90116 0.56447 0.89604 0.0
H2475 H 0.90901 0.59686 0.86307 0.0
C2476 C 0.9214 0.58868 0.83187 0.0
C2477 C 0.9204 0.57902 0.82076 0.0
C2478 C 0.88648 0.57146 0.90318 0.0
C2479 C 0.89292 0.58041 0.86584 0.0
C2480 C 0.87221 0.57131 0.92557 0.0
C2481 C 0.85178 0.58012 0.93502 0.0
C2482 C 0.88091 0.58051 0.89017 0.0
C2483 C 0.84819 0.58917 0.92183 0.0
C2484 C 0.90722 0.58943 0.85443 0.0
C2485 C 0.90347 0.57036 0.83239 0.0
N2486 N 0.86262 0.58915 0.89994 0.0
N2487 N 0.89104 0.57122 0.85436 0.0
H2488 H 0.63652 0.45625 0.56815 0.0
H2489 H 0.58339 0.42451 0.67999 0.0
H2490 H 0.68639 0.4249 0.57466 0.0
H2491 H 0.61349 0.45735 0.67938 0.0
H2492 H 0.60859 0.42335 0.64022 0.0
H2493 H 0.61123 0.45566 0.60744 0.0
C2494 C 0.64125 0.44916 0.57781 0.0
C2495 C 0.66348 0.44061 0.56832 0.0
C2496 C 0.60993 0.43076 0.64895 0.0
C2497 C 0.63499 0.43988 0.61324 0.0
C2498 C 0.5958 0.43141 0.67153 0.0
C2499 C 0.59614 0.44105 0.68273 0.0
C2500 C 0.62343 0.43987 0.63761 0.0
C2501 C 0.61246 0.4498 0.67119 0.0
C2502 C 0.62729 0.44886 0.60024 0.0
C2503 C 0.6692 0.43162 0.58151 0.0
N2504 N 0.62476 0.44903 0.64919 0.0
N2505 N 0.65503 0.43147 0.60343 0.0
H2506 H 0.12977 0.31427 0.56692 0.0
H2507 H 0.18312 0.34552 0.67996 0.0
H2508 H 0.08052 0.34559 0.57511 0.0
H2509 H 0.15964 0.3124 0.67777 0.0
H2510 H 0.15802 0.34679 0.6402 0.0
H2511 H 0.15706 0.31457 0.60589 0.0
C2512 C 0.12556 0.32129 0.57688 0.0
C2513 C 0.103 0.32992 0.56794 0.0
C2514 C 0.15836 0.33928 0.64853 0.0
C2515 C 0.13374 0.33031 0.61253 0.0
C2516 C 0.17254 0.33856 0.6711 0.0
C2517 C 0.17401 0.32882 0.68189 0.0
C2518 C 0.14646 0.33016 0.63677 0.0
C2519 C 0.15962 0.32002 0.66988 0.0
C2520 C 0.1407 0.32143 0.59913 0.0
C2521 C 0.09798 0.33881 0.5815 0.0
N2522 N 0.14707 0.32087 0.64791 0.0
N2523 N 0.11323 0.3388 0.60325 0.0
H2524 H 0.58068 0.34579 0.0724 0.0
H2525 H 0.63875 0.3136 0.18379 0.0
H2526 H 0.60634 0.31275 0.07311 0.0
H2527 H 0.67979 0.34566 0.17776 0.0
H2528 H 0.61222 0.31401 0.14471 0.0
H2529 H 0.60589 0.34679 0.11217 0.0
C2530 C 0.59183 0.33879 0.08094 0.0
C2531 C 0.59097 0.32916 0.06973 0.0
C2532 C 0.62673 0.32099 0.15192 0.0
C2533 C 0.61871 0.33017 0.11485 0.0
C2534 C 0.64148 0.32078 0.17424 0.0
C2535 C 0.66154 0.32959 0.18382 0.0
C2536 C 0.63151 0.33014 0.1391 0.0
C2537 C 0.66446 0.33872 0.17082 0.0
C2538 C 0.60607 0.33935 0.10352 0.0
C2539 C 0.606 0.32029 0.08133 0.0
N2540 N 0.64962 0.33877 0.149 0.0
N2541 N 0.61867 0.32099 0.1033 0.0
H2542 H 0.08131 0.42513 0.17942 0.0
H2543 H 0.14141 0.4574 0.06891 0.0
H2544 H 0.11392 0.45783 0.17987 0.0
H2545 H 0.18187 0.42526 0.07398 0.0
H2546 H 0.11606 0.45685 0.10818 0.0
H2547 H 0.1068 0.42411 0.1397 0.0
C2548 C 0.0943 0.43203 0.17119 0.0
C2549 C 0.09532 0.44159 0.18269 0.0
C2550 C 0.13018 0.44988 0.1007 0.0
C2551 C 0.12307 0.44057 0.13761 0.0
C2552 C 0.14422 0.45017 0.07829 0.0
C2553 C 0.16381 0.44137 0.06839 0.0
C2554 C 0.13514 0.44068 0.11329 0.0
C2555 C 0.16688 0.43219 0.08117 0.0
C2556 C 0.10863 0.43146 0.14863 0.0
C2557 C 0.11238 0.45034 0.17144 0.0
N2558 N 0.15268 0.43206 0.10309 0.0
N2559 N 0.12496 0.44966 0.14947 0.0
H2560 H 0.03994 0.15331 0.03984 0.0
H2561 H 0.23622 0.11824 0.99102 0.0
H2562 H 0.11784 0.16283 0.98188 0.0
H2563 H 0.12221 0.105 0.02494 0.0
H2564 H 0.19924 0.13531 0.99125 0.0
H2565 H 0.07538 0.13625 0.03828 0.0
C2566 C 0.06414 0.15188 0.02664 0.0
C2567 C 0.07519 0.15967 0.01079 0.0
C2568 C 0.18224 0.12866 0.99855 0.0
C2569 C 0.11729 0.14004 0.00955 0.0
C2570 C 0.20336 0.11893 0.99851 0.0
C2571 C 0.18224 0.11018 0.00799 0.0
C2572 C 0.13998 0.12972 0.00852 0.0
C2573 C 0.13954 0.11152 0.01733 0.0
C2574 C 0.08461 0.14209 0.02591 0.0
C2575 C 0.10829 0.15725 0.99469 0.0
N2576 N 0.12 0.12111 0.01756 0.0
N2577 N 0.1282 0.14769 0.99456 0.0
H2578 H 0.14047 0.16387 0.27137 0.0
H2579 H 0.13755 0.10517 0.22719 0.0
H2580 H 0.21871 0.15373 0.21402 0.0
H2581 H 0.02308 0.11923 0.25912 0.0
H2582 H 0.17477 0.12225 0.22719 0.0
H2583 H 0.10278 0.14699 0.27141 0.0
C2584 C 0.14974 0.15821 0.25866 0.0
C2585 C 0.18336 0.1604 0.24271 0.0
C2586 C 0.14151 0.12158 0.2342 0.0
C2587 C 0.14094 0.14079 0.24331 0.0
C2588 C 0.12041 0.11183 0.23434 0.0
C2589 C 0.07712 0.11079 0.2431 0.0
C2590 C 0.11955 0.13031 0.2433 0.0
C2591 C 0.05632 0.11971 0.25202 0.0
C2592 C 0.1283 0.1485 0.25886 0.0
C2593 C 0.19407 0.15247 0.22708 0.0
N2594 N 0.07778 0.12907 0.25202 0.0
N2595 N 0.17327 0.14305 0.22791 0.0
H2596 H 0.87447 0.85489 0.97871 0.0
H2597 H 0.87097 0.91381 0.02166 0.0
H2598 H 0.98916 0.86897 0.01044 0.0
H2599 H 0.79363 0.90321 0.9644 0.0
H2600 H 0.90946 0.89697 0.02212 0.0
H2601 H 0.83748 0.87198 0.97849 0.0
C2602 C 0.89169 0.86156 0.98579 0.0
C2603 C 0.93499 0.86051 0.99454 0.0
C2604 C 0.88395 0.89838 0.00951 0.0
C2605 C 0.89284 0.88006 0.99446 0.0
C2606 C 0.86208 0.90804 0.00909 0.0
C2607 C 0.82829 0.91005 0.99311 0.0
C2608 C 0.87157 0.89055 0.99413 0.0
C2609 C 0.81823 0.90206 0.97754 0.0
C2610 C 0.87073 0.87131 0.98552 0.0
C2611 C 0.9559 0.86945 0.00336 0.0
N2612 N 0.83936 0.89269 0.97859 0.0
N2613 N 0.93458 0.87883 0.00321 0.0
H2614 H 0.79163 0.86722 0.78894 0.0
H2615 H 0.98689 0.90182 0.73825 0.0
H2616 H 0.86323 0.8579 0.7288 0.0
H2617 H 0.87569 0.91535 0.77396 0.0
H2618 H 0.94809 0.88497 0.73798 0.0
H2619 H 0.82802 0.88416 0.78715 0.0
C2620 C 0.81461 0.86868 0.7752 0.0
C2621 C 0.82352 0.86099 0.75878 0.0
C2622 C 0.93206 0.89164 0.74573 0.0
C2623 C 0.86684 0.88047 0.75729 0.0
C2624 C 0.95417 0.90124 0.74594 0.0
C2625 C 0.93439 0.90999 0.75611 0.0
C2626 C 0.89021 0.8907 0.75619 0.0
C2627 C 0.89193 0.90881 0.76579 0.0
C2628 C 0.83563 0.8784 0.77434 0.0
C2629 C 0.85528 0.86341 0.74202 0.0
N2630 N 0.87146 0.89932 0.76582 0.0
N2631 N 0.87585 0.8729 0.74177 0.0
H2632 H 0.04165 0.65327 0.53997 0.0
H2633 H 0.24123 0.61876 0.49284 0.0
H2634 H 0.12076 0.66301 0.4826 0.0
H2635 H 0.12624 0.60514 0.52518 0.0
H2636 H 0.20348 0.63574 0.49288 0.0
H2637 H 0.0779 0.6363 0.53862 0.0
C2638 C 0.06628 0.65191 0.52693 0.0
C2639 C 0.07743 0.65974 0.51119 0.0
C2640 C 0.18646 0.62903 0.49987 0.0
C2641 C 0.12047 0.64021 0.51023 0.0
C2642 C 0.20801 0.61936 0.49995 0.0
C2643 C 0.18681 0.61053 0.50902 0.0
C2644 C 0.14369 0.62995 0.50935 0.0
C2645 C 0.14365 0.61173 0.51788 0.0
C2646 C 0.08721 0.64217 0.52633 0.0
C2647 C 0.11109 0.6574 0.49533 0.0
N2648 N 0.12368 0.62128 0.51803 0.0
N2649 N 0.13146 0.6479 0.49533 0.0
H2650 H 0.14307 0.66294 0.77287 0.0
H2651 H 0.14008 0.60418 0.72892 0.0
H2652 H 0.22027 0.6528 0.71516 0.0
H2653 H 0.02648 0.6182 0.76173 0.0
H2654 H 0.17726 0.62127 0.72873 0.0
H2655 H 0.10596 0.646 0.77333 0.0
C2656 C 0.15221 0.65726 0.76017 0.0
C2657 C 0.18533 0.65947 0.74397 0.0
C2658 C 0.14421 0.62059 0.73599 0.0
C2659 C 0.14362 0.6398 0.74505 0.0
C2660 C 0.12316 0.61084 0.73624 0.0
C2661 C 0.0801 0.60978 0.74529 0.0
C2662 C 0.12242 0.6293 0.74525 0.0
C2663 C 0.05953 0.61869 0.75442 0.0
C2664 C 0.13111 0.64752 0.76061 0.0
C2665 C 0.19597 0.65153 0.72837 0.0
N2666 N 0.08093 0.62805 0.75428 0.0
N2667 N 0.1755 0.64207 0.72943 0.0
H2668 H 0.84468 0.41055 0.52882 0.0
H2669 H 0.94365 0.36338 0.45621 0.0
H2670 H 0.82057 0.40717 0.45734 0.0
H2671 H 0.921 0.36091 0.52798 0.0
H2672 H 0.90679 0.38043 0.45637 0.0
H2673 H 0.88149 0.39342 0.52896 0.0
C2674 C 0.84747 0.40624 0.51313 0.0
C2675 C 0.82951 0.4103 0.49303 0.0
C2676 C 0.90973 0.37615 0.47208 0.0
C2677 C 0.87161 0.39073 0.49307 0.0
C2678 C 0.93089 0.36643 0.47201 0.0
C2679 C 0.93534 0.3607 0.49211 0.0
C2680 C 0.89352 0.3803 0.49246 0.0
C2681 C 0.91793 0.36502 0.51208 0.0
C2682 C 0.86814 0.39644 0.51326 0.0
C2683 C 0.83366 0.40432 0.47324 0.0
N2684 N 0.89812 0.3746 0.51179 0.0
N2685 N 0.85444 0.39489 0.47373 0.0
H2686 H 0.8688 0.35759 0.23116 0.0
H2687 H 0.87434 0.41644 0.2746 0.0
H2688 H 0.79096 0.36811 0.28833 0.0
H2689 H 0.98769 0.40204 0.24234 0.0
H2690 H 0.83631 0.39946 0.27483 0.0
H2691 H 0.90698 0.37441 0.23076 0.0
C2692 C 0.85972 0.36332 0.24376 0.0
C2693 C 0.82608 0.36125 0.25978 0.0
C2694 C 0.8695 0.40003 0.26769 0.0
C2695 C 0.8691 0.3808 0.25876 0.0
C2696 C 0.89106 0.40973 0.26741 0.0
C2697 C 0.93429 0.41065 0.2585 0.0
C2698 C 0.89093 0.39123 0.25858 0.0
C2699 C 0.95452 0.40166 0.24955 0.0
C2700 C 0.88145 0.37299 0.24335 0.0
C2701 C 0.81562 0.36926 0.27524 0.0
N2702 N 0.93262 0.39235 0.2497 0.0
N2703 N 0.83671 0.37865 0.27422 0.0
H2704 H 0.64183 0.10716 0.48167 0.0
H2705 H 0.63761 0.16594 0.52552 0.0
H2706 H 0.72088 0.11755 0.53855 0.0
H2707 H 0.52352 0.15164 0.4937 0.0
H2708 H 0.67542 0.14893 0.52555 0.0
H2709 H 0.60369 0.12398 0.48164 0.0
C2710 C 0.65119 0.11287 0.49428 0.0
C2711 C 0.68516 0.11075 0.51011 0.0
C2712 C 0.64211 0.14953 0.51856 0.0
C2713 C 0.64216 0.13031 0.5095 0.0
C2714 C 0.62067 0.15924 0.5184 0.0
C2715 C 0.5773 0.1602 0.50967 0.0
C2716 C 0.62042 0.14076 0.5095 0.0
C2717 C 0.5568 0.15123 0.50079 0.0
C2718 C 0.62947 0.12254 0.49408 0.0
C2719 C 0.69595 0.11874 0.5256 0.0
N2720 N 0.57858 0.14191 0.50081 0.0
N2721 N 0.67486 0.12813 0.52477 0.0
H2722 H 0.59393 0.11081 0.77929 0.0
H2723 H 0.68998 0.15832 0.70687 0.0
H2724 H 0.56537 0.11483 0.70839 0.0
H2725 H 0.66977 0.16055 0.77885 0.0
H2726 H 0.65307 0.14127 0.70708 0.0
H2727 H 0.6312 0.1279 0.77949 0.0
C2728 C 0.59586 0.11525 0.76375 0.0
C2729 C 0.57651 0.11141 0.7438 0.0
C2730 C 0.65655 0.1455 0.72282 0.0
C2731 C 0.61907 0.1309 0.74389 0.0
C2732 C 0.67771 0.15521 0.72272 0.0
C2733 C 0.68283 0.16086 0.74286 0.0
C2734 C 0.64106 0.1413 0.74329 0.0
C2735 C 0.66612 0.15649 0.76292 0.0
C2736 C 0.61678 0.12502 0.76391 0.0
C2737 C 0.57958 0.11753 0.72417 0.0
N2738 N 0.64631 0.14692 0.76267 0.0
N2739 N 0.60062 0.12693 0.72467 0.0
H2740 H 0.36828 0.91327 0.52524 0.0
H2741 H 0.37464 0.85448 0.48174 0.0
H2742 H 0.29426 0.90299 0.46656 0.0
H2743 H 0.4885 0.86886 0.51357 0.0
H2744 H 0.33667 0.87149 0.48162 0.0
H2745 H 0.40625 0.89641 0.52601 0.0
C2746 C 0.35997 0.90758 0.51242 0.0
C2747 C 0.32739 0.90972 0.49588 0.0
C2748 C 0.36992 0.87089 0.48869 0.0
C2749 C 0.37002 0.89014 0.49732 0.0
C2750 C 0.39141 0.8612 0.48891 0.0
C2751 C 0.43478 0.86028 0.49763 0.0
C2752 C 0.39158 0.87969 0.49768 0.0
C2753 C 0.45517 0.86925 0.50655 0.0
C2754 C 0.38154 0.89789 0.51304 0.0
C2755 C 0.31794 0.90177 0.48008 0.0
N2756 N 0.43335 0.87857 0.50646 0.0
N2757 N 0.33877 0.89236 0.48134 0.0
H2758 H 0.37561 0.916 0.27339 0.0
H2759 H 0.37273 0.85689 0.23153 0.0
H2760 H 0.49021 0.90155 0.24242 0.0
H2761 H 0.29375 0.86756 0.28816 0.0
H2762 H 0.41023 0.87379 0.23079 0.0
H2763 H 0.33786 0.89897 0.27371 0.0
C2764 C 0.39261 0.90926 0.26647 0.0
C2765 C 0.43612 0.91018 0.25791 0.0
C2766 C 0.38458 0.87239 0.24333 0.0
C2767 C 0.39317 0.89072 0.25811 0.0
C2768 C 0.36326 0.86268 0.24394 0.0
C2769 C 0.32951 0.86062 0.25991 0.0
C2770 C 0.37169 0.88026 0.25848 0.0
C2771 C 0.31852 0.8687 0.27511 0.0
C2772 C 0.37124 0.89955 0.2668 0.0
C2773 C 0.45678 0.90117 0.24932 0.0
N2774 N 0.33922 0.87813 0.2739 0.0
N2775 N 0.43509 0.89184 0.24952 0.0
H2776 H 0.59475 0.66077 0.97466 0.0
H2777 H 0.69564 0.61389 0.04749 0.0
H2778 H 0.57087 0.65747 0.04617 0.0
H2779 H 0.67131 0.61113 0.97591 0.0
H2780 H 0.6585 0.63092 0.04722 0.0
H2781 H 0.63195 0.64369 0.97463 0.0
C2782 C 0.59768 0.65649 0.99038 0.0
C2783 C 0.57966 0.66055 0.01045 0.0
C2784 C 0.66114 0.62658 0.03159 0.0
C2785 C 0.62224 0.64103 0.01055 0.0
C2786 C 0.68245 0.61688 0.03171 0.0
C2787 C 0.6865 0.61106 0.01169 0.0
C2788 C 0.64438 0.63063 0.01122 0.0
C2789 C 0.66856 0.6153 0.99175 0.0
C2790 C 0.61857 0.64672 0.99031 0.0
C2791 C 0.584 0.65461 0.03029 0.0
N2792 N 0.64863 0.62486 0.99197 0.0
N2793 N 0.60502 0.6452 0.02987 0.0
H2794 H 0.69266 0.65779 0.20687 0.0
H2795 H 0.59356 0.61072 0.27976 0.0
H2796 H 0.66951 0.66043 0.27856 0.0
H2797 H 0.5696 0.614 0.20825 0.0
H2798 H 0.63021 0.62787 0.27982 0.0
H2799 H 0.6558 0.64073 0.20716 0.0
C2800 C 0.67977 0.65477 0.22268 0.0
C2801 C 0.68409 0.66056 0.24272 0.0
C2802 C 0.61692 0.62482 0.26413 0.0
C2803 C 0.64228 0.64095 0.24322 0.0
C2804 C 0.59635 0.61501 0.26405 0.0
C2805 C 0.57847 0.61092 0.24397 0.0
C2806 C 0.6204 0.63052 0.2439 0.0
C2807 C 0.58262 0.61688 0.22414 0.0
C2808 C 0.65862 0.64506 0.22282 0.0
C2809 C 0.66654 0.65628 0.2627 0.0
N2810 N 0.60332 0.62632 0.22458 0.0
N2811 N 0.64675 0.6467 0.26249 0.0
H2812 H 0.26918 0.40158 0.00844 0.0
H2813 H 0.47187 0.36764 0.9625 0.0
H2814 H 0.38545 0.41542 0.97773 0.0
H2815 H 0.38941 0.35714 0.01796 0.0
H2816 H 0.43483 0.38451 0.96396 0.0
H2817 H 0.30687 0.38459 0.00816 0.0
C2818 C 0.30265 0.40104 0.00163 0.0
C2819 C 0.32422 0.40993 0.99308 0.0
C2820 C 0.42493 0.3785 0.97582 0.0
C2821 C 0.3673 0.39049 0.9925 0.0
C2822 C 0.44631 0.36883 0.97515 0.0
C2823 C 0.43457 0.36084 0.99038 0.0
C2824 C 0.39063 0.38025 0.99147 0.0
C2825 C 0.39966 0.36292 0.0057 0.0
C2826 C 0.32417 0.39135 0.00157 0.0
C2827 C 0.36772 0.40878 0.98462 0.0
N2828 N 0.37892 0.37238 0.0058 0.0
N2829 N 0.38766 0.39923 0.98435 0.0
H2830 H 0.37547 0.41572 0.77355 0.0
H2831 H 0.37499 0.35652 0.73222 0.0
H2832 H 0.49072 0.40154 0.7426 0.0
H2833 H 0.29371 0.36745 0.78775 0.0
H2834 H 0.41275 0.37342 0.73161 0.0
H2835 H 0.3385 0.39863 0.77391 0.0
C2836 C 0.39282 0.40903 0.76667 0.0
C2837 C 0.43626 0.41005 0.75811 0.0
C2838 C 0.38656 0.37207 0.74389 0.0
C2839 C 0.39419 0.3905 0.75837 0.0
C2840 C 0.3651 0.36237 0.7444 0.0
C2841 C 0.33053 0.36043 0.75997 0.0
C2842 C 0.37302 0.38 0.75875 0.0
C2843 C 0.31909 0.36854 0.77498 0.0
C2844 C 0.37187 0.39928 0.76702 0.0
C2845 C 0.45735 0.40108 0.74955 0.0
N2846 N 0.33994 0.37794 0.77386 0.0
N2847 N 0.43607 0.3917 0.74979 0.0
loop_
_geom_bond_atom_site_label_1
_geom_bond_atom_site_label_2
_geom_bond_distance
_geom_bond_site_symmetry_2
_ccdc_geom_bond_type
C0 C1 1.443 . S
C0 N4 1.376 . S
C0 C38 1.389 . S
C1 C0 1.443 . S
C1 C2 1.340 . S
C1 H41 0.951 . S
C2 C1 1.340 . S
C2 C3 1.439 . S
C2 H42 0.950 . S
C3 C2 1.439 . S
C3 N4 1.374 . S
C3 C37 1.395 1_554 S
N4 C0 1.376 . S
N4 C3 1.374 . S
N4 Co5 2.008 . S
Co5 N4 2.008 . S
Co5 N6 1.995 1_554 S
Co5 N11 2.008 1_554 S
Co5 N16 1.995 . S
Co5 N21 2.282 . S
Co5 N27 2.282 . S
N6 Co5 1.995 1_556 S
N6 C7 1.376 . S
N6 C10 1.383 . S
C7 N6 1.376 . S
C7 C8 1.446 . S
C7 C37 1.391 . S
C8 C7 1.446 . S
C8 C9 1.339 . S
C8 H43 0.949 . S
C9 C8 1.339 . S
C9 C10 1.439 . S
C9 H44 0.950 . S
C10 N6 1.383 . S
C10 C9 1.439 . S
C10 C39 1.392 . S
N11 Co5 2.008 1_556 S
N11 C12 1.376 . S
N11 C15 1.374 1_556 S
C12 N11 1.376 . S
C12 C13 1.443 . S
C12 C39 1.389 . S
C13 C12 1.443 . S
C13 C14 1.340 . S
C13 H45 0.951 . S
C14 C13 1.340 . S
C14 C15 1.439 1_556 S
C14 H46 0.950 . S
C15 N11 1.374 1_554 S
C15 C14 1.439 1_554 S
C15 C40 1.395 . S
N16 Co5 1.995 . S
N16 C17 1.376 . S
N16 C20 1.383 . S
C17 N16 1.376 . S
C17 C18 1.446 . S
C17 C40 1.391 . S
C18 C17 1.446 . S
C18 C19 1.339 . S
C18 H47 0.949 . S
C19 C18 1.339 . S
C19 C20 1.439 . S
C19 H48 0.950 . S
C20 N16 1.383 . S
C20 C19 1.439 . S
C20 C38 1.392 . S
N21 Co5 2.282 . S
N21 C24 1.332 . S
N21 C26 1.332 1_554 S
C22 C23 1.386 . S
C22 C25 1.388 1_554 S
C23 C22 1.386 . S
C23 C24 1.382 . S
C23 H49 0.950 . S
C24 N21 1.332 . S
C24 C23 1.382 . S
C24 H35 0.952 . S
C25 C22 1.388 1_556 S
C25 C26 1.382 . S
C25 H50 0.950 . S
C26 N21 1.332 1_556 S
C26 C25 1.382 . S
C26 H36 0.948 . S
N27 Co5 2.282 . S
N27 C31 1.332 1_554 S
N27 C32 1.332 . S
C28 C29 1.388 . S
C28 C32 1.382 . S
C28 H51 0.950 . S
C29 C28 1.388 . S
C29 C30 1.386 1_554 S
C30 C29 1.386 1_556 S
C30 C31 1.382 . S
C30 H52 0.950 . S
C31 N27 1.332 1_556 S
C31 C30 1.382 . S
C31 H33 0.952 . S
C32 N27 1.332 . S
C32 C28 1.382 . S
C32 H34 0.948 . S
H33 C31 0.952 . S
H34 C32 0.948 . S
H35 C24 0.952 . S
H36 C26 0.948 . S
C37 C3 1.395 1_556 S
C37 C7 1.391 . S
C38 C0 1.389 . S
C38 C20 1.392 . S
C39 C10 1.392 . S
C39 C12 1.389 . S
C40 C15 1.395 . S
C40 C17 1.391 . S
H41 C1 0.951 . S
H42 C2 0.950 . S
H43 C8 0.949 . S
H44 C9 0.950 . S
H45 C13 0.951 . S
H46 C14 0.950 . S
H47 C18 0.949 . S
H48 C19 0.950 . S
H49 C23 0.950 . S
H50 C25 0.950 . S
H51 C28 0.950 . S
H52 C30 0.950 . S
C53 C54 1.443 . S
C53 N57 1.376 . S
C53 C91 1.389 . S
C54 C53 1.443 . S
C54 C55 1.340 . S
C54 H94 0.951 . S
C55 C54 1.340 . S
C55 C56 1.439 . S
C55 H95 0.950 . S
C56 C55 1.439 . S
C56 N57 1.374 . S
C56 C90 1.395 1_554 S
N57 C53 1.376 . S
N57 C56 1.374 . S
N57 Co58 2.008 1_455 S
Co58 N57 2.008 1_655 S
Co58 N59 1.995 1_554 S
Co58 N64 2.008 1_554 S
Co58 N69 1.995 . S
Co58 N74 2.282 . S
Co58 N80 2.282 1_655 S
N59 Co58 1.995 1_556 S
N59 C60 1.376 1_655 S
N59 C63 1.383 . S
C60 N59 1.376 1_455 S
C60 C61 1.446 . S
C60 C90 1.391 . S
C61 C60 1.446 . S
C61 C62 1.339 1_455 S
C61 H96 0.949 . S
C62 C61 1.339 1_655 S
C62 C63 1.439 . S
C62 H97 0.950 . S
C63 N59 1.383 . S
C63 C62 1.439 . S
C63 C92 1.392 . S
N64 Co58 2.008 1_556 S
N64 C65 1.376 . S
N64 C68 1.374 1_556 S
C65 N64 1.376 . S
C65 C66 1.443 . S
C65 C92 1.389 . S
C66 C65 1.443 . S
C66 C67 1.340 . S
C66 H98 0.951 . S
C67 C66 1.340 . S
C67 C68 1.439 1_556 S
C67 H99 0.950 . S
C68 N64 1.374 1_554 S
C68 C67 1.439 1_554 S
C68 C93 1.395 . S
N69 Co58 1.995 . S
N69 C70 1.376 . S
N69 C73 1.383 . S
C70 N69 1.376 . S
C70 C71 1.446 . S
C70 C93 1.391 . S
C71 C70 1.446 . S
C71 C72 1.339 . S
C71 H100 0.949 . S
C72 C71 1.339 . S
C72 C73 1.439 . S
C72 H101 0.950 . S
C73 N69 1.383 . S
C73 C72 1.439 . S
C73 C91 1.392 1_655 S
N74 Co58 2.282 . S
N74 C77 1.332 . S
N74 C79 1.332 1_554 S
C75 C76 1.386 . S
C75 C78 1.388 1_554 S
C76 C75 1.386 . S
C76 C77 1.382 . S
C76 H102 0.950 . S
C77 N74 1.332 . S
C77 C76 1.382 . S
C77 H88 0.952 . S
C78 C75 1.388 1_556 S
C78 C79 1.382 . S
C78 H103 0.950 . S
C79 N74 1.332 1_556 S
C79 C78 1.382 . S
C79 H89 0.948 . S
N80 Co58 2.282 1_455 S
N80 C84 1.332 1_554 S
N80 C85 1.332 . S
C81 C82 1.388 . S
C81 C85 1.382 . S
C81 H104 0.950 . S
C82 C81 1.388 . S
C82 C83 1.386 1_554 S
C83 C82 1.386 1_556 S
C83 C84 1.382 . S
C83 H105 0.950 . S
C84 N80 1.332 1_556 S
C84 C83 1.382 . S
C84 H86 0.952 . S
C85 N80 1.332 . S
C85 C81 1.382 . S
C85 H87 0.948 1_455 S
H86 C84 0.952 . S
H87 C85 0.948 1_655 S
H88 C77 0.952 . S
H89 C79 0.948 . S
C90 C56 1.395 1_556 S
C90 C60 1.391 . S
C91 C53 1.389 . S
C91 C73 1.392 1_455 S
C92 C63 1.392 . S
C92 C65 1.389 . S
C93 C68 1.395 . S
C93 C70 1.391 . S
H94 C54 0.951 . S
H95 C55 0.950 . S
H96 C61 0.949 . S
H97 C62 0.950 . S
H98 C66 0.951 . S
H99 C67 0.950 . S
H100 C71 0.949 . S
H101 C72 0.950 . S
H102 C76 0.950 . S
H103 C78 0.950 . S
H104 C81 0.950 . S
H105 C83 0.950 . S
C106 C107 1.443 . S
C106 N110 1.376 . S
C106 C144 1.389 . S
C107 C106 1.443 . S
C107 C108 1.340 . S
C107 H147 0.951 . S
C108 C107 1.340 . S
C108 C109 1.439 . S
C108 H148 0.950 . S
C109 C108 1.439 . S
C109 N110 1.374 . S
C109 C143 1.395 . S
N110 C106 1.376 . S
N110 C109 1.374 . S
N110 Co111 2.008 . S
Co111 N110 2.008 . S
Co111 N112 1.995 . S
Co111 N117 2.008 . S
Co111 N122 1.995 . S
Co111 N127 2.282 . S
Co111 N133 2.282 . S
N112 Co111 1.995 . S
N112 C113 1.376 . S
N112 C116 1.383 . S
C113 N112 1.376 . S
C113 C114 1.446 . S
C113 C143 1.391 . S
C114 C113 1.446 . S
C114 C115 1.339 . S
C114 H149 0.949 . S
C115 C114 1.339 . S
C115 C116 1.439 . S
C115 H150 0.950 . S
C116 N112 1.383 . S
C116 C115 1.439 . S
C116 C145 1.392 . S
N117 Co111 2.008 . S
N117 C118 1.376 . S
N117 C121 1.374 . S
C118 N117 1.376 . S
C118 C119 1.443 . S
C118 C145 1.389 . S
C119 C118 1.443 . S
C119 C120 1.340 . S
C119 H151 0.951 . S
C120 C119 1.340 . S
C120 C121 1.439 . S
C120 H152 0.950 . S
C121 N117 1.374 . S
C121 C120 1.439 . S
C121 C146 1.395 . S
N122 Co111 1.995 . S
N122 C123 1.376 . S
N122 C126 1.383 . S
C123 N122 1.376 . S
C123 C124 1.446 . S
C123 C146 1.391 . S
C124 C123 1.446 . S
C124 C125 1.339 . S
C124 H153 0.949 . S
C125 C124 1.339 . S
C125 C126 1.439 . S
C125 H154 0.950 . S
C126 N122 1.383 . S
C126 C125 1.439 . S
C126 C144 1.392 . S
N127 Co111 2.282 . S
N127 C130 1.332 . S
N127 C132 1.332 . S
C128 C129 1.386 . S
C128 C131 1.388 . S
C129 C128 1.386 . S
C129 C130 1.382 . S
C129 H155 0.950 . S
C130 N127 1.332 . S
C130 C129 1.382 . S
C130 H141 0.952 . S
C131 C128 1.388 . S
C131 C132 1.382 . S
C131 H156 0.950 . S
C132 N127 1.332 . S
C132 C131 1.382 . S
C132 H142 0.948 . S
N133 Co111 2.282 . S
N133 C137 1.332 . S
N133 C138 1.332 . S
C134 C135 1.388 . S
C134 C138 1.382 . S
C134 H157 0.950 . S
C135 C134 1.388 . S
C135 C136 1.386 . S
C136 C135 1.386 . S
C136 C137 1.382 . S
C136 H158 0.950 . S
C137 N133 1.332 . S
C137 C136 1.382 . S
C137 H139 0.952 . S
C138 N133 1.332 . S
C138 C134 1.382 . S
C138 H140 0.948 . S
H139 C137 0.952 . S
H140 C138 0.948 . S
H141 C130 0.952 . S
H142 C132 0.948 . S
C143 C109 1.395 . S
C143 C113 1.391 . S
C144 C106 1.389 . S
C144 C126 1.392 . S
C145 C116 1.392 . S
C145 C118 1.389 . S
C146 C121 1.395 . S
C146 C123 1.391 . S
H147 C107 0.951 . S
H148 C108 0.950 . S
H149 C114 0.949 . S
H150 C115 0.950 . S
H151 C119 0.951 . S
H152 C120 0.950 . S
H153 C124 0.949 . S
H154 C125 0.950 . S
H155 C129 0.950 . S
H156 C131 0.950 . S
H157 C134 0.950 . S
H158 C136 0.950 . S
C159 C160 1.443 . S
C159 N163 1.376 . S
C159 C197 1.389 . S
C160 C159 1.443 . S
C160 C161 1.340 . S
C160 H200 0.951 . S
C161 C160 1.340 . S
C161 C162 1.439 . S
C161 H201 0.950 . S
C162 C161 1.439 . S
C162 N163 1.374 . S
C162 C196 1.395 . S
N163 C159 1.376 . S
N163 C162 1.374 . S
N163 Co164 2.008 1_455 S
Co164 N163 2.008 1_655 S
Co164 N165 1.995 . S
Co164 N170 2.008 . S
Co164 N175 1.995 . S
Co164 N180 2.282 . S
Co164 N186 2.282 1_655 S
N165 Co164 1.995 . S
N165 C166 1.376 1_655 S
N165 C169 1.383 . S
C166 N165 1.376 1_455 S
C166 C167 1.446 . S
C166 C196 1.391 . S
C167 C166 1.446 . S
C167 C168 1.339 1_455 S
C167 H202 0.949 . S
C168 C167 1.339 1_655 S
C168 C169 1.439 . S
C168 H203 0.950 . S
C169 N165 1.383 . S
C169 C168 1.439 . S
C169 C198 1.392 . S
N170 Co164 2.008 . S
N170 C171 1.376 . S
N170 C174 1.374 . S
C171 N170 1.376 . S
C171 C172 1.443 . S
C171 C198 1.389 . S
C172 C171 1.443 . S
C172 C173 1.340 . S
C172 H204 0.951 . S
C173 C172 1.340 . S
C173 C174 1.439 . S
C173 H205 0.950 . S
C174 N170 1.374 . S
C174 C173 1.439 . S
C174 C199 1.395 . S
N175 Co164 1.995 . S
N175 C176 1.376 . S
N175 C179 1.383 . S
C176 N175 1.376 . S
C176 C177 1.446 . S
C176 C199 1.391 . S
C177 C176 1.446 . S
C177 C178 1.339 . S
C177 H206 0.949 . S
C178 C177 1.339 . S
C178 C179 1.439 . S
C178 H207 0.950 . S
C179 N175 1.383 . S
C179 C178 1.439 . S
C179 C197 1.392 1_655 S
N180 Co164 2.282 . S
N180 C183 1.332 . S
N180 C185 1.332 . S
C181 C182 1.386 . S
C181 C184 1.388 . S
C182 C181 1.386 . S
C182 C183 1.382 . S
C182 H208 0.950 . S
C183 N180 1.332 . S
C183 C182 1.382 . S
C183 H194 0.952 . S
C184 C181 1.388 . S
C184 C185 1.382 . S
C184 H209 0.950 . S
C185 N180 1.332 . S
C185 C184 1.382 . S
C185 H195 0.948 . S
N186 Co164 2.282 1_455 S
N186 C190 1.332 . S
N186 C191 1.332 . S
C187 C188 1.388 . S
C187 C191 1.382 . S
C187 H210 0.950 . S
C188 C187 1.388 . S
C188 C189 1.386 . S
C189 C188 1.386 . S
C189 C190 1.382 . S
C189 H211 0.950 . S
C190 N186 1.332 . S
C190 C189 1.382 . S
C190 H192 0.952 . S
C191 N186 1.332 . S
C191 C187 1.382 . S
C191 H193 0.948 1_455 S
H192 C190 0.952 . S
H193 C191 0.948 1_655 S
H194 C183 0.952 . S
H195 C185 0.948 . S
C196 C162 1.395 . S
C196 C166 1.391 . S
C197 C159 1.389 . S
C197 C179 1.392 1_455 S
C198 C169 1.392 . S
C198 C171 1.389 . S
C199 C174 1.395 . S
C199 C176 1.391 . S
H200 C160 0.951 . S
H201 C161 0.950 . S
H202 C167 0.949 . S
H203 C168 0.950 . S
H204 C172 0.951 . S
H205 C173 0.950 . S
H206 C177 0.949 . S
H207 C178 0.950 . S
H208 C182 0.950 . S
H209 C184 0.950 . S
H210 C187 0.950 . S
H211 C189 0.950 . S
C212 C213 1.443 . S
C212 N216 1.376 . S
C212 C250 1.389 . S
C213 C212 1.443 . S
C213 C214 1.340 . S
C213 H253 0.951 . S
C214 C213 1.340 . S
C214 C215 1.439 . S
C214 H254 0.950 . S
C215 C214 1.439 . S
C215 N216 1.374 . S
C215 C249 1.395 . S
N216 C212 1.376 . S
N216 C215 1.374 . S
N216 Co217 2.008 . S
Co217 N216 2.008 . S
Co217 N218 1.995 1_556 S
Co217 N223 2.008 1_556 S
Co217 N228 1.995 . S
Co217 N233 2.282 . S
Co217 N239 2.283 . S
N218 Co217 1.995 1_554 S
N218 C219 1.376 1_554 S
N218 C222 1.383 . S
C219 N218 1.376 1_556 S
C219 C220 1.446 1_556 S
C219 C249 1.391 . S
C220 C219 1.446 1_554 S
C220 C221 1.339 . S
C220 H255 0.949 . S
C221 C220 1.339 . S
C221 C222 1.439 . S
C221 H256 0.950 . S
C222 N218 1.383 . S
C222 C221 1.439 . S
C222 C251 1.392 . S
N223 Co217 2.008 1_554 S
N223 C224 1.376 . S
N223 C227 1.374 . S
C224 N223 1.376 . S
C224 C225 1.443 . S
C224 C251 1.389 . S
C225 C224 1.443 . S
C225 C226 1.340 . S
C225 H257 0.951 . S
C226 C225 1.340 . S
C226 C227 1.439 . S
C226 H258 0.950 . S
C227 N223 1.374 . S
C227 C226 1.439 . S
C227 C252 1.395 . S
N228 Co217 1.995 . S
N228 C229 1.376 . S
N228 C232 1.383 . S
C229 N228 1.376 . S
C229 C230 1.446 . S
C229 C252 1.391 1_556 S
C230 C229 1.446 . S
C230 C231 1.339 . S
C230 H259 0.949 . S
C231 C230 1.339 . S
C231 C232 1.439 . S
C231 H260 0.950 . S
C232 N228 1.383 . S
C232 C231 1.439 . S
C232 C250 1.392 . S
N233 Co217 2.282 . S
N233 C236 1.332 . S
N233 C238 1.332 . S
C234 C235 1.389 . S
C234 C237 1.388 . S
C235 C234 1.389 . S
C235 C236 1.388 . S
C235 H261 0.944 1_556 S
C236 N233 1.332 . S
C236 C235 1.388 . S
C236 H247 0.952 . S
C237 C234 1.388 . S
C237 C238 1.382 . S
C237 H262 0.950 . S
C238 N233 1.332 . S
C238 C237 1.382 . S
C238 H248 0.948 . S
N239 Co217 2.283 . S
N239 C243 1.333 . S
N239 C244 1.331 1_556 S
C240 C241 1.388 . S
C240 C244 1.379 1_556 S
C240 H263 0.952 . S
C241 C240 1.388 . S
C241 C242 1.386 . S
C242 C241 1.386 . S
C242 C243 1.382 . S
C242 H264 0.950 . S
C243 N239 1.333 . S
C243 C242 1.382 . S
C243 H245 0.952 . S
C244 N239 1.331 1_554 S
C244 C240 1.379 1_554 S
C244 H246 0.956 . S
H245 C243 0.952 . S
H246 C244 0.956 . S
H247 C236 0.952 . S
H248 C238 0.948 . S
C249 C215 1.395 . S
C249 C219 1.391 . S
C250 C212 1.389 . S
C250 C232 1.392 . S
C251 C222 1.392 . S
C251 C224 1.389 . S
C252 C227 1.395 . S
C252 C229 1.391 1_554 S
H253 C213 0.951 . S
H254 C214 0.950 . S
H255 C220 0.949 . S
H256 C221 0.950 . S
H257 C225 0.951 . S
H258 C226 0.950 . S
H259 C230 0.949 . S
H260 C231 0.950 . S
H261 C235 0.944 1_554 S
H262 C237 0.950 . S
H263 C240 0.952 . S
H264 C242 0.950 . S
C265 C266 1.443 . S
C265 N269 1.376 . S
C265 C303 1.389 1_455 S
C266 C265 1.443 . S
C266 C267 1.340 . S
C266 H306 0.951 . S
C267 C266 1.340 . S
C267 C268 1.439 . S
C267 H307 0.950 . S
C268 C267 1.439 . S
C268 N269 1.374 . S
C268 C302 1.395 . S
N269 C265 1.376 . S
N269 C268 1.374 . S
N269 Co270 2.008 . S
Co270 N269 2.008 . S
Co270 N271 1.995 1_556 S
Co270 N276 2.008 1_556 S
Co270 N281 1.995 1_455 S
Co270 N286 2.282 . S
Co270 N292 2.283 1_455 S
N271 Co270 1.995 1_554 S
N271 C272 1.376 1_554 S
N271 C275 1.383 . S
C272 N271 1.376 1_556 S
C272 C273 1.446 1_556 S
C272 C302 1.391 . S
C273 C272 1.446 1_554 S
C273 C274 1.339 . S
C273 H308 0.949 . S
C274 C273 1.339 . S
C274 C275 1.439 . S
C274 H309 0.950 . S
C275 N271 1.383 . S
C275 C274 1.439 . S
C275 C304 1.392 . S
N276 Co270 2.008 1_554 S
N276 C277 1.376 . S
N276 C280 1.374 1_455 S
C277 N276 1.376 . S
C277 C278 1.443 . S
C277 C304 1.389 . S
C278 C277 1.443 . S
C278 C279 1.340 1_455 S
C278 H310 0.951 . S
C279 C278 1.340 1_655 S
C279 C280 1.439 . S
C279 H311 0.950 . S
C280 N276 1.374 1_655 S
C280 C279 1.439 . S
C280 C305 1.395 . S
N281 Co270 1.995 1_655 S
N281 C282 1.376 . S
N281 C285 1.383 . S
C282 N281 1.376 . S
C282 C283 1.446 . S
C282 C305 1.391 1_556 S
C283 C282 1.446 . S
C283 C284 1.339 . S
C283 H312 0.949 . S
C284 C283 1.339 . S
C284 C285 1.439 . S
C284 H313 0.950 . S
C285 N281 1.383 . S
C285 C284 1.439 . S
C285 C303 1.392 . S
N286 Co270 2.282 . S
N286 C289 1.332 . S
N286 C291 1.332 . S
C287 C288 1.389 . S
C287 C290 1.388 . S
C288 C287 1.389 . S
C288 C289 1.388 . S
C288 H314 0.944 1_556 S
C289 N286 1.332 . S
C289 C288 1.388 . S
C289 H300 0.952 . S
C290 C287 1.388 . S
C290 C291 1.382 . S
C290 H315 0.950 . S
C291 N286 1.332 . S
C291 C290 1.382 . S
C291 H301 0.948 . S
N292 Co270 2.283 1_655 S
N292 C296 1.333 . S
N292 C297 1.331 1_556 S
C293 C294 1.388 . S
C293 C297 1.378 1_556 S
C293 H316 0.952 . S
C294 C293 1.388 . S
C294 C295 1.386 . S
C295 C294 1.386 . S
C295 C296 1.382 . S
C295 H317 0.950 . S
C296 N292 1.333 . S
C296 C295 1.382 . S
C296 H298 0.952 1_655 S
C297 N292 1.331 1_554 S
C297 C293 1.378 1_554 S
C297 H299 0.956 . S
H298 C296 0.952 1_455 S
H299 C297 0.956 . S
H300 C289 0.952 . S
H301 C291 0.948 . S
C302 C268 1.395 . S
C302 C272 1.391 . S
C303 C265 1.389 1_655 S
C303 C285 1.392 . S
C304 C275 1.392 . S
C304 C277 1.389 . S
C305 C280 1.395 . S
C305 C282 1.391 1_554 S
H306 C266 0.951 . S
H307 C267 0.950 . S
H308 C273 0.949 . S
H309 C274 0.950 . S
H310 C278 0.951 . S
H311 C279 0.950 . S
H312 C283 0.949 . S
H313 C284 0.950 . S
H314 C288 0.944 1_554 S
H315 C290 0.950 . S
H316 C293 0.952 . S
H317 C295 0.950 . S
C318 C319 1.443 . S
C318 N322 1.376 . S
C318 C356 1.389 . S
C319 C318 1.443 . S
C319 C320 1.340 . S
C319 H359 0.951 . S
C320 C319 1.340 . S
C320 C321 1.439 . S
C320 H360 0.950 . S
C321 C320 1.439 . S
C321 N322 1.374 . S
C321 C355 1.395 . S
N322 C318 1.376 . S
N322 C321 1.374 . S
N322 Co323 2.008 . S
Co323 N322 2.008 . S
Co323 N324 1.995 . S
Co323 N329 2.008 . S
Co323 N334 1.995 . S
Co323 N339 2.282 . S
Co323 N345 2.282 . S
N324 Co323 1.995 . S
N324 C325 1.376 . S
N324 C328 1.383 . S
C325 N324 1.376 . S
C325 C326 1.446 . S
C325 C355 1.391 . S
C326 C325 1.446 . S
C326 C327 1.339 . S
C326 H361 0.949 . S
C327 C326 1.339 . S
C327 C328 1.439 . S
C327 H362 0.950 . S
C328 N324 1.383 . S
C328 C327 1.439 . S
C328 C357 1.392 . S
N329 Co323 2.008 . S
N329 C330 1.376 . S
N329 C333 1.374 . S
C330 N329 1.376 . S
C330 C331 1.443 . S
C330 C357 1.389 . S
C331 C330 1.443 . S
C331 C332 1.340 . S
C331 H363 0.951 . S
C332 C331 1.340 . S
C332 C333 1.439 . S
C332 H364 0.950 . S
C333 N329 1.374 . S
C333 C332 1.439 . S
C333 C358 1.395 . S
N334 Co323 1.995 . S
N334 C335 1.376 . S
N334 C338 1.383 . S
C335 N334 1.376 . S
C335 C336 1.446 . S
C335 C358 1.391 . S
C336 C335 1.446 . S
C336 C337 1.339 . S
C336 H365 0.949 . S
C337 C336 1.339 . S
C337 C338 1.439 . S
C337 H366 0.950 . S
C338 N334 1.383 . S
C338 C337 1.439 . S
C338 C356 1.392 . S
N339 Co323 2.282 . S
N339 C342 1.332 . S
N339 C344 1.332 . S
C340 C341 1.386 . S
C340 C343 1.388 . S
C341 C340 1.386 . S
C341 C342 1.382 . S
C341 H367 0.950 . S
C342 N339 1.332 . S
C342 C341 1.382 . S
C342 H353 0.952 . S
C343 C340 1.388 . S
C343 C344 1.382 . S
C343 H368 0.950 . S
C344 N339 1.332 . S
C344 C343 1.382 . S
C344 H354 0.948 . S
N345 Co323 2.282 . S
N345 C349 1.332 . S
N345 C350 1.332 . S
C346 C347 1.388 . S
C346 C350 1.382 . S
C346 H369 0.950 . S
C347 C346 1.388 . S
C347 C348 1.386 . S
C348 C347 1.386 . S
C348 C349 1.382 . S
C348 H370 0.950 . S
C349 N345 1.332 . S
C349 C348 1.382 . S
C349 H351 0.952 . S
C350 N345 1.332 . S
C350 C346 1.382 . S
C350 H352 0.948 . S
H351 C349 0.952 . S
H352 C350 0.948 . S
H353 C342 0.952 . S
H354 C344 0.948 . S
C355 C321 1.395 . S
C355 C325 1.391 . S
C356 C318 1.389 . S
C356 C338 1.392 . S
C357 C328 1.392 . S
C357 C330 1.389 . S
C358 C333 1.395 . S
C358 C335 1.391 . S
H359 C319 0.951 . S
H360 C320 0.950 . S
H361 C326 0.949 . S
H362 C327 0.950 . S
H363 C331 0.951 . S
H364 C332 0.950 . S
H365 C336 0.949 . S
H366 C337 0.950 . S
H367 C341 0.950 . S
H368 C343 0.950 . S
H369 C346 0.950 . S
H370 C348 0.950 . S
C371 C372 1.443 . S
C371 N375 1.376 . S
C371 C409 1.389 1_455 S
C372 C371 1.443 . S
C372 C373 1.340 . S
C372 H412 0.951 . S
C373 C372 1.340 . S
C373 C374 1.439 . S
C373 H413 0.950 . S
C374 C373 1.439 . S
C374 N375 1.374 . S
C374 C408 1.395 . S
N375 C371 1.376 . S
N375 C374 1.374 . S
N375 Co376 2.008 . S
Co376 N375 2.008 . S
Co376 N377 1.995 . S
Co376 N382 2.008 . S
Co376 N387 1.995 1_455 S
Co376 N392 2.282 . S
Co376 N398 2.282 1_455 S
N377 Co376 1.995 . S
N377 C378 1.376 . S
N377 C381 1.383 . S
C378 N377 1.376 . S
C378 C379 1.446 . S
C378 C408 1.391 . S
C379 C378 1.446 . S
C379 C380 1.339 . S
C379 H414 0.949 . S
C380 C379 1.339 . S
C380 C381 1.439 . S
C380 H415 0.950 . S
C381 N377 1.383 . S
C381 C380 1.439 . S
C381 C410 1.392 . S
N382 Co376 2.008 . S
N382 C383 1.376 . S
N382 C386 1.374 1_455 S
C383 N382 1.376 . S
C383 C384 1.443 . S
C383 C410 1.389 . S
C384 C383 1.443 . S
C384 C385 1.340 1_455 S
C384 H416 0.951 . S
C385 C384 1.340 1_655 S
C385 C386 1.439 . S
C385 H417 0.950 . S
C386 N382 1.374 1_655 S
C386 C385 1.439 . S
C386 C411 1.395 . S
N387 Co376 1.995 1_655 S
N387 C388 1.376 . S
N387 C391 1.383 . S
C388 N387 1.376 . S
C388 C389 1.446 . S
C388 C411 1.391 . S
C389 C388 1.446 . S
C389 C390 1.339 . S
C389 H418 0.949 . S
C390 C389 1.339 . S
C390 C391 1.439 . S
C390 H419 0.950 . S
C391 N387 1.383 . S
C391 C390 1.439 . S
C391 C409 1.392 . S
N392 Co376 2.282 . S
N392 C395 1.332 . S
N392 C397 1.332 . S
C393 C394 1.386 . S
C393 C396 1.388 . S
C394 C393 1.386 . S
C394 C395 1.382 . S
C394 H420 0.950 . S
C395 N392 1.332 . S
C395 C394 1.382 . S
C395 H406 0.952 . S
C396 C393 1.388 . S
C396 C397 1.382 . S
C396 H421 0.950 . S
C397 N392 1.332 . S
C397 C396 1.382 . S
C397 H407 0.948 . S
N398 Co376 2.282 1_655 S
N398 C402 1.332 . S
N398 C403 1.332 . S
C399 C400 1.388 . S
C399 C403 1.382 . S
C399 H422 0.950 . S
C400 C399 1.388 . S
C400 C401 1.386 . S
C401 C400 1.386 . S
C401 C402 1.382 . S
C401 H423 0.950 . S
C402 N398 1.332 . S
C402 C401 1.382 . S
C402 H404 0.952 1_655 S
C403 N398 1.332 . S
C403 C399 1.382 . S
C403 H405 0.948 . S
H404 C402 0.952 1_455 S
H405 C403 0.948 . S
H406 C395 0.952 . S
H407 C397 0.948 . S
C408 C374 1.395 . S
C408 C378 1.391 . S
C409 C371 1.389 1_655 S
C409 C391 1.392 . S
C410 C381 1.392 . S
C410 C383 1.389 . S
C411 C386 1.395 . S
C411 C388 1.391 . S
H412 C372 0.951 . S
H413 C373 0.950 . S
H414 C379 0.949 . S
H415 C380 0.950 . S
H416 C384 0.951 . S
H417 C385 0.950 . S
H418 C389 0.949 . S
H419 C390 0.950 . S
H420 C394 0.950 . S
H421 C396 0.950 . S
H422 C399 0.950 . S
H423 C401 0.950 . S
C424 C425 1.443 . S
C424 N428 1.376 . S
C424 C462 1.389 . S
C425 C424 1.443 . S
C425 C426 1.340 . S
C425 H465 0.951 . S
C426 C425 1.340 . S
C426 C427 1.439 . S
C426 H466 0.950 . S
C427 C426 1.439 . S
C427 N428 1.374 . S
C427 C461 1.395 . S
N428 C424 1.376 . S
N428 C427 1.374 . S
N428 Co429 2.008 . S
Co429 N428 2.008 . S
Co429 N430 1.995 . S
Co429 N435 2.008 . S
Co429 N440 1.995 . S
Co429 N445 2.282 . S
Co429 N451 2.282 . S
N430 Co429 1.995 . S
N430 C431 1.376 . S
N430 C434 1.383 . S
C431 N430 1.376 . S
C431 C432 1.446 . S
C431 C461 1.391 . S
C432 C431 1.446 . S
C432 C433 1.339 . S
C432 H467 0.949 . S
C433 C432 1.339 . S
C433 C434 1.439 . S
C433 H468 0.950 . S
C434 N430 1.383 . S
C434 C433 1.439 . S
C434 C463 1.392 . S
N435 Co429 2.008 . S
N435 C436 1.376 . S
N435 C439 1.374 . S
C436 N435 1.376 . S
C436 C437 1.443 . S
C436 C463 1.389 . S
C437 C436 1.443 . S
C437 C438 1.340 . S
C437 H469 0.951 . S
C438 C437 1.340 . S
C438 C439 1.439 . S
C438 H470 0.950 . S
C439 N435 1.374 . S
C439 C438 1.439 . S
C439 C464 1.395 . S
N440 Co429 1.995 . S
N440 C441 1.376 . S
N440 C444 1.383 . S
C441 N440 1.376 . S
C441 C442 1.446 . S
C441 C464 1.391 . S
C442 C441 1.446 . S
C442 C443 1.339 . S
C442 H471 0.949 . S
C443 C442 1.339 . S
C443 C444 1.439 . S
C443 H472 0.950 . S
C444 N440 1.383 . S
C444 C443 1.439 . S
C444 C462 1.392 . S
N445 Co429 2.282 . S
N445 C448 1.332 . S
N445 C450 1.332 . S
C446 C447 1.386 . S
C446 C449 1.388 . S
C447 C446 1.386 . S
C447 C448 1.382 . S
C447 H473 0.950 . S
C448 N445 1.332 . S
C448 C447 1.382 . S
C448 H459 0.952 . S
C449 C446 1.388 . S
C449 C450 1.382 . S
C449 H474 0.950 . S
C450 N445 1.332 . S
C450 C449 1.382 . S
C450 H460 0.948 . S
N451 Co429 2.282 . S
N451 C455 1.332 . S
N451 C456 1.332 . S
C452 C453 1.388 . S
C452 C456 1.382 . S
C452 H475 0.950 . S
C453 C452 1.388 . S
C453 C454 1.386 . S
C454 C453 1.386 . S
C454 C455 1.382 . S
C454 H476 0.950 . S
C455 N451 1.332 . S
C455 C454 1.382 . S
C455 H457 0.952 . S
C456 N451 1.332 . S
C456 C452 1.382 . S
C456 H458 0.948 . S
H457 C455 0.952 . S
H458 C456 0.948 . S
H459 C448 0.952 . S
H460 C450 0.948 . S
C461 C427 1.395 . S
C461 C431 1.391 . S
C462 C424 1.389 . S
C462 C444 1.392 . S
C463 C434 1.392 . S
C463 C436 1.389 . S
C464 C439 1.395 . S
C464 C441 1.391 . S
H465 C425 0.951 . S
H466 C426 0.950 . S
H467 C432 0.949 . S
H468 C433 0.950 . S
H469 C437 0.951 . S
H470 C438 0.950 . S
H471 C442 0.949 . S
H472 C443 0.950 . S
H473 C447 0.950 . S
H474 C449 0.950 . S
H475 C452 0.950 . S
H476 C454 0.950 . S
C477 C478 1.443 . S
C477 N481 1.376 . S
C477 C515 1.389 . S
C478 C477 1.443 . S
C478 C479 1.340 . S
C478 H518 0.951 . S
C479 C478 1.340 . S
C479 C480 1.439 . S
C479 H519 0.950 . S
C480 C479 1.439 . S
C480 N481 1.374 . S
C480 C514 1.395 . S
N481 C477 1.376 . S
N481 C480 1.374 . S
N481 Co482 2.008 1_455 S
Co482 N481 2.008 1_655 S
Co482 N483 1.995 . S
Co482 N488 2.008 . S
Co482 N493 1.995 . S
Co482 N498 2.282 . S
Co482 N504 2.282 1_655 S
N483 Co482 1.995 . S
N483 C484 1.376 1_655 S
N483 C487 1.383 . S
C484 N483 1.376 1_455 S
C484 C485 1.446 . S
C484 C514 1.391 . S
C485 C484 1.446 . S
C485 C486 1.339 1_455 S
C485 H520 0.949 . S
C486 C485 1.339 1_655 S
C486 C487 1.439 . S
C486 H521 0.950 . S
C487 N483 1.383 . S
C487 C486 1.439 . S
C487 C516 1.392 . S
N488 Co482 2.008 . S
N488 C489 1.376 . S
N488 C492 1.374 . S
C489 N488 1.376 . S
C489 C490 1.443 . S
C489 C516 1.389 . S
C490 C489 1.443 . S
C490 C491 1.340 . S
C490 H522 0.951 . S
C491 C490 1.340 . S
C491 C492 1.439 . S
C491 H523 0.950 . S
C492 N488 1.374 . S
C492 C491 1.439 . S
C492 C517 1.395 . S
N493 Co482 1.995 . S
N493 C494 1.376 . S
N493 C497 1.383 . S
C494 N493 1.376 . S
C494 C495 1.446 . S
C494 C517 1.391 . S
C495 C494 1.446 . S
C495 C496 1.339 . S
C495 H524 0.949 . S
C496 C495 1.339 . S
C496 C497 1.439 . S
C496 H525 0.950 . S
C497 N493 1.383 . S
C497 C496 1.439 . S
C497 C515 1.392 1_655 S
N498 Co482 2.282 . S
N498 C501 1.332 . S
N498 C503 1.332 . S
C499 C500 1.386 . S
C499 C502 1.388 . S
C500 C499 1.386 . S
C500 C501 1.382 . S
C500 H526 0.950 . S
C501 N498 1.332 . S
C501 C500 1.382 . S
C501 H512 0.952 . S
C502 C499 1.388 . S
C502 C503 1.382 . S
C502 H527 0.950 . S
C503 N498 1.332 . S
C503 C502 1.382 . S
C503 H513 0.948 . S
N504 Co482 2.282 1_455 S
N504 C508 1.332 . S
N504 C509 1.332 . S
C505 C506 1.388 . S
C505 C509 1.382 . S
C505 H528 0.950 . S
C506 C505 1.388 . S
C506 C507 1.386 . S
C507 C506 1.386 . S
C507 C508 1.382 . S
C507 H529 0.950 . S
C508 N504 1.332 . S
C508 C507 1.382 . S
C508 H510 0.952 . S
C509 N504 1.332 . S
C509 C505 1.382 . S
C509 H511 0.948 1_455 S
H510 C508 0.952 . S
H511 C509 0.948 1_655 S
H512 C501 0.952 . S
H513 C503 0.948 . S
C514 C480 1.395 . S
C514 C484 1.391 . S
C515 C477 1.389 . S
C515 C497 1.392 1_455 S
C516 C487 1.392 . S
C516 C489 1.389 . S
C517 C492 1.395 . S
C517 C494 1.391 . S
H518 C478 0.951 . S
H519 C479 0.950 . S
H520 C485 0.949 . S
H521 C486 0.950 . S
H522 C490 0.951 . S
H523 C491 0.950 . S
H524 C495 0.949 . S
H525 C496 0.950 . S
H526 C500 0.950 . S
H527 C502 0.950 . S
H528 C505 0.950 . S
H529 C507 0.950 . S
C530 C531 1.443 . S
C530 N534 1.376 . S
C530 C568 1.389 . S
C531 C530 1.443 . S
C531 C532 1.340 . S
C531 H571 0.951 . S
C532 C531 1.340 . S
C532 C533 1.439 . S
C532 H572 0.950 . S
C533 C532 1.439 . S
C533 N534 1.374 . S
C533 C567 1.395 . S
N534 C530 1.376 . S
N534 C533 1.374 . S
N534 Co535 2.008 . S
Co535 N534 2.008 . S
Co535 N536 1.995 . S
Co535 N541 2.008 . S
Co535 N546 1.995 . S
Co535 N551 2.282 . S
Co535 N557 2.282 . S
N536 Co535 1.995 . S
N536 C537 1.376 . S
N536 C540 1.383 . S
C537 N536 1.376 . S
C537 C538 1.446 . S
C537 C567 1.391 . S
C538 C537 1.446 . S
C538 C539 1.339 . S
C538 H573 0.949 . S
C539 C538 1.339 . S
C539 C540 1.439 . S
C539 H574 0.950 . S
C540 N536 1.383 . S
C540 C539 1.439 . S
C540 C569 1.392 . S
N541 Co535 2.008 . S
N541 C542 1.376 . S
N541 C545 1.374 . S
C542 N541 1.376 . S
C542 C543 1.443 . S
C542 C569 1.389 . S
C543 C542 1.443 . S
C543 C544 1.340 . S
C543 H575 0.951 . S
C544 C543 1.340 . S
C544 C545 1.439 . S
C544 H576 0.950 . S
C545 N541 1.374 . S
C545 C544 1.439 . S
C545 C570 1.395 . S
N546 Co535 1.995 . S
N546 C547 1.376 . S
N546 C550 1.383 . S
C547 N546 1.376 . S
C547 C548 1.446 . S
C547 C570 1.391 . S
C548 C547 1.446 . S
C548 C549 1.339 . S
C548 H577 0.949 . S
C549 C548 1.339 . S
C549 C550 1.439 . S
C549 H578 0.950 . S
C550 N546 1.383 . S
C550 C549 1.439 . S
C550 C568 1.392 . S
N551 Co535 2.282 . S
N551 C554 1.332 . S
N551 C556 1.332 . S
C552 C553 1.386 . S
C552 C555 1.388 . S
C553 C552 1.386 . S
C553 C554 1.382 . S
C553 H579 0.950 . S
C554 N551 1.332 . S
C554 C553 1.382 . S
C554 H565 0.952 . S
C555 C552 1.388 . S
C555 C556 1.382 . S
C555 H580 0.950 . S
C556 N551 1.332 . S
C556 C555 1.382 . S
C556 H566 0.948 . S
N557 Co535 2.282 . S
N557 C561 1.332 . S
N557 C562 1.332 . S
C558 C559 1.388 . S
C558 C562 1.382 . S
C558 H581 0.950 . S
C559 C558 1.388 . S
C559 C560 1.386 . S
C560 C559 1.386 . S
C560 C561 1.382 . S
C560 H582 0.950 . S
C561 N557 1.332 . S
C561 C560 1.382 . S
C561 H563 0.952 . S
C562 N557 1.332 . S
C562 C558 1.382 . S
C562 H564 0.948 . S
H563 C561 0.952 . S
H564 C562 0.948 . S
H565 C554 0.952 . S
H566 C556 0.948 . S
C567 C533 1.395 . S
C567 C537 1.391 . S
C568 C530 1.389 . S
C568 C550 1.392 . S
C569 C540 1.392 . S
C569 C542 1.389 . S
C570 C545 1.395 . S
C570 C547 1.391 . S
H571 C531 0.951 . S
H572 C532 0.950 . S
H573 C538 0.949 . S
H574 C539 0.950 . S
H575 C543 0.951 . S
H576 C544 0.950 . S
H577 C548 0.949 . S
H578 C549 0.950 . S
H579 C553 0.950 . S
H580 C555 0.950 . S
H581 C558 0.950 . S
H582 C560 0.950 . S
C583 C584 1.443 . S
C583 N587 1.376 . S
C583 C621 1.389 . S
C584 C583 1.443 . S
C584 C585 1.340 . S
C584 H624 0.951 . S
C585 C584 1.340 . S
C585 C586 1.439 . S
C585 H625 0.950 . S
C586 C585 1.439 . S
C586 N587 1.374 . S
C586 C620 1.395 . S
N587 C583 1.376 . S
N587 C586 1.374 . S
N587 Co588 2.008 1_455 S
Co588 N587 2.008 1_655 S
Co588 N589 1.995 . S
Co588 N594 2.008 . S
Co588 N599 1.995 . S
Co588 N604 2.282 . S
Co588 N610 2.282 1_655 S
N589 Co588 1.995 . S
N589 C590 1.376 1_655 S
N589 C593 1.383 . S
C590 N589 1.376 1_455 S
C590 C591 1.446 . S
C590 C620 1.391 . S
C591 C590 1.446 . S
C591 C592 1.339 1_455 S
C591 H626 0.949 . S
C592 C591 1.339 1_655 S
C592 C593 1.439 . S
C592 H627 0.950 . S
C593 N589 1.383 . S
C593 C592 1.439 . S
C593 C622 1.392 . S
N594 Co588 2.008 . S
N594 C595 1.376 . S
N594 C598 1.374 . S
C595 N594 1.376 . S
C595 C596 1.443 . S
C595 C622 1.389 . S
C596 C595 1.443 . S
C596 C597 1.340 . S
C596 H628 0.951 . S
C597 C596 1.340 . S
C597 C598 1.439 . S
C597 H629 0.950 . S
C598 N594 1.374 . S
C598 C597 1.439 . S
C598 C623 1.395 . S
N599 Co588 1.995 . S
N599 C600 1.376 . S
N599 C603 1.383 . S
C600 N599 1.376 . S
C600 C601 1.446 . S
C600 C623 1.391 . S
C601 C600 1.446 . S
C601 C602 1.339 . S
C601 H630 0.949 . S
C602 C601 1.339 . S
C602 C603 1.439 . S
C602 H631 0.950 . S
C603 N599 1.383 . S
C603 C602 1.439 . S
C603 C621 1.392 1_655 S
N604 Co588 2.282 . S
N604 C607 1.332 . S
N604 C609 1.332 . S
C605 C606 1.386 . S
C605 C608 1.388 . S
C606 C605 1.386 . S
C606 C607 1.382 . S
C606 H632 0.950 . S
C607 N604 1.332 . S
C607 C606 1.382 . S
C607 H618 0.952 . S
C608 C605 1.388 . S
C608 C609 1.382 . S
C608 H633 0.950 . S
C609 N604 1.332 . S
C609 C608 1.382 . S
C609 H619 0.948 . S
N610 Co588 2.282 1_455 S
N610 C614 1.332 . S
N610 C615 1.332 . S
C611 C612 1.388 . S
C611 C615 1.382 . S
C611 H634 0.950 . S
C612 C611 1.388 . S
C612 C613 1.386 . S
C613 C612 1.386 . S
C613 C614 1.382 . S
C613 H635 0.950 . S
C614 N610 1.332 . S
C614 C613 1.382 . S
C614 H616 0.952 . S
C615 N610 1.332 . S
C615 C611 1.382 . S
C615 H617 0.948 1_455 S
H616 C614 0.952 . S
H617 C615 0.948 1_655 S
H618 C607 0.952 . S
H619 C609 0.948 . S
C620 C586 1.395 . S
C620 C590 1.391 . S
C621 C583 1.389 . S
C621 C603 1.392 1_455 S
C622 C593 1.392 . S
C622 C595 1.389 . S
C623 C598 1.395 . S
C623 C600 1.391 . S
H624 C584 0.951 . S
H625 C585 0.950 . S
H626 C591 0.949 . S
H627 C592 0.950 . S
H628 C596 0.951 . S
H629 C597 0.950 . S
H630 C601 0.949 . S
H631 C602 0.950 . S
H632 C606 0.950 . S
H633 C608 0.950 . S
H634 C611 0.950 . S
H635 C613 0.950 . S
C636 C637 1.443 . S
C636 N640 1.376 . S
C636 C674 1.389 . S
C637 C636 1.443 . S
C637 C638 1.340 . S
C637 H677 0.951 . S
C638 C637 1.340 . S
C638 C639 1.439 . S
C638 H678 0.950 . S
C639 C638 1.439 . S
C639 N640 1.374 . S
C639 C673 1.395 . S
N640 C636 1.376 . S
N640 C639 1.374 . S
N640 Co641 2.008 . S
Co641 N640 2.008 . S
Co641 N642 1.995 . S
Co641 N647 2.008 . S
Co641 N652 1.995 . S
Co641 N657 2.282 . S
Co641 N663 2.282 . S
N642 Co641 1.995 . S
N642 C643 1.376 . S
N642 C646 1.383 . S
C643 N642 1.376 . S
C643 C644 1.446 . S
C643 C673 1.391 . S
C644 C643 1.446 . S
C644 C645 1.339 . S
C644 H679 0.949 . S
C645 C644 1.339 . S
C645 C646 1.439 . S
C645 H680 0.950 . S
C646 N642 1.383 . S
C646 C645 1.439 . S
C646 C675 1.392 . S
N647 Co641 2.008 . S
N647 C648 1.376 . S
N647 C651 1.374 . S
C648 N647 1.376 . S
C648 C649 1.443 . S
C648 C675 1.389 . S
C649 C648 1.443 . S
C649 C650 1.340 . S
C649 H681 0.951 . S
C650 C649 1.340 . S
C650 C651 1.439 . S
C650 H682 0.950 . S
C651 N647 1.374 . S
C651 C650 1.439 . S
C651 C676 1.395 . S
N652 Co641 1.995 . S
N652 C653 1.376 . S
N652 C656 1.383 . S
C653 N652 1.376 . S
C653 C654 1.446 . S
C653 C676 1.391 . S
C654 C653 1.446 . S
C654 C655 1.339 . S
C654 H683 0.949 . S
C655 C654 1.339 . S
C655 C656 1.439 . S
C655 H684 0.950 . S
C656 N652 1.383 . S
C656 C655 1.439 . S
C656 C674 1.392 . S
N657 Co641 2.282 . S
N657 C660 1.332 . S
N657 C662 1.332 . S
C658 C659 1.386 . S
C658 C661 1.388 . S
C659 C658 1.386 . S
C659 C660 1.382 . S
C659 H685 0.950 . S
C660 N657 1.332 . S
C660 C659 1.382 . S
C660 H671 0.952 . S
C661 C658 1.388 . S
C661 C662 1.382 . S
C661 H686 0.950 . S
C662 N657 1.332 . S
C662 C661 1.382 . S
C662 H672 0.948 . S
N663 Co641 2.282 . S
N663 C667 1.332 . S
N663 C668 1.332 . S
C664 C665 1.388 . S
C664 C668 1.382 . S
C664 H687 0.950 . S
C665 C664 1.388 . S
C665 C666 1.386 . S
C666 C665 1.386 . S
C666 C667 1.382 . S
C666 H688 0.950 . S
C667 N663 1.332 . S
C667 C666 1.382 . S
C667 H669 0.952 . S
C668 N663 1.332 . S
C668 C664 1.382 . S
C668 H670 0.948 . S
H669 C667 0.952 . S
H670 C668 0.948 . S
H671 C660 0.952 . S
H672 C662 0.948 . S
C673 C639 1.395 . S
C673 C643 1.391 . S
C674 C636 1.389 . S
C674 C656 1.392 . S
C675 C646 1.392 . S
C675 C648 1.389 . S
C676 C651 1.395 . S
C676 C653 1.391 . S
H677 C637 0.951 . S
H678 C638 0.950 . S
H679 C644 0.949 . S
H680 C645 0.950 . S
H681 C649 0.951 . S
H682 C650 0.950 . S
H683 C654 0.949 . S
H684 C655 0.950 . S
H685 C659 0.950 . S
H686 C661 0.950 . S
H687 C664 0.950 . S
H688 C666 0.950 . S
C689 C690 1.443 . S
C689 N693 1.376 . S
C689 C727 1.389 1_455 S
C690 C689 1.443 . S
C690 C691 1.340 . S
C690 H730 0.951 . S
C691 C690 1.340 . S
C691 C692 1.439 . S
C691 H731 0.950 . S
C692 C691 1.439 . S
C692 N693 1.374 . S
C692 C726 1.395 . S
N693 C689 1.376 . S
N693 C692 1.374 . S
N693 Co694 2.008 . S
Co694 N693 2.008 . S
Co694 N695 1.995 . S
Co694 N700 2.008 . S
Co694 N705 1.995 1_455 S
Co694 N710 2.282 . S
Co694 N716 2.282 1_455 S
N695 Co694 1.995 . S
N695 C696 1.376 . S
N695 C699 1.383 . S
C696 N695 1.376 . S
C696 C697 1.446 . S
C696 C726 1.391 . S
C697 C696 1.446 . S
C697 C698 1.339 . S
C697 H732 0.949 . S
C698 C697 1.339 . S
C698 C699 1.439 . S
C698 H733 0.950 . S
C699 N695 1.383 . S
C699 C698 1.439 . S
C699 C728 1.392 . S
N700 Co694 2.008 . S
N700 C701 1.376 . S
N700 C704 1.374 1_455 S
C701 N700 1.376 . S
C701 C702 1.443 . S
C701 C728 1.389 . S
C702 C701 1.443 . S
C702 C703 1.340 1_455 S
C702 H734 0.951 . S
C703 C702 1.340 1_655 S
C703 C704 1.439 . S
C703 H735 0.950 . S
C704 N700 1.374 1_655 S
C704 C703 1.439 . S
C704 C729 1.395 . S
N705 Co694 1.995 1_655 S
N705 C706 1.376 . S
N705 C709 1.383 . S
C706 N705 1.376 . S
C706 C707 1.446 . S
C706 C729 1.391 . S
C707 C706 1.446 . S
C707 C708 1.339 . S
C707 H736 0.949 . S
C708 C707 1.339 . S
C708 C709 1.439 . S
C708 H737 0.950 . S
C709 N705 1.383 . S
C709 C708 1.439 . S
C709 C727 1.392 . S
N710 Co694 2.282 . S
N710 C713 1.332 . S
N710 C715 1.332 . S
C711 C712 1.386 . S
C711 C714 1.388 . S
C712 C711 1.386 . S
C712 C713 1.382 . S
C712 H738 0.950 . S
C713 N710 1.332 . S
C713 C712 1.382 . S
C713 H724 0.952 . S
C714 C711 1.388 . S
C714 C715 1.382 . S
C714 H739 0.950 . S
C715 N710 1.332 . S
C715 C714 1.382 . S
C715 H725 0.948 . S
N716 Co694 2.282 1_655 S
N716 C720 1.332 . S
N716 C721 1.332 . S
C717 C718 1.388 . S
C717 C721 1.382 . S
C717 H740 0.950 . S
C718 C717 1.388 . S
C718 C719 1.386 . S
C719 C718 1.386 . S
C719 C720 1.382 . S
C719 H741 0.950 . S
C720 N716 1.332 . S
C720 C719 1.382 . S
C720 H722 0.952 1_655 S
C721 N716 1.332 . S
C721 C717 1.382 . S
C721 H723 0.948 . S
H722 C720 0.952 1_455 S
H723 C721 0.948 . S
H724 C713 0.952 . S
H725 C715 0.948 . S
C726 C692 1.395 . S
C726 C696 1.391 . S
C727 C689 1.389 1_655 S
C727 C709 1.392 . S
C728 C699 1.392 . S
C728 C701 1.389 . S
C729 C704 1.395 . S
C729 C706 1.391 . S
H730 C690 0.951 . S
H731 C691 0.950 . S
H732 C697 0.949 . S
H733 C698 0.950 . S
H734 C702 0.951 . S
H735 C703 0.950 . S
H736 C707 0.949 . S
H737 C708 0.950 . S
H738 C712 0.950 . S
H739 C714 0.950 . S
H740 C717 0.950 . S
H741 C719 0.950 . S
C742 C743 1.443 . S
C742 N746 1.376 . S
C742 C780 1.389 . S
C743 C742 1.443 . S
C743 C744 1.340 . S
C743 H783 0.951 . S
C744 C743 1.340 . S
C744 C745 1.439 . S
C744 H784 0.950 . S
C745 C744 1.439 . S
C745 N746 1.374 . S
C745 C779 1.395 . S
N746 C742 1.376 . S
N746 C745 1.374 . S
N746 Co747 2.008 . S
Co747 N746 2.008 . S
Co747 N748 1.995 . S
Co747 N753 2.008 . S
Co747 N758 1.995 . S
Co747 N763 2.282 . S
Co747 N769 2.282 . S
N748 Co747 1.995 . S
N748 C749 1.376 . S
N748 C752 1.383 . S
C749 N748 1.376 . S
C749 C750 1.446 . S
C749 C779 1.391 . S
C750 C749 1.446 . S
C750 C751 1.339 . S
C750 H785 0.949 . S
C751 C750 1.339 . S
C751 C752 1.439 . S
C751 H786 0.950 . S
C752 N748 1.383 . S
C752 C751 1.439 . S
C752 C781 1.392 . S
N753 Co747 2.008 . S
N753 C754 1.376 . S
N753 C757 1.374 . S
C754 N753 1.376 . S
C754 C755 1.443 . S
C754 C781 1.389 . S
C755 C754 1.443 . S
C755 C756 1.340 . S
C755 H787 0.951 . S
C756 C755 1.340 . S
C756 C757 1.439 . S
C756 H788 0.950 . S
C757 N753 1.374 . S
C757 C756 1.439 . S
C757 C782 1.395 . S
N758 Co747 1.995 . S
N758 C759 1.376 . S
N758 C762 1.383 . S
C759 N758 1.376 . S
C759 C760 1.446 . S
C759 C782 1.391 . S
C760 C759 1.446 . S
C760 C761 1.339 . S
C760 H789 0.949 . S
C761 C760 1.339 . S
C761 C762 1.439 . S
C761 H790 0.950 . S
C762 N758 1.383 . S
C762 C761 1.439 . S
C762 C780 1.392 . S
N763 Co747 2.282 . S
N763 C766 1.332 . S
N763 C768 1.332 . S
C764 C765 1.386 . S
C764 C767 1.388 . S
C765 C764 1.386 . S
C765 C766 1.382 . S
C765 H791 0.950 . S
C766 N763 1.332 . S
C766 C765 1.382 . S
C766 H777 0.952 . S
C767 C764 1.388 . S
C767 C768 1.382 . S
C767 H792 0.950 . S
C768 N763 1.332 . S
C768 C767 1.382 . S
C768 H778 0.948 . S
N769 Co747 2.282 . S
N769 C773 1.332 . S
N769 C774 1.332 . S
C770 C771 1.388 . S
C770 C774 1.382 . S
C770 H793 0.950 . S
C771 C770 1.388 . S
C771 C772 1.386 . S
C772 C771 1.386 . S
C772 C773 1.382 . S
C772 H794 0.950 . S
C773 N769 1.332 . S
C773 C772 1.382 . S
C773 H775 0.952 . S
C774 N769 1.332 . S
C774 C770 1.382 . S
C774 H776 0.948 . S
H775 C773 0.952 . S
H776 C774 0.948 . S
H777 C766 0.952 . S
H778 C768 0.948 . S
C779 C745 1.395 . S
C779 C749 1.391 . S
C780 C742 1.389 . S
C780 C762 1.392 . S
C781 C752 1.392 . S
C781 C754 1.389 . S
C782 C757 1.395 . S
C782 C759 1.391 . S
H783 C743 0.951 . S
H784 C744 0.950 . S
H785 C750 0.949 . S
H786 C751 0.950 . S
H787 C755 0.951 . S
H788 C756 0.950 . S
H789 C760 0.949 . S
H790 C761 0.950 . S
H791 C765 0.950 . S
H792 C767 0.950 . S
H793 C770 0.950 . S
H794 C772 0.950 . S
C795 C796 1.443 . S
C795 N799 1.376 . S
C795 C833 1.389 1_455 S
C796 C795 1.443 . S
C796 C797 1.340 . S
C796 H836 0.951 . S
C797 C796 1.340 . S
C797 C798 1.439 . S
C797 H837 0.950 . S
C798 C797 1.439 . S
C798 N799 1.374 . S
C798 C832 1.395 . S
N799 C795 1.376 . S
N799 C798 1.374 . S
N799 Co800 2.008 . S
Co800 N799 2.008 . S
Co800 N801 1.995 . S
Co800 N806 2.008 . S
Co800 N811 1.995 1_455 S
Co800 N816 2.282 . S
Co800 N822 2.282 1_455 S
N801 Co800 1.995 . S
N801 C802 1.376 . S
N801 C805 1.383 . S
C802 N801 1.376 . S
C802 C803 1.446 . S
C802 C832 1.391 . S
C803 C802 1.446 . S
C803 C804 1.339 . S
C803 H838 0.949 . S
C804 C803 1.339 . S
C804 C805 1.439 . S
C804 H839 0.950 . S
C805 N801 1.383 . S
C805 C804 1.439 . S
C805 C834 1.392 . S
N806 Co800 2.008 . S
N806 C807 1.376 . S
N806 C810 1.374 1_455 S
C807 N806 1.376 . S
C807 C808 1.443 . S
C807 C834 1.389 . S
C808 C807 1.443 . S
C808 C809 1.340 1_455 S
C808 H840 0.951 . S
C809 C808 1.340 1_655 S
C809 C810 1.439 . S
C809 H841 0.950 . S
C810 N806 1.374 1_655 S
C810 C809 1.439 . S
C810 C835 1.395 . S
N811 Co800 1.995 1_655 S
N811 C812 1.376 . S
N811 C815 1.383 . S
C812 N811 1.376 . S
C812 C813 1.446 . S
C812 C835 1.391 . S
C813 C812 1.446 . S
C813 C814 1.339 . S
C813 H842 0.949 . S
C814 C813 1.339 . S
C814 C815 1.439 . S
C814 H843 0.950 . S
C815 N811 1.383 . S
C815 C814 1.439 . S
C815 C833 1.392 . S
N816 Co800 2.282 . S
N816 C819 1.332 . S
N816 C821 1.332 . S
C817 C818 1.386 . S
C817 C820 1.388 . S
C818 C817 1.386 . S
C818 C819 1.382 . S
C818 H844 0.950 . S
C819 N816 1.332 . S
C819 C818 1.382 . S
C819 H830 0.952 . S
C820 C817 1.388 . S
C820 C821 1.382 . S
C820 H845 0.950 . S
C821 N816 1.332 . S
C821 C820 1.382 . S
C821 H831 0.948 . S
N822 Co800 2.282 1_655 S
N822 C826 1.332 . S
N822 C827 1.332 . S
C823 C824 1.388 . S
C823 C827 1.382 . S
C823 H846 0.950 . S
C824 C823 1.388 . S
C824 C825 1.386 . S
C825 C824 1.386 . S
C825 C826 1.382 . S
C825 H847 0.950 . S
C826 N822 1.332 . S
C826 C825 1.382 . S
C826 H828 0.952 1_655 S
C827 N822 1.332 . S
C827 C823 1.382 . S
C827 H829 0.948 . S
H828 C826 0.952 1_455 S
H829 C827 0.948 . S
H830 C819 0.952 . S
H831 C821 0.948 . S
C832 C798 1.395 . S
C832 C802 1.391 . S
C833 C795 1.389 1_655 S
C833 C815 1.392 . S
C834 C805 1.392 . S
C834 C807 1.389 . S
C835 C810 1.395 . S
C835 C812 1.391 . S
H836 C796 0.951 . S
H837 C797 0.950 . S
H838 C803 0.949 . S
H839 C804 0.950 . S
H840 C808 0.951 . S
H841 C809 0.950 . S
H842 C813 0.949 . S
H843 C814 0.950 . S
H844 C818 0.950 . S
H845 C820 0.950 . S
H846 C823 0.950 . S
H847 C825 0.950 . S
C848 C849 1.443 . S
C848 N852 1.376 . S
C848 C886 1.389 . S
C849 C848 1.443 . S
C849 C850 1.340 . S
C849 H889 0.951 . S
C850 C849 1.340 . S
C850 C851 1.439 . S
C850 H890 0.950 . S
C851 C850 1.439 . S
C851 N852 1.374 . S
C851 C885 1.395 . S
N852 C848 1.376 . S
N852 C851 1.374 . S
N852 Co853 2.008 . S
Co853 N852 2.008 . S
Co853 N854 1.995 . S
Co853 N859 2.008 . S
Co853 N864 1.995 . S
Co853 N869 2.282 . S
Co853 N875 2.282 . S
N854 Co853 1.995 . S
N854 C855 1.376 . S
N854 C858 1.383 . S
C855 N854 1.376 . S
C855 C856 1.446 . S
C855 C885 1.391 . S
C856 C855 1.446 . S
C856 C857 1.339 . S
C856 H891 0.949 . S
C857 C856 1.339 . S
C857 C858 1.439 . S
C857 H892 0.950 . S
C858 N854 1.383 . S
C858 C857 1.439 . S
C858 C887 1.392 . S
N859 Co853 2.008 . S
N859 C860 1.376 . S
N859 C863 1.374 . S
C860 N859 1.376 . S
C860 C861 1.443 . S
C860 C887 1.389 . S
C861 C860 1.443 . S
C861 C862 1.340 . S
C861 H893 0.951 . S
C862 C861 1.340 . S
C862 C863 1.439 . S
C862 H894 0.950 . S
C863 N859 1.374 . S
C863 C862 1.439 . S
C863 C888 1.395 . S
N864 Co853 1.995 . S
N864 C865 1.376 . S
N864 C868 1.383 . S
C865 N864 1.376 . S
C865 C866 1.446 . S
C865 C888 1.391 . S
C866 C865 1.446 . S
C866 C867 1.339 . S
C866 H895 0.949 . S
C867 C866 1.339 . S
C867 C868 1.439 . S
C867 H896 0.950 . S
C868 N864 1.383 . S
C868 C867 1.439 . S
C868 C886 1.392 . S
N869 Co853 2.282 . S
N869 C872 1.332 . S
N869 C874 1.332 . S
C870 C871 1.386 . S
C870 C873 1.388 . S
C871 C870 1.386 . S
C871 C872 1.382 . S
C871 H897 0.950 . S
C872 N869 1.332 . S
C872 C871 1.382 . S
C872 H883 0.952 . S
C873 C870 1.388 . S
C873 C874 1.382 . S
C873 H898 0.950 . S
C874 N869 1.332 . S
C874 C873 1.382 . S
C874 H884 0.948 . S
N875 Co853 2.282 . S
N875 C879 1.332 . S
N875 C880 1.332 . S
C876 C877 1.388 . S
C876 C880 1.382 . S
C876 H899 0.950 . S
C877 C876 1.388 . S
C877 C878 1.386 . S
C878 C877 1.386 . S
C878 C879 1.382 . S
C878 H900 0.950 . S
C879 N875 1.332 . S
C879 C878 1.382 . S
C879 H881 0.952 . S
C880 N875 1.332 . S
C880 C876 1.382 . S
C880 H882 0.948 . S
H881 C879 0.952 . S
H882 C880 0.948 . S
H883 C872 0.952 . S
H884 C874 0.948 . S
C885 C851 1.395 . S
C885 C855 1.391 . S
C886 C848 1.389 . S
C886 C868 1.392 . S
C887 C858 1.392 . S
C887 C860 1.389 . S
C888 C863 1.395 . S
C888 C865 1.391 . S
H889 C849 0.951 . S
H890 C850 0.950 . S
H891 C856 0.949 . S
H892 C857 0.950 . S
H893 C861 0.951 . S
H894 C862 0.950 . S
H895 C866 0.949 . S
H896 C867 0.950 . S
H897 C871 0.950 . S
H898 C873 0.950 . S
H899 C876 0.950 . S
H900 C878 0.950 . S
C901 C902 1.443 . S
C901 N905 1.376 . S
C901 C939 1.389 . S
C902 C901 1.443 . S
C902 C903 1.340 . S
C902 H942 0.951 . S
C903 C902 1.340 . S
C903 C904 1.439 . S
C903 H943 0.950 . S
C904 C903 1.439 . S
C904 N905 1.374 . S
C904 C938 1.395 . S
N905 C901 1.376 . S
N905 C904 1.374 . S
N905 Co906 2.008 . S
Co906 N905 2.008 . S
Co906 N907 1.995 . S
Co906 N912 2.008 . S
Co906 N917 1.995 . S
Co906 N922 2.282 . S
Co906 N928 2.282 . S
N907 Co906 1.995 . S
N907 C908 1.376 . S
N907 C911 1.383 . S
C908 N907 1.376 . S
C908 C909 1.446 . S
C908 C938 1.391 . S
C909 C908 1.446 . S
C909 C910 1.339 . S
C909 H944 0.949 . S
C910 C909 1.339 . S
C910 C911 1.439 . S
C910 H945 0.950 . S
C911 N907 1.383 . S
C911 C910 1.439 . S
C911 C940 1.392 . S
N912 Co906 2.008 . S
N912 C913 1.376 . S
N912 C916 1.374 . S
C913 N912 1.376 . S
C913 C914 1.443 . S
C913 C940 1.389 . S
C914 C913 1.443 . S
C914 C915 1.340 . S
C914 H946 0.951 . S
C915 C914 1.340 . S
C915 C916 1.439 . S
C915 H947 0.950 . S
C916 N912 1.374 . S
C916 C915 1.439 . S
C916 C941 1.395 . S
N917 Co906 1.995 . S
N917 C918 1.376 . S
N917 C921 1.383 . S
C918 N917 1.376 . S
C918 C919 1.446 . S
C918 C941 1.391 . S
C919 C918 1.446 . S
C919 C920 1.339 . S
C919 H948 0.949 . S
C920 C919 1.339 . S
C920 C921 1.439 . S
C920 H949 0.950 . S
C921 N917 1.383 . S
C921 C920 1.439 . S
C921 C939 1.392 . S
N922 Co906 2.282 . S
N922 C925 1.332 . S
N922 C927 1.332 . S
C923 C924 1.386 . S
C923 C926 1.388 . S
C924 C923 1.386 . S
C924 C925 1.382 . S
C924 H950 0.950 . S
C925 N922 1.332 . S
C925 C924 1.382 . S
C925 H936 0.952 . S
C926 C923 1.388 . S
C926 C927 1.382 . S
C926 H951 0.950 . S
C927 N922 1.332 . S
C927 C926 1.382 . S
C927 H937 0.948 . S
N928 Co906 2.282 . S
N928 C932 1.332 . S
N928 C933 1.332 . S
C929 C930 1.388 . S
C929 C933 1.382 . S
C929 H952 0.950 . S
C930 C929 1.388 . S
C930 C931 1.386 . S
C931 C930 1.386 . S
C931 C932 1.382 . S
C931 H953 0.950 . S
C932 N928 1.332 . S
C932 C931 1.382 . S
C932 H934 0.952 . S
C933 N928 1.332 . S
C933 C929 1.382 . S
C933 H935 0.948 . S
H934 C932 0.952 . S
H935 C933 0.948 . S
H936 C925 0.952 . S
H937 C927 0.948 . S
C938 C904 1.395 . S
C938 C908 1.391 . S
C939 C901 1.389 . S
C939 C921 1.392 . S
C940 C911 1.392 . S
C940 C913 1.389 . S
C941 C916 1.395 . S
C941 C918 1.391 . S
H942 C902 0.951 . S
H943 C903 0.950 . S
H944 C909 0.949 . S
H945 C910 0.950 . S
H946 C914 0.951 . S
H947 C915 0.950 . S
H948 C919 0.949 . S
H949 C920 0.950 . S
H950 C924 0.950 . S
H951 C926 0.950 . S
H952 C929 0.950 . S
H953 C931 0.950 . S
C954 C955 1.443 . S
C954 N958 1.376 . S
C954 C992 1.389 . S
C955 C954 1.443 . S
C955 C956 1.340 . S
C955 H995 0.951 . S
C956 C955 1.340 . S
C956 C957 1.439 . S
C956 H996 0.950 . S
C957 C956 1.439 . S
C957 N958 1.374 . S
C957 C991 1.395 . S
N958 C954 1.376 . S
N958 C957 1.374 . S
N958 Co959 2.008 . S
Co959 N958 2.008 . S
Co959 N960 1.995 . S
Co959 N965 2.008 . S
Co959 N970 1.995 . S
Co959 N975 2.282 . S
Co959 N981 2.282 . S
N960 Co959 1.995 . S
N960 C961 1.376 . S
N960 C964 1.383 . S
C961 N960 1.376 . S
C961 C962 1.446 . S
C961 C991 1.391 . S
C962 C961 1.446 . S
C962 C963 1.339 . S
C962 H997 0.949 . S
C963 C962 1.339 . S
C963 C964 1.439 . S
C963 H998 0.950 . S
C964 N960 1.383 . S
C964 C963 1.439 . S
C964 C993 1.392 . S
N965 Co959 2.008 . S
N965 C966 1.376 . S
N965 C969 1.374 . S
C966 N965 1.376 . S
C966 C967 1.443 . S
C966 C993 1.389 . S
C967 C966 1.443 . S
C967 C968 1.340 . S
C967 H999 0.951 . S
C968 C967 1.340 . S
C968 C969 1.439 . S
C968 H1000 0.950 . S
C969 N965 1.374 . S
C969 C968 1.439 . S
C969 C994 1.395 . S
N970 Co959 1.995 . S
N970 C971 1.376 . S
N970 C974 1.383 . S
C971 N970 1.376 . S
C971 C972 1.446 . S
C971 C994 1.391 . S
C972 C971 1.446 . S
C972 C973 1.339 . S
C972 H1001 0.949 . S
C973 C972 1.339 . S
C973 C974 1.439 . S
C973 H1002 0.950 . S
C974 N970 1.383 . S
C974 C973 1.439 . S
C974 C992 1.392 . S
N975 Co959 2.282 . S
N975 C978 1.332 . S
N975 C980 1.332 . S
C976 C977 1.386 . S
C976 C979 1.388 . S
C977 C976 1.386 . S
C977 C978 1.382 . S
C977 H1003 0.950 . S
C978 N975 1.332 . S
C978 C977 1.382 . S
C978 H989 0.952 . S
C979 C976 1.388 . S
C979 C980 1.382 . S
C979 H1004 0.950 . S
C980 N975 1.332 . S
C980 C979 1.382 . S
C980 H990 0.948 . S
N981 Co959 2.282 . S
N981 C985 1.332 . S
N981 C986 1.332 . S
C982 C983 1.388 . S
C982 C986 1.382 . S
C982 H1005 0.950 . S
C983 C982 1.388 . S
C983 C984 1.386 . S
C984 C983 1.386 . S
C984 C985 1.382 . S
C984 H1006 0.950 . S
C985 N981 1.332 . S
C985 C984 1.382 . S
C985 H987 0.952 . S
C986 N981 1.332 . S
C986 C982 1.382 . S
C986 H988 0.948 . S
H987 C985 0.952 . S
H988 C986 0.948 . S
H989 C978 0.952 . S
H990 C980 0.948 . S
C991 C957 1.395 . S
C991 C961 1.391 . S
C992 C954 1.389 . S
C992 C974 1.392 . S
C993 C964 1.392 . S
C993 C966 1.389 . S
C994 C969 1.395 . S
C994 C971 1.391 . S
H995 C955 0.951 . S
H996 C956 0.950 . S
H997 C962 0.949 . S
H998 C963 0.950 . S
H999 C967 0.951 . S
H1000 C968 0.950 . S
H1001 C972 0.949 . S
H1002 C973 0.950 . S
H1003 C977 0.950 . S
H1004 C979 0.950 . S
H1005 C982 0.950 . S
H1006 C984 0.950 . S
C1007 C1008 1.443 . S
C1007 N1011 1.376 . S
C1007 C1045 1.389 . S
C1008 C1007 1.443 . S
C1008 C1009 1.340 . S
C1008 H1048 0.951 . S
C1009 C1008 1.340 . S
C1009 C1010 1.439 . S
C1009 H1049 0.950 . S
C1010 C1009 1.439 . S
C1010 N1011 1.374 . S
C1010 C1044 1.395 . S
N1011 C1007 1.376 . S
N1011 C1010 1.374 . S
N1011 Co1012 2.008 . S
Co1012 N1011 2.008 . S
Co1012 N1013 1.995 . S
Co1012 N1018 2.008 . S
Co1012 N1023 1.995 . S
Co1012 N1028 2.282 . S
Co1012 N1034 2.282 . S
N1013 Co1012 1.995 . S
N1013 C1014 1.376 . S
N1013 C1017 1.383 . S
C1014 N1013 1.376 . S
C1014 C1015 1.446 . S
C1014 C1044 1.391 . S
C1015 C1014 1.446 . S
C1015 C1016 1.339 . S
C1015 H1050 0.949 . S
C1016 C1015 1.339 . S
C1016 C1017 1.439 . S
C1016 H1051 0.950 . S
C1017 N1013 1.383 . S
C1017 C1016 1.439 . S
C1017 C1046 1.392 . S
N1018 Co1012 2.008 . S
N1018 C1019 1.376 . S
N1018 C1022 1.374 . S
C1019 N1018 1.376 . S
C1019 C1020 1.443 . S
C1019 C1046 1.389 . S
C1020 C1019 1.443 . S
C1020 C1021 1.340 . S
C1020 H1052 0.951 . S
C1021 C1020 1.340 . S
C1021 C1022 1.439 . S
C1021 H1053 0.950 . S
C1022 N1018 1.374 . S
C1022 C1021 1.439 . S
C1022 C1047 1.395 . S
N1023 Co1012 1.995 . S
N1023 C1024 1.376 . S
N1023 C1027 1.383 . S
C1024 N1023 1.376 . S
C1024 C1025 1.446 . S
C1024 C1047 1.391 . S
C1025 C1024 1.446 . S
C1025 C1026 1.339 . S
C1025 H1054 0.949 . S
C1026 C1025 1.339 . S
C1026 C1027 1.439 . S
C1026 H1055 0.950 . S
C1027 N1023 1.383 . S
C1027 C1026 1.439 . S
C1027 C1045 1.392 . S
N1028 Co1012 2.282 . S
N1028 C1031 1.332 . S
N1028 C1033 1.332 . S
C1029 C1030 1.386 . S
C1029 C1032 1.388 . S
C1030 C1029 1.386 . S
C1030 C1031 1.382 . S
C1030 H1056 0.950 . S
C1031 N1028 1.332 . S
C1031 C1030 1.382 . S
C1031 H1042 0.952 . S
C1032 C1029 1.388 . S
C1032 C1033 1.382 . S
C1032 H1057 0.950 . S
C1033 N1028 1.332 . S
C1033 C1032 1.382 . S
C1033 H1043 0.948 . S
N1034 Co1012 2.282 . S
N1034 C1038 1.332 . S
N1034 C1039 1.332 . S
C1035 C1036 1.388 . S
C1035 C1039 1.382 . S
C1035 H1058 0.950 . S
C1036 C1035 1.388 . S
C1036 C1037 1.386 . S
C1037 C1036 1.386 . S
C1037 C1038 1.382 . S
C1037 H1059 0.950 . S
C1038 N1034 1.332 . S
C1038 C1037 1.382 . S
C1038 H1040 0.952 . S
C1039 N1034 1.332 . S
C1039 C1035 1.382 . S
C1039 H1041 0.948 . S
H1040 C1038 0.952 . S
H1041 C1039 0.948 . S
H1042 C1031 0.952 . S
H1043 C1033 0.948 . S
C1044 C1010 1.395 . S
C1044 C1014 1.391 . S
C1045 C1007 1.389 . S
C1045 C1027 1.392 . S
C1046 C1017 1.392 . S
C1046 C1019 1.389 . S
C1047 C1022 1.395 . S
C1047 C1024 1.391 . S
H1048 C1008 0.951 . S
H1049 C1009 0.950 . S
H1050 C1015 0.949 . S
H1051 C1016 0.950 . S
H1052 C1020 0.951 . S
H1053 C1021 0.950 . S
H1054 C1025 0.949 . S
H1055 C1026 0.950 . S
H1056 C1030 0.950 . S
H1057 C1032 0.950 . S
H1058 C1035 0.950 . S
H1059 C1037 0.950 . S
C1060 C1061 1.443 . S
C1060 N1064 1.376 . S
C1060 C1098 1.389 . S
C1061 C1060 1.443 . S
C1061 C1062 1.340 . S
C1061 H1101 0.951 . S
C1062 C1061 1.340 . S
C1062 C1063 1.439 . S
C1062 H1102 0.950 . S
C1063 C1062 1.439 . S
C1063 N1064 1.374 . S
C1063 C1097 1.395 . S
N1064 C1060 1.376 . S
N1064 C1063 1.374 . S
N1064 Co1065 2.008 . S
Co1065 N1064 2.008 . S
Co1065 N1066 1.995 . S
Co1065 N1071 2.008 . S
Co1065 N1076 1.995 . S
Co1065 N1081 2.282 . S
Co1065 N1087 2.282 . S
N1066 Co1065 1.995 . S
N1066 C1067 1.376 . S
N1066 C1070 1.383 . S
C1067 N1066 1.376 . S
C1067 C1068 1.446 . S
C1067 C1097 1.391 . S
C1068 C1067 1.446 . S
C1068 C1069 1.339 . S
C1068 H1103 0.949 . S
C1069 C1068 1.339 . S
C1069 C1070 1.439 . S
C1069 H1104 0.950 . S
C1070 N1066 1.383 . S
C1070 C1069 1.439 . S
C1070 C1099 1.392 . S
N1071 Co1065 2.008 . S
N1071 C1072 1.376 . S
N1071 C1075 1.374 . S
C1072 N1071 1.376 . S
C1072 C1073 1.443 . S
C1072 C1099 1.389 . S
C1073 C1072 1.443 . S
C1073 C1074 1.340 . S
C1073 H1105 0.951 . S
C1074 C1073 1.340 . S
C1074 C1075 1.439 . S
C1074 H1106 0.950 . S
C1075 N1071 1.374 . S
C1075 C1074 1.439 . S
C1075 C1100 1.395 . S
N1076 Co1065 1.995 . S
N1076 C1077 1.376 . S
N1076 C1080 1.383 . S
C1077 N1076 1.376 . S
C1077 C1078 1.446 . S
C1077 C1100 1.391 . S
C1078 C1077 1.446 . S
C1078 C1079 1.339 . S
C1078 H1107 0.949 . S
C1079 C1078 1.339 . S
C1079 C1080 1.439 . S
C1079 H1108 0.950 . S
C1080 N1076 1.383 . S
C1080 C1079 1.439 . S
C1080 C1098 1.392 . S
N1081 Co1065 2.282 . S
N1081 C1084 1.332 . S
N1081 C1086 1.332 . S
C1082 C1083 1.386 . S
C1082 C1085 1.388 . S
C1083 C1082 1.386 . S
C1083 C1084 1.382 . S
C1083 H1109 0.950 . S
C1084 N1081 1.332 . S
C1084 C1083 1.382 . S
C1084 H1095 0.952 . S
C1085 C1082 1.388 . S
C1085 C1086 1.382 . S
C1085 H1110 0.950 . S
C1086 N1081 1.332 . S
C1086 C1085 1.382 . S
C1086 H1096 0.948 . S
N1087 Co1065 2.282 . S
N1087 C1091 1.332 . S
N1087 C1092 1.332 . S
C1088 C1089 1.388 . S
C1088 C1092 1.382 . S
C1088 H1111 0.950 . S
C1089 C1088 1.388 . S
C1089 C1090 1.386 . S
C1090 C1089 1.386 . S
C1090 C1091 1.382 . S
C1090 H1112 0.950 . S
C1091 N1087 1.332 . S
C1091 C1090 1.382 . S
C1091 H1093 0.952 . S
C1092 N1087 1.332 . S
C1092 C1088 1.382 . S
C1092 H1094 0.948 . S
H1093 C1091 0.952 . S
H1094 C1092 0.948 . S
H1095 C1084 0.952 . S
H1096 C1086 0.948 . S
C1097 C1063 1.395 . S
C1097 C1067 1.391 . S
C1098 C1060 1.389 . S
C1098 C1080 1.392 . S
C1099 C1070 1.392 . S
C1099 C1072 1.389 . S
C1100 C1075 1.395 . S
C1100 C1077 1.391 . S
H1101 C1061 0.951 . S
H1102 C1062 0.950 . S
H1103 C1068 0.949 . S
H1104 C1069 0.950 . S
H1105 C1073 0.951 . S
H1106 C1074 0.950 . S
H1107 C1078 0.949 . S
H1108 C1079 0.950 . S
H1109 C1083 0.950 . S
H1110 C1085 0.950 . S
H1111 C1088 0.950 . S
H1112 C1090 0.950 . S
C1113 C1114 1.443 . S
C1113 N1117 1.376 . S
C1113 C1151 1.389 . S
C1114 C1113 1.443 . S
C1114 C1115 1.340 . S
C1114 H1154 0.951 . S
C1115 C1114 1.340 . S
C1115 C1116 1.439 . S
C1115 H1155 0.950 . S
C1116 C1115 1.439 . S
C1116 N1117 1.374 . S
C1116 C1150 1.395 . S
N1117 C1113 1.376 . S
N1117 C1116 1.374 . S
N1117 Co1118 2.008 . S
Co1118 N1117 2.008 . S
Co1118 N1119 1.995 . S
Co1118 N1124 2.008 . S
Co1118 N1129 1.995 . S
Co1118 N1134 2.282 . S
Co1118 N1140 2.282 . S
N1119 Co1118 1.995 . S
N1119 C1120 1.376 . S
N1119 C1123 1.383 . S
C1120 N1119 1.376 . S
C1120 C1121 1.446 . S
C1120 C1150 1.391 . S
C1121 C1120 1.446 . S
C1121 C1122 1.339 . S
C1121 H1156 0.949 . S
C1122 C1121 1.339 . S
C1122 C1123 1.439 . S
C1122 H1157 0.950 . S
C1123 N1119 1.383 . S
C1123 C1122 1.439 . S
C1123 C1152 1.392 . S
N1124 Co1118 2.008 . S
N1124 C1125 1.376 . S
N1124 C1128 1.374 . S
C1125 N1124 1.376 . S
C1125 C1126 1.443 . S
C1125 C1152 1.389 . S
C1126 C1125 1.443 . S
C1126 C1127 1.340 . S
C1126 H1158 0.951 . S
C1127 C1126 1.340 . S
C1127 C1128 1.439 . S
C1127 H1159 0.950 . S
C1128 N1124 1.374 . S
C1128 C1127 1.439 . S
C1128 C1153 1.395 . S
N1129 Co1118 1.995 . S
N1129 C1130 1.376 . S
N1129 C1133 1.383 . S
C1130 N1129 1.376 . S
C1130 C1131 1.446 . S
C1130 C1153 1.391 . S
C1131 C1130 1.446 . S
C1131 C1132 1.339 . S
C1131 H1160 0.949 . S
C1132 C1131 1.339 . S
C1132 C1133 1.439 . S
C1132 H1161 0.950 . S
C1133 N1129 1.383 . S
C1133 C1132 1.439 . S
C1133 C1151 1.392 . S
N1134 Co1118 2.282 . S
N1134 C1137 1.332 . S
N1134 C1139 1.332 . S
C1135 C1136 1.386 . S
C1135 C1138 1.388 . S
C1136 C1135 1.386 . S
C1136 C1137 1.382 . S
C1136 H1162 0.950 . S
C1137 N1134 1.332 . S
C1137 C1136 1.382 . S
C1137 H1148 0.952 . S
C1138 C1135 1.388 . S
C1138 C1139 1.382 . S
C1138 H1163 0.950 . S
C1139 N1134 1.332 . S
C1139 C1138 1.382 . S
C1139 H1149 0.948 . S
N1140 Co1118 2.282 . S
N1140 C1144 1.332 . S
N1140 C1145 1.332 . S
C1141 C1142 1.388 . S
C1141 C1145 1.382 . S
C1141 H1164 0.950 . S
C1142 C1141 1.388 . S
C1142 C1143 1.386 . S
C1143 C1142 1.386 . S
C1143 C1144 1.382 . S
C1143 H1165 0.950 . S
C1144 N1140 1.332 . S
C1144 C1143 1.382 . S
C1144 H1146 0.952 . S
C1145 N1140 1.332 . S
C1145 C1141 1.382 . S
C1145 H1147 0.948 . S
H1146 C1144 0.952 . S
H1147 C1145 0.948 . S
H1148 C1137 0.952 . S
H1149 C1139 0.948 . S
C1150 C1116 1.395 . S
C1150 C1120 1.391 . S
C1151 C1113 1.389 . S
C1151 C1133 1.392 . S
C1152 C1123 1.392 . S
C1152 C1125 1.389 . S
C1153 C1128 1.395 . S
C1153 C1130 1.391 . S
H1154 C1114 0.951 . S
H1155 C1115 0.950 . S
H1156 C1121 0.949 . S
H1157 C1122 0.950 . S
H1158 C1126 0.951 . S
H1159 C1127 0.950 . S
H1160 C1131 0.949 . S
H1161 C1132 0.950 . S
H1162 C1136 0.950 . S
H1163 C1138 0.950 . S
H1164 C1141 0.950 . S
H1165 C1143 0.950 . S
C1166 C1167 1.443 . S
C1166 N1170 1.376 . S
C1166 C1204 1.389 . S
C1167 C1166 1.443 . S
C1167 C1168 1.340 . S
C1167 H1207 0.951 . S
C1168 C1167 1.340 . S
C1168 C1169 1.439 . S
C1168 H1208 0.950 . S
C1169 C1168 1.439 . S
C1169 N1170 1.374 . S
C1169 C1203 1.395 . S
N1170 C1166 1.376 . S
N1170 C1169 1.374 . S
N1170 Co1171 2.008 . S
Co1171 N1170 2.008 . S
Co1171 N1172 1.995 . S
Co1171 N1177 2.008 . S
Co1171 N1182 1.995 . S
Co1171 N1187 2.282 . S
Co1171 N1193 2.282 . S
N1172 Co1171 1.995 . S
N1172 C1173 1.376 . S
N1172 C1176 1.383 . S
C1173 N1172 1.376 . S
C1173 C1174 1.446 . S
C1173 C1203 1.391 . S
C1174 C1173 1.446 . S
C1174 C1175 1.339 . S
C1174 H1209 0.949 . S
C1175 C1174 1.339 . S
C1175 C1176 1.439 . S
C1175 H1210 0.950 . S
C1176 N1172 1.383 . S
C1176 C1175 1.439 . S
C1176 C1205 1.392 . S
N1177 Co1171 2.008 . S
N1177 C1178 1.376 . S
N1177 C1181 1.374 . S
C1178 N1177 1.376 . S
C1178 C1179 1.443 . S
C1178 C1205 1.389 . S
C1179 C1178 1.443 . S
C1179 C1180 1.340 . S
C1179 H1211 0.951 . S
C1180 C1179 1.340 . S
C1180 C1181 1.439 . S
C1180 H1212 0.950 . S
C1181 N1177 1.374 . S
C1181 C1180 1.439 . S
C1181 C1206 1.395 . S
N1182 Co1171 1.995 . S
N1182 C1183 1.376 . S
N1182 C1186 1.383 . S
C1183 N1182 1.376 . S
C1183 C1184 1.446 . S
C1183 C1206 1.391 . S
C1184 C1183 1.446 . S
C1184 C1185 1.339 . S
C1184 H1213 0.949 . S
C1185 C1184 1.339 . S
C1185 C1186 1.439 . S
C1185 H1214 0.950 . S
C1186 N1182 1.383 . S
C1186 C1185 1.439 . S
C1186 C1204 1.392 . S
N1187 Co1171 2.282 . S
N1187 C1190 1.332 . S
N1187 C1192 1.332 . S
C1188 C1189 1.386 . S
C1188 C1191 1.388 . S
C1189 C1188 1.386 . S
C1189 C1190 1.382 . S
C1189 H1215 0.950 . S
C1190 N1187 1.332 . S
C1190 C1189 1.382 . S
C1190 H1201 0.952 . S
C1191 C1188 1.388 . S
C1191 C1192 1.382 . S
C1191 H1216 0.950 . S
C1192 N1187 1.332 . S
C1192 C1191 1.382 . S
C1192 H1202 0.948 . S
N1193 Co1171 2.282 . S
N1193 C1197 1.332 . S
N1193 C1198 1.332 . S
C1194 C1195 1.388 . S
C1194 C1198 1.382 . S
C1194 H1217 0.950 . S
C1195 C1194 1.388 . S
C1195 C1196 1.386 . S
C1196 C1195 1.386 . S
C1196 C1197 1.382 . S
C1196 H1218 0.950 . S
C1197 N1193 1.332 . S
C1197 C1196 1.382 . S
C1197 H1199 0.952 . S
C1198 N1193 1.332 . S
C1198 C1194 1.382 . S
C1198 H1200 0.948 . S
H1199 C1197 0.952 . S
H1200 C1198 0.948 . S
H1201 C1190 0.952 . S
H1202 C1192 0.948 . S
C1203 C1169 1.395 . S
C1203 C1173 1.391 . S
C1204 C1166 1.389 . S
C1204 C1186 1.392 . S
C1205 C1176 1.392 . S
C1205 C1178 1.389 . S
C1206 C1181 1.395 . S
C1206 C1183 1.391 . S
H1207 C1167 0.951 . S
H1208 C1168 0.950 . S
H1209 C1174 0.949 . S
H1210 C1175 0.950 . S
H1211 C1179 0.951 . S
H1212 C1180 0.950 . S
H1213 C1184 0.949 . S
H1214 C1185 0.950 . S
H1215 C1189 0.950 . S
H1216 C1191 0.950 . S
H1217 C1194 0.950 . S
H1218 C1196 0.950 . S
C1219 C1220 1.443 . S
C1219 N1223 1.376 . S
C1219 C1257 1.389 . S
C1220 C1219 1.443 . S
C1220 C1221 1.340 . S
C1220 H1260 0.951 . S
C1221 C1220 1.340 . S
C1221 C1222 1.439 . S
C1221 H1261 0.950 . S
C1222 C1221 1.439 . S
C1222 N1223 1.374 . S
C1222 C1256 1.395 . S
N1223 C1219 1.376 . S
N1223 C1222 1.374 . S
N1223 Co1224 2.008 . S
Co1224 N1223 2.008 . S
Co1224 N1225 1.995 . S
Co1224 N1230 2.008 . S
Co1224 N1235 1.995 . S
Co1224 N1240 2.282 . S
Co1224 N1246 2.282 . S
N1225 Co1224 1.995 . S
N1225 C1226 1.376 . S
N1225 C1229 1.383 . S
C1226 N1225 1.376 . S
C1226 C1227 1.446 . S
C1226 C1256 1.391 . S
C1227 C1226 1.446 . S
C1227 C1228 1.339 . S
C1227 H1262 0.949 . S
C1228 C1227 1.339 . S
C1228 C1229 1.439 . S
C1228 H1263 0.950 . S
C1229 N1225 1.383 . S
C1229 C1228 1.439 . S
C1229 C1258 1.392 . S
N1230 Co1224 2.008 . S
N1230 C1231 1.376 . S
N1230 C1234 1.374 . S
C1231 N1230 1.376 . S
C1231 C1232 1.443 . S
C1231 C1258 1.389 . S
C1232 C1231 1.443 . S
C1232 C1233 1.340 . S
C1232 H1264 0.951 . S
C1233 C1232 1.340 . S
C1233 C1234 1.439 . S
C1233 H1265 0.950 . S
C1234 N1230 1.374 . S
C1234 C1233 1.439 . S
C1234 C1259 1.395 . S
N1235 Co1224 1.995 . S
N1235 C1236 1.376 . S
N1235 C1239 1.383 . S
C1236 N1235 1.376 . S
C1236 C1237 1.446 . S
C1236 C1259 1.391 . S
C1237 C1236 1.446 . S
C1237 C1238 1.339 . S
C1237 H1266 0.949 . S
C1238 C1237 1.339 . S
C1238 C1239 1.439 . S
C1238 H1267 0.950 . S
C1239 N1235 1.383 . S
C1239 C1238 1.439 . S
C1239 C1257 1.392 . S
N1240 Co1224 2.282 . S
N1240 C1243 1.332 . S
N1240 C1245 1.332 . S
C1241 C1242 1.386 . S
C1241 C1244 1.388 . S
C1242 C1241 1.386 . S
C1242 C1243 1.382 . S
C1242 H1268 0.950 . S
C1243 N1240 1.332 . S
C1243 C1242 1.382 . S
C1243 H1254 0.952 . S
C1244 C1241 1.388 . S
C1244 C1245 1.382 . S
C1244 H1269 0.950 . S
C1245 N1240 1.332 . S
C1245 C1244 1.382 . S
C1245 H1255 0.948 . S
N1246 Co1224 2.282 . S
N1246 C1250 1.332 . S
N1246 C1251 1.332 . S
C1247 C1248 1.388 . S
C1247 C1251 1.382 . S
C1247 H1270 0.950 . S
C1248 C1247 1.388 . S
C1248 C1249 1.386 . S
C1249 C1248 1.386 . S
C1249 C1250 1.382 . S
C1249 H1271 0.950 . S
C1250 N1246 1.332 . S
C1250 C1249 1.382 . S
C1250 H1252 0.952 . S
C1251 N1246 1.332 . S
C1251 C1247 1.382 . S
C1251 H1253 0.948 . S
H1252 C1250 0.952 . S
H1253 C1251 0.948 . S
H1254 C1243 0.952 . S
H1255 C1245 0.948 . S
C1256 C1222 1.395 . S
C1256 C1226 1.391 . S
C1257 C1219 1.389 . S
C1257 C1239 1.392 . S
C1258 C1229 1.392 . S
C1258 C1231 1.389 . S
C1259 C1234 1.395 . S
C1259 C1236 1.391 . S
H1260 C1220 0.951 . S
H1261 C1221 0.950 . S
H1262 C1227 0.949 . S
H1263 C1228 0.950 . S
H1264 C1232 0.951 . S
H1265 C1233 0.950 . S
H1266 C1237 0.949 . S
H1267 C1238 0.950 . S
H1268 C1242 0.950 . S
H1269 C1244 0.950 . S
H1270 C1247 0.950 . S
H1271 C1249 0.950 . S
C1272 C1273 1.443 . S
C1272 N1276 1.376 . S
C1272 C1310 1.389 . S
C1273 C1272 1.443 . S
C1273 C1274 1.340 . S
C1273 H1313 0.951 . S
C1274 C1273 1.340 . S
C1274 C1275 1.439 . S
C1274 H1314 0.950 . S
C1275 C1274 1.439 . S
C1275 N1276 1.374 . S
C1275 C1309 1.395 1_554 S
N1276 C1272 1.376 . S
N1276 C1275 1.374 . S
N1276 Co1277 2.008 . S
Co1277 N1276 2.008 . S
Co1277 N1278 1.995 1_554 S
Co1277 N1283 2.008 1_554 S
Co1277 N1288 1.995 . S
Co1277 N1293 2.282 . S
Co1277 N1299 2.282 . S
N1278 Co1277 1.995 1_556 S
N1278 C1279 1.376 . S
N1278 C1282 1.383 . S
C1279 N1278 1.376 . S
C1279 C1280 1.446 . S
C1279 C1309 1.391 . S
C1280 C1279 1.446 . S
C1280 C1281 1.339 . S
C1280 H1315 0.949 . S
C1281 C1280 1.339 . S
C1281 C1282 1.439 . S
C1281 H1316 0.950 . S
C1282 N1278 1.383 . S
C1282 C1281 1.439 . S
C1282 C1311 1.392 . S
N1283 Co1277 2.008 1_556 S
N1283 C1284 1.376 . S
N1283 C1287 1.374 1_556 S
C1284 N1283 1.376 . S
C1284 C1285 1.443 . S
C1284 C1311 1.389 . S
C1285 C1284 1.443 . S
C1285 C1286 1.340 . S
C1285 H1317 0.951 . S
C1286 C1285 1.340 . S
C1286 C1287 1.439 1_556 S
C1286 H1318 0.950 . S
C1287 N1283 1.374 1_554 S
C1287 C1286 1.439 1_554 S
C1287 C1312 1.395 . S
N1288 Co1277 1.995 . S
N1288 C1289 1.376 . S
N1288 C1292 1.383 . S
C1289 N1288 1.376 . S
C1289 C1290 1.446 . S
C1289 C1312 1.391 . S
C1290 C1289 1.446 . S
C1290 C1291 1.339 . S
C1290 H1319 0.949 . S
C1291 C1290 1.339 . S
C1291 C1292 1.439 . S
C1291 H1320 0.950 . S
C1292 N1288 1.383 . S
C1292 C1291 1.439 . S
C1292 C1310 1.392 . S
N1293 Co1277 2.282 . S
N1293 C1296 1.332 . S
N1293 C1298 1.332 1_554 S
C1294 C1295 1.386 . S
C1294 C1297 1.388 1_554 S
C1295 C1294 1.386 . S
C1295 C1296 1.382 . S
C1295 H1321 0.950 . S
C1296 N1293 1.332 . S
C1296 C1295 1.382 . S
C1296 H1307 0.952 . S
C1297 C1294 1.388 1_556 S
C1297 C1298 1.382 . S
C1297 H1322 0.950 . S
C1298 N1293 1.332 1_556 S
C1298 C1297 1.382 . S
C1298 H1308 0.948 . S
N1299 Co1277 2.282 . S
N1299 C1303 1.332 1_554 S
N1299 C1304 1.332 . S
C1300 C1301 1.388 . S
C1300 C1304 1.382 . S
C1300 H1323 0.950 . S
C1301 C1300 1.388 . S
C1301 C1302 1.386 1_554 S
C1302 C1301 1.386 1_556 S
C1302 C1303 1.382 . S
C1302 H1324 0.950 . S
C1303 N1299 1.332 1_556 S
C1303 C1302 1.382 . S
C1303 H1305 0.952 . S
C1304 N1299 1.332 . S
C1304 C1300 1.382 . S
C1304 H1306 0.948 . S
H1305 C1303 0.952 . S
H1306 C1304 0.948 . S
H1307 C1296 0.952 . S
H1308 C1298 0.948 . S
C1309 C1275 1.395 1_556 S
C1309 C1279 1.391 . S
C1310 C1272 1.389 . S
C1310 C1292 1.392 . S
C1311 C1282 1.392 . S
C1311 C1284 1.389 . S
C1312 C1287 1.395 . S
C1312 C1289 1.391 . S
H1313 C1273 0.951 . S
H1314 C1274 0.950 . S
H1315 C1280 0.949 . S
H1316 C1281 0.950 . S
H1317 C1285 0.951 . S
H1318 C1286 0.950 . S
H1319 C1290 0.949 . S
H1320 C1291 0.950 . S
H1321 C1295 0.950 . S
H1322 C1297 0.950 . S
H1323 C1300 0.950 . S
H1324 C1302 0.950 . S
C1325 C1326 1.443 . S
C1325 N1329 1.376 . S
C1325 C1363 1.389 . S
C1326 C1325 1.443 . S
C1326 C1327 1.340 . S
C1326 H1366 0.951 . S
C1327 C1326 1.340 . S
C1327 C1328 1.439 . S
C1327 H1367 0.950 . S
C1328 C1327 1.439 . S
C1328 N1329 1.374 . S
C1328 C1362 1.395 1_554 S
N1329 C1325 1.376 . S
N1329 C1328 1.374 . S
N1329 Co1330 2.008 . S
Co1330 N1329 2.008 . S
Co1330 N1331 1.995 1_554 S
Co1330 N1336 2.008 1_554 S
Co1330 N1341 1.995 . S
Co1330 N1346 2.282 . S
Co1330 N1352 2.282 . S
N1331 Co1330 1.995 1_556 S
N1331 C1332 1.376 . S
N1331 C1335 1.383 . S
C1332 N1331 1.376 . S
C1332 C1333 1.446 . S
C1332 C1362 1.391 . S
C1333 C1332 1.446 . S
C1333 C1334 1.339 . S
C1333 H1368 0.949 . S
C1334 C1333 1.339 . S
C1334 C1335 1.439 . S
C1334 H1369 0.950 . S
C1335 N1331 1.383 . S
C1335 C1334 1.439 . S
C1335 C1364 1.392 . S
N1336 Co1330 2.008 1_556 S
N1336 C1337 1.376 . S
N1336 C1340 1.374 1_556 S
C1337 N1336 1.376 . S
C1337 C1338 1.443 . S
C1337 C1364 1.389 . S
C1338 C1337 1.443 . S
C1338 C1339 1.340 . S
C1338 H1370 0.951 . S
C1339 C1338 1.340 . S
C1339 C1340 1.439 1_556 S
C1339 H1371 0.950 . S
C1340 N1336 1.374 1_554 S
C1340 C1339 1.439 1_554 S
C1340 C1365 1.395 . S
N1341 Co1330 1.995 . S
N1341 C1342 1.376 . S
N1341 C1345 1.383 . S
C1342 N1341 1.376 . S
C1342 C1343 1.446 . S
C1342 C1365 1.391 . S
C1343 C1342 1.446 . S
C1343 C1344 1.339 . S
C1343 H1372 0.949 . S
C1344 C1343 1.339 . S
C1344 C1345 1.439 . S
C1344 H1373 0.950 . S
C1345 N1341 1.383 . S
C1345 C1344 1.439 . S
C1345 C1363 1.392 . S
N1346 Co1330 2.282 . S
N1346 C1349 1.332 . S
N1346 C1351 1.332 1_554 S
C1347 C1348 1.386 . S
C1347 C1350 1.388 1_554 S
C1348 C1347 1.386 . S
C1348 C1349 1.382 . S
C1348 H1374 0.950 . S
C1349 N1346 1.332 . S
C1349 C1348 1.382 . S
C1349 H1360 0.952 . S
C1350 C1347 1.388 1_556 S
C1350 C1351 1.382 . S
C1350 H1375 0.950 . S
C1351 N1346 1.332 1_556 S
C1351 C1350 1.382 . S
C1351 H1361 0.948 . S
N1352 Co1330 2.282 . S
N1352 C1356 1.332 1_554 S
N1352 C1357 1.332 . S
C1353 C1354 1.388 . S
C1353 C1357 1.382 . S
C1353 H1376 0.950 . S
C1354 C1353 1.388 . S
C1354 C1355 1.386 1_554 S
C1355 C1354 1.386 1_556 S
C1355 C1356 1.382 . S
C1355 H1377 0.950 . S
C1356 N1352 1.332 1_556 S
C1356 C1355 1.382 . S
C1356 H1358 0.952 . S
C1357 N1352 1.332 . S
C1357 C1353 1.382 . S
C1357 H1359 0.948 . S
H1358 C1356 0.952 . S
H1359 C1357 0.948 . S
H1360 C1349 0.952 . S
H1361 C1351 0.948 . S
C1362 C1328 1.395 1_556 S
C1362 C1332 1.391 . S
C1363 C1325 1.389 . S
C1363 C1345 1.392 . S
C1364 C1335 1.392 . S
C1364 C1337 1.389 . S
C1365 C1340 1.395 . S
C1365 C1342 1.391 . S
H1366 C1326 0.951 . S
H1367 C1327 0.950 . S
H1368 C1333 0.949 . S
H1369 C1334 0.950 . S
H1370 C1338 0.951 . S
H1371 C1339 0.950 . S
H1372 C1343 0.949 . S
H1373 C1344 0.950 . S
H1374 C1348 0.950 . S
H1375 C1350 0.950 . S
H1376 C1353 0.950 . S
H1377 C1355 0.950 . S
C1378 C1379 1.443 . S
C1378 N1382 1.376 . S
C1378 C1416 1.389 . S
C1379 C1378 1.443 . S
C1379 C1380 1.340 . S
C1379 H1419 0.951 . S
C1380 C1379 1.340 . S
C1380 C1381 1.439 . S
C1380 H1420 0.950 . S
C1381 C1380 1.439 . S
C1381 N1382 1.374 . S
C1381 C1415 1.395 . S
N1382 C1378 1.376 . S
N1382 C1381 1.374 . S
N1382 Co1383 2.008 . S
Co1383 N1382 2.008 . S
Co1383 N1384 1.995 . S
Co1383 N1389 2.008 . S
Co1383 N1394 1.995 . S
Co1383 N1399 2.282 . S
Co1383 N1405 2.282 . S
N1384 Co1383 1.995 . S
N1384 C1385 1.376 . S
N1384 C1388 1.383 . S
C1385 N1384 1.376 . S
C1385 C1386 1.446 . S
C1385 C1415 1.391 . S
C1386 C1385 1.446 . S
C1386 C1387 1.339 . S
C1386 H1421 0.949 . S
C1387 C1386 1.339 . S
C1387 C1388 1.439 . S
C1387 H1422 0.950 . S
C1388 N1384 1.383 . S
C1388 C1387 1.439 . S
C1388 C1417 1.392 . S
N1389 Co1383 2.008 . S
N1389 C1390 1.376 . S
N1389 C1393 1.374 . S
C1390 N1389 1.376 . S
C1390 C1391 1.443 . S
C1390 C1417 1.389 . S
C1391 C1390 1.443 . S
C1391 C1392 1.340 . S
C1391 H1423 0.951 . S
C1392 C1391 1.340 . S
C1392 C1393 1.439 . S
C1392 H1424 0.950 . S
C1393 N1389 1.374 . S
C1393 C1392 1.439 . S
C1393 C1418 1.395 . S
N1394 Co1383 1.995 . S
N1394 C1395 1.376 . S
N1394 C1398 1.383 . S
C1395 N1394 1.376 . S
C1395 C1396 1.446 . S
C1395 C1418 1.391 . S
C1396 C1395 1.446 . S
C1396 C1397 1.339 . S
C1396 H1425 0.949 . S
C1397 C1396 1.339 . S
C1397 C1398 1.439 . S
C1397 H1426 0.950 . S
C1398 N1394 1.383 . S
C1398 C1397 1.439 . S
C1398 C1416 1.392 . S
N1399 Co1383 2.282 . S
N1399 C1402 1.332 . S
N1399 C1404 1.332 . S
C1400 C1401 1.386 . S
C1400 C1403 1.388 . S
C1401 C1400 1.386 . S
C1401 C1402 1.382 . S
C1401 H1427 0.950 . S
C1402 N1399 1.332 . S
C1402 C1401 1.382 . S
C1402 H1413 0.952 . S
C1403 C1400 1.388 . S
C1403 C1404 1.382 . S
C1403 H1428 0.950 . S
C1404 N1399 1.332 . S
C1404 C1403 1.382 . S
C1404 H1414 0.948 . S
N1405 Co1383 2.282 . S
N1405 C1409 1.332 . S
N1405 C1410 1.332 . S
C1406 C1407 1.388 . S
C1406 C1410 1.382 . S
C1406 H1429 0.950 . S
C1407 C1406 1.388 . S
C1407 C1408 1.386 . S
C1408 C1407 1.386 . S
C1408 C1409 1.382 . S
C1408 H1430 0.950 . S
C1409 N1405 1.332 . S
C1409 C1408 1.382 . S
C1409 H1411 0.952 . S
C1410 N1405 1.332 . S
C1410 C1406 1.382 . S
C1410 H1412 0.948 . S
H1411 C1409 0.952 . S
H1412 C1410 0.948 . S
H1413 C1402 0.952 . S
H1414 C1404 0.948 . S
C1415 C1381 1.395 . S
C1415 C1385 1.391 . S
C1416 C1378 1.389 . S
C1416 C1398 1.392 . S
C1417 C1388 1.392 . S
C1417 C1390 1.389 . S
C1418 C1393 1.395 . S
C1418 C1395 1.391 . S
H1419 C1379 0.951 . S
H1420 C1380 0.950 . S
H1421 C1386 0.949 . S
H1422 C1387 0.950 . S
H1423 C1391 0.951 . S
H1424 C1392 0.950 . S
H1425 C1396 0.949 . S
H1426 C1397 0.950 . S
H1427 C1401 0.950 . S
H1428 C1403 0.950 . S
H1429 C1406 0.950 . S
H1430 C1408 0.950 . S
C1431 C1432 1.443 . S
C1431 N1435 1.376 . S
C1431 C1469 1.389 . S
C1432 C1431 1.443 . S
C1432 C1433 1.340 . S
C1432 H1472 0.951 . S
C1433 C1432 1.340 . S
C1433 C1434 1.439 . S
C1433 H1473 0.950 . S
C1434 C1433 1.439 . S
C1434 N1435 1.374 . S
C1434 C1468 1.395 . S
N1435 C1431 1.376 . S
N1435 C1434 1.374 . S
N1435 Co1436 2.008 . S
Co1436 N1435 2.008 . S
Co1436 N1437 1.995 . S
Co1436 N1442 2.008 . S
Co1436 N1447 1.995 . S
Co1436 N1452 2.282 . S
Co1436 N1458 2.282 . S
N1437 Co1436 1.995 . S
N1437 C1438 1.376 . S
N1437 C1441 1.383 . S
C1438 N1437 1.376 . S
C1438 C1439 1.446 . S
C1438 C1468 1.391 . S
C1439 C1438 1.446 . S
C1439 C1440 1.339 . S
C1439 H1474 0.949 . S
C1440 C1439 1.339 . S
C1440 C1441 1.439 . S
C1440 H1475 0.950 . S
C1441 N1437 1.383 . S
C1441 C1440 1.439 . S
C1441 C1470 1.392 . S
N1442 Co1436 2.008 . S
N1442 C1443 1.376 . S
N1442 C1446 1.374 . S
C1443 N1442 1.376 . S
C1443 C1444 1.443 . S
C1443 C1470 1.389 . S
C1444 C1443 1.443 . S
C1444 C1445 1.340 . S
C1444 H1476 0.951 . S
C1445 C1444 1.340 . S
C1445 C1446 1.439 . S
C1445 H1477 0.950 . S
C1446 N1442 1.374 . S
C1446 C1445 1.439 . S
C1446 C1471 1.395 . S
N1447 Co1436 1.995 . S
N1447 C1448 1.376 . S
N1447 C1451 1.383 . S
C1448 N1447 1.376 . S
C1448 C1449 1.446 . S
C1448 C1471 1.391 . S
C1449 C1448 1.446 . S
C1449 C1450 1.339 . S
C1449 H1478 0.949 . S
C1450 C1449 1.339 . S
C1450 C1451 1.439 . S
C1450 H1479 0.950 . S
C1451 N1447 1.383 . S
C1451 C1450 1.439 . S
C1451 C1469 1.392 . S
N1452 Co1436 2.282 . S
N1452 C1455 1.332 . S
N1452 C1457 1.332 . S
C1453 C1454 1.386 . S
C1453 C1456 1.388 . S
C1454 C1453 1.386 . S
C1454 C1455 1.382 . S
C1454 H1480 0.950 . S
C1455 N1452 1.332 . S
C1455 C1454 1.382 . S
C1455 H1466 0.952 . S
C1456 C1453 1.388 . S
C1456 C1457 1.382 . S
C1456 H1481 0.950 . S
C1457 N1452 1.332 . S
C1457 C1456 1.382 . S
C1457 H1467 0.948 . S
N1458 Co1436 2.282 . S
N1458 C1462 1.332 . S
N1458 C1463 1.332 . S
C1459 C1460 1.388 . S
C1459 C1463 1.382 . S
C1459 H1482 0.950 . S
C1460 C1459 1.388 . S
C1460 C1461 1.386 . S
C1461 C1460 1.386 . S
C1461 C1462 1.382 . S
C1461 H1483 0.950 . S
C1462 N1458 1.332 . S
C1462 C1461 1.382 . S
C1462 H1464 0.952 . S
C1463 N1458 1.332 . S
C1463 C1459 1.382 . S
C1463 H1465 0.948 . S
H1464 C1462 0.952 . S
H1465 C1463 0.948 . S
H1466 C1455 0.952 . S
H1467 C1457 0.948 . S
C1468 C1434 1.395 . S
C1468 C1438 1.391 . S
C1469 C1431 1.389 . S
C1469 C1451 1.392 . S
C1470 C1441 1.392 . S
C1470 C1443 1.389 . S
C1471 C1446 1.395 . S
C1471 C1448 1.391 . S
H1472 C1432 0.951 . S
H1473 C1433 0.950 . S
H1474 C1439 0.949 . S
H1475 C1440 0.950 . S
H1476 C1444 0.951 . S
H1477 C1445 0.950 . S
H1478 C1449 0.949 . S
H1479 C1450 0.950 . S
H1480 C1454 0.950 . S
H1481 C1456 0.950 . S
H1482 C1459 0.950 . S
H1483 C1461 0.950 . S
C1484 C1485 1.443 . S
C1484 N1488 1.376 . S
C1484 C1522 1.389 . S
C1485 C1484 1.443 . S
C1485 C1486 1.340 . S
C1485 H1525 0.951 . S
C1486 C1485 1.340 . S
C1486 C1487 1.439 . S
C1486 H1526 0.950 . S
C1487 C1486 1.439 . S
C1487 N1488 1.374 . S
C1487 C1521 1.395 . S
N1488 C1484 1.376 . S
N1488 C1487 1.374 . S
N1488 Co1489 2.008 . S
Co1489 N1488 2.008 . S
Co1489 N1490 1.995 1_556 S
Co1489 N1495 2.008 1_556 S
Co1489 N1500 1.995 . S
Co1489 N1505 2.282 . S
Co1489 N1511 2.283 . S
N1490 Co1489 1.995 1_554 S
N1490 C1491 1.376 1_554 S
N1490 C1494 1.383 . S
C1491 N1490 1.376 1_556 S
C1491 C1492 1.446 1_556 S
C1491 C1521 1.391 . S
C1492 C1491 1.446 1_554 S
C1492 C1493 1.339 . S
C1492 H1527 0.949 . S
C1493 C1492 1.339 . S
C1493 C1494 1.439 . S
C1493 H1528 0.950 . S
C1494 N1490 1.383 . S
C1494 C1493 1.439 . S
C1494 C1523 1.392 . S
N1495 Co1489 2.008 1_554 S
N1495 C1496 1.376 . S
N1495 C1499 1.374 . S
C1496 N1495 1.376 . S
C1496 C1497 1.443 . S
C1496 C1523 1.389 . S
C1497 C1496 1.443 . S
C1497 C1498 1.340 . S
C1497 H1529 0.951 . S
C1498 C1497 1.340 . S
C1498 C1499 1.439 . S
C1498 H1530 0.950 . S
C1499 N1495 1.374 . S
C1499 C1498 1.439 . S
C1499 C1524 1.395 . S
N1500 Co1489 1.995 . S
N1500 C1501 1.376 . S
N1500 C1504 1.383 . S
C1501 N1500 1.376 . S
C1501 C1502 1.446 . S
C1501 C1524 1.391 1_556 S
C1502 C1501 1.446 . S
C1502 C1503 1.339 . S
C1502 H1531 0.949 . S
C1503 C1502 1.339 . S
C1503 C1504 1.439 . S
C1503 H1532 0.950 . S
C1504 N1500 1.383 . S
C1504 C1503 1.439 . S
C1504 C1522 1.392 . S
N1505 Co1489 2.282 . S
N1505 C1508 1.332 . S
N1505 C1510 1.332 . S
C1506 C1507 1.389 . S
C1506 C1509 1.388 . S
C1507 C1506 1.389 . S
C1507 C1508 1.388 . S
C1507 H1533 0.944 1_556 S
C1508 N1505 1.332 . S
C1508 C1507 1.388 . S
C1508 H1519 0.952 . S
C1509 C1506 1.388 . S
C1509 C1510 1.382 . S
C1509 H1534 0.950 . S
C1510 N1505 1.332 . S
C1510 C1509 1.382 . S
C1510 H1520 0.948 . S
N1511 Co1489 2.283 . S
N1511 C1515 1.334 . S
N1511 C1516 1.331 1_556 S
C1512 C1513 1.388 . S
C1512 C1516 1.379 1_556 S
C1512 H1535 0.952 . S
C1513 C1512 1.388 . S
C1513 C1514 1.386 . S
C1514 C1513 1.386 . S
C1514 C1515 1.382 . S
C1514 H1536 0.950 . S
C1515 N1511 1.334 . S
C1515 C1514 1.382 . S
C1515 H1517 0.952 . S
C1516 N1511 1.331 1_554 S
C1516 C1512 1.379 1_554 S
C1516 H1518 0.956 . S
H1517 C1515 0.952 . S
H1518 C1516 0.956 . S
H1519 C1508 0.952 . S
H1520 C1510 0.948 . S
C1521 C1487 1.395 . S
C1521 C1491 1.391 . S
C1522 C1484 1.389 . S
C1522 C1504 1.392 . S
C1523 C1494 1.392 . S
C1523 C1496 1.389 . S
C1524 C1499 1.395 . S
C1524 C1501 1.391 1_554 S
H1525 C1485 0.951 . S
H1526 C1486 0.950 . S
H1527 C1492 0.949 . S
H1528 C1493 0.950 . S
H1529 C1497 0.951 . S
H1530 C1498 0.950 . S
H1531 C1502 0.949 . S
H1532 C1503 0.950 . S
H1533 C1507 0.944 1_554 S
H1534 C1509 0.950 . S
H1535 C1512 0.952 . S
H1536 C1514 0.950 . S
C1537 C1538 1.443 . S
C1537 N1541 1.376 . S
C1537 C1575 1.389 . S
C1538 C1537 1.443 . S
C1538 C1539 1.340 . S
C1538 H1578 0.951 . S
C1539 C1538 1.340 . S
C1539 C1540 1.439 . S
C1539 H1579 0.950 . S
C1540 C1539 1.439 . S
C1540 N1541 1.374 . S
C1540 C1574 1.395 . S
N1541 C1537 1.376 . S
N1541 C1540 1.374 . S
N1541 Co1542 2.008 . S
Co1542 N1541 2.008 . S
Co1542 N1543 1.995 1_556 S
Co1542 N1548 2.008 1_556 S
Co1542 N1553 1.995 . S
Co1542 N1558 2.282 . S
Co1542 N1564 2.283 . S
N1543 Co1542 1.995 1_554 S
N1543 C1544 1.376 1_554 S
N1543 C1547 1.383 . S
C1544 N1543 1.376 1_556 S
C1544 C1545 1.446 1_556 S
C1544 C1574 1.391 . S
C1545 C1544 1.446 1_554 S
C1545 C1546 1.339 . S
C1545 H1580 0.949 . S
C1546 C1545 1.339 . S
C1546 C1547 1.439 . S
C1546 H1581 0.950 . S
C1547 N1543 1.383 . S
C1547 C1546 1.439 . S
C1547 C1576 1.392 . S
N1548 Co1542 2.008 1_554 S
N1548 C1549 1.376 . S
N1548 C1552 1.374 . S
C1549 N1548 1.376 . S
C1549 C1550 1.443 . S
C1549 C1576 1.389 . S
C1550 C1549 1.443 . S
C1550 C1551 1.340 . S
C1550 H1582 0.951 . S
C1551 C1550 1.340 . S
C1551 C1552 1.439 . S
C1551 H1583 0.950 . S
C1552 N1548 1.374 . S
C1552 C1551 1.439 . S
C1552 C1577 1.395 . S
N1553 Co1542 1.995 . S
N1553 C1554 1.376 . S
N1553 C1557 1.383 . S
C1554 N1553 1.376 . S
C1554 C1555 1.446 . S
C1554 C1577 1.391 1_556 S
C1555 C1554 1.446 . S
C1555 C1556 1.339 . S
C1555 H1584 0.949 . S
C1556 C1555 1.339 . S
C1556 C1557 1.439 . S
C1556 H1585 0.950 . S
C1557 N1553 1.383 . S
C1557 C1556 1.439 . S
C1557 C1575 1.392 . S
N1558 Co1542 2.282 . S
N1558 C1561 1.332 . S
N1558 C1563 1.332 . S
C1559 C1560 1.389 . S
C1559 C1562 1.388 . S
C1560 C1559 1.389 . S
C1560 C1561 1.388 . S
C1560 H1586 0.944 1_556 S
C1561 N1558 1.332 . S
C1561 C1560 1.388 . S
C1561 H1572 0.952 . S
C1562 C1559 1.388 . S
C1562 C1563 1.382 . S
C1562 H1587 0.950 . S
C1563 N1558 1.332 . S
C1563 C1562 1.382 . S
C1563 H1573 0.948 . S
N1564 Co1542 2.283 . S
N1564 C1568 1.334 . S
N1564 C1569 1.331 1_556 S
C1565 C1566 1.388 . S
C1565 C1569 1.379 1_556 S
C1565 H1588 0.952 . S
C1566 C1565 1.388 . S
C1566 C1567 1.386 . S
C1567 C1566 1.386 . S
C1567 C1568 1.382 . S
C1567 H1589 0.950 . S
C1568 N1564 1.334 . S
C1568 C1567 1.382 . S
C1568 H1570 0.952 . S
C1569 N1564 1.331 1_554 S
C1569 C1565 1.379 1_554 S
C1569 H1571 0.956 . S
H1570 C1568 0.952 . S
H1571 C1569 0.956 . S
H1572 C1561 0.952 . S
H1573 C1563 0.948 . S
C1574 C1540 1.395 . S
C1574 C1544 1.391 . S
C1575 C1537 1.389 . S
C1575 C1557 1.392 . S
C1576 C1547 1.392 . S
C1576 C1549 1.389 . S
C1577 C1552 1.395 . S
C1577 C1554 1.391 1_554 S
H1578 C1538 0.951 . S
H1579 C1539 0.950 . S
H1580 C1545 0.949 . S
H1581 C1546 0.950 . S
H1582 C1550 0.951 . S
H1583 C1551 0.950 . S
H1584 C1555 0.949 . S
H1585 C1556 0.950 . S
H1586 C1560 0.944 1_554 S
H1587 C1562 0.950 . S
H1588 C1565 0.952 . S
H1589 C1567 0.950 . S
C1590 C1591 1.443 . S
C1590 N1594 1.376 . S
C1590 C1628 1.389 . S
C1591 C1590 1.443 . S
C1591 C1592 1.340 . S
C1591 H1631 0.951 . S
C1592 C1591 1.340 . S
C1592 C1593 1.439 . S
C1592 H1632 0.950 . S
C1593 C1592 1.439 . S
C1593 N1594 1.374 . S
C1593 C1627 1.395 . S
N1594 C1590 1.376 . S
N1594 C1593 1.374 . S
N1594 Co1595 2.008 . S
Co1595 N1594 2.008 . S
Co1595 N1596 1.995 . S
Co1595 N1601 2.008 . S
Co1595 N1606 1.995 . S
Co1595 N1611 2.282 . S
Co1595 N1617 2.282 . S
N1596 Co1595 1.995 . S
N1596 C1597 1.376 . S
N1596 C1600 1.383 . S
C1597 N1596 1.376 . S
C1597 C1598 1.446 . S
C1597 C1627 1.391 . S
C1598 C1597 1.446 . S
C1598 C1599 1.339 . S
C1598 H1633 0.949 . S
C1599 C1598 1.339 . S
C1599 C1600 1.439 . S
C1599 H1634 0.950 . S
C1600 N1596 1.383 . S
C1600 C1599 1.439 . S
C1600 C1629 1.392 . S
N1601 Co1595 2.008 . S
N1601 C1602 1.376 . S
N1601 C1605 1.374 . S
C1602 N1601 1.376 . S
C1602 C1603 1.443 . S
C1602 C1629 1.389 . S
C1603 C1602 1.443 . S
C1603 C1604 1.340 . S
C1603 H1635 0.951 . S
C1604 C1603 1.340 . S
C1604 C1605 1.439 . S
C1604 H1636 0.950 . S
C1605 N1601 1.374 . S
C1605 C1604 1.439 . S
C1605 C1630 1.395 . S
N1606 Co1595 1.995 . S
N1606 C1607 1.376 . S
N1606 C1610 1.383 . S
C1607 N1606 1.376 . S
C1607 C1608 1.446 . S
C1607 C1630 1.391 . S
C1608 C1607 1.446 . S
C1608 C1609 1.339 . S
C1608 H1637 0.949 . S
C1609 C1608 1.339 . S
C1609 C1610 1.439 . S
C1609 H1638 0.950 . S
C1610 N1606 1.383 . S
C1610 C1609 1.439 . S
C1610 C1628 1.392 . S
N1611 Co1595 2.282 . S
N1611 C1614 1.332 . S
N1611 C1616 1.332 . S
C1612 C1613 1.386 . S
C1612 C1615 1.388 . S
C1613 C1612 1.386 . S
C1613 C1614 1.382 . S
C1613 H1639 0.950 . S
C1614 N1611 1.332 . S
C1614 C1613 1.382 . S
C1614 H1625 0.952 . S
C1615 C1612 1.388 . S
C1615 C1616 1.382 . S
C1615 H1640 0.950 . S
C1616 N1611 1.332 . S
C1616 C1615 1.382 . S
C1616 H1626 0.948 . S
N1617 Co1595 2.282 . S
N1617 C1621 1.332 . S
N1617 C1622 1.332 . S
C1618 C1619 1.388 . S
C1618 C1622 1.382 . S
C1618 H1641 0.950 . S
C1619 C1618 1.388 . S
C1619 C1620 1.386 . S
C1620 C1619 1.386 . S
C1620 C1621 1.382 . S
C1620 H1642 0.950 . S
C1621 N1617 1.332 . S
C1621 C1620 1.382 . S
C1621 H1623 0.952 . S
C1622 N1617 1.332 . S
C1622 C1618 1.382 . S
C1622 H1624 0.948 . S
H1623 C1621 0.952 . S
H1624 C1622 0.948 . S
H1625 C1614 0.952 . S
H1626 C1616 0.948 . S
C1627 C1593 1.395 . S
C1627 C1597 1.391 . S
C1628 C1590 1.389 . S
C1628 C1610 1.392 . S
C1629 C1600 1.392 . S
C1629 C1602 1.389 . S
C1630 C1605 1.395 . S
C1630 C1607 1.391 . S
H1631 C1591 0.951 . S
H1632 C1592 0.950 . S
H1633 C1598 0.949 . S
H1634 C1599 0.950 . S
H1635 C1603 0.951 . S
H1636 C1604 0.950 . S
H1637 C1608 0.949 . S
H1638 C1609 0.950 . S
H1639 C1613 0.950 . S
H1640 C1615 0.950 . S
H1641 C1618 0.950 . S
H1642 C1620 0.950 . S
C1643 C1644 1.443 . S
C1643 N1647 1.376 . S
C1643 C1681 1.389 . S
C1644 C1643 1.443 . S
C1644 C1645 1.340 . S
C1644 H1684 0.951 . S
C1645 C1644 1.340 . S
C1645 C1646 1.439 . S
C1645 H1685 0.950 . S
C1646 C1645 1.439 . S
C1646 N1647 1.374 . S
C1646 C1680 1.395 . S
N1647 C1643 1.376 . S
N1647 C1646 1.374 . S
N1647 Co1648 2.008 . S
Co1648 N1647 2.008 . S
Co1648 N1649 1.995 . S
Co1648 N1654 2.008 . S
Co1648 N1659 1.995 . S
Co1648 N1664 2.282 . S
Co1648 N1670 2.282 . S
N1649 Co1648 1.995 . S
N1649 C1650 1.376 . S
N1649 C1653 1.383 . S
C1650 N1649 1.376 . S
C1650 C1651 1.446 . S
C1650 C1680 1.391 . S
C1651 C1650 1.446 . S
C1651 C1652 1.339 . S
C1651 H1686 0.949 . S
C1652 C1651 1.339 . S
C1652 C1653 1.439 . S
C1652 H1687 0.950 . S
C1653 N1649 1.383 . S
C1653 C1652 1.439 . S
C1653 C1682 1.392 . S
N1654 Co1648 2.008 . S
N1654 C1655 1.376 . S
N1654 C1658 1.374 . S
C1655 N1654 1.376 . S
C1655 C1656 1.443 . S
C1655 C1682 1.389 . S
C1656 C1655 1.443 . S
C1656 C1657 1.340 . S
C1656 H1688 0.951 . S
C1657 C1656 1.340 . S
C1657 C1658 1.439 . S
C1657 H1689 0.950 . S
C1658 N1654 1.374 . S
C1658 C1657 1.439 . S
C1658 C1683 1.395 . S
N1659 Co1648 1.995 . S
N1659 C1660 1.376 . S
N1659 C1663 1.383 . S
C1660 N1659 1.376 . S
C1660 C1661 1.446 . S
C1660 C1683 1.391 . S
C1661 C1660 1.446 . S
C1661 C1662 1.339 . S
C1661 H1690 0.949 . S
C1662 C1661 1.339 . S
C1662 C1663 1.439 . S
C1662 H1691 0.950 . S
C1663 N1659 1.383 . S
C1663 C1662 1.439 . S
C1663 C1681 1.392 . S
N1664 Co1648 2.282 . S
N1664 C1667 1.332 . S
N1664 C1669 1.332 . S
C1665 C1666 1.386 . S
C1665 C1668 1.388 . S
C1666 C1665 1.386 . S
C1666 C1667 1.382 . S
C1666 H1692 0.950 . S
C1667 N1664 1.332 . S
C1667 C1666 1.382 . S
C1667 H1678 0.952 . S
C1668 C1665 1.388 . S
C1668 C1669 1.382 . S
C1668 H1693 0.950 . S
C1669 N1664 1.332 . S
C1669 C1668 1.382 . S
C1669 H1679 0.948 . S
N1670 Co1648 2.282 . S
N1670 C1674 1.332 . S
N1670 C1675 1.332 . S
C1671 C1672 1.388 . S
C1671 C1675 1.382 . S
C1671 H1694 0.950 . S
C1672 C1671 1.388 . S
C1672 C1673 1.386 . S
C1673 C1672 1.386 . S
C1673 C1674 1.382 . S
C1673 H1695 0.950 . S
C1674 N1670 1.332 . S
C1674 C1673 1.382 . S
C1674 H1676 0.952 . S
C1675 N1670 1.332 . S
C1675 C1671 1.382 . S
C1675 H1677 0.948 . S
H1676 C1674 0.952 . S
H1677 C1675 0.948 . S
H1678 C1667 0.952 . S
H1679 C1669 0.948 . S
C1680 C1646 1.395 . S
C1680 C1650 1.391 . S
C1681 C1643 1.389 . S
C1681 C1663 1.392 . S
C1682 C1653 1.392 . S
C1682 C1655 1.389 . S
C1683 C1658 1.395 . S
C1683 C1660 1.391 . S
H1684 C1644 0.951 . S
H1685 C1645 0.950 . S
H1686 C1651 0.949 . S
H1687 C1652 0.950 . S
H1688 C1656 0.951 . S
H1689 C1657 0.950 . S
H1690 C1661 0.949 . S
H1691 C1662 0.950 . S
H1692 C1666 0.950 . S
H1693 C1668 0.950 . S
H1694 C1671 0.950 . S
H1695 C1673 0.950 . S
H1696 C1702 0.930 . S
H1697 C1706 0.930 . S
H1698 C1711 0.929 . S
H1699 C1709 0.929 . S
H1700 C1704 0.929 . S
H1701 C1710 0.929 . S
C1702 H1696 0.930 . S
C1702 C1703 1.367 . S
C1702 C1710 1.378 . S
C1703 C1702 1.367 . S
C1703 C1711 1.433 . S
C1704 H1700 0.929 . S
C1704 C1706 1.378 . S
C1704 C1708 1.350 . S
C1705 C1708 1.463 . S
C1705 C1710 1.350 . S
C1705 N1713 1.427 . S
C1706 H1697 0.930 . S
C1706 C1704 1.378 . S
C1706 C1707 1.367 . S
C1707 C1706 1.367 . S
C1707 C1709 1.433 . S
C1708 C1704 1.350 . S
C1708 C1705 1.463 . S
C1708 N1712 1.427 . S
C1709 H1699 0.929 . S
C1709 C1707 1.433 . S
C1709 N1712 1.384 . S
C1710 H1701 0.929 . S
C1710 C1702 1.378 . S
C1710 C1705 1.350 . S
C1711 H1698 0.929 . S
C1711 C1703 1.433 . S
C1711 N1713 1.384 . S
N1712 C1708 1.427 . S
N1712 C1709 1.384 . S
N1713 C1705 1.427 . S
N1713 C1711 1.384 . S
H1714 C1720 0.930 . S
H1715 C1724 0.930 . S
H1716 C1729 0.929 . S
H1717 C1727 0.929 . S
H1718 C1722 0.929 . S
H1719 C1728 0.929 . S
C1720 H1714 0.930 . S
C1720 C1721 1.367 . S
C1720 C1728 1.378 . S
C1721 C1720 1.367 . S
C1721 C1729 1.433 . S
C1722 H1718 0.929 . S
C1722 C1724 1.378 . S
C1722 C1726 1.350 . S
C1723 C1726 1.463 . S
C1723 C1728 1.350 . S
C1723 N1731 1.427 . S
C1724 H1715 0.930 . S
C1724 C1722 1.378 . S
C1724 C1725 1.367 . S
C1725 C1724 1.367 . S
C1725 C1727 1.433 . S
C1726 C1722 1.350 . S
C1726 C1723 1.463 . S
C1726 N1730 1.427 . S
C1727 H1717 0.929 . S
C1727 C1725 1.433 . S
C1727 N1730 1.384 . S
C1728 H1719 0.929 . S
C1728 C1720 1.378 . S
C1728 C1723 1.350 . S
C1729 H1716 0.929 . S
C1729 C1721 1.433 . S
C1729 N1731 1.384 . S
N1730 C1726 1.427 . S
N1730 C1727 1.384 . S
N1731 C1723 1.427 . S
N1731 C1729 1.384 . S
H1732 C1738 0.930 . S
H1733 C1742 0.930 . S
H1734 C1747 0.929 . S
H1735 C1745 0.929 . S
H1736 C1740 0.929 . S
H1737 C1746 0.929 . S
C1738 H1732 0.930 . S
C1738 C1739 1.367 . S
C1738 C1746 1.378 . S
C1739 C1738 1.367 . S
C1739 C1747 1.433 . S
C1740 H1736 0.929 . S
C1740 C1742 1.378 . S
C1740 C1744 1.350 . S
C1741 C1744 1.463 . S
C1741 C1746 1.350 . S
C1741 N1749 1.427 . S
C1742 H1733 0.930 . S
C1742 C1740 1.378 . S
C1742 C1743 1.367 . S
C1743 C1742 1.367 . S
C1743 C1745 1.433 . S
C1744 C1740 1.350 . S
C1744 C1741 1.463 . S
C1744 N1748 1.427 . S
C1745 H1735 0.929 . S
C1745 C1743 1.433 . S
C1745 N1748 1.384 . S
C1746 H1737 0.929 . S
C1746 C1738 1.378 . S
C1746 C1741 1.350 . S
C1747 H1734 0.929 . S
C1747 C1739 1.433 . S
C1747 N1749 1.384 . S
N1748 C1744 1.427 . S
N1748 C1745 1.384 . S
N1749 C1741 1.427 . S
N1749 C1747 1.384 . S
H1750 C1756 0.930 . S
H1751 C1760 0.930 . S
H1752 C1765 0.929 . S
H1753 C1763 0.929 . S
H1754 C1758 0.929 . S
H1755 C1764 0.929 . S
C1756 H1750 0.930 . S
C1756 C1757 1.367 . S
C1756 C1764 1.378 . S
C1757 C1756 1.367 . S
C1757 C1765 1.433 . S
C1758 H1754 0.929 . S
C1758 C1760 1.378 . S
C1758 C1762 1.350 . S
C1759 C1762 1.463 . S
C1759 C1764 1.350 . S
C1759 N1767 1.427 . S
C1760 H1751 0.930 . S
C1760 C1758 1.378 . S
C1760 C1761 1.367 . S
C1761 C1760 1.367 . S
C1761 C1763 1.433 . S
C1762 C1758 1.350 . S
C1762 C1759 1.463 . S
C1762 N1766 1.427 . S
C1763 H1753 0.929 . S
C1763 C1761 1.433 . S
C1763 N1766 1.384 . S
C1764 H1755 0.929 . S
C1764 C1756 1.378 . S
C1764 C1759 1.350 . S
C1765 H1752 0.929 . S
C1765 C1757 1.433 . S
C1765 N1767 1.384 . S
N1766 C1762 1.427 . S
N1766 C1763 1.384 . S
N1767 C1759 1.427 . S
N1767 C1765 1.384 . S
H1768 C1774 0.930 . S
H1769 C1778 0.930 . S
H1770 C1783 0.929 . S
H1771 C1781 0.929 . S
H1772 C1776 0.929 . S
H1773 C1782 0.929 . S
C1774 H1768 0.930 . S
C1774 C1775 1.367 . S
C1774 C1782 1.378 . S
C1775 C1774 1.367 . S
C1775 C1783 1.433 . S
C1776 H1772 0.929 . S
C1776 C1778 1.378 . S
C1776 C1780 1.350 . S
C1777 C1780 1.463 . S
C1777 C1782 1.350 . S
C1777 N1785 1.427 . S
C1778 H1769 0.930 . S
C1778 C1776 1.378 . S
C1778 C1779 1.367 . S
C1779 C1778 1.367 . S
C1779 C1781 1.433 . S
C1780 C1776 1.350 . S
C1780 C1777 1.463 . S
C1780 N1784 1.427 . S
C1781 H1771 0.929 . S
C1781 C1779 1.433 . S
C1781 N1784 1.384 . S
C1782 H1773 0.929 . S
C1782 C1774 1.378 . S
C1782 C1777 1.350 . S
C1783 H1770 0.929 . S
C1783 C1775 1.433 . S
C1783 N1785 1.384 . S
N1784 C1780 1.427 . S
N1784 C1781 1.384 . S
N1785 C1777 1.427 . S
N1785 C1783 1.384 . S
H1786 C1792 0.930 . S
H1787 C1796 0.930 . S
H1788 C1801 0.929 . S
H1789 C1799 0.929 . S
H1790 C1794 0.929 . S
H1791 C1800 0.929 . S
C1792 H1786 0.930 . S
C1792 C1793 1.367 . S
C1792 C1800 1.378 . S
C1793 C1792 1.367 . S
C1793 C1801 1.433 . S
C1794 H1790 0.929 . S
C1794 C1796 1.378 . S
C1794 C1798 1.350 . S
C1795 C1798 1.463 . S
C1795 C1800 1.350 . S
C1795 N1803 1.427 . S
C1796 H1787 0.930 . S
C1796 C1794 1.378 . S
C1796 C1797 1.367 . S
C1797 C1796 1.367 . S
C1797 C1799 1.433 . S
C1798 C1794 1.350 . S
C1798 C1795 1.463 . S
C1798 N1802 1.427 . S
C1799 H1789 0.929 . S
C1799 C1797 1.433 . S
C1799 N1802 1.384 . S
C1800 H1791 0.929 . S
C1800 C1792 1.378 . S
C1800 C1795 1.350 . S
C1801 H1788 0.929 . S
C1801 C1793 1.433 . S
C1801 N1803 1.384 . S
N1802 C1798 1.427 . S
N1802 C1799 1.384 . S
N1803 C1795 1.427 . S
N1803 C1801 1.384 . S
H1804 C1810 0.930 . S
H1805 C1814 0.930 . S
H1806 C1819 0.929 . S
H1807 C1817 0.929 . S
H1808 C1812 0.929 . S
H1809 C1818 0.929 . S
C1810 H1804 0.930 . S
C1810 C1811 1.367 . S
C1810 C1818 1.378 . S
C1811 C1810 1.367 . S
C1811 C1819 1.433 . S
C1812 H1808 0.929 . S
C1812 C1814 1.378 . S
C1812 C1816 1.350 . S
C1813 C1816 1.463 . S
C1813 C1818 1.350 . S
C1813 N1821 1.427 . S
C1814 H1805 0.930 . S
C1814 C1812 1.378 . S
C1814 C1815 1.367 . S
C1815 C1814 1.367 . S
C1815 C1817 1.433 . S
C1816 C1812 1.350 . S
C1816 C1813 1.463 . S
C1816 N1820 1.427 . S
C1817 H1807 0.929 . S
C1817 C1815 1.433 . S
C1817 N1820 1.384 . S
C1818 H1809 0.929 . S
C1818 C1810 1.378 . S
C1818 C1813 1.350 . S
C1819 H1806 0.929 . S
C1819 C1811 1.433 . S
C1819 N1821 1.384 . S
N1820 C1816 1.427 . S
N1820 C1817 1.384 . S
N1821 C1813 1.427 . S
N1821 C1819 1.384 . S
H1822 C1828 0.930 . S
H1823 C1832 0.930 . S
H1824 C1837 0.929 . S
H1825 C1835 0.929 . S
H1826 C1830 0.929 . S
H1827 C1836 0.929 . S
C1828 H1822 0.930 . S
C1828 C1829 1.367 . S
C1828 C1836 1.378 . S
C1829 C1828 1.367 . S
C1829 C1837 1.433 . S
C1830 H1826 0.929 . S
C1830 C1832 1.378 . S
C1830 C1834 1.350 . S
C1831 C1834 1.463 . S
C1831 C1836 1.350 . S
C1831 N1839 1.427 . S
C1832 H1823 0.930 . S
C1832 C1830 1.378 . S
C1832 C1833 1.367 . S
C1833 C1832 1.367 . S
C1833 C1835 1.433 . S
C1834 C1830 1.350 . S
C1834 C1831 1.463 . S
C1834 N1838 1.427 . S
C1835 H1825 0.929 . S
C1835 C1833 1.433 . S
C1835 N1838 1.384 . S
C1836 H1827 0.929 . S
C1836 C1828 1.378 . S
C1836 C1831 1.350 . S
C1837 H1824 0.929 . S
C1837 C1829 1.433 . S
C1837 N1839 1.384 . S
N1838 C1834 1.427 . S
N1838 C1835 1.384 . S
N1839 C1831 1.427 . S
N1839 C1837 1.384 . S
H1840 C1846 0.930 . S
H1841 C1850 0.930 . S
H1842 C1855 0.929 . S
H1843 C1853 0.929 . S
H1844 C1848 0.929 . S
H1845 C1854 0.929 . S
C1846 H1840 0.930 . S
C1846 C1847 1.367 . S
C1846 C1854 1.378 . S
C1847 C1846 1.367 . S
C1847 C1855 1.433 . S
C1848 H1844 0.929 . S
C1848 C1850 1.378 . S
C1848 C1852 1.350 . S
C1849 C1852 1.463 . S
C1849 C1854 1.350 . S
C1849 N1857 1.427 . S
C1850 H1841 0.930 . S
C1850 C1848 1.378 . S
C1850 C1851 1.367 . S
C1851 C1850 1.367 . S
C1851 C1853 1.433 . S
C1852 C1848 1.350 . S
C1852 C1849 1.463 . S
C1852 N1856 1.427 . S
C1853 H1843 0.929 . S
C1853 C1851 1.433 . S
C1853 N1856 1.384 . S
C1854 H1845 0.929 . S
C1854 C1846 1.378 . S
C1854 C1849 1.350 . S
C1855 H1842 0.929 . S
C1855 C1847 1.433 . S
C1855 N1857 1.384 . S
N1856 C1852 1.427 . S
N1856 C1853 1.384 . S
N1857 C1849 1.427 . S
N1857 C1855 1.384 . S
H1858 C1864 0.930 . S
H1859 C1868 0.930 . S
H1860 C1873 0.929 . S
H1861 C1871 0.929 . S
H1862 C1866 0.929 . S
H1863 C1872 0.929 . S
C1864 H1858 0.930 . S
C1864 C1865 1.367 . S
C1864 C1872 1.378 . S
C1865 C1864 1.367 . S
C1865 C1873 1.433 . S
C1866 H1862 0.929 . S
C1866 C1868 1.378 . S
C1866 C1870 1.350 . S
C1867 C1870 1.463 . S
C1867 C1872 1.350 . S
C1867 N1875 1.427 . S
C1868 H1859 0.930 . S
C1868 C1866 1.378 . S
C1868 C1869 1.367 . S
C1869 C1868 1.367 . S
C1869 C1871 1.433 . S
C1870 C1866 1.350 . S
C1870 C1867 1.463 . S
C1870 N1874 1.427 . S
C1871 H1861 0.929 . S
C1871 C1869 1.433 . S
C1871 N1874 1.384 . S
C1872 H1863 0.929 . S
C1872 C1864 1.378 . S
C1872 C1867 1.350 . S
C1873 H1860 0.929 . S
C1873 C1865 1.433 . S
C1873 N1875 1.384 . S
N1874 C1870 1.427 . S
N1874 C1871 1.384 . S
N1875 C1867 1.427 . S
N1875 C1873 1.384 . S
H1876 C1882 0.930 . S
H1877 C1886 0.930 . S
H1878 C1891 0.929 . S
H1879 C1889 0.929 . S
H1880 C1884 0.929 . S
H1881 C1890 0.929 . S
C1882 H1876 0.930 . S
C1882 C1883 1.367 . S
C1882 C1890 1.378 . S
C1883 C1882 1.367 . S
C1883 C1891 1.433 . S
C1884 H1880 0.929 . S
C1884 C1886 1.378 . S
C1884 C1888 1.350 . S
C1885 C1888 1.463 . S
C1885 C1890 1.350 . S
C1885 N1893 1.427 . S
C1886 H1877 0.930 . S
C1886 C1884 1.378 . S
C1886 C1887 1.367 . S
C1887 C1886 1.367 . S
C1887 C1889 1.433 . S
C1888 C1884 1.350 . S
C1888 C1885 1.463 . S
C1888 N1892 1.427 . S
C1889 H1879 0.929 . S
C1889 C1887 1.433 . S
C1889 N1892 1.384 . S
C1890 H1881 0.929 . S
C1890 C1882 1.378 . S
C1890 C1885 1.350 . S
C1891 H1878 0.929 . S
C1891 C1883 1.433 . S
C1891 N1893 1.384 . S
N1892 C1888 1.427 . S
N1892 C1889 1.384 . S
N1893 C1885 1.427 . S
N1893 C1891 1.384 . S
H1894 C1900 0.930 . S
H1895 C1904 0.930 . S
H1896 C1909 0.929 . S
H1897 C1907 0.929 . S
H1898 C1902 0.929 . S
H1899 C1908 0.929 . S
C1900 H1894 0.930 . S
C1900 C1901 1.367 . S
C1900 C1908 1.378 . S
C1901 C1900 1.367 . S
C1901 C1909 1.433 . S
C1902 H1898 0.929 . S
C1902 C1904 1.378 . S
C1902 C1906 1.350 . S
C1903 C1906 1.463 . S
C1903 C1908 1.350 . S
C1903 N1911 1.427 . S
C1904 H1895 0.930 . S
C1904 C1902 1.378 . S
C1904 C1905 1.367 . S
C1905 C1904 1.367 . S
C1905 C1907 1.433 . S
C1906 C1902 1.350 . S
C1906 C1903 1.463 . S
C1906 N1910 1.427 . S
C1907 H1897 0.929 . S
C1907 C1905 1.433 . S
C1907 N1910 1.384 . S
C1908 H1899 0.929 . S
C1908 C1900 1.378 . S
C1908 C1903 1.350 . S
C1909 H1896 0.929 . S
C1909 C1901 1.433 . S
C1909 N1911 1.384 . S
N1910 C1906 1.427 . S
N1910 C1907 1.384 . S
N1911 C1903 1.427 . S
N1911 C1909 1.384 . S
H1912 C1918 0.930 . S
H1913 C1922 0.930 . S
H1914 C1927 0.929 . S
H1915 C1925 0.929 . S
H1916 C1920 0.929 . S
H1917 C1926 0.929 . S
C1918 H1912 0.930 . S
C1918 C1919 1.367 . S
C1918 C1926 1.378 . S
C1919 C1918 1.367 . S
C1919 C1927 1.433 . S
C1920 H1916 0.929 . S
C1920 C1922 1.378 . S
C1920 C1924 1.350 . S
C1921 C1924 1.463 . S
C1921 C1926 1.350 . S
C1921 N1929 1.427 . S
C1922 H1913 0.930 . S
C1922 C1920 1.378 . S
C1922 C1923 1.367 . S
C1923 C1922 1.367 . S
C1923 C1925 1.433 . S
C1924 C1920 1.350 . S
C1924 C1921 1.463 . S
C1924 N1928 1.427 . S
C1925 H1915 0.929 . S
C1925 C1923 1.433 . S
C1925 N1928 1.384 . S
C1926 H1917 0.929 . S
C1926 C1918 1.378 . S
C1926 C1921 1.350 . S
C1927 H1914 0.929 . S
C1927 C1919 1.433 . S
C1927 N1929 1.384 . S
N1928 C1924 1.427 . S
N1928 C1925 1.384 . S
N1929 C1921 1.427 . S
N1929 C1927 1.384 . S
H1930 C1936 0.930 . S
H1931 C1940 0.930 . S
H1932 C1945 0.929 . S
H1933 C1943 0.929 . S
H1934 C1938 0.929 . S
H1935 C1944 0.929 . S
C1936 H1930 0.930 . S
C1936 C1937 1.367 . S
C1936 C1944 1.378 . S
C1937 C1936 1.367 . S
C1937 C1945 1.433 . S
C1938 H1934 0.929 . S
C1938 C1940 1.378 . S
C1938 C1942 1.350 . S
C1939 C1942 1.463 . S
C1939 C1944 1.350 . S
C1939 N1947 1.427 . S
C1940 H1931 0.930 . S
C1940 C1938 1.378 . S
C1940 C1941 1.367 . S
C1941 C1940 1.367 . S
C1941 C1943 1.433 . S
C1942 C1938 1.350 . S
C1942 C1939 1.463 . S
C1942 N1946 1.427 . S
C1943 H1933 0.929 . S
C1943 C1941 1.433 . S
C1943 N1946 1.384 . S
C1944 H1935 0.929 . S
C1944 C1936 1.378 . S
C1944 C1939 1.350 . S
C1945 H1932 0.929 . S
C1945 C1937 1.433 . S
C1945 N1947 1.384 . S
N1946 C1942 1.427 . S
N1946 C1943 1.384 . S
N1947 C1939 1.427 . S
N1947 C1945 1.384 . S
H1948 C1954 0.930 . S
H1949 C1958 0.930 . S
H1950 C1963 0.929 . S
H1951 C1961 0.929 . S
H1952 C1956 0.929 . S
H1953 C1962 0.929 . S
C1954 H1948 0.930 . S
C1954 C1955 1.367 . S
C1954 C1962 1.378 . S
C1955 C1954 1.367 . S
C1955 C1963 1.433 . S
C1956 H1952 0.929 . S
C1956 C1958 1.378 . S
C1956 C1960 1.350 . S
C1957 C1960 1.463 . S
C1957 C1962 1.350 . S
C1957 N1965 1.427 . S
C1958 H1949 0.930 . S
C1958 C1956 1.378 . S
C1958 C1959 1.367 . S
C1959 C1958 1.367 . S
C1959 C1961 1.433 . S
C1960 C1956 1.350 . S
C1960 C1957 1.463 . S
C1960 N1964 1.427 . S
C1961 H1951 0.929 . S
C1961 C1959 1.433 . S
C1961 N1964 1.384 . S
C1962 H1953 0.929 . S
C1962 C1954 1.378 . S
C1962 C1957 1.350 . S
C1963 H1950 0.929 . S
C1963 C1955 1.433 . S
C1963 N1965 1.384 . S
N1964 C1960 1.427 . S
N1964 C1961 1.384 . S
N1965 C1957 1.427 . S
N1965 C1963 1.384 . S
H1966 C1972 0.930 . S
H1967 C1976 0.930 . S
H1968 C1981 0.929 . S
H1969 C1979 0.929 . S
H1970 C1974 0.929 . S
H1971 C1980 0.929 . S
C1972 H1966 0.930 . S
C1972 C1973 1.367 . S
C1972 C1980 1.378 . S
C1973 C1972 1.367 . S
C1973 C1981 1.433 . S
C1974 H1970 0.929 . S
C1974 C1976 1.378 . S
C1974 C1978 1.350 . S
C1975 C1978 1.463 . S
C1975 C1980 1.350 . S
C1975 N1983 1.427 . S
C1976 H1967 0.930 . S
C1976 C1974 1.378 . S
C1976 C1977 1.367 . S
C1977 C1976 1.367 . S
C1977 C1979 1.433 . S
C1978 C1974 1.350 . S
C1978 C1975 1.463 . S
C1978 N1982 1.427 . S
C1979 H1969 0.929 . S
C1979 C1977 1.433 . S
C1979 N1982 1.384 . S
C1980 H1971 0.929 . S
C1980 C1972 1.378 . S
C1980 C1975 1.350 . S
C1981 H1968 0.929 . S
C1981 C1973 1.433 . S
C1981 N1983 1.384 . S
N1982 C1978 1.427 . S
N1982 C1979 1.384 . S
N1983 C1975 1.427 . S
N1983 C1981 1.384 . S
H1984 C1990 0.930 . S
H1985 C1994 0.930 . S
H1986 C1999 0.929 . S
H1987 C1997 0.929 . S
H1988 C1992 0.929 . S
H1989 C1998 0.929 . S
C1990 H1984 0.930 . S
C1990 C1991 1.344 1_556 S
C1990 C1998 1.378 . S
C1991 C1990 1.344 1_554 S
C1991 C1999 1.456 . S
C1992 H1988 0.929 . S
C1992 C1994 1.378 . S
C1992 C1996 1.362 . S
C1993 C1996 1.462 1_546 S
C1993 C1998 1.362 . S
C1993 N2001 1.414 1_556 S
C1994 H1985 0.930 . S
C1994 C1992 1.378 . S
C1994 C1995 1.344 1_554 S
C1995 C1994 1.344 1_556 S
C1995 C1997 1.456 . S
C1996 C1992 1.362 . S
C1996 C1993 1.462 1_564 S
C1996 N2000 1.414 1_554 S
C1997 H1987 0.929 . S
C1997 C1995 1.456 . S
C1997 N2000 1.384 . S
C1998 H1989 0.929 . S
C1998 C1990 1.378 . S
C1998 C1993 1.362 . S
C1999 H1986 0.929 . S
C1999 C1991 1.456 . S
C1999 N2001 1.384 . S
N2000 C1996 1.414 1_556 S
N2000 C1997 1.384 . S
N2001 C1993 1.414 1_554 S
N2001 C1999 1.384 . S
H2002 C2008 0.930 . S
H2003 C2012 0.930 . S
H2004 C2017 0.929 . S
H2005 C2015 0.929 . S
H2006 C2010 0.929 . S
H2007 C2016 0.929 . S
C2008 H2002 0.930 . S
C2008 C2009 1.344 1_554 S
C2008 C2016 1.378 . S
C2009 C2008 1.344 1_556 S
C2009 C2017 1.456 . S
C2010 H2006 0.929 . S
C2010 C2012 1.378 . S
C2010 C2014 1.369 . S
C2011 C2014 1.461 1_554 S
C2011 C2016 1.368 . S
C2011 N2019 1.409 1_554 S
C2012 H2003 0.930 . S
C2012 C2010 1.378 . S
C2012 C2013 1.345 1_556 S
C2013 C2012 1.345 1_554 S
C2013 C2015 1.455 . S
C2014 C2010 1.369 . S
C2014 C2011 1.461 1_556 S
C2014 N2018 1.408 1_556 S
C2015 H2005 0.929 . S
C2015 C2013 1.455 . S
C2015 N2018 1.384 . S
C2016 H2007 0.929 . S
C2016 C2008 1.378 . S
C2016 C2011 1.368 . S
C2017 H2004 0.929 . S
C2017 C2009 1.456 . S
C2017 N2019 1.384 . S
N2018 C2014 1.408 1_554 S
N2018 C2015 1.384 . S
N2019 C2011 1.409 1_556 S
N2019 C2017 1.384 . S
H2020 C2026 0.930 . S
H2021 C2030 0.930 . S
H2022 C2035 0.929 . S
H2023 C2033 0.929 . S
H2024 C2028 0.929 . S
H2025 C2034 0.929 . S
C2026 H2020 0.930 . S
C2026 C2027 1.367 . S
C2026 C2034 1.378 . S
C2027 C2026 1.367 . S
C2027 C2035 1.433 . S
C2028 H2024 0.929 . S
C2028 C2030 1.378 . S
C2028 C2032 1.350 . S
C2029 C2032 1.463 . S
C2029 C2034 1.350 . S
C2029 N2037 1.427 . S
C2030 H2021 0.930 . S
C2030 C2028 1.378 . S
C2030 C2031 1.367 . S
C2031 C2030 1.367 . S
C2031 C2033 1.433 . S
C2032 C2028 1.350 . S
C2032 C2029 1.463 . S
C2032 N2036 1.427 . S
C2033 H2023 0.929 . S
C2033 C2031 1.433 . S
C2033 N2036 1.384 . S
C2034 H2025 0.929 . S
C2034 C2026 1.378 . S
C2034 C2029 1.350 . S
C2035 H2022 0.929 . S
C2035 C2027 1.433 . S
C2035 N2037 1.384 . S
N2036 C2032 1.427 . S
N2036 C2033 1.384 . S
N2037 C2029 1.427 . S
N2037 C2035 1.384 . S
H2038 C2044 0.930 . S
H2039 C2048 0.930 . S
H2040 C2053 0.929 . S
H2041 C2051 0.929 . S
H2042 C2046 0.929 1_565 S
H2043 C2052 0.929 1_545 S
C2044 H2038 0.930 . S
C2044 C2045 1.367 . S
C2044 C2052 1.378 . S
C2045 C2044 1.367 . S
C2045 C2053 1.433 . S
C2046 H2042 0.929 1_545 S
C2046 C2048 1.378 . S
C2046 C2050 1.350 . S
C2047 C2050 1.463 1_565 S
C2047 C2052 1.350 . S
C2047 N2055 1.427 . S
C2048 H2039 0.930 . S
C2048 C2046 1.378 . S
C2048 C2049 1.367 . S
C2049 C2048 1.367 . S
C2049 C2051 1.433 . S
C2050 C2046 1.350 . S
C2050 C2047 1.463 1_545 S
C2050 N2054 1.427 . S
C2051 H2041 0.929 . S
C2051 C2049 1.433 . S
C2051 N2054 1.384 . S
C2052 H2043 0.929 1_565 S
C2052 C2044 1.378 . S
C2052 C2047 1.350 . S
C2053 H2040 0.929 . S
C2053 C2045 1.433 . S
C2053 N2055 1.384 . S
N2054 C2050 1.427 . S
N2054 C2051 1.384 . S
N2055 C2047 1.427 . S
N2055 C2053 1.384 . S
H2056 C2062 0.930 . S
H2057 C2066 0.930 . S
H2058 C2071 0.929 . S
H2059 C2069 0.929 . S
H2060 C2064 0.929 . S
H2061 C2070 0.929 . S
C2062 H2056 0.930 . S
C2062 C2063 1.367 . S
C2062 C2070 1.378 . S
C2063 C2062 1.367 . S
C2063 C2071 1.433 1_554 S
C2064 H2060 0.929 . S
C2064 C2066 1.378 . S
C2064 C2068 1.388 . S
C2065 C2068 1.459 1_554 S
C2065 C2070 1.389 . S
C2065 N2073 1.389 1_554 S
C2066 H2057 0.930 . S
C2066 C2064 1.378 . S
C2066 C2067 1.367 . S
C2067 C2066 1.367 . S
C2067 C2069 1.433 1_556 S
C2068 C2064 1.388 . S
C2068 C2065 1.459 1_556 S
C2068 N2072 1.390 1_556 S
C2069 H2059 0.929 . S
C2069 C2067 1.433 1_554 S
C2069 N2072 1.384 . S
C2070 H2061 0.929 . S
C2070 C2062 1.378 . S
C2070 C2065 1.389 . S
C2071 H2058 0.929 . S
C2071 C2063 1.433 1_556 S
C2071 N2073 1.384 . S
N2072 C2068 1.390 1_554 S
N2072 C2069 1.384 . S
N2073 C2065 1.389 1_556 S
N2073 C2071 1.384 . S
H2074 C2080 0.930 . S
H2075 C2084 0.930 . S
H2076 C2089 0.929 . S
H2077 C2087 0.929 . S
H2078 C2082 0.929 . S
H2079 C2088 0.929 . S
C2080 H2074 0.930 . S
C2080 C2081 1.367 . S
C2080 C2088 1.378 . S
C2081 C2080 1.367 . S
C2081 C2089 1.433 . S
C2082 H2078 0.929 . S
C2082 C2084 1.378 . S
C2082 C2086 1.350 . S
C2083 C2086 1.463 . S
C2083 C2088 1.350 . S
C2083 N2091 1.427 . S
C2084 H2075 0.930 . S
C2084 C2082 1.378 . S
C2084 C2085 1.367 . S
C2085 C2084 1.367 . S
C2085 C2087 1.433 . S
C2086 C2082 1.350 . S
C2086 C2083 1.463 . S
C2086 N2090 1.427 . S
C2087 H2077 0.929 . S
C2087 C2085 1.433 . S
C2087 N2090 1.384 . S
C2088 H2079 0.929 . S
C2088 C2080 1.378 . S
C2088 C2083 1.350 . S
C2089 H2076 0.929 . S
C2089 C2081 1.433 . S
C2089 N2091 1.384 . S
N2090 C2086 1.427 . S
N2090 C2087 1.384 . S
N2091 C2083 1.427 . S
N2091 C2089 1.384 . S
H2092 C2098 0.930 . S
H2093 C2102 0.930 . S
H2094 C2107 0.929 . S
H2095 C2105 0.929 . S
H2096 C2100 0.929 1_565 S
H2097 C2106 0.929 1_545 S
C2098 H2092 0.930 . S
C2098 C2099 1.367 . S
C2098 C2106 1.378 . S
C2099 C2098 1.367 . S
C2099 C2107 1.433 . S
C2100 H2096 0.929 1_545 S
C2100 C2102 1.378 . S
C2100 C2104 1.350 . S
C2101 C2104 1.463 1_565 S
C2101 C2106 1.350 . S
C2101 N2109 1.427 . S
C2102 H2093 0.930 . S
C2102 C2100 1.378 . S
C2102 C2103 1.367 . S
C2103 C2102 1.367 . S
C2103 C2105 1.433 . S
C2104 C2100 1.350 . S
C2104 C2101 1.463 1_545 S
C2104 N2108 1.427 . S
C2105 H2095 0.929 . S
C2105 C2103 1.433 . S
C2105 N2108 1.384 . S
C2106 H2097 0.929 1_565 S
C2106 C2098 1.378 . S
C2106 C2101 1.350 . S
C2107 H2094 0.929 . S
C2107 C2099 1.433 . S
C2107 N2109 1.384 . S
N2108 C2104 1.427 . S
N2108 C2105 1.384 . S
N2109 C2101 1.427 . S
N2109 C2107 1.384 . S
H2110 C2116 0.930 . S
H2111 C2120 0.930 . S
H2112 C2125 0.929 . S
H2113 C2123 0.929 . S
H2114 C2118 0.929 . S
H2115 C2124 0.929 . S
C2116 H2110 0.930 . S
C2116 C2117 1.367 . S
C2116 C2124 1.378 . S
C2117 C2116 1.367 . S
C2117 C2125 1.433 . S
C2118 H2114 0.929 . S
C2118 C2120 1.378 . S
C2118 C2122 1.350 . S
C2119 C2122 1.463 . S
C2119 C2124 1.350 . S
C2119 N2127 1.427 . S
C2120 H2111 0.930 . S
C2120 C2118 1.378 . S
C2120 C2121 1.367 . S
C2121 C2120 1.367 . S
C2121 C2123 1.433 . S
C2122 C2118 1.350 . S
C2122 C2119 1.463 . S
C2122 N2126 1.427 . S
C2123 H2113 0.929 . S
C2123 C2121 1.433 . S
C2123 N2126 1.384 . S
C2124 H2115 0.929 . S
C2124 C2116 1.378 . S
C2124 C2119 1.350 . S
C2125 H2112 0.929 . S
C2125 C2117 1.433 . S
C2125 N2127 1.384 . S
N2126 C2122 1.427 . S
N2126 C2123 1.384 . S
N2127 C2119 1.427 . S
N2127 C2125 1.384 . S
H2128 C2134 0.930 . S
H2129 C2138 0.930 . S
H2130 C2143 0.929 . S
H2131 C2141 0.929 . S
H2132 C2136 0.929 . S
H2133 C2142 0.929 . S
C2134 H2128 0.930 . S
C2134 C2135 1.367 . S
C2134 C2142 1.378 . S
C2135 C2134 1.367 . S
C2135 C2143 1.433 . S
C2136 H2132 0.929 . S
C2136 C2138 1.378 . S
C2136 C2140 1.350 . S
C2137 C2140 1.463 . S
C2137 C2142 1.350 . S
C2137 N2145 1.427 . S
C2138 H2129 0.930 . S
C2138 C2136 1.378 . S
C2138 C2139 1.367 . S
C2139 C2138 1.367 . S
C2139 C2141 1.433 . S
C2140 C2136 1.350 . S
C2140 C2137 1.463 . S
C2140 N2144 1.427 . S
C2141 H2131 0.929 . S
C2141 C2139 1.433 . S
C2141 N2144 1.384 . S
C2142 H2133 0.929 . S
C2142 C2134 1.378 . S
C2142 C2137 1.350 . S
C2143 H2130 0.929 . S
C2143 C2135 1.433 . S
C2143 N2145 1.384 . S
N2144 C2140 1.427 . S
N2144 C2141 1.384 . S
N2145 C2137 1.427 . S
N2145 C2143 1.384 . S
H2146 C2152 0.930 . S
H2147 C2156 0.930 . S
H2148 C2161 0.929 . S
H2149 C2159 0.929 . S
H2150 C2154 0.929 . S
H2151 C2160 0.929 . S
C2152 H2146 0.930 . S
C2152 C2153 1.367 . S
C2152 C2160 1.378 . S
C2153 C2152 1.367 . S
C2153 C2161 1.433 . S
C2154 H2150 0.929 . S
C2154 C2156 1.378 . S
C2154 C2158 1.350 . S
C2155 C2158 1.463 . S
C2155 C2160 1.350 . S
C2155 N2163 1.427 . S
C2156 H2147 0.930 . S
C2156 C2154 1.378 . S
C2156 C2157 1.367 . S
C2157 C2156 1.367 . S
C2157 C2159 1.433 . S
C2158 C2154 1.350 . S
C2158 C2155 1.463 . S
C2158 N2162 1.427 . S
C2159 H2149 0.929 . S
C2159 C2157 1.433 . S
C2159 N2162 1.384 . S
C2160 H2151 0.929 . S
C2160 C2152 1.378 . S
C2160 C2155 1.350 . S
C2161 H2148 0.929 . S
C2161 C2153 1.433 . S
C2161 N2163 1.384 . S
N2162 C2158 1.427 . S
N2162 C2159 1.384 . S
N2163 C2155 1.427 . S
N2163 C2161 1.384 . S
H2164 C2170 0.930 . S
H2165 C2174 0.930 . S
H2166 C2179 0.929 . S
H2167 C2177 0.929 . S
H2168 C2172 0.929 . S
H2169 C2178 0.929 . S
C2170 H2164 0.930 . S
C2170 C2171 1.367 . S
C2170 C2178 1.378 . S
C2171 C2170 1.367 . S
C2171 C2179 1.433 . S
C2172 H2168 0.929 . S
C2172 C2174 1.378 . S
C2172 C2176 1.350 . S
C2173 C2176 1.463 . S
C2173 C2178 1.350 . S
C2173 N2181 1.427 . S
C2174 H2165 0.930 . S
C2174 C2172 1.378 . S
C2174 C2175 1.367 . S
C2175 C2174 1.367 . S
C2175 C2177 1.433 . S
C2176 C2172 1.350 . S
C2176 C2173 1.463 . S
C2176 N2180 1.427 . S
C2177 H2167 0.929 . S
C2177 C2175 1.433 . S
C2177 N2180 1.384 . S
C2178 H2169 0.929 . S
C2178 C2170 1.378 . S
C2178 C2173 1.350 . S
C2179 H2166 0.929 . S
C2179 C2171 1.433 . S
C2179 N2181 1.384 . S
N2180 C2176 1.427 . S
N2180 C2177 1.384 . S
N2181 C2173 1.427 . S
N2181 C2179 1.384 . S
H2182 C2188 0.930 . S
H2183 C2192 0.930 . S
H2184 C2197 0.929 . S
H2185 C2195 0.929 . S
H2186 C2190 0.929 . S
H2187 C2196 0.929 . S
C2188 H2182 0.930 . S
C2188 C2189 1.367 . S
C2188 C2196 1.378 . S
C2189 C2188 1.367 . S
C2189 C2197 1.433 . S
C2190 H2186 0.929 . S
C2190 C2192 1.378 . S
C2190 C2194 1.350 . S
C2191 C2194 1.463 . S
C2191 C2196 1.350 . S
C2191 N2199 1.427 . S
C2192 H2183 0.930 . S
C2192 C2190 1.378 . S
C2192 C2193 1.367 . S
C2193 C2192 1.367 . S
C2193 C2195 1.433 . S
C2194 C2190 1.350 . S
C2194 C2191 1.463 . S
C2194 N2198 1.427 . S
C2195 H2185 0.929 . S
C2195 C2193 1.433 . S
C2195 N2198 1.384 . S
C2196 H2187 0.929 . S
C2196 C2188 1.378 . S
C2196 C2191 1.350 . S
C2197 H2184 0.929 . S
C2197 C2189 1.433 . S
C2197 N2199 1.384 . S
N2198 C2194 1.427 . S
N2198 C2195 1.384 . S
N2199 C2191 1.427 . S
N2199 C2197 1.384 . S
H2200 C2206 0.930 . S
H2201 C2210 0.930 . S
H2202 C2215 0.929 . S
H2203 C2213 0.929 . S
H2204 C2208 0.929 1_455 S
H2205 C2214 0.929 1_655 S
C2206 H2200 0.930 . S
C2206 C2207 1.367 . S
C2206 C2214 1.378 . S
C2207 C2206 1.367 . S
C2207 C2215 1.433 . S
C2208 H2204 0.929 1_655 S
C2208 C2210 1.378 . S
C2208 C2212 1.350 . S
C2209 C2212 1.463 1_465 S
C2209 C2214 1.350 . S
C2209 N2217 1.398 1_565 S
C2210 H2201 0.930 . S
C2210 C2208 1.378 . S
C2210 C2211 1.367 . S
C2211 C2210 1.367 . S
C2211 C2213 1.433 . S
C2212 C2208 1.350 . S
C2212 C2209 1.463 1_645 S
C2212 N2216 1.398 1_545 S
C2213 H2203 0.929 . S
C2213 C2211 1.433 . S
C2213 N2216 1.338 1_545 S
C2214 H2205 0.929 1_455 S
C2214 C2206 1.378 . S
C2214 C2209 1.350 . S
C2215 H2202 0.929 . S
C2215 C2207 1.433 . S
C2215 N2217 1.338 1_565 S
N2216 C2212 1.398 1_565 S
N2216 C2213 1.338 1_565 S
N2217 C2209 1.398 1_545 S
N2217 C2215 1.338 1_545 S
H2218 C2224 0.930 . S
H2219 C2228 0.930 . S
H2220 C2233 0.929 . S
H2221 C2231 0.929 . S
H2222 C2226 0.929 . S
H2223 C2232 0.929 . S
C2224 H2218 0.930 . S
C2224 C2225 1.367 . S
C2224 C2232 1.378 . S
C2225 C2224 1.367 . S
C2225 C2233 1.433 . S
C2226 H2222 0.929 . S
C2226 C2228 1.378 . S
C2226 C2230 1.350 . S
C2227 C2230 1.463 1_655 S
C2227 C2232 1.350 . S
C2227 N2235 1.427 . S
C2228 H2219 0.930 . S
C2228 C2226 1.378 . S
C2228 C2229 1.367 . S
C2229 C2228 1.367 . S
C2229 C2231 1.433 . S
C2230 C2226 1.350 . S
C2230 C2227 1.463 1_455 S
C2230 N2234 1.427 . S
C2231 H2221 0.929 . S
C2231 C2229 1.433 . S
C2231 N2234 1.384 . S
C2232 H2223 0.929 . S
C2232 C2224 1.378 . S
C2232 C2227 1.350 . S
C2233 H2220 0.929 . S
C2233 C2225 1.433 . S
C2233 N2235 1.384 . S
N2234 C2230 1.427 . S
N2234 C2231 1.384 . S
N2235 C2227 1.427 . S
N2235 C2233 1.384 . S
H2236 C2242 0.930 . S
H2237 C2246 0.930 . S
H2238 C2251 0.929 . S
H2239 C2249 0.929 . S
H2240 C2244 0.929 . S
H2241 C2250 0.929 . S
C2242 H2236 0.930 . S
C2242 C2243 1.367 . S
C2242 C2250 1.378 . S
C2243 C2242 1.367 . S
C2243 C2251 1.433 . S
C2244 H2240 0.929 . S
C2244 C2246 1.378 . S
C2244 C2248 1.350 . S
C2245 C2248 1.463 1_455 S
C2245 C2250 1.350 . S
C2245 N2253 1.427 . S
C2246 H2237 0.930 . S
C2246 C2244 1.378 . S
C2246 C2247 1.367 . S
C2247 C2246 1.367 . S
C2247 C2249 1.433 . S
C2248 C2244 1.350 . S
C2248 C2245 1.463 1_655 S
C2248 N2252 1.427 . S
C2249 H2239 0.929 . S
C2249 C2247 1.433 . S
C2249 N2252 1.384 . S
C2250 H2241 0.929 . S
C2250 C2242 1.378 . S
C2250 C2245 1.350 . S
C2251 H2238 0.929 . S
C2251 C2243 1.433 . S
C2251 N2253 1.384 . S
N2252 C2248 1.427 . S
N2252 C2249 1.384 . S
N2253 C2245 1.427 . S
N2253 C2251 1.384 . S
H2254 C2260 0.930 . S
H2255 C2264 0.930 . S
H2256 C2269 0.929 . S
H2257 C2267 0.929 . S
H2258 C2262 0.929 . S
H2259 C2268 0.929 . S
C2260 H2254 0.930 . S
C2260 C2261 1.345 1_554 S
C2260 C2268 1.378 . S
C2261 C2260 1.345 1_556 S
C2261 C2269 1.455 . S
C2262 H2258 0.929 . S
C2262 C2264 1.378 . S
C2262 C2266 1.356 . S
C2263 C2266 1.462 1_454 S
C2263 C2268 1.356 . S
C2263 N2271 1.421 1_554 S
C2264 H2255 0.930 . S
C2264 C2262 1.378 . S
C2264 C2265 1.345 1_556 S
C2265 C2264 1.345 1_554 S
C2265 C2267 1.455 . S
C2266 C2262 1.356 . S
C2266 C2263 1.462 1_656 S
C2266 N2270 1.421 1_556 S
C2267 H2257 0.929 . S
C2267 C2265 1.455 . S
C2267 N2270 1.384 . S
C2268 H2259 0.929 . S
C2268 C2260 1.378 . S
C2268 C2263 1.356 . S
C2269 H2256 0.929 . S
C2269 C2261 1.455 . S
C2269 N2271 1.384 . S
N2270 C2266 1.421 1_554 S
N2270 C2267 1.384 . S
N2271 C2263 1.421 1_556 S
N2271 C2269 1.384 . S
H2272 C2278 0.930 . S
H2273 C2282 0.930 . S
H2274 C2287 0.929 . S
H2275 C2285 0.929 . S
H2276 C2280 0.929 . S
H2277 C2286 0.929 . S
C2278 H2272 0.930 . S
C2278 C2279 1.367 . S
C2278 C2286 1.378 . S
C2279 C2278 1.367 . S
C2279 C2287 1.433 . S
C2280 H2276 0.929 . S
C2280 C2282 1.378 . S
C2280 C2284 1.350 . S
C2281 C2284 1.463 . S
C2281 C2286 1.350 . S
C2281 N2289 1.427 . S
C2282 H2273 0.930 . S
C2282 C2280 1.378 . S
C2282 C2283 1.367 . S
C2283 C2282 1.367 . S
C2283 C2285 1.433 . S
C2284 C2280 1.350 . S
C2284 C2281 1.463 . S
C2284 N2288 1.427 . S
C2285 H2275 0.929 . S
C2285 C2283 1.433 . S
C2285 N2288 1.384 . S
C2286 H2277 0.929 . S
C2286 C2278 1.378 . S
C2286 C2281 1.350 . S
C2287 H2274 0.929 . S
C2287 C2279 1.433 . S
C2287 N2289 1.384 . S
N2288 C2284 1.427 . S
N2288 C2285 1.384 . S
N2289 C2281 1.427 . S
N2289 C2287 1.384 . S
H2290 C2296 0.930 . S
H2291 C2300 0.930 . S
H2292 C2305 0.929 . S
H2293 C2303 0.929 . S
H2294 C2298 0.929 . S
H2295 C2304 0.929 . S
C2296 H2290 0.930 . S
C2296 C2297 1.367 . S
C2296 C2304 1.378 . S
C2297 C2296 1.367 . S
C2297 C2305 1.433 . S
C2298 H2294 0.929 . S
C2298 C2300 1.378 . S
C2298 C2302 1.350 . S
C2299 C2302 1.463 . S
C2299 C2304 1.350 . S
C2299 N2307 1.427 . S
C2300 H2291 0.930 . S
C2300 C2298 1.378 . S
C2300 C2301 1.367 . S
C2301 C2300 1.367 . S
C2301 C2303 1.433 . S
C2302 C2298 1.350 . S
C2302 C2299 1.463 . S
C2302 N2306 1.427 . S
C2303 H2293 0.929 . S
C2303 C2301 1.433 . S
C2303 N2306 1.384 . S
C2304 H2295 0.929 . S
C2304 C2296 1.378 . S
C2304 C2299 1.350 . S
C2305 H2292 0.929 . S
C2305 C2297 1.433 . S
C2305 N2307 1.384 . S
N2306 C2302 1.427 . S
N2306 C2303 1.384 . S
N2307 C2299 1.427 . S
N2307 C2305 1.384 . S
H2308 C2314 0.930 . S
H2309 C2318 0.930 . S
H2310 C2323 0.929 . S
H2311 C2321 0.929 . S
H2312 C2316 0.929 . S
H2313 C2322 0.929 . S
C2314 H2308 0.930 . S
C2314 C2315 1.367 . S
C2314 C2322 1.378 . S
C2315 C2314 1.367 . S
C2315 C2323 1.433 . S
C2316 H2312 0.929 . S
C2316 C2318 1.378 . S
C2316 C2320 1.350 . S
C2317 C2320 1.463 . S
C2317 C2322 1.350 . S
C2317 N2325 1.427 . S
C2318 H2309 0.930 . S
C2318 C2316 1.378 . S
C2318 C2319 1.367 . S
C2319 C2318 1.367 . S
C2319 C2321 1.433 . S
C2320 C2316 1.350 . S
C2320 C2317 1.463 . S
C2320 N2324 1.427 . S
C2321 H2311 0.929 . S
C2321 C2319 1.433 . S
C2321 N2324 1.384 . S
C2322 H2313 0.929 . S
C2322 C2314 1.378 . S
C2322 C2317 1.350 . S
C2323 H2310 0.929 . S
C2323 C2315 1.433 . S
C2323 N2325 1.384 . S
N2324 C2320 1.427 . S
N2324 C2321 1.384 . S
N2325 C2317 1.427 . S
N2325 C2323 1.384 . S
H2326 C2332 0.930 . S
H2327 C2336 0.930 . S
H2328 C2341 0.929 . S
H2329 C2339 0.929 . S
H2330 C2334 0.929 . S
H2331 C2340 0.929 . S
C2332 H2326 0.930 . S
C2332 C2333 1.367 . S
C2332 C2340 1.378 . S
C2333 C2332 1.367 . S
C2333 C2341 1.433 . S
C2334 H2330 0.929 . S
C2334 C2336 1.378 . S
C2334 C2338 1.350 . S
C2335 C2338 1.463 . S
C2335 C2340 1.350 . S
C2335 N2343 1.427 . S
C2336 H2327 0.930 . S
C2336 C2334 1.378 . S
C2336 C2337 1.367 . S
C2337 C2336 1.367 . S
C2337 C2339 1.433 . S
C2338 C2334 1.350 . S
C2338 C2335 1.463 . S
C2338 N2342 1.427 . S
C2339 H2329 0.929 . S
C2339 C2337 1.433 . S
C2339 N2342 1.384 . S
C2340 H2331 0.929 . S
C2340 C2332 1.378 . S
C2340 C2335 1.350 . S
C2341 H2328 0.929 . S
C2341 C2333 1.433 . S
C2341 N2343 1.384 . S
N2342 C2338 1.427 . S
N2342 C2339 1.384 . S
N2343 C2335 1.427 . S
N2343 C2341 1.384 . S
H2344 C2350 0.930 . S
H2345 C2354 0.930 . S
H2346 C2359 0.929 . S
H2347 C2357 0.929 . S
H2348 C2352 0.929 . S
H2349 C2358 0.929 . S
C2350 H2344 0.930 . S
C2350 C2351 1.367 . S
C2350 C2358 1.378 . S
C2351 C2350 1.367 . S
C2351 C2359 1.433 . S
C2352 H2348 0.929 . S
C2352 C2354 1.378 . S
C2352 C2356 1.350 . S
C2353 C2356 1.463 . S
C2353 C2358 1.350 . S
C2353 N2361 1.427 . S
C2354 H2345 0.930 . S
C2354 C2352 1.378 . S
C2354 C2355 1.367 . S
C2355 C2354 1.367 . S
C2355 C2357 1.433 . S
C2356 C2352 1.350 . S
C2356 C2353 1.463 . S
C2356 N2360 1.427 . S
C2357 H2347 0.929 . S
C2357 C2355 1.433 . S
C2357 N2360 1.384 . S
C2358 H2349 0.929 . S
C2358 C2350 1.378 . S
C2358 C2353 1.350 . S
C2359 H2346 0.929 . S
C2359 C2351 1.433 . S
C2359 N2361 1.384 . S
N2360 C2356 1.427 . S
N2360 C2357 1.384 . S
N2361 C2353 1.427 . S
N2361 C2359 1.384 . S
H2362 C2368 0.930 . S
H2363 C2372 0.930 . S
H2364 C2377 0.929 . S
H2365 C2375 0.929 . S
H2366 C2370 0.929 . S
H2367 C2376 0.929 . S
C2368 H2362 0.930 . S
C2368 C2369 1.367 . S
C2368 C2376 1.378 . S
C2369 C2368 1.367 . S
C2369 C2377 1.433 . S
C2370 H2366 0.929 . S
C2370 C2372 1.378 . S
C2370 C2374 1.350 . S
C2371 C2374 1.463 . S
C2371 C2376 1.350 . S
C2371 N2379 1.427 . S
C2372 H2363 0.930 . S
C2372 C2370 1.378 . S
C2372 C2373 1.367 . S
C2373 C2372 1.367 . S
C2373 C2375 1.433 . S
C2374 C2370 1.350 . S
C2374 C2371 1.463 . S
C2374 N2378 1.427 . S
C2375 H2365 0.929 . S
C2375 C2373 1.433 . S
C2375 N2378 1.384 . S
C2376 H2367 0.929 . S
C2376 C2368 1.378 . S
C2376 C2371 1.350 . S
C2377 H2364 0.929 . S
C2377 C2369 1.433 . S
C2377 N2379 1.384 . S
N2378 C2374 1.427 . S
N2378 C2375 1.384 . S
N2379 C2371 1.427 . S
N2379 C2377 1.384 . S
H2380 C2386 0.930 . S
H2381 C2390 0.930 . S
H2382 C2395 0.929 . S
H2383 C2393 0.929 . S
H2384 C2388 0.929 . S
H2385 C2394 0.929 . S
C2386 H2380 0.930 . S
C2386 C2387 1.367 . S
C2386 C2394 1.378 . S
C2387 C2386 1.367 . S
C2387 C2395 1.433 . S
C2388 H2384 0.929 . S
C2388 C2390 1.378 . S
C2388 C2392 1.350 . S
C2389 C2392 1.463 . S
C2389 C2394 1.350 . S
C2389 N2397 1.427 . S
C2390 H2381 0.930 . S
C2390 C2388 1.378 . S
C2390 C2391 1.367 . S
C2391 C2390 1.367 . S
C2391 C2393 1.433 . S
C2392 C2388 1.350 . S
C2392 C2389 1.463 . S
C2392 N2396 1.427 . S
C2393 H2383 0.929 . S
C2393 C2391 1.433 . S
C2393 N2396 1.384 . S
C2394 H2385 0.929 . S
C2394 C2386 1.378 . S
C2394 C2389 1.350 . S
C2395 H2382 0.929 . S
C2395 C2387 1.433 . S
C2395 N2397 1.384 . S
N2396 C2392 1.427 . S
N2396 C2393 1.384 . S
N2397 C2389 1.427 . S
N2397 C2395 1.384 . S
H2398 C2404 0.930 . S
H2399 C2408 0.930 . S
H2400 C2413 0.929 . S
H2401 C2411 0.929 . S
H2402 C2406 0.929 . S
H2403 C2412 0.929 . S
C2404 H2398 0.930 . S
C2404 C2405 1.367 . S
C2404 C2412 1.378 . S
C2405 C2404 1.367 . S
C2405 C2413 1.433 . S
C2406 H2402 0.929 . S
C2406 C2408 1.378 . S
C2406 C2410 1.350 . S
C2407 C2410 1.463 . S
C2407 C2412 1.350 . S
C2407 N2415 1.427 . S
C2408 H2399 0.930 . S
C2408 C2406 1.378 . S
C2408 C2409 1.367 . S
C2409 C2408 1.367 . S
C2409 C2411 1.433 . S
C2410 C2406 1.350 . S
C2410 C2407 1.463 . S
C2410 N2414 1.427 . S
C2411 H2401 0.929 . S
C2411 C2409 1.433 . S
C2411 N2414 1.384 . S
C2412 H2403 0.929 . S
C2412 C2404 1.378 . S
C2412 C2407 1.350 . S
C2413 H2400 0.929 . S
C2413 C2405 1.433 . S
C2413 N2415 1.384 . S
N2414 C2410 1.427 . S
N2414 C2411 1.384 . S
N2415 C2407 1.427 . S
N2415 C2413 1.384 . S
H2416 C2422 0.930 . S
H2417 C2426 0.930 . S
H2418 C2431 0.929 . S
H2419 C2429 0.929 . S
H2420 C2424 0.929 . S
H2421 C2430 0.929 . S
C2422 H2416 0.930 . S
C2422 C2423 1.367 . S
C2422 C2430 1.378 . S
C2423 C2422 1.367 . S
C2423 C2431 1.433 . S
C2424 H2420 0.929 . S
C2424 C2426 1.378 . S
C2424 C2428 1.350 . S
C2425 C2428 1.463 . S
C2425 C2430 1.350 . S
C2425 N2433 1.427 . S
C2426 H2417 0.930 . S
C2426 C2424 1.378 . S
C2426 C2427 1.367 . S
C2427 C2426 1.367 . S
C2427 C2429 1.433 . S
C2428 C2424 1.350 . S
C2428 C2425 1.463 . S
C2428 N2432 1.427 . S
C2429 H2419 0.929 . S
C2429 C2427 1.433 . S
C2429 N2432 1.384 . S
C2430 H2421 0.929 . S
C2430 C2422 1.378 . S
C2430 C2425 1.350 . S
C2431 H2418 0.929 . S
C2431 C2423 1.433 . S
C2431 N2433 1.384 . S
N2432 C2428 1.427 . S
N2432 C2429 1.384 . S
N2433 C2425 1.427 . S
N2433 C2431 1.384 . S
H2434 C2440 0.930 . S
H2435 C2444 0.930 . S
H2436 C2449 0.929 . S
H2437 C2447 0.929 . S
H2438 C2442 0.929 . S
H2439 C2448 0.929 . S
C2440 H2434 0.930 . S
C2440 C2441 1.367 . S
C2440 C2448 1.378 . S
C2441 C2440 1.367 . S
C2441 C2449 1.433 . S
C2442 H2438 0.929 . S
C2442 C2444 1.378 . S
C2442 C2446 1.350 . S
C2443 C2446 1.463 . S
C2443 C2448 1.350 . S
C2443 N2451 1.427 . S
C2444 H2435 0.930 . S
C2444 C2442 1.378 . S
C2444 C2445 1.367 . S
C2445 C2444 1.367 . S
C2445 C2447 1.433 . S
C2446 C2442 1.350 . S
C2446 C2443 1.463 . S
C2446 N2450 1.427 . S
C2447 H2437 0.929 . S
C2447 C2445 1.433 . S
C2447 N2450 1.384 . S
C2448 H2439 0.929 . S
C2448 C2440 1.378 . S
C2448 C2443 1.350 . S
C2449 H2436 0.929 . S
C2449 C2441 1.433 . S
C2449 N2451 1.384 . S
N2450 C2446 1.427 . S
N2450 C2447 1.384 . S
N2451 C2443 1.427 . S
N2451 C2449 1.384 . S
H2452 C2458 0.930 . S
H2453 C2462 0.930 . S
H2454 C2467 0.929 . S
H2455 C2465 0.929 . S
H2456 C2460 0.929 . S
H2457 C2466 0.929 . S
C2458 H2452 0.930 . S
C2458 C2459 1.367 . S
C2458 C2466 1.378 . S
C2459 C2458 1.367 . S
C2459 C2467 1.433 . S
C2460 H2456 0.929 . S
C2460 C2462 1.378 . S
C2460 C2464 1.350 . S
C2461 C2464 1.463 . S
C2461 C2466 1.350 . S
C2461 N2469 1.427 . S
C2462 H2453 0.930 . S
C2462 C2460 1.378 . S
C2462 C2463 1.367 . S
C2463 C2462 1.367 . S
C2463 C2465 1.433 . S
C2464 C2460 1.350 . S
C2464 C2461 1.463 . S
C2464 N2468 1.427 . S
C2465 H2455 0.929 . S
C2465 C2463 1.433 . S
C2465 N2468 1.384 . S
C2466 H2457 0.929 . S
C2466 C2458 1.378 . S
C2466 C2461 1.350 . S
C2467 H2454 0.929 . S
C2467 C2459 1.433 . S
C2467 N2469 1.384 . S
N2468 C2464 1.427 . S
N2468 C2465 1.384 . S
N2469 C2461 1.427 . S
N2469 C2467 1.384 . S
H2470 C2476 0.930 . S
H2471 C2480 0.930 . S
H2472 C2485 0.929 . S
H2473 C2483 0.929 . S
H2474 C2478 0.929 . S
H2475 C2484 0.929 . S
C2476 H2470 0.930 . S
C2476 C2477 1.367 . S
C2476 C2484 1.378 . S
C2477 C2476 1.367 . S
C2477 C2485 1.433 . S
C2478 H2474 0.929 . S
C2478 C2480 1.378 . S
C2478 C2482 1.350 . S
C2479 C2482 1.463 . S
C2479 C2484 1.350 . S
C2479 N2487 1.427 . S
C2480 H2471 0.930 . S
C2480 C2478 1.378 . S
C2480 C2481 1.367 . S
C2481 C2480 1.367 . S
C2481 C2483 1.433 . S
C2482 C2478 1.350 . S
C2482 C2479 1.463 . S
C2482 N2486 1.427 . S
C2483 H2473 0.929 . S
C2483 C2481 1.433 . S
C2483 N2486 1.384 . S
C2484 H2475 0.929 . S
C2484 C2476 1.378 . S
C2484 C2479 1.350 . S
C2485 H2472 0.929 . S
C2485 C2477 1.433 . S
C2485 N2487 1.384 . S
N2486 C2482 1.427 . S
N2486 C2483 1.384 . S
N2487 C2479 1.427 . S
N2487 C2485 1.384 . S
H2488 C2494 0.930 . S
H2489 C2498 0.930 . S
H2490 C2503 0.929 . S
H2491 C2501 0.929 . S
H2492 C2496 0.929 . S
H2493 C2502 0.929 . S
C2494 H2488 0.930 . S
C2494 C2495 1.367 . S
C2494 C2502 1.378 . S
C2495 C2494 1.367 . S
C2495 C2503 1.433 . S
C2496 H2492 0.929 . S
C2496 C2498 1.378 . S
C2496 C2500 1.350 . S
C2497 C2500 1.463 . S
C2497 C2502 1.350 . S
C2497 N2505 1.427 . S
C2498 H2489 0.930 . S
C2498 C2496 1.378 . S
C2498 C2499 1.367 . S
C2499 C2498 1.367 . S
C2499 C2501 1.433 . S
C2500 C2496 1.350 . S
C2500 C2497 1.463 . S
C2500 N2504 1.427 . S
C2501 H2491 0.929 . S
C2501 C2499 1.433 . S
C2501 N2504 1.384 . S
C2502 H2493 0.929 . S
C2502 C2494 1.378 . S
C2502 C2497 1.350 . S
C2503 H2490 0.929 . S
C2503 C2495 1.433 . S
C2503 N2505 1.384 . S
N2504 C2500 1.427 . S
N2504 C2501 1.384 . S
N2505 C2497 1.427 . S
N2505 C2503 1.384 . S
H2506 C2512 0.930 . S
H2507 C2516 0.930 . S
H2508 C2521 0.929 . S
H2509 C2519 0.929 . S
H2510 C2514 0.929 . S
H2511 C2520 0.929 . S
C2512 H2506 0.930 . S
C2512 C2513 1.367 . S
C2512 C2520 1.378 . S
C2513 C2512 1.367 . S
C2513 C2521 1.433 . S
C2514 H2510 0.929 . S
C2514 C2516 1.378 . S
C2514 C2518 1.350 . S
C2515 C2518 1.463 . S
C2515 C2520 1.350 . S
C2515 N2523 1.427 . S
C2516 H2507 0.930 . S
C2516 C2514 1.378 . S
C2516 C2517 1.367 . S
C2517 C2516 1.367 . S
C2517 C2519 1.433 . S
C2518 C2514 1.350 . S
C2518 C2515 1.463 . S
C2518 N2522 1.427 . S
C2519 H2509 0.929 . S
C2519 C2517 1.433 . S
C2519 N2522 1.384 . S
C2520 H2511 0.929 . S
C2520 C2512 1.378 . S
C2520 C2515 1.350 . S
C2521 H2508 0.929 . S
C2521 C2513 1.433 . S
C2521 N2523 1.384 . S
N2522 C2518 1.427 . S
N2522 C2519 1.384 . S
N2523 C2515 1.427 . S
N2523 C2521 1.384 . S
H2524 C2530 0.930 . S
H2525 C2534 0.930 . S
H2526 C2539 0.929 . S
H2527 C2537 0.929 . S
H2528 C2532 0.929 . S
H2529 C2538 0.929 . S
C2530 H2524 0.930 . S
C2530 C2531 1.367 . S
C2530 C2538 1.378 . S
C2531 C2530 1.367 . S
C2531 C2539 1.433 . S
C2532 H2528 0.929 . S
C2532 C2534 1.378 . S
C2532 C2536 1.350 . S
C2533 C2536 1.463 . S
C2533 C2538 1.350 . S
C2533 N2541 1.427 . S
C2534 H2525 0.930 . S
C2534 C2532 1.378 . S
C2534 C2535 1.367 . S
C2535 C2534 1.367 . S
C2535 C2537 1.433 . S
C2536 C2532 1.350 . S
C2536 C2533 1.463 . S
C2536 N2540 1.427 . S
C2537 H2527 0.929 . S
C2537 C2535 1.433 . S
C2537 N2540 1.384 . S
C2538 H2529 0.929 . S
C2538 C2530 1.378 . S
C2538 C2533 1.350 . S
C2539 H2526 0.929 . S
C2539 C2531 1.433 . S
C2539 N2541 1.384 . S
N2540 C2536 1.427 . S
N2540 C2537 1.384 . S
N2541 C2533 1.427 . S
N2541 C2539 1.384 . S
H2542 C2548 0.930 . S
H2543 C2552 0.930 . S
H2544 C2557 0.929 . S
H2545 C2555 0.929 . S
H2546 C2550 0.929 . S
H2547 C2556 0.929 . S
C2548 H2542 0.930 . S
C2548 C2549 1.367 . S
C2548 C2556 1.378 . S
C2549 C2548 1.367 . S
C2549 C2557 1.433 . S
C2550 H2546 0.929 . S
C2550 C2552 1.378 . S
C2550 C2554 1.350 . S
C2551 C2554 1.463 . S
C2551 C2556 1.350 . S
C2551 N2559 1.427 . S
C2552 H2543 0.930 . S
C2552 C2550 1.378 . S
C2552 C2553 1.367 . S
C2553 C2552 1.367 . S
C2553 C2555 1.433 . S
C2554 C2550 1.350 . S
C2554 C2551 1.463 . S
C2554 N2558 1.427 . S
C2555 H2545 0.929 . S
C2555 C2553 1.433 . S
C2555 N2558 1.384 . S
C2556 H2547 0.929 . S
C2556 C2548 1.378 . S
C2556 C2551 1.350 . S
C2557 H2544 0.929 . S
C2557 C2549 1.433 . S
C2557 N2559 1.384 . S
N2558 C2554 1.427 . S
N2558 C2555 1.384 . S
N2559 C2551 1.427 . S
N2559 C2557 1.384 . S
H2560 C2566 0.930 . S
H2561 C2570 0.930 . S
H2562 C2575 0.929 . S
H2563 C2573 0.929 . S
H2564 C2568 0.929 . S
H2565 C2574 0.929 . S
C2566 H2560 0.930 . S
C2566 C2567 1.367 . S
C2566 C2574 1.378 . S
C2567 C2566 1.367 . S
C2567 C2575 1.433 1_554 S
C2568 H2564 0.929 . S
C2568 C2570 1.378 . S
C2568 C2572 1.350 1_556 S
C2569 C2572 1.463 . S
C2569 C2574 1.350 . S
C2569 N2577 1.427 1_554 S
C2570 H2561 0.930 . S
C2570 C2568 1.378 . S
C2570 C2571 1.367 1_556 S
C2571 C2570 1.367 1_554 S
C2571 C2573 1.433 . S
C2572 C2568 1.350 1_554 S
C2572 C2569 1.463 . S
C2572 N2576 1.427 . S
C2573 H2563 0.929 . S
C2573 C2571 1.433 . S
C2573 N2576 1.384 . S
C2574 H2565 0.929 . S
C2574 C2566 1.378 . S
C2574 C2569 1.350 . S
C2575 H2562 0.929 . S
C2575 C2567 1.433 1_556 S
C2575 N2577 1.384 . S
N2576 C2572 1.427 . S
N2576 C2573 1.384 . S
N2577 C2569 1.427 1_556 S
N2577 C2575 1.384 . S
H2578 C2584 0.930 . S
H2579 C2588 0.930 . S
H2580 C2593 0.929 . S
H2581 C2591 0.929 . S
H2582 C2586 0.929 . S
H2583 C2592 0.929 . S
C2584 H2578 0.930 . S
C2584 C2585 1.367 . S
C2584 C2592 1.378 . S
C2585 C2584 1.367 . S
C2585 C2593 1.433 . S
C2586 H2582 0.929 . S
C2586 C2588 1.378 . S
C2586 C2590 1.350 . S
C2587 C2590 1.463 . S
C2587 C2592 1.350 . S
C2587 N2595 1.427 . S
C2588 H2579 0.930 . S
C2588 C2586 1.378 . S
C2588 C2589 1.367 . S
C2589 C2588 1.367 . S
C2589 C2591 1.433 . S
C2590 C2586 1.350 . S
C2590 C2587 1.463 . S
C2590 N2594 1.427 . S
C2591 H2581 0.929 . S
C2591 C2589 1.433 . S
C2591 N2594 1.384 . S
C2592 H2583 0.929 . S
C2592 C2584 1.378 . S
C2592 C2587 1.350 . S
C2593 H2580 0.929 . S
C2593 C2585 1.433 . S
C2593 N2595 1.384 . S
N2594 C2590 1.427 . S
N2594 C2591 1.384 . S
N2595 C2587 1.427 . S
N2595 C2593 1.384 . S
H2596 C2602 0.930 . S
H2597 C2606 0.930 . S
H2598 C2611 0.929 . S
H2599 C2609 0.929 . S
H2600 C2604 0.929 . S
H2601 C2610 0.929 . S
C2602 H2596 0.930 . S
C2602 C2603 1.367 . S
C2602 C2610 1.378 . S
C2603 C2602 1.367 . S
C2603 C2611 1.433 1_556 S
C2604 H2600 0.929 . S
C2604 C2606 1.378 . S
C2604 C2608 1.350 1_554 S
C2605 C2608 1.463 . S
C2605 C2610 1.350 . S
C2605 N2613 1.427 1_556 S
C2606 H2597 0.930 . S
C2606 C2604 1.378 . S
C2606 C2607 1.367 1_554 S
C2607 C2606 1.367 1_556 S
C2607 C2609 1.433 . S
C2608 C2604 1.350 1_556 S
C2608 C2605 1.463 . S
C2608 N2612 1.427 . S
C2609 H2599 0.929 . S
C2609 C2607 1.433 . S
C2609 N2612 1.384 . S
C2610 H2601 0.929 . S
C2610 C2602 1.378 . S
C2610 C2605 1.350 . S
C2611 H2598 0.929 . S
C2611 C2603 1.433 1_554 S
C2611 N2613 1.384 . S
N2612 C2608 1.427 . S
N2612 C2609 1.384 . S
N2613 C2605 1.427 1_554 S
N2613 C2611 1.384 . S
H2614 C2620 0.930 . S
H2615 C2624 0.930 . S
H2616 C2629 0.929 . S
H2617 C2627 0.929 . S
H2618 C2622 0.929 . S
H2619 C2628 0.929 . S
C2620 H2614 0.930 . S
C2620 C2621 1.367 . S
C2620 C2628 1.378 . S
C2621 C2620 1.367 . S
C2621 C2629 1.433 . S
C2622 H2618 0.929 . S
C2622 C2624 1.378 . S
C2622 C2626 1.350 . S
C2623 C2626 1.463 . S
C2623 C2628 1.350 . S
C2623 N2631 1.427 . S
C2624 H2615 0.930 . S
C2624 C2622 1.378 . S
C2624 C2625 1.367 . S
C2625 C2624 1.367 . S
C2625 C2627 1.433 . S
C2626 C2622 1.350 . S
C2626 C2623 1.463 . S
C2626 N2630 1.427 . S
C2627 H2617 0.929 . S
C2627 C2625 1.433 . S
C2627 N2630 1.384 . S
C2628 H2619 0.929 . S
C2628 C2620 1.378 . S
C2628 C2623 1.350 . S
C2629 H2616 0.929 . S
C2629 C2621 1.433 . S
C2629 N2631 1.384 . S
N2630 C2626 1.427 . S
N2630 C2627 1.384 . S
N2631 C2623 1.427 . S
N2631 C2629 1.384 . S
H2632 C2638 0.930 . S
H2633 C2642 0.930 . S
H2634 C2647 0.929 . S
H2635 C2645 0.929 . S
H2636 C2640 0.929 . S
H2637 C2646 0.929 . S
C2638 H2632 0.930 . S
C2638 C2639 1.367 . S
C2638 C2646 1.378 . S
C2639 C2638 1.367 . S
C2639 C2647 1.433 . S
C2640 H2636 0.929 . S
C2640 C2642 1.378 . S
C2640 C2644 1.350 . S
C2641 C2644 1.463 . S
C2641 C2646 1.350 . S
C2641 N2649 1.427 . S
C2642 H2633 0.930 . S
C2642 C2640 1.378 . S
C2642 C2643 1.367 . S
C2643 C2642 1.367 . S
C2643 C2645 1.433 . S
C2644 C2640 1.350 . S
C2644 C2641 1.463 . S
C2644 N2648 1.427 . S
C2645 H2635 0.929 . S
C2645 C2643 1.433 . S
C2645 N2648 1.384 . S
C2646 H2637 0.929 . S
C2646 C2638 1.378 . S
C2646 C2641 1.350 . S
C2647 H2634 0.929 . S
C2647 C2639 1.433 . S
C2647 N2649 1.384 . S
N2648 C2644 1.427 . S
N2648 C2645 1.384 . S
N2649 C2641 1.427 . S
N2649 C2647 1.384 . S
H2650 C2656 0.930 . S
H2651 C2660 0.930 . S
H2652 C2665 0.929 . S
H2653 C2663 0.929 . S
H2654 C2658 0.929 . S
H2655 C2664 0.929 . S
C2656 H2650 0.930 . S
C2656 C2657 1.367 . S
C2656 C2664 1.378 . S
C2657 C2656 1.367 . S
C2657 C2665 1.433 . S
C2658 H2654 0.929 . S
C2658 C2660 1.378 . S
C2658 C2662 1.350 . S
C2659 C2662 1.463 . S
C2659 C2664 1.350 . S
C2659 N2667 1.427 . S
C2660 H2651 0.930 . S
C2660 C2658 1.378 . S
C2660 C2661 1.367 . S
C2661 C2660 1.367 . S
C2661 C2663 1.433 . S
C2662 C2658 1.350 . S
C2662 C2659 1.463 . S
C2662 N2666 1.427 . S
C2663 H2653 0.929 . S
C2663 C2661 1.433 . S
C2663 N2666 1.384 . S
C2664 H2655 0.929 . S
C2664 C2656 1.378 . S
C2664 C2659 1.350 . S
C2665 H2652 0.929 . S
C2665 C2657 1.433 . S
C2665 N2667 1.384 . S
N2666 C2662 1.427 . S
N2666 C2663 1.384 . S
N2667 C2659 1.427 . S
N2667 C2665 1.384 . S
H2668 C2674 0.930 . S
H2669 C2678 0.930 . S
H2670 C2683 0.929 . S
H2671 C2681 0.929 . S
H2672 C2676 0.929 . S
H2673 C2682 0.929 . S
C2674 H2668 0.930 . S
C2674 C2675 1.367 . S
C2674 C2682 1.378 . S
C2675 C2674 1.367 . S
C2675 C2683 1.433 . S
C2676 H2672 0.929 . S
C2676 C2678 1.378 . S
C2676 C2680 1.350 . S
C2677 C2680 1.463 . S
C2677 C2682 1.350 . S
C2677 N2685 1.427 . S
C2678 H2669 0.930 . S
C2678 C2676 1.378 . S
C2678 C2679 1.367 . S
C2679 C2678 1.367 . S
C2679 C2681 1.433 . S
C2680 C2676 1.350 . S
C2680 C2677 1.463 . S
C2680 N2684 1.427 . S
C2681 H2671 0.929 . S
C2681 C2679 1.433 . S
C2681 N2684 1.384 . S
C2682 H2673 0.929 . S
C2682 C2674 1.378 . S
C2682 C2677 1.350 . S
C2683 H2670 0.929 . S
C2683 C2675 1.433 . S
C2683 N2685 1.384 . S
N2684 C2680 1.427 . S
N2684 C2681 1.384 . S
N2685 C2677 1.427 . S
N2685 C2683 1.384 . S
H2686 C2692 0.930 . S
H2687 C2696 0.930 . S
H2688 C2701 0.929 . S
H2689 C2699 0.929 . S
H2690 C2694 0.929 . S
H2691 C2700 0.929 . S
C2692 H2686 0.930 . S
C2692 C2693 1.367 . S
C2692 C2700 1.378 . S
C2693 C2692 1.367 . S
C2693 C2701 1.433 . S
C2694 H2690 0.929 . S
C2694 C2696 1.378 . S
C2694 C2698 1.350 . S
C2695 C2698 1.463 . S
C2695 C2700 1.350 . S
C2695 N2703 1.427 . S
C2696 H2687 0.930 . S
C2696 C2694 1.378 . S
C2696 C2697 1.367 . S
C2697 C2696 1.367 . S
C2697 C2699 1.433 . S
C2698 C2694 1.350 . S
C2698 C2695 1.463 . S
C2698 N2702 1.427 . S
C2699 H2689 0.929 . S
C2699 C2697 1.433 . S
C2699 N2702 1.384 . S
C2700 H2691 0.929 . S
C2700 C2692 1.378 . S
C2700 C2695 1.350 . S
C2701 H2688 0.929 . S
C2701 C2693 1.433 . S
C2701 N2703 1.384 . S
N2702 C2698 1.427 . S
N2702 C2699 1.384 . S
N2703 C2695 1.427 . S
N2703 C2701 1.384 . S
H2704 C2710 0.930 . S
H2705 C2714 0.930 . S
H2706 C2719 0.929 . S
H2707 C2717 0.929 . S
H2708 C2712 0.929 . S
H2709 C2718 0.929 . S
C2710 H2704 0.930 . S
C2710 C2711 1.367 . S
C2710 C2718 1.378 . S
C2711 C2710 1.367 . S
C2711 C2719 1.433 . S
C2712 H2708 0.929 . S
C2712 C2714 1.378 . S
C2712 C2716 1.350 . S
C2713 C2716 1.463 . S
C2713 C2718 1.350 . S
C2713 N2721 1.427 . S
C2714 H2705 0.930 . S
C2714 C2712 1.378 . S
C2714 C2715 1.367 . S
C2715 C2714 1.367 . S
C2715 C2717 1.433 . S
C2716 C2712 1.350 . S
C2716 C2713 1.463 . S
C2716 N2720 1.427 . S
C2717 H2707 0.929 . S
C2717 C2715 1.433 . S
C2717 N2720 1.384 . S
C2718 H2709 0.929 . S
C2718 C2710 1.378 . S
C2718 C2713 1.350 . S
C2719 H2706 0.929 . S
C2719 C2711 1.433 . S
C2719 N2721 1.384 . S
N2720 C2716 1.427 . S
N2720 C2717 1.384 . S
N2721 C2713 1.427 . S
N2721 C2719 1.384 . S
H2722 C2728 0.930 . S
H2723 C2732 0.930 . S
H2724 C2737 0.929 . S
H2725 C2735 0.929 . S
H2726 C2730 0.929 . S
H2727 C2736 0.929 . S
C2728 H2722 0.930 . S
C2728 C2729 1.367 . S
C2728 C2736 1.378 . S
C2729 C2728 1.367 . S
C2729 C2737 1.433 . S
C2730 H2726 0.929 . S
C2730 C2732 1.378 . S
C2730 C2734 1.350 . S
C2731 C2734 1.463 . S
C2731 C2736 1.350 . S
C2731 N2739 1.427 . S
C2732 H2723 0.930 . S
C2732 C2730 1.378 . S
C2732 C2733 1.367 . S
C2733 C2732 1.367 . S
C2733 C2735 1.433 . S
C2734 C2730 1.350 . S
C2734 C2731 1.463 . S
C2734 N2738 1.427 . S
C2735 H2725 0.929 . S
C2735 C2733 1.433 . S
C2735 N2738 1.384 . S
C2736 H2727 0.929 . S
C2736 C2728 1.378 . S
C2736 C2731 1.350 . S
C2737 H2724 0.929 . S
C2737 C2729 1.433 . S
C2737 N2739 1.384 . S
N2738 C2734 1.427 . S
N2738 C2735 1.384 . S
N2739 C2731 1.427 . S
N2739 C2737 1.384 . S
H2740 C2746 0.930 . S
H2741 C2750 0.930 . S
H2742 C2755 0.929 . S
H2743 C2753 0.929 . S
H2744 C2748 0.929 . S
H2745 C2754 0.929 . S
C2746 H2740 0.930 . S
C2746 C2747 1.367 . S
C2746 C2754 1.378 . S
C2747 C2746 1.367 . S
C2747 C2755 1.433 . S
C2748 H2744 0.929 . S
C2748 C2750 1.378 . S
C2748 C2752 1.350 . S
C2749 C2752 1.463 . S
C2749 C2754 1.350 . S
C2749 N2757 1.427 . S
C2750 H2741 0.930 . S
C2750 C2748 1.378 . S
C2750 C2751 1.367 . S
C2751 C2750 1.367 . S
C2751 C2753 1.433 . S
C2752 C2748 1.350 . S
C2752 C2749 1.463 . S
C2752 N2756 1.427 . S
C2753 H2743 0.929 . S
C2753 C2751 1.433 . S
C2753 N2756 1.384 . S
C2754 H2745 0.929 . S
C2754 C2746 1.378 . S
C2754 C2749 1.350 . S
C2755 H2742 0.929 . S
C2755 C2747 1.433 . S
C2755 N2757 1.384 . S
N2756 C2752 1.427 . S
N2756 C2753 1.384 . S
N2757 C2749 1.427 . S
N2757 C2755 1.384 . S
H2758 C2764 0.930 . S
H2759 C2768 0.930 . S
H2760 C2773 0.929 . S
H2761 C2771 0.929 . S
H2762 C2766 0.929 . S
H2763 C2772 0.929 . S
C2764 H2758 0.930 . S
C2764 C2765 1.367 . S
C2764 C2772 1.378 . S
C2765 C2764 1.367 . S
C2765 C2773 1.433 . S
C2766 H2762 0.929 . S
C2766 C2768 1.378 . S
C2766 C2770 1.350 . S
C2767 C2770 1.463 . S
C2767 C2772 1.350 . S
C2767 N2775 1.427 . S
C2768 H2759 0.930 . S
C2768 C2766 1.378 . S
C2768 C2769 1.367 . S
C2769 C2768 1.367 . S
C2769 C2771 1.433 . S
C2770 C2766 1.350 . S
C2770 C2767 1.463 . S
C2770 N2774 1.427 . S
C2771 H2761 0.929 . S
C2771 C2769 1.433 . S
C2771 N2774 1.384 . S
C2772 H2763 0.929 . S
C2772 C2764 1.378 . S
C2772 C2767 1.350 . S
C2773 H2760 0.929 . S
C2773 C2765 1.433 . S
C2773 N2775 1.384 . S
N2774 C2770 1.427 . S
N2774 C2771 1.384 . S
N2775 C2767 1.427 . S
N2775 C2773 1.384 . S
H2776 C2782 0.930 . S
H2777 C2786 0.930 . S
H2778 C2791 0.929 . S
H2779 C2789 0.929 . S
H2780 C2784 0.929 . S
H2781 C2790 0.929 . S
C2782 H2776 0.930 . S
C2782 C2783 1.367 1_556 S
C2782 C2790 1.378 . S
C2783 C2782 1.367 1_554 S
C2783 C2791 1.433 . S
C2784 H2780 0.929 . S
C2784 C2786 1.378 . S
C2784 C2788 1.350 . S
C2785 C2788 1.463 . S
C2785 C2790 1.350 1_554 S
C2785 N2793 1.427 . S
C2786 H2777 0.930 . S
C2786 C2784 1.378 . S
C2786 C2787 1.367 . S
C2787 C2786 1.367 . S
C2787 C2789 1.433 1_554 S
C2788 C2784 1.350 . S
C2788 C2785 1.463 . S
C2788 N2792 1.427 1_554 S
C2789 H2779 0.929 . S
C2789 C2787 1.433 1_556 S
C2789 N2792 1.384 . S
C2790 H2781 0.929 . S
C2790 C2782 1.378 . S
C2790 C2785 1.350 1_556 S
C2791 H2778 0.929 . S
C2791 C2783 1.433 . S
C2791 N2793 1.384 . S
N2792 C2788 1.427 1_556 S
N2792 C2789 1.384 . S
N2793 C2785 1.427 . S
N2793 C2791 1.384 . S
H2794 C2800 0.930 . S
H2795 C2804 0.930 . S
H2796 C2809 0.929 . S
H2797 C2807 0.929 . S
H2798 C2802 0.929 . S
H2799 C2808 0.929 . S
C2800 H2794 0.930 . S
C2800 C2801 1.367 . S
C2800 C2808 1.378 . S
C2801 C2800 1.367 . S
C2801 C2809 1.433 . S
C2802 H2798 0.929 . S
C2802 C2804 1.378 . S
C2802 C2806 1.350 . S
C2803 C2806 1.463 . S
C2803 C2808 1.350 . S
C2803 N2811 1.427 . S
C2804 H2795 0.930 . S
C2804 C2802 1.378 . S
C2804 C2805 1.367 . S
C2805 C2804 1.367 . S
C2805 C2807 1.433 . S
C2806 C2802 1.350 . S
C2806 C2803 1.463 . S
C2806 N2810 1.427 . S
C2807 H2797 0.929 . S
C2807 C2805 1.433 . S
C2807 N2810 1.384 . S
C2808 H2799 0.929 . S
C2808 C2800 1.378 . S
C2808 C2803 1.350 . S
C2809 H2796 0.929 . S
C2809 C2801 1.433 . S
C2809 N2811 1.384 . S
N2810 C2806 1.427 . S
N2810 C2807 1.384 . S
N2811 C2803 1.427 . S
N2811 C2809 1.384 . S
H2812 C2818 0.930 . S
H2813 C2822 0.930 . S
H2814 C2827 0.929 . S
H2815 C2825 0.929 . S
H2816 C2820 0.929 . S
H2817 C2826 0.929 . S
C2818 H2812 0.930 . S
C2818 C2819 1.367 1_554 S
C2818 C2826 1.378 . S
C2819 C2818 1.367 1_556 S
C2819 C2827 1.433 . S
C2820 H2816 0.929 . S
C2820 C2822 1.378 . S
C2820 C2824 1.350 . S
C2821 C2824 1.463 . S
C2821 C2826 1.350 1_556 S
C2821 N2829 1.427 . S
C2822 H2813 0.930 . S
C2822 C2820 1.378 . S
C2822 C2823 1.367 . S
C2823 C2822 1.367 . S
C2823 C2825 1.433 1_556 S
C2824 C2820 1.350 . S
C2824 C2821 1.463 . S
C2824 N2828 1.427 1_556 S
C2825 H2815 0.929 . S
C2825 C2823 1.433 1_554 S
C2825 N2828 1.384 . S
C2826 H2817 0.929 . S
C2826 C2818 1.378 . S
C2826 C2821 1.350 1_554 S
C2827 H2814 0.929 . S
C2827 C2819 1.433 . S
C2827 N2829 1.384 . S
N2828 C2824 1.427 1_554 S
N2828 C2825 1.384 . S
N2829 C2821 1.427 . S
N2829 C2827 1.384 . S
H2830 C2836 0.930 . S
H2831 C2840 0.930 . S
H2832 C2845 0.929 . S
H2833 C2843 0.929 . S
H2834 C2838 0.929 . S
H2835 C2844 0.929 . S
C2836 H2830 0.930 . S
C2836 C2837 1.367 . S
C2836 C2844 1.378 . S
C2837 C2836 1.367 . S
C2837 C2845 1.433 . S
C2838 H2834 0.929 . S
C2838 C2840 1.378 . S
C2838 C2842 1.350 . S
C2839 C2842 1.463 . S
C2839 C2844 1.350 . S
C2839 N2847 1.427 . S
C2840 H2831 0.930 . S
C2840 C2838 1.378 . S
C2840 C2841 1.367 . S
C2841 C2840 1.367 . S
C2841 C2843 1.433 . S
C2842 C2838 1.350 . S
C2842 C2839 1.463 . S
C2842 N2846 1.427 . S
C2843 H2833 0.929 . S
C2843 C2841 1.433 . S
C2843 N2846 1.384 . S
C2844 H2835 0.929 . S
C2844 C2836 1.378 . S
C2844 C2839 1.350 . S
C2845 H2832 0.929 . S
C2845 C2837 1.433 . S
C2845 N2847 1.384 . S
N2846 C2842 1.427 . S
N2846 C2843 1.384 . S
N2847 C2839 1.427 . S
N2847 C2845 1.384 . S
C1703 C38 1.627 . S
C1707 C197 1.629 . S
C1721 C144 1.630 . S
C1725 C91 1.631 . S
C1739 C409 1.630 . S
C1743 C250 1.630 . S
C1757 C356 1.630 . S
C1761 C303 1.631 . S
C1775 C462 1.628 . S
C1779 C621 1.629 . S
C1793 C515 1.628 . S
C1797 C568 1.630 . S
C1811 C833 1.630 . S
C1815 C674 1.631 . S
C1829 C780 1.631 . S
C1833 C727 1.630 . S
C1847 C886 1.629 . S
C1851 C1045 1.628 . S
C1865 C939 1.629 . S
C1869 C992 1.630 . S
C1883 C1098 1.631 . S
C1887 C1257 1.632 . S
C1901 C1151 1.631 . S
C1905 C1204 1.630 . S
C1919 C1310 1.629 . S
C1923 C1469 1.627 . S
C1937 C1416 1.629 . S
C1941 C1363 1.628 . S
C1955 C1681 1.633 . S
C1959 C1522 1.632 . S
C1973 C1628 1.629 . S
C1977 C1575 1.630 . S
C1991 C22 1.723 . S
C1995 C234 1.718 . S
C2009 C1559 1.721 . S
C2013 C75 1.725 . S
C2027 C128 1.720 . S
C2031 C764 1.714 . S
C2045 C1241 1.719 . S
C2049 C181 1.724 . S
C2063 C1347 1.723 . S
C2067 C287 1.718 . S
C2081 C340 1.716 . S
C2085 C552 1.721 . S
C2099 C393 1.720 . S
C2103 C1029 1.725 . S
C2117 C658 1.721 . S
C2121 C446 1.725 . S
C2135 C1135 1.721 . S
C2139 C499 1.725 . S
C2153 C605 1.723 . S
C2157 C1665 1.718 . S
C2171 C711 1.719 . S
C2175 C923 1.724 . S
C2189 C817 1.714 . S
C2193 C1453 1.720 . S
C2207 C1082 1.714 . S
C2211 C870 1.719 . S
C2225 C976 1.723 . S
C2229 C1612 1.719 . S
C2243 C1188 1.721 . S
C2247 C1400 1.726 . S
C2261 C1506 1.723 . S
C2265 C1294 1.727 . S
C2279 C39 1.446 . S
C2283 C1046 1.448 . S
C2297 C92 1.444 . S
C2301 C993 1.443 . S
C2315 C940 1.444 . S
C2319 C145 1.446 . S
C2333 C887 1.445 . S
C2337 C198 1.443 . S
C2351 C251 1.440 . S
C2355 C1258 1.441 . S
C2369 C304 1.445 . S
C2373 C1205 1.444 . S
C2387 C357 1.441 . S
C2391 C1152 1.440 . S
C2405 C1099 1.440 . S
C2409 C410 1.441 . S
C2423 C463 1.445 . S
C2427 C1470 1.443 . S
C2441 C1417 1.443 . S
C2445 C516 1.446 . S
C2459 C1364 1.445 . S
C2463 C569 1.447 . S
C2477 C622 1.446 . S
C2481 C1311 1.448 . S
C2495 C675 1.446 . S
C2499 C1682 1.445 . S
C2513 C728 1.441 . S
C2517 C1629 1.440 . S
C2531 C1576 1.442 . S
C2535 C781 1.443 . S
C2549 C834 1.441 . S
C2553 C1523 1.442 . S
C2567 C82 1.692 . S
C2571 C29 1.690 . S
C2585 C135 1.697 . S
C2589 C188 1.698 . S
C2603 C294 1.703 . S
C2607 C241 1.702 . S
C2621 C347 1.699 . S
C2625 C400 1.697 . S
C2639 C506 1.692 . S
C2643 C453 1.691 . S
C2657 C559 1.695 . S
C2661 C612 1.696 . S
C2675 C665 1.698 . S
C2679 C718 1.700 . S
C2693 C771 1.702 . S
C2697 C824 1.703 . S
C2711 C877 1.696 . S
C2715 C930 1.697 . S
C2729 C1036 1.694 . S
C2733 C983 1.695 . S
C2747 C1089 1.700 . S
C2751 C1142 1.702 . S
C2765 C1248 1.702 . S
C2769 C1195 1.700 . S
C2783 C1354 1.694 . S
C2787 C1301 1.695 . S
C2801 C1407 1.693 . S
C2805 C1460 1.692 . S
C2819 C1513 1.698 . S
C2823 C1566 1.700 . S
C2837 C1672 1.703 . S
C2841 C1619 1.701 . S
