# Generated by pormake.
# Topology ure, (4)-cn, num edge types: 1
# Building blocks:
#     Node 0, Type 0, BuildingBlock: UXUYUI_clean_sbu_0, # of connection points: 4
#     Node 1, Type 0, BuildingBlock: UXUYUI_clean_sbu_0, # of connection points: 4
#     Node 2, Type 0, BuildingBlock: UXUYUI_clean_sbu_0, # of connection points: 4
#     Node 3, Type 0, BuildingBlock: UXUYUI_clean_sbu_0, # of connection points: 4
#     Node 4, Type 0, BuildingBlock: UXUYUI_clean_sbu_0, # of connection points: 4
#     Node 5, Type 0, BuildingBlock: UXUYUI_clean_sbu_0, # of connection points: 4
#     Node 6, Type 0, BuildingBlock: UXUYUI_clean_sbu_0, # of connection points: 4
#     Node 7, Type 0, BuildingBlock: UXUYUI_clean_sbu_0, # of connection points: 4
#     Node 8, Type 0, BuildingBlock: UXUYUI_clean_sbu_0, # of connection points: 4
#     Node 9, Type 0, BuildingBlock: UXUYUI_clean_sbu_0, # of connection points: 4
#     Node 10, Type 0, BuildingBlock: UXUYUI_clean_sbu_0, # of connection points: 4
#     Node 11, Type 0, BuildingBlock: UXUYUI_clean_sbu_0, # of connection points: 4
#     Node 12, Type 0, BuildingBlock: UXUYUI_clean_sbu_0, # of connection points: 4
#     Node 13, Type 0, BuildingBlock: UXUYUI_clean_sbu_0, # of connection points: 4
#     Node 14, Type 0, BuildingBlock: UXUYUI_clean_sbu_0, # of connection points: 4
#     Node 15, Type 0, BuildingBlock: UXUYUI_clean_sbu_0, # of connection points: 4
#     Edge 16, Type (0, 0), BuildingBlock: KIFKEQ_clean_linker_1, # of connection points: 2
#     Edge 17, Type (0, 0), BuildingBlock: KIFKEQ_clean_linker_1, # of connection points: 2
#     Edge 18, Type (0, 0), BuildingBlock: KIFKEQ_clean_linker_1, # of connection points: 2
#     Edge 19, Type (0, 0), BuildingBlock: KIFKEQ_clean_linker_1, # of connection points: 2
#     Edge 20, Type (0, 0), BuildingBlock: KIFKEQ_clean_linker_1, # of connection points: 2
#     Edge 21, Type (0, 0), BuildingBlock: KIFKEQ_clean_linker_1, # of connection points: 2
#     Edge 22, Type (0, 0), BuildingBlock: KIFKEQ_clean_linker_1, # of connection points: 2
#     Edge 23, Type (0, 0), BuildingBlock: KIFKEQ_clean_linker_1, # of connection points: 2
#     Edge 24, Type (0, 0), BuildingBlock: KIFKEQ_clean_linker_1, # of connection points: 2
#     Edge 25, Type (0, 0), BuildingBlock: KIFKEQ_clean_linker_1, # of connection points: 2
#     Edge 26, Type (0, 0), BuildingBlock: KIFKEQ_clean_linker_1, # of connection points: 2
#     Edge 27, Type (0, 0), BuildingBlock: KIFKEQ_clean_linker_1, # of connection points: 2
#     Edge 28, Type (0, 0), BuildingBlock: KIFKEQ_clean_linker_1, # of connection points: 2
#     Edge 29, Type (0, 0), BuildingBlock: KIFKEQ_clean_linker_1, # of connection points: 2
#     Edge 30, Type (0, 0), BuildingBlock: KIFKEQ_clean_linker_1, # of connection points: 2
#     Edge 31, Type (0, 0), BuildingBlock: KIFKEQ_clean_linker_1, # of connection points: 2
#     Edge 32, Type (0, 0), BuildingBlock: KIFKEQ_clean_linker_1, # of connection points: 2
#     Edge 33, Type (0, 0), BuildingBlock: KIFKEQ_clean_linker_1, # of connection points: 2
#     Edge 34, Type (0, 0), BuildingBlock: KIFKEQ_clean_linker_1, # of connection points: 2
#     Edge 35, Type (0, 0), BuildingBlock: KIFKEQ_clean_linker_1, # of connection points: 2
#     Edge 36, Type (0, 0), BuildingBlock: KIFKEQ_clean_linker_1, # of connection points: 2
#     Edge 37, Type (0, 0), BuildingBlock: KIFKEQ_clean_linker_1, # of connection points: 2
#     Edge 38, Type (0, 0), BuildingBlock: KIFKEQ_clean_linker_1, # of connection points: 2
#     Edge 39, Type (0, 0), BuildingBlock: KIFKEQ_clean_linker_1, # of connection points: 2
#     Edge 40, Type (0, 0), BuildingBlock: KIFKEQ_clean_linker_1, # of connection points: 2
#     Edge 41, Type (0, 0), BuildingBlock: KIFKEQ_clean_linker_1, # of connection points: 2
#     Edge 42, Type (0, 0), BuildingBlock: KIFKEQ_clean_linker_1, # of connection points: 2
#     Edge 43, Type (0, 0), BuildingBlock: KIFKEQ_clean_linker_1, # of connection points: 2
#     Edge 44, Type (0, 0), BuildingBlock: KIFKEQ_clean_linker_1, # of connection points: 2
#     Edge 45, Type (0, 0), BuildingBlock: KIFKEQ_clean_linker_1, # of connection points: 2
#     Edge 46, Type (0, 0), BuildingBlock: KIFKEQ_clean_linker_1, # of connection points: 2
#     Edge 47, Type (0, 0), BuildingBlock: KIFKEQ_clean_linker_1, # of connection points: 2
# Relax obj value: 0.164
# Max RMSD: 0.090
# Mean RMSD: 0.090
data_MOF--net-ure--node1-UXUYUI_clean_sbu_0--edge1-KIFKEQ_clean_linker_1
_symmetry_space_group_name_H-M    P1
_symmetry_Int_Tables_number       1
_symmetry_cell_setting            triclinic
loop_
_symmetry_equiv_pos_as_xyz
'x, y, z'
_cell_length_a     47.078257
_cell_length_b     46.982768
_cell_length_c     46.992877
_cell_angle_alpha  90.075831
_cell_angle_beta   90.109865
_cell_angle_gamma 90.230795
loop_
_atom_site_label
_atom_site_type_symbol
_atom_site_fract_x
_atom_site_fract_y
_atom_site_fract_z
_atom_type_partial_charge
Li0 Li 0.25887 0.29679 0.26117 0.0
Li1 Li 0.26018 0.2584 0.29459 0.0
Li2 Li 0.29524 0.25982 0.25816 0.0
Li3 Li 0.24498 0.24677 0.24717 0.0
C4 C 0.30995 0.30844 0.28703 0.0
N5 N 0.35156 0.34997 0.28369 0.0
C6 C 0.32303 0.31865 0.31177 0.0
C7 C 0.31802 0.31943 0.26059 0.0
C8 C 0.34402 0.33964 0.30963 0.0
C9 C 0.3391 0.34038 0.25935 0.0
C10 C 0.20378 0.27518 0.29161 0.0
C11 C 0.15809 0.25836 0.30765 0.0
N12 N 0.15784 0.27914 0.32783 0.0
C13 C 0.203 0.29649 0.31236 0.0
C14 C 0.18112 0.25603 0.28908 0.0
C15 C 0.17961 0.29808 0.33054 0.0
C16 C 0.24608 0.34882 0.23172 0.0
N17 N 0.25198 0.33655 0.25723 0.0
C18 C 0.25324 0.38198 0.28008 0.0
C19 C 0.25517 0.35242 0.28123 0.0
C20 C 0.24783 0.39543 0.25398 0.0
C21 C 0.24374 0.37847 0.22962 0.0
H22 H 0.24381 0.33568 0.21294 0.0
H23 H 0.25996 0.34213 0.30122 0.0
C24 C 0.28092 0.25412 0.34959 0.0
N25 N 0.25656 0.25013 0.33454 0.0
C26 C 0.28123 0.25066 0.37906 0.0
C27 C 0.23149 0.23805 0.37714 0.0
C28 C 0.23227 0.2414 0.34759 0.0
C29 C 0.25611 0.2432 0.39341 0.0
H30 H 0.30019 0.26017 0.33864 0.0
H31 H 0.21337 0.23726 0.33525 0.0
C32 C 0.2772 0.26376 0.20046 0.0
N33 N 0.29011 0.2412 0.14774 0.0
C34 C 0.28541 0.23529 0.19798 0.0
C35 C 0.27557 0.28074 0.17613 0.0
C36 C 0.29183 0.22428 0.17114 0.0
C37 C 0.2822 0.26894 0.14966 0.0
C38 C 0.26838 0.20448 0.28956 0.0
C39 C 0.29085 0.19319 0.30534 0.0
C40 C 0.24077 0.19439 0.294 0.0
C41 C 0.28527 0.17206 0.32549 0.0
C42 C 0.23608 0.1732 0.3143 0.0
N43 N 0.25823 0.1626 0.32952 0.0
C44 C 0.35038 0.24613 0.274 0.0
C45 C 0.34752 0.26041 0.22577 0.0
C46 C 0.37987 0.24382 0.27214 0.0
N47 N 0.33483 0.25415 0.251 0.0
C48 C 0.37698 0.25826 0.2229 0.0
C49 C 0.39362 0.25003 0.24635 0.0
H50 H 0.3399 0.24246 0.29412 0.0
H51 H 0.33501 0.26785 0.20803 0.0
C52 C 0.19815 0.2361 0.21025 0.0
N53 N 0.22085 0.22408 0.22344 0.0
C54 C 0.18049 0.21965 0.1927 0.0
C55 C 0.20997 0.17885 0.20261 0.0
C56 C 0.22708 0.19608 0.21985 0.0
C57 C 0.18625 0.19055 0.18877 0.0
H58 H 0.19375 0.25846 0.21344 0.0
H59 H 0.24545 0.18711 0.2303 0.0
O60 O 0.28932 0.28787 0.28893 0.0
O61 O 0.22637 0.2733 0.27351 0.0
O62 O 0.27044 0.27498 0.22644 0.0
O63 O 0.27322 0.22576 0.27031 0.0
H64 H 0.31697 0.31051 0.33242 0.0
H65 H 0.30814 0.31195 0.24119 0.0
H66 H 0.35431 0.34773 0.32861 0.0
H67 H 0.34555 0.34903 0.23904 0.0
H68 H 0.14045 0.24362 0.30603 0.0
H69 H 0.22039 0.31142 0.31462 0.0
H70 H 0.18137 0.23949 0.27304 0.0
H71 H 0.17878 0.31434 0.34683 0.0
H72 H 0.25615 0.39421 0.29943 0.0
H73 H 0.2397 0.38804 0.20907 0.0
H74 H 0.30098 0.25398 0.39044 0.0
H75 H 0.21159 0.23225 0.38712 0.0
H76 H 0.28698 0.22186 0.21657 0.0
H77 H 0.26923 0.3028 0.17768 0.0
H78 H 0.29822 0.2023 0.16893 0.0
H79 H 0.28104 0.28184 0.13065 0.0
H80 H 0.31233 0.20069 0.30216 0.0
H81 H 0.22309 0.20314 0.28222 0.0
H82 H 0.30243 0.1632 0.33794 0.0
H83 H 0.2148 0.16533 0.31808 0.0
H84 H 0.39181 0.23813 0.29099 0.0
H85 H 0.38661 0.26321 0.20259 0.0
H86 H 0.16232 0.22952 0.18265 0.0
H87 H 0.21552 0.15667 0.19984 0.0
Li88 Li 0.99097 0.04595 0.50514 0.0
Li89 Li 0.95775 0.00751 0.50737 0.0
Li90 Li 0.9937 0.01002 0.54272 0.0
Li91 Li 0.00494 0.99566 0.49261 0.0
C92 C 0.96558 0.05947 0.55533 0.0
N93 N 0.97006 0.10295 0.59483 0.0
C94 C 0.94114 0.07194 0.56661 0.0
C95 C 0.99231 0.0693 0.56405 0.0
C96 C 0.94385 0.09385 0.58657 0.0
C97 C 0.99412 0.09123 0.58407 0.0
C98 C 0.96014 0.02046 0.45073 0.0
C99 C 0.94408 0.99858 0.4071 0.0
N100 N 0.92296 0.01817 0.40524 0.0
C101 C 0.93845 0.04053 0.44828 0.0
C102 C 0.96313 0.9994 0.42992 0.0
C103 C 0.91978 0.03894 0.42517 0.0
C104 C 0.02082 0.09806 0.49357 0.0
N105 N 0.99505 0.08544 0.49721 0.0
C106 C 0.97171 0.13042 0.49472 0.0
C107 C 0.97073 0.10091 0.49754 0.0
C108 C 0.99802 0.14426 0.4916 0.0
C109 C 0.0228 0.12765 0.4906 0.0
H110 H 0.03984 0.08523 0.49366 0.0
H111 H 0.95056 0.09034 0.50079 0.0
C112 C 0.90159 0.00726 0.52566 0.0
N113 N 0.91785 0.99891 0.50333 0.0
C114 C 0.8722 0.00347 0.52506 0.0
C115 C 0.87669 0.98136 0.47887 0.0
C116 C 0.90606 0.98561 0.4804 0.0
C117 C 0.85929 0.99066 0.50128 0.0
H118 H 0.91146 0.01706 0.54399 0.0
H119 H 0.91932 0.97823 0.46324 0.0
C120 C 0.05139 0.01375 0.52539 0.0
N121 N 0.10383 0.9921 0.54032 0.0
C122 C 0.05425 0.98489 0.53201 0.0
C123 C 0.0752 0.03158 0.52638 0.0
C124 C 0.08094 0.97435 0.53948 0.0
C125 C 0.10152 0.02024 0.534 0.0
C126 C 0.96227 0.95391 0.5191 0.0
C127 C 0.94617 0.94569 0.54267 0.0
C128 C 0.95794 0.94039 0.49292 0.0
C129 C 0.92582 0.92416 0.5396 0.0
C130 C 0.93746 0.91889 0.49074 0.0
N131 N 0.92192 0.91133 0.51392 0.0
C132 C 0.9761 1.00153 0.59825 0.0
C133 C 0.02596 0.00796 0.59571 0.0
C134 C 0.97726 1.00033 0.62789 0.0
N135 N 1.0002 0.00525 0.58277 0.0
C136 C 0.02814 0.00662 0.62536 0.0
C137 C 0.00352 0.00304 0.64184 0.0
H138 H 0.95579 1.0003 0.58751 0.0
H139 H 0.04477 0.01205 0.5833 0.0
C140 C 0.04311 0.98576 0.44713 0.0
N141 N 0.02878 0.97299 0.46876 0.0
C142 C 0.06068 0.96974 0.42931 0.0
C143 C 0.04843 0.92777 0.45639 0.0
C144 C 0.03132 0.94462 0.47381 0.0
C145 C 0.06337 0.94028 0.43374 0.0
H146 H 0.04078 0.00839 0.44368 0.0
H147 H 0.02011 0.93506 0.49145 0.0
O148 O 0.96312 0.03807 0.53558 0.0
O149 O 0.97873 0.02169 0.47306 0.0
O150 O 0.02558 0.02454 0.51761 0.0
O151 O 0.98189 0.97534 0.5215 0.0
H152 H 0.92027 0.06491 0.55992 0.0
H153 H 0.01153 0.06019 0.55553 0.0
H154 H 0.9251 0.10366 0.59546 0.0
H155 H 0.01467 0.09896 0.59102 0.0
H156 H 0.94604 0.98234 0.3909 0.0
H157 H 0.93586 0.05694 0.4642 0.0
H158 H 0.9799 0.98378 0.43145 0.0
H159 H 0.90276 0.0542 0.42311 0.0
H160 H 0.95205 0.1423 0.49524 0.0
H161 H 0.04354 0.13747 0.4885 0.0
H162 H 0.85969 0.01114 0.54277 0.0
H163 H 0.86774 0.97085 0.46039 0.0
H164 H 0.03606 0.97079 0.53165 0.0
H165 H 0.07335 0.05397 0.52133 0.0
H166 H 0.08345 0.95208 0.54468 0.0
H167 H 0.12012 0.0338 0.53487 0.0
H168 H 0.94927 0.95584 0.56309 0.0
H169 H 0.96988 0.94678 0.47434 0.0
H170 H 0.91313 0.91767 0.55764 0.0
H171 H 0.93376 0.90839 0.47057 0.0
H172 H 0.95777 0.99747 0.63977 0.0
H173 H 0.04874 0.00933 0.63533 0.0
H174 H 0.07169 0.9802 0.412 0.0
H175 H 0.05025 0.90524 0.46085 0.0
Li176 Li 0.20873 0.74129 0.75909 0.0
Li177 Li 0.25865 0.75886 0.74819 0.0
Li178 Li 0.24801 0.70776 0.76279 0.0
Li179 Li 0.24437 0.74585 0.79619 0.0
C180 C 0.22005 0.72906 0.70337 0.0
N181 N 0.1889 0.7301 0.65346 0.0
C182 C 0.22404 0.75106 0.68375 0.0
C183 C 0.20031 0.70751 0.6975 0.0
C184 C 0.20808 0.75121 0.65866 0.0
C185 C 0.18473 0.70846 0.6722 0.0
C186 C 0.22493 0.79753 0.7912 0.0
C187 C 0.24298 0.8374 0.81815 0.0
N188 N 0.21828 0.83821 0.83311 0.0
C189 C 0.19969 0.7988 0.80673 0.0
C190 C 0.24676 0.81698 0.79687 0.0
C191 C 0.19676 0.81951 0.82788 0.0
C192 C 0.15157 0.73683 0.77319 0.0
N193 N 0.16891 0.74549 0.75175 0.0
C194 C 0.12872 0.75927 0.72376 0.0
C195 C 0.15813 0.75707 0.72751 0.0
C196 C 0.11039 0.75025 0.74553 0.0
C197 C 0.12216 0.73903 0.77053 0.0
H198 H 0.16061 0.72837 0.79255 0.0
H199 H 0.17223 0.76482 0.71117 0.0
C200 C 0.30364 0.77126 0.7105 0.0
N201 N 0.28121 0.78281 0.72447 0.0
C202 C 0.32081 0.78821 0.69311 0.0
C203 C 0.29133 0.82859 0.70463 0.0
C204 C 0.27467 0.81083 0.72171 0.0
C205 C 0.31486 0.81737 0.69005 0.0
H206 H 0.30819 0.74884 0.71294 0.0
H207 H 0.25652 0.8194 0.73282 0.0
C208 C 0.20842 0.68787 0.79684 0.0
N209 N 0.19214 0.63272 0.80941 0.0
C210 C 0.21857 0.67457 0.82142 0.0
C211 C 0.18983 0.67318 0.77878 0.0
C212 C 0.21012 0.64667 0.82738 0.0
C213 C 0.18191 0.6453 0.78546 0.0
C214 C 0.30102 0.73887 0.79398 0.0
C215 C 0.30491 0.72135 0.81769 0.0
C216 C 0.31965 0.76163 0.78931 0.0
C217 C 0.32733 0.72699 0.83642 0.0
C218 C 0.34184 0.76653 0.8085 0.0
N219 N 0.34518 0.74926 0.83147 0.0
C220 C 0.25158 0.65561 0.73218 0.0
C221 C 0.26898 0.6537 0.77943 0.0
C222 C 0.25487 0.62621 0.72921 0.0
N223 N 0.25792 0.6686 0.75727 0.0
C224 C 0.27244 0.62428 0.77748 0.0
C225 C 0.26477 0.61001 0.75231 0.0
H226 H 0.24329 0.66793 0.71469 0.0
H227 H 0.27386 0.66441 0.79915 0.0
C228 C 0.22652 0.74481 0.85289 0.0
N229 N 0.24736 0.75558 0.83601 0.0
C230 C 0.22713 0.74925 0.88223 0.0
C231 C 0.26986 0.77721 0.87637 0.0
C232 C 0.26837 0.77226 0.84706 0.0
C233 C 0.24927 0.76526 0.89443 0.0
H234 H 0.20944 0.7325 0.84359 0.0
H235 H 0.2841 0.78164 0.83323 0.0
O236 O 0.23559 0.72851 0.728 0.0
O237 O 0.22848 0.77693 0.77097 0.0
O238 O 0.21693 0.71498 0.79029 0.0
O239 O 0.27938 0.73358 0.77521 0.0
H240 H 0.23921 0.7679 0.68785 0.0
H241 H 0.19692 0.69031 0.71237 0.0
H242 H 0.21091 0.76814 0.64333 0.0
H243 H 0.1693 0.69198 0.66746 0.0
H244 H 0.25975 0.85249 0.82291 0.0
H245 H 0.18268 0.78377 0.8027 0.0
H246 H 0.2666 0.816 0.78532 0.0
H247 H 0.1774 0.82066 0.84019 0.0
H248 H 0.12042 0.76851 0.70436 0.0
H249 H 0.10875 0.73183 0.78781 0.0
H250 H 0.33837 0.77846 0.68195 0.0
H251 H 0.28603 0.85094 0.70321 0.0
H252 H 0.23325 0.68546 0.83548 0.0
H253 H 0.18169 0.68316 0.75975 0.0
H254 H 0.21798 0.63605 0.8462 0.0
H255 H 0.16764 0.63365 0.77159 0.0
H256 H 0.29043 0.70401 0.82198 0.0
H257 H 0.31695 0.77548 0.77116 0.0
H258 H 0.33043 0.71375 0.85497 0.0
H259 H 0.35638 0.7841 0.80517 0.0
H260 H 0.24926 0.61624 0.70917 0.0
H261 H 0.27985 0.61275 0.79597 0.0
H262 H 0.21081 0.73955 0.89526 0.0
H263 H 0.28695 0.79023 0.88479 0.0
Li264 Li 0.50608 0.993 0.04587 0.0
Li265 Li 0.5097 0.95902 0.00839 0.0
Li266 Li 0.54474 0.99523 0.01147 0.0
Li267 Li 0.49534 0.00613 0.99512 0.0
C268 C 0.55565 0.96874 0.06214 0.0
N269 N 0.59303 0.97574 0.10718 0.0
C270 C 0.56651 0.94503 0.0764 0.0
C271 C 0.5637 0.99605 0.07108 0.0
C272 C 0.5854 0.949 0.09904 0.0
C273 C 0.58264 0.99913 0.09378 0.0
C274 C 0.45359 0.96027 0.01738 0.0
C275 C 0.41329 0.94201 0.99126 0.0
N276 N 0.41074 0.92049 0.01043 0.0
C277 C 0.45043 0.93811 0.03695 0.0
C278 C 0.4348 0.96235 0.99441 0.0
C279 C 0.4287 0.91815 0.033 0.0
C280 C 0.49653 0.02455 0.09698 0.0
N281 N 0.49708 0.99823 0.08495 0.0
C282 C 0.49045 0.97624 0.13028 0.0
C283 C 0.49404 0.97431 0.10089 0.0
C284 C 0.49037 0.00308 0.14347 0.0
C285 C 0.49323 0.02749 0.12641 0.0
H286 H 0.49943 0.04318 0.08384 0.0
H287 H 0.49546 0.95365 0.09088 0.0
C288 C 0.52466 0.90186 0.01357 0.0
N289 N 0.50565 0.91889 1.00014 0.0
C290 C 0.52373 0.87242 0.00995 0.0
C291 C 0.48424 0.87831 0.9777 0.0
C292 C 0.48576 0.90771 0.98223 0.0
C293 C 0.50331 0.86014 0.99182 0.0
H294 H 0.54061 0.91114 0.02721 0.0
H295 H 0.47104 0.92149 0.97138 0.0
C296 C 0.52717 0.05286 0.01235 0.0
N297 N 0.54209 0.10446 0.98833 0.0
C298 C 0.53832 0.05388 0.9848 0.0
C299 C 0.52361 0.07811 0.02765 0.0
C300 C 0.54572 0.08016 0.97304 0.0
C301 C 0.5313 0.10398 0.01515 0.0
C302 C 0.52161 0.96425 0.95389 0.0
C303 C 0.5436 0.94573 0.94659 0.0
C304 C 0.49635 0.96377 0.9382 0.0
C305 C 0.53987 0.92691 0.92383 0.0
C306 C 0.49348 0.9447 0.91552 0.0
N307 N 0.51511 0.92679 0.9089 0.0
C308 C 0.60005 0.97827 1.00166 0.0
C309 C 0.59785 0.02724 0.01347 0.0
C310 C 0.62962 0.97943 1.00057 0.0
N311 N 0.58477 0.00196 0.00779 0.0
C312 C 0.62748 0.02939 0.01255 0.0
C313 C 0.64378 0.0052 0.00623 0.0
H314 H 0.58922 0.95821 0.99843 0.0
H315 H 0.58551 0.04554 0.01961 0.0
C316 C 0.44753 0.03999 0.98237 0.0
N317 N 0.4724 0.03014 0.97161 0.0
C318 C 0.43006 0.05756 0.96599 0.0
C319 C 0.46441 0.05502 0.92795 0.0
C320 C 0.48114 0.03738 0.945 0.0
C321 C 0.43841 0.06529 0.93834 0.0
H322 H 0.44123 0.03409 0.0037 0.0
H323 H 0.50106 0.02934 0.93695 0.0
O324 O 0.53681 0.96507 0.04008 0.0
O325 O 0.4747 0.98005 0.02087 0.0
O326 O 0.51934 0.02741 0.02422 0.0
O327 O 0.52472 0.98266 0.9763 0.0
H328 H 0.56033 0.92371 0.07027 0.0
H329 H 0.55545 0.01477 0.06076 0.0
H330 H 0.59394 0.93081 0.11019 0.0
H331 H 0.58904 0.02014 0.1008 0.0
H332 H 0.39868 0.94328 0.97351 0.0
H333 H 0.46482 0.93613 0.05478 0.0
H334 H 0.4369 0.97935 0.97906 0.0
H335 H 0.42615 0.90076 0.04786 0.0
H336 H 0.48889 0.95688 0.14268 0.0
H337 H 0.49321 0.04857 0.13576 0.0
H338 H 0.53867 0.85945 0.02167 0.0
H339 H 0.46842 0.86998 0.96312 0.0
H340 H 0.54145 0.03461 0.97265 0.0
H341 H 0.51495 0.07778 0.04895 0.0
H342 H 0.55439 0.08123 0.95177 0.0
H343 H 0.52866 0.12368 0.02677 0.0
H344 H 0.56329 0.94576 0.95839 0.0
H345 H 0.4789 0.97755 0.94376 0.0
H346 H 0.55668 0.91239 0.91805 0.0
H347 H 0.47397 0.944 0.90334 0.0
H348 H 0.64127 0.96026 0.9955 0.0
H349 H 0.63754 0.04954 0.01766 0.0
H350 H 0.41039 0.06529 0.97502 0.0
H351 H 0.47157 0.06018 0.90668 0.0
Li352 Li 0.2512 0.75902 0.25694 0.0
Li353 Li 0.26288 0.70934 0.24276 0.0
Li354 Li 0.29906 0.74461 0.24661 0.0
Li355 Li 0.26692 0.747 0.20725 0.0
C356 C 0.29141 0.7363 0.30058 0.0
N357 N 0.32766 0.74863 0.3453 0.0
C358 C 0.30739 0.71469 0.31318 0.0
C359 C 0.29384 0.76417 0.31078 0.0
C360 C 0.32563 0.72136 0.33573 0.0
C361 C 0.31225 0.76997 0.33342 0.0
C362 C 0.20558 0.72658 0.23788 0.0
C363 C 0.15494 0.72144 0.23183 0.0
N364 N 0.15285 0.7116 0.25896 0.0
C365 C 0.20294 0.71638 0.2657 0.0
C366 C 0.18141 0.72913 0.22079 0.0
C367 C 0.1761 0.70894 0.27596 0.0
C368 C 0.21428 0.80557 0.26668 0.0
N369 N 0.22639 0.78243 0.27897 0.0
C370 C 0.20313 0.79245 0.32304 0.0
C371 C 0.22102 0.77551 0.30652 0.0
C372 C 0.19032 0.81665 0.31105 0.0
C373 C 0.19608 0.82304 0.28237 0.0
H374 H 0.21876 0.81043 0.24464 0.0
H375 H 0.23076 0.75686 0.31574 0.0
C376 C 0.27581 0.65388 0.25946 0.0
N377 N 0.25507 0.66955 0.24697 0.0
C378 C 0.27321 0.62434 0.26137 0.0
C379 C 0.22818 0.62738 0.23684 0.0
C380 C 0.23154 0.65694 0.23563 0.0
C381 C 0.24923 0.61069 0.24981 0.0
H382 H 0.29483 0.66428 0.26714 0.0
H383 H 0.21573 0.66965 0.22492 0.0
C384 C 0.29698 0.80122 0.23143 0.0
N385 N 0.33439 0.84663 0.23004 0.0
C386 C 0.31904 0.80172 0.21158 0.0
C387 C 0.29377 0.82391 0.25041 0.0
C388 C 0.3378 0.82484 0.21128 0.0
C389 C 0.31294 0.84666 0.24939 0.0
C390 C 0.29302 0.69649 0.19456 0.0
C391 C 0.31782 0.68338 0.18494 0.0
C392 C 0.26695 0.68933 0.18207 0.0
C393 C 0.31611 0.66319 0.16314 0.0
C394 C 0.26613 0.66904 0.16034 0.0
N395 N 0.29052 0.65649 0.1514 0.0
C396 C 0.35455 0.72524 0.25099 0.0
C397 C 0.35038 0.77237 0.26832 0.0
C398 C 0.38378 0.72558 0.2559 0.0
N399 N 0.33855 0.74858 0.25664 0.0
C400 C 0.37962 0.77372 0.27344 0.0
C401 C 0.39677 0.75021 0.26689 0.0
H402 H 0.34457 0.70633 0.24241 0.0
H403 H 0.33727 0.79039 0.2736 0.0
C404 C 0.23812 0.76105 0.15553 0.0
N405 N 0.26368 0.75551 0.16779 0.0
C406 C 0.23612 0.76478 0.12605 0.0
C407 C 0.28681 0.75753 0.12265 0.0
C408 C 0.28781 0.75395 0.15207 0.0
C409 C 0.26067 0.76264 0.10916 0.0
H410 H 0.21924 0.76195 0.16855 0.0
H411 H 0.3078 0.74921 0.16233 0.0
O412 O 0.27393 0.73041 0.27799 0.0
O413 O 0.2316 0.73424 0.22736 0.0
O414 O 0.27837 0.77885 0.23211 0.0
O415 O 0.29451 0.71638 0.21588 0.0
H416 H 0.30583 0.69302 0.30565 0.0
H417 H 0.28204 0.78127 0.301 0.0
H418 H 0.33818 0.70486 0.34562 0.0
H419 H 0.31444 0.79148 0.34139 0.0
H420 H 0.13605 0.72331 0.21884 0.0
H421 H 0.22137 0.7141 0.27923 0.0
H422 H 0.18308 0.73697 0.19921 0.0
H423 H 0.17375 0.70102 0.29743 0.0
H424 H 0.19974 0.7868 0.3451 0.0
H425 H 0.18639 0.84113 0.272 0.0
H426 H 0.29024 0.61223 0.27097 0.0
H427 H 0.20939 0.61767 0.2276 0.0
H428 H 0.32189 0.78428 0.19687 0.0
H429 H 0.27672 0.82388 0.26582 0.0
H430 H 0.3551 0.82542 0.19618 0.0
H431 H 0.31079 0.86431 0.26402 0.0
H432 H 0.33823 0.68879 0.19413 0.0
H433 H 0.24752 0.69932 0.18894 0.0
H434 H 0.33515 0.65288 0.15552 0.0
H435 H 0.24609 0.6633 0.15055 0.0
H436 H 0.39616 0.70699 0.25043 0.0
H437 H 0.38869 0.79294 0.28247 0.0
H438 H 0.21549 0.76839 0.11653 0.0
H439 H 0.30632 0.7561 0.11057 0.0
Li440 Li 0.54575 0.00559 0.49044 0.0
Li441 Li 0.51176 0.04642 0.49283 0.0
Li442 Li 0.49666 0.99655 0.50442 0.0
Li443 Li 0.50779 0.00982 0.45647 0.0
C444 C 0.54265 0.02755 0.54635 0.0
N445 N 0.57891 0.04082 0.59081 0.0
C446 C 0.55905 0.05238 0.54549 0.0
C447 C 0.5443 0.00973 0.5701 0.0
C448 C 0.57739 0.05864 0.56808 0.0
C449 C 0.56286 0.01674 0.59229 0.0
C450 C 0.54868 0.04254 0.43659 0.0
C451 C 0.54479 0.06932 0.39303 0.0
N452 N 0.56543 0.05293 0.38125 0.0
C453 C 0.56994 0.02603 0.42412 0.0
C454 C 0.53606 0.06444 0.421 0.0
C455 C 0.57809 0.03161 0.3961 0.0
C456 C 0.59785 0.97214 0.49355 0.0
N457 N 0.58569 0.99835 0.49476 0.0
C458 C 0.63145 0.02049 0.49783 0.0
C459 C 0.60192 0.02228 0.49662 0.0
C460 C 0.64464 0.99376 0.49661 0.0
C461 C 0.6274 0.96934 0.49464 0.0
H462 H 0.58495 0.95335 0.49087 0.0
H463 H 0.59191 0.04292 0.49643 0.0
C464 C 0.48686 0.09758 0.51481 0.0
N465 N 0.50884 0.08614 0.50001 0.0
C466 C 0.48503 0.12714 0.51831 0.0
C467 C 0.52849 0.13228 0.49144 0.0
C468 C 0.52958 0.10278 0.48866 0.0
C469 C 0.50588 0.14486 0.50618 0.0
H470 H 0.4706 0.08381 0.52353 0.0
H471 H 0.54699 0.09311 0.47729 0.0
C472 C 0.52761 0.94881 0.48685 0.0
N473 N 0.5421 0.89615 0.50844 0.0
C474 C 0.52912 0.92519 0.46883 0.0
C475 C 0.53332 0.94563 0.51585 0.0
C476 C 0.53655 0.89875 0.48015 0.0
C477 C 0.54063 0.91885 0.52637 0.0
C478 C 0.45056 0.01547 0.4732 0.0
C479 C 0.44775 0.98858 0.46071 0.0
C480 C 0.42635 0.0317 0.47859 0.0
C481 C 0.42068 0.97834 0.45388 0.0
C482 C 0.39966 0.02071 0.47142 0.0
N483 N 0.3974 0.99448 0.45933 0.0
C484 C 0.46541 0.98441 0.55467 0.0
C485 C 0.46238 0.94879 0.51904 0.0
C486 C 0.44819 0.96828 0.57281 0.0
N487 N 0.47223 0.9744 0.52841 0.0
C488 C 0.44526 0.93193 0.5365 0.0
C489 C 0.43802 0.94154 0.56385 0.0
H490 H 0.47356 0.00485 0.56159 0.0
H491 H 0.46797 0.94131 0.49804 0.0
C492 C 0.51482 0.98623 0.40188 0.0
N493 N 0.49938 0.00534 0.41702 0.0
C494 C 0.51232 0.98503 0.37231 0.0
C495 C 0.4771 0.02228 0.3746 0.0
C496 C 0.48049 0.02296 0.40413 0.0
C497 C 0.49356 0.0035 0.35827 0.0
H498 H 0.52991 0.97272 0.41273 0.0
H499 H 0.46886 0.0383 0.41669 0.0
O500 O 0.52448 0.0211 0.52445 0.0
O501 O 0.53979 0.03684 0.46369 0.0
O502 O 0.51978 0.97466 0.4761 0.0
O503 O 0.47678 0.02595 0.48028 0.0
H504 H 0.55786 0.06659 0.52749 0.0
H505 H 0.53125 0.99079 0.57156 0.0
H506 H 0.59037 0.07767 0.56755 0.0
H507 H 0.56442 0.00308 0.61073 0.0
H508 H 0.53505 0.08604 0.38063 0.0
H509 H 0.57975 0.00883 0.4358 0.0
H510 H 0.51938 0.07723 0.43027 0.0
H511 H 0.59439 0.0189 0.38611 0.0
H512 H 0.64381 0.0399 0.49951 0.0
H513 H 0.63664 0.94834 0.49302 0.0
H514 H 0.46718 0.13605 0.52971 0.0
H515 H 0.54524 0.14512 0.48218 0.0
H516 H 0.52455 0.92727 0.44635 0.0
H517 H 0.53218 0.96364 0.53001 0.0
H518 H 0.53785 0.88029 0.46644 0.0
H519 H 0.54514 0.91611 0.54878 0.0
H520 H 0.46622 0.97569 0.45638 0.0
H521 H 0.4282 0.05256 0.48826 0.0
H522 H 0.4182 0.95755 0.44425 0.0
H523 H 0.38073 0.03304 0.4755 0.0
H524 H 0.44333 0.97642 0.59381 0.0
H525 H 0.43759 0.91166 0.52855 0.0
H526 H 0.52522 0.97008 0.3605 0.0
H527 H 0.46264 0.03708 0.36457 0.0
Li528 Li 0.25581 0.24696 0.75615 0.0
Li529 Li 0.24506 0.29618 0.74051 0.0
Li530 Li 0.207 0.25993 0.745 0.0
Li531 Li 0.24287 0.25737 0.70668 0.0
C532 C 0.2158 0.28231 0.7982 0.0
N533 N 0.18154 0.29522 0.84408 0.0
C534 C 0.20825 0.31054 0.8037 0.0
C535 C 0.20621 0.26071 0.81623 0.0
C536 C 0.19082 0.31661 0.82694 0.0
C537 C 0.18883 0.26765 0.83926 0.0
C538 C 0.29988 0.2881 0.73051 0.0
C539 C 0.32755 0.32852 0.71498 0.0
N540 N 0.34621 0.32394 0.73661 0.0
C541 C 0.31935 0.28378 0.75257 0.0
C542 C 0.30403 0.31062 0.71151 0.0
C543 C 0.34264 0.30213 0.75529 0.0
C544 C 0.29563 0.20338 0.7678 0.0
N545 N 0.27916 0.22371 0.77998 0.0
C546 C 0.29657 0.21139 0.82619 0.0
C547 C 0.27947 0.22811 0.80857 0.0
C548 C 0.31353 0.18985 0.81431 0.0
C549 C 0.31284 0.186 0.78462 0.0
H550 H 0.29541 0.20067 0.74495 0.0
H551 H 0.26667 0.24483 0.81769 0.0
C552 C 0.23307 0.35327 0.73093 0.0
N553 N 0.25155 0.33617 0.74503 0.0
C554 C 0.23539 0.38275 0.73293 0.0
C555 C 0.27565 0.37682 0.76433 0.0
C556 C 0.27234 0.34728 0.76193 0.0
C557 C 0.2569 0.39492 0.74975 0.0
H558 H 0.21624 0.34403 0.71827 0.0
H559 H 0.2863 0.33325 0.77357 0.0
C560 C 0.22951 0.19855 0.73859 0.0
N561 N 0.23409 0.14214 0.75435 0.0
C562 C 0.24381 0.17932 0.72107 0.0
C563 C 0.2173 0.18907 0.76396 0.0
C564 C 0.24596 0.15088 0.72946 0.0
C565 C 0.21992 0.16049 0.7716 0.0
C566 C 0.20338 0.29117 0.68726 0.0
C567 C 0.17877 0.27671 0.67881 0.0
C568 C 0.21767 0.30856 0.66781 0.0
C569 C 0.16893 0.27977 0.65091 0.0
C570 C 0.2072 0.31098 0.64009 0.0
N571 N 0.18326 0.29665 0.63228 0.0
C572 C 0.15356 0.27956 0.76197 0.0
C573 C 0.15336 0.23135 0.74719 0.0
C574 C 0.12418 0.27902 0.76561 0.0
N575 N 0.16753 0.25594 0.75308 0.0
C576 C 0.12381 0.23 0.75003 0.0
C577 C 0.10871 0.25418 0.75908 0.0
H578 H 0.16514 0.29914 0.76545 0.0
H579 H 0.16485 0.21314 0.73922 0.0
C580 C 0.26907 0.26166 0.65302 0.0
N581 N 0.24814 0.24803 0.66753 0.0
C582 C 0.27082 0.25913 0.62351 0.0
C583 C 0.23053 0.22708 0.62453 0.0
C584 C 0.22938 0.23048 0.65408 0.0
C585 C 0.25104 0.24213 0.60885 0.0
H586 H 0.28375 0.27536 0.66421 0.0
H587 H 0.21279 0.22008 0.66618 0.0
O588 O 0.23287 0.27596 0.77555 0.0
O589 O 0.27698 0.27032 0.72747 0.0
O590 O 0.22739 0.22649 0.73086 0.0
O591 O 0.21389 0.28771 0.7142 0.0
H592 H 0.21554 0.32756 0.79006 0.0
H593 H 0.21217 0.23882 0.81256 0.0
H594 H 0.18467 0.33833 0.83134 0.0
H595 H 0.18119 0.25112 0.85334 0.0
H596 H 0.33089 0.34614 0.70056 0.0
H597 H 0.31654 0.26649 0.76747 0.0
H598 H 0.28893 0.31462 0.69462 0.0
H599 H 0.35785 0.29905 0.77228 0.0
H600 H 0.2968 0.21564 0.84884 0.0
H601 H 0.32526 0.16954 0.77443 0.0
H602 H 0.22059 0.39591 0.72123 0.0
H603 H 0.29229 0.3854 0.77781 0.0
H604 H 0.2533 0.18635 0.70131 0.0
H605 H 0.2059 0.20363 0.77755 0.0
H606 H 0.25707 0.13577 0.71619 0.0
H607 H 0.21066 0.15288 0.79124 0.0
H608 H 0.16755 0.26303 0.69351 0.0
H609 H 0.23692 0.31967 0.67394 0.0
H610 H 0.14999 0.26859 0.64403 0.0
H611 H 0.21819 0.32414 0.62474 0.0
H612 H 0.11372 0.2981 0.77304 0.0
H613 H 0.1129 0.21054 0.74413 0.0
H614 H 0.28717 0.27078 0.61219 0.0
H615 H 0.21482 0.21389 0.61395 0.0
Li616 Li 0.99452 0.9932 0.95556 0.0
Li617 Li 0.00651 0.00775 0.00307 0.0
Li618 Li 0.99345 0.9569 0.99245 0.0
Li619 Li 0.95718 0.99616 0.99083 0.0
C620 C 0.05234 0.99084 0.97037 0.0
N621 N 0.10344 0.01479 0.95399 0.0
C622 C 0.05301 0.018 0.95826 0.0
C623 C 0.07763 0.97585 0.97411 0.0
C624 C 0.07905 0.02974 0.95014 0.0
C625 C 0.10326 0.98832 0.9657 0.0
C626 C 0.9743 0.05442 0.98434 0.0
C627 C 0.95617 0.0863 0.02015 0.0
N628 N 0.96181 0.10877 0.00281 0.0
C629 C 0.97985 0.07779 0.96684 0.0
C630 C 0.96234 0.05866 0.01118 0.0
C631 C 0.97341 0.10512 0.97657 0.0
C632 C 0.9849 0.0166 0.90129 0.0
N633 N 1.00133 0.9979 0.91586 0.0
C634 C 0.02359 0.98263 0.87285 0.0
C635 C 0.02063 0.98122 0.90238 0.0
C636 C 0.00638 1.00123 0.85702 0.0
C637 C 0.98701 0.01857 0.87173 0.0
H638 H 0.96945 0.02929 0.91258 0.0
H639 H 0.03321 0.96631 0.91452 0.0
C640 C 0.03874 0.02124 0.05226 0.0
N641 N 0.03035 0.03133 0.0265 0.0
C642 C 0.05573 0.03793 0.07021 0.0
C643 C 0.05551 0.07496 0.03462 0.0
C644 C 0.03859 0.05755 0.01737 0.0
C645 C 0.06429 0.0653 0.06152 0.0
H646 H 0.03216 1.00018 0.0589 0.0
H647 H 0.03202 0.06506 0.99669 0.0
C648 C 0.9554 0.95718 0.9374 0.0
N649 N 0.93937 0.9429 0.88265 0.0
C650 C 0.9332 0.9717 0.9241 0.0
C651 C 0.96932 0.93527 0.92299 0.0
C652 C 0.92544 0.96417 0.89637 0.0
C653 C 0.96093 0.92841 0.89528 0.0
C654 C 0.96678 0.97828 0.04911 0.0
C655 C 0.95402 0.9521 0.05527 0.0
C656 C 0.96629 1.00005 0.06943 0.0
C657 C 0.94028 0.94838 0.08133 0.0
C658 C 0.95237 0.99548 0.09526 0.0
N659 N 0.93972 0.96998 0.10061 0.0
C660 C 0.02143 0.90636 0.01223 0.0
C661 C 0.97495 0.90084 0.99349 0.0
C662 C 0.02327 0.87702 0.01709 0.0
N663 N 0.9975 0.91755 1.00057 0.0
C664 C 0.97589 0.87154 0.9979 0.0
C665 C 1.00027 0.85916 0.00984 0.0
H666 H 0.03906 0.9202 0.01764 0.0
H667 H 0.95619 0.91033 0.98425 0.0
C668 C 0.90391 0.02569 0.98641 0.0
N669 N 0.91745 0.00218 0.99639 0.0
C670 C 0.87436 0.0279 0.98851 0.0
C671 C 0.87324 0.98156 0.0107 0.0
C672 C 0.90271 0.98024 0.00813 0.0
C673 C 0.85859 0.0055 1.00056 0.0
H674 H 0.91584 0.04233 0.97596 0.0
H675 H 0.91375 0.96126 0.01468 0.0
O676 O 0.02714 0.97888 0.97866 0.0
O677 O 0.98102 0.02762 0.97527 0.0
O678 O 0.9639 0.96482 0.96417 0.0
O679 O 0.98068 0.98216 0.02383 0.0
H680 H 0.03367 0.02993 0.95515 0.0
H681 H 0.07745 0.9548 0.98346 0.0
H682 H 0.07988 0.05075 0.94077 0.0
H683 H 0.12302 0.97697 0.96848 0.0
H684 H 0.94685 0.08987 0.04086 0.0
H685 H 0.98922 0.07483 0.94602 0.0
H686 H 0.95757 0.04077 0.02474 0.0
H687 H 0.97767 0.12343 0.96329 0.0
H688 H 0.03906 0.96912 0.86253 0.0
H689 H 0.97295 0.03287 0.86048 0.0
H690 H 0.06233 0.02934 0.09053 0.0
H691 H 0.06129 0.09596 0.02707 0.0
H692 H 0.92233 0.9888 0.93495 0.0
H693 H 0.98667 0.92397 0.93298 0.0
H694 H 0.90841 0.97533 0.88572 0.0
H695 H 0.97164 0.91165 0.88377 0.0
H696 H 0.9545 0.93489 0.04 0.0
H697 H 0.97675 0.02019 0.06547 0.0
H698 H 0.9301 0.9283 0.08624 0.0
H699 H 0.95173 0.01218 0.11112 0.0
H700 H 0.04239 0.86846 0.02657 0.0
H701 H 0.95784 0.85867 0.99148 0.0
H702 H 0.86392 0.04647 0.97984 0.0
H703 H 0.86203 0.96382 0.02025 0.0
Li704 Li 0.74601 0.25744 0.75766 0.0
Li705 Li 0.7582 0.20829 0.74142 0.0
Li706 Li 0.79494 0.24558 0.74501 0.0
Li707 Li 0.75963 0.24661 0.70699 0.0
C708 C 0.79022 0.22204 0.79684 0.0
N709 N 0.83061 0.20828 0.83727 0.0
C710 C 0.79953 0.19396 0.7996 0.0
C711 C 0.80121 0.24305 0.8149 0.0
C712 C 0.82001 0.18745 0.82011 0.0
C713 C 0.82169 0.23569 0.83512 0.0
C714 C 0.70313 0.21532 0.7298 0.0
C715 C 0.67595 0.17599 0.71087 0.0
N716 N 0.65735 0.1785 0.73284 0.0
C717 C 0.68371 0.21759 0.75214 0.0
C718 C 0.69919 0.19446 0.70891 0.0
C719 C 0.6607 0.19875 0.7533 0.0
C720 C 0.70507 0.29969 0.76877 0.0
N721 N 0.7222 0.28013 0.78126 0.0
C722 C 0.7059 0.29383 0.82744 0.0
C723 C 0.72289 0.27684 0.80998 0.0
C724 C 0.68793 0.31435 0.81521 0.0
C725 C 0.68765 0.31706 0.78539 0.0
H726 H 0.70497 0.30179 0.74584 0.0
H727 H 0.73681 0.26115 0.81934 0.0
C728 C 0.76937 0.15099 0.7308 0.0
N729 N 0.75152 0.16823 0.74548 0.0
C730 C 0.76611 0.12154 0.7318 0.0
C731 C 0.72651 0.12775 0.7638 0.0
C732 C 0.73068 0.15724 0.76228 0.0
C733 C 0.74423 0.10947 0.74816 0.0
H734 H 0.78642 0.16008 0.71843 0.0
H735 H 0.7172 0.17134 0.77437 0.0
C736 C 0.78105 0.30538 0.73828 0.0
N737 N 0.79885 0.35993 0.75151 0.0
C738 C 0.78843 0.32435 0.71661 0.0
C739 C 0.78252 0.31421 0.76665 0.0
C740 C 0.79745 0.35182 0.72374 0.0
C741 C 0.79161 0.34186 0.77291 0.0
C742 C 0.79954 0.21194 0.68828 0.0
C743 C 0.82578 0.22335 0.68022 0.0
C744 C 0.78401 0.19544 0.66891 0.0
C745 C 0.83596 0.21821 0.65278 0.0
C746 C 0.79488 0.19085 0.64166 0.0
N747 N 0.82041 0.20224 0.63423 0.0
C748 C 0.84949 0.22585 0.7563 0.0
C749 C 0.84824 0.27607 0.75214 0.0
C750 C 0.87894 0.22642 0.75974 0.0
N751 N 0.83473 0.25043 0.75268 0.0
C752 C 0.87775 0.2776 0.75511 0.0
C753 C 0.89347 0.25252 0.75877 0.0
H754 H 0.83842 0.20566 0.75563 0.0
H755 H 0.83643 0.29534 0.74864 0.0
C756 C 0.7293 0.24882 0.65465 0.0
N757 N 0.75395 0.25608 0.66792 0.0
C758 C 0.72631 0.25278 0.62533 0.0
C759 C 0.77386 0.2723 0.62405 0.0
C760 C 0.77578 0.26826 0.65342 0.0
C761 C 0.74901 0.26414 0.60947 0.0
H762 H 0.71215 0.23945 0.66672 0.0
H763 H 0.79515 0.27387 0.66453 0.0
O764 O 0.77047 0.2289 0.77658 0.0
O765 O 0.72585 0.23348 0.72837 0.0
O766 O 0.77213 0.27845 0.7316 0.0
O767 O 0.78896 0.21712 0.71488 0.0
H768 H 0.79129 0.17738 0.78589 0.0
H769 H 0.79413 0.26482 0.81329 0.0
H770 H 0.82754 0.16584 0.82233 0.0
H771 H 0.83048 0.25178 0.84911 0.0
H772 H 0.67273 0.15963 0.69496 0.0
H773 H 0.68644 0.23362 0.76847 0.0
H774 H 0.71409 0.19235 0.69154 0.0
H775 H 0.64555 0.20019 0.77051 0.0
H776 H 0.70719 0.29119 0.85028 0.0
H777 H 0.6739 0.33224 0.77494 0.0
H778 H 0.78086 0.10835 0.7201 0.0
H779 H 0.7094 0.11942 0.77674 0.0
H780 H 0.78724 0.31792 0.69453 0.0
H781 H 0.77678 0.2999 0.78364 0.0
H782 H 0.80332 0.3667 0.70719 0.0
H783 H 0.7929 0.34895 0.79479 0.0
H784 H 0.83803 0.23631 0.69484 0.0
H785 H 0.76362 0.18652 0.67479 0.0
H786 H 0.85616 0.22702 0.64621 0.0
H787 H 0.783 0.17829 0.62641 0.0
H788 H 0.89032 0.20657 0.76201 0.0
H789 H 0.88822 0.29816 0.75428 0.0
H790 H 0.70651 0.24673 0.6152 0.0
H791 H 0.79207 0.28079 0.61284 0.0
Li792 Li 0.01209 0.54624 0.99698 0.0
Li793 Li 0.04463 0.50744 0.99362 0.0
Li794 Li 0.00811 0.51085 0.95881 0.0
Li795 Li 0.99731 0.49583 0.00874 0.0
C796 C 0.03755 0.55983 0.94645 0.0
N797 N 0.03438 0.60324 0.90694 0.0
C798 C 0.0623 0.57081 0.9342 0.0
C799 C 0.01117 0.57102 0.93864 0.0
C800 C 0.06025 0.59274 0.91426 0.0
C801 C 0.01003 0.59293 0.91862 0.0
C802 C 0.04268 0.52174 0.05079 0.0
C803 C 0.05894 0.50257 0.09548 0.0
N804 N 0.07954 0.52293 0.09656 0.0
C805 C 0.06386 0.5426 0.05242 0.0
C806 C 0.04005 0.50163 0.07253 0.0
C807 C 0.08236 0.54278 0.0757 0.0
C808 C 0.98341 0.59761 0.01256 0.0
N809 N 0.00878 0.58565 0.00591 0.0
C810 C 0.03181 0.63104 0.00752 0.0
C811 C 0.03278 0.60164 0.00363 0.0
C812 C 0.00588 0.64424 0.01399 0.0
C813 C 0.98148 0.62704 0.01678 0.0
H814 H 0.96464 0.58437 0.01418 0.0
H815 H 0.05263 0.5916 0.99801 0.0
C816 C 0.09972 0.50403 0.97288 0.0
N817 N 0.08439 0.49847 0.99674 0.0
C818 C 0.12906 0.49993 0.97259 0.0
C819 C 0.12639 0.48369 0.02127 0.0
C820 C 0.097 0.48773 0.02047 0.0
C821 C 0.14281 0.49013 0.99719 0.0
H822 H 0.08914 0.51188 0.95406 0.0
H823 H 0.08442 0.48233 0.03884 0.0
C824 C 0.95068 0.51531 0.97713 0.0
N825 N 0.89739 0.49504 0.96273 0.0
C826 C 0.94694 0.48673 0.96964 0.0
C827 C 0.92734 0.53358 0.97728 0.0
C828 C 0.91982 0.47689 0.96246 0.0
C829 C 0.90056 0.52293 0.9699 0.0
C830 C 0.03905 0.4543 0.98151 0.0
C831 C 0.05438 0.44545 0.95768 0.0
C832 C 0.0441 0.44158 0.0079 0.0
C833 C 0.07472 0.42408 0.96071 0.0
C834 C 0.06457 0.42024 0.01004 0.0
N835 N 0.07936 0.41204 0.9866 0.0
C836 C 0.02476 0.50292 0.90302 0.0
C837 C 0.97516 0.51063 0.90625 0.0
C838 C 0.02329 0.50263 0.87338 0.0
N839 N 1.00096 0.50693 0.91883 0.0
C840 C 0.97265 0.51009 0.87659 0.0
C841 C 0.99701 0.50642 0.8598 0.0
H842 H 0.04511 0.50083 0.91352 0.0
H843 H 0.95663 0.51491 0.91897 0.0
C844 C 0.96034 0.4846 0.05516 0.0
N845 N 0.97357 0.4727 0.0324 0.0
C846 C 0.9428 0.46805 0.07262 0.0
C847 C 0.95278 0.42736 0.04283 0.0
C848 C 0.97004 0.44469 0.02594 0.0
C849 C 0.93887 0.43896 0.0666 0.0
H850 H 0.96351 0.50696 0.05978 0.0
H851 H 0.98052 0.4358 0.00753 0.0
O852 O 0.03936 0.53828 0.96598 0.0
O853 O 0.02427 0.52122 0.0283 0.0
O854 O 0.97694 0.52542 0.98461 0.0
O855 O 0.01961 0.47572 0.97919 0.0
H856 H 0.08291 0.56254 0.94009 0.0
H857 H 0.99175 0.56295 0.94786 0.0
H858 H 0.07925 0.60142 0.90462 0.0
H859 H 0.98976 0.60174 0.91236 0.0
H860 H 0.05724 0.48708 0.11242 0.0
H861 H 0.06619 0.55826 0.03574 0.0
H862 H 0.02369 0.4854 0.0716 0.0
H863 H 0.09899 0.55868 0.07716 0.0
H864 H 0.05108 0.64335 0.00461 0.0
H865 H 0.96109 0.63621 0.02205 0.0
H866 H 0.14095 0.50517 0.95359 0.0
H867 H 0.13617 0.47558 0.04048 0.0
H868 H 0.96478 0.47234 0.9691 0.0
H869 H 0.92989 0.55577 0.983 0.0
H870 H 0.91662 0.45483 0.95659 0.0
H871 H 0.88231 0.53683 0.9699 0.0
H872 H 0.05073 0.45504 0.93711 0.0
H873 H 0.03269 0.44845 0.02664 0.0
H874 H 0.08685 0.4171 0.94247 0.0
H875 H 0.06884 0.41034 0.03036 0.0
H876 H 0.04256 0.49968 0.86119 0.0
H877 H 0.95207 0.51355 0.86688 0.0
H878 H 0.93275 0.47786 0.09085 0.0
H879 H 0.95004 0.40519 0.03708 0.0
Li880 Li 0.75661 0.7452 0.25816 0.0
Li881 Li 0.74521 0.79487 0.24323 0.0
Li882 Li 0.70901 0.75971 0.24695 0.0
Li883 Li 0.74163 0.7568 0.20809 0.0
C884 C 0.71616 0.76906 0.30104 0.0
N885 N 0.67958 0.75812 0.34569 0.0
C886 C 0.69893 0.79069 0.31182 0.0
C887 C 0.71481 0.74188 0.31304 0.0
C888 C 0.68054 0.78472 0.33436 0.0
C889 C 0.69621 0.73678 0.33561 0.0
C890 C 0.80248 0.77723 0.24031 0.0
C891 C 0.85353 0.78022 0.23687 0.0
N892 N 0.85463 0.79166 0.26345 0.0
C893 C 0.80414 0.789 0.26762 0.0
C894 C 0.82739 0.77276 0.22481 0.0
C895 C 0.83068 0.79616 0.27892 0.0
C896 C 0.79157 0.69748 0.2694 0.0
N897 N 0.78129 0.72201 0.28069 0.0
C898 C 0.8062 0.71359 0.32427 0.0
C899 C 0.78838 0.73039 0.30749 0.0
C900 C 0.8169 0.68787 0.3134 0.0
C901 C 0.80943 0.67998 0.28547 0.0
H902 H 0.78566 0.69138 0.24798 0.0
H903 H 0.78014 0.75014 0.31587 0.0
C904 C 0.7319 0.85087 0.25838 0.0
N905 N 0.753 0.8348 0.24707 0.0
C906 C 0.73472 0.88042 0.26003 0.0
C907 C 0.78072 0.87656 0.23769 0.0
C908 C 0.77707 0.84703 0.23663 0.0
C909 C 0.75934 0.89366 0.24949 0.0
H910 H 0.71248 0.84078 0.26533 0.0
H911 H 0.79318 0.83404 0.22677 0.0
C912 C 0.71072 0.70296 0.23443 0.0
N913 N 0.67279 0.65802 0.23722 0.0
C914 C 0.68813 0.70119 0.21516 0.0
C915 C 0.71416 0.68176 0.25498 0.0
C916 C 0.66913 0.67835 0.21698 0.0
C917 C 0.69473 0.65923 0.25607 0.0
C918 C 0.71576 0.80679 0.19413 0.0
C919 C 0.69103 0.81889 0.18302 0.0
C920 C 0.74212 0.81434 0.18264 0.0
C921 C 0.69311 0.83851 0.1608 0.0
C922 C 0.7433 0.83404 0.16044 0.0
N923 N 0.71898 0.84563 0.15008 0.0
C924 C 0.65324 0.77886 0.24917 0.0
C925 C 0.65768 0.73328 0.2701 0.0
C926 C 0.62402 0.77873 0.25398 0.0
N927 N 0.66938 0.75613 0.25666 0.0
C928 C 0.62844 0.73216 0.27517 0.0
C929 C 0.61116 0.75499 0.26679 0.0
H930 H 0.66311 0.79713 0.23933 0.0
H931 H 0.67089 0.71585 0.27687 0.0
C932 C 0.77193 0.74791 0.15651 0.0
N933 N 0.74576 0.74837 0.16866 0.0
C934 C 0.77466 0.74479 0.12706 0.0
C935 C 0.72351 0.74185 0.12334 0.0
C936 C 0.72176 0.74546 0.15277 0.0
C937 C 0.7502 0.74185 0.11012 0.0
H938 H 0.79062 0.75071 0.1696 0.0
H939 H 0.70121 0.74691 0.16283 0.0
O940 O 0.73382 0.77424 0.2785 0.0
O941 O 0.77675 0.76968 0.22886 0.0
O942 O 0.72967 0.72504 0.23293 0.0
O943 O 0.71393 0.78738 0.21582 0.0
H944 H 0.69959 0.81182 0.30284 0.0
H945 H 0.72758 0.72474 0.30472 0.0
H946 H 0.66702 0.80124 0.34282 0.0
H947 H 0.69485 0.71579 0.34497 0.0
H948 H 0.87296 0.77688 0.2251 0.0
H949 H 0.78519 0.79271 0.27997 0.0
H950 H 0.82658 0.76357 0.20372 0.0
H951 H 0.83224 0.8053 0.30001 0.0
H952 H 0.81172 0.72082 0.34546 0.0
H953 H 0.81688 0.66024 0.27626 0.0
H954 H 0.71742 0.89283 0.26868 0.0
H955 H 0.80002 0.8859 0.22929 0.0
H956 H 0.68503 0.71749 0.19929 0.0
H957 H 0.73154 0.68274 0.27003 0.0
H958 H 0.65142 0.67683 0.20235 0.0
H959 H 0.69706 0.64273 0.27193 0.0
H960 H 0.6704 0.81312 0.19136 0.0
H961 H 0.7615 0.80508 0.19063 0.0
H962 H 0.67413 0.84805 0.15205 0.0
H963 H 0.76357 0.84006 0.15142 0.0
H964 H 0.61154 0.79678 0.24709 0.0
H965 H 0.61947 0.71367 0.28562 0.0
H966 H 0.79562 0.74488 0.11759 0.0
H967 H 0.70416 0.74017 0.11093 0.0
Li968 Li 0.00839 0.49391 0.54751 0.0
Li969 Li 0.01144 0.45804 0.51172 0.0
Li970 Li 0.04748 0.49449 0.51457 0.0
Li971 Li 0.99827 0.50584 0.49603 0.0
C972 C 0.04081 0.45694 0.57075 0.0
N973 N 0.04357 0.44192 0.62759 0.0
C974 C 0.02505 0.4338 0.5809 0.0
C975 C 0.05794 0.47246 0.58961 0.0
C976 C 0.02678 0.42652 0.60967 0.0
C977 C 0.05903 0.46454 0.61824 0.0
C978 C 0.95487 0.46185 0.5172 0.0
C979 C 0.91479 0.44694 0.48867 0.0
N980 N 0.91017 0.42489 0.50682 0.0
C981 C 0.94965 0.43906 0.5356 0.0
C982 C 0.93728 0.46584 0.49353 0.0
C983 C 0.92699 0.42059 0.52997 0.0
C984 C 0.01268 0.5235 0.59981 0.0
N985 N 0.99818 0.50245 0.58615 0.0
C986 C 0.97613 0.48824 0.62974 0.0
C987 C 0.97945 0.48552 0.60031 0.0
C988 C 0.99235 0.50851 0.64464 0.0
C989 C 0.01024 0.52679 0.62922 0.0
H990 H 0.02725 0.53681 0.58812 0.0
H991 H 0.96816 0.46896 0.58905 0.0
C992 C 0.02902 0.40125 0.514 0.0
N993 N 0.00809 0.4179 0.50313 0.0
C994 C 0.02866 0.37188 0.50971 0.0
C995 C 0.98602 0.37719 0.48163 0.0
C996 C 0.98723 0.40654 0.48649 0.0
C997 C 0.00676 0.35937 0.49362 0.0
H998 H 0.04603 0.41078 0.52625 0.0
H999 H 0.97157 0.42018 0.47682 0.0
C1000 C 0.04035 0.5495 0.52117 0.0
N1001 N 0.07821 0.59381 0.51273 0.0
C1002 C 0.03702 0.5678 0.49799 0.0
C1003 C 0.0629 0.55384 0.54014 0.0
C1004 C 0.05637 0.59007 0.49409 0.0
C1005 C 0.08183 0.57631 0.53547 0.0
C1006 C 0.03204 0.46051 0.45981 0.0
C1007 C 0.05717 0.4448 0.46011 0.0
C1008 C 0.01099 0.45432 0.43971 0.0
C1009 C 0.06075 0.4229 0.44032 0.0
C1010 C 0.0154 0.43227 0.42025 0.0
N1011 N 0.03996 0.41713 0.42098 0.0
C1012 C 0.10526 0.4888 0.52823 0.0
C1013 C 0.09717 0.51815 0.48807 0.0
C1014 C 0.13442 0.49366 0.52657 0.0
N1015 N 0.08724 0.50149 0.50957 0.0
C1016 C 0.12636 0.52329 0.48536 0.0
C1017 C 0.14529 0.51123 0.50505 0.0
H1018 H 0.09705 0.47471 0.54434 0.0
H1019 H 0.08241 0.5276 0.47321 0.0
C1020 C 0.95367 0.54304 0.48259 0.0
N1021 N 0.97603 0.52888 0.47114 0.0
C1022 C 0.9364 0.56006 0.46547 0.0
C1023 C 0.96574 0.548 0.42511 0.0
C1024 C 0.98243 0.53113 0.44303 0.0
C1025 C 0.94225 0.56267 0.43625 0.0
H1026 H 0.94922 0.54099 0.50507 0.0
H1027 H 1.00049 0.51981 0.43452 0.0
O1028 O 0.03879 0.46489 0.54275 0.0
O1029 O 0.97678 0.48036 0.52248 0.0
O1030 O 0.02179 0.52735 0.52514 0.0
O1031 O 0.02783 0.48147 0.47952 0.0
H1032 H 0.01131 0.42178 0.56687 0.0
H1033 H 0.0697 0.49091 0.58243 0.0
H1034 H 0.01461 0.40872 0.61778 0.0
H1035 H 0.07198 0.47654 0.63307 0.0
H1036 H 0.90107 0.44976 0.47041 0.0
H1037 H 0.96321 0.43532 0.55376 0.0
H1038 H 0.94101 0.48319 0.47893 0.0
H1039 H 0.92285 0.40278 0.54393 0.0
H1040 H 0.96218 0.47366 0.64087 0.0
H1041 H 0.02281 0.54296 0.63991 0.0
H1042 H 0.04507 0.35907 0.51947 0.0
H1043 H 0.96914 0.36858 0.46847 0.0
H1044 H 0.01973 0.56485 0.4831 0.0
H1045 H 0.0662 0.5396 0.55789 0.0
H1046 H 0.05406 0.60435 0.4762 0.0
H1047 H 0.09952 0.57973 0.54982 0.0
H1048 H 0.07358 0.44928 0.47567 0.0
H1049 H 0.99128 0.4661 0.43944 0.0
H1050 H 0.08001 0.41043 0.44039 0.0
H1051 H 0.99923 0.42709 0.40468 0.0
H1052 H 0.1484 0.48341 0.54172 0.0
H1053 H 0.13401 0.53685 0.46838 0.0
H1054 H 0.91883 0.5713 0.4751 0.0
H1055 H 0.97094 0.5492 0.4027 0.0
Li1056 Li 0.48962 0.54739 0.00657 0.0
Li1057 Li 0.45567 0.50779 0.00838 0.0
Li1058 Li 0.4934 0.51377 0.04526 0.0
Li1059 Li 0.50575 0.49727 0.99595 0.0
C1060 C 0.45052 0.56473 0.04341 0.0
N1061 N 0.42997 0.61818 0.05649 0.0
C1062 C 0.42322 0.5726 0.03484 0.0
C1063 C 0.46722 0.5839 0.05898 0.0
C1064 C 0.41325 0.59975 0.04159 0.0
C1065 C 0.4565 0.61086 0.06527 0.0
C1066 C 0.46678 0.51489 0.9492 0.0
C1067 C 0.45226 0.47988 0.91451 0.0
N1068 N 0.44419 0.50113 0.89664 0.0
C1069 C 0.45849 0.5364 0.93046 0.0
C1070 C 0.46376 0.48642 0.94116 0.0
C1071 C 0.44705 0.52901 0.904 0.0
C1072 C 0.51779 0.6008 0.00203 0.0
N1073 N 0.49317 0.58655 0.99664 0.0
C1074 C 0.47042 0.62958 0.98222 0.0
C1075 C 0.46993 0.60015 0.98622 0.0
C1076 C 0.49527 0.645 0.98842 0.0
C1077 C 0.51937 0.63021 0.99788 0.0
H1078 H 0.53595 0.58945 0.01026 0.0
H1079 H 0.45069 0.58823 0.98196 0.0
C1080 C 0.40326 0.4793 0.01977 0.0
N1081 N 0.41639 0.49838 0.00244 0.0
C1082 C 0.37401 0.47479 0.01785 0.0
C1083 C 0.37198 0.50995 0.98051 0.0
C1084 C 0.40138 0.51349 0.9829 0.0
C1085 C 0.35777 0.49062 0.99842 0.0
H1086 H 0.41516 0.46824 0.03585 0.0
H1087 H 0.412 0.52935 0.97009 0.0
C1088 C 0.5481 0.52735 0.03683 0.0
N1089 N 0.59509 0.52619 0.07211 0.0
C1090 C 0.56792 0.50543 0.03438 0.0
C1091 C 0.55229 0.54882 0.05705 0.0
C1092 C 0.59153 0.5052 0.05244 0.0
C1093 C 0.57613 0.54779 0.07476 0.0
C1094 C 0.47026 0.45292 0.03253 0.0
C1095 C 0.46329 0.44772 0.06097 0.0
C1096 C 0.46521 0.43184 0.01209 0.0
C1097 C 0.45107 0.42163 0.06842 0.0
C1098 C 0.45294 0.40604 0.02039 0.0
N1099 N 0.44616 0.40152 0.04815 0.0
C1100 C 0.48011 0.52205 0.10225 0.0
C1101 C 0.52215 0.4951 0.09667 0.0
C1102 C 0.48204 0.52003 0.13173 0.0
N1103 N 0.50006 0.5099 0.08533 0.0
C1104 C 0.52504 0.49269 0.12625 0.0
C1105 C 0.50465 0.50513 0.14416 0.0
H1106 H 0.46231 0.53301 0.09287 0.0
H1107 H 0.5373 0.48486 0.08283 0.0
C1108 C 0.54054 0.48473 0.94858 0.0
N1109 N 0.52967 0.4739 0.97308 0.0
C1110 C 0.55786 0.46799 0.9312 0.0
C1111 C 0.55239 0.42926 0.96456 0.0
C1112 C 0.53533 0.4468 0.98138 0.0
C1113 C 0.56391 0.43979 0.93906 0.0
H1114 H 0.53563 0.50636 0.94249 0.0
H1115 H 0.52668 0.43884 1.00113 0.0
O1116 O 0.4609 0.53844 0.03652 0.0
O1117 O 0.47791 0.5218 0.97521 0.0
O1118 O 0.52484 0.52791 0.01936 0.0
O1119 O 0.48225 0.47836 0.02487 0.0
H1120 H 0.40993 0.558 0.02296 0.0
H1121 H 0.48832 0.57808 0.06591 0.0
H1122 H 0.39222 0.60619 0.03494 0.0
H1123 H 0.46929 0.62598 0.07708 0.0
H1124 H 0.44978 0.45791 0.90802 0.0
H1125 H 0.46081 0.55857 0.93634 0.0
H1126 H 0.47028 0.46959 0.95531 0.0
H1127 H 0.44045 0.54543 0.88932 0.0
H1128 H 0.45149 0.64022 0.97464 0.0
H1129 H 0.53887 0.64141 0.00302 0.0
H1130 H 0.36419 0.4594 0.03191 0.0
H1131 H 0.36042 0.52314 0.96562 0.0
H1132 H 0.56508 0.48871 0.01879 0.0
H1133 H 0.53722 0.56599 0.05916 0.0
H1134 H 0.607 0.48831 0.05086 0.0
H1135 H 0.57955 0.56417 0.09061 0.0
H1136 H 0.46696 0.46372 0.07711 0.0
H1137 H 0.47075 0.43525 0.99007 0.0
H1138 H 0.44543 0.4174 0.09033 0.0
H1139 H 0.44884 0.38959 0.00477 0.0
H1140 H 0.46596 0.53013 0.14469 0.0
H1141 H 0.54259 0.48069 0.13499 0.0
H1142 H 0.56605 0.47689 0.91161 0.0
H1143 H 0.55681 0.4078 0.97165 0.0
Li1144 Li 0.75865 0.79678 0.76207 0.0
Li1145 Li 0.76289 0.75722 0.7965 0.0
Li1146 Li 0.79805 0.7637 0.75796 0.0
Li1147 Li 0.74892 0.74734 0.748 0.0
C1148 C 0.79506 0.81513 0.80137 0.0
N1149 N 0.80466 0.86871 0.82375 0.0
C1150 C 0.78477 0.82208 0.82837 0.0
C1151 C 0.81044 0.83532 0.78585 0.0
C1152 C 0.78983 0.84931 0.83929 0.0
C1153 C 0.81497 0.86233 0.79749 0.0
C1154 C 0.70083 0.76545 0.7717 0.0
C1155 C 0.66027 0.73413 0.77465 0.0
N1156 N 0.64475 0.75311 0.75936 0.0
C1157 C 0.68447 0.78476 0.7562 0.0
C1158 C 0.68865 0.74003 0.7812 0.0
C1159 C 0.65615 0.77809 0.75013 0.0
C1160 C 0.75493 0.84945 0.73338 0.0
N1161 N 0.74854 0.83584 0.75803 0.0
C1162 C 0.73349 0.8795 0.7793 0.0
C1163 C 0.73722 0.85003 0.78052 0.0
C1164 C 0.74113 0.89442 0.75452 0.0
C1165 C 0.75129 0.87882 0.7311 0.0
H1166 H 0.7635 0.8376 0.71567 0.0
H1167 H 0.73216 0.8386 0.79983 0.0
C1168 C 0.78329 0.74012 0.85012 0.0
N1169 N 0.75957 0.74826 0.83585 0.0
C1170 C 0.78254 0.73603 0.87951 0.0
C1171 C 0.7331 0.74963 0.87918 0.0
C1172 C 0.73467 0.75287 0.84965 0.0
C1173 C 0.75735 0.74135 0.89465 0.0
H1174 H 0.80305 0.73748 0.83878 0.0
H1175 H 0.71632 0.76009 0.83787 0.0
C1176 C 0.78785 0.77641 0.7036 0.0
N1177 N 0.82203 0.77482 0.65591 0.0
C1178 C 0.78481 0.75438 0.6838 0.0
C1179 C 0.80819 0.79769 0.69911 0.0
C1180 C 0.8023 0.75396 0.65981 0.0
C1181 C 0.82531 0.79647 0.6749 0.0
C1182 C 0.78562 0.70573 0.78733 0.0
C1183 C 0.81403 0.69972 0.79344 0.0
C1184 C 0.76411 0.6891 0.79939 0.0
C1185 C 0.82045 0.6773 0.81184 0.0
C1186 C 0.7714 0.6669 0.81771 0.0
N1187 N 0.79918 0.66152 0.82352 0.0
C1188 C 0.8551 0.77421 0.76932 0.0
C1189 C 0.84886 0.74616 0.72787 0.0
C1190 C 0.88447 0.77389 0.76593 0.0
N1191 N 0.83789 0.76089 0.75022 0.0
C1192 C 0.87828 0.74545 0.7235 0.0
C1193 C 0.89653 0.75968 0.7426 0.0
H1194 H 0.84605 0.7849 0.78749 0.0
H1195 H 0.83484 0.73502 0.71338 0.0
C1196 C 0.70694 0.7362 0.70599 0.0
N1197 N 0.72557 0.72373 0.72422 0.0
C1198 C 0.68925 0.71952 0.68876 0.0
C1199 C 0.711 0.67744 0.70855 0.0
C1200 C 0.72801 0.69494 0.72568 0.0
C1201 C 0.69116 0.68971 0.6899 0.0
H1202 H 0.70583 0.75915 0.70484 0.0
H1203 H 0.7432 0.68554 0.7401 0.0
O1204 O 0.78986 0.78878 0.79004 0.0
O1205 O 0.72868 0.77141 0.77751 0.0
O1206 O 0.77095 0.77719 0.72722 0.0
O1207 O 0.77891 0.72767 0.76949 0.0
H1208 H 0.7728 0.80673 0.84065 0.0
H1209 H 0.8185 0.83026 0.76491 0.0
H1210 H 0.78188 0.85505 0.8601 0.0
H1211 H 0.82664 0.87825 0.78563 0.0
H1212 H 0.6506 0.71445 0.7817 0.0
H1213 H 0.69363 0.80455 0.74874 0.0
H1214 H 0.70102 0.72496 0.79336 0.0
H1215 H 0.64324 0.79274 0.73801 0.0
H1216 H 0.72578 0.89055 0.79796 0.0
H1217 H 0.75678 0.88923 0.71131 0.0
H1218 H 0.8017 0.72918 0.89021 0.0
H1219 H 0.71334 0.75459 0.88979 0.0
H1220 H 0.76923 0.73771 0.68694 0.0
H1221 H 0.81094 0.81479 0.71432 0.0
H1222 H 0.80024 0.73701 0.64433 0.0
H1223 H 0.84124 0.8127 0.67123 0.0
H1224 H 0.83095 0.71231 0.78422 0.0
H1225 H 0.74203 0.69343 0.79479 0.0
H1226 H 0.84234 0.67248 0.81688 0.0
H1227 H 0.75498 0.65396 0.82732 0.0
H1228 H 0.8976 0.78437 0.78176 0.0
H1229 H 0.88658 0.73416 0.70525 0.0
H1230 H 0.67454 0.72984 0.67438 0.0
H1231 H 0.71306 0.65455 0.71018 0.0
Li1232 Li 0.75382 0.25699 0.24696 0.0
Li1233 Li 0.70692 0.24163 0.25915 0.0
Li1234 Li 0.7415 0.24664 0.29676 0.0
Li1235 Li 0.74428 0.20631 0.26122 0.0
C1236 C 0.73551 0.30336 0.27979 0.0
N1237 N 0.75533 0.35662 0.2952 0.0
C1238 C 0.71851 0.32733 0.27574 0.0
C1239 C 0.76249 0.30644 0.29183 0.0
C1240 C 0.72894 0.35409 0.28361 0.0
C1241 C 0.77216 0.33354 0.29945 0.0
C1242 C 0.72127 0.23745 0.20139 0.0
C1243 C 0.71346 0.23132 0.15103 0.0
N1244 N 0.70276 0.25813 0.14961 0.0
C1245 C 0.71011 0.2649 0.19947 0.0
C1246 C 0.72292 0.22047 0.17703 0.0
C1247 C 0.70092 0.27499 0.17308 0.0
C1248 C 0.80195 0.26965 0.21301 0.0
N1249 N 0.77693 0.28031 0.22262 0.0
C1250 C 0.78551 0.32426 0.19833 0.0
C1251 C 0.76835 0.30695 0.21534 0.0
C1252 C 0.81174 0.31406 0.18848 0.0
C1253 C 0.81978 0.28623 0.19588 0.0
H1254 H 0.8082 0.24833 0.21892 0.0
H1255 H 0.74812 0.31483 0.22267 0.0
C1256 C 0.65243 0.26468 0.26723 0.0
N1257 N 0.66732 0.2455 0.25163 0.0
C1258 C 0.62293 0.26624 0.26459 0.0
C1259 C 0.62476 0.2288 0.2293 0.0
C1260 C 0.65422 0.22792 0.23268 0.0
C1261 C 0.60864 0.24791 0.24565 0.0
H1262 H 0.66343 0.27811 0.28241 0.0
H1263 H 0.66658 0.21266 0.22076 0.0
C1264 C 0.80119 0.2287 0.28533 0.0
N1265 N 0.85481 0.21996 0.30769 0.0
C1266 C 0.80793 0.20276 0.29816 0.0
C1267 C 0.82186 0.25009 0.2836 0.0
C1268 C 0.83511 0.19879 0.30943 0.0
C1269 C 0.8488 0.24529 0.29511 0.0
C1270 C 0.68903 0.20379 0.29612 0.0
C1271 C 0.67233 0.21622 0.31727 0.0
C1272 C 0.67818 0.1811 0.28013 0.0
C1273 C 0.64486 0.20588 0.32191 0.0
C1274 C 0.65062 0.17136 0.28544 0.0
N1275 N 0.63466 0.18388 0.30601 0.0
C1276 C 0.72562 0.27206 0.3483 0.0
C1277 C 0.76769 0.2448 0.35192 0.0
C1278 C 0.72574 0.27701 0.37762 0.0
N1279 N 0.74616 0.25585 0.33615 0.0
C1280 C 0.76881 0.24945 0.38126 0.0
C1281 C 0.74736 0.26531 0.39454 0.0
H1282 H 0.70864 0.28047 0.33528 0.0
H1283 H 0.78353 0.23164 0.34201 0.0
C1284 C 0.76261 0.15563 0.2327 0.0
N1285 N 0.75306 0.16705 0.25748 0.0
C1286 C 0.76703 0.12625 0.23052 0.0
C1287 C 0.75194 0.12122 0.2794 0.0
C1288 C 0.74784 0.15056 0.28063 0.0
C1289 C 0.76152 0.1086 0.25407 0.0
H1290 H 0.76643 0.16928 0.21457 0.0
H1291 H 0.74005 0.16023 0.29998 0.0
O1292 O 0.72557 0.2771 0.27194 0.0
O1293 O 0.73018 0.22692 0.22701 0.0
O1294 O 0.77477 0.23283 0.27386 0.0
O1295 O 0.71564 0.21419 0.29063 0.0
H1296 H 0.69754 0.32526 0.26645 0.0
H1297 H 0.77572 0.2881 0.29544 0.0
H1298 H 0.71606 0.37285 0.2805 0.0
H1299 H 0.79302 0.33622 0.30879 0.0
H1300 H 0.7146 0.21841 0.13199 0.0
H1301 H 0.7084 0.27825 0.21814 0.0
H1302 H 0.73138 0.19911 0.17822 0.0
H1303 H 0.69225 0.2962 0.17127 0.0
H1304 H 0.77815 0.34533 0.19273 0.0
H1305 H 0.83988 0.27751 0.18896 0.0
H1306 H 0.6114 0.28099 0.27794 0.0
H1307 H 0.61471 0.21451 0.21421 0.0
H1308 H 0.79226 0.18598 0.29974 0.0
H1309 H 0.81726 0.27017 0.2734 0.0
H1310 H 0.84053 0.17887 0.31957 0.0
H1311 H 0.86496 0.26168 0.29397 0.0
H1312 H 0.68036 0.23385 0.32976 0.0
H1313 H 0.69072 0.17144 0.26346 0.0
H1314 H 0.63161 0.21542 0.33808 0.0
H1315 H 0.64186 0.15397 0.27308 0.0
H1316 H 0.70892 0.28955 0.38701 0.0
H1317 H 0.78566 0.23974 0.39357 0.0
H1318 H 0.77464 0.11748 0.21064 0.0
H1319 H 0.74689 0.1085 0.29793 0.0
Li1320 Li 0.50534 0.50897 0.50823 0.0
Li1321 Li 0.49347 0.49267 0.45808 0.0
Li1322 Li 0.45711 0.49746 0.49374 0.0
Li1323 Li 0.4894 0.45786 0.49703 0.0
C1324 C 0.46347 0.54978 0.47809 0.0
N1325 N 0.42288 0.59203 0.47819 0.0
C1326 C 0.447 0.55462 0.45382 0.0
C1327 C 0.45945 0.56648 0.50236 0.0
C1328 C 0.42653 0.57606 0.45432 0.0
C1329 C 0.4388 0.58775 0.50199 0.0
C1330 C 0.54982 0.47745 0.47086 0.0
C1331 C 0.58384 0.45255 0.44178 0.0
N1332 N 0.60169 0.47533 0.44349 0.0
C1333 C 0.56858 0.50054 0.47248 0.0
C1334 C 0.55759 0.45316 0.45556 0.0
C1335 C 0.59468 0.49908 0.45846 0.0
C1336 C 0.53979 0.52144 0.55615 0.0
N1337 N 0.52964 0.53206 0.53127 0.0
C1338 C 0.55406 0.57611 0.5392 0.0
C1339 C 0.53639 0.55881 0.52255 0.0
C1340 C 0.56475 0.56589 0.56523 0.0
C1341 C 0.55732 0.53808 0.5736 0.0
H1342 H 0.53399 0.50009 0.56259 0.0
H1343 H 0.52817 0.56665 0.50254 0.0
C1344 C 0.47647 0.49365 0.40172 0.0
N1345 N 0.5001 0.49707 0.41806 0.0
C1346 C 0.47815 0.49535 0.37217 0.0
C1347 C 0.52844 0.50482 0.37651 0.0
C1348 C 0.52576 0.50299 0.40611 0.0
C1349 C 0.50441 0.50089 0.35912 0.0
H1350 H 0.45624 0.48935 0.41171 0.0
H1351 H 0.54415 0.50641 0.41935 0.0
C1352 C 0.45958 0.48627 0.5508 0.0
N1353 N 0.42281 0.49093 0.59629 0.0
C1354 C 0.43765 0.46647 0.55431 0.0
C1355 C 0.46293 0.50836 0.5705 0.0
C1356 C 0.41922 0.46924 0.5774 0.0
C1357 C 0.4441 0.51035 0.59336 0.0
C1358 C 0.45678 0.44192 0.45158 0.0
C1359 C 0.43027 0.42855 0.45343 0.0
C1360 C 0.47806 0.42984 0.43483 0.0
C1361 C 0.42555 0.40319 0.43858 0.0
C1362 C 0.47251 0.40447 0.42027 0.0
N1363 N 0.44659 0.39177 0.42245 0.0
C1364 C 0.40136 0.49991 0.47397 0.0
C1365 C 0.40586 0.52073 0.51968 0.0
C1366 C 0.37211 0.50454 0.47404 0.0
N1367 N 0.41753 0.50736 0.49683 0.0
C1368 C 0.37658 0.52542 0.52083 0.0
C1369 C 0.3593 0.51694 0.49793 0.0
H1370 H 0.4112 0.49014 0.45566 0.0
H1371 H 0.41913 0.5277 0.53708 0.0
C1372 C 0.51971 0.4067 0.50799 0.0
N1373 N 0.49348 0.41854 0.50625 0.0
C1374 C 0.5226 0.37731 0.51162 0.0
C1375 C 0.47144 0.37307 0.51255 0.0
C1376 C 0.46958 0.40249 0.50909 0.0
C1377 C 0.49822 0.35997 0.51341 0.0
H1378 H 0.5384 0.41999 0.50603 0.0
H1379 H 0.44898 0.4124 0.50775 0.0
O1380 O 0.48295 0.52831 0.47834 0.0
O1381 O 0.52425 0.47845 0.4846 0.0
O1382 O 0.47797 0.48384 0.52847 0.0
O1383 O 0.46194 0.46646 0.4665 0.0
H1384 H 0.44978 0.54174 0.43493 0.0
H1385 H 0.47186 0.56278 0.5214 0.0
H1386 H 0.41349 0.57994 0.43576 0.0
H1387 H 0.43531 0.60074 0.52067 0.0
H1388 H 0.59007 0.43394 0.42978 0.0
H1389 H 0.56298 0.51949 0.48422 0.0
H1390 H 0.54356 0.43491 0.45438 0.0
H1391 H 0.60933 0.51685 0.45942 0.0
H1392 H 0.55953 0.59714 0.53152 0.0
H1393 H 0.56459 0.52935 0.59362 0.0
H1394 H 0.4591 0.4919 0.35965 0.0
H1395 H 0.549 0.50959 0.36736 0.0
H1396 H 0.43469 0.44935 0.5392 0.0
H1397 H 0.47971 0.52395 0.56805 0.0
H1398 H 0.40204 0.45416 0.58029 0.0
H1399 H 0.44637 0.52739 0.60871 0.0
H1400 H 0.41363 0.43745 0.46654 0.0
H1401 H 0.49862 0.43993 0.43309 0.0
H1402 H 0.40519 0.39253 0.43996 0.0
H1403 H 0.48881 0.39488 0.40726 0.0
H1404 H 0.35955 0.49771 0.45593 0.0
H1405 H 0.36755 0.53557 0.53942 0.0
H1406 H 0.54369 0.36828 0.51271 0.0
H1407 H 0.45204 0.36066 0.51347 0.0
H1408 H 0.16285 0.20398 0.13704 0.0
H1409 H 0.16785 0.1361 0.19872 0.0
H1410 H 0.13298 0.17405 0.10668 0.0
H1411 H 0.13872 0.10592 0.16801 0.0
H1412 H 0.06098 0.07155 0.11951 0.0
H1413 H 0.08999 0.10183 0.15022 0.0
H1414 H 0.1369 0.13129 0.07701 0.0
H1415 H 0.10813 0.10082 0.04629 0.0
C1416 C 0.1575 0.18272 0.14418 0.0
C1417 C 0.16778 0.17245 0.17032 0.0
C1418 C 0.14063 0.16545 0.12663 0.0
C1419 C 0.13349 0.13755 0.13486 0.0
C1420 C 0.14358 0.12738 0.16112 0.0
C1421 C 0.16055 0.14459 0.17859 0.0
C1422 C 0.07768 0.08423 0.10996 0.0
C1423 C 0.08216 0.08368 0.08036 0.0
C1424 C 0.09429 0.10165 0.12759 0.0
C1425 C 0.11576 0.11904 0.11609 0.0
C1426 C 0.12025 0.11851 0.08652 0.0
C1427 C 0.10371 0.10102 0.0689 0.0
H1428 H 0.05109 0.88825 0.41061 0.0
H1429 H 0.11688 0.9524 0.41433 0.0
H1430 H 0.08103 0.85894 0.38027 0.0
H1431 H 0.14724 0.92284 0.38454 0.0
H1432 H 0.18509 0.87491 0.30961 0.0
H1433 H 0.15377 0.9048 0.33782 0.0
H1434 H 0.12211 0.83022 0.38138 0.0
H1435 H 0.15204 0.80024 0.35196 0.0
C1436 C 0.07208 0.89597 0.40512 0.0
C1437 C 0.08162 0.92263 0.41492 0.0
C1438 C 0.08933 0.87913 0.38777 0.0
C1439 C 0.1167 0.88838 0.37995 0.0
C1440 C 0.12616 0.91516 0.38968 0.0
C1441 C 0.10878 0.93211 0.40685 0.0
C1442 C 0.17114 0.86481 0.32488 0.0
C1443 C 0.17118 0.83506 0.3284 0.0
C1444 C 0.15342 0.88204 0.3414 0.0
C1445 C 0.13536 0.87003 0.36203 0.0
C1446 C 0.1354 0.84029 0.3655 0.0
C1447 C 0.15295 0.82306 0.34886 0.0
H1448 H 0.39414 0.95839 0.59818 0.0
H1449 H 0.4415 0.88411 0.57264 0.0
H1450 H 0.36474 0.92878 0.62919 0.0
H1451 H 0.4117 0.85445 0.60304 0.0
H1452 H 0.37279 0.81597 0.68385 0.0
H1453 H 0.40249 0.84602 0.6538 0.0
H1454 H 0.32809 0.89126 0.62521 0.0
H1455 H 0.29827 0.86098 0.65493 0.0
C1456 C 0.39834 0.93577 0.59925 0.0
C1457 C 0.42015 0.92362 0.5829 0.0
C1458 C 0.38131 0.91876 0.6168 0.0
C1459 C 0.38584 0.88923 0.61856 0.0
C1460 C 0.40779 0.87714 0.60237 0.0
C1461 C 0.42469 0.89411 0.58472 0.0
C1462 C 0.36268 0.8321 0.67094 0.0
C1463 C 0.33306 0.83594 0.67184 0.0
C1464 C 0.37974 0.84938 0.65375 0.0
C1465 C 0.36768 0.87105 0.63709 0.0
C1466 C 0.33811 0.87504 0.63808 0.0
C1467 C 0.32101 0.85766 0.65518 0.0
H1468 H 0.38059 0.06308 0.93212 0.0
H1469 H 0.45474 0.10944 0.90395 0.0
H1470 H 0.35061 0.093 0.90235 0.0
H1471 H 0.42478 0.13965 0.87445 0.0
H1472 H 0.36687 0.16937 0.80273 0.0
H1473 H 0.39643 0.13902 0.8323 0.0
H1474 H 0.33232 0.14011 0.89796 0.0
H1475 H 0.30203 0.16909 0.86771 0.0
C1476 C 0.39046 0.07987 0.91979 0.0
C1477 C 0.42008 0.08383 0.92041 0.0
C1478 C 0.37326 0.09708 0.90272 0.0
C1479 C 0.38521 0.11881 0.88592 0.0
C1480 C 0.41484 0.12284 0.88668 0.0
C1481 C 0.43205 0.10553 0.90365 0.0
C1482 C 0.35885 0.16285 0.8233 0.0
C1483 C 0.33193 0.1717 0.8327 0.0
C1484 C 0.37604 0.14573 0.84048 0.0
C1485 C 0.36687 0.1371 0.86762 0.0
C1486 C 0.33999 0.14602 0.87707 0.0
C1487 C 0.32274 0.16302 0.85983 0.0
H1488 H 0.6754 0.37091 0.80794 0.0
H1489 H 0.65907 0.29975 0.86381 0.0
H1490 H 0.64504 0.40083 0.83717 0.0
H1491 H 0.62995 0.33007 0.89389 0.0
H1492 H 0.55557 0.38384 0.92486 0.0
H1493 H 0.58521 0.35378 0.89491 0.0
H1494 H 0.64329 0.42409 0.88234 0.0
H1495 H 0.61334 0.45423 0.91193 0.0
C1496 C 0.66533 0.36159 0.82644 0.0
C1497 C 0.6697 0.33282 0.8334 0.0
C1498 C 0.64819 0.3789 0.84346 0.0
C1499 C 0.63501 0.36796 0.86799 0.0
C1500 C 0.63944 0.3392 0.87499 0.0
C1501 C 0.6565 0.32187 0.85792 0.0
C1502 C 0.57477 0.39282 0.91584 0.0
C1503 C 0.58208 0.42145 0.9208 0.0
C1504 C 0.59183 0.37556 0.89869 0.0
C1505 C 0.61674 0.38642 0.88617 0.0
C1506 C 0.62404 0.41508 0.89119 0.0
C1507 C 0.60689 0.43238 0.90822 0.0
H1508 H 0.94847 0.38431 0.08441 0.0
H1509 H 0.88738 0.45239 0.09017 0.0
H1510 H 0.91807 0.35434 0.11383 0.0
H1511 H 0.85685 0.42237 0.11947 0.0
H1512 H 0.82316 0.37093 0.19499 0.0
H1513 H 0.85383 0.40101 0.16596 0.0
H1514 H 0.87358 0.32885 0.11258 0.0
H1515 H 0.84301 0.29874 0.14173 0.0
C1516 C 0.92843 0.39282 0.09176 0.0
C1517 C 0.92038 0.42078 0.08487 0.0
C1518 C 0.91096 0.3756 0.10862 0.0
C1519 C 0.88493 0.38586 0.11903 0.0
C1520 C 0.87693 0.41387 0.11222 0.0
C1521 C 0.89444 0.43112 0.09539 0.0
C1522 C 0.83386 0.36152 0.17692 0.0
C1523 C 0.83056 0.33239 0.1707 0.0
C1524 C 0.85146 0.37879 0.16024 0.0
C1525 C 0.86622 0.36742 0.13686 0.0
C1526 C 0.86293 0.33827 0.13067 0.0
C1527 C 0.84537 0.32098 0.14739 0.0
H1528 H 0.88426 0.56723 0.43694 0.0
H1529 H 0.95869 0.59869 0.39333 0.0
H1530 H 0.85427 0.59705 0.40713 0.0
H1531 H 0.92867 0.62864 0.36353 0.0
H1532 H 0.86381 0.65753 0.2968 0.0
H1533 H 0.89367 0.6267 0.32581 0.0
H1534 H 0.84265 0.64633 0.39954 0.0
H1535 H 0.8121 0.67612 0.37032 0.0
C1536 C 0.89427 0.58069 0.42114 0.0
C1537 C 0.92393 0.5806 0.41763 0.0
C1538 C 0.87704 0.59782 0.40403 0.0
C1539 C 0.88901 0.61537 0.38295 0.0
C1540 C 0.91867 0.61512 0.37927 0.0
C1541 C 0.9359 0.59794 0.39638 0.0
C1542 C 0.85877 0.65504 0.31913 0.0
C1543 C 0.83548 0.66934 0.33116 0.0
C1544 C 0.87612 0.63761 0.33587 0.0
C1545 C 0.87062 0.63399 0.36506 0.0
C1546 C 0.84735 0.64832 0.37708 0.0
C1547 C 0.83002 0.66574 0.36036 0.0
H1548 H 0.56161 0.62363 0.57416 0.0
H1549 H 0.61035 0.54959 0.59794 0.0
H1550 H 0.59248 0.65339 0.60324 0.0
H1551 H 0.64002 0.57907 0.62853 0.0
H1552 H 0.70643 0.64341 0.65818 0.0
H1553 H 0.67626 0.61388 0.62786 0.0
H1554 H 0.60365 0.66503 0.65081 0.0
H1555 H 0.63412 0.69497 0.68041 0.0
C1556 C 0.5789 0.61363 0.58555 0.0
C1557 C 0.58342 0.58411 0.58353 0.0
C1558 C 0.5964 0.6307 0.60265 0.0
C1559 C 0.6188 0.61873 0.61842 0.0
C1560 C 0.62326 0.58919 0.61647 0.0
C1561 C 0.60591 0.57215 0.59919 0.0
C1562 C 0.68399 0.64823 0.6568 0.0
C1563 C 0.67266 0.67153 0.67165 0.0
C1564 C 0.66662 0.63124 0.63949 0.0
C1565 C 0.63739 0.63695 0.6368 0.0
C1566 C 0.6261 0.66023 0.65185 0.0
C1567 C 0.64354 0.67738 0.66893 0.0
H1568 H 0.22597 0.20632 0.42764 0.0
H1569 H 0.28468 0.27723 0.43128 0.0
H1570 H 0.2236 0.20592 0.47943 0.0
H1571 H 0.28389 0.27547 0.48277 0.0
H1572 H 0.25374 0.28726 0.57288 0.0
H1573 H 0.25417 0.28685 0.52113 0.0
H1574 H 0.24921 0.19492 0.52173 0.0
H1575 H 0.24781 0.19559 0.57377 0.0
C1576 C 0.23845 0.22176 0.43941 0.0
C1577 C 0.25548 0.24183 0.42511 0.0
C1578 C 0.23739 0.22127 0.46918 0.0
C1579 C 0.25347 0.24072 0.48541 0.0
C1580 C 0.27081 0.26047 0.47108 0.0
C1581 C 0.27164 0.26115 0.4414 0.0
C1582 C 0.25288 0.26697 0.56191 0.0
C1583 C 0.25102 0.24144 0.57731 0.0
C1584 C 0.25322 0.26668 0.53222 0.0
C1585 C 0.25206 0.24082 0.51711 0.0
C1586 C 0.24984 0.21525 0.53258 0.0
C1587 C 0.24916 0.21558 0.56238 0.0
H1588 H 0.00216 0.04757 0.82176 0.0
H1589 H 0.01372 0.95634 0.82041 0.0
H1590 H 0.0023 0.04821 0.76987 0.0
H1591 H 0.01446 0.9572 0.76855 0.0
H1592 H 0.04157 0.97526 0.67598 0.0
H1593 H 0.04376 0.97534 0.72802 0.0
H1594 H 0.97084 0.03074 0.73089 0.0
H1595 H 0.96894 0.03103 0.679 0.0
C1596 C 0.00467 0.02764 0.81046 0.0
C1597 C 0.00786 0.00189 0.82536 0.0
C1598 C 0.0048 0.02804 0.78071 0.0
C1599 C 0.00834 0.00275 0.76514 0.0
C1600 C 0.01205 0.97708 0.77996 0.0
C1601 C 0.01171 0.97664 0.80971 0.0
C1602 C 0.02615 0.98759 0.68776 0.0
C1603 C 0.00503 0.00306 0.67342 0.0
C1604 C 0.02726 0.98746 0.71752 0.0
C1605 C 0.00747 0.00305 0.73353 0.0
C1606 C 0.98653 0.01872 0.71915 0.0
C1607 C 0.98527 0.01865 0.68945 0.0
H1608 H 0.20619 0.77477 0.93244 0.0
H1609 H 0.29697 0.76256 0.9276 0.0
H1610 H 0.20912 0.77539 0.98426 0.0
H1611 H 0.30003 0.76429 0.97935 0.0
H1612 H 0.28857 0.73022 0.06994 0.0
H1613 H 0.28627 0.73333 0.01834 0.0
H1614 H 0.2266 0.80262 0.02507 0.0
H1615 H 0.22895 0.79953 0.07694 0.0
C1616 C 0.2268 0.77243 0.94243 0.0
C1617 C 0.25132 0.76841 0.92586 0.0
C1618 C 0.22851 0.77309 0.97213 0.0
C1619 C 0.25478 0.76972 0.98597 0.0
C1620 C 0.2794 0.76655 0.96937 0.0
C1621 C 0.2777 0.76591 0.93968 0.0
C1622 C 0.27523 0.74639 0.06047 0.0
C1623 C 0.25907 0.76475 0.07761 0.0
C1624 C 0.27392 0.74818 0.03085 0.0
C1625 C 0.2564 0.76835 0.01755 0.0
C1626 C 0.24012 0.78666 0.03465 0.0
C1627 C 0.24144 0.78488 0.06436 0.0
H1628 H 0.44619 0.00549 0.32445 0.0
H1629 H 0.5378 0.00318 0.32091 0.0
H1630 H 0.44418 0.00716 0.27244 0.0
H1631 H 0.5358 0.00437 0.26903 0.0
H1632 H 0.5225 0.0367 0.17854 0.0
H1633 H 0.52223 0.03797 0.2305 0.0
H1634 H 0.45512 0.97504 0.23151 0.0
H1635 H 0.45504 0.97413 0.17951 0.0
C1636 C 0.46586 0.00536 0.31255 0.0
C1637 C 0.49214 0.00407 0.32673 0.0
C1638 C 0.46471 0.00613 0.2828 0.0
C1639 C 0.48983 0.00595 0.26666 0.0
C1640 C 0.51609 0.00483 0.28089 0.0
C1641 C 0.51723 0.00381 0.31057 0.0
C1642 C 0.50739 0.02347 0.18985 0.0
C1643 C 0.4888 0.0053 0.17495 0.0
C1644 C 0.50745 0.02397 0.21959 0.0
C1645 C 0.48876 0.00649 0.23508 0.0
C1646 C 0.46964 0.98888 0.22017 0.0
C1647 C 0.46975 0.98821 0.19042 0.0
H1648 H 0.42957 0.21097 0.27023 0.0
H1649 H 0.42921 0.28665 0.21808 0.0
H1650 H 0.48125 0.21064 0.26919 0.0
H1651 H 0.48087 0.28547 0.21583 0.0
H1652 H 0.57302 0.29395 0.2466 0.0
H1653 H 0.52128 0.29393 0.24598 0.0
H1654 H 0.52103 0.20224 0.23856 0.0
H1655 H 0.57271 0.20216 0.24062 0.0
C1656 C 0.44049 0.22748 0.25844 0.0
C1657 C 0.42516 0.24889 0.24433 0.0
C1658 C 0.47016 0.22709 0.25754 0.0
C1659 C 0.48529 0.24803 0.24241 0.0
C1660 C 0.46995 0.2692 0.22796 0.0
C1661 C 0.44027 0.26965 0.22893 0.0
C1662 C 0.56193 0.27376 0.24503 0.0
C1663 C 0.57707 0.24806 0.24373 0.0
C1664 C 0.53224 0.27377 0.24432 0.0
C1665 C 0.51693 0.24808 0.24222 0.0
C1666 C 0.53209 0.2224 0.24053 0.0
C1667 C 0.56178 0.22239 0.24132 0.0
H1668 H 0.05061 0.32215 0.48464 0.0
H1669 H 0.9595 0.32527 0.49498 0.0
H1670 H 0.0485 0.27034 0.48321 0.0
H1671 H 0.95725 0.27353 0.49225 0.0
H1672 H 0.96831 0.18225 0.52379 0.0
H1673 H 0.97016 0.23395 0.52211 0.0
H1674 H 0.03291 0.22975 0.45527 0.0
H1675 H 0.03114 0.17778 0.45708 0.0
C1676 C 0.0301 0.3118 0.48644 0.0
C1677 C 0.00525 0.32791 0.49016 0.0
C1678 C 0.02886 0.28208 0.48528 0.0
C1679 C 0.00272 0.26772 0.48779 0.0
C1680 C 0.97779 0.28387 0.49069 0.0
C1681 C 0.97903 0.31358 0.49188 0.0
C1682 C 0.98229 0.19232 0.50849 0.0
C1683 C 0.99945 0.17587 0.49044 0.0
C1684 C 0.98332 0.22201 0.5075 0.0
C1685 C 0.00153 0.23606 0.48841 0.0
C1686 C 0.01884 0.21962 0.47042 0.0
C1687 C 0.01784 0.18985 0.47146 0.0
H1688 H 0.93037 0.71569 0.72431 0.0
H1689 H 0.93401 0.80328 0.75244 0.0
H1690 H 0.98225 0.71459 0.72229 0.0
H1691 H 0.98568 0.80178 0.75113 0.0
H1692 H 0.07347 0.77222 0.78417 0.0
H1693 H 0.02185 0.77523 0.7806 0.0
H1694 H 0.02497 0.73739 0.69688 0.0
H1695 H 0.07688 0.73432 0.70051 0.0
C1696 C 0.94213 0.73481 0.72967 0.0
C1697 C 0.92795 0.75946 0.7389 0.0
C1698 C 0.97185 0.73414 0.72856 0.0
C1699 C 0.98797 0.758 0.73686 0.0
C1700 C 0.9738 0.78291 0.7451 0.0
C1701 C 0.94419 0.78369 0.74595 0.0
C1702 C 0.06313 0.76456 0.765 0.0
C1703 C 0.07914 0.75299 0.74264 0.0
C1704 C 0.03363 0.76647 0.76286 0.0
C1705 C 0.01942 0.75659 0.73843 0.0
C1706 C 0.03539 0.74505 0.71599 0.0
C1707 C 0.06504 0.74349 0.71798 0.0
H1708 H 0.53497 0.67866 0.96256 0.0
H1709 H 0.45658 0.68219 0.0098 0.0
H1710 H 0.5362 0.73054 0.96029 0.0
H1711 H 0.45823 0.73399 0.00874 0.0
H1712 H 0.45583 0.82652 0.98502 0.0
H1713 H 0.45341 0.77499 0.98092 0.0
H1714 H 0.54483 0.77056 0.98855 0.0
H1715 H 0.54738 0.82207 0.99032 0.0
C1716 C 0.51808 0.69062 0.97257 0.0
C1717 C 0.49566 0.67647 0.98628 0.0
C1718 C 0.51881 0.72037 0.97143 0.0
C1719 C 0.49736 0.73666 0.98441 0.0
C1720 C 0.47484 0.72231 0.99799 0.0
C1721 C 0.47392 0.69259 0.99874 0.0
C1722 C 0.47548 0.81463 0.9852 0.0
C1723 C 0.50179 0.82863 0.98817 0.0
C1724 C 0.47406 0.78494 0.9833 0.0
C1725 C 0.4989 0.7684 0.98465 0.0
C1726 C 0.52523 0.78245 0.9871 0.0
C1727 C 0.52667 0.81212 0.98862 0.0
H1728 H 0.57592 0.79748 0.28502 0.0
H1729 H 0.57553 0.71001 0.25667 0.0
H1730 H 0.5242 0.79655 0.28799 0.0
H1731 H 0.52385 0.70911 0.25933 0.0
H1732 H 0.43245 0.7942 0.2535 0.0
H1733 H 0.48412 0.79522 0.25613 0.0
H1734 H 0.48376 0.71019 0.29107 0.0
H1735 H 0.43203 0.70911 0.28816 0.0
C1736 C 0.56477 0.77806 0.27939 0.0
C1737 C 0.57983 0.75385 0.27051 0.0
C1738 C 0.53513 0.77753 0.28104 0.0
C1739 C 0.5198 0.7528 0.27376 0.0
C1740 C 0.53494 0.7284 0.2655 0.0
C1741 C 0.56459 0.7289 0.26395 0.0
C1742 C 0.44338 0.77589 0.26215 0.0
C1743 C 0.42813 0.75154 0.27052 0.0
C1744 C 0.47303 0.77647 0.26368 0.0
C1745 C 0.48817 0.75274 0.27373 0.0
C1746 C 0.47284 0.72864 0.28276 0.0
C1747 C 0.44318 0.72804 0.28114 0.0
H1748 H 0.51398 0.18348 0.46378 0.0
H1749 H 0.4935 0.17729 0.55307 0.0
H1750 H 0.51253 0.23513 0.46688 0.0
H1751 H 0.49262 0.22923 0.55645 0.0
H1752 H 0.46517 0.32237 0.54368 0.0
H1753 H 0.46646 0.27056 0.54231 0.0
H1754 H 0.53869 0.27419 0.48581 0.0
H1755 H 0.53635 0.32583 0.48582 0.0
C1756 C 0.50941 0.19323 0.48417 0.0
C1757 C 0.50403 0.17634 0.50823 0.0
C1758 C 0.50869 0.22286 0.48599 0.0
C1759 C 0.50276 0.23644 0.51199 0.0
C1760 C 0.49699 0.21952 0.53602 0.0
C1761 C 0.49751 0.18977 0.53412 0.0
C1762 C 0.48122 0.31212 0.53081 0.0
C1763 C 0.50054 0.32838 0.51472 0.0
C1764 C 0.48217 0.28236 0.53031 0.0
C1765 C 0.50255 0.26811 0.51379 0.0
C1766 C 0.52237 0.28439 0.49837 0.0
C1767 C 0.52131 0.3141 0.49873 0.0
H1768 H 0.07231 0.29791 0.74656 0.0
H1769 H 0.07295 0.21014 0.77413 0.0
H1770 H 0.02095 0.29811 0.74867 0.0
H1771 H 0.02127 0.20968 0.77397 0.0
H1772 H 0.92843 0.22522 0.79632 0.0
H1773 H 0.98028 0.22594 0.79763 0.0
H1774 H 0.98111 0.28132 0.72417 0.0
H1775 H 0.92944 0.28134 0.72372 0.0
C1776 C 0.06158 0.27862 0.75321 0.0
C1777 C 0.07703 0.25405 0.76036 0.0
C1778 C 0.03194 0.27859 0.75391 0.0
C1779 C 0.01676 0.25386 0.7613 0.0
C1780 C 0.03214 0.22926 0.7685 0.0
C1781 C 0.06188 0.22939 0.76817 0.0
C1782 C 0.93981 0.23759 0.78056 0.0
C1783 C 0.92494 0.25338 0.76005 0.0
C1784 C 0.96953 0.23789 0.78117 0.0
C1785 C 0.98506 0.25372 0.76103 0.0
C1786 C 0.97001 0.26939 0.74044 0.0
C1787 C 0.94035 0.26937 0.74009 0.0
H1788 H 0.04569 0.82378 1.0011 0.0
H1789 H 0.95791 0.8233 0.02785 0.0
H1790 H 0.0468 0.772 0.00472 0.0
H1791 H 0.95897 0.77155 0.03102 0.0
H1792 H 0.96361 0.6796 0.99525 0.0
H1793 H 0.96243 0.73141 0.99696 0.0
H1794 H 0.04371 0.73243 0.03966 0.0
H1795 H 0.04475 0.68054 0.03845 0.0
C1796 C 0.02676 0.81272 0.00815 0.0
C1797 C 0.00166 0.82776 0.01398 0.0
C1798 C 0.02738 0.78301 0.01017 0.0
C1799 C 0.0029 0.76767 0.01797 0.0
C1800 C 0.97803 0.78273 0.02448 0.0
C1801 C 0.97744 0.8124 0.02261 0.0
C1802 C 0.981 0.69078 0.0055 0.0
C1803 C 0.00431 0.6758 0.01665 0.0
C1804 C 0.98035 0.72052 0.00641 0.0
C1805 C 0.00303 0.73603 0.01836 0.0
C1806 C 0.02611 0.7211 0.02994 0.0
C1807 C 0.02669 0.69135 0.0292 0.0
H1808 H 0.20971 0.42947 0.226 0.0
H1809 H 0.28529 0.43266 0.27808 0.0
H1810 H 0.20844 0.48151 0.2251 0.0
H1811 H 0.28447 0.48438 0.27677 0.0
H1812 H 0.25995 0.57532 0.29454 0.0
H1813 H 0.25843 0.5235 0.2952 0.0
H1814 H 0.23232 0.52293 0.20696 0.0
H1815 H 0.23328 0.57489 0.2066 0.0
C1816 C 0.22618 0.44131 0.23701 0.0
C1817 C 0.24743 0.427 0.25233 0.0
C1818 C 0.22551 0.47111 0.23649 0.0
C1819 C 0.24621 0.48722 0.2511 0.0
C1820 C 0.26776 0.47276 0.26588 0.0
C1821 C 0.26831 0.44307 0.26656 0.0
C1822 C 0.25387 0.5641 0.2753 0.0
C1823 C 0.24683 0.57917 0.2505 0.0
C1824 C 0.25309 0.53437 0.27561 0.0
C1825 C 0.24551 0.51893 0.25104 0.0
C1826 C 0.23794 0.53407 0.22636 0.0
C1827 C 0.23851 0.56386 0.22613 0.0
H1828 H 0.73058 0.07565 0.79393 0.0
H1829 H 0.74916 0.07192 0.70397 0.0
H1830 H 0.72782 0.02368 0.79533 0.0
H1831 H 0.74691 0.02019 0.70558 0.0
H1832 H 0.77873 0.931 0.72929 0.0
H1833 H 0.77702 0.98266 0.72753 0.0
H1834 H 0.69952 0.9818 0.77648 0.0
H1835 H 0.70076 0.92978 0.77774 0.0
C1836 C 0.73371 0.06382 0.7744 0.0
C1837 C 0.74043 0.078 0.7489 0.0
C1838 C 0.73217 0.03405 0.77523 0.0
C1839 C 0.73746 0.01787 0.75062 0.0
C1840 C 0.74328 0.03207 0.725 0.0
C1841 C 0.74464 0.06173 0.72412 0.0
C1842 C 0.761 0.94167 0.73928 0.0
C1843 C 0.73973 0.92609 0.75343 0.0
C1844 C 0.7601 0.97135 0.73834 0.0
C1845 C 0.73805 0.98628 0.75173 0.0
C1846 C 0.7169 0.97085 0.76615 0.0
C1847 C 0.71766 0.94106 0.76689 0.0
H1848 H 0.32196 0.48237 0.04368 0.0
H1849 H 0.3217 0.49372 0.9524 0.0
H1850 H 0.27055 0.47929 0.04343 0.0
H1851 H 0.27003 0.49276 0.95246 0.0
H1852 H 0.17754 0.46577 0.95754 0.0
H1853 H 0.22935 0.46373 0.95793 0.0
H1854 H 0.23053 0.50844 0.03845 0.0
H1855 H 0.17883 0.50947 0.03837 0.0
C1856 C 0.31101 0.48404 0.02348 0.0
C1857 C 0.32617 0.48819 0.99802 0.0
C1858 C 0.28136 0.48276 0.02342 0.0
C1859 C 0.26596 0.48597 0.99797 0.0
C1860 C 0.2811 0.48986 0.97245 0.0
C1861 C 0.31081 0.49084 0.97247 0.0
C1862 C 0.18898 0.47503 0.97534 0.0
C1863 C 0.1742 0.48771 0.99796 0.0
C1864 C 0.21866 0.47402 0.97553 0.0
C1865 C 0.23427 0.48599 0.99818 0.0
C1866 C 0.21933 0.4985 0.02089 0.0
C1867 C 0.18967 0.49918 0.02085 0.0
H1868 H 0.78259 0.07239 0.29452 0.0
H1869 H 0.74744 0.07344 0.20952 0.0
H1870 H 0.78399 0.02056 0.29315 0.0
H1871 H 0.74916 0.02156 0.20809 0.0
H1872 H 0.77886 0.92868 0.20722 0.0
H1873 H 0.78212 0.98061 0.20775 0.0
H1874 H 0.74867 0.98174 0.29326 0.0
H1875 H 0.74604 0.92988 0.29298 0.0
C1876 C 0.77516 0.06159 0.27553 0.0
C1877 C 0.76469 0.07713 0.25222 0.0
C1878 C 0.77599 0.03187 0.27476 0.0
C1879 C 0.7665 0.01694 0.2506 0.0
C1880 C 0.75689 0.03245 0.22692 0.0
C1881 C 0.75595 0.06221 0.22773 0.0
C1882 C 0.77255 0.94002 0.22625 0.0
C1883 C 0.7622 0.92517 0.25007 0.0
C1884 C 0.77416 0.96976 0.22644 0.0
C1885 C 0.76565 0.98529 0.25054 0.0
C1886 C 0.75568 0.9704 0.27448 0.0
C1887 C 0.7539 0.94071 0.27422 0.0
H1888 H 0.82432 0.05095 0.01327 0.0
H1889 H 0.82135 0.96212 0.98946 0.0
H1890 H 0.77243 0.05186 0.01509 0.0
H1891 H 0.76976 0.96302 0.99142 0.0
H1892 H 0.68065 0.96607 0.02799 0.0
H1893 H 0.73232 0.96704 0.0269 0.0
H1894 H 0.73027 0.04825 0.98397 0.0
H1895 H 0.67836 0.04726 0.98501 0.0
C1896 C 0.81262 0.03168 0.00826 0.0
C1897 C 0.82702 0.0064 1.00147 0.0
C1898 C 0.7829 0.03221 0.0093 0.0
C1899 C 0.76697 0.00746 0.00361 0.0
C1900 C 0.78139 0.98231 0.9965 0.0
C1901 C 0.81101 0.98179 0.99542 0.0
C1902 C 0.69118 0.98404 0.0181 0.0
C1903 C 0.67535 0.00646 0.00632 0.0
C1904 C 0.72082 0.98461 0.0175 0.0
C1905 C 0.73542 0.00761 0.00515 0.0
C1906 C 0.71966 0.03034 0.99387 0.0
C1907 C 0.68993 0.02976 0.99446 0.0
H1908 H 0.22624 0.57446 0.72677 0.0
H1909 H 0.30457 0.57373 0.77489 0.0
H1910 H 0.22582 0.52278 0.72621 0.0
H1911 H 0.30329 0.52183 0.77565 0.0
H1912 H 0.30498 0.42778 0.74632 0.0
H1913 H 0.30812 0.47976 0.7464 0.0
H1914 H 0.21731 0.48468 0.75877 0.0
H1915 H 0.21424 0.43298 0.75819 0.0
C1916 C 0.24353 0.56331 0.73705 0.0
C1917 C 0.26546 0.57835 0.75084 0.0
C1918 C 0.24303 0.5336 0.73713 0.0
C1919 C 0.26435 0.51809 0.75117 0.0
C1920 C 0.28661 0.53307 0.7645 0.0
C1921 C 0.28717 0.56286 0.76432 0.0
C1922 C 0.28579 0.44005 0.74934 0.0
C1923 C 0.25934 0.42634 0.75198 0.0
C1924 C 0.28755 0.46981 0.74938 0.0
C1925 C 0.26291 0.48644 0.75224 0.0
C1926 C 0.23662 0.4726 0.75578 0.0
C1927 C 0.23486 0.44295 0.75557 0.0
H1928 H 0.17945 0.50621 0.45839 0.0
H1929 H 0.18101 0.52749 0.54771 0.0
H1930 H 0.23115 0.50996 0.45668 0.0
H1931 H 0.23251 0.53243 0.54597 0.0
H1932 H 0.32448 0.50239 0.54181 0.0
H1933 H 0.27284 0.50352 0.54305 0.0
H1934 H 0.27164 0.53967 0.45846 0.0
H1935 H 0.32343 0.53751 0.45701 0.0
C1936 C 0.19088 0.51225 0.47751 0.0
C1937 C 0.17632 0.51634 0.50322 0.0
C1938 C 0.22052 0.51451 0.47657 0.0
C1939 C 0.23619 0.52128 0.50126 0.0
C1940 C 0.22133 0.52649 0.52669 0.0
C1941 C 0.19179 0.52384 0.52769 0.0
C1942 C 0.31316 0.51089 0.52364 0.0
C1943 C 0.32796 0.51984 0.49932 0.0
C1944 C 0.2835 0.51165 0.52433 0.0
C1945 C 0.26789 0.52172 0.50084 0.0
C1946 C 0.28284 0.5313 0.47675 0.0
C1947 C 0.31252 0.53021 0.47594 0.0
H1948 H 0.8003 0.75424 0.93226 0.0
H1949 H 0.71316 0.72486 0.92941 0.0
H1950 H 0.79961 0.75179 0.98367 0.0
H1951 H 0.7117 0.72493 0.98107 0.0
H1952 H 0.72412 0.70393 0.07444 0.0
H1953 H 0.72665 0.70209 0.0226 0.0
H1954 H 0.78232 0.77559 0.02328 0.0
H1955 H 0.7807 0.77638 0.07503 0.0
C1956 C 0.78097 0.74712 0.94249 0.0
C1957 C 0.75682 0.73962 0.92638 0.0
C1958 C 0.78041 0.74625 0.97219 0.0
C1959 C 0.75553 0.73839 0.98677 0.0
C1960 C 0.73139 0.73076 0.97071 0.0
C1961 C 0.73209 0.73118 0.94095 0.0
C1962 C 0.73699 0.71954 0.06338 0.0
C1963 C 0.75234 0.74019 0.0787 0.0
C1964 C 0.73832 0.71866 0.03366 0.0
C1965 C 0.75467 0.73871 0.01853 0.0
C1966 C 0.76999 0.75938 0.03405 0.0
C1967 C 0.76901 0.75995 0.06376 0.0
H1968 H 0.54592 0.47898 0.32459 0.0
H1969 H 0.46752 0.52638 0.32229 0.0
H1970 H 0.5474 0.47912 0.27257 0.0
H1971 H 0.469 0.52654 0.27056 0.0
H1972 H 0.46151 0.49297 0.1808 0.0
H1973 H 0.46294 0.49204 0.23252 0.0
H1974 H 0.55293 0.51028 0.23069 0.0
H1975 H 0.55149 0.51108 0.17859 0.0
C1976 C 0.5292 0.48972 0.31301 0.0
C1977 C 0.50645 0.50243 0.32759 0.0
C1978 C 0.53004 0.48978 0.28322 0.0
C1979 C 0.50814 0.50253 0.26741 0.0
C1980 C 0.48586 0.51593 0.28206 0.0
C1981 C 0.48502 0.51587 0.31174 0.0
C1982 C 0.48161 0.49687 0.19141 0.0
C1983 C 0.50633 0.50244 0.17561 0.0
C1984 C 0.48242 0.49639 0.22107 0.0
C1985 C 0.50796 0.50151 0.23577 0.0
C1986 C 0.53294 0.50614 0.22 0.0
C1987 C 0.53213 0.50658 0.19019 0.0
H1988 H 0.70178 0.25856 0.42973 0.0
H1989 H 0.79152 0.27799 0.43043 0.0
H1990 H 0.70112 0.26024 0.48168 0.0
H1991 H 0.79091 0.27936 0.48246 0.0
H1992 H 0.77103 0.30597 0.5749 0.0
H1993 H 0.77019 0.308 0.52301 0.0
H1994 H 0.72182 0.2298 0.52046 0.0
H1995 H 0.72331 0.22716 0.57216 0.0
C1996 C 0.72129 0.26354 0.44098 0.0
C1997 C 0.74671 0.26816 0.42601 0.0
C1998 C 0.72096 0.26423 0.47071 0.0
C1999 C 0.74597 0.26984 0.48612 0.0
C2000 C 0.77126 0.27518 0.47115 0.0
C2001 C 0.77166 0.27419 0.4414 0.0
C2002 C 0.76038 0.28906 0.56333 0.0
C2003 C 0.74724 0.26638 0.57787 0.0
C2004 C 0.75985 0.29031 0.53359 0.0
C2005 C 0.7459 0.26909 0.5177 0.0
C2006 C 0.73238 0.24669 0.53216 0.0
C2007 C 0.73316 0.24527 0.56185 0.0
H2008 H 0.9464 0.50759 0.68034 0.0
H2009 H 0.03803 0.51045 0.68006 0.0
H2010 H 0.94664 0.50809 0.73236 0.0
H2011 H 0.03848 0.51005 0.7318 0.0
H2012 H 0.03091 0.53649 0.82374 0.0
H2013 H 0.02876 0.53823 0.77202 0.0
H2014 H 0.95739 0.47999 0.77293 0.0
H2015 H 0.9591 0.47913 0.82488 0.0
C2016 C 0.96657 0.50821 0.69145 0.0
C2017 C 0.99217 0.50928 0.67619 0.0
C2018 C 0.96676 0.50835 0.72125 0.0
C2019 C 0.99259 0.50922 0.73641 0.0
C2020 C 0.01816 0.51005 0.72097 0.0
C2021 C 0.01794 0.51022 0.69127 0.0
C2022 C 0.01483 0.52401 0.81284 0.0
C2023 C 0.99529 0.50753 0.8283 0.0
C2024 C 0.01362 0.52491 0.78316 0.0
C2025 C 0.99303 0.50908 0.76814 0.0
C2026 C 0.97329 0.49278 0.78371 0.0
C2027 C 0.97432 0.49216 0.81347 0.0
H2028 H 0.82504 0.99904 0.45491 0.0
H2029 H 0.82225 0.97634 0.54394 0.0
H2030 H 0.77336 0.99733 0.45282 0.0
H2031 H 0.77053 0.97595 0.54217 0.0
H2032 H 0.67791 0.95431 0.52371 0.0
H2033 H 0.72963 0.95092 0.52344 0.0
H2034 H 0.73433 0.02546 0.46987 0.0
H2035 H 0.68277 0.02805 0.46907 0.0
C2036 C 0.81343 0.99344 0.47399 0.0
C2037 C 0.82783 0.98793 0.49962 0.0
C2038 C 0.78376 0.99283 0.47288 0.0
C2039 C 0.76775 0.98674 0.49739 0.0
C2040 C 0.78217 0.98051 0.52284 0.0
C2041 C 0.81184 0.98107 0.52394 0.0
C2042 C 0.68999 0.96975 0.5116 0.0
C2043 C 0.67616 0.99152 0.49651 0.0
C2044 C 0.71965 0.96799 0.51168 0.0
C2045 C 0.73617 0.98793 0.49666 0.0
C2046 C 0.7223 0.00953 0.48139 0.0
C2047 C 0.69269 0.01127 0.48128 0.0
loop_
_geom_bond_atom_site_label_1
_geom_bond_atom_site_label_2
_geom_bond_distance
_geom_bond_site_symmetry_2
_ccdc_geom_bond_type
Li0 N17 1.990 . S
Li0 O60 1.956 . S
Li0 O61 1.970 . S
Li0 O62 1.961 . S
Li1 N25 1.990 . S
Li1 O60 1.970 . S
Li1 O61 1.956 . S
Li1 O63 1.961 . S
Li2 N47 1.990 . S
Li2 O60 1.961 . S
Li2 O62 1.956 . S
Li2 O63 1.970 . S
Li3 N53 1.990 . S
Li3 O61 1.961 . S
Li3 O62 1.970 . S
Li3 O63 1.956 . S
C4 C6 1.348 . S
C4 C7 1.356 . S
C4 O60 1.325 . S
N5 C8 1.314 . S
N5 C9 1.279 . S
C6 C4 1.348 . S
C6 C8 1.353 . S
C6 H64 0.929 . S
C7 C4 1.356 . S
C7 C9 1.358 . S
C7 H65 0.930 . S
C8 N5 1.314 . S
C8 C6 1.353 . S
C8 H66 0.930 . S
C9 N5 1.279 . S
C9 C7 1.358 . S
C9 H67 0.930 . S
C10 C13 1.348 . S
C10 C14 1.356 . S
C10 O61 1.325 . S
C11 N12 1.279 . S
C11 C14 1.358 . S
C11 H68 0.930 . S
N12 C11 1.279 . S
N12 C15 1.314 . S
C13 C10 1.348 . S
C13 C15 1.353 . S
C13 H69 0.929 . S
C14 C10 1.356 . S
C14 C11 1.358 . S
C14 H70 0.930 . S
C15 N12 1.314 . S
C15 C13 1.353 . S
C15 H71 0.930 . S
C16 N17 1.314 . S
C16 C21 1.353 . S
C16 H22 0.930 . S
N17 Li0 1.990 . S
N17 C16 1.314 . S
N17 C19 1.279 . S
C18 C19 1.358 . S
C18 C20 1.356 . S
C18 H72 0.930 . S
C19 N17 1.279 . S
C19 C18 1.358 . S
C19 H23 0.930 . S
C20 C18 1.356 . S
C20 C21 1.348 . S
C21 C16 1.353 . S
C21 C20 1.348 . S
C21 H73 0.929 . S
H22 C16 0.930 . S
H23 C19 0.930 . S
C24 N25 1.314 . S
C24 C26 1.353 . S
C24 H30 0.930 . S
N25 Li1 1.990 . S
N25 C24 1.314 . S
N25 C28 1.279 . S
C26 C24 1.353 . S
C26 C29 1.348 . S
C26 H74 0.929 . S
C27 C28 1.358 . S
C27 C29 1.356 . S
C27 H75 0.930 . S
C28 N25 1.279 . S
C28 C27 1.358 . S
C28 H31 0.930 . S
C29 C26 1.348 . S
C29 C27 1.356 . S
H30 C24 0.930 . S
H31 C28 0.930 . S
C32 C34 1.348 . S
C32 C35 1.356 . S
C32 O62 1.325 . S
N33 C36 1.314 . S
N33 C37 1.279 . S
C34 C32 1.348 . S
C34 C36 1.353 . S
C34 H76 0.929 . S
C35 C32 1.356 . S
C35 C37 1.358 . S
C35 H77 0.930 . S
C36 N33 1.314 . S
C36 C34 1.353 . S
C36 H78 0.930 . S
C37 N33 1.279 . S
C37 C35 1.358 . S
C37 H79 0.930 . S
C38 C39 1.348 . S
C38 C40 1.356 . S
C38 O63 1.325 . S
C39 C38 1.348 . S
C39 C41 1.353 . S
C39 H80 0.929 . S
C40 C38 1.356 . S
C40 C42 1.358 . S
C40 H81 0.930 . S
C41 C39 1.353 . S
C41 N43 1.314 . S
C41 H82 0.930 . S
C42 C40 1.358 . S
C42 N43 1.279 . S
C42 H83 0.930 . S
N43 C41 1.314 . S
N43 C42 1.279 . S
C44 C46 1.353 . S
C44 N47 1.314 . S
C44 H50 0.930 . S
C45 N47 1.279 . S
C45 C48 1.358 . S
C45 H51 0.930 . S
C46 C44 1.353 . S
C46 C49 1.348 . S
C46 H84 0.929 . S
N47 Li2 1.990 . S
N47 C44 1.314 . S
N47 C45 1.279 . S
C48 C45 1.358 . S
C48 C49 1.356 . S
C48 H85 0.930 . S
C49 C46 1.348 . S
C49 C48 1.356 . S
H50 C44 0.930 . S
H51 C45 0.930 . S
C52 N53 1.314 . S
C52 C54 1.353 . S
C52 H58 0.930 . S
N53 Li3 1.990 . S
N53 C52 1.314 . S
N53 C56 1.279 . S
C54 C52 1.353 . S
C54 C57 1.348 . S
C54 H86 0.929 . S
C55 C56 1.358 . S
C55 C57 1.356 . S
C55 H87 0.930 . S
C56 N53 1.279 . S
C56 C55 1.358 . S
C56 H59 0.930 . S
C57 C54 1.348 . S
C57 C55 1.356 . S
H58 C52 0.930 . S
H59 C56 0.930 . S
O60 Li0 1.956 . S
O60 Li1 1.970 . S
O60 Li2 1.961 . S
O60 C4 1.325 . S
O61 Li0 1.970 . S
O61 Li1 1.956 . S
O61 Li3 1.961 . S
O61 C10 1.325 . S
O62 Li0 1.961 . S
O62 Li2 1.956 . S
O62 Li3 1.970 . S
O62 C32 1.325 . S
O63 Li1 1.961 . S
O63 Li2 1.970 . S
O63 Li3 1.956 . S
O63 C38 1.325 . S
H64 C6 0.929 . S
H65 C7 0.930 . S
H66 C8 0.930 . S
H67 C9 0.930 . S
H68 C11 0.930 . S
H69 C13 0.929 . S
H70 C14 0.930 . S
H71 C15 0.930 . S
H72 C18 0.930 . S
H73 C21 0.929 . S
H74 C26 0.929 . S
H75 C27 0.930 . S
H76 C34 0.929 . S
H77 C35 0.930 . S
H78 C36 0.930 . S
H79 C37 0.930 . S
H80 C39 0.929 . S
H81 C40 0.930 . S
H82 C41 0.930 . S
H83 C42 0.930 . S
H84 C46 0.929 . S
H85 C48 0.930 . S
H86 C54 0.929 . S
H87 C55 0.930 . S
Li88 N105 1.990 . S
Li88 O148 1.956 . S
Li88 O149 1.970 . S
Li88 O150 1.961 1_655 S
Li89 N113 1.990 . S
Li89 O148 1.970 . S
Li89 O149 1.956 . S
Li89 O151 1.961 1_545 S
Li90 N135 1.990 . S
Li90 O148 1.961 . S
Li90 O150 1.956 1_655 S
Li90 O151 1.970 1_545 S
Li91 N141 1.990 1_655 S
Li91 O149 1.962 1_565 S
Li91 O150 1.971 1_665 S
Li91 O151 1.956 . S
C92 C94 1.348 . S
C92 C95 1.356 . S
C92 O148 1.325 . S
N93 C96 1.314 . S
N93 C97 1.279 . S
C94 C92 1.348 . S
C94 C96 1.353 . S
C94 H152 0.929 . S
C95 C92 1.356 . S
C95 C97 1.358 . S
C95 H153 0.930 . S
C96 N93 1.314 . S
C96 C94 1.353 . S
C96 H154 0.930 . S
C97 N93 1.279 . S
C97 C95 1.358 . S
C97 H155 0.930 . S
C98 C101 1.348 . S
C98 C102 1.356 . S
C98 O149 1.325 . S
C99 N100 1.279 . S
C99 C102 1.358 . S
C99 H156 0.930 . S
N100 C99 1.279 . S
N100 C103 1.314 . S
C101 C98 1.348 . S
C101 C103 1.353 . S
C101 H157 0.929 . S
C102 C98 1.356 . S
C102 C99 1.358 . S
C102 H158 0.930 1_545 S
C103 N100 1.314 . S
C103 C101 1.353 . S
C103 H159 0.930 . S
C104 N105 1.314 1_455 S
C104 C109 1.353 . S
C104 H110 0.930 . S
N105 Li88 1.990 . S
N105 C104 1.314 1_655 S
N105 C107 1.279 . S
C106 C107 1.358 . S
C106 C108 1.356 1_655 S
C106 H160 0.930 . S
C107 N105 1.279 . S
C107 C106 1.358 . S
C107 H111 0.930 . S
C108 C106 1.356 1_455 S
C108 C109 1.348 . S
C109 C104 1.353 . S
C109 C108 1.348 . S
C109 H161 0.929 . S
H110 C104 0.930 . S
H111 C107 0.930 . S
C112 N113 1.314 1_565 S
C112 C114 1.353 . S
C112 H118 0.930 . S
N113 Li89 1.990 . S
N113 C112 1.314 1_545 S
N113 C116 1.279 . S
C114 C112 1.353 . S
C114 C117 1.348 1_565 S
C114 H162 0.929 . S
C115 C116 1.358 . S
C115 C117 1.356 . S
C115 H163 0.930 . S
C116 N113 1.279 . S
C116 C115 1.358 . S
C116 H119 0.930 . S
C117 C114 1.348 1_545 S
C117 C115 1.356 . S
H118 C112 0.930 . S
H119 C116 0.930 . S
C120 C122 1.348 . S
C120 C123 1.356 . S
C120 O150 1.325 . S
N121 C124 1.314 . S
N121 C125 1.279 . S
C122 C120 1.348 . S
C122 C124 1.353 . S
C122 H164 0.929 1_545 S
C123 C120 1.356 . S
C123 C125 1.358 . S
C123 H165 0.930 . S
C124 N121 1.314 . S
C124 C122 1.353 . S
C124 H166 0.930 . S
C125 N121 1.279 . S
C125 C123 1.358 . S
C125 H167 0.930 . S
C126 C127 1.348 . S
C126 C128 1.356 . S
C126 O151 1.325 . S
C127 C126 1.348 . S
C127 C129 1.353 . S
C127 H168 0.929 . S
C128 C126 1.356 . S
C128 C130 1.358 . S
C128 H169 0.930 . S
C129 C127 1.353 . S
C129 N131 1.314 . S
C129 H170 0.930 . S
C130 C128 1.358 . S
C130 N131 1.279 . S
C130 H171 0.930 . S
N131 C129 1.314 . S
N131 C130 1.279 . S
C132 C134 1.353 1_545 S
C132 N135 1.314 . S
C132 H138 0.930 . S
C133 N135 1.280 1_455 S
C133 C136 1.358 1_545 S
C133 H139 0.930 . S
C134 C132 1.353 1_565 S
C134 C137 1.348 . S
C134 H172 0.929 . S
N135 Li90 1.990 . S
N135 C132 1.314 . S
N135 C133 1.280 1_655 S
C136 C133 1.358 1_565 S
C136 C137 1.356 1_455 S
C136 H173 0.930 . S
C137 C134 1.348 . S
C137 C136 1.356 1_655 S
H138 C132 0.930 . S
H139 C133 0.930 . S
C140 N141 1.314 . S
C140 C142 1.353 . S
C140 H146 0.930 1_565 S
N141 Li91 1.990 1_455 S
N141 C140 1.314 . S
N141 C144 1.279 . S
C142 C140 1.353 . S
C142 C145 1.348 . S
C142 H174 0.929 . S
C143 C144 1.358 . S
C143 C145 1.356 . S
C143 H175 0.930 . S
C144 N141 1.279 . S
C144 C143 1.358 . S
C144 H147 0.930 . S
C145 C142 1.348 . S
C145 C143 1.356 . S
H146 C140 0.930 1_545 S
H147 C144 0.930 . S
O148 Li88 1.956 . S
O148 Li89 1.970 . S
O148 Li90 1.961 . S
O148 C92 1.325 . S
O149 Li88 1.970 . S
O149 Li89 1.956 . S
O149 Li91 1.962 1_545 S
O149 C98 1.325 . S
O150 Li88 1.961 1_455 S
O150 Li90 1.956 1_455 S
O150 Li91 1.971 1_445 S
O150 C120 1.325 . S
O151 Li89 1.961 1_565 S
O151 Li90 1.970 1_565 S
O151 Li91 1.956 . S
O151 C126 1.325 . S
H152 C94 0.929 . S
H153 C95 0.930 . S
H154 C96 0.930 . S
H155 C97 0.930 . S
H156 C99 0.930 . S
H157 C101 0.929 . S
H158 C102 0.930 1_565 S
H159 C103 0.930 . S
H160 C106 0.930 . S
H161 C109 0.929 . S
H162 C114 0.929 . S
H163 C115 0.930 . S
H164 C122 0.929 1_565 S
H165 C123 0.930 . S
H166 C124 0.930 . S
H167 C125 0.930 . S
H168 C127 0.929 . S
H169 C128 0.930 . S
H170 C129 0.930 . S
H171 C130 0.930 . S
H172 C134 0.929 . S
H173 C136 0.930 . S
H174 C142 0.929 . S
H175 C143 0.930 . S
Li176 N193 1.990 . S
Li176 O236 1.956 . S
Li176 O237 1.970 . S
Li176 O238 1.961 . S
Li177 N201 1.990 . S
Li177 O236 1.970 . S
Li177 O237 1.956 . S
Li177 O239 1.961 . S
Li178 N223 1.990 . S
Li178 O236 1.961 . S
Li178 O238 1.956 . S
Li178 O239 1.970 . S
Li179 N229 1.990 . S
Li179 O237 1.961 . S
Li179 O238 1.970 . S
Li179 O239 1.956 . S
C180 C182 1.348 . S
C180 C183 1.356 . S
C180 O236 1.325 . S
N181 C184 1.314 . S
N181 C185 1.279 . S
C182 C180 1.348 . S
C182 C184 1.353 . S
C182 H240 0.929 . S
C183 C180 1.356 . S
C183 C185 1.358 . S
C183 H241 0.930 . S
C184 N181 1.314 . S
C184 C182 1.353 . S
C184 H242 0.930 . S
C185 N181 1.279 . S
C185 C183 1.358 . S
C185 H243 0.930 . S
C186 C189 1.348 . S
C186 C190 1.356 . S
C186 O237 1.325 . S
C187 N188 1.279 . S
C187 C190 1.358 . S
C187 H244 0.930 . S
N188 C187 1.279 . S
N188 C191 1.314 . S
C189 C186 1.348 . S
C189 C191 1.353 . S
C189 H245 0.929 . S
C190 C186 1.356 . S
C190 C187 1.358 . S
C190 H246 0.930 . S
C191 N188 1.314 . S
C191 C189 1.353 . S
C191 H247 0.930 . S
C192 N193 1.314 . S
C192 C197 1.353 . S
C192 H198 0.930 . S
N193 Li176 1.990 . S
N193 C192 1.314 . S
N193 C195 1.279 . S
C194 C195 1.358 . S
C194 C196 1.356 . S
C194 H248 0.930 . S
C195 N193 1.279 . S
C195 C194 1.358 . S
C195 H199 0.930 . S
C196 C194 1.356 . S
C196 C197 1.348 . S
C197 C192 1.353 . S
C197 C196 1.348 . S
C197 H249 0.929 . S
H198 C192 0.930 . S
H199 C195 0.930 . S
C200 N201 1.314 . S
C200 C202 1.353 . S
C200 H206 0.930 . S
N201 Li177 1.990 . S
N201 C200 1.314 . S
N201 C204 1.279 . S
C202 C200 1.353 . S
C202 C205 1.348 . S
C202 H250 0.929 . S
C203 C204 1.358 . S
C203 C205 1.356 . S
C203 H251 0.930 . S
C204 N201 1.279 . S
C204 C203 1.358 . S
C204 H207 0.930 . S
C205 C202 1.348 . S
C205 C203 1.356 . S
H206 C200 0.930 . S
H207 C204 0.930 . S
C208 C210 1.348 . S
C208 C211 1.356 . S
C208 O238 1.325 . S
N209 C212 1.314 . S
N209 C213 1.279 . S
C210 C208 1.348 . S
C210 C212 1.353 . S
C210 H252 0.929 . S
C211 C208 1.356 . S
C211 C213 1.358 . S
C211 H253 0.930 . S
C212 N209 1.314 . S
C212 C210 1.353 . S
C212 H254 0.930 . S
C213 N209 1.279 . S
C213 C211 1.358 . S
C213 H255 0.930 . S
C214 C215 1.348 . S
C214 C216 1.356 . S
C214 O239 1.325 . S
C215 C214 1.348 . S
C215 C217 1.353 . S
C215 H256 0.929 . S
C216 C214 1.356 . S
C216 C218 1.358 . S
C216 H257 0.930 . S
C217 C215 1.353 . S
C217 N219 1.314 . S
C217 H258 0.930 . S
C218 C216 1.358 . S
C218 N219 1.279 . S
C218 H259 0.930 . S
N219 C217 1.314 . S
N219 C218 1.279 . S
C220 C222 1.353 . S
C220 N223 1.314 . S
C220 H226 0.930 . S
C221 N223 1.279 . S
C221 C224 1.358 . S
C221 H227 0.930 . S
C222 C220 1.353 . S
C222 C225 1.348 . S
C222 H260 0.929 . S
N223 Li178 1.990 . S
N223 C220 1.314 . S
N223 C221 1.279 . S
C224 C221 1.358 . S
C224 C225 1.356 . S
C224 H261 0.930 . S
C225 C222 1.348 . S
C225 C224 1.356 . S
H226 C220 0.930 . S
H227 C221 0.930 . S
C228 N229 1.314 . S
C228 C230 1.353 . S
C228 H234 0.930 . S
N229 Li179 1.990 . S
N229 C228 1.314 . S
N229 C232 1.279 . S
C230 C228 1.353 . S
C230 C233 1.348 . S
C230 H262 0.929 . S
C231 C232 1.358 . S
C231 C233 1.356 . S
C231 H263 0.930 . S
C232 N229 1.279 . S
C232 C231 1.358 . S
C232 H235 0.930 . S
C233 C230 1.348 . S
C233 C231 1.356 . S
H234 C228 0.930 . S
H235 C232 0.930 . S
O236 Li176 1.956 . S
O236 Li177 1.970 . S
O236 Li178 1.961 . S
O236 C180 1.325 . S
O237 Li176 1.970 . S
O237 Li177 1.956 . S
O237 Li179 1.961 . S
O237 C186 1.325 . S
O238 Li176 1.961 . S
O238 Li178 1.956 . S
O238 Li179 1.970 . S
O238 C208 1.325 . S
O239 Li177 1.961 . S
O239 Li178 1.970 . S
O239 Li179 1.956 . S
O239 C214 1.325 . S
H240 C182 0.929 . S
H241 C183 0.930 . S
H242 C184 0.930 . S
H243 C185 0.930 . S
H244 C187 0.930 . S
H245 C189 0.929 . S
H246 C190 0.930 . S
H247 C191 0.930 . S
H248 C194 0.930 . S
H249 C197 0.929 . S
H250 C202 0.929 . S
H251 C203 0.930 . S
H252 C210 0.929 . S
H253 C211 0.930 . S
H254 C212 0.930 . S
H255 C213 0.930 . S
H256 C215 0.929 . S
H257 C216 0.930 . S
H258 C217 0.930 . S
H259 C218 0.930 . S
H260 C222 0.929 . S
H261 C224 0.930 . S
H262 C230 0.929 . S
H263 C231 0.930 . S
Li264 N281 1.990 . S
Li264 O324 1.956 . S
Li264 O325 1.970 . S
Li264 O326 1.961 1_565 S
Li265 N289 1.990 . S
Li265 O324 1.970 . S
Li265 O325 1.956 . S
Li265 O327 1.961 1_554 S
Li266 N311 1.990 . S
Li266 O324 1.961 . S
Li266 O326 1.956 1_565 S
Li266 O327 1.970 1_554 S
Li267 N317 2.015 1_565 S
Li267 O325 1.931 1_556 S
Li267 O326 1.945 1_566 S
Li267 O327 1.971 . S
C268 C270 1.348 . S
C268 C271 1.356 . S
C268 O324 1.325 . S
N269 C272 1.314 . S
N269 C273 1.279 . S
C270 C268 1.348 . S
C270 C272 1.353 . S
C270 H328 0.929 . S
C271 C268 1.356 . S
C271 C273 1.358 . S
C271 H329 0.930 . S
C272 N269 1.314 . S
C272 C270 1.353 . S
C272 H330 0.930 . S
C273 N269 1.279 . S
C273 C271 1.358 . S
C273 H331 0.930 . S
C274 C277 1.348 . S
C274 C278 1.356 . S
C274 O325 1.325 . S
C275 N276 1.279 . S
C275 C278 1.358 . S
C275 H332 0.930 . S
N276 C275 1.279 . S
N276 C279 1.314 . S
C277 C274 1.348 . S
C277 C279 1.353 . S
C277 H333 0.929 . S
C278 C274 1.356 . S
C278 C275 1.358 . S
C278 H334 0.930 1_554 S
C279 N276 1.314 . S
C279 C277 1.353 . S
C279 H335 0.930 . S
C280 N281 1.314 1_545 S
C280 C285 1.353 . S
C280 H286 0.930 . S
N281 Li264 1.990 . S
N281 C280 1.314 1_565 S
N281 C283 1.279 . S
C282 C283 1.358 . S
C282 C284 1.356 1_565 S
C282 H336 0.930 . S
C283 N281 1.279 . S
C283 C282 1.358 . S
C283 H287 0.930 . S
C284 C282 1.356 1_545 S
C284 C285 1.348 . S
C285 C280 1.353 . S
C285 C284 1.348 . S
C285 H337 0.929 . S
H286 C280 0.930 . S
H287 C283 0.930 . S
C288 N289 1.314 1_556 S
C288 C290 1.353 . S
C288 H294 0.930 . S
N289 Li265 1.990 . S
N289 C288 1.314 1_554 S
N289 C292 1.279 . S
C290 C288 1.353 . S
C290 C293 1.339 1_556 S
C290 H338 0.929 . S
C291 C292 1.358 . S
C291 C293 1.366 . S
C291 H339 0.930 . S
C292 N289 1.279 . S
C292 C291 1.358 . S
C292 H295 0.930 . S
C293 C290 1.339 1_554 S
C293 C291 1.366 . S
H294 C288 0.930 . S
H295 C292 0.930 . S
C296 C298 1.348 . S
C296 C299 1.356 . S
C296 O326 1.325 . S
N297 C300 1.314 . S
N297 C301 1.279 . S
C298 C296 1.348 . S
C298 C300 1.353 . S
C298 H340 0.929 1_554 S
C299 C296 1.356 . S
C299 C301 1.358 . S
C299 H341 0.930 . S
C300 N297 1.314 . S
C300 C298 1.353 . S
C300 H342 0.930 . S
C301 N297 1.279 . S
C301 C299 1.358 . S
C301 H343 0.930 . S
C302 C303 1.348 . S
C302 C304 1.356 . S
C302 O327 1.325 . S
C303 C302 1.348 . S
C303 C305 1.353 . S
C303 H344 0.929 . S
C304 C302 1.356 . S
C304 C306 1.358 . S
C304 H345 0.930 . S
C305 C303 1.353 . S
C305 N307 1.314 . S
C305 H346 0.930 . S
C306 C304 1.358 . S
C306 N307 1.279 . S
C306 H347 0.930 . S
N307 C305 1.314 . S
N307 C306 1.279 . S
C308 C310 1.345 1_554 S
C308 N311 1.319 . S
C308 H314 0.935 . S
C309 N311 1.274 1_546 S
C309 C312 1.368 . S
C309 H315 0.928 1_556 S
C310 C308 1.345 1_556 S
C310 C313 1.348 . S
C310 H348 0.929 . S
N311 Li266 1.990 . S
N311 C308 1.319 . S
N311 C309 1.274 1_564 S
C312 C309 1.368 . S
C312 C313 1.356 1_545 S
C312 H349 0.930 . S
C313 C310 1.348 . S
C313 C312 1.356 1_565 S
H314 C308 0.935 . S
H315 C309 0.928 1_554 S
C316 N317 1.314 . S
C316 C318 1.353 . S
C316 H322 0.930 1_556 S
N317 Li267 2.015 1_545 S
N317 C316 1.314 . S
N317 C320 1.279 . S
C318 C316 1.353 . S
C318 C321 1.348 . S
C318 H350 0.929 . S
C319 C320 1.358 . S
C319 C321 1.356 . S
C319 H351 0.930 . S
C320 N317 1.279 . S
C320 C319 1.358 . S
C320 H323 0.930 . S
C321 C318 1.348 . S
C321 C319 1.356 . S
H322 C316 0.930 1_554 S
H323 C320 0.930 . S
O324 Li264 1.956 . S
O324 Li265 1.970 . S
O324 Li266 1.961 . S
O324 C268 1.325 . S
O325 Li264 1.970 . S
O325 Li265 1.956 . S
O325 Li267 1.931 1_554 S
O325 C274 1.325 . S
O326 Li264 1.961 1_545 S
O326 Li266 1.956 1_545 S
O326 Li267 1.945 1_544 S
O326 C296 1.325 . S
O327 Li265 1.961 1_556 S
O327 Li266 1.970 1_556 S
O327 Li267 1.971 . S
O327 C302 1.325 . S
H328 C270 0.929 . S
H329 C271 0.930 . S
H330 C272 0.930 . S
H331 C273 0.930 . S
H332 C275 0.930 . S
H333 C277 0.929 . S
H334 C278 0.930 1_556 S
H335 C279 0.930 . S
H336 C282 0.930 . S
H337 C285 0.929 . S
H338 C290 0.929 . S
H339 C291 0.930 . S
H340 C298 0.929 1_556 S
H341 C299 0.930 . S
H342 C300 0.930 . S
H343 C301 0.930 . S
H344 C303 0.929 . S
H345 C304 0.930 . S
H346 C305 0.930 . S
H347 C306 0.930 . S
H348 C310 0.929 . S
H349 C312 0.930 . S
H350 C318 0.929 . S
H351 C319 0.930 . S
Li352 N369 1.990 . S
Li352 O412 1.956 . S
Li352 O413 1.970 . S
Li352 O414 1.961 . S
Li353 N377 1.990 . S
Li353 O412 1.970 . S
Li353 O413 1.956 . S
Li353 O415 1.961 . S
Li354 N399 1.990 . S
Li354 O412 1.961 . S
Li354 O414 1.956 . S
Li354 O415 1.970 . S
Li355 N405 1.990 . S
Li355 O413 1.961 . S
Li355 O414 1.970 . S
Li355 O415 1.956 . S
C356 C358 1.348 . S
C356 C359 1.356 . S
C356 O412 1.325 . S
N357 C360 1.314 . S
N357 C361 1.279 . S
C358 C356 1.348 . S
C358 C360 1.353 . S
C358 H416 0.929 . S
C359 C356 1.356 . S
C359 C361 1.358 . S
C359 H417 0.930 . S
C360 N357 1.314 . S
C360 C358 1.353 . S
C360 H418 0.930 . S
C361 N357 1.279 . S
C361 C359 1.358 . S
C361 H419 0.930 . S
C362 C365 1.348 . S
C362 C366 1.356 . S
C362 O413 1.325 . S
C363 N364 1.279 . S
C363 C366 1.358 . S
C363 H420 0.930 . S
N364 C363 1.279 . S
N364 C367 1.314 . S
C365 C362 1.348 . S
C365 C367 1.353 . S
C365 H421 0.929 . S
C366 C362 1.356 . S
C366 C363 1.358 . S
C366 H422 0.930 . S
C367 N364 1.314 . S
C367 C365 1.353 . S
C367 H423 0.930 . S
C368 N369 1.314 . S
C368 C373 1.353 . S
C368 H374 0.930 . S
N369 Li352 1.990 . S
N369 C368 1.314 . S
N369 C371 1.279 . S
C370 C371 1.358 . S
C370 C372 1.356 . S
C370 H424 0.930 . S
C371 N369 1.279 . S
C371 C370 1.358 . S
C371 H375 0.930 . S
C372 C370 1.356 . S
C372 C373 1.348 . S
C373 C368 1.353 . S
C373 C372 1.348 . S
C373 H425 0.929 . S
H374 C368 0.930 . S
H375 C371 0.930 . S
C376 N377 1.314 . S
C376 C378 1.353 . S
C376 H382 0.930 . S
N377 Li353 1.990 . S
N377 C376 1.314 . S
N377 C380 1.279 . S
C378 C376 1.353 . S
C378 C381 1.348 . S
C378 H426 0.929 . S
C379 C380 1.358 . S
C379 C381 1.356 . S
C379 H427 0.930 . S
C380 N377 1.279 . S
C380 C379 1.358 . S
C380 H383 0.930 . S
C381 C378 1.348 . S
C381 C379 1.356 . S
H382 C376 0.930 . S
H383 C380 0.930 . S
C384 C386 1.348 . S
C384 C387 1.356 . S
C384 O414 1.325 . S
N385 C388 1.314 . S
N385 C389 1.279 . S
C386 C384 1.348 . S
C386 C388 1.353 . S
C386 H428 0.929 . S
C387 C384 1.356 . S
C387 C389 1.358 . S
C387 H429 0.930 . S
C388 N385 1.314 . S
C388 C386 1.353 . S
C388 H430 0.930 . S
C389 N385 1.279 . S
C389 C387 1.358 . S
C389 H431 0.930 . S
C390 C391 1.348 . S
C390 C392 1.356 . S
C390 O415 1.325 . S
C391 C390 1.348 . S
C391 C393 1.353 . S
C391 H432 0.929 . S
C392 C390 1.356 . S
C392 C394 1.358 . S
C392 H433 0.930 . S
C393 C391 1.353 . S
C393 N395 1.314 . S
C393 H434 0.930 . S
C394 C392 1.358 . S
C394 N395 1.279 . S
C394 H435 0.930 . S
N395 C393 1.314 . S
N395 C394 1.279 . S
C396 C398 1.353 . S
C396 N399 1.314 . S
C396 H402 0.930 . S
C397 N399 1.279 . S
C397 C400 1.358 . S
C397 H403 0.930 . S
C398 C396 1.353 . S
C398 C401 1.348 . S
C398 H436 0.929 . S
N399 Li354 1.990 . S
N399 C396 1.314 . S
N399 C397 1.279 . S
C400 C397 1.358 . S
C400 C401 1.356 . S
C400 H437 0.930 . S
C401 C398 1.348 . S
C401 C400 1.356 . S
H402 C396 0.930 . S
H403 C397 0.930 . S
C404 N405 1.314 . S
C404 C406 1.353 . S
C404 H410 0.930 . S
N405 Li355 1.990 . S
N405 C404 1.314 . S
N405 C408 1.279 . S
C406 C404 1.353 . S
C406 C409 1.348 . S
C406 H438 0.929 . S
C407 C408 1.358 . S
C407 C409 1.356 . S
C407 H439 0.930 . S
C408 N405 1.279 . S
C408 C407 1.358 . S
C408 H411 0.930 . S
C409 C406 1.348 . S
C409 C407 1.356 . S
H410 C404 0.930 . S
H411 C408 0.930 . S
O412 Li352 1.956 . S
O412 Li353 1.970 . S
O412 Li354 1.961 . S
O412 C356 1.325 . S
O413 Li352 1.970 . S
O413 Li353 1.956 . S
O413 Li355 1.961 . S
O413 C362 1.325 . S
O414 Li352 1.961 . S
O414 Li354 1.956 . S
O414 Li355 1.970 . S
O414 C384 1.325 . S
O415 Li353 1.961 . S
O415 Li354 1.970 . S
O415 Li355 1.956 . S
O415 C390 1.325 . S
H416 C358 0.929 . S
H417 C359 0.930 . S
H418 C360 0.930 . S
H419 C361 0.930 . S
H420 C363 0.930 . S
H421 C365 0.929 . S
H422 C366 0.930 . S
H423 C367 0.930 . S
H424 C370 0.930 . S
H425 C373 0.929 . S
H426 C378 0.929 . S
H427 C379 0.930 . S
H428 C386 0.929 . S
H429 C387 0.930 . S
H430 C388 0.930 . S
H431 C389 0.930 . S
H432 C391 0.929 . S
H433 C392 0.930 . S
H434 C393 0.930 . S
H435 C394 0.930 . S
H436 C398 0.929 . S
H437 C400 0.930 . S
H438 C406 0.929 . S
H439 C407 0.930 . S
Li440 N457 1.990 . S
Li440 O500 1.956 . S
Li440 O501 1.970 . S
Li440 O502 1.961 1_545 S
Li441 N465 1.990 . S
Li441 O500 1.970 . S
Li441 O501 1.956 . S
Li441 O503 1.961 . S
Li442 N487 1.993 . S
Li442 O500 1.958 1_565 S
Li442 O502 1.957 . S
Li442 O503 1.968 1_565 S
Li443 N493 1.990 . S
Li443 O501 1.961 . S
Li443 O502 1.970 1_545 S
Li443 O503 1.956 . S
C444 C446 1.348 . S
C444 C447 1.356 . S
C444 O500 1.325 . S
N445 C448 1.314 . S
N445 C449 1.279 . S
C446 C444 1.348 . S
C446 C448 1.353 . S
C446 H504 0.929 . S
C447 C444 1.356 . S
C447 C449 1.358 . S
C447 H505 0.930 1_545 S
C448 N445 1.314 . S
C448 C446 1.353 . S
C448 H506 0.930 . S
C449 N445 1.279 . S
C449 C447 1.358 . S
C449 H507 0.930 . S
C450 C453 1.348 . S
C450 C454 1.356 . S
C450 O501 1.325 . S
C451 N452 1.279 . S
C451 C454 1.358 . S
C451 H508 0.930 . S
N452 C451 1.279 . S
N452 C455 1.314 . S
C453 C450 1.348 . S
C453 C455 1.353 . S
C453 H509 0.929 . S
C454 C450 1.356 . S
C454 C451 1.358 . S
C454 H510 0.930 . S
C455 N452 1.314 . S
C455 C453 1.353 . S
C455 H511 0.930 . S
C456 N457 1.314 1_565 S
C456 C461 1.353 . S
C456 H462 0.930 . S
N457 Li440 1.990 . S
N457 C456 1.314 1_545 S
N457 C459 1.279 . S
C458 C459 1.358 . S
C458 C460 1.356 . S
C458 H512 0.930 . S
C459 N457 1.279 . S
C459 C458 1.358 . S
C459 H463 0.930 . S
C460 C458 1.356 . S
C460 C461 1.348 1_545 S
C461 C456 1.353 . S
C461 C460 1.348 1_565 S
C461 H513 0.929 . S
H462 C456 0.930 . S
H463 C459 0.930 . S
C464 N465 1.314 . S
C464 C466 1.353 . S
C464 H470 0.930 . S
N465 Li441 1.990 . S
N465 C464 1.314 . S
N465 C468 1.279 . S
C466 C464 1.353 . S
C466 C469 1.348 . S
C466 H514 0.929 . S
C467 C468 1.358 . S
C467 C469 1.356 . S
C467 H515 0.930 . S
C468 N465 1.279 . S
C468 C467 1.358 . S
C468 H471 0.930 . S
C469 C466 1.348 . S
C469 C467 1.356 . S
H470 C464 0.930 . S
H471 C468 0.930 . S
C472 C474 1.348 . S
C472 C475 1.356 . S
C472 O502 1.325 . S
N473 C476 1.314 . S
N473 C477 1.279 . S
C474 C472 1.348 . S
C474 C476 1.353 . S
C474 H516 0.929 . S
C475 C472 1.356 . S
C475 C477 1.358 . S
C475 H517 0.930 . S
C476 N473 1.314 . S
C476 C474 1.353 . S
C476 H518 0.930 . S
C477 N473 1.279 . S
C477 C475 1.358 . S
C477 H519 0.930 . S
C478 C479 1.348 . S
C478 C480 1.356 . S
C478 O503 1.325 . S
C479 C478 1.348 . S
C479 C481 1.353 . S
C479 H520 0.929 1_545 S
C480 C478 1.356 . S
C480 C482 1.358 . S
C480 H521 0.930 . S
C481 C479 1.353 . S
C481 N483 1.314 . S
C481 H522 0.930 . S
C482 C480 1.358 . S
C482 N483 1.279 . S
C482 H523 0.930 . S
N483 C481 1.314 . S
N483 C482 1.279 . S
C484 C486 1.353 . S
C484 N487 1.314 . S
C484 H490 0.930 1_565 S
C485 N487 1.279 . S
C485 C488 1.358 . S
C485 H491 0.930 . S
C486 C484 1.353 . S
C486 C489 1.348 . S
C486 H524 0.929 . S
N487 Li442 1.993 . S
N487 C484 1.314 . S
N487 C485 1.279 . S
C488 C485 1.358 . S
C488 C489 1.356 . S
C488 H525 0.930 . S
C489 C486 1.348 . S
C489 C488 1.356 . S
H490 C484 0.930 1_545 S
H491 C485 0.930 . S
C492 N493 1.314 . S
C492 C494 1.353 1_545 S
C492 H498 0.930 . S
N493 Li443 1.990 . S
N493 C492 1.314 . S
N493 C496 1.277 1_545 S
C494 C492 1.353 1_565 S
C494 C497 1.348 . S
C494 H526 0.929 . S
C495 C496 1.362 . S
C495 C497 1.356 . S
C495 H527 0.930 . S
C496 N493 1.277 1_565 S
C496 C495 1.362 . S
C496 H499 0.929 1_565 S
C497 C494 1.348 . S
C497 C495 1.356 . S
H498 C492 0.930 . S
H499 C496 0.929 1_545 S
O500 Li440 1.956 . S
O500 Li441 1.970 . S
O500 Li442 1.958 1_545 S
O500 C444 1.325 . S
O501 Li440 1.970 . S
O501 Li441 1.956 . S
O501 Li443 1.961 . S
O501 C450 1.325 . S
O502 Li440 1.961 1_565 S
O502 Li442 1.957 . S
O502 Li443 1.970 1_565 S
O502 C472 1.325 . S
O503 Li441 1.961 . S
O503 Li442 1.968 1_545 S
O503 Li443 1.956 . S
O503 C478 1.325 . S
H504 C446 0.929 . S
H505 C447 0.930 1_565 S
H506 C448 0.930 . S
H507 C449 0.930 . S
H508 C451 0.930 . S
H509 C453 0.929 . S
H510 C454 0.930 . S
H511 C455 0.930 . S
H512 C458 0.930 . S
H513 C461 0.929 . S
H514 C466 0.929 . S
H515 C467 0.930 . S
H516 C474 0.929 . S
H517 C475 0.930 . S
H518 C476 0.930 . S
H519 C477 0.930 . S
H520 C479 0.929 1_565 S
H521 C480 0.930 . S
H522 C481 0.930 . S
H523 C482 0.930 . S
H524 C486 0.929 . S
H525 C488 0.930 . S
H526 C494 0.929 . S
H527 C495 0.930 . S
Li528 N545 1.990 . S
Li528 O588 1.956 . S
Li528 O589 1.970 . S
Li528 O590 1.961 . S
Li529 N553 1.990 . S
Li529 O588 1.970 . S
Li529 O589 1.956 . S
Li529 O591 1.961 . S
Li530 N575 1.990 . S
Li530 O588 1.961 . S
Li530 O590 1.956 . S
Li530 O591 1.970 . S
Li531 N581 1.990 . S
Li531 O589 1.961 . S
Li531 O590 1.970 . S
Li531 O591 1.956 . S
C532 C534 1.348 . S
C532 C535 1.356 . S
C532 O588 1.325 . S
N533 C536 1.314 . S
N533 C537 1.279 . S
C534 C532 1.348 . S
C534 C536 1.353 . S
C534 H592 0.929 . S
C535 C532 1.356 . S
C535 C537 1.358 . S
C535 H593 0.930 . S
C536 N533 1.314 . S
C536 C534 1.353 . S
C536 H594 0.930 . S
C537 N533 1.279 . S
C537 C535 1.358 . S
C537 H595 0.930 . S
C538 C541 1.348 . S
C538 C542 1.356 . S
C538 O589 1.325 . S
C539 N540 1.279 . S
C539 C542 1.358 . S
C539 H596 0.930 . S
N540 C539 1.279 . S
N540 C543 1.314 . S
C541 C538 1.348 . S
C541 C543 1.353 . S
C541 H597 0.929 . S
C542 C538 1.356 . S
C542 C539 1.358 . S
C542 H598 0.930 . S
C543 N540 1.314 . S
C543 C541 1.353 . S
C543 H599 0.930 . S
C544 N545 1.314 . S
C544 C549 1.353 . S
C544 H550 0.930 . S
N545 Li528 1.990 . S
N545 C544 1.314 . S
N545 C547 1.279 . S
C546 C547 1.358 . S
C546 C548 1.356 . S
C546 H600 0.930 . S
C547 N545 1.279 . S
C547 C546 1.358 . S
C547 H551 0.930 . S
C548 C546 1.356 . S
C548 C549 1.348 . S
C549 C544 1.353 . S
C549 C548 1.348 . S
C549 H601 0.929 . S
H550 C544 0.930 . S
H551 C547 0.930 . S
C552 N553 1.314 . S
C552 C554 1.353 . S
C552 H558 0.930 . S
N553 Li529 1.990 . S
N553 C552 1.314 . S
N553 C556 1.279 . S
C554 C552 1.353 . S
C554 C557 1.348 . S
C554 H602 0.929 . S
C555 C556 1.358 . S
C555 C557 1.356 . S
C555 H603 0.930 . S
C556 N553 1.279 . S
C556 C555 1.358 . S
C556 H559 0.930 . S
C557 C554 1.348 . S
C557 C555 1.356 . S
H558 C552 0.930 . S
H559 C556 0.930 . S
C560 C562 1.348 . S
C560 C563 1.356 . S
C560 O590 1.325 . S
N561 C564 1.314 . S
N561 C565 1.279 . S
C562 C560 1.348 . S
C562 C564 1.353 . S
C562 H604 0.929 . S
C563 C560 1.356 . S
C563 C565 1.358 . S
C563 H605 0.930 . S
C564 N561 1.314 . S
C564 C562 1.353 . S
C564 H606 0.930 . S
C565 N561 1.279 . S
C565 C563 1.358 . S
C565 H607 0.930 . S
C566 C567 1.348 . S
C566 C568 1.356 . S
C566 O591 1.325 . S
C567 C566 1.348 . S
C567 C569 1.353 . S
C567 H608 0.929 . S
C568 C566 1.356 . S
C568 C570 1.358 . S
C568 H609 0.930 . S
C569 C567 1.353 . S
C569 N571 1.314 . S
C569 H610 0.930 . S
C570 C568 1.358 . S
C570 N571 1.279 . S
C570 H611 0.930 . S
N571 C569 1.314 . S
N571 C570 1.279 . S
C572 C574 1.353 . S
C572 N575 1.314 . S
C572 H578 0.930 . S
C573 N575 1.279 . S
C573 C576 1.358 . S
C573 H579 0.930 . S
C574 C572 1.353 . S
C574 C577 1.348 . S
C574 H612 0.929 . S
N575 Li530 1.990 . S
N575 C572 1.314 . S
N575 C573 1.279 . S
C576 C573 1.358 . S
C576 C577 1.356 . S
C576 H613 0.930 . S
C577 C574 1.348 . S
C577 C576 1.356 . S
H578 C572 0.930 . S
H579 C573 0.930 . S
C580 N581 1.314 . S
C580 C582 1.353 . S
C580 H586 0.930 . S
N581 Li531 1.990 . S
N581 C580 1.314 . S
N581 C584 1.279 . S
C582 C580 1.353 . S
C582 C585 1.348 . S
C582 H614 0.929 . S
C583 C584 1.358 . S
C583 C585 1.356 . S
C583 H615 0.930 . S
C584 N581 1.279 . S
C584 C583 1.358 . S
C584 H587 0.930 . S
C585 C582 1.348 . S
C585 C583 1.356 . S
H586 C580 0.930 . S
H587 C584 0.930 . S
O588 Li528 1.956 . S
O588 Li529 1.970 . S
O588 Li530 1.961 . S
O588 C532 1.325 . S
O589 Li528 1.970 . S
O589 Li529 1.956 . S
O589 Li531 1.961 . S
O589 C538 1.325 . S
O590 Li528 1.961 . S
O590 Li530 1.956 . S
O590 Li531 1.970 . S
O590 C560 1.325 . S
O591 Li529 1.961 . S
O591 Li530 1.970 . S
O591 Li531 1.956 . S
O591 C566 1.325 . S
H592 C534 0.929 . S
H593 C535 0.930 . S
H594 C536 0.930 . S
H595 C537 0.930 . S
H596 C539 0.930 . S
H597 C541 0.929 . S
H598 C542 0.930 . S
H599 C543 0.930 . S
H600 C546 0.930 . S
H601 C549 0.929 . S
H602 C554 0.929 . S
H603 C555 0.930 . S
H604 C562 0.929 . S
H605 C563 0.930 . S
H606 C564 0.930 . S
H607 C565 0.930 . S
H608 C567 0.929 . S
H609 C568 0.930 . S
H610 C569 0.930 . S
H611 C570 0.930 . S
H612 C574 0.929 . S
H613 C576 0.930 . S
H614 C582 0.929 . S
H615 C583 0.930 . S
Li616 N633 1.990 . S
Li616 O676 1.956 1_655 S
Li616 O677 1.970 1_565 S
Li616 O678 1.961 . S
Li617 N641 1.986 1_666 S
Li617 O676 1.975 1_655 S
Li617 O677 1.953 1_565 S
Li617 O679 1.966 1_556 S
Li618 N663 1.990 . S
Li618 O676 1.961 1_655 S
Li618 O678 1.956 . S
Li618 O679 1.970 1_556 S
Li619 N669 1.989 1_556 S
Li619 O677 1.961 1_565 S
Li619 O678 1.970 . S
Li619 O679 1.956 1_556 S
C620 C622 1.348 . S
C620 C623 1.356 . S
C620 O676 1.325 . S
N621 C624 1.314 . S
N621 C625 1.279 . S
C622 C620 1.348 . S
C622 C624 1.353 . S
C622 H680 0.929 1_565 S
C623 C620 1.356 . S
C623 C625 1.358 . S
C623 H681 0.930 . S
C624 N621 1.314 . S
C624 C622 1.353 . S
C624 H682 0.930 . S
C625 N621 1.279 . S
C625 C623 1.358 . S
C625 H683 0.930 . S
C626 C629 1.348 . S
C626 C630 1.356 . S
C626 O677 1.325 . S
C627 N628 1.279 . S
C627 C630 1.358 . S
C627 H684 0.945 . S
N628 C627 1.279 . S
N628 C631 1.314 . S
C629 C626 1.348 . S
C629 C631 1.353 . S
C629 H685 0.929 . S
C630 C626 1.356 . S
C630 C627 1.358 . S
C630 H686 0.930 1_556 S
C631 N628 1.314 . S
C631 C629 1.353 . S
C631 H687 0.930 . S
C632 N633 1.314 . S
C632 C637 1.353 1_565 S
C632 H638 0.930 . S
N633 Li616 1.990 . S
N633 C632 1.314 . S
N633 C635 1.281 1_655 S
C634 C635 1.356 1_545 S
C634 C636 1.356 1_455 S
C634 H688 0.930 . S
C635 N633 1.281 1_455 S
C635 C634 1.356 1_565 S
C635 H639 0.931 . S
C636 C634 1.356 1_655 S
C636 C637 1.348 . S
C637 C632 1.353 1_545 S
C637 C636 1.348 . S
C637 H689 0.929 . S
H638 C632 0.930 . S
H639 C635 0.931 . S
C640 N641 1.314 . S
C640 C642 1.353 . S
C640 H646 0.930 1_545 S
N641 Li617 1.986 1_444 S
N641 C640 1.314 . S
N641 C644 1.279 . S
C642 C640 1.353 . S
C642 C645 1.348 . S
C642 H690 0.929 . S
C643 C644 1.358 . S
C643 C645 1.356 . S
C643 H691 0.930 . S
C644 N641 1.279 . S
C644 C643 1.358 . S
C644 H647 0.930 . S
C645 C642 1.348 . S
C645 C643 1.356 . S
H646 C640 0.930 1_565 S
H647 C644 0.930 . S
C648 C650 1.348 . S
C648 C651 1.356 . S
C648 O678 1.325 . S
N649 C652 1.314 . S
N649 C653 1.279 . S
C650 C648 1.348 . S
C650 C652 1.353 . S
C650 H692 0.929 . S
C651 C648 1.356 . S
C651 C653 1.358 . S
C651 H693 0.930 . S
C652 N649 1.314 . S
C652 C650 1.353 . S
C652 H694 0.930 . S
C653 N649 1.279 . S
C653 C651 1.358 . S
C653 H695 0.930 . S
C654 C655 1.348 . S
C654 C656 1.356 . S
C654 O679 1.325 . S
C655 C654 1.348 . S
C655 C657 1.353 . S
C655 H696 0.929 . S
C656 C654 1.356 . S
C656 C658 1.358 . S
C656 H697 0.930 1_565 S
C657 C655 1.353 . S
C657 N659 1.314 . S
C657 H698 0.930 . S
C658 C656 1.358 . S
C658 N659 1.279 . S
C658 H699 0.930 . S
N659 C657 1.314 . S
N659 C658 1.279 . S
C660 C662 1.353 1_556 S
C660 N663 1.314 1_455 S
C660 H666 0.930 1_556 S
C661 N663 1.279 . S
C661 C664 1.358 . S
C661 H667 0.930 . S
C662 C660 1.353 1_554 S
C662 C665 1.348 1_554 S
C662 H700 0.929 . S
N663 Li618 1.990 . S
N663 C660 1.314 1_655 S
N663 C661 1.279 . S
C664 C661 1.358 . S
C664 C665 1.356 1_655 S
C664 H701 0.930 . S
C665 C662 1.348 1_556 S
C665 C664 1.356 1_455 S
H666 C660 0.930 1_554 S
H667 C661 0.930 . S
C668 N669 1.312 1_546 S
C668 C670 1.353 . S
C668 H674 0.930 . S
N669 Li619 1.989 1_554 S
N669 C668 1.312 1_564 S
N669 C672 1.282 . S
C670 C668 1.353 . S
C670 C673 1.348 1_546 S
C670 H702 0.929 . S
C671 C672 1.358 . S
C671 C673 1.356 . S
C671 H703 0.930 . S
C672 N669 1.282 . S
C672 C671 1.358 . S
C672 H675 0.930 . S
C673 C670 1.348 1_564 S
C673 C671 1.356 . S
H674 C668 0.930 . S
H675 C672 0.930 . S
O676 Li616 1.956 1_455 S
O676 Li617 1.975 1_455 S
O676 Li618 1.961 1_455 S
O676 C620 1.325 . S
O677 Li616 1.970 1_545 S
O677 Li617 1.953 1_545 S
O677 Li619 1.961 1_545 S
O677 C626 1.325 . S
O678 Li616 1.961 . S
O678 Li618 1.956 . S
O678 Li619 1.970 . S
O678 C648 1.325 . S
O679 Li617 1.966 1_554 S
O679 Li618 1.970 1_554 S
O679 Li619 1.956 1_554 S
O679 C654 1.325 . S
H680 C622 0.929 1_545 S
H681 C623 0.930 . S
H682 C624 0.930 . S
H683 C625 0.930 . S
H684 C627 0.945 . S
H685 C629 0.929 . S
H686 C630 0.930 1_554 S
H687 C631 0.930 . S
H688 C634 0.930 . S
H689 C637 0.929 . S
H690 C642 0.929 . S
H691 C643 0.930 . S
H692 C650 0.929 . S
H693 C651 0.930 . S
H694 C652 0.930 . S
H695 C653 0.930 . S
H696 C655 0.929 . S
H697 C656 0.930 1_545 S
H698 C657 0.930 . S
H699 C658 0.930 . S
H700 C662 0.929 . S
H701 C664 0.930 . S
H702 C670 0.929 . S
H703 C671 0.930 . S
Li704 N721 1.990 . S
Li704 O764 1.956 . S
Li704 O765 1.970 . S
Li704 O766 1.961 . S
Li705 N729 1.990 . S
Li705 O764 1.970 . S
Li705 O765 1.956 . S
Li705 O767 1.961 . S
Li706 N751 1.990 . S
Li706 O764 1.961 . S
Li706 O766 1.956 . S
Li706 O767 1.970 . S
Li707 N757 1.990 . S
Li707 O765 1.961 . S
Li707 O766 1.970 . S
Li707 O767 1.956 . S
C708 C710 1.348 . S
C708 C711 1.356 . S
C708 O764 1.325 . S
N709 C712 1.314 . S
N709 C713 1.279 . S
C710 C708 1.348 . S
C710 C712 1.353 . S
C710 H768 0.929 . S
C711 C708 1.356 . S
C711 C713 1.358 . S
C711 H769 0.930 . S
C712 N709 1.314 . S
C712 C710 1.353 . S
C712 H770 0.930 . S
C713 N709 1.279 . S
C713 C711 1.358 . S
C713 H771 0.930 . S
C714 C717 1.348 . S
C714 C718 1.356 . S
C714 O765 1.325 . S
C715 N716 1.279 . S
C715 C718 1.358 . S
C715 H772 0.930 . S
N716 C715 1.279 . S
N716 C719 1.314 . S
C717 C714 1.348 . S
C717 C719 1.353 . S
C717 H773 0.929 . S
C718 C714 1.356 . S
C718 C715 1.358 . S
C718 H774 0.930 . S
C719 N716 1.314 . S
C719 C717 1.353 . S
C719 H775 0.930 . S
C720 N721 1.314 . S
C720 C725 1.353 . S
C720 H726 0.930 . S
N721 Li704 1.990 . S
N721 C720 1.314 . S
N721 C723 1.279 . S
C722 C723 1.358 . S
C722 C724 1.356 . S
C722 H776 0.930 . S
C723 N721 1.279 . S
C723 C722 1.358 . S
C723 H727 0.930 . S
C724 C722 1.356 . S
C724 C725 1.348 . S
C725 C720 1.353 . S
C725 C724 1.348 . S
C725 H777 0.929 . S
H726 C720 0.930 . S
H727 C723 0.930 . S
C728 N729 1.314 . S
C728 C730 1.353 . S
C728 H734 0.930 . S
N729 Li705 1.990 . S
N729 C728 1.314 . S
N729 C732 1.279 . S
C730 C728 1.353 . S
C730 C733 1.348 . S
C730 H778 0.929 . S
C731 C732 1.358 . S
C731 C733 1.356 . S
C731 H779 0.930 . S
C732 N729 1.279 . S
C732 C731 1.358 . S
C732 H735 0.930 . S
C733 C730 1.348 . S
C733 C731 1.356 . S
H734 C728 0.930 . S
H735 C732 0.930 . S
C736 C738 1.348 . S
C736 C739 1.356 . S
C736 O766 1.325 . S
N737 C740 1.314 . S
N737 C741 1.279 . S
C738 C736 1.348 . S
C738 C740 1.353 . S
C738 H780 0.929 . S
C739 C736 1.356 . S
C739 C741 1.358 . S
C739 H781 0.930 . S
C740 N737 1.314 . S
C740 C738 1.353 . S
C740 H782 0.930 . S
C741 N737 1.279 . S
C741 C739 1.358 . S
C741 H783 0.930 . S
C742 C743 1.348 . S
C742 C744 1.356 . S
C742 O767 1.325 . S
C743 C742 1.348 . S
C743 C745 1.353 . S
C743 H784 0.929 . S
C744 C742 1.356 . S
C744 C746 1.358 . S
C744 H785 0.930 . S
C745 C743 1.353 . S
C745 N747 1.314 . S
C745 H786 0.930 . S
C746 C744 1.358 . S
C746 N747 1.279 . S
C746 H787 0.930 . S
N747 C745 1.314 . S
N747 C746 1.279 . S
C748 C750 1.353 . S
C748 N751 1.314 . S
C748 H754 0.930 . S
C749 N751 1.279 . S
C749 C752 1.358 . S
C749 H755 0.930 . S
C750 C748 1.353 . S
C750 C753 1.348 . S
C750 H788 0.929 . S
N751 Li706 1.990 . S
N751 C748 1.314 . S
N751 C749 1.279 . S
C752 C749 1.358 . S
C752 C753 1.356 . S
C752 H789 0.930 . S
C753 C750 1.348 . S
C753 C752 1.356 . S
H754 C748 0.930 . S
H755 C749 0.930 . S
C756 N757 1.314 . S
C756 C758 1.353 . S
C756 H762 0.930 . S
N757 Li707 1.990 . S
N757 C756 1.314 . S
N757 C760 1.279 . S
C758 C756 1.353 . S
C758 C761 1.348 . S
C758 H790 0.929 . S
C759 C760 1.358 . S
C759 C761 1.356 . S
C759 H791 0.930 . S
C760 N757 1.279 . S
C760 C759 1.358 . S
C760 H763 0.930 . S
C761 C758 1.348 . S
C761 C759 1.356 . S
H762 C756 0.930 . S
H763 C760 0.930 . S
O764 Li704 1.956 . S
O764 Li705 1.970 . S
O764 Li706 1.961 . S
O764 C708 1.325 . S
O765 Li704 1.970 . S
O765 Li705 1.956 . S
O765 Li707 1.961 . S
O765 C714 1.325 . S
O766 Li704 1.961 . S
O766 Li706 1.956 . S
O766 Li707 1.970 . S
O766 C736 1.325 . S
O767 Li705 1.961 . S
O767 Li706 1.970 . S
O767 Li707 1.956 . S
O767 C742 1.325 . S
H768 C710 0.929 . S
H769 C711 0.930 . S
H770 C712 0.930 . S
H771 C713 0.930 . S
H772 C715 0.930 . S
H773 C717 0.929 . S
H774 C718 0.930 . S
H775 C719 0.930 . S
H776 C722 0.930 . S
H777 C725 0.929 . S
H778 C730 0.929 . S
H779 C731 0.930 . S
H780 C738 0.929 . S
H781 C739 0.930 . S
H782 C740 0.930 . S
H783 C741 0.930 . S
H784 C743 0.929 . S
H785 C744 0.930 . S
H786 C745 0.930 . S
H787 C746 0.930 . S
H788 C750 0.929 . S
H789 C752 0.930 . S
H790 C758 0.929 . S
H791 C759 0.930 . S
Li792 N809 1.990 . S
Li792 O852 1.956 . S
Li792 O853 1.970 1_556 S
Li792 O854 1.961 1_455 S
Li793 N817 1.984 1_556 S
Li793 O852 1.970 . S
Li793 O853 1.956 1_556 S
Li793 O855 1.961 . S
Li794 N839 1.990 . S
Li794 O852 1.961 . S
Li794 O854 1.956 1_455 S
Li794 O855 1.970 . S
Li795 N845 1.990 1_456 S
Li795 O853 1.961 1_556 S
Li795 O854 1.970 1_455 S
Li795 O855 1.956 . S
C796 C798 1.348 . S
C796 C799 1.356 . S
C796 O852 1.325 . S
N797 C800 1.314 . S
N797 C801 1.279 . S
C798 C796 1.348 . S
C798 C800 1.353 . S
C798 H856 0.929 . S
C799 C796 1.356 . S
C799 C801 1.358 . S
C799 H857 0.930 . S
C800 N797 1.314 . S
C800 C798 1.353 . S
C800 H858 0.930 . S
C801 N797 1.279 . S
C801 C799 1.358 . S
C801 H859 0.930 . S
C802 C805 1.348 . S
C802 C806 1.356 . S
C802 O853 1.325 . S
C803 N804 1.279 . S
C803 C806 1.358 . S
C803 H860 0.930 . S
N804 C803 1.279 . S
N804 C807 1.314 . S
C805 C802 1.348 . S
C805 C807 1.353 . S
C805 H861 0.929 . S
C806 C802 1.356 . S
C806 C803 1.358 . S
C806 H862 0.930 . S
C807 N804 1.314 . S
C807 C805 1.353 . S
C807 H863 0.930 . S
C808 N809 1.314 1_655 S
C808 C813 1.353 1_556 S
C808 H814 0.930 1_556 S
N809 Li792 1.990 . S
N809 C808 1.314 1_455 S
N809 C811 1.279 . S
C810 C811 1.358 . S
C810 C812 1.356 1_455 S
C810 H864 0.930 . S
C811 N809 1.279 . S
C811 C810 1.358 . S
C811 H815 0.930 . S
C812 C810 1.356 1_655 S
C812 C813 1.348 1_556 S
C813 C808 1.353 1_554 S
C813 C812 1.348 1_554 S
C813 H865 0.929 . S
H814 C808 0.930 1_554 S
H815 C811 0.930 . S
C816 N817 1.302 1_556 S
C816 C818 1.353 . S
C816 H822 0.930 . S
N817 Li793 1.984 1_554 S
N817 C816 1.302 1_554 S
N817 C820 1.297 . S
C818 C816 1.353 . S
C818 C821 1.348 1_556 S
C818 H866 0.929 . S
C819 C820 1.358 . S
C819 C821 1.356 . S
C819 H867 0.930 . S
C820 N817 1.297 . S
C820 C819 1.358 . S
C820 H823 0.930 . S
C821 C818 1.348 1_554 S
C821 C819 1.356 . S
H822 C816 0.930 . S
H823 C820 0.930 . S
C824 C826 1.348 . S
C824 C827 1.356 . S
C824 O854 1.325 . S
N825 C828 1.314 . S
N825 C829 1.279 . S
C826 C824 1.348 . S
C826 C828 1.353 . S
C826 H868 0.929 . S
C827 C824 1.356 . S
C827 C829 1.358 . S
C827 H869 0.930 . S
C828 N825 1.314 . S
C828 C826 1.353 . S
C828 H870 0.930 . S
C829 N825 1.279 . S
C829 C827 1.358 . S
C829 H871 0.930 . S
C830 C831 1.348 . S
C830 C832 1.356 . S
C830 O855 1.325 . S
C831 C830 1.348 . S
C831 C833 1.353 . S
C831 H872 0.929 . S
C832 C830 1.356 . S
C832 C834 1.358 . S
C832 H873 0.930 1_556 S
C833 C831 1.353 . S
C833 N835 1.314 . S
C833 H874 0.930 . S
C834 C832 1.358 . S
C834 N835 1.279 . S
C834 H875 0.936 . S
N835 C833 1.314 . S
N835 C834 1.279 . S
C836 C838 1.353 . S
C836 N839 1.314 . S
C836 H842 0.930 . S
C837 N839 1.279 1_655 S
C837 C840 1.358 . S
C837 H843 0.930 . S
C838 C836 1.353 . S
C838 C841 1.383 . S
C838 H876 0.929 . S
N839 Li794 1.990 . S
N839 C836 1.314 . S
N839 C837 1.279 1_455 S
C840 C837 1.358 . S
C840 C841 1.326 1_655 S
C840 H877 0.930 . S
C841 C838 1.383 . S
C841 C840 1.326 1_455 S
H842 C836 0.930 . S
H843 C837 0.930 . S
C844 N845 1.314 . S
C844 C846 1.353 . S
C844 H850 0.930 . S
N845 Li795 1.990 1_654 S
N845 C844 1.314 . S
N845 C848 1.279 . S
C846 C844 1.353 . S
C846 C849 1.348 . S
C846 H878 0.929 . S
C847 C848 1.358 . S
C847 C849 1.356 . S
C847 H879 0.930 . S
C848 N845 1.279 . S
C848 C847 1.358 . S
C848 H851 0.930 . S
C849 C846 1.348 . S
C849 C847 1.356 . S
H850 C844 0.930 . S
H851 C848 0.930 . S
O852 Li792 1.956 . S
O852 Li793 1.970 . S
O852 Li794 1.961 . S
O852 C796 1.325 . S
O853 Li792 1.970 1_554 S
O853 Li793 1.956 1_554 S
O853 Li795 1.961 1_554 S
O853 C802 1.325 . S
O854 Li792 1.961 1_655 S
O854 Li794 1.956 1_655 S
O854 Li795 1.970 1_655 S
O854 C824 1.325 . S
O855 Li793 1.961 . S
O855 Li794 1.970 . S
O855 Li795 1.956 . S
O855 C830 1.325 . S
H856 C798 0.929 . S
H857 C799 0.930 . S
H858 C800 0.930 . S
H859 C801 0.930 . S
H860 C803 0.930 . S
H861 C805 0.929 . S
H862 C806 0.930 . S
H863 C807 0.930 . S
H864 C810 0.930 . S
H865 C813 0.929 . S
H866 C818 0.929 . S
H867 C819 0.930 . S
H868 C826 0.929 . S
H869 C827 0.930 . S
H870 C828 0.930 . S
H871 C829 0.930 . S
H872 C831 0.929 . S
H873 C832 0.930 1_554 S
H874 C833 0.930 . S
H875 C834 0.936 . S
H876 C838 0.929 . S
H877 C840 0.930 . S
H878 C846 0.929 . S
H879 C847 0.930 . S
Li880 N897 1.990 . S
Li880 O940 1.956 . S
Li880 O941 1.970 . S
Li880 O942 1.961 . S
Li881 N905 1.990 . S
Li881 O940 1.970 . S
Li881 O941 1.956 . S
Li881 O943 1.961 . S
Li882 N927 1.990 . S
Li882 O940 1.961 . S
Li882 O942 1.956 . S
Li882 O943 1.970 . S
Li883 N933 1.990 . S
Li883 O941 1.961 . S
Li883 O942 1.970 . S
Li883 O943 1.956 . S
C884 C886 1.348 . S
C884 C887 1.356 . S
C884 O940 1.325 . S
N885 C888 1.314 . S
N885 C889 1.279 . S
C886 C884 1.348 . S
C886 C888 1.353 . S
C886 H944 0.929 . S
C887 C884 1.356 . S
C887 C889 1.358 . S
C887 H945 0.930 . S
C888 N885 1.314 . S
C888 C886 1.353 . S
C888 H946 0.930 . S
C889 N885 1.279 . S
C889 C887 1.358 . S
C889 H947 0.930 . S
C890 C893 1.348 . S
C890 C894 1.356 . S
C890 O941 1.325 . S
C891 N892 1.279 . S
C891 C894 1.358 . S
C891 H948 0.930 . S
N892 C891 1.279 . S
N892 C895 1.314 . S
C893 C890 1.348 . S
C893 C895 1.353 . S
C893 H949 0.929 . S
C894 C890 1.356 . S
C894 C891 1.358 . S
C894 H950 0.930 . S
C895 N892 1.314 . S
C895 C893 1.353 . S
C895 H951 0.930 . S
C896 N897 1.314 . S
C896 C901 1.353 . S
C896 H902 0.930 . S
N897 Li880 1.990 . S
N897 C896 1.314 . S
N897 C899 1.279 . S
C898 C899 1.358 . S
C898 C900 1.356 . S
C898 H952 0.930 . S
C899 N897 1.279 . S
C899 C898 1.358 . S
C899 H903 0.930 . S
C900 C898 1.356 . S
C900 C901 1.348 . S
C901 C896 1.353 . S
C901 C900 1.348 . S
C901 H953 0.929 . S
H902 C896 0.930 . S
H903 C899 0.930 . S
C904 N905 1.314 . S
C904 C906 1.353 . S
C904 H910 0.930 . S
N905 Li881 1.990 . S
N905 C904 1.314 . S
N905 C908 1.279 . S
C906 C904 1.353 . S
C906 C909 1.348 . S
C906 H954 0.929 . S
C907 C908 1.358 . S
C907 C909 1.356 . S
C907 H955 0.930 . S
C908 N905 1.279 . S
C908 C907 1.358 . S
C908 H911 0.930 . S
C909 C906 1.348 . S
C909 C907 1.356 . S
H910 C904 0.930 . S
H911 C908 0.930 . S
C912 C914 1.348 . S
C912 C915 1.356 . S
C912 O942 1.325 . S
N913 C916 1.314 . S
N913 C917 1.279 . S
C914 C912 1.348 . S
C914 C916 1.353 . S
C914 H956 0.929 . S
C915 C912 1.356 . S
C915 C917 1.358 . S
C915 H957 0.930 . S
C916 N913 1.314 . S
C916 C914 1.353 . S
C916 H958 0.930 . S
C917 N913 1.279 . S
C917 C915 1.358 . S
C917 H959 0.930 . S
C918 C919 1.348 . S
C918 C920 1.356 . S
C918 O943 1.325 . S
C919 C918 1.348 . S
C919 C921 1.353 . S
C919 H960 0.929 . S
C920 C918 1.356 . S
C920 C922 1.358 . S
C920 H961 0.930 . S
C921 C919 1.353 . S
C921 N923 1.314 . S
C921 H962 0.930 . S
C922 C920 1.358 . S
C922 N923 1.279 . S
C922 H963 0.930 . S
N923 C921 1.314 . S
N923 C922 1.279 . S
C924 C926 1.353 . S
C924 N927 1.314 . S
C924 H930 0.930 . S
C925 N927 1.279 . S
C925 C928 1.358 . S
C925 H931 0.930 . S
C926 C924 1.353 . S
C926 C929 1.348 . S
C926 H964 0.929 . S
N927 Li882 1.990 . S
N927 C924 1.314 . S
N927 C925 1.279 . S
C928 C925 1.358 . S
C928 C929 1.356 . S
C928 H965 0.930 . S
C929 C926 1.348 . S
C929 C928 1.356 . S
H930 C924 0.930 . S
H931 C925 0.930 . S
C932 N933 1.314 . S
C932 C934 1.353 . S
C932 H938 0.930 . S
N933 Li883 1.990 . S
N933 C932 1.314 . S
N933 C936 1.279 . S
C934 C932 1.353 . S
C934 C937 1.348 . S
C934 H966 0.929 . S
C935 C936 1.358 . S
C935 C937 1.356 . S
C935 H967 0.930 . S
C936 N933 1.279 . S
C936 C935 1.358 . S
C936 H939 0.930 . S
C937 C934 1.348 . S
C937 C935 1.356 . S
H938 C932 0.930 . S
H939 C936 0.930 . S
O940 Li880 1.956 . S
O940 Li881 1.970 . S
O940 Li882 1.961 . S
O940 C884 1.325 . S
O941 Li880 1.970 . S
O941 Li881 1.956 . S
O941 Li883 1.961 . S
O941 C890 1.325 . S
O942 Li880 1.961 . S
O942 Li882 1.956 . S
O942 Li883 1.970 . S
O942 C912 1.325 . S
O943 Li881 1.961 . S
O943 Li882 1.970 . S
O943 Li883 1.956 . S
O943 C918 1.325 . S
H944 C886 0.929 . S
H945 C887 0.930 . S
H946 C888 0.930 . S
H947 C889 0.930 . S
H948 C891 0.930 . S
H949 C893 0.929 . S
H950 C894 0.930 . S
H951 C895 0.930 . S
H952 C898 0.930 . S
H953 C901 0.929 . S
H954 C906 0.929 . S
H955 C907 0.930 . S
H956 C914 0.929 . S
H957 C915 0.930 . S
H958 C916 0.930 . S
H959 C917 0.930 . S
H960 C919 0.929 . S
H961 C920 0.930 . S
H962 C921 0.930 . S
H963 C922 0.930 . S
H964 C926 0.929 . S
H965 C928 0.930 . S
H966 C934 0.929 . S
H967 C935 0.930 . S
Li968 N985 1.990 . S
Li968 O1028 1.956 . S
Li968 O1029 1.970 1_455 S
Li968 O1030 1.961 . S
Li969 N993 1.985 1_455 S
Li969 O1028 1.970 . S
Li969 O1029 1.956 1_455 S
Li969 O1031 1.961 . S
Li970 N1015 1.990 . S
Li970 O1028 1.961 . S
Li970 O1030 1.956 . S
Li970 O1031 1.970 . S
Li971 N1021 1.990 1_455 S
Li971 O1029 1.961 1_455 S
Li971 O1030 1.970 . S
Li971 O1031 1.956 . S
C972 C974 1.348 . S
C972 C975 1.356 . S
C972 O1028 1.325 . S
N973 C976 1.314 . S
N973 C977 1.279 . S
C974 C972 1.348 . S
C974 C976 1.353 . S
C974 H1032 0.929 . S
C975 C972 1.356 . S
C975 C977 1.358 . S
C975 H1033 0.930 . S
C976 N973 1.314 . S
C976 C974 1.353 . S
C976 H1034 0.930 . S
C977 N973 1.279 . S
C977 C975 1.358 . S
C977 H1035 0.930 . S
C978 C981 1.348 . S
C978 C982 1.356 . S
C978 O1029 1.325 . S
C979 N980 1.279 . S
C979 C982 1.358 . S
C979 H1036 0.930 . S
N980 C979 1.279 . S
N980 C983 1.314 . S
C981 C978 1.348 . S
C981 C983 1.353 . S
C981 H1037 0.929 . S
C982 C978 1.356 . S
C982 C979 1.358 . S
C982 H1038 0.930 . S
C983 N980 1.314 . S
C983 C981 1.353 . S
C983 H1039 0.930 . S
C984 N985 1.314 . S
C984 C989 1.353 1_455 S
C984 H990 0.930 1_455 S
N985 Li968 1.990 . S
N985 C984 1.314 . S
N985 C987 1.279 . S
C986 C987 1.358 . S
C986 C988 1.356 . S
C986 H1040 0.930 . S
C987 N985 1.279 . S
C987 C986 1.358 . S
C987 H991 0.930 . S
C988 C986 1.356 . S
C988 C989 1.348 1_455 S
C989 C984 1.353 1_655 S
C989 C988 1.348 1_655 S
C989 H1041 0.929 . S
H990 C984 0.930 1_655 S
H991 C987 0.930 . S
C992 N993 1.303 1_455 S
C992 C994 1.353 . S
C992 H998 0.930 . S
N993 Li969 1.985 1_655 S
N993 C992 1.303 1_655 S
N993 C996 1.295 . S
C994 C992 1.353 . S
C994 C997 1.348 1_455 S
C994 H1042 0.929 . S
C995 C996 1.358 . S
C995 C997 1.356 . S
C995 H1043 0.930 . S
C996 N993 1.295 . S
C996 C995 1.358 . S
C996 H999 0.930 . S
C997 C994 1.348 1_655 S
C997 C995 1.356 . S
H998 C992 0.930 . S
H999 C996 0.930 . S
C1000 C1002 1.348 . S
C1000 C1003 1.356 . S
C1000 O1030 1.325 . S
N1001 C1004 1.314 . S
N1001 C1005 1.279 . S
C1002 C1000 1.348 . S
C1002 C1004 1.353 . S
C1002 H1044 0.929 . S
C1003 C1000 1.356 . S
C1003 C1005 1.358 . S
C1003 H1045 0.930 . S
C1004 N1001 1.314 . S
C1004 C1002 1.353 . S
C1004 H1046 0.930 . S
C1005 N1001 1.279 . S
C1005 C1003 1.358 . S
C1005 H1047 0.930 . S
C1006 C1007 1.348 . S
C1006 C1008 1.356 . S
C1006 O1031 1.325 . S
C1007 C1006 1.348 . S
C1007 C1009 1.353 . S
C1007 H1048 0.929 . S
C1008 C1006 1.356 . S
C1008 C1010 1.358 . S
C1008 H1049 0.930 1_455 S
C1009 C1007 1.353 . S
C1009 N1011 1.314 . S
C1009 H1050 0.930 . S
C1010 C1008 1.358 . S
C1010 N1011 1.279 . S
C1010 H1051 0.938 . S
N1011 C1009 1.314 . S
N1011 C1010 1.279 . S
C1012 C1014 1.353 . S
C1012 N1015 1.314 . S
C1012 H1018 0.930 . S
C1013 N1015 1.279 . S
C1013 C1016 1.358 . S
C1013 H1019 0.930 . S
C1014 C1012 1.353 . S
C1014 C1017 1.348 . S
C1014 H1052 0.929 . S
N1015 Li970 1.990 . S
N1015 C1012 1.314 . S
N1015 C1013 1.279 . S
C1016 C1013 1.358 . S
C1016 C1017 1.356 . S
C1016 H1053 0.930 . S
C1017 C1014 1.348 . S
C1017 C1016 1.356 . S
H1018 C1012 0.930 . S
H1019 C1013 0.930 . S
C1020 N1021 1.314 . S
C1020 C1022 1.353 . S
C1020 H1026 0.930 . S
N1021 Li971 1.990 1_655 S
N1021 C1020 1.314 . S
N1021 C1024 1.279 . S
C1022 C1020 1.353 . S
C1022 C1025 1.348 . S
C1022 H1054 0.929 . S
C1023 C1024 1.358 . S
C1023 C1025 1.356 . S
C1023 H1055 0.930 . S
C1024 N1021 1.279 . S
C1024 C1023 1.358 . S
C1024 H1027 0.930 . S
C1025 C1022 1.348 . S
C1025 C1023 1.356 . S
H1026 C1020 0.930 . S
H1027 C1024 0.930 . S
O1028 Li968 1.956 . S
O1028 Li969 1.970 . S
O1028 Li970 1.961 . S
O1028 C972 1.325 . S
O1029 Li968 1.970 1_655 S
O1029 Li969 1.956 1_655 S
O1029 Li971 1.961 1_655 S
O1029 C978 1.325 . S
O1030 Li968 1.961 . S
O1030 Li970 1.956 . S
O1030 Li971 1.970 . S
O1030 C1000 1.325 . S
O1031 Li969 1.961 . S
O1031 Li970 1.970 . S
O1031 Li971 1.956 . S
O1031 C1006 1.325 . S
H1032 C974 0.929 . S
H1033 C975 0.930 . S
H1034 C976 0.930 . S
H1035 C977 0.930 . S
H1036 C979 0.930 . S
H1037 C981 0.929 . S
H1038 C982 0.930 . S
H1039 C983 0.930 . S
H1040 C986 0.930 . S
H1041 C989 0.929 . S
H1042 C994 0.929 . S
H1043 C995 0.930 . S
H1044 C1002 0.929 . S
H1045 C1003 0.930 . S
H1046 C1004 0.930 . S
H1047 C1005 0.930 . S
H1048 C1007 0.929 . S
H1049 C1008 0.930 1_655 S
H1050 C1009 0.930 . S
H1051 C1010 0.938 . S
H1052 C1014 0.929 . S
H1053 C1016 0.930 . S
H1054 C1022 0.929 . S
H1055 C1023 0.930 . S
Li1056 N1073 1.990 . S
Li1056 O1116 1.956 . S
Li1056 O1117 1.970 1_554 S
Li1056 O1118 1.961 . S
Li1057 N1081 1.990 1_554 S
Li1057 O1116 1.970 . S
Li1057 O1117 1.956 1_554 S
Li1057 O1119 1.961 . S
Li1058 N1103 1.990 . S
Li1058 O1116 1.961 . S
Li1058 O1118 1.956 . S
Li1058 O1119 1.970 . S
Li1059 N1109 1.979 1_554 S
Li1059 O1117 1.954 1_554 S
Li1059 O1118 1.983 . S
Li1059 O1119 1.968 . S
C1060 C1062 1.348 . S
C1060 C1063 1.356 . S
C1060 O1116 1.325 . S
N1061 C1064 1.314 . S
N1061 C1065 1.279 . S
C1062 C1060 1.348 . S
C1062 C1064 1.353 . S
C1062 H1120 0.929 . S
C1063 C1060 1.356 . S
C1063 C1065 1.358 . S
C1063 H1121 0.930 . S
C1064 N1061 1.314 . S
C1064 C1062 1.353 . S
C1064 H1122 0.930 . S
C1065 N1061 1.279 . S
C1065 C1063 1.358 . S
C1065 H1123 0.930 . S
C1066 C1069 1.348 . S
C1066 C1070 1.356 . S
C1066 O1117 1.325 . S
C1067 N1068 1.279 . S
C1067 C1070 1.358 . S
C1067 H1124 0.930 . S
N1068 C1067 1.279 . S
N1068 C1071 1.314 . S
C1069 C1066 1.348 . S
C1069 C1071 1.353 . S
C1069 H1125 0.929 . S
C1070 C1066 1.356 . S
C1070 C1067 1.358 . S
C1070 H1126 0.930 . S
C1071 N1068 1.314 . S
C1071 C1069 1.353 . S
C1071 H1127 0.930 . S
C1072 N1073 1.318 . S
C1072 C1077 1.351 1_554 S
C1072 H1078 0.927 1_554 S
N1073 Li1056 1.990 . S
N1073 C1072 1.318 . S
N1073 C1075 1.279 . S
C1074 C1075 1.358 . S
C1074 C1076 1.356 . S
C1074 H1128 0.930 . S
C1075 N1073 1.279 . S
C1075 C1074 1.358 . S
C1075 H1079 0.930 . S
C1076 C1074 1.356 . S
C1076 C1077 1.348 1_554 S
C1077 C1072 1.351 1_556 S
C1077 C1076 1.348 1_556 S
C1077 H1129 0.929 . S
H1078 C1072 0.927 1_556 S
H1079 C1075 0.930 . S
C1080 N1081 1.314 1_554 S
C1080 C1082 1.353 . S
C1080 H1086 0.930 . S
N1081 Li1057 1.990 1_556 S
N1081 C1080 1.314 1_556 S
N1081 C1084 1.279 . S
C1082 C1080 1.353 . S
C1082 C1085 1.348 1_554 S
C1082 H1130 0.929 . S
C1083 C1084 1.358 . S
C1083 C1085 1.356 . S
C1083 H1131 0.930 . S
C1084 N1081 1.279 . S
C1084 C1083 1.358 . S
C1084 H1087 0.930 . S
C1085 C1082 1.348 1_556 S
C1085 C1083 1.356 . S
H1086 C1080 0.930 . S
H1087 C1084 0.930 . S
C1088 C1090 1.348 . S
C1088 C1091 1.356 . S
C1088 O1118 1.325 . S
N1089 C1092 1.314 . S
N1089 C1093 1.279 . S
C1090 C1088 1.348 . S
C1090 C1092 1.353 . S
C1090 H1132 0.929 . S
C1091 C1088 1.356 . S
C1091 C1093 1.358 . S
C1091 H1133 0.930 . S
C1092 N1089 1.314 . S
C1092 C1090 1.353 . S
C1092 H1134 0.930 . S
C1093 N1089 1.279 . S
C1093 C1091 1.358 . S
C1093 H1135 0.930 . S
C1094 C1095 1.348 . S
C1094 C1096 1.356 . S
C1094 O1119 1.325 . S
C1095 C1094 1.348 . S
C1095 C1097 1.353 . S
C1095 H1136 0.929 . S
C1096 C1094 1.356 . S
C1096 C1098 1.358 . S
C1096 H1137 0.930 1_554 S
C1097 C1095 1.353 . S
C1097 N1099 1.314 . S
C1097 H1138 0.930 . S
C1098 C1096 1.358 . S
C1098 N1099 1.279 . S
C1098 H1139 0.920 1_554 S
N1099 C1097 1.314 . S
N1099 C1098 1.279 . S
C1100 C1102 1.353 . S
C1100 N1103 1.314 . S
C1100 H1106 0.930 . S
C1101 N1103 1.279 . S
C1101 C1104 1.358 . S
C1101 H1107 0.930 . S
C1102 C1100 1.353 . S
C1102 C1105 1.348 . S
C1102 H1140 0.929 . S
N1103 Li1058 1.990 . S
N1103 C1100 1.314 . S
N1103 C1101 1.279 . S
C1104 C1101 1.358 . S
C1104 C1105 1.356 . S
C1104 H1141 0.930 . S
C1105 C1102 1.348 . S
C1105 C1104 1.356 . S
H1106 C1100 0.930 . S
H1107 C1101 0.930 . S
C1108 N1109 1.314 . S
C1108 C1110 1.353 . S
C1108 H1114 0.930 . S
N1109 Li1059 1.979 1_556 S
N1109 C1108 1.314 . S
N1109 C1112 1.279 . S
C1110 C1108 1.353 . S
C1110 C1113 1.348 . S
C1110 H1142 0.929 . S
C1111 C1112 1.358 . S
C1111 C1113 1.356 . S
C1111 H1143 0.930 . S
C1112 N1109 1.279 . S
C1112 C1111 1.358 . S
C1112 H1115 0.930 . S
C1113 C1110 1.348 . S
C1113 C1111 1.356 . S
H1114 C1108 0.930 . S
H1115 C1112 0.930 . S
O1116 Li1056 1.956 . S
O1116 Li1057 1.970 . S
O1116 Li1058 1.961 . S
O1116 C1060 1.325 . S
O1117 Li1056 1.970 1_556 S
O1117 Li1057 1.956 1_556 S
O1117 Li1059 1.954 1_556 S
O1117 C1066 1.325 . S
O1118 Li1056 1.961 . S
O1118 Li1058 1.956 . S
O1118 Li1059 1.983 . S
O1118 C1088 1.325 . S
O1119 Li1057 1.961 . S
O1119 Li1058 1.970 . S
O1119 Li1059 1.968 . S
O1119 C1094 1.325 . S
H1120 C1062 0.929 . S
H1121 C1063 0.930 . S
H1122 C1064 0.930 . S
H1123 C1065 0.930 . S
H1124 C1067 0.930 . S
H1125 C1069 0.929 . S
H1126 C1070 0.930 . S
H1127 C1071 0.930 . S
H1128 C1074 0.930 . S
H1129 C1077 0.929 . S
H1130 C1082 0.929 . S
H1131 C1083 0.930 . S
H1132 C1090 0.929 . S
H1133 C1091 0.930 . S
H1134 C1092 0.930 . S
H1135 C1093 0.930 . S
H1136 C1095 0.929 . S
H1137 C1096 0.930 1_556 S
H1138 C1097 0.930 . S
H1139 C1098 0.920 1_556 S
H1140 C1102 0.929 . S
H1141 C1104 0.930 . S
H1142 C1110 0.929 . S
H1143 C1111 0.930 . S
Li1144 N1161 1.990 . S
Li1144 O1204 1.956 . S
Li1144 O1205 1.970 . S
Li1144 O1206 1.961 . S
Li1145 N1169 1.990 . S
Li1145 O1204 1.970 . S
Li1145 O1205 1.956 . S
Li1145 O1207 1.961 . S
Li1146 N1191 1.990 . S
Li1146 O1204 1.961 . S
Li1146 O1206 1.956 . S
Li1146 O1207 1.970 . S
Li1147 N1197 1.990 . S
Li1147 O1205 1.961 . S
Li1147 O1206 1.970 . S
Li1147 O1207 1.956 . S
C1148 C1150 1.348 . S
C1148 C1151 1.356 . S
C1148 O1204 1.325 . S
N1149 C1152 1.314 . S
N1149 C1153 1.279 . S
C1150 C1148 1.348 . S
C1150 C1152 1.353 . S
C1150 H1208 0.929 . S
C1151 C1148 1.356 . S
C1151 C1153 1.358 . S
C1151 H1209 0.930 . S
C1152 N1149 1.314 . S
C1152 C1150 1.353 . S
C1152 H1210 0.930 . S
C1153 N1149 1.279 . S
C1153 C1151 1.358 . S
C1153 H1211 0.930 . S
C1154 C1157 1.348 . S
C1154 C1158 1.356 . S
C1154 O1205 1.325 . S
C1155 N1156 1.279 . S
C1155 C1158 1.358 . S
C1155 H1212 0.930 . S
N1156 C1155 1.279 . S
N1156 C1159 1.314 . S
C1157 C1154 1.348 . S
C1157 C1159 1.353 . S
C1157 H1213 0.929 . S
C1158 C1154 1.356 . S
C1158 C1155 1.358 . S
C1158 H1214 0.930 . S
C1159 N1156 1.314 . S
C1159 C1157 1.353 . S
C1159 H1215 0.930 . S
C1160 N1161 1.314 . S
C1160 C1165 1.353 . S
C1160 H1166 0.930 . S
N1161 Li1144 1.990 . S
N1161 C1160 1.314 . S
N1161 C1163 1.279 . S
C1162 C1163 1.358 . S
C1162 C1164 1.356 . S
C1162 H1216 0.930 . S
C1163 N1161 1.279 . S
C1163 C1162 1.358 . S
C1163 H1167 0.930 . S
C1164 C1162 1.356 . S
C1164 C1165 1.348 . S
C1165 C1160 1.353 . S
C1165 C1164 1.348 . S
C1165 H1217 0.929 . S
H1166 C1160 0.930 . S
H1167 C1163 0.930 . S
C1168 N1169 1.314 . S
C1168 C1170 1.353 . S
C1168 H1174 0.930 . S
N1169 Li1145 1.990 . S
N1169 C1168 1.314 . S
N1169 C1172 1.279 . S
C1170 C1168 1.353 . S
C1170 C1173 1.348 . S
C1170 H1218 0.929 . S
C1171 C1172 1.358 . S
C1171 C1173 1.356 . S
C1171 H1219 0.930 . S
C1172 N1169 1.279 . S
C1172 C1171 1.358 . S
C1172 H1175 0.930 . S
C1173 C1170 1.348 . S
C1173 C1171 1.356 . S
H1174 C1168 0.930 . S
H1175 C1172 0.930 . S
C1176 C1178 1.348 . S
C1176 C1179 1.356 . S
C1176 O1206 1.325 . S
N1177 C1180 1.314 . S
N1177 C1181 1.279 . S
C1178 C1176 1.348 . S
C1178 C1180 1.353 . S
C1178 H1220 0.929 . S
C1179 C1176 1.356 . S
C1179 C1181 1.358 . S
C1179 H1221 0.930 . S
C1180 N1177 1.314 . S
C1180 C1178 1.353 . S
C1180 H1222 0.930 . S
C1181 N1177 1.279 . S
C1181 C1179 1.358 . S
C1181 H1223 0.930 . S
C1182 C1183 1.348 . S
C1182 C1184 1.356 . S
C1182 O1207 1.325 . S
C1183 C1182 1.348 . S
C1183 C1185 1.353 . S
C1183 H1224 0.929 . S
C1184 C1182 1.356 . S
C1184 C1186 1.358 . S
C1184 H1225 0.930 . S
C1185 C1183 1.353 . S
C1185 N1187 1.314 . S
C1185 H1226 0.930 . S
C1186 C1184 1.358 . S
C1186 N1187 1.279 . S
C1186 H1227 0.930 . S
N1187 C1185 1.314 . S
N1187 C1186 1.279 . S
C1188 C1190 1.353 . S
C1188 N1191 1.314 . S
C1188 H1194 0.930 . S
C1189 N1191 1.279 . S
C1189 C1192 1.358 . S
C1189 H1195 0.930 . S
C1190 C1188 1.353 . S
C1190 C1193 1.348 . S
C1190 H1228 0.929 . S
N1191 Li1146 1.990 . S
N1191 C1188 1.314 . S
N1191 C1189 1.279 . S
C1192 C1189 1.358 . S
C1192 C1193 1.356 . S
C1192 H1229 0.930 . S
C1193 C1190 1.348 . S
C1193 C1192 1.356 . S
H1194 C1188 0.930 . S
H1195 C1189 0.930 . S
C1196 N1197 1.314 . S
C1196 C1198 1.353 . S
C1196 H1202 0.930 . S
N1197 Li1147 1.990 . S
N1197 C1196 1.314 . S
N1197 C1200 1.279 . S
C1198 C1196 1.353 . S
C1198 C1201 1.348 . S
C1198 H1230 0.929 . S
C1199 C1200 1.358 . S
C1199 C1201 1.356 . S
C1199 H1231 0.930 . S
C1200 N1197 1.279 . S
C1200 C1199 1.358 . S
C1200 H1203 0.930 . S
C1201 C1198 1.348 . S
C1201 C1199 1.356 . S
H1202 C1196 0.930 . S
H1203 C1200 0.930 . S
O1204 Li1144 1.956 . S
O1204 Li1145 1.970 . S
O1204 Li1146 1.961 . S
O1204 C1148 1.325 . S
O1205 Li1144 1.970 . S
O1205 Li1145 1.956 . S
O1205 Li1147 1.961 . S
O1205 C1154 1.325 . S
O1206 Li1144 1.961 . S
O1206 Li1146 1.956 . S
O1206 Li1147 1.970 . S
O1206 C1176 1.325 . S
O1207 Li1145 1.961 . S
O1207 Li1146 1.970 . S
O1207 Li1147 1.956 . S
O1207 C1182 1.325 . S
H1208 C1150 0.929 . S
H1209 C1151 0.930 . S
H1210 C1152 0.930 . S
H1211 C1153 0.930 . S
H1212 C1155 0.930 . S
H1213 C1157 0.929 . S
H1214 C1158 0.930 . S
H1215 C1159 0.930 . S
H1216 C1162 0.930 . S
H1217 C1165 0.929 . S
H1218 C1170 0.929 . S
H1219 C1171 0.930 . S
H1220 C1178 0.929 . S
H1221 C1179 0.930 . S
H1222 C1180 0.930 . S
H1223 C1181 0.930 . S
H1224 C1183 0.929 . S
H1225 C1184 0.930 . S
H1226 C1185 0.930 . S
H1227 C1186 0.930 . S
H1228 C1190 0.929 . S
H1229 C1192 0.930 . S
H1230 C1198 0.929 . S
H1231 C1199 0.930 . S
Li1232 N1249 1.990 . S
Li1232 O1292 1.956 . S
Li1232 O1293 1.970 . S
Li1232 O1294 1.961 . S
Li1233 N1257 1.990 . S
Li1233 O1292 1.970 . S
Li1233 O1293 1.956 . S
Li1233 O1295 1.961 . S
Li1234 N1279 1.990 . S
Li1234 O1292 1.961 . S
Li1234 O1294 1.956 . S
Li1234 O1295 1.970 . S
Li1235 N1285 1.990 . S
Li1235 O1293 1.961 . S
Li1235 O1294 1.970 . S
Li1235 O1295 1.956 . S
C1236 C1238 1.348 . S
C1236 C1239 1.356 . S
C1236 O1292 1.325 . S
N1237 C1240 1.314 . S
N1237 C1241 1.279 . S
C1238 C1236 1.348 . S
C1238 C1240 1.353 . S
C1238 H1296 0.929 . S
C1239 C1236 1.356 . S
C1239 C1241 1.358 . S
C1239 H1297 0.930 . S
C1240 N1237 1.314 . S
C1240 C1238 1.353 . S
C1240 H1298 0.930 . S
C1241 N1237 1.279 . S
C1241 C1239 1.358 . S
C1241 H1299 0.930 . S
C1242 C1245 1.348 . S
C1242 C1246 1.356 . S
C1242 O1293 1.325 . S
C1243 N1244 1.279 . S
C1243 C1246 1.358 . S
C1243 H1300 0.930 . S
N1244 C1243 1.279 . S
N1244 C1247 1.314 . S
C1245 C1242 1.348 . S
C1245 C1247 1.353 . S
C1245 H1301 0.929 . S
C1246 C1242 1.356 . S
C1246 C1243 1.358 . S
C1246 H1302 0.930 . S
C1247 N1244 1.314 . S
C1247 C1245 1.353 . S
C1247 H1303 0.930 . S
C1248 N1249 1.314 . S
C1248 C1253 1.353 . S
C1248 H1254 0.930 . S
N1249 Li1232 1.990 . S
N1249 C1248 1.314 . S
N1249 C1251 1.279 . S
C1250 C1251 1.358 . S
C1250 C1252 1.356 . S
C1250 H1304 0.930 . S
C1251 N1249 1.279 . S
C1251 C1250 1.358 . S
C1251 H1255 0.930 . S
C1252 C1250 1.356 . S
C1252 C1253 1.348 . S
C1253 C1248 1.353 . S
C1253 C1252 1.348 . S
C1253 H1305 0.929 . S
H1254 C1248 0.930 . S
H1255 C1251 0.930 . S
C1256 N1257 1.314 . S
C1256 C1258 1.353 . S
C1256 H1262 0.930 . S
N1257 Li1233 1.990 . S
N1257 C1256 1.314 . S
N1257 C1260 1.279 . S
C1258 C1256 1.353 . S
C1258 C1261 1.348 . S
C1258 H1306 0.929 . S
C1259 C1260 1.358 . S
C1259 C1261 1.356 . S
C1259 H1307 0.930 . S
C1260 N1257 1.279 . S
C1260 C1259 1.358 . S
C1260 H1263 0.930 . S
C1261 C1258 1.348 . S
C1261 C1259 1.356 . S
H1262 C1256 0.930 . S
H1263 C1260 0.930 . S
C1264 C1266 1.348 . S
C1264 C1267 1.356 . S
C1264 O1294 1.325 . S
N1265 C1268 1.314 . S
N1265 C1269 1.279 . S
C1266 C1264 1.348 . S
C1266 C1268 1.353 . S
C1266 H1308 0.929 . S
C1267 C1264 1.356 . S
C1267 C1269 1.358 . S
C1267 H1309 0.930 . S
C1268 N1265 1.314 . S
C1268 C1266 1.353 . S
C1268 H1310 0.930 . S
C1269 N1265 1.279 . S
C1269 C1267 1.358 . S
C1269 H1311 0.930 . S
C1270 C1271 1.348 . S
C1270 C1272 1.356 . S
C1270 O1295 1.325 . S
C1271 C1270 1.348 . S
C1271 C1273 1.353 . S
C1271 H1312 0.929 . S
C1272 C1270 1.356 . S
C1272 C1274 1.358 . S
C1272 H1313 0.930 . S
C1273 C1271 1.353 . S
C1273 N1275 1.314 . S
C1273 H1314 0.930 . S
C1274 C1272 1.358 . S
C1274 N1275 1.279 . S
C1274 H1315 0.930 . S
N1275 C1273 1.314 . S
N1275 C1274 1.279 . S
C1276 C1278 1.353 . S
C1276 N1279 1.314 . S
C1276 H1282 0.930 . S
C1277 N1279 1.279 . S
C1277 C1280 1.358 . S
C1277 H1283 0.930 . S
C1278 C1276 1.353 . S
C1278 C1281 1.348 . S
C1278 H1316 0.929 . S
N1279 Li1234 1.990 . S
N1279 C1276 1.314 . S
N1279 C1277 1.279 . S
C1280 C1277 1.358 . S
C1280 C1281 1.356 . S
C1280 H1317 0.930 . S
C1281 C1278 1.348 . S
C1281 C1280 1.356 . S
H1282 C1276 0.930 . S
H1283 C1277 0.930 . S
C1284 N1285 1.314 . S
C1284 C1286 1.353 . S
C1284 H1290 0.930 . S
N1285 Li1235 1.990 . S
N1285 C1284 1.314 . S
N1285 C1288 1.279 . S
C1286 C1284 1.353 . S
C1286 C1289 1.348 . S
C1286 H1318 0.929 . S
C1287 C1288 1.358 . S
C1287 C1289 1.356 . S
C1287 H1319 0.930 . S
C1288 N1285 1.279 . S
C1288 C1287 1.358 . S
C1288 H1291 0.930 . S
C1289 C1286 1.348 . S
C1289 C1287 1.356 . S
H1290 C1284 0.930 . S
H1291 C1288 0.930 . S
O1292 Li1232 1.956 . S
O1292 Li1233 1.970 . S
O1292 Li1234 1.961 . S
O1292 C1236 1.325 . S
O1293 Li1232 1.970 . S
O1293 Li1233 1.956 . S
O1293 Li1235 1.961 . S
O1293 C1242 1.325 . S
O1294 Li1232 1.961 . S
O1294 Li1234 1.956 . S
O1294 Li1235 1.970 . S
O1294 C1264 1.325 . S
O1295 Li1233 1.961 . S
O1295 Li1234 1.970 . S
O1295 Li1235 1.956 . S
O1295 C1270 1.325 . S
H1296 C1238 0.929 . S
H1297 C1239 0.930 . S
H1298 C1240 0.930 . S
H1299 C1241 0.930 . S
H1300 C1243 0.930 . S
H1301 C1245 0.929 . S
H1302 C1246 0.930 . S
H1303 C1247 0.930 . S
H1304 C1250 0.930 . S
H1305 C1253 0.929 . S
H1306 C1258 0.929 . S
H1307 C1259 0.930 . S
H1308 C1266 0.929 . S
H1309 C1267 0.930 . S
H1310 C1268 0.930 . S
H1311 C1269 0.930 . S
H1312 C1271 0.929 . S
H1313 C1272 0.930 . S
H1314 C1273 0.930 . S
H1315 C1274 0.930 . S
H1316 C1278 0.929 . S
H1317 C1280 0.930 . S
H1318 C1286 0.929 . S
H1319 C1287 0.930 . S
Li1320 N1337 1.990 . S
Li1320 O1380 1.956 . S
Li1320 O1381 1.970 . S
Li1320 O1382 1.961 . S
Li1321 N1345 1.990 . S
Li1321 O1380 1.970 . S
Li1321 O1381 1.956 . S
Li1321 O1383 1.961 . S
Li1322 N1367 1.990 . S
Li1322 O1380 1.961 . S
Li1322 O1382 1.956 . S
Li1322 O1383 1.970 . S
Li1323 N1373 1.990 . S
Li1323 O1381 1.961 . S
Li1323 O1382 1.970 . S
Li1323 O1383 1.956 . S
C1324 C1326 1.348 . S
C1324 C1327 1.356 . S
C1324 O1380 1.325 . S
N1325 C1328 1.314 . S
N1325 C1329 1.279 . S
C1326 C1324 1.348 . S
C1326 C1328 1.353 . S
C1326 H1384 0.929 . S
C1327 C1324 1.356 . S
C1327 C1329 1.358 . S
C1327 H1385 0.930 . S
C1328 N1325 1.314 . S
C1328 C1326 1.353 . S
C1328 H1386 0.930 . S
C1329 N1325 1.279 . S
C1329 C1327 1.358 . S
C1329 H1387 0.930 . S
C1330 C1333 1.348 . S
C1330 C1334 1.356 . S
C1330 O1381 1.325 . S
C1331 N1332 1.279 . S
C1331 C1334 1.358 . S
C1331 H1388 0.930 . S
N1332 C1331 1.279 . S
N1332 C1335 1.314 . S
C1333 C1330 1.348 . S
C1333 C1335 1.353 . S
C1333 H1389 0.929 . S
C1334 C1330 1.356 . S
C1334 C1331 1.358 . S
C1334 H1390 0.930 . S
C1335 N1332 1.314 . S
C1335 C1333 1.353 . S
C1335 H1391 0.930 . S
C1336 N1337 1.314 . S
C1336 C1341 1.353 . S
C1336 H1342 0.930 . S
N1337 Li1320 1.990 . S
N1337 C1336 1.314 . S
N1337 C1339 1.279 . S
C1338 C1339 1.358 . S
C1338 C1340 1.356 . S
C1338 H1392 0.930 . S
C1339 N1337 1.279 . S
C1339 C1338 1.358 . S
C1339 H1343 0.930 . S
C1340 C1338 1.356 . S
C1340 C1341 1.348 . S
C1341 C1336 1.353 . S
C1341 C1340 1.348 . S
C1341 H1393 0.929 . S
H1342 C1336 0.930 . S
H1343 C1339 0.930 . S
C1344 N1345 1.314 . S
C1344 C1346 1.353 . S
C1344 H1350 0.930 . S
N1345 Li1321 1.990 . S
N1345 C1344 1.314 . S
N1345 C1348 1.279 . S
C1346 C1344 1.353 . S
C1346 C1349 1.348 . S
C1346 H1394 0.929 . S
C1347 C1348 1.358 . S
C1347 C1349 1.356 . S
C1347 H1395 0.930 . S
C1348 N1345 1.279 . S
C1348 C1347 1.358 . S
C1348 H1351 0.930 . S
C1349 C1346 1.348 . S
C1349 C1347 1.356 . S
H1350 C1344 0.930 . S
H1351 C1348 0.930 . S
C1352 C1354 1.348 . S
C1352 C1355 1.356 . S
C1352 O1382 1.325 . S
N1353 C1356 1.314 . S
N1353 C1357 1.279 . S
C1354 C1352 1.348 . S
C1354 C1356 1.353 . S
C1354 H1396 0.929 . S
C1355 C1352 1.356 . S
C1355 C1357 1.358 . S
C1355 H1397 0.930 . S
C1356 N1353 1.314 . S
C1356 C1354 1.353 . S
C1356 H1398 0.930 . S
C1357 N1353 1.279 . S
C1357 C1355 1.358 . S
C1357 H1399 0.930 . S
C1358 C1359 1.348 . S
C1358 C1360 1.356 . S
C1358 O1383 1.325 . S
C1359 C1358 1.348 . S
C1359 C1361 1.353 . S
C1359 H1400 0.929 . S
C1360 C1358 1.356 . S
C1360 C1362 1.358 . S
C1360 H1401 0.930 . S
C1361 C1359 1.353 . S
C1361 N1363 1.314 . S
C1361 H1402 0.930 . S
C1362 C1360 1.358 . S
C1362 N1363 1.279 . S
C1362 H1403 0.930 . S
N1363 C1361 1.314 . S
N1363 C1362 1.279 . S
C1364 C1366 1.353 . S
C1364 N1367 1.314 . S
C1364 H1370 0.930 . S
C1365 N1367 1.279 . S
C1365 C1368 1.358 . S
C1365 H1371 0.930 . S
C1366 C1364 1.353 . S
C1366 C1369 1.348 . S
C1366 H1404 0.929 . S
N1367 Li1322 1.990 . S
N1367 C1364 1.314 . S
N1367 C1365 1.279 . S
C1368 C1365 1.358 . S
C1368 C1369 1.356 . S
C1368 H1405 0.930 . S
C1369 C1366 1.348 . S
C1369 C1368 1.356 . S
H1370 C1364 0.930 . S
H1371 C1365 0.930 . S
C1372 N1373 1.314 . S
C1372 C1374 1.353 . S
C1372 H1378 0.930 . S
N1373 Li1323 1.990 . S
N1373 C1372 1.314 . S
N1373 C1376 1.279 . S
C1374 C1372 1.353 . S
C1374 C1377 1.348 . S
C1374 H1406 0.929 . S
C1375 C1376 1.358 . S
C1375 C1377 1.356 . S
C1375 H1407 0.930 . S
C1376 N1373 1.279 . S
C1376 C1375 1.358 . S
C1376 H1379 0.930 . S
C1377 C1374 1.348 . S
C1377 C1375 1.356 . S
H1378 C1372 0.930 . S
H1379 C1376 0.930 . S
O1380 Li1320 1.956 . S
O1380 Li1321 1.970 . S
O1380 Li1322 1.961 . S
O1380 C1324 1.325 . S
O1381 Li1320 1.970 . S
O1381 Li1321 1.956 . S
O1381 Li1323 1.961 . S
O1381 C1330 1.325 . S
O1382 Li1320 1.961 . S
O1382 Li1322 1.956 . S
O1382 Li1323 1.970 . S
O1382 C1352 1.325 . S
O1383 Li1321 1.961 . S
O1383 Li1322 1.970 . S
O1383 Li1323 1.956 . S
O1383 C1358 1.325 . S
H1384 C1326 0.929 . S
H1385 C1327 0.930 . S
H1386 C1328 0.930 . S
H1387 C1329 0.930 . S
H1388 C1331 0.930 . S
H1389 C1333 0.929 . S
H1390 C1334 0.930 . S
H1391 C1335 0.930 . S
H1392 C1338 0.930 . S
H1393 C1341 0.929 . S
H1394 C1346 0.929 . S
H1395 C1347 0.930 . S
H1396 C1354 0.929 . S
H1397 C1355 0.930 . S
H1398 C1356 0.930 . S
H1399 C1357 0.930 . S
H1400 C1359 0.929 . S
H1401 C1360 0.930 . S
H1402 C1361 0.930 . S
H1403 C1362 0.930 . S
H1404 C1366 0.929 . S
H1405 C1368 0.930 . S
H1406 C1374 0.929 . S
H1407 C1375 0.930 . S
H1408 C1416 0.950 . S
H1409 C1421 0.950 . S
H1410 C1418 0.950 . S
H1411 C1420 0.950 . S
H1412 C1422 0.950 . S
H1413 C1424 0.950 . S
H1414 C1426 0.950 . S
H1415 C1427 0.950 . S
C1416 H1408 0.950 . S
C1416 C1417 1.386 . S
C1416 C1418 1.391 . S
C1417 C1416 1.386 . S
C1417 C1421 1.393 . S
C1418 H1410 0.950 . S
C1418 C1416 1.391 . S
C1418 C1419 1.400 . S
C1419 C1418 1.400 . S
C1419 C1420 1.398 . S
C1419 C1425 1.491 . S
C1420 H1411 0.950 . S
C1420 C1419 1.398 . S
C1420 C1421 1.391 . S
C1421 H1409 0.950 . S
C1421 C1417 1.393 . S
C1421 C1420 1.391 . S
C1422 H1412 0.950 . S
C1422 C1423 1.386 . S
C1422 C1424 1.391 . S
C1423 C1422 1.386 . S
C1423 C1427 1.393 . S
C1424 H1413 0.950 . S
C1424 C1422 1.391 . S
C1424 C1425 1.400 . S
C1425 C1419 1.491 . S
C1425 C1424 1.400 . S
C1425 C1426 1.398 . S
C1426 H1414 0.950 . S
C1426 C1425 1.398 . S
C1426 C1427 1.391 . S
C1427 H1415 0.950 . S
C1427 C1423 1.393 . S
C1427 C1426 1.391 . S
H1428 C1436 0.950 . S
H1429 C1441 0.950 . S
H1430 C1438 0.950 . S
H1431 C1440 0.950 . S
H1432 C1442 0.950 . S
H1433 C1444 0.950 . S
H1434 C1446 0.950 . S
H1435 C1447 0.950 . S
C1436 H1428 0.950 . S
C1436 C1437 1.386 . S
C1436 C1438 1.391 . S
C1437 C1436 1.386 . S
C1437 C1441 1.393 . S
C1438 H1430 0.950 . S
C1438 C1436 1.391 . S
C1438 C1439 1.400 . S
C1439 C1438 1.400 . S
C1439 C1440 1.398 . S
C1439 C1445 1.491 . S
C1440 H1431 0.950 . S
C1440 C1439 1.398 . S
C1440 C1441 1.391 . S
C1441 H1429 0.950 . S
C1441 C1437 1.393 . S
C1441 C1440 1.391 . S
C1442 H1432 0.950 . S
C1442 C1443 1.386 . S
C1442 C1444 1.391 . S
C1443 C1442 1.386 . S
C1443 C1447 1.393 . S
C1444 H1433 0.950 . S
C1444 C1442 1.391 . S
C1444 C1445 1.400 . S
C1445 C1439 1.491 . S
C1445 C1444 1.400 . S
C1445 C1446 1.398 . S
C1446 H1434 0.950 . S
C1446 C1445 1.398 . S
C1446 C1447 1.391 . S
C1447 H1435 0.950 . S
C1447 C1443 1.393 . S
C1447 C1446 1.391 . S
H1448 C1456 0.950 . S
H1449 C1461 0.950 . S
H1450 C1458 0.950 . S
H1451 C1460 0.950 . S
H1452 C1462 0.950 . S
H1453 C1464 0.950 . S
H1454 C1466 0.950 . S
H1455 C1467 0.950 . S
C1456 H1448 0.950 . S
C1456 C1457 1.386 . S
C1456 C1458 1.391 . S
C1457 C1456 1.386 . S
C1457 C1461 1.393 . S
C1458 H1450 0.950 . S
C1458 C1456 1.391 . S
C1458 C1459 1.400 . S
C1459 C1458 1.400 . S
C1459 C1460 1.398 . S
C1459 C1465 1.491 . S
C1460 H1451 0.950 . S
C1460 C1459 1.398 . S
C1460 C1461 1.391 . S
C1461 H1449 0.950 . S
C1461 C1457 1.393 . S
C1461 C1460 1.391 . S
C1462 H1452 0.950 . S
C1462 C1463 1.386 . S
C1462 C1464 1.391 . S
C1463 C1462 1.386 . S
C1463 C1467 1.393 . S
C1464 H1453 0.950 . S
C1464 C1462 1.391 . S
C1464 C1465 1.400 . S
C1465 C1459 1.491 . S
C1465 C1464 1.400 . S
C1465 C1466 1.398 . S
C1466 H1454 0.950 . S
C1466 C1465 1.398 . S
C1466 C1467 1.391 . S
C1467 H1455 0.950 . S
C1467 C1463 1.393 . S
C1467 C1466 1.391 . S
H1468 C1476 0.950 . S
H1469 C1481 0.950 . S
H1470 C1478 0.950 . S
H1471 C1480 0.950 . S
H1472 C1482 0.950 . S
H1473 C1484 0.950 . S
H1474 C1486 0.950 . S
H1475 C1487 0.950 . S
C1476 H1468 0.950 . S
C1476 C1477 1.386 . S
C1476 C1478 1.391 . S
C1477 C1476 1.386 . S
C1477 C1481 1.393 . S
C1478 H1470 0.950 . S
C1478 C1476 1.391 . S
C1478 C1479 1.400 . S
C1479 C1478 1.400 . S
C1479 C1480 1.398 . S
C1479 C1485 1.491 . S
C1480 H1471 0.950 . S
C1480 C1479 1.398 . S
C1480 C1481 1.391 . S
C1481 H1469 0.950 . S
C1481 C1477 1.393 . S
C1481 C1480 1.391 . S
C1482 H1472 0.950 . S
C1482 C1483 1.386 . S
C1482 C1484 1.391 . S
C1483 C1482 1.386 . S
C1483 C1487 1.393 . S
C1484 H1473 0.950 . S
C1484 C1482 1.391 . S
C1484 C1485 1.400 . S
C1485 C1479 1.491 . S
C1485 C1484 1.400 . S
C1485 C1486 1.398 . S
C1486 H1474 0.950 . S
C1486 C1485 1.398 . S
C1486 C1487 1.391 . S
C1487 H1475 0.950 . S
C1487 C1483 1.393 . S
C1487 C1486 1.391 . S
H1488 C1496 0.950 . S
H1489 C1501 0.950 . S
H1490 C1498 0.950 . S
H1491 C1500 0.950 . S
H1492 C1502 0.950 . S
H1493 C1504 0.950 . S
H1494 C1506 0.950 . S
H1495 C1507 0.950 . S
C1496 H1488 0.950 . S
C1496 C1497 1.386 . S
C1496 C1498 1.391 . S
C1497 C1496 1.386 . S
C1497 C1501 1.393 . S
C1498 H1490 0.950 . S
C1498 C1496 1.391 . S
C1498 C1499 1.400 . S
C1499 C1498 1.400 . S
C1499 C1500 1.398 . S
C1499 C1505 1.491 . S
C1500 H1491 0.950 . S
C1500 C1499 1.398 . S
C1500 C1501 1.391 . S
C1501 H1489 0.950 . S
C1501 C1497 1.393 . S
C1501 C1500 1.391 . S
C1502 H1492 0.950 . S
C1502 C1503 1.386 . S
C1502 C1504 1.391 . S
C1503 C1502 1.386 . S
C1503 C1507 1.393 . S
C1504 H1493 0.950 . S
C1504 C1502 1.391 . S
C1504 C1505 1.400 . S
C1505 C1499 1.491 . S
C1505 C1504 1.400 . S
C1505 C1506 1.398 . S
C1506 H1494 0.950 . S
C1506 C1505 1.398 . S
C1506 C1507 1.391 . S
C1507 H1495 0.950 . S
C1507 C1503 1.393 . S
C1507 C1506 1.391 . S
H1508 C1516 0.950 . S
H1509 C1521 0.950 . S
H1510 C1518 0.950 . S
H1511 C1520 0.950 . S
H1512 C1522 0.950 . S
H1513 C1524 0.950 . S
H1514 C1526 0.950 . S
H1515 C1527 0.950 . S
C1516 H1508 0.950 . S
C1516 C1517 1.386 . S
C1516 C1518 1.391 . S
C1517 C1516 1.386 . S
C1517 C1521 1.393 . S
C1518 H1510 0.950 . S
C1518 C1516 1.391 . S
C1518 C1519 1.400 . S
C1519 C1518 1.400 . S
C1519 C1520 1.398 . S
C1519 C1525 1.491 . S
C1520 H1511 0.950 . S
C1520 C1519 1.398 . S
C1520 C1521 1.391 . S
C1521 H1509 0.950 . S
C1521 C1517 1.393 . S
C1521 C1520 1.391 . S
C1522 H1512 0.950 . S
C1522 C1523 1.386 . S
C1522 C1524 1.391 . S
C1523 C1522 1.386 . S
C1523 C1527 1.393 . S
C1524 H1513 0.950 . S
C1524 C1522 1.391 . S
C1524 C1525 1.400 . S
C1525 C1519 1.491 . S
C1525 C1524 1.400 . S
C1525 C1526 1.398 . S
C1526 H1514 0.950 . S
C1526 C1525 1.398 . S
C1526 C1527 1.391 . S
C1527 H1515 0.950 . S
C1527 C1523 1.393 . S
C1527 C1526 1.391 . S
H1528 C1536 0.950 . S
H1529 C1541 0.950 . S
H1530 C1538 0.950 . S
H1531 C1540 0.950 . S
H1532 C1542 0.950 . S
H1533 C1544 0.950 . S
H1534 C1546 0.950 . S
H1535 C1547 0.950 . S
C1536 H1528 0.950 . S
C1536 C1537 1.386 . S
C1536 C1538 1.391 . S
C1537 C1536 1.386 . S
C1537 C1541 1.393 . S
C1538 H1530 0.950 . S
C1538 C1536 1.391 . S
C1538 C1539 1.400 . S
C1539 C1538 1.400 . S
C1539 C1540 1.398 . S
C1539 C1545 1.491 . S
C1540 H1531 0.950 . S
C1540 C1539 1.398 . S
C1540 C1541 1.391 . S
C1541 H1529 0.950 . S
C1541 C1537 1.393 . S
C1541 C1540 1.391 . S
C1542 H1532 0.950 . S
C1542 C1543 1.386 . S
C1542 C1544 1.391 . S
C1543 C1542 1.386 . S
C1543 C1547 1.393 . S
C1544 H1533 0.950 . S
C1544 C1542 1.391 . S
C1544 C1545 1.400 . S
C1545 C1539 1.491 . S
C1545 C1544 1.400 . S
C1545 C1546 1.398 . S
C1546 H1534 0.950 . S
C1546 C1545 1.398 . S
C1546 C1547 1.391 . S
C1547 H1535 0.950 . S
C1547 C1543 1.393 . S
C1547 C1546 1.391 . S
H1548 C1556 0.950 . S
H1549 C1561 0.950 . S
H1550 C1558 0.950 . S
H1551 C1560 0.950 . S
H1552 C1562 0.950 . S
H1553 C1564 0.950 . S
H1554 C1566 0.950 . S
H1555 C1567 0.950 . S
C1556 H1548 0.950 . S
C1556 C1557 1.386 . S
C1556 C1558 1.391 . S
C1557 C1556 1.386 . S
C1557 C1561 1.393 . S
C1558 H1550 0.950 . S
C1558 C1556 1.391 . S
C1558 C1559 1.400 . S
C1559 C1558 1.400 . S
C1559 C1560 1.398 . S
C1559 C1565 1.491 . S
C1560 H1551 0.950 . S
C1560 C1559 1.398 . S
C1560 C1561 1.391 . S
C1561 H1549 0.950 . S
C1561 C1557 1.393 . S
C1561 C1560 1.391 . S
C1562 H1552 0.950 . S
C1562 C1563 1.386 . S
C1562 C1564 1.391 . S
C1563 C1562 1.386 . S
C1563 C1567 1.393 . S
C1564 H1553 0.950 . S
C1564 C1562 1.391 . S
C1564 C1565 1.400 . S
C1565 C1559 1.491 . S
C1565 C1564 1.400 . S
C1565 C1566 1.398 . S
C1566 H1554 0.950 . S
C1566 C1565 1.398 . S
C1566 C1567 1.391 . S
C1567 H1555 0.950 . S
C1567 C1563 1.393 . S
C1567 C1566 1.391 . S
H1568 C1576 0.950 . S
H1569 C1581 0.950 . S
H1570 C1578 0.950 . S
H1571 C1580 0.950 . S
H1572 C1582 0.950 . S
H1573 C1584 0.950 . S
H1574 C1586 0.950 . S
H1575 C1587 0.950 . S
C1576 H1568 0.950 . S
C1576 C1577 1.386 . S
C1576 C1578 1.391 . S
C1577 C1576 1.386 . S
C1577 C1581 1.393 . S
C1578 H1570 0.950 . S
C1578 C1576 1.391 . S
C1578 C1579 1.400 . S
C1579 C1578 1.400 . S
C1579 C1580 1.398 . S
C1579 C1585 1.491 . S
C1580 H1571 0.950 . S
C1580 C1579 1.398 . S
C1580 C1581 1.391 . S
C1581 H1569 0.950 . S
C1581 C1577 1.393 . S
C1581 C1580 1.391 . S
C1582 H1572 0.950 . S
C1582 C1583 1.386 . S
C1582 C1584 1.391 . S
C1583 C1582 1.386 . S
C1583 C1587 1.393 . S
C1584 H1573 0.950 . S
C1584 C1582 1.391 . S
C1584 C1585 1.400 . S
C1585 C1579 1.491 . S
C1585 C1584 1.400 . S
C1585 C1586 1.398 . S
C1586 H1574 0.950 . S
C1586 C1585 1.398 . S
C1586 C1587 1.391 . S
C1587 H1575 0.950 . S
C1587 C1583 1.393 . S
C1587 C1586 1.391 . S
H1588 C1596 0.950 . S
H1589 C1601 0.950 . S
H1590 C1598 0.950 . S
H1591 C1600 0.950 . S
H1592 C1602 0.950 . S
H1593 C1604 0.950 . S
H1594 C1606 0.950 . S
H1595 C1607 0.950 . S
C1596 H1588 0.950 . S
C1596 C1597 1.361 1_655 S
C1596 C1598 1.391 . S
C1597 C1596 1.361 1_455 S
C1597 C1601 1.418 1_545 S
C1598 H1590 0.950 . S
C1598 C1596 1.391 . S
C1598 C1599 1.390 1_655 S
C1599 C1598 1.390 1_455 S
C1599 C1600 1.409 1_545 S
C1599 C1605 1.490 1_445 S
C1600 H1591 0.950 . S
C1600 C1599 1.409 1_565 S
C1600 C1601 1.391 . S
C1601 H1589 0.950 . S
C1601 C1597 1.418 1_565 S
C1601 C1600 1.391 . S
C1602 H1592 0.950 . S
C1602 C1603 1.363 1_455 S
C1602 C1604 1.391 . S
C1603 C1602 1.363 1_655 S
C1603 C1607 1.416 1_565 S
C1604 H1593 0.950 . S
C1604 C1602 1.391 . S
C1604 C1605 1.392 1_455 S
C1605 C1599 1.490 1_665 S
C1605 C1604 1.392 1_655 S
C1605 C1606 1.407 1_565 S
C1606 H1594 0.950 . S
C1606 C1605 1.407 1_545 S
C1606 C1607 1.391 . S
C1607 H1595 0.950 . S
C1607 C1603 1.416 1_545 S
C1607 C1606 1.391 . S
H1608 C1616 0.950 . S
H1609 C1621 0.950 . S
H1610 C1618 0.950 . S
H1611 C1620 0.950 . S
H1612 C1622 0.950 . S
H1613 C1624 0.950 . S
H1614 C1626 0.950 . S
H1615 C1627 0.950 . S
C1616 H1608 0.950 . S
C1616 C1617 1.386 . S
C1616 C1618 1.391 . S
C1617 C1616 1.386 . S
C1617 C1621 1.393 . S
C1618 H1610 0.950 . S
C1618 C1616 1.391 . S
C1618 C1619 1.400 . S
C1619 C1618 1.400 . S
C1619 C1620 1.398 . S
C1619 C1625 1.491 1_556 S
C1620 H1611 0.950 . S
C1620 C1619 1.398 . S
C1620 C1621 1.391 . S
C1621 H1609 0.950 . S
C1621 C1617 1.393 . S
C1621 C1620 1.391 . S
C1622 H1612 0.950 . S
C1622 C1623 1.386 . S
C1622 C1624 1.391 . S
C1623 C1622 1.386 . S
C1623 C1627 1.393 . S
C1624 H1613 0.950 . S
C1624 C1622 1.391 . S
C1624 C1625 1.400 . S
C1625 C1619 1.491 1_554 S
C1625 C1624 1.400 . S
C1625 C1626 1.398 . S
C1626 H1614 0.950 . S
C1626 C1625 1.398 . S
C1626 C1627 1.391 . S
C1627 H1615 0.950 . S
C1627 C1623 1.393 . S
C1627 C1626 1.391 . S
H1628 C1636 0.950 . S
H1629 C1641 0.950 . S
H1630 C1638 0.950 . S
H1631 C1640 0.950 1_545 S
H1632 C1642 0.950 . S
H1633 C1644 0.950 . S
H1634 C1646 0.949 . S
H1635 C1647 0.950 . S
C1636 H1628 0.950 . S
C1636 C1637 1.386 . S
C1636 C1638 1.391 . S
C1637 C1636 1.386 . S
C1637 C1641 1.393 . S
C1638 H1630 0.950 . S
C1638 C1636 1.391 . S
C1638 C1639 1.400 . S
C1639 C1638 1.400 . S
C1639 C1640 1.398 . S
C1639 C1645 1.491 1_565 S
C1640 H1631 0.950 1_565 S
C1640 C1639 1.398 . S
C1640 C1641 1.391 . S
C1641 H1629 0.950 . S
C1641 C1637 1.393 . S
C1641 C1640 1.391 . S
C1642 H1632 0.950 . S
C1642 C1643 1.386 . S
C1642 C1644 1.391 . S
C1643 C1642 1.386 . S
C1643 C1647 1.393 . S
C1644 H1633 0.950 . S
C1644 C1642 1.391 . S
C1644 C1645 1.400 . S
C1645 C1639 1.491 1_545 S
C1645 C1644 1.400 . S
C1645 C1646 1.398 1_545 S
C1646 H1634 0.949 . S
C1646 C1645 1.398 1_565 S
C1646 C1647 1.391 1_565 S
C1647 H1635 0.950 . S
C1647 C1643 1.393 . S
C1647 C1646 1.391 1_545 S
H1648 C1656 0.950 . S
H1649 C1661 0.950 . S
H1650 C1658 0.950 . S
H1651 C1660 0.950 . S
H1652 C1662 0.950 . S
H1653 C1664 0.950 . S
H1654 C1666 0.950 . S
H1655 C1667 0.950 . S
C1656 H1648 0.950 . S
C1656 C1657 1.386 . S
C1656 C1658 1.391 . S
C1657 C1656 1.386 . S
C1657 C1661 1.393 . S
C1658 H1650 0.950 . S
C1658 C1656 1.391 . S
C1658 C1659 1.400 . S
C1659 C1658 1.400 . S
C1659 C1660 1.398 . S
C1659 C1665 1.491 . S
C1660 H1651 0.950 . S
C1660 C1659 1.398 . S
C1660 C1661 1.391 . S
C1661 H1649 0.950 . S
C1661 C1657 1.393 . S
C1661 C1660 1.391 . S
C1662 H1652 0.950 . S
C1662 C1663 1.386 . S
C1662 C1664 1.391 . S
C1663 C1662 1.386 . S
C1663 C1667 1.393 . S
C1664 H1653 0.950 . S
C1664 C1662 1.391 . S
C1664 C1665 1.400 . S
C1665 C1659 1.491 . S
C1665 C1664 1.400 . S
C1665 C1666 1.398 . S
C1666 H1654 0.950 . S
C1666 C1665 1.398 . S
C1666 C1667 1.391 . S
C1667 H1655 0.950 . S
C1667 C1663 1.393 . S
C1667 C1666 1.391 . S
H1668 C1676 0.950 . S
H1669 C1681 0.950 . S
H1670 C1678 0.950 . S
H1671 C1680 0.950 . S
H1672 C1682 0.950 . S
H1673 C1684 0.950 . S
H1674 C1686 0.950 . S
H1675 C1687 0.950 . S
C1676 H1668 0.950 . S
C1676 C1677 1.386 1_455 S
C1676 C1678 1.391 . S
C1677 C1676 1.386 1_655 S
C1677 C1681 1.393 . S
C1678 H1670 0.950 . S
C1678 C1676 1.391 . S
C1678 C1679 1.400 1_455 S
C1679 C1678 1.400 1_655 S
C1679 C1680 1.398 . S
C1679 C1685 1.491 1_655 S
C1680 H1671 0.950 . S
C1680 C1679 1.398 . S
C1680 C1681 1.391 . S
C1681 H1669 0.950 . S
C1681 C1677 1.393 . S
C1681 C1680 1.391 . S
C1682 H1672 0.950 . S
C1682 C1683 1.386 1_655 S
C1682 C1684 1.391 . S
C1683 C1682 1.386 1_455 S
C1683 C1687 1.393 . S
C1684 H1673 0.950 . S
C1684 C1682 1.391 . S
C1684 C1685 1.400 1_655 S
C1685 C1679 1.491 1_455 S
C1685 C1684 1.400 1_455 S
C1685 C1686 1.398 . S
C1686 H1674 0.950 . S
C1686 C1685 1.398 . S
C1686 C1687 1.391 . S
C1687 H1675 0.950 . S
C1687 C1683 1.393 . S
C1687 C1686 1.391 . S
H1688 C1696 0.950 . S
H1689 C1701 0.950 . S
H1690 C1698 0.950 . S
H1691 C1700 0.950 . S
H1692 C1702 0.950 . S
H1693 C1704 0.950 . S
H1694 C1706 0.950 . S
H1695 C1707 0.950 . S
C1696 H1688 0.950 . S
C1696 C1697 1.386 . S
C1696 C1698 1.391 . S
C1697 C1696 1.386 . S
C1697 C1701 1.393 . S
C1698 H1690 0.950 . S
C1698 C1696 1.391 . S
C1698 C1699 1.400 . S
C1699 C1698 1.400 . S
C1699 C1700 1.398 . S
C1699 C1705 1.491 1_655 S
C1700 H1691 0.950 . S
C1700 C1699 1.398 . S
C1700 C1701 1.391 . S
C1701 H1689 0.950 . S
C1701 C1697 1.393 . S
C1701 C1700 1.391 . S
C1702 H1692 0.950 . S
C1702 C1703 1.386 . S
C1702 C1704 1.391 . S
C1703 C1702 1.386 . S
C1703 C1707 1.393 . S
C1704 H1693 0.950 . S
C1704 C1702 1.391 . S
C1704 C1705 1.400 . S
C1705 C1699 1.491 1_455 S
C1705 C1704 1.400 . S
C1705 C1706 1.398 . S
C1706 H1694 0.950 . S
C1706 C1705 1.398 . S
C1706 C1707 1.391 . S
C1707 H1695 0.950 . S
C1707 C1703 1.393 . S
C1707 C1706 1.391 . S
H1708 C1716 0.950 . S
H1709 C1721 0.950 . S
H1710 C1718 0.950 . S
H1711 C1720 0.950 . S
H1712 C1722 0.950 . S
H1713 C1724 0.950 . S
H1714 C1726 0.950 . S
H1715 C1727 0.950 . S
C1716 H1708 0.950 . S
C1716 C1717 1.386 . S
C1716 C1718 1.391 . S
C1717 C1716 1.386 . S
C1717 C1721 1.393 1_556 S
C1718 H1710 0.950 . S
C1718 C1716 1.391 . S
C1718 C1719 1.400 . S
C1719 C1718 1.400 . S
C1719 C1720 1.398 1_556 S
C1719 C1725 1.491 . S
C1720 H1711 0.950 . S
C1720 C1719 1.398 1_554 S
C1720 C1721 1.391 . S
C1721 H1709 0.950 . S
C1721 C1717 1.393 1_554 S
C1721 C1720 1.391 . S
C1722 H1712 0.950 . S
C1722 C1723 1.370 1_554 S
C1722 C1724 1.391 . S
C1723 C1722 1.370 1_556 S
C1723 C1727 1.408 . S
C1724 H1713 0.950 . S
C1724 C1722 1.391 . S
C1724 C1725 1.400 1_554 S
C1725 C1719 1.491 . S
C1725 C1724 1.400 1_556 S
C1725 C1726 1.398 . S
C1726 H1714 0.950 . S
C1726 C1725 1.398 . S
C1726 C1727 1.391 . S
C1727 H1715 0.950 . S
C1727 C1723 1.408 . S
C1727 C1726 1.391 . S
H1728 C1736 0.950 . S
H1729 C1741 0.950 . S
H1730 C1738 0.950 . S
H1731 C1740 0.950 . S
H1732 C1742 0.950 . S
H1733 C1744 0.950 . S
H1734 C1746 0.950 . S
H1735 C1747 0.950 . S
C1736 H1728 0.950 . S
C1736 C1737 1.386 . S
C1736 C1738 1.391 . S
C1737 C1736 1.386 . S
C1737 C1741 1.393 . S
C1738 H1730 0.950 . S
C1738 C1736 1.391 . S
C1738 C1739 1.400 . S
C1739 C1738 1.400 . S
C1739 C1740 1.398 . S
C1739 C1745 1.491 . S
C1740 H1731 0.950 . S
C1740 C1739 1.398 . S
C1740 C1741 1.391 . S
C1741 H1729 0.950 . S
C1741 C1737 1.393 . S
C1741 C1740 1.391 . S
C1742 H1732 0.950 . S
C1742 C1743 1.386 . S
C1742 C1744 1.391 . S
C1743 C1742 1.386 . S
C1743 C1747 1.393 . S
C1744 H1733 0.950 . S
C1744 C1742 1.391 . S
C1744 C1745 1.400 . S
C1745 C1739 1.491 . S
C1745 C1744 1.400 . S
C1745 C1746 1.398 . S
C1746 H1734 0.950 . S
C1746 C1745 1.398 . S
C1746 C1747 1.391 . S
C1747 H1735 0.950 . S
C1747 C1743 1.393 . S
C1747 C1746 1.391 . S
H1748 C1756 0.950 . S
H1749 C1761 0.950 . S
H1750 C1758 0.950 . S
H1751 C1760 0.950 . S
H1752 C1762 0.950 . S
H1753 C1764 0.950 . S
H1754 C1766 0.950 . S
H1755 C1767 0.950 . S
C1756 H1748 0.950 . S
C1756 C1757 1.386 . S
C1756 C1758 1.391 . S
C1757 C1756 1.386 . S
C1757 C1761 1.393 . S
C1758 H1750 0.950 . S
C1758 C1756 1.391 . S
C1758 C1759 1.400 . S
C1759 C1758 1.400 . S
C1759 C1760 1.398 . S
C1759 C1765 1.491 . S
C1760 H1751 0.950 . S
C1760 C1759 1.398 . S
C1760 C1761 1.391 . S
C1761 H1749 0.950 . S
C1761 C1757 1.393 . S
C1761 C1760 1.391 . S
C1762 H1752 0.950 . S
C1762 C1763 1.386 . S
C1762 C1764 1.391 . S
C1763 C1762 1.386 . S
C1763 C1767 1.393 . S
C1764 H1753 0.950 . S
C1764 C1762 1.391 . S
C1764 C1765 1.400 . S
C1765 C1759 1.491 . S
C1765 C1764 1.400 . S
C1765 C1766 1.398 . S
C1766 H1754 0.950 . S
C1766 C1765 1.398 . S
C1766 C1767 1.391 . S
C1767 H1755 0.950 . S
C1767 C1763 1.393 . S
C1767 C1766 1.391 . S
H1768 C1776 0.950 . S
H1769 C1781 0.950 . S
H1770 C1778 0.950 . S
H1771 C1780 0.950 . S
H1772 C1782 0.950 . S
H1773 C1784 0.950 . S
H1774 C1786 0.950 . S
H1775 C1787 0.950 . S
C1776 H1768 0.950 . S
C1776 C1777 1.386 . S
C1776 C1778 1.391 . S
C1777 C1776 1.386 . S
C1777 C1781 1.393 . S
C1778 H1770 0.950 . S
C1778 C1776 1.391 . S
C1778 C1779 1.400 . S
C1779 C1778 1.400 . S
C1779 C1780 1.398 . S
C1779 C1785 1.491 1_455 S
C1780 H1771 0.950 . S
C1780 C1779 1.398 . S
C1780 C1781 1.391 . S
C1781 H1769 0.950 . S
C1781 C1777 1.393 . S
C1781 C1780 1.391 . S
C1782 H1772 0.950 . S
C1782 C1783 1.386 . S
C1782 C1784 1.391 . S
C1783 C1782 1.386 . S
C1783 C1787 1.393 . S
C1784 H1773 0.950 . S
C1784 C1782 1.391 . S
C1784 C1785 1.400 . S
C1785 C1779 1.491 1_655 S
C1785 C1784 1.400 . S
C1785 C1786 1.398 . S
C1786 H1774 0.950 . S
C1786 C1785 1.398 . S
C1786 C1787 1.391 . S
C1787 H1775 0.950 . S
C1787 C1783 1.393 . S
C1787 C1786 1.391 . S
H1788 C1796 0.950 . S
H1789 C1801 0.950 . S
H1790 C1798 0.950 . S
H1791 C1800 0.950 . S
H1792 C1802 0.950 . S
H1793 C1804 0.950 . S
H1794 C1806 0.950 . S
H1795 C1807 0.950 . S
C1796 H1788 0.950 . S
C1796 C1797 1.386 . S
C1796 C1798 1.391 . S
C1797 C1796 1.386 . S
C1797 C1801 1.393 1_454 S
C1798 H1790 0.950 . S
C1798 C1796 1.391 . S
C1798 C1799 1.400 . S
C1799 C1798 1.400 . S
C1799 C1800 1.398 1_454 S
C1799 C1805 1.491 1_455 S
C1800 H1791 0.950 . S
C1800 C1799 1.398 1_656 S
C1800 C1801 1.391 . S
C1801 H1789 0.950 . S
C1801 C1797 1.393 1_656 S
C1801 C1800 1.391 . S
C1802 H1792 0.950 . S
C1802 C1803 1.387 1_556 S
C1802 C1804 1.391 . S
C1803 C1802 1.387 1_554 S
C1803 C1807 1.392 1_655 S
C1804 H1793 0.950 . S
C1804 C1802 1.391 . S
C1804 C1805 1.397 1_556 S
C1805 C1799 1.491 1_655 S
C1805 C1804 1.397 1_554 S
C1805 C1806 1.401 1_655 S
C1806 H1794 0.950 . S
C1806 C1805 1.401 1_455 S
C1806 C1807 1.391 . S
C1807 H1795 0.950 . S
C1807 C1803 1.392 1_455 S
C1807 C1806 1.391 . S
H1808 C1816 0.950 . S
H1809 C1821 0.950 . S
H1810 C1818 0.950 . S
H1811 C1820 0.950 . S
H1812 C1822 0.950 . S
H1813 C1824 0.950 . S
H1814 C1826 0.950 . S
H1815 C1827 0.950 . S
C1816 H1808 0.950 . S
C1816 C1817 1.386 . S
C1816 C1818 1.391 . S
C1817 C1816 1.386 . S
C1817 C1821 1.393 . S
C1818 H1810 0.950 . S
C1818 C1816 1.391 . S
C1818 C1819 1.400 . S
C1819 C1818 1.400 . S
C1819 C1820 1.398 . S
C1819 C1825 1.491 . S
C1820 H1811 0.950 . S
C1820 C1819 1.398 . S
C1820 C1821 1.391 . S
C1821 H1809 0.950 . S
C1821 C1817 1.393 . S
C1821 C1820 1.391 . S
C1822 H1812 0.950 . S
C1822 C1823 1.386 . S
C1822 C1824 1.391 . S
C1823 C1822 1.386 . S
C1823 C1827 1.393 . S
C1824 H1813 0.950 . S
C1824 C1822 1.391 . S
C1824 C1825 1.400 . S
C1825 C1819 1.491 . S
C1825 C1824 1.400 . S
C1825 C1826 1.398 . S
C1826 H1814 0.950 . S
C1826 C1825 1.398 . S
C1826 C1827 1.391 . S
C1827 H1815 0.950 . S
C1827 C1823 1.393 . S
C1827 C1826 1.391 . S
H1828 C1836 0.950 . S
H1829 C1841 0.950 . S
H1830 C1838 0.950 . S
H1831 C1840 0.950 . S
H1832 C1842 0.950 . S
H1833 C1844 0.950 . S
H1834 C1846 0.950 . S
H1835 C1847 0.950 . S
C1836 H1828 0.950 . S
C1836 C1837 1.386 . S
C1836 C1838 1.391 . S
C1837 C1836 1.386 . S
C1837 C1841 1.393 . S
C1838 H1830 0.950 . S
C1838 C1836 1.391 . S
C1838 C1839 1.400 . S
C1839 C1838 1.400 . S
C1839 C1840 1.398 . S
C1839 C1845 1.491 1_545 S
C1840 H1831 0.950 . S
C1840 C1839 1.398 . S
C1840 C1841 1.391 . S
C1841 H1829 0.950 . S
C1841 C1837 1.393 . S
C1841 C1840 1.391 . S
C1842 H1832 0.950 . S
C1842 C1843 1.386 . S
C1842 C1844 1.391 . S
C1843 C1842 1.386 . S
C1843 C1847 1.393 . S
C1844 H1833 0.950 . S
C1844 C1842 1.391 . S
C1844 C1845 1.400 . S
C1845 C1839 1.491 1_565 S
C1845 C1844 1.400 . S
C1845 C1846 1.398 . S
C1846 H1834 0.950 . S
C1846 C1845 1.398 . S
C1846 C1847 1.391 . S
C1847 H1835 0.950 . S
C1847 C1843 1.393 . S
C1847 C1846 1.391 . S
H1848 C1856 0.950 . S
H1849 C1861 0.950 . S
H1850 C1858 0.950 . S
H1851 C1860 0.950 . S
H1852 C1862 0.950 . S
H1853 C1864 0.950 . S
H1854 C1866 0.950 . S
H1855 C1867 0.950 . S
C1856 H1848 0.950 . S
C1856 C1857 1.386 1_554 S
C1856 C1858 1.391 . S
C1857 C1856 1.386 1_556 S
C1857 C1861 1.393 . S
C1858 H1850 0.950 . S
C1858 C1856 1.391 . S
C1858 C1859 1.400 1_554 S
C1859 C1858 1.400 1_556 S
C1859 C1860 1.398 . S
C1859 C1865 1.491 1_556 S
C1860 H1851 0.950 . S
C1860 C1859 1.398 . S
C1860 C1861 1.391 . S
C1861 H1849 0.950 . S
C1861 C1857 1.393 . S
C1861 C1860 1.391 . S
C1862 H1852 0.950 . S
C1862 C1863 1.386 1_556 S
C1862 C1864 1.391 . S
C1863 C1862 1.386 1_554 S
C1863 C1867 1.393 . S
C1864 H1853 0.950 . S
C1864 C1862 1.391 . S
C1864 C1865 1.400 1_556 S
C1865 C1859 1.491 1_554 S
C1865 C1864 1.400 1_554 S
C1865 C1866 1.398 . S
C1866 H1854 0.950 . S
C1866 C1865 1.398 . S
C1866 C1867 1.391 . S
C1867 H1855 0.950 . S
C1867 C1863 1.393 . S
C1867 C1866 1.391 . S
H1868 C1876 0.950 . S
H1869 C1881 0.950 . S
H1870 C1878 0.950 . S
H1871 C1880 0.950 . S
H1872 C1882 0.950 . S
H1873 C1884 0.950 . S
H1874 C1886 0.950 . S
H1875 C1887 0.950 . S
C1876 H1868 0.950 . S
C1876 C1877 1.386 . S
C1876 C1878 1.391 . S
C1877 C1876 1.386 . S
C1877 C1881 1.393 . S
C1878 H1870 0.950 . S
C1878 C1876 1.391 . S
C1878 C1879 1.400 . S
C1879 C1878 1.400 . S
C1879 C1880 1.398 . S
C1879 C1885 1.491 1_545 S
C1880 H1871 0.950 . S
C1880 C1879 1.398 . S
C1880 C1881 1.391 . S
C1881 H1869 0.950 . S
C1881 C1877 1.393 . S
C1881 C1880 1.391 . S
C1882 H1872 0.950 . S
C1882 C1883 1.386 . S
C1882 C1884 1.391 . S
C1883 C1882 1.386 . S
C1883 C1887 1.393 . S
C1884 H1873 0.950 . S
C1884 C1882 1.391 . S
C1884 C1885 1.400 . S
C1885 C1879 1.491 1_565 S
C1885 C1884 1.400 . S
C1885 C1886 1.398 . S
C1886 H1874 0.950 . S
C1886 C1885 1.398 . S
C1886 C1887 1.391 . S
C1887 H1875 0.950 . S
C1887 C1883 1.393 . S
C1887 C1886 1.391 . S
H1888 C1896 0.950 . S
H1889 C1901 0.950 . S
H1890 C1898 0.950 . S
H1891 C1900 0.950 . S
H1892 C1902 0.951 1_554 S
H1893 C1904 0.950 . S
H1894 C1906 0.950 . S
H1895 C1907 0.950 . S
C1896 H1888 0.950 . S
C1896 C1897 1.356 1_546 S
C1896 C1898 1.391 . S
C1897 C1896 1.356 1_564 S
C1897 C1901 1.423 . S
C1898 H1890 0.950 . S
C1898 C1896 1.391 . S
C1898 C1899 1.383 1_546 S
C1899 C1898 1.383 1_564 S
C1899 C1900 1.416 . S
C1899 C1905 1.490 1_564 S
C1900 H1891 0.950 . S
C1900 C1899 1.416 . S
C1900 C1901 1.391 . S
C1901 H1889 0.950 . S
C1901 C1897 1.423 . S
C1901 C1900 1.391 . S
C1902 H1892 0.951 1_556 S
C1902 C1903 1.374 1_565 S
C1902 C1904 1.392 1_556 S
C1903 C1902 1.374 1_545 S
C1903 C1907 1.403 . S
C1904 H1893 0.950 . S
C1904 C1902 1.392 1_554 S
C1904 C1905 1.402 1_564 S
C1905 C1899 1.490 1_546 S
C1905 C1904 1.402 1_546 S
C1905 C1906 1.396 . S
C1906 H1894 0.950 . S
C1906 C1905 1.396 . S
C1906 C1907 1.391 . S
C1907 H1895 0.950 . S
C1907 C1903 1.403 . S
C1907 C1906 1.391 . S
H1908 C1916 0.950 . S
H1909 C1921 0.950 . S
H1910 C1918 0.950 . S
H1911 C1920 0.950 . S
H1912 C1922 0.950 . S
H1913 C1924 0.950 . S
H1914 C1926 0.950 . S
H1915 C1927 0.950 . S
C1916 H1908 0.950 . S
C1916 C1917 1.386 . S
C1916 C1918 1.391 . S
C1917 C1916 1.386 . S
C1917 C1921 1.393 . S
C1918 H1910 0.950 . S
C1918 C1916 1.391 . S
C1918 C1919 1.400 . S
C1919 C1918 1.400 . S
C1919 C1920 1.398 . S
C1919 C1925 1.491 . S
C1920 H1911 0.950 . S
C1920 C1919 1.398 . S
C1920 C1921 1.391 . S
C1921 H1909 0.950 . S
C1921 C1917 1.393 . S
C1921 C1920 1.391 . S
C1922 H1912 0.950 . S
C1922 C1923 1.386 . S
C1922 C1924 1.391 . S
C1923 C1922 1.386 . S
C1923 C1927 1.393 . S
C1924 H1913 0.950 . S
C1924 C1922 1.391 . S
C1924 C1925 1.400 . S
C1925 C1919 1.491 . S
C1925 C1924 1.400 . S
C1925 C1926 1.398 . S
C1926 H1914 0.950 . S
C1926 C1925 1.398 . S
C1926 C1927 1.391 . S
C1927 H1915 0.950 . S
C1927 C1923 1.393 . S
C1927 C1926 1.391 . S
H1928 C1936 0.950 . S
H1929 C1941 0.950 . S
H1930 C1938 0.950 . S
H1931 C1940 0.950 . S
H1932 C1942 0.950 . S
H1933 C1944 0.950 . S
H1934 C1946 0.950 . S
H1935 C1947 0.950 . S
C1936 H1928 0.950 . S
C1936 C1937 1.386 . S
C1936 C1938 1.391 . S
C1937 C1936 1.386 . S
C1937 C1941 1.393 . S
C1938 H1930 0.950 . S
C1938 C1936 1.391 . S
C1938 C1939 1.400 . S
C1939 C1938 1.400 . S
C1939 C1940 1.398 . S
C1939 C1945 1.491 . S
C1940 H1931 0.950 . S
C1940 C1939 1.398 . S
C1940 C1941 1.391 . S
C1941 H1929 0.950 . S
C1941 C1937 1.393 . S
C1941 C1940 1.391 . S
C1942 H1932 0.950 . S
C1942 C1943 1.386 . S
C1942 C1944 1.391 . S
C1943 C1942 1.386 . S
C1943 C1947 1.393 . S
C1944 H1933 0.950 . S
C1944 C1942 1.391 . S
C1944 C1945 1.400 . S
C1945 C1939 1.491 . S
C1945 C1944 1.400 . S
C1945 C1946 1.398 . S
C1946 H1934 0.950 . S
C1946 C1945 1.398 . S
C1946 C1947 1.391 . S
C1947 H1935 0.950 . S
C1947 C1943 1.393 . S
C1947 C1946 1.391 . S
H1948 C1956 0.950 . S
H1949 C1961 0.950 . S
H1950 C1958 0.950 . S
H1951 C1960 0.950 . S
H1952 C1962 0.950 . S
H1953 C1964 0.950 . S
H1954 C1966 0.950 . S
H1955 C1967 0.950 . S
C1956 H1948 0.950 . S
C1956 C1957 1.386 . S
C1956 C1958 1.391 . S
C1957 C1956 1.386 . S
C1957 C1961 1.393 . S
C1958 H1950 0.950 . S
C1958 C1956 1.391 . S
C1958 C1959 1.400 . S
C1959 C1958 1.400 . S
C1959 C1960 1.398 . S
C1959 C1965 1.491 1_556 S
C1960 H1951 0.950 . S
C1960 C1959 1.398 . S
C1960 C1961 1.391 . S
C1961 H1949 0.950 . S
C1961 C1957 1.393 . S
C1961 C1960 1.391 . S
C1962 H1952 0.950 . S
C1962 C1963 1.386 . S
C1962 C1964 1.391 . S
C1963 C1962 1.386 . S
C1963 C1967 1.393 . S
C1964 H1953 0.950 . S
C1964 C1962 1.391 . S
C1964 C1965 1.400 . S
C1965 C1959 1.491 1_554 S
C1965 C1964 1.400 . S
C1965 C1966 1.398 . S
C1966 H1954 0.950 . S
C1966 C1965 1.398 . S
C1966 C1967 1.391 . S
C1967 H1955 0.950 . S
C1967 C1963 1.393 . S
C1967 C1966 1.391 . S
H1968 C1976 0.950 . S
H1969 C1981 0.950 . S
H1970 C1978 0.950 . S
H1971 C1980 0.950 . S
H1972 C1982 0.950 . S
H1973 C1984 0.950 . S
H1974 C1986 0.950 . S
H1975 C1987 0.950 . S
C1976 H1968 0.950 . S
C1976 C1977 1.386 . S
C1976 C1978 1.391 . S
C1977 C1976 1.386 . S
C1977 C1981 1.393 . S
C1978 H1970 0.950 . S
C1978 C1976 1.391 . S
C1978 C1979 1.400 . S
C1979 C1978 1.400 . S
C1979 C1980 1.398 . S
C1979 C1985 1.491 . S
C1980 H1971 0.950 . S
C1980 C1979 1.398 . S
C1980 C1981 1.391 . S
C1981 H1969 0.950 . S
C1981 C1977 1.393 . S
C1981 C1980 1.391 . S
C1982 H1972 0.950 . S
C1982 C1983 1.386 . S
C1982 C1984 1.391 . S
C1983 C1982 1.386 . S
C1983 C1987 1.393 . S
C1984 H1973 0.950 . S
C1984 C1982 1.391 . S
C1984 C1985 1.400 . S
C1985 C1979 1.491 . S
C1985 C1984 1.400 . S
C1985 C1986 1.398 . S
C1986 H1974 0.950 . S
C1986 C1985 1.398 . S
C1986 C1987 1.391 . S
C1987 H1975 0.950 . S
C1987 C1983 1.393 . S
C1987 C1986 1.391 . S
H1988 C1996 0.950 . S
H1989 C2001 0.950 . S
H1990 C1998 0.950 . S
H1991 C2000 0.950 . S
H1992 C2002 0.950 . S
H1993 C2004 0.950 . S
H1994 C2006 0.950 . S
H1995 C2007 0.950 . S
C1996 H1988 0.950 . S
C1996 C1997 1.386 . S
C1996 C1998 1.391 . S
C1997 C1996 1.386 . S
C1997 C2001 1.393 . S
C1998 H1990 0.950 . S
C1998 C1996 1.391 . S
C1998 C1999 1.400 . S
C1999 C1998 1.400 . S
C1999 C2000 1.398 . S
C1999 C2005 1.491 . S
C2000 H1991 0.950 . S
C2000 C1999 1.398 . S
C2000 C2001 1.391 . S
C2001 H1989 0.950 . S
C2001 C1997 1.393 . S
C2001 C2000 1.391 . S
C2002 H1992 0.950 . S
C2002 C2003 1.386 . S
C2002 C2004 1.391 . S
C2003 C2002 1.386 . S
C2003 C2007 1.393 . S
C2004 H1993 0.950 . S
C2004 C2002 1.391 . S
C2004 C2005 1.400 . S
C2005 C1999 1.491 . S
C2005 C2004 1.400 . S
C2005 C2006 1.398 . S
C2006 H1994 0.950 . S
C2006 C2005 1.398 . S
C2006 C2007 1.391 . S
C2007 H1995 0.950 . S
C2007 C2003 1.393 . S
C2007 C2006 1.391 . S
H2008 C2016 0.950 . S
H2009 C2021 0.950 . S
H2010 C2018 0.950 . S
H2011 C2020 0.950 . S
H2012 C2022 0.950 . S
H2013 C2024 0.950 . S
H2014 C2026 0.950 . S
H2015 C2027 0.950 . S
C2016 H2008 0.950 . S
C2016 C2017 1.389 1_655 S
C2016 C2018 1.391 . S
C2017 C2016 1.389 1_455 S
C2017 C2021 1.389 . S
C2018 H2010 0.950 . S
C2018 C2016 1.391 . S
C2018 C2019 1.411 . S
C2019 C2018 1.411 . S
C2019 C2020 1.387 1_655 S
C2019 C2025 1.491 . S
C2020 H2011 0.950 . S
C2020 C2019 1.387 1_455 S
C2020 C2021 1.391 . S
C2021 H2009 0.950 . S
C2021 C2017 1.389 . S
C2021 C2020 1.391 . S
C2022 H2012 0.950 . S
C2022 C2023 1.386 1_455 S
C2022 C2024 1.391 . S
C2023 C2022 1.386 1_655 S
C2023 C2027 1.393 . S
C2024 H2013 0.950 . S
C2024 C2022 1.391 . S
C2024 C2025 1.400 1_455 S
C2025 C2019 1.491 . S
C2025 C2024 1.400 1_655 S
C2025 C2026 1.398 . S
C2026 H2014 0.950 . S
C2026 C2025 1.398 . S
C2026 C2027 1.391 . S
C2027 H2015 0.950 . S
C2027 C2023 1.393 . S
C2027 C2026 1.391 . S
H2028 C2036 0.950 . S
H2029 C2041 0.950 . S
H2030 C2038 0.950 . S
H2031 C2040 0.950 . S
H2032 C2042 0.950 . S
H2033 C2044 0.950 . S
H2034 C2046 0.950 . S
H2035 C2047 0.950 . S
C2036 H2028 0.950 . S
C2036 C2037 1.364 1_545 S
C2036 C2038 1.391 . S
C2037 C2036 1.364 1_565 S
C2037 C2041 1.414 . S
C2038 H2030 0.950 . S
C2038 C2036 1.391 . S
C2038 C2039 1.388 1_545 S
C2039 C2038 1.388 1_565 S
C2039 C2040 1.410 . S
C2039 C2045 1.491 . S
C2040 H2031 0.950 . S
C2040 C2039 1.410 . S
C2040 C2041 1.391 . S
C2041 H2029 0.950 . S
C2041 C2037 1.414 . S
C2041 C2040 1.391 . S
C2042 H2032 0.950 . S
C2042 C2043 1.385 . S
C2042 C2044 1.391 . S
C2043 C2042 1.385 . S
C2043 C2047 1.394 1_565 S
C2044 H2033 0.950 . S
C2044 C2042 1.391 . S
C2044 C2045 1.409 . S
C2045 C2039 1.491 . S
C2045 C2044 1.409 . S
C2045 C2046 1.390 1_565 S
C2046 H2034 0.950 . S
C2046 C2045 1.390 1_545 S
C2046 C2047 1.391 . S
C2047 H2035 0.950 . S
C2047 C2043 1.394 1_545 S
C2047 C2046 1.391 . S
C1417 C57 1.922 . S
C1423 C645 1.921 . S
C1437 C145 1.925 . S
C1443 C372 1.925 . S
C1457 C489 1.921 . S
C1463 C205 1.920 . S
C1477 C321 1.924 . S
C1483 C548 1.923 . S
C1497 C724 1.926 . S
C1503 C1113 1.926 . S
C1517 C849 1.920 . S
C1523 C1252 1.922 . S
C1537 C1025 1.924 . S
C1543 C900 1.923 . S
C1557 C1340 1.921 . S
C1563 C1201 1.922 . S
C1577 C29 1.126 . S
C1583 C585 1.111 . S
C1597 C636 1.151 1_455 S
C1603 C137 1.151 . S
C1617 C233 1.115 . S
C1623 C409 1.113 . S
C1637 C497 1.140 . S
C1643 C284 1.142 . S
C1657 C49 1.139 . S
C1663 C1261 1.132 . S
C1677 C997 1.109 . S
C1683 C108 1.109 . S
C1697 C1193 1.125 . S
C1703 C196 1.121 . S
C1717 C1076 1.109 1_556 S
C1723 C293 1.107 1_556 S
C1737 C929 1.145 . S
C1743 C401 1.146 . S
C1757 C469 1.135 . S
C1763 C1377 1.144 . S
C1777 C577 1.167 . S
C1783 C753 1.170 . S
C1797 C665 1.131 1_554 S
C1803 C812 1.120 1_554 S
C1817 C20 1.133 . S
C1823 C381 1.129 . S
C1837 C733 1.136 . S
C1843 C1164 1.131 . S
C1857 C1085 1.149 . S
C1863 C821 1.156 . S
C1877 C1289 1.131 . S
C1883 C909 1.139 . S
C1897 C673 1.131 . S
C1903 C313 1.122 1_545 S
C1917 C225 1.151 . S
C1923 C557 1.148 . S
C1937 C1017 1.120 . S
C1943 C1369 1.127 . S
C1957 C1173 1.129 . S
C1963 C937 1.133 . S
C1977 C1349 1.125 . S
C1983 C1105 1.127 . S
C1997 C1281 1.121 . S
C2003 C761 1.124 . S
C2017 C988 1.141 . S
C2023 C841 1.142 1_655 S
C2037 C117 1.155 1_565 S
C2043 C460 1.157 1_565 S
