# Generated by pormake.
# Topology zfu, (5)-cn, num edge types: 1
# Building blocks:
#     Node 0, Type 0, BuildingBlock: BEQFEK_clean_sbu_0, # of connection points: 5
#     Node 1, Type 0, BuildingBlock: BEQFEK_clean_sbu_0, # of connection points: 5
#     Node 2, Type 0, BuildingBlock: BEQFEK_clean_sbu_0, # of connection points: 5
#     Node 3, Type 0, BuildingBlock: BEQFEK_clean_sbu_0, # of connection points: 5
#     Node 4, Type 0, BuildingBlock: BEQFEK_clean_sbu_0, # of connection points: 5
#     Node 5, Type 0, BuildingBlock: BEQFEK_clean_sbu_0, # of connection points: 5
#     Node 6, Type 0, BuildingBlock: BEQFEK_clean_sbu_0, # of connection points: 5
#     Node 7, Type 0, BuildingBlock: BEQFEK_clean_sbu_0, # of connection points: 5
#     Edge 8, Type (0, 0), BuildingBlock: AJUNOK_clean_linker_0, # of connection points: 2
#     Edge 9, Type (0, 0), BuildingBlock: AJUNOK_clean_linker_0, # of connection points: 2
#     Edge 10, Type (0, 0), BuildingBlock: AJUNOK_clean_linker_0, # of connection points: 2
#     Edge 11, Type (0, 0), BuildingBlock: AJUNOK_clean_linker_0, # of connection points: 2
#     Edge 12, Type (0, 0), BuildingBlock: AJUNOK_clean_linker_0, # of connection points: 2
#     Edge 13, Type (0, 0), BuildingBlock: AJUNOK_clean_linker_0, # of connection points: 2
#     Edge 14, Type (0, 0), BuildingBlock: AJUNOK_clean_linker_0, # of connection points: 2
#     Edge 15, Type (0, 0), BuildingBlock: AJUNOK_clean_linker_0, # of connection points: 2
#     Edge 16, Type (0, 0), BuildingBlock: AJUNOK_clean_linker_0, # of connection points: 2
#     Edge 17, Type (0, 0), BuildingBlock: AJUNOK_clean_linker_0, # of connection points: 2
#     Edge 18, Type (0, 0), BuildingBlock: AJUNOK_clean_linker_0, # of connection points: 2
#     Edge 19, Type (0, 0), BuildingBlock: AJUNOK_clean_linker_0, # of connection points: 2
#     Edge 20, Type (0, 0), BuildingBlock: AJUNOK_clean_linker_0, # of connection points: 2
#     Edge 21, Type (0, 0), BuildingBlock: AJUNOK_clean_linker_0, # of connection points: 2
#     Edge 22, Type (0, 0), BuildingBlock: AJUNOK_clean_linker_0, # of connection points: 2
#     Edge 23, Type (0, 0), BuildingBlock: AJUNOK_clean_linker_0, # of connection points: 2
#     Edge 24, Type (0, 0), BuildingBlock: AJUNOK_clean_linker_0, # of connection points: 2
#     Edge 25, Type (0, 0), BuildingBlock: AJUNOK_clean_linker_0, # of connection points: 2
#     Edge 26, Type (0, 0), BuildingBlock: AJUNOK_clean_linker_0, # of connection points: 2
#     Edge 27, Type (0, 0), BuildingBlock: AJUNOK_clean_linker_0, # of connection points: 2
# Relax obj value: 0.069
# Max RMSD: 0.103
# Mean RMSD: 0.103
data_MOF--net-zfu--node1-BEQFEK_clean_sbu_0--edge1-AJUNOK_clean_linker_0
_symmetry_space_group_name_H-M    P1
_symmetry_Int_Tables_number       1
_symmetry_cell_setting            triclinic
loop_
_symmetry_equiv_pos_as_xyz
'x, y, z'
_cell_length_a     31.916286
_cell_length_b     31.959456
_cell_length_c     20.026939
_cell_angle_alpha  90.097754
_cell_angle_beta   90.080454
_cell_angle_gamma 89.945806
loop_
_atom_site_label
_atom_site_type_symbol
_atom_site_fract_x
_atom_site_fract_y
_atom_site_fract_z
_atom_type_partial_charge
Co0 Co 0.44562 0.69077 0.10175 0.0
Co1 Co 0.40526 0.77756 0.06737 0.0
C2 C 0.48814 0.77543 0.12827 0.0
O3 O 0.48423 0.73585 0.13012 0.0
O4 O 0.46044 0.79849 0.10095 0.0
C5 C 0.50556 0.63457 0.05465 0.0
O6 O 0.50642 0.6625 1.00665 0.0
C7 C 0.37817 0.86086 0.01304 0.0
C8 C 0.31064 0.84792 1.0 0.0
C9 C 0.34079 0.87847 0.99051 0.0
N10 N 0.3702 0.82151 0.03384 0.0
N11 N 0.32978 0.81423 0.02591 0.0
C12 C 0.42007 0.88147 0.01839 0.0
H13 H 0.43522 0.87278 0.06625 0.0
H14 H 0.44037 0.87014 0.9772 0.0
H15 H 0.41728 0.91603 0.01555 0.0
C16 C 0.41106 0.67086 0.96987 0.0
N17 N 0.42191 0.69875 0.01707 0.0
N18 N 0.41115 0.73645 0.99811 0.0
C19 C 0.39669 0.73438 0.9348 0.0
C20 C 0.39576 0.6924 0.91421 0.0
C21 C 0.4072 0.62507 0.98495 0.0
H22 H 0.40158 0.62049 0.03914 0.0
H23 H 0.4369 0.60886 0.97253 0.0
H24 H 0.38114 0.61066 0.95628 0.0
O25 O 0.4013 0.6894 0.1668 0.0
O26 O 0.37389 0.75254 0.14721 0.0
H27 H 0.35142 0.77943 0.90244 0.0
H28 H 0.39066 0.76673 0.84082 0.0
C29 C 0.38507 0.77219 0.89482 0.0
H30 H 0.40375 0.79955 0.91145 0.0
H31 H 0.31528 0.78596 0.03785 0.0
O32 O 0.48012 0.63925 0.10285 0.0
C33 C 0.37499 0.71812 0.17985 0.0
Co34 Co 0.81689 0.95725 0.33661 0.0
Co35 Co 0.73713 0.90027 0.33532 0.0
C36 C 0.73267 0.99188 0.3703 0.0
O37 O 0.77167 0.99534 0.35977 0.0
O38 O 0.71426 0.95669 0.36373 0.0
C39 C 0.86653 0.02602 0.29683 0.0
O40 O 0.83336 0.03508 0.26076 0.0
C41 C 0.65718 0.86937 0.2781 0.0
C42 C 0.65435 0.80594 0.32109 0.0
C43 C 0.63315 0.83298 0.27866 0.0
N44 N 0.69079 0.86369 0.31798 0.0
N45 N 0.6887 0.82574 0.34368 0.0
C46 C 0.64831 0.90919 0.24153 0.0
H47 H 0.66486 0.93578 0.26535 0.0
H48 H 0.65978 0.90635 0.18946 0.0
H49 H 0.6141 0.91544 0.24017 0.0
C50 C 0.82905 0.91973 0.20373 0.0
N51 N 0.80545 0.92699 0.25818 0.0
N52 N 0.77256 0.90215 0.25743 0.0
C53 C 0.77466 0.87773 0.20232 0.0
C54 C 0.8104 0.88824 0.1664 0.0
C55 C 0.86981 0.94123 0.18993 0.0
H56 H 0.89116 0.93724 0.23323 0.0
H57 H 0.86398 0.97512 0.18328 0.0
H58 H 0.88512 0.92941 0.144 0.0
O59 O 0.8258 0.91821 0.41055 0.0
O60 O 0.77027 0.87649 0.41195 0.0
H61 H 0.74317 0.82257 0.23628 0.0
H62 H 0.75981 0.81997 0.1504 0.0
C63 C 0.7469 0.8408 0.18967 0.0
H64 H 0.71561 0.85191 0.17347 0.0
H65 H 0.71109 0.81311 0.37592 0.0
O66 O 0.86734 0.99249 0.33066 0.0
C67 C 0.80563 0.88777 0.43578 0.0
Co68 Co 0.56284 0.32352 0.56299 0.0
Co69 Co 0.6137 0.23992 0.57604 0.0
C70 C 0.52254 0.24442 0.6116 0.0
O71 O 0.52226 0.28293 0.59652 0.0
O72 O 0.5559 0.2228 0.60568 0.0
C73 C 0.49578 0.36827 0.51131 0.0
O74 O 0.48835 0.33049 0.48825 0.0
C75 C 0.63776 0.15709 0.52633 0.0
C76 C 0.70104 0.14935 0.56902 0.0
C77 C 0.67223 0.13079 0.52646 0.0
N78 N 0.64585 0.18982 0.56671 0.0
N79 N 0.68339 0.1845 0.59325 0.0
C80 C 0.59967 0.1534 0.48318 0.0
H81 H 0.57979 0.12758 0.5022 0.0
H82 H 0.58137 0.18295 0.48373 0.0
H83 H 0.60882 0.14535 0.43126 0.0
C84 C 0.59959 0.32278 0.42874 0.0
N85 N 0.59143 0.30383 0.48724 0.0
N86 N 0.61462 0.26989 0.49268 0.0
C87 C 0.63916 0.26691 0.43781 0.0
C88 C 0.62982 0.29988 0.39531 0.0
C89 C 0.58319 0.36503 0.40966 0.0
H90 H 0.5862 0.38681 0.45255 0.0
H91 H 0.54952 0.36232 0.39673 0.0
H92 H 0.60013 0.37817 0.36613 0.0
O93 O 0.6036 0.33523 0.63422 0.0
O94 O 0.63958 0.27618 0.64706 0.0
H95 H 0.69134 0.23208 0.47635 0.0
H96 H 0.69591 0.24567 0.38907 0.0
C97 C 0.67388 0.2359 0.42889 0.0
H98 H 0.66041 0.20529 0.41433 0.0
H99 H 0.69787 0.20602 0.62504 0.0
O100 O 0.52942 0.3745 0.54382 0.0
C101 C 0.63213 0.31414 0.66343 0.0
Co102 Co 0.19809 0.06654 0.82916 0.0
Co103 Co 0.27934 0.12221 0.83066 0.0
C104 C 0.28219 0.0325 0.8708 0.0
O105 O 0.24295 0.0303 0.86163 0.0
O106 O 0.30239 0.06587 0.85791 0.0
C107 C 0.15562 0.9925 0.79898 0.0
O108 O 0.19389 0.98233 0.7812 0.0
C109 C 0.35786 0.15219 0.77228 0.0
C110 C 0.36251 0.21595 0.81419 0.0
C111 C 0.38146 0.18849 0.76987 0.0
N112 N 0.32611 0.15808 0.81543 0.0
N113 N 0.32955 0.19599 0.84128 0.0
C114 C 0.36273 0.11423 0.72923 0.0
H115 H 0.33422 0.09441 0.73145 0.0
H116 H 0.36907 0.12359 0.67685 0.0
H117 H 0.38999 0.09578 0.74712 0.0
C118 C 0.18949 0.10272 0.69537 0.0
N119 N 0.21228 0.09565 0.75077 0.0
N120 N 0.24485 0.12087 0.7517 0.0
C121 C 0.24309 0.14568 0.69707 0.0
C122 C 0.20803 0.13485 0.65941 0.0
C123 C 0.14919 0.08081 0.67988 0.0
H124 H 0.12483 0.09115 0.7158 0.0
H125 H 0.15349 0.04662 0.6859 0.0
H126 H 0.13846 0.0872 0.62818 0.0
O127 O 0.18755 0.10644 0.90154 0.0
O128 O 0.24553 0.14515 0.90729 0.0
H129 H 0.27471 0.19996 0.735 0.0
H130 H 0.25584 0.2056 0.6507 0.0
C131 C 0.27004 0.18348 0.68688 0.0
H132 H 0.301 0.17354 0.6675 0.0
H133 H 0.3083 0.20891 0.87512 0.0
O134 O 0.14822 0.0298 0.81776 0.0
C135 C 0.20927 0.13515 0.929 0.0
Co136 Co 0.95605 0.81971 0.76578 0.0
Co137 Co 0.89918 0.73962 0.76376 0.0
C138 C 0.99068 0.73489 0.73219 0.0
O139 O 0.99434 0.7739 0.7426 0.0
O140 O 0.95541 0.71661 0.73736 0.0
C141 C 0.02642 0.86434 0.80886 0.0
O142 O 0.03331 0.82787 0.83694 0.0
C143 C 0.87105 0.6597 0.81837 0.0
C144 C 0.80509 0.65735 0.78514 0.0
C145 C 0.8346 0.63636 0.82341 0.0
N146 N 0.86329 0.69304 0.77934 0.0
N147 N 0.82403 0.69105 0.75863 0.0
C148 C 0.91112 0.6534 0.85592 0.0
H149 H 0.92707 0.68384 0.86406 0.0
H150 H 0.90525 0.63783 0.90453 0.0
H151 H 0.9322 0.63318 0.8259 0.0
C152 C 0.91824 0.82975 0.89878 0.0
N153 N 0.92528 0.80717 0.84313 0.0
N154 N 0.90065 0.77412 0.84268 0.0
C155 C 0.87664 0.77513 0.89825 0.0
C156 C 0.88728 0.81018 0.93561 0.0
C157 C 0.93705 0.87185 0.91203 0.0
H158 H 0.93491 0.89137 0.86641 0.0
H159 H 0.97068 0.86791 0.92458 0.0
H160 H 0.92121 0.88816 0.95394 0.0
O161 O 0.91692 0.82936 0.69097 0.0
O162 O 0.87594 0.7732 0.688 0.0
H163 H 0.82077 0.74271 0.86949 0.0
H164 H 0.82368 0.75479 0.95763 0.0
C165 C 0.84199 0.74506 0.91318 0.0
H166 H 0.85548 0.71377 0.92318 0.0
H167 H 0.80964 0.7137 0.72888 0.0
O168 O 0.99226 0.86984 0.77738 0.0
C169 C 0.88667 0.80887 0.66513 0.0
Co170 Co 0.69676 0.45282 1.00445 0.0
Co171 Co 0.77876 0.39898 0.99865 0.0
C172 C 0.7784 0.49224 0.97255 0.0
O173 O 0.73958 0.49455 0.98566 0.0
O174 O 0.7977 0.45735 0.97555 0.0
C175 C 0.6422 0.51621 0.05194 0.0
O176 O 0.67545 0.52703 0.08662 0.0
C177 C 0.85867 0.37369 0.05826 0.0
C178 C 0.86933 0.31173 0.01253 0.0
C179 C 0.88539 0.33958 0.05908 0.0
N180 N 0.82808 0.36636 0.01342 0.0
N181 N 0.8351 0.32958 0.98535 0.0
C182 C 0.85975 0.41058 0.10419 0.0
H183 H 0.83065 0.42939 0.09948 0.0
H184 H 0.86373 0.39991 0.15655 0.0
H185 H 0.88717 0.43036 0.09155 0.0
C186 C 0.68684 0.40908 0.1326 0.0
N187 N 0.70988 0.4195 0.07892 0.0
N188 N 0.74353 0.39568 0.07639 0.0
C189 C 0.74246 0.36872 0.12839 0.0
C190 C 0.7065 0.37635 0.16547 0.0
C191 C 0.64581 0.42899 0.15023 0.0
H192 H 0.65085 0.46272 0.15994 0.0
H193 H 0.63171 0.41511 0.19563 0.0
H194 H 0.62374 0.42588 0.10766 0.0
O195 O 0.69095 0.41715 0.92493 0.0
O196 O 0.74737 0.37631 0.91971 0.0
H197 H 0.75919 0.30918 0.1726 0.0
H198 H 0.80205 0.34444 0.15772 0.0
C199 C 0.77194 0.33272 0.13741 0.0
H200 H 0.77802 0.31749 0.08863 0.0
H201 H 0.81543 0.31581 0.94988 0.0
O202 O 0.64364 0.48389 0.01508 0.0
C203 C 0.71222 0.38858 0.8963 0.0
Co204 Co 0.06199 0.20118 0.26034 0.0
Co205 Co 0.11571 0.28272 0.25617 0.0
C206 C 0.02427 0.28313 0.22064 0.0
O207 O 0.02257 0.24436 0.23333 0.0
O208 O 0.05861 0.30314 0.22679 0.0
C209 C 0.99682 0.15081 0.31095 0.0
O210 O 0.99112 0.18311 0.35054 0.0
C211 C 0.14158 0.36443 0.30882 0.0
C212 C 0.20637 0.36966 0.27139 0.0
C213 C 0.17676 0.38965 0.31059 0.0
N214 N 0.14989 0.33097 0.27016 0.0
N215 N 0.18848 0.33466 0.24704 0.0
C216 C 0.10208 0.37023 0.34778 0.0
H217 H 0.08331 0.34101 0.34791 0.0
H218 H 0.10952 0.3798 0.39978 0.0
H219 H 0.0834 0.3957 0.32468 0.0
C220 C 0.10036 0.19336 0.39359 0.0
N221 N 0.09184 0.21548 0.33803 0.0
N222 N 0.1151 0.24951 0.33697 0.0
C223 C 0.13936 0.24985 0.39248 0.0
C224 C 0.13047 0.21449 0.43022 0.0
C225 C 0.08491 0.14986 0.40634 0.0
H226 H 0.08275 0.13223 0.35876 0.0
H227 H 0.05329 0.15152 0.42904 0.0
H228 H 0.10585 0.13273 0.44116 0.0
O229 O 0.10179 0.19125 0.18811 0.0
O230 O 0.1411 0.24839 0.18191 0.0
H231 H 0.19351 0.28477 0.36307 0.0
H232 H 0.19153 0.27297 0.45139 0.0
C233 C 0.17263 0.28156 0.40695 0.0
H234 H 0.15768 0.31222 0.41676 0.0
H235 H 0.20318 0.31242 0.21686 0.0
O236 O 0.02706 0.15083 0.26991 0.0
C237 C 0.13168 0.21164 0.16169 0.0
Co238 Co 0.32204 0.56963 0.48407 0.0
Co239 Co 0.23801 0.61731 0.51372 0.0
C240 C 0.23518 0.53211 0.45898 0.0
O241 O 0.27503 0.53169 0.4594 0.0
O242 O 0.21459 0.56393 0.47864 0.0
C243 C 0.36843 0.49798 0.50882 0.0
O244 O 0.33233 0.48855 0.53628 0.0
C245 C 0.15746 0.64311 0.57513 0.0
C246 C 0.16641 0.71162 0.57919 0.0
C247 C 0.13925 0.67993 0.5976 0.0
N248 N 0.19409 0.65267 0.54549 0.0
N249 N 0.19883 0.69372 0.54724 0.0
C250 C 0.14242 0.59948 0.58718 0.0
H251 H 0.16943 0.57777 0.59172 0.0
H252 H 0.12282 0.59797 0.63286 0.0
H253 H 0.12312 0.58938 0.54397 0.0
C254 C 0.34264 0.60165 0.61666 0.0
N255 N 0.31454 0.59356 0.56839 0.0
N256 N 0.27787 0.60888 0.58501 0.0
C257 C 0.28059 0.62416 0.64782 0.0
C258 C 0.32209 0.62066 0.67036 0.0
C259 C 0.38886 0.59882 0.60418 0.0
H260 H 0.39542 0.60414 0.55044 0.0
H261 H 0.40001 0.56686 0.61657 0.0
H262 H 0.40643 0.62227 0.63399 0.0
O263 O 0.32604 0.61485 0.41935 0.0
O264 O 0.26569 0.64835 0.43722 0.0
H265 H 0.23841 0.67395 0.6722 0.0
H266 H 0.24893 0.63845 0.74047 0.0
C267 C 0.24378 0.64075 0.68581 0.0
H268 H 0.21539 0.6226 0.67281 0.0
H269 H 0.22507 0.70939 0.52891 0.0
O270 O 0.37335 0.53407 0.48345 0.0
C271 C 0.30039 0.6442 0.40614 0.0
C272 C 0.59316 0.56377 0.11233 0.0
C273 C 0.60438 0.5427 0.05329 0.0
C274 C 0.55935 0.59181 0.11339 0.0
C275 C 0.53658 0.60054 0.05496 0.0
H276 H 0.61095 0.55893 0.15779 0.0
H277 H 0.55227 0.60821 0.15942 0.0
S278 S 0.55223 0.55247 0.88836 0.0
N279 N 0.58866 0.53089 0.93584 0.0
N280 N 0.52619 0.58491 0.9374 0.0
C281 C 0.54684 0.57904 0.99606 0.0
C282 C 0.58048 0.5497 0.99535 0.0
C283 C 0.9491 0.10446 0.24661 0.0
C284 C 0.96564 0.11712 0.30854 0.0
C285 C 0.91694 0.07473 0.24309 0.0
C286 C 0.90144 0.0558 0.30122 0.0
H287 H 0.96015 0.11863 0.20079 0.0
H288 H 0.90419 0.06643 0.19468 0.0
S289 S 0.93537 0.07722 0.47505 0.0
N290 N 0.96452 0.10857 0.42892 0.0
N291 N 0.90533 0.05112 0.42223 0.0
C292 C 0.91854 0.06736 0.36324 0.0
C293 C 0.95034 0.09853 0.36693 0.0
C294 C 0.47406 0.44373 0.5193 0.0
C295 C 0.46382 0.40176 0.50487 0.0
C296 C 0.44337 0.47531 0.51822 0.0
C297 C 0.40134 0.46573 0.50407 0.0
H298 H 0.5059 0.45221 0.53232 0.0
H299 H 0.45228 0.50707 0.53076 0.0
S300 S 0.35846 0.36181 0.45816 0.0
N301 N 0.40871 0.3532 0.47187 0.0
N302 N 0.35137 0.41231 0.47126 0.0
C303 C 0.39089 0.4243 0.48787 0.0
C304 C 0.42205 0.39236 0.48782 0.0
C305 C 0.04926 0.93901 0.79454 0.0
C306 C 0.05935 0.89708 0.80919 0.0
C307 C 0.08042 0.97002 0.79205 0.0
C308 C 0.12282 0.95995 0.80252 0.0
H309 H 0.01706 0.94798 0.78504 0.0
H310 H 0.07136 1.0019 0.78066 0.0
S311 S 0.16578 0.8553 0.84455 0.0
N312 N 0.1149 0.84769 0.83641 0.0
N313 N 0.17319 0.90555 0.83015 0.0
C314 C 0.13328 0.9183 0.81759 0.0
C315 C 0.10161 0.88698 0.82141 0.0
C316 C 0.2918 0.67326 0.29134 0.0
C317 C 0.3124 0.67386 0.35347 0.0
C318 C 0.31019 0.69193 0.23493 0.0
C319 C 0.34919 0.71215 0.23974 0.0
H320 H 0.26328 0.65532 0.2851 0.0
H321 H 0.29551 0.68769 0.18658 0.0
S322 S 0.41286 0.72627 0.39277 0.0
N323 N 0.37171 0.69919 0.41767 0.0
N324 N 0.40574 0.73485 0.31222 0.0
C325 C 0.36816 0.71578 0.30266 0.0
C326 C 0.34984 0.69645 0.35954 0.0
C327 C 0.86057 0.88342 0.52408 0.0
C328 C 0.82443 0.8662 0.49446 0.0
C329 C 0.87996 0.8646 0.57881 0.0
C330 C 0.86438 0.82743 0.60691 0.0
H331 H 0.8743 0.91199 0.50507 0.0
H332 H 0.9077 0.87953 0.59894 0.0
S333 S 0.77031 0.76929 0.54887 0.0
N334 N 0.77349 0.80962 0.4977 0.0
N335 N 0.81013 0.77398 0.60109 0.0
C336 C 0.82814 0.80967 0.57815 0.0
C337 C 0.80814 0.82909 0.522 0.0
C338 C 0.70157 0.32816 0.81732 0.0
C339 C 0.69532 0.37051 0.83369 0.0
C340 C 0.68195 0.31022 0.76119 0.0
C341 C 0.6557 0.33414 0.71922 0.0
H342 H 0.72049 0.30841 0.84934 0.0
H343 H 0.68656 0.27716 0.75173 0.0
S344 S 0.63439 0.44819 0.73583 0.0
N345 N 0.66453 0.43684 0.80024 0.0
N346 N 0.62822 0.40374 0.69504 0.0
C347 C 0.65116 0.37714 0.73348 0.0
C348 C 0.6708 0.39515 0.7906 0.0
C349 C 0.19786 0.19727 1.00451 0.0
C350 C 0.19268 0.15441 0.99072 0.0
C351 C 0.17905 0.21571 0.06097 0.0
C352 C 0.15483 0.19172 0.10561 0.0
H353 H 0.21532 0.21688 0.97039 0.0
H354 H 0.18254 0.24908 0.06859 0.0
S355 S 0.13806 0.07665 0.09685 0.0
N356 N 0.1657 0.08774 0.02968 0.0
N357 N 0.13113 0.12171 0.13555 0.0
C358 C 0.15163 0.14832 0.09393 0.0
C359 C 0.17034 0.12985 0.03656 0.0
C360 C 0.32632 0.67582 0.76058 0.0
C361 C 0.341 0.6379 0.73326 0.0
C362 C 0.34352 0.69267 0.81926 0.0
C363 C 0.37842 0.67427 0.85078 0.0
H364 H 0.30135 0.69305 0.73661 0.0
H365 H 0.32881 0.72023 0.83995 0.0
S366 S 0.43117 0.57614 0.79715 0.0
N367 N 0.39098 0.5809 0.74585 0.0
N368 N 0.42968 0.61795 0.84544 0.0
C369 C 0.3949 0.63754 0.82189 0.0
C370 C 0.37486 0.61823 0.7658 0.0
C371 C 0.86884 0.84888 0.11172 0.0
C372 C 0.82835 0.86619 0.10797 0.0
C373 C 0.88746 0.83005 0.05588 0.0
C374 C 0.86585 0.82722 0.99499 0.0
H375 H 0.88644 0.85044 0.15795 0.0
H376 H 0.91908 0.81796 0.0601 0.0
S377 S 0.75903 0.86683 0.95951 0.0
N378 N 0.76715 0.87889 0.03875 0.0
N379 N 0.80195 0.84274 0.93391 0.0
C380 C 0.82505 0.84345 0.99093 0.0
C381 C 0.80625 0.86299 0.04756 0.0
C382 C 0.71076 0.34944 0.28245 0.0
C383 C 0.68936 0.35137 0.22116 0.0
C384 C 0.69222 0.33056 0.33837 0.0
C385 C 0.65193 0.31298 0.33422 0.0
H386 H 0.74112 0.3642 0.28787 0.0
H387 H 0.70864 0.3313 0.38574 0.0
S388 S 0.58518 0.30589 0.18345 0.0
N389 N 0.6277 0.33059 0.15801 0.0
N390 N 0.59255 0.29608 0.26359 0.0
C391 C 0.63122 0.31294 0.27256 0.0
C392 C 0.65011 0.33179 0.21573 0.0
C393 C 0.12988 0.19209 0.54921 0.0
C394 C 0.15243 0.19833 0.48994 0.0
C395 C 0.14845 0.17242 0.60436 0.0
C396 C 0.18996 0.15764 0.60163 0.0
H397 H 0.09745 0.20192 0.55253 0.0
H398 H 0.12999 0.16828 0.64921 0.0
S399 S 0.26194 0.16577 0.45725 0.0
N400 N 0.21824 0.18832 0.43136 0.0
N401 N 0.25305 0.15074 0.53485 0.0
C402 C 0.213 0.16423 0.5429 0.0
C403 C 0.19419 0.18461 0.48694 0.0
C404 C 0.2945 0.94058 0.98663 0.0
C405 C 0.33139 0.92093 0.96468 0.0
C406 C 0.28022 0.97754 0.95735 0.0
C407 C 0.30226 0.99672 0.90495 0.0
H408 H 0.27573 0.9266 0.02573 0.0
H409 H 0.25097 0.99077 0.97502 0.0
S410 S 0.40068 0.95838 0.82861 0.0
N411 N 0.38979 0.92339 0.88673 0.0
N412 N 0.36334 0.99416 0.83302 0.0
C413 C 0.34009 0.97857 0.88395 0.0
C414 C 0.35454 0.94029 0.91343 0.0
C415 C 0.55059 0.82319 0.14035 0.0
C416 C 0.52258 0.79405 0.16781 0.0
C417 C 0.58589 0.83684 0.17677 0.0
C418 C 0.59372 0.82247 0.24229 0.0
H419 H 0.54624 0.834 0.08957 0.0
H420 H 0.60794 0.85725 0.15209 0.0
S421 S 0.52644 0.74961 0.33865 0.0
N422 N 0.50317 0.75348 0.2653 0.0
N423 N 0.56813 0.77996 0.33424 0.0
C424 C 0.56458 0.79479 0.27087 0.0
C425 C 0.52933 0.78049 0.23362 0.0
C426 C 0.67755 0.02366 0.44456 0.0
C427 C 0.71071 0.02877 0.39886 0.0
C428 C 0.66339 0.05744 0.48383 0.0
C429 C 0.68207 0.09709 0.47854 0.0
H430 H 0.66427 0.99296 0.45309 0.0
H431 H 0.63929 0.05201 0.52084 0.0
S432 S 0.76449 0.12873 0.35894 0.0
N433 N 0.75758 0.07831 0.34468 0.0
N434 N 0.73143 0.14099 0.41922 0.0
C435 C 0.71292 0.10329 0.42989 0.0
C436 C 0.72706 0.06932 0.38973 0.0
C437 C 0.48653 0.18931 0.68077 0.0
C438 C 0.48432 0.22648 0.64305 0.0
C439 C 0.45245 0.17592 0.7198 0.0
C440 C 0.41526 0.19944 0.7227 0.0
H441 H 0.51534 0.17141 0.6826 0.0
H442 H 0.4559 0.14812 0.75017 0.0
S443 S 0.39054 0.2949 0.62563 0.0
N444 N 0.43928 0.28344 0.6051 0.0
N445 N 0.37618 0.25857 0.67936 0.0
C446 C 0.41168 0.23507 0.68242 0.0
C447 C 0.44593 0.24847 0.64226 0.0
C448 C 0.79022 0.60313 0.90995 0.0
C449 C 0.82541 0.60083 0.86822 0.0
C450 C 0.77739 0.56866 0.94759 0.0
C451 C 0.79882 0.5301 0.94429 0.0
H452 H 0.77179 0.6316 0.91232 0.0
H453 H 0.74919 0.57186 0.97725 0.0
S454 S 0.89477 0.50894 0.84502 0.0
N455 N 0.8831 0.55817 0.82812 0.0
N456 N 0.85889 0.49281 0.89848 0.0
C457 C 0.83551 0.5281 0.90527 0.0
C458 C 0.84875 0.56357 0.86716 0.0
C459 C 0.99039 0.33821 0.14852 0.0
C460 C 0.9866 0.30287 0.19014 0.0
C461 C 0.95673 0.35155 0.10826 0.0
C462 C 0.91847 0.32981 0.10821 0.0
H463 H 0.02015 0.35424 0.14414 0.0
H464 H 0.96131 0.37764 0.07459 0.0
S465 S 0.88977 0.24026 0.21583 0.0
N466 N 0.9391 0.2502 0.23496 0.0
N467 N 0.87681 0.27485 0.15825 0.0
C468 C 0.91332 0.29645 0.15265 0.0
C469 C 0.94712 0.28315 0.19402 0.0
C470 C 0.1863 0.5007 0.37523 0.0
C471 C 0.21339 0.49562 0.43015 0.0
C472 C 0.17256 0.46589 0.3381 0.0
C473 C 0.18533 0.42523 0.35536 0.0
H474 H 0.1778 0.53179 0.35848 0.0
H475 H 0.15353 0.47092 0.29401 0.0
S476 S 0.24951 0.39496 0.50154 0.0
N477 N 0.24807 0.44661 0.50451 0.0
N478 N 0.22197 0.38139 0.43508 0.0
C479 C 0.20987 0.41966 0.41271 0.0
C480 C 0.224 0.45488 0.45011 0.0
C481 C 0.06195 0.67304 0.61762 0.0
C482 C 0.10178 0.68585 0.63972 0.0
C483 C 0.02548 0.68606 0.65131 0.0
C484 C 0.02805 0.71222 0.70784 0.0
H485 H 0.05886 0.65517 0.57186 0.0
H486 H 0.99521 0.67812 0.6303 0.0
S487 S 0.1254 0.74655 0.7928 0.0
N488 N 0.1419 0.72048 0.72664 0.0
N489 N 0.07372 0.74487 0.78982 0.0
C490 C 0.06788 0.72201 0.73331 0.0
C491 C 0.1047 0.70886 0.69919 0.0
loop_
_geom_bond_atom_site_label_1
_geom_bond_atom_site_label_2
_geom_bond_distance
_geom_bond_site_symmetry_2
_ccdc_geom_bond_type
Co0 O3 1.970 . S
Co0 N17 1.989 1_554 S
Co0 O25 1.967 . S
Co0 O32 1.920 . S
Co1 O4 1.966 . S
Co1 N10 2.022 . S
Co1 N18 1.993 1_554 S
Co1 O26 1.941 . S
C2 O3 1.258 . S
C2 O4 1.263 . S
O3 Co0 1.970 . S
O3 C2 1.258 . S
O4 Co1 1.966 . S
O4 C2 1.263 . S
C5 O6 1.235 . S
C5 O32 1.289 . S
O6 C5 1.235 . S
C7 C9 1.400 . S
C7 N10 1.351 . S
C7 C12 1.501 . S
C8 C9 1.387 . S
C8 N11 1.341 . S
C9 C7 1.400 . S
C9 C8 1.387 . S
N10 Co1 2.022 . S
N10 C7 1.351 . S
N10 N11 1.365 . S
N11 C8 1.341 . S
N11 N10 1.365 . S
N11 H31 0.862 . S
C12 C7 1.501 . S
C12 H13 0.961 . S
C12 H14 0.961 1_554 S
C12 H15 0.960 . S
H13 C12 0.961 . S
H14 C12 0.961 1_556 S
H15 C12 0.960 . S
C16 N17 1.342 . S
C16 C20 1.401 . S
C16 C21 1.499 . S
N17 Co0 1.989 1_556 S
N17 C16 1.342 . S
N17 N18 1.388 . S
N18 Co1 1.993 1_556 S
N18 N17 1.388 . S
N18 C19 1.346 . S
C19 N18 1.346 . S
C19 C20 1.396 . S
C19 C29 1.510 . S
C20 C16 1.401 . S
C20 C19 1.396 . S
C21 C16 1.499 . S
C21 H22 0.959 . S
C21 H23 0.960 . S
C21 H24 0.961 . S
H22 C21 0.959 . S
H23 C21 0.960 . S
H24 C21 0.961 . S
O25 Co0 1.967 . S
O25 C33 1.258 . S
O26 Co1 1.941 . S
O26 C33 1.266 . S
H27 C29 0.959 . S
H28 C29 0.961 . S
C29 C19 1.510 . S
C29 H27 0.959 . S
C29 H28 0.961 . S
C29 H30 0.960 . S
H30 C29 0.960 . S
H31 N11 0.862 . S
O32 Co0 1.920 . S
O32 C5 1.289 . S
C33 O25 1.258 . S
C33 O26 1.266 . S
Co34 O37 1.970 . S
Co34 N51 1.989 . S
Co34 O59 1.967 . S
Co34 O66 1.920 . S
Co35 O38 1.966 . S
Co35 N44 2.022 . S
Co35 N52 1.993 . S
Co35 O60 1.941 . S
C36 O37 1.258 . S
C36 O38 1.263 . S
O37 Co34 1.970 . S
O37 C36 1.258 . S
O38 Co35 1.966 . S
O38 C36 1.263 . S
C39 O40 1.235 . S
C39 O66 1.289 1_545 S
O40 C39 1.235 . S
C41 C43 1.400 . S
C41 N44 1.351 . S
C41 C46 1.501 . S
C42 C43 1.387 . S
C42 N45 1.341 . S
C43 C41 1.400 . S
C43 C42 1.387 . S
N44 Co35 2.022 . S
N44 C41 1.351 . S
N44 N45 1.365 . S
N45 C42 1.341 . S
N45 N44 1.365 . S
N45 H65 0.862 . S
C46 C41 1.501 . S
C46 H47 0.961 . S
C46 H48 0.961 . S
C46 H49 0.960 . S
H47 C46 0.961 . S
H48 C46 0.961 . S
H49 C46 0.960 . S
C50 N51 1.342 . S
C50 C54 1.401 . S
C50 C55 1.499 . S
N51 Co34 1.989 . S
N51 C50 1.342 . S
N51 N52 1.388 . S
N52 Co35 1.993 . S
N52 N51 1.388 . S
N52 C53 1.346 . S
C53 N52 1.346 . S
C53 C54 1.396 . S
C53 C63 1.510 . S
C54 C50 1.401 . S
C54 C53 1.396 . S
C55 C50 1.499 . S
C55 H56 0.959 . S
C55 H57 0.960 . S
C55 H58 0.961 . S
H56 C55 0.959 . S
H57 C55 0.960 . S
H58 C55 0.961 . S
O59 Co34 1.967 . S
O59 C67 1.258 . S
O60 Co35 1.941 . S
O60 C67 1.266 . S
H61 C63 0.959 . S
H62 C63 0.961 . S
C63 C53 1.510 . S
C63 H61 0.959 . S
C63 H62 0.961 . S
C63 H64 0.960 . S
H64 C63 0.960 . S
H65 N45 0.862 . S
O66 Co34 1.920 . S
O66 C39 1.289 1_565 S
C67 O59 1.258 . S
C67 O60 1.266 . S
Co68 O71 1.970 . S
Co68 N85 1.989 . S
Co68 O93 1.967 . S
Co68 O100 1.920 . S
Co69 O72 1.966 . S
Co69 N78 2.022 . S
Co69 N86 1.993 . S
Co69 O94 1.941 . S
C70 O71 1.258 . S
C70 O72 1.263 . S
O71 Co68 1.970 . S
O71 C70 1.258 . S
O72 Co69 1.966 . S
O72 C70 1.263 . S
C73 O74 1.235 . S
C73 O100 1.289 . S
O74 C73 1.235 . S
C75 C77 1.400 . S
C75 N78 1.351 . S
C75 C80 1.501 . S
C76 C77 1.387 . S
C76 N79 1.341 . S
C77 C75 1.400 . S
C77 C76 1.387 . S
N78 Co69 2.022 . S
N78 C75 1.351 . S
N78 N79 1.365 . S
N79 C76 1.341 . S
N79 N78 1.365 . S
N79 H99 0.862 . S
C80 C75 1.501 . S
C80 H81 0.961 . S
C80 H82 0.961 . S
C80 H83 0.960 . S
H81 C80 0.961 . S
H82 C80 0.961 . S
H83 C80 0.960 . S
C84 N85 1.342 . S
C84 C88 1.401 . S
C84 C89 1.499 . S
N85 Co68 1.989 . S
N85 C84 1.342 . S
N85 N86 1.388 . S
N86 Co69 1.993 . S
N86 N85 1.388 . S
N86 C87 1.346 . S
C87 N86 1.346 . S
C87 C88 1.396 . S
C87 C97 1.510 . S
C88 C84 1.401 . S
C88 C87 1.396 . S
C89 C84 1.499 . S
C89 H90 0.959 . S
C89 H91 0.960 . S
C89 H92 0.961 . S
H90 C89 0.959 . S
H91 C89 0.960 . S
H92 C89 0.961 . S
O93 Co68 1.967 . S
O93 C101 1.258 . S
O94 Co69 1.941 . S
O94 C101 1.266 . S
H95 C97 0.959 . S
H96 C97 0.961 . S
C97 C87 1.510 . S
C97 H95 0.959 . S
C97 H96 0.961 . S
C97 H98 0.960 . S
H98 C97 0.960 . S
H99 N79 0.862 . S
O100 Co68 1.920 . S
O100 C73 1.289 . S
C101 O93 1.258 . S
C101 O94 1.266 . S
Co102 O105 1.970 . S
Co102 N119 1.989 . S
Co102 O127 1.967 . S
Co102 O134 1.920 . S
Co103 O106 1.966 . S
Co103 N112 2.022 . S
Co103 N120 1.993 . S
Co103 O128 1.941 . S
C104 O105 1.258 . S
C104 O106 1.263 . S
O105 Co102 1.970 . S
O105 C104 1.258 . S
O106 Co103 1.966 . S
O106 C104 1.263 . S
C107 O108 1.235 . S
C107 O134 1.289 1_565 S
O108 C107 1.235 . S
C109 C111 1.400 . S
C109 N112 1.351 . S
C109 C114 1.501 . S
C110 C111 1.387 . S
C110 N113 1.341 . S
C111 C109 1.400 . S
C111 C110 1.387 . S
N112 Co103 2.022 . S
N112 C109 1.351 . S
N112 N113 1.365 . S
N113 C110 1.341 . S
N113 N112 1.365 . S
N113 H133 0.862 . S
C114 C109 1.501 . S
C114 H115 0.961 . S
C114 H116 0.961 . S
C114 H117 0.960 . S
H115 C114 0.961 . S
H116 C114 0.961 . S
H117 C114 0.960 . S
C118 N119 1.342 . S
C118 C122 1.401 . S
C118 C123 1.499 . S
N119 Co102 1.989 . S
N119 C118 1.342 . S
N119 N120 1.388 . S
N120 Co103 1.993 . S
N120 N119 1.388 . S
N120 C121 1.346 . S
C121 N120 1.346 . S
C121 C122 1.396 . S
C121 C131 1.510 . S
C122 C118 1.401 . S
C122 C121 1.396 . S
C123 C118 1.499 . S
C123 H124 0.959 . S
C123 H125 0.960 . S
C123 H126 0.961 . S
H124 C123 0.959 . S
H125 C123 0.960 . S
H126 C123 0.961 . S
O127 Co102 1.967 . S
O127 C135 1.258 . S
O128 Co103 1.941 . S
O128 C135 1.266 . S
H129 C131 0.959 . S
H130 C131 0.961 . S
C131 C121 1.510 . S
C131 H129 0.959 . S
C131 H130 0.961 . S
C131 H132 0.960 . S
H132 C131 0.960 . S
H133 N113 0.862 . S
O134 Co102 1.920 . S
O134 C107 1.289 1_545 S
C135 O127 1.258 . S
C135 O128 1.266 . S
Co136 O139 1.970 . S
Co136 N153 1.989 . S
Co136 O161 1.967 . S
Co136 O168 1.920 . S
Co137 O140 1.966 . S
Co137 N146 2.022 . S
Co137 N154 1.993 . S
Co137 O162 1.941 . S
C138 O139 1.258 . S
C138 O140 1.263 . S
O139 Co136 1.970 . S
O139 C138 1.258 . S
O140 Co137 1.966 . S
O140 C138 1.263 . S
C141 O142 1.235 . S
C141 O168 1.289 1_455 S
O142 C141 1.235 . S
C143 C145 1.400 . S
C143 N146 1.351 . S
C143 C148 1.501 . S
C144 C145 1.387 . S
C144 N147 1.341 . S
C145 C143 1.400 . S
C145 C144 1.387 . S
N146 Co137 2.022 . S
N146 C143 1.351 . S
N146 N147 1.365 . S
N147 C144 1.341 . S
N147 N146 1.365 . S
N147 H167 0.862 . S
C148 C143 1.501 . S
C148 H149 0.961 . S
C148 H150 0.961 . S
C148 H151 0.960 . S
H149 C148 0.961 . S
H150 C148 0.961 . S
H151 C148 0.960 . S
C152 N153 1.342 . S
C152 C156 1.401 . S
C152 C157 1.499 . S
N153 Co136 1.989 . S
N153 C152 1.342 . S
N153 N154 1.388 . S
N154 Co137 1.993 . S
N154 N153 1.388 . S
N154 C155 1.346 . S
C155 N154 1.346 . S
C155 C156 1.396 . S
C155 C165 1.510 . S
C156 C152 1.401 . S
C156 C155 1.396 . S
C157 C152 1.499 . S
C157 H158 0.959 . S
C157 H159 0.960 . S
C157 H160 0.961 . S
H158 C157 0.959 . S
H159 C157 0.960 . S
H160 C157 0.961 . S
O161 Co136 1.967 . S
O161 C169 1.258 . S
O162 Co137 1.941 . S
O162 C169 1.266 . S
H163 C165 0.959 . S
H164 C165 0.961 . S
C165 C155 1.510 . S
C165 H163 0.959 . S
C165 H164 0.961 . S
C165 H166 0.960 . S
H166 C165 0.960 . S
H167 N147 0.862 . S
O168 Co136 1.920 . S
O168 C141 1.289 1_655 S
C169 O161 1.258 . S
C169 O162 1.266 . S
Co170 O173 1.970 . S
Co170 N187 1.989 1_556 S
Co170 O195 1.967 . S
Co170 O202 1.920 . S
Co171 O174 1.966 . S
Co171 N180 2.022 1_556 S
Co171 N188 1.993 1_556 S
Co171 O196 1.941 . S
C172 O173 1.258 . S
C172 O174 1.263 . S
O173 Co170 1.970 . S
O173 C172 1.258 . S
O174 Co171 1.966 . S
O174 C172 1.263 . S
C175 O176 1.235 . S
C175 O202 1.289 1_554 S
O176 C175 1.235 . S
C177 C179 1.400 . S
C177 N180 1.351 . S
C177 C182 1.501 . S
C178 C179 1.387 . S
C178 N181 1.341 . S
C179 C177 1.400 . S
C179 C178 1.387 . S
N180 Co171 2.022 1_554 S
N180 C177 1.351 . S
N180 N181 1.365 . S
N181 C178 1.341 . S
N181 N180 1.365 . S
N181 H201 0.862 . S
C182 C177 1.501 . S
C182 H183 0.961 . S
C182 H184 0.961 . S
C182 H185 0.960 . S
H183 C182 0.961 . S
H184 C182 0.961 . S
H185 C182 0.960 . S
C186 N187 1.342 . S
C186 C190 1.401 . S
C186 C191 1.499 . S
N187 Co170 1.989 1_554 S
N187 C186 1.342 . S
N187 N188 1.388 . S
N188 Co171 1.993 1_554 S
N188 N187 1.388 . S
N188 C189 1.346 . S
C189 N188 1.346 . S
C189 C190 1.396 . S
C189 C199 1.510 . S
C190 C186 1.401 . S
C190 C189 1.396 . S
C191 C186 1.499 . S
C191 H192 0.959 . S
C191 H193 0.960 . S
C191 H194 0.961 . S
H192 C191 0.959 . S
H193 C191 0.960 . S
H194 C191 0.961 . S
O195 Co170 1.967 . S
O195 C203 1.258 . S
O196 Co171 1.941 . S
O196 C203 1.266 . S
H197 C199 0.959 . S
H198 C199 0.961 . S
C199 C189 1.510 . S
C199 H197 0.959 . S
C199 H198 0.961 . S
C199 H200 0.960 . S
H200 C199 0.960 . S
H201 N181 0.862 . S
O202 Co170 1.920 . S
O202 C175 1.289 1_556 S
C203 O195 1.258 . S
C203 O196 1.266 . S
Co204 O207 1.970 . S
Co204 N221 1.989 . S
Co204 O229 1.967 . S
Co204 O236 1.920 . S
Co205 O208 1.966 . S
Co205 N214 2.022 . S
Co205 N222 1.993 . S
Co205 O230 1.941 . S
C206 O207 1.258 . S
C206 O208 1.263 . S
O207 Co204 1.970 . S
O207 C206 1.258 . S
O208 Co205 1.966 . S
O208 C206 1.263 . S
C209 O210 1.235 . S
C209 O236 1.289 1_655 S
O210 C209 1.235 . S
C211 C213 1.400 . S
C211 N214 1.351 . S
C211 C216 1.501 . S
C212 C213 1.387 . S
C212 N215 1.341 . S
C213 C211 1.400 . S
C213 C212 1.387 . S
N214 Co205 2.022 . S
N214 C211 1.351 . S
N214 N215 1.365 . S
N215 C212 1.341 . S
N215 N214 1.365 . S
N215 H235 0.862 . S
C216 C211 1.501 . S
C216 H217 0.961 . S
C216 H218 0.961 . S
C216 H219 0.960 . S
H217 C216 0.961 . S
H218 C216 0.961 . S
H219 C216 0.960 . S
C220 N221 1.342 . S
C220 C224 1.401 . S
C220 C225 1.499 . S
N221 Co204 1.989 . S
N221 C220 1.342 . S
N221 N222 1.388 . S
N222 Co205 1.993 . S
N222 N221 1.388 . S
N222 C223 1.346 . S
C223 N222 1.346 . S
C223 C224 1.396 . S
C223 C233 1.510 . S
C224 C220 1.401 . S
C224 C223 1.396 . S
C225 C220 1.499 . S
C225 H226 0.959 . S
C225 H227 0.960 . S
C225 H228 0.961 . S
H226 C225 0.959 . S
H227 C225 0.960 . S
H228 C225 0.961 . S
O229 Co204 1.967 . S
O229 C237 1.258 . S
O230 Co205 1.941 . S
O230 C237 1.266 . S
H231 C233 0.959 . S
H232 C233 0.961 . S
C233 C223 1.510 . S
C233 H231 0.959 . S
C233 H232 0.961 . S
C233 H234 0.960 . S
H234 C233 0.960 . S
H235 N215 0.862 . S
O236 Co204 1.920 . S
O236 C209 1.289 1_455 S
C237 O229 1.258 . S
C237 O230 1.266 . S
Co238 O241 1.970 . S
Co238 N255 1.989 . S
Co238 O263 1.967 . S
Co238 O270 1.920 . S
Co239 O242 1.966 . S
Co239 N248 2.022 . S
Co239 N256 1.993 . S
Co239 O264 1.941 . S
C240 O241 1.258 . S
C240 O242 1.263 . S
O241 Co238 1.970 . S
O241 C240 1.258 . S
O242 Co239 1.966 . S
O242 C240 1.263 . S
C243 O244 1.235 . S
C243 O270 1.289 . S
O244 C243 1.235 . S
C245 C247 1.400 . S
C245 N248 1.351 . S
C245 C250 1.501 . S
C246 C247 1.387 . S
C246 N249 1.341 . S
C247 C245 1.400 . S
C247 C246 1.387 . S
N248 Co239 2.022 . S
N248 C245 1.351 . S
N248 N249 1.365 . S
N249 C246 1.341 . S
N249 N248 1.365 . S
N249 H269 0.862 . S
C250 C245 1.501 . S
C250 H251 0.961 . S
C250 H252 0.961 . S
C250 H253 0.960 . S
H251 C250 0.961 . S
H252 C250 0.961 . S
H253 C250 0.960 . S
C254 N255 1.342 . S
C254 C258 1.401 . S
C254 C259 1.499 . S
N255 Co238 1.989 . S
N255 C254 1.342 . S
N255 N256 1.388 . S
N256 Co239 1.993 . S
N256 N255 1.388 . S
N256 C257 1.346 . S
C257 N256 1.346 . S
C257 C258 1.396 . S
C257 C267 1.510 . S
C258 C254 1.401 . S
C258 C257 1.396 . S
C259 C254 1.499 . S
C259 H260 0.959 . S
C259 H261 0.960 . S
C259 H262 0.961 . S
H260 C259 0.959 . S
H261 C259 0.960 . S
H262 C259 0.961 . S
O263 Co238 1.967 . S
O263 C271 1.258 . S
O264 Co239 1.941 . S
O264 C271 1.266 . S
H265 C267 0.959 . S
H266 C267 0.961 . S
C267 C257 1.510 . S
C267 H265 0.959 . S
C267 H266 0.961 . S
C267 H268 0.960 . S
H268 C267 0.960 . S
H269 N249 0.862 . S
O270 Co238 1.920 . S
O270 C243 1.289 . S
C271 O263 1.258 . S
C271 O264 1.266 . S
C272 C273 1.369 . S
C272 C274 1.419 . S
C272 H276 0.930 . S
C273 C272 1.369 . S
C273 C282 1.429 1_554 S
C274 C272 1.419 . S
C274 C275 1.363 . S
C274 H277 0.929 . S
C275 C274 1.363 . S
C275 C281 1.428 1_554 S
H276 C272 0.930 . S
H277 C274 0.929 . S
S278 N279 1.613 . S
S278 N280 1.610 . S
N279 S278 1.613 . S
N279 C282 1.350 . S
N280 S278 1.610 . S
N280 C281 1.351 . S
C281 C275 1.428 1_556 S
C281 N280 1.351 . S
C281 C282 1.434 . S
C282 C273 1.429 1_556 S
C282 N279 1.350 . S
C282 C281 1.434 . S
C283 C284 1.369 . S
C283 C285 1.419 . S
C283 H287 0.930 . S
C284 C283 1.369 . S
C284 C293 1.429 . S
C285 C283 1.419 . S
C285 C286 1.363 . S
C285 H288 0.929 . S
C286 C285 1.363 . S
C286 C292 1.428 . S
H287 C283 0.930 . S
H288 C285 0.929 . S
S289 N290 1.613 . S
S289 N291 1.610 . S
N290 S289 1.613 . S
N290 C293 1.350 . S
N291 S289 1.610 . S
N291 C292 1.351 . S
C292 C286 1.428 . S
C292 N291 1.351 . S
C292 C293 1.434 . S
C293 C284 1.429 . S
C293 N290 1.350 . S
C293 C292 1.434 . S
C294 C295 1.369 . S
C294 C296 1.419 . S
C294 H298 0.930 . S
C295 C294 1.369 . S
C295 C304 1.429 . S
C296 C294 1.419 . S
C296 C297 1.363 . S
C296 H299 0.929 . S
C297 C296 1.363 . S
C297 C303 1.428 . S
H298 C294 0.930 . S
H299 C296 0.929 . S
S300 N301 1.613 . S
S300 N302 1.610 . S
N301 S300 1.613 . S
N301 C304 1.350 . S
N302 S300 1.610 . S
N302 C303 1.351 . S
C303 C297 1.428 . S
C303 N302 1.351 . S
C303 C304 1.434 . S
C304 C295 1.429 . S
C304 N301 1.350 . S
C304 C303 1.434 . S
C305 C306 1.369 . S
C305 C307 1.419 . S
C305 H309 0.930 1_455 S
C306 C305 1.369 . S
C306 C315 1.429 . S
C307 C305 1.419 . S
C307 C308 1.363 . S
C307 H310 0.929 . S
C308 C307 1.363 . S
C308 C314 1.428 . S
H309 C305 0.930 1_655 S
H310 C307 0.929 . S
S311 N312 1.613 . S
S311 N313 1.610 . S
N312 S311 1.613 . S
N312 C315 1.350 . S
N313 S311 1.610 . S
N313 C314 1.351 . S
C314 C308 1.428 . S
C314 N313 1.351 . S
C314 C315 1.434 . S
C315 C306 1.429 . S
C315 N312 1.350 . S
C315 C314 1.434 . S
C316 C317 1.369 . S
C316 C318 1.419 . S
C316 H320 0.930 . S
C317 C316 1.369 . S
C317 C326 1.429 . S
C318 C316 1.419 . S
C318 C319 1.363 . S
C318 H321 0.929 . S
C319 C318 1.363 . S
C319 C325 1.428 . S
H320 C316 0.930 . S
H321 C318 0.929 . S
S322 N323 1.613 . S
S322 N324 1.610 . S
N323 S322 1.613 . S
N323 C326 1.350 . S
N324 S322 1.610 . S
N324 C325 1.351 . S
C325 C319 1.428 . S
C325 N324 1.351 . S
C325 C326 1.434 . S
C326 C317 1.429 . S
C326 N323 1.350 . S
C326 C325 1.434 . S
C327 C328 1.369 . S
C327 C329 1.419 . S
C327 H331 0.930 . S
C328 C327 1.369 . S
C328 C337 1.429 . S
C329 C327 1.419 . S
C329 C330 1.363 . S
C329 H332 0.929 . S
C330 C329 1.363 . S
C330 C336 1.428 . S
H331 C327 0.930 . S
H332 C329 0.929 . S
S333 N334 1.613 . S
S333 N335 1.610 . S
N334 S333 1.613 . S
N334 C337 1.350 . S
N335 S333 1.610 . S
N335 C336 1.351 . S
C336 C330 1.428 . S
C336 N335 1.351 . S
C336 C337 1.434 . S
C337 C328 1.429 . S
C337 N334 1.350 . S
C337 C336 1.434 . S
C338 C339 1.369 . S
C338 C340 1.419 . S
C338 H342 0.930 . S
C339 C338 1.369 . S
C339 C348 1.429 . S
C340 C338 1.419 . S
C340 C341 1.363 . S
C340 H343 0.929 . S
C341 C340 1.363 . S
C341 C347 1.428 . S
H342 C338 0.930 . S
H343 C340 0.929 . S
S344 N345 1.613 . S
S344 N346 1.610 . S
N345 S344 1.613 . S
N345 C348 1.350 . S
N346 S344 1.610 . S
N346 C347 1.351 . S
C347 C341 1.428 . S
C347 N346 1.351 . S
C347 C348 1.434 . S
C348 C339 1.429 . S
C348 N345 1.350 . S
C348 C347 1.434 . S
C349 C350 1.369 1_554 S
C349 C351 1.419 . S
C349 H353 0.930 1_554 S
C350 C349 1.369 1_556 S
C350 C359 1.429 1_556 S
C351 C349 1.419 . S
C351 C352 1.363 . S
C351 H354 0.929 . S
C352 C351 1.363 . S
C352 C358 1.428 . S
H353 C349 0.930 1_556 S
H354 C351 0.929 . S
S355 N356 1.613 1_554 S
S355 N357 1.610 . S
N356 S355 1.613 1_556 S
N356 C359 1.350 1_556 S
N357 S355 1.610 . S
N357 C358 1.351 . S
C358 C352 1.428 . S
C358 N357 1.351 . S
C358 C359 1.434 . S
C359 C350 1.429 1_554 S
C359 N356 1.350 1_554 S
C359 C358 1.434 . S
C360 C361 1.369 . S
C360 C362 1.419 . S
C360 H364 0.930 . S
C361 C360 1.369 . S
C361 C370 1.429 . S
C362 C360 1.419 . S
C362 C363 1.363 . S
C362 H365 0.929 . S
C363 C362 1.363 . S
C363 C369 1.428 . S
H364 C360 0.930 . S
H365 C362 0.929 . S
S366 N367 1.613 . S
S366 N368 1.610 . S
N367 S366 1.613 . S
N367 C370 1.350 . S
N368 S366 1.610 . S
N368 C369 1.351 . S
C369 C363 1.428 . S
C369 N368 1.351 . S
C369 C370 1.434 . S
C370 C361 1.429 . S
C370 N367 1.350 . S
C370 C369 1.434 . S
C371 C372 1.369 . S
C371 C373 1.419 . S
C371 H375 0.930 . S
C372 C371 1.369 . S
C372 C381 1.429 . S
C373 C371 1.419 . S
C373 C374 1.363 1_554 S
C373 H376 0.929 . S
C374 C373 1.363 1_556 S
C374 C380 1.428 . S
H375 C371 0.930 . S
H376 C373 0.929 . S
S377 N378 1.613 1_556 S
S377 N379 1.610 . S
N378 S377 1.613 1_554 S
N378 C381 1.350 . S
N379 S377 1.610 . S
N379 C380 1.351 . S
C380 C374 1.428 . S
C380 N379 1.351 . S
C380 C381 1.434 1_556 S
C381 C372 1.429 . S
C381 N378 1.350 . S
C381 C380 1.434 1_554 S
C382 C383 1.369 . S
C382 C384 1.419 . S
C382 H386 0.930 . S
C383 C382 1.369 . S
C383 C392 1.429 . S
C384 C382 1.419 . S
C384 C385 1.363 . S
C384 H387 0.929 . S
C385 C384 1.363 . S
C385 C391 1.428 . S
H386 C382 0.930 . S
H387 C384 0.929 . S
S388 N389 1.613 . S
S388 N390 1.610 . S
N389 S388 1.613 . S
N389 C392 1.350 . S
N390 S388 1.610 . S
N390 C391 1.351 . S
C391 C385 1.428 . S
C391 N390 1.351 . S
C391 C392 1.434 . S
C392 C383 1.429 . S
C392 N389 1.350 . S
C392 C391 1.434 . S
C393 C394 1.369 . S
C393 C395 1.419 . S
C393 H397 0.930 . S
C394 C393 1.369 . S
C394 C403 1.429 . S
C395 C393 1.419 . S
C395 C396 1.363 . S
C395 H398 0.929 . S
C396 C395 1.363 . S
C396 C402 1.428 . S
H397 C393 0.930 . S
H398 C395 0.929 . S
S399 N400 1.613 . S
S399 N401 1.610 . S
N400 S399 1.613 . S
N400 C403 1.350 . S
N401 S399 1.610 . S
N401 C402 1.351 . S
C402 C396 1.428 . S
C402 N401 1.351 . S
C402 C403 1.434 . S
C403 C394 1.429 . S
C403 N400 1.350 . S
C403 C402 1.434 . S
C404 C405 1.369 . S
C404 C406 1.419 . S
C404 H408 0.930 . S
C405 C404 1.369 . S
C405 C414 1.429 . S
C406 C404 1.419 . S
C406 C407 1.363 . S
C406 H409 0.929 . S
C407 C406 1.363 . S
C407 C413 1.428 . S
H408 C404 0.930 . S
H409 C406 0.929 . S
S410 N411 1.613 . S
S410 N412 1.610 1_565 S
N411 S410 1.613 . S
N411 C414 1.350 . S
N412 S410 1.610 1_545 S
N412 C413 1.351 1_545 S
C413 C407 1.428 . S
C413 N412 1.351 1_565 S
C413 C414 1.434 . S
C414 C405 1.429 . S
C414 N411 1.350 . S
C414 C413 1.434 . S
C415 C416 1.369 . S
C415 C417 1.419 . S
C415 H419 0.930 . S
C416 C415 1.369 . S
C416 C425 1.429 . S
C417 C415 1.419 . S
C417 C418 1.363 . S
C417 H420 0.929 . S
C418 C417 1.363 . S
C418 C424 1.428 . S
H419 C415 0.930 . S
H420 C417 0.929 . S
S421 N422 1.613 . S
S421 N423 1.610 . S
N422 S421 1.613 . S
N422 C425 1.350 . S
N423 S421 1.610 . S
N423 C424 1.351 . S
C424 C418 1.428 . S
C424 N423 1.351 . S
C424 C425 1.434 . S
C425 C416 1.429 . S
C425 N422 1.350 . S
C425 C424 1.434 . S
C426 C427 1.369 . S
C426 C428 1.419 . S
C426 H430 0.930 . S
C427 C426 1.369 . S
C427 C436 1.429 . S
C428 C426 1.419 . S
C428 C429 1.363 . S
C428 H431 0.929 . S
C429 C428 1.363 . S
C429 C435 1.428 . S
H430 C426 0.930 . S
H431 C428 0.929 . S
S432 N433 1.613 . S
S432 N434 1.610 . S
N433 S432 1.613 . S
N433 C436 1.350 . S
N434 S432 1.610 . S
N434 C435 1.351 . S
C435 C429 1.428 . S
C435 N434 1.351 . S
C435 C436 1.434 . S
C436 C427 1.429 . S
C436 N433 1.350 . S
C436 C435 1.434 . S
C437 C438 1.369 . S
C437 C439 1.419 . S
C437 H441 0.930 . S
C438 C437 1.369 . S
C438 C447 1.429 . S
C439 C437 1.419 . S
C439 C440 1.363 . S
C439 H442 0.929 . S
C440 C439 1.363 . S
C440 C446 1.428 . S
H441 C437 0.930 . S
H442 C439 0.929 . S
S443 N444 1.613 . S
S443 N445 1.610 . S
N444 S443 1.613 . S
N444 C447 1.350 . S
N445 S443 1.610 . S
N445 C446 1.351 . S
C446 C440 1.428 . S
C446 N445 1.351 . S
C446 C447 1.434 . S
C447 C438 1.429 . S
C447 N444 1.350 . S
C447 C446 1.434 . S
C448 C449 1.369 . S
C448 C450 1.419 . S
C448 H452 0.930 . S
C449 C448 1.369 . S
C449 C458 1.429 . S
C450 C448 1.419 . S
C450 C451 1.363 . S
C450 H453 0.929 . S
C451 C450 1.363 . S
C451 C457 1.428 . S
H452 C448 0.930 . S
H453 C450 0.929 . S
S454 N455 1.613 . S
S454 N456 1.610 . S
N455 S454 1.613 . S
N455 C458 1.350 . S
N456 S454 1.610 . S
N456 C457 1.351 . S
C457 C451 1.428 . S
C457 N456 1.351 . S
C457 C458 1.434 . S
C458 C449 1.429 . S
C458 N455 1.350 . S
C458 C457 1.434 . S
C459 C460 1.369 . S
C459 C461 1.419 . S
C459 H463 0.930 1_655 S
C460 C459 1.369 . S
C460 C469 1.429 . S
C461 C459 1.419 . S
C461 C462 1.363 . S
C461 H464 0.929 . S
C462 C461 1.363 . S
C462 C468 1.428 . S
H463 C459 0.930 1_455 S
H464 C461 0.929 . S
S465 N466 1.613 . S
S465 N467 1.610 . S
N466 S465 1.613 . S
N466 C469 1.350 . S
N467 S465 1.610 . S
N467 C468 1.351 . S
C468 C462 1.428 . S
C468 N467 1.351 . S
C468 C469 1.434 . S
C469 C460 1.429 . S
C469 N466 1.350 . S
C469 C468 1.434 . S
C470 C471 1.369 . S
C470 C472 1.419 . S
C470 H474 0.930 . S
C471 C470 1.369 . S
C471 C480 1.429 . S
C472 C470 1.419 . S
C472 C473 1.363 . S
C472 H475 0.929 . S
C473 C472 1.363 . S
C473 C479 1.428 . S
H474 C470 0.930 . S
H475 C472 0.929 . S
S476 N477 1.613 . S
S476 N478 1.610 . S
N477 S476 1.613 . S
N477 C480 1.350 . S
N478 S476 1.610 . S
N478 C479 1.351 . S
C479 C473 1.428 . S
C479 N478 1.351 . S
C479 C480 1.434 . S
C480 C471 1.429 . S
C480 N477 1.350 . S
C480 C479 1.434 . S
C481 C482 1.369 . S
C481 C483 1.419 . S
C481 H485 0.930 . S
C482 C481 1.369 . S
C482 C491 1.429 . S
C483 C481 1.419 . S
C483 C484 1.363 . S
C483 H486 0.929 1_455 S
C484 C483 1.363 . S
C484 C490 1.428 . S
H485 C481 0.930 . S
H486 C483 0.929 1_655 S
S487 N488 1.613 . S
S487 N489 1.610 . S
N488 S487 1.613 . S
N488 C491 1.350 . S
N489 S487 1.610 . S
N489 C490 1.351 . S
C490 C484 1.428 . S
C490 N489 1.351 . S
C490 C491 1.434 . S
C491 C482 1.429 . S
C491 N488 1.350 . S
C491 C490 1.434 . S
C273 C175 1.410 . S
C275 C5 1.404 . S
C284 C209 1.404 . S
C286 C39 1.410 . S
C295 C73 1.402 . S
C297 C243 1.407 . S
C306 C141 1.405 . S
C308 C107 1.404 . S
C317 C271 1.509 . S
C319 C33 1.511 . S
C328 C67 1.510 . S
C330 C169 1.511 . S
C339 C203 1.511 . S
C341 C101 1.509 . S
C350 C135 1.510 . S
C352 C237 1.511 . S
C361 C258 1.438 . S
C363 C20 1.438 . S
C372 C54 1.439 . S
C374 C156 1.439 . S
C383 C190 1.438 . S
C385 C88 1.438 . S
C394 C224 1.439 . S
C396 C122 1.438 . S
C405 C9 1.654 1_556 S
C407 C104 1.653 1_565 S
C416 C2 1.650 . S
C418 C43 1.651 . S
C427 C36 1.653 1_545 S
C429 C77 1.652 . S
C438 C70 1.649 . S
C440 C111 1.650 . S
C449 C145 1.649 . S
C451 C172 1.650 . S
C460 C206 1.649 1_655 S
C462 C179 1.649 . S
C471 C240 1.651 . S
C473 C213 1.650 . S
C482 C247 1.650 . S
C484 C138 1.651 1_455 S
