# Generated by pormake.
# Topology ukc, (4)-cn, num edge types: 1
# Building blocks:
#     Node 0, Type 0, BuildingBlock: QUQFOY_clean_sbu_3, # of connection points: 4
#     Node 1, Type 0, BuildingBlock: QUQFOY_clean_sbu_3, # of connection points: 4
#     Node 2, Type 0, BuildingBlock: QUQFOY_clean_sbu_3, # of connection points: 4
#     Node 3, Type 0, BuildingBlock: QUQFOY_clean_sbu_3, # of connection points: 4
#     Node 4, Type 0, BuildingBlock: QUQFOY_clean_sbu_3, # of connection points: 4
#     Node 5, Type 0, BuildingBlock: QUQFOY_clean_sbu_3, # of connection points: 4
#     Node 6, Type 0, BuildingBlock: QUQFOY_clean_sbu_3, # of connection points: 4
#     Node 7, Type 0, BuildingBlock: QUQFOY_clean_sbu_3, # of connection points: 4
#     Node 8, Type 0, BuildingBlock: QUQFOY_clean_sbu_3, # of connection points: 4
#     Node 9, Type 0, BuildingBlock: QUQFOY_clean_sbu_3, # of connection points: 4
#     Node 10, Type 0, BuildingBlock: QUQFOY_clean_sbu_3, # of connection points: 4
#     Node 11, Type 0, BuildingBlock: QUQFOY_clean_sbu_3, # of connection points: 4
#     Node 12, Type 0, BuildingBlock: QUQFOY_clean_sbu_3, # of connection points: 4
#     Node 13, Type 0, BuildingBlock: QUQFOY_clean_sbu_3, # of connection points: 4
#     Node 14, Type 0, BuildingBlock: QUQFOY_clean_sbu_3, # of connection points: 4
#     Node 15, Type 0, BuildingBlock: QUQFOY_clean_sbu_3, # of connection points: 4
#     Node 16, Type 0, BuildingBlock: QUQFOY_clean_sbu_3, # of connection points: 4
#     Node 17, Type 0, BuildingBlock: QUQFOY_clean_sbu_3, # of connection points: 4
#     Node 18, Type 0, BuildingBlock: QUQFOY_clean_sbu_3, # of connection points: 4
#     Node 19, Type 0, BuildingBlock: QUQFOY_clean_sbu_3, # of connection points: 4
#     Node 20, Type 0, BuildingBlock: QUQFOY_clean_sbu_3, # of connection points: 4
#     Node 21, Type 0, BuildingBlock: QUQFOY_clean_sbu_3, # of connection points: 4
#     Node 22, Type 0, BuildingBlock: QUQFOY_clean_sbu_3, # of connection points: 4
#     Node 23, Type 0, BuildingBlock: QUQFOY_clean_sbu_3, # of connection points: 4
#     Node 24, Type 0, BuildingBlock: QUQFOY_clean_sbu_3, # of connection points: 4
#     Node 25, Type 0, BuildingBlock: QUQFOY_clean_sbu_3, # of connection points: 4
#     Node 26, Type 0, BuildingBlock: QUQFOY_clean_sbu_3, # of connection points: 4
#     Node 27, Type 0, BuildingBlock: QUQFOY_clean_sbu_3, # of connection points: 4
#     Node 28, Type 0, BuildingBlock: QUQFOY_clean_sbu_3, # of connection points: 4
#     Node 29, Type 0, BuildingBlock: QUQFOY_clean_sbu_3, # of connection points: 4
#     Node 30, Type 0, BuildingBlock: QUQFOY_clean_sbu_3, # of connection points: 4
#     Node 31, Type 0, BuildingBlock: QUQFOY_clean_sbu_3, # of connection points: 4
#     Edge 32, Type (0, 0), BuildingBlock: UVAHIK_clean_linker_0, # of connection points: 2
#     Edge 33, Type (0, 0), BuildingBlock: UVAHIK_clean_linker_0, # of connection points: 2
#     Edge 34, Type (0, 0), BuildingBlock: UVAHIK_clean_linker_0, # of connection points: 2
#     Edge 35, Type (0, 0), BuildingBlock: UVAHIK_clean_linker_0, # of connection points: 2
#     Edge 36, Type (0, 0), BuildingBlock: UVAHIK_clean_linker_0, # of connection points: 2
#     Edge 37, Type (0, 0), BuildingBlock: UVAHIK_clean_linker_0, # of connection points: 2
#     Edge 38, Type (0, 0), BuildingBlock: UVAHIK_clean_linker_0, # of connection points: 2
#     Edge 39, Type (0, 0), BuildingBlock: UVAHIK_clean_linker_0, # of connection points: 2
#     Edge 40, Type (0, 0), BuildingBlock: UVAHIK_clean_linker_0, # of connection points: 2
#     Edge 41, Type (0, 0), BuildingBlock: UVAHIK_clean_linker_0, # of connection points: 2
#     Edge 42, Type (0, 0), BuildingBlock: UVAHIK_clean_linker_0, # of connection points: 2
#     Edge 43, Type (0, 0), BuildingBlock: UVAHIK_clean_linker_0, # of connection points: 2
#     Edge 44, Type (0, 0), BuildingBlock: UVAHIK_clean_linker_0, # of connection points: 2
#     Edge 45, Type (0, 0), BuildingBlock: UVAHIK_clean_linker_0, # of connection points: 2
#     Edge 46, Type (0, 0), BuildingBlock: UVAHIK_clean_linker_0, # of connection points: 2
#     Edge 47, Type (0, 0), BuildingBlock: UVAHIK_clean_linker_0, # of connection points: 2
#     Edge 48, Type (0, 0), BuildingBlock: UVAHIK_clean_linker_0, # of connection points: 2
#     Edge 49, Type (0, 0), BuildingBlock: UVAHIK_clean_linker_0, # of connection points: 2
#     Edge 50, Type (0, 0), BuildingBlock: UVAHIK_clean_linker_0, # of connection points: 2
#     Edge 51, Type (0, 0), BuildingBlock: UVAHIK_clean_linker_0, # of connection points: 2
#     Edge 52, Type (0, 0), BuildingBlock: UVAHIK_clean_linker_0, # of connection points: 2
#     Edge 53, Type (0, 0), BuildingBlock: UVAHIK_clean_linker_0, # of connection points: 2
#     Edge 54, Type (0, 0), BuildingBlock: UVAHIK_clean_linker_0, # of connection points: 2
#     Edge 55, Type (0, 0), BuildingBlock: UVAHIK_clean_linker_0, # of connection points: 2
#     Edge 56, Type (0, 0), BuildingBlock: UVAHIK_clean_linker_0, # of connection points: 2
#     Edge 57, Type (0, 0), BuildingBlock: UVAHIK_clean_linker_0, # of connection points: 2
#     Edge 58, Type (0, 0), BuildingBlock: UVAHIK_clean_linker_0, # of connection points: 2
#     Edge 59, Type (0, 0), BuildingBlock: UVAHIK_clean_linker_0, # of connection points: 2
#     Edge 60, Type (0, 0), BuildingBlock: UVAHIK_clean_linker_0, # of connection points: 2
#     Edge 61, Type (0, 0), BuildingBlock: UVAHIK_clean_linker_0, # of connection points: 2
#     Edge 62, Type (0, 0), BuildingBlock: UVAHIK_clean_linker_0, # of connection points: 2
#     Edge 63, Type (0, 0), BuildingBlock: UVAHIK_clean_linker_0, # of connection points: 2
#     Edge 64, Type (0, 0), BuildingBlock: UVAHIK_clean_linker_0, # of connection points: 2
#     Edge 65, Type (0, 0), BuildingBlock: UVAHIK_clean_linker_0, # of connection points: 2
#     Edge 66, Type (0, 0), BuildingBlock: UVAHIK_clean_linker_0, # of connection points: 2
#     Edge 67, Type (0, 0), BuildingBlock: UVAHIK_clean_linker_0, # of connection points: 2
#     Edge 68, Type (0, 0), BuildingBlock: UVAHIK_clean_linker_0, # of connection points: 2
#     Edge 69, Type (0, 0), BuildingBlock: UVAHIK_clean_linker_0, # of connection points: 2
#     Edge 70, Type (0, 0), BuildingBlock: UVAHIK_clean_linker_0, # of connection points: 2
#     Edge 71, Type (0, 0), BuildingBlock: UVAHIK_clean_linker_0, # of connection points: 2
#     Edge 72, Type (0, 0), BuildingBlock: UVAHIK_clean_linker_0, # of connection points: 2
#     Edge 73, Type (0, 0), BuildingBlock: UVAHIK_clean_linker_0, # of connection points: 2
#     Edge 74, Type (0, 0), BuildingBlock: UVAHIK_clean_linker_0, # of connection points: 2
#     Edge 75, Type (0, 0), BuildingBlock: UVAHIK_clean_linker_0, # of connection points: 2
#     Edge 76, Type (0, 0), BuildingBlock: UVAHIK_clean_linker_0, # of connection points: 2
#     Edge 77, Type (0, 0), BuildingBlock: UVAHIK_clean_linker_0, # of connection points: 2
#     Edge 78, Type (0, 0), BuildingBlock: UVAHIK_clean_linker_0, # of connection points: 2
#     Edge 79, Type (0, 0), BuildingBlock: UVAHIK_clean_linker_0, # of connection points: 2
#     Edge 80, Type (0, 0), BuildingBlock: UVAHIK_clean_linker_0, # of connection points: 2
#     Edge 81, Type (0, 0), BuildingBlock: UVAHIK_clean_linker_0, # of connection points: 2
#     Edge 82, Type (0, 0), BuildingBlock: UVAHIK_clean_linker_0, # of connection points: 2
#     Edge 83, Type (0, 0), BuildingBlock: UVAHIK_clean_linker_0, # of connection points: 2
#     Edge 84, Type (0, 0), BuildingBlock: UVAHIK_clean_linker_0, # of connection points: 2
#     Edge 85, Type (0, 0), BuildingBlock: UVAHIK_clean_linker_0, # of connection points: 2
#     Edge 86, Type (0, 0), BuildingBlock: UVAHIK_clean_linker_0, # of connection points: 2
#     Edge 87, Type (0, 0), BuildingBlock: UVAHIK_clean_linker_0, # of connection points: 2
#     Edge 88, Type (0, 0), BuildingBlock: UVAHIK_clean_linker_0, # of connection points: 2
#     Edge 89, Type (0, 0), BuildingBlock: UVAHIK_clean_linker_0, # of connection points: 2
#     Edge 90, Type (0, 0), BuildingBlock: UVAHIK_clean_linker_0, # of connection points: 2
#     Edge 91, Type (0, 0), BuildingBlock: UVAHIK_clean_linker_0, # of connection points: 2
#     Edge 92, Type (0, 0), BuildingBlock: UVAHIK_clean_linker_0, # of connection points: 2
#     Edge 93, Type (0, 0), BuildingBlock: UVAHIK_clean_linker_0, # of connection points: 2
#     Edge 94, Type (0, 0), BuildingBlock: UVAHIK_clean_linker_0, # of connection points: 2
#     Edge 95, Type (0, 0), BuildingBlock: UVAHIK_clean_linker_0, # of connection points: 2
# Relax obj value: 0.042
# Max RMSD: 0.062
# Mean RMSD: 0.062
data_MOF--net-ukc--node1-QUQFOY_clean_sbu_3--edge1-UVAHIK_clean_linker_0
_symmetry_space_group_name_H-M    P1
_symmetry_Int_Tables_number       1
_symmetry_cell_setting            triclinic
loop_
_symmetry_equiv_pos_as_xyz
'x, y, z'
_cell_length_a     59.651608
_cell_length_b     59.57074
_cell_length_c     116.74537
_cell_angle_alpha  89.983804
_cell_angle_beta   90.002818
_cell_angle_gamma 89.941506
loop_
_atom_site_label
_atom_site_type_symbol
_atom_site_fract_x
_atom_site_fract_y
_atom_site_fract_z
_atom_type_partial_charge
C0 C 0.0861 0.39456 0.05351 0.0
O1 O 0.06742 0.40453 0.05235 0.0
Cd2 Cd 0.04681 0.40468 0.03478 0.0
O3 O 0.09575 0.38524 0.04501 0.0
Cd4 Cd 0.09065 0.38127 0.02405 0.0
C5 C 0.04556 0.34805 0.02854 0.0
O6 O 0.07335 0.41727 0.02098 0.0
O7 O 0.07113 0.39466 0.00666 0.0
O8 O 0.12955 0.39141 0.02096 0.0
C9 C 0.06736 0.41404 0.01072 0.0
O10 O 0.03486 0.36575 0.03133 0.0
C11 C 0.13472 0.37383 0.01541 0.0
O12 O 0.06632 0.34888 0.02606 0.0
O13 O 0.11935 0.35936 0.01396 0.0
C14 C 0.8351 0.83487 0.30354 0.0
O15 O 0.82878 0.81465 0.30236 0.0
Cd16 Cd 0.82715 0.79462 0.28465 0.0
O17 O 0.8416 0.84633 0.29493 0.0
Cd18 Cd 0.84663 0.8408 0.27403 0.0
C19 C 0.88278 0.79707 0.27739 0.0
O20 O 0.81205 0.82075 0.27128 0.0
O21 O 0.83392 0.82091 0.25664 0.0
O22 O 0.83426 0.87894 0.2701 0.0
C23 C 0.81522 0.81532 0.26095 0.0
O24 O 0.86591 0.78507 0.28006 0.0
C25 C 0.85194 0.88483 0.26485 0.0
O26 O 0.88063 0.81804 0.27554 0.0
O27 O 0.86744 0.87029 0.26402 0.0
C28 C 0.38735 0.58749 0.55364 0.0
O29 O 0.407 0.57928 0.55334 0.0
Cd30 Cd 0.42998 0.5775 0.53661 0.0
O31 O 0.37822 0.59523 0.54459 0.0
Cd32 Cd 0.38762 0.59911 0.52399 0.0
C33 C 0.43183 0.63331 0.52942 0.0
O34 O 0.40601 0.56316 0.52202 0.0
O35 O 0.41011 0.58548 0.50768 0.0
O36 O 0.35016 0.58797 0.51815 0.0
C37 C 0.41336 0.5662 0.51199 0.0
O38 O 0.44242 0.61587 0.53269 0.0
C39 C 0.3457 0.60592 0.51275 0.0
O40 O 0.4113 0.63212 0.52649 0.0
O41 O 0.36064 0.6211 0.51275 0.0
C42 C 0.64078 0.142 0.80279 0.0
O43 O 0.64937 0.16144 0.80204 0.0
Cd44 Cd 0.65147 0.18263 0.78471 0.0
O45 O 0.633 0.13217 0.79395 0.0
Cd46 Cd 0.62941 0.13893 0.77308 0.0
C47 C 0.59551 0.18376 0.77768 0.0
O48 O 0.6656 0.15654 0.771 0.0
O49 O 0.64436 0.15885 0.75617 0.0
O50 O 0.63796 0.09936 0.77033 0.0
C51 C 0.66326 0.16275 0.76072 0.0
O52 O 0.61298 0.19461 0.78062 0.0
C53 C 0.62183 0.09556 0.76351 0.0
O54 O 0.59664 0.16298 0.77519 0.0
O55 O 0.60894 0.11196 0.76124 0.0
C56 C 0.0827 0.5872 0.41709 0.0
O57 O 0.06282 0.58011 0.4185 0.0
Cd58 Cd 0.04434 0.57723 0.43659 0.0
O59 O 0.09437 0.59383 0.42558 0.0
Cd60 Cd 0.09007 0.59811 0.44658 0.0
C61 C 0.04489 0.63278 0.44407 0.0
O62 O 0.07214 0.56233 0.44919 0.0
O63 O 0.07224 0.58334 0.46417 0.0
O64 O 0.12911 0.58759 0.44928 0.0
C65 C 0.06752 0.56453 0.45969 0.0
O66 O 0.03335 0.61552 0.4415 0.0
C67 C 0.1346 0.60517 0.45473 0.0
O68 O 0.06597 0.63127 0.44563 0.0
O69 O 0.11936 0.61975 0.45631 0.0
C70 C 0.64313 0.83443 0.66661 0.0
O71 O 0.65163 0.81508 0.66804 0.0
Cd72 Cd 0.65241 0.79548 0.68584 0.0
O73 O 0.63461 0.84515 0.67501 0.0
Cd74 Cd 0.62973 0.84022 0.69601 0.0
C75 C 0.59606 0.79504 0.6921 0.0
O76 O 0.66592 0.82313 0.69886 0.0
O77 O 0.64429 0.8218 0.71354 0.0
O78 O 0.63777 0.88009 0.69796 0.0
C79 C 0.6634 0.81783 0.70925 0.0
O80 O 0.61367 0.78392 0.68964 0.0
C81 C 0.6215 0.88425 0.70464 0.0
O82 O 0.59709 0.81602 0.6941 0.0
O83 O 0.60873 0.86794 0.70716 0.0
C84 C 0.38845 0.39252 0.91654 0.0
O85 O 0.40828 0.40021 0.91701 0.0
Cd86 Cd 0.43095 0.40115 0.93387 0.0
O87 O 0.37892 0.38479 0.92549 0.0
Cd88 Cd 0.38765 0.37999 0.94611 0.0
C89 C 0.43151 0.34515 0.94082 0.0
O90 O 0.40671 0.41538 0.94836 0.0
O91 O 0.4099 0.39289 0.96269 0.0
O92 O 0.35022 0.39147 0.9519 0.0
C93 C 0.41381 0.41207 0.95843 0.0
O94 O 0.4425 0.36242 0.93768 0.0
C95 C 0.34543 0.3733 0.95702 0.0
O96 O 0.41094 0.3467 0.94363 0.0
O97 O 0.36017 0.35791 0.9569 0.0
C98 C 0.83369 0.14453 0.16609 0.0
O99 O 0.82787 0.16489 0.16734 0.0
Cd100 Cd 0.8274 0.18492 0.18502 0.0
O101 O 0.84042 0.13296 0.17462 0.0
Cd102 Cd 0.84669 0.13892 0.19542 0.0
C103 C 0.88326 0.18199 0.19157 0.0
O104 O 0.81222 0.15906 0.1985 0.0
O105 O 0.83489 0.15953 0.21282 0.0
O106 O 0.83414 0.10113 0.20004 0.0
C107 C 0.81584 0.16466 0.20877 0.0
O108 O 0.86638 0.19421 0.18917 0.0
C109 C 0.85208 0.09524 0.20506 0.0
O110 O 0.88098 0.16104 0.1934 0.0
O111 O 0.86785 0.10953 0.20536 0.0
C112 C 0.88544 0.58442 0.91699 0.0
O113 O 0.90414 0.57427 0.91744 0.0
Cd114 Cd 0.92824 0.57502 0.9338 0.0
O115 O 0.87759 0.59466 0.9257 0.0
Cd116 Cd 0.88723 0.6002 0.94613 0.0
C117 C 0.93197 0.63193 0.93879 0.0
O118 O 0.90456 0.56413 0.94922 0.0
O119 O 0.90999 0.58818 0.9627 0.0
O120 O 0.84958 0.59088 0.9523 0.0
C121 C 0.91259 0.56831 0.95902 0.0
O122 O 0.94177 0.61378 0.93589 0.0
C123 C 0.84573 0.60949 0.95721 0.0
O124 O 0.91173 0.63179 0.94223 0.0
O125 O 0.86112 0.62419 0.9568 0.0
C126 C 0.14544 0.1435 0.66616 0.0
O127 O 0.15381 0.16291 0.66754 0.0
Cd128 Cd 0.15335 0.18304 0.68519 0.0
O129 O 0.13645 0.13304 0.67451 0.0
Cd130 Cd 0.13018 0.13825 0.69535 0.0
C131 C 0.09654 0.18313 0.69046 0.0
O132 O 0.16597 0.15562 0.69856 0.0
O133 O 0.14376 0.15694 0.71302 0.0
O134 O 0.13813 0.09841 0.69738 0.0
C135 C 0.16296 0.16112 0.70889 0.0
O136 O 0.11421 0.19431 0.68821 0.0
C137 C 0.12158 0.09428 0.70388 0.0
O138 O 0.09761 0.16223 0.69268 0.0
O139 O 0.10877 0.11064 0.70631 0.0
C140 C 0.58745 0.39322 0.41804 0.0
O141 O 0.56864 0.40302 0.41903 0.0
Cd142 Cd 0.54679 0.40145 0.43617 0.0
O143 O 0.59649 0.38321 0.42651 0.0
Cd144 Cd 0.59018 0.37733 0.44726 0.0
C145 C 0.54582 0.3442 0.4411 0.0
O146 O 0.57252 0.41295 0.45059 0.0
O147 O 0.56981 0.38976 0.46464 0.0
O148 O 0.62889 0.38744 0.45068 0.0
C149 C 0.56604 0.40926 0.46072 0.0
O150 O 0.53522 0.36208 0.43848 0.0
C151 C 0.63402 0.3697 0.45611 0.0
O152 O 0.56635 0.34494 0.44406 0.0
O153 O 0.61866 0.35516 0.4574 0.0
C154 C 0.33626 0.83428 0.16604 0.0
O155 O 0.3302 0.81398 0.16724 0.0
Cd156 Cd 0.32915 0.7943 0.18506 0.0
O157 O 0.34298 0.84573 0.1746 0.0
Cd158 Cd 0.34899 0.84038 0.19542 0.0
C159 C 0.38499 0.7967 0.19172 0.0
O160 O 0.31393 0.82111 0.1981 0.0
O161 O 0.33509 0.82174 0.21298 0.0
O162 O 0.3396 0.87996 0.19763 0.0
C163 C 0.31652 0.81619 0.20854 0.0
O164 O 0.36804 0.78457 0.18936 0.0
C165 C 0.35608 0.88449 0.20411 0.0
O166 O 0.38283 0.81769 0.19346 0.0
O167 O 0.3694 0.8685 0.20645 0.0
C168 C 0.88636 0.39397 0.55358 0.0
O169 O 0.9053 0.40362 0.55311 0.0
Cd170 Cd 0.92921 0.4026 0.53668 0.0
O171 O 0.87813 0.38413 0.54485 0.0
Cd172 Cd 0.88732 0.37879 0.52433 0.0
C173 C 0.93139 0.34571 0.53127 0.0
O174 O 0.90562 0.41438 0.52141 0.0
O175 O 0.91009 0.39058 0.50773 0.0
O176 O 0.84977 0.38922 0.5184 0.0
C177 C 0.9134 0.41022 0.51156 0.0
O178 O 0.94165 0.36352 0.53427 0.0
C179 C 0.84541 0.37083 0.51339 0.0
O180 O 0.9111 0.34646 0.52791 0.0
O181 O 0.86048 0.35576 0.51363 0.0
C182 C 0.33606 0.13994 0.30222 0.0
O183 O 0.32627 0.15881 0.30147 0.0
Cd184 Cd 0.3275 0.18157 0.28465 0.0
O185 O 0.34594 0.13125 0.29361 0.0
Cd186 Cd 0.35108 0.13884 0.27288 0.0
C187 C 0.38455 0.18259 0.27943 0.0
O188 O 0.31528 0.15673 0.26999 0.0
O189 O 0.33835 0.16041 0.25598 0.0
O190 O 0.34205 0.09965 0.26967 0.0
C191 C 0.3189 0.1639 0.25997 0.0
O192 O 0.36677 0.19319 0.28218 0.0
C193 C 0.35837 0.09577 0.26297 0.0
O194 O 0.38371 0.16213 0.27632 0.0
O195 O 0.37167 0.11196 0.261 0.0
C196 C 0.58652 0.58638 0.0517 0.0
O197 O 0.5683 0.57565 0.0505 0.0
Cd198 Cd 0.54789 0.5748 0.03285 0.0
O199 O 0.59585 0.59606 0.04322 0.0
Cd200 Cd 0.59116 0.60004 0.02228 0.0
C201 C 0.54467 0.63144 0.02677 0.0
O202 O 0.57519 0.56352 0.01911 0.0
O203 O 0.57302 0.58591 0.00469 0.0
O204 O 0.63061 0.59179 0.01977 0.0
C205 C 0.56949 0.56652 0.00879 0.0
O206 O 0.53456 0.61337 0.02952 0.0
C207 C 0.63517 0.60951 0.0142 0.0
O208 O 0.56546 0.63129 0.02431 0.0
O209 O 0.61914 0.62313 0.01241 0.0
C210 C 0.14375 0.84149 0.80357 0.0
O211 O 0.15364 0.82265 0.803 0.0
Cd212 Cd 0.15301 0.79948 0.78632 0.0
O213 O 0.13404 0.84995 0.79485 0.0
Cd214 Cd 0.12945 0.84185 0.77416 0.0
C215 C 0.09616 0.79786 0.78073 0.0
O216 O 0.16548 0.82417 0.77162 0.0
O217 O 0.14286 0.82024 0.75743 0.0
O218 O 0.13792 0.8811 0.77069 0.0
C219 C 0.1622 0.81688 0.7616 0.0
O220 O 0.1139 0.78738 0.78366 0.0
C221 C 0.12149 0.88459 0.764 0.0
O222 O 0.09702 0.81826 0.77752 0.0
O223 O 0.10846 0.86814 0.76212 0.0
C224 C 0.58835 0.89365 0.55278 0.0
O225 O 0.56871 0.90181 0.55214 0.0
Cd226 Cd 0.54653 0.90278 0.5351 0.0
O227 O 0.59792 0.88556 0.54393 0.0
Cd228 Cd 0.58974 0.8806 0.52326 0.0
C229 C 0.54537 0.84657 0.52866 0.0
O230 O 0.57116 0.91621 0.52058 0.0
O231 O 0.56791 0.89316 0.50648 0.0
O232 O 0.62744 0.8916 0.51778 0.0
C233 C 0.5642 0.91258 0.51052 0.0
O234 O 0.53454 0.86412 0.53155 0.0
C235 C 0.63222 0.87342 0.51267 0.0
O236 O 0.56602 0.84769 0.52596 0.0
O237 O 0.61733 0.85819 0.51267 0.0
C238 C 0.33325 0.33567 0.8029 0.0
O239 O 0.325 0.31623 0.80146 0.0
Cd240 Cd 0.32495 0.29625 0.78378 0.0
O241 O 0.34203 0.34635 0.79456 0.0
Cd242 Cd 0.34784 0.341 0.77364 0.0
C243 C 0.3815 0.29591 0.77805 0.0
O244 O 0.31191 0.3237 0.77053 0.0
O245 O 0.33407 0.32214 0.75607 0.0
O246 O 0.33988 0.38082 0.7712 0.0
C247 C 0.31484 0.31815 0.76021 0.0
O248 O 0.36386 0.28473 0.78033 0.0
C249 C 0.35644 0.38467 0.76465 0.0
O250 O 0.38044 0.31688 0.77602 0.0
O251 O 0.36932 0.36823 0.76247 0.0
C252 C 0.89317 0.08785 0.05318 0.0
O253 O 0.91318 0.08079 0.05221 0.0
Cd254 Cd 0.93321 0.07818 0.03458 0.0
O255 O 0.8823 0.09474 0.04446 0.0
Cd256 Cd 0.88907 0.09942 0.02362 0.0
C257 C 0.93385 0.13384 0.02756 0.0
O258 O 0.90635 0.06299 0.02153 0.0
O259 O 0.90808 0.08383 0.00654 0.0
O260 O 0.84936 0.09159 0.02091 0.0
C261 C 0.91179 0.06491 0.01113 0.0
O262 O 0.94515 0.11641 0.03013 0.0
C263 C 0.84586 0.10777 0.01405 0.0
O264 O 0.91291 0.1325 0.02559 0.0
O265 O 0.86244 0.12035 0.01179 0.0
C266 C 0.14109 0.64659 0.30329 0.0
O267 O 0.14892 0.66623 0.30192 0.0
Cd268 Cd 0.15255 0.68477 0.28385 0.0
O269 O 0.13397 0.63524 0.29478 0.0
Cd270 Cd 0.12969 0.63965 0.2738 0.0
C271 C 0.09701 0.68626 0.27647 0.0
O272 O 0.16617 0.6562 0.27133 0.0
O273 O 0.14571 0.65609 0.25618 0.0
O274 O 0.13669 0.5995 0.27234 0.0
C275 C 0.1644 0.66063 0.26078 0.0
O276 O 0.11469 0.69718 0.27897 0.0
C277 C 0.12028 0.59549 0.26573 0.0
O278 O 0.09768 0.6651 0.27495 0.0
O279 O 0.10799 0.61206 0.26298 0.0
C280 C 0.58485 0.08558 0.91712 0.0
O281 O 0.56585 0.07657 0.9188 0.0
Cd282 Cd 0.54713 0.07548 0.93685 0.0
O283 O 0.59571 0.09448 0.92536 0.0
Cd284 Cd 0.59182 0.09966 0.94637 0.0
C285 C 0.54554 0.13204 0.94277 0.0
O286 O 0.57575 0.06317 0.94962 0.0
O287 O 0.57471 0.0851 0.96421 0.0
O288 O 0.63187 0.09251 0.94783 0.0
C289 C 0.57088 0.06582 0.96006 0.0
O290 O 0.5348 0.11407 0.94057 0.0
C291 C 0.63596 0.10898 0.95441 0.0
O292 O 0.56661 0.1316 0.94452 0.0
O293 O 0.6195 0.12148 0.95707 0.0
C294 C 0.13994 0.33871 0.16841 0.0
O295 O 0.15085 0.32048 0.16925 0.0
Cd296 Cd 0.15253 0.29891 0.18648 0.0
O297 O 0.13038 0.34747 0.17709 0.0
Cd298 Cd 0.12758 0.341 0.19802 0.0
C299 C 0.09632 0.29468 0.19315 0.0
O300 O 0.16468 0.32549 0.20039 0.0
O301 O 0.14307 0.32174 0.21499 0.0
O302 O 0.13449 0.38084 0.20048 0.0
C303 C 0.16235 0.31905 0.21063 0.0
O304 O 0.11438 0.2849 0.1901 0.0
C305 C 0.11837 0.38422 0.20736 0.0
O306 O 0.09632 0.31536 0.19589 0.0
O307 O 0.10613 0.36744 0.20979 0.0
C308 C 0.894 0.89346 0.41686 0.0
O309 O 0.91389 0.9006 0.41818 0.0
Cd310 Cd 0.93298 0.90281 0.43615 0.0
O311 O 0.88268 0.88632 0.42538 0.0
Cd312 Cd 0.88761 0.88103 0.44628 0.0
C313 C 0.93309 0.84697 0.44322 0.0
O314 O 0.90557 0.91672 0.44922 0.0
O315 O 0.90571 0.89499 0.46394 0.0
O316 O 0.84867 0.89139 0.44931 0.0
C317 C 0.91048 0.91396 0.45966 0.0
O318 O 0.94433 0.86446 0.4407 0.0
C319 C 0.8433 0.87363 0.45465 0.0
O320 O 0.91202 0.84811 0.4449 0.0
O321 O 0.85855 0.85897 0.45599 0.0
C322 C 0.33275 0.64548 0.66723 0.0
O323 O 0.32461 0.6649 0.66893 0.0
Cd324 Cd 0.3251 0.68384 0.68692 0.0
O325 O 0.34165 0.63442 0.67542 0.0
Cd326 Cd 0.34799 0.63882 0.69635 0.0
C327 C 0.38173 0.68388 0.69229 0.0
O328 O 0.31206 0.65595 0.69997 0.0
O329 O 0.33478 0.65686 0.71424 0.0
O330 O 0.34004 0.5989 0.6983 0.0
C331 C 0.31535 0.66091 0.71035 0.0
O332 O 0.36406 0.69523 0.69024 0.0
C333 C 0.35672 0.59468 0.70471 0.0
O334 O 0.38065 0.66283 0.69407 0.0
O335 O 0.36965 0.61096 0.70704 0.0
C336 C 0.38694 0.08481 0.41667 0.0
O337 O 0.40551 0.07453 0.41754 0.0
Cd338 Cd 0.42774 0.07482 0.43457 0.0
O339 O 0.37829 0.09488 0.42523 0.0
Cd340 Cd 0.38569 0.0999 0.44597 0.0
C341 C 0.431 0.13169 0.43971 0.0
O342 O 0.40194 0.06325 0.44901 0.0
O343 O 0.40585 0.08616 0.46308 0.0
O344 O 0.34581 0.09384 0.44906 0.0
C345 C 0.40874 0.06656 0.45912 0.0
O346 O 0.4412 0.11359 0.43709 0.0
C347 C 0.3432 0.11055 0.45568 0.0
O348 O 0.41045 0.13141 0.44262 0.0
O349 O 0.36038 0.12249 0.4577 0.0
C350 C 0.64175 0.64242 0.16661 0.0
O351 O 0.65268 0.66055 0.16777 0.0
Cd352 Cd 0.65464 0.68069 0.18546 0.0
O353 O 0.63233 0.63302 0.17515 0.0
Cd354 Cd 0.62949 0.63764 0.19616 0.0
C355 C 0.5985 0.68461 0.19229 0.0
O356 O 0.6666 0.65279 0.19877 0.0
O357 O 0.64529 0.65486 0.21359 0.0
O358 O 0.63561 0.59747 0.19763 0.0
C359 C 0.66444 0.65816 0.20919 0.0
O360 O 0.61653 0.6946 0.1894 0.0
C361 C 0.61936 0.59386 0.20441 0.0
O362 O 0.59851 0.66374 0.1946 0.0
O363 O 0.60753 0.6107 0.20726 0.0
C364 C 0.08909 0.89402 0.91756 0.0
O365 O 0.07011 0.90356 0.91837 0.0
Cd366 Cd 0.04731 0.90145 0.93517 0.0
O367 O 0.09789 0.88399 0.92609 0.0
Cd368 Cd 0.09075 0.87781 0.94676 0.0
C369 C 0.04722 0.84407 0.93996 0.0
O370 O 0.07197 0.91285 0.95002 0.0
O371 O 0.0691 0.88925 0.96389 0.0
O372 O 0.12883 0.8892 0.95085 0.0
C373 C 0.06493 0.9087 0.96001 0.0
O374 O 0.03651 0.86184 0.93726 0.0
C375 C 0.13429 0.87154 0.95625 0.0
O376 O 0.06761 0.84501 0.94316 0.0
O377 O 0.11944 0.85637 0.95718 0.0
C378 C 0.83508 0.33875 0.6678 0.0
O379 O 0.82498 0.32012 0.66887 0.0
Cd380 Cd 0.82605 0.29845 0.68609 0.0
O381 O 0.84522 0.34773 0.67624 0.0
Cd382 Cd 0.85082 0.34138 0.69703 0.0
C383 C 0.8831 0.29626 0.69105 0.0
O384 O 0.81464 0.32467 0.70035 0.0
O385 O 0.83766 0.32171 0.71444 0.0
O386 O 0.84319 0.38109 0.6995 0.0
C387 C 0.81814 0.3183 0.71052 0.0
O388 O 0.86509 0.28588 0.68852 0.0
C389 C 0.85984 0.38491 0.70599 0.0
O390 O 0.88268 0.31689 0.69385 0.0
O391 O 0.87261 0.36841 0.70823 0.0
C392 C 0.39316 0.89407 0.05344 0.0
O393 O 0.41343 0.90026 0.05246 0.0
Cd394 Cd 0.43431 0.90131 0.03504 0.0
O395 O 0.38214 0.88723 0.04475 0.0
Cd396 Cd 0.38909 0.88127 0.02403 0.0
C397 C 0.43273 0.84542 0.02833 0.0
O398 O 0.40861 0.91616 0.02139 0.0
O399 O 0.40988 0.89404 0.00685 0.0
O400 O 0.35119 0.89278 0.01903 0.0
C401 C 0.41461 0.91302 0.01113 0.0
O402 O 0.44457 0.86244 0.03095 0.0
C403 C 0.34597 0.87454 0.01409 0.0
O404 O 0.41189 0.84749 0.02621 0.0
O405 O 0.36072 0.85917 0.01394 0.0
C406 C 0.8349 0.64161 0.80305 0.0
O407 O 0.82498 0.66038 0.80208 0.0
Cd408 Cd 0.82615 0.68245 0.78501 0.0
O409 O 0.845 0.63269 0.79458 0.0
Cd410 Cd 0.85077 0.63939 0.77383 0.0
C411 C 0.88326 0.68417 0.78007 0.0
O412 O 0.81472 0.65647 0.77067 0.0
O413 O 0.83755 0.65948 0.75652 0.0
O414 O 0.843 0.59975 0.77121 0.0
C415 C 0.81813 0.66305 0.76053 0.0
O416 O 0.86529 0.69464 0.78263 0.0
C417 C 0.85962 0.59594 0.7647 0.0
O418 O 0.88276 0.66358 0.77718 0.0
O419 O 0.87243 0.61241 0.7625 0.0
C420 C 0.08929 0.08557 0.55284 0.0
O421 O 0.06985 0.07698 0.55221 0.0
Cd422 Cd 0.04774 0.07612 0.53513 0.0
O423 O 0.09853 0.09419 0.54404 0.0
Cd424 Cd 0.09076 0.09997 0.52343 0.0
C425 C 0.04567 0.13271 0.52954 0.0
O426 O 0.07352 0.0638 0.52083 0.0
O427 O 0.07086 0.08587 0.50632 0.0
O428 O 0.13053 0.09324 0.52025 0.0
C429 C 0.06704 0.06672 0.51063 0.0
O430 O 0.03508 0.11487 0.53216 0.0
C431 C 0.13341 0.11012 0.51377 0.0
O432 O 0.06629 0.13199 0.52676 0.0
O433 O 0.1164 0.12238 0.51183 0.0
C434 C 0.64325 0.34114 0.30386 0.0
O435 O 0.65355 0.32254 0.30315 0.0
Cd436 Cd 0.65362 0.30013 0.28618 0.0
O437 O 0.63349 0.3497 0.29519 0.0
Cd438 Cd 0.62929 0.34212 0.27445 0.0
C439 C 0.59702 0.29707 0.28045 0.0
O440 O 0.66594 0.32568 0.27178 0.0
O441 O 0.64346 0.32179 0.25752 0.0
O442 O 0.6366 0.38169 0.27129 0.0
C443 C 0.66292 0.31894 0.26163 0.0
O444 O 0.61496 0.28685 0.28331 0.0
C445 C 0.62006 0.38488 0.26464 0.0
O446 O 0.59748 0.3176 0.27747 0.0
O447 O 0.60748 0.36813 0.26267 0.0
C448 C 0.93119 0.53085 0.95989 0.0
C449 C 0.92729 0.55199 0.96484 0.0
C450 C 0.94626 0.51588 0.96489 0.0
C451 C 0.97531 0.50256 -0.00818 0.0
H452 H 0.01745 0.47203 0.97185 0.0
C453 C 0.04909 0.45162 0.00974 0.0
C454 C 0.05323 0.4306 0.00471 0.0
C455 C 0.03427 0.46671 0.00464 0.0
C456 C 0.00565 0.48025 0.97752 0.0
H457 H 0.93565 0.57383 0.97907 0.0
H458 H 0.96213 0.54762 -0.01219 0.0
H459 H -0.01024 0.49757 0.96366 0.0
H460 H 0.04564 0.40913 -0.00977 0.0
H461 H 0.01952 0.43548 0.98134 0.0
H462 H -0.00889 0.4852 0.00567 0.0
C463 C 0.95341 0.54262 0.98009 0.0
C464 C -0.0102 0.49486 0.97284 0.0
C465 C 0.93833 0.55765 0.97507 0.0
C466 C 0.04278 0.42522 -0.00571 0.0
C467 C 0.02789 0.44034 -0.01082 0.0
C468 C -0.00887 0.48793 -0.0035 0.0
C469 C 0.95773 0.52171 0.97496 0.0
C470 C 0.97447 0.50616 0.97995 0.0
C471 C 0.02323 0.4611 -0.00559 0.0
C472 C 0.0065 0.47665 -0.0106 0.0
H473 H 0.92284 0.52596 0.95204 0.0
H474 H 0.94897 0.49973 0.96085 0.0
H475 H 0.96351 0.5108 -0.00251 0.0
H476 H 0.05702 0.45631 0.01773 0.0
H477 H 0.03137 0.48275 0.00874 0.0
C478 C 0.67788 0.68027 0.22605 0.0
C479 C 0.68183 0.67137 0.2151 0.0
C480 C 0.69351 0.69459 0.23112 0.0
C481 C 0.73841 0.73373 0.22331 0.0
H482 H 0.75225 0.73188 0.25574 0.0
C483 C 0.80529 0.79067 0.24434 0.0
C484 C 0.79982 0.79978 0.25508 0.0
C485 C 0.7914 0.77461 0.23928 0.0
C486 C 0.74838 0.73272 0.24669 0.0
H487 H 0.70565 0.66963 0.20108 0.0
H488 H 0.73301 0.69444 0.20998 0.0
H489 H 0.72763 0.70348 0.24751 0.0
H490 H 0.7752 0.79981 0.26877 0.0
H491 H 0.75088 0.77208 0.25987 0.0
H492 H 0.75899 0.76309 0.22251 0.0
C493 C 0.71767 0.69068 0.21456 0.0
C494 C 0.73432 0.71645 0.24198 0.0
C495 C 0.70206 0.67637 0.2095 0.0
C496 C 0.77994 0.79299 0.26051 0.0
C497 C 0.76609 0.77698 0.25546 0.0
C498 C 0.75247 0.75001 0.22802 0.0
C499 C 0.71338 0.70026 0.22532 0.0
C500 C 0.72908 0.71688 0.23026 0.0
C501 C 0.77181 0.7674 0.24487 0.0
C502 C 0.75745 0.74977 0.23977 0.0
H503 H 0.66243 0.6767 0.23058 0.0
H504 H 0.68967 0.70185 0.23939 0.0
H505 H 0.7344 0.73469 0.21428 0.0
H506 H 0.82053 0.79557 0.23996 0.0
H507 H 0.7963 0.76742 0.23113 0.0
C508 C 0.54725 0.44655 0.4617 0.0
C509 C 0.55165 0.42559 0.46674 0.0
C510 C 0.53236 0.46152 0.46682 0.0
C511 C 0.50457 0.47552 0.494 0.0
H512 H 0.46171 0.50539 0.47416 0.0
C513 C 0.43189 0.52865 0.51183 0.0
C514 C 0.42778 0.54932 0.50641 0.0
C515 C 0.44653 0.51309 0.50695 0.0
C516 C 0.47371 0.49735 0.47979 0.0
H517 H 0.54445 0.40409 0.48127 0.0
H518 H 0.51822 0.43032 0.49024 0.0
H519 H 0.48876 0.47924 0.46598 0.0
H520 H 0.43541 0.56974 0.49154 0.0
H521 H 0.46117 0.54257 0.48304 0.0
H522 H 0.48956 0.49372 0.50781 0.0
C523 C 0.52642 0.43517 0.48234 0.0
C524 C 0.4892 0.48239 0.47511 0.0
C525 C 0.54136 0.42014 0.47719 0.0
C526 C 0.43824 0.55393 0.4959 0.0
C527 C 0.4529 0.53834 0.49102 0.0
C528 C 0.48908 0.49052 0.49868 0.0
C529 C 0.52153 0.45586 0.4771 0.0
C530 C 0.50486 0.47141 0.48216 0.0
C531 C 0.45736 0.51785 0.49656 0.0
C532 C 0.47354 0.50165 0.49161 0.0
H533 H 0.55505 0.45131 0.45368 0.0
H534 H 0.52926 0.47752 0.4627 0.0
H535 H 0.51661 0.46749 0.49962 0.0
H536 H 0.42399 0.52456 0.51992 0.0
H537 H 0.44934 0.49729 0.51133 0.0
C538 C 0.78086 0.29955 0.71148 0.0
C539 C 0.80165 0.30423 0.7166 0.0
C540 C 0.76585 0.28481 0.71667 0.0
C541 C 0.76421 0.23761 0.73684 0.0
H542 H 0.70011 0.24858 0.73632 0.0
C543 C 0.7003 0.18213 0.76081 0.0
C544 C 0.68007 0.17727 0.75517 0.0
C545 C 0.71551 0.19729 0.75607 0.0
C546 C 0.71795 0.24518 0.73641 0.0
H547 H 0.82274 0.29773 0.73136 0.0
H548 H 0.79631 0.27207 0.74054 0.0
H549 H 0.72563 0.27685 0.72873 0.0
H550 H 0.66017 0.18391 0.73999 0.0
H551 H 0.68687 0.21034 0.73167 0.0
H552 H 0.75649 0.20592 0.74452 0.0
C553 C 0.79182 0.27958 0.73241 0.0
C554 C 0.73256 0.26138 0.7321 0.0
C555 C 0.80687 0.29437 0.7272 0.0
C556 C 0.6756 0.18739 0.74455 0.0
C557 C 0.6908 0.20263 0.73983 0.0
C558 C 0.74959 0.22142 0.74117 0.0
C559 C 0.77128 0.27444 0.72712 0.0
C560 C 0.75583 0.25773 0.73221 0.0
C561 C 0.71076 0.20794 0.74562 0.0
C562 C 0.72631 0.225 0.74095 0.0
H563 H 0.77635 0.30689 0.7033 0.0
H564 H 0.75028 0.28101 0.71232 0.0
H565 H 0.78203 0.23415 0.73687 0.0
H566 H 0.70422 0.17458 0.76901 0.0
H567 H 0.73067 0.20118 0.76078 0.0
C568 C 0.93892 0.42064 0.49539 0.0
C569 C 0.92856 0.42618 0.50581 0.0
C570 C 0.95432 0.43532 0.49038 0.0
C571 C -0.00737 0.48149 0.49766 0.0
H572 H -0.00844 0.49349 0.46503 0.0
C573 C 0.0446 0.55206 0.4765 0.0
C574 C 0.05393 0.54755 0.4657 0.0
C575 C 0.03013 0.53661 0.48163 0.0
C576 C -0.00772 0.49008 0.47413 0.0
H577 H 0.92576 0.45165 0.51903 0.0
H578 H 0.95245 0.47728 0.51025 0.0
H579 H 0.96414 0.46787 0.4733 0.0
H580 H 0.05627 0.52298 0.45203 0.0
H581 H 0.03138 0.49592 0.46107 0.0
H582 H 0.02077 0.50368 0.49851 0.0
C583 C 0.94895 0.46147 0.50603 0.0
C584 C 0.97655 0.47544 0.47886 0.0
C585 C 0.93354 0.44685 0.51102 0.0
C586 C 0.04917 0.52701 0.46032 0.0
C587 C 0.0348 0.51157 0.46546 0.0
C588 C 0.0084 0.49609 0.49293 0.0
C589 C 0.95966 0.45577 0.49573 0.0
C590 C 0.97652 0.47106 0.49067 0.0
C591 C 0.02481 0.51636 0.47607 0.0
C592 C 0.00836 0.50057 0.48112 0.0
H593 H 0.93542 0.40481 0.49119 0.0
H594 H 0.96244 0.43044 0.48246 0.0
H595 H -0.00679 0.47815 0.50678 0.0
H596 H 0.04796 0.56777 0.48083 0.0
H597 H 0.02257 0.54085 0.48978 0.0
C598 C 0.70093 0.79947 0.70987 0.0
C599 C 0.68031 0.80402 0.7152 0.0
C600 C 0.71625 0.78481 0.7149 0.0
C601 C 0.73137 0.75727 0.74212 0.0
H602 H 0.75957 0.71346 0.72216 0.0
C603 C 0.78109 0.6824 0.7599 0.0
C604 C 0.80176 0.67763 0.75466 0.0
C605 C 0.76623 0.6976 0.75491 0.0
C606 C 0.75201 0.72573 0.72782 0.0
H607 H 0.65985 0.79739 0.73017 0.0
H608 H 0.6866 0.77154 0.73896 0.0
H609 H 0.73407 0.74129 0.71409 0.0
H610 H 0.82282 0.68451 0.73994 0.0
H611 H 0.79681 0.71122 0.73122 0.0
H612 H 0.74924 0.74163 0.75586 0.0
C613 C 0.69097 0.77947 0.73091 0.0
C614 C 0.73743 0.74169 0.7232 0.0
C615 C 0.67562 0.7942 0.72587 0.0
C616 C 0.807 0.68785 0.74416 0.0
C617 C 0.79209 0.70309 0.73916 0.0
C618 C 0.74592 0.7413 0.74674 0.0
C619 C 0.71128 0.77434 0.72538 0.0
C620 C 0.72696 0.75762 0.73031 0.0
C621 C 0.7717 0.70835 0.74458 0.0
C622 C 0.75635 0.72533 0.73964 0.0
H623 H 0.7051 0.80693 0.70168 0.0
H624 H 0.73195 0.78153 0.71055 0.0
H625 H 0.72378 0.76951 0.74778 0.0
H626 H 0.7765 0.67467 0.76796 0.0
H627 H 0.75046 0.701 0.75918 0.0
C628 C 0.43375 0.44881 0.95857 0.0
C629 C 0.42891 0.42833 0.96399 0.0
C630 C 0.44912 0.4637 0.96337 0.0
C631 C 0.49717 0.46551 0.98297 0.0
H632 H 0.48597 0.52966 0.9828 0.0
C633 C 0.55129 0.52891 0.00791 0.0
C634 C 0.55581 0.5497 0.00272 0.0
C635 C 0.53673 0.51368 0.00274 0.0
C636 C 0.48947 0.51181 0.98276 0.0
H637 H 0.43592 0.40758 0.97884 0.0
H638 H 0.46271 0.43378 -0.01269 0.0
H639 H 0.45777 0.50414 0.97516 0.0
H640 H 0.54933 0.57052 -0.01216 0.0
H641 H 0.52395 0.54375 0.97874 0.0
H642 H 0.52885 0.4732 -0.00938 0.0
C643 C 0.45481 0.43814 0.97925 0.0
C644 C 0.4733 0.4972 0.97842 0.0
C645 C 0.43938 0.42323 0.97445 0.0
C646 C 0.54608 0.55466 -0.00794 0.0
C647 C 0.53145 0.53942 -0.01311 0.0
C648 C 0.51335 0.48013 -0.01269 0.0
C649 C 0.45998 0.45843 0.9737 0.0
C650 C 0.47697 0.4739 0.9785 0.0
C651 C 0.52638 0.51892 -0.00773 0.0
C652 C 0.50965 0.50342 -0.01274 0.0
H653 H 0.42596 0.45321 0.95049 0.0
H654 H 0.45291 0.47909 0.95882 0.0
H655 H 0.50063 0.44766 0.98296 0.0
H656 H 0.55856 0.5246 0.01613 0.0
H657 H 0.533 0.49812 0.00715 0.0
C658 C 0.77968 0.18548 0.20976 0.0
C659 C 0.80023 0.17972 0.21485 0.0
C660 C 0.76546 0.20097 0.21498 0.0
C661 C 0.75253 0.22816 0.24246 0.0
H662 H 0.72434 0.27293 0.22305 0.0
C663 C 0.70069 0.30097 0.26108 0.0
C664 C 0.68001 0.30527 0.25575 0.0
C665 C 0.71628 0.28667 0.25598 0.0
C666 C 0.73195 0.26043 0.22856 0.0
H667 H 0.8218 0.1852 0.22953 0.0
H668 H 0.79692 0.21248 0.23866 0.0
H669 H 0.74966 0.24537 0.21462 0.0
H670 H 0.65968 0.29851 0.24074 0.0
H671 H 0.6869 0.27336 0.23185 0.0
H672 H 0.73471 0.24317 0.25639 0.0
C673 C 0.79179 0.20487 0.23066 0.0
C674 C 0.74642 0.24464 0.22374 0.0
C675 C 0.80604 0.18931 0.22543 0.0
C676 C 0.67548 0.2955 0.24505 0.0
C677 C 0.69111 0.28119 0.23994 0.0
C678 C 0.73806 0.24397 0.24728 0.0
C679 C 0.7715 0.21107 0.2254 0.0
C680 C 0.75672 0.22823 0.23062 0.0
C681 C 0.71153 0.27639 0.24544 0.0
C682 C 0.72751 0.26017 0.24037 0.0
H683 H 0.77465 0.17824 0.20165 0.0
H684 H 0.74973 0.20507 0.21084 0.0
H685 H 0.76002 0.21556 0.24795 0.0
H686 H 0.70472 0.30836 0.2693 0.0
H687 H 0.73203 0.28356 0.26032 0.0
C688 C 0.27773 0.29906 0.7595 0.0
C689 C 0.29836 0.30389 0.75425 0.0
C690 C 0.26286 0.28395 0.75449 0.0
C691 C 0.24876 0.25564 0.7274 0.0
H692 H 0.22128 0.21159 0.74745 0.0
C693 C 0.19997 0.18037 0.70965 0.0
C694 C 0.17934 0.17546 0.71488 0.0
C695 C 0.21476 0.19555 0.71468 0.0
C696 C 0.22865 0.22391 0.74177 0.0
H697 H 0.31929 0.2973 0.73944 0.0
H698 H 0.29329 0.27069 0.73068 0.0
H699 H 0.24619 0.23995 0.75548 0.0
H700 H 0.1583 0.18197 0.72966 0.0
H701 H 0.18415 0.20869 0.73844 0.0
H702 H 0.23123 0.23961 0.71369 0.0
C703 C 0.28859 0.27873 0.73865 0.0
C704 C 0.24289 0.24017 0.74635 0.0
C705 C 0.3035 0.2939 0.74367 0.0
C706 C 0.1741 0.18544 0.72544 0.0
C707 C 0.18892 0.20068 0.73048 0.0
C708 C 0.23453 0.23939 0.72281 0.0
C709 C 0.26829 0.27333 0.74412 0.0
C710 C 0.25308 0.25621 0.73922 0.0
C711 C 0.20923 0.20616 0.72504 0.0
C712 C 0.22435 0.22334 0.72995 0.0
H713 H 0.27322 0.30664 0.76761 0.0
H714 H 0.24714 0.28045 0.75878 0.0
H715 H 0.25614 0.26796 0.72171 0.0
H716 H 0.20456 0.1728 0.70155 0.0
H717 H 0.23047 0.1991 0.7104 0.0
C718 C 0.17773 0.68241 0.24377 0.0
C719 C 0.18155 0.67416 0.25487 0.0
C720 C 0.19312 0.69697 0.23867 0.0
C721 C 0.23695 0.73753 0.24634 0.0
H722 H 0.25234 0.734 0.21413 0.0
C723 C 0.30528 0.79281 0.22541 0.0
C724 C 0.30054 0.80131 0.21445 0.0
C725 C 0.29087 0.77728 0.23053 0.0
C726 C 0.24801 0.73533 0.22312 0.0
H727 H 0.20487 0.67384 0.26914 0.0
H728 H 0.23181 0.69901 0.26017 0.0
H729 H 0.22752 0.70589 0.22247 0.0
H730 H 0.27666 0.80085 0.20042 0.0
H731 H 0.25146 0.77403 0.20941 0.0
H732 H 0.25736 0.76703 0.24698 0.0
C733 C 0.21675 0.69459 0.2555 0.0
C734 C 0.23384 0.71922 0.22789 0.0
C735 C 0.20139 0.68007 0.2606 0.0
C736 C 0.28084 0.79449 0.20885 0.0
C737 C 0.26648 0.779 0.21396 0.0
C738 C 0.25113 0.75364 0.24158 0.0
C739 C 0.21259 0.70351 0.24457 0.0
C740 C 0.22811 0.7202 0.23954 0.0
C741 C 0.2715 0.76999 0.22477 0.0
C742 C 0.25672 0.75276 0.2299 0.0
H743 H 0.16258 0.67814 0.23915 0.0
H744 H 0.18939 0.7037 0.23026 0.0
H745 H 0.23254 0.73893 0.25532 0.0
H746 H 0.32035 0.79775 0.22992 0.0
H747 H 0.29523 0.77052 0.23885 0.0
C748 C 0.28207 0.18364 0.2595 0.0
C749 C 0.30276 0.17897 0.25427 0.0
C750 C 0.2674 0.19921 0.25467 0.0
C751 C 0.25355 0.22856 0.2279 0.0
H752 H 0.22492 0.27122 0.24834 0.0
C753 C 0.20047 0.30184 0.21083 0.0
C754 C 0.17983 0.30553 0.21631 0.0
C755 C 0.21635 0.28747 0.21565 0.0
C756 C 0.23264 0.25931 0.24254 0.0
H757 H 0.32408 0.18645 0.23972 0.0
H758 H 0.29838 0.21381 0.23127 0.0
H759 H 0.25068 0.2433 0.2561 0.0
H760 H 0.15989 0.29768 0.23132 0.0
H761 H 0.18758 0.27238 0.2397 0.0
H762 H 0.23538 0.24446 0.21435 0.0
C763 C 0.29351 0.20532 0.23909 0.0
C764 C 0.24737 0.24332 0.24698 0.0
C765 C 0.30823 0.18971 0.24393 0.0
C766 C 0.17566 0.29516 0.2269 0.0
C767 C 0.19155 0.28074 0.23172 0.0
C768 C 0.2388 0.24455 0.22346 0.0
C769 C 0.27309 0.21044 0.24451 0.0
C770 C 0.25786 0.22769 0.23972 0.0
C771 C 0.21191 0.27648 0.22604 0.0
C772 C 0.22812 0.26003 0.23074 0.0
H773 H 0.27731 0.17552 0.26744 0.0
H774 H 0.25159 0.2025 0.25892 0.0
H775 H 0.26119 0.21657 0.22212 0.0
H776 H 0.20423 0.30973 0.20269 0.0
H777 H 0.23204 0.28483 0.21118 0.0
C778 C 0.19913 0.79724 0.76146 0.0
C779 C 0.17858 0.80183 0.75606 0.0
C780 C 0.21402 0.78171 0.75675 0.0
C781 C 0.21556 0.7329 0.73758 0.0
H782 H 0.27961 0.744 0.73722 0.0
C783 C 0.27781 0.67902 0.71187 0.0
C784 C 0.29885 0.67442 0.71675 0.0
C785 C 0.26282 0.69345 0.71732 0.0
C786 C 0.26179 0.74052 0.73742 0.0
H787 H 0.15776 0.79429 0.74133 0.0
H788 H 0.18394 0.76728 0.73302 0.0
H789 H 0.25433 0.77241 0.74493 0.0
H790 H 0.32038 0.68063 0.73138 0.0
H791 H 0.29403 0.70584 0.74097 0.0
H792 H 0.22301 0.70106 0.72999 0.0
C793 C 0.18835 0.77545 0.741 0.0
C794 C 0.24732 0.75681 0.7418 0.0
C795 C 0.17344 0.79103 0.7457 0.0
C796 C 0.30431 0.68394 0.72739 0.0
C797 C 0.28931 0.69847 0.73284 0.0
C798 C 0.23003 0.71661 0.7332 0.0
C799 C 0.20867 0.77046 0.74655 0.0
C800 C 0.22405 0.75322 0.74187 0.0
C801 C 0.26855 0.70361 0.72776 0.0
C802 C 0.25328 0.7203 0.73302 0.0
H803 H 0.20356 0.80529 0.76946 0.0
H804 H 0.22945 0.77808 0.76128 0.0
H805 H 0.19773 0.72947 0.73772 0.0
H806 H 0.27311 0.6719 0.70368 0.0
H807 H 0.24706 0.69725 0.71314 0.0
C808 C 0.54473 0.94961 0.50983 0.0
C809 C 0.54937 0.92879 0.5047 0.0
C810 C 0.5295 0.96441 0.50483 0.0
C811 C 0.50096 0.97796 0.47774 0.0
H812 H 0.45797 0.00734 0.49768 0.0
C813 C 0.42696 0.0289 0.45988 0.0
C814 C 0.42282 0.04981 0.46503 0.0
C815 C 0.44175 0.01367 0.46491 0.0
C816 C 0.46999 -0.00058 0.49202 0.0
H817 H 0.54215 0.90737 0.49014 0.0
H818 H 0.51535 0.93324 0.48142 0.0
H819 H 0.48578 0.98192 0.50584 0.0
H820 H 0.43035 0.07093 0.47965 0.0
H821 H 0.45634 0.04433 0.48844 0.0
H822 H 0.48519 -0.00451 0.46392 0.0
C823 C 0.52363 0.93815 0.48928 0.0
C824 C 0.48593 0.9849 0.49669 0.0
C825 C 0.53891 0.92331 0.49429 0.0
C826 C 0.43321 0.05493 0.47549 0.0
C827 C 0.44803 0.03967 0.48054 0.0
C828 C 0.48501 -0.00751 0.47307 0.0
C829 C 0.51856 0.95873 0.49458 0.0
C830 C 0.50161 0.97406 0.48959 0.0
C831 C 0.45269 0.01903 0.4752 0.0
C832 C 0.46938 0.00338 0.48017 0.0
H833 H 0.55264 0.95438 0.51782 0.0
H834 H 0.52624 0.98032 0.50901 0.0
H835 H 0.51301 0.97008 0.47208 0.0
H836 H 0.41909 0.02441 0.45184 0.0
H837 H 0.4447 -0.00227 0.46071 0.0
C838 C 0.04408 0.94492 0.96066 0.0
C839 C 0.04951 0.92433 0.96584 0.0
C840 C 0.0284 0.95921 0.96566 0.0
C841 C 0.00067 0.97283 -0.00719 0.0
H842 H 0.95656 0.00103 0.97304 0.0
C843 C 0.92911 0.02681 0.01096 0.0
C844 C 0.92498 0.04728 0.00536 0.0
C845 C 0.94301 0.0107 0.00599 0.0
C846 C 0.96888 -0.00658 0.97865 0.0
H847 H 0.04318 0.90277 0.98046 0.0
H848 H 0.01563 0.92788 -0.01077 0.0
H849 H 0.9839 0.97509 0.9649 0.0
H850 H 0.93157 0.06669 -0.00999 0.0
H851 H 0.95611 0.03861 0.98136 0.0
H852 H 0.98584 -0.00864 0.00655 0.0
C853 C 0.02362 0.93292 0.98131 0.0
C854 C 0.98452 0.97858 0.974 0.0
C855 C 0.03933 0.91854 0.97628 0.0
C856 C 0.93446 0.05106 -0.00548 0.0
C857 C 0.94842 0.03494 -0.01045 0.0
C858 C 0.98504 0.9877 -0.00253 0.0
C859 C 0.01782 0.95327 0.97596 0.0
C860 C 0.00069 0.96829 0.98102 0.0
C861 C 0.9531 0.01473 -0.00468 0.0
C862 C 0.96908 -0.00173 -0.00958 0.0
H863 H 0.05174 0.94991 0.95265 0.0
H864 H 0.02458 0.97498 0.96146 0.0
H865 H 0.01309 0.96534 -0.0016 0.0
H866 H 0.92189 0.02334 0.01929 0.0
H867 H 0.94598 -0.00486 0.01054 0.0
C868 C 0.55254 0.0283 0.96095 0.0
C869 C 0.55739 0.04895 0.9662 0.0
C870 C 0.53795 0.01313 0.96614 0.0
C871 C 0.49097 0.01168 -0.01373 0.0
H872 H 0.50096 0.94734 -0.01422 0.0
C873 C 0.43497 0.94948 0.01073 0.0
C874 C 0.42961 0.92908 0.00536 0.0
C875 C 0.45037 0.96414 0.00579 0.0
C876 C 0.49783 0.96525 -0.01416 0.0
H877 H 0.55154 0.06954 0.98123 0.0
H878 H 0.52609 0.04287 -0.00964 0.0
H879 H 0.52954 0.97249 0.97811 0.0
H880 H 0.43571 0.90828 -0.00956 0.0
H881 H 0.46259 0.9341 0.98171 0.0
H882 H 0.45925 0.00447 -0.00604 0.0
C883 C 0.53336 0.03861 0.98214 0.0
C884 C 0.51421 0.97964 0.9815 0.0
C885 C 0.54802 0.05379 0.97696 0.0
C886 C 0.43957 0.92386 -0.00521 0.0
C887 C 0.45505 0.93855 -0.01016 0.0
C888 C 0.4746 -0.0027 -0.0094 0.0
C889 C 0.52788 0.0183 0.97669 0.0
C890 C 0.51094 0.003 0.98167 0.0
C891 C 0.46075 0.95874 -0.00464 0.0
C892 C 0.47786 0.97394 -0.00956 0.0
H893 H 0.55954 0.02407 0.95267 0.0
H894 H 0.53392 -0.0023 0.96168 0.0
H895 H 0.48779 0.02958 -0.01368 0.0
H896 H 0.42758 0.95397 0.01889 0.0
H897 H 0.45459 0.97944 0.01031 0.0
C898 C 0.04702 0.02999 0.51052 0.0
C899 C 0.05232 0.05023 0.50497 0.0
C900 C 0.03169 0.01511 0.50568 0.0
C901 C 0.98436 0.01358 0.48561 0.0
H902 H -0.00605 0.94919 0.48651 0.0
C903 C 0.92997 0.9509 0.46046 0.0
C904 C 0.92449 0.93046 0.46577 0.0
C905 C 0.94473 0.96583 0.46571 0.0
C906 C -0.0091 0.96712 0.48634 0.0
H907 H 0.0463 0.07045 0.48982 0.0
H908 H 0.01964 0.04425 0.48128 0.0
H909 H 0.02245 0.9743 0.49425 0.0
H910 H 0.92954 0.90992 0.48089 0.0
H911 H 0.9553 0.93617 0.49012 0.0
H912 H 0.95286 0.0064 0.47766 0.0
C913 C 0.0271 0.0401 0.48948 0.0
C914 C 0.00724 0.98149 0.49074 0.0
C915 C 0.04247 0.05501 0.49432 0.0
C916 C 0.93352 0.92552 0.47659 0.0
C917 C 0.94837 0.94046 0.48183 0.0
C918 C 0.96803 -0.00079 0.48121 0.0
C919 C 0.02135 0.02014 0.49518 0.0
C920 C 0.00417 0.00487 0.49038 0.0
C921 C 0.95433 0.96063 0.47637 0.0
C922 C 0.97117 0.97584 0.4815 0.0
H923 H 0.05433 0.02585 0.51875 0.0
H924 H 0.02745 -4e-05 0.51034 0.0
H925 H 0.98134 0.03151 0.48542 0.0
H926 H 0.92326 0.95518 0.45212 0.0
H927 H 0.94917 0.98112 0.46124 0.0
C928 C 0.96863 0.15735 0.02757 0.0
C929 C 0.94514 0.15594 0.02711 0.0
C930 C 0.9793 0.1782 0.02744 0.0
C931 C 0.97011 0.23832 0.02047 0.0
H932 H 0.02237 0.24672 0.03976 0.0
C933 C 0.01029 0.32515 0.02903 0.0
C934 C 0.03379 0.32619 0.02822 0.0
C935 C -0.00075 0.30447 0.02873 0.0
C936 C 0.0079 0.24456 0.03426 0.0
H937 H 0.91441 0.17537 0.02612 0.0
H938 H 0.93299 0.21175 0.02617 0.0
H939 H 0.00344 0.21051 0.03954 0.0
H940 H 0.06411 0.30628 0.02649 0.0
H941 H 0.04481 0.27024 0.02605 0.0
H942 H 0.97446 0.2726 0.01537 0.0
C943 C 0.94322 0.19673 0.0264 0.0
C944 C -0.00292 0.22379 0.0341 0.0
C945 C 0.93255 0.17585 0.02643 0.0
C946 C 0.04599 0.3061 0.02713 0.0
C947 C 0.03497 0.28544 0.02694 0.0
C948 C 0.98084 0.25916 0.02071 0.0
C949 C 0.96673 0.19817 0.02695 0.0
C950 C 0.97811 0.22036 0.02716 0.0
C951 C 0.0115 0.28442 0.02773 0.0
C952 C -0.00011 0.26244 0.02757 0.0
H953 H 0.97885 0.14233 0.028 0.0
H954 H -0.00256 0.17864 0.02765 0.0
H955 H 0.95576 0.23619 0.0149 0.0
H956 H 0.00039 0.34031 0.02986 0.0
H957 H 0.98115 0.30415 0.02944 0.0
C958 C 0.05516 0.68631 0.27461 0.0
C959 C 0.07536 0.69828 0.27554 0.0
C960 C 0.03468 0.69764 0.27409 0.0
C961 C 0.00856 0.75227 0.2811 0.0
H962 H 0.96029 0.7299 0.26202 0.0
C963 C 0.92457 0.79958 0.27534 0.0
C964 C 0.90513 0.78643 0.27646 0.0
C965 C 0.94567 0.78943 0.27465 0.0
C966 C 0.9736 0.73626 0.26743 0.0
H967 H 0.0899 0.73162 0.2764 0.0
H968 H 0.05424 0.75139 0.27526 0.0
H969 H -0.00335 0.71116 0.2617 0.0
H970 H 0.89261 0.75229 0.27759 0.0
H971 H 0.92939 0.73466 0.27635 0.0
H972 H 0.98545 0.77744 0.28678 0.0
C973 C 0.05417 0.73321 0.27518 0.0
C974 C -0.00559 0.7255 0.26728 0.0
C975 C 0.07464 0.72187 0.27577 0.0
C976 C 0.90724 0.76293 0.27675 0.0
C977 C 0.92829 0.7528 0.27596 0.0
C978 C 0.9878 0.76313 0.28119 0.0
C979 C 0.03393 0.72123 0.27441 0.0
C980 C 0.01208 0.73325 0.2742 0.0
C981 C 0.94772 0.76594 0.27496 0.0
C982 C 0.97005 0.75509 0.27444 0.0
H983 H 0.0551 0.66812 0.27447 0.0
H984 H 0.01941 0.68787 0.27369 0.0
H985 H 0.02168 0.75848 0.28668 0.0
H986 H 0.92354 0.81773 0.27508 0.0
H987 H 0.96037 0.79995 0.2738 0.0
C988 C 0.46698 0.65623 0.53007 0.0
C989 C 0.44352 0.6552 0.52909 0.0
C990 C 0.47805 0.67687 0.52979 0.0
C991 C 0.47031 0.7365 0.52133 0.0
H992 H 0.52182 0.74577 0.54104 0.0
C993 C 0.51027 0.82352 0.52915 0.0
C994 C 0.53378 0.82462 0.52848 0.0
C995 C 0.49933 0.8028 0.529 0.0
C996 C 0.50757 0.74334 0.53543 0.0
H997 H 0.41327 0.67507 0.52711 0.0
H998 H 0.4325 0.7111 0.52694 0.0
H999 H 0.50239 0.7098 0.54135 0.0
H1000 H 0.56423 0.8048 0.52715 0.0
H1001 H 0.54504 0.76861 0.52701 0.0
H1002 H 0.47531 0.77032 0.51562 0.0
C1003 C 0.44244 0.69594 0.52766 0.0
C1004 C 0.49646 0.72271 0.53556 0.0
C1005 C 0.43138 0.67527 0.52782 0.0
C1006 C 0.5461 0.80454 0.52767 0.0
C1007 C 0.53515 0.78382 0.52765 0.0
C1008 C 0.48129 0.7572 0.52129 0.0
C1009 C 0.46592 0.697 0.52863 0.0
C1010 C 0.47771 0.719 0.5285 0.0
C1011 C 0.51166 0.78276 0.5283 0.0
C1012 C 0.50005 0.7608 0.52832 0.0
H1013 H 0.47686 0.64106 0.53096 0.0
H1014 H 0.49617 0.67698 0.53035 0.0
H1015 H 0.4562 0.73414 0.51562 0.0
H1016 H 0.50029 0.83866 0.52976 0.0
H1017 H 0.48121 0.80245 0.5296 0.0
C1018 C 0.55361 0.1831 0.77612 0.0
C1019 C 0.57358 0.19539 0.7773 0.0
C1020 C 0.53289 0.19404 0.77601 0.0
C1021 C 0.50577 0.24769 0.78423 0.0
H1022 H 0.45817 0.22662 0.76433 0.0
C1023 C 0.42346 0.2969 0.7772 0.0
C1024 C 0.4035 0.28441 0.77777 0.0
C1025 C 0.44424 0.28608 0.77704 0.0
C1026 C 0.47127 0.23257 0.76999 0.0
H1027 H 0.58744 0.22886 0.7791 0.0
H1028 H 0.55138 0.24797 0.77862 0.0
H1029 H 0.49451 0.20783 0.76405 0.0
H1030 H 0.38975 0.25072 0.77852 0.0
H1031 H 0.42608 0.23186 0.77815 0.0
H1032 H 0.48253 0.27264 0.79003 0.0
C1033 C 0.55166 0.22983 0.77805 0.0
C1034 C 0.49207 0.22178 0.76987 0.0
C1035 C 0.57237 0.21888 0.77825 0.0
C1036 C 0.4048 0.26085 0.77809 0.0
C1037 C 0.42558 0.25003 0.77782 0.0
C1038 C 0.48503 0.25858 0.78428 0.0
C1039 C 0.53165 0.21754 0.77699 0.0
C1040 C 0.50957 0.22917 0.77701 0.0
C1041 C 0.4455 0.26254 0.77733 0.0
C1042 C 0.46756 0.25109 0.77719 0.0
H1043 H 0.55393 0.16497 0.77543 0.0
H1044 H 0.51782 0.18401 0.77536 0.0
H1045 H 0.5187 0.25358 0.79 0.0
H1046 H 0.42307 0.31508 0.77695 0.0
H1047 H 0.45934 0.29613 0.77656 0.0
C1048 C 0.93248 0.80501 0.44504 0.0
C1049 C 0.94472 0.82507 0.44409 0.0
C1050 C 0.94354 0.78434 0.44561 0.0
C1051 C -0.00197 0.75755 0.4389 0.0
H1052 H 0.97551 0.70987 0.45836 0.0
C1053 C 0.04635 0.67469 0.44596 0.0
C1054 C 0.03368 0.65489 0.44499 0.0
C1055 C 0.03573 0.6956 0.44639 0.0
C1056 C 0.9819 0.723 0.45284 0.0
H1057 H 0.97823 0.83916 0.44324 0.0
H1058 H -0.00254 0.80323 0.44448 0.0
H1059 H 0.95655 0.74619 0.45816 0.0
H1060 H -0.0001 0.64153 0.44393 0.0
H1061 H 0.98144 0.67802 0.44472 0.0
H1062 H 0.02346 0.73436 0.43365 0.0
C1063 C 0.97931 0.80339 0.44453 0.0
C1064 C 0.97101 0.74378 0.45269 0.0
C1065 C 0.96826 0.82402 0.44388 0.0
C1066 C 0.01016 0.65644 0.44466 0.0
C1067 C -0.00044 0.67733 0.44518 0.0
C1068 C 0.00899 0.73684 0.43911 0.0
C1069 C 0.96709 0.78328 0.44532 0.0
C1070 C 0.97888 0.76128 0.44567 0.0
C1071 C 0.01224 0.69713 0.44596 0.0
C1072 C 0.00098 0.71932 0.44604 0.0
H1073 H 0.91432 0.80522 0.44519 0.0
H1074 H 0.93359 0.76918 0.44606 0.0
H1075 H 0.00432 0.7705 0.43324 0.0
H1076 H 0.06449 0.6741 0.44625 0.0
H1077 H 0.04591 0.71058 0.4471 0.0
C1078 C 0.57289 0.75996 0.69184 0.0
C1079 C 0.57412 0.78348 0.69252 0.0
C1080 C 0.55216 0.74908 0.69211 0.0
C1081 C 0.49258 0.75759 0.70014 0.0
H1082 H 0.48293 0.70624 0.68034 0.0
C1083 C 0.40516 0.71881 0.69222 0.0
C1084 C 0.40378 0.69525 0.69255 0.0
C1085 C 0.42599 0.7295 0.69245 0.0
C1086 C 0.48546 0.72043 0.68599 0.0
H1087 H 0.55447 0.81403 0.694 0.0
H1088 H 0.51834 0.7951 0.69422 0.0
H1089 H 0.51918 0.72509 0.68028 0.0
H1090 H 0.42324 0.66447 0.69338 0.0
H1091 H 0.45957 0.6832 0.69372 0.0
H1092 H 0.45865 0.75307 0.7057 0.0
C1093 C 0.53341 0.785 0.69371 0.0
C1094 C 0.50624 0.73121 0.68599 0.0
C1095 C 0.55414 0.79587 0.69351 0.0
C1096 C 0.42369 0.68265 0.69311 0.0
C1097 C 0.44452 0.69335 0.69325 0.0
C1098 C 0.47174 0.7469 0.70009 0.0
C1099 C 0.53215 0.76147 0.693 0.0
C1100 C 0.51007 0.74992 0.69307 0.0
C1101 C 0.44587 0.71688 0.69293 0.0
C1102 C 0.46798 0.72821 0.69302 0.0
H1103 H 0.58796 0.74989 0.69114 0.0
H1104 H 0.55185 0.73092 0.69174 0.0
H1105 H 0.49505 0.77171 0.70585 0.0
H1106 H 0.39016 0.72902 0.6918 0.0
H1107 H 0.42655 0.74766 0.69209 0.0
C1108 C 0.54535 0.17407 0.9435 0.0
C1109 C 0.53345 0.15374 0.94313 0.0
C1110 C 0.53398 0.19457 0.94358 0.0
C1111 C 0.47892 0.22 0.93663 0.0
H1112 H 0.50181 0.26976 0.95456 0.0
C1113 C 0.43039 0.30325 0.94281 0.0
C1114 C 0.44285 0.32306 0.94128 0.0
C1115 C 0.44113 0.28241 0.94323 0.0
C1116 C 0.49532 0.25604 0.94945 0.0
H1117 H 0.5002 0.13901 0.94277 0.0
H1118 H 0.48036 0.17474 0.94319 0.0
H1119 H 0.52097 0.2336 0.95518 0.0
H1120 H 0.47639 0.33648 0.93907 0.0
H1121 H 0.4951 0.3001 0.93989 0.0
H1122 H 0.4531 0.24249 0.93103 0.0
C1123 C 0.49851 0.17488 0.94315 0.0
C1124 C 0.50631 0.23534 0.94978 0.0
C1125 C 0.50989 0.15437 0.94298 0.0
C1126 C 0.46628 0.32156 0.94024 0.0
C1127 C 0.47703 0.30075 0.94078 0.0
C1128 C 0.46781 0.24066 0.93639 0.0
C1129 C 0.51041 0.19524 0.94339 0.0
C1130 C 0.49834 0.2171 0.94331 0.0
C1131 C 0.46456 0.28098 0.94226 0.0
C1132 C 0.476 0.25891 0.94274 0.0
H1133 H 0.56352 0.1742 0.94356 0.0
H1134 H 0.54371 0.20991 0.94358 0.0
H1135 H 0.47251 0.20646 0.93139 0.0
H1136 H 0.41231 0.30381 0.94363 0.0
H1137 H 0.43113 0.26744 0.94447 0.0
C1138 C 0.0749 0.25848 0.1922 0.0
C1139 C 0.07504 0.28194 0.1935 0.0
C1140 C 0.05473 0.24656 0.19256 0.0
C1141 C -0.00455 0.25186 0.20191 0.0
H1142 H 0.98562 0.20263 0.18077 0.0
C1143 C 0.90796 0.21586 0.19247 0.0
C1144 C 0.90575 0.19237 0.19226 0.0
C1145 C 0.9291 0.22578 0.19315 0.0
C1146 C 0.98825 0.21618 0.1868 0.0
H1147 H 0.05405 0.31129 0.19606 0.0
H1148 H 0.01897 0.29064 0.1964 0.0
H1149 H 0.02171 0.22193 0.1809 0.0
H1150 H 0.92406 0.16087 0.19254 0.0
H1151 H 0.9611 0.17832 0.1936 0.0
H1152 H 0.96176 0.24645 0.20758 0.0
C1153 C 0.03444 0.28133 0.19539 0.0
C1154 C 0.00892 0.22722 0.18691 0.0
C1155 C 0.05458 0.29321 0.19511 0.0
C1156 C 0.92519 0.17902 0.1927 0.0
C1157 C 0.94638 0.18897 0.19326 0.0
C1158 C 0.97476 0.24096 0.20173 0.0
C1159 C 0.03425 0.25785 0.19414 0.0
C1160 C 0.01269 0.24535 0.19439 0.0
C1161 C 0.94851 0.21245 0.19353 0.0
C1162 C 0.97088 0.22317 0.1941 0.0
H1163 H 0.09038 0.24927 0.19099 0.0
H1164 H 0.05523 0.22846 0.19171 0.0
H1165 H -0.00207 0.26541 0.20796 0.0
H1166 H 0.89334 0.22664 0.19216 0.0
H1167 H 0.93027 0.24392 0.19322 0.0
C1168 C 0.96771 0.6538 0.93704 0.0
C1169 C 0.94426 0.65347 0.93826 0.0
C1170 C 0.97929 0.67418 0.93682 0.0
C1171 C 0.97237 0.73411 0.93075 0.0
H1172 H 0.0241 0.74185 0.95047 0.0
C1173 C 0.01239 0.82087 0.93821 0.0
C1174 C 0.03581 0.82206 0.93937 0.0
C1175 C 0.00159 0.8001 0.93777 0.0
C1176 C 0.00992 0.73989 0.94477 0.0
H1177 H 0.91457 0.67428 0.94002 0.0
H1178 H 0.93482 0.70981 0.93951 0.0
H1179 H 0.00479 0.7058 0.95 0.0
H1180 H 0.06628 0.80235 0.9408 0.0
H1181 H 0.04752 0.76614 0.93972 0.0
H1182 H 0.97758 0.768 0.92537 0.0
C1183 C 0.94419 0.6943 0.93874 0.0
C1184 C -0.00116 0.71925 0.94453 0.0
C1185 C 0.93263 0.67395 0.9391 0.0
C1186 C 0.04819 0.80202 0.93999 0.0
C1187 C 0.03741 0.78124 0.93943 0.0
C1188 C 0.98359 0.75468 0.93089 0.0
C1189 C 0.96763 0.69461 0.93766 0.0
C1190 C 0.97986 0.71623 0.93759 0.0
C1191 C 0.01396 0.78001 0.93836 0.0
C1192 C 0.0024 0.7579 0.93797 0.0
H1193 H 0.97716 0.63832 0.93639 0.0
H1194 H -0.00264 0.67398 0.93591 0.0
H1195 H 0.95794 0.73213 0.92521 0.0
H1196 H 0.00234 0.83599 0.93778 0.0
H1197 H 0.98348 0.79983 0.93715 0.0
C1198 C 0.92506 0.29624 0.69152 0.0
C1199 C 0.90483 0.28425 0.69072 0.0
C1200 C 0.9456 0.28501 0.69123 0.0
C1201 C 0.97161 0.23049 0.69686 0.0
H1202 H 0.01972 0.25308 0.67773 0.0
C1203 C 0.05457 0.18197 0.69096 0.0
C1204 C 0.07448 0.19452 0.69043 0.0
C1205 C 0.03373 0.19268 0.69082 0.0
C1206 C 0.00658 0.24671 0.68324 0.0
H1207 H 0.89033 0.25102 0.68904 0.0
H1208 H 0.92629 0.23139 0.68862 0.0
H1209 H 0.98359 0.27223 0.67783 0.0
H1210 H 0.08811 0.22822 0.68945 0.0
H1211 H 0.05182 0.24693 0.68949 0.0
H1212 H -0.00537 0.20524 0.70245 0.0
C1213 C 0.92617 0.2495 0.68948 0.0
C1214 C 0.98586 0.25765 0.68326 0.0
C1215 C 0.9056 0.26075 0.68966 0.0
C1216 C 0.07309 0.21804 0.6898 0.0
C1217 C 0.05226 0.22876 0.68975 0.0
C1218 C -0.00762 0.21965 0.69691 0.0
C1219 C 0.94636 0.26153 0.69024 0.0
C1220 C 0.96819 0.24967 0.69008 0.0
C1221 C 0.03232 0.21622 0.69023 0.0
C1222 C 0.01014 0.22764 0.69011 0.0
H1223 H 0.92507 0.31436 0.69234 0.0
H1224 H 0.9609 0.29468 0.69194 0.0
H1225 H 0.95835 0.22415 0.7023 0.0
H1226 H 0.05503 0.1638 0.69138 0.0
H1227 H 0.01873 0.18247 0.69102 0.0
C1228 C 0.51073 0.32128 0.43959 0.0
C1229 C 0.53418 0.32229 0.44069 0.0
C1230 C 0.49975 0.30058 0.43935 0.0
C1231 C 0.50818 0.24096 0.43297 0.0
H1232 H 0.4559 0.23215 0.45217 0.0
C1233 C 0.46658 0.15402 0.4386 0.0
C1234 C 0.44309 0.15336 0.43945 0.0
C1235 C 0.47791 0.17456 0.43863 0.0
C1236 C 0.47027 0.2344 0.44662 0.0
H1237 H 0.5645 0.30233 0.44225 0.0
H1238 H 0.54527 0.26621 0.44172 0.0
H1239 H 0.47506 0.26824 0.45228 0.0
H1240 H 0.41304 0.17378 0.44072 0.0
H1241 H 0.43268 0.20948 0.44045 0.0
H1242 H 0.50323 0.20728 0.42714 0.0
C1243 C 0.53544 0.28145 0.44105 0.0
C1244 C 0.48127 0.25507 0.44672 0.0
C1245 C 0.54641 0.30215 0.44142 0.0
C1246 C 0.43117 0.17367 0.44016 0.0
C1247 C 0.44246 0.19417 0.44008 0.0
C1248 C 0.49705 0.22033 0.43278 0.0
C1249 C 0.512 0.28048 0.44007 0.0
C1250 C 0.50033 0.25855 0.4399 0.0
C1251 C 0.46598 0.1949 0.43941 0.0
C1252 C 0.47794 0.21679 0.43961 0.0
H1253 H 0.50081 0.33647 0.43901 0.0
H1254 H 0.48167 0.30029 0.43848 0.0
H1255 H 0.52272 0.24328 0.42753 0.0
H1256 H 0.47627 0.13867 0.43809 0.0
H1257 H 0.49605 0.17446 0.43826 0.0
C1258 C 0.42686 0.79958 0.19299 0.0
C1259 C 0.40745 0.78624 0.19244 0.0
C1260 C 0.44806 0.78963 0.19353 0.0
C1261 C 0.47664 0.73743 0.20162 0.0
H1262 H 0.52354 0.75752 0.18104 0.0
C1263 C 0.55679 0.68588 0.1944 0.0
C1264 C 0.57718 0.6973 0.19289 0.0
C1265 C 0.5366 0.69766 0.19487 0.0
C1266 C 0.51077 0.75194 0.18698 0.0
H1267 H 0.3951 0.75198 0.19214 0.0
H1268 H 0.43208 0.73467 0.19317 0.0
H1269 H 0.48731 0.77658 0.18103 0.0
H1270 H 0.59235 0.73014 0.19083 0.0
H1271 H 0.55708 0.75078 0.19188 0.0
H1272 H 0.49998 0.7129 0.20765 0.0
C1273 C 0.43086 0.75282 0.1932 0.0
C1274 C 0.49001 0.76283 0.18695 0.0
C1275 C 0.4097 0.76275 0.19254 0.0
C1276 C 0.57693 0.72082 0.19194 0.0
C1277 C 0.55669 0.73265 0.19249 0.0
C1278 C 0.49742 0.72666 0.20173 0.0
C1279 C 0.45025 0.76615 0.19367 0.0
C1280 C 0.47266 0.75548 0.19416 0.0
C1281 C 0.53628 0.72119 0.19394 0.0
C1282 C 0.51464 0.73357 0.1943 0.0
H1283 H 0.42572 0.81773 0.19291 0.0
H1284 H 0.46274 0.80028 0.19396 0.0
H1285 H 0.46365 0.73165 0.2074 0.0
H1286 H 0.55635 0.66775 0.19509 0.0
H1287 H 0.52118 0.68825 0.19577 0.0
C1288 C 0.96667 0.32298 0.53274 0.0
C1289 C 0.94323 0.32388 0.53155 0.0
C1290 C 0.97786 0.30236 0.53269 0.0
C1291 C 0.9699 0.24234 0.53806 0.0
H1292 H 0.0219 0.23475 0.5185 0.0
C1293 C 0.01047 0.15562 0.53069 0.0
C1294 C 0.03394 0.15461 0.52982 0.0
C1295 C -0.00056 0.17631 0.53096 0.0
C1296 C 0.00761 0.23665 0.52414 0.0
H1297 H 0.91313 0.3038 0.52956 0.0
H1298 H 0.9327 0.26781 0.52962 0.0
H1299 H 0.00281 0.27093 0.51917 0.0
H1300 H 0.06427 0.17456 0.52868 0.0
H1301 H 0.04513 0.2106 0.52946 0.0
H1302 H 0.97483 0.20826 0.54322 0.0
C1303 C 0.94237 0.28309 0.53056 0.0
C1304 C -0.00334 0.25737 0.52449 0.0
C1305 C 0.93121 0.3037 0.53047 0.0
C1306 C 0.04615 0.17474 0.52927 0.0
C1307 C 0.03515 0.19543 0.52965 0.0
C1308 C 0.98098 0.22168 0.53781 0.0
C1309 C 0.96581 0.28223 0.5316 0.0
C1310 C 0.97765 0.26038 0.53141 0.0
C1311 C 0.01164 0.19649 0.53047 0.0
C1312 C -7e-05 0.21854 0.53081 0.0
H1313 H 0.97643 0.33822 0.53357 0.0
H1314 H -0.00407 0.30215 0.5336 0.0
H1315 H 0.95542 0.2443 0.54357 0.0
H1316 H 0.00055 0.14041 0.53106 0.0
H1317 H 0.98131 0.17646 0.5314 0.0
C1318 C 0.40752 0.21768 0.28086 0.0
C1319 C 0.40646 0.1942 0.2798 0.0
C1320 C 0.42821 0.22864 0.28102 0.0
C1321 C 0.48775 0.2202 0.28728 0.0
H1322 H 0.49657 0.27214 0.26778 0.0
C1323 C 0.57461 0.26151 0.28152 0.0
C1324 C 0.57535 0.28502 0.28058 0.0
C1325 C 0.55408 0.25023 0.28146 0.0
C1326 C 0.49432 0.25787 0.27341 0.0
H1327 H 0.42631 0.16379 0.27823 0.0
H1328 H 0.46243 0.18298 0.27863 0.0
H1329 H 0.46047 0.25305 0.26783 0.0
H1330 H 0.55507 0.31514 0.27907 0.0
H1331 H 0.51935 0.29558 0.2793 0.0
H1332 H 0.5214 0.22519 0.29305 0.0
C1333 C 0.44723 0.19285 0.27932 0.0
C1334 C 0.47365 0.24691 0.2734 0.0
C1335 C 0.42654 0.1819 0.27903 0.0
C1336 C 0.55511 0.297 0.27971 0.0
C1337 C 0.5346 0.28575 0.27976 0.0
C1338 C 0.50837 0.2313 0.28739 0.0
C1339 C 0.44825 0.21633 0.28025 0.0
C1340 C 0.47017 0.22797 0.28032 0.0
C1341 C 0.53381 0.26221 0.28057 0.0
C1342 C 0.51192 0.25028 0.28045 0.0
H1343 H 0.39237 0.22764 0.28146 0.0
H1344 H 0.42855 0.24675 0.28184 0.0
H1345 H 0.48542 0.20576 0.29279 0.0
H1346 H 0.58991 0.25179 0.28214 0.0
H1347 H 0.55413 0.23207 0.28193 0.0
C1348 C 0.43021 0.80348 0.02698 0.0
C1349 C 0.44336 0.823 0.02776 0.0
C1350 C 0.44033 0.78232 0.02652 0.0
C1351 C 0.49292 0.75425 0.01888 0.0
H1352 H 0.47221 0.70656 0.03886 0.0
C1353 C 0.54383 0.67333 0.02536 0.0
C1354 C 0.53223 0.65294 0.02652 0.0
C1355 C 0.53225 0.69368 0.02518 0.0
C1356 C 0.47799 0.71957 0.03309 0.0
H1357 H 0.47745 0.8356 0.02858 0.0
H1358 H 0.49505 0.7987 0.02769 0.0
H1359 H 0.45314 0.74283 0.03902 0.0
H1360 H 0.49928 0.63793 0.02829 0.0
H1361 H 0.47899 0.67347 0.02771 0.0
H1362 H 0.51761 0.73109 0.01284 0.0
C1363 C 0.47693 0.7998 0.02742 0.0
C1364 C 0.46708 0.74034 0.03321 0.0
C1365 C 0.46683 0.82091 0.028 0.0
C1366 C 0.50874 0.65336 0.02744 0.0
C1367 C 0.49711 0.67375 0.02717 0.0
C1368 C 0.50369 0.73345 0.01868 0.0
C1369 C 0.46378 0.7803 0.0267 0.0
C1370 C 0.47462 0.75795 0.0262 0.0
C1371 C 0.50874 0.69416 0.02605 0.0
C1372 C 0.49654 0.71593 0.02588 0.0
H1373 H 0.41208 0.80451 0.02679 0.0
H1374 H 0.42982 0.76756 0.0259 0.0
H1375 H 0.49885 0.76744 0.01326 0.0
H1376 H 0.56195 0.67364 0.02472 0.0
H1377 H 0.54179 0.70908 0.02453 0.0
C1378 C 0.92524 0.6839 0.77992 0.0
C1379 C 0.90503 0.69603 0.78046 0.0
C1380 C 0.94581 0.69504 0.78026 0.0
C1381 C 0.97208 0.74908 0.77415 0.0
H1382 H 0.01948 0.7278 0.79415 0.0
C1383 C 0.05423 0.79851 0.78002 0.0
C1384 C 0.07427 0.78623 0.78101 0.0
C1385 C 0.03353 0.7876 0.78021 0.0
C1386 C 0.00655 0.73379 0.78839 0.0
H1387 H 0.8906 0.7294 0.78175 0.0
H1388 H 0.92662 0.74884 0.78222 0.0
H1389 H 0.98344 0.7085 0.79392 0.0
H1390 H 0.08828 0.75283 0.78292 0.0
H1391 H 0.05221 0.73371 0.78294 0.0
H1392 H -0.0048 0.77404 0.76841 0.0
C1393 C 0.92646 0.73071 0.78154 0.0
C1394 C 0.98589 0.72277 0.7883 0.0
C1395 C 0.90586 0.71956 0.78133 0.0
C1396 C 0.07314 0.76279 0.7822 0.0
C1397 C 0.05243 0.75184 0.78228 0.0
C1398 C -0.00719 0.75997 0.77415 0.0
C1399 C 0.94662 0.71855 0.78103 0.0
C1400 C 0.96846 0.73033 0.78119 0.0
C1401 C 0.03236 0.76411 0.78128 0.0
C1402 C 0.0103 0.75249 0.78129 0.0
H1403 H 0.9252 0.66576 0.77927 0.0
H1404 H 0.96111 0.68528 0.77976 0.0
H1405 H 0.95902 0.75507 0.76847 0.0
H1406 H 0.05449 0.81662 0.77918 0.0
H1407 H 0.01843 0.79764 0.77964 0.0
C1408 C 0.31629 0.3493 0.96647 0.0
C1409 C 0.32406 0.37066 0.96324 0.0
C1410 C 0.29633 0.34708 0.97266 0.0
C1411 C 0.26118 0.37653 -0.00706 0.0
H1412 H 0.21115 0.3419 0.98127 0.0
C1413 C 0.17228 0.38906 0.01023 0.0
C1414 C 0.15739 0.37085 0.01056 0.0
C1415 C 0.19336 0.38678 0.00521 0.0
C1416 C 0.22507 0.35126 0.9848 0.0
H1417 H 0.31713 0.40639 0.96394 0.0
H1418 H 0.28262 0.40249 0.97499 0.0
H1419 H 0.24686 0.34166 0.971 0.0
H1420 H 0.15307 0.33577 0.00616 0.0
H1421 H 0.19028 0.33152 -0.00231 0.0
H1422 H 0.23984 0.38598 0.0068 0.0
C1423 C 0.29188 0.38752 0.97265 0.0
C1424 C 0.24545 0.35118 0.97887 0.0
C1425 C 0.31153 0.38971 0.96628 0.0
C1426 C 0.16418 0.35014 0.00597 0.0
C1427 C 0.18545 0.34776 0.00106 0.0
C1428 C 0.24099 0.37633 -0.00104 0.0
C1429 C 0.28416 0.36622 0.97592 0.0
C1430 C 0.26345 0.36425 0.98276 0.0
C1431 C 0.20025 0.36612 0.00054 0.0
C1432 C 0.22247 0.36419 -0.00519 0.0
H1433 H 0.32562 0.33433 0.96421 0.0
H1434 H 0.29064 0.3305 0.97511 0.0
H1435 H 0.27499 0.3865 -0.00383 0.0
H1436 H 0.16747 0.40529 0.01362 0.0
H1437 H 0.20402 0.40145 0.00475 0.0
C1438 C 0.87496 0.06508 0.21443 0.0
C1439 C 0.85401 0.07326 0.21081 0.0
C1440 C 0.87645 0.04482 0.22045 0.0
C1441 C 0.84451 0.00944 0.23969 0.0
H1442 H 0.88285 0.96045 0.22994 0.0
C1443 C 0.8349 0.92092 0.25837 0.0
C1444 C 0.85395 0.90728 0.25959 0.0
C1445 C 0.83639 0.94168 0.25289 0.0
C1446 C 0.87237 0.97409 0.23293 0.0
H1447 H 0.81826 0.06658 0.21051 0.0
H1448 H 0.82088 0.03147 0.22121 0.0
H1449 H 0.88305 -0.00423 0.21929 0.0
H1450 H 0.88963 0.90488 0.25629 0.0
H1451 H 0.89244 0.94154 0.24707 0.0
H1452 H 0.83407 0.98825 0.25343 0.0
C1453 C 0.8361 0.04069 0.21935 0.0
C1454 C 0.87243 -0.00576 0.22678 0.0
C1455 C 0.83464 0.06069 0.21318 0.0
C1456 C 0.87464 0.91501 0.25542 0.0
C1457 C 0.8762 0.93595 0.25006 0.0
C1458 C 0.8447 0.98948 0.24594 0.0
C1459 C 0.85697 0.03267 0.22311 0.0
C1460 C 0.85819 0.0119 0.23 0.0
C1461 C 0.85704 0.94948 0.24864 0.0
C1462 C 0.85829 0.97136 0.24252 0.0
H1463 H 0.89016 0.07442 0.2127 0.0
H1464 H 0.89272 0.03894 0.22328 0.0
H1465 H 0.83364 0.02299 0.24243 0.0
H1466 H 0.81868 0.91534 0.26141 0.0
H1467 H 0.82117 0.95134 0.25176 0.0
C1468 C 0.1722 0.58971 0.45977 0.0
C1469 C 0.15745 0.60806 0.45936 0.0
C1470 C 0.19342 0.59195 0.46465 0.0
C1471 C 0.22573 0.62799 0.48459 0.0
H1472 H 0.27518 0.5916 0.47356 0.0
C1473 C 0.31696 0.62979 0.50286 0.0
C1474 C 0.32449 0.60851 0.50638 0.0
C1475 C 0.29707 0.63193 0.49658 0.0
C1476 C 0.2615 0.60189 0.47669 0.0
H1477 H 0.15356 0.64335 0.46344 0.0
H1478 H 0.19097 0.64751 0.47164 0.0
H1479 H 0.23992 0.59199 0.46301 0.0
H1480 H 0.31727 0.57283 0.50607 0.0
H1481 H 0.28291 0.57658 0.49488 0.0
H1482 H 0.24775 0.63803 0.4982 0.0
C1483 C 0.18594 0.6312 0.46846 0.0
C1484 C 0.24125 0.60203 0.47071 0.0
C1485 C 0.16454 0.62887 0.4637 0.0
C1486 C 0.31184 0.58945 0.50351 0.0
C1487 C 0.29228 0.59156 0.49705 0.0
C1488 C 0.24618 0.62813 0.49045 0.0
C1489 C 0.20058 0.61269 0.4691 0.0
C1490 C 0.22288 0.6146 0.47475 0.0
C1491 C 0.28475 0.61278 0.49353 0.0
C1492 C 0.26401 0.61466 0.48669 0.0
H1493 H 0.16716 0.57341 0.45657 0.0
H1494 H 0.20395 0.57718 0.4652 0.0
H1495 H 0.21195 0.63768 0.48804 0.0
H1496 H 0.32638 0.64476 0.50498 0.0
H1497 H 0.29153 0.64847 0.49394 0.0
C1498 C 0.63308 0.05545 0.76105 0.0
C1499 C 0.61886 0.07334 0.7581 0.0
C1500 C 0.63146 0.0349 0.75539 0.0
C1501 C 0.63545 0.00031 0.73666 0.0
H1502 H 0.57881 0.97303 0.72821 0.0
C1503 C 0.63241 0.92457 0.70647 0.0
C1504 C 0.61835 0.90677 0.7097 0.0
C1505 C 0.63082 0.94535 0.71192 0.0
C1506 C 0.59475 0.9804 0.73056 0.0
H1507 H 0.59128 0.08352 0.74715 0.0
H1508 H 0.58863 0.04763 0.73713 0.0
H1509 H 0.579 0.00781 0.73934 0.0
H1510 H 0.59102 0.89701 0.72089 0.0
H1511 H 0.58844 0.93327 0.73054 0.0
H1512 H 0.65125 0.97282 0.72813 0.0
C1513 C 0.6009 0.04945 0.74391 0.0
C1514 C 0.59486 0.0004 0.73684 0.0
C1515 C 0.6025 0.07004 0.74961 0.0
C1516 C 0.60211 0.91041 0.71822 0.0
C1517 C 0.60055 0.93122 0.72371 0.0
C1518 C 0.63534 0.98039 0.73039 0.0
C1519 C 0.61563 0.03179 0.74661 0.0
C1520 C 0.61523 0.01052 0.73999 0.0
C1521 C 0.61519 0.94878 0.72076 0.0
C1522 C 0.61501 0.9702 0.72725 0.0
H1523 H 0.64574 0.05741 0.76763 0.0
H1524 H 0.64276 0.02148 0.75782 0.0
H1525 H 0.65143 0.00782 0.7388 0.0
H1526 H 0.64497 0.92235 0.69986 0.0
H1527 H 0.64204 0.95868 0.7093 0.0
C1528 C 0.67409 0.59646 0.0102 0.0
C1529 C 0.65796 0.6136 0.00974 0.0
C1530 C 0.69535 0.5997 0.00555 0.0
C1531 C 0.72581 0.63457 0.98453 0.0
H1532 H 0.77697 0.60338 -0.00249 0.0
C1533 C 0.81762 0.63516 0.96639 0.0
C1534 C 0.82468 0.61334 0.96354 0.0
C1535 C 0.79786 0.63845 0.97264 0.0
C1536 C 0.76283 0.61231 -0.00614 0.0
H1537 H 0.65163 0.64785 0.00433 0.0
H1538 H 0.68911 0.65377 -0.00356 0.0
H1539 H 0.74157 0.60402 0.00794 0.0
H1540 H 0.81677 0.57791 0.96501 0.0
H1541 H 0.78269 0.5837 0.97618 0.0
H1542 H 0.74746 0.64283 0.97045 0.0
C1543 C 0.68514 0.63762 0.00019 0.0
C1544 C 0.74252 0.61255 -0.00024 0.0
C1545 C 0.6637 0.63428 0.00475 0.0
C1546 C 0.81171 0.59492 0.96704 0.0
C1547 C 0.79231 0.59819 0.97348 0.0
C1548 C 0.74631 0.63464 0.97871 0.0
C1549 C 0.70117 0.62028 0.00045 0.0
C1550 C 0.72352 0.62301 -0.00501 0.0
C1551 C 0.78526 0.61994 0.97634 0.0
C1552 C 0.76473 0.62292 0.98319 0.0
H1553 H 0.67014 0.58028 0.01393 0.0
H1554 H 0.70702 0.58576 0.00569 0.0
H1555 H 0.71153 0.64263 0.98054 0.0
H1556 H 0.8273 0.64964 0.96376 0.0
H1557 H 0.79263 0.65537 0.97477 0.0
C1558 C 0.10191 0.90938 0.74981 0.0
C1559 C 0.11838 0.90651 0.7583 0.0
C1560 C 0.10025 0.92967 0.74384 0.0
C1561 C 0.13478 0.97829 0.73584 0.0
H1562 H 0.07815 0.00571 0.7274 0.0
C1563 C 0.10184 0.06819 0.71734 0.0
C1564 C 0.11815 0.07174 0.70885 0.0
C1565 C 0.10008 0.04735 0.72278 0.0
C1566 C 0.09408 -0.00172 0.72974 0.0
H1567 H 0.14534 0.92291 0.76754 0.0
H1568 H 0.14222 0.9583 0.75725 0.0
H1569 H 0.07835 0.97123 0.73879 0.0
H1570 H 0.1446 0.05595 0.69895 0.0
H1571 H 0.14129 0.01955 0.70829 0.0
H1572 H 0.15059 0.00545 0.72708 0.0
C1573 C 0.13091 0.94477 0.75503 0.0
C1574 C 0.09419 0.97845 0.73617 0.0
C1575 C 0.13261 0.92452 0.76097 0.0
C1576 C 0.13201 0.05381 0.70555 0.0
C1577 C 0.1302 0.03298 0.71094 0.0
C1578 C 0.13468 -0.00197 0.72943 0.0
C1579 C 0.115 0.94743 0.74625 0.0
C1580 C 0.11457 0.96834 0.73935 0.0
C1581 C 0.11456 0.02966 0.71979 0.0
C1582 C 0.11435 0.00828 0.72631 0.0
H1583 H 0.0907 0.89579 0.74758 0.0
H1584 H 0.08791 0.93116 0.73707 0.0
H1585 H 0.15077 0.97075 0.738 0.0
H1586 H 0.09091 0.08171 0.72006 0.0
H1587 H 0.08797 0.04538 0.72961 0.0
C1588 C 0.81674 0.34601 0.5041 0.0
C1589 C 0.82411 0.36759 0.50719 0.0
C1590 C 0.79678 0.34328 0.49796 0.0
C1591 C 0.76101 0.37159 0.47757 0.0
H1592 H 0.71119 0.33748 0.48988 0.0
C1593 C 0.67173 0.38467 0.46116 0.0
C1594 C 0.6567 0.36657 0.46092 0.0
C1595 C 0.69293 0.38221 0.46601 0.0
C1596 C 0.72506 0.34667 0.48617 0.0
H1597 H 0.8165 0.40317 0.50628 0.0
H1598 H 0.78202 0.39837 0.49532 0.0
H1599 H 0.74718 0.33745 0.49991 0.0
H1600 H 0.65223 0.33151 0.46535 0.0
H1601 H 0.68965 0.32698 0.47356 0.0
H1602 H 0.7393 0.38074 0.46381 0.0
C1603 C 0.79157 0.38363 0.49773 0.0
C1604 C 0.7456 0.3467 0.49196 0.0
C1605 C 0.81121 0.38634 0.50405 0.0
C1606 C 0.66345 0.34579 0.46547 0.0
C1607 C 0.68484 0.34324 0.47022 0.0
C1608 C 0.74066 0.37128 0.4717 0.0
C1609 C 0.78423 0.36211 0.49462 0.0
C1610 C 0.7635 0.35966 0.48785 0.0
C1611 C 0.6998 0.36148 0.47061 0.0
C1612 C 0.72221 0.35938 0.4761 0.0
H1613 H 0.82636 0.33128 0.50645 0.0
H1614 H 0.79136 0.32654 0.49564 0.0
H1615 H 0.77474 0.38146 0.47418 0.0
H1616 H 0.66697 0.40094 0.4578 0.0
H1617 H 0.70373 0.39678 0.46638 0.0
C1618 C 0.37712 0.07051 0.24872 0.0
C1619 C 0.36104 0.07372 0.25736 0.0
C1620 C 0.37832 0.05012 0.24282 0.0
C1621 C 0.34312 0.00141 0.23556 0.0
H1622 H 0.3993 0.9737 0.22663 0.0
C1623 C 0.3757 0.91105 0.21735 0.0
C1624 C 0.35907 0.9071 0.20907 0.0
C1625 C 0.37741 0.93201 0.22265 0.0
C1626 C 0.38348 0.9812 0.22911 0.0
H1627 H 0.33425 0.0578 0.26694 0.0
H1628 H 0.33659 0.02219 0.25682 0.0
H1629 H 0.39969 0.00848 0.23772 0.0
H1630 H 0.33183 0.92225 0.19948 0.0
H1631 H 0.33504 0.95889 0.20858 0.0
H1632 H 0.32686 0.97397 0.22726 0.0
C1633 C 0.34794 0.03555 0.2544 0.0
C1634 C 0.38371 0.00121 0.23537 0.0
C1635 C 0.3467 0.05592 0.26025 0.0
C1636 C 0.34469 0.92472 0.20591 0.0
C1637 C 0.34646 0.94568 0.21117 0.0
C1638 C 0.34289 0.98146 0.22933 0.0
C1639 C 0.36347 0.03255 0.24548 0.0
C1640 C 0.3635 0.01145 0.23872 0.0
C1641 C 0.36256 0.94944 0.21975 0.0
C1642 C 0.36305 0.97107 0.22605 0.0
H1643 H 0.3884 0.08394 0.2463 0.0
H1644 H 0.39037 0.04838 0.23594 0.0
H1645 H 0.32725 0.00905 0.23785 0.0
H1646 H 0.38704 0.89779 0.21996 0.0
H1647 H 0.38986 0.93429 0.2293 0.0
C1648 C 0.8057 0.88891 0.4598 0.0
C1649 C 0.82055 0.87064 0.4594 0.0
C1650 C 0.78458 0.88662 0.46478 0.0
C1651 C 0.75271 0.85085 0.485 0.0
H1652 H 0.70294 0.8866 0.47379 0.0
C1653 C 0.66131 0.84926 0.50323 0.0
C1654 C 0.65369 0.87064 0.50655 0.0
C1655 C 0.68132 0.84697 0.49707 0.0
C1656 C 0.71671 0.87649 0.47697 0.0
H1657 H 0.82473 0.83544 0.46361 0.0
H1658 H 0.78747 0.83119 0.47201 0.0
H1659 H 0.7381 0.88608 0.46316 0.0
H1660 H 0.66096 0.9063 0.50607 0.0
H1661 H 0.69553 0.90227 0.49508 0.0
H1662 H 0.73087 0.84111 0.49875 0.0
C1663 C 0.79236 0.84747 0.46873 0.0
C1664 C 0.7369 0.87628 0.47095 0.0
C1665 C 0.81366 0.84986 0.46386 0.0
C1666 C 0.66644 0.88961 0.50365 0.0
C1667 C 0.68613 0.88735 0.49732 0.0
C1668 C 0.73232 0.85077 0.49092 0.0
C1669 C 0.77761 0.8659 0.46934 0.0
C1670 C 0.75538 0.86396 0.47505 0.0
C1671 C 0.69368 0.86604 0.49395 0.0
C1672 C 0.71438 0.86403 0.48709 0.0
H1673 H 0.81057 0.90519 0.45651 0.0
H1674 H 0.77396 0.90133 0.46531 0.0
H1675 H 0.76659 0.84133 0.48849 0.0
H1676 H 0.65182 0.83435 0.50538 0.0
H1677 H 0.68689 0.83038 0.49455 0.0
C1678 C 0.34588 0.55436 0.70673 0.0
C1679 C 0.36008 0.57218 0.70977 0.0
C1680 C 0.3476 0.53368 0.71227 0.0
C1681 C 0.34338 0.49913 0.73101 0.0
H1682 H 0.39977 0.47193 0.74002 0.0
C1683 C 0.3456 0.4249 0.76218 0.0
C1684 C 0.35975 0.40691 0.75931 0.0
C1685 C 0.34734 0.44536 0.75643 0.0
C1686 C 0.3839 0.47927 0.73751 0.0
H1687 H 0.3878 0.58206 0.72068 0.0
H1688 H 0.39057 0.546 0.7305 0.0
H1689 H 0.39989 0.50625 0.72854 0.0
H1690 H 0.38737 0.39648 0.74845 0.0
H1691 H 0.39019 0.43217 0.73828 0.0
H1692 H 0.32733 0.47206 0.73974 0.0
C1693 C 0.37826 0.54794 0.72374 0.0
C1694 C 0.38397 0.49902 0.73102 0.0
C1695 C 0.3766 0.56864 0.71816 0.0
C1696 C 0.37622 0.41005 0.75085 0.0
C1697 C 0.3779 0.43052 0.74506 0.0
C1698 C 0.34331 0.47946 0.73747 0.0
C1699 C 0.36347 0.53038 0.72102 0.0
C1700 C 0.36368 0.50915 0.72769 0.0
C1701 C 0.36319 0.44826 0.74764 0.0
C1702 C 0.36355 0.46932 0.74084 0.0
H1703 H 0.33311 0.55651 0.70022 0.0
H1704 H 0.33625 0.52034 0.70982 0.0
H1705 H 0.32745 0.50667 0.72874 0.0
H1706 H 0.33287 0.42307 0.76873 0.0
H1707 H 0.33606 0.45885 0.75878 0.0
C1708 C 0.80576 0.09694 0.01132 0.0
C1709 C 0.8238 0.11106 0.00854 0.0
C1710 C 0.78543 0.09879 0.00549 0.0
C1711 C 0.75171 0.13583 -0.01323 0.0
H1712 H 0.72441 0.07959 0.97758 0.0
C1713 C 0.66208 0.12873 0.96784 0.0
C1714 C 0.65853 0.1125 0.9593 0.0
C1715 C 0.68289 0.13039 0.9733 0.0
C1716 C 0.73192 0.09546 0.97997 0.0
H1717 H 0.83444 0.13872 -0.00225 0.0
H1718 H 0.79893 0.14178 -0.01254 0.0
H1719 H 0.75904 0.07913 -0.01148 0.0
H1720 H 0.6743 0.08614 0.94932 0.0
H1721 H 0.71062 0.08925 0.9587 0.0
H1722 H 0.72461 0.15212 0.97801 0.0
C1723 C 0.80047 0.12941 -0.00578 0.0
C1724 C 0.75161 0.09519 -0.01361 0.0
C1725 C 0.82084 0.12758 7e-05 0.0
C1726 C 0.67644 0.09867 0.95595 0.0
C1727 C 0.69722 0.10037 0.96137 0.0
C1728 C 0.73192 0.13611 0.98033 0.0
C1729 C 0.78268 0.11475 -0.00327 0.0
C1730 C 0.76169 0.11534 -0.01009 0.0
C1731 C 0.70053 0.11587 0.97029 0.0
C1732 C 0.72183 0.1159 0.97686 0.0
H1733 H 0.80745 0.08417 0.01787 0.0
H1734 H 0.77189 0.08754 0.00777 0.0
H1735 H 0.75903 0.15164 -0.0106 0.0
H1736 H 0.64859 0.13965 0.97059 0.0
H1737 H 0.68485 0.14241 0.98018 0.0
C1738 C 0.09992 0.56921 0.25261 0.0
C1739 C 0.11646 0.57283 0.26098 0.0
C1740 C 0.09779 0.54823 0.24736 0.0
C1741 C 0.09123 0.49889 0.24087 0.0
H1742 H 0.14756 0.47121 0.23213 0.0
C1743 C 0.09886 0.40933 0.22144 0.0
C1744 C 0.11491 0.40639 0.21275 0.0
C1745 C 0.09716 0.42983 0.22722 0.0
C1746 C 0.13167 0.47879 0.23443 0.0
H1747 H 0.14291 0.55702 0.27087 0.0
H1748 H 0.13902 0.5204 0.26183 0.0
H1749 H 0.14784 0.5061 0.24288 0.0
H1750 H 0.14099 0.42292 0.20293 0.0
H1751 H 0.13785 0.45863 0.2129 0.0
H1752 H 0.07513 0.47162 0.23215 0.0
C1753 C 0.128 0.53387 0.25914 0.0
C1754 C 0.13183 0.49863 0.24074 0.0
C1755 C 0.13016 0.55483 0.26436 0.0
C1756 C 0.1286 0.42458 0.20965 0.0
C1757 C 0.12689 0.44501 0.21541 0.0
C1758 C 0.09107 0.47893 0.23455 0.0
C1759 C 0.11215 0.53047 0.25041 0.0
C1760 C 0.11164 0.50895 0.24402 0.0
C1761 C 0.1115 0.44772 0.22442 0.0
C1762 C 0.11132 0.46877 0.2312 0.0
H1763 H 0.08908 0.58277 0.24984 0.0
H1764 H 0.08552 0.54618 0.24061 0.0
H1765 H 0.0754 0.5064 0.24333 0.0
H1766 H 0.08806 0.39562 0.224 0.0
H1767 H 0.08521 0.43138 0.23416 0.0
C1768 C 0.15755 0.13167 0.50011 0.0
C1769 C 0.15539 0.11485 0.50848 0.0
C1770 C 0.17807 0.13518 0.49462 0.0
C1771 C 0.2388 0.12426 0.49694 0.0
H1772 H 0.23773 0.12616 0.46373 0.0
C1773 C 0.30214 0.10339 0.45777 0.0
C1774 C 0.32134 0.11536 0.4611 0.0
C1775 C 0.28173 0.10694 0.46332 0.0
C1776 C 0.23827 0.12574 0.473 0.0
H1777 H 0.17316 0.08901 0.51793 0.0
H1778 H 0.20894 0.09515 0.50836 0.0
H1779 H 0.20249 0.12579 0.47437 0.0
H1780 H 0.33413 0.14081 0.47266 0.0
H1781 H 0.29839 0.14687 0.48244 0.0
H1782 H 0.27458 0.12349 0.49555 0.0
C1783 C 0.19482 0.10569 0.50607 0.0
C1784 C 0.21812 0.12573 0.47909 0.0
C1785 C 0.17429 0.10206 0.51149 0.0
C1786 C 0.31962 0.13131 0.46992 0.0
C1787 C 0.29921 0.13472 0.47555 0.0
C1788 C 0.25895 0.12444 0.49085 0.0
C1789 C 0.19685 0.12207 0.49748 0.0
C1790 C 0.21819 0.12452 0.49111 0.0
C1791 C 0.28013 0.12242 0.47237 0.0
C1792 C 0.25886 0.12471 0.47881 0.0
H1793 H 0.14328 0.14183 0.49763 0.0
H1794 H 0.17922 0.14805 0.48809 0.0
H1795 H 0.23933 0.12353 0.50621 0.0
H1796 H 0.30294 0.09101 0.45099 0.0
H1797 H 0.26735 0.09704 0.46077 0.0
C1798 C 0.59959 0.40949 0.2507 0.0
C1799 C 0.6164 0.4068 0.25903 0.0
C1800 C 0.59754 0.42973 0.24471 0.0
C1801 C 0.63173 0.47795 0.23606 0.0
H1802 H 0.57493 0.5059 0.22838 0.0
C1803 C 0.59951 0.56819 0.21804 0.0
C1804 C 0.61533 0.57134 0.20926 0.0
C1805 C 0.59747 0.54734 0.22343 0.0
C1806 C 0.5909 0.49829 0.23049 0.0
H1807 H 0.64353 0.42348 0.268 0.0
H1808 H 0.63979 0.45876 0.25766 0.0
H1809 H 0.57542 0.47156 0.23992 0.0
H1810 H 0.64045 0.55482 0.19879 0.0
H1811 H 0.63668 0.51843 0.20808 0.0
H1812 H 0.64731 0.50472 0.2269 0.0
C1813 C 0.62848 0.44513 0.25559 0.0
C1814 C 0.59117 0.47858 0.23702 0.0
C1815 C 0.63054 0.42496 0.26156 0.0
C1816 C 0.62828 0.55299 0.20561 0.0
C1817 C 0.6262 0.53217 0.21097 0.0
C1818 C 0.63146 0.49753 0.22954 0.0
C1819 C 0.61228 0.44759 0.24695 0.0
C1820 C 0.61163 0.46832 0.23993 0.0
C1821 C 0.61119 0.52926 0.22013 0.0
C1822 C 0.61107 0.50797 0.2267 0.0
H1823 H 0.58842 0.39578 0.24858 0.0
H1824 H 0.58496 0.43109 0.23806 0.0
H1825 H 0.64774 0.47026 0.23802 0.0
H1826 H 0.58926 0.58202 0.22102 0.0
H1827 H 0.58585 0.54565 0.23051 0.0
C1828 C 0.17087 0.88798 0.96219 0.0
C1829 C 0.15674 0.86922 0.96146 0.0
C1830 C 0.19184 0.88627 0.96738 0.0
C1831 C 0.22467 0.85103 -0.01255 0.0
H1832 H 0.27345 0.88812 0.97633 0.0
C1833 C 0.31641 0.85039 0.00512 0.0
C1834 C 0.32413 0.87177 0.00833 0.0
C1835 C 0.29612 0.84806 -0.00078 0.0
C1836 C 0.25995 0.87767 0.9795 0.0
H1837 H 0.15359 0.83381 0.96542 0.0
H1838 H 0.19064 0.8306 0.97422 0.0
H1839 H 0.23824 0.88704 0.96578 0.0
H1840 H 0.3167 0.90742 0.00797 0.0
H1841 H 0.28158 0.90334 -0.00256 0.0
H1842 H 0.24686 0.84148 0.00109 0.0
C1843 C 0.18529 0.84679 0.971 0.0
C1844 C 0.23973 0.87713 0.97352 0.0
C1845 C 0.16412 0.84859 0.96591 0.0
C1846 C 0.31115 0.89073 0.00563 0.0
C1847 C 0.29115 0.88843 -0.00044 0.0
C1848 C 0.24509 0.85131 -0.00666 0.0
C1849 C 0.19938 0.86567 0.97184 0.0
C1850 C 0.22162 0.86426 0.97757 0.0
C1851 C 0.28354 0.86711 -0.00374 0.0
C1852 C 0.26268 0.86504 -0.01046 0.0
H1853 H 0.16559 0.90418 0.95893 0.0
H1854 H 0.20193 0.90131 0.9681 0.0
H1855 H 0.21105 0.84109 -0.00911 0.0
H1856 H 0.32607 0.83549 0.00712 0.0
H1857 H 0.29054 0.83146 -0.00326 0.0
C1858 C 0.87981 0.41059 0.71959 0.0
C1859 C 0.8634 0.40729 0.71111 0.0
C1860 C 0.88167 0.43131 0.72514 0.0
C1861 C 0.84722 0.48051 0.73215 0.0
H1862 H 0.90365 0.50783 0.74093 0.0
C1863 C 0.87959 0.57029 0.75106 0.0
C1864 C 0.86317 0.57359 0.75953 0.0
C1865 C 0.8815 0.54959 0.7455 0.0
C1866 C 0.88778 0.50043 0.73848 0.0
H1867 H 0.83691 0.4234 0.70138 0.0
H1868 H 0.84038 0.45953 0.71092 0.0
H1869 H 0.90372 0.47308 0.72973 0.0
H1870 H 0.83666 0.55748 0.76923 0.0
H1871 H 0.8402 0.52137 0.75967 0.0
H1872 H 0.83122 0.50788 0.74066 0.0
C1873 C 0.85147 0.44601 0.71347 0.0
C1874 C 0.88782 0.48047 0.73216 0.0
C1875 C 0.84956 0.42534 0.70796 0.0
C1876 C 0.84933 0.55555 0.76265 0.0
C1877 C 0.85128 0.53488 0.75714 0.0
C1878 C 0.84718 0.50036 0.73845 0.0
C1879 C 0.86719 0.44909 0.72229 0.0
C1880 C 0.86751 0.47035 0.7289 0.0
C1881 C 0.86704 0.53181 0.74832 0.0
C1882 C 0.86743 0.51054 0.74172 0.0
H1883 H 0.89074 0.39698 0.72218 0.0
H1884 H 0.89387 0.43312 0.73195 0.0
H1885 H 0.83128 0.47298 0.72993 0.0
H1886 H 0.89053 0.5839 0.74848 0.0
H1887 H 0.89372 0.54778 0.7387 0.0
C1888 C 0.10713 0.37316 0.06831 0.0
C1889 C 0.09625 0.39294 0.06495 0.0
C1890 C 0.11505 0.37076 0.07948 0.0
C1891 C 0.10806 0.39565 0.10859 0.0
H1892 H 0.15453 0.35233 0.11555 0.0
C1893 C 0.11727 0.35863 0.15371 0.0
C1894 C 0.13783 0.34951 0.15716 0.0
C1895 C 0.11467 0.36715 0.14265 0.0
C1896 C 0.14186 0.36491 0.11386 0.0
H1897 H 0.08618 0.42625 0.07028 0.0
H1898 H 0.1014 0.42282 0.08956 0.0
H1899 H 0.14729 0.36226 0.09588 0.0
H1900 H 0.17221 0.34327 0.15218 0.0
H1901 H 0.16833 0.35964 0.13318 0.0
H1902 H 0.10366 0.39944 0.1266 0.0
C1903 C 0.10287 0.40861 0.08384 0.0
C1904 C 0.13732 0.37025 0.10246 0.0
C1905 C 0.0943 0.41071 0.07276 0.0
C1906 C 0.15609 0.34998 0.14961 0.0
C1907 C 0.15374 0.3592 0.13868 0.0
C1908 C 0.1131 0.39086 0.12001 0.0
C1909 C 0.11289 0.38838 0.08746 0.0
C1910 C 0.11982 0.38509 0.09963 0.0
C1911 C 0.13283 0.36739 0.13491 0.0
C1912 C 0.12954 0.37482 0.12282 0.0
H1913 H 0.10864 0.35915 0.06244 0.0
H1914 H 0.12211 0.35471 0.08191 0.0
H1915 H 0.09434 0.40704 0.10687 0.0
H1916 H 0.10291 0.35828 0.15939 0.0
H1917 H 0.09815 0.37276 0.1401 0.0
C1918 C 0.86097 0.89019 0.40372 0.0
C1919 C 0.88418 0.8928 0.40526 0.0
C1920 C 0.85192 0.88853 0.39271 0.0
C1921 C 0.86631 0.89553 0.36173 0.0
H1922 H 0.82043 0.85023 0.35763 0.0
C1923 C 0.83439 0.83096 0.32482 0.0
C1924 C 0.83575 0.84484 0.31512 0.0
C1925 C 0.83649 0.83999 0.33578 0.0
C1926 C 0.83331 0.86288 0.35861 0.0
H1927 H 0.91606 0.89609 0.39649 0.0
H1928 H 0.90053 0.89227 0.3774 0.0
H1929 H 0.83217 0.8604 0.37683 0.0
H1930 H 0.83931 0.87924 0.30931 0.0
H1931 H 0.84231 0.89515 0.3285 0.0
H1932 H 0.8687 0.89673 0.3435 0.0
C1933 C 0.88911 0.8922 0.38461 0.0
C1934 C 0.83981 0.869 0.36965 0.0
C1935 C 0.89809 0.89419 0.39559 0.0
C1936 C 0.83844 0.86808 0.31663 0.0
C1937 C 0.84024 0.87718 0.32762 0.0
C1938 C 0.86006 0.88915 0.35068 0.0
C1939 C 0.86594 0.88912 0.38302 0.0
C1940 C 0.85684 0.88496 0.37136 0.0
C1941 C 0.83967 0.86319 0.33733 0.0
C1942 C 0.84393 0.87229 0.34898 0.0
H1943 H 0.84979 0.88932 0.41102 0.0
H1944 H 0.83397 0.88657 0.39182 0.0
H1945 H 0.87909 0.90828 0.36271 0.0
H1946 H 0.83243 0.81297 0.32396 0.0
H1947 H 0.83642 0.82859 0.343 0.0
C1948 C 0.34569 0.61729 0.65276 0.0
C1949 C 0.33235 0.63593 0.65556 0.0
C1950 C 0.34655 0.60939 0.6415 0.0
C1951 C 0.33983 0.59041 0.61769 0.0
H1952 H 0.34465 0.63671 0.59446 0.0
C1953 C 0.38435 0.57841 0.57449 0.0
C1954 C 0.37549 0.58901 0.56473 0.0
C1955 C 0.37441 0.58149 0.58519 0.0
C1956 C 0.34288 0.62354 0.60079 0.0
H1957 H 0.30842 0.6601 0.6489 0.0
H1958 H 0.30953 0.64603 0.62935 0.0
H1959 H 0.33592 0.64714 0.61407 0.0
H1960 H 0.34861 0.61031 0.55845 0.0
H1961 H 0.33136 0.61581 0.57722 0.0
H1962 H 0.34789 0.56695 0.6044 0.0
C1963 C 0.31981 0.63787 0.63577 0.0
C1964 C 0.33785 0.6295 0.61205 0.0
C1965 C 0.31913 0.6459 0.64699 0.0
C1966 C 0.35592 0.602 0.56582 0.0
C1967 C 0.34607 0.60521 0.57655 0.0
C1968 C 0.34502 0.58446 0.60642 0.0
C1969 C 0.3339 0.61985 0.63284 0.0
C1970 C 0.33671 0.61307 0.62068 0.0
C1971 C 0.35549 0.59533 0.58636 0.0
C1972 C 0.34703 0.60103 0.59792 0.0
H1973 H 0.35608 0.60924 0.65918 0.0
H1974 H 0.35781 0.59566 0.63953 0.0
H1975 H 0.33866 0.57731 0.62409 0.0
H1976 H 0.39933 0.56818 0.57394 0.0
H1977 H 0.38218 0.57384 0.59262 0.0
C1978 C 0.64923 0.14082 0.82377 0.0
C1979 C 0.63904 0.13107 0.81412 0.0
C1980 C 0.64621 0.1315 0.83462 0.0
C1981 C 0.60516 0.09938 0.85066 0.0
H1982 H 0.65172 0.09639 0.8738 0.0
C1983 C 0.61206 0.10051 0.90268 0.0
C1984 C 0.59411 0.08622 0.90539 0.0
C1985 C 0.61965 0.1023 0.8914 0.0
C1986 C 0.63852 0.09724 0.86744 0.0
H1987 H 0.61844 0.10334 0.80824 0.0
H1988 H 0.61306 0.08718 0.82725 0.0
H1989 H 0.66152 0.10611 0.85409 0.0
H1990 H 0.57087 0.06165 0.89853 0.0
H1991 H 0.58444 0.06439 0.87893 0.0
H1992 H 0.582 0.0915 0.86398 0.0
C1993 C 0.62328 0.1021 0.82638 0.0
C1994 C 0.64415 0.10272 0.85617 0.0
C1995 C 0.62642 0.11134 0.81551 0.0
C1996 C 0.58453 0.07306 0.89669 0.0
C1997 C 0.59226 0.07469 0.88544 0.0
C1998 C 0.59951 0.09407 0.86192 0.0
C1999 C 0.63284 0.11232 0.83606 0.0
C2000 C 0.62746 0.10417 0.84771 0.0
C2001 C 0.60958 0.08968 0.88262 0.0
C2002 C 0.61606 0.09327 0.87049 0.0
H2003 H 0.65916 0.15595 0.82299 0.0
H2004 H 0.6536 0.13985 0.84195 0.0
H2005 H 0.59189 0.10072 0.84436 0.0
H2006 H 0.61978 0.11088 0.9092 0.0
H2007 H 0.63283 0.11422 0.88951 0.0
C2008 C 0.13654 0.61391 0.31658 0.0
C2009 C 0.13971 0.63706 0.31494 0.0
C2010 C 0.13439 0.60511 0.32762 0.0
C2011 C 0.14141 0.61985 0.35851 0.0
H2012 H 0.09567 0.57446 0.36276 0.0
C2013 C 0.07781 0.58748 0.39586 0.0
C2014 C 0.09209 0.58843 0.4054 0.0
C2015 C 0.08637 0.58998 0.38482 0.0
C2016 C 0.10843 0.58722 0.36174 0.0
H2017 H 0.14336 0.66909 0.32355 0.0
H2018 H 0.13869 0.654 0.3427 0.0
H2019 H 0.1057 0.58614 0.34353 0.0
H2020 H 0.12668 0.59175 0.41087 0.0
H2021 H 0.14177 0.5954 0.39155 0.0
H2022 H 0.14293 0.62215 0.37673 0.0
C2023 C 0.13857 0.64244 0.33555 0.0
C2024 C 0.11446 0.59368 0.35068 0.0
C2025 C 0.14105 0.65117 0.32454 0.0
C2026 C 0.11523 0.59119 0.40367 0.0
C2027 C 0.12385 0.59337 0.3926 0.0
C2028 C 0.13512 0.61365 0.36958 0.0
C2029 C 0.13502 0.61933 0.33723 0.0
C2030 C 0.13065 0.61048 0.34893 0.0
C2031 C 0.10948 0.59316 0.38305 0.0
C2032 C 0.11816 0.59764 0.37133 0.0
H2033 H 0.13569 0.60259 0.30933 0.0
H2034 H 0.13207 0.58719 0.32859 0.0
H2035 H 0.15431 0.63247 0.35749 0.0
H2036 H 0.05988 0.58549 0.39691 0.0
H2037 H 0.0747 0.59018 0.37772 0.0
C2038 C 0.65612 0.83512 0.64627 0.0
C2039 C 0.64276 0.84431 0.655 0.0
C2040 C 0.65481 0.84343 0.63512 0.0
C2041 C 0.63618 0.8518 0.61157 0.0
H2042 H 0.62406 0.91419 0.60435 0.0
C2043 C 0.61953 0.88002 0.56538 0.0
C2044 C 0.59963 0.89242 0.56403 0.0
C2045 C 0.62881 0.87688 0.57624 0.0
C2046 C 0.62749 0.89672 0.60625 0.0
H2047 H 0.61807 0.86989 0.65899 0.0
H2048 H 0.61524 0.88395 0.63944 0.0
H2049 H 0.63321 0.90353 0.62402 0.0
H2050 H 0.57463 0.91232 0.57296 0.0
H2051 H 0.59079 0.90674 0.59189 0.0
H2052 H 0.63011 0.84492 0.59388 0.0
C2053 C 0.62708 0.87062 0.64124 0.0
C2054 C 0.63264 0.8906 0.61751 0.0
C2055 C 0.62858 0.86246 0.65244 0.0
C2056 C 0.58988 0.90255 0.5737 0.0
C2057 C 0.59924 0.89951 0.58455 0.0
C2058 C 0.6312 0.85794 0.60033 0.0
C2059 C 0.63992 0.86094 0.63242 0.0
C2060 C 0.63663 0.86799 0.62033 0.0
C2061 C 0.61847 0.88619 0.58595 0.0
C2062 C 0.6264 0.88038 0.5976 0.0
H2063 H 0.66746 0.82132 0.64801 0.0
H2064 H 0.66528 0.8359 0.62858 0.0
H2065 H 0.63875 0.83418 0.61345 0.0
H2066 H 0.62754 0.8721 0.55809 0.0
H2067 H 0.64379 0.86672 0.57708 0.0
C2068 C 0.34716 0.36377 0.81718 0.0
C2069 C 0.33307 0.34565 0.81448 0.0
C2070 C 0.34828 0.37188 0.82839 0.0
C2071 C 0.3424 0.3915 0.85216 0.0
H2072 H 0.34467 0.3453 0.87554 0.0
C2073 C 0.38635 0.4018 0.89568 0.0
C2074 C 0.3768 0.3916 0.90538 0.0
C2075 C 0.37656 0.39917 0.88491 0.0
C2076 C 0.34363 0.35847 0.86917 0.0
H2077 H 0.30805 0.32278 0.82122 0.0
H2078 H 0.30959 0.33727 0.84068 0.0
H2079 H 0.33582 0.33507 0.85594 0.0
H2080 H 0.34884 0.37158 0.91147 0.0
H2081 H 0.33184 0.3669 0.8926 0.0
H2082 H 0.35131 0.41471 0.86543 0.0
C2083 C 0.32028 0.34479 0.83424 0.0
C2084 C 0.33852 0.35263 0.85791 0.0
C2085 C 0.31935 0.33653 0.82307 0.0
C2086 C 0.3567 0.37954 0.90416 0.0
C2087 C 0.34698 0.3768 0.89336 0.0
C2088 C 0.34767 0.39733 0.86344 0.0
C2089 C 0.33515 0.36219 0.83709 0.0
C2090 C 0.33824 0.36899 0.84922 0.0
C2091 C 0.35709 0.3862 0.88361 0.0
C2092 C 0.34872 0.38079 0.872 0.0
H2093 H 0.35794 0.37115 0.81073 0.0
H2094 H 0.36013 0.38512 0.83031 0.0
H2095 H 0.34194 0.40457 0.84571 0.0
H2096 H 0.40175 0.41132 0.89633 0.0
H2097 H 0.38485 0.40643 0.87753 0.0
C2098 C 0.83208 0.1485 0.14484 0.0
C2099 C 0.83349 0.13456 0.15451 0.0
C2100 C 0.83354 0.13947 0.13386 0.0
C2101 C 0.85595 0.08995 0.11884 0.0
H2102 H 0.8293 0.12016 0.09276 0.0
C2103 C 0.89599 0.08663 0.07449 0.0
C2104 C 0.88265 0.08848 0.06463 0.0
C2105 C 0.88639 0.08824 0.08534 0.0
C2106 C 0.83657 0.11114 0.09991 0.0
H2107 H 0.83635 0.10005 0.16027 0.0
H2108 H 0.83821 0.08413 0.14104 0.0
H2109 H 0.81718 0.12987 0.11197 0.0
H2110 H 0.84864 0.09254 0.05838 0.0
H2111 H 0.83173 0.09471 0.07738 0.0
H2112 H 0.87501 0.07091 0.10678 0.0
C2113 C 0.83661 0.10215 0.14195 0.0
C2114 C 0.82986 0.11698 0.11097 0.0
C2115 C 0.83547 0.11125 0.15297 0.0
C2116 C 0.85939 0.0913 0.06584 0.0
C2117 C 0.84971 0.0926 0.07673 0.0
C2118 C 0.86239 0.08384 0.10778 0.0
C2119 C 0.83611 0.11621 0.13226 0.0
C2120 C 0.84013 0.10712 0.12058 0.0
C2121 C 0.86315 0.0914 0.08661 0.0
C2122 C 0.85345 0.09501 0.0982 0.0
H2123 H 0.83064 0.16654 0.14573 0.0
H2124 H 0.83355 0.15092 0.12666 0.0
H2125 H 0.86431 0.08198 0.126 0.0
H2126 H 0.91399 0.08457 0.07385 0.0
H2127 H 0.89739 0.08775 0.09271 0.0
C2128 C 0.85477 0.61936 0.81794 0.0
C2129 C 0.83531 0.63036 0.81425 0.0
C2130 C 0.85591 0.61033 0.82895 0.0
C2131 C 0.82758 0.61445 0.85735 0.0
H2132 H 0.87144 0.56869 0.86463 0.0
C2133 C 0.86319 0.60566 0.90262 0.0
C2134 C 0.87343 0.58557 0.90602 0.0
C2135 C 0.8543 0.60779 0.89163 0.0
C2136 C 0.85867 0.58111 0.86285 0.0
H2137 H 0.80129 0.63944 0.81874 0.0
H2138 H 0.80257 0.6223 0.83767 0.0
H2139 H 0.86304 0.57678 0.84487 0.0
H2140 H 0.88103 0.5514 0.90107 0.0
H2141 H 0.86402 0.55442 0.88217 0.0
H2142 H 0.82215 0.61777 0.87531 0.0
C2143 C 0.81746 0.62158 0.83239 0.0
C2144 C 0.8542 0.58615 0.8514 0.0
C2145 C 0.8166 0.63127 0.8215 0.0
C2146 C 0.87344 0.56717 0.89854 0.0
C2147 C 0.86386 0.56903 0.88767 0.0
C2148 C 0.83149 0.60888 0.86879 0.0
C2149 C 0.83733 0.61147 0.8364 0.0
C2150 C 0.83931 0.60356 0.84848 0.0
C2151 C 0.85483 0.58962 0.88389 0.0
C2152 C 0.84779 0.59279 0.87173 0.0
H2153 H 0.86947 0.61862 0.8125 0.0
H2154 H 0.87172 0.60325 0.8317 0.0
H2155 H 0.81603 0.62803 0.85557 0.0
H2156 H 0.86317 0.62013 0.90824 0.0
H2157 H 0.848 0.62408 0.88909 0.0
C2158 C 0.12102 0.0985 0.56522 0.0
C2159 C 0.10086 0.08653 0.56403 0.0
C2160 C 0.13078 0.10124 0.576 0.0
C2161 C 0.13019 0.081 0.60594 0.0
H2162 H 0.14253 0.14327 0.61321 0.0
C2163 C 0.15935 0.14221 0.64599 0.0
C2164 C 0.14561 0.1333 0.65464 0.0
C2165 C 0.15833 0.13373 0.63487 0.0
C2166 C 0.1397 0.12571 0.6113 0.0
H2167 H 0.07583 0.06698 0.57311 0.0
H2168 H 0.0928 0.07191 0.5919 0.0
H2169 H 0.13328 0.13289 0.59368 0.0
H2170 H 0.12064 0.10798 0.65853 0.0
H2171 H 0.1183 0.09367 0.63904 0.0
H2172 H 0.1362 0.07392 0.62365 0.0
C2173 C 0.1011 0.07908 0.5845 0.0
C2174 C 0.13435 0.11978 0.60009 0.0
C2175 C 0.09128 0.07642 0.57374 0.0
C2176 C 0.13143 0.1152 0.65204 0.0
C2177 C 0.13022 0.10688 0.64088 0.0
C2178 C 0.13571 0.08691 0.61717 0.0
C2179 C 0.12064 0.09196 0.58577 0.0
C2180 C 0.12909 0.09746 0.59734 0.0
C2181 C 0.14334 0.11636 0.63211 0.0
C2182 C 0.14006 0.10943 0.62002 0.0
H2183 H 0.12894 0.10635 0.5579 0.0
H2184 H 0.14599 0.11106 0.57673 0.0
H2185 H 0.12643 0.06362 0.60401 0.0
H2186 H 0.1707 0.15595 0.64776 0.0
H2187 H 0.169 0.14109 0.62837 0.0
C2188 C 0.59724 0.41112 0.3994 0.0
C2189 C 0.59852 0.39264 0.40681 0.0
C2190 C 0.60669 0.41 0.38846 0.0
C2191 C 0.64201 0.37289 0.36958 0.0
H2192 H 0.60944 0.40371 0.34557 0.0
C2193 C 0.66025 0.35266 0.32243 0.0
C2194 C 0.64182 0.35251 0.31499 0.0
C2195 C 0.65838 0.36221 0.33331 0.0
C2196 C 0.61859 0.3947 0.35213 0.0
H2197 H 0.61068 0.35864 0.40879 0.0
H2198 H 0.62565 0.3559 0.38954 0.0
H2199 H 0.59966 0.41049 0.36531 0.0
H2200 H 0.60715 0.3623 0.31285 0.0
H2201 H 0.60318 0.37735 0.33204 0.0
H2202 H 0.65927 0.35529 0.35641 0.0
C2203 C 0.61845 0.37175 0.39219 0.0
C2204 C 0.61329 0.39901 0.36356 0.0
C2205 C 0.60966 0.37317 0.40323 0.0
C2206 C 0.62163 0.3624 0.31846 0.0
C2207 C 0.61949 0.37124 0.32946 0.0
C2208 C 0.64677 0.36801 0.35815 0.0
C2209 C 0.61693 0.39008 0.38458 0.0
C2210 C 0.62454 0.38773 0.37247 0.0
C2211 C 0.63777 0.37106 0.33713 0.0
C2212 C 0.63475 0.37844 0.34924 0.0
H2213 H 0.58894 0.42644 0.40206 0.0
H2214 H 0.60567 0.4247 0.38305 0.0
H2215 H 0.65165 0.36441 0.37614 0.0
H2216 H 0.6761 0.34537 0.31984 0.0
H2217 H 0.67305 0.3623 0.33876 0.0
C2218 C 0.39598 0.89614 0.07472 0.0
C2219 C 0.38263 0.89397 0.06489 0.0
C2220 C 0.38649 0.89444 0.08559 0.0
C2221 C 0.36269 0.8977 0.10813 0.0
H2222 H 0.31912 0.85013 0.11211 0.0
C2223 C 0.33738 0.86789 0.15316 0.0
C2224 C 0.33604 0.8445 0.15452 0.0
C2225 C 0.33819 0.87736 0.14221 0.0
C2226 C 0.33134 0.86344 0.11116 0.0
H2227 H 0.34863 0.88946 0.05871 0.0
H2228 H 0.33189 0.88711 0.07775 0.0
H2229 H 0.33045 0.86099 0.09293 0.0
H2230 H 0.33408 0.81272 0.14552 0.0
H2231 H 0.33647 0.82902 0.12654 0.0
H2232 H 0.36499 0.89888 0.12635 0.0
C2233 C 0.34983 0.88953 0.07705 0.0
C2234 C 0.33758 0.86994 0.10013 0.0
C2235 C 0.3594 0.89095 0.06614 0.0
C2236 C 0.33503 0.83081 0.14475 0.0
C2237 C 0.33618 0.84023 0.13384 0.0
C2238 C 0.35673 0.89095 0.11916 0.0
C2239 C 0.36334 0.89084 0.08691 0.0
C2240 C 0.35389 0.88665 0.09849 0.0
C2241 C 0.33802 0.86361 0.13242 0.0
C2242 C 0.34152 0.87323 0.12081 0.0
H2243 H 0.41395 0.89839 0.07406 0.0
H2244 H 0.39755 0.89507 0.09294 0.0
H2245 H 0.37488 0.91104 0.10718 0.0
H2246 H 0.33791 0.87889 0.16054 0.0
H2247 H 0.33922 0.89545 0.14145 0.0
C2248 C 0.85527 0.36044 0.65283 0.0
C2249 C 0.83567 0.34975 0.65654 0.0
C2250 C 0.85658 0.36924 0.64178 0.0
C2251 C 0.82839 0.36501 0.61334 0.0
H2252 H 0.87274 0.41015 0.60596 0.0
C2253 C 0.86401 0.37306 0.56801 0.0
C2254 C 0.87446 0.39299 0.56458 0.0
C2255 C 0.85515 0.37108 0.57902 0.0
C2256 C 0.85984 0.39791 0.60777 0.0
H2257 H 0.80162 0.34095 0.65202 0.0
H2258 H 0.80321 0.3577 0.633 0.0
H2259 H 0.86418 0.40241 0.62574 0.0
H2260 H 0.8825 0.42706 0.56949 0.0
H2261 H 0.86554 0.42436 0.58841 0.0
H2262 H 0.82299 0.36155 0.59538 0.0
C2263 C 0.81806 0.35835 0.63832 0.0
C2264 C 0.85528 0.39306 0.61922 0.0
C2265 C 0.81702 0.3489 0.64925 0.0
C2266 C 0.87474 0.41141 0.57204 0.0
C2267 C 0.86519 0.40972 0.58293 0.0
C2268 C 0.8324 0.37041 0.60189 0.0
C2269 C 0.83805 0.36817 0.6343 0.0
C2270 C 0.84019 0.37587 0.62218 0.0
C2271 C 0.85593 0.38928 0.58674 0.0
C2272 C 0.84886 0.38626 0.59891 0.0
H2273 H 0.86993 0.36113 0.6583 0.0
H2274 H 0.87248 0.37609 0.63903 0.0
H2275 H 0.8167 0.3516 0.61514 0.0
H2276 H 0.86377 0.35857 0.5624 0.0
H2277 H 0.84867 0.35489 0.58158 0.0
C2278 C 0.31814 0.12902 0.32066 0.0
C2279 C 0.33675 0.12843 0.31334 0.0
C2280 C 0.31936 0.11946 0.33157 0.0
C2281 C 0.35724 0.08538 0.35066 0.0
H2282 H 0.3248 0.11696 0.37445 0.0
C2283 C 0.3764 0.06751 0.398 0.0
C2284 C 0.37581 0.08594 0.40546 0.0
C2285 C 0.36722 0.06918 0.38703 0.0
C2286 C 0.33426 0.1081 0.36796 0.0
H2287 H 0.37107 0.11729 0.31145 0.0
H2288 H 0.37394 0.10213 0.33069 0.0
H2289 H 0.31821 0.12652 0.35467 0.0
H2290 H 0.36506 0.1204 0.40751 0.0
H2291 H 0.35058 0.12402 0.38818 0.0
H2292 H 0.37501 0.06866 0.36397 0.0
C2293 C 0.35795 0.10888 0.32799 0.0
C2294 C 0.33008 0.11325 0.3565 0.0
C2295 C 0.35645 0.11777 0.31696 0.0
C2296 C 0.36553 0.10591 0.40191 0.0
C2297 C 0.35703 0.10784 0.39082 0.0
C2298 C 0.36196 0.08076 0.36213 0.0
C2299 C 0.3395 0.10982 0.33553 0.0
C2300 C 0.34189 0.10234 0.34767 0.0
C2301 C 0.35798 0.08958 0.38315 0.0
C2302 C 0.35092 0.09244 0.37097 0.0
H2303 H 0.30265 0.13693 0.31796 0.0
H2304 H 0.30455 0.11997 0.33692 0.0
H2305 H 0.36619 0.07601 0.34417 0.0
H2306 H 0.38402 0.05183 0.40065 0.0
H2307 H 0.36772 0.05451 0.38157 0.0
C2308 C 0.61904 0.62288 0.15183 0.0
C2309 C 0.63947 0.63239 0.15519 0.0
C2310 C 0.61629 0.61468 0.14073 0.0
C2311 C 0.64236 0.61813 0.11172 0.0
H2312 H 0.59625 0.57431 0.1051 0.0
C2313 C 0.60665 0.60866 0.06645 0.0
C2314 C 0.59656 0.58845 0.06314 0.0
C2315 C 0.61468 0.61138 0.07757 0.0
C2316 C 0.60958 0.5862 0.10671 0.0
H2317 H 0.67345 0.6398 0.14995 0.0
H2318 H 0.66934 0.62404 0.13082 0.0
H2319 H 0.60595 0.58217 0.12475 0.0
H2320 H 0.58796 0.55478 0.06852 0.0
H2321 H 0.6034 0.55882 0.08773 0.0
H2322 H 0.64709 0.62104 0.09369 0.0
C2323 C 0.65495 0.62389 0.13646 0.0
C2324 C 0.61482 0.59112 0.11808 0.0
C2325 C 0.65743 0.63277 0.14746 0.0
C2326 C 0.59546 0.57064 0.07096 0.0
C2327 C 0.60416 0.57308 0.082 0.0
C2328 C 0.63765 0.61267 0.10036 0.0
C2329 C 0.63418 0.61515 0.13284 0.0
C2330 C 0.63073 0.60773 0.12077 0.0
C2331 C 0.61346 0.59367 0.08556 0.0
C2332 C 0.62063 0.5972 0.09766 0.0
H2333 H 0.60489 0.62258 0.15765 0.0
H2334 H 0.59986 0.60867 0.13829 0.0
H2335 H 0.65461 0.63114 0.11332 0.0
H2336 H 0.60749 0.62271 0.06056 0.0
H2337 H 0.62114 0.62768 0.07996 0.0
C2338 C 0.16126 0.85331 0.82197 0.0
C2339 C 0.14269 0.85322 0.81462 0.0
C2340 C 0.15969 0.86303 0.83282 0.0
C2341 C 0.12048 0.89594 0.85178 0.0
H2342 H 0.15368 0.86545 0.87567 0.0
C2343 C 0.09937 0.91219 0.89905 0.0
C2344 C 0.10054 0.89364 0.90642 0.0
C2345 C 0.10893 0.91116 0.88814 0.0
C2346 C 0.14401 0.87399 0.86915 0.0
H2347 H 0.10808 0.86333 0.81261 0.0
H2348 H 0.10462 0.87869 0.83176 0.0
H2349 H 0.16097 0.85628 0.85592 0.0
H2350 H 0.1127 0.85962 0.90837 0.0
H2351 H 0.12785 0.85705 0.88915 0.0
H2352 H 0.10182 0.91184 0.86502 0.0
C2353 C 0.12083 0.8724 0.82912 0.0
C2354 C 0.14858 0.86908 0.8577 0.0
C2355 C 0.12267 0.86338 0.81814 0.0
C2356 C 0.11176 0.87421 0.90284 0.0
C2357 C 0.12066 0.87288 0.89182 0.0
C2358 C 0.11537 0.90028 0.86323 0.0
C2359 C 0.13923 0.8721 0.83671 0.0
C2360 C 0.13648 0.87956 0.84883 0.0
C2361 C 0.11915 0.89125 0.88423 0.0
C2362 C 0.12666 0.88893 0.8721 0.0
H2363 H 0.17698 0.84579 0.81933 0.0
H2364 H 0.17446 0.86304 0.8382 0.0
H2365 H 0.11129 0.905 0.84525 0.0
H2366 H 0.09101 0.92747 0.90172 0.0
H2367 H 0.10794 0.9259 0.88275 0.0
loop_
_geom_bond_atom_site_label_1
_geom_bond_atom_site_label_2
_geom_bond_distance
_geom_bond_site_symmetry_2
_ccdc_geom_bond_type
C0 O1 1.306 . S
C0 O3 1.160 . S
O1 C0 1.306 . S
O1 Cd2 2.228 . S
Cd2 O1 2.228 . S
Cd2 O6 2.273 . S
Cd2 O10 2.277 . S
O3 C0 1.160 . S
O3 Cd4 2.203 . S
Cd4 O3 2.203 . S
Cd4 O6 2.411 . S
Cd4 O7 2.333 . S
Cd4 O8 2.352 . S
Cd4 O12 2.277 . S
Cd4 O13 2.356 . S
C5 O10 1.209 . S
C5 O12 1.226 . S
O6 Cd2 2.273 . S
O6 Cd4 2.411 . S
O6 C9 1.320 . S
O7 Cd4 2.333 . S
O7 C9 1.214 . S
O8 Cd4 2.352 . S
O8 C11 1.258 . S
C9 O6 1.320 . S
C9 O7 1.214 . S
O10 Cd2 2.277 . S
O10 C5 1.209 . S
C11 O8 1.258 . S
C11 O13 1.282 . S
O12 Cd4 2.277 . S
O12 C5 1.226 . S
O13 Cd4 2.356 . S
O13 C11 1.282 . S
C14 O15 1.306 . S
C14 O17 1.160 . S
O15 C14 1.306 . S
O15 Cd16 2.228 . S
Cd16 O15 2.228 . S
Cd16 O20 2.273 . S
Cd16 O24 2.277 . S
O17 C14 1.160 . S
O17 Cd18 2.203 . S
Cd18 O17 2.203 . S
Cd18 O20 2.411 . S
Cd18 O21 2.333 . S
Cd18 O22 2.352 . S
Cd18 O26 2.277 . S
Cd18 O27 2.356 . S
C19 O24 1.209 . S
C19 O26 1.226 . S
O20 Cd16 2.273 . S
O20 Cd18 2.411 . S
O20 C23 1.320 . S
O21 Cd18 2.333 . S
O21 C23 1.214 . S
O22 Cd18 2.352 . S
O22 C25 1.258 . S
C23 O20 1.320 . S
C23 O21 1.214 . S
O24 Cd16 2.277 . S
O24 C19 1.209 . S
C25 O22 1.258 . S
C25 O27 1.282 . S
O26 Cd18 2.277 . S
O26 C19 1.226 . S
O27 Cd18 2.356 . S
O27 C25 1.282 . S
C28 O29 1.306 . S
C28 O31 1.160 . S
O29 C28 1.306 . S
O29 Cd30 2.228 . S
Cd30 O29 2.228 . S
Cd30 O34 2.273 . S
Cd30 O38 2.277 . S
O31 C28 1.160 . S
O31 Cd32 2.203 . S
Cd32 O31 2.203 . S
Cd32 O34 2.411 . S
Cd32 O35 2.333 . S
Cd32 O36 2.352 . S
Cd32 O40 2.277 . S
Cd32 O41 2.356 . S
C33 O38 1.209 . S
C33 O40 1.226 . S
O34 Cd30 2.273 . S
O34 Cd32 2.411 . S
O34 C37 1.320 . S
O35 Cd32 2.333 . S
O35 C37 1.214 . S
O36 Cd32 2.352 . S
O36 C39 1.258 . S
C37 O34 1.320 . S
C37 O35 1.214 . S
O38 Cd30 2.277 . S
O38 C33 1.209 . S
C39 O36 1.258 . S
C39 O41 1.282 . S
O40 Cd32 2.277 . S
O40 C33 1.226 . S
O41 Cd32 2.356 . S
O41 C39 1.282 . S
C42 O43 1.306 . S
C42 O45 1.160 . S
O43 C42 1.306 . S
O43 Cd44 2.228 . S
Cd44 O43 2.228 . S
Cd44 O48 2.273 . S
Cd44 O52 2.277 . S
O45 C42 1.160 . S
O45 Cd46 2.203 . S
Cd46 O45 2.203 . S
Cd46 O48 2.411 . S
Cd46 O49 2.333 . S
Cd46 O50 2.352 . S
Cd46 O54 2.277 . S
Cd46 O55 2.356 . S
C47 O52 1.209 . S
C47 O54 1.226 . S
O48 Cd44 2.273 . S
O48 Cd46 2.411 . S
O48 C51 1.320 . S
O49 Cd46 2.333 . S
O49 C51 1.214 . S
O50 Cd46 2.352 . S
O50 C53 1.258 . S
C51 O48 1.320 . S
C51 O49 1.214 . S
O52 Cd44 2.277 . S
O52 C47 1.209 . S
C53 O50 1.258 . S
C53 O55 1.282 . S
O54 Cd46 2.277 . S
O54 C47 1.226 . S
O55 Cd46 2.356 . S
O55 C53 1.282 . S
C56 O57 1.306 . S
C56 O59 1.160 . S
O57 C56 1.306 . S
O57 Cd58 2.228 . S
Cd58 O57 2.228 . S
Cd58 O62 2.273 . S
Cd58 O66 2.277 . S
O59 C56 1.160 . S
O59 Cd60 2.203 . S
Cd60 O59 2.203 . S
Cd60 O62 2.411 . S
Cd60 O63 2.333 . S
Cd60 O64 2.352 . S
Cd60 O68 2.277 . S
Cd60 O69 2.356 . S
C61 O66 1.209 . S
C61 O68 1.226 . S
O62 Cd58 2.273 . S
O62 Cd60 2.411 . S
O62 C65 1.320 . S
O63 Cd60 2.333 . S
O63 C65 1.214 . S
O64 Cd60 2.352 . S
O64 C67 1.258 . S
C65 O62 1.320 . S
C65 O63 1.214 . S
O66 Cd58 2.277 . S
O66 C61 1.209 . S
C67 O64 1.258 . S
C67 O69 1.282 . S
O68 Cd60 2.277 . S
O68 C61 1.226 . S
O69 Cd60 2.356 . S
O69 C67 1.282 . S
C70 O71 1.306 . S
C70 O73 1.160 . S
O71 C70 1.306 . S
O71 Cd72 2.228 . S
Cd72 O71 2.228 . S
Cd72 O76 2.273 . S
Cd72 O80 2.277 . S
O73 C70 1.160 . S
O73 Cd74 2.203 . S
Cd74 O73 2.203 . S
Cd74 O76 2.411 . S
Cd74 O77 2.333 . S
Cd74 O78 2.352 . S
Cd74 O82 2.277 . S
Cd74 O83 2.356 . S
C75 O80 1.209 . S
C75 O82 1.226 . S
O76 Cd72 2.273 . S
O76 Cd74 2.411 . S
O76 C79 1.320 . S
O77 Cd74 2.333 . S
O77 C79 1.214 . S
O78 Cd74 2.352 . S
O78 C81 1.258 . S
C79 O76 1.320 . S
C79 O77 1.214 . S
O80 Cd72 2.277 . S
O80 C75 1.209 . S
C81 O78 1.258 . S
C81 O83 1.282 . S
O82 Cd74 2.277 . S
O82 C75 1.226 . S
O83 Cd74 2.356 . S
O83 C81 1.282 . S
C84 O85 1.306 . S
C84 O87 1.160 . S
O85 C84 1.306 . S
O85 Cd86 2.228 . S
Cd86 O85 2.228 . S
Cd86 O90 2.273 . S
Cd86 O94 2.277 . S
O87 C84 1.160 . S
O87 Cd88 2.203 . S
Cd88 O87 2.203 . S
Cd88 O90 2.411 . S
Cd88 O91 2.333 . S
Cd88 O92 2.352 . S
Cd88 O96 2.277 . S
Cd88 O97 2.356 . S
C89 O94 1.209 . S
C89 O96 1.226 . S
O90 Cd86 2.273 . S
O90 Cd88 2.411 . S
O90 C93 1.320 . S
O91 Cd88 2.333 . S
O91 C93 1.214 . S
O92 Cd88 2.352 . S
O92 C95 1.258 . S
C93 O90 1.320 . S
C93 O91 1.214 . S
O94 Cd86 2.277 . S
O94 C89 1.209 . S
C95 O92 1.258 . S
C95 O97 1.282 . S
O96 Cd88 2.277 . S
O96 C89 1.226 . S
O97 Cd88 2.356 . S
O97 C95 1.282 . S
C98 O99 1.306 . S
C98 O101 1.160 . S
O99 C98 1.306 . S
O99 Cd100 2.228 . S
Cd100 O99 2.228 . S
Cd100 O104 2.273 . S
Cd100 O108 2.277 . S
O101 C98 1.160 . S
O101 Cd102 2.203 . S
Cd102 O101 2.203 . S
Cd102 O104 2.411 . S
Cd102 O105 2.333 . S
Cd102 O106 2.352 . S
Cd102 O110 2.277 . S
Cd102 O111 2.356 . S
C103 O108 1.209 . S
C103 O110 1.226 . S
O104 Cd100 2.273 . S
O104 Cd102 2.411 . S
O104 C107 1.320 . S
O105 Cd102 2.333 . S
O105 C107 1.214 . S
O106 Cd102 2.352 . S
O106 C109 1.258 . S
C107 O104 1.320 . S
C107 O105 1.214 . S
O108 Cd100 2.277 . S
O108 C103 1.209 . S
C109 O106 1.258 . S
C109 O111 1.282 . S
O110 Cd102 2.277 . S
O110 C103 1.226 . S
O111 Cd102 2.356 . S
O111 C109 1.282 . S
C112 O113 1.306 . S
C112 O115 1.160 . S
O113 C112 1.306 . S
O113 Cd114 2.228 . S
Cd114 O113 2.228 . S
Cd114 O118 2.273 . S
Cd114 O122 2.277 . S
O115 C112 1.160 . S
O115 Cd116 2.203 . S
Cd116 O115 2.203 . S
Cd116 O118 2.411 . S
Cd116 O119 2.333 . S
Cd116 O120 2.352 . S
Cd116 O124 2.277 . S
Cd116 O125 2.356 . S
C117 O122 1.209 . S
C117 O124 1.226 . S
O118 Cd114 2.273 . S
O118 Cd116 2.411 . S
O118 C121 1.320 . S
O119 Cd116 2.333 . S
O119 C121 1.214 . S
O120 Cd116 2.352 . S
O120 C123 1.258 . S
C121 O118 1.320 . S
C121 O119 1.214 . S
O122 Cd114 2.277 . S
O122 C117 1.209 . S
C123 O120 1.258 . S
C123 O125 1.282 . S
O124 Cd116 2.277 . S
O124 C117 1.226 . S
O125 Cd116 2.356 . S
O125 C123 1.282 . S
C126 O127 1.306 . S
C126 O129 1.160 . S
O127 C126 1.306 . S
O127 Cd128 2.228 . S
Cd128 O127 2.228 . S
Cd128 O132 2.273 . S
Cd128 O136 2.277 . S
O129 C126 1.160 . S
O129 Cd130 2.203 . S
Cd130 O129 2.203 . S
Cd130 O132 2.411 . S
Cd130 O133 2.333 . S
Cd130 O134 2.352 . S
Cd130 O138 2.277 . S
Cd130 O139 2.356 . S
C131 O136 1.209 . S
C131 O138 1.226 . S
O132 Cd128 2.273 . S
O132 Cd130 2.411 . S
O132 C135 1.320 . S
O133 Cd130 2.333 . S
O133 C135 1.214 . S
O134 Cd130 2.352 . S
O134 C137 1.258 . S
C135 O132 1.320 . S
C135 O133 1.214 . S
O136 Cd128 2.277 . S
O136 C131 1.209 . S
C137 O134 1.258 . S
C137 O139 1.282 . S
O138 Cd130 2.277 . S
O138 C131 1.226 . S
O139 Cd130 2.356 . S
O139 C137 1.282 . S
C140 O141 1.306 . S
C140 O143 1.160 . S
O141 C140 1.306 . S
O141 Cd142 2.228 . S
Cd142 O141 2.228 . S
Cd142 O146 2.273 . S
Cd142 O150 2.277 . S
O143 C140 1.160 . S
O143 Cd144 2.203 . S
Cd144 O143 2.203 . S
Cd144 O146 2.411 . S
Cd144 O147 2.333 . S
Cd144 O148 2.352 . S
Cd144 O152 2.277 . S
Cd144 O153 2.356 . S
C145 O150 1.209 . S
C145 O152 1.226 . S
O146 Cd142 2.273 . S
O146 Cd144 2.411 . S
O146 C149 1.320 . S
O147 Cd144 2.333 . S
O147 C149 1.214 . S
O148 Cd144 2.352 . S
O148 C151 1.258 . S
C149 O146 1.320 . S
C149 O147 1.214 . S
O150 Cd142 2.277 . S
O150 C145 1.209 . S
C151 O148 1.258 . S
C151 O153 1.282 . S
O152 Cd144 2.277 . S
O152 C145 1.226 . S
O153 Cd144 2.356 . S
O153 C151 1.282 . S
C154 O155 1.306 . S
C154 O157 1.160 . S
O155 C154 1.306 . S
O155 Cd156 2.228 . S
Cd156 O155 2.228 . S
Cd156 O160 2.273 . S
Cd156 O164 2.277 . S
O157 C154 1.160 . S
O157 Cd158 2.203 . S
Cd158 O157 2.203 . S
Cd158 O160 2.411 . S
Cd158 O161 2.333 . S
Cd158 O162 2.352 . S
Cd158 O166 2.277 . S
Cd158 O167 2.356 . S
C159 O164 1.209 . S
C159 O166 1.226 . S
O160 Cd156 2.273 . S
O160 Cd158 2.411 . S
O160 C163 1.320 . S
O161 Cd158 2.333 . S
O161 C163 1.214 . S
O162 Cd158 2.352 . S
O162 C165 1.258 . S
C163 O160 1.320 . S
C163 O161 1.214 . S
O164 Cd156 2.277 . S
O164 C159 1.209 . S
C165 O162 1.258 . S
C165 O167 1.282 . S
O166 Cd158 2.277 . S
O166 C159 1.226 . S
O167 Cd158 2.356 . S
O167 C165 1.282 . S
C168 O169 1.306 . S
C168 O171 1.160 . S
O169 C168 1.306 . S
O169 Cd170 2.228 . S
Cd170 O169 2.228 . S
Cd170 O174 2.273 . S
Cd170 O178 2.277 . S
O171 C168 1.160 . S
O171 Cd172 2.203 . S
Cd172 O171 2.203 . S
Cd172 O174 2.411 . S
Cd172 O175 2.333 . S
Cd172 O176 2.352 . S
Cd172 O180 2.277 . S
Cd172 O181 2.356 . S
C173 O178 1.209 . S
C173 O180 1.226 . S
O174 Cd170 2.273 . S
O174 Cd172 2.411 . S
O174 C177 1.320 . S
O175 Cd172 2.333 . S
O175 C177 1.214 . S
O176 Cd172 2.352 . S
O176 C179 1.258 . S
C177 O174 1.320 . S
C177 O175 1.214 . S
O178 Cd170 2.277 . S
O178 C173 1.209 . S
C179 O176 1.258 . S
C179 O181 1.282 . S
O180 Cd172 2.277 . S
O180 C173 1.226 . S
O181 Cd172 2.356 . S
O181 C179 1.282 . S
C182 O183 1.306 . S
C182 O185 1.160 . S
O183 C182 1.306 . S
O183 Cd184 2.228 . S
Cd184 O183 2.228 . S
Cd184 O188 2.273 . S
Cd184 O192 2.277 . S
O185 C182 1.160 . S
O185 Cd186 2.203 . S
Cd186 O185 2.203 . S
Cd186 O188 2.411 . S
Cd186 O189 2.333 . S
Cd186 O190 2.352 . S
Cd186 O194 2.277 . S
Cd186 O195 2.356 . S
C187 O192 1.209 . S
C187 O194 1.226 . S
O188 Cd184 2.273 . S
O188 Cd186 2.411 . S
O188 C191 1.320 . S
O189 Cd186 2.333 . S
O189 C191 1.214 . S
O190 Cd186 2.352 . S
O190 C193 1.258 . S
C191 O188 1.320 . S
C191 O189 1.214 . S
O192 Cd184 2.277 . S
O192 C187 1.209 . S
C193 O190 1.258 . S
C193 O195 1.282 . S
O194 Cd186 2.277 . S
O194 C187 1.226 . S
O195 Cd186 2.356 . S
O195 C193 1.282 . S
C196 O197 1.306 . S
C196 O199 1.160 . S
O197 C196 1.306 . S
O197 Cd198 2.228 . S
Cd198 O197 2.228 . S
Cd198 O202 2.273 . S
Cd198 O206 2.277 . S
O199 C196 1.160 . S
O199 Cd200 2.203 . S
Cd200 O199 2.203 . S
Cd200 O202 2.411 . S
Cd200 O203 2.333 . S
Cd200 O204 2.352 . S
Cd200 O208 2.277 . S
Cd200 O209 2.356 . S
C201 O206 1.209 . S
C201 O208 1.226 . S
O202 Cd198 2.273 . S
O202 Cd200 2.411 . S
O202 C205 1.320 . S
O203 Cd200 2.333 . S
O203 C205 1.214 . S
O204 Cd200 2.352 . S
O204 C207 1.258 . S
C205 O202 1.320 . S
C205 O203 1.214 . S
O206 Cd198 2.277 . S
O206 C201 1.209 . S
C207 O204 1.258 . S
C207 O209 1.282 . S
O208 Cd200 2.277 . S
O208 C201 1.226 . S
O209 Cd200 2.356 . S
O209 C207 1.282 . S
C210 O211 1.306 . S
C210 O213 1.160 . S
O211 C210 1.306 . S
O211 Cd212 2.228 . S
Cd212 O211 2.228 . S
Cd212 O216 2.273 . S
Cd212 O220 2.277 . S
O213 C210 1.160 . S
O213 Cd214 2.203 . S
Cd214 O213 2.203 . S
Cd214 O216 2.411 . S
Cd214 O217 2.333 . S
Cd214 O218 2.352 . S
Cd214 O222 2.277 . S
Cd214 O223 2.356 . S
C215 O220 1.209 . S
C215 O222 1.226 . S
O216 Cd212 2.273 . S
O216 Cd214 2.411 . S
O216 C219 1.320 . S
O217 Cd214 2.333 . S
O217 C219 1.214 . S
O218 Cd214 2.352 . S
O218 C221 1.258 . S
C219 O216 1.320 . S
C219 O217 1.214 . S
O220 Cd212 2.277 . S
O220 C215 1.209 . S
C221 O218 1.258 . S
C221 O223 1.282 . S
O222 Cd214 2.277 . S
O222 C215 1.226 . S
O223 Cd214 2.356 . S
O223 C221 1.282 . S
C224 O225 1.306 . S
C224 O227 1.160 . S
O225 C224 1.306 . S
O225 Cd226 2.228 . S
Cd226 O225 2.228 . S
Cd226 O230 2.273 . S
Cd226 O234 2.277 . S
O227 C224 1.160 . S
O227 Cd228 2.203 . S
Cd228 O227 2.203 . S
Cd228 O230 2.411 . S
Cd228 O231 2.333 . S
Cd228 O232 2.352 . S
Cd228 O236 2.277 . S
Cd228 O237 2.356 . S
C229 O234 1.209 . S
C229 O236 1.226 . S
O230 Cd226 2.273 . S
O230 Cd228 2.411 . S
O230 C233 1.320 . S
O231 Cd228 2.333 . S
O231 C233 1.214 . S
O232 Cd228 2.352 . S
O232 C235 1.258 . S
C233 O230 1.320 . S
C233 O231 1.214 . S
O234 Cd226 2.277 . S
O234 C229 1.209 . S
C235 O232 1.258 . S
C235 O237 1.282 . S
O236 Cd228 2.277 . S
O236 C229 1.226 . S
O237 Cd228 2.356 . S
O237 C235 1.282 . S
C238 O239 1.306 . S
C238 O241 1.160 . S
O239 C238 1.306 . S
O239 Cd240 2.228 . S
Cd240 O239 2.228 . S
Cd240 O244 2.273 . S
Cd240 O248 2.277 . S
O241 C238 1.160 . S
O241 Cd242 2.203 . S
Cd242 O241 2.203 . S
Cd242 O244 2.411 . S
Cd242 O245 2.333 . S
Cd242 O246 2.352 . S
Cd242 O250 2.277 . S
Cd242 O251 2.356 . S
C243 O248 1.209 . S
C243 O250 1.226 . S
O244 Cd240 2.273 . S
O244 Cd242 2.411 . S
O244 C247 1.320 . S
O245 Cd242 2.333 . S
O245 C247 1.214 . S
O246 Cd242 2.352 . S
O246 C249 1.258 . S
C247 O244 1.320 . S
C247 O245 1.214 . S
O248 Cd240 2.277 . S
O248 C243 1.209 . S
C249 O246 1.258 . S
C249 O251 1.282 . S
O250 Cd242 2.277 . S
O250 C243 1.226 . S
O251 Cd242 2.356 . S
O251 C249 1.282 . S
C252 O253 1.306 . S
C252 O255 1.160 . S
O253 C252 1.306 . S
O253 Cd254 2.228 . S
Cd254 O253 2.228 . S
Cd254 O258 2.273 . S
Cd254 O262 2.277 . S
O255 C252 1.160 . S
O255 Cd256 2.203 . S
Cd256 O255 2.203 . S
Cd256 O258 2.411 . S
Cd256 O259 2.333 . S
Cd256 O260 2.352 . S
Cd256 O264 2.277 . S
Cd256 O265 2.356 . S
C257 O262 1.209 . S
C257 O264 1.226 . S
O258 Cd254 2.273 . S
O258 Cd256 2.411 . S
O258 C261 1.320 . S
O259 Cd256 2.333 . S
O259 C261 1.214 . S
O260 Cd256 2.352 . S
O260 C263 1.258 . S
C261 O258 1.320 . S
C261 O259 1.214 . S
O262 Cd254 2.277 . S
O262 C257 1.209 . S
C263 O260 1.258 . S
C263 O265 1.282 . S
O264 Cd256 2.277 . S
O264 C257 1.226 . S
O265 Cd256 2.356 . S
O265 C263 1.282 . S
C266 O267 1.306 . S
C266 O269 1.160 . S
O267 C266 1.306 . S
O267 Cd268 2.228 . S
Cd268 O267 2.228 . S
Cd268 O272 2.273 . S
Cd268 O276 2.277 . S
O269 C266 1.160 . S
O269 Cd270 2.203 . S
Cd270 O269 2.203 . S
Cd270 O272 2.411 . S
Cd270 O273 2.333 . S
Cd270 O274 2.352 . S
Cd270 O278 2.277 . S
Cd270 O279 2.356 . S
C271 O276 1.209 . S
C271 O278 1.226 . S
O272 Cd268 2.273 . S
O272 Cd270 2.411 . S
O272 C275 1.320 . S
O273 Cd270 2.333 . S
O273 C275 1.214 . S
O274 Cd270 2.352 . S
O274 C277 1.258 . S
C275 O272 1.320 . S
C275 O273 1.214 . S
O276 Cd268 2.277 . S
O276 C271 1.209 . S
C277 O274 1.258 . S
C277 O279 1.282 . S
O278 Cd270 2.277 . S
O278 C271 1.226 . S
O279 Cd270 2.356 . S
O279 C277 1.282 . S
C280 O281 1.306 . S
C280 O283 1.160 . S
O281 C280 1.306 . S
O281 Cd282 2.228 . S
Cd282 O281 2.228 . S
Cd282 O286 2.273 . S
Cd282 O290 2.277 . S
O283 C280 1.160 . S
O283 Cd284 2.203 . S
Cd284 O283 2.203 . S
Cd284 O286 2.411 . S
Cd284 O287 2.333 . S
Cd284 O288 2.352 . S
Cd284 O292 2.277 . S
Cd284 O293 2.356 . S
C285 O290 1.209 . S
C285 O292 1.226 . S
O286 Cd282 2.273 . S
O286 Cd284 2.411 . S
O286 C289 1.320 . S
O287 Cd284 2.333 . S
O287 C289 1.214 . S
O288 Cd284 2.352 . S
O288 C291 1.258 . S
C289 O286 1.320 . S
C289 O287 1.214 . S
O290 Cd282 2.277 . S
O290 C285 1.209 . S
C291 O288 1.258 . S
C291 O293 1.282 . S
O292 Cd284 2.277 . S
O292 C285 1.226 . S
O293 Cd284 2.356 . S
O293 C291 1.282 . S
C294 O295 1.306 . S
C294 O297 1.160 . S
O295 C294 1.306 . S
O295 Cd296 2.228 . S
Cd296 O295 2.228 . S
Cd296 O300 2.273 . S
Cd296 O304 2.277 . S
O297 C294 1.160 . S
O297 Cd298 2.203 . S
Cd298 O297 2.203 . S
Cd298 O300 2.411 . S
Cd298 O301 2.333 . S
Cd298 O302 2.352 . S
Cd298 O306 2.277 . S
Cd298 O307 2.356 . S
C299 O304 1.209 . S
C299 O306 1.226 . S
O300 Cd296 2.273 . S
O300 Cd298 2.411 . S
O300 C303 1.320 . S
O301 Cd298 2.333 . S
O301 C303 1.214 . S
O302 Cd298 2.352 . S
O302 C305 1.258 . S
C303 O300 1.320 . S
C303 O301 1.214 . S
O304 Cd296 2.277 . S
O304 C299 1.209 . S
C305 O302 1.258 . S
C305 O307 1.282 . S
O306 Cd298 2.277 . S
O306 C299 1.226 . S
O307 Cd298 2.356 . S
O307 C305 1.282 . S
C308 O309 1.306 . S
C308 O311 1.160 . S
O309 C308 1.306 . S
O309 Cd310 2.228 . S
Cd310 O309 2.228 . S
Cd310 O314 2.273 . S
Cd310 O318 2.277 . S
O311 C308 1.160 . S
O311 Cd312 2.203 . S
Cd312 O311 2.203 . S
Cd312 O314 2.411 . S
Cd312 O315 2.333 . S
Cd312 O316 2.352 . S
Cd312 O320 2.277 . S
Cd312 O321 2.356 . S
C313 O318 1.209 . S
C313 O320 1.226 . S
O314 Cd310 2.273 . S
O314 Cd312 2.411 . S
O314 C317 1.320 . S
O315 Cd312 2.333 . S
O315 C317 1.214 . S
O316 Cd312 2.352 . S
O316 C319 1.258 . S
C317 O314 1.320 . S
C317 O315 1.214 . S
O318 Cd310 2.277 . S
O318 C313 1.209 . S
C319 O316 1.258 . S
C319 O321 1.282 . S
O320 Cd312 2.277 . S
O320 C313 1.226 . S
O321 Cd312 2.356 . S
O321 C319 1.282 . S
C322 O323 1.306 . S
C322 O325 1.160 . S
O323 C322 1.306 . S
O323 Cd324 2.228 . S
Cd324 O323 2.228 . S
Cd324 O328 2.273 . S
Cd324 O332 2.277 . S
O325 C322 1.160 . S
O325 Cd326 2.203 . S
Cd326 O325 2.203 . S
Cd326 O328 2.411 . S
Cd326 O329 2.333 . S
Cd326 O330 2.352 . S
Cd326 O334 2.277 . S
Cd326 O335 2.356 . S
C327 O332 1.209 . S
C327 O334 1.226 . S
O328 Cd324 2.273 . S
O328 Cd326 2.411 . S
O328 C331 1.320 . S
O329 Cd326 2.333 . S
O329 C331 1.214 . S
O330 Cd326 2.352 . S
O330 C333 1.258 . S
C331 O328 1.320 . S
C331 O329 1.214 . S
O332 Cd324 2.277 . S
O332 C327 1.209 . S
C333 O330 1.258 . S
C333 O335 1.282 . S
O334 Cd326 2.277 . S
O334 C327 1.226 . S
O335 Cd326 2.356 . S
O335 C333 1.282 . S
C336 O337 1.306 . S
C336 O339 1.160 . S
O337 C336 1.306 . S
O337 Cd338 2.228 . S
Cd338 O337 2.228 . S
Cd338 O342 2.273 . S
Cd338 O346 2.277 . S
O339 C336 1.160 . S
O339 Cd340 2.203 . S
Cd340 O339 2.203 . S
Cd340 O342 2.411 . S
Cd340 O343 2.333 . S
Cd340 O344 2.352 . S
Cd340 O348 2.277 . S
Cd340 O349 2.356 . S
C341 O346 1.209 . S
C341 O348 1.226 . S
O342 Cd338 2.273 . S
O342 Cd340 2.411 . S
O342 C345 1.320 . S
O343 Cd340 2.333 . S
O343 C345 1.214 . S
O344 Cd340 2.352 . S
O344 C347 1.258 . S
C345 O342 1.320 . S
C345 O343 1.214 . S
O346 Cd338 2.277 . S
O346 C341 1.209 . S
C347 O344 1.258 . S
C347 O349 1.282 . S
O348 Cd340 2.277 . S
O348 C341 1.226 . S
O349 Cd340 2.356 . S
O349 C347 1.282 . S
C350 O351 1.306 . S
C350 O353 1.160 . S
O351 C350 1.306 . S
O351 Cd352 2.228 . S
Cd352 O351 2.228 . S
Cd352 O356 2.273 . S
Cd352 O360 2.277 . S
O353 C350 1.160 . S
O353 Cd354 2.203 . S
Cd354 O353 2.203 . S
Cd354 O356 2.411 . S
Cd354 O357 2.333 . S
Cd354 O358 2.352 . S
Cd354 O362 2.277 . S
Cd354 O363 2.356 . S
C355 O360 1.209 . S
C355 O362 1.226 . S
O356 Cd352 2.273 . S
O356 Cd354 2.411 . S
O356 C359 1.320 . S
O357 Cd354 2.333 . S
O357 C359 1.214 . S
O358 Cd354 2.352 . S
O358 C361 1.258 . S
C359 O356 1.320 . S
C359 O357 1.214 . S
O360 Cd352 2.277 . S
O360 C355 1.209 . S
C361 O358 1.258 . S
C361 O363 1.282 . S
O362 Cd354 2.277 . S
O362 C355 1.226 . S
O363 Cd354 2.356 . S
O363 C361 1.282 . S
C364 O365 1.306 . S
C364 O367 1.160 . S
O365 C364 1.306 . S
O365 Cd366 2.228 . S
Cd366 O365 2.228 . S
Cd366 O370 2.273 . S
Cd366 O374 2.277 . S
O367 C364 1.160 . S
O367 Cd368 2.203 . S
Cd368 O367 2.203 . S
Cd368 O370 2.411 . S
Cd368 O371 2.333 . S
Cd368 O372 2.352 . S
Cd368 O376 2.277 . S
Cd368 O377 2.356 . S
C369 O374 1.209 . S
C369 O376 1.226 . S
O370 Cd366 2.273 . S
O370 Cd368 2.411 . S
O370 C373 1.320 . S
O371 Cd368 2.333 . S
O371 C373 1.214 . S
O372 Cd368 2.352 . S
O372 C375 1.258 . S
C373 O370 1.320 . S
C373 O371 1.214 . S
O374 Cd366 2.277 . S
O374 C369 1.209 . S
C375 O372 1.258 . S
C375 O377 1.282 . S
O376 Cd368 2.277 . S
O376 C369 1.226 . S
O377 Cd368 2.356 . S
O377 C375 1.282 . S
C378 O379 1.306 . S
C378 O381 1.160 . S
O379 C378 1.306 . S
O379 Cd380 2.228 . S
Cd380 O379 2.228 . S
Cd380 O384 2.273 . S
Cd380 O388 2.277 . S
O381 C378 1.160 . S
O381 Cd382 2.203 . S
Cd382 O381 2.203 . S
Cd382 O384 2.411 . S
Cd382 O385 2.333 . S
Cd382 O386 2.352 . S
Cd382 O390 2.277 . S
Cd382 O391 2.356 . S
C383 O388 1.209 . S
C383 O390 1.226 . S
O384 Cd380 2.273 . S
O384 Cd382 2.411 . S
O384 C387 1.320 . S
O385 Cd382 2.333 . S
O385 C387 1.214 . S
O386 Cd382 2.352 . S
O386 C389 1.258 . S
C387 O384 1.320 . S
C387 O385 1.214 . S
O388 Cd380 2.277 . S
O388 C383 1.209 . S
C389 O386 1.258 . S
C389 O391 1.282 . S
O390 Cd382 2.277 . S
O390 C383 1.226 . S
O391 Cd382 2.356 . S
O391 C389 1.282 . S
C392 O393 1.306 . S
C392 O395 1.160 . S
O393 C392 1.306 . S
O393 Cd394 2.228 . S
Cd394 O393 2.228 . S
Cd394 O398 2.273 . S
Cd394 O402 2.277 . S
O395 C392 1.160 . S
O395 Cd396 2.203 . S
Cd396 O395 2.203 . S
Cd396 O398 2.411 . S
Cd396 O399 2.333 . S
Cd396 O400 2.352 . S
Cd396 O404 2.277 . S
Cd396 O405 2.356 . S
C397 O402 1.209 . S
C397 O404 1.226 . S
O398 Cd394 2.273 . S
O398 Cd396 2.411 . S
O398 C401 1.320 . S
O399 Cd396 2.333 . S
O399 C401 1.214 . S
O400 Cd396 2.352 . S
O400 C403 1.258 . S
C401 O398 1.320 . S
C401 O399 1.214 . S
O402 Cd394 2.277 . S
O402 C397 1.209 . S
C403 O400 1.258 . S
C403 O405 1.282 . S
O404 Cd396 2.277 . S
O404 C397 1.226 . S
O405 Cd396 2.356 . S
O405 C403 1.282 . S
C406 O407 1.306 . S
C406 O409 1.160 . S
O407 C406 1.306 . S
O407 Cd408 2.228 . S
Cd408 O407 2.228 . S
Cd408 O412 2.273 . S
Cd408 O416 2.277 . S
O409 C406 1.160 . S
O409 Cd410 2.203 . S
Cd410 O409 2.203 . S
Cd410 O412 2.411 . S
Cd410 O413 2.333 . S
Cd410 O414 2.352 . S
Cd410 O418 2.277 . S
Cd410 O419 2.356 . S
C411 O416 1.209 . S
C411 O418 1.226 . S
O412 Cd408 2.273 . S
O412 Cd410 2.411 . S
O412 C415 1.320 . S
O413 Cd410 2.333 . S
O413 C415 1.214 . S
O414 Cd410 2.352 . S
O414 C417 1.258 . S
C415 O412 1.320 . S
C415 O413 1.214 . S
O416 Cd408 2.277 . S
O416 C411 1.209 . S
C417 O414 1.258 . S
C417 O419 1.282 . S
O418 Cd410 2.277 . S
O418 C411 1.226 . S
O419 Cd410 2.356 . S
O419 C417 1.282 . S
C420 O421 1.306 . S
C420 O423 1.160 . S
O421 C420 1.306 . S
O421 Cd422 2.228 . S
Cd422 O421 2.228 . S
Cd422 O426 2.273 . S
Cd422 O430 2.277 . S
O423 C420 1.160 . S
O423 Cd424 2.203 . S
Cd424 O423 2.203 . S
Cd424 O426 2.411 . S
Cd424 O427 2.333 . S
Cd424 O428 2.352 . S
Cd424 O432 2.277 . S
Cd424 O433 2.356 . S
C425 O430 1.209 . S
C425 O432 1.226 . S
O426 Cd422 2.273 . S
O426 Cd424 2.411 . S
O426 C429 1.320 . S
O427 Cd424 2.333 . S
O427 C429 1.214 . S
O428 Cd424 2.352 . S
O428 C431 1.258 . S
C429 O426 1.320 . S
C429 O427 1.214 . S
O430 Cd422 2.277 . S
O430 C425 1.209 . S
C431 O428 1.258 . S
C431 O433 1.282 . S
O432 Cd424 2.277 . S
O432 C425 1.226 . S
O433 Cd424 2.356 . S
O433 C431 1.282 . S
C434 O435 1.306 . S
C434 O437 1.160 . S
O435 C434 1.306 . S
O435 Cd436 2.228 . S
Cd436 O435 2.228 . S
Cd436 O440 2.273 . S
Cd436 O444 2.277 . S
O437 C434 1.160 . S
O437 Cd438 2.203 . S
Cd438 O437 2.203 . S
Cd438 O440 2.411 . S
Cd438 O441 2.333 . S
Cd438 O442 2.352 . S
Cd438 O446 2.277 . S
Cd438 O447 2.356 . S
C439 O444 1.209 . S
C439 O446 1.226 . S
O440 Cd436 2.273 . S
O440 Cd438 2.411 . S
O440 C443 1.320 . S
O441 Cd438 2.333 . S
O441 C443 1.214 . S
O442 Cd438 2.352 . S
O442 C445 1.258 . S
C443 O440 1.320 . S
C443 O441 1.214 . S
O444 Cd436 2.277 . S
O444 C439 1.209 . S
C445 O442 1.258 . S
C445 O447 1.282 . S
O446 Cd438 2.277 . S
O446 C439 1.226 . S
O447 Cd438 2.356 . S
O447 C445 1.282 . S
C448 C449 1.349 . S
C448 C450 1.327 . S
C448 H473 0.950 . S
C449 C448 1.349 . S
C449 C465 1.349 . S
C450 C448 1.327 . S
C450 C469 1.429 . S
C450 H474 0.950 . S
C451 C468 1.574 . S
C451 C470 1.368 1_554 S
C451 H475 0.949 . S
H452 C456 0.949 . S
C453 C454 1.349 . S
C453 C455 1.327 . S
C453 H476 0.950 . S
C454 C453 1.349 . S
C454 C466 1.349 . S
C455 C453 1.327 . S
C455 C471 1.429 . S
C455 H477 0.950 . S
C456 H452 0.949 . S
C456 C464 1.574 . S
C456 C472 1.368 1_556 S
H457 C465 0.950 . S
H458 C463 0.950 1_554 S
H459 C464 0.949 . S
H460 C466 0.950 . S
H461 C467 0.950 1_556 S
H462 C468 0.949 . S
C463 H458 0.950 1_556 S
C463 C465 1.327 . S
C463 C469 1.429 . S
C464 C456 1.574 . S
C464 H459 0.949 . S
C464 C470 1.368 1_455 S
C465 C449 1.349 . S
C465 H457 0.950 . S
C465 C463 1.327 . S
C466 C454 1.349 . S
C466 H460 0.950 . S
C466 C467 1.327 . S
C467 H461 0.950 1_554 S
C467 C466 1.327 . S
C467 C471 1.429 . S
C468 C451 1.574 . S
C468 H462 0.949 . S
C468 C472 1.368 1_655 S
C469 C450 1.429 . S
C469 C463 1.429 . S
C469 C470 1.523 . S
C470 C451 1.368 1_556 S
C470 C464 1.368 1_655 S
C470 C469 1.523 . S
C471 C455 1.429 . S
C471 C467 1.429 . S
C471 C472 1.523 . S
C472 C456 1.368 1_554 S
C472 C468 1.368 1_455 S
C472 C471 1.523 . S
H473 C448 0.950 . S
H474 C450 0.950 . S
H475 C451 0.949 . S
H476 C453 0.950 . S
H477 C455 0.950 . S
C478 C479 1.349 . S
C478 C480 1.327 . S
C478 H503 0.950 . S
C479 C478 1.349 . S
C479 C495 1.349 . S
C480 C478 1.327 . S
C480 C499 1.429 . S
C480 H504 0.950 . S
C481 C498 1.574 . S
C481 C500 1.368 . S
C481 H505 0.949 . S
H482 C486 0.949 . S
C483 C484 1.349 . S
C483 C485 1.327 . S
C483 H506 0.950 . S
C484 C483 1.349 . S
C484 C496 1.349 . S
C485 C483 1.327 . S
C485 C501 1.429 . S
C485 H507 0.950 . S
C486 H482 0.949 . S
C486 C494 1.574 . S
C486 C502 1.368 . S
H487 C495 0.950 . S
H488 C493 0.950 . S
H489 C494 0.949 . S
H490 C496 0.950 . S
H491 C497 0.950 . S
H492 C498 0.949 . S
C493 H488 0.950 . S
C493 C495 1.327 . S
C493 C499 1.429 . S
C494 C486 1.574 . S
C494 H489 0.949 . S
C494 C500 1.368 . S
C495 C479 1.349 . S
C495 H487 0.950 . S
C495 C493 1.327 . S
C496 C484 1.349 . S
C496 H490 0.950 . S
C496 C497 1.327 . S
C497 H491 0.950 . S
C497 C496 1.327 . S
C497 C501 1.429 . S
C498 C481 1.574 . S
C498 H492 0.949 . S
C498 C502 1.368 . S
C499 C480 1.429 . S
C499 C493 1.429 . S
C499 C500 1.523 . S
C500 C481 1.368 . S
C500 C494 1.368 . S
C500 C499 1.523 . S
C501 C485 1.429 . S
C501 C497 1.429 . S
C501 C502 1.523 . S
C502 C486 1.368 . S
C502 C498 1.368 . S
C502 C501 1.523 . S
H503 C478 0.950 . S
H504 C480 0.950 . S
H505 C481 0.949 . S
H506 C483 0.950 . S
H507 C485 0.950 . S
C508 C509 1.349 . S
C508 C510 1.327 . S
C508 H533 0.950 . S
C509 C508 1.349 . S
C509 C525 1.349 . S
C510 C508 1.327 . S
C510 C529 1.429 . S
C510 H534 0.950 . S
C511 C528 1.574 . S
C511 C530 1.368 . S
C511 H535 0.949 . S
H512 C516 0.949 . S
C513 C514 1.349 . S
C513 C515 1.327 . S
C513 H536 0.950 . S
C514 C513 1.349 . S
C514 C526 1.349 . S
C515 C513 1.327 . S
C515 C531 1.429 . S
C515 H537 0.950 . S
C516 H512 0.949 . S
C516 C524 1.574 . S
C516 C532 1.368 . S
H517 C525 0.950 . S
H518 C523 0.950 . S
H519 C524 0.949 . S
H520 C526 0.950 . S
H521 C527 0.950 . S
H522 C528 0.949 . S
C523 H518 0.950 . S
C523 C525 1.327 . S
C523 C529 1.429 . S
C524 C516 1.574 . S
C524 H519 0.949 . S
C524 C530 1.368 . S
C525 C509 1.349 . S
C525 H517 0.950 . S
C525 C523 1.327 . S
C526 C514 1.349 . S
C526 H520 0.950 . S
C526 C527 1.327 . S
C527 H521 0.950 . S
C527 C526 1.327 . S
C527 C531 1.429 . S
C528 C511 1.574 . S
C528 H522 0.949 . S
C528 C532 1.368 . S
C529 C510 1.429 . S
C529 C523 1.429 . S
C529 C530 1.523 . S
C530 C511 1.368 . S
C530 C524 1.368 . S
C530 C529 1.523 . S
C531 C515 1.429 . S
C531 C527 1.429 . S
C531 C532 1.523 . S
C532 C516 1.368 . S
C532 C528 1.368 . S
C532 C531 1.523 . S
H533 C508 0.950 . S
H534 C510 0.950 . S
H535 C511 0.949 . S
H536 C513 0.950 . S
H537 C515 0.950 . S
C538 C539 1.349 . S
C538 C540 1.327 . S
C538 H563 0.950 . S
C539 C538 1.349 . S
C539 C555 1.349 . S
C540 C538 1.327 . S
C540 C559 1.429 . S
C540 H564 0.950 . S
C541 C558 1.574 . S
C541 C560 1.368 . S
C541 H565 0.949 . S
H542 C546 0.949 . S
C543 C544 1.349 . S
C543 C545 1.327 . S
C543 H566 0.950 . S
C544 C543 1.349 . S
C544 C556 1.349 . S
C545 C543 1.327 . S
C545 C561 1.429 . S
C545 H567 0.950 . S
C546 H542 0.949 . S
C546 C554 1.574 . S
C546 C562 1.368 . S
H547 C555 0.950 . S
H548 C553 0.950 . S
H549 C554 0.949 . S
H550 C556 0.950 . S
H551 C557 0.950 . S
H552 C558 0.949 . S
C553 H548 0.950 . S
C553 C555 1.327 . S
C553 C559 1.429 . S
C554 C546 1.574 . S
C554 H549 0.949 . S
C554 C560 1.368 . S
C555 C539 1.349 . S
C555 H547 0.950 . S
C555 C553 1.327 . S
C556 C544 1.349 . S
C556 H550 0.950 . S
C556 C557 1.327 . S
C557 H551 0.950 . S
C557 C556 1.327 . S
C557 C561 1.429 . S
C558 C541 1.574 . S
C558 H552 0.949 . S
C558 C562 1.368 . S
C559 C540 1.429 . S
C559 C553 1.429 . S
C559 C560 1.523 . S
C560 C541 1.368 . S
C560 C554 1.368 . S
C560 C559 1.523 . S
C561 C545 1.429 . S
C561 C557 1.429 . S
C561 C562 1.523 . S
C562 C546 1.368 . S
C562 C558 1.368 . S
C562 C561 1.523 . S
H563 C538 0.950 . S
H564 C540 0.950 . S
H565 C541 0.949 . S
H566 C543 0.950 . S
H567 C545 0.950 . S
C568 C569 1.349 . S
C568 C570 1.327 . S
C568 H593 0.950 . S
C569 C568 1.349 . S
C569 C585 1.349 . S
C570 C568 1.327 . S
C570 C589 1.429 . S
C570 H594 0.950 . S
C571 C588 1.574 . S
C571 C590 1.368 1_455 S
C571 H595 0.949 . S
H572 C576 0.949 . S
C573 C574 1.349 . S
C573 C575 1.327 . S
C573 H596 0.950 . S
C574 C573 1.349 . S
C574 C586 1.349 . S
C575 C573 1.327 . S
C575 C591 1.429 . S
C575 H597 0.950 . S
C576 H572 0.949 . S
C576 C584 1.574 . S
C576 C592 1.368 1_655 S
H577 C585 0.950 . S
H578 C583 0.950 . S
H579 C584 0.949 . S
H580 C586 0.950 . S
H581 C587 0.950 . S
H582 C588 0.949 . S
C583 H578 0.950 . S
C583 C585 1.327 . S
C583 C589 1.429 . S
C584 C576 1.574 . S
C584 H579 0.949 . S
C584 C590 1.368 . S
C585 C569 1.349 . S
C585 H577 0.950 . S
C585 C583 1.327 . S
C586 C574 1.349 . S
C586 H580 0.950 . S
C586 C587 1.327 . S
C587 H581 0.950 . S
C587 C586 1.327 . S
C587 C591 1.429 . S
C588 C571 1.574 . S
C588 H582 0.949 . S
C588 C592 1.368 . S
C589 C570 1.429 . S
C589 C583 1.429 . S
C589 C590 1.523 . S
C590 C571 1.368 1_655 S
C590 C584 1.368 . S
C590 C589 1.523 . S
C591 C575 1.429 . S
C591 C587 1.429 . S
C591 C592 1.523 . S
C592 C576 1.368 1_455 S
C592 C588 1.368 . S
C592 C591 1.523 . S
H593 C568 0.950 . S
H594 C570 0.950 . S
H595 C571 0.949 . S
H596 C573 0.950 . S
H597 C575 0.950 . S
C598 C599 1.349 . S
C598 C600 1.327 . S
C598 H623 0.950 . S
C599 C598 1.349 . S
C599 C615 1.349 . S
C600 C598 1.327 . S
C600 C619 1.429 . S
C600 H624 0.950 . S
C601 C618 1.574 . S
C601 C620 1.368 . S
C601 H625 0.949 . S
H602 C606 0.949 . S
C603 C604 1.349 . S
C603 C605 1.327 . S
C603 H626 0.950 . S
C604 C603 1.349 . S
C604 C616 1.349 . S
C605 C603 1.327 . S
C605 C621 1.429 . S
C605 H627 0.950 . S
C606 H602 0.949 . S
C606 C614 1.574 . S
C606 C622 1.368 . S
H607 C615 0.950 . S
H608 C613 0.950 . S
H609 C614 0.949 . S
H610 C616 0.950 . S
H611 C617 0.950 . S
H612 C618 0.949 . S
C613 H608 0.950 . S
C613 C615 1.327 . S
C613 C619 1.429 . S
C614 C606 1.574 . S
C614 H609 0.949 . S
C614 C620 1.368 . S
C615 C599 1.349 . S
C615 H607 0.950 . S
C615 C613 1.327 . S
C616 C604 1.349 . S
C616 H610 0.950 . S
C616 C617 1.327 . S
C617 H611 0.950 . S
C617 C616 1.327 . S
C617 C621 1.429 . S
C618 C601 1.574 . S
C618 H612 0.949 . S
C618 C622 1.368 . S
C619 C600 1.429 . S
C619 C613 1.429 . S
C619 C620 1.523 . S
C620 C601 1.368 . S
C620 C614 1.368 . S
C620 C619 1.523 . S
C621 C605 1.429 . S
C621 C617 1.429 . S
C621 C622 1.523 . S
C622 C606 1.368 . S
C622 C618 1.368 . S
C622 C621 1.523 . S
H623 C598 0.950 . S
H624 C600 0.950 . S
H625 C601 0.949 . S
H626 C603 0.950 . S
H627 C605 0.950 . S
C628 C629 1.349 . S
C628 C630 1.327 . S
C628 H653 0.950 . S
C629 C628 1.349 . S
C629 C645 1.349 . S
C630 C628 1.327 . S
C630 C649 1.429 . S
C630 H654 0.950 . S
C631 C648 1.574 . S
C631 C650 1.368 1_554 S
C631 H655 0.949 . S
H632 C636 0.949 . S
C633 C634 1.349 . S
C633 C635 1.327 . S
C633 H656 0.950 . S
C634 C633 1.349 . S
C634 C646 1.349 . S
C635 C633 1.327 . S
C635 C651 1.429 . S
C635 H657 0.950 . S
C636 H632 0.949 . S
C636 C644 1.574 . S
C636 C652 1.368 1_556 S
H637 C645 0.950 . S
H638 C643 1.006 . S
H639 C644 0.949 . S
H640 C646 0.950 . S
H641 C647 1.006 . S
H642 C648 0.949 . S
C643 H638 1.006 . S
C643 C645 1.327 . S
C643 C649 1.429 . S
C644 C636 1.574 . S
C644 H639 0.949 . S
C644 C650 1.368 . S
C645 C629 1.349 . S
C645 H637 0.950 . S
C645 C643 1.327 . S
C646 C634 1.349 . S
C646 H640 0.950 . S
C646 C647 1.327 . S
C647 H641 1.006 . S
C647 C646 1.327 . S
C647 C651 1.429 . S
C648 C631 1.574 . S
C648 H642 0.949 . S
C648 C652 1.368 . S
C649 C630 1.429 . S
C649 C643 1.429 . S
C649 C650 1.523 . S
C650 C631 1.368 1_556 S
C650 C644 1.368 . S
C650 C649 1.523 . S
C651 C635 1.429 . S
C651 C647 1.429 . S
C651 C652 1.523 . S
C652 C636 1.368 1_554 S
C652 C648 1.368 . S
C652 C651 1.523 . S
H653 C628 0.950 . S
H654 C630 0.950 . S
H655 C631 0.949 . S
H656 C633 0.950 . S
H657 C635 0.950 . S
C658 C659 1.349 . S
C658 C660 1.327 . S
C658 H683 0.950 . S
C659 C658 1.349 . S
C659 C675 1.349 . S
C660 C658 1.327 . S
C660 C679 1.429 . S
C660 H684 0.950 . S
C661 C678 1.574 . S
C661 C680 1.368 . S
C661 H685 0.949 . S
H662 C666 0.949 . S
C663 C664 1.349 . S
C663 C665 1.327 . S
C663 H686 0.950 . S
C664 C663 1.349 . S
C664 C676 1.349 . S
C665 C663 1.327 . S
C665 C681 1.429 . S
C665 H687 0.950 . S
C666 H662 0.949 . S
C666 C674 1.574 . S
C666 C682 1.368 . S
H667 C675 0.950 . S
H668 C673 0.950 . S
H669 C674 0.949 . S
H670 C676 0.950 . S
H671 C677 0.950 . S
H672 C678 0.949 . S
C673 H668 0.950 . S
C673 C675 1.327 . S
C673 C679 1.429 . S
C674 C666 1.574 . S
C674 H669 0.949 . S
C674 C680 1.368 . S
C675 C659 1.349 . S
C675 H667 0.950 . S
C675 C673 1.327 . S
C676 C664 1.349 . S
C676 H670 0.950 . S
C676 C677 1.327 . S
C677 H671 0.950 . S
C677 C676 1.327 . S
C677 C681 1.429 . S
C678 C661 1.574 . S
C678 H672 0.949 . S
C678 C682 1.368 . S
C679 C660 1.429 . S
C679 C673 1.429 . S
C679 C680 1.523 . S
C680 C661 1.368 . S
C680 C674 1.368 . S
C680 C679 1.523 . S
C681 C665 1.429 . S
C681 C677 1.429 . S
C681 C682 1.523 . S
C682 C666 1.368 . S
C682 C678 1.368 . S
C682 C681 1.523 . S
H683 C658 0.950 . S
H684 C660 0.950 . S
H685 C661 0.949 . S
H686 C663 0.950 . S
H687 C665 0.950 . S
C688 C689 1.349 . S
C688 C690 1.327 . S
C688 H713 0.950 . S
C689 C688 1.349 . S
C689 C705 1.349 . S
C690 C688 1.327 . S
C690 C709 1.429 . S
C690 H714 0.950 . S
C691 C708 1.574 . S
C691 C710 1.368 . S
C691 H715 0.949 . S
H692 C696 0.949 . S
C693 C694 1.349 . S
C693 C695 1.327 . S
C693 H716 0.950 . S
C694 C693 1.349 . S
C694 C706 1.349 . S
C695 C693 1.327 . S
C695 C711 1.429 . S
C695 H717 0.950 . S
C696 H692 0.949 . S
C696 C704 1.574 . S
C696 C712 1.368 . S
H697 C705 0.950 . S
H698 C703 0.950 . S
H699 C704 0.949 . S
H700 C706 0.950 . S
H701 C707 0.950 . S
H702 C708 0.949 . S
C703 H698 0.950 . S
C703 C705 1.327 . S
C703 C709 1.429 . S
C704 C696 1.574 . S
C704 H699 0.949 . S
C704 C710 1.368 . S
C705 C689 1.349 . S
C705 H697 0.950 . S
C705 C703 1.327 . S
C706 C694 1.349 . S
C706 H700 0.950 . S
C706 C707 1.327 . S
C707 H701 0.950 . S
C707 C706 1.327 . S
C707 C711 1.429 . S
C708 C691 1.574 . S
C708 H702 0.949 . S
C708 C712 1.368 . S
C709 C690 1.429 . S
C709 C703 1.429 . S
C709 C710 1.523 . S
C710 C691 1.368 . S
C710 C704 1.368 . S
C710 C709 1.523 . S
C711 C695 1.429 . S
C711 C707 1.429 . S
C711 C712 1.523 . S
C712 C696 1.368 . S
C712 C708 1.368 . S
C712 C711 1.523 . S
H713 C688 0.950 . S
H714 C690 0.950 . S
H715 C691 0.949 . S
H716 C693 0.950 . S
H717 C695 0.950 . S
C718 C719 1.349 . S
C718 C720 1.327 . S
C718 H743 0.950 . S
C719 C718 1.349 . S
C719 C735 1.349 . S
C720 C718 1.327 . S
C720 C739 1.429 . S
C720 H744 0.950 . S
C721 C738 1.574 . S
C721 C740 1.368 . S
C721 H745 0.949 . S
H722 C726 0.949 . S
C723 C724 1.349 . S
C723 C725 1.327 . S
C723 H746 0.950 . S
C724 C723 1.349 . S
C724 C736 1.349 . S
C725 C723 1.327 . S
C725 C741 1.429 . S
C725 H747 0.950 . S
C726 H722 0.949 . S
C726 C734 1.574 . S
C726 C742 1.368 . S
H727 C735 0.950 . S
H728 C733 0.950 . S
H729 C734 0.949 . S
H730 C736 0.950 . S
H731 C737 0.950 . S
H732 C738 0.949 . S
C733 H728 0.950 . S
C733 C735 1.327 . S
C733 C739 1.429 . S
C734 C726 1.574 . S
C734 H729 0.949 . S
C734 C740 1.368 . S
C735 C719 1.349 . S
C735 H727 0.950 . S
C735 C733 1.327 . S
C736 C724 1.349 . S
C736 H730 0.950 . S
C736 C737 1.327 . S
C737 H731 0.950 . S
C737 C736 1.327 . S
C737 C741 1.429 . S
C738 C721 1.574 . S
C738 H732 0.949 . S
C738 C742 1.368 . S
C739 C720 1.429 . S
C739 C733 1.429 . S
C739 C740 1.523 . S
C740 C721 1.368 . S
C740 C734 1.368 . S
C740 C739 1.523 . S
C741 C725 1.429 . S
C741 C737 1.429 . S
C741 C742 1.523 . S
C742 C726 1.368 . S
C742 C738 1.368 . S
C742 C741 1.523 . S
H743 C718 0.950 . S
H744 C720 0.950 . S
H745 C721 0.949 . S
H746 C723 0.950 . S
H747 C725 0.950 . S
C748 C749 1.349 . S
C748 C750 1.327 . S
C748 H773 0.950 . S
C749 C748 1.349 . S
C749 C765 1.349 . S
C750 C748 1.327 . S
C750 C769 1.429 . S
C750 H774 0.950 . S
C751 C768 1.574 . S
C751 C770 1.368 . S
C751 H775 0.949 . S
H752 C756 0.949 . S
C753 C754 1.349 . S
C753 C755 1.327 . S
C753 H776 0.950 . S
C754 C753 1.349 . S
C754 C766 1.349 . S
C755 C753 1.327 . S
C755 C771 1.429 . S
C755 H777 0.950 . S
C756 H752 0.949 . S
C756 C764 1.574 . S
C756 C772 1.368 . S
H757 C765 0.950 . S
H758 C763 0.950 . S
H759 C764 0.949 . S
H760 C766 0.950 . S
H761 C767 0.950 . S
H762 C768 0.949 . S
C763 H758 0.950 . S
C763 C765 1.327 . S
C763 C769 1.429 . S
C764 C756 1.574 . S
C764 H759 0.949 . S
C764 C770 1.368 . S
C765 C749 1.349 . S
C765 H757 0.950 . S
C765 C763 1.327 . S
C766 C754 1.349 . S
C766 H760 0.950 . S
C766 C767 1.327 . S
C767 H761 0.950 . S
C767 C766 1.327 . S
C767 C771 1.429 . S
C768 C751 1.574 . S
C768 H762 0.949 . S
C768 C772 1.368 . S
C769 C750 1.429 . S
C769 C763 1.429 . S
C769 C770 1.523 . S
C770 C751 1.368 . S
C770 C764 1.368 . S
C770 C769 1.523 . S
C771 C755 1.429 . S
C771 C767 1.429 . S
C771 C772 1.523 . S
C772 C756 1.368 . S
C772 C768 1.368 . S
C772 C771 1.523 . S
H773 C748 0.950 . S
H774 C750 0.950 . S
H775 C751 0.949 . S
H776 C753 0.950 . S
H777 C755 0.950 . S
C778 C779 1.349 . S
C778 C780 1.327 . S
C778 H803 0.950 . S
C779 C778 1.349 . S
C779 C795 1.349 . S
C780 C778 1.327 . S
C780 C799 1.429 . S
C780 H804 0.950 . S
C781 C798 1.574 . S
C781 C800 1.368 . S
C781 H805 0.949 . S
H782 C786 0.949 . S
C783 C784 1.349 . S
C783 C785 1.327 . S
C783 H806 0.950 . S
C784 C783 1.349 . S
C784 C796 1.349 . S
C785 C783 1.327 . S
C785 C801 1.429 . S
C785 H807 0.950 . S
C786 H782 0.949 . S
C786 C794 1.574 . S
C786 C802 1.368 . S
H787 C795 0.950 . S
H788 C793 0.950 . S
H789 C794 0.949 . S
H790 C796 0.950 . S
H791 C797 0.950 . S
H792 C798 0.949 . S
C793 H788 0.950 . S
C793 C795 1.327 . S
C793 C799 1.429 . S
C794 C786 1.574 . S
C794 H789 0.949 . S
C794 C800 1.368 . S
C795 C779 1.349 . S
C795 H787 0.950 . S
C795 C793 1.327 . S
C796 C784 1.349 . S
C796 H790 0.950 . S
C796 C797 1.327 . S
C797 H791 0.950 . S
C797 C796 1.327 . S
C797 C801 1.429 . S
C798 C781 1.574 . S
C798 H792 0.949 . S
C798 C802 1.368 . S
C799 C780 1.429 . S
C799 C793 1.429 . S
C799 C800 1.523 . S
C800 C781 1.368 . S
C800 C794 1.368 . S
C800 C799 1.523 . S
C801 C785 1.429 . S
C801 C797 1.429 . S
C801 C802 1.523 . S
C802 C786 1.368 . S
C802 C798 1.368 . S
C802 C801 1.523 . S
H803 C778 0.950 . S
H804 C780 0.950 . S
H805 C781 0.949 . S
H806 C783 0.950 . S
H807 C785 0.950 . S
C808 C809 1.349 . S
C808 C810 1.327 . S
C808 H833 0.950 . S
C809 C808 1.349 . S
C809 C825 1.349 . S
C810 C808 1.327 . S
C810 C829 1.429 . S
C810 H834 0.950 . S
C811 C828 1.574 1_565 S
C811 C830 1.368 . S
C811 H835 0.949 . S
H812 C816 0.949 . S
C813 C814 1.349 . S
C813 C815 1.327 . S
C813 H836 0.950 . S
C814 C813 1.349 . S
C814 C826 1.349 . S
C815 C813 1.327 . S
C815 C831 1.429 . S
C815 H837 0.950 . S
C816 H812 0.949 . S
C816 C824 1.574 1_545 S
C816 C832 1.368 . S
H817 C825 0.950 . S
H818 C823 0.950 . S
H819 C824 0.949 . S
H820 C826 0.950 . S
H821 C827 0.950 . S
H822 C828 0.949 . S
C823 H818 0.950 . S
C823 C825 1.327 . S
C823 C829 1.429 . S
C824 C816 1.574 1_565 S
C824 H819 0.949 . S
C824 C830 1.368 . S
C825 C809 1.349 . S
C825 H817 0.950 . S
C825 C823 1.327 . S
C826 C814 1.349 . S
C826 H820 0.950 . S
C826 C827 1.327 . S
C827 H821 0.950 . S
C827 C826 1.327 . S
C827 C831 1.429 . S
C828 C811 1.574 1_545 S
C828 H822 0.949 . S
C828 C832 1.368 . S
C829 C810 1.429 . S
C829 C823 1.429 . S
C829 C830 1.523 . S
C830 C811 1.368 . S
C830 C824 1.368 . S
C830 C829 1.523 . S
C831 C815 1.429 . S
C831 C827 1.429 . S
C831 C832 1.523 . S
C832 C816 1.368 . S
C832 C828 1.368 . S
C832 C831 1.523 . S
H833 C808 0.950 . S
H834 C810 0.950 . S
H835 C811 0.949 . S
H836 C813 0.950 . S
H837 C815 0.950 . S
C838 C839 1.349 . S
C838 C840 1.327 . S
C838 H863 0.950 . S
C839 C838 1.349 . S
C839 C855 1.349 . S
C840 C838 1.327 . S
C840 C859 1.429 . S
C840 H864 0.950 . S
C841 C858 1.574 1_565 S
C841 C860 1.368 1_554 S
C841 H865 0.949 . S
H842 C846 0.949 . S
C843 C844 1.349 . S
C843 C845 1.327 . S
C843 H866 0.950 . S
C844 C843 1.349 . S
C844 C856 1.349 . S
C845 C843 1.327 . S
C845 C861 1.429 . S
C845 H867 0.950 . S
C846 H842 0.949 . S
C846 C854 1.574 1_545 S
C846 C862 1.368 1_556 S
H847 C855 0.950 . S
H848 C853 0.950 . S
H849 C854 0.949 . S
H850 C856 0.950 . S
H851 C857 0.950 . S
H852 C858 0.949 . S
C853 H848 0.950 . S
C853 C855 1.327 . S
C853 C859 1.429 . S
C854 C846 1.574 1_565 S
C854 H849 0.949 . S
C854 C860 1.368 1_655 S
C855 C839 1.349 . S
C855 H847 0.950 . S
C855 C853 1.327 . S
C856 C844 1.349 . S
C856 H850 0.950 . S
C856 C857 1.327 . S
C857 H851 0.950 . S
C857 C856 1.327 . S
C857 C861 1.429 . S
C858 C841 1.574 1_545 S
C858 H852 0.949 . S
C858 C862 1.368 1_455 S
C859 C840 1.429 . S
C859 C853 1.429 . S
C859 C860 1.523 . S
C860 C841 1.368 1_556 S
C860 C854 1.368 1_455 S
C860 C859 1.523 . S
C861 C845 1.429 . S
C861 C857 1.429 . S
C861 C862 1.523 . S
C862 C846 1.368 1_554 S
C862 C858 1.368 1_655 S
C862 C861 1.523 . S
H863 C838 0.950 . S
H864 C840 0.950 . S
H865 C841 0.949 . S
H866 C843 0.950 . S
H867 C845 0.950 . S
C868 C869 1.349 . S
C868 C870 1.327 . S
C868 H893 0.950 . S
C869 C868 1.349 . S
C869 C885 1.349 . S
C870 C868 1.327 . S
C870 C889 1.429 . S
C870 H894 0.950 . S
C871 C888 1.574 . S
C871 C890 1.368 1_554 S
C871 H895 0.949 . S
H872 C876 0.949 . S
C873 C874 1.349 . S
C873 C875 1.327 . S
C873 H896 0.950 . S
C874 C873 1.349 . S
C874 C886 1.349 . S
C875 C873 1.327 . S
C875 C891 1.429 . S
C875 H897 0.950 . S
C876 H872 0.949 . S
C876 C884 1.574 . S
C876 C892 1.368 1_556 S
H877 C885 0.950 . S
H878 C883 0.950 . S
H879 C884 0.949 . S
H880 C886 0.950 . S
H881 C887 0.950 . S
H882 C888 0.949 . S
C883 H878 0.950 . S
C883 C885 1.327 . S
C883 C889 1.429 . S
C884 C876 1.574 . S
C884 H879 0.949 . S
C884 C890 1.368 1_565 S
C885 C869 1.349 . S
C885 H877 0.950 . S
C885 C883 1.327 . S
C886 C874 1.349 . S
C886 H880 0.950 . S
C886 C887 1.327 . S
C887 H881 0.950 . S
C887 C886 1.327 . S
C887 C891 1.429 . S
C888 C871 1.574 . S
C888 H882 0.949 . S
C888 C892 1.368 1_545 S
C889 C870 1.429 . S
C889 C883 1.429 . S
C889 C890 1.523 . S
C890 C871 1.368 1_556 S
C890 C884 1.368 1_545 S
C890 C889 1.523 . S
C891 C875 1.429 . S
C891 C887 1.429 . S
C891 C892 1.523 . S
C892 C876 1.368 1_554 S
C892 C888 1.368 1_565 S
C892 C891 1.523 . S
H893 C868 0.950 . S
H894 C870 0.950 . S
H895 C871 0.949 . S
H896 C873 0.950 . S
H897 C875 0.950 . S
C898 C899 1.349 . S
C898 C900 1.327 . S
C898 H923 0.950 . S
C899 C898 1.349 . S
C899 C915 1.349 . S
C900 C898 1.327 . S
C900 C919 1.429 . S
C900 H924 0.950 . S
C901 C918 1.574 . S
C901 C920 1.368 1_655 S
C901 H925 0.949 . S
H902 C906 0.949 . S
C903 C904 1.349 . S
C903 C905 1.327 . S
C903 H926 0.950 . S
C904 C903 1.349 . S
C904 C916 1.349 . S
C905 C903 1.327 . S
C905 C921 1.429 . S
C905 H927 0.950 . S
C906 H902 0.949 . S
C906 C914 1.574 . S
C906 C922 1.368 1_455 S
H907 C915 0.950 . S
H908 C913 0.950 . S
H909 C914 0.949 . S
H910 C916 0.950 . S
H911 C917 0.950 . S
H912 C918 0.949 . S
C913 H908 0.950 . S
C913 C915 1.327 . S
C913 C919 1.429 . S
C914 C906 1.574 . S
C914 H909 0.949 . S
C914 C920 1.368 1_565 S
C915 C899 1.349 . S
C915 H907 0.950 . S
C915 C913 1.327 . S
C916 C904 1.349 . S
C916 H910 0.950 . S
C916 C917 1.327 . S
C917 H911 0.950 . S
C917 C916 1.327 . S
C917 C921 1.429 . S
C918 C901 1.574 . S
C918 H912 0.949 . S
C918 C922 1.368 1_545 S
C919 C900 1.429 . S
C919 C913 1.429 . S
C919 C920 1.523 . S
C920 C901 1.368 1_455 S
C920 C914 1.368 1_545 S
C920 C919 1.523 . S
C921 C905 1.429 . S
C921 C917 1.429 . S
C921 C922 1.523 . S
C922 C906 1.368 1_655 S
C922 C918 1.368 1_565 S
C922 C921 1.523 . S
H923 C898 0.950 . S
H924 C900 0.950 . S
H925 C901 0.949 . S
H926 C903 0.950 . S
H927 C905 0.950 . S
C928 C929 1.349 . S
C928 C930 1.327 . S
C928 H953 0.950 . S
C929 C928 1.349 . S
C929 C945 1.349 . S
C930 C928 1.327 . S
C930 C949 1.429 . S
C930 H954 0.950 . S
C931 C948 1.574 . S
C931 C950 1.368 . S
C931 H955 0.949 . S
H932 C936 0.949 . S
C933 C934 1.349 . S
C933 C935 1.327 . S
C933 H956 0.950 . S
C934 C933 1.349 . S
C934 C946 1.349 . S
C935 C933 1.327 . S
C935 C951 1.429 . S
C935 H957 0.950 . S
C936 H932 0.949 . S
C936 C944 1.574 . S
C936 C952 1.368 . S
H937 C945 0.950 . S
H938 C943 0.950 . S
H939 C944 0.949 . S
H940 C946 0.950 . S
H941 C947 0.950 . S
H942 C948 0.949 . S
C943 H938 0.950 . S
C943 C945 1.327 . S
C943 C949 1.429 . S
C944 C936 1.574 . S
C944 H939 0.949 . S
C944 C950 1.368 1_455 S
C945 C929 1.349 . S
C945 H937 0.950 . S
C945 C943 1.327 . S
C946 C934 1.349 . S
C946 H940 0.950 . S
C946 C947 1.327 . S
C947 H941 0.950 . S
C947 C946 1.327 . S
C947 C951 1.429 . S
C948 C931 1.574 . S
C948 H942 0.949 . S
C948 C952 1.368 1_655 S
C949 C930 1.429 . S
C949 C943 1.429 . S
C949 C950 1.523 . S
C950 C931 1.368 . S
C950 C944 1.368 1_655 S
C950 C949 1.523 . S
C951 C935 1.429 . S
C951 C947 1.429 . S
C951 C952 1.523 . S
C952 C936 1.368 . S
C952 C948 1.368 1_455 S
C952 C951 1.523 . S
H953 C928 0.950 . S
H954 C930 0.950 . S
H955 C931 0.949 . S
H956 C933 0.950 . S
H957 C935 0.950 . S
C958 C959 1.349 . S
C958 C960 1.327 . S
C958 H983 0.950 . S
C959 C958 1.349 . S
C959 C975 1.349 . S
C960 C958 1.327 . S
C960 C979 1.429 . S
C960 H984 0.950 . S
C961 C978 1.574 1_455 S
C961 C980 1.368 . S
C961 H985 0.949 . S
H962 C966 0.949 . S
C963 C964 1.349 . S
C963 C965 1.327 . S
C963 H986 0.950 . S
C964 C963 1.349 . S
C964 C976 1.349 . S
C965 C963 1.327 . S
C965 C981 1.429 . S
C965 H987 0.950 . S
C966 H962 0.949 . S
C966 C974 1.574 1_655 S
C966 C982 1.368 . S
H967 C975 0.950 . S
H968 C973 0.950 . S
H969 C974 0.949 . S
H970 C976 0.950 . S
H971 C977 0.950 . S
H972 C978 0.949 . S
C973 H968 0.950 . S
C973 C975 1.327 . S
C973 C979 1.429 . S
C974 C966 1.574 1_455 S
C974 H969 0.949 . S
C974 C980 1.368 . S
C975 C959 1.349 . S
C975 H967 0.950 . S
C975 C973 1.327 . S
C976 C964 1.349 . S
C976 H970 0.950 . S
C976 C977 1.327 . S
C977 H971 0.950 . S
C977 C976 1.327 . S
C977 C981 1.429 . S
C978 C961 1.574 1_655 S
C978 H972 0.949 . S
C978 C982 1.368 . S
C979 C960 1.429 . S
C979 C973 1.429 . S
C979 C980 1.523 . S
C980 C961 1.368 . S
C980 C974 1.368 . S
C980 C979 1.523 . S
C981 C965 1.429 . S
C981 C977 1.429 . S
C981 C982 1.523 . S
C982 C966 1.368 . S
C982 C978 1.368 . S
C982 C981 1.523 . S
H983 C958 0.950 . S
H984 C960 0.950 . S
H985 C961 0.949 . S
H986 C963 0.950 . S
H987 C965 0.950 . S
C988 C989 1.349 . S
C988 C990 1.327 . S
C988 H1013 0.950 . S
C989 C988 1.349 . S
C989 C1005 1.349 . S
C990 C988 1.327 . S
C990 C1009 1.429 . S
C990 H1014 0.950 . S
C991 C1008 1.574 . S
C991 C1010 1.368 . S
C991 H1015 0.949 . S
H992 C996 0.949 . S
C993 C994 1.349 . S
C993 C995 1.327 . S
C993 H1016 0.950 . S
C994 C993 1.349 . S
C994 C1006 1.349 . S
C995 C993 1.327 . S
C995 C1011 1.429 . S
C995 H1017 0.950 . S
C996 H992 0.949 . S
C996 C1004 1.574 . S
C996 C1012 1.368 . S
H997 C1005 0.950 . S
H998 C1003 0.950 . S
H999 C1004 0.949 . S
H1000 C1006 0.950 . S
H1001 C1007 0.950 . S
H1002 C1008 0.949 . S
C1003 H998 0.950 . S
C1003 C1005 1.327 . S
C1003 C1009 1.429 . S
C1004 C996 1.574 . S
C1004 H999 0.949 . S
C1004 C1010 1.368 . S
C1005 C989 1.349 . S
C1005 H997 0.950 . S
C1005 C1003 1.327 . S
C1006 C994 1.349 . S
C1006 H1000 0.950 . S
C1006 C1007 1.327 . S
C1007 H1001 0.950 . S
C1007 C1006 1.327 . S
C1007 C1011 1.429 . S
C1008 C991 1.574 . S
C1008 H1002 0.949 . S
C1008 C1012 1.368 . S
C1009 C990 1.429 . S
C1009 C1003 1.429 . S
C1009 C1010 1.523 . S
C1010 C991 1.368 . S
C1010 C1004 1.368 . S
C1010 C1009 1.523 . S
C1011 C995 1.429 . S
C1011 C1007 1.429 . S
C1011 C1012 1.523 . S
C1012 C996 1.368 . S
C1012 C1008 1.368 . S
C1012 C1011 1.523 . S
H1013 C988 0.950 . S
H1014 C990 0.950 . S
H1015 C991 0.949 . S
H1016 C993 0.950 . S
H1017 C995 0.950 . S
C1018 C1019 1.349 . S
C1018 C1020 1.327 . S
C1018 H1043 0.950 . S
C1019 C1018 1.349 . S
C1019 C1035 1.349 . S
C1020 C1018 1.327 . S
C1020 C1039 1.429 . S
C1020 H1044 0.950 . S
C1021 C1038 1.574 . S
C1021 C1040 1.368 . S
C1021 H1045 0.949 . S
H1022 C1026 0.949 . S
C1023 C1024 1.349 . S
C1023 C1025 1.327 . S
C1023 H1046 0.950 . S
C1024 C1023 1.349 . S
C1024 C1036 1.349 . S
C1025 C1023 1.327 . S
C1025 C1041 1.429 . S
C1025 H1047 0.950 . S
C1026 H1022 0.949 . S
C1026 C1034 1.574 . S
C1026 C1042 1.368 . S
H1027 C1035 0.950 . S
H1028 C1033 0.950 . S
H1029 C1034 0.949 . S
H1030 C1036 0.950 . S
H1031 C1037 0.950 . S
H1032 C1038 0.949 . S
C1033 H1028 0.950 . S
C1033 C1035 1.327 . S
C1033 C1039 1.429 . S
C1034 C1026 1.574 . S
C1034 H1029 0.949 . S
C1034 C1040 1.368 . S
C1035 C1019 1.349 . S
C1035 H1027 0.950 . S
C1035 C1033 1.327 . S
C1036 C1024 1.349 . S
C1036 H1030 0.950 . S
C1036 C1037 1.327 . S
C1037 H1031 0.950 . S
C1037 C1036 1.327 . S
C1037 C1041 1.429 . S
C1038 C1021 1.574 . S
C1038 H1032 0.949 . S
C1038 C1042 1.368 . S
C1039 C1020 1.429 . S
C1039 C1033 1.429 . S
C1039 C1040 1.523 . S
C1040 C1021 1.368 . S
C1040 C1034 1.368 . S
C1040 C1039 1.523 . S
C1041 C1025 1.429 . S
C1041 C1037 1.429 . S
C1041 C1042 1.523 . S
C1042 C1026 1.368 . S
C1042 C1038 1.368 . S
C1042 C1041 1.523 . S
H1043 C1018 0.950 . S
H1044 C1020 0.950 . S
H1045 C1021 0.949 . S
H1046 C1023 0.950 . S
H1047 C1025 0.950 . S
C1048 C1049 1.349 . S
C1048 C1050 1.327 . S
C1048 H1073 0.950 . S
C1049 C1048 1.349 . S
C1049 C1065 1.349 . S
C1050 C1048 1.327 . S
C1050 C1069 1.429 . S
C1050 H1074 0.950 . S
C1051 C1068 1.574 . S
C1051 C1070 1.368 1_455 S
C1051 H1075 0.949 . S
H1052 C1056 0.949 . S
C1053 C1054 1.349 . S
C1053 C1055 1.327 . S
C1053 H1076 0.950 . S
C1054 C1053 1.349 . S
C1054 C1066 1.349 . S
C1055 C1053 1.327 . S
C1055 C1071 1.429 . S
C1055 H1077 0.950 . S
C1056 H1052 0.949 . S
C1056 C1064 1.574 . S
C1056 C1072 1.368 1_655 S
H1057 C1065 0.950 . S
H1058 C1063 0.950 . S
H1059 C1064 0.949 . S
H1060 C1066 0.950 . S
H1061 C1067 0.950 . S
H1062 C1068 0.949 . S
C1063 H1058 0.950 . S
C1063 C1065 1.327 . S
C1063 C1069 1.429 . S
C1064 C1056 1.574 . S
C1064 H1059 0.949 . S
C1064 C1070 1.368 . S
C1065 C1049 1.349 . S
C1065 H1057 0.950 . S
C1065 C1063 1.327 . S
C1066 C1054 1.349 . S
C1066 H1060 0.950 . S
C1066 C1067 1.327 . S
C1067 H1061 0.950 . S
C1067 C1066 1.327 . S
C1067 C1071 1.429 . S
C1068 C1051 1.574 . S
C1068 H1062 0.949 . S
C1068 C1072 1.368 . S
C1069 C1050 1.429 . S
C1069 C1063 1.429 . S
C1069 C1070 1.523 . S
C1070 C1051 1.368 1_655 S
C1070 C1064 1.368 . S
C1070 C1069 1.523 . S
C1071 C1055 1.429 . S
C1071 C1067 1.429 . S
C1071 C1072 1.523 . S
C1072 C1056 1.368 1_455 S
C1072 C1068 1.368 . S
C1072 C1071 1.523 . S
H1073 C1048 0.950 . S
H1074 C1050 0.950 . S
H1075 C1051 0.949 . S
H1076 C1053 0.950 . S
H1077 C1055 0.950 . S
C1078 C1079 1.349 . S
C1078 C1080 1.327 . S
C1078 H1103 0.950 . S
C1079 C1078 1.349 . S
C1079 C1095 1.349 . S
C1080 C1078 1.327 . S
C1080 C1099 1.429 . S
C1080 H1104 0.950 . S
C1081 C1098 1.574 . S
C1081 C1100 1.368 . S
C1081 H1105 0.949 . S
H1082 C1086 0.949 . S
C1083 C1084 1.349 . S
C1083 C1085 1.327 . S
C1083 H1106 0.950 . S
C1084 C1083 1.349 . S
C1084 C1096 1.349 . S
C1085 C1083 1.327 . S
C1085 C1101 1.429 . S
C1085 H1107 0.950 . S
C1086 H1082 0.949 . S
C1086 C1094 1.574 . S
C1086 C1102 1.368 . S
H1087 C1095 0.950 . S
H1088 C1093 0.950 . S
H1089 C1094 0.949 . S
H1090 C1096 0.950 . S
H1091 C1097 0.950 . S
H1092 C1098 0.949 . S
C1093 H1088 0.950 . S
C1093 C1095 1.327 . S
C1093 C1099 1.429 . S
C1094 C1086 1.574 . S
C1094 H1089 0.949 . S
C1094 C1100 1.368 . S
C1095 C1079 1.349 . S
C1095 H1087 0.950 . S
C1095 C1093 1.327 . S
C1096 C1084 1.349 . S
C1096 H1090 0.950 . S
C1096 C1097 1.327 . S
C1097 H1091 0.950 . S
C1097 C1096 1.327 . S
C1097 C1101 1.429 . S
C1098 C1081 1.574 . S
C1098 H1092 0.949 . S
C1098 C1102 1.368 . S
C1099 C1080 1.429 . S
C1099 C1093 1.429 . S
C1099 C1100 1.523 . S
C1100 C1081 1.368 . S
C1100 C1094 1.368 . S
C1100 C1099 1.523 . S
C1101 C1085 1.429 . S
C1101 C1097 1.429 . S
C1101 C1102 1.523 . S
C1102 C1086 1.368 . S
C1102 C1098 1.368 . S
C1102 C1101 1.523 . S
H1103 C1078 0.950 . S
H1104 C1080 0.950 . S
H1105 C1081 0.949 . S
H1106 C1083 0.950 . S
H1107 C1085 0.950 . S
C1108 C1109 1.349 . S
C1108 C1110 1.327 . S
C1108 H1133 0.950 . S
C1109 C1108 1.349 . S
C1109 C1125 1.349 . S
C1110 C1108 1.327 . S
C1110 C1129 1.429 . S
C1110 H1134 0.950 . S
C1111 C1128 1.574 . S
C1111 C1130 1.368 . S
C1111 H1135 0.949 . S
H1112 C1116 0.949 . S
C1113 C1114 1.349 . S
C1113 C1115 1.327 . S
C1113 H1136 0.950 . S
C1114 C1113 1.349 . S
C1114 C1126 1.349 . S
C1115 C1113 1.327 . S
C1115 C1131 1.429 . S
C1115 H1137 0.950 . S
C1116 H1112 0.949 . S
C1116 C1124 1.574 . S
C1116 C1132 1.368 . S
H1117 C1125 0.950 . S
H1118 C1123 0.950 . S
H1119 C1124 0.949 . S
H1120 C1126 0.950 . S
H1121 C1127 0.950 . S
H1122 C1128 0.949 . S
C1123 H1118 0.950 . S
C1123 C1125 1.327 . S
C1123 C1129 1.429 . S
C1124 C1116 1.574 . S
C1124 H1119 0.949 . S
C1124 C1130 1.368 . S
C1125 C1109 1.349 . S
C1125 H1117 0.950 . S
C1125 C1123 1.327 . S
C1126 C1114 1.349 . S
C1126 H1120 0.950 . S
C1126 C1127 1.327 . S
C1127 H1121 0.950 . S
C1127 C1126 1.327 . S
C1127 C1131 1.429 . S
C1128 C1111 1.574 . S
C1128 H1122 0.949 . S
C1128 C1132 1.368 . S
C1129 C1110 1.429 . S
C1129 C1123 1.429 . S
C1129 C1130 1.523 . S
C1130 C1111 1.368 . S
C1130 C1124 1.368 . S
C1130 C1129 1.523 . S
C1131 C1115 1.429 . S
C1131 C1127 1.429 . S
C1131 C1132 1.523 . S
C1132 C1116 1.368 . S
C1132 C1128 1.368 . S
C1132 C1131 1.523 . S
H1133 C1108 0.950 . S
H1134 C1110 0.950 . S
H1135 C1111 0.949 . S
H1136 C1113 0.950 . S
H1137 C1115 0.950 . S
C1138 C1139 1.349 . S
C1138 C1140 1.327 . S
C1138 H1163 0.950 . S
C1139 C1138 1.349 . S
C1139 C1155 1.349 . S
C1140 C1138 1.327 . S
C1140 C1159 1.429 . S
C1140 H1164 0.950 . S
C1141 C1158 1.574 1_455 S
C1141 C1160 1.368 . S
C1141 H1165 0.949 . S
H1142 C1146 0.949 . S
C1143 C1144 1.349 . S
C1143 C1145 1.327 . S
C1143 H1166 0.950 . S
C1144 C1143 1.349 . S
C1144 C1156 1.349 . S
C1145 C1143 1.327 . S
C1145 C1161 1.429 . S
C1145 H1167 0.950 . S
C1146 H1142 0.949 . S
C1146 C1154 1.574 1_655 S
C1146 C1162 1.368 . S
H1147 C1155 0.950 . S
H1148 C1153 0.950 . S
H1149 C1154 0.949 . S
H1150 C1156 0.950 . S
H1151 C1157 0.950 . S
H1152 C1158 0.949 . S
C1153 H1148 0.950 . S
C1153 C1155 1.327 . S
C1153 C1159 1.429 . S
C1154 C1146 1.574 1_455 S
C1154 H1149 0.949 . S
C1154 C1160 1.368 . S
C1155 C1139 1.349 . S
C1155 H1147 0.950 . S
C1155 C1153 1.327 . S
C1156 C1144 1.349 . S
C1156 H1150 0.950 . S
C1156 C1157 1.327 . S
C1157 H1151 0.950 . S
C1157 C1156 1.327 . S
C1157 C1161 1.429 . S
C1158 C1141 1.574 1_655 S
C1158 H1152 0.949 . S
C1158 C1162 1.368 . S
C1159 C1140 1.429 . S
C1159 C1153 1.429 . S
C1159 C1160 1.523 . S
C1160 C1141 1.368 . S
C1160 C1154 1.368 . S
C1160 C1159 1.523 . S
C1161 C1145 1.429 . S
C1161 C1157 1.429 . S
C1161 C1162 1.523 . S
C1162 C1146 1.368 . S
C1162 C1158 1.368 . S
C1162 C1161 1.523 . S
H1163 C1138 0.950 . S
H1164 C1140 0.950 . S
H1165 C1141 0.949 . S
H1166 C1143 0.950 . S
H1167 C1145 0.950 . S
C1168 C1169 1.349 . S
C1168 C1170 1.327 . S
C1168 H1193 0.950 . S
C1169 C1168 1.349 . S
C1169 C1185 1.349 . S
C1170 C1168 1.327 . S
C1170 C1189 1.429 . S
C1170 H1194 0.950 . S
C1171 C1188 1.574 . S
C1171 C1190 1.368 . S
C1171 H1195 0.949 . S
H1172 C1176 0.949 . S
C1173 C1174 1.349 . S
C1173 C1175 1.327 . S
C1173 H1196 0.950 . S
C1174 C1173 1.349 . S
C1174 C1186 1.349 . S
C1175 C1173 1.327 . S
C1175 C1191 1.429 . S
C1175 H1197 0.950 . S
C1176 H1172 0.949 . S
C1176 C1184 1.574 . S
C1176 C1192 1.368 . S
H1177 C1185 0.950 . S
H1178 C1183 0.950 . S
H1179 C1184 0.949 . S
H1180 C1186 0.950 . S
H1181 C1187 0.950 . S
H1182 C1188 0.949 . S
C1183 H1178 0.950 . S
C1183 C1185 1.327 . S
C1183 C1189 1.429 . S
C1184 C1176 1.574 . S
C1184 H1179 0.949 . S
C1184 C1190 1.368 1_455 S
C1185 C1169 1.349 . S
C1185 H1177 0.950 . S
C1185 C1183 1.327 . S
C1186 C1174 1.349 . S
C1186 H1180 0.950 . S
C1186 C1187 1.327 . S
C1187 H1181 0.950 . S
C1187 C1186 1.327 . S
C1187 C1191 1.429 . S
C1188 C1171 1.574 . S
C1188 H1182 0.949 . S
C1188 C1192 1.368 1_655 S
C1189 C1170 1.429 . S
C1189 C1183 1.429 . S
C1189 C1190 1.523 . S
C1190 C1171 1.368 . S
C1190 C1184 1.368 1_655 S
C1190 C1189 1.523 . S
C1191 C1175 1.429 . S
C1191 C1187 1.429 . S
C1191 C1192 1.523 . S
C1192 C1176 1.368 . S
C1192 C1188 1.368 1_455 S
C1192 C1191 1.523 . S
H1193 C1168 0.950 . S
H1194 C1170 0.950 . S
H1195 C1171 0.949 . S
H1196 C1173 0.950 . S
H1197 C1175 0.950 . S
C1198 C1199 1.349 . S
C1198 C1200 1.327 . S
C1198 H1223 0.950 . S
C1199 C1198 1.349 . S
C1199 C1215 1.349 . S
C1200 C1198 1.327 . S
C1200 C1219 1.429 . S
C1200 H1224 0.950 . S
C1201 C1218 1.574 1_655 S
C1201 C1220 1.368 . S
C1201 H1225 0.949 . S
H1202 C1206 0.949 . S
C1203 C1204 1.349 . S
C1203 C1205 1.327 . S
C1203 H1226 0.950 . S
C1204 C1203 1.349 . S
C1204 C1216 1.349 . S
C1205 C1203 1.327 . S
C1205 C1221 1.429 . S
C1205 H1227 0.950 . S
C1206 H1202 0.949 . S
C1206 C1214 1.574 1_455 S
C1206 C1222 1.368 . S
H1207 C1215 0.950 . S
H1208 C1213 0.950 . S
H1209 C1214 0.949 . S
H1210 C1216 0.950 . S
H1211 C1217 0.950 . S
H1212 C1218 0.949 . S
C1213 H1208 0.950 . S
C1213 C1215 1.327 . S
C1213 C1219 1.429 . S
C1214 C1206 1.574 1_655 S
C1214 H1209 0.949 . S
C1214 C1220 1.368 . S
C1215 C1199 1.349 . S
C1215 H1207 0.950 . S
C1215 C1213 1.327 . S
C1216 C1204 1.349 . S
C1216 H1210 0.950 . S
C1216 C1217 1.327 . S
C1217 H1211 0.950 . S
C1217 C1216 1.327 . S
C1217 C1221 1.429 . S
C1218 C1201 1.574 1_455 S
C1218 H1212 0.949 . S
C1218 C1222 1.368 . S
C1219 C1200 1.429 . S
C1219 C1213 1.429 . S
C1219 C1220 1.523 . S
C1220 C1201 1.368 . S
C1220 C1214 1.368 . S
C1220 C1219 1.523 . S
C1221 C1205 1.429 . S
C1221 C1217 1.429 . S
C1221 C1222 1.523 . S
C1222 C1206 1.368 . S
C1222 C1218 1.368 . S
C1222 C1221 1.523 . S
H1223 C1198 0.950 . S
H1224 C1200 0.950 . S
H1225 C1201 0.949 . S
H1226 C1203 0.950 . S
H1227 C1205 0.950 . S
C1228 C1229 1.349 . S
C1228 C1230 1.327 . S
C1228 H1253 0.950 . S
C1229 C1228 1.349 . S
C1229 C1245 1.349 . S
C1230 C1228 1.327 . S
C1230 C1249 1.429 . S
C1230 H1254 0.950 . S
C1231 C1248 1.574 . S
C1231 C1250 1.368 . S
C1231 H1255 0.949 . S
H1232 C1236 0.949 . S
C1233 C1234 1.349 . S
C1233 C1235 1.327 . S
C1233 H1256 0.950 . S
C1234 C1233 1.349 . S
C1234 C1246 1.349 . S
C1235 C1233 1.327 . S
C1235 C1251 1.429 . S
C1235 H1257 0.950 . S
C1236 H1232 0.949 . S
C1236 C1244 1.574 . S
C1236 C1252 1.368 . S
H1237 C1245 0.950 . S
H1238 C1243 0.950 . S
H1239 C1244 0.949 . S
H1240 C1246 0.950 . S
H1241 C1247 0.950 . S
H1242 C1248 0.949 . S
C1243 H1238 0.950 . S
C1243 C1245 1.327 . S
C1243 C1249 1.429 . S
C1244 C1236 1.574 . S
C1244 H1239 0.949 . S
C1244 C1250 1.368 . S
C1245 C1229 1.349 . S
C1245 H1237 0.950 . S
C1245 C1243 1.327 . S
C1246 C1234 1.349 . S
C1246 H1240 0.950 . S
C1246 C1247 1.327 . S
C1247 H1241 0.950 . S
C1247 C1246 1.327 . S
C1247 C1251 1.429 . S
C1248 C1231 1.574 . S
C1248 H1242 0.949 . S
C1248 C1252 1.368 . S
C1249 C1230 1.429 . S
C1249 C1243 1.429 . S
C1249 C1250 1.523 . S
C1250 C1231 1.368 . S
C1250 C1244 1.368 . S
C1250 C1249 1.523 . S
C1251 C1235 1.429 . S
C1251 C1247 1.429 . S
C1251 C1252 1.523 . S
C1252 C1236 1.368 . S
C1252 C1248 1.368 . S
C1252 C1251 1.523 . S
H1253 C1228 0.950 . S
H1254 C1230 0.950 . S
H1255 C1231 0.949 . S
H1256 C1233 0.950 . S
H1257 C1235 0.950 . S
C1258 C1259 1.349 . S
C1258 C1260 1.327 . S
C1258 H1283 0.950 . S
C1259 C1258 1.349 . S
C1259 C1275 1.349 . S
C1260 C1258 1.327 . S
C1260 C1279 1.429 . S
C1260 H1284 0.950 . S
C1261 C1278 1.574 . S
C1261 C1280 1.368 . S
C1261 H1285 0.949 . S
H1262 C1266 0.949 . S
C1263 C1264 1.349 . S
C1263 C1265 1.327 . S
C1263 H1286 0.950 . S
C1264 C1263 1.349 . S
C1264 C1276 1.349 . S
C1265 C1263 1.327 . S
C1265 C1281 1.429 . S
C1265 H1287 0.950 . S
C1266 H1262 0.949 . S
C1266 C1274 1.574 . S
C1266 C1282 1.368 . S
H1267 C1275 0.950 . S
H1268 C1273 0.950 . S
H1269 C1274 0.949 . S
H1270 C1276 0.950 . S
H1271 C1277 0.950 . S
H1272 C1278 0.949 . S
C1273 H1268 0.950 . S
C1273 C1275 1.327 . S
C1273 C1279 1.429 . S
C1274 C1266 1.574 . S
C1274 H1269 0.949 . S
C1274 C1280 1.368 . S
C1275 C1259 1.349 . S
C1275 H1267 0.950 . S
C1275 C1273 1.327 . S
C1276 C1264 1.349 . S
C1276 H1270 0.950 . S
C1276 C1277 1.327 . S
C1277 H1271 0.950 . S
C1277 C1276 1.327 . S
C1277 C1281 1.429 . S
C1278 C1261 1.574 . S
C1278 H1272 0.949 . S
C1278 C1282 1.368 . S
C1279 C1260 1.429 . S
C1279 C1273 1.429 . S
C1279 C1280 1.523 . S
C1280 C1261 1.368 . S
C1280 C1274 1.368 . S
C1280 C1279 1.523 . S
C1281 C1265 1.429 . S
C1281 C1277 1.429 . S
C1281 C1282 1.523 . S
C1282 C1266 1.368 . S
C1282 C1278 1.368 . S
C1282 C1281 1.523 . S
H1283 C1258 0.950 . S
H1284 C1260 0.950 . S
H1285 C1261 0.949 . S
H1286 C1263 0.950 . S
H1287 C1265 0.950 . S
C1288 C1289 1.349 . S
C1288 C1290 1.327 . S
C1288 H1313 0.950 . S
C1289 C1288 1.349 . S
C1289 C1305 1.349 . S
C1290 C1288 1.327 . S
C1290 C1309 1.429 . S
C1290 H1314 0.950 . S
C1291 C1308 1.574 . S
C1291 C1310 1.368 . S
C1291 H1315 0.949 . S
H1292 C1296 0.949 . S
C1293 C1294 1.349 . S
C1293 C1295 1.327 . S
C1293 H1316 0.950 . S
C1294 C1293 1.349 . S
C1294 C1306 1.349 . S
C1295 C1293 1.327 . S
C1295 C1311 1.429 . S
C1295 H1317 0.950 . S
C1296 H1292 0.949 . S
C1296 C1304 1.574 . S
C1296 C1312 1.368 . S
H1297 C1305 0.950 . S
H1298 C1303 0.950 . S
H1299 C1304 0.949 . S
H1300 C1306 0.950 . S
H1301 C1307 0.950 . S
H1302 C1308 0.949 . S
C1303 H1298 0.950 . S
C1303 C1305 1.327 . S
C1303 C1309 1.429 . S
C1304 C1296 1.574 . S
C1304 H1299 0.949 . S
C1304 C1310 1.368 1_455 S
C1305 C1289 1.349 . S
C1305 H1297 0.950 . S
C1305 C1303 1.327 . S
C1306 C1294 1.349 . S
C1306 H1300 0.950 . S
C1306 C1307 1.327 . S
C1307 H1301 0.950 . S
C1307 C1306 1.327 . S
C1307 C1311 1.429 . S
C1308 C1291 1.574 . S
C1308 H1302 0.949 . S
C1308 C1312 1.368 1_655 S
C1309 C1290 1.429 . S
C1309 C1303 1.429 . S
C1309 C1310 1.523 . S
C1310 C1291 1.368 . S
C1310 C1304 1.368 1_655 S
C1310 C1309 1.523 . S
C1311 C1295 1.429 . S
C1311 C1307 1.429 . S
C1311 C1312 1.523 . S
C1312 C1296 1.368 . S
C1312 C1308 1.368 1_455 S
C1312 C1311 1.523 . S
H1313 C1288 0.950 . S
H1314 C1290 0.950 . S
H1315 C1291 0.949 . S
H1316 C1293 0.950 . S
H1317 C1295 0.950 . S
C1318 C1319 1.349 . S
C1318 C1320 1.327 . S
C1318 H1343 0.950 . S
C1319 C1318 1.349 . S
C1319 C1335 1.349 . S
C1320 C1318 1.327 . S
C1320 C1339 1.429 . S
C1320 H1344 0.950 . S
C1321 C1338 1.574 . S
C1321 C1340 1.368 . S
C1321 H1345 0.949 . S
H1322 C1326 0.949 . S
C1323 C1324 1.349 . S
C1323 C1325 1.327 . S
C1323 H1346 0.950 . S
C1324 C1323 1.349 . S
C1324 C1336 1.349 . S
C1325 C1323 1.327 . S
C1325 C1341 1.429 . S
C1325 H1347 0.950 . S
C1326 H1322 0.949 . S
C1326 C1334 1.574 . S
C1326 C1342 1.368 . S
H1327 C1335 0.950 . S
H1328 C1333 0.950 . S
H1329 C1334 0.949 . S
H1330 C1336 0.950 . S
H1331 C1337 0.950 . S
H1332 C1338 0.949 . S
C1333 H1328 0.950 . S
C1333 C1335 1.327 . S
C1333 C1339 1.429 . S
C1334 C1326 1.574 . S
C1334 H1329 0.949 . S
C1334 C1340 1.368 . S
C1335 C1319 1.349 . S
C1335 H1327 0.950 . S
C1335 C1333 1.327 . S
C1336 C1324 1.349 . S
C1336 H1330 0.950 . S
C1336 C1337 1.327 . S
C1337 H1331 0.950 . S
C1337 C1336 1.327 . S
C1337 C1341 1.429 . S
C1338 C1321 1.574 . S
C1338 H1332 0.949 . S
C1338 C1342 1.368 . S
C1339 C1320 1.429 . S
C1339 C1333 1.429 . S
C1339 C1340 1.523 . S
C1340 C1321 1.368 . S
C1340 C1334 1.368 . S
C1340 C1339 1.523 . S
C1341 C1325 1.429 . S
C1341 C1337 1.429 . S
C1341 C1342 1.523 . S
C1342 C1326 1.368 . S
C1342 C1338 1.368 . S
C1342 C1341 1.523 . S
H1343 C1318 0.950 . S
H1344 C1320 0.950 . S
H1345 C1321 0.949 . S
H1346 C1323 0.950 . S
H1347 C1325 0.950 . S
C1348 C1349 1.349 . S
C1348 C1350 1.327 . S
C1348 H1373 0.950 . S
C1349 C1348 1.349 . S
C1349 C1365 1.349 . S
C1350 C1348 1.327 . S
C1350 C1369 1.429 . S
C1350 H1374 0.950 . S
C1351 C1368 1.574 . S
C1351 C1370 1.368 . S
C1351 H1375 0.949 . S
H1352 C1356 0.949 . S
C1353 C1354 1.349 . S
C1353 C1355 1.327 . S
C1353 H1376 0.950 . S
C1354 C1353 1.349 . S
C1354 C1366 1.349 . S
C1355 C1353 1.327 . S
C1355 C1371 1.429 . S
C1355 H1377 0.950 . S
C1356 H1352 0.949 . S
C1356 C1364 1.574 . S
C1356 C1372 1.368 . S
H1357 C1365 0.950 . S
H1358 C1363 0.950 . S
H1359 C1364 0.949 . S
H1360 C1366 0.950 . S
H1361 C1367 0.950 . S
H1362 C1368 0.949 . S
C1363 H1358 0.950 . S
C1363 C1365 1.327 . S
C1363 C1369 1.429 . S
C1364 C1356 1.574 . S
C1364 H1359 0.949 . S
C1364 C1370 1.368 . S
C1365 C1349 1.349 . S
C1365 H1357 0.950 . S
C1365 C1363 1.327 . S
C1366 C1354 1.349 . S
C1366 H1360 0.950 . S
C1366 C1367 1.327 . S
C1367 H1361 0.950 . S
C1367 C1366 1.327 . S
C1367 C1371 1.429 . S
C1368 C1351 1.574 . S
C1368 H1362 0.949 . S
C1368 C1372 1.368 . S
C1369 C1350 1.429 . S
C1369 C1363 1.429 . S
C1369 C1370 1.523 . S
C1370 C1351 1.368 . S
C1370 C1364 1.368 . S
C1370 C1369 1.523 . S
C1371 C1355 1.429 . S
C1371 C1367 1.429 . S
C1371 C1372 1.523 . S
C1372 C1356 1.368 . S
C1372 C1368 1.368 . S
C1372 C1371 1.523 . S
H1373 C1348 0.950 . S
H1374 C1350 0.950 . S
H1375 C1351 0.949 . S
H1376 C1353 0.950 . S
H1377 C1355 0.950 . S
C1378 C1379 1.349 . S
C1378 C1380 1.327 . S
C1378 H1403 0.950 . S
C1379 C1378 1.349 . S
C1379 C1395 1.349 . S
C1380 C1378 1.327 . S
C1380 C1399 1.429 . S
C1380 H1404 0.950 . S
C1381 C1398 1.574 1_655 S
C1381 C1400 1.368 . S
C1381 H1405 0.949 . S
H1382 C1386 0.949 . S
C1383 C1384 1.349 . S
C1383 C1385 1.327 . S
C1383 H1406 0.950 . S
C1384 C1383 1.349 . S
C1384 C1396 1.349 . S
C1385 C1383 1.327 . S
C1385 C1401 1.429 . S
C1385 H1407 0.950 . S
C1386 H1382 0.949 . S
C1386 C1394 1.574 1_455 S
C1386 C1402 1.368 . S
H1387 C1395 0.950 . S
H1388 C1393 0.950 . S
H1389 C1394 0.949 . S
H1390 C1396 0.950 . S
H1391 C1397 0.950 . S
H1392 C1398 0.949 . S
C1393 H1388 0.950 . S
C1393 C1395 1.327 . S
C1393 C1399 1.429 . S
C1394 C1386 1.574 1_655 S
C1394 H1389 0.949 . S
C1394 C1400 1.368 . S
C1395 C1379 1.349 . S
C1395 H1387 0.950 . S
C1395 C1393 1.327 . S
C1396 C1384 1.349 . S
C1396 H1390 0.950 . S
C1396 C1397 1.327 . S
C1397 H1391 0.950 . S
C1397 C1396 1.327 . S
C1397 C1401 1.429 . S
C1398 C1381 1.574 1_455 S
C1398 H1392 0.949 . S
C1398 C1402 1.368 . S
C1399 C1380 1.429 . S
C1399 C1393 1.429 . S
C1399 C1400 1.523 . S
C1400 C1381 1.368 . S
C1400 C1394 1.368 . S
C1400 C1399 1.523 . S
C1401 C1385 1.429 . S
C1401 C1397 1.429 . S
C1401 C1402 1.523 . S
C1402 C1386 1.368 . S
C1402 C1398 1.368 . S
C1402 C1401 1.523 . S
H1403 C1378 0.950 . S
H1404 C1380 0.950 . S
H1405 C1381 0.949 . S
H1406 C1383 0.950 . S
H1407 C1385 0.950 . S
C1408 C1409 1.349 . S
C1408 C1410 1.327 . S
C1408 H1433 0.950 . S
C1409 C1408 1.349 . S
C1409 C1425 1.349 . S
C1410 C1408 1.327 . S
C1410 C1429 1.429 . S
C1410 H1434 0.950 . S
C1411 C1428 1.574 . S
C1411 C1430 1.368 . S
C1411 H1435 0.949 . S
H1412 C1416 0.949 . S
C1413 C1414 1.349 . S
C1413 C1415 1.327 . S
C1413 H1436 0.950 . S
C1414 C1413 1.349 . S
C1414 C1426 1.349 . S
C1415 C1413 1.327 . S
C1415 C1431 1.429 . S
C1415 H1437 0.950 . S
C1416 H1412 0.949 . S
C1416 C1424 1.574 . S
C1416 C1432 1.368 . S
H1417 C1425 0.950 . S
H1418 C1423 0.950 . S
H1419 C1424 0.949 . S
H1420 C1426 0.950 . S
H1421 C1427 0.950 . S
H1422 C1428 0.949 . S
C1423 H1418 0.950 . S
C1423 C1425 1.327 . S
C1423 C1429 1.429 . S
C1424 C1416 1.574 . S
C1424 H1419 0.949 . S
C1424 C1430 1.368 1_554 S
C1425 C1409 1.349 . S
C1425 H1417 0.950 . S
C1425 C1423 1.327 . S
C1426 C1414 1.349 . S
C1426 H1420 0.950 . S
C1426 C1427 1.327 . S
C1427 H1421 0.950 . S
C1427 C1426 1.327 . S
C1427 C1431 1.429 . S
C1428 C1411 1.574 . S
C1428 H1422 0.949 . S
C1428 C1432 1.368 1_556 S
C1429 C1410 1.429 . S
C1429 C1423 1.429 . S
C1429 C1430 1.523 . S
C1430 C1411 1.368 . S
C1430 C1424 1.368 1_556 S
C1430 C1429 1.523 . S
C1431 C1415 1.429 . S
C1431 C1427 1.429 . S
C1431 C1432 1.523 . S
C1432 C1416 1.368 . S
C1432 C1428 1.368 1_554 S
C1432 C1431 1.523 . S
H1433 C1408 0.950 . S
H1434 C1410 0.950 . S
H1435 C1411 0.949 . S
H1436 C1413 0.950 . S
H1437 C1415 0.950 . S
C1438 C1439 1.349 . S
C1438 C1440 1.327 . S
C1438 H1463 0.950 . S
C1439 C1438 1.349 . S
C1439 C1455 1.349 . S
C1440 C1438 1.327 . S
C1440 C1459 1.429 . S
C1440 H1464 0.950 . S
C1441 C1458 1.574 1_545 S
C1441 C1460 1.368 . S
C1441 H1465 0.949 . S
H1442 C1446 0.949 . S
C1443 C1444 1.349 . S
C1443 C1445 1.327 . S
C1443 H1466 0.950 . S
C1444 C1443 1.349 . S
C1444 C1456 1.349 . S
C1445 C1443 1.327 . S
C1445 C1461 1.429 . S
C1445 H1467 0.950 . S
C1446 H1442 0.949 . S
C1446 C1454 1.574 1_565 S
C1446 C1462 1.368 . S
H1447 C1455 0.950 . S
H1448 C1453 0.950 . S
H1449 C1454 0.949 . S
H1450 C1456 0.950 . S
H1451 C1457 0.950 . S
H1452 C1458 0.949 . S
C1453 H1448 0.950 . S
C1453 C1455 1.327 . S
C1453 C1459 1.429 . S
C1454 C1446 1.574 1_545 S
C1454 H1449 0.949 . S
C1454 C1460 1.368 . S
C1455 C1439 1.349 . S
C1455 H1447 0.950 . S
C1455 C1453 1.327 . S
C1456 C1444 1.349 . S
C1456 H1450 0.950 . S
C1456 C1457 1.327 . S
C1457 H1451 0.950 . S
C1457 C1456 1.327 . S
C1457 C1461 1.429 . S
C1458 C1441 1.574 1_565 S
C1458 H1452 0.949 . S
C1458 C1462 1.368 . S
C1459 C1440 1.429 . S
C1459 C1453 1.429 . S
C1459 C1460 1.523 . S
C1460 C1441 1.368 . S
C1460 C1454 1.368 . S
C1460 C1459 1.523 . S
C1461 C1445 1.429 . S
C1461 C1457 1.429 . S
C1461 C1462 1.523 . S
C1462 C1446 1.368 . S
C1462 C1458 1.368 . S
C1462 C1461 1.523 . S
H1463 C1438 0.950 . S
H1464 C1440 0.950 . S
H1465 C1441 0.949 . S
H1466 C1443 0.950 . S
H1467 C1445 0.950 . S
C1468 C1469 1.349 . S
C1468 C1470 1.327 . S
C1468 H1493 0.950 . S
C1469 C1468 1.349 . S
C1469 C1485 1.349 . S
C1470 C1468 1.327 . S
C1470 C1489 1.429 . S
C1470 H1494 0.950 . S
C1471 C1488 1.574 . S
C1471 C1490 1.368 . S
C1471 H1495 0.949 . S
H1472 C1476 0.949 . S
C1473 C1474 1.349 . S
C1473 C1475 1.327 . S
C1473 H1496 0.950 . S
C1474 C1473 1.349 . S
C1474 C1486 1.349 . S
C1475 C1473 1.327 . S
C1475 C1491 1.429 . S
C1475 H1497 0.950 . S
C1476 H1472 0.949 . S
C1476 C1484 1.574 . S
C1476 C1492 1.368 . S
H1477 C1485 0.950 . S
H1478 C1483 0.950 . S
H1479 C1484 0.949 . S
H1480 C1486 0.950 . S
H1481 C1487 0.950 . S
H1482 C1488 0.949 . S
C1483 H1478 0.950 . S
C1483 C1485 1.327 . S
C1483 C1489 1.429 . S
C1484 C1476 1.574 . S
C1484 H1479 0.949 . S
C1484 C1490 1.368 . S
C1485 C1469 1.349 . S
C1485 H1477 0.950 . S
C1485 C1483 1.327 . S
C1486 C1474 1.349 . S
C1486 H1480 0.950 . S
C1486 C1487 1.327 . S
C1487 H1481 0.950 . S
C1487 C1486 1.327 . S
C1487 C1491 1.429 . S
C1488 C1471 1.574 . S
C1488 H1482 0.949 . S
C1488 C1492 1.368 . S
C1489 C1470 1.429 . S
C1489 C1483 1.429 . S
C1489 C1490 1.523 . S
C1490 C1471 1.368 . S
C1490 C1484 1.368 . S
C1490 C1489 1.523 . S
C1491 C1475 1.429 . S
C1491 C1487 1.429 . S
C1491 C1492 1.523 . S
C1492 C1476 1.368 . S
C1492 C1488 1.368 . S
C1492 C1491 1.523 . S
H1493 C1468 0.950 . S
H1494 C1470 0.950 . S
H1495 C1471 0.949 . S
H1496 C1473 0.950 . S
H1497 C1475 0.950 . S
C1498 C1499 1.349 . S
C1498 C1500 1.327 . S
C1498 H1523 0.950 . S
C1499 C1498 1.349 . S
C1499 C1515 1.349 . S
C1500 C1498 1.327 . S
C1500 C1519 1.429 . S
C1500 H1524 0.950 . S
C1501 C1518 1.574 1_545 S
C1501 C1520 1.368 . S
C1501 H1525 0.949 . S
H1502 C1506 0.949 . S
C1503 C1504 1.349 . S
C1503 C1505 1.327 . S
C1503 H1526 0.950 . S
C1504 C1503 1.349 . S
C1504 C1516 1.349 . S
C1505 C1503 1.327 . S
C1505 C1521 1.429 . S
C1505 H1527 0.950 . S
C1506 H1502 0.949 . S
C1506 C1514 1.574 1_565 S
C1506 C1522 1.368 . S
H1507 C1515 0.950 . S
H1508 C1513 0.950 . S
H1509 C1514 0.949 . S
H1510 C1516 0.950 . S
H1511 C1517 0.950 . S
H1512 C1518 0.949 . S
C1513 H1508 0.950 . S
C1513 C1515 1.327 . S
C1513 C1519 1.429 . S
C1514 C1506 1.574 1_545 S
C1514 H1509 0.949 . S
C1514 C1520 1.368 . S
C1515 C1499 1.349 . S
C1515 H1507 0.950 . S
C1515 C1513 1.327 . S
C1516 C1504 1.349 . S
C1516 H1510 0.950 . S
C1516 C1517 1.327 . S
C1517 H1511 0.950 . S
C1517 C1516 1.327 . S
C1517 C1521 1.429 . S
C1518 C1501 1.574 1_565 S
C1518 H1512 0.949 . S
C1518 C1522 1.368 . S
C1519 C1500 1.429 . S
C1519 C1513 1.429 . S
C1519 C1520 1.523 . S
C1520 C1501 1.368 . S
C1520 C1514 1.368 . S
C1520 C1519 1.523 . S
C1521 C1505 1.429 . S
C1521 C1517 1.429 . S
C1521 C1522 1.523 . S
C1522 C1506 1.368 . S
C1522 C1518 1.368 . S
C1522 C1521 1.523 . S
H1523 C1498 0.950 . S
H1524 C1500 0.950 . S
H1525 C1501 0.949 . S
H1526 C1503 0.950 . S
H1527 C1505 0.950 . S
C1528 C1529 1.349 . S
C1528 C1530 1.327 . S
C1528 H1553 0.950 . S
C1529 C1528 1.349 . S
C1529 C1545 1.349 . S
C1530 C1528 1.327 . S
C1530 C1549 1.429 . S
C1530 H1554 0.950 . S
C1531 C1548 1.574 . S
C1531 C1550 1.368 . S
C1531 H1555 0.949 . S
H1532 C1536 0.949 . S
C1533 C1534 1.349 . S
C1533 C1535 1.327 . S
C1533 H1556 0.950 . S
C1534 C1533 1.349 . S
C1534 C1546 1.349 . S
C1535 C1533 1.327 . S
C1535 C1551 1.429 . S
C1535 H1557 0.950 . S
C1536 H1532 0.949 . S
C1536 C1544 1.574 . S
C1536 C1552 1.368 . S
H1537 C1545 0.950 . S
H1538 C1543 0.950 . S
H1539 C1544 0.949 . S
H1540 C1546 0.950 . S
H1541 C1547 0.950 . S
H1542 C1548 0.949 . S
C1543 H1538 0.950 . S
C1543 C1545 1.327 . S
C1543 C1549 1.429 . S
C1544 C1536 1.574 . S
C1544 H1539 0.949 . S
C1544 C1550 1.368 1_556 S
C1545 C1529 1.349 . S
C1545 H1537 0.950 . S
C1545 C1543 1.327 . S
C1546 C1534 1.349 . S
C1546 H1540 0.950 . S
C1546 C1547 1.327 . S
C1547 H1541 0.950 . S
C1547 C1546 1.327 . S
C1547 C1551 1.429 . S
C1548 C1531 1.574 . S
C1548 H1542 0.949 . S
C1548 C1552 1.368 1_554 S
C1549 C1530 1.429 . S
C1549 C1543 1.429 . S
C1549 C1550 1.523 . S
C1550 C1531 1.368 . S
C1550 C1544 1.368 1_554 S
C1550 C1549 1.523 . S
C1551 C1535 1.429 . S
C1551 C1547 1.429 . S
C1551 C1552 1.523 . S
C1552 C1536 1.368 . S
C1552 C1548 1.368 1_556 S
C1552 C1551 1.523 . S
H1553 C1528 0.950 . S
H1554 C1530 0.950 . S
H1555 C1531 0.949 . S
H1556 C1533 0.950 . S
H1557 C1535 0.950 . S
C1558 C1559 1.349 . S
C1558 C1560 1.327 . S
C1558 H1583 0.950 . S
C1559 C1558 1.349 . S
C1559 C1575 1.349 . S
C1560 C1558 1.327 . S
C1560 C1579 1.429 . S
C1560 H1584 0.950 . S
C1561 C1578 1.574 1_565 S
C1561 C1580 1.368 . S
C1561 H1585 0.949 . S
H1562 C1566 0.949 . S
C1563 C1564 1.349 . S
C1563 C1565 1.327 . S
C1563 H1586 0.950 . S
C1564 C1563 1.349 . S
C1564 C1576 1.349 . S
C1565 C1563 1.327 . S
C1565 C1581 1.429 . S
C1565 H1587 0.950 . S
C1566 H1562 0.949 . S
C1566 C1574 1.574 1_545 S
C1566 C1582 1.368 . S
H1567 C1575 0.950 . S
H1568 C1573 0.950 . S
H1569 C1574 0.949 . S
H1570 C1576 0.950 . S
H1571 C1577 0.950 . S
H1572 C1578 0.949 . S
C1573 H1568 0.950 . S
C1573 C1575 1.327 . S
C1573 C1579 1.429 . S
C1574 C1566 1.574 1_565 S
C1574 H1569 0.949 . S
C1574 C1580 1.368 . S
C1575 C1559 1.349 . S
C1575 H1567 0.950 . S
C1575 C1573 1.327 . S
C1576 C1564 1.349 . S
C1576 H1570 0.950 . S
C1576 C1577 1.327 . S
C1577 H1571 0.950 . S
C1577 C1576 1.327 . S
C1577 C1581 1.429 . S
C1578 C1561 1.574 1_545 S
C1578 H1572 0.949 . S
C1578 C1582 1.368 . S
C1579 C1560 1.429 . S
C1579 C1573 1.429 . S
C1579 C1580 1.523 . S
C1580 C1561 1.368 . S
C1580 C1574 1.368 . S
C1580 C1579 1.523 . S
C1581 C1565 1.429 . S
C1581 C1577 1.429 . S
C1581 C1582 1.523 . S
C1582 C1566 1.368 . S
C1582 C1578 1.368 . S
C1582 C1581 1.523 . S
H1583 C1558 0.950 . S
H1584 C1560 0.950 . S
H1585 C1561 0.949 . S
H1586 C1563 0.950 . S
H1587 C1565 0.950 . S
C1588 C1589 1.349 . S
C1588 C1590 1.327 . S
C1588 H1613 0.950 . S
C1589 C1588 1.349 . S
C1589 C1605 1.349 . S
C1590 C1588 1.327 . S
C1590 C1609 1.429 . S
C1590 H1614 0.950 . S
C1591 C1608 1.574 . S
C1591 C1610 1.368 . S
C1591 H1615 0.949 . S
H1592 C1596 0.949 . S
C1593 C1594 1.349 . S
C1593 C1595 1.327 . S
C1593 H1616 0.950 . S
C1594 C1593 1.349 . S
C1594 C1606 1.349 . S
C1595 C1593 1.327 . S
C1595 C1611 1.429 . S
C1595 H1617 0.950 . S
C1596 H1592 0.949 . S
C1596 C1604 1.574 . S
C1596 C1612 1.368 . S
H1597 C1605 0.950 . S
H1598 C1603 0.950 . S
H1599 C1604 0.949 . S
H1600 C1606 0.950 . S
H1601 C1607 0.950 . S
H1602 C1608 0.949 . S
C1603 H1598 0.950 . S
C1603 C1605 1.327 . S
C1603 C1609 1.429 . S
C1604 C1596 1.574 . S
C1604 H1599 0.949 . S
C1604 C1610 1.368 . S
C1605 C1589 1.349 . S
C1605 H1597 0.950 . S
C1605 C1603 1.327 . S
C1606 C1594 1.349 . S
C1606 H1600 0.950 . S
C1606 C1607 1.327 . S
C1607 H1601 0.950 . S
C1607 C1606 1.327 . S
C1607 C1611 1.429 . S
C1608 C1591 1.574 . S
C1608 H1602 0.949 . S
C1608 C1612 1.368 . S
C1609 C1590 1.429 . S
C1609 C1603 1.429 . S
C1609 C1610 1.523 . S
C1610 C1591 1.368 . S
C1610 C1604 1.368 . S
C1610 C1609 1.523 . S
C1611 C1595 1.429 . S
C1611 C1607 1.429 . S
C1611 C1612 1.523 . S
C1612 C1596 1.368 . S
C1612 C1608 1.368 . S
C1612 C1611 1.523 . S
H1613 C1588 0.950 . S
H1614 C1590 0.950 . S
H1615 C1591 0.949 . S
H1616 C1593 0.950 . S
H1617 C1595 0.950 . S
C1618 C1619 1.349 . S
C1618 C1620 1.327 . S
C1618 H1643 0.950 . S
C1619 C1618 1.349 . S
C1619 C1635 1.349 . S
C1620 C1618 1.327 . S
C1620 C1639 1.429 . S
C1620 H1644 0.950 . S
C1621 C1638 1.574 1_545 S
C1621 C1640 1.368 . S
C1621 H1645 0.949 . S
H1622 C1626 0.949 . S
C1623 C1624 1.349 . S
C1623 C1625 1.327 . S
C1623 H1646 0.950 . S
C1624 C1623 1.349 . S
C1624 C1636 1.349 . S
C1625 C1623 1.327 . S
C1625 C1641 1.429 . S
C1625 H1647 0.950 . S
C1626 H1622 0.949 . S
C1626 C1634 1.574 1_565 S
C1626 C1642 1.368 . S
H1627 C1635 0.950 . S
H1628 C1633 0.950 . S
H1629 C1634 0.949 . S
H1630 C1636 0.950 . S
H1631 C1637 0.950 . S
H1632 C1638 0.949 . S
C1633 H1628 0.950 . S
C1633 C1635 1.327 . S
C1633 C1639 1.429 . S
C1634 C1626 1.574 1_545 S
C1634 H1629 0.949 . S
C1634 C1640 1.368 . S
C1635 C1619 1.349 . S
C1635 H1627 0.950 . S
C1635 C1633 1.327 . S
C1636 C1624 1.349 . S
C1636 H1630 0.950 . S
C1636 C1637 1.327 . S
C1637 H1631 0.950 . S
C1637 C1636 1.327 . S
C1637 C1641 1.429 . S
C1638 C1621 1.574 1_565 S
C1638 H1632 0.949 . S
C1638 C1642 1.368 . S
C1639 C1620 1.429 . S
C1639 C1633 1.429 . S
C1639 C1640 1.523 . S
C1640 C1621 1.368 . S
C1640 C1634 1.368 . S
C1640 C1639 1.523 . S
C1641 C1625 1.429 . S
C1641 C1637 1.429 . S
C1641 C1642 1.523 . S
C1642 C1626 1.368 . S
C1642 C1638 1.368 . S
C1642 C1641 1.523 . S
H1643 C1618 0.950 . S
H1644 C1620 0.950 . S
H1645 C1621 0.949 . S
H1646 C1623 0.950 . S
H1647 C1625 0.950 . S
C1648 C1649 1.349 . S
C1648 C1650 1.327 . S
C1648 H1673 0.950 . S
C1649 C1648 1.349 . S
C1649 C1665 1.349 . S
C1650 C1648 1.327 . S
C1650 C1669 1.429 . S
C1650 H1674 0.950 . S
C1651 C1668 1.574 . S
C1651 C1670 1.368 . S
C1651 H1675 0.949 . S
H1652 C1656 0.949 . S
C1653 C1654 1.349 . S
C1653 C1655 1.327 . S
C1653 H1676 0.950 . S
C1654 C1653 1.349 . S
C1654 C1666 1.349 . S
C1655 C1653 1.327 . S
C1655 C1671 1.429 . S
C1655 H1677 0.950 . S
C1656 H1652 0.949 . S
C1656 C1664 1.574 . S
C1656 C1672 1.368 . S
H1657 C1665 0.950 . S
H1658 C1663 0.950 . S
H1659 C1664 0.949 . S
H1660 C1666 0.950 . S
H1661 C1667 0.950 . S
H1662 C1668 0.949 . S
C1663 H1658 0.950 . S
C1663 C1665 1.327 . S
C1663 C1669 1.429 . S
C1664 C1656 1.574 . S
C1664 H1659 0.949 . S
C1664 C1670 1.368 . S
C1665 C1649 1.349 . S
C1665 H1657 0.950 . S
C1665 C1663 1.327 . S
C1666 C1654 1.349 . S
C1666 H1660 0.950 . S
C1666 C1667 1.327 . S
C1667 H1661 0.950 . S
C1667 C1666 1.327 . S
C1667 C1671 1.429 . S
C1668 C1651 1.574 . S
C1668 H1662 0.949 . S
C1668 C1672 1.368 . S
C1669 C1650 1.429 . S
C1669 C1663 1.429 . S
C1669 C1670 1.523 . S
C1670 C1651 1.368 . S
C1670 C1664 1.368 . S
C1670 C1669 1.523 . S
C1671 C1655 1.429 . S
C1671 C1667 1.429 . S
C1671 C1672 1.523 . S
C1672 C1656 1.368 . S
C1672 C1668 1.368 . S
C1672 C1671 1.523 . S
H1673 C1648 0.950 . S
H1674 C1650 0.950 . S
H1675 C1651 0.949 . S
H1676 C1653 0.950 . S
H1677 C1655 0.950 . S
C1678 C1679 1.349 . S
C1678 C1680 1.327 . S
C1678 H1703 0.950 . S
C1679 C1678 1.349 . S
C1679 C1695 1.349 . S
C1680 C1678 1.327 . S
C1680 C1699 1.429 . S
C1680 H1704 0.950 . S
C1681 C1698 1.574 . S
C1681 C1700 1.368 . S
C1681 H1705 0.949 . S
H1682 C1686 0.949 . S
C1683 C1684 1.349 . S
C1683 C1685 1.327 . S
C1683 H1706 0.950 . S
C1684 C1683 1.349 . S
C1684 C1696 1.349 . S
C1685 C1683 1.327 . S
C1685 C1701 1.429 . S
C1685 H1707 0.950 . S
C1686 H1682 0.949 . S
C1686 C1694 1.574 . S
C1686 C1702 1.368 . S
H1687 C1695 0.950 . S
H1688 C1693 0.950 . S
H1689 C1694 0.949 . S
H1690 C1696 0.950 . S
H1691 C1697 0.950 . S
H1692 C1698 0.949 . S
C1693 H1688 0.950 . S
C1693 C1695 1.327 . S
C1693 C1699 1.429 . S
C1694 C1686 1.574 . S
C1694 H1689 0.949 . S
C1694 C1700 1.368 . S
C1695 C1679 1.349 . S
C1695 H1687 0.950 . S
C1695 C1693 1.327 . S
C1696 C1684 1.349 . S
C1696 H1690 0.950 . S
C1696 C1697 1.327 . S
C1697 H1691 0.950 . S
C1697 C1696 1.327 . S
C1697 C1701 1.429 . S
C1698 C1681 1.574 . S
C1698 H1692 0.949 . S
C1698 C1702 1.368 . S
C1699 C1680 1.429 . S
C1699 C1693 1.429 . S
C1699 C1700 1.523 . S
C1700 C1681 1.368 . S
C1700 C1694 1.368 . S
C1700 C1699 1.523 . S
C1701 C1685 1.429 . S
C1701 C1697 1.429 . S
C1701 C1702 1.523 . S
C1702 C1686 1.368 . S
C1702 C1698 1.368 . S
C1702 C1701 1.523 . S
H1703 C1678 0.950 . S
H1704 C1680 0.950 . S
H1705 C1681 0.949 . S
H1706 C1683 0.950 . S
H1707 C1685 0.950 . S
C1708 C1709 1.349 . S
C1708 C1710 1.327 . S
C1708 H1733 0.950 . S
C1709 C1708 1.349 . S
C1709 C1725 1.349 . S
C1710 C1708 1.327 . S
C1710 C1729 1.429 . S
C1710 H1734 0.950 . S
C1711 C1728 1.574 . S
C1711 C1730 1.368 1_556 S
C1711 H1735 0.949 . S
H1712 C1716 0.949 . S
C1713 C1714 1.349 . S
C1713 C1715 1.327 . S
C1713 H1736 0.950 . S
C1714 C1713 1.349 . S
C1714 C1726 1.349 . S
C1715 C1713 1.327 . S
C1715 C1731 1.429 . S
C1715 H1737 0.950 . S
C1716 H1712 0.949 . S
C1716 C1724 1.574 . S
C1716 C1732 1.368 1_554 S
H1717 C1725 0.950 . S
H1718 C1723 0.950 . S
H1719 C1724 0.949 . S
H1720 C1726 0.950 . S
H1721 C1727 0.950 . S
H1722 C1728 0.949 . S
C1723 H1718 0.950 . S
C1723 C1725 1.327 . S
C1723 C1729 1.429 . S
C1724 C1716 1.574 . S
C1724 H1719 0.949 . S
C1724 C1730 1.368 . S
C1725 C1709 1.349 . S
C1725 H1717 0.950 . S
C1725 C1723 1.327 . S
C1726 C1714 1.349 . S
C1726 H1720 0.950 . S
C1726 C1727 1.327 . S
C1727 H1721 0.950 . S
C1727 C1726 1.327 . S
C1727 C1731 1.429 . S
C1728 C1711 1.574 . S
C1728 H1722 0.949 . S
C1728 C1732 1.368 . S
C1729 C1710 1.429 . S
C1729 C1723 1.429 . S
C1729 C1730 1.523 . S
C1730 C1711 1.368 1_554 S
C1730 C1724 1.368 . S
C1730 C1729 1.523 . S
C1731 C1715 1.429 . S
C1731 C1727 1.429 . S
C1731 C1732 1.523 . S
C1732 C1716 1.368 1_556 S
C1732 C1728 1.368 . S
C1732 C1731 1.523 . S
H1733 C1708 0.950 . S
H1734 C1710 0.950 . S
H1735 C1711 0.949 . S
H1736 C1713 0.950 . S
H1737 C1715 0.950 . S
C1738 C1739 1.349 . S
C1738 C1740 1.327 . S
C1738 H1763 0.950 . S
C1739 C1738 1.349 . S
C1739 C1755 1.349 . S
C1740 C1738 1.327 . S
C1740 C1759 1.429 . S
C1740 H1764 0.950 . S
C1741 C1758 1.574 . S
C1741 C1760 1.368 . S
C1741 H1765 0.949 . S
H1742 C1746 0.949 . S
C1743 C1744 1.349 . S
C1743 C1745 1.327 . S
C1743 H1766 0.950 . S
C1744 C1743 1.349 . S
C1744 C1756 1.349 . S
C1745 C1743 1.327 . S
C1745 C1761 1.429 . S
C1745 H1767 0.950 . S
C1746 H1742 0.949 . S
C1746 C1754 1.574 . S
C1746 C1762 1.368 . S
H1747 C1755 0.950 . S
H1748 C1753 0.950 . S
H1749 C1754 0.949 . S
H1750 C1756 0.950 . S
H1751 C1757 0.950 . S
H1752 C1758 0.949 . S
C1753 H1748 0.950 . S
C1753 C1755 1.327 . S
C1753 C1759 1.429 . S
C1754 C1746 1.574 . S
C1754 H1749 0.949 . S
C1754 C1760 1.368 . S
C1755 C1739 1.349 . S
C1755 H1747 0.950 . S
C1755 C1753 1.327 . S
C1756 C1744 1.349 . S
C1756 H1750 0.950 . S
C1756 C1757 1.327 . S
C1757 H1751 0.950 . S
C1757 C1756 1.327 . S
C1757 C1761 1.429 . S
C1758 C1741 1.574 . S
C1758 H1752 0.949 . S
C1758 C1762 1.368 . S
C1759 C1740 1.429 . S
C1759 C1753 1.429 . S
C1759 C1760 1.523 . S
C1760 C1741 1.368 . S
C1760 C1754 1.368 . S
C1760 C1759 1.523 . S
C1761 C1745 1.429 . S
C1761 C1757 1.429 . S
C1761 C1762 1.523 . S
C1762 C1746 1.368 . S
C1762 C1758 1.368 . S
C1762 C1761 1.523 . S
H1763 C1738 0.950 . S
H1764 C1740 0.950 . S
H1765 C1741 0.949 . S
H1766 C1743 0.950 . S
H1767 C1745 0.950 . S
C1768 C1769 1.349 . S
C1768 C1770 1.327 . S
C1768 H1793 0.950 . S
C1769 C1768 1.349 . S
C1769 C1785 1.349 . S
C1770 C1768 1.327 . S
C1770 C1789 1.429 . S
C1770 H1794 0.950 . S
C1771 C1788 1.574 . S
C1771 C1790 1.368 . S
C1771 H1795 0.949 . S
H1772 C1776 0.949 . S
C1773 C1774 1.349 . S
C1773 C1775 1.327 . S
C1773 H1796 0.950 . S
C1774 C1773 1.349 . S
C1774 C1786 1.349 . S
C1775 C1773 1.327 . S
C1775 C1791 1.429 . S
C1775 H1797 0.950 . S
C1776 H1772 0.949 . S
C1776 C1784 1.574 . S
C1776 C1792 1.368 . S
H1777 C1785 0.950 . S
H1778 C1783 0.950 . S
H1779 C1784 0.949 . S
H1780 C1786 0.950 . S
H1781 C1787 0.950 . S
H1782 C1788 0.949 . S
C1783 H1778 0.950 . S
C1783 C1785 1.327 . S
C1783 C1789 1.429 . S
C1784 C1776 1.574 . S
C1784 H1779 0.949 . S
C1784 C1790 1.368 . S
C1785 C1769 1.349 . S
C1785 H1777 0.950 . S
C1785 C1783 1.327 . S
C1786 C1774 1.349 . S
C1786 H1780 0.950 . S
C1786 C1787 1.327 . S
C1787 H1781 0.950 . S
C1787 C1786 1.327 . S
C1787 C1791 1.429 . S
C1788 C1771 1.574 . S
C1788 H1782 0.949 . S
C1788 C1792 1.368 . S
C1789 C1770 1.429 . S
C1789 C1783 1.429 . S
C1789 C1790 1.523 . S
C1790 C1771 1.368 . S
C1790 C1784 1.368 . S
C1790 C1789 1.523 . S
C1791 C1775 1.429 . S
C1791 C1787 1.429 . S
C1791 C1792 1.523 . S
C1792 C1776 1.368 . S
C1792 C1788 1.368 . S
C1792 C1791 1.523 . S
H1793 C1768 0.950 . S
H1794 C1770 0.950 . S
H1795 C1771 0.949 . S
H1796 C1773 0.950 . S
H1797 C1775 0.950 . S
C1798 C1799 1.349 . S
C1798 C1800 1.327 . S
C1798 H1823 0.950 . S
C1799 C1798 1.349 . S
C1799 C1815 1.349 . S
C1800 C1798 1.327 . S
C1800 C1819 1.429 . S
C1800 H1824 0.950 . S
C1801 C1818 1.574 . S
C1801 C1820 1.368 . S
C1801 H1825 0.949 . S
H1802 C1806 0.949 . S
C1803 C1804 1.349 . S
C1803 C1805 1.327 . S
C1803 H1826 0.950 . S
C1804 C1803 1.349 . S
C1804 C1816 1.349 . S
C1805 C1803 1.327 . S
C1805 C1821 1.429 . S
C1805 H1827 0.950 . S
C1806 H1802 0.949 . S
C1806 C1814 1.574 . S
C1806 C1822 1.368 . S
H1807 C1815 0.950 . S
H1808 C1813 0.950 . S
H1809 C1814 0.949 . S
H1810 C1816 0.950 . S
H1811 C1817 0.950 . S
H1812 C1818 0.949 . S
C1813 H1808 0.950 . S
C1813 C1815 1.327 . S
C1813 C1819 1.429 . S
C1814 C1806 1.574 . S
C1814 H1809 0.949 . S
C1814 C1820 1.368 . S
C1815 C1799 1.349 . S
C1815 H1807 0.950 . S
C1815 C1813 1.327 . S
C1816 C1804 1.349 . S
C1816 H1810 0.950 . S
C1816 C1817 1.327 . S
C1817 H1811 0.950 . S
C1817 C1816 1.327 . S
C1817 C1821 1.429 . S
C1818 C1801 1.574 . S
C1818 H1812 0.949 . S
C1818 C1822 1.368 . S
C1819 C1800 1.429 . S
C1819 C1813 1.429 . S
C1819 C1820 1.523 . S
C1820 C1801 1.368 . S
C1820 C1814 1.368 . S
C1820 C1819 1.523 . S
C1821 C1805 1.429 . S
C1821 C1817 1.429 . S
C1821 C1822 1.523 . S
C1822 C1806 1.368 . S
C1822 C1818 1.368 . S
C1822 C1821 1.523 . S
H1823 C1798 0.950 . S
H1824 C1800 0.950 . S
H1825 C1801 0.949 . S
H1826 C1803 0.950 . S
H1827 C1805 0.950 . S
C1828 C1829 1.349 . S
C1828 C1830 1.327 . S
C1828 H1853 0.950 . S
C1829 C1828 1.349 . S
C1829 C1845 1.349 . S
C1830 C1828 1.327 . S
C1830 C1849 1.429 . S
C1830 H1854 0.950 . S
C1831 C1848 1.574 . S
C1831 C1850 1.368 . S
C1831 H1855 0.949 . S
H1832 C1836 0.949 . S
C1833 C1834 1.349 . S
C1833 C1835 1.327 . S
C1833 H1856 0.950 . S
C1834 C1833 1.349 . S
C1834 C1846 1.349 . S
C1835 C1833 1.327 . S
C1835 C1851 1.429 . S
C1835 H1857 0.950 . S
C1836 H1832 0.949 . S
C1836 C1844 1.574 . S
C1836 C1852 1.368 . S
H1837 C1845 0.950 . S
H1838 C1843 0.950 . S
H1839 C1844 0.949 . S
H1840 C1846 0.950 . S
H1841 C1847 0.950 . S
H1842 C1848 0.949 . S
C1843 H1838 0.950 . S
C1843 C1845 1.327 . S
C1843 C1849 1.429 . S
C1844 C1836 1.574 . S
C1844 H1839 0.949 . S
C1844 C1850 1.368 1_554 S
C1845 C1829 1.349 . S
C1845 H1837 0.950 . S
C1845 C1843 1.327 . S
C1846 C1834 1.349 . S
C1846 H1840 0.950 . S
C1846 C1847 1.327 . S
C1847 H1841 0.950 . S
C1847 C1846 1.327 . S
C1847 C1851 1.429 . S
C1848 C1831 1.574 . S
C1848 H1842 0.949 . S
C1848 C1852 1.368 1_556 S
C1849 C1830 1.429 . S
C1849 C1843 1.429 . S
C1849 C1850 1.523 . S
C1850 C1831 1.368 . S
C1850 C1844 1.368 1_556 S
C1850 C1849 1.523 . S
C1851 C1835 1.429 . S
C1851 C1847 1.429 . S
C1851 C1852 1.523 . S
C1852 C1836 1.368 . S
C1852 C1848 1.368 1_554 S
C1852 C1851 1.523 . S
H1853 C1828 0.950 . S
H1854 C1830 0.950 . S
H1855 C1831 0.949 . S
H1856 C1833 0.950 . S
H1857 C1835 0.950 . S
C1858 C1859 1.349 . S
C1858 C1860 1.327 . S
C1858 H1883 0.950 . S
C1859 C1858 1.349 . S
C1859 C1875 1.349 . S
C1860 C1858 1.327 . S
C1860 C1879 1.429 . S
C1860 H1884 0.950 . S
C1861 C1878 1.574 . S
C1861 C1880 1.368 . S
C1861 H1885 0.949 . S
H1862 C1866 0.949 . S
C1863 C1864 1.349 . S
C1863 C1865 1.327 . S
C1863 H1886 0.950 . S
C1864 C1863 1.349 . S
C1864 C1876 1.349 . S
C1865 C1863 1.327 . S
C1865 C1881 1.429 . S
C1865 H1887 0.950 . S
C1866 H1862 0.949 . S
C1866 C1874 1.574 . S
C1866 C1882 1.368 . S
H1867 C1875 0.950 . S
H1868 C1873 0.950 . S
H1869 C1874 0.949 . S
H1870 C1876 0.950 . S
H1871 C1877 0.950 . S
H1872 C1878 0.949 . S
C1873 H1868 0.950 . S
C1873 C1875 1.327 . S
C1873 C1879 1.429 . S
C1874 C1866 1.574 . S
C1874 H1869 0.949 . S
C1874 C1880 1.368 . S
C1875 C1859 1.349 . S
C1875 H1867 0.950 . S
C1875 C1873 1.327 . S
C1876 C1864 1.349 . S
C1876 H1870 0.950 . S
C1876 C1877 1.327 . S
C1877 H1871 0.950 . S
C1877 C1876 1.327 . S
C1877 C1881 1.429 . S
C1878 C1861 1.574 . S
C1878 H1872 0.949 . S
C1878 C1882 1.368 . S
C1879 C1860 1.429 . S
C1879 C1873 1.429 . S
C1879 C1880 1.523 . S
C1880 C1861 1.368 . S
C1880 C1874 1.368 . S
C1880 C1879 1.523 . S
C1881 C1865 1.429 . S
C1881 C1877 1.429 . S
C1881 C1882 1.523 . S
C1882 C1866 1.368 . S
C1882 C1878 1.368 . S
C1882 C1881 1.523 . S
H1883 C1858 0.950 . S
H1884 C1860 0.950 . S
H1885 C1861 0.949 . S
H1886 C1863 0.950 . S
H1887 C1865 0.950 . S
C1888 C1889 1.349 . S
C1888 C1890 1.327 . S
C1888 H1913 0.950 . S
C1889 C1888 1.349 . S
C1889 C1905 1.349 . S
C1890 C1888 1.327 . S
C1890 C1909 1.429 . S
C1890 H1914 0.950 . S
C1891 C1908 1.574 . S
C1891 C1910 1.368 . S
C1891 H1915 0.949 . S
H1892 C1896 0.949 . S
C1893 C1894 1.349 . S
C1893 C1895 1.327 . S
C1893 H1916 0.950 . S
C1894 C1893 1.349 . S
C1894 C1906 1.349 . S
C1895 C1893 1.327 . S
C1895 C1911 1.429 . S
C1895 H1917 0.950 . S
C1896 H1892 0.949 . S
C1896 C1904 1.574 . S
C1896 C1912 1.368 . S
H1897 C1905 0.950 . S
H1898 C1903 0.950 . S
H1899 C1904 0.949 . S
H1900 C1906 0.950 . S
H1901 C1907 0.950 . S
H1902 C1908 0.949 . S
C1903 H1898 0.950 . S
C1903 C1905 1.327 . S
C1903 C1909 1.429 . S
C1904 C1896 1.574 . S
C1904 H1899 0.949 . S
C1904 C1910 1.368 . S
C1905 C1889 1.349 . S
C1905 H1897 0.950 . S
C1905 C1903 1.327 . S
C1906 C1894 1.349 . S
C1906 H1900 0.950 . S
C1906 C1907 1.327 . S
C1907 H1901 0.950 . S
C1907 C1906 1.327 . S
C1907 C1911 1.429 . S
C1908 C1891 1.574 . S
C1908 H1902 0.949 . S
C1908 C1912 1.368 . S
C1909 C1890 1.429 . S
C1909 C1903 1.429 . S
C1909 C1910 1.523 . S
C1910 C1891 1.368 . S
C1910 C1904 1.368 . S
C1910 C1909 1.523 . S
C1911 C1895 1.429 . S
C1911 C1907 1.429 . S
C1911 C1912 1.523 . S
C1912 C1896 1.368 . S
C1912 C1908 1.368 . S
C1912 C1911 1.523 . S
H1913 C1888 0.950 . S
H1914 C1890 0.950 . S
H1915 C1891 0.949 . S
H1916 C1893 0.950 . S
H1917 C1895 0.950 . S
C1918 C1919 1.349 . S
C1918 C1920 1.327 . S
C1918 H1943 0.950 . S
C1919 C1918 1.349 . S
C1919 C1935 1.349 . S
C1920 C1918 1.327 . S
C1920 C1939 1.429 . S
C1920 H1944 0.950 . S
C1921 C1938 1.574 . S
C1921 C1940 1.368 . S
C1921 H1945 0.949 . S
H1922 C1926 0.949 . S
C1923 C1924 1.349 . S
C1923 C1925 1.327 . S
C1923 H1946 0.950 . S
C1924 C1923 1.349 . S
C1924 C1936 1.349 . S
C1925 C1923 1.327 . S
C1925 C1941 1.429 . S
C1925 H1947 0.950 . S
C1926 H1922 0.949 . S
C1926 C1934 1.574 . S
C1926 C1942 1.368 . S
H1927 C1935 0.950 . S
H1928 C1933 0.950 . S
H1929 C1934 0.949 . S
H1930 C1936 0.950 . S
H1931 C1937 0.950 . S
H1932 C1938 0.949 . S
C1933 H1928 0.950 . S
C1933 C1935 1.327 . S
C1933 C1939 1.429 . S
C1934 C1926 1.574 . S
C1934 H1929 0.949 . S
C1934 C1940 1.368 . S
C1935 C1919 1.349 . S
C1935 H1927 0.950 . S
C1935 C1933 1.327 . S
C1936 C1924 1.349 . S
C1936 H1930 0.950 . S
C1936 C1937 1.327 . S
C1937 H1931 0.950 . S
C1937 C1936 1.327 . S
C1937 C1941 1.429 . S
C1938 C1921 1.574 . S
C1938 H1932 0.949 . S
C1938 C1942 1.368 . S
C1939 C1920 1.429 . S
C1939 C1933 1.429 . S
C1939 C1940 1.523 . S
C1940 C1921 1.368 . S
C1940 C1934 1.368 . S
C1940 C1939 1.523 . S
C1941 C1925 1.429 . S
C1941 C1937 1.429 . S
C1941 C1942 1.523 . S
C1942 C1926 1.368 . S
C1942 C1938 1.368 . S
C1942 C1941 1.523 . S
H1943 C1918 0.950 . S
H1944 C1920 0.950 . S
H1945 C1921 0.949 . S
H1946 C1923 0.950 . S
H1947 C1925 0.950 . S
C1948 C1949 1.349 . S
C1948 C1950 1.327 . S
C1948 H1973 0.950 . S
C1949 C1948 1.349 . S
C1949 C1965 1.349 . S
C1950 C1948 1.327 . S
C1950 C1969 1.429 . S
C1950 H1974 0.950 . S
C1951 C1968 1.574 . S
C1951 C1970 1.368 . S
C1951 H1975 0.949 . S
H1952 C1956 0.949 . S
C1953 C1954 1.349 . S
C1953 C1955 1.327 . S
C1953 H1976 0.950 . S
C1954 C1953 1.349 . S
C1954 C1966 1.349 . S
C1955 C1953 1.327 . S
C1955 C1971 1.429 . S
C1955 H1977 0.950 . S
C1956 H1952 0.949 . S
C1956 C1964 1.574 . S
C1956 C1972 1.368 . S
H1957 C1965 0.950 . S
H1958 C1963 0.950 . S
H1959 C1964 0.949 . S
H1960 C1966 0.950 . S
H1961 C1967 0.950 . S
H1962 C1968 0.949 . S
C1963 H1958 0.950 . S
C1963 C1965 1.327 . S
C1963 C1969 1.429 . S
C1964 C1956 1.574 . S
C1964 H1959 0.949 . S
C1964 C1970 1.368 . S
C1965 C1949 1.349 . S
C1965 H1957 0.950 . S
C1965 C1963 1.327 . S
C1966 C1954 1.349 . S
C1966 H1960 0.950 . S
C1966 C1967 1.327 . S
C1967 H1961 0.950 . S
C1967 C1966 1.327 . S
C1967 C1971 1.429 . S
C1968 C1951 1.574 . S
C1968 H1962 0.949 . S
C1968 C1972 1.368 . S
C1969 C1950 1.429 . S
C1969 C1963 1.429 . S
C1969 C1970 1.523 . S
C1970 C1951 1.368 . S
C1970 C1964 1.368 . S
C1970 C1969 1.523 . S
C1971 C1955 1.429 . S
C1971 C1967 1.429 . S
C1971 C1972 1.523 . S
C1972 C1956 1.368 . S
C1972 C1968 1.368 . S
C1972 C1971 1.523 . S
H1973 C1948 0.950 . S
H1974 C1950 0.950 . S
H1975 C1951 0.949 . S
H1976 C1953 0.950 . S
H1977 C1955 0.950 . S
C1978 C1979 1.349 . S
C1978 C1980 1.327 . S
C1978 H2003 0.950 . S
C1979 C1978 1.349 . S
C1979 C1995 1.349 . S
C1980 C1978 1.327 . S
C1980 C1999 1.429 . S
C1980 H2004 0.950 . S
C1981 C1998 1.574 . S
C1981 C2000 1.368 . S
C1981 H2005 0.949 . S
H1982 C1986 0.949 . S
C1983 C1984 1.349 . S
C1983 C1985 1.327 . S
C1983 H2006 0.950 . S
C1984 C1983 1.349 . S
C1984 C1996 1.349 . S
C1985 C1983 1.327 . S
C1985 C2001 1.429 . S
C1985 H2007 0.950 . S
C1986 H1982 0.949 . S
C1986 C1994 1.574 . S
C1986 C2002 1.368 . S
H1987 C1995 0.950 . S
H1988 C1993 0.950 . S
H1989 C1994 0.949 . S
H1990 C1996 0.950 . S
H1991 C1997 0.950 . S
H1992 C1998 0.949 . S
C1993 H1988 0.950 . S
C1993 C1995 1.327 . S
C1993 C1999 1.429 . S
C1994 C1986 1.574 . S
C1994 H1989 0.949 . S
C1994 C2000 1.368 . S
C1995 C1979 1.349 . S
C1995 H1987 0.950 . S
C1995 C1993 1.327 . S
C1996 C1984 1.349 . S
C1996 H1990 0.950 . S
C1996 C1997 1.327 . S
C1997 H1991 0.950 . S
C1997 C1996 1.327 . S
C1997 C2001 1.429 . S
C1998 C1981 1.574 . S
C1998 H1992 0.949 . S
C1998 C2002 1.368 . S
C1999 C1980 1.429 . S
C1999 C1993 1.429 . S
C1999 C2000 1.523 . S
C2000 C1981 1.368 . S
C2000 C1994 1.368 . S
C2000 C1999 1.523 . S
C2001 C1985 1.429 . S
C2001 C1997 1.429 . S
C2001 C2002 1.523 . S
C2002 C1986 1.368 . S
C2002 C1998 1.368 . S
C2002 C2001 1.523 . S
H2003 C1978 0.950 . S
H2004 C1980 0.950 . S
H2005 C1981 0.949 . S
H2006 C1983 0.950 . S
H2007 C1985 0.950 . S
C2008 C2009 1.349 . S
C2008 C2010 1.327 . S
C2008 H2033 0.950 . S
C2009 C2008 1.349 . S
C2009 C2025 1.349 . S
C2010 C2008 1.327 . S
C2010 C2029 1.429 . S
C2010 H2034 0.950 . S
C2011 C2028 1.574 . S
C2011 C2030 1.368 . S
C2011 H2035 0.949 . S
H2012 C2016 0.949 . S
C2013 C2014 1.349 . S
C2013 C2015 1.327 . S
C2013 H2036 0.950 . S
C2014 C2013 1.349 . S
C2014 C2026 1.349 . S
C2015 C2013 1.327 . S
C2015 C2031 1.429 . S
C2015 H2037 0.950 . S
C2016 H2012 0.949 . S
C2016 C2024 1.574 . S
C2016 C2032 1.368 . S
H2017 C2025 0.950 . S
H2018 C2023 0.950 . S
H2019 C2024 0.949 . S
H2020 C2026 0.950 . S
H2021 C2027 0.950 . S
H2022 C2028 0.949 . S
C2023 H2018 0.950 . S
C2023 C2025 1.327 . S
C2023 C2029 1.429 . S
C2024 C2016 1.574 . S
C2024 H2019 0.949 . S
C2024 C2030 1.368 . S
C2025 C2009 1.349 . S
C2025 H2017 0.950 . S
C2025 C2023 1.327 . S
C2026 C2014 1.349 . S
C2026 H2020 0.950 . S
C2026 C2027 1.327 . S
C2027 H2021 0.950 . S
C2027 C2026 1.327 . S
C2027 C2031 1.429 . S
C2028 C2011 1.574 . S
C2028 H2022 0.949 . S
C2028 C2032 1.368 . S
C2029 C2010 1.429 . S
C2029 C2023 1.429 . S
C2029 C2030 1.523 . S
C2030 C2011 1.368 . S
C2030 C2024 1.368 . S
C2030 C2029 1.523 . S
C2031 C2015 1.429 . S
C2031 C2027 1.429 . S
C2031 C2032 1.523 . S
C2032 C2016 1.368 . S
C2032 C2028 1.368 . S
C2032 C2031 1.523 . S
H2033 C2008 0.950 . S
H2034 C2010 0.950 . S
H2035 C2011 0.949 . S
H2036 C2013 0.950 . S
H2037 C2015 0.950 . S
C2038 C2039 1.349 . S
C2038 C2040 1.327 . S
C2038 H2063 0.950 . S
C2039 C2038 1.349 . S
C2039 C2055 1.349 . S
C2040 C2038 1.327 . S
C2040 C2059 1.429 . S
C2040 H2064 0.950 . S
C2041 C2058 1.574 . S
C2041 C2060 1.368 . S
C2041 H2065 0.949 . S
H2042 C2046 0.949 . S
C2043 C2044 1.349 . S
C2043 C2045 1.327 . S
C2043 H2066 0.950 . S
C2044 C2043 1.349 . S
C2044 C2056 1.349 . S
C2045 C2043 1.327 . S
C2045 C2061 1.429 . S
C2045 H2067 0.950 . S
C2046 H2042 0.949 . S
C2046 C2054 1.574 . S
C2046 C2062 1.368 . S
H2047 C2055 0.950 . S
H2048 C2053 0.950 . S
H2049 C2054 0.949 . S
H2050 C2056 0.950 . S
H2051 C2057 0.950 . S
H2052 C2058 0.949 . S
C2053 H2048 0.950 . S
C2053 C2055 1.327 . S
C2053 C2059 1.429 . S
C2054 C2046 1.574 . S
C2054 H2049 0.949 . S
C2054 C2060 1.368 . S
C2055 C2039 1.349 . S
C2055 H2047 0.950 . S
C2055 C2053 1.327 . S
C2056 C2044 1.349 . S
C2056 H2050 0.950 . S
C2056 C2057 1.327 . S
C2057 H2051 0.950 . S
C2057 C2056 1.327 . S
C2057 C2061 1.429 . S
C2058 C2041 1.574 . S
C2058 H2052 0.949 . S
C2058 C2062 1.368 . S
C2059 C2040 1.429 . S
C2059 C2053 1.429 . S
C2059 C2060 1.523 . S
C2060 C2041 1.368 . S
C2060 C2054 1.368 . S
C2060 C2059 1.523 . S
C2061 C2045 1.429 . S
C2061 C2057 1.429 . S
C2061 C2062 1.523 . S
C2062 C2046 1.368 . S
C2062 C2058 1.368 . S
C2062 C2061 1.523 . S
H2063 C2038 0.950 . S
H2064 C2040 0.950 . S
H2065 C2041 0.949 . S
H2066 C2043 0.950 . S
H2067 C2045 0.950 . S
C2068 C2069 1.349 . S
C2068 C2070 1.327 . S
C2068 H2093 0.950 . S
C2069 C2068 1.349 . S
C2069 C2085 1.349 . S
C2070 C2068 1.327 . S
C2070 C2089 1.429 . S
C2070 H2094 0.950 . S
C2071 C2088 1.574 . S
C2071 C2090 1.368 . S
C2071 H2095 0.949 . S
H2072 C2076 0.949 . S
C2073 C2074 1.349 . S
C2073 C2075 1.327 . S
C2073 H2096 0.950 . S
C2074 C2073 1.349 . S
C2074 C2086 1.349 . S
C2075 C2073 1.327 . S
C2075 C2091 1.429 . S
C2075 H2097 0.950 . S
C2076 H2072 0.949 . S
C2076 C2084 1.574 . S
C2076 C2092 1.368 . S
H2077 C2085 0.950 . S
H2078 C2083 0.950 . S
H2079 C2084 0.949 . S
H2080 C2086 0.950 . S
H2081 C2087 0.950 . S
H2082 C2088 0.949 . S
C2083 H2078 0.950 . S
C2083 C2085 1.327 . S
C2083 C2089 1.429 . S
C2084 C2076 1.574 . S
C2084 H2079 0.949 . S
C2084 C2090 1.368 . S
C2085 C2069 1.349 . S
C2085 H2077 0.950 . S
C2085 C2083 1.327 . S
C2086 C2074 1.349 . S
C2086 H2080 0.950 . S
C2086 C2087 1.327 . S
C2087 H2081 0.950 . S
C2087 C2086 1.327 . S
C2087 C2091 1.429 . S
C2088 C2071 1.574 . S
C2088 H2082 0.949 . S
C2088 C2092 1.368 . S
C2089 C2070 1.429 . S
C2089 C2083 1.429 . S
C2089 C2090 1.523 . S
C2090 C2071 1.368 . S
C2090 C2084 1.368 . S
C2090 C2089 1.523 . S
C2091 C2075 1.429 . S
C2091 C2087 1.429 . S
C2091 C2092 1.523 . S
C2092 C2076 1.368 . S
C2092 C2088 1.368 . S
C2092 C2091 1.523 . S
H2093 C2068 0.950 . S
H2094 C2070 0.950 . S
H2095 C2071 0.949 . S
H2096 C2073 0.950 . S
H2097 C2075 0.950 . S
C2098 C2099 1.349 . S
C2098 C2100 1.327 . S
C2098 H2123 0.950 . S
C2099 C2098 1.349 . S
C2099 C2115 1.349 . S
C2100 C2098 1.327 . S
C2100 C2119 1.429 . S
C2100 H2124 0.950 . S
C2101 C2118 1.574 . S
C2101 C2120 1.368 . S
C2101 H2125 0.949 . S
H2102 C2106 0.949 . S
C2103 C2104 1.349 . S
C2103 C2105 1.327 . S
C2103 H2126 0.950 . S
C2104 C2103 1.349 . S
C2104 C2116 1.349 . S
C2105 C2103 1.327 . S
C2105 C2121 1.429 . S
C2105 H2127 0.950 . S
C2106 H2102 0.949 . S
C2106 C2114 1.574 . S
C2106 C2122 1.368 . S
H2107 C2115 0.950 . S
H2108 C2113 0.950 . S
H2109 C2114 0.949 . S
H2110 C2116 0.950 . S
H2111 C2117 0.950 . S
H2112 C2118 0.949 . S
C2113 H2108 0.950 . S
C2113 C2115 1.327 . S
C2113 C2119 1.429 . S
C2114 C2106 1.574 . S
C2114 H2109 0.949 . S
C2114 C2120 1.368 . S
C2115 C2099 1.349 . S
C2115 H2107 0.950 . S
C2115 C2113 1.327 . S
C2116 C2104 1.349 . S
C2116 H2110 0.950 . S
C2116 C2117 1.327 . S
C2117 H2111 0.950 . S
C2117 C2116 1.327 . S
C2117 C2121 1.429 . S
C2118 C2101 1.574 . S
C2118 H2112 0.949 . S
C2118 C2122 1.368 . S
C2119 C2100 1.429 . S
C2119 C2113 1.429 . S
C2119 C2120 1.523 . S
C2120 C2101 1.368 . S
C2120 C2114 1.368 . S
C2120 C2119 1.523 . S
C2121 C2105 1.429 . S
C2121 C2117 1.429 . S
C2121 C2122 1.523 . S
C2122 C2106 1.368 . S
C2122 C2118 1.368 . S
C2122 C2121 1.523 . S
H2123 C2098 0.950 . S
H2124 C2100 0.950 . S
H2125 C2101 0.949 . S
H2126 C2103 0.950 . S
H2127 C2105 0.950 . S
C2128 C2129 1.349 . S
C2128 C2130 1.327 . S
C2128 H2153 0.950 . S
C2129 C2128 1.349 . S
C2129 C2145 1.349 . S
C2130 C2128 1.327 . S
C2130 C2149 1.429 . S
C2130 H2154 0.950 . S
C2131 C2148 1.574 . S
C2131 C2150 1.368 . S
C2131 H2155 0.949 . S
H2132 C2136 0.949 . S
C2133 C2134 1.349 . S
C2133 C2135 1.327 . S
C2133 H2156 0.950 . S
C2134 C2133 1.349 . S
C2134 C2146 1.349 . S
C2135 C2133 1.327 . S
C2135 C2151 1.429 . S
C2135 H2157 0.950 . S
C2136 H2132 0.949 . S
C2136 C2144 1.574 . S
C2136 C2152 1.368 . S
H2137 C2145 0.950 . S
H2138 C2143 0.950 . S
H2139 C2144 0.949 . S
H2140 C2146 0.950 . S
H2141 C2147 0.950 . S
H2142 C2148 0.949 . S
C2143 H2138 0.950 . S
C2143 C2145 1.327 . S
C2143 C2149 1.429 . S
C2144 C2136 1.574 . S
C2144 H2139 0.949 . S
C2144 C2150 1.368 . S
C2145 C2129 1.349 . S
C2145 H2137 0.950 . S
C2145 C2143 1.327 . S
C2146 C2134 1.349 . S
C2146 H2140 0.950 . S
C2146 C2147 1.327 . S
C2147 H2141 0.950 . S
C2147 C2146 1.327 . S
C2147 C2151 1.429 . S
C2148 C2131 1.574 . S
C2148 H2142 0.949 . S
C2148 C2152 1.368 . S
C2149 C2130 1.429 . S
C2149 C2143 1.429 . S
C2149 C2150 1.523 . S
C2150 C2131 1.368 . S
C2150 C2144 1.368 . S
C2150 C2149 1.523 . S
C2151 C2135 1.429 . S
C2151 C2147 1.429 . S
C2151 C2152 1.523 . S
C2152 C2136 1.368 . S
C2152 C2148 1.368 . S
C2152 C2151 1.523 . S
H2153 C2128 0.950 . S
H2154 C2130 0.950 . S
H2155 C2131 0.949 . S
H2156 C2133 0.950 . S
H2157 C2135 0.950 . S
C2158 C2159 1.349 . S
C2158 C2160 1.327 . S
C2158 H2183 0.950 . S
C2159 C2158 1.349 . S
C2159 C2175 1.349 . S
C2160 C2158 1.327 . S
C2160 C2179 1.429 . S
C2160 H2184 0.950 . S
C2161 C2178 1.574 . S
C2161 C2180 1.368 . S
C2161 H2185 0.949 . S
H2162 C2166 0.949 . S
C2163 C2164 1.349 . S
C2163 C2165 1.327 . S
C2163 H2186 0.950 . S
C2164 C2163 1.349 . S
C2164 C2176 1.349 . S
C2165 C2163 1.327 . S
C2165 C2181 1.429 . S
C2165 H2187 0.950 . S
C2166 H2162 0.949 . S
C2166 C2174 1.574 . S
C2166 C2182 1.368 . S
H2167 C2175 0.950 . S
H2168 C2173 0.950 . S
H2169 C2174 0.949 . S
H2170 C2176 0.950 . S
H2171 C2177 0.950 . S
H2172 C2178 0.949 . S
C2173 H2168 0.950 . S
C2173 C2175 1.327 . S
C2173 C2179 1.429 . S
C2174 C2166 1.574 . S
C2174 H2169 0.949 . S
C2174 C2180 1.368 . S
C2175 C2159 1.349 . S
C2175 H2167 0.950 . S
C2175 C2173 1.327 . S
C2176 C2164 1.349 . S
C2176 H2170 0.950 . S
C2176 C2177 1.327 . S
C2177 H2171 0.950 . S
C2177 C2176 1.327 . S
C2177 C2181 1.429 . S
C2178 C2161 1.574 . S
C2178 H2172 0.949 . S
C2178 C2182 1.368 . S
C2179 C2160 1.429 . S
C2179 C2173 1.429 . S
C2179 C2180 1.523 . S
C2180 C2161 1.368 . S
C2180 C2174 1.368 . S
C2180 C2179 1.523 . S
C2181 C2165 1.429 . S
C2181 C2177 1.429 . S
C2181 C2182 1.523 . S
C2182 C2166 1.368 . S
C2182 C2178 1.368 . S
C2182 C2181 1.523 . S
H2183 C2158 0.950 . S
H2184 C2160 0.950 . S
H2185 C2161 0.949 . S
H2186 C2163 0.950 . S
H2187 C2165 0.950 . S
C2188 C2189 1.349 . S
C2188 C2190 1.327 . S
C2188 H2213 0.950 . S
C2189 C2188 1.349 . S
C2189 C2205 1.349 . S
C2190 C2188 1.327 . S
C2190 C2209 1.429 . S
C2190 H2214 0.950 . S
C2191 C2208 1.574 . S
C2191 C2210 1.368 . S
C2191 H2215 0.949 . S
H2192 C2196 0.949 . S
C2193 C2194 1.349 . S
C2193 C2195 1.327 . S
C2193 H2216 0.950 . S
C2194 C2193 1.349 . S
C2194 C2206 1.349 . S
C2195 C2193 1.327 . S
C2195 C2211 1.429 . S
C2195 H2217 0.950 . S
C2196 H2192 0.949 . S
C2196 C2204 1.574 . S
C2196 C2212 1.368 . S
H2197 C2205 0.950 . S
H2198 C2203 0.950 . S
H2199 C2204 0.949 . S
H2200 C2206 0.950 . S
H2201 C2207 0.950 . S
H2202 C2208 0.949 . S
C2203 H2198 0.950 . S
C2203 C2205 1.327 . S
C2203 C2209 1.429 . S
C2204 C2196 1.574 . S
C2204 H2199 0.949 . S
C2204 C2210 1.368 . S
C2205 C2189 1.349 . S
C2205 H2197 0.950 . S
C2205 C2203 1.327 . S
C2206 C2194 1.349 . S
C2206 H2200 0.950 . S
C2206 C2207 1.327 . S
C2207 H2201 0.950 . S
C2207 C2206 1.327 . S
C2207 C2211 1.429 . S
C2208 C2191 1.574 . S
C2208 H2202 0.949 . S
C2208 C2212 1.368 . S
C2209 C2190 1.429 . S
C2209 C2203 1.429 . S
C2209 C2210 1.523 . S
C2210 C2191 1.368 . S
C2210 C2204 1.368 . S
C2210 C2209 1.523 . S
C2211 C2195 1.429 . S
C2211 C2207 1.429 . S
C2211 C2212 1.523 . S
C2212 C2196 1.368 . S
C2212 C2208 1.368 . S
C2212 C2211 1.523 . S
H2213 C2188 0.950 . S
H2214 C2190 0.950 . S
H2215 C2191 0.949 . S
H2216 C2193 0.950 . S
H2217 C2195 0.950 . S
C2218 C2219 1.349 . S
C2218 C2220 1.327 . S
C2218 H2243 0.950 . S
C2219 C2218 1.349 . S
C2219 C2235 1.349 . S
C2220 C2218 1.327 . S
C2220 C2239 1.429 . S
C2220 H2244 0.950 . S
C2221 C2238 1.574 . S
C2221 C2240 1.368 . S
C2221 H2245 0.949 . S
H2222 C2226 0.949 . S
C2223 C2224 1.349 . S
C2223 C2225 1.327 . S
C2223 H2246 0.950 . S
C2224 C2223 1.349 . S
C2224 C2236 1.349 . S
C2225 C2223 1.327 . S
C2225 C2241 1.429 . S
C2225 H2247 0.950 . S
C2226 H2222 0.949 . S
C2226 C2234 1.574 . S
C2226 C2242 1.368 . S
H2227 C2235 0.950 . S
H2228 C2233 0.950 . S
H2229 C2234 0.949 . S
H2230 C2236 0.950 . S
H2231 C2237 0.950 . S
H2232 C2238 0.949 . S
C2233 H2228 0.950 . S
C2233 C2235 1.327 . S
C2233 C2239 1.429 . S
C2234 C2226 1.574 . S
C2234 H2229 0.949 . S
C2234 C2240 1.368 . S
C2235 C2219 1.349 . S
C2235 H2227 0.950 . S
C2235 C2233 1.327 . S
C2236 C2224 1.349 . S
C2236 H2230 0.950 . S
C2236 C2237 1.327 . S
C2237 H2231 0.950 . S
C2237 C2236 1.327 . S
C2237 C2241 1.429 . S
C2238 C2221 1.574 . S
C2238 H2232 0.949 . S
C2238 C2242 1.368 . S
C2239 C2220 1.429 . S
C2239 C2233 1.429 . S
C2239 C2240 1.523 . S
C2240 C2221 1.368 . S
C2240 C2234 1.368 . S
C2240 C2239 1.523 . S
C2241 C2225 1.429 . S
C2241 C2237 1.429 . S
C2241 C2242 1.523 . S
C2242 C2226 1.368 . S
C2242 C2238 1.368 . S
C2242 C2241 1.523 . S
H2243 C2218 0.950 . S
H2244 C2220 0.950 . S
H2245 C2221 0.949 . S
H2246 C2223 0.950 . S
H2247 C2225 0.950 . S
C2248 C2249 1.349 . S
C2248 C2250 1.327 . S
C2248 H2273 0.950 . S
C2249 C2248 1.349 . S
C2249 C2265 1.349 . S
C2250 C2248 1.327 . S
C2250 C2269 1.429 . S
C2250 H2274 0.950 . S
C2251 C2268 1.574 . S
C2251 C2270 1.368 . S
C2251 H2275 0.949 . S
H2252 C2256 0.949 . S
C2253 C2254 1.349 . S
C2253 C2255 1.327 . S
C2253 H2276 0.950 . S
C2254 C2253 1.349 . S
C2254 C2266 1.349 . S
C2255 C2253 1.327 . S
C2255 C2271 1.429 . S
C2255 H2277 0.950 . S
C2256 H2252 0.949 . S
C2256 C2264 1.574 . S
C2256 C2272 1.368 . S
H2257 C2265 0.950 . S
H2258 C2263 0.950 . S
H2259 C2264 0.949 . S
H2260 C2266 0.950 . S
H2261 C2267 0.950 . S
H2262 C2268 0.949 . S
C2263 H2258 0.950 . S
C2263 C2265 1.327 . S
C2263 C2269 1.429 . S
C2264 C2256 1.574 . S
C2264 H2259 0.949 . S
C2264 C2270 1.368 . S
C2265 C2249 1.349 . S
C2265 H2257 0.950 . S
C2265 C2263 1.327 . S
C2266 C2254 1.349 . S
C2266 H2260 0.950 . S
C2266 C2267 1.327 . S
C2267 H2261 0.950 . S
C2267 C2266 1.327 . S
C2267 C2271 1.429 . S
C2268 C2251 1.574 . S
C2268 H2262 0.949 . S
C2268 C2272 1.368 . S
C2269 C2250 1.429 . S
C2269 C2263 1.429 . S
C2269 C2270 1.523 . S
C2270 C2251 1.368 . S
C2270 C2264 1.368 . S
C2270 C2269 1.523 . S
C2271 C2255 1.429 . S
C2271 C2267 1.429 . S
C2271 C2272 1.523 . S
C2272 C2256 1.368 . S
C2272 C2268 1.368 . S
C2272 C2271 1.523 . S
H2273 C2248 0.950 . S
H2274 C2250 0.950 . S
H2275 C2251 0.949 . S
H2276 C2253 0.950 . S
H2277 C2255 0.950 . S
C2278 C2279 1.349 . S
C2278 C2280 1.327 . S
C2278 H2303 0.950 . S
C2279 C2278 1.349 . S
C2279 C2295 1.349 . S
C2280 C2278 1.327 . S
C2280 C2299 1.429 . S
C2280 H2304 0.950 . S
C2281 C2298 1.574 . S
C2281 C2300 1.368 . S
C2281 H2305 0.949 . S
H2282 C2286 0.949 . S
C2283 C2284 1.349 . S
C2283 C2285 1.327 . S
C2283 H2306 0.950 . S
C2284 C2283 1.349 . S
C2284 C2296 1.349 . S
C2285 C2283 1.327 . S
C2285 C2301 1.429 . S
C2285 H2307 0.950 . S
C2286 H2282 0.949 . S
C2286 C2294 1.574 . S
C2286 C2302 1.368 . S
H2287 C2295 0.950 . S
H2288 C2293 0.950 . S
H2289 C2294 0.949 . S
H2290 C2296 0.950 . S
H2291 C2297 0.950 . S
H2292 C2298 0.949 . S
C2293 H2288 0.950 . S
C2293 C2295 1.327 . S
C2293 C2299 1.429 . S
C2294 C2286 1.574 . S
C2294 H2289 0.949 . S
C2294 C2300 1.368 . S
C2295 C2279 1.349 . S
C2295 H2287 0.950 . S
C2295 C2293 1.327 . S
C2296 C2284 1.349 . S
C2296 H2290 0.950 . S
C2296 C2297 1.327 . S
C2297 H2291 0.950 . S
C2297 C2296 1.327 . S
C2297 C2301 1.429 . S
C2298 C2281 1.574 . S
C2298 H2292 0.949 . S
C2298 C2302 1.368 . S
C2299 C2280 1.429 . S
C2299 C2293 1.429 . S
C2299 C2300 1.523 . S
C2300 C2281 1.368 . S
C2300 C2294 1.368 . S
C2300 C2299 1.523 . S
C2301 C2285 1.429 . S
C2301 C2297 1.429 . S
C2301 C2302 1.523 . S
C2302 C2286 1.368 . S
C2302 C2298 1.368 . S
C2302 C2301 1.523 . S
H2303 C2278 0.950 . S
H2304 C2280 0.950 . S
H2305 C2281 0.949 . S
H2306 C2283 0.950 . S
H2307 C2285 0.950 . S
C2308 C2309 1.349 . S
C2308 C2310 1.327 . S
C2308 H2333 0.950 . S
C2309 C2308 1.349 . S
C2309 C2325 1.349 . S
C2310 C2308 1.327 . S
C2310 C2329 1.429 . S
C2310 H2334 0.950 . S
C2311 C2328 1.574 . S
C2311 C2330 1.368 . S
C2311 H2335 0.949 . S
H2312 C2316 0.949 . S
C2313 C2314 1.349 . S
C2313 C2315 1.327 . S
C2313 H2336 0.950 . S
C2314 C2313 1.349 . S
C2314 C2326 1.349 . S
C2315 C2313 1.327 . S
C2315 C2331 1.429 . S
C2315 H2337 0.950 . S
C2316 H2312 0.949 . S
C2316 C2324 1.574 . S
C2316 C2332 1.368 . S
H2317 C2325 0.950 . S
H2318 C2323 0.950 . S
H2319 C2324 0.949 . S
H2320 C2326 0.950 . S
H2321 C2327 0.950 . S
H2322 C2328 0.949 . S
C2323 H2318 0.950 . S
C2323 C2325 1.327 . S
C2323 C2329 1.429 . S
C2324 C2316 1.574 . S
C2324 H2319 0.949 . S
C2324 C2330 1.368 . S
C2325 C2309 1.349 . S
C2325 H2317 0.950 . S
C2325 C2323 1.327 . S
C2326 C2314 1.349 . S
C2326 H2320 0.950 . S
C2326 C2327 1.327 . S
C2327 H2321 0.950 . S
C2327 C2326 1.327 . S
C2327 C2331 1.429 . S
C2328 C2311 1.574 . S
C2328 H2322 0.949 . S
C2328 C2332 1.368 . S
C2329 C2310 1.429 . S
C2329 C2323 1.429 . S
C2329 C2330 1.523 . S
C2330 C2311 1.368 . S
C2330 C2324 1.368 . S
C2330 C2329 1.523 . S
C2331 C2315 1.429 . S
C2331 C2327 1.429 . S
C2331 C2332 1.523 . S
C2332 C2316 1.368 . S
C2332 C2328 1.368 . S
C2332 C2331 1.523 . S
H2333 C2308 0.950 . S
H2334 C2310 0.950 . S
H2335 C2311 0.949 . S
H2336 C2313 0.950 . S
H2337 C2315 0.950 . S
C2338 C2339 1.349 . S
C2338 C2340 1.327 . S
C2338 H2363 0.950 . S
C2339 C2338 1.349 . S
C2339 C2355 1.349 . S
C2340 C2338 1.327 . S
C2340 C2359 1.429 . S
C2340 H2364 0.950 . S
C2341 C2358 1.574 . S
C2341 C2360 1.368 . S
C2341 H2365 0.949 . S
H2342 C2346 0.949 . S
C2343 C2344 1.349 . S
C2343 C2345 1.327 . S
C2343 H2366 0.950 . S
C2344 C2343 1.349 . S
C2344 C2356 1.349 . S
C2345 C2343 1.327 . S
C2345 C2361 1.429 . S
C2345 H2367 0.950 . S
C2346 H2342 0.949 . S
C2346 C2354 1.574 . S
C2346 C2362 1.368 . S
H2347 C2355 0.950 . S
H2348 C2353 0.950 . S
H2349 C2354 0.949 . S
H2350 C2356 0.950 . S
H2351 C2357 0.950 . S
H2352 C2358 0.949 . S
C2353 H2348 0.950 . S
C2353 C2355 1.327 . S
C2353 C2359 1.429 . S
C2354 C2346 1.574 . S
C2354 H2349 0.949 . S
C2354 C2360 1.368 . S
C2355 C2339 1.349 . S
C2355 H2347 0.950 . S
C2355 C2353 1.327 . S
C2356 C2344 1.349 . S
C2356 H2350 0.950 . S
C2356 C2357 1.327 . S
C2357 H2351 0.950 . S
C2357 C2356 1.327 . S
C2357 C2361 1.429 . S
C2358 C2341 1.574 . S
C2358 H2352 0.949 . S
C2358 C2362 1.368 . S
C2359 C2340 1.429 . S
C2359 C2353 1.429 . S
C2359 C2360 1.523 . S
C2360 C2341 1.368 . S
C2360 C2354 1.368 . S
C2360 C2359 1.523 . S
C2361 C2345 1.429 . S
C2361 C2357 1.429 . S
C2361 C2362 1.523 . S
C2362 C2346 1.368 . S
C2362 C2358 1.368 . S
C2362 C2361 1.523 . S
H2363 C2338 0.950 . S
H2364 C2340 0.950 . S
H2365 C2341 0.949 . S
H2366 C2343 0.950 . S
H2367 C2345 0.950 . S
C449 C121 1.565 . S
C454 C9 1.565 . S
C479 C359 1.565 . S
C484 C23 1.565 . S
C509 C149 1.565 . S
C514 C37 1.565 . S
C539 C387 1.565 . S
C544 C51 1.565 . S
C569 C177 1.565 . S
C574 C65 1.565 . S
C599 C79 1.565 . S
C604 C415 1.565 . S
C629 C93 1.565 . S
C634 C205 1.565 . S
C659 C107 1.565 . S
C664 C443 1.565 . S
C689 C247 1.565 . S
C694 C135 1.565 . S
C719 C275 1.565 . S
C724 C163 1.565 . S
C749 C191 1.565 . S
C754 C303 1.565 . S
C779 C219 1.565 . S
C784 C331 1.565 . S
C809 C233 1.565 . S
C814 C345 1.565 . S
C839 C373 1.565 . S
C844 C261 1.565 . S
C869 C289 1.565 . S
C874 C401 1.565 . S
C899 C429 1.565 . S
C904 C317 1.565 . S
C929 C257 1.629 . S
C934 C5 1.629 . S
C959 C271 1.629 . S
C964 C19 1.629 . S
C989 C33 1.629 . S
C994 C229 1.629 . S
C1019 C47 1.629 . S
C1024 C243 1.629 . S
C1049 C313 1.629 . S
C1054 C61 1.629 . S
C1079 C75 1.629 . S
C1084 C327 1.629 . S
C1109 C285 1.629 . S
C1114 C89 1.629 . S
C1139 C299 1.629 . S
C1144 C103 1.629 . S
C1169 C117 1.629 . S
C1174 C369 1.629 . S
C1199 C383 1.629 . S
C1204 C131 1.629 . S
C1229 C145 1.629 . S
C1234 C341 1.629 . S
C1259 C159 1.629 . S
C1264 C355 1.629 . S
C1289 C173 1.629 . S
C1294 C425 1.629 . S
C1319 C187 1.629 . S
C1324 C439 1.629 . S
C1349 C397 1.629 . S
C1354 C201 1.629 . S
C1379 C411 1.629 . S
C1384 C215 1.629 . S
C1409 C95 1.475 . S
C1414 C11 1.475 . S
C1439 C109 1.475 . S
C1444 C25 1.475 . S
C1469 C67 1.475 . S
C1474 C39 1.475 . S
C1499 C53 1.475 . S
C1504 C81 1.475 . S
C1529 C207 1.475 . S
C1534 C123 1.475 . S
C1559 C221 1.475 . S
C1564 C137 1.475 . S
C1589 C179 1.475 . S
C1594 C151 1.475 . S
C1619 C193 1.475 . S
C1624 C165 1.475 . S
C1649 C319 1.475 . S
C1654 C235 1.475 . S
C1679 C333 1.475 . S
C1684 C249 1.475 . S
C1709 C263 1.475 . S
C1714 C291 1.475 . S
C1739 C277 1.475 . S
C1744 C305 1.475 . S
C1769 C431 1.475 . S
C1774 C347 1.475 . S
C1799 C445 1.475 . S
C1804 C361 1.475 . S
C1829 C375 1.475 . S
C1834 C403 1.475 . S
C1859 C389 1.475 . S
C1864 C417 1.475 . S
C1889 C0 1.378 . S
C1894 C294 1.378 . S
C1919 C308 1.378 . S
C1924 C14 1.378 . S
C1949 C322 1.378 . S
C1954 C28 1.378 . S
C1979 C42 1.378 . S
C1984 C280 1.378 . S
C2009 C266 1.378 . S
C2014 C56 1.378 . S
C2039 C70 1.378 . S
C2044 C224 1.378 . S
C2069 C238 1.378 . S
C2074 C84 1.378 . S
C2099 C98 1.378 . S
C2104 C252 1.378 . S
C2129 C406 1.378 . S
C2134 C112 1.378 . S
C2159 C420 1.378 . S
C2164 C126 1.378 . S
C2189 C140 1.378 . S
C2194 C434 1.378 . S
C2219 C392 1.378 . S
C2224 C154 1.378 . S
C2249 C378 1.378 . S
C2254 C168 1.378 . S
C2279 C182 1.378 . S
C2284 C336 1.378 . S
C2309 C350 1.378 . S
C2314 C196 1.378 . S
C2339 C210 1.378 . S
C2344 C364 1.378 . S
