# Generated by pormake.
# Topology umx, (4)-cn, num edge types: 1
# Building blocks:
#     Node 0, Type 0, BuildingBlock: CEKHIL_clean_sbu_0, # of connection points: 4
#     Node 1, Type 0, BuildingBlock: CEKHIL_clean_sbu_0, # of connection points: 4
#     Node 2, Type 0, BuildingBlock: CEKHIL_clean_sbu_0, # of connection points: 4
#     Node 3, Type 0, BuildingBlock: CEKHIL_clean_sbu_0, # of connection points: 4
#     Node 4, Type 0, BuildingBlock: CEKHIL_clean_sbu_0, # of connection points: 4
#     Node 5, Type 0, BuildingBlock: CEKHIL_clean_sbu_0, # of connection points: 4
#     Node 6, Type 0, BuildingBlock: CEKHIL_clean_sbu_0, # of connection points: 4
#     Node 7, Type 0, BuildingBlock: CEKHIL_clean_sbu_0, # of connection points: 4
#     Edge 8, Type (0, 0), BuildingBlock: MIFKUJ_clean_linker_0, # of connection points: 2
#     Edge 9, Type (0, 0), BuildingBlock: MIFKUJ_clean_linker_0, # of connection points: 2
#     Edge 10, Type (0, 0), BuildingBlock: MIFKUJ_clean_linker_0, # of connection points: 2
#     Edge 11, Type (0, 0), BuildingBlock: MIFKUJ_clean_linker_0, # of connection points: 2
#     Edge 12, Type (0, 0), BuildingBlock: MIFKUJ_clean_linker_0, # of connection points: 2
#     Edge 13, Type (0, 0), BuildingBlock: MIFKUJ_clean_linker_0, # of connection points: 2
#     Edge 14, Type (0, 0), BuildingBlock: MIFKUJ_clean_linker_0, # of connection points: 2
#     Edge 15, Type (0, 0), BuildingBlock: MIFKUJ_clean_linker_0, # of connection points: 2
#     Edge 16, Type (0, 0), BuildingBlock: MIFKUJ_clean_linker_0, # of connection points: 2
#     Edge 17, Type (0, 0), BuildingBlock: MIFKUJ_clean_linker_0, # of connection points: 2
#     Edge 18, Type (0, 0), BuildingBlock: MIFKUJ_clean_linker_0, # of connection points: 2
#     Edge 19, Type (0, 0), BuildingBlock: MIFKUJ_clean_linker_0, # of connection points: 2
#     Edge 20, Type (0, 0), BuildingBlock: MIFKUJ_clean_linker_0, # of connection points: 2
#     Edge 21, Type (0, 0), BuildingBlock: MIFKUJ_clean_linker_0, # of connection points: 2
#     Edge 22, Type (0, 0), BuildingBlock: MIFKUJ_clean_linker_0, # of connection points: 2
#     Edge 23, Type (0, 0), BuildingBlock: MIFKUJ_clean_linker_0, # of connection points: 2
# Relax obj value: 0.077
# Max RMSD: 0.187
# Mean RMSD: 0.187
data_MOF--net-umx--node1-CEKHIL_clean_sbu_0--edge1-MIFKUJ_clean_linker_0
_symmetry_space_group_name_H-M    P1
_symmetry_Int_Tables_number       1
_symmetry_cell_setting            triclinic
loop_
_symmetry_equiv_pos_as_xyz
'x, y, z'
_cell_length_a     50.424831
_cell_length_b     50.414834
_cell_length_c     36.486943
_cell_angle_alpha  89.786963
_cell_angle_beta   90.099098
_cell_angle_gamma 89.98971
loop_
_atom_site_label
_atom_site_type_symbol
_atom_site_fract_x
_atom_site_fract_y
_atom_site_fract_z
_atom_type_partial_charge
Co0 Co 0.19101 0.44525 0.00766 0.0
O1 O 0.22414 0.42678 0.00849 0.0
O2 O 0.18652 0.4104 0.03002 0.0
C3 C 0.1937 0.45803 0.94863 0.0
O4 O 0.15281 0.45903 0.00974 0.0
Co5 Co 0.19149 0.50605 -0.00587 0.0
O6 O 0.15295 0.50063 0.98712 0.0
C7 C 0.20525 0.48533 0.06733 0.0
C8 C 0.21166 0.40702 0.02325 0.0
C9 C 0.14066 0.48012 -0.00148 0.0
O10 O 0.19948 0.46173 0.0566 0.0
O11 O 0.20485 0.50557 0.04602 0.0
O12 O 0.18516 0.43456 0.95722 0.0
O13 O 0.20276 0.47199 0.97556 0.0
Co14 Co 0.55715 0.18991 0.50693 0.0
O15 O 0.57784 0.22131 0.50003 0.0
O16 O 0.59246 0.18499 0.5278 0.0
C17 C 0.54208 0.18842 0.44882 0.0
O18 O 0.54113 0.15322 0.51638 0.0
Co19 Co 0.4962 0.19405 0.49835 0.0
O20 O 0.4983 0.15484 0.49884 0.0
C21 C 0.52092 0.21206 0.56693 0.0
C22 C 0.59728 0.2088 0.51553 0.0
C23 C 0.51864 0.14197 0.50969 0.0
O24 O 0.54344 0.20348 0.55538 0.0
O25 O 0.49991 0.21192 0.54716 0.0
O26 O 0.56521 0.17893 0.45727 0.0
O27 O 0.52994 0.20083 0.47487 0.0
Co28 Co 0.80921 0.55296 0.01961 0.0
O29 O 0.7767 0.57249 0.01727 0.0
O30 O 0.81405 0.58798 0.04102 0.0
C31 C 0.80868 0.5392 0.96099 0.0
O32 O 0.84677 0.53803 0.02513 0.0
Co33 Co 0.80671 0.492 0.00871 0.0
O34 O 0.84583 0.49476 0.00965 0.0
C35 C 0.79089 0.51452 0.07964 0.0
C36 C 0.78925 0.59192 0.03257 0.0
C37 C 0.85834 0.51561 0.01915 0.0
O38 O 0.79837 0.53761 0.06858 0.0
O39 O 0.79086 0.49405 0.05899 0.0
O40 O 0.81757 0.56256 0.96934 0.0
O41 O 0.79778 0.52611 0.98755 0.0
Co42 Co 0.44711 0.8096 0.51701 0.0
O43 O 0.42762 0.77711 0.51918 0.0
O44 O 0.41234 0.81579 0.53842 0.0
C45 C 0.4602 0.805 0.45857 0.0
O46 O 0.46202 0.84734 0.51752 0.0
Co47 Co 0.50798 0.80651 0.50572 0.0
O48 O 0.50475 0.84546 0.49982 0.0
C49 C 0.48558 0.79363 0.57791 0.0
C50 C 0.40821 0.7906 0.53295 0.0
C51 C 0.48412 0.85858 0.50867 0.0
O52 O 0.46285 0.80192 0.56666 0.0
O53 O 0.50579 0.79165 0.55688 0.0
O54 O 0.43691 0.81438 0.46616 0.0
O55 O 0.47378 0.79626 0.4862 0.0
Co56 Co 0.18967 0.56287 0.51699 0.0
O57 O 0.22312 0.58081 0.51542 0.0
O58 O 0.18517 0.59816 0.49625 0.0
C59 C 0.1934 0.54853 0.5752 0.0
O60 O 0.15119 0.55004 0.51592 0.0
Co61 Co 0.18953 0.50165 0.52712 0.0
O62 O 0.15058 0.5063 0.52925 0.0
C63 C 0.20374 0.52439 0.4555 0.0
C64 C 0.21053 0.60099 0.50185 0.0
C65 C 0.13881 0.52808 0.52203 0.0
O66 O 0.19658 0.54743 0.46696 0.0
O67 O 0.20467 0.50393 0.47634 0.0
O68 O 0.18537 0.57246 0.56815 0.0
O69 O 0.20149 0.53503 0.54729 0.0
Co70 Co 0.44623 0.19547 0.01382 0.0
O71 O 0.42622 0.2277 0.01343 0.0
O72 O 0.4119 0.1897 0.99052 0.0
C73 C 0.45835 0.19757 0.07306 0.0
O74 O 0.46196 0.15802 0.01113 0.0
Co75 Co 0.50673 0.19904 0.02784 0.0
O76 O 0.50304 0.16028 0.0352 0.0
C77 C 0.48594 0.21264 0.95478 0.0
C78 C 0.40737 0.21462 -0.00245 0.0
C79 C 0.4834 0.14695 0.02319 0.0
O80 O 0.46268 0.20547 0.96534 0.0
O81 O 0.50608 0.21305 0.9762 0.0
O82 O 0.43536 0.18816 0.06383 0.0
O83 O 0.47202 0.20802 0.04672 0.0
Co84 Co 0.81376 0.44077 0.52835 0.0
O85 O 0.78433 0.41687 0.53176 0.0
O86 O 0.82327 0.40664 0.50737 0.0
C87 C 0.8112 0.45522 0.58627 0.0
O88 O 0.84898 0.46035 0.52236 0.0
Co89 Co 0.80421 0.50096 0.53728 0.0
O90 O 0.84327 0.50164 0.54411 0.0
C91 C 0.79136 0.47577 0.46684 0.0
C92 C 0.79943 0.39932 0.51662 0.0
C93 C 0.85819 0.48295 0.53288 0.0
O94 O 0.80112 0.45383 0.47896 0.0
O95 O 0.78902 0.49653 0.48671 0.0
O96 O 0.82344 0.43325 0.57887 0.0
O97 O 0.79871 0.46638 0.55933 0.0
Co98 Co 0.55572 0.81357 0.02409 0.0
O99 O 0.5727 0.77986 0.02971 0.0
O100 O 0.59107 0.81453 0.00253 0.0
C101 C 0.54158 0.81614 0.08257 0.0
O102 O 0.54382 0.85191 0.01487 0.0
Co103 Co 0.49473 0.81637 0.03389 0.0
O104 O 0.50025 0.85497 0.02818 0.0
C105 C 0.51647 0.79581 0.96495 0.0
C106 C 0.59311 0.78993 0.01331 0.0
C107 C 0.52217 0.86534 0.01837 0.0
O108 O 0.53997 0.8017 0.976 0.0
O109 O 0.49578 0.79858 0.98483 0.0
O110 O 0.56552 0.82316 0.07384 0.0
O111 O 0.52782 0.80556 0.05648 0.0
H112 H 0.22099 0.44845 0.11818 0.0
H113 H 0.22697 0.45491 0.18404 0.0
H114 H 0.20758 0.53783 0.17158 0.0
H115 H 0.20259 0.53175 0.10562 0.0
H116 H 0.2451 0.53293 0.22037 0.0
H117 H 0.1608 0.49029 0.2001 0.0
H118 H 0.13095 0.45556 0.17639 0.0
H119 H 0.17274 0.39664 0.23919 0.0
H120 H 0.203 0.43102 0.26299 0.0
H121 H 0.19869 0.56115 0.40031 0.0
H122 H 0.20475 0.55423 0.33469 0.0
H123 H 0.22849 0.47332 0.35526 0.0
H124 H 0.22203 0.47986 0.42088 0.0
H125 H 0.19175 0.47572 0.30299 0.0
H126 H 0.27357 0.5211 0.32787 0.0
H127 H 0.30135 0.55733 0.35201 0.0
H128 H 0.262 0.61292 0.28096 0.0
H129 H 0.23373 0.57709 0.25674 0.0
C130 C 0.21824 0.46811 0.12943 0.0
C131 C 0.21108 0.48953 0.10669 0.0
C132 C 0.22157 0.47176 0.16712 0.0
C133 C 0.21716 0.49675 0.18294 0.0
C134 C 0.21103 0.51836 0.16008 0.0
C135 C 0.20813 0.51482 0.12232 0.0
C136 C 0.21769 0.50021 0.22338 0.0
C137 C 0.23328 0.52055 0.23842 0.0
C138 C 0.20261 0.48381 0.24707 0.0
C139 C 0.1843 0.46317 0.23303 0.0
C140 C 0.1637 0.4699 0.20868 0.0
C141 C 0.1467 0.45029 0.19525 0.0
C142 C 0.15 0.4239 0.20619 0.0
C143 C 0.17024 0.41708 0.2307 0.0
C144 C 0.18729 0.43662 0.2442 0.0
C145 C 0.2055 0.54195 0.391 0.0
C146 C 0.20974 0.52103 0.41598 0.0
C147 C 0.20907 0.53807 0.35341 0.0
C148 C 0.21726 0.51331 0.34005 0.0
C149 C 0.22214 0.49259 0.36495 0.0
C150 C 0.21847 0.4964 0.40251 0.0
C151 C 0.21908 0.50849 0.30001 0.0
C152 C 0.20382 0.48793 0.28502 0.0
C153 C 0.23421 0.5249 0.27642 0.0
C154 C 0.25139 0.54643 0.29069 0.0
C155 C 0.27072 0.54108 0.31756 0.0
C156 C 0.28658 0.56154 0.33123 0.0
C157 C 0.28341 0.58742 0.31808 0.0
C158 C 0.26443 0.59287 0.29114 0.0
C159 C 0.24851 0.57249 0.27739 0.0
H160 H 0.29569 0.60323 0.32872 0.0
H161 H 0.13684 0.40874 0.19575 0.0
H162 H 0.55953 0.21159 0.62012 0.0
H163 H 0.55365 0.21834 0.68591 0.0
H164 H 0.4713 0.23756 0.66812 0.0
H165 H 0.4768 0.23062 0.60244 0.0
H166 H 0.53647 0.25894 0.73112 0.0
H167 H 0.43511 0.20647 0.73448 0.0
H168 H 0.40959 0.17374 0.69872 0.0
H169 H 0.48203 0.13891 0.66016 0.0
H170 H 0.50795 0.17117 0.69609 0.0
H171 H 0.4479 0.22431 0.9036 0.0
H172 H 0.45401 0.23164 0.83795 0.0
H173 H 0.53855 0.22212 0.85105 0.0
H174 H 0.53269 0.21561 0.91683 0.0
H175 H 0.47126 0.19859 0.78971 0.0
H176 H 0.5723 0.25355 0.78371 0.0
H177 H 0.59762 0.28634 0.81956 0.0
H178 H 0.52521 0.31695 0.86447 0.0
H179 H 0.49943 0.2846 0.82854 0.0
C180 C 0.54024 0.21765 0.63005 0.0
C181 C 0.51854 0.22016 0.60591 0.0
C182 C 0.53695 0.22158 0.66771 0.0
C183 C 0.51194 0.22799 0.68196 0.0
C184 C 0.49068 0.23219 0.65775 0.0
C185 C 0.49391 0.22825 0.62014 0.0
C186 C 0.50758 0.22821 0.72218 0.0
C187 C 0.52237 0.24564 0.74406 0.0
C188 C 0.48879 0.21121 0.73892 0.0
C189 C 0.47344 0.19143 0.71763 0.0
C190 C 0.44557 0.19176 0.71845 0.0
C191 C 0.43104 0.1733 0.69816 0.0
C192 C 0.44418 0.15432 0.67708 0.0
C193 C 0.47188 0.15369 0.67638 0.0
C194 C 0.4865 0.17207 0.69668 0.0
C195 C 0.46785 0.22413 0.89261 0.0
C196 C 0.4898 0.21933 0.91552 0.0
C197 C 0.4713 0.2283 0.85502 0.0
C198 C 0.49676 0.22763 0.83946 0.0
C199 C 0.51876 0.22331 0.86239 0.0
C200 C 0.51535 0.21945 0.90007 0.0
C201 C 0.50005 0.22946 0.799 0.0
C202 C 0.48515 0.21221 0.77696 0.0
C203 C 0.51868 0.24669 0.78224 0.0
C204 C 0.53396 0.26646 0.80366 0.0
C205 C 0.56177 0.26735 0.80111 0.0
C206 C 0.5762 0.28585 0.82148 0.0
C207 C 0.56303 0.30366 0.84436 0.0
C208 C 0.53539 0.30308 0.84684 0.0
C209 C 0.52086 0.28463 0.82652 0.0
H210 H 0.57424 0.31795 0.86013 0.0
H211 H 0.4329 0.14007 0.66135 0.0
H212 H 0.76437 0.51569 0.43152 0.0
H213 H 0.75846 0.52152 0.36543 0.0
H214 H 0.79778 0.44689 0.34636 0.0
H215 H 0.80369 0.44077 0.41228 0.0
H216 H 0.81928 0.48779 0.30624 0.0
H217 H 0.73375 0.45131 0.33057 0.0
H218 H 0.69041 0.44719 0.36121 0.0
H219 H 0.66901 0.52534 0.32447 0.0
H220 H 0.71243 0.53009 0.29404 0.0
H221 H 0.78977 0.4682 0.11849 0.0
H222 H 0.78406 0.46262 0.18449 0.0
H223 H 0.77076 0.54661 0.19598 0.0
H224 H 0.77707 0.55263 0.12974 0.0
H225 H 0.73469 0.50246 0.23933 0.0
H226 H 0.82288 0.5395 0.21961 0.0
H227 H 0.86569 0.54171 0.18715 0.0
H228 H 0.88114 0.46027 0.2147 0.0
H229 H 0.83817 0.4575 0.24686 0.0
C230 C 0.77143 0.50031 0.41334 0.0
C231 C 0.78465 0.47782 0.42729 0.0
C232 C 0.76796 0.50365 0.37555 0.0
C233 C 0.77773 0.48466 0.35101 0.0
C234 C 0.79015 0.46181 0.36486 0.0
C235 C 0.7934 0.45831 0.4026 0.0
C236 C 0.77669 0.48947 0.31091 0.0
C237 C 0.80073 0.49076 0.29167 0.0
C238 C 0.75254 0.49386 0.29195 0.0
C239 C 0.72648 0.49118 0.3104 0.0
C240 C 0.71993 0.46774 0.32936 0.0
C241 C 0.69532 0.46526 0.34661 0.0
C242 C 0.677 0.48603 0.34489 0.0
C243 C 0.68324 0.50929 0.32584 0.0
C244 C 0.70785 0.51188 0.30856 0.0
C245 C 0.78519 0.48549 0.13483 0.0
C246 C 0.78404 0.51091 0.11883 0.0
C247 C 0.78192 0.48222 0.17254 0.0
C248 C 0.77701 0.50419 0.1949 0.0
C249 C 0.77444 0.52942 0.17898 0.0
C250 C 0.77819 0.53282 0.14123 0.0
C251 C 0.77721 0.50086 0.23515 0.0
C252 C 0.75313 0.49972 0.25422 0.0
C253 C 0.80127 0.49656 0.25411 0.0
C254 C 0.82722 0.49821 0.23523 0.0
C255 C 0.8353 0.522 0.21842 0.0
C256 C 0.85961 0.52337 0.20016 0.0
C257 C 0.87609 0.50112 0.19876 0.0
C258 C 0.86833 0.47747 0.21575 0.0
C259 C 0.84401 0.476 0.23402 0.0
H260 H 0.8949 0.50221 0.1846 0.0
H261 H 0.65795 0.48406 0.35824 0.0
H262 H 0.55208 0.77003 0.92119 0.0
H263 H 0.54754 0.76033 0.85577 0.0
H264 H 0.46913 0.79476 0.85616 0.0
H265 H 0.47301 0.80304 0.92173 0.0
H266 H 0.46883 0.75527 0.81223 0.0
H267 H 0.52886 0.82987 0.82984 0.0
H268 H 0.56903 0.85141 0.85442 0.0
H269 H 0.61789 0.79399 0.80005 0.0
H270 H 0.57796 0.77195 0.77548 0.0
H271 H 0.45141 0.80525 0.63361 0.0
H272 H 0.45769 0.79757 0.69892 0.0
H273 H 0.53274 0.75961 0.67742 0.0
H274 H 0.52699 0.768 0.61179 0.0
H275 H 0.53783 0.79355 0.73102 0.0
H276 H 0.4764 0.72374 0.70509 0.0
H277 H 0.43553 0.70418 0.67965 0.0
H278 H 0.38839 0.75417 0.74883 0.0
H279 H 0.42896 0.77429 0.77434 0.0
C280 C 0.53375 0.77516 0.90734 0.0
C281 C 0.51298 0.78746 0.92647 0.0
C282 C 0.53122 0.76975 0.86992 0.0
C283 C 0.50824 0.77742 0.85072 0.0
C284 C 0.48708 0.78868 0.87023 0.0
C285 C 0.48934 0.79346 0.90776 0.0
C286 C 0.50656 0.77526 0.81013 0.0
C287 C 0.48387 0.76375 0.79448 0.0
C288 C 0.52649 0.78565 0.78679 0.0
C289 C 0.55046 0.79913 0.80116 0.0
C290 C 0.54817 0.82179 0.82327 0.0
C291 C 0.57089 0.83408 0.83719 0.0
C292 C 0.596 0.82403 0.82888 0.0
C293 C 0.59844 0.80173 0.80651 0.0
C294 C 0.57578 0.78934 0.79257 0.0
C295 C 0.46916 0.79501 0.64262 0.0
C296 C 0.48871 0.78725 0.61737 0.0
C297 C 0.47264 0.79047 0.68006 0.0
C298 C 0.4955 0.7776 0.69312 0.0
C299 C 0.5149 0.76949 0.66798 0.0
C300 C 0.51157 0.77429 0.63047 0.0
C301 C 0.49977 0.7742 0.73315 0.0
C302 C 0.52298 0.78465 0.74869 0.0
C303 C 0.4802 0.76304 0.75634 0.0
C304 C 0.45575 0.75061 0.74151 0.0
C305 C 0.45732 0.73065 0.71477 0.0
C306 C 0.4342 0.71945 0.70034 0.0
C307 C 0.40938 0.72795 0.71259 0.0
C308 C 0.40763 0.74759 0.73938 0.0
C309 C 0.43068 0.75887 0.75388 0.0
H310 H 0.39151 0.71929 0.70134 0.0
H311 H 0.61356 0.83356 0.83971 0.0
H312 H 0.76947 0.47445 0.62471 0.0
H313 H 0.76939 0.48855 0.68879 0.0
H314 H 0.85423 0.47666 0.69403 0.0
H315 H 0.85371 0.46035 0.63096 0.0
H316 H 0.83673 0.45902 0.75166 0.0
H317 H 0.8206 0.54123 0.69044 0.0
H318 H 0.79866 0.57263 0.64817 0.0
H319 H 0.72557 0.56373 0.70716 0.0
H320 H 0.74698 0.53201 0.74952 0.0
H321 H 0.83905 0.55849 0.90559 0.0
H322 H 0.84015 0.54358 0.84187 0.0
H323 H 0.78277 0.48284 0.86701 0.0
H324 H 0.78205 0.49719 0.93124 0.0
H325 H 0.78742 0.53778 0.79584 0.0
H326 H 0.81057 0.44514 0.84848 0.0
H327 H 0.83938 0.4195 0.89041 0.0
H328 H 0.9082 0.45731 0.84479 0.0
H329 H 0.87967 0.48364 0.80332 0.0
C330 C 0.78805 0.47512 0.63964 0.0
C331 C 0.81159 0.46644 0.62326 0.0
C332 C 0.78808 0.48333 0.67618 0.0
C333 C 0.81189 0.48414 0.69636 0.0
C334 C 0.83555 0.47611 0.67933 0.0
C335 C 0.83533 0.46696 0.64327 0.0
C336 C 0.81202 0.49218 0.73559 0.0
C337 C 0.82594 0.47634 0.76097 0.0
C338 C 0.79826 0.51492 0.74829 0.0
C339 C 0.78534 0.53406 0.72294 0.0
C340 C 0.7998 0.54584 0.69425 0.0
C341 C 0.78746 0.56371 0.6703 0.0
C342 C 0.76072 0.57012 0.67492 0.0
C343 C 0.74627 0.55872 0.70358 0.0
C344 C 0.75851 0.54082 0.7276 0.0
C345 C 0.82687 0.54177 0.89766 0.0
C346 C 0.81045 0.52896 0.9233 0.0
C347 C 0.82754 0.53332 0.86131 0.0
C348 C 0.81173 0.51203 0.85001 0.0
C349 C 0.79544 0.49904 0.87552 0.0
C350 C 0.795 0.50728 0.91207 0.0
C351 C 0.81147 0.50428 0.81109 0.0
C352 C 0.79782 0.52037 0.78599 0.0
C353 C 0.82608 0.48236 0.7984 0.0
C354 C 0.84303 0.46654 0.82328 0.0
C355 C 0.83181 0.44819 0.84778 0.0
C356 C 0.84809 0.43353 0.87142 0.0
C357 C 0.8756 0.43688 0.87043 0.0
C358 C 0.88689 0.45484 0.84571 0.0
C359 C 0.87069 0.46967 0.82221 0.0
H360 H 0.88817 0.4255 0.8887 0.0
H361 H 0.7512 0.58395 0.65634 0.0
H362 H 0.4921 0.80433 0.10869 0.0
H363 H 0.47819 0.80241 0.17302 0.0
H364 H 0.55618 0.82757 0.20694 0.0
H365 H 0.57016 0.82971 0.14292 0.0
H366 H 0.53781 0.78223 0.24421 0.0
H367 H 0.50745 0.87223 0.2181 0.0
H368 H 0.48299 0.90664 0.18385 0.0
H369 H 0.4109 0.86211 0.19532 0.0
H370 H 0.43489 0.8277 0.23058 0.0
H371 H 0.51126 0.8066 0.43332 0.0
H372 H 0.52549 0.80757 0.36906 0.0
H373 H 0.44395 0.79946 0.33437 0.0
H374 H 0.42974 0.80004 0.39815 0.0
H375 H 0.46454 0.8356 0.29651 0.0
H376 H 0.49269 0.74777 0.32848 0.0
H377 H 0.51599 0.71333 0.3643 0.0
H378 H 0.59075 0.75009 0.33994 0.0
H379 H 0.56786 0.78497 0.30434 0.0
C380 C 0.50617 0.80972 0.12986 0.0
C381 C 0.53222 0.8171 0.12082 0.0
C382 C 0.49821 0.80865 0.16654 0.0
C383 C 0.51621 0.81482 0.19464 0.0
C384 C 0.54206 0.82264 0.18562 0.0
C385 C 0.54994 0.82396 0.14902 0.0
C386 C 0.50842 0.81228 0.23356 0.0
C387 C 0.52198 0.79405 0.2559 0.0
C388 C 0.4873 0.82712 0.24833 0.0
C389 C 0.47297 0.84735 0.22654 0.0
C390 C 0.48642 0.86972 0.21305 0.0
C391 C 0.47263 0.88924 0.19354 0.0
C392 C 0.44547 0.88645 0.18698 0.0
C393 C 0.43196 0.86421 0.20029 0.0
C394 C 0.4456 0.84478 0.22023 0.0
C395 C 0.49652 0.80483 0.41184 0.0
C396 C 0.46946 0.80342 0.42047 0.0
C397 C 0.50462 0.80522 0.37517 0.0
C398 C 0.48581 0.80336 0.34674 0.0
C399 C 0.45884 0.80111 0.35568 0.0
C400 C 0.45074 0.8014 0.39213 0.0
C401 C 0.49379 0.80532 0.30765 0.0
C402 C 0.48029 0.82352 0.2851 0.0
C403 C 0.51471 0.79008 0.29266 0.0
C404 C 0.52853 0.76913 0.31405 0.0
C405 C 0.51408 0.74863 0.331 0.0
C406 C 0.52722 0.72901 0.35122 0.0
C407 C 0.55483 0.72956 0.35448 0.0
C408 C 0.56936 0.74971 0.33743 0.0
C409 C 0.55632 0.76939 0.3172 0.0
H410 H 0.56496 0.71435 0.37014 0.0
H411 H 0.43487 0.90158 0.17177 0.0
H412 H 0.18111 0.4297 0.88786 0.0
H413 H 0.18144 0.44475 0.8242 0.0
H414 H 0.20592 0.52268 0.859 0.0
H415 H 0.20567 0.50772 0.92309 0.0
H416 H 0.16407 0.52264 0.80747 0.0
H417 H 0.25045 0.48246 0.82354 0.0
H418 H 0.28083 0.44611 0.84067 0.0
H419 H 0.24485 0.39577 0.76 0.0
H420 H 0.21396 0.43168 0.74279 0.0
H421 H 0.19755 0.57725 0.63732 0.0
H422 H 0.19827 0.56109 0.70032 0.0
H423 H 0.19032 0.48063 0.66159 0.0
H424 H 0.19119 0.49682 0.59805 0.0
H425 H 0.22295 0.48078 0.71544 0.0
H426 H 0.13664 0.51774 0.6988 0.0
H427 H 0.10356 0.5516 0.68148 0.0
H428 H 0.13521 0.60459 0.76236 0.0
H429 H 0.16872 0.57119 0.77984 0.0
C430 C 0.18654 0.45007 0.88202 0.0
C431 C 0.19345 0.46755 0.9104 0.0
C432 C 0.18681 0.45858 0.84563 0.0
C433 C 0.19397 0.48471 0.83696 0.0
C434 C 0.20043 0.50239 0.86524 0.0
C435 C 0.20034 0.49383 0.90174 0.0
C436 C 0.19453 0.49356 0.79831 0.0
C437 C 0.17718 0.51381 0.78737 0.0
C438 C 0.21094 0.4812 0.772 0.0
C439 C 0.22974 0.45971 0.78208 0.0
C440 C 0.24888 0.46358 0.80964 0.0
C441 C 0.26622 0.44306 0.81933 0.0
C442 C 0.26475 0.41864 0.80146 0.0
C443 C 0.24596 0.41469 0.77383 0.0
C444 C 0.22855 0.43513 0.76407 0.0
C445 C 0.19597 0.55611 0.64226 0.0
C446 C 0.19409 0.53825 0.61296 0.0
C447 C 0.19622 0.54689 0.6783 0.0
C448 C 0.19362 0.51969 0.68584 0.0
C449 C 0.1922 0.50173 0.65649 0.0
C450 C 0.19263 0.51094 0.62026 0.0
C451 C 0.19256 0.51015 0.72438 0.0
C452 C 0.20977 0.4897 0.73537 0.0
C453 C 0.1756 0.52195 0.75066 0.0
C454 C 0.15533 0.54203 0.74042 0.0
C455 C 0.13665 0.53668 0.71274 0.0
C456 C 0.11781 0.55578 0.70291 0.0
C457 C 0.11732 0.58025 0.72076 0.0
C458 C 0.13562 0.58564 0.74854 0.0
C459 C 0.15452 0.56661 0.75845 0.0
H460 H 0.10273 0.59502 0.71309 0.0
H461 H 0.27821 0.40279 0.80897 0.0
H462 H 0.5666 0.16693 0.38982 0.0
H463 H 0.55195 0.16774 0.32619 0.0
H464 H 0.4795 0.20678 0.35836 0.0
H465 H 0.49446 0.20665 0.42238 0.0
H466 H 0.51194 0.14752 0.28986 0.0
H467 H 0.46129 0.24998 0.29084 0.0
H468 H 0.46314 0.29202 0.32518 0.0
H469 H 0.54491 0.2776 0.35166 0.0
H470 H 0.54362 0.23565 0.31711 0.0
H471 H 0.43612 0.16999 0.12916 0.0
H472 H 0.45097 0.16772 0.19278 0.0
H473 H 0.51673 0.21922 0.1672 0.0
H474 H 0.502 0.22151 0.10305 0.0
H475 H 0.48926 0.2336 0.23124 0.0
H476 H 0.52897 0.15693 0.17753 0.0
H477 H 0.52949 0.11562 0.14159 0.0
H478 H 0.47583 0.07941 0.21809 0.0
H479 H 0.47455 0.12071 0.25411 0.0
C480 C 0.54747 0.17558 0.38345 0.0
C481 C 0.53177 0.18697 0.41102 0.0
C482 C 0.53908 0.17593 0.34704 0.0
C483 C 0.51482 0.18763 0.33742 0.0
C484 C 0.49854 0.19807 0.3651 0.0
C485 C 0.50703 0.19789 0.40164 0.0
C486 C 0.5072 0.18957 0.29822 0.0
C487 C 0.50689 0.16633 0.2771 0.0
C488 C 0.50108 0.21418 0.28138 0.0
C489 C 0.50226 0.23957 0.30169 0.0
C490 C 0.47968 0.25585 0.30387 0.0
C491 C 0.48063 0.27964 0.32339 0.0
C492 C 0.50411 0.28743 0.34068 0.0
C493 C 0.52671 0.2715 0.33836 0.0
C494 C 0.52588 0.2477 0.31884 0.0
C495 C 0.45379 0.18081 0.137 0.0
C496 C 0.46795 0.19593 0.11118 0.0
C497 C 0.46224 0.17944 0.17334 0.0
C498 C 0.48496 0.19322 0.18457 0.0
C499 C 0.49911 0.20848 0.15896 0.0
C500 C 0.49077 0.20967 0.12239 0.0
C501 C 0.49381 0.19157 0.22316 0.0
C502 C 0.49427 0.21482 0.2441 0.0
C503 C 0.5005 0.16704 0.23969 0.0
C504 C 0.50146 0.14203 0.21834 0.0
C505 C 0.5171 0.14025 0.18653 0.0
C506 C 0.51755 0.11682 0.16616 0.0
C507 C 0.50266 0.09492 0.17751 0.0
C508 C 0.48733 0.0964 0.20931 0.0
C509 C 0.48674 0.11982 0.22972 0.0
H510 H 0.50305 0.0768 0.1617 0.0
H511 H 0.50479 0.30584 0.35582 0.0
H512 H 0.89621 0.55371 0.00682 0.0
H513 H 0.94456 0.54729 0.0063 0.0
H514 H 0.93416 0.46587 0.03995 0.0
H515 H 0.88611 0.47198 0.04 0.0
H516 H 0.97711 0.49213 0.07572 0.0
H517 H 0.94167 0.47629 0.95545 0.0
H518 H 0.91571 0.48787 0.90045 0.0
H519 H 0.96671 0.55449 0.88017 0.0
H520 H 0.99253 0.54377 0.93581 0.0
H521 H 0.10521 0.44332 0.02594 0.0
H522 H 0.05695 0.44816 0.0313 0.0
H523 H 0.06165 0.5257 0.98134 0.0
H524 H 0.10928 0.52087 0.97508 0.0
H525 H 0.02092 0.50005 0.95449 0.0
H526 H 0.0558 0.51696 0.07528 0.0
H527 H 0.08129 0.50629 0.13117 0.0
H528 H 0.03181 0.43837 0.1505 0.0
H529 H 0.00625 0.44844 0.0944 0.0
C530 C 0.90431 0.53461 0.01467 0.0
C531 C 0.88743 0.51329 0.02312 0.0
C532 C 0.93186 0.53093 0.01427 0.0
C533 C 0.94286 0.50603 0.02287 0.0
C534 C 0.92607 0.48521 0.03326 0.0
C535 C 0.89863 0.48872 0.03305 0.0
C536 C 0.97163 0.50098 0.01844 0.0
C537 C 0.98671 0.49364 0.0492 0.0
C538 C 0.98408 0.50314 0.98386 0.0
C539 C 0.96884 0.50941 0.95007 0.0
C540 C 0.9472 0.49356 0.93948 0.0
C541 C 0.93253 0.49995 0.90815 0.0
C542 C 0.93954 0.5219 0.88679 0.0
C543 C 0.96127 0.53751 0.89676 0.0
C544 C 0.97591 0.53132 0.92824 0.0
C545 C 0.09592 0.46129 0.01584 0.0
C546 C 0.11126 0.48173 0.00028 0.0
C547 C 0.06835 0.46411 0.01912 0.0
C548 C 0.05569 0.48747 0.00715 0.0
C549 C 0.0709 0.50751 0.9908 0.0
C550 C 0.09828 0.5047 0.98739 0.0
C551 C 0.02669 0.49155 0.01191 0.0
C552 C 0.01145 0.49858 0.98109 0.0
C553 C 0.01415 0.48921 0.04649 0.0
C554 C 0.0293 0.48329 0.08043 0.0
C555 C 0.05047 0.49965 0.09131 0.0
C556 C 0.06492 0.49372 0.12304 0.0
C557 C 0.05823 0.47162 0.14431 0.0
C558 C 0.03701 0.45546 0.13396 0.0
C559 C 0.02252 0.46127 0.10221 0.0
H560 H 0.06946 0.46705 0.16885 0.0
H561 H 0.92816 0.52678 0.8625 0.0
H562 H 0.52942 0.88793 0.50354 0.0
H563 H 0.53421 0.93586 0.50655 0.0
H564 H 0.44967 0.94427 0.51954 0.0
H565 H 0.44452 0.89585 0.51664 0.0
H566 H 0.47229 0.97947 0.46744 0.0
H567 H 0.48718 0.95206 0.59198 0.0
H568 H 0.50782 0.9254 0.64111 0.0
H569 H 0.58456 0.95535 0.61132 0.0
H570 H 0.56441 0.9819 0.56163 0.0
H571 H 0.47265 0.11394 0.51494 0.0
H572 H 0.46698 0.06608 0.51721 0.0
H573 H 0.55188 0.05565 0.5161 0.0
H574 H 0.55783 0.104 0.51448 0.0
H575 H 0.5287 0.02122 0.5628 0.0
H576 H 0.51556 0.04741 0.43822 0.0
H577 H 0.49653 0.07345 0.38724 0.0
H578 H 0.41867 0.04515 0.41438 0.0
H579 H 0.43718 0.01924 0.46591 0.0
C580 C 0.51172 0.89983 0.50699 0.0
C581 C 0.48652 0.88792 0.50992 0.0
C582 C 0.51457 0.92729 0.50887 0.0
C583 C 0.49236 0.94358 0.51367 0.0
C584 C 0.46709 0.93197 0.51599 0.0
C585 C 0.46419 0.90433 0.51441 0.0
C586 C 0.49578 0.97275 0.51586 0.0
C587 C 0.48421 0.98869 0.48865 0.0
C588 C 0.51214 0.98459 0.54282 0.0
C589 C 0.52429 0.9688 0.57287 0.0
C590 C 0.50848 0.9528 0.59571 0.0
C591 C 0.52009 0.93774 0.6237 0.0
C592 C 0.54749 0.93864 0.62928 0.0
C593 C 0.56333 0.95466 0.60694 0.0
C594 C 0.55182 0.96974 0.57889 0.0
C595 C 0.49021 0.10157 0.5153 0.0
C596 C 0.51574 0.11285 0.51409 0.0
C597 C 0.48689 0.07414 0.5165 0.0
C598 C 0.50897 0.05724 0.516 0.0
C599 C 0.53454 0.06835 0.51626 0.0
C600 C 0.53792 0.09595 0.51534 0.0
C601 C 0.50509 0.02805 0.51444 0.0
C602 C 0.51665 0.01207 0.54167 0.0
C603 C 0.48894 0.01612 0.48724 0.0
C604 C 0.47773 0.03158 0.45616 0.0
C605 C 0.49435 0.0469 0.43351 0.0
C606 C 0.48366 0.06161 0.40448 0.0
C607 C 0.4564 0.06101 0.39763 0.0
C608 C 0.43978 0.04563 0.41975 0.0
C609 C 0.45036 0.03091 0.44886 0.0
H610 H 0.44816 0.07241 0.37514 0.0
H611 H 0.55645 0.92696 0.65096 0.0
H612 H 0.10882 0.48863 0.49386 0.0
H613 H 0.0605 0.48487 0.49373 0.0
H614 H 0.05431 0.56106 0.54631 0.0
H615 H 0.10303 0.56535 0.54551 0.0
H616 H 0.02571 0.51346 0.58035 0.0
H617 H 0.03464 0.56339 0.46916 0.0
H618 H 0.05319 0.57406 0.40841 0.0
H619 H 0.02632 0.49903 0.36722 0.0
H620 H 0.00798 0.48772 0.42795 0.0
H621 H 0.88559 0.5224 0.56712 0.0
H622 H 0.93296 0.53177 0.56405 0.0
H623 H 0.94404 0.46477 0.49256 0.0
H624 H 0.89638 0.45513 0.49547 0.0
H625 H 0.97008 0.51034 0.46808 0.0
H626 H 0.96276 0.45922 0.57792 0.0
H627 H 0.94494 0.44675 0.63844 0.0
H628 H 0.96961 0.52175 0.68221 0.0
H629 H 0.98722 0.53487 0.62173 0.0
C630 C 0.09717 0.50473 0.50506 0.0
C631 C 0.10959 0.52728 0.51974 0.0
C632 C 0.06961 0.50256 0.50489 0.0
C633 C 0.05394 0.52267 0.52001 0.0
C634 C 0.06618 0.54538 0.53446 0.0
C635 C 0.09388 0.54787 0.53383 0.0
C636 C 0.02485 0.51904 0.52186 0.0
C637 C 0.01337 0.51335 0.55596 0.0
C638 C 0.00913 0.51793 0.48979 0.0
C639 C 0.02019 0.52459 0.45324 0.0
C640 C 0.03295 0.54903 0.44727 0.0
C641 C 0.04336 0.55523 0.41281 0.0
C642 C 0.041 0.5372 0.384 0.0
C643 C 0.02817 0.51296 0.38959 0.0
C644 C 0.01774 0.50666 0.42402 0.0
C645 C 0.89803 0.50959 0.55069 0.0
C646 C 0.88715 0.48799 0.53148 0.0
C647 C 0.92515 0.51495 0.54911 0.0
C648 C 0.94202 0.49892 0.52822 0.0
C649 C 0.93131 0.4774 0.50883 0.0
C650 C 0.90412 0.47183 0.51069 0.0
C651 C 0.97082 0.50482 0.52664 0.0
C652 C 0.9823 0.51075 0.49257 0.0
C653 C 0.9866 0.50594 0.55874 0.0
C654 C 0.97602 0.49816 0.59516 0.0
C655 C 0.96415 0.47318 0.60035 0.0
C656 C 0.95413 0.46596 0.63466 0.0
C657 C 0.95606 0.48348 0.66412 0.0
C658 C 0.96808 0.50823 0.65934 0.0
C659 C 0.97809 0.51556 0.62505 0.0
H660 H 0.94831 0.47786 0.69068 0.0
H661 H 0.04906 0.54204 0.35733 0.0
H662 H 0.56076 0.90214 0.03357 0.0
H663 H 0.5563 0.95069 0.02943 0.0
H664 H 0.47847 0.94168 0.98192 0.0
H665 H 0.48259 0.89351 0.98659 0.0
H666 H 0.50908 0.98379 0.94994 0.0
H667 H 0.48059 0.94998 0.06708 0.0
H668 H 0.48671 0.92403 0.12358 0.0
H669 H 0.55239 0.97356 0.15421 0.0
H670 H 0.54707 0.99939 0.09703 0.0
H671 H 0.4515 0.11002 0.98899 0.0
H672 H 0.45921 0.06207 0.98447 0.0
H673 H 0.53034 0.07002 0.04935 0.0
H674 H 0.52257 0.11737 0.05474 0.0
H675 H 0.50421 0.02822 0.0709 0.0
H676 H 0.53218 0.06344 0.95485 0.0
H677 H 0.52735 0.08836 0.89694 0.0
H678 H 0.46392 0.03682 0.86402 0.0
H679 H 0.46813 0.01181 0.92201 0.0
C680 C 0.54299 0.91058 0.02154 0.0
C681 C 0.52192 0.89415 0.01073 0.0
C682 C 0.54043 0.93824 0.01925 0.0
C683 C 0.51696 0.94973 0.00555 0.0
C684 C 0.49672 0.93324 -0.00751 0.0
C685 C 0.49906 0.90574 -0.0046 0.0
C686 C 0.51214 0.97868 0.00837 0.0
C687 C 0.50788 0.99355 0.97633 0.0
C688 C 0.51079 0.99138 0.04281 0.0
C689 C 0.51366 0.97637 0.07759 0.0
C690 C 0.49649 0.9552 0.0857 0.0
C691 C 0.49981 0.94052 0.1179 0.0
C692 C 0.51998 0.94709 0.14257 0.0
C693 C 0.53682 0.96844 0.13505 0.0
C694 C 0.53369 0.98309 0.10271 0.0
C695 C 0.46865 0.10149 0.00252 0.0
C696 C 0.4865 0.11766 0.02194 0.0
C697 C 0.47316 0.07412 -0.00032 0.0
C698 C 0.49563 0.06248 0.01607 0.0
C699 C 0.51296 0.07849 0.03632 0.0
C700 C 0.50848 0.10568 0.03922 0.0
C701 C 0.50135 0.03366 0.01237 0.0
C702 C 0.50562 0.01867 0.04437 0.0
C703 C 0.50284 0.02097 0.97784 0.0
C704 C 0.50028 0.03593 0.94294 0.0
C705 C 0.51706 0.05755 0.93539 0.0
C706 C 0.51446 0.07167 0.90253 0.0
C707 C 0.49529 0.06423 0.87686 0.0
C708 C 0.47872 0.0426 0.88396 0.0
C709 C 0.48122 0.02843 0.91681 0.0
H710 H 0.49331 0.07518 0.85143 0.0
H711 H 0.52255 0.93569 0.16751 0.0
H712 H 0.26443 0.39963 0.03017 0.0
H713 H 0.28878 0.35828 0.02312 0.0
H714 H 0.21521 0.31488 0.01816 0.0
H715 H 0.19039 0.35669 0.02532 0.0
H716 H 0.26295 0.28951 0.05918 0.0
H717 H 0.23617 0.32461 0.94241 0.0
H718 H 0.22865 0.36095 0.89817 0.0
H719 H 0.3118 0.3792 0.89897 0.0
H720 H 0.31977 0.34328 0.94374 0.0
H721 H 0.35737 0.19266 -0.00522 0.0
H722 H 0.31503 0.21712 -0.00581 0.0
H723 H 0.35794 0.29088 0.98492 0.0
H724 H 0.39971 0.26681 0.98544 0.0
H725 H 0.31404 0.29178 0.94301 0.0
H726 H 0.33864 0.2661 0.06817 0.0
H727 H 0.34802 0.23331 0.11687 0.0
H728 H 0.27068 0.19925 0.10223 0.0
H729 H 0.26099 0.23168 0.0531 0.0
C730 C 0.25336 0.38125 0.02848 0.0
C731 C 0.22551 0.3814 0.0279 0.0
C732 C 0.26732 0.35764 0.02444 0.0
C733 C 0.25377 0.33365 0.01952 0.0
C734 C 0.22597 0.33327 0.02185 0.0
C735 C 0.21185 0.3571 0.02604 0.0
C736 C 0.26911 0.31003 0.00809 0.0
C737 C 0.27353 0.28946 0.03331 0.0
C738 C 0.28307 0.31021 0.97447 0.0
C739 C 0.27854 0.33127 0.94655 0.0
C740 C 0.25284 0.33644 0.93327 0.0
C741 C 0.24849 0.35697 0.9081 0.0
C742 C 0.26973 0.37239 0.8958 0.0
C743 C 0.29538 0.36723 0.90851 0.0
C744 C 0.29983 0.34675 0.93374 0.0
C745 C 0.35759 0.21403 0.99168 0.0
C746 C 0.38177 0.22788 0.99034 0.0
C747 C 0.33346 0.22798 0.99161 0.0
C748 C 0.33333 0.25587 0.98989 0.0
C749 C 0.35748 0.26941 0.98625 0.0
C750 C 0.38139 0.25561 0.98666 0.0
C751 C 0.30871 0.27168 -0.00535 0.0
C752 C 0.30264 0.29102 0.96818 0.0
C753 C 0.29342 0.27042 0.02719 0.0
C754 C 0.29924 0.25102 0.05668 0.0
C755 C 0.32373 0.25147 0.07516 0.0
C756 C 0.32908 0.23299 0.10286 0.0
C757 C 0.30999 0.21415 0.11255 0.0
C758 C 0.28547 0.21381 0.09463 0.0
C759 C 0.28004 0.23222 0.06686 0.0
H760 H 0.31417 0.19986 0.13401 0.0
H761 H 0.2663 0.38835 0.87645 0.0
H762 H 0.79346 0.36294 0.5701 0.0
H763 H 0.76584 0.32302 0.56751 0.0
H764 H 0.75306 0.33616 0.45191 0.0
H765 H 0.78097 0.3761 0.45457 0.0
H766 H 0.70708 0.33501 0.49279 0.0
H767 H 0.78531 0.28143 0.48022 0.0
H768 H 0.82983 0.26531 0.49724 0.0
H769 H 0.80027 0.23926 0.60163 0.0
H770 H 0.75562 0.25557 0.58544 0.0
H771 H 0.61988 0.23333 0.45841 0.0
H772 H 0.66088 0.25882 0.45738 0.0
H773 H 0.67531 0.2383 0.57061 0.0
H774 H 0.63437 0.2114 0.5711 0.0
H775 H 0.72184 0.24191 0.53252 0.0
H776 H 0.64578 0.29669 0.54927 0.0
H777 H 0.60096 0.31396 0.53633 0.0
H778 H 0.62633 0.33996 0.42982 0.0
H779 H 0.67122 0.32249 0.44191 0.0
C780 C 0.78565 0.35658 0.54388 0.0
C781 C 0.78959 0.37213 0.51238 0.0
C782 C 0.76985 0.33383 0.54242 0.0
C783 C 0.75746 0.32654 0.5095 0.0
C784 C 0.76261 0.34134 0.47753 0.0
C785 C 0.77866 0.36398 0.47894 0.0
C786 C 0.73617 0.30621 0.50975 0.0
C787 C 0.71044 0.31452 0.50074 0.0
C788 C 0.74033 0.27984 0.52198 0.0
C789 C 0.76715 0.26994 0.53172 0.0
C790 C 0.78834 0.27248 0.50693 0.0
C791 C 0.81359 0.26326 0.5164 0.0
C792 C 0.81789 0.25133 0.55052 0.0
C793 C 0.79692 0.24853 0.57521 0.0
C794 C 0.77162 0.25773 0.56588 0.0
C795 C 0.63203 0.23388 0.48293 0.0
C796 C 0.62392 0.22075 0.51498 0.0
C797 C 0.65542 0.2485 0.48235 0.0
C798 C 0.67081 0.25112 0.51419 0.0
C799 C 0.66362 0.2367 0.54578 0.0
C800 C 0.64031 0.22141 0.5461 0.0
C801 C 0.69291 0.27065 0.51472 0.0
C802 C 0.7186 0.26235 0.52427 0.0
C803 C 0.68874 0.29731 0.50367 0.0
C804 C 0.66181 0.30808 0.49639 0.0
C805 C 0.64176 0.30594 0.52299 0.0
C806 C 0.61635 0.31578 0.51582 0.0
C807 C 0.61079 0.32799 0.48224 0.0
C808 C 0.63066 0.33046 0.4558 0.0
C809 C 0.6561 0.32062 0.46281 0.0
H810 H 0.5911 0.33559 0.47674 0.0
H811 H 0.83746 0.2442 0.5578 0.0
H812 H 0.73878 0.5991 0.05415 0.0
H813 H 0.71228 0.63931 0.04773 0.0
H814 H 0.78154 0.68246 0.01216 0.0
H815 H 0.80853 0.64201 0.01983 0.0
H816 H 0.74564 0.714 0.05357 0.0
H817 H 0.7433 0.65842 0.94813 0.0
H818 H 0.73952 0.61595 0.91522 0.0
H819 H 0.66014 0.60605 0.95542 0.0
H820 H 0.66359 0.64825 0.98906 0.0
H821 H 0.64305 0.80579 0.99078 0.0
H822 H 0.68337 0.77816 0.98839 0.0
H823 H 0.63791 0.71044 0.02442 0.0
H824 H 0.59815 0.73738 0.02635 0.0
H825 H 0.6701 0.69741 0.96932 0.0
H826 H 0.67673 0.74843 0.08372 0.0
H827 H 0.68077 0.79037 0.11795 0.0
H828 H 0.75213 0.80921 0.05931 0.0
H829 H 0.74833 0.7675 0.02446 0.0
C830 C 0.74853 0.61735 0.04604 0.0
C831 C 0.7756 0.61751 0.03731 0.0
C832 C 0.73337 0.64028 0.04218 0.0
C833 C 0.7448 0.66368 0.02851 0.0
C834 C 0.77232 0.66454 0.02252 0.0
C835 C 0.78771 0.64152 0.02704 0.0
C836 C 0.72719 0.6859 0.01725 0.0
C837 C 0.72943 0.71062 0.03457 0.0
C838 C 0.70618 0.6816 -0.00784 0.0
C839 C 0.70375 0.65649 0.9712 0.0
C840 C 0.72507 0.64714 0.95005 0.0
C841 C 0.72299 0.62311 0.93128 0.0
C842 C 0.69961 0.60831 0.93324 0.0
C843 C 0.67823 0.61755 0.9539 0.0
C844 C 0.68023 0.64155 0.97277 0.0
C845 C 0.64174 0.78494 -0.00222 0.0
C846 C 0.61743 0.7738 0.00885 0.0
C847 C 0.66476 0.76923 -0.00339 0.0
C848 C 0.66369 0.74223 0.00646 0.0
C849 C 0.63928 0.73115 0.0166 0.0
C850 C 0.6165 0.74668 0.0178 0.0
C851 C 0.6876 0.72498 0.00725 0.0
C852 C 0.68667 0.70112 0.98763 0.0
C853 C 0.70975 0.73018 0.03006 0.0
C854 C 0.71208 0.75505 0.05124 0.0
C855 C 0.69318 0.76162 0.07799 0.0
C856 C 0.69544 0.78532 0.09752 0.0
C857 C 0.71665 0.80248 0.09073 0.0
C858 C 0.73569 0.79593 0.06449 0.0
C859 C 0.7335 0.77226 0.04486 0.0
H860 H 0.71836 0.82083 0.10586 0.0
H861 H 0.69804 0.58969 0.91873 0.0
H862 H 0.39899 0.73818 0.54114 0.0
H863 H 0.35676 0.71529 0.53461 0.0
H864 H 0.31603 0.79035 0.52824 0.0
H865 H 0.35873 0.81372 0.53469 0.0
H866 H 0.29038 0.74075 0.57141 0.0
H867 H 0.32215 0.77161 0.45402 0.0
H868 H 0.35754 0.78035 0.40901 0.0
H869 H 0.37622 0.6973 0.40583 0.0
H870 H 0.34125 0.68812 0.45135 0.0
H871 H 0.19023 0.65158 0.50292 0.0
H872 H 0.21591 0.6931 0.50469 0.0
H873 H 0.28822 0.64849 0.49099 0.0
H874 H 0.26291 0.60739 0.48935 0.0
H875 H 0.28921 0.69431 0.45164 0.0
H876 H 0.2666 0.6647 0.5752 0.0
H877 H 0.23525 0.65332 0.62464 0.0
H878 H 0.20173 0.73153 0.61873 0.0
H879 H 0.2327 0.74325 0.56887 0.0
C880 C 0.38103 0.74991 0.53926 0.0
C881 C 0.38216 0.77773 0.53798 0.0
C882 C 0.35691 0.73678 0.53559 0.0
C883 C 0.33342 0.75116 0.53049 0.0
C884 C 0.33404 0.77898 0.53217 0.0
C885 C 0.35837 0.79225 0.53592 0.0
C886 C 0.30935 0.73661 0.51897 0.0
C887 C 0.28952 0.73125 0.5448 0.0
C888 C 0.30863 0.72392 0.48448 0.0
C889 C 0.32913 0.72921 0.45621 0.0
C890 C 0.33389 0.75523 0.44386 0.0
C891 C 0.35388 0.76027 0.41826 0.0
C892 C 0.36914 0.7394 0.40459 0.0
C893 C 0.36437 0.71344 0.41642 0.0
C894 C 0.34444 0.70831 0.44209 0.0
C895 C 0.21154 0.65081 0.49939 0.0
C896 C 0.22464 0.62631 0.49618 0.0
C897 C 0.22617 0.67447 0.50064 0.0
C898 C 0.254 0.67384 0.49831 0.0
C899 C 0.26679 0.64948 0.49281 0.0
C900 C 0.25231 0.62598 0.49198 0.0
C901 C 0.27045 0.69784 0.50438 0.0
C902 C 0.28916 0.70474 0.47759 0.0
C903 C 0.2702 0.71174 0.53808 0.0
C904 C 0.25166 0.70472 0.56801 0.0
C905 C 0.25238 0.67939 0.58424 0.0
C906 C 0.23472 0.67289 0.61237 0.0
C907 C 0.21644 0.69166 0.62473 0.0
C908 C 0.21584 0.71699 0.60905 0.0
C909 C 0.23344 0.72357 0.58086 0.0
H910 H 0.20279 0.6866 0.64652 0.0
H911 H 0.38463 0.74334 0.38482 0.0
loop_
_geom_bond_atom_site_label_1
_geom_bond_atom_site_label_2
_geom_bond_distance
_geom_bond_site_symmetry_2
_ccdc_geom_bond_type
Co0 O1 2.216 . S
Co0 O2 2.091 . S
Co0 O4 2.004 . S
Co0 O10 2.021 . S
Co0 O12 2.137 1_554 S
Co0 O13 2.244 1_554 S
O1 Co0 2.216 . S
O1 C8 1.247 . S
O2 Co0 2.091 . S
O2 C8 1.261 . S
C3 O12 1.247 . S
C3 O13 1.272 . S
O4 Co0 2.004 . S
O4 C9 1.259 . S
Co5 O6 2.061 . S
Co5 O11 2.052 . S
Co5 O13 2.135 1_554 S
O6 Co5 2.061 . S
O6 C9 1.235 . S
C7 O10 1.238 . S
C7 O11 1.241 . S
C8 O1 1.247 . S
C8 O2 1.261 . S
C9 O4 1.259 . S
C9 O6 1.235 . S
O10 Co0 2.021 . S
O10 C7 1.238 . S
O11 Co5 2.052 . S
O11 C7 1.241 . S
O12 Co0 2.137 1_556 S
O12 C3 1.247 . S
O13 Co0 2.244 1_556 S
O13 C3 1.272 . S
O13 Co5 2.135 1_556 S
Co14 O15 2.216 . S
Co14 O16 2.091 . S
Co14 O18 2.004 . S
Co14 O24 2.021 . S
Co14 O26 2.137 . S
Co14 O27 2.244 . S
O15 Co14 2.216 . S
O15 C22 1.247 . S
O16 Co14 2.091 . S
O16 C22 1.261 . S
C17 O26 1.247 . S
C17 O27 1.272 . S
O18 Co14 2.004 . S
O18 C23 1.259 . S
Co19 O20 2.061 . S
Co19 O25 2.052 . S
Co19 O27 2.135 . S
O20 Co19 2.061 . S
O20 C23 1.235 . S
C21 O24 1.238 . S
C21 O25 1.241 . S
C22 O15 1.247 . S
C22 O16 1.261 . S
C23 O18 1.259 . S
C23 O20 1.235 . S
O24 Co14 2.021 . S
O24 C21 1.238 . S
O25 Co19 2.052 . S
O25 C21 1.241 . S
O26 Co14 2.137 . S
O26 C17 1.247 . S
O27 Co14 2.244 . S
O27 C17 1.272 . S
O27 Co19 2.135 . S
Co28 O29 2.216 . S
Co28 O30 2.091 . S
Co28 O32 2.004 . S
Co28 O38 2.021 . S
Co28 O40 2.137 1_554 S
Co28 O41 2.244 1_554 S
O29 Co28 2.216 . S
O29 C36 1.247 . S
O30 Co28 2.091 . S
O30 C36 1.261 . S
C31 O40 1.247 . S
C31 O41 1.272 . S
O32 Co28 2.004 . S
O32 C37 1.259 . S
Co33 O34 2.061 . S
Co33 O39 2.052 . S
Co33 O41 2.135 1_554 S
O34 Co33 2.061 . S
O34 C37 1.235 . S
C35 O38 1.238 . S
C35 O39 1.241 . S
C36 O29 1.247 . S
C36 O30 1.261 . S
C37 O32 1.259 . S
C37 O34 1.235 . S
O38 Co28 2.021 . S
O38 C35 1.238 . S
O39 Co33 2.052 . S
O39 C35 1.241 . S
O40 Co28 2.137 1_556 S
O40 C31 1.247 . S
O41 Co28 2.244 1_556 S
O41 C31 1.272 . S
O41 Co33 2.135 1_556 S
Co42 O43 2.216 . S
Co42 O44 2.091 . S
Co42 O46 2.004 . S
Co42 O52 2.021 . S
Co42 O54 2.137 . S
Co42 O55 2.244 . S
O43 Co42 2.216 . S
O43 C50 1.247 . S
O44 Co42 2.091 . S
O44 C50 1.261 . S
C45 O54 1.247 . S
C45 O55 1.272 . S
O46 Co42 2.004 . S
O46 C51 1.259 . S
Co47 O48 2.061 . S
Co47 O53 2.052 . S
Co47 O55 2.135 . S
O48 Co47 2.061 . S
O48 C51 1.235 . S
C49 O52 1.238 . S
C49 O53 1.241 . S
C50 O43 1.247 . S
C50 O44 1.261 . S
C51 O46 1.259 . S
C51 O48 1.235 . S
O52 Co42 2.021 . S
O52 C49 1.238 . S
O53 Co47 2.052 . S
O53 C49 1.241 . S
O54 Co42 2.137 . S
O54 C45 1.247 . S
O55 Co42 2.244 . S
O55 C45 1.272 . S
O55 Co47 2.135 . S
Co56 O57 2.216 . S
Co56 O58 2.091 . S
Co56 O60 2.004 . S
Co56 O66 2.021 . S
Co56 O68 2.137 . S
Co56 O69 2.244 . S
O57 Co56 2.216 . S
O57 C64 1.247 . S
O58 Co56 2.091 . S
O58 C64 1.261 . S
C59 O68 1.247 . S
C59 O69 1.272 . S
O60 Co56 2.004 . S
O60 C65 1.259 . S
Co61 O62 2.061 . S
Co61 O67 2.052 . S
Co61 O69 2.135 . S
O62 Co61 2.061 . S
O62 C65 1.235 . S
C63 O66 1.238 . S
C63 O67 1.241 . S
C64 O57 1.247 . S
C64 O58 1.261 . S
C65 O60 1.259 . S
C65 O62 1.235 . S
O66 Co56 2.021 . S
O66 C63 1.238 . S
O67 Co61 2.052 . S
O67 C63 1.241 . S
O68 Co56 2.137 . S
O68 C59 1.247 . S
O69 Co56 2.244 . S
O69 C59 1.272 . S
O69 Co61 2.135 . S
Co70 O71 2.216 . S
Co70 O72 2.091 . S
Co70 O74 2.004 . S
Co70 O80 2.021 1_554 S
Co70 O82 2.137 . S
Co70 O83 2.244 . S
O71 Co70 2.216 . S
O71 C78 1.247 . S
O72 Co70 2.091 . S
O72 C78 1.261 . S
C73 O82 1.247 . S
C73 O83 1.272 . S
O74 Co70 2.004 . S
O74 C79 1.259 . S
Co75 O76 2.061 . S
Co75 O81 2.052 1_554 S
Co75 O83 2.135 . S
O76 Co75 2.061 . S
O76 C79 1.235 . S
C77 O80 1.238 . S
C77 O81 1.241 . S
C78 O71 1.247 . S
C78 O72 1.261 . S
C79 O74 1.259 . S
C79 O76 1.235 . S
O80 Co70 2.021 1_556 S
O80 C77 1.238 . S
O81 Co75 2.052 1_556 S
O81 C77 1.241 . S
O82 Co70 2.137 . S
O82 C73 1.247 . S
O83 Co70 2.244 . S
O83 C73 1.272 . S
O83 Co75 2.135 . S
Co84 O85 2.216 . S
Co84 O86 2.091 . S
Co84 O88 2.004 . S
Co84 O94 2.021 . S
Co84 O96 2.137 . S
Co84 O97 2.244 . S
O85 Co84 2.216 . S
O85 C92 1.247 . S
O86 Co84 2.091 . S
O86 C92 1.261 . S
C87 O96 1.247 . S
C87 O97 1.272 . S
O88 Co84 2.004 . S
O88 C93 1.259 . S
Co89 O90 2.061 . S
Co89 O95 2.052 . S
Co89 O97 2.135 . S
O90 Co89 2.061 . S
O90 C93 1.235 . S
C91 O94 1.238 . S
C91 O95 1.241 . S
C92 O85 1.247 . S
C92 O86 1.261 . S
C93 O88 1.259 . S
C93 O90 1.235 . S
O94 Co84 2.021 . S
O94 C91 1.238 . S
O95 Co89 2.052 . S
O95 C91 1.241 . S
O96 Co84 2.137 . S
O96 C87 1.247 . S
O97 Co84 2.244 . S
O97 C87 1.272 . S
O97 Co89 2.135 . S
Co98 O99 2.216 . S
Co98 O100 2.091 . S
Co98 O102 2.004 . S
Co98 O108 2.021 1_554 S
Co98 O110 2.137 . S
Co98 O111 2.244 . S
O99 Co98 2.216 . S
O99 C106 1.247 . S
O100 Co98 2.091 . S
O100 C106 1.261 . S
C101 O110 1.247 . S
C101 O111 1.272 . S
O102 Co98 2.004 . S
O102 C107 1.259 . S
Co103 O104 2.061 . S
Co103 O109 2.052 1_554 S
Co103 O111 2.135 . S
O104 Co103 2.061 . S
O104 C107 1.235 . S
C105 O108 1.238 . S
C105 O109 1.241 . S
C106 O99 1.247 . S
C106 O100 1.261 . S
C107 O102 1.259 . S
C107 O104 1.235 . S
O108 Co98 2.021 1_556 S
O108 C105 1.238 . S
O109 Co103 2.052 1_556 S
O109 C105 1.241 . S
O110 Co98 2.137 . S
O110 C101 1.247 . S
O111 Co98 2.244 . S
O111 C101 1.272 . S
O111 Co103 2.135 . S
H112 C130 0.951 . S
H113 C132 0.951 . S
H114 C134 0.950 . S
H115 C135 0.950 . S
H116 C137 0.950 . S
H117 C140 0.950 . S
H118 C141 0.950 . S
H119 C143 0.950 . S
H120 C144 0.950 . S
H121 C145 0.951 . S
H122 C147 0.951 . S
H123 C149 0.950 . S
H124 C150 0.950 . S
H125 C152 0.950 . S
H126 C155 0.950 . S
H127 C156 0.950 . S
H128 C158 0.950 . S
H129 C159 0.950 . S
C130 H112 0.951 . S
C130 C131 1.366 . S
C130 C132 1.388 . S
C131 C130 1.366 . S
C131 C135 1.385 . S
C132 H113 0.951 . S
C132 C130 1.388 . S
C132 C133 1.366 . S
C133 C132 1.366 . S
C133 C134 1.414 . S
C133 C136 1.499 . S
C134 H114 0.950 . S
C134 C133 1.414 . S
C134 C135 1.374 . S
C135 H115 0.950 . S
C135 C131 1.385 . S
C135 C134 1.374 . S
C136 C133 1.499 . S
C136 C137 1.373 . S
C136 C138 1.389 . S
C137 H116 0.950 . S
C137 C136 1.373 . S
C137 C153 1.377 . S
C138 C136 1.389 . S
C138 C139 1.524 . S
C138 C152 1.377 . S
C139 C138 1.524 . S
C139 C140 1.397 . S
C139 C144 1.363 . S
C140 H117 0.950 . S
C140 C139 1.397 . S
C140 C141 1.334 . S
C141 H118 0.950 . S
C141 C140 1.334 . S
C141 C142 1.287 . S
C142 C141 1.287 . S
C142 C143 1.524 . S
C142 H161 0.913 . S
C143 H119 0.950 . S
C143 C142 1.524 . S
C143 C144 1.415 . S
C144 H120 0.950 . S
C144 C139 1.363 . S
C144 C143 1.415 . S
C145 H121 0.951 . S
C145 C146 1.366 . S
C145 C147 1.388 . S
C146 C145 1.366 . S
C146 C150 1.385 . S
C147 H122 0.951 . S
C147 C145 1.388 . S
C147 C148 1.366 . S
C148 C147 1.366 . S
C148 C149 1.414 . S
C148 C151 1.499 . S
C149 H123 0.950 . S
C149 C148 1.414 . S
C149 C150 1.374 . S
C150 H124 0.950 . S
C150 C146 1.385 . S
C150 C149 1.374 . S
C151 C148 1.499 . S
C151 C152 1.373 . S
C151 C153 1.389 . S
C152 H125 0.950 . S
C152 C138 1.377 . S
C152 C151 1.373 . S
C153 C137 1.377 . S
C153 C151 1.389 . S
C153 C154 1.524 . S
C154 C153 1.524 . S
C154 C155 1.397 . S
C154 C159 1.363 . S
C155 H126 0.950 . S
C155 C154 1.397 . S
C155 C156 1.334 . S
C156 H127 0.950 . S
C156 C155 1.334 . S
C156 C157 1.287 . S
C157 C156 1.287 . S
C157 C158 1.524 . S
C157 H160 0.999 . S
C158 H128 0.950 . S
C158 C157 1.524 . S
C158 C159 1.415 . S
C159 H129 0.950 . S
C159 C154 1.363 . S
C159 C158 1.415 . S
H160 C157 0.999 . S
H161 C142 0.913 . S
H162 C180 0.951 . S
H163 C182 0.951 . S
H164 C184 0.950 . S
H165 C185 0.950 . S
H166 C187 0.950 . S
H167 C190 0.950 . S
H168 C191 0.950 . S
H169 C193 0.950 . S
H170 C194 0.950 . S
H171 C195 0.951 . S
H172 C197 0.951 . S
H173 C199 0.950 . S
H174 C200 0.950 . S
H175 C202 0.950 . S
H176 C205 0.950 . S
H177 C206 0.950 . S
H178 C208 0.950 . S
H179 C209 0.950 . S
C180 H162 0.951 . S
C180 C181 1.366 . S
C180 C182 1.388 . S
C181 C180 1.366 . S
C181 C185 1.385 . S
C182 H163 0.951 . S
C182 C180 1.388 . S
C182 C183 1.366 . S
C183 C182 1.366 . S
C183 C184 1.414 . S
C183 C186 1.499 . S
C184 H164 0.950 . S
C184 C183 1.414 . S
C184 C185 1.374 . S
C185 H165 0.950 . S
C185 C181 1.385 . S
C185 C184 1.374 . S
C186 C183 1.499 . S
C186 C187 1.373 . S
C186 C188 1.389 . S
C187 H166 0.950 . S
C187 C186 1.373 . S
C187 C203 1.377 . S
C188 C186 1.389 . S
C188 C189 1.524 . S
C188 C202 1.377 . S
C189 C188 1.524 . S
C189 C190 1.397 . S
C189 C194 1.363 . S
C190 H167 0.950 . S
C190 C189 1.397 . S
C190 C191 1.334 . S
C191 H168 0.950 . S
C191 C190 1.334 . S
C191 C192 1.287 . S
C192 C191 1.287 . S
C192 C193 1.524 . S
C192 H211 0.913 . S
C193 H169 0.950 . S
C193 C192 1.524 . S
C193 C194 1.415 . S
C194 H170 0.950 . S
C194 C189 1.363 . S
C194 C193 1.415 . S
C195 H171 0.951 . S
C195 C196 1.366 . S
C195 C197 1.388 . S
C196 C195 1.366 . S
C196 C200 1.385 . S
C197 H172 0.951 . S
C197 C195 1.388 . S
C197 C198 1.366 . S
C198 C197 1.366 . S
C198 C199 1.414 . S
C198 C201 1.499 . S
C199 H173 0.950 . S
C199 C198 1.414 . S
C199 C200 1.374 . S
C200 H174 0.950 . S
C200 C196 1.385 . S
C200 C199 1.374 . S
C201 C198 1.499 . S
C201 C202 1.373 . S
C201 C203 1.389 . S
C202 H175 0.950 . S
C202 C188 1.377 . S
C202 C201 1.373 . S
C203 C187 1.377 . S
C203 C201 1.389 . S
C203 C204 1.524 . S
C204 C203 1.524 . S
C204 C205 1.397 . S
C204 C209 1.363 . S
C205 H176 0.950 . S
C205 C204 1.397 . S
C205 C206 1.334 . S
C206 H177 0.950 . S
C206 C205 1.334 . S
C206 C207 1.287 . S
C207 C206 1.287 . S
C207 C208 1.524 . S
C207 H210 0.999 . S
C208 H178 0.950 . S
C208 C207 1.524 . S
C208 C209 1.415 . S
C209 H179 0.950 . S
C209 C204 1.363 . S
C209 C208 1.415 . S
H210 C207 0.999 . S
H211 C192 0.913 . S
H212 C230 0.951 . S
H213 C232 0.951 . S
H214 C234 0.950 . S
H215 C235 0.950 . S
H216 C237 0.950 . S
H217 C240 0.950 . S
H218 C241 0.950 . S
H219 C243 0.950 . S
H220 C244 0.950 . S
H221 C245 0.951 . S
H222 C247 0.951 . S
H223 C249 0.950 . S
H224 C250 0.950 . S
H225 C252 0.950 . S
H226 C255 0.950 . S
H227 C256 0.950 . S
H228 C258 0.950 . S
H229 C259 0.950 . S
C230 H212 0.951 . S
C230 C231 1.366 . S
C230 C232 1.388 . S
C231 C230 1.366 . S
C231 C235 1.385 . S
C232 H213 0.951 . S
C232 C230 1.388 . S
C232 C233 1.366 . S
C233 C232 1.366 . S
C233 C234 1.414 . S
C233 C236 1.499 . S
C234 H214 0.950 . S
C234 C233 1.414 . S
C234 C235 1.374 . S
C235 H215 0.950 . S
C235 C231 1.385 . S
C235 C234 1.374 . S
C236 C233 1.499 . S
C236 C237 1.373 . S
C236 C238 1.389 . S
C237 H216 0.950 . S
C237 C236 1.373 . S
C237 C253 1.377 . S
C238 C236 1.389 . S
C238 C239 1.524 . S
C238 C252 1.377 . S
C239 C238 1.524 . S
C239 C240 1.397 . S
C239 C244 1.363 . S
C240 H217 0.950 . S
C240 C239 1.397 . S
C240 C241 1.334 . S
C241 H218 0.950 . S
C241 C240 1.334 . S
C241 C242 1.287 . S
C242 C241 1.287 . S
C242 C243 1.524 . S
C242 H261 0.913 . S
C243 H219 0.950 . S
C243 C242 1.524 . S
C243 C244 1.415 . S
C244 H220 0.950 . S
C244 C239 1.363 . S
C244 C243 1.415 . S
C245 H221 0.951 . S
C245 C246 1.366 . S
C245 C247 1.388 . S
C246 C245 1.366 . S
C246 C250 1.385 . S
C247 H222 0.951 . S
C247 C245 1.388 . S
C247 C248 1.366 . S
C248 C247 1.366 . S
C248 C249 1.414 . S
C248 C251 1.499 . S
C249 H223 0.950 . S
C249 C248 1.414 . S
C249 C250 1.374 . S
C250 H224 0.950 . S
C250 C246 1.385 . S
C250 C249 1.374 . S
C251 C248 1.499 . S
C251 C252 1.373 . S
C251 C253 1.389 . S
C252 H225 0.950 . S
C252 C238 1.377 . S
C252 C251 1.373 . S
C253 C237 1.377 . S
C253 C251 1.389 . S
C253 C254 1.524 . S
C254 C253 1.524 . S
C254 C255 1.397 . S
C254 C259 1.363 . S
C255 H226 0.950 . S
C255 C254 1.397 . S
C255 C256 1.334 . S
C256 H227 0.950 . S
C256 C255 1.334 . S
C256 C257 1.287 . S
C257 C256 1.287 . S
C257 C258 1.524 . S
C257 H260 0.999 . S
C258 H228 0.950 . S
C258 C257 1.524 . S
C258 C259 1.415 . S
C259 H229 0.950 . S
C259 C254 1.363 . S
C259 C258 1.415 . S
H260 C257 0.999 . S
H261 C242 0.913 . S
H262 C280 0.951 . S
H263 C282 0.951 . S
H264 C284 0.950 . S
H265 C285 0.950 . S
H266 C287 0.950 . S
H267 C290 0.950 . S
H268 C291 0.950 . S
H269 C293 0.950 . S
H270 C294 0.950 . S
H271 C295 0.951 . S
H272 C297 0.951 . S
H273 C299 0.950 . S
H274 C300 0.950 . S
H275 C302 0.950 . S
H276 C305 0.950 . S
H277 C306 0.950 . S
H278 C308 0.950 . S
H279 C309 0.950 . S
C280 H262 0.951 . S
C280 C281 1.366 . S
C280 C282 1.388 . S
C281 C280 1.366 . S
C281 C285 1.385 . S
C282 H263 0.951 . S
C282 C280 1.388 . S
C282 C283 1.366 . S
C283 C282 1.366 . S
C283 C284 1.414 . S
C283 C286 1.499 . S
C284 H264 0.950 . S
C284 C283 1.414 . S
C284 C285 1.374 . S
C285 H265 0.950 . S
C285 C281 1.385 . S
C285 C284 1.374 . S
C286 C283 1.499 . S
C286 C287 1.373 . S
C286 C288 1.389 . S
C287 H266 0.950 . S
C287 C286 1.373 . S
C287 C303 1.377 . S
C288 C286 1.389 . S
C288 C289 1.524 . S
C288 C302 1.377 . S
C289 C288 1.524 . S
C289 C290 1.397 . S
C289 C294 1.363 . S
C290 H267 0.950 . S
C290 C289 1.397 . S
C290 C291 1.334 . S
C291 H268 0.950 . S
C291 C290 1.334 . S
C291 C292 1.287 . S
C292 C291 1.287 . S
C292 C293 1.524 . S
C292 H311 0.913 . S
C293 H269 0.950 . S
C293 C292 1.524 . S
C293 C294 1.415 . S
C294 H270 0.950 . S
C294 C289 1.363 . S
C294 C293 1.415 . S
C295 H271 0.951 . S
C295 C296 1.366 . S
C295 C297 1.388 . S
C296 C295 1.366 . S
C296 C300 1.385 . S
C297 H272 0.951 . S
C297 C295 1.388 . S
C297 C298 1.366 . S
C298 C297 1.366 . S
C298 C299 1.414 . S
C298 C301 1.499 . S
C299 H273 0.950 . S
C299 C298 1.414 . S
C299 C300 1.374 . S
C300 H274 0.950 . S
C300 C296 1.385 . S
C300 C299 1.374 . S
C301 C298 1.499 . S
C301 C302 1.373 . S
C301 C303 1.389 . S
C302 H275 0.950 . S
C302 C288 1.377 . S
C302 C301 1.373 . S
C303 C287 1.377 . S
C303 C301 1.389 . S
C303 C304 1.524 . S
C304 C303 1.524 . S
C304 C305 1.397 . S
C304 C309 1.363 . S
C305 H276 0.950 . S
C305 C304 1.397 . S
C305 C306 1.334 . S
C306 H277 0.950 . S
C306 C305 1.334 . S
C306 C307 1.287 . S
C307 C306 1.287 . S
C307 C308 1.524 . S
C307 H310 0.999 . S
C308 H278 0.950 . S
C308 C307 1.524 . S
C308 C309 1.415 . S
C309 H279 0.950 . S
C309 C304 1.363 . S
C309 C308 1.415 . S
H310 C307 0.999 . S
H311 C292 0.913 . S
H312 C330 0.951 . S
H313 C332 0.951 . S
H314 C334 0.950 . S
H315 C335 0.950 . S
H316 C337 0.950 . S
H317 C340 0.950 . S
H318 C341 0.950 . S
H319 C343 0.950 . S
H320 C344 0.950 . S
H321 C345 0.951 . S
H322 C347 0.951 . S
H323 C349 0.950 . S
H324 C350 0.950 . S
H325 C352 0.950 . S
H326 C355 0.950 . S
H327 C356 0.950 . S
H328 C358 0.950 . S
H329 C359 0.950 . S
C330 H312 0.951 . S
C330 C331 1.366 . S
C330 C332 1.388 . S
C331 C330 1.366 . S
C331 C335 1.385 . S
C332 H313 0.951 . S
C332 C330 1.388 . S
C332 C333 1.366 . S
C333 C332 1.366 . S
C333 C334 1.414 . S
C333 C336 1.499 . S
C334 H314 0.950 . S
C334 C333 1.414 . S
C334 C335 1.374 . S
C335 H315 0.950 . S
C335 C331 1.385 . S
C335 C334 1.374 . S
C336 C333 1.499 . S
C336 C337 1.373 . S
C336 C338 1.389 . S
C337 H316 0.950 . S
C337 C336 1.373 . S
C337 C353 1.377 . S
C338 C336 1.389 . S
C338 C339 1.524 . S
C338 C352 1.377 . S
C339 C338 1.524 . S
C339 C340 1.397 . S
C339 C344 1.363 . S
C340 H317 0.950 . S
C340 C339 1.397 . S
C340 C341 1.334 . S
C341 H318 0.950 . S
C341 C340 1.334 . S
C341 C342 1.287 . S
C342 C341 1.287 . S
C342 C343 1.524 . S
C342 H361 0.913 . S
C343 H319 0.950 . S
C343 C342 1.524 . S
C343 C344 1.415 . S
C344 H320 0.950 . S
C344 C339 1.363 . S
C344 C343 1.415 . S
C345 H321 0.951 . S
C345 C346 1.366 . S
C345 C347 1.388 . S
C346 C345 1.366 . S
C346 C350 1.385 . S
C347 H322 0.951 . S
C347 C345 1.388 . S
C347 C348 1.366 . S
C348 C347 1.366 . S
C348 C349 1.414 . S
C348 C351 1.499 . S
C349 H323 0.950 . S
C349 C348 1.414 . S
C349 C350 1.374 . S
C350 H324 0.950 . S
C350 C346 1.385 . S
C350 C349 1.374 . S
C351 C348 1.499 . S
C351 C352 1.373 . S
C351 C353 1.389 . S
C352 H325 0.950 . S
C352 C338 1.377 . S
C352 C351 1.373 . S
C353 C337 1.377 . S
C353 C351 1.389 . S
C353 C354 1.524 . S
C354 C353 1.524 . S
C354 C355 1.397 . S
C354 C359 1.363 . S
C355 H326 0.950 . S
C355 C354 1.397 . S
C355 C356 1.334 . S
C356 H327 0.950 . S
C356 C355 1.334 . S
C356 C357 1.287 . S
C357 C356 1.287 . S
C357 C358 1.524 . S
C357 H360 0.999 . S
C358 H328 0.950 . S
C358 C357 1.524 . S
C358 C359 1.415 . S
C359 H329 0.950 . S
C359 C354 1.363 . S
C359 C358 1.415 . S
H360 C357 0.999 . S
H361 C342 0.913 . S
H362 C380 0.951 . S
H363 C382 0.951 . S
H364 C384 0.950 . S
H365 C385 0.950 . S
H366 C387 0.950 . S
H367 C390 0.950 . S
H368 C391 0.950 . S
H369 C393 0.950 . S
H370 C394 0.950 . S
H371 C395 0.951 . S
H372 C397 0.951 . S
H373 C399 0.950 . S
H374 C400 0.950 . S
H375 C402 0.950 . S
H376 C405 0.950 . S
H377 C406 0.950 . S
H378 C408 0.950 . S
H379 C409 0.950 . S
C380 H362 0.951 . S
C380 C381 1.366 . S
C380 C382 1.388 . S
C381 C380 1.366 . S
C381 C385 1.385 . S
C382 H363 0.951 . S
C382 C380 1.388 . S
C382 C383 1.366 . S
C383 C382 1.366 . S
C383 C384 1.414 . S
C383 C386 1.499 . S
C384 H364 0.950 . S
C384 C383 1.414 . S
C384 C385 1.374 . S
C385 H365 0.950 . S
C385 C381 1.385 . S
C385 C384 1.374 . S
C386 C383 1.499 . S
C386 C387 1.373 . S
C386 C388 1.389 . S
C387 H366 0.950 . S
C387 C386 1.373 . S
C387 C403 1.377 . S
C388 C386 1.389 . S
C388 C389 1.524 . S
C388 C402 1.377 . S
C389 C388 1.524 . S
C389 C390 1.397 . S
C389 C394 1.363 . S
C390 H367 0.950 . S
C390 C389 1.397 . S
C390 C391 1.334 . S
C391 H368 0.950 . S
C391 C390 1.334 . S
C391 C392 1.287 . S
C392 C391 1.287 . S
C392 C393 1.524 . S
C392 H411 0.913 . S
C393 H369 0.950 . S
C393 C392 1.524 . S
C393 C394 1.415 . S
C394 H370 0.950 . S
C394 C389 1.363 . S
C394 C393 1.415 . S
C395 H371 0.951 . S
C395 C396 1.366 . S
C395 C397 1.388 . S
C396 C395 1.366 . S
C396 C400 1.385 . S
C397 H372 0.951 . S
C397 C395 1.388 . S
C397 C398 1.366 . S
C398 C397 1.366 . S
C398 C399 1.414 . S
C398 C401 1.499 . S
C399 H373 0.950 . S
C399 C398 1.414 . S
C399 C400 1.374 . S
C400 H374 0.950 . S
C400 C396 1.385 . S
C400 C399 1.374 . S
C401 C398 1.499 . S
C401 C402 1.373 . S
C401 C403 1.389 . S
C402 H375 0.950 . S
C402 C388 1.377 . S
C402 C401 1.373 . S
C403 C387 1.377 . S
C403 C401 1.389 . S
C403 C404 1.524 . S
C404 C403 1.524 . S
C404 C405 1.397 . S
C404 C409 1.363 . S
C405 H376 0.950 . S
C405 C404 1.397 . S
C405 C406 1.334 . S
C406 H377 0.950 . S
C406 C405 1.334 . S
C406 C407 1.287 . S
C407 C406 1.287 . S
C407 C408 1.524 . S
C407 H410 0.999 . S
C408 H378 0.950 . S
C408 C407 1.524 . S
C408 C409 1.415 . S
C409 H379 0.950 . S
C409 C404 1.363 . S
C409 C408 1.415 . S
H410 C407 0.999 . S
H411 C392 0.913 . S
H412 C430 0.951 . S
H413 C432 0.951 . S
H414 C434 0.950 . S
H415 C435 0.950 . S
H416 C437 0.950 . S
H417 C440 0.950 . S
H418 C441 0.950 . S
H419 C443 0.950 . S
H420 C444 0.950 . S
H421 C445 0.951 . S
H422 C447 0.951 . S
H423 C449 0.950 . S
H424 C450 0.950 . S
H425 C452 0.950 . S
H426 C455 0.950 . S
H427 C456 0.950 . S
H428 C458 0.950 . S
H429 C459 0.950 . S
C430 H412 0.951 . S
C430 C431 1.366 . S
C430 C432 1.388 . S
C431 C430 1.366 . S
C431 C435 1.385 . S
C432 H413 0.951 . S
C432 C430 1.388 . S
C432 C433 1.366 . S
C433 C432 1.366 . S
C433 C434 1.414 . S
C433 C436 1.499 . S
C434 H414 0.950 . S
C434 C433 1.414 . S
C434 C435 1.374 . S
C435 H415 0.950 . S
C435 C431 1.385 . S
C435 C434 1.374 . S
C436 C433 1.499 . S
C436 C437 1.373 . S
C436 C438 1.389 . S
C437 H416 0.950 . S
C437 C436 1.373 . S
C437 C453 1.377 . S
C438 C436 1.389 . S
C438 C439 1.524 . S
C438 C452 1.377 . S
C439 C438 1.524 . S
C439 C440 1.397 . S
C439 C444 1.363 . S
C440 H417 0.950 . S
C440 C439 1.397 . S
C440 C441 1.334 . S
C441 H418 0.950 . S
C441 C440 1.334 . S
C441 C442 1.287 . S
C442 C441 1.287 . S
C442 C443 1.524 . S
C442 H461 0.913 . S
C443 H419 0.950 . S
C443 C442 1.524 . S
C443 C444 1.415 . S
C444 H420 0.950 . S
C444 C439 1.363 . S
C444 C443 1.415 . S
C445 H421 0.951 . S
C445 C446 1.366 . S
C445 C447 1.388 . S
C446 C445 1.366 . S
C446 C450 1.385 . S
C447 H422 0.951 . S
C447 C445 1.388 . S
C447 C448 1.366 . S
C448 C447 1.366 . S
C448 C449 1.414 . S
C448 C451 1.499 . S
C449 H423 0.950 . S
C449 C448 1.414 . S
C449 C450 1.374 . S
C450 H424 0.950 . S
C450 C446 1.385 . S
C450 C449 1.374 . S
C451 C448 1.499 . S
C451 C452 1.373 . S
C451 C453 1.389 . S
C452 H425 0.950 . S
C452 C438 1.377 . S
C452 C451 1.373 . S
C453 C437 1.377 . S
C453 C451 1.389 . S
C453 C454 1.524 . S
C454 C453 1.524 . S
C454 C455 1.397 . S
C454 C459 1.363 . S
C455 H426 0.950 . S
C455 C454 1.397 . S
C455 C456 1.334 . S
C456 H427 0.950 . S
C456 C455 1.334 . S
C456 C457 1.287 . S
C457 C456 1.287 . S
C457 C458 1.524 . S
C457 H460 0.999 . S
C458 H428 0.950 . S
C458 C457 1.524 . S
C458 C459 1.415 . S
C459 H429 0.950 . S
C459 C454 1.363 . S
C459 C458 1.415 . S
H460 C457 0.999 . S
H461 C442 0.913 . S
H462 C480 0.951 . S
H463 C482 0.951 . S
H464 C484 0.950 . S
H465 C485 0.950 . S
H466 C487 0.950 . S
H467 C490 0.950 . S
H468 C491 0.950 . S
H469 C493 0.950 . S
H470 C494 0.950 . S
H471 C495 0.951 . S
H472 C497 0.951 . S
H473 C499 0.950 . S
H474 C500 0.950 . S
H475 C502 0.950 . S
H476 C505 0.950 . S
H477 C506 0.950 . S
H478 C508 0.950 . S
H479 C509 0.950 . S
C480 H462 0.951 . S
C480 C481 1.366 . S
C480 C482 1.388 . S
C481 C480 1.366 . S
C481 C485 1.385 . S
C482 H463 0.951 . S
C482 C480 1.388 . S
C482 C483 1.366 . S
C483 C482 1.366 . S
C483 C484 1.414 . S
C483 C486 1.499 . S
C484 H464 0.950 . S
C484 C483 1.414 . S
C484 C485 1.374 . S
C485 H465 0.950 . S
C485 C481 1.385 . S
C485 C484 1.374 . S
C486 C483 1.499 . S
C486 C487 1.373 . S
C486 C488 1.389 . S
C487 H466 0.950 . S
C487 C486 1.373 . S
C487 C503 1.377 . S
C488 C486 1.389 . S
C488 C489 1.524 . S
C488 C502 1.377 . S
C489 C488 1.524 . S
C489 C490 1.397 . S
C489 C494 1.363 . S
C490 H467 0.950 . S
C490 C489 1.397 . S
C490 C491 1.334 . S
C491 H468 0.950 . S
C491 C490 1.334 . S
C491 C492 1.287 . S
C492 C491 1.287 . S
C492 C493 1.524 . S
C492 H511 0.913 . S
C493 H469 0.950 . S
C493 C492 1.524 . S
C493 C494 1.415 . S
C494 H470 0.950 . S
C494 C489 1.363 . S
C494 C493 1.415 . S
C495 H471 0.951 . S
C495 C496 1.366 . S
C495 C497 1.388 . S
C496 C495 1.366 . S
C496 C500 1.385 . S
C497 H472 0.951 . S
C497 C495 1.388 . S
C497 C498 1.366 . S
C498 C497 1.366 . S
C498 C499 1.414 . S
C498 C501 1.499 . S
C499 H473 0.950 . S
C499 C498 1.414 . S
C499 C500 1.374 . S
C500 H474 0.950 . S
C500 C496 1.385 . S
C500 C499 1.374 . S
C501 C498 1.499 . S
C501 C502 1.373 . S
C501 C503 1.389 . S
C502 H475 0.950 . S
C502 C488 1.377 . S
C502 C501 1.373 . S
C503 C487 1.377 . S
C503 C501 1.389 . S
C503 C504 1.524 . S
C504 C503 1.524 . S
C504 C505 1.397 . S
C504 C509 1.363 . S
C505 H476 0.950 . S
C505 C504 1.397 . S
C505 C506 1.334 . S
C506 H477 0.950 . S
C506 C505 1.334 . S
C506 C507 1.287 . S
C507 C506 1.287 . S
C507 C508 1.524 . S
C507 H510 0.999 . S
C508 H478 0.950 . S
C508 C507 1.524 . S
C508 C509 1.415 . S
C509 H479 0.950 . S
C509 C504 1.363 . S
C509 C508 1.415 . S
H510 C507 0.999 . S
H511 C492 0.913 . S
H512 C530 0.951 1_556 S
H513 C532 0.951 1_556 S
H514 C534 0.950 . S
H515 C535 0.950 . S
H516 C537 0.950 . S
H517 C540 0.950 . S
H518 C541 0.950 . S
H519 C543 0.950 . S
H520 C544 0.950 1_455 S
H521 C545 0.951 . S
H522 C547 0.951 . S
H523 C549 0.950 1_556 S
H524 C550 0.950 1_556 S
H525 C552 0.950 . S
H526 C555 0.950 . S
H527 C556 0.950 . S
H528 C558 0.950 . S
H529 C559 0.950 1_655 S
C530 H512 0.951 1_554 S
C530 C531 1.366 . S
C530 C532 1.388 . S
C531 C530 1.366 . S
C531 C535 1.385 . S
C532 H513 0.951 1_554 S
C532 C530 1.388 . S
C532 C533 1.366 . S
C533 C532 1.366 . S
C533 C534 1.414 . S
C533 C536 1.499 . S
C534 H514 0.950 . S
C534 C533 1.414 . S
C534 C535 1.374 . S
C535 H515 0.950 . S
C535 C531 1.385 . S
C535 C534 1.374 . S
C536 C533 1.499 . S
C536 C537 1.373 . S
C536 C538 1.389 1_554 S
C537 H516 0.950 . S
C537 C536 1.373 . S
C537 C553 1.377 1_655 S
C538 C536 1.389 1_556 S
C538 C539 1.524 . S
C538 C552 1.377 1_655 S
C539 C538 1.524 . S
C539 C540 1.397 . S
C539 C544 1.363 . S
C540 H517 0.950 . S
C540 C539 1.397 . S
C540 C541 1.334 . S
C541 H518 0.950 . S
C541 C540 1.334 . S
C541 C542 1.287 . S
C542 C541 1.287 . S
C542 C543 1.524 . S
C542 H561 0.913 . S
C543 H519 0.950 . S
C543 C542 1.524 . S
C543 C544 1.415 . S
C544 H520 0.950 1_655 S
C544 C539 1.363 . S
C544 C543 1.415 . S
C545 H521 0.951 . S
C545 C546 1.366 . S
C545 C547 1.388 . S
C546 C545 1.366 . S
C546 C550 1.385 . S
C547 H522 0.951 . S
C547 C545 1.388 . S
C547 C548 1.366 . S
C548 C547 1.366 . S
C548 C549 1.414 . S
C548 C551 1.499 . S
C549 H523 0.950 1_554 S
C549 C548 1.414 . S
C549 C550 1.374 . S
C550 H524 0.950 1_554 S
C550 C546 1.385 . S
C550 C549 1.374 . S
C551 C548 1.499 . S
C551 C552 1.373 1_554 S
C551 C553 1.389 . S
C552 H525 0.950 . S
C552 C538 1.377 1_455 S
C552 C551 1.373 1_556 S
C553 C537 1.377 1_455 S
C553 C551 1.389 . S
C553 C554 1.524 . S
C554 C553 1.524 . S
C554 C555 1.397 . S
C554 C559 1.363 . S
C555 H526 0.950 . S
C555 C554 1.397 . S
C555 C556 1.334 . S
C556 H527 0.950 . S
C556 C555 1.334 . S
C556 C557 1.287 . S
C557 C556 1.287 . S
C557 C558 1.524 . S
C557 H560 0.999 . S
C558 H528 0.950 . S
C558 C557 1.524 . S
C558 C559 1.415 . S
C559 H529 0.950 1_455 S
C559 C554 1.363 . S
C559 C558 1.415 . S
H560 C557 0.999 . S
H561 C542 0.913 . S
H562 C580 0.951 . S
H563 C582 0.951 . S
H564 C584 0.950 . S
H565 C585 0.950 . S
H566 C587 0.950 . S
H567 C590 0.950 . S
H568 C591 0.950 . S
H569 C593 0.950 . S
H570 C594 0.950 . S
H571 C595 0.951 . S
H572 C597 0.951 . S
H573 C599 0.950 . S
H574 C600 0.950 . S
H575 C602 0.950 . S
H576 C605 0.950 . S
H577 C606 0.950 . S
H578 C608 0.950 . S
H579 C609 0.950 . S
C580 H562 0.951 . S
C580 C581 1.366 . S
C580 C582 1.388 . S
C581 C580 1.366 . S
C581 C585 1.385 . S
C582 H563 0.951 . S
C582 C580 1.388 . S
C582 C583 1.366 . S
C583 C582 1.366 . S
C583 C584 1.414 . S
C583 C586 1.499 . S
C584 H564 0.950 . S
C584 C583 1.414 . S
C584 C585 1.374 . S
C585 H565 0.950 . S
C585 C581 1.385 . S
C585 C584 1.374 . S
C586 C583 1.499 . S
C586 C587 1.373 . S
C586 C588 1.389 . S
C587 H566 0.950 . S
C587 C586 1.373 . S
C587 C603 1.377 1_565 S
C588 C586 1.389 . S
C588 C589 1.524 . S
C588 C602 1.377 1_565 S
C589 C588 1.524 . S
C589 C590 1.397 . S
C589 C594 1.363 . S
C590 H567 0.950 . S
C590 C589 1.397 . S
C590 C591 1.334 . S
C591 H568 0.950 . S
C591 C590 1.334 . S
C591 C592 1.287 . S
C592 C591 1.287 . S
C592 C593 1.524 . S
C592 H611 0.913 . S
C593 H569 0.950 . S
C593 C592 1.524 . S
C593 C594 1.415 . S
C594 H570 0.950 . S
C594 C589 1.363 . S
C594 C593 1.415 . S
C595 H571 0.951 . S
C595 C596 1.366 . S
C595 C597 1.388 . S
C596 C595 1.366 . S
C596 C600 1.385 . S
C597 H572 0.951 . S
C597 C595 1.388 . S
C597 C598 1.366 . S
C598 C597 1.366 . S
C598 C599 1.414 . S
C598 C601 1.499 . S
C599 H573 0.950 . S
C599 C598 1.414 . S
C599 C600 1.374 . S
C600 H574 0.950 . S
C600 C596 1.385 . S
C600 C599 1.374 . S
C601 C598 1.499 . S
C601 C602 1.373 . S
C601 C603 1.389 . S
C602 H575 0.950 . S
C602 C588 1.377 1_545 S
C602 C601 1.373 . S
C603 C587 1.377 1_545 S
C603 C601 1.389 . S
C603 C604 1.524 . S
C604 C603 1.524 . S
C604 C605 1.397 . S
C604 C609 1.363 . S
C605 H576 0.950 . S
C605 C604 1.397 . S
C605 C606 1.334 . S
C606 H577 0.950 . S
C606 C605 1.334 . S
C606 C607 1.287 . S
C607 C606 1.287 . S
C607 C608 1.524 . S
C607 H610 0.999 . S
C608 H578 0.950 . S
C608 C607 1.524 . S
C608 C609 1.415 . S
C609 H579 0.950 . S
C609 C604 1.363 . S
C609 C608 1.415 . S
H610 C607 0.999 . S
H611 C592 0.913 . S
H612 C630 0.951 . S
H613 C632 0.951 . S
H614 C634 0.950 . S
H615 C635 0.950 . S
H616 C637 0.950 . S
H617 C640 0.950 . S
H618 C641 0.950 . S
H619 C643 0.950 . S
H620 C644 0.950 . S
H621 C645 0.951 . S
H622 C647 0.951 . S
H623 C649 0.950 . S
H624 C650 0.950 . S
H625 C652 0.950 . S
H626 C655 0.950 . S
H627 C656 0.950 . S
H628 C658 0.950 . S
H629 C659 0.950 . S
C630 H612 0.951 . S
C630 C631 1.366 . S
C630 C632 1.388 . S
C631 C630 1.366 . S
C631 C635 1.385 . S
C632 H613 0.951 . S
C632 C630 1.388 . S
C632 C633 1.366 . S
C633 C632 1.366 . S
C633 C634 1.414 . S
C633 C636 1.499 . S
C634 H614 0.950 . S
C634 C633 1.414 . S
C634 C635 1.374 . S
C635 H615 0.950 . S
C635 C631 1.385 . S
C635 C634 1.374 . S
C636 C633 1.499 . S
C636 C637 1.373 . S
C636 C638 1.389 . S
C637 H616 0.950 . S
C637 C636 1.373 . S
C637 C653 1.377 1_455 S
C638 C636 1.389 . S
C638 C639 1.524 . S
C638 C652 1.377 1_455 S
C639 C638 1.524 . S
C639 C640 1.397 . S
C639 C644 1.363 . S
C640 H617 0.950 . S
C640 C639 1.397 . S
C640 C641 1.334 . S
C641 H618 0.950 . S
C641 C640 1.334 . S
C641 C642 1.287 . S
C642 C641 1.287 . S
C642 C643 1.524 . S
C642 H661 0.913 . S
C643 H619 0.950 . S
C643 C642 1.524 . S
C643 C644 1.415 . S
C644 H620 0.950 . S
C644 C639 1.363 . S
C644 C643 1.415 . S
C645 H621 0.951 . S
C645 C646 1.366 . S
C645 C647 1.388 . S
C646 C645 1.366 . S
C646 C650 1.385 . S
C647 H622 0.951 . S
C647 C645 1.388 . S
C647 C648 1.366 . S
C648 C647 1.366 . S
C648 C649 1.414 . S
C648 C651 1.499 . S
C649 H623 0.950 . S
C649 C648 1.414 . S
C649 C650 1.374 . S
C650 H624 0.950 . S
C650 C646 1.385 . S
C650 C649 1.374 . S
C651 C648 1.499 . S
C651 C652 1.373 . S
C651 C653 1.389 . S
C652 H625 0.950 . S
C652 C638 1.377 1_655 S
C652 C651 1.373 . S
C653 C637 1.377 1_655 S
C653 C651 1.389 . S
C653 C654 1.524 . S
C654 C653 1.524 . S
C654 C655 1.397 . S
C654 C659 1.363 . S
C655 H626 0.950 . S
C655 C654 1.397 . S
C655 C656 1.334 . S
C656 H627 0.950 . S
C656 C655 1.334 . S
C656 C657 1.287 . S
C657 C656 1.287 . S
C657 C658 1.524 . S
C657 H660 0.999 . S
C658 H628 0.950 . S
C658 C657 1.524 . S
C658 C659 1.415 . S
C659 H629 0.950 . S
C659 C654 1.363 . S
C659 C658 1.415 . S
H660 C657 0.999 . S
H661 C642 0.913 . S
H662 C680 0.951 . S
H663 C682 0.951 . S
H664 C684 0.950 1_556 S
H665 C685 0.950 1_556 S
H666 C687 0.950 . S
H667 C690 0.950 . S
H668 C691 0.950 . S
H669 C693 0.950 . S
H670 C694 0.933 1_545 S
H671 C695 0.951 1_556 S
H672 C697 0.951 1_556 S
H673 C699 0.950 . S
H674 C700 0.950 . S
H675 C702 0.950 . S
H676 C705 0.950 . S
H677 C706 0.950 . S
H678 C708 0.950 . S
H679 C709 0.933 1_565 S
C680 H662 0.951 . S
C680 C681 1.366 . S
C680 C682 1.388 . S
C681 C680 1.366 . S
C681 C685 1.385 . S
C682 H663 0.951 . S
C682 C680 1.388 . S
C682 C683 1.366 . S
C683 C682 1.366 . S
C683 C684 1.414 . S
C683 C686 1.499 . S
C684 H664 0.950 1_554 S
C684 C683 1.414 . S
C684 C685 1.374 . S
C685 H665 0.950 1_554 S
C685 C681 1.385 . S
C685 C684 1.374 . S
C686 C683 1.499 . S
C686 C687 1.373 1_554 S
C686 C688 1.389 . S
C687 H666 0.950 . S
C687 C686 1.373 1_556 S
C687 C703 1.377 1_565 S
C688 C686 1.389 . S
C688 C689 1.524 . S
C688 C702 1.377 1_565 S
C689 C688 1.524 . S
C689 C690 1.397 . S
C689 C694 1.363 . S
C690 H667 0.950 . S
C690 C689 1.397 . S
C690 C691 1.334 . S
C691 H668 0.950 . S
C691 C690 1.334 . S
C691 C692 1.287 . S
C692 C691 1.287 . S
C692 C693 1.524 . S
C692 H711 0.913 . S
C693 H669 0.950 . S
C693 C692 1.524 . S
C693 C694 1.415 . S
C694 H670 0.933 1_565 S
C694 C689 1.363 . S
C694 C693 1.415 . S
C695 H671 0.951 1_554 S
C695 C696 1.366 . S
C695 C697 1.388 . S
C696 C695 1.366 . S
C696 C700 1.385 . S
C697 H672 0.951 1_554 S
C697 C695 1.388 . S
C697 C698 1.366 . S
C698 C697 1.366 . S
C698 C699 1.414 . S
C698 C701 1.499 . S
C699 H673 0.950 . S
C699 C698 1.414 . S
C699 C700 1.374 . S
C700 H674 0.950 . S
C700 C696 1.385 . S
C700 C699 1.374 . S
C701 C698 1.499 . S
C701 C702 1.373 . S
C701 C703 1.389 1_554 S
C702 H675 0.950 . S
C702 C688 1.377 1_545 S
C702 C701 1.373 . S
C703 C687 1.377 1_545 S
C703 C701 1.389 1_556 S
C703 C704 1.524 . S
C704 C703 1.524 . S
C704 C705 1.397 . S
C704 C709 1.363 . S
C705 H676 0.950 . S
C705 C704 1.397 . S
C705 C706 1.334 . S
C706 H677 0.950 . S
C706 C705 1.334 . S
C706 C707 1.287 . S
C707 C706 1.287 . S
C707 C708 1.524 . S
C707 H710 0.999 . S
C708 H678 0.950 . S
C708 C707 1.524 . S
C708 C709 1.415 . S
C709 H679 0.933 1_545 S
C709 C704 1.363 . S
C709 C708 1.415 . S
H710 C707 0.999 . S
H711 C692 0.913 . S
H712 C730 0.951 . S
H713 C732 0.951 . S
H714 C734 0.950 . S
H715 C735 0.950 . S
H716 C737 0.950 . S
H717 C740 0.950 . S
H718 C741 0.950 . S
H719 C743 0.950 . S
H720 C744 0.950 . S
H721 C745 0.951 . S
H722 C747 0.951 . S
H723 C749 0.950 . S
H724 C750 0.950 . S
H725 C752 0.950 1_556 S
H726 C755 0.950 . S
H727 C756 0.950 . S
H728 C758 0.950 . S
H729 C759 0.950 . S
C730 H712 0.951 . S
C730 C731 1.366 . S
C730 C732 1.388 . S
C731 C730 1.366 . S
C731 C735 1.385 . S
C732 H713 0.951 . S
C732 C730 1.388 . S
C732 C733 1.366 . S
C733 C732 1.366 . S
C733 C734 1.414 . S
C733 C736 1.499 . S
C734 H714 0.950 . S
C734 C733 1.414 . S
C734 C735 1.374 . S
C735 H715 0.950 . S
C735 C731 1.385 . S
C735 C734 1.374 . S
C736 C733 1.499 . S
C736 C737 1.373 . S
C736 C738 1.389 1_554 S
C737 H716 0.950 . S
C737 C736 1.373 . S
C737 C753 1.377 . S
C738 C736 1.389 1_556 S
C738 C739 1.524 . S
C738 C752 1.376 1_556 S
C739 C738 1.524 . S
C739 C740 1.397 . S
C739 C744 1.363 . S
C740 H717 0.950 . S
C740 C739 1.397 . S
C740 C741 1.334 . S
C741 H718 0.950 . S
C741 C740 1.334 . S
C741 C742 1.287 . S
C742 C741 1.287 . S
C742 C743 1.524 . S
C742 H761 0.913 . S
C743 H719 0.950 . S
C743 C742 1.524 . S
C743 C744 1.415 . S
C744 H720 0.950 . S
C744 C739 1.363 . S
C744 C743 1.415 . S
C745 H721 0.951 . S
C745 C746 1.366 . S
C745 C747 1.388 . S
C746 C745 1.366 . S
C746 C750 1.385 . S
C747 H722 0.951 . S
C747 C745 1.388 . S
C747 C748 1.366 . S
C748 C747 1.366 . S
C748 C749 1.414 . S
C748 C751 1.499 . S
C749 H723 0.950 . S
C749 C748 1.414 . S
C749 C750 1.374 . S
C750 H724 0.950 . S
C750 C746 1.385 . S
C750 C749 1.374 . S
C751 C748 1.499 . S
C751 C752 1.374 . S
C751 C753 1.389 . S
C752 H725 0.950 1_554 S
C752 C738 1.376 1_554 S
C752 C751 1.374 . S
C753 C737 1.377 . S
C753 C751 1.389 . S
C753 C754 1.524 . S
C754 C753 1.524 . S
C754 C755 1.397 . S
C754 C759 1.363 . S
C755 H726 0.950 . S
C755 C754 1.397 . S
C755 C756 1.334 . S
C756 H727 0.950 . S
C756 C755 1.334 . S
C756 C757 1.287 . S
C757 C756 1.287 . S
C757 C758 1.524 . S
C757 H760 0.999 . S
C758 H728 0.950 . S
C758 C757 1.524 . S
C758 C759 1.415 . S
C759 H729 0.950 . S
C759 C754 1.363 . S
C759 C758 1.415 . S
H760 C757 0.999 . S
H761 C742 0.913 . S
H762 C780 0.951 . S
H763 C782 0.951 . S
H764 C784 0.950 . S
H765 C785 0.950 . S
H766 C787 0.950 . S
H767 C790 0.950 . S
H768 C791 0.950 . S
H769 C793 0.950 . S
H770 C794 0.950 . S
H771 C795 0.951 . S
H772 C797 0.951 . S
H773 C799 0.950 . S
H774 C800 0.950 . S
H775 C802 0.950 . S
H776 C805 0.950 . S
H777 C806 0.950 . S
H778 C808 0.950 . S
H779 C809 0.950 . S
C780 H762 0.951 . S
C780 C781 1.366 . S
C780 C782 1.388 . S
C781 C780 1.366 . S
C781 C785 1.385 . S
C782 H763 0.951 . S
C782 C780 1.388 . S
C782 C783 1.366 . S
C783 C782 1.366 . S
C783 C784 1.414 . S
C783 C786 1.499 . S
C784 H764 0.950 . S
C784 C783 1.414 . S
C784 C785 1.374 . S
C785 H765 0.950 . S
C785 C781 1.385 . S
C785 C784 1.374 . S
C786 C783 1.499 . S
C786 C787 1.373 . S
C786 C788 1.389 . S
C787 H766 0.950 . S
C787 C786 1.373 . S
C787 C803 1.377 . S
C788 C786 1.389 . S
C788 C789 1.524 . S
C788 C802 1.377 . S
C789 C788 1.524 . S
C789 C790 1.397 . S
C789 C794 1.363 . S
C790 H767 0.950 . S
C790 C789 1.397 . S
C790 C791 1.334 . S
C791 H768 0.950 . S
C791 C790 1.334 . S
C791 C792 1.287 . S
C792 C791 1.287 . S
C792 C793 1.524 . S
C792 H811 0.913 . S
C793 H769 0.950 . S
C793 C792 1.524 . S
C793 C794 1.415 . S
C794 H770 0.950 . S
C794 C789 1.363 . S
C794 C793 1.415 . S
C795 H771 0.951 . S
C795 C796 1.366 . S
C795 C797 1.388 . S
C796 C795 1.366 . S
C796 C800 1.385 . S
C797 H772 0.951 . S
C797 C795 1.388 . S
C797 C798 1.366 . S
C798 C797 1.366 . S
C798 C799 1.414 . S
C798 C801 1.499 . S
C799 H773 0.950 . S
C799 C798 1.414 . S
C799 C800 1.374 . S
C800 H774 0.950 . S
C800 C796 1.385 . S
C800 C799 1.374 . S
C801 C798 1.499 . S
C801 C802 1.373 . S
C801 C803 1.389 . S
C802 H775 0.950 . S
C802 C788 1.377 . S
C802 C801 1.373 . S
C803 C787 1.377 . S
C803 C801 1.389 . S
C803 C804 1.524 . S
C804 C803 1.524 . S
C804 C805 1.397 . S
C804 C809 1.363 . S
C805 H776 0.950 . S
C805 C804 1.397 . S
C805 C806 1.334 . S
C806 H777 0.950 . S
C806 C805 1.334 . S
C806 C807 1.287 . S
C807 C806 1.287 . S
C807 C808 1.524 . S
C807 H810 0.999 . S
C808 H778 0.950 . S
C808 C807 1.524 . S
C808 C809 1.415 . S
C809 H779 0.950 . S
C809 C804 1.363 . S
C809 C808 1.415 . S
H810 C807 0.999 . S
H811 C792 0.913 . S
H812 C830 0.951 . S
H813 C832 0.951 . S
H814 C834 0.950 . S
H815 C835 0.963 . S
H816 C837 0.950 . S
H817 C840 0.950 . S
H818 C841 0.950 . S
H819 C843 0.950 . S
H820 C844 0.950 . S
H821 C845 0.951 1_556 S
H822 C847 0.935 1_556 S
H823 C849 0.950 . S
H824 C850 0.950 . S
H825 C852 0.950 . S
H826 C855 0.950 . S
H827 C856 0.950 . S
H828 C858 0.950 . S
H829 C859 0.950 1_556 S
C830 H812 0.951 . S
C830 C831 1.366 . S
C830 C832 1.388 . S
C831 C830 1.366 . S
C831 C835 1.371 1_554 S
C832 H813 0.951 . S
C832 C830 1.388 . S
C832 C833 1.366 . S
C833 C832 1.366 . S
C833 C834 1.414 1_554 S
C833 C836 1.499 . S
C834 H814 0.950 . S
C834 C833 1.414 1_556 S
C834 C835 1.374 . S
C835 H815 0.963 . S
C835 C831 1.371 1_556 S
C835 C834 1.374 . S
C836 C833 1.499 . S
C836 C837 1.373 . S
C836 C838 1.389 . S
C837 H816 0.950 . S
C837 C836 1.373 . S
C837 C853 1.377 . S
C838 C836 1.389 . S
C838 C839 1.524 . S
C838 C852 1.377 . S
C839 C838 1.524 . S
C839 C840 1.397 1_554 S
C839 C844 1.363 . S
C840 H817 0.950 . S
C840 C839 1.397 1_556 S
C840 C841 1.334 . S
C841 H818 0.950 . S
C841 C840 1.334 . S
C841 C842 1.287 . S
C842 C841 1.287 . S
C842 C843 1.524 1_556 S
C842 H861 0.913 . S
C843 H819 0.950 . S
C843 C842 1.524 1_554 S
C843 C844 1.415 . S
C844 H820 0.950 . S
C844 C839 1.363 . S
C844 C843 1.415 . S
C845 H821 0.951 1_554 S
C845 C846 1.365 . S
C845 C847 1.388 . S
C846 C845 1.365 . S
C846 C850 1.385 . S
C847 H822 0.935 1_554 S
C847 C845 1.388 . S
C847 C848 1.382 . S
C848 C847 1.382 . S
C848 C849 1.414 . S
C848 C851 1.499 . S
C849 H823 0.950 . S
C849 C848 1.414 . S
C849 C850 1.374 . S
C850 H824 0.950 . S
C850 C846 1.385 . S
C850 C849 1.374 . S
C851 C848 1.499 . S
C851 C852 1.373 . S
C851 C853 1.389 . S
C852 H825 0.950 . S
C852 C838 1.377 . S
C852 C851 1.373 . S
C853 C837 1.377 . S
C853 C851 1.389 . S
C853 C854 1.524 . S
C854 C853 1.524 . S
C854 C855 1.397 . S
C854 C859 1.363 . S
C855 H826 0.950 . S
C855 C854 1.397 . S
C855 C856 1.334 . S
C856 H827 0.950 . S
C856 C855 1.334 . S
C856 C857 1.287 . S
C857 C856 1.287 . S
C857 C858 1.524 . S
C857 H860 0.999 . S
C858 H828 0.950 . S
C858 C857 1.524 . S
C858 C859 1.415 . S
C859 H829 0.950 1_554 S
C859 C854 1.363 . S
C859 C858 1.415 . S
H860 C857 0.999 . S
H861 C842 0.913 . S
H862 C880 0.951 . S
H863 C882 0.951 . S
H864 C884 0.950 . S
H865 C885 0.950 . S
H866 C887 0.950 . S
H867 C890 0.950 . S
H868 C891 0.950 . S
H869 C893 0.950 . S
H870 C894 0.950 . S
H871 C895 0.951 . S
H872 C897 0.951 . S
H873 C899 0.950 . S
H874 C900 0.950 . S
H875 C902 0.950 . S
H876 C905 0.950 . S
H877 C906 0.950 . S
H878 C908 0.950 . S
H879 C909 0.950 . S
C880 H862 0.951 . S
C880 C881 1.366 . S
C880 C882 1.388 . S
C881 C880 1.366 . S
C881 C885 1.385 . S
C882 H863 0.951 . S
C882 C880 1.388 . S
C882 C883 1.366 . S
C883 C882 1.366 . S
C883 C884 1.414 . S
C883 C886 1.499 . S
C884 H864 0.950 . S
C884 C883 1.414 . S
C884 C885 1.374 . S
C885 H865 0.950 . S
C885 C881 1.385 . S
C885 C884 1.374 . S
C886 C883 1.499 . S
C886 C887 1.373 . S
C886 C888 1.389 . S
C887 H866 0.950 . S
C887 C886 1.373 . S
C887 C903 1.377 . S
C888 C886 1.389 . S
C888 C889 1.524 . S
C888 C902 1.377 . S
C889 C888 1.524 . S
C889 C890 1.397 . S
C889 C894 1.363 . S
C890 H867 0.950 . S
C890 C889 1.397 . S
C890 C891 1.334 . S
C891 H868 0.950 . S
C891 C890 1.334 . S
C891 C892 1.287 . S
C892 C891 1.287 . S
C892 C893 1.524 . S
C892 H911 0.913 . S
C893 H869 0.950 . S
C893 C892 1.524 . S
C893 C894 1.415 . S
C894 H870 0.950 . S
C894 C889 1.363 . S
C894 C893 1.415 . S
C895 H871 0.951 . S
C895 C896 1.366 . S
C895 C897 1.388 . S
C896 C895 1.366 . S
C896 C900 1.385 . S
C897 H872 0.951 . S
C897 C895 1.388 . S
C897 C898 1.366 . S
C898 C897 1.366 . S
C898 C899 1.414 . S
C898 C901 1.499 . S
C899 H873 0.950 . S
C899 C898 1.414 . S
C899 C900 1.374 . S
C900 H874 0.950 . S
C900 C896 1.385 . S
C900 C899 1.374 . S
C901 C898 1.499 . S
C901 C902 1.373 . S
C901 C903 1.389 . S
C902 H875 0.950 . S
C902 C888 1.377 . S
C902 C901 1.373 . S
C903 C887 1.377 . S
C903 C901 1.389 . S
C903 C904 1.524 . S
C904 C903 1.524 . S
C904 C905 1.397 . S
C904 C909 1.363 . S
C905 H876 0.950 . S
C905 C904 1.397 . S
C905 C906 1.334 . S
C906 H877 0.950 . S
C906 C905 1.334 . S
C906 C907 1.287 . S
C907 C906 1.287 . S
C907 C908 1.524 . S
C907 H910 0.999 . S
C908 H878 0.950 . S
C908 C907 1.524 . S
C908 C909 1.415 . S
C909 H879 0.950 . S
C909 C904 1.363 . S
C909 C908 1.415 . S
H910 C907 0.999 . S
H911 C892 0.913 . S
C131 C7 1.203 . S
C146 C63 1.203 . S
C181 C21 1.203 . S
C196 C77 1.203 . S
C231 C91 1.203 . S
C246 C35 1.203 . S
C281 C105 1.203 . S
C296 C49 1.203 . S
C331 C87 1.077 . S
C346 C31 1.078 . S
C381 C101 1.078 . S
C396 C45 1.078 . S
C431 C3 1.078 . S
C446 C59 1.079 . S
C481 C17 1.078 . S
C496 C73 1.078 . S
C531 C37 1.303 . S
C546 C9 1.303 . S
C581 C51 1.303 . S
C596 C23 1.303 . S
C631 C65 1.302 . S
C646 C93 1.302 . S
C681 C107 1.303 . S
C696 C79 1.303 . S
C731 C8 1.312 . S
C746 C78 1.312 . S
C781 C92 1.312 . S
C796 C22 1.312 . S
C831 C36 1.312 . S
C846 C106 1.312 . S
C881 C50 1.312 . S
C896 C64 1.312 . S
