# Generated by pormake.
# Topology wkf, (6)-cn, num edge types: 1
# Building blocks:
#     Node 0, Type 0, BuildingBlock: HISSIN_clean_sbu_0, # of connection points: 6
#     Node 1, Type 0, BuildingBlock: HISSIN_clean_sbu_0, # of connection points: 6
#     Node 2, Type 0, BuildingBlock: HISSIN_clean_sbu_0, # of connection points: 6
#     Node 3, Type 0, BuildingBlock: HISSIN_clean_sbu_0, # of connection points: 6
#     Node 4, Type 0, BuildingBlock: HISSIN_clean_sbu_0, # of connection points: 6
#     Node 5, Type 0, BuildingBlock: HISSIN_clean_sbu_0, # of connection points: 6
#     Node 6, Type 0, BuildingBlock: HISSIN_clean_sbu_0, # of connection points: 6
#     Node 7, Type 0, BuildingBlock: HISSIN_clean_sbu_0, # of connection points: 6
#     Node 8, Type 0, BuildingBlock: HISSIN_clean_sbu_0, # of connection points: 6
#     Node 9, Type 0, BuildingBlock: HISSIN_clean_sbu_0, # of connection points: 6
#     Node 10, Type 0, BuildingBlock: HISSIN_clean_sbu_0, # of connection points: 6
#     Node 11, Type 0, BuildingBlock: HISSIN_clean_sbu_0, # of connection points: 6
#     Edge 12, Type (0, 0), BuildingBlock: XIVTED_clean_linker_0, # of connection points: 2
#     Edge 13, Type (0, 0), BuildingBlock: XIVTED_clean_linker_0, # of connection points: 2
#     Edge 14, Type (0, 0), BuildingBlock: XIVTED_clean_linker_0, # of connection points: 2
#     Edge 15, Type (0, 0), BuildingBlock: XIVTED_clean_linker_0, # of connection points: 2
#     Edge 16, Type (0, 0), BuildingBlock: XIVTED_clean_linker_0, # of connection points: 2
#     Edge 17, Type (0, 0), BuildingBlock: XIVTED_clean_linker_0, # of connection points: 2
#     Edge 18, Type (0, 0), BuildingBlock: XIVTED_clean_linker_0, # of connection points: 2
#     Edge 19, Type (0, 0), BuildingBlock: XIVTED_clean_linker_0, # of connection points: 2
#     Edge 20, Type (0, 0), BuildingBlock: XIVTED_clean_linker_0, # of connection points: 2
#     Edge 21, Type (0, 0), BuildingBlock: XIVTED_clean_linker_0, # of connection points: 2
#     Edge 22, Type (0, 0), BuildingBlock: XIVTED_clean_linker_0, # of connection points: 2
#     Edge 23, Type (0, 0), BuildingBlock: XIVTED_clean_linker_0, # of connection points: 2
#     Edge 24, Type (0, 0), BuildingBlock: XIVTED_clean_linker_0, # of connection points: 2
#     Edge 25, Type (0, 0), BuildingBlock: XIVTED_clean_linker_0, # of connection points: 2
#     Edge 26, Type (0, 0), BuildingBlock: XIVTED_clean_linker_0, # of connection points: 2
#     Edge 27, Type (0, 0), BuildingBlock: XIVTED_clean_linker_0, # of connection points: 2
#     Edge 28, Type (0, 0), BuildingBlock: XIVTED_clean_linker_0, # of connection points: 2
#     Edge 29, Type (0, 0), BuildingBlock: XIVTED_clean_linker_0, # of connection points: 2
#     Edge 30, Type (0, 0), BuildingBlock: XIVTED_clean_linker_0, # of connection points: 2
#     Edge 31, Type (0, 0), BuildingBlock: XIVTED_clean_linker_0, # of connection points: 2
#     Edge 32, Type (0, 0), BuildingBlock: XIVTED_clean_linker_0, # of connection points: 2
#     Edge 33, Type (0, 0), BuildingBlock: XIVTED_clean_linker_0, # of connection points: 2
#     Edge 34, Type (0, 0), BuildingBlock: XIVTED_clean_linker_0, # of connection points: 2
#     Edge 35, Type (0, 0), BuildingBlock: XIVTED_clean_linker_0, # of connection points: 2
#     Edge 36, Type (0, 0), BuildingBlock: XIVTED_clean_linker_0, # of connection points: 2
#     Edge 37, Type (0, 0), BuildingBlock: XIVTED_clean_linker_0, # of connection points: 2
#     Edge 38, Type (0, 0), BuildingBlock: XIVTED_clean_linker_0, # of connection points: 2
#     Edge 39, Type (0, 0), BuildingBlock: XIVTED_clean_linker_0, # of connection points: 2
#     Edge 40, Type (0, 0), BuildingBlock: XIVTED_clean_linker_0, # of connection points: 2
#     Edge 41, Type (0, 0), BuildingBlock: XIVTED_clean_linker_0, # of connection points: 2
#     Edge 42, Type (0, 0), BuildingBlock: XIVTED_clean_linker_0, # of connection points: 2
#     Edge 43, Type (0, 0), BuildingBlock: XIVTED_clean_linker_0, # of connection points: 2
#     Edge 44, Type (0, 0), BuildingBlock: XIVTED_clean_linker_0, # of connection points: 2
#     Edge 45, Type (0, 0), BuildingBlock: XIVTED_clean_linker_0, # of connection points: 2
#     Edge 46, Type (0, 0), BuildingBlock: XIVTED_clean_linker_0, # of connection points: 2
#     Edge 47, Type (0, 0), BuildingBlock: XIVTED_clean_linker_0, # of connection points: 2
# Relax obj value: 0.294
# Max RMSD: 0.276
# Mean RMSD: 0.268
data_MOF--net-wkf--node1-HISSIN_clean_sbu_0--edge1-XIVTED_clean_linker_0
_symmetry_space_group_name_H-M    P1
_symmetry_Int_Tables_number       1
_symmetry_cell_setting            triclinic
loop_
_symmetry_equiv_pos_as_xyz
'x, y, z'
_cell_length_a     28.372101
_cell_length_b     28.391687
_cell_length_c     97.3777
_cell_angle_alpha  89.977396
_cell_angle_beta   90.130716
_cell_angle_gamma 119.2887
loop_
_atom_site_label
_atom_site_type_symbol
_atom_site_fract_x
_atom_site_fract_y
_atom_site_fract_z
_atom_type_partial_charge
Eu0 Eu 0.52688 1.00629 0.39462 0.0
Eu1 Eu 0.41095 0.96215 0.37932 0.0
C2 C 0.50892 0.08329 0.37303 0.0
C3 C 0.67748 0.08641 0.40093 0.0
C4 C 0.68117 0.13062 0.39362 0.0
C5 C 0.77398 0.13514 0.40484 0.0
C6 C 0.73113 0.17715 0.39197 0.0
C7 C 0.72406 0.08862 0.40641 0.0
C8 C 0.77808 0.18011 0.39767 0.0
C9 C 0.62549 1.03723 0.40245 0.0
O10 O 0.45778 0.92582 0.36825 0.0
O11 O 0.49608 0.92085 0.38797 0.0
C12 C 0.4817 0.90413 0.37544 0.0
O13 O 0.46979 0.95147 0.41102 0.0
O14 O 0.35645 0.97588 0.36602 0.0
O15 O 0.33286 0.89507 0.37294 0.0
O16 O 0.38905 0.91337 0.39892 0.0
C17 C 0.41742 0.91759 0.41006 0.0
O18 O 0.49697 0.05891 0.40358 0.0
O19 O 0.40605 1.00683 0.3986 0.0
O20 O 0.45669 0.05015 0.37338 0.0
O21 O 0.58991 1.04072 0.41028 0.0
O22 O 0.60463 1.01132 0.391 0.0
O23 O 0.54296 0.06784 0.37761 0.0
C24 C 0.29711 0.90393 0.35146 0.0
C25 C 0.25713 0.91462 0.34626 0.0
C26 C 0.28907 0.85247 0.33071 0.0
C27 C 0.23313 0.89436 0.33346 0.0
C28 C 0.31315 0.87289 0.34354 0.0
C29 C 0.24849 0.86272 0.32549 0.0
C30 C 0.32045 0.92495 0.36521 0.0
C31 C 0.44645 0.04682 0.40539 0.0
H32 H 0.64534 0.1291 0.38927 0.0
H33 H 0.80903 0.13641 0.40965 0.0
H34 H 0.73289 0.2109 0.38635 0.0
H35 H 0.72175 0.0546 0.41203 0.0
H36 H 0.24425 0.93865 0.35216 0.0
H37 H 0.30162 0.82779 0.325 0.0
H38 H 0.20283 0.90398 0.32975 0.0
H39 H 0.34396 0.86407 0.3473 0.0
Eu40 Eu 0.57278 0.51678 0.56418 0.0
Eu41 Eu 0.49777 0.40798 0.54603 0.0
C42 C 0.47696 0.51485 0.54594 0.0
C43 C 0.64125 0.60165 0.59509 0.0
C44 C 0.59534 0.59431 0.60228 0.0
C45 C 0.69088 0.62194 0.61661 0.0
C46 C 0.59776 0.60271 0.6164 0.0
C47 C 0.68861 0.6142 0.60239 0.0
C48 C 0.64592 0.6179 0.62375 0.0
C49 C 0.63945 0.59465 0.58008 0.0
O50 O 0.58742 0.43649 0.54155 0.0
O51 O 0.61873 0.52549 0.54479 0.0
C52 C 0.6269 0.48658 0.5405 0.0
O53 O 0.56897 0.44588 0.57609 0.0
O54 O 0.47015 0.3892 0.52494 0.0
O55 O 0.44921 0.32322 0.53926 0.0
O56 O 0.5161 0.36839 0.5636 0.0
C57 C 0.54534 0.39299 0.57448 0.0
O58 O 0.49473 0.47885 0.5757 0.0
O59 O 0.44102 0.39938 0.56375 0.0
O60 O 0.46301 0.46468 0.54257 0.0
O61 O 0.6486 0.55652 0.57567 0.0
O62 O 0.59948 0.59535 0.5736 0.0
O63 O 0.5211 0.54509 0.55305 0.0
C64 C 0.45166 0.30493 0.51507 0.0
C65 C 0.48657 0.3305 0.50396 0.0
C66 C 0.41428 0.21966 0.50246 0.0
C67 C 0.48467 0.3013 0.49218 0.0
C68 C 0.41595 0.24908 0.51423 0.0
C69 C 0.44807 0.24548 0.49114 0.0
C70 C 0.4468 0.33689 0.52655 0.0
C71 C 0.44914 0.43358 0.57392 0.0
H72 H 0.5578 0.58343 0.59696 0.0
H73 H 0.72834 0.63267 0.62193 0.0
H74 H 0.56245 0.60005 0.62137 0.0
H75 H 0.72411 0.61882 0.59706 0.0
H76 H 0.51425 0.37358 0.50414 0.0
H77 H 0.38617 0.17672 0.50223 0.0
H78 H 0.51081 0.32318 0.48369 0.0
H79 H 0.38815 0.22836 0.52256 0.0
Eu80 Eu 0.10122 0.55029 0.72969 0.0
Eu81 Eu 0.14005 0.47499 0.71311 0.0
C82 C 1.01731 0.4552 0.70956 0.0
C83 C 1.00558 0.58303 0.74493 0.0
C84 C 0.97817 0.6107 0.74106 0.0
C85 C 0.9196 0.50083 0.74773 0.0
C86 C 0.9218 0.5833 0.74026 0.0
C87 C 0.97572 0.52832 0.74867 0.0
C88 C 0.89205 0.52763 0.74315 0.0
C89 C 1.06294 0.60571 0.74152 0.0
O90 O 0.20056 0.56396 0.70826 0.0
O91 O 0.14236 0.5962 0.71059 0.0
C92 C 0.18971 0.60377 0.70685 0.0
O93 O 0.1795 0.56546 0.73972 0.0
O94 O 0.1246 0.41028 0.69858 0.0
O95 O 0.20532 0.45985 0.70648 0.0
O96 O 0.17378 0.48401 0.73457 0.0
C97 C 0.19184 0.5273 0.74236 0.0
O98 O 1.05709 0.47056 0.74053 0.0
O99 O 0.08978 0.41848 0.73046 0.0
O100 O 1.0593 0.45697 0.7032 0.0
O101 O 0.08952 0.58632 0.74831 0.0
O102 O 0.07168 0.60787 0.72833 0.0
O103 O 1.02419 0.48456 0.72053 0.0
C104 C 0.19733 0.42031 0.68443 0.0
C105 C 0.22746 0.39353 0.6829 0.0
C106 C 0.20921 0.44177 0.66 0.0
C107 C 0.24824 0.39073 0.67007 0.0
C108 C 0.1884 0.44454 0.67287 0.0
C109 C 0.23939 0.4147 0.65839 0.0
C110 C 0.17478 0.42102 0.69809 0.0
C111 C 1.05926 0.42551 0.73958 0.0
H112 H 1.00042 0.6526 0.7379 0.0
H113 H 0.89812 0.45803 0.75 0.0
H114 H 0.90164 0.60554 0.7371 0.0
H115 H 0.9958 0.5057 0.7515 0.0
H116 H 0.23493 0.3746 0.69167 0.0
H117 H 0.20102 0.46029 0.65126 0.0
H118 H 0.27199 0.3704 0.66937 0.0
H119 H 0.16512 0.46532 0.67378 0.0
Eu120 Eu 0.59785 0.09154 0.89329 0.0
Eu121 Eu 0.70561 0.1132 0.87693 0.0
C122 C 0.59916 0.99583 0.87543 0.0
C123 C 0.49748 0.06439 0.92127 0.0
C124 C 0.49527 1.01694 0.92621 0.0
C125 C 0.47193 0.0806 0.94382 0.0
C126 C 0.48042 1.00087 0.93976 0.0
C127 C 0.48625 0.09637 0.93019 0.0
C128 C 0.46825 1.03229 0.94873 0.0
C129 C 0.51591 0.08319 0.90723 0.0
O130 O 0.6812 0.17695 0.87056 0.0
O131 O 0.59194 0.12092 0.87243 0.0
C132 C 0.63137 0.16709 0.86831 0.0
O133 O 0.66866 0.16923 0.90169 0.0
O134 O 0.74485 0.0889 0.86121 0.0
O135 O 0.78884 0.16754 0.87065 0.0
O136 O 0.73785 0.15207 0.89733 0.0
C137 C 0.71756 0.17718 0.90437 0.0
O138 O 0.63302 0.05647 0.90783 0.0
O139 O 0.7022 0.05802 0.89489 0.0
O140 O 0.63797 1.03472 0.86822 0.0
O141 O 0.56204 0.12757 0.90646 0.0
O142 O 0.512 0.04709 0.89832 0.0
O143 O 0.57982 1.00762 0.88638 0.0
C144 C 0.8119 0.15942 0.84761 0.0
C145 C 0.84141 0.14035 0.84014 0.0
C146 C 0.83003 0.22578 0.82961 0.0
C147 C 0.86523 0.16383 0.82755 0.0
C148 C 0.80607 0.20214 0.84218 0.0
C149 C 0.86022 0.20715 0.82211 0.0
C150 C 0.78917 0.13532 0.86117 0.0
C151 C 0.67081 1.04311 0.90598 0.0
H152 H 0.50481 0.99206 0.91961 0.0
H153 H 0.46346 0.10608 0.95048 0.0
H154 H 0.47695 0.96285 0.94303 0.0
H155 H 0.48893 0.13376 0.92662 0.0
H156 H 0.84635 0.10736 0.84411 0.0
H157 H 0.82574 0.25946 0.82591 0.0
H158 H 0.88728 0.14767 0.82204 0.0
H159 H 0.78352 0.21767 0.84773 0.0
Eu160 Eu 0.5393 0.57217 0.06486 0.0
Eu161 Eu 0.61646 0.67697 0.046 0.0
C162 C 0.63427 0.57064 0.04705 0.0
C163 C 0.46274 0.48681 0.09472 0.0
C164 C 0.42576 0.43712 0.1004 0.0
C165 C 0.49535 0.52234 0.11754 0.0
C166 C 0.42478 0.42941 0.11457 0.0
C167 C 0.49615 0.53002 0.10337 0.0
C168 C 0.46113 0.47131 0.12324 0.0
C169 C 0.4701 0.4923 0.07984 0.0
O170 O 0.52731 0.65095 0.04185 0.0
O171 O 0.50027 0.56288 0.04422 0.0
C172 C 0.48943 0.60049 1.04027 0.0
O173 O 0.53347 0.64198 0.07448 0.0
O174 O 0.64324 0.69657 1.02488 0.0
O175 O 0.66957 0.76168 1.03965 0.0
O176 O 0.59937 0.718 0.06357 0.0
C177 C 0.56308 0.69492 0.07332 0.0
O178 O 0.60761 0.62333 0.07893 0.0
O179 O 0.67263 0.67856 0.06334 0.0
O180 O 0.63505 0.61025 1.0398 0.0
O181 O 0.45941 0.5275 0.0741 0.0
O182 O 0.51519 0.49611 0.0754 0.0
O183 O 0.60307 0.55134 0.05787 0.0
C184 C 0.66762 0.78298 1.01566 0.0
C185 C 0.62202 0.76447 1.00709 0.0
C186 C 0.71538 0.86075 1.00048 0.0
C187 C 0.62339 0.79331 0.99525 0.0
C188 C 0.71399 0.83175 1.01232 0.0
C189 C 0.67036 0.84158 0.99163 0.0
C190 C 0.67037 0.74863 1.02682 0.0
C191 C 0.6579 0.65808 0.07586 0.0
H192 H 0.39971 0.40349 0.09384 0.0
H193 H 0.52359 0.55535 0.12395 0.0
H194 H 0.39851 0.38935 0.11858 0.0
H195 H 0.52477 0.56886 0.09909 0.0
H196 H 0.58585 0.72667 1.00929 0.0
H197 H 0.75196 0.89805 0.99824 0.0
H198 H 0.58803 0.77659 0.98868 0.0
H199 H 0.74991 0.84668 1.01866 0.0
Eu200 Eu 1.03886 0.54677 0.22923 0.0
Eu201 Eu 0.98524 0.6099 0.21302 0.0
C202 C 0.10915 0.63743 0.20733 0.0
C203 C 0.12742 0.48411 0.23627 0.0
C204 C 0.13017 0.43864 0.24063 0.0
C205 C 0.21456 0.51836 0.22514 0.0
C206 C 0.17503 0.43309 0.23736 0.0
C207 C 0.16969 0.52391 0.22851 0.0
C208 C 0.21774 0.47279 0.22953 0.0
C209 C 0.07823 0.48723 0.23871 0.0
O210 O 0.94933 0.52572 0.2032 0.0
O211 O 0.95587 0.48457 0.22248 0.0
C212 C 0.93445 0.48144 0.21043 0.0
O213 O 0.9829 0.55115 0.24509 0.0
O214 O 0.99285 0.6578 0.19488 0.0
O215 O 0.92594 0.63714 0.20872 0.0
O216 O 0.92974 0.57282 0.23127 0.0
C217 C 0.94064 0.55816 0.24322 0.0
O218 O 0.08586 0.63073 0.23751 0.0
O219 O 1.02759 0.66302 0.23184 0.0
O220 O 0.07522 0.65599 0.20876 0.0
O221 O 0.08372 0.53025 0.24501 0.0
O222 O 1.0461 0.47425 0.22811 0.0
O223 O 0.09485 0.58785 0.21117 0.0
C224 C 0.91493 0.65568 0.18511 0.0
C225 C 0.88914 0.68703 0.18463 0.0
C226 C 0.88606 0.62757 0.16144 0.0
C227 C 0.86258 0.68917 0.17268 0.0
C228 C 0.91267 0.62545 0.17343 0.0
C229 C 0.86108 0.65996 0.16083 0.0
C230 C 0.94906 0.66055 0.19721 0.0
C231 C 0.06933 0.66638 0.23884 0.0
H232 H 0.09751 0.4073 0.24652 0.0
H233 H 0.24658 0.54961 0.2191 0.0
H234 H 0.17668 0.39818 0.24124 0.0
H235 H 0.16754 0.55893 0.22501 0.0
H236 H 0.89096 0.71136 0.1934 0.0
H237 H 0.88518 0.60387 0.15263 0.0
H238 H 0.84464 0.71517 0.17264 0.0
H239 H 0.93245 0.60109 0.17347 0.0
Eu240 Eu 0.11293 0.58752 0.50288 0.0
Eu241 Eu 0.13493 0.69614 0.51897 0.0
C242 C 1.01803 0.58898 0.52094 0.0
C243 C 0.08684 0.48559 0.47527 0.0
C244 C 1.04116 0.48561 0.46974 0.0
C245 C 0.10222 0.45463 0.45337 0.0
C246 C 1.02541 0.46909 0.45624 0.0
C247 C 0.11765 0.47067 0.46696 0.0
C248 C 1.05546 0.45295 0.4479 0.0
C249 C 0.10485 0.50483 0.48931 0.0
O250 O 0.19904 0.67194 0.52509 0.0
O251 O 0.142 0.58292 0.52389 0.0
C252 C 0.1887 0.62231 0.52774 0.0
O253 O 0.19012 0.65811 0.49426 0.0
O254 O 0.11138 0.73733 0.53422 0.0
O255 O 0.1912 0.7792 0.52537 0.0
O256 O 0.17277 0.72727 0.49847 0.0
C257 C 0.19783 0.7068 0.49149 0.0
O258 O 0.07703 0.62171 0.48829 0.0
O259 O 0.07934 0.69184 0.50098 0.0
O260 O 1.05711 0.62861 0.52797 0.0
O261 O 0.14937 0.55082 0.49015 0.0
O262 O 0.06819 0.50165 0.49791 0.0
O263 O 1.02934 0.56924 0.50999 0.0
C264 C 0.18212 0.80435 0.54814 0.0
C265 C 0.21991 0.85958 0.54908 0.0
C266 C 0.18884 0.79724 0.57297 0.0
C267 C 0.24204 0.88347 0.56179 0.0
C268 C 0.1668 0.77333 0.56022 0.0
C269 C 0.22687 0.85274 0.57396 0.0
C270 C 0.1586 0.78079 0.53452 0.0
C271 C 0.06388 0.65971 0.49 0.0
H272 H 1.01728 0.49799 0.47587 0.0
H273 H 0.12666 0.44313 0.4472 0.0
H274 H 0.98858 0.46735 0.45253 0.0
H275 H 0.15373 0.47157 0.47097 0.0
H276 H 0.23242 0.88443 0.53993 0.0
H277 H 0.1755 0.77221 0.58207 0.0
H278 H 0.27177 0.92598 0.56202 0.0
H279 H 0.13764 0.73066 0.55985 0.0
Eu280 Eu 0.56221 0.06577 0.66693 0.0
Eu281 Eu 0.503 0.11959 0.6841 0.0
C282 C 0.47402 0.99535 0.68921 0.0
C283 C 0.61903 0.97315 0.66016 0.0
C284 C 0.66609 0.97031 0.65773 0.0
C285 C 0.57757 0.88385 0.67043 0.0
C286 C 0.6689 0.92439 0.66152 0.0
C287 C 0.57484 0.9299 0.6666 0.0
C288 C 0.62467 0.88058 0.6679 0.0
C289 C 0.61851 1.02344 0.65727 0.0
O290 O 0.589 0.15338 0.69302 0.0
O291 O 0.62559 0.14946 0.6728 0.0
C292 C 0.63185 0.16992 0.68508 0.0
O293 O 0.55711 0.12205 0.65121 0.0
O294 O 0.45352 0.11058 0.70201 0.0
O295 O 0.48364 0.18341 0.68988 0.0
O296 O 0.53372 0.17316 0.66526 0.0
C297 C 0.54833 0.16315 0.65321 0.0
O298 O 0.47736 1.0199 0.65913 0.0
O299 O 0.44645 0.07826 0.66568 0.0
O300 O 0.4554 1.02933 0.68814 0.0
O301 O 0.57569 1.01928 0.65108 0.0
O302 O 0.63409 0.05714 0.66755 0.0
O303 O 0.52381 1.01078 0.68535 0.0
C304 C 0.46379 0.18895 0.71375 0.0
C305 C 0.44874 0.22927 0.71392 0.0
C306 C 0.47621 0.19872 0.73866 0.0
C307 C 0.44651 0.25338 0.72631 0.0
C308 C 0.47852 0.17466 0.72625 0.0
C309 C 0.45897 0.23761 0.73893 0.0
C310 C 0.45709 0.15793 0.70086 0.0
C311 C 0.44172 1.03668 0.65836 0.0
H312 H 0.70078 1.00373 0.65294 0.0
H313 H 0.54289 0.85087 0.67533 0.0
H314 H 0.7053 0.92272 0.65912 0.0
H315 H 0.53845 0.93197 0.66873 0.0
H316 H 0.43692 0.24097 0.70449 0.0
H317 H 0.48581 0.18508 0.74811 0.0
H318 H 0.43418 0.28392 0.72598 0.0
H319 H 0.49005 0.14351 0.72653 0.0
Eu320 Eu 0.51488 0.54372 0.82852 0.0
Eu321 Eu 0.42585 0.47602 0.8522 0.0
C322 C 0.5291 0.45757 0.84794 0.0
C323 C 0.58192 0.56193 0.79523 0.0
C324 C 0.54938 0.50575 0.79397 0.0
C325 C 0.62043 0.56441 0.77295 0.0
C326 C 0.55238 0.4789 0.78233 0.0
C327 C 0.61654 0.59135 0.78453 0.0
C328 C 0.58921 0.50764 0.77185 0.0
C329 C 0.57844 0.58886 0.80769 0.0
O330 O 0.45754 0.56676 0.85628 0.0
O331 O 0.5408 0.60137 0.84637 0.0
C332 C 0.50629 0.60804 0.85396 0.0
O333 O 0.44798 0.56482 0.82662 0.0
O334 O 0.41144 0.4511 0.87359 0.0
O335 O 0.34294 0.42615 0.85995 0.0
O336 O 0.3788 0.48578 0.83467 0.0
C337 C 0.39646 0.52861 0.82675 0.0
O338 O 0.45071 0.46907 0.81832 0.0
O339 O 0.42103 0.41234 0.83682 0.0
O340 O 0.49676 0.46225 0.85685 0.0
O341 O 0.53243 0.58786 0.80923 0.0
O342 O 0.59438 0.57606 0.81899 0.0
O343 O 0.53783 0.4811 0.83585 0.0
C344 C 0.32744 0.43011 0.88423 0.0
C345 C 0.27074 0.40528 0.88355 0.0
C346 C 0.32268 0.44989 0.90843 0.0
C347 C 0.24034 0.40263 0.89518 0.0
C348 C 0.35296 0.45271 0.89682 0.0
C349 C 0.26585 0.42439 0.90785 0.0
C350 C 0.3589 0.42586 0.87252 0.0
C351 C 0.42799 0.4204 0.82344 0.0
H352 H 0.52264 0.48228 0.80216 0.0
H353 H 0.65015 0.58793 0.76524 0.0
H354 H 0.52744 0.4354 0.78182 0.0
H355 H 0.64166 0.63477 0.78531 0.0
H356 H 0.24972 0.38669 0.87408 0.0
H357 H 0.344 0.46628 0.91799 0.0
H358 H 0.1968 0.38327 0.89424 0.0
H359 H 0.39643 0.47123 0.89787 0.0
Eu360 Eu 1.01852 0.50702 1.0013 0.0
Eu361 Eu 0.97337 0.3916 1.01683 0.0
C362 C 0.09433 0.48976 1.02331 0.0
C363 C 0.10307 0.65603 0.99469 0.0
C364 C 0.14694 0.65657 1.00149 0.0
C365 C 0.15491 0.75285 0.99186 0.0
C366 C 0.19478 0.70513 1.00346 0.0
C367 C 0.10702 0.70432 0.99001 0.0
C368 C 0.19951 0.75384 0.99855 0.0
C369 C 1.05242 0.60548 0.99302 0.0
O370 O 0.93726 0.43905 1.02768 0.0
O371 O 0.93352 0.47859 1.00802 0.0
C372 C 0.9163 0.46369 1.02049 0.0
O373 O 0.96316 0.44952 0.98498 0.0
O374 O 0.98715 0.33722 1.03012 0.0
O375 O 0.90607 0.31414 1.02341 0.0
O376 O 0.92464 0.36919 0.99717 0.0
C377 C 0.92901 0.39727 0.98598 0.0
O378 O 0.0715 0.47617 0.99302 0.0
O379 O 1.01771 0.38544 0.99773 0.0
O380 O 1.06161 0.43748 1.0228 0.0
O381 O 1.05447 0.5686 0.9854 0.0
O382 O 1.02549 0.58589 1.00439 0.0
O383 O 0.07821 0.52336 1.01884 0.0
C384 C 0.91577 0.27866 0.04481 0.0
C385 C 0.92659 0.23872 0.04994 0.0
C386 C 0.86559 0.2714 0.06571 0.0
C387 C 0.90702 0.21512 0.06279 0.0
C388 C 0.88533 0.29509 0.05284 0.0
C389 C 0.87597 0.23087 0.07086 0.0
C390 C 0.93613 0.30159 1.03104 0.0
C391 C 1.05878 0.42551 0.99123 0.0
H392 H 0.14414 0.61935 1.00519 0.0
H393 H 0.15745 0.7893 0.98764 0.0
H394 H 0.22814 0.70441 1.0087 0.0
H395 H 0.07327 0.70444 0.98481 0.0
H396 H 0.95019 0.22557 0.04395 0.0
H397 H 0.84133 0.28422 0.07152 0.0
H398 H 0.9167 0.18483 0.06644 0.0
H399 H 0.87645 0.32589 0.04912 0.0
Eu400 Eu 0.56217 1.02439 0.16676 0.0
Eu401 Eu 0.62471 0.97089 0.18328 0.0
C402 C 0.65191 0.09463 0.1888 0.0
C403 C 0.5076 0.11852 0.15906 0.0
C404 C 0.55251 0.16148 0.16537 0.0
C405 C 0.46161 0.1712 0.15903 0.0
C406 C 0.55193 0.20913 0.16858 0.0
C407 C 0.46215 0.1235 0.15595 0.0
C408 C 0.50641 0.21458 0.16543 0.0
C409 C 0.50597 0.06679 0.15691 0.0
O410 O 0.53996 0.93446 0.19275 0.0
O411 O 0.49867 0.94226 0.17357 0.0
C412 C 0.49566 0.92006 0.1855 0.0
O413 O 0.56552 0.96694 0.15116 0.0
O414 O 0.67074 0.97845 0.20181 0.0
O415 O 0.65365 0.91304 0.1877 0.0
O416 O 0.58734 0.91441 0.16516 0.0
C417 C 0.5724 0.92469 0.15317 0.0
O418 O 0.64681 0.07127 0.15894 0.0
O419 O 0.67789 1.01205 0.16447 0.0
O420 O 0.67096 0.06114 0.18733 0.0
O421 O 0.54696 0.06814 0.15047 0.0
O422 O 0.492 1.0359 0.16774 0.0
O423 O 0.60201 0.07948 0.18506 0.0
C424 C 0.67046 0.90126 0.21142 0.0
C425 C 0.70273 0.87646 0.21194 0.0
C426 C 0.64174 0.87137 0.23497 0.0
C427 C 0.70504 0.84992 0.22385 0.0
C428 C 0.63944 0.89794 0.22301 0.0
C429 C 0.6751 0.84746 0.23563 0.0
C430 C 0.67532 0.93571 0.19942 0.0
C431 C 0.68191 0.05409 0.15755 0.0
H432 H 0.58777 0.15784 0.16789 0.0
H433 H 0.42643 0.17438 0.15611 0.0
H434 H 0.587 0.24155 0.17354 0.0
H435 H 0.42699 0.09042 0.15118 0.0
H436 H 0.72768 0.87913 0.20324 0.0
H437 H 0.61745 0.86969 0.24371 0.0
H438 H 0.73178 0.83281 0.22395 0.0
H439 H 0.61435 0.91695 0.22294 0.0
Eu440 Eu 0.59041 0.52689 0.33151 0.0
Eu441 Eu 0.69492 0.60512 0.35041 0.0
C442 C 0.58842 0.62194 0.34907 0.0
C443 C 0.50255 0.4533 0.30141 0.0
C444 C 0.51781 0.49942 0.29334 0.0
C445 C 0.47018 0.3976 0.28095 0.0
C446 C 0.50704 0.49447 0.27929 0.0
C447 C 0.48028 0.40257 0.29509 0.0
C448 C 0.4815 0.44331 0.27296 0.0
C449 C 0.51075 0.45808 0.31636 0.0
O450 O 0.67024 0.51645 0.3546 0.0
O451 O 0.58169 0.48757 0.35205 0.0
C452 C 0.62001 0.47785 0.35608 0.0
O453 O 0.6605 0.52116 0.32211 0.0
O454 O 0.71457 0.63245 0.37152 0.0
O455 O 0.77954 0.65928 0.35674 0.0
O456 O 0.73631 0.58822 0.33288 0.0
C457 C 0.7134 0.55137 0.32322 0.0
O458 O 0.6407 0.59525 0.31742 0.0
O459 O 0.69578 0.66065 0.33304 0.0
O460 O 0.62673 0.62143 0.35664 0.0
O461 O 0.54877 0.44912 0.32097 0.0
O462 O 0.51149 0.49987 0.32217 0.0
O463 O 0.57044 0.59179 0.33801 0.0
C464 C 0.80135 0.65764 0.38069 0.0
C465 C 0.78392 0.61154 0.38896 0.0
C466 C 0.87871 0.70587 0.39604 0.0
C467 C 0.8131 0.61284 0.40075 0.0
C468 C 0.84938 0.70453 0.38426 0.0
C469 C 0.86063 0.66027 0.4046 0.0
C470 C 0.76661 0.66007 0.36957 0.0
C471 C 0.67525 0.64563 0.32051 0.0
H472 H 0.53642 0.53927 0.29794 0.0
H473 H 0.45162 0.35771 0.2764 0.0
H474 H 0.51586 0.53068 0.27364 0.0
H475 H 0.4696 0.36668 0.30112 0.0
H476 H 0.7467 0.57495 0.38658 0.0
H477 H 0.91543 0.74284 0.39846 0.0
H478 H 0.79723 0.57701 0.4071 0.0
H479 H 0.86346 0.74081 0.37814 0.0
H480 H 0.17658 0.71934 0.24447 0.0
H481 H 0.14171 0.82334 0.31799 0.0
H482 H 1.02604 0.70642 0.25784 0.0
H483 H 0.29458 0.85074 0.30179 0.0
H484 H 0.09932 0.78524 0.29583 0.0
H485 H 0.22113 0.77319 0.26479 0.0
C486 C 0.15312 0.72887 0.25158 0.0
C487 C 0.09757 0.70858 0.24943 0.0
C488 C 0.1422 0.79989 0.2971 0.0
C489 C 0.14815 0.76918 0.27307 0.0
C490 C 0.16662 0.82191 0.30977 0.0
C491 C 0.22205 0.84027 0.31189 0.0
C492 C 0.17319 0.79587 0.28641 0.0
C493 C 0.25167 0.83635 0.30082 0.0
C494 C 0.17854 0.75942 0.26324 0.0
C495 C 0.06908 0.72189 0.25902 0.0
N496 N 0.2269 0.81449 0.28865 0.0
N497 N 0.09453 0.75073 0.27053 0.0
H498 H 0.53056 0.26107 0.47364 0.0
H499 H 0.35826 1.01464 0.42273 0.0
H500 H 0.35843 0.15985 0.47895 0.0
H501 H 0.51499 0.14939 0.41342 0.0
H502 H 0.35514 0.06283 0.44354 0.0
H503 H 0.52468 0.21521 0.45214 0.0
C504 C 0.49131 0.2295 0.47029 0.0
C505 C 0.44488 0.2151 0.47822 0.0
C506 C 0.38978 0.08197 0.4368 0.0
C507 C 0.43803 0.16096 0.45339 0.0
C508 C 0.39132 0.05472 0.42487 0.0
C509 C 0.43707 0.07785 0.41634 0.0
C510 C 0.43446 0.13235 0.44022 0.0
C511 C 0.47913 0.1296 0.41974 0.0
C512 C 0.48803 0.20302 0.45796 0.0
C513 C 0.39555 0.17231 0.47335 0.0
N514 N 0.47701 0.15463 0.43141 0.0
N515 N 0.39343 0.14675 0.46129 0.0
H516 H 0.24911 0.33065 0.64696 0.0
H517 H 0.41986 0.5057 0.58255 0.0
H518 H 0.2832 0.49356 0.63852 0.0
H519 H 0.3828 0.34079 0.58861 0.0
H520 H 0.36273 0.49789 0.60202 0.0
H521 H 0.292 0.33021 0.62518 0.0
C522 C 0.26554 0.36638 0.64057 0.0
C523 C 0.26262 0.4124 0.64474 0.0
C524 C 0.36629 0.463 0.59907 0.0
C525 C 0.31142 0.41176 0.61959 0.0
C526 C 0.39878 0.46738 0.58788 0.0
C527 C 0.40596 0.42378 0.58393 0.0
C528 C 0.34111 0.4148 0.60663 0.0
C529 C 0.37784 0.37517 0.59123 0.0
C530 C 0.28971 0.36587 0.62805 0.0
C531 C 0.28381 0.45692 0.63579 0.0
N532 N 0.34714 0.37216 0.60236 0.0
N533 N 0.30745 0.45555 0.62376 0.0
H534 H 0.08389 0.3551 0.75337 0.0
H535 H 0.82208 0.24743 0.8018 0.0
H536 H 0.96012 0.40048 0.74911 0.0
H537 H 0.95881 0.22615 0.8118 0.0
H538 H 0.86731 0.29325 0.78068 0.0
H539 H 1.03324 0.29614 0.77276 0.0
C540 C 1.04559 0.35175 0.75632 0.0
C541 C 1.02625 0.3828 0.74966 0.0
C542 C 0.88743 0.27841 0.78746 0.0
C543 C 0.96848 0.31615 0.77182 0.0
C544 C 0.86169 0.25247 0.79962 0.0
C545 C 0.88664 0.23313 0.80879 0.0
C546 C 0.93871 0.28523 0.78428 0.0
C547 C 0.93758 0.23986 0.80508 0.0
C548 C 1.01696 0.31858 0.76746 0.0
C549 C 0.97676 0.37759 0.75403 0.0
N550 N 0.96196 0.26549 0.79317 0.0
N551 N 0.94982 0.34522 0.76481 0.0
H552 H 0.76098 1.03853 0.91609 0.0
H553 H 0.58893 0.85365 0.97967 0.0
H554 H 0.5889 0.96993 0.92141 0.0
H555 H 0.7562 0.89754 0.97373 0.0
H556 H 0.59109 0.89866 0.95827 0.0
H557 H 0.7631 0.98864 0.93676 0.0
C558 C 0.72371 1.01249 0.92144 0.0
C559 C 0.6748 1.00885 0.91704 0.0
C560 C 0.62747 0.89849 0.96157 0.0
C561 C 0.67692 0.95251 0.9407 0.0
C562 C 0.62616 0.87237 0.97385 0.0
C563 C 0.67229 0.87111 0.97862 0.0
C564 C 0.67536 0.92422 0.95384 0.0
C565 C 0.71966 0.89771 0.97062 0.0
C566 C 0.72493 0.98436 0.93328 0.0
C567 C 0.62776 0.97479 0.92446 0.0
N568 N 0.71999 0.9231 0.95865 0.0
N569 N 0.6301 0.9485 0.93585 0.0
H570 H 0.76796 0.66669 0.15842 0.0
H571 H 0.76125 0.67054 0.07585 0.0
H572 H 0.89181 0.66225 0.13371 0.0
H573 H 0.6419 0.67507 0.10228 0.0
H574 H 0.81456 0.67491 0.09639 0.0
H575 H 0.72524 0.67535 0.13761 0.0
C576 C 0.78655 0.6679 0.14863 0.0
C577 C 0.83391 0.66386 0.14795 0.0
C578 C 0.77707 0.67574 0.09765 0.0
C579 C 0.78424 0.67326 0.12375 0.0
C580 C 0.74704 0.67392 0.08592 0.0
C581 C 0.69715 0.67256 0.08736 0.0
C582 C 0.75696 0.67632 0.11085 0.0
C583 C 0.68006 0.67587 0.10068 0.0
C584 C 0.76186 0.67264 0.13667 0.0
C585 C 0.85507 0.66457 0.13481 0.0
N586 N 0.70957 0.67726 0.11182 0.0
N587 N 0.83015 0.66915 0.12326 0.0
H588 H 0.39367 0.07895 0.64127 0.0
H589 H 0.25525 0.80876 0.59552 0.0
H590 H 0.3918 0.93048 0.65167 0.0
H591 H 0.25535 0.95521 0.58353 0.0
H592 H 0.29791 0.85134 0.61717 0.0
H593 H 0.33515 1.03315 0.62135 0.0
C594 C 0.3798 1.03645 0.63958 0.0
C595 C 0.39764 1.0085 0.64814 0.0
C596 C 0.28843 0.87424 0.60985 0.0
C597 C 0.33176 0.95616 0.62528 0.0
C598 C 0.26362 0.84969 0.59745 0.0
C599 C 0.25152 0.87819 0.58753 0.0
C600 C 0.30175 0.92806 0.6125 0.0
C601 C 0.26459 0.9317 0.59069 0.0
C602 C 0.34692 1.01045 0.62813 0.0
C603 C 0.37928 0.95371 0.64531 0.0
N604 N 0.2891 0.95489 0.60283 0.0
N605 N 0.34784 0.92961 0.63414 0.0
H606 H 0.52074 0.26294 0.76271 0.0
H607 H 0.3622 0.39148 0.80124 0.0
H608 H 0.37962 0.2625 0.7459 0.0
H609 H 0.47586 0.35711 0.8221 0.0
H610 H 0.36684 0.34249 0.78108 0.0
H611 H 0.506 0.29751 0.78442 0.0
C612 C 0.48646 0.2697 0.76355 0.0
C613 C 0.45154 0.25974 0.7523 0.0
C614 C 0.38983 0.34434 0.79015 0.0
C615 C 0.43458 0.29975 0.77727 0.0
C616 C 0.38653 0.37166 0.80174 0.0
C617 C 0.41731 0.37684 0.81351 0.0
C618 C 0.42546 0.32318 0.79012 0.0
C619 C 0.45007 0.35245 0.8134 0.0
C620 C 0.47812 0.28952 0.77599 0.0
C621 C 0.40836 0.27032 0.75409 0.0
N622 N 0.45386 0.32731 0.80182 0.0
N623 N 0.4013 0.28977 0.76624 0.0
H624 H 0.16539 0.48797 0.98614 0.0
H625 H 0.16671 0.34031 0.91608 0.0
H626 H 1.02549 0.3425 0.97225 0.0
H627 H 0.29154 0.49853 0.92867 0.0
H628 H 0.11686 0.33432 0.93718 0.0
H629 H 0.21568 0.48422 0.96637 0.0
C630 C 0.14547 0.45461 0.979 0.0
C631 C 0.0911 0.41555 0.98085 0.0
C632 C 0.15524 0.3702 0.9353 0.0
C633 C 0.14847 0.41158 0.95782 0.0
C634 C 0.18364 0.37395 0.92319 0.0
C635 C 0.23381 0.42004 0.92049 0.0
C636 C 0.17715 0.41271 0.94486 0.0
C637 C 0.25374 0.46174 0.9303 0.0
C638 C 0.17418 0.45268 0.96763 0.0
C639 C 0.06749 0.37317 0.97128 0.0
N640 N 0.22552 0.457 0.94196 0.0
N641 N 0.09616 0.37259 0.96007 0.0
H642 H 0.73611 0.16129 0.15209 0.0
H643 H 0.83624 0.12424 0.07833 0.0
H644 H 0.72092 1.01001 0.13852 0.0
H645 H 0.86597 0.27776 0.09465 0.0
H646 H 0.79908 0.08242 0.10055 0.0
H647 H 0.78987 0.20536 0.13177 0.0
C648 C 0.74515 0.13757 0.14494 0.0
C649 C 0.72422 0.08196 0.14702 0.0
C650 C 0.81406 0.12531 0.09929 0.0
C651 C 0.78464 0.13196 0.1234 0.0
C652 C 0.83553 0.1494 0.08659 0.0
C653 C 0.85422 0.20483 0.08449 0.0
C654 C 0.81094 0.15666 0.11004 0.0
C655 C 0.85126 0.23483 0.09561 0.0
C656 C 0.77563 0.16271 0.13328 0.0
C657 C 0.73689 0.05311 0.13739 0.0
N658 N 0.8299 0.21038 0.10782 0.0
N659 N 0.76565 0.07829 0.12588 0.0
H660 H 0.68625 0.74829 0.32056 0.0
H661 H 0.68399 0.7556 0.23799 0.0
H662 H 0.69276 0.62996 0.29411 0.0
H663 H 0.67598 0.87748 0.26276 0.0
H664 H 0.69311 0.71326 0.25879 0.0
H665 H 0.69013 0.8013 0.30004 0.0
C666 C 0.68996 0.73425 0.31049 0.0
C667 C 0.68931 0.68473 0.30904 0.0
C668 C 0.68951 0.74936 0.25974 0.0
C669 C 0.69253 0.7442 0.28557 0.0
C670 C 0.6845 0.77383 0.24779 0.0
C671 C 0.6793 0.82051 0.24849 0.0
C672 C 0.68925 0.77128 0.27268 0.0
C673 C 0.67919 0.84124 0.26164 0.0
C674 C 0.69149 0.7641 0.29877 0.0
C675 C 0.69301 0.66783 0.29572 0.0
N676 N 0.68405 0.81655 0.27319 0.0
N677 N 0.69413 0.69717 0.28458 0.0
H678 H 1.05676 0.74911 0.48044 0.0
H679 H 0.87567 0.5797 0.41587 0.0
H680 H 0.99333 0.57837 0.47384 0.0
H681 H 0.91454 0.7449 0.42302 0.0
H682 H 0.92137 0.5815 0.43715 0.0
H683 H 1.0066 0.75146 0.45983 0.0
C684 C 1.03188 0.71216 0.47482 0.0
C685 C 1.02978 0.66362 0.47885 0.0
C686 C 0.91995 0.61749 0.43414 0.0
C687 C 0.97307 0.66603 0.45526 0.0
C688 C 0.89343 0.61638 0.42193 0.0
C689 C 0.89056 0.66203 0.41754 0.0
C690 C 0.94446 0.66472 0.44218 0.0
C691 C 0.91598 0.70876 0.42583 0.0
C692 C 1.00358 0.71354 0.46301 0.0
C693 C 0.99709 0.61701 0.47108 0.0
N694 N 0.94178 0.70891 0.43773 0.0
N695 N 0.97058 0.61951 0.45974 0.0
H696 H 0.60794 0.6817 0.37263 0.0
H697 H 0.45427 0.84611 0.35045 0.0
H698 H 0.522 0.65009 0.33417 0.0
H699 H 0.5373 0.86279 0.38885 0.0
H700 H 0.47666 0.77513 0.34364 0.0
H701 H 0.58011 0.74798 0.37822 0.0
C702 C 0.58283 0.68829 0.36535 0.0
C703 C 0.56732 0.6596 0.35291 0.0
C704 C 0.48977 0.7945 0.35355 0.0
C705 C 0.5352 0.73728 0.35925 0.0
C706 C 0.47707 0.83515 0.35743 0.0
C707 C 0.49367 0.86097 0.37029 0.0
C708 C 0.5194 0.77967 0.36257 0.0
C709 C 0.52314 0.84457 0.37886 0.0
C710 C 0.56691 0.72656 0.36855 0.0
C711 C 0.53475 0.67073 0.34394 0.0
N712 N 0.53484 0.80559 0.37487 0.0
N713 N 0.52 0.70869 0.34724 0.0
H714 H 0.66254 0.42043 0.52859 0.0
H715 H 0.9776 0.63503 0.53896 0.0
H716 H 0.72125 0.58227 0.54383 0.0
H717 H 0.92495 0.5004 0.51112 0.0
H718 H 0.88303 0.60928 0.54322 0.0
H719 H 0.75671 0.44264 0.52403 0.0
C720 C 0.69496 0.46067 0.53089 0.0
C721 C 0.68331 0.4995 0.53654 0.0
C722 C 0.89203 0.5851 0.53623 0.0
C723 C 0.79181 0.52486 0.53163 0.0
C724 C 0.94628 0.59958 0.53386 0.0
C725 C 0.95993 0.5699 0.52468 0.0
C726 C 0.85024 0.54001 0.52953 0.0
C727 C 0.91682 0.5246 0.51831 0.0
C728 C 0.74883 0.4733 0.5283 0.0
C729 C 0.72758 0.55089 0.53937 0.0
N730 N 0.86421 0.51103 0.52087 0.0
N731 N 0.77935 0.56176 0.53701 0.0
H732 H 0.49281 0.90787 0.69145 0.0
H733 H 0.17747 0.69254 0.70232 0.0
H734 H 0.36559 0.94882 0.69474 0.0
H735 H 0.30029 0.64484 0.70267 0.0
H736 H 0.24701 0.78575 0.69847 0.0
H737 H 0.42535 0.81213 0.69494 0.0
C738 C 0.45095 0.89706 0.69299 0.0
C739 C 0.43537 0.93721 0.69278 0.0
C740 C 0.25907 0.75511 0.69931 0.0
C741 C 0.35734 0.82684 0.69668 0.0
C742 C 0.21905 0.70137 0.70146 0.0
C743 C 0.23246 0.65995 0.70282 0.0
C744 C 0.31378 0.76869 0.6985 0.0
C745 C 0.2876 0.67494 0.70161 0.0
C746 C 0.41231 0.84216 0.69495 0.0
C747 C 0.38016 0.92001 0.69485 0.0
N748 N 0.32607 0.72785 0.69957 0.0
N749 N 0.34361 0.86668 0.69664 0.0
H750 H 0.61068 0.44693 0.83494 0.0
H751 H 0.53546 0.16688 0.87122 0.0
H752 H 0.49492 0.37893 0.8678 0.0
H753 H 0.69731 0.26788 0.85616 0.0
H754 H 0.51462 0.23893 0.86642 0.0
H755 H 0.6386 0.37842 0.83936 0.0
C756 C 0.59141 0.41807 0.84315 0.0
C757 C 0.5505 0.41942 0.85106 0.0
C758 C 0.55468 0.24546 0.86409 0.0
C759 C 0.58142 0.33963 0.85591 0.0
C760 C 0.5667 0.20396 0.86674 0.0
C761 C 0.61844 0.2107 0.86409 0.0
C762 C 0.59409 0.29456 0.85846 0.0
C763 C 0.65689 0.26048 0.85837 0.0
C764 C 0.60743 0.37891 0.84566 0.0
C765 C 0.5269 0.3803 0.86148 0.0
N766 N 0.64389 0.30027 0.85567 0.0
N767 N 0.54216 0.34203 0.86345 0.0
H768 H 0.18045 0.59521 1.02464 0.0
H769 H 0.40135 0.49921 1.03783 0.0
H770 H 0.14248 0.4298 1.03059 0.0
H771 H 0.4453 0.66737 1.03514 0.0
H772 H 0.30684 0.47453 1.03442 0.0
H773 H 0.2767 0.62375 1.02818 0.0
C774 C 0.19199 0.56484 1.02679 0.0
C775 C 0.15253 0.50978 1.02725 0.0
C776 C 0.33697 0.51691 1.03451 0.0
C777 C 0.26354 0.54241 1.03123 0.0
C778 C 0.39137 0.53115 1.03639 0.0
C779 C 0.43206 0.58564 1.03676 0.0
C780 C 0.32213 0.55722 1.03294 0.0
C781 C 0.41573 0.62484 1.03489 0.0
C782 C 0.2472 0.58124 1.02878 0.0
C783 C 0.17073 0.47266 1.03013 0.0
N784 N 0.36228 0.60994 1.0331 0.0
N785 N 0.22437 0.48954 1.03192 0.0
H786 H 0.93618 0.3884 0.21511 0.0
H787 H 0.63611 0.18415 0.18878 0.0
H788 H 0.8394 0.44728 0.19517 0.0
H789 H 0.75682 0.13779 0.19758 0.0
H790 H 0.70456 0.27927 0.19265 0.0
H791 H 0.86694 0.29614 0.21009 0.0
C792 C 0.90041 0.38196 0.20953 0.0
C793 C 0.89405 0.42609 0.20551 0.0
C794 C 0.71592 0.24818 0.19373 0.0
C795 C 0.81285 0.3189 0.19991 0.0
C796 C 0.67673 0.19367 0.19156 0.0
C797 C 0.69036 0.15227 0.19273 0.0
C798 C 0.76914 0.26162 0.19732 0.0
C799 C 0.74388 0.1677 0.19652 0.0
C800 C 0.86064 0.32895 0.20668 0.0
C801 C 0.84647 0.4147 0.19833 0.0
N802 N 0.78084 0.22061 0.19868 0.0
N803 N 0.80745 0.36225 0.19588 0.0
H804 H 0.17911 0.52235 0.53129 0.0
H805 H 0.48939 0.61773 0.54954 0.0
H806 H 0.29804 0.69132 0.53347 0.0
H807 H 0.37418 0.4582 0.53535 0.0
H808 H 0.42107 0.64633 0.54582 0.0
H809 H 0.24989 0.49913 0.53545 0.0
C810 C 0.22006 0.55485 0.53279 0.0
C811 C 0.23207 0.60912 0.53199 0.0
C812 C 0.41099 0.60519 0.54345 0.0
C813 C 0.31472 0.58218 0.53676 0.0
C814 C 0.45009 0.58876 0.54554 0.0
C815 C 0.43813 0.53533 0.5427 0.0
C816 C 0.35898 0.56779 0.5387 0.0
C817 C 0.38599 0.49984 0.53764 0.0
C818 C 0.26078 0.54137 0.53509 0.0
C819 C 0.28647 0.64895 0.53402 0.0
N820 N 0.3487 0.51652 0.53591 0.0
N821 N 0.32565 0.63475 0.5363 0.0
H822 H 0.72631 0.19472 0.67209 0.0
H823 H 0.92279 0.44009 0.72134 0.0
H824 H 0.66766 0.24152 0.70749 0.0
H825 H 0.97965 0.37941 0.68839 0.0
H826 H 0.82995 0.37171 0.71597 0.0
H827 H 0.81793 0.26402 0.67762 0.0
C828 C 0.73244 0.2195 0.68109 0.0
C829 C 0.68828 0.21171 0.6893 0.0
C830 C 0.86257 0.37337 0.70986 0.0
C831 C 0.79529 0.29283 0.69572 0.0
C832 C 0.91601 0.41282 0.71286 0.0
C833 C 0.95999 0.41626 0.70528 0.0
C834 C 0.85209 0.33648 0.69913 0.0
C835 C 0.94763 0.379 0.6945 0.0
C836 C 0.7853 0.25936 0.68424 0.0
C837 C 0.69996 0.24553 0.70085 0.0
N838 N 0.89519 0.34095 0.69179 0.0
N839 N 0.7521 0.2846 0.70366 0.0
H840 H 0.51576 0.9025 0.88672 0.0
H841 H 0.59749 0.70339 0.84756 0.0
H842 H 0.64189 0.95533 0.85636 0.0
H843 H 0.44762 0.64336 0.86974 0.0
H844 H 0.61747 0.79561 0.85248 0.0
H845 H 0.49255 0.80837 0.8821 0.0
C846 C 0.53831 0.89452 0.87899 0.0
C847 C 0.58077 0.93761 0.87187 0.0
C848 C 0.58025 0.76242 0.85635 0.0
C849 C 0.55488 0.82902 0.86672 0.0
C850 C 0.56883 0.70931 0.85361 0.0
C851 C 0.52064 0.66467 0.85824 0.0
C852 C 0.54366 0.77204 0.86392 0.0
C853 C 0.48534 0.67601 0.86596 0.0
C854 C 0.52506 0.84054 0.87638 0.0
C855 C 0.60861 0.92402 0.86206 0.0
N856 N 0.49753 0.72827 0.86856 0.0
N857 N 0.59548 0.87143 0.85988 0.0
H858 H 0.69613 0.59289 1.02381 0.0
H859 H 0.85621 0.43387 0.0451 0.0
H860 H 0.66028 0.50155 0.06141 0.0
H861 H 0.87746 0.52234 1.00746 0.0
H862 H 0.78528 0.45633 0.0519 0.0
H863 H 0.76246 0.56516 1.01816 0.0
C864 C 0.70179 0.56661 1.03088 0.0
C865 C 0.6719 0.54957 0.04311 0.0
C866 C 0.80565 0.47064 0.04216 0.0
C867 C 0.74964 0.51756 1.03669 0.0
C868 C 0.84628 0.45791 1.03829 0.0
C869 C 0.87334 0.47597 1.02564 0.0
C870 C 0.79205 0.50178 1.03335 0.0
C871 C 0.85822 0.507 1.01728 0.0
C872 C 0.74009 0.55076 1.02765 0.0
C873 C 0.68186 0.51553 0.05181 0.0
N874 N 0.81919 0.51868 1.02126 0.0
N875 N 0.71988 0.50087 0.04848 0.0
H876 H 0.46439 0.82992 0.20241 0.0
H877 H 0.14823 0.73856 0.1964 0.0
H878 H 0.4001 0.91459 0.17896 0.0
H879 H 0.20157 0.6266 0.20894 0.0
H880 H 0.24183 0.80618 0.19202 0.0
H881 H 0.37072 0.75869 0.20742 0.0
C882 C 0.43082 0.83398 0.19848 0.0
C883 C 0.44045 0.87855 0.19024 0.0
C884 C 0.23329 0.76679 0.19569 0.0
C885 C 0.33323 0.79719 0.19588 0.0
C886 C 0.17949 0.72782 0.19817 0.0
C887 C 0.16627 0.67627 0.20312 0.0
C888 C 0.27525 0.75509 0.19831 0.0
C889 C 0.20934 0.66553 0.2052 0.0
C890 C 0.37735 0.79306 0.20122 0.0
C891 C 0.39507 0.8811 0.1853 0.0
N892 N 0.26175 0.70457 0.2029 0.0
N893 N 0.34402 0.84145 0.18821 0.0
H894 H 0.68875 0.43705 0.3624 0.0
H895 H 0.4483 0.12817 0.36381 0.0
H896 H 0.51979 0.38743 0.35728 0.0
H897 H 0.61321 0.17192 0.3734 0.0
H898 H 0.4763 0.22309 0.36016 0.0
H899 H 0.66436 0.34181 0.36585 0.0
C900 C 0.64653 0.4064 0.36213 0.0
C901 C 0.60638 0.4209 0.35958 0.0
C902 C 0.50663 0.21219 0.36301 0.0
C903 C 0.57814 0.31106 0.36331 0.0
C904 C 0.49067 0.15753 0.36502 0.0
C905 C 0.52825 0.14115 0.36897 0.0
C906 C 0.56092 0.25191 0.36491 0.0
C907 C 0.58257 0.18205 0.37039 0.0
C908 C 0.63265 0.35185 0.36404 0.0
C909 C 0.55239 0.37884 0.35925 0.0
N910 N 0.59717 0.23528 0.36841 0.0
N911 N 0.54008 0.32636 0.36102 0.0
H912 H 0.19088 0.7841 0.47658 0.0
H913 H 0.45468 0.88022 0.43137 0.0
H914 H 0.28356 0.70112 0.47973 0.0
H915 H 0.31217 0.88208 0.41657 0.0
H916 H 0.40274 0.82759 0.45148 0.0
H917 H 0.24581 0.83469 0.45696 0.0
C918 C 0.22315 0.77682 0.47322 0.0
C919 C 0.23267 0.73832 0.47983 0.0
C920 C 0.38305 0.83946 0.44376 0.0
C921 C 0.29611 0.79667 0.45737 0.0
C922 C 0.41261 0.8696 0.43234 0.0
C923 C 0.38763 0.88529 0.42223 0.0
C924 C 0.32873 0.82641 0.44522 0.0
C925 C 0.33299 0.87044 0.42401 0.0
C926 C 0.25426 0.80552 0.46197 0.0
C927 C 0.27477 0.73031 0.4749 0.0
N928 N 0.30564 0.84239 0.43531 0.0
N929 N 0.30532 0.75958 0.46401 0.0
H930 H 0.58136 0.42528 0.60078 0.0
H931 H 0.54657 0.14103 0.62566 0.0
H932 H 0.5193 0.28566 0.57427 0.0
H933 H 0.55807 0.2643 0.65356 0.0
H934 H 0.54819 0.197 0.60628 0.0
H935 H 0.58485 0.37049 0.61968 0.0
C936 C 0.56882 0.38319 0.59886 0.0
C937 C 0.54996 0.3602 0.58584 0.0
C938 C 0.55054 0.21183 0.61665 0.0
C939 C 0.55403 0.29699 0.60759 0.0
C940 C 0.54996 0.18005 0.62773 0.0
C941 C 0.55227 0.19791 0.64131 0.0
C942 C 0.55422 0.2623 0.6191 0.0
C943 C 0.55606 0.24869 0.6433 0.0
C944 C 0.5706 0.35183 0.60972 0.0
C945 C 0.53399 0.3052 0.58411 0.0
N946 N 0.5571 0.27907 0.63235 0.0
N947 N 0.53652 0.27557 0.59484 0.0
H948 H 0.30041 0.44636 0.81729 0.0
H949 H 0.25786 0.61695 0.75788 0.0
H950 H 0.41202 0.61576 0.81113 0.0
H951 H 0.19457 0.44453 0.75596 0.0
H952 H 0.30475 0.61935 0.77936 0.0
H953 H 0.24956 0.44743 0.7971 0.0
C954 C 0.31367 0.48408 0.81187 0.0
C955 C 0.36064 0.53108 0.81595 0.0
C956 C 0.28066 0.58109 0.77419 0.0
C957 C 0.30267 0.53237 0.79269 0.0
C958 C 0.25394 0.57968 0.76194 0.0
C959 C 0.22262 0.53054 0.75502 0.0
C960 C 0.27507 0.53288 0.77971 0.0
C961 C 0.21879 0.48345 0.76082 0.0
C962 C 0.2849 0.48449 0.80025 0.0
C963 C 0.37612 0.57857 0.80836 0.0
N964 N 0.24436 0.48575 0.77283 0.0
N965 N 0.34727 0.57802 0.7971 0.0
H966 H 0.79535 0.17057 0.91923 0.0
H967 H 0.89171 0.43431 0.96461 0.0
H968 H 0.71201 0.26291 0.91618 0.0
H969 H 0.89317 0.29189 0.97948 0.0
H970 H 0.83904 0.38228 0.94446 0.0
H971 H 0.84605 0.2255 0.93891 0.0
C972 C 0.78804 0.20278 0.92262 0.0
C973 C 0.74938 0.21219 0.91602 0.0
C974 C 0.85083 0.36262 0.9522 0.0
C975 C 0.80788 0.27564 0.93855 0.0
C976 C 0.88099 0.39224 0.96364 0.0
C977 C 0.89659 0.36732 0.97379 0.0
C978 C 0.83767 0.30829 0.95074 0.0
C979 C 0.8816 0.31266 0.97201 0.0
C980 C 0.8168 0.23388 0.93391 0.0
C981 C 0.74133 0.25421 0.921 0.0
N982 N 0.85356 0.28525 0.96068 0.0
N983 N 0.77067 0.28476 0.93192 0.0
H984 H 0.55426 0.8204 0.15354 0.0
H985 H 0.59981 0.80463 0.07324 0.0
H986 H 0.57701 0.94805 0.12569 0.0
H987 H 0.51818 0.66311 0.09883 0.0
H988 H 0.59859 0.86004 0.09246 0.0
H989 H 0.5481 0.76412 0.13381 0.0
C990 C 0.55776 0.83656 0.14328 0.0
C991 C 0.56592 0.88901 0.1413 0.0
C992 C 0.58054 0.81678 0.09379 0.0
C993 C 0.55967 0.82494 0.11863 0.0
C994 C 0.58124 0.78512 0.08283 0.0
C995 C 0.55883 0.72899 0.08435 0.0
C996 C 0.55826 0.79235 0.10647 0.0
C997 C 0.53554 0.70607 0.09708 0.0
C998 C 0.55409 0.80433 0.13201 0.0
C999 C 0.57019 0.90771 0.12773 0.0
N1000 N 0.53634 0.73781 0.10765 0.0
N1001 N 0.56751 0.87594 0.11693 0.0
H1002 H 0.82368 0.59037 0.32312 0.0
H1003 H 0.83591 0.53864 0.24307 0.0
H1004 H 0.68098 0.50366 0.29801 0.0
H1005 H 0.96593 0.56518 0.27063 0.0
H1006 H 0.78052 0.53321 0.2629 0.0
H1007 H 0.87875 0.58858 0.30389 0.0
C1008 C 0.80385 0.57058 0.31364 0.0
C1009 C 0.74749 0.54693 0.31225 0.0
C1010 C 0.82106 0.53987 0.26462 0.0
C1011 C 0.8104 0.54569 0.29014 0.0
C1012 C 0.85277 0.54312 0.25329 0.0
C1013 C 0.90561 0.55212 0.25517 0.0
C1014 C 0.84257 0.54672 0.27795 0.0
C1015 C 0.92525 0.55767 0.26869 0.0
C1016 C 0.83531 0.56955 0.30268 0.0
C1017 C 0.72415 0.52205 0.29966 0.0
N1018 N 0.89395 0.55537 0.27954 0.0
N1019 N 0.75567 0.52257 0.28909 0.0
H1020 H 1.00356 0.48312 0.42877 0.0
H1021 H 0.88037 0.19419 0.39442 0.0
H1022 H 1.05874 0.36765 0.43566 0.0
H1023 H 0.79481 0.28316 0.40064 0.0
H1024 H 0.96471 0.27511 0.40056 0.0
H1025 H 0.94761 0.4274 0.40977 0.0
C1026 C 1.00482 0.44669 0.42614 0.0
C1027 C 1.0343 0.42898 0.43419 0.0
C1028 C 0.92759 0.27716 0.4002 0.0
C1029 C 0.97144 0.366 0.41234 0.0
C1030 C 0.87943 0.23098 0.3968 0.0
C1031 C 0.83019 0.23135 0.39752 0.0
C1032 C 0.92636 0.32387 0.40433 0.0
C1033 C 0.83162 0.28067 0.40014 0.0
C1034 C 0.97321 0.41522 0.41523 0.0
C1035 C 1.03618 0.38269 0.42992 0.0
N1036 N 0.87883 0.3247 0.40375 0.0
N1037 N 1.0042 0.35219 0.41946 0.0
H1038 H 0.70866 0.86861 0.67811 0.0
H1039 H 0.73448 0.70133 0.63608 0.0
H1040 H 0.54431 0.77672 0.66356 0.0
H1041 H 0.56912 0.58108 0.64433 0.0
H1042 H 0.73231 0.75301 0.65543 0.0
H1043 H 0.71898 0.78844 0.67547 0.0
C1044 C 0.67447 0.83133 0.67458 0.0
C1045 C 0.62635 0.82994 0.67044 0.0
C1046 C 0.697 0.71429 0.65346 0.0
C1047 C 0.63816 0.73882 0.6672 0.0
C1048 C 0.69823 0.6844 0.64227 0.0
C1049 C 0.65104 0.63781 0.6381 0.0
C1050 C 0.64791 0.69811 0.66032 0.0
C1051 C 0.60562 0.61831 0.64671 0.0
C1052 C 0.68041 0.78566 0.67308 0.0
C1053 C 0.58258 0.78007 0.66656 0.0
N1054 N 0.60442 0.64965 0.65709 0.0
N1055 N 0.58998 0.73679 0.66471 0.0
H1056 H 0.59174 0.41258 0.77459 0.0
H1057 H 0.83005 0.53923 0.72315 0.0
H1058 H 0.6174 0.53547 0.74477 0.0
H1059 H 0.81777 0.44714 0.75958 0.0
H1060 H 0.73229 0.50353 0.72375 0.0
H1061 H 0.64737 0.38753 0.76098 0.0
C1062 C 0.60731 0.4332 0.76493 0.0
C1063 C 0.6026 0.4786 0.76124 0.0
C1064 C 0.75093 0.49005 0.73137 0.0
C1065 C 0.66806 0.45114 0.74594 0.0
C1066 C 0.80678 0.511 0.73117 0.0
C1067 C 0.83243 0.49809 0.74169 0.0
C1068 C 0.72078 0.45631 0.74223 0.0
C1069 C 0.80004 0.45922 0.75141 0.0
C1070 C 0.63953 0.41892 0.75718 0.0
C1071 C 0.6228 0.50239 0.74841 0.0
N1072 N 0.74603 0.44064 0.75161 0.0
N1073 N 0.65643 0.48973 0.74144 0.0
H1074 H 0.38854 1.04065 0.96259 0.0
H1075 H 0.30099 0.76662 0.99499 0.0
H1076 H 0.49743 0.97574 0.96663 0.0
H1077 H 0.21834 0.85725 1.00304 0.0
H1078 H 0.38249 0.85033 0.98967 0.0
H1079 H 0.33714 0.98618 0.98194 0.0
C1080 C 0.40274 1.01619 0.96776 0.0
C1081 C 0.44628 1.01127 0.96259 0.0
C1082 C 0.347 0.85223 0.99295 0.0
C1083 C 0.38612 0.94711 0.98454 0.0
C1084 C 0.30026 0.80422 0.99605 0.0
C1085 C 0.25205 0.80465 0.99897 0.0
C1086 C 0.34508 0.9007 0.99245 0.0
C1087 C 0.25398 0.85483 1.00023 0.0
C1088 C 0.37304 0.98472 0.97884 0.0
C1089 C 0.46259 0.97889 0.96986 0.0
N1090 N 0.29929 0.90075 0.99659 0.0
N1091 N 0.43155 0.94678 0.98021 0.0
H1092 H 0.59126 0.31735 0.16223 0.0
H1093 H 0.3861 0.40856 0.14262 0.0
H1094 H 0.42286 0.23097 0.17367 0.0
H1095 H 0.55796 0.5025 0.13586 0.0
H1096 H 0.4029 0.36038 0.16106 0.0
H1097 H 0.58531 0.39944 0.16004 0.0
C1098 C 0.5533 0.31578 0.16466 0.0
C1099 C 0.50687 0.26657 0.16759 0.0
C1100 C 0.43711 0.39272 0.15585 0.0
C1101 C 0.49934 0.36041 0.16462 0.0
C1102 C 0.42745 0.42023 0.14531 0.0
C1103 C 0.47053 0.45799 0.13733 0.0
C1104 C 0.49006 0.40244 0.15816 0.0
C1105 C 0.52336 0.47281 0.14152 0.0
C1106 C 0.54984 0.36287 0.16334 0.0
C1107 C 0.45905 0.26751 0.17073 0.0
N1108 N 0.53158 0.44381 0.15137 0.0
N1109 N 0.45608 0.31333 0.16879 0.0
H1110 H 0.5235 0.51224 0.2507 0.0
H1111 H 0.32332 0.55366 0.23028 0.0
H1112 H 0.38628 0.36097 0.26289 0.0
H1113 H 0.22522 0.38211 0.2235 0.0
H1114 H 0.40205 0.54219 0.23284 0.0
H1115 H 0.46962 0.5181 0.23182 0.0
C1116 C 0.48252 0.47971 0.24928 0.0
C1117 C 0.45853 0.43756 0.25892 0.0
C1118 C 0.36389 0.50718 0.23022 0.0
C1119 C 0.3971 0.44408 0.23739 0.0
C1120 C 0.31855 0.51375 0.22881 0.0
C1121 C 0.26715 0.46847 0.22718 0.0
C1122 C 0.3575 0.45485 0.23024 0.0
C1123 C 0.26376 0.41784 0.22536 0.0
C1124 C 0.45187 0.48316 0.23849 0.0
C1125 C 0.4064 0.39509 0.25605 0.0
N1126 N 0.30803 0.41212 0.22739 0.0
N1127 N 0.377 0.40014 0.24574 0.0
loop_
_geom_bond_atom_site_label_1
_geom_bond_atom_site_label_2
_geom_bond_distance
_geom_bond_site_symmetry_2
_ccdc_geom_bond_type
Eu0 C9 2.828 . S
Eu0 O11 2.392 1_545 S
Eu0 O13 2.418 1_545 S
Eu0 O18 2.373 . S
Eu0 O21 2.488 . S
Eu0 O22 2.471 . S
Eu0 O23 2.349 . S
Eu1 O10 2.373 . S
Eu1 O14 2.488 . S
Eu1 O15 2.471 . S
Eu1 O16 2.349 . S
Eu1 O19 2.392 1_565 S
Eu1 O20 2.418 1_565 S
Eu1 C30 2.828 . S
C2 O20 1.244 . S
C2 O23 1.265 . S
C3 C4 1.379 . S
C3 C7 1.373 . S
C3 C9 1.505 . S
C4 C3 1.379 . S
C4 C6 1.369 . S
C4 H32 0.930 . S
C5 C7 1.383 . S
C5 C8 1.382 . S
C5 H33 0.930 . S
C6 C4 1.369 . S
C6 C8 1.392 . S
C6 H34 0.930 . S
C7 C3 1.373 . S
C7 C5 1.383 . S
C7 H35 0.931 . S
C8 C5 1.382 . S
C8 C6 1.392 . S
C9 Eu0 2.828 . S
C9 C3 1.505 . S
C9 O21 1.249 . S
C9 O22 1.244 . S
O10 Eu1 2.373 . S
O10 C12 1.258 . S
O11 Eu0 2.392 1_565 S
O11 C12 1.242 . S
C12 O10 1.258 . S
C12 O11 1.242 . S
O13 Eu0 2.418 1_565 S
O13 C17 1.244 . S
O14 Eu1 2.488 . S
O14 C30 1.249 . S
O15 Eu1 2.471 . S
O15 C30 1.244 . S
O16 Eu1 2.349 . S
O16 C17 1.265 . S
C17 O13 1.244 . S
C17 O16 1.265 . S
O18 Eu0 2.373 . S
O18 C31 1.258 . S
O19 Eu1 2.392 1_545 S
O19 C31 1.242 . S
O20 Eu1 2.418 1_545 S
O20 C2 1.244 . S
O21 Eu0 2.488 . S
O21 C9 1.249 . S
O22 Eu0 2.471 . S
O22 C9 1.244 . S
O23 Eu0 2.349 . S
O23 C2 1.265 . S
C24 C25 1.379 . S
C24 C28 1.373 . S
C24 C30 1.505 . S
C25 C24 1.379 . S
C25 C27 1.369 . S
C25 H36 0.930 . S
C26 C28 1.383 . S
C26 C29 1.382 . S
C26 H37 0.930 . S
C27 C25 1.369 . S
C27 C29 1.392 . S
C27 H38 0.930 . S
C28 C24 1.373 . S
C28 C26 1.383 . S
C28 H39 0.931 . S
C29 C26 1.382 . S
C29 C27 1.392 . S
C30 Eu1 2.828 . S
C30 O14 1.249 . S
C30 O15 1.244 . S
C30 C24 1.505 . S
C31 O18 1.258 . S
C31 O19 1.242 . S
H32 C4 0.930 . S
H33 C5 0.930 . S
H34 C6 0.930 . S
H35 C7 0.931 . S
H36 C25 0.930 . S
H37 C26 0.930 . S
H38 C27 0.930 . S
H39 C28 0.931 . S
Eu40 C49 2.828 . S
Eu40 O51 2.392 . S
Eu40 O53 2.418 . S
Eu40 O58 2.373 . S
Eu40 O61 2.488 . S
Eu40 O62 2.471 . S
Eu40 O63 2.349 . S
Eu41 O50 2.373 . S
Eu41 O54 2.488 . S
Eu41 O55 2.471 . S
Eu41 O56 2.349 . S
Eu41 O59 2.392 . S
Eu41 O60 2.418 . S
Eu41 C70 2.828 . S
C42 O60 1.244 . S
C42 O63 1.265 . S
C43 C44 1.379 . S
C43 C47 1.373 . S
C43 C49 1.505 . S
C44 C43 1.379 . S
C44 C46 1.369 . S
C44 H72 0.930 . S
C45 C47 1.383 . S
C45 C48 1.382 . S
C45 H73 0.930 . S
C46 C44 1.369 . S
C46 C48 1.392 . S
C46 H74 0.930 . S
C47 C43 1.373 . S
C47 C45 1.383 . S
C47 H75 0.931 . S
C48 C45 1.382 . S
C48 C46 1.392 . S
C49 Eu40 2.828 . S
C49 C43 1.505 . S
C49 O61 1.249 . S
C49 O62 1.244 . S
O50 Eu41 2.373 . S
O50 C52 1.258 . S
O51 Eu40 2.392 . S
O51 C52 1.242 . S
C52 O50 1.258 . S
C52 O51 1.242 . S
O53 Eu40 2.418 . S
O53 C57 1.244 . S
O54 Eu41 2.488 . S
O54 C70 1.249 . S
O55 Eu41 2.471 . S
O55 C70 1.244 . S
O56 Eu41 2.349 . S
O56 C57 1.265 . S
C57 O53 1.244 . S
C57 O56 1.265 . S
O58 Eu40 2.373 . S
O58 C71 1.258 . S
O59 Eu41 2.392 . S
O59 C71 1.242 . S
O60 Eu41 2.418 . S
O60 C42 1.244 . S
O61 Eu40 2.488 . S
O61 C49 1.249 . S
O62 Eu40 2.471 . S
O62 C49 1.244 . S
O63 Eu40 2.349 . S
O63 C42 1.265 . S
C64 C65 1.379 . S
C64 C68 1.373 . S
C64 C70 1.505 . S
C65 C64 1.379 . S
C65 C67 1.369 . S
C65 H76 0.930 . S
C66 C68 1.383 . S
C66 C69 1.382 . S
C66 H77 0.930 . S
C67 C65 1.369 . S
C67 C69 1.392 . S
C67 H78 0.930 . S
C68 C64 1.373 . S
C68 C66 1.383 . S
C68 H79 0.931 . S
C69 C66 1.382 . S
C69 C67 1.392 . S
C70 Eu41 2.828 . S
C70 O54 1.249 . S
C70 O55 1.244 . S
C70 C64 1.505 . S
C71 O58 1.258 . S
C71 O59 1.242 . S
H72 C44 0.930 . S
H73 C45 0.930 . S
H74 C46 0.930 . S
H75 C47 0.931 . S
H76 C65 0.930 . S
H77 C66 0.930 . S
H78 C67 0.930 . S
H79 C68 0.931 . S
Eu80 C89 2.828 . S
Eu80 O91 2.392 1_655 S
Eu80 O93 2.418 1_655 S
Eu80 O98 2.373 . S
Eu80 O101 2.488 . S
Eu80 O102 2.471 . S
Eu80 O103 2.349 . S
Eu81 O90 2.373 . S
Eu81 O94 2.488 . S
Eu81 O95 2.471 . S
Eu81 O96 2.349 . S
Eu81 O99 2.392 1_455 S
Eu81 O100 2.418 1_455 S
Eu81 C110 2.828 . S
C82 O100 1.244 . S
C82 O103 1.265 . S
C83 C84 1.379 . S
C83 C87 1.373 . S
C83 C89 1.505 . S
C84 C83 1.379 . S
C84 C86 1.369 . S
C84 H112 0.930 . S
C85 C87 1.383 . S
C85 C88 1.382 . S
C85 H113 0.930 . S
C86 C84 1.369 . S
C86 C88 1.392 . S
C86 H114 0.930 . S
C87 C83 1.373 . S
C87 C85 1.383 . S
C87 H115 0.931 . S
C88 C85 1.382 . S
C88 C86 1.392 . S
C89 Eu80 2.828 . S
C89 C83 1.505 . S
C89 O101 1.249 . S
C89 O102 1.244 . S
O90 Eu81 2.373 . S
O90 C92 1.258 . S
O91 Eu80 2.392 1_455 S
O91 C92 1.242 . S
C92 O90 1.258 . S
C92 O91 1.242 . S
O93 Eu80 2.418 1_455 S
O93 C97 1.244 . S
O94 Eu81 2.488 . S
O94 C110 1.249 . S
O95 Eu81 2.471 . S
O95 C110 1.244 . S
O96 Eu81 2.349 . S
O96 C97 1.265 . S
C97 O93 1.244 . S
C97 O96 1.265 . S
O98 Eu80 2.373 . S
O98 C111 1.258 . S
O99 Eu81 2.392 1_655 S
O99 C111 1.242 . S
O100 Eu81 2.418 1_655 S
O100 C82 1.244 . S
O101 Eu80 2.488 . S
O101 C89 1.249 . S
O102 Eu80 2.471 . S
O102 C89 1.244 . S
O103 Eu80 2.349 . S
O103 C82 1.265 . S
C104 C105 1.379 . S
C104 C108 1.373 . S
C104 C110 1.505 . S
C105 C104 1.379 . S
C105 C107 1.369 . S
C105 H116 0.930 . S
C106 C108 1.383 . S
C106 C109 1.382 . S
C106 H117 0.930 . S
C107 C105 1.369 . S
C107 C109 1.392 . S
C107 H118 0.930 . S
C108 C104 1.373 . S
C108 C106 1.383 . S
C108 H119 0.931 . S
C109 C106 1.382 . S
C109 C107 1.392 . S
C110 Eu81 2.828 . S
C110 O94 1.249 . S
C110 O95 1.244 . S
C110 C104 1.505 . S
C111 O98 1.258 . S
C111 O99 1.242 . S
H112 C84 0.930 . S
H113 C85 0.930 . S
H114 C86 0.930 . S
H115 C87 0.931 . S
H116 C105 0.930 . S
H117 C106 0.930 . S
H118 C107 0.930 . S
H119 C108 0.931 . S
Eu120 C129 2.828 . S
Eu120 O131 2.392 1_565 S
Eu120 O133 2.418 1_565 S
Eu120 O138 2.373 . S
Eu120 O141 2.488 . S
Eu120 O142 2.471 . S
Eu120 O143 2.349 . S
Eu121 O130 2.373 . S
Eu121 O134 2.488 . S
Eu121 O135 2.471 . S
Eu121 O136 2.349 . S
Eu121 O139 2.392 1_545 S
Eu121 O140 2.418 1_545 S
Eu121 C150 2.828 . S
C122 O140 1.244 . S
C122 O143 1.265 . S
C123 C124 1.379 . S
C123 C127 1.373 . S
C123 C129 1.505 . S
C124 C123 1.379 . S
C124 C126 1.369 . S
C124 H152 0.930 . S
C125 C127 1.383 . S
C125 C128 1.382 . S
C125 H153 0.930 . S
C126 C124 1.369 . S
C126 C128 1.392 . S
C126 H154 0.930 . S
C127 C123 1.373 . S
C127 C125 1.383 . S
C127 H155 0.931 . S
C128 C125 1.382 . S
C128 C126 1.392 . S
C129 Eu120 2.828 . S
C129 C123 1.505 . S
C129 O141 1.249 . S
C129 O142 1.244 . S
O130 Eu121 2.373 . S
O130 C132 1.258 . S
O131 Eu120 2.392 1_545 S
O131 C132 1.242 . S
C132 O130 1.258 . S
C132 O131 1.242 . S
O133 Eu120 2.418 1_545 S
O133 C137 1.244 . S
O134 Eu121 2.488 . S
O134 C150 1.249 . S
O135 Eu121 2.471 . S
O135 C150 1.244 . S
O136 Eu121 2.349 . S
O136 C137 1.265 . S
C137 O133 1.244 . S
C137 O136 1.265 . S
O138 Eu120 2.373 . S
O138 C151 1.258 . S
O139 Eu121 2.392 1_565 S
O139 C151 1.242 . S
O140 Eu121 2.418 1_565 S
O140 C122 1.244 . S
O141 Eu120 2.488 . S
O141 C129 1.249 . S
O142 Eu120 2.471 . S
O142 C129 1.244 . S
O143 Eu120 2.349 . S
O143 C122 1.265 . S
C144 C145 1.379 . S
C144 C148 1.373 . S
C144 C150 1.505 . S
C145 C144 1.379 . S
C145 C147 1.369 . S
C145 H156 0.930 . S
C146 C148 1.383 . S
C146 C149 1.382 . S
C146 H157 0.930 . S
C147 C145 1.369 . S
C147 C149 1.392 . S
C147 H158 0.930 . S
C148 C144 1.373 . S
C148 C146 1.383 . S
C148 H159 0.931 . S
C149 C146 1.382 . S
C149 C147 1.392 . S
C150 Eu121 2.828 . S
C150 O134 1.249 . S
C150 O135 1.244 . S
C150 C144 1.505 . S
C151 O138 1.258 . S
C151 O139 1.242 . S
H152 C124 0.930 . S
H153 C125 0.930 . S
H154 C126 0.930 . S
H155 C127 0.931 . S
H156 C145 0.930 . S
H157 C146 0.930 . S
H158 C147 0.930 . S
H159 C148 0.931 . S
Eu160 C169 2.828 . S
Eu160 O171 2.392 . S
Eu160 O173 2.418 . S
Eu160 O178 2.373 . S
Eu160 O181 2.488 . S
Eu160 O182 2.471 . S
Eu160 O183 2.349 . S
Eu161 O170 2.373 . S
Eu161 O174 2.488 1_554 S
Eu161 O175 2.471 . S
Eu161 O176 2.349 . S
Eu161 O179 2.392 . S
Eu161 O180 2.418 . S
Eu161 C190 2.828 1_554 S
C162 O180 1.244 . S
C162 O183 1.265 . S
C163 C164 1.379 . S
C163 C167 1.373 . S
C163 C169 1.505 . S
C164 C163 1.379 . S
C164 C166 1.369 . S
C164 H192 0.930 . S
C165 C167 1.383 . S
C165 C168 1.382 . S
C165 H193 0.930 . S
C166 C164 1.369 . S
C166 C168 1.392 . S
C166 H194 0.930 . S
C167 C163 1.373 . S
C167 C165 1.383 . S
C167 H195 0.931 . S
C168 C165 1.382 . S
C168 C166 1.392 . S
C169 Eu160 2.828 . S
C169 C163 1.505 . S
C169 O181 1.249 . S
C169 O182 1.244 . S
O170 Eu161 2.373 . S
O170 C172 1.258 . S
O171 Eu160 2.392 . S
O171 C172 1.242 . S
C172 O170 1.258 . S
C172 O171 1.242 . S
O173 Eu160 2.418 . S
O173 C177 1.244 . S
O174 Eu161 2.488 1_556 S
O174 C190 1.249 . S
O175 Eu161 2.471 . S
O175 C190 1.244 1_554 S
O176 Eu161 2.349 . S
O176 C177 1.265 . S
C177 O173 1.244 . S
C177 O176 1.265 . S
O178 Eu160 2.373 . S
O178 C191 1.258 . S
O179 Eu161 2.392 . S
O179 C191 1.242 . S
O180 Eu161 2.418 . S
O180 C162 1.244 . S
O181 Eu160 2.488 . S
O181 C169 1.249 . S
O182 Eu160 2.471 . S
O182 C169 1.244 . S
O183 Eu160 2.349 . S
O183 C162 1.265 . S
C184 C185 1.379 . S
C184 C188 1.373 . S
C184 C190 1.505 . S
C185 C184 1.379 . S
C185 C187 1.369 . S
C185 H196 0.930 . S
C186 C188 1.383 . S
C186 C189 1.382 . S
C186 H197 0.930 . S
C187 C185 1.369 . S
C187 C189 1.392 . S
C187 H198 0.930 . S
C188 C184 1.373 . S
C188 C186 1.383 . S
C188 H199 0.931 . S
C189 C186 1.382 . S
C189 C187 1.392 . S
C190 Eu161 2.828 1_556 S
C190 O174 1.249 . S
C190 O175 1.244 1_556 S
C190 C184 1.505 . S
C191 O178 1.258 . S
C191 O179 1.242 . S
H192 C164 0.930 . S
H193 C165 0.930 . S
H194 C166 0.930 . S
H195 C167 0.931 . S
H196 C185 0.930 . S
H197 C186 0.930 . S
H198 C187 0.930 . S
H199 C188 0.931 . S
Eu200 C209 2.828 . S
Eu200 O211 2.392 1_455 S
Eu200 O213 2.418 1_455 S
Eu200 O218 2.373 . S
Eu200 O221 2.488 . S
Eu200 O222 2.471 . S
Eu200 O223 2.349 . S
Eu201 O210 2.373 . S
Eu201 O214 2.488 . S
Eu201 O215 2.471 . S
Eu201 O216 2.349 . S
Eu201 O219 2.392 1_655 S
Eu201 O220 2.418 1_655 S
Eu201 C230 2.828 . S
C202 O220 1.244 . S
C202 O223 1.265 . S
C203 C204 1.379 . S
C203 C207 1.373 . S
C203 C209 1.505 . S
C204 C203 1.379 . S
C204 C206 1.369 . S
C204 H232 0.930 . S
C205 C207 1.383 . S
C205 C208 1.382 . S
C205 H233 0.930 . S
C206 C204 1.369 . S
C206 C208 1.392 . S
C206 H234 0.930 . S
C207 C203 1.373 . S
C207 C205 1.383 . S
C207 H235 0.931 . S
C208 C205 1.382 . S
C208 C206 1.392 . S
C209 Eu200 2.828 . S
C209 C203 1.505 . S
C209 O221 1.249 . S
C209 O222 1.244 . S
O210 Eu201 2.373 . S
O210 C212 1.258 . S
O211 Eu200 2.392 1_655 S
O211 C212 1.242 . S
C212 O210 1.258 . S
C212 O211 1.242 . S
O213 Eu200 2.418 1_655 S
O213 C217 1.244 . S
O214 Eu201 2.488 . S
O214 C230 1.249 . S
O215 Eu201 2.471 . S
O215 C230 1.244 . S
O216 Eu201 2.349 . S
O216 C217 1.265 . S
C217 O213 1.244 . S
C217 O216 1.265 . S
O218 Eu200 2.373 . S
O218 C231 1.258 . S
O219 Eu201 2.392 1_455 S
O219 C231 1.242 . S
O220 Eu201 2.418 1_455 S
O220 C202 1.244 . S
O221 Eu200 2.488 . S
O221 C209 1.249 . S
O222 Eu200 2.471 . S
O222 C209 1.244 . S
O223 Eu200 2.349 . S
O223 C202 1.265 . S
C224 C225 1.379 . S
C224 C228 1.373 . S
C224 C230 1.505 . S
C225 C224 1.379 . S
C225 C227 1.369 . S
C225 H236 0.930 . S
C226 C228 1.383 . S
C226 C229 1.382 . S
C226 H237 0.930 . S
C227 C225 1.369 . S
C227 C229 1.392 . S
C227 H238 0.930 . S
C228 C224 1.373 . S
C228 C226 1.383 . S
C228 H239 0.931 . S
C229 C226 1.382 . S
C229 C227 1.392 . S
C230 Eu201 2.828 . S
C230 O214 1.249 . S
C230 O215 1.244 . S
C230 C224 1.505 . S
C231 O218 1.258 . S
C231 O219 1.242 . S
H232 C204 0.930 . S
H233 C205 0.930 . S
H234 C206 0.930 . S
H235 C207 0.931 . S
H236 C225 0.930 . S
H237 C226 0.930 . S
H238 C227 0.930 . S
H239 C228 0.931 . S
Eu240 C249 2.828 . S
Eu240 O251 2.392 1_655 S
Eu240 O253 2.418 1_655 S
Eu240 O258 2.373 . S
Eu240 O261 2.488 . S
Eu240 O262 2.471 . S
Eu240 O263 2.349 . S
Eu241 O250 2.373 . S
Eu241 O254 2.488 . S
Eu241 O255 2.471 . S
Eu241 O256 2.349 . S
Eu241 O259 2.392 1_455 S
Eu241 O260 2.418 1_455 S
Eu241 C270 2.828 . S
C242 O260 1.244 . S
C242 O263 1.265 . S
C243 C244 1.379 . S
C243 C247 1.373 . S
C243 C249 1.505 . S
C244 C243 1.379 . S
C244 C246 1.369 . S
C244 H272 0.930 . S
C245 C247 1.383 . S
C245 C248 1.382 . S
C245 H273 0.930 . S
C246 C244 1.369 . S
C246 C248 1.392 . S
C246 H274 0.930 . S
C247 C243 1.373 . S
C247 C245 1.383 . S
C247 H275 0.931 . S
C248 C245 1.382 . S
C248 C246 1.392 . S
C249 Eu240 2.828 . S
C249 C243 1.505 . S
C249 O261 1.249 . S
C249 O262 1.244 . S
O250 Eu241 2.373 . S
O250 C252 1.258 . S
O251 Eu240 2.392 1_455 S
O251 C252 1.242 . S
C252 O250 1.258 . S
C252 O251 1.242 . S
O253 Eu240 2.418 1_455 S
O253 C257 1.244 . S
O254 Eu241 2.488 . S
O254 C270 1.249 . S
O255 Eu241 2.471 . S
O255 C270 1.244 . S
O256 Eu241 2.349 . S
O256 C257 1.265 . S
C257 O253 1.244 . S
C257 O256 1.265 . S
O258 Eu240 2.373 . S
O258 C271 1.258 . S
O259 Eu241 2.392 1_655 S
O259 C271 1.242 . S
O260 Eu241 2.418 1_655 S
O260 C242 1.244 . S
O261 Eu240 2.488 . S
O261 C249 1.249 . S
O262 Eu240 2.471 . S
O262 C249 1.244 . S
O263 Eu240 2.349 . S
O263 C242 1.265 . S
C264 C265 1.379 . S
C264 C268 1.373 . S
C264 C270 1.505 . S
C265 C264 1.379 . S
C265 C267 1.369 . S
C265 H276 0.930 . S
C266 C268 1.383 . S
C266 C269 1.382 . S
C266 H277 0.930 . S
C267 C265 1.369 . S
C267 C269 1.392 . S
C267 H278 0.930 . S
C268 C264 1.373 . S
C268 C266 1.383 . S
C268 H279 0.931 . S
C269 C266 1.382 . S
C269 C267 1.392 . S
C270 Eu241 2.828 . S
C270 O254 1.249 . S
C270 O255 1.244 . S
C270 C264 1.505 . S
C271 O258 1.258 . S
C271 O259 1.242 . S
H272 C244 0.930 . S
H273 C245 0.930 . S
H274 C246 0.930 . S
H275 C247 0.931 . S
H276 C265 0.930 . S
H277 C266 0.930 . S
H278 C267 0.930 . S
H279 C268 0.931 . S
Eu280 C289 2.828 . S
Eu280 O291 2.392 1_565 S
Eu280 O293 2.418 1_565 S
Eu280 O298 2.373 . S
Eu280 O301 2.488 . S
Eu280 O302 2.471 . S
Eu280 O303 2.349 . S
Eu281 O290 2.373 . S
Eu281 O294 2.488 . S
Eu281 O295 2.471 . S
Eu281 O296 2.349 . S
Eu281 O299 2.392 1_545 S
Eu281 O300 2.418 1_545 S
Eu281 C310 2.828 . S
C282 O300 1.244 . S
C282 O303 1.265 . S
C283 C284 1.379 . S
C283 C287 1.373 . S
C283 C289 1.505 . S
C284 C283 1.379 . S
C284 C286 1.369 . S
C284 H312 0.930 . S
C285 C287 1.383 . S
C285 C288 1.382 . S
C285 H313 0.930 . S
C286 C284 1.369 . S
C286 C288 1.392 . S
C286 H314 0.930 . S
C287 C283 1.373 . S
C287 C285 1.383 . S
C287 H315 0.931 . S
C288 C285 1.382 . S
C288 C286 1.392 . S
C289 Eu280 2.828 . S
C289 C283 1.505 . S
C289 O301 1.249 . S
C289 O302 1.244 . S
O290 Eu281 2.373 . S
O290 C292 1.258 . S
O291 Eu280 2.392 1_545 S
O291 C292 1.242 . S
C292 O290 1.258 . S
C292 O291 1.242 . S
O293 Eu280 2.418 1_545 S
O293 C297 1.244 . S
O294 Eu281 2.488 . S
O294 C310 1.249 . S
O295 Eu281 2.471 . S
O295 C310 1.244 . S
O296 Eu281 2.349 . S
O296 C297 1.265 . S
C297 O293 1.244 . S
C297 O296 1.265 . S
O298 Eu280 2.373 . S
O298 C311 1.258 . S
O299 Eu281 2.392 1_565 S
O299 C311 1.242 . S
O300 Eu281 2.418 1_565 S
O300 C282 1.244 . S
O301 Eu280 2.488 . S
O301 C289 1.249 . S
O302 Eu280 2.471 . S
O302 C289 1.244 . S
O303 Eu280 2.349 . S
O303 C282 1.265 . S
C304 C305 1.379 . S
C304 C308 1.373 . S
C304 C310 1.505 . S
C305 C304 1.379 . S
C305 C307 1.369 . S
C305 H316 0.930 . S
C306 C308 1.383 . S
C306 C309 1.382 . S
C306 H317 0.930 . S
C307 C305 1.369 . S
C307 C309 1.392 . S
C307 H318 0.930 . S
C308 C304 1.373 . S
C308 C306 1.383 . S
C308 H319 0.931 . S
C309 C306 1.382 . S
C309 C307 1.392 . S
C310 Eu281 2.828 . S
C310 O294 1.249 . S
C310 O295 1.244 . S
C310 C304 1.505 . S
C311 O298 1.258 . S
C311 O299 1.242 . S
H312 C284 0.930 . S
H313 C285 0.930 . S
H314 C286 0.930 . S
H315 C287 0.931 . S
H316 C305 0.930 . S
H317 C306 0.930 . S
H318 C307 0.930 . S
H319 C308 0.931 . S
Eu320 C329 2.828 . S
Eu320 O331 2.392 . S
Eu320 O333 2.418 . S
Eu320 O338 2.373 . S
Eu320 O341 2.488 . S
Eu320 O342 2.471 . S
Eu320 O343 2.349 . S
Eu321 O330 2.373 . S
Eu321 O334 2.488 . S
Eu321 O335 2.471 . S
Eu321 O336 2.349 . S
Eu321 O339 2.392 . S
Eu321 O340 2.418 . S
Eu321 C350 2.828 . S
C322 O340 1.244 . S
C322 O343 1.265 . S
C323 C324 1.379 . S
C323 C327 1.373 . S
C323 C329 1.505 . S
C324 C323 1.379 . S
C324 C326 1.369 . S
C324 H352 0.930 . S
C325 C327 1.383 . S
C325 C328 1.382 . S
C325 H353 0.930 . S
C326 C324 1.369 . S
C326 C328 1.392 . S
C326 H354 0.930 . S
C327 C323 1.373 . S
C327 C325 1.383 . S
C327 H355 0.931 . S
C328 C325 1.382 . S
C328 C326 1.392 . S
C329 Eu320 2.828 . S
C329 C323 1.505 . S
C329 O341 1.249 . S
C329 O342 1.244 . S
O330 Eu321 2.373 . S
O330 C332 1.258 . S
O331 Eu320 2.392 . S
O331 C332 1.242 . S
C332 O330 1.258 . S
C332 O331 1.242 . S
O333 Eu320 2.418 . S
O333 C337 1.244 . S
O334 Eu321 2.488 . S
O334 C350 1.249 . S
O335 Eu321 2.471 . S
O335 C350 1.244 . S
O336 Eu321 2.349 . S
O336 C337 1.265 . S
C337 O333 1.244 . S
C337 O336 1.265 . S
O338 Eu320 2.373 . S
O338 C351 1.258 . S
O339 Eu321 2.392 . S
O339 C351 1.242 . S
O340 Eu321 2.418 . S
O340 C322 1.244 . S
O341 Eu320 2.488 . S
O341 C329 1.249 . S
O342 Eu320 2.471 . S
O342 C329 1.244 . S
O343 Eu320 2.349 . S
O343 C322 1.265 . S
C344 C345 1.379 . S
C344 C348 1.373 . S
C344 C350 1.505 . S
C345 C344 1.379 . S
C345 C347 1.369 . S
C345 H356 0.930 . S
C346 C348 1.383 . S
C346 C349 1.382 . S
C346 H357 0.930 . S
C347 C345 1.369 . S
C347 C349 1.392 . S
C347 H358 0.930 . S
C348 C344 1.373 . S
C348 C346 1.383 . S
C348 H359 0.931 . S
C349 C346 1.382 . S
C349 C347 1.392 . S
C350 Eu321 2.828 . S
C350 O334 1.249 . S
C350 O335 1.244 . S
C350 C344 1.505 . S
C351 O338 1.258 . S
C351 O339 1.242 . S
H352 C324 0.930 . S
H353 C325 0.930 . S
H354 C326 0.930 . S
H355 C327 0.931 . S
H356 C345 0.930 . S
H357 C346 0.930 . S
H358 C347 0.930 . S
H359 C348 0.931 . S
Eu360 C369 2.828 . S
Eu360 O371 2.392 1_455 S
Eu360 O373 2.418 1_455 S
Eu360 O378 2.373 . S
Eu360 O381 2.488 . S
Eu360 O382 2.471 . S
Eu360 O383 2.349 . S
Eu361 O370 2.373 . S
Eu361 O374 2.488 . S
Eu361 O375 2.471 . S
Eu361 O376 2.349 . S
Eu361 O379 2.392 1_655 S
Eu361 O380 2.418 1_655 S
Eu361 C390 2.828 . S
C362 O380 1.244 . S
C362 O383 1.265 . S
C363 C364 1.379 . S
C363 C367 1.373 . S
C363 C369 1.505 . S
C364 C363 1.379 . S
C364 C366 1.369 . S
C364 H392 0.930 . S
C365 C367 1.383 . S
C365 C368 1.382 . S
C365 H393 0.930 . S
C366 C364 1.369 . S
C366 C368 1.392 . S
C366 H394 0.930 . S
C367 C363 1.373 . S
C367 C365 1.383 . S
C367 H395 0.931 . S
C368 C365 1.382 . S
C368 C366 1.392 . S
C369 Eu360 2.828 . S
C369 C363 1.505 . S
C369 O381 1.249 . S
C369 O382 1.244 . S
O370 Eu361 2.373 . S
O370 C372 1.258 . S
O371 Eu360 2.392 1_655 S
O371 C372 1.242 . S
C372 O370 1.258 . S
C372 O371 1.242 . S
O373 Eu360 2.418 1_655 S
O373 C377 1.244 . S
O374 Eu361 2.488 . S
O374 C390 1.249 . S
O375 Eu361 2.471 . S
O375 C390 1.244 . S
O376 Eu361 2.349 . S
O376 C377 1.265 . S
C377 O373 1.244 . S
C377 O376 1.265 . S
O378 Eu360 2.373 . S
O378 C391 1.258 . S
O379 Eu361 2.392 1_455 S
O379 C391 1.242 . S
O380 Eu361 2.418 1_455 S
O380 C362 1.244 . S
O381 Eu360 2.488 . S
O381 C369 1.249 . S
O382 Eu360 2.471 . S
O382 C369 1.244 . S
O383 Eu360 2.349 . S
O383 C362 1.265 . S
C384 C385 1.373 1_554 S
C384 C388 1.373 . S
C384 C390 1.505 1_554 S
C385 C384 1.373 1_556 S
C385 C387 1.344 1_556 S
C385 H396 0.962 . S
C386 C388 1.383 . S
C386 C389 1.382 . S
C386 H397 0.930 . S
C387 C385 1.344 1_554 S
C387 C389 1.392 . S
C387 H398 0.930 . S
C388 C384 1.373 . S
C388 C386 1.383 . S
C388 H399 0.931 . S
C389 C386 1.382 . S
C389 C387 1.392 . S
C390 Eu361 2.828 . S
C390 O374 1.249 . S
C390 O375 1.244 . S
C390 C384 1.505 1_556 S
C391 O378 1.258 . S
C391 O379 1.242 . S
H392 C364 0.930 . S
H393 C365 0.930 . S
H394 C366 0.930 . S
H395 C367 0.931 . S
H396 C385 0.962 . S
H397 C386 0.930 . S
H398 C387 0.930 . S
H399 C388 0.931 . S
Eu400 C409 2.828 . S
Eu400 O411 2.392 1_545 S
Eu400 O413 2.418 1_545 S
Eu400 O418 2.373 . S
Eu400 O421 2.488 . S
Eu400 O422 2.471 . S
Eu400 O423 2.349 . S
Eu401 O410 2.373 . S
Eu401 O414 2.488 . S
Eu401 O415 2.471 . S
Eu401 O416 2.349 . S
Eu401 O419 2.392 1_565 S
Eu401 O420 2.418 1_565 S
Eu401 C430 2.828 . S
C402 O420 1.244 . S
C402 O423 1.265 . S
C403 C404 1.379 . S
C403 C407 1.373 . S
C403 C409 1.505 . S
C404 C403 1.379 . S
C404 C406 1.369 . S
C404 H432 0.930 . S
C405 C407 1.383 . S
C405 C408 1.382 . S
C405 H433 0.930 . S
C406 C404 1.369 . S
C406 C408 1.392 . S
C406 H434 0.930 . S
C407 C403 1.373 . S
C407 C405 1.383 . S
C407 H435 0.931 . S
C408 C405 1.382 . S
C408 C406 1.392 . S
C409 Eu400 2.828 . S
C409 C403 1.505 . S
C409 O421 1.249 . S
C409 O422 1.244 . S
O410 Eu401 2.373 . S
O410 C412 1.258 . S
O411 Eu400 2.392 1_565 S
O411 C412 1.242 . S
C412 O410 1.258 . S
C412 O411 1.242 . S
O413 Eu400 2.418 1_565 S
O413 C417 1.244 . S
O414 Eu401 2.488 . S
O414 C430 1.249 . S
O415 Eu401 2.471 . S
O415 C430 1.244 . S
O416 Eu401 2.349 . S
O416 C417 1.265 . S
C417 O413 1.244 . S
C417 O416 1.265 . S
O418 Eu400 2.373 . S
O418 C431 1.258 . S
O419 Eu401 2.392 1_545 S
O419 C431 1.242 . S
O420 Eu401 2.418 1_545 S
O420 C402 1.244 . S
O421 Eu400 2.488 . S
O421 C409 1.249 . S
O422 Eu400 2.471 . S
O422 C409 1.244 . S
O423 Eu400 2.349 . S
O423 C402 1.265 . S
C424 C425 1.379 . S
C424 C428 1.373 . S
C424 C430 1.505 . S
C425 C424 1.379 . S
C425 C427 1.369 . S
C425 H436 0.930 . S
C426 C428 1.383 . S
C426 C429 1.382 . S
C426 H437 0.930 . S
C427 C425 1.369 . S
C427 C429 1.392 . S
C427 H438 0.930 . S
C428 C424 1.373 . S
C428 C426 1.383 . S
C428 H439 0.931 . S
C429 C426 1.382 . S
C429 C427 1.392 . S
C430 Eu401 2.828 . S
C430 O414 1.249 . S
C430 O415 1.244 . S
C430 C424 1.505 . S
C431 O418 1.258 . S
C431 O419 1.242 . S
H432 C404 0.930 . S
H433 C405 0.930 . S
H434 C406 0.930 . S
H435 C407 0.931 . S
H436 C425 0.930 . S
H437 C426 0.930 . S
H438 C427 0.930 . S
H439 C428 0.931 . S
Eu440 C449 2.828 . S
Eu440 O451 2.392 . S
Eu440 O453 2.418 . S
Eu440 O458 2.373 . S
Eu440 O461 2.488 . S
Eu440 O462 2.471 . S
Eu440 O463 2.349 . S
Eu441 O450 2.373 . S
Eu441 O454 2.488 . S
Eu441 O455 2.471 . S
Eu441 O456 2.349 . S
Eu441 O459 2.392 . S
Eu441 O460 2.418 . S
Eu441 C470 2.828 . S
C442 O460 1.244 . S
C442 O463 1.265 . S
C443 C444 1.379 . S
C443 C447 1.373 . S
C443 C449 1.505 . S
C444 C443 1.379 . S
C444 C446 1.369 . S
C444 H472 0.930 . S
C445 C447 1.383 . S
C445 C448 1.382 . S
C445 H473 0.930 . S
C446 C444 1.369 . S
C446 C448 1.392 . S
C446 H474 0.930 . S
C447 C443 1.373 . S
C447 C445 1.383 . S
C447 H475 0.931 . S
C448 C445 1.382 . S
C448 C446 1.392 . S
C449 Eu440 2.828 . S
C449 C443 1.505 . S
C449 O461 1.249 . S
C449 O462 1.244 . S
O450 Eu441 2.373 . S
O450 C452 1.258 . S
O451 Eu440 2.392 . S
O451 C452 1.242 . S
C452 O450 1.258 . S
C452 O451 1.242 . S
O453 Eu440 2.418 . S
O453 C457 1.244 . S
O454 Eu441 2.488 . S
O454 C470 1.249 . S
O455 Eu441 2.471 . S
O455 C470 1.244 . S
O456 Eu441 2.349 . S
O456 C457 1.265 . S
C457 O453 1.244 . S
C457 O456 1.265 . S
O458 Eu440 2.373 . S
O458 C471 1.258 . S
O459 Eu441 2.392 . S
O459 C471 1.242 . S
O460 Eu441 2.418 . S
O460 C442 1.244 . S
O461 Eu440 2.488 . S
O461 C449 1.249 . S
O462 Eu440 2.471 . S
O462 C449 1.244 . S
O463 Eu440 2.349 . S
O463 C442 1.265 . S
C464 C465 1.379 . S
C464 C468 1.373 . S
C464 C470 1.505 . S
C465 C464 1.379 . S
C465 C467 1.369 . S
C465 H476 0.930 . S
C466 C468 1.383 . S
C466 C469 1.382 . S
C466 H477 0.930 . S
C467 C465 1.369 . S
C467 C469 1.392 . S
C467 H478 0.930 . S
C468 C464 1.373 . S
C468 C466 1.383 . S
C468 H479 0.931 . S
C469 C466 1.382 . S
C469 C467 1.392 . S
C470 Eu441 2.828 . S
C470 O454 1.249 . S
C470 O455 1.244 . S
C470 C464 1.505 . S
C471 O458 1.258 . S
C471 O459 1.242 . S
H472 C444 0.930 . S
H473 C445 0.930 . S
H474 C446 0.930 . S
H475 C447 0.931 . S
H476 C465 0.930 . S
H477 C466 0.930 . S
H478 C467 0.930 . S
H479 C468 0.931 . S
H480 C486 0.930 . S
H481 C490 0.930 . S
H482 C495 0.929 . S
H483 C493 0.929 . S
H484 C488 0.929 . S
H485 C494 0.929 . S
C486 H480 0.930 . S
C486 C487 1.367 . S
C486 C494 1.378 . S
C487 C486 1.367 . S
C487 C495 1.433 . S
C488 H484 0.929 . S
C488 C490 1.378 . S
C488 C492 1.350 . S
C489 C492 1.463 . S
C489 C494 1.350 . S
C489 N497 1.427 . S
C490 H481 0.930 . S
C490 C488 1.378 . S
C490 C491 1.367 . S
C491 C490 1.367 . S
C491 C493 1.433 . S
C492 C488 1.350 . S
C492 C489 1.463 . S
C492 N496 1.427 . S
C493 H483 0.929 . S
C493 C491 1.433 . S
C493 N496 1.384 . S
C494 H485 0.929 . S
C494 C486 1.378 . S
C494 C489 1.350 . S
C495 H482 0.929 . S
C495 C487 1.433 . S
C495 N497 1.384 . S
N496 C492 1.427 . S
N496 C493 1.384 . S
N497 C489 1.427 . S
N497 C495 1.384 . S
H498 C504 0.930 . S
H499 C508 0.930 . S
H500 C513 0.929 . S
H501 C511 0.929 . S
H502 C506 0.929 . S
H503 C512 0.929 . S
C504 H498 0.930 . S
C504 C505 1.367 . S
C504 C512 1.378 . S
C505 C504 1.367 . S
C505 C513 1.433 . S
C506 H502 0.929 . S
C506 C508 1.378 . S
C506 C510 1.350 . S
C507 C510 1.463 . S
C507 C512 1.350 . S
C507 N515 1.427 . S
C508 H499 0.930 . S
C508 C506 1.378 . S
C508 C509 1.367 . S
C509 C508 1.367 . S
C509 C511 1.433 . S
C510 C506 1.350 . S
C510 C507 1.463 . S
C510 N514 1.427 . S
C511 H501 0.929 . S
C511 C509 1.433 . S
C511 N514 1.384 . S
C512 H503 0.929 . S
C512 C504 1.378 . S
C512 C507 1.350 . S
C513 H500 0.929 . S
C513 C505 1.433 . S
C513 N515 1.384 . S
N514 C510 1.427 . S
N514 C511 1.384 . S
N515 C507 1.427 . S
N515 C513 1.384 . S
H516 C522 0.930 . S
H517 C526 0.930 . S
H518 C531 0.929 . S
H519 C529 0.929 . S
H520 C524 0.929 . S
H521 C530 0.929 . S
C522 H516 0.930 . S
C522 C523 1.367 . S
C522 C530 1.378 . S
C523 C522 1.367 . S
C523 C531 1.433 . S
C524 H520 0.929 . S
C524 C526 1.378 . S
C524 C528 1.350 . S
C525 C528 1.463 . S
C525 C530 1.350 . S
C525 N533 1.427 . S
C526 H517 0.930 . S
C526 C524 1.378 . S
C526 C527 1.367 . S
C527 C526 1.367 . S
C527 C529 1.433 . S
C528 C524 1.350 . S
C528 C525 1.463 . S
C528 N532 1.427 . S
C529 H519 0.929 . S
C529 C527 1.433 . S
C529 N532 1.384 . S
C530 H521 0.929 . S
C530 C522 1.378 . S
C530 C525 1.350 . S
C531 H518 0.929 . S
C531 C523 1.433 . S
C531 N533 1.384 . S
N532 C528 1.427 . S
N532 C529 1.384 . S
N533 C525 1.427 . S
N533 C531 1.384 . S
H534 C540 0.930 . S
H535 C544 0.930 . S
H536 C549 0.929 . S
H537 C547 0.929 . S
H538 C542 0.929 . S
H539 C548 0.929 . S
C540 H534 0.930 . S
C540 C541 1.367 . S
C540 C548 1.378 . S
C541 C540 1.367 . S
C541 C549 1.433 . S
C542 H538 0.929 . S
C542 C544 1.378 . S
C542 C546 1.350 . S
C543 C546 1.463 . S
C543 C548 1.350 . S
C543 N551 1.427 . S
C544 H535 0.930 . S
C544 C542 1.378 . S
C544 C545 1.367 . S
C545 C544 1.367 . S
C545 C547 1.433 . S
C546 C542 1.350 . S
C546 C543 1.463 . S
C546 N550 1.427 . S
C547 H537 0.929 . S
C547 C545 1.433 . S
C547 N550 1.384 . S
C548 H539 0.929 . S
C548 C540 1.378 . S
C548 C543 1.350 . S
C549 H536 0.929 . S
C549 C541 1.433 . S
C549 N551 1.384 . S
N550 C546 1.427 . S
N550 C547 1.384 . S
N551 C543 1.427 . S
N551 C549 1.384 . S
H552 C558 0.930 . S
H553 C562 0.930 . S
H554 C567 0.929 . S
H555 C565 0.929 . S
H556 C560 0.929 . S
H557 C566 0.929 . S
C558 H552 0.930 . S
C558 C559 1.367 . S
C558 C566 1.378 . S
C559 C558 1.367 . S
C559 C567 1.433 . S
C560 H556 0.929 . S
C560 C562 1.378 . S
C560 C564 1.350 . S
C561 C564 1.463 . S
C561 C566 1.350 . S
C561 N569 1.427 . S
C562 H553 0.930 . S
C562 C560 1.378 . S
C562 C563 1.367 . S
C563 C562 1.367 . S
C563 C565 1.433 . S
C564 C560 1.350 . S
C564 C561 1.463 . S
C564 N568 1.427 . S
C565 H555 0.929 . S
C565 C563 1.433 . S
C565 N568 1.384 . S
C566 H557 0.929 . S
C566 C558 1.378 . S
C566 C561 1.350 . S
C567 H554 0.929 . S
C567 C559 1.433 . S
C567 N569 1.384 . S
N568 C564 1.427 . S
N568 C565 1.384 . S
N569 C561 1.427 . S
N569 C567 1.384 . S
H570 C576 0.930 . S
H571 C580 0.930 . S
H572 C585 0.929 . S
H573 C583 0.929 . S
H574 C578 0.929 . S
H575 C584 0.929 . S
C576 H570 0.930 . S
C576 C577 1.367 . S
C576 C584 1.378 . S
C577 C576 1.367 . S
C577 C585 1.433 . S
C578 H574 0.929 . S
C578 C580 1.378 . S
C578 C582 1.350 . S
C579 C582 1.463 . S
C579 C584 1.350 . S
C579 N587 1.427 . S
C580 H571 0.930 . S
C580 C578 1.378 . S
C580 C581 1.367 . S
C581 C580 1.367 . S
C581 C583 1.433 . S
C582 C578 1.350 . S
C582 C579 1.463 . S
C582 N586 1.427 . S
C583 H573 0.929 . S
C583 C581 1.433 . S
C583 N586 1.384 . S
C584 H575 0.929 . S
C584 C576 1.378 . S
C584 C579 1.350 . S
C585 H572 0.929 . S
C585 C577 1.433 . S
C585 N587 1.384 . S
N586 C582 1.427 . S
N586 C583 1.384 . S
N587 C579 1.427 . S
N587 C585 1.384 . S
H588 C594 0.930 . S
H589 C598 0.930 . S
H590 C603 0.929 . S
H591 C601 0.929 . S
H592 C596 0.929 . S
H593 C602 0.929 . S
C594 H588 0.930 . S
C594 C595 1.367 . S
C594 C602 1.378 . S
C595 C594 1.367 . S
C595 C603 1.433 . S
C596 H592 0.929 . S
C596 C598 1.378 . S
C596 C600 1.350 . S
C597 C600 1.463 . S
C597 C602 1.350 . S
C597 N605 1.427 . S
C598 H589 0.930 . S
C598 C596 1.378 . S
C598 C599 1.367 . S
C599 C598 1.367 . S
C599 C601 1.433 . S
C600 C596 1.350 . S
C600 C597 1.463 . S
C600 N604 1.427 . S
C601 H591 0.929 . S
C601 C599 1.433 . S
C601 N604 1.384 . S
C602 H593 0.929 . S
C602 C594 1.378 . S
C602 C597 1.350 . S
C603 H590 0.929 . S
C603 C595 1.433 . S
C603 N605 1.384 . S
N604 C600 1.427 . S
N604 C601 1.384 . S
N605 C597 1.427 . S
N605 C603 1.384 . S
H606 C612 0.930 . S
H607 C616 0.930 . S
H608 C621 0.929 . S
H609 C619 0.929 . S
H610 C614 0.929 . S
H611 C620 0.929 . S
C612 H606 0.930 . S
C612 C613 1.367 . S
C612 C620 1.378 . S
C613 C612 1.367 . S
C613 C621 1.433 . S
C614 H610 0.929 . S
C614 C616 1.378 . S
C614 C618 1.350 . S
C615 C618 1.463 . S
C615 C620 1.350 . S
C615 N623 1.427 . S
C616 H607 0.930 . S
C616 C614 1.378 . S
C616 C617 1.367 . S
C617 C616 1.367 . S
C617 C619 1.433 . S
C618 C614 1.350 . S
C618 C615 1.463 . S
C618 N622 1.427 . S
C619 H609 0.929 . S
C619 C617 1.433 . S
C619 N622 1.384 . S
C620 H611 0.929 . S
C620 C612 1.378 . S
C620 C615 1.350 . S
C621 H608 0.929 . S
C621 C613 1.433 . S
C621 N623 1.384 . S
N622 C618 1.427 . S
N622 C619 1.384 . S
N623 C615 1.427 . S
N623 C621 1.384 . S
H624 C630 0.930 . S
H625 C634 0.930 . S
H626 C639 0.929 . S
H627 C637 0.929 . S
H628 C632 0.929 . S
H629 C638 0.929 . S
C630 H624 0.930 . S
C630 C631 1.367 . S
C630 C638 1.378 . S
C631 C630 1.367 . S
C631 C639 1.433 . S
C632 H628 0.929 . S
C632 C634 1.378 . S
C632 C636 1.350 . S
C633 C636 1.463 . S
C633 C638 1.350 . S
C633 N641 1.427 . S
C634 H625 0.930 . S
C634 C632 1.378 . S
C634 C635 1.367 . S
C635 C634 1.367 . S
C635 C637 1.433 . S
C636 C632 1.350 . S
C636 C633 1.463 . S
C636 N640 1.427 . S
C637 H627 0.929 . S
C637 C635 1.433 . S
C637 N640 1.384 . S
C638 H629 0.929 . S
C638 C630 1.378 . S
C638 C633 1.350 . S
C639 H626 0.929 . S
C639 C631 1.433 . S
C639 N641 1.384 . S
N640 C636 1.427 . S
N640 C637 1.384 . S
N641 C633 1.427 . S
N641 C639 1.384 . S
H642 C648 0.930 . S
H643 C652 0.930 . S
H644 C657 0.929 . S
H645 C655 0.929 . S
H646 C650 0.929 . S
H647 C656 0.929 . S
C648 H642 0.930 . S
C648 C649 1.367 . S
C648 C656 1.378 . S
C649 C648 1.367 . S
C649 C657 1.433 . S
C650 H646 0.929 . S
C650 C652 1.378 . S
C650 C654 1.350 . S
C651 C654 1.463 . S
C651 C656 1.350 . S
C651 N659 1.427 . S
C652 H643 0.930 . S
C652 C650 1.378 . S
C652 C653 1.367 . S
C653 C652 1.367 . S
C653 C655 1.433 . S
C654 C650 1.350 . S
C654 C651 1.463 . S
C654 N658 1.427 . S
C655 H645 0.929 . S
C655 C653 1.433 . S
C655 N658 1.384 . S
C656 H647 0.929 . S
C656 C648 1.378 . S
C656 C651 1.350 . S
C657 H644 0.929 . S
C657 C649 1.433 . S
C657 N659 1.384 . S
N658 C654 1.427 . S
N658 C655 1.384 . S
N659 C651 1.427 . S
N659 C657 1.384 . S
H660 C666 0.930 . S
H661 C670 0.930 . S
H662 C675 0.929 . S
H663 C673 0.929 . S
H664 C668 0.929 . S
H665 C674 0.929 . S
C666 H660 0.930 . S
C666 C667 1.367 . S
C666 C674 1.378 . S
C667 C666 1.367 . S
C667 C675 1.433 . S
C668 H664 0.929 . S
C668 C670 1.378 . S
C668 C672 1.350 . S
C669 C672 1.463 . S
C669 C674 1.350 . S
C669 N677 1.427 . S
C670 H661 0.930 . S
C670 C668 1.378 . S
C670 C671 1.367 . S
C671 C670 1.367 . S
C671 C673 1.433 . S
C672 C668 1.350 . S
C672 C669 1.463 . S
C672 N676 1.427 . S
C673 H663 0.929 . S
C673 C671 1.433 . S
C673 N676 1.384 . S
C674 H665 0.929 . S
C674 C666 1.378 . S
C674 C669 1.350 . S
C675 H662 0.929 . S
C675 C667 1.433 . S
C675 N677 1.384 . S
N676 C672 1.427 . S
N676 C673 1.384 . S
N677 C669 1.427 . S
N677 C675 1.384 . S
H678 C684 0.930 . S
H679 C688 0.930 . S
H680 C693 0.929 . S
H681 C691 0.929 . S
H682 C686 0.929 . S
H683 C692 0.929 . S
C684 H678 0.930 . S
C684 C685 1.367 . S
C684 C692 1.378 . S
C685 C684 1.367 . S
C685 C693 1.433 . S
C686 H682 0.929 . S
C686 C688 1.378 . S
C686 C690 1.350 . S
C687 C690 1.463 . S
C687 C692 1.350 . S
C687 N695 1.427 . S
C688 H679 0.930 . S
C688 C686 1.378 . S
C688 C689 1.367 . S
C689 C688 1.367 . S
C689 C691 1.433 . S
C690 C686 1.350 . S
C690 C687 1.463 . S
C690 N694 1.427 . S
C691 H681 0.929 . S
C691 C689 1.433 . S
C691 N694 1.384 . S
C692 H683 0.929 . S
C692 C684 1.378 . S
C692 C687 1.350 . S
C693 H680 0.929 . S
C693 C685 1.433 . S
C693 N695 1.384 . S
N694 C690 1.427 . S
N694 C691 1.384 . S
N695 C687 1.427 . S
N695 C693 1.384 . S
H696 C702 0.930 . S
H697 C706 0.930 . S
H698 C711 0.929 . S
H699 C709 0.929 . S
H700 C704 0.929 . S
H701 C710 0.929 . S
C702 H696 0.930 . S
C702 C703 1.367 . S
C702 C710 1.378 . S
C703 C702 1.367 . S
C703 C711 1.433 . S
C704 H700 0.929 . S
C704 C706 1.378 . S
C704 C708 1.350 . S
C705 C708 1.463 . S
C705 C710 1.350 . S
C705 N713 1.427 . S
C706 H697 0.930 . S
C706 C704 1.378 . S
C706 C707 1.367 . S
C707 C706 1.367 . S
C707 C709 1.433 . S
C708 C704 1.350 . S
C708 C705 1.463 . S
C708 N712 1.427 . S
C709 H699 0.929 . S
C709 C707 1.433 . S
C709 N712 1.384 . S
C710 H701 0.929 . S
C710 C702 1.378 . S
C710 C705 1.350 . S
C711 H698 0.929 . S
C711 C703 1.433 . S
C711 N713 1.384 . S
N712 C708 1.427 . S
N712 C709 1.384 . S
N713 C705 1.427 . S
N713 C711 1.384 . S
H714 C720 0.930 . S
H715 C724 0.930 . S
H716 C729 0.929 . S
H717 C727 0.929 . S
H718 C722 0.929 . S
H719 C728 0.929 . S
C720 H714 0.930 . S
C720 C721 1.367 . S
C720 C728 1.378 . S
C721 C720 1.367 . S
C721 C729 1.433 . S
C722 H718 0.929 . S
C722 C724 1.378 . S
C722 C726 1.350 . S
C723 C726 1.463 . S
C723 C728 1.350 . S
C723 N731 1.427 . S
C724 H715 0.930 . S
C724 C722 1.378 . S
C724 C725 1.367 . S
C725 C724 1.367 . S
C725 C727 1.433 . S
C726 C722 1.350 . S
C726 C723 1.463 . S
C726 N730 1.427 . S
C727 H717 0.929 . S
C727 C725 1.433 . S
C727 N730 1.384 . S
C728 H719 0.929 . S
C728 C720 1.378 . S
C728 C723 1.350 . S
C729 H716 0.929 . S
C729 C721 1.433 . S
C729 N731 1.384 . S
N730 C726 1.427 . S
N730 C727 1.384 . S
N731 C723 1.427 . S
N731 C729 1.384 . S
H732 C738 0.930 . S
H733 C742 0.930 . S
H734 C747 0.929 . S
H735 C745 0.929 . S
H736 C740 0.929 . S
H737 C746 0.929 . S
C738 H732 0.930 . S
C738 C739 1.367 . S
C738 C746 1.378 . S
C739 C738 1.367 . S
C739 C747 1.433 . S
C740 H736 0.929 . S
C740 C742 1.378 . S
C740 C744 1.350 . S
C741 C744 1.463 . S
C741 C746 1.350 . S
C741 N749 1.427 . S
C742 H733 0.930 . S
C742 C740 1.378 . S
C742 C743 1.367 . S
C743 C742 1.367 . S
C743 C745 1.433 . S
C744 C740 1.350 . S
C744 C741 1.463 . S
C744 N748 1.427 . S
C745 H735 0.929 . S
C745 C743 1.433 . S
C745 N748 1.384 . S
C746 H737 0.929 . S
C746 C738 1.378 . S
C746 C741 1.350 . S
C747 H734 0.929 . S
C747 C739 1.433 . S
C747 N749 1.384 . S
N748 C744 1.427 . S
N748 C745 1.384 . S
N749 C741 1.427 . S
N749 C747 1.384 . S
H750 C756 0.930 . S
H751 C760 0.930 . S
H752 C765 0.929 . S
H753 C763 0.929 . S
H754 C758 0.929 . S
H755 C764 0.929 . S
C756 H750 0.930 . S
C756 C757 1.367 . S
C756 C764 1.378 . S
C757 C756 1.367 . S
C757 C765 1.433 . S
C758 H754 0.929 . S
C758 C760 1.378 . S
C758 C762 1.350 . S
C759 C762 1.463 . S
C759 C764 1.350 . S
C759 N767 1.427 . S
C760 H751 0.930 . S
C760 C758 1.378 . S
C760 C761 1.367 . S
C761 C760 1.367 . S
C761 C763 1.433 . S
C762 C758 1.350 . S
C762 C759 1.463 . S
C762 N766 1.427 . S
C763 H753 0.929 . S
C763 C761 1.433 . S
C763 N766 1.384 . S
C764 H755 0.929 . S
C764 C756 1.378 . S
C764 C759 1.350 . S
C765 H752 0.929 . S
C765 C757 1.433 . S
C765 N767 1.384 . S
N766 C762 1.427 . S
N766 C763 1.384 . S
N767 C759 1.427 . S
N767 C765 1.384 . S
H768 C774 0.930 . S
H769 C778 0.930 . S
H770 C783 0.929 1_554 S
H771 C781 0.929 . S
H772 C776 0.929 . S
H773 C782 0.929 . S
C774 H768 0.930 . S
C774 C775 1.367 . S
C774 C782 1.378 . S
C775 C774 1.367 . S
C775 C783 1.433 . S
C776 H772 0.929 . S
C776 C778 1.378 . S
C776 C780 1.350 1_554 S
C777 C780 1.463 . S
C777 C782 1.350 . S
C777 N785 1.464 . S
C778 H769 0.930 . S
C778 C776 1.378 . S
C778 C779 1.367 1_554 S
C779 C778 1.367 1_556 S
C779 C781 1.433 . S
C780 C776 1.350 1_556 S
C780 C777 1.463 . S
C780 N784 1.427 . S
C781 H771 0.929 . S
C781 C779 1.433 . S
C781 N784 1.384 . S
C782 H773 0.929 . S
C782 C774 1.378 . S
C782 C777 1.350 . S
C783 H770 0.929 1_556 S
C783 C775 1.433 . S
C783 N785 1.394 . S
N784 C780 1.427 . S
N784 C781 1.384 . S
N785 C777 1.464 . S
N785 C783 1.394 . S
H786 C792 0.930 . S
H787 C796 0.930 . S
H788 C801 0.929 . S
H789 C799 0.929 . S
H790 C794 0.929 . S
H791 C800 0.929 . S
C792 H786 0.930 . S
C792 C793 1.367 . S
C792 C800 1.378 . S
C793 C792 1.367 . S
C793 C801 1.433 . S
C794 H790 0.929 . S
C794 C796 1.378 . S
C794 C798 1.350 . S
C795 C798 1.463 . S
C795 C800 1.350 . S
C795 N803 1.427 . S
C796 H787 0.930 . S
C796 C794 1.378 . S
C796 C797 1.367 . S
C797 C796 1.367 . S
C797 C799 1.433 . S
C798 C794 1.350 . S
C798 C795 1.463 . S
C798 N802 1.427 . S
C799 H789 0.929 . S
C799 C797 1.433 . S
C799 N802 1.384 . S
C800 H791 0.929 . S
C800 C792 1.378 . S
C800 C795 1.350 . S
C801 H788 0.929 . S
C801 C793 1.433 . S
C801 N803 1.384 . S
N802 C798 1.427 . S
N802 C799 1.384 . S
N803 C795 1.427 . S
N803 C801 1.384 . S
H804 C810 0.930 . S
H805 C814 0.930 . S
H806 C819 0.929 . S
H807 C817 0.929 . S
H808 C812 0.929 . S
H809 C818 0.929 . S
C810 H804 0.930 . S
C810 C811 1.367 . S
C810 C818 1.378 . S
C811 C810 1.367 . S
C811 C819 1.433 . S
C812 H808 0.929 . S
C812 C814 1.378 . S
C812 C816 1.350 . S
C813 C816 1.463 . S
C813 C818 1.350 . S
C813 N821 1.427 . S
C814 H805 0.930 . S
C814 C812 1.378 . S
C814 C815 1.367 . S
C815 C814 1.367 . S
C815 C817 1.433 . S
C816 C812 1.350 . S
C816 C813 1.463 . S
C816 N820 1.427 . S
C817 H807 0.929 . S
C817 C815 1.433 . S
C817 N820 1.384 . S
C818 H809 0.929 . S
C818 C810 1.378 . S
C818 C813 1.350 . S
C819 H806 0.929 . S
C819 C811 1.433 . S
C819 N821 1.384 . S
N820 C816 1.427 . S
N820 C817 1.384 . S
N821 C813 1.427 . S
N821 C819 1.384 . S
H822 C828 0.930 . S
H823 C832 0.930 . S
H824 C837 0.929 . S
H825 C835 0.929 . S
H826 C830 0.929 . S
H827 C836 0.929 . S
C828 H822 0.930 . S
C828 C829 1.367 . S
C828 C836 1.378 . S
C829 C828 1.367 . S
C829 C837 1.433 . S
C830 H826 0.929 . S
C830 C832 1.378 . S
C830 C834 1.350 . S
C831 C834 1.463 . S
C831 C836 1.350 . S
C831 N839 1.427 . S
C832 H823 0.930 . S
C832 C830 1.378 . S
C832 C833 1.367 . S
C833 C832 1.367 . S
C833 C835 1.433 . S
C834 C830 1.350 . S
C834 C831 1.463 . S
C834 N838 1.427 . S
C835 H825 0.929 . S
C835 C833 1.433 . S
C835 N838 1.384 . S
C836 H827 0.929 . S
C836 C828 1.378 . S
C836 C831 1.350 . S
C837 H824 0.929 . S
C837 C829 1.433 . S
C837 N839 1.384 . S
N838 C834 1.427 . S
N838 C835 1.384 . S
N839 C831 1.427 . S
N839 C837 1.384 . S
H840 C846 0.930 . S
H841 C850 0.930 . S
H842 C855 0.929 . S
H843 C853 0.929 . S
H844 C848 0.929 . S
H845 C854 0.929 . S
C846 H840 0.930 . S
C846 C847 1.367 . S
C846 C854 1.378 . S
C847 C846 1.367 . S
C847 C855 1.433 . S
C848 H844 0.929 . S
C848 C850 1.378 . S
C848 C852 1.350 . S
C849 C852 1.463 . S
C849 C854 1.350 . S
C849 N857 1.427 . S
C850 H841 0.930 . S
C850 C848 1.378 . S
C850 C851 1.367 . S
C851 C850 1.367 . S
C851 C853 1.433 . S
C852 C848 1.350 . S
C852 C849 1.463 . S
C852 N856 1.427 . S
C853 H843 0.929 . S
C853 C851 1.433 . S
C853 N856 1.384 . S
C854 H845 0.929 . S
C854 C846 1.378 . S
C854 C849 1.350 . S
C855 H842 0.929 . S
C855 C847 1.433 . S
C855 N857 1.384 . S
N856 C852 1.427 . S
N856 C853 1.384 . S
N857 C849 1.427 . S
N857 C855 1.384 . S
H858 C864 0.930 . S
H859 C868 0.930 . S
H860 C873 0.929 . S
H861 C871 0.907 1_554 S
H862 C866 0.929 . S
H863 C872 0.929 . S
C864 H858 0.930 . S
C864 C865 1.367 . S
C864 C872 1.378 . S
C865 C864 1.367 . S
C865 C873 1.433 1_554 S
C866 H862 0.929 . S
C866 C868 1.378 . S
C866 C870 1.350 . S
C867 C870 1.463 . S
C867 C872 1.350 1_556 S
C867 N875 1.427 . S
C868 H859 0.930 . S
C868 C866 1.378 . S
C868 C869 1.367 . S
C869 C868 1.367 . S
C869 C871 1.464 . S
C870 C866 1.350 . S
C870 C867 1.463 . S
C870 N874 1.427 1_556 S
C871 H861 0.907 1_556 S
C871 C869 1.464 . S
C871 N874 1.378 1_556 S
C872 H863 0.929 . S
C872 C864 1.378 . S
C872 C867 1.350 1_554 S
C873 H860 0.929 . S
C873 C865 1.433 1_556 S
C873 N875 1.384 . S
N874 C870 1.427 1_554 S
N874 C871 1.378 1_554 S
N875 C867 1.427 . S
N875 C873 1.384 . S
H876 C882 0.930 . S
H877 C886 0.930 . S
H878 C891 0.929 . S
H879 C889 0.929 . S
H880 C884 0.929 . S
H881 C890 0.929 . S
C882 H876 0.930 . S
C882 C883 1.367 . S
C882 C890 1.378 . S
C883 C882 1.367 . S
C883 C891 1.433 . S
C884 H880 0.929 . S
C884 C886 1.378 . S
C884 C888 1.350 . S
C885 C888 1.463 . S
C885 C890 1.350 . S
C885 N893 1.427 . S
C886 H877 0.930 . S
C886 C884 1.378 . S
C886 C887 1.367 . S
C887 C886 1.367 . S
C887 C889 1.433 . S
C888 C884 1.350 . S
C888 C885 1.463 . S
C888 N892 1.427 . S
C889 H879 0.929 . S
C889 C887 1.433 . S
C889 N892 1.384 . S
C890 H881 0.929 . S
C890 C882 1.378 . S
C890 C885 1.350 . S
C891 H878 0.929 . S
C891 C883 1.433 . S
C891 N893 1.384 . S
N892 C888 1.427 . S
N892 C889 1.384 . S
N893 C885 1.427 . S
N893 C891 1.384 . S
H894 C900 0.930 . S
H895 C904 0.930 . S
H896 C909 0.929 . S
H897 C907 0.929 . S
H898 C902 0.929 . S
H899 C908 0.929 . S
C900 H894 0.930 . S
C900 C901 1.367 . S
C900 C908 1.378 . S
C901 C900 1.367 . S
C901 C909 1.433 . S
C902 H898 0.929 . S
C902 C904 1.378 . S
C902 C906 1.350 . S
C903 C906 1.463 . S
C903 C908 1.350 . S
C903 N911 1.427 . S
C904 H895 0.930 . S
C904 C902 1.378 . S
C904 C905 1.367 . S
C905 C904 1.367 . S
C905 C907 1.433 . S
C906 C902 1.350 . S
C906 C903 1.463 . S
C906 N910 1.427 . S
C907 H897 0.929 . S
C907 C905 1.433 . S
C907 N910 1.384 . S
C908 H899 0.929 . S
C908 C900 1.378 . S
C908 C903 1.350 . S
C909 H896 0.929 . S
C909 C901 1.433 . S
C909 N911 1.384 . S
N910 C906 1.427 . S
N910 C907 1.384 . S
N911 C903 1.427 . S
N911 C909 1.384 . S
H912 C918 0.930 . S
H913 C922 0.930 . S
H914 C927 0.929 . S
H915 C925 0.929 . S
H916 C920 0.929 . S
H917 C926 0.929 . S
C918 H912 0.930 . S
C918 C919 1.367 . S
C918 C926 1.378 . S
C919 C918 1.367 . S
C919 C927 1.433 . S
C920 H916 0.929 . S
C920 C922 1.378 . S
C920 C924 1.350 . S
C921 C924 1.463 . S
C921 C926 1.350 . S
C921 N929 1.427 . S
C922 H913 0.930 . S
C922 C920 1.378 . S
C922 C923 1.367 . S
C923 C922 1.367 . S
C923 C925 1.433 . S
C924 C920 1.350 . S
C924 C921 1.463 . S
C924 N928 1.427 . S
C925 H915 0.929 . S
C925 C923 1.433 . S
C925 N928 1.384 . S
C926 H917 0.929 . S
C926 C918 1.378 . S
C926 C921 1.350 . S
C927 H914 0.929 . S
C927 C919 1.433 . S
C927 N929 1.384 . S
N928 C924 1.427 . S
N928 C925 1.384 . S
N929 C921 1.427 . S
N929 C927 1.384 . S
H930 C936 0.930 . S
H931 C940 0.930 . S
H932 C945 0.929 . S
H933 C943 0.929 . S
H934 C938 0.929 . S
H935 C944 0.929 . S
C936 H930 0.930 . S
C936 C937 1.367 . S
C936 C944 1.378 . S
C937 C936 1.367 . S
C937 C945 1.433 . S
C938 H934 0.929 . S
C938 C940 1.378 . S
C938 C942 1.350 . S
C939 C942 1.463 . S
C939 C944 1.350 . S
C939 N947 1.427 . S
C940 H931 0.930 . S
C940 C938 1.378 . S
C940 C941 1.367 . S
C941 C940 1.367 . S
C941 C943 1.433 . S
C942 C938 1.350 . S
C942 C939 1.463 . S
C942 N946 1.427 . S
C943 H933 0.929 . S
C943 C941 1.433 . S
C943 N946 1.384 . S
C944 H935 0.929 . S
C944 C936 1.378 . S
C944 C939 1.350 . S
C945 H932 0.929 . S
C945 C937 1.433 . S
C945 N947 1.384 . S
N946 C942 1.427 . S
N946 C943 1.384 . S
N947 C939 1.427 . S
N947 C945 1.384 . S
H948 C954 0.930 . S
H949 C958 0.930 . S
H950 C963 0.929 . S
H951 C961 0.929 . S
H952 C956 0.929 . S
H953 C962 0.929 . S
C954 H948 0.930 . S
C954 C955 1.367 . S
C954 C962 1.378 . S
C955 C954 1.367 . S
C955 C963 1.433 . S
C956 H952 0.929 . S
C956 C958 1.378 . S
C956 C960 1.350 . S
C957 C960 1.463 . S
C957 C962 1.350 . S
C957 N965 1.427 . S
C958 H949 0.930 . S
C958 C956 1.378 . S
C958 C959 1.367 . S
C959 C958 1.367 . S
C959 C961 1.433 . S
C960 C956 1.350 . S
C960 C957 1.463 . S
C960 N964 1.427 . S
C961 H951 0.929 . S
C961 C959 1.433 . S
C961 N964 1.384 . S
C962 H953 0.929 . S
C962 C954 1.378 . S
C962 C957 1.350 . S
C963 H950 0.929 . S
C963 C955 1.433 . S
C963 N965 1.384 . S
N964 C960 1.427 . S
N964 C961 1.384 . S
N965 C957 1.427 . S
N965 C963 1.384 . S
H966 C972 0.930 . S
H967 C976 0.930 . S
H968 C981 0.929 . S
H969 C979 0.929 . S
H970 C974 0.929 . S
H971 C980 0.929 . S
C972 H966 0.930 . S
C972 C973 1.367 . S
C972 C980 1.378 . S
C973 C972 1.367 . S
C973 C981 1.433 . S
C974 H970 0.929 . S
C974 C976 1.378 . S
C974 C978 1.350 . S
C975 C978 1.463 . S
C975 C980 1.350 . S
C975 N983 1.427 . S
C976 H967 0.930 . S
C976 C974 1.378 . S
C976 C977 1.367 . S
C977 C976 1.367 . S
C977 C979 1.433 . S
C978 C974 1.350 . S
C978 C975 1.463 . S
C978 N982 1.427 . S
C979 H969 0.929 . S
C979 C977 1.433 . S
C979 N982 1.384 . S
C980 H971 0.929 . S
C980 C972 1.378 . S
C980 C975 1.350 . S
C981 H968 0.929 . S
C981 C973 1.433 . S
C981 N983 1.384 . S
N982 C978 1.427 . S
N982 C979 1.384 . S
N983 C975 1.427 . S
N983 C981 1.384 . S
H984 C990 0.930 . S
H985 C994 0.930 . S
H986 C999 0.929 . S
H987 C997 0.929 . S
H988 C992 0.929 . S
H989 C998 0.929 . S
C990 H984 0.930 . S
C990 C991 1.367 . S
C990 C998 1.378 . S
C991 C990 1.367 . S
C991 C999 1.433 . S
C992 H988 0.929 . S
C992 C994 1.378 . S
C992 C996 1.350 . S
C993 C996 1.463 . S
C993 C998 1.350 . S
C993 N1001 1.427 . S
C994 H985 0.930 . S
C994 C992 1.378 . S
C994 C995 1.367 . S
C995 C994 1.367 . S
C995 C997 1.433 . S
C996 C992 1.350 . S
C996 C993 1.463 . S
C996 N1000 1.427 . S
C997 H987 0.929 . S
C997 C995 1.433 . S
C997 N1000 1.384 . S
C998 H989 0.929 . S
C998 C990 1.378 . S
C998 C993 1.350 . S
C999 H986 0.929 . S
C999 C991 1.433 . S
C999 N1001 1.384 . S
N1000 C996 1.427 . S
N1000 C997 1.384 . S
N1001 C993 1.427 . S
N1001 C999 1.384 . S
H1002 C1008 0.930 . S
H1003 C1012 0.930 . S
H1004 C1017 0.929 . S
H1005 C1015 0.929 . S
H1006 C1010 0.929 . S
H1007 C1016 0.929 . S
C1008 H1002 0.930 . S
C1008 C1009 1.367 . S
C1008 C1016 1.378 . S
C1009 C1008 1.367 . S
C1009 C1017 1.433 . S
C1010 H1006 0.929 . S
C1010 C1012 1.378 . S
C1010 C1014 1.350 . S
C1011 C1014 1.463 . S
C1011 C1016 1.350 . S
C1011 N1019 1.427 . S
C1012 H1003 0.930 . S
C1012 C1010 1.378 . S
C1012 C1013 1.367 . S
C1013 C1012 1.367 . S
C1013 C1015 1.433 . S
C1014 C1010 1.350 . S
C1014 C1011 1.463 . S
C1014 N1018 1.427 . S
C1015 H1005 0.929 . S
C1015 C1013 1.433 . S
C1015 N1018 1.384 . S
C1016 H1007 0.929 . S
C1016 C1008 1.378 . S
C1016 C1011 1.350 . S
C1017 H1004 0.929 . S
C1017 C1009 1.433 . S
C1017 N1019 1.384 . S
N1018 C1014 1.427 . S
N1018 C1015 1.384 . S
N1019 C1011 1.427 . S
N1019 C1017 1.384 . S
H1020 C1026 0.930 . S
H1021 C1030 0.930 . S
H1022 C1035 0.929 . S
H1023 C1033 0.929 . S
H1024 C1028 0.929 . S
H1025 C1034 0.929 . S
C1026 H1020 0.930 . S
C1026 C1027 1.367 . S
C1026 C1034 1.378 . S
C1027 C1026 1.367 . S
C1027 C1035 1.433 . S
C1028 H1024 0.929 . S
C1028 C1030 1.378 . S
C1028 C1032 1.350 . S
C1029 C1032 1.463 . S
C1029 C1034 1.350 . S
C1029 N1037 1.427 . S
C1030 H1021 0.930 . S
C1030 C1028 1.378 . S
C1030 C1031 1.367 . S
C1031 C1030 1.367 . S
C1031 C1033 1.433 . S
C1032 C1028 1.350 . S
C1032 C1029 1.463 . S
C1032 N1036 1.427 . S
C1033 H1023 0.929 . S
C1033 C1031 1.433 . S
C1033 N1036 1.384 . S
C1034 H1025 0.929 . S
C1034 C1026 1.378 . S
C1034 C1029 1.350 . S
C1035 H1022 0.929 . S
C1035 C1027 1.433 . S
C1035 N1037 1.384 . S
N1036 C1032 1.427 . S
N1036 C1033 1.384 . S
N1037 C1029 1.427 . S
N1037 C1035 1.384 . S
H1038 C1044 0.930 . S
H1039 C1048 0.930 . S
H1040 C1053 0.929 . S
H1041 C1051 0.929 . S
H1042 C1046 0.929 . S
H1043 C1052 0.929 . S
C1044 H1038 0.930 . S
C1044 C1045 1.367 . S
C1044 C1052 1.378 . S
C1045 C1044 1.367 . S
C1045 C1053 1.433 . S
C1046 H1042 0.929 . S
C1046 C1048 1.378 . S
C1046 C1050 1.350 . S
C1047 C1050 1.463 . S
C1047 C1052 1.350 . S
C1047 N1055 1.427 . S
C1048 H1039 0.930 . S
C1048 C1046 1.378 . S
C1048 C1049 1.367 . S
C1049 C1048 1.367 . S
C1049 C1051 1.433 . S
C1050 C1046 1.350 . S
C1050 C1047 1.463 . S
C1050 N1054 1.427 . S
C1051 H1041 0.929 . S
C1051 C1049 1.433 . S
C1051 N1054 1.384 . S
C1052 H1043 0.929 . S
C1052 C1044 1.378 . S
C1052 C1047 1.350 . S
C1053 H1040 0.929 . S
C1053 C1045 1.433 . S
C1053 N1055 1.384 . S
N1054 C1050 1.427 . S
N1054 C1051 1.384 . S
N1055 C1047 1.427 . S
N1055 C1053 1.384 . S
H1056 C1062 0.930 . S
H1057 C1066 0.930 . S
H1058 C1071 0.929 . S
H1059 C1069 0.929 . S
H1060 C1064 0.929 . S
H1061 C1070 0.929 . S
C1062 H1056 0.930 . S
C1062 C1063 1.367 . S
C1062 C1070 1.378 . S
C1063 C1062 1.367 . S
C1063 C1071 1.433 . S
C1064 H1060 0.929 . S
C1064 C1066 1.378 . S
C1064 C1068 1.350 . S
C1065 C1068 1.463 . S
C1065 C1070 1.350 . S
C1065 N1073 1.427 . S
C1066 H1057 0.930 . S
C1066 C1064 1.378 . S
C1066 C1067 1.367 . S
C1067 C1066 1.367 . S
C1067 C1069 1.433 . S
C1068 C1064 1.350 . S
C1068 C1065 1.463 . S
C1068 N1072 1.427 . S
C1069 H1059 0.929 . S
C1069 C1067 1.433 . S
C1069 N1072 1.384 . S
C1070 H1061 0.929 . S
C1070 C1062 1.378 . S
C1070 C1065 1.350 . S
C1071 H1058 0.929 . S
C1071 C1063 1.433 . S
C1071 N1073 1.384 . S
N1072 C1068 1.427 . S
N1072 C1069 1.384 . S
N1073 C1065 1.427 . S
N1073 C1071 1.384 . S
H1074 C1080 0.930 . S
H1075 C1084 0.930 . S
H1076 C1089 0.929 . S
H1077 C1087 0.929 . S
H1078 C1082 0.929 . S
H1079 C1088 0.929 . S
C1080 H1074 0.930 . S
C1080 C1081 1.367 . S
C1080 C1088 1.378 . S
C1081 C1080 1.367 . S
C1081 C1089 1.433 . S
C1082 H1078 0.929 . S
C1082 C1084 1.378 . S
C1082 C1086 1.350 . S
C1083 C1086 1.463 . S
C1083 C1088 1.350 . S
C1083 N1091 1.427 . S
C1084 H1075 0.930 . S
C1084 C1082 1.378 . S
C1084 C1085 1.367 . S
C1085 C1084 1.367 . S
C1085 C1087 1.433 . S
C1086 C1082 1.350 . S
C1086 C1083 1.463 . S
C1086 N1090 1.427 . S
C1087 H1077 0.929 . S
C1087 C1085 1.433 . S
C1087 N1090 1.384 . S
C1088 H1079 0.929 . S
C1088 C1080 1.378 . S
C1088 C1083 1.350 . S
C1089 H1076 0.929 . S
C1089 C1081 1.433 . S
C1089 N1091 1.384 . S
N1090 C1086 1.427 . S
N1090 C1087 1.384 . S
N1091 C1083 1.427 . S
N1091 C1089 1.384 . S
H1092 C1098 0.930 . S
H1093 C1102 0.930 . S
H1094 C1107 0.929 . S
H1095 C1105 0.929 . S
H1096 C1100 0.929 . S
H1097 C1106 0.929 . S
C1098 H1092 0.930 . S
C1098 C1099 1.367 . S
C1098 C1106 1.378 . S
C1099 C1098 1.367 . S
C1099 C1107 1.433 . S
C1100 H1096 0.929 . S
C1100 C1102 1.378 . S
C1100 C1104 1.350 . S
C1101 C1104 1.463 . S
C1101 C1106 1.350 . S
C1101 N1109 1.427 . S
C1102 H1093 0.930 . S
C1102 C1100 1.378 . S
C1102 C1103 1.367 . S
C1103 C1102 1.367 . S
C1103 C1105 1.433 . S
C1104 C1100 1.350 . S
C1104 C1101 1.463 . S
C1104 N1108 1.427 . S
C1105 H1095 0.929 . S
C1105 C1103 1.433 . S
C1105 N1108 1.384 . S
C1106 H1097 0.929 . S
C1106 C1098 1.378 . S
C1106 C1101 1.350 . S
C1107 H1094 0.929 . S
C1107 C1099 1.433 . S
C1107 N1109 1.384 . S
N1108 C1104 1.427 . S
N1108 C1105 1.384 . S
N1109 C1101 1.427 . S
N1109 C1107 1.384 . S
H1110 C1116 0.930 . S
H1111 C1120 0.930 . S
H1112 C1125 0.929 . S
H1113 C1123 0.929 . S
H1114 C1118 0.929 . S
H1115 C1124 0.929 . S
C1116 H1110 0.930 . S
C1116 C1117 1.367 . S
C1116 C1124 1.378 . S
C1117 C1116 1.367 . S
C1117 C1125 1.433 . S
C1118 H1114 0.929 . S
C1118 C1120 1.378 . S
C1118 C1122 1.350 . S
C1119 C1122 1.463 . S
C1119 C1124 1.350 . S
C1119 N1127 1.427 . S
C1120 H1111 0.930 . S
C1120 C1118 1.378 . S
C1120 C1121 1.367 . S
C1121 C1120 1.367 . S
C1121 C1123 1.433 . S
C1122 C1118 1.350 . S
C1122 C1119 1.463 . S
C1122 N1126 1.427 . S
C1123 H1113 0.929 . S
C1123 C1121 1.433 . S
C1123 N1126 1.384 . S
C1124 H1115 0.929 . S
C1124 C1116 1.378 . S
C1124 C1119 1.350 . S
C1125 H1112 0.929 . S
C1125 C1117 1.433 . S
C1125 N1127 1.384 . S
N1126 C1122 1.427 . S
N1126 C1123 1.384 . S
N1127 C1119 1.427 . S
N1127 C1125 1.384 . S
C487 C231 1.922 . S
C491 C29 1.920 . S
C505 C69 2.038 . S
C509 C31 2.041 . S
C523 C109 2.068 . S
C527 C71 2.077 . S
C541 C111 1.913 . S
C545 C149 1.911 . S
C559 C151 2.049 . S
C563 C189 2.044 . S
C577 C229 2.072 . S
C581 C191 2.081 . S
C595 C311 1.914 . S
C599 C269 1.911 . S
C613 C309 2.062 . S
C617 C351 2.071 . S
C631 C391 2.051 . S
C635 C349 2.046 . S
C649 C431 1.923 . S
C653 C389 1.920 . S
C667 C471 2.079 . S
C671 C429 2.074 . S
C685 C271 2.044 . S
C689 C469 2.039 . S
C703 C442 3.297 . S
C707 C12 3.347 . S
C721 C52 2.600 . S
C725 C242 2.566 . S
C739 C282 2.915 . S
C743 C92 2.950 . S
C757 C322 3.298 . S
C761 C132 3.340 . S
C775 C362 2.564 . S
C779 C172 2.590 1_556 S
C793 C212 2.951 . S
C797 C402 2.909 . S
C811 C252 3.342 . S
C815 C42 3.302 . S
C829 C292 2.950 . S
C833 C82 2.909 . S
C847 C122 2.568 . S
C851 C332 2.589 . S
C865 C162 3.292 . S
C869 C372 3.341 . S
C883 C412 2.958 . S
C887 C202 2.910 . S
C901 C452 2.597 . S
C905 C2 2.560 . S
C919 C257 2.943 . S
C923 C17 2.945 . S
C937 C57 1.914 . S
C941 C297 1.927 . S
C955 C337 1.918 . S
C959 C97 1.932 . S
C973 C137 2.941 . S
C977 C377 2.944 . S
C991 C417 1.934 . S
C995 C177 1.925 . S
C1009 C457 1.923 . S
C1013 C217 1.936 . S
C1027 C248 0.944 . S
C1031 C8 0.941 . S
C1045 C288 0.589 . S
C1049 C48 0.595 . S
C1063 C328 0.596 . S
C1067 C88 0.590 . S
C1081 C128 0.960 . S
C1085 C368 0.968 . S
C1099 C408 0.607 . S
C1103 C168 0.609 . S
C1117 C448 0.643 . S
C1121 C208 0.622 . S
