# Generated by pormake.
# Topology cdt, (3)-cn, num edge types: 1
# Building blocks:
#     Node 0, Type 0, BuildingBlock: OLANEW_clean_sbu_2, # of connection points: 3
#     Node 1, Type 0, BuildingBlock: OLANEW_clean_sbu_2, # of connection points: 3
#     Node 2, Type 0, BuildingBlock: OLANEW_clean_sbu_2, # of connection points: 3
#     Node 3, Type 0, BuildingBlock: OLANEW_clean_sbu_2, # of connection points: 3
#     Node 4, Type 0, BuildingBlock: OLANEW_clean_sbu_2, # of connection points: 3
#     Node 5, Type 0, BuildingBlock: OLANEW_clean_sbu_2, # of connection points: 3
#     Node 6, Type 0, BuildingBlock: OLANEW_clean_sbu_2, # of connection points: 3
#     Node 7, Type 0, BuildingBlock: OLANEW_clean_sbu_2, # of connection points: 3
#     Edge 8, Type (0, 0), BuildingBlock: MIFKUJ_clean_linker_0, # of connection points: 2
#     Edge 9, Type (0, 0), BuildingBlock: MIFKUJ_clean_linker_0, # of connection points: 2
#     Edge 10, Type (0, 0), BuildingBlock: MIFKUJ_clean_linker_0, # of connection points: 2
#     Edge 11, Type (0, 0), BuildingBlock: MIFKUJ_clean_linker_0, # of connection points: 2
#     Edge 12, Type (0, 0), BuildingBlock: MIFKUJ_clean_linker_0, # of connection points: 2
#     Edge 13, Type (0, 0), BuildingBlock: MIFKUJ_clean_linker_0, # of connection points: 2
#     Edge 14, Type (0, 0), BuildingBlock: MIFKUJ_clean_linker_0, # of connection points: 2
#     Edge 15, Type (0, 0), BuildingBlock: MIFKUJ_clean_linker_0, # of connection points: 2
#     Edge 16, Type (0, 0), BuildingBlock: MIFKUJ_clean_linker_0, # of connection points: 2
#     Edge 17, Type (0, 0), BuildingBlock: MIFKUJ_clean_linker_0, # of connection points: 2
#     Edge 18, Type (0, 0), BuildingBlock: MIFKUJ_clean_linker_0, # of connection points: 2
#     Edge 19, Type (0, 0), BuildingBlock: MIFKUJ_clean_linker_0, # of connection points: 2
# Relax obj value: 0.003
# Max RMSD: 0.044
# Mean RMSD: 0.044
data_MOF--net-cdt--node1-OLANEW_clean_sbu_2--edge1-MIFKUJ_clean_linker_0
_symmetry_space_group_name_H-M    P1
_symmetry_Int_Tables_number       1
_symmetry_cell_setting            triclinic
loop_
_symmetry_equiv_pos_as_xyz
'x, y, z'
_cell_length_a     54.731374
_cell_length_b     26.877648
_cell_length_c     62.300704
_cell_angle_alpha  89.99915
_cell_angle_beta   90.005757
_cell_angle_gamma 90.044933
loop_
_atom_site_label
_atom_site_type_symbol
_atom_site_fract_x
_atom_site_fract_y
_atom_site_fract_z
_atom_type_partial_charge
O0 O 0.4293 0.25519 0.11724 0.0
Cd1 Cd 0.41641 0.24433 0.07994 0.0
O2 O 0.42788 0.17555 0.12532 0.0
Cd3 Cd 0.41015 0.1537 0.09534 0.0
O4 O 0.3794 0.11858 0.07885 0.0
C5 C 0.36017 0.1437 0.07522 0.0
O6 O 0.36002 0.19131 0.08001 0.0
C7 C 0.43269 0.22016 0.13064 0.0
C8 C 0.4391 0.31499 0.05376 0.0
O9 O 0.41863 0.32425 0.06292 0.0
O10 O 0.44871 0.27209 0.0568 0.0
O11 O 0.07184 0.74644 0.12059 0.0
Cd12 Cd 0.08403 0.76354 0.08355 0.0
O13 O 0.07299 0.82483 0.1307 0.0
Cd14 Cd 0.08976 0.85181 0.10107 0.0
O15 O 0.11822 0.89256 0.08382 0.0
C16 C 0.1385 0.87136 0.07993 0.0
O17 O 0.14114 0.82424 0.08505 0.0
C18 C 0.06851 0.77945 0.13492 0.0
C19 C 0.06161 0.69608 0.05569 0.0
O20 O 0.08259 0.6868 0.06392 0.0
O21 O 0.05138 0.73751 0.06045 0.0
O22 O 0.43762 0.28416 0.36792 0.0
Cd23 Cd 0.42621 0.29487 0.40564 0.0
O24 O 0.43249 0.36369 0.36092 0.0
Cd25 Cd 0.41584 0.3812 0.39187 0.0
O26 O 0.38467 0.40626 0.41092 0.0
C27 C 0.3785 0.45169 0.40937 0.0
O28 O 0.39208 0.4817 0.39775 0.0
C29 C 0.43875 0.32038 0.35481 0.0
C30 C 0.43876 0.21349 0.43118 0.0
O31 O 0.41775 0.2162 0.42217 0.0
O32 O 0.4539 0.24914 0.42799 0.0
O33 O 0.06484 0.69827 0.36973 0.0
Cd34 Cd 0.07813 0.68928 0.40705 0.0
O35 O 0.06704 0.61798 0.3632 0.0
Cd36 Cd 0.08454 0.60121 0.39385 0.0
O37 O 0.11689 0.58205 0.41262 0.0
C38 C 0.13469 0.61242 0.41217 0.0
O39 O 0.13201 0.65474 0.40187 0.0
C40 C 0.0619 0.6618 0.35697 0.0
C41 C 0.06513 0.77112 0.4321 0.0
O42 O 0.08558 0.76989 0.42209 0.0
O43 O 0.05081 0.73361 0.43025 0.0
O44 O 0.57676 0.75341 0.86769 0.0
Cd45 Cd 0.58704 0.76363 0.90566 0.0
O46 O 0.60463 0.69549 0.86296 0.0
Cd47 Cd 0.62342 0.71506 0.89274 0.0
O48 O 0.65022 0.75878 0.91073 0.0
C49 C 0.64851 0.80586 0.90952 0.0
O50 O 0.63017 0.82519 0.89876 0.0
C51 C 0.58667 0.72058 0.85584 0.0
C52 C 0.56347 0.69137 0.93039 0.0
O53 O 0.55367 0.73403 0.92716 0.0
O54 O 0.5845 0.68307 0.92209 0.0
O55 O 0.91811 0.27486 0.86382 0.0
Cd56 Cd 0.90885 0.26494 0.90198 0.0
O57 O 0.88416 0.23826 0.85329 0.0
Cd58 Cd 0.86976 0.21854 0.88489 0.0
O59 O 0.84249 0.17741 0.90341 0.0
C60 C 0.84757 0.13641 0.91254 0.0
O61 O 0.87024 0.12034 0.91222 0.0
C62 C 0.90408 0.2603 0.84881 0.0
C63 C 0.93413 0.33467 0.92678 0.0
O64 O 0.9435 0.29211 0.9225 0.0
O65 O 0.91277 0.34416 0.91941 0.0
O66 O 0.51382 0.7068 0.62236 0.0
Cd67 Cd 0.50935 0.70114 0.58334 0.0
O68 O 0.55325 0.70126 0.61694 0.0
Cd69 Cd 0.59094 0.68894 0.6273 0.0
O70 O 0.62799 0.66312 0.63386 0.0
C71 C 0.63186 0.6165 0.63365 0.0
O72 O 0.61344 0.58629 0.62998 0.0
C73 C 0.53537 0.7047 0.62988 0.0
C74 C 0.49797 0.79051 0.56287 0.0
O75 O 0.48111 0.76063 0.56904 0.0
O76 O 0.52021 0.77855 0.56675 0.0
O77 O 0.98415 0.28139 0.61715 0.0
Cd78 Cd 0.98901 0.28954 0.57828 0.0
O79 O 0.94641 0.30452 0.61131 0.0
Cd80 Cd 0.91001 0.32944 0.62103 0.0
O81 O 0.87409 0.36031 0.62833 0.0
C82 C 0.87229 0.40573 0.63377 0.0
O83 O 0.89225 0.43274 0.63525 0.0
C84 C 0.96303 0.29143 0.6244 0.0
C85 C 0.0011 0.20103 0.55748 0.0
O86 O 0.0177 0.23189 0.56332 0.0
O87 O 0.9788 0.2117 0.56175 0.0
H88 H 0.31561 0.18588 0.06727 0.0
H89 H 0.27679 0.14305 0.06135 0.0
H90 H 0.31388 0.00157 0.0629 0.0
H91 H 0.35285 0.04409 0.06848 0.0
H92 H 0.27735 0.00157 0.03323 0.0
H93 H 0.28723 0.04675 0.10765 0.0
H94 H 0.29451 0.1044 0.13778 0.0
H95 H 0.23117 0.18899 0.1199 0.0
H96 H 0.2237 0.13217 0.08946 0.0
H97 H 0.18478 0.83826 0.07166 0.0
H98 H 0.22096 0.88841 0.06403 0.0
H99 H 0.17677 0.02123 0.0638 0.0
H100 H 0.14048 0.97138 0.07168 0.0
H101 H 0.21523 0.03093 0.08982 0.0
H102 H 0.20279 0.97808 0.01753 0.0
H103 H 0.19569 0.91828 0.98818 0.0
H104 H 0.26363 0.84575 0.00254 0.0
H105 H 0.27098 0.9047 0.0322 0.0
C106 C 0.3156 0.1457 0.06602 0.0
C107 C 0.3373 0.11838 0.06864 0.0
C108 C 0.29337 0.12127 0.06268 0.0
C109 C 0.29238 0.06908 0.06208 0.0
C110 C 0.3142 0.04186 0.06338 0.0
C111 C 0.33646 0.06626 0.06665 0.0
C112 C 0.26853 0.04273 0.06184 0.0
C113 C 0.26379 0.00772 0.04565 0.0
C114 C 0.25066 0.05147 0.07783 0.0
C115 C 0.25508 0.08558 0.09614 0.0
C116 C 0.27497 0.07788 0.11004 0.0
C117 C 0.27911 0.11036 0.12719 0.0
C118 C 0.26336 0.15043 0.13071 0.0
C119 C 0.24339 0.15801 0.11712 0.0
C120 C 0.23919 0.12567 0.09993 0.0
C121 C 0.18266 0.87805 0.06965 0.0
C122 C 0.15975 0.90083 0.07244 0.0
C123 C 0.20337 0.90667 0.06516 0.0
C124 C 0.20157 0.95859 0.06325 0.0
C125 C 0.17858 0.98123 0.06521 0.0
C126 C 0.15784 0.95263 0.06968 0.0
C127 C 0.22396 0.98949 0.06123 0.0
C128 C 0.22854 0.02524 0.07714 0.0
C129 C 0.24167 0.98112 0.04506 0.0
C130 C 0.23734 0.94561 0.02721 0.0
C131 C 0.21613 0.94914 0.01455 0.0
C132 C 0.21207 0.91544 0.99783 0.0
C133 C 0.22917 0.87818 0.99353 0.0
C134 C 0.25039 0.87462 0.0059 0.0
C135 C 0.25452 0.90821 0.02265 0.0
H136 H 0.226 0.85212 0.98057 0.0
H137 H 0.2666 0.17553 0.14399 0.0
H138 H 0.34427 0.39782 0.43162 0.0
H139 H 0.30282 0.42384 0.44111 0.0
H140 H 0.31727 0.57001 0.41548 0.0
H141 H 0.35877 0.54469 0.40629 0.0
H142 H 0.28888 0.57542 0.45109 0.0
H143 H 0.29035 0.48075 0.38474 0.0
H144 H 0.29922 0.40697 0.36253 0.0
H145 H 0.25388 0.31725 0.40337 0.0
H146 H 0.24499 0.39046 0.42599 0.0
H147 H 0.1772 0.66541 0.41022 0.0
H148 H 0.2182 0.63646 0.41884 0.0
H149 H 0.18856 0.49717 0.44142 0.0
H150 H 0.14736 0.52556 0.43237 0.0
H151 H 0.22362 0.48114 0.41362 0.0
H152 H 0.21633 0.581 0.47623 0.0
H153 H 0.20707 0.65602 0.49748 0.0
H154 H 0.26261 0.73714 0.46362 0.0
H155 H 0.27198 0.66282 0.44193 0.0
C156 C 0.33877 0.43577 0.42834 0.0
C157 C 0.35472 0.46899 0.41792 0.0
C158 C 0.31505 0.45054 0.43373 0.0
C159 C 0.30683 0.49861 0.42867 0.0
C160 C 0.3232 0.53271 0.41949 0.0
C161 C 0.34691 0.51806 0.41416 0.0
C162 C 0.28071 0.5123 0.43106 0.0
C163 C 0.27457 0.55494 0.44289 0.0
C164 C 0.26198 0.48482 0.4208 0.0
C165 C 0.26726 0.44088 0.40719 0.0
C166 C 0.28243 0.4452 0.38907 0.0
C167 C 0.28743 0.40351 0.37639 0.0
C168 C 0.27719 0.35741 0.38158 0.0
C169 C 0.26185 0.35295 0.39941 0.0
C170 C 0.25682 0.39451 0.41215 0.0
C171 C 0.1793 0.62894 0.41737 0.0
C172 C 0.159 0.59764 0.42043 0.0
C173 C 0.20281 0.61253 0.42245 0.0
C174 C 0.2065 0.56472 0.43093 0.0
C175 C 0.18615 0.53421 0.4349 0.0
C176 C 0.16261 0.55054 0.42975 0.0
C177 C 0.23169 0.54492 0.43337 0.0
C178 C 0.23773 0.50113 0.42231 0.0
C179 C 0.25026 0.57151 0.4443 0.0
C180 C 0.24476 0.61634 0.45735 0.0
C181 C 0.22646 0.61492 0.4732 0.0
C182 C 0.22121 0.65732 0.48535 0.0
C183 C 0.23422 0.70134 0.48188 0.0
C184 C 0.25255 0.70302 0.46629 0.0
C185 C 0.25786 0.66073 0.45408 0.0
H186 H 0.23013 0.73412 0.4913 0.0
H187 H 0.28107 0.32518 0.37174 0.0
H188 H 0.85161 0.04575 0.93237 0.0
H189 H 0.81861 0.98749 0.94076 0.0
H190 H 0.76562 0.09451 0.91856 0.0
H191 H 0.79836 0.15328 0.91063 0.0
H192 H 0.74815 0.04452 0.95241 0.0
H193 H 0.78829 0.00276 0.88528 0.0
H194 H 0.82364 0.98034 0.86271 0.0
H195 H 0.83595 0.8501 0.90114 0.0
H196 H 0.80082 0.87214 0.9241 0.0
H197 H 0.6506 0.90725 0.9083 0.0
H198 H 0.68505 0.96038 0.91768 0.0
H199 H 0.72566 0.83194 0.93888 0.0
H200 H 0.69126 0.77817 0.92916 0.0
H201 H 0.75183 0.8859 0.91182 0.0
H202 H 0.70621 0.92107 0.97492 0.0
H203 H 0.67005 0.94373 0.99638 0.0
H204 H 0.66705 0.08601 0.96515 0.0
H205 H 0.70299 0.06397 0.94327 0.0
C206 C 0.83291 0.05722 0.92961 0.0
C207 C 0.82766 0.10393 0.92054 0.0
C208 C 0.81406 0.02381 0.93437 0.0
C209 C 0.78967 0.03626 0.92989 0.0
C210 C 0.7843 0.084 0.92209 0.0
C211 C 0.80309 0.11753 0.91748 0.0
C212 C 0.76988 0.99858 0.93152 0.0
C213 C 0.74889 0.00985 0.94352 0.0
C214 C 0.77111 0.95274 0.92037 0.0
C215 C 0.79215 0.93941 0.90654 0.0
C216 C 0.79865 0.96954 0.889 0.0
C217 C 0.81863 0.95688 0.87613 0.0
C218 C 0.83208 0.91391 0.88053 0.0
C219 C 0.82554 0.88343 0.89778 0.0
C220 C 0.80561 0.89598 0.91072 0.0
C221 C 0.66669 0.89026 0.91527 0.0
C222 C 0.66822 0.83839 0.91784 0.0
C223 C 0.68635 0.92082 0.92078 0.0
C224 C 0.70791 0.90026 0.92916 0.0
C225 C 0.70919 0.84864 0.93248 0.0
C226 C 0.6895 0.81797 0.92695 0.0
C227 C 0.72978 0.93219 0.93236 0.0
C228 C 0.7512 0.91994 0.92117 0.0
C229 C 0.72884 0.97716 0.94417 0.0
C230 C 0.70725 0.99071 0.95736 0.0
C231 C 0.69775 0.95706 0.97251 0.0
C232 C 0.6773 0.96983 0.98477 0.0
C233 C 0.66624 0.01625 0.98211 0.0
C234 C 0.67564 0.05006 0.9672 0.0
C235 C 0.69608 0.03747 0.95489 0.0
H236 H 0.65041 0.02605 0.99161 0.0
H237 H 0.84754 0.90416 0.87055 0.0
H238 H 0.67403 0.66845 0.6414 0.0
H239 H 0.71536 0.63509 0.64517 0.0
H240 H 0.68751 0.48624 0.63648 0.0
H241 H 0.64611 0.51915 0.63315 0.0
H242 H 0.72144 0.48822 0.66753 0.0
H243 H 0.71439 0.54995 0.59505 0.0
H244 H 0.70609 0.61303 0.56724 0.0
H245 H 0.76271 0.70621 0.593 0.0
H246 H 0.77113 0.64392 0.62115 0.0
H247 H 0.82761 0.36004 0.63267 0.0
H248 H 0.78748 0.39873 0.63649 0.0
H249 H 0.82171 0.54142 0.64665 0.0
H250 H 0.86197 0.5031 0.64267 0.0
H251 H 0.78561 0.54679 0.61724 0.0
H252 H 0.79504 0.48129 0.68798 0.0
H253 H 0.80377 0.41707 0.71518 0.0
H254 H 0.74315 0.33018 0.69255 0.0
H255 H 0.73428 0.39353 0.66498 0.0
C256 C 0.67668 0.6286 0.64037 0.0
C257 C 0.6568 0.59648 0.63676 0.0
C258 C 0.70033 0.60959 0.64249 0.0
C259 C 0.70458 0.55821 0.6408 0.0
C260 C 0.68467 0.52601 0.63781 0.0
C261 C 0.66102 0.54494 0.6358 0.0
C262 C 0.7298 0.53799 0.64143 0.0
C263 C 0.73543 0.50071 0.65643 0.0
C264 C 0.74821 0.55513 0.62728 0.0
C265 C 0.7432 0.59254 0.61034 0.0
C266 C 0.72494 0.58407 0.59489 0.0
C267 C 0.72023 0.61964 0.57905 0.0
C268 C 0.73381 0.66366 0.5784 0.0
C269 C 0.75218 0.67214 0.59355 0.0
C270 C 0.75693 0.6367 0.60944 0.0
C271 C 0.82664 0.39959 0.63588 0.0
C272 C 0.84801 0.42851 0.63731 0.0
C273 C 0.80367 0.42161 0.63817 0.0
C274 C 0.80162 0.4729 0.64202 0.0
C275 C 0.8229 0.50177 0.6437 0.0
C276 C 0.84589 0.47976 0.64147 0.0
C277 C 0.77722 0.49671 0.64321 0.0
C278 C 0.77172 0.53463 0.62852 0.0
C279 C 0.75896 0.48006 0.65761 0.0
C280 C 0.76412 0.44201 0.67429 0.0
C281 C 0.78368 0.44831 0.68869 0.0
C282 C 0.78864 0.41209 0.7042 0.0
C283 C 0.77406 0.36952 0.70556 0.0
C284 C 0.75444 0.36316 0.69146 0.0
C285 C 0.74942 0.39924 0.67591 0.0
H286 H 0.77793 0.34152 0.71757 0.0
H287 H 0.73015 0.69116 0.56612 0.0
H288 H 0.48113 0.30474 0.03041 0.0
H289 H 0.50199 0.36819 0.00908 0.0
H290 H 0.44631 0.47485 0.02587 0.0
H291 H 0.42506 0.41131 0.04687 0.0
H292 H 0.45747 0.48182 0.98437 0.0
H293 H 0.50279 0.47524 0.05045 0.0
H294 H 0.52615 0.43466 0.07941 0.0
H295 H 0.58003 0.38665 0.03381 0.0
H296 H 0.55682 0.42641 0.00452 0.0
H297 H 0.52071 0.70024 0.9528 0.0
H298 H 0.49961 0.63598 0.97347 0.0
H299 H 0.556 0.5305 0.9571 0.0
H300 H 0.57751 0.5949 0.93682 0.0
H301 H 0.54449 0.5225 0.99819 0.0
H302 H 0.49941 0.52942 0.93213 0.0
H303 H 0.47609 0.56985 0.9031 0.0
H304 H 0.42181 0.61695 0.94851 0.0
H305 H 0.44498 0.57734 0.97786 0.0
C306 C 0.47328 0.34167 0.02953 0.0
C307 C 0.45148 0.35303 0.04042 0.0
C308 C 0.4853 0.37798 0.01741 0.0
C309 C 0.47591 0.42652 0.01612 0.0
C310 C 0.45392 0.4377 0.02666 0.0
C311 C 0.44183 0.40134 0.0387 0.0
C312 C 0.48901 0.46568 0.00383 0.0
C313 C 0.47641 0.49116 0.98758 0.0
C314 C 0.5139 0.47711 0.00766 0.0
C315 C 0.52794 0.4534 0.02527 0.0
C316 C 0.51953 0.45572 0.04658 0.0
C317 C 0.53276 0.43292 0.06305 0.0
C318 C 0.55453 0.40798 0.05845 0.0
C319 C 0.56315 0.40592 0.03736 0.0
C320 C 0.54998 0.42862 0.02081 0.0
C321 C 0.52864 0.66337 0.9536 0.0
C322 C 0.55076 0.65265 0.9431 0.0
C323 C 0.51648 0.62658 0.96534 0.0
C324 C 0.52602 0.57816 0.96659 0.0
C325 C 0.54826 0.56755 0.95634 0.0
C326 C 0.56051 0.6044 0.94471 0.0
C327 C 0.51295 0.53868 0.97873 0.0
C328 C 0.52556 0.51313 0.99496 0.0
C329 C 0.48808 0.52717 0.97486 0.0
C330 C 0.47405 0.55081 0.95722 0.0
C331 C 0.48259 0.54871 0.93594 0.0
C332 C 0.46938 0.57142 0.91943 0.0
C333 C 0.44751 0.59606 0.92397 0.0
C334 C 0.43877 0.5979 0.94502 0.0
C335 C 0.45192 0.57529 0.9616 0.0
H336 H 0.43731 0.61363 0.91116 0.0
H337 H 0.56475 0.39035 0.07123 0.0
H338 H 0.97989 0.32602 0.94408 0.0
H339 H 0.00211 0.38755 0.9654 0.0
H340 H 0.94117 0.48858 0.9604 0.0
H341 H 0.91895 0.42753 0.9388 0.0
H342 H 0.98363 0.53611 0.95356 0.0
H343 H 0.95186 0.4234 0.00654 0.0
H344 H 0.94472 0.34172 0.02346 0.0
H345 H 0.02204 0.32156 0.03125 0.0
H346 H 0.02965 0.40287 0.01412 0.0
H347 H 0.01686 0.70436 0.03648 0.0
H348 H 0.99619 0.64309 0.01388 0.0
H349 H 0.05788 0.54428 0.01994 0.0
H350 H 0.07856 0.6051 0.04282 0.0
H351 H 0.01581 0.49524 0.02588 0.0
H352 H 0.04764 0.60859 0.97352 0.0
H353 H 0.05482 0.69035 0.95671 0.0
H354 H 0.97761 0.70942 0.94775 0.0
H355 H 0.96993 0.62802 0.96478 0.0
C356 C 0.97119 0.36131 0.94753 0.0
C357 C 0.9476 0.3718 0.9398 0.0
C358 C 0.98389 0.39638 0.95979 0.0
C359 C 0.9732 0.44248 0.9647 0.0
C360 C 0.94977 0.45324 0.95683 0.0
C361 C 0.93706 0.41822 0.94454 0.0
C362 C 0.9865 0.47963 0.97795 0.0
C363 C 0.9904 0.52739 0.96949 0.0
C364 C 0.99587 0.46787 0.99852 0.0
C365 C 0.99133 0.41899 0.00885 0.0
C366 C 0.96734 0.40136 0.01171 0.0
C367 C 0.96321 0.35517 0.02136 0.0
C368 C 0.98292 0.3264 0.02837 0.0
C369 C 0.00679 0.34384 0.02579 0.0
C370 C 0.01103 0.39 0.01612 0.0
C371 C 0.0261 0.66969 0.03294 0.0
C372 C 0.04939 0.65965 0.04143 0.0
C373 C 0.01429 0.63477 0.01994 0.0
C374 C 0.02559 0.58928 0.01503 0.0
C375 C 0.04883 0.57915 0.02349 0.0
C376 C 0.06065 0.61403 0.03652 0.0
C377 C 0.0129 0.55178 0.00151 0.0
C378 C 0.0091 0.50395 0.00993 0.0
C379 C 0.00364 0.56348 0.98091 0.0
C380 C 0.0082 0.6124 0.97061 0.0
C381 C 0.03218 0.63039 0.96812 0.0
C382 C 0.03634 0.67664 0.95852 0.0
C383 C 0.01668 0.70512 0.95121 0.0
C384 C 0.99282 0.68734 0.95344 0.0
C385 C 0.98855 0.64113 0.96304 0.0
H386 H 0.01994 0.74091 0.94378 0.0
H387 H 0.97968 0.29065 0.03585 0.0
H388 H 0.48259 0.19463 0.45068 0.0
H389 H 0.49305 0.12434 0.47385 0.0
H390 H 0.42024 0.06541 0.46625 0.0
H391 H 0.40957 0.1357 0.44316 0.0
H392 H 0.43532 0.06388 0.50816 0.0
H393 H 0.46717 0.01443 0.43929 0.0
H394 H 0.49176 0.02432 0.4064 0.0
H395 H 0.55713 0.03482 0.44425 0.0
H396 H 0.53287 0.02565 0.47741 0.0
H397 H 0.45347 0.81943 0.54741 0.0
H398 H 0.44404 0.89323 0.52613 0.0
H399 H 0.51931 0.94014 0.53035 0.0
H400 H 0.52902 0.86557 0.55116 0.0
H401 H 0.50384 0.95001 0.49084 0.0
H402 H 0.473 0.99781 0.5596 0.0
H403 H 0.449 0.98929 0.59289 0.0
H404 H 0.38266 0.98407 0.55616 0.0
H405 H 0.4063 0.99189 0.52261 0.0
C406 C 0.4688 0.16669 0.4539 0.0
C407 C 0.44526 0.1707 0.44502 0.0
C408 C 0.47484 0.12647 0.4671 0.0
C409 C 0.45748 0.08946 0.47163 0.0
C410 C 0.43391 0.09356 0.46294 0.0
C411 C 0.42788 0.13367 0.44969 0.0
C412 C 0.46381 0.04657 0.48554 0.0
C413 C 0.45011 0.03858 0.50426 0.0
C414 C 0.48357 0.01451 0.48076 0.0
C415 C 0.49818 0.01987 0.46084 0.0
C416 C 0.48677 0.01926 0.44061 0.0
C417 C 0.50065 0.02466 0.42192 0.0
C418 C 0.52598 0.03033 0.42324 0.0
C419 C 0.5375 0.03049 0.44326 0.0
C420 C 0.5237 0.02516 0.462 0.0
C421 C 0.46799 0.84562 0.54395 0.0
C422 C 0.49199 0.83666 0.55101 0.0
C423 C 0.46255 0.88796 0.53185 0.0
C424 C 0.4809 0.92264 0.52684 0.0
C425 C 0.50485 0.91395 0.53401 0.0
C426 C 0.51035 0.87137 0.54596 0.0
C427 C 0.47527 0.96703 0.51349 0.0
C428 C 0.4891 0.97535 0.49484 0.0
C429 C 0.45573 0.99961 0.51843 0.0
C430 C 0.44145 0.99498 0.53858 0.0
C431 C 0.45331 0.99446 0.55861 0.0
C432 C 0.43976 0.98982 0.57753 0.0
C433 C 0.41432 0.98602 0.57664 0.0
C434 C 0.40237 0.98697 0.55682 0.0
C435 C 0.41583 0.99156 0.53785 0.0
H436 H 0.40387 0.98243 0.5913 0.0
H437 H 0.5367 0.0345 0.40875 0.0
H438 H 0.04448 0.1783 0.53823 0.0
H439 H 0.05438 0.10403 0.51726 0.0
H440 H 0.98223 0.04558 0.52905 0.0
H441 H 0.97202 0.12013 0.54985 0.0
H442 H 0.02094 0.97516 0.53479 0.0
H443 H 0.99144 0.09202 0.48276 0.0
H444 H 0.98945 0.17278 0.46408 0.0
H445 H 0.06443 0.15767 0.44489 0.0
H446 H 0.06698 0.07709 0.46374 0.0
H447 H 0.02345 0.7841 0.4557 0.0
H448 H 0.0122 0.85604 0.47758 0.0
H449 H 0.07998 0.92809 0.46068 0.0
H450 H 0.09125 0.85657 0.43857 0.0
H451 H 0.04231 0.99149 0.45769 0.0
H452 H 0.0723 0.87551 0.50985 0.0
H453 H 0.07486 0.7952 0.52884 0.0
H454 H 0.99984 0.80874 0.54813 0.0
H455 H 0.99673 0.88886 0.52899 0.0
C456 C 0.03075 0.14956 0.53646 0.0
C457 C 0.00744 0.15512 0.54564 0.0
C458 C 0.03641 0.10726 0.52442 0.0
C459 C 0.01897 0.06957 0.52152 0.0
C460 C 0.9959 0.07435 0.53111 0.0
C461 C 0.9901 0.11699 0.54291 0.0
C462 C 0.02477 0.02558 0.50816 0.0
C463 C 0.02528 0.97851 0.51786 0.0
C464 C 0.03093 0.03033 0.48621 0.0
C465 C 0.02948 0.07878 0.47487 0.0
C466 C 0.00758 0.10614 0.47474 0.0
C467 C 0.00633 0.15184 0.46408 0.0
C468 C 0.02682 0.17042 0.45336 0.0
C469 C 0.04858 0.14327 0.45323 0.0
C470 C 0.04994 0.09756 0.46389 0.0
C471 C 0.03599 0.81522 0.45665 0.0
C472 C 0.05828 0.81456 0.44543 0.0
C473 C 0.02957 0.85623 0.46924 0.0
C474 C 0.04537 0.89723 0.47094 0.0
C475 C 0.06753 0.89683 0.45961 0.0
C476 C 0.07397 0.85585 0.44703 0.0
C477 C 0.03868 0.94085 0.48431 0.0
C478 C 0.03795 0.98796 0.47461 0.0
C479 C 0.03242 0.93611 0.50628 0.0
C480 C 0.03421 0.88792 0.51779 0.0
C481 C 0.05628 0.86115 0.51798 0.0
C482 C 0.05785 0.81571 0.5288 0.0
C483 C 0.0375 0.7968 0.53963 0.0
C484 C 0.01557 0.82338 0.5397 0.0
C485 C 0.0139 0.86883 0.52888 0.0
H486 H 0.03875 0.76162 0.54801 0.0
H487 H 0.02581 0.20579 0.44511 0.0
H488 H 0.44898 0.23173 0.33491 0.0
H489 H 0.45464 0.21734 0.29647 0.0
H490 H 0.44902 0.37506 0.28469 0.0
H491 H 0.44307 0.38977 0.32297 0.0
H492 H 0.41855 0.32414 0.25967 0.0
H493 H 0.50319 0.31373 0.27817 0.0
H494 H 0.53923 0.284 0.29812 0.0
H495 H 0.52559 0.1349 0.27643 0.0
H496 H 0.48924 0.16363 0.25658 0.0
H497 H 0.44045 0.31176 0.14864 0.0
H498 H 0.44799 0.33064 0.18644 0.0
H499 H 0.4494 0.17384 0.20102 0.0
H500 H 0.44203 0.15448 0.16323 0.0
H501 H 0.4841 0.22679 0.2242 0.0
H502 H 0.39813 0.23568 0.20843 0.0
H503 H 0.36168 0.2642 0.18869 0.0
H504 H 0.3777 0.41545 0.20591 0.0
H505 H 0.41446 0.38785 0.22552 0.0
C506 C 0.44934 0.26345 0.32419 0.0
C507 C 0.44538 0.31188 0.33202 0.0
C508 C 0.45268 0.25517 0.30221 0.0
C509 C 0.4523 0.29515 0.2877 0.0
C510 C 0.44932 0.34365 0.29559 0.0
C511 C 0.44596 0.35197 0.31751 0.0
C512 C 0.45283 0.28617 0.26419 0.0
C513 C 0.43315 0.30369 0.25189 0.0
C514 C 0.47151 0.25822 0.25411 0.0
C515 C 0.49334 0.24078 0.26604 0.0
C516 C 0.50774 0.27453 0.2778 0.0
C517 C 0.52826 0.25787 0.28906 0.0
C518 C 0.53466 0.20757 0.28859 0.0
C519 C 0.52059 0.17385 0.2768 0.0
C520 C 0.50004 0.19031 0.26552 0.0
C521 C 0.44272 0.28122 0.1598 0.0
C522 C 0.44034 0.23159 0.15293 0.0
C523 C 0.447 0.29211 0.18141 0.0
C524 C 0.44891 0.25364 0.19656 0.0
C525 C 0.44794 0.20406 0.18959 0.0
C526 C 0.44361 0.19311 0.16798 0.0
C527 C 0.44993 0.26509 0.21982 0.0
C528 C 0.46972 0.24776 0.23204 0.0
C529 C 0.43132 0.2931 0.22993 0.0
C530 C 0.40919 0.30976 0.21823 0.0
C531 C 0.39399 0.27506 0.20785 0.0
C532 C 0.37326 0.29105 0.19672 0.0
C533 C 0.36742 0.34162 0.19599 0.0
C534 C 0.38227 0.37629 0.20645 0.0
C535 C 0.40305 0.36051 0.21759 0.0
H536 H 0.35135 0.35392 0.18736 0.0
H537 H 0.55056 0.19475 0.29731 0.0
H538 H 0.05189 0.75085 0.33744 0.0
H539 H 0.0457 0.76594 0.29916 0.0
H540 H 0.0496 0.60819 0.28691 0.0
H541 H 0.05605 0.59274 0.32512 0.0
H542 H 0.08043 0.65851 0.26185 0.0
H543 H 0.99611 0.67128 0.28035 0.0
H544 H 0.96023 0.70093 0.30053 0.0
H545 H 0.97494 0.85077 0.2804 0.0
H546 H 0.01114 0.82213 0.26033 0.0
H547 H 0.06081 0.68544 0.15055 0.0
H548 H 0.05272 0.66142 0.18773 0.0
H549 H 0.05145 0.81597 0.20629 0.0
H550 H 0.05929 0.84044 0.16915 0.0
H551 H 0.0163 0.76167 0.22744 0.0
H552 H 0.10259 0.75037 0.21262 0.0
H553 H 0.13905 0.72201 0.19285 0.0
H554 H 0.12078 0.57001 0.20682 0.0
H555 H 0.084 0.59749 0.22643 0.0
C556 C 0.05101 0.71926 0.32667 0.0
C557 C 0.05466 0.6706 0.33435 0.0
C558 C 0.04735 0.72795 0.30478 0.0
C559 C 0.04713 0.68817 0.29017 0.0
C560 C 0.04974 0.63944 0.2979 0.0
C561 C 0.05338 0.63069 0.31977 0.0
C562 C 0.04656 0.69776 0.26671 0.0
C563 C 0.0661 0.68015 0.25427 0.0
C564 C 0.02823 0.72715 0.25691 0.0
C565 C 0.00648 0.74458 0.26898 0.0
C566 C 0.99183 0.71061 0.28037 0.0
C567 C 0.9714 0.72723 0.29176 0.0
C568 C 0.96534 0.77772 0.29179 0.0
C569 C 0.97967 0.81168 0.28038 0.0
C570 C 0.00013 0.79526 0.26897 0.0
C571 C 0.05849 0.7144 0.16247 0.0
C572 C 0.06098 0.76487 0.1569 0.0
C573 C 0.05391 0.70057 0.18372 0.0
C574 C 0.05182 0.73691 0.1998 0.0
C575 C 0.05304 0.78734 0.19413 0.0
C576 C 0.05764 0.80122 0.17289 0.0
C577 C 0.05016 0.72243 0.22273 0.0
C578 C 0.03036 0.73936 0.23504 0.0
C579 C 0.06829 0.69253 0.23251 0.0
C580 C 0.0904 0.67595 0.22076 0.0
C581 C 0.10624 0.71088 0.21131 0.0
C582 C 0.12698 0.69498 0.20017 0.0
C583 C 0.13219 0.64423 0.19852 0.0
C584 C 0.1167 0.6093 0.20807 0.0
C585 C 0.09591 0.62501 0.21921 0.0
H586 H 0.14826 0.63199 0.18989 0.0
H587 H 0.94951 0.79051 0.30061 0.0
H588 H 0.57181 0.75003 0.65241 0.0
H589 H 0.57876 0.74748 0.69116 0.0
H590 H 0.51506 0.65423 0.69881 0.0
H591 H 0.50762 0.65842 0.6601 0.0
H592 H 0.51498 0.71622 0.7291 0.0
H593 H 0.57638 0.60828 0.70141 0.0
H594 H 0.61133 0.58042 0.67949 0.0
H595 H 0.65604 0.69588 0.70647 0.0
H596 H 0.6213 0.72479 0.72838 0.0
H597 H 0.59534 0.6412 0.82953 0.0
H598 H 0.58372 0.63194 0.79186 0.0
H599 H 0.54896 0.77602 0.79355 0.0
H600 H 0.55957 0.78438 0.83142 0.0
H601 H 0.59699 0.67917 0.75889 0.0
H602 H 0.50449 0.78623 0.75699 0.0
H603 H 0.46873 0.79983 0.78036 0.0
H604 H 0.48369 0.66315 0.81352 0.0
H605 H 0.51933 0.64839 0.79017 0.0
C606 C 0.55946 0.72861 0.66238 0.0
C607 C 0.53942 0.70373 0.65329 0.0
C608 C 0.56345 0.72708 0.68452 0.0
C609 C 0.54776 0.6997 0.69795 0.0
C610 C 0.52749 0.67547 0.68885 0.0
C611 C 0.52325 0.67781 0.66674 0.0
C612 C 0.55224 0.69714 0.7215 0.0
C613 C 0.53291 0.70794 0.73559 0.0
C614 C 0.57546 0.6852 0.73011 0.0
C615 C 0.59618 0.6689 0.71644 0.0
C616 C 0.59359 0.62804 0.70251 0.0
C617 C 0.61338 0.612 0.69012 0.0
C618 C 0.63588 0.63636 0.69161 0.0
C619 C 0.6386 0.67703 0.70536 0.0
C620 C 0.61888 0.69323 0.71778 0.0
C621 C 0.58493 0.6706 0.82193 0.0
C622 C 0.57831 0.71346 0.83346 0.0
C623 C 0.57836 0.66534 0.80037 0.0
C624 C 0.56527 0.70306 0.78981 0.0
C625 C 0.55854 0.74581 0.80138 0.0
C626 C 0.56473 0.75068 0.82304 0.0
C627 C 0.55983 0.69889 0.76647 0.0
C628 C 0.57901 0.68708 0.75241 0.0
C629 C 0.53628 0.70812 0.75794 0.0
C630 C 0.51473 0.71648 0.77195 0.0
C631 C 0.50009 0.75898 0.76921 0.0
C632 C 0.47985 0.76691 0.78246 0.0
C633 C 0.47399 0.73245 0.79845 0.0
C634 C 0.48831 0.68991 0.80118 0.0
C635 C 0.50855 0.68178 0.78796 0.0
H636 H 0.45832 0.73868 0.8087 0.0
H637 H 0.65125 0.62358 0.68222 0.0
H638 H 0.99401 0.31584 0.65699 0.0
H639 H 0.98542 0.31474 0.69559 0.0
H640 H 0.91282 0.25928 0.68279 0.0
H641 H 0.92131 0.26082 0.64429 0.0
H642 H 0.91071 0.33065 0.71141 0.0
H643 H 0.9597 0.18373 0.70202 0.0
H644 H 0.99593 0.13587 0.69077 0.0
H645 H 0.04111 0.22299 0.7328 0.0
H646 H 0.00517 0.27181 0.74409 0.0
H647 H 0.87728 0.23696 0.81322 0.0
H648 H 0.88871 0.24743 0.77568 0.0
H649 H 0.95755 0.31164 0.79492 0.0
H650 H 0.94635 0.30085 0.83271 0.0
H651 H 0.96331 0.24199 0.76375 0.0
H652 H 0.91239 0.38434 0.77513 0.0
H653 H 0.87544 0.43014 0.78612 0.0
H654 H 0.83285 0.34898 0.74 0.0
H655 H 0.86946 0.30203 0.72899 0.0
C656 C 0.97625 0.30334 0.66248 0.0
C657 C 0.95815 0.28934 0.64768 0.0
C658 C 0.97138 0.30258 0.68452 0.0
C659 C 0.94848 0.28674 0.69213 0.0
C660 C 0.93053 0.27212 0.67731 0.0
C661 C 0.93533 0.27332 0.6553 0.0
C662 C 0.943 0.28586 0.71548 0.0
C663 C 0.92207 0.31077 0.72282 0.0
C664 C 0.95818 0.26111 0.73047 0.0
C665 C 0.9798 0.23177 0.72372 0.0
C666 C 0.9774 0.19294 0.70873 0.0
C667 C 0.99787 0.16559 0.70237 0.0
C668 C 0.02082 0.17648 0.71102 0.0
C669 C 0.02333 0.21465 0.72608 0.0
C670 C 0.00291 0.24215 0.73248 0.0
C671 C 0.89483 0.25353 0.80954 0.0
C672 C 0.91089 0.26813 0.82602 0.0
C673 C 0.90128 0.25971 0.78803 0.0
C674 C 0.92386 0.28085 0.78249 0.0
C675 C 0.93999 0.2954 0.79886 0.0
C676 C 0.93354 0.28931 0.82044 0.0
C677 C 0.93083 0.28613 0.75959 0.0
C678 C 0.95205 0.26212 0.75235 0.0
C679 C 0.91578 0.31135 0.74465 0.0
C680 C 0.89367 0.33931 0.75137 0.0
C681 C 0.89511 0.37589 0.76747 0.0
C682 C 0.87422 0.40212 0.77368 0.0
C683 C 0.8518 0.39238 0.7638 0.0
C684 C 0.85022 0.35642 0.74767 0.0
C685 C 0.87104 0.33001 0.74143 0.0
H686 H 0.83566 0.41278 0.76861 0.0
H687 H 0.03665 0.15526 0.70608 0.0
loop_
_geom_bond_atom_site_label_1
_geom_bond_atom_site_label_2
_geom_bond_distance
_geom_bond_site_symmetry_2
_ccdc_geom_bond_type
O0 Cd1 2.300 . S
O0 C7 1.275 . S
Cd1 O0 2.300 . S
Cd1 O9 2.381 . S
Cd1 O10 2.378 . S
O2 Cd3 2.385 . S
O2 C7 1.255 . S
Cd3 O2 2.385 . S
Cd3 O4 2.317 . S
O4 Cd3 2.317 . S
O4 C5 1.232 . S
C5 O4 1.232 . S
C5 O6 1.218 . S
O6 C5 1.218 . S
C7 O0 1.275 . S
C7 O2 1.255 . S
C8 O9 1.258 . S
C8 O10 1.256 . S
O9 Cd1 2.381 . S
O9 C8 1.258 . S
O10 Cd1 2.378 . S
O10 C8 1.256 . S
O11 Cd12 2.300 . S
O11 C18 1.275 . S
Cd12 O11 2.300 . S
Cd12 O20 2.381 . S
Cd12 O21 2.378 . S
O13 Cd14 2.385 . S
O13 C18 1.255 . S
Cd14 O13 2.385 . S
Cd14 O15 2.317 . S
O15 Cd14 2.317 . S
O15 C16 1.232 . S
C16 O15 1.232 . S
C16 O17 1.218 . S
O17 C16 1.218 . S
C18 O11 1.275 . S
C18 O13 1.255 . S
C19 O20 1.258 . S
C19 O21 1.256 . S
O20 Cd12 2.381 . S
O20 C19 1.258 . S
O21 Cd12 2.378 . S
O21 C19 1.256 . S
O22 Cd23 2.300 . S
O22 C29 1.275 . S
Cd23 O22 2.300 . S
Cd23 O31 2.381 . S
Cd23 O32 2.378 . S
O24 Cd25 2.385 . S
O24 C29 1.255 . S
Cd25 O24 2.385 . S
Cd25 O26 2.317 . S
O26 Cd25 2.317 . S
O26 C27 1.232 . S
C27 O26 1.232 . S
C27 O28 1.218 . S
O28 C27 1.218 . S
C29 O22 1.275 . S
C29 O24 1.255 . S
C30 O31 1.258 . S
C30 O32 1.256 . S
O31 Cd23 2.381 . S
O31 C30 1.258 . S
O32 Cd23 2.378 . S
O32 C30 1.256 . S
O33 Cd34 2.300 . S
O33 C40 1.275 . S
Cd34 O33 2.300 . S
Cd34 O42 2.381 . S
Cd34 O43 2.378 . S
O35 Cd36 2.385 . S
O35 C40 1.255 . S
Cd36 O35 2.385 . S
Cd36 O37 2.317 . S
O37 Cd36 2.317 . S
O37 C38 1.232 . S
C38 O37 1.232 . S
C38 O39 1.218 . S
O39 C38 1.218 . S
C40 O33 1.275 . S
C40 O35 1.255 . S
C41 O42 1.258 . S
C41 O43 1.256 . S
O42 Cd34 2.381 . S
O42 C41 1.258 . S
O43 Cd34 2.378 . S
O43 C41 1.256 . S
O44 Cd45 2.300 . S
O44 C51 1.275 . S
Cd45 O44 2.300 . S
Cd45 O53 2.381 . S
Cd45 O54 2.378 . S
O46 Cd47 2.385 . S
O46 C51 1.255 . S
Cd47 O46 2.385 . S
Cd47 O48 2.317 . S
O48 Cd47 2.317 . S
O48 C49 1.232 . S
C49 O48 1.232 . S
C49 O50 1.218 . S
O50 C49 1.218 . S
C51 O44 1.275 . S
C51 O46 1.255 . S
C52 O53 1.258 . S
C52 O54 1.256 . S
O53 Cd45 2.381 . S
O53 C52 1.258 . S
O54 Cd45 2.378 . S
O54 C52 1.256 . S
O55 Cd56 2.300 . S
O55 C62 1.275 . S
Cd56 O55 2.300 . S
Cd56 O64 2.381 . S
Cd56 O65 2.378 . S
O57 Cd58 2.385 . S
O57 C62 1.255 . S
Cd58 O57 2.385 . S
Cd58 O59 2.317 . S
O59 Cd58 2.317 . S
O59 C60 1.232 . S
C60 O59 1.232 . S
C60 O61 1.218 . S
O61 C60 1.218 . S
C62 O55 1.275 . S
C62 O57 1.255 . S
C63 O64 1.258 . S
C63 O65 1.256 . S
O64 Cd56 2.381 . S
O64 C63 1.258 . S
O65 Cd56 2.378 . S
O65 C63 1.256 . S
O66 Cd67 2.300 . S
O66 C73 1.275 . S
Cd67 O66 2.300 . S
Cd67 O75 2.381 . S
Cd67 O76 2.378 . S
O68 Cd69 2.385 . S
O68 C73 1.255 . S
Cd69 O68 2.385 . S
Cd69 O70 2.317 . S
O70 Cd69 2.317 . S
O70 C71 1.232 . S
C71 O70 1.232 . S
C71 O72 1.218 . S
O72 C71 1.218 . S
C73 O66 1.275 . S
C73 O68 1.255 . S
C74 O75 1.258 . S
C74 O76 1.256 . S
O75 Cd67 2.381 . S
O75 C74 1.258 . S
O76 Cd67 2.378 . S
O76 C74 1.256 . S
O77 Cd78 2.300 . S
O77 C84 1.275 . S
Cd78 O77 2.300 . S
Cd78 O86 2.381 . S
Cd78 O87 2.378 . S
O79 Cd80 2.385 . S
O79 C84 1.255 . S
Cd80 O79 2.385 . S
Cd80 O81 2.317 . S
O81 Cd80 2.317 . S
O81 C82 1.232 . S
C82 O81 1.232 . S
C82 O83 1.218 . S
O83 C82 1.218 . S
C84 O77 1.275 . S
C84 O79 1.255 . S
C85 O86 1.258 . S
C85 O87 1.256 . S
O86 Cd78 2.381 . S
O86 C85 1.258 . S
O87 Cd78 2.378 . S
O87 C85 1.256 . S
H88 C106 0.951 . S
H89 C108 0.951 . S
H90 C110 0.950 1_565 S
H91 C111 0.950 . S
H92 C113 0.950 . S
H93 C116 0.950 . S
H94 C117 0.950 . S
H95 C119 0.950 . S
H96 C120 0.950 . S
H97 C121 0.951 . S
H98 C123 0.951 . S
H99 C125 0.950 1_545 S
H100 C126 0.950 . S
H101 C128 0.950 . S
H102 C131 0.950 . S
H103 C132 0.950 . S
H104 C134 0.950 . S
H105 C135 0.950 . S
C106 H88 0.951 . S
C106 C107 1.366 . S
C106 C108 1.388 . S
C107 C106 1.366 . S
C107 C111 1.385 . S
C108 H89 0.951 . S
C108 C106 1.388 . S
C108 C109 1.366 . S
C109 C108 1.366 . S
C109 C110 1.414 . S
C109 C112 1.499 . S
C110 H90 0.950 1_545 S
C110 C109 1.414 . S
C110 C111 1.374 . S
C111 H91 0.950 . S
C111 C107 1.385 . S
C111 C110 1.374 . S
C112 C109 1.499 . S
C112 C113 1.373 1_545 S
C112 C114 1.389 . S
C113 H92 0.950 . S
C113 C112 1.373 1_565 S
C113 C129 1.377 . S
C114 C112 1.389 . S
C114 C115 1.524 . S
C114 C128 1.377 . S
C115 C114 1.524 . S
C115 C116 1.397 . S
C115 C120 1.363 . S
C116 H93 0.950 . S
C116 C115 1.397 . S
C116 C117 1.334 . S
C117 H94 0.950 . S
C117 C116 1.334 . S
C117 C118 1.287 . S
C118 C117 1.287 . S
C118 C119 1.524 . S
C118 H137 0.913 . S
C119 H95 0.950 . S
C119 C118 1.524 . S
C119 C120 1.415 . S
C120 H96 0.950 . S
C120 C115 1.363 . S
C120 C119 1.415 . S
C121 H97 0.951 . S
C121 C122 1.366 . S
C121 C123 1.388 . S
C122 C121 1.366 . S
C122 C126 1.385 . S
C123 H98 0.951 . S
C123 C121 1.388 . S
C123 C124 1.366 . S
C124 C123 1.366 . S
C124 C125 1.414 . S
C124 C127 1.499 . S
C125 H99 0.950 1_565 S
C125 C124 1.414 . S
C125 C126 1.374 . S
C126 H100 0.950 . S
C126 C122 1.385 . S
C126 C125 1.374 . S
C127 C124 1.499 . S
C127 C128 1.373 1_565 S
C127 C129 1.389 . S
C128 H101 0.950 . S
C128 C114 1.377 . S
C128 C127 1.373 1_545 S
C129 C113 1.377 . S
C129 C127 1.389 . S
C129 C130 1.524 . S
C130 C129 1.524 . S
C130 C131 1.397 . S
C130 C135 1.363 . S
C131 H102 0.950 . S
C131 C130 1.397 . S
C131 C132 1.334 . S
C132 H103 0.950 . S
C132 C131 1.334 . S
C132 C133 1.287 . S
C133 C132 1.287 . S
C133 C134 1.524 . S
C133 H136 0.999 . S
C134 H104 0.950 . S
C134 C133 1.524 . S
C134 C135 1.415 . S
C135 H105 0.950 . S
C135 C130 1.363 . S
C135 C134 1.415 . S
H136 C133 0.999 . S
H137 C118 0.913 . S
H138 C156 0.951 . S
H139 C158 0.951 . S
H140 C160 0.950 . S
H141 C161 0.950 . S
H142 C163 0.950 . S
H143 C166 0.950 . S
H144 C167 0.950 . S
H145 C169 0.950 . S
H146 C170 0.950 . S
H147 C171 0.951 . S
H148 C173 0.951 . S
H149 C175 0.950 . S
H150 C176 0.950 . S
H151 C178 0.950 . S
H152 C181 0.950 . S
H153 C182 0.950 . S
H154 C184 0.950 . S
H155 C185 0.950 . S
C156 H138 0.951 . S
C156 C157 1.366 . S
C156 C158 1.388 . S
C157 C156 1.366 . S
C157 C161 1.385 . S
C158 H139 0.951 . S
C158 C156 1.388 . S
C158 C159 1.366 . S
C159 C158 1.366 . S
C159 C160 1.414 . S
C159 C162 1.499 . S
C160 H140 0.950 . S
C160 C159 1.414 . S
C160 C161 1.374 . S
C161 H141 0.950 . S
C161 C157 1.385 . S
C161 C160 1.374 . S
C162 C159 1.499 . S
C162 C163 1.373 . S
C162 C164 1.389 . S
C163 H142 0.950 . S
C163 C162 1.373 . S
C163 C179 1.377 . S
C164 C162 1.389 . S
C164 C165 1.524 . S
C164 C178 1.377 . S
C165 C164 1.524 . S
C165 C166 1.397 . S
C165 C170 1.363 . S
C166 H143 0.950 . S
C166 C165 1.397 . S
C166 C167 1.334 . S
C167 H144 0.950 . S
C167 C166 1.334 . S
C167 C168 1.287 . S
C168 C167 1.287 . S
C168 C169 1.524 . S
C168 H187 0.913 . S
C169 H145 0.950 . S
C169 C168 1.524 . S
C169 C170 1.415 . S
C170 H146 0.950 . S
C170 C165 1.363 . S
C170 C169 1.415 . S
C171 H147 0.951 . S
C171 C172 1.366 . S
C171 C173 1.388 . S
C172 C171 1.366 . S
C172 C176 1.385 . S
C173 H148 0.951 . S
C173 C171 1.388 . S
C173 C174 1.366 . S
C174 C173 1.366 . S
C174 C175 1.414 . S
C174 C177 1.499 . S
C175 H149 0.950 . S
C175 C174 1.414 . S
C175 C176 1.374 . S
C176 H150 0.950 . S
C176 C172 1.385 . S
C176 C175 1.374 . S
C177 C174 1.499 . S
C177 C178 1.373 . S
C177 C179 1.389 . S
C178 H151 0.950 . S
C178 C164 1.377 . S
C178 C177 1.373 . S
C179 C163 1.377 . S
C179 C177 1.389 . S
C179 C180 1.524 . S
C180 C179 1.524 . S
C180 C181 1.397 . S
C180 C185 1.363 . S
C181 H152 0.950 . S
C181 C180 1.397 . S
C181 C182 1.334 . S
C182 H153 0.950 . S
C182 C181 1.334 . S
C182 C183 1.287 . S
C183 C182 1.287 . S
C183 C184 1.524 . S
C183 H186 0.999 . S
C184 H154 0.950 . S
C184 C183 1.524 . S
C184 C185 1.415 . S
C185 H155 0.950 . S
C185 C180 1.363 . S
C185 C184 1.415 . S
H186 C183 0.999 . S
H187 C168 0.913 . S
H188 C206 0.951 . S
H189 C208 0.966 . S
H190 C210 0.950 . S
H191 C211 0.950 . S
H192 C213 0.950 . S
H193 C216 0.950 . S
H194 C217 0.950 . S
H195 C219 0.950 . S
H196 C220 0.950 . S
H197 C221 0.951 . S
H198 C223 0.967 . S
H199 C225 0.950 . S
H200 C226 0.950 . S
H201 C228 0.950 . S
H202 C231 0.950 . S
H203 C232 0.950 . S
H204 C234 0.950 . S
H205 C235 0.950 . S
C206 H188 0.951 . S
C206 C207 1.366 . S
C206 C208 1.388 . S
C207 C206 1.366 . S
C207 C211 1.385 . S
C208 H189 0.966 . S
C208 C206 1.388 . S
C208 C209 1.366 . S
C209 C208 1.366 . S
C209 C210 1.414 . S
C209 C212 1.499 . S
C210 H190 0.950 . S
C210 C209 1.414 . S
C210 C211 1.374 . S
C211 H191 0.950 . S
C211 C207 1.385 . S
C211 C210 1.374 . S
C212 C209 1.499 . S
C212 C213 1.373 . S
C212 C214 1.389 1_545 S
C213 H192 0.950 . S
C213 C212 1.373 . S
C213 C229 1.377 . S
C214 C212 1.389 1_565 S
C214 C215 1.524 . S
C214 C228 1.377 . S
C215 C214 1.524 . S
C215 C216 1.397 . S
C215 C220 1.363 . S
C216 H193 0.950 . S
C216 C215 1.397 . S
C216 C217 1.334 . S
C217 H194 0.950 . S
C217 C216 1.334 . S
C217 C218 1.287 . S
C218 C217 1.287 . S
C218 C219 1.524 . S
C218 H237 0.913 . S
C219 H195 0.950 . S
C219 C218 1.524 . S
C219 C220 1.415 . S
C220 H196 0.950 . S
C220 C215 1.363 . S
C220 C219 1.415 . S
C221 H197 0.951 . S
C221 C222 1.366 . S
C221 C223 1.388 . S
C222 C221 1.366 . S
C222 C226 1.385 . S
C223 H198 0.967 . S
C223 C221 1.388 . S
C223 C224 1.366 . S
C224 C223 1.366 . S
C224 C225 1.414 . S
C224 C227 1.499 . S
C225 H199 0.950 . S
C225 C224 1.414 . S
C225 C226 1.374 . S
C226 H200 0.950 . S
C226 C222 1.385 . S
C226 C225 1.374 . S
C227 C224 1.499 . S
C227 C228 1.373 . S
C227 C229 1.389 1_565 S
C228 H201 0.950 . S
C228 C214 1.377 . S
C228 C227 1.373 . S
C229 C213 1.377 . S
C229 C227 1.389 1_545 S
C229 C230 1.524 . S
C230 C229 1.524 . S
C230 C231 1.397 . S
C230 C235 1.363 . S
C231 H202 0.950 . S
C231 C230 1.397 . S
C231 C232 1.334 . S
C232 H203 0.950 . S
C232 C231 1.334 . S
C232 C233 1.287 . S
C233 C232 1.287 . S
C233 C234 1.524 . S
C233 H236 0.999 . S
C234 H204 0.950 . S
C234 C233 1.524 . S
C234 C235 1.415 . S
C235 H205 0.950 . S
C235 C230 1.363 . S
C235 C234 1.415 . S
H236 C233 0.999 . S
H237 C218 0.913 . S
H238 C256 0.951 . S
H239 C258 0.951 . S
H240 C260 0.950 . S
H241 C261 0.950 . S
H242 C263 0.950 . S
H243 C266 0.950 . S
H244 C267 0.950 . S
H245 C269 0.950 . S
H246 C270 0.950 . S
H247 C271 0.951 . S
H248 C273 0.951 . S
H249 C275 0.950 . S
H250 C276 0.950 . S
H251 C278 0.950 . S
H252 C281 0.950 . S
H253 C282 0.950 . S
H254 C284 0.950 . S
H255 C285 0.950 . S
C256 H238 0.951 . S
C256 C257 1.366 . S
C256 C258 1.388 . S
C257 C256 1.366 . S
C257 C261 1.385 . S
C258 H239 0.951 . S
C258 C256 1.388 . S
C258 C259 1.366 . S
C259 C258 1.366 . S
C259 C260 1.414 . S
C259 C262 1.499 . S
C260 H240 0.950 . S
C260 C259 1.414 . S
C260 C261 1.374 . S
C261 H241 0.950 . S
C261 C257 1.385 . S
C261 C260 1.374 . S
C262 C259 1.499 . S
C262 C263 1.373 . S
C262 C264 1.389 . S
C263 H242 0.950 . S
C263 C262 1.373 . S
C263 C279 1.377 . S
C264 C262 1.389 . S
C264 C265 1.524 . S
C264 C278 1.377 . S
C265 C264 1.524 . S
C265 C266 1.397 . S
C265 C270 1.363 . S
C266 H243 0.950 . S
C266 C265 1.397 . S
C266 C267 1.334 . S
C267 H244 0.950 . S
C267 C266 1.334 . S
C267 C268 1.287 . S
C268 C267 1.287 . S
C268 C269 1.524 . S
C268 H287 0.913 . S
C269 H245 0.950 . S
C269 C268 1.524 . S
C269 C270 1.415 . S
C270 H246 0.950 . S
C270 C265 1.363 . S
C270 C269 1.415 . S
C271 H247 0.951 . S
C271 C272 1.366 . S
C271 C273 1.388 . S
C272 C271 1.366 . S
C272 C276 1.385 . S
C273 H248 0.951 . S
C273 C271 1.388 . S
C273 C274 1.366 . S
C274 C273 1.366 . S
C274 C275 1.414 . S
C274 C277 1.499 . S
C275 H249 0.950 . S
C275 C274 1.414 . S
C275 C276 1.374 . S
C276 H250 0.950 . S
C276 C272 1.385 . S
C276 C275 1.374 . S
C277 C274 1.499 . S
C277 C278 1.373 . S
C277 C279 1.389 . S
C278 H251 0.950 . S
C278 C264 1.377 . S
C278 C277 1.373 . S
C279 C263 1.377 . S
C279 C277 1.389 . S
C279 C280 1.524 . S
C280 C279 1.524 . S
C280 C281 1.397 . S
C280 C285 1.363 . S
C281 H252 0.950 . S
C281 C280 1.397 . S
C281 C282 1.334 . S
C282 H253 0.950 . S
C282 C281 1.334 . S
C282 C283 1.287 . S
C283 C282 1.287 . S
C283 C284 1.524 . S
C283 H286 0.999 . S
C284 H254 0.950 . S
C284 C283 1.524 . S
C284 C285 1.415 . S
C285 H255 0.950 . S
C285 C280 1.363 . S
C285 C284 1.415 . S
H286 C283 0.999 . S
H287 C268 0.913 . S
H288 C306 0.951 . S
H289 C308 0.968 . S
H290 C310 0.950 . S
H291 C311 0.950 . S
H292 C313 0.950 . S
H293 C316 0.950 . S
H294 C317 0.950 . S
H295 C319 0.950 . S
H296 C320 0.950 . S
H297 C321 0.951 . S
H298 C323 0.968 . S
H299 C325 0.950 . S
H300 C326 0.950 . S
H301 C328 0.950 . S
H302 C331 0.950 . S
H303 C332 0.950 . S
H304 C334 0.950 . S
H305 C335 0.950 . S
C306 H288 0.951 . S
C306 C307 1.366 . S
C306 C308 1.388 . S
C307 C306 1.366 . S
C307 C311 1.385 . S
C308 H289 0.968 . S
C308 C306 1.388 . S
C308 C309 1.366 . S
C309 C308 1.366 . S
C309 C310 1.414 . S
C309 C312 1.499 . S
C310 H290 0.950 . S
C310 C309 1.414 . S
C310 C311 1.374 . S
C311 H291 0.950 . S
C311 C307 1.385 . S
C311 C310 1.374 . S
C312 C309 1.499 . S
C312 C313 1.373 . S
C312 C314 1.389 1_554 S
C313 H292 0.950 . S
C313 C312 1.373 . S
C313 C329 1.377 . S
C314 C312 1.389 1_556 S
C314 C315 1.524 . S
C314 C328 1.377 . S
C315 C314 1.524 . S
C315 C316 1.397 1_556 S
C315 C320 1.363 . S
C316 H293 0.950 . S
C316 C315 1.397 1_554 S
C316 C317 1.334 . S
C317 H294 0.950 . S
C317 C316 1.334 . S
C317 C318 1.287 1_554 S
C318 C317 1.287 1_556 S
C318 C319 1.524 . S
C318 H337 0.913 . S
C319 H295 0.950 . S
C319 C318 1.524 . S
C319 C320 1.415 . S
C320 H296 0.950 . S
C320 C315 1.363 . S
C320 C319 1.415 . S
C321 H297 0.951 . S
C321 C322 1.366 . S
C321 C323 1.388 . S
C322 C321 1.366 . S
C322 C326 1.385 . S
C323 H298 0.968 . S
C323 C321 1.388 . S
C323 C324 1.366 . S
C324 C323 1.366 . S
C324 C325 1.414 . S
C324 C327 1.499 . S
C325 H299 0.950 . S
C325 C324 1.414 . S
C325 C326 1.374 . S
C326 H300 0.950 . S
C326 C322 1.385 . S
C326 C325 1.374 . S
C327 C324 1.499 . S
C327 C328 1.373 . S
C327 C329 1.389 1_556 S
C328 H301 0.950 . S
C328 C314 1.377 . S
C328 C327 1.373 . S
C329 C313 1.377 . S
C329 C327 1.389 1_554 S
C329 C330 1.524 . S
C330 C329 1.524 . S
C330 C331 1.397 1_554 S
C330 C335 1.363 . S
C331 H302 0.950 . S
C331 C330 1.397 1_556 S
C331 C332 1.334 . S
C332 H303 0.950 . S
C332 C331 1.334 . S
C332 C333 1.287 1_556 S
C333 C332 1.287 1_554 S
C333 C334 1.524 . S
C333 H336 0.999 . S
C334 H304 0.950 . S
C334 C333 1.524 . S
C334 C335 1.415 . S
C335 H305 0.950 . S
C335 C330 1.363 . S
C335 C334 1.415 . S
H336 C333 0.999 . S
H337 C318 0.913 . S
H338 C356 0.951 . S
H339 C358 0.951 1_455 S
H340 C360 0.950 . S
H341 C361 0.950 . S
H342 C363 0.950 . S
H343 C366 0.950 . S
H344 C367 0.950 . S
H345 C369 0.950 . S
H346 C370 0.950 . S
H347 C371 0.951 . S
H348 C373 0.951 1_655 S
H349 C375 0.950 . S
H350 C376 0.950 . S
H351 C378 0.950 . S
H352 C381 0.950 . S
H353 C382 0.950 . S
H354 C384 0.950 . S
H355 C385 0.950 . S
C356 H338 0.951 . S
C356 C357 1.366 . S
C356 C358 1.388 . S
C357 C356 1.366 . S
C357 C361 1.385 . S
C358 H339 0.951 1_655 S
C358 C356 1.388 . S
C358 C359 1.366 . S
C359 C358 1.366 . S
C359 C360 1.414 . S
C359 C362 1.499 . S
C360 H340 0.950 . S
C360 C359 1.414 . S
C360 C361 1.374 . S
C361 H341 0.950 . S
C361 C357 1.385 . S
C361 C360 1.374 . S
C362 C359 1.499 . S
C362 C363 1.373 . S
C362 C364 1.397 1_556 S
C363 H342 0.950 . S
C363 C362 1.373 . S
C363 C379 1.369 1_655 S
C364 C362 1.397 1_554 S
C364 C365 1.525 . S
C364 C378 1.369 1_655 S
C365 C364 1.525 . S
C365 C366 1.397 . S
C365 C370 1.363 1_655 S
C366 H343 0.950 . S
C366 C365 1.397 . S
C366 C367 1.334 . S
C367 H344 0.950 . S
C367 C366 1.334 . S
C367 C368 1.287 . S
C368 C367 1.287 . S
C368 C369 1.524 1_655 S
C368 H387 0.913 . S
C369 H345 0.950 . S
C369 C368 1.524 1_455 S
C369 C370 1.415 . S
C370 H346 0.950 . S
C370 C365 1.363 1_455 S
C370 C369 1.415 . S
C371 H347 0.951 . S
C371 C372 1.366 . S
C371 C373 1.388 . S
C372 C371 1.366 . S
C372 C376 1.385 . S
C373 H348 0.951 1_455 S
C373 C371 1.388 . S
C373 C374 1.366 . S
C374 C373 1.366 . S
C374 C375 1.414 . S
C374 C377 1.499 . S
C375 H349 0.950 . S
C375 C374 1.414 . S
C375 C376 1.374 . S
C376 H350 0.950 . S
C376 C372 1.385 . S
C376 C375 1.374 . S
C377 C374 1.499 . S
C377 C378 1.373 . S
C377 C379 1.397 1_554 S
C378 H351 0.950 . S
C378 C364 1.369 1_455 S
C378 C377 1.373 . S
C379 C363 1.369 1_455 S
C379 C377 1.397 1_556 S
C379 C380 1.525 . S
C380 C379 1.525 . S
C380 C381 1.397 . S
C380 C385 1.363 1_455 S
C381 H352 0.950 . S
C381 C380 1.397 . S
C381 C382 1.334 . S
C382 H353 0.950 . S
C382 C381 1.334 . S
C382 C383 1.287 . S
C383 C382 1.287 . S
C383 C384 1.524 1_455 S
C383 H386 0.999 . S
C384 H354 0.950 . S
C384 C383 1.524 1_655 S
C384 C385 1.415 . S
C385 H355 0.950 . S
C385 C380 1.363 1_655 S
C385 C384 1.415 . S
H386 C383 0.999 . S
H387 C368 0.913 . S
H388 C406 0.951 . S
H389 C408 0.951 . S
H390 C410 0.950 . S
H391 C411 0.950 . S
H392 C413 0.950 . S
H393 C416 0.950 . S
H394 C417 0.950 . S
H395 C419 0.950 . S
H396 C420 0.950 . S
H397 C421 0.951 . S
H398 C423 0.951 . S
H399 C425 0.950 . S
H400 C426 0.950 . S
H401 C428 0.950 . S
H402 C431 0.950 . S
H403 C432 0.950 . S
H404 C434 0.950 . S
H405 C435 0.950 . S
C406 H388 0.951 . S
C406 C407 1.366 . S
C406 C408 1.388 . S
C407 C406 1.366 . S
C407 C411 1.385 . S
C408 H389 0.951 . S
C408 C406 1.388 . S
C408 C409 1.366 . S
C409 C408 1.366 . S
C409 C410 1.414 . S
C409 C412 1.499 . S
C410 H390 0.950 . S
C410 C409 1.414 . S
C410 C411 1.374 . S
C411 H391 0.950 . S
C411 C407 1.385 . S
C411 C410 1.374 . S
C412 C409 1.499 . S
C412 C413 1.373 . S
C412 C414 1.389 . S
C413 H392 0.950 . S
C413 C412 1.373 . S
C413 C429 1.377 1_545 S
C414 C412 1.389 . S
C414 C415 1.524 . S
C414 C428 1.377 1_545 S
C415 C414 1.524 . S
C415 C416 1.397 . S
C415 C420 1.363 . S
C416 H393 0.950 . S
C416 C415 1.397 . S
C416 C417 1.334 . S
C417 H394 0.950 . S
C417 C416 1.334 . S
C417 C418 1.287 . S
C418 C417 1.287 . S
C418 C419 1.524 . S
C418 H437 0.913 . S
C419 H395 0.950 . S
C419 C418 1.524 . S
C419 C420 1.415 . S
C420 H396 0.950 . S
C420 C415 1.363 . S
C420 C419 1.415 . S
C421 H397 0.951 . S
C421 C422 1.366 . S
C421 C423 1.388 . S
C422 C421 1.366 . S
C422 C426 1.385 . S
C423 H398 0.951 . S
C423 C421 1.388 . S
C423 C424 1.366 . S
C424 C423 1.366 . S
C424 C425 1.414 . S
C424 C427 1.499 . S
C425 H399 0.950 . S
C425 C424 1.414 . S
C425 C426 1.374 . S
C426 H400 0.950 . S
C426 C422 1.385 . S
C426 C425 1.374 . S
C427 C424 1.499 . S
C427 C428 1.373 . S
C427 C429 1.389 . S
C428 H401 0.950 . S
C428 C414 1.377 1_565 S
C428 C427 1.373 . S
C429 C413 1.377 1_565 S
C429 C427 1.389 . S
C429 C430 1.524 . S
C430 C429 1.524 . S
C430 C431 1.397 . S
C430 C435 1.363 . S
C431 H402 0.950 . S
C431 C430 1.397 . S
C431 C432 1.334 . S
C432 H403 0.950 . S
C432 C431 1.334 . S
C432 C433 1.287 . S
C433 C432 1.287 . S
C433 C434 1.524 . S
C433 H436 0.999 . S
C434 H404 0.950 . S
C434 C433 1.524 . S
C434 C435 1.415 . S
C435 H405 0.950 . S
C435 C430 1.363 . S
C435 C434 1.415 . S
H436 C433 0.999 . S
H437 C418 0.913 . S
H438 C456 0.951 . S
H439 C458 0.951 . S
H440 C460 0.950 . S
H441 C461 0.950 . S
H442 C463 0.950 . S
H443 C466 0.950 . S
H444 C467 0.950 . S
H445 C469 0.950 . S
H446 C470 0.950 . S
H447 C471 0.951 . S
H448 C473 0.951 . S
H449 C475 0.950 . S
H450 C476 0.950 . S
H451 C478 0.950 . S
H452 C481 0.950 . S
H453 C482 0.950 . S
H454 C484 0.950 . S
H455 C485 0.950 . S
C456 H438 0.951 . S
C456 C457 1.366 . S
C456 C458 1.388 . S
C457 C456 1.366 . S
C457 C461 1.385 . S
C458 H439 0.951 . S
C458 C456 1.388 . S
C458 C459 1.366 . S
C459 C458 1.366 . S
C459 C460 1.414 . S
C459 C462 1.499 . S
C460 H440 0.950 . S
C460 C459 1.414 . S
C460 C461 1.374 . S
C461 H441 0.950 . S
C461 C457 1.385 . S
C461 C460 1.374 . S
C462 C459 1.499 . S
C462 C463 1.373 1_655 S
C462 C464 1.389 . S
C463 H442 0.950 . S
C463 C462 1.373 1_455 S
C463 C479 1.377 1_545 S
C464 C462 1.389 . S
C464 C465 1.524 . S
C464 C478 1.377 1_545 S
C465 C464 1.524 . S
C465 C466 1.397 . S
C465 C470 1.363 . S
C466 H443 0.950 . S
C466 C465 1.397 . S
C466 C467 1.334 . S
C467 H444 0.950 . S
C467 C466 1.334 . S
C467 C468 1.287 . S
C468 C467 1.287 . S
C468 C469 1.524 . S
C468 H487 0.913 . S
C469 H445 0.950 . S
C469 C468 1.524 . S
C469 C470 1.415 . S
C470 H446 0.950 . S
C470 C465 1.363 . S
C470 C469 1.415 . S
C471 H447 0.951 . S
C471 C472 1.366 . S
C471 C473 1.388 . S
C472 C471 1.366 . S
C472 C476 1.385 . S
C473 H448 0.951 . S
C473 C471 1.388 . S
C473 C474 1.366 . S
C474 C473 1.366 . S
C474 C475 1.414 . S
C474 C477 1.499 . S
C475 H449 0.950 . S
C475 C474 1.414 . S
C475 C476 1.374 . S
C476 H450 0.950 . S
C476 C472 1.385 . S
C476 C475 1.374 . S
C477 C474 1.499 . S
C477 C478 1.373 1_455 S
C477 C479 1.389 . S
C478 H451 0.950 . S
C478 C464 1.377 1_565 S
C478 C477 1.373 1_655 S
C479 C463 1.377 1_565 S
C479 C477 1.389 . S
C479 C480 1.524 . S
C480 C479 1.524 . S
C480 C481 1.397 . S
C480 C485 1.363 . S
C481 H452 0.950 . S
C481 C480 1.397 . S
C481 C482 1.334 . S
C482 H453 0.950 . S
C482 C481 1.334 . S
C482 C483 1.287 . S
C483 C482 1.287 . S
C483 C484 1.524 . S
C483 H486 0.999 . S
C484 H454 0.950 . S
C484 C483 1.524 . S
C484 C485 1.415 . S
C485 H455 0.950 . S
C485 C480 1.363 . S
C485 C484 1.415 . S
H486 C483 0.999 . S
H487 C468 0.913 . S
H488 C506 0.951 . S
H489 C508 0.951 . S
H490 C510 0.950 . S
H491 C511 0.950 . S
H492 C513 0.950 . S
H493 C516 0.950 . S
H494 C517 0.950 . S
H495 C519 0.950 . S
H496 C520 0.950 . S
H497 C521 0.951 . S
H498 C523 0.951 . S
H499 C525 0.950 . S
H500 C526 0.950 . S
H501 C528 0.950 . S
H502 C531 0.950 . S
H503 C532 0.950 . S
H504 C534 0.950 . S
H505 C535 0.950 . S
C506 H488 0.951 . S
C506 C507 1.366 . S
C506 C508 1.388 . S
C507 C506 1.366 . S
C507 C511 1.385 . S
C508 H489 0.951 . S
C508 C506 1.388 . S
C508 C509 1.366 . S
C509 C508 1.366 . S
C509 C510 1.414 . S
C509 C512 1.499 . S
C510 H490 0.950 . S
C510 C509 1.414 . S
C510 C511 1.374 . S
C511 H491 0.950 . S
C511 C507 1.385 . S
C511 C510 1.374 . S
C512 C509 1.499 . S
C512 C513 1.373 . S
C512 C514 1.389 . S
C513 H492 0.950 . S
C513 C512 1.373 . S
C513 C529 1.377 . S
C514 C512 1.389 . S
C514 C515 1.524 . S
C514 C528 1.377 . S
C515 C514 1.524 . S
C515 C516 1.397 . S
C515 C520 1.363 . S
C516 H493 0.950 . S
C516 C515 1.397 . S
C516 C517 1.334 . S
C517 H494 0.950 . S
C517 C516 1.334 . S
C517 C518 1.287 . S
C518 C517 1.287 . S
C518 C519 1.524 . S
C518 H537 0.913 . S
C519 H495 0.950 . S
C519 C518 1.524 . S
C519 C520 1.415 . S
C520 H496 0.950 . S
C520 C515 1.363 . S
C520 C519 1.415 . S
C521 H497 0.951 . S
C521 C522 1.366 . S
C521 C523 1.388 . S
C522 C521 1.366 . S
C522 C526 1.385 . S
C523 H498 0.951 . S
C523 C521 1.388 . S
C523 C524 1.366 . S
C524 C523 1.366 . S
C524 C525 1.414 . S
C524 C527 1.499 . S
C525 H499 0.950 . S
C525 C524 1.414 . S
C525 C526 1.374 . S
C526 H500 0.950 . S
C526 C522 1.385 . S
C526 C525 1.374 . S
C527 C524 1.499 . S
C527 C528 1.373 . S
C527 C529 1.389 . S
C528 H501 0.950 . S
C528 C514 1.377 . S
C528 C527 1.373 . S
C529 C513 1.377 . S
C529 C527 1.389 . S
C529 C530 1.524 . S
C530 C529 1.524 . S
C530 C531 1.397 . S
C530 C535 1.363 . S
C531 H502 0.950 . S
C531 C530 1.397 . S
C531 C532 1.334 . S
C532 H503 0.950 . S
C532 C531 1.334 . S
C532 C533 1.287 . S
C533 C532 1.287 . S
C533 C534 1.524 . S
C533 H536 0.999 . S
C534 H504 0.950 . S
C534 C533 1.524 . S
C534 C535 1.415 . S
C535 H505 0.950 . S
C535 C530 1.363 . S
C535 C534 1.415 . S
H536 C533 0.999 . S
H537 C518 0.913 . S
H538 C556 0.951 . S
H539 C558 0.951 . S
H540 C560 0.950 . S
H541 C561 0.950 . S
H542 C563 0.950 . S
H543 C566 0.950 . S
H544 C567 0.950 . S
H545 C569 0.950 . S
H546 C570 0.950 . S
H547 C571 0.951 . S
H548 C573 0.951 . S
H549 C575 0.950 . S
H550 C576 0.950 . S
H551 C578 0.950 . S
H552 C581 0.950 . S
H553 C582 0.950 . S
H554 C584 0.950 . S
H555 C585 0.950 . S
C556 H538 0.951 . S
C556 C557 1.366 . S
C556 C558 1.388 . S
C557 C556 1.366 . S
C557 C561 1.385 . S
C558 H539 0.951 . S
C558 C556 1.388 . S
C558 C559 1.366 . S
C559 C558 1.366 . S
C559 C560 1.414 . S
C559 C562 1.499 . S
C560 H540 0.950 . S
C560 C559 1.414 . S
C560 C561 1.374 . S
C561 H541 0.950 . S
C561 C557 1.385 . S
C561 C560 1.374 . S
C562 C559 1.499 . S
C562 C563 1.373 . S
C562 C564 1.389 . S
C563 H542 0.950 . S
C563 C562 1.373 . S
C563 C579 1.377 . S
C564 C562 1.389 . S
C564 C565 1.524 . S
C564 C578 1.377 . S
C565 C564 1.524 . S
C565 C566 1.397 . S
C565 C570 1.363 . S
C566 H543 0.950 . S
C566 C565 1.397 . S
C566 C567 1.334 . S
C567 H544 0.950 . S
C567 C566 1.334 . S
C567 C568 1.287 1_455 S
C568 C567 1.287 1_655 S
C568 C569 1.524 . S
C568 H587 0.913 . S
C569 H545 0.950 . S
C569 C568 1.524 . S
C569 C570 1.415 1_655 S
C570 H546 0.950 . S
C570 C565 1.363 . S
C570 C569 1.415 1_455 S
C571 H547 0.951 . S
C571 C572 1.366 . S
C571 C573 1.388 . S
C572 C571 1.366 . S
C572 C576 1.385 . S
C573 H548 0.951 . S
C573 C571 1.388 . S
C573 C574 1.366 . S
C574 C573 1.366 . S
C574 C575 1.414 . S
C574 C577 1.499 . S
C575 H549 0.950 . S
C575 C574 1.414 . S
C575 C576 1.374 . S
C576 H550 0.950 . S
C576 C572 1.385 . S
C576 C575 1.374 . S
C577 C574 1.499 . S
C577 C578 1.373 . S
C577 C579 1.389 . S
C578 H551 0.950 . S
C578 C564 1.377 . S
C578 C577 1.373 . S
C579 C563 1.377 . S
C579 C577 1.389 . S
C579 C580 1.524 . S
C580 C579 1.524 . S
C580 C581 1.397 . S
C580 C585 1.363 . S
C581 H552 0.950 . S
C581 C580 1.397 . S
C581 C582 1.334 . S
C582 H553 0.950 . S
C582 C581 1.334 . S
C582 C583 1.287 . S
C583 C582 1.287 . S
C583 C584 1.524 . S
C583 H586 0.999 . S
C584 H554 0.950 . S
C584 C583 1.524 . S
C584 C585 1.415 . S
C585 H555 0.950 . S
C585 C580 1.363 . S
C585 C584 1.415 . S
H586 C583 0.999 . S
H587 C568 0.913 . S
H588 C606 0.951 . S
H589 C608 0.951 . S
H590 C610 0.950 . S
H591 C611 0.950 . S
H592 C613 0.950 . S
H593 C616 0.950 . S
H594 C617 0.950 . S
H595 C619 0.950 . S
H596 C620 0.950 . S
H597 C621 0.951 . S
H598 C623 0.951 . S
H599 C625 0.950 . S
H600 C626 0.950 . S
H601 C628 0.950 . S
H602 C631 0.950 . S
H603 C632 0.950 . S
H604 C634 0.950 . S
H605 C635 0.950 . S
C606 H588 0.951 . S
C606 C607 1.366 . S
C606 C608 1.388 . S
C607 C606 1.366 . S
C607 C611 1.385 . S
C608 H589 0.951 . S
C608 C606 1.388 . S
C608 C609 1.366 . S
C609 C608 1.366 . S
C609 C610 1.414 . S
C609 C612 1.499 . S
C610 H590 0.950 . S
C610 C609 1.414 . S
C610 C611 1.374 . S
C611 H591 0.950 . S
C611 C607 1.385 . S
C611 C610 1.374 . S
C612 C609 1.499 . S
C612 C613 1.373 . S
C612 C614 1.389 . S
C613 H592 0.950 . S
C613 C612 1.373 . S
C613 C629 1.377 . S
C614 C612 1.389 . S
C614 C615 1.524 . S
C614 C628 1.377 . S
C615 C614 1.524 . S
C615 C616 1.397 . S
C615 C620 1.363 . S
C616 H593 0.950 . S
C616 C615 1.397 . S
C616 C617 1.334 . S
C617 H594 0.950 . S
C617 C616 1.334 . S
C617 C618 1.287 . S
C618 C617 1.287 . S
C618 C619 1.524 . S
C618 H637 0.913 . S
C619 H595 0.950 . S
C619 C618 1.524 . S
C619 C620 1.415 . S
C620 H596 0.950 . S
C620 C615 1.363 . S
C620 C619 1.415 . S
C621 H597 0.951 . S
C621 C622 1.366 . S
C621 C623 1.388 . S
C622 C621 1.366 . S
C622 C626 1.385 . S
C623 H598 0.951 . S
C623 C621 1.388 . S
C623 C624 1.366 . S
C624 C623 1.366 . S
C624 C625 1.414 . S
C624 C627 1.499 . S
C625 H599 0.950 . S
C625 C624 1.414 . S
C625 C626 1.374 . S
C626 H600 0.950 . S
C626 C622 1.385 . S
C626 C625 1.374 . S
C627 C624 1.499 . S
C627 C628 1.373 . S
C627 C629 1.389 . S
C628 H601 0.950 . S
C628 C614 1.377 . S
C628 C627 1.373 . S
C629 C613 1.377 . S
C629 C627 1.389 . S
C629 C630 1.524 . S
C630 C629 1.524 . S
C630 C631 1.397 . S
C630 C635 1.363 . S
C631 H602 0.950 . S
C631 C630 1.397 . S
C631 C632 1.334 . S
C632 H603 0.950 . S
C632 C631 1.334 . S
C632 C633 1.287 . S
C633 C632 1.287 . S
C633 C634 1.524 . S
C633 H636 0.999 . S
C634 H604 0.950 . S
C634 C633 1.524 . S
C634 C635 1.415 . S
C635 H605 0.950 . S
C635 C630 1.363 . S
C635 C634 1.415 . S
H636 C633 0.999 . S
H637 C618 0.913 . S
H638 C656 0.951 . S
H639 C658 0.951 . S
H640 C660 0.950 . S
H641 C661 0.950 . S
H642 C663 0.950 . S
H643 C666 0.950 . S
H644 C667 0.950 . S
H645 C669 0.950 . S
H646 C670 0.950 . S
H647 C671 0.951 . S
H648 C673 0.951 . S
H649 C675 0.950 . S
H650 C676 0.950 . S
H651 C678 0.950 . S
H652 C681 0.950 . S
H653 C682 0.950 . S
H654 C684 0.950 . S
H655 C685 0.950 . S
C656 H638 0.951 . S
C656 C657 1.366 . S
C656 C658 1.388 . S
C657 C656 1.366 . S
C657 C661 1.385 . S
C658 H639 0.951 . S
C658 C656 1.388 . S
C658 C659 1.366 . S
C659 C658 1.366 . S
C659 C660 1.414 . S
C659 C662 1.499 . S
C660 H640 0.950 . S
C660 C659 1.414 . S
C660 C661 1.374 . S
C661 H641 0.950 . S
C661 C657 1.385 . S
C661 C660 1.374 . S
C662 C659 1.499 . S
C662 C663 1.373 . S
C662 C664 1.389 . S
C663 H642 0.950 . S
C663 C662 1.373 . S
C663 C679 1.377 . S
C664 C662 1.389 . S
C664 C665 1.524 . S
C664 C678 1.377 . S
C665 C664 1.524 . S
C665 C666 1.397 . S
C665 C670 1.363 . S
C666 H643 0.950 . S
C666 C665 1.397 . S
C666 C667 1.334 . S
C667 H644 0.950 . S
C667 C666 1.334 . S
C667 C668 1.287 1_655 S
C668 C667 1.287 1_455 S
C668 C669 1.524 . S
C668 H687 0.913 . S
C669 H645 0.950 . S
C669 C668 1.524 . S
C669 C670 1.415 1_455 S
C670 H646 0.950 . S
C670 C665 1.363 . S
C670 C669 1.415 1_655 S
C671 H647 0.951 . S
C671 C672 1.366 . S
C671 C673 1.388 . S
C672 C671 1.366 . S
C672 C676 1.385 . S
C673 H648 0.951 . S
C673 C671 1.388 . S
C673 C674 1.366 . S
C674 C673 1.366 . S
C674 C675 1.414 . S
C674 C677 1.499 . S
C675 H649 0.950 . S
C675 C674 1.414 . S
C675 C676 1.374 . S
C676 H650 0.950 . S
C676 C672 1.385 . S
C676 C675 1.374 . S
C677 C674 1.499 . S
C677 C678 1.373 . S
C677 C679 1.389 . S
C678 H651 0.950 . S
C678 C664 1.377 . S
C678 C677 1.373 . S
C679 C663 1.377 . S
C679 C677 1.389 . S
C679 C680 1.524 . S
C680 C679 1.524 . S
C680 C681 1.397 . S
C680 C685 1.363 . S
C681 H652 0.950 . S
C681 C680 1.397 . S
C681 C682 1.334 . S
C682 H653 0.950 . S
C682 C681 1.334 . S
C682 C683 1.287 . S
C683 C682 1.287 . S
C683 C684 1.524 . S
C683 H686 0.999 . S
C684 H654 0.950 . S
C684 C683 1.524 . S
C684 C685 1.415 . S
C685 H655 0.950 . S
C685 C680 1.363 . S
C685 C684 1.415 . S
H686 C683 0.999 . S
H687 C668 0.913 . S
C107 C5 1.459 . S
C122 C16 1.458 . S
C157 C27 1.458 . S
C172 C38 1.458 . S
C207 C60 1.279 . S
C222 C49 1.278 . S
C257 C71 1.280 . S
C272 C82 1.281 . S
C307 C8 1.638 . S
C322 C52 1.596 . S
C357 C63 1.597 . S
C372 C19 1.639 . S
C407 C30 1.639 . S
C422 C74 1.597 . S
C457 C85 1.597 . S
C472 C41 1.639 . S
C507 C29 1.557 . S
C522 C7 1.556 . S
C557 C40 1.557 . S
C572 C18 1.556 . S
C607 C73 1.503 . S
C622 C51 1.503 . S
C657 C84 1.503 . S
C672 C62 1.503 . S
