# Generated by pormake.
# Topology wkl, (6)-cn, num edge types: 1
# Building blocks:
#     Node 0, Type 0, BuildingBlock: OJICUG_clean_sbu_0, # of connection points: 6
#     Node 1, Type 0, BuildingBlock: OJICUG_clean_sbu_0, # of connection points: 6
#     Node 2, Type 0, BuildingBlock: OJICUG_clean_sbu_0, # of connection points: 6
#     Node 3, Type 0, BuildingBlock: OJICUG_clean_sbu_0, # of connection points: 6
#     Node 4, Type 0, BuildingBlock: OJICUG_clean_sbu_0, # of connection points: 6
#     Node 5, Type 0, BuildingBlock: OJICUG_clean_sbu_0, # of connection points: 6
#     Node 6, Type 0, BuildingBlock: OJICUG_clean_sbu_0, # of connection points: 6
#     Node 7, Type 0, BuildingBlock: OJICUG_clean_sbu_0, # of connection points: 6
#     Node 8, Type 0, BuildingBlock: OJICUG_clean_sbu_0, # of connection points: 6
#     Node 9, Type 0, BuildingBlock: OJICUG_clean_sbu_0, # of connection points: 6
#     Node 10, Type 0, BuildingBlock: OJICUG_clean_sbu_0, # of connection points: 6
#     Node 11, Type 0, BuildingBlock: OJICUG_clean_sbu_0, # of connection points: 6
#     Edge 12, Type (0, 0), BuildingBlock: AJUNOK_clean_linker_0, # of connection points: 2
#     Edge 13, Type (0, 0), BuildingBlock: AJUNOK_clean_linker_0, # of connection points: 2
#     Edge 14, Type (0, 0), BuildingBlock: AJUNOK_clean_linker_0, # of connection points: 2
#     Edge 15, Type (0, 0), BuildingBlock: AJUNOK_clean_linker_0, # of connection points: 2
#     Edge 16, Type (0, 0), BuildingBlock: AJUNOK_clean_linker_0, # of connection points: 2
#     Edge 17, Type (0, 0), BuildingBlock: AJUNOK_clean_linker_0, # of connection points: 2
#     Edge 18, Type (0, 0), BuildingBlock: AJUNOK_clean_linker_0, # of connection points: 2
#     Edge 19, Type (0, 0), BuildingBlock: AJUNOK_clean_linker_0, # of connection points: 2
#     Edge 20, Type (0, 0), BuildingBlock: AJUNOK_clean_linker_0, # of connection points: 2
#     Edge 21, Type (0, 0), BuildingBlock: AJUNOK_clean_linker_0, # of connection points: 2
#     Edge 22, Type (0, 0), BuildingBlock: AJUNOK_clean_linker_0, # of connection points: 2
#     Edge 23, Type (0, 0), BuildingBlock: AJUNOK_clean_linker_0, # of connection points: 2
#     Edge 24, Type (0, 0), BuildingBlock: AJUNOK_clean_linker_0, # of connection points: 2
#     Edge 25, Type (0, 0), BuildingBlock: AJUNOK_clean_linker_0, # of connection points: 2
#     Edge 26, Type (0, 0), BuildingBlock: AJUNOK_clean_linker_0, # of connection points: 2
#     Edge 27, Type (0, 0), BuildingBlock: AJUNOK_clean_linker_0, # of connection points: 2
#     Edge 28, Type (0, 0), BuildingBlock: AJUNOK_clean_linker_0, # of connection points: 2
#     Edge 29, Type (0, 0), BuildingBlock: AJUNOK_clean_linker_0, # of connection points: 2
#     Edge 30, Type (0, 0), BuildingBlock: AJUNOK_clean_linker_0, # of connection points: 2
#     Edge 31, Type (0, 0), BuildingBlock: AJUNOK_clean_linker_0, # of connection points: 2
#     Edge 32, Type (0, 0), BuildingBlock: AJUNOK_clean_linker_0, # of connection points: 2
#     Edge 33, Type (0, 0), BuildingBlock: AJUNOK_clean_linker_0, # of connection points: 2
#     Edge 34, Type (0, 0), BuildingBlock: AJUNOK_clean_linker_0, # of connection points: 2
#     Edge 35, Type (0, 0), BuildingBlock: AJUNOK_clean_linker_0, # of connection points: 2
#     Edge 36, Type (0, 0), BuildingBlock: AJUNOK_clean_linker_0, # of connection points: 2
#     Edge 37, Type (0, 0), BuildingBlock: AJUNOK_clean_linker_0, # of connection points: 2
#     Edge 38, Type (0, 0), BuildingBlock: AJUNOK_clean_linker_0, # of connection points: 2
#     Edge 39, Type (0, 0), BuildingBlock: AJUNOK_clean_linker_0, # of connection points: 2
#     Edge 40, Type (0, 0), BuildingBlock: AJUNOK_clean_linker_0, # of connection points: 2
#     Edge 41, Type (0, 0), BuildingBlock: AJUNOK_clean_linker_0, # of connection points: 2
#     Edge 42, Type (0, 0), BuildingBlock: AJUNOK_clean_linker_0, # of connection points: 2
#     Edge 43, Type (0, 0), BuildingBlock: AJUNOK_clean_linker_0, # of connection points: 2
#     Edge 44, Type (0, 0), BuildingBlock: AJUNOK_clean_linker_0, # of connection points: 2
#     Edge 45, Type (0, 0), BuildingBlock: AJUNOK_clean_linker_0, # of connection points: 2
#     Edge 46, Type (0, 0), BuildingBlock: AJUNOK_clean_linker_0, # of connection points: 2
#     Edge 47, Type (0, 0), BuildingBlock: AJUNOK_clean_linker_0, # of connection points: 2
# Relax obj value: 0.345
# Max RMSD: 0.288
# Mean RMSD: 0.288
data_MOF--net-wkl--node1-OJICUG_clean_sbu_0--edge1-AJUNOK_clean_linker_0
_symmetry_space_group_name_H-M    P1
_symmetry_Int_Tables_number       1
_symmetry_cell_setting            triclinic
loop_
_symmetry_equiv_pos_as_xyz
'x, y, z'
_cell_length_a     56.308392
_cell_length_b     56.252114
_cell_length_c     11.692789
_cell_angle_alpha  89.98887
_cell_angle_beta   89.995199
_cell_angle_gamma 120.12422
loop_
_atom_site_label
_atom_site_type_symbol
_atom_site_fract_x
_atom_site_fract_y
_atom_site_fract_z
_atom_type_partial_charge
Sc0 Sc 0.45272 0.08514 0.16232 0.0
Sc1 Sc 0.46803 0.13841 0.97605 0.0
Sc2 Sc 0.40127 0.09761 0.073 0.0
O3 O 0.44067 0.10715 0.07125 0.0
C4 C 0.39699 0.03917 0.06968 0.0
C5 C 0.48679 0.0966 0.92923 0.0
C6 C 0.41553 0.10982 0.81517 0.0
C7 C 0.50313 0.14249 0.20025 0.0
C8 C 0.41094 0.09086 0.32982 0.0
C9 C 0.43437 0.16335 0.06958 0.0
O10 O 0.42258 0.04872 0.08101 0.0
O11 O 0.47868 0.11208 0.88731 0.0
O12 O 0.39956 0.09303 0.89014 0.0
O13 O 0.48365 0.12116 0.24628 0.0
O14 O 0.40269 0.1018 0.25627 0.0
O15 O 0.45785 0.16554 0.06027 0.0
O16 O 0.42528 0.0799 0.30343 0.0
O17 O 0.50163 0.14956 0.09787 0.0
O18 O 0.41202 0.14047 0.06004 0.0
O19 O 0.48212 0.08825 0.03263 0.0
O20 O 0.38556 0.05356 0.08457 0.0
O21 O 0.43858 0.13077 0.84034 0.0
Sc22 Sc 0.35776 0.47367 0.32767 0.0
Sc23 Sc 0.31949 0.48716 0.1347 0.0
Sc24 Sc 0.29438 0.42088 0.23491 0.0
O25 O 0.32392 0.46048 0.23333 0.0
C26 C 0.34872 0.41666 0.24847 0.0
C27 C 0.3798 0.50394 0.08533 0.0
C28 C 0.29457 0.43421 0.97855 0.0
C29 C 0.3528 0.52537 0.3469 0.0
C30 C 0.30976 0.43198 0.49472 0.0
C31 C 0.26164 0.45379 0.23474 0.0
O32 O 0.36461 0.44221 0.26383 0.0
O33 O 0.35615 0.49663 0.04484 0.0
O34 O 0.29728 0.41913 0.05206 0.0
O35 O 0.35312 0.50598 0.40052 0.0
O36 O 0.29119 0.42159 0.41828 0.0
O37 O 0.28267 0.47757 0.22358 0.0
O38 O 0.335 0.44852 0.47251 0.0
O39 O 0.34357 0.52234 0.24543 0.0
O40 O 0.26249 0.43168 0.22344 0.0
O41 O 0.38378 0.5003 0.19004 0.0
O42 O 0.32269 0.40552 0.24627 0.0
O43 O 0.29591 0.45678 1.00497 0.0
Sc44 Sc 0.87286 0.36221 0.46485 0.0
Sc45 Sc 0.82022 0.32879 0.27345 0.0
Sc46 Sc 0.85561 0.29725 0.37338 0.0
O47 O 0.85001 0.32951 0.36935 0.0
C48 C 0.91686 0.34853 0.38825 0.0
C49 C 0.86637 0.38721 0.22537 0.0
C50 C 0.84404 0.29991 0.11671 0.0
C51 C 0.82013 0.36296 0.4916 0.0
C52 C 0.86253 0.31304 0.63143 0.0
C53 C 0.7905 0.27085 0.37623 0.0
O54 O 0.90945 0.36638 0.39527 0.0
O55 O 0.84974 0.36402 0.18174 0.0
O56 O 0.86065 0.30015 0.19093 0.0
O57 O 0.83649 0.35741 0.54256 0.0
O58 O 0.85082 0.29419 0.55678 0.0
O59 O 0.79076 0.29346 0.36454 0.0
O60 O 0.8749 0.33852 0.60655 0.0
O61 O 0.81381 0.35629 0.38718 0.0
O62 O 0.81173 0.2686 0.35997 0.0
O63 O 0.87343 0.38994 0.33073 0.0
O64 O 0.90007 0.32269 0.38919 0.0
O65 O 0.82382 0.30305 0.1432 0.0
Sc66 Sc 0.49563 0.88165 0.64252 0.0
Sc67 Sc 0.48241 0.83034 0.44847 0.0
Sc68 Sc 0.54863 0.87139 0.55142 0.0
O69 O 0.50901 0.86115 0.54856 0.0
C70 C 0.55184 0.92941 0.55409 0.0
C71 C 0.46513 0.87337 0.40144 0.0
C72 C 0.53556 0.85829 0.2938 0.0
C73 C 0.44444 0.82485 0.66268 0.0
C74 C 0.53767 0.87631 0.81038 0.0
C75 C 0.51525 0.8055 0.55307 0.0
O76 O 0.52642 0.91953 0.57288 0.0
O77 O 0.47317 0.85778 0.35933 0.0
O78 O 0.55069 0.87575 0.36831 0.0
O79 O 0.46386 0.8445 0.71691 0.0
O80 O 0.54794 0.86792 0.73459 0.0
O81 O 0.49176 0.80292 0.53602 0.0
O82 O 0.52125 0.88504 0.78716 0.0
O83 O 0.44737 0.81908 0.56027 0.0
O84 O 0.53766 0.82841 0.54388 0.0
O85 O 0.46831 0.8803 0.50689 0.0
O86 O 0.56376 0.91529 0.55955 0.0
O87 O 0.51268 0.83723 0.31863 0.0
Sc88 Sc 0.59684 0.50104 0.79988 0.0
Sc89 Sc 0.63484 0.48532 0.61543 0.0
Sc90 Sc 0.66149 0.55194 0.71435 0.0
O91 O 0.63111 0.51273 0.71109 0.0
C92 C 0.60845 0.55786 0.71063 0.0
C93 C 0.57505 0.46873 0.56213 0.0
C94 C 0.65995 0.53795 0.45693 0.0
C95 C 0.60106 0.44905 0.83296 0.0
C96 C 0.64453 0.54162 0.97107 0.0
C97 C 0.69279 0.51768 0.71541 0.0
O98 O 0.59181 0.53234 0.72203 0.0
O99 O 0.59877 0.47626 0.5227 0.0
O100 O 0.65877 0.55379 0.53136 0.0
O101 O 0.60022 0.46882 0.88112 0.0
O102 O 0.66382 0.55024 0.89774 0.0
O103 O 0.67132 0.49425 0.70513 0.0
O104 O 0.61918 0.52725 0.94424 0.0
O105 O 0.61029 0.45098 0.73162 0.0
O106 O 0.69269 0.54016 0.70294 0.0
O107 O 0.57088 0.47308 0.66537 0.0
O108 O 0.63421 0.56871 0.7256 0.0
O109 O 0.65853 0.51529 0.48347 0.0
Sc110 Sc 0.08048 0.60354 0.98214 0.0
Sc111 Sc 0.13214 0.6385 0.78507 0.0
Sc112 Sc 0.09551 0.66834 0.88781 0.0
O113 O 0.10248 0.63674 0.88555 0.0
C114 C 0.03495 0.61651 0.90872 0.0
C115 C 0.08585 0.57919 0.74033 0.0
C116 C 0.10747 0.66703 0.63092 0.0
C117 C 0.13532 0.60463 0.99795 0.0
C118 C 0.09057 0.65309 0.14767 0.0
C119 C 0.16092 0.69651 0.88766 0.0
O120 O 0.04293 0.59921 0.92158 0.0
O121 O 0.10268 0.60244 0.69723 0.0
O122 O 0.09036 0.66567 0.70505 0.0
O123 O 0.11667 0.60601 0.05285 0.0
O124 O 0.09994 0.67163 0.07085 0.0
O125 O 0.16149 0.67443 0.87296 0.0
O126 O 0.08029 0.62758 0.12621 0.0
O127 O 0.14121 0.61292 0.89519 0.0
O128 O 0.13915 0.69797 0.87505 0.0
O129 O 0.07874 0.57609 0.84569 0.0
O130 O 0.05133 0.64234 0.90288 0.0
O131 O 0.12743 0.66348 0.65613 0.0
Sc132 Sc 0.85938 0.5566 0.83446 0.0
Sc133 Sc 0.82155 0.48848 0.92406 0.0
Sc134 Sc 0.87402 0.50818 0.7317 0.0
O135 O 0.85211 0.51813 0.83246 0.0
C136 C 0.86651 0.54966 0.57474 0.0
C137 C 0.79398 0.51987 0.82877 0.0
C138 C 0.82032 0.45699 0.6945 0.0
C139 C 0.84625 0.5405 0.09019 0.0
C140 C 0.91897 0.56295 0.83355 0.0
C141 C 0.86536 0.47244 0.95918 0.0
O142 O 0.85505 0.55646 0.65128 0.0
O143 O 0.79282 0.49682 0.84072 0.0
O144 O 0.83677 0.47974 0.64872 0.0
O145 O 0.8631 0.55728 0.01737 0.0
O146 O 0.91049 0.53775 0.81366 0.0
O147 O 0.85015 0.48003 1.00851 0.0
O148 O 0.90383 0.57382 0.82551 0.0
O149 O 0.82673 0.51664 0.06296 0.0
O150 O 0.87195 0.47753 0.8537 0.0
O151 O 0.81594 0.54289 0.8437 0.0
O152 O 0.87939 0.53708 0.59793 0.0
O153 O 0.81381 0.45583 0.79973 0.0
Sc154 Sc 0.29062 0.86292 0.98331 0.0
Sc155 Sc 0.32118 0.82654 0.08488 0.0
Sc156 Sc 0.35523 0.8783 0.88645 0.0
O157 O 0.32229 0.85601 0.98453 0.0
C158 C 0.30568 0.86919 0.72392 0.0
C159 C 0.26204 0.79723 0.99069 0.0
C160 C 0.35292 0.82281 0.86426 0.0
C161 C 0.29322 0.85175 0.2416 0.0
C162 C 0.34271 0.92346 0.97045 0.0
C163 C 0.38112 0.87215 0.12185 0.0
O164 O 0.28714 0.85875 0.80025 0.0
O165 O 0.28411 0.79663 1.00503 0.0
O166 O 0.35199 0.84208 0.81206 0.0
O167 O 0.29295 0.86774 0.16572 0.0
O168 O 0.35992 0.91552 0.95346 0.0
O169 O 0.35814 0.85588 0.16799 0.0
O170 O 0.31684 0.90717 0.97171 0.0
O171 O 0.29808 0.83249 0.21879 0.0
O172 O 0.38342 0.87936 0.01704 0.0
O173 O 0.261 0.81936 0.99527 0.0
O174 O 0.33116 0.8797 0.74539 0.0
O175 O 0.34526 0.81682 0.96791 0.0
Sc176 Sc 0.40472 0.30042 0.13479 0.0
Sc177 Sc 0.47 0.32373 0.23907 0.0
Sc178 Sc 0.45902 0.36363 0.0478 0.0
O179 O 0.44449 0.3291 0.13827 0.0
C180 C 0.41671 0.31689 0.87652 0.0
C181 C 0.43689 0.26668 0.13403 0.0
C182 C 0.5098 0.35785 0.03081 0.0
C183 C 0.4171 0.29944 0.39168 0.0
C184 C 0.40321 0.35604 0.13595 0.0
C185 C 0.4887 0.38358 0.29185 0.0
O186 O 0.40587 0.298 0.95158 0.0
O187 O 0.46068 0.28759 0.14692 0.0
O188 O 0.49057 0.35779 0.97418 0.0
O189 O 0.40265 0.30302 0.31802 0.0
O190 O 0.42873 0.37123 0.11807 0.0
O191 O 0.47815 0.35942 0.33188 0.0
O192 O 0.39066 0.32997 0.1267 0.0
O193 O 0.43877 0.29911 0.36435 0.0
O194 O 0.48648 0.38849 0.18674 0.0
O195 O 0.4148 0.26771 0.14389 0.0
O196 O 0.43341 0.34203 0.90103 0.0
O197 O 0.50616 0.34874 0.13288 0.0
Sc198 Sc 0.09285 0.41173 0.33018 0.0
Sc199 Sc 0.12961 0.47896 0.43092 0.0
Sc200 Sc 0.07731 0.46081 0.2359 0.0
O201 O 0.09999 0.45044 0.33186 0.0
C202 C 0.08586 0.42021 0.0723 0.0
C203 C 0.15838 0.44864 0.33537 0.0
C204 C 0.13304 0.51348 0.20664 0.0
C205 C 0.10391 0.4258 0.58902 0.0
C206 C 0.03295 0.40375 0.32738 0.0
C207 C 0.0848 0.49427 0.46782 0.0
O208 O 0.09718 0.41281 0.14728 0.0
O209 O 0.15927 0.47141 0.35158 0.0
O210 O 0.11316 0.49326 0.15667 0.0
O211 O 0.0881 0.40935 0.51294 0.0
O212 O 0.04104 0.42902 0.31248 0.0
O213 O 0.10078 0.48731 0.51432 0.0
O214 O 0.04857 0.39356 0.31803 0.0
O215 O 0.12322 0.45 0.56628 0.0
O216 O 0.07745 0.48908 0.36342 0.0
O217 O 0.13625 0.42549 0.34188 0.0
O218 O 0.07445 0.43425 0.09596 0.0
O219 O 0.13939 0.51223 0.31027 0.0
Sc220 Sc 0.6589 0.10567 0.49007 0.0
Sc221 Sc 0.63237 0.144 0.60253 0.0
Sc222 Sc 0.59412 0.09295 0.40872 0.0
O223 O 0.62853 0.11416 0.49824 0.0
C224 C 0.64152 0.10081 0.23303 0.0
C225 C 0.68882 0.17165 0.49171 0.0
C226 C 0.59622 0.14811 0.40111 0.0
C227 C 0.65928 0.11747 0.74799 0.0
C228 C 0.60557 0.04599 0.47614 0.0
C229 C 0.57382 0.0998 0.65772 0.0
O230 O 0.66077 0.10991 0.30672 0.0
O231 O 0.66708 0.17279 0.50754 0.0
O232 O 0.59755 0.13 0.34159 0.0
O233 O 0.65658 0.09998 0.67299 0.0
O234 O 0.5889 0.05486 0.46776 0.0
O235 O 0.598 0.11432 0.69657 0.0
O236 O 0.63154 0.06163 0.4762 0.0
O237 O 0.65926 0.13932 0.72139 0.0
O238 O 0.56884 0.09286 0.5523 0.0
O239 O 0.68953 0.14933 0.50117 0.0
O240 O 0.61635 0.09158 0.25909 0.0
O241 O 0.60514 0.15325 0.50333 0.0
Sc242 Sc 0.54823 0.67261 0.65952 0.0
Sc243 Sc 0.48179 0.64659 0.76041 0.0
Sc244 Sc 0.4953 0.60987 0.56119 0.0
O245 O 0.50865 0.64298 0.66022 0.0
C246 C 0.53791 0.65842 0.39914 0.0
C247 C 0.51507 0.70505 0.6633 0.0
C248 C 0.44437 0.61585 0.54334 0.0
C249 C 0.53506 0.67184 0.91626 0.0
C250 C 0.55171 0.61771 0.6376 0.0
C251 C 0.46362 0.58586 0.79972 0.0
O252 O 0.5478 0.67674 0.47664 0.0
O253 O 0.4915 0.68382 0.6755 0.0
O254 O 0.46401 0.61619 0.4892 0.0
O255 O 0.55018 0.66941 0.8421 0.0
O256 O 0.52608 0.60202 0.62387 0.0
O257 O 0.47207 0.60925 0.84561 0.0
O258 O 0.56313 0.6438 0.6437 0.0
O259 O 0.51196 0.66942 0.89155 0.0
O260 O 0.46758 0.58295 0.69421 0.0
O261 O 0.53744 0.70464 0.67378 0.0
O262 O 0.52129 0.63312 0.41954 0.0
O263 O 0.44679 0.62329 0.64746 0.0
C264 C 0.41457 0.12442 0.61417 0.0
C265 C 0.40899 0.10333 0.69282 0.0
C266 C 0.41303 0.11958 0.49591 0.0
C267 C 0.40672 0.09373 0.45255 0.0
H268 H 0.42105 0.145 0.64427 0.0
H269 H 0.41852 0.13665 0.43821 0.0
S270 S 0.38923 0.03141 0.62257 0.0
N271 N 0.39532 0.05524 0.71915 0.0
N272 N 0.39352 0.04649 0.49692 0.0
C273 C 0.40016 0.07225 0.53021 0.0
C274 C 0.40099 0.07696 0.65044 0.0
C275 C 0.31361 0.42193 0.81206 0.0
C276 C 0.29388 0.4278 0.85609 0.0
C277 C 0.31778 0.42195 0.69389 0.0
C278 C 0.30178 0.42699 0.6161 0.0
H279 H 0.3272 0.41921 0.8693 0.0
H280 H 0.33429 0.41901 0.66325 0.0
S281 S 0.24582 0.44095 0.68818 0.0
N282 N 0.25725 0.43732 0.81339 0.0
N283 N 0.2643 0.4362 0.5908 0.0
C284 C 0.28077 0.43106 0.65888 0.0
C285 C 0.27704 0.43179 0.77919 0.0
C286 C 0.83322 0.28726 0.79786 0.0
C287 C 0.85939 0.3057 0.75378 0.0
C288 C 0.82852 0.28443 0.9163 0.0
C289 C 0.85001 0.29928 0.9942 0.0
H290 H 0.81591 0.27635 0.74061 0.0
H291 H 0.80778 0.27123 0.9471 0.0
S292 S 0.9227 0.34848 0.92155 0.0
N293 N 0.90725 0.33797 0.79649 0.0
N294 N 0.89869 0.33186 0.01893 0.0
C295 C 0.87659 0.31647 0.95101 0.0
C296 C 0.88121 0.31989 0.83071 0.0
C297 C 0.54637 0.88969 0.12857 0.0
C298 C 0.5421 0.86452 0.17181 0.0
C299 C 0.54622 0.89393 1.01052 0.0
C300 C 0.54264 0.87345 0.93205 0.0
H301 H 0.5479 0.90547 0.18634 0.0
H302 H 0.54796 0.91296 0.98053 0.0
S303 S 0.53318 0.80492 1.0024 0.0
N304 N 0.5356 0.81944 0.128 0.0
N305 N 0.53656 0.82783 0.90563 0.0
C306 C 0.54019 0.8489 0.97422 0.0
C307 C 0.53956 0.84431 0.09442 0.0
C308 C 0.67143 0.53985 0.13693 0.0
C309 C 0.65157 0.5457 0.09396 0.0
C310 C 0.67502 0.53858 0.25516 0.0
C311 C 0.65953 0.54403 0.33421 0.0
H312 H 0.68309 0.53457 0.07898 0.0
H313 H 0.68942 0.5325 0.28496 0.0
S314 S 0.60649 0.56248 0.26496 0.0
N315 N 0.61715 0.5582 0.1391 0.0
N316 N 0.62465 0.55694 0.36115 0.0
C317 C 0.64077 0.55148 0.29213 0.0
C318 C 0.63658 0.55201 0.17196 0.0
C319 C 0.0761 0.65045 0.46387 0.0
C320 C 0.1022 0.66869 0.50876 0.0
C321 C 0.07206 0.6465 0.34559 0.0
C322 C 0.0938 0.66127 0.26869 0.0
H323 H 0.05919 0.63769 0.52053 0.0
H324 H 0.0521 0.63101 0.31422 0.0
S325 S 0.16535 0.71338 0.34311 0.0
N326 N 0.14965 0.70281 0.46774 0.0
N327 N 0.14176 0.6962 0.24491 0.0
C328 C 0.11949 0.68098 0.31222 0.0
C329 C 0.12378 0.68447 0.43262 0.0
C330 C 0.8783 0.55823 0.25569 0.0
C331 C 0.85148 0.54745 0.21287 0.0
C332 C 0.88336 0.56047 0.37372 0.0
C333 C 0.86193 0.55288 0.45281 0.0
H334 H 0.89524 0.56332 0.19787 0.0
H335 H 0.90401 0.5672 0.40343 0.0
S336 S 0.78854 0.52623 0.38403 0.0
N337 N 0.80354 0.53072 0.25808 0.0
N338 N 0.81323 0.53603 0.48009 0.0
C339 C 0.83534 0.54385 0.41091 0.0
C340 C 0.83005 0.54081 0.29079 0.0
C341 C 0.28005 0.83998 0.55846 0.0
C342 C 0.29764 0.8663 0.60302 0.0
C343 C 0.27727 0.83557 0.44007 0.0
C344 C 0.29135 0.85749 0.36304 0.0
H345 H 0.27002 0.8224 0.61511 0.0
H346 H 0.26502 0.81473 0.40856 0.0
S347 S 0.33732 0.93075 0.43805 0.0
N348 N 0.32771 0.91479 0.56256 0.0
N349 N 0.32161 0.90675 0.33975 0.0
C350 C 0.30726 0.88421 0.40692 0.0
C351 C 0.31067 0.88856 0.52726 0.0
C352 C 0.40877 0.32629 0.67538 0.0
C353 C 0.41188 0.30919 0.75438 0.0
C354 C 0.40812 0.3215 0.55735 0.0
C355 C 0.4114 0.29995 0.51446 0.0
H356 H 0.40764 0.34395 0.7049 0.0
H357 H 0.40686 0.33583 0.49919 0.0
S358 S 0.4188 0.24857 0.68546 0.0
N359 N 0.41649 0.26883 0.78166 0.0
N360 N 0.41652 0.26063 0.55956 0.0
C361 C 0.41355 0.28216 0.5925 0.0
C362 C 0.41343 0.28656 0.71265 0.0
C363 C 0.11499 0.42369 0.9064 0.0
C364 C 0.08878 0.4155 0.95064 0.0
C365 C 0.11956 0.42547 0.78804 0.0
C366 C 0.0979 0.41827 0.71056 0.0
H367 H 0.13242 0.43065 0.96337 0.0
H368 H 0.14035 0.4336 0.75695 0.0
S369 S 0.02496 0.39272 0.78411 0.0
N370 N 0.04063 0.39838 0.90897 0.0
N371 N 0.04897 0.40063 0.68629 0.0
C372 C 0.07125 0.4081 0.75395 0.0
C373 C 0.06675 0.40702 0.87427 0.0
C374 C 0.67495 0.13157 0.94889 0.0
C375 C 0.65826 0.11087 0.87063 0.0
C376 C 0.67053 0.12745 0.06713 0.0
C377 C 0.64868 0.10284 0.11059 0.0
H378 H 0.69089 0.15141 0.91827 0.0
H379 H 0.68325 0.14423 0.1244 0.0
S380 S 0.59999 0.04184 0.94192 0.0
N381 N 0.62016 0.06433 0.84512 0.0
N382 N 0.61119 0.05699 0.06715 0.0
C383 C 0.6325 0.08166 0.03354 0.0
C384 C 0.63748 0.08556 0.91348 0.0
C385 C 0.54965 0.65128 0.20202 0.0
C386 C 0.54348 0.66671 0.27843 0.0
C387 C 0.54945 0.65498 0.08361 0.0
C388 C 0.54223 0.67362 0.03819 0.0
H389 H 0.55346 0.63541 0.23392 0.0
H390 H 0.55291 0.64169 0.02741 0.0
S391 S 0.52646 0.72038 0.2024 0.0
N392 N 0.53223 0.70288 0.30116 0.0
N393 N 0.53076 0.70907 0.07809 0.0
C394 C 0.53743 0.69017 0.11378 0.0
C395 C 0.53836 0.68692 0.2343 0.0
C396 C 0.39216 -0.00045 0.96036 0.0
C397 C 0.38048 0.01022 0.03593 0.0
C398 C 0.37909 0.97155 0.93652 0.0
C399 C 0.35383 0.9531 0.98752 0.0
H400 H 0.41194 0.01289 0.92112 0.0
H401 H 0.38922 0.96425 0.87946 0.0
S402 S 0.31407 0.97091 0.18788 0.0
N403 N 0.34175 0.00065 0.15816 0.0
N404 N 0.31694 0.94751 0.11343 0.0
C405 C 0.34122 0.9636 0.05932 0.0
C406 C 0.35462 -0.00767 0.08353 0.0
C407 C 0.36138 0.36086 0.13464 0.0
C408 C 0.38813 0.36968 0.17361 0.0
C409 C 0.34818 0.37564 0.16233 0.0
C410 C 0.36137 0.39953 0.23007 0.0
H411 H 0.35105 0.34312 0.07906 0.0
H412 H 0.32799 0.3689 0.12706 0.0
S413 S 0.42955 0.428 0.36939 0.0
N414 N 0.42598 0.40158 0.2943 0.0
N415 N 0.40124 0.4292 0.3468 0.0
C416 C 0.38746 0.40746 0.275 0.0
C417 C 0.40083 0.39255 0.24665 0.0
C418 C -0.01312 0.36256 0.29306 0.0
C419 C 0.0041 0.38602 0.35813 0.0
C420 C 0.95826 0.34908 0.30734 0.0
C421 C 0.94649 0.35889 0.38687 0.0
H422 H -0.0046 0.35573 0.22623 0.0
H423 H 0.9453 0.33208 0.25148 0.0
S424 S -0.01658 0.41627 0.5919 0.0
N425 N 0.00786 0.41613 0.51442 0.0
N426 N 0.95427 0.39075 0.54231 0.0
C427 C 0.96376 0.38089 0.45852 0.0
C428 C -0.00739 0.39451 0.44381 0.0
C429 C 0.59326 0.97628 0.57145 0.0
C430 C 0.56757 0.95852 0.52194 0.0
C431 C 0.60623 0.00476 0.55296 0.0
C432 C 0.59379 0.01605 0.48451 0.0
H433 H 0.60268 0.96828 0.62883 0.0
H434 H 0.62542 0.01805 0.59639 0.0
S435 S 0.52912 0.97742 0.31923 0.0
N436 N 0.53198 0.95364 0.39041 0.0
N437 N 0.55629 0.00694 0.3551 0.0
C438 C 0.56904 -0.00181 0.4286 0.0
C439 C 0.55593 0.96943 0.44747 0.0
C440 C 0.60569 0.6006 0.73389 0.0
C441 C 0.59682 0.5752 0.67968 0.0
C442 C 0.59173 0.61512 0.71655 0.0
C443 C 0.56862 0.60456 0.64453 0.0
H444 H 0.62259 0.60858 0.79409 0.0
H445 H 0.59824 0.63399 0.76364 0.0
S446 S 0.5409 0.54154 0.46638 0.0
N447 N 0.56613 0.54201 0.54001 0.0
N448 N 0.54005 0.56924 0.50655 0.0
C449 C 0.56094 0.58018 0.58375 0.0
C450 C 0.57502 0.56549 0.60158 0.0
C451 C -0.00593 0.61713 0.82799 0.0
C452 C 0.00518 0.60567 0.90297 0.0
C453 C 0.96558 0.60425 0.8106 0.0
C454 C 0.94773 0.57972 0.86811 0.0
H455 H 0.00748 0.63522 0.77811 0.0
H456 H 0.95768 0.61255 0.74724 0.0
S457 S 0.96623 0.54472 0.08954 0.0
N458 N -0.00414 0.57081 0.0471 0.0
N459 N 0.94253 0.54666 1.01369 0.0
C460 C 0.95847 0.5694 0.94961 0.0
C461 C -0.01279 0.58238 0.96727 0.0
C462 C 0.50528 0.07209 0.81129 0.0
C463 C 0.50894 0.0959 0.86655 0.0
C464 C 0.52635 0.07305 0.74278 0.0
C465 C 0.55165 0.09763 0.73136 0.0
H466 H 0.48592 0.05301 0.81846 0.0
H467 H 0.52292 0.05462 0.699 0.0
S468 S 0.57026 0.16556 0.855 0.0
N469 N 0.5387 0.14466 0.90014 0.0
N470 N 0.57867 0.14624 0.77871 0.0
C471 C 0.55538 0.1213 0.78792 0.0
C472 C 0.53388 0.12048 0.85373 0.0
C473 C 0.42764 0.54258 0.05863 0.0
C474 C 0.40365 0.52079 1.01103 0.0
C475 C 0.44799 0.56269 0.98875 0.0
C476 C 0.44528 0.56146 0.86887 0.0
H477 H 0.42985 0.54527 0.15053 0.0
H478 H 0.46534 0.58006 0.02919 0.0
S479 S 0.38815 0.50624 0.7019 0.0
N480 N 0.37966 0.49739 0.83685 0.0
N481 N 0.41806 0.53508 0.70531 0.0
C482 C 0.42249 0.53851 0.81997 0.0
C483 C 0.40161 0.5182 0.8912 0.0
C484 C 0.87354 0.45539 0.14377 0.0
C485 C 0.87214 0.45392 0.02353 0.0
C486 C 0.87428 0.43486 0.2089 0.0
C487 C 0.87322 0.41187 0.15621 0.0
H488 H 0.87272 0.47186 0.18826 0.0
H489 H 0.87358 0.43603 0.30112 0.0
S490 S 0.87332 0.40007 0.84401 0.0
N491 N 0.87288 0.42913 0.85423 0.0
N492 N 0.87396 0.3904 0.97679 0.0
C493 C 0.87398 0.41122 0.03602 0.0
C494 C 0.87355 0.4323 0.96959 0.0
C495 C 0.42561 0.88118 0.37787 0.0
C496 C 0.44771 0.87988 0.32868 0.0
C497 C 0.40499 0.8807 0.30942 0.0
C498 C 0.406 0.87939 0.18943 0.0
H499 H 0.42309 0.88048 0.46991 0.0
H500 H 0.38739 0.87988 0.35101 0.0
S501 S 0.46182 0.87993 0.01855 0.0
N502 N 0.47114 0.88049 0.15288 0.0
N503 N 0.43246 0.87982 0.02401 0.0
C504 C 0.42923 0.88057 0.13895 0.0
C505 C 0.45007 0.88072 0.20873 0.0
C506 C 0.53195 0.45167 0.44572 0.0
C507 C 0.55213 0.44738 0.49656 0.0
C508 C 0.51116 0.43103 0.37776 0.0
C509 C 0.50971 0.40549 0.36334 0.0
H510 H 0.53266 0.47115 0.4563 0.0
H511 H 0.4961 0.43489 0.33746 0.0
S512 S 0.55832 0.38498 0.47726 0.0
N513 N 0.57029 0.41674 0.52284 0.0
N514 N 0.53023 0.37731 0.40495 0.0
C515 C 0.52959 0.40108 0.41595 0.0
C516 C 0.5511 0.42224 0.48014 0.0
C517 C 0.07646 0.5105 0.65376 0.0
C518 C 0.0781 0.51253 0.53375 0.0
C519 C 0.0763 0.5311 0.72049 0.0
C520 C 0.07831 0.55468 0.66943 0.0
H521 H 0.07675 0.49358 0.69674 0.0
H522 H 0.07681 0.52951 0.81271 0.0
S523 S 0.07949 0.56821 0.3582 0.0
N524 N 0.07876 0.53854 0.36616 0.0
N525 N 0.07881 0.57742 0.49171 0.0
C526 C 0.07781 0.55593 0.54932 0.0
C527 C 0.07759 0.53478 0.48135 0.0
C528 C 0.45657 0.21171 0.13563 0.0
C529 C 0.43346 0.18879 0.08862 0.0
C530 C 0.45737 0.2367 0.14927 0.0
C531 C 0.43508 0.23985 0.1166 0.0
H532 H 0.47432 0.21042 0.16232 0.0
H533 H 0.47565 0.25362 0.1867 0.0
S534 S 0.36996 0.18642 0.98549 0.0
N535 N 0.38782 0.17084 1.00713 0.0
N536 N 0.38933 0.21811 0.03312 0.0
C537 C 0.41171 0.2171 0.06982 0.0
C538 C 0.41088 0.1915 0.05587 0.0
C539 C 0.20951 0.47264 0.33661 0.0
C540 C 0.18429 0.44916 0.30945 0.0
C541 C 0.2344 0.4739 0.31221 0.0
C542 C 0.23502 0.45174 0.25983 0.0
H543 H 0.21011 0.49018 0.37784 0.0
H544 H 0.25328 0.49234 0.33556 0.0
S545 S 0.17476 0.38618 0.16494 0.0
N546 N 0.16146 0.40362 0.22311 0.0
N547 N 0.20833 0.406 0.17742 0.0
C548 C 0.20998 0.42818 0.23145 0.0
C549 C 0.1846 0.42689 0.25619 0.0
C550 C 0.73686 0.19597 0.41775 0.0
C551 C 0.71446 0.19728 0.46368 0.0
C552 C 0.76134 0.21985 0.38992 0.0
C553 C 0.76439 0.246 0.40682 0.0
H554 H 0.73546 0.17632 0.40206 0.0
H555 H 0.77789 0.21771 0.35387 0.0
S556 S 0.71245 0.26082 0.53102 0.0
N557 N 0.69724 0.22698 0.52898 0.0
N558 N 0.74328 0.27187 0.47666 0.0
C559 C 0.74225 0.24767 0.45383 0.0
C560 C 0.7173 0.22332 0.48221 0.0
C561 C 0.49397 0.75467 0.55213 0.0
C562 C 0.51636 0.78051 0.58099 0.0
C563 C 0.49393 0.73049 0.57877 0.0
C564 C 0.51628 0.73116 0.63525 0.0
H565 H 0.47629 0.753 0.50793 0.0
H566 H 0.47624 0.71111 0.55408 0.0
S567 S 0.57942 0.79344 0.73478 0.0
N568 N 0.5612 0.80537 0.67235 0.0
N569 N 0.56112 0.75967 0.72235 0.0
C570 C 0.53886 0.75681 0.66479 0.0
C571 C 0.5389 0.78155 0.63772 0.0
C572 C 0.74296 0.49698 0.8251 0.0
C573 C 0.7686 0.51989 0.79836 0.0
C574 C 0.71857 0.49645 0.79757 0.0
C575 C 0.71892 0.51882 0.74221 0.0
H576 H 0.74167 0.47939 0.8689 0.0
H577 H 0.6993 0.47848 0.82119 0.0
S578 S 0.78071 0.58267 0.64396 0.0
N579 N 0.79294 0.56482 0.70715 0.0
N580 N 0.747 0.56386 0.65539 0.0
C581 C 0.74441 0.54169 0.71312 0.0
C582 C 0.76928 0.54222 0.74117 0.0
C583 C 0.18951 0.74757 0.89388 0.0
C584 C 0.18672 0.72176 0.91676 0.0
C585 C 0.21391 0.77183 0.91857 0.0
C586 C 0.23643 0.77121 0.96728 0.0
H587 H 0.17288 0.74913 0.855 0.0
H588 H 0.21517 0.79121 0.89781 0.0
S589 S 0.23877 0.70879 0.05252 0.0
N590 N 0.20794 0.69693 0.99675 0.0
N591 N 0.25386 0.74257 0.04328 0.0
C592 C 0.23374 0.7455 0.99263 0.0
C593 C 0.20888 0.72078 0.96738 0.0
C594 C 0.55387 0.16225 0.19362 0.0
C595 C 0.53013 0.15484 0.2586 0.0
C596 C 0.57693 0.16294 0.24289 0.0
C597 C 0.57742 0.15744 0.35986 0.0
H598 H 0.55367 0.16471 0.10228 0.0
H599 H 0.59355 0.16566 0.18752 0.0
S600 S 0.52335 0.14448 0.57262 0.0
N601 N 0.51051 0.14707 0.44938 0.0
N602 N 0.55424 0.14957 0.54313 0.0
C603 C 0.55547 0.15413 0.42864 0.0
C604 C 0.53171 0.15263 0.3778 0.0
C605 C 0.3725 0.55702 0.51315 0.0
C606 C 0.37012 0.55332 0.39382 0.0
C607 C 0.39528 0.57981 0.56201 0.0
C608 C 0.4167 0.59932 0.49301 0.0
H609 H 0.35791 0.541 0.5693 0.0
H610 H 0.39749 0.58042 0.65421 0.0
S611 S 0.41798 0.60164 0.17615 0.0
N612 N 0.38904 0.57329 0.20783 0.0
N613 N 0.43214 0.61576 0.29997 0.0
C614 C 0.41306 0.59746 0.37379 0.0
C615 C 0.38964 0.57452 0.32399 0.0
C616 C 0.79407 0.38495 0.57289 0.0
C617 C 0.8188 0.38658 0.53832 0.0
C618 C 0.79421 0.40769 0.62511 0.0
C619 C 0.81899 0.43266 0.64036 0.0
H620 H 0.77478 0.36596 0.56207 0.0
H621 H 0.77499 0.40583 0.65264 0.0
S622 S 0.88904 0.44685 0.5654 0.0
N623 N 0.86846 0.41468 0.52704 0.0
N624 N 0.86865 0.45735 0.61725 0.0
C625 C 0.84361 0.43434 0.60445 0.0
C626 C 0.84352 0.41131 0.55528 0.0
C627 C 0.38994 0.81124 0.87994 0.0
C628 C 0.37004 0.81265 0.81209 0.0
C629 C 0.41298 0.81209 0.82991 0.0
C630 C 0.41655 0.81377 0.7105 0.0
H631 H 0.38934 0.81253 0.97227 0.0
H632 H 0.42919 0.8138 0.88534 0.0
S633 S 0.36741 0.81237 0.49533 0.0
N634 N 0.35324 0.81168 0.61988 0.0
N635 N 0.39617 0.8126 0.52547 0.0
C636 C 0.39508 0.81168 0.64165 0.0
C637 C 0.37188 0.81131 0.69266 0.0
C638 C 0.56604 0.39927 0.81958 0.0
C639 C 0.58459 0.42167 0.88691 0.0
C640 C 0.5429 0.37678 0.86832 0.0
C641 C 0.53805 0.37548 0.98674 0.0
H642 H 0.56774 0.40036 0.72778 0.0
H643 H 0.52762 0.36141 0.81203 0.0
S644 S 0.58415 0.42587 0.20283 0.0
N645 N 0.59916 0.43906 0.07923 0.0
N646 N 0.55634 0.39638 0.17189 0.0
C647 C 0.55848 0.39594 0.05637 0.0
C648 C 0.58165 0.41914 1.00624 0.0
C649 C 0.14689 0.56285 0.21772 0.0
C650 C 0.14395 0.54062 0.15163 0.0
C651 C 0.14714 0.58544 0.166 0.0
C652 C 0.14507 0.58681 0.04657 0.0
H653 H 0.14602 0.56152 0.31023 0.0
H654 H 0.14666 0.6008 0.22032 0.0
S655 S 0.14257 0.5364 0.83514 0.0
N656 N 0.14302 0.52318 0.96068 0.0
N657 N 0.14416 0.56595 0.86303 0.0
C658 C 0.14557 0.56634 0.97914 0.0
C659 C 0.14481 0.54312 0.03192 0.0
loop_
_geom_bond_atom_site_label_1
_geom_bond_atom_site_label_2
_geom_bond_distance
_geom_bond_site_symmetry_2
_ccdc_geom_bond_type
Sc0 O3 2.025 . S
Sc0 O10 2.105 . S
Sc0 O13 2.105 . S
Sc0 O16 2.105 . S
Sc0 O19 2.105 1_554 S
Sc1 O3 2.025 1_556 S
Sc1 O11 2.105 . S
Sc1 O15 2.105 1_556 S
Sc1 O17 2.105 1_556 S
Sc1 O21 2.105 . S
Sc2 O3 2.025 . S
Sc2 O12 2.105 1_554 S
Sc2 O14 2.105 . S
Sc2 O18 2.105 . S
Sc2 O20 2.105 1_554 S
O3 Sc0 2.025 . S
O3 Sc1 2.025 1_554 S
O3 Sc2 2.025 . S
C4 O10 1.268 1_556 S
C4 O20 1.268 . S
C5 O11 1.268 . S
C5 O19 1.268 . S
C6 O12 1.268 . S
C6 O21 1.268 . S
C7 O13 1.268 . S
C7 O17 1.268 . S
C8 O14 1.268 . S
C8 O16 1.268 . S
C9 O15 1.268 . S
C9 O18 1.268 . S
O10 Sc0 2.105 . S
O10 C4 1.268 1_554 S
O11 Sc1 2.105 . S
O11 C5 1.268 . S
O12 Sc2 2.105 1_556 S
O12 C6 1.268 . S
O13 Sc0 2.105 . S
O13 C7 1.268 . S
O14 Sc2 2.105 . S
O14 C8 1.268 . S
O15 Sc1 2.105 1_554 S
O15 C9 1.268 . S
O16 Sc0 2.105 . S
O16 C8 1.268 . S
O17 Sc1 2.105 1_554 S
O17 C7 1.268 . S
O18 Sc2 2.105 . S
O18 C9 1.268 . S
O19 Sc0 2.105 1_556 S
O19 C5 1.268 . S
O20 Sc2 2.105 1_556 S
O20 C4 1.268 . S
O21 Sc1 2.105 . S
O21 C6 1.268 . S
Sc22 O25 2.025 . S
Sc22 O32 2.105 . S
Sc22 O35 2.105 . S
Sc22 O38 2.105 . S
Sc22 O41 2.105 . S
Sc23 O25 2.025 . S
Sc23 O33 2.105 . S
Sc23 O37 2.105 . S
Sc23 O39 2.105 . S
Sc23 O43 2.105 1_554 S
Sc24 O25 2.025 . S
Sc24 O34 2.105 . S
Sc24 O36 2.105 . S
Sc24 O40 2.105 . S
Sc24 O42 2.105 . S
O25 Sc22 2.025 . S
O25 Sc23 2.025 . S
O25 Sc24 2.025 . S
C26 O32 1.268 . S
C26 O42 1.268 . S
C27 O33 1.268 . S
C27 O41 1.268 . S
C28 O34 1.268 1_556 S
C28 O43 1.268 . S
C29 O35 1.268 . S
C29 O39 1.268 . S
C30 O36 1.268 . S
C30 O38 1.268 . S
C31 O37 1.268 . S
C31 O40 1.268 . S
O32 Sc22 2.105 . S
O32 C26 1.268 . S
O33 Sc23 2.105 . S
O33 C27 1.268 . S
O34 Sc24 2.105 . S
O34 C28 1.268 1_554 S
O35 Sc22 2.105 . S
O35 C29 1.268 . S
O36 Sc24 2.105 . S
O36 C30 1.268 . S
O37 Sc23 2.105 . S
O37 C31 1.268 . S
O38 Sc22 2.105 . S
O38 C30 1.268 . S
O39 Sc23 2.105 . S
O39 C29 1.268 . S
O40 Sc24 2.105 . S
O40 C31 1.268 . S
O41 Sc22 2.105 . S
O41 C27 1.268 . S
O42 Sc24 2.105 . S
O42 C26 1.268 . S
O43 Sc23 2.105 1_556 S
O43 C28 1.268 . S
Sc44 O47 2.025 . S
Sc44 O54 2.105 . S
Sc44 O57 2.105 . S
Sc44 O60 2.105 . S
Sc44 O63 2.105 . S
Sc45 O47 2.025 . S
Sc45 O55 2.105 . S
Sc45 O59 2.105 . S
Sc45 O61 2.105 . S
Sc45 O65 2.105 . S
Sc46 O47 2.025 . S
Sc46 O56 2.105 . S
Sc46 O58 2.105 . S
Sc46 O62 2.105 . S
Sc46 O64 2.105 . S
O47 Sc44 2.025 . S
O47 Sc45 2.025 . S
O47 Sc46 2.025 . S
C48 O54 1.268 . S
C48 O64 1.268 . S
C49 O55 1.268 . S
C49 O63 1.268 . S
C50 O56 1.268 . S
C50 O65 1.268 . S
C51 O57 1.268 . S
C51 O61 1.268 . S
C52 O58 1.268 . S
C52 O60 1.268 . S
C53 O59 1.268 . S
C53 O62 1.268 . S
O54 Sc44 2.105 . S
O54 C48 1.268 . S
O55 Sc45 2.105 . S
O55 C49 1.268 . S
O56 Sc46 2.105 . S
O56 C50 1.268 . S
O57 Sc44 2.105 . S
O57 C51 1.268 . S
O58 Sc46 2.105 . S
O58 C52 1.268 . S
O59 Sc45 2.105 . S
O59 C53 1.268 . S
O60 Sc44 2.105 . S
O60 C52 1.268 . S
O61 Sc45 2.105 . S
O61 C51 1.268 . S
O62 Sc46 2.105 . S
O62 C53 1.268 . S
O63 Sc44 2.105 . S
O63 C49 1.268 . S
O64 Sc46 2.105 . S
O64 C48 1.268 . S
O65 Sc45 2.105 . S
O65 C50 1.268 . S
Sc66 O69 2.025 . S
Sc66 O76 2.105 . S
Sc66 O79 2.105 . S
Sc66 O82 2.105 . S
Sc66 O85 2.105 . S
Sc67 O69 2.025 . S
Sc67 O77 2.105 . S
Sc67 O81 2.105 . S
Sc67 O83 2.105 . S
Sc67 O87 2.105 . S
Sc68 O69 2.025 . S
Sc68 O78 2.105 . S
Sc68 O80 2.105 . S
Sc68 O84 2.105 . S
Sc68 O86 2.105 . S
O69 Sc66 2.025 . S
O69 Sc67 2.025 . S
O69 Sc68 2.025 . S
C70 O76 1.268 . S
C70 O86 1.268 . S
C71 O77 1.268 . S
C71 O85 1.268 . S
C72 O78 1.268 . S
C72 O87 1.268 . S
C73 O79 1.268 . S
C73 O83 1.268 . S
C74 O80 1.268 . S
C74 O82 1.268 . S
C75 O81 1.268 . S
C75 O84 1.268 . S
O76 Sc66 2.105 . S
O76 C70 1.268 . S
O77 Sc67 2.105 . S
O77 C71 1.268 . S
O78 Sc68 2.105 . S
O78 C72 1.268 . S
O79 Sc66 2.105 . S
O79 C73 1.268 . S
O80 Sc68 2.105 . S
O80 C74 1.268 . S
O81 Sc67 2.105 . S
O81 C75 1.268 . S
O82 Sc66 2.105 . S
O82 C74 1.268 . S
O83 Sc67 2.105 . S
O83 C73 1.268 . S
O84 Sc68 2.105 . S
O84 C75 1.268 . S
O85 Sc66 2.105 . S
O85 C71 1.268 . S
O86 Sc68 2.105 . S
O86 C70 1.268 . S
O87 Sc67 2.105 . S
O87 C72 1.268 . S
Sc88 O91 2.025 . S
Sc88 O98 2.105 . S
Sc88 O101 2.105 . S
Sc88 O104 2.105 . S
Sc88 O107 2.105 . S
Sc89 O91 2.025 . S
Sc89 O99 2.105 . S
Sc89 O103 2.105 . S
Sc89 O105 2.105 . S
Sc89 O109 2.105 . S
Sc90 O91 2.025 . S
Sc90 O100 2.105 . S
Sc90 O102 2.105 . S
Sc90 O106 2.105 . S
Sc90 O108 2.105 . S
O91 Sc88 2.025 . S
O91 Sc89 2.025 . S
O91 Sc90 2.025 . S
C92 O98 1.268 . S
C92 O108 1.268 . S
C93 O99 1.268 . S
C93 O107 1.268 . S
C94 O100 1.268 . S
C94 O109 1.268 . S
C95 O101 1.268 . S
C95 O105 1.268 . S
C96 O102 1.268 . S
C96 O104 1.268 . S
C97 O103 1.268 . S
C97 O106 1.268 . S
O98 Sc88 2.105 . S
O98 C92 1.268 . S
O99 Sc89 2.105 . S
O99 C93 1.268 . S
O100 Sc90 2.105 . S
O100 C94 1.268 . S
O101 Sc88 2.105 . S
O101 C95 1.268 . S
O102 Sc90 2.105 . S
O102 C96 1.268 . S
O103 Sc89 2.105 . S
O103 C97 1.268 . S
O104 Sc88 2.105 . S
O104 C96 1.268 . S
O105 Sc89 2.105 . S
O105 C95 1.268 . S
O106 Sc90 2.105 . S
O106 C97 1.268 . S
O107 Sc88 2.105 . S
O107 C93 1.268 . S
O108 Sc90 2.105 . S
O108 C92 1.268 . S
O109 Sc89 2.105 . S
O109 C94 1.268 . S
Sc110 O113 2.025 . S
Sc110 O120 2.105 . S
Sc110 O123 2.105 1_556 S
Sc110 O126 2.105 1_556 S
Sc110 O129 2.105 . S
Sc111 O113 2.025 . S
Sc111 O121 2.105 . S
Sc111 O125 2.105 . S
Sc111 O127 2.105 . S
Sc111 O131 2.105 . S
Sc112 O113 2.025 . S
Sc112 O122 2.105 . S
Sc112 O124 2.105 1_556 S
Sc112 O128 2.105 . S
Sc112 O130 2.105 . S
O113 Sc110 2.025 . S
O113 Sc111 2.025 . S
O113 Sc112 2.025 . S
C114 O120 1.268 . S
C114 O130 1.268 . S
C115 O121 1.268 . S
C115 O129 1.268 . S
C116 O122 1.268 . S
C116 O131 1.268 . S
C117 O123 1.268 1_556 S
C117 O127 1.268 . S
C118 O124 1.268 . S
C118 O126 1.268 . S
C119 O125 1.268 . S
C119 O128 1.268 . S
O120 Sc110 2.105 . S
O120 C114 1.268 . S
O121 Sc111 2.105 . S
O121 C115 1.268 . S
O122 Sc112 2.105 . S
O122 C116 1.268 . S
O123 Sc110 2.105 1_554 S
O123 C117 1.268 1_554 S
O124 Sc112 2.105 1_554 S
O124 C118 1.268 . S
O125 Sc111 2.105 . S
O125 C119 1.268 . S
O126 Sc110 2.105 1_554 S
O126 C118 1.268 . S
O127 Sc111 2.105 . S
O127 C117 1.268 . S
O128 Sc112 2.105 . S
O128 C119 1.268 . S
O129 Sc110 2.105 . S
O129 C115 1.268 . S
O130 Sc112 2.105 . S
O130 C114 1.268 . S
O131 Sc111 2.105 . S
O131 C116 1.268 . S
Sc132 O135 2.025 . S
Sc132 O142 2.105 . S
Sc132 O145 2.105 . S
Sc132 O148 2.105 . S
Sc132 O151 2.105 . S
Sc133 O135 2.025 . S
Sc133 O143 2.105 . S
Sc133 O147 2.105 . S
Sc133 O149 2.105 1_556 S
Sc133 O153 2.105 . S
Sc134 O135 2.025 . S
Sc134 O144 2.105 . S
Sc134 O146 2.105 . S
Sc134 O150 2.105 . S
Sc134 O152 2.105 . S
O135 Sc132 2.025 . S
O135 Sc133 2.025 . S
O135 Sc134 2.025 . S
C136 O142 1.268 . S
C136 O152 1.268 . S
C137 O143 1.268 . S
C137 O151 1.268 . S
C138 O144 1.268 . S
C138 O153 1.268 . S
C139 O145 1.268 1_554 S
C139 O149 1.268 . S
C140 O146 1.268 . S
C140 O148 1.268 . S
C141 O147 1.268 . S
C141 O150 1.268 . S
O142 Sc132 2.105 . S
O142 C136 1.268 . S
O143 Sc133 2.105 . S
O143 C137 1.268 . S
O144 Sc134 2.105 . S
O144 C138 1.268 . S
O145 Sc132 2.105 . S
O145 C139 1.268 1_556 S
O146 Sc134 2.105 . S
O146 C140 1.268 . S
O147 Sc133 2.105 . S
O147 C141 1.268 . S
O148 Sc132 2.105 . S
O148 C140 1.268 . S
O149 Sc133 2.105 1_554 S
O149 C139 1.268 . S
O150 Sc134 2.105 . S
O150 C141 1.268 . S
O151 Sc132 2.105 . S
O151 C137 1.268 . S
O152 Sc134 2.105 . S
O152 C136 1.268 . S
O153 Sc133 2.105 . S
O153 C138 1.268 . S
Sc154 O157 2.025 . S
Sc154 O164 2.105 . S
Sc154 O167 2.105 1_556 S
Sc154 O170 2.105 1_556 S
Sc154 O173 2.105 . S
Sc155 O157 2.025 1_554 S
Sc155 O165 2.105 . S
Sc155 O169 2.105 . S
Sc155 O171 2.105 . S
Sc155 O175 2.105 1_554 S
Sc156 O157 2.025 . S
Sc156 O166 2.105 . S
Sc156 O168 2.105 . S
Sc156 O172 2.105 1_556 S
Sc156 O174 2.105 . S
O157 Sc154 2.025 . S
O157 Sc155 2.025 1_556 S
O157 Sc156 2.025 . S
C158 O164 1.268 . S
C158 O174 1.268 . S
C159 O165 1.268 1_556 S
C159 O173 1.268 . S
C160 O166 1.268 . S
C160 O175 1.268 . S
C161 O167 1.268 . S
C161 O171 1.268 . S
C162 O168 1.268 1_554 S
C162 O170 1.268 . S
C163 O169 1.268 . S
C163 O172 1.268 . S
O164 Sc154 2.105 . S
O164 C158 1.268 . S
O165 Sc155 2.105 . S
O165 C159 1.268 1_554 S
O166 Sc156 2.105 . S
O166 C160 1.268 . S
O167 Sc154 2.105 1_554 S
O167 C161 1.268 . S
O168 Sc156 2.105 . S
O168 C162 1.268 1_556 S
O169 Sc155 2.105 . S
O169 C163 1.268 . S
O170 Sc154 2.105 1_554 S
O170 C162 1.268 . S
O171 Sc155 2.105 . S
O171 C161 1.268 . S
O172 Sc156 2.105 1_554 S
O172 C163 1.268 . S
O173 Sc154 2.105 . S
O173 C159 1.268 . S
O174 Sc156 2.105 . S
O174 C158 1.268 . S
O175 Sc155 2.105 1_556 S
O175 C160 1.268 . S
Sc176 O179 2.025 . S
Sc176 O186 2.105 1_554 S
Sc176 O189 2.105 . S
Sc176 O192 2.105 . S
Sc176 O195 2.105 . S
Sc177 O179 2.025 . S
Sc177 O187 2.105 . S
Sc177 O191 2.105 . S
Sc177 O193 2.105 . S
Sc177 O197 2.105 . S
Sc178 O179 2.025 . S
Sc178 O188 2.105 . S
Sc178 O190 2.105 . S
Sc178 O194 2.105 . S
Sc178 O196 2.105 1_554 S
O179 Sc176 2.025 . S
O179 Sc177 2.025 . S
O179 Sc178 2.025 . S
C180 O186 1.268 . S
C180 O196 1.268 . S
C181 O187 1.268 . S
C181 O195 1.268 . S
C182 O188 1.268 . S
C182 O197 1.268 . S
C183 O189 1.268 . S
C183 O193 1.268 . S
C184 O190 1.268 . S
C184 O192 1.268 . S
C185 O191 1.268 . S
C185 O194 1.268 . S
O186 Sc176 2.105 1_556 S
O186 C180 1.268 . S
O187 Sc177 2.105 . S
O187 C181 1.268 . S
O188 Sc178 2.105 . S
O188 C182 1.268 . S
O189 Sc176 2.105 . S
O189 C183 1.268 . S
O190 Sc178 2.105 . S
O190 C184 1.268 . S
O191 Sc177 2.105 . S
O191 C185 1.268 . S
O192 Sc176 2.105 . S
O192 C184 1.268 . S
O193 Sc177 2.105 . S
O193 C183 1.268 . S
O194 Sc178 2.105 . S
O194 C185 1.268 . S
O195 Sc176 2.105 . S
O195 C181 1.268 . S
O196 Sc178 2.105 1_556 S
O196 C180 1.268 . S
O197 Sc177 2.105 . S
O197 C182 1.268 . S
Sc198 O201 2.025 . S
Sc198 O208 2.105 . S
Sc198 O211 2.105 . S
Sc198 O214 2.105 . S
Sc198 O217 2.105 . S
Sc199 O201 2.025 . S
Sc199 O209 2.105 . S
Sc199 O213 2.105 . S
Sc199 O215 2.105 . S
Sc199 O219 2.105 . S
Sc200 O201 2.025 . S
Sc200 O210 2.105 . S
Sc200 O212 2.105 . S
Sc200 O216 2.105 . S
Sc200 O218 2.105 . S
O201 Sc198 2.025 . S
O201 Sc199 2.025 . S
O201 Sc200 2.025 . S
C202 O208 1.268 . S
C202 O218 1.268 . S
C203 O209 1.268 . S
C203 O217 1.268 . S
C204 O210 1.268 . S
C204 O219 1.268 . S
C205 O211 1.268 . S
C205 O215 1.268 . S
C206 O212 1.268 . S
C206 O214 1.268 . S
C207 O213 1.268 . S
C207 O216 1.268 . S
O208 Sc198 2.105 . S
O208 C202 1.268 . S
O209 Sc199 2.105 . S
O209 C203 1.268 . S
O210 Sc200 2.105 . S
O210 C204 1.268 . S
O211 Sc198 2.105 . S
O211 C205 1.268 . S
O212 Sc200 2.105 . S
O212 C206 1.268 . S
O213 Sc199 2.105 . S
O213 C207 1.268 . S
O214 Sc198 2.105 . S
O214 C206 1.268 . S
O215 Sc199 2.105 . S
O215 C205 1.268 . S
O216 Sc200 2.105 . S
O216 C207 1.268 . S
O217 Sc198 2.105 . S
O217 C203 1.268 . S
O218 Sc200 2.105 . S
O218 C202 1.268 . S
O219 Sc199 2.105 . S
O219 C204 1.268 . S
Sc220 O223 2.025 . S
Sc220 O230 2.105 . S
Sc220 O233 2.105 . S
Sc220 O236 2.105 . S
Sc220 O239 2.105 . S
Sc221 O223 2.025 . S
Sc221 O231 2.105 . S
Sc221 O235 2.105 . S
Sc221 O237 2.105 . S
Sc221 O241 2.105 . S
Sc222 O223 2.025 . S
Sc222 O232 2.105 . S
Sc222 O234 2.105 . S
Sc222 O238 2.105 . S
Sc222 O240 2.105 . S
O223 Sc220 2.025 . S
O223 Sc221 2.025 . S
O223 Sc222 2.025 . S
C224 O230 1.268 . S
C224 O240 1.268 . S
C225 O231 1.268 . S
C225 O239 1.268 . S
C226 O232 1.268 . S
C226 O241 1.268 . S
C227 O233 1.268 . S
C227 O237 1.268 . S
C228 O234 1.268 . S
C228 O236 1.268 . S
C229 O235 1.268 . S
C229 O238 1.268 . S
O230 Sc220 2.105 . S
O230 C224 1.268 . S
O231 Sc221 2.105 . S
O231 C225 1.268 . S
O232 Sc222 2.105 . S
O232 C226 1.268 . S
O233 Sc220 2.105 . S
O233 C227 1.268 . S
O234 Sc222 2.105 . S
O234 C228 1.268 . S
O235 Sc221 2.105 . S
O235 C229 1.268 . S
O236 Sc220 2.105 . S
O236 C228 1.268 . S
O237 Sc221 2.105 . S
O237 C227 1.268 . S
O238 Sc222 2.105 . S
O238 C229 1.268 . S
O239 Sc220 2.105 . S
O239 C225 1.268 . S
O240 Sc222 2.105 . S
O240 C224 1.268 . S
O241 Sc221 2.105 . S
O241 C226 1.268 . S
Sc242 O245 2.025 . S
Sc242 O252 2.105 . S
Sc242 O255 2.105 . S
Sc242 O258 2.105 . S
Sc242 O261 2.105 . S
Sc243 O245 2.025 . S
Sc243 O253 2.105 . S
Sc243 O257 2.105 . S
Sc243 O259 2.105 . S
Sc243 O263 2.105 . S
Sc244 O245 2.025 . S
Sc244 O254 2.105 . S
Sc244 O256 2.105 . S
Sc244 O260 2.105 . S
Sc244 O262 2.105 . S
O245 Sc242 2.025 . S
O245 Sc243 2.025 . S
O245 Sc244 2.025 . S
C246 O252 1.268 . S
C246 O262 1.268 . S
C247 O253 1.268 . S
C247 O261 1.268 . S
C248 O254 1.268 . S
C248 O263 1.268 . S
C249 O255 1.268 . S
C249 O259 1.268 . S
C250 O256 1.268 . S
C250 O258 1.268 . S
C251 O257 1.268 . S
C251 O260 1.268 . S
O252 Sc242 2.105 . S
O252 C246 1.268 . S
O253 Sc243 2.105 . S
O253 C247 1.268 . S
O254 Sc244 2.105 . S
O254 C248 1.268 . S
O255 Sc242 2.105 . S
O255 C249 1.268 . S
O256 Sc244 2.105 . S
O256 C250 1.268 . S
O257 Sc243 2.105 . S
O257 C251 1.268 . S
O258 Sc242 2.105 . S
O258 C250 1.268 . S
O259 Sc243 2.105 . S
O259 C249 1.268 . S
O260 Sc244 2.105 . S
O260 C251 1.268 . S
O261 Sc242 2.105 . S
O261 C247 1.268 . S
O262 Sc244 2.105 . S
O262 C246 1.268 . S
O263 Sc243 2.105 . S
O263 C248 1.268 . S
C264 C265 1.369 . S
C264 C266 1.419 . S
C264 H268 0.930 . S
C265 C264 1.369 . S
C265 C274 1.429 . S
C266 C264 1.419 . S
C266 C267 1.363 . S
C266 H269 0.929 . S
C267 C266 1.363 . S
C267 C273 1.428 . S
H268 C264 0.930 . S
H269 C266 0.929 . S
S270 N271 1.613 . S
S270 N272 1.610 . S
N271 S270 1.613 . S
N271 C274 1.350 . S
N272 S270 1.610 . S
N272 C273 1.351 . S
C273 C267 1.428 . S
C273 N272 1.351 . S
C273 C274 1.434 . S
C274 C265 1.429 . S
C274 N271 1.350 . S
C274 C273 1.434 . S
C275 C276 1.369 . S
C275 C277 1.419 . S
C275 H279 0.930 . S
C276 C275 1.369 . S
C276 C285 1.429 . S
C277 C275 1.419 . S
C277 C278 1.363 . S
C277 H280 0.929 . S
C278 C277 1.363 . S
C278 C284 1.428 . S
H279 C275 0.930 . S
H280 C277 0.929 . S
S281 N282 1.613 . S
S281 N283 1.610 . S
N282 S281 1.613 . S
N282 C285 1.350 . S
N283 S281 1.610 . S
N283 C284 1.351 . S
C284 C278 1.428 . S
C284 N283 1.351 . S
C284 C285 1.434 . S
C285 C276 1.429 . S
C285 N282 1.350 . S
C285 C284 1.434 . S
C286 C287 1.369 . S
C286 C288 1.419 . S
C286 H290 0.930 . S
C287 C286 1.369 . S
C287 C296 1.429 . S
C288 C286 1.419 . S
C288 C289 1.363 . S
C288 H291 0.929 . S
C289 C288 1.363 . S
C289 C295 1.428 . S
H290 C286 0.930 . S
H291 C288 0.929 . S
S292 N293 1.613 . S
S292 N294 1.610 . S
N293 S292 1.613 . S
N293 C296 1.350 . S
N294 S292 1.610 . S
N294 C295 1.351 . S
C295 C289 1.428 . S
C295 N294 1.351 . S
C295 C296 1.434 . S
C296 C287 1.429 . S
C296 N293 1.350 . S
C296 C295 1.434 . S
C297 C298 1.369 . S
C297 C299 1.419 1_554 S
C297 H301 0.930 . S
C298 C297 1.369 . S
C298 C307 1.429 . S
C299 C297 1.419 1_556 S
C299 C300 1.363 . S
C299 H302 0.929 . S
C300 C299 1.363 . S
C300 C306 1.428 . S
H301 C297 0.930 . S
H302 C299 0.929 . S
S303 N304 1.613 1_556 S
S303 N305 1.610 . S
N304 S303 1.613 1_554 S
N304 C307 1.350 . S
N305 S303 1.610 . S
N305 C306 1.351 . S
C306 C300 1.428 . S
C306 N305 1.351 . S
C306 C307 1.434 1_556 S
C307 C298 1.429 . S
C307 N304 1.350 . S
C307 C306 1.434 1_554 S
C308 C309 1.369 . S
C308 C310 1.419 . S
C308 H312 0.930 . S
C309 C308 1.369 . S
C309 C318 1.429 . S
C310 C308 1.419 . S
C310 C311 1.363 . S
C310 H313 0.929 . S
C311 C310 1.363 . S
C311 C317 1.428 . S
H312 C308 0.930 . S
H313 C310 0.929 . S
S314 N315 1.613 . S
S314 N316 1.610 . S
N315 S314 1.613 . S
N315 C318 1.350 . S
N316 S314 1.610 . S
N316 C317 1.351 . S
C317 C311 1.428 . S
C317 N316 1.351 . S
C317 C318 1.434 . S
C318 C309 1.429 . S
C318 N315 1.350 . S
C318 C317 1.434 . S
C319 C320 1.369 . S
C319 C321 1.419 . S
C319 H323 0.930 . S
C320 C319 1.369 . S
C320 C329 1.429 . S
C321 C319 1.419 . S
C321 C322 1.363 . S
C321 H324 0.929 . S
C322 C321 1.363 . S
C322 C328 1.428 . S
H323 C319 0.930 . S
H324 C321 0.929 . S
S325 N326 1.613 . S
S325 N327 1.610 . S
N326 S325 1.613 . S
N326 C329 1.350 . S
N327 S325 1.610 . S
N327 C328 1.351 . S
C328 C322 1.428 . S
C328 N327 1.351 . S
C328 C329 1.434 . S
C329 C320 1.429 . S
C329 N326 1.350 . S
C329 C328 1.434 . S
C330 C331 1.369 . S
C330 C332 1.419 . S
C330 H334 0.930 . S
C331 C330 1.369 . S
C331 C340 1.429 . S
C332 C330 1.419 . S
C332 C333 1.363 . S
C332 H335 0.929 . S
C333 C332 1.363 . S
C333 C339 1.428 . S
H334 C330 0.930 . S
H335 C332 0.929 . S
S336 N337 1.613 . S
S336 N338 1.610 . S
N337 S336 1.613 . S
N337 C340 1.350 . S
N338 S336 1.610 . S
N338 C339 1.351 . S
C339 C333 1.428 . S
C339 N338 1.351 . S
C339 C340 1.434 . S
C340 C331 1.429 . S
C340 N337 1.350 . S
C340 C339 1.434 . S
C341 C342 1.369 . S
C341 C343 1.419 . S
C341 H345 0.930 . S
C342 C341 1.369 . S
C342 C351 1.429 . S
C343 C341 1.419 . S
C343 C344 1.363 . S
C343 H346 0.929 . S
C344 C343 1.363 . S
C344 C350 1.428 . S
H345 C341 0.930 . S
H346 C343 0.929 . S
S347 N348 1.613 . S
S347 N349 1.610 . S
N348 S347 1.613 . S
N348 C351 1.350 . S
N349 S347 1.610 . S
N349 C350 1.351 . S
C350 C344 1.428 . S
C350 N349 1.351 . S
C350 C351 1.434 . S
C351 C342 1.429 . S
C351 N348 1.350 . S
C351 C350 1.434 . S
C352 C353 1.369 . S
C352 C354 1.419 . S
C352 H356 0.930 . S
C353 C352 1.369 . S
C353 C362 1.429 . S
C354 C352 1.419 . S
C354 C355 1.363 . S
C354 H357 0.929 . S
C355 C354 1.363 . S
C355 C361 1.428 . S
H356 C352 0.930 . S
H357 C354 0.929 . S
S358 N359 1.613 . S
S358 N360 1.610 . S
N359 S358 1.613 . S
N359 C362 1.350 . S
N360 S358 1.610 . S
N360 C361 1.351 . S
C361 C355 1.428 . S
C361 N360 1.351 . S
C361 C362 1.434 . S
C362 C353 1.429 . S
C362 N359 1.350 . S
C362 C361 1.434 . S
C363 C364 1.369 . S
C363 C365 1.419 . S
C363 H367 0.930 . S
C364 C363 1.369 . S
C364 C373 1.429 . S
C365 C363 1.419 . S
C365 C366 1.363 . S
C365 H368 0.929 . S
C366 C365 1.363 . S
C366 C372 1.428 . S
H367 C363 0.930 . S
H368 C365 0.929 . S
S369 N370 1.613 . S
S369 N371 1.610 . S
N370 S369 1.613 . S
N370 C373 1.350 . S
N371 S369 1.610 . S
N371 C372 1.351 . S
C372 C366 1.428 . S
C372 N371 1.351 . S
C372 C373 1.434 . S
C373 C364 1.429 . S
C373 N370 1.350 . S
C373 C372 1.434 . S
C374 C375 1.369 . S
C374 C376 1.419 1_556 S
C374 H378 0.930 . S
C375 C374 1.369 . S
C375 C384 1.429 . S
C376 C374 1.419 1_554 S
C376 C377 1.363 . S
C376 H379 0.929 . S
C377 C376 1.363 . S
C377 C383 1.428 . S
H378 C374 0.930 . S
H379 C376 0.929 . S
S380 N381 1.613 . S
S380 N382 1.610 1_556 S
N381 S380 1.613 . S
N381 C384 1.350 . S
N382 S380 1.610 1_554 S
N382 C383 1.351 . S
C383 C377 1.428 . S
C383 N382 1.351 . S
C383 C384 1.434 1_554 S
C384 C375 1.429 . S
C384 N381 1.350 . S
C384 C383 1.434 1_556 S
C385 C386 1.369 . S
C385 C387 1.419 . S
C385 H389 0.930 . S
C386 C385 1.369 . S
C386 C395 1.429 . S
C387 C385 1.419 . S
C387 C388 1.363 . S
C387 H390 0.929 . S
C388 C387 1.363 . S
C388 C394 1.428 . S
H389 C385 0.930 . S
H390 C387 0.929 . S
S391 N392 1.613 . S
S391 N393 1.610 . S
N392 S391 1.613 . S
N392 C395 1.350 . S
N393 S391 1.610 . S
N393 C394 1.351 . S
C394 C388 1.428 . S
C394 N393 1.351 . S
C394 C395 1.434 . S
C395 C386 1.429 . S
C395 N392 1.350 . S
C395 C394 1.434 . S
C396 C397 1.369 . S
C396 C398 1.419 1_545 S
C396 H400 0.930 . S
C397 C396 1.369 . S
C397 C406 1.429 1_556 S
C398 C396 1.419 1_565 S
C398 C399 1.363 1_556 S
C398 H401 0.929 . S
C399 C398 1.363 1_554 S
C399 C405 1.428 . S
H400 C396 0.930 . S
H401 C398 0.929 . S
S402 N403 1.613 . S
S402 N404 1.610 1_545 S
N403 S402 1.613 . S
N403 C406 1.350 . S
N404 S402 1.610 1_565 S
N404 C405 1.351 . S
C405 C399 1.428 . S
C405 N404 1.351 . S
C405 C406 1.434 1_565 S
C406 C397 1.429 1_554 S
C406 N403 1.350 . S
C406 C405 1.434 1_545 S
C407 C408 1.369 . S
C407 C409 1.419 . S
C407 H411 0.930 . S
C408 C407 1.369 . S
C408 C417 1.429 . S
C409 C407 1.419 . S
C409 C410 1.363 . S
C409 H412 0.929 . S
C410 C409 1.363 . S
C410 C416 1.428 . S
H411 C407 0.930 . S
H412 C409 0.929 . S
S413 N414 1.613 . S
S413 N415 1.610 . S
N414 S413 1.613 . S
N414 C417 1.350 . S
N415 S413 1.610 . S
N415 C416 1.351 . S
C416 C410 1.428 . S
C416 N415 1.351 . S
C416 C417 1.434 . S
C417 C408 1.429 . S
C417 N414 1.350 . S
C417 C416 1.434 . S
C418 C419 1.369 . S
C418 C420 1.419 1_455 S
C418 H422 0.930 . S
C419 C418 1.369 . S
C419 C428 1.429 . S
C420 C418 1.419 1_655 S
C420 C421 1.363 . S
C420 H423 0.929 . S
C421 C420 1.363 . S
C421 C427 1.428 . S
H422 C418 0.930 . S
H423 C420 0.929 . S
S424 N425 1.613 1_655 S
S424 N426 1.610 . S
N425 S424 1.613 1_455 S
N425 C428 1.350 . S
N426 S424 1.610 . S
N426 C427 1.351 . S
C427 C421 1.428 . S
C427 N426 1.351 . S
C427 C428 1.434 1_655 S
C428 C419 1.429 . S
C428 N425 1.350 . S
C428 C427 1.434 1_455 S
C429 C430 1.369 . S
C429 C431 1.419 1_565 S
C429 H433 0.930 . S
C430 C429 1.369 . S
C430 C439 1.429 . S
C431 C429 1.419 1_545 S
C431 C432 1.363 . S
C431 H434 0.929 . S
C432 C431 1.363 . S
C432 C438 1.428 . S
H433 C429 0.930 . S
H434 C431 0.929 . S
S435 N436 1.613 1_545 S
S435 N437 1.610 . S
N436 S435 1.613 1_565 S
N436 C439 1.350 . S
N437 S435 1.610 . S
N437 C438 1.351 . S
C438 C432 1.428 . S
C438 N437 1.351 . S
C438 C439 1.434 1_545 S
C439 C430 1.429 . S
C439 N436 1.350 . S
C439 C438 1.434 1_565 S
C440 C441 1.369 . S
C440 C442 1.419 . S
C440 H444 0.930 . S
C441 C440 1.369 . S
C441 C450 1.429 . S
C442 C440 1.419 . S
C442 C443 1.363 . S
C442 H445 0.929 . S
C443 C442 1.363 . S
C443 C449 1.428 . S
H444 C440 0.930 . S
H445 C442 0.929 . S
S446 N447 1.613 . S
S446 N448 1.610 . S
N447 S446 1.613 . S
N447 C450 1.350 . S
N448 S446 1.610 . S
N448 C449 1.351 . S
C449 C443 1.428 . S
C449 N448 1.351 . S
C449 C450 1.434 . S
C450 C441 1.429 . S
C450 N447 1.350 . S
C450 C449 1.434 . S
C451 C452 1.369 . S
C451 C453 1.419 1_455 S
C451 H455 0.930 . S
C452 C451 1.369 . S
C452 C461 1.429 . S
C453 C451 1.419 1_655 S
C453 C454 1.363 . S
C453 H456 0.929 . S
C454 C453 1.363 . S
C454 C460 1.428 . S
H455 C451 0.930 . S
H456 C453 0.929 . S
S457 N458 1.613 1_554 S
S457 N459 1.610 1_455 S
N458 S457 1.613 1_556 S
N458 C461 1.350 . S
N459 S457 1.610 1_655 S
N459 C460 1.351 1_554 S
C460 C454 1.428 . S
C460 N459 1.351 1_556 S
C460 C461 1.434 1_655 S
C461 C452 1.429 . S
C461 N458 1.350 . S
C461 C460 1.434 1_455 S
C462 C463 1.369 . S
C462 C464 1.419 . S
C462 H466 0.930 . S
C463 C462 1.369 . S
C463 C472 1.429 . S
C464 C462 1.419 . S
C464 C465 1.363 . S
C464 H467 0.929 . S
C465 C464 1.363 . S
C465 C471 1.428 . S
H466 C462 0.930 . S
H467 C464 0.929 . S
S468 N469 1.613 . S
S468 N470 1.610 . S
N469 S468 1.613 . S
N469 C472 1.350 . S
N470 S468 1.610 . S
N470 C471 1.351 . S
C471 C465 1.428 . S
C471 N470 1.351 . S
C471 C472 1.434 . S
C472 C463 1.429 . S
C472 N469 1.350 . S
C472 C471 1.434 . S
C473 C474 1.369 1_554 S
C473 C475 1.419 1_554 S
C473 H477 0.930 . S
C474 C473 1.369 1_556 S
C474 C483 1.429 . S
C475 C473 1.419 1_556 S
C475 C476 1.363 . S
C475 H478 0.929 1_556 S
C476 C475 1.363 . S
C476 C482 1.428 . S
H477 C473 0.930 . S
H478 C475 0.929 1_554 S
S479 N480 1.613 . S
S479 N481 1.610 . S
N480 S479 1.613 . S
N480 C483 1.350 . S
N481 S479 1.610 . S
N481 C482 1.351 . S
C482 C476 1.428 . S
C482 N481 1.351 . S
C482 C483 1.434 . S
C483 C474 1.429 . S
C483 N480 1.350 . S
C483 C482 1.434 . S
C484 C485 1.369 . S
C484 C486 1.419 . S
C484 H488 0.930 . S
C485 C484 1.369 . S
C485 C494 1.429 . S
C486 C484 1.419 . S
C486 C487 1.363 . S
C486 H489 0.929 . S
C487 C486 1.363 . S
C487 C493 1.428 . S
H488 C484 0.930 . S
H489 C486 0.929 . S
S490 N491 1.613 1_554 S
S490 N492 1.610 . S
N491 S490 1.613 1_556 S
N491 C494 1.350 1_556 S
N492 S490 1.610 . S
N492 C493 1.351 . S
C493 C487 1.428 . S
C493 N492 1.351 . S
C493 C494 1.434 . S
C494 C485 1.429 . S
C494 N491 1.350 1_554 S
C494 C493 1.434 . S
C495 C496 1.369 . S
C495 C497 1.419 . S
C495 H499 0.930 . S
C496 C495 1.369 . S
C496 C505 1.429 . S
C497 C495 1.419 . S
C497 C498 1.363 . S
C497 H500 0.929 . S
C498 C497 1.363 . S
C498 C504 1.428 . S
H499 C495 0.930 . S
H500 C497 0.929 . S
S501 N502 1.613 . S
S501 N503 1.610 . S
N502 S501 1.613 . S
N502 C505 1.350 . S
N503 S501 1.610 . S
N503 C504 1.351 . S
C504 C498 1.428 . S
C504 N503 1.351 . S
C504 C505 1.434 . S
C505 C496 1.429 . S
C505 N502 1.350 . S
C505 C504 1.434 . S
C506 C507 1.369 . S
C506 C508 1.419 . S
C506 H510 0.930 . S
C507 C506 1.369 . S
C507 C516 1.429 . S
C508 C506 1.419 . S
C508 C509 1.363 . S
C508 H511 0.929 . S
C509 C508 1.363 . S
C509 C515 1.428 . S
H510 C506 0.930 . S
H511 C508 0.929 . S
S512 N513 1.613 . S
S512 N514 1.610 . S
N513 S512 1.613 . S
N513 C516 1.350 . S
N514 S512 1.610 . S
N514 C515 1.351 . S
C515 C509 1.428 . S
C515 N514 1.351 . S
C515 C516 1.434 . S
C516 C507 1.429 . S
C516 N513 1.350 . S
C516 C515 1.434 . S
C517 C518 1.369 . S
C517 C519 1.419 . S
C517 H521 0.930 . S
C518 C517 1.369 . S
C518 C527 1.429 . S
C519 C517 1.419 . S
C519 C520 1.363 . S
C519 H522 0.929 . S
C520 C519 1.363 . S
C520 C526 1.428 . S
H521 C517 0.930 . S
H522 C519 0.929 . S
S523 N524 1.613 . S
S523 N525 1.610 . S
N524 S523 1.613 . S
N524 C527 1.350 . S
N525 S523 1.610 . S
N525 C526 1.351 . S
C526 C520 1.428 . S
C526 N525 1.351 . S
C526 C527 1.434 . S
C527 C518 1.429 . S
C527 N524 1.350 . S
C527 C526 1.434 . S
C528 C529 1.369 . S
C528 C530 1.419 . S
C528 H532 0.930 . S
C529 C528 1.369 . S
C529 C538 1.429 1_554 S
C530 C528 1.419 . S
C530 C531 1.363 . S
C530 H533 0.929 . S
C531 C530 1.363 . S
C531 C537 1.428 1_554 S
H532 C528 0.930 . S
H533 C530 0.929 . S
S534 N535 1.613 . S
S534 N536 1.610 . S
N535 S534 1.613 . S
N535 C538 1.350 . S
N536 S534 1.610 . S
N536 C537 1.351 . S
C537 C531 1.428 1_556 S
C537 N536 1.351 . S
C537 C538 1.434 . S
C538 C529 1.429 1_556 S
C538 N535 1.350 . S
C538 C537 1.434 . S
C539 C540 1.369 . S
C539 C541 1.419 . S
C539 H543 0.930 . S
C540 C539 1.369 . S
C540 C549 1.429 . S
C541 C539 1.419 . S
C541 C542 1.363 . S
C541 H544 0.929 . S
C542 C541 1.363 . S
C542 C548 1.428 . S
H543 C539 0.930 . S
H544 C541 0.929 . S
S545 N546 1.613 . S
S545 N547 1.610 . S
N546 S545 1.613 . S
N546 C549 1.350 . S
N547 S545 1.610 . S
N547 C548 1.351 . S
C548 C542 1.428 . S
C548 N547 1.351 . S
C548 C549 1.434 . S
C549 C540 1.429 . S
C549 N546 1.350 . S
C549 C548 1.434 . S
C550 C551 1.369 . S
C550 C552 1.419 . S
C550 H554 0.930 . S
C551 C550 1.369 . S
C551 C560 1.429 . S
C552 C550 1.419 . S
C552 C553 1.363 . S
C552 H555 0.929 . S
C553 C552 1.363 . S
C553 C559 1.428 . S
H554 C550 0.930 . S
H555 C552 0.929 . S
S556 N557 1.613 . S
S556 N558 1.610 . S
N557 S556 1.613 . S
N557 C560 1.350 . S
N558 S556 1.610 . S
N558 C559 1.351 . S
C559 C553 1.428 . S
C559 N558 1.351 . S
C559 C560 1.434 . S
C560 C551 1.429 . S
C560 N557 1.350 . S
C560 C559 1.434 . S
C561 C562 1.369 . S
C561 C563 1.419 . S
C561 H565 0.930 . S
C562 C561 1.369 . S
C562 C571 1.429 . S
C563 C561 1.419 . S
C563 C564 1.363 . S
C563 H566 0.929 . S
C564 C563 1.363 . S
C564 C570 1.428 . S
H565 C561 0.930 . S
H566 C563 0.929 . S
S567 N568 1.613 . S
S567 N569 1.610 . S
N568 S567 1.613 . S
N568 C571 1.350 . S
N569 S567 1.610 . S
N569 C570 1.351 . S
C570 C564 1.428 . S
C570 N569 1.351 . S
C570 C571 1.434 . S
C571 C562 1.429 . S
C571 N568 1.350 . S
C571 C570 1.434 . S
C572 C573 1.369 . S
C572 C574 1.419 . S
C572 H576 0.930 . S
C573 C572 1.369 . S
C573 C582 1.429 . S
C574 C572 1.419 . S
C574 C575 1.363 . S
C574 H577 0.929 . S
C575 C574 1.363 . S
C575 C581 1.428 . S
H576 C572 0.930 . S
H577 C574 0.929 . S
S578 N579 1.613 . S
S578 N580 1.610 . S
N579 S578 1.613 . S
N579 C582 1.350 . S
N580 S578 1.610 . S
N580 C581 1.351 . S
C581 C575 1.428 . S
C581 N580 1.351 . S
C581 C582 1.434 . S
C582 C573 1.429 . S
C582 N579 1.350 . S
C582 C581 1.434 . S
C583 C584 1.369 . S
C583 C585 1.419 . S
C583 H587 0.930 . S
C584 C583 1.369 . S
C584 C593 1.429 . S
C585 C583 1.419 . S
C585 C586 1.363 . S
C585 H588 0.929 . S
C586 C585 1.363 . S
C586 C592 1.428 . S
H587 C583 0.930 . S
H588 C585 0.929 . S
S589 N590 1.613 . S
S589 N591 1.610 . S
N590 S589 1.613 . S
N590 C593 1.350 . S
N591 S589 1.610 . S
N591 C592 1.351 . S
C592 C586 1.428 . S
C592 N591 1.351 . S
C592 C593 1.434 . S
C593 C584 1.429 . S
C593 N590 1.350 . S
C593 C592 1.434 . S
C594 C595 1.369 . S
C594 C596 1.419 . S
C594 H598 0.930 . S
C595 C594 1.369 . S
C595 C604 1.429 . S
C596 C594 1.419 . S
C596 C597 1.363 . S
C596 H599 0.929 . S
C597 C596 1.363 . S
C597 C603 1.428 . S
H598 C594 0.930 . S
H599 C596 0.929 . S
S600 N601 1.613 . S
S600 N602 1.610 . S
N601 S600 1.613 . S
N601 C604 1.350 . S
N602 S600 1.610 . S
N602 C603 1.351 . S
C603 C597 1.428 . S
C603 N602 1.351 . S
C603 C604 1.434 . S
C604 C595 1.429 . S
C604 N601 1.350 . S
C604 C603 1.434 . S
C605 C606 1.369 . S
C605 C607 1.419 . S
C605 H609 0.930 . S
C606 C605 1.369 . S
C606 C615 1.429 . S
C607 C605 1.419 . S
C607 C608 1.363 . S
C607 H610 0.929 . S
C608 C607 1.363 . S
C608 C614 1.428 . S
H609 C605 0.930 . S
H610 C607 0.929 . S
S611 N612 1.613 . S
S611 N613 1.610 . S
N612 S611 1.613 . S
N612 C615 1.350 . S
N613 S611 1.610 . S
N613 C614 1.351 . S
C614 C608 1.428 . S
C614 N613 1.351 . S
C614 C615 1.434 . S
C615 C606 1.429 . S
C615 N612 1.350 . S
C615 C614 1.434 . S
C616 C617 1.369 . S
C616 C618 1.419 . S
C616 H620 0.930 . S
C617 C616 1.369 . S
C617 C626 1.429 . S
C618 C616 1.419 . S
C618 C619 1.363 . S
C618 H621 0.929 . S
C619 C618 1.363 . S
C619 C625 1.428 . S
H620 C616 0.930 . S
H621 C618 0.929 . S
S622 N623 1.613 . S
S622 N624 1.610 . S
N623 S622 1.613 . S
N623 C626 1.350 . S
N624 S622 1.610 . S
N624 C625 1.351 . S
C625 C619 1.428 . S
C625 N624 1.351 . S
C625 C626 1.434 . S
C626 C617 1.429 . S
C626 N623 1.350 . S
C626 C625 1.434 . S
C627 C628 1.369 . S
C627 C629 1.419 . S
C627 H631 0.930 . S
C628 C627 1.369 . S
C628 C637 1.429 . S
C629 C627 1.419 . S
C629 C630 1.363 . S
C629 H632 0.929 . S
C630 C629 1.363 . S
C630 C636 1.428 . S
H631 C627 0.930 . S
H632 C629 0.929 . S
S633 N634 1.613 . S
S633 N635 1.610 . S
N634 S633 1.613 . S
N634 C637 1.350 . S
N635 S633 1.610 . S
N635 C636 1.351 . S
C636 C630 1.428 . S
C636 N635 1.351 . S
C636 C637 1.434 . S
C637 C628 1.429 . S
C637 N634 1.350 . S
C637 C636 1.434 . S
C638 C639 1.369 . S
C638 C640 1.419 . S
C638 H642 0.930 . S
C639 C638 1.369 . S
C639 C648 1.429 . S
C640 C638 1.419 . S
C640 C641 1.363 . S
C640 H643 0.929 . S
C641 C640 1.363 . S
C641 C647 1.428 . S
H642 C638 0.930 . S
H643 C640 0.929 . S
S644 N645 1.608 1_554 S
S644 N646 1.610 . S
N645 S644 1.608 1_556 S
N645 C648 1.353 . S
N646 S644 1.610 . S
N646 C647 1.351 1_554 S
C647 C641 1.428 . S
C647 N646 1.351 1_556 S
C647 C648 1.434 . S
C648 C639 1.429 . S
C648 N645 1.353 . S
C648 C647 1.434 . S
C649 C650 1.369 . S
C649 C651 1.419 . S
C649 H653 0.930 . S
C650 C649 1.369 . S
C650 C659 1.429 . S
C651 C649 1.419 . S
C651 C652 1.363 . S
C651 H654 0.929 . S
C652 C651 1.363 . S
C652 C658 1.428 . S
H653 C649 0.930 . S
H654 C651 0.929 . S
S655 N656 1.613 . S
S655 N657 1.610 . S
N656 S655 1.613 . S
N656 C659 1.350 . S
N657 S655 1.610 . S
N657 C658 1.351 . S
C658 C652 1.428 . S
C658 N657 1.351 . S
C658 C659 1.434 . S
C659 C650 1.429 . S
C659 N656 1.350 . S
C659 C658 1.434 . S
C265 C6 1.718 . S
C267 C8 1.728 . S
C276 C28 1.720 . S
C278 C30 1.727 . S
C287 C52 1.727 . S
C289 C50 1.717 1_556 S
C298 C72 1.721 . S
C300 C74 1.728 . S
C309 C96 1.727 1_554 S
C311 C94 1.717 . S
C320 C116 1.720 . S
C322 C118 1.727 . S
C331 C139 1.717 . S
C333 C136 1.726 . S
C342 C158 1.728 . S
C344 C161 1.718 . S
C353 C180 1.729 . S
C355 C183 1.721 . S
C364 C202 1.729 1_556 S
C366 C205 1.720 . S
C375 C227 1.717 . S
C377 C224 1.728 . S
C386 C246 1.726 . S
C388 C249 1.717 1_554 S
C397 C4 1.499 . S
C399 C162 1.509 . S
C408 C184 1.507 . S
C410 C26 1.502 . S
C419 C206 1.506 . S
C421 C48 1.502 . S
C430 C70 1.510 . S
C432 C228 1.500 . S
C441 C92 1.510 . S
C443 C250 1.501 . S
C452 C114 1.500 . S
C454 C140 1.507 . S
C463 C5 1.191 . S
C465 C229 1.191 . S
C474 C27 1.200 1_556 S
C476 C251 1.193 . S
C485 C141 1.191 1_554 S
C487 C49 1.191 . S
C496 C71 1.199 . S
C498 C163 1.192 . S
C507 C93 1.197 . S
C509 C185 1.191 . S
C518 C207 1.195 . S
C520 C115 1.200 . S
C529 C9 1.223 . S
C531 C181 1.231 . S
C540 C203 1.227 . S
C542 C31 1.226 . S
C551 C225 1.231 . S
C553 C53 1.228 . S
C562 C75 1.231 . S
C564 C247 1.224 . S
C573 C137 1.230 . S
C575 C97 1.225 . S
C584 C119 1.231 . S
C586 C159 1.228 . S
C595 C7 1.341 . S
C597 C226 1.331 . S
C606 C29 1.336 . S
C608 C248 1.341 . S
C617 C51 1.333 . S
C619 C138 1.330 . S
C628 C160 1.342 . S
C630 C73 1.333 . S
C639 C95 1.337 . S
C641 C182 1.330 1_556 S
C650 C204 1.341 . S
C652 C117 1.340 1_554 S
