# Generated by pormake.
# Topology wix, (3)-cn, num edge types: 1
# Building blocks:
#     Node 0, Type 0, BuildingBlock: OLANEW_clean_sbu_2, # of connection points: 3
#     Node 1, Type 0, BuildingBlock: OLANEW_clean_sbu_2, # of connection points: 3
#     Node 2, Type 0, BuildingBlock: OLANEW_clean_sbu_2, # of connection points: 3
#     Node 3, Type 0, BuildingBlock: OLANEW_clean_sbu_2, # of connection points: 3
#     Node 4, Type 0, BuildingBlock: OLANEW_clean_sbu_2, # of connection points: 3
#     Node 5, Type 0, BuildingBlock: OLANEW_clean_sbu_2, # of connection points: 3
#     Node 6, Type 0, BuildingBlock: OLANEW_clean_sbu_2, # of connection points: 3
#     Node 7, Type 0, BuildingBlock: OLANEW_clean_sbu_2, # of connection points: 3
#     Node 8, Type 0, BuildingBlock: OLANEW_clean_sbu_2, # of connection points: 3
#     Node 9, Type 0, BuildingBlock: OLANEW_clean_sbu_2, # of connection points: 3
#     Node 10, Type 0, BuildingBlock: OLANEW_clean_sbu_2, # of connection points: 3
#     Node 11, Type 0, BuildingBlock: OLANEW_clean_sbu_2, # of connection points: 3
#     Edge 12, Type (0, 0), BuildingBlock: UVAHIK_clean_linker_0, # of connection points: 2
#     Edge 13, Type (0, 0), BuildingBlock: UVAHIK_clean_linker_0, # of connection points: 2
#     Edge 14, Type (0, 0), BuildingBlock: UVAHIK_clean_linker_0, # of connection points: 2
#     Edge 15, Type (0, 0), BuildingBlock: UVAHIK_clean_linker_0, # of connection points: 2
#     Edge 16, Type (0, 0), BuildingBlock: UVAHIK_clean_linker_0, # of connection points: 2
#     Edge 17, Type (0, 0), BuildingBlock: UVAHIK_clean_linker_0, # of connection points: 2
#     Edge 18, Type (0, 0), BuildingBlock: UVAHIK_clean_linker_0, # of connection points: 2
#     Edge 19, Type (0, 0), BuildingBlock: UVAHIK_clean_linker_0, # of connection points: 2
#     Edge 20, Type (0, 0), BuildingBlock: UVAHIK_clean_linker_0, # of connection points: 2
#     Edge 21, Type (0, 0), BuildingBlock: UVAHIK_clean_linker_0, # of connection points: 2
#     Edge 22, Type (0, 0), BuildingBlock: UVAHIK_clean_linker_0, # of connection points: 2
#     Edge 23, Type (0, 0), BuildingBlock: UVAHIK_clean_linker_0, # of connection points: 2
#     Edge 24, Type (0, 0), BuildingBlock: UVAHIK_clean_linker_0, # of connection points: 2
#     Edge 25, Type (0, 0), BuildingBlock: UVAHIK_clean_linker_0, # of connection points: 2
#     Edge 26, Type (0, 0), BuildingBlock: UVAHIK_clean_linker_0, # of connection points: 2
#     Edge 27, Type (0, 0), BuildingBlock: UVAHIK_clean_linker_0, # of connection points: 2
#     Edge 28, Type (0, 0), BuildingBlock: UVAHIK_clean_linker_0, # of connection points: 2
#     Edge 29, Type (0, 0), BuildingBlock: UVAHIK_clean_linker_0, # of connection points: 2
# Relax obj value: 0.007
# Max RMSD: 0.079
# Mean RMSD: 0.079
data_MOF--net-wix--node1-OLANEW_clean_sbu_2--edge1-UVAHIK_clean_linker_0
_symmetry_space_group_name_H-M    P1
_symmetry_Int_Tables_number       1
_symmetry_cell_setting            triclinic
loop_
_symmetry_equiv_pos_as_xyz
'x, y, z'
_cell_length_a     80.780706
_cell_length_b     80.779731
_cell_length_c     42.452689
_cell_angle_alpha  89.968333
_cell_angle_beta   90.01666
_cell_angle_gamma 120.00949
loop_
_atom_site_label
_atom_site_type_symbol
_atom_site_fract_x
_atom_site_fract_y
_atom_site_fract_z
_atom_type_partial_charge
O0 O 0.30534 0.38914 0.10522 0.0
Cd1 Cd 0.28333 0.39573 0.07579 0.0
O2 O 0.32989 0.41058 0.07858 0.0
Cd3 Cd 0.3594 0.42954 0.06338 0.0
O4 O 0.38466 0.44913 0.0362 0.0
C5 C 0.38309 0.44841 0.00637 0.0
O6 O 0.36672 0.43583 0.99371 0.0
C7 C 0.32325 0.398 0.10026 0.0
C8 C 0.26362 0.40593 0.11811 0.0
O9 O 0.25763 0.38836 0.11135 0.0
O10 O 0.27877 0.41873 0.10433 0.0
O11 O 0.9157 0.2967 0.2263 0.0
Cd12 Cd 0.88526 0.27042 0.20779 0.0
O13 O 0.90579 0.31706 0.21734 0.0
Cd14 Cd 0.91024 0.34597 0.21283 0.0
O15 O 0.91359 0.37265 0.19406 0.0
C16 C 0.91337 0.37406 0.16426 0.0
O17 O 0.9113 0.35969 0.14687 0.0
C18 C 0.91869 0.31369 0.2271 0.0
C19 C 0.85977 0.25495 0.25797 0.0
O20 O 0.87143 0.24904 0.25136 0.0
O21 O 0.86001 0.26805 0.24059 0.0
O22 O 0.62036 0.91971 0.42101 0.0
Cd23 Cd 0.61567 0.88998 0.39808 0.0
O24 O 0.59335 0.91463 0.40065 0.0
Cd25 Cd 0.569 0.9186 0.39042 0.0
O26 O 0.54549 0.92116 0.37038 0.0
C27 C 0.54805 0.92961 0.34406 0.0
O28 O 0.56484 0.93685 0.33033 0.0
C29 C 0.60811 0.92503 0.41722 0.0
C30 C 0.60596 0.86264 0.44523 0.0
O31 O 0.62348 0.87432 0.43837 0.0
O32 O 0.59299 0.86371 0.42946 0.0
O33 O 0.69921 0.60798 0.57566 0.0
Cd34 Cd 0.72513 0.60259 0.55953 0.0
O35 O 0.67808 0.57875 0.56178 0.0
Cd36 Cd 0.649 0.55585 0.55181 0.0
O37 O 0.62251 0.534 0.53014 0.0
C38 C 0.61649 0.53836 0.5056 0.0
O39 O 0.62611 0.55594 0.49479 0.0
C40 C 0.68188 0.5948 0.57329 0.0
C41 C 0.74394 0.5995 0.6123 0.0
O42 O 0.74903 0.61579 0.59974 0.0
O43 O 0.73004 0.58462 0.59967 0.0
O44 O 0.10231 0.66315 0.81457 0.0
Cd45 Cd 0.13564 0.67532 0.79984 0.0
O46 O 0.09321 0.6406 0.7791 0.0
Cd47 Cd 0.07309 0.6167 0.74972 0.0
O48 O 0.06044 0.59506 0.71284 0.0
C49 C 0.06362 0.6006 0.68434 0.0
O50 O 0.07367 0.61901 0.6784 0.0
C51 C 0.08896 0.64857 0.80097 0.0
C52 C 0.15969 0.70353 0.84209 0.0
O53 O 0.15417 0.70788 0.81667 0.0
O54 O 0.15402 0.68585 0.84727 0.0
O55 O 0.4223 0.10645 0.95203 0.0
Cd56 Cd 0.43768 0.13889 0.93092 0.0
O57 O 0.43764 0.09779 0.91959 0.0
Cd58 Cd 0.44531 0.07869 0.89532 0.0
O59 O 0.45853 0.06819 0.86198 0.0
C60 C 0.45894 0.07271 0.83319 0.0
O61 O 0.45085 0.0827 0.82498 0.0
C62 C 0.42575 0.09367 0.94197 0.0
C63 C 0.4367 0.16297 0.97689 0.0
O64 O 0.42283 0.15415 0.9575 0.0
O65 O 0.45128 0.16075 0.97407 0.0
O66 O 0.57133 0.67777 0.71005 0.0
Cd67 Cd 0.55828 0.69626 0.73401 0.0
O68 O 0.55109 0.65175 0.73498 0.0
Cd69 Cd 0.53521 0.62194 0.7507 0.0
O70 O 0.51776 0.59577 0.7775 0.0
C71 C 0.52234 0.59511 0.80593 0.0
O72 O 0.53768 0.60988 0.81762 0.0
C73 C 0.56492 0.66015 0.71569 0.0
C74 C 0.56341 0.72516 0.69244 0.0
O75 O 0.57635 0.72776 0.71252 0.0
O76 O 0.54785 0.709 0.69248 0.0
O77 O 0.89452 0.59663 0.92159 0.0
Cd78 Cd 0.86266 0.58822 0.94011 0.0
O79 O 0.89202 0.57088 0.94333 0.0
Cd80 Cd 0.90199 0.55153 0.95894 0.0
O81 O 0.90785 0.53052 0.98082 0.0
C82 C 0.91132 0.53168 0.01019 0.0
O83 O 0.91173 0.54577 0.0263 0.0
C84 C 0.90163 0.58601 0.92716 0.0
C85 C 0.84081 0.58885 0.88983 0.0
O86 O 0.8513 0.60395 0.90598 0.0
O87 O 0.84044 0.57336 0.89776 0.0
O88 O 0.30474 0.90486 0.09948 0.0
Cd89 Cd 0.28535 0.8736 0.12394 0.0
O90 O 0.32999 0.90531 0.11912 0.0
Cd91 Cd 0.36006 0.9174 0.13204 0.0
O92 O 0.38689 0.92393 0.15484 0.0
C93 C 0.38592 0.91818 0.18301 0.0
O94 O 0.36911 0.909 0.19677 0.0
C95 C 0.32278 0.91332 0.10274 0.0
C96 C 0.26556 0.84579 0.07838 0.0
O97 O 0.25793 0.85454 0.09182 0.0
O98 O 0.28251 0.8501 0.08669 0.0
O99 O 0.39678 0.2952 0.2805 0.0
Cd100 Cd 0.40461 0.27148 0.29972 0.0
O101 O 0.42609 0.31823 0.2894 0.0
Cd102 Cd 0.4484 0.3482 0.29331 0.0
O103 O 0.47025 0.37588 0.31144 0.0
C104 C 0.46549 0.38421 0.3319 0.0
O105 O 0.44747 0.37623 0.34044 0.0
C106 C 0.40933 0.31282 0.27934 0.0
C107 C 0.41168 0.25443 0.24842 0.0
O108 O 0.39469 0.248 0.25902 0.0
O109 O 0.42542 0.26876 0.26248 0.0
O110 O 0.10777 0.43665 0.37815 0.0
Cd111 Cd 0.14068 0.4552 0.39677 0.0
O112 O 0.10241 0.46026 0.3874 0.0
Cd113 Cd 0.08408 0.47277 0.3932 0.0
O114 O 0.07163 0.48732 0.41882 0.0
C115 C 0.06055 0.47868 0.4418 0.0
O116 O 0.05609 0.46097 0.44787 0.0
C117 C 0.09651 0.44335 0.37764 0.0
C118 C 0.16453 0.45022 0.35528 0.0
O119 O 0.15628 0.43857 0.37813 0.0
O120 O 0.1618 0.46447 0.35239 0.0
O121 O 0.68712 0.11752 0.55308 0.0
Cd122 Cd 0.70519 0.15121 0.56786 0.0
O123 O 0.65989 0.11584 0.56481 0.0
Cd124 Cd 0.62911 0.10055 0.57366 0.0
O125 O 0.60135 0.08944 0.59654 0.0
C126 C 0.59723 0.07796 0.61955 0.0
O127 O 0.60945 0.0725 0.62782 0.0
C128 C 0.66901 0.10786 0.55475 0.0
C129 C 0.73166 0.17179 0.52084 0.0
O130 O 0.73581 0.16387 0.54328 0.0
O131 O 0.71508 0.17024 0.52093 0.0
C132 C 0.23988 0.39717 0.16174 0.0
C133 C 0.25367 0.41119 0.14185 0.0
C134 C 0.23107 0.40221 0.18515 0.0
C135 C 0.21857 0.43824 0.20728 0.0
H136 H 0.21577 0.41909 0.29205 0.0
C137 C 0.18763 0.46103 0.31018 0.0
C138 C 0.17632 0.44691 0.33229 0.0
C139 C 0.19813 0.45755 0.28763 0.0
C140 C 0.21619 0.42437 0.26844 0.0
H141 H 0.26879 0.44143 0.13049 0.0
H142 H 0.25307 0.45016 0.17115 0.0
H143 H 0.23148 0.41101 0.25075 0.0
H144 H 0.1672 0.41809 0.34819 0.0
H145 H 0.18499 0.41178 0.30843 0.0
H146 H 0.20281 0.45113 0.22454 0.0
C147 C 0.2492 0.4353 0.16865 0.0
C148 C 0.22525 0.41978 0.24484 0.0
C149 C 0.25822 0.43031 0.14548 0.0
C150 C 0.17588 0.42931 0.3316 0.0
C151 C 0.18619 0.42575 0.30887 0.0
C152 C 0.20928 0.44264 0.2308 0.0
C153 C 0.23568 0.42132 0.18889 0.0
C154 C 0.22645 0.4266 0.21401 0.0
C155 C 0.1974 0.43978 0.28648 0.0
C156 C 0.20789 0.43569 0.26167 0.0
H157 H 0.23609 0.38233 0.15958 0.0
H158 H 0.22054 0.39112 0.20025 0.0
H159 H 0.21915 0.44353 0.18362 0.0
H160 H 0.18835 0.47479 0.31023 0.0
H161 H 0.20686 0.46882 0.27116 0.0
C162 C 0.76215 0.1808 0.49237 0.0
C163 C 0.74543 0.18195 0.49513 0.0
C164 C 0.77473 0.18963 0.46727 0.0
C165 C 0.7768 0.20868 0.38703 0.0
H166 H 0.83149 0.23125 0.3988 0.0
C167 C 0.83212 0.25161 0.28979 0.0
C168 C 0.84661 0.24704 0.28513 0.0
C169 C 0.81981 0.24424 0.31563 0.0
C170 C 0.81624 0.22489 0.39514 0.0
H171 H 0.72902 0.19369 0.47416 0.0
H172 H 0.75121 0.20953 0.43083 0.0
H173 H 0.81016 0.21794 0.44394 0.0
H174 H 0.85958 0.23123 0.30398 0.0
H175 H 0.83816 0.21849 0.34919 0.0
H176 H 0.783 0.21588 0.33822 0.0
C177 C 0.7544 0.20141 0.44762 0.0
C178 C 0.80399 0.21721 0.42097 0.0
C179 C 0.74173 0.19244 0.47258 0.0
C180 C 0.84856 0.235 0.30689 0.0
C181 C 0.83638 0.2278 0.33288 0.0
C182 C 0.78907 0.21652 0.36125 0.0
C183 C 0.77098 0.19998 0.44447 0.0
C184 C 0.78409 0.20886 0.41721 0.0
C185 C 0.82187 0.23233 0.3375 0.0
C186 C 0.8089 0.22456 0.36501 0.0
H187 H 0.76536 0.17274 0.50926 0.0
H188 H 0.78718 0.18796 0.46539 0.0
H189 H 0.76155 0.20209 0.38311 0.0
H190 H 0.83026 0.26085 0.27345 0.0
H191 H 0.80884 0.24807 0.31875 0.0
C192 C 0.55192 0.7378 0.6488 0.0
C193 C 0.56667 0.7401 0.6691 0.0
C194 C 0.55531 0.75145 0.62564 0.0
C195 C 0.58983 0.80137 0.60152 0.0
H196 H 0.56738 0.78341 0.51897 0.0
C197 C 0.61511 0.84929 0.49092 0.0
C198 C 0.60088 0.84853 0.47093 0.0
C199 C 0.61031 0.83626 0.51565 0.0
C200 C 0.57359 0.78865 0.54199 0.0
H201 H 0.59649 0.75864 0.68125 0.0
H202 H 0.60253 0.78219 0.64051 0.0
H203 H 0.56006 0.76047 0.56149 0.0
H204 H 0.57044 0.83341 0.46108 0.0
H205 H 0.5621 0.81052 0.50417 0.0
H206 H 0.6037 0.82952 0.58165 0.0
C207 C 0.58822 0.77006 0.64279 0.0
C208 C 0.56935 0.77552 0.56642 0.0
C209 C 0.58479 0.75648 0.66608 0.0
C210 C 0.58175 0.83436 0.47605 0.0
C211 C 0.57697 0.82121 0.50064 0.0
C212 C 0.59417 0.81447 0.57702 0.0
C213 C 0.57357 0.76765 0.62211 0.0
C214 C 0.5775 0.78171 0.59646 0.0
C215 C 0.5912 0.82209 0.52077 0.0
C216 C 0.58617 0.80823 0.54697 0.0
H217 H 0.53776 0.72538 0.65064 0.0
H218 H 0.54361 0.74929 0.61049 0.0
H219 H 0.59608 0.80669 0.62447 0.0
H220 H 0.62998 0.86005 0.48762 0.0
H221 H 0.6216 0.83714 0.53058 0.0
C222 C 0.7673 0.61452 0.65652 0.0
C223 C 0.75363 0.59798 0.64081 0.0
C224 C 0.77617 0.61312 0.68384 0.0
C225 C 0.78801 0.5809 0.72672 0.0
H226 H 0.79355 0.61305 0.79835 0.0
C227 C 0.8172 0.57254 0.84624 0.0
C228 C 0.82979 0.58941 0.8624 0.0
C229 C 0.80724 0.57318 0.81977 0.0
C230 C 0.79233 0.60412 0.77845 0.0
H231 H 0.73866 0.56697 0.64131 0.0
H232 H 0.75424 0.56454 0.68898 0.0
H233 H 0.77776 0.61505 0.75074 0.0
H234 H 0.84175 0.62016 0.86349 0.0
H235 H 0.82468 0.62132 0.81705 0.0
H236 H 0.80283 0.57018 0.75413 0.0
C237 C 0.75812 0.57859 0.68006 0.0
C238 C 0.78325 0.60526 0.7512 0.0
C239 C 0.74914 0.57999 0.65285 0.0
C240 C 0.83208 0.60689 0.85167 0.0
C241 C 0.82221 0.60754 0.82511 0.0
C242 C 0.7972 0.57984 0.75391 0.0
C243 C 0.77166 0.59514 0.69592 0.0
C244 C 0.78105 0.5937 0.72501 0.0
C245 C 0.80971 0.5907 0.80876 0.0
C246 C 0.79953 0.59149 0.78009 0.0
H247 H 0.77109 0.6286 0.64785 0.0
H248 H 0.78671 0.62613 0.69535 0.0
H249 H 0.78671 0.57197 0.70676 0.0
H250 H 0.81505 0.55883 0.854 0.0
H251 H 0.79751 0.5599 0.80805 0.0
C252 C 0.23598 0.82529 0.04698 0.0
C253 C 0.25518 0.83125 0.05378 0.0
C254 C 0.22621 0.81166 0.02359 0.0
C255 C 0.21216 0.79108 0.96128 0.0
H256 H 0.22054 0.7481 0.95168 0.0
C257 C 0.17923 0.73787 0.85824 0.0
C258 C 0.17185 0.71841 0.86515 0.0
C259 C 0.19015 0.75188 0.88048 0.0
C260 C 0.21793 0.75994 0.95418 0.0
H261 H 0.27924 0.82768 0.04123 0.0
H262 H 0.26233 0.8042 2e-05 0.0
H263 H 0.23755 0.77171 0.99262 0.0
H264 H 0.17026 0.6984 0.90076 0.0
H265 H 0.18897 0.72277 0.93976 0.0
H266 H 0.19204 0.77897 0.92357 0.0
C267 C 0.25468 0.80977 0.01315 0.0
C268 C 0.22787 0.77362 0.97741 0.0
C269 C 0.26441 0.82331 0.03667 0.0
C270 C 0.17581 0.71327 0.89465 0.0
C271 C 0.18663 0.72727 0.91696 0.0
C272 C 0.20215 0.77735 0.93815 0.0
C273 C 0.23546 0.80377 0.00631 0.0
C274 C 0.22507 0.78933 0.98132 0.0
C275 C 0.19386 0.74674 0.91022 0.0
C276 C 0.20487 0.76158 0.93436 0.0
H277 H 0.22843 0.83106 0.05984 0.0
H278 H 0.21133 0.80715 0.01932 0.0
H279 H 0.20983 0.80313 0.96333 0.0
H280 H 0.17652 0.7423 0.83565 0.0
H281 H 0.19575 0.76675 0.87431 0.0
C282 C 0.41817 0.17399 0.00925 0.0
C283 C 0.43554 0.17468 0.00263 0.0
C284 C 0.41666 0.184 0.03485 0.0
C285 C 0.44009 0.20584 0.1107 0.0
H286 H 0.40677 0.22751 0.10718 0.0
C287 C 0.43396 0.25091 0.21155 0.0
C288 C 0.41523 0.24585 0.22032 0.0
C289 C 0.43726 0.24305 0.18457 0.0
C290 C 0.41606 0.22144 0.10852 0.0
H291 H 0.46514 0.18692 0.01704 0.0
H292 H 0.46266 0.20486 0.0612 0.0
H293 H 0.41151 0.21312 0.06009 0.0
H294 H 0.38529 0.22863 0.20766 0.0
H295 H 0.3911 0.21509 0.16043 0.0
H296 H 0.44474 0.21443 0.15915 0.0
C297 C 0.45005 0.19618 0.04711 0.0
C298 C 0.41874 0.21314 0.08158 0.0
C299 C 0.45151 0.18601 0.02166 0.0
C300 C 0.39988 0.23279 0.20157 0.0
C301 C 0.4032 0.22513 0.17442 0.0
C302 C 0.43756 0.21434 0.13755 0.0
C303 C 0.43253 0.19511 0.05428 0.0
C304 C 0.4306 0.20501 0.08242 0.0
C305 C 0.42192 0.2302 0.16563 0.0
C306 C 0.42533 0.222 0.13681 0.0
H307 H 0.40557 0.1653 0.99514 0.0
H308 H 0.40286 0.18256 0.03988 0.0
H309 H 0.44908 0.19947 0.11242 0.0
H310 H 0.44608 0.26093 0.22552 0.0
H311 H 0.45183 0.24727 0.17822 0.0
C312 C 0.35384 0.39757 0.11037 0.0
C313 C 0.33566 0.39369 0.1203 0.0
C314 C 0.36492 0.3927 0.12943 0.0
C315 C 0.36796 0.37718 0.21132 0.0
H316 H 0.39548 0.35519 0.17067 0.0
C317 C 0.3859 0.32382 0.27022 0.0
C318 C 0.40432 0.32656 0.26583 0.0
C319 C 0.38034 0.33554 0.25481 0.0
C320 C 0.38811 0.36158 0.18233 0.0
H321 H 0.31479 0.38147 0.15797 0.0
H322 H 0.33361 0.37235 0.19039 0.0
H323 H 0.38041 0.36901 0.13859 0.0
H324 H 0.43136 0.34355 0.24182 0.0
H325 H 0.4215 0.36392 0.2144 0.0
H326 H 0.37481 0.36865 0.25499 0.0
C327 C 0.33973 0.37975 0.16846 0.0
C328 C 0.3795 0.36957 0.16397 0.0
C329 C 0.32879 0.38478 0.14962 0.0
C330 C 0.41722 0.34142 0.24614 0.0
C331 C 0.41153 0.35293 0.23023 0.0
C332 C 0.37632 0.36893 0.22961 0.0
C333 C 0.35794 0.38359 0.15865 0.0
C334 C 0.36896 0.37711 0.1782 0.0
C335 C 0.39297 0.34995 0.2342 0.0
C336 C 0.38617 0.36075 0.21524 0.0
H337 H 0.35933 0.40377 0.08754 0.0
H338 H 0.37889 0.39594 0.1211 0.0
H339 H 0.3604 0.38328 0.22318 0.0
H340 H 0.37567 0.31239 0.28516 0.0
H341 H 0.36588 0.33282 0.258 0.0
C342 C 0.954 0.32923 0.23334 0.0
C343 C 0.93692 0.32915 0.23958 0.0
C344 C 0.97109 0.34285 0.24733 0.0
C345 C 0.99341 0.38817 0.29444 0.0
H346 H 0.02896 0.37098 0.3161 0.0
C347 C 0.0686 0.43918 0.34595 0.0
C348 C 0.07689 0.4314 0.36573 0.0
C349 C 0.05098 0.42729 0.33147 0.0
C350 C 0.0191 0.376 0.31081 0.0
H351 H 0.92414 0.34302 0.26541 0.0
H352 H 0.95375 0.36631 0.29099 0.0
H353 H -0.00036 0.3495 0.28912 0.0
H354 H 0.073 0.40543 0.38733 0.0
H355 H 0.04182 0.38483 0.36381 0.0
H356 H 0.01246 0.41432 0.31791 0.0
C357 C 0.95425 0.35641 0.27437 0.0
C358 C 0.00237 0.36374 0.29456 0.0
C359 C 0.93723 0.34304 0.25975 0.0
C360 C 0.06693 0.41172 0.37195 0.0
C361 C 0.04914 0.39991 0.35814 0.0
C362 C 0.01002 0.40034 0.31129 0.0
C363 C 0.9714 0.35634 0.26869 0.0
C364 C 0.98931 0.36965 0.28592 0.0
C365 C 0.04114 0.40742 0.33696 0.0
C366 C 0.02314 0.39443 0.31966 0.0
H367 H 0.95412 0.31869 0.21771 0.0
H368 H 0.98402 0.34261 0.24157 0.0
H369 H 0.98387 0.39338 0.28794 0.0
H370 H 0.07618 0.45429 0.34039 0.0
H371 H 0.0455 0.43364 0.31505 0.0
C372 C 0.60283 0.95319 0.42136 0.0
C373 C 0.61112 0.94271 0.43289 0.0
C374 C 0.60608 0.96996 0.43647 0.0
C375 C 0.62521 0.99747 0.51133 0.0
H376 H 0.63226 0.04029 0.46012 0.0
C377 C 0.66728 0.07628 0.55067 0.0
C378 C 0.65894 0.08763 0.54505 0.0
C379 C 0.65867 0.05757 0.53934 0.0
C380 C 0.63006 0.02836 0.47474 0.0
H381 H 0.62982 0.94195 0.46883 0.0
H382 H 0.63616 0.97143 0.49422 0.0
H383 H 0.62271 0.00962 0.43518 0.0
H384 H 0.63522 0.0885 0.5229 0.0
H385 H 0.62025 0.05574 0.50254 0.0
H386 H 0.63363 0.01668 0.5506 0.0
C387 C 0.62649 0.96641 0.47432 0.0
C388 C 0.62452 0.01074 0.4605 0.0
C389 C 0.62304 0.94957 0.45947 0.0
C390 C 0.64172 0.0799 0.52811 0.0
C391 C 0.63328 0.06127 0.51622 0.0
C392 C 0.63105 0.01517 0.52544 0.0
C393 C 0.61802 0.97683 0.46312 0.0
C394 C 0.62232 0.99513 0.47854 0.0
C395 C 0.64176 0.05 0.52157 0.0
C396 C 0.63376 0.03082 0.50721 0.0
H397 H 0.59428 0.94885 0.40019 0.0
H398 H 0.59928 0.97755 0.42714 0.0
H399 H 0.6232 0.98569 0.52614 0.0
H400 H 0.68061 0.08196 0.56356 0.0
H401 H 0.66559 0.04923 0.5435 0.0
C402 C 0.58474 0.65842 0.6722 0.0
C403 C 0.57358 0.65011 0.69925 0.0
C404 C 0.59376 0.64981 0.65689 0.0
C405 C 0.61023 0.61495 0.66998 0.0
H406 H 0.61921 0.62142 0.57988 0.0
C407 C 0.65062 0.58416 0.60023 0.0
C408 C 0.66652 0.59831 0.58382 0.0
C409 C 0.63696 0.58817 0.61266 0.0
C410 C 0.61672 0.61946 0.60503 0.0
H411 H 0.56379 0.62636 0.73184 0.0
H412 H 0.57852 0.61071 0.70415 0.0
H413 H 0.59889 0.63199 0.60479 0.0
H414 H 0.68051 0.62752 0.56692 0.0
H415 H 0.65633 0.63436 0.58785 0.0
H416 H 0.62798 0.60218 0.66984 0.0
C417 C 0.58047 0.62407 0.69492 0.0
C418 C 0.60521 0.62563 0.61941 0.0
C419 C 0.57162 0.63286 0.71052 0.0
C420 C 0.66832 0.61636 0.57937 0.0
C421 C 0.65448 0.62023 0.5912 0.0
C422 C 0.62147 0.60847 0.65546 0.0
C423 C 0.59177 0.63251 0.66799 0.0
C424 C 0.60221 0.62393 0.65222 0.0
C425 C 0.63884 0.60627 0.60834 0.0
C426 C 0.62516 0.61107 0.623 0.0
H427 H 0.58671 0.67178 0.66291 0.0
H428 H 0.6027 0.65707 0.63676 0.0
H429 H 0.6085 0.6136 0.6953 0.0
H430 H 0.64912 0.57027 0.60453 0.0
H431 H 0.62503 0.57721 0.62587 0.0
C432 C 0.92538 0.57765 0.90536 0.0
C433 C 0.92083 0.59153 0.91497 0.0
C434 C 0.94323 0.5831 0.89204 0.0
C435 C 0.98388 0.62407 0.85212 0.0
H436 H 0.01114 0.59731 0.87251 0.0
C437 C 0.06342 0.65408 0.8225 0.0
C438 C 0.06895 0.64133 0.81071 0.0
C439 C 0.04483 0.64736 0.83339 0.0
C440 C 0.00358 0.60476 0.86629 0.0
H441 H 0.93133 0.62195 0.91835 0.0
H442 H 0.96257 0.6315 0.89578 0.0
H443 H 0.97985 0.58684 0.89599 0.0
H444 H 0.05955 0.61148 0.80209 0.0
H445 H 0.0269 0.5997 0.82075 0.0
H446 H 0.00776 0.64219 0.82286 0.0
C447 C 0.95231 0.6164 0.89801 0.0
C448 C 0.98566 0.59877 0.87973 0.0
C449 C 0.93446 0.61094 0.91114 0.0
C450 C 0.05554 0.62169 0.81013 0.0
C451 C 0.03694 0.61493 0.82129 0.0
C452 C 0.00182 0.6301 0.83883 0.0
C453 C 0.95686 0.60255 0.888 0.0
C454 C 0.97566 0.60847 0.87302 0.0
C455 C 0.03142 0.6277 0.83311 0.0
C456 C 0.01193 0.62062 0.84596 0.0
H457 H 0.91492 0.56259 0.90698 0.0
H458 H 0.94613 0.57207 0.88409 0.0
H459 H 0.9764 0.6316 0.84586 0.0
H460 H 0.07352 0.66929 0.82343 0.0
H461 H 0.04108 0.65753 0.84276 0.0
C462 C 0.39766 0.06777 0.97002 0.0
C463 C 0.41575 0.07444 0.95641 0.0
C464 C 0.38851 0.05029 0.98582 0.0
C465 C 0.38795 0.00459 0.99611 0.0
H466 H 0.36114 0.00227 0.07326 0.0
C467 C 0.35334 0.93779 0.07717 0.0
C468 C 0.33484 0.93221 0.08798 0.0
C469 C 0.36426 0.95534 0.06188 0.0
C470 C 0.36845 0.00265 0.05166 0.0
H471 H 0.43862 0.06819 0.9493 0.0
H472 H 0.42256 0.03749 0.97675 0.0
H473 H 0.37814 0.0323 0.0445 0.0
H474 H 0.31318 0.94048 0.09103 0.0
H475 H 0.33218 0.97107 0.06442 0.0
H476 H 0.37816 0.97484 0.0034 0.0
C477 C 0.41529 0.04563 0.9746 0.0
C478 C 0.37817 0.01984 0.03512 0.0
C479 C 0.42444 0.06316 0.95866 0.0
C480 C 0.32746 0.94448 0.08316 0.0
C481 C 0.33839 0.96204 0.0681 0.0
C482 C 0.37825 0.98736 0.01275 0.0
C483 C 0.3973 0.03912 0.98869 0.0
C484 C 0.3878 0.02097 0.00691 0.0
C485 C 0.35689 0.96766 0.0572 0.0
C486 C 0.36819 0.98616 0.04049 0.0
H487 H 0.39058 0.07613 0.9686 0.0
H488 H 0.37451 0.04554 0.99584 0.0
H489 H 0.3951 0.00494 0.97435 0.0
H490 H 0.35918 0.92837 0.07962 0.0
H491 H 0.37848 0.95928 0.05375 0.0
C492 C 0.41649 0.47589 0.99947 0.0
C493 C 0.39905 0.46209 0.98617 0.0
C494 C 0.43119 0.48933 0.98036 0.0
C495 C 0.448 0.4995 0.89749 0.0
H496 H 0.47456 0.55223 0.92563 0.0
C497 C 0.49295 0.56316 0.81432 0.0
C498 C 0.50991 0.57857 0.82623 0.0
C499 C 0.48064 0.54815 0.83407 0.0
C500 C 0.4675 0.53754 0.91761 0.0
H501 H 0.3835 0.45139 0.94229 0.0
H502 H 0.40898 0.47493 0.90911 0.0
H503 H 0.45095 0.52748 0.95983 0.0
H504 H 0.52751 0.58999 0.86803 0.0
H505 H 0.5061 0.56375 0.90236 0.0
H506 H 0.46436 0.50967 0.85501 0.0
C507 C 0.41143 0.47523 0.93424 0.0
C508 C 0.45396 0.52333 0.93724 0.0
C509 C 0.39676 0.4618 0.95332 0.0
C510 C 0.51451 0.5784 0.85812 0.0
C511 C 0.5022 0.56341 0.87786 0.0
C512 C 0.46153 0.51372 0.87783 0.0
C513 C 0.42876 0.48927 0.94754 0.0
C514 C 0.44392 0.50417 0.92732 0.0
C515 C 0.48501 0.54823 0.86615 0.0
C516 C 0.47132 0.53293 0.88757 0.0
H517 H 0.41875 0.47644 0.02469 0.0
H518 H 0.44445 0.49978 0.99132 0.0
H519 H 0.44074 0.48484 0.88933 0.0
H520 H 0.48897 0.56285 0.78987 0.0
H521 H 0.46742 0.53677 0.82438 0.0
C522 C 0.91696 0.51778 0.05905 0.0
C523 C 0.91392 0.51688 0.02634 0.0
C524 C 0.91851 0.50335 0.07457 0.0
C525 C 0.92792 0.46352 0.06138 0.0
H526 H 0.90018 0.44405 0.13977 0.0
C527 C 0.91398 0.39239 0.11631 0.0
C528 C 0.91502 0.39138 0.14924 0.0
C529 C 0.91513 0.40851 0.10199 0.0
C530 C 0.90824 0.4495 0.11815 0.0
H531 H 0.91049 0.50028 0.98418 0.0
H532 H 0.91307 0.47506 0.01129 0.0
H533 H 0.90007 0.47082 0.11348 0.0
H534 H 0.91837 0.40664 0.19296 0.0
H535 H 0.92057 0.43487 0.1679 0.0
H536 H 0.93596 0.44209 0.06592 0.0
C537 C 0.91443 0.48701 0.02492 0.0
C538 C 0.90817 0.46484 0.10307 0.0
C539 C 0.91284 0.50142 0.0094 0.0
C540 C 0.91743 0.40693 0.16753 0.0
C541 C 0.9186 0.42308 0.15319 0.0
C542 C 0.92801 0.44819 0.07648 0.0
C543 C 0.91711 0.48772 0.05772 0.0
C544 C 0.91789 0.47194 0.07438 0.0
C545 C 0.91739 0.42402 0.12024 0.0
C546 C 0.91804 0.44089 0.10492 0.0
H547 H 0.91794 0.52953 0.0728 0.0
H548 H 0.92084 0.50445 0.09979 0.0
H549 H 0.93579 0.46884 0.03956 0.0
H550 H 0.91207 0.38065 0.1015 0.0
H551 H 0.91386 0.40863 0.0766 0.0
C552 C 0.51402 0.92233 0.34254 0.0
C553 C 0.53215 0.93052 0.32838 0.0
C554 C 0.49883 0.92252 0.3271 0.0
C555 C 0.48243 0.92622 0.24781 0.0
H556 H 0.44619 0.93528 0.29365 0.0
C557 C 0.42129 0.93078 0.18523 0.0
C558 C 0.40328 0.92127 0.19988 0.0
C559 C 0.43755 0.93318 0.201 0.0
C560 C 0.4561 0.93256 0.28056 0.0
H561 H 0.54864 0.9457 0.28712 0.0
H562 H 0.52218 0.94615 0.26033 0.0
H563 H 0.47362 0.93722 0.32117 0.0
H564 H 0.38826 0.90696 0.24271 0.0
H565 H 0.41653 0.91096 0.27001 0.0
H566 H 0.46481 0.92135 0.20729 0.0
C567 C 0.51964 0.93935 0.2832 0.0
C568 C 0.47181 0.93368 0.29634 0.0
C569 C 0.53484 0.93918 0.29865 0.0
C570 C 0.40192 0.91439 0.23074 0.0
C571 C 0.41816 0.9168 0.2465 0.0
C572 C 0.46671 0.92509 0.23205 0.0
C573 C 0.50143 0.9309 0.29714 0.0
C574 C 0.48509 0.9304 0.28019 0.0
C575 C 0.43615 0.92614 0.23178 0.0
C576 C 0.45328 0.92812 0.24828 0.0
H577 H 0.51146 0.91552 0.36541 0.0
H578 H 0.48493 0.9157 0.33834 0.0
H579 H 0.49223 0.92334 0.23478 0.0
H580 H 0.42284 0.93631 0.1615 0.0
H581 H 0.45124 0.94065 0.18915 0.0
C582 C 0.58971 0.50462 0.49912 0.0
C583 C 0.59954 0.52363 0.48843 0.0
C584 C 0.57431 0.49054 0.48202 0.0
C585 C 0.55408 0.47968 0.40193 0.0
H586 H 0.50948 0.43952 0.44422 0.0
C587 C 0.49963 0.40974 0.33998 0.0
C588 C 0.48018 0.40186 0.34757 0.0
C589 C 0.51359 0.42565 0.35627 0.0
C590 C 0.52174 0.45074 0.43201 0.0
H591 H 0.60061 0.54285 0.45172 0.0
H592 H 0.57364 0.51831 0.42205 0.0
H593 H 0.53452 0.46539 0.47503 0.0
H594 H 0.46013 0.40489 0.37761 0.0
H595 H 0.48449 0.43276 0.40579 0.0
H596 H 0.54123 0.46509 0.35889 0.0
C597 C 0.57801 0.51424 0.44344 0.0
C598 C 0.53619 0.46545 0.44971 0.0
C599 C 0.5934 0.52832 0.46056 0.0
C600 C 0.47499 0.41054 0.37127 0.0
C601 C 0.48895 0.42645 0.38757 0.0
C602 C 0.53963 0.46496 0.38423 0.0
C603 C 0.56839 0.49516 0.45382 0.0
C604 C 0.55261 0.48 0.43491 0.0
C605 C 0.50843 0.43405 0.38051 0.0
C606 C 0.52336 0.45023 0.39909 0.0
H607 H 0.59408 0.50051 0.52048 0.0
H608 H 0.56736 0.47594 0.49048 0.0
H609 H 0.56662 0.49058 0.38982 0.0
H610 H 0.50413 0.40339 0.32187 0.0
H611 H 0.52847 0.43102 0.35047 0.0
C612 C 0.06306 0.59277 0.62716 0.0
C613 C 0.05765 0.58655 0.65834 0.0
C614 C 0.05903 0.57958 0.60294 0.0
C615 C 0.05026 0.53081 0.59076 0.0
H616 H 0.03917 0.53899 0.50513 0.0
C617 C 0.0441 0.48006 0.4909 0.0
C618 C 0.05475 0.48911 0.46373 0.0
C619 C 0.04062 0.49047 0.51361 0.0
C620 C 0.04229 0.53654 0.52893 0.0
H621 H 0.04289 0.56154 0.68828 0.0
H622 H 0.03562 0.53851 0.64593 0.0
H623 H 0.03983 0.55992 0.54724 0.0
H624 H 0.0692 0.516 0.4383 0.0
H625 H 0.06326 0.53417 0.478 0.0
H626 H 0.05316 0.50775 0.57246 0.0
C627 C 0.04332 0.55362 0.6403 0.0
C628 C 0.04269 0.54853 0.55304 0.0
C629 C 0.0474 0.56682 0.66455 0.0
C630 C 0.061 0.50859 0.45901 0.0
C631 C 0.05749 0.519 0.4817 0.0
C632 C 0.04981 0.51882 0.56671 0.0
C633 C 0.04942 0.55985 0.60931 0.0
C634 C 0.04701 0.54601 0.58416 0.0
C635 C 0.04767 0.51015 0.50961 0.0
C636 C 0.04614 0.52173 0.53543 0.0
H637 H 0.07096 0.60787 0.62153 0.0
H638 H 0.06414 0.58491 0.57945 0.0
H639 H 0.05395 0.52863 0.61433 0.0
H640 H 0.03894 0.46503 0.49517 0.0
H641 H 0.03274 0.48318 0.53463 0.0
C642 C 0.56732 0.07903 0.63095 0.0
C643 C 0.57988 0.07234 0.63867 0.0
C644 C 0.55196 0.07522 0.65067 0.0
C645 C 0.53773 0.06504 0.73355 0.0
H646 H 0.4885 0.05525 0.70247 0.0
C647 C 0.47898 0.05816 0.81844 0.0
C648 C 0.46969 0.06825 0.80971 0.0
C649 C 0.49041 0.05537 0.79681 0.0
C650 C 0.5022 0.05807 0.7115 0.0
H651 H 0.58561 0.05565 0.67244 0.0
H652 H 0.55876 0.04895 0.70673 0.0
H653 H 0.51216 0.05623 0.66558 0.0
H654 H 0.4646 0.08273 0.77106 0.0
H655 H 0.48471 0.07814 0.7336 0.0
H656 H 0.52808 0.06745 0.77928 0.0
C657 C 0.56096 0.05736 0.68565 0.0
C658 C 0.51575 0.05861 0.69037 0.0
C659 C 0.5763 0.06113 0.6659 0.0
C660 C 0.47156 0.07491 0.77859 0.0
C661 C 0.48301 0.07215 0.757 0.0
C662 C 0.52423 0.06456 0.75464 0.0
C663 C 0.54883 0.06466 0.67856 0.0
C664 C 0.53376 0.06238 0.70111 0.0
C665 C 0.49282 0.06262 0.76598 0.0
C666 C 0.50641 0.06135 0.74383 0.0
H667 H 0.56965 0.08768 0.61012 0.0
H668 H 0.543 0.08121 0.64468 0.0
H669 H 0.55158 0.06827 0.74254 0.0
H670 H 0.47774 0.05273 0.84218 0.0
H671 H 0.49754 0.04771 0.80435 0.0
loop_
_geom_bond_atom_site_label_1
_geom_bond_atom_site_label_2
_geom_bond_distance
_geom_bond_site_symmetry_2
_ccdc_geom_bond_type
O0 Cd1 2.300 . S
O0 C7 1.275 . S
Cd1 O0 2.300 . S
Cd1 O9 2.381 . S
Cd1 O10 2.378 . S
O2 Cd3 2.385 . S
O2 C7 1.255 . S
Cd3 O2 2.385 . S
Cd3 O4 2.317 . S
O4 Cd3 2.317 . S
O4 C5 1.232 . S
C5 O4 1.232 . S
C5 O6 1.218 . S
O6 C5 1.218 . S
C7 O0 1.275 . S
C7 O2 1.255 . S
C8 O9 1.258 . S
C8 O10 1.256 . S
O9 Cd1 2.381 . S
O9 C8 1.258 . S
O10 Cd1 2.378 . S
O10 C8 1.256 . S
O11 Cd12 2.300 . S
O11 C18 1.275 . S
Cd12 O11 2.300 . S
Cd12 O20 2.381 . S
Cd12 O21 2.378 . S
O13 Cd14 2.385 . S
O13 C18 1.255 . S
Cd14 O13 2.385 . S
Cd14 O15 2.317 . S
O15 Cd14 2.317 . S
O15 C16 1.232 . S
C16 O15 1.232 . S
C16 O17 1.218 . S
O17 C16 1.218 . S
C18 O11 1.275 . S
C18 O13 1.255 . S
C19 O20 1.258 . S
C19 O21 1.256 . S
O20 Cd12 2.381 . S
O20 C19 1.258 . S
O21 Cd12 2.378 . S
O21 C19 1.256 . S
O22 Cd23 2.300 . S
O22 C29 1.275 . S
Cd23 O22 2.300 . S
Cd23 O31 2.381 . S
Cd23 O32 2.378 . S
O24 Cd25 2.385 . S
O24 C29 1.255 . S
Cd25 O24 2.385 . S
Cd25 O26 2.317 . S
O26 Cd25 2.317 . S
O26 C27 1.232 . S
C27 O26 1.232 . S
C27 O28 1.218 . S
O28 C27 1.218 . S
C29 O22 1.275 . S
C29 O24 1.255 . S
C30 O31 1.258 . S
C30 O32 1.256 . S
O31 Cd23 2.381 . S
O31 C30 1.258 . S
O32 Cd23 2.378 . S
O32 C30 1.256 . S
O33 Cd34 2.300 . S
O33 C40 1.275 . S
Cd34 O33 2.300 . S
Cd34 O42 2.381 . S
Cd34 O43 2.378 . S
O35 Cd36 2.385 . S
O35 C40 1.255 . S
Cd36 O35 2.385 . S
Cd36 O37 2.317 . S
O37 Cd36 2.317 . S
O37 C38 1.232 . S
C38 O37 1.232 . S
C38 O39 1.218 . S
O39 C38 1.218 . S
C40 O33 1.275 . S
C40 O35 1.255 . S
C41 O42 1.258 . S
C41 O43 1.256 . S
O42 Cd34 2.381 . S
O42 C41 1.258 . S
O43 Cd34 2.378 . S
O43 C41 1.256 . S
O44 Cd45 2.300 . S
O44 C51 1.275 . S
Cd45 O44 2.300 . S
Cd45 O53 2.381 . S
Cd45 O54 2.378 . S
O46 Cd47 2.385 . S
O46 C51 1.255 . S
Cd47 O46 2.385 . S
Cd47 O48 2.317 . S
O48 Cd47 2.317 . S
O48 C49 1.232 . S
C49 O48 1.232 . S
C49 O50 1.218 . S
O50 C49 1.218 . S
C51 O44 1.275 . S
C51 O46 1.255 . S
C52 O53 1.258 . S
C52 O54 1.256 . S
O53 Cd45 2.381 . S
O53 C52 1.258 . S
O54 Cd45 2.378 . S
O54 C52 1.256 . S
O55 Cd56 2.300 . S
O55 C62 1.275 . S
Cd56 O55 2.300 . S
Cd56 O64 2.381 . S
Cd56 O65 2.378 . S
O57 Cd58 2.385 . S
O57 C62 1.255 . S
Cd58 O57 2.385 . S
Cd58 O59 2.317 . S
O59 Cd58 2.317 . S
O59 C60 1.232 . S
C60 O59 1.232 . S
C60 O61 1.218 . S
O61 C60 1.218 . S
C62 O55 1.275 . S
C62 O57 1.255 . S
C63 O64 1.258 . S
C63 O65 1.256 . S
O64 Cd56 2.381 . S
O64 C63 1.258 . S
O65 Cd56 2.378 . S
O65 C63 1.256 . S
O66 Cd67 2.300 . S
O66 C73 1.275 . S
Cd67 O66 2.300 . S
Cd67 O75 2.381 . S
Cd67 O76 2.378 . S
O68 Cd69 2.385 . S
O68 C73 1.255 . S
Cd69 O68 2.385 . S
Cd69 O70 2.317 . S
O70 Cd69 2.317 . S
O70 C71 1.232 . S
C71 O70 1.232 . S
C71 O72 1.218 . S
O72 C71 1.218 . S
C73 O66 1.275 . S
C73 O68 1.255 . S
C74 O75 1.258 . S
C74 O76 1.256 . S
O75 Cd67 2.381 . S
O75 C74 1.258 . S
O76 Cd67 2.378 . S
O76 C74 1.256 . S
O77 Cd78 2.300 . S
O77 C84 1.275 . S
Cd78 O77 2.300 . S
Cd78 O86 2.381 . S
Cd78 O87 2.378 . S
O79 Cd80 2.385 . S
O79 C84 1.255 . S
Cd80 O79 2.385 . S
Cd80 O81 2.317 . S
O81 Cd80 2.317 . S
O81 C82 1.232 . S
C82 O81 1.232 . S
C82 O83 1.218 . S
O83 C82 1.218 . S
C84 O77 1.275 . S
C84 O79 1.255 . S
C85 O86 1.258 . S
C85 O87 1.256 . S
O86 Cd78 2.381 . S
O86 C85 1.258 . S
O87 Cd78 2.378 . S
O87 C85 1.256 . S
O88 Cd89 2.300 . S
O88 C95 1.275 . S
Cd89 O88 2.300 . S
Cd89 O97 2.381 . S
Cd89 O98 2.378 . S
O90 Cd91 2.385 . S
O90 C95 1.255 . S
Cd91 O90 2.385 . S
Cd91 O92 2.317 . S
O92 Cd91 2.317 . S
O92 C93 1.232 . S
C93 O92 1.232 . S
C93 O94 1.218 . S
O94 C93 1.218 . S
C95 O88 1.275 . S
C95 O90 1.255 . S
C96 O97 1.258 . S
C96 O98 1.256 . S
O97 Cd89 2.381 . S
O97 C96 1.258 . S
O98 Cd89 2.378 . S
O98 C96 1.256 . S
O99 Cd100 2.300 . S
O99 C106 1.275 . S
Cd100 O99 2.300 . S
Cd100 O108 2.381 . S
Cd100 O109 2.378 . S
O101 Cd102 2.385 . S
O101 C106 1.255 . S
Cd102 O101 2.385 . S
Cd102 O103 2.317 . S
O103 Cd102 2.317 . S
O103 C104 1.232 . S
C104 O103 1.232 . S
C104 O105 1.218 . S
O105 C104 1.218 . S
C106 O99 1.275 . S
C106 O101 1.255 . S
C107 O108 1.258 . S
C107 O109 1.256 . S
O108 Cd100 2.381 . S
O108 C107 1.258 . S
O109 Cd100 2.378 . S
O109 C107 1.256 . S
O110 Cd111 2.300 . S
O110 C117 1.275 . S
Cd111 O110 2.300 . S
Cd111 O119 2.381 . S
Cd111 O120 2.378 . S
O112 Cd113 2.385 . S
O112 C117 1.255 . S
Cd113 O112 2.385 . S
Cd113 O114 2.317 . S
O114 Cd113 2.317 . S
O114 C115 1.232 . S
C115 O114 1.232 . S
C115 O116 1.218 . S
O116 C115 1.218 . S
C117 O110 1.275 . S
C117 O112 1.255 . S
C118 O119 1.258 . S
C118 O120 1.256 . S
O119 Cd111 2.381 . S
O119 C118 1.258 . S
O120 Cd111 2.378 . S
O120 C118 1.256 . S
O121 Cd122 2.300 . S
O121 C128 1.275 . S
Cd122 O121 2.300 . S
Cd122 O130 2.381 . S
Cd122 O131 2.378 . S
O123 Cd124 2.385 . S
O123 C128 1.255 . S
Cd124 O123 2.385 . S
Cd124 O125 2.317 . S
O125 Cd124 2.317 . S
O125 C126 1.232 . S
C126 O125 1.232 . S
C126 O127 1.218 . S
O127 C126 1.218 . S
C128 O121 1.275 . S
C128 O123 1.255 . S
C129 O130 1.258 . S
C129 O131 1.256 . S
O130 Cd122 2.381 . S
O130 C129 1.258 . S
O131 Cd122 2.378 . S
O131 C129 1.256 . S
C132 C133 1.349 . S
C132 C134 1.327 . S
C132 H157 0.950 . S
C133 C132 1.349 . S
C133 C149 1.349 . S
C134 C132 1.327 . S
C134 C153 1.429 . S
C134 H158 0.950 . S
C135 C152 1.574 . S
C135 C154 1.368 . S
C135 H159 0.949 . S
H136 C140 0.949 . S
C137 C138 1.349 . S
C137 C139 1.327 . S
C137 H160 0.950 . S
C138 C137 1.349 . S
C138 C150 1.349 . S
C139 C137 1.327 . S
C139 C155 1.429 . S
C139 H161 0.950 . S
C140 H136 0.949 . S
C140 C148 1.574 . S
C140 C156 1.368 . S
H141 C149 0.950 . S
H142 C147 0.950 . S
H143 C148 0.949 . S
H144 C150 0.950 . S
H145 C151 0.950 . S
H146 C152 0.949 . S
C147 H142 0.950 . S
C147 C149 1.327 . S
C147 C153 1.429 . S
C148 C140 1.574 . S
C148 H143 0.949 . S
C148 C154 1.368 . S
C149 C133 1.349 . S
C149 H141 0.950 . S
C149 C147 1.327 . S
C150 C138 1.349 . S
C150 H144 0.950 . S
C150 C151 1.327 . S
C151 H145 0.950 . S
C151 C150 1.327 . S
C151 C155 1.429 . S
C152 C135 1.574 . S
C152 H146 0.949 . S
C152 C156 1.368 . S
C153 C134 1.429 . S
C153 C147 1.429 . S
C153 C154 1.523 . S
C154 C135 1.368 . S
C154 C148 1.368 . S
C154 C153 1.523 . S
C155 C139 1.429 . S
C155 C151 1.429 . S
C155 C156 1.523 . S
C156 C140 1.368 . S
C156 C152 1.368 . S
C156 C155 1.523 . S
H157 C132 0.950 . S
H158 C134 0.950 . S
H159 C135 0.949 . S
H160 C137 0.950 . S
H161 C139 0.950 . S
C162 C163 1.349 . S
C162 C164 1.327 . S
C162 H187 0.950 . S
C163 C162 1.349 . S
C163 C179 1.349 . S
C164 C162 1.327 . S
C164 C183 1.429 . S
C164 H188 0.950 . S
C165 C182 1.574 . S
C165 C184 1.368 . S
C165 H189 0.949 . S
H166 C170 0.949 . S
C167 C168 1.349 . S
C167 C169 1.327 . S
C167 H190 0.950 . S
C168 C167 1.349 . S
C168 C180 1.349 . S
C169 C167 1.327 . S
C169 C185 1.429 . S
C169 H191 0.950 . S
C170 H166 0.949 . S
C170 C178 1.574 . S
C170 C186 1.368 . S
H171 C179 0.950 . S
H172 C177 0.950 . S
H173 C178 0.949 . S
H174 C180 0.950 . S
H175 C181 0.950 . S
H176 C182 0.949 . S
C177 H172 0.950 . S
C177 C179 1.327 . S
C177 C183 1.429 . S
C178 C170 1.574 . S
C178 H173 0.949 . S
C178 C184 1.368 . S
C179 C163 1.349 . S
C179 H171 0.950 . S
C179 C177 1.327 . S
C180 C168 1.349 . S
C180 H174 0.950 . S
C180 C181 1.327 . S
C181 H175 0.950 . S
C181 C180 1.327 . S
C181 C185 1.429 . S
C182 C165 1.574 . S
C182 H176 0.949 . S
C182 C186 1.368 . S
C183 C164 1.429 . S
C183 C177 1.429 . S
C183 C184 1.523 . S
C184 C165 1.368 . S
C184 C178 1.368 . S
C184 C183 1.523 . S
C185 C169 1.429 . S
C185 C181 1.429 . S
C185 C186 1.523 . S
C186 C170 1.368 . S
C186 C182 1.368 . S
C186 C185 1.523 . S
H187 C162 0.950 . S
H188 C164 0.950 . S
H189 C165 0.949 . S
H190 C167 0.950 . S
H191 C169 0.950 . S
C192 C193 1.349 . S
C192 C194 1.327 . S
C192 H217 0.950 . S
C193 C192 1.349 . S
C193 C209 1.349 . S
C194 C192 1.327 . S
C194 C213 1.429 . S
C194 H218 0.950 . S
C195 C212 1.574 . S
C195 C214 1.368 . S
C195 H219 0.949 . S
H196 C200 0.949 . S
C197 C198 1.349 . S
C197 C199 1.327 . S
C197 H220 0.950 . S
C198 C197 1.349 . S
C198 C210 1.349 . S
C199 C197 1.327 . S
C199 C215 1.429 . S
C199 H221 0.950 . S
C200 H196 0.949 . S
C200 C208 1.574 . S
C200 C216 1.368 . S
H201 C209 0.950 . S
H202 C207 0.950 . S
H203 C208 0.949 . S
H204 C210 0.950 . S
H205 C211 0.950 . S
H206 C212 0.949 . S
C207 H202 0.950 . S
C207 C209 1.327 . S
C207 C213 1.429 . S
C208 C200 1.574 . S
C208 H203 0.949 . S
C208 C214 1.368 . S
C209 C193 1.349 . S
C209 H201 0.950 . S
C209 C207 1.327 . S
C210 C198 1.349 . S
C210 H204 0.950 . S
C210 C211 1.327 . S
C211 H205 0.950 . S
C211 C210 1.327 . S
C211 C215 1.429 . S
C212 C195 1.574 . S
C212 H206 0.949 . S
C212 C216 1.368 . S
C213 C194 1.429 . S
C213 C207 1.429 . S
C213 C214 1.523 . S
C214 C195 1.368 . S
C214 C208 1.368 . S
C214 C213 1.523 . S
C215 C199 1.429 . S
C215 C211 1.429 . S
C215 C216 1.523 . S
C216 C200 1.368 . S
C216 C212 1.368 . S
C216 C215 1.523 . S
H217 C192 0.950 . S
H218 C194 0.950 . S
H219 C195 0.949 . S
H220 C197 0.950 . S
H221 C199 0.950 . S
C222 C223 1.349 . S
C222 C224 1.327 . S
C222 H247 0.950 . S
C223 C222 1.349 . S
C223 C239 1.349 . S
C224 C222 1.327 . S
C224 C243 1.429 . S
C224 H248 0.950 . S
C225 C242 1.574 . S
C225 C244 1.368 . S
C225 H249 0.949 . S
H226 C230 0.949 . S
C227 C228 1.349 . S
C227 C229 1.327 . S
C227 H250 0.950 . S
C228 C227 1.349 . S
C228 C240 1.349 . S
C229 C227 1.327 . S
C229 C245 1.429 . S
C229 H251 0.950 . S
C230 H226 0.949 . S
C230 C238 1.574 . S
C230 C246 1.368 . S
H231 C239 0.950 . S
H232 C237 0.950 . S
H233 C238 0.949 . S
H234 C240 0.950 . S
H235 C241 0.950 . S
H236 C242 0.949 . S
C237 H232 0.950 . S
C237 C239 1.327 . S
C237 C243 1.429 . S
C238 C230 1.574 . S
C238 H233 0.949 . S
C238 C244 1.368 . S
C239 C223 1.349 . S
C239 H231 0.950 . S
C239 C237 1.327 . S
C240 C228 1.349 . S
C240 H234 0.950 . S
C240 C241 1.327 . S
C241 H235 0.950 . S
C241 C240 1.327 . S
C241 C245 1.429 . S
C242 C225 1.574 . S
C242 H236 0.949 . S
C242 C246 1.368 . S
C243 C224 1.429 . S
C243 C237 1.429 . S
C243 C244 1.523 . S
C244 C225 1.368 . S
C244 C238 1.368 . S
C244 C243 1.523 . S
C245 C229 1.429 . S
C245 C241 1.429 . S
C245 C246 1.523 . S
C246 C230 1.368 . S
C246 C242 1.368 . S
C246 C245 1.523 . S
H247 C222 0.950 . S
H248 C224 0.950 . S
H249 C225 0.949 . S
H250 C227 0.950 . S
H251 C229 0.950 . S
C252 C253 1.349 1_554 S
C252 C254 1.327 1_554 S
C252 H277 0.950 . S
C253 C252 1.349 1_556 S
C253 C269 1.349 . S
C254 C252 1.327 1_556 S
C254 C273 1.429 . S
C254 H278 0.950 . S
C255 C272 1.574 . S
C255 C274 1.368 . S
C255 H279 0.949 . S
H256 C260 0.949 . S
C257 C258 1.349 . S
C257 C259 1.327 . S
C257 H280 0.950 . S
C258 C257 1.349 . S
C258 C270 1.349 . S
C259 C257 1.327 . S
C259 C275 1.429 . S
C259 H281 0.950 . S
C260 H256 0.949 . S
C260 C268 1.574 . S
C260 C276 1.368 . S
H261 C269 0.950 . S
H262 C267 0.950 . S
H263 C268 0.949 . S
H264 C270 0.950 . S
H265 C271 0.950 . S
H266 C272 0.949 . S
C267 H262 0.950 . S
C267 C269 1.327 . S
C267 C273 1.429 . S
C268 C260 1.574 . S
C268 H263 0.949 . S
C268 C274 1.368 . S
C269 C253 1.349 . S
C269 H261 0.950 . S
C269 C267 1.327 . S
C270 C258 1.349 . S
C270 H264 0.950 . S
C270 C271 1.327 . S
C271 H265 0.950 . S
C271 C270 1.327 . S
C271 C275 1.429 . S
C272 C255 1.574 . S
C272 H266 0.949 . S
C272 C276 1.368 . S
C273 C254 1.429 . S
C273 C267 1.429 . S
C273 C274 1.523 . S
C274 C255 1.368 . S
C274 C268 1.368 . S
C274 C273 1.523 . S
C275 C259 1.429 . S
C275 C271 1.429 . S
C275 C276 1.523 . S
C276 C260 1.368 . S
C276 C272 1.368 . S
C276 C275 1.523 . S
H277 C252 0.950 . S
H278 C254 0.950 . S
H279 C255 0.949 . S
H280 C257 0.950 . S
H281 C259 0.950 . S
C282 C283 1.349 1_556 S
C282 C284 1.327 1_556 S
C282 H307 0.950 . S
C283 C282 1.349 1_554 S
C283 C299 1.349 . S
C284 C282 1.327 1_554 S
C284 C303 1.429 . S
C284 H308 0.950 . S
C285 C302 1.574 . S
C285 C304 1.368 . S
C285 H309 0.949 . S
H286 C290 0.949 . S
C287 C288 1.349 . S
C287 C289 1.327 . S
C287 H310 0.950 . S
C288 C287 1.349 . S
C288 C300 1.349 . S
C289 C287 1.327 . S
C289 C305 1.429 . S
C289 H311 0.950 . S
C290 H286 0.949 . S
C290 C298 1.574 . S
C290 C306 1.368 . S
H291 C299 0.950 . S
H292 C297 0.950 . S
H293 C298 0.949 . S
H294 C300 0.950 . S
H295 C301 0.950 . S
H296 C302 0.949 . S
C297 H292 0.950 . S
C297 C299 1.327 . S
C297 C303 1.429 . S
C298 C290 1.574 . S
C298 H293 0.949 . S
C298 C304 1.368 . S
C299 C283 1.349 . S
C299 H291 0.950 . S
C299 C297 1.327 . S
C300 C288 1.349 . S
C300 H294 0.950 . S
C300 C301 1.327 . S
C301 H295 0.950 . S
C301 C300 1.327 . S
C301 C305 1.429 . S
C302 C285 1.574 . S
C302 H296 0.949 . S
C302 C306 1.368 . S
C303 C284 1.429 . S
C303 C297 1.429 . S
C303 C304 1.523 . S
C304 C285 1.368 . S
C304 C298 1.368 . S
C304 C303 1.523 . S
C305 C289 1.429 . S
C305 C301 1.429 . S
C305 C306 1.523 . S
C306 C290 1.368 . S
C306 C302 1.368 . S
C306 C305 1.523 . S
H307 C282 0.950 . S
H308 C284 0.950 . S
H309 C285 0.949 . S
H310 C287 0.950 . S
H311 C289 0.950 . S
C312 C313 1.349 . S
C312 C314 1.327 . S
C312 H337 0.950 . S
C313 C312 1.349 . S
C313 C329 1.349 . S
C314 C312 1.327 . S
C314 C333 1.429 . S
C314 H338 0.950 . S
C315 C332 1.574 . S
C315 C334 1.368 . S
C315 H339 0.949 . S
H316 C320 0.949 . S
C317 C318 1.349 . S
C317 C319 1.327 . S
C317 H340 0.950 . S
C318 C317 1.349 . S
C318 C330 1.349 . S
C319 C317 1.327 . S
C319 C335 1.429 . S
C319 H341 0.950 . S
C320 H316 0.949 . S
C320 C328 1.574 . S
C320 C336 1.368 . S
H321 C329 0.950 . S
H322 C327 0.950 . S
H323 C328 0.949 . S
H324 C330 0.950 . S
H325 C331 0.950 . S
H326 C332 0.949 . S
C327 H322 0.950 . S
C327 C329 1.327 . S
C327 C333 1.429 . S
C328 C320 1.574 . S
C328 H323 0.949 . S
C328 C334 1.368 . S
C329 C313 1.349 . S
C329 H321 0.950 . S
C329 C327 1.327 . S
C330 C318 1.349 . S
C330 H324 0.950 . S
C330 C331 1.327 . S
C331 H325 0.950 . S
C331 C330 1.327 . S
C331 C335 1.429 . S
C332 C315 1.574 . S
C332 H326 0.949 . S
C332 C336 1.368 . S
C333 C314 1.429 . S
C333 C327 1.429 . S
C333 C334 1.523 . S
C334 C315 1.368 . S
C334 C328 1.368 . S
C334 C333 1.523 . S
C335 C319 1.429 . S
C335 C331 1.429 . S
C335 C336 1.523 . S
C336 C320 1.368 . S
C336 C332 1.368 . S
C336 C335 1.523 . S
H337 C312 0.950 . S
H338 C314 0.950 . S
H339 C315 0.949 . S
H340 C317 0.950 . S
H341 C319 0.950 . S
C342 C343 1.349 . S
C342 C344 1.327 . S
C342 H367 0.950 . S
C343 C342 1.349 . S
C343 C359 1.349 . S
C344 C342 1.327 . S
C344 C363 1.429 . S
C344 H368 0.950 . S
C345 C362 1.574 1_655 S
C345 C364 1.368 . S
C345 H369 0.949 . S
H346 C350 0.949 . S
C347 C348 1.349 . S
C347 C349 1.327 . S
C347 H370 0.950 . S
C348 C347 1.349 . S
C348 C360 1.349 . S
C349 C347 1.327 . S
C349 C365 1.429 . S
C349 H371 0.950 . S
C350 H346 0.949 . S
C350 C358 1.574 1_455 S
C350 C366 1.368 . S
H351 C359 0.950 . S
H352 C357 0.950 . S
H353 C358 0.949 . S
H354 C360 0.950 . S
H355 C361 0.950 . S
H356 C362 0.949 . S
C357 H352 0.950 . S
C357 C359 1.327 . S
C357 C363 1.429 . S
C358 C350 1.574 1_655 S
C358 H353 0.949 . S
C358 C364 1.368 . S
C359 C343 1.349 . S
C359 H351 0.950 . S
C359 C357 1.327 . S
C360 C348 1.349 . S
C360 H354 0.950 . S
C360 C361 1.327 . S
C361 H355 0.950 . S
C361 C360 1.327 . S
C361 C365 1.429 . S
C362 C345 1.574 1_455 S
C362 H356 0.949 . S
C362 C366 1.368 . S
C363 C344 1.429 . S
C363 C357 1.429 . S
C363 C364 1.523 . S
C364 C345 1.368 . S
C364 C358 1.368 . S
C364 C363 1.523 . S
C365 C349 1.429 . S
C365 C361 1.429 . S
C365 C366 1.523 . S
C366 C350 1.368 . S
C366 C362 1.368 . S
C366 C365 1.523 . S
H367 C342 0.950 . S
H368 C344 0.950 . S
H369 C345 0.949 . S
H370 C347 0.950 . S
H371 C349 0.950 . S
C372 C373 1.349 . S
C372 C374 1.327 . S
C372 H397 0.950 . S
C373 C372 1.349 . S
C373 C389 1.349 . S
C374 C372 1.327 . S
C374 C393 1.429 . S
C374 H398 0.950 . S
C375 C392 1.574 1_565 S
C375 C394 1.368 . S
C375 H399 0.949 . S
H376 C380 0.949 . S
C377 C378 1.349 . S
C377 C379 1.327 . S
C377 H400 0.950 . S
C378 C377 1.349 . S
C378 C390 1.349 . S
C379 C377 1.327 . S
C379 C395 1.429 . S
C379 H401 0.950 . S
C380 H376 0.949 . S
C380 C388 1.574 1_545 S
C380 C396 1.368 . S
H381 C389 0.950 . S
H382 C387 0.950 . S
H383 C388 0.949 . S
H384 C390 0.950 . S
H385 C391 0.950 . S
H386 C392 0.949 . S
C387 H382 0.950 . S
C387 C389 1.327 . S
C387 C393 1.429 . S
C388 C380 1.574 1_565 S
C388 H383 0.949 . S
C388 C394 1.368 . S
C389 C373 1.349 . S
C389 H381 0.950 . S
C389 C387 1.327 . S
C390 C378 1.349 . S
C390 H384 0.950 . S
C390 C391 1.327 . S
C391 H385 0.950 . S
C391 C390 1.327 . S
C391 C395 1.429 . S
C392 C375 1.574 1_545 S
C392 H386 0.949 . S
C392 C396 1.368 . S
C393 C374 1.429 . S
C393 C387 1.429 . S
C393 C394 1.523 . S
C394 C375 1.368 . S
C394 C388 1.368 . S
C394 C393 1.523 . S
C395 C379 1.429 . S
C395 C391 1.429 . S
C395 C396 1.523 . S
C396 C380 1.368 . S
C396 C392 1.368 . S
C396 C395 1.523 . S
H397 C372 0.950 . S
H398 C374 0.950 . S
H399 C375 0.949 . S
H400 C377 0.950 . S
H401 C379 0.950 . S
C402 C403 1.349 . S
C402 C404 1.327 . S
C402 H427 0.950 . S
C403 C402 1.349 . S
C403 C419 1.349 . S
C404 C402 1.327 . S
C404 C423 1.429 . S
C404 H428 0.950 . S
C405 C422 1.574 . S
C405 C424 1.368 . S
C405 H429 0.949 . S
H406 C410 0.949 . S
C407 C408 1.349 . S
C407 C409 1.327 . S
C407 H430 0.950 . S
C408 C407 1.349 . S
C408 C420 1.349 . S
C409 C407 1.327 . S
C409 C425 1.429 . S
C409 H431 0.950 . S
C410 H406 0.949 . S
C410 C418 1.574 . S
C410 C426 1.368 . S
H411 C419 0.950 . S
H412 C417 0.950 . S
H413 C418 0.949 . S
H414 C420 0.950 . S
H415 C421 0.950 . S
H416 C422 0.949 . S
C417 H412 0.950 . S
C417 C419 1.327 . S
C417 C423 1.429 . S
C418 C410 1.574 . S
C418 H413 0.949 . S
C418 C424 1.368 . S
C419 C403 1.349 . S
C419 H411 0.950 . S
C419 C417 1.327 . S
C420 C408 1.349 . S
C420 H414 0.950 . S
C420 C421 1.327 . S
C421 H415 0.950 . S
C421 C420 1.327 . S
C421 C425 1.429 . S
C422 C405 1.574 . S
C422 H416 0.949 . S
C422 C426 1.368 . S
C423 C404 1.429 . S
C423 C417 1.429 . S
C423 C424 1.523 . S
C424 C405 1.368 . S
C424 C418 1.368 . S
C424 C423 1.523 . S
C425 C409 1.429 . S
C425 C421 1.429 . S
C425 C426 1.523 . S
C426 C410 1.368 . S
C426 C422 1.368 . S
C426 C425 1.523 . S
H427 C402 0.950 . S
H428 C404 0.950 . S
H429 C405 0.949 . S
H430 C407 0.950 . S
H431 C409 0.950 . S
C432 C433 1.349 . S
C432 C434 1.327 . S
C432 H457 0.950 . S
C433 C432 1.349 . S
C433 C449 1.349 . S
C434 C432 1.327 . S
C434 C453 1.429 . S
C434 H458 0.950 . S
C435 C452 1.574 1_655 S
C435 C454 1.368 . S
C435 H459 0.949 . S
H436 C440 0.949 . S
C437 C438 1.349 . S
C437 C439 1.327 . S
C437 H460 0.950 . S
C438 C437 1.349 . S
C438 C450 1.349 . S
C439 C437 1.327 . S
C439 C455 1.429 . S
C439 H461 0.950 . S
C440 H436 0.949 . S
C440 C448 1.574 1_455 S
C440 C456 1.368 . S
H441 C449 0.950 . S
H442 C447 0.950 . S
H443 C448 0.949 . S
H444 C450 0.950 . S
H445 C451 0.950 . S
H446 C452 0.949 . S
C447 H442 0.950 . S
C447 C449 1.327 . S
C447 C453 1.429 . S
C448 C440 1.574 1_655 S
C448 H443 0.949 . S
C448 C454 1.368 . S
C449 C433 1.349 . S
C449 H441 0.950 . S
C449 C447 1.327 . S
C450 C438 1.349 . S
C450 H444 0.950 . S
C450 C451 1.327 . S
C451 H445 0.950 . S
C451 C450 1.327 . S
C451 C455 1.429 . S
C452 C435 1.574 1_455 S
C452 H446 0.949 . S
C452 C456 1.368 . S
C453 C434 1.429 . S
C453 C447 1.429 . S
C453 C454 1.523 . S
C454 C435 1.368 . S
C454 C448 1.368 . S
C454 C453 1.523 . S
C455 C439 1.429 . S
C455 C451 1.429 . S
C455 C456 1.523 . S
C456 C440 1.368 . S
C456 C452 1.368 . S
C456 C455 1.523 . S
H457 C432 0.950 . S
H458 C434 0.950 . S
H459 C435 0.949 . S
H460 C437 0.950 . S
H461 C439 0.950 . S
C462 C463 1.349 . S
C462 C464 1.327 . S
C462 H487 0.950 . S
C463 C462 1.349 . S
C463 C479 1.349 . S
C464 C462 1.327 . S
C464 C483 1.429 . S
C464 H488 0.950 1_556 S
C465 C482 1.574 1_545 S
C465 C484 1.368 . S
C465 H489 0.949 . S
H466 C470 0.949 . S
C467 C468 1.349 . S
C467 C469 1.327 . S
C467 H490 0.950 . S
C468 C467 1.349 . S
C468 C480 1.349 . S
C469 C467 1.327 . S
C469 C485 1.429 . S
C469 H491 0.950 1_554 S
C470 H466 0.949 . S
C470 C478 1.574 1_565 S
C470 C486 1.368 . S
H471 C479 0.950 . S
H472 C477 0.950 . S
H473 C478 0.949 . S
H474 C480 0.950 . S
H475 C481 0.950 . S
H476 C482 0.949 . S
C477 H472 0.950 . S
C477 C479 1.327 . S
C477 C483 1.429 . S
C478 C470 1.574 1_545 S
C478 H473 0.949 . S
C478 C484 1.368 1_554 S
C479 C463 1.349 . S
C479 H471 0.950 . S
C479 C477 1.327 . S
C480 C468 1.349 . S
C480 H474 0.950 . S
C480 C481 1.327 . S
C481 H475 0.950 . S
C481 C480 1.327 . S
C481 C485 1.429 . S
C482 C465 1.574 1_565 S
C482 H476 0.949 . S
C482 C486 1.368 1_556 S
C483 C464 1.429 . S
C483 C477 1.429 . S
C483 C484 1.523 . S
C484 C465 1.368 . S
C484 C478 1.368 1_556 S
C484 C483 1.523 . S
C485 C469 1.429 . S
C485 C481 1.429 . S
C485 C486 1.523 . S
C486 C470 1.368 . S
C486 C482 1.368 1_554 S
C486 C485 1.523 . S
H487 C462 0.950 . S
H488 C464 0.950 1_554 S
H489 C465 0.949 . S
H490 C467 0.950 . S
H491 C469 0.950 1_556 S
C492 C493 1.349 . S
C492 C494 1.327 1_554 S
C492 H517 0.950 . S
C493 C492 1.349 . S
C493 C509 1.349 1_554 S
C494 C492 1.327 1_556 S
C494 C513 1.429 . S
C494 H518 0.949 1_556 S
C495 C512 1.574 . S
C495 C514 1.368 . S
C495 H519 0.949 . S
H496 C500 0.949 . S
C497 C498 1.349 . S
C497 C499 1.327 . S
C497 H520 0.950 . S
C498 C497 1.349 . S
C498 C510 1.349 . S
C499 C497 1.327 . S
C499 C515 1.429 . S
C499 H521 0.950 . S
C500 H496 0.949 . S
C500 C508 1.574 . S
C500 C516 1.368 . S
H501 C509 0.950 . S
H502 C507 0.950 . S
H503 C508 0.949 . S
H504 C510 0.950 . S
H505 C511 0.950 . S
H506 C512 0.949 . S
C507 H502 0.950 . S
C507 C509 1.327 . S
C507 C513 1.429 . S
C508 C500 1.574 . S
C508 H503 0.949 . S
C508 C514 1.368 . S
C509 C493 1.349 1_556 S
C509 H501 0.950 . S
C509 C507 1.327 . S
C510 C498 1.349 . S
C510 H504 0.950 . S
C510 C511 1.327 . S
C511 H505 0.950 . S
C511 C510 1.327 . S
C511 C515 1.429 . S
C512 C495 1.574 . S
C512 H506 0.949 . S
C512 C516 1.368 . S
C513 C494 1.429 . S
C513 C507 1.429 . S
C513 C514 1.523 . S
C514 C495 1.368 . S
C514 C508 1.368 . S
C514 C513 1.523 . S
C515 C499 1.429 . S
C515 C511 1.429 . S
C515 C516 1.523 . S
C516 C500 1.368 . S
C516 C512 1.368 . S
C516 C515 1.523 . S
H517 C492 0.950 . S
H518 C494 0.949 1_554 S
H519 C495 0.949 . S
H520 C497 0.950 . S
H521 C499 0.950 . S
C522 C523 1.349 1_554 S
C522 C524 1.327 . S
C522 H547 0.950 . S
C523 C522 1.349 1_556 S
C523 C539 1.349 . S
C524 C522 1.327 . S
C524 C543 1.429 . S
C524 H548 0.950 . S
C525 C542 1.574 . S
C525 C544 1.368 . S
C525 H549 0.949 . S
H526 C530 0.949 . S
C527 C528 1.349 . S
C527 C529 1.327 . S
C527 H550 0.950 . S
C528 C527 1.349 . S
C528 C540 1.349 . S
C529 C527 1.327 . S
C529 C545 1.429 . S
C529 H551 0.950 . S
C530 H526 0.949 . S
C530 C538 1.574 . S
C530 C546 1.368 . S
H531 C539 0.950 . S
H532 C537 0.949 . S
H533 C538 0.949 . S
H534 C540 0.950 . S
H535 C541 0.950 . S
H536 C542 0.949 . S
C537 H532 0.949 . S
C537 C539 1.327 1_554 S
C537 C543 1.429 . S
C538 C530 1.574 . S
C538 H533 0.949 . S
C538 C544 1.368 . S
C539 C523 1.349 . S
C539 H531 0.950 . S
C539 C537 1.327 1_556 S
C540 C528 1.349 . S
C540 H534 0.950 . S
C540 C541 1.327 . S
C541 H535 0.950 . S
C541 C540 1.327 . S
C541 C545 1.429 . S
C542 C525 1.574 . S
C542 H536 0.949 . S
C542 C546 1.368 . S
C543 C524 1.429 . S
C543 C537 1.429 . S
C543 C544 1.523 . S
C544 C525 1.368 . S
C544 C538 1.368 . S
C544 C543 1.523 . S
C545 C529 1.429 . S
C545 C541 1.429 . S
C545 C546 1.523 . S
C546 C530 1.368 . S
C546 C542 1.368 . S
C546 C545 1.523 . S
H547 C522 0.950 . S
H548 C524 0.950 . S
H549 C525 0.949 . S
H550 C527 0.950 . S
H551 C529 0.950 . S
C552 C553 1.349 . S
C552 C554 1.327 . S
C552 H577 0.950 . S
C553 C552 1.349 . S
C553 C569 1.349 . S
C554 C552 1.327 . S
C554 C573 1.429 . S
C554 H578 0.950 . S
C555 C572 1.574 . S
C555 C574 1.368 . S
C555 H579 0.949 . S
H556 C560 0.949 . S
C557 C558 1.349 . S
C557 C559 1.327 . S
C557 H580 0.950 . S
C558 C557 1.349 . S
C558 C570 1.349 . S
C559 C557 1.327 . S
C559 C575 1.429 . S
C559 H581 0.950 . S
C560 H556 0.949 . S
C560 C568 1.574 . S
C560 C576 1.368 . S
H561 C569 0.950 . S
H562 C567 0.950 . S
H563 C568 0.949 . S
H564 C570 0.950 . S
H565 C571 0.950 . S
H566 C572 0.949 . S
C567 H562 0.950 . S
C567 C569 1.327 . S
C567 C573 1.429 . S
C568 C560 1.574 . S
C568 H563 0.949 . S
C568 C574 1.368 . S
C569 C553 1.349 . S
C569 H561 0.950 . S
C569 C567 1.327 . S
C570 C558 1.349 . S
C570 H564 0.950 . S
C570 C571 1.327 . S
C571 H565 0.950 . S
C571 C570 1.327 . S
C571 C575 1.429 . S
C572 C555 1.574 . S
C572 H566 0.949 . S
C572 C576 1.368 . S
C573 C554 1.429 . S
C573 C567 1.429 . S
C573 C574 1.523 . S
C574 C555 1.368 . S
C574 C568 1.368 . S
C574 C573 1.523 . S
C575 C559 1.429 . S
C575 C571 1.429 . S
C575 C576 1.523 . S
C576 C560 1.368 . S
C576 C572 1.368 . S
C576 C575 1.523 . S
H577 C552 0.950 . S
H578 C554 0.950 . S
H579 C555 0.949 . S
H580 C557 0.950 . S
H581 C559 0.950 . S
C582 C583 1.349 . S
C582 C584 1.327 . S
C582 H607 0.950 . S
C583 C582 1.349 . S
C583 C599 1.349 . S
C584 C582 1.327 . S
C584 C603 1.429 . S
C584 H608 0.950 . S
C585 C602 1.574 . S
C585 C604 1.368 . S
C585 H609 0.949 . S
H586 C590 0.949 . S
C587 C588 1.349 . S
C587 C589 1.327 . S
C587 H610 0.950 . S
C588 C587 1.349 . S
C588 C600 1.349 . S
C589 C587 1.327 . S
C589 C605 1.429 . S
C589 H611 0.950 . S
C590 H586 0.949 . S
C590 C598 1.574 . S
C590 C606 1.368 . S
H591 C599 0.950 . S
H592 C597 0.950 . S
H593 C598 0.949 . S
H594 C600 0.950 . S
H595 C601 0.950 . S
H596 C602 0.949 . S
C597 H592 0.950 . S
C597 C599 1.327 . S
C597 C603 1.429 . S
C598 C590 1.574 . S
C598 H593 0.949 . S
C598 C604 1.368 . S
C599 C583 1.349 . S
C599 H591 0.950 . S
C599 C597 1.327 . S
C600 C588 1.349 . S
C600 H594 0.950 . S
C600 C601 1.327 . S
C601 H595 0.950 . S
C601 C600 1.327 . S
C601 C605 1.429 . S
C602 C585 1.574 . S
C602 H596 0.949 . S
C602 C606 1.368 . S
C603 C584 1.429 . S
C603 C597 1.429 . S
C603 C604 1.523 . S
C604 C585 1.368 . S
C604 C598 1.368 . S
C604 C603 1.523 . S
C605 C589 1.429 . S
C605 C601 1.429 . S
C605 C606 1.523 . S
C606 C590 1.368 . S
C606 C602 1.368 . S
C606 C605 1.523 . S
H607 C582 0.950 . S
H608 C584 0.950 . S
H609 C585 0.949 . S
H610 C587 0.950 . S
H611 C589 0.950 . S
C612 C613 1.349 . S
C612 C614 1.327 . S
C612 H637 0.950 . S
C613 C612 1.349 . S
C613 C629 1.349 . S
C614 C612 1.327 . S
C614 C633 1.429 . S
C614 H638 0.950 . S
C615 C632 1.574 . S
C615 C634 1.368 . S
C615 H639 0.949 . S
H616 C620 0.949 . S
C617 C618 1.349 . S
C617 C619 1.327 . S
C617 H640 0.950 . S
C618 C617 1.349 . S
C618 C630 1.349 . S
C619 C617 1.327 . S
C619 C635 1.429 . S
C619 H641 0.950 . S
C620 H616 0.949 . S
C620 C628 1.574 . S
C620 C636 1.368 . S
H621 C629 0.950 . S
H622 C627 0.950 . S
H623 C628 0.949 . S
H624 C630 0.950 . S
H625 C631 0.950 . S
H626 C632 0.949 . S
C627 H622 0.950 . S
C627 C629 1.327 . S
C627 C633 1.429 . S
C628 C620 1.574 . S
C628 H623 0.949 . S
C628 C634 1.368 . S
C629 C613 1.349 . S
C629 H621 0.950 . S
C629 C627 1.327 . S
C630 C618 1.349 . S
C630 H624 0.950 . S
C630 C631 1.327 . S
C631 H625 0.950 . S
C631 C630 1.327 . S
C631 C635 1.429 . S
C632 C615 1.574 . S
C632 H626 0.949 . S
C632 C636 1.368 . S
C633 C614 1.429 . S
C633 C627 1.429 . S
C633 C634 1.523 . S
C634 C615 1.368 . S
C634 C628 1.368 . S
C634 C633 1.523 . S
C635 C619 1.429 . S
C635 C631 1.429 . S
C635 C636 1.523 . S
C636 C620 1.368 . S
C636 C632 1.368 . S
C636 C635 1.523 . S
H637 C612 0.950 . S
H638 C614 0.950 . S
H639 C615 0.949 . S
H640 C617 0.950 . S
H641 C619 0.950 . S
C642 C643 1.349 . S
C642 C644 1.327 . S
C642 H667 0.950 . S
C643 C642 1.349 . S
C643 C659 1.349 . S
C644 C642 1.327 . S
C644 C663 1.429 . S
C644 H668 0.950 . S
C645 C662 1.574 . S
C645 C664 1.368 . S
C645 H669 0.949 . S
H646 C650 0.949 . S
C647 C648 1.349 . S
C647 C649 1.327 . S
C647 H670 0.950 . S
C648 C647 1.349 . S
C648 C660 1.349 . S
C649 C647 1.327 . S
C649 C665 1.429 . S
C649 H671 0.950 . S
C650 H646 0.949 . S
C650 C658 1.574 . S
C650 C666 1.368 . S
H651 C659 0.950 . S
H652 C657 0.950 . S
H653 C658 0.949 . S
H654 C660 0.950 . S
H655 C661 0.950 . S
H656 C662 0.949 . S
C657 H652 0.950 . S
C657 C659 1.327 . S
C657 C663 1.429 . S
C658 C650 1.574 . S
C658 H653 0.949 . S
C658 C664 1.368 . S
C659 C643 1.349 . S
C659 H651 0.950 . S
C659 C657 1.327 . S
C660 C648 1.349 . S
C660 H654 0.950 . S
C660 C661 1.327 . S
C661 H655 0.950 . S
C661 C660 1.327 . S
C661 C665 1.429 . S
C662 C645 1.574 . S
C662 H656 0.949 . S
C662 C666 1.368 . S
C663 C644 1.429 . S
C663 C657 1.429 . S
C663 C664 1.523 . S
C664 C645 1.368 . S
C664 C658 1.368 . S
C664 C663 1.523 . S
C665 C649 1.429 . S
C665 C661 1.429 . S
C665 C666 1.523 . S
C666 C650 1.368 . S
C666 C662 1.368 . S
C666 C665 1.523 . S
H667 C642 0.950 . S
H668 C644 0.950 . S
H669 C645 0.949 . S
H670 C647 0.950 . S
H671 C649 0.950 . S
C133 C8 1.558 . S
C138 C118 1.558 . S
C163 C129 1.557 . S
C168 C19 1.557 . S
C193 C74 1.558 . S
C198 C30 1.558 . S
C223 C41 1.558 . S
C228 C85 1.558 . S
C253 C96 1.557 1_556 S
C258 C52 1.557 . S
C283 C63 1.558 1_554 S
C288 C107 1.558 . S
C313 C7 1.439 . S
C318 C106 1.439 . S
C343 C18 1.439 . S
C348 C117 1.439 . S
C373 C29 1.439 . S
C378 C128 1.439 . S
C403 C73 1.439 . S
C408 C40 1.439 . S
C433 C84 1.439 . S
C438 C51 1.439 . S
C463 C62 1.439 . S
C468 C95 1.439 . S
C493 C5 1.401 . S
C498 C71 1.401 . S
C523 C82 1.401 . S
C528 C16 1.401 . S
C553 C27 1.401 . S
C558 C93 1.401 . S
C583 C38 1.401 . S
C588 C104 1.401 . S
C613 C49 1.401 . S
C618 C115 1.401 . S
C643 C126 1.401 . S
C648 C60 1.401 . S
