# Generated by pormake.
# Topology toc-e, (7)-cn, num edge types: 1
# Building blocks:
#     Node 0, Type 0, BuildingBlock: NUHQUE_clean_sbu_2, # of connection points: 7
#     Node 1, Type 0, BuildingBlock: NUHQUE_clean_sbu_2, # of connection points: 7
#     Node 2, Type 0, BuildingBlock: NUHQUE_clean_sbu_2, # of connection points: 7
#     Node 3, Type 0, BuildingBlock: NUHQUE_clean_sbu_2, # of connection points: 7
#     Node 4, Type 0, BuildingBlock: NUHQUE_clean_sbu_2, # of connection points: 7
#     Node 5, Type 0, BuildingBlock: NUHQUE_clean_sbu_2, # of connection points: 7
#     Node 6, Type 0, BuildingBlock: NUHQUE_clean_sbu_2, # of connection points: 7
#     Node 7, Type 0, BuildingBlock: NUHQUE_clean_sbu_2, # of connection points: 7
#     Node 8, Type 0, BuildingBlock: NUHQUE_clean_sbu_2, # of connection points: 7
#     Node 9, Type 0, BuildingBlock: NUHQUE_clean_sbu_2, # of connection points: 7
#     Node 10, Type 0, BuildingBlock: NUHQUE_clean_sbu_2, # of connection points: 7
#     Node 11, Type 0, BuildingBlock: NUHQUE_clean_sbu_2, # of connection points: 7
#     Node 12, Type 0, BuildingBlock: NUHQUE_clean_sbu_2, # of connection points: 7
#     Node 13, Type 0, BuildingBlock: NUHQUE_clean_sbu_2, # of connection points: 7
#     Node 14, Type 0, BuildingBlock: NUHQUE_clean_sbu_2, # of connection points: 7
#     Node 15, Type 0, BuildingBlock: NUHQUE_clean_sbu_2, # of connection points: 7
#     Node 16, Type 0, BuildingBlock: NUHQUE_clean_sbu_2, # of connection points: 7
#     Node 17, Type 0, BuildingBlock: NUHQUE_clean_sbu_2, # of connection points: 7
#     Node 18, Type 0, BuildingBlock: NUHQUE_clean_sbu_2, # of connection points: 7
#     Node 19, Type 0, BuildingBlock: NUHQUE_clean_sbu_2, # of connection points: 7
#     Node 20, Type 0, BuildingBlock: NUHQUE_clean_sbu_2, # of connection points: 7
#     Node 21, Type 0, BuildingBlock: NUHQUE_clean_sbu_2, # of connection points: 7
#     Node 22, Type 0, BuildingBlock: NUHQUE_clean_sbu_2, # of connection points: 7
#     Node 23, Type 0, BuildingBlock: NUHQUE_clean_sbu_2, # of connection points: 7
#     Edge 24, Type (0, 0), BuildingBlock: XUDNAN_clean_linker_2, # of connection points: 2
#     Edge 25, Type (0, 0), BuildingBlock: XUDNAN_clean_linker_2, # of connection points: 2
#     Edge 26, Type (0, 0), BuildingBlock: XUDNAN_clean_linker_2, # of connection points: 2
#     Edge 27, Type (0, 0), BuildingBlock: XUDNAN_clean_linker_2, # of connection points: 2
#     Edge 28, Type (0, 0), BuildingBlock: XUDNAN_clean_linker_2, # of connection points: 2
#     Edge 29, Type (0, 0), BuildingBlock: XUDNAN_clean_linker_2, # of connection points: 2
#     Edge 30, Type (0, 0), BuildingBlock: XUDNAN_clean_linker_2, # of connection points: 2
#     Edge 31, Type (0, 0), BuildingBlock: XUDNAN_clean_linker_2, # of connection points: 2
#     Edge 32, Type (0, 0), BuildingBlock: XUDNAN_clean_linker_2, # of connection points: 2
#     Edge 33, Type (0, 0), BuildingBlock: XUDNAN_clean_linker_2, # of connection points: 2
#     Edge 34, Type (0, 0), BuildingBlock: XUDNAN_clean_linker_2, # of connection points: 2
#     Edge 35, Type (0, 0), BuildingBlock: XUDNAN_clean_linker_2, # of connection points: 2
#     Edge 36, Type (0, 0), BuildingBlock: XUDNAN_clean_linker_2, # of connection points: 2
#     Edge 37, Type (0, 0), BuildingBlock: XUDNAN_clean_linker_2, # of connection points: 2
#     Edge 38, Type (0, 0), BuildingBlock: XUDNAN_clean_linker_2, # of connection points: 2
#     Edge 39, Type (0, 0), BuildingBlock: XUDNAN_clean_linker_2, # of connection points: 2
#     Edge 40, Type (0, 0), BuildingBlock: XUDNAN_clean_linker_2, # of connection points: 2
#     Edge 41, Type (0, 0), BuildingBlock: XUDNAN_clean_linker_2, # of connection points: 2
#     Edge 42, Type (0, 0), BuildingBlock: XUDNAN_clean_linker_2, # of connection points: 2
#     Edge 43, Type (0, 0), BuildingBlock: XUDNAN_clean_linker_2, # of connection points: 2
#     Edge 44, Type (0, 0), BuildingBlock: XUDNAN_clean_linker_2, # of connection points: 2
#     Edge 45, Type (0, 0), BuildingBlock: XUDNAN_clean_linker_2, # of connection points: 2
#     Edge 46, Type (0, 0), BuildingBlock: XUDNAN_clean_linker_2, # of connection points: 2
#     Edge 47, Type (0, 0), BuildingBlock: XUDNAN_clean_linker_2, # of connection points: 2
#     Edge 48, Type (0, 0), BuildingBlock: XUDNAN_clean_linker_2, # of connection points: 2
#     Edge 49, Type (0, 0), BuildingBlock: XUDNAN_clean_linker_2, # of connection points: 2
#     Edge 50, Type (0, 0), BuildingBlock: XUDNAN_clean_linker_2, # of connection points: 2
#     Edge 51, Type (0, 0), BuildingBlock: XUDNAN_clean_linker_2, # of connection points: 2
#     Edge 52, Type (0, 0), BuildingBlock: XUDNAN_clean_linker_2, # of connection points: 2
#     Edge 53, Type (0, 0), BuildingBlock: XUDNAN_clean_linker_2, # of connection points: 2
#     Edge 54, Type (0, 0), BuildingBlock: XUDNAN_clean_linker_2, # of connection points: 2
#     Edge 55, Type (0, 0), BuildingBlock: XUDNAN_clean_linker_2, # of connection points: 2
#     Edge 56, Type (0, 0), BuildingBlock: XUDNAN_clean_linker_2, # of connection points: 2
#     Edge 57, Type (0, 0), BuildingBlock: XUDNAN_clean_linker_2, # of connection points: 2
#     Edge 58, Type (0, 0), BuildingBlock: XUDNAN_clean_linker_2, # of connection points: 2
#     Edge 59, Type (0, 0), BuildingBlock: XUDNAN_clean_linker_2, # of connection points: 2
#     Edge 60, Type (0, 0), BuildingBlock: XUDNAN_clean_linker_2, # of connection points: 2
#     Edge 61, Type (0, 0), BuildingBlock: XUDNAN_clean_linker_2, # of connection points: 2
#     Edge 62, Type (0, 0), BuildingBlock: XUDNAN_clean_linker_2, # of connection points: 2
#     Edge 63, Type (0, 0), BuildingBlock: XUDNAN_clean_linker_2, # of connection points: 2
#     Edge 64, Type (0, 0), BuildingBlock: XUDNAN_clean_linker_2, # of connection points: 2
#     Edge 65, Type (0, 0), BuildingBlock: XUDNAN_clean_linker_2, # of connection points: 2
#     Edge 66, Type (0, 0), BuildingBlock: XUDNAN_clean_linker_2, # of connection points: 2
#     Edge 67, Type (0, 0), BuildingBlock: XUDNAN_clean_linker_2, # of connection points: 2
#     Edge 68, Type (0, 0), BuildingBlock: XUDNAN_clean_linker_2, # of connection points: 2
#     Edge 69, Type (0, 0), BuildingBlock: XUDNAN_clean_linker_2, # of connection points: 2
#     Edge 70, Type (0, 0), BuildingBlock: XUDNAN_clean_linker_2, # of connection points: 2
#     Edge 71, Type (0, 0), BuildingBlock: XUDNAN_clean_linker_2, # of connection points: 2
#     Edge 72, Type (0, 0), BuildingBlock: XUDNAN_clean_linker_2, # of connection points: 2
#     Edge 73, Type (0, 0), BuildingBlock: XUDNAN_clean_linker_2, # of connection points: 2
#     Edge 74, Type (0, 0), BuildingBlock: XUDNAN_clean_linker_2, # of connection points: 2
#     Edge 75, Type (0, 0), BuildingBlock: XUDNAN_clean_linker_2, # of connection points: 2
#     Edge 76, Type (0, 0), BuildingBlock: XUDNAN_clean_linker_2, # of connection points: 2
#     Edge 77, Type (0, 0), BuildingBlock: XUDNAN_clean_linker_2, # of connection points: 2
#     Edge 78, Type (0, 0), BuildingBlock: XUDNAN_clean_linker_2, # of connection points: 2
#     Edge 79, Type (0, 0), BuildingBlock: XUDNAN_clean_linker_2, # of connection points: 2
#     Edge 80, Type (0, 0), BuildingBlock: XUDNAN_clean_linker_2, # of connection points: 2
#     Edge 81, Type (0, 0), BuildingBlock: XUDNAN_clean_linker_2, # of connection points: 2
#     Edge 82, Type (0, 0), BuildingBlock: XUDNAN_clean_linker_2, # of connection points: 2
#     Edge 83, Type (0, 0), BuildingBlock: XUDNAN_clean_linker_2, # of connection points: 2
#     Edge 84, Type (0, 0), BuildingBlock: XUDNAN_clean_linker_2, # of connection points: 2
#     Edge 85, Type (0, 0), BuildingBlock: XUDNAN_clean_linker_2, # of connection points: 2
#     Edge 86, Type (0, 0), BuildingBlock: XUDNAN_clean_linker_2, # of connection points: 2
#     Edge 87, Type (0, 0), BuildingBlock: XUDNAN_clean_linker_2, # of connection points: 2
#     Edge 88, Type (0, 0), BuildingBlock: XUDNAN_clean_linker_2, # of connection points: 2
#     Edge 89, Type (0, 0), BuildingBlock: XUDNAN_clean_linker_2, # of connection points: 2
#     Edge 90, Type (0, 0), BuildingBlock: XUDNAN_clean_linker_2, # of connection points: 2
#     Edge 91, Type (0, 0), BuildingBlock: XUDNAN_clean_linker_2, # of connection points: 2
#     Edge 92, Type (0, 0), BuildingBlock: XUDNAN_clean_linker_2, # of connection points: 2
#     Edge 93, Type (0, 0), BuildingBlock: XUDNAN_clean_linker_2, # of connection points: 2
#     Edge 94, Type (0, 0), BuildingBlock: XUDNAN_clean_linker_2, # of connection points: 2
#     Edge 95, Type (0, 0), BuildingBlock: XUDNAN_clean_linker_2, # of connection points: 2
#     Edge 96, Type (0, 0), BuildingBlock: XUDNAN_clean_linker_2, # of connection points: 2
#     Edge 97, Type (0, 0), BuildingBlock: XUDNAN_clean_linker_2, # of connection points: 2
#     Edge 98, Type (0, 0), BuildingBlock: XUDNAN_clean_linker_2, # of connection points: 2
#     Edge 99, Type (0, 0), BuildingBlock: XUDNAN_clean_linker_2, # of connection points: 2
#     Edge 100, Type (0, 0), BuildingBlock: XUDNAN_clean_linker_2, # of connection points: 2
#     Edge 101, Type (0, 0), BuildingBlock: XUDNAN_clean_linker_2, # of connection points: 2
#     Edge 102, Type (0, 0), BuildingBlock: XUDNAN_clean_linker_2, # of connection points: 2
#     Edge 103, Type (0, 0), BuildingBlock: XUDNAN_clean_linker_2, # of connection points: 2
#     Edge 104, Type (0, 0), BuildingBlock: XUDNAN_clean_linker_2, # of connection points: 2
#     Edge 105, Type (0, 0), BuildingBlock: XUDNAN_clean_linker_2, # of connection points: 2
#     Edge 106, Type (0, 0), BuildingBlock: XUDNAN_clean_linker_2, # of connection points: 2
#     Edge 107, Type (0, 0), BuildingBlock: XUDNAN_clean_linker_2, # of connection points: 2
# Relax obj value: 0.248
# Max RMSD: 0.246
# Mean RMSD: 0.246
data_MOF--net-toc-e--node1-NUHQUE_clean_sbu_2--edge1-XUDNAN_clean_linker_2
_symmetry_space_group_name_H-M    P1
_symmetry_Int_Tables_number       1
_symmetry_cell_setting            triclinic
loop_
_symmetry_equiv_pos_as_xyz
'x, y, z'
_cell_length_a     53.409626
_cell_length_b     53.417932
_cell_length_c     53.474522
_cell_angle_alpha  90.083522
_cell_angle_beta   89.881425
_cell_angle_gamma 90.163402
loop_
_atom_site_label
_atom_site_type_symbol
_atom_site_fract_x
_atom_site_fract_y
_atom_site_fract_z
_atom_type_partial_charge
O0 O 0.18541 0.36892 0.68016 0.0
Tb1 Tb 0.15535 0.35052 0.65877 0.0
Eu2 Eu 0.14093 0.33874 0.59649 0.0
C3 C 0.20116 0.35356 0.69152 0.0
O4 O 0.19821 0.32941 0.68773 0.0
C5 C 0.1817 0.30885 0.62439 0.0
O6 O 0.11639 0.33497 0.56228 0.0
C7 C 0.17114 0.3764 0.59122 0.0
C8 C 0.09536 0.32226 0.56402 0.0
O9 O 0.09119 0.30911 0.58434 0.0
C10 C 0.10302 0.36337 0.6352 0.0
C11 C 0.17332 0.40357 0.58693 0.0
C12 C 0.17879 0.41866 0.60758 0.0
C13 C 0.18029 0.44467 0.60544 0.0
C14 C 0.17888 0.4553 0.58145 0.0
C15 C 0.17498 0.44046 0.56 0.0
C16 C 0.17157 0.41444 0.56306 0.0
O17 O 0.18446 0.32974 0.63753 0.0
O18 O 0.1621 0.30538 0.60988 0.0
O19 O 0.13888 0.31602 0.6737 0.0
O20 O 0.14369 0.34804 0.69728 0.0
C21 C 0.13561 0.3252 0.69615 0.0
O22 O 0.10604 0.34545 0.61879 0.0
O23 O 0.12261 0.37321 0.64692 0.0
O24 O 0.16495 0.36163 0.57249 0.0
O25 O 0.1613 0.36959 0.61272 0.0
H26 H 0.18168 0.40989 0.62558 0.0
H27 H 0.18078 0.47527 0.5794 0.0
H28 H 0.16774 0.40268 0.54701 0.0
O29 O 0.64985 0.6804 0.1904 0.0
Tb30 Tb 0.66882 0.65597 0.16284 0.0
Eu31 Eu 0.67563 0.64492 0.09805 0.0
C32 C 0.64757 0.70491 0.1877 0.0
O33 O 0.65208 0.71499 0.16578 0.0
C34 C 0.70467 0.68617 0.12653 0.0
O35 O 0.67668 0.62318 0.06176 0.0
C36 C 0.63679 0.6735 0.09593 0.0
C37 C 0.68897 0.60201 0.05956 0.0
O38 O 0.70337 0.59463 0.07796 0.0
C39 C 0.65653 0.60369 0.1382 0.0
C40 C 0.60992 0.67632 0.091 0.0
C41 C 0.59556 0.68636 0.11042 0.0
C42 C 0.56992 0.68995 0.10756 0.0
C43 C 0.55859 0.68381 0.08479 0.0
C44 C 0.57255 0.67369 0.06503 0.0
C45 C 0.5985 0.67016 0.06798 0.0
O46 O 0.68374 0.68663 0.13976 0.0
O47 O 0.70853 0.6685 0.10974 0.0
O48 O 0.68241 0.64777 0.19975 0.0
O49 O 0.70597 0.63971 0.16845 0.0
C50 C 0.70383 0.63891 0.19274 0.0
O51 O 0.67155 0.60867 0.1193 0.0
O52 O 0.64762 0.62169 0.15286 0.0
O53 O 0.65209 0.67033 0.07691 0.0
O54 O 0.64323 0.66122 0.11626 0.0
H55 H 0.60432 0.691 0.12814 0.0
H56 H 0.53848 0.68576 0.08274 0.0
H57 H 0.60941 0.6622 0.05284 0.0
O58 O 0.34624 0.1575 0.69364 0.0
Tb59 Tb 0.36889 0.1738 0.66319 0.0
Eu60 Eu 0.38106 0.18217 0.60002 0.0
C61 C 0.32145 0.15747 0.6948 0.0
O62 O 0.30835 0.16309 0.67487 0.0
C63 C 0.33602 0.20684 0.62693 0.0
O64 O 0.40476 0.18844 0.56552 0.0
C65 C 0.35427 0.14206 0.59448 0.0
C66 C 0.42313 0.2048 0.56651 0.0
O67 O 0.4253 0.21888 0.58656 0.0
C68 C 0.42047 0.16057 0.63923 0.0
C69 C 0.35426 0.11474 0.59078 0.0
C70 C 0.353 0.09945 0.61195 0.0
C71 C 0.35269 0.07341 0.60985 0.0
C72 C 0.35242 0.06258 0.58591 0.0
C73 C 0.3519 0.07759 0.5644 0.0
C74 C 0.3531 0.10377 0.56689 0.0
O75 O 0.33692 0.18629 0.64067 0.0
O76 O 0.35506 0.21312 0.61239 0.0
O77 O 0.38804 0.18699 0.6961 0.0
O78 O 0.38163 0.21275 0.66633 0.0
C79 C 0.3916 0.20962 0.68832 0.0
O80 O 0.41705 0.17694 0.6213 0.0
O81 O 0.40105 0.1509 0.65134 0.0
O82 O 0.36017 0.15674 0.57561 0.0
O83 O 0.36273 0.15013 0.61611 0.0
H84 H 0.35194 0.10798 0.63031 0.0
H85 H 0.35235 0.04243 0.58383 0.0
H86 H 0.35292 0.11547 0.55036 0.0
O87 O 0.86544 0.83711 0.18938 0.0
Tb88 Tb 0.84989 0.86263 0.16081 0.0
Eu89 Eu 0.84598 0.87599 0.09649 0.0
C90 C 0.87134 0.81358 0.18447 0.0
O91 O 0.87164 0.80614 0.16107 0.0
C92 C 0.81749 0.83316 0.12214 0.0
O93 O 0.84838 0.89913 0.06147 0.0
C94 C 0.88493 0.84743 0.09513 0.0
C95 C 0.83311 0.91757 0.05616 0.0
O96 O 0.81292 0.92115 0.06974 0.0
C97 C 0.86258 0.91581 0.13888 0.0
C98 C 0.91203 0.84651 0.09048 0.0
C99 C 0.92739 0.84265 0.11114 0.0
C100 C 0.9534 0.84347 0.10896 0.0
C101 C 0.96404 0.84584 0.085 0.0
C102 C 0.94892 0.84697 0.06353 0.0
C103 C 0.92273 0.8481 0.06645 0.0
O104 O 0.83868 0.83286 0.13482 0.0
O105 O 0.81299 0.85155 0.10635 0.0
O106 O 0.83095 0.87606 0.19396 0.0
O107 O 0.81058 0.87342 0.15982 0.0
C108 C 0.80947 0.87952 0.18331 0.0
O109 O 0.84867 0.91188 0.11894 0.0
O110 O 0.87145 0.89682 0.15219 0.0
O111 O 0.86987 0.85025 0.07592 0.0
O112 O 0.87772 0.85965 0.11532 0.0
H113 H 0.91877 0.83945 0.12922 0.0
H114 H 0.98413 0.84741 0.08287 0.0
H115 H 0.91077 0.84953 0.05019 0.0
O116 O 0.18238 0.15894 0.83368 0.0
Tb117 Tb 0.15534 0.17571 0.86009 0.0
Eu118 Eu 0.1415 0.18131 0.92264 0.0
C119 C 0.20589 0.15493 0.8401 0.0
O120 O 0.21175 0.15564 0.86392 0.0
C121 C 0.18401 0.21195 0.89818 0.0
O122 O 0.11881 0.18223 0.95811 0.0
C123 C 0.17117 0.14325 0.92577 0.0
C124 C 0.09696 0.1934 0.95922 0.0
O125 O 0.08935 0.20678 0.94012 0.0
C126 C 0.10316 0.16174 0.88192 0.0
C127 C 0.17495 0.11655 0.93122 0.0
C128 C 0.18376 0.10153 0.91168 0.0
C129 C 0.18939 0.07638 0.91568 0.0
C130 C 0.18637 0.06625 0.93963 0.0
C131 C 0.17757 0.08085 0.95956 0.0
C132 C 0.17203 0.10626 0.95537 0.0
O133 O 0.18547 0.19292 0.88242 0.0
O134 O 0.16464 0.21478 0.91315 0.0
O135 O 0.14347 0.18972 0.82419 0.0
O136 O 0.13836 0.2127 0.85649 0.0
C137 C 0.1352 0.21101 0.8324 0.0
O138 O 0.10649 0.17846 0.89952 0.0
O139 O 0.12271 0.15206 0.87006 0.0
O140 O 0.16701 0.15864 0.94451 0.0
O141 O 0.15921 0.14915 0.90512 0.0
H142 H 0.18626 0.10946 0.89317 0.0
H143 H 0.19035 0.04661 0.94269 0.0
H144 H 0.16543 0.11779 0.97069 0.0
O145 O 0.87087 0.67844 0.33684 0.0
Tb146 Tb 0.8502 0.65278 0.36194 0.0
Eu147 Eu 0.8408 0.64513 0.42591 0.0
C148 C 0.86003 0.69935 0.32891 0.0
O149 O 0.8383 0.70573 0.33844 0.0
C150 C 0.81389 0.6857 0.39639 0.0
O151 O 0.8397 0.62495 0.46294 0.0
C152 C 0.88074 0.67262 0.4255 0.0
C153 C 0.82701 0.60401 0.46557 0.0
O154 O 0.81205 0.59674 0.44747 0.0
C155 C 0.85834 0.60116 0.38942 0.0
C156 C 0.90782 0.67371 0.4302 0.0
C157 C 0.92327 0.67772 0.40948 0.0
C158 C 0.94928 0.67765 0.41181 0.0
C159 C 0.95968 0.67452 0.43566 0.0
C160 C 0.9446 0.67357 0.45716 0.0
C161 C 0.9184 0.67238 0.45429 0.0
O162 O 0.83509 0.68483 0.38353 0.0
O163 O 0.80853 0.66796 0.41255 0.0
O164 O 0.84291 0.63894 0.32488 0.0
O165 O 0.81259 0.64052 0.35105 0.0
C166 C 0.81939 0.63423 0.32842 0.0
O167 O 0.84158 0.60831 0.40585 0.0
O168 O 0.86932 0.61794 0.37466 0.0
O169 O 0.86531 0.67181 0.44467 0.0
O170 O 0.87355 0.65885 0.40638 0.0
H171 H 0.91474 0.68073 0.39137 0.0
H172 H 0.97972 0.67252 0.43768 0.0
H173 H 0.90638 0.67104 0.47057 0.0
O174 O 0.34011 0.36689 0.8397 0.0
Tb175 Tb 0.36886 0.34857 0.86286 0.0
Eu176 Eu 0.38213 0.34151 0.92484 0.0
C177 C 0.32551 0.35165 0.82656 0.0
O178 O 0.32817 0.32744 0.83 0.0
C179 C 0.34055 0.3101 0.89964 0.0
O180 O 0.40333 0.33966 0.96108 0.0
C181 C 0.35231 0.37963 0.92782 0.0
C182 C 0.42498 0.32819 0.96265 0.0
O183 O 0.43313 0.31517 0.94344 0.0
C184 C 0.4212 0.36209 0.88539 0.0
C185 C 0.35075 0.40695 0.93135 0.0
C186 C 0.34701 0.42169 0.91013 0.0
C187 C 0.3464 0.44777 0.91176 0.0
C188 C 0.34808 0.459 0.93546 0.0
C189 C 0.34895 0.44454 0.95734 0.0
C190 C 0.35099 0.41833 0.95515 0.0
O191 O 0.33884 0.32899 0.8837 0.0
O192 O 0.3599 0.30773 0.91464 0.0
O193 O 0.3792 0.34072 0.82469 0.0
O194 O 0.38682 0.31316 0.85262 0.0
C195 C 0.38835 0.31873 0.82892 0.0
O196 O 0.41788 0.34534 0.90291 0.0
O197 O 0.40153 0.37189 0.87388 0.0
O198 O 0.35794 0.36562 0.94717 0.0
O199 O 0.36241 0.37177 0.90678 0.0
H200 H 0.34468 0.41261 0.89217 0.0
H201 H 0.34918 0.47916 0.93707 0.0
H202 H 0.35208 0.40685 0.97178 0.0
O203 O 0.64827 0.83422 0.34478 0.0
Tb204 Tb 0.67112 0.86305 0.36372 0.0
Eu205 Eu 0.67937 0.88002 0.42601 0.0
C206 C 0.65961 0.81382 0.33609 0.0
O207 O 0.68275 0.80955 0.34312 0.0
C208 C 0.71091 0.83905 0.4004 0.0
O209 O 0.68085 0.90187 0.46205 0.0
C210 C 0.64264 0.84851 0.42912 0.0
C211 C 0.69246 0.92355 0.46315 0.0
O212 O 0.7055 0.93117 0.44372 0.0
C213 C 0.66025 0.91884 0.38431 0.0
C214 C 0.61605 0.84458 0.43525 0.0
C215 C 0.59945 0.84101 0.41533 0.0
C216 C 0.57412 0.83643 0.41972 0.0
C217 C 0.56535 0.83503 0.44433 0.0
C218 C 0.58162 0.83808 0.46454 0.0
C219 C 0.60716 0.8427 0.46009 0.0
O220 O 0.6901 0.83531 0.38758 0.0
O221 O 0.71381 0.85958 0.41376 0.0
O222 O 0.67334 0.86542 0.32381 0.0
O223 O 0.70618 0.87392 0.34506 0.0
C224 C 0.69668 0.87165 0.32265 0.0
O225 O 0.67346 0.9157 0.40471 0.0
O226 O 0.65228 0.89951 0.37073 0.0
O227 O 0.65847 0.85246 0.44753 0.0
O228 O 0.64774 0.86147 0.40878 0.0
H229 H 0.60623 0.84191 0.39622 0.0
H230 H 0.54552 0.83234 0.44791 0.0
H231 H 0.61977 0.84513 0.47576 0.0
O232 O 0.68219 0.18085 0.37302 0.0
Tb233 Tb 0.65812 0.15503 0.35122 0.0
Eu234 Eu 0.59309 0.14327 0.34637 0.0
C235 C 0.68636 0.20459 0.3668 0.0
O236 O 0.67103 0.21583 0.35135 0.0
C237 C 0.61952 0.18496 0.31408 0.0
O238 O 0.55869 0.11895 0.34511 0.0
C239 C 0.59081 0.17036 0.38638 0.0
C240 C 0.54958 0.11034 0.32402 0.0
O241 O 0.55962 0.11747 0.30274 0.0
C242 C 0.63389 0.10192 0.35967 0.0
C243 C 0.58791 0.17139 0.41382 0.0
C244 C 0.6098 0.17281 0.42798 0.0
C245 C 0.6091 0.17514 0.45398 0.0
C246 C 0.58567 0.17739 0.46579 0.0
C247 C 0.56354 0.17841 0.4518 0.0
C248 C 0.56454 0.17475 0.42574 0.0
O249 O 0.63841 0.18487 0.33022 0.0
O250 O 0.60201 0.16749 0.31361 0.0
O251 O 0.67269 0.13988 0.31597 0.0
O252 O 0.69685 0.1448 0.34736 0.0
C253 C 0.69542 0.13715 0.32448 0.0
O254 O 0.61497 0.10763 0.3453 0.0
O255 O 0.64693 0.11991 0.37081 0.0
O256 O 0.57102 0.16559 0.37252 0.0
O257 O 0.61175 0.16061 0.37756 0.0
H258 H 0.62763 0.17301 0.41837 0.0
H259 H 0.58431 0.1792 0.48591 0.0
H260 H 0.54753 0.17596 0.41481 0.0
O261 O 0.8396 0.18316 0.86834 0.0
Tb262 Tb 0.86804 0.15936 0.85018 0.0
Eu263 Eu 0.87999 0.0961 0.84385 0.0
C264 C 0.82373 0.19423 0.85286 0.0
O265 O 0.82548 0.18859 0.82898 0.0
C266 C 0.83909 0.12247 0.81307 0.0
O267 O 0.90266 0.06052 0.84315 0.0
C268 C 0.85152 0.09498 0.88296 0.0
C269 C 0.92473 0.0599 0.8322 0.0
O270 O 0.93208 0.07919 0.81884 0.0
C271 C 0.92045 0.13563 0.86188 0.0
C272 C 0.84998 0.08902 0.90975 0.0
C273 C 0.84302 0.10836 0.92598 0.0
C274 C 0.83979 0.10387 0.9515 0.0
C275 C 0.84341 0.07967 0.96082 0.0
C276 C 0.8503 0.06011 0.9449 0.0
C277 C 0.85367 0.06468 0.91926 0.0
O278 O 0.83739 0.13712 0.83302 0.0
O279 O 0.85824 0.10732 0.81029 0.0
O280 O 0.87759 0.19713 0.83949 0.0
O281 O 0.88401 0.1675 0.81333 0.0
C282 C 0.88564 0.19155 0.81732 0.0
O283 O 0.91507 0.11885 0.84491 0.0
O284 O 0.90244 0.14971 0.87167 0.0
O285 O 0.85301 0.07632 0.86696 0.0
O286 O 0.8648 0.11477 0.8766 0.0
H287 H 0.84002 0.12705 0.91868 0.0
H288 H 0.8417 0.07608 0.98072 0.0
H289 H 0.85896 0.04945 0.90694 0.0
O290 O 0.8303 0.33973 0.36943 0.0
Tb291 Tb 0.85841 0.36582 0.35333 0.0
Eu292 Eu 0.92269 0.3785 0.34458 0.0
C293 C 0.83544 0.31588 0.37356 0.0
O294 O 0.859 0.30897 0.3736 0.0
C295 C 0.89496 0.33384 0.31773 0.0
O296 O 0.95885 0.39921 0.33729 0.0
C297 C 0.92837 0.35752 0.38755 0.0
C298 C 0.95942 0.42204 0.32818 0.0
O299 O 0.93876 0.43198 0.31943 0.0
C300 C 0.88289 0.41776 0.36386 0.0
C301 C 0.93107 0.34537 0.41208 0.0
C302 C 0.90968 0.33486 0.42313 0.0
C303 C 0.909 0.32947 0.44877 0.0
C304 C 0.93145 0.33161 0.46235 0.0
C305 C 0.95343 0.34109 0.45148 0.0
C306 C 0.95325 0.34794 0.42614 0.0
O307 O 0.87962 0.33437 0.33718 0.0
O308 O 0.91252 0.35091 0.3144 0.0
O309 O 0.82402 0.38412 0.34308 0.0
O310 O 0.85255 0.37957 0.31532 0.0
C311 C 0.83037 0.38853 0.32012 0.0
O312 O 0.89954 0.41377 0.34621 0.0
O313 O 0.87187 0.39847 0.37508 0.0
O314 O 0.94753 0.36268 0.37301 0.0
O315 O 0.90629 0.36315 0.37841 0.0
H316 H 0.89294 0.3327 0.41198 0.0
H317 H 0.93177 0.32786 0.48218 0.0
H318 H 0.96961 0.35682 0.41799 0.0
O319 O 0.68355 0.34178 0.86834 0.0
Tb320 Tb 0.65588 0.36631 0.85021 0.0
Eu321 Eu 0.64534 0.42947 0.84145 0.0
C322 C 0.69945 0.33066 0.85286 0.0
O323 O 0.69786 0.33639 0.82901 0.0
C324 C 0.68543 0.4006 0.81173 0.0
O325 O 0.62511 0.46602 0.83524 0.0
C326 C 0.67428 0.43384 0.88008 0.0
C327 C 0.60182 0.46605 0.8273 0.0
O328 O 0.59135 0.44503 0.82003 0.0
C329 C 0.60402 0.39146 0.86343 0.0
C330 C 0.67547 0.43814 0.90727 0.0
C331 C 0.6831 0.41797 0.92206 0.0
C332 C 0.68301 0.41958 0.94813 0.0
C333 C 0.67662 0.44246 0.95932 0.0
C334 C 0.67032 0.46337 0.94489 0.0
C335 C 0.66965 0.46126 0.91868 0.0
O336 O 0.68714 0.38753 0.83267 0.0
O337 O 0.66657 0.4159 0.8082 0.0
O338 O 0.6449 0.32892 0.83937 0.0
O339 O 0.63963 0.35881 0.81341 0.0
C340 C 0.63702 0.33484 0.81727 0.0
O341 O 0.60925 0.40896 0.84712 0.0
O342 O 0.62195 0.37671 0.8723 0.0
O343 O 0.66907 0.45273 0.86526 0.0
O344 O 0.66422 0.41251 0.87285 0.0
H345 H 0.68858 0.40063 0.91305 0.0
H346 H 0.67566 0.44409 0.97949 0.0
H347 H 0.66416 0.4772 0.90748 0.0
O348 O 0.68364 0.33807 0.15448 0.0
Tb349 Tb 0.66112 0.36685 0.1737 0.0
Eu350 Eu 0.60036 0.38211 0.18088 0.0
C351 C 0.69475 0.32138 0.16905 0.0
O352 O 0.6904 0.32275 0.19322 0.0
C353 C 0.62339 0.33892 0.21145 0.0
O354 O 0.56539 0.40545 0.18188 0.0
C355 C 0.59724 0.35333 0.14195 0.0
C356 C 0.56452 0.42692 0.19386 0.0
O357 O 0.58338 0.43357 0.20815 0.0
C358 C 0.64102 0.42036 0.16168 0.0
C359 C 0.59278 0.35144 0.11482 0.0
C360 C 0.61344 0.3474 0.09918 0.0
C361 C 0.6102 0.34315 0.07365 0.0
C362 C 0.58605 0.34313 0.0636 0.0
C363 C 0.56495 0.34636 0.07888 0.0
C364 C 0.56842 0.35076 0.10463 0.0
O365 O 0.63917 0.33699 0.19239 0.0
O366 O 0.60904 0.35873 0.21419 0.0
O367 O 0.69921 0.37523 0.1841 0.0
O368 O 0.66976 0.38433 0.20968 0.0
C369 C 0.69385 0.38474 0.20574 0.0
O370 O 0.62385 0.417 0.1788 0.0
O371 O 0.65203 0.40068 0.15125 0.0
O372 O 0.57813 0.35795 0.15676 0.0
O373 O 0.61823 0.36394 0.14929 0.0
H374 H 0.63219 0.34714 0.10695 0.0
H375 H 0.58372 0.34123 0.04356 0.0
H376 H 0.55226 0.35291 0.11671 0.0
O377 O 0.68128 0.18825 0.654 0.0
Tb378 Tb 0.65494 0.16303 0.67358 0.0
Eu379 Eu 0.64585 0.09783 0.68 0.0
C380 C 0.70503 0.18275 0.64977 0.0
O381 O 0.71252 0.15955 0.65264 0.0
C382 C 0.68505 0.127 0.71103 0.0
O383 O 0.62615 0.06049 0.6787 0.0
C384 C 0.67608 0.099 0.64231 0.0
C385 C 0.60528 0.0565 0.69113 0.0
O386 O 0.59714 0.07371 0.70671 0.0
C387 C 0.60328 0.13681 0.66413 0.0
C388 C 0.68071 0.09316 0.61589 0.0
C389 C 0.68848 0.11303 0.60084 0.0
C390 C 0.69352 0.10933 0.57556 0.0
C391 C 0.69106 0.08529 0.56538 0.0
C392 C 0.68477 0.06461 0.58032 0.0
C393 C 0.67919 0.06874 0.60581 0.0
O394 O 0.6857 0.142 0.69135 0.0
O395 O 0.66699 0.11042 0.71386 0.0
O396 O 0.64083 0.20012 0.68058 0.0
O397 O 0.6411 0.17381 0.71065 0.0
C398 C 0.63518 0.19648 0.70383 0.0
O399 O 0.60927 0.11833 0.67904 0.0
O400 O 0.62096 0.15043 0.6532 0.0
O401 O 0.67546 0.08042 0.6584 0.0
O402 O 0.66035 0.11728 0.6474 0.0
H403 H 0.69027 0.13164 0.60881 0.0
H404 H 0.69307 0.08289 0.54536 0.0
H405 H 0.6741 0.05317 0.61774 0.0
O406 O 0.83578 0.17669 0.14976 0.0
Tb407 Tb 0.86187 0.15332 0.17187 0.0
Eu408 Eu 0.92451 0.13966 0.18325 0.0
C409 C 0.83249 0.20061 0.15557 0.0
O410 O 0.84793 0.21121 0.17134 0.0
C411 C 0.89796 0.18535 0.20643 0.0
O412 O 0.95676 0.1127 0.18643 0.0
C413 C 0.92941 0.15977 0.13998 0.0
C414 C 0.9587 0.09805 0.16669 0.0
O415 O 0.94202 0.10072 0.14886 0.0
C416 C 0.88295 0.09905 0.16861 0.0
C417 C 0.93223 0.17127 0.11523 0.0
C418 C 0.91078 0.17852 0.1023 0.0
C419 C 0.91151 0.18263 0.07642 0.0
C420 C 0.93499 0.18197 0.06429 0.0
C421 C 0.95718 0.17739 0.07758 0.0
C422 C 0.95556 0.1716 0.10315 0.0
O423 O 0.8863 0.18423 0.18458 0.0
O424 O 0.91426 0.168 0.2125 0.0
O425 O 0.82513 0.14651 0.18733 0.0
O426 O 0.85702 0.14178 0.21079 0.0
C427 C 0.83273 0.1404 0.20947 0.0
O428 O 0.89934 0.10594 0.18562 0.0
O429 O 0.87101 0.11622 0.15526 0.0
O430 O 0.94803 0.15887 0.15603 0.0
O431 O 0.90799 0.1502 0.14766 0.0
H432 H 0.89325 0.17941 0.11243 0.0
H433 H 0.93615 0.18343 0.04418 0.0
H434 H 0.97222 0.16659 0.11349 0.0
O435 O 0.8427 0.33288 0.64929 0.0
Tb436 Tb 0.86817 0.35903 0.66867 0.0
Eu437 Eu 0.88025 0.42186 0.67881 0.0
C438 C 0.82155 0.32565 0.66021 0.0
O439 O 0.81495 0.33627 0.68137 0.0
C440 C 0.8363 0.39463 0.70396 0.0
O441 O 0.90289 0.45757 0.67902 0.0
C442 C 0.85301 0.425 0.63887 0.0
C443 C 0.92364 0.46055 0.69183 0.0
O444 O 0.93039 0.44359 0.7082 0.0
C445 C 0.92056 0.38315 0.65937 0.0
C446 C 0.85146 0.43098 0.612 0.0
C447 C 0.84644 0.41109 0.59567 0.0
C448 C 0.84268 0.41531 0.57022 0.0
C449 C 0.8442 0.43974 0.56098 0.0
C450 C 0.84789 0.46023 0.57701 0.0
C451 C 0.85193 0.45573 0.60269 0.0
O452 O 0.83697 0.38217 0.68254 0.0
O453 O 0.85512 0.40936 0.71027 0.0
O454 O 0.88408 0.32342 0.67876 0.0
O455 O 0.8796 0.35121 0.7072 0.0
C456 C 0.88757 0.32871 0.70212 0.0
O457 O 0.91596 0.39945 0.67713 0.0
O458 O 0.90178 0.37173 0.64783 0.0
O459 O 0.85514 0.44338 0.6551 0.0
O460 O 0.86532 0.40471 0.64518 0.0
H461 H 0.84486 0.39222 0.60297 0.0
H462 H 0.84268 0.44282 0.54102 0.0
H463 H 0.85459 0.47134 0.61536 0.0
O464 O 0.3687 0.69164 0.17844 0.0
Tb465 Tb 0.35135 0.66288 0.15431 0.0
Eu466 Eu 0.3443 0.60082 0.13885 0.0
C467 C 0.35843 0.69733 0.20035 0.0
O468 O 0.33917 0.6841 0.20812 0.0
C469 C 0.32295 0.62419 0.18708 0.0
O470 O 0.33783 0.56476 0.11779 0.0
C471 C 0.38749 0.59608 0.15934 0.0
C472 C 0.32876 0.56421 0.09497 0.0
O473 O 0.31931 0.58468 0.08529 0.0
C474 C 0.36017 0.64293 0.09944 0.0
C475 C 0.41215 0.59368 0.17109 0.0
C476 C 0.42432 0.61524 0.17945 0.0
C477 C 0.45015 0.61523 0.1841 0.0
C478 C 0.46295 0.59215 0.18305 0.0
C479 C 0.45031 0.56975 0.1773 0.0
C480 C 0.42482 0.57078 0.17097 0.0
O481 O 0.34398 0.63722 0.18558 0.0
O482 O 0.31543 0.61079 0.16785 0.0
O483 O 0.33036 0.69552 0.14314 0.0
O484 O 0.3114 0.66045 0.14635 0.0
C485 C 0.30911 0.68399 0.14082 0.0
O486 O 0.34522 0.62381 0.10365 0.0
O487 O 0.37029 0.65584 0.11817 0.0
O488 O 0.37211 0.57702 0.15681 0.0
O489 O 0.37937 0.61763 0.15077 0.0
H490 H 0.41363 0.63235 0.18086 0.0
H491 H 0.48305 0.5915 0.18515 0.0
H492 H 0.41497 0.55397 0.16525 0.0
O493 O 0.36438 0.83459 0.34184 0.0
Tb494 Tb 0.34821 0.86185 0.3685 0.0
Eu495 Eu 0.33729 0.92465 0.38096 0.0
C496 C 0.36903 0.84005 0.31816 0.0
O497 O 0.36811 0.86355 0.31109 0.0
C498 C 0.30938 0.89676 0.33897 0.0
O499 O 0.32924 0.9585 0.40456 0.0
C500 C 0.37529 0.93335 0.35196 0.0
C501 C 0.34768 0.96614 0.41893 0.0
O502 O 0.36947 0.95499 0.41698 0.0
C503 C 0.36207 0.88689 0.41968 0.0
C504 C 0.40239 0.93882 0.35148 0.0
C505 C 0.41899 0.9187 0.35033 0.0
C506 C 0.44493 0.92233 0.35096 0.0
C507 C 0.45422 0.94701 0.35081 0.0
C508 C 0.43787 0.96742 0.34906 0.0
C509 C 0.41187 0.96334 0.3499 0.0
O510 O 0.32939 0.88219 0.33786 0.0
O511 O 0.30508 0.91139 0.35828 0.0
O512 O 0.33916 0.827 0.38671 0.0
O513 O 0.31102 0.85517 0.3841 0.0
C514 C 0.31645 0.83301 0.39262 0.0
O515 O 0.34451 0.90362 0.41648 0.0
O516 O 0.37172 0.87479 0.40021 0.0
O517 O 0.35987 0.95109 0.35925 0.0
O518 O 0.36874 0.9109 0.35983 0.0
H519 H 0.41141 0.89999 0.34858 0.0
H520 H 0.47414 0.95066 0.35129 0.0
H521 H 0.39922 0.97913 0.34884 0.0
O522 O 0.19033 0.86577 0.84632 0.0
Tb523 Tb 0.16085 0.84938 0.87032 0.0
Eu524 Eu 0.09784 0.84049 0.87675 0.0
C525 C 0.18629 0.87466 0.82363 0.0
O526 O 0.16319 0.87844 0.81623 0.0
C527 C 0.12709 0.81537 0.83459 0.0
O528 O 0.06086 0.83775 0.89696 0.0
C529 C 0.09757 0.88142 0.85089 0.0
C530 C 0.05901 0.82522 0.91802 0.0
O531 O 0.07772 0.81093 0.92497 0.0
C532 C 0.13329 0.85848 0.92123 0.0
C533 C 0.09392 0.90869 0.85098 0.0
C534 C 0.11526 0.92349 0.84786 0.0
C535 C 0.11382 0.9495 0.84841 0.0
C536 C 0.0903 0.96083 0.85128 0.0
C537 C 0.06817 0.94648 0.85195 0.0
C538 C 0.07021 0.92012 0.85227 0.0
O539 O 0.1406 0.83611 0.83672 0.0
O540 O 0.11098 0.80917 0.85219 0.0
O541 O 0.19431 0.83688 0.88877 0.0
O542 O 0.16539 0.81024 0.88117 0.0
C543 C 0.18729 0.81382 0.89131 0.0
O544 O 0.11711 0.84151 0.91396 0.0
O545 O 0.14799 0.86955 0.90448 0.0
O546 O 0.07794 0.86659 0.85257 0.0
O547 O 0.1173 0.87314 0.86298 0.0
H548 H 0.13322 0.91452 0.84499 0.0
H549 H 0.08924 0.98094 0.8534 0.0
H550 H 0.05358 0.90852 0.8529 0.0
O551 O 0.15449 0.68407 0.34323 0.0
Tb552 Tb 0.17654 0.65691 0.36538 0.0
Eu553 Eu 0.1831 0.59406 0.37726 0.0
C554 C 0.16035 0.68952 0.31966 0.0
O555 O 0.17624 0.67506 0.30774 0.0
C556 C 0.21394 0.62114 0.3368 0.0
O557 O 0.18722 0.55746 0.39798 0.0
C558 C 0.14449 0.59143 0.34818 0.0
C559 C 0.19596 0.55712 0.42096 0.0
O560 O 0.20511 0.57768 0.43086 0.0
C561 C 0.16423 0.63359 0.41903 0.0
C562 C 0.11738 0.58669 0.34596 0.0
C563 C 0.102 0.60742 0.34174 0.0
C564 C 0.07645 0.60434 0.33786 0.0
C565 C 0.06597 0.58039 0.33865 0.0
C566 C 0.08093 0.55904 0.34144 0.0
C567 C 0.1069 0.56233 0.34538 0.0
O568 O 0.19327 0.63462 0.33453 0.0
O569 O 0.21687 0.60646 0.35624 0.0
O570 O 0.1927 0.6937 0.3668 0.0
O571 O 0.21248 0.66372 0.38411 0.0
C572 C 0.21257 0.68756 0.37905 0.0
O573 O 0.17887 0.61482 0.41327 0.0
O574 O 0.15637 0.64943 0.40149 0.0
O575 O 0.15957 0.57239 0.35193 0.0
O576 O 0.15138 0.61205 0.35987 0.0
H577 H 0.10999 0.62611 0.34115 0.0
H578 H 0.0458 0.57855 0.33755 0.0
H579 H 0.11889 0.54616 0.34738 0.0
O580 O 0.33763 0.6525 0.83798 0.0
Tb581 Tb 0.3632 0.67521 0.86124 0.0
Eu582 Eu 0.42573 0.68037 0.87886 0.0
C583 C 0.33243 0.65961 0.81477 0.0
O584 O 0.34584 0.67769 0.80482 0.0
C585 C 0.40213 0.71081 0.83678 0.0
O586 O 0.46037 0.67869 0.9029 0.0
C587 C 0.42648 0.64273 0.84862 0.0
C588 C 0.4605 0.68908 0.92519 0.0
O589 O 0.44141 0.70283 0.93219 0.0
C590 C 0.38078 0.6653 0.91666 0.0
C591 C 0.43286 0.6163 0.84496 0.0
C592 C 0.41334 0.60019 0.8384 0.0
C593 C 0.41792 0.57501 0.83346 0.0
C594 C 0.44248 0.56602 0.83459 0.0
C595 C 0.46247 0.58177 0.84127 0.0
C596 C 0.45757 0.60716 0.84635 0.0
O597 O 0.39012 0.68941 0.83345 0.0
O598 O 0.41518 0.71447 0.8573 0.0
O599 O 0.3283 0.69492 0.85732 0.0
O600 O 0.35636 0.71072 0.88075 0.0
C601 C 0.33391 0.71345 0.87182 0.0
O602 O 0.40089 0.67887 0.91261 0.0
O603 O 0.36727 0.65605 0.89791 0.0
O604 O 0.44487 0.65908 0.85011 0.0
O605 O 0.40725 0.64772 0.86326 0.0
H606 H 0.39436 0.60729 0.83719 0.0
H607 H 0.44596 0.54642 0.83076 0.0
H608 H 0.47278 0.6196 0.85149 0.0
O609 O 0.14811 0.84416 0.19098 0.0
Tb610 Tb 0.16956 0.86153 0.15995 0.0
Eu611 Eu 0.18226 0.92273 0.14001 0.0
C612 C 0.16078 0.83643 0.21093 0.0
O613 O 0.18463 0.84204 0.21251 0.0
C614 C 0.21141 0.8982 0.18337 0.0
O615 O 0.18765 0.95667 0.11562 0.0
C616 C 0.14436 0.93012 0.16932 0.0
C617 C 0.17307 0.9594 0.09602 0.0
O618 O 0.1562 0.94213 0.09115 0.0
C619 C 0.16054 0.88051 0.10442 0.0
C620 C 0.11774 0.93594 0.17321 0.0
C621 C 0.10262 0.9168 0.18276 0.0
C622 C 0.07722 0.92072 0.18726 0.0
C623 C 0.06711 0.94459 0.18359 0.0
C624 C 0.08197 0.96412 0.17441 0.0
C625 C 0.10737 0.95981 0.16891 0.0
O626 O 0.19075 0.88486 0.18675 0.0
O627 O 0.21497 0.91172 0.16315 0.0
O628 O 0.1706 0.82149 0.15706 0.0
O629 O 0.20342 0.84229 0.147 0.0
C630 C 0.19355 0.82001 0.14947 0.0
O631 O 0.1783 0.89727 0.10686 0.0
O632 O 0.14952 0.87072 0.12453 0.0
O633 O 0.15989 0.9481 0.16282 0.0
O634 O 0.14984 0.90817 0.1596 0.0
H635 H 0.11049 0.89838 0.18599 0.0
H636 H 0.04716 0.94762 0.18599 0.0
H637 H 0.11874 0.97476 0.16119 0.0
O638 O 0.18467 0.65005 0.68299 0.0
Tb639 Tb 0.15932 0.67109 0.65802 0.0
Eu640 Eu 0.09907 0.67862 0.6404 0.0
C641 C 0.18284 0.65172 0.70766 0.0
O642 O 0.16274 0.66187 0.71743 0.0
C643 C 0.12221 0.70878 0.68335 0.0
O644 O 0.06322 0.68052 0.61851 0.0
C645 C 0.09565 0.63992 0.6694 0.0
C646 C 0.06255 0.69073 0.59621 0.0
O647 O 0.08252 0.7023 0.58764 0.0
C648 C 0.14133 0.65985 0.60262 0.0
C649 C 0.09009 0.61297 0.67143 0.0
C650 C 0.10985 0.5972 0.67816 0.0
C651 C 0.10587 0.57162 0.68164 0.0
C652 C 0.08179 0.56171 0.67858 0.0
C653 C 0.06178 0.57707 0.67189 0.0
C654 C 0.0658 0.60286 0.66835 0.0
O655 O 0.13433 0.68752 0.6866 0.0
O656 O 0.10955 0.71247 0.66266 0.0
O657 O 0.1962 0.68738 0.65796 0.0
O658 O 0.16686 0.70671 0.63911 0.0
C659 C 0.19048 0.70698 0.64505 0.0
O660 O 0.12265 0.67544 0.60565 0.0
O661 O 0.15314 0.65026 0.62233 0.0
O662 O 0.07704 0.65552 0.66578 0.0
O663 O 0.11638 0.64631 0.65772 0.0
H664 H 0.12854 0.60485 0.68062 0.0
H665 H 0.07869 0.5417 0.68033 0.0
H666 H 0.05028 0.61475 0.66311 0.0
O667 O 0.33288 0.87165 0.68161 0.0
Tb668 Tb 0.35906 0.85404 0.65493 0.0
Eu669 Eu 0.41895 0.83688 0.63993 0.0
C670 C 0.32305 0.85742 0.6995 0.0
O671 O 0.3303 0.83398 0.70089 0.0
C672 C 0.39261 0.81797 0.68713 0.0
O673 O 0.45179 0.8251 0.61638 0.0
C674 C 0.431 0.87671 0.66497 0.0
C675 C 0.45849 0.84093 0.59878 0.0
O676 O 0.4456 0.8617 0.59632 0.0
C677 C 0.38151 0.86232 0.60206 0.0
C678 C 0.43807 0.90318 0.66848 0.0
C679 C 0.41906 0.91951 0.6762 0.0
C680 C 0.42428 0.94442 0.68192 0.0
C681 C 0.44893 0.95305 0.68012 0.0
C682 C 0.46859 0.93692 0.67379 0.0
C683 C 0.46309 0.91184 0.66749 0.0
O684 O 0.38213 0.84036 0.68606 0.0
O685 O 0.40448 0.80882 0.66756 0.0
O686 O 0.32451 0.84268 0.63732 0.0
O687 O 0.35269 0.81515 0.64407 0.0
C688 C 0.33065 0.8194 0.63462 0.0
O689 O 0.39525 0.84232 0.60554 0.0
O690 O 0.37246 0.87476 0.62159 0.0
O691 O 0.44764 0.85978 0.65858 0.0
O692 O 0.40831 0.87193 0.65682 0.0
H693 H 0.4 0.91272 0.67811 0.0
H694 H 0.45287 0.97274 0.68316 0.0
H695 H 0.47812 0.89914 0.66264 0.0
H696 H 0.16011 0.48833 0.54687 0.0
H697 H 0.19148 0.42012 0.51535 0.0
H698 H 0.19646 0.44148 0.47484 0.0
H699 H 0.13038 0.51314 0.49167 0.0
H700 H 0.13982 0.54484 0.49852 0.0
H701 H 0.13451 0.52302 0.52365 0.0
H702 H 0.17925 0.53152 0.54043 0.0
H703 H 0.18466 0.55337 0.51543 0.0
H704 H 0.20572 0.52745 0.51986 0.0
H705 H 0.19969 0.47138 0.4378 0.0
H706 H 0.20455 0.50789 0.4094 0.0
H707 H 0.17823 0.55695 0.46837 0.0
C708 C 0.16824 0.47766 0.53171 0.0
C709 C 0.17543 0.45233 0.53468 0.0
C710 C 0.18523 0.4393 0.5137 0.0
C711 C 0.18837 0.45136 0.49056 0.0
C712 C 0.18203 0.47657 0.48877 0.0
C713 C 0.17245 0.4896 0.50893 0.0
C714 C 0.16959 0.51714 0.50319 0.0
C715 C 0.14193 0.52499 0.50432 0.0
C716 C 0.18578 0.53331 0.52076 0.0
C717 C 0.17943 0.51767 0.4767 0.0
C718 C 0.18587 0.49404 0.46838 0.0
C719 C 0.19486 0.48998 0.44418 0.0
C720 C 0.19757 0.51072 0.42822 0.0
C721 C 0.19212 0.53508 0.43694 0.0
C722 C 0.18284 0.53851 0.46139 0.0
H723 H 0.50947 0.70193 0.93434 0.0
H724 H 0.44845 0.65486 0.95995 0.0
H725 H 0.47442 0.64012 0.99514 0.0
H726 H 0.56178 0.65907 0.95503 0.0
H727 H 0.58122 0.68501 0.96452 0.0
H728 H 0.5597 0.68855 0.93881 0.0
H729 H 0.53933 0.72663 0.96106 0.0
H730 H 0.56084 0.72326 0.98664 0.0
H731 H 0.52758 0.72305 0.9925 0.0
H732 H 0.50452 0.63388 0.02935 0.0
H733 H 0.53543 0.63942 0.06307 0.0
H734 H 0.57706 0.69179 0.01711 0.0
C735 C 0.50199 0.68803 0.94706 0.0
C736 C 0.47725 0.67915 0.94447 0.0
C737 C 0.46756 0.66154 0.96166 0.0
C738 C 0.4822 0.65299 0.98156 0.0
C739 C 0.50649 0.66226 0.98393 0.0
C740 C 0.51637 0.67944 0.96725 0.0
C741 C 0.54197 0.68842 0.97577 0.0
C742 C 0.56238 0.67975 0.95743 0.0
C743 C 0.54244 0.71703 0.97921 0.0
C744 C 0.54421 0.6748 1.00054 0.0
C745 C 0.52386 0.65917 1.00437 0.0
C746 C 0.52076 0.64568 0.0264 0.0
C747 C 0.53843 0.64887 0.0454 0.0
C748 C 0.55874 0.6657 0.04244 0.0
C749 C 0.56208 0.67829 0.01947 0.0
H750 H 0.37733 0.03709 0.54616 0.0
H751 H 0.31931 0.09043 0.52723 0.0
H752 H 0.31135 0.06753 0.48774 0.0
H753 H 0.40145 0.02845 0.48394 0.0
H754 H 0.40724 0.9955 0.48827 0.0
H755 H 0.40843 0.01647 0.51464 0.0
H756 H 0.37546 0.98919 0.53771 0.0
H757 H 0.37401 0.96823 0.51134 0.0
H758 H 0.34585 0.98277 0.52287 0.0
H759 H 0.3081 0.03701 0.45157 0.0
H760 H 0.31289 1.0038 0.41945 0.0
H761 H 0.37386 0.9717 0.46211 0.0
C762 C 0.36304 0.04403 0.53364 0.0
C763 C 0.34896 0.06555 0.53964 0.0
C764 C 0.33052 0.07416 0.52275 0.0
C765 C 0.32572 0.06116 0.50044 0.0
C766 C 0.33962 0.03969 0.49534 0.0
C767 C 0.35807 0.03136 0.51136 0.0
C768 C 0.37049 1.00791 0.50157 0.0
C769 C 0.39856 0.01236 0.49682 0.0
C770 C 0.36619 0.98572 0.51943 0.0
C771 C 0.35629 1.00445 0.4774 0.0
C772 C 0.3383 0.02271 0.47426 0.0
C773 C 0.32231 0.02278 0.45367 0.0
C774 C 0.3251 1.00387 0.43559 0.0
C775 C 0.34398 0.98555 0.43815 0.0
C776 C 0.35958 0.98581 0.45943 0.0
H777 H 0.05286 0.80638 0.96506 0.0
H778 H 0.01838 0.85601 0.91102 0.0
H779 H 0.98549 0.86656 0.94193 0.0
H780 H 0.99575 0.78306 0.99301 0.0
H781 H 1.00895 0.7823 0.024 0.0
H782 H 0.02887 0.7781 0.99711 0.0
H783 H 0.05693 0.81496 0.01211 0.0
H784 H 0.037 0.81937 0.03894 0.0
H785 H 0.04295 0.84508 0.01794 0.0
H786 H 0.95703 0.87261 0.97989 0.0
H787 H 0.93587 0.87345 0.02114 0.0
H788 H 0.98924 0.8191 0.04901 0.0
C789 C 0.03821 0.81917 0.9595 0.0
C790 C 0.03803 0.83009 0.93549 0.0
C791 C 0.01874 0.84714 0.92922 0.0
C792 C 1.00003 0.85333 0.94667 0.0
C793 C 1.00092 0.84232 0.97028 0.0
C794 C 0.01953 0.82557 0.97662 0.0
C795 C 0.01686 0.8168 1.00333 0.0
C796 C 0.01233 0.78838 1.00442 0.0
C797 C 0.03979 0.82452 0.01899 0.0
C798 C 0.99379 0.83117 0.01109 0.0
C799 C 0.98481 0.84584 0.99187 0.0
C800 C 0.96383 0.86106 0.99502 0.0
C801 C 0.95184 0.8613 0.01846 0.0
C802 C 0.96089 0.84642 0.03839 0.0
C803 C 0.98201 0.83103 0.03436 0.0
H804 H 0.1569 0.96365 0.04793 0.0
H805 H 0.19411 1.00502 0.10708 0.0
H806 H 0.19624 0.04235 0.07969 0.0
H807 H 0.19368 0.9891 0.99824 0.0
H808 H 0.16812 0.98931 0.9763 0.0
H809 H 0.16865 0.96659 1.00109 0.0
H810 H 0.12479 0.98138 0.01576 0.0
H811 H 0.12421 1.00432 0.99111 0.0
H812 H 0.11994 0.01396 0.02315 0.0
H813 H 0.19466 0.07507 0.04509 0.0
H814 H 0.19307 0.09869 1.00523 0.0
H815 H 0.15654 0.03537 0.96971 0.0
C816 C 0.16532 0.98062 0.05523 0.0
C817 C 0.17515 0.98157 0.07968 0.0
C818 C 0.18648 1.00394 0.08837 0.0
C819 C 0.18763 0.02525 0.07301 0.0
C820 C 0.17755 0.02373 0.04902 0.0
C821 C 0.16686 1.00186 0.04013 0.0
C822 C 0.15864 1.0045 0.01324 0.0
C823 C 0.17314 0.98631 0.99622 0.0
C824 C 0.1302 1.00082 1.01068 0.0
C825 C 0.16614 0.03136 1.00842 0.0
C826 C 0.17693 0.04226 0.02922 0.0
C827 C 0.18612 0.06675 0.02872 0.0
C828 C 0.18493 0.08012 1.00611 0.0
C829 C 0.17473 0.06887 0.98442 0.0
C830 C 0.16458 0.04445 0.98596 0.0
H831 H 0.98639 0.70029 0.4698 0.0
H832 H 0.93097 0.6495 0.50112 0.0
H833 H 0.9538 0.65017 0.54141 0.0
H834 H 0.03875 0.66992 0.49772 0.0
H835 H 0.05601 0.69866 0.5018 0.0
H836 H 0.034 0.69566 0.47651 0.0
H837 H 1.01074 0.73534 0.49216 0.0
H838 H 0.03259 0.73841 0.51759 0.0
H839 H 0.99947 0.73658 0.52394 0.0
H840 H 0.9844 0.65537 0.57786 0.0
H841 H 0.01983 0.66374 0.60643 0.0
H842 H 0.05569 0.70872 0.54899 0.0
C843 C 0.97899 0.68904 0.48495 0.0
C844 C 0.95689 0.67465 0.48212 0.0
C845 C 0.94769 0.66086 0.50282 0.0
C846 C 0.96064 0.661 0.52572 0.0
C847 C 0.98277 0.67488 0.52748 0.0
C848 C 0.99187 0.6885 0.50751 0.0
C849 C 0.01665 0.70083 0.5134 0.0
C850 C 0.03758 0.69066 0.49635 0.0
C851 C 0.01473 0.72949 0.51167 0.0
C852 C 0.02006 0.69235 0.54005 0.0
C853 C 1.00037 0.67744 0.54795 0.0
C854 C 0.99982 0.66711 0.57186 0.0
C855 C 0.02001 0.67203 0.58796 0.0
C856 C 0.04046 0.68705 0.57999 0.0
C857 C 0.04028 0.69736 0.55575 0.0
H858 H 0.30996 0.55575 0.04816 0.0
H859 H 0.35623 0.52219 0.10565 0.0
H860 H 0.36526 0.4866 0.07749 0.0
H861 H 0.28372 0.49723 0.02425 0.0
H862 H 0.28392 0.5082 0.99239 0.0
H863 H 0.28025 0.53014 0.01774 0.0
H864 H 0.31813 0.55536 1.00105 0.0
H865 H 0.32255 0.53334 0.97597 0.0
H866 H 0.34794 0.5401 0.9971 0.0
H867 H 0.37154 0.45601 0.04148 0.0
H868 H 0.37328 0.43278 1.00144 0.0
H869 H 0.32073 0.48558 0.96927 0.0
C870 C 0.32167 0.54075 0.05503 0.0
C871 C 0.3322 0.54168 0.07919 0.0
C872 C 0.34769 0.52177 0.08731 0.0
C873 C 0.35301 0.5015 0.07142 0.0
C874 C 0.34253 0.50134 0.04759 0.0
C875 C 0.32699 0.52035 0.03955 0.0
C876 C 0.31846 0.51611 0.01296 0.0
C877 C 0.28989 0.51271 0.01177 0.0
C878 C 0.32732 0.53749 0.99577 0.0
C879 C 0.33191 0.49194 1.00714 0.0
C880 C 0.34574 0.48364 0.02724 0.0
C881 C 0.36051 0.46218 0.02571 0.0
C882 C 0.36126 0.449 1.00293 0.0
C883 C 0.34726 0.45732 0.98207 0.0
C884 C 0.33207 0.47885 0.9846 0.0
H885 H 0.54665 0.86932 0.48293 0.0
H886 H 0.59033 0.80388 0.50163 0.0
H887 H 0.56421 0.79746 0.53966 0.0
H888 H 0.53497 0.89129 0.54717 0.0
H889 H 0.50371 0.90126 0.53949 0.0
H890 H 0.52789 0.90179 0.51595 0.0
H891 H 0.50002 0.87413 0.48727 0.0
H892 H 0.476 0.87303 0.51088 0.0
H893 H 0.48886 0.84435 0.49864 0.0
H894 H 0.5298 0.79639 0.57342 0.0
H895 H 0.49304 0.80266 0.60118 0.0
H896 H 0.47276 0.86865 0.55865 0.0
C897 C 0.55123 0.85416 0.49555 0.0
C898 C 0.5707 0.83736 0.48986 0.0
C899 C 0.57583 0.81726 0.50621 0.0
C900 C 0.56094 0.81337 0.52761 0.0
C901 C 0.54119 0.82985 0.53222 0.0
C902 C 0.53661 0.85004 0.51673 0.0
C903 C 0.51361 0.86433 0.5247 0.0
C904 C 0.52046 0.89126 0.53228 0.0
C905 C 0.49344 0.86392 0.50415 0.0
C906 C 0.5057 0.84901 0.54703 0.0
C907 C 0.52168 0.82915 0.55119 0.0
C908 C 0.51737 0.81207 0.57047 0.0
C909 C 0.49642 0.81571 0.58607 0.0
C910 C 0.48016 0.83624 0.5822 0.0
C911 C 0.48493 0.8529 0.56232 0.0
H912 H 0.43727 0.16828 0.53244 0.0
H913 H 0.45347 0.24425 0.55653 0.0
H914 H 0.48841 0.24642 0.52655 0.0
H915 H 0.50028 0.14932 0.52711 0.0
H916 H 0.49606 0.13002 0.49974 0.0
H917 H 0.47033 0.13493 0.52097 0.0
H918 H 0.44317 0.15144 0.48444 0.0
H919 H 0.46886 0.14655 0.46307 0.0
H920 H 0.45461 0.17699 0.46558 0.0
H921 H 0.52281 0.24014 0.4968 0.0
H922 H 0.55673 0.22485 0.46948 0.0
H923 H 0.52026 0.15244 0.4643 0.0
C924 C 0.44782 0.18555 0.53091 0.0
C925 C 0.44241 0.20629 0.54659 0.0
C926 C 0.45712 0.22826 0.5446 0.0
C927 C 0.47698 0.2297 0.52758 0.0
C928 C 0.48205 0.20896 0.51264 0.0
C929 C 0.46804 0.18723 0.51408 0.0
C930 C 0.47891 0.16714 0.49703 0.0
C931 C 0.48687 0.14399 0.51212 0.0
C932 C 0.46027 0.16011 0.4763 0.0
C933 C 0.50145 0.18088 0.48631 0.0
C934 C 0.50255 0.20511 0.4954 0.0
C935 C 0.522 0.22135 0.48925 0.0
C936 C 0.54111 0.21255 0.47369 0.0
C937 C 0.54076 0.18771 0.46449 0.0
C938 C 0.52054 0.17171 0.47061 0.0
H939 H 0.81495 0.02491 0.95455 0.0
H940 H 0.89383 0.04157 0.96285 0.0
H941 H 0.89871 1.00446 0.99017 0.0
H942 H 0.8031 1.0083 0.01513 0.0
H943 H 0.78176 0.98292 1.0086 0.0
H944 H 0.78521 1.0081 0.98657 0.0
H945 H 0.79664 0.97651 0.95151 0.0
H946 H 0.79284 0.95108 0.97335 0.0
H947 H 0.82182 0.95469 0.95641 0.0
H948 H 0.89405 0.96784 0.01914 0.0
H949 H 0.88033 0.93462 0.04824 0.0
H950 H 0.80382 0.94314 0.02273 0.0
C951 C 0.83339 0.02 0.96132 0.0
C952 C 0.85426 0.0353 0.95603 0.0
C953 C 0.87794 0.02933 0.96607 0.0
C954 C 0.88079 1.00846 0.98169 0.0
C955 C 0.85973 0.99387 0.98694 0.0
C956 C 0.83652 0.99924 0.9769 0.0
C957 C 0.81657 0.98169 0.9869 0.0
C958 C 0.79543 0.99613 1.00009 0.0
C959 C 0.80636 0.965 0.96579 0.0
C960 C 0.83184 0.96655 1.00522 0.0
C961 C 0.85683 0.97341 1.00444 0.0
C962 C 0.8746 0.96213 0.0197 0.0
C963 C 0.86664 0.94328 0.03612 0.0
C964 C 0.84105 0.93635 0.03757 0.0
C965 C 0.82347 0.94816 0.02195 0.0
H966 H 0.08779 0.31669 0.51301 0.0
H967 H 0.05367 0.3437 0.58137 0.0
H968 H 0.0168 0.35796 0.5578 0.0
H969 H 0.06057 0.36311 0.46907 0.0
H970 H 0.05447 0.34012 0.44514 0.0
H971 H 0.08043 0.33601 0.46625 0.0
H972 H 0.06317 0.29241 0.47905 0.0
H973 H 0.03735 0.29633 0.45786 0.0
H974 H 0.03146 0.28981 0.49041 0.0
H975 H 0.98373 0.36829 0.52797 0.0
H976 H 0.95172 0.36681 0.49511 0.0
H977 H 1.00327 0.32751 0.4461 0.0
C978 C 0.07267 0.32602 0.52276 0.0
C979 C 0.07374 0.32999 0.54887 0.0
C980 C 0.05337 0.34136 0.56129 0.0
C981 C 0.03241 0.34948 0.54805 0.0
C982 C 0.03179 0.34542 0.52236 0.0
C983 C 0.05099 0.33341 0.50983 0.0
C984 C 0.0437 0.32829 0.48282 0.0
C985 C 0.06082 0.34274 0.46475 0.0
C986 C 0.04393 0.30004 0.47721 0.0
C987 C 0.01726 0.33875 0.48244 0.0
C988 C 1.0113 0.34929 0.5053 0.0
C989 C 0.98809 0.35999 0.51001 0.0
C990 C 0.97003 0.35901 0.49122 0.0
C991 C 0.97489 0.34667 0.46823 0.0
C992 C 0.99912 0.33714 0.46345 0.0
H993 H 0.69424 0.50887 0.94305 0.0
H994 H 0.63304 0.46902 0.97862 0.0
H995 H 0.62863 0.50306 1.00944 0.0
H996 H 0.72335 0.52938 0.99523 0.0
H997 H 0.73169 0.56036 0.98471 0.0
H998 H 0.72724 0.53562 0.96231 0.0
H999 H 0.69382 0.56192 0.93915 0.0
H1000 H 0.69844 0.58704 0.96128 0.0
H1001 H 0.66757 0.57428 0.95637 0.0
H1002 H 0.63501 0.53702 0.03982 0.0
H1003 H 0.65015 0.57118 0.06686 0.0
H1004 H 0.7072 0.59016 0.01264 0.0
C1005 C 0.67916 0.50803 0.9566 0.0
C1006 C 0.66365 0.48664 0.95828 0.0
C1007 C 0.64474 0.48554 0.97684 0.0
C1008 C 0.64217 0.50472 0.99445 0.0
C1009 C 0.65839 0.5251 0.993 0.0
C1010 C 0.67622 0.52722 0.97433 0.0
C1011 C 0.69242 0.55029 0.97837 0.0
C1012 C 0.72032 0.54348 0.98028 0.0
C1013 C 0.6878 0.56953 0.95755 0.0
C1014 C 0.68217 0.5596 1.00316 0.0
C1015 C 0.66214 0.54505 1.01086 0.0
C1016 C 0.65029 0.5489 0.03371 0.0
C1017 C 0.65905 0.56821 0.04905 0.0
C1018 C 0.67958 0.5832 0.04176 0.0
C1019 C 0.69125 0.57903 0.01844 0.0
H1020 H 0.54926 0.31416 0.04229 0.0
H1021 H 0.52371 0.37572 0.08879 0.0
H1022 H 0.48338 0.37579 0.06602 0.0
H1023 H 0.52496 0.33782 0.98593 0.0
H1024 H 0.517 0.3075 0.9734 0.0
H1025 H 0.54243 0.31056 0.99522 0.0
H1026 H 0.52147 0.27766 0.02424 0.0
H1027 H 0.49593 0.27447 1.0025 0.0
H1028 H 0.48973 0.28245 0.03469 0.0
H1029 H 0.44692 0.37068 0.03595 0.0
H1030 H 0.41792 0.36142 1.00117 0.0
H1031 H 0.46914 0.3048 0.97346 0.0
C1032 C 0.5352 0.32766 0.04784 0.0
C1033 C 0.53968 0.34499 0.06735 0.0
C1034 C 0.52059 0.36204 0.07416 0.0
C1035 C 0.4977 0.36231 0.06122 0.0
C1036 C 0.49429 0.34542 0.04157 0.0
C1037 C 0.51258 0.32843 0.03495 0.0
C1038 C 0.50513 0.31324 0.01227 0.0
C1039 C 0.52347 0.31755 0.99043 0.0
C1040 C 0.50293 0.2853 0.01883 0.0
C1041 C 0.47979 0.32446 1.00691 0.0
C1042 C 0.47371 0.34282 0.02411 0.0
C1043 C 0.45142 0.35619 0.02251 0.0
C1044 C 0.43505 0.35075 1.00272 0.0
C1045 C 0.44119 0.33226 0.98467 0.0
C1046 C 0.4638 0.3189 0.98702 0.0
H1047 H 0.71728 0.96719 0.473 0.0
H1048 H 0.65942 0.91809 0.50229 0.0
H1049 H 0.652 0.94777 0.5371 0.0
H1050 H 0.74245 0.98691 0.53255 0.0
H1051 H 0.74822 0.01843 0.52197 0.0
H1052 H 0.7491 0.99285 0.50002 0.0
H1053 H 0.71581 0.01519 0.47268 0.0
H1054 H 0.71473 0.04076 0.49462 0.0
H1055 H 0.68641 0.02423 0.48654 0.0
H1056 H 0.64929 0.98494 0.56738 0.0
H1057 H 0.65257 0.02503 0.59047 0.0
H1058 H 0.71487 0.04675 0.54275 0.0
C1059 C 0.70323 0.96248 0.48686 0.0
C1060 C 0.68905 0.94025 0.485 0.0
C1061 C 0.67069 0.93493 0.50346 0.0
C1062 C 0.66628 0.9517 0.52326 0.0
C1063 C 0.68054 0.97357 0.52442 0.0
C1064 C 0.69877 0.97882 0.50677 0.0
C1065 C 0.71133 1.00364 0.51181 0.0
C1066 C 0.73944 1.00024 0.51689 0.0
C1067 C 0.7068 0.02203 0.49014 0.0
C1068 C 0.69745 0.01156 0.53515 0.0
C1069 C 0.67955 0.99423 0.54208 0.0
C1070 C 0.66352 0.99849 0.5623 0.0
C1071 C 0.66566 0.02124 0.57547 0.0
C1072 C 0.68387 0.0393 0.56848 0.0
C1073 C 0.70034 0.03378 0.54845 0.0
H1074 H 0.9722 0.20806 0.03927 0.0
H1075 H 0.99726 0.14557 0.08463 0.0
H1076 H 0.0368 0.1444 0.06074 0.0
H1077 H 0.99564 0.18382 0.98158 0.0
H1078 H 1.00402 0.21415 0.9694 0.0
H1079 H 0.97858 0.21122 0.99135 0.0
H1080 H 1.00007 0.24356 0.02059 0.0
H1081 H 0.02565 0.24656 0.99878 0.0
H1082 H 0.03174 0.23817 0.03083 0.0
H1083 H 0.07324 0.14943 0.03099 0.0
H1084 H 0.10292 0.1592 0.99688 0.0
H1085 H 0.05247 0.2166 0.96966 0.0
C1086 C 0.9859 0.19403 0.04422 0.0
C1087 C 0.98157 0.17704 0.06404 0.0
C1088 C 1.00025 0.15919 0.06996 0.0
C1089 C 0.02272 0.15823 0.05634 0.0
C1090 C 0.02615 0.17508 0.03676 0.0
C1091 C 1.00816 0.19253 0.03063 0.0
C1092 C 0.01586 0.20784 1.00811 0.0
C1093 C 0.99743 0.20402 0.98633 0.0
C1094 C 0.01849 0.23568 0.015 0.0
C1095 C 0.04104 0.19628 1.00246 0.0
C1096 C 0.04674 0.17755 0.01929 0.0
C1097 C 0.069 0.16411 0.01774 0.0
C1098 C 0.08577 0.16987 0.99835 0.0
C1099 C 0.08007 0.18877 0.98067 0.0
C1100 C 0.05743 0.20214 0.98292 0.0
H1101 H 0.80476 0.559 0.47542 0.0
H1102 H 0.86107 0.61041 0.50368 0.0
H1103 H 0.87137 0.58033 0.53728 0.0
H1104 H 0.78335 0.53557 0.53538 0.0
H1105 H 0.77915 0.50418 0.52367 0.0
H1106 H 0.77563 0.53048 0.50295 0.0
H1107 H 0.809 0.51151 0.4731 0.0
H1108 H 0.81272 0.48523 0.49377 0.0
H1109 H 0.83953 0.50391 0.48515 0.0
H1110 H 0.87703 0.54266 0.56655 0.0
H1111 H 0.87722 0.50155 0.58811 0.0
H1112 H 0.81569 0.47694 0.54112 0.0
C1113 C 0.81899 0.5642 0.48887 0.0
C1114 C 0.8319 0.5872 0.48704 0.0
C1115 C 0.8507 0.59301 0.50486 0.0
C1116 C 0.85673 0.57601 0.52398 0.0
C1117 C 0.84373 0.55337 0.52508 0.0
C1118 C 0.82518 0.54757 0.508 0.0
C1119 C 0.81451 0.52176 0.51247 0.0
C1120 C 0.7865 0.52309 0.51901 0.0
C1121 C 0.81923 0.5046 0.48979 0.0
C1122 C 0.8299 0.51386 0.53476 0.0
C1123 C 0.84676 0.53217 0.54182 0.0
C1124 C 0.86369 0.52831 0.56132 0.0
C1125 C 0.86356 0.50499 0.57359 0.0
C1126 C 0.8466 0.48591 0.56629 0.0
C1127 C 0.82922 0.49088 0.547 0.0
H1128 H 0.55466 0.47118 0.21796 0.0
H1129 H 0.52825 0.42309 0.15795 0.0
H1130 H 0.49592 0.4542 0.14738 0.0
H1131 H 0.49328 0.49353 0.23704 0.0
H1132 H 0.50452 0.52463 0.24395 0.0
H1133 H 0.52516 0.49821 0.24708 0.0
H1134 H 0.55691 0.5195 0.21699 0.0
H1135 H 0.53626 0.54587 0.21362 0.0
H1136 H 0.54673 0.52901 0.18633 0.0
H1137 H 0.46797 0.49144 0.14195 0.0
H1138 H 0.44482 0.53123 0.14341 0.0
H1139 H 0.488 0.55398 0.20843 0.0
C1140 C 0.54193 0.46706 0.20276 0.0
C1141 C 0.54392 0.44464 0.18887 0.0
C1142 C 0.52696 0.44003 0.16902 0.0
C1143 C 0.50859 0.45763 0.16279 0.0
C1144 C 0.50731 0.47963 0.17671 0.0
C1145 C 0.52336 0.48431 0.19642 0.0
C1146 C 0.51804 0.50944 0.20836 0.0
C1147 C 0.50976 0.50626 0.23573 0.0
C1148 C 0.54084 0.52699 0.20619 0.0
C1149 C 0.49662 0.51825 0.19215 0.0
C1150 C 0.49079 0.50083 0.17395 0.0
C1151 C 0.47211 0.50508 0.15635 0.0
C1152 C 0.45891 0.52769 0.15749 0.0
C1153 C 0.46428 0.5457 0.17626 0.0
C1154 C 0.48345 0.54074 0.19377 0.0
H1155 H 0.5377 0.07765 0.36165 0.0
H1156 H 0.51577 0.10057 0.28705 0.0
H1157 H 0.482 0.0688 0.28731 0.0
H1158 H 0.52969 0.01258 0.35098 0.0
H1159 H 0.51835 1.0058 0.38201 0.0
H1160 H 0.53914 0.03189 0.377 0.0
H1161 H 0.5067 0.06156 0.39765 0.0
H1162 H 0.48575 0.0355 0.40252 0.0
H1163 H 0.47523 0.06264 0.38559 0.0
H1164 H 0.45103 0.03449 0.29541 0.0
H1165 H 0.42829 0.99629 0.30861 0.0
H1166 H 0.47229 0.99371 0.37656 0.0
C1167 C 0.52552 0.07624 0.34554 0.0
C1168 C 0.52902 0.09181 0.32444 0.0
C1169 C 0.51322 0.08894 0.30344 0.0
C1170 C 0.49395 0.07105 0.30348 0.0
C1171 C 0.49097 0.05601 0.32455 0.0
C1172 C 0.50652 0.05814 0.34507 0.0
C1173 C 0.50062 0.03828 0.36444 0.0
C1174 C 0.52329 0.02112 0.36885 0.0
C1175 C 0.49154 0.05022 0.38901 0.0
C1176 C 0.47953 0.02448 0.35145 0.0
C1177 C 0.47389 0.03536 0.32871 0.0
C1178 C 0.45518 0.02587 0.31322 0.0
C1179 C 0.44223 1.00436 0.32093 0.0
C1180 C 0.44838 0.99242 0.34368 0.0
C1181 C 0.46708 1.00277 0.35922 0.0
H1182 H 0.97422 0.05743 0.81945 0.0
H1183 H 0.91519 0.01572 0.85682 0.0
H1184 H 0.94533 0.98195 0.86638 0.0
H1185 H 1.00535 1.00576 0.79118 0.0
H1186 H 0.03622 0.01854 0.79615 0.0
H1187 H 1.00991 0.03919 0.79263 0.0
H1188 H 0.02052 0.06007 0.83521 0.0
H1189 H 0.04679 0.03933 0.83892 0.0
H1190 H 0.02298 0.04091 0.86279 0.0
H1191 H 0.98267 0.953 0.87239 0.0
H1192 H 0.02333 0.93121 0.87351 0.0
H1193 H 0.05632 0.9914 0.82963 0.0
C1194 C 0.96748 0.04111 0.82942 0.0
C1195 C 0.94225 0.03907 0.83711 0.0
C1196 C 0.9344 0.01759 0.85056 0.0
C1197 C 0.95139 0.99836 0.85614 0.0
C1198 C 0.97615 1.001 0.84827 0.0
C1199 C 0.98413 0.02187 0.8352 0.0
C1200 C 0.0117 0.0204 0.82899 0.0
C1201 C 0.01604 0.021 0.80055 0.0
C1202 C 0.02636 0.04142 0.84226 0.0
C1203 C 0.01786 0.99508 0.83992 0.0
C1204 C 0.99731 0.98431 0.85134 0.0
C1205 C 0.99886 0.96119 0.86331 0.0
C1206 C 0.02205 0.94882 0.86363 0.0
C1207 C 0.04335 0.95939 0.85172 0.0
C1208 C 0.04085 0.98279 0.83951 0.0
H1209 H 0.04064 0.54533 0.31259 0.0
H1210 H 0.09297 0.51556 0.36703 0.0
H1211 H 0.06944 0.47557 0.36705 0.0
H1212 H 0.98685 0.52048 0.34321 0.0
H1213 H 0.97002 0.51541 0.31448 0.0
H1214 H 0.99284 0.54017 0.31651 0.0
H1215 H 0.01631 0.52179 0.27813 0.0
H1216 H 0.99362 0.49686 0.27604 0.0
H1217 H 0.02646 0.48963 0.27872 0.0
H1218 H 0.03819 0.4394 0.36242 0.0
H1219 H 1.00178 0.41159 0.35528 0.0
H1220 H 0.96849 0.46788 0.30738 0.0
C1221 C 0.04727 0.53063 0.32478 0.0
C1222 C 0.06872 0.53388 0.34 0.0
C1223 C 0.07686 0.51359 0.35494 0.0
C1224 C 0.06346 0.49084 0.35522 0.0
C1225 C 0.04186 0.48882 0.34068 0.0
C1226 C 0.03376 0.50834 0.32594 0.0
C1227 C 1.00899 0.50254 0.31355 0.0
C1228 C 0.98848 0.52072 0.32248 0.0
C1229 C 1.01151 0.50271 0.28491 0.0
C1230 C 1.00442 0.47644 0.32332 0.0
C1231 C 0.02361 0.46869 0.3388 0.0
C1232 C 0.02315 0.44529 0.35027 0.0
C1233 C 1.00242 0.42959 0.346 0.0
C1234 C 0.98234 0.43749 0.33061 0.0
C1235 C 0.98358 0.46119 0.31908 0.0
H1236 H 0.47593 0.53607 0.85973 0.0
H1237 H 0.50682 0.60276 0.825 0.0
H1238 H 0.54793 0.58169 0.82138 0.0
H1239 H 0.53275 0.51473 0.89195 0.0
H1240 H 0.52596 0.48234 0.88522 0.0
H1241 H 0.50073 0.50433 0.88926 0.0
H1242 H 0.48318 0.49199 0.84575 0.0
H1243 H 0.50836 0.47013 0.84155 0.0
H1244 H 0.50318 0.49429 0.81864 0.0
H1245 H 0.58503 0.55149 0.81879 0.0
H1246 H 0.61328 0.51469 0.81531 0.0
H1247 H 0.55517 0.46746 0.84673 0.0
C1248 C 0.49134 0.54644 0.85154 0.0
C1249 C 0.4881 0.57108 0.84254 0.0
C1250 C 0.50893 0.58401 0.83234 0.0
C1251 C 0.5323 0.57213 0.83008 0.0
C1252 C 0.53443 0.54736 0.83809 0.0
C1253 C 0.51441 0.53472 0.8486 0.0
C1254 C 0.52047 0.50756 0.85346 0.0
C1255 C 0.51995 0.50192 0.88165 0.0
C1256 C 0.50276 0.48998 0.83897 0.0
C1257 C 0.5468 0.50658 0.84325 0.0
C1258 C 0.55491 0.5298 0.83513 0.0
C1259 C 0.57883 0.53325 0.8251 0.0
C1260 C 0.5947 0.51235 0.82315 0.0
C1261 C 0.58613 0.48839 0.83042 0.0
C1262 C 0.56201 0.48559 0.84074 0.0
H1263 H 0.06801 1.00278 0.20503 0.0
H1264 H 0.06504 0.97592 0.12864 0.0
H1265 H 0.03472 1.00912 0.11816 0.0
H1266 H 1.00569 0.01665 0.2126 0.0
H1267 H 1.0095 0.0453 0.23006 0.0
H1268 H 0.03342 0.02168 0.23114 0.0
H1269 H 0.06666 0.0538 0.21627 0.0
H1270 H 0.04293 0.07775 0.21556 0.0
H1271 H 0.06132 0.07131 0.188 0.0
H1272 H 1.00136 0.04056 0.11733 0.0
H1273 H 0.96902 0.0722 0.12436 0.0
H1274 H 0.99384 0.08123 0.20122 0.0
C1275 C 0.06171 1.00472 0.18589 0.0
C1276 C 0.06929 0.98746 0.16733 0.0
C1277 C 0.06 0.9896 0.14274 0.0
C1278 C 0.04265 1.00822 0.13673 0.0
C1279 C 0.03511 0.02468 0.15551 0.0
C1280 C 0.04466 0.02355 0.17946 0.0
C1281 C 0.03255 0.04311 0.19621 0.0
C1282 C 0.01951 0.03095 0.21883 0.0
C1283 C 0.05202 0.06266 0.20451 0.0
C1284 C 0.01376 0.05445 0.17824 0.0
C1285 C 0.01584 0.04354 0.15486 0.0
C1286 C 0.99987 0.04965 0.13537 0.0
C1287 C 0.98143 0.06762 0.13967 0.0
C1288 C 0.97896 0.07944 0.16331 0.0
C1289 C 0.99546 0.07278 0.18287 0.0
H1290 H 0.94405 0.49967 0.71825 0.0
H1291 H 0.9447 0.46291 0.64598 0.0
H1292 H 0.97738 0.49234 0.63119 0.0
H1293 H 0.95383 0.56385 0.69196 0.0
H1294 H 0.97261 0.57368 0.71817 0.0
H1295 H 0.94809 0.55079 0.7225 0.0
H1296 H 0.98019 0.51977 0.74145 0.0
H1297 H 1.00466 0.54259 0.73735 0.0
H1298 H 1.00788 0.51183 0.72381 0.0
H1299 H 0.01238 0.52302 0.62567 0.0
H1300 H 0.04767 0.55283 0.62993 0.0
H1301 H 0.02327 0.57125 0.70494 0.0
C1302 C 0.95094 0.49813 0.69925 0.0
C1303 C 0.94197 0.47924 0.68314 0.0
C1304 C 0.95128 0.47755 0.65842 0.0
C1305 C 0.96977 0.49415 0.64988 0.0
C1306 C 0.97826 0.51271 0.66614 0.0
C1307 C 0.96899 0.515 0.69021 0.0
C1308 C 0.9817 0.53633 0.70399 0.0
C1309 C 0.96294 0.55741 0.70949 0.0
C1310 C 0.99437 0.52706 0.72807 0.0
C1311 C 1.00069 0.54456 0.68454 0.0
C1312 C 0.99799 0.53103 0.66263 0.0
C1313 C 0.01426 0.53419 0.64246 0.0
C1314 C 0.03408 0.55127 0.64492 0.0
C1315 C 0.03744 0.5649 0.66735 0.0
C1316 C 0.02036 0.56176 0.68726 0.0
H1317 H 0.48872 0.96646 0.70988 0.0
H1318 H 0.50606 0.93207 0.63845 0.0
H1319 H 0.54561 0.95662 0.63654 0.0
H1320 H 0.50655 0.02647 0.69234 0.0
H1321 H 0.51839 0.03524 0.72266 0.0
H1322 H 0.49403 0.01207 0.72017 0.0
H1323 H 0.52127 0.98032 0.74468 0.0
H1324 H 0.54571 1.00349 0.74744 0.0
H1325 H 0.55246 0.97336 0.73381 0.0
H1326 H 0.58143 0.98841 0.64122 0.0
H1327 H 0.60948 0.0239 0.65155 0.0
H1328 H 0.56581 0.03872 0.71842 0.0
C1329 C 0.50106 0.96367 0.69402 0.0
C1330 C 0.49441 0.94729 0.67432 0.0
C1331 C 0.51102 0.94421 0.65391 0.0
C1332 C 0.53338 0.95823 0.65262 0.0
C1333 C 0.53871 0.97512 0.6719 0.0
C1334 C 0.52295 0.97776 0.69223 0.0
C1335 C 0.53135 0.9986 0.70943 0.0
C1336 C 0.5114 0.01931 0.71124 0.0
C1337 C 0.5381 0.98833 0.73538 0.0
C1338 C 0.55431 1.00759 0.69561 0.0
C1339 C 0.55851 0.99372 0.67414 0.0
C1340 C 0.5784 0.99918 0.65811 0.0
C1341 C 0.59426 0.01935 0.66417 0.0
C1342 C 0.58991 0.034 0.68589 0.0
C1343 C 0.56973 0.02783 0.70178 0.0
H1344 H 0.23274 0.31662 0.63081 0.0
H1345 H 0.17743 0.25889 0.61583 0.0
H1346 H 0.21092 0.22719 0.61434 0.0
H1347 H 0.2798 0.2911 0.58849 0.0
H1348 H 0.30594 0.29958 0.60804 0.0
H1349 H 0.27768 0.31794 0.60884 0.0
H1350 H 0.27437 0.3113 0.65677 0.0
H1351 H 0.30265 0.293 0.65611 0.0
H1352 H 0.27434 0.27992 0.6691 0.0
H1353 H 0.24969 0.20137 0.61653 0.0
H1354 H 0.292 0.18317 0.61902 0.0
H1355 H 0.32376 0.25733 0.62881 0.0
C1356 C 0.22772 0.29728 0.62732 0.0
C1357 C 0.20235 0.29019 0.62358 0.0
C1358 C 0.19664 0.26477 0.6187 0.0
C1359 C 0.21556 0.24661 0.61788 0.0
C1360 C 0.2403 0.25414 0.6215 0.0
C1361 C 0.24655 0.27888 0.62582 0.0
C1362 C 0.27483 0.28189 0.62813 0.0
C1363 C 0.28517 0.29863 0.60713 0.0
C1364 C 0.28196 0.29213 0.65407 0.0
C1365 C 0.2834 0.25493 0.62484 0.0
C1366 C 0.26304 0.23929 0.62126 0.0
C1367 C 0.26579 0.21347 0.61894 0.0
C1368 C 0.28991 0.2033 0.62037 0.0
C1369 C 0.31119 0.21884 0.62363 0.0
C1370 C 0.30788 0.24507 0.6257 0.0
H1371 H 0.72842 0.71494 0.08995 0.0
H1372 H 0.7199 0.70605 0.17013 0.0
H1373 H 0.74723 0.74267 0.17718 0.0
H1374 H 0.79319 0.73662 0.08984 0.0
H1375 H 0.78853 0.75956 0.06562 0.0
H1376 H 0.76931 0.7318 0.06653 0.0
H1377 H 0.72948 0.75936 0.06734 0.0
H1378 H 0.7486 0.7872 0.06659 0.0
H1379 H 0.72605 0.78285 0.09134 0.0
H1380 H 0.77606 0.77901 0.17609 0.0
H1381 H 0.80352 0.81503 0.1669 0.0
H1382 H 0.79145 0.80417 0.08743 0.0
C1383 C 0.73267 0.72058 0.10894 0.0
C1384 C 0.7224 0.70741 0.12958 0.0
C1385 C 0.72775 0.71574 0.15412 0.0
C1386 C 0.74323 0.73653 0.15831 0.0
C1387 C 0.75289 0.74928 0.13772 0.0
C1388 C 0.74773 0.74188 0.11349 0.0
C1389 C 0.75979 0.75986 0.09488 0.0
C1390 C 0.77884 0.74614 0.07823 0.0
C1391 C 0.73978 0.7731 0.0791 0.0
C1392 C 0.77275 0.7782 0.11249 0.0
C1393 C 0.76857 0.77148 0.1371 0.0
C1394 C 0.77926 0.78463 0.15691 0.0
C1395 C 0.79482 0.80507 0.15151 0.0
C1396 C 0.7993 0.81259 0.12654 0.0
C1397 C 0.7879 0.79912 0.10672 0.0
H1398 H 0.30311 0.29797 0.86617 0.0
H1399 H 0.32761 0.28543 0.94247 0.0
H1400 H 0.28983 0.25997 0.95041 0.0
H1401 H 0.23704 0.30183 0.87873 0.0
H1402 H 0.22781 0.28501 0.85099 0.0
H1403 H 0.25651 0.30281 0.85116 0.0
H1404 H 0.28132 0.26326 0.8381 0.0
H1405 H 0.25268 0.24537 0.83775 0.0
H1406 H 0.27864 0.23519 0.85662 0.0
H1407 H 0.24821 0.23808 0.95104 0.0
H1408 H 0.20798 0.21653 0.94264 0.0
H1409 H 0.21207 0.23938 0.86501 0.0
C1410 C 0.30053 0.28981 0.88452 0.0
C1411 C 0.31834 0.29378 0.90373 0.0
C1412 C 0.31435 0.28259 0.92742 0.0
C1413 C 0.29285 0.2682 0.93217 0.0
C1414 C 0.27562 0.26478 0.91293 0.0
C1415 C 0.27939 0.27487 0.88944 0.0
C1416 C 0.25833 0.26745 0.87183 0.0
C1417 C 0.24409 0.29066 0.86264 0.0
C1418 C 0.26835 0.25189 0.84977 0.0
C1419 C 0.24216 0.2517 0.88914 0.0
C1420 C 0.25228 0.25082 0.91289 0.0
C1421 C 0.24022 0.23844 0.93247 0.0
C1422 C 0.21734 0.22642 0.9276 0.0
C1423 C 0.20703 0.22643 0.90327 0.0
C1424 C 0.21967 0.23912 0.88377 0.0
H1425 H 0.76578 0.69958 0.38394 0.0
H1426 H 0.83503 0.72746 0.41571 0.0
H1427 H 0.816 0.76933 0.42101 0.0
H1428 H 0.75201 0.75584 0.34875 0.0
H1429 H 0.71864 0.75383 0.35345 0.0
H1430 H 0.73725 0.72576 0.35309 0.0
H1431 H 0.72003 0.71379 0.39684 0.0
H1432 H 0.70138 0.74184 0.39729 0.0
H1433 H 0.72301 0.73569 0.42235 0.0
H1434 H 0.7894 0.80797 0.42344 0.0
H1435 H 0.75796 0.8416 0.42048 0.0
H1436 H 0.70623 0.7897 0.38514 0.0
C1437 C 0.77676 0.71453 0.39217 0.0
C1438 C 0.80177 0.71037 0.3997 0.0
C1439 C 0.81581 0.73036 0.40997 0.0
C1440 C 0.80515 0.75416 0.41306 0.0
C1441 C 0.78049 0.7578 0.40542 0.0
C1442 C 0.7665 0.73864 0.39495 0.0
C1443 C 0.74073 0.74797 0.38742 0.0
C1444 C 0.73694 0.74571 0.35899 0.0
C1445 C 0.72007 0.73399 0.40184 0.0
C1446 C 0.74238 0.77522 0.3955 0.0
C1447 C 0.76543 0.78041 0.40598 0.0
C1448 C 0.77133 0.80416 0.41514 0.0
C1449 C 0.75329 0.82316 0.41342 0.0
C1450 C 0.72962 0.81849 0.40244 0.0
C1451 C 0.72419 0.79407 0.39342 0.0
H1452 H 0.65508 0.21406 0.2898 0.0
H1453 H 0.57522 0.20729 0.30327 0.0
H1454 H 0.56796 0.24598 0.27923 0.0
H1455 H 0.65962 0.28115 0.29243 0.0
H1456 H 0.68157 0.28383 0.26691 0.0
H1457 H 0.68087 0.25585 0.28569 0.0
H1458 H 0.67419 0.22901 0.24584 0.0
H1459 H 0.67497 0.25692 0.22697 0.0
H1460 H 0.64844 0.23605 0.2253 0.0
H1461 H 0.56933 0.28662 0.25616 0.0
H1462 H 0.57859 0.32414 0.23087 0.0
H1463 H 0.65699 0.30328 0.22809 0.0
C1464 C 0.63609 0.22075 0.28758 0.0
C1465 C 0.61567 0.20765 0.29846 0.0
C1466 C 0.59109 0.21687 0.29499 0.0
C1467 C 0.5868 0.23892 0.28146 0.0
C1468 C 0.60722 0.25141 0.271 0.0
C1469 C 0.63135 0.24247 0.27343 0.0
C1470 C 0.64974 0.25907 0.25926 0.0
C1471 C 0.6691 0.27066 0.27714 0.0
C1472 C 0.66259 0.24439 0.23809 0.0
C1473 C 0.63218 0.27888 0.2489 0.0
C1474 C 0.6078 0.2742 0.25624 0.0
C1475 C 0.58831 0.29033 0.25005 0.0
C1476 C 0.59377 0.31169 0.23577 0.0
C1477 C 0.61846 0.31663 0.22738 0.0
C1478 C 0.63789 0.29988 0.234 0.0
H1479 H 0.70128 0.14661 0.75601 0.0
H1480 H 0.72291 0.09792 0.69485 0.0
H1481 H 0.76431 0.09148 0.71448 0.0
H1482 H 0.76116 0.17642 0.76414 0.0
H1483 H 0.7594 0.17777 0.79778 0.0
H1484 H 0.73112 0.17806 0.77948 0.0
H1485 H 0.71454 0.13946 0.80376 0.0
H1486 H 0.74273 0.13912 0.82223 0.0
H1487 H 0.73333 0.11152 0.80518 0.0
H1488 H 0.80321 0.0907 0.73998 0.0
H1489 H 0.83777 0.09522 0.76993 0.0
H1490 H 0.79204 0.14482 0.81537 0.0
C1491 C 0.71473 0.13441 0.74701 0.0
C1492 C 0.70896 0.12245 0.7241 0.0
C1493 C 0.727 0.10695 0.71254 0.0
C1494 C 0.75054 0.10326 0.72352 0.0
C1495 C 0.75579 0.1153 0.74607 0.0
C1496 C 0.73846 0.13054 0.75777 0.0
C1497 C 0.74919 0.14135 0.78184 0.0
C1498 C 0.75028 0.17011 0.78073 0.0
C1499 C 0.73405 0.13233 0.8046 0.0
C1500 C 0.77531 0.13004 0.78162 0.0
C1501 C 0.77855 0.115 0.76083 0.0
C1502 C 0.80089 0.10239 0.75636 0.0
C1503 C 0.82047 0.1051 0.77357 0.0
C1504 C 0.8178 0.12035 0.79514 0.0
C1505 C 0.79481 0.13305 0.7991 0.0
H1506 H 0.9312 0.30154 0.29831 0.0
H1507 H 0.85178 0.31818 0.29727 0.0
H1508 H 0.84453 0.28257 0.26878 0.0
H1509 H 0.93748 0.28028 0.23395 0.0
H1510 H 0.95835 0.25486 0.24122 0.0
H1511 H 0.95787 0.2824 0.26071 0.0
H1512 H 0.94894 0.25481 0.29951 0.0
H1513 H 0.94931 0.22718 0.28013 0.0
H1514 H 0.92238 0.23391 0.29933 0.0
H1515 H 0.84514 0.24509 0.24156 0.0
H1516 H 0.85354 0.20709 0.21692 0.0
H1517 H 0.9325 0.21271 0.23467 0.0
C1518 C 0.91239 0.29777 0.29177 0.0
C1519 C 0.89201 0.3128 0.29976 0.0
C1520 C 0.86759 0.30696 0.29133 0.0
C1521 C 0.8633 0.28677 0.27513 0.0
C1522 C 0.88357 0.27213 0.26779 0.0
C1523 C 0.90763 0.27713 0.27589 0.0
C1524 C 0.9257 0.25742 0.26589 0.0
C1525 C 0.94606 0.26947 0.24946 0.0
C1526 C 0.93727 0.24245 0.2875 0.0
C1527 C 0.9081 0.24106 0.25046 0.0
C1528 C 0.88388 0.25 0.25201 0.0
C1529 C 0.86408 0.23813 0.2399 0.0
C1530 C 0.86909 0.21675 0.22555 0.0
C1531 C 0.89374 0.20746 0.22294 0.0
C1532 C 0.91348 0.21955 0.23603 0.0
H1533 H 0.73693 0.39556 0.81824 0.0
H1534 H 0.67942 0.40402 0.76173 0.0
H1535 H 0.7117 0.40327 0.72872 0.0
H1536 H 0.78174 0.43664 0.7874 0.0
H1537 H 0.80881 0.41868 0.79628 0.0
H1538 H 0.78127 0.41852 0.81581 0.0
H1539 H 0.77939 0.3701 0.81314 0.0
H1540 H 0.80696 0.37012 0.79365 0.0
H1541 H 0.77866 0.35516 0.7829 0.0
H1542 H 0.74934 0.39996 0.70169 0.0
H1543 H 0.79094 0.39794 0.68187 0.0
H1544 H 0.82588 0.39565 0.75501 0.0
C1545 C 0.73121 0.39706 0.79888 0.0
C1546 C 0.70557 0.39964 0.7925 0.0
C1547 C 0.69888 0.40202 0.76703 0.0
C1548 C 0.71709 0.40155 0.74814 0.0
C1549 C 0.74213 0.39918 0.75493 0.0
C1550 C 0.74936 0.39729 0.77966 0.0
C1551 C 0.77782 0.39618 0.78159 0.0
C1552 C 0.78801 0.41885 0.79614 0.0
C1553 C 0.7862 0.37142 0.79353 0.0
C1554 C 0.78531 0.39745 0.75411 0.0
C1555 C 0.76428 0.39887 0.73917 0.0
C1556 C 0.76596 0.39917 0.71319 0.0
C1557 C 0.78972 0.39799 0.7021 0.0
C1558 C 0.8117 0.39699 0.71684 0.0
C1559 C 0.80943 0.39689 0.74327 0.0
H1560 H 0.27375 0.63477 0.19843 0.0
H1561 H 0.34339 0.60891 0.23071 0.0
H1562 H 0.32274 0.60506 0.272 0.0
H1563 H 0.25623 0.67276 0.25227 0.0
H1564 H 0.22318 0.66654 0.24938 0.0
H1565 H 0.24292 0.66618 0.222 0.0
H1566 H 0.22798 0.62116 0.21176 0.0
H1567 H 0.20819 0.62137 0.23909 0.0
H1568 H 0.23108 0.59695 0.23501 0.0
H1569 H 0.29466 0.60265 0.30912 0.0
H1570 H 0.2618 0.60489 0.34128 0.0
H1571 H 0.21021 0.63559 0.28674 0.0
C1572 C 0.28448 0.62809 0.21423 0.0
C1573 C 0.31006 0.62171 0.21146 0.0
C1574 C 0.32376 0.61367 0.23253 0.0
C1575 C 0.31217 0.61143 0.25599 0.0
C1576 C 0.28697 0.61786 0.25823 0.0
C1577 C 0.27331 0.62638 0.23806 0.0
C1578 C 0.24681 0.63325 0.24608 0.0
C1579 C 0.24201 0.66135 0.2422 0.0
C1580 C 0.22737 0.61722 0.23215 0.0
C1581 C 0.24761 0.62674 0.27378 0.0
C1582 C 0.27098 0.61776 0.2802 0.0
C1583 C 0.27635 0.60984 0.30437 0.0
C1584 C 0.25746 0.61113 0.32253 0.0
C1585 C 0.23335 0.6205 0.3167 0.0
C1586 C 0.22846 0.62855 0.29191 0.0
H1587 H 0.22781 0.86372 0.21763 0.0
H1588 H 0.23218 0.94241 0.19827 0.0
H1589 H 0.25721 0.95048 0.2363 0.0
H1590 H 0.22263 0.87153 0.28421 0.0
H1591 H 0.24201 0.84499 0.2916 0.0
H1592 H 0.22426 0.84534 0.26299 0.0
H1593 H 0.26492 0.8379 0.23749 0.0
H1594 H 0.28277 0.83744 0.26604 0.0
H1595 H 0.29109 0.85894 0.24141 0.0
H1596 H 0.27902 0.95054 0.27777 0.0
H1597 H 0.30111 0.94181 0.3174 0.0
H1598 H 0.28596 0.86254 0.30842 0.0
C1599 C 0.23397 0.88264 0.22148 0.0
C1600 C 0.22791 0.9025 0.20515 0.0
C1601 C 0.23675 0.92692 0.21048 0.0
C1602 C 0.25082 0.9317 0.23211 0.0
C1603 C 0.25623 0.91177 0.24801 0.0
C1604 C 0.24847 0.88764 0.24277 0.0
C1605 C 0.25753 0.86949 0.2626 0.0
C1606 C 0.23528 0.85711 0.27615 0.0
C1607 C 0.27513 0.84978 0.2512 0.0
C1608 C 0.27157 0.88721 0.27982 0.0
C1609 C 0.27015 0.91158 0.27124 0.0
C1610 C 0.28052 0.93151 0.28452 0.0
C1611 C 0.2929 0.92641 0.30703 0.0
C1612 C 0.29524 0.90155 0.31579 0.0
C1613 C 0.28455 0.88168 0.30194 0.0
H1614 H 0.12456 0.70228 0.73474 0.0
H1615 H 0.11907 0.75905 0.67711 0.0
H1616 H 0.1199 0.79207 0.70945 0.0
H1617 H 0.08323 0.73445 0.77868 0.0
H1618 H 0.10037 0.72469 0.80596 0.0
H1619 H 0.1002 0.70533 0.77834 0.0
H1620 H 0.14873 0.70614 0.77739 0.0
H1621 H 0.14903 0.72553 0.80499 0.0
H1622 H 0.16487 0.73583 0.77702 0.0
H1623 H 0.12417 0.81903 0.74753 0.0
H1624 H 0.12647 0.83838 0.78942 0.0
H1625 H 0.12461 0.76478 0.82351 0.0
C1626 C 0.12356 0.72168 0.729 0.0
C1627 C 0.12191 0.72814 0.70334 0.0
C1628 C 0.12028 0.75369 0.6966 0.0
C1629 C 0.12084 0.77258 0.71484 0.0
C1630 C 0.12251 0.76568 0.73991 0.0
C1631 C 0.12338 0.74087 0.74711 0.0
C1632 C 0.12395 0.73871 0.77548 0.0
C1633 C 0.10055 0.72498 0.78519 0.0
C1634 C 0.14808 0.72578 0.78423 0.0
C1635 C 0.12367 0.76617 0.78303 0.0
C1636 C 0.12319 0.78135 0.76212 0.0
C1637 C 0.12418 0.80735 0.76405 0.0
C1638 C 0.12556 0.81817 0.78792 0.0
C1639 C 0.12543 0.80312 0.8097 0.0
C1640 C 0.12432 0.77674 0.80718 0.0
H1641 H 0.39783 0.70462 0.78565 0.0
H1642 H 0.40584 0.76103 0.84357 0.0
H1643 H 0.40413 0.79425 0.81157 0.0
H1644 H 0.43771 0.73687 0.74055 0.0
H1645 H 0.41947 0.72728 0.71387 0.0
H1646 H 0.42054 0.70778 0.74132 0.0
H1647 H 0.37205 0.70869 0.74414 0.0
H1648 H 0.37085 0.72821 0.71673 0.0
H1649 H 0.35619 0.73841 0.74535 0.0
H1650 H 0.39894 0.82135 0.77396 0.0
H1651 H 0.39533 0.84089 0.7324 0.0
H1652 H 0.39478 0.7674 0.6977 0.0
C1653 C 0.39921 0.72399 0.79153 0.0
C1654 C 0.40185 0.73032 0.81712 0.0
C1655 C 0.4039 0.7558 0.82408 0.0
C1656 C 0.40285 0.77479 0.80605 0.0
C1657 C 0.40023 0.76801 0.78103 0.0
C1658 C 0.39885 0.74324 0.77364 0.0
C1659 C 0.39717 0.74119 0.74534 0.0
C1660 C 0.42009 0.72746 0.73464 0.0
C1661 C 0.3726 0.72836 0.73743 0.0
C1662 C 0.39739 0.76866 0.73806 0.0
C1663 C 0.39886 0.78375 0.75903 0.0
C1664 C 0.39814 0.80974 0.75738 0.0
C1665 C 0.396 0.82066 0.73368 0.0
C1666 C 0.39506 0.80568 0.71182 0.0
C1667 C 0.39589 0.77931 0.71408 0.0
H1668 H 0.14941 0.57176 0.65582 0.0
H1669 H 0.109 0.53229 0.71395 0.0
H1670 H 0.13707 0.49632 0.709 0.0
H1671 H 0.15135 0.53052 0.61623 0.0
H1672 H 0.18251 0.53342 0.6035 0.0
H1673 H 0.16838 0.55966 0.61862 0.0
H1674 H 0.20535 0.56308 0.64963 0.0
H1675 H 0.22023 0.53703 0.63409 0.0
H1676 H 0.21483 0.53606 0.66736 0.0
H1677 H 0.1539 0.46188 0.68653 0.0
H1678 H 0.16162 0.43332 0.65232 0.0
H1679 H 0.1986 0.49306 0.6109 0.0
C1680 C 0.1477 0.5562 0.66866 0.0
C1681 C 0.12715 0.55456 0.68515 0.0
C1682 C 0.12467 0.5337 0.70113 0.0
C1683 C 0.1407 0.5133 0.69857 0.0
C1684 C 0.15938 0.51436 0.68035 0.0
C1685 C 0.16365 0.53568 0.66623 0.0
C1686 C 0.18119 0.53036 0.64458 0.0
C1687 C 0.17016 0.53896 0.61929 0.0
C1688 C 0.20694 0.54234 0.6492 0.0
C1689 C 0.18273 0.50217 0.64644 0.0
C1690 C 0.17085 0.49344 0.66773 0.0
C1691 C 0.16453 0.46833 0.67052 0.0
C1692 C 0.16919 0.45203 0.65069 0.0
C1693 C 0.18081 0.46063 0.62837 0.0
C1694 C 0.18921 0.48571 0.62724 0.0
H1695 H 0.57288 0.66939 0.15344 0.0
H1696 H 0.53062 0.72249 0.10965 0.0
H1697 H 0.49592 0.7196 0.13958 0.0
H1698 H 0.53483 0.62905 0.15975 0.0
H1699 H 0.53807 0.61906 0.19178 0.0
H1700 H 0.56358 0.63443 0.17666 0.0
H1701 H 0.56489 0.66844 0.21101 0.0
H1702 H 0.53951 0.65272 0.22694 0.0
H1703 H 0.53687 0.6854 0.21904 0.0
H1704 H 0.46274 0.69723 0.15815 0.0
H1705 H 0.43614 0.66172 0.16561 0.0
H1706 H 0.49683 0.62438 0.20478 0.0
C1707 C 0.55702 0.68175 0.15132 0.0
C1708 C 0.55417 0.696 0.12936 0.0
C1709 C 0.53297 0.71138 0.12641 0.0
C1710 C 0.51327 0.70998 0.1435 0.0
C1711 C 0.5153 0.69346 0.16359 0.0
C1712 C 0.53713 0.68028 0.16824 0.0
C1713 C 0.53275 0.65971 0.18726 0.0
C1714 C 0.54285 0.6341 0.17826 0.0
C1715 C 0.54418 0.66701 0.21257 0.0
C1716 C 0.50446 0.66022 0.18862 0.0
C1717 C 0.49492 0.68066 0.17595 0.0
C1718 C 0.46982 0.68189 0.16926 0.0
C1719 C 0.45458 0.66119 0.1738 0.0
C1720 C 0.46415 0.63948 0.18573 0.0
C1721 C 0.48889 0.64017 0.19504 0.0
H1722 H 0.37863 0.94625 0.65987 0.0
H1723 H 0.42461 0.98332 0.7154 0.0
H1724 H 0.39862 0.02086 0.71197 0.0
H1725 H 0.37489 0.98469 0.62026 0.0
H1726 H 0.34252 0.98446 0.61075 0.0
H1727 H 0.35537 0.95753 0.62556 0.0
H1728 H 0.32155 0.95899 0.66017 0.0
H1729 H 0.30779 0.98577 0.64496 0.0
H1730 H 0.31642 0.98749 0.67748 0.0
H1731 H 0.38426 0.05599 0.68882 0.0
H1732 H 0.37658 0.08419 0.6541 0.0
H1733 H 0.33259 0.02656 0.61708 0.0
C1734 C 0.38206 0.9616 0.67262 0.0
C1735 C 0.40391 0.96225 0.68734 0.0
C1736 C 0.40826 0.98278 0.70346 0.0
C1737 C 0.39334 1.00408 0.70191 0.0
C1738 C 0.37357 1.00405 0.68494 0.0
C1739 C 0.36695 0.98283 0.67152 0.0
C1740 C 0.34811 0.98894 0.65132 0.0
C1741 C 0.35575 0.97832 0.62549 0.0
C1742 C 0.32191 0.97975 0.65894 0.0
C1743 C 0.34937 0.01717 0.65216 0.0
C1744 C 0.36321 0.02552 0.67242 0.0
C1745 C 0.37208 0.05001 0.6738 0.0
C1746 C 0.36759 0.06601 0.65376 0.0
C1747 C 0.35377 0.05773 0.63269 0.0
C1748 C 0.3434 0.03344 0.63274 0.0
H1749 H 1.00209 0.82753 0.1146 0.0
H1750 H 0.94076 0.86238 0.15522 0.0
H1751 H 0.96826 0.87042 0.19016 0.0
H1752 H 0.04387 0.81116 0.17281 0.0
H1753 H 0.0712 0.82118 0.15567 0.0
H1754 H 0.04579 0.80575 0.13958 0.0
H1755 H 0.04264 0.84315 0.10885 0.0
H1756 H 0.06799 0.85821 0.12455 0.0
H1757 H 0.03853 0.87429 0.12125 0.0
H1758 H 1.00161 0.88817 0.21323 0.0
H1759 H 0.03694 0.91715 0.2188 0.0
H1760 H 0.07875 0.87688 0.16221 0.0
C1761 C 0.99429 0.83632 0.13108 0.0
C1762 C 0.96907 0.84403 0.13187 0.0
C1763 C 0.95967 0.85528 0.15402 0.0
C1764 C 0.97531 0.86004 0.17426 0.0
C1765 C 1.00055 0.85414 0.17207 0.0
C1766 C 1.01007 0.8425 0.15093 0.0
C1767 C 0.03828 0.84466 0.14984 0.0
C1768 C 0.0505 0.81916 0.15478 0.0
C1769 C 0.04734 0.85578 0.12468 0.0
C1770 C 0.04258 0.86229 0.17161 0.0
C1771 C 0.02086 0.86604 0.18525 0.0
C1772 C 0.01896 0.88484 0.2033 0.0
C1773 C 0.03901 0.90137 0.20624 0.0
C1774 C 0.06041 0.89914 0.1909 0.0
C1775 C 0.06284 0.87845 0.17467 0.0
H1776 H 0.11988 0.9959 0.82776 0.0
H1777 H 0.16002 0.93793 0.86771 0.0
H1778 H 0.19552 0.96605 0.87295 0.0
H1779 H 0.1796 0.03562 0.80742 0.0
H1780 H 0.16248 0.06385 0.81423 0.0
H1781 H 0.14652 0.03711 0.80101 0.0
H1782 H 0.11465 0.03778 0.83765 0.0
H1783 H 0.13018 0.0644 0.85047 0.0
H1784 H 0.12609 0.0367 0.86935 0.0
H1785 H 0.21904 1.0011 0.88707 0.0
H1786 H 0.22347 0.03819 0.91375 0.0
H1787 H 0.16633 0.07594 0.8708 0.0
C1788 C 0.13645 0.98899 0.83703 0.0
C1789 C 0.137 0.96474 0.84731 0.0
C1790 C 0.15913 0.9562 0.85905 0.0
C1791 C 0.17962 0.97214 0.86206 0.0
C1792 C 0.17767 0.99674 0.85367 0.0
C1793 C 0.15652 1.00516 0.8413 0.0
C1794 C 0.15559 0.03343 0.84069 0.0
C1795 C 0.1614 0.04307 0.81426 0.0
C1796 C 0.13017 0.04362 0.85017 0.0
C1797 C 0.17698 0.03935 0.85825 0.0
C1798 C 0.19084 0.01814 0.86364 0.0
C1799 C 0.20879 0.01794 0.88253 0.0
C1800 C 0.21105 0.03902 0.89778 0.0
C1801 C 0.19484 0.05959 0.89447 0.0
C1802 C 0.1792 0.06055 0.87332 0.0
H1803 H 0.99726 0.69607 0.40867 0.0
H1804 H 0.9388 0.66146 0.36389 0.0
H1805 H 0.96846 0.65519 0.33012 0.0
H1806 H 0.04361 0.71347 0.35411 0.0
H1807 H 0.06935 0.70268 0.37295 0.0
H1808 H 0.04304 0.71808 0.3875 0.0
H1809 H 0.03697 0.68004 0.41701 0.0
H1810 H 0.06309 0.66489 0.40275 0.0
H1811 H 0.03311 0.64926 0.4036 0.0
H1812 H 1.00345 0.63882 0.30832 0.0
H1813 H 0.03875 0.60983 0.30412 0.0
H1814 H 0.07649 0.64674 0.36558 0.0
C1815 C 0.99054 0.68759 0.39158 0.0
C1816 C 0.9656 0.6791 0.38933 0.0
C1817 C 0.95753 0.66878 0.36629 0.0
C1818 C 0.97444 0.66509 0.34674 0.0
C1819 C 0.99952 0.67111 0.35062 0.0
C1820 C 1.00762 0.68212 0.37264 0.0
C1821 C 0.03565 0.67954 0.37579 0.0
C1822 C 0.04868 0.70496 0.37237 0.0
C1823 C 0.04255 0.66769 0.40124 0.0
C1824 C 0.04133 0.66238 0.35402 0.0
C1825 C 0.02067 0.65944 0.33864 0.0
C1826 C 0.01995 0.64148 0.31974 0.0
C1827 C 0.03995 0.62492 0.31763 0.0
C1828 C 0.06001 0.62612 0.33475 0.0
C1829 C 0.0615 0.64597 0.352 0.0
H1830 H 0.3274 0.49523 0.90598 0.0
H1831 H 0.36538 0.43593 0.8652 0.0
H1832 H 0.37213 0.4641 0.83037 0.0
H1833 H 0.31 0.53764 0.8489 0.0
H1834 H 0.31928 0.56484 0.86662 0.0
H1835 H 0.30462 0.53865 0.88217 0.0
H1836 H 0.34217 0.53593 0.91274 0.0
H1837 H 0.35655 0.56198 0.89752 0.0
H1838 H 0.37339 0.53288 0.90019 0.0
H1839 H 0.3876 0.49866 0.80698 0.0
H1840 H 0.41479 0.53529 0.80117 0.0
H1841 H 0.37471 0.57421 0.85998 0.0
C1842 C 0.33671 0.48797 0.88953 0.0
C1843 C 0.34582 0.46322 0.88869 0.0
C1844 C 0.35742 0.45448 0.86647 0.0
C1845 C 0.36141 0.47051 0.84632 0.0
C1846 C 0.35439 0.49547 0.84873 0.0
C1847 C 0.34235 0.50425 0.86996 0.0
C1848 C 0.3437 0.53248 0.87167 0.0
C1849 C 0.31786 0.54409 0.86706 0.0
C1850 C 0.35464 0.54128 0.89698 0.0
C1851 C 0.36115 0.53776 0.84999 0.0
C1852 C 0.36549 0.51644 0.83589 0.0
C1853 C 0.38389 0.51563 0.8174 0.0
C1854 C 0.39945 0.53641 0.8144 0.0
C1855 C 0.39693 0.55734 0.83037 0.0
C1856 C 0.37659 0.55863 0.84716 0.0
H1857 H 0.49465 0.91888 0.3363 0.0
H1858 H 0.43449 0.87548 0.37041 0.0
H1859 H 0.46267 0.84069 0.37581 0.0
H1860 H 0.53673 0.86416 0.3152 0.0
H1861 H 0.56403 0.88068 0.32626 0.0
H1862 H 0.53808 0.89783 0.31325 0.0
H1863 H 0.53514 0.92453 0.35377 0.0
H1864 H 0.56111 0.90782 0.36645 0.0
H1865 H 0.53194 0.9089 0.38348 0.0
H1866 H 0.49684 0.81511 0.38813 0.0
H1867 H 0.53369 0.80559 0.4137 0.0
H1868 H 0.57336 0.86798 0.38009 0.0
C1869 C 0.48712 0.90204 0.34459 0.0
C1870 C 0.46185 0.90026 0.35225 0.0
C1871 C 0.45321 0.87749 0.36297 0.0
C1872 C 0.46926 0.8573 0.36626 0.0
C1873 C 0.49426 0.86018 0.35969 0.0
C1874 C 0.50331 0.88223 0.34951 0.0
C1875 C 0.53154 0.88354 0.35102 0.0
C1876 C 0.54329 0.88142 0.32487 0.0
C1877 C 0.54041 0.90758 0.36451 0.0
C1878 C 0.53653 0.86019 0.36617 0.0
C1879 C 0.515 0.84608 0.3693 0.0
C1880 C 0.51397 0.82562 0.38539 0.0
C1881 C 0.53489 0.82048 0.40002 0.0
C1882 C 0.55612 0.83627 0.39894 0.0
C1883 C 0.55752 0.85531 0.38077 0.0
H1884 H 0.66975 0.15396 0.57691 0.0
H1885 H 0.72586 0.1123 0.53595 0.0
H1886 H 0.71879 0.1387 0.49928 0.0
H1887 H 0.62796 0.15456 0.54183 0.0
H1888 H 0.61564 0.18594 0.54244 0.0
H1889 H 0.63331 0.17483 0.56836 0.0
H1890 H 0.66476 0.21142 0.56435 0.0
H1891 H 0.64655 0.22352 0.53869 0.0
H1892 H 0.67956 0.2178 0.53471 0.0
H1893 H 0.69144 0.14949 0.46636 0.0
H1894 H 0.65408 0.15291 0.44127 0.0
H1895 H 0.61844 0.19648 0.50016 0.0
C1896 C 0.68189 0.15175 0.56085 0.0
C1897 C 0.69778 0.13083 0.55884 0.0
C1898 C 0.71314 0.12799 0.53753 0.0
C1899 C 0.70941 0.14311 0.51668 0.0
C1900 C 0.69096 0.16148 0.51793 0.0
C1901 C 0.67843 0.16699 0.53999 0.0
C1902 C 0.65623 0.18393 0.53525 0.0
C1903 C 0.6319 0.17416 0.54766 0.0
C1904 C 0.66214 0.21077 0.54375 0.0
C1905 C 0.65519 0.18245 0.50707 0.0
C1906 C 0.67592 0.17027 0.49741 0.0
C1907 C 0.67599 0.16063 0.47323 0.0
C1908 C 0.65433 0.16273 0.45896 0.0
C1909 C 0.63293 0.17535 0.46836 0.0
C1910 C 0.63413 0.18646 0.49228 0.0
H1911 H 0.90366 0.20253 0.02932 0.0
H1912 H 0.86504 0.16283 0.08912 0.0
H1913 H 0.83115 0.1532 0.06112 0.0
H1914 H 0.84498 0.21354 0.98588 0.0
H1915 H 0.86384 0.20529 0.95914 0.0
H1916 H 0.87759 0.22229 0.9849 0.0
H1917 H 0.91182 0.18818 0.98889 0.0
H1918 H 0.89828 0.17141 0.96339 0.0
H1919 H 0.90246 0.15597 0.99307 0.0
H1920 H 0.81049 0.13364 0.02707 0.0
H1921 H 0.80789 0.1047 0.99147 0.0
H1922 H 0.86277 0.14912 0.95145 0.0
C1923 C 0.8879 0.1922 0.03676 0.0
C1924 C 0.8878 0.18327 0.06163 0.0
C1925 C 0.86611 0.17064 0.07054 0.0
C1926 C 0.84638 0.16487 0.05451 0.0
C1927 C 0.84862 0.17113 0.02938 0.0
C1928 C 0.86891 0.18467 0.02047 0.0
C1929 C 0.87104 0.18256 0.9923 0.0
C1930 C 0.86393 0.2074 0.97982 0.0
C1931 C 0.89742 0.17398 0.98398 0.0
C1932 C 0.85124 0.16285 0.98743 0.0
C1933 C 0.83727 0.15797 1.00872 0.0
C1934 C 0.82072 0.13777 1.01008 0.0
C1935 C 0.81956 0.12125 0.9899 0.0
C1936 C 0.83528 0.12474 0.96893 0.0
C1937 C 0.85013 0.14651 0.96708 0.0
H1938 H 0.86488 0.36951 0.57068 0.0
H1939 H 0.81064 0.41404 0.53035 0.0
H1940 H 0.81115 0.38351 0.49604 0.0
H1941 H 0.90248 0.35791 0.52807 0.0
H1942 H 0.91004 0.3256 0.534 0.0
H1943 H 0.89844 0.34466 0.55885 0.0
H1944 H 0.86215 0.31341 0.56668 0.0
H1945 H 0.87383 0.29381 0.54175 0.0
H1946 H 0.84183 0.30445 0.54131 0.0
H1947 H 0.82966 0.3607 0.46234 0.0
H1948 H 0.86254 0.34781 0.43422 0.0
H1949 H 0.8991 0.30843 0.49516 0.0
C1950 C 0.852 0.37199 0.55529 0.0
C1951 C 0.83804 0.39421 0.55294 0.0
C1952 C 0.8219 0.39732 0.53226 0.0
C1953 C 0.82173 0.37983 0.51286 0.0
C1954 C 0.83712 0.3589 0.51483 0.0
C1955 C 0.85136 0.35441 0.53596 0.0
C1956 C 0.86959 0.33321 0.53167 0.0
C1957 C 0.89669 0.34085 0.53851 0.0
C1958 C 0.86135 0.30983 0.54622 0.0
C1959 C 0.8662 0.32934 0.50381 0.0
C1960 C 0.8467 0.34367 0.49467 0.0
C1961 C 0.84423 0.34849 0.46923 0.0
C1962 C 0.86333 0.3408 0.45313 0.0
C1963 C 0.88452 0.32777 0.46241 0.0
C1964 C 0.884 0.3194 0.48749 0.0
H1965 H 0.70186 0.41632 0.99575 0.0
H1966 H 0.66986 0.37113 0.93622 0.0
H1967 H 0.66329 0.33701 0.96539 0.0
H1968 H 0.71929 0.36085 0.0416 0.0
H1969 H 0.70799 0.3794 0.06743 0.0
H1970 H 0.72385 0.3943 0.04157 0.0
H1971 H 0.68582 0.42376 0.03556 0.0
H1972 H 0.67011 0.40907 0.0611 0.0
H1973 H 0.65517 0.41029 0.0309 0.0
H1974 H 0.64539 0.31526 0.99988 0.0
H1975 H 0.61608 0.31026 0.03495 0.0
H1976 H 0.65228 0.37153 0.07389 0.0
C1977 C 0.69412 0.39896 0.98873 0.0
C1978 C 0.68618 0.39677 0.96367 0.0
C1979 C 0.67669 0.37349 0.95511 0.0
C1980 C 0.67279 0.35376 0.97174 0.0
C1981 C 0.67795 0.35762 0.99697 0.0
C1982 C 0.68861 0.37972 1.00549 0.0
C1983 C 0.68546 0.38254 0.03349 0.0
C1984 C 0.71065 0.37906 0.04681 0.0
C1985 C 0.67339 0.40786 0.04062 0.0
C1986 C 0.66826 0.36061 0.03863 0.0
C1987 C 0.66572 0.34545 0.01775 0.0
C1988 C 0.64778 0.32648 0.01656 0.0
C1989 C 0.63101 0.32395 0.03643 0.0
C1990 C 0.63196 0.34072 0.05687 0.0
C1991 C 0.65167 0.35817 0.05866 0.0
H1992 H 0.89046 0.46156 0.33685 0.0
H1993 H 0.86404 0.43433 0.40866 0.0
H1994 H 0.85762 0.47798 0.42262 0.0
H1995 H 0.92256 0.51714 0.35885 0.0
H1996 H 0.9128 0.53667 0.33322 0.0
H1997 H 0.91611 0.5034 0.32874 0.0
H1998 H 0.87029 0.5006 0.31322 0.0
H1999 H 0.86687 0.53388 0.31753 0.0
H2000 H 0.84543 0.5126 0.33265 0.0
H2001 H 0.85542 0.52394 0.4296 0.0
H2002 H 0.85246 0.56951 0.4283 0.0
H2003 H 0.87725 0.56943 0.35085 0.0
C2004 C 0.88336 0.46479 0.35556 0.0
C2005 C 0.87796 0.44428 0.37179 0.0
C2006 C 0.86834 0.44947 0.3959 0.0
C2007 C 0.86475 0.47429 0.40402 0.0
C2008 C 0.87046 0.49395 0.38773 0.0
C2009 C 0.87917 0.48958 0.36384 0.0
C2010 C 0.88264 0.51433 0.34981 0.0
C2011 C 0.91016 0.5181 0.3422 0.0
C2012 C 0.86528 0.51541 0.32694 0.0
C2013 C 0.87474 0.53334 0.36969 0.0
C2014 C 0.86808 0.52089 0.39141 0.0
C2015 C 0.86034 0.5338 0.4126 0.0
C2016 C 0.85869 0.55993 0.41157 0.0
C2017 C 0.86435 0.57355 0.38942 0.0
C2018 C 0.87294 0.55989 0.36818 0.0
H2019 H 0.46463 0.33417 0.88639 0.0
H2020 H 0.43747 0.40954 0.87394 0.0
H2021 H 0.48127 0.4246 0.87047 0.0
H2022 H 0.5198 0.34917 0.92185 0.0
H2023 H 0.53946 0.32602 0.90719 0.0
H2024 H 0.50616 0.32091 0.90935 0.0
H2025 H 0.50368 0.3149 0.86135 0.0
H2026 H 0.53703 0.31966 0.85907 0.0
H2027 H 0.51606 0.33885 0.84104 0.0
H2028 H 0.52763 0.43199 0.87137 0.0
H2029 H 0.5734 0.43099 0.86834 0.0
H2030 H 0.57245 0.35006 0.87533 0.0
C2031 C 0.46793 0.35385 0.88279 0.0
C2032 C 0.44747 0.37079 0.88059 0.0
C2033 C 0.45265 0.39626 0.8756 0.0
C2034 C 0.47754 0.40497 0.87382 0.0
C2035 C 0.4972 0.38792 0.87651 0.0
C2036 C 0.49274 0.36276 0.88025 0.0
C2037 C 0.51741 0.34827 0.88093 0.0
C2038 C 0.5209 0.33532 0.90634 0.0
C2039 C 0.51862 0.32929 0.85932 0.0
C2040 C 0.53653 0.36927 0.87737 0.0
C2041 C 0.52422 0.39197 0.87531 0.0
C2042 C 0.53735 0.41428 0.87256 0.0
C2043 C 0.56353 0.41346 0.87089 0.0
C2044 C 0.57692 0.39049 0.87137 0.0
C2045 C 0.56308 0.368 0.8752 0.0
H2046 H 0.65865 0.96195 0.4136 0.0
H2047 H 0.65029 0.93617 0.33707 0.0
H2048 H 0.64533 0.98 0.32317 0.0
H2049 H 0.61165 0.01187 0.4083 0.0
H2050 H 0.62825 0.03301 0.42872 0.0
H2051 H 0.63132 0.99966 0.43274 0.0
H2052 H 0.67942 1.00381 0.42887 0.0
H2053 H 0.67654 0.03712 0.42455 0.0
H2054 H 0.69275 0.01849 0.40154 0.0
H2055 H 0.64231 0.02644 0.31716 0.0
H2056 H 0.6372 0.07211 0.3194 0.0
H2057 H 0.64597 0.06971 0.39998 0.0
C2058 C 0.65559 0.9655 0.39391 0.0
C2059 C 0.65478 0.94531 0.37642 0.0
C2060 C 0.65069 0.951 0.3509 0.0
C2061 C 0.64805 0.97596 0.3428 0.0
C2062 C 0.6492 0.9953 0.36042 0.0
C2063 C 0.65244 0.9904 0.38553 0.0
C2064 C 0.65189 0.01476 0.40062 0.0
C2065 C 0.62944 0.01483 0.41867 0.0
C2066 C 0.67663 0.01877 0.41473 0.0
C2067 C 0.64854 0.03422 0.37998 0.0
C2068 C 0.64704 0.02235 0.35699 0.0
C2069 C 0.64344 0.03584 0.33506 0.0
C2070 C 0.64065 0.06192 0.33655 0.0
C2071 C 0.64145 0.07481 0.35977 0.0
C2072 C 0.64583 0.06066 0.38186 0.0
H2073 H 0.95272 0.17652 0.87185 0.0
H2074 H 0.94976 0.0954 0.8683 0.0
H2075 H 0.99553 0.0934 0.87131 0.0
H2076 H 1.00857 0.18406 0.83618 0.0
H2077 H 0.02165 0.20907 0.85471 0.0
H2078 H 0.9882 0.2048 0.85331 0.0
H2079 H 0.98607 0.2016 0.90162 0.0
H2080 H 0.01946 0.20629 0.90319 0.0
H2081 H 1.00545 0.17912 0.91753 0.0
H2082 H 0.04208 0.0997 0.87016 0.0
H2083 H 0.0862 0.11407 0.87268 0.0
H2084 H 0.06057 0.19057 0.881 0.0
C2085 C 0.96167 0.15837 0.87258 0.0
C2086 C 0.94735 0.13608 0.86989 0.0
C2087 C 0.9601 0.11276 0.87026 0.0
C2088 C 0.98623 0.11138 0.87187 0.0
C2089 C 0.99987 0.1335 0.87355 0.0
C2090 C 0.98812 0.15658 0.87459 0.0
C2091 C 1.00767 0.17734 0.87662 0.0
C2092 C 1.00643 0.19486 0.85385 0.0
C2093 C 1.00447 0.19195 0.9012 0.0
C2094 C 0.03193 0.16226 0.87651 0.0
C2095 C 0.02695 0.13702 0.87421 0.0
C2096 C 0.04623 0.11942 0.87234 0.0
C2097 C 0.07127 0.12772 0.87355 0.0
C2098 C 0.07691 0.15334 0.87711 0.0
C2099 C 0.05686 0.17079 0.87843 0.0
H2100 H 0.86169 0.95965 0.11061 0.0
H2101 H 0.87254 0.93244 0.18625 0.0
H2102 H 0.87639 0.97601 0.20124 0.0
H2103 H 0.9072 1.01111 0.1162 0.0
H2104 H 0.88949 0.03227 0.09693 0.0
H2105 H 0.88719 0.99897 0.0919 0.0
H2106 H 0.83911 1.00143 0.09724 0.0
H2107 H 0.84126 0.0347 0.10253 0.0
H2108 H 0.82618 0.01492 0.12536 0.0
H2109 H 0.87806 0.02198 0.20862 0.0
H2110 H 0.88162 0.06774 0.2079 0.0
H2111 H 0.87154 0.06757 0.12737 0.0
C2112 C 0.86501 0.96287 0.13033 0.0
C2113 C 0.86689 0.94235 0.14726 0.0
C2114 C 0.87132 0.94756 0.17284 0.0
C2115 C 0.87334 0.97235 0.18157 0.0
C2116 C 0.87125 0.99202 0.16453 0.0
C2117 C 0.86758 0.98767 0.13936 0.0
C2118 C 0.86712 0.01246 0.12504 0.0
C2119 C 0.88905 0.01378 0.10641 0.0
C2120 C 0.84191 0.01608 0.11175 0.0
C2121 C 0.87051 0.03142 0.14619 0.0
C2122 C 0.87279 0.01897 0.16875 0.0
C2123 C 0.87639 0.03187 0.19105 0.0
C2124 C 0.87835 0.05802 0.19041 0.0
C2125 C 0.8768 0.07158 0.16764 0.0
C2126 C 0.87241 0.05798 0.14516 0.0
H2127 H 0.96188 0.37284 0.68836 0.0
H2128 H 0.9394 0.38764 0.61201 0.0
H2129 H 0.98403 0.38841 0.59908 0.0
H2130 H 0.01821 0.40943 0.68988 0.0
H2131 H 0.0362 0.38703 0.70743 0.0
H2132 H 1.00267 0.38825 0.7111 0.0
H2133 H 0.99913 0.34126 0.69959 0.0
H2134 H 0.03268 0.33978 0.69638 0.0
H2135 H 0.01287 0.3302 0.67082 0.0
H2136 H 0.03121 0.39018 0.59501 0.0
H2137 H 0.07689 0.38385 0.59755 0.0
H2138 H 0.06978 0.36374 0.67569 0.0
C2139 C 0.96642 0.376 0.66887 0.0
C2140 C 0.94712 0.38021 0.65111 0.0
C2141 C 0.95378 0.38416 0.62582 0.0
C2142 C 0.97912 0.38488 0.6184 0.0
C2143 C 0.99771 0.38111 0.6364 0.0
C2144 C 0.99167 0.376 0.66099 0.0
C2145 C 0.01528 0.37085 0.67617 0.0
C2146 C 0.01825 0.39003 0.69741 0.0
C2147 C 0.01497 0.34393 0.68634 0.0
C2148 C 0.03561 0.37426 0.6564 0.0
C2149 C 0.02495 0.38066 0.63373 0.0
C2150 C 0.03966 0.38507 0.61265 0.0
C2151 C 0.0657 0.3817 0.61435 0.0
C2152 C 0.07713 0.37382 0.63687 0.0
C2153 C 0.06181 0.37049 0.65837 0.0
H2154 H 0.66277 0.56945 0.17749 0.0
H2155 H 0.63193 0.57737 0.10328 0.0
H2156 H 0.62797 0.53131 0.09961 0.0
H2157 H 0.69675 0.51338 0.16835 0.0
H2158 H 0.68879 0.49915 0.19786 0.0
H2159 H 0.68934 0.53275 0.19498 0.0
H2160 H 0.64344 0.53519 0.21056 0.0
H2161 H 0.64295 0.50164 0.21399 0.0
H2162 H 0.61965 0.51689 0.19508 0.0
H2163 H 0.63115 0.48391 0.10251 0.0
H2164 H 0.63288 0.43919 0.11489 0.0
H2165 H 0.65606 0.4612 0.18933 0.0
C2166 C 0.65447 0.56148 0.16082 0.0
C2167 C 0.64809 0.57702 0.14026 0.0
C2168 C 0.63764 0.56572 0.11874 0.0
C2169 C 0.63521 0.53959 0.11661 0.0
C2170 C 0.6426 0.52466 0.13662 0.0
C2171 C 0.65118 0.53518 0.15869 0.0
C2172 C 0.65679 0.51467 0.17767 0.0
C2173 C 0.68457 0.51502 0.18516 0.0
C2174 C 0.63969 0.51725 0.20069 0.0
C2175 C 0.65047 0.49115 0.16268 0.0
C2176 C 0.64276 0.49736 0.13887 0.0
C2177 C 0.63693 0.47887 0.12122 0.0
C2178 C 0.63827 0.45346 0.12827 0.0
C2179 C 0.64498 0.44661 0.15288 0.0
C2180 C 0.6512 0.46583 0.17024 0.0
H2181 H 0.57081 0.14552 0.62347 0.0
H2182 H 0.57393 0.14271 0.70445 0.0
H2183 H 0.52818 0.14757 0.70671 0.0
H2184 H 0.51962 0.19153 0.61877 0.0
H2185 H 0.50493 0.17615 0.59258 0.0
H2186 H 0.53826 0.17364 0.59704 0.0
H2187 H 0.53435 0.12529 0.59657 0.0
H2188 H 0.50096 0.12775 0.59242 0.0
H2189 H 0.51338 0.11015 0.61828 0.0
H2190 H 0.48167 0.14948 0.70079 0.0
H2191 H 0.43771 0.15329 0.68678 0.0
H2192 H 0.46305 0.1569 0.60976 0.0
C2193 C 0.56187 0.14661 0.64163 0.0
C2194 C 0.57617 0.144 0.66386 0.0
C2195 C 0.56353 0.14479 0.6872 0.0
C2196 C 0.53745 0.14745 0.6887 0.0
C2197 C 0.52379 0.14926 0.66665 0.0
C2198 C 0.53547 0.1492 0.64351 0.0
C2199 C 0.51589 0.15088 0.62281 0.0
C2200 C 0.51992 0.17446 0.60686 0.0
C2201 C 0.51617 0.12711 0.60655 0.0
C2202 C 0.49169 0.15246 0.638 0.0
C2203 C 0.49673 0.15094 0.66325 0.0
C2204 C 0.47751 0.15083 0.68104 0.0
C2205 C 0.45252 0.15276 0.67291 0.0
C2206 C 0.44677 0.1552 0.64721 0.0
C2207 C 0.46677 0.15502 0.62957 0.0
H2208 H 0.35746 0.84741 0.45353 0.0
H2209 H 0.3868 0.92261 0.44565 0.0
H2210 H 0.39287 0.92536 0.49121 0.0
H2211 H 0.32477 0.85723 0.51048 0.0
H2212 H 0.33219 0.82742 0.52431 0.0
H2213 H 0.33095 0.83052 0.49079 0.0
H2214 H 0.37627 0.81383 0.48695 0.0
H2215 H 0.37746 0.81019 0.52043 0.0
H2216 H 0.40094 0.82864 0.50462 0.0
H2217 H 0.39178 0.92175 0.5385 0.0
H2218 H 0.39075 0.90909 0.58314 0.0
H2219 H 0.36611 0.8349 0.56125 0.0
C2220 C 0.36611 0.86404 0.46132 0.0
C2221 C 0.37204 0.88476 0.44574 0.0
C2222 C 0.38229 0.90651 0.45698 0.0
C2223 C 0.3857 0.90828 0.48298 0.0
C2224 C 0.37902 0.88796 0.4979 0.0
C2225 C 0.37004 0.86596 0.48748 0.0
C2226 C 0.36442 0.84694 0.508 0.0
C2227 C 0.33642 0.84013 0.5084 0.0
C2228 C 0.38075 0.82351 0.50481 0.0
C2229 C 0.37169 0.86167 0.53138 0.0
C2230 C 0.37954 0.8855 0.52514 0.0
C2231 C 0.38598 0.903 0.54356 0.0
C2232 C 0.38509 0.89578 0.56892 0.0
C2233 C 0.37829 0.87112 0.57574 0.0
C2234 C 0.37139 0.85393 0.55661 0.0
H2235 H 0.17279 0.87388 0.95327 0.0
H2236 H 0.09363 0.85522 0.95247 0.0
H2237 H 0.09222 0.85758 0.99821 0.0
H2238 H 0.18775 0.83927 1.00891 0.0
H2239 H 0.20947 0.86197 0.02129 0.0
H2240 H 0.20474 0.85963 0.988 0.0
H2241 H 0.19323 0.90673 0.98617 0.0
H2242 H 0.19825 0.90921 0.0194 0.0
H2243 H 0.16871 0.91852 1.00616 0.0
H2244 H 0.09936 0.85898 0.04482 0.0
H2245 H 0.11403 0.86434 0.08848 0.0
H2246 H 0.18773 0.88442 0.06063 0.0
C2247 C 0.15508 0.87088 0.96269 0.0
C2248 C 0.1333 0.86433 0.94884 0.0
C2249 C 0.11067 0.86009 0.96228 0.0
C2250 C 0.10962 0.86136 0.98847 0.0
C2251 C 0.13133 0.86713 1.00159 0.0
C2252 C 0.1536 0.87222 0.98924 0.0
C2253 C 0.1741 0.87794 1.00826 0.0
C2254 C 0.19527 0.85855 1.0065 0.0
C2255 C 0.18417 0.90469 1.00478 0.0
C2256 C 0.1598 0.87534 0.03292 0.0
C2257 C 0.13522 0.86874 0.02861 0.0
C2258 C 0.11856 0.86439 0.04841 0.0
C2259 C 0.12707 0.8673 0.07323 0.0
C2260 C 0.15197 0.8749 0.07823 0.0
C2261 C 0.16849 0.87877 0.0576 0.0
H2262 H 0.13996 0.68864 0.55962 0.0
H2263 H 0.15492 0.61328 0.58555 0.0
H2264 H 0.15918 0.5992 0.54158 0.0
H2265 H 0.10535 0.67307 0.504 0.0
H2266 H 0.11911 0.69714 0.48476 0.0
H2267 H 0.11662 0.70161 0.5181 0.0
H2268 H 0.16439 0.70963 0.52082 0.0
H2269 H 0.16698 0.70548 0.48746 0.0
H2270 H 0.18574 0.68676 0.50821 0.0
H2271 H 0.15773 0.5925 0.49531 0.0
H2272 H 0.16 0.59398 0.44971 0.0
H2273 H 0.15209 0.67485 0.45138 0.0
C2274 C 0.14438 0.66919 0.55602 0.0
C2275 C 0.14707 0.65198 0.57624 0.0
C2276 C 0.15297 0.62681 0.57063 0.0
C2277 C 0.15518 0.61864 0.54562 0.0
C2278 C 0.15201 0.63594 0.52624 0.0
C2279 C 0.14741 0.66085 0.53107 0.0
C2280 C 0.14624 0.67569 0.50658 0.0
C2281 C 0.12029 0.68759 0.50317 0.0
C2282 C 0.16708 0.69557 0.50571 0.0
C2283 C 0.1507 0.65516 0.48713 0.0
C2284 C 0.15337 0.63238 0.49918 0.0
C2285 C 0.15633 0.61032 0.4858 0.0
C2286 C 0.15767 0.61146 0.45967 0.0
C2287 C 0.15695 0.63455 0.44643 0.0
C2288 C 0.15278 0.65682 0.46055 0.0
H2289 H 0.37209 0.62491 0.94936 0.0
H2290 H 0.37205 0.70592 0.9446 0.0
H2291 H 0.3676 0.7089 0.99033 0.0
H2292 H 0.3259 0.62065 1.00168 0.0
H2293 H 0.34173 0.59489 0.01649 0.0
H2294 H 0.34345 0.59865 0.98304 0.0
H2295 H 0.39181 0.59867 0.98544 0.0
H2296 H 0.39028 0.59513 0.01891 0.0
H2297 H 0.40744 0.62093 1.00546 0.0
H2298 H 0.36776 0.70376 0.03689 0.0
H2299 H 0.36586 0.69042 0.08116 0.0
H2300 H 0.36272 0.61283 0.05732 0.0
C2301 C 0.37017 0.64319 0.95791 0.0
C2302 C 0.3719 0.66524 0.94319 0.0
C2303 C 0.37034 0.6888 0.95534 0.0
C2304 C 0.36802 0.69071 0.9814 0.0
C2305 C 0.36712 0.66885 0.99548 0.0
C2306 C 0.3676 0.64548 0.98424 0.0
C2307 C 0.36662 0.62508 1.00418 0.0
C2308 C 0.34301 0.60886 1.00116 0.0
C2309 C 0.39046 0.609 1.00344 0.0
C2310 C 0.36551 0.64069 0.0281 0.0
C2311 C 0.36629 0.6659 0.02258 0.0
C2312 C 0.36683 0.68404 0.04144 0.0
C2313 C 0.36598 0.67631 0.06659 0.0
C2314 C 0.36418 0.65065 0.07284 0.0
C2315 C 0.36401 0.63264 0.05319 0.0
H2316 H 0.12914 0.27482 0.70127 0.0
H2317 H 0.12335 0.34553 0.74075 0.0
H2318 H 0.11504 0.32313 0.7801 0.0
H2319 H 0.08187 0.23935 0.74087 0.0
H2320 H 0.10053 0.21132 0.73944 0.0
H2321 H 0.10048 0.23283 0.71348 0.0
H2322 H 0.14894 0.23615 0.716 0.0
H2323 H 0.14912 0.21484 0.74192 0.0
H2324 H 0.1633 0.24533 0.7451 0.0
H2325 H 0.11514 0.29387 0.81573 0.0
H2326 H 0.12345 0.25915 0.84516 0.0
H2327 H 0.12872 0.20765 0.78261 0.0
C2328 C 0.12511 0.28548 0.71804 0.0
C2329 C 0.12657 0.31173 0.71812 0.0
C2330 C 0.12206 0.32529 0.74043 0.0
C2331 C 0.11721 0.31278 0.76282 0.0
C2332 C 0.11671 0.28678 0.76242 0.0
C2333 C 0.12034 0.27325 0.74059 0.0
C2334 C 0.12216 0.24557 0.74579 0.0
C2335 C 0.09993 0.23143 0.73421 0.0
C2336 C 0.14737 0.23487 0.73668 0.0
C2337 C 0.12043 0.24586 0.77398 0.0
C2338 C 0.11676 0.26973 0.78323 0.0
C2339 C 0.11728 0.27496 0.80879 0.0
C2340 C 0.12205 0.25524 0.82533 0.0
C2341 C 0.12643 0.23091 0.81599 0.0
C2342 C 0.12498 0.2261 0.79015 0.0
H2343 H 0.70181 0.64436 0.24261 0.0
H2344 H 0.74832 0.61556 0.18257 0.0
H2345 H 0.7808 0.60408 0.21354 0.0
H2346 H 0.74894 0.67404 0.27388 0.0
H2347 H 0.73695 0.66811 0.30485 0.0
H2348 H 0.71583 0.66956 0.27881 0.0
H2349 H 0.69907 0.62523 0.28952 0.0
H2350 H 0.72023 0.62356 0.31569 0.0
H2351 H 0.72065 0.59947 0.29204 0.0
H2352 H 0.8095 0.60109 0.24943 0.0
H2353 H 0.83428 0.60912 0.28738 0.0
H2354 H 0.76897 0.64046 0.324 0.0
C2355 C 0.71857 0.63504 0.23604 0.0
C2356 C 0.7227 0.6305 0.21042 0.0
C2357 C 0.74498 0.61893 0.20228 0.0
C2358 C 0.76331 0.61222 0.21969 0.0
C2359 C 0.75877 0.61725 0.24492 0.0
C2360 C 0.73697 0.62849 0.25305 0.0
C2361 C 0.7379 0.63495 0.28054 0.0
C2362 C 0.73474 0.66333 0.28474 0.0
C2363 C 0.7183 0.61989 0.29532 0.0
C2364 C 0.76409 0.6264 0.28652 0.0
C2365 C 0.77558 0.61578 0.26581 0.0
C2366 C 0.8006 0.60881 0.26591 0.0
C2367 C 0.81448 0.6135 0.28748 0.0
C2368 C 0.80325 0.62511 0.30846 0.0
C2369 C 0.77763 0.63092 0.30834 0.0
H2370 H 0.36729 0.31647 0.7837 0.0
H2371 H 0.42527 0.28324 0.82939 0.0
H2372 H 0.43782 0.2563 0.79358 0.0
H2373 H 0.34932 0.25807 0.75609 0.0
H2374 H 0.34001 0.27336 0.72757 0.0
H2375 H 0.33903 0.29005 0.75682 0.0
H2376 H 0.36709 0.32428 0.73517 0.0
H2377 H 0.36958 0.30573 0.70711 0.0
H2378 H 0.3975 0.31554 0.72334 0.0
H2379 H 0.44132 0.23125 0.7547 0.0
H2380 H 0.43211 0.20533 0.71757 0.0
H2381 H 0.37153 0.25505 0.69752 0.0
C2382 C 0.38296 0.30382 0.78596 0.0
C2383 C 0.3958 0.30201 0.80881 0.0
C2384 C 0.41549 0.28476 0.81173 0.0
C2385 C 0.42283 0.26971 0.79151 0.0
C2386 C 0.40994 0.27219 0.76896 0.0
C2387 C 0.39006 0.28842 0.7663 0.0
C2388 C 0.37689 0.28504 0.74159 0.0
C2389 C 0.34972 0.27611 0.74573 0.0
C2390 C 0.37784 0.30909 0.72588 0.0
C2391 C 0.39281 0.26465 0.73033 0.0
C2392 C 0.41185 0.25757 0.74641 0.0
C2393 C 0.42696 0.23696 0.74166 0.0
C2394 C 0.42172 0.22249 0.72054 0.0
C2395 C 0.40172 0.22891 0.70457 0.0
C2396 C 0.38771 0.25068 0.70889 0.0
H2397 H 0.80479 0.90473 0.2267 0.0
H2398 H 0.76393 0.86017 0.17252 0.0
H2399 H 0.7288 0.85603 0.2023 0.0
H2400 H 0.79147 0.87183 0.27785 0.0
H2401 H 0.78674 0.89733 0.29946 0.0
H2402 H 0.80653 0.90163 0.27257 0.0
H2403 H 0.77992 0.93939 0.25792 0.0
H2404 H 0.76047 0.93584 0.28531 0.0
H2405 H 0.74653 0.93582 0.25465 0.0
H2406 H 0.70259 0.85048 0.23929 0.0
H2407 H 0.68266 0.84828 0.28062 0.0
H2408 H 0.74027 0.89678 0.31145 0.0
C2409 C 0.78791 0.8951 0.22083 0.0
C2410 C 0.78658 0.88306 0.19746 0.0
C2411 C 0.76475 0.87002 0.19023 0.0
C2412 C 0.74489 0.86743 0.20705 0.0
C2413 C 0.74722 0.87855 0.2305 0.0
C2414 C 0.76782 0.89271 0.23721 0.0
C2415 C 0.76633 0.9012 0.26417 0.0
C2416 C 0.78912 0.89245 0.27939 0.0
C2417 C 0.76312 0.92976 0.2656 0.0
C2418 C 0.74267 0.8879 0.2721 0.0
C2419 C 0.73178 0.87538 0.25219 0.0
C2420 C 0.71046 0.86077 0.25486 0.0
C2421 C 0.6994 0.85958 0.2784 0.0
C2422 C 0.70991 0.8727 0.29889 0.0
C2423 C 0.73196 0.88677 0.2959 0.0
H2424 H 0.7006 0.13416 0.27385 0.0
H2425 H 0.73982 0.12359 0.34396 0.0
H2426 H 0.77938 0.11741 0.32116 0.0
H2427 H 0.74048 0.09002 0.23533 0.0
H2428 H 0.73916 0.11059 0.20868 0.0
H2429 H 0.71309 0.10893 0.2301 0.0
H2430 H 0.71567 0.15705 0.23658 0.0
H2431 H 0.74186 0.15884 0.21553 0.0
H2432 H 0.74472 0.17086 0.2469 0.0
H2433 H 0.81518 0.11958 0.2921 0.0
H2434 H 0.84494 0.12842 0.25761 0.0
H2435 H 0.78249 0.13764 0.20671 0.0
C2436 C 0.71737 0.12953 0.2842 0.0
C2437 C 0.71735 0.12905 0.31044 0.0
C2438 C 0.73962 0.1238 0.3237 0.0
C2439 C 0.76213 0.12019 0.31097 0.0
C2440 C 0.76186 0.12173 0.28506 0.0
C2441 C 0.74006 0.12603 0.27175 0.0
C2442 C 0.7454 0.1298 0.24431 0.0
C2443 C 0.73385 0.10856 0.22868 0.0
C2444 C 0.73639 0.15567 0.23533 0.0
C2445 C 0.7736 0.12819 0.24458 0.0
C2446 C 0.78275 0.12311 0.26815 0.0
C2447 C 0.80832 0.12292 0.27337 0.0
C2448 C 0.82503 0.12807 0.25383 0.0
C2449 C 0.81583 0.13348 0.22972 0.0
C2450 C 0.78992 0.13322 0.22501 0.0
H2451 H 0.86925 0.23895 0.81626 0.0
H2452 H 0.91713 0.18631 0.77726 0.0
H2453 H 0.92833 0.21937 0.7466 0.0
H2454 H 0.84439 0.26483 0.76138 0.0
H2455 H 0.84098 0.29569 0.77465 0.0
H2456 H 0.84016 0.26861 0.7946 0.0
H2457 H 0.87589 0.28803 0.82111 0.0
H2458 H 0.87744 0.31468 0.80054 0.0
H2459 H 0.90508 0.29625 0.80619 0.0
H2460 H 0.93102 0.2563 0.71881 0.0
H2461 H 0.92212 0.29337 0.69287 0.0
H2462 H 0.87196 0.32173 0.74999 0.0
C2463 C 0.88255 0.23459 0.80156 0.0
C2464 C 0.89281 0.21047 0.7991 0.0
C2465 C 0.90934 0.20491 0.77929 0.0
C2466 C 0.91591 0.22355 0.76205 0.0
C2467 C 0.90547 0.2473 0.76502 0.0
C2468 C 0.88887 0.25274 0.78408 0.0
C2469 C 0.87767 0.27851 0.78132 0.0
C2470 C 0.84911 0.27682 0.77774 0.0
C2471 C 0.88445 0.29536 0.80362 0.0
C2472 C 0.89068 0.28691 0.75771 0.0
C2473 C 0.90678 0.26867 0.74874 0.0
C2474 C 0.91892 0.27093 0.72584 0.0
C2475 C 0.91379 0.29198 0.71131 0.0
C2476 C 0.89683 0.31037 0.71989 0.0
C2477 C 0.88572 0.30827 0.74362 0.0
H2478 H 0.82403 0.37283 0.27253 0.0
H2479 H 0.796 0.42435 0.32849 0.0
H2480 H 0.75925 0.43335 0.30209 0.0
H2481 H 0.79865 0.40462 0.21523 0.0
H2482 H 0.79044 0.37492 0.20139 0.0
H2483 H 0.81715 0.37723 0.22181 0.0
H2484 H 0.79851 0.34181 0.24934 0.0
H2485 H 0.77152 0.33976 0.22942 0.0
H2486 H 0.7676 0.3455 0.26241 0.0
H2487 H 0.72231 0.43022 0.27437 0.0
H2488 H 0.68897 0.41787 0.24448 0.0
H2489 H 0.7412 0.36835 0.20701 0.0
C2490 C 0.8108 0.387 0.27845 0.0
C2491 C 0.81284 0.39847 0.30199 0.0
C2492 C 0.79468 0.41587 0.31012 0.0
C2493 C 0.77382 0.42103 0.29533 0.0
C2494 C 0.77153 0.40843 0.27268 0.0
C2495 C 0.78964 0.39194 0.26412 0.0
C2496 C 0.781 0.37806 0.2411 0.0
C2497 C 0.79781 0.38409 0.21854 0.0
C2498 C 0.77957 0.34962 0.24587 0.0
C2499 C 0.75525 0.38919 0.23823 0.0
C2500 C 0.75003 0.40659 0.25663 0.0
C2501 C 0.72633 0.41718 0.2594 0.0
C2502 C 0.70754 0.40998 0.24261 0.0
C2503 C 0.71291 0.39262 0.22346 0.0
C2504 C 0.73697 0.38223 0.22119 0.0
H2505 H 0.64244 0.20215 0.7539 0.0
H2506 H 0.60842 0.23628 0.68886 0.0
H2507 H 0.59965 0.27445 0.71322 0.0
H2508 H 0.6019 0.23321 0.80283 0.0
H2509 H 0.62823 0.23717 0.82351 0.0
H2510 H 0.62695 0.21066 0.80264 0.0
H2511 H 0.67035 0.22313 0.78456 0.0
H2512 H 0.67162 0.24979 0.80503 0.0
H2513 H 0.67469 0.25404 0.77175 0.0
H2514 H 0.60183 0.31095 0.74132 0.0
H2515 H 0.61258 0.343 0.77313 0.0
H2516 H 0.64459 0.28514 0.81996 0.0
C2517 C 0.63213 0.21727 0.74526 0.0
C2518 C 0.62568 0.2164 0.71983 0.0
C2519 C 0.6132 0.23675 0.70854 0.0
C2520 C 0.6081 0.25842 0.72218 0.0
C2521 C 0.61563 0.25928 0.74702 0.0
C2522 C 0.62717 0.2392 0.75859 0.0
C2523 C 0.63629 0.24613 0.78439 0.0
C2524 C 0.62251 0.23089 0.80454 0.0
C2525 C 0.66492 0.2431 0.78653 0.0
C2526 C 0.62875 0.27335 0.78511 0.0
C2527 C 0.61673 0.28057 0.76347 0.0
C2528 C 0.61055 0.30547 0.75871 0.0
C2529 C 0.61681 0.32351 0.77669 0.0
C2530 C 0.62895 0.31629 0.79894 0.0
C2531 C 0.63469 0.29095 0.8033 0.0
H2532 H 0.302 0.72606 0.11431 0.0
H2533 H 0.26469 0.67221 0.16225 0.0
H2534 H 0.2285 0.70064 0.16619 0.0
H2535 H 0.28817 0.77779 0.14533 0.0
H2536 H 0.28179 0.7982 0.1193 0.0
H2537 H 0.3022 0.77185 0.11519 0.0
H2538 H 0.27461 0.75479 0.07912 0.0
H2539 H 0.25443 0.78161 0.08248 0.0
H2540 H 0.2415 0.75046 0.08412 0.0
H2541 H 0.20102 0.73676 0.17094 0.0
H2542 H 0.18041 0.77774 0.17307 0.0
H2543 H 0.23567 0.80886 0.1222 0.0
C2544 C 0.28566 0.71992 0.12468 0.0
C2545 C 0.28562 0.6971 0.13773 0.0
C2546 C 0.26449 0.6895 0.15168 0.0
C2547 C 0.24402 0.70553 0.15409 0.0
C2548 C 0.24504 0.72853 0.14186 0.0
C2549 C 0.26499 0.7355 0.12689 0.0
C2550 C 0.26233 0.76206 0.11753 0.0
C2551 C 0.28497 0.77842 0.1248 0.0
C2552 C 0.25796 0.76224 0.08912 0.0
C2553 C 0.23895 0.76966 0.13142 0.0
C2554 C 0.229 0.74978 0.14477 0.0
C2555 C 0.20815 0.75229 0.16005 0.0
C2556 C 0.1967 0.77562 0.16121 0.0
C2557 C 0.20645 0.79614 0.14756 0.0
C2558 C 0.22791 0.79328 0.13262 0.0
H2559 H 0.27675 0.81892 0.36606 0.0
H2560 H 0.31868 0.80315 0.43334 0.0
H2561 H 0.29564 0.76309 0.43839 0.0
H2562 H 0.21699 0.78847 0.38151 0.0
H2563 H 0.2139 0.77608 0.35029 0.0
H2564 H 0.23016 0.80521 0.35531 0.0
H2565 H 0.26885 0.78698 0.33219 0.0
H2566 H 0.25306 0.75749 0.32793 0.0
H2567 H 0.28293 0.75855 0.3435 0.0
H2568 H 0.27114 0.72286 0.43311 0.0
H2569 H 0.24435 0.68716 0.41948 0.0
H2570 H 0.22228 0.7294 0.35399 0.0
C2571 C 0.27996 0.80764 0.38258 0.0
C2572 C 0.2984 0.81421 0.39999 0.0
C2573 C 0.30375 0.79845 0.42046 0.0
C2574 C 0.29102 0.77569 0.42327 0.0
C2575 C 0.27368 0.76904 0.40502 0.0
C2576 C 0.26812 0.78462 0.38511 0.0
C2577 C 0.2514 0.772 0.36629 0.0
C2578 C 0.22663 0.78628 0.3632 0.0
C2579 C 0.26487 0.76856 0.341 0.0
C2580 C 0.24767 0.74726 0.37917 0.0
C2581 C 0.26083 0.74561 0.4013 0.0
C2582 C 0.26058 0.72396 0.4159 0.0
C2583 C 0.24566 0.70379 0.40798 0.0
C2584 C 0.23144 0.7059 0.38588 0.0
C2585 C 0.23293 0.72757 0.37112 0.0
H2586 H 0.20268 0.77799 0.86016 0.0
H2587 H 0.21434 0.80988 0.93366 0.0
H2588 H 0.25451 0.78711 0.93727 0.0
H2589 H 0.23386 0.717 0.86886 0.0
H2590 H 0.24753 0.71839 0.83804 0.0
H2591 H 0.21783 0.73312 0.84401 0.0
H2592 H 0.23606 0.77491 0.82704 0.0
H2593 H 0.26612 0.76063 0.82202 0.0
H2594 H 0.26359 0.78812 0.8414 0.0
H2595 H 0.29535 0.76467 0.93054 0.0
H2596 H 0.33198 0.74029 0.91549 0.0
H2597 H 0.29395 0.72692 0.84514 0.0
C2598 C 0.21304 0.77888 0.87756 0.0
C2599 C 0.20528 0.79453 0.89715 0.0
C2600 C 0.21988 0.797 0.919 0.0
C2601 C 0.24275 0.78447 0.92102 0.0
C2602 C 0.25069 0.77021 0.90072 0.0
C2603 C 0.23618 0.76723 0.87947 0.0
C2604 C 0.25006 0.75351 0.85913 0.0
C2605 C 0.23652 0.72904 0.85211 0.0
C2606 C 0.25418 0.7703 0.83605 0.0
C2607 C 0.27437 0.74868 0.87247 0.0
C2608 C 0.27459 0.75863 0.89632 0.0
C2609 C 0.2954 0.75667 0.91193 0.0
C2610 C 0.31614 0.74316 0.90321 0.0
C2611 C 0.31549 0.732 0.87928 0.0
C2612 C 0.29473 0.73538 0.86356 0.0
H2613 H 0.23205 0.71767 0.67065 0.0
H2614 H 0.19027 0.73809 0.60433 0.0
H2615 H 0.22485 0.76664 0.5916 0.0
H2616 H 0.25582 0.77968 0.68235 0.0
H2617 H 0.28504 0.76827 0.69458 0.0
H2618 H 0.25708 0.74964 0.69761 0.0
H2619 H 0.27945 0.71258 0.67524 0.0
H2620 H 0.30736 0.73132 0.67223 0.0
H2621 H 0.29326 0.71743 0.64488 0.0
H2622 H 0.26329 0.79348 0.58739 0.0
H2623 H 0.30127 0.81949 0.59359 0.0
H2624 H 0.31785 0.77925 0.66177 0.0
C2625 C 0.23019 0.7282 0.65344 0.0
C2626 C 0.20887 0.72587 0.63827 0.0
C2627 C 0.20663 0.74001 0.61613 0.0
C2628 C 0.22617 0.75595 0.60871 0.0
C2629 C 0.24736 0.75738 0.62389 0.0
C2630 C 0.24924 0.74417 0.64599 0.0
C2631 C 0.27313 0.74994 0.65979 0.0
C2632 C 0.26743 0.76264 0.68506 0.0
C2633 C 0.28926 0.72641 0.66322 0.0
C2634 C 0.28492 0.76796 0.64161 0.0
C2635 C 0.26971 0.77219 0.62111 0.0
C2636 C 0.2756 0.78999 0.60304 0.0
C2637 C 0.29717 0.80446 0.60656 0.0
C2638 C 0.31256 0.80046 0.6276 0.0
C2639 C 0.30683 0.78163 0.64494 0.0
H2640 H 0.86112 0.81704 0.23569 0.0
H2641 H 0.89046 0.76662 0.17914 0.0
H2642 H 0.8944 0.7334 0.21069 0.0
H2643 H 0.90055 0.79254 0.28784 0.0
H2644 H 0.87593 0.79603 0.31066 0.0
H2645 H 0.87764 0.81699 0.28429 0.0
H2646 H 0.83212 0.80534 0.27214 0.0
H2647 H 0.83026 0.78447 0.29846 0.0
H2648 H 0.82395 0.7729 0.26741 0.0
H2649 H 0.89368 0.70443 0.24812 0.0
H2650 H 0.88514 0.68172 0.28763 0.0
H2651 H 0.85471 0.74967 0.31983 0.0
C2652 C 0.86887 0.79919 0.23006 0.0
C2653 C 0.87574 0.79472 0.20477 0.0
C2654 C 0.88523 0.77078 0.19827 0.0
C2655 C 0.88761 0.75168 0.21614 0.0
C2656 C 0.88048 0.75653 0.24074 0.0
C2657 C 0.87128 0.7797 0.24777 0.0
C2658 C 0.86372 0.77944 0.27524 0.0
C2659 C 0.88045 0.79732 0.2904 0.0
C2660 C 0.83586 0.78591 0.27849 0.0
C2661 C 0.869 0.7523 0.28211 0.0
C2662 C 0.87935 0.73959 0.26213 0.0
C2663 C 0.88576 0.71429 0.26395 0.0
C2664 C 0.88103 0.70153 0.28655 0.0
C2665 C 0.86951 0.71388 0.30696 0.0
C2666 C 0.86374 0.73972 0.30465 0.0
H2667 H 0.31131 0.32489 0.78592 0.0
H2668 H 0.30054 0.39717 0.82113 0.0
H2669 H 0.26901 0.40788 0.78852 0.0
H2670 H 0.30435 0.3467 0.72093 0.0
H2671 H 0.28941 0.31778 0.7119 0.0
H2672 H 0.31215 0.31807 0.73667 0.0
H2673 H 0.27922 0.29717 0.76613 0.0
H2674 H 0.25642 0.29757 0.74145 0.0
H2675 H 0.2495 0.31237 0.77097 0.0
H2676 H 0.23534 0.40839 0.752 0.0
H2677 H 0.2054 0.39869 0.71761 0.0
H2678 H 0.24062 0.32634 0.70786 0.0
C2679 C 0.30252 0.34313 0.78681 0.0
C2680 C 0.30829 0.36013 0.80629 0.0
C2681 C 0.29648 0.38385 0.80639 0.0
C2682 C 0.27851 0.39003 0.78793 0.0
C2683 C 0.27291 0.37245 0.76923 0.0
C2684 C 0.28499 0.3496 0.76854 0.0
C2685 C 0.27568 0.33343 0.74725 0.0
C2686 C 0.29663 0.32871 0.72805 0.0
C2687 C 0.26454 0.30868 0.75704 0.0
C2688 C 0.25572 0.35017 0.73642 0.0
C2689 C 0.25438 0.3728 0.74891 0.0
C2690 C 0.23656 0.39076 0.74209 0.0
C2691 C 0.21967 0.38518 0.72242 0.0
C2692 C 0.22059 0.36177 0.70991 0.0
C2693 C 0.23925 0.34443 0.71693 0.0
H2694 H 0.66359 0.70087 0.2369 0.0
H2695 H 0.62094 0.74823 0.18703 0.0
H2696 H 0.61583 0.77939 0.22084 0.0
H2697 H 0.62959 0.71675 0.29545 0.0
H2698 H 0.65768 0.71698 0.31407 0.0
H2699 H 0.65552 0.69687 0.28705 0.0
H2700 H 0.69597 0.7167 0.26895 0.0
H2701 H 0.69828 0.73677 0.29592 0.0
H2702 H 0.6977 0.75019 0.26502 0.0
H2703 H 0.61685 0.80672 0.25986 0.0
H2704 H 0.62701 0.82898 0.29928 0.0
H2705 H 0.6712 0.76544 0.32315 0.0
C2706 C 0.65255 0.71746 0.23337 0.0
C2707 C 0.64208 0.72178 0.20938 0.0
C2708 C 0.62873 0.74427 0.20528 0.0
C2709 C 0.62573 0.76213 0.22443 0.0
C2710 C 0.63648 0.75755 0.24773 0.0
C2711 C 0.6498 0.73582 0.25224 0.0
C2712 C 0.66126 0.73651 0.27828 0.0
C2713 C 0.65036 0.71552 0.29468 0.0
C2714 C 0.69 0.73496 0.27695 0.0
C2715 C 0.65269 0.76209 0.28745 0.0
C2716 C 0.63799 0.77374 0.26975 0.0
C2717 C 0.62817 0.79764 0.27392 0.0
C2718 C 0.63385 0.81011 0.29651 0.0
C2719 C 0.64957 0.79891 0.3146 0.0
C2720 C 0.65884 0.77444 0.30992 0.0
H2721 H 0.27203 0.14433 0.70421 0.0
H2722 H 0.34117 0.16556 0.74121 0.0
H2723 H 0.31915 0.16592 0.7818 0.0
H2724 H 0.23008 0.18039 0.73969 0.0
H2725 H 0.20575 0.15702 0.74183 0.0
H2726 H 0.22703 0.15684 0.71569 0.0
H2727 H 0.2392 0.11101 0.72553 0.0
H2728 H 0.21779 0.11096 0.75165 0.0
H2729 H 0.25023 0.10315 0.75635 0.0
H2730 H 0.28968 0.16622 0.81795 0.0
H2731 H 0.25498 0.16521 0.84809 0.0
H2732 H 0.20373 0.14354 0.78888 0.0
C2733 C 0.2826 0.14871 0.72091 0.0
C2734 C 0.30848 0.15476 0.71944 0.0
C2735 C 0.32153 0.16048 0.74177 0.0
C2736 C 0.30912 0.16087 0.76496 0.0
C2737 C 0.28364 0.15508 0.76573 0.0
C2738 C 0.27054 0.14876 0.7444 0.0
C2739 C 0.24323 0.14318 0.75069 0.0
C2740 C 0.22548 0.1604 0.73611 0.0
C2741 C 0.23725 0.11543 0.74575 0.0
C2742 C 0.24273 0.14882 0.77862 0.0
C2743 C 0.26645 0.15516 0.78685 0.0
C2744 C 0.2711 0.16102 0.81176 0.0
C2745 C 0.25115 0.16029 0.82882 0.0
C2746 C 0.2265 0.15401 0.8211 0.0
C2747 C 0.22229 0.1483 0.79549 0.0
H2748 H 0.22821 0.84518 0.81611 0.0
H2749 H 0.19096 0.91171 0.7889 0.0
H2750 H 0.22317 0.91625 0.75585 0.0
H2751 H 0.293 0.86419 0.80267 0.0
H2752 H 0.30219 0.83346 0.7922 0.0
H2753 H 0.27776 0.83678 0.81525 0.0
H2754 H 0.24766 0.81112 0.78727 0.0
H2755 H 0.27193 0.80773 0.76411 0.0
H2756 H 0.24219 0.821 0.75552 0.0
H2757 H 0.25933 0.9129 0.72456 0.0
H2758 H 0.29426 0.90029 0.69663 0.0
H2759 H 0.30635 0.83452 0.74248 0.0
C2760 C 0.22722 0.86105 0.80357 0.0
C2761 C 0.20731 0.87848 0.80549 0.0
C2762 C 0.20618 0.89837 0.78805 0.0
C2763 C 0.22442 0.90109 0.76917 0.0
C2764 C 0.24362 0.88348 0.76754 0.0
C2765 C 0.24502 0.8637 0.78417 0.0
C2766 C 0.26638 0.84626 0.77709 0.0
C2767 C 0.28599 0.84512 0.79806 0.0
C2768 C 0.25644 0.81998 0.77062 0.0
C2769 C 0.2768 0.85936 0.75403 0.0
C2770 C 0.2636 0.88093 0.74894 0.0
C2771 C 0.26978 0.89603 0.72845 0.0
C2772 C 0.28974 0.88878 0.71267 0.0
C2773 C 0.3032 0.86644 0.7172 0.0
C2774 C 0.29655 0.85174 0.73835 0.0
H2775 H 0.1506 0.78631 0.2054 0.0
H2776 H 0.15258 0.84589 0.26017 0.0
H2777 H 0.14813 0.81479 0.2942 0.0
H2778 H 0.10745 0.74289 0.24063 0.0
H2779 H 0.12463 0.71564 0.23067 0.0
H2780 H 0.12316 0.74282 0.21076 0.0
H2781 H 0.17156 0.74427 0.20918 0.0
H2782 H 0.17332 0.71741 0.22932 0.0
H2783 H 0.18902 0.74606 0.23794 0.0
H2784 H 0.14719 0.77632 0.32277 0.0
H2785 H 0.15206 0.73479 0.34275 0.0
H2786 H 0.15437 0.69997 0.26954 0.0
C2787 C 0.14887 0.79283 0.22449 0.0
C2788 C 0.15068 0.81872 0.23001 0.0
C2789 C 0.15001 0.82633 0.25539 0.0
C2790 C 0.14774 0.80871 0.27489 0.0
C2791 C 0.14658 0.78327 0.26887 0.0
C2792 C 0.14711 0.77534 0.24423 0.0
C2793 C 0.14824 0.74691 0.24286 0.0
C2794 C 0.12446 0.73644 0.23049 0.0
C2795 C 0.17195 0.73816 0.22902 0.0
C2796 C 0.14909 0.74007 0.27047 0.0
C2797 C 0.14749 0.76127 0.28522 0.0
C2798 C 0.14816 0.75963 0.31132 0.0
C2799 C 0.15076 0.73588 0.32257 0.0
C2800 C 0.15321 0.71393 0.30785 0.0
C2801 C 0.15221 0.71627 0.28141 0.0
H2802 H 0.23407 0.65873 0.7011 0.0
H2803 H 0.17877 0.63188 0.75413 0.0
H2804 H 0.21168 0.62718 0.78611 0.0
H2805 H 0.28743 0.61954 0.72374 0.0
H2806 H 0.30992 0.64437 0.71935 0.0
H2807 H 0.28279 0.6424 0.69942 0.0
H2808 H 0.27038 0.68781 0.71156 0.0
H2809 H 0.29779 0.68988 0.731 0.0
H2810 H 0.26728 0.69598 0.74411 0.0
H2811 H 0.25026 0.62809 0.81367 0.0
H2812 H 0.29069 0.63655 0.83467 0.0
H2813 H 0.32094 0.66477 0.76481 0.0
C2814 C 0.2291 0.65099 0.71915 0.0
C2815 C 0.20382 0.645 0.72485 0.0
C2816 C 0.19799 0.6361 0.74913 0.0
C2817 C 0.2166 0.63341 0.76748 0.0
C2818 C 0.2412 0.6399 0.76154 0.0
C2819 C 0.24753 0.64854 0.73795 0.0
C2820 C 0.27499 0.65625 0.73719 0.0
C2821 C 0.28965 0.63965 0.71882 0.0
C2822 C 0.27778 0.68414 0.73058 0.0
C2823 C 0.28286 0.65118 0.76406 0.0
C2824 C 0.26321 0.64131 0.77769 0.0
C2825 C 0.26584 0.63559 0.80306 0.0
C2826 C 0.28897 0.64034 0.81486 0.0
C2827 C 0.30923 0.65109 0.80147 0.0
C2828 C 0.306 0.65631 0.77562 0.0
H2829 H 0.35661 0.78925 0.31979 0.0
H2830 H 0.38984 0.8459 0.27196 0.0
H2831 H 0.39348 0.81503 0.23787 0.0
H2832 H 0.3939 0.73591 0.29536 0.0
H2833 H 0.36802 0.71428 0.29721 0.0
H2834 H 0.37004 0.7401 0.31888 0.0
H2835 H 0.32577 0.75475 0.30565 0.0
H2836 H 0.32365 0.729 0.284 0.0
H2837 H 0.31946 0.76061 0.27307 0.0
H2838 H 0.3923 0.77821 0.2079 0.0
H2839 H 0.38391 0.73921 0.18418 0.0
H2840 H 0.34987 0.70665 0.25032 0.0
C2841 C 0.36516 0.79501 0.30234 0.0
C2842 C 0.37328 0.82011 0.29882 0.0
C2843 C 0.38369 0.82687 0.27534 0.0
C2844 C 0.38587 0.8094 0.25578 0.0
C2845 C 0.37747 0.78499 0.25968 0.0
C2846 C 0.36727 0.77775 0.28236 0.0
C2847 C 0.35843 0.75065 0.28108 0.0
C2848 C 0.37349 0.73427 0.29922 0.0
C2849 C 0.33015 0.74865 0.28626 0.0
C2850 C 0.36459 0.74413 0.25403 0.0
C2851 C 0.37604 0.76404 0.24215 0.0
C2852 C 0.38343 0.76247 0.21709 0.0
C2853 C 0.3787 0.74016 0.20374 0.0
C2854 C 0.3663 0.71974 0.21527 0.0
C2855 C 0.35942 0.72185 0.24088 0.0
H2856 H 0.80132 0.22756 0.82208 0.0
H2857 H 0.80534 0.20688 0.90032 0.0
H2858 H 0.77397 0.23997 0.91035 0.0
H2859 H 0.79662 0.29323 0.83129 0.0
H2860 H 0.77539 0.29792 0.80556 0.0
H2861 H 0.79741 0.27257 0.8046 0.0
H2862 H 0.76224 0.24016 0.79802 0.0
H2863 H 0.73969 0.26512 0.79796 0.0
H2864 H 0.73613 0.23937 0.81942 0.0
H2865 H 0.73945 0.27631 0.91024 0.0
H2866 H 0.70924 0.31038 0.9002 0.0
H2867 H 0.73106 0.30543 0.82221 0.0
C2868 C 0.79571 0.22977 0.84143 0.0
C2869 C 0.80574 0.21434 0.86039 0.0
C2870 C 0.79795 0.2184 0.88543 0.0
C2871 C 0.78007 0.23715 0.89125 0.0
C2872 C 0.77038 0.25187 0.87185 0.0
C2873 C 0.77828 0.24829 0.84747 0.0
C2874 C 0.76566 0.26615 0.82966 0.0
C2875 C 0.78493 0.28352 0.81707 0.0
C2876 C 0.75 0.25185 0.81012 0.0
C2877 C 0.74917 0.28047 0.84755 0.0
C2878 C 0.75181 0.2722 0.87188 0.0
C2879 C 0.73756 0.28287 0.8912 0.0
C2880 C 0.72042 0.30226 0.88537 0.0
C2881 C 0.71773 0.31086 0.86043 0.0
C2882 C 0.73253 0.29964 0.84155 0.0
H2883 H 0.70265 0.23364 0.6604 0.0
H2884 H 0.75121 0.17688 0.62867 0.0
H2885 H 0.78497 0.20821 0.62419 0.0
H2886 H 0.72684 0.28687 0.6222 0.0
H2887 H 0.72452 0.30872 0.6478 0.0
H2888 H 0.70306 0.28268 0.6458 0.0
H2889 H 0.7159 0.26858 0.69032 0.0
H2890 H 0.73734 0.29454 0.69242 0.0
H2891 H 0.74849 0.26307 0.69707 0.0
H2892 H 0.81463 0.24553 0.62494 0.0
H2893 H 0.83812 0.2846 0.63392 0.0
H2894 H 0.77139 0.31658 0.66722 0.0
C2895 C 0.72016 0.22796 0.65189 0.0
C2896 C 0.72403 0.20274 0.64449 0.0
C2897 C 0.74759 0.19604 0.63422 0.0
C2898 C 0.76694 0.21377 0.63157 0.0
C2899 C 0.76269 0.23832 0.63935 0.0
C2900 C 0.73989 0.24544 0.64938 0.0
C2901 C 0.74084 0.27259 0.65794 0.0
C2902 C 0.72273 0.28867 0.64252 0.0
C2903 C 0.73532 0.27481 0.68611 0.0
C2904 C 0.76791 0.27929 0.65201 0.0
C2905 C 0.78004 0.25947 0.6407 0.0
C2906 C 0.80522 0.26121 0.63365 0.0
C2907 C 0.81843 0.28355 0.63868 0.0
C2908 C 0.80664 0.30376 0.65113 0.0
C2909 C 0.78094 0.30154 0.65756 0.0
H2910 H 0.79858 0.21667 0.18929 0.0
H2911 H 0.81456 0.21728 0.10995 0.0
H2912 H 0.77962 0.24742 0.10344 0.0
H2913 H 0.72987 0.22163 0.18423 0.0
H2914 H 0.72787 0.24111 0.21171 0.0
H2915 H 0.75245 0.21821 0.209 0.0
H2916 H 0.7856 0.25314 0.21617 0.0
H2917 H 0.76117 0.27613 0.21864 0.0
H2918 H 0.78587 0.28014 0.19598 0.0
H2919 H 0.74422 0.28156 0.10729 0.0
H2920 H 0.71201 0.31251 0.12054 0.0
H2921 H 0.72009 0.28736 0.19716 0.0
C2922 C 0.79425 0.22259 0.17041 0.0
C2923 C 0.80893 0.21429 0.15003 0.0
C2924 C 0.80313 0.22293 0.12572 0.0
C2925 C 0.78344 0.24023 0.12194 0.0
C2926 C 0.76961 0.2485 0.14266 0.0
C2927 C 0.77467 0.23953 0.16638 0.0
C2928 C 0.75799 0.25161 0.18585 0.0
C2929 C 0.74105 0.23198 0.19844 0.0
C2930 C 0.77359 0.26611 0.20529 0.0
C2931 C 0.74294 0.26921 0.16964 0.0
C2932 C 0.74971 0.26734 0.14475 0.0
C2933 C 0.73867 0.2828 0.12673 0.0
C2934 C 0.72036 0.30038 0.13439 0.0
C2935 C 0.71323 0.3024 0.15987 0.0
C2936 C 0.72478 0.28637 0.17747 0.0
H2937 H 0.69628 0.25441 0.37768 0.0
H2938 H 0.73241 0.18275 0.36598 0.0
H2939 H 0.77378 0.20353 0.36731 0.0
H2940 H 0.73585 0.29261 0.34244 0.0
H2941 H 0.73716 0.31851 0.36407 0.0
H2942 H 0.71032 0.29806 0.36387 0.0
H2943 H 0.71638 0.28889 0.41099 0.0
H2944 H 0.74313 0.30956 0.41146 0.0
H2945 H 0.7462 0.27766 0.42188 0.0
H2946 H 0.81093 0.23214 0.36676 0.0
H2947 H 0.8421 0.26591 0.36732 0.0
H2948 H 0.78328 0.3203 0.38085 0.0
C2949 C 0.71296 0.24306 0.37598 0.0
C2950 C 0.71103 0.21679 0.37209 0.0
C2951 C 0.73332 0.20269 0.36961 0.0
C2952 C 0.75694 0.21441 0.37012 0.0
C2953 C 0.75819 0.24029 0.37371 0.0
C2954 C 0.73686 0.25443 0.37716 0.0
C2955 C 0.7437 0.28191 0.38117 0.0
C2956 C 0.73101 0.29876 0.36171 0.0
C2957 C 0.73694 0.29 0.40796 0.0
C2958 C 0.77205 0.28129 0.37767 0.0
C2959 C 0.77989 0.25692 0.37384 0.0
C2960 C 0.80502 0.25121 0.37011 0.0
C2961 C 0.82267 0.2707 0.37054 0.0
C2962 C 0.81547 0.29598 0.37447 0.0
C2963 C 0.7896 0.30127 0.37797 0.0
loop_
_geom_bond_atom_site_label_1
_geom_bond_atom_site_label_2
_geom_bond_distance
_geom_bond_site_symmetry_2
_ccdc_geom_bond_type
O0 Tb1 2.292 . S
O0 C3 1.255 . S
Tb1 O0 2.292 . S
Tb1 O17 2.326 . S
Tb1 O19 2.500 . S
Tb1 O20 2.473 . S
Tb1 O23 2.324 . S
Eu2 O6 2.292 . S
Eu2 C7 2.852 . S
Eu2 O18 2.324 . S
Eu2 O22 2.326 . S
Eu2 O24 2.500 . S
Eu2 O25 2.473 . S
C3 O0 1.255 . S
C3 O4 1.247 . S
O4 C3 1.247 . S
C5 O17 1.242 . S
C5 O18 1.258 . S
O6 Eu2 2.292 . S
O6 C8 1.255 . S
C7 Eu2 2.852 . S
C7 C11 1.503 . S
C7 O24 1.273 . S
C7 O25 1.257 . S
C8 O6 1.255 . S
C8 O9 1.247 . S
O9 C8 1.247 . S
C10 O22 1.242 . S
C10 O23 1.258 . S
C11 C7 1.503 . S
C11 C12 1.379 . S
C11 C16 1.392 . S
C12 C11 1.379 . S
C12 C13 1.404 . S
C12 H26 0.929 . S
C13 C12 1.404 . S
C13 C14 1.389 . S
C14 C13 1.389 . S
C14 C15 1.399 . S
C14 H27 0.931 . S
C15 C14 1.399 . S
C15 C16 1.390 . S
C16 C11 1.392 . S
C16 C15 1.390 . S
C16 H28 0.929 . S
O17 Tb1 2.326 . S
O17 C5 1.242 . S
O18 Eu2 2.324 . S
O18 C5 1.258 . S
O19 Tb1 2.500 . S
O19 C21 1.273 . S
O20 Tb1 2.473 . S
O20 C21 1.257 . S
C21 O19 1.273 . S
C21 O20 1.257 . S
O22 Eu2 2.326 . S
O22 C10 1.242 . S
O23 Tb1 2.324 . S
O23 C10 1.258 . S
O24 Eu2 2.500 . S
O24 C7 1.273 . S
O25 Eu2 2.473 . S
O25 C7 1.257 . S
H26 C12 0.929 . S
H27 C14 0.931 . S
H28 C16 0.929 . S
O29 Tb30 2.292 . S
O29 C32 1.255 . S
Tb30 O29 2.292 . S
Tb30 O46 2.326 . S
Tb30 O48 2.500 . S
Tb30 O49 2.473 . S
Tb30 O52 2.324 . S
Eu31 O35 2.292 . S
Eu31 C36 2.852 . S
Eu31 O47 2.324 . S
Eu31 O51 2.326 . S
Eu31 O53 2.500 . S
Eu31 O54 2.473 . S
C32 O29 1.255 . S
C32 O33 1.247 . S
O33 C32 1.247 . S
C34 O46 1.242 . S
C34 O47 1.258 . S
O35 Eu31 2.292 . S
O35 C37 1.255 . S
C36 Eu31 2.852 . S
C36 C40 1.503 . S
C36 O53 1.273 . S
C36 O54 1.257 . S
C37 O35 1.255 . S
C37 O38 1.247 . S
O38 C37 1.247 . S
C39 O51 1.242 . S
C39 O52 1.258 . S
C40 C36 1.503 . S
C40 C41 1.379 . S
C40 C45 1.392 . S
C41 C40 1.379 . S
C41 C42 1.404 . S
C41 H55 0.929 . S
C42 C41 1.404 . S
C42 C43 1.389 . S
C43 C42 1.389 . S
C43 C44 1.399 . S
C43 H56 0.931 . S
C44 C43 1.399 . S
C44 C45 1.390 . S
C45 C40 1.392 . S
C45 C44 1.390 . S
C45 H57 0.929 . S
O46 Tb30 2.326 . S
O46 C34 1.242 . S
O47 Eu31 2.324 . S
O47 C34 1.258 . S
O48 Tb30 2.500 . S
O48 C50 1.273 . S
O49 Tb30 2.473 . S
O49 C50 1.257 . S
C50 O48 1.273 . S
C50 O49 1.257 . S
O51 Eu31 2.326 . S
O51 C39 1.242 . S
O52 Tb30 2.324 . S
O52 C39 1.258 . S
O53 Eu31 2.500 . S
O53 C36 1.273 . S
O54 Eu31 2.473 . S
O54 C36 1.257 . S
H55 C41 0.929 . S
H56 C43 0.931 . S
H57 C45 0.929 . S
O58 Tb59 2.292 . S
O58 C61 1.255 . S
Tb59 O58 2.292 . S
Tb59 O75 2.326 . S
Tb59 O77 2.500 . S
Tb59 O78 2.473 . S
Tb59 O81 2.324 . S
Eu60 O64 2.292 . S
Eu60 C65 2.852 . S
Eu60 O76 2.324 . S
Eu60 O80 2.326 . S
Eu60 O82 2.500 . S
Eu60 O83 2.473 . S
C61 O58 1.255 . S
C61 O62 1.247 . S
O62 C61 1.247 . S
C63 O75 1.242 . S
C63 O76 1.258 . S
O64 Eu60 2.292 . S
O64 C66 1.255 . S
C65 Eu60 2.852 . S
C65 C69 1.503 . S
C65 O82 1.273 . S
C65 O83 1.257 . S
C66 O64 1.255 . S
C66 O67 1.247 . S
O67 C66 1.247 . S
C68 O80 1.242 . S
C68 O81 1.258 . S
C69 C65 1.503 . S
C69 C70 1.379 . S
C69 C74 1.392 . S
C70 C69 1.379 . S
C70 C71 1.404 . S
C70 H84 0.929 . S
C71 C70 1.404 . S
C71 C72 1.389 . S
C72 C71 1.389 . S
C72 C73 1.399 . S
C72 H85 0.931 . S
C73 C72 1.399 . S
C73 C74 1.390 . S
C74 C69 1.392 . S
C74 C73 1.390 . S
C74 H86 0.929 . S
O75 Tb59 2.326 . S
O75 C63 1.242 . S
O76 Eu60 2.324 . S
O76 C63 1.258 . S
O77 Tb59 2.500 . S
O77 C79 1.273 . S
O78 Tb59 2.473 . S
O78 C79 1.257 . S
C79 O77 1.273 . S
C79 O78 1.257 . S
O80 Eu60 2.326 . S
O80 C68 1.242 . S
O81 Tb59 2.324 . S
O81 C68 1.258 . S
O82 Eu60 2.500 . S
O82 C65 1.273 . S
O83 Eu60 2.473 . S
O83 C65 1.257 . S
H84 C70 0.929 . S
H85 C72 0.931 . S
H86 C74 0.929 . S
O87 Tb88 2.292 . S
O87 C90 1.255 . S
Tb88 O87 2.292 . S
Tb88 O104 2.326 . S
Tb88 O106 2.500 . S
Tb88 O107 2.473 . S
Tb88 O110 2.324 . S
Eu89 O93 2.292 . S
Eu89 C94 2.852 . S
Eu89 O105 2.324 . S
Eu89 O109 2.326 . S
Eu89 O111 2.500 . S
Eu89 O112 2.473 . S
C90 O87 1.255 . S
C90 O91 1.247 . S
O91 C90 1.247 . S
C92 O104 1.242 . S
C92 O105 1.258 . S
O93 Eu89 2.292 . S
O93 C95 1.255 . S
C94 Eu89 2.852 . S
C94 C98 1.503 . S
C94 O111 1.273 . S
C94 O112 1.257 . S
C95 O93 1.255 . S
C95 O96 1.247 . S
O96 C95 1.247 . S
C97 O109 1.242 . S
C97 O110 1.258 . S
C98 C94 1.503 . S
C98 C99 1.379 . S
C98 C103 1.392 . S
C99 C98 1.379 . S
C99 C100 1.404 . S
C99 H113 0.929 . S
C100 C99 1.404 . S
C100 C101 1.389 . S
C101 C100 1.389 . S
C101 C102 1.399 . S
C101 H114 0.931 . S
C102 C101 1.399 . S
C102 C103 1.390 . S
C103 C98 1.392 . S
C103 C102 1.390 . S
C103 H115 0.929 . S
O104 Tb88 2.326 . S
O104 C92 1.242 . S
O105 Eu89 2.324 . S
O105 C92 1.258 . S
O106 Tb88 2.500 . S
O106 C108 1.273 . S
O107 Tb88 2.473 . S
O107 C108 1.257 . S
C108 O106 1.273 . S
C108 O107 1.257 . S
O109 Eu89 2.326 . S
O109 C97 1.242 . S
O110 Tb88 2.324 . S
O110 C97 1.258 . S
O111 Eu89 2.500 . S
O111 C94 1.273 . S
O112 Eu89 2.473 . S
O112 C94 1.257 . S
H113 C99 0.929 . S
H114 C101 0.931 . S
H115 C103 0.929 . S
O116 Tb117 2.292 . S
O116 C119 1.255 . S
Tb117 O116 2.292 . S
Tb117 O133 2.326 . S
Tb117 O135 2.500 . S
Tb117 O136 2.473 . S
Tb117 O139 2.324 . S
Eu118 O122 2.292 . S
Eu118 C123 2.852 . S
Eu118 O134 2.324 . S
Eu118 O138 2.326 . S
Eu118 O140 2.500 . S
Eu118 O141 2.473 . S
C119 O116 1.255 . S
C119 O120 1.247 . S
O120 C119 1.247 . S
C121 O133 1.242 . S
C121 O134 1.258 . S
O122 Eu118 2.292 . S
O122 C124 1.255 . S
C123 Eu118 2.852 . S
C123 C127 1.503 . S
C123 O140 1.273 . S
C123 O141 1.257 . S
C124 O122 1.255 . S
C124 O125 1.247 . S
O125 C124 1.247 . S
C126 O138 1.242 . S
C126 O139 1.258 . S
C127 C123 1.503 . S
C127 C128 1.379 . S
C127 C132 1.392 . S
C128 C127 1.379 . S
C128 C129 1.404 . S
C128 H142 0.929 . S
C129 C128 1.404 . S
C129 C130 1.389 . S
C130 C129 1.389 . S
C130 C131 1.399 . S
C130 H143 0.931 . S
C131 C130 1.399 . S
C131 C132 1.390 . S
C132 C127 1.392 . S
C132 C131 1.390 . S
C132 H144 0.929 . S
O133 Tb117 2.326 . S
O133 C121 1.242 . S
O134 Eu118 2.324 . S
O134 C121 1.258 . S
O135 Tb117 2.500 . S
O135 C137 1.273 . S
O136 Tb117 2.473 . S
O136 C137 1.257 . S
C137 O135 1.273 . S
C137 O136 1.257 . S
O138 Eu118 2.326 . S
O138 C126 1.242 . S
O139 Tb117 2.324 . S
O139 C126 1.258 . S
O140 Eu118 2.500 . S
O140 C123 1.273 . S
O141 Eu118 2.473 . S
O141 C123 1.257 . S
H142 C128 0.929 . S
H143 C130 0.931 . S
H144 C132 0.929 . S
O145 Tb146 2.292 . S
O145 C148 1.255 . S
Tb146 O145 2.292 . S
Tb146 O162 2.326 . S
Tb146 O164 2.500 . S
Tb146 O165 2.473 . S
Tb146 O168 2.324 . S
Eu147 O151 2.292 . S
Eu147 C152 2.852 . S
Eu147 O163 2.324 . S
Eu147 O167 2.326 . S
Eu147 O169 2.500 . S
Eu147 O170 2.473 . S
C148 O145 1.255 . S
C148 O149 1.247 . S
O149 C148 1.247 . S
C150 O162 1.242 . S
C150 O163 1.258 . S
O151 Eu147 2.292 . S
O151 C153 1.255 . S
C152 Eu147 2.852 . S
C152 C156 1.503 . S
C152 O169 1.273 . S
C152 O170 1.257 . S
C153 O151 1.255 . S
C153 O154 1.247 . S
O154 C153 1.247 . S
C155 O167 1.242 . S
C155 O168 1.258 . S
C156 C152 1.503 . S
C156 C157 1.379 . S
C156 C161 1.392 . S
C157 C156 1.379 . S
C157 C158 1.404 . S
C157 H171 0.929 . S
C158 C157 1.404 . S
C158 C159 1.389 . S
C159 C158 1.389 . S
C159 C160 1.399 . S
C159 H172 0.931 . S
C160 C159 1.399 . S
C160 C161 1.390 . S
C161 C156 1.392 . S
C161 C160 1.390 . S
C161 H173 0.929 . S
O162 Tb146 2.326 . S
O162 C150 1.242 . S
O163 Eu147 2.324 . S
O163 C150 1.258 . S
O164 Tb146 2.500 . S
O164 C166 1.273 . S
O165 Tb146 2.473 . S
O165 C166 1.257 . S
C166 O164 1.273 . S
C166 O165 1.257 . S
O167 Eu147 2.326 . S
O167 C155 1.242 . S
O168 Tb146 2.324 . S
O168 C155 1.258 . S
O169 Eu147 2.500 . S
O169 C152 1.273 . S
O170 Eu147 2.473 . S
O170 C152 1.257 . S
H171 C157 0.929 . S
H172 C159 0.931 . S
H173 C161 0.929 . S
O174 Tb175 2.292 . S
O174 C177 1.255 . S
Tb175 O174 2.292 . S
Tb175 O191 2.326 . S
Tb175 O193 2.500 . S
Tb175 O194 2.473 . S
Tb175 O197 2.324 . S
Eu176 O180 2.292 . S
Eu176 C181 2.852 . S
Eu176 O192 2.324 . S
Eu176 O196 2.326 . S
Eu176 O198 2.500 . S
Eu176 O199 2.473 . S
C177 O174 1.255 . S
C177 O178 1.247 . S
O178 C177 1.247 . S
C179 O191 1.242 . S
C179 O192 1.258 . S
O180 Eu176 2.292 . S
O180 C182 1.255 . S
C181 Eu176 2.852 . S
C181 C185 1.503 . S
C181 O198 1.273 . S
C181 O199 1.257 . S
C182 O180 1.255 . S
C182 O183 1.247 . S
O183 C182 1.247 . S
C184 O196 1.242 . S
C184 O197 1.258 . S
C185 C181 1.503 . S
C185 C186 1.379 . S
C185 C190 1.392 . S
C186 C185 1.379 . S
C186 C187 1.404 . S
C186 H200 0.929 . S
C187 C186 1.404 . S
C187 C188 1.389 . S
C188 C187 1.389 . S
C188 C189 1.399 . S
C188 H201 0.931 . S
C189 C188 1.399 . S
C189 C190 1.390 . S
C190 C185 1.392 . S
C190 C189 1.390 . S
C190 H202 0.929 . S
O191 Tb175 2.326 . S
O191 C179 1.242 . S
O192 Eu176 2.324 . S
O192 C179 1.258 . S
O193 Tb175 2.500 . S
O193 C195 1.273 . S
O194 Tb175 2.473 . S
O194 C195 1.257 . S
C195 O193 1.273 . S
C195 O194 1.257 . S
O196 Eu176 2.326 . S
O196 C184 1.242 . S
O197 Tb175 2.324 . S
O197 C184 1.258 . S
O198 Eu176 2.500 . S
O198 C181 1.273 . S
O199 Eu176 2.473 . S
O199 C181 1.257 . S
H200 C186 0.929 . S
H201 C188 0.931 . S
H202 C190 0.929 . S
O203 Tb204 2.292 . S
O203 C206 1.255 . S
Tb204 O203 2.292 . S
Tb204 O220 2.326 . S
Tb204 O222 2.500 . S
Tb204 O223 2.473 . S
Tb204 O226 2.324 . S
Eu205 O209 2.292 . S
Eu205 C210 2.852 . S
Eu205 O221 2.324 . S
Eu205 O225 2.326 . S
Eu205 O227 2.500 . S
Eu205 O228 2.473 . S
C206 O203 1.255 . S
C206 O207 1.247 . S
O207 C206 1.247 . S
C208 O220 1.242 . S
C208 O221 1.258 . S
O209 Eu205 2.292 . S
O209 C211 1.255 . S
C210 Eu205 2.852 . S
C210 C214 1.503 . S
C210 O227 1.273 . S
C210 O228 1.257 . S
C211 O209 1.255 . S
C211 O212 1.247 . S
O212 C211 1.247 . S
C213 O225 1.242 . S
C213 O226 1.258 . S
C214 C210 1.503 . S
C214 C215 1.379 . S
C214 C219 1.392 . S
C215 C214 1.379 . S
C215 C216 1.404 . S
C215 H229 0.929 . S
C216 C215 1.404 . S
C216 C217 1.389 . S
C217 C216 1.389 . S
C217 C218 1.399 . S
C217 H230 0.931 . S
C218 C217 1.399 . S
C218 C219 1.390 . S
C219 C214 1.392 . S
C219 C218 1.390 . S
C219 H231 0.929 . S
O220 Tb204 2.326 . S
O220 C208 1.242 . S
O221 Eu205 2.324 . S
O221 C208 1.258 . S
O222 Tb204 2.500 . S
O222 C224 1.273 . S
O223 Tb204 2.473 . S
O223 C224 1.257 . S
C224 O222 1.273 . S
C224 O223 1.257 . S
O225 Eu205 2.326 . S
O225 C213 1.242 . S
O226 Tb204 2.324 . S
O226 C213 1.258 . S
O227 Eu205 2.500 . S
O227 C210 1.273 . S
O228 Eu205 2.473 . S
O228 C210 1.257 . S
H229 C215 0.929 . S
H230 C217 0.931 . S
H231 C219 0.929 . S
O232 Tb233 2.292 . S
O232 C235 1.255 . S
Tb233 O232 2.292 . S
Tb233 O249 2.326 . S
Tb233 O251 2.500 . S
Tb233 O252 2.473 . S
Tb233 O255 2.324 . S
Eu234 O238 2.292 . S
Eu234 C239 2.852 . S
Eu234 O250 2.324 . S
Eu234 O254 2.326 . S
Eu234 O256 2.500 . S
Eu234 O257 2.473 . S
C235 O232 1.255 . S
C235 O236 1.247 . S
O236 C235 1.247 . S
C237 O249 1.242 . S
C237 O250 1.258 . S
O238 Eu234 2.292 . S
O238 C240 1.255 . S
C239 Eu234 2.852 . S
C239 C243 1.503 . S
C239 O256 1.273 . S
C239 O257 1.257 . S
C240 O238 1.255 . S
C240 O241 1.247 . S
O241 C240 1.247 . S
C242 O254 1.242 . S
C242 O255 1.258 . S
C243 C239 1.503 . S
C243 C244 1.379 . S
C243 C248 1.392 . S
C244 C243 1.379 . S
C244 C245 1.404 . S
C244 H258 0.929 . S
C245 C244 1.404 . S
C245 C246 1.389 . S
C246 C245 1.389 . S
C246 C247 1.399 . S
C246 H259 0.931 . S
C247 C246 1.399 . S
C247 C248 1.390 . S
C248 C243 1.392 . S
C248 C247 1.390 . S
C248 H260 0.929 . S
O249 Tb233 2.326 . S
O249 C237 1.242 . S
O250 Eu234 2.324 . S
O250 C237 1.258 . S
O251 Tb233 2.500 . S
O251 C253 1.273 . S
O252 Tb233 2.473 . S
O252 C253 1.257 . S
C253 O251 1.273 . S
C253 O252 1.257 . S
O254 Eu234 2.326 . S
O254 C242 1.242 . S
O255 Tb233 2.324 . S
O255 C242 1.258 . S
O256 Eu234 2.500 . S
O256 C239 1.273 . S
O257 Eu234 2.473 . S
O257 C239 1.257 . S
H258 C244 0.929 . S
H259 C246 0.931 . S
H260 C248 0.929 . S
O261 Tb262 2.292 . S
O261 C264 1.255 . S
Tb262 O261 2.292 . S
Tb262 O278 2.326 . S
Tb262 O280 2.500 . S
Tb262 O281 2.473 . S
Tb262 O284 2.324 . S
Eu263 O267 2.292 . S
Eu263 C268 2.852 . S
Eu263 O279 2.324 . S
Eu263 O283 2.326 . S
Eu263 O285 2.500 . S
Eu263 O286 2.473 . S
C264 O261 1.255 . S
C264 O265 1.247 . S
O265 C264 1.247 . S
C266 O278 1.242 . S
C266 O279 1.258 . S
O267 Eu263 2.292 . S
O267 C269 1.255 . S
C268 Eu263 2.852 . S
C268 C272 1.503 . S
C268 O285 1.273 . S
C268 O286 1.257 . S
C269 O267 1.255 . S
C269 O270 1.247 . S
O270 C269 1.247 . S
C271 O283 1.242 . S
C271 O284 1.258 . S
C272 C268 1.503 . S
C272 C273 1.379 . S
C272 C277 1.392 . S
C273 C272 1.379 . S
C273 C274 1.404 . S
C273 H287 0.929 . S
C274 C273 1.404 . S
C274 C275 1.389 . S
C275 C274 1.389 . S
C275 C276 1.399 . S
C275 H288 0.931 . S
C276 C275 1.399 . S
C276 C277 1.390 . S
C277 C272 1.392 . S
C277 C276 1.390 . S
C277 H289 0.929 . S
O278 Tb262 2.326 . S
O278 C266 1.242 . S
O279 Eu263 2.324 . S
O279 C266 1.258 . S
O280 Tb262 2.500 . S
O280 C282 1.273 . S
O281 Tb262 2.473 . S
O281 C282 1.257 . S
C282 O280 1.273 . S
C282 O281 1.257 . S
O283 Eu263 2.326 . S
O283 C271 1.242 . S
O284 Tb262 2.324 . S
O284 C271 1.258 . S
O285 Eu263 2.500 . S
O285 C268 1.273 . S
O286 Eu263 2.473 . S
O286 C268 1.257 . S
H287 C273 0.929 . S
H288 C275 0.931 . S
H289 C277 0.929 . S
O290 Tb291 2.292 . S
O290 C293 1.255 . S
Tb291 O290 2.292 . S
Tb291 O307 2.326 . S
Tb291 O309 2.500 . S
Tb291 O310 2.473 . S
Tb291 O313 2.324 . S
Eu292 O296 2.292 . S
Eu292 C297 2.852 . S
Eu292 O308 2.324 . S
Eu292 O312 2.326 . S
Eu292 O314 2.500 . S
Eu292 O315 2.473 . S
C293 O290 1.255 . S
C293 O294 1.247 . S
O294 C293 1.247 . S
C295 O307 1.242 . S
C295 O308 1.258 . S
O296 Eu292 2.292 . S
O296 C298 1.255 . S
C297 Eu292 2.852 . S
C297 C301 1.503 . S
C297 O314 1.273 . S
C297 O315 1.257 . S
C298 O296 1.255 . S
C298 O299 1.247 . S
O299 C298 1.247 . S
C300 O312 1.242 . S
C300 O313 1.258 . S
C301 C297 1.503 . S
C301 C302 1.379 . S
C301 C306 1.392 . S
C302 C301 1.379 . S
C302 C303 1.404 . S
C302 H316 0.929 . S
C303 C302 1.404 . S
C303 C304 1.389 . S
C304 C303 1.389 . S
C304 C305 1.399 . S
C304 H317 0.931 . S
C305 C304 1.399 . S
C305 C306 1.390 . S
C306 C301 1.392 . S
C306 C305 1.390 . S
C306 H318 0.929 . S
O307 Tb291 2.326 . S
O307 C295 1.242 . S
O308 Eu292 2.324 . S
O308 C295 1.258 . S
O309 Tb291 2.500 . S
O309 C311 1.273 . S
O310 Tb291 2.473 . S
O310 C311 1.257 . S
C311 O309 1.273 . S
C311 O310 1.257 . S
O312 Eu292 2.326 . S
O312 C300 1.242 . S
O313 Tb291 2.324 . S
O313 C300 1.258 . S
O314 Eu292 2.500 . S
O314 C297 1.273 . S
O315 Eu292 2.473 . S
O315 C297 1.257 . S
H316 C302 0.929 . S
H317 C304 0.931 . S
H318 C306 0.929 . S
O319 Tb320 2.292 . S
O319 C322 1.255 . S
Tb320 O319 2.292 . S
Tb320 O336 2.326 . S
Tb320 O338 2.500 . S
Tb320 O339 2.473 . S
Tb320 O342 2.324 . S
Eu321 O325 2.292 . S
Eu321 C326 2.852 . S
Eu321 O337 2.324 . S
Eu321 O341 2.326 . S
Eu321 O343 2.500 . S
Eu321 O344 2.473 . S
C322 O319 1.255 . S
C322 O323 1.247 . S
O323 C322 1.247 . S
C324 O336 1.242 . S
C324 O337 1.258 . S
O325 Eu321 2.292 . S
O325 C327 1.255 . S
C326 Eu321 2.852 . S
C326 C330 1.503 . S
C326 O343 1.273 . S
C326 O344 1.257 . S
C327 O325 1.255 . S
C327 O328 1.247 . S
O328 C327 1.247 . S
C329 O341 1.242 . S
C329 O342 1.258 . S
C330 C326 1.503 . S
C330 C331 1.379 . S
C330 C335 1.392 . S
C331 C330 1.379 . S
C331 C332 1.404 . S
C331 H345 0.929 . S
C332 C331 1.404 . S
C332 C333 1.389 . S
C333 C332 1.389 . S
C333 C334 1.399 . S
C333 H346 0.931 . S
C334 C333 1.399 . S
C334 C335 1.390 . S
C335 C330 1.392 . S
C335 C334 1.390 . S
C335 H347 0.929 . S
O336 Tb320 2.326 . S
O336 C324 1.242 . S
O337 Eu321 2.324 . S
O337 C324 1.258 . S
O338 Tb320 2.500 . S
O338 C340 1.273 . S
O339 Tb320 2.473 . S
O339 C340 1.257 . S
C340 O338 1.273 . S
C340 O339 1.257 . S
O341 Eu321 2.326 . S
O341 C329 1.242 . S
O342 Tb320 2.324 . S
O342 C329 1.258 . S
O343 Eu321 2.500 . S
O343 C326 1.273 . S
O344 Eu321 2.473 . S
O344 C326 1.257 . S
H345 C331 0.929 . S
H346 C333 0.931 . S
H347 C335 0.929 . S
O348 Tb349 2.292 . S
O348 C351 1.255 . S
Tb349 O348 2.292 . S
Tb349 O365 2.326 . S
Tb349 O367 2.500 . S
Tb349 O368 2.473 . S
Tb349 O371 2.324 . S
Eu350 O354 2.292 . S
Eu350 C355 2.852 . S
Eu350 O366 2.324 . S
Eu350 O370 2.326 . S
Eu350 O372 2.500 . S
Eu350 O373 2.473 . S
C351 O348 1.255 . S
C351 O352 1.247 . S
O352 C351 1.247 . S
C353 O365 1.242 . S
C353 O366 1.258 . S
O354 Eu350 2.292 . S
O354 C356 1.255 . S
C355 Eu350 2.852 . S
C355 C359 1.503 . S
C355 O372 1.273 . S
C355 O373 1.257 . S
C356 O354 1.255 . S
C356 O357 1.247 . S
O357 C356 1.247 . S
C358 O370 1.242 . S
C358 O371 1.258 . S
C359 C355 1.503 . S
C359 C360 1.379 . S
C359 C364 1.392 . S
C360 C359 1.379 . S
C360 C361 1.404 . S
C360 H374 0.929 . S
C361 C360 1.404 . S
C361 C362 1.389 . S
C362 C361 1.389 . S
C362 C363 1.399 . S
C362 H375 0.931 . S
C363 C362 1.399 . S
C363 C364 1.390 . S
C364 C359 1.392 . S
C364 C363 1.390 . S
C364 H376 0.929 . S
O365 Tb349 2.326 . S
O365 C353 1.242 . S
O366 Eu350 2.324 . S
O366 C353 1.258 . S
O367 Tb349 2.500 . S
O367 C369 1.273 . S
O368 Tb349 2.473 . S
O368 C369 1.257 . S
C369 O367 1.273 . S
C369 O368 1.257 . S
O370 Eu350 2.326 . S
O370 C358 1.242 . S
O371 Tb349 2.324 . S
O371 C358 1.258 . S
O372 Eu350 2.500 . S
O372 C355 1.273 . S
O373 Eu350 2.473 . S
O373 C355 1.257 . S
H374 C360 0.929 . S
H375 C362 0.931 . S
H376 C364 0.929 . S
O377 Tb378 2.292 . S
O377 C380 1.255 . S
Tb378 O377 2.292 . S
Tb378 O394 2.326 . S
Tb378 O396 2.500 . S
Tb378 O397 2.473 . S
Tb378 O400 2.324 . S
Eu379 O383 2.292 . S
Eu379 C384 2.852 . S
Eu379 O395 2.324 . S
Eu379 O399 2.326 . S
Eu379 O401 2.500 . S
Eu379 O402 2.473 . S
C380 O377 1.255 . S
C380 O381 1.247 . S
O381 C380 1.247 . S
C382 O394 1.242 . S
C382 O395 1.258 . S
O383 Eu379 2.292 . S
O383 C385 1.255 . S
C384 Eu379 2.852 . S
C384 C388 1.503 . S
C384 O401 1.273 . S
C384 O402 1.257 . S
C385 O383 1.255 . S
C385 O386 1.247 . S
O386 C385 1.247 . S
C387 O399 1.242 . S
C387 O400 1.258 . S
C388 C384 1.503 . S
C388 C389 1.379 . S
C388 C393 1.392 . S
C389 C388 1.379 . S
C389 C390 1.404 . S
C389 H403 0.929 . S
C390 C389 1.404 . S
C390 C391 1.389 . S
C391 C390 1.389 . S
C391 C392 1.399 . S
C391 H404 0.931 . S
C392 C391 1.399 . S
C392 C393 1.390 . S
C393 C388 1.392 . S
C393 C392 1.390 . S
C393 H405 0.929 . S
O394 Tb378 2.326 . S
O394 C382 1.242 . S
O395 Eu379 2.324 . S
O395 C382 1.258 . S
O396 Tb378 2.500 . S
O396 C398 1.273 . S
O397 Tb378 2.473 . S
O397 C398 1.257 . S
C398 O396 1.273 . S
C398 O397 1.257 . S
O399 Eu379 2.326 . S
O399 C387 1.242 . S
O400 Tb378 2.324 . S
O400 C387 1.258 . S
O401 Eu379 2.500 . S
O401 C384 1.273 . S
O402 Eu379 2.473 . S
O402 C384 1.257 . S
H403 C389 0.929 . S
H404 C391 0.931 . S
H405 C393 0.929 . S
O406 Tb407 2.292 . S
O406 C409 1.255 . S
Tb407 O406 2.292 . S
Tb407 O423 2.326 . S
Tb407 O425 2.500 . S
Tb407 O426 2.473 . S
Tb407 O429 2.324 . S
Eu408 O412 2.292 . S
Eu408 C413 2.852 . S
Eu408 O424 2.324 . S
Eu408 O428 2.326 . S
Eu408 O430 2.500 . S
Eu408 O431 2.473 . S
C409 O406 1.255 . S
C409 O410 1.247 . S
O410 C409 1.247 . S
C411 O423 1.242 . S
C411 O424 1.258 . S
O412 Eu408 2.292 . S
O412 C414 1.255 . S
C413 Eu408 2.852 . S
C413 C417 1.503 . S
C413 O430 1.273 . S
C413 O431 1.257 . S
C414 O412 1.255 . S
C414 O415 1.247 . S
O415 C414 1.247 . S
C416 O428 1.242 . S
C416 O429 1.258 . S
C417 C413 1.503 . S
C417 C418 1.379 . S
C417 C422 1.392 . S
C418 C417 1.379 . S
C418 C419 1.404 . S
C418 H432 0.929 . S
C419 C418 1.404 . S
C419 C420 1.389 . S
C420 C419 1.389 . S
C420 C421 1.399 . S
C420 H433 0.931 . S
C421 C420 1.399 . S
C421 C422 1.390 . S
C422 C417 1.392 . S
C422 C421 1.390 . S
C422 H434 0.929 . S
O423 Tb407 2.326 . S
O423 C411 1.242 . S
O424 Eu408 2.324 . S
O424 C411 1.258 . S
O425 Tb407 2.500 . S
O425 C427 1.273 . S
O426 Tb407 2.473 . S
O426 C427 1.257 . S
C427 O425 1.273 . S
C427 O426 1.257 . S
O428 Eu408 2.326 . S
O428 C416 1.242 . S
O429 Tb407 2.324 . S
O429 C416 1.258 . S
O430 Eu408 2.500 . S
O430 C413 1.273 . S
O431 Eu408 2.473 . S
O431 C413 1.257 . S
H432 C418 0.929 . S
H433 C420 0.931 . S
H434 C422 0.929 . S
O435 Tb436 2.292 . S
O435 C438 1.255 . S
Tb436 O435 2.292 . S
Tb436 O452 2.326 . S
Tb436 O454 2.500 . S
Tb436 O455 2.473 . S
Tb436 O458 2.324 . S
Eu437 O441 2.292 . S
Eu437 C442 2.852 . S
Eu437 O453 2.324 . S
Eu437 O457 2.326 . S
Eu437 O459 2.500 . S
Eu437 O460 2.473 . S
C438 O435 1.255 . S
C438 O439 1.247 . S
O439 C438 1.247 . S
C440 O452 1.242 . S
C440 O453 1.258 . S
O441 Eu437 2.292 . S
O441 C443 1.255 . S
C442 Eu437 2.852 . S
C442 C446 1.503 . S
C442 O459 1.273 . S
C442 O460 1.257 . S
C443 O441 1.255 . S
C443 O444 1.247 . S
O444 C443 1.247 . S
C445 O457 1.242 . S
C445 O458 1.258 . S
C446 C442 1.503 . S
C446 C447 1.379 . S
C446 C451 1.392 . S
C447 C446 1.379 . S
C447 C448 1.404 . S
C447 H461 0.929 . S
C448 C447 1.404 . S
C448 C449 1.389 . S
C449 C448 1.389 . S
C449 C450 1.399 . S
C449 H462 0.931 . S
C450 C449 1.399 . S
C450 C451 1.390 . S
C451 C446 1.392 . S
C451 C450 1.390 . S
C451 H463 0.929 . S
O452 Tb436 2.326 . S
O452 C440 1.242 . S
O453 Eu437 2.324 . S
O453 C440 1.258 . S
O454 Tb436 2.500 . S
O454 C456 1.273 . S
O455 Tb436 2.473 . S
O455 C456 1.257 . S
C456 O454 1.273 . S
C456 O455 1.257 . S
O457 Eu437 2.326 . S
O457 C445 1.242 . S
O458 Tb436 2.324 . S
O458 C445 1.258 . S
O459 Eu437 2.500 . S
O459 C442 1.273 . S
O460 Eu437 2.473 . S
O460 C442 1.257 . S
H461 C447 0.929 . S
H462 C449 0.931 . S
H463 C451 0.929 . S
O464 Tb465 2.292 . S
O464 C467 1.255 . S
Tb465 O464 2.292 . S
Tb465 O481 2.326 . S
Tb465 O483 2.500 . S
Tb465 O484 2.473 . S
Tb465 O487 2.324 . S
Eu466 O470 2.292 . S
Eu466 C471 2.852 . S
Eu466 O482 2.324 . S
Eu466 O486 2.326 . S
Eu466 O488 2.500 . S
Eu466 O489 2.473 . S
C467 O464 1.255 . S
C467 O468 1.247 . S
O468 C467 1.247 . S
C469 O481 1.242 . S
C469 O482 1.258 . S
O470 Eu466 2.292 . S
O470 C472 1.255 . S
C471 Eu466 2.852 . S
C471 C475 1.503 . S
C471 O488 1.273 . S
C471 O489 1.257 . S
C472 O470 1.255 . S
C472 O473 1.247 . S
O473 C472 1.247 . S
C474 O486 1.242 . S
C474 O487 1.258 . S
C475 C471 1.503 . S
C475 C476 1.379 . S
C475 C480 1.392 . S
C476 C475 1.379 . S
C476 C477 1.404 . S
C476 H490 0.929 . S
C477 C476 1.404 . S
C477 C478 1.389 . S
C478 C477 1.389 . S
C478 C479 1.399 . S
C478 H491 0.931 . S
C479 C478 1.399 . S
C479 C480 1.390 . S
C480 C475 1.392 . S
C480 C479 1.390 . S
C480 H492 0.929 . S
O481 Tb465 2.326 . S
O481 C469 1.242 . S
O482 Eu466 2.324 . S
O482 C469 1.258 . S
O483 Tb465 2.500 . S
O483 C485 1.273 . S
O484 Tb465 2.473 . S
O484 C485 1.257 . S
C485 O483 1.273 . S
C485 O484 1.257 . S
O486 Eu466 2.326 . S
O486 C474 1.242 . S
O487 Tb465 2.324 . S
O487 C474 1.258 . S
O488 Eu466 2.500 . S
O488 C471 1.273 . S
O489 Eu466 2.473 . S
O489 C471 1.257 . S
H490 C476 0.929 . S
H491 C478 0.931 . S
H492 C480 0.929 . S
O493 Tb494 2.292 . S
O493 C496 1.255 . S
Tb494 O493 2.292 . S
Tb494 O510 2.326 . S
Tb494 O512 2.500 . S
Tb494 O513 2.473 . S
Tb494 O516 2.324 . S
Eu495 O499 2.292 . S
Eu495 C500 2.852 . S
Eu495 O511 2.324 . S
Eu495 O515 2.326 . S
Eu495 O517 2.500 . S
Eu495 O518 2.473 . S
C496 O493 1.255 . S
C496 O497 1.247 . S
O497 C496 1.247 . S
C498 O510 1.242 . S
C498 O511 1.258 . S
O499 Eu495 2.292 . S
O499 C501 1.255 . S
C500 Eu495 2.852 . S
C500 C504 1.503 . S
C500 O517 1.273 . S
C500 O518 1.257 . S
C501 O499 1.255 . S
C501 O502 1.247 . S
O502 C501 1.247 . S
C503 O515 1.242 . S
C503 O516 1.258 . S
C504 C500 1.503 . S
C504 C505 1.379 . S
C504 C509 1.392 . S
C505 C504 1.379 . S
C505 C506 1.404 . S
C505 H519 0.929 . S
C506 C505 1.404 . S
C506 C507 1.389 . S
C507 C506 1.389 . S
C507 C508 1.399 . S
C507 H520 0.931 . S
C508 C507 1.399 . S
C508 C509 1.390 . S
C509 C504 1.392 . S
C509 C508 1.390 . S
C509 H521 0.929 . S
O510 Tb494 2.326 . S
O510 C498 1.242 . S
O511 Eu495 2.324 . S
O511 C498 1.258 . S
O512 Tb494 2.500 . S
O512 C514 1.273 . S
O513 Tb494 2.473 . S
O513 C514 1.257 . S
C514 O512 1.273 . S
C514 O513 1.257 . S
O515 Eu495 2.326 . S
O515 C503 1.242 . S
O516 Tb494 2.324 . S
O516 C503 1.258 . S
O517 Eu495 2.500 . S
O517 C500 1.273 . S
O518 Eu495 2.473 . S
O518 C500 1.257 . S
H519 C505 0.929 . S
H520 C507 0.931 . S
H521 C509 0.929 . S
O522 Tb523 2.292 . S
O522 C525 1.255 . S
Tb523 O522 2.292 . S
Tb523 O539 2.326 . S
Tb523 O541 2.500 . S
Tb523 O542 2.473 . S
Tb523 O545 2.324 . S
Eu524 O528 2.292 . S
Eu524 C529 2.852 . S
Eu524 O540 2.324 . S
Eu524 O544 2.326 . S
Eu524 O546 2.500 . S
Eu524 O547 2.473 . S
C525 O522 1.255 . S
C525 O526 1.247 . S
O526 C525 1.247 . S
C527 O539 1.242 . S
C527 O540 1.258 . S
O528 Eu524 2.292 . S
O528 C530 1.255 . S
C529 Eu524 2.852 . S
C529 C533 1.503 . S
C529 O546 1.273 . S
C529 O547 1.257 . S
C530 O528 1.255 . S
C530 O531 1.247 . S
O531 C530 1.247 . S
C532 O544 1.242 . S
C532 O545 1.258 . S
C533 C529 1.503 . S
C533 C534 1.379 . S
C533 C538 1.392 . S
C534 C533 1.379 . S
C534 C535 1.404 . S
C534 H548 0.929 . S
C535 C534 1.404 . S
C535 C536 1.389 . S
C536 C535 1.389 . S
C536 C537 1.399 . S
C536 H549 0.931 . S
C537 C536 1.399 . S
C537 C538 1.390 . S
C538 C533 1.392 . S
C538 C537 1.390 . S
C538 H550 0.929 . S
O539 Tb523 2.326 . S
O539 C527 1.242 . S
O540 Eu524 2.324 . S
O540 C527 1.258 . S
O541 Tb523 2.500 . S
O541 C543 1.273 . S
O542 Tb523 2.473 . S
O542 C543 1.257 . S
C543 O541 1.273 . S
C543 O542 1.257 . S
O544 Eu524 2.326 . S
O544 C532 1.242 . S
O545 Tb523 2.324 . S
O545 C532 1.258 . S
O546 Eu524 2.500 . S
O546 C529 1.273 . S
O547 Eu524 2.473 . S
O547 C529 1.257 . S
H548 C534 0.929 . S
H549 C536 0.931 . S
H550 C538 0.929 . S
O551 Tb552 2.292 . S
O551 C554 1.255 . S
Tb552 O551 2.292 . S
Tb552 O568 2.326 . S
Tb552 O570 2.500 . S
Tb552 O571 2.473 . S
Tb552 O574 2.324 . S
Eu553 O557 2.292 . S
Eu553 C558 2.852 . S
Eu553 O569 2.324 . S
Eu553 O573 2.326 . S
Eu553 O575 2.500 . S
Eu553 O576 2.473 . S
C554 O551 1.255 . S
C554 O555 1.247 . S
O555 C554 1.247 . S
C556 O568 1.242 . S
C556 O569 1.258 . S
O557 Eu553 2.292 . S
O557 C559 1.255 . S
C558 Eu553 2.852 . S
C558 C562 1.503 . S
C558 O575 1.273 . S
C558 O576 1.257 . S
C559 O557 1.255 . S
C559 O560 1.247 . S
O560 C559 1.247 . S
C561 O573 1.242 . S
C561 O574 1.258 . S
C562 C558 1.503 . S
C562 C563 1.379 . S
C562 C567 1.392 . S
C563 C562 1.379 . S
C563 C564 1.404 . S
C563 H577 0.929 . S
C564 C563 1.404 . S
C564 C565 1.389 . S
C565 C564 1.389 . S
C565 C566 1.399 . S
C565 H578 0.931 . S
C566 C565 1.399 . S
C566 C567 1.390 . S
C567 C562 1.392 . S
C567 C566 1.390 . S
C567 H579 0.929 . S
O568 Tb552 2.326 . S
O568 C556 1.242 . S
O569 Eu553 2.324 . S
O569 C556 1.258 . S
O570 Tb552 2.500 . S
O570 C572 1.273 . S
O571 Tb552 2.473 . S
O571 C572 1.257 . S
C572 O570 1.273 . S
C572 O571 1.257 . S
O573 Eu553 2.326 . S
O573 C561 1.242 . S
O574 Tb552 2.324 . S
O574 C561 1.258 . S
O575 Eu553 2.500 . S
O575 C558 1.273 . S
O576 Eu553 2.473 . S
O576 C558 1.257 . S
H577 C563 0.929 . S
H578 C565 0.931 . S
H579 C567 0.929 . S
O580 Tb581 2.292 . S
O580 C583 1.255 . S
Tb581 O580 2.292 . S
Tb581 O597 2.326 . S
Tb581 O599 2.500 . S
Tb581 O600 2.473 . S
Tb581 O603 2.324 . S
Eu582 O586 2.292 . S
Eu582 C587 2.852 . S
Eu582 O598 2.324 . S
Eu582 O602 2.326 . S
Eu582 O604 2.500 . S
Eu582 O605 2.473 . S
C583 O580 1.255 . S
C583 O584 1.247 . S
O584 C583 1.247 . S
C585 O597 1.242 . S
C585 O598 1.258 . S
O586 Eu582 2.292 . S
O586 C588 1.255 . S
C587 Eu582 2.852 . S
C587 C591 1.503 . S
C587 O604 1.273 . S
C587 O605 1.257 . S
C588 O586 1.255 . S
C588 O589 1.247 . S
O589 C588 1.247 . S
C590 O602 1.242 . S
C590 O603 1.258 . S
C591 C587 1.503 . S
C591 C592 1.379 . S
C591 C596 1.392 . S
C592 C591 1.379 . S
C592 C593 1.404 . S
C592 H606 0.929 . S
C593 C592 1.404 . S
C593 C594 1.389 . S
C594 C593 1.389 . S
C594 C595 1.399 . S
C594 H607 0.931 . S
C595 C594 1.399 . S
C595 C596 1.390 . S
C596 C591 1.392 . S
C596 C595 1.390 . S
C596 H608 0.929 . S
O597 Tb581 2.326 . S
O597 C585 1.242 . S
O598 Eu582 2.324 . S
O598 C585 1.258 . S
O599 Tb581 2.500 . S
O599 C601 1.273 . S
O600 Tb581 2.473 . S
O600 C601 1.257 . S
C601 O599 1.273 . S
C601 O600 1.257 . S
O602 Eu582 2.326 . S
O602 C590 1.242 . S
O603 Tb581 2.324 . S
O603 C590 1.258 . S
O604 Eu582 2.500 . S
O604 C587 1.273 . S
O605 Eu582 2.473 . S
O605 C587 1.257 . S
H606 C592 0.929 . S
H607 C594 0.931 . S
H608 C596 0.929 . S
O609 Tb610 2.292 . S
O609 C612 1.255 . S
Tb610 O609 2.292 . S
Tb610 O626 2.326 . S
Tb610 O628 2.500 . S
Tb610 O629 2.473 . S
Tb610 O632 2.324 . S
Eu611 O615 2.292 . S
Eu611 C616 2.852 . S
Eu611 O627 2.324 . S
Eu611 O631 2.326 . S
Eu611 O633 2.500 . S
Eu611 O634 2.473 . S
C612 O609 1.255 . S
C612 O613 1.247 . S
O613 C612 1.247 . S
C614 O626 1.242 . S
C614 O627 1.258 . S
O615 Eu611 2.292 . S
O615 C617 1.255 . S
C616 Eu611 2.852 . S
C616 C620 1.503 . S
C616 O633 1.273 . S
C616 O634 1.257 . S
C617 O615 1.255 . S
C617 O618 1.247 . S
O618 C617 1.247 . S
C619 O631 1.242 . S
C619 O632 1.258 . S
C620 C616 1.503 . S
C620 C621 1.379 . S
C620 C625 1.392 . S
C621 C620 1.379 . S
C621 C622 1.404 . S
C621 H635 0.929 . S
C622 C621 1.404 . S
C622 C623 1.389 . S
C623 C622 1.389 . S
C623 C624 1.399 . S
C623 H636 0.931 . S
C624 C623 1.399 . S
C624 C625 1.390 . S
C625 C620 1.392 . S
C625 C624 1.390 . S
C625 H637 0.929 . S
O626 Tb610 2.326 . S
O626 C614 1.242 . S
O627 Eu611 2.324 . S
O627 C614 1.258 . S
O628 Tb610 2.500 . S
O628 C630 1.273 . S
O629 Tb610 2.473 . S
O629 C630 1.257 . S
C630 O628 1.273 . S
C630 O629 1.257 . S
O631 Eu611 2.326 . S
O631 C619 1.242 . S
O632 Tb610 2.324 . S
O632 C619 1.258 . S
O633 Eu611 2.500 . S
O633 C616 1.273 . S
O634 Eu611 2.473 . S
O634 C616 1.257 . S
H635 C621 0.929 . S
H636 C623 0.931 . S
H637 C625 0.929 . S
O638 Tb639 2.292 . S
O638 C641 1.255 . S
Tb639 O638 2.292 . S
Tb639 O655 2.326 . S
Tb639 O657 2.500 . S
Tb639 O658 2.473 . S
Tb639 O661 2.324 . S
Eu640 O644 2.292 . S
Eu640 C645 2.852 . S
Eu640 O656 2.324 . S
Eu640 O660 2.326 . S
Eu640 O662 2.500 . S
Eu640 O663 2.473 . S
C641 O638 1.255 . S
C641 O642 1.247 . S
O642 C641 1.247 . S
C643 O655 1.242 . S
C643 O656 1.258 . S
O644 Eu640 2.292 . S
O644 C646 1.255 . S
C645 Eu640 2.852 . S
C645 C649 1.503 . S
C645 O662 1.273 . S
C645 O663 1.257 . S
C646 O644 1.255 . S
C646 O647 1.247 . S
O647 C646 1.247 . S
C648 O660 1.242 . S
C648 O661 1.258 . S
C649 C645 1.503 . S
C649 C650 1.379 . S
C649 C654 1.392 . S
C650 C649 1.379 . S
C650 C651 1.404 . S
C650 H664 0.929 . S
C651 C650 1.404 . S
C651 C652 1.389 . S
C652 C651 1.389 . S
C652 C653 1.399 . S
C652 H665 0.931 . S
C653 C652 1.399 . S
C653 C654 1.390 . S
C654 C649 1.392 . S
C654 C653 1.390 . S
C654 H666 0.929 . S
O655 Tb639 2.326 . S
O655 C643 1.242 . S
O656 Eu640 2.324 . S
O656 C643 1.258 . S
O657 Tb639 2.500 . S
O657 C659 1.273 . S
O658 Tb639 2.473 . S
O658 C659 1.257 . S
C659 O657 1.273 . S
C659 O658 1.257 . S
O660 Eu640 2.326 . S
O660 C648 1.242 . S
O661 Tb639 2.324 . S
O661 C648 1.258 . S
O662 Eu640 2.500 . S
O662 C645 1.273 . S
O663 Eu640 2.473 . S
O663 C645 1.257 . S
H664 C650 0.929 . S
H665 C652 0.931 . S
H666 C654 0.929 . S
O667 Tb668 2.292 . S
O667 C670 1.255 . S
Tb668 O667 2.292 . S
Tb668 O684 2.326 . S
Tb668 O686 2.500 . S
Tb668 O687 2.473 . S
Tb668 O690 2.324 . S
Eu669 O673 2.292 . S
Eu669 C674 2.852 . S
Eu669 O685 2.324 . S
Eu669 O689 2.326 . S
Eu669 O691 2.500 . S
Eu669 O692 2.473 . S
C670 O667 1.255 . S
C670 O671 1.247 . S
O671 C670 1.247 . S
C672 O684 1.242 . S
C672 O685 1.258 . S
O673 Eu669 2.292 . S
O673 C675 1.255 . S
C674 Eu669 2.852 . S
C674 C678 1.503 . S
C674 O691 1.273 . S
C674 O692 1.257 . S
C675 O673 1.255 . S
C675 O676 1.247 . S
O676 C675 1.247 . S
C677 O689 1.242 . S
C677 O690 1.258 . S
C678 C674 1.503 . S
C678 C679 1.379 . S
C678 C683 1.392 . S
C679 C678 1.379 . S
C679 C680 1.404 . S
C679 H693 0.929 . S
C680 C679 1.404 . S
C680 C681 1.389 . S
C681 C680 1.389 . S
C681 C682 1.399 . S
C681 H694 0.931 . S
C682 C681 1.399 . S
C682 C683 1.390 . S
C683 C678 1.392 . S
C683 C682 1.390 . S
C683 H695 0.929 . S
O684 Tb668 2.326 . S
O684 C672 1.242 . S
O685 Eu669 2.324 . S
O685 C672 1.258 . S
O686 Tb668 2.500 . S
O686 C688 1.273 . S
O687 Tb668 2.473 . S
O687 C688 1.257 . S
C688 O686 1.273 . S
C688 O687 1.257 . S
O689 Eu669 2.326 . S
O689 C677 1.242 . S
O690 Tb668 2.324 . S
O690 C677 1.258 . S
O691 Eu669 2.500 . S
O691 C674 1.273 . S
O692 Eu669 2.473 . S
O692 C674 1.257 . S
H693 C679 0.929 . S
H694 C681 0.931 . S
H695 C683 0.929 . S
H696 C708 0.930 . S
H697 C710 0.930 . S
H698 C711 0.930 . S
H699 C715 0.959 . S
H700 C715 0.959 . S
H701 C715 0.961 . S
H702 C716 0.960 . S
H703 C716 0.961 . S
H704 C716 0.959 . S
H705 C719 0.929 . S
H706 C720 0.931 . S
H707 C722 0.930 . S
C708 H696 0.930 . S
C708 C709 1.399 . S
C708 C713 1.399 . S
C709 C708 1.399 . S
C709 C710 1.376 . S
C710 H697 0.930 . S
C710 C709 1.376 . S
C710 C711 1.388 . S
C711 H698 0.930 . S
C711 C710 1.388 . S
C711 C712 1.390 . S
C712 C711 1.390 . S
C712 C713 1.394 . S
C712 C718 1.465 . S
C713 C708 1.399 . S
C713 C712 1.394 . S
C713 C714 1.516 . S
C714 C713 1.516 . S
C714 C715 1.502 . S
C714 C716 1.561 . S
C714 C717 1.526 . S
C715 H699 0.959 . S
C715 H700 0.959 . S
C715 H701 0.961 . S
C715 C714 1.502 . S
C716 H702 0.960 . S
C716 H703 0.961 . S
C716 H704 0.959 . S
C716 C714 1.561 . S
C717 C714 1.526 . S
C717 C718 1.396 . S
C717 C722 1.390 . S
C718 C712 1.465 . S
C718 C717 1.396 . S
C718 C719 1.399 . S
C719 H705 0.929 . S
C719 C718 1.399 . S
C719 C720 1.385 . S
C720 H706 0.931 . S
C720 C719 1.385 . S
C720 C721 1.389 . S
C721 C720 1.389 . S
C721 C722 1.387 . S
C722 H707 0.930 . S
C722 C717 1.390 . S
C722 C721 1.387 . S
H723 C735 0.930 . S
H724 C737 0.930 . S
H725 C738 0.930 1_554 S
H726 C742 0.959 . S
H727 C742 0.959 . S
H728 C742 0.961 . S
H729 C743 0.960 . S
H730 C743 0.961 . S
H731 C743 0.959 . S
H732 C746 0.929 . S
H733 C747 0.931 . S
H734 C749 0.930 . S
C735 H723 0.930 . S
C735 C736 1.399 . S
C735 C740 1.399 . S
C736 C735 1.399 . S
C736 C737 1.376 . S
C737 H724 0.930 . S
C737 C736 1.376 . S
C737 C738 1.388 . S
C738 H725 0.930 1_556 S
C738 C737 1.388 . S
C738 C739 1.390 . S
C739 C738 1.390 . S
C739 C740 1.394 . S
C739 C745 1.465 1_556 S
C740 C735 1.399 . S
C740 C739 1.394 . S
C740 C741 1.516 . S
C741 C740 1.516 . S
C741 C742 1.502 . S
C741 C743 1.561 . S
C741 C744 1.526 1_556 S
C742 H726 0.959 . S
C742 H727 0.959 . S
C742 H728 0.961 . S
C742 C741 1.502 . S
C743 H729 0.960 . S
C743 H730 0.961 . S
C743 H731 0.959 . S
C743 C741 1.561 . S
C744 C741 1.526 1_554 S
C744 C745 1.396 . S
C744 C749 1.390 . S
C745 C739 1.465 1_554 S
C745 C744 1.396 . S
C745 C746 1.399 . S
C746 H732 0.929 . S
C746 C745 1.399 . S
C746 C747 1.385 . S
C747 H733 0.931 . S
C747 C746 1.385 . S
C747 C748 1.389 . S
C748 C747 1.389 . S
C748 C749 1.387 . S
C749 H734 0.930 . S
C749 C744 1.390 . S
C749 C748 1.387 . S
H750 C762 0.938 . S
H751 C764 0.930 . S
H752 C765 0.930 . S
H753 C769 0.959 . S
H754 C769 0.959 . S
H755 C769 0.961 . S
H756 C770 0.960 . S
H757 C770 0.961 . S
H758 C770 0.959 . S
H759 C773 0.929 . S
H760 C774 0.931 . S
H761 C776 0.930 . S
C762 H750 0.938 . S
C762 C763 1.379 1_565 S
C762 C767 1.412 . S
C763 C762 1.379 1_545 S
C763 C764 1.376 . S
C764 H751 0.930 . S
C764 C763 1.376 . S
C764 C765 1.388 . S
C765 H752 0.930 . S
C765 C764 1.388 . S
C765 C766 1.390 1_545 S
C766 C765 1.390 1_565 S
C766 C767 1.394 . S
C766 C772 1.465 . S
C767 C762 1.412 . S
C767 C766 1.394 . S
C767 C768 1.516 . S
C768 C767 1.516 . S
C768 C769 1.502 . S
C768 C770 1.561 . S
C768 C771 1.526 . S
C769 H753 0.959 . S
C769 H754 0.959 . S
C769 H755 0.961 . S
C769 C768 1.502 . S
C770 H756 0.960 . S
C770 H757 0.961 . S
C770 H758 0.959 . S
C770 C768 1.561 . S
C771 C768 1.526 . S
C771 C772 1.396 . S
C771 C776 1.390 . S
C772 C766 1.465 . S
C772 C771 1.396 . S
C772 C773 1.399 . S
C773 H759 0.929 . S
C773 C772 1.399 . S
C773 C774 1.385 . S
C774 H760 0.931 . S
C774 C773 1.385 . S
C774 C775 1.389 . S
C775 C774 1.389 . S
C775 C776 1.387 . S
C776 H761 0.930 . S
C776 C771 1.390 . S
C776 C775 1.387 . S
H777 C789 0.930 . S
H778 C791 0.930 . S
H779 C792 0.930 . S
H780 C796 0.959 1_556 S
H781 C796 0.959 . S
H782 C796 0.961 1_456 S
H783 C797 0.960 . S
H784 C797 0.961 . S
H785 C797 0.959 . S
H786 C800 0.929 . S
H787 C801 0.931 . S
H788 C803 0.930 . S
C789 H777 0.930 . S
C789 C790 1.399 . S
C789 C794 1.399 . S
C790 C789 1.399 . S
C790 C791 1.376 . S
C791 H778 0.930 . S
C791 C790 1.376 . S
C791 C792 1.388 . S
C792 H779 0.930 . S
C792 C791 1.388 . S
C792 C793 1.390 . S
C793 C792 1.390 . S
C793 C794 1.394 . S
C793 C799 1.465 1_556 S
C794 C789 1.399 . S
C794 C793 1.394 . S
C794 C795 1.516 1_556 S
C795 C794 1.516 1_554 S
C795 C796 1.502 1_455 S
C795 C797 1.561 . S
C795 C798 1.526 . S
C796 H780 0.959 1_554 S
C796 H781 0.959 . S
C796 H782 0.961 1_654 S
C796 C795 1.502 1_655 S
C797 H783 0.960 . S
C797 H784 0.961 . S
C797 H785 0.959 . S
C797 C795 1.561 . S
C798 C795 1.526 . S
C798 C799 1.396 . S
C798 C803 1.390 1_455 S
C799 C793 1.465 1_554 S
C799 C798 1.396 . S
C799 C800 1.399 . S
C800 H786 0.929 . S
C800 C799 1.399 . S
C800 C801 1.385 1_455 S
C801 H787 0.931 . S
C801 C800 1.385 1_655 S
C801 C802 1.389 . S
C802 C801 1.389 . S
C802 C803 1.387 . S
C803 H788 0.930 . S
C803 C798 1.390 1_655 S
C803 C802 1.387 . S
H804 C816 0.930 . S
H805 C818 0.930 . S
H806 C819 0.930 1_545 S
H807 C823 0.959 . S
H808 C823 0.959 . S
H809 C823 0.961 . S
H810 C824 0.960 . S
H811 C824 0.961 . S
H812 C824 0.959 . S
H813 C827 0.929 1_554 S
H814 C828 0.931 . S
H815 C830 0.930 . S
C816 H804 0.930 . S
C816 C817 1.399 . S
C816 C821 1.399 . S
C817 C816 1.399 . S
C817 C818 1.376 . S
C818 H805 0.930 . S
C818 C817 1.376 . S
C818 C819 1.388 . S
C819 H806 0.930 1_565 S
C819 C818 1.388 . S
C819 C820 1.390 . S
C820 C819 1.390 . S
C820 C821 1.394 . S
C820 C826 1.465 1_554 S
C821 C816 1.399 . S
C821 C820 1.394 . S
C821 C822 1.516 1_554 S
C822 C821 1.516 1_556 S
C822 C823 1.502 . S
C822 C824 1.561 . S
C822 C825 1.526 . S
C823 H807 0.959 . S
C823 H808 0.959 . S
C823 H809 0.961 . S
C823 C822 1.502 . S
C824 H810 0.960 . S
C824 H811 0.961 . S
C824 H812 0.959 . S
C824 C822 1.561 . S
C825 C822 1.526 . S
C825 C826 1.396 . S
C825 C830 1.390 . S
C826 C820 1.465 1_556 S
C826 C825 1.396 . S
C826 C827 1.399 1_565 S
C827 H813 0.929 1_556 S
C827 C826 1.399 1_545 S
C827 C828 1.385 . S
C828 H814 0.931 . S
C828 C827 1.385 . S
C828 C829 1.389 . S
C829 C828 1.389 . S
C829 C830 1.387 1_545 S
C830 H815 0.930 . S
C830 C825 1.390 . S
C830 C829 1.387 1_565 S
H831 C843 0.929 1_455 S
H832 C845 0.930 . S
H833 C846 0.930 . S
H834 C850 0.959 . S
H835 C850 0.959 . S
H836 C850 0.961 . S
H837 C851 0.960 . S
H838 C851 0.961 . S
H839 C851 0.959 . S
H840 C854 0.929 . S
H841 C855 0.931 . S
H842 C857 0.930 . S
C843 H831 0.929 1_655 S
C843 C844 1.400 . S
C843 C848 1.399 1_655 S
C844 C843 1.400 . S
C844 C845 1.376 . S
C845 H832 0.930 . S
C845 C844 1.376 . S
C845 C846 1.388 . S
C846 H833 0.930 . S
C846 C845 1.388 . S
C846 C847 1.371 1_655 S
C847 C846 1.371 1_455 S
C847 C848 1.403 . S
C847 C853 1.479 . S
C848 C843 1.399 1_455 S
C848 C847 1.403 . S
C848 C849 1.516 . S
C849 C848 1.516 . S
C849 C850 1.502 . S
C849 C851 1.561 . S
C849 C852 1.526 . S
C850 H834 0.959 . S
C850 H835 0.959 . S
C850 H836 0.961 . S
C850 C849 1.502 . S
C851 H837 0.960 . S
C851 H838 0.961 . S
C851 H839 0.959 . S
C851 C849 1.561 . S
C852 C849 1.526 . S
C852 C853 1.396 . S
C852 C857 1.390 . S
C853 C847 1.479 . S
C853 C852 1.396 . S
C853 C854 1.399 . S
C854 H840 0.929 . S
C854 C853 1.399 . S
C854 C855 1.385 . S
C855 H841 0.931 . S
C855 C854 1.385 . S
C855 C856 1.389 . S
C856 C855 1.389 . S
C856 C857 1.387 . S
C857 H842 0.930 . S
C857 C852 1.390 . S
C857 C856 1.387 . S
H858 C870 0.930 . S
H859 C872 0.930 . S
H860 C873 0.930 . S
H861 C877 0.959 . S
H862 C877 0.959 . S
H863 C877 0.961 . S
H864 C878 0.960 . S
H865 C878 0.961 . S
H866 C878 0.959 . S
H867 C881 0.929 . S
H868 C882 0.931 . S
H869 C884 0.930 . S
C870 H858 0.930 . S
C870 C871 1.399 . S
C870 C875 1.399 . S
C871 C870 1.399 . S
C871 C872 1.376 . S
C872 H859 0.930 . S
C872 C871 1.376 . S
C872 C873 1.388 . S
C873 H860 0.930 . S
C873 C872 1.388 . S
C873 C874 1.390 . S
C874 C873 1.390 . S
C874 C875 1.394 . S
C874 C880 1.465 1_554 S
C875 C870 1.399 . S
C875 C874 1.394 . S
C875 C876 1.516 1_554 S
C876 C875 1.516 1_556 S
C876 C877 1.502 . S
C876 C878 1.561 . S
C876 C879 1.526 . S
C877 H861 0.959 . S
C877 H862 0.959 . S
C877 H863 0.961 . S
C877 C876 1.502 . S
C878 H864 0.960 . S
C878 H865 0.961 . S
C878 H866 0.959 . S
C878 C876 1.561 . S
C879 C876 1.526 . S
C879 C880 1.396 . S
C879 C884 1.390 . S
C880 C874 1.465 1_556 S
C880 C879 1.396 . S
C880 C881 1.399 . S
C881 H867 0.929 . S
C881 C880 1.399 . S
C881 C882 1.385 . S
C882 H868 0.931 . S
C882 C881 1.385 . S
C882 C883 1.389 . S
C883 C882 1.389 . S
C883 C884 1.387 . S
C884 H869 0.930 . S
C884 C879 1.390 . S
C884 C883 1.387 . S
H885 C897 0.930 . S
H886 C899 0.930 . S
H887 C900 0.930 . S
H888 C904 0.959 . S
H889 C904 0.959 . S
H890 C904 0.961 . S
H891 C905 0.960 . S
H892 C905 0.961 . S
H893 C905 0.959 . S
H894 C908 0.929 . S
H895 C909 0.931 . S
H896 C911 0.930 . S
C897 H885 0.930 . S
C897 C898 1.399 . S
C897 C902 1.399 . S
C898 C897 1.399 . S
C898 C899 1.376 . S
C899 H886 0.930 . S
C899 C898 1.376 . S
C899 C900 1.388 . S
C900 H887 0.930 . S
C900 C899 1.388 . S
C900 C901 1.390 . S
C901 C900 1.390 . S
C901 C902 1.394 . S
C901 C907 1.465 . S
C902 C897 1.399 . S
C902 C901 1.394 . S
C902 C903 1.516 . S
C903 C902 1.516 . S
C903 C904 1.502 . S
C903 C905 1.561 . S
C903 C906 1.526 . S
C904 H888 0.959 . S
C904 H889 0.959 . S
C904 H890 0.961 . S
C904 C903 1.502 . S
C905 H891 0.960 . S
C905 H892 0.961 . S
C905 H893 0.959 . S
C905 C903 1.561 . S
C906 C903 1.526 . S
C906 C907 1.396 . S
C906 C911 1.390 . S
C907 C901 1.465 . S
C907 C906 1.396 . S
C907 C908 1.399 . S
C908 H894 0.929 . S
C908 C907 1.399 . S
C908 C909 1.385 . S
C909 H895 0.931 . S
C909 C908 1.385 . S
C909 C910 1.389 . S
C910 C909 1.389 . S
C910 C911 1.387 . S
C911 H896 0.930 . S
C911 C906 1.390 . S
C911 C910 1.387 . S
H912 C924 0.930 . S
H913 C926 0.930 . S
H914 C927 0.930 . S
H915 C931 0.959 . S
H916 C931 0.959 . S
H917 C931 0.961 . S
H918 C932 0.960 . S
H919 C932 0.961 . S
H920 C932 0.959 . S
H921 C935 0.929 . S
H922 C936 0.931 . S
H923 C938 0.930 . S
C924 H912 0.930 . S
C924 C925 1.399 . S
C924 C929 1.399 . S
C925 C924 1.399 . S
C925 C926 1.376 . S
C926 H913 0.930 . S
C926 C925 1.376 . S
C926 C927 1.388 . S
C927 H914 0.930 . S
C927 C926 1.388 . S
C927 C928 1.390 . S
C928 C927 1.390 . S
C928 C929 1.394 . S
C928 C934 1.465 . S
C929 C924 1.399 . S
C929 C928 1.394 . S
C929 C930 1.516 . S
C930 C929 1.516 . S
C930 C931 1.502 . S
C930 C932 1.561 . S
C930 C933 1.526 . S
C931 H915 0.959 . S
C931 H916 0.959 . S
C931 H917 0.961 . S
C931 C930 1.502 . S
C932 H918 0.960 . S
C932 H919 0.961 . S
C932 H920 0.959 . S
C932 C930 1.561 . S
C933 C930 1.526 . S
C933 C934 1.396 . S
C933 C938 1.390 . S
C934 C928 1.465 . S
C934 C933 1.396 . S
C934 C935 1.399 . S
C935 H921 0.929 . S
C935 C934 1.399 . S
C935 C936 1.385 . S
C936 H922 0.931 . S
C936 C935 1.385 . S
C936 C937 1.389 . S
C937 C936 1.389 . S
C937 C938 1.387 . S
C938 H923 0.930 . S
C938 C933 1.390 . S
C938 C937 1.387 . S
H939 C951 0.930 . S
H940 C953 0.930 . S
H941 C954 0.930 . S
H942 C958 0.979 1_545 S
H943 C958 0.959 . S
H944 C958 0.961 1_545 S
H945 C959 0.960 . S
H946 C959 0.961 . S
H947 C959 0.959 . S
H948 C962 0.929 . S
H949 C963 0.931 . S
H950 C965 0.930 . S
C951 H939 0.930 . S
C951 C952 1.399 . S
C951 C956 1.399 . S
C952 C951 1.399 . S
C952 C953 1.376 1_556 S
C953 H940 0.930 . S
C953 C952 1.376 1_554 S
C953 C954 1.388 . S
C954 H941 0.930 . S
C954 C953 1.388 . S
C954 C955 1.390 . S
C955 C954 1.390 . S
C955 C956 1.394 1_554 S
C955 C961 1.465 1_545 S
C956 C951 1.399 . S
C956 C955 1.394 1_556 S
C956 C957 1.516 1_545 S
C957 C956 1.516 1_565 S
C957 C958 1.502 . S
C957 C959 1.561 . S
C957 C960 1.526 1_556 S
C958 H942 0.979 1_565 S
C958 H943 0.959 . S
C958 H944 0.961 1_565 S
C958 C957 1.502 . S
C959 H945 0.960 . S
C959 H946 0.961 . S
C959 H947 0.959 . S
C959 C957 1.561 . S
C960 C957 1.526 1_554 S
C960 C961 1.396 . S
C960 C965 1.390 . S
C961 C955 1.465 1_565 S
C961 C960 1.396 . S
C961 C962 1.399 . S
C962 H948 0.929 . S
C962 C961 1.399 . S
C962 C963 1.385 . S
C963 H949 0.931 . S
C963 C962 1.385 . S
C963 C964 1.389 . S
C964 C963 1.389 . S
C964 C965 1.387 . S
C965 H950 0.930 . S
C965 C960 1.390 . S
C965 C964 1.387 . S
H966 C978 0.930 . S
H967 C980 0.930 . S
H968 C981 0.930 1_655 S
H969 C985 0.959 . S
H970 C985 0.959 . S
H971 C985 0.961 . S
H972 C986 0.960 . S
H973 C986 0.961 . S
H974 C986 0.959 1_655 S
H975 C989 0.929 . S
H976 C990 0.931 . S
H977 C992 0.930 . S
C978 H966 0.930 . S
C978 C979 1.399 . S
C978 C983 1.399 . S
C979 C978 1.399 . S
C979 C980 1.376 . S
C980 H967 0.930 . S
C980 C979 1.376 . S
C980 C981 1.388 . S
C981 H968 0.930 1_455 S
C981 C980 1.388 . S
C981 C982 1.390 . S
C982 C981 1.390 . S
C982 C983 1.394 . S
C982 C988 1.465 1_455 S
C983 C978 1.399 . S
C983 C982 1.394 . S
C983 C984 1.516 . S
C984 C983 1.516 . S
C984 C985 1.502 . S
C984 C986 1.561 . S
C984 C987 1.526 1_455 S
C985 H969 0.959 . S
C985 H970 0.959 . S
C985 H971 0.961 . S
C985 C984 1.502 . S
C986 H972 0.960 . S
C986 H973 0.961 . S
C986 H974 0.959 1_455 S
C986 C984 1.561 . S
C987 C984 1.526 1_655 S
C987 C988 1.396 . S
C987 C992 1.390 . S
C988 C982 1.465 1_655 S
C988 C987 1.396 . S
C988 C989 1.399 . S
C989 H975 0.929 . S
C989 C988 1.399 . S
C989 C990 1.385 . S
C990 H976 0.931 . S
C990 C989 1.385 . S
C990 C991 1.389 . S
C991 C990 1.389 . S
C991 C992 1.387 . S
C992 H977 0.930 . S
C992 C987 1.390 . S
C992 C991 1.387 . S
H993 C1005 0.930 . S
H994 C1007 0.930 . S
H995 C1008 0.930 . S
H996 C1012 0.959 . S
H997 C1012 0.959 . S
H998 C1012 0.961 . S
H999 C1013 0.960 . S
H1000 C1013 0.961 . S
H1001 C1013 0.959 . S
H1002 C1016 0.929 . S
H1003 C1017 0.931 . S
H1004 C1019 0.930 . S
C1005 H993 0.930 . S
C1005 C1006 1.399 . S
C1005 C1010 1.399 . S
C1006 C1005 1.399 . S
C1006 C1007 1.376 1_556 S
C1007 H994 0.930 . S
C1007 C1006 1.376 1_554 S
C1007 C1008 1.388 . S
C1008 H995 0.930 . S
C1008 C1007 1.388 . S
C1008 C1009 1.390 . S
C1009 C1008 1.390 . S
C1009 C1010 1.394 1_554 S
C1009 C1015 1.465 . S
C1010 C1005 1.399 . S
C1010 C1009 1.394 1_556 S
C1010 C1011 1.516 . S
C1011 C1010 1.516 . S
C1011 C1012 1.502 . S
C1011 C1013 1.561 . S
C1011 C1014 1.526 1_556 S
C1012 H996 0.959 . S
C1012 H997 0.959 . S
C1012 H998 0.961 . S
C1012 C1011 1.502 . S
C1013 H999 0.960 . S
C1013 H1000 0.961 . S
C1013 H1001 0.959 . S
C1013 C1011 1.561 . S
C1014 C1011 1.526 1_554 S
C1014 C1015 1.396 . S
C1014 C1019 1.390 . S
C1015 C1009 1.465 . S
C1015 C1014 1.396 . S
C1015 C1016 1.399 . S
C1016 H1002 0.929 . S
C1016 C1015 1.399 . S
C1016 C1017 1.385 . S
C1017 H1003 0.931 . S
C1017 C1016 1.385 . S
C1017 C1018 1.389 . S
C1018 C1017 1.389 . S
C1018 C1019 1.387 . S
C1019 H1004 0.930 . S
C1019 C1014 1.390 . S
C1019 C1018 1.387 . S
H1020 C1032 0.930 . S
H1021 C1034 0.930 . S
H1022 C1035 0.930 . S
H1023 C1039 0.959 . S
H1024 C1039 0.959 . S
H1025 C1039 0.961 . S
H1026 C1040 0.960 . S
H1027 C1040 0.961 . S
H1028 C1040 0.959 . S
H1029 C1043 0.929 . S
H1030 C1044 0.931 . S
H1031 C1046 0.930 . S
C1032 H1020 0.930 . S
C1032 C1033 1.399 . S
C1032 C1037 1.399 1_554 S
C1033 C1032 1.399 . S
C1033 C1034 1.376 . S
C1034 H1021 0.930 . S
C1034 C1033 1.376 . S
C1034 C1035 1.388 1_554 S
C1035 H1022 0.930 . S
C1035 C1034 1.388 1_556 S
C1035 C1036 1.390 . S
C1036 C1035 1.390 . S
C1036 C1037 1.394 . S
C1036 C1042 1.465 . S
C1037 C1032 1.399 1_556 S
C1037 C1036 1.394 . S
C1037 C1038 1.516 . S
C1038 C1037 1.516 . S
C1038 C1039 1.502 . S
C1038 C1040 1.561 1_556 S
C1038 C1041 1.526 . S
C1039 H1023 0.959 . S
C1039 H1024 0.959 . S
C1039 H1025 0.961 . S
C1039 C1038 1.502 . S
C1040 H1026 0.960 . S
C1040 H1027 0.961 . S
C1040 H1028 0.959 . S
C1040 C1038 1.561 1_554 S
C1041 C1038 1.526 . S
C1041 C1042 1.396 . S
C1041 C1046 1.390 . S
C1042 C1036 1.465 . S
C1042 C1041 1.396 . S
C1042 C1043 1.399 . S
C1043 H1029 0.929 . S
C1043 C1042 1.399 . S
C1043 C1044 1.385 . S
C1044 H1030 0.931 . S
C1044 C1043 1.385 . S
C1044 C1045 1.389 . S
C1045 C1044 1.389 . S
C1045 C1046 1.387 . S
C1046 H1031 0.930 . S
C1046 C1041 1.390 . S
C1046 C1045 1.387 . S
H1047 C1059 0.930 . S
H1048 C1061 0.930 . S
H1049 C1062 0.930 . S
H1050 C1066 0.959 1_565 S
H1051 C1066 0.959 . S
H1052 C1066 0.951 1_565 S
H1053 C1067 0.960 . S
H1054 C1067 0.961 . S
H1055 C1067 0.959 . S
H1056 C1070 0.929 . S
H1057 C1071 0.931 . S
H1058 C1073 0.930 . S
C1059 H1047 0.930 . S
C1059 C1060 1.399 . S
C1059 C1064 1.399 . S
C1060 C1059 1.399 . S
C1060 C1061 1.376 . S
C1061 H1048 0.930 . S
C1061 C1060 1.376 . S
C1061 C1062 1.388 . S
C1062 H1049 0.930 . S
C1062 C1061 1.388 . S
C1062 C1063 1.390 . S
C1063 C1062 1.390 . S
C1063 C1064 1.394 . S
C1063 C1069 1.465 1_565 S
C1064 C1059 1.399 . S
C1064 C1063 1.394 . S
C1064 C1065 1.516 1_565 S
C1065 C1064 1.516 1_545 S
C1065 C1066 1.502 . S
C1065 C1067 1.561 . S
C1065 C1068 1.526 . S
C1066 H1050 0.959 1_545 S
C1066 H1051 0.959 . S
C1066 H1052 0.951 1_545 S
C1066 C1065 1.502 . S
C1067 H1053 0.960 . S
C1067 H1054 0.961 . S
C1067 H1055 0.959 . S
C1067 C1065 1.561 . S
C1068 C1065 1.526 . S
C1068 C1069 1.396 . S
C1068 C1073 1.390 . S
C1069 C1063 1.465 1_545 S
C1069 C1068 1.396 . S
C1069 C1070 1.399 . S
C1070 H1056 0.929 . S
C1070 C1069 1.399 . S
C1070 C1071 1.385 . S
C1071 H1057 0.931 . S
C1071 C1070 1.385 . S
C1071 C1072 1.389 . S
C1072 C1071 1.389 . S
C1072 C1073 1.387 . S
C1073 H1058 0.930 . S
C1073 C1068 1.390 . S
C1073 C1072 1.387 . S
H1074 C1086 0.930 . S
H1075 C1088 0.930 . S
H1076 C1089 0.930 . S
H1077 C1093 0.959 . S
H1078 C1093 0.959 . S
H1079 C1093 0.961 . S
H1080 C1094 0.960 1_655 S
H1081 C1094 0.961 . S
H1082 C1094 0.959 . S
H1083 C1097 0.929 . S
H1084 C1098 0.931 . S
H1085 C1100 0.930 . S
C1086 H1074 0.930 . S
C1086 C1087 1.399 . S
C1086 C1091 1.399 1_554 S
C1087 C1086 1.399 . S
C1087 C1088 1.376 . S
C1088 H1075 0.930 . S
C1088 C1087 1.376 . S
C1088 C1089 1.388 1_554 S
C1089 H1076 0.930 . S
C1089 C1088 1.388 1_556 S
C1089 C1090 1.390 . S
C1090 C1089 1.390 . S
C1090 C1091 1.394 . S
C1090 C1096 1.465 1_655 S
C1091 C1086 1.399 1_556 S
C1091 C1090 1.394 . S
C1091 C1092 1.516 . S
C1092 C1091 1.516 . S
C1092 C1093 1.502 . S
C1092 C1094 1.561 1_656 S
C1092 C1095 1.526 1_655 S
C1093 H1077 0.959 . S
C1093 H1078 0.959 . S
C1093 H1079 0.961 . S
C1093 C1092 1.502 . S
C1094 H1080 0.960 1_455 S
C1094 H1081 0.961 . S
C1094 H1082 0.959 . S
C1094 C1092 1.561 1_454 S
C1095 C1092 1.526 1_455 S
C1095 C1096 1.396 . S
C1095 C1100 1.390 . S
C1096 C1090 1.465 1_455 S
C1096 C1095 1.396 . S
C1096 C1097 1.399 . S
C1097 H1083 0.929 . S
C1097 C1096 1.399 . S
C1097 C1098 1.385 . S
C1098 H1084 0.931 . S
C1098 C1097 1.385 . S
C1098 C1099 1.389 . S
C1099 C1098 1.389 . S
C1099 C1100 1.387 . S
C1100 H1085 0.930 . S
C1100 C1095 1.390 . S
C1100 C1099 1.387 . S
H1101 C1113 0.930 . S
H1102 C1115 0.930 . S
H1103 C1116 0.930 . S
H1104 C1120 0.959 . S
H1105 C1120 0.959 . S
H1106 C1120 0.961 . S
H1107 C1121 0.960 . S
H1108 C1121 0.961 . S
H1109 C1121 0.959 . S
H1110 C1124 0.929 . S
H1111 C1125 0.931 . S
H1112 C1127 0.930 . S
C1113 H1101 0.930 . S
C1113 C1114 1.399 . S
C1113 C1118 1.399 . S
C1114 C1113 1.399 . S
C1114 C1115 1.376 . S
C1115 H1102 0.930 . S
C1115 C1114 1.376 . S
C1115 C1116 1.388 . S
C1116 H1103 0.930 . S
C1116 C1115 1.388 . S
C1116 C1117 1.390 . S
C1117 C1116 1.390 . S
C1117 C1118 1.394 . S
C1117 C1123 1.465 . S
C1118 C1113 1.399 . S
C1118 C1117 1.394 . S
C1118 C1119 1.516 . S
C1119 C1118 1.516 . S
C1119 C1120 1.502 . S
C1119 C1121 1.561 . S
C1119 C1122 1.526 . S
C1120 H1104 0.959 . S
C1120 H1105 0.959 . S
C1120 H1106 0.961 . S
C1120 C1119 1.502 . S
C1121 H1107 0.960 . S
C1121 H1108 0.961 . S
C1121 H1109 0.959 . S
C1121 C1119 1.561 . S
C1122 C1119 1.526 . S
C1122 C1123 1.396 . S
C1122 C1127 1.390 . S
C1123 C1117 1.465 . S
C1123 C1122 1.396 . S
C1123 C1124 1.399 . S
C1124 H1110 0.929 . S
C1124 C1123 1.399 . S
C1124 C1125 1.385 . S
C1125 H1111 0.931 . S
C1125 C1124 1.385 . S
C1125 C1126 1.389 . S
C1126 C1125 1.389 . S
C1126 C1127 1.387 . S
C1127 H1112 0.930 . S
C1127 C1122 1.390 . S
C1127 C1126 1.387 . S
H1128 C1140 0.930 . S
H1129 C1142 0.930 . S
H1130 C1143 0.930 . S
H1131 C1147 0.959 . S
H1132 C1147 0.959 . S
H1133 C1147 0.961 . S
H1134 C1148 0.960 . S
H1135 C1148 0.961 . S
H1136 C1148 0.959 . S
H1137 C1151 0.929 . S
H1138 C1152 0.931 . S
H1139 C1154 0.930 . S
C1140 H1128 0.930 . S
C1140 C1141 1.399 . S
C1140 C1145 1.399 . S
C1141 C1140 1.399 . S
C1141 C1142 1.376 . S
C1142 H1129 0.930 . S
C1142 C1141 1.376 . S
C1142 C1143 1.388 . S
C1143 H1130 0.930 . S
C1143 C1142 1.388 . S
C1143 C1144 1.390 . S
C1144 C1143 1.390 . S
C1144 C1145 1.394 . S
C1144 C1150 1.465 . S
C1145 C1140 1.399 . S
C1145 C1144 1.394 . S
C1145 C1146 1.516 . S
C1146 C1145 1.516 . S
C1146 C1147 1.502 . S
C1146 C1148 1.561 . S
C1146 C1149 1.526 . S
C1147 H1131 0.959 . S
C1147 H1132 0.959 . S
C1147 H1133 0.961 . S
C1147 C1146 1.502 . S
C1148 H1134 0.960 . S
C1148 H1135 0.961 . S
C1148 H1136 0.959 . S
C1148 C1146 1.561 . S
C1149 C1146 1.526 . S
C1149 C1150 1.396 . S
C1149 C1154 1.390 . S
C1150 C1144 1.465 . S
C1150 C1149 1.396 . S
C1150 C1151 1.399 . S
C1151 H1137 0.929 . S
C1151 C1150 1.399 . S
C1151 C1152 1.385 . S
C1152 H1138 0.931 . S
C1152 C1151 1.385 . S
C1152 C1153 1.389 . S
C1153 C1152 1.389 . S
C1153 C1154 1.387 . S
C1154 H1139 0.930 . S
C1154 C1149 1.390 . S
C1154 C1153 1.387 . S
H1155 C1167 0.930 . S
H1156 C1169 0.930 . S
H1157 C1170 0.930 . S
H1158 C1174 0.959 1_565 S
H1159 C1174 0.959 1_565 S
H1160 C1174 0.961 . S
H1161 C1175 0.960 . S
H1162 C1175 0.961 . S
H1163 C1175 0.959 . S
H1164 C1178 0.929 . S
H1165 C1179 0.931 . S
H1166 C1181 0.930 . S
C1167 H1155 0.930 . S
C1167 C1168 1.399 . S
C1167 C1172 1.399 . S
C1168 C1167 1.399 . S
C1168 C1169 1.376 . S
C1169 H1156 0.930 . S
C1169 C1168 1.376 . S
C1169 C1170 1.388 . S
C1170 H1157 0.930 . S
C1170 C1169 1.388 . S
C1170 C1171 1.390 . S
C1171 C1170 1.390 . S
C1171 C1172 1.394 . S
C1171 C1177 1.465 1_545 S
C1172 C1167 1.399 . S
C1172 C1171 1.394 . S
C1172 C1173 1.516 . S
C1173 C1172 1.516 . S
C1173 C1174 1.502 . S
C1173 C1175 1.561 . S
C1173 C1176 1.526 1_545 S
C1174 H1158 0.959 1_545 S
C1174 H1159 0.959 1_545 S
C1174 H1160 0.961 . S
C1174 C1173 1.502 . S
C1175 H1161 0.960 . S
C1175 H1162 0.961 . S
C1175 H1163 0.959 . S
C1175 C1173 1.561 . S
C1176 C1173 1.526 1_565 S
C1176 C1177 1.396 . S
C1176 C1181 1.390 . S
C1177 C1171 1.465 1_565 S
C1177 C1176 1.396 . S
C1177 C1178 1.399 . S
C1178 H1164 0.929 . S
C1178 C1177 1.399 . S
C1178 C1179 1.385 . S
C1179 H1165 0.931 . S
C1179 C1178 1.385 . S
C1179 C1180 1.389 . S
C1180 C1179 1.389 . S
C1180 C1181 1.387 . S
C1181 H1166 0.930 . S
C1181 C1176 1.390 . S
C1181 C1180 1.387 . S
H1182 C1194 0.930 . S
H1183 C1196 0.930 . S
H1184 C1197 0.930 1_565 S
H1185 C1201 0.959 . S
H1186 C1201 0.959 . S
H1187 C1201 0.961 . S
H1188 C1202 0.960 . S
H1189 C1202 0.961 . S
H1190 C1202 0.959 . S
H1191 C1205 0.929 1_655 S
H1192 C1206 0.931 . S
H1193 C1208 0.930 . S
C1194 H1182 0.930 . S
C1194 C1195 1.399 . S
C1194 C1199 1.399 . S
C1195 C1194 1.399 . S
C1195 C1196 1.376 . S
C1196 H1183 0.930 . S
C1196 C1195 1.376 . S
C1196 C1197 1.388 . S
C1197 H1184 0.930 1_545 S
C1197 C1196 1.388 . S
C1197 C1198 1.390 . S
C1198 C1197 1.390 . S
C1198 C1199 1.394 . S
C1198 C1204 1.490 1_655 S
C1199 C1194 1.399 . S
C1199 C1198 1.394 . S
C1199 C1200 1.516 1_655 S
C1200 C1199 1.516 1_455 S
C1200 C1201 1.502 . S
C1200 C1202 1.561 . S
C1200 C1203 1.526 . S
C1201 H1185 0.959 . S
C1201 H1186 0.959 . S
C1201 H1187 0.961 . S
C1201 C1200 1.502 . S
C1202 H1188 0.960 . S
C1202 H1189 0.961 . S
C1202 H1190 0.959 . S
C1202 C1200 1.561 . S
C1203 C1200 1.526 . S
C1203 C1204 1.419 . S
C1203 C1208 1.390 . S
C1204 C1198 1.490 1_455 S
C1204 C1203 1.419 . S
C1204 C1205 1.359 1_545 S
C1205 H1191 0.929 1_455 S
C1205 C1204 1.359 1_565 S
C1205 C1206 1.385 . S
C1206 H1192 0.931 . S
C1206 C1205 1.385 . S
C1206 C1207 1.389 . S
C1207 C1206 1.389 . S
C1207 C1208 1.387 1_565 S
C1208 H1193 0.930 . S
C1208 C1203 1.390 . S
C1208 C1207 1.387 1_545 S
H1209 C1221 0.930 1_655 S
H1210 C1223 0.930 . S
H1211 C1224 0.930 . S
H1212 C1228 0.959 . S
H1213 C1228 0.959 . S
H1214 C1228 0.961 . S
H1215 C1229 0.960 . S
H1216 C1229 0.961 . S
H1217 C1229 0.978 . S
H1218 C1232 0.929 . S
H1219 C1233 0.931 . S
H1220 C1235 0.930 . S
C1221 H1209 0.930 1_455 S
C1221 C1222 1.399 . S
C1221 C1226 1.399 1_455 S
C1222 C1221 1.399 . S
C1222 C1223 1.376 . S
C1223 H1210 0.930 . S
C1223 C1222 1.376 . S
C1223 C1224 1.388 . S
C1224 H1211 0.930 . S
C1224 C1223 1.388 . S
C1224 C1225 1.390 1_455 S
C1225 C1224 1.390 1_655 S
C1225 C1226 1.394 . S
C1225 C1231 1.465 . S
C1226 C1221 1.399 1_655 S
C1226 C1225 1.394 . S
C1226 C1227 1.516 . S
C1227 C1226 1.516 . S
C1227 C1228 1.502 . S
C1227 C1229 1.561 . S
C1227 C1230 1.526 . S
C1228 H1212 0.959 . S
C1228 H1213 0.959 . S
C1228 H1214 0.961 . S
C1228 C1227 1.502 . S
C1229 H1215 0.960 . S
C1229 H1216 0.961 . S
C1229 H1217 0.978 . S
C1229 C1227 1.561 . S
C1230 C1227 1.526 . S
C1230 C1231 1.396 . S
C1230 C1235 1.390 . S
C1231 C1225 1.465 . S
C1231 C1230 1.396 . S
C1231 C1232 1.399 . S
C1232 H1218 0.929 . S
C1232 C1231 1.399 . S
C1232 C1233 1.385 . S
C1233 H1219 0.931 . S
C1233 C1232 1.385 . S
C1233 C1234 1.389 . S
C1234 C1233 1.389 . S
C1234 C1235 1.387 . S
C1235 H1220 0.930 . S
C1235 C1230 1.390 . S
C1235 C1234 1.387 . S
H1236 C1248 0.930 . S
H1237 C1250 0.930 . S
H1238 C1251 0.930 . S
H1239 C1255 0.959 . S
H1240 C1255 0.959 . S
H1241 C1255 0.961 . S
H1242 C1256 0.960 . S
H1243 C1256 0.961 . S
H1244 C1256 0.959 . S
H1245 C1259 0.929 . S
H1246 C1260 0.931 . S
H1247 C1262 0.930 . S
C1248 H1236 0.930 . S
C1248 C1249 1.399 . S
C1248 C1253 1.399 . S
C1249 C1248 1.399 . S
C1249 C1250 1.376 . S
C1250 H1237 0.930 . S
C1250 C1249 1.376 . S
C1250 C1251 1.388 . S
C1251 H1238 0.930 . S
C1251 C1250 1.388 . S
C1251 C1252 1.390 . S
C1252 C1251 1.390 . S
C1252 C1253 1.394 . S
C1252 C1258 1.465 . S
C1253 C1248 1.399 . S
C1253 C1252 1.394 . S
C1253 C1254 1.516 . S
C1254 C1253 1.516 . S
C1254 C1255 1.502 . S
C1254 C1256 1.561 . S
C1254 C1257 1.526 . S
C1255 H1239 0.959 . S
C1255 H1240 0.959 . S
C1255 H1241 0.961 . S
C1255 C1254 1.502 . S
C1256 H1242 0.960 . S
C1256 H1243 0.961 . S
C1256 H1244 0.959 . S
C1256 C1254 1.561 . S
C1257 C1254 1.526 . S
C1257 C1258 1.396 . S
C1257 C1262 1.390 . S
C1258 C1252 1.465 . S
C1258 C1257 1.396 . S
C1258 C1259 1.399 . S
C1259 H1245 0.929 . S
C1259 C1258 1.399 . S
C1259 C1260 1.385 . S
C1260 H1246 0.931 . S
C1260 C1259 1.385 . S
C1260 C1261 1.389 . S
C1261 C1260 1.389 . S
C1261 C1262 1.387 . S
C1262 H1247 0.930 . S
C1262 C1257 1.390 . S
C1262 C1261 1.387 . S
H1263 C1275 0.930 . S
H1264 C1277 0.930 . S
H1265 C1278 0.930 . S
H1266 C1282 0.991 1_565 S
H1267 C1282 0.959 . S
H1268 C1282 0.961 1_565 S
H1269 C1283 0.960 . S
H1270 C1283 0.961 . S
H1271 C1283 0.959 . S
H1272 C1286 0.929 . S
H1273 C1287 0.931 . S
H1274 C1289 0.930 . S
C1275 H1263 0.930 . S
C1275 C1276 1.399 . S
C1275 C1280 1.399 . S
C1276 C1275 1.399 . S
C1276 C1277 1.376 1_455 S
C1277 H1264 0.930 . S
C1277 C1276 1.376 1_655 S
C1277 C1278 1.388 . S
C1278 H1265 0.930 . S
C1278 C1277 1.388 . S
C1278 C1279 1.390 . S
C1279 C1278 1.390 . S
C1279 C1280 1.394 1_655 S
C1279 C1285 1.465 1_565 S
C1280 C1275 1.399 . S
C1280 C1279 1.394 1_455 S
C1280 C1281 1.516 1_565 S
C1281 C1280 1.516 1_545 S
C1281 C1282 1.502 . S
C1281 C1283 1.561 . S
C1281 C1284 1.526 1_455 S
C1282 H1266 0.991 1_545 S
C1282 H1267 0.959 . S
C1282 H1268 0.961 1_545 S
C1282 C1281 1.502 . S
C1283 H1269 0.960 . S
C1283 H1270 0.961 . S
C1283 H1271 0.959 . S
C1283 C1281 1.561 . S
C1284 C1281 1.526 1_655 S
C1284 C1285 1.396 . S
C1284 C1289 1.390 . S
C1285 C1279 1.465 1_545 S
C1285 C1284 1.396 . S
C1285 C1286 1.399 . S
C1286 H1272 0.929 . S
C1286 C1285 1.399 . S
C1286 C1287 1.385 . S
C1287 H1273 0.931 . S
C1287 C1286 1.385 . S
C1287 C1288 1.389 . S
C1288 C1287 1.389 . S
C1288 C1289 1.387 . S
C1289 H1274 0.930 . S
C1289 C1284 1.390 . S
C1289 C1288 1.387 . S
H1290 C1302 0.930 . S
H1291 C1304 0.930 . S
H1292 C1305 0.930 . S
H1293 C1309 0.959 . S
H1294 C1309 0.959 . S
H1295 C1309 0.961 . S
H1296 C1310 0.960 1_655 S
H1297 C1310 0.961 . S
H1298 C1310 0.959 . S
H1299 C1313 0.929 . S
H1300 C1314 0.931 . S
H1301 C1316 0.930 . S
C1302 H1290 0.930 . S
C1302 C1303 1.399 . S
C1302 C1307 1.399 . S
C1303 C1302 1.399 . S
C1303 C1304 1.376 . S
C1304 H1291 0.930 . S
C1304 C1303 1.376 . S
C1304 C1305 1.388 . S
C1305 H1292 0.930 . S
C1305 C1304 1.388 . S
C1305 C1306 1.390 . S
C1306 C1305 1.390 . S
C1306 C1307 1.394 . S
C1306 C1312 1.465 1_655 S
C1307 C1302 1.399 . S
C1307 C1306 1.394 . S
C1307 C1308 1.516 . S
C1308 C1307 1.516 . S
C1308 C1309 1.502 . S
C1308 C1310 1.561 1_655 S
C1308 C1311 1.526 1_655 S
C1309 H1293 0.959 . S
C1309 H1294 0.959 . S
C1309 H1295 0.961 . S
C1309 C1308 1.502 . S
C1310 H1296 0.960 1_455 S
C1310 H1297 0.961 . S
C1310 H1298 0.959 . S
C1310 C1308 1.561 1_455 S
C1311 C1308 1.526 1_455 S
C1311 C1312 1.396 . S
C1311 C1316 1.390 . S
C1312 C1306 1.465 1_455 S
C1312 C1311 1.396 . S
C1312 C1313 1.399 . S
C1313 H1299 0.929 . S
C1313 C1312 1.399 . S
C1313 C1314 1.385 . S
C1314 H1300 0.931 . S
C1314 C1313 1.385 . S
C1314 C1315 1.389 . S
C1315 C1314 1.389 . S
C1315 C1316 1.387 . S
C1316 H1301 0.930 . S
C1316 C1311 1.390 . S
C1316 C1315 1.387 . S
H1317 C1329 0.930 . S
H1318 C1331 0.930 . S
H1319 C1332 0.942 . S
H1320 C1336 0.959 . S
H1321 C1336 0.959 . S
H1322 C1336 0.961 . S
H1323 C1337 0.960 . S
H1324 C1337 0.961 . S
H1325 C1337 0.959 . S
H1326 C1340 0.929 . S
H1327 C1341 0.931 . S
H1328 C1343 0.930 . S
C1329 H1317 0.930 . S
C1329 C1330 1.399 . S
C1329 C1334 1.399 1_565 S
C1330 C1329 1.399 . S
C1330 C1331 1.376 . S
C1331 H1318 0.930 . S
C1331 C1330 1.376 . S
C1331 C1332 1.364 1_565 S
C1332 H1319 0.942 . S
C1332 C1331 1.364 1_545 S
C1332 C1333 1.404 . S
C1333 C1332 1.404 . S
C1333 C1334 1.394 . S
C1333 C1339 1.465 . S
C1334 C1329 1.399 1_545 S
C1334 C1333 1.394 . S
C1334 C1335 1.516 . S
C1335 C1334 1.516 . S
C1335 C1336 1.502 . S
C1335 C1337 1.561 1_545 S
C1335 C1338 1.526 . S
C1336 H1320 0.959 . S
C1336 H1321 0.959 . S
C1336 H1322 0.961 . S
C1336 C1335 1.502 . S
C1337 H1323 0.960 . S
C1337 H1324 0.961 . S
C1337 H1325 0.959 . S
C1337 C1335 1.561 1_565 S
C1338 C1335 1.526 . S
C1338 C1339 1.396 . S
C1338 C1343 1.390 . S
C1339 C1333 1.465 . S
C1339 C1338 1.396 . S
C1339 C1340 1.399 . S
C1340 H1326 0.929 . S
C1340 C1339 1.399 . S
C1340 C1341 1.385 . S
C1341 H1327 0.931 . S
C1341 C1340 1.385 . S
C1341 C1342 1.389 . S
C1342 C1341 1.389 . S
C1342 C1343 1.387 . S
C1343 H1328 0.930 . S
C1343 C1338 1.390 . S
C1343 C1342 1.387 . S
H1344 C1356 0.930 . S
H1345 C1358 0.930 . S
H1346 C1359 0.930 . S
H1347 C1363 0.959 . S
H1348 C1363 0.959 . S
H1349 C1363 0.961 . S
H1350 C1364 0.960 . S
H1351 C1364 0.961 . S
H1352 C1364 0.959 . S
H1353 C1367 0.929 . S
H1354 C1368 0.931 . S
H1355 C1370 0.930 . S
C1356 H1344 0.930 . S
C1356 C1357 1.399 . S
C1356 C1361 1.399 . S
C1357 C1356 1.399 . S
C1357 C1358 1.376 . S
C1358 H1345 0.930 . S
C1358 C1357 1.376 . S
C1358 C1359 1.388 . S
C1359 H1346 0.930 . S
C1359 C1358 1.388 . S
C1359 C1360 1.390 . S
C1360 C1359 1.390 . S
C1360 C1361 1.394 . S
C1360 C1366 1.465 . S
C1361 C1356 1.399 . S
C1361 C1360 1.394 . S
C1361 C1362 1.516 . S
C1362 C1361 1.516 . S
C1362 C1363 1.502 . S
C1362 C1364 1.561 . S
C1362 C1365 1.526 . S
C1363 H1347 0.959 . S
C1363 H1348 0.959 . S
C1363 H1349 0.961 . S
C1363 C1362 1.502 . S
C1364 H1350 0.960 . S
C1364 H1351 0.961 . S
C1364 H1352 0.959 . S
C1364 C1362 1.561 . S
C1365 C1362 1.526 . S
C1365 C1366 1.396 . S
C1365 C1370 1.390 . S
C1366 C1360 1.465 . S
C1366 C1365 1.396 . S
C1366 C1367 1.399 . S
C1367 H1353 0.929 . S
C1367 C1366 1.399 . S
C1367 C1368 1.385 . S
C1368 H1354 0.931 . S
C1368 C1367 1.385 . S
C1368 C1369 1.389 . S
C1369 C1368 1.389 . S
C1369 C1370 1.387 . S
C1370 H1355 0.930 . S
C1370 C1365 1.390 . S
C1370 C1369 1.387 . S
H1371 C1383 0.930 . S
H1372 C1385 0.930 . S
H1373 C1386 0.930 . S
H1374 C1390 0.959 . S
H1375 C1390 0.959 . S
H1376 C1390 0.961 . S
H1377 C1391 0.960 . S
H1378 C1391 0.961 . S
H1379 C1391 0.959 . S
H1380 C1394 0.929 . S
H1381 C1395 0.931 . S
H1382 C1397 0.930 . S
C1383 H1371 0.930 . S
C1383 C1384 1.399 . S
C1383 C1388 1.399 . S
C1384 C1383 1.399 . S
C1384 C1385 1.376 . S
C1385 H1372 0.930 . S
C1385 C1384 1.376 . S
C1385 C1386 1.388 . S
C1386 H1373 0.930 . S
C1386 C1385 1.388 . S
C1386 C1387 1.390 . S
C1387 C1386 1.390 . S
C1387 C1388 1.394 . S
C1387 C1393 1.465 . S
C1388 C1383 1.399 . S
C1388 C1387 1.394 . S
C1388 C1389 1.516 . S
C1389 C1388 1.516 . S
C1389 C1390 1.502 . S
C1389 C1391 1.561 . S
C1389 C1392 1.526 . S
C1390 H1374 0.959 . S
C1390 H1375 0.959 . S
C1390 H1376 0.961 . S
C1390 C1389 1.502 . S
C1391 H1377 0.960 . S
C1391 H1378 0.961 . S
C1391 H1379 0.959 . S
C1391 C1389 1.561 . S
C1392 C1389 1.526 . S
C1392 C1393 1.396 . S
C1392 C1397 1.390 . S
C1393 C1387 1.465 . S
C1393 C1392 1.396 . S
C1393 C1394 1.399 . S
C1394 H1380 0.929 . S
C1394 C1393 1.399 . S
C1394 C1395 1.385 . S
C1395 H1381 0.931 . S
C1395 C1394 1.385 . S
C1395 C1396 1.389 . S
C1396 C1395 1.389 . S
C1396 C1397 1.387 . S
C1397 H1382 0.930 . S
C1397 C1392 1.390 . S
C1397 C1396 1.387 . S
H1398 C1410 0.930 . S
H1399 C1412 0.930 . S
H1400 C1413 0.930 . S
H1401 C1417 0.959 . S
H1402 C1417 0.959 . S
H1403 C1417 0.961 . S
H1404 C1418 0.960 . S
H1405 C1418 0.961 . S
H1406 C1418 0.959 . S
H1407 C1421 0.929 . S
H1408 C1422 0.931 . S
H1409 C1424 0.930 . S
C1410 H1398 0.930 . S
C1410 C1411 1.399 . S
C1410 C1415 1.399 . S
C1411 C1410 1.399 . S
C1411 C1412 1.376 . S
C1412 H1399 0.930 . S
C1412 C1411 1.376 . S
C1412 C1413 1.388 . S
C1413 H1400 0.930 . S
C1413 C1412 1.388 . S
C1413 C1414 1.390 . S
C1414 C1413 1.390 . S
C1414 C1415 1.394 . S
C1414 C1420 1.465 . S
C1415 C1410 1.399 . S
C1415 C1414 1.394 . S
C1415 C1416 1.516 . S
C1416 C1415 1.516 . S
C1416 C1417 1.502 . S
C1416 C1418 1.561 . S
C1416 C1419 1.526 . S
C1417 H1401 0.959 . S
C1417 H1402 0.959 . S
C1417 H1403 0.961 . S
C1417 C1416 1.502 . S
C1418 H1404 0.960 . S
C1418 H1405 0.961 . S
C1418 H1406 0.959 . S
C1418 C1416 1.561 . S
C1419 C1416 1.526 . S
C1419 C1420 1.396 . S
C1419 C1424 1.390 . S
C1420 C1414 1.465 . S
C1420 C1419 1.396 . S
C1420 C1421 1.399 . S
C1421 H1407 0.929 . S
C1421 C1420 1.399 . S
C1421 C1422 1.385 . S
C1422 H1408 0.931 . S
C1422 C1421 1.385 . S
C1422 C1423 1.389 . S
C1423 C1422 1.389 . S
C1423 C1424 1.387 . S
C1424 H1409 0.930 . S
C1424 C1419 1.390 . S
C1424 C1423 1.387 . S
H1425 C1437 0.930 . S
H1426 C1439 0.930 . S
H1427 C1440 0.930 . S
H1428 C1444 0.959 . S
H1429 C1444 0.959 . S
H1430 C1444 0.961 . S
H1431 C1445 0.960 . S
H1432 C1445 0.961 . S
H1433 C1445 0.959 . S
H1434 C1448 0.929 . S
H1435 C1449 0.931 . S
H1436 C1451 0.930 . S
C1437 H1425 0.930 . S
C1437 C1438 1.399 . S
C1437 C1442 1.399 . S
C1438 C1437 1.399 . S
C1438 C1439 1.376 . S
C1439 H1426 0.930 . S
C1439 C1438 1.376 . S
C1439 C1440 1.388 . S
C1440 H1427 0.930 . S
C1440 C1439 1.388 . S
C1440 C1441 1.390 . S
C1441 C1440 1.390 . S
C1441 C1442 1.394 . S
C1441 C1447 1.465 . S
C1442 C1437 1.399 . S
C1442 C1441 1.394 . S
C1442 C1443 1.516 . S
C1443 C1442 1.516 . S
C1443 C1444 1.502 . S
C1443 C1445 1.561 . S
C1443 C1446 1.526 . S
C1444 H1428 0.959 . S
C1444 H1429 0.959 . S
C1444 H1430 0.961 . S
C1444 C1443 1.502 . S
C1445 H1431 0.960 . S
C1445 H1432 0.961 . S
C1445 H1433 0.959 . S
C1445 C1443 1.561 . S
C1446 C1443 1.526 . S
C1446 C1447 1.396 . S
C1446 C1451 1.390 . S
C1447 C1441 1.465 . S
C1447 C1446 1.396 . S
C1447 C1448 1.399 . S
C1448 H1434 0.929 . S
C1448 C1447 1.399 . S
C1448 C1449 1.385 . S
C1449 H1435 0.931 . S
C1449 C1448 1.385 . S
C1449 C1450 1.389 . S
C1450 C1449 1.389 . S
C1450 C1451 1.387 . S
C1451 H1436 0.930 . S
C1451 C1446 1.390 . S
C1451 C1450 1.387 . S
H1452 C1464 0.930 . S
H1453 C1466 0.930 . S
H1454 C1467 0.930 . S
H1455 C1471 0.959 . S
H1456 C1471 0.959 . S
H1457 C1471 0.961 . S
H1458 C1472 0.960 . S
H1459 C1472 0.961 . S
H1460 C1472 0.959 . S
H1461 C1475 0.929 . S
H1462 C1476 0.931 . S
H1463 C1478 0.930 . S
C1464 H1452 0.930 . S
C1464 C1465 1.399 . S
C1464 C1469 1.399 . S
C1465 C1464 1.399 . S
C1465 C1466 1.376 . S
C1466 H1453 0.930 . S
C1466 C1465 1.376 . S
C1466 C1467 1.388 . S
C1467 H1454 0.930 . S
C1467 C1466 1.388 . S
C1467 C1468 1.390 . S
C1468 C1467 1.390 . S
C1468 C1469 1.394 . S
C1468 C1474 1.465 . S
C1469 C1464 1.399 . S
C1469 C1468 1.394 . S
C1469 C1470 1.516 . S
C1470 C1469 1.516 . S
C1470 C1471 1.502 . S
C1470 C1472 1.561 . S
C1470 C1473 1.526 . S
C1471 H1455 0.959 . S
C1471 H1456 0.959 . S
C1471 H1457 0.961 . S
C1471 C1470 1.502 . S
C1472 H1458 0.960 . S
C1472 H1459 0.961 . S
C1472 H1460 0.959 . S
C1472 C1470 1.561 . S
C1473 C1470 1.526 . S
C1473 C1474 1.396 . S
C1473 C1478 1.390 . S
C1474 C1468 1.465 . S
C1474 C1473 1.396 . S
C1474 C1475 1.399 . S
C1475 H1461 0.929 . S
C1475 C1474 1.399 . S
C1475 C1476 1.385 . S
C1476 H1462 0.931 . S
C1476 C1475 1.385 . S
C1476 C1477 1.389 . S
C1477 C1476 1.389 . S
C1477 C1478 1.387 . S
C1478 H1463 0.930 . S
C1478 C1473 1.390 . S
C1478 C1477 1.387 . S
H1479 C1491 0.930 . S
H1480 C1493 0.930 . S
H1481 C1494 0.930 . S
H1482 C1498 0.959 . S
H1483 C1498 0.959 . S
H1484 C1498 0.961 . S
H1485 C1499 0.960 . S
H1486 C1499 0.961 . S
H1487 C1499 0.959 . S
H1488 C1502 0.929 . S
H1489 C1503 0.931 . S
H1490 C1505 0.930 . S
C1491 H1479 0.930 . S
C1491 C1492 1.399 . S
C1491 C1496 1.399 . S
C1492 C1491 1.399 . S
C1492 C1493 1.376 . S
C1493 H1480 0.930 . S
C1493 C1492 1.376 . S
C1493 C1494 1.388 . S
C1494 H1481 0.930 . S
C1494 C1493 1.388 . S
C1494 C1495 1.390 . S
C1495 C1494 1.390 . S
C1495 C1496 1.394 . S
C1495 C1501 1.465 . S
C1496 C1491 1.399 . S
C1496 C1495 1.394 . S
C1496 C1497 1.516 . S
C1497 C1496 1.516 . S
C1497 C1498 1.502 . S
C1497 C1499 1.561 . S
C1497 C1500 1.526 . S
C1498 H1482 0.959 . S
C1498 H1483 0.959 . S
C1498 H1484 0.961 . S
C1498 C1497 1.502 . S
C1499 H1485 0.960 . S
C1499 H1486 0.961 . S
C1499 H1487 0.959 . S
C1499 C1497 1.561 . S
C1500 C1497 1.526 . S
C1500 C1501 1.396 . S
C1500 C1505 1.390 . S
C1501 C1495 1.465 . S
C1501 C1500 1.396 . S
C1501 C1502 1.399 . S
C1502 H1488 0.929 . S
C1502 C1501 1.399 . S
C1502 C1503 1.385 . S
C1503 H1489 0.931 . S
C1503 C1502 1.385 . S
C1503 C1504 1.389 . S
C1504 C1503 1.389 . S
C1504 C1505 1.387 . S
C1505 H1490 0.930 . S
C1505 C1500 1.390 . S
C1505 C1504 1.387 . S
H1506 C1518 0.930 . S
H1507 C1520 0.930 . S
H1508 C1521 0.930 . S
H1509 C1525 0.959 . S
H1510 C1525 0.959 . S
H1511 C1525 0.961 . S
H1512 C1526 0.960 . S
H1513 C1526 0.961 . S
H1514 C1526 0.959 . S
H1515 C1529 0.929 . S
H1516 C1530 0.931 . S
H1517 C1532 0.930 . S
C1518 H1506 0.930 . S
C1518 C1519 1.399 . S
C1518 C1523 1.399 . S
C1519 C1518 1.399 . S
C1519 C1520 1.376 . S
C1520 H1507 0.930 . S
C1520 C1519 1.376 . S
C1520 C1521 1.388 . S
C1521 H1508 0.930 . S
C1521 C1520 1.388 . S
C1521 C1522 1.390 . S
C1522 C1521 1.390 . S
C1522 C1523 1.394 . S
C1522 C1528 1.465 . S
C1523 C1518 1.399 . S
C1523 C1522 1.394 . S
C1523 C1524 1.516 . S
C1524 C1523 1.516 . S
C1524 C1525 1.502 . S
C1524 C1526 1.561 . S
C1524 C1527 1.526 . S
C1525 H1509 0.959 . S
C1525 H1510 0.959 . S
C1525 H1511 0.961 . S
C1525 C1524 1.502 . S
C1526 H1512 0.960 . S
C1526 H1513 0.961 . S
C1526 H1514 0.959 . S
C1526 C1524 1.561 . S
C1527 C1524 1.526 . S
C1527 C1528 1.396 . S
C1527 C1532 1.390 . S
C1528 C1522 1.465 . S
C1528 C1527 1.396 . S
C1528 C1529 1.399 . S
C1529 H1515 0.929 . S
C1529 C1528 1.399 . S
C1529 C1530 1.385 . S
C1530 H1516 0.931 . S
C1530 C1529 1.385 . S
C1530 C1531 1.389 . S
C1531 C1530 1.389 . S
C1531 C1532 1.387 . S
C1532 H1517 0.930 . S
C1532 C1527 1.390 . S
C1532 C1531 1.387 . S
H1533 C1545 0.930 . S
H1534 C1547 0.930 . S
H1535 C1548 0.930 . S
H1536 C1552 0.959 . S
H1537 C1552 0.959 . S
H1538 C1552 0.961 . S
H1539 C1553 0.960 . S
H1540 C1553 0.961 . S
H1541 C1553 0.959 . S
H1542 C1556 0.929 . S
H1543 C1557 0.931 . S
H1544 C1559 0.930 . S
C1545 H1533 0.930 . S
C1545 C1546 1.399 . S
C1545 C1550 1.399 . S
C1546 C1545 1.399 . S
C1546 C1547 1.376 . S
C1547 H1534 0.930 . S
C1547 C1546 1.376 . S
C1547 C1548 1.388 . S
C1548 H1535 0.930 . S
C1548 C1547 1.388 . S
C1548 C1549 1.390 . S
C1549 C1548 1.390 . S
C1549 C1550 1.394 . S
C1549 C1555 1.465 . S
C1550 C1545 1.399 . S
C1550 C1549 1.394 . S
C1550 C1551 1.516 . S
C1551 C1550 1.516 . S
C1551 C1552 1.502 . S
C1551 C1553 1.561 . S
C1551 C1554 1.526 . S
C1552 H1536 0.959 . S
C1552 H1537 0.959 . S
C1552 H1538 0.961 . S
C1552 C1551 1.502 . S
C1553 H1539 0.960 . S
C1553 H1540 0.961 . S
C1553 H1541 0.959 . S
C1553 C1551 1.561 . S
C1554 C1551 1.526 . S
C1554 C1555 1.396 . S
C1554 C1559 1.390 . S
C1555 C1549 1.465 . S
C1555 C1554 1.396 . S
C1555 C1556 1.399 . S
C1556 H1542 0.929 . S
C1556 C1555 1.399 . S
C1556 C1557 1.385 . S
C1557 H1543 0.931 . S
C1557 C1556 1.385 . S
C1557 C1558 1.389 . S
C1558 C1557 1.389 . S
C1558 C1559 1.387 . S
C1559 H1544 0.930 . S
C1559 C1554 1.390 . S
C1559 C1558 1.387 . S
H1560 C1572 0.930 . S
H1561 C1574 0.930 . S
H1562 C1575 0.930 . S
H1563 C1579 0.959 . S
H1564 C1579 0.959 . S
H1565 C1579 0.961 . S
H1566 C1580 0.960 . S
H1567 C1580 0.961 . S
H1568 C1580 0.959 . S
H1569 C1583 0.929 . S
H1570 C1584 0.931 . S
H1571 C1586 0.930 . S
C1572 H1560 0.930 . S
C1572 C1573 1.399 . S
C1572 C1577 1.399 . S
C1573 C1572 1.399 . S
C1573 C1574 1.376 . S
C1574 H1561 0.930 . S
C1574 C1573 1.376 . S
C1574 C1575 1.388 . S
C1575 H1562 0.930 . S
C1575 C1574 1.388 . S
C1575 C1576 1.390 . S
C1576 C1575 1.390 . S
C1576 C1577 1.394 . S
C1576 C1582 1.465 . S
C1577 C1572 1.399 . S
C1577 C1576 1.394 . S
C1577 C1578 1.516 . S
C1578 C1577 1.516 . S
C1578 C1579 1.502 . S
C1578 C1580 1.561 . S
C1578 C1581 1.526 . S
C1579 H1563 0.959 . S
C1579 H1564 0.959 . S
C1579 H1565 0.961 . S
C1579 C1578 1.502 . S
C1580 H1566 0.960 . S
C1580 H1567 0.961 . S
C1580 H1568 0.959 . S
C1580 C1578 1.561 . S
C1581 C1578 1.526 . S
C1581 C1582 1.396 . S
C1581 C1586 1.390 . S
C1582 C1576 1.465 . S
C1582 C1581 1.396 . S
C1582 C1583 1.399 . S
C1583 H1569 0.929 . S
C1583 C1582 1.399 . S
C1583 C1584 1.385 . S
C1584 H1570 0.931 . S
C1584 C1583 1.385 . S
C1584 C1585 1.389 . S
C1585 C1584 1.389 . S
C1585 C1586 1.387 . S
C1586 H1571 0.930 . S
C1586 C1581 1.390 . S
C1586 C1585 1.387 . S
H1587 C1599 0.930 . S
H1588 C1601 0.930 . S
H1589 C1602 0.930 . S
H1590 C1606 0.959 . S
H1591 C1606 0.959 . S
H1592 C1606 0.961 . S
H1593 C1607 0.960 . S
H1594 C1607 0.961 . S
H1595 C1607 0.959 . S
H1596 C1610 0.929 . S
H1597 C1611 0.931 . S
H1598 C1613 0.930 . S
C1599 H1587 0.930 . S
C1599 C1600 1.399 . S
C1599 C1604 1.399 . S
C1600 C1599 1.399 . S
C1600 C1601 1.376 . S
C1601 H1588 0.930 . S
C1601 C1600 1.376 . S
C1601 C1602 1.388 . S
C1602 H1589 0.930 . S
C1602 C1601 1.388 . S
C1602 C1603 1.390 . S
C1603 C1602 1.390 . S
C1603 C1604 1.394 . S
C1603 C1609 1.465 . S
C1604 C1599 1.399 . S
C1604 C1603 1.394 . S
C1604 C1605 1.516 . S
C1605 C1604 1.516 . S
C1605 C1606 1.502 . S
C1605 C1607 1.561 . S
C1605 C1608 1.526 . S
C1606 H1590 0.959 . S
C1606 H1591 0.959 . S
C1606 H1592 0.961 . S
C1606 C1605 1.502 . S
C1607 H1593 0.960 . S
C1607 H1594 0.961 . S
C1607 H1595 0.959 . S
C1607 C1605 1.561 . S
C1608 C1605 1.526 . S
C1608 C1609 1.396 . S
C1608 C1613 1.390 . S
C1609 C1603 1.465 . S
C1609 C1608 1.396 . S
C1609 C1610 1.399 . S
C1610 H1596 0.929 . S
C1610 C1609 1.399 . S
C1610 C1611 1.385 . S
C1611 H1597 0.931 . S
C1611 C1610 1.385 . S
C1611 C1612 1.389 . S
C1612 C1611 1.389 . S
C1612 C1613 1.387 . S
C1613 H1598 0.930 . S
C1613 C1608 1.390 . S
C1613 C1612 1.387 . S
H1614 C1626 0.930 . S
H1615 C1628 0.930 . S
H1616 C1629 0.930 . S
H1617 C1633 0.959 . S
H1618 C1633 0.959 . S
H1619 C1633 0.961 . S
H1620 C1634 0.960 . S
H1621 C1634 0.961 . S
H1622 C1634 0.959 . S
H1623 C1637 0.929 . S
H1624 C1638 0.931 . S
H1625 C1640 0.930 . S
C1626 H1614 0.930 . S
C1626 C1627 1.399 . S
C1626 C1631 1.399 . S
C1627 C1626 1.399 . S
C1627 C1628 1.376 . S
C1628 H1615 0.930 . S
C1628 C1627 1.376 . S
C1628 C1629 1.388 . S
C1629 H1616 0.930 . S
C1629 C1628 1.388 . S
C1629 C1630 1.390 . S
C1630 C1629 1.390 . S
C1630 C1631 1.394 . S
C1630 C1636 1.465 . S
C1631 C1626 1.399 . S
C1631 C1630 1.394 . S
C1631 C1632 1.516 . S
C1632 C1631 1.516 . S
C1632 C1633 1.502 . S
C1632 C1634 1.561 . S
C1632 C1635 1.526 . S
C1633 H1617 0.959 . S
C1633 H1618 0.959 . S
C1633 H1619 0.961 . S
C1633 C1632 1.502 . S
C1634 H1620 0.960 . S
C1634 H1621 0.961 . S
C1634 H1622 0.959 . S
C1634 C1632 1.561 . S
C1635 C1632 1.526 . S
C1635 C1636 1.396 . S
C1635 C1640 1.390 . S
C1636 C1630 1.465 . S
C1636 C1635 1.396 . S
C1636 C1637 1.399 . S
C1637 H1623 0.929 . S
C1637 C1636 1.399 . S
C1637 C1638 1.385 . S
C1638 H1624 0.931 . S
C1638 C1637 1.385 . S
C1638 C1639 1.389 . S
C1639 C1638 1.389 . S
C1639 C1640 1.387 . S
C1640 H1625 0.930 . S
C1640 C1635 1.390 . S
C1640 C1639 1.387 . S
H1641 C1653 0.930 . S
H1642 C1655 0.930 . S
H1643 C1656 0.930 . S
H1644 C1660 0.959 . S
H1645 C1660 0.959 . S
H1646 C1660 0.961 . S
H1647 C1661 0.960 . S
H1648 C1661 0.961 . S
H1649 C1661 0.959 . S
H1650 C1664 0.929 . S
H1651 C1665 0.931 . S
H1652 C1667 0.930 . S
C1653 H1641 0.930 . S
C1653 C1654 1.399 . S
C1653 C1658 1.399 . S
C1654 C1653 1.399 . S
C1654 C1655 1.376 . S
C1655 H1642 0.930 . S
C1655 C1654 1.376 . S
C1655 C1656 1.388 . S
C1656 H1643 0.930 . S
C1656 C1655 1.388 . S
C1656 C1657 1.390 . S
C1657 C1656 1.390 . S
C1657 C1658 1.394 . S
C1657 C1663 1.465 . S
C1658 C1653 1.399 . S
C1658 C1657 1.394 . S
C1658 C1659 1.516 . S
C1659 C1658 1.516 . S
C1659 C1660 1.502 . S
C1659 C1661 1.561 . S
C1659 C1662 1.526 . S
C1660 H1644 0.959 . S
C1660 H1645 0.959 . S
C1660 H1646 0.961 . S
C1660 C1659 1.502 . S
C1661 H1647 0.960 . S
C1661 H1648 0.961 . S
C1661 H1649 0.959 . S
C1661 C1659 1.561 . S
C1662 C1659 1.526 . S
C1662 C1663 1.396 . S
C1662 C1667 1.390 . S
C1663 C1657 1.465 . S
C1663 C1662 1.396 . S
C1663 C1664 1.399 . S
C1664 H1650 0.929 . S
C1664 C1663 1.399 . S
C1664 C1665 1.385 . S
C1665 H1651 0.931 . S
C1665 C1664 1.385 . S
C1665 C1666 1.389 . S
C1666 C1665 1.389 . S
C1666 C1667 1.387 . S
C1667 H1652 0.930 . S
C1667 C1662 1.390 . S
C1667 C1666 1.387 . S
H1668 C1680 0.930 . S
H1669 C1682 0.930 . S
H1670 C1683 0.930 . S
H1671 C1687 0.959 . S
H1672 C1687 0.959 . S
H1673 C1687 0.961 . S
H1674 C1688 0.960 . S
H1675 C1688 0.961 . S
H1676 C1688 0.959 . S
H1677 C1691 0.929 . S
H1678 C1692 0.931 . S
H1679 C1694 0.930 . S
C1680 H1668 0.930 . S
C1680 C1681 1.399 . S
C1680 C1685 1.399 . S
C1681 C1680 1.399 . S
C1681 C1682 1.376 . S
C1682 H1669 0.930 . S
C1682 C1681 1.376 . S
C1682 C1683 1.388 . S
C1683 H1670 0.930 . S
C1683 C1682 1.388 . S
C1683 C1684 1.390 . S
C1684 C1683 1.390 . S
C1684 C1685 1.394 . S
C1684 C1690 1.465 . S
C1685 C1680 1.399 . S
C1685 C1684 1.394 . S
C1685 C1686 1.516 . S
C1686 C1685 1.516 . S
C1686 C1687 1.502 . S
C1686 C1688 1.561 . S
C1686 C1689 1.526 . S
C1687 H1671 0.959 . S
C1687 H1672 0.959 . S
C1687 H1673 0.961 . S
C1687 C1686 1.502 . S
C1688 H1674 0.960 . S
C1688 H1675 0.961 . S
C1688 H1676 0.959 . S
C1688 C1686 1.561 . S
C1689 C1686 1.526 . S
C1689 C1690 1.396 . S
C1689 C1694 1.390 . S
C1690 C1684 1.465 . S
C1690 C1689 1.396 . S
C1690 C1691 1.399 . S
C1691 H1677 0.929 . S
C1691 C1690 1.399 . S
C1691 C1692 1.385 . S
C1692 H1678 0.931 . S
C1692 C1691 1.385 . S
C1692 C1693 1.389 . S
C1693 C1692 1.389 . S
C1693 C1694 1.387 . S
C1694 H1679 0.930 . S
C1694 C1689 1.390 . S
C1694 C1693 1.387 . S
H1695 C1707 0.930 . S
H1696 C1709 0.930 . S
H1697 C1710 0.930 . S
H1698 C1714 0.959 . S
H1699 C1714 0.959 . S
H1700 C1714 0.961 . S
H1701 C1715 0.960 . S
H1702 C1715 0.961 . S
H1703 C1715 0.959 . S
H1704 C1718 0.929 . S
H1705 C1719 0.931 . S
H1706 C1721 0.930 . S
C1707 H1695 0.930 . S
C1707 C1708 1.399 . S
C1707 C1712 1.399 . S
C1708 C1707 1.399 . S
C1708 C1709 1.376 . S
C1709 H1696 0.930 . S
C1709 C1708 1.376 . S
C1709 C1710 1.388 . S
C1710 H1697 0.930 . S
C1710 C1709 1.388 . S
C1710 C1711 1.390 . S
C1711 C1710 1.390 . S
C1711 C1712 1.394 . S
C1711 C1717 1.465 . S
C1712 C1707 1.399 . S
C1712 C1711 1.394 . S
C1712 C1713 1.516 . S
C1713 C1712 1.516 . S
C1713 C1714 1.502 . S
C1713 C1715 1.561 . S
C1713 C1716 1.526 . S
C1714 H1698 0.959 . S
C1714 H1699 0.959 . S
C1714 H1700 0.961 . S
C1714 C1713 1.502 . S
C1715 H1701 0.960 . S
C1715 H1702 0.961 . S
C1715 H1703 0.959 . S
C1715 C1713 1.561 . S
C1716 C1713 1.526 . S
C1716 C1717 1.396 . S
C1716 C1721 1.390 . S
C1717 C1711 1.465 . S
C1717 C1716 1.396 . S
C1717 C1718 1.399 . S
C1718 H1704 0.929 . S
C1718 C1717 1.399 . S
C1718 C1719 1.385 . S
C1719 H1705 0.931 . S
C1719 C1718 1.385 . S
C1719 C1720 1.389 . S
C1720 C1719 1.389 . S
C1720 C1721 1.387 . S
C1721 H1706 0.930 . S
C1721 C1716 1.390 . S
C1721 C1720 1.387 . S
H1722 C1734 0.930 . S
H1723 C1736 0.930 . S
H1724 C1737 0.930 . S
H1725 C1741 0.959 . S
H1726 C1741 0.985 . S
H1727 C1741 0.961 . S
H1728 C1742 0.960 . S
H1729 C1742 0.961 . S
H1730 C1742 0.959 . S
H1731 C1745 0.929 . S
H1732 C1746 0.931 . S
H1733 C1748 0.930 . S
C1734 H1722 0.930 . S
C1734 C1735 1.399 . S
C1734 C1739 1.399 . S
C1735 C1734 1.399 . S
C1735 C1736 1.376 . S
C1736 H1723 0.930 . S
C1736 C1735 1.376 . S
C1736 C1737 1.388 . S
C1737 H1724 0.930 . S
C1737 C1736 1.388 . S
C1737 C1738 1.390 . S
C1738 C1737 1.390 . S
C1738 C1739 1.394 . S
C1738 C1744 1.465 1_565 S
C1739 C1734 1.399 . S
C1739 C1738 1.394 . S
C1739 C1740 1.516 1_565 S
C1740 C1739 1.516 1_545 S
C1740 C1741 1.502 1_545 S
C1740 C1742 1.561 . S
C1740 C1743 1.526 . S
C1741 H1725 0.959 . S
C1741 H1726 0.985 . S
C1741 H1727 0.961 . S
C1741 C1740 1.502 1_565 S
C1742 H1728 0.960 . S
C1742 H1729 0.961 . S
C1742 H1730 0.959 . S
C1742 C1740 1.561 . S
C1743 C1740 1.526 . S
C1743 C1744 1.396 . S
C1743 C1748 1.390 . S
C1744 C1738 1.465 1_545 S
C1744 C1743 1.396 . S
C1744 C1745 1.399 . S
C1745 H1731 0.929 . S
C1745 C1744 1.399 . S
C1745 C1746 1.385 . S
C1746 H1732 0.931 . S
C1746 C1745 1.385 . S
C1746 C1747 1.389 . S
C1747 C1746 1.389 . S
C1747 C1748 1.387 . S
C1748 H1733 0.930 . S
C1748 C1743 1.390 . S
C1748 C1747 1.387 . S
H1749 C1761 0.930 . S
H1750 C1763 0.930 . S
H1751 C1764 0.930 . S
H1752 C1768 0.959 . S
H1753 C1768 0.959 . S
H1754 C1768 0.961 . S
H1755 C1769 0.960 . S
H1756 C1769 0.961 . S
H1757 C1769 0.959 1_655 S
H1758 C1772 0.929 1_655 S
H1759 C1773 0.931 . S
H1760 C1775 0.930 . S
C1761 H1749 0.930 . S
C1761 C1762 1.399 . S
C1761 C1766 1.399 . S
C1762 C1761 1.399 . S
C1762 C1763 1.376 . S
C1763 H1750 0.930 . S
C1763 C1762 1.376 . S
C1763 C1764 1.388 . S
C1764 H1751 0.930 . S
C1764 C1763 1.388 . S
C1764 C1765 1.390 . S
C1765 C1764 1.390 . S
C1765 C1766 1.394 . S
C1765 C1771 1.465 1_655 S
C1766 C1761 1.399 . S
C1766 C1765 1.394 . S
C1766 C1767 1.516 1_655 S
C1767 C1766 1.516 1_455 S
C1767 C1768 1.502 . S
C1767 C1769 1.561 . S
C1767 C1770 1.526 . S
C1768 H1752 0.959 . S
C1768 H1753 0.959 . S
C1768 H1754 0.961 . S
C1768 C1767 1.502 . S
C1769 H1755 0.960 . S
C1769 H1756 0.961 . S
C1769 H1757 0.959 1_455 S
C1769 C1767 1.561 . S
C1770 C1767 1.526 . S
C1770 C1771 1.396 . S
C1770 C1775 1.390 . S
C1771 C1765 1.465 1_455 S
C1771 C1770 1.396 . S
C1771 C1772 1.399 . S
C1772 H1758 0.929 1_455 S
C1772 C1771 1.399 . S
C1772 C1773 1.385 . S
C1773 H1759 0.931 . S
C1773 C1772 1.385 . S
C1773 C1774 1.389 . S
C1774 C1773 1.389 . S
C1774 C1775 1.387 . S
C1775 H1760 0.930 . S
C1775 C1770 1.390 . S
C1775 C1774 1.387 . S
H1776 C1788 0.930 . S
H1777 C1790 0.930 . S
H1778 C1791 0.930 . S
H1779 C1795 0.959 1_565 S
H1780 C1795 0.959 . S
H1781 C1795 0.961 1_565 S
H1782 C1796 0.960 . S
H1783 C1796 0.961 . S
H1784 C1796 0.959 . S
H1785 C1799 0.929 . S
H1786 C1800 0.931 . S
H1787 C1802 0.930 . S
C1788 H1776 0.930 . S
C1788 C1789 1.399 . S
C1788 C1793 1.399 . S
C1789 C1788 1.399 . S
C1789 C1790 1.376 . S
C1790 H1777 0.930 . S
C1790 C1789 1.376 . S
C1790 C1791 1.388 . S
C1791 H1778 0.930 . S
C1791 C1790 1.388 . S
C1791 C1792 1.390 . S
C1792 C1791 1.390 . S
C1792 C1793 1.394 . S
C1792 C1798 1.465 1_565 S
C1793 C1788 1.399 . S
C1793 C1792 1.394 . S
C1793 C1794 1.516 1_565 S
C1794 C1793 1.516 1_545 S
C1794 C1795 1.502 . S
C1794 C1796 1.561 . S
C1794 C1797 1.526 . S
C1795 H1779 0.959 1_545 S
C1795 H1780 0.959 . S
C1795 H1781 0.961 1_545 S
C1795 C1794 1.502 . S
C1796 H1782 0.960 . S
C1796 H1783 0.961 . S
C1796 H1784 0.959 . S
C1796 C1794 1.561 . S
C1797 C1794 1.526 . S
C1797 C1798 1.396 . S
C1797 C1802 1.390 . S
C1798 C1792 1.465 1_545 S
C1798 C1797 1.396 . S
C1798 C1799 1.399 . S
C1799 H1785 0.929 . S
C1799 C1798 1.399 . S
C1799 C1800 1.385 . S
C1800 H1786 0.931 . S
C1800 C1799 1.385 . S
C1800 C1801 1.389 . S
C1801 C1800 1.389 . S
C1801 C1802 1.387 . S
C1802 H1787 0.930 . S
C1802 C1797 1.390 . S
C1802 C1801 1.387 . S
H1803 C1815 0.930 . S
H1804 C1817 0.930 . S
H1805 C1818 0.930 . S
H1806 C1822 0.959 . S
H1807 C1822 0.959 . S
H1808 C1822 0.961 . S
H1809 C1823 0.960 . S
H1810 C1823 0.961 1_455 S
H1811 C1823 0.959 . S
H1812 C1826 0.941 . S
H1813 C1827 0.931 . S
H1814 C1829 0.930 . S
C1815 H1803 0.930 . S
C1815 C1816 1.399 . S
C1815 C1820 1.399 . S
C1816 C1815 1.399 . S
C1816 C1817 1.376 . S
C1817 H1804 0.930 . S
C1817 C1816 1.376 . S
C1817 C1818 1.388 . S
C1818 H1805 0.930 . S
C1818 C1817 1.388 . S
C1818 C1819 1.390 . S
C1819 C1818 1.390 . S
C1819 C1820 1.394 . S
C1819 C1825 1.465 1_655 S
C1820 C1815 1.399 . S
C1820 C1819 1.394 . S
C1820 C1821 1.516 1_655 S
C1821 C1820 1.516 1_455 S
C1821 C1822 1.502 . S
C1821 C1823 1.561 1_455 S
C1821 C1824 1.526 . S
C1822 H1806 0.959 . S
C1822 H1807 0.959 . S
C1822 H1808 0.961 . S
C1822 C1821 1.502 . S
C1823 H1809 0.960 . S
C1823 H1810 0.961 1_655 S
C1823 H1811 0.959 . S
C1823 C1821 1.561 1_655 S
C1824 C1821 1.526 . S
C1824 C1825 1.396 . S
C1824 C1829 1.390 . S
C1825 C1819 1.465 1_455 S
C1825 C1824 1.396 . S
C1825 C1826 1.399 . S
C1826 H1812 0.941 . S
C1826 C1825 1.399 . S
C1826 C1827 1.385 . S
C1827 H1813 0.931 . S
C1827 C1826 1.385 . S
C1827 C1828 1.389 . S
C1828 C1827 1.389 . S
C1828 C1829 1.387 . S
C1829 H1814 0.930 . S
C1829 C1824 1.390 . S
C1829 C1828 1.387 . S
H1830 C1842 0.930 . S
H1831 C1844 0.930 . S
H1832 C1845 0.930 . S
H1833 C1849 0.959 . S
H1834 C1849 0.959 . S
H1835 C1849 0.961 . S
H1836 C1850 0.960 . S
H1837 C1850 0.961 . S
H1838 C1850 0.959 . S
H1839 C1853 0.929 . S
H1840 C1854 0.931 . S
H1841 C1856 0.930 . S
C1842 H1830 0.930 . S
C1842 C1843 1.399 . S
C1842 C1847 1.399 . S
C1843 C1842 1.399 . S
C1843 C1844 1.376 . S
C1844 H1831 0.930 . S
C1844 C1843 1.376 . S
C1844 C1845 1.388 . S
C1845 H1832 0.930 . S
C1845 C1844 1.388 . S
C1845 C1846 1.390 . S
C1846 C1845 1.390 . S
C1846 C1847 1.394 . S
C1846 C1852 1.465 . S
C1847 C1842 1.399 . S
C1847 C1846 1.394 . S
C1847 C1848 1.516 . S
C1848 C1847 1.516 . S
C1848 C1849 1.502 . S
C1848 C1850 1.561 . S
C1848 C1851 1.526 . S
C1849 H1833 0.959 . S
C1849 H1834 0.959 . S
C1849 H1835 0.961 . S
C1849 C1848 1.502 . S
C1850 H1836 0.960 . S
C1850 H1837 0.961 . S
C1850 H1838 0.959 . S
C1850 C1848 1.561 . S
C1851 C1848 1.526 . S
C1851 C1852 1.396 . S
C1851 C1856 1.390 . S
C1852 C1846 1.465 . S
C1852 C1851 1.396 . S
C1852 C1853 1.399 . S
C1853 H1839 0.929 . S
C1853 C1852 1.399 . S
C1853 C1854 1.385 . S
C1854 H1840 0.931 . S
C1854 C1853 1.385 . S
C1854 C1855 1.389 . S
C1855 C1854 1.389 . S
C1855 C1856 1.387 . S
C1856 H1841 0.930 . S
C1856 C1851 1.390 . S
C1856 C1855 1.387 . S
H1857 C1869 0.930 . S
H1858 C1871 0.930 . S
H1859 C1872 0.930 . S
H1860 C1876 0.959 . S
H1861 C1876 0.959 . S
H1862 C1876 0.961 . S
H1863 C1877 0.960 . S
H1864 C1877 0.961 . S
H1865 C1877 0.959 . S
H1866 C1880 0.929 . S
H1867 C1881 0.931 . S
H1868 C1883 0.930 . S
C1869 H1857 0.930 . S
C1869 C1870 1.399 . S
C1869 C1874 1.399 . S
C1870 C1869 1.399 . S
C1870 C1871 1.376 . S
C1871 H1858 0.930 . S
C1871 C1870 1.376 . S
C1871 C1872 1.388 . S
C1872 H1859 0.930 . S
C1872 C1871 1.388 . S
C1872 C1873 1.390 . S
C1873 C1872 1.390 . S
C1873 C1874 1.394 . S
C1873 C1879 1.465 . S
C1874 C1869 1.399 . S
C1874 C1873 1.394 . S
C1874 C1875 1.516 . S
C1875 C1874 1.516 . S
C1875 C1876 1.502 . S
C1875 C1877 1.561 . S
C1875 C1878 1.526 . S
C1876 H1860 0.959 . S
C1876 H1861 0.959 . S
C1876 H1862 0.961 . S
C1876 C1875 1.502 . S
C1877 H1863 0.960 . S
C1877 H1864 0.961 . S
C1877 H1865 0.959 . S
C1877 C1875 1.561 . S
C1878 C1875 1.526 . S
C1878 C1879 1.396 . S
C1878 C1883 1.390 . S
C1879 C1873 1.465 . S
C1879 C1878 1.396 . S
C1879 C1880 1.399 . S
C1880 H1866 0.929 . S
C1880 C1879 1.399 . S
C1880 C1881 1.385 . S
C1881 H1867 0.931 . S
C1881 C1880 1.385 . S
C1881 C1882 1.389 . S
C1882 C1881 1.389 . S
C1882 C1883 1.387 . S
C1883 H1868 0.930 . S
C1883 C1878 1.390 . S
C1883 C1882 1.387 . S
H1884 C1896 0.930 . S
H1885 C1898 0.930 . S
H1886 C1899 0.930 . S
H1887 C1903 0.959 . S
H1888 C1903 0.959 . S
H1889 C1903 0.961 . S
H1890 C1904 0.960 . S
H1891 C1904 0.961 . S
H1892 C1904 0.959 . S
H1893 C1907 0.929 . S
H1894 C1908 0.931 . S
H1895 C1910 0.930 . S
C1896 H1884 0.930 . S
C1896 C1897 1.399 . S
C1896 C1901 1.399 . S
C1897 C1896 1.399 . S
C1897 C1898 1.376 . S
C1898 H1885 0.930 . S
C1898 C1897 1.376 . S
C1898 C1899 1.388 . S
C1899 H1886 0.930 . S
C1899 C1898 1.388 . S
C1899 C1900 1.390 . S
C1900 C1899 1.390 . S
C1900 C1901 1.394 . S
C1900 C1906 1.465 . S
C1901 C1896 1.399 . S
C1901 C1900 1.394 . S
C1901 C1902 1.516 . S
C1902 C1901 1.516 . S
C1902 C1903 1.502 . S
C1902 C1904 1.561 . S
C1902 C1905 1.526 . S
C1903 H1887 0.959 . S
C1903 H1888 0.959 . S
C1903 H1889 0.961 . S
C1903 C1902 1.502 . S
C1904 H1890 0.960 . S
C1904 H1891 0.961 . S
C1904 H1892 0.959 . S
C1904 C1902 1.561 . S
C1905 C1902 1.526 . S
C1905 C1906 1.396 . S
C1905 C1910 1.390 . S
C1906 C1900 1.465 . S
C1906 C1905 1.396 . S
C1906 C1907 1.399 . S
C1907 H1893 0.929 . S
C1907 C1906 1.399 . S
C1907 C1908 1.385 . S
C1908 H1894 0.931 . S
C1908 C1907 1.385 . S
C1908 C1909 1.389 . S
C1909 C1908 1.389 . S
C1909 C1910 1.387 . S
C1910 H1895 0.930 . S
C1910 C1905 1.390 . S
C1910 C1909 1.387 . S
H1911 C1923 0.930 . S
H1912 C1925 0.930 . S
H1913 C1926 0.930 . S
H1914 C1930 0.959 . S
H1915 C1930 0.959 . S
H1916 C1930 0.961 . S
H1917 C1931 0.960 . S
H1918 C1931 0.961 . S
H1919 C1931 0.959 . S
H1920 C1934 0.929 1_554 S
H1921 C1935 0.931 . S
H1922 C1937 0.930 . S
C1923 H1911 0.930 . S
C1923 C1924 1.399 . S
C1923 C1928 1.399 . S
C1924 C1923 1.399 . S
C1924 C1925 1.376 . S
C1925 H1912 0.930 . S
C1925 C1924 1.376 . S
C1925 C1926 1.388 . S
C1926 H1913 0.930 . S
C1926 C1925 1.388 . S
C1926 C1927 1.390 . S
C1927 C1926 1.390 . S
C1927 C1928 1.394 . S
C1927 C1933 1.465 1_554 S
C1928 C1923 1.399 . S
C1928 C1927 1.394 . S
C1928 C1929 1.516 1_554 S
C1929 C1928 1.516 1_556 S
C1929 C1930 1.502 . S
C1929 C1931 1.561 . S
C1929 C1932 1.526 . S
C1930 H1914 0.959 . S
C1930 H1915 0.959 . S
C1930 H1916 0.961 . S
C1930 C1929 1.502 . S
C1931 H1917 0.960 . S
C1931 H1918 0.961 . S
C1931 H1919 0.959 . S
C1931 C1929 1.561 . S
C1932 C1929 1.526 . S
C1932 C1933 1.396 . S
C1932 C1937 1.390 . S
C1933 C1927 1.465 1_556 S
C1933 C1932 1.396 . S
C1933 C1934 1.399 . S
C1934 H1920 0.929 1_556 S
C1934 C1933 1.399 . S
C1934 C1935 1.385 . S
C1935 H1921 0.931 . S
C1935 C1934 1.385 . S
C1935 C1936 1.389 . S
C1936 C1935 1.389 . S
C1936 C1937 1.387 . S
C1937 H1922 0.930 . S
C1937 C1932 1.390 . S
C1937 C1936 1.387 . S
H1938 C1950 0.930 . S
H1939 C1952 0.930 . S
H1940 C1953 0.930 . S
H1941 C1957 0.959 . S
H1942 C1957 0.959 . S
H1943 C1957 0.961 . S
H1944 C1958 0.960 . S
H1945 C1958 0.961 . S
H1946 C1958 0.959 . S
H1947 C1961 0.929 . S
H1948 C1962 0.931 . S
H1949 C1964 0.930 . S
C1950 H1938 0.930 . S
C1950 C1951 1.399 . S
C1950 C1955 1.399 . S
C1951 C1950 1.399 . S
C1951 C1952 1.376 . S
C1952 H1939 0.930 . S
C1952 C1951 1.376 . S
C1952 C1953 1.388 . S
C1953 H1940 0.930 . S
C1953 C1952 1.388 . S
C1953 C1954 1.390 . S
C1954 C1953 1.390 . S
C1954 C1955 1.394 . S
C1954 C1960 1.465 . S
C1955 C1950 1.399 . S
C1955 C1954 1.394 . S
C1955 C1956 1.516 . S
C1956 C1955 1.516 . S
C1956 C1957 1.502 . S
C1956 C1958 1.561 . S
C1956 C1959 1.526 . S
C1957 H1941 0.959 . S
C1957 H1942 0.959 . S
C1957 H1943 0.961 . S
C1957 C1956 1.502 . S
C1958 H1944 0.960 . S
C1958 H1945 0.961 . S
C1958 H1946 0.959 . S
C1958 C1956 1.561 . S
C1959 C1956 1.526 . S
C1959 C1960 1.396 . S
C1959 C1964 1.390 . S
C1960 C1954 1.465 . S
C1960 C1959 1.396 . S
C1960 C1961 1.399 . S
C1961 H1947 0.929 . S
C1961 C1960 1.399 . S
C1961 C1962 1.385 . S
C1962 H1948 0.931 . S
C1962 C1961 1.385 . S
C1962 C1963 1.389 . S
C1963 C1962 1.389 . S
C1963 C1964 1.387 . S
C1964 H1949 0.930 . S
C1964 C1959 1.390 . S
C1964 C1963 1.387 . S
H1965 C1977 0.930 . S
H1966 C1979 0.930 . S
H1967 C1980 0.930 . S
H1968 C1984 0.959 . S
H1969 C1984 0.959 . S
H1970 C1984 0.961 . S
H1971 C1985 0.960 . S
H1972 C1985 0.961 1_554 S
H1973 C1985 0.959 . S
H1974 C1988 0.931 . S
H1975 C1989 0.931 . S
H1976 C1991 0.930 . S
C1977 H1965 0.930 . S
C1977 C1978 1.399 . S
C1977 C1982 1.399 . S
C1978 C1977 1.399 . S
C1978 C1979 1.376 . S
C1979 H1966 0.930 . S
C1979 C1978 1.376 . S
C1979 C1980 1.388 . S
C1980 H1967 0.930 . S
C1980 C1979 1.388 . S
C1980 C1981 1.390 . S
C1981 C1980 1.390 . S
C1981 C1982 1.394 . S
C1981 C1987 1.465 1_556 S
C1982 C1977 1.399 . S
C1982 C1981 1.394 . S
C1982 C1983 1.516 1_556 S
C1983 C1982 1.516 1_554 S
C1983 C1984 1.502 . S
C1983 C1985 1.561 1_554 S
C1983 C1986 1.526 . S
C1984 H1968 0.959 . S
C1984 H1969 0.959 . S
C1984 H1970 0.961 . S
C1984 C1983 1.502 . S
C1985 H1971 0.960 . S
C1985 H1972 0.961 1_556 S
C1985 H1973 0.959 . S
C1985 C1983 1.561 1_556 S
C1986 C1983 1.526 . S
C1986 C1987 1.396 . S
C1986 C1991 1.390 . S
C1987 C1981 1.465 1_554 S
C1987 C1986 1.396 . S
C1987 C1988 1.399 . S
C1988 H1974 0.931 . S
C1988 C1987 1.399 . S
C1988 C1989 1.385 . S
C1989 H1975 0.931 . S
C1989 C1988 1.385 . S
C1989 C1990 1.389 . S
C1990 C1989 1.389 . S
C1990 C1991 1.387 . S
C1991 H1976 0.930 . S
C1991 C1986 1.390 . S
C1991 C1990 1.387 . S
H1992 C2004 0.930 . S
H1993 C2006 0.930 . S
H1994 C2007 0.930 . S
H1995 C2011 0.959 . S
H1996 C2011 0.959 . S
H1997 C2011 0.961 . S
H1998 C2012 0.960 . S
H1999 C2012 0.961 . S
H2000 C2012 0.959 . S
H2001 C2015 0.929 . S
H2002 C2016 0.931 . S
H2003 C2018 0.930 . S
C2004 H1992 0.930 . S
C2004 C2005 1.399 . S
C2004 C2009 1.399 . S
C2005 C2004 1.399 . S
C2005 C2006 1.376 . S
C2006 H1993 0.930 . S
C2006 C2005 1.376 . S
C2006 C2007 1.388 . S
C2007 H1994 0.930 . S
C2007 C2006 1.388 . S
C2007 C2008 1.390 . S
C2008 C2007 1.390 . S
C2008 C2009 1.394 . S
C2008 C2014 1.465 . S
C2009 C2004 1.399 . S
C2009 C2008 1.394 . S
C2009 C2010 1.516 . S
C2010 C2009 1.516 . S
C2010 C2011 1.502 . S
C2010 C2012 1.561 . S
C2010 C2013 1.526 . S
C2011 H1995 0.959 . S
C2011 H1996 0.959 . S
C2011 H1997 0.961 . S
C2011 C2010 1.502 . S
C2012 H1998 0.960 . S
C2012 H1999 0.961 . S
C2012 H2000 0.959 . S
C2012 C2010 1.561 . S
C2013 C2010 1.526 . S
C2013 C2014 1.396 . S
C2013 C2018 1.390 . S
C2014 C2008 1.465 . S
C2014 C2013 1.396 . S
C2014 C2015 1.399 . S
C2015 H2001 0.929 . S
C2015 C2014 1.399 . S
C2015 C2016 1.385 . S
C2016 H2002 0.931 . S
C2016 C2015 1.385 . S
C2016 C2017 1.389 . S
C2017 C2016 1.389 . S
C2017 C2018 1.387 . S
C2018 H2003 0.930 . S
C2018 C2013 1.390 . S
C2018 C2017 1.387 . S
H2019 C2031 0.930 . S
H2020 C2033 0.930 . S
H2021 C2034 0.930 . S
H2022 C2038 0.959 . S
H2023 C2038 0.959 . S
H2024 C2038 0.961 . S
H2025 C2039 0.960 . S
H2026 C2039 0.961 . S
H2027 C2039 0.959 . S
H2028 C2042 0.929 . S
H2029 C2043 0.931 . S
H2030 C2045 0.930 . S
C2031 H2019 0.930 . S
C2031 C2032 1.399 . S
C2031 C2036 1.399 . S
C2032 C2031 1.399 . S
C2032 C2033 1.376 . S
C2033 H2020 0.930 . S
C2033 C2032 1.376 . S
C2033 C2034 1.388 . S
C2034 H2021 0.930 . S
C2034 C2033 1.388 . S
C2034 C2035 1.390 . S
C2035 C2034 1.390 . S
C2035 C2036 1.394 . S
C2035 C2041 1.465 . S
C2036 C2031 1.399 . S
C2036 C2035 1.394 . S
C2036 C2037 1.516 . S
C2037 C2036 1.516 . S
C2037 C2038 1.502 . S
C2037 C2039 1.561 . S
C2037 C2040 1.526 . S
C2038 H2022 0.959 . S
C2038 H2023 0.959 . S
C2038 H2024 0.961 . S
C2038 C2037 1.502 . S
C2039 H2025 0.960 . S
C2039 H2026 0.961 . S
C2039 H2027 0.959 . S
C2039 C2037 1.561 . S
C2040 C2037 1.526 . S
C2040 C2041 1.396 . S
C2040 C2045 1.390 . S
C2041 C2035 1.465 . S
C2041 C2040 1.396 . S
C2041 C2042 1.399 . S
C2042 H2028 0.929 . S
C2042 C2041 1.399 . S
C2042 C2043 1.385 . S
C2043 H2029 0.931 . S
C2043 C2042 1.385 . S
C2043 C2044 1.389 . S
C2044 C2043 1.389 . S
C2044 C2045 1.387 . S
C2045 H2030 0.930 . S
C2045 C2040 1.390 . S
C2045 C2044 1.387 . S
H2046 C2058 0.930 . S
H2047 C2060 0.930 . S
H2048 C2061 0.930 . S
H2049 C2065 0.961 . S
H2050 C2065 0.968 . S
H2051 C2065 0.950 1_565 S
H2052 C2066 0.960 . S
H2053 C2066 0.961 1_545 S
H2054 C2066 0.959 . S
H2055 C2069 0.929 . S
H2056 C2070 0.931 . S
H2057 C2072 0.930 . S
C2058 H2046 0.930 . S
C2058 C2059 1.399 . S
C2058 C2063 1.399 . S
C2059 C2058 1.399 . S
C2059 C2060 1.376 . S
C2060 H2047 0.930 . S
C2060 C2059 1.376 . S
C2060 C2061 1.388 . S
C2061 H2048 0.930 . S
C2061 C2060 1.388 . S
C2061 C2062 1.390 . S
C2062 C2061 1.390 . S
C2062 C2063 1.394 . S
C2062 C2068 1.465 1_565 S
C2063 C2058 1.399 . S
C2063 C2062 1.394 . S
C2063 C2064 1.541 . S
C2064 C2063 1.541 . S
C2064 C2065 1.501 1_565 S
C2064 C2066 1.563 . S
C2064 C2067 1.500 1_565 S
C2065 H2049 0.961 . S
C2065 H2050 0.968 . S
C2065 H2051 0.950 1_545 S
C2065 C2064 1.501 1_545 S
C2066 H2052 0.960 . S
C2066 H2053 0.961 1_565 S
C2066 H2054 0.959 . S
C2066 C2064 1.563 . S
C2067 C2064 1.500 1_545 S
C2067 C2068 1.396 . S
C2067 C2072 1.390 . S
C2068 C2062 1.465 1_545 S
C2068 C2067 1.396 . S
C2068 C2069 1.399 . S
C2069 H2055 0.929 . S
C2069 C2068 1.399 . S
C2069 C2070 1.385 . S
C2070 H2056 0.931 . S
C2070 C2069 1.385 . S
C2070 C2071 1.389 . S
C2071 C2070 1.389 . S
C2071 C2072 1.387 . S
C2072 H2057 0.930 . S
C2072 C2067 1.390 . S
C2072 C2071 1.387 . S
H2073 C2085 0.930 . S
H2074 C2087 0.930 . S
H2075 C2088 0.930 . S
H2076 C2092 0.959 . S
H2077 C2092 0.959 . S
H2078 C2092 0.961 1_655 S
H2079 C2093 0.960 1_655 S
H2080 C2093 0.961 . S
H2081 C2093 0.959 . S
H2082 C2096 0.929 . S
H2083 C2097 0.931 . S
H2084 C2099 0.930 . S
C2085 H2073 0.930 . S
C2085 C2086 1.399 . S
C2085 C2090 1.399 . S
C2086 C2085 1.399 . S
C2086 C2087 1.376 . S
C2087 H2074 0.930 . S
C2087 C2086 1.376 . S
C2087 C2088 1.388 . S
C2088 H2075 0.930 . S
C2088 C2087 1.388 . S
C2088 C2089 1.390 . S
C2089 C2088 1.390 . S
C2089 C2090 1.394 . S
C2089 C2095 1.465 1_655 S
C2090 C2085 1.399 . S
C2090 C2089 1.394 . S
C2090 C2091 1.516 1_655 S
C2091 C2090 1.516 1_455 S
C2091 C2092 1.502 . S
C2091 C2093 1.561 . S
C2091 C2094 1.526 . S
C2092 H2076 0.959 . S
C2092 H2077 0.959 . S
C2092 H2078 0.961 1_455 S
C2092 C2091 1.502 . S
C2093 H2079 0.960 1_455 S
C2093 H2080 0.961 . S
C2093 H2081 0.959 . S
C2093 C2091 1.561 . S
C2094 C2091 1.526 . S
C2094 C2095 1.396 . S
C2094 C2099 1.390 . S
C2095 C2089 1.465 1_455 S
C2095 C2094 1.396 . S
C2095 C2096 1.399 . S
C2096 H2082 0.929 . S
C2096 C2095 1.399 . S
C2096 C2097 1.385 . S
C2097 H2083 0.931 . S
C2097 C2096 1.385 . S
C2097 C2098 1.389 . S
C2098 C2097 1.389 . S
C2098 C2099 1.387 . S
C2099 H2084 0.930 . S
C2099 C2094 1.390 . S
C2099 C2098 1.387 . S
H2100 C2112 0.930 . S
H2101 C2114 0.930 . S
H2102 C2115 0.930 . S
H2103 C2119 0.964 . S
H2104 C2119 0.984 . S
H2105 C2119 0.933 1_565 S
H2106 C2120 0.960 . S
H2107 C2120 0.961 1_545 S
H2108 C2120 0.963 . S
H2109 C2123 0.929 . S
H2110 C2124 0.931 . S
H2111 C2126 0.930 . S
C2112 H2100 0.930 . S
C2112 C2113 1.399 . S
C2112 C2117 1.399 . S
C2113 C2112 1.399 . S
C2113 C2114 1.376 . S
C2114 H2101 0.930 . S
C2114 C2113 1.376 . S
C2114 C2115 1.388 . S
C2115 H2102 0.930 . S
C2115 C2114 1.388 . S
C2115 C2116 1.390 . S
C2116 C2115 1.390 . S
C2116 C2117 1.394 . S
C2116 C2122 1.465 1_565 S
C2117 C2112 1.399 . S
C2117 C2116 1.394 . S
C2117 C2118 1.533 . S
C2118 C2117 1.533 . S
C2118 C2119 1.500 1_565 S
C2118 C2120 1.563 . S
C2118 C2121 1.508 1_565 S
C2119 H2103 0.964 . S
C2119 H2104 0.984 . S
C2119 H2105 0.933 1_545 S
C2119 C2118 1.500 1_545 S
C2120 H2106 0.960 . S
C2120 H2107 0.961 1_565 S
C2120 H2108 0.963 . S
C2120 C2118 1.563 . S
C2121 C2118 1.508 1_545 S
C2121 C2122 1.396 . S
C2121 C2126 1.390 . S
C2122 C2116 1.465 1_545 S
C2122 C2121 1.396 . S
C2122 C2123 1.399 . S
C2123 H2109 0.929 . S
C2123 C2122 1.399 . S
C2123 C2124 1.385 . S
C2124 H2110 0.931 . S
C2124 C2123 1.385 . S
C2124 C2125 1.389 . S
C2125 C2124 1.389 . S
C2125 C2126 1.387 . S
C2126 H2111 0.930 . S
C2126 C2121 1.390 . S
C2126 C2125 1.387 . S
H2127 C2139 0.930 . S
H2128 C2141 0.930 . S
H2129 C2142 0.930 . S
H2130 C2146 0.961 . S
H2131 C2146 0.959 1_455 S
H2132 C2146 0.961 . S
H2133 C2147 0.959 1_655 S
H2134 C2147 0.962 . S
H2135 C2147 0.959 . S
H2136 C2150 0.929 . S
H2137 C2151 0.931 . S
H2138 C2153 0.930 . S
C2139 H2127 0.930 . S
C2139 C2140 1.399 . S
C2139 C2144 1.399 . S
C2140 C2139 1.399 . S
C2140 C2141 1.376 . S
C2141 H2128 0.930 . S
C2141 C2140 1.376 . S
C2141 C2142 1.388 . S
C2142 H2129 0.930 . S
C2142 C2141 1.388 . S
C2142 C2143 1.390 . S
C2143 C2142 1.390 . S
C2143 C2144 1.394 . S
C2143 C2149 1.465 1_655 S
C2144 C2139 1.399 . S
C2144 C2143 1.394 . S
C2144 C2145 1.540 . S
C2145 C2144 1.540 . S
C2145 C2146 1.503 . S
C2145 C2147 1.561 1_655 S
C2145 C2148 1.502 1_655 S
C2146 H2130 0.961 . S
C2146 H2131 0.959 1_655 S
C2146 H2132 0.961 . S
C2146 C2145 1.503 . S
C2147 H2133 0.959 1_455 S
C2147 H2134 0.962 . S
C2147 H2135 0.959 . S
C2147 C2145 1.561 1_455 S
C2148 C2145 1.502 1_455 S
C2148 C2149 1.396 . S
C2148 C2153 1.390 . S
C2149 C2143 1.465 1_455 S
C2149 C2148 1.396 . S
C2149 C2150 1.399 . S
C2150 H2136 0.929 . S
C2150 C2149 1.399 . S
C2150 C2151 1.385 . S
C2151 H2137 0.931 . S
C2151 C2150 1.385 . S
C2151 C2152 1.389 . S
C2152 C2151 1.389 . S
C2152 C2153 1.387 . S
C2153 H2138 0.930 . S
C2153 C2148 1.390 . S
C2153 C2152 1.387 . S
H2154 C2166 0.930 . S
H2155 C2168 0.930 . S
H2156 C2169 0.930 . S
H2157 C2173 0.959 . S
H2158 C2173 0.959 . S
H2159 C2173 0.961 . S
H2160 C2174 0.960 . S
H2161 C2174 0.961 . S
H2162 C2174 0.959 . S
H2163 C2177 0.929 . S
H2164 C2178 0.931 . S
H2165 C2180 0.930 . S
C2166 H2154 0.930 . S
C2166 C2167 1.399 . S
C2166 C2171 1.399 . S
C2167 C2166 1.399 . S
C2167 C2168 1.376 . S
C2168 H2155 0.930 . S
C2168 C2167 1.376 . S
C2168 C2169 1.388 . S
C2169 H2156 0.930 . S
C2169 C2168 1.388 . S
C2169 C2170 1.390 . S
C2170 C2169 1.390 . S
C2170 C2171 1.394 . S
C2170 C2176 1.465 . S
C2171 C2166 1.399 . S
C2171 C2170 1.394 . S
C2171 C2172 1.516 . S
C2172 C2171 1.516 . S
C2172 C2173 1.502 . S
C2172 C2174 1.561 . S
C2172 C2175 1.526 . S
C2173 H2157 0.959 . S
C2173 H2158 0.959 . S
C2173 H2159 0.961 . S
C2173 C2172 1.502 . S
C2174 H2160 0.960 . S
C2174 H2161 0.961 . S
C2174 H2162 0.959 . S
C2174 C2172 1.561 . S
C2175 C2172 1.526 . S
C2175 C2176 1.396 . S
C2175 C2180 1.390 . S
C2176 C2170 1.465 . S
C2176 C2175 1.396 . S
C2176 C2177 1.399 . S
C2177 H2163 0.929 . S
C2177 C2176 1.399 . S
C2177 C2178 1.385 . S
C2178 H2164 0.931 . S
C2178 C2177 1.385 . S
C2178 C2179 1.389 . S
C2179 C2178 1.389 . S
C2179 C2180 1.387 . S
C2180 H2165 0.930 . S
C2180 C2175 1.390 . S
C2180 C2179 1.387 . S
H2181 C2193 0.930 . S
H2182 C2195 0.930 . S
H2183 C2196 0.930 . S
H2184 C2200 0.959 . S
H2185 C2200 0.959 . S
H2186 C2200 0.961 . S
H2187 C2201 0.960 . S
H2188 C2201 0.961 . S
H2189 C2201 0.959 . S
H2190 C2204 0.929 . S
H2191 C2205 0.931 . S
H2192 C2207 0.930 . S
C2193 H2181 0.930 . S
C2193 C2194 1.399 . S
C2193 C2198 1.399 . S
C2194 C2193 1.399 . S
C2194 C2195 1.376 . S
C2195 H2182 0.930 . S
C2195 C2194 1.376 . S
C2195 C2196 1.388 . S
C2196 H2183 0.930 . S
C2196 C2195 1.388 . S
C2196 C2197 1.390 . S
C2197 C2196 1.390 . S
C2197 C2198 1.394 . S
C2197 C2203 1.465 . S
C2198 C2193 1.399 . S
C2198 C2197 1.394 . S
C2198 C2199 1.516 . S
C2199 C2198 1.516 . S
C2199 C2200 1.502 . S
C2199 C2201 1.561 . S
C2199 C2202 1.526 . S
C2200 H2184 0.959 . S
C2200 H2185 0.959 . S
C2200 H2186 0.961 . S
C2200 C2199 1.502 . S
C2201 H2187 0.960 . S
C2201 H2188 0.961 . S
C2201 H2189 0.959 . S
C2201 C2199 1.561 . S
C2202 C2199 1.526 . S
C2202 C2203 1.396 . S
C2202 C2207 1.390 . S
C2203 C2197 1.465 . S
C2203 C2202 1.396 . S
C2203 C2204 1.399 . S
C2204 H2190 0.929 . S
C2204 C2203 1.399 . S
C2204 C2205 1.385 . S
C2205 H2191 0.931 . S
C2205 C2204 1.385 . S
C2205 C2206 1.389 . S
C2206 C2205 1.389 . S
C2206 C2207 1.387 . S
C2207 H2192 0.930 . S
C2207 C2202 1.390 . S
C2207 C2206 1.387 . S
H2208 C2220 0.930 . S
H2209 C2222 0.930 . S
H2210 C2223 0.930 . S
H2211 C2227 0.959 . S
H2212 C2227 0.959 . S
H2213 C2227 0.961 . S
H2214 C2228 0.960 . S
H2215 C2228 0.961 . S
H2216 C2228 0.959 . S
H2217 C2231 0.929 . S
H2218 C2232 0.931 . S
H2219 C2234 0.930 . S
C2220 H2208 0.930 . S
C2220 C2221 1.399 . S
C2220 C2225 1.399 . S
C2221 C2220 1.399 . S
C2221 C2222 1.376 . S
C2222 H2209 0.930 . S
C2222 C2221 1.376 . S
C2222 C2223 1.388 . S
C2223 H2210 0.930 . S
C2223 C2222 1.388 . S
C2223 C2224 1.390 . S
C2224 C2223 1.390 . S
C2224 C2225 1.394 . S
C2224 C2230 1.465 . S
C2225 C2220 1.399 . S
C2225 C2224 1.394 . S
C2225 C2226 1.516 . S
C2226 C2225 1.516 . S
C2226 C2227 1.502 . S
C2226 C2228 1.561 . S
C2226 C2229 1.526 . S
C2227 H2211 0.959 . S
C2227 H2212 0.959 . S
C2227 H2213 0.961 . S
C2227 C2226 1.502 . S
C2228 H2214 0.960 . S
C2228 H2215 0.961 . S
C2228 H2216 0.959 . S
C2228 C2226 1.561 . S
C2229 C2226 1.526 . S
C2229 C2230 1.396 . S
C2229 C2234 1.390 . S
C2230 C2224 1.465 . S
C2230 C2229 1.396 . S
C2230 C2231 1.399 . S
C2231 H2217 0.929 . S
C2231 C2230 1.399 . S
C2231 C2232 1.385 . S
C2232 H2218 0.931 . S
C2232 C2231 1.385 . S
C2232 C2233 1.389 . S
C2233 C2232 1.389 . S
C2233 C2234 1.387 . S
C2234 H2219 0.930 . S
C2234 C2229 1.390 . S
C2234 C2233 1.387 . S
H2235 C2247 0.930 . S
H2236 C2249 0.930 . S
H2237 C2250 0.930 . S
H2238 C2254 0.962 . S
H2239 C2254 0.992 . S
H2240 C2254 0.927 1_556 S
H2241 C2255 0.960 1_556 S
H2242 C2255 0.961 . S
H2243 C2255 0.959 . S
H2244 C2258 0.929 . S
H2245 C2259 0.931 . S
H2246 C2261 0.930 . S
C2247 H2235 0.930 . S
C2247 C2248 1.399 . S
C2247 C2252 1.399 . S
C2248 C2247 1.399 . S
C2248 C2249 1.376 . S
C2249 H2236 0.930 . S
C2249 C2248 1.376 . S
C2249 C2250 1.388 . S
C2250 H2237 0.930 . S
C2250 C2249 1.388 . S
C2250 C2251 1.390 . S
C2251 C2250 1.390 . S
C2251 C2252 1.394 . S
C2251 C2257 1.465 1_556 S
C2252 C2247 1.399 . S
C2252 C2251 1.394 . S
C2252 C2253 1.482 1_556 S
C2253 C2252 1.482 1_554 S
C2253 C2254 1.502 . S
C2253 C2255 1.564 . S
C2253 C2256 1.559 . S
C2254 H2238 0.962 . S
C2254 H2239 0.992 . S
C2254 H2240 0.927 1_554 S
C2254 C2253 1.502 . S
C2255 H2241 0.960 1_554 S
C2255 H2242 0.961 . S
C2255 H2243 0.959 . S
C2255 C2253 1.564 . S
C2256 C2253 1.559 . S
C2256 C2257 1.396 . S
C2256 C2261 1.390 . S
C2257 C2251 1.465 1_554 S
C2257 C2256 1.396 . S
C2257 C2258 1.399 . S
C2258 H2244 0.929 . S
C2258 C2257 1.399 . S
C2258 C2259 1.385 . S
C2259 H2245 0.931 . S
C2259 C2258 1.385 . S
C2259 C2260 1.389 . S
C2260 C2259 1.389 . S
C2260 C2261 1.387 . S
C2261 H2246 0.930 . S
C2261 C2256 1.390 . S
C2261 C2260 1.387 . S
H2262 C2274 0.930 . S
H2263 C2276 0.930 . S
H2264 C2277 0.930 . S
H2265 C2281 0.959 . S
H2266 C2281 0.959 . S
H2267 C2281 0.961 . S
H2268 C2282 0.960 . S
H2269 C2282 0.961 . S
H2270 C2282 0.959 . S
H2271 C2285 0.929 . S
H2272 C2286 0.931 . S
H2273 C2288 0.930 . S
C2274 H2262 0.930 . S
C2274 C2275 1.399 . S
C2274 C2279 1.399 . S
C2275 C2274 1.399 . S
C2275 C2276 1.376 . S
C2276 H2263 0.930 . S
C2276 C2275 1.376 . S
C2276 C2277 1.388 . S
C2277 H2264 0.930 . S
C2277 C2276 1.388 . S
C2277 C2278 1.390 . S
C2278 C2277 1.390 . S
C2278 C2279 1.394 . S
C2278 C2284 1.465 . S
C2279 C2274 1.399 . S
C2279 C2278 1.394 . S
C2279 C2280 1.516 . S
C2280 C2279 1.516 . S
C2280 C2281 1.502 . S
C2280 C2282 1.561 . S
C2280 C2283 1.526 . S
C2281 H2265 0.959 . S
C2281 H2266 0.959 . S
C2281 H2267 0.961 . S
C2281 C2280 1.502 . S
C2282 H2268 0.960 . S
C2282 H2269 0.961 . S
C2282 H2270 0.959 . S
C2282 C2280 1.561 . S
C2283 C2280 1.526 . S
C2283 C2284 1.396 . S
C2283 C2288 1.390 . S
C2284 C2278 1.465 . S
C2284 C2283 1.396 . S
C2284 C2285 1.399 . S
C2285 H2271 0.929 . S
C2285 C2284 1.399 . S
C2285 C2286 1.385 . S
C2286 H2272 0.931 . S
C2286 C2285 1.385 . S
C2286 C2287 1.389 . S
C2287 C2286 1.389 . S
C2287 C2288 1.387 . S
C2288 H2273 0.930 . S
C2288 C2283 1.390 . S
C2288 C2287 1.387 . S
H2289 C2301 0.930 . S
H2290 C2303 0.930 . S
H2291 C2304 0.930 . S
H2292 C2308 0.959 . S
H2293 C2308 0.959 . S
H2294 C2308 0.961 1_556 S
H2295 C2309 0.939 1_556 S
H2296 C2309 0.981 . S
H2297 C2309 0.960 . S
H2298 C2312 0.929 . S
H2299 C2313 0.931 . S
H2300 C2315 0.930 . S
C2301 H2289 0.930 . S
C2301 C2302 1.399 . S
C2301 C2306 1.399 . S
C2302 C2301 1.399 . S
C2302 C2303 1.376 . S
C2303 H2290 0.930 . S
C2303 C2302 1.376 . S
C2303 C2304 1.388 . S
C2304 H2291 0.930 . S
C2304 C2303 1.388 . S
C2304 C2305 1.390 . S
C2305 C2304 1.390 . S
C2305 C2306 1.394 . S
C2305 C2311 1.465 1_556 S
C2306 C2301 1.399 . S
C2306 C2305 1.394 . S
C2306 C2307 1.516 1_556 S
C2307 C2306 1.516 1_554 S
C2307 C2308 1.502 . S
C2307 C2309 1.562 . S
C2307 C2310 1.526 . S
C2308 H2292 0.959 . S
C2308 H2293 0.959 . S
C2308 H2294 0.961 1_554 S
C2308 C2307 1.502 . S
C2309 H2295 0.939 1_554 S
C2309 H2296 0.981 . S
C2309 H2297 0.960 . S
C2309 C2307 1.562 . S
C2310 C2307 1.526 . S
C2310 C2311 1.396 . S
C2310 C2315 1.390 . S
C2311 C2305 1.465 1_554 S
C2311 C2310 1.396 . S
C2311 C2312 1.399 . S
C2312 H2298 0.929 . S
C2312 C2311 1.399 . S
C2312 C2313 1.385 . S
C2313 H2299 0.931 . S
C2313 C2312 1.385 . S
C2313 C2314 1.389 . S
C2314 C2313 1.389 . S
C2314 C2315 1.387 . S
C2315 H2300 0.930 . S
C2315 C2310 1.390 . S
C2315 C2314 1.387 . S
H2316 C2328 0.930 . S
H2317 C2330 0.930 . S
H2318 C2331 0.930 . S
H2319 C2335 0.959 . S
H2320 C2335 0.959 . S
H2321 C2335 0.961 . S
H2322 C2336 0.960 . S
H2323 C2336 0.961 . S
H2324 C2336 0.959 . S
H2325 C2339 0.929 . S
H2326 C2340 0.931 . S
H2327 C2342 0.930 . S
C2328 H2316 0.930 . S
C2328 C2329 1.399 . S
C2328 C2333 1.399 . S
C2329 C2328 1.399 . S
C2329 C2330 1.376 . S
C2330 H2317 0.930 . S
C2330 C2329 1.376 . S
C2330 C2331 1.388 . S
C2331 H2318 0.930 . S
C2331 C2330 1.388 . S
C2331 C2332 1.390 . S
C2332 C2331 1.390 . S
C2332 C2333 1.394 . S
C2332 C2338 1.465 . S
C2333 C2328 1.399 . S
C2333 C2332 1.394 . S
C2333 C2334 1.516 . S
C2334 C2333 1.516 . S
C2334 C2335 1.502 . S
C2334 C2336 1.561 . S
C2334 C2337 1.526 . S
C2335 H2319 0.959 . S
C2335 H2320 0.959 . S
C2335 H2321 0.961 . S
C2335 C2334 1.502 . S
C2336 H2322 0.960 . S
C2336 H2323 0.961 . S
C2336 H2324 0.959 . S
C2336 C2334 1.561 . S
C2337 C2334 1.526 . S
C2337 C2338 1.396 . S
C2337 C2342 1.390 . S
C2338 C2332 1.465 . S
C2338 C2337 1.396 . S
C2338 C2339 1.399 . S
C2339 H2325 0.929 . S
C2339 C2338 1.399 . S
C2339 C2340 1.385 . S
C2340 H2326 0.931 . S
C2340 C2339 1.385 . S
C2340 C2341 1.389 . S
C2341 C2340 1.389 . S
C2341 C2342 1.387 . S
C2342 H2327 0.930 . S
C2342 C2337 1.390 . S
C2342 C2341 1.387 . S
H2343 C2355 0.930 . S
H2344 C2357 0.930 . S
H2345 C2358 0.930 . S
H2346 C2362 0.959 . S
H2347 C2362 0.959 . S
H2348 C2362 0.961 . S
H2349 C2363 0.960 . S
H2350 C2363 0.961 . S
H2351 C2363 0.959 . S
H2352 C2366 0.929 . S
H2353 C2367 0.931 . S
H2354 C2369 0.930 . S
C2355 H2343 0.930 . S
C2355 C2356 1.399 . S
C2355 C2360 1.399 . S
C2356 C2355 1.399 . S
C2356 C2357 1.376 . S
C2357 H2344 0.930 . S
C2357 C2356 1.376 . S
C2357 C2358 1.388 . S
C2358 H2345 0.930 . S
C2358 C2357 1.388 . S
C2358 C2359 1.390 . S
C2359 C2358 1.390 . S
C2359 C2360 1.394 . S
C2359 C2365 1.465 . S
C2360 C2355 1.399 . S
C2360 C2359 1.394 . S
C2360 C2361 1.516 . S
C2361 C2360 1.516 . S
C2361 C2362 1.502 . S
C2361 C2363 1.561 . S
C2361 C2364 1.526 . S
C2362 H2346 0.959 . S
C2362 H2347 0.959 . S
C2362 H2348 0.961 . S
C2362 C2361 1.502 . S
C2363 H2349 0.960 . S
C2363 H2350 0.961 . S
C2363 H2351 0.959 . S
C2363 C2361 1.561 . S
C2364 C2361 1.526 . S
C2364 C2365 1.396 . S
C2364 C2369 1.390 . S
C2365 C2359 1.465 . S
C2365 C2364 1.396 . S
C2365 C2366 1.399 . S
C2366 H2352 0.929 . S
C2366 C2365 1.399 . S
C2366 C2367 1.385 . S
C2367 H2353 0.931 . S
C2367 C2366 1.385 . S
C2367 C2368 1.389 . S
C2368 C2367 1.389 . S
C2368 C2369 1.387 . S
C2369 H2354 0.930 . S
C2369 C2364 1.390 . S
C2369 C2368 1.387 . S
H2370 C2382 0.930 . S
H2371 C2384 0.930 . S
H2372 C2385 0.930 . S
H2373 C2389 0.959 . S
H2374 C2389 0.959 . S
H2375 C2389 0.961 . S
H2376 C2390 0.960 . S
H2377 C2390 0.961 . S
H2378 C2390 0.959 . S
H2379 C2393 0.929 . S
H2380 C2394 0.931 . S
H2381 C2396 0.930 . S
C2382 H2370 0.930 . S
C2382 C2383 1.399 . S
C2382 C2387 1.399 . S
C2383 C2382 1.399 . S
C2383 C2384 1.376 . S
C2384 H2371 0.930 . S
C2384 C2383 1.376 . S
C2384 C2385 1.388 . S
C2385 H2372 0.930 . S
C2385 C2384 1.388 . S
C2385 C2386 1.390 . S
C2386 C2385 1.390 . S
C2386 C2387 1.394 . S
C2386 C2392 1.465 . S
C2387 C2382 1.399 . S
C2387 C2386 1.394 . S
C2387 C2388 1.516 . S
C2388 C2387 1.516 . S
C2388 C2389 1.502 . S
C2388 C2390 1.561 . S
C2388 C2391 1.526 . S
C2389 H2373 0.959 . S
C2389 H2374 0.959 . S
C2389 H2375 0.961 . S
C2389 C2388 1.502 . S
C2390 H2376 0.960 . S
C2390 H2377 0.961 . S
C2390 H2378 0.959 . S
C2390 C2388 1.561 . S
C2391 C2388 1.526 . S
C2391 C2392 1.396 . S
C2391 C2396 1.390 . S
C2392 C2386 1.465 . S
C2392 C2391 1.396 . S
C2392 C2393 1.399 . S
C2393 H2379 0.929 . S
C2393 C2392 1.399 . S
C2393 C2394 1.385 . S
C2394 H2380 0.931 . S
C2394 C2393 1.385 . S
C2394 C2395 1.389 . S
C2395 C2394 1.389 . S
C2395 C2396 1.387 . S
C2396 H2381 0.930 . S
C2396 C2391 1.390 . S
C2396 C2395 1.387 . S
H2397 C2409 0.930 . S
H2398 C2411 0.930 . S
H2399 C2412 0.930 . S
H2400 C2416 0.959 . S
H2401 C2416 0.959 . S
H2402 C2416 0.961 . S
H2403 C2417 0.960 . S
H2404 C2417 0.961 . S
H2405 C2417 0.959 . S
H2406 C2420 0.929 . S
H2407 C2421 0.931 . S
H2408 C2423 0.930 . S
C2409 H2397 0.930 . S
C2409 C2410 1.399 . S
C2409 C2414 1.399 . S
C2410 C2409 1.399 . S
C2410 C2411 1.376 . S
C2411 H2398 0.930 . S
C2411 C2410 1.376 . S
C2411 C2412 1.388 . S
C2412 H2399 0.930 . S
C2412 C2411 1.388 . S
C2412 C2413 1.390 . S
C2413 C2412 1.390 . S
C2413 C2414 1.394 . S
C2413 C2419 1.465 . S
C2414 C2409 1.399 . S
C2414 C2413 1.394 . S
C2414 C2415 1.516 . S
C2415 C2414 1.516 . S
C2415 C2416 1.502 . S
C2415 C2417 1.561 . S
C2415 C2418 1.526 . S
C2416 H2400 0.959 . S
C2416 H2401 0.959 . S
C2416 H2402 0.961 . S
C2416 C2415 1.502 . S
C2417 H2403 0.960 . S
C2417 H2404 0.961 . S
C2417 H2405 0.959 . S
C2417 C2415 1.561 . S
C2418 C2415 1.526 . S
C2418 C2419 1.396 . S
C2418 C2423 1.390 . S
C2419 C2413 1.465 . S
C2419 C2418 1.396 . S
C2419 C2420 1.399 . S
C2420 H2406 0.929 . S
C2420 C2419 1.399 . S
C2420 C2421 1.385 . S
C2421 H2407 0.931 . S
C2421 C2420 1.385 . S
C2421 C2422 1.389 . S
C2422 C2421 1.389 . S
C2422 C2423 1.387 . S
C2423 H2408 0.930 . S
C2423 C2418 1.390 . S
C2423 C2422 1.387 . S
H2424 C2436 0.930 . S
H2425 C2438 0.930 . S
H2426 C2439 0.930 . S
H2427 C2443 0.959 . S
H2428 C2443 0.959 . S
H2429 C2443 0.961 . S
H2430 C2444 0.960 . S
H2431 C2444 0.961 . S
H2432 C2444 0.959 . S
H2433 C2447 0.929 . S
H2434 C2448 0.931 . S
H2435 C2450 0.930 . S
C2436 H2424 0.930 . S
C2436 C2437 1.399 . S
C2436 C2441 1.399 . S
C2437 C2436 1.399 . S
C2437 C2438 1.376 . S
C2438 H2425 0.930 . S
C2438 C2437 1.376 . S
C2438 C2439 1.388 . S
C2439 H2426 0.930 . S
C2439 C2438 1.388 . S
C2439 C2440 1.390 . S
C2440 C2439 1.390 . S
C2440 C2441 1.394 . S
C2440 C2446 1.465 . S
C2441 C2436 1.399 . S
C2441 C2440 1.394 . S
C2441 C2442 1.516 . S
C2442 C2441 1.516 . S
C2442 C2443 1.502 . S
C2442 C2444 1.561 . S
C2442 C2445 1.526 . S
C2443 H2427 0.959 . S
C2443 H2428 0.959 . S
C2443 H2429 0.961 . S
C2443 C2442 1.502 . S
C2444 H2430 0.960 . S
C2444 H2431 0.961 . S
C2444 H2432 0.959 . S
C2444 C2442 1.561 . S
C2445 C2442 1.526 . S
C2445 C2446 1.396 . S
C2445 C2450 1.390 . S
C2446 C2440 1.465 . S
C2446 C2445 1.396 . S
C2446 C2447 1.399 . S
C2447 H2433 0.929 . S
C2447 C2446 1.399 . S
C2447 C2448 1.385 . S
C2448 H2434 0.931 . S
C2448 C2447 1.385 . S
C2448 C2449 1.389 . S
C2449 C2448 1.389 . S
C2449 C2450 1.387 . S
C2450 H2435 0.930 . S
C2450 C2445 1.390 . S
C2450 C2449 1.387 . S
H2451 C2463 0.930 . S
H2452 C2465 0.930 . S
H2453 C2466 0.930 . S
H2454 C2470 0.959 . S
H2455 C2470 0.959 . S
H2456 C2470 0.961 . S
H2457 C2471 0.960 . S
H2458 C2471 0.961 . S
H2459 C2471 0.959 . S
H2460 C2474 0.929 . S
H2461 C2475 0.931 . S
H2462 C2477 0.930 . S
C2463 H2451 0.930 . S
C2463 C2464 1.399 . S
C2463 C2468 1.399 . S
C2464 C2463 1.399 . S
C2464 C2465 1.376 . S
C2465 H2452 0.930 . S
C2465 C2464 1.376 . S
C2465 C2466 1.388 . S
C2466 H2453 0.930 . S
C2466 C2465 1.388 . S
C2466 C2467 1.390 . S
C2467 C2466 1.390 . S
C2467 C2468 1.394 . S
C2467 C2473 1.465 . S
C2468 C2463 1.399 . S
C2468 C2467 1.394 . S
C2468 C2469 1.516 . S
C2469 C2468 1.516 . S
C2469 C2470 1.502 . S
C2469 C2471 1.561 . S
C2469 C2472 1.526 . S
C2470 H2454 0.959 . S
C2470 H2455 0.959 . S
C2470 H2456 0.961 . S
C2470 C2469 1.502 . S
C2471 H2457 0.960 . S
C2471 H2458 0.961 . S
C2471 H2459 0.959 . S
C2471 C2469 1.561 . S
C2472 C2469 1.526 . S
C2472 C2473 1.396 . S
C2472 C2477 1.390 . S
C2473 C2467 1.465 . S
C2473 C2472 1.396 . S
C2473 C2474 1.399 . S
C2474 H2460 0.929 . S
C2474 C2473 1.399 . S
C2474 C2475 1.385 . S
C2475 H2461 0.931 . S
C2475 C2474 1.385 . S
C2475 C2476 1.389 . S
C2476 C2475 1.389 . S
C2476 C2477 1.387 . S
C2477 H2462 0.930 . S
C2477 C2472 1.390 . S
C2477 C2476 1.387 . S
H2478 C2490 0.930 . S
H2479 C2492 0.930 . S
H2480 C2493 0.930 . S
H2481 C2497 0.959 . S
H2482 C2497 0.959 . S
H2483 C2497 0.961 . S
H2484 C2498 0.960 . S
H2485 C2498 0.961 . S
H2486 C2498 0.959 . S
H2487 C2501 0.929 . S
H2488 C2502 0.931 . S
H2489 C2504 0.930 . S
C2490 H2478 0.930 . S
C2490 C2491 1.399 . S
C2490 C2495 1.399 . S
C2491 C2490 1.399 . S
C2491 C2492 1.376 . S
C2492 H2479 0.930 . S
C2492 C2491 1.376 . S
C2492 C2493 1.388 . S
C2493 H2480 0.930 . S
C2493 C2492 1.388 . S
C2493 C2494 1.390 . S
C2494 C2493 1.390 . S
C2494 C2495 1.394 . S
C2494 C2500 1.465 . S
C2495 C2490 1.399 . S
C2495 C2494 1.394 . S
C2495 C2496 1.516 . S
C2496 C2495 1.516 . S
C2496 C2497 1.502 . S
C2496 C2498 1.561 . S
C2496 C2499 1.526 . S
C2497 H2481 0.959 . S
C2497 H2482 0.959 . S
C2497 H2483 0.961 . S
C2497 C2496 1.502 . S
C2498 H2484 0.960 . S
C2498 H2485 0.961 . S
C2498 H2486 0.959 . S
C2498 C2496 1.561 . S
C2499 C2496 1.526 . S
C2499 C2500 1.396 . S
C2499 C2504 1.390 . S
C2500 C2494 1.465 . S
C2500 C2499 1.396 . S
C2500 C2501 1.399 . S
C2501 H2487 0.929 . S
C2501 C2500 1.399 . S
C2501 C2502 1.385 . S
C2502 H2488 0.931 . S
C2502 C2501 1.385 . S
C2502 C2503 1.389 . S
C2503 C2502 1.389 . S
C2503 C2504 1.387 . S
C2504 H2489 0.930 . S
C2504 C2499 1.390 . S
C2504 C2503 1.387 . S
H2505 C2517 0.930 . S
H2506 C2519 0.930 . S
H2507 C2520 0.930 . S
H2508 C2524 0.959 . S
H2509 C2524 0.959 . S
H2510 C2524 0.961 . S
H2511 C2525 0.960 . S
H2512 C2525 0.961 . S
H2513 C2525 0.959 . S
H2514 C2528 0.929 . S
H2515 C2529 0.931 . S
H2516 C2531 0.930 . S
C2517 H2505 0.930 . S
C2517 C2518 1.399 . S
C2517 C2522 1.399 . S
C2518 C2517 1.399 . S
C2518 C2519 1.376 . S
C2519 H2506 0.930 . S
C2519 C2518 1.376 . S
C2519 C2520 1.388 . S
C2520 H2507 0.930 . S
C2520 C2519 1.388 . S
C2520 C2521 1.390 . S
C2521 C2520 1.390 . S
C2521 C2522 1.394 . S
C2521 C2527 1.465 . S
C2522 C2517 1.399 . S
C2522 C2521 1.394 . S
C2522 C2523 1.516 . S
C2523 C2522 1.516 . S
C2523 C2524 1.502 . S
C2523 C2525 1.561 . S
C2523 C2526 1.526 . S
C2524 H2508 0.959 . S
C2524 H2509 0.959 . S
C2524 H2510 0.961 . S
C2524 C2523 1.502 . S
C2525 H2511 0.960 . S
C2525 H2512 0.961 . S
C2525 H2513 0.959 . S
C2525 C2523 1.561 . S
C2526 C2523 1.526 . S
C2526 C2527 1.396 . S
C2526 C2531 1.390 . S
C2527 C2521 1.465 . S
C2527 C2526 1.396 . S
C2527 C2528 1.399 . S
C2528 H2514 0.929 . S
C2528 C2527 1.399 . S
C2528 C2529 1.385 . S
C2529 H2515 0.931 . S
C2529 C2528 1.385 . S
C2529 C2530 1.389 . S
C2530 C2529 1.389 . S
C2530 C2531 1.387 . S
C2531 H2516 0.930 . S
C2531 C2526 1.390 . S
C2531 C2530 1.387 . S
H2532 C2544 0.930 . S
H2533 C2546 0.930 . S
H2534 C2547 0.930 . S
H2535 C2551 0.959 . S
H2536 C2551 0.959 . S
H2537 C2551 0.961 . S
H2538 C2552 0.960 . S
H2539 C2552 0.961 . S
H2540 C2552 0.959 . S
H2541 C2555 0.929 . S
H2542 C2556 0.931 . S
H2543 C2558 0.930 . S
C2544 H2532 0.930 . S
C2544 C2545 1.399 . S
C2544 C2549 1.399 . S
C2545 C2544 1.399 . S
C2545 C2546 1.376 . S
C2546 H2533 0.930 . S
C2546 C2545 1.376 . S
C2546 C2547 1.388 . S
C2547 H2534 0.930 . S
C2547 C2546 1.388 . S
C2547 C2548 1.390 . S
C2548 C2547 1.390 . S
C2548 C2549 1.394 . S
C2548 C2554 1.465 . S
C2549 C2544 1.399 . S
C2549 C2548 1.394 . S
C2549 C2550 1.516 . S
C2550 C2549 1.516 . S
C2550 C2551 1.502 . S
C2550 C2552 1.561 . S
C2550 C2553 1.526 . S
C2551 H2535 0.959 . S
C2551 H2536 0.959 . S
C2551 H2537 0.961 . S
C2551 C2550 1.502 . S
C2552 H2538 0.960 . S
C2552 H2539 0.961 . S
C2552 H2540 0.959 . S
C2552 C2550 1.561 . S
C2553 C2550 1.526 . S
C2553 C2554 1.396 . S
C2553 C2558 1.390 . S
C2554 C2548 1.465 . S
C2554 C2553 1.396 . S
C2554 C2555 1.399 . S
C2555 H2541 0.929 . S
C2555 C2554 1.399 . S
C2555 C2556 1.385 . S
C2556 H2542 0.931 . S
C2556 C2555 1.385 . S
C2556 C2557 1.389 . S
C2557 C2556 1.389 . S
C2557 C2558 1.387 . S
C2558 H2543 0.930 . S
C2558 C2553 1.390 . S
C2558 C2557 1.387 . S
H2559 C2571 0.930 . S
H2560 C2573 0.930 . S
H2561 C2574 0.930 . S
H2562 C2578 0.959 . S
H2563 C2578 0.959 . S
H2564 C2578 0.961 . S
H2565 C2579 0.960 . S
H2566 C2579 0.961 . S
H2567 C2579 0.959 . S
H2568 C2582 0.929 . S
H2569 C2583 0.931 . S
H2570 C2585 0.930 . S
C2571 H2559 0.930 . S
C2571 C2572 1.399 . S
C2571 C2576 1.399 . S
C2572 C2571 1.399 . S
C2572 C2573 1.376 . S
C2573 H2560 0.930 . S
C2573 C2572 1.376 . S
C2573 C2574 1.388 . S
C2574 H2561 0.930 . S
C2574 C2573 1.388 . S
C2574 C2575 1.390 . S
C2575 C2574 1.390 . S
C2575 C2576 1.394 . S
C2575 C2581 1.465 . S
C2576 C2571 1.399 . S
C2576 C2575 1.394 . S
C2576 C2577 1.516 . S
C2577 C2576 1.516 . S
C2577 C2578 1.502 . S
C2577 C2579 1.561 . S
C2577 C2580 1.526 . S
C2578 H2562 0.959 . S
C2578 H2563 0.959 . S
C2578 H2564 0.961 . S
C2578 C2577 1.502 . S
C2579 H2565 0.960 . S
C2579 H2566 0.961 . S
C2579 H2567 0.959 . S
C2579 C2577 1.561 . S
C2580 C2577 1.526 . S
C2580 C2581 1.396 . S
C2580 C2585 1.390 . S
C2581 C2575 1.465 . S
C2581 C2580 1.396 . S
C2581 C2582 1.399 . S
C2582 H2568 0.929 . S
C2582 C2581 1.399 . S
C2582 C2583 1.385 . S
C2583 H2569 0.931 . S
C2583 C2582 1.385 . S
C2583 C2584 1.389 . S
C2584 C2583 1.389 . S
C2584 C2585 1.387 . S
C2585 H2570 0.930 . S
C2585 C2580 1.390 . S
C2585 C2584 1.387 . S
H2586 C2598 0.930 . S
H2587 C2600 0.930 . S
H2588 C2601 0.930 . S
H2589 C2605 0.959 . S
H2590 C2605 0.959 . S
H2591 C2605 0.961 . S
H2592 C2606 0.960 . S
H2593 C2606 0.961 . S
H2594 C2606 0.959 . S
H2595 C2609 0.929 . S
H2596 C2610 0.931 . S
H2597 C2612 0.930 . S
C2598 H2586 0.930 . S
C2598 C2599 1.399 . S
C2598 C2603 1.399 . S
C2599 C2598 1.399 . S
C2599 C2600 1.376 . S
C2600 H2587 0.930 . S
C2600 C2599 1.376 . S
C2600 C2601 1.388 . S
C2601 H2588 0.930 . S
C2601 C2600 1.388 . S
C2601 C2602 1.390 . S
C2602 C2601 1.390 . S
C2602 C2603 1.394 . S
C2602 C2608 1.465 . S
C2603 C2598 1.399 . S
C2603 C2602 1.394 . S
C2603 C2604 1.516 . S
C2604 C2603 1.516 . S
C2604 C2605 1.502 . S
C2604 C2606 1.561 . S
C2604 C2607 1.526 . S
C2605 H2589 0.959 . S
C2605 H2590 0.959 . S
C2605 H2591 0.961 . S
C2605 C2604 1.502 . S
C2606 H2592 0.960 . S
C2606 H2593 0.961 . S
C2606 H2594 0.959 . S
C2606 C2604 1.561 . S
C2607 C2604 1.526 . S
C2607 C2608 1.396 . S
C2607 C2612 1.390 . S
C2608 C2602 1.465 . S
C2608 C2607 1.396 . S
C2608 C2609 1.399 . S
C2609 H2595 0.929 . S
C2609 C2608 1.399 . S
C2609 C2610 1.385 . S
C2610 H2596 0.931 . S
C2610 C2609 1.385 . S
C2610 C2611 1.389 . S
C2611 C2610 1.389 . S
C2611 C2612 1.387 . S
C2612 H2597 0.930 . S
C2612 C2607 1.390 . S
C2612 C2611 1.387 . S
H2613 C2625 0.930 . S
H2614 C2627 0.930 . S
H2615 C2628 0.930 . S
H2616 C2632 0.959 . S
H2617 C2632 0.959 . S
H2618 C2632 0.961 . S
H2619 C2633 0.960 . S
H2620 C2633 0.961 . S
H2621 C2633 0.959 . S
H2622 C2636 0.929 . S
H2623 C2637 0.931 . S
H2624 C2639 0.930 . S
C2625 H2613 0.930 . S
C2625 C2626 1.399 . S
C2625 C2630 1.399 . S
C2626 C2625 1.399 . S
C2626 C2627 1.376 . S
C2627 H2614 0.930 . S
C2627 C2626 1.376 . S
C2627 C2628 1.388 . S
C2628 H2615 0.930 . S
C2628 C2627 1.388 . S
C2628 C2629 1.390 . S
C2629 C2628 1.390 . S
C2629 C2630 1.394 . S
C2629 C2635 1.465 . S
C2630 C2625 1.399 . S
C2630 C2629 1.394 . S
C2630 C2631 1.516 . S
C2631 C2630 1.516 . S
C2631 C2632 1.502 . S
C2631 C2633 1.561 . S
C2631 C2634 1.526 . S
C2632 H2616 0.959 . S
C2632 H2617 0.959 . S
C2632 H2618 0.961 . S
C2632 C2631 1.502 . S
C2633 H2619 0.960 . S
C2633 H2620 0.961 . S
C2633 H2621 0.959 . S
C2633 C2631 1.561 . S
C2634 C2631 1.526 . S
C2634 C2635 1.396 . S
C2634 C2639 1.390 . S
C2635 C2629 1.465 . S
C2635 C2634 1.396 . S
C2635 C2636 1.399 . S
C2636 H2622 0.929 . S
C2636 C2635 1.399 . S
C2636 C2637 1.385 . S
C2637 H2623 0.931 . S
C2637 C2636 1.385 . S
C2637 C2638 1.389 . S
C2638 C2637 1.389 . S
C2638 C2639 1.387 . S
C2639 H2624 0.930 . S
C2639 C2634 1.390 . S
C2639 C2638 1.387 . S
H2640 C2652 0.930 . S
H2641 C2654 0.930 . S
H2642 C2655 0.930 . S
H2643 C2659 0.959 . S
H2644 C2659 0.959 . S
H2645 C2659 0.961 . S
H2646 C2660 0.960 . S
H2647 C2660 0.961 . S
H2648 C2660 0.959 . S
H2649 C2663 0.929 . S
H2650 C2664 0.931 . S
H2651 C2666 0.930 . S
C2652 H2640 0.930 . S
C2652 C2653 1.399 . S
C2652 C2657 1.399 . S
C2653 C2652 1.399 . S
C2653 C2654 1.376 . S
C2654 H2641 0.930 . S
C2654 C2653 1.376 . S
C2654 C2655 1.388 . S
C2655 H2642 0.930 . S
C2655 C2654 1.388 . S
C2655 C2656 1.390 . S
C2656 C2655 1.390 . S
C2656 C2657 1.394 . S
C2656 C2662 1.465 . S
C2657 C2652 1.399 . S
C2657 C2656 1.394 . S
C2657 C2658 1.516 . S
C2658 C2657 1.516 . S
C2658 C2659 1.502 . S
C2658 C2660 1.561 . S
C2658 C2661 1.526 . S
C2659 H2643 0.959 . S
C2659 H2644 0.959 . S
C2659 H2645 0.961 . S
C2659 C2658 1.502 . S
C2660 H2646 0.960 . S
C2660 H2647 0.961 . S
C2660 H2648 0.959 . S
C2660 C2658 1.561 . S
C2661 C2658 1.526 . S
C2661 C2662 1.396 . S
C2661 C2666 1.390 . S
C2662 C2656 1.465 . S
C2662 C2661 1.396 . S
C2662 C2663 1.399 . S
C2663 H2649 0.929 . S
C2663 C2662 1.399 . S
C2663 C2664 1.385 . S
C2664 H2650 0.931 . S
C2664 C2663 1.385 . S
C2664 C2665 1.389 . S
C2665 C2664 1.389 . S
C2665 C2666 1.387 . S
C2666 H2651 0.930 . S
C2666 C2661 1.390 . S
C2666 C2665 1.387 . S
H2667 C2679 0.930 . S
H2668 C2681 0.930 . S
H2669 C2682 0.930 . S
H2670 C2686 0.959 . S
H2671 C2686 0.959 . S
H2672 C2686 0.961 . S
H2673 C2687 0.960 . S
H2674 C2687 0.961 . S
H2675 C2687 0.959 . S
H2676 C2690 0.929 . S
H2677 C2691 0.931 . S
H2678 C2693 0.930 . S
C2679 H2667 0.930 . S
C2679 C2680 1.399 . S
C2679 C2684 1.399 . S
C2680 C2679 1.399 . S
C2680 C2681 1.376 . S
C2681 H2668 0.930 . S
C2681 C2680 1.376 . S
C2681 C2682 1.388 . S
C2682 H2669 0.930 . S
C2682 C2681 1.388 . S
C2682 C2683 1.390 . S
C2683 C2682 1.390 . S
C2683 C2684 1.394 . S
C2683 C2689 1.465 . S
C2684 C2679 1.399 . S
C2684 C2683 1.394 . S
C2684 C2685 1.516 . S
C2685 C2684 1.516 . S
C2685 C2686 1.502 . S
C2685 C2687 1.561 . S
C2685 C2688 1.526 . S
C2686 H2670 0.959 . S
C2686 H2671 0.959 . S
C2686 H2672 0.961 . S
C2686 C2685 1.502 . S
C2687 H2673 0.960 . S
C2687 H2674 0.961 . S
C2687 H2675 0.959 . S
C2687 C2685 1.561 . S
C2688 C2685 1.526 . S
C2688 C2689 1.396 . S
C2688 C2693 1.390 . S
C2689 C2683 1.465 . S
C2689 C2688 1.396 . S
C2689 C2690 1.399 . S
C2690 H2676 0.929 . S
C2690 C2689 1.399 . S
C2690 C2691 1.385 . S
C2691 H2677 0.931 . S
C2691 C2690 1.385 . S
C2691 C2692 1.389 . S
C2692 C2691 1.389 . S
C2692 C2693 1.387 . S
C2693 H2678 0.930 . S
C2693 C2688 1.390 . S
C2693 C2692 1.387 . S
H2694 C2706 0.930 . S
H2695 C2708 0.930 . S
H2696 C2709 0.930 . S
H2697 C2713 0.959 . S
H2698 C2713 0.959 . S
H2699 C2713 0.961 . S
H2700 C2714 0.960 . S
H2701 C2714 0.961 . S
H2702 C2714 0.959 . S
H2703 C2717 0.929 . S
H2704 C2718 0.931 . S
H2705 C2720 0.930 . S
C2706 H2694 0.930 . S
C2706 C2707 1.399 . S
C2706 C2711 1.399 . S
C2707 C2706 1.399 . S
C2707 C2708 1.376 . S
C2708 H2695 0.930 . S
C2708 C2707 1.376 . S
C2708 C2709 1.388 . S
C2709 H2696 0.930 . S
C2709 C2708 1.388 . S
C2709 C2710 1.390 . S
C2710 C2709 1.390 . S
C2710 C2711 1.394 . S
C2710 C2716 1.465 . S
C2711 C2706 1.399 . S
C2711 C2710 1.394 . S
C2711 C2712 1.516 . S
C2712 C2711 1.516 . S
C2712 C2713 1.502 . S
C2712 C2714 1.561 . S
C2712 C2715 1.526 . S
C2713 H2697 0.959 . S
C2713 H2698 0.959 . S
C2713 H2699 0.961 . S
C2713 C2712 1.502 . S
C2714 H2700 0.960 . S
C2714 H2701 0.961 . S
C2714 H2702 0.959 . S
C2714 C2712 1.561 . S
C2715 C2712 1.526 . S
C2715 C2716 1.396 . S
C2715 C2720 1.390 . S
C2716 C2710 1.465 . S
C2716 C2715 1.396 . S
C2716 C2717 1.399 . S
C2717 H2703 0.929 . S
C2717 C2716 1.399 . S
C2717 C2718 1.385 . S
C2718 H2704 0.931 . S
C2718 C2717 1.385 . S
C2718 C2719 1.389 . S
C2719 C2718 1.389 . S
C2719 C2720 1.387 . S
C2720 H2705 0.930 . S
C2720 C2715 1.390 . S
C2720 C2719 1.387 . S
H2721 C2733 0.930 . S
H2722 C2735 0.930 . S
H2723 C2736 0.930 . S
H2724 C2740 0.959 . S
H2725 C2740 0.959 . S
H2726 C2740 0.961 . S
H2727 C2741 0.960 . S
H2728 C2741 0.961 . S
H2729 C2741 0.959 . S
H2730 C2744 0.929 . S
H2731 C2745 0.931 . S
H2732 C2747 0.930 . S
C2733 H2721 0.930 . S
C2733 C2734 1.399 . S
C2733 C2738 1.399 . S
C2734 C2733 1.399 . S
C2734 C2735 1.376 . S
C2735 H2722 0.930 . S
C2735 C2734 1.376 . S
C2735 C2736 1.388 . S
C2736 H2723 0.930 . S
C2736 C2735 1.388 . S
C2736 C2737 1.390 . S
C2737 C2736 1.390 . S
C2737 C2738 1.394 . S
C2737 C2743 1.465 . S
C2738 C2733 1.399 . S
C2738 C2737 1.394 . S
C2738 C2739 1.516 . S
C2739 C2738 1.516 . S
C2739 C2740 1.502 . S
C2739 C2741 1.561 . S
C2739 C2742 1.526 . S
C2740 H2724 0.959 . S
C2740 H2725 0.959 . S
C2740 H2726 0.961 . S
C2740 C2739 1.502 . S
C2741 H2727 0.960 . S
C2741 H2728 0.961 . S
C2741 H2729 0.959 . S
C2741 C2739 1.561 . S
C2742 C2739 1.526 . S
C2742 C2743 1.396 . S
C2742 C2747 1.390 . S
C2743 C2737 1.465 . S
C2743 C2742 1.396 . S
C2743 C2744 1.399 . S
C2744 H2730 0.929 . S
C2744 C2743 1.399 . S
C2744 C2745 1.385 . S
C2745 H2731 0.931 . S
C2745 C2744 1.385 . S
C2745 C2746 1.389 . S
C2746 C2745 1.389 . S
C2746 C2747 1.387 . S
C2747 H2732 0.930 . S
C2747 C2742 1.390 . S
C2747 C2746 1.387 . S
H2748 C2760 0.930 . S
H2749 C2762 0.930 . S
H2750 C2763 0.930 . S
H2751 C2767 0.959 . S
H2752 C2767 0.959 . S
H2753 C2767 0.961 . S
H2754 C2768 0.960 . S
H2755 C2768 0.961 . S
H2756 C2768 0.959 . S
H2757 C2771 0.929 . S
H2758 C2772 0.931 . S
H2759 C2774 0.930 . S
C2760 H2748 0.930 . S
C2760 C2761 1.399 . S
C2760 C2765 1.399 . S
C2761 C2760 1.399 . S
C2761 C2762 1.376 . S
C2762 H2749 0.930 . S
C2762 C2761 1.376 . S
C2762 C2763 1.388 . S
C2763 H2750 0.930 . S
C2763 C2762 1.388 . S
C2763 C2764 1.390 . S
C2764 C2763 1.390 . S
C2764 C2765 1.394 . S
C2764 C2770 1.465 . S
C2765 C2760 1.399 . S
C2765 C2764 1.394 . S
C2765 C2766 1.516 . S
C2766 C2765 1.516 . S
C2766 C2767 1.502 . S
C2766 C2768 1.561 . S
C2766 C2769 1.526 . S
C2767 H2751 0.959 . S
C2767 H2752 0.959 . S
C2767 H2753 0.961 . S
C2767 C2766 1.502 . S
C2768 H2754 0.960 . S
C2768 H2755 0.961 . S
C2768 H2756 0.959 . S
C2768 C2766 1.561 . S
C2769 C2766 1.526 . S
C2769 C2770 1.396 . S
C2769 C2774 1.390 . S
C2770 C2764 1.465 . S
C2770 C2769 1.396 . S
C2770 C2771 1.399 . S
C2771 H2757 0.929 . S
C2771 C2770 1.399 . S
C2771 C2772 1.385 . S
C2772 H2758 0.931 . S
C2772 C2771 1.385 . S
C2772 C2773 1.389 . S
C2773 C2772 1.389 . S
C2773 C2774 1.387 . S
C2774 H2759 0.930 . S
C2774 C2769 1.390 . S
C2774 C2773 1.387 . S
H2775 C2787 0.930 . S
H2776 C2789 0.930 . S
H2777 C2790 0.930 . S
H2778 C2794 0.959 . S
H2779 C2794 0.959 . S
H2780 C2794 0.961 . S
H2781 C2795 0.960 . S
H2782 C2795 0.961 . S
H2783 C2795 0.959 . S
H2784 C2798 0.929 . S
H2785 C2799 0.931 . S
H2786 C2801 0.930 . S
C2787 H2775 0.930 . S
C2787 C2788 1.399 . S
C2787 C2792 1.399 . S
C2788 C2787 1.399 . S
C2788 C2789 1.376 . S
C2789 H2776 0.930 . S
C2789 C2788 1.376 . S
C2789 C2790 1.388 . S
C2790 H2777 0.930 . S
C2790 C2789 1.388 . S
C2790 C2791 1.390 . S
C2791 C2790 1.390 . S
C2791 C2792 1.394 . S
C2791 C2797 1.465 . S
C2792 C2787 1.399 . S
C2792 C2791 1.394 . S
C2792 C2793 1.516 . S
C2793 C2792 1.516 . S
C2793 C2794 1.502 . S
C2793 C2795 1.561 . S
C2793 C2796 1.526 . S
C2794 H2778 0.959 . S
C2794 H2779 0.959 . S
C2794 H2780 0.961 . S
C2794 C2793 1.502 . S
C2795 H2781 0.960 . S
C2795 H2782 0.961 . S
C2795 H2783 0.959 . S
C2795 C2793 1.561 . S
C2796 C2793 1.526 . S
C2796 C2797 1.396 . S
C2796 C2801 1.390 . S
C2797 C2791 1.465 . S
C2797 C2796 1.396 . S
C2797 C2798 1.399 . S
C2798 H2784 0.929 . S
C2798 C2797 1.399 . S
C2798 C2799 1.385 . S
C2799 H2785 0.931 . S
C2799 C2798 1.385 . S
C2799 C2800 1.389 . S
C2800 C2799 1.389 . S
C2800 C2801 1.387 . S
C2801 H2786 0.930 . S
C2801 C2796 1.390 . S
C2801 C2800 1.387 . S
H2802 C2814 0.930 . S
H2803 C2816 0.930 . S
H2804 C2817 0.930 . S
H2805 C2821 0.959 . S
H2806 C2821 0.959 . S
H2807 C2821 0.961 . S
H2808 C2822 0.960 . S
H2809 C2822 0.961 . S
H2810 C2822 0.959 . S
H2811 C2825 0.929 . S
H2812 C2826 0.931 . S
H2813 C2828 0.930 . S
C2814 H2802 0.930 . S
C2814 C2815 1.399 . S
C2814 C2819 1.399 . S
C2815 C2814 1.399 . S
C2815 C2816 1.376 . S
C2816 H2803 0.930 . S
C2816 C2815 1.376 . S
C2816 C2817 1.388 . S
C2817 H2804 0.930 . S
C2817 C2816 1.388 . S
C2817 C2818 1.390 . S
C2818 C2817 1.390 . S
C2818 C2819 1.394 . S
C2818 C2824 1.465 . S
C2819 C2814 1.399 . S
C2819 C2818 1.394 . S
C2819 C2820 1.516 . S
C2820 C2819 1.516 . S
C2820 C2821 1.502 . S
C2820 C2822 1.561 . S
C2820 C2823 1.526 . S
C2821 H2805 0.959 . S
C2821 H2806 0.959 . S
C2821 H2807 0.961 . S
C2821 C2820 1.502 . S
C2822 H2808 0.960 . S
C2822 H2809 0.961 . S
C2822 H2810 0.959 . S
C2822 C2820 1.561 . S
C2823 C2820 1.526 . S
C2823 C2824 1.396 . S
C2823 C2828 1.390 . S
C2824 C2818 1.465 . S
C2824 C2823 1.396 . S
C2824 C2825 1.399 . S
C2825 H2811 0.929 . S
C2825 C2824 1.399 . S
C2825 C2826 1.385 . S
C2826 H2812 0.931 . S
C2826 C2825 1.385 . S
C2826 C2827 1.389 . S
C2827 C2826 1.389 . S
C2827 C2828 1.387 . S
C2828 H2813 0.930 . S
C2828 C2823 1.390 . S
C2828 C2827 1.387 . S
H2829 C2841 0.930 . S
H2830 C2843 0.930 . S
H2831 C2844 0.930 . S
H2832 C2848 0.959 . S
H2833 C2848 0.959 . S
H2834 C2848 0.961 . S
H2835 C2849 0.960 . S
H2836 C2849 0.961 . S
H2837 C2849 0.959 . S
H2838 C2852 0.929 . S
H2839 C2853 0.931 . S
H2840 C2855 0.930 . S
C2841 H2829 0.930 . S
C2841 C2842 1.399 . S
C2841 C2846 1.399 . S
C2842 C2841 1.399 . S
C2842 C2843 1.376 . S
C2843 H2830 0.930 . S
C2843 C2842 1.376 . S
C2843 C2844 1.388 . S
C2844 H2831 0.930 . S
C2844 C2843 1.388 . S
C2844 C2845 1.390 . S
C2845 C2844 1.390 . S
C2845 C2846 1.394 . S
C2845 C2851 1.465 . S
C2846 C2841 1.399 . S
C2846 C2845 1.394 . S
C2846 C2847 1.516 . S
C2847 C2846 1.516 . S
C2847 C2848 1.502 . S
C2847 C2849 1.561 . S
C2847 C2850 1.526 . S
C2848 H2832 0.959 . S
C2848 H2833 0.959 . S
C2848 H2834 0.961 . S
C2848 C2847 1.502 . S
C2849 H2835 0.960 . S
C2849 H2836 0.961 . S
C2849 H2837 0.959 . S
C2849 C2847 1.561 . S
C2850 C2847 1.526 . S
C2850 C2851 1.396 . S
C2850 C2855 1.390 . S
C2851 C2845 1.465 . S
C2851 C2850 1.396 . S
C2851 C2852 1.399 . S
C2852 H2838 0.929 . S
C2852 C2851 1.399 . S
C2852 C2853 1.385 . S
C2853 H2839 0.931 . S
C2853 C2852 1.385 . S
C2853 C2854 1.389 . S
C2854 C2853 1.389 . S
C2854 C2855 1.387 . S
C2855 H2840 0.930 . S
C2855 C2850 1.390 . S
C2855 C2854 1.387 . S
H2856 C2868 0.930 . S
H2857 C2870 0.930 . S
H2858 C2871 0.930 . S
H2859 C2875 0.959 . S
H2860 C2875 0.959 . S
H2861 C2875 0.961 . S
H2862 C2876 0.960 . S
H2863 C2876 0.961 . S
H2864 C2876 0.959 . S
H2865 C2879 0.929 . S
H2866 C2880 0.931 . S
H2867 C2882 0.930 . S
C2868 H2856 0.930 . S
C2868 C2869 1.399 . S
C2868 C2873 1.399 . S
C2869 C2868 1.399 . S
C2869 C2870 1.376 . S
C2870 H2857 0.930 . S
C2870 C2869 1.376 . S
C2870 C2871 1.388 . S
C2871 H2858 0.930 . S
C2871 C2870 1.388 . S
C2871 C2872 1.390 . S
C2872 C2871 1.390 . S
C2872 C2873 1.394 . S
C2872 C2878 1.465 . S
C2873 C2868 1.399 . S
C2873 C2872 1.394 . S
C2873 C2874 1.516 . S
C2874 C2873 1.516 . S
C2874 C2875 1.502 . S
C2874 C2876 1.561 . S
C2874 C2877 1.526 . S
C2875 H2859 0.959 . S
C2875 H2860 0.959 . S
C2875 H2861 0.961 . S
C2875 C2874 1.502 . S
C2876 H2862 0.960 . S
C2876 H2863 0.961 . S
C2876 H2864 0.959 . S
C2876 C2874 1.561 . S
C2877 C2874 1.526 . S
C2877 C2878 1.396 . S
C2877 C2882 1.390 . S
C2878 C2872 1.465 . S
C2878 C2877 1.396 . S
C2878 C2879 1.399 . S
C2879 H2865 0.929 . S
C2879 C2878 1.399 . S
C2879 C2880 1.385 . S
C2880 H2866 0.931 . S
C2880 C2879 1.385 . S
C2880 C2881 1.389 . S
C2881 C2880 1.389 . S
C2881 C2882 1.387 . S
C2882 H2867 0.930 . S
C2882 C2877 1.390 . S
C2882 C2881 1.387 . S
H2883 C2895 0.930 . S
H2884 C2897 0.930 . S
H2885 C2898 0.930 . S
H2886 C2902 0.959 . S
H2887 C2902 0.959 . S
H2888 C2902 0.961 . S
H2889 C2903 0.960 . S
H2890 C2903 0.961 . S
H2891 C2903 0.959 . S
H2892 C2906 0.929 . S
H2893 C2907 0.931 . S
H2894 C2909 0.930 . S
C2895 H2883 0.930 . S
C2895 C2896 1.399 . S
C2895 C2900 1.399 . S
C2896 C2895 1.399 . S
C2896 C2897 1.376 . S
C2897 H2884 0.930 . S
C2897 C2896 1.376 . S
C2897 C2898 1.388 . S
C2898 H2885 0.930 . S
C2898 C2897 1.388 . S
C2898 C2899 1.390 . S
C2899 C2898 1.390 . S
C2899 C2900 1.394 . S
C2899 C2905 1.465 . S
C2900 C2895 1.399 . S
C2900 C2899 1.394 . S
C2900 C2901 1.516 . S
C2901 C2900 1.516 . S
C2901 C2902 1.502 . S
C2901 C2903 1.561 . S
C2901 C2904 1.526 . S
C2902 H2886 0.959 . S
C2902 H2887 0.959 . S
C2902 H2888 0.961 . S
C2902 C2901 1.502 . S
C2903 H2889 0.960 . S
C2903 H2890 0.961 . S
C2903 H2891 0.959 . S
C2903 C2901 1.561 . S
C2904 C2901 1.526 . S
C2904 C2905 1.396 . S
C2904 C2909 1.390 . S
C2905 C2899 1.465 . S
C2905 C2904 1.396 . S
C2905 C2906 1.399 . S
C2906 H2892 0.929 . S
C2906 C2905 1.399 . S
C2906 C2907 1.385 . S
C2907 H2893 0.931 . S
C2907 C2906 1.385 . S
C2907 C2908 1.389 . S
C2908 C2907 1.389 . S
C2908 C2909 1.387 . S
C2909 H2894 0.930 . S
C2909 C2904 1.390 . S
C2909 C2908 1.387 . S
H2910 C2922 0.930 . S
H2911 C2924 0.930 . S
H2912 C2925 0.930 . S
H2913 C2929 0.959 . S
H2914 C2929 0.959 . S
H2915 C2929 0.961 . S
H2916 C2930 0.960 . S
H2917 C2930 0.961 . S
H2918 C2930 0.959 . S
H2919 C2933 0.929 . S
H2920 C2934 0.931 . S
H2921 C2936 0.930 . S
C2922 H2910 0.930 . S
C2922 C2923 1.399 . S
C2922 C2927 1.399 . S
C2923 C2922 1.399 . S
C2923 C2924 1.376 . S
C2924 H2911 0.930 . S
C2924 C2923 1.376 . S
C2924 C2925 1.388 . S
C2925 H2912 0.930 . S
C2925 C2924 1.388 . S
C2925 C2926 1.390 . S
C2926 C2925 1.390 . S
C2926 C2927 1.394 . S
C2926 C2932 1.465 . S
C2927 C2922 1.399 . S
C2927 C2926 1.394 . S
C2927 C2928 1.516 . S
C2928 C2927 1.516 . S
C2928 C2929 1.502 . S
C2928 C2930 1.561 . S
C2928 C2931 1.526 . S
C2929 H2913 0.959 . S
C2929 H2914 0.959 . S
C2929 H2915 0.961 . S
C2929 C2928 1.502 . S
C2930 H2916 0.960 . S
C2930 H2917 0.961 . S
C2930 H2918 0.959 . S
C2930 C2928 1.561 . S
C2931 C2928 1.526 . S
C2931 C2932 1.396 . S
C2931 C2936 1.390 . S
C2932 C2926 1.465 . S
C2932 C2931 1.396 . S
C2932 C2933 1.399 . S
C2933 H2919 0.929 . S
C2933 C2932 1.399 . S
C2933 C2934 1.385 . S
C2934 H2920 0.931 . S
C2934 C2933 1.385 . S
C2934 C2935 1.389 . S
C2935 C2934 1.389 . S
C2935 C2936 1.387 . S
C2936 H2921 0.930 . S
C2936 C2931 1.390 . S
C2936 C2935 1.387 . S
H2937 C2949 0.930 . S
H2938 C2951 0.930 . S
H2939 C2952 0.930 . S
H2940 C2956 0.959 . S
H2941 C2956 0.959 . S
H2942 C2956 0.961 . S
H2943 C2957 0.960 . S
H2944 C2957 0.961 . S
H2945 C2957 0.959 . S
H2946 C2960 0.929 . S
H2947 C2961 0.931 . S
H2948 C2963 0.930 . S
C2949 H2937 0.930 . S
C2949 C2950 1.399 . S
C2949 C2954 1.399 . S
C2950 C2949 1.399 . S
C2950 C2951 1.376 . S
C2951 H2938 0.930 . S
C2951 C2950 1.376 . S
C2951 C2952 1.388 . S
C2952 H2939 0.930 . S
C2952 C2951 1.388 . S
C2952 C2953 1.390 . S
C2953 C2952 1.390 . S
C2953 C2954 1.394 . S
C2953 C2959 1.465 . S
C2954 C2949 1.399 . S
C2954 C2953 1.394 . S
C2954 C2955 1.516 . S
C2955 C2954 1.516 . S
C2955 C2956 1.502 . S
C2955 C2957 1.561 . S
C2955 C2958 1.526 . S
C2956 H2940 0.959 . S
C2956 H2941 0.959 . S
C2956 H2942 0.961 . S
C2956 C2955 1.502 . S
C2957 H2943 0.960 . S
C2957 H2944 0.961 . S
C2957 H2945 0.959 . S
C2957 C2955 1.561 . S
C2958 C2955 1.526 . S
C2958 C2959 1.396 . S
C2958 C2963 1.390 . S
C2959 C2953 1.465 . S
C2959 C2958 1.396 . S
C2959 C2960 1.399 . S
C2960 H2946 0.929 . S
C2960 C2959 1.399 . S
C2960 C2961 1.385 . S
C2961 H2947 0.931 . S
C2961 C2960 1.385 . S
C2961 C2962 1.389 . S
C2962 C2961 1.389 . S
C2962 C2963 1.387 . S
C2963 H2948 0.930 . S
C2963 C2958 1.390 . S
C2963 C2962 1.387 . S
C709 C15 1.800 . S
C721 C559 2.061 . S
C736 C588 2.047 . S
C748 C44 1.835 . S
C763 C73 1.798 . S
C775 C501 2.060 . S
C790 C530 2.039 . S
C802 C102 1.894 . S
C817 C617 2.054 . S
C829 C131 1.853 . S
C844 C160 1.849 . S
C856 C646 2.055 . S
C871 C472 2.041 . S
C883 C189 1.892 . S
C898 C218 1.807 . S
C910 C675 2.055 . S
C925 C66 2.049 . S
C937 C247 1.828 . S
C952 C276 1.893 . S
C964 C95 2.038 . S
C979 C8 2.041 . S
C991 C305 1.862 . S
C1006 C334 1.881 . S
C1018 C37 2.039 . S
C1033 C363 1.887 . S
C1045 C182 2.044 . S
C1060 C211 2.040 . S
C1072 C392 1.894 . S
C1087 C421 1.887 . S
C1099 C124 2.044 . S
C1114 C153 2.040 . S
C1126 C450 1.894 . S
C1141 C356 2.038 . S
C1153 C479 1.894 . S
C1168 C240 2.059 . S
C1180 C508 1.799 . S
C1195 C269 2.052 . S
C1207 C537 1.859 . S
C1222 C566 1.859 . S
C1234 C298 2.052 . S
C1249 C595 1.798 . S
C1261 C327 2.060 . S
C1276 C624 1.892 . S
C1288 C414 2.038 . S
C1303 C443 2.039 . S
C1315 C653 1.876 . S
C1330 C682 1.885 . S
C1342 C385 2.045 . S
C1357 C5 2.469 . S
C1369 C63 2.496 . S
C1384 C34 2.493 . S
C1396 C92 2.482 . S
C1411 C179 2.454 . S
C1423 C121 2.483 . S
C1438 C150 2.481 . S
C1450 C208 2.454 . S
C1465 C237 2.462 . S
C1477 C353 2.462 . S
C1492 C382 2.481 . S
C1504 C266 2.454 . S
C1519 C295 2.487 . S
C1531 C411 2.489 . S
C1546 C324 2.470 . S
C1558 C440 2.496 . S
C1573 C469 2.481 . S
C1585 C556 2.454 . S
C1600 C614 2.454 . S
C1612 C498 2.474 . S
C1627 C643 2.470 . S
C1639 C527 2.496 . S
C1654 C585 2.469 . S
C1666 C672 2.496 . S
C1681 C651 0.955 . S
C1693 C13 0.876 . S
C1708 C42 0.811 . S
C1720 C477 0.754 . S
C1735 C680 0.783 . S
C1747 C71 0.752 . S
C1762 C100 0.877 . S
C1774 C622 0.953 . S
C1789 C535 0.753 . S
C1801 C129 0.773 . S
C1816 C158 0.913 . S
C1828 C564 0.971 . S
C1843 C187 0.845 . S
C1855 C593 0.931 . S
C1870 C506 0.917 . S
C1882 C216 0.972 . S
C1897 C390 0.980 . S
C1909 C245 0.937 . S
C1924 C419 0.750 . S
C1936 C274 0.797 . S
C1951 C448 0.852 . S
C1963 C303 0.772 . S
C1978 C332 0.912 . S
C1990 C361 0.970 . S
C2005 C300 1.753 . S
C2017 C155 1.744 . S
C2032 C184 1.757 . S
C2044 C329 1.749 . S
C2059 C213 1.718 . S
C2071 C242 1.717 . S
C2086 C271 1.769 . S
C2098 C126 1.772 . S
C2113 C97 1.717 . S
C2125 C416 1.718 . S
C2140 C445 1.765 . S
C2152 C10 1.758 . S
C2167 C39 1.771 . S
C2179 C358 1.772 . S
C2194 C387 1.720 . S
C2206 C68 1.727 . S
C2221 C503 1.771 . S
C2233 C677 1.772 . S
C2248 C532 1.771 . S
C2260 C619 1.772 . S
C2275 C648 1.748 . S
C2287 C561 1.739 . S
C2302 C590 1.726 . S
C2314 C474 1.735 . S
C2329 C21 0.994 . S
C2341 C137 1.138 . S
C2356 C50 1.132 . S
C2368 C166 0.982 . S
C2383 C195 1.090 . S
C2395 C79 1.022 . S
C2410 C108 1.128 . S
C2422 C224 1.011 . S
C2437 C253 0.991 . S
C2449 C427 1.140 . S
C2464 C282 1.091 . S
C2476 C456 1.021 . S
C2491 C311 0.991 . S
C2503 C369 1.120 . S
C2518 C398 0.965 . S
C2530 C340 1.152 . S
C2545 C485 1.133 . S
C2557 C630 1.005 . S
C2572 C514 1.012 . S
C2584 C572 1.098 . S
C2599 C543 1.012 . S
C2611 C601 1.098 . S
C2626 C659 1.034 . S
C2638 C688 1.076 . S
C2653 C90 0.819 . S
C2665 C148 0.839 . S
C2680 C177 0.780 . S
C2692 C3 0.798 . S
C2707 C32 0.806 . S
C2719 C206 0.834 . S
C2734 C61 0.839 . S
C2746 C119 0.819 . S
C2761 C525 0.781 . S
C2773 C670 0.802 . S
C2788 C612 0.831 . S
C2800 C554 0.838 . S
C2815 C641 0.814 . S
C2827 C583 0.837 . S
C2842 C496 0.813 . S
C2854 C467 0.837 . S
C2869 C264 0.780 . S
C2881 C322 0.795 . S
C2896 C380 0.814 . S
C2908 C438 0.837 . S
C2923 C409 0.780 . S
C2935 C351 0.795 . S
C2950 C235 0.839 . S
C2962 C293 0.819 . S
