# Generated by pormake.
# Topology tfs, (6)-cn, num edge types: 1
# Building blocks:
#     Node 0, Type 0, BuildingBlock: BETDIP_clean_sbu_0, # of connection points: 6
#     Node 1, Type 0, BuildingBlock: BETDIP_clean_sbu_0, # of connection points: 6
#     Node 2, Type 0, BuildingBlock: BETDIP_clean_sbu_0, # of connection points: 6
#     Node 3, Type 0, BuildingBlock: BETDIP_clean_sbu_0, # of connection points: 6
#     Node 4, Type 0, BuildingBlock: BETDIP_clean_sbu_0, # of connection points: 6
#     Node 5, Type 0, BuildingBlock: BETDIP_clean_sbu_0, # of connection points: 6
#     Edge 6, Type (0, 0), BuildingBlock: EYOCIG_clean_linker_4, # of connection points: 2
#     Edge 7, Type (0, 0), BuildingBlock: EYOCIG_clean_linker_4, # of connection points: 2
#     Edge 8, Type (0, 0), BuildingBlock: EYOCIG_clean_linker_4, # of connection points: 2
#     Edge 9, Type (0, 0), BuildingBlock: EYOCIG_clean_linker_4, # of connection points: 2
#     Edge 10, Type (0, 0), BuildingBlock: EYOCIG_clean_linker_4, # of connection points: 2
#     Edge 11, Type (0, 0), BuildingBlock: EYOCIG_clean_linker_4, # of connection points: 2
#     Edge 12, Type (0, 0), BuildingBlock: EYOCIG_clean_linker_4, # of connection points: 2
#     Edge 13, Type (0, 0), BuildingBlock: EYOCIG_clean_linker_4, # of connection points: 2
#     Edge 14, Type (0, 0), BuildingBlock: EYOCIG_clean_linker_4, # of connection points: 2
#     Edge 15, Type (0, 0), BuildingBlock: EYOCIG_clean_linker_4, # of connection points: 2
#     Edge 16, Type (0, 0), BuildingBlock: EYOCIG_clean_linker_4, # of connection points: 2
#     Edge 17, Type (0, 0), BuildingBlock: EYOCIG_clean_linker_4, # of connection points: 2
#     Edge 18, Type (0, 0), BuildingBlock: EYOCIG_clean_linker_4, # of connection points: 2
#     Edge 19, Type (0, 0), BuildingBlock: EYOCIG_clean_linker_4, # of connection points: 2
#     Edge 20, Type (0, 0), BuildingBlock: EYOCIG_clean_linker_4, # of connection points: 2
#     Edge 21, Type (0, 0), BuildingBlock: EYOCIG_clean_linker_4, # of connection points: 2
#     Edge 22, Type (0, 0), BuildingBlock: EYOCIG_clean_linker_4, # of connection points: 2
#     Edge 23, Type (0, 0), BuildingBlock: EYOCIG_clean_linker_4, # of connection points: 2
# Relax obj value: 0.605
# Max RMSD: 0.304
# Mean RMSD: 0.304
data_MOF--net-tfs--node1-BETDIP_clean_sbu_0--edge1-EYOCIG_clean_linker_4
_symmetry_space_group_name_H-M    P1
_symmetry_Int_Tables_number       1
_symmetry_cell_setting            triclinic
loop_
_symmetry_equiv_pos_as_xyz
'x, y, z'
_cell_length_a     45.339378
_cell_length_b     45.341632
_cell_length_c     11.346452
_cell_angle_alpha  89.998722
_cell_angle_beta   90.001179
_cell_angle_gamma 120.0143
loop_
_atom_site_label
_atom_site_type_symbol
_atom_site_fract_x
_atom_site_fract_y
_atom_site_fract_z
_atom_type_partial_charge
Tb0 Tb 0.21799 0.45271 0.0189 0.0
Tb1 Tb 0.25017 0.41055 1.00208 0.0
C2 C 0.20107 0.49634 0.06998 0.0
C3 C 0.21251 0.53293 0.05159 0.0
C4 C 0.22299 0.55506 0.14899 0.0
C5 C 0.22813 0.58806 0.13798 0.0
C6 C 0.22277 0.59939 0.02948 0.0
C7 C 0.21425 0.57823 0.93044 0.0
C8 C 0.20915 0.54522 0.94121 0.0
C9 C 0.22364 0.43541 0.8017 0.0
C10 C 0.299 0.48806 1.00362 0.0
C11 C 0.2655 0.36647 0.94446 0.0
C12 C 0.25536 0.33059 0.96725 0.0
C13 C 0.25076 0.30941 0.87051 0.0
C14 C 0.25466 0.28093 0.88437 0.0
C15 C 0.26334 0.27382 0.99496 0.0
C16 C 0.26184 0.29121 0.09463 0.0
C17 C 0.25783 0.31962 0.08099 0.0
C18 C 0.24409 0.42699 0.22026 0.0
C19 C 0.16958 0.37481 0.01868 0.0
O20 O 0.21933 0.48869 0.13945 0.0
O21 O 0.18975 0.47635 0.97809 0.0
O22 O 0.24569 0.44408 0.88153 0.0
O23 O 0.19858 0.43859 0.83947 0.0
O24 O 0.27245 0.49054 0.03757 0.0
O25 O 0.29556 0.45906 0.96522 0.0
O26 O 0.24482 0.37262 0.88266 0.0
O27 O 0.27997 0.38806 0.03101 0.0
O28 O 0.22239 0.41902 0.13956 0.0
O29 O 0.26869 0.42292 0.18311 0.0
O30 O 0.19611 0.37243 0.9851 0.0
O31 O 0.17275 0.40386 0.05568 0.0
H32 H 0.22574 0.54632 0.23496 0.0
H33 H 0.23493 0.60421 0.21528 0.0
H34 H 0.21022 0.58671 0.84576 0.0
H35 H 0.20119 0.52896 0.86412 0.0
H36 H 0.24812 0.31701 0.78238 0.0
H37 H 0.25538 0.26742 0.80662 0.0
H38 H 0.26809 0.28563 0.18095 0.0
H39 H 0.26049 0.33496 0.15777 0.0
Tb40 Tb 0.7849 0.20844 0.01893 0.0
Tb41 Tb 0.85926 0.24072 1.00186 0.0
C42 C 0.72437 0.1915 0.07042 0.0
C43 C 0.6992 0.2029 0.05194 0.0
C44 C 0.68757 0.21343 0.14925 0.0
C45 C 0.65969 0.21853 0.1382 0.0
C46 C 0.64297 0.21309 0.02974 0.0
C47 C 0.6556 0.20454 0.93075 0.0
C48 C 0.68352 0.19947 0.94157 0.0
C49 C 0.8078 0.21405 0.80163 0.0
C50 C 0.83046 0.28945 1.00309 0.0
C51 C 0.91864 0.25604 0.9438 0.0
C52 C 0.94431 0.24579 0.9662 0.0
C53 C 0.96067 0.24097 0.86924 0.0
C54 C 0.99301 0.24472 0.88259 0.0
C55 C 1.00898 0.25349 0.99286 0.0
C56 C 0.99029 0.2522 0.09283 0.0
C57 C 0.95791 0.24833 0.07972 0.0
C58 C 0.83679 0.23472 0.2201 0.0
C59 C 0.8145 0.16013 0.01924 0.0
O60 O 0.75033 0.20985 0.1396 0.0
O61 O 0.73298 0.18008 0.97865 0.0
O62 O 0.82118 0.23612 0.8814 0.0
O63 O 0.77958 0.18898 0.83952 0.0
O64 O 0.80145 0.26288 0.03708 0.0
O65 O 0.85609 0.28607 0.96491 0.0
O66 O 0.89177 0.23545 0.88196 0.0
O67 O 0.91157 0.27047 0.03064 0.0
O68 O 0.82306 0.21298 0.13952 0.0
O69 O 0.86544 0.25933 0.1828 0.0
O70 O 0.84338 0.18667 0.9855 0.0
O71 O 0.78858 0.16327 0.05606 0.0
H72 H 0.69909 0.21624 0.23521 0.0
H73 H 0.65035 0.22536 0.21545 0.0
H74 H 0.64306 0.20046 0.8461 0.0
H75 H 0.69182 0.19149 0.86453 0.0
H76 H 0.95031 0.23827 0.78128 0.0
H77 H 1.00709 0.24527 0.80461 0.0
H78 H 1.00226 0.25852 0.17892 0.0
H79 H 0.9454 0.25116 0.15668 0.0
Tb80 Tb 0.59611 0.77537 0.01931 0.0
Tb81 Tb 0.63831 0.84974 1.00237 0.0
C82 C 0.55241 0.71481 0.07035 0.0
C83 C 0.51581 0.68965 0.05193 0.0
C84 C 0.49365 0.67805 0.14927 0.0
C85 C 0.46063 0.65018 0.13826 0.0
C86 C 0.44932 0.63345 0.02983 0.0
C87 C 0.47051 0.64605 0.93084 0.0
C88 C 0.50353 0.67395 0.9416 0.0
C89 C 0.61348 0.79832 0.8021 0.0
C90 C 0.56078 0.82101 1.00368 0.0
C91 C 0.68243 0.9091 0.94432 0.0
C92 C 0.71832 0.93483 0.96724 0.0
C93 C 0.73959 0.95132 0.87057 0.0
C94 C 0.76813 0.98368 0.8844 0.0
C95 C 0.7752 0.99954 0.99486 0.0
C96 C 0.75771 0.98073 0.09454 0.0
C97 C 0.72924 0.94833 0.08094 0.0
C98 C 0.62181 0.82726 0.2206 0.0
C99 C 0.67402 0.80488 0.01978 0.0
O100 O 0.56008 0.74073 0.13979 0.0
O101 O 0.57242 0.72346 0.97852 0.0
O102 O 0.60479 0.81169 0.88187 0.0
O103 O 0.61029 0.77008 0.83994 0.0
O104 O 0.55829 0.79199 0.03774 0.0
O105 O 0.5898 0.8466 0.96533 0.0
O106 O 0.67629 0.88221 0.8829 0.0
O107 O 0.6608 0.90206 0.03068 0.0
O108 O 0.62976 0.8135 0.13997 0.0
O109 O 0.62596 0.85595 0.18336 0.0
O110 O 0.67642 0.83379 0.98605 0.0
O111 O 0.64493 0.77898 0.05655 0.0
H112 H 0.50238 0.68958 0.2352 0.0
H113 H 0.44447 0.64088 0.21554 0.0
H114 H 0.46204 0.63351 0.8462 0.0
H115 H 0.51981 0.68222 0.86455 0.0
H116 H 0.73203 0.94104 0.78248 0.0
H117 H 0.78172 0.99785 0.80665 0.0
H118 H 0.76325 0.99262 0.18077 0.0
H119 H 0.71384 0.93572 0.15768 0.0
Tb120 Tb 0.84009 0.58643 0.01857 0.0
Tb121 Tb 0.80811 0.6288 1.00174 0.0
C122 C 0.85678 0.54262 0.06945 0.0
C123 C 0.8453 0.50603 0.05071 0.0
C124 C 0.83471 0.48382 0.14787 0.0
C125 C 0.82957 0.45081 0.13662 0.0
C126 C 0.83503 0.43957 0.02811 0.0
C127 C 0.84364 0.46082 0.92926 0.0
C128 C 0.84875 0.49382 0.94027 0.0
C129 C 0.83455 0.60384 0.80138 0.0
C130 C 0.75912 0.55132 1.00308 0.0
C131 C 0.79302 0.67303 0.94395 0.0
C132 C 0.80325 0.70892 0.96703 0.0
C133 C 0.80801 0.73021 0.87046 0.0
C134 C 0.8042 0.75874 0.88449 0.0
C135 C 0.79545 0.76578 0.99506 0.0
C136 C 0.79681 0.74828 0.09463 0.0
C137 C 0.80073 0.71982 0.08083 0.0
C138 C 0.81404 0.61224 0.21992 0.0
C139 C 0.88867 0.6643 0.01893 0.0
O140 O 0.8385 0.55026 0.1388 0.0
O141 O 0.86826 0.56271 0.97784 0.0
O142 O 0.8125 0.59522 0.88118 0.0
O143 O 0.85954 0.60056 0.83917 0.0
O144 O 0.7856 0.54875 0.03714 0.0
O145 O 0.76265 0.58037 0.96465 0.0
O146 O 0.81374 0.66686 0.88246 0.0
O147 O 0.77839 0.65138 0.03022 0.0
O148 O 0.83575 0.62015 0.13929 0.0
O149 O 0.78954 0.61647 0.18273 0.0
O150 O 0.86222 0.66679 0.98517 0.0
O151 O 0.88539 0.63519 0.05583 0.0
H152 H 0.83189 0.49248 0.23387 0.0
H153 H 0.8227 0.43461 0.21378 0.0
H154 H 0.84775 0.45241 0.84457 0.0
H155 H 0.85679 0.51015 0.86335 0.0
H156 H 0.81069 0.72266 0.7823 0.0
H157 H 0.80359 0.77234 0.80682 0.0
H158 H 0.7905 0.75381 0.18093 0.0
H159 H 0.79796 0.7044 0.15748 0.0
Tb160 Tb 0.27346 0.83062 0.01934 0.0
Tb161 Tb 0.1991 0.79852 1.00242 0.0
C162 C 0.33399 0.84739 0.07038 0.0
C163 C 0.35908 0.83589 0.05171 0.0
C164 C 0.37068 0.82529 0.14891 0.0
C165 C 0.39853 0.82012 0.13772 0.0
C166 C 0.41524 0.82558 0.02923 0.0
C167 C 0.40263 0.8342 0.93035 0.0
C168 C 0.37475 0.83933 0.9413 0.0
C169 C 0.25052 0.82505 0.80212 0.0
C170 C 0.22769 0.74964 1.00382 0.0
C171 C 0.13975 0.78332 0.94444 0.0
C172 C 0.11406 0.79353 0.96704 0.0
C173 C 0.09758 0.79823 0.87018 0.0
C174 C 0.06521 0.79439 0.88378 0.0
C175 C 0.04933 0.78566 0.9942 0.0
C176 C 0.06813 0.78707 0.09404 0.0
C177 C 0.10054 0.79102 0.08067 0.0
C178 C 0.22158 0.80448 0.22063 0.0
C179 C 0.24405 0.87909 0.01974 0.0
O180 O 0.30805 0.82911 0.13973 0.0
O181 O 0.32537 0.85884 0.9787 0.0
O182 O 0.23711 0.80299 0.88191 0.0
O183 O 0.27878 0.85008 0.83994 0.0
O184 O 0.25674 0.77615 0.03783 0.0
O185 O 0.20213 0.75311 0.96546 0.0
O186 O 0.16663 0.80397 0.8828 0.0
O187 O 0.14678 0.7688 0.03107 0.0
O188 O 0.23537 0.8262 0.14001 0.0
O189 O 0.19288 0.77994 0.1834 0.0
O190 O 0.21513 0.85261 0.98599 0.0
O191 O 0.26992 0.87587 0.05657 0.0
H192 H 0.35917 0.82247 0.23489 0.0
H193 H 0.40784 0.81324 0.2149 0.0
H194 H 0.41516 0.8383 0.84568 0.0
H195 H 0.36647 0.84737 0.86435 0.0
H196 H 0.10789 0.8009 0.78214 0.0
H197 H 0.05105 0.79374 0.80591 0.0
H198 H 0.05622 0.78077 0.18023 0.0
H199 H 0.11313 0.78828 0.15754 0.0
Tb200 Tb 0.4624 0.26363 0.0195 0.0
Tb201 Tb 0.42004 0.18929 1.00252 0.0
C202 C 0.50616 0.32416 0.07064 0.0
C203 C 0.54271 0.34936 0.05189 0.0
C204 C 0.56489 0.36114 0.14914 0.0
C205 C 0.59784 0.3891 0.13788 0.0
C206 C 0.60906 0.40574 0.02927 0.0
C207 C 0.58786 0.39296 0.93035 0.0
C208 C 0.55491 0.36497 0.94137 0.0
C209 C 0.44506 0.24071 0.80223 0.0
C210 C 0.49753 0.2178 1.00412 0.0
C211 C 0.37581 0.12998 0.94447 0.0
C212 C 0.33991 0.10431 0.96743 0.0
C213 C 0.31865 0.0878 0.87078 0.0
C214 C 0.29012 0.05544 0.88469 0.0
C215 C 0.28305 0.03962 0.99521 0.0
C216 C 0.30052 0.05847 0.09486 0.0
C217 C 0.32898 0.09086 0.08118 0.0
C218 C 0.43655 0.21173 0.22077 0.0
C219 C 0.38454 0.23433 0.01978 0.0
O220 O 0.4986 0.2982 0.13974 0.0
O221 O 0.48604 0.31555 0.9791 0.0
O222 O 0.45366 0.22728 0.88206 0.0
O223 O 0.44835 0.26899 0.84002 0.0
O224 O 0.5001 0.24686 0.03814 0.0
O225 O 0.46849 0.19228 0.96563 0.0
O226 O 0.38201 0.15688 0.88306 0.0
O227 O 0.39744 0.13696 0.03081 0.0
O228 O 0.42867 0.22555 0.14014 0.0
O229 O 0.43232 0.18301 0.18353 0.0
O230 O 0.38205 0.2054 0.98594 0.0
O231 O 0.41365 0.26015 0.05679 0.0
H232 H 0.55622 0.34968 0.2352 0.0
H233 H 0.61401 0.39854 0.21509 0.0
H234 H 0.59626 0.40544 0.84558 0.0
H235 H 0.53861 0.35655 0.86438 0.0
H236 H 0.32622 0.09805 0.78266 0.0
H237 H 0.27654 0.04124 0.80696 0.0
H238 H 0.29497 0.04661 0.18113 0.0
H239 H 0.34438 0.1035 0.15789 0.0
C240 C 0.32874 0.23876 0.0173 0.0
C241 C 0.35435 0.23696 0.01872 0.0
C242 C 0.30143 0.24515 0.01006 0.0
C243 C 0.28394 0.25802 1.00031 0.0
C244 C 0.10944 0.3189 0.01522 0.0
C245 C 0.1368 0.34456 0.01709 0.0
C246 C 0.07577 0.29153 1.00748 0.0
C247 C 0.0454 0.27403 0.99753 0.0
C248 C 0.81032 0.10002 0.01688 0.0
C249 C 0.81203 0.12738 0.01822 0.0
C250 C 0.80397 0.06633 1.00968 0.0
C251 C 0.79107 0.03595 0.99992 0.0
C252 C 0.75734 0.79443 0.01021 0.0
C253 C 0.77485 0.78158 1.00033 0.0
C254 C 0.72995 0.80071 0.01749 0.0
C255 C 0.70428 0.80239 0.01883 0.0
C256 C 0.98255 0.74752 1.00897 0.0
C257 C 1.01292 0.76505 0.99919 0.0
C258 C 0.94887 0.72015 0.01633 0.0
C259 C 0.92149 0.69451 0.01784 0.0
C260 C 0.24826 0.93921 0.01745 0.0
C261 C 0.24659 0.91186 0.01882 0.0
C262 C 0.2545 0.97285 0.01019 0.0
C263 C 0.2673 1.00322 1.00036 0.0
C264 C 0.22403 0.68957 1.00823 0.0
C265 C 0.22472 0.71653 1.00492 0.0
C266 C 0.2241 0.65843 0.01474 0.0
C267 C 0.22351 0.63155 0.02163 0.0
C268 C 0.55393 0.21414 1.00862 0.0
C269 C 0.52764 0.21481 1.00523 0.0
C270 C 0.58518 0.21428 0.01509 0.0
C271 C 0.6115 0.21375 0.02192 0.0
C272 C 0.39023 0.57574 0.01498 0.0
C273 C 0.41713 0.60203 0.02198 0.0
C274 C 0.35906 0.54452 1.00831 0.0
C275 C 0.3321 0.51823 1.00488 0.0
C276 C 0.83378 0.38056 0.0133 0.0
C277 C 0.83434 0.40743 0.02014 0.0
C278 C 0.83391 0.34943 1.00701 0.0
C279 C 0.83331 0.32251 1.00394 0.0
C280 C 0.47301 0.82435 0.01437 0.0
C281 C 0.4467 0.8249 0.02131 0.0
C282 C 0.50428 0.8245 1.0079 0.0
C283 C 0.5306 0.8239 1.00465 0.0
C284 C 0.69904 0.49491 1.0075 0.0
C285 C 0.72599 0.52121 1.00412 0.0
C286 C 0.66795 0.46363 0.01414 0.0
C287 C 0.64113 0.43727 0.02118 0.0
C288 C 0.23225 0.43119 0.57312 0.0
C289 C 0.22969 0.43325 0.67838 0.0
C290 C 0.2346 0.42969 0.44903 0.0
C291 C 0.23752 0.42836 0.34362 0.0
C292 C 0.82066 0.22274 0.57301 0.0
C293 C 0.81599 0.22011 0.67826 0.0
C294 C 0.82459 0.2252 0.44892 0.0
C295 C 0.82889 0.22818 0.34353 0.0
C296 C 0.61768 0.81118 0.5735 0.0
C297 C 0.61563 0.80652 0.67874 0.0
C298 C 0.61914 0.81508 0.44941 0.0
C299 C 0.62046 0.81936 0.34401 0.0
C300 C 0.82591 0.60806 0.5728 0.0
C301 C 0.8285 0.60601 0.67805 0.0
C302 C 0.82352 0.60954 0.44872 0.0
C303 C 0.82059 0.61087 0.34331 0.0
C304 C 0.23378 0.81399 0.44944 0.0
C305 C 0.2295 0.81103 0.34404 0.0
C306 C 0.23767 0.8164 0.57352 0.0
C307 C 0.24232 0.819 0.67877 0.0
C308 C 0.44081 0.22782 0.57366 0.0
C309 C 0.44288 0.23248 0.6789 0.0
C310 C 0.4393 0.22393 0.44957 0.0
C311 C 0.43795 0.21965 0.34417 0.0
loop_
_geom_bond_atom_site_label_1
_geom_bond_atom_site_label_2
_geom_bond_distance
_geom_bond_site_symmetry_2
_ccdc_geom_bond_type
Tb0 C2 2.809 1_556 S
Tb0 O20 2.484 1_556 S
Tb0 O21 2.440 . S
Tb0 O22 2.658 . S
Tb0 O23 2.409 . S
Tb0 O24 2.378 . S
Tb0 O28 2.325 1_556 S
Tb0 O31 2.341 . S
Tb1 C11 2.809 1_554 S
Tb1 O22 2.325 1_554 S
Tb1 O25 2.341 . S
Tb1 O26 2.484 1_554 S
Tb1 O27 2.440 . S
Tb1 O28 2.658 . S
Tb1 O29 2.409 . S
Tb1 O30 2.378 . S
C2 Tb0 2.809 1_554 S
C2 C3 1.514 . S
C2 O20 1.248 . S
C2 O21 1.266 1_554 S
C3 C2 1.514 . S
C3 C4 1.359 . S
C3 C8 1.348 1_554 S
C4 C3 1.359 . S
C4 C5 1.380 . S
C4 H32 0.929 . S
C5 C4 1.380 . S
C5 C6 1.347 . S
C5 H33 0.931 . S
C6 C5 1.347 . S
C6 C7 1.369 1_554 S
C7 C6 1.369 1_556 S
C7 C8 1.408 . S
C7 H34 0.930 . S
C8 C3 1.348 1_556 S
C8 C7 1.408 . S
C8 H35 0.930 . S
C9 O22 1.281 . S
C9 O23 1.254 . S
C10 O24 1.236 . S
C10 O25 1.266 1_556 S
C11 Tb1 2.809 1_556 S
C11 C12 1.514 . S
C11 O26 1.248 . S
C11 O27 1.266 1_556 S
C12 C11 1.514 . S
C12 C13 1.359 . S
C12 C17 1.348 1_556 S
C13 C12 1.359 . S
C13 C14 1.380 . S
C13 H36 0.929 . S
C14 C13 1.380 . S
C14 C15 1.347 . S
C14 H37 0.931 . S
C15 C14 1.347 . S
C15 C16 1.369 1_556 S
C16 C15 1.369 1_554 S
C16 C17 1.408 . S
C16 H38 0.930 . S
C17 C12 1.348 1_554 S
C17 C16 1.408 . S
C17 H39 0.930 . S
C18 O28 1.281 . S
C18 O29 1.254 . S
C19 O30 1.236 . S
C19 O31 1.266 1_554 S
O20 Tb0 2.484 1_554 S
O20 C2 1.248 . S
O21 Tb0 2.440 . S
O21 C2 1.266 1_556 S
O22 Tb0 2.658 . S
O22 Tb1 2.325 1_556 S
O22 C9 1.281 . S
O23 Tb0 2.409 . S
O23 C9 1.254 . S
O24 Tb0 2.378 . S
O24 C10 1.236 . S
O25 Tb1 2.341 . S
O25 C10 1.266 1_554 S
O26 Tb1 2.484 1_556 S
O26 C11 1.248 . S
O27 Tb1 2.440 . S
O27 C11 1.266 1_554 S
O28 Tb0 2.325 1_554 S
O28 Tb1 2.658 . S
O28 C18 1.281 . S
O29 Tb1 2.409 . S
O29 C18 1.254 . S
O30 Tb1 2.378 . S
O30 C19 1.236 . S
O31 Tb0 2.341 . S
O31 C19 1.266 1_556 S
H32 C4 0.929 . S
H33 C5 0.931 . S
H34 C7 0.930 . S
H35 C8 0.930 . S
H36 C13 0.929 . S
H37 C14 0.931 . S
H38 C16 0.930 . S
H39 C17 0.930 . S
Tb40 C42 2.809 1_556 S
Tb40 O60 2.484 1_556 S
Tb40 O61 2.440 . S
Tb40 O62 2.658 . S
Tb40 O63 2.409 . S
Tb40 O64 2.378 . S
Tb40 O68 2.325 1_556 S
Tb40 O71 2.341 . S
Tb41 C51 2.809 1_554 S
Tb41 O62 2.325 1_554 S
Tb41 O65 2.341 . S
Tb41 O66 2.484 1_554 S
Tb41 O67 2.440 . S
Tb41 O68 2.658 . S
Tb41 O69 2.409 . S
Tb41 O70 2.378 . S
C42 Tb40 2.809 1_554 S
C42 C43 1.514 . S
C42 O60 1.248 . S
C42 O61 1.266 1_554 S
C43 C42 1.514 . S
C43 C44 1.359 . S
C43 C48 1.348 1_554 S
C44 C43 1.359 . S
C44 C45 1.380 . S
C44 H72 0.929 . S
C45 C44 1.380 . S
C45 C46 1.347 . S
C45 H73 0.931 . S
C46 C45 1.347 . S
C46 C47 1.369 1_554 S
C47 C46 1.369 1_556 S
C47 C48 1.408 . S
C47 H74 0.930 . S
C48 C43 1.348 1_556 S
C48 C47 1.408 . S
C48 H75 0.930 . S
C49 O62 1.281 . S
C49 O63 1.254 . S
C50 O64 1.236 . S
C50 O65 1.266 1_556 S
C51 Tb41 2.809 1_556 S
C51 C52 1.514 . S
C51 O66 1.248 . S
C51 O67 1.266 1_556 S
C52 C51 1.514 . S
C52 C53 1.359 . S
C52 C57 1.348 1_556 S
C53 C52 1.359 . S
C53 C54 1.380 . S
C53 H76 0.929 . S
C54 C53 1.380 . S
C54 C55 1.347 . S
C54 H77 0.931 . S
C55 C54 1.347 . S
C55 C56 1.369 1_556 S
C56 C55 1.369 1_554 S
C56 C57 1.408 . S
C56 H78 0.930 . S
C57 C52 1.348 1_554 S
C57 C56 1.408 . S
C57 H79 0.930 . S
C58 O68 1.281 . S
C58 O69 1.254 . S
C59 O70 1.236 . S
C59 O71 1.266 1_554 S
O60 Tb40 2.484 1_554 S
O60 C42 1.248 . S
O61 Tb40 2.440 . S
O61 C42 1.266 1_556 S
O62 Tb40 2.658 . S
O62 Tb41 2.325 1_556 S
O62 C49 1.281 . S
O63 Tb40 2.409 . S
O63 C49 1.254 . S
O64 Tb40 2.378 . S
O64 C50 1.236 . S
O65 Tb41 2.341 . S
O65 C50 1.266 1_554 S
O66 Tb41 2.484 1_556 S
O66 C51 1.248 . S
O67 Tb41 2.440 . S
O67 C51 1.266 1_554 S
O68 Tb40 2.325 1_554 S
O68 Tb41 2.658 . S
O68 C58 1.281 . S
O69 Tb41 2.409 . S
O69 C58 1.254 . S
O70 Tb41 2.378 . S
O70 C59 1.236 . S
O71 Tb40 2.341 . S
O71 C59 1.266 1_556 S
H72 C44 0.929 . S
H73 C45 0.931 . S
H74 C47 0.930 . S
H75 C48 0.930 . S
H76 C53 0.929 . S
H77 C54 0.931 . S
H78 C56 0.930 . S
H79 C57 0.930 . S
Tb80 C82 2.809 1_556 S
Tb80 O100 2.484 1_556 S
Tb80 O101 2.440 . S
Tb80 O102 2.658 . S
Tb80 O103 2.409 . S
Tb80 O104 2.378 . S
Tb80 O108 2.325 1_556 S
Tb80 O111 2.341 . S
Tb81 C91 2.809 1_554 S
Tb81 O102 2.325 1_554 S
Tb81 O105 2.341 . S
Tb81 O106 2.484 1_554 S
Tb81 O107 2.440 . S
Tb81 O108 2.658 . S
Tb81 O109 2.409 . S
Tb81 O110 2.378 . S
C82 Tb80 2.809 1_554 S
C82 C83 1.514 . S
C82 O100 1.248 . S
C82 O101 1.266 1_554 S
C83 C82 1.514 . S
C83 C84 1.359 . S
C83 C88 1.348 1_554 S
C84 C83 1.359 . S
C84 C85 1.380 . S
C84 H112 0.929 . S
C85 C84 1.380 . S
C85 C86 1.347 . S
C85 H113 0.931 . S
C86 C85 1.347 . S
C86 C87 1.369 1_554 S
C87 C86 1.369 1_556 S
C87 C88 1.408 . S
C87 H114 0.930 . S
C88 C83 1.348 1_556 S
C88 C87 1.408 . S
C88 H115 0.930 . S
C89 O102 1.281 . S
C89 O103 1.254 . S
C90 O104 1.236 . S
C90 O105 1.266 1_556 S
C91 Tb81 2.809 1_556 S
C91 C92 1.514 . S
C91 O106 1.248 . S
C91 O107 1.266 1_556 S
C92 C91 1.514 . S
C92 C93 1.359 . S
C92 C97 1.348 1_556 S
C93 C92 1.359 . S
C93 C94 1.380 . S
C93 H116 0.929 . S
C94 C93 1.380 . S
C94 C95 1.347 . S
C94 H117 0.931 . S
C95 C94 1.347 . S
C95 C96 1.369 1_556 S
C96 C95 1.369 1_554 S
C96 C97 1.408 . S
C96 H118 0.930 . S
C97 C92 1.348 1_554 S
C97 C96 1.408 . S
C97 H119 0.930 . S
C98 O108 1.281 . S
C98 O109 1.254 . S
C99 O110 1.236 . S
C99 O111 1.266 1_554 S
O100 Tb80 2.484 1_554 S
O100 C82 1.248 . S
O101 Tb80 2.440 . S
O101 C82 1.266 1_556 S
O102 Tb80 2.658 . S
O102 Tb81 2.325 1_556 S
O102 C89 1.281 . S
O103 Tb80 2.409 . S
O103 C89 1.254 . S
O104 Tb80 2.378 . S
O104 C90 1.236 . S
O105 Tb81 2.341 . S
O105 C90 1.266 1_554 S
O106 Tb81 2.484 1_556 S
O106 C91 1.248 . S
O107 Tb81 2.440 . S
O107 C91 1.266 1_554 S
O108 Tb80 2.325 1_554 S
O108 Tb81 2.658 . S
O108 C98 1.281 . S
O109 Tb81 2.409 . S
O109 C98 1.254 . S
O110 Tb81 2.378 . S
O110 C99 1.236 . S
O111 Tb80 2.341 . S
O111 C99 1.266 1_556 S
H112 C84 0.929 . S
H113 C85 0.931 . S
H114 C87 0.930 . S
H115 C88 0.930 . S
H116 C93 0.929 . S
H117 C94 0.931 . S
H118 C96 0.930 . S
H119 C97 0.930 . S
Tb120 C122 2.809 1_556 S
Tb120 O140 2.484 1_556 S
Tb120 O141 2.440 . S
Tb120 O142 2.658 . S
Tb120 O143 2.409 . S
Tb120 O144 2.378 . S
Tb120 O148 2.325 1_556 S
Tb120 O151 2.341 . S
Tb121 C131 2.809 1_554 S
Tb121 O142 2.325 1_554 S
Tb121 O145 2.341 . S
Tb121 O146 2.484 1_554 S
Tb121 O147 2.440 . S
Tb121 O148 2.658 . S
Tb121 O149 2.409 . S
Tb121 O150 2.378 . S
C122 Tb120 2.809 1_554 S
C122 C123 1.514 . S
C122 O140 1.248 . S
C122 O141 1.266 1_554 S
C123 C122 1.514 . S
C123 C124 1.359 . S
C123 C128 1.348 1_554 S
C124 C123 1.359 . S
C124 C125 1.380 . S
C124 H152 0.929 . S
C125 C124 1.380 . S
C125 C126 1.347 . S
C125 H153 0.931 . S
C126 C125 1.347 . S
C126 C127 1.369 1_554 S
C127 C126 1.369 1_556 S
C127 C128 1.408 . S
C127 H154 0.930 . S
C128 C123 1.348 1_556 S
C128 C127 1.408 . S
C128 H155 0.930 . S
C129 O142 1.281 . S
C129 O143 1.254 . S
C130 O144 1.236 . S
C130 O145 1.266 1_556 S
C131 Tb121 2.809 1_556 S
C131 C132 1.514 . S
C131 O146 1.248 . S
C131 O147 1.266 1_556 S
C132 C131 1.514 . S
C132 C133 1.359 . S
C132 C137 1.348 1_556 S
C133 C132 1.359 . S
C133 C134 1.380 . S
C133 H156 0.929 . S
C134 C133 1.380 . S
C134 C135 1.347 . S
C134 H157 0.931 . S
C135 C134 1.347 . S
C135 C136 1.369 1_556 S
C136 C135 1.369 1_554 S
C136 C137 1.408 . S
C136 H158 0.930 . S
C137 C132 1.348 1_554 S
C137 C136 1.408 . S
C137 H159 0.930 . S
C138 O148 1.281 . S
C138 O149 1.254 . S
C139 O150 1.236 . S
C139 O151 1.266 1_554 S
O140 Tb120 2.484 1_554 S
O140 C122 1.248 . S
O141 Tb120 2.440 . S
O141 C122 1.266 1_556 S
O142 Tb120 2.658 . S
O142 Tb121 2.325 1_556 S
O142 C129 1.281 . S
O143 Tb120 2.409 . S
O143 C129 1.254 . S
O144 Tb120 2.378 . S
O144 C130 1.236 . S
O145 Tb121 2.341 . S
O145 C130 1.266 1_554 S
O146 Tb121 2.484 1_556 S
O146 C131 1.248 . S
O147 Tb121 2.440 . S
O147 C131 1.266 1_554 S
O148 Tb120 2.325 1_554 S
O148 Tb121 2.658 . S
O148 C138 1.281 . S
O149 Tb121 2.409 . S
O149 C138 1.254 . S
O150 Tb121 2.378 . S
O150 C139 1.236 . S
O151 Tb120 2.341 . S
O151 C139 1.266 1_556 S
H152 C124 0.929 . S
H153 C125 0.931 . S
H154 C127 0.930 . S
H155 C128 0.930 . S
H156 C133 0.929 . S
H157 C134 0.931 . S
H158 C136 0.930 . S
H159 C137 0.930 . S
Tb160 C162 2.809 1_556 S
Tb160 O180 2.484 1_556 S
Tb160 O181 2.440 . S
Tb160 O182 2.658 . S
Tb160 O183 2.409 . S
Tb160 O184 2.378 . S
Tb160 O188 2.325 1_556 S
Tb160 O191 2.341 . S
Tb161 C171 2.809 1_554 S
Tb161 O182 2.325 1_554 S
Tb161 O185 2.341 . S
Tb161 O186 2.484 1_554 S
Tb161 O187 2.440 . S
Tb161 O188 2.658 . S
Tb161 O189 2.409 . S
Tb161 O190 2.378 . S
C162 Tb160 2.809 1_554 S
C162 C163 1.514 . S
C162 O180 1.248 . S
C162 O181 1.266 1_554 S
C163 C162 1.514 . S
C163 C164 1.359 . S
C163 C168 1.348 1_554 S
C164 C163 1.359 . S
C164 C165 1.380 . S
C164 H192 0.929 . S
C165 C164 1.380 . S
C165 C166 1.347 . S
C165 H193 0.931 . S
C166 C165 1.347 . S
C166 C167 1.369 1_554 S
C167 C166 1.369 1_556 S
C167 C168 1.408 . S
C167 H194 0.930 . S
C168 C163 1.348 1_556 S
C168 C167 1.408 . S
C168 H195 0.930 . S
C169 O182 1.281 . S
C169 O183 1.254 . S
C170 O184 1.236 . S
C170 O185 1.266 1_556 S
C171 Tb161 2.809 1_556 S
C171 C172 1.514 . S
C171 O186 1.248 . S
C171 O187 1.266 1_556 S
C172 C171 1.514 . S
C172 C173 1.359 . S
C172 C177 1.348 1_556 S
C173 C172 1.359 . S
C173 C174 1.380 . S
C173 H196 0.929 . S
C174 C173 1.380 . S
C174 C175 1.347 . S
C174 H197 0.931 . S
C175 C174 1.347 . S
C175 C176 1.369 1_556 S
C176 C175 1.369 1_554 S
C176 C177 1.408 . S
C176 H198 0.930 . S
C177 C172 1.348 1_554 S
C177 C176 1.408 . S
C177 H199 0.930 . S
C178 O188 1.281 . S
C178 O189 1.254 . S
C179 O190 1.236 . S
C179 O191 1.266 1_554 S
O180 Tb160 2.484 1_554 S
O180 C162 1.248 . S
O181 Tb160 2.440 . S
O181 C162 1.266 1_556 S
O182 Tb160 2.658 . S
O182 Tb161 2.325 1_556 S
O182 C169 1.281 . S
O183 Tb160 2.409 . S
O183 C169 1.254 . S
O184 Tb160 2.378 . S
O184 C170 1.236 . S
O185 Tb161 2.341 . S
O185 C170 1.266 1_554 S
O186 Tb161 2.484 1_556 S
O186 C171 1.248 . S
O187 Tb161 2.440 . S
O187 C171 1.266 1_554 S
O188 Tb160 2.325 1_554 S
O188 Tb161 2.658 . S
O188 C178 1.281 . S
O189 Tb161 2.409 . S
O189 C178 1.254 . S
O190 Tb161 2.378 . S
O190 C179 1.236 . S
O191 Tb160 2.341 . S
O191 C179 1.266 1_556 S
H192 C164 0.929 . S
H193 C165 0.931 . S
H194 C167 0.930 . S
H195 C168 0.930 . S
H196 C173 0.929 . S
H197 C174 0.931 . S
H198 C176 0.930 . S
H199 C177 0.930 . S
Tb200 C202 2.809 1_556 S
Tb200 O220 2.484 1_556 S
Tb200 O221 2.440 . S
Tb200 O222 2.658 . S
Tb200 O223 2.409 . S
Tb200 O224 2.378 . S
Tb200 O228 2.325 1_556 S
Tb200 O231 2.341 . S
Tb201 C211 2.809 1_554 S
Tb201 O222 2.325 1_554 S
Tb201 O225 2.341 . S
Tb201 O226 2.484 1_554 S
Tb201 O227 2.440 . S
Tb201 O228 2.658 . S
Tb201 O229 2.409 . S
Tb201 O230 2.378 . S
C202 Tb200 2.809 1_554 S
C202 C203 1.514 . S
C202 O220 1.248 . S
C202 O221 1.266 1_554 S
C203 C202 1.514 . S
C203 C204 1.359 . S
C203 C208 1.348 1_554 S
C204 C203 1.359 . S
C204 C205 1.380 . S
C204 H232 0.929 . S
C205 C204 1.380 . S
C205 C206 1.347 . S
C205 H233 0.931 . S
C206 C205 1.347 . S
C206 C207 1.369 1_554 S
C207 C206 1.369 1_556 S
C207 C208 1.408 . S
C207 H234 0.930 . S
C208 C203 1.348 1_556 S
C208 C207 1.408 . S
C208 H235 0.930 . S
C209 O222 1.281 . S
C209 O223 1.254 . S
C210 O224 1.236 . S
C210 O225 1.266 1_556 S
C211 Tb201 2.809 1_556 S
C211 C212 1.514 . S
C211 O226 1.248 . S
C211 O227 1.266 1_556 S
C212 C211 1.514 . S
C212 C213 1.359 . S
C212 C217 1.348 1_556 S
C213 C212 1.359 . S
C213 C214 1.380 . S
C213 H236 0.929 . S
C214 C213 1.380 . S
C214 C215 1.347 . S
C214 H237 0.931 . S
C215 C214 1.347 . S
C215 C216 1.369 1_556 S
C216 C215 1.369 1_554 S
C216 C217 1.408 . S
C216 H238 0.930 . S
C217 C212 1.348 1_554 S
C217 C216 1.408 . S
C217 H239 0.930 . S
C218 O228 1.281 . S
C218 O229 1.254 . S
C219 O230 1.236 . S
C219 O231 1.266 1_554 S
O220 Tb200 2.484 1_554 S
O220 C202 1.248 . S
O221 Tb200 2.440 . S
O221 C202 1.266 1_556 S
O222 Tb200 2.658 . S
O222 Tb201 2.325 1_556 S
O222 C209 1.281 . S
O223 Tb200 2.409 . S
O223 C209 1.254 . S
O224 Tb200 2.378 . S
O224 C210 1.236 . S
O225 Tb201 2.341 . S
O225 C210 1.266 1_554 S
O226 Tb201 2.484 1_556 S
O226 C211 1.248 . S
O227 Tb201 2.440 . S
O227 C211 1.266 1_554 S
O228 Tb200 2.325 1_554 S
O228 Tb201 2.658 . S
O228 C218 1.281 . S
O229 Tb201 2.409 . S
O229 C218 1.254 . S
O230 Tb201 2.378 . S
O230 C219 1.236 . S
O231 Tb200 2.341 . S
O231 C219 1.266 1_556 S
H232 C204 0.929 . S
H233 C205 0.931 . S
H234 C207 0.930 . S
H235 C208 0.930 . S
H236 C213 0.929 . S
H237 C214 0.931 . S
H238 C216 0.930 . S
H239 C217 0.930 . S
C240 C241 1.170 . S
C240 C242 1.380 . S
C241 C240 1.170 . S
C242 C240 1.380 . S
C242 C243 1.170 . S
C243 C242 1.170 . S
C244 C245 1.170 . S
C244 C246 1.380 . S
C245 C244 1.170 . S
C246 C244 1.380 . S
C246 C247 1.170 . S
C247 C246 1.170 . S
C248 C249 1.170 . S
C248 C250 1.380 . S
C249 C248 1.170 . S
C250 C248 1.380 . S
C250 C251 1.170 . S
C251 C250 1.170 . S
C252 C253 1.170 . S
C252 C254 1.380 . S
C253 C252 1.170 . S
C254 C252 1.380 . S
C254 C255 1.170 . S
C255 C254 1.170 . S
C256 C257 1.170 . S
C256 C258 1.380 . S
C257 C256 1.170 . S
C258 C256 1.380 . S
C258 C259 1.170 . S
C259 C258 1.170 . S
C260 C261 1.170 . S
C260 C262 1.380 . S
C261 C260 1.170 . S
C262 C260 1.380 . S
C262 C263 1.170 . S
C263 C262 1.170 . S
C264 C265 1.170 . S
C264 C266 1.380 . S
C265 C264 1.170 . S
C266 C264 1.380 . S
C266 C267 1.170 . S
C267 C266 1.170 . S
C268 C269 1.170 . S
C268 C270 1.380 . S
C269 C268 1.170 . S
C270 C268 1.380 . S
C270 C271 1.170 . S
C271 C270 1.170 . S
C272 C273 1.170 . S
C272 C274 1.380 . S
C273 C272 1.170 . S
C274 C272 1.380 . S
C274 C275 1.170 . S
C275 C274 1.170 . S
C276 C277 1.170 . S
C276 C278 1.380 . S
C277 C276 1.170 . S
C278 C276 1.380 . S
C278 C279 1.170 . S
C279 C278 1.170 . S
C280 C281 1.170 . S
C280 C282 1.380 . S
C281 C280 1.170 . S
C282 C280 1.380 . S
C282 C283 1.170 . S
C283 C282 1.170 . S
C284 C285 1.170 . S
C284 C286 1.380 . S
C285 C284 1.170 . S
C286 C284 1.380 . S
C286 C287 1.170 . S
C287 C286 1.170 . S
C288 C289 1.170 . S
C288 C290 1.380 . S
C289 C288 1.170 . S
C290 C288 1.380 . S
C290 C291 1.170 . S
C291 C290 1.170 . S
C292 C293 1.170 . S
C292 C294 1.380 . S
C293 C292 1.170 . S
C294 C292 1.380 . S
C294 C295 1.170 . S
C295 C294 1.170 . S
C296 C297 1.170 . S
C296 C298 1.380 . S
C297 C296 1.170 . S
C298 C296 1.380 . S
C298 C299 1.170 . S
C299 C298 1.170 . S
C300 C301 1.170 . S
C300 C302 1.380 . S
C301 C300 1.170 . S
C302 C300 1.380 . S
C302 C303 1.170 . S
C303 C302 1.170 . S
C304 C305 1.170 . S
C304 C306 1.380 . S
C305 C304 1.170 . S
C306 C304 1.380 . S
C306 C307 1.170 . S
C307 C306 1.170 . S
C308 C309 1.170 . S
C308 C310 1.380 . S
C309 C308 1.170 . S
C310 C308 1.380 . S
C310 C311 1.170 . S
C311 C310 1.170 . S
C241 C219 2.195 1_556 S
C243 C15 1.877 . S
C245 C19 2.200 1_556 S
C247 C55 1.860 1_455 S
C249 C59 2.198 1_556 S
C251 C95 1.905 1_545 S
C253 C135 1.893 . S
C255 C99 2.196 1_556 S
C257 C175 1.861 1_655 S
C259 C139 2.197 1_556 S
C261 C179 2.195 1_556 S
C263 C215 1.887 1_565 S
C265 C170 1.887 1_554 S
C267 C6 1.879 . S
C269 C210 1.891 1_554 S
C271 C46 1.886 . S
C273 C86 1.886 . S
C275 C10 1.891 1_554 S
C277 C126 1.879 . S
C279 C50 1.889 1_554 S
C281 C166 1.884 . S
C283 C90 1.892 1_554 S
C285 C130 1.885 1_554 S
C287 C206 1.876 . S
C289 C9 1.416 . S
C291 C18 1.458 . S
C293 C49 1.440 . S
C295 C58 1.444 . S
C297 C89 1.453 . S
C299 C98 1.412 . S
C301 C129 1.454 . S
C303 C138 1.411 . S
C305 C178 1.455 . S
C307 C169 1.412 . S
C309 C209 1.426 . S
C311 C218 1.430 . S
