# Generated by pormake.
# Topology snz, (6)-cn, num edge types: 1
# Building blocks:
#     Node 0, Type 0, BuildingBlock: PAMTUU_clean_sbu_0, # of connection points: 6
#     Node 1, Type 0, BuildingBlock: PAMTUU_clean_sbu_0, # of connection points: 6
#     Node 2, Type 0, BuildingBlock: PAMTUU_clean_sbu_0, # of connection points: 6
#     Node 3, Type 0, BuildingBlock: PAMTUU_clean_sbu_0, # of connection points: 6
#     Node 4, Type 0, BuildingBlock: PAMTUU_clean_sbu_0, # of connection points: 6
#     Node 5, Type 0, BuildingBlock: PAMTUU_clean_sbu_0, # of connection points: 6
#     Node 6, Type 0, BuildingBlock: PAMTUU_clean_sbu_0, # of connection points: 6
#     Node 7, Type 0, BuildingBlock: PAMTUU_clean_sbu_0, # of connection points: 6
#     Node 8, Type 0, BuildingBlock: PAMTUU_clean_sbu_0, # of connection points: 6
#     Edge 9, Type (0, 0), BuildingBlock: XIVTED_clean_linker_0, # of connection points: 2
#     Edge 10, Type (0, 0), BuildingBlock: XIVTED_clean_linker_0, # of connection points: 2
#     Edge 11, Type (0, 0), BuildingBlock: XIVTED_clean_linker_0, # of connection points: 2
#     Edge 12, Type (0, 0), BuildingBlock: XIVTED_clean_linker_0, # of connection points: 2
#     Edge 13, Type (0, 0), BuildingBlock: XIVTED_clean_linker_0, # of connection points: 2
#     Edge 14, Type (0, 0), BuildingBlock: XIVTED_clean_linker_0, # of connection points: 2
#     Edge 15, Type (0, 0), BuildingBlock: XIVTED_clean_linker_0, # of connection points: 2
#     Edge 16, Type (0, 0), BuildingBlock: XIVTED_clean_linker_0, # of connection points: 2
#     Edge 17, Type (0, 0), BuildingBlock: XIVTED_clean_linker_0, # of connection points: 2
#     Edge 18, Type (0, 0), BuildingBlock: XIVTED_clean_linker_0, # of connection points: 2
#     Edge 19, Type (0, 0), BuildingBlock: XIVTED_clean_linker_0, # of connection points: 2
#     Edge 20, Type (0, 0), BuildingBlock: XIVTED_clean_linker_0, # of connection points: 2
#     Edge 21, Type (0, 0), BuildingBlock: XIVTED_clean_linker_0, # of connection points: 2
#     Edge 22, Type (0, 0), BuildingBlock: XIVTED_clean_linker_0, # of connection points: 2
#     Edge 23, Type (0, 0), BuildingBlock: XIVTED_clean_linker_0, # of connection points: 2
#     Edge 24, Type (0, 0), BuildingBlock: XIVTED_clean_linker_0, # of connection points: 2
#     Edge 25, Type (0, 0), BuildingBlock: XIVTED_clean_linker_0, # of connection points: 2
#     Edge 26, Type (0, 0), BuildingBlock: XIVTED_clean_linker_0, # of connection points: 2
#     Edge 27, Type (0, 0), BuildingBlock: XIVTED_clean_linker_0, # of connection points: 2
#     Edge 28, Type (0, 0), BuildingBlock: XIVTED_clean_linker_0, # of connection points: 2
#     Edge 29, Type (0, 0), BuildingBlock: XIVTED_clean_linker_0, # of connection points: 2
#     Edge 30, Type (0, 0), BuildingBlock: XIVTED_clean_linker_0, # of connection points: 2
#     Edge 31, Type (0, 0), BuildingBlock: XIVTED_clean_linker_0, # of connection points: 2
#     Edge 32, Type (0, 0), BuildingBlock: XIVTED_clean_linker_0, # of connection points: 2
#     Edge 33, Type (0, 0), BuildingBlock: XIVTED_clean_linker_0, # of connection points: 2
#     Edge 34, Type (0, 0), BuildingBlock: XIVTED_clean_linker_0, # of connection points: 2
#     Edge 35, Type (0, 0), BuildingBlock: XIVTED_clean_linker_0, # of connection points: 2
# Relax obj value: 0.095
# Max RMSD: 0.253
# Mean RMSD: 0.152
data_MOF--net-snz--node1-PAMTUU_clean_sbu_0--edge1-XIVTED_clean_linker_0
_symmetry_space_group_name_H-M    P1
_symmetry_Int_Tables_number       1
_symmetry_cell_setting            triclinic
loop_
_symmetry_equiv_pos_as_xyz
'x, y, z'
_cell_length_a     82.196559
_cell_length_b     57.482618
_cell_length_c     14.560861
_cell_angle_alpha  100.61359
_cell_angle_beta   101.92376
_cell_angle_gamma 122.12238
loop_
_atom_site_label
_atom_site_type_symbol
_atom_site_fract_x
_atom_site_fract_y
_atom_site_fract_z
_atom_type_partial_charge
Tb0 Tb 0.05145 0.51752 0.93536 0.0
Tb1 Tb 0.08942 0.51066 0.01028 0.0
C2 C 0.07324 0.53217 0.16178 0.0
C3 C 0.0158 0.53949 0.85936 0.0
C4 C 0.99844 0.57029 0.83872 0.0
C5 C 0.98966 0.54657 0.87281 0.0
C6 C 0.99825 0.53138 0.88294 0.0
C7 C 0.02506 0.56377 0.82829 0.0
C8 C 0.01649 0.57909 0.81846 0.0
C9 C 0.0224 0.52009 0.85589 0.0
O10 O 0.07988 0.56137 0.97601 0.0
O11 O 0.10538 0.55791 0.06009 0.0
O12 O 0.09014 0.52375 0.88036 0.0
O13 O 0.05567 0.49647 0.81375 0.0
O14 O 0.10994 0.50958 0.12052 0.0
O15 O 0.10972 0.50339 0.96948 0.0
O16 O 0.06087 0.46617 0.93454 0.0
O17 O 0.0372 0.47491 0.95181 0.0
O18 O 0.06347 0.5378 0.09663 0.0
O19 O 0.08039 0.51709 0.13732 0.0
C20 C 0.0992 0.57321 0.03074 0.0
O21 O 0.03735 0.52618 0.82325 0.0
O22 O 0.02357 0.51099 0.93111 0.0
C23 C 0.07337 0.51171 0.80336 0.0
C24 C 0.12125 0.48111 0.0595 0.0
C25 C 0.13534 0.44598 0.0731 0.0
C26 C 0.13071 0.45092 0.9835 0.0
C27 C 0.12381 0.4683 0.97687 0.0
C28 C 0.12518 0.47536 0.14814 0.0
C29 C 0.1321 0.4579 0.15477 0.0
C30 C 0.11751 0.50357 0.05734 0.0
C31 C 0.04227 0.45687 0.93312 0.0
H32 H 0.97559 0.53882 0.88755 0.0
H33 H 0.99065 0.51248 0.90556 0.0
H34 H 0.03855 0.57046 0.80891 0.0
H35 H 0.02384 0.59753 0.79346 0.0
H36 H 0.13332 0.44246 0.91966 0.0
H37 H 0.1213 0.47268 0.90803 0.0
H38 H 0.1236 0.48517 0.21356 0.0
H39 H 0.13529 0.4542 0.22447 0.0
Tb40 Tb 0.55723 0.51883 0.0448 0.0
Tb41 Tb 0.59468 0.511 0.04475 0.0
C42 C 0.5673 0.50658 0.85672 0.0
C43 C 0.50776 0.50622 0.05176 0.0
C44 C 0.46766 0.47754 0.05661 0.0
C45 C 0.47433 0.4973 0.005 0.0
C46 C 0.49421 0.51157 0.00304 0.0
C47 C 0.50083 0.48529 0.09894 0.0
C48 C 0.48093 0.47108 0.10141 0.0
C49 C 0.52945 0.52469 0.06011 0.0
O50 O 0.54289 0.47287 0.02191 0.0
O51 O 0.56579 0.46649 0.97317 0.0
O52 O 0.58445 0.49647 0.1609 0.0
O53 O 0.57578 0.52773 0.19382 0.0
O54 O 0.60627 0.49412 0.96063 0.0
O55 O 0.6233 0.51996 0.11955 0.0
O56 O 0.60942 0.55768 0.12162 0.0
O57 O 0.5831 0.56098 0.05365 0.0
O58 O 0.55216 0.4993 0.88947 0.0
O59 O 0.58638 0.52231 0.91943 0.0
C60 C 0.54767 0.45596 0.98172 0.0
O61 O 0.54293 0.52742 0.13495 0.0
O62 O 0.53329 0.52168 0.97793 0.0
C63 C 0.57858 0.5088 0.21632 0.0
C64 C 0.64275 0.52158 0.01777 0.0
C65 C 0.67886 0.54365 0.9725 0.0
C66 C 0.67717 0.53402 0.05441 0.0
C67 C 0.65928 0.52303 0.07647 0.0
C68 C 0.64461 0.53232 0.93835 0.0
C69 C 0.66255 0.54327 0.9159 0.0
C70 C 0.62334 0.50665 0.0367 0.0
C71 C 0.60273 0.57324 0.10121 0.0
H72 H 0.46433 0.50227 0.96785 0.0
H73 H 0.49922 0.52753 0.96602 0.0
H74 H 0.511 0.48066 0.13689 0.0
H75 H 0.47628 0.45606 0.14209 0.0
H76 H 0.68958 0.53456 0.10086 0.0
H77 H 0.65816 0.51492 0.13813 0.0
H78 H 0.63203 0.53148 0.89198 0.0
H79 H 0.6633 0.55038 0.85202 0.0
Tb80 Tb 0.61314 0.0798 0.18417 0.0
Tb81 Tb 0.56517 0.02182 0.13189 0.0
C82 C 0.59385 0.07206 0.34984 0.0
C83 C 0.66594 0.12169 0.17015 0.0
C84 C 0.69847 0.129 0.10928 0.0
C85 C 0.70214 0.15105 0.19033 0.0
C86 C 0.68605 0.14746 0.21991 0.0
C87 C 0.66223 0.09901 0.09193 0.0
C88 C 0.67832 0.10267 0.06144 0.0
C89 C 0.6491 0.1197 0.19849 0.0
O90 O 0.61517 0.04802 0.23639 0.0
O91 O 0.58387 1.00576 0.12828 0.0
O92 O 0.56825 0.03148 -0.00366 0.0
O93 O 0.60096 0.04603 0.0423 0.0
O94 O 0.5443 0.98706 0.17031 0.0
O95 O 0.53439 0.99228 0.0312 0.0
O96 O 0.56404 0.05896 0.16528 0.0
O97 O 0.59245 0.0918 0.13293 0.0
O98 O 0.60757 0.09087 0.31915 0.0
O99 O 0.5789 0.04441 0.29336 0.0
C100 C 0.60286 0.01937 0.19075 0.0
O101 O 0.6323 0.10962 0.12493 0.0
O102 O 0.64505 0.10903 0.26907 0.0
C103 C 0.58447 0.03869 0.97343 0.0
C104 C 0.51016 0.97294 0.10913 0.0
C105 C 0.47393 0.9614 0.1366 0.0
C106 C 0.47283 0.94311 0.05294 0.0
C107 C 0.49075 0.94889 0.03939 0.0
C108 C 0.51149 0.99151 0.19275 0.0
C109 C 0.49348 0.98571 0.20656 0.0
C110 C 0.52864 0.97811 0.09185 0.0
C111 C 0.57466 0.08266 0.14369 0.0
H112 H 0.71748 0.17131 0.23089 0.0
H113 H 0.68929 0.16511 0.28103 0.0
H114 H 0.64686 0.07872 0.0534 0.0
H115 H 0.67482 0.08523 -0.00142 0.0
H116 H 0.45809 0.92395 -0.00152 0.0
H117 H 0.48945 0.93439 0.97438 0.0
H118 H 0.52638 1.01041 0.24712 0.0
H119 H 0.49486 1.00038 0.27124 0.0
Tb120 Tb 0.71651 0.85287 0.29425 0.0
Tb121 Tb 0.75428 0.84459 0.35657 0.0
C122 C 0.73997 0.86443 0.51266 0.0
C123 C 0.68346 0.8803 0.24889 0.0
C124 C 0.66887 0.91513 0.25142 0.0
C125 C 0.67201 0.90634 0.33334 0.0
C126 C 0.67916 0.88898 0.33194 0.0
C127 C 0.68113 0.89015 0.16907 0.0
C128 C 0.67399 0.90743 0.17045 0.0
C129 C 0.68788 0.85832 0.23824 0.0
O130 O 0.74482 0.89598 0.32571 0.0
O131 O 0.76998 0.89178 0.40787 0.0
O132 O 0.75407 0.85751 0.228 0.0
O133 O 0.71948 0.8342 0.16128 0.0
O134 O 0.77885 0.8508 0.46535 0.0
O135 O 0.77092 0.83079 0.30613 0.0
O136 O 0.72587 0.80038 0.28176 0.0
O137 O 0.70189 0.80865 0.29921 0.0
O138 O 0.73216 0.87386 0.45539 0.0
O139 O 0.74268 0.84468 0.47597 0.0
C140 C 0.76412 0.90744 0.37898 0.0
O141 O 0.70006 0.86067 0.18979 0.0
O142 O 0.69122 0.85065 0.31513 0.0
C143 C 0.73745 0.8466 0.15198 0.0
C144 C 0.79067 0.82198 0.41771 0.0
C145 C 0.81028 0.79579 0.46876 0.0
C146 C 0.81332 0.80849 0.39466 0.0
C147 C 0.8036 0.82141 0.36945 0.0
C148 C 0.78694 0.80843 0.48954 0.0
C149 C 0.79662 0.79522 0.51449 0.0
C150 C 0.7833 0.83951 0.39719 0.0
C151 C 0.70724 0.79089 0.27997 0.0
H152 H 0.66807 0.91175 0.39654 0.0
H153 H 0.6806 0.88155 0.39427 0.0
H154 H 0.68416 0.88367 0.10367 0.0
H155 H 0.67207 0.91426 0.10694 0.0
H156 H 0.82345 0.80877 0.35692 0.0
H157 H 0.8067 0.83182 0.31402 0.0
H158 H 0.77704 0.80872 0.52796 0.0
H159 H 0.79403 0.78554 0.57192 0.0
Tb160 Tb 0.2105 0.8543 0.28655 0.0
Tb161 Tb 0.2516 0.84515 0.27394 0.0
C162 C 0.21757 0.84696 0.1039 0.0
C163 C 0.16601 0.84393 0.36095 0.0
C164 C 0.12683 0.82048 0.37546 0.0
C165 C 0.13353 0.83817 0.31698 0.0
C166 C 0.15294 0.84988 0.31027 0.0
C167 C 0.15904 0.82544 0.4167 0.0
C168 C 0.13968 0.81381 0.4237 0.0
C169 C 0.18762 0.85979 0.36595 0.0
O170 O 0.1958 0.8071 0.22176 0.0
O171 O 0.22273 0.80147 0.23422 0.0
O172 O 0.25743 0.84839 0.43204 0.0
O173 O 0.23331 0.85282 0.38044 0.0
O174 O 0.26363 0.8493 0.16008 0.0
O175 O 0.2711 0.83215 0.26924 0.0
O176 O 0.26647 0.89215 0.34275 0.0
O177 O 0.23968 0.89804 0.32908 0.0
O178 O 0.20442 0.85049 0.1279 0.0
O179 O 0.22861 0.84634 0.18042 0.0
C180 C 0.203 0.79104 0.21453 0.0
O181 O 0.19775 0.84967 0.39787 0.0
O182 O 0.19185 0.86877 0.29208 0.0
C183 C 0.24431 0.85194 0.45634 0.0
C184 C 0.29648 0.85878 0.20035 0.0
C185 C 0.3368 0.88839 0.19678 0.0
C186 C 0.33166 0.87381 0.26524 0.0
C187 C 0.31171 0.85914 0.26692 0.0
C188 C 0.30171 0.87385 0.13331 0.0
C189 C 0.32166 0.88864 0.13202 0.0
C190 C 0.27482 0.84087 0.19425 0.0
C191 C 0.25945 0.90836 0.35129 0.0
H192 H 0.12394 0.84343 0.27768 0.0
H193 H 0.15795 0.86433 0.26775 0.0
H194 H 0.16884 0.82076 0.45814 0.0
H195 H 0.1352 0.80067 0.47066 0.0
H196 H 0.34283 0.87279 0.31522 0.0
H197 H 0.30812 0.84744 0.31862 0.0
H198 H 0.29028 0.87378 0.08026 0.0
H199 H 0.32513 0.90002 0.07938 0.0
Tb200 Tb 0.24238 0.34348 0.1854 0.0
Tb201 Tb 0.1894 0.27739 0.13405 0.0
C202 C 0.2297 0.32997 0.34675 0.0
C203 C 0.29268 0.38262 0.14294 0.0
C204 C 0.33138 0.39919 0.13653 0.0
C205 C 0.33009 0.41686 0.21108 0.0
C206 C 0.31095 0.40873 0.21388 0.0
C207 C 0.29397 0.36434 0.07047 0.0
C208 C 0.31314 0.37252 0.06751 0.0
C209 C 0.27253 0.37623 0.13892 0.0
O210 O 0.24437 0.30779 0.20004 0.0
O211 O 0.21027 0.26415 0.15253 0.0
O212 O 0.18515 0.26874 0.97289 0.0
O213 O 0.21505 0.30765 0.06317 0.0
O214 O 0.17716 0.26877 0.24562 0.0
O215 O 0.15906 0.23904 0.09135 0.0
O216 O 0.18751 0.31312 0.11828 0.0
O217 O 0.22167 0.35674 0.17168 0.0
O218 O 0.24708 0.35151 0.34649 0.0
O219 O 0.21696 0.31366 0.2542 0.0
C220 C 0.2308 0.27921 0.18147 0.0
O221 O 0.25614 0.35036 0.07823 0.0
O222 O 0.27066 0.38457 0.22371 0.0
C223 C 0.20222 0.29067 0.9713 0.0
C224 C 0.14098 0.24394 0.19516 0.0
C225 C 0.10602 0.23527 0.23324 0.0
C226 C 0.10368 0.21645 0.14625 0.0
C227 C 0.12095 0.22067 0.12777 0.0
C228 C 0.14335 0.26344 0.28025 0.0
C229 C 0.12611 0.25915 0.29897 0.0
C230 C 0.15908 0.24588 0.18234 0.0
C231 C 0.20119 0.34183 0.14012 0.0
H232 H 0.34389 0.43733 0.26628 0.0
H233 H 0.31044 0.42334 0.27001 0.0
H234 H 0.28018 0.34416 0.01387 0.0
H235 H 0.3136 0.35859 0.0085 0.0
H236 H 0.08848 0.19812 0.09295 0.0
H237 H 0.11861 0.2052 0.06201 0.0
H238 H 0.15853 0.28151 0.3346 0.0
H239 H 0.12861 0.27389 0.3674 0.0
Tb240 Tb 0.42026 0.17598 0.70041 0.0
Tb241 Tb 0.38599 0.1909 0.62925 0.0
C242 C 0.4345 0.23909 0.71076 0.0
C243 C 0.45982 0.15964 0.81768 0.0
C244 C 0.48817 0.14863 0.90282 0.0
C245 C 0.49415 0.17113 0.86242 0.0
C246 C 0.4801 0.17644 0.81983 0.0
C247 C 0.45382 0.13747 0.85915 0.0
C248 C 0.46778 0.13188 0.90057 0.0
C249 C 0.44514 0.16567 0.77424 0.0
O250 O 0.4211 0.20323 0.82736 0.0
O251 O 0.38733 0.18527 0.77273 0.0
O252 O 0.36723 0.1433 0.56675 0.0
O253 O 0.38931 0.13614 0.66301 0.0
O254 O 0.38063 0.21792 0.57021 0.0
O255 O 0.35916 0.1878 0.62718 0.0
O256 O 0.39193 0.17868 0.49762 0.0
O257 O 0.40905 0.15802 0.53881 0.0
O258 O 0.43788 0.2192 0.6888 0.0
O259 O 0.41652 0.23208 0.71229 0.0
C260 C 0.40443 0.19574 0.84551 0.0
O261 O 0.42948 0.15937 0.80105 0.0
O262 O 0.44655 0.17728 0.70454 0.0
C263 C 0.37105 0.12622 0.60002 0.0
C264 C 0.34638 0.20507 0.51319 0.0
C265 C 0.31584 0.21042 0.41033 0.0
C266 C 0.31092 0.18971 0.45852 0.0
C267 C 0.32601 0.18719 0.50973 0.0
C268 C 0.35104 0.22467 0.46075 0.0
C269 C 0.33601 0.22731 0.41005 0.0
C270 C 0.36341 0.20771 0.58599 0.0
C271 C 0.39919 0.16369 0.4743 0.0
H272 H 0.50978 0.18493 0.86452 0.0
H273 H 0.4852 0.19397 0.78968 0.0
H274 H 0.43825 0.12418 0.85844 0.0
H275 H 0.46241 0.11405 0.92926 0.0
H276 H 0.2955 0.17592 0.45901 0.0
H277 H 0.32192 0.17213 0.55032 0.0
H278 H 0.36665 0.23923 0.46342 0.0
H279 H 0.34059 0.2438 0.37531 0.0
Tb280 Tb 0.91978 0.17661 0.64877 0.0
Tb281 Tb 0.88505 0.18802 0.68169 0.0
C282 C 0.87292 0.12449 0.58745 0.0
C283 C 0.95993 0.1743 0.56645 0.0
C284 C 0.98905 0.18783 0.47163 0.0
C285 C 0.98026 0.16249 0.49754 0.0
C286 C 0.96587 0.15583 0.54413 0.0
C287 C 0.96836 0.19946 0.53978 0.0
C288 C 0.98283 0.20619 0.49291 0.0
C289 C 0.94527 0.16684 0.61916 0.0
O290 O 0.9038 0.17544 0.50795 0.0
O291 O 0.89078 0.20099 0.5548 0.0
O292 O 0.91568 0.23018 0.75327 0.0
O293 O 0.93405 0.22234 0.66809 0.0
O294 O 0.85711 0.18355 0.63659 0.0
O295 O 0.87844 0.20718 0.791 0.0
O296 O 0.88975 0.16652 0.77936 0.0
O297 O 0.92363 0.18666 0.80691 0.0
O298 O 0.89226 0.13441 0.62994 0.0
O299 O 0.86755 0.14231 0.58365 0.0
C300 C 0.89621 0.19004 0.49074 0.0
O301 O 0.94981 0.18786 0.69597 0.0
O302 O 0.92574 0.15029 0.56315 0.0
C303 C 0.93171 0.24003 0.72518 0.0
C304 C 0.84329 0.18667 0.7639 0.0
C305 C 0.8123 0.17149 0.84734 0.0
C306 C 0.81681 0.19088 0.79408 0.0
C307 C 0.83209 0.19834 0.75308 0.0
C308 C 0.83868 0.16677 0.81517 0.0
C309 C 0.8232 0.1591 0.85612 0.0
C310 C 0.86064 0.19781 0.72778 0.0
C311 C 0.90795 0.17559 0.83674 0.0
H312 H 0.98485 0.14806 0.48411 0.0
H313 H 0.95955 0.13633 0.5641 0.0
H314 H 0.96386 0.21393 0.55574 0.0
H315 H 0.98907 0.22568 0.47298 0.0
H316 H 0.80854 0.20046 0.78419 0.0
H317 H 0.83546 0.21383 0.71436 0.0
H318 H 0.84728 0.15767 0.82522 0.0
H319 H 0.82019 0.14421 0.89707 0.0
Tb320 Tb 0.88026 0.65147 0.64831 0.0
Tb321 Tb 0.926 0.71207 0.68826 0.0
C322 C 0.92066 0.65472 0.68833 0.0
C323 C 0.83014 0.60522 0.68154 0.0
C324 C 0.79873 0.59629 0.75417 0.0
C325 C 0.79721 0.57231 0.6957 0.0
C326 C 0.81277 0.57677 0.66004 0.0
C327 C 0.83174 0.62939 0.73875 0.0
C328 C 0.81611 0.62495 0.77471 0.0
C329 C 0.84669 0.60895 0.64699 0.0
O330 O 0.8905 0.68684 0.78104 0.0
O331 O 0.92435 0.70676 0.83176 0.0
O332 O 0.90508 0.7246 0.68296 0.0
O333 O 0.87427 0.67919 0.5898 0.0
O334 O 0.95805 0.74019 0.76771 0.0
O335 O 0.94375 0.74977 0.6539 0.0
O336 O 0.91135 0.6882 0.52786 0.0
O337 O 0.88499 0.64084 0.50944 0.0
O338 O 0.90388 0.64566 0.7087 0.0
O339 O 0.92871 0.67637 0.65455 0.0
C340 C 0.90775 0.69809 0.85323 0.0
O341 O 0.84842 0.61832 0.57206 0.0
O342 O 0.86457 0.62199 0.71744 0.0
C343 C 0.88536 0.70799 0.62541 0.0
C344 C 0.97627 0.761 0.66562 0.0
C345 C 1.0058 0.77044 0.57739 0.0
C346 C 1.00802 0.79426 0.6421 0.0
C347 C 0.99339 0.78955 0.6856 0.0
C348 C 0.97379 0.73707 0.60041 0.0
C349 C 0.98845 0.74175 0.55682 0.0
C350 C 0.96108 0.75651 0.71254 0.0
C351 C 0.89716 0.66014 0.47424 0.0
H352 H 0.78389 0.54999 0.67693 0.0
H353 H 0.81131 0.5579 0.61613 0.0
H354 H 0.84513 0.65158 0.75641 0.0
H355 H 0.81783 0.64387 0.82016 0.0
H356 H 0.02131 0.8166 0.66086 0.0
H357 H 0.99551 0.80825 0.73546 0.0
H358 H 0.96053 0.71482 0.58333 0.0
H359 H 0.98611 0.72293 0.50642 0.0
H360 H 0.10807 0.55181 0.77549 0.0
H361 H 0.04474 0.53064 0.23459 0.0
H362 H 0.04151 0.49659 0.64066 0.0
H363 H 0.10669 0.55499 0.32663 0.0
H364 H 0.04618 0.53551 0.40787 0.0
H365 H 0.10983 0.56915 0.63432 0.0
C366 C 0.09383 0.54324 0.71606 0.0
C367 C 0.07461 0.52203 0.7181 0.0
C368 C 0.0596 0.54045 0.39031 0.0
C369 C 0.07657 0.54217 0.55792 0.0
C370 C 0.05881 0.53776 0.29196 0.0
C371 C 0.07539 0.54151 0.2668 0.0
C372 C 0.07718 0.54722 0.46284 0.0
C373 C 0.09338 0.55105 0.34322 0.0
C374 C 0.09486 0.5534 0.63627 0.0
C375 C 0.05665 0.51241 0.64074 0.0
N376 N 0.09372 0.55323 0.43791 0.0
N377 N 0.05807 0.52232 0.56302 0.0
H378 H 0.53369 0.48766 0.69409 0.0
H379 H 0.59199 0.48401 0.32376 0.0
H380 H 0.59124 0.49773 0.77657 0.0
H381 H 0.5505 0.50877 0.28668 0.0
H382 H 0.5825 0.46929 0.46297 0.0
H383 H 0.53049 0.47496 0.51724 0.0
C384 C 0.54547 0.48686 0.67483 0.0
C385 C 0.56322 0.49506 0.7497 0.0
C386 C 0.57529 0.47757 0.42312 0.0
C387 C 0.55951 0.48019 0.55017 0.0
C388 C 0.58083 0.48619 0.34468 0.0
C389 C 0.57263 0.49873 0.29704 0.0
C390 C 0.56139 0.48135 0.4528 0.0
C391 C 0.5578 0.50034 0.32455 0.0
C392 C 0.5436 0.4795 0.57443 0.0
C393 C 0.57775 0.49279 0.72123 0.0
N394 N 0.5528 0.49205 0.40155 0.0
N395 N 0.57573 0.48597 0.62373 0.0
H396 H 0.61686 0.05729 0.91059 0.0
H397 H 0.56337 0.06455 0.41375 0.0
H398 H 0.55733 0.04133 0.83791 0.0
H399 H 0.62739 0.098 0.52048 0.0
H400 H 0.56248 0.06343 0.5796 0.0
H401 H 0.62214 0.07698 0.7767 0.0
C402 C 0.60485 0.05784 0.86623 0.0
C403 C 0.58658 0.04744 0.88513 0.0
C404 C 0.57688 0.07169 0.56784 0.0
C405 C 0.59251 0.07002 0.73108 0.0
C406 C 0.57741 0.0725 0.47349 0.0
C407 C 0.59538 0.08093 0.45396 0.0
C408 C 0.59429 0.07851 0.64167 0.0
C409 C 0.61322 0.09121 0.53307 0.0
C410 C 0.60796 0.06936 0.79023 0.0
C411 C 0.57154 0.0487 0.82504 0.0
N412 N 0.6121 0.089 0.62322 0.0
N413 N 0.57478 0.0596 0.75014 0.0
H414 H 0.72248 0.88374 0.61491 0.0
H415 H 0.76836 0.85785 0.08632 0.0
H416 H 0.77039 0.87112 0.6558 0.0
H417 H 0.71361 0.85524 0.02347 0.0
H418 H 0.77542 0.87673 0.95211 0.0
H419 H 0.72664 0.89021 0.79143 0.0
C420 C 0.73413 0.88292 0.66175 0.0
C421 C 0.74536 0.87535 0.62079 0.0
C422 C 0.76191 0.8722 0.96789 0.0
C423 C 0.7501 0.88252 0.81966 0.0
C424 C 0.75776 0.8611 0.0435 0.0
C425 C 0.74016 0.85445 0.06394 0.0
C426 C 0.74825 0.8764 0.91182 0.0
C427 C 0.72703 0.85936 0.00774 0.0
C428 C 0.73648 0.88656 0.76198 0.0
C429 C 0.76074 0.87549 0.68423 0.0
N430 N 0.73129 0.86992 0.93337 0.0
N431 N 0.7624 0.87839 0.7805 0.0
H432 H 0.25208 0.82611 0.58212 0.0
H433 H 0.20994 0.87286 0.9782 0.0
H434 H 0.22972 0.87823 0.55374 0.0
H435 H 0.23164 0.8199 0.00518 0.0
H436 H 0.21657 0.8745 0.82191 0.0
H437 H 0.24528 0.8242 0.738 0.0
C438 C 0.24565 0.83707 0.6085 0.0
C439 C 0.24092 0.85167 0.55309 0.0
C440 C 0.22006 0.86269 0.86224 0.0
C441 C 0.23309 0.84968 0.7324 0.0
C442 C 0.2162 0.86167 0.95149 0.0
C443 C 0.22084 0.84698 0.00679 0.0
C444 C 0.22848 0.84867 0.82689 0.0
C445 C 0.22872 0.83261 0.96769 0.0
C446 C 0.24169 0.8359 0.69746 0.0
C447 C 0.23279 0.8657 0.59155 0.0
N448 N 0.23233 0.83387 0.88065 0.0
N449 N 0.2291 0.86432 0.67837 0.0
H450 H 0.24505 0.37012 0.53374 0.0
H451 H 0.18526 0.25015 0.78168 0.0
H452 H 0.20693 0.27686 0.37317 0.0
H453 H 0.22692 0.34329 0.94642 0.0
H454 H 0.19197 0.25927 0.63034 0.0
H455 H 0.23843 0.36075 0.68474 0.0
C456 C 0.23511 0.34763 0.52992 0.0
C457 C 0.22589 0.32425 0.43918 0.0
C458 C 0.19983 0.27775 0.69978 0.0
C459 C 0.2183 0.31321 0.61299 0.0
C460 C 0.19596 0.27253 0.78635 0.0
C461 C 0.20604 0.29591 0.87821 0.0
C462 C 0.21372 0.30667 0.70407 0.0
C463 C 0.2195 0.32448 0.87883 0.0
C464 C 0.2313 0.34226 0.61631 0.0
C465 C 0.21346 0.29557 0.43961 0.0
N466 N 0.22294 0.32902 0.79371 0.0
N467 N 0.20998 0.29087 0.52455 0.0
H468 H 0.36532 0.13625 0.30716 0.0
H469 H 0.43684 0.21459 0.01174 0.0
H470 H 0.43044 0.17557 0.4096 0.0
H471 H 0.37061 0.16789 0.89719 0.0
H472 H 0.43461 0.19875 0.15541 0.0
H473 H 0.36609 0.14133 0.14517 0.0
C474 C 0.37963 0.14508 0.2938 0.0
C475 C 0.39793 0.15605 0.37104 0.0
C476 C 0.42057 0.19191 0.09871 0.0
C477 C 0.39921 0.16329 0.18969 0.0
C478 C 0.42184 0.20126 0.0174 0.0
C479 C 0.40382 0.1921 0.94182 0.0
C480 C 0.40115 0.17346 0.10444 0.0
C481 C 0.38486 0.17522 0.95345 0.0
C482 C 0.38016 0.14833 0.20215 0.0
C483 C 0.41608 0.16709 0.35125 0.0
N484 N 0.38401 0.16625 0.03311 0.0
N485 N 0.41642 0.17119 0.26274 0.0
H486 H 0.8646 0.15548 0.31234 0.0
H487 H 0.93827 0.22203 0.00747 0.0
H488 H 0.9268 0.23451 0.45719 0.0
H489 H 0.88235 0.13386 0.8987 0.0
H490 H 0.93438 0.23016 0.17087 0.0
H491 H 0.86901 0.15276 0.15068 0.0
C492 C 0.87887 0.17292 0.30899 0.0
C493 C 0.89534 0.1953 0.39673 0.0
C494 C 0.92318 0.2089 0.11159 0.0
C495 C 0.90105 0.19147 0.215 0.0
C496 C 0.92564 0.20409 0.01947 0.0
C497 C 0.91052 0.17732 0.94044 0.0
C498 C 0.90546 0.18676 0.12304 0.0
C499 C 0.89423 0.15487 0.95827 0.0
C500 C 0.8816 0.17106 0.21748 0.0
C501 C 0.91375 0.2171 0.38999 0.0
N502 N 0.89195 0.16022 0.04737 0.0
N503 N 0.91629 0.21442 0.30043 0.0
H504 H 0.92562 0.66293 0.40215 0.0
H505 H 0.87697 0.68485 0.92451 0.0
H506 H 0.86451 0.6413 0.31046 0.0
H507 H 0.93483 0.69584 -0.00858 0.0
H508 H 0.87151 0.66627 0.06089 0.0
H509 H 0.92762 0.66889 0.24188 0.0
C510 C 0.91229 0.65826 0.34613 0.0
C511 C 0.89486 0.65158 0.36868 0.0
C512 C 0.88542 0.67272 0.04599 0.0
C513 C 0.89742 0.65992 0.18821 0.0
C514 C 0.88867 0.68366 0.96873 0.0
C515 C 0.90643 0.69201 0.94668 0.0
C516 C 0.9001 0.67026 0.10257 0.0
C517 C 0.92104 0.68998 0.00653 0.0
C518 C 0.91354 0.6621 0.25539 0.0
C519 C 0.87812 0.64621 0.29504 0.0
N520 N 0.91754 0.67928 0.0818 0.0
N521 N 0.87998 0.65112 0.20866 0.0
H522 H 0.21804 0.39868 0.24987 0.0
H523 H 0.12514 0.39659 0.93346 0.0
H524 H 0.16476 0.32262 0.00196 0.0
H525 H 0.16694 0.45895 0.23316 0.0
H526 H 0.14202 0.37228 0.94666 0.0
H527 H 0.20209 0.42441 0.23357 0.0
C528 C 0.20308 0.38753 0.19152 0.0
C529 C 0.1926 0.35845 0.12769 0.0
C530 C 0.14741 0.39118 0.00971 0.0
C531 C 0.1744 0.38765 0.10826 0.0
C532 C 0.13784 0.40515 0.00212 0.0
C533 C 0.14458 0.42984 0.08241 0.0
C534 C 0.16396 0.40205 0.09795 0.0
C535 C 0.16103 0.43977 0.16989 0.0
C536 C 0.19395 0.40211 0.18268 0.0
C537 C 0.17323 0.34492 0.05356 0.0
N538 N 0.17021 0.42592 0.17518 0.0
N539 N 0.16477 0.35966 0.04568 0.0
H540 H 0.59489 0.61411 0.0992 0.0
H541 H 0.71388 0.74872 0.2681 0.0
H542 H 0.64502 0.60628 0.1708 0.0
H543 H 0.66532 0.75992 0.23692 0.0
H544 H 0.68851 0.69626 0.22744 0.0
H545 H 0.62002 0.66711 0.14454 0.0
C546 C 0.61117 0.62348 0.12448 0.0
C547 C 0.61781 0.60558 0.13101 0.0
C548 C 0.68337 0.71014 0.22955 0.0
C549 C 0.6467 0.66639 0.18272 0.0
C550 C 0.69787 0.74019 0.25254 0.0
C551 C 0.69179 0.7589 0.25586 0.0
C552 C 0.66249 0.69845 0.20887 0.0
C553 C 0.67077 0.74641 0.2355 0.0
C554 C 0.62552 0.6538 0.15054 0.0
C555 C 0.63913 0.61911 0.16476 0.0
N556 N 0.65688 0.71698 0.21252 0.0
N557 N 0.65276 0.6486 0.18885 0.0
H558 H 0.46609 0.96548 0.31164 0.0
H559 H 0.34625 0.88875 0.02694 0.0
H560 H 0.43766 0.94169 -0.00704 0.0
H561 H 0.37459 0.91868 0.34926 0.0
H562 H 0.38002 0.90965 0.01498 0.0
H563 H 0.43323 0.95041 0.32917 0.0
C564 C 0.45304 0.9574 0.24552 0.0
C565 C 0.45463 0.95458 0.15046 0.0
C566 C 0.37891 0.91179 0.08847 0.0
C567 C 0.41692 0.93689 0.16985 0.0
C568 C 0.35959 0.90002 0.09549 0.0
C569 C 0.3575 0.90199 0.18938 0.0
C570 C 0.39635 0.92551 0.17583 0.0
C571 C 0.37539 0.91629 0.27517 0.0
C572 C 0.43424 0.94862 0.25552 0.0
C573 C 0.43709 0.94368 0.0674 0.0
N574 N 0.39405 0.9274 0.2663 0.0
N575 N 0.41899 0.93509 0.07898 0.0
H576 H 0.54642 0.08246 0.21391 0.0
H577 H 0.51856 0.15217 0.83955 0.0
H578 H 0.58038 0.11606 0.0238 0.0
H579 H 0.49177 0.1307 0.06432 0.0
H580 H 0.54194 0.14052 0.908 0.0
H581 H 0.52699 0.10135 0.16256 0.0
C582 C 0.54995 0.09415 0.1621 0.0
C583 C 0.56505 0.0977 0.12307 0.0
C584 C 0.531 0.1385 0.94257 0.0
C585 C 0.54257 0.11908 0.06252 0.0
C586 C 0.51767 0.14531 0.90386 0.0
C587 C 0.50298 0.14237 0.94566 0.0
C588 C 0.52962 0.12841 0.02337 0.0
C589 C 0.50246 0.1328 0.02793 0.0
C590 C 0.53882 0.10492 0.1327 0.0
C591 C 0.569 0.11307 0.05636 0.0
N592 N 0.51546 0.12605 0.06353 0.0
N593 N 0.55765 0.12293 0.02729 0.0
H594 H 0.92821 0.28468 0.78895 0.0
H595 H 0.04672 0.41229 0.90223 0.0
H596 H 0.97174 0.26853 0.73717 0.0
H597 H 1.00101 0.42836 0.90102 0.0
H598 H 0.01986 0.35976 0.85362 0.0
H599 H 0.95502 0.3376 0.841 0.0
C600 C 0.94343 0.29226 0.78915 0.0
C601 C 0.94775 0.27214 0.75875 0.0
C602 C 0.0157 0.37478 0.86386 0.0
C603 C 0.97852 0.33265 0.8188 0.0
C604 C 0.03106 0.40483 0.8918 0.0
C605 C 0.0262 0.42491 0.90585 0.0
C606 C 0.99525 0.36457 0.84981 0.0
C607 C 1.00556 0.41381 0.8915 0.0
C608 C 0.9587 0.32247 0.81849 0.0
C609 C 0.96769 0.28321 0.75954 0.0
N610 N 0.99088 0.38443 0.86427 0.0
N611 N 0.98232 0.31266 0.78944 0.0
H612 H 0.78142 0.62621 0.76552 0.0
H613 H 0.69902 0.51818 0.97268 0.0
H614 H 0.7784 0.55431 0.83338 0.0
H615 H 0.70022 0.58903 0.90537 0.0
H616 H 0.72896 0.53268 0.92673 0.0
H617 H 0.75282 0.61481 0.82257 0.0
C618 C 0.77487 0.60819 0.79307 0.0
C619 C 0.78221 0.591 0.79363 0.0
C620 C 0.72276 0.54517 0.92215 0.0
C621 C 0.74939 0.5777 0.85802 0.0
C622 C 0.7057 0.53701 0.94913 0.0
C623 C 0.69714 0.55256 0.94386 0.0
C624 C 0.73143 0.56905 0.88902 0.0
C625 C 0.70621 0.57629 0.91007 0.0
C626 C 0.75846 0.60159 0.825 0.0
C627 C 0.77301 0.5678 0.82955 0.0
N628 N 0.72288 0.58384 0.884 0.0
N629 N 0.75709 0.56181 0.85987 0.0
H630 H 0.91733 0.62321 0.81212 0.0
H631 H 0.99446 0.59035 0.68438 0.0
H632 H 0.94885 0.65641 0.613 0.0
H633 H 0.97831 0.58219 0.94673 0.0
H634 H 0.97561 0.61101 0.6479 0.0
H635 H 0.93683 0.6034 0.8512 0.0
C636 C 0.92822 0.6261 0.77599 0.0
C637 C 0.93147 0.64138 0.70902 0.0
C638 C 0.97629 0.60481 0.71371 0.0
C639 C 0.95378 0.61891 0.75349 0.0
C640 C 0.9872 0.59323 0.73516 0.0
C641 C 0.98805 0.58451 0.819 0.0
C642 C 0.96594 0.60745 0.7758 0.0
C643 C 0.97784 0.58815 0.88045 0.0
C644 C 0.93943 0.61499 0.79888 0.0
C645 C 0.94592 0.64481 0.66523 0.0
N646 N 0.96713 0.5992 0.85733 0.0
N647 N 0.9565 0.63355 0.68795 0.0
H648 H 0.50719 0.42725 0.9592 0.0
H649 H 0.47592 0.26466 0.75042 0.0
H650 H 0.55117 0.4112 0.91383 0.0
H651 H 0.43278 0.28575 0.75277 0.0
H652 H 0.50421 0.31745 0.81685 0.0
H653 H 0.48039 0.37477 0.89223 0.0
C654 C 0.51129 0.41269 0.93554 0.0
C655 C 0.53155 0.42378 0.94245 0.0
C656 C 0.48851 0.3104 0.80218 0.0
C657 C 0.50059 0.3631 0.86465 0.0
C658 C 0.47235 0.2803 0.76409 0.0
C659 C 0.45189 0.27068 0.74582 0.0
C660 C 0.48413 0.33093 0.82226 0.0
C661 C 0.44824 0.29198 0.76575 0.0
C662 C 0.49587 0.38259 0.89675 0.0
C663 C 0.53575 0.40363 0.90975 0.0
N664 N 0.46416 0.32097 0.80295 0.0
N665 N 0.52039 0.37419 0.87237 0.0
H666 H 0.80672 0.21011 0.9489 0.0
H667 H 0.70632 0.08949 0.0349 0.0
H668 H 0.78208 0.11839 0.85454 0.0
H669 H 0.72953 0.18033 0.09972 0.0
H670 H 0.73443 0.09919 0.97572 0.0
H671 H 0.77953 0.19937 0.01447 0.0
C672 C 0.79553 0.18763 0.94163 0.0
C673 C 0.79657 0.16507 0.89456 0.0
C674 C 0.73337 0.11698 0.00336 0.0
C675 C 0.76522 0.15253 0.9709 0.0
C676 C 0.71724 0.11144 0.03666 0.0
C677 C 0.7155 0.13414 0.07326 0.0
C678 C 0.74792 0.14544 0.00661 0.0
C679 C 0.73034 0.16219 0.07446 0.0
C680 C 0.78 0.1815 0.97956 0.0
C681 C 0.78191 0.13649 0.89015 0.0
N682 N 0.74582 0.16697 0.04185 0.0
N683 N 0.76675 0.13099 0.92718 0.0
H684 H 0.58794 0.96448 0.07032 0.0
H685 H 0.67635 0.96028 0.40221 0.0
H686 H 0.63721 0.03611 0.34178 0.0
H687 H 0.63885 0.90502 0.09107 0.0
H688 H 0.65946 0.98485 0.39194 0.0
H689 H 0.60365 0.93866 0.08798 0.0
C690 C 0.60195 0.97466 0.13415 0.0
C691 C 0.61133 1.00255 0.20438 0.0
C692 C 0.65502 0.9674 0.32597 0.0
C693 C 0.62937 0.97311 0.22512 0.0
C694 C 0.66457 0.9533 0.33188 0.0
C695 C 0.65912 0.9307 0.24718 0.0
C696 C 0.63974 0.95858 0.2351 0.0
C697 C 0.6438 0.92264 0.15781 0.0
C698 C 0.61097 0.95999 0.14386 0.0
C699 C 0.62954 1.01473 0.28542 0.0
N700 N 0.63463 0.9365 0.15422 0.0
N701 N 0.63797 0.99992 0.29366 0.0
H702 H 0.16107 0.75953 0.16497 0.0
H703 H 0.14142 0.60436 0.10013 0.0
H704 H 0.2097 0.74842 0.1945 0.0
H705 H 0.09277 0.61505 0.02291 0.0
H706 H 0.16691 0.65715 0.14255 0.0
H707 H 0.13621 0.70686 0.12039 0.0
C708 C 0.16658 0.74609 0.16167 0.0
C709 C 0.18763 0.75868 0.18347 0.0
C710 C 0.15066 0.64792 0.11637 0.0
C711 C 0.15897 0.69789 0.13251 0.0
C712 C 0.13608 0.61779 0.09253 0.0
C713 C 0.11488 0.6052 0.05814 0.0
C714 C 0.14403 0.66568 0.1067 0.0
C715 C 0.10891 0.6237 0.04889 0.0
C716 C 0.1523 0.71589 0.13612 0.0
C717 C 0.19368 0.73985 0.17819 0.0
N718 N 0.12339 0.65296 0.07338 0.0
N719 N 0.17943 0.71044 0.15352 0.0
H720 H 0.45069 0.50627 0.09577 0.0
H721 H 0.34652 0.36745 0.09225 0.0
H722 H 0.4389 0.42144 0.04781 0.0
H723 H 0.36206 0.45473 0.15633 0.0
H724 H 0.37972 0.38575 0.07252 0.0
H725 H 0.41768 0.48669 0.11492 0.0
C726 C 0.44106 0.48339 0.08832 0.0
C727 C 0.4475 0.46538 0.06885 0.0
C728 C 0.37585 0.40086 0.09143 0.0
C729 C 0.40962 0.44284 0.09284 0.0
C730 C 0.3569 0.39043 0.10228 0.0
C731 C 0.35157 0.40965 0.12684 0.0
C732 C 0.38946 0.43065 0.10468 0.0
C733 C 0.36564 0.43922 0.13943 0.0
C734 C 0.42223 0.47226 0.10016 0.0
C735 C 0.43456 0.43612 0.06295 0.0
N736 N 0.38388 0.44875 0.12811 0.0
N737 N 0.41617 0.42569 0.07459 0.0
H738 H 0.84391 0.68088 0.55918 0.0
H739 H 0.85128 0.82156 0.50942 0.0
H740 H 0.90209 0.76556 0.64529 0.0
H741 H 0.79576 0.74337 0.4972 0.0
H742 H 0.87001 0.80086 0.55035 0.0
H743 H 0.8259 0.70276 0.52604 0.0
C744 C 0.85293 0.70412 0.5709 0.0
C745 C 0.87458 0.72146 0.60509 0.0
C746 C 0.85377 0.7883 0.53927 0.0
C747 C 0.85393 0.74664 0.56717 0.0
C748 C 0.84304 0.80001 0.51541 0.0
C749 C 0.8219 0.78403 0.49929 0.0
C750 C 0.84325 0.7603 0.54627 0.0
C751 C 0.81206 0.75644 0.50947 0.0
C752 C 0.8426 0.71661 0.55243 0.0
C753 C 0.8854 0.75145 0.61949 0.0
N754 N 0.82279 0.74533 0.5316 0.0
N755 N 0.87494 0.7631 0.59995 0.0
H756 H 0.37443 0.08262 0.62253 0.0
H757 H 0.25361 0.95167 0.35657 0.0
H758 H 0.32939 0.09668 0.49673 0.0
H759 H 0.30147 0.93932 0.43293 0.0
H760 H 0.28034 1.00488 0.41719 0.0
H761 H 0.3471 0.03018 0.56343 0.0
C762 C 0.35877 0.07474 0.58281 0.0
C763 C 0.35427 0.09425 0.56486 0.0
C764 C 0.28492 0.99044 0.42049 0.0
C765 C 0.32268 0.03378 0.49656 0.0
C766 C 0.26967 0.96004 0.38623 0.0
C767 C 0.27521 0.94079 0.38934 0.0
C768 C 0.30585 1.00171 0.45898 0.0
C769 C 0.29633 0.95307 0.42841 0.0
C770 C 0.34313 0.04468 0.54868 0.0
C771 C 0.33361 0.08251 0.51218 0.0
N772 N 0.31078 0.98261 0.46167 0.0
N773 N 0.31857 0.05304 0.48012 0.0
H774 H 0.99033 0.15015 0.33154 0.0
H775 H 0.09957 0.27467 0.32435 0.0
H776 H 0.02428 0.2422 0.50555 0.0
H777 H 0.07069 0.18163 0.20177 0.0
H778 H 0.07051 0.26372 0.37594 0.0
H779 H 0.0179 0.16192 0.26738 0.0
C780 C 1.00357 0.17287 0.35648 0.0
C781 C 1.00499 0.19515 0.42521 0.0
C782 C 0.07051 0.24572 0.33725 0.0
C783 C 0.03665 0.20885 0.3504 0.0
C784 C 0.08716 0.25194 0.30806 0.0
C785 C 0.08773 0.22907 0.25865 0.0
C786 C 0.05419 0.21641 0.31658 0.0
C787 C 0.07091 0.20005 0.23816 0.0
C788 C 0.0193 0.17958 0.31933 0.0
C789 C 0.02237 0.22427 0.45235 0.0
N790 N 0.05492 0.19459 0.26739 0.0
N791 N 0.03755 0.23024 0.41531 0.0
H792 H 0.28637 0.20855 0.47851 0.0
H793 H 0.26118 0.28357 0.1227 0.0
H794 H 0.31044 0.22525 0.24242 0.0
H795 H 0.22215 0.24064 0.28246 0.0
H796 H 0.27998 0.26336 0.1697 0.0
H797 H 0.26325 0.22088 0.41228 0.0
C798 C 0.28664 0.21433 0.41189 0.0
C799 C 0.30054 0.21583 0.36636 0.0
C800 C 0.26714 0.25798 0.19354 0.0
C801 C 0.27429 0.2307 0.29157 0.0
C802 C 0.25641 0.26949 0.16662 0.0
C803 C 0.24002 0.26352 0.19811 0.0
C804 C 0.2618 0.24089 0.25457 0.0
C805 C 0.23452 0.24536 0.2555 0.0
C806 C 0.27346 0.22155 0.37451 0.0
C807 C 0.30036 0.22422 0.28152 0.0
N808 N 0.24558 0.23497 0.28313 0.0
N809 N 0.28761 0.23154 0.24758 0.0
H810 H 0.80592 0.9381 0.47123 0.0
H811 H 0.83092 0.0948 0.50123 0.0
H812 H 0.75909 0.94963 0.35145 0.0
H813 H 0.87757 0.08081 0.59088 0.0
H814 H 0.80432 0.04196 0.44815 0.0
H815 H 0.83222 0.99053 0.51829 0.0
C816 C 0.80111 0.95162 0.45484 0.0
C817 C 0.78017 0.93933 0.40742 0.0
C818 C 0.82039 0.05047 0.47908 0.0
C819 C 0.8104 0.99968 0.46138 0.0
C820 C 0.83561 0.08066 0.50941 0.0
C821 C 0.85657 0.09238 0.5508 0.0
C822 C 0.82613 0.0318 0.49041 0.0
C823 C 0.86165 0.07288 0.55956 0.0
C824 C 0.8162 0.98163 0.48162 0.0
C825 C 0.775 0.95808 0.38785 0.0
N826 N 0.84655 0.04363 0.52995 0.0
N827 N 0.79001 0.98732 0.41517 0.0
H828 H 0.02685 0.81437 0.50559 0.0
H829 H 0.09859 0.76764 0.38966 0.0
H830 H 0.02134 0.73857 0.5494 0.0
H831 H 0.11032 0.85093 0.3996 0.0
H832 H 0.06782 0.75368 0.42912 0.0
H833 H 0.05493 0.82495 0.44669 0.0
C834 C 0.03154 0.79994 0.50297 0.0
C835 C 0.02182 0.77571 0.53377 0.0
C836 C 0.07708 0.77493 0.422 0.0
C837 C 0.0539 0.78756 0.46498 0.0
C838 C 0.0947 0.78299 0.39988 0.0
C839 C 0.10717 0.81058 0.39151 0.0
C840 C 0.0718 0.79453 0.43559 0.0
C841 C 0.1011 0.82929 0.40383 0.0
C842 C 0.04754 0.80594 0.46883 0.0
C843 C 0.02826 0.75739 0.52604 0.0
N844 N 0.08392 0.82096 0.42555 0.0
N845 N 0.04397 0.76379 0.49299 0.0
loop_
_geom_bond_atom_site_label_1
_geom_bond_atom_site_label_2
_geom_bond_distance
_geom_bond_site_symmetry_2
_ccdc_geom_bond_type
Tb0 C9 2.764 . S
Tb0 O10 2.325 1_556 S
Tb0 O13 2.303 . S
Tb0 O17 2.322 . S
Tb0 O18 2.349 1_556 S
Tb0 O21 2.415 . S
Tb0 O22 2.399 1_556 S
Tb1 O11 2.322 . S
Tb1 O12 2.349 1_554 S
Tb1 O14 2.415 . S
Tb1 O15 2.399 1_554 S
Tb1 O16 2.325 1_554 S
Tb1 O19 2.303 . S
Tb1 C30 2.764 . S
C2 O18 1.261 . S
C2 O19 1.257 . S
C3 C6 1.346 1_456 S
C3 C7 1.334 . S
C3 C9 1.514 . S
C4 C5 1.373 . S
C4 C8 1.308 . S
C5 C4 1.373 . S
C5 C6 1.429 1_556 S
C5 H32 0.932 1_556 S
C6 C3 1.346 1_654 S
C6 C5 1.429 1_554 S
C6 H33 0.930 . S
C7 C3 1.334 . S
C7 C8 1.394 1_455 S
C7 H34 0.932 . S
C8 C4 1.308 . S
C8 C7 1.394 1_655 S
C8 H35 0.929 1_655 S
C9 Tb0 2.764 . S
C9 C3 1.514 . S
C9 O21 1.239 . S
C9 O22 1.263 1_556 S
O10 Tb0 2.325 1_554 S
O10 C20 1.236 . S
O11 Tb1 2.322 . S
O11 C20 1.257 . S
O12 Tb1 2.349 1_556 S
O12 C23 1.261 . S
O13 Tb0 2.303 . S
O13 C23 1.257 . S
O14 Tb1 2.415 . S
O14 C30 1.239 . S
O15 Tb1 2.399 1_556 S
O15 C30 1.263 1_556 S
O16 Tb1 2.325 1_556 S
O16 C31 1.236 . S
O17 Tb0 2.322 . S
O17 C31 1.257 . S
O18 Tb0 2.349 1_554 S
O18 C2 1.261 . S
O19 Tb1 2.303 . S
O19 C2 1.257 . S
C20 O10 1.236 . S
C20 O11 1.257 . S
O21 Tb0 2.415 . S
O21 C9 1.239 . S
O22 Tb0 2.399 1_554 S
O22 C9 1.263 1_554 S
C23 O12 1.261 . S
C23 O13 1.257 . S
C24 C27 1.358 1_554 S
C24 C28 1.332 . S
C24 C30 1.504 . S
C25 C26 1.373 . S
C25 C29 1.308 . S
C26 C25 1.373 . S
C26 C27 1.429 1_554 S
C26 H36 0.932 1_554 S
C27 C24 1.358 1_556 S
C27 C26 1.429 1_556 S
C27 H37 0.930 . S
C28 C24 1.332 . S
C28 C29 1.394 . S
C28 H38 0.932 . S
C29 C25 1.308 . S
C29 C28 1.394 . S
C29 H39 0.929 . S
C30 Tb1 2.764 . S
C30 O14 1.239 . S
C30 O15 1.263 1_554 S
C30 C24 1.504 . S
C31 O16 1.236 . S
C31 O17 1.257 . S
H32 C5 0.932 1_554 S
H33 C6 0.930 . S
H34 C7 0.932 . S
H35 C8 0.929 1_455 S
H36 C26 0.932 1_556 S
H37 C27 0.930 . S
H38 C28 0.932 . S
H39 C29 0.929 . S
Tb40 C49 2.764 . S
Tb40 O50 2.325 . S
Tb40 O53 2.303 . S
Tb40 O57 2.322 . S
Tb40 O58 2.349 1_554 S
Tb40 O61 2.415 . S
Tb40 O62 2.398 1_554 S
Tb41 O51 2.322 . S
Tb41 O52 2.349 . S
Tb41 O54 2.415 . S
Tb41 O55 2.399 . S
Tb41 O56 2.325 . S
Tb41 O59 2.303 1_554 S
Tb41 C70 2.764 . S
C42 O58 1.261 . S
C42 O59 1.257 . S
C43 C46 1.357 1_554 S
C43 C47 1.332 . S
C43 C49 1.504 . S
C44 C45 1.373 . S
C44 C48 1.308 . S
C45 C44 1.373 . S
C45 C46 1.429 1_554 S
C45 H72 0.932 1_554 S
C46 C43 1.357 1_556 S
C46 C45 1.429 1_556 S
C46 H73 0.931 . S
C47 C43 1.332 . S
C47 C48 1.394 . S
C47 H74 0.932 . S
C48 C44 1.308 . S
C48 C47 1.394 . S
C48 H75 0.929 . S
C49 Tb40 2.764 . S
C49 C43 1.504 . S
C49 O61 1.239 . S
C49 O62 1.254 1_554 S
O50 Tb40 2.325 . S
O50 C60 1.236 . S
O51 Tb41 2.322 . S
O51 C60 1.257 . S
O52 Tb41 2.349 . S
O52 C63 1.261 . S
O53 Tb40 2.303 . S
O53 C63 1.257 . S
O54 Tb41 2.415 . S
O54 C70 1.239 . S
O55 Tb41 2.399 . S
O55 C70 1.263 . S
O56 Tb41 2.325 . S
O56 C71 1.236 . S
O57 Tb40 2.322 . S
O57 C71 1.257 . S
O58 Tb40 2.349 1_556 S
O58 C42 1.261 . S
O59 Tb41 2.303 1_556 S
O59 C42 1.257 . S
C60 O50 1.236 . S
C60 O51 1.257 . S
O61 Tb40 2.415 . S
O61 C49 1.239 . S
O62 Tb40 2.398 1_556 S
O62 C49 1.254 1_556 S
C63 O52 1.261 . S
C63 O53 1.257 . S
C64 C67 1.358 . S
C64 C68 1.332 . S
C64 C70 1.504 . S
C65 C66 1.373 . S
C65 C69 1.308 . S
C66 C65 1.373 . S
C66 C67 1.429 . S
C66 H76 0.932 . S
C67 C64 1.358 . S
C67 C66 1.429 . S
C67 H77 0.930 . S
C68 C64 1.332 . S
C68 C69 1.394 . S
C68 H78 0.932 . S
C69 C65 1.308 . S
C69 C68 1.394 . S
C69 H79 0.929 . S
C70 Tb41 2.764 . S
C70 O54 1.239 . S
C70 O55 1.263 . S
C70 C64 1.504 . S
C71 O56 1.236 . S
C71 O57 1.257 . S
H72 C45 0.932 1_556 S
H73 C46 0.931 . S
H74 C47 0.932 . S
H75 C48 0.929 . S
H76 C66 0.932 . S
H77 C67 0.930 . S
H78 C68 0.932 . S
H79 C69 0.929 . S
Tb80 C89 2.764 . S
Tb80 O90 2.325 . S
Tb80 O93 2.303 . S
Tb80 O97 2.322 . S
Tb80 O98 2.349 . S
Tb80 O101 2.415 . S
Tb80 O102 2.399 . S
Tb81 O91 2.322 . S
Tb81 O92 2.349 . S
Tb81 O94 2.415 . S
Tb81 O95 2.399 1_545 S
Tb81 O96 2.325 . S
Tb81 O99 2.303 . S
Tb81 C110 2.764 1_545 S
C82 O98 1.261 . S
C82 O99 1.257 . S
C83 C86 1.358 . S
C83 C87 1.332 . S
C83 C89 1.504 . S
C84 C85 1.373 . S
C84 C88 1.308 . S
C85 C84 1.373 . S
C85 C86 1.429 . S
C85 H112 0.932 . S
C86 C83 1.358 . S
C86 C85 1.429 . S
C86 H113 0.930 . S
C87 C83 1.332 . S
C87 C88 1.394 . S
C87 H114 0.932 . S
C88 C84 1.308 . S
C88 C87 1.394 . S
C88 H115 0.929 . S
C89 Tb80 2.764 . S
C89 C83 1.504 . S
C89 O101 1.239 . S
C89 O102 1.263 . S
O90 Tb80 2.325 . S
O90 C100 1.236 . S
O91 Tb81 2.322 . S
O91 C100 1.257 . S
O92 Tb81 2.349 . S
O92 C103 1.261 . S
O93 Tb80 2.303 . S
O93 C103 1.257 . S
O94 Tb81 2.415 . S
O94 C110 1.239 1_545 S
O95 Tb81 2.399 1_565 S
O95 C110 1.263 . S
O96 Tb81 2.325 . S
O96 C111 1.236 . S
O97 Tb80 2.322 . S
O97 C111 1.257 . S
O98 Tb80 2.349 . S
O98 C82 1.261 . S
O99 Tb81 2.303 . S
O99 C82 1.257 . S
C100 O90 1.236 . S
C100 O91 1.257 . S
O101 Tb80 2.415 . S
O101 C89 1.239 . S
O102 Tb80 2.399 . S
O102 C89 1.263 . S
C103 O92 1.261 . S
C103 O93 1.257 . S
C104 C107 1.358 . S
C104 C108 1.332 . S
C104 C110 1.504 . S
C105 C106 1.373 . S
C105 C109 1.308 . S
C106 C105 1.373 . S
C106 C107 1.429 . S
C106 H116 0.932 . S
C107 C104 1.358 . S
C107 C106 1.429 . S
C107 H117 0.930 . S
C108 C104 1.332 . S
C108 C109 1.394 . S
C108 H118 0.932 1_565 S
C109 C105 1.308 . S
C109 C108 1.394 . S
C109 H119 0.929 . S
C110 Tb81 2.764 1_565 S
C110 O94 1.239 1_565 S
C110 O95 1.263 . S
C110 C104 1.504 . S
C111 O96 1.236 . S
C111 O97 1.257 . S
H112 C85 0.932 . S
H113 C86 0.930 . S
H114 C87 0.932 . S
H115 C88 0.929 . S
H116 C106 0.932 . S
H117 C107 0.930 . S
H118 C108 0.932 1_545 S
H119 C109 0.929 . S
Tb120 C129 2.764 . S
Tb120 O130 2.325 . S
Tb120 O133 2.303 . S
Tb120 O137 2.322 . S
Tb120 O138 2.349 . S
Tb120 O141 2.415 . S
Tb120 O142 2.399 . S
Tb121 O131 2.322 . S
Tb121 O132 2.349 . S
Tb121 O134 2.415 . S
Tb121 O135 2.399 . S
Tb121 O136 2.325 . S
Tb121 O139 2.303 . S
Tb121 C150 2.764 . S
C122 O138 1.261 . S
C122 O139 1.257 . S
C123 C126 1.358 . S
C123 C127 1.332 . S
C123 C129 1.504 . S
C124 C125 1.373 . S
C124 C128 1.308 . S
C125 C124 1.373 . S
C125 C126 1.429 . S
C125 H152 0.932 . S
C126 C123 1.358 . S
C126 C125 1.429 . S
C126 H153 0.930 . S
C127 C123 1.332 . S
C127 C128 1.394 . S
C127 H154 0.932 . S
C128 C124 1.308 . S
C128 C127 1.394 . S
C128 H155 0.929 . S
C129 Tb120 2.764 . S
C129 C123 1.504 . S
C129 O141 1.239 . S
C129 O142 1.263 . S
O130 Tb120 2.325 . S
O130 C140 1.236 . S
O131 Tb121 2.322 . S
O131 C140 1.257 . S
O132 Tb121 2.349 . S
O132 C143 1.261 . S
O133 Tb120 2.303 . S
O133 C143 1.257 . S
O134 Tb121 2.415 . S
O134 C150 1.239 . S
O135 Tb121 2.399 . S
O135 C150 1.263 . S
O136 Tb121 2.325 . S
O136 C151 1.236 . S
O137 Tb120 2.322 . S
O137 C151 1.257 . S
O138 Tb120 2.349 . S
O138 C122 1.261 . S
O139 Tb121 2.303 . S
O139 C122 1.257 . S
C140 O130 1.236 . S
C140 O131 1.257 . S
O141 Tb120 2.415 . S
O141 C129 1.239 . S
O142 Tb120 2.399 . S
O142 C129 1.263 . S
C143 O132 1.261 . S
C143 O133 1.257 . S
C144 C147 1.358 . S
C144 C148 1.332 . S
C144 C150 1.504 . S
C145 C146 1.373 . S
C145 C149 1.308 . S
C146 C145 1.373 . S
C146 C147 1.429 . S
C146 H156 0.932 . S
C147 C144 1.358 . S
C147 C146 1.429 . S
C147 H157 0.930 . S
C148 C144 1.332 . S
C148 C149 1.394 . S
C148 H158 0.932 . S
C149 C145 1.308 . S
C149 C148 1.394 . S
C149 H159 0.929 . S
C150 Tb121 2.764 . S
C150 O134 1.239 . S
C150 O135 1.263 . S
C150 C144 1.504 . S
C151 O136 1.236 . S
C151 O137 1.257 . S
H152 C125 0.932 . S
H153 C126 0.930 . S
H154 C127 0.932 . S
H155 C128 0.929 . S
H156 C146 0.932 . S
H157 C147 0.930 . S
H158 C148 0.932 . S
H159 C149 0.929 . S
Tb160 C169 2.764 . S
Tb160 O170 2.325 . S
Tb160 O173 2.303 . S
Tb160 O177 2.322 . S
Tb160 O178 2.349 . S
Tb160 O181 2.415 . S
Tb160 O182 2.399 . S
Tb161 O171 2.322 . S
Tb161 O172 2.349 . S
Tb161 O174 2.415 . S
Tb161 O175 2.399 . S
Tb161 O176 2.325 . S
Tb161 O179 2.303 . S
Tb161 C190 2.764 . S
C162 O178 1.261 . S
C162 O179 1.257 . S
C163 C166 1.358 . S
C163 C167 1.332 . S
C163 C169 1.504 . S
C164 C165 1.373 . S
C164 C168 1.308 . S
C165 C164 1.373 . S
C165 C166 1.429 . S
C165 H192 0.932 . S
C166 C163 1.358 . S
C166 C165 1.429 . S
C166 H193 0.930 . S
C167 C163 1.332 . S
C167 C168 1.394 . S
C167 H194 0.932 . S
C168 C164 1.308 . S
C168 C167 1.394 . S
C168 H195 0.929 . S
C169 Tb160 2.764 . S
C169 C163 1.504 . S
C169 O181 1.239 . S
C169 O182 1.263 . S
O170 Tb160 2.325 . S
O170 C180 1.236 . S
O171 Tb161 2.322 . S
O171 C180 1.257 . S
O172 Tb161 2.349 . S
O172 C183 1.261 . S
O173 Tb160 2.303 . S
O173 C183 1.257 . S
O174 Tb161 2.415 . S
O174 C190 1.239 . S
O175 Tb161 2.399 . S
O175 C190 1.263 . S
O176 Tb161 2.325 . S
O176 C191 1.236 . S
O177 Tb160 2.322 . S
O177 C191 1.257 . S
O178 Tb160 2.349 . S
O178 C162 1.261 . S
O179 Tb161 2.303 . S
O179 C162 1.257 . S
C180 O170 1.236 . S
C180 O171 1.257 . S
O181 Tb160 2.415 . S
O181 C169 1.239 . S
O182 Tb160 2.399 . S
O182 C169 1.263 . S
C183 O172 1.261 . S
C183 O173 1.257 . S
C184 C187 1.358 . S
C184 C188 1.332 . S
C184 C190 1.504 . S
C185 C186 1.373 . S
C185 C189 1.308 . S
C186 C185 1.373 . S
C186 C187 1.429 . S
C186 H196 0.932 . S
C187 C184 1.358 . S
C187 C186 1.429 . S
C187 H197 0.930 . S
C188 C184 1.332 . S
C188 C189 1.394 . S
C188 H198 0.932 . S
C189 C185 1.308 . S
C189 C188 1.394 . S
C189 H199 0.929 . S
C190 Tb161 2.764 . S
C190 O174 1.239 . S
C190 O175 1.263 . S
C190 C184 1.504 . S
C191 O176 1.236 . S
C191 O177 1.257 . S
H192 C165 0.932 . S
H193 C166 0.930 . S
H194 C167 0.932 . S
H195 C168 0.929 . S
H196 C186 0.932 . S
H197 C187 0.930 . S
H198 C188 0.932 . S
H199 C189 0.929 . S
Tb200 C209 2.764 . S
Tb200 O210 2.325 . S
Tb200 O213 2.303 . S
Tb200 O217 2.322 . S
Tb200 O218 2.349 . S
Tb200 O221 2.415 . S
Tb200 O222 2.399 . S
Tb201 O211 2.322 . S
Tb201 O212 2.349 1_554 S
Tb201 O214 2.415 . S
Tb201 O215 2.399 1_554 S
Tb201 O216 2.325 . S
Tb201 O219 2.303 . S
Tb201 C230 2.764 . S
C202 O218 1.261 . S
C202 O219 1.257 . S
C203 C206 1.358 . S
C203 C207 1.332 . S
C203 C209 1.504 . S
C204 C205 1.373 . S
C204 C208 1.308 . S
C205 C204 1.373 . S
C205 C206 1.429 . S
C205 H232 0.932 . S
C206 C203 1.358 . S
C206 C205 1.429 . S
C206 H233 0.930 . S
C207 C203 1.332 . S
C207 C208 1.394 . S
C207 H234 0.932 . S
C208 C204 1.308 . S
C208 C207 1.394 . S
C208 H235 0.929 . S
C209 Tb200 2.764 . S
C209 C203 1.504 . S
C209 O221 1.239 . S
C209 O222 1.263 . S
O210 Tb200 2.325 . S
O210 C220 1.236 . S
O211 Tb201 2.322 . S
O211 C220 1.257 . S
O212 Tb201 2.349 1_556 S
O212 C223 1.261 . S
O213 Tb200 2.303 . S
O213 C223 1.257 1_554 S
O214 Tb201 2.415 . S
O214 C230 1.239 . S
O215 Tb201 2.399 1_556 S
O215 C230 1.263 1_556 S
O216 Tb201 2.325 . S
O216 C231 1.236 . S
O217 Tb200 2.322 . S
O217 C231 1.257 . S
O218 Tb200 2.349 . S
O218 C202 1.261 . S
O219 Tb201 2.303 . S
O219 C202 1.257 . S
C220 O210 1.236 . S
C220 O211 1.257 . S
O221 Tb200 2.415 . S
O221 C209 1.239 . S
O222 Tb200 2.399 . S
O222 C209 1.263 . S
C223 O212 1.261 . S
C223 O213 1.257 1_556 S
C224 C227 1.358 1_554 S
C224 C228 1.332 . S
C224 C230 1.504 . S
C225 C226 1.373 1_554 S
C225 C229 1.308 . S
C226 C225 1.373 1_556 S
C226 C227 1.429 . S
C226 H236 0.932 . S
C227 C224 1.358 1_556 S
C227 C226 1.429 . S
C227 H237 0.930 . S
C228 C224 1.332 . S
C228 C229 1.394 . S
C228 H238 0.932 . S
C229 C225 1.308 . S
C229 C228 1.394 . S
C229 H239 0.929 . S
C230 Tb201 2.764 . S
C230 O214 1.239 . S
C230 O215 1.263 1_554 S
C230 C224 1.504 . S
C231 O216 1.236 . S
C231 O217 1.257 . S
H232 C205 0.932 . S
H233 C206 0.930 . S
H234 C207 0.932 . S
H235 C208 0.929 . S
H236 C226 0.932 . S
H237 C227 0.930 . S
H238 C228 0.932 . S
H239 C229 0.929 . S
Tb240 C249 2.764 . S
Tb240 O250 2.325 . S
Tb240 O253 2.303 . S
Tb240 O257 2.322 . S
Tb240 O258 2.349 . S
Tb240 O261 2.415 . S
Tb240 O262 2.399 . S
Tb241 O251 2.322 . S
Tb241 O252 2.349 . S
Tb241 O254 2.415 . S
Tb241 O255 2.399 . S
Tb241 O256 2.325 . S
Tb241 O259 2.303 . S
Tb241 C270 2.764 . S
C242 O258 1.261 . S
C242 O259 1.257 . S
C243 C246 1.358 . S
C243 C247 1.332 . S
C243 C249 1.504 . S
C244 C245 1.373 . S
C244 C248 1.308 . S
C245 C244 1.373 . S
C245 C246 1.429 . S
C245 H272 0.932 . S
C246 C243 1.358 . S
C246 C245 1.429 . S
C246 H273 0.930 . S
C247 C243 1.332 . S
C247 C248 1.394 . S
C247 H274 0.932 . S
C248 C244 1.308 . S
C248 C247 1.394 . S
C248 H275 0.929 . S
C249 Tb240 2.764 . S
C249 C243 1.504 . S
C249 O261 1.239 . S
C249 O262 1.263 . S
O250 Tb240 2.325 . S
O250 C260 1.236 . S
O251 Tb241 2.322 . S
O251 C260 1.257 . S
O252 Tb241 2.349 . S
O252 C263 1.261 . S
O253 Tb240 2.303 . S
O253 C263 1.257 . S
O254 Tb241 2.415 . S
O254 C270 1.239 . S
O255 Tb241 2.399 . S
O255 C270 1.263 . S
O256 Tb241 2.325 . S
O256 C271 1.236 . S
O257 Tb240 2.322 . S
O257 C271 1.257 . S
O258 Tb240 2.349 . S
O258 C242 1.261 . S
O259 Tb241 2.303 . S
O259 C242 1.257 . S
C260 O250 1.236 . S
C260 O251 1.257 . S
O261 Tb240 2.415 . S
O261 C249 1.239 . S
O262 Tb240 2.399 . S
O262 C249 1.263 . S
C263 O252 1.261 . S
C263 O253 1.257 . S
C264 C267 1.358 . S
C264 C268 1.332 . S
C264 C270 1.504 . S
C265 C266 1.373 . S
C265 C269 1.308 . S
C266 C265 1.373 . S
C266 C267 1.429 . S
C266 H276 0.932 . S
C267 C264 1.358 . S
C267 C266 1.429 . S
C267 H277 0.930 . S
C268 C264 1.332 . S
C268 C269 1.394 . S
C268 H278 0.932 . S
C269 C265 1.308 . S
C269 C268 1.394 . S
C269 H279 0.929 . S
C270 Tb241 2.764 . S
C270 O254 1.239 . S
C270 O255 1.263 . S
C270 C264 1.504 . S
C271 O256 1.236 . S
C271 O257 1.257 . S
H272 C245 0.932 . S
H273 C246 0.930 . S
H274 C247 0.932 . S
H275 C248 0.929 . S
H276 C266 0.932 . S
H277 C267 0.930 . S
H278 C268 0.932 . S
H279 C269 0.929 . S
Tb280 C289 2.764 . S
Tb280 O290 2.325 . S
Tb280 O293 2.303 . S
Tb280 O297 2.322 . S
Tb280 O298 2.349 . S
Tb280 O301 2.415 . S
Tb280 O302 2.399 . S
Tb281 O291 2.322 . S
Tb281 O292 2.349 . S
Tb281 O294 2.415 . S
Tb281 O295 2.399 . S
Tb281 O296 2.325 . S
Tb281 O299 2.303 . S
Tb281 C310 2.764 . S
C282 O298 1.261 . S
C282 O299 1.257 . S
C283 C286 1.358 . S
C283 C287 1.332 . S
C283 C289 1.504 . S
C284 C285 1.373 . S
C284 C288 1.308 . S
C285 C284 1.373 . S
C285 C286 1.429 . S
C285 H312 0.932 . S
C286 C283 1.358 . S
C286 C285 1.429 . S
C286 H313 0.930 . S
C287 C283 1.332 . S
C287 C288 1.394 . S
C287 H314 0.932 . S
C288 C284 1.308 . S
C288 C287 1.394 . S
C288 H315 0.929 . S
C289 Tb280 2.764 . S
C289 C283 1.504 . S
C289 O301 1.239 . S
C289 O302 1.263 . S
O290 Tb280 2.325 . S
O290 C300 1.236 . S
O291 Tb281 2.322 . S
O291 C300 1.257 . S
O292 Tb281 2.349 . S
O292 C303 1.261 . S
O293 Tb280 2.303 . S
O293 C303 1.257 . S
O294 Tb281 2.415 . S
O294 C310 1.239 . S
O295 Tb281 2.399 . S
O295 C310 1.263 . S
O296 Tb281 2.325 . S
O296 C311 1.236 . S
O297 Tb280 2.322 . S
O297 C311 1.257 . S
O298 Tb280 2.349 . S
O298 C282 1.261 . S
O299 Tb281 2.303 . S
O299 C282 1.257 . S
C300 O290 1.236 . S
C300 O291 1.257 . S
O301 Tb280 2.415 . S
O301 C289 1.239 . S
O302 Tb280 2.399 . S
O302 C289 1.263 . S
C303 O292 1.261 . S
C303 O293 1.257 . S
C304 C307 1.358 . S
C304 C308 1.332 . S
C304 C310 1.504 . S
C305 C306 1.373 . S
C305 C309 1.308 . S
C306 C305 1.373 . S
C306 C307 1.429 . S
C306 H316 0.932 . S
C307 C304 1.358 . S
C307 C306 1.429 . S
C307 H317 0.930 . S
C308 C304 1.332 . S
C308 C309 1.394 . S
C308 H318 0.932 . S
C309 C305 1.308 . S
C309 C308 1.394 . S
C309 H319 0.929 . S
C310 Tb281 2.764 . S
C310 O294 1.239 . S
C310 O295 1.263 . S
C310 C304 1.504 . S
C311 O296 1.236 . S
C311 O297 1.257 . S
H312 C285 0.932 . S
H313 C286 0.930 . S
H314 C287 0.932 . S
H315 C288 0.929 . S
H316 C306 0.932 . S
H317 C307 0.930 . S
H318 C308 0.932 . S
H319 C309 0.929 . S
Tb320 C329 2.764 . S
Tb320 O330 2.325 . S
Tb320 O333 2.303 . S
Tb320 O337 2.322 . S
Tb320 O338 2.349 . S
Tb320 O341 2.415 . S
Tb320 O342 2.399 . S
Tb321 O331 2.322 . S
Tb321 O332 2.349 . S
Tb321 O334 2.415 . S
Tb321 O335 2.399 . S
Tb321 O336 2.325 . S
Tb321 O339 2.303 . S
Tb321 C350 2.764 . S
C322 O338 1.261 . S
C322 O339 1.257 . S
C323 C326 1.358 . S
C323 C327 1.332 . S
C323 C329 1.504 . S
C324 C325 1.373 . S
C324 C328 1.308 . S
C325 C324 1.373 . S
C325 C326 1.429 . S
C325 H352 0.932 . S
C326 C323 1.358 . S
C326 C325 1.429 . S
C326 H353 0.930 . S
C327 C323 1.332 . S
C327 C328 1.394 . S
C327 H354 0.932 . S
C328 C324 1.308 . S
C328 C327 1.394 . S
C328 H355 0.929 . S
C329 Tb320 2.764 . S
C329 C323 1.504 . S
C329 O341 1.239 . S
C329 O342 1.263 . S
O330 Tb320 2.325 . S
O330 C340 1.236 . S
O331 Tb321 2.322 . S
O331 C340 1.257 . S
O332 Tb321 2.349 . S
O332 C343 1.261 . S
O333 Tb320 2.303 . S
O333 C343 1.257 . S
O334 Tb321 2.415 . S
O334 C350 1.239 . S
O335 Tb321 2.399 . S
O335 C350 1.263 . S
O336 Tb321 2.325 . S
O336 C351 1.236 . S
O337 Tb320 2.322 . S
O337 C351 1.257 . S
O338 Tb320 2.349 . S
O338 C322 1.261 . S
O339 Tb321 2.303 . S
O339 C322 1.257 . S
C340 O330 1.236 . S
C340 O331 1.257 . S
O341 Tb320 2.415 . S
O341 C329 1.239 . S
O342 Tb320 2.399 . S
O342 C329 1.263 . S
C343 O332 1.261 . S
C343 O333 1.257 . S
C344 C347 1.358 . S
C344 C348 1.332 . S
C344 C350 1.504 . S
C345 C346 1.326 1_455 S
C345 C349 1.309 1_455 S
C346 C345 1.326 1_655 S
C346 C347 1.429 . S
C346 H356 0.932 1_655 S
C347 C344 1.358 . S
C347 C346 1.429 . S
C347 H357 0.930 . S
C348 C344 1.332 . S
C348 C349 1.394 . S
C348 H358 0.932 . S
C349 C345 1.309 1_655 S
C349 C348 1.394 . S
C349 H359 0.929 . S
C350 Tb321 2.764 . S
C350 O334 1.239 . S
C350 O335 1.263 . S
C350 C344 1.504 . S
C351 O336 1.236 . S
C351 O337 1.257 . S
H352 C325 0.932 . S
H353 C326 0.930 . S
H354 C327 0.932 . S
H355 C328 0.929 . S
H356 C346 0.932 1_455 S
H357 C347 0.930 . S
H358 C348 0.932 . S
H359 C349 0.929 . S
H360 C366 0.930 . S
H361 C370 0.930 . S
H362 C375 0.929 . S
H363 C373 0.929 . S
H364 C368 0.929 . S
H365 C374 0.929 . S
C366 H360 0.930 . S
C366 C367 1.367 . S
C366 C374 1.378 . S
C367 C366 1.367 . S
C367 C375 1.433 . S
C368 H364 0.929 . S
C368 C370 1.378 . S
C368 C372 1.350 . S
C369 C372 1.463 . S
C369 C374 1.350 . S
C369 N377 1.427 . S
C370 H361 0.930 . S
C370 C368 1.378 . S
C370 C371 1.367 . S
C371 C370 1.367 . S
C371 C373 1.433 . S
C372 C368 1.350 . S
C372 C369 1.463 . S
C372 N376 1.427 . S
C373 H363 0.929 . S
C373 C371 1.433 . S
C373 N376 1.384 . S
C374 H365 0.929 . S
C374 C366 1.378 . S
C374 C369 1.350 . S
C375 H362 0.929 . S
C375 C367 1.433 . S
C375 N377 1.384 . S
N376 C372 1.427 . S
N376 C373 1.384 . S
N377 C369 1.427 . S
N377 C375 1.384 . S
H378 C384 0.930 . S
H379 C388 0.930 . S
H380 C393 0.929 . S
H381 C391 0.929 . S
H382 C386 0.929 . S
H383 C392 0.929 . S
C384 H378 0.930 . S
C384 C385 1.367 . S
C384 C392 1.378 . S
C385 C384 1.367 . S
C385 C393 1.433 . S
C386 H382 0.929 . S
C386 C388 1.378 . S
C386 C390 1.350 . S
C387 C390 1.463 . S
C387 C392 1.350 . S
C387 N395 1.427 . S
C388 H379 0.930 . S
C388 C386 1.378 . S
C388 C389 1.367 . S
C389 C388 1.367 . S
C389 C391 1.433 . S
C390 C386 1.350 . S
C390 C387 1.463 . S
C390 N394 1.427 . S
C391 H381 0.929 . S
C391 C389 1.433 . S
C391 N394 1.384 . S
C392 H383 0.929 . S
C392 C384 1.378 . S
C392 C387 1.350 . S
C393 H380 0.929 . S
C393 C385 1.433 . S
C393 N395 1.384 . S
N394 C390 1.427 . S
N394 C391 1.384 . S
N395 C387 1.427 . S
N395 C393 1.384 . S
H396 C402 0.930 1_554 S
H397 C406 0.930 . S
H398 C411 0.929 . S
H399 C409 0.929 . S
H400 C404 0.929 . S
H401 C410 0.929 . S
C402 H396 0.930 1_556 S
C402 C403 1.367 . S
C402 C410 1.378 . S
C403 C402 1.367 . S
C403 C411 1.433 . S
C404 H400 0.929 . S
C404 C406 1.378 . S
C404 C408 1.350 . S
C405 C408 1.463 . S
C405 C410 1.350 . S
C405 N413 1.427 . S
C406 H397 0.930 . S
C406 C404 1.378 . S
C406 C407 1.367 . S
C407 C406 1.367 . S
C407 C409 1.433 . S
C408 C404 1.350 . S
C408 C405 1.463 . S
C408 N412 1.427 . S
C409 H399 0.929 . S
C409 C407 1.433 . S
C409 N412 1.384 . S
C410 H401 0.929 . S
C410 C402 1.378 . S
C410 C405 1.350 . S
C411 H398 0.929 . S
C411 C403 1.433 . S
C411 N413 1.384 . S
N412 C408 1.427 . S
N412 C409 1.384 . S
N413 C405 1.427 . S
N413 C411 1.384 . S
H414 C420 0.930 . S
H415 C424 0.930 . S
H416 C429 0.929 . S
H417 C427 0.929 . S
H418 C422 0.929 . S
H419 C428 0.929 . S
C420 H414 0.930 . S
C420 C421 1.367 . S
C420 C428 1.378 . S
C421 C420 1.367 . S
C421 C429 1.433 . S
C422 H418 0.929 . S
C422 C424 1.378 1_556 S
C422 C426 1.350 . S
C423 C426 1.463 . S
C423 C428 1.350 . S
C423 N431 1.427 . S
C424 H415 0.930 . S
C424 C422 1.378 1_554 S
C424 C425 1.367 . S
C425 C424 1.367 . S
C425 C427 1.433 . S
C426 C422 1.350 . S
C426 C423 1.463 . S
C426 N430 1.427 . S
C427 H417 0.929 . S
C427 C425 1.433 . S
C427 N430 1.384 1_554 S
C428 H419 0.929 . S
C428 C420 1.378 . S
C428 C423 1.350 . S
C429 H416 0.929 . S
C429 C421 1.433 . S
C429 N431 1.384 . S
N430 C426 1.427 . S
N430 C427 1.384 1_556 S
N431 C423 1.427 . S
N431 C429 1.384 . S
H432 C438 0.930 . S
H433 C442 0.930 . S
H434 C447 0.929 . S
H435 C445 0.929 . S
H436 C440 0.929 . S
H437 C446 0.929 . S
C438 H432 0.930 . S
C438 C439 1.367 . S
C438 C446 1.378 . S
C439 C438 1.367 . S
C439 C447 1.433 . S
C440 H436 0.929 . S
C440 C442 1.378 . S
C440 C444 1.350 . S
C441 C444 1.463 . S
C441 C446 1.350 . S
C441 N449 1.427 . S
C442 H433 0.930 . S
C442 C440 1.378 . S
C442 C443 1.367 . S
C443 C442 1.367 . S
C443 C445 1.433 . S
C444 C440 1.350 . S
C444 C441 1.463 . S
C444 N448 1.427 . S
C445 H435 0.929 . S
C445 C443 1.433 . S
C445 N448 1.384 . S
C446 H437 0.929 . S
C446 C438 1.378 . S
C446 C441 1.350 . S
C447 H434 0.929 . S
C447 C439 1.433 . S
C447 N449 1.384 . S
N448 C444 1.427 . S
N448 C445 1.384 . S
N449 C441 1.427 . S
N449 C447 1.384 . S
H450 C456 0.930 . S
H451 C460 0.930 . S
H452 C465 0.929 . S
H453 C463 0.929 . S
H454 C458 0.929 . S
H455 C464 0.929 . S
C456 H450 0.930 . S
C456 C457 1.367 . S
C456 C464 1.378 . S
C457 C456 1.367 . S
C457 C465 1.433 . S
C458 H454 0.929 . S
C458 C460 1.378 . S
C458 C462 1.350 . S
C459 C462 1.463 . S
C459 C464 1.350 . S
C459 N467 1.427 . S
C460 H451 0.930 . S
C460 C458 1.378 . S
C460 C461 1.367 . S
C461 C460 1.367 . S
C461 C463 1.433 . S
C462 C458 1.350 . S
C462 C459 1.463 . S
C462 N466 1.427 . S
C463 H453 0.929 . S
C463 C461 1.433 . S
C463 N466 1.384 . S
C464 H455 0.929 . S
C464 C456 1.378 . S
C464 C459 1.350 . S
C465 H452 0.929 . S
C465 C457 1.433 . S
C465 N467 1.384 . S
N466 C462 1.427 . S
N466 C463 1.384 . S
N467 C459 1.427 . S
N467 C465 1.384 . S
H468 C474 0.930 . S
H469 C478 0.930 . S
H470 C483 0.929 . S
H471 C481 0.929 . S
H472 C476 0.929 . S
H473 C482 0.929 . S
C474 H468 0.930 . S
C474 C475 1.367 . S
C474 C482 1.378 . S
C475 C474 1.367 . S
C475 C483 1.433 . S
C476 H472 0.929 . S
C476 C478 1.378 . S
C476 C480 1.350 . S
C477 C480 1.463 . S
C477 C482 1.350 . S
C477 N485 1.427 . S
C478 H469 0.930 . S
C478 C476 1.378 . S
C478 C479 1.367 1_554 S
C479 C478 1.367 1_556 S
C479 C481 1.433 . S
C480 C476 1.350 . S
C480 C477 1.463 . S
C480 N484 1.427 . S
C481 H471 0.929 . S
C481 C479 1.433 . S
C481 N484 1.384 1_556 S
C482 H473 0.929 . S
C482 C474 1.378 . S
C482 C477 1.350 . S
C483 H470 0.929 . S
C483 C475 1.433 . S
C483 N485 1.384 . S
N484 C480 1.427 . S
N484 C481 1.384 1_554 S
N485 C477 1.427 . S
N485 C483 1.384 . S
H486 C492 0.930 . S
H487 C496 0.927 1_556 S
H488 C501 0.929 . S
H489 C499 0.929 . S
H490 C494 0.929 . S
H491 C500 0.929 . S
C492 H486 0.930 . S
C492 C493 1.367 . S
C492 C500 1.378 . S
C493 C492 1.367 . S
C493 C501 1.433 . S
C494 H490 0.929 . S
C494 C496 1.378 . S
C494 C498 1.350 . S
C495 C498 1.463 . S
C495 C500 1.350 . S
C495 N503 1.427 . S
C496 H487 0.927 1_554 S
C496 C494 1.378 . S
C496 C497 1.367 1_554 S
C497 C496 1.367 1_556 S
C497 C499 1.433 . S
C498 C494 1.350 . S
C498 C495 1.463 . S
C498 N502 1.427 . S
C499 H489 0.929 . S
C499 C497 1.433 . S
C499 N502 1.384 1_556 S
C500 H491 0.929 . S
C500 C492 1.378 . S
C500 C495 1.350 . S
C501 H488 0.929 . S
C501 C493 1.433 . S
C501 N503 1.384 . S
N502 C498 1.427 . S
N502 C499 1.384 1_554 S
N503 C495 1.427 . S
N503 C501 1.384 . S
H504 C510 0.930 . S
H505 C514 0.930 . S
H506 C519 0.929 . S
H507 C517 0.929 . S
H508 C512 0.929 . S
H509 C518 0.929 . S
C510 H504 0.930 . S
C510 C511 1.367 . S
C510 C518 1.378 . S
C511 C510 1.367 . S
C511 C519 1.433 . S
C512 H508 0.929 . S
C512 C514 1.378 1_554 S
C512 C516 1.350 . S
C513 C516 1.463 . S
C513 C518 1.350 . S
C513 N521 1.427 . S
C514 H505 0.930 . S
C514 C512 1.378 1_556 S
C514 C515 1.367 . S
C515 C514 1.367 . S
C515 C517 1.433 1_556 S
C516 C512 1.350 . S
C516 C513 1.463 . S
C516 N520 1.427 . S
C517 H507 0.929 . S
C517 C515 1.433 1_554 S
C517 N520 1.384 . S
C518 H509 0.929 . S
C518 C510 1.378 . S
C518 C513 1.350 . S
C519 H506 0.929 . S
C519 C511 1.433 . S
C519 N521 1.384 . S
N520 C516 1.427 . S
N520 C517 1.384 . S
N521 C513 1.427 . S
N521 C519 1.384 . S
H522 C528 0.930 . S
H523 C532 0.930 1_556 S
H524 C537 0.929 1_556 S
H525 C535 0.929 . S
H526 C530 0.929 1_556 S
H527 C536 0.929 . S
C528 H522 0.930 . S
C528 C529 1.367 . S
C528 C536 1.378 . S
C529 C528 1.367 . S
C529 C537 1.433 . S
C530 H526 0.929 1_554 S
C530 C532 1.378 . S
C530 C534 1.350 . S
C531 C534 1.463 . S
C531 C536 1.350 . S
C531 N539 1.427 . S
C532 H523 0.930 1_554 S
C532 C530 1.378 . S
C532 C533 1.367 . S
C533 C532 1.367 . S
C533 C535 1.433 . S
C534 C530 1.350 . S
C534 C531 1.463 . S
C534 N538 1.427 . S
C535 H525 0.929 . S
C535 C533 1.433 . S
C535 N538 1.384 . S
C536 H527 0.929 . S
C536 C528 1.378 . S
C536 C531 1.350 . S
C537 H524 0.929 1_554 S
C537 C529 1.433 . S
C537 N539 1.384 . S
N538 C534 1.427 . S
N538 C535 1.384 . S
N539 C531 1.427 . S
N539 C537 1.384 . S
H540 C546 0.930 . S
H541 C550 0.930 . S
H542 C555 0.929 . S
H543 C553 0.929 . S
H544 C548 0.929 . S
H545 C554 0.929 . S
C546 H540 0.930 . S
C546 C547 1.367 . S
C546 C554 1.378 . S
C547 C546 1.367 . S
C547 C555 1.433 . S
C548 H544 0.929 . S
C548 C550 1.378 . S
C548 C552 1.350 . S
C549 C552 1.463 . S
C549 C554 1.350 . S
C549 N557 1.427 . S
C550 H541 0.930 . S
C550 C548 1.378 . S
C550 C551 1.367 . S
C551 C550 1.367 . S
C551 C553 1.433 . S
C552 C548 1.350 . S
C552 C549 1.463 . S
C552 N556 1.427 . S
C553 H543 0.929 . S
C553 C551 1.433 . S
C553 N556 1.384 . S
C554 H545 0.929 . S
C554 C546 1.378 . S
C554 C549 1.350 . S
C555 H542 0.929 . S
C555 C547 1.433 . S
C555 N557 1.384 . S
N556 C552 1.427 . S
N556 C553 1.384 . S
N557 C549 1.427 . S
N557 C555 1.384 . S
H558 C564 0.930 . S
H559 C568 0.930 . S
H560 C573 0.929 . S
H561 C571 0.929 . S
H562 C566 0.929 . S
H563 C572 0.929 . S
C564 H558 0.930 . S
C564 C565 1.367 . S
C564 C572 1.378 . S
C565 C564 1.367 . S
C565 C573 1.433 . S
C566 H562 0.929 . S
C566 C568 1.378 . S
C566 C570 1.350 . S
C567 C570 1.463 . S
C567 C572 1.350 . S
C567 N575 1.427 . S
C568 H559 0.930 . S
C568 C566 1.378 . S
C568 C569 1.367 . S
C569 C568 1.367 . S
C569 C571 1.433 . S
C570 C566 1.350 . S
C570 C567 1.463 . S
C570 N574 1.427 . S
C571 H561 0.929 . S
C571 C569 1.433 . S
C571 N574 1.384 . S
C572 H563 0.929 . S
C572 C564 1.378 . S
C572 C567 1.350 . S
C573 H560 0.929 . S
C573 C565 1.433 . S
C573 N575 1.384 . S
N574 C570 1.427 . S
N574 C571 1.384 . S
N575 C567 1.427 . S
N575 C573 1.384 . S
H576 C582 0.930 . S
H577 C586 0.930 . S
H578 C591 0.929 . S
H579 C589 0.929 . S
H580 C584 0.926 1_556 S
H581 C590 0.929 . S
C582 H576 0.930 . S
C582 C583 1.367 . S
C582 C590 1.378 . S
C583 C582 1.367 . S
C583 C591 1.433 . S
C584 H580 0.926 1_554 S
C584 C586 1.378 1_554 S
C584 C588 1.350 . S
C585 C588 1.463 . S
C585 C590 1.350 . S
C585 N593 1.427 . S
C586 H577 0.930 . S
C586 C584 1.378 1_556 S
C586 C587 1.369 . S
C587 C586 1.369 . S
C587 C589 1.429 1_556 S
C588 C584 1.350 . S
C588 C585 1.463 . S
C588 N592 1.427 . S
C589 H579 0.929 . S
C589 C587 1.429 1_554 S
C589 N592 1.384 . S
C590 H581 0.929 . S
C590 C582 1.378 . S
C590 C585 1.350 . S
C591 H578 0.929 . S
C591 C583 1.433 . S
C591 N593 1.384 . S
N592 C588 1.427 . S
N592 C589 1.384 . S
N593 C585 1.427 . S
N593 C591 1.384 . S
H594 C600 0.930 . S
H595 C604 0.961 1_554 S
H596 C609 0.929 . S
H597 C607 0.929 . S
H598 C602 0.929 . S
H599 C608 0.929 . S
C600 H594 0.930 . S
C600 C601 1.367 . S
C600 C608 1.378 . S
C601 C600 1.367 . S
C601 C609 1.433 . S
C602 H598 0.929 . S
C602 C604 1.367 1_655 S
C602 C606 1.350 . S
C603 C606 1.463 . S
C603 C608 1.350 . S
C603 N611 1.427 . S
C604 H595 0.961 1_556 S
C604 C602 1.367 1_455 S
C604 C605 1.357 . S
C605 C604 1.357 . S
C605 C607 1.424 1_455 S
C606 C602 1.350 . S
C606 C603 1.463 . S
C606 N610 1.427 . S
C607 H597 0.929 . S
C607 C605 1.424 1_655 S
C607 N610 1.384 . S
C608 H599 0.929 . S
C608 C600 1.378 . S
C608 C603 1.350 . S
C609 H596 0.929 . S
C609 C601 1.433 . S
C609 N611 1.384 . S
N610 C606 1.427 . S
N610 C607 1.384 . S
N611 C603 1.427 . S
N611 C609 1.384 . S
H612 C618 0.930 . S
H613 C622 0.930 . S
H614 C627 0.929 . S
H615 C625 0.929 . S
H616 C620 0.929 . S
H617 C626 0.929 . S
C618 H612 0.930 . S
C618 C619 1.367 . S
C618 C626 1.378 . S
C619 C618 1.367 . S
C619 C627 1.433 . S
C620 H616 0.929 . S
C620 C622 1.378 1_556 S
C620 C624 1.350 . S
C621 C624 1.463 . S
C621 C626 1.350 . S
C621 N629 1.427 . S
C622 H613 0.930 . S
C622 C620 1.378 1_554 S
C622 C623 1.367 . S
C623 C622 1.367 . S
C623 C625 1.433 . S
C624 C620 1.350 . S
C624 C621 1.463 . S
C624 N628 1.427 1_556 S
C625 H615 0.929 . S
C625 C623 1.433 . S
C625 N628 1.384 . S
C626 H617 0.929 . S
C626 C618 1.378 . S
C626 C621 1.350 . S
C627 H614 0.929 . S
C627 C619 1.433 . S
C627 N629 1.384 . S
N628 C624 1.427 1_554 S
N628 C625 1.384 . S
N629 C621 1.427 . S
N629 C627 1.384 . S
H630 C636 0.930 . S
H631 C640 0.930 . S
H632 C645 0.929 . S
H633 C643 0.929 1_554 S
H634 C638 0.929 . S
H635 C644 0.929 . S
C636 H630 0.930 . S
C636 C637 1.367 . S
C636 C644 1.378 . S
C637 C636 1.367 . S
C637 C645 1.433 . S
C638 H634 0.929 . S
C638 C640 1.378 . S
C638 C642 1.350 . S
C639 C642 1.463 . S
C639 C644 1.350 . S
C639 N647 1.427 . S
C640 H631 0.930 . S
C640 C638 1.378 . S
C640 C641 1.367 . S
C641 C640 1.367 . S
C641 C643 1.433 . S
C642 C638 1.350 . S
C642 C639 1.463 . S
C642 N646 1.427 . S
C643 H633 0.929 1_556 S
C643 C641 1.433 . S
C643 N646 1.384 . S
C644 H635 0.929 . S
C644 C636 1.378 . S
C644 C639 1.350 . S
C645 H632 0.929 . S
C645 C637 1.433 . S
C645 N647 1.384 . S
N646 C642 1.427 . S
N646 C643 1.384 . S
N647 C639 1.427 . S
N647 C645 1.384 . S
H648 C654 0.930 1_554 S
H649 C658 0.930 . S
H650 C663 0.929 . S
H651 C661 0.929 . S
H652 C656 0.929 . S
H653 C662 0.929 . S
C654 H648 0.930 1_556 S
C654 C655 1.367 1_556 S
C654 C662 1.378 . S
C655 C654 1.367 1_554 S
C655 C663 1.433 1_554 S
C656 H652 0.929 . S
C656 C658 1.378 . S
C656 C660 1.350 . S
C657 C660 1.463 . S
C657 C662 1.350 . S
C657 N665 1.427 . S
C658 H649 0.930 . S
C658 C656 1.378 . S
C658 C659 1.367 . S
C659 C658 1.367 . S
C659 C661 1.433 . S
C660 C656 1.350 . S
C660 C657 1.463 . S
C660 N664 1.427 . S
C661 H651 0.929 . S
C661 C659 1.433 . S
C661 N664 1.384 . S
C662 H653 0.929 . S
C662 C654 1.378 . S
C662 C657 1.350 . S
C663 H650 0.929 . S
C663 C655 1.433 1_556 S
C663 N665 1.384 . S
N664 C660 1.427 . S
N664 C661 1.384 . S
N665 C657 1.427 . S
N665 C663 1.384 . S
H666 C672 0.930 . S
H667 C676 0.930 . S
H668 C681 0.929 . S
H669 C679 0.929 . S
H670 C674 0.929 . S
H671 C680 0.929 . S
C672 H666 0.930 . S
C672 C673 1.367 . S
C672 C680 1.378 1_556 S
C673 C672 1.367 . S
C673 C681 1.433 . S
C674 H670 0.929 . S
C674 C676 1.378 . S
C674 C678 1.350 . S
C675 C678 1.463 . S
C675 C680 1.350 . S
C675 N683 1.427 . S
C676 H667 0.930 . S
C676 C674 1.378 . S
C676 C677 1.367 . S
C677 C676 1.367 . S
C677 C679 1.433 . S
C678 C674 1.350 . S
C678 C675 1.463 . S
C678 N682 1.427 . S
C679 H669 0.929 . S
C679 C677 1.433 . S
C679 N682 1.384 . S
C680 H671 0.929 . S
C680 C672 1.378 1_554 S
C680 C675 1.350 . S
C681 H668 0.929 . S
C681 C673 1.433 . S
C681 N683 1.384 1_556 S
N682 C678 1.427 . S
N682 C679 1.384 . S
N683 C675 1.427 . S
N683 C681 1.384 1_554 S
H684 C690 0.930 . S
H685 C694 0.930 . S
H686 C699 0.929 . S
H687 C697 0.929 . S
H688 C692 0.929 . S
H689 C698 0.929 . S
C690 H684 0.930 . S
C690 C691 1.367 1_565 S
C690 C698 1.378 . S
C691 C690 1.367 1_545 S
C691 C699 1.433 . S
C692 H688 0.929 . S
C692 C694 1.378 . S
C692 C696 1.350 . S
C693 C696 1.463 . S
C693 C698 1.350 . S
C693 N701 1.427 . S
C694 H685 0.930 . S
C694 C692 1.378 . S
C694 C695 1.367 . S
C695 C694 1.367 . S
C695 C697 1.433 . S
C696 C692 1.350 . S
C696 C693 1.463 . S
C696 N700 1.427 . S
C697 H687 0.929 . S
C697 C695 1.433 . S
C697 N700 1.384 . S
C698 H689 0.929 . S
C698 C690 1.378 . S
C698 C693 1.350 . S
C699 H686 0.929 . S
C699 C691 1.433 . S
C699 N701 1.384 1_545 S
N700 C696 1.427 . S
N700 C697 1.384 . S
N701 C693 1.427 . S
N701 C699 1.384 1_565 S
H702 C708 0.930 . S
H703 C712 0.930 1_556 S
H704 C717 0.929 . S
H705 C715 0.929 . S
H706 C710 0.929 1_556 S
H707 C716 0.929 . S
C708 H702 0.930 . S
C708 C709 1.367 . S
C708 C716 1.378 . S
C709 C708 1.367 . S
C709 C717 1.433 . S
C710 H706 0.929 1_554 S
C710 C712 1.378 . S
C710 C714 1.350 . S
C711 C714 1.463 . S
C711 C716 1.350 . S
C711 N719 1.427 . S
C712 H703 0.930 1_554 S
C712 C710 1.378 . S
C712 C713 1.367 . S
C713 C712 1.367 . S
C713 C715 1.433 . S
C714 C710 1.350 . S
C714 C711 1.463 . S
C714 N718 1.427 . S
C715 H705 0.929 . S
C715 C713 1.433 . S
C715 N718 1.384 . S
C716 H707 0.929 . S
C716 C708 1.378 . S
C716 C711 1.350 . S
C717 H704 0.929 . S
C717 C709 1.433 . S
C717 N719 1.384 . S
N718 C714 1.427 . S
N718 C715 1.384 . S
N719 C711 1.427 . S
N719 C717 1.384 . S
H720 C726 0.930 . S
H721 C730 0.930 . S
H722 C735 0.929 . S
H723 C733 0.929 . S
H724 C728 0.929 . S
H725 C734 0.929 . S
C726 H720 0.930 . S
C726 C727 1.367 . S
C726 C734 1.378 . S
C727 C726 1.367 . S
C727 C735 1.433 . S
C728 H724 0.929 . S
C728 C730 1.378 . S
C728 C732 1.350 . S
C729 C732 1.463 . S
C729 C734 1.350 . S
C729 N737 1.427 . S
C730 H721 0.930 . S
C730 C728 1.378 . S
C730 C731 1.367 . S
C731 C730 1.367 . S
C731 C733 1.433 . S
C732 C728 1.350 . S
C732 C729 1.463 . S
C732 N736 1.427 . S
C733 H723 0.929 . S
C733 C731 1.433 . S
C733 N736 1.384 . S
C734 H725 0.929 . S
C734 C726 1.378 . S
C734 C729 1.350 . S
C735 H722 0.929 . S
C735 C727 1.433 . S
C735 N737 1.384 . S
N736 C732 1.427 . S
N736 C733 1.384 . S
N737 C729 1.427 . S
N737 C735 1.384 . S
H738 C744 0.930 . S
H739 C748 0.930 . S
H740 C753 0.929 . S
H741 C751 0.929 . S
H742 C746 0.929 . S
H743 C752 0.929 . S
C744 H738 0.930 . S
C744 C745 1.367 . S
C744 C752 1.378 . S
C745 C744 1.367 . S
C745 C753 1.433 . S
C746 H742 0.929 . S
C746 C748 1.378 . S
C746 C750 1.350 . S
C747 C750 1.463 . S
C747 C752 1.350 . S
C747 N755 1.427 . S
C748 H739 0.930 . S
C748 C746 1.378 . S
C748 C749 1.367 . S
C749 C748 1.367 . S
C749 C751 1.433 . S
C750 C746 1.350 . S
C750 C747 1.463 . S
C750 N754 1.427 . S
C751 H741 0.929 . S
C751 C749 1.433 . S
C751 N754 1.384 . S
C752 H743 0.929 . S
C752 C744 1.378 . S
C752 C747 1.350 . S
C753 H740 0.929 . S
C753 C745 1.433 . S
C753 N755 1.384 . S
N754 C750 1.427 . S
N754 C751 1.384 . S
N755 C747 1.427 . S
N755 C753 1.384 . S
H756 C762 0.930 . S
H757 C766 0.930 . S
H758 C771 0.929 . S
H759 C769 0.929 . S
H760 C764 0.929 . S
H761 C770 0.929 . S
C762 H756 0.930 . S
C762 C763 1.367 . S
C762 C770 1.378 . S
C763 C762 1.367 . S
C763 C771 1.433 . S
C764 H760 0.929 . S
C764 C766 1.378 . S
C764 C768 1.350 . S
C765 C768 1.463 1_545 S
C765 C770 1.350 . S
C765 N773 1.427 . S
C766 H757 0.930 . S
C766 C764 1.378 . S
C766 C767 1.367 . S
C767 C766 1.367 . S
C767 C769 1.433 . S
C768 C764 1.350 . S
C768 C765 1.463 1_565 S
C768 N772 1.427 . S
C769 H759 0.929 . S
C769 C767 1.433 . S
C769 N772 1.384 . S
C770 H761 0.929 . S
C770 C762 1.378 . S
C770 C765 1.350 . S
C771 H758 0.929 . S
C771 C763 1.433 . S
C771 N773 1.384 . S
N772 C768 1.427 . S
N772 C769 1.384 . S
N773 C765 1.427 . S
N773 C771 1.384 . S
H774 C780 0.930 . S
H775 C784 0.930 . S
H776 C789 0.929 . S
H777 C787 0.929 . S
H778 C782 0.929 . S
H779 C788 0.920 . S
C780 H774 0.930 . S
C780 C781 1.367 1_655 S
C780 C788 1.378 1_655 S
C781 C780 1.367 1_455 S
C781 C789 1.433 . S
C782 H778 0.929 . S
C782 C784 1.378 . S
C782 C786 1.350 . S
C783 C786 1.463 . S
C783 C788 1.350 . S
C783 N791 1.427 . S
C784 H775 0.930 . S
C784 C782 1.378 . S
C784 C785 1.367 . S
C785 C784 1.367 . S
C785 C787 1.433 . S
C786 C782 1.350 . S
C786 C783 1.463 . S
C786 N790 1.427 . S
C787 H777 0.929 . S
C787 C785 1.433 . S
C787 N790 1.384 . S
C788 H779 0.920 . S
C788 C780 1.378 1_455 S
C788 C783 1.350 . S
C789 H776 0.929 . S
C789 C781 1.433 . S
C789 N791 1.384 . S
N790 C786 1.427 . S
N790 C787 1.384 . S
N791 C783 1.427 . S
N791 C789 1.384 . S
H792 C798 0.930 . S
H793 C802 0.930 . S
H794 C807 0.929 . S
H795 C805 0.929 . S
H796 C800 0.929 . S
H797 C806 0.929 . S
C798 H792 0.930 . S
C798 C799 1.367 . S
C798 C806 1.378 . S
C799 C798 1.367 . S
C799 C807 1.433 . S
C800 H796 0.929 . S
C800 C802 1.378 . S
C800 C804 1.350 . S
C801 C804 1.463 . S
C801 C806 1.350 . S
C801 N809 1.427 . S
C802 H793 0.930 . S
C802 C800 1.378 . S
C802 C803 1.367 . S
C803 C802 1.367 . S
C803 C805 1.433 . S
C804 C800 1.350 . S
C804 C801 1.463 . S
C804 N808 1.427 . S
C805 H795 0.929 . S
C805 C803 1.433 . S
C805 N808 1.384 . S
C806 H797 0.929 . S
C806 C798 1.378 . S
C806 C801 1.350 . S
C807 H794 0.929 . S
C807 C799 1.433 . S
C807 N809 1.384 . S
N808 C804 1.427 . S
N808 C805 1.384 . S
N809 C801 1.427 . S
N809 C807 1.384 . S
H810 C816 0.930 . S
H811 C820 0.930 . S
H812 C825 0.929 . S
H813 C823 0.929 . S
H814 C818 0.929 . S
H815 C824 0.929 . S
C816 H810 0.930 . S
C816 C817 1.367 . S
C816 C824 1.378 . S
C817 C816 1.367 . S
C817 C825 1.433 . S
C818 H814 0.929 . S
C818 C820 1.378 . S
C818 C822 1.350 . S
C819 C822 1.463 1_565 S
C819 C824 1.350 . S
C819 N827 1.427 . S
C820 H811 0.930 . S
C820 C818 1.378 . S
C820 C821 1.367 . S
C821 C820 1.367 . S
C821 C823 1.433 . S
C822 C818 1.350 . S
C822 C819 1.463 1_545 S
C822 N826 1.427 . S
C823 H813 0.929 . S
C823 C821 1.433 . S
C823 N826 1.384 . S
C824 H815 0.929 . S
C824 C816 1.378 . S
C824 C819 1.350 . S
C825 H812 0.929 . S
C825 C817 1.433 . S
C825 N827 1.384 . S
N826 C822 1.427 . S
N826 C823 1.384 . S
N827 C819 1.427 . S
N827 C825 1.384 . S
H828 C834 0.930 . S
H829 C838 0.930 . S
H830 C843 0.929 . S
H831 C841 0.929 . S
H832 C836 0.929 . S
H833 C842 0.929 . S
C834 H828 0.930 . S
C834 C835 1.367 . S
C834 C842 1.378 . S
C835 C834 1.367 . S
C835 C843 1.433 . S
C836 H832 0.929 . S
C836 C838 1.378 . S
C836 C840 1.350 . S
C837 C840 1.463 . S
C837 C842 1.350 . S
C837 N845 1.427 . S
C838 H829 0.930 . S
C838 C836 1.378 . S
C838 C839 1.367 . S
C839 C838 1.367 . S
C839 C841 1.433 . S
C840 C836 1.350 . S
C840 C837 1.463 . S
C840 N844 1.427 . S
C841 H831 0.929 . S
C841 C839 1.433 . S
C841 N844 1.384 . S
C842 H833 0.929 . S
C842 C834 1.378 . S
C842 C837 1.350 . S
C843 H830 0.929 . S
C843 C835 1.433 . S
C843 N845 1.384 . S
N844 C840 1.427 . S
N844 C841 1.384 . S
N845 C837 1.427 . S
N845 C843 1.384 . S
C367 C23 1.142 . S
C371 C2 1.142 . S
C385 C42 1.223 . S
C389 C63 1.223 . S
C403 C103 1.297 1_556 S
C407 C82 1.297 . S
C421 C122 1.141 . S
C425 C143 1.141 . S
C439 C183 1.223 . S
C443 C162 1.223 1_556 S
C457 C202 1.297 . S
C461 C223 1.297 . S
C475 C271 1.052 . S
C479 C260 1.052 . S
C493 C300 1.016 . S
C497 C311 1.016 . S
C511 C351 1.138 . S
C515 C340 1.138 . S
C529 C231 1.919 . S
C533 C25 1.918 . S
C547 C71 2.546 . S
C551 C151 2.542 . S
C565 C105 1.358 . S
C569 C185 1.372 . S
C583 C111 1.604 . S
C587 C244 1.659 . S
C601 C303 1.641 . S
C605 C31 1.653 . S
C619 C324 1.362 . S
C623 C65 1.368 . S
C637 C322 1.329 . S
C641 C4 1.333 . S
C655 C60 1.750 . S
C659 C242 1.704 . S
C673 C305 1.678 . S
C677 C84 1.570 . S
C691 C100 1.920 . S
C695 C124 1.918 . S
C709 C180 2.545 . S
C713 C20 2.540 . S
C727 C44 1.375 . S
C731 C204 1.359 . S
C745 C343 1.333 . S
C749 C145 1.331 . S
C763 C263 1.715 . S
C767 C191 1.754 . S
C781 C284 1.675 1_455 S
C785 C225 1.566 . S
C799 C265 1.659 . S
C803 C220 1.608 . S
C817 C140 1.645 . S
C821 C282 1.642 . S
C835 C345 1.424 . S
C839 C164 1.371 . S
