# Generated by pormake.
# Topology fcu, (12)-cn, num edge types: 1
# Building blocks:
#     Node 0, Type 0, BuildingBlock: QEWDON_clean_sbu_0, # of connection points: 12
#     Node 1, Type 0, BuildingBlock: QEWDON_clean_sbu_0, # of connection points: 12
#     Node 2, Type 0, BuildingBlock: QEWDON_clean_sbu_0, # of connection points: 12
#     Node 3, Type 0, BuildingBlock: QEWDON_clean_sbu_0, # of connection points: 12
#     Edge 4, Type (0, 0), BuildingBlock: XUDNAN_clean_linker_2, # of connection points: 2
#     Edge 5, Type (0, 0), BuildingBlock: XUDNAN_clean_linker_2, # of connection points: 2
#     Edge 6, Type (0, 0), BuildingBlock: XUDNAN_clean_linker_2, # of connection points: 2
#     Edge 7, Type (0, 0), BuildingBlock: XUDNAN_clean_linker_2, # of connection points: 2
#     Edge 8, Type (0, 0), BuildingBlock: XUDNAN_clean_linker_2, # of connection points: 2
#     Edge 9, Type (0, 0), BuildingBlock: XUDNAN_clean_linker_2, # of connection points: 2
#     Edge 10, Type (0, 0), BuildingBlock: XUDNAN_clean_linker_2, # of connection points: 2
#     Edge 11, Type (0, 0), BuildingBlock: XUDNAN_clean_linker_2, # of connection points: 2
#     Edge 12, Type (0, 0), BuildingBlock: XUDNAN_clean_linker_2, # of connection points: 2
#     Edge 13, Type (0, 0), BuildingBlock: XUDNAN_clean_linker_2, # of connection points: 2
#     Edge 14, Type (0, 0), BuildingBlock: XUDNAN_clean_linker_2, # of connection points: 2
#     Edge 15, Type (0, 0), BuildingBlock: XUDNAN_clean_linker_2, # of connection points: 2
#     Edge 16, Type (0, 0), BuildingBlock: XUDNAN_clean_linker_2, # of connection points: 2
#     Edge 17, Type (0, 0), BuildingBlock: XUDNAN_clean_linker_2, # of connection points: 2
#     Edge 18, Type (0, 0), BuildingBlock: XUDNAN_clean_linker_2, # of connection points: 2
#     Edge 19, Type (0, 0), BuildingBlock: XUDNAN_clean_linker_2, # of connection points: 2
#     Edge 20, Type (0, 0), BuildingBlock: XUDNAN_clean_linker_2, # of connection points: 2
#     Edge 21, Type (0, 0), BuildingBlock: XUDNAN_clean_linker_2, # of connection points: 2
#     Edge 22, Type (0, 0), BuildingBlock: XUDNAN_clean_linker_2, # of connection points: 2
#     Edge 23, Type (0, 0), BuildingBlock: XUDNAN_clean_linker_2, # of connection points: 2
#     Edge 24, Type (0, 0), BuildingBlock: XUDNAN_clean_linker_2, # of connection points: 2
#     Edge 25, Type (0, 0), BuildingBlock: XUDNAN_clean_linker_2, # of connection points: 2
#     Edge 26, Type (0, 0), BuildingBlock: XUDNAN_clean_linker_2, # of connection points: 2
#     Edge 27, Type (0, 0), BuildingBlock: XUDNAN_clean_linker_2, # of connection points: 2
# Relax obj value: 0.042
# Max RMSD: 0.120
# Mean RMSD: 0.109
data_MOF--net-fcu--node1-QEWDON_clean_sbu_0--edge1-XUDNAN_clean_linker_2
_symmetry_space_group_name_H-M    P1
_symmetry_Int_Tables_number       1
_symmetry_cell_setting            triclinic
loop_
_symmetry_equiv_pos_as_xyz
'x, y, z'
_cell_length_a     27.93972
_cell_length_b     27.637097
_cell_length_c     27.742334
_cell_angle_alpha  90.156708
_cell_angle_beta   89.645959
_cell_angle_gamma 90.305608
loop_
_atom_site_label
_atom_site_type_symbol
_atom_site_fract_x
_atom_site_fract_y
_atom_site_fract_z
_atom_type_partial_charge
Zn0 Zn 0.90044 0.88265 0.96721 0.0
Zn1 Zn 0.90812 0.88375 0.08723 0.0
O2 O 0.89978 0.92497 0.02717 0.0
H3 H 0.88268 0.95507 0.02476 0.0
C4 C -0.00109 0.87249 0.88136 0.0
O5 O 0.00277 0.91979 0.87827 0.0
Zn6 Zn 0.04648 0.09041 0.07358 0.0
Zn7 Zn 0.07036 0.10024 0.95968 0.0
O8 O 0.06087 0.05199 0.01368 0.0
H9 H 0.05154 0.01871 0.00832 0.0
Zn10 Zn 0.05247 0.89055 0.97136 0.0
O11 O 0.01981 0.92305 0.02856 0.0
Zn12 Zn 0.06947 0.92919 0.08068 0.0
H13 H -0.00793 0.94352 0.02603 0.0
Zn14 Zn 0.88485 0.05814 0.95956 0.0
O15 O 0.92238 0.03881 0.01931 0.0
H16 H 0.95303 0.02284 0.01817 0.0
Zn17 Zn 0.87843 0.04295 0.07769 0.0
C18 C 0.95754 0.1072 0.89589 0.0
O19 O -0.01183 0.0798 0.91874 0.0
O20 O 0.90179 0.81082 0.98691 0.0
O21 O 0.8986 0.81431 0.06747 0.0
O22 O 0.05909 0.17034 0.98135 0.0
O23 O 0.05185 0.162 0.06099 0.0
O24 O 0.12078 0.86818 0.98661 0.0
O25 O 0.13154 0.89785 0.0605 0.0
C26 C 0.85103 0.95016 0.13941 0.0
O27 O 0.81535 0.07297 0.97656 0.0
O28 O 0.81294 0.0669 0.05666 0.0
O29 O 0.12087 0.08482 0.90579 0.0
C30 C 0.89927 0.79028 0.02804 0.0
O31 O 0.85726 0.90353 0.90823 0.0
C32 C 0.09666 0.02468 0.1289 0.0
O33 O 0.01516 0.85152 0.91854 0.0
C34 C 0.05383 0.1884 0.02337 0.0
O35 O 0.91336 0.10402 0.90651 0.0
C36 C 0.00539 0.88039 0.14516 0.0
O37 O 0.86089 0.90526 0.13928 0.0
O38 O 0.87211 0.97632 0.10794 0.0
C39 C 0.14667 0.87443 0.0238 0.0
O40 O 0.09009 0.07001 0.12768 0.0
O41 O 0.07784 -0.00073 0.0958 0.0
C42 C 0.95264 0.09832 0.12319 0.0
O43 O 0.04812 0.89525 0.1402 0.0
O44 O -0.02421 0.8907 0.11194 0.0
C45 C 0.79288 0.07621 0.01649 0.0
O46 O 0.90797 0.08946 0.12523 0.0
O47 O -0.0219 0.07677 0.09181 0.0
C48 C 0.12167 0.04101 0.89192 0.0
O49 O 0.09116 0.01032 0.91142 0.0
C50 C 0.86337 0.94513 0.88948 0.0
O51 O 0.89715 0.97333 0.90687 0.0
Zn52 Zn 0.88351 0.43219 0.39009 0.0
Zn53 Zn 0.88522 0.54673 0.4144 0.0
O54 O 0.92669 0.48858 0.4049 0.0
H55 H 0.95985 0.48853 0.39503 0.0
C56 C 0.86386 0.3929 0.53576 0.0
O57 O 0.87379 0.42967 0.50743 0.0
Zn58 Zn 0.06123 0.56654 0.57931 0.0
Zn59 Zn 0.05528 0.4505 0.60401 0.0
O60 O 0.01591 0.51169 0.59437 0.0
H61 H 0.03097 0.48071 0.59905 0.0
Zn62 Zn 0.90403 0.4568 0.60875 0.0
O63 O 0.9278 0.50724 0.56113 0.0
Zn64 Zn 0.9153 0.56993 0.59445 0.0
H65 H 0.94336 0.50179 0.53042 0.0
Zn66 Zn 0.04441 0.43663 0.4098 0.0
O67 O 0.03434 0.49845 0.44802 0.0
H68 H 0.0156 0.50034 0.47733 0.0
Zn69 Zn 0.04551 0.55262 0.40124 0.0
C70 C 0.07373 0.37569 0.49164 0.0
O71 O 0.06633 0.41565 0.51619 0.0
O72 O 0.81515 0.45485 0.37442 0.0
O73 O 0.81558 0.53223 0.39722 0.0
O74 O 0.12546 0.46862 0.61351 0.0
O75 O 0.12582 0.549 0.60625 0.0
O76 O 0.85264 0.48437 0.65477 0.0
O77 O 0.85896 0.56312 0.63977 0.0
C78 C 0.95114 0.60586 0.3621 0.0
O79 O 0.08446 0.44882 0.34881 0.0
O80 O 0.08707 0.52921 0.3441 0.0
O81 O 0.03796 0.39646 0.65406 0.0
C82 C 0.79393 0.4953 0.37977 0.0
O83 O 0.91316 0.37904 0.3461 0.0
C84 C -0.00443 0.63006 0.62845 0.0
O85 O 0.87749 0.39416 0.57932 0.0
C86 C 0.14676 0.5093 0.61628 0.0
O87 O 0.06543 0.37522 0.44667 0.0
C88 C 0.88058 0.60817 0.50302 0.0
O89 O 0.9066 0.59937 0.3686 0.0
O90 O -0.02038 0.57694 0.38296 0.0
C91 C 0.83879 0.5277 0.66099 0.0
O92 O 0.03689 0.62913 0.60903 0.0
O93 O 0.97307 0.5904 0.63345 0.0
C94 C 0.08376 0.60842 0.48133 0.0
O95 O 0.89155 0.61808 0.54642 0.0
O96 O 0.89717 0.57044 0.48284 0.0
C97 C 0.09925 0.48736 0.32841 0.0
O98 O 0.07965 0.60591 0.43577 0.0
O99 O 0.06664 0.57454 0.50731 0.0
C100 C 0.00536 0.36419 0.65475 0.0
O101 O 0.97275 0.36345 0.62088 0.0
C102 C 0.94803 0.35254 0.35862 0.0
O103 O 0.96597 0.35747 0.40202 0.0
Zn104 Zn 0.38716 0.92256 0.44948 0.0
Zn105 Zn 0.4027 0.90452 0.5648 0.0
O106 O 0.40232 0.95669 0.51343 0.0
H107 H 0.41417 0.98939 0.51705 0.0
C108 C 0.50562 0.8687 0.40142 0.0
O109 O 0.49205 0.85814 0.44561 0.0
Zn110 Zn 0.55694 0.08644 0.58724 0.0
Zn111 Zn 0.55519 0.07794 0.46836 0.0
O112 O 0.53922 0.04263 0.53181 0.0
H113 H 0.50989 0.02436 0.53519 0.0
Zn114 Zn 0.57905 0.92377 0.45354 0.0
O115 O 0.543 0.94337 0.51463 0.0
Zn116 Zn 0.58221 0.92124 0.5706 0.0
H117 H 0.50846 0.94458 0.51461 0.0
Zn118 Zn 0.3867 0.10258 0.49131 0.0
O119 O 0.42983 0.08534 0.54636 0.0
H120 H 0.46256 0.09653 0.54537 0.0
Zn121 Zn 0.38908 0.07797 0.60567 0.0
C122 C 0.44496 0.14719 0.41067 0.0
O123 O 0.46282 0.10381 0.40383 0.0
O124 O 0.34917 0.86184 0.46637 0.0
O125 O 0.36135 0.84658 0.544 0.0
O126 O 0.58326 0.14455 0.48109 0.0
O127 O 0.58812 0.14822 0.5611 0.0
O128 O 0.63566 0.87847 0.46652 0.0
O129 O 0.63183 0.87341 0.54658 0.0
C130 C 0.36155 0.97069 0.63904 0.0
O131 O 0.31982 0.12082 0.51593 0.0
O132 O 0.32478 0.11212 0.59559 0.0
O133 O 0.58676 0.04942 0.40498 0.0
C134 C 0.34067 0.83716 0.5041 0.0
O135 O 0.34737 0.95516 0.39424 0.0
C136 C 0.62704 0.0133 0.63457 0.0
O137 O 0.53994 0.89848 0.39514 0.0
C138 C 0.59595 0.16631 0.51938 0.0
O139 O 0.41403 0.15378 0.44379 0.0
C140 C 0.49706 0.87381 0.61551 0.0
O141 O 0.36907 0.92795 0.62396 0.0
O142 O 0.37978 0.00573 0.6153 0.0
C143 C 0.64961 0.86044 0.5061 0.0
O144 O 0.60786 0.05465 0.62829 0.0
O145 O 0.61234 0.97588 0.61166 0.0
C146 C 0.46968 0.1191 0.66103 0.0
O147 O 0.54191 0.88164 0.6157 0.0
O148 O 0.47208 0.89251 0.58216 0.0
C149 C 0.3019 0.12528 0.55805 0.0
O150 O 0.42474 0.11056 0.6604 0.0
O151 O 0.49587 0.10136 0.62739 0.0
C152 C 0.62124 0.01963 0.4014 0.0
O153 O 0.63758 -0.00123 0.4404 0.0
C154 C 0.30341 0.95985 0.40553 0.0
O155 O 0.29064 0.95191 0.45049 0.0
Zn156 Zn 0.4438 0.53951 0.03826 0.0
Zn157 Zn 0.444 0.56713 0.92536 0.0
O158 O 0.47176 0.5218 0.9717 0.0
H159 H 0.48431 0.49217 0.95881 0.0
C160 C 0.49985 0.64944 0.1287 0.0
O161 O 0.48246 0.6053 0.12737 0.0
Zn162 Zn 0.54182 0.41345 0.93649 0.0
Zn163 Zn 0.52857 0.41429 0.04863 0.0
O164 O 0.55252 0.45611 0.99449 0.0
H165 H 0.57855 0.47893 0.99836 0.0
Zn166 Zn 0.55468 0.60901 0.04908 0.0
O167 O 0.52264 0.60714 0.98427 0.0
Zn168 Zn 0.57203 0.58715 0.93519 0.0
H169 H 0.49582 0.62797 0.97783 0.0
Zn170 Zn 0.39238 0.39204 0.05372 0.0
O171 O 0.42053 0.43676 1.00356 0.0
H172 H 0.45497 0.43604 1.00406 0.0
Zn173 Zn 0.37506 0.4287 0.94749 0.0
C174 C 0.4513 0.34186 0.12588 0.0
O175 O 0.45902 0.31236 0.08949 0.0
O176 O 0.41475 0.60718 0.03495 0.0
O177 O 0.39677 0.61293 0.95716 0.0
O178 O 0.54255 0.34374 0.0304 0.0
O179 O 0.56619 0.34658 0.95341 0.0
O180 O 0.62661 0.59566 0.04428 0.0
O181 O 0.63759 0.59055 0.96471 0.0
C182 C 0.37988 0.50288 0.8711 0.0
O183 O 0.31966 0.38649 0.0499 0.0
O184 O 0.31027 0.40921 0.97379 0.0
O185 O 0.55199 0.43454 0.11681 0.0
C186 C 0.39323 0.62803 1.00058 0.0
O187 O 0.39646 0.49639 0.08024 0.0
C188 C 0.57829 0.49266 0.88071 0.0
O189 O 0.53225 0.66113 0.09857 0.0
C190 C 0.55975 0.32335 0.99285 0.0
O191 O 0.42576 0.37915 0.11929 0.0
C192 C 0.52104 0.63417 0.86597 0.0
O193 O 0.41632 0.53 0.87269 0.0
O194 O 0.35944 0.49017 0.91013 0.0
C195 C 0.65388 0.59079 0.00762 0.0
O196 O 0.57349 0.44679 0.88014 0.0
O197 O 0.56274 0.51668 0.91666 0.0
C198 C 0.44689 0.37513 0.8977 0.0
O199 O 0.56468 0.63213 0.87825 0.0
O200 O 0.49103 0.60828 0.88886 0.0
C201 C 0.29291 0.39552 0.01415 0.0
O202 O 0.40157 0.37748 0.90176 0.0
O203 O 0.47175 0.40518 0.92201 0.0
C204 C 0.55394 0.47816 0.13143 0.0
O205 O 0.53827 0.51276 0.10334 0.0
C206 C 0.3782 0.52122 0.11441 0.0
O207 O 0.39377 0.56555 0.12106 0.0
H208 H 0.93206 0.19352 0.12359 0.0
H209 H 0.01571 0.08504 0.19643 0.0
H210 H 0.03531 0.14422 0.26084 0.0
H211 H 0.01085 0.30141 0.16227 0.0
H212 H 0.9588 0.33942 0.16701 0.0
H213 H 0.96113 0.29206 0.12221 0.0
H214 H 0.88133 0.25693 0.15573 0.0
H215 H 0.8791 0.3034 0.20095 0.0
H216 H 0.8772 0.24066 0.21855 0.0
H217 H 0.03205 0.2104 0.32423 0.0
H218 H 0.00903 0.27753 0.37866 0.0
H219 H 0.92805 0.34258 0.26296 0.0
C220 C 0.95607 0.18308 0.15221 0.0
C221 C 0.97303 0.13536 0.15515 0.0
C222 C 0.00338 0.12198 0.19336 0.0
C223 C 0.01455 0.15533 0.23002 0.0
C224 C -0.00424 0.20197 0.22713 0.0
C225 C 0.96804 0.21611 0.18849 0.0
C226 C 0.94828 0.26644 0.19583 0.0
C227 C 0.97113 0.30194 0.1597 0.0
C228 C 0.89325 0.26681 0.19261 0.0
C229 C 0.96526 0.27667 0.24649 0.0
C230 C -0.00614 0.23986 0.26351 0.0
C231 C 0.01054 0.23986 0.31085 0.0
C232 C -0.00292 0.27803 0.3416 0.0
C233 C 0.9665 0.31514 0.32511 0.0
C234 C 0.95146 0.31477 0.27663 0.0
H235 H 0.8053 0.90188 0.21304 0.0
H236 H 0.81513 0.04274 0.14506 0.0
H237 H 0.75245 0.07343 0.20017 0.0
H238 H 0.67697 0.90292 0.2374 0.0
H239 H 0.68259 0.87371 0.29506 0.0
H240 H 0.72553 0.86165 0.24786 0.0
H241 H 0.79465 0.88715 0.30452 0.0
H242 H 0.75196 0.89885 0.35192 0.0
H243 H 0.79309 0.94576 0.3332 0.0
H244 H 0.68731 0.08827 0.2624 0.0
H245 H 0.63367 0.08985 0.33352 0.0
H246 H 0.67154 0.94155 0.36608 0.0
C247 C 0.79414 0.93916 0.20946 0.0
C248 C 0.81457 0.96964 0.17371 0.0
C249 C 0.79942 0.01837 0.17113 0.0
C250 C 0.76379 0.03613 0.20245 0.0
C251 C 0.74404 0.00492 0.23679 0.0
C252 C 0.7592 0.95763 0.24096 0.0
C253 C 0.73429 0.93234 0.2828 0.0
C254 C 0.703 0.89016 0.26469 0.0
C255 C 0.77067 0.91504 0.32033 0.0
C256 C 0.70365 0.97319 0.30234 0.0
C257 C 0.7088 0.01431 0.27443 0.0
C258 C 0.68326 0.05636 0.28461 0.0
C259 C 0.65264 0.05681 0.32496 0.0
C260 C 0.64856 0.0159 0.35545 0.0
C261 C 0.67413 0.97342 0.34356 0.0
H262 H 0.93719 0.80689 0.15493 0.0
H263 H 0.05109 0.88219 0.23048 0.0
H264 H 0.0497 0.82021 0.29369 0.0
H265 H 0.87253 0.76554 0.26593 0.0
H266 H 0.85675 0.70789 0.23986 0.0
H267 H 0.86319 0.76032 0.20184 0.0
H268 H 0.92609 0.71546 0.14915 0.0
H269 H 0.91907 0.66271 0.18653 0.0
H270 H -0.0225 0.68916 0.17742 0.0
H271 H 0.04557 0.74411 0.34193 0.0
H272 H 0.02628 0.66628 0.38183 0.0
H273 H 0.9113 0.6422 0.28023 0.0
C274 C 0.96057 0.81116 0.18558 0.0
C275 C -0.0056 0.84936 0.18747 0.0
C276 C 0.02502 0.85313 0.22797 0.0
C277 C 0.0247 0.81797 0.26412 0.0
C278 C -0.00701 0.77933 0.25995 0.0
C279 C 0.96045 0.77628 0.22259 0.0
C280 C 0.93103 0.73008 0.22659 0.0
C281 C 0.87771 0.74167 0.23401 0.0
C282 C 0.93886 0.69742 0.18229 0.0
C283 C 0.95265 0.70771 0.27141 0.0
C284 C -0.01108 0.73637 0.28958 0.0
C285 C 0.01661 0.72171 0.32862 0.0
C286 C 0.00593 0.67721 0.35069 0.0
C287 C 0.96747 0.64838 0.33413 0.0
C288 C 0.9408 0.66378 0.29376 0.0
H289 H 0.31445 0.97492 0.30699 0.0
H290 H 0.20696 0.96045 0.41993 0.0
H291 H 0.14333 0.96683 0.35958 0.0
H292 H 0.25239 0.06345 0.23819 0.0
H293 H 0.27021 0.03941 0.18036 0.0
H294 H 0.30777 0.03073 0.23206 0.0
H295 H 0.30528 0.9381 0.21749 0.0
H296 H 0.26707 0.94652 0.16608 0.0
H297 H 0.2483 0.90736 0.21453 0.0
H298 H 0.0907 0.97555 0.2882 0.0
H299 H 0.0526 -0.00375 0.21072 0.0
H300 H 0.19231 0.00821 0.14314 0.0
C301 C 0.27753 0.97319 0.31898 0.0
C302 C 0.26591 0.96716 0.36842 0.0
C303 C 0.21704 0.96513 0.38248 0.0
C304 C 0.18047 0.96835 0.34836 0.0
C305 C 0.19302 0.97366 0.30005 0.0
C306 C 0.24028 0.97662 0.28524 0.0
C307 C 0.24355 0.98486 0.23115 0.0
C308 C 0.27003 0.03245 0.21979 0.0
C309 C 0.26748 0.94164 0.20583 0.0
C310 C 0.19081 0.98772 0.21838 0.0
C311 C 0.16237 0.97988 0.25859 0.0
C312 C 0.11255 0.98153 0.25641 0.0
C313 C 0.09119 -0.00697 0.21233 0.0
C314 C 0.11959 0.00303 0.17123 0.0
C315 C 0.16995 -0.00029 0.17404 0.0
H316 H -0.01477 0.77384 0.87533 0.0
H317 H -0.02143 0.90568 0.79101 0.0
H318 H 0.96647 0.85726 0.71734 0.0
H319 H 0.05141 0.70717 0.79613 0.0
H320 H 0.02102 0.65019 0.80518 0.0
H321 H 0.0212 0.6948 0.85243 0.0
H322 H 0.92858 0.69339 0.8553 0.0
H323 H 0.928 0.64827 0.80824 0.0
H324 H 0.89528 0.70375 0.80088 0.0
H325 H 0.97175 0.79521 0.65162 0.0
H326 H -0.01541 0.72328 0.59963 0.0
H327 H -0.01873 0.63127 0.72571 0.0
C328 C -0.02008 0.79257 0.84157 0.0
C329 C -0.01677 0.84363 0.839 0.0
C330 C -0.02372 0.86668 0.79403 0.0
C331 C 0.96932 0.83944 0.75188 0.0
C332 C 0.96831 0.78915 0.75531 0.0
C333 C 0.97227 0.76589 0.79916 0.0
C334 C 0.97309 0.71138 0.79252 0.0
C335 C 0.01944 0.68965 0.81275 0.0
C336 C 0.92858 0.68782 0.8156 0.0
C337 C 0.97163 0.70778 0.73796 0.0
C338 C 0.96863 0.75308 0.71717 0.0
C339 C 0.97254 0.75945 0.66739 0.0
C340 C -0.02 0.71858 0.63815 0.0
C341 C -0.01733 0.67199 0.65871 0.0
C342 C -0.02233 0.66649 0.70911 0.0
H343 H 0.17968 0.09478 0.83016 0.0
H344 H 0.14495 0.94764 0.87353 0.0
H345 H 0.20525 0.91658 0.81687 0.0
H346 H 0.1957 0.06671 0.70416 0.0
H347 H 0.24512 0.10767 0.69451 0.0
H348 H 0.201 0.12084 0.74025 0.0
H349 H 0.26713 0.1267 0.80472 0.0
H350 H 0.31178 0.11437 0.75921 0.0
H351 H 0.30797 0.07706 0.81228 0.0
H352 H 0.26868 0.90056 0.75909 0.0
H353 H 0.32785 0.89794 0.69449 0.0
H354 H 0.32209 0.05469 0.68102 0.0
C355 C 0.18507 0.05608 0.82781 0.0
C356 C 0.15777 0.02363 0.85666 0.0
C357 C 0.16533 0.97323 0.85203 0.0
C358 C 0.19971 0.95518 0.82006 0.0
C359 C 0.22614 0.9879 0.79253 0.0
C360 C 0.21913 0.03719 0.79536 0.0
C361 C 0.25138 0.06362 0.75941 0.0
C362 C 0.22147 0.09136 0.7224 0.0
C363 C 0.28665 0.09745 0.78548 0.0
C364 C 0.27737 0.02126 0.73603 0.0
C365 C 0.26233 0.97823 0.7566 0.0
C366 C 0.28057 0.9339 0.74239 0.0
C367 C 0.31441 0.93302 0.70538 0.0
C368 C 0.32964 0.97614 0.68187 0.0
C369 C 0.31128 0.02114 0.69803 0.0
H370 H 0.93259 0.30329 0.68505 0.0
H371 H 0.08272 0.3373 0.70748 0.0
H372 H 0.08741 0.27293 0.76853 0.0
H373 H 0.90442 0.28149 0.80905 0.0
H374 H 0.8633 0.23247 0.79714 0.0
H375 H 0.87215 0.27936 0.75299 0.0
H376 H 0.89441 0.21481 0.68897 0.0
H377 H 0.88576 0.16766 0.73295 0.0
H378 H 0.94198 0.17283 0.70112 0.0
H379 H 0.07624 0.20528 0.82731 0.0
H380 H 0.04839 0.14233 0.88382 0.0
H381 H 0.9047 0.15388 0.82678 0.0
C382 C 0.96646 0.29697 0.70267 0.0
C383 C 0.00726 0.32541 0.69152 0.0
C384 C 0.05087 0.31628 0.71565 0.0
C385 C 0.054 0.27957 0.75021 0.0
C386 C 0.01315 0.2524 0.76062 0.0
C387 C 0.97009 0.26077 0.73787 0.0
C388 C 0.93112 0.22762 0.75743 0.0
C389 C 0.89035 0.257 0.78053 0.0
C390 C 0.91222 0.19372 0.71775 0.0
C391 C 0.95892 0.19982 0.79506 0.0
C392 C 0.00633 0.21424 0.79573 0.0
C393 C 0.03918 0.19372 0.82714 0.0
C394 C 0.02306 0.15784 0.85909 0.0
C395 C 0.97442 0.14323 0.85997 0.0
C396 C 0.94208 0.16446 0.82722 0.0
H397 H 0.65627 0.93403 0.68823 0.0
H398 H 0.68782 0.08555 0.66102 0.0
H399 H 0.75207 0.08347 0.72127 0.0
H400 H 0.67405 0.94086 0.81656 0.0
H401 H 0.70052 0.88173 0.82125 0.0
H402 H 0.65836 0.89405 0.77405 0.0
H403 H 0.7207 0.86686 0.71017 0.0
H404 H 0.76311 0.85463 0.75722 0.0
H405 H 0.77898 0.89522 0.70887 0.0
H406 H 0.81225 0.06618 0.78471 0.0
H407 H 0.86352 0.03516 0.84933 0.0
H408 H 0.79279 0.89518 0.83932 0.0
C409 C 0.67713 0.96653 0.6946 0.0
C410 C 0.66706 0.00992 0.66959 0.0
C411 C 0.69467 0.05191 0.67966 0.0
C412 C 0.7314 0.05111 0.71381 0.0
C413 C 0.7401 0.00812 0.7382 0.0
C414 C 0.71374 0.96659 0.72933 0.0
C415 C 0.72949 0.92585 0.76232 0.0
C416 C 0.68815 0.90968 0.79552 0.0
C417 C 0.74925 0.88311 0.73288 0.0
C418 C 0.7689 0.95097 0.79075 0.0
C419 C 0.7744 -0.00163 0.77597 0.0
C420 C 0.80828 0.0291 0.7966 0.0
C421 C 0.83733 0.01105 0.83339 0.0
C422 C 0.83239 0.96267 0.84966 0.0
C423 C 0.79756 0.93231 0.82783 0.0
H424 H 0.24407 0.35917 0.09137 0.0
H425 H 0.22434 0.41633 0.94755 0.0
H426 H 0.13997 0.39163 0.9501 0.0
H427 H 0.19533 0.25805 0.0759 0.0
H428 H 0.16468 0.25025 0.13282 0.0
H429 H 0.21501 0.29002 0.12909 0.0
H430 H 0.1635 0.36008 0.1624 0.0
H431 H 0.11253 0.31995 0.16636 0.0
H432 H 0.10828 0.37594 0.13349 0.0
H433 H 0.0728 0.33776 0.95396 0.0
H434 H 0.03376 0.25809 0.95718 0.0
H435 H 0.08993 0.23563 0.10034 0.0
C436 C 0.22132 0.36821 0.06131 0.0
C437 C 0.24075 0.38898 0.0191 0.0
C438 C 0.2103 0.40001 0.98019 0.0
C439 C 0.16201 0.38671 0.98163 0.0
C440 C 0.14448 0.36298 0.02243 0.0
C441 C 0.17307 0.3546 0.06215 0.0
C442 C 0.14949 0.31928 0.09662 0.0
C443 C 0.18309 0.27692 0.10917 0.0
C444 C 0.13236 0.34539 0.14244 0.0
C445 C 0.10728 0.3033 0.06645 0.0
C446 C 0.10333 0.3311 0.02511 0.0
C447 C 0.07425 0.31687 0.98684 0.0
C448 C 0.05228 0.27139 0.98882 0.0
C449 C 0.05946 0.24097 0.0289 0.0
C450 C 0.08349 0.25887 0.06974 0.0
H451 H 0.33468 0.67772 0.93927 0.0
H452 H 0.38249 0.6728 0.08799 0.0
H453 H 0.33038 0.74165 0.1078 0.0
H454 H 0.32396 0.80941 0.9312 0.0
H455 H 0.27075 0.80619 0.8949 0.0
H456 H 0.31471 0.7588 0.89115 0.0
H457 H 0.24962 0.69479 0.91171 0.0
H458 H 0.20546 0.7418 0.91497 0.0
H459 H 0.21391 0.70205 0.96558 0.0
H460 H 0.27107 0.80841 0.1125 0.0
H461 H 0.20295 0.86377 0.10349 0.0
H462 H 0.19292 0.82448 0.95206 0.0
C463 C 0.33474 0.69153 0.97585 0.0
C464 C 0.36304 0.67019 0.0119 0.0
C465 C 0.3614 0.68878 0.05959 0.0
C466 C 0.33207 0.72803 0.07122 0.0
C467 C 0.30477 0.74832 0.03478 0.0
C468 C 0.30557 0.73058 0.98815 0.0
C469 C 0.27038 0.75688 0.95652 0.0
C470 C 0.29652 0.78446 0.91605 0.0
C471 C 0.23261 0.72179 0.93603 0.0
C472 C 0.24879 0.79132 0.99303 0.0
C473 C 0.26974 0.78638 0.03771 0.0
C474 C 0.25457 0.81293 0.07762 0.0
C475 C 0.21592 0.84442 0.07206 0.0
C476 C 0.19254 0.84845 0.02705 0.0
C477 C 0.21015 0.82241 0.98686 0.0
H478 H 0.6129 0.27107 0.92784 0.0
H479 H 0.54773 0.26335 0.07013 0.0
H480 H 0.59012 0.18753 0.0857 0.0
H481 H 0.61983 0.13414 0.9069 0.0
H482 H 0.67691 0.14091 0.87696 0.0
H483 H 0.63252 0.18778 0.87218 0.0
H484 H 0.69408 0.25055 0.90386 0.0
H485 H 0.7383 0.20409 0.90911 0.0
H486 H 0.72273 0.24028 0.96098 0.0
H487 H 0.65255 0.1252 0.09359 0.0
H488 H 0.7274 0.07818 0.09071 0.0
H489 H 0.75015 0.12347 0.94257 0.0
C490 C 0.60607 0.2524 0.96147 0.0
C491 C 0.57712 0.27325 0.99769 0.0
C492 C 0.56976 0.24817 0.04169 0.0
C493 C 0.59352 0.20481 0.05087 0.0
C494 C 0.62385 0.18648 0.01541 0.0
C495 C 0.62953 0.20895 0.97118 0.0
C496 C 0.66885 0.18544 0.94181 0.0
C497 C 0.64829 0.16058 0.8968 0.0
C498 C 0.70829 0.22228 0.92821 0.0
C499 C 0.68651 0.14865 0.97777 0.0
C500 C 0.65954 0.14913 0.01967 0.0
C501 C 0.67305 0.12319 0.06042 0.0
C502 C 0.71573 0.0968 0.05858 0.0
C503 C 0.7443 0.09677 0.01628 0.0
C504 C 0.72851 0.1218 0.97505 0.0
H505 H 0.85574 0.7421 0.10049 0.0
H506 H 0.91588 0.72273 0.95761 0.0
H507 H 0.8746 0.64434 0.95072 0.0
H508 H 0.83619 0.60287 0.13065 0.0
H509 H 0.78005 0.61812 0.15913 0.0
H510 H 0.83056 0.65867 0.16394 0.0
H511 H 0.77987 0.72835 0.13053 0.0
H512 H 0.7294 0.68903 0.12533 0.0
H513 H 0.7509 0.72119 0.07295 0.0
H514 H 0.80761 0.58954 0.94553 0.0
H515 H 0.72294 0.56557 0.94257 0.0
H516 H 0.70184 0.61935 0.08762 0.0
C517 C 0.86252 0.71979 0.06909 0.0
C518 C 0.88877 0.73816 0.02966 0.0
C519 C 0.89586 0.70908 0.98832 0.0
C520 C 0.87281 0.66423 0.98433 0.0
C521 C 0.84298 0.64911 0.02201 0.0
C522 C 0.83852 0.6757 0.06426 0.0
C523 C 0.79562 0.65938 0.0937 0.0
C524 C 0.81159 0.63316 0.13955 0.0
C525 C 0.76202 0.70199 0.10619 0.0
C526 C 0.77307 0.62435 0.05849 0.0
C527 C 0.8022 0.61687 0.01856 0.0
C528 C 0.78527 0.59371 0.97726 0.0
C529 C 0.73693 0.58067 0.97555 0.0
C530 C 0.70603 0.59136 0.01455 0.0
C531 C 0.72503 0.61032 0.05756 0.0
H532 H 0.6665 0.53273 0.88673 0.0
H533 H 0.55244 0.49919 0.78738 0.0
H534 H 0.60537 0.5201 0.71871 0.0
H535 H 0.72928 0.63139 0.80831 0.0
H536 H 0.78672 0.61016 0.82826 0.0
H537 H 0.73563 0.60753 0.86815 0.0
H538 H 0.75156 0.51448 0.87882 0.0
H539 H 0.80118 0.51839 0.83768 0.0
H540 H 0.75292 0.47648 0.82602 0.0
H541 H 0.67328 0.52775 0.66207 0.0
H542 H 0.75182 0.52277 0.62079 0.0
H543 H 0.82382 0.5487 0.75624 0.0
C544 C 0.65227 0.53262 0.85058 0.0
C545 C 0.60542 0.51595 0.84188 0.0
C546 C 0.58809 0.51308 0.7943 0.0
C547 C 0.61785 0.52495 0.75526 0.0
C548 C 0.6648 0.53936 0.76467 0.0
C549 C 0.6819 0.5438 0.81123 0.0
C550 C 0.73558 0.55236 0.81132 0.0
C551 C 0.74751 0.60336 0.83014 0.0
C552 C 0.7618 0.51311 0.84015 0.0
C553 C 0.74641 0.54841 0.75796 0.0
C554 C 0.70488 0.54242 0.7316 0.0
C555 C 0.7059 0.53368 0.68212 0.0
C556 C 0.75047 0.53062 0.65908 0.0
C557 C 0.79315 0.53578 0.68563 0.0
C558 C 0.79129 0.54547 0.73541 0.0
H559 H 0.18777 0.43882 0.67088 0.0
H560 H 0.20978 0.58428 0.61701 0.0
H561 H 0.27766 0.59519 0.67247 0.0
H562 H 0.20242 0.46423 0.78823 0.0
H563 H 0.23412 0.41031 0.80521 0.0
H564 H 0.1945 0.40897 0.75441 0.0
H565 H 0.26298 0.37891 0.69876 0.0
H566 H 0.30271 0.37876 0.74974 0.0
H567 H 0.3186 0.41219 0.69623 0.0
H568 H 0.33053 0.59587 0.74203 0.0
H569 H 0.37405 0.58418 0.81729 0.0
H570 H 0.31951 0.43711 0.82766 0.0
C571 C 0.20814 0.47223 0.66929 0.0
C572 C 0.19373 0.51108 0.63975 0.0
C573 C 0.22048 0.55451 0.6395 0.0
C574 C 0.259 0.56082 0.67076 0.0
C575 C 0.27042 0.5229 0.7015 0.0
C576 C 0.24654 0.47905 0.70048 0.0
C577 C 0.26287 0.4461 0.74073 0.0
C578 C 0.22097 0.43159 0.77409 0.0
C579 C 0.28831 0.40134 0.72013 0.0
C580 C 0.29776 0.47937 0.76608 0.0
C581 C 0.30189 0.52314 0.74223 0.0
C582 C 0.32896 0.56126 0.76013 0.0
C583 C 0.35358 0.55413 0.80292 0.0
C584 C 0.35119 0.50915 0.82742 0.0
C585 C 0.3224 0.47147 0.80915 0.0
H586 H 0.15175 0.5598 0.28478 0.0
H587 H 0.1314 0.40391 0.28575 0.0
H588 H 0.20014 0.39469 0.23055 0.0
H589 H 0.1886 0.57066 0.15804 0.0
H590 H 0.23232 0.61694 0.17124 0.0
H591 H 0.17932 0.6113 0.20815 0.0
H592 H 0.23249 0.6036 0.28405 0.0
H593 H 0.28562 0.60848 0.24734 0.0
H594 H 0.27726 0.55693 0.2862 0.0
H595 H 0.2733 0.40234 0.17544 0.0
H596 H 0.34534 0.42759 0.12884 0.0
H597 H 0.31655 0.57729 0.16518 0.0
C598 C 0.16075 0.5238 0.27232 0.0
C599 C 0.13569 0.48273 0.28945 0.0
C600 C 0.14959 0.43614 0.27293 0.0
C601 C 0.18854 0.43041 0.24129 0.0
C602 C 0.2129 0.47158 0.22568 0.0
C603 C 0.1994 0.51738 0.24057 0.0
C604 C 0.23317 0.55556 0.221 0.0
C605 C 0.20677 0.59068 0.18762 0.0
C606 C 0.25863 0.58272 0.2621 0.0
C607 C 0.26774 0.52416 0.19298 0.0
C608 C 0.25554 0.4758 0.19573 0.0
C609 C 0.28293 0.44023 0.17281 0.0
C610 C 0.32362 0.45478 0.14621 0.0
C611 C 0.33638 0.50428 0.14292 0.0
C612 C 0.30799 0.53906 0.16697 0.0
H613 H 0.59977 0.4156 0.19139 0.0
H614 H 0.56544 0.56748 0.17408 0.0
H615 H 0.61381 0.58722 0.24589 0.0
H616 H 0.60483 0.41384 0.32506 0.0
H617 H 0.65506 0.37317 0.32455 0.0
H618 H 0.61152 0.37043 0.27691 0.0
H619 H 0.6791 0.38221 0.21339 0.0
H620 H 0.72266 0.38477 0.26069 0.0
H621 H 0.71855 0.43381 0.21824 0.0
H622 H 0.67398 0.59112 0.31383 0.0
H623 H 0.74325 0.57952 0.3674 0.0
H624 H 0.73794 0.42502 0.33904 0.0
C625 C 0.60133 0.45291 0.20333 0.0
C626 C 0.57841 0.48991 0.1773 0.0
C627 C 0.5823 0.53841 0.19365 0.0
C628 C 0.6096 0.54995 0.23454 0.0
C629 C 0.63259 0.51259 0.25879 0.0
C630 C 0.6286 0.46502 0.2437 0.0
C631 C 0.66082 0.43215 0.27232 0.0
C632 C 0.63128 0.39522 0.30144 0.0
C633 C 0.69744 0.40679 0.23919 0.0
C634 C 0.68475 0.46875 0.305 0.0
C635 C 0.66751 0.51488 0.29733 0.0
C636 C 0.68718 0.55505 0.32065 0.0
C637 C 0.72651 0.54806 0.35117 0.0
C638 C 0.74614 0.50131 0.35758 0.0
C639 C 0.72363 0.46116 0.33543 0.0
H640 H 0.31848 0.75056 0.55132 0.0
H641 H 0.26034 0.86098 0.45755 0.0
H642 H 0.18199 0.82172 0.46047 0.0
H643 H 0.26207 0.65367 0.49479 0.0
H644 H 0.24895 0.61919 0.54826 0.0
H645 H 0.29864 0.66067 0.54771 0.0
H646 H 0.26445 0.70267 0.6226 0.0
H647 H 0.21112 0.66571 0.62404 0.0
H648 H 0.20618 0.7302 0.62063 0.0
H649 H 0.11229 0.77069 0.46749 0.0
H650 H 0.05998 0.69946 0.46074 0.0
H651 H 0.16111 0.61495 0.5426 0.0
C652 C 0.28904 0.76633 0.53174 0.0
C653 C 0.29563 0.80892 0.50433 0.0
C654 C 0.25645 0.82831 0.47866 0.0
C655 C 0.21138 0.8067 0.48067 0.0
C656 C 0.20574 0.76506 0.50799 0.0
C657 C 0.24355 0.74409 0.53197 0.0
C658 C 0.22848 0.6956 0.55292 0.0
C659 C 0.26146 0.65488 0.53485 0.0
C660 C 0.22758 0.69863 0.60828 0.0
C661 C 0.17795 0.69089 0.53293 0.0
C662 C 0.16495 0.73303 0.50982 0.0
C663 C 0.12168 0.73758 0.48578 0.0
C664 C 0.09215 0.69695 0.48219 0.0
C665 C 0.10641 0.65209 0.50151 0.0
C666 C 0.1488 0.64934 0.52903 0.0
H667 H 0.10586 0.29348 0.44745 0.0
H668 H 0.09644 0.36403 0.58696 0.0
H669 H 0.14281 0.29773 0.62314 0.0
H670 H 0.10511 0.16579 0.48993 0.0
H671 H 0.14889 0.14841 0.44521 0.0
H672 H 0.10728 0.19631 0.43259 0.0
H673 H 0.178 0.25424 0.4131 0.0
H674 H 0.21967 0.20668 0.42548 0.0
H675 H 0.22421 0.26344 0.45731 0.0
H676 H 0.20025 0.23019 0.64123 0.0
H677 H 0.26599 0.17079 0.6386 0.0
H678 H 0.23781 0.14488 0.4871 0.0
C679 C 0.11229 0.29435 0.4859 0.0
C680 C 0.09677 0.33359 0.51458 0.0
C681 C 0.10717 0.33393 0.56449 0.0
C682 C 0.13352 0.29636 0.58534 0.0
C683 C 0.14929 0.25874 0.55574 0.0
C684 C 0.13899 0.25754 0.50704 0.0
C685 C 0.165 0.21681 0.48174 0.0
C686 C 0.12944 0.17962 0.46117 0.0
C687 C 0.19871 0.23648 0.44211 0.0
C688 C 0.19272 0.19607 0.52347 0.0
C689 C 0.18267 0.22013 0.56606 0.0
C690 C 0.20757 0.21032 0.60835 0.0
C691 C 0.24467 0.17621 0.60664 0.0
C692 C 0.25664 0.1526 0.56286 0.0
C693 C 0.22913 0.16173 0.52132 0.0
H694 H 0.87197 0.69133 0.44918 0.0
H695 H 0.79269 0.57795 0.52235 0.0
H696 H 0.72109 0.62915 0.52438 0.0
H697 H 0.83341 0.78596 0.50662 0.0
H698 H 0.82368 0.82787 0.458 0.0
H699 H 0.86574 0.77944 0.4505 0.0
H700 H 0.82125 0.74832 0.37495 0.0
H701 H 0.77981 0.79786 0.38087 0.0
H702 H 0.75783 0.73649 0.37828 0.0
H703 H 0.66994 0.69849 0.54162 0.0
H704 H 0.62896 0.77673 0.55082 0.0
H705 H 0.73362 0.84429 0.45611 0.0
C706 C 0.83853 0.67649 0.46262 0.0
C707 C 0.83716 0.63076 0.48499 0.0
C708 C 0.79369 0.61259 0.50409 0.0
C709 C 0.753 0.64152 0.50574 0.0
C710 C 0.75603 0.68777 0.48634 0.0
C711 C 0.79666 0.70441 0.46269 0.0
C712 C 0.79048 0.7567 0.44726 0.0
C713 C 0.83072 0.78938 0.46681 0.0
C714 C 0.78714 0.76004 0.39207 0.0
C715 C 0.74269 0.76808 0.47084 0.0
C716 C 0.72356 0.72757 0.493 0.0
C717 C 0.68328 0.73003 0.52269 0.0
C718 C 0.66081 0.77471 0.52842 0.0
C719 C 0.67822 0.81612 0.50404 0.0
C720 C 0.71952 0.81282 0.47467 0.0
H721 H 0.65346 0.20673 0.58829 0.0
H722 H 0.61367 0.21903 0.43771 0.0
H723 H 0.68046 0.27617 0.42427 0.0
H724 H 0.69213 0.33344 0.60384 0.0
H725 H 0.74016 0.3165 0.64334 0.0
H726 H 0.68631 0.28047 0.64125 0.0
H727 H 0.73767 0.20483 0.62198 0.0
H728 H 0.79148 0.24093 0.62248 0.0
H729 H 0.77677 0.20532 0.57003 0.0
H730 H 0.75506 0.32787 0.42609 0.0
H731 H 0.82616 0.37769 0.4458 0.0
H732 H 0.81769 0.32835 0.59414 0.0
C733 C 0.65785 0.22245 0.55281 0.0
C734 C 0.62827 0.20843 0.51413 0.0
C735 C 0.63582 0.22933 0.468 0.0
C736 C 0.67385 0.26158 0.45988 0.0
C737 C 0.70382 0.27266 0.49826 0.0
C738 C 0.69575 0.2544 0.54398 0.0
C739 C 0.73382 0.27105 0.57881 0.0
C740 C 0.71179 0.30223 0.61918 0.0
C741 C 0.76156 0.22795 0.59951 0.0
C742 C 0.76488 0.30099 0.54539 0.0
C743 C 0.74705 0.3016 0.49909 0.0
C744 C 0.76928 0.32784 0.46229 0.0
C745 C 0.80975 0.35577 0.47372 0.0
C746 C 0.82742 0.35695 0.52145 0.0
C747 C 0.80537 0.32801 0.5572 0.0
H748 H 0.41777 0.28153 0.88794 0.0
H749 H 0.52293 0.38396 0.83472 0.0
H750 H 0.55057 0.32367 0.77443 0.0
H751 H 0.49369 0.1705 0.86726 0.0
H752 H 0.44188 0.13495 0.85122 0.0
H753 H 0.43642 0.18346 0.89448 0.0
H754 H 0.36961 0.22211 0.84292 0.0
H755 H 0.37487 0.17382 0.79987 0.0
H756 H 0.38149 0.23569 0.78041 0.0
H757 H 0.55802 0.25436 0.71161 0.0
H758 H 0.54334 0.18623 0.65481 0.0
H759 H 0.43438 0.12995 0.75152 0.0
C760 C 0.44751 0.29077 0.86442 0.0
C761 C 0.46874 0.3372 0.86652 0.0
C762 C 0.5071 0.3482 0.83472 0.0
C763 C 0.5228 0.31415 0.80012 0.0
C764 C 0.50038 0.26881 0.79837 0.0
C765 C 0.46399 0.257 0.83039 0.0
C766 C 0.44335 0.20742 0.81956 0.0
C767 C 0.4545 0.17199 0.86057 0.0
C768 C 0.38915 0.20997 0.8101 0.0
C769 C 0.47116 0.19448 0.77435 0.0
C770 C 0.50486 0.22954 0.76309 0.0
C771 C 0.53235 0.22635 0.72079 0.0
C772 C 0.52407 0.18733 0.68879 0.0
C773 C 0.48804 0.1525 0.69891 0.0
C774 C 0.46257 0.15567 0.74301 0.0
H775 H 0.52894 0.87152 0.70667 0.0
H776 H 0.42438 0.80558 0.61214 0.0
H777 H 0.41216 0.73949 0.6716 0.0
H778 H 0.5872 0.77055 0.73394 0.0
H779 H 0.60027 0.78509 0.79589 0.0
H780 H 0.59118 0.8328 0.75317 0.0
H781 H 0.52363 0.86876 0.80641 0.0
H782 H 0.53314 0.82165 0.85008 0.0
H783 H 0.4744 0.83074 0.8253 0.0
H784 H 0.42233 0.67374 0.73631 0.0
H785 H 0.45097 0.61781 0.79959 0.0
H786 H 0.55366 0.72553 0.84665 0.0
C787 C 0.50193 0.84424 0.69935 0.0
C788 C 0.47723 0.8438 0.65506 0.0
C789 C 0.44285 0.80714 0.64631 0.0
C790 C 0.43611 0.76926 0.67977 0.0
C791 C 0.46377 0.76907 0.72172 0.0
C792 C 0.49541 0.8063 0.73183 0.0
C793 C 0.5252 0.79561 0.77593 0.0
C794 C 0.57912 0.79602 0.76397 0.0
C795 C 0.51337 0.8313 0.81686 0.0
C796 C 0.50759 0.74523 0.78777 0.0
C797 C 0.47121 0.73091 0.7571 0.0
C798 C 0.45033 0.68506 0.76073 0.0
C799 C 0.46683 0.65349 0.79666 0.0
C800 C 0.50457 0.66737 0.82773 0.0
C801 C 0.52509 0.71383 0.82305 0.0
H802 H 0.53737 0.73906 0.14932 0.0
H803 H 0.42887 0.63608 0.19588 0.0
H804 H 0.40998 0.68818 0.26573 0.0
H805 H 0.58335 0.76353 0.26054 0.0
H806 H 0.59421 0.82716 0.25102 0.0
H807 H 0.59346 0.78639 0.20049 0.0
H808 H 0.52779 0.83785 0.15984 0.0
H809 H 0.5285 0.87902 0.21037 0.0
H810 H 0.47317 0.85072 0.19223 0.0
H811 H 0.41111 0.74518 0.33644 0.0
H812 H 0.43225 0.80228 0.40167 0.0
H813 H 0.53927 0.86851 0.30852 0.0
C814 C 0.50882 0.72803 0.17353 0.0
C815 C 0.48471 0.68341 0.16719 0.0
C816 C 0.44795 0.67004 0.20003 0.0
C817 C 0.43676 0.69954 0.23973 0.0
C818 C 0.46226 0.74259 0.2458 0.0
C819 C 0.49721 0.75707 0.21331 0.0
C820 C 0.52236 0.80266 0.23029 0.0
C821 C 0.57652 0.7944 0.23594 0.0
C822 C 0.51234 0.84507 0.19614 0.0
C823 C 0.49793 0.81007 0.27858 0.0
C824 C 0.4627 0.77565 0.2865 0.0
C825 C 0.43797 0.77288 0.33024 0.0
C826 C 0.4503 0.80543 0.36715 0.0
C827 C 0.48729 0.84004 0.36019 0.0
C828 C 0.51035 0.84302 0.3148 0.0
H829 H 0.49097 0.14262 0.32292 0.0
H830 H 0.4251 0.2429 0.42367 0.0
H831 H 0.43545 0.30885 0.36505 0.0
H832 H 0.57567 0.23514 0.26451 0.0
H833 H 0.56774 0.2077 0.20607 0.0
H834 H 0.56567 0.17084 0.25962 0.0
H835 H 0.482 0.13854 0.23511 0.0
H836 H 0.48391 0.17511 0.18176 0.0
H837 H 0.4346 0.18095 0.22359 0.0
H838 H 0.43994 0.36014 0.29232 0.0
H839 H 0.43404 0.39154 0.20963 0.0
H840 H 0.49605 0.25862 0.15442 0.0
C841 C 0.48022 0.17881 0.3332 0.0
C842 C 0.45738 0.18762 0.37793 0.0
C843 C 0.44277 0.23525 0.38966 0.0
C844 C 0.44886 0.27311 0.35671 0.0
C845 C 0.47004 0.26299 0.31227 0.0
C846 C 0.48583 0.21706 0.3005 0.0
C847 C 0.50157 0.21448 0.24815 0.0
C848 C 0.55589 0.20658 0.24437 0.0
C849 C 0.47383 0.17497 0.22056 0.0
C850 C 0.48831 0.26483 0.23143 0.0
C851 C 0.47191 0.29277 0.26943 0.0
C852 C 0.45356 0.33899 0.26241 0.0
C853 C 0.45021 0.35647 0.21519 0.0
C854 C 0.46434 0.32744 0.17547 0.0
C855 C 0.48531 0.28183 0.18403 0.0
loop_
_geom_bond_atom_site_label_1
_geom_bond_atom_site_label_2
_geom_bond_distance
_geom_bond_site_symmetry_2
_ccdc_geom_bond_type
Zn0 O2 1.933 1_556 S
Zn0 O20 1.985 . S
Zn0 O31 1.955 . S
Zn1 O2 1.911 . S
Zn1 O21 1.970 . S
Zn1 O37 1.945 . S
Zn1 O44 1.981 . S
O2 Zn0 1.933 1_554 S
O2 Zn1 1.911 . S
O2 H3 0.841 . S
H3 O2 0.841 . S
C4 O5 1.246 . S
C4 O33 1.276 1_655 S
O5 C4 1.246 . S
Zn6 O8 1.911 . S
Zn6 O23 1.970 . S
Zn6 O40 1.945 . S
Zn6 O47 1.981 . S
Zn7 O8 1.933 1_556 S
Zn7 O22 1.985 . S
Zn7 O29 1.955 . S
O8 Zn6 1.911 . S
O8 Zn7 1.933 1_554 S
O8 H9 0.841 . S
H9 O8 0.841 . S
Zn10 O11 1.933 1_556 S
Zn10 O24 1.985 . S
Zn10 O33 1.955 . S
O11 Zn10 1.933 1_554 S
O11 Zn12 1.911 . S
O11 H13 0.841 . S
Zn12 O11 1.911 . S
Zn12 O25 1.970 . S
Zn12 O41 1.981 . S
Zn12 O43 1.945 . S
H13 O11 0.841 . S
Zn14 O15 1.933 1_556 S
Zn14 O27 1.985 . S
Zn14 O35 1.955 . S
O15 Zn14 1.933 1_554 S
O15 H16 0.841 . S
O15 Zn17 1.911 . S
H16 O15 0.841 . S
Zn17 O15 1.911 . S
Zn17 O28 1.970 . S
Zn17 O38 1.981 . S
Zn17 O46 1.945 . S
C18 O19 1.246 . S
C18 O35 1.276 1_455 S
O19 C18 1.246 . S
O20 Zn0 1.985 . S
O20 C30 1.245 1_556 S
O21 Zn1 1.970 . S
O21 C30 1.263 . S
O22 Zn7 1.985 . S
O22 C34 1.245 1_556 S
O23 Zn6 1.970 . S
O23 C34 1.263 . S
O24 Zn10 1.985 . S
O24 C39 1.245 1_556 S
O25 Zn12 1.970 . S
O25 C39 1.263 . S
C26 O37 1.262 1_545 S
C26 O38 1.245 . S
O27 Zn14 1.985 . S
O27 C45 1.245 1_556 S
O28 Zn17 1.970 . S
O28 C45 1.263 . S
O29 Zn7 1.955 . S
O29 C48 1.280 . S
C30 O20 1.245 1_554 S
C30 O21 1.263 . S
O31 Zn0 1.955 . S
O31 C50 1.276 1_565 S
C32 O40 1.262 . S
C32 O41 1.245 1_545 S
O33 C4 1.276 1_455 S
O33 Zn10 1.955 . S
C34 O22 1.245 1_554 S
C34 O23 1.263 . S
O35 Zn14 1.955 . S
O35 C18 1.276 1_655 S
C36 O43 1.267 . S
C36 O44 1.242 1_455 S
O37 Zn1 1.945 . S
O37 C26 1.262 1_565 S
O38 Zn17 1.981 . S
O38 C26 1.245 . S
C39 O24 1.245 1_554 S
C39 O25 1.263 . S
O40 Zn6 1.945 . S
O40 C32 1.262 . S
O41 Zn12 1.981 . S
O41 C32 1.245 1_565 S
C42 O46 1.262 1_455 S
C42 O47 1.245 . S
O43 Zn12 1.945 . S
O43 C36 1.267 . S
O44 Zn1 1.981 . S
O44 C36 1.242 1_655 S
C45 O27 1.245 1_554 S
C45 O28 1.263 . S
O46 Zn17 1.945 . S
O46 C42 1.262 1_655 S
O47 Zn6 1.981 . S
O47 C42 1.245 . S
C48 O29 1.280 . S
C48 O49 1.243 1_545 S
O49 C48 1.243 1_565 S
C50 O31 1.276 1_545 S
C50 O51 1.246 . S
O51 C50 1.246 . S
Zn52 O54 1.933 . S
Zn52 O72 1.985 . S
Zn52 O83 1.955 . S
Zn53 O54 1.911 . S
Zn53 O73 1.970 . S
Zn53 O89 1.945 . S
Zn53 O96 1.981 . S
O54 Zn52 1.933 . S
O54 Zn53 1.911 . S
O54 H55 0.841 . S
H55 O54 0.841 . S
C56 O57 1.246 . S
C56 O85 1.276 . S
O57 C56 1.246 . S
Zn58 O60 1.911 . S
Zn58 O75 1.970 . S
Zn58 O92 1.945 . S
Zn58 O99 1.981 . S
Zn59 O60 1.933 . S
Zn59 O74 1.985 . S
Zn59 O81 1.955 . S
O60 Zn58 1.911 . S
O60 Zn59 1.933 . S
O60 H61 0.841 . S
H61 O60 0.841 . S
Zn62 O63 1.933 . S
Zn62 O76 1.985 . S
Zn62 O85 1.955 . S
O63 Zn62 1.933 . S
O63 Zn64 1.911 . S
O63 H65 0.841 . S
Zn64 O63 1.911 . S
Zn64 O77 1.970 . S
Zn64 O93 1.981 . S
Zn64 O95 1.945 . S
H65 O63 0.841 . S
Zn66 O67 1.933 . S
Zn66 O79 1.985 . S
Zn66 O87 1.955 . S
O67 Zn66 1.933 . S
O67 H68 0.841 . S
O67 Zn69 1.911 . S
H68 O67 0.841 . S
Zn69 O67 1.911 . S
Zn69 O80 1.970 . S
Zn69 O90 1.981 . S
Zn69 O98 1.945 . S
C70 O71 1.246 . S
C70 O87 1.276 . S
O71 C70 1.246 . S
O72 Zn52 1.985 . S
O72 C82 1.245 . S
O73 Zn53 1.970 . S
O73 C82 1.263 . S
O74 Zn59 1.985 . S
O74 C86 1.245 . S
O75 Zn58 1.970 . S
O75 C86 1.263 . S
O76 Zn62 1.985 . S
O76 C91 1.245 . S
O77 Zn64 1.970 . S
O77 C91 1.263 . S
C78 O89 1.262 . S
C78 O90 1.245 1_655 S
O79 Zn66 1.985 . S
O79 C97 1.245 . S
O80 Zn69 1.970 . S
O80 C97 1.263 . S
O81 Zn59 1.955 . S
O81 C100 1.276 1_455 S
C82 O72 1.245 . S
C82 O73 1.263 . S
O83 Zn52 1.955 . S
O83 C102 1.276 1_655 S
C84 O92 1.268 . S
C84 O93 1.242 1_455 S
O85 C56 1.276 . S
O85 Zn62 1.955 . S
C86 O74 1.245 . S
C86 O75 1.263 . S
O87 Zn66 1.955 . S
O87 C70 1.276 . S
C88 O95 1.262 . S
C88 O96 1.245 . S
O89 Zn53 1.945 . S
O89 C78 1.262 . S
O90 Zn69 1.981 . S
O90 C78 1.245 1_455 S
C91 O76 1.245 . S
C91 O77 1.263 . S
O92 Zn58 1.945 . S
O92 C84 1.268 . S
O93 Zn64 1.981 . S
O93 C84 1.242 1_655 S
C94 O98 1.262 . S
C94 O99 1.245 . S
O95 Zn64 1.945 . S
O95 C88 1.262 . S
O96 Zn53 1.981 . S
O96 C88 1.245 . S
C97 O79 1.245 . S
C97 O80 1.263 . S
O98 Zn69 1.945 . S
O98 C94 1.262 . S
O99 Zn58 1.981 . S
O99 C94 1.245 . S
C100 O81 1.276 1_655 S
C100 O101 1.246 . S
O101 C100 1.246 . S
C102 O83 1.276 1_455 S
C102 O103 1.246 . S
O103 C102 1.246 . S
Zn104 O106 1.933 . S
Zn104 O124 1.985 . S
Zn104 O135 1.955 . S
Zn105 O106 1.911 . S
Zn105 O125 1.970 . S
Zn105 O141 1.945 . S
Zn105 O148 1.981 . S
O106 Zn104 1.933 . S
O106 Zn105 1.911 . S
O106 H107 0.841 . S
H107 O106 0.841 . S
C108 O109 1.246 . S
C108 O137 1.276 . S
O109 C108 1.246 . S
Zn110 O112 1.911 . S
Zn110 O127 1.970 . S
Zn110 O144 1.945 . S
Zn110 O151 1.981 . S
Zn111 O112 1.933 . S
Zn111 O126 1.985 . S
Zn111 O133 1.955 . S
O112 Zn110 1.911 . S
O112 Zn111 1.933 . S
O112 H113 0.841 . S
H113 O112 0.841 . S
Zn114 O115 1.933 . S
Zn114 O128 1.985 . S
Zn114 O137 1.955 . S
O115 Zn114 1.933 . S
O115 Zn116 1.911 . S
O115 H117 0.841 . S
Zn116 O115 1.911 . S
Zn116 O129 1.970 . S
Zn116 O145 1.981 . S
Zn116 O147 1.945 . S
H117 O115 0.841 . S
Zn118 O119 1.933 . S
Zn118 O131 1.985 . S
Zn118 O139 1.955 . S
O119 Zn118 1.933 . S
O119 H120 0.841 . S
O119 Zn121 1.911 . S
H120 O119 0.841 . S
Zn121 O119 1.911 . S
Zn121 O132 1.970 . S
Zn121 O142 1.981 . S
Zn121 O150 1.945 . S
C122 O123 1.246 . S
C122 O139 1.276 . S
O123 C122 1.246 . S
O124 Zn104 1.985 . S
O124 C134 1.245 . S
O125 Zn105 1.970 . S
O125 C134 1.263 . S
O126 Zn111 1.985 . S
O126 C138 1.245 . S
O127 Zn110 1.970 . S
O127 C138 1.263 . S
O128 Zn114 1.985 . S
O128 C143 1.245 . S
O129 Zn116 1.970 . S
O129 C143 1.263 . S
C130 O141 1.262 1_545 S
C130 O142 1.245 . S
O131 Zn118 1.985 . S
O131 C149 1.245 . S
O132 Zn121 1.970 . S
O132 C149 1.263 . S
O133 Zn111 1.955 . S
O133 C152 1.279 . S
C134 O124 1.245 . S
C134 O125 1.263 . S
O135 Zn104 1.955 . S
O135 C154 1.276 1_565 S
C136 O144 1.262 . S
C136 O145 1.245 1_545 S
O137 C108 1.276 . S
O137 Zn114 1.955 . S
C138 O126 1.245 . S
C138 O127 1.263 . S
O139 Zn118 1.955 . S
O139 C122 1.276 . S
C140 O147 1.262 . S
C140 O148 1.245 . S
O141 Zn105 1.945 . S
O141 C130 1.262 1_565 S
O142 Zn121 1.981 . S
O142 C130 1.245 . S
C143 O128 1.245 . S
C143 O129 1.263 . S
O144 Zn110 1.945 . S
O144 C136 1.262 . S
O145 Zn116 1.981 . S
O145 C136 1.245 1_565 S
C146 O150 1.262 . S
C146 O151 1.245 . S
O147 Zn116 1.945 . S
O147 C140 1.262 . S
O148 Zn105 1.981 . S
O148 C140 1.245 . S
C149 O131 1.245 . S
C149 O132 1.263 . S
O150 Zn121 1.945 . S
O150 C146 1.262 . S
O151 Zn110 1.981 . S
O151 C146 1.245 . S
C152 O133 1.279 . S
C152 O153 1.244 1_545 S
O153 C152 1.244 1_565 S
C154 O135 1.276 1_545 S
C154 O155 1.246 . S
O155 C154 1.246 . S
Zn156 O158 1.933 . S
Zn156 O176 1.985 . S
Zn156 O187 1.955 . S
Zn157 O158 1.911 1_556 S
Zn157 O177 1.970 . S
Zn157 O193 1.945 . S
Zn157 O200 1.981 . S
O158 Zn156 1.933 . S
O158 Zn157 1.911 1_554 S
O158 H159 0.841 . S
H159 O158 0.841 . S
C160 O161 1.246 . S
C160 O189 1.276 . S
O161 C160 1.246 . S
Zn162 O164 1.911 1_556 S
Zn162 O179 1.970 . S
Zn162 O196 1.945 . S
Zn162 O203 1.981 . S
Zn163 O164 1.933 . S
Zn163 O178 1.985 . S
Zn163 O185 1.955 . S
O164 Zn162 1.911 1_554 S
O164 Zn163 1.933 . S
O164 H165 0.841 . S
H165 O164 0.841 . S
Zn166 O167 1.933 . S
Zn166 O180 1.985 . S
Zn166 O189 1.955 . S
O167 Zn166 1.933 . S
O167 Zn168 1.911 1_554 S
O167 H169 0.841 . S
Zn168 O167 1.911 1_556 S
Zn168 O181 1.970 . S
Zn168 O197 1.981 . S
Zn168 O199 1.945 . S
H169 O167 0.841 . S
Zn170 O171 1.933 . S
Zn170 O183 1.985 . S
Zn170 O191 1.955 . S
O171 Zn170 1.933 . S
O171 H172 0.841 . S
O171 Zn173 1.911 1_554 S
H172 O171 0.841 . S
Zn173 O171 1.911 1_556 S
Zn173 O184 1.970 . S
Zn173 O194 1.981 . S
Zn173 O202 1.945 . S
C174 O175 1.246 . S
C174 O191 1.276 . S
O175 C174 1.246 . S
O176 Zn156 1.985 . S
O176 C186 1.245 . S
O177 Zn157 1.970 . S
O177 C186 1.263 1_556 S
O178 Zn163 1.985 . S
O178 C190 1.245 . S
O179 Zn162 1.970 . S
O179 C190 1.263 1_556 S
O180 Zn166 1.985 . S
O180 C195 1.245 . S
O181 Zn168 1.970 . S
O181 C195 1.263 1_556 S
C182 O193 1.262 . S
C182 O194 1.245 . S
O183 Zn170 1.985 . S
O183 C201 1.245 . S
O184 Zn173 1.970 . S
O184 C201 1.263 1_556 S
O185 Zn163 1.955 . S
O185 C204 1.276 . S
C186 O176 1.245 . S
C186 O177 1.263 1_554 S
O187 Zn156 1.955 . S
O187 C206 1.276 . S
C188 O196 1.262 . S
C188 O197 1.245 . S
O189 C160 1.276 . S
O189 Zn166 1.955 . S
C190 O178 1.245 . S
C190 O179 1.263 1_554 S
O191 Zn170 1.955 . S
O191 C174 1.276 . S
C192 O199 1.262 . S
C192 O200 1.245 . S
O193 Zn157 1.945 . S
O193 C182 1.262 . S
O194 Zn173 1.981 . S
O194 C182 1.245 . S
C195 O180 1.245 . S
C195 O181 1.263 1_554 S
O196 Zn162 1.945 . S
O196 C188 1.262 . S
O197 Zn168 1.981 . S
O197 C188 1.245 . S
C198 O202 1.262 . S
C198 O203 1.245 . S
O199 Zn168 1.945 . S
O199 C192 1.262 . S
O200 Zn157 1.981 . S
O200 C192 1.245 . S
C201 O183 1.245 . S
C201 O184 1.263 1_554 S
O202 Zn173 1.945 . S
O202 C198 1.262 . S
O203 Zn162 1.981 . S
O203 C198 1.245 . S
C204 O185 1.276 . S
C204 O205 1.246 . S
O205 C204 1.246 . S
C206 O187 1.276 . S
C206 O207 1.246 . S
O207 C206 1.246 . S
H208 C220 0.930 . S
H209 C222 0.930 . S
H210 C223 0.930 . S
H211 C227 0.959 . S
H212 C227 0.959 1_655 S
H213 C227 0.961 . S
H214 C228 0.960 . S
H215 C228 0.961 . S
H216 C228 0.959 . S
H217 C231 0.929 . S
H218 C232 0.931 . S
H219 C234 0.930 1_655 S
C220 H208 0.930 . S
C220 C221 1.399 1_655 S
C220 C225 1.399 1_655 S
C221 C220 1.399 1_455 S
C221 C222 1.376 . S
C222 H209 0.930 . S
C222 C221 1.376 . S
C222 C223 1.388 . S
C223 H210 0.930 . S
C223 C222 1.388 . S
C223 C224 1.390 . S
C224 C223 1.390 . S
C224 C225 1.394 . S
C224 C230 1.465 . S
C225 C220 1.399 1_455 S
C225 C224 1.394 . S
C225 C226 1.516 1_455 S
C226 C225 1.516 1_655 S
C226 C227 1.502 1_655 S
C226 C228 1.561 . S
C226 C229 1.526 1_655 S
C227 H211 0.959 . S
C227 H212 0.959 1_455 S
C227 H213 0.961 . S
C227 C226 1.502 1_455 S
C228 H214 0.960 . S
C228 H215 0.961 . S
C228 H216 0.959 . S
C228 C226 1.561 . S
C229 C226 1.526 1_455 S
C229 C230 1.396 . S
C229 C234 1.390 . S
C230 C224 1.465 . S
C230 C229 1.396 . S
C230 C231 1.399 . S
C231 H217 0.929 . S
C231 C230 1.399 . S
C231 C232 1.385 . S
C232 H218 0.931 . S
C232 C231 1.385 . S
C232 C233 1.389 . S
C233 C232 1.389 . S
C233 C234 1.387 . S
C234 H219 0.930 1_455 S
C234 C229 1.390 . S
C234 C233 1.387 . S
H235 C247 0.930 . S
H236 C249 0.930 . S
H237 C250 0.930 . S
H238 C254 0.959 . S
H239 C254 0.959 . S
H240 C254 0.961 . S
H241 C255 0.960 . S
H242 C255 0.961 . S
H243 C255 0.959 . S
H244 C258 0.929 . S
H245 C259 0.931 . S
H246 C261 0.930 . S
C247 H235 0.930 . S
C247 C248 1.399 1_565 S
C247 C252 1.399 . S
C248 C247 1.399 1_545 S
C248 C249 1.376 . S
C249 H236 0.930 . S
C249 C248 1.376 . S
C249 C250 1.388 . S
C250 H237 0.930 . S
C250 C249 1.388 . S
C250 C251 1.390 . S
C251 C250 1.390 . S
C251 C252 1.394 1_545 S
C251 C257 1.465 . S
C252 C247 1.399 . S
C252 C251 1.394 1_565 S
C252 C253 1.516 . S
C253 C252 1.516 . S
C253 C254 1.502 . S
C253 C255 1.561 . S
C253 C256 1.526 . S
C254 H238 0.959 . S
C254 H239 0.959 . S
C254 H240 0.961 . S
C254 C253 1.502 . S
C255 H241 0.960 . S
C255 H242 0.961 . S
C255 H243 0.959 . S
C255 C253 1.561 . S
C256 C253 1.526 . S
C256 C257 1.396 1_565 S
C256 C261 1.390 . S
C257 C251 1.465 . S
C257 C256 1.396 1_545 S
C257 C258 1.399 . S
C258 H244 0.929 . S
C258 C257 1.399 . S
C258 C259 1.385 . S
C259 H245 0.931 . S
C259 C258 1.385 . S
C259 C260 1.389 1_545 S
C260 C259 1.389 1_565 S
C260 C261 1.387 . S
C261 H246 0.930 . S
C261 C256 1.390 . S
C261 C260 1.387 . S
H262 C274 0.930 . S
H263 C276 0.930 . S
H264 C277 0.930 . S
H265 C281 0.959 . S
H266 C281 0.959 . S
H267 C281 0.961 . S
H268 C282 0.960 . S
H269 C282 0.961 . S
H270 C282 0.959 1_455 S
H271 C285 0.929 . S
H272 C286 0.931 . S
H273 C288 0.930 . S
C274 H262 0.930 . S
C274 C275 1.399 . S
C274 C279 1.399 . S
C275 C274 1.399 . S
C275 C276 1.376 1_655 S
C276 H263 0.930 . S
C276 C275 1.376 1_455 S
C276 C277 1.388 . S
C277 H264 0.930 . S
C277 C276 1.388 . S
C277 C278 1.390 . S
C278 C277 1.390 . S
C278 C279 1.394 1_455 S
C278 C284 1.465 . S
C279 C274 1.399 . S
C279 C278 1.394 1_655 S
C279 C280 1.516 . S
C280 C279 1.516 . S
C280 C281 1.502 . S
C280 C282 1.561 . S
C280 C283 1.526 . S
C281 H265 0.959 . S
C281 H266 0.959 . S
C281 H267 0.961 . S
C281 C280 1.502 . S
C282 H268 0.960 . S
C282 H269 0.961 . S
C282 H270 0.959 1_655 S
C282 C280 1.561 . S
C283 C280 1.526 . S
C283 C284 1.396 1_655 S
C283 C288 1.390 . S
C284 C278 1.465 . S
C284 C283 1.396 1_455 S
C284 C285 1.399 . S
C285 H271 0.929 . S
C285 C284 1.399 . S
C285 C286 1.385 . S
C286 H272 0.931 . S
C286 C285 1.385 . S
C286 C287 1.389 . S
C287 C286 1.389 . S
C287 C288 1.387 1_455 S
C288 H273 0.930 . S
C288 C283 1.390 . S
C288 C287 1.387 1_655 S
H289 C301 0.930 . S
H290 C303 0.930 . S
H291 C304 0.930 . S
H292 C308 0.959 . S
H293 C308 0.959 . S
H294 C308 0.961 . S
H295 C309 0.960 . S
H296 C309 0.961 . S
H297 C309 0.959 . S
H298 C312 0.929 . S
H299 C313 0.931 . S
H300 C315 0.930 . S
C301 H289 0.930 . S
C301 C302 1.399 . S
C301 C306 1.399 . S
C302 C301 1.399 . S
C302 C303 1.376 . S
C303 H290 0.930 . S
C303 C302 1.376 . S
C303 C304 1.388 . S
C304 H291 0.930 . S
C304 C303 1.388 . S
C304 C305 1.390 . S
C305 C304 1.390 . S
C305 C306 1.394 . S
C305 C311 1.465 . S
C306 C301 1.399 . S
C306 C305 1.394 . S
C306 C307 1.516 1_545 S
C307 C306 1.516 1_565 S
C307 C308 1.502 1_565 S
C307 C309 1.561 . S
C307 C310 1.526 . S
C308 H292 0.959 . S
C308 H293 0.959 . S
C308 H294 0.961 . S
C308 C307 1.502 1_545 S
C309 H295 0.960 . S
C309 H296 0.961 . S
C309 H297 0.959 . S
C309 C307 1.561 . S
C310 C307 1.526 . S
C310 C311 1.396 1_565 S
C310 C315 1.390 . S
C311 C305 1.465 . S
C311 C310 1.396 1_545 S
C311 C312 1.399 . S
C312 H298 0.929 . S
C312 C311 1.399 . S
C312 C313 1.385 . S
C313 H299 0.931 . S
C313 C312 1.385 . S
C313 C314 1.389 1_545 S
C314 C313 1.389 1_565 S
C314 C315 1.387 . S
C315 H300 0.930 . S
C315 C310 1.390 . S
C315 C314 1.387 . S
H316 C328 0.923 1_455 S
H317 C330 0.930 . S
H318 C331 0.930 . S
H319 C335 0.959 . S
H320 C335 0.959 . S
H321 C335 0.961 . S
H322 C336 0.960 . S
H323 C336 0.961 . S
H324 C336 0.959 . S
H325 C339 0.929 . S
H326 C340 0.931 . S
H327 C342 0.930 1_455 S
C328 H316 0.923 1_655 S
C328 C329 1.399 . S
C328 C333 1.399 . S
C329 C328 1.399 . S
C329 C330 1.376 . S
C330 H317 0.930 . S
C330 C329 1.376 . S
C330 C331 1.388 . S
C331 H318 0.930 . S
C331 C330 1.388 . S
C331 C332 1.390 . S
C332 C331 1.390 . S
C332 C333 1.394 . S
C332 C338 1.465 . S
C333 C328 1.399 . S
C333 C332 1.394 . S
C333 C334 1.516 . S
C334 C333 1.516 . S
C334 C335 1.502 1_655 S
C334 C336 1.561 . S
C334 C337 1.526 . S
C335 H319 0.959 . S
C335 H320 0.959 . S
C335 H321 0.961 . S
C335 C334 1.502 1_455 S
C336 H322 0.960 . S
C336 H323 0.961 . S
C336 H324 0.959 . S
C336 C334 1.561 . S
C337 C334 1.526 . S
C337 C338 1.396 . S
C337 C342 1.390 . S
C338 C332 1.465 . S
C338 C337 1.396 . S
C338 C339 1.399 . S
C339 H325 0.929 . S
C339 C338 1.399 . S
C339 C340 1.385 . S
C340 H326 0.931 . S
C340 C339 1.385 . S
C340 C341 1.389 . S
C341 C340 1.389 . S
C341 C342 1.387 . S
C342 H327 0.930 1_655 S
C342 C337 1.390 . S
C342 C341 1.387 . S
H343 C355 0.930 . S
H344 C357 0.930 . S
H345 C358 0.930 . S
H346 C362 0.959 . S
H347 C362 0.959 . S
H348 C362 0.961 . S
H349 C363 0.960 . S
H350 C363 0.961 . S
H351 C363 0.959 . S
H352 C366 0.929 . S
H353 C367 0.931 . S
H354 C369 0.930 . S
C355 H343 0.930 . S
C355 C356 1.399 1_545 S
C355 C360 1.399 . S
C356 C355 1.399 1_565 S
C356 C357 1.376 . S
C357 H344 0.930 . S
C357 C356 1.376 . S
C357 C358 1.388 . S
C358 H345 0.930 . S
C358 C357 1.388 . S
C358 C359 1.390 . S
C359 C358 1.390 . S
C359 C360 1.394 1_565 S
C359 C365 1.465 . S
C360 C355 1.399 . S
C360 C359 1.394 1_545 S
C360 C361 1.516 . S
C361 C360 1.516 . S
C361 C362 1.502 . S
C361 C363 1.561 . S
C361 C364 1.526 . S
C362 H346 0.959 . S
C362 H347 0.959 . S
C362 H348 0.961 . S
C362 C361 1.502 . S
C363 H349 0.960 . S
C363 H350 0.961 . S
C363 H351 0.959 . S
C363 C361 1.561 . S
C364 C361 1.526 . S
C364 C365 1.396 1_545 S
C364 C369 1.390 . S
C365 C359 1.465 . S
C365 C364 1.396 1_565 S
C365 C366 1.399 . S
C366 H352 0.929 . S
C366 C365 1.399 . S
C366 C367 1.385 . S
C367 H353 0.931 . S
C367 C366 1.385 . S
C367 C368 1.389 1_565 S
C368 C367 1.389 1_545 S
C368 C369 1.387 . S
C369 H354 0.930 . S
C369 C364 1.390 . S
C369 C368 1.387 . S
H370 C382 0.930 . S
H371 C384 0.930 . S
H372 C385 0.930 . S
H373 C389 0.959 . S
H374 C389 0.959 . S
H375 C389 0.961 . S
H376 C390 0.960 . S
H377 C390 0.961 . S
H378 C390 0.959 1_455 S
H379 C393 0.929 . S
H380 C394 0.931 . S
H381 C396 0.930 . S
C382 H370 0.930 . S
C382 C383 1.399 . S
C382 C387 1.399 . S
C383 C382 1.399 . S
C383 C384 1.376 1_655 S
C384 H371 0.930 . S
C384 C383 1.376 1_455 S
C384 C385 1.388 . S
C385 H372 0.930 . S
C385 C384 1.388 . S
C385 C386 1.390 . S
C386 C385 1.390 . S
C386 C387 1.394 1_455 S
C386 C392 1.465 . S
C387 C382 1.399 . S
C387 C386 1.394 1_655 S
C387 C388 1.516 . S
C388 C387 1.516 . S
C388 C389 1.502 . S
C388 C390 1.561 . S
C388 C391 1.526 . S
C389 H373 0.959 . S
C389 H374 0.959 . S
C389 H375 0.961 . S
C389 C388 1.502 . S
C390 H376 0.960 . S
C390 H377 0.961 . S
C390 H378 0.959 1_655 S
C390 C388 1.561 . S
C391 C388 1.526 . S
C391 C392 1.396 1_655 S
C391 C396 1.390 . S
C392 C386 1.465 . S
C392 C391 1.396 1_455 S
C392 C393 1.399 . S
C393 H379 0.929 . S
C393 C392 1.399 . S
C393 C394 1.385 . S
C394 H380 0.931 . S
C394 C393 1.385 . S
C394 C395 1.389 . S
C395 C394 1.389 . S
C395 C396 1.387 1_455 S
C396 H381 0.930 . S
C396 C391 1.390 . S
C396 C395 1.387 1_655 S
H397 C409 0.930 . S
H398 C411 0.930 . S
H399 C412 0.930 . S
H400 C416 0.959 . S
H401 C416 0.959 . S
H402 C416 0.961 . S
H403 C417 0.960 . S
H404 C417 0.961 . S
H405 C417 0.959 . S
H406 C420 0.929 . S
H407 C421 0.931 . S
H408 C423 0.930 . S
C409 H397 0.930 . S
C409 C410 1.396 1_565 S
C409 C414 1.399 . S
C410 C409 1.396 1_545 S
C410 C411 1.381 . S
C411 H398 0.930 . S
C411 C410 1.381 . S
C411 C412 1.388 . S
C412 H399 0.930 . S
C412 C411 1.388 . S
C412 C413 1.390 . S
C413 C412 1.390 . S
C413 C414 1.394 1_545 S
C413 C419 1.465 . S
C414 C409 1.399 . S
C414 C413 1.394 1_565 S
C414 C415 1.516 . S
C415 C414 1.516 . S
C415 C416 1.502 . S
C415 C417 1.561 . S
C415 C418 1.526 . S
C416 H400 0.959 . S
C416 H401 0.959 . S
C416 H402 0.961 . S
C416 C415 1.502 . S
C417 H403 0.960 . S
C417 H404 0.961 . S
C417 H405 0.959 . S
C417 C415 1.561 . S
C418 C415 1.526 . S
C418 C419 1.396 1_565 S
C418 C423 1.390 . S
C419 C413 1.465 . S
C419 C418 1.396 1_545 S
C419 C420 1.399 . S
C420 H406 0.929 . S
C420 C419 1.399 . S
C420 C421 1.385 . S
C421 H407 0.931 . S
C421 C420 1.385 . S
C421 C422 1.389 . S
C422 C421 1.389 . S
C422 C423 1.387 1_545 S
C423 H408 0.930 . S
C423 C418 1.390 . S
C423 C422 1.387 1_565 S
H424 C436 0.930 . S
H425 C438 0.930 . S
H426 C439 0.930 . S
H427 C443 0.959 . S
H428 C443 0.959 . S
H429 C443 0.961 . S
H430 C444 0.960 . S
H431 C444 0.961 . S
H432 C444 0.959 . S
H433 C447 0.929 . S
H434 C448 0.931 . S
H435 C450 0.930 . S
C436 H424 0.930 . S
C436 C437 1.399 . S
C436 C441 1.399 . S
C437 C436 1.399 . S
C437 C438 1.376 1_554 S
C438 H425 0.930 . S
C438 C437 1.376 1_556 S
C438 C439 1.388 . S
C439 H426 0.930 . S
C439 C438 1.388 . S
C439 C440 1.390 . S
C440 C439 1.390 . S
C440 C441 1.394 1_556 S
C440 C446 1.465 . S
C441 C436 1.399 . S
C441 C440 1.394 1_554 S
C441 C442 1.516 . S
C442 C441 1.516 . S
C442 C443 1.502 . S
C442 C444 1.561 . S
C442 C445 1.526 . S
C443 H427 0.959 . S
C443 H428 0.959 . S
C443 H429 0.961 . S
C443 C442 1.502 . S
C444 H430 0.960 . S
C444 H431 0.961 . S
C444 H432 0.959 . S
C444 C442 1.561 . S
C445 C442 1.526 . S
C445 C446 1.396 1_554 S
C445 C450 1.390 . S
C446 C440 1.465 . S
C446 C445 1.396 1_556 S
C446 C447 1.399 . S
C447 H433 0.929 . S
C447 C446 1.399 . S
C447 C448 1.385 . S
C448 H434 0.931 . S
C448 C447 1.385 . S
C448 C449 1.389 1_556 S
C449 C448 1.389 1_554 S
C449 C450 1.387 . S
C450 H435 0.930 . S
C450 C445 1.390 . S
C450 C449 1.387 . S
H451 C463 0.930 . S
H452 C465 0.930 . S
H453 C466 0.930 . S
H454 C470 0.959 . S
H455 C470 0.959 . S
H456 C470 0.961 . S
H457 C471 0.960 . S
H458 C471 0.961 . S
H459 C471 0.959 . S
H460 C474 0.929 . S
H461 C475 0.931 . S
H462 C477 0.930 . S
C463 H451 0.930 . S
C463 C464 1.399 1_556 S
C463 C468 1.399 . S
C464 C463 1.399 1_554 S
C464 C465 1.376 . S
C465 H452 0.930 . S
C465 C464 1.376 . S
C465 C466 1.388 . S
C466 H453 0.930 . S
C466 C465 1.388 . S
C466 C467 1.390 . S
C467 C466 1.390 . S
C467 C468 1.394 1_554 S
C467 C473 1.465 . S
C468 C463 1.399 . S
C468 C467 1.394 1_556 S
C468 C469 1.516 . S
C469 C468 1.516 . S
C469 C470 1.502 . S
C469 C471 1.561 . S
C469 C472 1.526 . S
C470 H454 0.959 . S
C470 H455 0.959 . S
C470 H456 0.961 . S
C470 C469 1.502 . S
C471 H457 0.960 . S
C471 H458 0.961 . S
C471 H459 0.959 . S
C471 C469 1.561 . S
C472 C469 1.526 . S
C472 C473 1.396 1_556 S
C472 C477 1.390 . S
C473 C467 1.465 . S
C473 C472 1.396 1_554 S
C473 C474 1.399 . S
C474 H460 0.929 . S
C474 C473 1.399 . S
C474 C475 1.385 . S
C475 H461 0.931 . S
C475 C474 1.385 . S
C475 C476 1.389 . S
C476 C475 1.389 . S
C476 C477 1.387 1_554 S
C477 H462 0.930 . S
C477 C472 1.390 . S
C477 C476 1.387 1_556 S
H478 C490 0.930 . S
H479 C492 0.930 . S
H480 C493 0.930 . S
H481 C497 0.959 . S
H482 C497 0.959 . S
H483 C497 0.961 . S
H484 C498 0.960 . S
H485 C498 0.961 . S
H486 C498 0.959 . S
H487 C501 0.929 . S
H488 C502 0.931 . S
H489 C504 0.930 . S
C490 H478 0.930 . S
C490 C491 1.399 1_556 S
C490 C495 1.399 . S
C491 C490 1.399 1_554 S
C491 C492 1.376 . S
C492 H479 0.930 . S
C492 C491 1.376 . S
C492 C493 1.388 . S
C493 H480 0.930 . S
C493 C492 1.388 . S
C493 C494 1.390 . S
C494 C493 1.390 . S
C494 C495 1.394 1_554 S
C494 C500 1.465 . S
C495 C490 1.399 . S
C495 C494 1.394 1_556 S
C495 C496 1.516 . S
C496 C495 1.516 . S
C496 C497 1.502 . S
C496 C498 1.561 . S
C496 C499 1.526 . S
C497 H481 0.959 . S
C497 H482 0.959 . S
C497 H483 0.961 . S
C497 C496 1.502 . S
C498 H484 0.960 . S
C498 H485 0.961 . S
C498 H486 0.959 . S
C498 C496 1.561 . S
C499 C496 1.526 . S
C499 C500 1.396 1_556 S
C499 C504 1.390 . S
C500 C494 1.465 . S
C500 C499 1.396 1_554 S
C500 C501 1.399 . S
C501 H487 0.929 . S
C501 C500 1.399 . S
C501 C502 1.385 . S
C502 H488 0.931 . S
C502 C501 1.385 . S
C502 C503 1.389 . S
C503 C502 1.389 . S
C503 C504 1.387 1_554 S
C504 H489 0.930 . S
C504 C499 1.390 . S
C504 C503 1.387 1_556 S
H505 C517 0.930 . S
H506 C519 0.930 . S
H507 C520 0.930 . S
H508 C524 0.959 . S
H509 C524 0.959 . S
H510 C524 0.961 . S
H511 C525 0.960 . S
H512 C525 0.961 . S
H513 C525 0.959 . S
H514 C528 0.929 . S
H515 C529 0.931 . S
H516 C531 0.930 . S
C517 H505 0.930 . S
C517 C518 1.399 . S
C517 C522 1.399 . S
C518 C517 1.399 . S
C518 C519 1.376 1_554 S
C519 H506 0.930 . S
C519 C518 1.376 1_556 S
C519 C520 1.388 . S
C520 H507 0.930 . S
C520 C519 1.388 . S
C520 C521 1.390 . S
C521 C520 1.390 . S
C521 C522 1.394 1_556 S
C521 C527 1.465 . S
C522 C517 1.399 . S
C522 C521 1.394 1_554 S
C522 C523 1.516 . S
C523 C522 1.516 . S
C523 C524 1.502 . S
C523 C525 1.561 . S
C523 C526 1.526 . S
C524 H508 0.959 . S
C524 H509 0.959 . S
C524 H510 0.961 . S
C524 C523 1.502 . S
C525 H511 0.960 . S
C525 H512 0.961 . S
C525 H513 0.959 . S
C525 C523 1.561 . S
C526 C523 1.526 . S
C526 C527 1.396 1_554 S
C526 C531 1.390 . S
C527 C521 1.465 . S
C527 C526 1.396 1_556 S
C527 C528 1.399 . S
C528 H514 0.929 . S
C528 C527 1.399 . S
C528 C529 1.385 . S
C529 H515 0.931 . S
C529 C528 1.385 . S
C529 C530 1.399 . S
C530 C529 1.399 . S
C530 C531 1.379 1_556 S
C531 H516 0.930 . S
C531 C526 1.390 . S
C531 C530 1.379 1_554 S
H532 C544 0.930 . S
H533 C546 0.930 . S
H534 C547 0.930 . S
H535 C551 0.959 . S
H536 C551 0.959 . S
H537 C551 0.961 . S
H538 C552 0.960 . S
H539 C552 0.961 . S
H540 C552 0.959 . S
H541 C555 0.929 . S
H542 C556 0.931 . S
H543 C558 0.930 . S
C544 H532 0.930 . S
C544 C545 1.399 . S
C544 C549 1.399 . S
C545 C544 1.399 . S
C545 C546 1.376 . S
C546 H533 0.930 . S
C546 C545 1.376 . S
C546 C547 1.388 . S
C547 H534 0.930 . S
C547 C546 1.388 . S
C547 C548 1.390 . S
C548 C547 1.390 . S
C548 C549 1.394 . S
C548 C554 1.465 . S
C549 C544 1.399 . S
C549 C548 1.394 . S
C549 C550 1.516 . S
C550 C549 1.516 . S
C550 C551 1.502 . S
C550 C552 1.561 . S
C550 C553 1.526 . S
C551 H535 0.959 . S
C551 H536 0.959 . S
C551 H537 0.961 . S
C551 C550 1.502 . S
C552 H538 0.960 . S
C552 H539 0.961 . S
C552 H540 0.959 . S
C552 C550 1.561 . S
C553 C550 1.526 . S
C553 C554 1.396 . S
C553 C558 1.390 . S
C554 C548 1.465 . S
C554 C553 1.396 . S
C554 C555 1.399 . S
C555 H541 0.929 . S
C555 C554 1.399 . S
C555 C556 1.385 . S
C556 H542 0.931 . S
C556 C555 1.385 . S
C556 C557 1.389 . S
C557 C556 1.389 . S
C557 C558 1.387 . S
C558 H543 0.930 . S
C558 C553 1.390 . S
C558 C557 1.387 . S
H559 C571 0.930 . S
H560 C573 0.930 . S
H561 C574 0.930 . S
H562 C578 0.959 . S
H563 C578 0.959 . S
H564 C578 0.961 . S
H565 C579 0.960 . S
H566 C579 0.961 . S
H567 C579 0.959 . S
H568 C582 0.929 . S
H569 C583 0.931 . S
H570 C585 0.930 . S
C571 H559 0.930 . S
C571 C572 1.399 . S
C571 C576 1.399 . S
C572 C571 1.399 . S
C572 C573 1.376 . S
C573 H560 0.930 . S
C573 C572 1.376 . S
C573 C574 1.388 . S
C574 H561 0.930 . S
C574 C573 1.388 . S
C574 C575 1.390 . S
C575 C574 1.390 . S
C575 C576 1.394 . S
C575 C581 1.465 . S
C576 C571 1.399 . S
C576 C575 1.394 . S
C576 C577 1.516 . S
C577 C576 1.516 . S
C577 C578 1.502 . S
C577 C579 1.561 . S
C577 C580 1.526 . S
C578 H562 0.959 . S
C578 H563 0.959 . S
C578 H564 0.961 . S
C578 C577 1.502 . S
C579 H565 0.960 . S
C579 H566 0.961 . S
C579 H567 0.959 . S
C579 C577 1.561 . S
C580 C577 1.526 . S
C580 C581 1.396 . S
C580 C585 1.390 . S
C581 C575 1.465 . S
C581 C580 1.396 . S
C581 C582 1.399 . S
C582 H568 0.929 . S
C582 C581 1.399 . S
C582 C583 1.385 . S
C583 H569 0.931 . S
C583 C582 1.385 . S
C583 C584 1.389 . S
C584 C583 1.389 . S
C584 C585 1.387 . S
C585 H570 0.930 . S
C585 C580 1.390 . S
C585 C584 1.387 . S
H586 C598 0.930 . S
H587 C600 0.930 . S
H588 C601 0.930 . S
H589 C605 0.959 . S
H590 C605 0.959 . S
H591 C605 0.961 . S
H592 C606 0.960 . S
H593 C606 0.961 . S
H594 C606 0.959 . S
H595 C609 0.929 . S
H596 C610 0.931 . S
H597 C612 0.930 . S
C598 H586 0.930 . S
C598 C599 1.399 . S
C598 C603 1.399 . S
C599 C598 1.399 . S
C599 C600 1.376 . S
C600 H587 0.930 . S
C600 C599 1.376 . S
C600 C601 1.388 . S
C601 H588 0.930 . S
C601 C600 1.388 . S
C601 C602 1.390 . S
C602 C601 1.390 . S
C602 C603 1.394 . S
C602 C608 1.465 . S
C603 C598 1.399 . S
C603 C602 1.394 . S
C603 C604 1.516 . S
C604 C603 1.516 . S
C604 C605 1.502 . S
C604 C606 1.561 . S
C604 C607 1.526 . S
C605 H589 0.959 . S
C605 H590 0.959 . S
C605 H591 0.961 . S
C605 C604 1.502 . S
C606 H592 0.960 . S
C606 H593 0.961 . S
C606 H594 0.959 . S
C606 C604 1.561 . S
C607 C604 1.526 . S
C607 C608 1.396 . S
C607 C612 1.390 . S
C608 C602 1.465 . S
C608 C607 1.396 . S
C608 C609 1.399 . S
C609 H595 0.929 . S
C609 C608 1.399 . S
C609 C610 1.385 . S
C610 H596 0.931 . S
C610 C609 1.385 . S
C610 C611 1.389 . S
C611 C610 1.389 . S
C611 C612 1.387 . S
C612 H597 0.930 . S
C612 C607 1.390 . S
C612 C611 1.387 . S
H613 C625 0.930 . S
H614 C627 0.930 . S
H615 C628 0.930 . S
H616 C632 0.959 . S
H617 C632 0.959 . S
H618 C632 0.961 . S
H619 C633 0.960 . S
H620 C633 0.961 . S
H621 C633 0.959 . S
H622 C636 0.929 . S
H623 C637 0.931 . S
H624 C639 0.930 . S
C625 H613 0.930 . S
C625 C626 1.399 . S
C625 C630 1.399 . S
C626 C625 1.399 . S
C626 C627 1.376 . S
C627 H614 0.930 . S
C627 C626 1.376 . S
C627 C628 1.388 . S
C628 H615 0.930 . S
C628 C627 1.388 . S
C628 C629 1.390 . S
C629 C628 1.390 . S
C629 C630 1.394 . S
C629 C635 1.465 . S
C630 C625 1.399 . S
C630 C629 1.394 . S
C630 C631 1.516 . S
C631 C630 1.516 . S
C631 C632 1.502 . S
C631 C633 1.561 . S
C631 C634 1.526 . S
C632 H616 0.959 . S
C632 H617 0.959 . S
C632 H618 0.961 . S
C632 C631 1.502 . S
C633 H619 0.960 . S
C633 H620 0.961 . S
C633 H621 0.959 . S
C633 C631 1.561 . S
C634 C631 1.526 . S
C634 C635 1.396 . S
C634 C639 1.390 . S
C635 C629 1.465 . S
C635 C634 1.396 . S
C635 C636 1.399 . S
C636 H622 0.929 . S
C636 C635 1.399 . S
C636 C637 1.385 . S
C637 H623 0.931 . S
C637 C636 1.385 . S
C637 C638 1.389 . S
C638 C637 1.389 . S
C638 C639 1.387 . S
C639 H624 0.930 . S
C639 C634 1.390 . S
C639 C638 1.387 . S
H640 C652 0.930 . S
H641 C654 0.930 . S
H642 C655 0.930 . S
H643 C659 0.959 . S
H644 C659 0.959 . S
H645 C659 0.961 . S
H646 C660 0.960 . S
H647 C660 0.961 . S
H648 C660 0.959 . S
H649 C663 0.929 . S
H650 C664 0.931 . S
H651 C666 0.930 . S
C652 H640 0.930 . S
C652 C653 1.399 . S
C652 C657 1.399 . S
C653 C652 1.399 . S
C653 C654 1.376 . S
C654 H641 0.930 . S
C654 C653 1.376 . S
C654 C655 1.388 . S
C655 H642 0.930 . S
C655 C654 1.388 . S
C655 C656 1.390 . S
C656 C655 1.390 . S
C656 C657 1.394 . S
C656 C662 1.465 . S
C657 C652 1.399 . S
C657 C656 1.394 . S
C657 C658 1.516 . S
C658 C657 1.516 . S
C658 C659 1.502 . S
C658 C660 1.561 . S
C658 C661 1.526 . S
C659 H643 0.959 . S
C659 H644 0.959 . S
C659 H645 0.961 . S
C659 C658 1.502 . S
C660 H646 0.960 . S
C660 H647 0.961 . S
C660 H648 0.959 . S
C660 C658 1.561 . S
C661 C658 1.526 . S
C661 C662 1.396 . S
C661 C666 1.390 . S
C662 C656 1.465 . S
C662 C661 1.396 . S
C662 C663 1.399 . S
C663 H649 0.929 . S
C663 C662 1.399 . S
C663 C664 1.385 . S
C664 H650 0.931 . S
C664 C663 1.385 . S
C664 C665 1.389 . S
C665 C664 1.389 . S
C665 C666 1.387 . S
C666 H651 0.930 . S
C666 C661 1.390 . S
C666 C665 1.387 . S
H667 C679 0.930 . S
H668 C681 0.930 . S
H669 C682 0.930 . S
H670 C686 0.959 . S
H671 C686 0.959 . S
H672 C686 0.961 . S
H673 C687 0.960 . S
H674 C687 0.961 . S
H675 C687 0.959 . S
H676 C690 0.929 . S
H677 C691 0.931 . S
H678 C693 0.930 . S
C679 H667 0.930 . S
C679 C680 1.399 . S
C679 C684 1.399 . S
C680 C679 1.399 . S
C680 C681 1.376 . S
C681 H668 0.930 . S
C681 C680 1.376 . S
C681 C682 1.388 . S
C682 H669 0.930 . S
C682 C681 1.388 . S
C682 C683 1.390 . S
C683 C682 1.390 . S
C683 C684 1.394 . S
C683 C689 1.465 . S
C684 C679 1.399 . S
C684 C683 1.394 . S
C684 C685 1.516 . S
C685 C684 1.516 . S
C685 C686 1.502 . S
C685 C687 1.561 . S
C685 C688 1.526 . S
C686 H670 0.959 . S
C686 H671 0.959 . S
C686 H672 0.961 . S
C686 C685 1.502 . S
C687 H673 0.960 . S
C687 H674 0.961 . S
C687 H675 0.959 . S
C687 C685 1.561 . S
C688 C685 1.526 . S
C688 C689 1.396 . S
C688 C693 1.390 . S
C689 C683 1.465 . S
C689 C688 1.396 . S
C689 C690 1.399 . S
C690 H676 0.929 . S
C690 C689 1.399 . S
C690 C691 1.385 . S
C691 H677 0.931 . S
C691 C690 1.385 . S
C691 C692 1.389 . S
C692 C691 1.389 . S
C692 C693 1.387 . S
C693 H678 0.930 . S
C693 C688 1.390 . S
C693 C692 1.387 . S
H694 C706 0.930 . S
H695 C708 0.930 . S
H696 C709 0.930 . S
H697 C713 0.959 . S
H698 C713 0.959 . S
H699 C713 0.961 . S
H700 C714 0.960 . S
H701 C714 0.961 . S
H702 C714 0.959 . S
H703 C717 0.929 . S
H704 C718 0.931 . S
H705 C720 0.930 . S
C706 H694 0.930 . S
C706 C707 1.399 . S
C706 C711 1.399 . S
C707 C706 1.399 . S
C707 C708 1.376 . S
C708 H695 0.930 . S
C708 C707 1.376 . S
C708 C709 1.388 . S
C709 H696 0.930 . S
C709 C708 1.388 . S
C709 C710 1.390 . S
C710 C709 1.390 . S
C710 C711 1.394 . S
C710 C716 1.465 . S
C711 C706 1.399 . S
C711 C710 1.394 . S
C711 C712 1.516 . S
C712 C711 1.516 . S
C712 C713 1.502 . S
C712 C714 1.561 . S
C712 C715 1.526 . S
C713 H697 0.959 . S
C713 H698 0.959 . S
C713 H699 0.961 . S
C713 C712 1.502 . S
C714 H700 0.960 . S
C714 H701 0.961 . S
C714 H702 0.959 . S
C714 C712 1.561 . S
C715 C712 1.526 . S
C715 C716 1.396 . S
C715 C720 1.390 . S
C716 C710 1.465 . S
C716 C715 1.396 . S
C716 C717 1.399 . S
C717 H703 0.929 . S
C717 C716 1.399 . S
C717 C718 1.385 . S
C718 H704 0.931 . S
C718 C717 1.385 . S
C718 C719 1.389 . S
C719 C718 1.389 . S
C719 C720 1.387 . S
C720 H705 0.930 . S
C720 C715 1.390 . S
C720 C719 1.387 . S
H721 C733 0.930 . S
H722 C735 0.930 . S
H723 C736 0.930 . S
H724 C740 0.959 . S
H725 C740 0.959 . S
H726 C740 0.961 . S
H727 C741 0.960 . S
H728 C741 0.961 . S
H729 C741 0.959 . S
H730 C744 0.929 . S
H731 C745 0.931 . S
H732 C747 0.930 . S
C733 H721 0.930 . S
C733 C734 1.399 . S
C733 C738 1.399 . S
C734 C733 1.399 . S
C734 C735 1.376 . S
C735 H722 0.930 . S
C735 C734 1.376 . S
C735 C736 1.388 . S
C736 H723 0.930 . S
C736 C735 1.388 . S
C736 C737 1.390 . S
C737 C736 1.390 . S
C737 C738 1.394 . S
C737 C743 1.465 . S
C738 C733 1.399 . S
C738 C737 1.394 . S
C738 C739 1.516 . S
C739 C738 1.516 . S
C739 C740 1.502 . S
C739 C741 1.561 . S
C739 C742 1.526 . S
C740 H724 0.959 . S
C740 H725 0.959 . S
C740 H726 0.961 . S
C740 C739 1.502 . S
C741 H727 0.960 . S
C741 H728 0.961 . S
C741 H729 0.959 . S
C741 C739 1.561 . S
C742 C739 1.526 . S
C742 C743 1.396 . S
C742 C747 1.390 . S
C743 C737 1.465 . S
C743 C742 1.396 . S
C743 C744 1.399 . S
C744 H730 0.929 . S
C744 C743 1.399 . S
C744 C745 1.385 . S
C745 H731 0.931 . S
C745 C744 1.385 . S
C745 C746 1.389 . S
C746 C745 1.389 . S
C746 C747 1.387 . S
C747 H732 0.930 . S
C747 C742 1.390 . S
C747 C746 1.387 . S
H748 C760 0.930 . S
H749 C762 0.930 . S
H750 C763 0.930 . S
H751 C767 0.959 . S
H752 C767 0.959 . S
H753 C767 0.961 . S
H754 C768 0.960 . S
H755 C768 0.961 . S
H756 C768 0.959 . S
H757 C771 0.929 . S
H758 C772 0.931 . S
H759 C774 0.930 . S
C760 H748 0.930 . S
C760 C761 1.399 . S
C760 C765 1.399 . S
C761 C760 1.399 . S
C761 C762 1.376 . S
C762 H749 0.930 . S
C762 C761 1.376 . S
C762 C763 1.388 . S
C763 H750 0.930 . S
C763 C762 1.388 . S
C763 C764 1.390 . S
C764 C763 1.390 . S
C764 C765 1.394 . S
C764 C770 1.465 . S
C765 C760 1.399 . S
C765 C764 1.394 . S
C765 C766 1.516 . S
C766 C765 1.516 . S
C766 C767 1.502 . S
C766 C768 1.561 . S
C766 C769 1.526 . S
C767 H751 0.959 . S
C767 H752 0.959 . S
C767 H753 0.961 . S
C767 C766 1.502 . S
C768 H754 0.960 . S
C768 H755 0.961 . S
C768 H756 0.959 . S
C768 C766 1.561 . S
C769 C766 1.526 . S
C769 C770 1.396 . S
C769 C774 1.390 . S
C770 C764 1.465 . S
C770 C769 1.396 . S
C770 C771 1.399 . S
C771 H757 0.929 . S
C771 C770 1.399 . S
C771 C772 1.385 . S
C772 H758 0.931 . S
C772 C771 1.385 . S
C772 C773 1.389 . S
C773 C772 1.389 . S
C773 C774 1.387 . S
C774 H759 0.930 . S
C774 C769 1.390 . S
C774 C773 1.387 . S
H775 C787 0.930 . S
H776 C789 0.930 . S
H777 C790 0.930 . S
H778 C794 0.959 . S
H779 C794 0.959 . S
H780 C794 0.961 . S
H781 C795 0.960 . S
H782 C795 0.961 . S
H783 C795 0.959 . S
H784 C798 0.929 . S
H785 C799 0.931 . S
H786 C801 0.930 . S
C787 H775 0.930 . S
C787 C788 1.399 . S
C787 C792 1.399 . S
C788 C787 1.399 . S
C788 C789 1.376 . S
C789 H776 0.930 . S
C789 C788 1.376 . S
C789 C790 1.388 . S
C790 H777 0.930 . S
C790 C789 1.388 . S
C790 C791 1.390 . S
C791 C790 1.390 . S
C791 C792 1.394 . S
C791 C797 1.465 . S
C792 C787 1.399 . S
C792 C791 1.394 . S
C792 C793 1.516 . S
C793 C792 1.516 . S
C793 C794 1.502 . S
C793 C795 1.561 . S
C793 C796 1.526 . S
C794 H778 0.959 . S
C794 H779 0.959 . S
C794 H780 0.961 . S
C794 C793 1.502 . S
C795 H781 0.960 . S
C795 H782 0.961 . S
C795 H783 0.959 . S
C795 C793 1.561 . S
C796 C793 1.526 . S
C796 C797 1.396 . S
C796 C801 1.390 . S
C797 C791 1.465 . S
C797 C796 1.396 . S
C797 C798 1.399 . S
C798 H784 0.929 . S
C798 C797 1.399 . S
C798 C799 1.385 . S
C799 H785 0.931 . S
C799 C798 1.385 . S
C799 C800 1.389 . S
C800 C799 1.389 . S
C800 C801 1.387 . S
C801 H786 0.930 . S
C801 C796 1.390 . S
C801 C800 1.387 . S
H802 C814 0.930 . S
H803 C816 0.930 . S
H804 C817 0.930 . S
H805 C821 0.959 . S
H806 C821 0.959 . S
H807 C821 0.961 . S
H808 C822 0.960 . S
H809 C822 0.961 . S
H810 C822 0.959 . S
H811 C825 0.929 . S
H812 C826 0.931 . S
H813 C828 0.930 . S
C814 H802 0.930 . S
C814 C815 1.399 . S
C814 C819 1.399 . S
C815 C814 1.399 . S
C815 C816 1.376 . S
C816 H803 0.930 . S
C816 C815 1.376 . S
C816 C817 1.388 . S
C817 H804 0.930 . S
C817 C816 1.388 . S
C817 C818 1.390 . S
C818 C817 1.390 . S
C818 C819 1.394 . S
C818 C824 1.465 . S
C819 C814 1.399 . S
C819 C818 1.394 . S
C819 C820 1.516 . S
C820 C819 1.516 . S
C820 C821 1.502 . S
C820 C822 1.561 . S
C820 C823 1.526 . S
C821 H805 0.959 . S
C821 H806 0.959 . S
C821 H807 0.961 . S
C821 C820 1.502 . S
C822 H808 0.960 . S
C822 H809 0.961 . S
C822 H810 0.959 . S
C822 C820 1.561 . S
C823 C820 1.526 . S
C823 C824 1.396 . S
C823 C828 1.390 . S
C824 C818 1.465 . S
C824 C823 1.396 . S
C824 C825 1.399 . S
C825 H811 0.929 . S
C825 C824 1.399 . S
C825 C826 1.385 . S
C826 H812 0.931 . S
C826 C825 1.385 . S
C826 C827 1.389 . S
C827 C826 1.389 . S
C827 C828 1.387 . S
C828 H813 0.930 . S
C828 C823 1.390 . S
C828 C827 1.387 . S
H829 C841 0.930 . S
H830 C843 0.930 . S
H831 C844 0.930 . S
H832 C848 0.959 . S
H833 C848 0.959 . S
H834 C848 0.961 . S
H835 C849 0.960 . S
H836 C849 0.961 . S
H837 C849 0.959 . S
H838 C852 0.929 . S
H839 C853 0.931 . S
H840 C855 0.930 . S
C841 H829 0.930 . S
C841 C842 1.399 . S
C841 C846 1.399 . S
C842 C841 1.399 . S
C842 C843 1.376 . S
C843 H830 0.930 . S
C843 C842 1.376 . S
C843 C844 1.388 . S
C844 H831 0.930 . S
C844 C843 1.388 . S
C844 C845 1.390 . S
C845 C844 1.390 . S
C845 C846 1.394 . S
C845 C851 1.465 . S
C846 C841 1.399 . S
C846 C845 1.394 . S
C846 C847 1.516 . S
C847 C846 1.516 . S
C847 C848 1.502 . S
C847 C849 1.561 . S
C847 C850 1.526 . S
C848 H832 0.959 . S
C848 H833 0.959 . S
C848 H834 0.961 . S
C848 C847 1.502 . S
C849 H835 0.960 . S
C849 H836 0.961 . S
C849 H837 0.959 . S
C849 C847 1.561 . S
C850 C847 1.526 . S
C850 C851 1.396 . S
C850 C855 1.390 . S
C851 C845 1.465 . S
C851 C850 1.396 . S
C851 C852 1.399 . S
C852 H838 0.929 . S
C852 C851 1.399 . S
C852 C853 1.385 . S
C853 H839 0.931 . S
C853 C852 1.385 . S
C853 C854 1.389 . S
C854 C853 1.389 . S
C854 C855 1.387 . S
C855 H840 0.930 . S
C855 C850 1.390 . S
C855 C854 1.387 . S
C221 C42 1.891 . S
C233 C102 1.862 . S
C248 C26 1.778 . S
C260 C152 1.683 1_565 S
C275 C36 1.747 1_655 S
C287 C78 1.793 1_455 S
C302 C154 1.687 . S
C314 C32 1.770 1_565 S
C329 C4 1.847 . S
C341 C84 1.854 1_655 S
C356 C48 1.731 1_565 S
C368 C130 1.695 . S
C383 C100 1.851 . S
C395 C18 1.913 . S
C410 C136 1.688 . S
C422 C50 1.758 . S
C437 C201 0.774 . S
C449 C34 0.753 . S
C464 C186 0.658 . S
C476 C39 0.669 . S
C491 C190 0.683 . S
C503 C45 0.699 . S
C518 C30 0.706 . S
C530 C195 0.727 1_556 S
C545 C188 1.225 . S
C557 C91 1.258 . S
C572 C86 1.318 . S
C584 C182 1.243 . S
C599 C97 1.347 . S
C611 C206 1.363 . S
C626 C204 1.347 . S
C638 C82 1.361 . S
C653 C134 1.100 . S
C665 C94 1.087 . S
C680 C70 1.188 . S
C692 C149 1.199 . S
C707 C88 1.034 . S
C719 C143 1.109 . S
C734 C138 1.191 . S
C746 C56 1.234 . S
C761 C198 1.778 . S
C773 C146 1.731 . S
C788 C140 1.741 . S
C800 C192 1.782 . S
C815 C160 1.927 . S
C827 C108 1.883 . S
C842 C122 1.874 . S
C854 C174 1.894 . S
