# Generated by pormake.
# Topology wkl, (6)-cn, num edge types: 1
# Building blocks:
#     Node 0, Type 0, BuildingBlock: OJICUG_clean_sbu_0, # of connection points: 6
#     Node 1, Type 0, BuildingBlock: OJICUG_clean_sbu_0, # of connection points: 6
#     Node 2, Type 0, BuildingBlock: OJICUG_clean_sbu_0, # of connection points: 6
#     Node 3, Type 0, BuildingBlock: OJICUG_clean_sbu_0, # of connection points: 6
#     Node 4, Type 0, BuildingBlock: OJICUG_clean_sbu_0, # of connection points: 6
#     Node 5, Type 0, BuildingBlock: OJICUG_clean_sbu_0, # of connection points: 6
#     Node 6, Type 0, BuildingBlock: OJICUG_clean_sbu_0, # of connection points: 6
#     Node 7, Type 0, BuildingBlock: OJICUG_clean_sbu_0, # of connection points: 6
#     Node 8, Type 0, BuildingBlock: OJICUG_clean_sbu_0, # of connection points: 6
#     Node 9, Type 0, BuildingBlock: OJICUG_clean_sbu_0, # of connection points: 6
#     Node 10, Type 0, BuildingBlock: OJICUG_clean_sbu_0, # of connection points: 6
#     Node 11, Type 0, BuildingBlock: OJICUG_clean_sbu_0, # of connection points: 6
#     Edge 12, Type (0, 0), BuildingBlock: UVAHIK_clean_linker_0, # of connection points: 2
#     Edge 13, Type (0, 0), BuildingBlock: UVAHIK_clean_linker_0, # of connection points: 2
#     Edge 14, Type (0, 0), BuildingBlock: UVAHIK_clean_linker_0, # of connection points: 2
#     Edge 15, Type (0, 0), BuildingBlock: UVAHIK_clean_linker_0, # of connection points: 2
#     Edge 16, Type (0, 0), BuildingBlock: UVAHIK_clean_linker_0, # of connection points: 2
#     Edge 17, Type (0, 0), BuildingBlock: UVAHIK_clean_linker_0, # of connection points: 2
#     Edge 18, Type (0, 0), BuildingBlock: UVAHIK_clean_linker_0, # of connection points: 2
#     Edge 19, Type (0, 0), BuildingBlock: UVAHIK_clean_linker_0, # of connection points: 2
#     Edge 20, Type (0, 0), BuildingBlock: UVAHIK_clean_linker_0, # of connection points: 2
#     Edge 21, Type (0, 0), BuildingBlock: UVAHIK_clean_linker_0, # of connection points: 2
#     Edge 22, Type (0, 0), BuildingBlock: UVAHIK_clean_linker_0, # of connection points: 2
#     Edge 23, Type (0, 0), BuildingBlock: UVAHIK_clean_linker_0, # of connection points: 2
#     Edge 24, Type (0, 0), BuildingBlock: UVAHIK_clean_linker_0, # of connection points: 2
#     Edge 25, Type (0, 0), BuildingBlock: UVAHIK_clean_linker_0, # of connection points: 2
#     Edge 26, Type (0, 0), BuildingBlock: UVAHIK_clean_linker_0, # of connection points: 2
#     Edge 27, Type (0, 0), BuildingBlock: UVAHIK_clean_linker_0, # of connection points: 2
#     Edge 28, Type (0, 0), BuildingBlock: UVAHIK_clean_linker_0, # of connection points: 2
#     Edge 29, Type (0, 0), BuildingBlock: UVAHIK_clean_linker_0, # of connection points: 2
#     Edge 30, Type (0, 0), BuildingBlock: UVAHIK_clean_linker_0, # of connection points: 2
#     Edge 31, Type (0, 0), BuildingBlock: UVAHIK_clean_linker_0, # of connection points: 2
#     Edge 32, Type (0, 0), BuildingBlock: UVAHIK_clean_linker_0, # of connection points: 2
#     Edge 33, Type (0, 0), BuildingBlock: UVAHIK_clean_linker_0, # of connection points: 2
#     Edge 34, Type (0, 0), BuildingBlock: UVAHIK_clean_linker_0, # of connection points: 2
#     Edge 35, Type (0, 0), BuildingBlock: UVAHIK_clean_linker_0, # of connection points: 2
#     Edge 36, Type (0, 0), BuildingBlock: UVAHIK_clean_linker_0, # of connection points: 2
#     Edge 37, Type (0, 0), BuildingBlock: UVAHIK_clean_linker_0, # of connection points: 2
#     Edge 38, Type (0, 0), BuildingBlock: UVAHIK_clean_linker_0, # of connection points: 2
#     Edge 39, Type (0, 0), BuildingBlock: UVAHIK_clean_linker_0, # of connection points: 2
#     Edge 40, Type (0, 0), BuildingBlock: UVAHIK_clean_linker_0, # of connection points: 2
#     Edge 41, Type (0, 0), BuildingBlock: UVAHIK_clean_linker_0, # of connection points: 2
#     Edge 42, Type (0, 0), BuildingBlock: UVAHIK_clean_linker_0, # of connection points: 2
#     Edge 43, Type (0, 0), BuildingBlock: UVAHIK_clean_linker_0, # of connection points: 2
#     Edge 44, Type (0, 0), BuildingBlock: UVAHIK_clean_linker_0, # of connection points: 2
#     Edge 45, Type (0, 0), BuildingBlock: UVAHIK_clean_linker_0, # of connection points: 2
#     Edge 46, Type (0, 0), BuildingBlock: UVAHIK_clean_linker_0, # of connection points: 2
#     Edge 47, Type (0, 0), BuildingBlock: UVAHIK_clean_linker_0, # of connection points: 2
# Relax obj value: 0.345
# Max RMSD: 0.288
# Mean RMSD: 0.288
data_MOF--net-wkl--node1-OJICUG_clean_sbu_0--edge1-UVAHIK_clean_linker_0
_symmetry_space_group_name_H-M    P1
_symmetry_Int_Tables_number       1
_symmetry_cell_setting            triclinic
loop_
_symmetry_equiv_pos_as_xyz
'x, y, z'
_cell_length_a     91.472177
_cell_length_b     91.456472
_cell_length_c     20.146361
_cell_angle_alpha  89.995014
_cell_angle_beta   89.998055
_cell_angle_gamma 120.02167
loop_
_atom_site_label
_atom_site_type_symbol
_atom_site_fract_x
_atom_site_fract_y
_atom_site_fract_z
_atom_type_partial_charge
Sc0 Sc 0.46044 0.10274 0.0547 0.0
Sc1 Sc 0.47998 0.1363 0.94307 0.0
Sc2 Sc 0.43856 0.12242 0.99656 0.0
O3 O 0.45964 0.12049 0.99807 0.0
C4 C 0.4237 0.08254 0.99632 0.0
C5 C 0.48039 0.10259 0.92388 0.0
C6 C 0.44931 0.12916 0.84648 0.0
C7 C 0.49699 0.13295 0.07738 0.0
C8 C 0.44015 0.11487 0.14774 0.0
C9 C 0.46855 0.16099 0.99914 0.0
O10 O 0.43763 0.08338 0.01068 0.0
O11 O 0.48121 0.11565 0.89781 0.0
O12 O 0.43773 0.12184 0.88962 0.0
O13 O 0.48346 0.12102 0.10203 0.0
O14 O 0.43777 0.12327 0.10314 0.0
O15 O 0.48032 0.158 0.98472 0.0
O16 O 0.44665 0.10568 0.13575 0.0
O17 O 0.49778 0.13853 0.0188 0.0
O18 O 0.45299 0.14966 0.99876 0.0
O19 O 0.47456 0.09749 0.9819 0.0
O20 O 0.42167 0.09533 0.99572 0.0
O21 O 0.46495 0.13618 0.86022 0.0
Sc22 Sc 0.35588 0.46104 0.21447 0.0
Sc23 Sc 0.34018 0.48048 0.11 0.0
Sc24 Sc 0.31338 0.43884 0.16539 0.0
O25 O 0.33646 0.4601 0.16318 0.0
C26 C 0.33835 0.42394 0.15808 0.0
C27 C 0.37441 0.48126 0.08202 0.0
C28 C 0.31581 0.44971 0.01486 0.0
C29 C 0.36203 0.49764 0.24083 0.0
C30 C 0.32482 0.44071 0.31447 0.0
C31 C 0.3044 0.46848 0.17306 0.0
O32 O 0.35166 0.43784 0.17085 0.0
O33 O 0.3621 0.48271 0.06077 0.0
O34 O 0.31138 0.4381 0.05815 0.0
O35 O 0.36165 0.48437 0.26228 0.0
O36 O 0.31324 0.43765 0.27255 0.0
O37 O 0.3188 0.48026 0.15468 0.0
O38 O 0.34034 0.44787 0.29857 0.0
O39 O 0.35586 0.49827 0.18503 0.0
O40 O 0.30046 0.45302 0.17415 0.0
O41 O 0.37416 0.47468 0.13787 0.0
O42 O 0.32362 0.42213 0.15912 0.0
O43 O 0.32511 0.46529 0.02845 0.0
Sc44 Sc 0.89088 0.35774 0.37613 0.0
Sc45 Sc 0.85735 0.34378 0.26495 0.0
Sc46 Sc 0.87065 0.31593 0.32003 0.0
O47 O 0.87293 0.33912 0.32042 0.0
C48 C 0.91064 0.34045 0.32148 0.0
C49 C 0.89131 0.37762 0.2447 0.0
C50 C 0.86443 0.31996 0.16904 0.0
C51 C 0.86101 0.36463 0.39813 0.0
C52 C 0.87828 0.32543 0.47106 0.0
C53 C 0.83216 0.30756 0.31832 0.0
O54 O 0.9101 0.35385 0.33294 0.0
O55 O 0.87816 0.36541 0.21919 0.0
O56 O 0.87146 0.3155 0.21282 0.0
O57 O 0.87286 0.36293 0.42289 0.0
O58 O 0.86961 0.31447 0.42717 0.0
O59 O 0.83535 0.32251 0.3063 0.0
O60 O 0.88758 0.34103 0.45756 0.0
O61 O 0.85527 0.35965 0.33986 0.0
O62 O 0.84347 0.30333 0.31892 0.0
O63 O 0.89642 0.37711 0.30291 0.0
O64 O 0.89762 0.32578 0.32179 0.0
O65 O 0.85762 0.32879 0.18277 0.0
Sc66 Sc 0.5309 0.89226 0.56305 0.0
Sc67 Sc 0.51077 0.85906 0.45115 0.0
Sc68 Sc 0.55229 0.87275 0.50012 0.0
O69 O 0.53131 0.87467 0.50471 0.0
C70 C 0.56723 0.9126 0.50437 0.0
C71 C 0.51002 0.89257 0.43577 0.0
C72 C 0.54119 0.86702 0.35132 0.0
C73 C 0.49473 0.86199 0.58862 0.0
C74 C 0.55134 0.87946 0.65157 0.0
C75 C 0.52252 0.83411 0.49735 0.0
O76 O 0.55315 0.9117 0.51615 0.0
O77 O 0.50954 0.87988 0.40779 0.0
O78 O 0.55297 0.87474 0.39343 0.0
O79 O 0.50851 0.87362 0.6128 0.0
O80 O 0.55267 0.87047 0.60649 0.0
O81 O 0.51053 0.83722 0.4909 0.0
O82 O 0.54573 0.88947 0.64043 0.0
O83 O 0.49337 0.85685 0.52893 0.0
O84 O 0.53802 0.84552 0.49452 0.0
O85 O 0.51581 0.89733 0.49409 0.0
O86 O 0.56926 0.89981 0.50532 0.0
O87 O 0.5256 0.85934 0.36684 0.0
Sc88 Sc 0.63807 0.53229 0.71416 0.0
Sc89 Sc 0.65146 0.51221 0.60279 0.0
Sc90 Sc 0.67959 0.5535 0.65592 0.0
O91 O 0.6564 0.53269 0.65759 0.0
C92 C 0.65518 0.56904 0.65587 0.0
C93 C 0.61778 0.51252 0.58326 0.0
C94 C 0.67545 0.54268 0.50614 0.0
C95 C 0.63063 0.49544 0.73651 0.0
C96 C 0.67058 0.55212 0.80708 0.0
C97 C 0.68737 0.523 0.6594 0.0
O98 O 0.64192 0.55521 0.66979 0.0
O99 O 0.62991 0.51157 0.55682 0.0
O100 O 0.6797 0.55432 0.54901 0.0
O101 O 0.63289 0.50916 0.76175 0.0
O102 O 0.68129 0.55421 0.7625 0.0
O103 O 0.67247 0.51136 0.64573 0.0
O104 O 0.65494 0.54597 0.79506 0.0
O105 O 0.6353 0.49454 0.67785 0.0
O106 O 0.69192 0.53863 0.65765 0.0
O107 O 0.61864 0.51834 0.64141 0.0
O108 O 0.6699 0.57081 0.65562 0.0
O109 O 0.6668 0.52706 0.52024 0.0
Sc110 Sc 0.09719 0.63643 0.86403 0.0
Sc111 Sc 0.13319 0.65184 0.76307 0.0
Sc112 Sc 0.11846 0.67877 0.81553 0.0
O113 O 0.11629 0.65563 0.81416 0.0
C114 C 0.07846 0.65475 0.80965 0.0
C115 C 0.09927 0.61787 0.73244 0.0
C116 C 0.12593 0.67527 0.66555 0.0
C117 C 0.12734 0.6298 0.89469 0.0
C118 C 0.10932 0.6677 0.96409 0.0
C119 C 0.15706 0.68792 0.82222 0.0
O120 O 0.0787 0.64115 0.81925 0.0
O121 O 0.11365 0.62978 0.71427 0.0
O122 O 0.11865 0.6796 0.70872 0.0
O123 O 0.11403 0.62987 0.91255 0.0
O124 O 0.11844 0.67906 0.92231 0.0
O125 O 0.15439 0.67328 0.80771 0.0
O126 O 0.09983 0.65224 0.94846 0.0
O127 O 0.13502 0.63642 0.84058 0.0
O128 O 0.14555 0.69182 0.82018 0.0
O129 O 0.0923 0.61825 0.78652 0.0
O130 O 0.09159 0.66925 0.81313 0.0
O131 O 0.13306 0.66672 0.67958 0.0
Sc132 Sc 0.86976 0.55144 0.86162 0.0
Sc133 Sc 0.85797 0.51028 0.91274 0.0
Sc134 Sc 0.89132 0.53165 0.80186 0.0
O135 O 0.87299 0.53112 0.85887 0.0
C136 C 0.87752 0.55081 0.71028 0.0
C137 C 0.83173 0.52047 0.86433 0.0
C138 C 0.86204 0.4947 0.776 0.0
C139 C 0.86436 0.54046 0.01202 0.0
C140 C 0.90994 0.56834 0.85899 0.0
C141 C 0.89247 0.51127 0.92924 0.0
O142 O 0.8683 0.55209 0.7546 0.0
O143 O 0.83545 0.50901 0.87426 0.0
O144 O 0.87373 0.5086 0.75286 0.0
O145 O 0.87079 0.5522 0.96881 0.0
O146 O 0.90998 0.55469 0.8474 0.0
O147 O 0.87914 0.50964 0.95584 0.0
O148 O 0.89658 0.56937 0.8588 0.0
O149 O 0.85813 0.52492 0.99724 0.0
O150 O 0.8975 0.51772 0.87202 0.0
O151 O 0.84266 0.53613 0.86417 0.0
O152 O 0.88756 0.54534 0.72289 0.0
O153 O 0.85624 0.49317 0.83467 0.0
Sc154 Sc 0.31684 0.87221 0.02487 0.0
Sc155 Sc 0.34239 0.85681 0.08472 0.0
Sc156 Sc 0.35816 0.88901 0.96736 0.0
O157 O 0.33911 0.87269 0.02558 0.0
C158 C 0.3259 0.87754 0.87383 0.0
C159 C 0.30596 0.833 0.03286 0.0
C160 C 0.36282 0.8577 0.95402 0.0
C161 C 0.32011 0.86686 0.17598 0.0
C162 C 0.34355 0.91179 0.01296 0.0
C163 C 0.37715 0.88961 0.10198 0.0
O164 O 0.31489 0.86951 0.91831 0.0
O165 O 0.3207 0.83537 0.04314 0.0
O166 O 0.36128 0.8692 0.92519 0.0
O167 O 0.31728 0.87492 0.13118 0.0
O168 O 0.35627 0.90988 0.00456 0.0
O169 O 0.36431 0.87746 0.12952 0.0
O170 O 0.32848 0.89942 0.01611 0.0
O171 O 0.32726 0.85825 0.16417 0.0
O172 O 0.3772 0.89389 0.04175 0.0
O173 O 0.30261 0.84496 0.03259 0.0
O174 O 0.34163 0.88627 0.88594 0.0
O175 O 0.35816 0.85324 0.01373 0.0
Sc176 Sc 0.44178 0.31748 0.19725 0.0
Sc177 Sc 0.48331 0.34588 0.24586 0.0
Sc178 Sc 0.46206 0.35913 0.14086 0.0
O179 O 0.46239 0.34079 0.19466 0.0
C180 C 0.44186 0.32664 0.04765 0.0
C181 C 0.47223 0.30964 0.1941 0.0
C182 C 0.49855 0.36634 0.11038 0.0
C183 C 0.45348 0.3221 0.34613 0.0
C184 C 0.42571 0.34149 0.20016 0.0
C185 C 0.4831 0.37951 0.26866 0.0
O186 O 0.44082 0.31585 0.0901 0.0
O187 O 0.48399 0.32478 0.20261 0.0
O188 O 0.48458 0.36422 0.08844 0.0
O189 O 0.44146 0.31751 0.30458 0.0
O190 O 0.43955 0.3551 0.19013 0.0
O191 O 0.48422 0.36734 0.29343 0.0
O192 O 0.4243 0.32694 0.19699 0.0
O193 O 0.46895 0.33082 0.32955 0.0
O194 O 0.47694 0.37886 0.21145 0.0
O195 O 0.45665 0.30518 0.19717 0.0
O196 O 0.44745 0.34208 0.06215 0.0
O197 O 0.50022 0.36183 0.1684 0.0
Sc198 Sc 0.12013 0.44356 0.35532 0.0
Sc199 Sc 0.13399 0.4853 0.40209 0.0
Sc200 Sc 0.09893 0.46385 0.29785 0.0
O201 O 0.1177 0.46431 0.35172 0.0
C202 C 0.11257 0.44476 0.20476 0.0
C203 C 0.15872 0.4733 0.35539 0.0
C204 C 0.12876 0.5006 0.2666 0.0
C205 C 0.12638 0.45517 0.50357 0.0
C206 C 0.08012 0.42714 0.35391 0.0
C207 C 0.09974 0.48501 0.42589 0.0
O208 O 0.12175 0.44331 0.24877 0.0
O209 O 0.15564 0.48531 0.36107 0.0
O210 O 0.11596 0.48691 0.24761 0.0
O211 O 0.11871 0.4432 0.46206 0.0
O212 O 0.08033 0.44096 0.34436 0.0
O213 O 0.11384 0.48738 0.44737 0.0
O214 O 0.09332 0.42588 0.35145 0.0
O215 O 0.13389 0.47074 0.48733 0.0
O216 O 0.09341 0.47769 0.37099 0.0
O217 O 0.14728 0.45787 0.35924 0.0
O218 O 0.10238 0.45008 0.21751 0.0
O219 O 0.13585 0.50211 0.32262 0.0
Sc220 Sc 0.67447 0.12266 0.52751 0.0
Sc221 Sc 0.64822 0.1379 0.58109 0.0
Sc222 Sc 0.63355 0.1054 0.46529 0.0
O223 O 0.6521 0.12193 0.52474 0.0
C224 C 0.66632 0.11691 0.37513 0.0
C225 C 0.6846 0.16168 0.52755 0.0
C226 C 0.62849 0.1363 0.44768 0.0
C227 C 0.67066 0.12911 0.67697 0.0
C228 C 0.6481 0.08298 0.51759 0.0
C229 C 0.61373 0.10492 0.59748 0.0
O230 O 0.67697 0.12471 0.42098 0.0
O231 O 0.66983 0.15922 0.53839 0.0
O232 O 0.63064 0.12502 0.42034 0.0
O233 O 0.6737 0.12075 0.63424 0.0
O234 O 0.63544 0.08474 0.50503 0.0
O235 O 0.62635 0.11717 0.62579 0.0
O236 O 0.66308 0.09544 0.52249 0.0
O237 O 0.66335 0.13742 0.66262 0.0
O238 O 0.61409 0.10059 0.53763 0.0
O239 O 0.68826 0.14996 0.53084 0.0
O240 O 0.65051 0.10818 0.38552 0.0
O241 O 0.63237 0.14073 0.50794 0.0
Sc242 Sc 0.55154 0.67525 0.67833 0.0
Sc243 Sc 0.51 0.64932 0.73557 0.0
Sc244 Sc 0.52709 0.63381 0.61955 0.0
O245 O 0.52963 0.65283 0.67801 0.0
C246 C 0.54869 0.66588 0.52587 0.0
C247 C 0.52295 0.68579 0.67845 0.0
C248 C 0.49119 0.62945 0.60322 0.0
C249 C 0.54161 0.67208 0.82999 0.0
C250 C 0.56435 0.64845 0.67197 0.0
C251 C 0.50774 0.61434 0.75232 0.0
O252 O 0.55257 0.67693 0.57108 0.0
O253 O 0.51077 0.67139 0.69491 0.0
O254 O 0.50425 0.63056 0.5763 0.0
O255 O 0.55287 0.67606 0.78559 0.0
O256 O 0.54999 0.63595 0.65709 0.0
O257 O 0.50795 0.62698 0.7796 0.0
O258 O 0.56698 0.66345 0.67823 0.0
O259 O 0.52591 0.66367 0.81717 0.0
O260 O 0.51285 0.61466 0.69328 0.0
O261 O 0.53826 0.68917 0.67641 0.0
O262 O 0.54058 0.65013 0.53778 0.0
O263 O 0.49102 0.63412 0.66254 0.0
C264 C 0.43169 0.11447 0.74723 0.0
C265 C 0.44459 0.12918 0.77665 0.0
C266 C 0.42868 0.11398 0.67897 0.0
C267 C 0.45037 0.13709 0.52411 0.0
H268 H 0.40741 0.10548 0.444 0.0
C269 C 0.43861 0.13206 0.24106 0.0
C270 C 0.43626 0.11657 0.2174 0.0
C271 C 0.43716 0.13434 0.30887 0.0
C272 C 0.41941 0.11445 0.46601 0.0
H273 H 0.46366 0.15524 0.75962 0.0
H274 H 0.4577 0.15487 0.64178 0.0
H275 H 0.40946 0.10893 0.56459 0.0
H276 H 0.42955 0.09105 0.24502 0.0
H277 H 0.42644 0.09492 0.36344 0.0
H278 H 0.46011 0.14277 0.42498 0.0
C279 C 0.45045 0.14337 0.66995 0.0
C280 C 0.42068 0.11633 0.53506 0.0
C281 C 0.45378 0.14367 0.73769 0.0
C282 C 0.43149 0.10313 0.26208 0.0
C283 C 0.42962 0.10529 0.32956 0.0
C284 C 0.44896 0.1355 0.45522 0.0
C285 C 0.43823 0.12836 0.63904 0.0
C286 C 0.43629 0.12744 0.56527 0.0
C287 C 0.43287 0.12103 0.3536 0.0
C288 C 0.43357 0.12397 0.42577 0.0
H289 H 0.42452 0.1031 0.77638 0.0
H290 H 0.41934 0.1021 0.65739 0.0
H291 H 0.46272 0.14545 0.54483 0.0
H292 H 0.44241 0.14265 0.2077 0.0
H293 H 0.4398 0.1466 0.32667 0.0
C294 C 0.3123 0.45777 0.90031 0.0
C295 C 0.31098 0.44526 0.94444 0.0
C296 C 0.31044 0.45477 0.83226 0.0
C297 C 0.29632 0.42318 0.69894 0.0
H298 H 0.33478 0.45891 0.60599 0.0
C299 C 0.3043 0.4321 0.41002 0.0
C300 C 0.3205 0.43681 0.3857 0.0
C301 C 0.30112 0.4305 0.47851 0.0
C302 C 0.32399 0.44879 0.6312 0.0
H303 H 0.30541 0.41931 0.95196 0.0
H304 H 0.30227 0.41409 0.83188 0.0
H305 H 0.33203 0.46112 0.72495 0.0
H306 H 0.34567 0.4423 0.41428 0.0
H307 H 0.3401 0.4396 0.53268 0.0
H308 H 0.28838 0.41091 0.60398 0.0
C309 C 0.30472 0.42621 0.85058 0.0
C310 C 0.32233 0.45013 0.69922 0.0
C311 C 0.30655 0.42922 0.9192 0.0
C312 C 0.33311 0.43893 0.43104 0.0
C313 C 0.32995 0.43738 0.49902 0.0
C314 C 0.29789 0.42192 0.63017 0.0
C315 C 0.30726 0.4392 0.80646 0.0
C316 C 0.3085 0.43738 0.7339 0.0
C317 C 0.3141 0.43365 0.52358 0.0
C318 C 0.31185 0.43469 0.59591 0.0
H319 H 0.31537 0.47017 0.91811 0.0
H320 H 0.31213 0.46489 0.79944 0.0
H321 H 0.28553 0.41319 0.72461 0.0
H322 H 0.29428 0.43031 0.37648 0.0
H323 H 0.28879 0.42763 0.49629 0.0
C324 C 0.86458 0.30424 0.56348 0.0
C325 C 0.87729 0.32019 0.54142 0.0
C326 C 0.86303 0.30008 0.63108 0.0
C327 C 0.88577 0.31352 0.79274 0.0
H328 H 0.84097 0.29546 0.86754 0.0
C329 C 0.85464 0.31793 0.05165 0.0
C330 C 0.86442 0.3152 0.09856 0.0
C331 C 0.85532 0.31461 0.98451 0.0
C332 C 0.85356 0.30044 0.8474 0.0
H333 H 0.89877 0.34396 0.57306 0.0
H334 H 0.89598 0.33679 0.68993 0.0
H335 H 0.84458 0.29711 0.74736 0.0
H336 H 0.88221 0.30629 0.11147 0.0
H337 H 0.88341 0.30051 0.99358 0.0
H338 H 0.89485 0.31771 0.89277 0.0
C339 C 0.88727 0.32741 0.6553 0.0
C340 C 0.85561 0.30121 0.77848 0.0
C341 C 0.88876 0.33159 0.58812 0.0
C342 C 0.87454 0.30858 0.07671 0.0
C343 C 0.87529 0.30533 0.00916 0.0
C344 C 0.88372 0.31274 0.86166 0.0
C345 C 0.87425 0.31173 0.67784 0.0
C346 C 0.8718 0.30826 0.75035 0.0
C347 C 0.86581 0.3085 0.96222 0.0
C348 C 0.86765 0.30669 0.88977 0.0
H349 H 0.85555 0.29515 0.52886 0.0
H350 H 0.85293 0.28784 0.64686 0.0
H351 H 0.8984 0.31878 0.7726 0.0
H352 H 0.84663 0.32295 0.06652 0.0
H353 H 0.84805 0.31745 0.94972 0.0
C354 C 0.55862 0.88143 0.25104 0.0
C355 C 0.54558 0.8669 0.281 0.0
C356 C 0.56162 0.88166 0.18282 0.0
C357 C 0.54002 0.85824 0.02826 0.0
H358 H 0.58356 0.88853 0.9491 0.0
C359 C 0.55148 0.86171 0.74569 0.0
C360 C 0.55534 0.8776 0.72089 0.0
C361 C 0.55273 0.85947 0.81373 0.0
C362 C 0.57139 0.87992 0.97081 0.0
H363 H 0.52616 0.84092 0.26476 0.0
H364 H 0.53202 0.84088 0.14709 0.0
H365 H 0.58102 0.88574 0.06983 0.0
H366 H 0.5646 0.90381 0.74658 0.0
H367 H 0.56734 0.89997 0.86523 0.0
H368 H 0.53057 0.85228 0.92882 0.0
C369 C 0.53943 0.85243 0.1748 0.0
C370 C 0.56984 0.87843 0.03995 0.0
C371 C 0.53614 0.85237 0.24247 0.0
C372 C 0.5615 0.89142 0.76454 0.0
C373 C 0.56314 0.88926 0.8322 0.0
C374 C 0.54168 0.85945 0.95933 0.0
C375 C 0.5519 0.86722 0.14345 0.0
C376 C 0.55405 0.8678 0.06978 0.0
C377 C 0.5583 0.87318 0.85756 0.0
C378 C 0.55729 0.8705 0.9301 0.0
H379 H 0.56602 0.89282 0.27979 0.0
H380 H 0.57116 0.89339 0.16083 0.0
H381 H 0.52755 0.85024 0.04865 0.0
H382 H 0.5466 0.85084 0.71313 0.0
H383 H 0.54889 0.84695 0.83244 0.0
C384 C 0.66779 0.56101 0.92136 0.0
C385 C 0.6762 0.55592 0.87674 0.0
C386 C 0.67179 0.56278 0.98886 0.0
C387 C 0.682 0.54286 0.11465 0.0
H388 H 0.69559 0.58248 0.22411 0.0
C389 C 0.68522 0.53791 0.39721 0.0
C390 C 0.68019 0.54731 0.43621 0.0
C391 C 0.68825 0.5412 0.32944 0.0
C392 C 0.69157 0.57122 0.19456 0.0
H393 H 0.69567 0.54912 0.8672 0.0
H394 H 0.70217 0.55157 0.9862 0.0
H395 H 0.69428 0.58461 0.10352 0.0
H396 H 0.67465 0.5677 0.4359 0.0
H397 H 0.67884 0.57282 0.3169 0.0
H398 H 0.67792 0.52903 0.20424 0.0
C399 C 0.69276 0.55452 0.96834 0.0
C400 C 0.69102 0.57254 0.1255 0.0
C401 C 0.68907 0.55316 0.9005 0.0
C402 C 0.67864 0.56036 0.40676 0.0
C403 C 0.68117 0.56334 0.33847 0.0
C404 C 0.68212 0.54142 0.18355 0.0
C405 C 0.68398 0.55912 0.01301 0.0
C406 C 0.68615 0.55834 0.08522 0.0
C407 C 0.68574 0.55359 0.29852 0.0
C408 C 0.68679 0.55555 0.22474 0.0
H409 H 0.65786 0.56326 0.90423 0.0
H410 H 0.66478 0.5662 0.02268 0.0
H411 H 0.67794 0.53169 0.08438 0.0
H412 H 0.6867 0.52791 0.41914 0.0
H413 H 0.6923 0.53378 0.30125 0.0
C414 C 0.11107 0.67994 0.57083 0.0
C415 C 0.12513 0.67926 0.59506 0.0
C416 C 0.10922 0.6815 0.50274 0.0
C417 C 0.12935 0.69615 0.34562 0.0
H418 H 0.09435 0.65452 0.26757 0.0
C419 C 0.12593 0.68377 0.0633 0.0
C420 C 0.11035 0.67232 0.0347 0.0
C421 C 0.12726 0.6866 0.13181 0.0
C422 C 0.1039 0.66644 0.28814 0.0
H423 H 0.14871 0.68062 0.56772 0.0
H424 H 0.14569 0.68393 0.44863 0.0
H425 H 0.09773 0.65682 0.38741 0.0
H426 H 0.08374 0.65569 0.05391 0.0
H427 H 0.08572 0.66143 0.1725 0.0
H428 H 0.13535 0.70606 0.24705 0.0
C429 C 0.13606 0.68303 0.48247 0.0
C430 C 0.10589 0.66765 0.35694 0.0
C431 C 0.13773 0.68106 0.55035 0.0
C432 C 0.09595 0.66443 0.07506 0.0
C433 C 0.09716 0.66762 0.1432 0.0
C434 C 0.12712 0.69512 0.2767 0.0
C435 C 0.12162 0.68285 0.45815 0.0
C436 C 0.11876 0.6824 0.38602 0.0
C437 C 0.11292 0.67836 0.17301 0.0
C438 C 0.11452 0.68013 0.24679 0.0
H439 H 0.10111 0.67845 0.60409 0.0
H440 H 0.09794 0.68125 0.48467 0.0
H441 H 0.13935 0.70766 0.3674 0.0
H442 H 0.13726 0.68991 0.03318 0.0
H443 H 0.13967 0.69475 0.15247 0.0
C444 C 0.85583 0.532 0.13025 0.0
C445 C 0.86422 0.54487 0.08291 0.0
C446 C 0.85613 0.53587 0.19738 0.0
C447 C 0.88171 0.56831 0.31968 0.0
H448 H 0.84337 0.54106 0.43378 0.0
C449 C 0.86227 0.55617 0.61756 0.0
C450 C 0.87624 0.55508 0.64028 0.0
C451 C 0.86043 0.55838 0.54981 0.0
C452 C 0.85412 0.54902 0.40269 0.0
H453 H 0.87922 0.57201 0.06943 0.0
H454 H 0.87973 0.57877 0.18717 0.0
H455 H 0.84002 0.53825 0.31361 0.0
H456 H 0.89966 0.55641 0.60999 0.0
H457 H 0.8964 0.56012 0.4929 0.0
H458 H 0.89588 0.57885 0.40881 0.0
C459 C 0.87301 0.56565 0.17196 0.0
C460 C 0.85225 0.54726 0.33378 0.0
C461 C 0.87266 0.56178 0.10447 0.0
C462 C 0.88867 0.55706 0.5943 0.0
C463 C 0.88689 0.55936 0.52701 0.0
C464 C 0.88358 0.57006 0.38859 0.0
C465 C 0.86483 0.55272 0.21924 0.0
C466 C 0.86615 0.5565 0.29154 0.0
C467 C 0.8726 0.55972 0.50366 0.0
C468 C 0.86994 0.56005 0.43094 0.0
H469 H 0.84916 0.51884 0.11571 0.0
H470 H 0.84994 0.52558 0.23246 0.0
H471 H 0.89269 0.57558 0.28867 0.0
H472 H 0.85248 0.55472 0.65167 0.0
H473 H 0.84934 0.55874 0.53339 0.0
C474 C 0.30967 0.86159 0.77364 0.0
C475 C 0.32048 0.877 0.80476 0.0
C476 C 0.30645 0.86111 0.7055 0.0
C477 C 0.32533 0.88738 0.55408 0.0
H478 H 0.28552 0.85123 0.46972 0.0
C479 C 0.31644 0.88266 0.26995 0.0
C480 C 0.31552 0.86784 0.24539 0.0
C481 C 0.31411 0.88422 0.33767 0.0
C482 C 0.29662 0.86147 0.49288 0.0
H483 H 0.33541 0.90406 0.7914 0.0
H484 H 0.32893 0.90346 0.67402 0.0
H485 H 0.28667 0.85364 0.5907 0.0
H486 H 0.31039 0.84269 0.27117 0.0
H487 H 0.30586 0.84529 0.38912 0.0
H488 H 0.33511 0.89524 0.45594 0.0
C489 C 0.32359 0.89159 0.70053 0.0
C490 C 0.29739 0.86278 0.56215 0.0
C491 C 0.3272 0.892 0.76799 0.0
C492 C 0.31128 0.85429 0.28893 0.0
C493 C 0.30857 0.85571 0.35621 0.0
C494 C 0.32438 0.88627 0.48502 0.0
C495 C 0.31366 0.8761 0.66765 0.0
C496 C 0.31193 0.87556 0.59385 0.0
C497 C 0.31039 0.87083 0.3814 0.0
C498 C 0.31018 0.87313 0.45389 0.0
H499 H 0.30444 0.84986 0.80121 0.0
H500 H 0.29892 0.8489 0.68227 0.0
H501 H 0.33693 0.89715 0.57599 0.0
H502 H 0.31974 0.89331 0.23746 0.0
H503 H 0.3156 0.89601 0.35622 0.0
C504 C 0.4371 0.30725 0.9509 0.0
C505 C 0.4375 0.3217 0.97723 0.0
C506 C 0.43569 0.30438 0.88218 0.0
C507 C 0.4481 0.32944 0.73177 0.0
H508 H 0.42102 0.28764 0.63535 0.0
C509 C 0.46296 0.32298 0.46315 0.0
C510 C 0.44963 0.31802 0.4176 0.0
C511 C 0.45982 0.32092 0.53112 0.0
C512 C 0.42858 0.29937 0.66187 0.0
H513 H 0.43514 0.34355 0.95269 0.0
H514 H 0.43271 0.33853 0.83382 0.0
H515 H 0.41748 0.28847 0.75632 0.0
H516 H 0.42239 0.30604 0.40817 0.0
H517 H 0.41694 0.30242 0.52801 0.0
H518 H 0.45935 0.34038 0.63852 0.0
C519 C 0.43382 0.32962 0.8659 0.0
C520 C 0.42664 0.29983 0.73082 0.0
C521 C 0.43522 0.33248 0.93408 0.0
C522 C 0.43296 0.31009 0.44183 0.0
C523 C 0.42981 0.30794 0.51031 0.0
C524 C 0.45018 0.32894 0.66356 0.0
C525 C 0.43466 0.31591 0.83901 0.0
C526 C 0.43634 0.31493 0.76622 0.0
C527 C 0.44328 0.31379 0.5555 0.0
C528 C 0.44051 0.31393 0.62787 0.0
H529 H 0.43879 0.29868 0.98286 0.0
H530 H 0.43639 0.29372 0.86259 0.0
H531 H 0.4559 0.3412 0.75784 0.0
H532 H 0.47595 0.32893 0.44661 0.0
H533 H 0.47041 0.32532 0.5649 0.0
C534 C 0.10073 0.43545 0.09091 0.0
C535 C 0.11447 0.44122 0.1348 0.0
C536 C 0.10295 0.43403 0.02309 0.0
C537 C 0.13265 0.45545 0.89633 0.0
H538 H 0.10742 0.41585 0.78593 0.0
C539 C 0.14073 0.46078 0.6134 0.0
C540 C 0.12641 0.451 0.57423 0.0
C541 C 0.14049 0.45765 0.68132 0.0
C542 C 0.11443 0.4271 0.81576 0.0
H543 H 0.14115 0.44959 0.1427 0.0
H544 H 0.14514 0.44771 0.02324 0.0
H545 H 0.10424 0.41338 0.90654 0.0
H546 H 0.10068 0.43016 0.57461 0.0
H547 H 0.09979 0.42529 0.69378 0.0
H548 H 0.14193 0.46957 0.80699 0.0
C549 C 0.13264 0.44399 0.04186 0.0
C550 C 0.11271 0.4256 0.88483 0.0
C551 C 0.13034 0.44501 0.10998 0.0
C552 C 0.11193 0.43781 0.60383 0.0
C553 C 0.1115 0.43497 0.67221 0.0
C554 C 0.13407 0.45707 0.82743 0.0
C555 C 0.119 0.43872 0.99791 0.0
C556 C 0.12177 0.43978 0.92549 0.0
C557 C 0.12573 0.445 0.71219 0.0
C558 C 0.1249 0.44294 0.78592 0.0
H559 H 0.08836 0.4324 0.10884 0.0
H560 H 0.0923 0.43006 0.98989 0.0
H561 H 0.13955 0.46661 0.92687 0.0
H562 H 0.15214 0.47089 0.59144 0.0
H563 H 0.15189 0.46532 0.70958 0.0
C564 C 0.67277 0.1142 0.77737 0.0
C565 C 0.67552 0.12913 0.7467 0.0
C566 C 0.67558 0.11394 0.84554 0.0
C567 C 0.67978 0.13878 0.99854 0.0
H568 H 0.68863 0.1056 0.08019 0.0
C569 C 0.68543 0.13397 0.28228 0.0
C570 C 0.67223 0.11853 0.30599 0.0
C571 C 0.68934 0.1361 0.21454 0.0
C572 C 0.68632 0.11502 0.05779 0.0
H573 H 0.68446 0.15572 0.76138 0.0
H574 H 0.69048 0.15565 0.87889 0.0
H575 H 0.68961 0.1084 0.95939 0.0
H576 H 0.65351 0.09295 0.2788 0.0
H577 H 0.66076 0.09654 0.16077 0.0
H578 H 0.67677 0.1455 0.09739 0.0
C579 C 0.6853 0.14386 0.85185 0.0
C580 C 0.68668 0.11654 0.98859 0.0
C581 C 0.68201 0.14399 0.78428 0.0
C582 C 0.66369 0.10499 0.26165 0.0
C583 C 0.66789 0.107 0.19435 0.0
C584 C 0.67983 0.13753 0.06755 0.0
C585 C 0.68163 0.12873 0.88407 0.0
C586 C 0.68303 0.12819 0.95784 0.0
C587 C 0.68042 0.12269 0.17002 0.0
C588 C 0.68276 0.12543 0.09765 0.0
H589 H 0.66766 0.10255 0.74934 0.0
H590 H 0.67233 0.10196 0.86819 0.0
H591 H 0.67649 0.14763 0.97742 0.0
H592 H 0.69213 0.14462 0.31546 0.0
H593 H 0.69902 0.14833 0.19661 0.0
C594 C 0.55253 0.65954 0.40863 0.0
C595 C 0.55336 0.67125 0.4559 0.0
C596 C 0.5557 0.66391 0.34177 0.0
C597 C 0.56931 0.67783 0.20558 0.0
H598 H 0.54496 0.69845 0.13028 0.0
C599 C 0.56336 0.68281 0.92151 0.0
C600 C 0.54669 0.67696 0.90013 0.0
C601 C 0.56758 0.68617 0.98886 0.0
C602 C 0.55192 0.69277 0.15057 0.0
H603 H 0.55872 0.69698 0.46992 0.0
H604 H 0.56418 0.70462 0.35225 0.0
H605 H 0.54663 0.69659 0.25055 0.0
H606 H 0.52159 0.67077 0.93269 0.0
H607 H 0.52889 0.67646 0.0491 0.0
H608 H 0.57378 0.67314 0.10566 0.0
C609 C 0.56101 0.69201 0.36742 0.0
C610 C 0.55303 0.69187 0.21952 0.0
C611 C 0.55796 0.68766 0.43479 0.0
C612 C 0.53454 0.67515 0.94722 0.0
C613 C 0.53877 0.6786 0.01413 0.0
C614 C 0.56822 0.67875 0.13664 0.0
C615 C 0.55974 0.68011 0.3201 0.0
C616 C 0.56124 0.68386 0.24779 0.0
C617 C 0.55526 0.68391 0.03601 0.0
C618 C 0.55901 0.68571 0.10836 0.0
H619 H 0.54913 0.64681 0.42304 0.0
H620 H 0.55434 0.65434 0.30665 0.0
H621 H 0.57595 0.67181 0.22588 0.0
H622 H 0.57304 0.68438 0.88657 0.0
H623 H 0.58042 0.69035 0.00415 0.0
C624 C 0.39282 0.06129 0.0023 0.0
C625 C 0.40921 0.06577 0.98155 0.0
C626 C 0.37962 0.04459 0.9959 0.0
C627 C 0.36769 0.00404 0.91337 0.0
H628 H 0.35008 0.98332 0.08481 0.0
C629 C 0.36191 0.94241 0.9888 0.0
C630 C 0.34637 0.92919 0.01161 0.0
C631 C 0.36424 0.9585 0.97971 0.0
C632 C 0.35445 0.98893 0.03628 0.0
H633 H 0.42451 0.05681 0.93397 0.0
H634 H 0.40156 0.02791 0.92172 0.0
H635 H 0.36373 0.01404 0.07297 0.0
H636 H 0.32128 0.9227 0.04539 0.0
H637 H 0.32573 0.95137 0.03139 0.0
H638 H 0.35979 0.97911 0.87819 0.0
C639 C 0.39882 0.03714 0.94316 0.0
C640 C 0.36222 0.00647 0.0294 0.0
C641 C 0.412 0.05364 0.95073 0.0
C642 C 0.33339 0.93263 0.02758 0.0
C643 C 0.33586 0.94894 0.01945 0.0
C644 C 0.36001 0.98659 0.92031 0.0
C645 C 0.38261 0.03234 0.96712 0.0
C646 C 0.36978 0.0142 0.96881 0.0
C647 C 0.35119 0.96184 0.99397 0.0
C648 C 0.35421 0.97904 0.98265 0.0
H649 H 0.39041 0.07046 0.02644 0.0
H650 H 0.36723 0.04115 0.01495 0.0
H651 H 0.37323 0.0097 0.86596 0.0
H652 H 0.37219 0.94028 0.97588 0.0
H653 H 0.37629 0.96839 0.9612 0.0
C654 C 0.3951 0.33056 0.17931 0.0
C655 C 0.41035 0.34265 0.20871 0.0
C656 C 0.38137 0.33328 0.17661 0.0
C657 C 0.36306 0.35769 0.24379 0.0
H658 H 0.35584 0.36599 0.06105 0.0
C659 C 0.35457 0.4105 0.11795 0.0
C660 C 0.34006 0.40893 0.14839 0.0
C661 C 0.35764 0.39703 0.11872 0.0
C662 C 0.35738 0.36332 0.11215 0.0
H663 H 0.42289 0.36627 0.26282 0.0
H664 H 0.39871 0.37075 0.25996 0.0
H665 H 0.37129 0.35113 0.0848 0.0
H666 H 0.317 0.39193 0.20087 0.0
H667 H 0.32279 0.3685 0.20451 0.0
H668 H 0.34993 0.37068 0.27116 0.0
C669 C 0.39743 0.35931 0.23845 0.0
C670 C 0.36614 0.3548 0.12575 0.0
C671 C 0.41127 0.35682 0.23971 0.0
C672 C 0.32822 0.39339 0.17664 0.0
C673 C 0.33152 0.38003 0.1789 0.0
C674 C 0.35401 0.36591 0.23018 0.0
C675 C 0.3826 0.34787 0.20491 0.0
C676 C 0.36968 0.35261 0.19165 0.0
C677 C 0.34644 0.38192 0.15124 0.0
C678 C 0.35178 0.36943 0.16431 0.0
H679 H 0.39413 0.31958 0.15468 0.0
H680 H 0.37006 0.32437 0.15024 0.0
H681 H 0.36573 0.35617 0.29492 0.0
H682 H 0.36385 0.42236 0.0958 0.0
H683 H 0.36933 0.39882 0.09774 0.0
C684 C 0.05042 0.41253 0.39416 0.0
C685 C 0.06364 0.41173 0.36237 0.0
C686 C 0.03417 0.39856 0.3941 0.0
C687 C 0.00703 0.36677 0.28404 0.0
H688 H 0.97578 0.35121 0.43228 0.0
C689 C 0.94032 0.35633 0.28155 0.0
C690 C 0.92731 0.34201 0.31272 0.0
C691 C 0.95674 0.35907 0.28141 0.0
C692 C 0.98438 0.35507 0.39052 0.0
H693 H 0.07052 0.3956 0.30796 0.0
H694 H 0.04176 0.37126 0.3055 0.0
H695 H 0.00621 0.36693 0.45332 0.0
H696 H 0.92097 0.31896 0.36585 0.0
H697 H 0.95003 0.3242 0.36803 0.0
H698 H 0.98518 0.35638 0.22128 0.0
C699 C 0.04414 0.3826 0.33162 0.0
C700 C 0.00173 0.36409 0.40258 0.0
C701 C 0.06052 0.39647 0.33312 0.0
C702 C 0.93081 0.33006 0.34116 0.0
C703 C 0.94736 0.33303 0.3425 0.0
C704 C 0.98968 0.35804 0.272 0.0
C705 C 0.03082 0.38369 0.36101 0.0
C706 C 0.01313 0.37055 0.34939 0.0
C707 C 0.96047 0.34773 0.31372 0.0
C708 C 0.97826 0.35271 0.3252 0.0
H709 H 0.05255 0.42414 0.41722 0.0
H710 H 0.02402 0.39974 0.41637 0.0
H711 H 0.01562 0.37179 0.2423 0.0
H712 H 0.93789 0.36568 0.25913 0.0
H713 H 0.96671 0.37061 0.25963 0.0
C714 C 0.57952 0.94174 0.46045 0.0
C715 C 0.5819 0.92938 0.49147 0.0
C716 C 0.59293 0.95817 0.45393 0.0
C717 C 0.62914 0.98831 0.5427 0.0
H718 H 0.63323 0.01589 0.38984 0.0
C719 C 0.65852 0.06245 0.53542 0.0
C720 C 0.64537 0.06562 0.51926 0.0
C721 C 0.65616 0.04615 0.5292 0.0
C722 C 0.63258 0.00834 0.43243 0.0
H723 H 0.60021 0.92421 0.53812 0.0
H724 H 0.62375 0.95337 0.52856 0.0
H725 H 0.61951 0.98526 0.37779 0.0
H726 H 0.61929 0.05399 0.48604 0.0
H727 H 0.6154 0.02589 0.47466 0.0
H728 H 0.64104 0.01144 0.59829 0.0
C729 C 0.61152 0.95017 0.50846 0.0
C730 C 0.62473 0.99088 0.4256 0.0
C731 C 0.59811 0.93356 0.51377 0.0
C732 C 0.62973 0.0521 0.49882 0.0
C733 C 0.62751 0.03601 0.49173 0.0
C734 C 0.63706 0.00586 0.54949 0.0
C735 C 0.60895 0.96263 0.4792 0.0
C736 C 0.62202 0.98067 0.4815 0.0
C737 C 0.64075 0.03297 0.50565 0.0
C738 C 0.63792 0.01583 0.49511 0.0
H739 H 0.56718 0.93881 0.44252 0.0
H740 H 0.59052 0.96759 0.4321 0.0
H741 H 0.62713 0.98069 0.58659 0.0
H742 H 0.6707 0.0726 0.55152 0.0
H743 H 0.66645 0.04393 0.54086 0.0
C744 C 0.63861 0.58131 0.60941 0.0
C745 C 0.65323 0.58373 0.64168 0.0
C746 C 0.63542 0.5946 0.60311 0.0
C747 C 0.64062 0.63009 0.69525 0.0
H748 H 0.61662 0.63406 0.54396 0.0
C749 C 0.59519 0.6587 0.69168 0.0
C750 C 0.5789 0.64561 0.67449 0.0
C751 C 0.60916 0.65639 0.68533 0.0
C752 C 0.62363 0.63342 0.58615 0.0
H753 H 0.67638 0.60202 0.6903 0.0
H754 H 0.67047 0.62537 0.68106 0.0
H755 H 0.6341 0.62103 0.52989 0.0
H756 H 0.56454 0.61966 0.63971 0.0
H757 H 0.5888 0.61586 0.62813 0.0
H758 H 0.62902 0.64138 0.75235 0.0
C759 C 0.66166 0.6132 0.65987 0.0
C760 C 0.63359 0.62598 0.57817 0.0
C761 C 0.66504 0.5999 0.66498 0.0
C762 C 0.57684 0.63005 0.65324 0.0
C763 C 0.59074 0.62788 0.64604 0.0
C764 C 0.63068 0.63763 0.70318 0.0
C765 C 0.64666 0.61054 0.62986 0.0
C766 C 0.64131 0.62331 0.63343 0.0
C767 C 0.607 0.6411 0.66069 0.0
C768 C 0.62138 0.63843 0.64936 0.0
H769 H 0.62936 0.56897 0.59074 0.0
H770 H 0.62363 0.5921 0.58064 0.0
H771 H 0.64639 0.62811 0.73871 0.0
H772 H 0.5972 0.67082 0.70842 0.0
H773 H 0.62165 0.66665 0.69754 0.0
C774 C 0.04877 0.63947 0.76931 0.0
C775 C 0.06195 0.65359 0.80086 0.0
C776 C 0.03241 0.63688 0.77062 0.0
C777 C 0.00566 0.64094 0.88494 0.0
H778 H 0.97311 0.62377 0.74116 0.0
C779 C 0.93987 0.58326 0.89643 0.0
C780 C 0.92634 0.58389 0.86666 0.0
C781 C 0.95606 0.59732 0.89463 0.0
C782 C 0.98207 0.62891 0.7817 0.0
H783 H 0.06866 0.67651 0.85565 0.0
H784 H 0.03974 0.67156 0.86018 0.0
H785 H 0.00334 0.63923 0.71588 0.0
H786 H 0.91884 0.5998 0.81419 0.0
H787 H 0.94747 0.62428 0.80868 0.0
H788 H 0.98442 0.62916 0.95071 0.0
C789 C 0.04222 0.66276 0.83336 0.0
C790 C -0.0007 0.63767 0.76722 0.0
C791 C 0.0587 0.66557 0.83064 0.0
C792 C 0.92909 0.59906 0.83787 0.0
C793 C 0.94539 0.61302 0.83459 0.0
C794 C 0.98844 0.63189 0.8994 0.0
C795 C 0.02892 0.64818 0.80472 0.0
C796 C 0.0112 0.64316 0.81876 0.0
C797 C 0.95903 0.61209 0.86176 0.0
C798 C 0.97657 0.62527 0.84784 0.0
H799 H 0.05101 0.6301 0.74587 0.0
H800 H 0.0223 0.62544 0.74886 0.0
H801 H 0.01464 0.64492 0.92547 0.0
H802 H 0.93803 0.5717 0.91904 0.0
H803 H 0.96644 0.59627 0.91521 0.0
C804 C 0.49445 0.08519 0.92529 0.0
C805 C 0.4885 0.09429 0.88893 0.0
C806 C 0.50499 0.08016 0.89542 0.0
C807 C 0.52135 0.07323 0.74092 0.0
H808 H 0.5654 0.09859 0.82341 0.0
C809 C 0.58252 0.09223 0.59814 0.0
C810 C 0.59747 0.0967 0.63288 0.0
C811 C 0.56744 0.08701 0.63235 0.0
C812 C 0.55318 0.09094 0.80043 0.0
H813 H 0.48766 0.10389 0.79138 0.0
H814 H 0.50586 0.09473 0.73888 0.0
H815 H 0.54105 0.09725 0.87682 0.0
H816 H 0.60823 0.09788 0.72974 0.0
H817 H 0.5817 0.08765 0.78951 0.0
H818 H 0.53334 0.06674 0.66467 0.0
C819 C 0.50245 0.09168 0.79061 0.0
C820 C 0.53922 0.0903 0.83109 0.0
C821 C 0.49215 0.09701 0.82076 0.0
C822 C 0.59687 0.0947 0.70199 0.0
C823 C 0.58167 0.08899 0.73614 0.0
C824 C 0.53528 0.07349 0.7109 0.0
C825 C 0.50946 0.08381 0.8284 0.0
C826 C 0.52332 0.08187 0.80067 0.0
C827 C 0.56687 0.08573 0.70209 0.0
C828 C 0.55152 0.08286 0.73909 0.0
H829 H 0.49188 0.08289 0.97791 0.0
H830 H 0.51029 0.07411 0.92539 0.0
H831 H 0.50914 0.06659 0.71684 0.0
H832 H 0.58268 0.09379 0.54478 0.0
H833 H 0.55651 0.08493 0.60403 0.0
C834 C 0.39077 0.49395 0.97736 0.0
C835 C 0.39045 0.48955 0.04444 0.0
C836 C 0.40616 0.50437 0.94559 0.0
C837 C 0.44467 0.54049 0.98234 0.0
H838 H 0.46265 0.53401 0.81783 0.0
C839 C 0.49986 0.59735 0.8568 0.0
C840 C 0.49913 0.59804 0.78746 0.0
C841 C 0.48965 0.58221 0.89043 0.0
C842 C 0.45773 0.53613 0.86345 0.0
H843 H 0.40603 0.49183 0.12958 0.0
H844 H 0.43278 0.51046 0.07441 0.0
H845 H 0.43811 0.51011 0.86929 0.0
H846 H 0.48765 0.58348 0.69849 0.0
H847 H 0.46911 0.55747 0.75664 0.0
H848 H 0.463 0.56655 0.97487 0.0
C849 C 0.42115 0.50562 0.04648 0.0
C850 C 0.44379 0.52238 0.89303 0.0
C851 C 0.40583 0.49494 0.07784 0.0
C852 C 0.48856 0.58323 0.75206 0.0
C853 C 0.47798 0.56824 0.78568 0.0
C854 C 0.45827 0.55429 0.95207 0.0
C855 C 0.42138 0.51074 0.98076 0.0
C856 C 0.43708 0.52454 0.95228 0.0
C857 C 0.47802 0.5676 0.85553 0.0
C858 C 0.46488 0.55241 0.89156 0.0
H859 H 0.37914 0.48994 0.95028 0.0
H860 H 0.4061 0.50831 0.89491 0.0
H861 H 0.43952 0.54244 0.02774 0.0
H862 H 0.50806 0.6086 0.8851 0.0
H863 H 0.49052 0.58217 0.94399 0.0
C864 C 0.91003 0.49741 0.9236 0.0
C865 C 0.90113 0.50324 0.96204 0.0
C866 C 0.9152 0.48676 0.95139 0.0
C867 C 0.92344 0.47003 0.10128 0.0
H868 H 0.89602 0.42587 0.02191 0.0
C869 C 0.90533 0.40895 0.24324 0.0
C870 C 0.89971 0.39377 0.2085 0.0
C871 C 0.91048 0.42402 0.20899 0.0
C872 C 0.90424 0.4381 0.04385 0.0
H873 H 0.89206 0.50374 0.061 0.0
H874 H 0.90155 0.48542 0.10993 0.0
H875 H 0.89715 0.45037 0.97074 0.0
H876 H 0.89646 0.38255 0.11119 0.0
H877 H 0.90661 0.40902 0.05101 0.0
H878 H 0.93075 0.45793 0.17411 0.0
C879 C 0.90431 0.48899 0.0582 0.0
C880 C 0.90476 0.45215 0.01451 0.0
C881 C 0.8988 0.49937 0.03012 0.0
C882 C 0.90055 0.3941 0.139 0.0
C883 C 0.90621 0.40927 0.10467 0.0
C884 C 0.92331 0.45601 0.12982 0.0
C885 C 0.91194 0.4821 0.01838 0.0
C886 C 0.91394 0.4681 0.04403 0.0
C887 C 0.91054 0.42433 0.13907 0.0
C888 C 0.91322 0.43972 0.10281 0.0
H889 H 0.91198 0.50011 0.87096 0.0
H890 H 0.92103 0.48152 0.91987 0.0
H891 H 0.93066 0.48229 0.12461 0.0
H892 H 0.90467 0.40901 0.29694 0.0
H893 H 0.91342 0.43515 0.23773 0.0
C894 C 0.49467 0.90873 0.44049 0.0
C895 C 0.50158 0.90075 0.40249 0.0
C896 C 0.48395 0.91362 0.41118 0.0
C897 C 0.46868 0.92198 0.25608 0.0
H898 H 0.42405 0.89512 0.33228 0.0
C899 C 0.40844 0.90279 0.10625 0.0
C900 C 0.39316 0.89784 0.13926 0.0
C901 C 0.42329 0.90803 0.14221 0.0
C902 C 0.43642 0.90317 0.31111 0.0
H903 H 0.50388 0.893 0.30312 0.0
H904 H 0.4854 0.90194 0.25169 0.0
H905 H 0.4482 0.89654 0.38786 0.0
H906 H 0.38157 0.89585 0.23504 0.0
H907 H 0.40766 0.90602 0.29788 0.0
H908 H 0.45702 0.92874 0.17937 0.0
C909 C 0.48818 0.90422 0.30419 0.0
C910 C 0.45028 0.90388 0.34303 0.0
C911 C 0.49865 0.89901 0.3337 0.0
C912 C 0.39318 0.89938 0.20853 0.0
C913 C 0.40813 0.90508 0.24446 0.0
C914 C 0.45485 0.92163 0.22482 0.0
C915 C 0.48026 0.91097 0.34318 0.0
C916 C 0.46642 0.91286 0.31479 0.0
C917 C 0.42327 0.90882 0.21204 0.0
C918 C 0.43842 0.91172 0.25068 0.0
H919 H 0.49666 0.91022 0.49364 0.0
H920 H 0.47796 0.91882 0.4421 0.0
H921 H 0.48107 0.92907 0.23368 0.0
H922 H 0.40874 0.9016 0.05282 0.0
H923 H 0.43451 0.91051 0.11511 0.0
C924 C 0.60003 0.5004 0.48114 0.0
C925 C 0.60127 0.50447 0.54898 0.0
C926 C 0.58424 0.49012 0.45206 0.0
C927 C 0.54648 0.45376 0.49431 0.0
H928 H 0.52639 0.45996 0.3352 0.0
C929 C 0.49116 0.39632 0.37347 0.0
C930 C 0.49137 0.39577 0.30399 0.0
C931 C 0.50119 0.41151 0.40692 0.0
C932 C 0.53188 0.45793 0.37933 0.0
H933 H 0.58685 0.50184 0.63837 0.0
H934 H 0.5594 0.48346 0.58776 0.0
H935 H 0.55128 0.48405 0.38387 0.0
H936 H 0.5016 0.41061 0.21462 0.0
H937 H 0.51988 0.43678 0.27228 0.0
H938 H 0.52843 0.42761 0.48772 0.0
C939 C 0.57064 0.48844 0.55722 0.0
C940 C 0.54603 0.47179 0.40735 0.0
C941 C 0.58637 0.49896 0.58598 0.0
C942 C 0.50113 0.41075 0.26835 0.0
C943 C 0.51156 0.42583 0.30171 0.0
C944 C 0.53268 0.43986 0.4655 0.0
C945 C 0.56951 0.48358 0.49063 0.0
C946 C 0.55351 0.46971 0.46455 0.0
C947 C 0.51213 0.42634 0.37159 0.0
C948 C 0.52533 0.44164 0.40684 0.0
H949 H 0.61128 0.50452 0.45128 0.0
H950 H 0.58361 0.48637 0.40064 0.0
H951 H 0.55223 0.45188 0.53808 0.0
H952 H 0.48356 0.38491 0.40193 0.0
H953 H 0.50077 0.41144 0.46061 0.0
C954 C 0.07825 0.49435 0.43344 0.0
C955 C 0.0913 0.4927 0.46299 0.0
C956 C 0.07237 0.50422 0.46339 0.0
C957 C 0.07423 0.5273 0.61815 0.0
H958 H 0.07661 0.56139 0.49697 0.0
C959 C 0.07721 0.58741 0.71737 0.0
C960 C 0.09116 0.60218 0.69238 0.0
C961 C 0.07145 0.57193 0.68531 0.0
C962 C 0.07573 0.55187 0.53136 0.0
H963 H 0.10735 0.49898 0.54995 0.0
H964 H 0.09721 0.5162 0.60168 0.0
H965 H 0.07683 0.53667 0.45315 0.0
H966 H 0.10906 0.61243 0.61096 0.0
H967 H 0.09914 0.58551 0.55563 0.0
H968 H 0.07432 0.54308 0.69657 0.0
C969 C 0.09148 0.50987 0.55548 0.0
C970 C 0.07568 0.53761 0.50627 0.0
C971 C 0.09741 0.50009 0.52547 0.0
C972 C 0.09838 0.60131 0.63197 0.0
C973 C 0.09259 0.58586 0.59987 0.0
C974 C 0.07427 0.54155 0.64324 0.0
C975 C 0.07932 0.51252 0.52368 0.0
C976 C 0.07561 0.52552 0.54955 0.0
C977 C 0.07945 0.57091 0.6274 0.0
C978 C 0.0757 0.55431 0.6002 0.0
H979 H 0.07316 0.48874 0.38551 0.0
H980 H 0.06283 0.50587 0.43815 0.0
H981 H 0.07395 0.51808 0.65265 0.0
H982 H 0.07123 0.58762 0.76351 0.0
H983 H 0.06115 0.56066 0.70719 0.0
C984 C 0.46122 0.18066 0.056 0.0
C985 C 0.47309 0.17813 0.0213 0.0
C986 C 0.46563 0.19654 0.08076 0.0
C987 C 0.49286 0.24116 0.05516 0.0
H988 H 0.47783 0.24368 0.23272 0.0
C989 C 0.49275 0.30049 0.15834 0.0
C990 C 0.47664 0.29643 0.18157 0.0
C991 C 0.4965 0.2877 0.1452 0.0
C992 C 0.48225 0.24321 0.1833 0.0
H993 H 0.49883 0.19038 0.98423 0.0
H994 H 0.50641 0.21841 0.02673 0.0
H995 H 0.47666 0.21771 0.19583 0.0
H996 H 0.45204 0.27587 0.2109 0.0
H997 H 0.45859 0.25374 0.18833 0.0
H998 H 0.49756 0.2664 0.04155 0.0
C999 C 0.49377 0.20795 0.03509 0.0
C1000 C 0.48157 0.22839 0.16224 0.0
C1001 C 0.48942 0.19194 0.01089 0.0
C1002 C 0.46453 0.27943 0.19269 0.0
C1003 C 0.46833 0.26675 0.18045 0.0
C1004 C 0.49351 0.25604 0.07627 0.0
C1005 C 0.48195 0.21028 0.07096 0.0
C1006 C 0.48616 0.227 0.09709 0.0
C1007 C 0.4843 0.27073 0.15633 0.0
C1008 C 0.48749 0.25687 0.1395 0.0
H1009 H 0.44857 0.17031 0.06519 0.0
H1010 H 0.45619 0.1981 0.10725 0.0
H1011 H 0.49646 0.24035 0.00466 0.0
H1012 H 0.50233 0.3135 0.14923 0.0
H1013 H 0.50888 0.29104 0.12639 0.0
C1014 C 0.18884 0.49322 0.32299 0.0
C1015 C 0.17629 0.47722 0.3452 0.0
C1016 C 0.20531 0.4965 0.31192 0.0
C1017 C 0.23429 0.48086 0.35362 0.0
H1018 H 0.25325 0.49626 0.17813 0.0
C1019 C 0.27756 0.46096 0.23196 0.0
C1020 C 0.29184 0.47292 0.19683 0.0
C1021 C 0.26589 0.46513 0.25641 0.0
C1022 C 0.24831 0.4923 0.22781 0.0
H1023 H 0.17126 0.45229 0.37495 0.0
H1024 H 0.19982 0.45802 0.35583 0.0
H1025 H 0.22817 0.49747 0.21173 0.0
H1026 H 0.305 0.49864 0.15945 0.0
H1027 H 0.28428 0.50583 0.20167 0.0
H1028 H 0.25389 0.47494 0.36867 0.0
C1029 C 0.19701 0.46805 0.34721 0.0
C1030 C 0.234 0.49301 0.24704 0.0
C1031 C 0.18059 0.46472 0.35747 0.0
C1032 C 0.29413 0.48915 0.18636 0.0
C1033 C 0.2823 0.49328 0.21038 0.0
C1034 C 0.24854 0.48014 0.33444 0.0
C1035 C 0.2095 0.48391 0.32402 0.0
C1036 C 0.22649 0.48665 0.3091 0.0
C1037 C 0.26815 0.48132 0.24601 0.0
C1038 C 0.25526 0.48521 0.27043 0.0
H1039 H 0.18587 0.50309 0.31306 0.0
H1040 H 0.21475 0.50882 0.29391 0.0
H1041 H 0.2289 0.47616 0.40221 0.0
H1042 H 0.27543 0.44837 0.24117 0.0
H1043 H 0.25492 0.45557 0.28268 0.0
C1044 C 0.71295 0.18056 0.47844 0.0
C1045 C 0.69792 0.17857 0.50566 0.0
C1046 C 0.72503 0.19603 0.45242 0.0
C1047 C 0.74243 0.24103 0.46129 0.0
H1048 H 0.76163 0.23988 0.29092 0.0
C1049 C 0.80221 0.2985 0.34939 0.0
C1050 C 0.81457 0.29434 0.33172 0.0
C1051 C 0.78572 0.28577 0.36386 0.0
C1052 C 0.75631 0.24043 0.33829 0.0
H1053 H 0.68404 0.19147 0.5288 0.0
H1054 H 0.70556 0.21881 0.48401 0.0
H1055 H 0.73655 0.2147 0.33139 0.0
H1056 H 0.81924 0.27361 0.3139 0.0
H1057 H 0.79066 0.25158 0.33884 0.0
H1058 H 0.76278 0.26656 0.46955 0.0
C1059 C 0.70774 0.2082 0.48248 0.0
C1060 C 0.742 0.22606 0.36137 0.0
C1061 C 0.69547 0.19259 0.50799 0.0
C1062 C 0.81006 0.27726 0.32759 0.0
C1063 C 0.79363 0.26462 0.34125 0.0
C1064 C 0.75684 0.25546 0.43818 0.0
C1065 C 0.72245 0.20991 0.45342 0.0
C1066 C 0.73537 0.22603 0.42419 0.0
C1067 C 0.78132 0.26872 0.35976 0.0
C1068 C 0.76427 0.25501 0.37772 0.0
H1069 H 0.71527 0.17007 0.47571 0.0
H1070 H 0.73644 0.19713 0.43137 0.0
H1071 H 0.7375 0.24126 0.50992 0.0
H1072 H 0.80533 0.31156 0.35314 0.0
H1073 H 0.77643 0.28921 0.37815 0.0
C1074 C 0.50223 0.80403 0.52852 0.0
C1075 C 0.51843 0.8165 0.50778 0.0
C1076 C 0.4987 0.78749 0.53994 0.0
C1077 C 0.51403 0.75817 0.50125 0.0
H1078 H 0.49704 0.73883 0.67505 0.0
C1079 C 0.5317 0.71352 0.62473 0.0
C1080 C 0.5192 0.699 0.65701 0.0
C1081 C 0.52811 0.72565 0.60096 0.0
C1082 C 0.50145 0.74389 0.62582 0.0
H1083 H 0.54346 0.82132 0.4812 0.0
H1084 H 0.5373 0.79262 0.50094 0.0
H1085 H 0.49668 0.76433 0.64086 0.0
H1086 H 0.49313 0.686 0.69061 0.0
H1087 H 0.48696 0.70755 0.64957 0.0
H1088 H 0.51952 0.73825 0.48727 0.0
C1089 C 0.52731 0.79556 0.50809 0.0
C1090 C 0.50123 0.75844 0.60626 0.0
C1091 C 0.53089 0.81205 0.49744 0.0
C1092 C 0.50304 0.69704 0.66588 0.0
C1093 C 0.49949 0.70933 0.64251 0.0
C1094 C 0.51426 0.74368 0.52074 0.0
C1095 C 0.51123 0.78315 0.52975 0.0
C1096 C 0.50815 0.76605 0.54488 0.0
C1097 C 0.51197 0.72363 0.60917 0.0
C1098 C 0.50861 0.73683 0.5842 0.0
H1099 H 0.49238 0.8071 0.53701 0.0
H1100 H 0.48621 0.77812 0.55671 0.0
H1101 H 0.51915 0.76364 0.45315 0.0
H1102 H 0.54427 0.71545 0.61686 0.0
H1103 H 0.53806 0.73673 0.57656 0.0
C1104 C 0.80207 0.49935 0.83054 0.0
C1105 C 0.81393 0.51561 0.853 0.0
C1106 C 0.78543 0.49527 0.81716 0.0
C1107 C 0.75466 0.5091 0.85176 0.0
H1108 H 0.73833 0.49447 0.6726 0.0
C1109 C 0.71419 0.53019 0.71729 0.0
C1110 C 0.69975 0.51828 0.68286 0.0
C1111 C 0.72543 0.52568 0.74364 0.0
C1112 C 0.74252 0.49817 0.72326 0.0
H1113 H 0.81756 0.54011 0.88125 0.0
H1114 H 0.78872 0.533 0.85838 0.0
H1115 H 0.7632 0.49359 0.71218 0.0
H1116 H 0.68595 0.49237 0.64789 0.0
H1117 H 0.70606 0.48461 0.6931 0.0
H1118 H 0.73467 0.51465 0.86161 0.0
C1119 C 0.79219 0.52339 0.85118 0.0
C1120 C 0.7567 0.49764 0.74592 0.0
C1121 C 0.80876 0.52752 0.86361 0.0
C1122 C 0.69697 0.50181 0.67428 0.0
C1123 C 0.70841 0.49735 0.70004 0.0
C1124 C 0.74058 0.50967 0.82914 0.0
C1125 C 0.7804 0.5073 0.82735 0.0
C1126 C 0.76331 0.50385 0.80929 0.0
C1127 C 0.72259 0.50922 0.73574 0.0
C1128 C 0.73487 0.50494 0.76376 0.0
H1129 H 0.80573 0.48993 0.82182 0.0
H1130 H 0.77655 0.4828 0.79864 0.0
H1131 H 0.75936 0.51367 0.90126 0.0
H1132 H 0.71669 0.54296 0.72513 0.0
H1133 H 0.73645 0.53515 0.76996 0.0
C1134 C 0.18771 0.698 0.84501 0.0
C1135 C 0.1739 0.70078 0.84653 0.0
C1136 C 0.2033 0.70998 0.87164 0.0
C1137 C 0.22159 0.74472 0.9919 0.0
H1138 H 0.26237 0.7636 0.88558 0.0
C1139 C 0.27521 0.81208 0.02445 0.0
C1140 C 0.29201 0.81565 0.02062 0.0
C1141 C 0.26196 0.79589 0.01129 0.0
C1142 C 0.25117 0.7582 0.91645 0.0
H1143 H 0.16577 0.71843 0.87662 0.0
H1144 H 0.19278 0.7391 0.92259 0.0
H1145 H 0.23669 0.73867 0.84584 0.0
H1146 H 0.30809 0.80498 0.00048 0.0
H1147 H 0.28472 0.77656 0.97658 0.0
H1148 H 0.23576 0.76456 0.06116 0.0
C1149 C 0.19153 0.72763 0.90149 0.0
C1150 C 0.23651 0.74397 0.89371 0.0
C1151 C 0.17608 0.71582 0.8745 0.0
C1152 C 0.29526 0.8026 0.00396 0.0
C1153 C 0.28194 0.78638 0.99009 0.0
C1154 C 0.23618 0.75887 0.01457 0.0
C1155 C 0.20523 0.72477 0.90094 0.0
C1156 C 0.22145 0.73756 0.9301 0.0
C1157 C 0.26518 0.78291 0.99362 0.0
C1158 C 0.25091 0.76613 0.97583 0.0
H1159 H 0.18644 0.68654 0.82375 0.0
H1160 H 0.21375 0.70756 0.87046 0.0
H1161 H 0.21019 0.73978 0.02144 0.0
H1162 H 0.27225 0.8218 0.03733 0.0
H1163 H 0.24916 0.79364 0.01332 0.0
C1164 C 0.52849 0.14743 0.08366 0.0
C1165 C 0.51278 0.13959 0.1162 0.0
C1166 C 0.54327 0.15166 0.11861 0.0
C1167 C 0.56302 0.15932 0.28229 0.0
H1168 H 0.58544 0.13614 0.21261 0.0
C1169 C 0.60727 0.14576 0.44135 0.0
C1170 C 0.61938 0.14304 0.40982 0.0
C1171 C 0.5965 0.14923 0.40393 0.0
C1172 C 0.57974 0.14314 0.23219 0.0
H1173 H 0.50039 0.13107 0.21167 0.0
H1174 H 0.52635 0.13879 0.27295 0.0
H1175 H 0.56255 0.13574 0.15048 0.0
H1176 H 0.63078 0.1432 0.31548 0.0
H1177 H 0.61278 0.15033 0.25035 0.0
H1178 H 0.58027 0.1669 0.36381 0.0
C1179 C 0.52713 0.14151 0.22031 0.0
C1180 C 0.5665 0.14278 0.19655 0.0
C1181 C 0.51229 0.137 0.18516 0.0
C1182 C 0.62138 0.14505 0.34081 0.0
C1183 C 0.61092 0.14897 0.30354 0.0
C1184 C 0.57653 0.15999 0.31747 0.0
C1185 C 0.54266 0.14843 0.18694 0.0
C1186 C 0.55782 0.15058 0.22185 0.0
C1187 C 0.59787 0.15043 0.33424 0.0
C1188 C 0.58485 0.15159 0.29358 0.0
H1189 H 0.52932 0.14959 0.03058 0.0
H1190 H 0.55513 0.15704 0.09194 0.0
H1191 H 0.55653 0.1655 0.30252 0.0
H1192 H 0.60539 0.14413 0.49454 0.0
H1193 H 0.58653 0.15003 0.42961 0.0
C1194 C 0.3781 0.52913 0.24793 0.0
C1195 C 0.37123 0.51337 0.27982 0.0
C1196 C 0.38865 0.54398 0.28244 0.0
C1197 C 0.40198 0.56397 0.44417 0.0
H1198 H 0.44719 0.5866 0.37046 0.0
C1199 C 0.46041 0.60868 0.59885 0.0
C1200 C 0.47519 0.62057 0.56635 0.0
C1201 C 0.44598 0.59794 0.56235 0.0
C1202 C 0.4346 0.58086 0.39116 0.0
H1203 H 0.36912 0.5009 0.37385 0.0
H1204 H 0.38734 0.52703 0.43456 0.0
H1205 H 0.42446 0.56346 0.3102 0.0
H1206 H 0.48618 0.63168 0.47138 0.0
H1207 H 0.46068 0.61382 0.40782 0.0
H1208 H 0.41195 0.58147 0.52478 0.0
C1209 C 0.38462 0.52776 0.38271 0.0
C1210 C 0.42159 0.56747 0.35661 0.0
C1211 C 0.37432 0.51285 0.34789 0.0
C1212 C 0.47495 0.62244 0.49738 0.0
C1213 C 0.46037 0.61206 0.46103 0.0
C1214 C 0.41493 0.57767 0.47818 0.0
C1215 C 0.39222 0.54338 0.34974 0.0
C1216 C 0.40529 0.5587 0.38345 0.0
C1217 C 0.4459 0.59916 0.49264 0.0
C1218 C 0.43154 0.58606 0.45291 0.0
H1219 H 0.376 0.52996 0.19549 0.0
H1220 H 0.39441 0.55591 0.25613 0.0
H1221 H 0.38943 0.55739 0.4655 0.0
H1222 H 0.46036 0.6069 0.65205 0.0
H1223 H 0.43526 0.5881 0.58877 0.0
C1224 C 0.85684 0.37591 0.50546 0.0
C1225 C 0.85484 0.37429 0.43617 0.0
C1226 C 0.85305 0.38683 0.54016 0.0
C1227 C 0.85577 0.42678 0.51855 0.0
H1228 H 0.82899 0.41674 0.67886 0.0
C1229 C 0.85583 0.48049 0.66533 0.0
C1230 C 0.85598 0.47942 0.73476 0.0
C1231 C 0.85191 0.46639 0.62613 0.0
C1232 C 0.83668 0.41983 0.63458 0.0
H1233 H 0.84672 0.38238 0.3493 0.0
H1234 H 0.8406 0.40184 0.40998 0.0
H1235 H 0.82908 0.39382 0.61686 0.0
H1236 H 0.85177 0.46274 0.81789 0.0
H1237 H 0.84585 0.43844 0.75002 0.0
H1238 H 0.86444 0.45274 0.53773 0.0
C1239 C 0.84488 0.39446 0.43724 0.0
C1240 C 0.83659 0.40666 0.59892 0.0
C1241 C 0.84833 0.38329 0.4027 0.0
C1242 C 0.8516 0.46387 0.76439 0.0
C1243 C 0.8481 0.44988 0.72524 0.0
C1244 C 0.85618 0.43996 0.55483 0.0
C1245 C 0.84752 0.39655 0.50601 0.0
C1246 C 0.84625 0.41007 0.54095 0.0
C1247 C 0.84853 0.45102 0.65546 0.0
C1248 C 0.84679 0.43673 0.61384 0.0
H1249 H 0.86177 0.36908 0.53259 0.0
H1250 H 0.85529 0.38834 0.59319 0.0
H1251 H 0.86352 0.42973 0.47441 0.0
H1252 H 0.85898 0.49231 0.64128 0.0
H1253 H 0.85188 0.4677 0.57274 0.0
C1254 C 0.37366 0.85158 0.84974 0.0
C1255 C 0.3722 0.85071 0.91927 0.0
C1256 C 0.38469 0.84749 0.81769 0.0
C1257 C 0.42511 0.8517 0.84514 0.0
H1258 H 0.41651 0.82487 0.68572 0.0
C1259 C 0.48044 0.85489 0.69932 0.0
C1260 C 0.47937 0.85519 0.6299 0.0
C1261 C 0.46615 0.85009 0.73854 0.0
C1262 C 0.41919 0.83255 0.72985 0.0
H1263 H 0.38052 0.84408 0.00945 0.0
H1264 H 0.40014 0.83738 0.95329 0.0
H1265 H 0.39292 0.82397 0.74621 0.0
H1266 H 0.46249 0.8503 0.54686 0.0
H1267 H 0.43781 0.84285 0.61479 0.0
H1268 H 0.4513 0.86136 0.82705 0.0
C1269 C 0.39259 0.84105 0.92382 0.0
C1270 C 0.40564 0.83189 0.76467 0.0
C1271 C 0.38133 0.84482 0.9558 0.0
C1272 C 0.46365 0.85007 0.60032 0.0
C1273 C 0.44944 0.84567 0.63949 0.0
C1274 C 0.43866 0.85265 0.80971 0.0
C1275 C 0.39465 0.84275 0.8547 0.0
C1276 C 0.40853 0.84165 0.82207 0.0
C1277 C 0.45055 0.84594 0.70925 0.0
C1278 C 0.43594 0.84332 0.75087 0.0
H1279 H 0.36673 0.856 0.82029 0.0
H1280 H 0.38616 0.84901 0.76433 0.0
H1281 H 0.42768 0.85954 0.8888 0.0
H1282 H 0.49239 0.85857 0.72336 0.0
H1283 H 0.46745 0.85001 0.79192 0.0
C1284 C 0.61107 0.46424 0.74012 0.0
C1285 C 0.62053 0.47962 0.77414 0.0
C1286 C 0.59952 0.4497 0.77418 0.0
C1287 C 0.56701 0.42902 0.85567 0.0
H1288 H 0.57637 0.41054 0.01252 0.0
C1289 C 0.52942 0.3865 0.09865 0.0
C1290 C 0.51375 0.37578 0.06888 0.0
C1291 C 0.54342 0.39709 0.05981 0.0
C1292 C 0.57347 0.41564 0.96926 0.0
H1293 H 0.62612 0.49156 0.87099 0.0
H1294 H 0.60618 0.46592 0.93081 0.0
H1295 H 0.59965 0.4335 0.95168 0.0
H1296 H 0.50063 0.36683 0.97521 0.0
H1297 H 0.52527 0.38453 0.90698 0.0
H1298 H 0.54091 0.41226 0.8748 0.0
C1299 C 0.60763 0.46526 0.87771 0.0
C1300 C 0.58685 0.42869 0.93426 0.0
C1301 C 0.61895 0.47991 0.84347 0.0
C1302 C 0.51255 0.37514 0.99941 0.0
C1303 C 0.52666 0.38542 0.96042 0.0
C1304 C 0.55363 0.41628 0.89135 0.0
C1305 C 0.59749 0.45018 0.84301 0.0
C1306 C 0.58368 0.43553 0.87749 0.0
C1307 C 0.54219 0.39692 0.9901 0.0
C1308 C 0.55662 0.40949 0.94911 0.0
H1309 H 0.61193 0.46362 0.68667 0.0
H1310 H 0.59182 0.43818 0.74654 0.0
H1311 H 0.56427 0.43429 0.81243 0.0
H1312 H 0.53066 0.38736 0.1522 0.0
H1313 H 0.55499 0.4059 0.08489 0.0
C1314 C 0.12734 0.51444 0.16129 0.0
C1315 C 0.13477 0.51573 0.22373 0.0
C1316 C 0.1314 0.52888 0.12431 0.0
C1317 C 0.14566 0.57365 0.1491 0.0
H1318 H 0.14532 0.57414 0.95667 0.0
C1319 C 0.12577 0.614 0.99851 0.0
C1320 C 0.1334 0.62061 0.93677 0.0
C1321 C 0.13007 0.60373 0.03504 0.0
C1322 C 0.14575 0.57439 0.0104 0.0
H1323 H 0.15309 0.53327 0.29435 0.0
H1324 H 0.16023 0.55849 0.22938 0.0
H1325 H 0.14604 0.55114 0.01482 0.0
H1326 H 0.15221 0.62225 0.86672 0.0
H1327 H 0.15974 0.60434 0.9309 0.0
H1328 H 0.1451 0.59674 0.14469 0.0
C1329 C 0.15106 0.54627 0.20963 0.0
C1330 C 0.14598 0.5611 0.04372 0.0
C1331 C 0.14702 0.53179 0.24668 0.0
C1332 C 0.14601 0.61731 0.91391 0.0
C1333 C 0.15027 0.60698 0.95048 0.0
C1334 C 0.14544 0.58694 0.11579 0.0
C1335 C 0.143 0.545 0.14875 0.0
C1336 C 0.14545 0.56033 0.11343 0.0
C1337 C 0.1421 0.5998 0.01084 0.0
C1338 C 0.145 0.5872 0.04608 0.0
H1339 H 0.11791 0.50229 0.1418 0.0
H1340 H 0.12481 0.52744 0.07797 0.0
H1341 H 0.14513 0.57341 0.20282 0.0
H1342 H 0.11607 0.61632 0.0179 0.0
H1343 H 0.12338 0.59827 0.08094 0.0
loop_
_geom_bond_atom_site_label_1
_geom_bond_atom_site_label_2
_geom_bond_distance
_geom_bond_site_symmetry_2
_ccdc_geom_bond_type
Sc0 O3 2.025 . S
Sc0 O10 2.105 . S
Sc0 O13 2.105 . S
Sc0 O16 2.105 . S
Sc0 O19 2.105 1_554 S
Sc1 O3 2.025 1_556 S
Sc1 O11 2.105 . S
Sc1 O15 2.105 1_556 S
Sc1 O17 2.105 1_556 S
Sc1 O21 2.105 . S
Sc2 O3 2.025 . S
Sc2 O12 2.105 1_554 S
Sc2 O14 2.105 . S
Sc2 O18 2.105 . S
Sc2 O20 2.105 . S
O3 Sc0 2.025 . S
O3 Sc1 2.025 1_554 S
O3 Sc2 2.025 . S
C4 O10 1.268 . S
C4 O20 1.268 . S
C5 O11 1.268 . S
C5 O19 1.268 . S
C6 O12 1.268 . S
C6 O21 1.268 . S
C7 O13 1.268 . S
C7 O17 1.268 . S
C8 O14 1.268 . S
C8 O16 1.268 . S
C9 O15 1.268 . S
C9 O18 1.268 . S
O10 Sc0 2.105 . S
O10 C4 1.268 . S
O11 Sc1 2.105 . S
O11 C5 1.268 . S
O12 Sc2 2.105 1_556 S
O12 C6 1.268 . S
O13 Sc0 2.105 . S
O13 C7 1.268 . S
O14 Sc2 2.105 . S
O14 C8 1.268 . S
O15 Sc1 2.105 1_554 S
O15 C9 1.268 . S
O16 Sc0 2.105 . S
O16 C8 1.268 . S
O17 Sc1 2.105 1_554 S
O17 C7 1.268 . S
O18 Sc2 2.105 . S
O18 C9 1.268 . S
O19 Sc0 2.105 1_556 S
O19 C5 1.268 . S
O20 Sc2 2.105 . S
O20 C4 1.268 . S
O21 Sc1 2.105 . S
O21 C6 1.268 . S
Sc22 O25 2.025 . S
Sc22 O32 2.105 . S
Sc22 O35 2.105 . S
Sc22 O38 2.105 . S
Sc22 O41 2.105 . S
Sc23 O25 2.025 . S
Sc23 O33 2.105 . S
Sc23 O37 2.105 . S
Sc23 O39 2.105 . S
Sc23 O43 2.105 . S
Sc24 O25 2.025 . S
Sc24 O34 2.105 . S
Sc24 O36 2.105 . S
Sc24 O40 2.105 . S
Sc24 O42 2.105 . S
O25 Sc22 2.025 . S
O25 Sc23 2.025 . S
O25 Sc24 2.025 . S
C26 O32 1.268 . S
C26 O42 1.268 . S
C27 O33 1.268 . S
C27 O41 1.268 . S
C28 O34 1.268 . S
C28 O43 1.268 . S
C29 O35 1.268 . S
C29 O39 1.268 . S
C30 O36 1.268 . S
C30 O38 1.268 . S
C31 O37 1.268 . S
C31 O40 1.268 . S
O32 Sc22 2.105 . S
O32 C26 1.268 . S
O33 Sc23 2.105 . S
O33 C27 1.268 . S
O34 Sc24 2.105 . S
O34 C28 1.268 . S
O35 Sc22 2.105 . S
O35 C29 1.268 . S
O36 Sc24 2.105 . S
O36 C30 1.268 . S
O37 Sc23 2.105 . S
O37 C31 1.268 . S
O38 Sc22 2.105 . S
O38 C30 1.268 . S
O39 Sc23 2.105 . S
O39 C29 1.268 . S
O40 Sc24 2.105 . S
O40 C31 1.268 . S
O41 Sc22 2.105 . S
O41 C27 1.268 . S
O42 Sc24 2.105 . S
O42 C26 1.268 . S
O43 Sc23 2.105 . S
O43 C28 1.268 . S
Sc44 O47 2.025 . S
Sc44 O54 2.105 . S
Sc44 O57 2.105 . S
Sc44 O60 2.105 . S
Sc44 O63 2.105 . S
Sc45 O47 2.025 . S
Sc45 O55 2.105 . S
Sc45 O59 2.105 . S
Sc45 O61 2.105 . S
Sc45 O65 2.105 . S
Sc46 O47 2.025 . S
Sc46 O56 2.105 . S
Sc46 O58 2.105 . S
Sc46 O62 2.105 . S
Sc46 O64 2.105 . S
O47 Sc44 2.025 . S
O47 Sc45 2.025 . S
O47 Sc46 2.025 . S
C48 O54 1.268 . S
C48 O64 1.268 . S
C49 O55 1.268 . S
C49 O63 1.268 . S
C50 O56 1.268 . S
C50 O65 1.268 . S
C51 O57 1.268 . S
C51 O61 1.268 . S
C52 O58 1.268 . S
C52 O60 1.268 . S
C53 O59 1.268 . S
C53 O62 1.268 . S
O54 Sc44 2.105 . S
O54 C48 1.268 . S
O55 Sc45 2.105 . S
O55 C49 1.268 . S
O56 Sc46 2.105 . S
O56 C50 1.268 . S
O57 Sc44 2.105 . S
O57 C51 1.268 . S
O58 Sc46 2.105 . S
O58 C52 1.268 . S
O59 Sc45 2.105 . S
O59 C53 1.268 . S
O60 Sc44 2.105 . S
O60 C52 1.268 . S
O61 Sc45 2.105 . S
O61 C51 1.268 . S
O62 Sc46 2.105 . S
O62 C53 1.268 . S
O63 Sc44 2.105 . S
O63 C49 1.268 . S
O64 Sc46 2.105 . S
O64 C48 1.268 . S
O65 Sc45 2.105 . S
O65 C50 1.268 . S
Sc66 O69 2.025 . S
Sc66 O76 2.105 . S
Sc66 O79 2.105 . S
Sc66 O82 2.105 . S
Sc66 O85 2.105 . S
Sc67 O69 2.025 . S
Sc67 O77 2.105 . S
Sc67 O81 2.105 . S
Sc67 O83 2.105 . S
Sc67 O87 2.105 . S
Sc68 O69 2.025 . S
Sc68 O78 2.105 . S
Sc68 O80 2.105 . S
Sc68 O84 2.105 . S
Sc68 O86 2.105 . S
O69 Sc66 2.025 . S
O69 Sc67 2.025 . S
O69 Sc68 2.025 . S
C70 O76 1.268 . S
C70 O86 1.268 . S
C71 O77 1.268 . S
C71 O85 1.268 . S
C72 O78 1.268 . S
C72 O87 1.268 . S
C73 O79 1.268 . S
C73 O83 1.268 . S
C74 O80 1.268 . S
C74 O82 1.268 . S
C75 O81 1.268 . S
C75 O84 1.268 . S
O76 Sc66 2.105 . S
O76 C70 1.268 . S
O77 Sc67 2.105 . S
O77 C71 1.268 . S
O78 Sc68 2.105 . S
O78 C72 1.268 . S
O79 Sc66 2.105 . S
O79 C73 1.268 . S
O80 Sc68 2.105 . S
O80 C74 1.268 . S
O81 Sc67 2.105 . S
O81 C75 1.268 . S
O82 Sc66 2.105 . S
O82 C74 1.268 . S
O83 Sc67 2.105 . S
O83 C73 1.268 . S
O84 Sc68 2.105 . S
O84 C75 1.268 . S
O85 Sc66 2.105 . S
O85 C71 1.268 . S
O86 Sc68 2.105 . S
O86 C70 1.268 . S
O87 Sc67 2.105 . S
O87 C72 1.268 . S
Sc88 O91 2.025 . S
Sc88 O98 2.105 . S
Sc88 O101 2.105 . S
Sc88 O104 2.105 . S
Sc88 O107 2.105 . S
Sc89 O91 2.025 . S
Sc89 O99 2.105 . S
Sc89 O103 2.105 . S
Sc89 O105 2.105 . S
Sc89 O109 2.105 . S
Sc90 O91 2.025 . S
Sc90 O100 2.105 . S
Sc90 O102 2.105 . S
Sc90 O106 2.105 . S
Sc90 O108 2.105 . S
O91 Sc88 2.025 . S
O91 Sc89 2.025 . S
O91 Sc90 2.025 . S
C92 O98 1.268 . S
C92 O108 1.268 . S
C93 O99 1.268 . S
C93 O107 1.268 . S
C94 O100 1.268 . S
C94 O109 1.268 . S
C95 O101 1.268 . S
C95 O105 1.268 . S
C96 O102 1.268 . S
C96 O104 1.268 . S
C97 O103 1.268 . S
C97 O106 1.268 . S
O98 Sc88 2.105 . S
O98 C92 1.268 . S
O99 Sc89 2.105 . S
O99 C93 1.268 . S
O100 Sc90 2.105 . S
O100 C94 1.268 . S
O101 Sc88 2.105 . S
O101 C95 1.268 . S
O102 Sc90 2.105 . S
O102 C96 1.268 . S
O103 Sc89 2.105 . S
O103 C97 1.268 . S
O104 Sc88 2.105 . S
O104 C96 1.268 . S
O105 Sc89 2.105 . S
O105 C95 1.268 . S
O106 Sc90 2.105 . S
O106 C97 1.268 . S
O107 Sc88 2.105 . S
O107 C93 1.268 . S
O108 Sc90 2.105 . S
O108 C92 1.268 . S
O109 Sc89 2.105 . S
O109 C94 1.268 . S
Sc110 O113 2.025 . S
Sc110 O120 2.105 . S
Sc110 O123 2.105 . S
Sc110 O126 2.105 . S
Sc110 O129 2.105 . S
Sc111 O113 2.025 . S
Sc111 O121 2.105 . S
Sc111 O125 2.105 . S
Sc111 O127 2.105 . S
Sc111 O131 2.105 . S
Sc112 O113 2.025 . S
Sc112 O122 2.105 . S
Sc112 O124 2.105 . S
Sc112 O128 2.105 . S
Sc112 O130 2.105 . S
O113 Sc110 2.025 . S
O113 Sc111 2.025 . S
O113 Sc112 2.025 . S
C114 O120 1.268 . S
C114 O130 1.268 . S
C115 O121 1.268 . S
C115 O129 1.268 . S
C116 O122 1.268 . S
C116 O131 1.268 . S
C117 O123 1.268 . S
C117 O127 1.268 . S
C118 O124 1.268 1_554 S
C118 O126 1.268 1_554 S
C119 O125 1.268 . S
C119 O128 1.268 . S
O120 Sc110 2.105 . S
O120 C114 1.268 . S
O121 Sc111 2.105 . S
O121 C115 1.268 . S
O122 Sc112 2.105 . S
O122 C116 1.268 . S
O123 Sc110 2.105 . S
O123 C117 1.268 . S
O124 Sc112 2.105 . S
O124 C118 1.268 1_556 S
O125 Sc111 2.105 . S
O125 C119 1.268 . S
O126 Sc110 2.105 . S
O126 C118 1.268 1_556 S
O127 Sc111 2.105 . S
O127 C117 1.268 . S
O128 Sc112 2.105 . S
O128 C119 1.268 . S
O129 Sc110 2.105 . S
O129 C115 1.268 . S
O130 Sc112 2.105 . S
O130 C114 1.268 . S
O131 Sc111 2.105 . S
O131 C116 1.268 . S
Sc132 O135 2.025 . S
Sc132 O142 2.105 . S
Sc132 O145 2.105 . S
Sc132 O148 2.105 . S
Sc132 O151 2.105 . S
Sc133 O135 2.025 . S
Sc133 O143 2.105 . S
Sc133 O147 2.105 . S
Sc133 O149 2.105 . S
Sc133 O153 2.105 . S
Sc134 O135 2.025 . S
Sc134 O144 2.105 . S
Sc134 O146 2.105 . S
Sc134 O150 2.105 . S
Sc134 O152 2.105 . S
O135 Sc132 2.025 . S
O135 Sc133 2.025 . S
O135 Sc134 2.025 . S
C136 O142 1.268 . S
C136 O152 1.268 . S
C137 O143 1.268 . S
C137 O151 1.268 . S
C138 O144 1.268 . S
C138 O153 1.268 . S
C139 O145 1.268 . S
C139 O149 1.268 . S
C140 O146 1.268 . S
C140 O148 1.268 . S
C141 O147 1.268 . S
C141 O150 1.268 . S
O142 Sc132 2.105 . S
O142 C136 1.268 . S
O143 Sc133 2.105 . S
O143 C137 1.268 . S
O144 Sc134 2.105 . S
O144 C138 1.268 . S
O145 Sc132 2.105 . S
O145 C139 1.268 . S
O146 Sc134 2.105 . S
O146 C140 1.268 . S
O147 Sc133 2.105 . S
O147 C141 1.268 . S
O148 Sc132 2.105 . S
O148 C140 1.268 . S
O149 Sc133 2.105 . S
O149 C139 1.268 . S
O150 Sc134 2.105 . S
O150 C141 1.268 . S
O151 Sc132 2.105 . S
O151 C137 1.268 . S
O152 Sc134 2.105 . S
O152 C136 1.268 . S
O153 Sc133 2.105 . S
O153 C138 1.268 . S
Sc154 O157 2.025 . S
Sc154 O164 2.105 . S
Sc154 O167 2.105 1_556 S
Sc154 O170 2.105 1_556 S
Sc154 O173 2.105 . S
Sc155 O157 2.025 1_554 S
Sc155 O165 2.105 . S
Sc155 O169 2.105 . S
Sc155 O171 2.105 . S
Sc155 O175 2.105 1_554 S
Sc156 O157 2.025 . S
Sc156 O166 2.105 . S
Sc156 O168 2.105 . S
Sc156 O172 2.105 1_556 S
Sc156 O174 2.105 . S
O157 Sc154 2.025 . S
O157 Sc155 2.025 1_556 S
O157 Sc156 2.025 . S
C158 O164 1.268 . S
C158 O174 1.268 . S
C159 O165 1.268 1_556 S
C159 O173 1.268 . S
C160 O166 1.268 . S
C160 O175 1.268 . S
C161 O167 1.268 . S
C161 O171 1.268 . S
C162 O168 1.268 1_554 S
C162 O170 1.268 . S
C163 O169 1.268 . S
C163 O172 1.268 . S
O164 Sc154 2.105 . S
O164 C158 1.268 . S
O165 Sc155 2.105 . S
O165 C159 1.268 1_554 S
O166 Sc156 2.105 . S
O166 C160 1.268 . S
O167 Sc154 2.105 1_554 S
O167 C161 1.268 . S
O168 Sc156 2.105 . S
O168 C162 1.268 1_556 S
O169 Sc155 2.105 . S
O169 C163 1.268 . S
O170 Sc154 2.105 1_554 S
O170 C162 1.268 . S
O171 Sc155 2.105 . S
O171 C161 1.268 . S
O172 Sc156 2.105 1_554 S
O172 C163 1.268 . S
O173 Sc154 2.105 . S
O173 C159 1.268 . S
O174 Sc156 2.105 . S
O174 C158 1.268 . S
O175 Sc155 2.105 1_556 S
O175 C160 1.268 . S
Sc176 O179 2.025 . S
Sc176 O186 2.105 . S
Sc176 O189 2.105 . S
Sc176 O192 2.105 . S
Sc176 O195 2.105 . S
Sc177 O179 2.025 . S
Sc177 O187 2.105 . S
Sc177 O191 2.105 . S
Sc177 O193 2.105 . S
Sc177 O197 2.105 . S
Sc178 O179 2.025 . S
Sc178 O188 2.105 . S
Sc178 O190 2.105 . S
Sc178 O194 2.105 . S
Sc178 O196 2.105 . S
O179 Sc176 2.025 . S
O179 Sc177 2.025 . S
O179 Sc178 2.025 . S
C180 O186 1.268 . S
C180 O196 1.268 . S
C181 O187 1.268 . S
C181 O195 1.268 . S
C182 O188 1.268 . S
C182 O197 1.268 . S
C183 O189 1.268 . S
C183 O193 1.268 . S
C184 O190 1.268 . S
C184 O192 1.268 . S
C185 O191 1.268 . S
C185 O194 1.268 . S
O186 Sc176 2.105 . S
O186 C180 1.268 . S
O187 Sc177 2.105 . S
O187 C181 1.268 . S
O188 Sc178 2.105 . S
O188 C182 1.268 . S
O189 Sc176 2.105 . S
O189 C183 1.268 . S
O190 Sc178 2.105 . S
O190 C184 1.268 . S
O191 Sc177 2.105 . S
O191 C185 1.268 . S
O192 Sc176 2.105 . S
O192 C184 1.268 . S
O193 Sc177 2.105 . S
O193 C183 1.268 . S
O194 Sc178 2.105 . S
O194 C185 1.268 . S
O195 Sc176 2.105 . S
O195 C181 1.268 . S
O196 Sc178 2.105 . S
O196 C180 1.268 . S
O197 Sc177 2.105 . S
O197 C182 1.268 . S
Sc198 O201 2.025 . S
Sc198 O208 2.105 . S
Sc198 O211 2.105 . S
Sc198 O214 2.105 . S
Sc198 O217 2.105 . S
Sc199 O201 2.025 . S
Sc199 O209 2.105 . S
Sc199 O213 2.105 . S
Sc199 O215 2.105 . S
Sc199 O219 2.105 . S
Sc200 O201 2.025 . S
Sc200 O210 2.105 . S
Sc200 O212 2.105 . S
Sc200 O216 2.105 . S
Sc200 O218 2.105 . S
O201 Sc198 2.025 . S
O201 Sc199 2.025 . S
O201 Sc200 2.025 . S
C202 O208 1.268 . S
C202 O218 1.268 . S
C203 O209 1.268 . S
C203 O217 1.268 . S
C204 O210 1.268 . S
C204 O219 1.268 . S
C205 O211 1.268 . S
C205 O215 1.268 . S
C206 O212 1.268 . S
C206 O214 1.268 . S
C207 O213 1.268 . S
C207 O216 1.268 . S
O208 Sc198 2.105 . S
O208 C202 1.268 . S
O209 Sc199 2.105 . S
O209 C203 1.268 . S
O210 Sc200 2.105 . S
O210 C204 1.268 . S
O211 Sc198 2.105 . S
O211 C205 1.268 . S
O212 Sc200 2.105 . S
O212 C206 1.268 . S
O213 Sc199 2.105 . S
O213 C207 1.268 . S
O214 Sc198 2.105 . S
O214 C206 1.268 . S
O215 Sc199 2.105 . S
O215 C205 1.268 . S
O216 Sc200 2.105 . S
O216 C207 1.268 . S
O217 Sc198 2.105 . S
O217 C203 1.268 . S
O218 Sc200 2.105 . S
O218 C202 1.268 . S
O219 Sc199 2.105 . S
O219 C204 1.268 . S
Sc220 O223 2.025 . S
Sc220 O230 2.105 . S
Sc220 O233 2.105 . S
Sc220 O236 2.105 . S
Sc220 O239 2.105 . S
Sc221 O223 2.025 . S
Sc221 O231 2.105 . S
Sc221 O235 2.105 . S
Sc221 O237 2.105 . S
Sc221 O241 2.105 . S
Sc222 O223 2.025 . S
Sc222 O232 2.105 . S
Sc222 O234 2.105 . S
Sc222 O238 2.105 . S
Sc222 O240 2.105 . S
O223 Sc220 2.025 . S
O223 Sc221 2.025 . S
O223 Sc222 2.025 . S
C224 O230 1.268 . S
C224 O240 1.268 . S
C225 O231 1.268 . S
C225 O239 1.268 . S
C226 O232 1.268 . S
C226 O241 1.268 . S
C227 O233 1.268 . S
C227 O237 1.268 . S
C228 O234 1.268 . S
C228 O236 1.268 . S
C229 O235 1.268 . S
C229 O238 1.268 . S
O230 Sc220 2.105 . S
O230 C224 1.268 . S
O231 Sc221 2.105 . S
O231 C225 1.268 . S
O232 Sc222 2.105 . S
O232 C226 1.268 . S
O233 Sc220 2.105 . S
O233 C227 1.268 . S
O234 Sc222 2.105 . S
O234 C228 1.268 . S
O235 Sc221 2.105 . S
O235 C229 1.268 . S
O236 Sc220 2.105 . S
O236 C228 1.268 . S
O237 Sc221 2.105 . S
O237 C227 1.268 . S
O238 Sc222 2.105 . S
O238 C229 1.268 . S
O239 Sc220 2.105 . S
O239 C225 1.268 . S
O240 Sc222 2.105 . S
O240 C224 1.268 . S
O241 Sc221 2.105 . S
O241 C226 1.268 . S
Sc242 O245 2.025 . S
Sc242 O252 2.105 . S
Sc242 O255 2.105 . S
Sc242 O258 2.105 . S
Sc242 O261 2.105 . S
Sc243 O245 2.025 . S
Sc243 O253 2.105 . S
Sc243 O257 2.105 . S
Sc243 O259 2.105 . S
Sc243 O263 2.105 . S
Sc244 O245 2.025 . S
Sc244 O254 2.105 . S
Sc244 O256 2.105 . S
Sc244 O260 2.105 . S
Sc244 O262 2.105 . S
O245 Sc242 2.025 . S
O245 Sc243 2.025 . S
O245 Sc244 2.025 . S
C246 O252 1.268 . S
C246 O262 1.268 . S
C247 O253 1.268 . S
C247 O261 1.268 . S
C248 O254 1.268 . S
C248 O263 1.268 . S
C249 O255 1.268 . S
C249 O259 1.268 . S
C250 O256 1.268 . S
C250 O258 1.268 . S
C251 O257 1.268 . S
C251 O260 1.268 . S
O252 Sc242 2.105 . S
O252 C246 1.268 . S
O253 Sc243 2.105 . S
O253 C247 1.268 . S
O254 Sc244 2.105 . S
O254 C248 1.268 . S
O255 Sc242 2.105 . S
O255 C249 1.268 . S
O256 Sc244 2.105 . S
O256 C250 1.268 . S
O257 Sc243 2.105 . S
O257 C251 1.268 . S
O258 Sc242 2.105 . S
O258 C250 1.268 . S
O259 Sc243 2.105 . S
O259 C249 1.268 . S
O260 Sc244 2.105 . S
O260 C251 1.268 . S
O261 Sc242 2.105 . S
O261 C247 1.268 . S
O262 Sc244 2.105 . S
O262 C246 1.268 . S
O263 Sc243 2.105 . S
O263 C248 1.268 . S
C264 C265 1.349 . S
C264 C266 1.327 . S
C264 H289 0.950 . S
C265 C264 1.349 . S
C265 C281 1.349 . S
C266 C264 1.327 . S
C266 C285 1.429 . S
C266 H290 0.950 . S
C267 C284 1.574 . S
C267 C286 1.368 . S
C267 H291 0.949 . S
H268 C272 0.949 . S
C269 C270 1.349 . S
C269 C271 1.327 . S
C269 H292 0.950 . S
C270 C269 1.349 . S
C270 C282 1.349 . S
C271 C269 1.327 . S
C271 C287 1.429 . S
C271 H293 0.950 . S
C272 H268 0.949 . S
C272 C280 1.574 . S
C272 C288 1.368 . S
H273 C281 0.950 . S
H274 C279 0.950 . S
H275 C280 0.949 . S
H276 C282 0.950 . S
H277 C283 0.950 . S
H278 C284 0.949 . S
C279 H274 0.950 . S
C279 C281 1.327 . S
C279 C285 1.429 . S
C280 C272 1.574 . S
C280 H275 0.949 . S
C280 C286 1.368 . S
C281 C265 1.349 . S
C281 H273 0.950 . S
C281 C279 1.327 . S
C282 C270 1.349 . S
C282 H276 0.950 . S
C282 C283 1.327 . S
C283 H277 0.950 . S
C283 C282 1.327 . S
C283 C287 1.429 . S
C284 C267 1.574 . S
C284 H278 0.949 . S
C284 C288 1.368 . S
C285 C266 1.429 . S
C285 C279 1.429 . S
C285 C286 1.523 . S
C286 C267 1.368 . S
C286 C280 1.368 . S
C286 C285 1.523 . S
C287 C271 1.429 . S
C287 C283 1.429 . S
C287 C288 1.523 . S
C288 C272 1.368 . S
C288 C284 1.368 . S
C288 C287 1.523 . S
H289 C264 0.950 . S
H290 C266 0.950 . S
H291 C267 0.949 . S
H292 C269 0.950 . S
H293 C271 0.950 . S
C294 C295 1.349 . S
C294 C296 1.327 . S
C294 H319 0.950 . S
C295 C294 1.349 . S
C295 C311 1.349 . S
C296 C294 1.327 . S
C296 C315 1.429 . S
C296 H320 0.950 . S
C297 C314 1.574 . S
C297 C316 1.368 . S
C297 H321 0.949 . S
H298 C302 0.949 . S
C299 C300 1.349 . S
C299 C301 1.327 . S
C299 H322 0.950 . S
C300 C299 1.349 . S
C300 C312 1.349 . S
C301 C299 1.327 . S
C301 C317 1.429 . S
C301 H323 0.950 . S
C302 H298 0.949 . S
C302 C310 1.574 . S
C302 C318 1.368 . S
H303 C311 0.950 . S
H304 C309 0.950 . S
H305 C310 0.949 . S
H306 C312 0.950 . S
H307 C313 0.950 . S
H308 C314 0.949 . S
C309 H304 0.950 . S
C309 C311 1.327 . S
C309 C315 1.429 . S
C310 C302 1.574 . S
C310 H305 0.949 . S
C310 C316 1.368 . S
C311 C295 1.349 . S
C311 H303 0.950 . S
C311 C309 1.327 . S
C312 C300 1.349 . S
C312 H306 0.950 . S
C312 C313 1.327 . S
C313 H307 0.950 . S
C313 C312 1.327 . S
C313 C317 1.429 . S
C314 C297 1.574 . S
C314 H308 0.949 . S
C314 C318 1.368 . S
C315 C296 1.429 . S
C315 C309 1.429 . S
C315 C316 1.523 . S
C316 C297 1.368 . S
C316 C310 1.368 . S
C316 C315 1.523 . S
C317 C301 1.429 . S
C317 C313 1.429 . S
C317 C318 1.523 . S
C318 C302 1.368 . S
C318 C314 1.368 . S
C318 C317 1.523 . S
H319 C294 0.950 . S
H320 C296 0.950 . S
H321 C297 0.949 . S
H322 C299 0.950 . S
H323 C301 0.950 . S
C324 C325 1.349 . S
C324 C326 1.327 . S
C324 H349 0.950 . S
C325 C324 1.349 . S
C325 C341 1.349 . S
C326 C324 1.327 . S
C326 C345 1.429 . S
C326 H350 0.950 . S
C327 C344 1.574 . S
C327 C346 1.368 . S
C327 H351 0.949 . S
H328 C332 0.949 . S
C329 C330 1.349 . S
C329 C331 1.327 . S
C329 H352 0.950 . S
C330 C329 1.349 . S
C330 C342 1.349 . S
C331 C329 1.327 . S
C331 C347 1.429 1_554 S
C331 H353 0.950 . S
C332 H328 0.949 . S
C332 C340 1.574 . S
C332 C348 1.368 . S
H333 C341 0.950 . S
H334 C339 0.950 . S
H335 C340 0.949 . S
H336 C342 0.950 . S
H337 C343 0.950 . S
H338 C344 0.949 . S
C339 H334 0.950 . S
C339 C341 1.327 . S
C339 C345 1.429 . S
C340 C332 1.574 . S
C340 H335 0.949 . S
C340 C346 1.368 . S
C341 C325 1.349 . S
C341 H333 0.950 . S
C341 C339 1.327 . S
C342 C330 1.349 . S
C342 H336 0.950 . S
C342 C343 1.327 . S
C343 H337 0.950 . S
C343 C342 1.327 . S
C343 C347 1.429 1_554 S
C344 C327 1.574 . S
C344 H338 0.949 . S
C344 C348 1.368 . S
C345 C326 1.429 . S
C345 C339 1.429 . S
C345 C346 1.523 . S
C346 C327 1.368 . S
C346 C340 1.368 . S
C346 C345 1.523 . S
C347 C331 1.429 1_556 S
C347 C343 1.429 1_556 S
C347 C348 1.523 . S
C348 C332 1.368 . S
C348 C344 1.368 . S
C348 C347 1.523 . S
H349 C324 0.950 . S
H350 C326 0.950 . S
H351 C327 0.949 . S
H352 C329 0.950 . S
H353 C331 0.950 . S
C354 C355 1.349 . S
C354 C356 1.327 . S
C354 H379 0.950 . S
C355 C354 1.349 . S
C355 C371 1.349 . S
C356 C354 1.327 . S
C356 C375 1.429 . S
C356 H380 0.950 . S
C357 C374 1.574 1_554 S
C357 C376 1.368 . S
C357 H381 0.949 . S
H358 C362 0.949 . S
C359 C360 1.349 . S
C359 C361 1.327 . S
C359 H382 0.950 . S
C360 C359 1.349 . S
C360 C372 1.349 . S
C361 C359 1.327 . S
C361 C377 1.429 . S
C361 H383 0.950 . S
C362 H358 0.949 . S
C362 C370 1.574 1_556 S
C362 C378 1.368 . S
H363 C371 0.950 . S
H364 C369 0.950 . S
H365 C370 0.949 . S
H366 C372 0.950 . S
H367 C373 0.950 . S
H368 C374 0.949 . S
C369 H364 0.950 . S
C369 C371 1.327 . S
C369 C375 1.429 . S
C370 C362 1.574 1_554 S
C370 H365 0.949 . S
C370 C376 1.368 . S
C371 C355 1.349 . S
C371 H363 0.950 . S
C371 C369 1.327 . S
C372 C360 1.349 . S
C372 H366 0.950 . S
C372 C373 1.327 . S
C373 H367 0.950 . S
C373 C372 1.327 . S
C373 C377 1.429 . S
C374 C357 1.574 1_556 S
C374 H368 0.949 . S
C374 C378 1.368 . S
C375 C356 1.429 . S
C375 C369 1.429 . S
C375 C376 1.523 . S
C376 C357 1.368 . S
C376 C370 1.368 . S
C376 C375 1.523 . S
C377 C361 1.429 . S
C377 C373 1.429 . S
C377 C378 1.523 . S
C378 C362 1.368 . S
C378 C374 1.368 . S
C378 C377 1.523 . S
H379 C354 0.950 . S
H380 C356 0.950 . S
H381 C357 0.949 . S
H382 C359 0.950 . S
H383 C361 0.950 . S
C384 C385 1.349 . S
C384 C386 1.327 1_556 S
C384 H409 0.950 . S
C385 C384 1.349 . S
C385 C401 1.349 . S
C386 C384 1.327 1_554 S
C386 C405 1.429 . S
C386 H410 0.950 . S
C387 C404 1.574 . S
C387 C406 1.368 . S
C387 H411 0.949 . S
H388 C392 0.949 . S
C389 C390 1.349 . S
C389 C391 1.327 . S
C389 H412 0.950 . S
C390 C389 1.349 . S
C390 C402 1.349 . S
C391 C389 1.327 . S
C391 C407 1.429 . S
C391 H413 0.950 . S
C392 H388 0.949 . S
C392 C400 1.574 . S
C392 C408 1.368 . S
H393 C401 0.950 . S
H394 C399 0.950 . S
H395 C400 0.949 . S
H396 C402 0.950 . S
H397 C403 0.950 . S
H398 C404 0.949 . S
C399 H394 0.950 . S
C399 C401 1.327 1_554 S
C399 C405 1.429 . S
C400 C392 1.574 . S
C400 H395 0.949 . S
C400 C406 1.368 . S
C401 C385 1.349 . S
C401 H393 0.950 . S
C401 C399 1.327 1_556 S
C402 C390 1.349 . S
C402 H396 0.950 . S
C402 C403 1.327 . S
C403 H397 0.950 . S
C403 C402 1.327 . S
C403 C407 1.429 . S
C404 C387 1.574 . S
C404 H398 0.949 . S
C404 C408 1.368 . S
C405 C386 1.429 . S
C405 C399 1.429 . S
C405 C406 1.523 . S
C406 C387 1.368 . S
C406 C400 1.368 . S
C406 C405 1.523 . S
C407 C391 1.429 . S
C407 C403 1.429 . S
C407 C408 1.523 . S
C408 C392 1.368 . S
C408 C404 1.368 . S
C408 C407 1.523 . S
H409 C384 0.950 . S
H410 C386 0.950 . S
H411 C387 0.949 . S
H412 C389 0.950 . S
H413 C391 0.950 . S
C414 C415 1.349 . S
C414 C416 1.327 . S
C414 H439 0.950 . S
C415 C414 1.349 . S
C415 C431 1.349 . S
C416 C414 1.327 . S
C416 C435 1.429 . S
C416 H440 0.950 . S
C417 C434 1.574 . S
C417 C436 1.368 . S
C417 H441 0.949 . S
H418 C422 0.949 . S
C419 C420 1.349 . S
C419 C421 1.327 . S
C419 H442 0.950 . S
C420 C419 1.349 . S
C420 C432 1.349 . S
C421 C419 1.327 . S
C421 C437 1.429 . S
C421 H443 0.950 . S
C422 H418 0.949 . S
C422 C430 1.574 . S
C422 C438 1.368 . S
H423 C431 0.950 . S
H424 C429 0.950 . S
H425 C430 0.949 . S
H426 C432 0.950 . S
H427 C433 0.950 . S
H428 C434 0.949 . S
C429 H424 0.950 . S
C429 C431 1.327 . S
C429 C435 1.429 . S
C430 C422 1.574 . S
C430 H425 0.949 . S
C430 C436 1.368 . S
C431 C415 1.349 . S
C431 H423 0.950 . S
C431 C429 1.327 . S
C432 C420 1.349 . S
C432 H426 0.950 . S
C432 C433 1.327 . S
C433 H427 0.950 . S
C433 C432 1.327 . S
C433 C437 1.429 . S
C434 C417 1.574 . S
C434 H428 0.949 . S
C434 C438 1.368 . S
C435 C416 1.429 . S
C435 C429 1.429 . S
C435 C436 1.523 . S
C436 C417 1.368 . S
C436 C430 1.368 . S
C436 C435 1.523 . S
C437 C421 1.429 . S
C437 C433 1.429 . S
C437 C438 1.523 . S
C438 C422 1.368 . S
C438 C434 1.368 . S
C438 C437 1.523 . S
H439 C414 0.950 . S
H440 C416 0.950 . S
H441 C417 0.949 . S
H442 C419 0.950 . S
H443 C421 0.950 . S
C444 C445 1.349 . S
C444 C446 1.327 . S
C444 H469 0.950 . S
C445 C444 1.349 . S
C445 C461 1.349 . S
C446 C444 1.327 . S
C446 C465 1.429 . S
C446 H470 0.950 . S
C447 C464 1.574 . S
C447 C466 1.368 . S
C447 H471 0.949 . S
H448 C452 0.949 . S
C449 C450 1.349 . S
C449 C451 1.327 . S
C449 H472 0.950 . S
C450 C449 1.349 . S
C450 C462 1.349 . S
C451 C449 1.327 . S
C451 C467 1.429 . S
C451 H473 0.950 . S
C452 H448 0.949 . S
C452 C460 1.574 . S
C452 C468 1.368 . S
H453 C461 0.950 . S
H454 C459 0.950 . S
H455 C460 0.949 . S
H456 C462 0.950 . S
H457 C463 0.950 . S
H458 C464 0.949 . S
C459 H454 0.950 . S
C459 C461 1.327 . S
C459 C465 1.429 . S
C460 C452 1.574 . S
C460 H455 0.949 . S
C460 C466 1.368 . S
C461 C445 1.349 . S
C461 H453 0.950 . S
C461 C459 1.327 . S
C462 C450 1.349 . S
C462 H456 0.950 . S
C462 C463 1.327 . S
C463 H457 0.950 . S
C463 C462 1.327 . S
C463 C467 1.429 . S
C464 C447 1.574 . S
C464 H458 0.949 . S
C464 C468 1.368 . S
C465 C446 1.429 . S
C465 C459 1.429 . S
C465 C466 1.523 . S
C466 C447 1.368 . S
C466 C460 1.368 . S
C466 C465 1.523 . S
C467 C451 1.429 . S
C467 C463 1.429 . S
C467 C468 1.523 . S
C468 C452 1.368 . S
C468 C464 1.368 . S
C468 C467 1.523 . S
H469 C444 0.950 . S
H470 C446 0.950 . S
H471 C447 0.949 . S
H472 C449 0.950 . S
H473 C451 0.950 . S
C474 C475 1.349 . S
C474 C476 1.327 . S
C474 H499 0.950 . S
C475 C474 1.349 . S
C475 C491 1.349 . S
C476 C474 1.327 . S
C476 C495 1.429 . S
C476 H500 0.950 . S
C477 C494 1.574 . S
C477 C496 1.368 . S
C477 H501 0.949 . S
H478 C482 0.949 . S
C479 C480 1.349 . S
C479 C481 1.327 . S
C479 H502 0.950 . S
C480 C479 1.349 . S
C480 C492 1.349 . S
C481 C479 1.327 . S
C481 C497 1.429 . S
C481 H503 0.950 . S
C482 H478 0.949 . S
C482 C490 1.574 . S
C482 C498 1.368 . S
H483 C491 0.950 . S
H484 C489 0.950 . S
H485 C490 0.949 . S
H486 C492 0.950 . S
H487 C493 0.950 . S
H488 C494 0.949 . S
C489 H484 0.950 . S
C489 C491 1.327 . S
C489 C495 1.429 . S
C490 C482 1.574 . S
C490 H485 0.949 . S
C490 C496 1.368 . S
C491 C475 1.349 . S
C491 H483 0.950 . S
C491 C489 1.327 . S
C492 C480 1.349 . S
C492 H486 0.950 . S
C492 C493 1.327 . S
C493 H487 0.950 . S
C493 C492 1.327 . S
C493 C497 1.429 . S
C494 C477 1.574 . S
C494 H488 0.949 . S
C494 C498 1.368 . S
C495 C476 1.429 . S
C495 C489 1.429 . S
C495 C496 1.523 . S
C496 C477 1.368 . S
C496 C490 1.368 . S
C496 C495 1.523 . S
C497 C481 1.429 . S
C497 C493 1.429 . S
C497 C498 1.523 . S
C498 C482 1.368 . S
C498 C494 1.368 . S
C498 C497 1.523 . S
H499 C474 0.950 . S
H500 C476 0.950 . S
H501 C477 0.949 . S
H502 C479 0.950 . S
H503 C481 0.950 . S
C504 C505 1.349 . S
C504 C506 1.327 . S
C504 H529 0.950 . S
C505 C504 1.349 . S
C505 C521 1.349 . S
C506 C504 1.327 . S
C506 C525 1.429 . S
C506 H530 0.950 . S
C507 C524 1.574 . S
C507 C526 1.368 . S
C507 H531 0.949 . S
H508 C512 0.949 . S
C509 C510 1.349 . S
C509 C511 1.327 . S
C509 H532 0.950 . S
C510 C509 1.349 . S
C510 C522 1.349 . S
C511 C509 1.327 . S
C511 C527 1.429 . S
C511 H533 0.950 . S
C512 H508 0.949 . S
C512 C520 1.574 . S
C512 C528 1.368 . S
H513 C521 0.950 . S
H514 C519 0.950 . S
H515 C520 0.949 . S
H516 C522 0.950 . S
H517 C523 0.950 . S
H518 C524 0.949 . S
C519 H514 0.950 . S
C519 C521 1.327 . S
C519 C525 1.429 . S
C520 C512 1.574 . S
C520 H515 0.949 . S
C520 C526 1.368 . S
C521 C505 1.349 . S
C521 H513 0.950 . S
C521 C519 1.327 . S
C522 C510 1.349 . S
C522 H516 0.950 . S
C522 C523 1.327 . S
C523 H517 0.950 . S
C523 C522 1.327 . S
C523 C527 1.429 . S
C524 C507 1.574 . S
C524 H518 0.949 . S
C524 C528 1.368 . S
C525 C506 1.429 . S
C525 C519 1.429 . S
C525 C526 1.523 . S
C526 C507 1.368 . S
C526 C520 1.368 . S
C526 C525 1.523 . S
C527 C511 1.429 . S
C527 C523 1.429 . S
C527 C528 1.523 . S
C528 C512 1.368 . S
C528 C524 1.368 . S
C528 C527 1.523 . S
H529 C504 0.950 . S
H530 C506 0.950 . S
H531 C507 0.949 . S
H532 C509 0.950 . S
H533 C511 0.950 . S
C534 C535 1.349 . S
C534 C536 1.327 1_554 S
C534 H559 0.950 . S
C535 C534 1.349 . S
C535 C551 1.349 . S
C536 C534 1.327 1_556 S
C536 C555 1.429 . S
C536 H560 0.950 . S
C537 C554 1.574 . S
C537 C556 1.368 . S
C537 H561 0.949 . S
H538 C542 0.949 . S
C539 C540 1.349 . S
C539 C541 1.327 . S
C539 H562 0.950 . S
C540 C539 1.349 . S
C540 C552 1.349 . S
C541 C539 1.327 . S
C541 C557 1.429 . S
C541 H563 0.950 . S
C542 H538 0.949 . S
C542 C550 1.574 . S
C542 C558 1.368 . S
H543 C551 0.950 . S
H544 C549 0.950 1_556 S
H545 C550 0.949 . S
H546 C552 0.950 . S
H547 C553 0.950 . S
H548 C554 0.949 . S
C549 H544 0.950 1_554 S
C549 C551 1.327 . S
C549 C555 1.429 1_554 S
C550 C542 1.574 . S
C550 H545 0.949 . S
C550 C556 1.368 . S
C551 C535 1.349 . S
C551 H543 0.950 . S
C551 C549 1.327 . S
C552 C540 1.349 . S
C552 H546 0.950 . S
C552 C553 1.327 . S
C553 H547 0.950 . S
C553 C552 1.327 . S
C553 C557 1.429 . S
C554 C537 1.574 . S
C554 H548 0.949 . S
C554 C558 1.368 . S
C555 C536 1.429 . S
C555 C549 1.429 1_556 S
C555 C556 1.523 . S
C556 C537 1.368 . S
C556 C550 1.368 . S
C556 C555 1.523 . S
C557 C541 1.429 . S
C557 C553 1.429 . S
C557 C558 1.523 . S
C558 C542 1.368 . S
C558 C554 1.368 . S
C558 C557 1.523 . S
H559 C534 0.950 . S
H560 C536 0.950 . S
H561 C537 0.949 . S
H562 C539 0.950 . S
H563 C541 0.950 . S
C564 C565 1.349 . S
C564 C566 1.327 . S
C564 H589 0.950 . S
C565 C564 1.349 . S
C565 C581 1.349 . S
C566 C564 1.327 . S
C566 C585 1.429 . S
C566 H590 0.950 . S
C567 C584 1.574 1_556 S
C567 C586 1.368 . S
C567 H591 0.949 . S
H568 C572 0.949 . S
C569 C570 1.349 . S
C569 C571 1.327 . S
C569 H592 0.950 . S
C570 C569 1.349 . S
C570 C582 1.349 . S
C571 C569 1.327 . S
C571 C587 1.429 . S
C571 H593 0.950 . S
C572 H568 0.949 . S
C572 C580 1.574 1_554 S
C572 C588 1.368 . S
H573 C581 0.950 . S
H574 C579 0.950 . S
H575 C580 0.949 . S
H576 C582 0.950 . S
H577 C583 0.950 . S
H578 C584 0.949 . S
C579 H574 0.950 . S
C579 C581 1.327 . S
C579 C585 1.429 . S
C580 C572 1.574 1_556 S
C580 H575 0.949 . S
C580 C586 1.368 . S
C581 C565 1.349 . S
C581 H573 0.950 . S
C581 C579 1.327 . S
C582 C570 1.349 . S
C582 H576 0.950 . S
C582 C583 1.327 . S
C583 H577 0.950 . S
C583 C582 1.327 . S
C583 C587 1.429 . S
C584 C567 1.574 1_554 S
C584 H578 0.949 . S
C584 C588 1.368 . S
C585 C566 1.429 . S
C585 C579 1.429 . S
C585 C586 1.523 . S
C586 C567 1.368 . S
C586 C580 1.368 . S
C586 C585 1.523 . S
C587 C571 1.429 . S
C587 C583 1.429 . S
C587 C588 1.523 . S
C588 C572 1.368 . S
C588 C584 1.368 . S
C588 C587 1.523 . S
H589 C564 0.950 . S
H590 C566 0.950 . S
H591 C567 0.949 . S
H592 C569 0.950 . S
H593 C571 0.950 . S
C594 C595 1.349 . S
C594 C596 1.327 . S
C594 H619 0.950 . S
C595 C594 1.349 . S
C595 C611 1.349 . S
C596 C594 1.327 . S
C596 C615 1.429 . S
C596 H620 0.950 . S
C597 C614 1.574 . S
C597 C616 1.368 . S
C597 H621 0.949 . S
H598 C602 0.949 . S
C599 C600 1.349 . S
C599 C601 1.327 . S
C599 H622 0.950 . S
C600 C599 1.349 . S
C600 C612 1.349 . S
C601 C599 1.327 . S
C601 C617 1.429 1_556 S
C601 H623 0.950 1_556 S
C602 H598 0.949 . S
C602 C610 1.574 . S
C602 C618 1.368 . S
H603 C611 0.950 . S
H604 C609 0.950 . S
H605 C610 0.949 . S
H606 C612 0.950 . S
H607 C613 0.952 . S
H608 C614 0.949 . S
C609 H604 0.950 . S
C609 C611 1.327 . S
C609 C615 1.429 . S
C610 C602 1.574 . S
C610 H605 0.949 . S
C610 C616 1.368 . S
C611 C595 1.349 . S
C611 H603 0.950 . S
C611 C609 1.327 . S
C612 C600 1.349 . S
C612 H606 0.950 . S
C612 C613 1.327 . S
C613 H607 0.952 . S
C613 C612 1.327 . S
C613 C617 1.429 1_556 S
C614 C597 1.574 . S
C614 H608 0.949 . S
C614 C618 1.368 . S
C615 C596 1.429 . S
C615 C609 1.429 . S
C615 C616 1.523 . S
C616 C597 1.368 . S
C616 C610 1.368 . S
C616 C615 1.523 . S
C617 C601 1.429 1_554 S
C617 C613 1.429 1_554 S
C617 C618 1.523 . S
C618 C602 1.368 . S
C618 C614 1.368 . S
C618 C617 1.523 . S
H619 C594 0.950 . S
H620 C596 0.950 . S
H621 C597 0.949 . S
H622 C599 0.950 . S
H623 C601 0.950 1_554 S
C624 C625 1.349 1_554 S
C624 C626 1.327 . S
C624 H649 0.950 . S
C625 C624 1.349 1_556 S
C625 C641 1.349 . S
C626 C624 1.327 . S
C626 C645 1.418 1_554 S
C626 H650 0.950 . S
C627 C644 1.574 1_545 S
C627 C646 1.368 1_556 S
C627 H651 0.949 . S
H628 C632 0.949 . S
C629 C630 1.349 1_556 S
C629 C631 1.327 . S
C629 H652 0.950 . S
C630 C629 1.349 1_554 S
C630 C642 1.349 . S
C631 C629 1.327 . S
C631 C647 1.429 1_556 S
C631 H653 0.950 . S
C632 H628 0.949 . S
C632 C640 1.574 1_565 S
C632 C648 1.368 . S
H633 C641 0.950 . S
H634 C639 0.950 . S
H635 C640 0.949 . S
H636 C642 0.950 . S
H637 C643 0.950 . S
H638 C644 0.949 . S
C639 H634 0.950 . S
C639 C641 1.327 . S
C639 C645 1.440 . S
C640 C632 1.574 1_545 S
C640 H635 0.949 . S
C640 C646 1.368 . S
C641 C625 1.349 . S
C641 H633 0.950 . S
C641 C639 1.327 . S
C642 C630 1.349 . S
C642 H636 0.950 . S
C642 C643 1.327 . S
C643 H637 0.950 . S
C643 C642 1.327 . S
C643 C647 1.429 . S
C644 C627 1.574 1_565 S
C644 H638 0.949 . S
C644 C648 1.368 1_556 S
C645 C626 1.418 1_556 S
C645 C639 1.440 . S
C645 C646 1.522 1_556 S
C646 C627 1.368 1_554 S
C646 C640 1.368 . S
C646 C645 1.522 1_554 S
C647 C631 1.429 1_554 S
C647 C643 1.429 . S
C647 C648 1.523 . S
C648 C632 1.368 . S
C648 C644 1.368 1_554 S
C648 C647 1.523 . S
H649 C624 0.950 . S
H650 C626 0.950 . S
H651 C627 0.949 . S
H652 C629 0.950 . S
H653 C631 0.950 . S
C654 C655 1.349 . S
C654 C656 1.327 . S
C654 H679 0.950 . S
C655 C654 1.349 . S
C655 C671 1.349 . S
C656 C654 1.327 . S
C656 C675 1.429 . S
C656 H680 0.950 . S
C657 C674 1.574 . S
C657 C676 1.368 . S
C657 H681 0.949 . S
H658 C662 0.949 . S
C659 C660 1.349 . S
C659 C661 1.327 . S
C659 H682 0.950 . S
C660 C659 1.349 . S
C660 C672 1.349 . S
C661 C659 1.327 . S
C661 C677 1.429 . S
C661 H683 0.950 . S
C662 H658 0.949 . S
C662 C670 1.574 . S
C662 C678 1.368 . S
H663 C671 0.950 . S
H664 C669 0.950 . S
H665 C670 0.949 . S
H666 C672 0.950 . S
H667 C673 0.950 . S
H668 C674 0.949 . S
C669 H664 0.950 . S
C669 C671 1.327 . S
C669 C675 1.429 . S
C670 C662 1.574 . S
C670 H665 0.949 . S
C670 C676 1.368 . S
C671 C655 1.349 . S
C671 H663 0.950 . S
C671 C669 1.327 . S
C672 C660 1.349 . S
C672 H666 0.950 . S
C672 C673 1.327 . S
C673 H667 0.950 . S
C673 C672 1.327 . S
C673 C677 1.429 . S
C674 C657 1.574 . S
C674 H668 0.949 . S
C674 C678 1.368 . S
C675 C656 1.429 . S
C675 C669 1.429 . S
C675 C676 1.523 . S
C676 C657 1.368 . S
C676 C670 1.368 . S
C676 C675 1.523 . S
C677 C661 1.429 . S
C677 C673 1.429 . S
C677 C678 1.523 . S
C678 C662 1.368 . S
C678 C674 1.368 . S
C678 C677 1.523 . S
H679 C654 0.950 . S
H680 C656 0.950 . S
H681 C657 0.949 . S
H682 C659 0.950 . S
H683 C661 0.950 . S
C684 C685 1.349 . S
C684 C686 1.327 . S
C684 H709 0.950 . S
C685 C684 1.349 . S
C685 C701 1.349 . S
C686 C684 1.327 . S
C686 C705 1.429 . S
C686 H710 0.950 . S
C687 C704 1.574 1_455 S
C687 C706 1.368 . S
C687 H711 0.949 . S
H688 C692 0.949 . S
C689 C690 1.349 . S
C689 C691 1.327 . S
C689 H712 0.950 . S
C690 C689 1.349 . S
C690 C702 1.349 . S
C691 C689 1.327 . S
C691 C707 1.429 . S
C691 H713 0.950 . S
C692 H688 0.949 . S
C692 C700 1.574 1_655 S
C692 C708 1.368 . S
H693 C701 0.950 . S
H694 C699 0.950 . S
H695 C700 0.949 . S
H696 C702 0.950 . S
H697 C703 0.950 . S
H698 C704 0.949 . S
C699 H694 0.950 . S
C699 C701 1.327 . S
C699 C705 1.429 . S
C700 C692 1.574 1_455 S
C700 H695 0.949 . S
C700 C706 1.368 . S
C701 C685 1.349 . S
C701 H693 0.950 . S
C701 C699 1.327 . S
C702 C690 1.349 . S
C702 H696 0.950 . S
C702 C703 1.327 . S
C703 H697 0.950 . S
C703 C702 1.327 . S
C703 C707 1.429 . S
C704 C687 1.574 1_655 S
C704 H698 0.949 . S
C704 C708 1.368 . S
C705 C686 1.429 . S
C705 C699 1.429 . S
C705 C706 1.523 . S
C706 C687 1.368 . S
C706 C700 1.368 . S
C706 C705 1.523 . S
C707 C691 1.429 . S
C707 C703 1.429 . S
C707 C708 1.523 . S
C708 C692 1.368 . S
C708 C704 1.368 . S
C708 C707 1.523 . S
H709 C684 0.950 . S
H710 C686 0.950 . S
H711 C687 0.949 . S
H712 C689 0.950 . S
H713 C691 0.950 . S
C714 C715 1.349 . S
C714 C716 1.327 . S
C714 H739 0.950 . S
C715 C714 1.349 . S
C715 C731 1.349 . S
C716 C714 1.327 . S
C716 C735 1.429 . S
C716 H740 0.950 . S
C717 C734 1.574 1_565 S
C717 C736 1.368 . S
C717 H741 0.949 . S
H718 C722 0.949 . S
C719 C720 1.349 . S
C719 C721 1.327 . S
C719 H742 0.950 . S
C720 C719 1.349 . S
C720 C732 1.349 . S
C721 C719 1.327 . S
C721 C737 1.429 . S
C721 H743 0.950 . S
C722 H718 0.949 . S
C722 C730 1.574 1_545 S
C722 C738 1.368 . S
H723 C731 0.950 . S
H724 C729 0.950 . S
H725 C730 0.949 . S
H726 C732 0.950 . S
H727 C733 0.950 . S
H728 C734 0.949 . S
C729 H724 0.950 . S
C729 C731 1.327 . S
C729 C735 1.429 . S
C730 C722 1.574 1_565 S
C730 H725 0.949 . S
C730 C736 1.368 . S
C731 C715 1.349 . S
C731 H723 0.950 . S
C731 C729 1.327 . S
C732 C720 1.349 . S
C732 H726 0.950 . S
C732 C733 1.327 . S
C733 H727 0.950 . S
C733 C732 1.327 . S
C733 C737 1.429 . S
C734 C717 1.574 1_545 S
C734 H728 0.949 . S
C734 C738 1.368 . S
C735 C716 1.429 . S
C735 C729 1.429 . S
C735 C736 1.523 . S
C736 C717 1.368 . S
C736 C730 1.368 . S
C736 C735 1.523 . S
C737 C721 1.429 . S
C737 C733 1.429 . S
C737 C738 1.523 . S
C738 C722 1.368 . S
C738 C734 1.368 . S
C738 C737 1.523 . S
H739 C714 0.950 . S
H740 C716 0.950 . S
H741 C717 0.949 . S
H742 C719 0.950 . S
H743 C721 0.950 . S
C744 C745 1.349 . S
C744 C746 1.327 . S
C744 H769 0.950 . S
C745 C744 1.349 . S
C745 C761 1.349 . S
C746 C744 1.327 . S
C746 C765 1.429 . S
C746 H770 0.950 . S
C747 C764 1.574 . S
C747 C766 1.368 . S
C747 H771 0.949 . S
H748 C752 0.949 . S
C749 C750 1.349 . S
C749 C751 1.327 . S
C749 H772 0.950 . S
C750 C749 1.349 . S
C750 C762 1.349 . S
C751 C749 1.327 . S
C751 C767 1.429 . S
C751 H773 0.950 . S
C752 H748 0.949 . S
C752 C760 1.574 . S
C752 C768 1.368 . S
H753 C761 0.950 . S
H754 C759 0.950 . S
H755 C760 0.949 . S
H756 C762 0.950 . S
H757 C763 0.950 . S
H758 C764 0.949 . S
C759 H754 0.950 . S
C759 C761 1.327 . S
C759 C765 1.429 . S
C760 C752 1.574 . S
C760 H755 0.949 . S
C760 C766 1.368 . S
C761 C745 1.349 . S
C761 H753 0.950 . S
C761 C759 1.327 . S
C762 C750 1.349 . S
C762 H756 0.950 . S
C762 C763 1.327 . S
C763 H757 0.950 . S
C763 C762 1.327 . S
C763 C767 1.429 . S
C764 C747 1.574 . S
C764 H758 0.949 . S
C764 C768 1.368 . S
C765 C746 1.429 . S
C765 C759 1.429 . S
C765 C766 1.523 . S
C766 C747 1.368 . S
C766 C760 1.368 . S
C766 C765 1.523 . S
C767 C751 1.429 . S
C767 C763 1.429 . S
C767 C768 1.523 . S
C768 C752 1.368 . S
C768 C764 1.368 . S
C768 C767 1.523 . S
H769 C744 0.950 . S
H770 C746 0.950 . S
H771 C747 0.949 . S
H772 C749 0.950 . S
H773 C751 0.950 . S
C774 C775 1.349 . S
C774 C776 1.327 . S
C774 H799 0.950 . S
C775 C774 1.349 . S
C775 C791 1.349 . S
C776 C774 1.327 . S
C776 C795 1.429 . S
C776 H800 0.950 . S
C777 C794 1.574 1_455 S
C777 C796 1.368 . S
C777 H801 0.949 . S
H778 C782 0.949 . S
C779 C780 1.349 . S
C779 C781 1.327 . S
C779 H802 0.950 . S
C780 C779 1.349 . S
C780 C792 1.349 . S
C781 C779 1.327 . S
C781 C797 1.429 . S
C781 H803 0.950 . S
C782 H778 0.949 . S
C782 C790 1.574 1_655 S
C782 C798 1.368 . S
H783 C791 0.950 . S
H784 C789 0.950 . S
H785 C790 0.949 . S
H786 C792 0.950 . S
H787 C793 0.950 . S
H788 C794 0.949 . S
C789 H784 0.950 . S
C789 C791 1.327 . S
C789 C795 1.429 . S
C790 C782 1.574 1_455 S
C790 H785 0.949 . S
C790 C796 1.368 . S
C791 C775 1.349 . S
C791 H783 0.950 . S
C791 C789 1.327 . S
C792 C780 1.349 . S
C792 H786 0.950 . S
C792 C793 1.327 . S
C793 H787 0.950 . S
C793 C792 1.327 . S
C793 C797 1.429 . S
C794 C777 1.574 1_655 S
C794 H788 0.949 . S
C794 C798 1.368 . S
C795 C776 1.429 . S
C795 C789 1.429 . S
C795 C796 1.523 . S
C796 C777 1.368 . S
C796 C790 1.368 . S
C796 C795 1.523 . S
C797 C781 1.429 . S
C797 C793 1.429 . S
C797 C798 1.523 . S
C798 C782 1.368 . S
C798 C794 1.368 . S
C798 C797 1.523 . S
H799 C774 0.950 . S
H800 C776 0.950 . S
H801 C777 0.949 . S
H802 C779 0.950 . S
H803 C781 0.950 . S
C804 C805 1.349 . S
C804 C806 1.327 . S
C804 H829 0.950 . S
C805 C804 1.349 . S
C805 C821 1.349 . S
C806 C804 1.327 . S
C806 C825 1.429 . S
C806 H830 0.950 . S
C807 C824 1.574 . S
C807 C826 1.368 . S
C807 H831 0.949 . S
H808 C812 0.949 . S
C809 C810 1.349 . S
C809 C811 1.327 . S
C809 H832 0.950 . S
C810 C809 1.349 . S
C810 C822 1.349 . S
C811 C809 1.327 . S
C811 C827 1.429 . S
C811 H833 0.950 . S
C812 H808 0.949 . S
C812 C820 1.574 . S
C812 C828 1.368 . S
H813 C821 0.950 . S
H814 C819 0.950 . S
H815 C820 0.949 . S
H816 C822 0.950 . S
H817 C823 0.950 . S
H818 C824 0.949 . S
C819 H814 0.950 . S
C819 C821 1.327 . S
C819 C825 1.429 . S
C820 C812 1.574 . S
C820 H815 0.949 . S
C820 C826 1.368 . S
C821 C805 1.349 . S
C821 H813 0.950 . S
C821 C819 1.327 . S
C822 C810 1.349 . S
C822 H816 0.950 . S
C822 C823 1.327 . S
C823 H817 0.950 . S
C823 C822 1.327 . S
C823 C827 1.429 . S
C824 C807 1.574 . S
C824 H818 0.949 . S
C824 C828 1.368 . S
C825 C806 1.429 . S
C825 C819 1.429 . S
C825 C826 1.523 . S
C826 C807 1.368 . S
C826 C820 1.368 . S
C826 C825 1.523 . S
C827 C811 1.429 . S
C827 C823 1.429 . S
C827 C828 1.523 . S
C828 C812 1.368 . S
C828 C824 1.368 . S
C828 C827 1.523 . S
H829 C804 0.950 . S
H830 C806 0.950 . S
H831 C807 0.949 . S
H832 C809 0.950 . S
H833 C811 0.950 . S
C834 C835 1.349 . S
C834 C836 1.327 1_554 S
C834 H859 0.950 1_554 S
C835 C834 1.349 . S
C835 C851 1.349 . S
C836 C834 1.327 1_556 S
C836 C855 1.429 . S
C836 H860 0.950 . S
C837 C854 1.574 . S
C837 C856 1.368 . S
C837 H861 0.949 1_556 S
H838 C842 0.949 . S
C839 C840 1.349 . S
C839 C841 1.327 . S
C839 H862 0.950 . S
C840 C839 1.349 . S
C840 C852 1.349 . S
C841 C839 1.327 . S
C841 C857 1.429 . S
C841 H863 0.950 . S
C842 H838 0.949 . S
C842 C850 1.574 . S
C842 C858 1.368 . S
H843 C851 0.950 . S
H844 C849 0.950 . S
H845 C850 0.949 . S
H846 C852 0.950 . S
H847 C853 0.950 . S
H848 C854 0.949 . S
C849 H844 0.950 . S
C849 C851 1.327 . S
C849 C855 1.429 1_554 S
C850 C842 1.574 . S
C850 H845 0.949 . S
C850 C856 1.368 . S
C851 C835 1.349 . S
C851 H843 0.950 . S
C851 C849 1.327 . S
C852 C840 1.349 . S
C852 H846 0.950 . S
C852 C853 1.327 . S
C853 H847 0.950 . S
C853 C852 1.327 . S
C853 C857 1.429 . S
C854 C837 1.574 . S
C854 H848 0.949 . S
C854 C858 1.368 . S
C855 C836 1.429 . S
C855 C849 1.429 1_556 S
C855 C856 1.523 . S
C856 C837 1.368 . S
C856 C850 1.368 . S
C856 C855 1.523 . S
C857 C841 1.429 . S
C857 C853 1.429 . S
C857 C858 1.523 . S
C858 C842 1.368 . S
C858 C854 1.368 . S
C858 C857 1.523 . S
H859 C834 0.950 1_556 S
H860 C836 0.950 . S
H861 C837 0.949 1_554 S
H862 C839 0.950 . S
H863 C841 0.950 . S
C864 C865 1.349 . S
C864 C866 1.327 . S
C864 H889 0.950 . S
C865 C864 1.349 . S
C865 C881 1.349 1_556 S
C866 C864 1.327 . S
C866 C885 1.429 1_556 S
C866 H890 0.950 . S
C867 C884 1.574 . S
C867 C886 1.368 . S
C867 H891 0.949 . S
H868 C872 0.949 . S
C869 C870 1.349 . S
C869 C871 1.327 . S
C869 H892 0.950 . S
C870 C869 1.349 . S
C870 C882 1.349 . S
C871 C869 1.327 . S
C871 C887 1.429 . S
C871 H893 0.950 . S
C872 H868 0.949 . S
C872 C880 1.574 . S
C872 C888 1.368 . S
H873 C881 0.950 . S
H874 C879 0.950 . S
H875 C880 0.949 1_556 S
H876 C882 0.950 . S
H877 C883 0.950 . S
H878 C884 0.949 . S
C879 H874 0.950 . S
C879 C881 1.327 . S
C879 C885 1.429 . S
C880 C872 1.574 . S
C880 H875 0.949 1_554 S
C880 C886 1.368 . S
C881 C865 1.349 1_554 S
C881 H873 0.950 . S
C881 C879 1.327 . S
C882 C870 1.349 . S
C882 H876 0.950 . S
C882 C883 1.327 . S
C883 H877 0.950 . S
C883 C882 1.327 . S
C883 C887 1.429 . S
C884 C867 1.574 . S
C884 H878 0.949 . S
C884 C888 1.368 . S
C885 C866 1.429 1_554 S
C885 C879 1.429 . S
C885 C886 1.523 . S
C886 C867 1.368 . S
C886 C880 1.368 . S
C886 C885 1.523 . S
C887 C871 1.429 . S
C887 C883 1.429 . S
C887 C888 1.523 . S
C888 C872 1.368 . S
C888 C884 1.368 . S
C888 C887 1.523 . S
H889 C864 0.950 . S
H890 C866 0.950 . S
H891 C867 0.949 . S
H892 C869 0.950 . S
H893 C871 0.950 . S
C894 C895 1.349 . S
C894 C896 1.327 . S
C894 H919 0.950 . S
C895 C894 1.349 . S
C895 C911 1.349 . S
C896 C894 1.327 . S
C896 C915 1.429 . S
C896 H920 0.950 . S
C897 C914 1.574 . S
C897 C916 1.368 . S
C897 H921 0.949 . S
H898 C902 0.949 . S
C899 C900 1.349 . S
C899 C901 1.327 . S
C899 H922 0.950 . S
C900 C899 1.349 . S
C900 C912 1.349 . S
C901 C899 1.327 . S
C901 C917 1.429 . S
C901 H923 0.950 . S
C902 H898 0.949 . S
C902 C910 1.574 . S
C902 C918 1.368 . S
H903 C911 0.950 . S
H904 C909 0.950 . S
H905 C910 0.949 . S
H906 C912 0.950 . S
H907 C913 0.950 . S
H908 C914 0.949 . S
C909 H904 0.950 . S
C909 C911 1.327 . S
C909 C915 1.429 . S
C910 C902 1.574 . S
C910 H905 0.949 . S
C910 C916 1.368 . S
C911 C895 1.349 . S
C911 H903 0.950 . S
C911 C909 1.327 . S
C912 C900 1.349 . S
C912 H906 0.950 . S
C912 C913 1.327 . S
C913 H907 0.950 . S
C913 C912 1.327 . S
C913 C917 1.429 . S
C914 C897 1.574 . S
C914 H908 0.949 . S
C914 C918 1.368 . S
C915 C896 1.429 . S
C915 C909 1.429 . S
C915 C916 1.523 . S
C916 C897 1.368 . S
C916 C910 1.368 . S
C916 C915 1.523 . S
C917 C901 1.429 . S
C917 C913 1.429 . S
C917 C918 1.523 . S
C918 C902 1.368 . S
C918 C914 1.368 . S
C918 C917 1.523 . S
H919 C894 0.950 . S
H920 C896 0.950 . S
H921 C897 0.949 . S
H922 C899 0.950 . S
H923 C901 0.950 . S
C924 C925 1.349 . S
C924 C926 1.327 . S
C924 H949 0.950 . S
C925 C924 1.349 . S
C925 C941 1.349 . S
C926 C924 1.327 . S
C926 C945 1.429 . S
C926 H950 0.950 . S
C927 C944 1.574 . S
C927 C946 1.368 . S
C927 H951 0.949 . S
H928 C932 0.949 . S
C929 C930 1.349 . S
C929 C931 1.327 . S
C929 H952 0.950 . S
C930 C929 1.349 . S
C930 C942 1.349 . S
C931 C929 1.327 . S
C931 C947 1.429 . S
C931 H953 0.950 . S
C932 H928 0.949 . S
C932 C940 1.574 . S
C932 C948 1.368 . S
H933 C941 0.950 . S
H934 C939 0.950 . S
H935 C940 0.949 . S
H936 C942 0.950 . S
H937 C943 0.950 . S
H938 C944 0.949 . S
C939 H934 0.950 . S
C939 C941 1.327 . S
C939 C945 1.429 . S
C940 C932 1.574 . S
C940 H935 0.949 . S
C940 C946 1.368 . S
C941 C925 1.349 . S
C941 H933 0.950 . S
C941 C939 1.327 . S
C942 C930 1.349 . S
C942 H936 0.950 . S
C942 C943 1.327 . S
C943 H937 0.950 . S
C943 C942 1.327 . S
C943 C947 1.429 . S
C944 C927 1.574 . S
C944 H938 0.949 . S
C944 C948 1.368 . S
C945 C926 1.429 . S
C945 C939 1.429 . S
C945 C946 1.523 . S
C946 C927 1.368 . S
C946 C940 1.368 . S
C946 C945 1.523 . S
C947 C931 1.429 . S
C947 C943 1.429 . S
C947 C948 1.523 . S
C948 C932 1.368 . S
C948 C944 1.368 . S
C948 C947 1.523 . S
H949 C924 0.950 . S
H950 C926 0.950 . S
H951 C927 0.949 . S
H952 C929 0.950 . S
H953 C931 0.950 . S
C954 C955 1.349 . S
C954 C956 1.327 . S
C954 H979 0.950 . S
C955 C954 1.349 . S
C955 C971 1.349 . S
C956 C954 1.327 . S
C956 C975 1.429 . S
C956 H980 0.950 . S
C957 C974 1.574 . S
C957 C976 1.368 . S
C957 H981 0.949 . S
H958 C962 0.949 . S
C959 C960 1.349 . S
C959 C961 1.327 . S
C959 H982 0.950 . S
C960 C959 1.349 . S
C960 C972 1.349 . S
C961 C959 1.327 . S
C961 C977 1.429 . S
C961 H983 0.950 . S
C962 H958 0.949 . S
C962 C970 1.574 . S
C962 C978 1.368 . S
H963 C971 0.950 . S
H964 C969 0.950 . S
H965 C970 0.949 . S
H966 C972 0.950 . S
H967 C973 0.950 . S
H968 C974 0.949 . S
C969 H964 0.950 . S
C969 C971 1.327 . S
C969 C975 1.429 . S
C970 C962 1.574 . S
C970 H965 0.949 . S
C970 C976 1.368 . S
C971 C955 1.349 . S
C971 H963 0.950 . S
C971 C969 1.327 . S
C972 C960 1.349 . S
C972 H966 0.950 . S
C972 C973 1.327 . S
C973 H967 0.950 . S
C973 C972 1.327 . S
C973 C977 1.429 . S
C974 C957 1.574 . S
C974 H968 0.949 . S
C974 C978 1.368 . S
C975 C956 1.429 . S
C975 C969 1.429 . S
C975 C976 1.523 . S
C976 C957 1.368 . S
C976 C970 1.368 . S
C976 C975 1.523 . S
C977 C961 1.429 . S
C977 C973 1.429 . S
C977 C978 1.523 . S
C978 C962 1.368 . S
C978 C974 1.368 . S
C978 C977 1.523 . S
H979 C954 0.950 . S
H980 C956 0.950 . S
H981 C957 0.949 . S
H982 C959 0.950 . S
H983 C961 0.950 . S
C984 C985 1.349 . S
C984 C986 1.327 . S
C984 H1009 0.950 . S
C985 C984 1.349 . S
C985 C1001 1.349 . S
C986 C984 1.327 . S
C986 C1005 1.429 . S
C986 H1010 0.950 . S
C987 C1004 1.574 . S
C987 C1006 1.368 . S
C987 H1011 0.949 . S
H988 C992 0.949 . S
C989 C990 1.349 . S
C989 C991 1.327 . S
C989 H1012 0.950 . S
C990 C989 1.349 . S
C990 C1002 1.349 . S
C991 C989 1.327 . S
C991 C1007 1.429 . S
C991 H1013 0.950 . S
C992 H988 0.949 . S
C992 C1000 1.574 . S
C992 C1008 1.368 . S
H993 C1001 0.950 . S
H994 C999 0.950 . S
H995 C1000 0.949 . S
H996 C1002 0.950 . S
H997 C1003 0.950 . S
H998 C1004 0.949 . S
C999 H994 0.950 . S
C999 C1001 1.327 . S
C999 C1005 1.429 . S
C1000 C992 1.574 . S
C1000 H995 0.949 . S
C1000 C1006 1.368 . S
C1001 C985 1.349 . S
C1001 H993 0.950 . S
C1001 C999 1.327 . S
C1002 C990 1.349 . S
C1002 H996 0.950 . S
C1002 C1003 1.327 . S
C1003 H997 0.950 . S
C1003 C1002 1.327 . S
C1003 C1007 1.429 . S
C1004 C987 1.574 . S
C1004 H998 0.949 . S
C1004 C1008 1.368 . S
C1005 C986 1.429 . S
C1005 C999 1.429 . S
C1005 C1006 1.523 . S
C1006 C987 1.368 . S
C1006 C1000 1.368 . S
C1006 C1005 1.523 . S
C1007 C991 1.429 . S
C1007 C1003 1.429 . S
C1007 C1008 1.523 . S
C1008 C992 1.368 . S
C1008 C1004 1.368 . S
C1008 C1007 1.523 . S
H1009 C984 0.950 . S
H1010 C986 0.950 . S
H1011 C987 0.949 . S
H1012 C989 0.950 . S
H1013 C991 0.950 . S
C1014 C1015 1.349 . S
C1014 C1016 1.327 . S
C1014 H1039 0.950 . S
C1015 C1014 1.349 . S
C1015 C1031 1.349 . S
C1016 C1014 1.327 . S
C1016 C1035 1.429 . S
C1016 H1040 0.950 . S
C1017 C1034 1.574 . S
C1017 C1036 1.368 . S
C1017 H1041 0.949 . S
H1018 C1022 0.949 . S
C1019 C1020 1.349 . S
C1019 C1021 1.327 . S
C1019 H1042 0.950 . S
C1020 C1019 1.349 . S
C1020 C1032 1.349 . S
C1021 C1019 1.327 . S
C1021 C1037 1.429 . S
C1021 H1043 0.950 . S
C1022 H1018 0.949 . S
C1022 C1030 1.574 . S
C1022 C1038 1.368 . S
H1023 C1031 0.950 . S
H1024 C1029 0.950 . S
H1025 C1030 0.949 . S
H1026 C1032 0.950 . S
H1027 C1033 0.950 . S
H1028 C1034 0.949 . S
C1029 H1024 0.950 . S
C1029 C1031 1.327 . S
C1029 C1035 1.429 . S
C1030 C1022 1.574 . S
C1030 H1025 0.949 . S
C1030 C1036 1.368 . S
C1031 C1015 1.349 . S
C1031 H1023 0.950 . S
C1031 C1029 1.327 . S
C1032 C1020 1.349 . S
C1032 H1026 0.950 . S
C1032 C1033 1.327 . S
C1033 H1027 0.950 . S
C1033 C1032 1.327 . S
C1033 C1037 1.429 . S
C1034 C1017 1.574 . S
C1034 H1028 0.949 . S
C1034 C1038 1.368 . S
C1035 C1016 1.429 . S
C1035 C1029 1.429 . S
C1035 C1036 1.523 . S
C1036 C1017 1.368 . S
C1036 C1030 1.368 . S
C1036 C1035 1.523 . S
C1037 C1021 1.429 . S
C1037 C1033 1.429 . S
C1037 C1038 1.523 . S
C1038 C1022 1.368 . S
C1038 C1034 1.368 . S
C1038 C1037 1.523 . S
H1039 C1014 0.950 . S
H1040 C1016 0.950 . S
H1041 C1017 0.949 . S
H1042 C1019 0.950 . S
H1043 C1021 0.950 . S
C1044 C1045 1.349 . S
C1044 C1046 1.327 . S
C1044 H1069 0.950 . S
C1045 C1044 1.349 . S
C1045 C1061 1.349 . S
C1046 C1044 1.327 . S
C1046 C1065 1.429 . S
C1046 H1070 0.950 . S
C1047 C1064 1.574 . S
C1047 C1066 1.368 . S
C1047 H1071 0.949 . S
H1048 C1052 0.949 . S
C1049 C1050 1.349 . S
C1049 C1051 1.327 . S
C1049 H1072 0.950 . S
C1050 C1049 1.349 . S
C1050 C1062 1.349 . S
C1051 C1049 1.327 . S
C1051 C1067 1.429 . S
C1051 H1073 0.950 . S
C1052 H1048 0.949 . S
C1052 C1060 1.574 . S
C1052 C1068 1.368 . S
H1053 C1061 0.950 . S
H1054 C1059 0.950 . S
H1055 C1060 0.949 . S
H1056 C1062 0.950 . S
H1057 C1063 0.950 . S
H1058 C1064 0.949 . S
C1059 H1054 0.950 . S
C1059 C1061 1.327 . S
C1059 C1065 1.429 . S
C1060 C1052 1.574 . S
C1060 H1055 0.949 . S
C1060 C1066 1.368 . S
C1061 C1045 1.349 . S
C1061 H1053 0.950 . S
C1061 C1059 1.327 . S
C1062 C1050 1.349 . S
C1062 H1056 0.950 . S
C1062 C1063 1.327 . S
C1063 H1057 0.950 . S
C1063 C1062 1.327 . S
C1063 C1067 1.429 . S
C1064 C1047 1.574 . S
C1064 H1058 0.949 . S
C1064 C1068 1.368 . S
C1065 C1046 1.429 . S
C1065 C1059 1.429 . S
C1065 C1066 1.523 . S
C1066 C1047 1.368 . S
C1066 C1060 1.368 . S
C1066 C1065 1.523 . S
C1067 C1051 1.429 . S
C1067 C1063 1.429 . S
C1067 C1068 1.523 . S
C1068 C1052 1.368 . S
C1068 C1064 1.368 . S
C1068 C1067 1.523 . S
H1069 C1044 0.950 . S
H1070 C1046 0.950 . S
H1071 C1047 0.949 . S
H1072 C1049 0.950 . S
H1073 C1051 0.950 . S
C1074 C1075 1.349 . S
C1074 C1076 1.327 . S
C1074 H1099 0.950 . S
C1075 C1074 1.349 . S
C1075 C1091 1.349 . S
C1076 C1074 1.327 . S
C1076 C1095 1.429 . S
C1076 H1100 0.950 . S
C1077 C1094 1.574 . S
C1077 C1096 1.368 . S
C1077 H1101 0.949 . S
H1078 C1082 0.949 . S
C1079 C1080 1.349 . S
C1079 C1081 1.327 . S
C1079 H1102 0.950 . S
C1080 C1079 1.349 . S
C1080 C1092 1.349 . S
C1081 C1079 1.327 . S
C1081 C1097 1.429 . S
C1081 H1103 0.950 . S
C1082 H1078 0.949 . S
C1082 C1090 1.574 . S
C1082 C1098 1.368 . S
H1083 C1091 0.950 . S
H1084 C1089 0.950 . S
H1085 C1090 0.949 . S
H1086 C1092 0.950 . S
H1087 C1093 0.950 . S
H1088 C1094 0.949 . S
C1089 H1084 0.950 . S
C1089 C1091 1.327 . S
C1089 C1095 1.429 . S
C1090 C1082 1.574 . S
C1090 H1085 0.949 . S
C1090 C1096 1.368 . S
C1091 C1075 1.349 . S
C1091 H1083 0.950 . S
C1091 C1089 1.327 . S
C1092 C1080 1.349 . S
C1092 H1086 0.950 . S
C1092 C1093 1.327 . S
C1093 H1087 0.950 . S
C1093 C1092 1.327 . S
C1093 C1097 1.429 . S
C1094 C1077 1.574 . S
C1094 H1088 0.949 . S
C1094 C1098 1.368 . S
C1095 C1076 1.429 . S
C1095 C1089 1.429 . S
C1095 C1096 1.523 . S
C1096 C1077 1.368 . S
C1096 C1090 1.368 . S
C1096 C1095 1.523 . S
C1097 C1081 1.429 . S
C1097 C1093 1.429 . S
C1097 C1098 1.523 . S
C1098 C1082 1.368 . S
C1098 C1094 1.368 . S
C1098 C1097 1.523 . S
H1099 C1074 0.950 . S
H1100 C1076 0.950 . S
H1101 C1077 0.949 . S
H1102 C1079 0.950 . S
H1103 C1081 0.950 . S
C1104 C1105 1.349 . S
C1104 C1106 1.327 . S
C1104 H1129 0.950 . S
C1105 C1104 1.349 . S
C1105 C1121 1.349 . S
C1106 C1104 1.327 . S
C1106 C1125 1.429 . S
C1106 H1130 0.950 . S
C1107 C1124 1.574 . S
C1107 C1126 1.368 . S
C1107 H1131 0.949 . S
H1108 C1112 0.949 . S
C1109 C1110 1.349 . S
C1109 C1111 1.327 . S
C1109 H1132 0.950 . S
C1110 C1109 1.349 . S
C1110 C1122 1.349 . S
C1111 C1109 1.327 . S
C1111 C1127 1.429 . S
C1111 H1133 0.950 . S
C1112 H1108 0.949 . S
C1112 C1120 1.574 . S
C1112 C1128 1.368 . S
H1113 C1121 0.950 . S
H1114 C1119 0.950 . S
H1115 C1120 0.949 . S
H1116 C1122 0.950 . S
H1117 C1123 0.950 . S
H1118 C1124 0.949 . S
C1119 H1114 0.950 . S
C1119 C1121 1.327 . S
C1119 C1125 1.429 . S
C1120 C1112 1.574 . S
C1120 H1115 0.949 . S
C1120 C1126 1.368 . S
C1121 C1105 1.349 . S
C1121 H1113 0.950 . S
C1121 C1119 1.327 . S
C1122 C1110 1.349 . S
C1122 H1116 0.950 . S
C1122 C1123 1.327 . S
C1123 H1117 0.950 . S
C1123 C1122 1.327 . S
C1123 C1127 1.429 . S
C1124 C1107 1.574 . S
C1124 H1118 0.949 . S
C1124 C1128 1.368 . S
C1125 C1106 1.429 . S
C1125 C1119 1.429 . S
C1125 C1126 1.523 . S
C1126 C1107 1.368 . S
C1126 C1120 1.368 . S
C1126 C1125 1.523 . S
C1127 C1111 1.429 . S
C1127 C1123 1.429 . S
C1127 C1128 1.523 . S
C1128 C1112 1.368 . S
C1128 C1124 1.368 . S
C1128 C1127 1.523 . S
H1129 C1104 0.950 . S
H1130 C1106 0.950 . S
H1131 C1107 0.949 . S
H1132 C1109 0.950 . S
H1133 C1111 0.950 . S
C1134 C1135 1.349 . S
C1134 C1136 1.327 . S
C1134 H1159 0.950 . S
C1135 C1134 1.349 . S
C1135 C1151 1.349 . S
C1136 C1134 1.327 . S
C1136 C1155 1.429 . S
C1136 H1160 0.950 . S
C1137 C1154 1.574 . S
C1137 C1156 1.368 . S
C1137 H1161 0.949 . S
H1138 C1142 0.949 1_554 S
C1139 C1140 1.349 . S
C1139 C1141 1.327 . S
C1139 H1162 0.950 . S
C1140 C1139 1.349 . S
C1140 C1152 1.349 . S
C1141 C1139 1.327 . S
C1141 C1157 1.429 . S
C1141 H1163 0.950 . S
C1142 H1138 0.949 1_556 S
C1142 C1150 1.574 . S
C1142 C1158 1.368 . S
H1143 C1151 0.950 . S
H1144 C1149 0.950 . S
H1145 C1150 0.949 . S
H1146 C1152 0.950 1_554 S
H1147 C1153 0.950 1_554 S
H1148 C1154 0.949 . S
C1149 H1144 0.950 . S
C1149 C1151 1.327 . S
C1149 C1155 1.429 . S
C1150 C1142 1.574 . S
C1150 H1145 0.949 . S
C1150 C1156 1.368 . S
C1151 C1135 1.349 . S
C1151 H1143 0.950 . S
C1151 C1149 1.327 . S
C1152 C1140 1.349 . S
C1152 H1146 0.950 1_556 S
C1152 C1153 1.327 . S
C1153 H1147 0.950 1_556 S
C1153 C1152 1.327 . S
C1153 C1157 1.429 . S
C1154 C1137 1.574 . S
C1154 H1148 0.949 . S
C1154 C1158 1.368 . S
C1155 C1136 1.429 . S
C1155 C1149 1.429 . S
C1155 C1156 1.523 . S
C1156 C1137 1.368 . S
C1156 C1150 1.368 . S
C1156 C1155 1.523 . S
C1157 C1141 1.429 . S
C1157 C1153 1.429 . S
C1157 C1158 1.523 . S
C1158 C1142 1.368 . S
C1158 C1154 1.368 . S
C1158 C1157 1.523 . S
H1159 C1134 0.950 . S
H1160 C1136 0.950 . S
H1161 C1137 0.949 . S
H1162 C1139 0.950 . S
H1163 C1141 0.950 . S
C1164 C1165 1.349 . S
C1164 C1166 1.327 . S
C1164 H1189 0.950 . S
C1165 C1164 1.349 . S
C1165 C1181 1.349 . S
C1166 C1164 1.327 . S
C1166 C1185 1.429 . S
C1166 H1190 0.950 . S
C1167 C1184 1.574 . S
C1167 C1186 1.368 . S
C1167 H1191 0.949 . S
H1168 C1172 0.949 . S
C1169 C1170 1.349 . S
C1169 C1171 1.327 . S
C1169 H1192 0.950 . S
C1170 C1169 1.349 . S
C1170 C1182 1.349 . S
C1171 C1169 1.327 . S
C1171 C1187 1.429 . S
C1171 H1193 0.950 . S
C1172 H1168 0.949 . S
C1172 C1180 1.574 . S
C1172 C1188 1.368 . S
H1173 C1181 0.950 . S
H1174 C1179 0.950 . S
H1175 C1180 0.949 . S
H1176 C1182 0.950 . S
H1177 C1183 0.950 . S
H1178 C1184 0.949 . S
C1179 H1174 0.950 . S
C1179 C1181 1.327 . S
C1179 C1185 1.429 . S
C1180 C1172 1.574 . S
C1180 H1175 0.949 . S
C1180 C1186 1.368 . S
C1181 C1165 1.349 . S
C1181 H1173 0.950 . S
C1181 C1179 1.327 . S
C1182 C1170 1.349 . S
C1182 H1176 0.950 . S
C1182 C1183 1.327 . S
C1183 H1177 0.950 . S
C1183 C1182 1.327 . S
C1183 C1187 1.429 . S
C1184 C1167 1.574 . S
C1184 H1178 0.949 . S
C1184 C1188 1.368 . S
C1185 C1166 1.429 . S
C1185 C1179 1.429 . S
C1185 C1186 1.523 . S
C1186 C1167 1.368 . S
C1186 C1180 1.368 . S
C1186 C1185 1.523 . S
C1187 C1171 1.429 . S
C1187 C1183 1.429 . S
C1187 C1188 1.523 . S
C1188 C1172 1.368 . S
C1188 C1184 1.368 . S
C1188 C1187 1.523 . S
H1189 C1164 0.950 . S
H1190 C1166 0.950 . S
H1191 C1167 0.949 . S
H1192 C1169 0.950 . S
H1193 C1171 0.950 . S
C1194 C1195 1.349 . S
C1194 C1196 1.327 . S
C1194 H1219 0.950 . S
C1195 C1194 1.349 . S
C1195 C1211 1.349 . S
C1196 C1194 1.327 . S
C1196 C1215 1.429 . S
C1196 H1220 0.950 . S
C1197 C1214 1.574 . S
C1197 C1216 1.368 . S
C1197 H1221 0.949 . S
H1198 C1202 0.949 . S
C1199 C1200 1.349 . S
C1199 C1201 1.327 . S
C1199 H1222 0.950 . S
C1200 C1199 1.349 . S
C1200 C1212 1.349 . S
C1201 C1199 1.327 . S
C1201 C1217 1.429 . S
C1201 H1223 0.950 . S
C1202 H1198 0.949 . S
C1202 C1210 1.574 . S
C1202 C1218 1.368 . S
H1203 C1211 0.950 . S
H1204 C1209 0.950 . S
H1205 C1210 0.949 . S
H1206 C1212 0.950 . S
H1207 C1213 0.950 . S
H1208 C1214 0.949 . S
C1209 H1204 0.950 . S
C1209 C1211 1.327 . S
C1209 C1215 1.429 . S
C1210 C1202 1.574 . S
C1210 H1205 0.949 . S
C1210 C1216 1.368 . S
C1211 C1195 1.349 . S
C1211 H1203 0.950 . S
C1211 C1209 1.327 . S
C1212 C1200 1.349 . S
C1212 H1206 0.950 . S
C1212 C1213 1.327 . S
C1213 H1207 0.950 . S
C1213 C1212 1.327 . S
C1213 C1217 1.429 . S
C1214 C1197 1.574 . S
C1214 H1208 0.949 . S
C1214 C1218 1.368 . S
C1215 C1196 1.429 . S
C1215 C1209 1.429 . S
C1215 C1216 1.523 . S
C1216 C1197 1.368 . S
C1216 C1210 1.368 . S
C1216 C1215 1.523 . S
C1217 C1201 1.429 . S
C1217 C1213 1.429 . S
C1217 C1218 1.523 . S
C1218 C1202 1.368 . S
C1218 C1214 1.368 . S
C1218 C1217 1.523 . S
H1219 C1194 0.950 . S
H1220 C1196 0.950 . S
H1221 C1197 0.949 . S
H1222 C1199 0.950 . S
H1223 C1201 0.950 . S
C1224 C1225 1.349 . S
C1224 C1226 1.327 . S
C1224 H1249 0.950 . S
C1225 C1224 1.349 . S
C1225 C1241 1.349 . S
C1226 C1224 1.327 . S
C1226 C1245 1.429 . S
C1226 H1250 0.950 . S
C1227 C1244 1.574 . S
C1227 C1246 1.368 . S
C1227 H1251 0.949 . S
H1228 C1232 0.949 . S
C1229 C1230 1.349 . S
C1229 C1231 1.327 . S
C1229 H1252 0.950 . S
C1230 C1229 1.349 . S
C1230 C1242 1.349 . S
C1231 C1229 1.327 . S
C1231 C1247 1.429 . S
C1231 H1253 0.950 . S
C1232 H1228 0.949 . S
C1232 C1240 1.574 . S
C1232 C1248 1.368 . S
H1233 C1241 0.950 . S
H1234 C1239 0.950 . S
H1235 C1240 0.949 . S
H1236 C1242 0.950 . S
H1237 C1243 0.950 . S
H1238 C1244 0.949 . S
C1239 H1234 0.950 . S
C1239 C1241 1.327 . S
C1239 C1245 1.429 . S
C1240 C1232 1.574 . S
C1240 H1235 0.949 . S
C1240 C1246 1.368 . S
C1241 C1225 1.349 . S
C1241 H1233 0.950 . S
C1241 C1239 1.327 . S
C1242 C1230 1.349 . S
C1242 H1236 0.950 . S
C1242 C1243 1.327 . S
C1243 H1237 0.950 . S
C1243 C1242 1.327 . S
C1243 C1247 1.429 . S
C1244 C1227 1.574 . S
C1244 H1238 0.949 . S
C1244 C1248 1.368 . S
C1245 C1226 1.429 . S
C1245 C1239 1.429 . S
C1245 C1246 1.523 . S
C1246 C1227 1.368 . S
C1246 C1240 1.368 . S
C1246 C1245 1.523 . S
C1247 C1231 1.429 . S
C1247 C1243 1.429 . S
C1247 C1248 1.523 . S
C1248 C1232 1.368 . S
C1248 C1244 1.368 . S
C1248 C1247 1.523 . S
H1249 C1224 0.950 . S
H1250 C1226 0.950 . S
H1251 C1227 0.949 . S
H1252 C1229 0.950 . S
H1253 C1231 0.950 . S
C1254 C1255 1.349 . S
C1254 C1256 1.327 . S
C1254 H1279 0.950 . S
C1255 C1254 1.349 . S
C1255 C1271 1.349 . S
C1256 C1254 1.327 . S
C1256 C1275 1.429 . S
C1256 H1280 0.950 . S
C1257 C1274 1.574 . S
C1257 C1276 1.368 . S
C1257 H1281 0.949 . S
H1258 C1262 0.949 . S
C1259 C1260 1.349 . S
C1259 C1261 1.327 . S
C1259 H1282 0.950 . S
C1260 C1259 1.349 . S
C1260 C1272 1.349 . S
C1261 C1259 1.327 . S
C1261 C1277 1.429 . S
C1261 H1283 0.950 . S
C1262 H1258 0.949 . S
C1262 C1270 1.574 . S
C1262 C1278 1.368 . S
H1263 C1271 0.950 . S
H1264 C1269 0.950 . S
H1265 C1270 0.949 . S
H1266 C1272 0.950 . S
H1267 C1273 0.950 . S
H1268 C1274 0.949 . S
C1269 H1264 0.950 . S
C1269 C1271 1.327 . S
C1269 C1275 1.429 . S
C1270 C1262 1.574 . S
C1270 H1265 0.949 . S
C1270 C1276 1.368 . S
C1271 C1255 1.349 . S
C1271 H1263 0.950 . S
C1271 C1269 1.327 . S
C1272 C1260 1.349 . S
C1272 H1266 0.950 . S
C1272 C1273 1.327 . S
C1273 H1267 0.950 . S
C1273 C1272 1.327 . S
C1273 C1277 1.429 . S
C1274 C1257 1.574 . S
C1274 H1268 0.949 . S
C1274 C1278 1.368 . S
C1275 C1256 1.429 . S
C1275 C1269 1.429 . S
C1275 C1276 1.523 . S
C1276 C1257 1.368 . S
C1276 C1270 1.368 . S
C1276 C1275 1.523 . S
C1277 C1261 1.429 . S
C1277 C1273 1.429 . S
C1277 C1278 1.523 . S
C1278 C1262 1.368 . S
C1278 C1274 1.368 . S
C1278 C1277 1.523 . S
H1279 C1254 0.950 . S
H1280 C1256 0.950 . S
H1281 C1257 0.949 . S
H1282 C1259 0.950 . S
H1283 C1261 0.950 . S
C1284 C1285 1.349 . S
C1284 C1286 1.327 . S
C1284 H1309 0.950 . S
C1285 C1284 1.349 . S
C1285 C1301 1.349 . S
C1286 C1284 1.327 . S
C1286 C1305 1.429 . S
C1286 H1310 0.950 . S
C1287 C1304 1.574 . S
C1287 C1306 1.368 . S
C1287 H1311 0.949 . S
H1288 C1292 0.949 . S
C1289 C1290 1.349 . S
C1289 C1291 1.327 . S
C1289 H1312 0.950 . S
C1290 C1289 1.349 . S
C1290 C1302 1.349 . S
C1291 C1289 1.327 . S
C1291 C1307 1.429 1_554 S
C1291 H1313 0.950 . S
C1292 H1288 0.949 . S
C1292 C1300 1.574 . S
C1292 C1308 1.368 . S
H1293 C1301 0.950 . S
H1294 C1299 0.950 . S
H1295 C1300 0.949 . S
H1296 C1302 0.950 . S
H1297 C1303 0.950 . S
H1298 C1304 0.949 . S
C1299 H1294 0.950 . S
C1299 C1301 1.327 . S
C1299 C1305 1.429 . S
C1300 C1292 1.574 . S
C1300 H1295 0.949 . S
C1300 C1306 1.368 . S
C1301 C1285 1.349 . S
C1301 H1293 0.950 . S
C1301 C1299 1.327 . S
C1302 C1290 1.349 . S
C1302 H1296 0.950 . S
C1302 C1303 1.327 1_554 S
C1303 H1297 0.950 . S
C1303 C1302 1.327 1_556 S
C1303 C1307 1.429 . S
C1304 C1287 1.574 . S
C1304 H1298 0.949 . S
C1304 C1308 1.368 . S
C1305 C1286 1.429 . S
C1305 C1299 1.429 . S
C1305 C1306 1.523 . S
C1306 C1287 1.368 . S
C1306 C1300 1.368 . S
C1306 C1305 1.523 . S
C1307 C1291 1.429 1_556 S
C1307 C1303 1.429 . S
C1307 C1308 1.523 . S
C1308 C1292 1.368 . S
C1308 C1304 1.368 . S
C1308 C1307 1.523 . S
H1309 C1284 0.950 . S
H1310 C1286 0.950 . S
H1311 C1287 0.949 . S
H1312 C1289 0.950 . S
H1313 C1291 0.950 . S
C1314 C1315 1.349 . S
C1314 C1316 1.327 . S
C1314 H1339 0.950 . S
C1315 C1314 1.349 . S
C1315 C1331 1.349 . S
C1316 C1314 1.327 . S
C1316 C1335 1.429 . S
C1316 H1340 0.950 . S
C1317 C1334 1.574 . S
C1317 C1336 1.368 . S
C1317 H1341 0.949 . S
H1318 C1322 0.949 1_556 S
C1319 C1320 1.349 1_554 S
C1319 C1321 1.327 . S
C1319 H1342 0.950 . S
C1320 C1319 1.349 1_556 S
C1320 C1332 1.349 . S
C1321 C1319 1.327 . S
C1321 C1337 1.429 . S
C1321 H1343 0.950 . S
C1322 H1318 0.949 1_554 S
C1322 C1330 1.574 . S
C1322 C1338 1.368 . S
H1323 C1331 0.950 . S
H1324 C1329 0.950 . S
H1325 C1330 0.949 . S
H1326 C1332 0.950 . S
H1327 C1333 0.950 . S
H1328 C1334 0.949 . S
C1329 H1324 0.950 . S
C1329 C1331 1.327 . S
C1329 C1335 1.429 . S
C1330 C1322 1.574 . S
C1330 H1325 0.949 . S
C1330 C1336 1.368 . S
C1331 C1315 1.349 . S
C1331 H1323 0.950 . S
C1331 C1329 1.327 . S
C1332 C1320 1.349 . S
C1332 H1326 0.950 . S
C1332 C1333 1.327 . S
C1333 H1327 0.950 . S
C1333 C1332 1.327 . S
C1333 C1337 1.429 1_556 S
C1334 C1317 1.574 . S
C1334 H1328 0.949 . S
C1334 C1338 1.368 . S
C1335 C1316 1.429 . S
C1335 C1329 1.429 . S
C1335 C1336 1.523 . S
C1336 C1317 1.368 . S
C1336 C1330 1.368 . S
C1336 C1335 1.523 . S
C1337 C1321 1.429 . S
C1337 C1333 1.429 1_554 S
C1337 C1338 1.523 . S
C1338 C1322 1.368 . S
C1338 C1334 1.368 . S
C1338 C1337 1.523 . S
H1339 C1314 0.950 . S
H1340 C1316 0.950 . S
H1341 C1317 0.949 . S
H1342 C1319 0.950 . S
H1343 C1321 0.950 . S
C265 C6 1.550 . S
C270 C8 1.555 . S
C295 C28 1.550 1_556 S
C300 C30 1.555 . S
C325 C52 1.555 . S
C330 C50 1.550 . S
C355 C72 1.550 . S
C360 C74 1.555 . S
C385 C96 1.555 . S
C390 C94 1.550 . S
C415 C116 1.550 . S
C420 C118 1.555 . S
C445 C139 1.550 1_554 S
C450 C136 1.555 . S
C475 C158 1.555 . S
C480 C161 1.550 . S
C505 C180 1.555 1_556 S
C510 C183 1.550 . S
C535 C202 1.555 . S
C540 C205 1.550 . S
C565 C227 1.550 . S
C570 C224 1.555 . S
C595 C246 1.555 . S
C600 C249 1.550 . S
C625 C4 1.423 1_556 S
C630 C162 1.423 . S
C655 C184 1.423 . S
C660 C26 1.423 . S
C685 C206 1.423 . S
C690 C48 1.423 . S
C715 C70 1.423 . S
C720 C228 1.423 . S
C745 C92 1.423 . S
C750 C250 1.423 . S
C775 C114 1.423 . S
C780 C140 1.423 . S
C805 C5 0.945 . S
C810 C229 0.945 . S
C835 C27 0.945 . S
C840 C251 0.945 . S
C865 C141 0.945 . S
C870 C49 0.945 . S
C895 C71 0.945 . S
C900 C163 0.945 . S
C925 C93 0.945 . S
C930 C185 0.945 . S
C955 C207 0.945 . S
C960 C115 0.945 . S
C985 C9 1.067 . S
C990 C181 1.067 . S
C1015 C203 1.067 . S
C1020 C31 1.067 . S
C1045 C225 1.068 . S
C1050 C53 1.068 . S
C1075 C75 1.067 . S
C1080 C247 1.067 . S
C1105 C137 1.067 . S
C1110 C97 1.067 . S
C1135 C119 1.068 . S
C1140 C159 1.068 . S
C1165 C7 0.983 . S
C1170 C226 0.983 . S
C1195 C29 0.983 . S
C1200 C248 0.983 . S
C1225 C51 0.983 . S
C1230 C138 0.983 . S
C1255 C160 0.983 . S
C1260 C73 0.983 . S
C1285 C95 0.983 . S
C1290 C182 0.983 . S
C1315 C204 0.983 . S
C1320 C117 0.983 . S
